# Generated by pormake.
# Topology ctn, (3,4)-cn, num edge types: 1
# Building blocks:
#     Node 0, Type 0, BuildingBlock: BETDIP_clean_linker_0, # of connection points: 3
#     Node 1, Type 0, BuildingBlock: BETDIP_clean_linker_0, # of connection points: 3
#     Node 2, Type 0, BuildingBlock: BETDIP_clean_linker_0, # of connection points: 3
#     Node 3, Type 0, BuildingBlock: BETDIP_clean_linker_0, # of connection points: 3
#     Node 4, Type 0, BuildingBlock: BETDIP_clean_linker_0, # of connection points: 3
#     Node 5, Type 0, BuildingBlock: BETDIP_clean_linker_0, # of connection points: 3
#     Node 6, Type 0, BuildingBlock: BETDIP_clean_linker_0, # of connection points: 3
#     Node 7, Type 0, BuildingBlock: BETDIP_clean_linker_0, # of connection points: 3
#     Node 8, Type 0, BuildingBlock: BETDIP_clean_linker_0, # of connection points: 3
#     Node 9, Type 0, BuildingBlock: BETDIP_clean_linker_0, # of connection points: 3
#     Node 10, Type 0, BuildingBlock: BETDIP_clean_linker_0, # of connection points: 3
#     Node 11, Type 0, BuildingBlock: BETDIP_clean_linker_0, # of connection points: 3
#     Node 12, Type 0, BuildingBlock: BETDIP_clean_linker_0, # of connection points: 3
#     Node 13, Type 0, BuildingBlock: BETDIP_clean_linker_0, # of connection points: 3
#     Node 14, Type 0, BuildingBlock: BETDIP_clean_linker_0, # of connection points: 3
#     Node 15, Type 0, BuildingBlock: BETDIP_clean_linker_0, # of connection points: 3
#     Node 16, Type 1, BuildingBlock: KUFVIS_clean_sbu_0, # of connection points: 4
#     Node 17, Type 1, BuildingBlock: KUFVIS_clean_sbu_0, # of connection points: 4
#     Node 18, Type 1, BuildingBlock: KUFVIS_clean_sbu_0, # of connection points: 4
#     Node 19, Type 1, BuildingBlock: KUFVIS_clean_sbu_0, # of connection points: 4
#     Node 20, Type 1, BuildingBlock: KUFVIS_clean_sbu_0, # of connection points: 4
#     Node 21, Type 1, BuildingBlock: KUFVIS_clean_sbu_0, # of connection points: 4
#     Node 22, Type 1, BuildingBlock: KUFVIS_clean_sbu_0, # of connection points: 4
#     Node 23, Type 1, BuildingBlock: KUFVIS_clean_sbu_0, # of connection points: 4
#     Node 24, Type 1, BuildingBlock: KUFVIS_clean_sbu_0, # of connection points: 4
#     Node 25, Type 1, BuildingBlock: KUFVIS_clean_sbu_0, # of connection points: 4
#     Node 26, Type 1, BuildingBlock: KUFVIS_clean_sbu_0, # of connection points: 4
#     Node 27, Type 1, BuildingBlock: KUFVIS_clean_sbu_0, # of connection points: 4
#     Edge 28, Type (0, 1), BuildingBlock: TEMPAE_clean_linker_10, # of connection points: 2
#     Edge 29, Type (0, 1), BuildingBlock: TEMPAE_clean_linker_10, # of connection points: 2
#     Edge 30, Type (0, 1), BuildingBlock: TEMPAE_clean_linker_10, # of connection points: 2
#     Edge 31, Type (0, 1), BuildingBlock: TEMPAE_clean_linker_10, # of connection points: 2
#     Edge 32, Type (0, 1), BuildingBlock: TEMPAE_clean_linker_10, # of connection points: 2
#     Edge 33, Type (0, 1), BuildingBlock: TEMPAE_clean_linker_10, # of connection points: 2
#     Edge 34, Type (0, 1), BuildingBlock: TEMPAE_clean_linker_10, # of connection points: 2
#     Edge 35, Type (0, 1), BuildingBlock: TEMPAE_clean_linker_10, # of connection points: 2
#     Edge 36, Type (0, 1), BuildingBlock: TEMPAE_clean_linker_10, # of connection points: 2
#     Edge 37, Type (0, 1), BuildingBlock: TEMPAE_clean_linker_10, # of connection points: 2
#     Edge 38, Type (0, 1), BuildingBlock: TEMPAE_clean_linker_10, # of connection points: 2
#     Edge 39, Type (0, 1), BuildingBlock: TEMPAE_clean_linker_10, # of connection points: 2
#     Edge 40, Type (0, 1), BuildingBlock: TEMPAE_clean_linker_10, # of connection points: 2
#     Edge 41, Type (0, 1), BuildingBlock: TEMPAE_clean_linker_10, # of connection points: 2
#     Edge 42, Type (0, 1), BuildingBlock: TEMPAE_clean_linker_10, # of connection points: 2
#     Edge 43, Type (0, 1), BuildingBlock: TEMPAE_clean_linker_10, # of connection points: 2
#     Edge 44, Type (0, 1), BuildingBlock: TEMPAE_clean_linker_10, # of connection points: 2
#     Edge 45, Type (0, 1), BuildingBlock: TEMPAE_clean_linker_10, # of connection points: 2
#     Edge 46, Type (0, 1), BuildingBlock: TEMPAE_clean_linker_10, # of connection points: 2
#     Edge 47, Type (0, 1), BuildingBlock: TEMPAE_clean_linker_10, # of connection points: 2
#     Edge 48, Type (0, 1), BuildingBlock: TEMPAE_clean_linker_10, # of connection points: 2
#     Edge 49, Type (0, 1), BuildingBlock: TEMPAE_clean_linker_10, # of connection points: 2
#     Edge 50, Type (0, 1), BuildingBlock: TEMPAE_clean_linker_10, # of connection points: 2
#     Edge 51, Type (0, 1), BuildingBlock: TEMPAE_clean_linker_10, # of connection points: 2
#     Edge 52, Type (0, 1), BuildingBlock: TEMPAE_clean_linker_10, # of connection points: 2
#     Edge 53, Type (0, 1), BuildingBlock: TEMPAE_clean_linker_10, # of connection points: 2
#     Edge 54, Type (0, 1), BuildingBlock: TEMPAE_clean_linker_10, # of connection points: 2
#     Edge 55, Type (0, 1), BuildingBlock: TEMPAE_clean_linker_10, # of connection points: 2
#     Edge 56, Type (0, 1), BuildingBlock: TEMPAE_clean_linker_10, # of connection points: 2
#     Edge 57, Type (0, 1), BuildingBlock: TEMPAE_clean_linker_10, # of connection points: 2
#     Edge 58, Type (0, 1), BuildingBlock: TEMPAE_clean_linker_10, # of connection points: 2
#     Edge 59, Type (0, 1), BuildingBlock: TEMPAE_clean_linker_10, # of connection points: 2
#     Edge 60, Type (0, 1), BuildingBlock: TEMPAE_clean_linker_10, # of connection points: 2
#     Edge 61, Type (0, 1), BuildingBlock: TEMPAE_clean_linker_10, # of connection points: 2
#     Edge 62, Type (0, 1), BuildingBlock: TEMPAE_clean_linker_10, # of connection points: 2
#     Edge 63, Type (0, 1), BuildingBlock: TEMPAE_clean_linker_10, # of connection points: 2
#     Edge 64, Type (0, 1), BuildingBlock: TEMPAE_clean_linker_10, # of connection points: 2
#     Edge 65, Type (0, 1), BuildingBlock: TEMPAE_clean_linker_10, # of connection points: 2
#     Edge 66, Type (0, 1), BuildingBlock: TEMPAE_clean_linker_10, # of connection points: 2
#     Edge 67, Type (0, 1), BuildingBlock: TEMPAE_clean_linker_10, # of connection points: 2
#     Edge 68, Type (0, 1), BuildingBlock: TEMPAE_clean_linker_10, # of connection points: 2
#     Edge 69, Type (0, 1), BuildingBlock: TEMPAE_clean_linker_10, # of connection points: 2
#     Edge 70, Type (0, 1), BuildingBlock: TEMPAE_clean_linker_10, # of connection points: 2
#     Edge 71, Type (0, 1), BuildingBlock: TEMPAE_clean_linker_10, # of connection points: 2
#     Edge 72, Type (0, 1), BuildingBlock: TEMPAE_clean_linker_10, # of connection points: 2
#     Edge 73, Type (0, 1), BuildingBlock: TEMPAE_clean_linker_10, # of connection points: 2
#     Edge 74, Type (0, 1), BuildingBlock: TEMPAE_clean_linker_10, # of connection points: 2
#     Edge 75, Type (0, 1), BuildingBlock: TEMPAE_clean_linker_10, # of connection points: 2
# Relax obj value: 0.079
# Max RMSD: 0.188
# Mean RMSD: 0.122
data_MOF--net-ctn--node1-KUFVIS_clean_sbu_0--node2-BETDIP_clean_linker_0--edge1-TEMPAE_clean_linker_10
_symmetry_space_group_name_H-M    P1
_symmetry_Int_Tables_number       1
_symmetry_cell_setting            triclinic
loop_
_symmetry_equiv_pos_as_xyz
'x, y, z'
_cell_length_a     52.225894
_cell_length_b     52.350268
_cell_length_c     57.892643
_cell_angle_alpha  94.50818
_cell_angle_beta   94.092103
_cell_angle_gamma 94.676435
loop_
_atom_site_label
_atom_site_type_symbol
_atom_site_fract_x
_atom_site_fract_y
_atom_site_fract_z
_atom_type_partial_charge
H0 H 0.03771 0.0677 0.07516 0.0
H1 H 0.08927 0.03834 0.02684 0.0
H2 H 0.07968 1.00274 0.09044 0.0
H3 H 0.0605 0.05387 1.00087 0.0
C4 C 0.05691 0.07217 0.0097 0.0
C5 C 0.05137 0.05405 0.07043 0.0
C6 C 0.0572 0.03499 0.0853 0.0
C7 C 0.06219 0.05498 0.049 0.0
C8 C 0.07991 0.03722 0.04287 0.0
C9 C 0.08654 0.01853 0.05785 0.0
C10 C 0.07493 0.01735 0.07896 0.0
N11 N 0.05527 0.07423 0.03421 0.0
H12 H 0.3047 0.67297 0.17182 0.0
H13 H 0.37628 0.71116 0.20279 0.0
H14 H 0.3384 0.64859 0.23516 0.0
H15 H 0.31804 0.6878 0.13929 0.0
C16 C 0.32803 0.7065 0.14488 0.0
C17 C 0.32047 0.67464 0.18515 0.0
C18 C 0.31924 0.65856 0.20343 0.0
C19 C 0.34148 0.69316 0.18453 0.0
C20 C 0.36088 0.69599 0.2028 0.0
C21 C 0.36003 0.68007 0.2213 0.0
C22 C 0.33936 0.66101 0.22108 0.0
N23 N 0.34278 0.71039 0.16669 0.0
H24 H 0.96172 0.49871 0.99905 0.0
H25 H 0.01804 0.47479 0.04881 0.0
H26 H 0.9696 0.53347 0.06955 0.0
H27 H 0.03674 0.46091 0.01751 0.0
C28 C 0.02077 0.4539 0.00498 0.0
C29 C 0.97115 0.50053 0.01647 0.0
C30 C 0.96313 0.51808 0.0336 0.0
C31 C 0.9911 0.48503 0.0216 0.0
C32 C 1.00312 0.48708 0.04426 0.0
C33 C 0.99555 0.50453 0.06159 0.0
C34 C 0.97528 0.51975 0.05628 0.0
N35 N 0.99782 0.46683 0.00394 0.0
H36 H 0.70368 0.78978 0.18298 0.0
H37 H 0.73497 0.8558 0.22808 0.0
H38 H 0.76615 0.83992 0.16263 0.0
H39 H 0.69776 0.85246 0.2437 0.0
C40 C 0.68975 0.83258 0.24099 0.0
C41 C 0.71701 0.80687 0.18614 0.0
C42 C 0.73548 0.81241 0.17023 0.0
C43 C 0.71584 0.82295 0.20657 0.0
C44 C 0.73425 0.84426 0.21169 0.0
C45 C 0.75289 0.85 0.19609 0.0
C46 C 0.75259 0.83462 0.17511 0.0
N47 N 0.69669 0.81631 0.22196 0.0
H48 H 0.02879 0.96439 0.45431 0.0
H49 H 0.0977 0.9796 0.50028 0.0
H50 H 0.08559 0.02592 0.44336 0.0
H51 H 0.09086 0.93325 0.49885 0.0
C52 C 0.07064 0.9323 0.50232 0.0
C53 C 0.04714 0.97542 0.45896 0.0
C54 C 0.05512 0.99599 0.44606 0.0
C55 C 0.06275 0.96879 0.47797 0.0
C56 C 0.08615 0.98363 0.48491 0.0
C57 C 0.09386 0.00475 0.47281 0.0
C58 C 0.07872 0.01026 0.45313 0.0
N59 N 0.05389 0.94791 0.49049 0.0
H60 H 0.20679 0.72616 0.83201 0.0
H61 H 0.23804 0.66735 0.79003 0.0
H62 H 0.27742 0.69657 0.85611 0.0
H63 H 0.20959 0.67655 0.76212 0.0
C64 C 0.19544 0.68815 0.76953 0.0
C65 C 0.22183 0.71332 0.82956 0.0
C66 C 0.2428 0.71408 0.84618 0.0
C67 C 0.22009 0.69691 0.80932 0.0
C68 C 0.23915 0.67987 0.80587 0.0
C69 C 0.25985 0.67906 0.82286 0.0
C70 C 0.26151 0.69645 0.84303 0.0
N71 N 0.19885 0.69874 0.79299 0.0
H72 H 0.02097 0.56764 0.46757 0.0
H73 H 0.96932 0.49885 0.4547 0.0
H74 H 0.9595 0.55434 0.51156 0.0
H75 H 0.9827 0.49755 0.41903 0.0
C76 C 1.00167 0.50786 0.41988 0.0
C77 C 0.00425 0.55584 0.47193 0.0
C78 C 0.99149 0.56315 0.4915 0.0
C79 C 0.99598 0.53305 0.45816 0.0
C80 C 0.97491 0.51715 0.46443 0.0
C81 C 0.96153 0.5245 0.48387 0.0
C82 C 0.96985 0.54782 0.49696 0.0
N83 N 0.00993 0.52661 0.43862 0.0
H84 H 0.81645 0.85563 0.78795 0.0
H85 H 0.85115 0.80205 0.82997 0.0
H86 H 0.78168 0.8337 0.84963 0.0
H87 H 0.88594 0.81116 0.81104 0.0
C88 C 0.87974 0.81798 0.7945 0.0
C89 C 0.81649 0.84523 0.80341 0.0
C90 C 0.79655 0.84715 0.81839 0.0
C91 C 0.83658 0.82979 0.80771 0.0
C92 C 0.83642 0.81503 0.827 0.0
C93 C 0.81642 0.81603 0.84205 0.0
C94 C 0.79668 0.83233 0.83771 0.0
N95 N 0.85583 0.82893 0.79153 0.0
H96 H 0.31557 0.35761 0.28438 0.0
H97 H 0.3502 0.30452 0.327 0.0
H98 H 0.2802 0.33567 0.34579 0.0
H99 H 0.38562 0.31514 0.30915 0.0
C100 C 0.37938 0.32094 0.29221 0.0
C101 C 0.3155 0.34728 0.29987 0.0
C102 C 0.29536 0.34913 0.31466 0.0
C103 C 0.33569 0.33203 0.30448 0.0
C104 C 0.3354 0.31738 0.32383 0.0
C105 C 0.31519 0.31827 0.33863 0.0
C106 C 0.29536 0.33437 0.33403 0.0
N107 N 0.35518 0.33118 0.28853 0.0
H108 H 0.4642 0.00363 0.4997 0.0
H109 H 0.51569 0.97537 0.55117 0.0
H110 H 0.47096 0.0377 0.57046 0.0
H111 H 0.53699 0.96402 0.51997 0.0
C112 C 0.52147 0.95707 0.50695 0.0
C113 C 0.47282 0.00478 0.51739 0.0
C114 C 0.46506 0.02274 0.53434 0.0
C115 C 0.49143 0.98797 0.52309 0.0
C116 C 0.50193 0.98872 0.5462 0.0
C117 C 0.49475 0.00669 0.56325 0.0
C118 C 0.47641 0.02375 0.55727 0.0
N119 N 0.49844 0.96988 0.50548 0.0
H120 H 0.19692 0.29109 0.6776 0.0
H121 H 0.23274 0.35102 0.72753 0.0
H122 H 0.26718 0.33408 0.66376 0.0
H123 H 0.19458 0.35003 0.74163 0.0
C124 C 0.18571 0.3305 0.73827 0.0
C125 C 0.21229 0.30609 0.6827 0.0
C126 C 0.23207 0.31084 0.6679 0.0
C127 C 0.21192 0.32077 0.70402 0.0
C128 C 0.23195 0.34022 0.71076 0.0
C129 C 0.2519 0.34511 0.69624 0.0
C130 C 0.2517 0.33042 0.67489 0.0
N131 N 0.19172 0.31474 0.71854 0.0
H132 H 0.79832 0.16971 0.66794 0.0
H133 H 0.86855 0.21056 0.69909 0.0
H134 H 0.834 0.14621 0.73103 0.0
H135 H 0.86784 0.23264 0.66849 0.0
C136 C 0.84961 0.22866 0.65815 0.0
C137 C 0.81392 0.17193 0.68154 0.0
C138 C 0.81363 0.15578 0.69976 0.0
C139 C 0.83379 0.19139 0.6808 0.0
C140 C 0.85377 0.19485 0.69875 0.0
C141 C 0.85408 0.1786 0.71707 0.0
C142 C 0.83412 0.15881 0.71706 0.0
N143 N 0.83191 0.2077 0.6623 0.0
H144 H 0.53612 0.56691 0.57793 0.0
H145 H 0.59413 0.54504 0.53308 0.0
H146 H 0.57803 0.50138 0.5912 0.0
H147 H 0.59689 0.59197 0.53208 0.0
C148 C 0.57639 0.59252 0.52759 0.0
C149 C 0.55074 0.55422 0.57344 0.0
C150 C 0.55562 0.53384 0.58706 0.0
C151 C 0.56464 0.55849 0.5541 0.0
C152 C 0.58368 0.54214 0.5483 0.0
C153 C 0.58852 0.52131 0.56145 0.0
C154 C 0.57419 0.51712 0.58073 0.0
N155 N 0.55832 0.57862 0.54017 0.0
H156 H 0.52533 0.46502 0.95609 0.0
H157 H 0.59437 0.48064 1.00183 0.0
H158 H 0.58131 0.52738 0.94537 0.0
H159 H 0.58823 0.43418 0.99964 0.0
C160 C 0.56807 0.43285 1.00334 0.0
C161 C 0.54355 0.47629 0.96078 0.0
C162 C 0.55121 0.49706 0.94799 0.0
C163 C 0.55936 0.46967 0.97967 0.0
C164 C 0.58263 0.48474 0.9866 0.0
C165 C 0.59001 0.50607 0.97464 0.0
C166 C 0.57466 0.5116 0.9551 0.0
N167 N 0.55093 0.44846 0.99198 0.0
H168 H 0.70508 0.22297 0.3347 0.0
H169 H 0.7392 0.16718 0.2917 0.0
H170 H 0.77713 0.19587 0.35848 0.0
H171 H 0.71075 0.17622 0.26379 0.0
C172 C 0.69628 0.18742 0.27116 0.0
C173 C 0.72075 0.21095 0.33208 0.0
C174 C 0.74172 0.21219 0.34878 0.0
C175 C 0.71988 0.19527 0.31146 0.0
C176 C 0.73968 0.17917 0.3078 0.0
C177 C 0.76028 0.17859 0.32492 0.0
C178 C 0.76121 0.19546 0.34538 0.0
N179 N 0.69882 0.19702 0.29491 0.0
H180 H 0.52234 0.06407 0.96989 0.0
H181 H 0.47161 0.99453 0.95802 0.0
H182 H 0.46233 0.0497 0.01523 0.0
H183 H 0.48474 0.99276 0.92236 0.0
C184 C 0.50337 0.00366 0.92276 0.0
C185 C 0.50599 0.05199 0.97462 0.0
C186 C 0.49359 0.05913 0.99447 0.0
C187 C 0.49785 0.02906 0.96101 0.0
C188 C 0.47721 0.01287 0.96768 0.0
C189 C 0.46421 0.02 0.98742 0.0
C190 C 0.47246 0.0434 1.0004 0.0
N191 N 0.51147 0.02283 0.94119 0.0
Mn192 Mn 0.26609 0.87149 0.01579 0.0
Mn193 Mn 0.26424 0.90402 0.96774 0.0
C194 C 0.24945 0.85095 0.98023 0.0
C195 C 0.28563 0.84594 0.04202 0.0
C196 C 0.22809 0.91168 0.00587 0.0
O197 O 0.29317 0.9018 0.02457 0.0
O198 O 0.29117 0.92108 0.99094 0.0
C199 C 0.31555 0.89549 0.95133 0.0
N200 N 0.2894 0.89344 0.94746 0.0
C201 C 0.2917 0.8775 0.90762 0.0
C202 C 0.31866 0.87942 0.91116 0.0
C203 C 0.33062 0.88831 0.93316 0.0
C204 C 0.27769 0.88459 0.92647 0.0
H205 H 0.32485 0.90266 0.96812 0.0
C206 C 0.30081 0.91916 0.01163 0.0
O207 O 0.26791 0.86059 0.04788 0.0
O208 O 0.29266 0.84666 0.02098 0.0
N209 N 0.23925 0.88893 0.94379 0.0
C210 C 0.21308 0.88644 0.94378 0.0
C211 C 0.19817 0.87682 0.92333 0.0
C212 C 0.21031 0.87033 0.90305 0.0
C213 C 0.23728 0.87307 0.90353 0.0
C214 C 0.25112 0.88225 0.92452 0.0
H215 H 0.20368 0.89183 0.95923 0.0
O216 O 0.24219 0.8427 0.99953 0.0
O217 O 0.26543 0.87149 0.9824 0.0
O218 O 0.2365 0.89473 0.01832 0.0
O219 O 0.23732 0.91686 0.98682 0.0
C220 C 0.25099 0.86707 0.88402 0.0
C221 C 0.27817 0.86892 0.88613 0.0
H222 H 0.33035 0.87406 0.89714 0.0
H223 H 0.35142 0.88986 0.93604 0.0
H224 H 0.17737 0.87469 0.92312 0.0
H225 H 0.19874 0.86313 0.88725 0.0
H226 H 0.24079 0.86064 0.86737 0.0
H227 H 0.28847 0.86363 0.87113 0.0
Mn228 Mn 0.14401 0.50308 0.24803 0.0
Mn229 Mn 0.1248 0.56318 0.25356 0.0
C230 C 0.16879 0.53686 0.23471 0.0
C231 C 0.16589 0.47044 0.26389 0.0
C232 C 0.10199 0.52262 0.2157 0.0
O233 O 0.11688 0.50007 0.27145 0.0
O234 O 0.10693 0.54111 0.27488 0.0
C235 C 0.14715 0.578 0.30166 0.0
N236 N 0.14469 0.58275 0.27885 0.0
C237 C 0.1706 0.62306 0.28659 0.0
C238 C 0.17336 0.61867 0.31019 0.0
C239 C 0.1617 0.59597 0.31773 0.0
C240 C 0.15616 0.60431 0.27136 0.0
H241 H 0.13803 0.56067 0.30753 0.0
C242 C 0.10455 0.51789 0.28043 0.0
O243 O 0.14798 0.46529 0.24702 0.0
O244 O 0.17081 0.49437 0.27164 0.0
N245 N 0.1403 0.58714 0.23431 0.0
C246 C 0.13675 0.58785 0.21083 0.0
C247 C 0.14713 0.6093 0.20045 0.0
C248 C 0.16073 0.62991 0.21434 0.0
C249 C 0.16442 0.62861 0.23843 0.0
C250 C 0.15354 0.60679 0.2478 0.0
H251 H 0.12589 0.57228 0.20014 0.0
O252 O 0.17119 0.51324 0.22721 0.0
O253 O 0.15237 0.54011 0.25038 0.0
O254 O 0.11579 0.50466 0.22142 0.0
O255 O 0.10371 0.54481 0.22685 0.0
C256 C 0.17836 0.64814 0.25354 0.0
C257 C 0.18167 0.64524 0.27757 0.0
H258 H 0.18444 0.63255 0.32266 0.0
H259 H 0.16379 0.59241 0.3359 0.0
H260 H 0.14436 0.61011 0.18183 0.0
H261 H 0.16824 0.64664 0.2063 0.0
H262 H 0.18683 0.66536 0.24685 0.0
H263 H 0.19279 0.66019 0.28894 0.0
Mn264 Mn 0.78526 0.65763 1.00052 0.0
Mn265 Mn 0.73242 0.68142 0.97584 0.0
C266 C 0.74501 0.63504 1.00049 0.0
C267 C 0.82152 0.63403 1.00012 0.0
C268 C 0.75667 0.70061 0.02354 0.0
O269 O 0.80091 0.68447 0.9803 0.0
O270 O 0.76411 0.6981 0.96487 0.0
C271 C 0.73704 0.66082 0.92733 0.0
N272 N 0.72287 0.66351 0.94608 0.0
C273 C 0.68487 0.64277 0.92432 0.0
C274 C 0.69902 0.63974 0.90473 0.0
C275 C 0.72528 0.64864 0.9063 0.0
C276 C 0.6978 0.65449 0.94492 0.0
H277 H 0.7571 0.66804 0.9284 0.0
C278 C 0.78864 0.69864 0.96718 0.0
O279 O 0.81974 0.65292 0.0156 0.0
O280 O 0.80255 0.62931 0.98413 0.0
N281 N 0.69979 0.66769 0.98439 0.0
C282 C 0.6891 0.67176 0.005 0.0
C283 C 0.66271 0.66503 0.00623 0.0
C284 C 0.64757 0.65452 0.98619 0.0
C285 C 0.65912 0.64982 0.96533 0.0
C286 C 0.68544 0.65718 0.96511 0.0
H287 H 0.70048 0.68069 0.02025 0.0
O288 O 0.76376 0.63136 0.01548 0.0
O289 O 0.75033 0.65164 0.98548 0.0
O290 O 0.77473 0.6857 0.02368 0.0
O291 O 0.74005 0.70106 0.00639 0.0
C292 C 0.64549 0.63861 0.94462 0.0
C293 C 0.65844 0.63476 0.92421 0.0
H294 H 0.68994 0.63064 0.88841 0.0
H295 H 0.73633 0.6464 0.89127 0.0
H296 H 0.65394 0.66847 0.02243 0.0
H297 H 0.62706 0.65008 0.98708 0.0
H298 H 0.62509 0.63272 0.94423 0.0
H299 H 0.64784 0.6258 0.9085 0.0
Mn300 Mn 0.91737 0.02792 0.26 0.0
Mn301 Mn 0.94456 0.97141 0.25866 0.0
C302 C 0.89511 0.99113 0.24117 0.0
C303 C 0.89291 0.05845 0.27752 0.0
C304 C 0.95931 0.01357 0.22788 0.0
O305 O 0.94584 0.03431 0.28639 0.0
O306 O 0.96161 0.99541 0.28438 0.0
C307 C 0.92897 0.954 0.30346 0.0
N308 N 0.92952 0.94971 0.28 0.0
C309 C 0.91005 0.90652 0.28041 0.0
C310 C 0.90932 0.91043 0.30459 0.0
C311 C 0.91868 0.93434 0.31614 0.0
C312 C 0.92021 0.92694 0.26867 0.0
H313 H 0.93644 0.97223 0.31245 0.0
C314 C 0.9611 0.01832 0.29369 0.0
O315 O 0.90947 0.06459 0.26277 0.0
O316 O 0.89095 0.03467 0.28254 0.0
N317 N 0.92979 0.94593 0.23493 0.0
C318 C 0.93037 0.94591 0.21145 0.0
C319 C 0.92106 0.92364 0.19723 0.0
C320 C 0.91173 0.90154 0.20734 0.0
C321 C 0.91122 0.90208 0.23156 0.0
C322 C 0.92049 0.92488 0.24481 0.0
H323 H 0.93804 0.96268 0.20365 0.0
O324 O 0.88958 0.01381 0.23591 0.0
O325 O 0.9136 0.99055 0.2574 0.0
O326 O 0.94354 0.02923 0.23504 0.0
O327 O 0.96148 0.99175 0.23584 0.0
C328 C 0.90192 0.8809 0.24311 0.0
C329 C 0.90106 0.8832 0.26748 0.0
H330 H 0.90155 0.89525 0.31444 0.0
H331 H 0.91816 0.93753 0.33479 0.0
H332 H 0.9214 0.92339 0.17855 0.0
H333 H 0.90491 0.8843 0.19633 0.0
H334 H 0.89513 0.8628 0.2334 0.0
H335 H 0.89337 0.86695 0.27609 0.0
Mn336 Mn 0.28621 0.16025 0.49774 0.0
Mn337 Mn 0.23229 0.18122 0.47233 0.0
C338 C 0.24656 0.13649 0.49829 0.0
C339 C 0.32313 0.13753 0.49817 0.0
C340 C 0.25568 0.2025 0.51978 0.0
O341 O 0.30107 0.1864 0.47658 0.0
O342 O 0.26362 0.19927 0.46185 0.0
C343 C 0.2389 0.16062 0.42418 0.0
N344 N 0.22411 0.16288 0.44255 0.0
C345 C 0.18719 0.14086 0.42009 0.0
C346 C 0.20199 0.13825 0.40089 0.0
C347 C 0.22801 0.148 0.40301 0.0
C348 C 0.19928 0.15299 0.44088 0.0
H349 H 0.25877 0.1685 0.42565 0.0
C350 C 0.2882 0.20038 0.46378 0.0
O351 O 0.32099 0.15692 0.51304 0.0
O352 O 0.30416 0.13182 0.48233 0.0
N353 N 0.19988 0.16625 0.48025 0.0
C354 C 0.18844 0.17014 0.50051 0.0
C355 C 0.16203 0.16302 0.50105 0.0
C356 C 0.14765 0.15216 0.48073 0.0
C357 C 0.16001 0.1474 0.46031 0.0
C358 C 0.18627 0.15535 0.46072 0.0
H359 H 0.19923 0.17924 0.51599 0.0
O360 O 0.2654 0.13421 0.51365 0.0
O361 O 0.25134 0.15255 0.48271 0.0
O362 O 0.27507 0.18921 0.51984 0.0
O363 O 0.23844 0.20092 0.50288 0.0
C364 C 0.14721 0.13568 0.43942 0.0
C365 C 0.16088 0.13206 0.41941 0.0
H366 H 0.19357 0.12884 0.38445 0.0
H367 H 0.23956 0.14609 0.38827 0.0
H368 H 0.15266 0.16641 0.51695 0.0
H369 H 0.12711 0.14747 0.48106 0.0
H370 H 0.1269 0.12923 0.43859 0.0
H371 H 0.15092 0.12274 0.40354 0.0
Mn372 Mn 0.41464 0.52418 0.76049 0.0
Mn373 Mn 0.44283 0.46827 0.76107 0.0
C374 C 0.39308 0.48655 0.74263 0.0
C375 C 0.38973 0.55497 0.77699 0.0
C376 C 0.45681 0.5092 0.72884 0.0
O377 O 0.44299 0.53194 0.78686 0.0
O378 O 0.45949 0.49342 0.7861 0.0
C379 C 0.42742 0.45257 0.8065 0.0
N380 N 0.42809 0.44735 0.78314 0.0
C381 C 0.40909 0.4042 0.78493 0.0
C382 C 0.40825 0.40908 0.80902 0.0
C383 C 0.41731 0.43343 0.81982 0.0
C384 C 0.41906 0.42414 0.77252 0.0
H385 H 0.43464 0.47116 0.81492 0.0
C386 C 0.45855 0.51654 0.79472 0.0
O387 O 0.40621 0.56068 0.76205 0.0
O388 O 0.38804 0.53145 0.78275 0.0
N389 N 0.42853 0.44174 0.73811 0.0
C390 C 0.42925 0.44072 0.71458 0.0
C391 C 0.4203 0.41786 0.70107 0.0
C392 C 0.41118 0.39621 0.71192 0.0
C393 C 0.41052 0.39776 0.73616 0.0
C394 C 0.41946 0.4211 0.74868 0.0
H395 H 0.43675 0.45716 0.70622 0.0
O396 O 0.38708 0.50884 0.73668 0.0
O397 O 0.41153 0.48684 0.75904 0.0
O398 O 0.44083 0.52486 0.73556 0.0
O399 O 0.4594 0.48784 0.73755 0.0
C400 C 0.40139 0.37708 0.7484 0.0
C401 C 0.4004 0.38038 0.77273 0.0
H402 H 0.40061 0.3943 0.81937 0.0
H403 H 0.41671 0.43736 0.8384 0.0
H404 H 0.42076 0.41683 0.68236 0.0
H405 H 0.40465 0.3785 0.70145 0.0
H406 H 0.39482 0.3586 0.73926 0.0
H407 H 0.39285 0.36449 0.78188 0.0
Mn408 Mn 0.76669 0.37281 0.51632 0.0
Mn409 Mn 0.76051 0.40285 0.46701 0.0
C410 C 0.74855 0.35041 0.48201 0.0
C411 C 0.78869 0.34922 0.5427 0.0
C412 C 0.72631 0.41093 0.50649 0.0
O413 O 0.79333 0.40366 0.52282 0.0
O414 O 0.78743 0.42216 0.48908 0.0
C415 C 0.81179 0.39623 0.44965 0.0
N416 N 0.78559 0.39291 0.44639 0.0
C417 C 0.78741 0.37636 0.40664 0.0
C418 C 0.8144 0.3796 0.40956 0.0
C419 C 0.82664 0.38942 0.43121 0.0
C420 C 0.77365 0.38307 0.42576 0.0
H421 H 0.82128 0.40414 0.46614 0.0
C422 C 0.79887 0.42107 0.50926 0.0
O423 O 0.77096 0.36371 0.5489 0.0
O424 O 0.79408 0.34875 0.52111 0.0
N425 N 0.73554 0.38581 0.44396 0.0
C426 C 0.70948 0.38214 0.44457 0.0
C427 C 0.69437 0.37165 0.4245 0.0
C428 C 0.70617 0.36552 0.40396 0.0
C429 C 0.73305 0.36942 0.40382 0.0
C430 C 0.74713 0.37942 0.42445 0.0
H431 H 0.70031 0.38731 0.4602 0.0
O432 O 0.7426 0.34306 0.50202 0.0
O433 O 0.76396 0.37126 0.48275 0.0
O434 O 0.73704 0.39589 0.51964 0.0
O435 O 0.73339 0.41469 0.48633 0.0
C436 C 0.74643 0.36382 0.38402 0.0
C437 C 0.77361 0.36689 0.38551 0.0
H438 H 0.82591 0.37458 0.39531 0.0
H439 H 0.84746 0.39199 0.4336 0.0
H440 H 0.67365 0.3686 0.42478 0.0
H441 H 0.69444 0.35768 0.38845 0.0
H442 H 0.736 0.35682 0.3676 0.0
H443 H 0.78368 0.3619 0.37029 0.0
Mn444 Mn 0.64318 0.99794 0.74901 0.0
Mn445 Mn 0.62186 0.05723 0.75325 0.0
C446 C 0.66693 0.03191 0.73503 0.0
C447 C 0.66584 0.96639 0.76579 0.0
C448 C 0.60013 0.01506 0.71648 0.0
O449 O 0.61579 0.99477 0.77228 0.0
O450 O 0.60538 0.03568 0.77568 0.0
C451 C 0.64489 0.07473 0.80062 0.0
N452 N 0.64172 0.07836 0.77759 0.0
C453 C 0.66648 0.11944 0.78349 0.0
C454 C 0.66995 0.11622 0.8073 0.0
C455 C 0.65923 0.09369 0.81588 0.0
C456 C 0.65229 0.09974 0.76911 0.0
H457 H 0.63648 0.05753 0.80729 0.0
C458 C 0.60344 0.01252 0.78141 0.0
O459 O 0.64817 0.96045 0.74883 0.0
O460 O 0.67006 0.99051 0.77315 0.0
N461 N 0.63606 0.0806 0.7328 0.0
C462 C 0.63197 0.08012 0.70926 0.0
C463 C 0.64159 0.10115 0.69787 0.0
C464 C 0.65492 0.12258 0.71083 0.0
C465 C 0.65907 0.12256 0.73502 0.0
C466 C 0.64904 0.10107 0.74541 0.0
H467 H 0.62125 0.06392 0.69927 0.0
O468 O 0.6703 0.00829 0.72825 0.0
O469 O 0.65027 0.03505 0.75051 0.0
O470 O 0.61533 0.99817 0.72195 0.0
O471 O 0.60051 0.03722 0.72749 0.0
C472 C 0.67267 0.14304 0.74927 0.0
C473 C 0.67661 0.14136 0.77345 0.0
H474 H 0.68088 0.13087 0.81913 0.0
H475 H 0.66187 0.09103 0.83422 0.0
H476 H 0.63842 0.101 0.67918 0.0
H477 H 0.66188 0.13895 0.702 0.0
H478 H 0.6804 0.16008 0.7418 0.0
H479 H 0.6875 0.15703 0.78415 0.0
Mn480 Mn 0.02595 0.24795 0.8699 0.0
Mn481 Mn 0.96859 0.24571 0.8934 0.0
C482 C 0.98989 0.22559 0.84984 0.0
C483 C 0.05666 0.26682 0.8475 0.0
C484 C 0.01099 0.21301 0.90804 0.0
O485 O 0.03125 0.27807 0.89475 0.0
O486 O 0.9926 0.27391 0.90965 0.0
C487 C 0.9525 0.29561 0.87942 0.0
N488 N 0.94771 0.26966 0.87966 0.0
C489 C 0.90531 0.27062 0.86078 0.0
C490 C 0.90973 0.29736 0.86039 0.0
C491 C 0.9335 0.30988 0.86962 0.0
C492 C 0.9251 0.25738 0.87046 0.0
H493 H 0.97063 0.30535 0.88672 0.0
C494 C 0.01524 0.28515 0.9091 0.0
O495 O 0.06295 0.25174 0.86334 0.0
O496 O 0.03261 0.27143 0.84507 0.0
N497 N 0.94306 0.21977 0.87943 0.0
C498 C 0.94247 0.19376 0.87992 0.0
C499 C 0.9202 0.1783 0.87096 0.0
C500 C 0.89865 0.18978 0.86199 0.0
C501 C 0.89977 0.21659 0.86155 0.0
C502 C 0.92255 0.23097 0.87054 0.0
H503 H 0.95883 0.18491 0.88721 0.0
O504 O 0.0129 0.21985 0.84556 0.0
O505 O 0.98859 0.24414 0.86593 0.0
O506 O 0.02743 0.22216 0.8949 0.0
O507 O 0.98822 0.2201 0.9085 0.0
C508 C 0.87916 0.22964 0.85264 0.0
C509 C 0.88205 0.25659 0.85196 0.0
H510 H 0.89505 0.30845 0.85299 0.0
H511 H 0.93709 0.33051 0.86935 0.0
H512 H 0.91952 0.15761 0.87124 0.0
H513 H 0.88138 0.17781 0.8554 0.0
H514 H 0.86106 0.21912 0.84605 0.0
H515 H 0.86625 0.26632 0.84462 0.0
Mn516 Mn 0.53122 0.7498 0.3737 0.0
Mn517 Mn 0.47446 0.74713 0.3983 0.0
C518 C 0.49508 0.7267 0.35442 0.0
C519 C 0.56122 0.76907 0.35083 0.0
C520 C 0.5187 0.7168 0.41356 0.0
O521 O 0.53627 0.78023 0.39853 0.0
O522 O 0.49693 0.77746 0.41243 0.0
C523 C 0.45414 0.79404 0.38142 0.0
N524 N 0.45141 0.76819 0.38322 0.0
C525 C 0.40855 0.7647 0.3644 0.0
C526 C 0.41084 0.79129 0.36238 0.0
C527 C 0.43381 0.80599 0.3708 0.0
C528 C 0.42958 0.75381 0.37484 0.0
H529 H 0.47165 0.80543 0.38811 0.0
C530 C 0.51972 0.78837 0.41194 0.0
O531 O 0.568 0.75419 0.36667 0.0
O532 O 0.53704 0.77329 0.34864 0.0
N533 N 0.45069 0.71879 0.38606 0.0
C534 C 0.45231 0.69319 0.38794 0.0
C535 C 0.43122 0.67568 0.37973 0.0
C536 C 0.40858 0.68473 0.37007 0.0
C537 C 0.40742 0.71118 0.36829 0.0
C538 C 0.42915 0.72766 0.37648 0.0
H539 H 0.46951 0.68621 0.39575 0.0
O540 O 0.51806 0.72142 0.34954 0.0
O541 O 0.49398 0.74521 0.37055 0.0
O542 O 0.5338 0.72407 0.39854 0.0
O543 O 0.49632 0.72454 0.4152 0.0
C544 C 0.38556 0.72187 0.35874 0.0
C545 C 0.38624 0.74855 0.35648 0.0
H546 H 0.39514 0.80061 0.35434 0.0
H547 H 0.43575 0.82652 0.36927 0.0
H548 H 0.43229 0.65529 0.38108 0.0
H549 H 0.39226 0.67119 0.36396 0.0
H550 H 0.36817 0.70971 0.35295 0.0
H551 H 0.3695 0.75645 0.34863 0.0
Mn552 Mn 0.02018 0.75806 0.62756 0.0
Mn553 Mn 0.98925 0.70512 0.64619 0.0
C554 C 0.02007 0.71842 0.60625 0.0
C555 C 0.02104 0.79477 0.607 0.0
C556 C 0.04192 0.72804 0.66665 0.0
O557 O 0.9975 0.77336 0.65163 0.0
O558 O 0.97642 0.73665 0.66041 0.0
C559 C 0.93713 0.71028 0.62426 0.0
N560 N 0.95738 0.69594 0.62809 0.0
C561 C 0.93368 0.65804 0.6087 0.0
C562 C 0.91251 0.67236 0.60454 0.0
C563 C 0.91433 0.69866 0.61219 0.0
C564 C 0.95609 0.67085 0.62025 0.0
H565 H 0.93837 0.73037 0.63051 0.0
C566 C 0.98049 0.76115 0.66235 0.0
O567 O 0.03773 0.79262 0.62427 0.0
O568 O 1.00319 0.77596 0.60214 0.0
N569 N 0.99909 0.67258 0.63439 0.0
C570 C 0.02142 0.66172 0.63949 0.0
C571 C 0.02252 0.63526 0.63409 0.0
C572 C 1.00058 0.62023 0.62375 0.0
C573 C 0.97807 0.63196 0.61794 0.0
C574 C 0.97803 0.65834 0.62403 0.0
H575 H 0.03805 0.67299 0.64823 0.0
O576 O 0.03734 0.73709 0.60387 0.0
O577 O 1.00277 0.72356 0.62065 0.0
O578 O 0.04414 0.74631 0.65343 0.0
O579 O 0.02188 0.71225 0.66578 0.0
C580 C 0.9555 0.61845 0.60686 0.0
C581 C 0.93342 0.63155 0.60194 0.0
H582 H 0.89478 0.66337 0.59551 0.0
H583 H 0.89809 0.70984 0.60905 0.0
H584 H 0.04003 0.62635 0.63837 0.0
H585 H 1.00131 0.59969 0.62027 0.0
H586 H 0.95494 0.59801 0.60191 0.0
H587 H 0.91631 0.62104 0.59312 0.0
Mn588 Mn 0.5216 0.25653 0.1278 0.0
Mn589 Mn 0.49088 0.20386 0.14707 0.0
C590 C 0.52151 0.21666 0.10685 0.0
C591 C 0.52217 0.29308 0.107 0.0
C592 C 0.54355 0.22714 0.16724 0.0
O593 O 0.49897 0.27206 0.1518 0.0
O594 O 0.47791 0.2355 0.16092 0.0
C595 C 0.43867 0.20846 0.12511 0.0
N596 N 0.45901 0.19429 0.12909 0.0
C597 C 0.43541 0.15602 0.11029 0.0
C598 C 0.41415 0.17017 0.10596 0.0
C599 C 0.41587 0.19656 0.11323 0.0
C600 C 0.45781 0.1691 0.12161 0.0
H601 H 0.43982 0.22863 0.1311 0.0
C602 C 0.48195 0.26 0.16261 0.0
O603 O 0.539 0.29108 0.12421 0.0
O604 O 0.50443 0.27415 0.10226 0.0
N605 N 0.50086 0.17123 0.13568 0.0
C606 C 0.52326 0.16055 0.14093 0.0
C607 C 0.52445 0.13404 0.13596 0.0
C608 C 0.50254 0.11878 0.12589 0.0
C609 C 0.47997 0.13031 0.11989 0.0
C610 C 0.47983 0.15675 0.12556 0.0
H611 H 0.53987 0.17202 0.14949 0.0
O612 O 0.5387 0.23533 0.10422 0.0
O613 O 0.50427 0.22195 0.12128 0.0
O614 O 0.54574 0.24515 0.15374 0.0
O615 O 0.52351 0.21139 0.1666 0.0
C616 C 0.45741 0.11654 0.10903 0.0
C617 C 0.43525 0.12946 0.10394 0.0
H618 H 0.39642 0.16097 0.0971 0.0
H619 H 0.39955 0.2076 0.10997 0.0
H620 H 0.54202 0.12528 0.14038 0.0
H621 H 0.50334 0.0982 0.12275 0.0
H622 H 0.45693 0.09604 0.1044 0.0
H623 H 0.41815 0.11874 0.0953 0.0
C624 C 0.23914 0.75933 0.8617 0.0
C625 C 0.24511 0.73439 0.86592 0.0
C626 C 0.23877 0.77856 0.87983 0.0
C627 C 0.24552 0.77321 0.90293 0.0
C628 C 0.25234 0.74825 0.90736 0.0
C629 C 0.25198 0.72907 0.8888 0.0
C630 C 0.23185 0.80469 0.8737 0.0
C631 C 0.25981 0.7418 0.93174 0.0
C632 C 0.26924 0.82933 0.94701 0.0
C633 C 0.2473 0.83298 0.95905 0.0
C634 C 0.26881 0.81027 0.92852 0.0
C635 C 0.24606 0.79388 0.9223 0.0
C636 C 0.22372 0.79762 0.93429 0.0
C637 C 0.22466 0.81703 0.95266 0.0
C638 C 0.29277 0.80755 0.91575 0.0
C639 C 0.19884 0.78114 0.92761 0.0
H640 H 0.23457 0.76392 0.84401 0.0
H641 H 0.25654 0.70983 0.89223 0.0
H642 H 0.22397 0.8158 0.88824 0.0
H643 H 0.24954 0.81546 0.86883 0.0
H644 H 0.21752 0.80308 0.85841 0.0
H645 H 0.26461 0.72156 0.93233 0.0
H646 H 0.27673 0.75476 0.93926 0.0
H647 H 0.24377 0.74497 0.94293 0.0
H648 H 0.28709 0.84092 0.95253 0.0
H649 H 0.2078 0.81961 0.9622 0.0
H650 H 0.28864 0.81089 0.89721 0.0
H651 H 0.2987 0.78771 0.9163 0.0
H652 H 0.30912 0.82135 0.92317 0.0
H653 H 0.1924 0.78333 0.90923 0.0
H654 H 0.18326 0.78629 0.93874 0.0
H655 H 0.20193 0.76057 0.92894 0.0
C656 C 0.00667 0.49074 0.37915 0.0
C657 C 0.01721 0.50509 0.39955 0.0
C658 C 0.02024 0.48958 0.35903 0.0
C659 C 0.04496 0.503 0.35946 0.0
C660 C 0.05612 0.5166 0.38035 0.0
C661 C 0.04209 0.51753 0.40013 0.0
C662 C 0.00769 0.4749 0.3371 0.0
C663 C 0.0825 0.53103 0.38157 0.0
C664 C 0.0904 0.49084 0.31199 0.0
C665 C 0.08745 0.51216 0.29909 0.0
C666 C 0.07609 0.48705 0.33131 0.0
C667 C 0.05829 0.50487 0.33769 0.0
C668 C 0.05442 0.52573 0.32408 0.0
C669 C 0.06909 0.52917 0.30505 0.0
C670 C 0.0808 0.46463 0.34545 0.0
C671 C 0.03543 0.54502 0.33013 0.0
H672 H 0.98748 0.48102 0.37872 0.0
H673 H 0.0505 0.52843 0.41592 0.0
H674 H 1.00328 0.48857 0.32396 0.0
H675 H 0.02103 0.46165 0.32957 0.0
H676 H 0.98952 0.46357 0.34019 0.0
H677 H 0.08926 0.53894 0.39954 0.0
H678 H 0.09675 0.51821 0.375 0.0
H679 H 0.08201 0.54721 0.3703 0.0
H680 H 0.10459 0.47764 0.30755 0.0
H681 H 0.06646 0.54554 0.29505 0.0
H682 H 0.06228 0.45375 0.34818 0.0
H683 H 0.09001 0.47187 0.36286 0.0
H684 H 0.09348 0.45125 0.33704 0.0
H685 H 0.01621 0.535 0.33189 0.0
H686 H 0.03338 0.55908 0.31685 0.0
H687 H 0.04187 0.55576 0.34712 0.0
C688 C 0.7929 0.78535 0.86612 0.0
C689 C 0.81583 0.79945 0.86186 0.0
C690 C 0.79213 0.76902 0.88425 0.0
C691 C 0.8148 0.76684 0.89871 0.0
C692 C 0.83801 0.78109 0.89458 0.0
C693 C 0.83828 0.79713 0.87616 0.0
C694 C 0.76699 0.75402 0.88789 0.0
C695 C 0.86248 0.77956 0.90973 0.0
C696 C 0.80011 0.74288 0.95696 0.0
C697 C 0.80249 0.71648 0.95297 0.0
C698 C 0.80595 0.75985 0.94007 0.0
C699 C 0.81377 0.75005 0.91842 0.0
C700 C 0.81771 0.72356 0.9149 0.0
C701 C 0.81205 0.70707 0.93229 0.0
C702 C 0.80182 0.78793 0.94476 0.0
C703 C 0.82583 0.71225 0.89206 0.0
H704 H 0.77558 0.78674 0.85496 0.0
H705 H 0.85603 0.80812 0.8731 0.0
H706 H 0.76953 0.73313 0.88696 0.0
H707 H 0.76094 0.75955 0.90544 0.0
H708 H 0.75128 0.75734 0.87479 0.0
H709 H 0.87902 0.79158 0.90406 0.0
H710 H 0.85958 0.786 0.928 0.0
H711 H 0.86745 0.75934 0.90946 0.0
H712 H 0.79219 0.75003 0.9728 0.0
H713 H 0.81321 0.68653 0.92897 0.0
H714 H 0.78437 0.79234 0.93426 0.0
H715 H 0.81837 0.80027 0.93956 0.0
H716 H 0.79922 0.79309 0.96338 0.0
H717 H 0.80966 0.71196 0.8785 0.0
H718 H 0.8313 0.69228 0.89312 0.0
H719 H 0.84234 0.72422 0.88638 0.0
C720 C 0.03925 0.02832 0.4195 0.0
C721 C 0.03931 1.00264 0.42512 0.0
C722 C 0.0268 0.03463 0.39867 0.0
C723 C 0.01317 0.01496 0.38339 0.0
C724 C 0.01189 0.98921 0.38948 0.0
C725 C 0.02525 0.98332 0.41005 0.0
C726 C 0.029 0.06223 0.39264 0.0
C727 C 0.99696 0.96773 0.37392 0.0
C728 C 0.96335 0.02959 0.33619 0.0
C729 C 0.97621 0.02431 0.31618 0.0
C730 C 0.97545 0.02763 0.35838 0.0
C731 C 1.00121 0.02092 0.3605 0.0
C732 C 0.01488 0.01769 0.34034 0.0
C733 C 1.00203 0.01891 0.31837 0.0
C734 C 0.95994 0.03057 0.37931 0.0
C735 C 0.04262 0.01138 0.34186 0.0
H736 H 0.04928 0.04362 0.43125 0.0
H737 H 0.02524 0.96341 0.41393 0.0
H738 H 0.03908 0.06368 0.37649 0.0
H739 H 0.00958 0.06889 0.3892 0.0
H740 H 0.03974 0.0754 0.40668 0.0
H741 H 0.9958 0.94924 0.38215 0.0
H742 H 0.97709 0.97281 0.36943 0.0
H743 H 0.00633 0.96487 0.35742 0.0
H744 H 0.94315 0.0331 0.33442 0.0
H745 H 0.01183 0.01452 0.30283 0.0
H746 H 0.97103 0.04297 0.39362 0.0
H747 H 0.95565 0.01141 0.3858 0.0
H748 H 0.94142 0.03886 0.37514 0.0
H749 H 0.0542 0.02445 0.35543 0.0
H750 H 0.05143 0.01292 0.32506 0.0
H751 H 0.0437 0.99145 0.34687 0.0
C752 C 0.2408 0.30691 0.62576 0.0
C753 C 0.23297 0.29516 0.6454 0.0
C754 C 0.24422 0.29228 0.60504 0.0
C755 C 0.23927 0.26521 0.60371 0.0
C756 C 0.23047 0.25325 0.62315 0.0
C757 C 0.22754 0.26836 0.6438 0.0
C758 C 0.25367 0.30577 0.58472 0.0
C759 C 0.22466 0.22445 0.62227 0.0
C760 C 0.22817 0.22957 0.54362 0.0
C761 C 0.25201 0.2195 0.54086 0.0
C762 C 0.2237 0.24425 0.56404 0.0
C763 C 0.24366 0.24943 0.58204 0.0
C764 C 0.26791 0.23977 0.57925 0.0
C765 C 0.27174 0.22478 0.55877 0.0
C766 C 0.19749 0.25396 0.56646 0.0
C767 C 0.2898 0.24524 0.59793 0.0
H768 H 0.24453 0.32765 0.62667 0.0
H769 H 0.22173 0.25908 0.65892 0.0
H770 H 0.27227 0.29875 0.58008 0.0
H771 H 0.23975 0.30125 0.56928 0.0
H772 H 0.25644 0.32698 0.58853 0.0
H773 H 0.21673 0.21826 0.63844 0.0
H774 H 0.21062 0.21769 0.60733 0.0
H775 H 0.24252 0.21484 0.61963 0.0
H776 H 0.21272 0.2256 0.52998 0.0
H777 H 0.29024 0.21719 0.55682 0.0
H778 H 0.19932 0.27527 0.56911 0.0
H779 H 0.18905 0.24664 0.58198 0.0
H780 H 0.1839 0.24795 0.55098 0.0
H781 H 0.29423 0.26632 0.60165 0.0
H782 H 0.3076 0.23668 0.59293 0.0
H783 H 0.2841 0.23747 0.61427 0.0
C784 C 0.54357 0.5505 0.62609 0.0
C785 C 0.54168 0.53059 0.60824 0.0
C786 C 0.53042 0.54794 0.64625 0.0
C787 C 0.51442 0.52517 0.64832 0.0
C788 C 0.51227 0.50509 0.63016 0.0
C789 C 0.52623 0.50791 0.61047 0.0
C790 C 0.53383 0.5695 0.66542 0.0
C791 C 0.49498 0.48076 0.63141 0.0
C792 C 0.49679 0.50624 0.70775 0.0
C793 C 0.47226 0.51511 0.7091 0.0
C794 C 0.51098 0.51001 0.68838 0.0
C795 C 0.50009 0.52227 0.66953 0.0
C796 C 0.47536 0.53138 0.67085 0.0
C797 C 0.4619 0.52802 0.69076 0.0
C798 C 0.53756 0.50067 0.688 0.0
C799 C 0.46279 0.544 0.65094 0.0
H800 H 0.55568 0.56799 0.62438 0.0
H801 H 0.52466 0.4926 0.59656 0.0
H802 H 0.51501 0.57707 0.66838 0.0
H803 H 0.54105 0.56214 0.68191 0.0
H804 H 0.54752 0.58562 0.66139 0.0
H805 H 0.49477 0.46737 0.61552 0.0
H806 H 0.50148 0.4707 0.64664 0.0
H807 H 0.47498 0.48557 0.63382 0.0
H808 H 0.50492 0.49633 0.72192 0.0
H809 H 0.44281 0.5346 0.69158 0.0
H810 H 0.55176 0.51662 0.68461 0.0
H811 H 0.5378 0.48531 0.6737 0.0
H812 H 0.54389 0.49294 0.70461 0.0
H813 H 0.47515 0.56112 0.64704 0.0
H814 H 0.4435 0.55006 0.65468 0.0
H815 H 0.46061 0.53043 0.63506 0.0
C816 C 0.81989 0.24109 0.62571 0.0
C817 C 0.84289 0.24601 0.64002 0.0
C818 C 0.81291 0.25806 0.60922 0.0
C819 C 0.82926 0.28053 0.607 0.0
C820 C 0.85276 0.28532 0.62106 0.0
C821 C 0.8593 0.26795 0.63739 0.0
C822 C 0.78772 0.25221 0.59453 0.0
C823 C 0.87066 0.30909 0.61924 0.0
C824 C 0.81709 0.31434 0.55189 0.0
C825 C 0.80108 0.33307 0.55939 0.0
C826 C 0.82706 0.29753 0.56734 0.0
C827 C 0.82095 0.2996 0.59083 0.0
C828 C 0.80554 0.31907 0.59864 0.0
C829 C 0.79577 0.3355 0.58283 0.0
C830 C 0.84341 0.27701 0.55837 0.0
C831 C 0.79869 0.32204 0.62357 0.0
H832 H 0.80713 0.22411 0.62752 0.0
H833 H 0.8771 0.27176 0.64841 0.0
H834 H 0.77467 0.26741 0.59847 0.0
H835 H 0.79108 0.25219 0.57583 0.0
H836 H 0.7778 0.23332 0.59759 0.0
H837 H 0.88882 0.30931 0.63051 0.0
H838 H 0.87551 0.31039 0.601 0.0
H839 H 0.86091 0.32649 0.62434 0.0
H840 H 0.82127 0.31235 0.53379 0.0
H841 H 0.78353 0.35002 0.58881 0.0
H842 H 0.83318 0.25774 0.55932 0.0
H843 H 0.86178 0.27775 0.56937 0.0
H844 H 0.84787 0.27905 0.54009 0.0
H845 H 0.78674 0.30465 0.62753 0.0
H846 H 0.78784 0.33912 0.62719 0.0
H847 H 0.8164 0.32384 0.63556 0.0
C848 C 0.52429 0.02875 0.59582 0.0
C849 C 0.50714 0.00769 0.58714 0.0
C850 C 0.53853 0.02868 0.61735 0.0
C851 C 0.53506 0.00726 0.63071 0.0
C852 C 0.51706 0.98631 0.62228 0.0
C853 C 0.50358 0.98662 0.60042 0.0
C854 C 0.55785 0.0512 0.62548 0.0
C855 C 0.51227 0.96344 0.63623 0.0
C856 C 0.58986 0.9971 0.67521 0.0
C857 C 0.58214 0.0099 0.69538 0.0
C858 C 0.5745 0.99568 0.65409 0.0
C859 C 0.55058 0.00673 0.65331 0.0
C860 C 0.54213 0.01847 0.67395 0.0
C861 C 0.55818 0.02025 0.69464 0.0
C862 C 0.58446 0.98346 0.63239 0.0
C863 C 0.51647 0.02982 0.67406 0.0
H864 H 0.52723 0.04486 0.58533 0.0
H865 H 0.49034 0.97031 0.59357 0.0
H866 H 0.55317 0.06 0.64254 0.0
H867 H 0.57739 0.04446 0.62792 0.0
H868 H 0.55837 0.06625 0.61298 0.0
H869 H 0.49652 0.94948 0.62788 0.0
H870 H 0.53008 0.95339 0.63832 0.0
H871 H 0.50721 0.96994 0.6539 0.0
H872 H 0.60852 0.98939 0.67566 0.0
H873 H 0.55213 0.0301 0.71025 0.0
H874 H 0.58746 0.99815 0.6198 0.0
H875 H 0.5701 0.96821 0.62389 0.0
H876 H 0.60295 0.9749 0.63606 0.0
H877 H 0.51682 0.04676 0.66368 0.0
H878 H 0.51165 0.03599 0.69192 0.0
H879 H 0.5009 0.01559 0.66587 0.0
C880 C 0.89978 0.19163 0.73361 0.0
C881 C 0.87419 0.18319 0.73699 0.0
C882 C 0.9184 0.19707 0.75252 0.0
C883 C 0.91144 0.19358 0.77535 0.0
C884 C 0.88597 0.18411 0.77874 0.0
C885 C 0.86761 0.17957 0.75968 0.0
C886 C 0.94543 0.20694 0.74812 0.0
C887 C 0.87764 0.17976 0.80258 0.0
C888 C 0.96548 0.19113 0.82276 0.0
C889 C 0.96801 0.21651 0.83282 0.0
C890 C 0.94677 0.18318 0.80436 0.0
C891 C 0.93041 0.20115 0.79574 0.0
C892 C 0.93266 0.2267 0.80618 0.0
C893 C 0.95172 0.23416 0.82432 0.0
C894 C 0.94487 0.15573 0.79382 0.0
C895 C 0.91535 0.24637 0.79782 0.0
H896 H 0.90528 0.19407 0.71618 0.0
H897 H 0.84786 0.17372 0.76277 0.0
H898 H 0.95 0.2266 0.75684 0.0
H899 H 0.95953 0.19453 0.75564 0.0
H900 H 0.94805 0.20763 0.72929 0.0
H901 H 0.85918 0.16746 0.80186 0.0
H902 H 0.89255 0.17073 0.81296 0.0
H903 H 0.87489 0.19862 0.81159 0.0
H904 H 0.97844 0.17761 0.82907 0.0
H905 H 0.95441 0.25406 0.83139 0.0
H906 H 0.94914 0.15536 0.7753 0.0
H907 H 0.92496 0.14673 0.7943 0.0
H908 H 0.95841 0.14393 0.80302 0.0
H909 H 0.91812 0.24924 0.77935 0.0
H910 H 0.91917 0.26525 0.8082 0.0
H911 H 0.89487 0.23933 0.79882 0.0
C912 C 0.54567 0.91945 0.49612 0.0
C913 C 0.52449 0.93364 0.49167 0.0
C914 C 0.54827 0.89618 0.48304 0.0
C915 C 0.52933 0.88703 0.46493 0.0
C916 C 0.5084 0.90182 0.45979 0.0
C917 C 0.50615 0.92489 0.47331 0.0
C918 C 0.5707 0.88088 0.48923 0.0
C919 C 0.48792 0.89284 0.44047 0.0
C920 C 0.54067 0.83338 0.41937 0.0
C921 C 0.52598 0.81252 0.42702 0.0
C922 C 0.54267 0.85772 0.4319 0.0
C923 C 0.53003 0.86101 0.45267 0.0
C924 C 0.51651 0.83958 0.46111 0.0
C925 C 0.51449 0.81569 0.4481 0.0
C926 C 0.5571 0.88015 0.42227 0.0
C927 C 0.50319 0.84209 0.4834 0.0
H928 H 0.55988 0.92623 0.51031 0.0
H929 H 0.48984 0.93587 0.46966 0.0
H930 H 0.5635 0.86267 0.49611 0.0
H931 H 0.58077 0.87566 0.47353 0.0
H932 H 0.58483 0.8916 0.50251 0.0
H933 H 0.47412 0.90751 0.43744 0.0
H934 H 0.49693 0.88811 0.42406 0.0
H935 H 0.47698 0.87502 0.44486 0.0
H936 H 0.54937 0.83104 0.40297 0.0
H937 H 0.50328 0.79953 0.45415 0.0
H938 H 0.57086 0.89071 0.4359 0.0
H939 H 0.54327 0.89383 0.41656 0.0
H940 H 0.56787 0.87398 0.40722 0.0
H941 H 0.51675 0.85152 0.49776 0.0
H942 H 0.49538 0.82317 0.48855 0.0
H943 H 0.48702 0.85442 0.48123 0.0
C944 C 0.15328 0.2967 0.7501 0.0
C945 C 0.16665 0.32117 0.75417 0.0
C946 C 0.13534 0.28803 0.76536 0.0
C947 C 0.13075 0.30416 0.7852 0.0
C948 C 0.14425 0.32886 0.78937 0.0
C949 C 0.16198 0.33706 0.77377 0.0
C950 C 0.12126 0.26161 0.76027 0.0
C951 C 0.14002 0.34659 0.81035 0.0
C952 C 0.06796 0.29122 0.81356 0.0
C953 C 0.0758 0.27733 0.83219 0.0
C954 C 0.08565 0.30015 0.7982 0.0
C955 C 0.11185 0.29519 0.8016 0.0
C956 C 0.11995 0.28152 0.82059 0.0
C957 C 0.10183 0.2727 0.83561 0.0
C958 C 0.07623 0.31461 0.77815 0.0
C959 C 0.14774 0.276 0.82491 0.0
H960 H 0.15678 0.2843 0.73498 0.0
H961 H 0.17234 0.35597 0.77696 0.0
H962 H 0.12531 0.24969 0.77491 0.0
H963 H 0.10016 0.26315 0.75859 0.0
H964 H 0.12688 0.25149 0.74405 0.0
H965 H 0.15211 0.36516 0.81113 0.0
H966 H 0.11948 0.35064 0.81005 0.0
H967 H 0.14453 0.33717 0.82648 0.0
H968 H 0.04788 0.29482 0.81075 0.0
H969 H 0.10805 0.26201 0.84997 0.0
H970 H 0.07992 0.30415 0.76146 0.0
H971 H 0.08699 0.33387 0.77899 0.0
H972 H 0.0553 0.31712 0.77805 0.0
H973 H 0.15371 0.26424 0.80976 0.0
H974 H 0.15103 0.2656 0.84071 0.0
H975 H 0.16037 0.29426 0.8269 0.0
C976 C 0.54343 0.60632 0.4986 0.0
C977 C 0.56778 0.61052 0.51076 0.0
C978 C 0.5355 0.62307 0.48219 0.0
C979 C 0.55201 0.64496 0.47843 0.0
C980 C 0.57652 0.64939 0.49091 0.0
C981 C 0.58428 0.63185 0.50663 0.0
C982 C 0.50956 0.61723 0.46874 0.0
C983 C 0.5944 0.67286 0.48793 0.0
C984 C 0.54239 0.67875 0.42291 0.0
C985 C 0.52745 0.69853 0.43007 0.0
C986 C 0.55014 0.66089 0.43834 0.0
C987 C 0.54352 0.66342 0.46168 0.0
C988 C 0.52882 0.68369 0.46907 0.0
C989 C 0.52059 0.70073 0.45307 0.0
C990 C 0.56511 0.63911 0.42959 0.0
C991 C 0.522 0.68756 0.49394 0.0
H992 H 0.53078 0.58963 0.50156 0.0
H993 H 0.6031 0.63507 0.51607 0.0
H994 H 0.49709 0.63294 0.47263 0.0
H995 H 0.51193 0.61618 0.4498 0.0
H996 H 0.49954 0.59882 0.47293 0.0
H997 H 0.6125 0.67385 0.4994 0.0
H998 H 0.59943 0.6728 0.46964 0.0
H999 H 0.58458 0.69053 0.49187 0.0
H1000 H 0.54749 0.67688 0.40506 0.0
H1001 H 0.5092 0.71614 0.45869 0.0
H1002 H 0.55484 0.6204 0.4326 0.0
H1003 H 0.58429 0.64029 0.43935 0.0
H1004 H 0.56793 0.63931 0.41076 0.0
H1005 H 0.51002 0.67048 0.49849 0.0
H1006 H 0.51128 0.70482 0.49709 0.0
H1007 H 0.5398 0.68965 0.50585 0.0
C1008 C 0.89019 0.82548 0.75371 0.0
C1009 C 0.89627 0.81509 0.77484 0.0
C1010 C 0.90478 0.82102 0.73455 0.0
C1011 C 0.92575 0.8056 0.73652 0.0
C1012 C 0.93262 0.79605 0.75814 0.0
C1013 C 0.91785 0.80102 0.77706 0.0
C1014 C 0.897 0.83177 0.7119 0.0
C1015 C 0.95475 0.77941 0.76096 0.0
C1016 C 0.94154 0.76302 0.68453 0.0
C1017 C 0.96497 0.77512 0.67882 0.0
C1018 C 0.92816 0.77336 0.70263 0.0
C1019 C 0.93831 0.79654 0.71542 0.0
C1020 C 0.96115 0.80974 0.70893 0.0
C1021 C 0.97426 0.79886 0.69062 0.0
C1022 C 0.90377 0.75871 0.70878 0.0
C1023 C 0.97238 0.83466 0.722 0.0
H1024 H 0.8737 0.83666 0.75192 0.0
H1025 H 0.92266 0.79311 0.79342 0.0
H1026 H 0.9141 0.84088 0.70442 0.0
H1027 H 0.8884 0.81591 0.69916 0.0
H1028 H 0.88268 0.84618 0.71405 0.0
H1029 H 0.95906 0.77546 0.77935 0.0
H1030 H 0.94996 0.76078 0.75041 0.0
H1031 H 0.97237 0.78876 0.75451 0.0
H1032 H 0.93399 0.74485 0.67528 0.0
H1033 H 0.99234 0.8083 0.68633 0.0
H1034 H 0.88783 0.77145 0.70926 0.0
H1035 H 0.90685 0.75192 0.72637 0.0
H1036 H 0.89767 0.74177 0.69626 0.0
H1037 H 0.95723 0.84812 0.72426 0.0
H1038 H 0.98818 0.84417 0.71301 0.0
H1039 H 0.98018 0.83082 0.7396 0.0
C1040 C 0.0369 0.91408 0.52686 0.0
C1041 C 0.06067 0.91258 0.51721 0.0
C1042 C 0.02813 0.8958 0.54175 0.0
C1043 C 0.04325 0.8753 0.54664 0.0
C1044 C 0.06702 0.87351 0.53651 0.0
C1045 C 0.07557 0.89236 0.52218 0.0
C1046 C 1.003 0.89872 0.55261 0.0
C1047 C 0.08351 0.85172 0.54089 0.0
C1048 C 0.03838 0.8395 0.60101 0.0
C1049 C 0.02379 0.81665 0.59236 0.0
C1050 C 0.04368 0.85933 0.58659 0.0
C1051 C 0.03472 0.85598 0.56278 0.0
C1052 C 0.01928 0.83326 0.55412 0.0
C1053 C 0.01375 0.81398 0.56909 0.0
C1054 C 0.05966 0.8835 0.59667 0.0
C1055 C 0.00975 0.8287 0.52877 0.0
H1056 H 0.02543 0.92984 0.52322 0.0
H1057 H 0.09392 0.89118 0.51468 0.0
H1058 H 0.98968 0.88113 0.54817 0.0
H1059 H 0.00651 0.90105 0.57182 0.0
H1060 H 0.99337 0.91553 0.54683 0.0
H1061 H 0.10079 0.85238 0.53074 0.0
H1062 H 0.08999 0.85254 0.55962 0.0
H1063 H 0.07208 0.83297 0.53628 0.0
H1064 H 0.04605 0.84171 0.61903 0.0
H1065 H 1.00261 0.79628 0.56227 0.0
H1066 H 0.05019 0.90076 0.5919 0.0
H1067 H 0.07874 0.88442 0.58935 0.0
H1068 H 0.06277 0.8843 0.61591 0.0
H1069 H 0.99959 0.84522 0.52317 0.0
H1070 H 0.99652 0.81089 0.52511 0.0
H1071 H 0.02643 0.82703 0.51806 0.0
C1072 C 0.16963 0.68462 0.73123 0.0
C1073 C 0.17308 0.69454 0.75451 0.0
C1074 C 0.14859 0.69059 0.71672 0.0
C1075 C 0.13069 0.7069 0.72578 0.0
C1076 C 0.13421 0.71711 0.74925 0.0
C1077 C 0.15532 0.71077 0.76335 0.0
C1078 C 0.1454 0.6793 0.69176 0.0
C1079 C 0.11557 0.73459 0.75954 0.0
C1080 C 0.08734 0.73964 0.68384 0.0
C1081 C 0.06427 0.72365 0.68276 0.0
C1082 C 0.10912 0.73445 0.69778 0.0
C1083 C 0.10784 0.71276 0.71093 0.0
C1084 C 0.08458 0.69675 0.71017 0.0
C1085 C 0.0631 0.70241 0.69616 0.0
C1086 C 0.13359 0.75205 0.69829 0.0
C1087 C 0.08243 0.67346 0.72398 0.0
H1088 H 0.18336 0.67213 0.72438 0.0
H1089 H 0.15784 0.71862 0.78133 0.0
H1090 H 0.12683 0.66722 0.68852 0.0
H1091 H 0.1448 0.69493 0.67991 0.0
H1092 H 0.16125 0.66733 0.68729 0.0
H1093 H 0.12141 0.74143 0.77796 0.0
H1094 H 0.11413 0.75156 0.74935 0.0
H1095 H 0.09605 0.72429 0.75862 0.0
H1096 H 0.08853 0.75606 0.67355 0.0
H1097 H 0.04546 0.68985 0.69548 0.0
H1098 H 0.14943 0.741 0.69219 0.0
H1099 H 0.13951 0.76005 0.71637 0.0
H1100 H 0.13137 0.76825 0.68723 0.0
H1101 H 0.0968 0.66005 0.7188 0.0
H1102 H 0.06295 0.66295 0.72146 0.0
H1103 H 0.08679 0.67938 0.74277 0.0
C1104 C 0.00474 0.61048 0.49926 0.0
C1105 C 1.00117 0.58599 0.50731 0.0
C1106 C 0.01084 0.63238 0.51502 0.0
C1107 C 0.01334 0.62954 0.53923 0.0
C1108 C 0.01172 0.60454 0.54704 0.0
C1109 C 0.00544 0.58318 0.53103 0.0
C1110 C 0.01374 0.65856 0.50585 0.0
C1111 C 0.01475 0.59982 0.5723 0.0
C1112 C 0.04075 0.68447 0.58344 0.0
C1113 C 0.01827 0.6949 0.59017 0.0
C1114 C 0.03955 0.66349 0.56656 0.0
C1115 C 0.01526 0.65255 0.55638 0.0
C1116 C 0.99254 0.66318 0.56308 0.0
C1117 C 0.9944 0.68465 0.57944 0.0
C1118 C 0.0642 0.65291 0.55971 0.0
C1119 C 0.96623 0.65179 0.55305 0.0
H1120 H 1.00172 0.61259 0.48081 0.0
H1121 H 1.00318 0.56414 0.53721 0.0
H1122 H 0.99716 0.66944 0.51031 0.0
H1123 H 0.03147 0.66974 0.51409 0.0
H1124 H 0.01461 0.65727 0.48668 0.0
H1125 H 0.02452 0.58203 0.57471 0.0
H1126 H 0.02581 0.61597 0.5831 0.0
H1127 H 0.99522 0.59673 0.57844 0.0
H1128 H 0.0593 0.69285 0.59131 0.0
H1129 H 0.97718 0.69365 0.58363 0.0
H1130 H 0.06494 0.65202 0.54055 0.0
H1131 H 0.06478 0.63298 0.56488 0.0
H1132 H 0.08158 0.66469 0.56799 0.0
H1133 H 0.96464 0.65241 0.53391 0.0
H1134 H 0.95046 0.66213 0.5603 0.0
H1135 H 0.96348 0.63129 0.55668 0.0
C1136 C 0.79928 0.8664 0.19753 0.0
C1137 C 0.77393 0.87089 0.20207 0.0
C1138 C 0.8196 0.88559 0.20273 0.0
C1139 C 0.81469 0.90984 0.21319 0.0
C1140 C 0.78911 0.91464 0.21772 0.0
C1141 C 0.76901 0.89505 0.21217 0.0
C1142 C 0.84642 0.87943 0.19773 0.0
C1143 C 0.78297 0.94047 0.22836 0.0
C1144 C 0.8684 0.95166 0.24921 0.0
C1145 C 0.87676 0.96868 0.23327 0.0
C1146 C 0.8488 0.93191 0.24269 0.0
C1147 C 0.83642 0.92992 0.21996 0.0
C1148 C 0.84462 0.94729 0.20385 0.0
C1149 C 0.86476 0.96643 0.2107 0.0
C1150 C 0.84106 0.91344 0.26023 0.0
C1151 C 0.83173 0.946 0.17955 0.0
H1152 H 0.80336 0.84761 0.19018 0.0
H1153 H 0.74942 0.89872 0.2155 0.0
H1154 H 0.85678 0.89547 0.18982 0.0
H1155 H 0.85716 0.87666 0.21436 0.0
H1156 H 0.84643 0.86159 0.186 0.0
H1157 H 0.76199 0.94144 0.22993 0.0
H1158 H 0.79317 0.9445 0.2459 0.0
H1159 H 0.78991 0.95588 0.21763 0.0
H1160 H 0.87669 0.95425 0.26701 0.0
H1161 H 0.87082 0.98003 0.19854 0.0
H1162 H 0.8431 0.89342 0.25323 0.0
H1163 H 0.82052 0.91469 0.26351 0.0
H1164 H 0.85291 0.91735 0.27704 0.0
H1165 H 0.8333 0.92683 0.17039 0.0
H1166 H 0.84032 0.96098 0.16916 0.0
H1167 H 0.8109 0.94845 0.18035 0.0
C1168 C 0.80681 0.16805 0.32848 0.0
C1169 C 0.78088 0.16076 0.32089 0.0
C1170 C 0.82631 0.15181 0.32361 0.0
C1171 C 0.81992 0.12799 0.31027 0.0
C1172 C 0.79382 0.12033 0.30288 0.0
C1173 C 0.77467 0.13652 0.30862 0.0
C1174 C 0.85383 0.16037 0.33237 0.0
C1175 C 0.78613 0.0953 0.2883 0.0
C1176 C 0.87023 0.09842 0.27467 0.0
C1177 C 0.87591 0.07733 0.28703 0.0
C1178 C 0.85238 0.11529 0.28227 0.0
C1179 C 0.84046 0.11145 0.3031 0.0
C1180 C 0.84703 0.09083 0.3162 0.0
C1181 C 0.86436 0.07376 0.3078 0.0
C1182 C 0.84548 0.1366 0.26745 0.0
C1183 C 0.83538 0.08652 0.33884 0.0
H1184 H 0.81208 0.18673 0.33775 0.0
H1185 H 0.75473 0.13018 0.30324 0.0
H1186 H 0.86253 0.14492 0.34147 0.0
H1187 H 0.86541 0.16418 0.31748 0.0
H1188 H 0.85531 0.1781 0.34444 0.0
H1189 H 0.76501 0.09224 0.28375 0.0
H1190 H 0.79605 0.09506 0.27196 0.0
H1191 H 0.79222 0.0789 0.29772 0.0
H1192 H 0.87898 0.10115 0.25852 0.0
H1193 H 0.86886 0.05759 0.3175 0.0
H1194 H 0.84862 0.15546 0.27784 0.0
H1195 H 0.82473 0.1337 0.26136 0.0
H1196 H 0.85694 0.1374 0.25204 0.0
H1197 H 0.83755 0.10461 0.35043 0.0
H1198 H 0.8444 0.07129 0.34806 0.0
H1199 H 0.81444 0.0808 0.33551 0.0
C1200 C 0.43762 1.0024 0.01822 0.0
C1201 C 0.44192 0.00346 0.99456 0.0
C1202 C 0.41545 0.98904 0.02517 0.0
C1203 C 0.3975 0.97559 0.00815 0.0
C1204 C 0.40229 0.97543 0.98435 0.0
C1205 C 0.42421 0.98963 0.97784 0.0
C1206 C 0.41083 0.99001 0.05067 0.0
C1207 C 0.38389 0.96077 0.96567 0.0
C1208 C 0.34778 0.92306 0.02178 0.0
C1209 C 0.32502 0.93515 0.01843 0.0
C1210 C 0.37187 0.93638 0.01978 0.0
C1211 C 0.37309 0.96254 0.01492 0.0
C1212 C 0.35027 0.97544 0.01389 0.0
C1213 C 0.32642 0.96144 0.01522 0.0
C1214 C 0.3956 0.92174 0.02051 0.0
C1215 C 0.35079 0.00352 0.00952 0.0
H1216 H 0.45146 0.01232 0.03142 0.0
H1217 H 0.42703 0.99043 0.95954 0.0
H1218 H 0.39297 0.9995 0.05365 0.0
H1219 H 0.40792 0.97027 0.05624 0.0
H1220 H 0.42705 1.0007 0.0618 0.0
H1221 H 0.3915 0.96072 0.94824 0.0
H1222 H 0.37992 0.94055 0.96983 0.0
H1223 H 0.36524 0.96954 0.96489 0.0
H1224 H 0.3466 0.90255 0.02368 0.0
H1225 H 0.30874 0.97065 0.01233 0.0
H1226 H 0.41194 0.93307 0.03089 0.0
H1227 H 0.40148 0.91812 1.00258 0.0
H1228 H 0.39211 0.90293 0.0279 0.0
H1229 H 0.36647 0.01494 0.02071 0.0
H1230 H 0.33221 0.01154 0.0128 0.0
H1231 H 0.35468 0.00583 0.99117 0.0
C1232 C 0.28047 0.38969 0.29962 0.0
C1233 C 0.27457 0.36644 0.3095 0.0
C1234 C 0.26117 0.40536 0.29293 0.0
C1235 C 0.23523 0.39823 0.29693 0.0
C1236 C 0.22914 0.37538 0.30773 0.0
C1237 C 0.24881 0.35961 0.31363 0.0
C1238 C 0.26855 0.42941 0.28125 0.0
C1239 C 0.20183 0.36748 0.31285 0.0
C1240 C 0.1932 0.45415 0.29579 0.0
C1241 C 0.18107 0.45033 0.27324 0.0
C1242 C 0.20963 0.43647 0.30426 0.0
C1243 C 0.2147 0.41483 0.28956 0.0
C1244 C 0.20187 0.41049 0.26699 0.0
C1245 C 0.18492 0.42813 0.25922 0.0
C1246 C 0.22228 0.44144 0.32865 0.0
C1247 C 0.20714 0.38801 0.25057 0.0
H1248 H 0.3003 0.39571 0.29695 0.0
H1249 H 0.24385 0.34167 0.32106 0.0
H1250 H 0.25757 0.42884 0.26406 0.0
H1251 H 0.26353 0.4466 0.29184 0.0
H1252 H 0.28946 0.43177 0.27867 0.0
H1253 H 0.20052 0.35013 0.32274 0.0
H1254 H 0.19384 0.38344 0.323 0.0
H1255 H 0.18951 0.36336 0.29636 0.0
H1256 H 0.19007 0.47118 0.30678 0.0
H1257 H 0.17567 0.42518 0.24174 0.0
H1258 H 0.24318 0.44683 0.32799 0.0
H1259 H 0.2203 0.42376 0.338 0.0
H1260 H 0.21389 0.45717 0.33879 0.0
H1261 H 0.22748 0.39028 0.24614 0.0
H1262 H 0.19441 0.38638 0.23421 0.0
H1263 H 0.20448 0.36978 0.259 0.0
C1264 C 0.14137 0.01463 0.48388 0.0
C1265 C 0.11649 0.02275 0.48136 0.0
C1266 C 0.16295 0.03272 0.48897 0.0
C1267 C 0.1594 0.05937 0.49158 0.0
C1268 C 0.13406 0.06718 0.49066 0.0
C1269 C 0.11304 0.04886 0.48539 0.0
C1270 C 0.18955 0.02343 0.49072 0.0
C1271 C 0.12865 0.09495 0.4934 0.0
C1272 C 0.21342 0.10944 0.51673 0.0
C1273 C 0.22341 0.11792 0.49655 0.0
C1274 C 0.19289 0.0901 0.51545 0.0
C1275 C 0.18198 0.0791 0.49344 0.0
C1276 C 0.19212 0.0876 0.47302 0.0
C1277 C 0.2131 0.10644 0.47487 0.0
C1278 C 0.1827 0.08158 0.53761 0.0
C1279 C 0.18071 0.07691 0.4492 0.0
H1280 H 0.144 0.99434 0.48091 0.0
H1281 H 0.09373 0.05511 0.48373 0.0
H1282 H 0.20009 0.02925 0.47573 0.0
H1283 H 0.2007 0.03243 0.50675 0.0
H1284 H 0.18893 1.00217 0.49086 0.0
H1285 H 0.11016 0.09721 0.50141 0.0
H1286 H 0.14415 0.1071 0.5041 0.0
H1287 H 0.12664 0.10179 0.47579 0.0
H1288 H 0.22178 0.11788 0.53356 0.0
H1289 H 0.22169 0.11197 0.45932 0.0
H1290 H 0.18264 0.06039 0.53778 0.0
H1291 H 0.16247 0.08641 0.53849 0.0
H1292 H 0.19426 0.09086 0.55333 0.0
H1293 H 0.18189 0.05581 0.44711 0.0
H1294 H 0.19065 0.08573 0.43506 0.0
H1295 H 0.16 0.08034 0.44723 0.0
C1296 C 0.76596 0.14502 0.69839 0.0
C1297 C 0.79092 0.13727 0.70189 0.0
C1298 C 0.74427 0.12874 0.70223 0.0
C1299 C 0.74754 0.10416 0.70998 0.0
C1300 C 0.77265 0.09587 0.71281 0.0
C1301 C 0.79404 0.11255 0.70879 0.0
C1302 C 0.71801 0.13843 0.69898 0.0
C1303 C 0.77697 0.06956 0.7205 0.0
C1304 C 0.69823 0.07037 0.7451 0.0
C1305 C 0.68477 0.05277 0.72818 0.0
C1306 C 0.71786 0.08809 0.73918 0.0
C1307 C 0.72489 0.0874 0.71595 0.0
C1308 C 0.71121 0.06967 0.69878 0.0
C1309 C 0.69132 0.05255 0.70513 0.0
C1310 C 0.73161 0.107 0.75793 0.0
C1311 C 0.71827 0.06807 0.67391 0.0
H1312 H 0.76338 0.16423 0.69342 0.0
H1313 H 0.81327 0.10632 0.71122 0.0
H1314 H 0.70414 0.12351 0.68931 0.0
H1315 H 0.71099 0.14289 0.71631 0.0
H1316 H 0.71833 0.15613 0.68958 0.0
H1317 H 0.79752 0.06547 0.72057 0.0
H1318 H 0.77068 0.06804 0.73828 0.0
H1319 H 0.76519 0.05452 0.70885 0.0
H1320 H 0.69396 0.06973 0.7631 0.0
H1321 H 0.68126 0.03848 0.69216 0.0
H1322 H 0.73104 0.12688 0.75263 0.0
H1323 H 0.75216 0.10318 0.76039 0.0
H1324 H 0.72293 0.10594 0.77483 0.0
H1325 H 0.71809 0.08722 0.66698 0.0
H1326 H 0.70493 0.05412 0.66245 0.0
H1327 H 0.73813 0.06213 0.67313 0.0
C1328 C 0.42415 0.04295 0.54194 0.0
C1329 C 0.44487 0.0401 0.52809 0.0
C1330 C 0.40458 0.05872 0.53594 0.0
C1331 C 0.4059 0.07232 0.51577 0.0
C1332 C 0.4269 0.06968 0.50182 0.0
C1333 C 0.446 0.05347 0.50805 0.0
C1334 C 0.38239 0.0607 0.55115 0.0
C1335 C 0.4293 0.08415 0.48042 0.0
C1336 C 0.34366 0.09628 0.49034 0.0
C1337 C 0.3453 0.12161 0.50059 0.0
C1338 C 0.3634 0.08012 0.49482 0.0
C1339 C 0.38552 0.08965 0.50958 0.0
C1340 C 0.38769 0.11553 0.5192 0.0
C1341 C 0.36749 0.13109 0.51476 0.0
C1342 C 0.36016 0.05258 0.48443 0.0
C1343 C 0.41109 0.12663 0.53467 0.0
H1344 H 0.42301 0.03244 0.55729 0.0
H1345 H 0.46209 0.05151 0.49738 0.0
H1346 H 0.38176 0.08092 0.55827 0.0
H1347 H 0.36389 0.05498 0.54068 0.0
H1348 H 0.38384 0.04838 0.56588 0.0
H1349 H 0.4468 0.08004 0.47144 0.0
H1350 H 0.41213 0.079 0.46803 0.0
H1351 H 0.43006 0.10515 0.48527 0.0
H1352 H 0.3265 0.08876 0.47951 0.0
H1353 H 0.36896 0.15067 0.52268 0.0
H1354 H 0.35936 0.03943 0.49854 0.0
H1355 H 0.37697 0.04821 0.47461 0.0
H1356 H 0.34236 0.0484 0.4726 0.0
H1357 H 0.41224 0.11661 0.55085 0.0
H1358 H 0.41065 0.14755 0.53946 0.0
H1359 H 0.42891 0.12355 0.52586 0.0
C1360 C 0.63318 0.51454 0.55053 0.0
C1361 C 0.60859 0.50408 0.55489 0.0
C1362 C 0.65212 0.49868 0.54347 0.0
C1363 C 0.64623 0.47167 0.54027 0.0
C1364 C 0.62146 0.46098 0.54481 0.0
C1365 C 0.60301 0.4773 0.55227 0.0
C1366 C 0.6784 0.51087 0.53924 0.0
C1367 C 0.61426 0.43235 0.54126 0.0
C1368 C 0.68761 0.43557 0.49951 0.0
C1369 C 0.70497 0.42527 0.51514 0.0
C1370 C 0.66796 0.45003 0.50745 0.0
C1371 C 0.66586 0.45479 0.53164 0.0
C1372 C 0.68314 0.44424 0.54751 0.0
C1373 C 0.70231 0.42942 0.53908 0.0
C1374 C 0.64966 0.46053 0.48991 0.0
C1375 C 0.68183 0.44919 0.57343 0.0
H1376 H 0.63763 0.53522 0.55276 0.0
H1377 H 0.58394 0.46917 0.55544 0.0
H1378 H 0.69354 0.50236 0.54983 0.0
H1379 H 0.68213 0.50691 0.52073 0.0
H1380 H 0.68027 0.53203 0.54354 0.0
H1381 H 0.59438 0.42703 0.54595 0.0
H1382 H 0.61572 0.42554 0.5228 0.0
H1383 H 0.6279 0.42203 0.5519 0.0
H1384 H 0.68935 0.43232 0.48099 0.0
H1385 H 0.71571 0.42168 0.55131 0.0
H1386 H 0.65208 0.48186 0.49175 0.0
H1387 H 0.62944 0.45464 0.49318 0.0
H1388 H 0.65287 0.4538 0.47175 0.0
H1389 H 0.68532 0.47013 0.57853 0.0
H1390 H 0.6962 0.43905 0.58346 0.0
H1391 H 0.66232 0.44292 0.57838 0.0
C1392 C 0.7356 0.25671 0.36495 0.0
C1393 C 0.74331 0.23223 0.36877 0.0
C1394 C 0.73494 0.27567 0.38324 0.0
C1395 C 0.74331 0.27069 0.40608 0.0
C1396 C 0.75176 0.24622 0.41013 0.0
C1397 C 0.75156 0.2272 0.39143 0.0
C1398 C 0.72601 0.30118 0.37739 0.0
C1399 C 0.76101 0.24018 0.43422 0.0
C1400 C 0.76723 0.32835 0.44836 0.0
C1401 C 0.74597 0.33146 0.46146 0.0
C1402 C 0.76652 0.30884 0.43022 0.0
C1403 C 0.74425 0.29143 0.42545 0.0
C1404 C 0.72263 0.29452 0.43858 0.0
C1405 C 0.72382 0.31441 0.45658 0.0
C1406 C 0.78963 0.30688 0.41615 0.0
C1407 C 0.69818 0.27698 0.4334 0.0
H1408 H 0.73 0.26124 0.34744 0.0
H1409 H 0.75747 0.20834 0.3946 0.0
H1410 H 0.74206 0.31202 0.36986 0.0
H1411 H 0.70955 0.29839 0.36392 0.0
H1412 H 0.7201 0.31276 0.39262 0.0
H1413 H 0.76665 0.2202 0.43458 0.0
H1414 H 0.77785 0.25372 0.4409 0.0
H1415 H 0.74563 0.24286 0.44623 0.0
H1416 H 0.78479 0.34081 0.4527 0.0
H1417 H 0.7075 0.31658 0.46692 0.0
H1418 H 0.78405 0.30976 0.39774 0.0
H1419 H 0.7965 0.28739 0.41655 0.0
H1420 H 0.80581 0.32137 0.42261 0.0
H1421 H 0.69024 0.27877 0.41535 0.0
H1422 H 0.68328 0.2815 0.4455 0.0
H1423 H 0.70239 0.25666 0.43455 0.0
C1424 C 0.54303 0.01417 0.90215 0.0
C1425 C 0.51861 1.00091 0.90221 0.0
C1426 C 0.55674 0.01309 0.88216 0.0
C1427 C 0.54572 0.99847 0.86172 0.0
C1428 C 0.52147 0.98429 0.86195 0.0
C1429 C 0.50822 0.98564 0.88225 0.0
C1430 C 0.58262 0.02838 0.88268 0.0
C1431 C 0.50907 0.96854 0.8405 0.0
C1432 C 0.56792 0.02332 0.8061 0.0
C1433 C 0.58682 0.00682 0.80041 0.0
C1434 C 0.55371 0.0201 0.82545 0.0
C1435 C 0.55862 1.0 0.83968 0.0
C1436 C 0.57698 0.98265 0.83361 0.0
C1437 C 0.5908 0.98619 0.81394 0.0
C1438 C 0.53409 0.03885 0.83114 0.0
C1439 C 0.58281 0.96106 0.84842 0.0
H1440 H 0.55133 0.02582 0.91759 0.0
H1441 H 0.48938 0.97529 0.88232 0.0
H1442 H 0.59727 0.0159 0.87634 0.0
H1443 H 0.5813 0.04402 0.87089 0.0
H1444 H 0.5894 0.03711 0.9004 0.0
H1445 H 0.49131 0.95684 0.84411 0.0
H1446 H 0.50398 0.98151 0.82695 0.0
H1447 H 0.52276 0.95551 0.83325 0.0
H1448 H 0.5645 0.03915 0.7956 0.0
H1449 H 0.60543 0.97341 0.80972 0.0
H1450 H 0.54046 0.05035 0.84777 0.0
H1451 H 0.51525 0.02833 0.83343 0.0
H1452 H 0.53126 0.05226 0.81741 0.0
H1453 H 0.59206 0.96919 0.86556 0.0
H1454 H 0.59587 0.94791 0.84025 0.0
H1455 H 0.56474 0.94972 0.85168 0.0
C1456 C 0.33675 0.29994 0.37317 0.0
C1457 C 0.31449 0.30176 0.35848 0.0
C1458 C 0.33642 0.28394 0.3916 0.0
C1459 C 0.31336 0.26916 0.3953 0.0
C1460 C 0.29088 0.27084 0.38043 0.0
C1461 C 0.29169 0.2872 0.36233 0.0
C1462 C 0.36066 0.28298 0.40722 0.0
C1463 C 0.26593 0.25525 0.38359 0.0
C1464 C 0.31162 0.20947 0.429 0.0
C1465 C 0.30138 0.21858 0.44945 0.0
C1466 C 0.31706 0.22606 0.41163 0.0
C1467 C 0.31228 0.25235 0.41498 0.0
C1468 C 0.30373 0.26189 0.43642 0.0
C1469 C 0.29806 0.24481 0.45325 0.0
C1470 C 0.32593 0.21502 0.389 0.0
C1471 C 0.29875 0.28978 0.44093 0.0
H1472 H 0.35439 0.3113 0.3704 0.0
H1473 H 0.27454 0.28823 0.35085 0.0
H1474 H 0.35716 0.28924 0.4254 0.0
H1475 H 0.36615 0.26295 0.40706 0.0
H1476 H 0.37709 0.29544 0.4019 0.0
H1477 H 0.2504 0.25818 0.37017 0.0
H1478 H 0.26898 0.23448 0.3828 0.0
H1479 H 0.25932 0.26062 0.40097 0.0
H1480 H 0.31353 0.18905 0.42584 0.0
H1481 H 0.28968 0.25171 0.46893 0.0
H1482 H 0.34237 0.22735 0.38364 0.0
H1483 H 0.31001 0.21443 0.37515 0.0
H1484 H 0.3318 0.1952 0.39018 0.0
H1485 H 0.31517 0.30254 0.43607 0.0
H1486 H 0.29557 0.29483 0.45945 0.0
H1487 H 0.28138 0.29373 0.43006 0.0
C1488 C 0.53501 0.52915 0.92134 0.0
C1489 C 0.53536 0.5035 0.927 0.0
C1490 C 0.5227 0.53527 0.90037 0.0
C1491 C 0.50952 0.51541 0.88499 0.0
C1492 C 0.50848 0.48969 0.89114 0.0
C1493 C 0.52169 0.48401 0.91185 0.0
C1494 C 0.52463 0.56285 0.8943 0.0
C1495 C 0.494 0.46801 0.87548 0.0
C1496 C 0.46011 0.52881 0.837 0.0
C1497 C 0.47335 0.52344 0.81723 0.0
C1498 C 0.47196 0.52738 0.85937 0.0
C1499 C 0.49785 0.52114 0.86192 0.0
C1500 C 0.51191 0.51795 0.842 0.0
C1501 C 0.49932 0.51862 0.81984 0.0
C1502 C 0.45605 0.53027 0.88004 0.0
C1503 C 0.53979 0.51214 0.84397 0.0
H1504 H 0.54473 0.54457 0.93314 0.0
H1505 H 0.52192 0.46413 0.91575 0.0
H1506 H 0.53511 0.56444 0.87839 0.0
H1507 H 0.50514 0.56918 0.89043 0.0
H1508 H 0.53486 0.57619 0.90849 0.0
H1509 H 0.49291 0.44957 0.88377 0.0
H1510 H 0.47411 0.47283 0.87068 0.0
H1511 H 0.5037 0.46522 0.85915 0.0
H1512 H 0.43981 0.53187 0.83491 0.0
H1513 H 0.50941 0.51415 0.8045 0.0
H1514 H 0.46684 0.54274 0.89448 0.0
H1515 H 0.4517 0.51111 0.8865 0.0
H1516 H 0.43754 0.53846 0.87556 0.0
H1517 H 0.55096 0.52541 0.85765 0.0
H1518 H 0.54888 0.51379 0.82732 0.0
H1519 H 0.54111 0.49227 0.84907 0.0
C1520 C 0.71602 0.78138 0.13666 0.0
C1521 C 0.7378 0.7949 0.14893 0.0
C1522 C 0.71831 0.7653 0.1164 0.0
C1523 C 0.74284 0.76329 0.10777 0.0
C1524 C 0.76485 0.77683 0.12 0.0
C1525 C 0.76215 0.79192 0.14062 0.0
C1526 C 0.69449 0.75048 0.10421 0.0
C1527 C 0.79132 0.77561 0.1112 0.0
C1528 C 0.75661 0.70681 0.06659 0.0
C1529 C 0.75361 0.71691 0.04495 0.0
C1530 C 0.75228 0.7214 0.08711 0.0
C1531 C 0.74569 0.74701 0.086 0.0
C1532 C 0.74295 0.75739 0.06416 0.0
C1533 C 0.74646 0.74201 0.04382 0.0
C1534 C 0.75458 0.70935 0.10994 0.0
C1535 C 0.7368 0.78488 0.06232 0.0
H1536 H 0.69709 0.78356 0.14267 0.0
H1537 H 0.77931 0.80142 0.15024 0.0
H1538 H 0.69087 0.75699 0.08659 0.0
H1539 H 0.69739 0.72969 0.102 0.0
H1540 H 0.6771 0.75291 0.11388 0.0
H1541 H 0.80627 0.78839 0.12211 0.0
H1542 H 0.79696 0.75563 0.11087 0.0
H1543 H 0.79106 0.78127 0.09311 0.0
H1544 H 0.76167 0.6872 0.06739 0.0
H1545 H 0.74411 0.74977 0.02705 0.0
H1546 H 0.73666 0.71104 0.11895 0.0
H1547 H 0.77061 0.71969 0.12148 0.0
H1548 H 0.75817 0.68871 0.10763 0.0
H1549 H 0.71823 0.78802 0.06978 0.0
H1550 H 0.73556 0.79008 0.04406 0.0
H1551 H 0.75189 0.79813 0.07255 0.0
C1552 C 0.0462 0.05363 0.12421 0.0
C1553 C 0.04397 0.033 0.10702 0.0
C1554 C 0.03336 0.05203 0.14468 0.0
C1555 C 0.01731 0.02954 0.14769 0.0
C1556 C 0.01482 0.00878 0.13018 0.0
C1557 C 0.02847 0.01063 0.11022 0.0
C1558 C 0.03713 0.07428 0.16317 0.0
C1559 C 0.99748 0.98471 0.13239 0.0
C1560 C 0.99978 0.01158 0.20741 0.0
C1561 C 0.97506 0.02006 0.20848 0.0
C1562 C 0.01416 0.01554 0.18819 0.0
C1563 C 1.00325 0.02752 0.16917 0.0
C1564 C 0.97842 0.03644 0.1703 0.0
C1565 C 0.96477 0.03294 0.1901 0.0
C1566 C 0.04084 0.0064 0.18803 0.0
C1567 C 0.96579 0.04871 0.1502 0.0
H1568 H 0.05826 0.0709 0.12172 0.0
H1569 H 0.02657 0.99479 0.09679 0.0
H1570 H 0.0184 0.08209 0.16608 0.0
H1571 H 0.04455 0.06757 0.17987 0.0
H1572 H 0.05079 0.09008 0.15846 0.0
H1573 H 0.99692 0.97073 0.11686 0.0
H1574 H 0.00421 0.9752 0.14788 0.0
H1575 H 0.97758 0.98976 0.13491 0.0
H1576 H 0.00786 1.00172 0.22163 0.0
H1577 H 0.94555 0.03923 0.19072 0.0
H1578 H 0.05485 0.02217 0.18389 0.0
H1579 H 0.04104 0.9904 0.17432 0.0
H1580 H 0.04743 0.99958 0.20496 0.0
H1581 H 0.97836 0.06541 0.1457 0.0
H1582 H 0.94674 0.0553 0.15406 0.0
H1583 H 0.96309 0.03468 0.13464 0.0
C1584 C 0.33965 0.75154 0.13438 0.0
C1585 C 0.3251 0.72774 0.12969 0.0
C1586 C 0.33593 0.7718 0.12025 0.0
C1587 C 0.31698 0.76822 0.10124 0.0
C1588 C 0.30253 0.74407 0.0963 0.0
C1589 C 0.30691 0.7241 0.11049 0.0
C1590 C 0.35194 0.79715 0.12588 0.0
C1591 C 0.28193 0.73952 0.07638 0.0
C1592 C 0.28481 0.8251 0.07933 0.0
C1593 C 0.29578 0.82787 0.05815 0.0
C1594 C 0.29214 0.80629 0.09385 0.0
C1595 C 0.31114 0.78999 0.08718 0.0
C1596 C 0.32313 0.79342 0.06631 0.0
C1597 C 0.3152 0.81224 0.05196 0.0
C1598 C 0.27873 0.80317 0.11586 0.0
C1599 C 0.34372 0.77665 0.05877 0.0
H1600 H 0.35387 0.75441 0.14913 0.0
H1601 H 0.29565 0.7057 0.10687 0.0
H1602 H 0.36135 0.80297 0.11029 0.0
H1603 H 0.33934 0.81236 0.13095 0.0
H1604 H 0.36704 0.79629 0.14025 0.0
H1605 H 0.27287 0.71945 0.07451 0.0
H1606 H 0.26668 0.75277 0.07914 0.0
H1607 H 0.29023 0.74373 0.05984 0.0
H1608 H 0.2698 0.83709 0.08428 0.0
H1609 H 0.32385 0.81435 0.03566 0.0
H1610 H 0.29309 0.80382 0.131 0.0
H1611 H 0.26751 0.7841 0.11457 0.0
H1612 H 0.26539 0.81829 0.11921 0.0
H1613 H 0.35889 0.77631 0.07314 0.0
H1614 H 0.35285 0.78334 0.0433 0.0
H1615 H 0.33517 0.7566 0.05446 0.0
C1616 C 0.03657 0.51111 0.08705 0.0
C1617 C 0.00961 0.50705 0.08499 0.0
C1618 C 0.05052 0.51268 0.10881 0.0
C1619 C 0.03723 0.50969 0.12905 0.0
C1620 C 0.00997 0.50541 0.12707 0.0
C1621 C 0.99644 0.5044 0.10504 0.0
C1622 C 0.07949 0.51784 0.11016 0.0
C1623 C 0.99515 0.50178 0.14818 0.0
C1624 C 0.07869 0.49413 0.1822 0.0
C1625 C 0.08389 0.51847 0.1944 0.0
C1626 C 0.0627 0.49074 0.16135 0.0
C1627 C 0.05196 0.51225 0.15229 0.0
C1628 C 0.0567 0.53671 0.16476 0.0
C1629 C 0.07238 0.53948 0.18565 0.0
C1630 C 0.05777 0.46427 0.14872 0.0
C1631 C 0.04598 0.56023 0.1556 0.0
H1632 H 0.04675 0.5133 0.07155 0.0
H1633 H 0.97561 0.501 0.10342 0.0
H1634 H 0.08554 0.53588 0.12126 0.0
H1635 H 0.0887 0.50207 0.11832 0.0
H1636 H 0.08688 0.51965 0.09278 0.0
H1637 H 0.97411 0.49767 0.14362 0.0
H1638 H 1.00224 0.48567 0.15748 0.0
H1639 H 0.99835 0.51932 0.16044 0.0
H1640 H 0.0873 0.47774 0.18882 0.0
H1641 H 0.07615 0.55842 0.19481 0.0
H1642 H 0.06673 0.46399 0.1319 0.0
H1643 H 0.03677 0.45933 0.14475 0.0
H1644 H 0.06569 0.44922 0.15895 0.0
H1645 H 0.05399 0.56392 0.13882 0.0
H1646 H 0.0506 0.5777 0.16784 0.0
H1647 H 0.02474 0.55698 0.15224 0.0
C1648 C 0.40565 0.69153 0.23862 0.0
C1649 C 0.37967 0.68433 0.24157 0.0
C1650 C 0.42386 0.69683 0.25785 0.0
C1651 C 0.41605 0.69454 0.28061 0.0
C1652 C 0.39008 0.68639 0.28358 0.0
C1653 C 0.37222 0.68184 0.26416 0.0
C1654 C 0.45138 0.70541 0.25386 0.0
C1655 C 0.38037 0.68356 0.30718 0.0
C1656 C 0.46945 0.6919 0.32857 0.0
C1657 C 0.47286 0.71757 0.33781 0.0
C1658 C 0.45038 0.68387 0.31047 0.0
C1659 C 0.43479 0.7021 0.30117 0.0
C1660 C 0.43777 0.72791 0.31096 0.0
C1661 C 0.45701 0.73539 0.32893 0.0
C1662 C 0.4471 0.656 0.30108 0.0
C1663 C 0.42102 0.74777 0.30209 0.0
H1664 H 0.41177 0.69315 0.22126 0.0
H1665 H 0.35216 0.67694 0.26689 0.0
H1666 H 0.45653 0.72515 0.26223 0.0
H1667 H 0.46466 0.6926 0.26199 0.0
H1668 H 0.45458 0.7054 0.23509 0.0
H1669 H 0.36533 0.66717 0.30649 0.0
H1670 H 0.39589 0.6806 0.3205 0.0
H1671 H 0.37123 0.70125 0.31248 0.0
H1672 H 0.48193 0.67819 0.3353 0.0
H1673 H 0.46023 0.75544 0.33554 0.0
H1674 H 0.45103 0.65436 0.28246 0.0
H1675 H 0.42687 0.64814 0.30218 0.0
H1676 H 0.46013 0.64406 0.31069 0.0
H1677 H 0.4237 0.7498 0.28345 0.0
H1678 H 0.42544 0.7669 0.31191 0.0
H1679 H 0.40044 0.74139 0.30344 0.0
C1680 C 0.00444 0.42162 0.97175 0.0
C1681 C 0.02298 0.43002 0.99004 0.0
C1682 C 0.00597 0.39827 0.95841 0.0
C1683 C 0.02632 0.38284 0.96371 0.0
C1684 C 0.04537 0.39152 0.98188 0.0
C1685 C 0.04354 0.41511 0.99473 0.0
C1686 C 0.98544 0.38983 0.939 0.0
C1687 C 0.06716 0.37549 0.98825 0.0
C1688 C 0.00997 0.31189 0.9457 0.0
C1689 C 0.02174 0.30886 0.92475 0.0
C1690 C 0.0124 0.33556 0.95911 0.0
C1691 C 0.02659 0.35691 0.95119 0.0
C1692 C 0.03948 0.35372 0.93056 0.0
C1693 C 0.03708 0.32962 0.91766 0.0
C1694 C 0.99881 0.33799 0.98125 0.0
C1695 C 0.0546 0.37608 0.92145 0.0
H1696 H 0.9886 0.43316 0.96794 0.0
H1697 H 0.05788 0.42161 0.00889 0.0
H1698 H 0.99446 0.38508 0.92259 0.0
H1699 H 0.97415 0.37213 0.94318 0.0
H1700 H 0.97197 0.40482 0.93605 0.0
H1701 H 0.08122 0.38565 1.00191 0.0
H1702 H 0.05927 0.35728 0.99469 0.0
H1703 H 0.0775 0.37028 0.97271 0.0
H1704 H 0.99823 0.29583 0.95133 0.0
H1705 H 0.04601 0.32744 0.90136 0.0
H1706 H 0.9829 0.35062 0.97907 0.0
H1707 H 0.01231 0.34704 0.99582 0.0
H1708 H 0.9906 0.31907 0.98609 0.0
H1709 H 0.04123 0.39027 0.91593 0.0
H1710 H 0.06536 0.36996 0.90639 0.0
H1711 H 0.06846 0.38605 0.93531 0.0
C1712 C 0.66528 0.83965 0.27598 0.0
C1713 C 0.67067 0.82332 0.25692 0.0
C1714 C 0.64744 0.83157 0.29155 0.0
C1715 C 0.63456 0.80655 0.28788 0.0
C1716 C 0.63984 0.78999 0.26855 0.0
C1717 C 0.6579 0.79854 0.25334 0.0
C1718 C 0.64249 0.84975 0.31199 0.0
C1719 C 0.62643 0.76322 0.26398 0.0
C1720 C 0.60629 0.77591 0.33897 0.0
C1721 C 0.58007 0.7797 0.33531 0.0
C1722 C 0.62424 0.78476 0.32381 0.0
C1723 C 0.61577 0.79759 0.3044 0.0
C1724 C 0.58937 0.80171 0.30074 0.0
C1725 C 0.57185 0.79279 0.31627 0.0
C1726 C 0.65224 0.78016 0.32846 0.0
C1727 C 0.57956 0.81524 0.28021 0.0
H1728 H 0.67515 0.85881 0.2788 0.0
H1729 H 0.66193 0.78581 0.23861 0.0
H1730 H 0.62178 0.85315 0.31139 0.0
H1731 H 0.6472 0.84103 0.32846 0.0
H1732 H 0.65404 0.86858 0.31235 0.0
H1733 H 0.63238 0.75287 0.24802 0.0
H1734 H 0.63074 0.75185 0.27894 0.0
H1735 H 0.60525 0.7642 0.26214 0.0
H1736 H 0.61282 0.76585 0.35366 0.0
H1737 H 0.55162 0.79573 0.31327 0.0
H1738 H 0.66437 0.79872 0.33004 0.0
H1739 H 0.65862 0.76817 0.31364 0.0
H1740 H 0.65579 0.77037 0.34458 0.0
H1741 H 0.58979 0.83471 0.2806 0.0
H1742 H 0.55852 0.81716 0.27994 0.0
H1743 H 0.58361 0.80443 0.2638 0.0
C1744 C 0.04774 0.08893 0.97119 0.0
C1745 C 0.05096 0.09357 0.99542 0.0
C1746 C 0.04173 0.10856 0.95704 0.0
C1747 C 0.03925 0.13358 0.96738 0.0
C1748 C 0.04291 0.13848 0.99188 0.0
C1749 C 0.04857 0.11836 0.00564 0.0
C1750 C 0.0377 0.10242 0.93104 0.0
C1751 C 0.04073 0.16495 1.00354 0.0
C1752 C 0.04441 0.18882 0.92834 0.0
C1753 C 0.01842 0.19292 0.92342 0.0
C1754 C 0.05151 0.16988 0.94292 0.0
C1755 C 0.03217 0.15439 0.95255 0.0
C1756 C 0.00592 0.15838 0.94761 0.0
C1757 C 0.99939 0.17767 0.93328 0.0
C1758 C 0.07972 0.16644 0.94801 0.0
C1759 C 0.98468 0.14204 0.95723 0.0
H1760 H 0.04961 0.06977 0.96327 0.0
H1761 H 0.05125 0.12212 0.02437 0.0
H1762 H 0.01792 0.10633 0.92483 0.0
H1763 H 0.05132 0.11499 0.92218 0.0
H1764 H 0.04047 0.08204 0.92573 0.0
H1765 H 0.04503 0.16583 0.02267 0.0
H1766 H 0.05421 0.17924 0.99638 0.0
H1767 H 0.02098 0.17074 0.9999 0.0
H1768 H 0.05927 0.20058 0.92096 0.0
H1769 H 0.97925 0.18055 0.92954 0.0
H1770 H 0.08379 0.14677 0.9416 0.0
H1771 H 0.08471 0.16854 0.96706 0.0
H1772 H 0.09242 0.18057 0.9398 0.0
H1773 H 0.98574 0.1215 0.95131 0.0
H1774 H 0.96522 0.14759 0.95175 0.0
H1775 H 0.98713 0.14376 0.9765 0.0
C1776 C 0.41822 0.30421 0.27596 0.0
C1777 C 0.39619 0.31747 0.27283 0.0
C1778 C 0.43331 0.29862 0.2574 0.0
C1779 C 0.42628 0.30667 0.23519 0.0
C1780 C 0.40483 0.32131 0.23225 0.0
C1781 C 0.38994 0.32643 0.25109 0.0
C1782 C 0.45595 0.28284 0.26126 0.0
C1783 C 0.39684 0.33047 0.20894 0.0
C1784 C 0.47504 0.29857 0.18967 0.0
C1785 C 0.4663 0.2742 0.17884 0.0
C1786 C 0.46169 0.31002 0.20754 0.0
C1787 C 0.43919 0.29674 0.2146 0.0
C1788 C 0.42963 0.2728 0.20283 0.0
C1789 C 0.44322 0.26191 0.18513 0.0
C1790 C 0.47228 0.33573 0.21952 0.0
C1791 C 0.40563 0.25801 0.20963 0.0
H1792 H 0.42316 0.29742 0.29279 0.0
H1793 H 0.37308 0.33698 0.24858 0.0
H1794 H 0.4517 0.2636 0.25164 0.0
H1795 H 0.47336 0.29214 0.25442 0.0
H1796 H 0.46034 0.28018 0.27993 0.0
H1797 H 0.38209 0.34454 0.21026 0.0
H1798 H 0.41377 0.33948 0.20114 0.0
H1799 H 0.38871 0.31379 0.19689 0.0
H1800 H 0.49283 0.30818 0.18492 0.0
H1801 H 0.43606 0.24324 0.17663 0.0
H1802 H 0.48002 0.33312 0.23745 0.0
H1803 H 0.45676 0.3489 0.22093 0.0
H1804 H 0.48796 0.34497 0.21022 0.0
H1805 H 0.40887 0.25248 0.22765 0.0
H1806 H 0.40005 0.24027 0.19794 0.0
H1807 H 0.38926 0.27024 0.2093 0.0
C1808 C 0.53495 0.41356 0.02793 0.0
C1809 C 0.55862 0.41268 0.01801 0.0
C1810 C 0.52671 0.39487 0.04263 0.0
C1811 C 0.54227 0.37458 0.04709 0.0
C1812 C 0.56594 0.3734 0.03667 0.0
C1813 C 0.57395 0.39264 0.02252 0.0
C1814 C 0.50166 0.39714 0.05381 0.0
C1815 C 0.58291 0.35187 0.04058 0.0
C1816 C 0.53886 0.33804 0.10114 0.0
C1817 C 0.52452 0.31506 0.09244 0.0
C1818 C 0.54362 0.35811 0.08685 0.0
C1819 C 0.53437 0.35489 0.06311 0.0
C1820 C 0.51922 0.33201 0.0544 0.0
C1821 C 0.51422 0.31248 0.06925 0.0
C1822 C 0.55932 0.38242 0.09699 0.0
C1823 C 0.50939 0.3276 0.02912 0.0
H1824 H 0.52314 0.42917 0.02464 0.0
H1825 H 0.59224 0.39194 0.01482 0.0
H1826 H 0.48863 0.37935 0.04935 0.0
H1827 H 0.50542 0.39931 0.073 0.0
H1828 H 0.4916 0.41381 0.0483 0.0
H1829 H 0.60001 0.35298 0.03022 0.0
H1830 H 0.58968 0.35254 0.05924 0.0
H1831 H 0.57175 0.33299 0.0359 0.0
H1832 H 0.54672 0.34019 0.1191 0.0
H1833 H 0.50327 0.29469 0.0624 0.0
H1834 H 0.54942 0.39955 0.09255 0.0
H1835 H 0.57825 0.38382 0.08941 0.0
H1836 H 0.56276 0.38301 0.1162 0.0
H1837 H 0.49879 0.34397 0.02382 0.0
H1838 H 0.49646 0.30959 0.02542 0.0
H1839 H 0.52594 0.32643 0.01819 0.0
C1840 C 0.6565 0.21046 0.26454 0.0
C1841 C 0.67426 0.19412 0.25589 0.0
C1842 C 0.63563 0.21695 0.25024 0.0
C1843 C 0.63233 0.20676 0.22675 0.0
C1844 C 0.6503 0.19043 0.21786 0.0
C1845 C 0.67112 0.18434 0.23256 0.0
C1846 C 0.61693 0.2345 0.26035 0.0
C1847 C 0.64733 0.17914 0.1929 0.0
C1848 C 0.56482 0.20183 0.19695 0.0
C1849 C 0.56592 0.22297 0.18342 0.0
C1850 C 0.58629 0.19635 0.21104 0.0
C1851 C 0.60949 0.21245 0.21179 0.0
C1852 C 0.61071 0.23406 0.19852 0.0
C1853 C 0.58893 0.23905 0.18447 0.0
C1854 C 0.58422 0.17314 0.22496 0.0
C1855 C 0.6351 0.25176 0.19903 0.0
H1856 H 0.65882 0.21825 0.28254 0.0
H1857 H 0.68487 0.17179 0.22585 0.0
H1858 H 0.61545 0.25134 0.25 0.0
H1859 H 0.59744 0.22415 0.2595 0.0
H1860 H 0.62275 0.24153 0.27873 0.0
H1861 H 0.66332 0.16732 0.18852 0.0
H1862 H 0.62886 0.1669 0.18959 0.0
H1863 H 0.64665 0.19474 0.18103 0.0
H1864 H 0.54723 0.1892 0.19629 0.0
H1865 H 0.59006 0.2554 0.17409 0.0
H1866 H 0.58845 0.17917 0.24374 0.0
H1867 H 0.5987 0.1598 0.21991 0.0
H1868 H 0.5648 0.16251 0.2224 0.0
H1869 H 0.64095 0.25985 0.2171 0.0
H1870 H 0.63282 0.2679 0.18791 0.0
H1871 H 0.65101 0.24078 0.19301 0.0
C1872 C 0.50748 0.0801 0.03373 0.0
C1873 C 0.50305 0.08235 0.00992 0.0
C1874 C 0.51363 0.1018 0.04938 0.0
C1875 C 0.51496 0.12659 0.04113 0.0
C1876 C 0.51228 0.12889 0.01684 0.0
C1877 C 0.5063 0.10665 1.00145 0.0
C1878 C 0.51688 0.09763 0.07475 0.0
C1879 C 0.51491 0.15483 0.00718 0.0
C1880 C 0.49591 0.18236 0.08053 0.0
C1881 C 0.51977 0.1929 0.09106 0.0
C1882 C 0.49408 0.1606 0.0645 0.0
C1883 C 0.51684 0.14994 0.05791 0.0
C1884 C 0.54111 0.16118 0.06784 0.0
C1885 C 0.54227 0.18245 0.08442 0.0
C1886 C 0.46778 0.14892 0.05472 0.0
C1887 C 0.5658 0.1506 0.06108 0.0
H1888 H 0.5055 0.06122 0.04026 0.0
H1889 H 0.50315 0.10836 0.98294 0.0
H1890 H 0.52772 0.11411 0.08529 0.0
H1891 H 0.49741 0.09435 0.08099 0.0
H1892 H 0.52698 0.0801 0.07743 0.0
H1893 H 0.51567 0.15313 0.98799 0.0
H1894 H 0.49827 0.16569 0.01151 0.0
H1895 H 0.53261 0.16626 0.01517 0.0
H1896 H 0.47865 0.19135 0.08463 0.0
H1897 H 0.56083 0.19105 0.09211 0.0
H1898 H 0.46518 0.12851 0.0587 0.0
H1899 H 0.46608 0.14913 0.03554 0.0
H1900 H 0.45199 0.15931 0.06185 0.0
H1901 H 0.56657 0.13085 0.06664 0.0
H1902 H 0.58315 0.16265 0.06908 0.0
H1903 H 0.5664 0.14928 0.0419 0.0
C1904 C 0.29886 0.35993 0.70004 0.0
C1905 C 0.27342 0.36515 0.70337 0.0
C1906 C 0.31941 0.37881 0.70569 0.0
C1907 C 0.31455 0.40349 0.71526 0.0
C1908 C 0.28889 0.4089 0.71874 0.0
C1909 C 0.26862 0.38963 0.71281 0.0
C1910 C 0.34635 0.37209 0.70183 0.0
C1911 C 0.28282 0.43514 0.72847 0.0
C1912 C 0.36694 0.44701 0.75125 0.0
C1913 C 0.37545 0.46353 0.73497 0.0
C1914 C 0.34789 0.42671 0.74483 0.0
C1915 C 0.33628 0.4236 0.72181 0.0
C1916 C 0.34478 0.44035 0.7053 0.0
C1917 C 0.36431 0.46011 0.7121 0.0
C1918 C 0.33976 0.40898 0.76283 0.0
C1919 C 0.33269 0.43789 0.68067 0.0
H1920 H 0.30275 0.34091 0.69312 0.0
H1921 H 0.24894 0.39385 0.71515 0.0
H1922 H 0.35681 0.38718 0.69282 0.0
H1923 H 0.35684 0.37105 0.71895 0.0
H1924 H 0.34662 0.35329 0.69155 0.0
H1925 H 0.26182 0.43639 0.7297 0.0
H1926 H 0.29279 0.43979 0.74604 0.0
H1927 H 0.29003 0.45001 0.7173 0.0
H1928 H 0.37464 0.45044 0.7692 0.0
H1929 H 0.37053 0.4733 0.69966 0.0
H1930 H 0.34186 0.38875 0.75653 0.0
H1931 H 0.31913 0.41043 0.76569 0.0
H1932 H 0.35129 0.41349 0.77975 0.0
H1933 H 0.33422 0.41827 0.67243 0.0
H1934 H 0.34187 0.45209 0.66984 0.0
H1935 H 0.31187 0.44074 0.68073 0.0
C1936 C 0.27284 0.63609 0.80723 0.0
C1937 C 0.27981 0.66047 0.81901 0.0
C1938 C 0.29144 0.61919 0.80163 0.0
C1939 C 0.31773 0.62629 0.80867 0.0
C1940 C 0.32487 0.65027 0.82153 0.0
C1941 C 0.30593 0.6672 0.82626 0.0
C1942 C 0.28297 0.59399 0.78757 0.0
C1943 C 0.35262 0.65829 0.82987 0.0
C1944 C 0.36119 0.57119 0.80694 0.0
C1945 C 0.37268 0.57408 0.78603 0.0
C1946 C 0.34409 0.58867 0.81506 0.0
C1947 C 0.33773 0.60904 0.80157 0.0
C1948 C 0.3495 0.61213 0.78054 0.0
C1949 C 0.36709 0.59485 0.77321 0.0
C1950 C 0.33258 0.58514 0.8379 0.0
C1951 C 0.34281 0.63316 0.76532 0.0
H1952 H 0.25274 0.6302 0.80211 0.0
H1953 H 0.31177 0.68597 0.83513 0.0
H1954 H 0.29255 0.59311 0.77106 0.0
H1955 H 0.28886 0.57767 0.79722 0.0
H1956 H 0.26178 0.59135 0.78338 0.0
H1957 H 0.35468 0.67628 0.84164 0.0
H1958 H 0.36102 0.64283 0.83919 0.0
H1959 H 0.36407 0.66141 0.81477 0.0
H1960 H 0.36561 0.55527 0.817 0.0
H1961 H 0.37579 0.59707 0.75696 0.0
H1962 H 0.31152 0.58003 0.83483 0.0
H1963 H 0.33541 0.6034 0.84924 0.0
H1964 H 0.3412 0.5698 0.84726 0.0
H1965 H 0.32195 0.63064 0.75959 0.0
H1966 H 0.35394 0.63322 0.74968 0.0
H1967 H 0.34658 0.65223 0.77529 0.0
C1968 C 0.93389 0.50755 0.51425 0.0
C1969 C 0.93891 0.50817 0.49071 0.0
C1970 C 0.91155 0.49421 0.52087 0.0
C1971 C 0.89426 0.48015 0.50368 0.0
C1972 C 0.89973 0.47959 0.48003 0.0
C1973 C 0.92171 0.49393 0.4738 0.0
C1974 C 0.90613 0.49571 0.5462 0.0
C1975 C 0.88209 0.46419 0.46121 0.0
C1976 C 0.84602 0.42683 0.51839 0.0
C1977 C 0.82279 0.43798 0.5145 0.0
C1978 C 0.8697 0.44069 0.51592 0.0
C1979 C 0.87003 0.46651 0.51017 0.0
C1980 C 0.8467 0.47852 0.50839 0.0
C1981 C 0.82327 0.46391 0.51009 0.0
C1982 C 0.894 0.42693 0.51732 0.0
C1983 C 0.84632 0.50628 0.50315 0.0
H1984 H 0.94733 0.51771 0.52764 0.0
H1985 H 0.92503 0.49438 0.45558 0.0
H1986 H 0.88758 0.50423 0.54839 0.0
H1987 H 0.90411 0.47616 0.55232 0.0
H1988 H 0.92154 0.50751 0.55745 0.0
H1989 H 0.89021 0.46395 0.44398 0.0
H1990 H 0.87844 0.44405 0.46569 0.0
H1991 H 0.86321 0.47247 0.45978 0.0
H1992 H 0.84557 0.40657 0.52123 0.0
H1993 H 0.80523 0.4724 0.50686 0.0
H1994 H 0.90974 0.43884 0.52798 0.0
H1995 H 0.90051 0.4235 0.49959 0.0
H1996 H 0.89097 0.40809 0.52477 0.0
H1997 H 0.86143 0.51853 0.51431 0.0
H1998 H 0.82733 0.51372 0.50581 0.0
H1999 H 0.85051 0.50814 0.48481 0.0
C2000 C 0.7816 0.88775 0.80347 0.0
C2001 C 0.77577 0.86452 0.81341 0.0
C2002 C 0.76225 0.90331 0.79668 0.0
C2003 C 0.73633 0.89611 0.80064 0.0
C2004 C 0.73032 0.87336 0.81162 0.0
C2005 C 0.75003 0.85768 0.81762 0.0
C2006 C 0.76955 0.92724 0.78479 0.0
C2007 C 0.70301 0.8654 0.81674 0.0
C2008 C 0.6935 0.95137 0.79818 0.0
C2009 C 0.6815 0.9469 0.77561 0.0
C2010 C 0.7102 0.93415 0.80709 0.0
C2011 C 0.71567 0.91234 0.79281 0.0
C2012 C 0.70304 0.9074 0.7702 0.0
C2013 C 0.68582 0.92456 0.762 0.0
C2014 C 0.72261 0.93974 0.83151 0.0
C2015 C 0.70875 0.88473 0.7542 0.0
H2016 H 0.80142 0.89378 0.80076 0.0
H2017 H 0.74512 0.83977 0.82511 0.0
H2018 H 0.7588 0.92631 0.76746 0.0
H2019 H 0.76418 0.94448 0.79508 0.0
H2020 H 0.79051 0.92979 0.78245 0.0
H2021 H 0.70182 0.84838 0.82706 0.0
H2022 H 0.69477 0.88152 0.82643 0.0
H2023 H 0.69084 0.86069 0.80022 0.0
H2024 H 0.69001 0.96851 0.80885 0.0
H2025 H 0.67668 0.9211 0.7445 0.0
H2026 H 0.7435 0.94531 0.83094 0.0
H2027 H 0.72074 0.92228 0.84117 0.0
H2028 H 0.71396 0.95556 0.8413 0.0
H2029 H 0.72919 0.88706 0.75005 0.0
H2030 H 0.6963 0.88274 0.73767 0.0
H2031 H 0.70606 0.86666 0.76286 0.0
C2032 C 0.60954 0.5502 0.98694 0.0
C2033 C 0.61276 0.52401 0.98301 0.0
C2034 C 0.63072 0.56835 0.99218 0.0
C2035 C 0.65596 0.56028 0.99312 0.0
C2036 C 0.65927 0.53359 0.99051 0.0
C2037 C 0.63754 0.51568 0.98551 0.0
C2038 C 0.62569 0.59623 0.99503 0.0
C2039 C 0.68576 0.52404 0.99219 0.0
C2040 C 0.71057 0.60651 0.97678 0.0
C2041 C 0.72116 0.61747 0.99854 0.0
C2042 C 0.6891 0.58823 0.97478 0.0
C2043 C 0.67872 0.57978 0.99512 0.0
C2044 C 0.6898 0.59036 0.0172 0.0
C2045 C 0.71084 0.60913 0.01863 0.0
C2046 C 0.67755 0.57792 0.95089 0.0
C2047 C 0.67941 0.58182 0.03928 0.0
H2048 H 0.5903 0.55661 0.98529 0.0
H2049 H 0.63999 0.49534 0.98259 0.0
H2050 H 0.6407 0.60781 0.00678 0.0
H2051 H 0.62535 0.60365 0.97763 0.0
H2052 H 0.60663 0.59871 1.00188 0.0
H2053 H 0.68496 0.50276 0.99218 0.0
H2054 H 0.69637 0.52991 0.97727 0.0
H2055 H 0.69695 0.53282 0.00828 0.0
H2056 H 0.71937 0.61191 0.96129 0.0
H2057 H 0.71942 0.61717 0.03552 0.0
H2058 H 0.65694 0.58172 0.94896 0.0
H2059 H 0.67837 0.55678 0.94863 0.0
H2060 H 0.68766 0.58671 0.93683 0.0
H2061 H 0.65917 0.58664 0.04006 0.0
H2062 H 0.69088 0.59106 0.05508 0.0
H2063 H 0.67933 0.56063 0.03943 0.0
C2064 C 0.27138 0.64906 0.20177 0.0
C2065 C 0.29603 0.64059 0.20518 0.0
C2066 C 0.24926 0.63313 0.20514 0.0
C2067 C 0.25178 0.60814 0.21225 0.0
C2068 C 0.2766 0.59917 0.21502 0.0
C2069 C 0.29843 0.61553 0.21153 0.0
C2070 C 0.22335 0.6436 0.20207 0.0
C2071 C 0.28015 0.57243 0.22202 0.0
C2072 C 0.2012 0.5742 0.24599 0.0
C2073 C 0.18751 0.5574 0.22857 0.0
C2074 C 0.22135 0.59171 0.24072 0.0
C2075 C 0.22866 0.59162 0.2176 0.0
C2076 C 0.21479 0.57467 0.19992 0.0
C2077 C 0.19438 0.55774 0.20565 0.0
C2078 C 0.2353 0.60977 0.26 0.0
C2079 C 0.22213 0.57373 0.17514 0.0
H2080 H 0.26939 0.66853 0.19722 0.0
H2081 H 0.31745 0.60878 0.21392 0.0
H2082 H 0.20913 0.62919 0.19218 0.0
H2083 H 0.21643 0.64798 0.21946 0.0
H2084 H 0.22422 0.66153 0.19297 0.0
H2085 H 0.30056 0.56787 0.22214 0.0
H2086 H 0.27357 0.5705 0.23965 0.0
H2087 H 0.26819 0.55796 0.20993 0.0
H2088 H 0.19664 0.57311 0.26388 0.0
H2089 H 0.18412 0.5443 0.19227 0.0
H2090 H 0.23532 0.62991 0.25527 0.0
H2091 H 0.2557 0.60539 0.26249 0.0
H2092 H 0.22639 0.60835 0.27677 0.0
H2093 H 0.22233 0.59316 0.16873 0.0
H2094 H 0.20871 0.56026 0.16328 0.0
H2095 H 0.24189 0.56754 0.17434 0.0
C2096 C 0.94304 0.54831 0.00751 0.0
C2097 C 0.9424 0.53493 0.02758 0.0
C2098 C 0.92377 0.56444 1.00162 0.0
C2099 C 0.90309 0.56702 0.01595 0.0
C2100 C 0.90218 0.5533 0.03609 0.0
C2101 C 0.92194 0.5376 0.04176 0.0
C2102 C 0.92576 0.57905 0.98026 0.0
C2103 C 0.88033 0.55523 0.05168 0.0
C2104 C 0.86577 0.62653 0.01606 0.0
C2105 C 0.8433 0.61759 1.00205 0.0
C2106 C 0.88564 0.61051 0.02015 0.0
C2107 C 0.88285 0.58469 0.01034 0.0
C2108 C 0.86043 0.57569 0.99577 0.0
C2109 C 0.84102 0.59231 0.99163 0.0
C2110 C 0.9094 0.62108 0.0354 0.0
C2111 C 0.85655 0.54823 0.98521 0.0
H2112 H 0.95896 0.54652 0.99662 0.0
H2113 H 0.92122 0.52711 0.05715 0.0
H2114 H 0.9082 0.57431 0.96826 0.0
H2115 H 0.92703 0.60003 0.98529 0.0
H2116 H 0.94284 0.57468 0.97077 0.0
H2117 H 0.8819 0.54256 0.06615 0.0
H2118 H 0.88009 0.57536 0.05918 0.0
H2119 H 0.86162 0.54993 0.04142 0.0
H2120 H 0.86772 0.64607 0.02411 0.0
H2121 H 0.82362 0.58521 0.98095 0.0
H2122 H 0.92697 0.61791 0.02624 0.0
H2123 H 0.91072 0.61077 0.0514 0.0
H2124 H 0.90933 0.64198 0.04052 0.0
H2125 H 0.87304 0.54365 0.97502 0.0
H2126 H 0.8385 0.54443 0.97366 0.0
H2127 H 0.85583 0.53495 0.99922 0.0
C2128 C 0.10285 0.98553 0.03023 0.0
C2129 C 0.10608 1.00071 0.05145 0.0
C2130 C 0.12193 0.96975 0.02327 0.0
C2131 C 0.14509 0.96969 0.03758 0.0
C2132 C 0.1483 0.98485 0.05916 0.0
C2133 C 0.1286 0.99994 0.06596 0.0
C2134 C 0.11744 0.95344 1.00042 0.0
C2135 C 0.1729 0.98581 0.07469 0.0
C2136 C 0.18891 0.91555 0.02824 0.0
C2137 C 0.20677 0.92635 0.01397 0.0
C2138 C 0.16855 0.92928 0.03583 0.0
C2139 C 0.16639 0.95467 0.02951 0.0
C2140 C 0.18458 0.96576 0.01535 0.0
C2141 C 0.20431 0.95136 0.00751 0.0
C2142 C 0.1492 0.91652 0.05039 0.0
C2143 C 0.18335 0.99295 0.00863 0.0
H2144 H 0.08537 0.98607 0.01906 0.0
H2145 H 0.13118 0.01188 0.08227 0.0
H2146 H 0.13147 0.96015 0.98822 0.0
H2147 H 0.12057 0.93313 1.00306 0.0
H2148 H 0.09767 0.95417 0.99219 0.0
H2149 H 0.17214 0.9981 0.09113 0.0
H2150 H 0.17682 0.96617 0.07902 0.0
H2151 H 0.18935 0.99348 0.06541 0.0
H2152 H 0.19058 0.89616 0.03315 0.0
H2153 H 0.21816 0.95992 0.99666 0.0
H2154 H 0.12952 0.9162 0.04171 0.0
H2155 H 0.14926 0.9277 0.06748 0.0
H2156 H 0.15325 0.89648 0.05338 0.0
H2157 H 0.16487 0.99467 0.99841 0.0
H2158 H 0.19944 0.99905 0.99817 0.0
H2159 H 0.18399 0.00645 0.02448 0.0
loop_
_geom_bond_atom_site_label_1
_geom_bond_atom_site_label_2
_geom_bond_distance
_geom_bond_site_symmetry_2
_ccdc_geom_bond_type
H0 C5 0.930 . S
H1 C8 0.930 . S
H2 C10 0.930 . S
H3 C4 1.016 . S
C4 H3 1.016 . S
C4 N11 1.286 1_556 S
C5 H0 0.930 . S
C5 C6 1.397 . S
C5 C7 1.361 . S
C6 C5 1.397 . S
C6 C10 1.390 . S
C7 C5 1.361 . S
C7 C8 1.393 . S
C7 N11 1.413 . S
C8 H1 0.930 . S
C8 C7 1.393 . S
C8 C9 1.399 . S
C9 C8 1.399 . S
C9 C10 1.381 . S
C10 H2 0.930 . S
C10 C6 1.390 . S
C10 C9 1.381 . S
N11 C4 1.286 1_554 S
N11 C7 1.413 . S
H12 C17 0.930 . S
H13 C20 0.930 . S
H14 C22 0.930 . S
H15 C16 1.016 . S
C16 H15 1.016 . S
C16 N23 1.286 . S
C17 H12 0.930 . S
C17 C18 1.397 . S
C17 C19 1.361 . S
C18 C17 1.397 . S
C18 C22 1.390 . S
C19 C17 1.361 . S
C19 C20 1.393 . S
C19 N23 1.413 . S
C20 H13 0.930 . S
C20 C19 1.393 . S
C20 C21 1.399 . S
C21 C20 1.399 . S
C21 C22 1.381 . S
C22 H14 0.930 . S
C22 C18 1.390 . S
C22 C21 1.381 . S
N23 C16 1.286 . S
N23 C19 1.413 . S
H24 C29 0.930 . S
H25 C32 0.932 . S
H26 C34 0.930 . S
H27 C28 1.028 1_455 S
C28 H27 1.028 1_655 S
C28 N35 1.293 . S
C29 H24 0.930 . S
C29 C30 1.397 . S
C29 C31 1.361 . S
C30 C29 1.397 . S
C30 C34 1.390 . S
C31 C29 1.361 . S
C31 C32 1.393 . S
C31 N35 1.413 . S
C32 H25 0.932 . S
C32 C31 1.393 . S
C32 C33 1.399 . S
C33 C32 1.399 . S
C33 C34 1.381 . S
C34 H26 0.930 . S
C34 C30 1.390 . S
C34 C33 1.381 . S
N35 C28 1.293 . S
N35 C31 1.413 . S
H36 C41 0.930 . S
H37 C44 0.930 . S
H38 C46 0.930 . S
H39 C40 1.016 . S
C40 H39 1.016 . S
C40 N47 1.286 . S
C41 H36 0.930 . S
C41 C42 1.397 . S
C41 C43 1.361 . S
C42 C41 1.397 . S
C42 C46 1.390 . S
C43 C41 1.361 . S
C43 C44 1.393 . S
C43 N47 1.413 . S
C44 H37 0.930 . S
C44 C43 1.393 . S
C44 C45 1.399 . S
C45 C44 1.399 . S
C45 C46 1.381 . S
C46 H38 0.930 . S
C46 C42 1.390 . S
C46 C45 1.381 . S
N47 C40 1.286 . S
N47 C43 1.413 . S
H48 C53 0.930 . S
H49 C56 0.930 . S
H50 C58 0.930 . S
H51 C52 1.016 . S
C52 H51 1.016 . S
C52 N59 1.286 . S
C53 H48 0.930 . S
C53 C54 1.397 . S
C53 C55 1.361 . S
C54 C53 1.397 . S
C54 C58 1.390 1_565 S
C55 C53 1.361 . S
C55 C56 1.393 . S
C55 N59 1.413 . S
C56 H49 0.930 . S
C56 C55 1.393 . S
C56 C57 1.399 1_565 S
C57 C56 1.399 1_545 S
C57 C58 1.381 . S
C58 H50 0.930 . S
C58 C54 1.390 1_545 S
C58 C57 1.381 . S
N59 C52 1.286 . S
N59 C55 1.413 . S
H60 C65 0.930 . S
H61 C68 0.930 . S
H62 C70 0.930 . S
H63 C64 1.016 . S
C64 H63 1.016 . S
C64 N71 1.286 . S
C65 H60 0.930 . S
C65 C66 1.397 . S
C65 C67 1.361 . S
C66 C65 1.397 . S
C66 C70 1.390 . S
C67 C65 1.361 . S
C67 C68 1.393 . S
C67 N71 1.413 . S
C68 H61 0.930 . S
C68 C67 1.393 . S
C68 C69 1.399 . S
C69 C68 1.399 . S
C69 C70 1.381 . S
C70 H62 0.930 . S
C70 C66 1.390 . S
C70 C69 1.381 . S
N71 C64 1.286 . S
N71 C67 1.413 . S
H72 C77 0.930 . S
H73 C80 0.930 . S
H74 C82 0.930 . S
H75 C76 1.016 . S
C76 H75 1.016 . S
C76 N83 1.286 . S
C77 H72 0.930 . S
C77 C78 1.397 1_455 S
C77 C79 1.363 . S
C78 C77 1.397 1_655 S
C78 C82 1.390 . S
C79 C77 1.363 . S
C79 C80 1.376 1_455 S
C79 N83 1.430 . S
C80 H73 0.930 . S
C80 C79 1.376 1_655 S
C80 C81 1.399 . S
C81 C80 1.399 . S
C81 C82 1.381 . S
C82 H74 0.930 . S
C82 C78 1.390 . S
C82 C81 1.381 . S
N83 C76 1.286 . S
N83 C79 1.430 . S
H84 C89 0.930 . S
H85 C92 0.930 . S
H86 C94 0.930 . S
H87 C88 1.016 . S
C88 H87 1.016 . S
C88 N95 1.286 . S
C89 H84 0.930 . S
C89 C90 1.397 . S
C89 C91 1.361 . S
C90 C89 1.397 . S
C90 C94 1.390 . S
C91 C89 1.361 . S
C91 C92 1.393 . S
C91 N95 1.413 . S
C92 H85 0.930 . S
C92 C91 1.393 . S
C92 C93 1.399 . S
C93 C92 1.399 . S
C93 C94 1.381 . S
C94 H86 0.930 . S
C94 C90 1.390 . S
C94 C93 1.381 . S
N95 C88 1.286 . S
N95 C91 1.413 . S
H96 C101 0.930 . S
H97 C104 0.930 . S
H98 C106 0.930 . S
H99 C100 1.016 . S
C100 H99 1.016 . S
C100 N107 1.286 . S
C101 H96 0.930 . S
C101 C102 1.397 . S
C101 C103 1.361 . S
C102 C101 1.397 . S
C102 C106 1.390 . S
C103 C101 1.361 . S
C103 C104 1.393 . S
C103 N107 1.413 . S
C104 H97 0.930 . S
C104 C103 1.393 . S
C104 C105 1.399 . S
C105 C104 1.399 . S
C105 C106 1.381 . S
C106 H98 0.930 . S
C106 C102 1.390 . S
C106 C105 1.381 . S
N107 C100 1.286 . S
N107 C103 1.413 . S
H108 C113 0.930 . S
H109 C116 0.930 . S
H110 C118 0.930 . S
H111 C112 1.016 . S
C112 H111 1.016 . S
C112 N119 1.286 . S
C113 H108 0.930 . S
C113 C114 1.397 1_565 S
C113 C115 1.361 . S
C114 C113 1.397 1_545 S
C114 C118 1.390 . S
C115 C113 1.361 . S
C115 C116 1.393 . S
C115 N119 1.413 . S
C116 H109 0.930 . S
C116 C115 1.393 . S
C116 C117 1.399 . S
C117 C116 1.399 . S
C117 C118 1.381 1_565 S
C118 H110 0.930 . S
C118 C114 1.390 . S
C118 C117 1.381 1_545 S
N119 C112 1.286 . S
N119 C115 1.413 . S
H120 C125 0.930 . S
H121 C128 0.930 . S
H122 C130 0.930 . S
H123 C124 1.016 . S
C124 H123 1.016 . S
C124 N131 1.286 . S
C125 H120 0.930 . S
C125 C126 1.397 . S
C125 C127 1.361 . S
C126 C125 1.397 . S
C126 C130 1.390 . S
C127 C125 1.361 . S
C127 C128 1.393 . S
C127 N131 1.413 . S
C128 H121 0.930 . S
C128 C127 1.393 . S
C128 C129 1.399 . S
C129 C128 1.399 . S
C129 C130 1.381 . S
C130 H122 0.930 . S
C130 C126 1.390 . S
C130 C129 1.381 . S
N131 C124 1.286 . S
N131 C127 1.413 . S
H132 C137 0.930 . S
H133 C140 0.930 . S
H134 C142 0.930 . S
H135 C136 1.016 . S
C136 H135 1.016 . S
C136 N143 1.286 . S
C137 H132 0.930 . S
C137 C138 1.397 . S
C137 C139 1.361 . S
C138 C137 1.397 . S
C138 C142 1.390 . S
C139 C137 1.361 . S
C139 C140 1.393 . S
C139 N143 1.413 . S
C140 H133 0.930 . S
C140 C139 1.393 . S
C140 C141 1.399 . S
C141 C140 1.399 . S
C141 C142 1.381 . S
C142 H134 0.930 . S
C142 C138 1.390 . S
C142 C141 1.381 . S
N143 C136 1.286 . S
N143 C139 1.413 . S
H144 C149 0.930 . S
H145 C152 0.930 . S
H146 C154 0.930 . S
H147 C148 1.016 . S
C148 H147 1.016 . S
C148 N155 1.286 . S
C149 H144 0.930 . S
C149 C150 1.397 . S
C149 C151 1.361 . S
C150 C149 1.397 . S
C150 C154 1.390 . S
C151 C149 1.361 . S
C151 C152 1.393 . S
C151 N155 1.413 . S
C152 H145 0.930 . S
C152 C151 1.393 . S
C152 C153 1.399 . S
C153 C152 1.399 . S
C153 C154 1.381 . S
C154 H146 0.930 . S
C154 C150 1.390 . S
C154 C153 1.381 . S
N155 C148 1.286 . S
N155 C151 1.413 . S
H156 C161 0.930 . S
H157 C164 0.926 . S
H158 C166 0.930 . S
H159 C160 1.016 . S
C160 H159 1.016 . S
C160 N167 1.286 1_554 S
C161 H156 0.930 . S
C161 C162 1.397 . S
C161 C163 1.361 . S
C162 C161 1.397 . S
C162 C166 1.390 . S
C163 C161 1.361 . S
C163 C164 1.393 . S
C163 N167 1.413 . S
C164 H157 0.926 . S
C164 C163 1.393 . S
C164 C165 1.399 . S
C165 C164 1.399 . S
C165 C166 1.381 . S
C166 H158 0.930 . S
C166 C162 1.390 . S
C166 C165 1.381 . S
N167 C160 1.286 1_556 S
N167 C163 1.413 . S
H168 C173 0.930 . S
H169 C176 0.930 . S
H170 C178 0.930 . S
H171 C172 1.016 . S
C172 H171 1.016 . S
C172 N179 1.286 . S
C173 H168 0.930 . S
C173 C174 1.397 . S
C173 C175 1.361 . S
C174 C173 1.397 . S
C174 C178 1.390 . S
C175 C173 1.361 . S
C175 C176 1.393 . S
C175 N179 1.413 . S
C176 H169 0.930 . S
C176 C175 1.393 . S
C176 C177 1.399 . S
C177 C176 1.399 . S
C177 C178 1.381 . S
C178 H170 0.930 . S
C178 C174 1.390 . S
C178 C177 1.381 . S
N179 C172 1.286 . S
N179 C175 1.413 . S
H180 C185 0.930 . S
H181 C188 0.930 . S
H182 C190 0.930 1_554 S
H183 C184 1.016 . S
C184 H183 1.016 . S
C184 N191 1.286 . S
C185 H180 0.930 . S
C185 C186 1.397 . S
C185 C187 1.361 . S
C186 C185 1.397 . S
C186 C190 1.390 . S
C187 C185 1.361 . S
C187 C188 1.393 . S
C187 N191 1.413 . S
C188 H181 0.930 . S
C188 C187 1.393 . S
C188 C189 1.399 . S
C189 C188 1.399 . S
C189 C190 1.381 . S
C190 H182 0.930 1_556 S
C190 C186 1.390 . S
C190 C189 1.381 . S
N191 C184 1.286 . S
N191 C187 1.413 . S
Mn192 O197 2.095 . S
Mn192 O207 2.162 . S
Mn192 O208 2.297 . S
Mn192 O216 2.385 . S
Mn192 O217 2.209 1_554 S
Mn192 O218 2.094 . S
Mn193 O198 2.121 . S
Mn193 N200 2.257 . S
Mn193 N209 2.282 . S
Mn193 O217 2.215 . S
Mn193 O219 2.117 . S
C194 O216 1.234 1_556 S
C194 O217 1.283 . S
C195 O207 1.281 . S
C195 O208 1.236 . S
C196 O218 1.240 . S
C196 O219 1.264 1_554 S
O197 Mn192 2.095 . S
O197 C206 1.250 . S
O198 Mn193 2.121 . S
O198 C206 1.258 1_556 S
C199 N200 1.326 . S
C199 C203 1.460 . S
C199 H205 0.929 . S
N200 Mn193 2.257 . S
N200 C199 1.326 . S
N200 C204 1.362 . S
C201 C202 1.258 . S
C201 C204 1.431 . S
C201 C221 1.449 . S
C202 C201 1.258 . S
C202 C203 1.477 . S
C202 H222 0.931 . S
C203 C199 1.460 . S
C203 C202 1.477 . S
C203 H223 0.930 . S
C204 N200 1.362 . S
C204 C201 1.431 . S
C204 C214 1.476 . S
H205 C199 0.929 . S
C206 O197 1.250 . S
C206 O198 1.258 1_554 S
O207 Mn192 2.162 . S
O207 C195 1.281 . S
O208 Mn192 2.297 . S
O208 C195 1.236 . S
N209 Mn193 2.282 . S
N209 C210 1.328 . S
N209 C214 1.318 . S
C210 N209 1.328 . S
C210 C211 1.457 . S
C210 H215 0.929 . S
C211 C210 1.457 . S
C211 C212 1.291 . S
C211 H224 0.931 . S
C212 C211 1.291 . S
C212 C213 1.373 . S
C212 H225 0.929 . S
C213 C212 1.373 . S
C213 C214 1.396 . S
C213 C220 1.403 . S
C214 C204 1.476 . S
C214 N209 1.318 . S
C214 C213 1.396 . S
H215 C210 0.929 . S
O216 Mn192 2.385 . S
O216 C194 1.234 1_554 S
O217 Mn192 2.209 1_556 S
O217 Mn193 2.215 . S
O217 C194 1.283 . S
O218 Mn192 2.094 . S
O218 C196 1.240 . S
O219 Mn193 2.117 . S
O219 C196 1.264 1_556 S
C220 C213 1.403 . S
C220 C221 1.399 . S
C220 H226 0.929 . S
C221 C201 1.449 . S
C221 C220 1.399 . S
C221 H227 0.930 . S
H222 C202 0.931 . S
H223 C203 0.930 . S
H224 C211 0.931 . S
H225 C212 0.929 . S
H226 C220 0.929 . S
H227 C221 0.930 . S
Mn228 O233 2.095 . S
Mn228 O243 2.162 . S
Mn228 O244 2.297 . S
Mn228 O252 2.385 . S
Mn228 O253 2.209 . S
Mn228 O254 2.094 . S
Mn229 O234 2.121 . S
Mn229 N236 2.257 . S
Mn229 N245 2.282 . S
Mn229 O253 2.215 . S
Mn229 O255 2.117 . S
C230 O252 1.234 . S
C230 O253 1.283 . S
C231 O243 1.281 . S
C231 O244 1.236 . S
C232 O254 1.240 . S
C232 O255 1.264 . S
O233 Mn228 2.095 . S
O233 C242 1.250 . S
O234 Mn229 2.121 . S
O234 C242 1.258 . S
C235 N236 1.326 . S
C235 C239 1.460 . S
C235 H241 0.929 . S
N236 Mn229 2.257 . S
N236 C235 1.326 . S
N236 C240 1.362 . S
C237 C238 1.258 . S
C237 C240 1.431 . S
C237 C257 1.449 . S
C238 C237 1.258 . S
C238 C239 1.477 . S
C238 H258 0.931 . S
C239 C235 1.460 . S
C239 C238 1.477 . S
C239 H259 0.930 . S
C240 N236 1.362 . S
C240 C237 1.431 . S
C240 C250 1.476 . S
H241 C235 0.929 . S
C242 O233 1.250 . S
C242 O234 1.258 . S
O243 Mn228 2.162 . S
O243 C231 1.281 . S
O244 Mn228 2.297 . S
O244 C231 1.236 . S
N245 Mn229 2.282 . S
N245 C246 1.328 . S
N245 C250 1.318 . S
C246 N245 1.328 . S
C246 C247 1.457 . S
C246 H251 0.929 . S
C247 C246 1.457 . S
C247 C248 1.291 . S
C247 H260 0.931 . S
C248 C247 1.291 . S
C248 C249 1.373 . S
C248 H261 0.929 . S
C249 C248 1.373 . S
C249 C250 1.396 . S
C249 C256 1.403 . S
C250 C240 1.476 . S
C250 N245 1.318 . S
C250 C249 1.396 . S
H251 C246 0.929 . S
O252 Mn228 2.385 . S
O252 C230 1.234 . S
O253 Mn228 2.209 . S
O253 Mn229 2.215 . S
O253 C230 1.283 . S
O254 Mn228 2.094 . S
O254 C232 1.240 . S
O255 Mn229 2.117 . S
O255 C232 1.264 . S
C256 C249 1.403 . S
C256 C257 1.399 . S
C256 H262 0.929 . S
C257 C237 1.449 . S
C257 C256 1.399 . S
C257 H263 0.930 . S
H258 C238 0.931 . S
H259 C239 0.930 . S
H260 C247 0.931 . S
H261 C248 0.929 . S
H262 C256 0.929 . S
H263 C257 0.930 . S
Mn264 O269 2.095 1_554 S
Mn264 O279 2.162 . S
Mn264 O280 2.297 1_554 S
Mn264 O288 2.385 . S
Mn264 O289 2.209 1_554 S
Mn264 O290 2.094 . S
Mn265 O270 2.121 . S
Mn265 N272 2.257 . S
Mn265 N281 2.272 1_556 S
Mn265 O289 2.215 . S
Mn265 O291 2.117 1_556 S
C266 O288 1.234 . S
C266 O289 1.283 1_554 S
C267 O279 1.281 . S
C267 O280 1.236 1_554 S
C268 O290 1.240 . S
C268 O291 1.264 . S
O269 Mn264 2.095 1_556 S
O269 C278 1.250 . S
O270 Mn265 2.121 . S
O270 C278 1.258 . S
C271 N272 1.326 . S
C271 C275 1.460 . S
C271 H277 0.929 . S
N272 Mn265 2.257 . S
N272 C271 1.326 . S
N272 C276 1.362 . S
C273 C274 1.258 . S
C273 C276 1.431 . S
C273 C293 1.449 . S
C274 C273 1.258 . S
C274 C275 1.477 . S
C274 H294 0.931 . S
C275 C271 1.460 . S
C275 C274 1.477 . S
C275 H295 0.930 . S
C276 N272 1.362 . S
C276 C273 1.431 . S
C276 C286 1.476 . S
H277 C271 0.929 . S
C278 O269 1.250 . S
C278 O270 1.258 . S
O279 Mn264 2.162 . S
O279 C267 1.281 . S
O280 Mn264 2.297 1_556 S
O280 C267 1.236 1_556 S
N281 Mn265 2.272 1_554 S
N281 C282 1.349 . S
N281 C286 1.305 1_554 S
C282 N281 1.349 . S
C282 C283 1.457 . S
C282 H287 0.929 . S
C283 C282 1.457 . S
C283 C284 1.291 . S
C283 H296 0.931 . S
C284 C283 1.291 . S
C284 C285 1.373 1_554 S
C284 H297 0.929 . S
C285 C284 1.373 1_556 S
C285 C286 1.396 . S
C285 C292 1.403 . S
C286 C276 1.476 . S
C286 N281 1.305 1_556 S
C286 C285 1.396 . S
H287 C282 0.929 . S
O288 Mn264 2.385 . S
O288 C266 1.234 . S
O289 Mn264 2.209 1_556 S
O289 Mn265 2.215 . S
O289 C266 1.283 1_556 S
O290 Mn264 2.094 . S
O290 C268 1.240 . S
O291 Mn265 2.117 1_554 S
O291 C268 1.264 . S
C292 C285 1.403 . S
C292 C293 1.399 . S
C292 H298 0.929 . S
C293 C273 1.449 . S
C293 C292 1.399 . S
C293 H299 0.930 . S
H294 C274 0.931 . S
H295 C275 0.930 . S
H296 C283 0.931 . S
H297 C284 0.929 . S
H298 C292 0.929 . S
H299 C293 0.930 . S
Mn300 O305 2.095 . S
Mn300 O315 2.162 . S
Mn300 O316 2.297 . S
Mn300 O324 2.385 . S
Mn300 O325 2.209 1_545 S
Mn300 O326 2.094 . S
Mn301 O306 2.121 . S
Mn301 N308 2.257 . S
Mn301 N317 2.282 . S
Mn301 O325 2.215 . S
Mn301 O327 2.117 1_565 S
C302 O324 1.234 1_565 S
C302 O325 1.283 . S
C303 O315 1.281 . S
C303 O316 1.236 . S
C304 O326 1.240 . S
C304 O327 1.264 . S
O305 Mn300 2.095 . S
O305 C314 1.250 . S
O306 Mn301 2.121 . S
O306 C314 1.258 1_565 S
C307 N308 1.326 . S
C307 C311 1.460 . S
C307 H313 0.929 . S
N308 Mn301 2.257 . S
N308 C307 1.326 . S
N308 C312 1.362 . S
C309 C310 1.258 . S
C309 C312 1.431 . S
C309 C329 1.449 . S
C310 C309 1.258 . S
C310 C311 1.477 . S
C310 H330 0.931 . S
C311 C307 1.460 . S
C311 C310 1.477 . S
C311 H331 0.930 . S
C312 N308 1.362 . S
C312 C309 1.431 . S
C312 C322 1.476 . S
H313 C307 0.929 . S
C314 O305 1.250 . S
C314 O306 1.258 1_545 S
O315 Mn300 2.162 . S
O315 C303 1.281 . S
O316 Mn300 2.297 . S
O316 C303 1.236 . S
N317 Mn301 2.282 . S
N317 C318 1.328 . S
N317 C322 1.318 . S
C318 N317 1.328 . S
C318 C319 1.457 . S
C318 H323 0.929 . S
C319 C318 1.457 . S
C319 C320 1.291 . S
C319 H332 0.931 . S
C320 C319 1.291 . S
C320 C321 1.373 . S
C320 H333 0.929 . S
C321 C320 1.373 . S
C321 C322 1.396 . S
C321 C328 1.403 . S
C322 C312 1.476 . S
C322 N317 1.318 . S
C322 C321 1.396 . S
H323 C318 0.929 . S
O324 Mn300 2.385 . S
O324 C302 1.234 1_545 S
O325 Mn300 2.209 1_565 S
O325 Mn301 2.215 . S
O325 C302 1.283 . S
O326 Mn300 2.094 . S
O326 C304 1.240 . S
O327 Mn301 2.117 1_545 S
O327 C304 1.264 . S
C328 C321 1.403 . S
C328 C329 1.399 . S
C328 H334 0.929 . S
C329 C309 1.449 . S
C329 C328 1.399 . S
C329 H335 0.930 . S
H330 C310 0.931 . S
H331 C311 0.930 . S
H332 C319 0.931 . S
H333 C320 0.929 . S
H334 C328 0.929 . S
H335 C329 0.930 . S
Mn336 O341 2.095 . S
Mn336 O351 2.162 . S
Mn336 O352 2.297 . S
Mn336 O360 2.385 . S
Mn336 O361 2.209 . S
Mn336 O362 2.094 . S
Mn337 O342 2.121 . S
Mn337 N344 2.257 . S
Mn337 N353 2.282 . S
Mn337 O361 2.215 . S
Mn337 O363 2.117 . S
C338 O360 1.234 . S
C338 O361 1.283 . S
C339 O351 1.281 . S
C339 O352 1.236 . S
C340 O362 1.240 . S
C340 O363 1.264 . S
O341 Mn336 2.095 . S
O341 C350 1.250 . S
O342 Mn337 2.121 . S
O342 C350 1.258 . S
C343 N344 1.326 . S
C343 C347 1.460 . S
C343 H349 0.929 . S
N344 Mn337 2.257 . S
N344 C343 1.326 . S
N344 C348 1.362 . S
C345 C346 1.258 . S
C345 C348 1.431 . S
C345 C365 1.449 . S
C346 C345 1.258 . S
C346 C347 1.477 . S
C346 H366 0.931 . S
C347 C343 1.460 . S
C347 C346 1.477 . S
C347 H367 0.930 . S
C348 N344 1.362 . S
C348 C345 1.431 . S
C348 C358 1.476 . S
H349 C343 0.929 . S
C350 O341 1.250 . S
C350 O342 1.258 . S
O351 Mn336 2.162 . S
O351 C339 1.281 . S
O352 Mn336 2.297 . S
O352 C339 1.236 . S
N353 Mn337 2.282 . S
N353 C354 1.328 . S
N353 C358 1.318 . S
C354 N353 1.328 . S
C354 C355 1.457 . S
C354 H359 0.929 . S
C355 C354 1.457 . S
C355 C356 1.291 . S
C355 H368 0.931 . S
C356 C355 1.291 . S
C356 C357 1.373 . S
C356 H369 0.929 . S
C357 C356 1.373 . S
C357 C358 1.396 . S
C357 C364 1.403 . S
C358 C348 1.476 . S
C358 N353 1.318 . S
C358 C357 1.396 . S
H359 C354 0.929 . S
O360 Mn336 2.385 . S
O360 C338 1.234 . S
O361 Mn336 2.209 . S
O361 Mn337 2.215 . S
O361 C338 1.283 . S
O362 Mn336 2.094 . S
O362 C340 1.240 . S
O363 Mn337 2.117 . S
O363 C340 1.264 . S
C364 C357 1.403 . S
C364 C365 1.399 . S
C364 H370 0.929 . S
C365 C345 1.449 . S
C365 C364 1.399 . S
C365 H371 0.930 . S
H366 C346 0.931 . S
H367 C347 0.930 . S
H368 C355 0.931 . S
H369 C356 0.929 . S
H370 C364 0.929 . S
H371 C365 0.930 . S
Mn372 O377 2.095 . S
Mn372 O387 2.162 . S
Mn372 O388 2.297 . S
Mn372 O396 2.385 . S
Mn372 O397 2.209 . S
Mn372 O398 2.094 . S
Mn373 O378 2.121 . S
Mn373 N380 2.257 . S
Mn373 N389 2.282 . S
Mn373 O397 2.215 . S
Mn373 O399 2.117 . S
C374 O396 1.234 . S
C374 O397 1.283 . S
C375 O387 1.281 . S
C375 O388 1.236 . S
C376 O398 1.240 . S
C376 O399 1.264 . S
O377 Mn372 2.095 . S
O377 C386 1.250 . S
O378 Mn373 2.121 . S
O378 C386 1.258 . S
C379 N380 1.326 . S
C379 C383 1.460 . S
C379 H385 0.929 . S
N380 Mn373 2.257 . S
N380 C379 1.326 . S
N380 C384 1.362 . S
C381 C382 1.258 . S
C381 C384 1.431 . S
C381 C401 1.449 . S
C382 C381 1.258 . S
C382 C383 1.477 . S
C382 H402 0.931 . S
C383 C379 1.460 . S
C383 C382 1.477 . S
C383 H403 0.930 . S
C384 N380 1.362 . S
C384 C381 1.431 . S
C384 C394 1.476 . S
H385 C379 0.929 . S
C386 O377 1.250 . S
C386 O378 1.258 . S
O387 Mn372 2.162 . S
O387 C375 1.281 . S
O388 Mn372 2.297 . S
O388 C375 1.236 . S
N389 Mn373 2.282 . S
N389 C390 1.328 . S
N389 C394 1.318 . S
C390 N389 1.328 . S
C390 C391 1.457 . S
C390 H395 0.929 . S
C391 C390 1.457 . S
C391 C392 1.291 . S
C391 H404 0.931 . S
C392 C391 1.291 . S
C392 C393 1.373 . S
C392 H405 0.929 . S
C393 C392 1.373 . S
C393 C394 1.396 . S
C393 C400 1.403 . S
C394 C384 1.476 . S
C394 N389 1.318 . S
C394 C393 1.396 . S
H395 C390 0.929 . S
O396 Mn372 2.385 . S
O396 C374 1.234 . S
O397 Mn372 2.209 . S
O397 Mn373 2.215 . S
O397 C374 1.283 . S
O398 Mn372 2.094 . S
O398 C376 1.240 . S
O399 Mn373 2.117 . S
O399 C376 1.264 . S
C400 C393 1.403 . S
C400 C401 1.399 . S
C400 H406 0.929 . S
C401 C381 1.449 . S
C401 C400 1.399 . S
C401 H407 0.930 . S
H402 C382 0.931 . S
H403 C383 0.930 . S
H404 C391 0.931 . S
H405 C392 0.929 . S
H406 C400 0.929 . S
H407 C401 0.930 . S
Mn408 O413 2.095 . S
Mn408 O423 2.162 . S
Mn408 O424 2.297 . S
Mn408 O432 2.385 . S
Mn408 O433 2.209 . S
Mn408 O434 2.094 . S
Mn409 O414 2.121 . S
Mn409 N416 2.257 . S
Mn409 N425 2.282 . S
Mn409 O433 2.215 . S
Mn409 O435 2.117 . S
C410 O432 1.234 . S
C410 O433 1.283 . S
C411 O423 1.281 . S
C411 O424 1.236 . S
C412 O434 1.240 . S
C412 O435 1.264 . S
O413 Mn408 2.095 . S
O413 C422 1.250 . S
O414 Mn409 2.121 . S
O414 C422 1.258 . S
C415 N416 1.326 . S
C415 C419 1.460 . S
C415 H421 0.929 . S
N416 Mn409 2.257 . S
N416 C415 1.326 . S
N416 C420 1.362 . S
C417 C418 1.258 . S
C417 C420 1.431 . S
C417 C437 1.449 . S
C418 C417 1.258 . S
C418 C419 1.477 . S
C418 H438 0.931 . S
C419 C415 1.460 . S
C419 C418 1.477 . S
C419 H439 0.930 . S
C420 N416 1.362 . S
C420 C417 1.431 . S
C420 C430 1.476 . S
H421 C415 0.929 . S
C422 O413 1.250 . S
C422 O414 1.258 . S
O423 Mn408 2.162 . S
O423 C411 1.281 . S
O424 Mn408 2.297 . S
O424 C411 1.236 . S
N425 Mn409 2.282 . S
N425 C426 1.328 . S
N425 C430 1.318 . S
C426 N425 1.328 . S
C426 C427 1.457 . S
C426 H431 0.929 . S
C427 C426 1.457 . S
C427 C428 1.291 . S
C427 H440 0.931 . S
C428 C427 1.291 . S
C428 C429 1.373 . S
C428 H441 0.929 . S
C429 C428 1.373 . S
C429 C430 1.396 . S
C429 C436 1.403 . S
C430 C420 1.476 . S
C430 N425 1.318 . S
C430 C429 1.396 . S
H431 C426 0.929 . S
O432 Mn408 2.385 . S
O432 C410 1.234 . S
O433 Mn408 2.209 . S
O433 Mn409 2.215 . S
O433 C410 1.283 . S
O434 Mn408 2.094 . S
O434 C412 1.240 . S
O435 Mn409 2.117 . S
O435 C412 1.264 . S
C436 C429 1.403 . S
C436 C437 1.399 . S
C436 H442 0.929 . S
C437 C417 1.449 . S
C437 C436 1.399 . S
C437 H443 0.930 . S
H438 C418 0.931 . S
H439 C419 0.930 . S
H440 C427 0.931 . S
H441 C428 0.929 . S
H442 C436 0.929 . S
H443 C437 0.930 . S
Mn444 O449 2.095 . S
Mn444 O459 2.162 . S
Mn444 O460 2.297 . S
Mn444 O468 2.385 1_565 S
Mn444 O469 2.209 1_565 S
Mn444 O470 2.094 . S
Mn445 O450 2.121 . S
Mn445 N452 2.257 . S
Mn445 N461 2.282 . S
Mn445 O469 2.215 . S
Mn445 O471 2.117 . S
C446 O468 1.234 . S
C446 O469 1.283 . S
C447 O459 1.281 . S
C447 O460 1.236 . S
C448 O470 1.240 . S
C448 O471 1.264 1_565 S
O449 Mn444 2.095 . S
O449 C458 1.250 1_565 S
O450 Mn445 2.121 . S
O450 C458 1.258 . S
C451 N452 1.326 . S
C451 C455 1.460 . S
C451 H457 0.929 . S
N452 Mn445 2.257 . S
N452 C451 1.326 . S
N452 C456 1.362 . S
C453 C454 1.258 . S
C453 C456 1.431 . S
C453 C473 1.449 . S
C454 C453 1.258 . S
C454 C455 1.477 . S
C454 H474 0.931 . S
C455 C451 1.460 . S
C455 C454 1.477 . S
C455 H475 0.930 . S
C456 N452 1.362 . S
C456 C453 1.431 . S
C456 C466 1.476 . S
H457 C451 0.929 . S
C458 O449 1.250 1_545 S
C458 O450 1.258 . S
O459 Mn444 2.162 . S
O459 C447 1.281 . S
O460 Mn444 2.297 . S
O460 C447 1.236 . S
N461 Mn445 2.282 . S
N461 C462 1.328 . S
N461 C466 1.318 . S
C462 N461 1.328 . S
C462 C463 1.457 . S
C462 H467 0.929 . S
C463 C462 1.457 . S
C463 C464 1.291 . S
C463 H476 0.931 . S
C464 C463 1.291 . S
C464 C465 1.373 . S
C464 H477 0.929 . S
C465 C464 1.373 . S
C465 C466 1.396 . S
C465 C472 1.403 . S
C466 C456 1.476 . S
C466 N461 1.318 . S
C466 C465 1.396 . S
H467 C462 0.929 . S
O468 Mn444 2.385 1_545 S
O468 C446 1.234 . S
O469 Mn444 2.209 1_545 S
O469 Mn445 2.215 . S
O469 C446 1.283 . S
O470 Mn444 2.094 . S
O470 C448 1.240 . S
O471 Mn445 2.117 . S
O471 C448 1.264 1_545 S
C472 C465 1.403 . S
C472 C473 1.399 . S
C472 H478 0.929 . S
C473 C453 1.449 . S
C473 C472 1.399 . S
C473 H479 0.930 . S
H474 C454 0.931 . S
H475 C455 0.930 . S
H476 C463 0.931 . S
H477 C464 0.929 . S
H478 C472 0.929 . S
H479 C473 0.930 . S
Mn480 O485 2.095 . S
Mn480 O495 2.162 . S
Mn480 O496 2.297 . S
Mn480 O504 2.385 1_455 S
Mn480 O505 2.209 1_455 S
Mn480 O506 2.094 . S
Mn481 O486 2.121 . S
Mn481 N488 2.257 . S
Mn481 N497 2.282 . S
Mn481 O505 2.215 . S
Mn481 O507 2.117 . S
C482 O504 1.234 . S
C482 O505 1.283 . S
C483 O495 1.281 . S
C483 O496 1.236 . S
C484 O506 1.240 . S
C484 O507 1.264 1_455 S
O485 Mn480 2.095 . S
O485 C494 1.281 . S
O486 Mn481 2.121 . S
O486 C494 1.222 1_655 S
C487 N488 1.326 . S
C487 C491 1.460 . S
C487 H493 0.929 . S
N488 Mn481 2.257 . S
N488 C487 1.326 . S
N488 C492 1.362 . S
C489 C490 1.258 . S
C489 C492 1.431 . S
C489 C509 1.449 . S
C490 C489 1.258 . S
C490 C491 1.477 . S
C490 H510 0.931 . S
C491 C487 1.460 . S
C491 C490 1.477 . S
C491 H511 0.930 . S
C492 N488 1.362 . S
C492 C489 1.431 . S
C492 C502 1.476 . S
H493 C487 0.929 . S
C494 O485 1.281 . S
C494 O486 1.222 1_455 S
O495 Mn480 2.162 . S
O495 C483 1.281 . S
O496 Mn480 2.297 . S
O496 C483 1.236 . S
N497 Mn481 2.282 . S
N497 C498 1.328 . S
N497 C502 1.318 . S
C498 N497 1.328 . S
C498 C499 1.457 . S
C498 H503 0.929 . S
C499 C498 1.457 . S
C499 C500 1.291 . S
C499 H512 0.931 . S
C500 C499 1.291 . S
C500 C501 1.373 . S
C500 H513 0.929 . S
C501 C500 1.373 . S
C501 C502 1.396 . S
C501 C508 1.403 . S
C502 C492 1.476 . S
C502 N497 1.318 . S
C502 C501 1.396 . S
H503 C498 0.929 . S
O504 Mn480 2.385 1_655 S
O504 C482 1.234 . S
O505 Mn480 2.209 1_655 S
O505 Mn481 2.215 . S
O505 C482 1.283 . S
O506 Mn480 2.094 . S
O506 C484 1.240 . S
O507 Mn481 2.117 . S
O507 C484 1.264 1_655 S
C508 C501 1.403 . S
C508 C509 1.399 . S
C508 H514 0.929 . S
C509 C489 1.449 . S
C509 C508 1.399 . S
C509 H515 0.930 . S
H510 C490 0.931 . S
H511 C491 0.930 . S
H512 C499 0.931 . S
H513 C500 0.929 . S
H514 C508 0.929 . S
H515 C509 0.930 . S
Mn516 O521 2.095 . S
Mn516 O531 2.162 . S
Mn516 O532 2.297 . S
Mn516 O540 2.385 . S
Mn516 O541 2.209 . S
Mn516 O542 2.094 . S
Mn517 O522 2.121 . S
Mn517 N524 2.257 . S
Mn517 N533 2.282 . S
Mn517 O541 2.215 . S
Mn517 O543 2.117 . S
C518 O540 1.234 . S
C518 O541 1.283 . S
C519 O531 1.281 . S
C519 O532 1.236 . S
C520 O542 1.240 . S
C520 O543 1.264 . S
O521 Mn516 2.095 . S
O521 C530 1.250 . S
O522 Mn517 2.121 . S
O522 C530 1.258 . S
C523 N524 1.326 . S
C523 C527 1.460 . S
C523 H529 0.929 . S
N524 Mn517 2.257 . S
N524 C523 1.326 . S
N524 C528 1.362 . S
C525 C526 1.258 . S
C525 C528 1.431 . S
C525 C545 1.449 . S
C526 C525 1.258 . S
C526 C527 1.477 . S
C526 H546 0.931 . S
C527 C523 1.460 . S
C527 C526 1.477 . S
C527 H547 0.930 . S
C528 N524 1.362 . S
C528 C525 1.431 . S
C528 C538 1.476 . S
H529 C523 0.929 . S
C530 O521 1.250 . S
C530 O522 1.258 . S
O531 Mn516 2.162 . S
O531 C519 1.281 . S
O532 Mn516 2.297 . S
O532 C519 1.236 . S
N533 Mn517 2.282 . S
N533 C534 1.328 . S
N533 C538 1.318 . S
C534 N533 1.328 . S
C534 C535 1.457 . S
C534 H539 0.929 . S
C535 C534 1.457 . S
C535 C536 1.291 . S
C535 H548 0.931 . S
C536 C535 1.291 . S
C536 C537 1.373 . S
C536 H549 0.929 . S
C537 C536 1.373 . S
C537 C538 1.396 . S
C537 C544 1.403 . S
C538 C528 1.476 . S
C538 N533 1.318 . S
C538 C537 1.396 . S
H539 C534 0.929 . S
O540 Mn516 2.385 . S
O540 C518 1.234 . S
O541 Mn516 2.209 . S
O541 Mn517 2.215 . S
O541 C518 1.283 . S
O542 Mn516 2.094 . S
O542 C520 1.240 . S
O543 Mn517 2.117 . S
O543 C520 1.264 . S
C544 C537 1.403 . S
C544 C545 1.399 . S
C544 H550 0.929 . S
C545 C525 1.449 . S
C545 C544 1.399 . S
C545 H551 0.930 . S
H546 C526 0.931 . S
H547 C527 0.930 . S
H548 C535 0.931 . S
H549 C536 0.929 . S
H550 C544 0.929 . S
H551 C545 0.930 . S
Mn552 O557 2.095 . S
Mn552 O567 2.162 . S
Mn552 O568 2.297 . S
Mn552 O576 2.385 . S
Mn552 O577 2.211 1_455 S
Mn552 O578 2.094 . S
Mn553 O558 2.121 . S
Mn553 N560 2.257 . S
Mn553 N569 2.282 1_655 S
Mn553 O577 2.214 . S
Mn553 O579 2.117 1_655 S
C554 O576 1.234 . S
C554 O577 1.286 1_455 S
C555 O567 1.281 . S
C555 O568 1.236 . S
C556 O578 1.240 . S
C556 O579 1.264 . S
O557 Mn552 2.095 . S
O557 C566 1.250 1_455 S
O558 Mn553 2.121 . S
O558 C566 1.258 . S
C559 N560 1.326 . S
C559 C563 1.460 . S
C559 H565 0.929 . S
N560 Mn553 2.257 . S
N560 C559 1.326 . S
N560 C564 1.362 . S
C561 C562 1.258 . S
C561 C564 1.431 . S
C561 C581 1.449 . S
C562 C561 1.258 . S
C562 C563 1.477 . S
C562 H582 0.931 . S
C563 C559 1.460 . S
C563 C562 1.477 . S
C563 H583 0.930 . S
C564 N560 1.362 . S
C564 C561 1.431 . S
C564 C574 1.476 . S
H565 C559 0.929 . S
C566 O557 1.250 1_655 S
C566 O558 1.258 . S
O567 Mn552 2.162 . S
O567 C555 1.281 . S
O568 Mn552 2.297 . S
O568 C555 1.236 . S
N569 Mn553 2.282 1_455 S
N569 C570 1.328 . S
N569 C574 1.318 1_455 S
C570 N569 1.328 . S
C570 C571 1.457 . S
C570 H575 0.929 . S
C571 C570 1.457 . S
C571 C572 1.291 . S
C571 H584 0.931 . S
C572 C571 1.291 . S
C572 C573 1.373 1_455 S
C572 H585 0.929 . S
C573 C572 1.373 1_655 S
C573 C574 1.396 . S
C573 C580 1.403 . S
C574 C564 1.476 . S
C574 N569 1.318 1_655 S
C574 C573 1.396 . S
H575 C570 0.929 . S
O576 Mn552 2.385 . S
O576 C554 1.234 . S
O577 Mn552 2.211 1_655 S
O577 Mn553 2.214 . S
O577 C554 1.286 1_655 S
O578 Mn552 2.094 . S
O578 C556 1.240 . S
O579 Mn553 2.117 1_455 S
O579 C556 1.264 . S
C580 C573 1.403 . S
C580 C581 1.399 . S
C580 H586 0.929 . S
C581 C561 1.449 . S
C581 C580 1.399 . S
C581 H587 0.930 . S
H582 C562 0.931 . S
H583 C563 0.930 . S
H584 C571 0.931 . S
H585 C572 0.929 . S
H586 C580 0.929 . S
H587 C581 0.930 . S
Mn588 O593 2.095 . S
Mn588 O603 2.162 . S
Mn588 O604 2.297 . S
Mn588 O612 2.385 . S
Mn588 O613 2.209 . S
Mn588 O614 2.094 . S
Mn589 O594 2.121 . S
Mn589 N596 2.257 . S
Mn589 N605 2.282 . S
Mn589 O613 2.215 . S
Mn589 O615 2.117 . S
C590 O612 1.234 . S
C590 O613 1.283 . S
C591 O603 1.281 . S
C591 O604 1.236 . S
C592 O614 1.240 . S
C592 O615 1.264 . S
O593 Mn588 2.095 . S
O593 C602 1.250 . S
O594 Mn589 2.121 . S
O594 C602 1.258 . S
C595 N596 1.326 . S
C595 C599 1.460 . S
C595 H601 0.929 . S
N596 Mn589 2.257 . S
N596 C595 1.326 . S
N596 C600 1.362 . S
C597 C598 1.258 . S
C597 C600 1.431 . S
C597 C617 1.449 . S
C598 C597 1.258 . S
C598 C599 1.477 . S
C598 H618 0.931 . S
C599 C595 1.460 . S
C599 C598 1.477 . S
C599 H619 0.930 . S
C600 N596 1.362 . S
C600 C597 1.431 . S
C600 C610 1.476 . S
H601 C595 0.929 . S
C602 O593 1.250 . S
C602 O594 1.258 . S
O603 Mn588 2.162 . S
O603 C591 1.281 . S
O604 Mn588 2.297 . S
O604 C591 1.236 . S
N605 Mn589 2.282 . S
N605 C606 1.328 . S
N605 C610 1.318 . S
C606 N605 1.328 . S
C606 C607 1.457 . S
C606 H611 0.929 . S
C607 C606 1.457 . S
C607 C608 1.291 . S
C607 H620 0.931 . S
C608 C607 1.291 . S
C608 C609 1.373 . S
C608 H621 0.929 . S
C609 C608 1.373 . S
C609 C610 1.396 . S
C609 C616 1.403 . S
C610 C600 1.476 . S
C610 N605 1.318 . S
C610 C609 1.396 . S
H611 C606 0.929 . S
O612 Mn588 2.385 . S
O612 C590 1.234 . S
O613 Mn588 2.209 . S
O613 Mn589 2.215 . S
O613 C590 1.283 . S
O614 Mn588 2.094 . S
O614 C592 1.240 . S
O615 Mn589 2.117 . S
O615 C592 1.264 . S
C616 C609 1.403 . S
C616 C617 1.399 . S
C616 H622 0.929 . S
C617 C597 1.449 . S
C617 C616 1.399 . S
C617 H623 0.930 . S
H618 C598 0.931 . S
H619 C599 0.930 . S
H620 C607 0.931 . S
H621 C608 0.929 . S
H622 C616 0.929 . S
H623 C617 0.930 . S
C624 C625 1.391 . S
C624 C626 1.394 . S
C624 H640 0.931 . S
C625 C624 1.391 . S
C625 C629 1.376 . S
C626 C624 1.394 . S
C626 C627 1.369 . S
C626 C630 1.531 . S
C627 C626 1.369 . S
C627 C628 1.410 . S
C627 C635 1.503 . S
C628 C627 1.410 . S
C628 C629 1.392 . S
C628 C631 1.511 . S
C629 C625 1.376 . S
C629 C628 1.392 . S
C629 H641 0.929 . S
C630 C626 1.531 . S
C630 H642 0.960 . S
C630 H643 0.962 . S
C630 H644 0.960 . S
C631 C628 1.511 . S
C631 H645 0.961 . S
C631 H646 0.961 . S
C631 H647 0.961 . S
C632 C633 1.370 . S
C632 C634 1.363 . S
C632 H648 0.931 . S
C633 C632 1.370 . S
C633 C637 1.408 . S
C634 C632 1.363 . S
C634 C635 1.370 . S
C634 C638 1.524 . S
C635 C627 1.503 . S
C635 C634 1.370 . S
C635 C636 1.403 . S
C636 C635 1.403 . S
C636 C637 1.404 . S
C636 C639 1.539 . S
C637 C633 1.408 . S
C637 C636 1.404 . S
C637 H649 0.930 . S
C638 C634 1.524 . S
C638 H650 0.956 . S
C638 H651 0.961 . S
C638 H652 0.961 . S
C639 C636 1.539 . S
C639 H653 0.958 . S
C639 H654 0.961 . S
C639 H655 0.960 . S
H640 C624 0.931 . S
H641 C629 0.929 . S
H642 C630 0.960 . S
H643 C630 0.962 . S
H644 C630 0.960 . S
H645 C631 0.961 . S
H646 C631 0.961 . S
H647 C631 0.961 . S
H648 C632 0.931 . S
H649 C637 0.930 . S
H650 C638 0.956 . S
H651 C638 0.961 . S
H652 C638 0.961 . S
H653 C639 0.958 . S
H654 C639 0.961 . S
H655 C639 0.960 . S
C656 C657 1.391 . S
C656 C658 1.394 . S
C656 H672 0.931 . S
C657 C656 1.391 . S
C657 C661 1.376 . S
C658 C656 1.394 . S
C658 C659 1.369 . S
C658 C662 1.531 . S
C659 C658 1.369 . S
C659 C660 1.410 . S
C659 C667 1.503 . S
C660 C659 1.410 . S
C660 C661 1.392 . S
C660 C663 1.511 . S
C661 C657 1.376 . S
C661 C660 1.392 . S
C661 H673 0.929 . S
C662 C658 1.531 . S
C662 H674 0.960 . S
C662 H675 0.962 . S
C662 H676 0.960 . S
C663 C660 1.511 . S
C663 H677 0.961 . S
C663 H678 0.961 . S
C663 H679 0.961 . S
C664 C665 1.370 . S
C664 C666 1.363 . S
C664 H680 0.931 . S
C665 C664 1.370 . S
C665 C669 1.408 . S
C666 C664 1.363 . S
C666 C667 1.370 . S
C666 C670 1.524 . S
C667 C659 1.503 . S
C667 C666 1.370 . S
C667 C668 1.403 . S
C668 C667 1.403 . S
C668 C669 1.404 . S
C668 C671 1.539 . S
C669 C665 1.408 . S
C669 C668 1.404 . S
C669 H681 0.930 . S
C670 C666 1.524 . S
C670 H682 0.956 . S
C670 H683 0.961 . S
C670 H684 0.961 . S
C671 C668 1.539 . S
C671 H685 0.958 . S
C671 H686 0.961 . S
C671 H687 0.960 . S
H672 C656 0.931 . S
H673 C661 0.929 . S
H674 C662 0.960 . S
H675 C662 0.962 . S
H676 C662 0.960 . S
H677 C663 0.961 . S
H678 C663 0.961 . S
H679 C663 0.961 . S
H680 C664 0.931 . S
H681 C669 0.930 . S
H682 C670 0.956 . S
H683 C670 0.961 . S
H684 C670 0.961 . S
H685 C671 0.958 . S
H686 C671 0.961 . S
H687 C671 0.960 . S
C688 C689 1.391 . S
C688 C690 1.394 . S
C688 H704 0.931 . S
C689 C688 1.391 . S
C689 C693 1.376 . S
C690 C688 1.394 . S
C690 C691 1.369 . S
C690 C694 1.531 . S
C691 C690 1.369 . S
C691 C692 1.410 . S
C691 C699 1.503 . S
C692 C691 1.410 . S
C692 C693 1.392 . S
C692 C695 1.511 . S
C693 C689 1.376 . S
C693 C692 1.392 . S
C693 H705 0.929 . S
C694 C690 1.531 . S
C694 H706 0.960 . S
C694 H707 0.962 . S
C694 H708 0.960 . S
C695 C692 1.511 . S
C695 H709 0.961 . S
C695 H710 0.961 . S
C695 H711 0.961 . S
C696 C697 1.370 . S
C696 C698 1.363 . S
C696 H712 0.931 . S
C697 C696 1.370 . S
C697 C701 1.408 . S
C698 C696 1.363 . S
C698 C699 1.370 . S
C698 C702 1.524 . S
C699 C691 1.503 . S
C699 C698 1.370 . S
C699 C700 1.403 . S
C700 C699 1.403 . S
C700 C701 1.404 . S
C700 C703 1.539 . S
C701 C697 1.408 . S
C701 C700 1.404 . S
C701 H713 0.930 . S
C702 C698 1.524 . S
C702 H714 0.956 . S
C702 H715 0.961 . S
C702 H716 0.961 . S
C703 C700 1.539 . S
C703 H717 0.958 . S
C703 H718 0.961 . S
C703 H719 0.960 . S
H704 C688 0.931 . S
H705 C693 0.929 . S
H706 C694 0.960 . S
H707 C694 0.962 . S
H708 C694 0.960 . S
H709 C695 0.961 . S
H710 C695 0.961 . S
H711 C695 0.961 . S
H712 C696 0.931 . S
H713 C701 0.930 . S
H714 C702 0.956 . S
H715 C702 0.961 . S
H716 C702 0.961 . S
H717 C703 0.958 . S
H718 C703 0.961 . S
H719 C703 0.960 . S
C720 C721 1.391 1_545 S
C720 C722 1.394 . S
C720 H736 0.931 . S
C721 C720 1.391 1_565 S
C721 C725 1.376 . S
C722 C720 1.394 . S
C722 C723 1.369 . S
C722 C726 1.531 . S
C723 C722 1.369 . S
C723 C724 1.410 1_545 S
C723 C731 1.503 . S
C724 C723 1.410 1_565 S
C724 C725 1.392 . S
C724 C727 1.511 . S
C725 C721 1.376 . S
C725 C724 1.392 . S
C725 H737 0.929 . S
C726 C722 1.531 . S
C726 H738 0.960 . S
C726 H739 0.962 1_455 S
C726 H740 0.960 . S
C727 C724 1.511 . S
C727 H741 0.961 . S
C727 H742 0.961 . S
C727 H743 0.961 . S
C728 C729 1.370 . S
C728 C730 1.363 . S
C728 H744 0.931 . S
C729 C728 1.370 . S
C729 C733 1.443 . S
C730 C728 1.363 . S
C730 C731 1.370 1_655 S
C730 C734 1.524 1_545 S
C731 C723 1.503 . S
C731 C730 1.370 1_455 S
C731 C732 1.403 . S
C732 C731 1.403 . S
C732 C733 1.387 1_455 S
C732 C735 1.539 . S
C733 C729 1.443 . S
C733 C732 1.387 1_655 S
C733 H745 0.914 1_655 S
C734 C730 1.524 1_565 S
C734 H746 0.956 1_565 S
C734 H747 0.961 . S
C734 H748 0.961 . S
C735 C732 1.539 . S
C735 H749 0.958 . S
C735 H750 0.961 . S
C735 H751 0.960 . S
H736 C720 0.931 . S
H737 C725 0.929 . S
H738 C726 0.960 . S
H739 C726 0.962 1_655 S
H740 C726 0.960 . S
H741 C727 0.961 . S
H742 C727 0.961 . S
H743 C727 0.961 . S
H744 C728 0.931 . S
H745 C733 0.914 1_455 S
H746 C734 0.956 1_545 S
H747 C734 0.961 . S
H748 C734 0.961 . S
H749 C735 0.958 . S
H750 C735 0.961 . S
H751 C735 0.960 . S
C752 C753 1.391 . S
C752 C754 1.394 . S
C752 H768 0.931 . S
C753 C752 1.391 . S
C753 C757 1.376 . S
C754 C752 1.394 . S
C754 C755 1.369 . S
C754 C758 1.531 . S
C755 C754 1.369 . S
C755 C756 1.410 . S
C755 C763 1.503 . S
C756 C755 1.410 . S
C756 C757 1.392 . S
C756 C759 1.511 . S
C757 C753 1.376 . S
C757 C756 1.392 . S
C757 H769 0.929 . S
C758 C754 1.531 . S
C758 H770 0.960 . S
C758 H771 0.962 . S
C758 H772 0.960 . S
C759 C756 1.511 . S
C759 H773 0.961 . S
C759 H774 0.961 . S
C759 H775 0.961 . S
C760 C761 1.370 . S
C760 C762 1.363 . S
C760 H776 0.931 . S
C761 C760 1.370 . S
C761 C765 1.408 . S
C762 C760 1.363 . S
C762 C763 1.370 . S
C762 C766 1.524 . S
C763 C755 1.503 . S
C763 C762 1.370 . S
C763 C764 1.403 . S
C764 C763 1.403 . S
C764 C765 1.404 . S
C764 C767 1.539 . S
C765 C761 1.408 . S
C765 C764 1.404 . S
C765 H777 0.930 . S
C766 C762 1.524 . S
C766 H778 0.956 . S
C766 H779 0.961 . S
C766 H780 0.961 . S
C767 C764 1.539 . S
C767 H781 0.958 . S
C767 H782 0.961 . S
C767 H783 0.960 . S
H768 C752 0.931 . S
H769 C757 0.929 . S
H770 C758 0.960 . S
H771 C758 0.962 . S
H772 C758 0.960 . S
H773 C759 0.961 . S
H774 C759 0.961 . S
H775 C759 0.961 . S
H776 C760 0.931 . S
H777 C765 0.930 . S
H778 C766 0.956 . S
H779 C766 0.961 . S
H780 C766 0.961 . S
H781 C767 0.958 . S
H782 C767 0.961 . S
H783 C767 0.960 . S
C784 C785 1.391 . S
C784 C786 1.394 . S
C784 H800 0.931 . S
C785 C784 1.391 . S
C785 C789 1.376 . S
C786 C784 1.394 . S
C786 C787 1.369 . S
C786 C790 1.531 . S
C787 C786 1.369 . S
C787 C788 1.410 . S
C787 C795 1.503 . S
C788 C787 1.410 . S
C788 C789 1.392 . S
C788 C791 1.511 . S
C789 C785 1.376 . S
C789 C788 1.392 . S
C789 H801 0.929 . S
C790 C786 1.531 . S
C790 H802 0.960 . S
C790 H803 0.962 . S
C790 H804 0.960 . S
C791 C788 1.511 . S
C791 H805 0.961 . S
C791 H806 0.961 . S
C791 H807 0.961 . S
C792 C793 1.370 . S
C792 C794 1.363 . S
C792 H808 0.931 . S
C793 C792 1.370 . S
C793 C797 1.408 . S
C794 C792 1.363 . S
C794 C795 1.370 . S
C794 C798 1.524 . S
C795 C787 1.503 . S
C795 C794 1.370 . S
C795 C796 1.403 . S
C796 C795 1.403 . S
C796 C797 1.404 . S
C796 C799 1.539 . S
C797 C793 1.408 . S
C797 C796 1.404 . S
C797 H809 0.930 . S
C798 C794 1.524 . S
C798 H810 0.956 . S
C798 H811 0.961 . S
C798 H812 0.961 . S
C799 C796 1.539 . S
C799 H813 0.958 . S
C799 H814 0.961 . S
C799 H815 0.960 . S
H800 C784 0.931 . S
H801 C789 0.929 . S
H802 C790 0.960 . S
H803 C790 0.962 . S
H804 C790 0.960 . S
H805 C791 0.961 . S
H806 C791 0.961 . S
H807 C791 0.961 . S
H808 C792 0.931 . S
H809 C797 0.930 . S
H810 C798 0.956 . S
H811 C798 0.961 . S
H812 C798 0.961 . S
H813 C799 0.958 . S
H814 C799 0.961 . S
H815 C799 0.960 . S
C816 C817 1.391 . S
C816 C818 1.394 . S
C816 H832 0.931 . S
C817 C816 1.391 . S
C817 C821 1.376 . S
C818 C816 1.394 . S
C818 C819 1.369 . S
C818 C822 1.531 . S
C819 C818 1.369 . S
C819 C820 1.410 . S
C819 C827 1.503 . S
C820 C819 1.410 . S
C820 C821 1.392 . S
C820 C823 1.511 . S
C821 C817 1.376 . S
C821 C820 1.392 . S
C821 H833 0.929 . S
C822 C818 1.531 . S
C822 H834 0.960 . S
C822 H835 0.962 . S
C822 H836 0.960 . S
C823 C820 1.511 . S
C823 H837 0.961 . S
C823 H838 0.961 . S
C823 H839 0.961 . S
C824 C825 1.370 . S
C824 C826 1.363 . S
C824 H840 0.931 . S
C825 C824 1.370 . S
C825 C829 1.408 . S
C826 C824 1.363 . S
C826 C827 1.370 . S
C826 C830 1.524 . S
C827 C819 1.503 . S
C827 C826 1.370 . S
C827 C828 1.403 . S
C828 C827 1.403 . S
C828 C829 1.404 . S
C828 C831 1.539 . S
C829 C825 1.408 . S
C829 C828 1.404 . S
C829 H841 0.930 . S
C830 C826 1.524 . S
C830 H842 0.956 . S
C830 H843 0.961 . S
C830 H844 0.961 . S
C831 C828 1.539 . S
C831 H845 0.958 . S
C831 H846 0.961 . S
C831 H847 0.960 . S
H832 C816 0.931 . S
H833 C821 0.929 . S
H834 C822 0.960 . S
H835 C822 0.962 . S
H836 C822 0.960 . S
H837 C823 0.961 . S
H838 C823 0.961 . S
H839 C823 0.961 . S
H840 C824 0.931 . S
H841 C829 0.930 . S
H842 C830 0.956 . S
H843 C830 0.961 . S
H844 C830 0.961 . S
H845 C831 0.958 . S
H846 C831 0.961 . S
H847 C831 0.960 . S
C848 C849 1.391 1_545 S
C848 C850 1.394 . S
C848 H864 0.931 . S
C849 C848 1.391 1_565 S
C849 C853 1.376 . S
C850 C848 1.394 . S
C850 C851 1.369 1_545 S
C850 C854 1.531 . S
C851 C850 1.369 1_565 S
C851 C852 1.410 . S
C851 C859 1.503 . S
C852 C851 1.410 . S
C852 C853 1.392 . S
C852 C855 1.511 . S
C853 C849 1.376 . S
C853 C852 1.392 . S
C853 H865 0.929 . S
C854 C850 1.531 . S
C854 H866 0.960 . S
C854 H867 0.962 . S
C854 H868 0.960 . S
C855 C852 1.511 . S
C855 H869 0.961 . S
C855 H870 0.961 . S
C855 H871 0.961 . S
C856 C857 1.370 . S
C856 C858 1.363 . S
C856 H872 0.931 . S
C857 C856 1.370 . S
C857 C861 1.408 1_565 S
C858 C856 1.363 . S
C858 C859 1.370 . S
C858 C862 1.524 . S
C859 C851 1.503 . S
C859 C858 1.370 . S
C859 C860 1.403 1_565 S
C860 C859 1.403 1_545 S
C860 C861 1.404 . S
C860 C863 1.539 . S
C861 C857 1.408 1_545 S
C861 C860 1.404 . S
C861 H873 0.930 . S
C862 C858 1.524 . S
C862 H874 0.956 . S
C862 H875 0.961 . S
C862 H876 0.961 . S
C863 C860 1.539 . S
C863 H877 0.958 . S
C863 H878 0.961 . S
C863 H879 0.960 . S
H864 C848 0.931 . S
H865 C853 0.929 . S
H866 C854 0.960 . S
H867 C854 0.962 . S
H868 C854 0.960 . S
H869 C855 0.961 . S
H870 C855 0.961 . S
H871 C855 0.961 . S
H872 C856 0.931 . S
H873 C861 0.930 . S
H874 C862 0.956 . S
H875 C862 0.961 . S
H876 C862 0.961 . S
H877 C863 0.958 . S
H878 C863 0.961 . S
H879 C863 0.960 . S
C880 C881 1.391 . S
C880 C882 1.394 . S
C880 H896 0.931 . S
C881 C880 1.391 . S
C881 C885 1.376 . S
C882 C880 1.394 . S
C882 C883 1.369 . S
C882 C886 1.531 . S
C883 C882 1.369 . S
C883 C884 1.410 . S
C883 C891 1.503 . S
C884 C883 1.410 . S
C884 C885 1.392 . S
C884 C887 1.511 . S
C885 C881 1.376 . S
C885 C884 1.392 . S
C885 H897 0.929 . S
C886 C882 1.531 . S
C886 H898 0.960 . S
C886 H899 0.962 . S
C886 H900 0.960 . S
C887 C884 1.511 . S
C887 H901 0.961 . S
C887 H902 0.961 . S
C887 H903 0.961 . S
C888 C889 1.370 . S
C888 C890 1.363 . S
C888 H904 0.931 . S
C889 C888 1.370 . S
C889 C893 1.408 . S
C890 C888 1.363 . S
C890 C891 1.370 . S
C890 C894 1.524 . S
C891 C883 1.503 . S
C891 C890 1.370 . S
C891 C892 1.403 . S
C892 C891 1.403 . S
C892 C893 1.404 . S
C892 C895 1.539 . S
C893 C889 1.408 . S
C893 C892 1.404 . S
C893 H905 0.930 . S
C894 C890 1.524 . S
C894 H906 0.956 . S
C894 H907 0.961 . S
C894 H908 0.961 . S
C895 C892 1.539 . S
C895 H909 0.958 . S
C895 H910 0.961 . S
C895 H911 0.960 . S
H896 C880 0.931 . S
H897 C885 0.929 . S
H898 C886 0.960 . S
H899 C886 0.962 . S
H900 C886 0.960 . S
H901 C887 0.961 . S
H902 C887 0.961 . S
H903 C887 0.961 . S
H904 C888 0.931 . S
H905 C893 0.930 . S
H906 C894 0.956 . S
H907 C894 0.961 . S
H908 C894 0.961 . S
H909 C895 0.958 . S
H910 C895 0.961 . S
H911 C895 0.960 . S
C912 C913 1.391 . S
C912 C914 1.394 . S
C912 H928 0.931 . S
C913 C912 1.391 . S
C913 C917 1.376 . S
C914 C912 1.394 . S
C914 C915 1.369 . S
C914 C918 1.531 . S
C915 C914 1.369 . S
C915 C916 1.410 . S
C915 C923 1.503 . S
C916 C915 1.410 . S
C916 C917 1.392 . S
C916 C919 1.511 . S
C917 C913 1.376 . S
C917 C916 1.392 . S
C917 H929 0.929 . S
C918 C914 1.531 . S
C918 H930 0.960 . S
C918 H931 0.962 . S
C918 H932 0.960 . S
C919 C916 1.511 . S
C919 H933 0.961 . S
C919 H934 0.961 . S
C919 H935 0.961 . S
C920 C921 1.370 . S
C920 C922 1.363 . S
C920 H936 0.931 . S
C921 C920 1.370 . S
C921 C925 1.408 . S
C922 C920 1.363 . S
C922 C923 1.370 . S
C922 C926 1.524 . S
C923 C915 1.503 . S
C923 C922 1.370 . S
C923 C924 1.403 . S
C924 C923 1.403 . S
C924 C925 1.404 . S
C924 C927 1.539 . S
C925 C921 1.408 . S
C925 C924 1.404 . S
C925 H937 0.930 . S
C926 C922 1.524 . S
C926 H938 0.956 . S
C926 H939 0.961 . S
C926 H940 0.961 . S
C927 C924 1.539 . S
C927 H941 0.958 . S
C927 H942 0.961 . S
C927 H943 0.960 . S
H928 C912 0.931 . S
H929 C917 0.929 . S
H930 C918 0.960 . S
H931 C918 0.962 . S
H932 C918 0.960 . S
H933 C919 0.961 . S
H934 C919 0.961 . S
H935 C919 0.961 . S
H936 C920 0.931 . S
H937 C925 0.930 . S
H938 C926 0.956 . S
H939 C926 0.961 . S
H940 C926 0.961 . S
H941 C927 0.958 . S
H942 C927 0.961 . S
H943 C927 0.960 . S
C944 C945 1.391 . S
C944 C946 1.394 . S
C944 H960 0.931 . S
C945 C944 1.391 . S
C945 C949 1.376 . S
C946 C944 1.394 . S
C946 C947 1.369 . S
C946 C950 1.531 . S
C947 C946 1.369 . S
C947 C948 1.410 . S
C947 C955 1.503 . S
C948 C947 1.410 . S
C948 C949 1.392 . S
C948 C951 1.511 . S
C949 C945 1.376 . S
C949 C948 1.392 . S
C949 H961 0.929 . S
C950 C946 1.531 . S
C950 H962 0.960 . S
C950 H963 0.962 . S
C950 H964 0.960 . S
C951 C948 1.511 . S
C951 H965 0.961 . S
C951 H966 0.961 . S
C951 H967 0.961 . S
C952 C953 1.370 . S
C952 C954 1.363 . S
C952 H968 0.931 . S
C953 C952 1.370 . S
C953 C957 1.408 . S
C954 C952 1.363 . S
C954 C955 1.370 . S
C954 C958 1.524 . S
C955 C947 1.503 . S
C955 C954 1.370 . S
C955 C956 1.403 . S
C956 C955 1.403 . S
C956 C957 1.404 . S
C956 C959 1.539 . S
C957 C953 1.408 . S
C957 C956 1.404 . S
C957 H969 0.930 . S
C958 C954 1.524 . S
C958 H970 0.956 . S
C958 H971 0.961 . S
C958 H972 0.961 . S
C959 C956 1.539 . S
C959 H973 0.958 . S
C959 H974 0.961 . S
C959 H975 0.960 . S
H960 C944 0.931 . S
H961 C949 0.929 . S
H962 C950 0.960 . S
H963 C950 0.962 . S
H964 C950 0.960 . S
H965 C951 0.961 . S
H966 C951 0.961 . S
H967 C951 0.961 . S
H968 C952 0.931 . S
H969 C957 0.930 . S
H970 C958 0.956 . S
H971 C958 0.961 . S
H972 C958 0.961 . S
H973 C959 0.958 . S
H974 C959 0.961 . S
H975 C959 0.960 . S
C976 C977 1.391 . S
C976 C978 1.394 . S
C976 H992 0.931 . S
C977 C976 1.391 . S
C977 C981 1.376 . S
C978 C976 1.394 . S
C978 C979 1.369 . S
C978 C982 1.531 . S
C979 C978 1.369 . S
C979 C980 1.410 . S
C979 C987 1.503 . S
C980 C979 1.410 . S
C980 C981 1.392 . S
C980 C983 1.511 . S
C981 C977 1.376 . S
C981 C980 1.392 . S
C981 H993 0.929 . S
C982 C978 1.531 . S
C982 H994 0.960 . S
C982 H995 0.962 . S
C982 H996 0.960 . S
C983 C980 1.511 . S
C983 H997 0.961 . S
C983 H998 0.961 . S
C983 H999 0.961 . S
C984 C985 1.370 . S
C984 C986 1.363 . S
C984 H1000 0.931 . S
C985 C984 1.370 . S
C985 C989 1.408 . S
C986 C984 1.363 . S
C986 C987 1.370 . S
C986 C990 1.524 . S
C987 C979 1.503 . S
C987 C986 1.370 . S
C987 C988 1.403 . S
C988 C987 1.403 . S
C988 C989 1.404 . S
C988 C991 1.539 . S
C989 C985 1.408 . S
C989 C988 1.404 . S
C989 H1001 0.930 . S
C990 C986 1.524 . S
C990 H1002 0.956 . S
C990 H1003 0.961 . S
C990 H1004 0.961 . S
C991 C988 1.539 . S
C991 H1005 0.958 . S
C991 H1006 0.961 . S
C991 H1007 0.960 . S
H992 C976 0.931 . S
H993 C981 0.929 . S
H994 C982 0.960 . S
H995 C982 0.962 . S
H996 C982 0.960 . S
H997 C983 0.961 . S
H998 C983 0.961 . S
H999 C983 0.961 . S
H1000 C984 0.931 . S
H1001 C989 0.930 . S
H1002 C990 0.956 . S
H1003 C990 0.961 . S
H1004 C990 0.961 . S
H1005 C991 0.958 . S
H1006 C991 0.961 . S
H1007 C991 0.960 . S
C1008 C1009 1.391 . S
C1008 C1010 1.394 . S
C1008 H1024 0.931 . S
C1009 C1008 1.391 . S
C1009 C1013 1.376 . S
C1010 C1008 1.394 . S
C1010 C1011 1.369 . S
C1010 C1014 1.531 . S
C1011 C1010 1.369 . S
C1011 C1012 1.410 . S
C1011 C1019 1.503 . S
C1012 C1011 1.410 . S
C1012 C1013 1.392 . S
C1012 C1015 1.511 . S
C1013 C1009 1.376 . S
C1013 C1012 1.392 . S
C1013 H1025 0.929 . S
C1014 C1010 1.531 . S
C1014 H1026 0.960 . S
C1014 H1027 0.962 . S
C1014 H1028 0.960 . S
C1015 C1012 1.511 . S
C1015 H1029 0.961 . S
C1015 H1030 0.961 . S
C1015 H1031 0.961 . S
C1016 C1017 1.370 . S
C1016 C1018 1.363 . S
C1016 H1032 0.931 . S
C1017 C1016 1.370 . S
C1017 C1021 1.408 . S
C1018 C1016 1.363 . S
C1018 C1019 1.370 . S
C1018 C1022 1.524 . S
C1019 C1011 1.503 . S
C1019 C1018 1.370 . S
C1019 C1020 1.403 . S
C1020 C1019 1.403 . S
C1020 C1021 1.404 . S
C1020 C1023 1.539 . S
C1021 C1017 1.408 . S
C1021 C1020 1.404 . S
C1021 H1033 0.930 . S
C1022 C1018 1.524 . S
C1022 H1034 0.956 . S
C1022 H1035 0.961 . S
C1022 H1036 0.961 . S
C1023 C1020 1.539 . S
C1023 H1037 0.958 . S
C1023 H1038 0.999 . S
C1023 H1039 0.960 . S
H1024 C1008 0.931 . S
H1025 C1013 0.929 . S
H1026 C1014 0.960 . S
H1027 C1014 0.962 . S
H1028 C1014 0.960 . S
H1029 C1015 0.961 . S
H1030 C1015 0.961 . S
H1031 C1015 0.961 . S
H1032 C1016 0.931 . S
H1033 C1021 0.930 . S
H1034 C1022 0.956 . S
H1035 C1022 0.961 . S
H1036 C1022 0.961 . S
H1037 C1023 0.958 . S
H1038 C1023 0.999 . S
H1039 C1023 0.960 . S
C1040 C1041 1.391 . S
C1040 C1042 1.394 . S
C1040 H1056 0.931 . S
C1041 C1040 1.391 . S
C1041 C1045 1.376 . S
C1042 C1040 1.394 . S
C1042 C1043 1.369 . S
C1042 C1046 1.531 . S
C1043 C1042 1.369 . S
C1043 C1044 1.410 . S
C1043 C1051 1.503 . S
C1044 C1043 1.410 . S
C1044 C1045 1.392 . S
C1044 C1047 1.511 . S
C1045 C1041 1.376 . S
C1045 C1044 1.392 . S
C1045 H1057 0.929 . S
C1046 C1042 1.531 . S
C1046 H1058 0.960 1_455 S
C1046 H1059 0.962 . S
C1046 H1060 0.960 1_455 S
C1047 C1044 1.511 . S
C1047 H1061 0.961 . S
C1047 H1062 0.961 . S
C1047 H1063 0.961 . S
C1048 C1049 1.370 . S
C1048 C1050 1.363 . S
C1048 H1064 0.931 . S
C1049 C1048 1.370 . S
C1049 C1053 1.408 . S
C1050 C1048 1.363 . S
C1050 C1051 1.370 . S
C1050 C1054 1.524 . S
C1051 C1043 1.503 . S
C1051 C1050 1.370 . S
C1051 C1052 1.403 . S
C1052 C1051 1.403 . S
C1052 C1053 1.404 . S
C1052 C1055 1.539 1_455 S
C1053 C1049 1.408 . S
C1053 C1052 1.404 . S
C1053 H1065 0.930 1_455 S
C1054 C1050 1.524 . S
C1054 H1066 0.956 . S
C1054 H1067 0.961 . S
C1054 H1068 0.961 . S
C1055 C1052 1.539 1_655 S
C1055 H1069 0.958 . S
C1055 H1070 0.961 . S
C1055 H1071 0.960 1_655 S
H1056 C1040 0.931 . S
H1057 C1045 0.929 . S
H1058 C1046 0.960 1_655 S
H1059 C1046 0.962 . S
H1060 C1046 0.960 1_655 S
H1061 C1047 0.961 . S
H1062 C1047 0.961 . S
H1063 C1047 0.961 . S
H1064 C1048 0.931 . S
H1065 C1053 0.930 1_655 S
H1066 C1054 0.956 . S
H1067 C1054 0.961 . S
H1068 C1054 0.961 . S
H1069 C1055 0.958 . S
H1070 C1055 0.961 . S
H1071 C1055 0.960 1_455 S
C1072 C1073 1.391 . S
C1072 C1074 1.394 . S
C1072 H1088 0.931 . S
C1073 C1072 1.391 . S
C1073 C1077 1.376 . S
C1074 C1072 1.394 . S
C1074 C1075 1.369 . S
C1074 C1078 1.531 . S
C1075 C1074 1.369 . S
C1075 C1076 1.410 . S
C1075 C1083 1.503 . S
C1076 C1075 1.410 . S
C1076 C1077 1.392 . S
C1076 C1079 1.511 . S
C1077 C1073 1.376 . S
C1077 C1076 1.392 . S
C1077 H1089 0.929 . S
C1078 C1074 1.531 . S
C1078 H1090 0.960 . S
C1078 H1091 0.962 . S
C1078 H1092 0.960 . S
C1079 C1076 1.511 . S
C1079 H1093 0.961 . S
C1079 H1094 0.961 . S
C1079 H1095 0.961 . S
C1080 C1081 1.370 . S
C1080 C1082 1.363 . S
C1080 H1096 0.931 . S
C1081 C1080 1.370 . S
C1081 C1085 1.408 . S
C1082 C1080 1.363 . S
C1082 C1083 1.370 . S
C1082 C1086 1.524 . S
C1083 C1075 1.503 . S
C1083 C1082 1.370 . S
C1083 C1084 1.403 . S
C1084 C1083 1.403 . S
C1084 C1085 1.404 . S
C1084 C1087 1.539 . S
C1085 C1081 1.408 . S
C1085 C1084 1.404 . S
C1085 H1097 0.930 . S
C1086 C1082 1.524 . S
C1086 H1098 0.956 . S
C1086 H1099 0.961 . S
C1086 H1100 0.961 . S
C1087 C1084 1.539 . S
C1087 H1101 0.958 . S
C1087 H1102 0.961 . S
C1087 H1103 0.960 . S
H1088 C1072 0.931 . S
H1089 C1077 0.929 . S
H1090 C1078 0.960 . S
H1091 C1078 0.962 . S
H1092 C1078 0.960 . S
H1093 C1079 0.961 . S
H1094 C1079 0.961 . S
H1095 C1079 0.961 . S
H1096 C1080 0.931 . S
H1097 C1085 0.930 . S
H1098 C1086 0.956 . S
H1099 C1086 0.961 . S
H1100 C1086 0.961 . S
H1101 C1087 0.958 . S
H1102 C1087 0.961 . S
H1103 C1087 0.960 . S
C1104 C1105 1.391 1_455 S
C1104 C1106 1.394 . S
C1104 H1120 0.931 . S
C1105 C1104 1.391 1_655 S
C1105 C1109 1.376 . S
C1106 C1104 1.394 . S
C1106 C1107 1.369 1_455 S
C1106 C1110 1.531 . S
C1107 C1106 1.369 1_655 S
C1107 C1108 1.410 . S
C1107 C1115 1.504 . S
C1108 C1107 1.410 . S
C1108 C1109 1.392 . S
C1108 C1111 1.511 . S
C1109 C1105 1.376 . S
C1109 C1108 1.392 . S
C1109 H1121 0.929 . S
C1110 C1106 1.531 . S
C1110 H1122 0.960 . S
C1110 H1123 0.962 . S
C1110 H1124 0.960 . S
C1111 C1108 1.511 . S
C1111 H1125 0.961 . S
C1111 H1126 0.961 . S
C1111 H1127 0.961 . S
C1112 C1113 1.370 . S
C1112 C1114 1.363 . S
C1112 H1128 0.931 . S
C1113 C1112 1.370 . S
C1113 C1117 1.408 1_455 S
C1114 C1112 1.363 . S
C1114 C1115 1.349 1_455 S
C1114 C1118 1.524 . S
C1115 C1107 1.504 . S
C1115 C1114 1.349 1_655 S
C1115 C1116 1.423 . S
C1116 C1115 1.423 . S
C1116 C1117 1.404 . S
C1116 C1119 1.539 . S
C1117 C1113 1.408 1_655 S
C1117 C1116 1.404 . S
C1117 H1129 0.930 . S
C1118 C1114 1.524 . S
C1118 H1130 0.956 . S
C1118 H1131 0.961 . S
C1118 H1132 0.961 . S
C1119 C1116 1.539 . S
C1119 H1133 0.958 . S
C1119 H1134 0.961 . S
C1119 H1135 0.960 . S
H1120 C1104 0.931 . S
H1121 C1109 0.929 . S
H1122 C1110 0.960 . S
H1123 C1110 0.962 . S
H1124 C1110 0.960 . S
H1125 C1111 0.961 . S
H1126 C1111 0.961 . S
H1127 C1111 0.961 . S
H1128 C1112 0.931 . S
H1129 C1117 0.930 . S
H1130 C1118 0.956 . S
H1131 C1118 0.961 . S
H1132 C1118 0.961 . S
H1133 C1119 0.958 . S
H1134 C1119 0.961 . S
H1135 C1119 0.960 . S
C1136 C1137 1.391 . S
C1136 C1138 1.394 . S
C1136 H1152 0.931 . S
C1137 C1136 1.391 . S
C1137 C1141 1.376 . S
C1138 C1136 1.394 . S
C1138 C1139 1.369 . S
C1138 C1142 1.531 . S
C1139 C1138 1.369 . S
C1139 C1140 1.410 . S
C1139 C1147 1.503 . S
C1140 C1139 1.410 . S
C1140 C1141 1.392 . S
C1140 C1143 1.511 . S
C1141 C1137 1.376 . S
C1141 C1140 1.392 . S
C1141 H1153 0.929 . S
C1142 C1138 1.531 . S
C1142 H1154 0.960 . S
C1142 H1155 0.962 . S
C1142 H1156 0.960 . S
C1143 C1140 1.511 . S
C1143 H1157 0.961 . S
C1143 H1158 0.961 . S
C1143 H1159 0.961 . S
C1144 C1145 1.370 . S
C1144 C1146 1.363 . S
C1144 H1160 0.931 . S
C1145 C1144 1.370 . S
C1145 C1149 1.408 . S
C1146 C1144 1.363 . S
C1146 C1147 1.370 . S
C1146 C1150 1.524 . S
C1147 C1139 1.503 . S
C1147 C1146 1.370 . S
C1147 C1148 1.403 . S
C1148 C1147 1.403 . S
C1148 C1149 1.404 . S
C1148 C1151 1.539 . S
C1149 C1145 1.408 . S
C1149 C1148 1.404 . S
C1149 H1161 0.930 . S
C1150 C1146 1.524 . S
C1150 H1162 0.956 . S
C1150 H1163 0.961 . S
C1150 H1164 0.961 . S
C1151 C1148 1.539 . S
C1151 H1165 0.958 . S
C1151 H1166 0.961 . S
C1151 H1167 0.960 . S
H1152 C1136 0.931 . S
H1153 C1141 0.929 . S
H1154 C1142 0.960 . S
H1155 C1142 0.962 . S
H1156 C1142 0.960 . S
H1157 C1143 0.961 . S
H1158 C1143 0.961 . S
H1159 C1143 0.961 . S
H1160 C1144 0.931 . S
H1161 C1149 0.930 . S
H1162 C1150 0.956 . S
H1163 C1150 0.961 . S
H1164 C1150 0.961 . S
H1165 C1151 0.958 . S
H1166 C1151 0.961 . S
H1167 C1151 0.960 . S
C1168 C1169 1.391 . S
C1168 C1170 1.394 . S
C1168 H1184 0.931 . S
C1169 C1168 1.391 . S
C1169 C1173 1.376 . S
C1170 C1168 1.394 . S
C1170 C1171 1.369 . S
C1170 C1174 1.531 . S
C1171 C1170 1.369 . S
C1171 C1172 1.410 . S
C1171 C1179 1.503 . S
C1172 C1171 1.410 . S
C1172 C1173 1.392 . S
C1172 C1175 1.511 . S
C1173 C1169 1.376 . S
C1173 C1172 1.392 . S
C1173 H1185 0.929 . S
C1174 C1170 1.531 . S
C1174 H1186 0.960 . S
C1174 H1187 0.962 . S
C1174 H1188 0.960 . S
C1175 C1172 1.511 . S
C1175 H1189 0.961 . S
C1175 H1190 0.961 . S
C1175 H1191 0.961 . S
C1176 C1177 1.370 . S
C1176 C1178 1.363 . S
C1176 H1192 0.931 . S
C1177 C1176 1.370 . S
C1177 C1181 1.408 . S
C1178 C1176 1.363 . S
C1178 C1179 1.370 . S
C1178 C1182 1.524 . S
C1179 C1171 1.503 . S
C1179 C1178 1.370 . S
C1179 C1180 1.403 . S
C1180 C1179 1.403 . S
C1180 C1181 1.404 . S
C1180 C1183 1.539 . S
C1181 C1177 1.408 . S
C1181 C1180 1.404 . S
C1181 H1193 0.930 . S
C1182 C1178 1.524 . S
C1182 H1194 0.956 . S
C1182 H1195 0.961 . S
C1182 H1196 0.961 . S
C1183 C1180 1.539 . S
C1183 H1197 0.958 . S
C1183 H1198 0.961 . S
C1183 H1199 0.960 . S
H1184 C1168 0.931 . S
H1185 C1173 0.929 . S
H1186 C1174 0.960 . S
H1187 C1174 0.962 . S
H1188 C1174 0.960 . S
H1189 C1175 0.961 . S
H1190 C1175 0.961 . S
H1191 C1175 0.961 . S
H1192 C1176 0.931 . S
H1193 C1181 0.930 . S
H1194 C1182 0.956 . S
H1195 C1182 0.961 . S
H1196 C1182 0.961 . S
H1197 C1183 0.958 . S
H1198 C1183 0.961 . S
H1199 C1183 0.960 . S
C1200 C1201 1.394 1_565 S
C1200 C1202 1.392 1_556 S
C1200 H1216 0.929 1_556 S
C1201 C1200 1.394 1_545 S
C1201 C1205 1.376 . S
C1202 C1200 1.392 1_554 S
C1202 C1203 1.367 . S
C1202 C1206 1.531 . S
C1203 C1202 1.367 . S
C1203 C1204 1.413 1_554 S
C1203 C1211 1.502 . S
C1204 C1203 1.413 1_556 S
C1204 C1205 1.392 1_565 S
C1204 C1207 1.502 1_565 S
C1205 C1201 1.376 . S
C1205 C1204 1.392 1_545 S
C1205 H1217 0.929 . S
C1206 C1202 1.531 . S
C1206 H1218 0.960 . S
C1206 H1219 0.962 . S
C1206 H1220 0.960 . S
C1207 C1204 1.502 1_545 S
C1207 H1221 0.973 . S
C1207 H1222 0.941 1_545 S
C1207 H1223 0.978 . S
C1208 C1209 1.370 1_556 S
C1208 C1210 1.363 . S
C1208 H1224 0.931 . S
C1209 C1208 1.370 1_554 S
C1209 C1213 1.408 . S
C1210 C1208 1.363 . S
C1210 C1211 1.370 1_556 S
C1210 C1214 1.524 . S
C1211 C1203 1.502 . S
C1211 C1210 1.370 1_554 S
C1211 C1212 1.403 . S
C1212 C1211 1.403 . S
C1212 C1213 1.404 . S
C1212 C1215 1.539 . S
C1213 C1209 1.408 . S
C1213 C1212 1.404 . S
C1213 H1225 0.930 . S
C1214 C1210 1.524 . S
C1214 H1226 0.956 . S
C1214 H1227 0.961 . S
C1214 H1228 0.961 . S
C1215 C1212 1.539 . S
C1215 H1229 0.958 . S
C1215 H1230 0.961 . S
C1215 H1231 0.940 1_565 S
H1216 C1200 0.929 1_554 S
H1217 C1205 0.929 . S
H1218 C1206 0.960 . S
H1219 C1206 0.962 . S
H1220 C1206 0.960 . S
H1221 C1207 0.973 . S
H1222 C1207 0.941 1_565 S
H1223 C1207 0.978 . S
H1224 C1208 0.931 . S
H1225 C1213 0.930 . S
H1226 C1214 0.956 . S
H1227 C1214 0.961 . S
H1228 C1214 0.961 . S
H1229 C1215 0.958 . S
H1230 C1215 0.961 . S
H1231 C1215 0.940 1_545 S
C1232 C1233 1.391 . S
C1232 C1234 1.394 . S
C1232 H1248 0.931 . S
C1233 C1232 1.391 . S
C1233 C1237 1.376 . S
C1234 C1232 1.394 . S
C1234 C1235 1.369 . S
C1234 C1238 1.531 . S
C1235 C1234 1.369 . S
C1235 C1236 1.410 . S
C1235 C1243 1.503 . S
C1236 C1235 1.410 . S
C1236 C1237 1.392 . S
C1236 C1239 1.511 . S
C1237 C1233 1.376 . S
C1237 C1236 1.392 . S
C1237 H1249 0.929 . S
C1238 C1234 1.531 . S
C1238 H1250 0.960 . S
C1238 H1251 0.962 . S
C1238 H1252 0.960 . S
C1239 C1236 1.511 . S
C1239 H1253 0.961 . S
C1239 H1254 0.961 . S
C1239 H1255 0.961 . S
C1240 C1241 1.370 . S
C1240 C1242 1.363 . S
C1240 H1256 0.931 . S
C1241 C1240 1.370 . S
C1241 C1245 1.408 . S
C1242 C1240 1.363 . S
C1242 C1243 1.370 . S
C1242 C1246 1.524 . S
C1243 C1235 1.503 . S
C1243 C1242 1.370 . S
C1243 C1244 1.403 . S
C1244 C1243 1.403 . S
C1244 C1245 1.404 . S
C1244 C1247 1.539 . S
C1245 C1241 1.408 . S
C1245 C1244 1.404 . S
C1245 H1257 0.930 . S
C1246 C1242 1.524 . S
C1246 H1258 0.956 . S
C1246 H1259 0.961 . S
C1246 H1260 0.961 . S
C1247 C1244 1.539 . S
C1247 H1261 0.958 . S
C1247 H1262 0.961 . S
C1247 H1263 0.960 . S
H1248 C1232 0.931 . S
H1249 C1237 0.929 . S
H1250 C1238 0.960 . S
H1251 C1238 0.962 . S
H1252 C1238 0.960 . S
H1253 C1239 0.961 . S
H1254 C1239 0.961 . S
H1255 C1239 0.961 . S
H1256 C1240 0.931 . S
H1257 C1245 0.930 . S
H1258 C1246 0.956 . S
H1259 C1246 0.961 . S
H1260 C1246 0.961 . S
H1261 C1247 0.958 . S
H1262 C1247 0.961 . S
H1263 C1247 0.960 . S
C1264 C1265 1.391 . S
C1264 C1266 1.394 . S
C1264 H1280 0.931 . S
C1265 C1264 1.391 . S
C1265 C1269 1.376 . S
C1266 C1264 1.394 . S
C1266 C1267 1.369 . S
C1266 C1270 1.531 . S
C1267 C1266 1.369 . S
C1267 C1268 1.410 . S
C1267 C1275 1.503 . S
C1268 C1267 1.410 . S
C1268 C1269 1.392 . S
C1268 C1271 1.511 . S
C1269 C1265 1.376 . S
C1269 C1268 1.392 . S
C1269 H1281 0.929 . S
C1270 C1266 1.531 . S
C1270 H1282 0.960 . S
C1270 H1283 0.962 . S
C1270 H1284 0.960 . S
C1271 C1268 1.511 . S
C1271 H1285 0.961 . S
C1271 H1286 0.961 . S
C1271 H1287 0.961 . S
C1272 C1273 1.370 . S
C1272 C1274 1.363 . S
C1272 H1288 0.931 . S
C1273 C1272 1.370 . S
C1273 C1277 1.408 . S
C1274 C1272 1.363 . S
C1274 C1275 1.370 . S
C1274 C1278 1.524 . S
C1275 C1267 1.503 . S
C1275 C1274 1.370 . S
C1275 C1276 1.403 . S
C1276 C1275 1.403 . S
C1276 C1277 1.404 . S
C1276 C1279 1.539 . S
C1277 C1273 1.408 . S
C1277 C1276 1.404 . S
C1277 H1289 0.930 . S
C1278 C1274 1.524 . S
C1278 H1290 0.956 . S
C1278 H1291 0.961 . S
C1278 H1292 0.961 . S
C1279 C1276 1.539 . S
C1279 H1293 0.958 . S
C1279 H1294 0.961 . S
C1279 H1295 0.960 . S
H1280 C1264 0.931 . S
H1281 C1269 0.929 . S
H1282 C1270 0.960 . S
H1283 C1270 0.962 . S
H1284 C1270 0.960 . S
H1285 C1271 0.961 . S
H1286 C1271 0.961 . S
H1287 C1271 0.961 . S
H1288 C1272 0.931 . S
H1289 C1277 0.930 . S
H1290 C1278 0.956 . S
H1291 C1278 0.961 . S
H1292 C1278 0.961 . S
H1293 C1279 0.958 . S
H1294 C1279 0.961 . S
H1295 C1279 0.960 . S
C1296 C1297 1.391 . S
C1296 C1298 1.394 . S
C1296 H1312 0.931 . S
C1297 C1296 1.391 . S
C1297 C1301 1.376 . S
C1298 C1296 1.394 . S
C1298 C1299 1.369 . S
C1298 C1302 1.531 . S
C1299 C1298 1.369 . S
C1299 C1300 1.410 . S
C1299 C1307 1.503 . S
C1300 C1299 1.410 . S
C1300 C1301 1.392 . S
C1300 C1303 1.511 . S
C1301 C1297 1.376 . S
C1301 C1300 1.392 . S
C1301 H1313 0.929 . S
C1302 C1298 1.531 . S
C1302 H1314 0.960 . S
C1302 H1315 0.962 . S
C1302 H1316 0.960 . S
C1303 C1300 1.511 . S
C1303 H1317 0.961 . S
C1303 H1318 0.961 . S
C1303 H1319 0.961 . S
C1304 C1305 1.370 . S
C1304 C1306 1.363 . S
C1304 H1320 0.931 . S
C1305 C1304 1.370 . S
C1305 C1309 1.408 . S
C1306 C1304 1.363 . S
C1306 C1307 1.370 . S
C1306 C1310 1.524 . S
C1307 C1299 1.503 . S
C1307 C1306 1.370 . S
C1307 C1308 1.403 . S
C1308 C1307 1.403 . S
C1308 C1309 1.404 . S
C1308 C1311 1.539 . S
C1309 C1305 1.408 . S
C1309 C1308 1.404 . S
C1309 H1321 0.930 . S
C1310 C1306 1.524 . S
C1310 H1322 0.956 . S
C1310 H1323 0.961 . S
C1310 H1324 0.961 . S
C1311 C1308 1.539 . S
C1311 H1325 0.958 . S
C1311 H1326 0.961 . S
C1311 H1327 0.960 . S
H1312 C1296 0.931 . S
H1313 C1301 0.929 . S
H1314 C1302 0.960 . S
H1315 C1302 0.962 . S
H1316 C1302 0.960 . S
H1317 C1303 0.961 . S
H1318 C1303 0.961 . S
H1319 C1303 0.961 . S
H1320 C1304 0.931 . S
H1321 C1309 0.930 . S
H1322 C1310 0.956 . S
H1323 C1310 0.961 . S
H1324 C1310 0.961 . S
H1325 C1311 0.958 . S
H1326 C1311 0.961 . S
H1327 C1311 0.960 . S
C1328 C1329 1.391 . S
C1328 C1330 1.394 . S
C1328 H1344 0.931 . S
C1329 C1328 1.391 . S
C1329 C1333 1.376 . S
C1330 C1328 1.394 . S
C1330 C1331 1.369 . S
C1330 C1334 1.531 . S
C1331 C1330 1.369 . S
C1331 C1332 1.410 . S
C1331 C1339 1.503 . S
C1332 C1331 1.410 . S
C1332 C1333 1.392 . S
C1332 C1335 1.511 . S
C1333 C1329 1.376 . S
C1333 C1332 1.392 . S
C1333 H1345 0.929 . S
C1334 C1330 1.531 . S
C1334 H1346 0.960 . S
C1334 H1347 0.962 . S
C1334 H1348 0.960 . S
C1335 C1332 1.511 . S
C1335 H1349 0.961 . S
C1335 H1350 0.961 . S
C1335 H1351 0.961 . S
C1336 C1337 1.370 . S
C1336 C1338 1.363 . S
C1336 H1352 0.931 . S
C1337 C1336 1.370 . S
C1337 C1341 1.408 . S
C1338 C1336 1.363 . S
C1338 C1339 1.370 . S
C1338 C1342 1.524 . S
C1339 C1331 1.503 . S
C1339 C1338 1.370 . S
C1339 C1340 1.403 . S
C1340 C1339 1.403 . S
C1340 C1341 1.404 . S
C1340 C1343 1.539 . S
C1341 C1337 1.408 . S
C1341 C1340 1.404 . S
C1341 H1353 0.930 . S
C1342 C1338 1.524 . S
C1342 H1354 0.956 . S
C1342 H1355 0.961 . S
C1342 H1356 0.961 . S
C1343 C1340 1.539 . S
C1343 H1357 0.958 . S
C1343 H1358 0.961 . S
C1343 H1359 0.960 . S
H1344 C1328 0.931 . S
H1345 C1333 0.929 . S
H1346 C1334 0.960 . S
H1347 C1334 0.962 . S
H1348 C1334 0.960 . S
H1349 C1335 0.961 . S
H1350 C1335 0.961 . S
H1351 C1335 0.961 . S
H1352 C1336 0.931 . S
H1353 C1341 0.930 . S
H1354 C1342 0.956 . S
H1355 C1342 0.961 . S
H1356 C1342 0.961 . S
H1357 C1343 0.958 . S
H1358 C1343 0.961 . S
H1359 C1343 0.960 . S
C1360 C1361 1.391 . S
C1360 C1362 1.394 . S
C1360 H1376 0.931 . S
C1361 C1360 1.391 . S
C1361 C1365 1.376 . S
C1362 C1360 1.394 . S
C1362 C1363 1.369 . S
C1362 C1366 1.531 . S
C1363 C1362 1.369 . S
C1363 C1364 1.410 . S
C1363 C1371 1.503 . S
C1364 C1363 1.410 . S
C1364 C1365 1.392 . S
C1364 C1367 1.511 . S
C1365 C1361 1.376 . S
C1365 C1364 1.392 . S
C1365 H1377 0.929 . S
C1366 C1362 1.531 . S
C1366 H1378 0.960 . S
C1366 H1379 0.962 . S
C1366 H1380 0.960 . S
C1367 C1364 1.511 . S
C1367 H1381 0.961 . S
C1367 H1382 0.961 . S
C1367 H1383 0.961 . S
C1368 C1369 1.370 . S
C1368 C1370 1.363 . S
C1368 H1384 0.931 . S
C1369 C1368 1.370 . S
C1369 C1373 1.408 . S
C1370 C1368 1.363 . S
C1370 C1371 1.370 . S
C1370 C1374 1.524 . S
C1371 C1363 1.503 . S
C1371 C1370 1.370 . S
C1371 C1372 1.403 . S
C1372 C1371 1.403 . S
C1372 C1373 1.404 . S
C1372 C1375 1.539 . S
C1373 C1369 1.408 . S
C1373 C1372 1.404 . S
C1373 H1385 0.930 . S
C1374 C1370 1.524 . S
C1374 H1386 0.956 . S
C1374 H1387 0.961 . S
C1374 H1388 0.961 . S
C1375 C1372 1.539 . S
C1375 H1389 0.958 . S
C1375 H1390 0.961 . S
C1375 H1391 0.960 . S
H1376 C1360 0.931 . S
H1377 C1365 0.929 . S
H1378 C1366 0.960 . S
H1379 C1366 0.962 . S
H1380 C1366 0.960 . S
H1381 C1367 0.961 . S
H1382 C1367 0.961 . S
H1383 C1367 0.961 . S
H1384 C1368 0.931 . S
H1385 C1373 0.930 . S
H1386 C1374 0.956 . S
H1387 C1374 0.961 . S
H1388 C1374 0.961 . S
H1389 C1375 0.958 . S
H1390 C1375 0.961 . S
H1391 C1375 0.960 . S
C1392 C1393 1.391 . S
C1392 C1394 1.394 . S
C1392 H1408 0.931 . S
C1393 C1392 1.391 . S
C1393 C1397 1.376 . S
C1394 C1392 1.394 . S
C1394 C1395 1.369 . S
C1394 C1398 1.531 . S
C1395 C1394 1.369 . S
C1395 C1396 1.410 . S
C1395 C1403 1.503 . S
C1396 C1395 1.410 . S
C1396 C1397 1.392 . S
C1396 C1399 1.511 . S
C1397 C1393 1.376 . S
C1397 C1396 1.392 . S
C1397 H1409 0.929 . S
C1398 C1394 1.531 . S
C1398 H1410 0.960 . S
C1398 H1411 0.962 . S
C1398 H1412 0.960 . S
C1399 C1396 1.511 . S
C1399 H1413 0.961 . S
C1399 H1414 0.961 . S
C1399 H1415 0.961 . S
C1400 C1401 1.370 . S
C1400 C1402 1.363 . S
C1400 H1416 0.931 . S
C1401 C1400 1.370 . S
C1401 C1405 1.408 . S
C1402 C1400 1.363 . S
C1402 C1403 1.370 . S
C1402 C1406 1.524 . S
C1403 C1395 1.503 . S
C1403 C1402 1.370 . S
C1403 C1404 1.403 . S
C1404 C1403 1.403 . S
C1404 C1405 1.404 . S
C1404 C1407 1.539 . S
C1405 C1401 1.408 . S
C1405 C1404 1.404 . S
C1405 H1417 0.930 . S
C1406 C1402 1.524 . S
C1406 H1418 0.956 . S
C1406 H1419 0.961 . S
C1406 H1420 0.961 . S
C1407 C1404 1.539 . S
C1407 H1421 0.958 . S
C1407 H1422 0.961 . S
C1407 H1423 0.960 . S
H1408 C1392 0.931 . S
H1409 C1397 0.929 . S
H1410 C1398 0.960 . S
H1411 C1398 0.962 . S
H1412 C1398 0.960 . S
H1413 C1399 0.961 . S
H1414 C1399 0.961 . S
H1415 C1399 0.961 . S
H1416 C1400 0.931 . S
H1417 C1405 0.930 . S
H1418 C1406 0.956 . S
H1419 C1406 0.961 . S
H1420 C1406 0.961 . S
H1421 C1407 0.958 . S
H1422 C1407 0.961 . S
H1423 C1407 0.960 . S
C1424 C1425 1.391 . S
C1424 C1426 1.394 . S
C1424 H1440 0.931 . S
C1425 C1424 1.391 . S
C1425 C1429 1.376 . S
C1426 C1424 1.394 . S
C1426 C1427 1.369 . S
C1426 C1430 1.531 . S
C1427 C1426 1.369 . S
C1427 C1428 1.410 . S
C1427 C1435 1.503 . S
C1428 C1427 1.410 . S
C1428 C1429 1.392 . S
C1428 C1431 1.511 1_545 S
C1429 C1425 1.376 . S
C1429 C1428 1.392 . S
C1429 H1441 0.929 1_545 S
C1430 C1426 1.531 . S
C1430 H1442 0.960 . S
C1430 H1443 0.962 . S
C1430 H1444 0.960 . S
C1431 C1428 1.511 1_565 S
C1431 H1445 0.961 . S
C1431 H1446 0.961 . S
C1431 H1447 0.961 . S
C1432 C1433 1.370 1_565 S
C1432 C1434 1.364 . S
C1432 H1448 0.931 . S
C1433 C1432 1.370 1_545 S
C1433 C1437 1.408 . S
C1434 C1432 1.364 . S
C1434 C1435 1.365 1_565 S
C1434 C1438 1.529 . S
C1435 C1427 1.503 . S
C1435 C1434 1.365 1_545 S
C1435 C1436 1.403 . S
C1436 C1435 1.403 . S
C1436 C1437 1.404 . S
C1436 C1439 1.539 . S
C1437 C1433 1.408 . S
C1437 C1436 1.404 . S
C1437 H1449 0.930 . S
C1438 C1434 1.529 . S
C1438 H1450 0.956 . S
C1438 H1451 0.961 . S
C1438 H1452 0.961 . S
C1439 C1436 1.539 . S
C1439 H1453 0.958 . S
C1439 H1454 0.961 . S
C1439 H1455 0.960 . S
H1440 C1424 0.931 . S
H1441 C1429 0.929 1_565 S
H1442 C1430 0.960 . S
H1443 C1430 0.962 . S
H1444 C1430 0.960 . S
H1445 C1431 0.961 . S
H1446 C1431 0.961 . S
H1447 C1431 0.961 . S
H1448 C1432 0.931 . S
H1449 C1437 0.930 . S
H1450 C1438 0.956 . S
H1451 C1438 0.961 . S
H1452 C1438 0.961 . S
H1453 C1439 0.958 . S
H1454 C1439 0.961 . S
H1455 C1439 0.960 . S
C1456 C1457 1.391 . S
C1456 C1458 1.394 . S
C1456 H1472 0.931 . S
C1457 C1456 1.391 . S
C1457 C1461 1.376 . S
C1458 C1456 1.394 . S
C1458 C1459 1.369 . S
C1458 C1462 1.531 . S
C1459 C1458 1.369 . S
C1459 C1460 1.410 . S
C1459 C1467 1.503 . S
C1460 C1459 1.410 . S
C1460 C1461 1.392 . S
C1460 C1463 1.511 . S
C1461 C1457 1.376 . S
C1461 C1460 1.392 . S
C1461 H1473 0.929 . S
C1462 C1458 1.531 . S
C1462 H1474 0.960 . S
C1462 H1475 0.962 . S
C1462 H1476 0.960 . S
C1463 C1460 1.511 . S
C1463 H1477 0.961 . S
C1463 H1478 0.961 . S
C1463 H1479 0.961 . S
C1464 C1465 1.370 . S
C1464 C1466 1.363 . S
C1464 H1480 0.931 . S
C1465 C1464 1.370 . S
C1465 C1469 1.408 . S
C1466 C1464 1.363 . S
C1466 C1467 1.370 . S
C1466 C1470 1.524 . S
C1467 C1459 1.503 . S
C1467 C1466 1.370 . S
C1467 C1468 1.403 . S
C1468 C1467 1.403 . S
C1468 C1469 1.404 . S
C1468 C1471 1.539 . S
C1469 C1465 1.408 . S
C1469 C1468 1.404 . S
C1469 H1481 0.930 . S
C1470 C1466 1.524 . S
C1470 H1482 0.956 . S
C1470 H1483 0.961 . S
C1470 H1484 0.961 . S
C1471 C1468 1.539 . S
C1471 H1485 0.958 . S
C1471 H1486 0.961 . S
C1471 H1487 0.960 . S
H1472 C1456 0.931 . S
H1473 C1461 0.929 . S
H1474 C1462 0.960 . S
H1475 C1462 0.962 . S
H1476 C1462 0.960 . S
H1477 C1463 0.961 . S
H1478 C1463 0.961 . S
H1479 C1463 0.961 . S
H1480 C1464 0.931 . S
H1481 C1469 0.930 . S
H1482 C1470 0.956 . S
H1483 C1470 0.961 . S
H1484 C1470 0.961 . S
H1485 C1471 0.958 . S
H1486 C1471 0.961 . S
H1487 C1471 0.960 . S
C1488 C1489 1.391 . S
C1488 C1490 1.394 . S
C1488 H1504 0.931 . S
C1489 C1488 1.391 . S
C1489 C1493 1.376 . S
C1490 C1488 1.394 . S
C1490 C1491 1.369 . S
C1490 C1494 1.531 . S
C1491 C1490 1.369 . S
C1491 C1492 1.410 . S
C1491 C1499 1.503 . S
C1492 C1491 1.410 . S
C1492 C1493 1.392 . S
C1492 C1495 1.511 . S
C1493 C1489 1.376 . S
C1493 C1492 1.392 . S
C1493 H1505 0.929 . S
C1494 C1490 1.531 . S
C1494 H1506 0.960 . S
C1494 H1507 0.962 . S
C1494 H1508 0.960 . S
C1495 C1492 1.511 . S
C1495 H1509 0.961 . S
C1495 H1510 0.961 . S
C1495 H1511 0.961 . S
C1496 C1497 1.370 . S
C1496 C1498 1.363 . S
C1496 H1512 0.931 . S
C1497 C1496 1.370 . S
C1497 C1501 1.408 . S
C1498 C1496 1.363 . S
C1498 C1499 1.370 . S
C1498 C1502 1.524 . S
C1499 C1491 1.503 . S
C1499 C1498 1.370 . S
C1499 C1500 1.403 . S
C1500 C1499 1.403 . S
C1500 C1501 1.404 . S
C1500 C1503 1.539 . S
C1501 C1497 1.408 . S
C1501 C1500 1.404 . S
C1501 H1513 0.930 . S
C1502 C1498 1.524 . S
C1502 H1514 0.956 . S
C1502 H1515 0.961 . S
C1502 H1516 0.961 . S
C1503 C1500 1.539 . S
C1503 H1517 0.958 . S
C1503 H1518 0.961 . S
C1503 H1519 0.960 . S
H1504 C1488 0.931 . S
H1505 C1493 0.929 . S
H1506 C1494 0.960 . S
H1507 C1494 0.962 . S
H1508 C1494 0.960 . S
H1509 C1495 0.961 . S
H1510 C1495 0.961 . S
H1511 C1495 0.961 . S
H1512 C1496 0.931 . S
H1513 C1501 0.930 . S
H1514 C1502 0.956 . S
H1515 C1502 0.961 . S
H1516 C1502 0.961 . S
H1517 C1503 0.958 . S
H1518 C1503 0.961 . S
H1519 C1503 0.960 . S
C1520 C1521 1.391 . S
C1520 C1522 1.394 . S
C1520 H1536 0.931 . S
C1521 C1520 1.391 . S
C1521 C1525 1.376 . S
C1522 C1520 1.394 . S
C1522 C1523 1.369 . S
C1522 C1526 1.531 . S
C1523 C1522 1.369 . S
C1523 C1524 1.410 . S
C1523 C1531 1.503 . S
C1524 C1523 1.410 . S
C1524 C1525 1.392 . S
C1524 C1527 1.511 . S
C1525 C1521 1.376 . S
C1525 C1524 1.392 . S
C1525 H1537 0.929 . S
C1526 C1522 1.531 . S
C1526 H1538 0.960 . S
C1526 H1539 0.962 . S
C1526 H1540 0.960 . S
C1527 C1524 1.511 . S
C1527 H1541 0.961 . S
C1527 H1542 0.961 . S
C1527 H1543 0.961 . S
C1528 C1529 1.370 . S
C1528 C1530 1.363 . S
C1528 H1544 0.931 . S
C1529 C1528 1.370 . S
C1529 C1533 1.408 . S
C1530 C1528 1.363 . S
C1530 C1531 1.370 . S
C1530 C1534 1.524 . S
C1531 C1523 1.503 . S
C1531 C1530 1.370 . S
C1531 C1532 1.403 . S
C1532 C1531 1.403 . S
C1532 C1533 1.404 . S
C1532 C1535 1.539 . S
C1533 C1529 1.408 . S
C1533 C1532 1.404 . S
C1533 H1545 0.930 . S
C1534 C1530 1.524 . S
C1534 H1546 0.956 . S
C1534 H1547 0.961 . S
C1534 H1548 0.961 . S
C1535 C1532 1.539 . S
C1535 H1549 0.958 . S
C1535 H1550 0.961 . S
C1535 H1551 0.960 . S
H1536 C1520 0.931 . S
H1537 C1525 0.929 . S
H1538 C1526 0.960 . S
H1539 C1526 0.962 . S
H1540 C1526 0.960 . S
H1541 C1527 0.961 . S
H1542 C1527 0.961 . S
H1543 C1527 0.961 . S
H1544 C1528 0.931 . S
H1545 C1533 0.930 . S
H1546 C1534 0.956 . S
H1547 C1534 0.961 . S
H1548 C1534 0.961 . S
H1549 C1535 0.958 . S
H1550 C1535 0.961 . S
H1551 C1535 0.960 . S
C1552 C1553 1.391 . S
C1552 C1554 1.394 1_455 S
C1552 H1568 0.931 . S
C1553 C1552 1.391 . S
C1553 C1557 1.376 . S
C1554 C1552 1.394 1_655 S
C1554 C1555 1.366 1_655 S
C1554 C1558 1.531 . S
C1555 C1554 1.366 1_455 S
C1555 C1556 1.418 . S
C1555 C1563 1.498 1_455 S
C1556 C1555 1.418 . S
C1556 C1557 1.392 . S
C1556 C1559 1.511 1_545 S
C1557 C1553 1.376 . S
C1557 C1556 1.392 . S
C1557 H1569 0.929 1_545 S
C1558 C1554 1.531 . S
C1558 H1570 0.960 . S
C1558 H1571 0.962 . S
C1558 H1572 0.960 . S
C1559 C1556 1.511 1_565 S
C1559 H1573 0.961 . S
C1559 H1574 0.961 . S
C1559 H1575 0.961 . S
C1560 C1561 1.370 . S
C1560 C1562 1.363 1_655 S
C1560 H1576 0.931 1_655 S
C1561 C1560 1.370 . S
C1561 C1565 1.408 . S
C1562 C1560 1.363 1_455 S
C1562 C1563 1.370 1_455 S
C1562 C1566 1.524 . S
C1563 C1555 1.498 1_655 S
C1563 C1562 1.370 1_655 S
C1563 C1564 1.403 . S
C1564 C1563 1.403 . S
C1564 C1565 1.404 . S
C1564 C1567 1.539 1_545 S
C1565 C1561 1.408 . S
C1565 C1564 1.404 . S
C1565 H1577 0.930 . S
C1566 C1562 1.524 . S
C1566 H1578 0.956 . S
C1566 H1579 0.961 . S
C1566 H1580 0.961 . S
C1567 C1564 1.539 1_565 S
C1567 H1581 0.937 1_565 S
C1567 H1582 0.961 . S
C1567 H1583 0.960 . S
H1568 C1552 0.931 . S
H1569 C1557 0.929 1_565 S
H1570 C1558 0.960 . S
H1571 C1558 0.962 . S
H1572 C1558 0.960 . S
H1573 C1559 0.961 . S
H1574 C1559 0.961 . S
H1575 C1559 0.961 . S
H1576 C1560 0.931 1_455 S
H1577 C1565 0.930 . S
H1578 C1566 0.956 . S
H1579 C1566 0.961 . S
H1580 C1566 0.961 . S
H1581 C1567 0.937 1_545 S
H1582 C1567 0.961 . S
H1583 C1567 0.960 . S
C1584 C1585 1.391 . S
C1584 C1586 1.394 . S
C1584 H1600 0.931 . S
C1585 C1584 1.391 . S
C1585 C1589 1.376 . S
C1586 C1584 1.394 . S
C1586 C1587 1.369 . S
C1586 C1590 1.531 . S
C1587 C1586 1.369 . S
C1587 C1588 1.410 . S
C1587 C1595 1.503 . S
C1588 C1587 1.410 . S
C1588 C1589 1.392 . S
C1588 C1591 1.511 . S
C1589 C1585 1.376 . S
C1589 C1588 1.392 . S
C1589 H1601 0.929 . S
C1590 C1586 1.531 . S
C1590 H1602 0.960 . S
C1590 H1603 0.962 . S
C1590 H1604 0.960 . S
C1591 C1588 1.511 . S
C1591 H1605 0.961 . S
C1591 H1606 0.961 . S
C1591 H1607 0.961 . S
C1592 C1593 1.370 . S
C1592 C1594 1.363 . S
C1592 H1608 0.931 . S
C1593 C1592 1.370 . S
C1593 C1597 1.408 . S
C1594 C1592 1.363 . S
C1594 C1595 1.370 . S
C1594 C1598 1.524 . S
C1595 C1587 1.503 . S
C1595 C1594 1.370 . S
C1595 C1596 1.403 . S
C1596 C1595 1.403 . S
C1596 C1597 1.404 . S
C1596 C1599 1.539 . S
C1597 C1593 1.408 . S
C1597 C1596 1.404 . S
C1597 H1609 0.930 . S
C1598 C1594 1.524 . S
C1598 H1610 0.956 . S
C1598 H1611 0.961 . S
C1598 H1612 0.961 . S
C1599 C1596 1.539 . S
C1599 H1613 0.958 . S
C1599 H1614 0.961 . S
C1599 H1615 0.960 . S
H1600 C1584 0.931 . S
H1601 C1589 0.929 . S
H1602 C1590 0.960 . S
H1603 C1590 0.962 . S
H1604 C1590 0.960 . S
H1605 C1591 0.961 . S
H1606 C1591 0.961 . S
H1607 C1591 0.961 . S
H1608 C1592 0.931 . S
H1609 C1597 0.930 . S
H1610 C1598 0.956 . S
H1611 C1598 0.961 . S
H1612 C1598 0.961 . S
H1613 C1599 0.958 . S
H1614 C1599 0.961 . S
H1615 C1599 0.960 . S
C1616 C1617 1.391 . S
C1616 C1618 1.394 . S
C1616 H1632 0.931 . S
C1617 C1616 1.391 . S
C1617 C1621 1.396 . S
C1618 C1616 1.394 . S
C1618 C1619 1.369 . S
C1618 C1622 1.531 . S
C1619 C1618 1.369 . S
C1619 C1620 1.410 . S
C1619 C1627 1.503 . S
C1620 C1619 1.410 . S
C1620 C1621 1.412 . S
C1620 C1623 1.511 . S
C1621 C1617 1.396 . S
C1621 C1620 1.412 . S
C1621 H1633 0.890 1_455 S
C1622 C1618 1.531 . S
C1622 H1634 0.960 . S
C1622 H1635 0.962 . S
C1622 H1636 0.960 . S
C1623 C1620 1.511 . S
C1623 H1637 0.961 1_455 S
C1623 H1638 0.961 . S
C1623 H1639 0.961 1_455 S
C1624 C1625 1.370 . S
C1624 C1626 1.363 . S
C1624 H1640 0.931 . S
C1625 C1624 1.370 . S
C1625 C1629 1.408 . S
C1626 C1624 1.363 . S
C1626 C1627 1.370 . S
C1626 C1630 1.524 . S
C1627 C1619 1.503 . S
C1627 C1626 1.370 . S
C1627 C1628 1.403 . S
C1628 C1627 1.403 . S
C1628 C1629 1.404 . S
C1628 C1631 1.539 . S
C1629 C1625 1.408 . S
C1629 C1628 1.404 . S
C1629 H1641 0.930 . S
C1630 C1626 1.524 . S
C1630 H1642 0.956 . S
C1630 H1643 0.961 . S
C1630 H1644 0.961 . S
C1631 C1628 1.539 . S
C1631 H1645 0.958 . S
C1631 H1646 0.961 . S
C1631 H1647 0.960 . S
H1632 C1616 0.931 . S
H1633 C1621 0.890 1_655 S
H1634 C1622 0.960 . S
H1635 C1622 0.962 . S
H1636 C1622 0.960 . S
H1637 C1623 0.961 1_655 S
H1638 C1623 0.961 . S
H1639 C1623 0.961 1_655 S
H1640 C1624 0.931 . S
H1641 C1629 0.930 . S
H1642 C1630 0.956 . S
H1643 C1630 0.961 . S
H1644 C1630 0.961 . S
H1645 C1631 0.958 . S
H1646 C1631 0.961 . S
H1647 C1631 0.960 . S
C1648 C1649 1.391 . S
C1648 C1650 1.394 . S
C1648 H1664 0.931 . S
C1649 C1648 1.391 . S
C1649 C1653 1.376 . S
C1650 C1648 1.394 . S
C1650 C1651 1.369 . S
C1650 C1654 1.531 . S
C1651 C1650 1.369 . S
C1651 C1652 1.410 . S
C1651 C1659 1.503 . S
C1652 C1651 1.410 . S
C1652 C1653 1.392 . S
C1652 C1655 1.511 . S
C1653 C1649 1.376 . S
C1653 C1652 1.392 . S
C1653 H1665 0.929 . S
C1654 C1650 1.531 . S
C1654 H1666 0.960 . S
C1654 H1667 0.962 . S
C1654 H1668 0.960 . S
C1655 C1652 1.511 . S
C1655 H1669 0.961 . S
C1655 H1670 0.961 . S
C1655 H1671 0.961 . S
C1656 C1657 1.370 . S
C1656 C1658 1.363 . S
C1656 H1672 0.931 . S
C1657 C1656 1.370 . S
C1657 C1661 1.408 . S
C1658 C1656 1.363 . S
C1658 C1659 1.370 . S
C1658 C1662 1.524 . S
C1659 C1651 1.503 . S
C1659 C1658 1.370 . S
C1659 C1660 1.403 . S
C1660 C1659 1.403 . S
C1660 C1661 1.404 . S
C1660 C1663 1.539 . S
C1661 C1657 1.408 . S
C1661 C1660 1.404 . S
C1661 H1673 0.930 . S
C1662 C1658 1.524 . S
C1662 H1674 0.956 . S
C1662 H1675 0.961 . S
C1662 H1676 0.961 . S
C1663 C1660 1.539 . S
C1663 H1677 0.958 . S
C1663 H1678 0.961 . S
C1663 H1679 0.960 . S
H1664 C1648 0.931 . S
H1665 C1653 0.929 . S
H1666 C1654 0.960 . S
H1667 C1654 0.962 . S
H1668 C1654 0.960 . S
H1669 C1655 0.961 . S
H1670 C1655 0.961 . S
H1671 C1655 0.961 . S
H1672 C1656 0.931 . S
H1673 C1661 0.930 . S
H1674 C1662 0.956 . S
H1675 C1662 0.961 . S
H1676 C1662 0.961 . S
H1677 C1663 0.958 . S
H1678 C1663 0.961 . S
H1679 C1663 0.960 . S
C1680 C1681 1.391 . S
C1680 C1682 1.394 . S
C1680 H1696 0.931 . S
C1681 C1680 1.391 . S
C1681 C1685 1.376 1_655 S
C1682 C1680 1.394 . S
C1682 C1683 1.369 . S
C1682 C1686 1.531 . S
C1683 C1682 1.369 . S
C1683 C1684 1.410 1_655 S
C1683 C1691 1.500 1_655 S
C1684 C1683 1.410 1_455 S
C1684 C1685 1.392 . S
C1684 C1687 1.511 . S
C1685 C1681 1.376 1_455 S
C1685 C1684 1.392 . S
C1685 H1697 0.929 1_556 S
C1686 C1682 1.531 . S
C1686 H1698 0.960 . S
C1686 H1699 0.962 . S
C1686 H1700 0.960 . S
C1687 C1684 1.511 . S
C1687 H1701 0.961 . S
C1687 H1702 0.961 . S
C1687 H1703 0.961 . S
C1688 C1689 1.370 1_655 S
C1688 C1690 1.363 . S
C1688 H1704 0.931 . S
C1689 C1688 1.370 1_455 S
C1689 C1693 1.408 . S
C1690 C1688 1.363 . S
C1690 C1691 1.363 1_655 S
C1690 C1694 1.524 . S
C1691 C1683 1.500 1_455 S
C1691 C1690 1.363 1_455 S
C1691 C1692 1.413 . S
C1692 C1691 1.413 . S
C1692 C1693 1.404 . S
C1692 C1695 1.539 . S
C1693 C1689 1.408 . S
C1693 C1692 1.404 . S
C1693 H1705 0.930 . S
C1694 C1690 1.524 . S
C1694 H1706 0.956 . S
C1694 H1707 0.961 . S
C1694 H1708 0.961 . S
C1695 C1692 1.539 . S
C1695 H1709 0.958 . S
C1695 H1710 0.961 . S
C1695 H1711 0.960 . S
H1696 C1680 0.931 . S
H1697 C1685 0.929 1_554 S
H1698 C1686 0.960 . S
H1699 C1686 0.962 . S
H1700 C1686 0.960 . S
H1701 C1687 0.961 . S
H1702 C1687 0.961 . S
H1703 C1687 0.961 . S
H1704 C1688 0.931 . S
H1705 C1693 0.930 . S
H1706 C1694 0.956 . S
H1707 C1694 0.961 . S
H1708 C1694 0.961 . S
H1709 C1695 0.958 . S
H1710 C1695 0.961 . S
H1711 C1695 0.960 . S
C1712 C1713 1.391 . S
C1712 C1714 1.394 . S
C1712 H1728 0.931 . S
C1713 C1712 1.391 . S
C1713 C1717 1.376 . S
C1714 C1712 1.394 . S
C1714 C1715 1.369 . S
C1714 C1718 1.531 . S
C1715 C1714 1.369 . S
C1715 C1716 1.410 . S
C1715 C1723 1.503 . S
C1716 C1715 1.410 . S
C1716 C1717 1.392 . S
C1716 C1719 1.511 . S
C1717 C1713 1.376 . S
C1717 C1716 1.392 . S
C1717 H1729 0.929 . S
C1718 C1714 1.531 . S
C1718 H1730 0.960 . S
C1718 H1731 0.962 . S
C1718 H1732 0.960 . S
C1719 C1716 1.511 . S
C1719 H1733 0.961 . S
C1719 H1734 0.961 . S
C1719 H1735 0.961 . S
C1720 C1721 1.370 . S
C1720 C1722 1.363 . S
C1720 H1736 0.931 . S
C1721 C1720 1.370 . S
C1721 C1725 1.408 . S
C1722 C1720 1.363 . S
C1722 C1723 1.370 . S
C1722 C1726 1.524 . S
C1723 C1715 1.503 . S
C1723 C1722 1.370 . S
C1723 C1724 1.403 . S
C1724 C1723 1.403 . S
C1724 C1725 1.404 . S
C1724 C1727 1.539 . S
C1725 C1721 1.408 . S
C1725 C1724 1.404 . S
C1725 H1737 0.930 . S
C1726 C1722 1.524 . S
C1726 H1738 0.956 . S
C1726 H1739 0.961 . S
C1726 H1740 0.961 . S
C1727 C1724 1.539 . S
C1727 H1741 0.958 . S
C1727 H1742 0.961 . S
C1727 H1743 0.960 . S
H1728 C1712 0.931 . S
H1729 C1717 0.929 . S
H1730 C1718 0.960 . S
H1731 C1718 0.962 . S
H1732 C1718 0.960 . S
H1733 C1719 0.961 . S
H1734 C1719 0.961 . S
H1735 C1719 0.961 . S
H1736 C1720 0.931 . S
H1737 C1725 0.930 . S
H1738 C1726 0.956 . S
H1739 C1726 0.961 . S
H1740 C1726 0.961 . S
H1741 C1727 0.958 . S
H1742 C1727 0.961 . S
H1743 C1727 0.960 . S
C1744 C1745 1.391 . S
C1744 C1746 1.394 . S
C1744 H1760 0.931 . S
C1745 C1744 1.391 . S
C1745 C1749 1.376 . S
C1746 C1744 1.394 . S
C1746 C1747 1.369 . S
C1746 C1750 1.531 . S
C1747 C1746 1.369 . S
C1747 C1748 1.410 . S
C1747 C1755 1.503 . S
C1748 C1747 1.410 . S
C1748 C1749 1.392 . S
C1748 C1751 1.511 1_455 S
C1749 C1745 1.376 . S
C1749 C1748 1.392 . S
C1749 H1761 0.929 . S
C1750 C1746 1.531 . S
C1750 H1762 0.960 . S
C1750 H1763 0.962 . S
C1750 H1764 0.960 . S
C1751 C1748 1.511 1_655 S
C1751 H1765 0.961 . S
C1751 H1766 0.961 . S
C1751 H1767 0.961 . S
C1752 C1753 1.370 . S
C1752 C1754 1.363 . S
C1752 H1768 0.931 . S
C1753 C1752 1.370 . S
C1753 C1757 1.408 . S
C1754 C1752 1.363 . S
C1754 C1755 1.370 . S
C1754 C1758 1.524 . S
C1755 C1747 1.503 . S
C1755 C1754 1.370 . S
C1755 C1756 1.403 . S
C1756 C1755 1.403 . S
C1756 C1757 1.404 . S
C1756 C1759 1.539 . S
C1757 C1753 1.408 . S
C1757 C1756 1.404 . S
C1757 H1769 0.930 . S
C1758 C1754 1.524 . S
C1758 H1770 0.956 . S
C1758 H1771 0.961 . S
C1758 H1772 0.961 . S
C1759 C1756 1.539 . S
C1759 H1773 0.958 . S
C1759 H1774 0.961 1_455 S
C1759 H1775 0.960 . S
H1760 C1744 0.931 . S
H1761 C1749 0.929 . S
H1762 C1750 0.960 . S
H1763 C1750 0.962 . S
H1764 C1750 0.960 . S
H1765 C1751 0.961 . S
H1766 C1751 0.961 . S
H1767 C1751 0.961 . S
H1768 C1752 0.931 . S
H1769 C1757 0.930 . S
H1770 C1758 0.956 . S
H1771 C1758 0.961 . S
H1772 C1758 0.961 . S
H1773 C1759 0.958 . S
H1774 C1759 0.961 1_655 S
H1775 C1759 0.960 . S
C1776 C1777 1.391 . S
C1776 C1778 1.394 . S
C1776 H1792 0.931 . S
C1777 C1776 1.391 . S
C1777 C1781 1.376 . S
C1778 C1776 1.394 . S
C1778 C1779 1.369 . S
C1778 C1782 1.531 . S
C1779 C1778 1.369 . S
C1779 C1780 1.410 . S
C1779 C1787 1.503 . S
C1780 C1779 1.410 . S
C1780 C1781 1.392 . S
C1780 C1783 1.511 . S
C1781 C1777 1.376 . S
C1781 C1780 1.392 . S
C1781 H1793 0.929 . S
C1782 C1778 1.531 . S
C1782 H1794 0.960 . S
C1782 H1795 0.962 . S
C1782 H1796 0.960 . S
C1783 C1780 1.511 . S
C1783 H1797 0.961 . S
C1783 H1798 0.961 . S
C1783 H1799 0.961 . S
C1784 C1785 1.370 . S
C1784 C1786 1.363 . S
C1784 H1800 0.931 . S
C1785 C1784 1.370 . S
C1785 C1789 1.408 . S
C1786 C1784 1.363 . S
C1786 C1787 1.370 . S
C1786 C1790 1.524 . S
C1787 C1779 1.503 . S
C1787 C1786 1.370 . S
C1787 C1788 1.403 . S
C1788 C1787 1.403 . S
C1788 C1789 1.404 . S
C1788 C1791 1.539 . S
C1789 C1785 1.408 . S
C1789 C1788 1.404 . S
C1789 H1801 0.930 . S
C1790 C1786 1.524 . S
C1790 H1802 0.956 . S
C1790 H1803 0.961 . S
C1790 H1804 0.961 . S
C1791 C1788 1.539 . S
C1791 H1805 0.958 . S
C1791 H1806 0.961 . S
C1791 H1807 0.960 . S
H1792 C1776 0.931 . S
H1793 C1781 0.929 . S
H1794 C1782 0.960 . S
H1795 C1782 0.962 . S
H1796 C1782 0.960 . S
H1797 C1783 0.961 . S
H1798 C1783 0.961 . S
H1799 C1783 0.961 . S
H1800 C1784 0.931 . S
H1801 C1789 0.930 . S
H1802 C1790 0.956 . S
H1803 C1790 0.961 . S
H1804 C1790 0.961 . S
H1805 C1791 0.958 . S
H1806 C1791 0.961 . S
H1807 C1791 0.960 . S
C1808 C1809 1.391 . S
C1808 C1810 1.394 . S
C1808 H1824 0.931 . S
C1809 C1808 1.391 . S
C1809 C1813 1.376 . S
C1810 C1808 1.394 . S
C1810 C1811 1.369 . S
C1810 C1814 1.531 . S
C1811 C1810 1.369 . S
C1811 C1812 1.410 . S
C1811 C1819 1.503 . S
C1812 C1811 1.410 . S
C1812 C1813 1.392 . S
C1812 C1815 1.511 . S
C1813 C1809 1.376 . S
C1813 C1812 1.392 . S
C1813 H1825 0.929 1_554 S
C1814 C1810 1.531 . S
C1814 H1826 0.960 . S
C1814 H1827 0.962 . S
C1814 H1828 0.960 . S
C1815 C1812 1.511 . S
C1815 H1829 0.961 . S
C1815 H1830 0.961 . S
C1815 H1831 0.961 . S
C1816 C1817 1.370 . S
C1816 C1818 1.363 . S
C1816 H1832 0.931 . S
C1817 C1816 1.370 . S
C1817 C1821 1.408 . S
C1818 C1816 1.363 . S
C1818 C1819 1.370 . S
C1818 C1822 1.524 . S
C1819 C1811 1.503 . S
C1819 C1818 1.370 . S
C1819 C1820 1.403 . S
C1820 C1819 1.403 . S
C1820 C1821 1.404 . S
C1820 C1823 1.539 . S
C1821 C1817 1.408 . S
C1821 C1820 1.404 . S
C1821 H1833 0.930 . S
C1822 C1818 1.524 . S
C1822 H1834 0.956 . S
C1822 H1835 0.961 . S
C1822 H1836 0.961 . S
C1823 C1820 1.539 . S
C1823 H1837 0.958 . S
C1823 H1838 0.961 . S
C1823 H1839 0.960 . S
H1824 C1808 0.931 . S
H1825 C1813 0.929 1_556 S
H1826 C1814 0.960 . S
H1827 C1814 0.962 . S
H1828 C1814 0.960 . S
H1829 C1815 0.961 . S
H1830 C1815 0.961 . S
H1831 C1815 0.961 . S
H1832 C1816 0.931 . S
H1833 C1821 0.930 . S
H1834 C1822 0.956 . S
H1835 C1822 0.961 . S
H1836 C1822 0.961 . S
H1837 C1823 0.958 . S
H1838 C1823 0.961 . S
H1839 C1823 0.960 . S
C1840 C1841 1.391 . S
C1840 C1842 1.394 . S
C1840 H1856 0.931 . S
C1841 C1840 1.391 . S
C1841 C1845 1.376 . S
C1842 C1840 1.394 . S
C1842 C1843 1.369 . S
C1842 C1846 1.531 . S
C1843 C1842 1.369 . S
C1843 C1844 1.410 . S
C1843 C1851 1.503 . S
C1844 C1843 1.410 . S
C1844 C1845 1.392 . S
C1844 C1847 1.511 . S
C1845 C1841 1.376 . S
C1845 C1844 1.392 . S
C1845 H1857 0.929 . S
C1846 C1842 1.531 . S
C1846 H1858 0.960 . S
C1846 H1859 0.962 . S
C1846 H1860 0.960 . S
C1847 C1844 1.511 . S
C1847 H1861 0.961 . S
C1847 H1862 0.961 . S
C1847 H1863 0.961 . S
C1848 C1849 1.370 . S
C1848 C1850 1.363 . S
C1848 H1864 0.931 . S
C1849 C1848 1.370 . S
C1849 C1853 1.408 . S
C1850 C1848 1.363 . S
C1850 C1851 1.370 . S
C1850 C1854 1.524 . S
C1851 C1843 1.503 . S
C1851 C1850 1.370 . S
C1851 C1852 1.403 . S
C1852 C1851 1.403 . S
C1852 C1853 1.404 . S
C1852 C1855 1.539 . S
C1853 C1849 1.408 . S
C1853 C1852 1.404 . S
C1853 H1865 0.930 . S
C1854 C1850 1.524 . S
C1854 H1866 0.956 . S
C1854 H1867 0.961 . S
C1854 H1868 0.961 . S
C1855 C1852 1.539 . S
C1855 H1869 0.958 . S
C1855 H1870 0.961 . S
C1855 H1871 0.960 . S
H1856 C1840 0.931 . S
H1857 C1845 0.929 . S
H1858 C1846 0.960 . S
H1859 C1846 0.962 . S
H1860 C1846 0.960 . S
H1861 C1847 0.961 . S
H1862 C1847 0.961 . S
H1863 C1847 0.961 . S
H1864 C1848 0.931 . S
H1865 C1853 0.930 . S
H1866 C1854 0.956 . S
H1867 C1854 0.961 . S
H1868 C1854 0.961 . S
H1869 C1855 0.958 . S
H1870 C1855 0.961 . S
H1871 C1855 0.960 . S
C1872 C1873 1.391 . S
C1872 C1874 1.394 . S
C1872 H1888 0.931 . S
C1873 C1872 1.391 . S
C1873 C1877 1.376 . S
C1874 C1872 1.394 . S
C1874 C1875 1.369 . S
C1874 C1878 1.531 . S
C1875 C1874 1.369 . S
C1875 C1876 1.410 . S
C1875 C1883 1.503 . S
C1876 C1875 1.410 . S
C1876 C1877 1.392 . S
C1876 C1879 1.511 . S
C1877 C1873 1.376 . S
C1877 C1876 1.392 . S
C1877 H1889 0.929 1_554 S
C1878 C1874 1.531 . S
C1878 H1890 0.960 . S
C1878 H1891 0.962 . S
C1878 H1892 0.960 . S
C1879 C1876 1.511 . S
C1879 H1893 0.961 1_554 S
C1879 H1894 0.961 . S
C1879 H1895 0.961 . S
C1880 C1881 1.370 . S
C1880 C1882 1.363 . S
C1880 H1896 0.931 . S
C1881 C1880 1.370 . S
C1881 C1885 1.408 . S
C1882 C1880 1.363 . S
C1882 C1883 1.370 . S
C1882 C1886 1.524 . S
C1883 C1875 1.503 . S
C1883 C1882 1.370 . S
C1883 C1884 1.403 . S
C1884 C1883 1.403 . S
C1884 C1885 1.404 . S
C1884 C1887 1.539 . S
C1885 C1881 1.408 . S
C1885 C1884 1.404 . S
C1885 H1897 0.930 . S
C1886 C1882 1.524 . S
C1886 H1898 0.956 . S
C1886 H1899 0.961 . S
C1886 H1900 0.961 . S
C1887 C1884 1.539 . S
C1887 H1901 0.958 . S
C1887 H1902 0.961 . S
C1887 H1903 0.960 . S
H1888 C1872 0.931 . S
H1889 C1877 0.929 1_556 S
H1890 C1878 0.960 . S
H1891 C1878 0.962 . S
H1892 C1878 0.960 . S
H1893 C1879 0.961 1_556 S
H1894 C1879 0.961 . S
H1895 C1879 0.961 . S
H1896 C1880 0.931 . S
H1897 C1885 0.930 . S
H1898 C1886 0.956 . S
H1899 C1886 0.961 . S
H1900 C1886 0.961 . S
H1901 C1887 0.958 . S
H1902 C1887 0.961 . S
H1903 C1887 0.960 . S
C1904 C1905 1.391 . S
C1904 C1906 1.394 . S
C1904 H1920 0.931 . S
C1905 C1904 1.391 . S
C1905 C1909 1.376 . S
C1906 C1904 1.394 . S
C1906 C1907 1.369 . S
C1906 C1910 1.531 . S
C1907 C1906 1.369 . S
C1907 C1908 1.410 . S
C1907 C1915 1.503 . S
C1908 C1907 1.410 . S
C1908 C1909 1.392 . S
C1908 C1911 1.511 . S
C1909 C1905 1.376 . S
C1909 C1908 1.392 . S
C1909 H1921 0.929 . S
C1910 C1906 1.531 . S
C1910 H1922 0.960 . S
C1910 H1923 0.962 . S
C1910 H1924 0.960 . S
C1911 C1908 1.511 . S
C1911 H1925 0.961 . S
C1911 H1926 0.961 . S
C1911 H1927 0.961 . S
C1912 C1913 1.370 . S
C1912 C1914 1.363 . S
C1912 H1928 0.931 . S
C1913 C1912 1.370 . S
C1913 C1917 1.408 . S
C1914 C1912 1.363 . S
C1914 C1915 1.370 . S
C1914 C1918 1.524 . S
C1915 C1907 1.503 . S
C1915 C1914 1.370 . S
C1915 C1916 1.403 . S
C1916 C1915 1.403 . S
C1916 C1917 1.404 . S
C1916 C1919 1.539 . S
C1917 C1913 1.408 . S
C1917 C1916 1.404 . S
C1917 H1929 0.930 . S
C1918 C1914 1.524 . S
C1918 H1930 0.956 . S
C1918 H1931 0.961 . S
C1918 H1932 0.961 . S
C1919 C1916 1.539 . S
C1919 H1933 0.958 . S
C1919 H1934 0.961 . S
C1919 H1935 0.960 . S
H1920 C1904 0.931 . S
H1921 C1909 0.929 . S
H1922 C1910 0.960 . S
H1923 C1910 0.962 . S
H1924 C1910 0.960 . S
H1925 C1911 0.961 . S
H1926 C1911 0.961 . S
H1927 C1911 0.961 . S
H1928 C1912 0.931 . S
H1929 C1917 0.930 . S
H1930 C1918 0.956 . S
H1931 C1918 0.961 . S
H1932 C1918 0.961 . S
H1933 C1919 0.958 . S
H1934 C1919 0.961 . S
H1935 C1919 0.960 . S
C1936 C1937 1.391 . S
C1936 C1938 1.394 . S
C1936 H1952 0.931 . S
C1937 C1936 1.391 . S
C1937 C1941 1.376 . S
C1938 C1936 1.394 . S
C1938 C1939 1.369 . S
C1938 C1942 1.531 . S
C1939 C1938 1.369 . S
C1939 C1940 1.410 . S
C1939 C1947 1.503 . S
C1940 C1939 1.410 . S
C1940 C1941 1.392 . S
C1940 C1943 1.511 . S
C1941 C1937 1.376 . S
C1941 C1940 1.392 . S
C1941 H1953 0.929 . S
C1942 C1938 1.531 . S
C1942 H1954 0.960 . S
C1942 H1955 0.962 . S
C1942 H1956 0.960 . S
C1943 C1940 1.511 . S
C1943 H1957 0.961 . S
C1943 H1958 0.961 . S
C1943 H1959 0.961 . S
C1944 C1945 1.370 . S
C1944 C1946 1.363 . S
C1944 H1960 0.931 . S
C1945 C1944 1.370 . S
C1945 C1949 1.408 . S
C1946 C1944 1.363 . S
C1946 C1947 1.370 . S
C1946 C1950 1.524 . S
C1947 C1939 1.503 . S
C1947 C1946 1.370 . S
C1947 C1948 1.403 . S
C1948 C1947 1.403 . S
C1948 C1949 1.404 . S
C1948 C1951 1.539 . S
C1949 C1945 1.408 . S
C1949 C1948 1.404 . S
C1949 H1961 0.930 . S
C1950 C1946 1.524 . S
C1950 H1962 0.956 . S
C1950 H1963 0.961 . S
C1950 H1964 0.961 . S
C1951 C1948 1.539 . S
C1951 H1965 0.958 . S
C1951 H1966 0.961 . S
C1951 H1967 0.960 . S
H1952 C1936 0.931 . S
H1953 C1941 0.929 . S
H1954 C1942 0.960 . S
H1955 C1942 0.962 . S
H1956 C1942 0.960 . S
H1957 C1943 0.961 . S
H1958 C1943 0.961 . S
H1959 C1943 0.961 . S
H1960 C1944 0.931 . S
H1961 C1949 0.930 . S
H1962 C1950 0.956 . S
H1963 C1950 0.961 . S
H1964 C1950 0.961 . S
H1965 C1951 0.958 . S
H1966 C1951 0.961 . S
H1967 C1951 0.960 . S
C1968 C1969 1.391 . S
C1968 C1970 1.394 . S
C1968 H1984 0.931 . S
C1969 C1968 1.391 . S
C1969 C1973 1.376 . S
C1970 C1968 1.394 . S
C1970 C1971 1.369 . S
C1970 C1974 1.531 . S
C1971 C1970 1.369 . S
C1971 C1972 1.410 . S
C1971 C1979 1.503 . S
C1972 C1971 1.410 . S
C1972 C1973 1.392 . S
C1972 C1975 1.511 . S
C1973 C1969 1.376 . S
C1973 C1972 1.392 . S
C1973 H1985 0.929 . S
C1974 C1970 1.531 . S
C1974 H1986 0.960 . S
C1974 H1987 0.962 . S
C1974 H1988 0.960 . S
C1975 C1972 1.511 . S
C1975 H1989 0.961 . S
C1975 H1990 0.961 . S
C1975 H1991 0.961 . S
C1976 C1977 1.370 . S
C1976 C1978 1.363 . S
C1976 H1992 0.931 . S
C1977 C1976 1.370 . S
C1977 C1981 1.408 . S
C1978 C1976 1.363 . S
C1978 C1979 1.370 . S
C1978 C1982 1.524 . S
C1979 C1971 1.503 . S
C1979 C1978 1.370 . S
C1979 C1980 1.403 . S
C1980 C1979 1.403 . S
C1980 C1981 1.404 . S
C1980 C1983 1.539 . S
C1981 C1977 1.408 . S
C1981 C1980 1.404 . S
C1981 H1993 0.930 . S
C1982 C1978 1.524 . S
C1982 H1994 0.956 . S
C1982 H1995 0.961 . S
C1982 H1996 0.961 . S
C1983 C1980 1.539 . S
C1983 H1997 0.958 . S
C1983 H1998 0.961 . S
C1983 H1999 0.960 . S
H1984 C1968 0.931 . S
H1985 C1973 0.929 . S
H1986 C1974 0.960 . S
H1987 C1974 0.962 . S
H1988 C1974 0.960 . S
H1989 C1975 0.961 . S
H1990 C1975 0.961 . S
H1991 C1975 0.961 . S
H1992 C1976 0.931 . S
H1993 C1981 0.930 . S
H1994 C1982 0.956 . S
H1995 C1982 0.961 . S
H1996 C1982 0.961 . S
H1997 C1983 0.958 . S
H1998 C1983 0.961 . S
H1999 C1983 0.960 . S
C2000 C2001 1.391 . S
C2000 C2002 1.394 . S
C2000 H2016 0.931 . S
C2001 C2000 1.391 . S
C2001 C2005 1.376 . S
C2002 C2000 1.394 . S
C2002 C2003 1.369 . S
C2002 C2006 1.531 . S
C2003 C2002 1.369 . S
C2003 C2004 1.410 . S
C2003 C2011 1.503 . S
C2004 C2003 1.410 . S
C2004 C2005 1.392 . S
C2004 C2007 1.511 . S
C2005 C2001 1.376 . S
C2005 C2004 1.392 . S
C2005 H2017 0.929 . S
C2006 C2002 1.531 . S
C2006 H2018 0.960 . S
C2006 H2019 0.962 . S
C2006 H2020 0.960 . S
C2007 C2004 1.511 . S
C2007 H2021 0.961 . S
C2007 H2022 0.961 . S
C2007 H2023 0.961 . S
C2008 C2009 1.370 . S
C2008 C2010 1.363 . S
C2008 H2024 0.931 . S
C2009 C2008 1.370 . S
C2009 C2013 1.408 . S
C2010 C2008 1.363 . S
C2010 C2011 1.370 . S
C2010 C2014 1.524 . S
C2011 C2003 1.503 . S
C2011 C2010 1.370 . S
C2011 C2012 1.403 . S
C2012 C2011 1.403 . S
C2012 C2013 1.404 . S
C2012 C2015 1.539 . S
C2013 C2009 1.408 . S
C2013 C2012 1.404 . S
C2013 H2025 0.930 . S
C2014 C2010 1.524 . S
C2014 H2026 0.956 . S
C2014 H2027 0.961 . S
C2014 H2028 0.961 . S
C2015 C2012 1.539 . S
C2015 H2029 0.958 . S
C2015 H2030 0.961 . S
C2015 H2031 0.960 . S
H2016 C2000 0.931 . S
H2017 C2005 0.929 . S
H2018 C2006 0.960 . S
H2019 C2006 0.962 . S
H2020 C2006 0.960 . S
H2021 C2007 0.961 . S
H2022 C2007 0.961 . S
H2023 C2007 0.961 . S
H2024 C2008 0.931 . S
H2025 C2013 0.930 . S
H2026 C2014 0.956 . S
H2027 C2014 0.961 . S
H2028 C2014 0.961 . S
H2029 C2015 0.958 . S
H2030 C2015 0.961 . S
H2031 C2015 0.960 . S
C2032 C2033 1.391 . S
C2032 C2034 1.394 . S
C2032 H2048 0.924 1_556 S
C2033 C2032 1.391 . S
C2033 C2037 1.376 . S
C2034 C2032 1.394 . S
C2034 C2035 1.369 . S
C2034 C2038 1.531 1_556 S
C2035 C2034 1.369 . S
C2035 C2036 1.410 . S
C2035 C2043 1.503 . S
C2036 C2035 1.410 . S
C2036 C2037 1.392 . S
C2036 C2039 1.511 . S
C2037 C2033 1.376 . S
C2037 C2036 1.392 . S
C2037 H2049 0.929 . S
C2038 C2034 1.531 1_554 S
C2038 H2050 0.960 . S
C2038 H2051 0.962 . S
C2038 H2052 0.960 . S
C2039 C2036 1.511 . S
C2039 H2053 0.961 . S
C2039 H2054 0.961 . S
C2039 H2055 0.961 . S
C2040 C2041 1.370 . S
C2040 C2042 1.363 . S
C2040 H2056 0.931 . S
C2041 C2040 1.370 . S
C2041 C2045 1.408 1_556 S
C2042 C2040 1.363 . S
C2042 C2043 1.370 . S
C2042 C2046 1.524 . S
C2043 C2035 1.503 . S
C2043 C2042 1.370 . S
C2043 C2044 1.403 1_556 S
C2044 C2043 1.403 1_554 S
C2044 C2045 1.404 . S
C2044 C2047 1.539 . S
C2045 C2041 1.408 1_554 S
C2045 C2044 1.404 . S
C2045 H2057 0.930 . S
C2046 C2042 1.524 . S
C2046 H2058 0.956 . S
C2046 H2059 0.961 . S
C2046 H2060 0.961 . S
C2047 C2044 1.539 . S
C2047 H2061 0.958 . S
C2047 H2062 0.961 . S
C2047 H2063 0.960 . S
H2048 C2032 0.924 1_554 S
H2049 C2037 0.929 . S
H2050 C2038 0.960 . S
H2051 C2038 0.962 . S
H2052 C2038 0.960 . S
H2053 C2039 0.961 . S
H2054 C2039 0.961 . S
H2055 C2039 0.961 . S
H2056 C2040 0.931 . S
H2057 C2045 0.930 . S
H2058 C2046 0.956 . S
H2059 C2046 0.961 . S
H2060 C2046 0.961 . S
H2061 C2047 0.958 . S
H2062 C2047 0.961 . S
H2063 C2047 0.960 . S
C2064 C2065 1.391 . S
C2064 C2066 1.394 . S
C2064 H2080 0.931 . S
C2065 C2064 1.391 . S
C2065 C2069 1.376 . S
C2066 C2064 1.394 . S
C2066 C2067 1.369 . S
C2066 C2070 1.531 . S
C2067 C2066 1.369 . S
C2067 C2068 1.410 . S
C2067 C2075 1.503 . S
C2068 C2067 1.410 . S
C2068 C2069 1.392 . S
C2068 C2071 1.511 . S
C2069 C2065 1.376 . S
C2069 C2068 1.392 . S
C2069 H2081 0.929 . S
C2070 C2066 1.531 . S
C2070 H2082 0.960 . S
C2070 H2083 0.962 . S
C2070 H2084 0.960 . S
C2071 C2068 1.511 . S
C2071 H2085 0.961 . S
C2071 H2086 0.961 . S
C2071 H2087 0.961 . S
C2072 C2073 1.370 . S
C2072 C2074 1.363 . S
C2072 H2088 0.931 . S
C2073 C2072 1.370 . S
C2073 C2077 1.408 . S
C2074 C2072 1.363 . S
C2074 C2075 1.370 . S
C2074 C2078 1.524 . S
C2075 C2067 1.503 . S
C2075 C2074 1.370 . S
C2075 C2076 1.403 . S
C2076 C2075 1.403 . S
C2076 C2077 1.404 . S
C2076 C2079 1.539 . S
C2077 C2073 1.408 . S
C2077 C2076 1.404 . S
C2077 H2089 0.930 . S
C2078 C2074 1.524 . S
C2078 H2090 0.956 . S
C2078 H2091 0.961 . S
C2078 H2092 0.961 . S
C2079 C2076 1.539 . S
C2079 H2093 0.958 . S
C2079 H2094 0.961 . S
C2079 H2095 0.960 . S
H2080 C2064 0.931 . S
H2081 C2069 0.929 . S
H2082 C2070 0.960 . S
H2083 C2070 0.962 . S
H2084 C2070 0.960 . S
H2085 C2071 0.961 . S
H2086 C2071 0.961 . S
H2087 C2071 0.961 . S
H2088 C2072 0.931 . S
H2089 C2077 0.930 . S
H2090 C2078 0.956 . S
H2091 C2078 0.961 . S
H2092 C2078 0.961 . S
H2093 C2079 0.958 . S
H2094 C2079 0.961 . S
H2095 C2079 0.960 . S
C2096 C2097 1.391 . S
C2096 C2098 1.394 . S
C2096 H2112 0.902 1_554 S
C2097 C2096 1.391 . S
C2097 C2101 1.376 . S
C2098 C2096 1.394 . S
C2098 C2099 1.369 . S
C2098 C2102 1.531 1_554 S
C2099 C2098 1.369 . S
C2099 C2100 1.410 . S
C2099 C2107 1.503 . S
C2100 C2099 1.410 . S
C2100 C2101 1.392 . S
C2100 C2103 1.511 . S
C2101 C2097 1.376 . S
C2101 C2100 1.392 . S
C2101 H2113 0.929 . S
C2102 C2098 1.531 1_556 S
C2102 H2114 0.960 . S
C2102 H2115 0.962 . S
C2102 H2116 0.960 . S
C2103 C2100 1.511 . S
C2103 H2117 0.961 . S
C2103 H2118 0.961 . S
C2103 H2119 0.961 . S
C2104 C2105 1.370 . S
C2104 C2106 1.363 . S
C2104 H2120 0.931 . S
C2105 C2104 1.370 . S
C2105 C2109 1.408 . S
C2106 C2104 1.363 . S
C2106 C2107 1.370 . S
C2106 C2110 1.524 . S
C2107 C2099 1.503 . S
C2107 C2106 1.370 . S
C2107 C2108 1.403 . S
C2108 C2107 1.403 . S
C2108 C2109 1.404 . S
C2108 C2111 1.539 1_554 S
C2109 C2105 1.408 . S
C2109 C2108 1.404 . S
C2109 H2121 0.930 1_554 S
C2110 C2106 1.524 . S
C2110 H2122 0.956 . S
C2110 H2123 0.961 . S
C2110 H2124 0.961 . S
C2111 C2108 1.539 1_556 S
C2111 H2125 0.958 . S
C2111 H2126 0.961 1_556 S
C2111 H2127 0.959 1_556 S
H2112 C2096 0.902 1_556 S
H2113 C2101 0.929 . S
H2114 C2102 0.960 . S
H2115 C2102 0.962 . S
H2116 C2102 0.960 . S
H2117 C2103 0.961 . S
H2118 C2103 0.961 . S
H2119 C2103 0.961 . S
H2120 C2104 0.931 . S
H2121 C2109 0.930 1_556 S
H2122 C2110 0.956 . S
H2123 C2110 0.961 . S
H2124 C2110 0.961 . S
H2125 C2111 0.958 . S
H2126 C2111 0.961 1_554 S
H2127 C2111 0.959 1_554 S
C2128 C2129 1.391 . S
C2128 C2130 1.394 . S
C2128 H2144 0.931 . S
C2129 C2128 1.391 . S
C2129 C2133 1.376 1_565 S
C2130 C2128 1.394 . S
C2130 C2131 1.369 . S
C2130 C2134 1.531 1_554 S
C2131 C2130 1.369 . S
C2131 C2132 1.410 . S
C2131 C2139 1.503 . S
C2132 C2131 1.410 . S
C2132 C2133 1.392 1_565 S
C2132 C2135 1.511 1_565 S
C2133 C2129 1.376 1_545 S
C2133 C2132 1.392 1_545 S
C2133 H2145 0.929 . S
C2134 C2130 1.531 1_556 S
C2134 H2146 0.960 . S
C2134 H2147 0.962 . S
C2134 H2148 0.960 . S
C2135 C2132 1.511 1_545 S
C2135 H2149 0.961 . S
C2135 H2150 0.961 1_545 S
C2135 H2151 0.961 . S
C2136 C2137 1.370 . S
C2136 C2138 1.363 . S
C2136 H2152 0.931 . S
C2137 C2136 1.370 . S
C2137 C2141 1.408 . S
C2138 C2136 1.363 . S
C2138 C2139 1.370 . S
C2138 C2142 1.524 . S
C2139 C2131 1.503 . S
C2139 C2138 1.370 . S
C2139 C2140 1.403 . S
C2140 C2139 1.403 . S
C2140 C2141 1.404 . S
C2140 C2143 1.539 1_554 S
C2141 C2137 1.408 . S
C2141 C2140 1.404 . S
C2141 H2153 0.925 1_554 S
C2142 C2138 1.524 . S
C2142 H2154 0.956 . S
C2142 H2155 0.961 . S
C2142 H2156 0.961 . S
C2143 C2140 1.539 1_556 S
C2143 H2157 0.958 . S
C2143 H2158 0.961 . S
C2143 H2159 0.960 1_566 S
H2144 C2128 0.931 . S
H2145 C2133 0.929 . S
H2146 C2134 0.960 . S
H2147 C2134 0.962 . S
H2148 C2134 0.960 . S
H2149 C2135 0.961 . S
H2150 C2135 0.961 1_565 S
H2151 C2135 0.961 . S
H2152 C2136 0.931 . S
H2153 C2141 0.925 1_556 S
H2154 C2142 0.956 . S
H2155 C2142 0.961 . S
H2156 C2142 0.961 . S
H2157 C2143 0.958 . S
H2158 C2143 0.961 . S
H2159 C2143 0.960 1_544 S
C633 C194 1.682 . S
C625 C66 1.686 . S
C665 C242 1.250 . S
C657 C76 1.271 . S
C689 C93 1.731 . S
C697 C278 1.672 . S
C729 C314 1.546 . S
C721 C54 1.590 . S
C761 C340 1.453 . S
C753 C126 1.444 . S
C793 C376 1.855 . S
C785 C150 1.879 . S
C817 C136 1.185 . S
C825 C411 1.217 . S
C857 C448 1.817 . S
C849 C117 1.819 . S
C881 C141 1.218 . S
C889 C482 1.241 . S
C921 C530 1.344 . S
C913 C112 1.391 . S
C945 C124 1.464 . S
C953 C483 1.500 . S
C985 C520 1.417 . S
C977 C148 1.414 . S
C1009 C88 1.273 . S
C1017 C566 1.202 . S
C1041 C52 1.685 . S
C1049 C555 1.684 . S
C1073 C64 1.256 . S
C1081 C556 1.254 . S
C1105 C78 1.314 . S
C1113 C554 1.327 . S
C1137 C45 1.616 . S
C1145 C302 1.607 . S
C1169 C177 1.782 . S
C1177 C303 1.792 . S
C1209 C206 1.499 . S
C1201 C189 1.547 . S
C1241 C231 1.556 . S
C1233 C102 1.534 . S
C1265 C57 1.799 . S
C1273 C338 1.815 . S
C1305 C446 1.411 . S
C1297 C138 1.450 . S
C1337 C339 1.789 . S
C1329 C114 1.793 . S
C1369 C412 1.816 . S
C1361 C153 1.811 . S
C1401 C410 1.689 . S
C1393 C174 1.669 . S
C1425 C184 1.291 . S
C1433 C458 1.260 . S
C1457 C105 1.728 . S
C1465 C350 1.654 . S
C1497 C386 1.546 . S
C1489 C162 1.590 . S
C1521 C42 1.452 . S
C1529 C268 1.453 . S
C1561 C304 1.855 . S
C1553 C6 1.880 . S
C1593 C195 1.214 . S
C1585 C16 1.221 . S
C1625 C232 1.814 . S
C1617 C33 1.821 1_455 S
C1649 C21 1.232 . S
C1657 C518 1.237 . S
C1681 C28 1.368 1_556 S
C1689 C494 1.370 . S
C1713 C40 1.480 . S
C1721 C519 1.500 . S
C1745 C4 1.413 . S
C1753 C484 1.419 . S
C1785 C602 1.202 . S
C1777 C100 1.257 . S
C1817 C591 1.684 . S
C1809 C160 1.686 . S
C1849 C592 1.266 . S
C1841 C172 1.230 . S
C1873 C186 1.333 1_554 S
C1881 C590 1.314 . S
C1905 C129 1.612 . S
C1913 C374 1.609 . S
C1945 C375 1.793 . S
C1937 C69 1.778 . S
C1977 C422 1.481 . S
C1969 C81 1.553 . S
C2009 C447 1.556 . S
C2001 C90 1.538 . S
C2033 C165 1.817 . S
C2041 C266 1.807 1_556 S
C2073 C230 1.409 . S
C2065 C18 1.448 . S
C2097 C30 1.783 . S
C2105 C267 1.791 . S
C2137 C196 1.816 . S
C2129 C9 1.817 1_565 S
