# Generated by pormake.
# Topology nom, (4,4)-cn, num edge types: 1
# Building blocks:
#     Node 0, Type 0, BuildingBlock: NAWXER_clean_linker_0, # of connection points: 4
#     Node 1, Type 0, BuildingBlock: NAWXER_clean_linker_0, # of connection points: 4
#     Node 2, Type 0, BuildingBlock: NAWXER_clean_linker_0, # of connection points: 4
#     Node 3, Type 0, BuildingBlock: NAWXER_clean_linker_0, # of connection points: 4
#     Node 4, Type 0, BuildingBlock: NAWXER_clean_linker_0, # of connection points: 4
#     Node 5, Type 0, BuildingBlock: NAWXER_clean_linker_0, # of connection points: 4
#     Node 6, Type 1, BuildingBlock: CEKHIL_clean_sbu_0, # of connection points: 4
#     Node 7, Type 1, BuildingBlock: CEKHIL_clean_sbu_0, # of connection points: 4
#     Node 8, Type 1, BuildingBlock: CEKHIL_clean_sbu_0, # of connection points: 4
#     Node 9, Type 1, BuildingBlock: CEKHIL_clean_sbu_0, # of connection points: 4
#     Node 10, Type 1, BuildingBlock: CEKHIL_clean_sbu_0, # of connection points: 4
#     Node 11, Type 1, BuildingBlock: CEKHIL_clean_sbu_0, # of connection points: 4
#     Edge 12, Type (0, 1), None
#     Edge 13, Type (0, 1), None
#     Edge 14, Type (0, 1), None
#     Edge 15, Type (0, 1), None
#     Edge 16, Type (0, 1), None
#     Edge 17, Type (0, 1), None
#     Edge 18, Type (0, 1), None
#     Edge 19, Type (0, 1), None
#     Edge 20, Type (0, 1), None
#     Edge 21, Type (0, 1), None
#     Edge 22, Type (0, 1), None
#     Edge 23, Type (0, 1), None
#     Edge 24, Type (0, 1), None
#     Edge 25, Type (0, 1), None
#     Edge 26, Type (0, 1), None
#     Edge 27, Type (0, 1), None
#     Edge 28, Type (0, 1), None
#     Edge 29, Type (0, 1), None
#     Edge 30, Type (0, 1), None
#     Edge 31, Type (0, 1), None
#     Edge 32, Type (0, 1), None
#     Edge 33, Type (0, 1), None
#     Edge 34, Type (0, 1), None
#     Edge 35, Type (0, 1), None
# Relax obj value: 0.006
# Max RMSD: 0.113
# Mean RMSD: 0.075
data_MOF--net-nom--node1-CEKHIL_clean_sbu_0--node2-NAWXER_clean_linker_0--edge1-none
_symmetry_space_group_name_H-M    P1
_symmetry_Int_Tables_number       1
_symmetry_cell_setting            triclinic
loop_
_symmetry_equiv_pos_as_xyz
'x, y, z'
_cell_length_a     28.359255
_cell_length_b     27.988618
_cell_length_c     30.706798
_cell_angle_alpha  90.177697
_cell_angle_beta   89.845706
_cell_angle_gamma 121.26215
loop_
_atom_site_label
_atom_site_type_symbol
_atom_site_fract_x
_atom_site_fract_y
_atom_site_fract_z
_atom_type_partial_charge
C0 C 0.81378 0.49831 0.35059 0.0
C1 C 0.79007 0.46207 0.38596 0.0
C2 C 0.86945 0.5206 0.34056 0.0
C3 C 0.90185 0.50582 0.36516 0.0
C4 C 0.82262 0.44897 0.41168 0.0
C5 C 0.87827 0.47095 0.4015 0.0
C6 C 0.96028 0.52734 0.35331 0.0
C7 C 0.86818 0.40885 0.24387 0.0
C8 C 0.86895 0.43467 0.20449 0.0
C9 C 0.9021 0.44034 0.27842 0.0
C10 C 0.93815 0.49824 0.27415 0.0
C11 C 0.90382 0.49293 0.2006 0.0
C12 C 0.93887 0.52436 0.23497 0.0
C13 C 0.97737 0.53006 0.30969 0.0
C14 C 0.22332 0.62839 0.32013 0.0
C15 C 0.23905 0.66792 0.28658 0.0
C16 C 0.16904 0.59995 0.33586 0.0
C17 C 0.12991 0.61123 0.31867 0.0
C18 C 0.19982 0.67907 0.26958 0.0
C19 C 0.14588 0.65093 0.28538 0.0
C20 C 0.07138 0.57988 0.33251 0.0
C21 C 0.16453 0.66883 0.45634 0.0
C22 C 0.16412 0.63067 0.48635 0.0
C23 C 0.12968 0.64994 0.42007 0.0
C24 C 0.09316 0.59258 0.41347 0.0
C25 C 0.12849 0.57314 0.47902 0.0
C26 C 0.09274 0.55432 0.44319 0.0
C27 C 0.05413 0.57233 0.37649 0.0
H28 H 0.78909 0.5087 0.33038 0.0
H29 H 0.88703 0.54907 0.31333 0.0
H30 H 0.80462 0.42059 0.43896 0.0
H31 H 0.90242 0.45944 0.42126 0.0
H32 H 0.84169 0.36405 0.24783 0.0
H33 H 0.90139 0.41914 0.3081 0.0
H34 H 0.90555 0.5138 0.17046 0.0
H35 H 0.96669 0.56894 0.23093 0.0
H36 H 0.25261 0.61866 0.33362 0.0
H37 H 0.15745 0.56826 0.36059 0.0
H38 H 0.21056 0.70923 0.2437 0.0
H39 H 0.11639 0.66008 0.27138 0.0
H40 H 0.19165 0.71343 0.46105 0.0
H41 H 0.13045 0.68013 0.39761 0.0
H42 H 0.12695 0.54281 0.50171 0.0
H43 H 0.0647 0.50983 0.43863 0.0
N44 N 0.99921 0.54718 0.38524 0.0
N45 N 0.03222 0.55748 0.30084 0.0
C46 C 0.35546 0.82313 0.56655 0.0
C47 C 0.36081 0.78059 0.54735 0.0
C48 C 0.38703 0.878 0.55175 0.0
C49 C 0.42436 0.89157 0.51724 0.0
C50 C 0.39789 0.79394 0.51253 0.0
C51 C 0.42967 0.84912 0.4977 0.0
C52 C 0.45899 0.95081 0.50421 0.0
C53 C 0.45198 0.8914 0.35741 0.0
C54 C 0.39502 0.86298 0.34906 0.0
C55 C 0.47385 0.92585 0.39404 0.0
C56 C 0.43905 0.93122 0.42357 0.0
C57 C 0.36023 0.86844 0.37883 0.0
C58 C 0.38206 0.90195 0.41601 0.0
C59 C 0.46314 0.96951 0.46104 0.0
C60 C 0.61446 0.22111 0.47488 0.0
C61 C 0.58395 0.23592 0.44808 0.0
C62 C 0.59287 0.16541 0.48709 0.0
C63 C 0.53965 0.12386 0.47382 0.0
C64 C 0.53127 0.19426 0.43415 0.0
C65 C 0.50933 0.13887 0.44701 0.0
C66 C 0.51531 0.06426 0.4856 0.0
C67 C 0.56369 0.15642 0.617 0.0
C68 C 0.60574 0.15126 0.63654 0.0
C69 C 0.53391 0.12252 0.58146 0.0
C70 C 0.54549 0.08272 0.56523 0.0
C71 C 0.61678 0.1111 0.62008 0.0
C72 C 0.58664 0.07692 0.58516 0.0
C73 C 0.51451 0.04538 0.52843 0.0
H74 H 0.3273 0.81425 0.59344 0.0
H75 H 0.38238 0.91006 0.56743 0.0
H76 H 0.40313 0.76202 0.49732 0.0
H77 H 0.45927 0.85871 0.47183 0.0
H78 H 0.47984 0.88829 0.335 0.0
H79 H 0.51802 0.94838 0.39937 0.0
H80 H 0.31613 0.84683 0.37336 0.0
H81 H 0.35466 0.90586 0.43842 0.0
H82 H 0.65562 0.25232 0.48548 0.0
H83 H 0.61825 0.15493 0.50619 0.0
H84 H 0.50691 0.20445 0.41338 0.0
H85 H 0.46838 0.10759 0.43599 0.0
H86 H 0.55419 0.18698 0.62887 0.0
H87 H 0.50183 0.12718 0.5668 0.0
H88 H 0.64848 0.10558 0.63445 0.0
H89 H 0.59591 0.04617 0.57331 0.0
N90 N 0.4857 0.98946 0.53607 0.0
N91 N 0.49026 0.02541 0.45349 0.0
C92 C 0.55252 0.43619 0.5224 0.0
C93 C 0.529 0.37906 0.51316 0.0
C94 C 0.53559 0.45333 0.55901 0.0
C95 C 0.49607 0.41373 0.58765 0.0
C96 C 0.48908 0.33945 0.54183 0.0
C97 C 0.47315 0.35666 0.57902 0.0
C98 C 0.47949 0.43281 0.62647 0.0
C99 C 0.52317 0.32366 0.72375 0.0
C100 C 0.57382 0.33717 0.70492 0.0
C101 C 0.49695 0.35224 0.71144 0.0
C102 C 0.5204 0.39434 0.67969 0.0
C103 C 0.59719 0.37924 0.67299 0.0
C104 C 0.57083 0.40769 0.6606 0.0
C105 C 0.49336 0.42615 0.66918 0.0
C106 C 0.40357 0.53613 0.78506 0.0
C107 C 0.45361 0.57763 0.80386 0.0
C108 C 0.40361 0.50348 0.75028 0.0
C109 C 0.45366 0.51159 0.73416 0.0
C110 C 0.50335 0.58468 0.78792 0.0
C111 C 0.50327 0.55171 0.75378 0.0
C112 C 0.45617 0.47977 0.69662 0.0
C113 C 0.39453 0.58992 0.64787 0.0
C114 C 0.34523 0.56067 0.6239 0.0
C115 C 0.42528 0.56519 0.6575 0.0
C116 C 0.4067 0.51011 0.64432 0.0
C117 C 0.32727 0.50602 0.60988 0.0
C118 C 0.35776 0.48104 0.61999 0.0
C119 C 0.43853 0.48286 0.65421 0.0
H120 H 0.58303 0.46763 0.50079 0.0
H121 H 0.55381 0.49761 0.56528 0.0
H122 H 0.47036 0.29512 0.5356 0.0
H123 H 0.44262 0.32553 0.6008 0.0
H124 H 0.50419 0.29167 0.74855 0.0
H125 H 0.45831 0.3416 0.72689 0.0
H126 H 0.63636 0.3909 0.65804 0.0
H127 H 0.59064 0.44106 0.63697 0.0
H128 H 0.36457 0.52967 0.79663 0.0
H129 H 0.36481 0.47233 0.73579 0.0
H130 H 0.54258 0.61579 0.80184 0.0
H131 H 0.54232 0.55847 0.74195 0.0
H132 H 0.41006 0.63246 0.65855 0.0
H133 H 0.46389 0.58947 0.67481 0.0
H134 H 0.28974 0.48256 0.59108 0.0
H135 H 0.34291 0.43874 0.60898 0.0
N136 N 0.45167 0.45992 0.62065 0.0
N137 N 0.48205 0.45077 0.70248 0.0
C138 C 0.80916 0.33273 0.8209 0.0
C139 C 0.79031 0.3582 0.79235 0.0
C140 C 0.86339 0.36238 0.83633 0.0
C141 C 0.89949 0.4181 0.82356 0.0
C142 C 0.82565 0.41412 0.78038 0.0
C143 C 0.87997 0.44376 0.79565 0.0
C144 C 0.95894 0.44729 0.83464 0.0
C145 C 0.87502 0.42821 0.96332 0.0
C146 C 0.87885 0.39199 0.99275 0.0
C147 C 0.90689 0.4453 0.9252 0.0
C148 C 0.94335 0.42667 0.91583 0.0
C149 C 0.91575 0.37383 0.98333 0.0
C150 C 0.94797 0.39143 0.94555 0.0
C151 C 0.97901 0.44636 0.87649 0.0
C152 C 0.22517 0.59472 0.85604 0.0
C153 C 0.24317 0.56328 0.8784 0.0
C154 C 0.16944 0.57199 0.84656 0.0
C155 C 0.13047 0.51662 0.85798 0.0
C156 C 0.20409 0.5084 0.89102 0.0
C157 C 0.14818 0.48527 0.88085 0.0
C158 C 0.07104 0.49223 0.84827 0.0
C159 C 0.1593 0.54356 0.71721 0.0
C160 C 0.15488 0.58664 0.69788 0.0
C161 C 0.12574 0.51363 0.75277 0.0
C162 C 0.08709 0.52617 0.76933 0.0
C163 C 0.11543 0.59816 0.71429 0.0
C164 C 0.08171 0.56799 0.74927 0.0
C165 C 0.05112 0.49613 0.80702 0.0
H166 H 0.78244 0.28964 0.83057 0.0
H167 H 0.87766 0.34096 0.85677 0.0
H168 H 0.81176 0.4343 0.75818 0.0
H169 H 0.90713 0.48643 0.78493 0.0
H170 H 0.84711 0.443 0.96951 0.0
H171 H 0.90356 0.4737 0.90334 0.0
H172 H 0.9201 0.3462 1.00533 0.0
H173 H 0.97623 0.37705 0.93934 0.0
H174 H 0.25405 0.63755 0.8466 0.0
H175 H 0.15685 0.59813 0.83076 0.0
H176 H 0.21668 0.48337 0.90861 0.0
H177 H 0.11874 0.44276 0.89069 0.0
H178 H 0.18919 0.53358 0.70532 0.0
H179 H 0.12997 0.48086 0.76734 0.0
H180 H 0.11038 0.63058 0.70003 0.0
H181 H 0.05193 0.57811 0.76124 0.0
N182 N 0.9959 0.47308 0.80187 0.0
N183 N 0.03416 0.46781 0.88145 0.0
C184 C 0.47984 0.80072 0.98595 0.0
C185 C 0.45145 0.78226 0.94646 0.0
C186 C 0.50334 0.85654 0.99852 0.0
C187 C 0.49671 0.89418 0.97265 0.0
C188 C 0.44611 0.81973 0.91984 0.0
C189 C 0.46825 0.87519 0.93295 0.0
C190 C 0.52296 0.95413 0.98479 0.0
C191 C 0.40702 0.86935 0.09688 0.0
C192 C 0.43314 0.86682 0.13489 0.0
C193 C 0.43806 0.90282 0.06193 0.0
C194 C 0.49579 0.93517 0.06456 0.0
C195 C 0.49105 0.89847 0.13723 0.0
C196 C 0.5221 0.93318 0.10258 0.0
C197 C 0.528 0.97282 0.02829 0.0
C198 C 0.63985 0.22297 0.01423 0.0
C199 C 0.6782 0.23772 0.04815 0.0
C200 C 0.60948 0.16778 0.99927 0.0
C201 C 0.61767 0.12667 0.01751 0.0
C202 C 0.68642 0.19659 0.06622 0.0
C203 C 0.65634 0.14161 0.05111 0.0
C204 C 0.58374 0.06727 1.00447 0.0
C205 C 0.67513 0.15489 0.87972 0.0
C206 C 0.63918 0.1567 0.84914 0.0
C207 C 0.65437 0.12087 0.9166 0.0
C208 C 0.59728 0.08741 0.9232 0.0
C209 C 0.58203 0.12408 0.85639 0.0
C210 C 0.56127 0.08909 0.89281 0.0
C211 C 0.57476 0.04893 0.96072 0.0
H212 H 0.48503 0.77234 1.00647 0.0
H213 H 0.52773 0.87025 0.02798 0.0
H214 H 0.42436 0.80593 0.8891 0.0
H215 H 0.46322 0.90327 0.91196 0.0
H216 H 0.36247 0.84532 0.09413 0.0
H217 H 0.4169 0.90428 0.0331 0.0
H218 H 0.51219 0.89759 0.16626 0.0
H219 H 0.56661 0.95815 0.1053 0.0
H220 H 0.63231 0.25374 0.99996 0.0
H221 H 0.57859 0.15709 0.97438 0.0
H222 H 0.71563 0.20667 0.09243 0.0
H223 H 0.66303 0.11052 0.06593 0.0
H224 H 0.71941 0.17977 0.87509 0.0
H225 H 0.6828 0.11987 0.93954 0.0
H226 H 0.55338 0.12437 0.83329 0.0
H227 H 0.51703 0.06335 0.89733 0.0
N228 N 0.54547 0.99307 0.9526 0.0
N229 N 0.55926 0.0285 0.03654 0.0
C230 C 0.50523 0.6897 0.22488 0.0
C231 C 0.45552 0.67802 0.20548 0.0
C232 C 0.53008 0.65959 0.21285 0.0
C233 C 0.50615 0.61763 0.18088 0.0
C234 C 0.43151 0.6359 0.17349 0.0
C235 C 0.45644 0.60583 0.16146 0.0
C236 C 0.53245 0.58511 0.16995 0.0
C237 C 0.47384 0.576 0.02272 0.0
C238 C 0.49797 0.63325 0.01383 0.0
C239 C 0.49005 0.55835 0.05935 0.0
C240 C 0.52946 0.59755 0.08836 0.0
C241 C 0.53753 0.67241 0.04299 0.0
C242 C 0.55276 0.65472 0.08013 0.0
C243 C 0.54586 0.57815 0.12701 0.0
C244 C 0.63579 0.42512 0.1475 0.0
C245 C 0.68472 0.45504 0.12307 0.0
C246 C 0.60396 0.44865 0.15738 0.0
C247 C 0.62103 0.5032 0.14397 0.0
C248 C 0.70112 0.5091 0.10876 0.0
C249 C 0.66953 0.5329 0.1191 0.0
C250 C 0.58814 0.52928 0.15424 0.0
C251 C 0.62643 0.47942 0.2853 0.0
C252 C 0.57699 0.43729 0.30445 0.0
C253 C 0.62518 0.51109 0.25036 0.0
C254 C 0.57451 0.50145 0.23446 0.0
C255 C 0.52663 0.42868 0.28872 0.0
C256 C 0.5255 0.46073 0.25449 0.0
C257 C 0.57076 0.53241 0.19688 0.0
H258 H 0.52465 0.72165 0.24975 0.0
H259 H 0.5682 0.66913 0.22854 0.0
H260 H 0.39298 0.62554 0.15817 0.0
H261 H 0.43619 0.5726 0.13767 0.0
H262 H 0.44361 0.5449 1.00073 0.0
H263 H 0.47152 0.51399 0.06527 0.0
H264 H 0.55673 0.71684 0.03708 0.0
H265 H 0.5832 0.68559 0.10213 0.0
H266 H 0.62144 0.38298 0.15845 0.0
H267 H 0.56572 0.42387 0.1751 0.0
H268 H 0.73834 0.53304 0.08962 0.0
H269 H 0.68323 0.57481 0.1079 0.0
H270 H 0.6659 0.48707 0.29665 0.0
H271 H 0.66356 0.5427 0.2356 0.0
H272 H 0.48781 0.39705 0.30289 0.0
H273 H 0.48597 0.45276 0.24291 0.0
N274 N 0.54446 0.56101 0.20307 0.0
N275 N 0.57418 0.55155 0.12087 0.0
Co276 Co 0.64049 0.38262 0.41121 0.0
O277 O 0.69751 0.38622 0.37475 0.0
O278 O 0.70938 0.4516 0.42217 0.0
C279 C 0.60779 0.29413 0.43335 0.0
O280 O 0.59248 0.39215 0.45618 0.0
Co281 Co 0.51689 0.29904 0.394 0.0
O282 O 0.50769 0.31521 0.45529 0.0
C283 C 0.57687 0.40119 0.33992 0.0
C284 C 0.73054 0.4335 0.39371 0.0
C285 C 0.54422 0.36071 0.47302 0.0
O286 O 0.6201 0.41901 0.36388 0.0
O287 O 0.53286 0.35339 0.34536 0.0
O288 O 0.65048 0.33553 0.45213 0.0
O289 O 0.58858 0.3069 0.4001 0.0
Co290 Co 0.27371 0.63585 0.59056 0.0
O291 O 0.3284 0.63688 0.62829 0.0
O292 O 0.27449 0.5673 0.58393 0.0
C293 C 0.32906 0.72327 0.56495 0.0
O294 O 0.21491 0.62149 0.54495 0.0
Co295 Co 0.23303 0.71867 0.60308 0.0
O296 O 0.20758 0.69766 0.54212 0.0
C297 C 0.19125 0.62056 0.66135 0.0
C298 C 0.3145 0.58842 0.61218 0.0
C299 C 0.1982 0.65139 0.52633 0.0
O300 O 0.21643 0.60169 0.63859 0.0
O301 O 0.19545 0.66762 0.65379 0.0
O302 O 0.33124 0.68178 0.54821 0.0
O303 O 0.29693 0.71128 0.59823 0.0
Co304 Co 0.65066 0.26999 0.74443 0.0
O305 O 0.65231 0.32477 0.70543 0.0
O306 O 0.58234 0.26949 0.74854 0.0
C307 C 0.73524 0.32576 0.77282 0.0
O308 O 0.63466 0.21068 0.7906 0.0
Co309 Co 0.73218 0.22841 0.73458 0.0
O310 O 0.70651 0.19778 0.79382 0.0
C311 C 0.63842 0.18728 0.6737 0.0
C312 C 0.6033 0.30929 0.71973 0.0
C313 C 0.66155 0.1907 0.80913 0.0
O314 O 0.61898 0.21202 0.69635 0.0
O315 O 0.68469 0.19155 0.68209 0.0
O316 O 0.6936 0.32828 0.78743 0.0
O317 O 0.7258 0.29392 0.73937 0.0
Co318 Co 0.39206 0.63578 0.90976 0.0
O319 O 0.33848 0.63668 0.87227 0.0
O320 O 0.3203 0.56847 0.91822 0.0
C321 C 0.42758 0.72414 0.93271 0.0
O322 O 0.43668 0.62237 0.9555 0.0
Co323 Co 0.5167 0.71506 0.89468 0.0
O324 O 0.52265 0.69756 0.95618 0.0
C325 C 0.45487 0.61436 0.83935 0.0
C326 C 0.30228 0.58938 0.88951 0.0
C327 C 0.48462 0.65247 0.97329 0.0
O328 O 0.4113 0.59817 0.86258 0.0
O329 O 0.49999 0.66093 0.84559 0.0
O330 O 0.38381 0.68378 0.95115 0.0
O331 O 0.44655 0.71089 0.89951 0.0
Co332 Co 0.76024 0.38307 0.09126 0.0
O333 O 0.70424 0.38087 0.12822 0.0
O334 O 0.75708 0.4502 0.08345 0.0
C335 C 0.70794 0.29508 0.06586 0.0
O336 O 0.81984 0.39751 0.04637 0.0
Co337 Co 0.80358 0.30341 0.1096 0.0
O338 O 0.83948 0.32943 0.05192 0.0
C339 C 0.83623 0.39996 0.16705 0.0
C340 C 0.71686 0.42859 0.11161 0.0
C341 C 0.84405 0.37193 0.03262 0.0
O342 O 0.81681 0.41992 0.13941 0.0
O343 O 0.82996 0.35143 0.16325 0.0
O344 O 0.70412 0.33531 0.04874 0.0
O345 O 0.73891 0.30838 0.09992 0.0
Co346 Co 0.38252 0.75022 0.24335 0.0
O347 O 0.3803 0.69551 0.20366 0.0
O348 O 0.4485 0.74667 0.24945 0.0
C349 C 0.29544 0.69665 0.26828 0.0
O350 O 0.39835 0.8084 0.29043 0.0
Co351 Co 0.3055 0.79743 0.23203 0.0
O352 O 0.32864 0.82472 0.29263 0.0
C353 C 0.39962 0.83279 0.17224 0.0
C354 C 0.42771 0.70798 0.21962 0.0
C355 C 0.37228 0.82953 0.30875 0.0
O356 O 0.41888 0.81 0.19719 0.0
O357 O 0.35263 0.82799 0.17833 0.0
O358 O 0.33468 0.691 0.28424 0.0
O359 O 0.30918 0.73044 0.23575 0.0
loop_
_geom_bond_atom_site_label_1
_geom_bond_atom_site_label_2
_geom_bond_distance
_geom_bond_site_symmetry_2
_ccdc_geom_bond_type
C0 C1 1.384 . S
C0 C2 1.384 . S
C0 H28 0.931 . S
C1 C0 1.384 . S
C1 C4 1.382 . S
C2 C0 1.384 . S
C2 C3 1.381 . S
C2 H29 0.930 . S
C3 C2 1.381 . S
C3 C5 1.381 . S
C3 C6 1.487 . S
C4 C1 1.382 . S
C4 C5 1.387 . S
C4 H30 0.930 . S
C5 C3 1.381 . S
C5 C4 1.387 . S
C5 H31 0.931 . S
C6 C3 1.487 . S
C6 C13 1.399 . S
C6 N44 1.343 . S
C7 C8 1.384 . S
C7 C9 1.384 . S
C7 H32 0.931 . S
C8 C7 1.384 . S
C8 C11 1.382 . S
C9 C7 1.384 . S
C9 C10 1.381 . S
C9 H33 0.930 . S
C10 C9 1.381 . S
C10 C12 1.381 . S
C10 C13 1.487 . S
C11 C8 1.382 . S
C11 C12 1.387 . S
C11 H34 0.930 . S
C12 C10 1.381 . S
C12 C11 1.387 . S
C12 H35 0.931 . S
C13 C6 1.399 . S
C13 C10 1.487 . S
C13 N45 1.343 1_655 S
C14 C15 1.384 . S
C14 C16 1.384 . S
C14 H36 0.931 . S
C15 C14 1.384 . S
C15 C18 1.382 . S
C16 C14 1.384 . S
C16 C17 1.381 . S
C16 H37 0.930 . S
C17 C16 1.381 . S
C17 C19 1.381 . S
C17 C20 1.487 . S
C18 C15 1.382 . S
C18 C19 1.387 . S
C18 H38 0.930 . S
C19 C17 1.381 . S
C19 C18 1.387 . S
C19 H39 0.931 . S
C20 C17 1.487 . S
C20 C27 1.399 . S
C20 N45 1.343 . S
C21 C22 1.384 . S
C21 C23 1.384 . S
C21 H40 0.931 . S
C22 C21 1.384 . S
C22 C25 1.382 . S
C23 C21 1.384 . S
C23 C24 1.381 . S
C23 H41 0.930 . S
C24 C23 1.381 . S
C24 C26 1.381 . S
C24 C27 1.487 . S
C25 C22 1.382 . S
C25 C26 1.387 . S
C25 H42 0.930 . S
C26 C24 1.381 . S
C26 C25 1.387 . S
C26 H43 0.931 . S
C27 C20 1.399 . S
C27 C24 1.487 . S
C27 N44 1.343 1_455 S
H28 C0 0.931 . S
H29 C2 0.930 . S
H30 C4 0.930 . S
H31 C5 0.931 . S
H32 C7 0.931 . S
H33 C9 0.930 . S
H34 C11 0.930 . S
H35 C12 0.931 . S
H36 C14 0.931 . S
H37 C16 0.930 . S
H38 C18 0.930 . S
H39 C19 0.931 . S
H40 C21 0.931 . S
H41 C23 0.930 . S
H42 C25 0.930 . S
H43 C26 0.931 . S
N44 C6 1.343 . S
N44 C27 1.343 1_655 S
N45 C13 1.343 1_455 S
N45 C20 1.343 . S
C46 C47 1.384 . S
C46 C48 1.384 . S
C46 H74 0.931 . S
C47 C46 1.384 . S
C47 C50 1.382 . S
C48 C46 1.384 . S
C48 C49 1.381 . S
C48 H75 0.930 . S
C49 C48 1.381 . S
C49 C51 1.381 . S
C49 C52 1.487 . S
C50 C47 1.382 . S
C50 C51 1.387 . S
C50 H76 0.930 . S
C51 C49 1.381 . S
C51 C50 1.387 . S
C51 H77 0.931 . S
C52 C49 1.487 . S
C52 C59 1.399 . S
C52 N90 1.343 . S
C53 C54 1.384 . S
C53 C55 1.384 . S
C53 H78 0.931 . S
C54 C53 1.384 . S
C54 C57 1.382 . S
C55 C53 1.384 . S
C55 C56 1.381 . S
C55 H79 0.930 . S
C56 C55 1.381 . S
C56 C58 1.381 . S
C56 C59 1.487 . S
C57 C54 1.382 . S
C57 C58 1.387 . S
C57 H80 0.930 . S
C58 C56 1.381 . S
C58 C57 1.387 . S
C58 H81 0.931 . S
C59 C52 1.399 . S
C59 C56 1.487 . S
C59 N91 1.343 1_565 S
C60 C61 1.384 . S
C60 C62 1.384 . S
C60 H82 0.931 . S
C61 C60 1.384 . S
C61 C64 1.382 . S
C62 C60 1.384 . S
C62 C63 1.381 . S
C62 H83 0.930 . S
C63 C62 1.381 . S
C63 C65 1.381 . S
C63 C66 1.487 . S
C64 C61 1.382 . S
C64 C65 1.387 . S
C64 H84 0.930 . S
C65 C63 1.381 . S
C65 C64 1.387 . S
C65 H85 0.931 . S
C66 C63 1.487 . S
C66 C73 1.399 . S
C66 N91 1.343 . S
C67 C68 1.384 . S
C67 C69 1.384 . S
C67 H86 0.931 . S
C68 C67 1.384 . S
C68 C71 1.382 . S
C69 C67 1.384 . S
C69 C70 1.381 . S
C69 H87 0.930 . S
C70 C69 1.381 . S
C70 C72 1.381 . S
C70 C73 1.487 . S
C71 C68 1.382 . S
C71 C72 1.387 . S
C71 H88 0.930 . S
C72 C70 1.381 . S
C72 C71 1.387 . S
C72 H89 0.931 . S
C73 C66 1.399 . S
C73 C70 1.487 . S
C73 N90 1.343 1_545 S
H74 C46 0.931 . S
H75 C48 0.930 . S
H76 C50 0.930 . S
H77 C51 0.931 . S
H78 C53 0.931 . S
H79 C55 0.930 . S
H80 C57 0.930 . S
H81 C58 0.931 . S
H82 C60 0.931 . S
H83 C62 0.930 . S
H84 C64 0.930 . S
H85 C65 0.931 . S
H86 C67 0.931 . S
H87 C69 0.930 . S
H88 C71 0.930 . S
H89 C72 0.931 . S
N90 C52 1.343 . S
N90 C73 1.343 1_565 S
N91 C59 1.343 1_545 S
N91 C66 1.343 . S
C92 C93 1.384 . S
C92 C94 1.384 . S
C92 H120 0.931 . S
C93 C92 1.384 . S
C93 C96 1.382 . S
C94 C92 1.384 . S
C94 C95 1.381 . S
C94 H121 0.930 . S
C95 C94 1.381 . S
C95 C97 1.381 . S
C95 C98 1.487 . S
C96 C93 1.382 . S
C96 C97 1.387 . S
C96 H122 0.930 . S
C97 C95 1.381 . S
C97 C96 1.387 . S
C97 H123 0.931 . S
C98 C95 1.487 . S
C98 C105 1.399 . S
C98 N136 1.343 . S
C99 C100 1.384 . S
C99 C101 1.384 . S
C99 H124 0.931 . S
C100 C99 1.384 . S
C100 C103 1.382 . S
C101 C99 1.384 . S
C101 C102 1.381 . S
C101 H125 0.930 . S
C102 C101 1.381 . S
C102 C104 1.381 . S
C102 C105 1.487 . S
C103 C100 1.382 . S
C103 C104 1.387 . S
C103 H126 0.930 . S
C104 C102 1.381 . S
C104 C103 1.387 . S
C104 H127 0.931 . S
C105 C98 1.399 . S
C105 C102 1.487 . S
C105 N137 1.343 . S
C106 C107 1.384 . S
C106 C108 1.384 . S
C106 H128 0.931 . S
C107 C106 1.384 . S
C107 C110 1.382 . S
C108 C106 1.384 . S
C108 C109 1.381 . S
C108 H129 0.930 . S
C109 C108 1.381 . S
C109 C111 1.381 . S
C109 C112 1.487 . S
C110 C107 1.382 . S
C110 C111 1.387 . S
C110 H130 0.930 . S
C111 C109 1.381 . S
C111 C110 1.387 . S
C111 H131 0.931 . S
C112 C109 1.487 . S
C112 C119 1.399 . S
C112 N137 1.343 . S
C113 C114 1.384 . S
C113 C115 1.384 . S
C113 H132 0.931 . S
C114 C113 1.384 . S
C114 C117 1.382 . S
C115 C113 1.384 . S
C115 C116 1.381 . S
C115 H133 0.930 . S
C116 C115 1.381 . S
C116 C118 1.381 . S
C116 C119 1.487 . S
C117 C114 1.382 . S
C117 C118 1.387 . S
C117 H134 0.930 . S
C118 C116 1.381 . S
C118 C117 1.387 . S
C118 H135 0.931 . S
C119 C112 1.399 . S
C119 C116 1.487 . S
C119 N136 1.343 . S
H120 C92 0.931 . S
H121 C94 0.930 . S
H122 C96 0.930 . S
H123 C97 0.931 . S
H124 C99 0.931 . S
H125 C101 0.930 . S
H126 C103 0.930 . S
H127 C104 0.931 . S
H128 C106 0.931 . S
H129 C108 0.930 . S
H130 C110 0.930 . S
H131 C111 0.931 . S
H132 C113 0.931 . S
H133 C115 0.930 . S
H134 C117 0.930 . S
H135 C118 0.931 . S
N136 C98 1.343 . S
N136 C119 1.343 . S
N137 C105 1.343 . S
N137 C112 1.343 . S
C138 C139 1.384 . S
C138 C140 1.384 . S
C138 H166 0.931 . S
C139 C138 1.384 . S
C139 C142 1.382 . S
C140 C138 1.384 . S
C140 C141 1.381 . S
C140 H167 0.930 . S
C141 C140 1.381 . S
C141 C143 1.381 . S
C141 C144 1.487 . S
C142 C139 1.382 . S
C142 C143 1.387 . S
C142 H168 0.930 . S
C143 C141 1.381 . S
C143 C142 1.387 . S
C143 H169 0.931 . S
C144 C141 1.487 . S
C144 C151 1.399 . S
C144 N182 1.343 . S
C145 C146 1.384 . S
C145 C147 1.384 . S
C145 H170 0.931 . S
C146 C145 1.384 . S
C146 C149 1.382 . S
C147 C145 1.384 . S
C147 C148 1.381 . S
C147 H171 0.930 . S
C148 C147 1.381 . S
C148 C150 1.381 . S
C148 C151 1.487 . S
C149 C146 1.382 . S
C149 C150 1.387 . S
C149 H172 0.930 . S
C150 C148 1.381 . S
C150 C149 1.387 . S
C150 H173 0.931 . S
C151 C144 1.399 . S
C151 C148 1.487 . S
C151 N183 1.343 1_655 S
C152 C153 1.384 . S
C152 C154 1.384 . S
C152 H174 0.931 . S
C153 C152 1.384 . S
C153 C156 1.382 . S
C154 C152 1.384 . S
C154 C155 1.381 . S
C154 H175 0.930 . S
C155 C154 1.381 . S
C155 C157 1.381 . S
C155 C158 1.487 . S
C156 C153 1.382 . S
C156 C157 1.387 . S
C156 H176 0.930 . S
C157 C155 1.381 . S
C157 C156 1.387 . S
C157 H177 0.931 . S
C158 C155 1.487 . S
C158 C165 1.399 . S
C158 N183 1.343 . S
C159 C160 1.384 . S
C159 C161 1.384 . S
C159 H178 0.931 . S
C160 C159 1.384 . S
C160 C163 1.382 . S
C161 C159 1.384 . S
C161 C162 1.381 . S
C161 H179 0.930 . S
C162 C161 1.381 . S
C162 C164 1.381 . S
C162 C165 1.487 . S
C163 C160 1.382 . S
C163 C164 1.387 . S
C163 H180 0.930 . S
C164 C162 1.381 . S
C164 C163 1.387 . S
C164 H181 0.931 . S
C165 C158 1.399 . S
C165 C162 1.487 . S
C165 N182 1.343 1_455 S
H166 C138 0.931 . S
H167 C140 0.930 . S
H168 C142 0.930 . S
H169 C143 0.931 . S
H170 C145 0.931 . S
H171 C147 0.930 . S
H172 C149 0.930 . S
H173 C150 0.931 . S
H174 C152 0.931 . S
H175 C154 0.930 . S
H176 C156 0.930 . S
H177 C157 0.931 . S
H178 C159 0.931 . S
H179 C161 0.930 . S
H180 C163 0.930 . S
H181 C164 0.931 . S
N182 C144 1.343 . S
N182 C165 1.343 1_655 S
N183 C151 1.343 1_455 S
N183 C158 1.343 . S
C184 C185 1.384 . S
C184 C186 1.384 . S
C184 H212 0.931 . S
C185 C184 1.384 . S
C185 C188 1.382 . S
C186 C184 1.384 . S
C186 C187 1.381 . S
C186 H213 0.930 1_556 S
C187 C186 1.381 . S
C187 C189 1.381 . S
C187 C190 1.487 . S
C188 C185 1.382 . S
C188 C189 1.387 . S
C188 H214 0.930 . S
C189 C187 1.381 . S
C189 C188 1.387 . S
C189 H215 0.931 . S
C190 C187 1.487 . S
C190 C197 1.399 1_556 S
C190 N228 1.343 . S
C191 C192 1.384 . S
C191 C193 1.384 . S
C191 H216 0.931 . S
C192 C191 1.384 . S
C192 C195 1.382 . S
C193 C191 1.384 . S
C193 C194 1.381 . S
C193 H217 0.930 . S
C194 C193 1.381 . S
C194 C196 1.381 . S
C194 C197 1.487 . S
C195 C192 1.382 . S
C195 C196 1.387 . S
C195 H218 0.930 . S
C196 C194 1.381 . S
C196 C195 1.387 . S
C196 H219 0.931 . S
C197 C190 1.399 1_554 S
C197 C194 1.487 . S
C197 N229 1.343 1_565 S
C198 C199 1.384 . S
C198 C200 1.384 . S
C198 H220 0.931 . S
C199 C198 1.384 . S
C199 C202 1.382 . S
C200 C198 1.384 . S
C200 C201 1.381 . S
C200 H221 0.930 1_554 S
C201 C200 1.381 . S
C201 C203 1.381 . S
C201 C204 1.487 . S
C202 C199 1.382 . S
C202 C203 1.387 . S
C202 H222 0.930 . S
C203 C201 1.381 . S
C203 C202 1.387 . S
C203 H223 0.931 . S
C204 C201 1.487 . S
C204 C211 1.399 1_554 S
C204 N229 1.343 . S
C205 C206 1.384 . S
C205 C207 1.384 . S
C205 H224 0.931 . S
C206 C205 1.384 . S
C206 C209 1.382 . S
C207 C205 1.384 . S
C207 C208 1.381 . S
C207 H225 0.930 . S
C208 C207 1.381 . S
C208 C210 1.381 . S
C208 C211 1.487 . S
C209 C206 1.382 . S
C209 C210 1.387 . S
C209 H226 0.930 . S
C210 C208 1.381 . S
C210 C209 1.387 . S
C210 H227 0.931 . S
C211 C204 1.399 1_556 S
C211 C208 1.487 . S
C211 N228 1.343 1_545 S
H212 C184 0.931 . S
H213 C186 0.930 1_554 S
H214 C188 0.930 . S
H215 C189 0.931 . S
H216 C191 0.931 . S
H217 C193 0.930 . S
H218 C195 0.930 . S
H219 C196 0.931 . S
H220 C198 0.931 . S
H221 C200 0.930 1_556 S
H222 C202 0.930 . S
H223 C203 0.931 . S
H224 C205 0.931 . S
H225 C207 0.930 . S
H226 C209 0.930 . S
H227 C210 0.931 . S
N228 C190 1.343 . S
N228 C211 1.343 1_565 S
N229 C197 1.343 1_545 S
N229 C204 1.343 . S
C230 C231 1.384 . S
C230 C232 1.384 . S
C230 H258 0.931 . S
C231 C230 1.384 . S
C231 C234 1.382 . S
C232 C230 1.384 . S
C232 C233 1.381 . S
C232 H259 0.930 . S
C233 C232 1.381 . S
C233 C235 1.381 . S
C233 C236 1.487 . S
C234 C231 1.382 . S
C234 C235 1.387 . S
C234 H260 0.930 . S
C235 C233 1.381 . S
C235 C234 1.387 . S
C235 H261 0.931 . S
C236 C233 1.487 . S
C236 C243 1.399 . S
C236 N274 1.343 . S
C237 C238 1.384 . S
C237 C239 1.384 . S
C237 H262 0.931 . S
C238 C237 1.384 . S
C238 C241 1.382 . S
C239 C237 1.384 . S
C239 C240 1.381 . S
C239 H263 0.930 . S
C240 C239 1.381 . S
C240 C242 1.381 . S
C240 C243 1.487 . S
C241 C238 1.382 . S
C241 C242 1.387 . S
C241 H264 0.930 1_554 S
C242 C240 1.381 . S
C242 C241 1.387 . S
C242 H265 0.931 . S
C243 C236 1.399 . S
C243 C240 1.487 . S
C243 N275 1.343 . S
C244 C245 1.384 . S
C244 C246 1.384 . S
C244 H266 0.931 . S
C245 C244 1.384 . S
C245 C248 1.382 . S
C246 C244 1.384 . S
C246 C247 1.381 . S
C246 H267 0.930 . S
C247 C246 1.381 . S
C247 C249 1.381 . S
C247 C250 1.487 . S
C248 C245 1.382 . S
C248 C249 1.387 . S
C248 H268 0.930 . S
C249 C247 1.381 . S
C249 C248 1.387 . S
C249 H269 0.931 . S
C250 C247 1.487 . S
C250 C257 1.399 . S
C250 N275 1.343 . S
C251 C252 1.384 . S
C251 C253 1.384 . S
C251 H270 0.931 . S
C252 C251 1.384 . S
C252 C255 1.382 . S
C253 C251 1.384 . S
C253 C254 1.381 . S
C253 H271 0.930 . S
C254 C253 1.381 . S
C254 C256 1.381 . S
C254 C257 1.487 . S
C255 C252 1.382 . S
C255 C256 1.387 . S
C255 H272 0.930 . S
C256 C254 1.381 . S
C256 C255 1.387 . S
C256 H273 0.931 . S
C257 C250 1.399 . S
C257 C254 1.487 . S
C257 N274 1.343 . S
H258 C230 0.931 . S
H259 C232 0.930 . S
H260 C234 0.930 . S
H261 C235 0.931 . S
H262 C237 0.931 . S
H263 C239 0.930 . S
H264 C241 0.930 1_556 S
H265 C242 0.931 . S
H266 C244 0.931 . S
H267 C246 0.930 . S
H268 C248 0.930 . S
H269 C249 0.931 . S
H270 C251 0.931 . S
H271 C253 0.930 . S
H272 C255 0.930 . S
H273 C256 0.931 . S
N274 C236 1.343 . S
N274 C257 1.343 . S
N275 C243 1.343 . S
N275 C250 1.343 . S
Co276 O277 2.216 . S
Co276 O278 2.091 . S
Co276 O280 2.004 . S
Co276 O286 2.021 . S
Co276 O288 2.137 . S
Co276 O289 2.244 . S
O277 Co276 2.216 . S
O277 C284 1.247 . S
O278 Co276 2.091 . S
O278 C284 1.261 . S
C279 O288 1.247 . S
C279 O289 1.272 . S
O280 Co276 2.004 . S
O280 C285 1.259 . S
Co281 O282 2.061 . S
Co281 O287 2.052 . S
Co281 O289 2.135 . S
O282 Co281 2.061 . S
O282 C285 1.235 . S
C283 O286 1.238 . S
C283 O287 1.241 . S
C284 O277 1.247 . S
C284 O278 1.261 . S
C285 O280 1.259 . S
C285 O282 1.235 . S
O286 Co276 2.021 . S
O286 C283 1.238 . S
O287 Co281 2.052 . S
O287 C283 1.241 . S
O288 Co276 2.137 . S
O288 C279 1.247 . S
O289 Co276 2.244 . S
O289 C279 1.272 . S
O289 Co281 2.135 . S
Co290 O291 2.216 . S
Co290 O292 2.091 . S
Co290 O294 2.004 . S
Co290 O300 2.021 . S
Co290 O302 2.137 . S
Co290 O303 2.244 . S
O291 Co290 2.216 . S
O291 C298 1.247 . S
O292 Co290 2.091 . S
O292 C298 1.261 . S
C293 O302 1.247 . S
C293 O303 1.272 . S
O294 Co290 2.004 . S
O294 C299 1.259 . S
Co295 O296 2.061 . S
Co295 O301 2.052 . S
Co295 O303 2.135 . S
O296 Co295 2.061 . S
O296 C299 1.235 . S
C297 O300 1.238 . S
C297 O301 1.241 . S
C298 O291 1.247 . S
C298 O292 1.261 . S
C299 O294 1.259 . S
C299 O296 1.235 . S
O300 Co290 2.021 . S
O300 C297 1.238 . S
O301 Co295 2.052 . S
O301 C297 1.241 . S
O302 Co290 2.137 . S
O302 C293 1.247 . S
O303 Co290 2.244 . S
O303 C293 1.272 . S
O303 Co295 2.135 . S
Co304 O305 2.216 . S
Co304 O306 2.091 . S
Co304 O308 2.004 . S
Co304 O314 2.021 . S
Co304 O316 2.137 . S
Co304 O317 2.244 . S
O305 Co304 2.216 . S
O305 C312 1.247 . S
O306 Co304 2.091 . S
O306 C312 1.261 . S
C307 O316 1.247 . S
C307 O317 1.272 . S
O308 Co304 2.004 . S
O308 C313 1.259 . S
Co309 O310 2.061 . S
Co309 O315 2.052 . S
Co309 O317 2.135 . S
O310 Co309 2.061 . S
O310 C313 1.235 . S
C311 O314 1.238 . S
C311 O315 1.241 . S
C312 O305 1.247 . S
C312 O306 1.261 . S
C313 O308 1.259 . S
C313 O310 1.235 . S
O314 Co304 2.021 . S
O314 C311 1.238 . S
O315 Co309 2.052 . S
O315 C311 1.241 . S
O316 Co304 2.137 . S
O316 C307 1.247 . S
O317 Co304 2.244 . S
O317 C307 1.272 . S
O317 Co309 2.135 . S
Co318 O319 2.216 . S
Co318 O320 2.091 . S
Co318 O322 2.004 . S
Co318 O328 2.021 . S
Co318 O330 2.137 . S
Co318 O331 2.244 . S
O319 Co318 2.216 . S
O319 C326 1.247 . S
O320 Co318 2.091 . S
O320 C326 1.261 . S
C321 O330 1.247 . S
C321 O331 1.272 . S
O322 Co318 2.004 . S
O322 C327 1.259 . S
Co323 O324 2.061 . S
Co323 O329 2.052 . S
Co323 O331 2.135 . S
O324 Co323 2.061 . S
O324 C327 1.235 . S
C325 O328 1.238 . S
C325 O329 1.241 . S
C326 O319 1.247 . S
C326 O320 1.261 . S
C327 O322 1.259 . S
C327 O324 1.235 . S
O328 Co318 2.021 . S
O328 C325 1.238 . S
O329 Co323 2.052 . S
O329 C325 1.241 . S
O330 Co318 2.137 . S
O330 C321 1.247 . S
O331 Co318 2.244 . S
O331 C321 1.272 . S
O331 Co323 2.135 . S
Co332 O333 2.216 . S
Co332 O334 2.091 . S
Co332 O336 2.004 . S
Co332 O342 2.021 . S
Co332 O344 2.137 . S
Co332 O345 2.244 . S
O333 Co332 2.216 . S
O333 C340 1.247 . S
O334 Co332 2.091 . S
O334 C340 1.261 . S
C335 O344 1.247 . S
C335 O345 1.272 . S
O336 Co332 2.004 . S
O336 C341 1.259 . S
Co337 O338 2.061 . S
Co337 O343 2.052 . S
Co337 O345 2.135 . S
O338 Co337 2.061 . S
O338 C341 1.235 . S
C339 O342 1.238 . S
C339 O343 1.241 . S
C340 O333 1.247 . S
C340 O334 1.261 . S
C341 O336 1.259 . S
C341 O338 1.235 . S
O342 Co332 2.021 . S
O342 C339 1.238 . S
O343 Co337 2.052 . S
O343 C339 1.241 . S
O344 Co332 2.137 . S
O344 C335 1.247 . S
O345 Co332 2.244 . S
O345 C335 1.272 . S
O345 Co337 2.135 . S
Co346 O347 2.216 . S
Co346 O348 2.091 . S
Co346 O350 2.004 . S
Co346 O356 2.021 . S
Co346 O358 2.137 . S
Co346 O359 2.244 . S
O347 Co346 2.216 . S
O347 C354 1.247 . S
O348 Co346 2.091 . S
O348 C354 1.261 . S
C349 O358 1.247 . S
C349 O359 1.272 . S
O350 Co346 2.004 . S
O350 C355 1.259 . S
Co351 O352 2.061 . S
Co351 O357 2.052 . S
Co351 O359 2.135 . S
O352 Co351 2.061 . S
O352 C355 1.235 . S
C353 O356 1.238 . S
C353 O357 1.241 . S
C354 O347 1.247 . S
C354 O348 1.261 . S
C355 O350 1.259 . S
C355 O352 1.235 . S
O356 Co346 2.021 . S
O356 C353 1.238 . S
O357 Co351 2.052 . S
O357 C353 1.241 . S
O358 Co346 2.137 . S
O358 C349 1.247 . S
O359 Co346 2.244 . S
O359 C349 1.272 . S
O359 Co351 2.135 . S
C349 C15 1.858 . S
C61 C279 1.813 . S
C114 C298 1.905 . S
C139 C307 1.903 . S
C321 C185 1.856 . S
C245 C340 1.906 . S
C47 C293 1.823 . S
C100 C312 1.917 . S
C153 C326 1.835 . S
C335 C199 1.780 . S
C354 C231 1.917 . S
C284 C1 1.881 . S
C22 C299 1.480 . S
C68 C311 1.548 . S
C325 C107 1.464 . S
C146 C341 1.479 1_556 S
C353 C192 1.577 . S
C283 C252 1.464 . S
C355 C54 1.492 . S
C93 C285 1.493 . S
C297 C160 1.492 . S
C206 C313 1.486 . S
C238 C327 1.493 1_554 S
C8 C339 1.513 . S
