# Generated by pormake.
# Topology pts, (4,4)-cn, num edge types: 1
# Building blocks:
#     Node 0, Type 0, BuildingBlock: MUDLON_clean_linker_0, # of connection points: 4
#     Node 1, Type 0, BuildingBlock: MUDLON_clean_linker_0, # of connection points: 4
#     Node 2, Type 1, BuildingBlock: AZAVOO_clean_sbu_0, # of connection points: 4
#     Node 3, Type 1, BuildingBlock: AZAVOO_clean_sbu_0, # of connection points: 4
#     Edge 4, Type (0, 1), BuildingBlock: FUNLAD_clean_linker_0, # of connection points: 2
#     Edge 5, Type (0, 1), BuildingBlock: FUNLAD_clean_linker_0, # of connection points: 2
#     Edge 6, Type (0, 1), BuildingBlock: FUNLAD_clean_linker_0, # of connection points: 2
#     Edge 7, Type (0, 1), BuildingBlock: FUNLAD_clean_linker_0, # of connection points: 2
#     Edge 8, Type (0, 1), BuildingBlock: FUNLAD_clean_linker_0, # of connection points: 2
#     Edge 9, Type (0, 1), BuildingBlock: FUNLAD_clean_linker_0, # of connection points: 2
#     Edge 10, Type (0, 1), BuildingBlock: FUNLAD_clean_linker_0, # of connection points: 2
#     Edge 11, Type (0, 1), BuildingBlock: FUNLAD_clean_linker_0, # of connection points: 2
# Relax obj value: 0.017
# Max RMSD: 0.070
# Mean RMSD: 0.066
data_MOF--net-pts--node1-AZAVOO_clean_sbu_0--node2-MUDLON_clean_linker_0--edge1-FUNLAD_clean_linker_0
_symmetry_space_group_name_H-M    P1
_symmetry_Int_Tables_number       1
_symmetry_cell_setting            triclinic
loop_
_symmetry_equiv_pos_as_xyz
'x, y, z'
_cell_length_a     37.58756
_cell_length_b     38.695304
_cell_length_c     50.177934
_cell_angle_alpha  90.064963
_cell_angle_beta   95.837027
_cell_angle_gamma 90.0768
loop_
_atom_site_label
_atom_site_type_symbol
_atom_site_fract_x
_atom_site_fract_y
_atom_site_fract_z
_atom_type_partial_charge
H0 H 0.71269 0.03896 0.01565 0.0
N1 N 0.66759 0.98554 -0.00088 0.0
H2 H 0.75642 0.03912 0.0547 0.0
H3 H 0.6726 0.94041 0.0392 0.0
H4 H 0.7147 0.94138 0.07967 0.0
H5 H 0.70163 0.93675 0.97474 0.0
H6 H 0.74067 0.94407 0.93901 0.0
H7 H 0.67623 0.04532 0.97098 0.0
H8 H 0.71576 0.05307 0.93572 0.0
H9 H 0.64591 0.05028 0.01284 0.0
H10 H 0.60846 0.9507 0.98343 0.0
H11 H 0.5841 0.07034 0.01209 0.0
H12 H 0.54653 0.97063 0.98211 0.0
H13 H 0.40782 0.11677 0.03068 0.0
H14 H 0.37236 0.11474 0.06906 0.0
H15 H 0.34442 0.00856 0.05 0.0
H16 H 0.37898 0.01106 0.01164 0.0
H17 H 0.40317 0.0055 0.96833 0.0
H18 H 0.35946 0.99376 0.93014 0.0
H19 H 0.33085 0.10194 0.92659 0.0
H20 H 0.37413 0.11325 0.96545 0.0
H21 H 0.46955 0.10355 0.98026 0.0
H22 H 0.5319 0.08477 0.98105 0.0
H23 H 0.50323 0.98594 0.01278 0.0
N24 N 0.41418 0.06776 0.99432 0.0
H25 H 0.44129 0.00458 0.01144 0.0
C26 C 0.68978 0.98917 0.02418 0.0
C27 C 0.71283 0.01757 0.02949 0.0
C28 C 0.73775 0.01777 0.05214 0.0
C29 C 0.73969 0.98998 0.07034 0.0
C30 C 0.71488 0.96275 0.06579 0.0
C31 C 0.69043 0.96229 0.04285 0.0
C32 C 0.68602 0.9903 0.97554 0.0
C33 C 0.70409 0.96205 0.96588 0.0
C34 C 0.72665 0.96639 0.9457 0.0
C35 C 0.73173 -0.00073 0.93477 0.0
C36 C 0.71229 0.02738 0.94359 0.0
C37 C 0.68965 0.02297 0.96382 0.0
C38 C 0.6317 -0.00117 -0.00175 0.0
C39 C 0.6244 0.03279 0.00607 0.0
C40 C 0.58901 0.04426 0.00552 0.0
C41 C 0.56031 0.02203 -0.00283 0.0
C42 C 0.5679 0.98825 0.98908 0.0
C43 C 0.60321 0.97687 0.98963 0.0
C44 C 0.3962 0.06425 0.01827 0.0
C45 C 0.39436 0.09299 0.03506 0.0
C46 C 0.37415 0.09173 0.05697 0.0
C47 C 0.3553 0.06155 0.06246 0.0
C48 C 0.35808 0.03239 0.04606 0.0
C49 C 0.37824 0.0337 0.02419 0.0
C50 C 0.39194 0.06043 0.96981 0.0
C51 C 0.38788 0.02681 0.95922 0.0
C52 C 0.36285 0.02012 0.93724 0.0
C53 C 0.3414 0.04686 0.9254 0.0
C54 C 0.34644 0.08062 0.93551 0.0
C55 C 0.37139 0.08724 0.9575 0.0
C56 C 0.45067 0.05571 -0.00421 0.0
C57 C 0.47686 0.07788 0.98743 0.0
C58 C 0.51245 0.06716 0.98803 0.0
C59 C 0.52259 0.03382 -0.00304 0.0
C60 C 0.49628 0.01162 0.00545 0.0
C61 C 0.46072 0.0224 0.00486 0.0
H62 H 0.92674 0.68553 0.51599 0.0
N63 N 0.96962 0.64215 0.49381 0.0
H64 H 0.93797 0.71542 0.55898 0.0
H65 H 0.02745 0.63239 0.53089 0.0
H66 H 0.03879 0.66179 0.57416 0.0
H67 H 0.0381 0.66509 0.49044 0.0
H68 H 0.05738 0.70531 0.4575 0.0
H69 H 0.93095 0.66649 0.45063 0.0
H70 H 0.94986 0.70764 0.41774 0.0
H71 H 0.9236 0.59539 0.50782 0.0
H72 H 0.02651 0.60513 0.47753 0.0
H73 H 0.92975 0.53266 0.5081 0.0
H74 H 0.0318 0.54279 0.47597 0.0
H75 H 0.94611 0.34312 0.51116 0.0
H76 H 0.95571 0.3073 0.5514 0.0
H77 H 0.06239 0.34934 0.56729 0.0
H78 H 0.05296 0.38385 0.52676 0.0
H79 H 0.06286 0.37724 0.48122 0.0
H80 H 0.08487 0.34675 0.44349 0.0
H81 H 0.97589 0.32472 0.41185 0.0
H82 H 0.95427 0.35573 0.44948 0.0
H83 H 0.93375 0.42126 0.48136 0.0
H84 H 0.92809 0.48412 0.48075 0.0
H85 H 0.04226 0.49335 0.5018 0.0
N86 N 0.99279 0.38428 0.49081 0.0
H87 H 0.0477 0.43085 0.5003 0.0
C88 C 0.97612 0.65689 0.52025 0.0
C89 C 0.95102 0.67999 0.52879 0.0
C90 C 0.95743 0.69684 0.55341 0.0
C91 C 0.98928 0.69093 0.57003 0.0
C92 C 0.01417 0.66712 0.56171 0.0
C93 C 0.00766 0.6502 0.53704 0.0
C94 C 0.98288 0.66282 0.47302 0.0
C95 C 0.01873 0.67378 0.47446 0.0
C96 C 0.02971 0.69698 0.45565 0.0
C97 C 0.00509 0.70997 0.43513 0.0
C98 C 0.9696 0.6979 0.43312 0.0
C99 C 0.95868 0.67453 0.45192 0.0
C100 C 0.97415 0.60517 0.49241 0.0
C101 C 0.94725 0.58395 0.50084 0.0
C102 C 0.95076 0.54806 0.50078 0.0
C103 C 0.98119 0.53241 0.49186 0.0
C104 C 0.0082 0.55377 0.48335 0.0
C105 C 0.00496 0.58974 0.48391 0.0
C106 C 0.99861 0.36618 0.5159 0.0
C107 C 0.97138 0.34479 0.52356 0.0
C108 C 0.97688 0.32455 0.54665 0.0
C109 C 0.00988 0.32538 0.5626 0.0
C110 C 0.03682 0.3477 0.55528 0.0
C111 C 0.03133 0.36778 0.5321 0.0
C112 C 0.00681 0.36856 0.46813 0.0
C113 C 0.04373 0.36619 0.46605 0.0
C114 C 0.05629 0.34863 0.44448 0.0
C115 C 0.03216 0.3333 0.42463 0.0
C116 C 0.99523 0.33667 0.42651 0.0
C117 C 0.98278 0.35412 0.44805 0.0
C118 C 0.99088 0.42134 0.49132 0.0
C119 C 0.95745 0.43703 0.48582 0.0
C120 C 0.95432 0.47296 0.4857 0.0
C121 C 0.98468 0.49406 0.4915 0.0
C122 C 0.0183 0.47812 0.49695 0.0
C123 C 0.02143 0.44214 0.49656 0.0
Mg124 Mg 0.0823 0.01166 0.26801 0.0
O125 O 0.0276 0.00853 0.24251 0.0
O126 O 0.98596 0.0002 0.27072 0.0
Mg127 Mg 0.01277 0.00098 0.31351 0.0
C128 C 0.99506 0.00382 0.24705 0.0
C129 C 0.14398 0.0272 0.23539 0.0
O130 O 0.15919 0.01623 0.25857 0.0
O131 O 0.07004 0.06702 0.27988 0.0
O132 O 0.02786 0.05785 0.30753 0.0
O133 O 0.08729 0.95399 0.26756 0.0
O134 O 0.06235 0.98344 0.29842 0.0
C135 C 0.0478 0.07814 0.2955 0.0
C136 C 0.07037 0.95396 0.28878 0.0
O137 O 0.11008 0.02945 0.23209 0.0
Mg138 Mg 0.99787 -0.00149 0.73069 0.0
O139 O 0.05242 0.00123 0.75612 0.0
O140 O 0.09468 0.99557 0.72813 0.0
Mg141 Mg 0.06786 0.9885 0.68557 0.0
C142 C 0.08529 -0.00012 0.75166 0.0
C143 C 0.93855 0.0318 0.76039 0.0
O144 O 0.92662 0.03735 0.73523 0.0
O145 O 0.00593 0.05324 0.71541 0.0
O146 O 0.04696 0.04425 0.68686 0.0
O147 O 0.99662 0.94103 0.7345 0.0
O148 O 0.0199 0.96875 0.702 0.0
C149 C 0.02588 0.06425 0.69808 0.0
C150 C 0.01341 0.93984 0.71323 0.0
O151 O 0.96892 0.01757 0.76563 0.0
C152 C 0.29837 0.0444 0.08118 0.0
C153 C 0.33198 0.06071 0.0847 0.0
C154 C 0.27642 0.04328 0.10203 0.0
C155 C 0.28746 0.05875 0.12692 0.0
C156 C 0.32108 0.07497 0.13044 0.0
C157 C 0.34303 0.07611 0.10955 0.0
C158 C 0.26568 0.0568 0.15006 0.0
C159 C 0.23008 0.05104 0.14762 0.0
C160 C 0.2088 0.04673 0.17087 0.0
C161 C 0.17151 0.0511 0.16702 0.0
C162 C 0.15038 0.04542 0.18803 0.0
C163 C 0.16612 0.03499 0.21333 0.0
H164 H 0.25291 0.03163 0.20002 0.0
C165 C 0.20343 0.03081 0.21724 0.0
C166 C 0.22451 0.03644 0.19629 0.0
H167 H 0.21643 0.02253 0.23642 0.0
H168 H 0.28889 0.03254 0.06221 0.0
H169 H 0.25126 0.02962 0.09862 0.0
H170 H 0.33049 0.08673 0.14947 0.0
H171 H 0.36893 0.08851 0.11304 0.0
H172 H 0.27968 0.0611 0.16978 0.0
H173 H 0.21551 0.05001 0.12782 0.0
H174 H 0.15861 0.0587 0.14763 0.0
H175 H 0.1217 0.04877 0.18432 0.0
C176 C 0.9901 0.29357 0.60235 0.0
C177 C 0.01692 0.30137 0.58567 0.0
C178 C 0.99584 0.26853 0.62243 0.0
C179 C 0.02858 0.25066 0.62617 0.0
C180 C 0.05588 0.25971 0.61036 0.0
C181 C 0.05011 0.28457 0.59027 0.0
C182 C 0.03512 0.22135 0.64518 0.0
C183 C 0.00896 0.20193 0.65409 0.0
C184 C 0.01597 0.16831 0.66798 0.0
C185 C 0.99084 0.15513 0.68423 0.0
C186 C 0.99471 0.12184 0.69506 0.0
C187 C 0.02354 0.10086 0.68944 0.0
H188 H 0.06479 0.15619 0.65 0.0
C189 C 0.04913 0.11442 0.67374 0.0
C190 C 0.04539 0.14764 0.66309 0.0
H191 H 0.07168 0.099 0.66898 0.0
H192 H 0.96452 0.30662 0.59974 0.0
H193 H 0.97448 0.26326 0.63475 0.0
H194 H 0.08141 0.24652 0.61283 0.0
H195 H 0.07128 0.2896 0.57767 0.0
H196 H 0.06279 0.21376 0.65017 0.0
H197 H 0.98119 0.20947 0.64982 0.0
H198 H 0.96773 0.17035 0.68808 0.0
H199 H 0.97442 0.11213 0.70699 0.0
C200 C 0.78183 0.01899 0.106 0.0
C201 C 0.76854 0.98858 0.09309 0.0
C202 C 0.8102 0.01765 0.12631 0.0
C203 C 0.82564 0.9858 0.13441 0.0
C204 C 0.81185 0.9554 0.12213 0.0
C205 C 0.78399 0.95676 0.1015 0.0
C206 C 0.85522 0.98339 0.15624 0.0
C207 C 0.88123 0.00737 0.16019 0.0
C208 C 0.91064 0.0049 0.18222 0.0
C209 C 0.94437 0.01878 0.17866 0.0
C210 C 0.97221 0.01765 0.19943 0.0
C211 C 0.96654 0.0033 0.22438 0.0
H212 H 0.87919 0.98009 0.21076 0.0
C213 C 0.93268 0.98954 0.22792 0.0
C214 C 0.90509 0.99024 0.20708 0.0
H215 H 0.92736 0.97837 0.2469 0.0
H216 H 0.77019 0.04391 0.10062 0.0
H217 H 0.81956 0.04148 0.13597 0.0
H218 H 0.82319 0.93053 0.12815 0.0
H219 H 0.77514 0.9328 0.09181 0.0
H220 H 0.85662 0.96018 0.16848 0.0
H221 H 0.88189 0.02874 0.14621 0.0
H222 H 0.94922 0.03047 0.15976 0.0
H223 H 0.99788 0.02871 0.19613 0.0
C224 C 0.03122 0.7257 0.60171 0.0
C225 C 0.99714 0.71122 0.59509 0.0
C226 C 0.03738 0.74845 0.62336 0.0
C227 C 0.00943 0.75739 0.63872 0.0
C228 C 0.9761 0.7411 0.63317 0.0
C229 C 0.96995 0.71838 0.61154 0.0
C230 C 0.01311 0.78499 0.65947 0.0
C231 C 0.036 0.81173 0.65861 0.0
C232 C 0.0339 0.84352 0.67503 0.0
C233 C 0.04534 0.87484 0.66468 0.0
C234 C 0.03993 0.90603 0.67765 0.0
C235 C 0.02335 0.90656 0.70151 0.0
H236 H 0.01115 0.82005 0.70883 0.0
C237 C 0.0139 0.87504 0.7128 0.0
C238 C 0.01917 0.84378 0.69973 0.0
H239 H 1.00141 0.87456 0.73132 0.0
H240 H 0.05279 0.72065 0.58948 0.0
H241 H 0.06383 0.75944 0.62758 0.0
H242 H 0.95423 0.74709 0.6449 0.0
H243 H 0.94361 0.70705 0.60732 0.0
H244 H 0.99312 0.78558 0.67363 0.0
H245 H 0.05384 0.81261 0.64291 0.0
H246 H 0.05707 0.8754 0.64583 0.0
H247 H 0.04759 0.92976 0.66838 0.0
C248 C 0.27945 0.05557 0.9025 0.0
C249 C 0.31301 0.03937 0.90325 0.0
C250 C 0.2525 0.04829 0.88197 0.0
C251 C 0.25834 0.02428 0.86176 0.0
C252 C 0.292 0.00839 0.86237 0.0
C253 C 0.31898 0.01573 0.88289 0.0
C254 C 0.2307 0.01618 0.83919 0.0
C255 C 0.19538 0.02185 0.83991 0.0
C256 C 0.16788 0.01486 0.81698 0.0
C257 C 0.13179 0.01253 0.82185 0.0
C258 C 0.10495 0.00728 0.80078 0.0
C259 C 0.11361 0.00435 0.77427 0.0
H260 H 0.20369 0.0148 0.78548 0.0
C261 C 0.14973 0.00665 0.76939 0.0
C262 C 0.17651 0.01204 0.79041 0.0
H263 H 0.15743 0.00489 0.74921 0.0
H264 H 0.27381 0.0737 0.91797 0.0
H265 H 0.22745 0.06199 0.88193 0.0
H266 H 0.29747 0.99015 0.84691 0.0
H267 H 0.34466 0.00315 0.88262 0.0
H268 H 0.24004 0.004 0.82171 0.0
H269 H 0.18573 0.03113 0.85827 0.0
H270 H 0.12426 0.0149 0.84205 0.0
H271 H 0.07743 0.00574 0.8053 0.0
C272 C 0.02739 0.31245 0.37696 0.0
C273 C 0.04505 0.31175 0.40304 0.0
C274 C 0.03587 0.28846 0.35777 0.0
C275 C 0.06211 0.26313 0.36433 0.0
C276 C 0.08166 0.26417 0.38969 0.0
C277 C 0.07312 0.28811 0.40892 0.0
C278 C 0.06763 0.23363 0.34624 0.0
C279 C 0.04041 0.21958 0.33027 0.0
C280 C 0.04248 0.18477 0.31814 0.0
C281 C 0.01184 0.16385 0.31642 0.0
C282 C 0.01343 0.1295 0.30824 0.0
C283 C 0.04553 0.11554 0.30097 0.0
H284 H 0.09815 0.18717 0.31021 0.0
C285 C 0.0757 0.13704 0.30096 0.0
C286 C 0.07429 0.17138 0.3097 0.0
H287 H 0.10074 0.12694 0.29534 0.0
H288 H 0.0063 0.33098 0.37159 0.0
H289 H 0.02119 0.28925 0.33807 0.0
H290 H 0.10222 0.24514 0.39518 0.0
H291 H 0.08721 0.28678 0.42882 0.0
H292 H 0.09301 0.22005 0.34925 0.0
H293 H 0.01407 0.23128 0.32939 0.0
H294 H 0.98694 0.17363 0.32258 0.0
H295 H 0.98965 0.11363 0.30814 0.0
C296 C 0.75167 0.02619 0.89305 0.0
C297 C 0.75865 0.00439 0.91536 0.0
C298 C 0.77728 0.03086 0.87495 0.0
C299 C 0.81061 0.01395 0.87892 0.0
C300 C 0.81743 0.99227 0.90126 0.0
C301 C 0.7919 0.98762 0.91928 0.0
C302 C 0.83852 0.01677 0.85996 0.0
C303 C 0.83913 0.04108 0.84078 0.0
C304 C 0.86639 0.04132 0.82126 0.0
C305 C 0.85697 0.05434 0.79542 0.0
C306 C 0.88088 0.05238 0.77587 0.0
C307 C 0.91496 0.03771 0.78187 0.0
H308 H 0.90996 0.01933 0.84768 0.0
C309 C 0.92516 0.02651 0.80818 0.0
C310 C 0.90118 0.02833 0.82768 0.0
H311 H 0.95137 0.01547 0.81357 0.0
H312 H 0.72614 0.03916 0.88931 0.0
H313 H 0.77033 0.04711 0.85772 0.0
H314 H 0.84275 0.97884 0.90488 0.0
H315 H 0.79843 0.97111 0.9365 0.0
H316 H 0.85936 0.99726 0.86181 0.0
H317 H 0.81821 0.0604 0.83815 0.0
H318 H 0.83054 0.06494 0.79004 0.0
H319 H 0.87226 0.06154 0.75586 0.0
C320 C 1.00316 0.73857 0.38989 0.0
C321 C 0.01575 0.73793 0.41726 0.0
C322 C 0.01151 0.76627 0.37369 0.0
C323 C 0.0327 0.79388 0.38461 0.0
C324 C 0.04557 0.79291 0.41184 0.0
C325 C 0.0373 0.7653 0.42796 0.0
C326 C 0.04014 0.82527 0.36905 0.0
C327 C 0.03718 0.82713 0.34209 0.0
C328 C 0.04416 0.85978 0.32793 0.0
C329 C 0.05812 0.85857 0.30303 0.0
C330 C 0.06627 0.88914 0.28999 0.0
C331 C 0.06011 0.92146 0.30149 0.0
H332 H 0.02493 0.89417 0.3576 0.0
C333 C 0.04498 0.92257 0.32595 0.0
C334 C 0.03692 0.89215 0.33893 0.0
H335 H 0.03983 0.94696 0.33539 0.0
H336 H 0.98659 0.7178 0.38104 0.0
H337 H 1.0004 0.76632 0.35295 0.0
H338 H 0.06167 0.81392 0.42087 0.0
H339 H 0.0469 0.76602 0.44905 0.0
H340 H 0.04948 0.84786 0.38062 0.0
H341 H 0.03128 0.80411 0.33008 0.0
H342 H 0.06351 0.83396 0.29396 0.0
H343 H 0.07773 0.88744 0.27108 0.0
loop_
_geom_bond_atom_site_label_1
_geom_bond_atom_site_label_2
_geom_bond_distance
_geom_bond_site_symmetry_2
_ccdc_geom_bond_type
H0 C27 0.929 . S
N1 C26 1.433 . S
N1 C32 1.435 1_554 S
N1 C38 1.423 1_554 S
H2 C28 0.930 . S
H3 C31 0.931 1_565 S
H4 C30 0.929 . S
H5 C33 0.930 . S
H6 C34 0.932 . S
H7 C37 0.929 . S
H8 C36 0.931 . S
H9 C39 0.929 . S
H10 C43 0.932 1_565 S
H11 C40 0.931 . S
H12 C42 0.929 . S
H13 C45 0.929 . S
H14 C46 0.930 . S
H15 C48 0.929 . S
H16 C49 0.931 1_565 S
H17 C51 0.930 . S
H18 C52 0.932 . S
H19 C54 0.931 . S
H20 C55 0.929 . S
H21 C57 0.929 . S
H22 C58 0.931 . S
H23 C60 0.929 . S
N24 C44 1.397 1_556 S
N24 C50 1.462 . S
N24 C56 1.431 . S
H25 C61 0.932 1_565 S
C26 N1 1.433 . S
C26 C27 1.363 . S
C26 C31 1.370 . S
C27 H0 0.929 . S
C27 C26 1.363 . S
C27 C28 1.385 . S
C28 H2 0.930 . S
C28 C27 1.385 . S
C28 C29 1.357 . S
C29 C28 1.357 . S
C29 C30 1.406 1_545 S
C30 H4 0.929 . S
C30 C29 1.406 1_565 S
C30 C31 1.391 1_565 S
C31 H3 0.931 1_545 S
C31 C26 1.370 . S
C31 C30 1.391 1_545 S
C32 N1 1.435 1_556 S
C32 C33 1.358 1_545 S
C32 C37 1.371 . S
C33 H5 0.930 . S
C33 C32 1.358 1_565 S
C33 C34 1.405 . S
C34 H6 0.932 . S
C34 C33 1.405 . S
C34 C35 1.383 1_565 S
C35 C34 1.383 1_545 S
C35 C36 1.393 . S
C36 H8 0.931 . S
C36 C35 1.393 . S
C36 C37 1.382 . S
C37 H7 0.929 . S
C37 C32 1.371 . S
C37 C36 1.382 . S
C38 N1 1.423 1_556 S
C38 C39 1.362 1_556 S
C38 C43 1.388 . S
C39 H9 0.929 . S
C39 C38 1.362 1_554 S
C39 C40 1.376 . S
C40 H11 0.931 . S
C40 C39 1.376 . S
C40 C41 1.396 1_554 S
C41 C40 1.396 1_556 S
C41 C42 1.348 . S
C41 C59 1.472 . S
C42 H12 0.929 . S
C42 C41 1.348 . S
C42 C43 1.443 . S
C43 H10 0.932 1_545 S
C43 C38 1.388 . S
C43 C42 1.443 . S
C44 N24 1.397 1_554 S
C44 C45 1.363 . S
C44 C49 1.370 . S
C45 H13 0.929 . S
C45 C44 1.363 . S
C45 C46 1.385 . S
C46 H14 0.930 . S
C46 C45 1.385 . S
C46 C47 1.357 . S
C47 C46 1.357 . S
C47 C48 1.406 1_545 S
C48 H15 0.929 . S
C48 C47 1.406 1_565 S
C48 C49 1.391 1_565 S
C49 H16 0.931 1_545 S
C49 C44 1.370 . S
C49 C48 1.391 1_545 S
C50 N24 1.462 . S
C50 C51 1.358 1_545 S
C50 C55 1.371 . S
C51 H17 0.930 . S
C51 C50 1.358 1_565 S
C51 C52 1.405 . S
C52 H18 0.932 . S
C52 C51 1.405 . S
C52 C53 1.383 1_565 S
C53 C52 1.383 1_545 S
C53 C54 1.393 . S
C54 H19 0.931 . S
C54 C53 1.393 . S
C54 C55 1.382 . S
C55 H20 0.929 . S
C55 C50 1.371 . S
C55 C54 1.382 . S
C56 N24 1.431 . S
C56 C57 1.362 1_556 S
C56 C61 1.388 . S
C57 H21 0.929 . S
C57 C56 1.362 1_554 S
C57 C58 1.376 . S
C58 H22 0.931 . S
C58 C57 1.376 . S
C58 C59 1.396 1_554 S
C59 C41 1.472 . S
C59 C58 1.396 1_556 S
C59 C60 1.348 . S
C60 H23 0.929 . S
C60 C59 1.348 . S
C60 C61 1.443 . S
C61 H25 0.932 1_545 S
C61 C56 1.388 . S
C61 C60 1.443 . S
H62 C89 0.940 . S
N63 C88 1.433 . S
N63 C94 1.435 . S
N63 C100 1.423 . S
H64 C90 0.930 1_655 S
H65 C93 0.931 . S
H66 C92 0.929 . S
H67 C95 0.930 . S
H68 C96 0.932 . S
H69 C99 0.916 1_655 S
H70 C98 0.931 1_655 S
H71 C101 0.929 . S
H72 C105 0.932 . S
H73 C102 0.931 . S
H74 C104 0.929 . S
H75 C107 0.940 . S
H76 C108 0.930 1_655 S
H77 C110 0.929 . S
H78 C111 0.931 . S
H79 C113 0.930 . S
H80 C114 0.932 . S
H81 C116 0.931 1_655 S
H82 C117 0.916 1_655 S
H83 C119 0.929 . S
H84 C120 0.931 . S
H85 C122 0.929 . S
N86 C106 1.433 . S
N86 C112 1.435 . S
N86 C118 1.423 . S
H87 C123 0.932 . S
C88 N63 1.433 . S
C88 C89 1.352 1_455 S
C88 C93 1.370 . S
C89 H62 0.940 . S
C89 C88 1.352 1_655 S
C89 C90 1.386 1_655 S
C90 H64 0.930 1_455 S
C90 C89 1.386 1_455 S
C90 C91 1.357 . S
C91 C90 1.357 . S
C91 C92 1.406 . S
C92 H66 0.929 . S
C92 C91 1.406 . S
C92 C93 1.391 . S
C93 H65 0.931 . S
C93 C88 1.370 . S
C93 C92 1.391 . S
C94 N63 1.435 . S
C94 C95 1.358 . S
C94 C99 1.379 . S
C95 H67 0.930 . S
C95 C94 1.358 . S
C95 C96 1.405 . S
C96 H68 0.932 . S
C96 C95 1.405 . S
C96 C97 1.383 . S
C97 C96 1.383 . S
C97 C98 1.393 . S
C98 H70 0.931 1_455 S
C98 C97 1.393 . S
C98 C99 1.388 . S
C99 H69 0.916 1_455 S
C99 C94 1.379 . S
C99 C98 1.388 . S
C100 N63 1.423 . S
C100 C101 1.362 1_455 S
C100 C105 1.388 . S
C101 H71 0.929 . S
C101 C100 1.362 1_655 S
C101 C102 1.376 . S
C102 H73 0.931 . S
C102 C101 1.376 . S
C102 C103 1.396 1_655 S
C103 C102 1.396 1_455 S
C103 C104 1.348 . S
C103 C121 1.472 . S
C104 H74 0.929 . S
C104 C103 1.348 . S
C104 C105 1.443 . S
C105 H72 0.932 . S
C105 C100 1.388 . S
C105 C104 1.443 . S
C106 N86 1.433 . S
C106 C107 1.352 1_455 S
C106 C111 1.370 . S
C107 H75 0.940 . S
C107 C106 1.352 1_655 S
C107 C108 1.386 1_655 S
C108 H76 0.930 1_455 S
C108 C107 1.386 1_455 S
C108 C109 1.357 . S
C109 C108 1.357 . S
C109 C110 1.406 . S
C110 H77 0.929 . S
C110 C109 1.406 . S
C110 C111 1.391 . S
C111 H78 0.931 . S
C111 C106 1.370 . S
C111 C110 1.391 . S
C112 N86 1.435 . S
C112 C113 1.358 . S
C112 C117 1.379 . S
C113 H79 0.930 . S
C113 C112 1.358 . S
C113 C114 1.405 . S
C114 H80 0.932 . S
C114 C113 1.405 . S
C114 C115 1.383 . S
C115 C114 1.383 . S
C115 C116 1.393 . S
C116 H81 0.931 1_455 S
C116 C115 1.393 . S
C116 C117 1.388 . S
C117 H82 0.916 1_455 S
C117 C112 1.379 . S
C117 C116 1.388 . S
C118 N86 1.423 . S
C118 C119 1.362 1_455 S
C118 C123 1.388 . S
C119 H83 0.929 . S
C119 C118 1.362 1_655 S
C119 C120 1.376 . S
C120 H84 0.931 . S
C120 C119 1.376 . S
C120 C121 1.396 1_655 S
C121 C103 1.472 . S
C121 C120 1.396 1_455 S
C121 C122 1.348 . S
C122 H85 0.929 . S
C122 C121 1.348 . S
C122 C123 1.443 . S
C123 H87 0.932 . S
C123 C118 1.388 . S
C123 C122 1.443 . S
Mg124 O125 2.028 . S
Mg124 O131 1.986 . S
Mg124 O133 2.114 1_545 S
Mg124 O134 2.251 1_545 S
Mg124 O137 2.010 . S
O125 Mg124 2.028 . S
O125 C128 1.250 1_455 S
O126 Mg127 2.028 . S
O126 C128 1.248 . S
Mg127 O126 2.028 . S
Mg127 O132 2.032 1_655 S
Mg127 O134 2.079 1_645 S
C128 O125 1.250 1_655 S
C128 O126 1.248 . S
C129 O130 1.264 . S
C129 O137 1.249 . S
O130 C129 1.264 . S
O131 Mg124 1.986 . S
O131 C135 1.246 . S
O132 Mg127 2.032 1_455 S
O132 C135 1.259 . S
O133 Mg124 2.114 1_565 S
O133 C136 1.252 . S
O134 Mg124 2.251 1_565 S
O134 Mg127 2.079 1_465 S
O134 C136 1.273 . S
C135 O131 1.246 . S
C135 O132 1.259 . S
C136 O133 1.252 . S
C136 O134 1.273 . S
O137 Mg124 2.010 . S
O137 C129 1.249 . S
Mg138 O139 2.028 1_655 S
Mg138 O145 1.986 . S
Mg138 O147 2.114 1_545 S
Mg138 O148 2.251 1_645 S
Mg138 O151 2.010 . S
O139 Mg138 2.028 1_455 S
O139 C142 1.250 . S
O140 Mg141 2.028 . S
O140 C142 1.248 . S
Mg141 O140 2.028 . S
Mg141 O146 2.032 . S
Mg141 O148 2.079 1_545 S
C142 O139 1.250 . S
C142 O140 1.248 . S
C143 O144 1.264 . S
C143 O151 1.249 . S
O144 C143 1.264 . S
O145 Mg138 1.986 . S
O145 C149 1.246 1_655 S
O146 Mg141 2.032 . S
O146 C149 1.259 . S
O147 Mg138 2.114 1_565 S
O147 C150 1.252 1_655 S
O148 Mg138 2.251 1_465 S
O148 Mg141 2.079 1_565 S
O148 C150 1.273 . S
C149 O145 1.246 1_455 S
C149 O146 1.259 . S
C150 O147 1.252 1_455 S
C150 O148 1.273 . S
O151 Mg138 2.010 . S
O151 C143 1.249 . S
C152 C153 1.386 1_565 S
C152 C154 1.383 . S
C152 H168 0.951 . S
C153 C152 1.386 1_545 S
C153 C157 1.383 . S
C154 C152 1.383 . S
C154 C155 1.402 1_565 S
C154 H169 0.951 . S
C155 C154 1.402 1_545 S
C155 C156 1.375 . S
C155 C158 1.481 . S
C156 C155 1.375 . S
C156 C157 1.367 . S
C156 H170 0.951 . S
C157 C153 1.383 . S
C157 C156 1.367 . S
C157 H171 0.950 . S
C158 C155 1.481 . S
C158 C159 1.297 1_545 S
C158 H172 0.950 . S
C159 C158 1.297 1_565 S
C159 C160 1.477 1_565 S
C159 H173 0.950 . S
C160 C159 1.477 1_545 S
C160 C161 1.370 1_545 S
C160 C166 1.413 . S
C161 C160 1.370 1_565 S
C161 C162 1.369 1_565 S
C161 H174 0.950 . S
C162 C161 1.369 1_545 S
C162 C163 1.392 . S
C162 H175 0.951 1_545 S
C163 C162 1.392 . S
C163 C165 1.384 . S
H164 C166 0.949 . S
C165 C163 1.384 . S
C165 C166 1.385 . S
C165 H167 0.950 . S
C166 C160 1.413 . S
C166 H164 0.949 . S
C166 C165 1.385 . S
H167 C165 0.950 . S
H168 C152 0.951 . S
H169 C154 0.951 . S
H170 C156 0.951 . S
H171 C157 0.950 . S
H172 C158 0.950 . S
H173 C159 0.950 . S
H174 C161 0.950 . S
H175 C162 0.951 1_565 S
C176 C177 1.386 1_655 S
C176 C178 1.383 . S
C176 H192 0.951 . S
C177 C176 1.386 1_455 S
C177 C181 1.383 . S
C178 C176 1.383 . S
C178 C179 1.402 1_655 S
C178 H193 0.951 . S
C179 C178 1.402 1_455 S
C179 C180 1.375 . S
C179 C182 1.481 . S
C180 C179 1.375 . S
C180 C181 1.367 . S
C180 H194 0.951 . S
C181 C177 1.383 . S
C181 C180 1.367 . S
C181 H195 0.950 . S
C182 C179 1.481 . S
C182 C183 1.297 1_455 S
C182 H196 0.950 . S
C183 C182 1.297 1_655 S
C183 C184 1.480 1_655 S
C183 H197 0.950 . S
C184 C183 1.480 1_455 S
C184 C185 1.378 1_455 S
C184 C190 1.402 . S
C185 C184 1.378 1_655 S
C185 C186 1.369 . S
C185 H198 0.950 . S
C186 C185 1.369 . S
C186 C187 1.392 1_655 S
C186 H199 0.951 . S
C187 C186 1.392 1_455 S
C187 C189 1.384 . S
H188 C190 0.949 . S
C189 C187 1.384 . S
C189 C190 1.385 . S
C189 H191 0.950 . S
C190 C184 1.402 . S
C190 H188 0.949 . S
C190 C189 1.385 . S
H191 C189 0.950 . S
H192 C176 0.951 . S
H193 C178 0.951 . S
H194 C180 0.951 . S
H195 C181 0.950 . S
H196 C182 0.950 . S
H197 C183 0.950 . S
H198 C185 0.950 . S
H199 C186 0.951 . S
C200 C201 1.386 . S
C200 C202 1.383 . S
C200 H216 0.951 . S
C201 C200 1.386 . S
C201 C205 1.383 1_545 S
C202 C200 1.383 . S
C202 C203 1.402 . S
C202 H217 0.951 . S
C203 C202 1.402 . S
C203 C204 1.375 1_545 S
C203 C206 1.481 . S
C204 C203 1.375 1_565 S
C204 C205 1.367 . S
C204 H218 0.951 . S
C205 C201 1.383 1_565 S
C205 C204 1.367 . S
C205 H219 0.950 . S
C206 C203 1.481 . S
C206 C207 1.297 . S
C206 H220 0.950 1_545 S
C207 C206 1.297 . S
C207 C208 1.479 . S
C207 H221 0.950 . S
C208 C207 1.479 . S
C208 C209 1.375 . S
C208 C214 1.404 . S
C209 C208 1.375 . S
C209 C210 1.369 . S
C209 H222 0.950 . S
C210 C209 1.369 . S
C210 C211 1.392 . S
C210 H223 0.951 . S
C211 C210 1.392 . S
C211 C213 1.384 . S
H212 C214 0.949 1_565 S
C213 C211 1.384 . S
C213 C214 1.385 . S
C213 H215 0.950 1_545 S
C214 C208 1.404 . S
C214 H212 0.949 1_545 S
C214 C213 1.385 . S
H215 C213 0.950 1_565 S
H216 C200 0.951 . S
H217 C202 0.951 . S
H218 C204 0.951 . S
H219 C205 0.950 . S
H220 C206 0.950 1_565 S
H221 C207 0.950 . S
H222 C209 0.950 . S
H223 C210 0.951 . S
C224 C225 1.386 . S
C224 C226 1.383 . S
C224 H240 0.951 . S
C225 C224 1.386 . S
C225 C229 1.383 1_455 S
C226 C224 1.383 . S
C226 C227 1.402 . S
C226 H241 0.951 . S
C227 C226 1.402 . S
C227 C228 1.375 1_455 S
C227 C230 1.481 1_455 S
C228 C227 1.375 1_655 S
C228 C229 1.367 . S
C228 H242 0.951 . S
C229 C225 1.383 1_655 S
C229 C228 1.367 . S
C229 H243 0.950 . S
C230 C227 1.481 1_655 S
C230 C231 1.297 1_655 S
C230 H244 0.950 . S
C231 C230 1.297 1_455 S
C231 C232 1.479 . S
C231 H245 0.950 . S
C232 C231 1.479 . S
C232 C233 1.375 . S
C232 C238 1.404 1_455 S
C233 C232 1.375 . S
C233 C234 1.369 . S
C233 H246 0.950 . S
C234 C233 1.369 . S
C234 C235 1.392 . S
C234 H247 0.951 . S
C235 C234 1.392 . S
C235 C237 1.384 1_455 S
H236 C238 0.949 . S
C237 C235 1.384 1_655 S
C237 C238 1.385 . S
C237 H239 0.950 . S
C238 C232 1.404 1_655 S
C238 H236 0.949 . S
C238 C237 1.385 . S
H239 C237 0.950 . S
H240 C224 0.951 . S
H241 C226 0.951 . S
H242 C228 0.951 . S
H243 C229 0.950 . S
H244 C230 0.950 . S
H245 C231 0.950 . S
H246 C233 0.950 . S
H247 C234 0.951 . S
C248 C249 1.386 . S
C248 C250 1.383 . S
C248 H264 0.951 . S
C249 C248 1.386 . S
C249 C253 1.383 1_545 S
C250 C248 1.383 . S
C250 C251 1.402 . S
C250 H265 0.951 . S
C251 C250 1.402 . S
C251 C252 1.375 1_545 S
C251 C254 1.481 . S
C252 C251 1.375 1_565 S
C252 C253 1.367 . S
C252 H266 0.951 . S
C253 C249 1.383 1_565 S
C253 C252 1.367 . S
C253 H267 0.950 . S
C254 C251 1.481 . S
C254 C255 1.302 . S
C254 H268 0.944 1_545 S
C255 C254 1.302 . S
C255 C256 1.479 . S
C255 H269 0.950 . S
C256 C255 1.479 . S
C256 C257 1.375 . S
C256 C262 1.404 1_545 S
C257 C256 1.375 . S
C257 C258 1.369 . S
C257 H270 0.950 . S
C258 C257 1.369 . S
C258 C259 1.392 . S
C258 H271 0.951 . S
C259 C258 1.392 . S
C259 C261 1.384 1_545 S
H260 C262 0.949 . S
C261 C259 1.384 1_565 S
C261 C262 1.385 . S
C261 H263 0.950 . S
C262 C256 1.404 1_565 S
C262 H260 0.949 . S
C262 C261 1.385 . S
H263 C261 0.950 . S
H264 C248 0.951 . S
H265 C250 0.951 . S
H266 C252 0.951 . S
H267 C253 0.950 . S
H268 C254 0.944 1_565 S
H269 C255 0.950 . S
H270 C257 0.950 . S
H271 C258 0.951 . S
C272 C273 1.386 . S
C272 C274 1.383 . S
C272 H288 0.951 . S
C273 C272 1.386 . S
C273 C277 1.383 . S
C274 C272 1.383 . S
C274 C275 1.402 . S
C274 H289 0.951 . S
C275 C274 1.402 . S
C275 C276 1.375 . S
C275 C278 1.481 . S
C276 C275 1.375 . S
C276 C277 1.367 . S
C276 H290 0.951 . S
C277 C273 1.383 . S
C277 C276 1.367 . S
C277 H291 0.950 . S
C278 C275 1.481 . S
C278 C279 1.297 . S
C278 H292 0.950 . S
C279 C278 1.297 . S
C279 C280 1.479 . S
C279 H293 0.950 . S
C280 C279 1.479 . S
C280 C281 1.375 . S
C280 C286 1.404 . S
C281 C280 1.375 . S
C281 C282 1.369 . S
C281 H294 0.950 . S
C282 C281 1.369 . S
C282 C283 1.392 . S
C282 H295 0.951 . S
C283 C282 1.392 . S
C283 C285 1.384 . S
H284 C286 0.949 . S
C285 C283 1.384 . S
C285 C286 1.385 . S
C285 H287 0.950 . S
C286 C280 1.404 . S
C286 H284 0.949 . S
C286 C285 1.385 . S
H287 C285 0.950 . S
H288 C272 0.951 . S
H289 C274 0.951 . S
H290 C276 0.951 . S
H291 C277 0.950 . S
H292 C278 0.950 . S
H293 C279 0.950 . S
H294 C281 0.950 . S
H295 C282 0.951 . S
C296 C297 1.386 . S
C296 C298 1.383 . S
C296 H312 0.951 . S
C297 C296 1.386 . S
C297 C301 1.383 . S
C298 C296 1.383 . S
C298 C299 1.402 . S
C298 H313 0.951 . S
C299 C298 1.402 . S
C299 C300 1.375 . S
C299 C302 1.481 . S
C300 C299 1.375 . S
C300 C301 1.367 . S
C300 H314 0.951 . S
C301 C297 1.383 . S
C301 C300 1.367 . S
C301 H315 0.950 . S
C302 C299 1.481 . S
C302 C303 1.297 . S
C302 H316 0.950 . S
C303 C302 1.297 . S
C303 C304 1.479 . S
C303 H317 0.950 . S
C304 C303 1.479 . S
C304 C305 1.375 . S
C304 C310 1.404 . S
C305 C304 1.375 . S
C305 C306 1.369 . S
C305 H318 0.950 . S
C306 C305 1.369 . S
C306 C307 1.392 . S
C306 H319 0.951 . S
C307 C306 1.392 . S
C307 C309 1.384 . S
H308 C310 0.949 . S
C309 C307 1.384 . S
C309 C310 1.385 . S
C309 H311 0.950 . S
C310 C304 1.404 . S
C310 H308 0.949 . S
C310 C309 1.385 . S
H311 C309 0.950 . S
H312 C296 0.951 . S
H313 C298 0.951 . S
H314 C300 0.951 . S
H315 C301 0.950 . S
H316 C302 0.950 . S
H317 C303 0.950 . S
H318 C305 0.950 . S
H319 C306 0.951 . S
C320 C321 1.386 . S
C320 C322 1.383 . S
C320 H336 0.951 . S
C321 C320 1.386 . S
C321 C325 1.383 . S
C322 C320 1.383 . S
C322 C323 1.402 . S
C322 H337 0.951 . S
C323 C322 1.402 . S
C323 C324 1.375 . S
C323 C326 1.481 . S
C324 C323 1.375 . S
C324 C325 1.367 . S
C324 H338 0.951 . S
C325 C321 1.383 . S
C325 C324 1.367 . S
C325 H339 0.950 . S
C326 C323 1.481 . S
C326 C327 1.297 . S
C326 H340 0.950 . S
C327 C326 1.297 . S
C327 C328 1.479 . S
C327 H341 0.950 . S
C328 C327 1.479 . S
C328 C329 1.375 . S
C328 C334 1.404 . S
C329 C328 1.375 . S
C329 C330 1.369 . S
C329 H342 0.950 . S
C330 C329 1.369 . S
C330 C331 1.392 . S
C330 H343 0.951 . S
C331 C330 1.392 . S
C331 C333 1.384 . S
H332 C334 0.949 . S
C333 C331 1.384 . S
C333 C334 1.385 . S
C333 H335 0.950 . S
C334 C328 1.404 . S
C334 H332 0.949 . S
C334 C333 1.385 . S
H335 C333 0.950 . S
H336 C320 0.951 . S
H337 C322 0.951 . S
H338 C324 0.951 . S
H339 C325 0.950 . S
H340 C326 0.950 . S
H341 C327 0.950 . S
H342 C329 0.950 . S
H343 C330 0.951 . S
C163 C129 1.408 . S
C153 C47 1.678 . S
C187 C149 1.737 . S
C177 C109 1.604 . S
C211 C128 1.645 . S
C201 C29 1.665 . S
C235 C150 1.753 . S
C225 C91 1.625 . S
C259 C142 1.311 . S
C249 C53 1.394 . S
C283 C135 1.388 . S
C273 C115 1.362 . S
C307 C143 1.203 . S
C297 C35 1.376 . S
C321 C97 1.358 . S
C331 C136 1.387 . S
