# Generated by pormake.
# Topology apo, (3,6)-cn, num edge types: 1
# Building blocks:
#     Node 0, Type 0, BuildingBlock: VETTIZ_charged_linker_0, # of connection points: 3
#     Node 1, Type 0, BuildingBlock: VETTIZ_charged_linker_0, # of connection points: 3
#     Node 2, Type 0, BuildingBlock: VETTIZ_charged_linker_0, # of connection points: 3
#     Node 3, Type 0, BuildingBlock: VETTIZ_charged_linker_0, # of connection points: 3
#     Node 4, Type 0, BuildingBlock: VETTIZ_charged_linker_0, # of connection points: 3
#     Node 5, Type 0, BuildingBlock: VETTIZ_charged_linker_0, # of connection points: 3
#     Node 6, Type 0, BuildingBlock: VETTIZ_charged_linker_0, # of connection points: 3
#     Node 7, Type 0, BuildingBlock: VETTIZ_charged_linker_0, # of connection points: 3
#     Node 8, Type 1, BuildingBlock: KUMJIN_clean_sbu_1, # of connection points: 6
#     Node 9, Type 1, BuildingBlock: KUMJIN_clean_sbu_1, # of connection points: 6
#     Node 10, Type 1, BuildingBlock: KUMJIN_clean_sbu_1, # of connection points: 6
#     Node 11, Type 1, BuildingBlock: KUMJIN_clean_sbu_1, # of connection points: 6
#     Edge 12, Type (0, 1), BuildingBlock: UVAHIK_clean_linker_0, # of connection points: 2
#     Edge 13, Type (0, 1), BuildingBlock: UVAHIK_clean_linker_0, # of connection points: 2
#     Edge 14, Type (0, 1), BuildingBlock: UVAHIK_clean_linker_0, # of connection points: 2
#     Edge 15, Type (0, 1), BuildingBlock: UVAHIK_clean_linker_0, # of connection points: 2
#     Edge 16, Type (0, 1), BuildingBlock: UVAHIK_clean_linker_0, # of connection points: 2
#     Edge 17, Type (0, 1), BuildingBlock: UVAHIK_clean_linker_0, # of connection points: 2
#     Edge 18, Type (0, 1), BuildingBlock: UVAHIK_clean_linker_0, # of connection points: 2
#     Edge 19, Type (0, 1), BuildingBlock: UVAHIK_clean_linker_0, # of connection points: 2
#     Edge 20, Type (0, 1), BuildingBlock: UVAHIK_clean_linker_0, # of connection points: 2
#     Edge 21, Type (0, 1), BuildingBlock: UVAHIK_clean_linker_0, # of connection points: 2
#     Edge 22, Type (0, 1), BuildingBlock: UVAHIK_clean_linker_0, # of connection points: 2
#     Edge 23, Type (0, 1), BuildingBlock: UVAHIK_clean_linker_0, # of connection points: 2
#     Edge 24, Type (0, 1), BuildingBlock: UVAHIK_clean_linker_0, # of connection points: 2
#     Edge 25, Type (0, 1), BuildingBlock: UVAHIK_clean_linker_0, # of connection points: 2
#     Edge 26, Type (0, 1), BuildingBlock: UVAHIK_clean_linker_0, # of connection points: 2
#     Edge 27, Type (0, 1), BuildingBlock: UVAHIK_clean_linker_0, # of connection points: 2
#     Edge 28, Type (0, 1), BuildingBlock: UVAHIK_clean_linker_0, # of connection points: 2
#     Edge 29, Type (0, 1), BuildingBlock: UVAHIK_clean_linker_0, # of connection points: 2
#     Edge 30, Type (0, 1), BuildingBlock: UVAHIK_clean_linker_0, # of connection points: 2
#     Edge 31, Type (0, 1), BuildingBlock: UVAHIK_clean_linker_0, # of connection points: 2
#     Edge 32, Type (0, 1), BuildingBlock: UVAHIK_clean_linker_0, # of connection points: 2
#     Edge 33, Type (0, 1), BuildingBlock: UVAHIK_clean_linker_0, # of connection points: 2
#     Edge 34, Type (0, 1), BuildingBlock: UVAHIK_clean_linker_0, # of connection points: 2
#     Edge 35, Type (0, 1), BuildingBlock: UVAHIK_clean_linker_0, # of connection points: 2
# Relax obj value: 0.011
# Max RMSD: 0.085
# Mean RMSD: 0.069
data_MOF--net-apo--node1-KUMJIN_clean_sbu_1--node2-VETTIZ_charged_linker_0--edge1-UVAHIK_clean_linker_0
_symmetry_space_group_name_H-M    P1
_symmetry_Int_Tables_number       1
_symmetry_cell_setting            triclinic
loop_
_symmetry_equiv_pos_as_xyz
'x, y, z'
_cell_length_a     35.608663
_cell_length_b     65.04528
_cell_length_c     77.235257
_cell_angle_alpha  89.905164
_cell_angle_beta   89.927424
_cell_angle_gamma 90.338114
loop_
_atom_site_label
_atom_site_type_symbol
_atom_site_fract_x
_atom_site_fract_y
_atom_site_fract_z
_atom_type_partial_charge
C0 C 0.29891 0.37193 0.47609 0.0
C1 C 0.31921 0.38695 0.48539 0.0
C2 C 0.33227 0.40456 0.47645 0.0
C3 C 0.30486 0.39211 0.44971 0.0
C4 C 0.29229 0.37476 0.45834 0.0
C5 C 0.27226 0.36 0.44645 0.0
H6 H 0.20943 0.33783 0.36573 0.0
C7 C 0.29362 0.39032 0.43136 0.0
C8 C 0.27458 0.37147 0.42934 0.0
H9 H 0.20205 0.29945 0.41144 0.0
H10 H 0.23266 0.32596 0.42829 0.0
H11 H 0.19019 0.38103 0.38439 0.0
H12 H 0.29197 0.34984 0.37087 0.0
H13 H 0.30213 0.37606 0.36838 0.0
H14 H 0.26596 0.36435 0.35525 0.0
H15 H 0.20639 0.37806 0.36252 0.0
H16 H 0.22098 0.39956 0.37564 0.0
C17 C 0.23123 0.35762 0.45281 0.0
C18 C 0.29463 0.33965 0.44604 0.0
C19 C 0.32674 0.44737 0.38854 0.0
C20 C 0.32158 0.44923 0.37055 0.0
C21 C 0.30228 0.43361 0.36157 0.0
C22 C 0.28849 0.41628 0.3703 0.0
C23 C 0.29435 0.41438 0.38821 0.0
C24 C 0.3132 0.42974 0.39706 0.0
C25 C 0.31799 0.42457 0.41595 0.0
C26 C 0.29874 0.40365 0.41693 0.0
C27 C 0.28483 0.3979 0.40065 0.0
C28 C 0.29692 0.44095 0.42668 0.0
C29 C 0.36061 0.42319 0.41984 0.0
C30 C 0.21462 0.33493 0.37933 0.0
C31 C 0.20335 0.31636 0.38716 0.0
C32 C 0.21005 0.31364 0.40504 0.0
C33 C 0.22815 0.329 0.41479 0.0
C34 C 0.23993 0.34727 0.4066 0.0
C35 C 0.23301 0.34992 0.38915 0.0
C36 C 0.2484 0.36988 0.38233 0.0
C37 C 0.26564 0.3789 0.39858 0.0
C38 C 0.26052 0.36571 0.41281 0.0
C39 C 0.21499 0.38289 0.37573 0.0
C40 C 0.2785 0.36496 0.36839 0.0
H41 H 0.33586 0.42096 0.45279 0.0
H42 H 0.2881 0.35828 0.48245 0.0
H43 H 0.32533 0.34266 0.44711 0.0
H44 H 0.29133 0.33121 0.43373 0.0
H45 H 0.2864 0.32942 0.45695 0.0
H46 H 0.21977 0.37274 0.45689 0.0
H47 H 0.2295 0.34705 0.4641 0.0
H48 H 0.21201 0.35202 0.44264 0.0
H49 H 0.34188 0.45907 0.3957 0.0
H50 H 0.29779 0.43485 0.34774 0.0
H51 H 0.27406 0.40497 0.36268 0.0
H52 H 0.26967 0.44484 0.42049 0.0
H53 H 0.3137 0.45535 0.42768 0.0
H54 H 0.28956 0.43563 0.43984 0.0
H55 H 0.37647 0.41775 0.40832 0.0
H56 H 0.36717 0.41189 0.43009 0.0
H57 H 0.37234 0.43842 0.42354 0.0
H58 H 0.34864 0.41621 0.48307 0.0
C59 C 0.32509 0.40724 0.45876 0.0
C60 C 0.28805 0.16676 0.88104 0.0
C61 C 0.30358 0.18405 0.88923 0.0
C62 C 0.30111 0.18578 0.90737 0.0
C63 C 0.26622 0.1536 0.90875 0.0
C64 C 0.26999 0.15169 0.891 0.0
C65 C 0.25322 0.13204 0.88428 0.0
H66 H 0.15642 0.04405 0.89907 0.0
C67 C 0.24501 0.13544 0.91511 0.0
C68 C 0.2378 0.12266 0.90082 0.0
H69 H 0.20371 0.06595 0.85079 0.0
H70 H 0.22824 0.09597 0.86516 0.0
H71 H 0.22724 0.0555 0.92258 0.0
H72 H 0.12489 0.08747 0.91122 0.0
H73 H 0.13451 0.09197 0.93315 0.0
H74 H 0.1264 0.066 0.9258 0.0
H75 H 0.18273 0.04794 0.93155 0.0
H76 H 0.21226 0.06682 0.94201 0.0
C77 C 0.28526 0.11895 0.87639 0.0
C78 C 0.22153 0.13762 0.87139 0.0
C79 C 0.203 0.13095 0.97818 0.0
C80 C 0.18091 0.11648 0.98726 0.0
C81 C 0.1685 0.09865 0.97858 0.0
C82 C 0.17709 0.09545 0.96112 0.0
C83 C 0.1983 0.11024 0.95209 0.0
C84 C 0.21119 0.12757 0.96062 0.0
C85 C 0.23329 0.14159 0.94878 0.0
C86 C 0.23089 0.12994 0.93174 0.0
C87 C 0.21036 0.11159 0.93383 0.0
C88 C 0.27413 0.14295 0.95558 0.0
C89 C 0.21287 0.1625 0.94789 0.0
C90 C 0.17186 0.05539 0.89158 0.0
C91 C 0.17818 0.05258 0.87376 0.0
C92 C 0.19886 0.0676 0.86457 0.0
C93 C 0.21295 0.0851 0.87293 0.0
C94 C 0.20639 0.0877 0.89073 0.0
C95 C 0.18628 0.07295 0.89976 0.0
C96 C 0.18232 0.07826 0.91862 0.0
C97 C 0.20366 0.09853 0.91943 0.0
C98 C 0.21746 0.10402 0.90304 0.0
C99 C 0.20183 0.06126 0.92938 0.0
C100 C 0.13992 0.08096 0.92259 0.0
H101 H 0.28087 0.17291 0.93093 0.0
H102 H 0.29026 0.16491 0.86713 0.0
H103 H 0.20509 0.15093 0.87624 0.0
H104 H 0.20077 0.12515 0.86963 0.0
H105 H 0.23328 0.14192 0.85855 0.0
H106 H 0.31262 0.12227 0.88279 0.0
H107 H 0.28878 0.12214 0.86235 0.0
H108 H 0.28088 0.10226 0.87833 0.0
H109 H 0.2129 0.14483 0.98446 0.0
H110 H 0.15213 0.08705 0.98534 0.0
H111 H 0.16661 0.0816 0.95531 0.0
H112 H 0.28278 0.12822 0.96168 0.0
H113 H 0.2771 0.15524 0.96546 0.0
H114 H 0.29482 0.1456 0.94512 0.0
H115 H 0.18202 0.16012 0.94662 0.0
H116 H 0.22117 0.17186 0.9366 0.0
H117 H 0.21795 0.17162 0.95982 0.0
H118 H 0.31311 0.19901 0.91388 0.0
C119 C 0.28232 0.17068 0.91718 0.0
C120 C 0.80661 0.1334 0.52947 0.0
C121 C 0.82904 0.11959 0.52002 0.0
C122 C 0.84547 0.10291 0.52887 0.0
C123 C 0.81734 0.11399 0.5559 0.0
C124 C 0.80129 0.13037 0.54729 0.0
C125 C 0.77884 0.14385 0.55925 0.0
H126 H 0.72202 0.16557 0.64093 0.0
C127 C 0.80648 0.11527 0.57438 0.0
C128 C 0.78393 0.1328 0.57642 0.0
H129 H 0.69609 0.19915 0.59406 0.0
H130 H 0.73126 0.17458 0.57726 0.0
H131 H 0.70293 0.12294 0.62576 0.0
H132 H 0.80773 0.15495 0.63198 0.0
H133 H 0.81455 0.12939 0.63871 0.0
H134 H 0.78028 0.14493 0.64963 0.0
H135 H 0.72794 0.12247 0.64587 0.0
H136 H 0.73621 0.1036 0.62917 0.0
C137 C 0.73738 0.14349 0.55323 0.0
C138 C 0.79714 0.1655 0.55932 0.0
C139 C 0.85164 0.06131 0.61755 0.0
C140 C 0.84515 0.05847 0.63543 0.0
C141 C 0.82183 0.07254 0.64415 0.0
C142 C 0.80602 0.08925 0.63547 0.0
C143 C 0.8131 0.09201 0.61774 0.0
C144 C 0.83519 0.07807 0.60899 0.0
C145 C 0.83848 0.08327 0.59001 0.0
C146 C 0.8148 0.10263 0.58892 0.0
C147 C 0.80039 0.10771 0.60526 0.0
C148 C 0.82106 0.06533 0.57952 0.0
C149 C 0.88035 0.08766 0.5859 0.0
C150 C 0.72334 0.16763 0.62703 0.0
C151 C 0.70613 0.18452 0.61894 0.0
C152 C 0.70949 0.18656 0.60078 0.0
C153 C 0.72977 0.17217 0.59099 0.0
C154 C 0.74686 0.15545 0.59938 0.0
C155 C 0.74302 0.15334 0.61709 0.0
C156 C 0.76167 0.13433 0.62388 0.0
C157 C 0.77822 0.12557 0.60739 0.0
C158 C 0.76975 0.13801 0.59306 0.0
C159 C 0.73087 0.12007 0.6317 0.0
C160 C 0.79259 0.14107 0.63683 0.0
H161 H 0.85313 0.08709 0.55262 0.0
H162 H 0.79313 0.14625 0.52313 0.0
H163 H 0.82831 0.16435 0.55916 0.0
H164 H 0.7905 0.17442 0.57105 0.0
H165 H 0.78858 0.17448 0.54775 0.0
H166 H 0.72938 0.128 0.54832 0.0
H167 H 0.73266 0.15472 0.54261 0.0
H168 H 0.7174 0.14658 0.56384 0.0
H169 H 0.86943 0.0509 0.61038 0.0
H170 H 0.81532 0.07055 0.65775 0.0
H171 H 0.78884 0.09938 0.64297 0.0
H172 H 0.79591 0.05894 0.58624 0.0
H173 H 0.84146 0.05262 0.57789 0.0
H174 H 0.8108 0.07011 0.56666 0.0
H175 H 0.8942 0.09573 0.59689 0.0
H176 H 0.8843 0.09799 0.57469 0.0
H177 H 0.89588 0.07316 0.58357 0.0
H178 H 0.86338 0.0922 0.52208 0.0
C179 C 0.83971 0.10003 0.54669 0.0
C180 C 0.78482 0.33366 0.12865 0.0
C181 C 0.79617 0.31463 0.12187 0.0
C182 C 0.78956 0.31052 0.10418 0.0
C183 C 0.75974 0.34378 0.10068 0.0
C184 C 0.76671 0.34784 0.11794 0.0
C185 C 0.75237 0.36849 0.12343 0.0
H186 H 0.65552 0.45479 0.10497 0.0
C187 C 0.73956 0.36166 0.09334 0.0
C188 C 0.73519 0.37614 0.10668 0.0
H189 H 0.70953 0.43819 0.15305 0.0
H190 H 0.73241 0.40694 0.14015 0.0
H191 H 0.72413 0.44258 0.08127 0.0
H192 H 0.62388 0.40937 0.09534 0.0
H193 H 0.63135 0.40566 0.07305 0.0
H194 H 0.62392 0.43127 0.08116 0.0
H195 H 0.67983 0.4476 0.07113 0.0
H196 H 0.71135 0.42821 0.06299 0.0
C197 C 0.78638 0.38188 0.1291 0.0
C198 C 0.72232 0.36502 0.1377 0.0
C199 C 0.69998 0.36262 0.02987 0.0
C200 C 0.68093 0.37723 0.01969 0.0
C201 C 0.66816 0.39541 0.02762 0.0
C202 C 0.67459 0.39915 0.04522 0.0
C203 C 0.69403 0.38457 0.05515 0.0
C204 C 0.70626 0.36662 0.0475 0.0
C205 C 0.72647 0.35295 0.06019 0.0
C206 C 0.72485 0.36585 0.07658 0.0
C207 C 0.70565 0.38432 0.07351 0.0
C208 C 0.76728 0.35007 0.05374 0.0
C209 C 0.70379 0.33268 0.06202 0.0
C210 C 0.67212 0.44432 0.1127 0.0
C211 C 0.68059 0.44885 0.13006 0.0
C212 C 0.70285 0.43507 0.13962 0.0
C213 C 0.71594 0.41687 0.13213 0.0
C214 C 0.70685 0.41238 0.11483 0.0
C215 C 0.68578 0.42615 0.10534 0.0
C216 C 0.68036 0.41922 0.08692 0.0
C217 C 0.70094 0.39882 0.08706 0.0
C218 C 0.71603 0.39483 0.10348 0.0
C219 C 0.69958 0.4352 0.07483 0.0
C220 C 0.6377 0.41631 0.08377 0.0
H221 H 0.76699 0.32088 0.08027 0.0
H222 H 0.79004 0.33754 0.14207 0.0
H223 H 0.70467 0.35131 0.13471 0.0
H224 H 0.70231 0.37782 0.13884 0.0
H225 H 0.73566 0.36239 0.1505 0.0
H226 H 0.8123 0.37755 0.12194 0.0
H227 H 0.79221 0.38003 0.14314 0.0
H228 H 0.78258 0.39838 0.12615 0.0
H229 H 0.71041 0.34855 0.02419 0.0
H230 H 0.65285 0.40676 0.02022 0.0
H231 H 0.66414 0.41329 0.0504 0.0
H232 H 0.77864 0.36471 0.04835 0.0
H233 H 0.76861 0.33828 0.04338 0.0
H234 H 0.78684 0.34578 0.06419 0.0
H235 H 0.67308 0.33569 0.06152 0.0
H236 H 0.70831 0.32494 0.07456 0.0
H237 H 0.71059 0.32185 0.05138 0.0
H238 H 0.79777 0.29595 0.09862 0.0
C239 C 0.77143 0.32497 0.09357 0.0
C240 C 0.68822 0.55984 0.62689 0.0
C241 C 0.66418 0.54478 0.61994 0.0
C242 C 0.65094 0.54714 0.60286 0.0
C243 C 0.68555 0.57924 0.6 0.0
C244 C 0.69818 0.57693 0.6168 0.0
C245 C 0.72169 0.59488 0.62265 0.0
H246 H 0.79833 0.68833 0.60641 0.0
C247 C 0.70063 0.59894 0.59323 0.0
C248 C 0.72156 0.60822 0.60651 0.0
H249 H 0.80171 0.65277 0.65377 0.0
H250 H 0.76673 0.62555 0.6402 0.0
H251 H 0.81486 0.65038 0.58118 0.0
H252 H 0.71067 0.67807 0.59694 0.0
H253 H 0.70923 0.67394 0.57442 0.0
H254 H 0.74435 0.69091 0.58332 0.0
H255 H 0.79946 0.67447 0.57244 0.0
H256 H 0.78505 0.65024 0.56311 0.0
C257 C 0.76154 0.58687 0.62689 0.0
C258 C 0.70128 0.60531 0.63805 0.0
C259 C 0.67494 0.62 0.53093 0.0
C260 C 0.68644 0.6369 0.52079 0.0
C261 C 0.70861 0.65241 0.52851 0.0
C262 C 0.71929 0.65108 0.54596 0.0
C263 C 0.70789 0.63399 0.55586 0.0
C264 C 0.68611 0.61881 0.5483 0.0
C265 C 0.67723 0.60156 0.56069 0.0
C266 C 0.69756 0.60879 0.57686 0.0
C267 C 0.7153 0.62787 0.574 0.0
C268 C 0.69437 0.58155 0.55336 0.0
C269 C 0.6341 0.60071 0.56334 0.0
C270 C 0.7913 0.67471 0.61385 0.0
C271 C 0.80294 0.67272 0.6312 0.0
C272 C 0.79362 0.65461 0.64034 0.0
C273 C 0.77299 0.63884 0.63246 0.0
C274 C 0.76133 0.64107 0.61521 0.0
C275 C 0.77068 0.6587 0.60613 0.0
C276 C 0.75625 0.6581 0.58779 0.0
C277 C 0.73595 0.63745 0.58757 0.0
C278 C 0.7391 0.6276 0.60369 0.0
C279 C 0.79046 0.65845 0.57537 0.0
C280 C 0.72881 0.67623 0.58531 0.0
H281 H 0.6507 0.56512 0.57992 0.0
H282 H 0.69821 0.55864 0.64009 0.0
H283 H 0.67027 0.6036 0.63692 0.0
H284 H 0.70605 0.6221 0.63854 0.0
H285 H 0.70976 0.5984 0.6506 0.0
H286 H 0.77 0.57466 0.61761 0.0
H287 H 0.76261 0.58017 0.64011 0.0
H288 H 0.78351 0.59884 0.62568 0.0
H289 H 0.65833 0.60768 0.52536 0.0
H290 H 0.71755 0.66568 0.52105 0.0
H291 H 0.73612 0.66339 0.55105 0.0
H292 H 0.72252 0.58464 0.54762 0.0
H293 H 0.67628 0.57492 0.54305 0.0
H294 H 0.69913 0.56972 0.56335 0.0
H295 H 0.62165 0.61633 0.56249 0.0
H296 H 0.62597 0.59503 0.57631 0.0
H297 H 0.62038 0.59101 0.55332 0.0
H298 H 0.63239 0.53569 0.59726 0.0
C299 C 0.66164 0.56421 0.59283 0.0
C300 C 0.7304 0.82946 0.12374 0.0
C301 C 0.71361 0.81265 0.11535 0.0
C302 C 0.7142 0.81173 0.09714 0.0
C303 C 0.74927 0.84384 0.09599 0.0
C304 C 0.74756 0.84492 0.11385 0.0
C305 C 0.76499 0.86432 0.12076 0.0
H306 H 0.85345 0.95504 0.10637 0.0
C307 C 0.76956 0.86235 0.0897 0.0
C308 C 0.77835 0.8745 0.10416 0.0
H309 H 0.81592 0.92914 0.15504 0.0
H310 H 0.79268 0.8991 0.14033 0.0
H311 H 0.88806 0.91396 0.09221 0.0
H312 H 0.77961 0.94083 0.0832 0.0
H313 H 0.79838 0.93274 0.06322 0.0
H314 H 0.82287 0.952 0.07562 0.0
H315 H 0.88185 0.9346 0.07707 0.0
H316 H 0.87587 0.90805 0.07078 0.0
C317 C 0.79826 0.85827 0.13261 0.0
C318 C 0.73379 0.8769 0.12987 0.0
C319 C 0.80147 0.86985 0.02575 0.0
C320 C 0.82204 0.88465 0.01633 0.0
C321 C 0.83664 0.90192 0.02512 0.0
C322 C 0.83096 0.90441 0.04296 0.0
C323 C 0.81065 0.88941 0.05223 0.0
C324 C 0.79637 0.87246 0.04362 0.0
C325 C 0.77629 0.85785 0.05566 0.0
C326 C 0.78127 0.8687 0.07291 0.0
C327 C 0.80118 0.88727 0.0708 0.0
C328 C 0.79699 0.83699 0.05518 0.0
C329 C 0.73448 0.85666 0.05019 0.0
C330 C 0.83989 0.94294 0.11377 0.0
C331 C 0.83645 0.94446 0.13189 0.0
C332 C 0.81921 0.92824 0.14111 0.0
C333 C 0.80553 0.91084 0.13252 0.0
C334 C 0.80917 0.90948 0.11445 0.0
C335 C 0.82628 0.92528 0.10536 0.0
C336 C 0.82863 0.92071 0.08626 0.0
C337 C 0.80906 0.89988 0.0854 0.0
C338 C 0.79777 0.89345 0.10196 0.0
C339 C 0.87067 0.91937 0.08116 0.0
C340 C 0.80646 0.93745 0.07642 0.0
H341 H 0.73202 0.82557 0.07358 0.0
H342 H 0.72962 0.83071 0.13772 0.0
H343 H 0.70585 0.87399 0.12388 0.0
H344 H 0.73799 0.89369 0.12862 0.0
H345 H 0.73156 0.87281 0.1438 0.0
H346 H 0.81354 0.84485 0.1272 0.0
H347 H 0.78826 0.85395 0.14576 0.0
H348 H 0.81971 0.87051 0.13378 0.0
H349 H 0.79019 0.85632 0.01942 0.0
H350 H 0.85219 0.91365 0.01813 0.0
H351 H 0.84266 0.91791 0.04886 0.0
H352 H 0.82795 0.83943 0.05526 0.0
H353 H 0.78976 0.82827 0.04328 0.0
H354 H 0.79101 0.82721 0.06654 0.0
H355 H 0.72493 0.87152 0.04462 0.0
H356 H 0.71541 0.8538 0.06125 0.0
H357 H 0.72992 0.84459 0.04024 0.0
H358 H 0.70121 0.79889 0.09047 0.0
C359 C 0.73214 0.82719 0.0874 0.0
C360 C 0.17984 0.93387 0.37861 0.0
C361 C 0.15811 0.94963 0.38596 0.0
C362 C 0.14933 0.94856 0.40377 0.0
C363 C 0.18333 0.91648 0.4064 0.0
C364 C 0.1919 0.91754 0.38897 0.0
C365 C 0.21419 0.89934 0.38294 0.0
H366 H 0.30044 0.8094 0.40096 0.0
C367 C 0.20026 0.8975 0.41342 0.0
C368 C 0.21843 0.88743 0.39973 0.0
H369 H 0.28521 0.83856 0.35119 0.0
H370 H 0.25318 0.86687 0.36476 0.0
H371 H 0.31974 0.85064 0.42277 0.0
H372 H 0.21584 0.81804 0.41402 0.0
H373 H 0.218 0.82462 0.43606 0.0
H374 H 0.25305 0.80788 0.4271 0.0
H375 H 0.30906 0.82679 0.43346 0.0
H376 H 0.29426 0.85115 0.44226 0.0
C377 C 0.25252 0.90728 0.37608 0.0
C378 C 0.19037 0.88741 0.36941 0.0
C379 C 0.18252 0.87875 0.47684 0.0
C380 C 0.19618 0.86261 0.48714 0.0
C381 C 0.22086 0.84821 0.47976 0.0
C382 C 0.23095 0.8495 0.46223 0.0
C383 C 0.21634 0.86542 0.45197 0.0
C384 C 0.19321 0.87996 0.4594 0.0
C385 C 0.18187 0.89636 0.44672 0.0
C386 C 0.20099 0.8889 0.43033 0.0
C387 C 0.22083 0.87065 0.43344 0.0
C388 C 0.1983 0.91716 0.45301 0.0
C389 C 0.13853 0.89593 0.44505 0.0
C390 C 0.29042 0.82203 0.39309 0.0
C391 C 0.29528 0.82189 0.37503 0.0
C392 C 0.2815 0.83838 0.36512 0.0
C393 C 0.26293 0.85477 0.37303 0.0
C394 C 0.25756 0.85459 0.39105 0.0
C395 C 0.27108 0.83839 0.40079 0.0
C396 C 0.26094 0.84039 0.41965 0.0
C397 C 0.23912 0.86042 0.41957 0.0
C398 C 0.2376 0.86871 0.4028 0.0
C399 C 0.29775 0.8422 0.43022 0.0
C400 C 0.23583 0.82176 0.42464 0.0
H401 H 0.15401 0.93216 0.42743 0.0
H402 H 0.18755 0.93423 0.36505 0.0
H403 H 0.15978 0.89001 0.37131 0.0
H404 H 0.1936 0.87055 0.3705 0.0
H405 H 0.19743 0.89229 0.356 0.0
H406 H 0.26393 0.91951 0.38468 0.0
H407 H 0.24963 0.91393 0.36289 0.0
H408 H 0.27428 0.89528 0.37576 0.0
H409 H 0.16405 0.89024 0.48227 0.0
H410 H 0.23167 0.83564 0.48747 0.0
H411 H 0.24946 0.83794 0.45732 0.0
H412 H 0.22561 0.91494 0.45973 0.0
H413 H 0.17897 0.92479 0.46226 0.0
H414 H 0.20478 0.92785 0.44228 0.0
H415 H 0.12783 0.87982 0.44507 0.0
H416 H 0.12842 0.90263 0.4328 0.0
H417 H 0.12508 0.90409 0.45603 0.0
H418 H 0.13218 0.96026 0.40977 0.0
C419 C 0.16185 0.93213 0.41401 0.0
C420 C 0.21907 0.66384 0.88165 0.0
C421 C 0.21001 0.68312 0.8886 0.0
C422 C 0.22036 0.68765 0.90579 0.0
C423 C 0.24841 0.6539 0.90877 0.0
C424 C 0.23856 0.64964 0.89184 0.0
C425 C 0.25256 0.62904 0.88597 0.0
H426 H 0.35569 0.54414 0.9015 0.0
C427 C 0.2693 0.63601 0.91559 0.0
C428 C 0.27213 0.62151 0.90221 0.0
H429 H 0.29678 0.56103 0.85465 0.0
H430 H 0.27292 0.59124 0.86856 0.0
H431 H 0.38496 0.58923 0.91192 0.0
H432 H 0.28581 0.55527 0.92682 0.0
H433 H 0.30101 0.56887 0.94514 0.0
H434 H 0.3311 0.54962 0.93573 0.0
H435 H 0.38637 0.5667 0.92538 0.0
H436 H 0.37875 0.59183 0.93443 0.0
C437 C 0.28051 0.63266 0.87082 0.0
C438 C 0.21809 0.61548 0.88135 0.0
C439 C 0.31238 0.635 0.97834 0.0
C440 C 0.33218 0.62058 0.98836 0.0
C441 C 0.34471 0.60236 0.9804 0.0
C442 C 0.33732 0.59847 0.96286 0.0
C443 C 0.31722 0.61296 0.95308 0.0
C444 C 0.30522 0.63089 0.96084 0.0
C445 C 0.28464 0.64465 0.94842 0.0
C446 C 0.28531 0.63177 0.93205 0.0
C447 C 0.30459 0.61325 0.93483 0.0
C448 C 0.30745 0.66489 0.94635 0.0
C449 C 0.24419 0.64762 0.95531 0.0
C450 C 0.33738 0.55423 0.89428 0.0
C451 C 0.32883 0.5503 0.87678 0.0
C452 C 0.30478 0.56391 0.86795 0.0
C453 C 0.29072 0.58146 0.8761 0.0
C454 C 0.30059 0.58556 0.89334 0.0
C455 C 0.3229 0.57187 0.90228 0.0
C456 C 0.32933 0.57854 0.92072 0.0
C457 C 0.3083 0.59882 0.92113 0.0
C458 C 0.29174 0.60285 0.905 0.0
C459 C 0.37206 0.58166 0.92343 0.0
C460 C 0.31121 0.56226 0.93285 0.0
H461 H 0.24629 0.67742 0.92895 0.0
H462 H 0.21208 0.66011 0.86837 0.0
H463 H 0.19398 0.61882 0.89006 0.0
H464 H 0.22337 0.59888 0.88309 0.0
H465 H 0.20873 0.6183 0.86784 0.0
H466 H 0.2966 0.64722 0.87265 0.0
H467 H 0.26555 0.63379 0.85825 0.0
H468 H 0.30222 0.62068 0.86987 0.0
H469 H 0.30292 0.64932 0.98395 0.0
H470 H 0.35974 0.59091 0.98782 0.0
H471 H 0.34749 0.5843 0.95759 0.0
H472 H 0.33802 0.66224 0.94822 0.0
H473 H 0.29854 0.67657 0.95597 0.0
H474 H 0.30529 0.6715 0.93319 0.0
H475 H 0.23241 0.63278 0.96009 0.0
H476 H 0.22447 0.65294 0.94527 0.0
H477 H 0.24377 0.65871 0.96623 0.0
H478 H 0.2136 0.70245 0.91138 0.0
C479 C 0.23928 0.6731 0.91595 0.0
Eu480 Eu 0.04691 0.13746 0.24122 0.0
C481 C 0.88728 0.10998 0.25161 0.0
N482 N 0.89815 0.13006 0.25135 0.0
C483 C 0.84924 0.13804 0.2312 0.0
C484 C 0.85748 0.10303 0.24109 0.0
C485 C 0.87924 0.1442 0.24169 0.0
C486 C 0.8385 0.11734 0.2308 0.0
C487 C 0.89613 0.07537 0.26253 0.0
C488 C 0.90682 0.09629 0.26206 0.0
C489 C 0.86713 0.06828 0.25172 0.0
C490 C 0.84785 0.08207 0.24105 0.0
Eu491 Eu 0.95007 0.13896 0.26878 0.0
N492 N 0.9353 0.1035 0.27218 0.0
C493 C 0.91421 0.06228 0.2742 0.0
C494 C 0.94983 0.09129 0.28488 0.0
C495 C 0.94052 0.0704 0.28572 0.0
H496 H 0.88778 0.16016 0.24191 0.0
H497 H 0.9531 0.06068 0.29549 0.0
H498 H 0.09748 0.09662 0.25335 0.0
H499 H 0.08393 0.21911 0.2405 0.0
H500 H 0.96786 0.09761 0.29473 0.0
H501 H 0.90683 0.04612 0.27496 0.0
H502 H 0.0438 0.18875 0.23515 0.0
H503 H 0.83458 0.14922 0.22337 0.0
H504 H 0.85893 0.05221 0.25176 0.0
H505 H 0.82533 0.07639 0.2329 0.0
H506 H 0.15924 0.08947 0.26662 0.0
H507 H 0.81548 0.11259 0.22253 0.0
H508 H 0.14673 0.21485 0.25365 0.0
N509 N 0.10578 0.12897 0.25302 0.0
C510 C 0.12952 0.14495 0.2562 0.0
C511 C 0.15116 0.10514 0.26382 0.0
C512 C 0.16516 0.14159 0.26358 0.0
C513 C 0.11611 0.10923 0.25649 0.0
C514 C 0.17576 0.12139 0.26744 0.0
N515 N 0.08305 0.16758 0.24554 0.0
C516 C 0.07101 0.1867 0.24096 0.0
C517 C 0.1419 0.18171 0.25545 0.0
C518 C 0.11805 0.16479 0.25217 0.0
C519 C 0.12926 0.20145 0.2513 0.0
C520 C 0.09377 0.20393 0.24392 0.0
H521 H 0.2029 0.11817 0.27313 0.0
H522 H 0.21644 0.15613 0.27258 0.0
H523 H 0.19607 0.19123 0.26549 0.0
O524 O 0.04409 0.14336 0.21341 0.0
O525 O 0.04954 0.15495 0.26654 0.0
O526 O 0.98965 0.16563 0.27423 0.0
O527 O 0.08701 0.12331 0.22351 0.0
O528 O 0.00055 0.15829 0.23109 0.0
O529 O 0.95939 0.16787 0.2531 0.0
O530 O 0.93074 0.13728 0.29591 0.0
O531 O 0.95234 0.12819 0.24059 0.0
O532 O 0.00702 0.11056 0.24059 0.0
O533 O 0.90245 0.15729 0.27743 0.0
O534 O 0.00267 0.12555 0.28136 0.0
O535 O 0.03153 0.11035 0.25812 0.0
C536 C 0.02648 0.16662 0.27541 0.0
C537 C 0.0633 0.11599 0.1957 0.0
C538 C 0.06647 0.10692 0.16507 0.0
C539 C 0.04651 0.08867 0.16873 0.0
C540 C 0.04385 0.09761 0.19911 0.0
C541 C 0.03533 0.08409 0.18565 0.0
C542 C 0.07465 0.12057 0.17871 0.0
C543 C 0.974 0.17017 0.23752 0.0
C544 C 0.07115 0.13069 0.20968 0.0
C545 C 0.18898 0.15842 0.26689 0.0
C546 C 0.17739 0.17841 0.26284 0.0
C547 C 0.97254 0.11269 0.23522 0.0
C548 C 0.8774 0.15726 0.30675 0.0
C549 C 0.85758 0.15918 0.33707 0.0
C550 C 0.82787 0.17204 0.3321 0.0
C551 C 0.84738 0.17009 0.30218 0.0
C552 C 0.88215 0.15163 0.32426 0.0
C553 C 0.82277 0.17735 0.31478 0.0
C554 C 0.0263 0.11206 0.27488 0.0
C555 C 0.90402 0.15046 0.29322 0.0
H556 H 0.04008 0.07776 0.15857 0.0
H557 H 0.03536 0.09372 0.21215 0.0
H558 H 0.02018 0.06996 0.18836 0.0
H559 H 0.08939 0.13487 0.1761 0.0
H560 H 0.8083 0.17786 0.34164 0.0
H561 H 0.84295 0.17462 0.28883 0.0
H562 H 0.90536 0.14187 0.32798 0.0
H563 H 0.79973 0.18722 0.31111 0.0
Eu564 Eu 0.45795 0.35997 0.739 0.0
C565 C 0.62548 0.37986 0.75649 0.0
N566 N 0.60893 0.36113 0.75437 0.0
C567 C 0.66017 0.35001 0.73666 0.0
C568 C 0.66006 0.38448 0.74841 0.0
C569 C 0.62581 0.34615 0.74484 0.0
C570 C 0.67733 0.36927 0.7384 0.0
C571 C 0.62357 0.41425 0.76857 0.0
C572 C 0.6071 0.39464 0.76633 0.0
C573 C 0.6578 0.41896 0.76038 0.0
C574 C 0.67599 0.40412 0.75034 0.0
Eu575 Eu 0.55153 0.35583 0.7689 0.0
N576 N 0.57376 0.38972 0.77405 0.0
C577 C 0.6056 0.42842 0.77933 0.0
C578 C 0.55806 0.40288 0.78571 0.0
C579 C 0.57306 0.42257 0.78816 0.0
H580 H 0.61288 0.33116 0.7437 0.0
H581 H 0.55997 0.43305 0.79718 0.0
H582 H 0.3996 0.39397 0.757 0.0
H583 H 0.43878 0.27767 0.7266 0.0
H584 H 0.53487 0.39814 0.7937 0.0
H585 H 0.61736 0.44362 0.78139 0.0
H586 H 0.47191 0.31085 0.72566 0.0
H587 H 0.67343 0.33813 0.72904 0.0
H588 H 0.67069 0.43398 0.7619 0.0
H589 H 0.70244 0.40799 0.74415 0.0
H590 H 0.33625 0.39437 0.77016 0.0
H591 H 0.70388 0.37224 0.73197 0.0
H592 H 0.37545 0.27527 0.73964 0.0
N593 N 0.39793 0.36199 0.7516 0.0
C594 C 0.37771 0.3442 0.75215 0.0
C595 C 0.34763 0.38016 0.76519 0.0
C596 C 0.34135 0.34376 0.75938 0.0
C597 C 0.38355 0.37987 0.75788 0.0
C598 C 0.32642 0.36204 0.76596 0.0
N599 N 0.4293 0.32704 0.73916 0.0
C600 C 0.44505 0.31002 0.73195 0.0
C601 C 0.37341 0.30759 0.74621 0.0
C602 C 0.39371 0.32626 0.74568 0.0
C603 C 0.39014 0.2899 0.73948 0.0
C604 C 0.42597 0.29117 0.7322 0.0
H605 H 0.29859 0.36232 0.77163 0.0
H606 H 0.29323 0.32452 0.76549 0.0
H607 H 0.32121 0.29291 0.75392 0.0
O608 O 0.45711 0.35792 0.71074 0.0
O609 O 0.45207 0.3431 0.76476 0.0
O610 O 0.51034 0.32926 0.76877 0.0
O611 O 0.41838 0.3781 0.72371 0.0
O612 O 0.50878 0.34369 0.72764 0.0
O613 O 0.54063 0.32922 0.75069 0.0
O614 O 0.56243 0.35433 0.79716 0.0
O615 O 0.55656 0.37185 0.74257 0.0
O616 O 0.49874 0.38653 0.74052 0.0
O617 O 0.5941 0.33536 0.77903 0.0
O618 O 0.49916 0.37088 0.7805 0.0
O619 O 0.47026 0.38644 0.75713 0.0
C620 C 0.47463 0.33029 0.7727 0.0
C621 C 0.398 0.36243 0.69765 0.0
C622 C 0.37229 0.35754 0.66862 0.0
C623 C 0.34246 0.34612 0.67579 0.0
C624 C 0.36763 0.35124 0.70451 0.0
C625 C 0.34011 0.3431 0.69364 0.0
C626 C 0.40005 0.36573 0.67967 0.0
C627 C 0.53324 0.33062 0.73405 0.0
C628 C 0.42832 0.37001 0.70901 0.0
C629 C 0.32119 0.32515 0.75996 0.0
C630 C 0.33715 0.30714 0.75338 0.0
C631 C 0.53388 0.38544 0.73566 0.0
C632 C 0.60997 0.33089 0.80923 0.0
C633 C 0.633 0.33026 0.83907 0.0
C634 C 0.65277 0.31216 0.83529 0.0
C635 C 0.63012 0.31281 0.80585 0.0
C636 C 0.61113 0.33949 0.82598 0.0
C637 C 0.6512 0.30351 0.81882 0.0
C638 C 0.47634 0.38478 0.77391 0.0
C639 C 0.58842 0.34052 0.79505 0.0
H640 H 0.32059 0.3398 0.6676 0.0
H641 H 0.36511 0.34875 0.71824 0.0
H642 H 0.31686 0.33444 0.69907 0.0
H643 H 0.42346 0.37434 0.67427 0.0
H644 H 0.66927 0.30455 0.84515 0.0
H645 H 0.62954 0.30578 0.79315 0.0
H646 H 0.59594 0.35351 0.8287 0.0
H647 H 0.66648 0.28954 0.81609 0.0
Eu648 Eu 0.05245 0.85587 0.73816 0.0
C649 C 0.89317 0.8286 0.75203 0.0
N650 N 0.90616 0.84824 0.75084 0.0
C651 C 0.85719 0.85667 0.73088 0.0
C652 C 0.86242 0.82198 0.74197 0.0
C653 C 0.88807 0.86248 0.74096 0.0
C654 C 0.84455 0.83628 0.73125 0.0
C655 C 0.89857 0.79455 0.76454 0.0
C656 C 0.91117 0.81509 0.76317 0.0
C657 C 0.8687 0.78768 0.75413 0.0
C658 C 0.85062 0.80137 0.74291 0.0
Eu659 Eu 0.95835 0.85686 0.76811 0.0
N660 N 0.94013 0.82217 0.77305 0.0
C661 C 0.91581 0.78162 0.77661 0.0
C662 C 0.95491 0.81006 0.78576 0.0
C663 C 0.94364 0.78953 0.78747 0.0
H664 H 0.89798 0.87822 0.74069 0.0
H665 H 0.95604 0.7799 0.79735 0.0
H666 H 0.10661 0.81641 0.75091 0.0
H667 H 0.09272 0.93542 0.72537 0.0
H668 H 0.97478 0.81621 0.79491 0.0
H669 H 0.90696 0.76574 0.77804 0.0
H670 H 0.05139 0.9047 0.72479 0.0
H671 H 0.84325 0.86788 0.7228 0.0
H672 H 0.85892 0.7719 0.75489 0.0
H673 H 0.82733 0.79591 0.73512 0.0
H674 H 0.16869 0.81095 0.76425 0.0
H675 H 0.82081 0.83179 0.72332 0.0
H676 H 0.15559 0.93334 0.73888 0.0
N677 N 0.11232 0.84889 0.74994 0.0
C678 C 0.13619 0.86516 0.7514 0.0
C679 C 0.15971 0.82633 0.76095 0.0
C680 C 0.17257 0.86271 0.75828 0.0
C681 C 0.12416 0.82951 0.75378 0.0
C682 C 0.18385 0.84305 0.76344 0.0
N683 N 0.0898 0.88594 0.73856 0.0
C684 C 0.0786 0.9038 0.73089 0.0
C685 C 0.14958 0.90117 0.74567 0.0
C686 C 0.1249 0.88413 0.74518 0.0
C687 C 0.13751 0.91989 0.73871 0.0
C688 C 0.102 0.92114 0.73112 0.0
H689 H 0.21155 0.84053 0.7688 0.0
H690 H 0.22479 0.87821 0.76469 0.0
H691 H 0.20462 0.9119 0.75366 0.0
O692 O 0.04261 0.85939 0.71046 0.0
O693 O 0.04767 0.88185 0.75791 0.0
O694 O 0.01139 0.86914 0.78047 0.0
O695 O 0.09152 0.84295 0.71922 0.0
O696 O 0.00211 0.87393 0.72862 0.0
O697 O 0.97011 0.88589 0.75268 0.0
O698 O 0.92538 0.85505 0.79228 0.0
O699 O 0.95975 0.84531 0.74029 0.0
O700 O 0.01467 0.82795 0.73941 0.0
O701 O 0.92481 0.88301 0.77646 0.0
O702 O 0.01031 0.84241 0.78017 0.0
O703 O 0.04341 0.8291 0.75694 0.0
C704 C 0.03584 0.88233 0.77409 0.0
C705 C 0.06559 0.83357 0.69218 0.0
C706 C 0.07028 0.82434 0.66168 0.0
C707 C 0.0495 0.80633 0.66507 0.0
C708 C 0.04564 0.81534 0.69544 0.0
C709 C 0.03749 0.80182 0.6819 0.0
C710 C 0.07819 0.83792 0.67536 0.0
C711 C 0.98099 0.88763 0.73644 0.0
C712 C 0.07184 0.84875 0.70592 0.0
C713 C 0.19684 0.87977 0.75933 0.0
C714 C 0.1854 0.89895 0.75301 0.0
C715 C 0.97911 0.82927 0.73545 0.0
C716 C 0.88615 0.88344 0.80234 0.0
C717 C 0.85931 0.88726 0.83131 0.0
C718 C 0.83411 0.90185 0.82468 0.0
C719 C 0.86097 0.89821 0.79609 0.0
C720 C 0.88534 0.87803 0.82 0.0
C721 C 0.83505 0.90729 0.80721 0.0
C722 C 0.03534 0.82971 0.77361 0.0
C723 C 0.91257 0.87359 0.79025 0.0
H724 H 0.04306 0.79562 0.65475 0.0
H725 H 0.03629 0.81168 0.7084 0.0
H726 H 0.02177 0.78784 0.68446 0.0
H727 H 0.09345 0.8521 0.67284 0.0
H728 H 0.81407 0.90935 0.8331 0.0
H729 H 0.86103 0.90257 0.78255 0.0
H730 H 0.90476 0.86666 0.82492 0.0
H731 H 0.81565 0.91863 0.80228 0.0
Eu732 Eu 0.46393 0.64505 0.2378 0.0
C733 C 0.63557 0.65852 0.25463 0.0
N734 N 0.61598 0.64062 0.25296 0.0
C735 C 0.66557 0.62611 0.23604 0.0
C736 C 0.6711 0.66093 0.24676 0.0
C737 C 0.6304 0.62444 0.24399 0.0
C738 C 0.68601 0.64443 0.23742 0.0
C739 C 0.63879 0.69363 0.26515 0.0
C740 C 0.61926 0.67477 0.2636 0.0
C741 C 0.67415 0.69606 0.25731 0.0
C742 C 0.69025 0.67977 0.24815 0.0
Eu743 Eu 0.55777 0.63891 0.26732 0.0
N744 N 0.58468 0.6721 0.27092 0.0
C745 C 0.6225 0.70942 0.2748 0.0
C746 C 0.57014 0.68698 0.28138 0.0
C747 C 0.5883 0.70597 0.28314 0.0
H748 H 0.61496 0.61014 0.24318 0.0
H749 H 0.57626 0.71779 0.29125 0.0
H750 H 0.40435 0.67014 0.26354 0.0
H751 H 0.45173 0.56772 0.2098 0.0
H752 H 0.54535 0.68423 0.28899 0.0
H753 H 0.63662 0.72411 0.2763 0.0
H754 H 0.47648 0.60287 0.21212 0.0
H755 H 0.67694 0.61326 0.22891 0.0
H756 H 0.6894 0.71047 0.25834 0.0
H757 H 0.71751 0.68193 0.24214 0.0
H758 H 0.34603 0.66307 0.28006 0.0
H759 H 0.71319 0.64571 0.23117 0.0
H760 H 0.39754 0.55687 0.22773 0.0
N761 N 0.4076 0.63994 0.25332 0.0
C762 C 0.39129 0.62104 0.25198 0.0
C763 C 0.35856 0.65111 0.27227 0.0
C764 C 0.35824 0.61629 0.26126 0.0
C765 C 0.39155 0.65506 0.26298 0.0
C766 C 0.34194 0.63161 0.27149 0.0
N767 N 0.4407 0.61121 0.23305 0.0
C768 C 0.45469 0.59806 0.22092 0.0
C769 C 0.39249 0.5864 0.24038 0.0
C770 C 0.40865 0.60619 0.24182 0.0
C771 C 0.40911 0.57221 0.2292 0.0
C772 C 0.43987 0.57822 0.21915 0.0
H773 H 0.31654 0.62856 0.27882 0.0
H774 H 0.31756 0.59244 0.26736 0.0
H775 H 0.34733 0.56635 0.24898 0.0
O776 O 0.45168 0.64707 0.20979 0.0
O777 O 0.45947 0.63059 0.26461 0.0
O778 O 0.51476 0.61314 0.26722 0.0
O779 O 0.42155 0.66626 0.22831 0.0
O780 O 0.51424 0.62866 0.22589 0.0
O781 O 0.54273 0.61281 0.24922 0.0
O782 O 0.5678 0.63821 0.29565 0.0
O783 O 0.56474 0.65452 0.241 0.0
O784 O 0.50793 0.67026 0.23754 0.0
O785 O 0.59824 0.61772 0.27827 0.0
O786 O 0.50786 0.65595 0.279 0.0
O787 O 0.47944 0.67146 0.25548 0.0
C788 C 0.47878 0.61496 0.27038 0.0
C789 C 0.40434 0.67074 0.19816 0.0
C790 C 0.38647 0.67363 0.16766 0.0
C791 C 0.36352 0.69041 0.1719 0.0
C792 C 0.38108 0.68752 0.20199 0.0
C793 C 0.36083 0.69723 0.18894 0.0
C794 C 0.40674 0.66372 0.18092 0.0
C795 C 0.53605 0.61434 0.23252 0.0
C796 C 0.42626 0.66111 0.21222 0.0
C797 C 0.3428 0.59642 0.26023 0.0
C798 C 0.35987 0.58153 0.24982 0.0
C799 C 0.54327 0.66807 0.23325 0.0
C800 C 0.61367 0.61451 0.30868 0.0
C801 C 0.6334 0.61404 0.33899 0.0
C802 C 0.65695 0.59734 0.33536 0.0
C803 C 0.63734 0.5977 0.30545 0.0
C804 C 0.61136 0.62249 0.32562 0.0
C805 C 0.65867 0.58917 0.31873 0.0
C806 C 0.48576 0.67006 0.27222 0.0
C807 C 0.59291 0.62382 0.29408 0.0
H808 H 0.34723 0.69814 0.16202 0.0
H809 H 0.37864 0.69326 0.2151 0.0
H810 H 0.34299 0.71013 0.19204 0.0
H811 H 0.42467 0.65084 0.17778 0.0
H812 H 0.67391 0.59052 0.34546 0.0
H813 H 0.63964 0.59117 0.29261 0.0
H814 H 0.59341 0.6355 0.32831 0.0
H815 H 0.67683 0.57626 0.31608 0.0
C816 C 0.13272 0.96331 0.3579 0.0
C817 C 0.14436 0.96689 0.37503 0.0
C818 C 0.12037 0.97947 0.34748 0.0
C819 C 0.12251 0.03638 0.34357 0.0
H820 H 0.04133 0.02648 0.31116 0.0
C821 C 0.04839 0.10062 0.3041 0.0
C822 C 0.04253 0.09639 0.28648 0.0
C823 C 0.0618 0.08533 0.31521 0.0
C824 C 0.06422 0.02942 0.32006 0.0
H825 H 0.1521 0.99045 0.39458 0.0
H826 H 0.12918 0.01852 0.37662 0.0
H827 H 0.06169 -0.0011 0.33025 0.0
H828 H 0.04604 0.07293 0.26664 0.0
H829 H 0.06931 0.04626 0.28603 0.0
H830 H 0.12433 0.06712 0.33346 0.0
C831 C 0.13031 0.00324 0.37112 0.0
C832 C 0.07601 0.01361 0.33098 0.0
C833 C 0.14298 0.98707 0.38152 0.0
C834 C 0.05064 0.07669 0.28013 0.0
C835 C 0.06361 0.06137 0.29125 0.0
C836 C 0.11042 0.05229 0.33274 0.0
C837 C 0.1189 -0.00035 0.35395 0.0
C838 C 0.10556 0.0168 0.34277 0.0
C839 C 0.06906 0.06548 0.30892 0.0
C840 C 0.08139 0.04889 0.32077 0.0
H841 H 0.13285 0.94795 0.35251 0.0
H842 H 0.11234 0.97612 0.33426 0.0
H843 H 0.14568 0.03934 0.3523 0.0
H844 H 0.04233 0.1157 0.3093 0.0
H845 H 0.06556 0.08887 0.3288 0.0
C846 C 0.35003 0.51334 0.87566 0.0
C847 C 0.34555 0.53251 0.86748 0.0
C848 C 0.36546 0.49671 0.86667 0.0
C849 C 0.42193 0.48455 0.82744 0.0
H850 H 0.37977 0.42982 0.83301 0.0
C851 C 0.4502 0.41987 0.77875 0.0
C852 C 0.46038 0.40061 0.78547 0.0
C853 C 0.43698 0.4353 0.78967 0.0
C854 C 0.39204 0.44499 0.83146 0.0
H855 H 0.35473 0.54924 0.84349 0.0
H856 H 0.3801 0.52027 0.82774 0.0
H857 H 0.35565 0.45812 0.85053 0.0
H858 H 0.46383 0.38224 0.80885 0.0
H859 H 0.44015 0.40928 0.82799 0.0
H860 H 0.45757 0.47152 0.80806 0.0
C861 C 0.3723 0.51806 0.84117 0.0
C862 C 0.37834 0.4612 0.84153 0.0
C863 C 0.35713 0.53465 0.85015 0.0
C864 C 0.45628 0.39696 0.80332 0.0
C865 C 0.44261 0.41237 0.81425 0.0
C866 C 0.43532 0.46842 0.8173 0.0
C867 C 0.37676 0.49886 0.84929 0.0
C868 C 0.39279 0.48126 0.83947 0.0
C869 C 0.43328 0.43178 0.80754 0.0
C870 C 0.42023 0.44853 0.81905 0.0
H871 H 0.34117 0.51109 0.88895 0.0
H872 H 0.36879 0.48221 0.87339 0.0
H873 H 0.43441 0.49965 0.82579 0.0
H874 H 0.45315 0.4232 0.76507 0.0
H875 H 0.42956 0.45002 0.7841 0.0
C876 C 0.61364 0.52219 0.63229 0.0
C877 C 0.65195 0.52711 0.63074 0.0
C878 C 0.60184 0.50636 0.64333 0.0
C879 C 0.63106 0.45893 0.66447 0.0
H880 H 0.55419 0.47178 0.69828 0.0
C881 C 0.58617 0.40086 0.7178 0.0
C882 C 0.54849 0.40092 0.72321 0.0
C883 C 0.59983 0.41603 0.70652 0.0
C884 C 0.5752 0.46774 0.68875 0.0
H885 H 0.70804 0.51903 0.63906 0.0
H886 H 0.68738 0.49096 0.65812 0.0
H887 H 0.57537 0.49816 0.67807 0.0
H888 H 0.49507 0.41643 0.72019 0.0
H889 H 0.51817 0.44207 0.69999 0.0
H890 H 0.63019 0.42834 0.67469 0.0
C891 C 0.66656 0.49949 0.6509 0.0
C892 C 0.58745 0.48294 0.67724 0.0
C893 C 0.67832 0.51557 0.64009 0.0
C894 C 0.52445 0.41606 0.71656 0.0
C895 C 0.53786 0.43096 0.70505 0.0
C896 C 0.61835 0.44357 0.67581 0.0
C897 C 0.62817 0.49492 0.65279 0.0
C898 C 0.61543 0.47869 0.66497 0.0
C899 C 0.57586 0.43137 0.70003 0.0
C900 C 0.59012 0.44774 0.68809 0.0
H901 H 0.59273 0.53095 0.62532 0.0
H902 H 0.57208 0.50306 0.64449 0.0
H903 H 0.65257 0.45525 0.65506 0.0
H904 H 0.60517 0.3891 0.72223 0.0
H905 H 0.6293 0.41583 0.70309 0.0
C906 C 0.84235 0.98272 0.13575 0.0
C907 C 0.85076 0.96271 0.14137 0.0
C908 C 0.85362 -0.0002 0.14552 0.0
C909 C 0.88394 0.01366 0.19009 0.0
H910 H 0.91875 0.06418 0.16851 0.0
C911 C 0.96648 0.07594 0.22682 0.0
C912 C 0.95551 0.09644 0.22449 0.0
C913 C 0.95092 0.06038 0.21667 0.0
C914 C 0.90864 0.05024 0.17468 0.0
H915 H 0.87914 0.94491 0.16108 0.0
H916 H 0.8996 0.97454 0.17785 0.0
H917 H 0.89814 0.03545 0.15039 0.0
H918 H 0.91985 0.11688 0.2098 0.0
H919 H 0.8929 0.08952 0.19168 0.0
H920 H 0.89551 0.02828 0.21435 0.0
C921 C 0.88322 0.97715 0.16626 0.0
C922 C 0.8968 0.03378 0.16433 0.0
C923 C 0.87169 0.96014 0.1566 0.0
C924 C 0.92868 0.10115 0.21181 0.0
C925 C 0.91346 0.08556 0.20143 0.0
C926 C 0.89608 0.03001 0.2004 0.0
C927 C 0.87382 0.9972 0.16103 0.0
C928 C 0.88477 0.01517 0.17191 0.0
C929 C 0.92444 0.06502 0.2038 0.0
C930 C 0.90896 0.04836 0.19281 0.0
H931 H 0.82602 0.98513 0.12411 0.0
H932 H 0.84563 0.01498 0.14116 0.0
H933 H 0.87394 -0.0002 0.19642 0.0
H934 H 0.98697 0.07192 0.2366 0.0
H935 H 0.96011 0.04471 0.21867 0.0
C936 C 0.87359 0.04347 0.66239 0.0
C937 C 0.86211 0.04096 0.64509 0.0
C938 C 0.88729 0.02688 0.67192 0.0
C939 C 0.88924 0.96966 0.67221 0.0
H940 H 0.96456 0.97833 0.70774 0.0
C941 C 0.96576 0.9037 0.70788 0.0
C942 C 0.96686 0.90506 0.72604 0.0
C943 C 0.95279 0.92014 0.69794 0.0
C944 C 0.94333 0.97574 0.69794 0.0
H945 H 0.85717 0.0189 0.62417 0.0
H946 H 0.88288 0.9902 0.64049 0.0
H947 H 0.94444 0.00717 0.6899 0.0
H948 H 0.95543 0.92476 0.74802 0.0
H949 H 0.93348 0.95375 0.73053 0.0
H950 H 0.88923 0.93801 0.68004 0.0
C951 C 0.88015 0.00492 0.64689 0.0
C952 C 0.93163 0.99227 0.68772 0.0
C953 C 0.86593 0.02149 0.63741 0.0
C954 C 0.95479 0.92324 0.73406 0.0
C955 C 0.94243 0.93985 0.72407 0.0
C956 C 0.90141 0.95307 0.68225 0.0
C957 C 0.8906 0.00732 0.66436 0.0
C958 C 0.90419 0.98951 0.67479 0.0
C959 C 0.94126 0.93842 0.70592 0.0
C960 C 0.92838 0.95599 0.69528 0.0
H961 H 0.87186 0.05829 0.66869 0.0
H962 H 0.89454 0.02938 0.68536 0.0
H963 H 0.86757 0.96693 0.66266 0.0
H964 H 0.97471 0.88986 0.70131 0.0
H965 H 0.95238 0.91869 0.68397 0.0
C966 C 0.68933 0.48033 0.14831 0.0
C967 C 0.66569 0.46761 0.13841 0.0
C968 C 0.67484 0.49738 0.15698 0.0
C969 C 0.58888 0.5157 0.1769 0.0
H970 H 0.63754 0.56923 0.17629 0.0
C971 C 0.55761 0.6025 0.20333 0.0
C972 C 0.55119 0.59835 0.22095 0.0
C973 C 0.57147 0.58718 0.1924 0.0
C974 C 0.62359 0.55439 0.17649 0.0
H975 H 0.60854 0.46281 0.12964 0.0
H976 H 0.58305 0.49251 0.14504 0.0
H977 H 0.66212 0.54146 0.15818 0.0
H978 H 0.55393 0.57496 0.24094 0.0
H979 H 0.57752 0.54813 0.22178 0.0
H980 H 0.55088 0.52845 0.19548 0.0
C981 C 0.6128 0.48931 0.146 0.0
C982 C 0.63775 0.5385 0.16623 0.0
C983 C 0.62739 0.47244 0.13711 0.0
C984 C 0.55879 0.57862 0.22743 0.0
C985 C 0.57202 0.56324 0.21646 0.0
C986 C 0.5751 0.53146 0.18735 0.0
C987 C 0.63634 0.50185 0.15612 0.0
C988 C 0.62057 0.51899 0.16638 0.0
C989 C 0.57849 0.56736 0.19885 0.0
C990 C 0.59242 0.55092 0.1873 0.0
H991 H 0.719 0.477 0.14943 0.0
H992 H 0.69355 0.50672 0.16479 0.0
H993 H 0.57529 0.50076 0.17736 0.0
H994 H 0.55209 0.61761 0.19803 0.0
H995 H 0.5761 0.5907 0.17885 0.0
C996 C 0.35908 0.46382 0.34611 0.0
C997 C 0.33698 0.46704 0.3609 0.0
C998 C 0.37244 0.48046 0.33643 0.0
C999 C 0.38772 0.53711 0.33806 0.0
H1000 H 0.39677 0.53045 0.28832 0.0
C1001 C 0.42848 0.60325 0.2908 0.0
C1002 C 0.45942 0.59864 0.28024 0.0
C1003 C 0.41082 0.58775 0.30046 0.0
C1004 C 0.39436 0.53248 0.3022 0.0
H1005 H 0.31155 0.49006 0.37728 0.0
H1006 H 0.3338 0.51928 0.36005 0.0
H1007 H 0.3708 0.50252 0.30577 0.0
H1008 H 0.49559 0.57431 0.27102 0.0
H1009 H 0.4643 0.54716 0.28767 0.0
H1010 H 0.41069 0.56735 0.33424 0.0
C1011 C 0.34166 0.50393 0.35611 0.0
C1012 C 0.37977 0.51645 0.31225 0.0
C1013 C 0.32879 0.48723 0.36597 0.0
C1014 C 0.47197 0.57827 0.27919 0.0
C1015 C 0.45394 0.56274 0.28859 0.0
C1016 C 0.40176 0.55328 0.32794 0.0
C1017 C 0.36348 0.50075 0.34113 0.0
C1018 C 0.37689 0.51838 0.33037 0.0
C1019 C 0.42347 0.56738 0.29944 0.0
C1020 C 0.40575 0.55096 0.30997 0.0
H1021 H 0.36619 0.44838 0.34208 0.0
H1022 H 0.39 0.47734 0.3253 0.0
H1023 H 0.38641 0.53912 0.35196 0.0
H1024 H 0.41837 0.61887 0.29184 0.0
H1025 H 0.38723 0.59165 0.30867 0.0
C1026 C 0.18542 0.02381 0.85248 0.0
C1027 C 0.16325 0.03415 0.8647 0.0
C1028 C 0.17105 0.00692 0.84347 0.0
C1029 C 0.09567 0.96746 0.84411 0.0
H1030 H 0.11894 0.96366 0.79517 0.0
C1031 C 0.02632 0.90775 0.79796 0.0
C1032 C 0.05005 0.89869 0.78562 0.0
C1033 C 0.03934 0.92397 0.80828 0.0
C1034 C 0.11247 0.96438 0.80886 0.0
H1035 H 0.10867 0.03477 0.87717 0.0
H1036 H 0.08344 0.0053 0.86134 0.0
H1037 H 0.1432 0.99245 0.81191 0.0
H1038 H 0.10654 0.8983 0.77557 0.0
H1039 H 0.12928 0.92665 0.79314 0.0
H1040 H 0.06476 0.93933 0.84095 0.0
C1041 C 0.11213 0.0101 0.85889 0.0
C1042 C 0.12643 0.98088 0.81847 0.0
C1043 C 0.12657 0.02699 0.86794 0.0
C1044 C 0.08724 0.90561 0.78427 0.0
C1045 C 0.10029 0.92176 0.79451 0.0
C1046 C 0.08161 0.95093 0.83446 0.0
C1047 C 0.1341 -1e-05 0.84642 0.0
C1048 C 0.11847 0.98255 0.83624 0.0
C1049 C 0.07637 0.93134 0.80647 0.0
C1050 C 0.09014 0.94913 0.81675 0.0
H1051 H 0.21402 0.02871 0.84993 0.0
H1052 H 0.18901 -0.00077 0.83423 0.0
H1053 H 0.0893 0.9682 0.85781 0.0
H1054 H 0.99744 0.90265 0.79933 0.0
H1055 H 0.02017 0.93107 0.81735 0.0
C1056 C 0.19641 0.1268 0.01786 0.0
C1057 C 0.17008 0.11984 0.00562 0.0
C1058 C 0.18639 0.12863 0.03534 0.0
C1059 C 0.10378 0.13143 0.0647 0.0
H1060 H 0.17158 0.10876 0.09891 0.0
C1061 C 0.05482 0.10778 0.13301 0.0
C1062 C 0.07888 0.11156 0.14708 0.0
C1063 C 0.06686 0.11145 0.11606 0.0
C1064 C 0.15255 0.11545 0.08957 0.0
H1065 H 0.1122 0.11026 1.00198 0.0
H1066 H 0.09493 0.11314 0.03234 0.0
H1067 H 0.19121 0.11086 0.06869 0.0
H1068 H 0.13443 0.12229 0.15434 0.0
H1069 H 0.15536 0.12888 0.1247 0.0
H1070 H 0.06483 0.13562 0.08551 0.0
C1071 C 0.12326 0.11728 0.02852 0.0
C1072 C 0.16383 0.11668 0.07224 0.0
C1073 C 0.13329 0.11538 0.01113 0.0
C1074 C 0.11512 0.11937 0.1438 0.0
C1075 C 0.12723 0.12295 0.12681 0.0
C1076 C 0.09251 0.13018 0.08201 0.0
C1077 C 0.14975 0.12371 0.04089 0.0
C1078 C 0.13931 0.12434 0.05954 0.0
C1079 C 0.1033 0.11893 0.11273 0.0
C1080 C 0.11649 0.12185 0.0946 0.0
H1081 H 0.22501 0.13028 0.01402 0.0
H1082 H 0.20736 0.13381 0.04452 0.0
H1083 H 0.08448 0.13777 0.0553 0.0
H1084 H 0.0266 0.10198 0.13511 0.0
H1085 H 0.04784 0.10796 0.10551 0.0
C1086 C 0.33442 0.36476 0.51124 0.0
C1087 C 0.32703 0.38431 0.50424 0.0
C1088 C 0.34191 0.36235 0.5289 0.0
C1089 C 0.33215 0.38914 0.57128 0.0
H1090 H 0.4023 0.34753 0.58659 0.0
C1091 C 0.37773 0.38092 0.64285 0.0
C1092 C 0.37376 0.36097 0.64964 0.0
C1093 C 0.37522 0.38431 0.62499 0.0
C1094 C 0.38261 0.35919 0.58248 0.0
H1095 H 0.3214 0.41665 0.51063 0.0
H1096 H 0.33618 0.41259 0.5411 0.0
H1097 H 0.39144 0.35253 0.55569 0.0
H1098 H 0.36579 0.32887 0.64311 0.0
H1099 H 0.36206 0.33474 0.61189 0.0
H1100 H 0.32388 0.39593 0.59815 0.0
C1101 C 0.33542 0.399 0.53303 0.0
C1102 C 0.37615 0.36199 0.56477 0.0
C1103 C 0.32749 0.40138 0.51542 0.0
C1104 C 0.36874 0.34441 0.63821 0.0
C1105 C 0.36682 0.34775 0.62035 0.0
C1106 C 0.33902 0.38651 0.58897 0.0
C1107 C 0.34264 0.37944 0.54005 0.0
C1108 C 0.35052 0.37687 0.55892 0.0
C1109 C 0.36935 0.36777 0.61358 0.0
C1110 C 0.36403 0.37139 0.59476 0.0
H1111 H 0.33483 0.35127 0.50305 0.0
H1112 H 0.34675 0.34699 0.53381 0.0
H1113 H 0.31173 0.40049 0.56736 0.0
H1114 H 0.38142 0.39396 0.6514 0.0
H1115 H 0.37752 0.39988 0.62009 0.0
C1116 C 0.67894 0.39009 0.98901 0.0
C1117 C 0.67458 0.3738 1.00086 0.0
C1118 C 0.67251 0.38709 0.97134 0.0
C1119 C 0.62517 0.35232 0.94022 0.0
H1120 H 0.69443 0.37671 0.90718 0.0
C1121 C 0.60369 0.34496 0.86601 0.0
C1122 C 0.6359 0.33925 0.8567 0.0
C1123 C 0.60661 0.35122 0.88333 0.0
C1124 C 0.67482 0.36978 0.91623 0.0
H1125 H 0.65981 0.34155 0.00335 0.0
H1126 H 0.64919 0.33619 0.97243 0.0
H1127 H 0.70346 0.38266 0.93803 0.0
H1128 H 0.6965 0.33665 0.85789 0.0
H1129 H 0.70159 0.34745 0.88794 0.0
H1130 H 0.59719 0.33895 0.91837 0.0
C1131 C 0.65718 0.35138 0.97687 0.0
C1132 C 0.6798 0.37334 0.93392 0.0
C1133 C 0.66372 0.35438 0.99457 0.0
C1134 C 0.67113 0.34076 0.8648 0.0
C1135 C 0.67407 0.34713 0.88199 0.0
C1136 C 0.62012 0.34881 0.92249 0.0
C1137 C 0.66153 0.36771 0.96504 0.0
C1138 C 0.65529 0.36448 0.94616 0.0
C1139 C 0.64183 0.35211 0.89158 0.0
C1140 C 0.64517 0.35729 0.91029 0.0
H1141 H 0.6877 0.40519 0.99337 0.0
H1142 H 0.67584 0.40004 0.96263 0.0
H1143 H 0.60549 0.34547 0.94928 0.0
H1144 H 0.57617 0.34387 0.86012 0.0
H1145 H 0.58127 0.35518 0.89032 0.0
C1146 C 0.84027 0.14249 0.49415 0.0
C1147 C 0.83559 0.12263 0.50109 0.0
C1148 C 0.84638 0.14537 0.47641 0.0
C1149 C 0.83522 0.11938 0.4339 0.0
H1150 H 0.90099 0.1633 0.41812 0.0
C1151 C 0.86676 0.13349 0.36109 0.0
C1152 C 0.86254 0.15398 0.35567 0.0
C1153 C 0.86754 0.1286 0.37878 0.0
C1154 C 0.88247 0.151 0.42233 0.0
H1155 H 0.83345 0.0902 0.49458 0.0
H1156 H 0.84522 0.09517 0.46379 0.0
H1157 H 0.89414 0.15674 0.44906 0.0
H1158 H 0.85767 0.18548 0.36445 0.0
H1159 H 0.85927 0.17701 0.3952 0.0
H1160 H 0.82359 0.11373 0.4071 0.0
C1161 C 0.84364 0.10858 0.47204 0.0
C1162 C 0.87837 0.14728 0.44008 0.0
C1163 C 0.83735 0.10571 0.48978 0.0
C1164 C 0.86064 0.16953 0.36825 0.0
C1165 C 0.86184 0.16469 0.38587 0.0
C1166 C 0.83953 0.12302 0.41614 0.0
C1167 C 0.8482 0.12846 0.4651 0.0
C1168 C 0.85424 0.13163 0.44613 0.0
C1169 C 0.86466 0.14415 0.39136 0.0
C1170 C 0.86277 0.13907 0.41015 0.0
H1171 H 0.83959 0.15589 0.50245 0.0
H1172 H 0.8492 0.16092 0.47155 0.0
H1173 H 0.81602 0.10737 0.43804 0.0
H1174 H 0.86814 0.1212 0.35167 0.0
H1175 H 0.87005 0.11264 0.38262 0.0
C1176 C 0.864 0.88591 0.99018 0.0
C1177 C 0.8284 0.88213 0.99743 0.0
C1178 C 0.86987 0.88393 0.97235 0.0
C1179 C 0.8272 0.86223 0.93216 0.0
H1180 H 0.89119 0.90254 0.90948 0.0
C1181 C 0.82436 0.87855 0.85857 0.0
C1182 C 0.85868 0.88227 0.85008 0.0
C1183 C 0.82313 0.87591 0.87653 0.0
C1184 C 0.87368 0.89098 0.91564 0.0
H1185 H 0.77101 0.87332 0.99164 0.0
H1186 H 0.7809 0.87033 0.96051 0.0
H1187 H 0.88397 0.90336 0.94082 0.0
H1188 H 0.91873 0.88559 0.85367 0.0
H1189 H 0.91658 0.88108 0.88516 0.0
H1190 H 0.816 0.85036 0.90679 0.0
C1191 C 0.80463 0.87434 0.9686 0.0
C1192 C 0.86954 0.89141 0.93365 0.0
C1193 C 0.79886 0.87614 0.98646 0.0
C1194 C 0.89192 0.88264 0.85986 0.0
C1195 C 0.89064 0.88024 0.87788 0.0
C1196 C 0.8311 0.86192 0.91413 0.0
C1197 C 0.84018 0.87831 0.96128 0.0
C1198 C 0.84597 0.87716 0.94216 0.0
C1199 C 0.85614 0.87714 0.88643 0.0
C1200 C 0.85413 0.87641 0.90566 0.0
H1201 H 0.88747 0.89022 0.99834 0.0
H1202 H 0.8978 0.88673 0.96728 0.0
H1203 H 0.80941 0.85075 0.93825 0.0
H1204 H 0.79833 0.87803 0.85134 0.0
H1205 H 0.7961 0.87369 0.88273 0.0
C1206 C 0.70322 0.64387 0.48974 0.0
C1207 C 0.67625 0.63806 0.50214 0.0
C1208 C 0.69419 0.64426 0.47213 0.0
C1209 C 0.62561 0.62312 0.44061 0.0
H1210 H 0.67252 0.66291 0.40988 0.0
C1211 C 0.59956 0.62273 0.36654 0.0
C1212 C 0.63287 0.62246 0.3568 0.0
C1213 C 0.60054 0.62766 0.38421 0.0
C1214 C 0.65915 0.65172 0.41831 0.0
H1215 H 0.61829 0.62866 0.50579 0.0
H1216 H 0.60226 0.62965 0.47508 0.0
H1217 H 0.68217 0.66561 0.44106 0.0
H1218 H 0.69282 0.6281 0.35748 0.0
H1219 H 0.6945 0.63706 0.38814 0.0
H1220 H 0.60285 0.60918 0.41776 0.0
C1221 C 0.63069 0.63349 0.47891 0.0
C1222 C 0.66484 0.65318 0.43619 0.0
C1223 C 0.63983 0.63295 0.49653 0.0
C1224 C 0.66676 0.62822 0.36475 0.0
C1225 C 0.66767 0.63342 0.38227 0.0
C1226 C 0.61966 0.62178 0.42273 0.0
C1227 C 0.65783 0.63901 0.46644 0.0
C1228 C 0.64885 0.63862 0.44756 0.0
C1229 C 0.63475 0.63273 0.39231 0.0
C1230 C 0.63702 0.6358 0.41136 0.0
H1231 H 0.73169 0.64759 0.4936 0.0
H1232 H 0.71609 0.64817 0.46294 0.0
H1233 H 0.61318 0.61147 0.44888 0.0
H1234 H 0.57314 0.61821 0.3607 0.0
H1235 H 0.57469 0.62712 0.39161 0.0
C1236 C 0.37453 0.61993 0.01447 0.0
C1237 C 0.3395 0.62451 0.00705 0.0
C1238 C 0.38155 0.62416 0.03195 0.0
C1239 C 0.34779 0.65684 0.06783 0.0
H1240 H 0.40602 0.62015 0.09675 0.0
C1241 C 0.39271 0.68121 0.13601 0.0
C1242 C 0.3885 0.66668 0.14936 0.0
C1243 C 0.39002 0.6753 0.11869 0.0
C1244 C 0.38955 0.6305 0.08887 0.0
H1245 H 0.28393 0.63641 0.01239 0.0
H1246 H 0.29604 0.64368 0.0428 0.0
H1247 H 0.3932 0.61089 0.06665 0.0
H1248 H 0.37975 0.63439 0.15502 0.0
H1249 H 0.37459 0.62398 0.12464 0.0
H1250 H 0.34323 0.67622 0.09002 0.0
C1251 C 0.31844 0.63724 0.03505 0.0
C1252 C 0.38251 0.6253 0.07157 0.0
C1253 C 0.31147 0.63307 0.0176 0.0
C1254 C 0.38329 0.6459 0.14499 0.0
C1255 C 0.38034 0.63996 0.12759 0.0
C1256 C 0.35478 0.66203 0.08507 0.0
C1257 C 0.35368 0.63304 0.04242 0.0
C1258 C 0.36145 0.6384 0.06084 0.0
C1259 C 0.38276 0.6547 0.11424 0.0
C1260 C 0.37582 0.64898 0.09583 0.0
H1261 H 0.39687 0.61353 0.00667 0.0
H1262 H 0.40915 0.62095 0.03713 0.0
H1263 H 0.33189 0.66745 0.05993 0.0
H1264 H 0.39742 0.69729 0.13899 0.0
H1265 H 0.39304 0.68698 0.10877 0.0
C1266 C 0.21039 0.85713 0.51859 0.0
C1267 C 0.18401 0.86044 0.50541 0.0
C1268 C 0.1987 0.85445 0.53574 0.0
C1269 C 0.11565 0.86079 0.56493 0.0
H1270 H 0.16992 0.8222 0.59375 0.0
C1271 C 0.05869 0.82823 0.62983 0.0
C1272 C 0.08357 0.82908 0.64392 0.0
C1273 C 0.07122 0.83295 0.61312 0.0
C1274 C 0.15468 0.83313 0.58588 0.0
H1275 H 0.12477 0.86342 0.49973 0.0
H1276 H 0.1041 0.85802 0.52948 0.0
H1277 H 0.19114 0.82872 0.56424 0.0
H1278 H 0.14102 0.83527 0.65161 0.0
H1279 H 0.16314 0.8431 0.62227 0.0
H1280 H 0.0784 0.8645 0.58654 0.0
C1281 C 0.13395 0.85812 0.52679 0.0
C1282 C 0.16692 0.83699 0.56897 0.0
C1283 C 0.14572 0.86112 0.5097 0.0
C1284 C 0.12125 0.83459 0.64097 0.0
C1285 C 0.13393 0.83896 0.62422 0.0
C1286 C 0.10308 0.85666 0.58175 0.0
C1287 C 0.16025 0.85467 0.54007 0.0
C1288 C 0.14759 0.85088 0.55824 0.0
C1289 C 0.109 0.83824 0.61014 0.0
C1290 C 0.12248 0.84279 0.59237 0.0
H1291 H 0.24013 0.85676 0.51564 0.0
H1292 H 0.2199 0.8523 0.5456 0.0
H1293 H 0.10042 0.8719 0.55725 0.0
H1294 H 0.02945 0.82416 0.63179 0.0
H1295 H 0.05151 0.83217 0.60246 0.0
C1296 C 0.15623 0.28759 0.38316 0.0
C1297 C 0.18548 0.29991 0.37651 0.0
C1298 C 0.13894 0.27262 0.37281 0.0
C1299 C 0.15245 0.24317 0.33186 0.0
H1300 H 0.04537 0.23334 0.33606 0.0
C1301 C 0.07997 0.17826 0.29386 0.0
C1302 C 0.04355 0.18157 0.28751 0.0
C1303 C 0.09667 0.19229 0.30516 0.0
C1304 C 0.07523 0.23605 0.33456 0.0
H1305 H 0.22018 0.30555 0.35382 0.0
H1306 H 0.18902 0.28044 0.33568 0.0
H1307 H 0.07563 0.2586 0.3547 0.0
H1308 H 0.99606 0.20223 0.28799 0.0
H1309 H 0.02562 0.22714 0.30735 0.0
H1310 H 0.15187 0.22147 0.31118 0.0
C1311 C 0.17974 0.28196 0.34896 0.0
C1312 C 0.09274 0.25032 0.34548 0.0
C1313 C 0.19726 0.29668 0.35933 0.0
C1314 C 0.02408 0.19921 0.29276 0.0
C1315 C 0.04101 0.21342 0.30394 0.0
C1316 C 0.13489 0.22915 0.32082 0.0
C1317 C 0.15032 0.2697 0.35552 0.0
C1318 C 0.13161 0.25411 0.34426 0.0
C1319 C 0.07759 0.21016 0.31027 0.0
C1320 C 0.09605 0.22533 0.32202 0.0
H1321 H 0.14621 0.28971 0.39627 0.0
H1322 H 0.11675 0.26329 0.37841 0.0
H1323 H 0.1825 0.24537 0.33067 0.0
H1324 H 0.09552 0.16465 0.29029 0.0
H1325 H 0.12447 0.18893 0.31003 0.0
C1326 C 0.30163 0.20981 0.86534 0.0
C1327 C 0.32178 0.20025 0.87866 0.0
C1328 C 0.31907 0.22424 0.85457 0.0
C1329 C 0.40556 0.25682 0.84996 0.0
H1330 H 0.3726 0.25917 0.80215 0.0
C1331 C 0.48184 0.30163 0.79431 0.0
C1332 C 0.45858 0.31547 0.78537 0.0
C1333 C 0.46649 0.28762 0.80619 0.0
C1334 C 0.382 0.25867 0.81548 0.0
H1335 H 0.37573 0.1982 0.89134 0.0
H1336 H 0.40698 0.22279 0.87207 0.0
H1337 H 0.34375 0.23447 0.82185 0.0
H1338 H 0.40114 0.32595 0.78265 0.0
H1339 H 0.37434 0.30083 0.80255 0.0
H1340 H 0.4449 0.28066 0.84312 0.0
C1341 C 0.37737 0.2197 0.87018 0.0
C1342 C 0.36527 0.24465 0.82687 0.0
C1343 C 0.35961 0.20554 0.8812 0.0
C1344 C 0.41979 0.31515 0.7888 0.0
C1345 C 0.4044 0.30086 0.80032 0.0
C1346 C 0.42284 0.27057 0.83843 0.0
C1347 C 0.35741 0.22913 0.85659 0.0
C1348 C 0.37638 0.24369 0.84436 0.0
C1349 C 0.42758 0.28697 0.80911 0.0
C1350 C 0.41085 0.27176 0.82116 0.0
H1351 H 0.27228 0.20607 0.86326 0.0
H1352 H 0.30233 0.23154 0.84464 0.0
H1353 H 0.41463 0.25681 0.86333 0.0
H1354 H 0.5119 0.3016 0.79216 0.0
H1355 H 0.4849 0.27704 0.81286 0.0
C1356 C 0.66538 0.19367 0.64444 0.0
C1357 C 0.68522 0.19988 0.62953 0.0
C1358 C 0.64806 0.20809 0.65513 0.0
C1359 C 0.64789 0.26425 0.66508 0.0
H1360 H 0.55895 0.24934 0.6914 0.0
C1361 C 0.55722 0.3216 0.70463 0.0
C1362 C 0.55113 0.31602 0.722 0.0
C1363 C 0.57377 0.30779 0.6931 0.0
C1364 C 0.58388 0.25364 0.68417 0.0
H1365 H 0.70115 0.22639 0.61401 0.0
H1366 H 0.66904 0.25137 0.63202 0.0
H1367 H 0.58532 0.22488 0.67092 0.0
H1368 H 0.55736 0.29166 0.74094 0.0
H1369 H 0.58528 0.26723 0.72057 0.0
H1370 H 0.6452 0.29338 0.67802 0.0
C1371 C 0.66803 0.23535 0.63583 0.0
C1372 C 0.59922 0.2396 0.67248 0.0
C1373 C 0.68597 0.22092 0.62528 0.0
C1374 C 0.56184 0.29637 0.72763 0.0
C1375 C 0.57761 0.28239 0.71599 0.0
C1376 C 0.63204 0.27843 0.67652 0.0
C1377 C 0.64926 0.22918 0.65106 0.0
C1378 C 0.63174 0.24459 0.66289 0.0
C1379 C 0.58375 0.288 0.69864 0.0
C1380 C 0.60015 0.27316 0.68628 0.0
H1381 H 0.66333 0.1776 0.648 0.0
H1382 H 0.63442 0.20262 0.6668 0.0
H1383 H 0.67328 0.26861 0.65825 0.0
H1384 H 0.54943 0.3367 0.69998 0.0
H1385 H 0.57814 0.31243 0.67977 0.0
C1386 C 0.84515 0.28762 0.12755 0.0
C1387 C 0.81438 0.2992 0.13334 0.0
C1388 C 0.86288 0.27366 0.13864 0.0
C1389 C 0.84827 0.24412 0.1793 0.0
H1390 H 0.95697 0.24087 0.17947 0.0
C1391 C 0.9284 0.19876 0.23172 0.0
C1392 C 0.95815 0.18631 0.22606 0.0
C1393 C 0.91169 0.21288 0.22047 0.0
C1394 C 0.92658 0.24146 0.17948 0.0
H1395 H 0.7775 0.30469 0.15521 0.0
H1396 H 0.80878 0.28079 0.17458 0.0
H1397 H 0.92578 0.26423 0.15942 0.0
H1398 H 0.99431 0.17952 0.20416 0.0
H1399 H 0.96515 0.20407 0.18462 0.0
H1400 H 0.84906 0.22141 0.19939 0.0
C1401 C 0.81912 0.28233 0.16145 0.0
C1402 C 0.90868 0.25482 0.16795 0.0
C1403 C 0.80145 0.29625 0.15038 0.0
C1404 C 0.97145 0.18879 0.20901 0.0
C1405 C 0.95483 0.20296 0.19779 0.0
C1406 C 0.86616 0.23081 0.19084 0.0
C1407 C 0.85017 0.2709 0.15576 0.0
C1408 C 0.86929 0.25635 0.16774 0.0
C1409 C 0.92443 0.21499 0.20331 0.0
C1410 C 0.90554 0.22934 0.1911 0.0
H1411 H 0.856 0.2896 0.11455 0.0
H1412 H 0.88644 0.26494 0.13377 0.0
H1413 H 0.81788 0.24462 0.17931 0.0
H1414 H 0.91752 0.19741 0.24478 0.0
H1415 H 0.88872 0.22215 0.22522 0.0
C1416 C 0.81323 0.7101 0.63822 0.0
C1417 C 0.82404 0.68946 0.64006 0.0
C1418 C 0.83113 0.72558 0.64779 0.0
C1419 C 0.88617 0.73274 0.68787 0.0
H1420 H 0.9089 0.7865 0.66865 0.0
C1421 C 0.97389 0.79307 0.72501 0.0
C1422 C 0.96175 0.81353 0.72426 0.0
C1423 C 0.95742 0.77812 0.71444 0.0
C1424 C 0.90236 0.77162 0.67425 0.0
H1425 H 0.86352 0.66906 0.65263 0.0
H1426 H 0.8948 0.69598 0.66919 0.0
H1427 H 0.88024 0.76017 0.65032 0.0
H1428 H 0.92327 0.83453 0.71182 0.0
H1429 H 0.89396 0.80838 0.69353 0.0
H1430 H 0.90813 0.74416 0.71179 0.0
C1431 C 0.87189 0.70019 0.66071 0.0
C1432 C 0.88596 0.75654 0.66374 0.0
C1433 C 0.85401 0.68475 0.65119 0.0
C1434 C 0.93294 0.81881 0.71272 0.0
C1435 C 0.91646 0.80388 0.70214 0.0
C1436 C 0.90254 0.7478 0.69835 0.0
C1437 C 0.86027 0.72074 0.65936 0.0
C1438 C 0.87777 0.73689 0.67042 0.0
C1439 C 0.9285 0.78335 0.70287 0.0
C1440 C 0.9109 0.76741 0.69167 0.0
H1441 H 0.79002 0.71421 0.62988 0.0
H1442 H 0.82128 0.74123 0.64654 0.0
H1443 H 0.87956 0.71791 0.69353 0.0
H1444 H 0.99606 0.78862 0.73382 0.0
H1445 H 0.96767 0.7625 0.71518 0.0
C1446 C 0.65734 0.79138 0.12331 0.0
C1447 C 0.69545 0.79625 0.12571 0.0
C1448 C 0.63969 0.77679 0.13395 0.0
C1449 C 0.65566 0.7316 0.1603 0.0
H1450 H 0.57065 0.74896 0.18793 0.0
C1451 C 0.598 0.68104 0.21575 0.0
C1452 C 0.55971 0.682 0.22 0.0
C1453 C 0.61365 0.69455 0.20362 0.0
C1454 C 0.59382 0.74362 0.18009 0.0
H1455 H 0.74532 0.78947 0.14062 0.0
H1456 H 0.71474 0.76339 0.15885 0.0
H1457 H 0.59899 0.77278 0.16724 0.0
H1458 H 0.50728 0.69728 0.214 0.0
H1459 H 0.53396 0.72003 0.1922 0.0
H1460 H 0.65013 0.70229 0.17254 0.0
C1461 C 0.69848 0.77104 0.14892 0.0
C1462 C 0.61015 0.75737 0.16831 0.0
C1463 C 0.71588 0.78594 0.13857 0.0
C1464 C 0.53708 0.69632 0.2113 0.0
C1465 C 0.55252 0.70954 0.19885 0.0
C1466 C 0.63887 0.71768 0.17179 0.0
C1467 C 0.66015 0.76652 0.14684 0.0
C1468 C 0.64147 0.75154 0.15848 0.0
C1469 C 0.59116 0.70902 0.19495 0.0
C1470 C 0.60799 0.72356 0.18205 0.0
H1471 H 0.64103 0.79926 0.11353 0.0
H1472 H 0.61011 0.77351 0.13212 0.0
H1473 H 0.67966 0.72674 0.15273 0.0
H1474 H 0.61606 0.66985 0.22175 0.0
H1475 H 0.64356 0.69374 0.20125 0.0
C1476 C 0.29518 0.79402 0.35293 0.0
C1477 C 0.31376 0.80446 0.3663 0.0
C1478 C 0.31315 0.77834 0.34387 0.0
C1479 C 0.39749 0.7443 0.34443 0.0
H1480 H 0.37527 0.74052 0.29543 0.0
C1481 C 0.45955 0.68019 0.30106 0.0
C1482 C 0.46769 0.68515 0.28376 0.0
C1483 C 0.44082 0.69423 0.31167 0.0
C1484 C 0.38229 0.74148 0.30904 0.0
H1485 H 0.36532 0.80666 0.38097 0.0
H1486 H 0.39762 0.77984 0.36469 0.0
H1487 H 0.34344 0.76585 0.3129 0.0
H1488 H 0.46392 0.70887 0.26412 0.0
H1489 H 0.43288 0.73365 0.28271 0.0
H1490 H 0.43795 0.72062 0.34028 0.0
C1491 C 0.36876 0.78326 0.36144 0.0
C1492 C 0.36339 0.75582 0.31919 0.0
C1493 C 0.35042 0.79871 0.37073 0.0
C1494 C 0.4576 0.70455 0.27737 0.0
C1495 C 0.43951 0.7187 0.28802 0.0
C1496 C 0.41688 0.73013 0.3342 0.0
C1497 C 0.35051 0.77302 0.34773 0.0
C1498 C 0.3706 0.75744 0.33705 0.0
C1499 C 0.43037 0.71366 0.30526 0.0
C1500 C 0.4096 0.72856 0.31634 0.0
H1501 H 0.26667 0.79804 0.34945 0.0
H1502 H 0.2977 0.77047 0.33378 0.0
H1503 H 0.40353 0.74486 0.35816 0.0
H1504 H 0.46677 0.66526 0.30627 0.0
H1505 H 0.43385 0.68964 0.32477 0.0
C1506 C 0.15792 0.69336 0.8687 0.0
C1507 C 0.19077 0.69859 0.87773 0.0
C1508 C 0.14053 0.70768 0.85789 0.0
C1509 C 0.13927 0.76376 0.84696 0.0
H1510 H 0.08903 0.74396 0.80571 0.0
C1511 C 0.05377 0.81833 0.80338 0.0
C1512 C 0.05317 0.81471 0.78546 0.0
C1513 C 0.07015 0.80418 0.81468 0.0
C1514 C 0.10336 0.74987 0.81702 0.0
H1515 H 0.2315 0.72274 0.88247 0.0
H1516 H 0.20223 0.74754 0.86309 0.0
H1517 H 0.11921 0.71968 0.82493 0.0
H1518 H 0.06823 0.79296 0.76542 0.0
H1519 H 0.09908 0.769 0.78487 0.0
H1520 H 0.12529 0.79405 0.83853 0.0
C1521 C 0.18894 0.73265 0.86473 0.0
C1522 C 0.12015 0.73582 0.82829 0.0
C1523 C 0.2059 0.71843 0.8758 0.0
C1524 C 0.06916 0.79653 0.7791 0.0
C1525 C 0.08621 0.78255 0.79035 0.0
C1526 C 0.12305 0.77784 0.83553 0.0
C1527 C 0.15602 0.72748 0.85556 0.0
C1528 C 0.13821 0.74253 0.84349 0.0
C1529 C 0.08688 0.78614 0.80834 0.0
C1530 C 0.10467 0.77111 0.82042 0.0
H1531 H 0.14555 0.67819 0.8701 0.0
H1532 H 0.11479 0.7032 0.85144 0.0
H1533 H 0.15238 0.76961 0.85861 0.0
H1534 H 0.04144 0.83212 0.80874 0.0
H1535 H 0.06922 0.80735 0.82842 0.0
loop_
_geom_bond_atom_site_label_1
_geom_bond_atom_site_label_2
_geom_bond_distance
_geom_bond_site_symmetry_2
_ccdc_geom_bond_type
C0 C1 1.391 . S
C0 C4 1.391 . S
C0 H42 0.948 . S
C1 C0 1.391 . S
C1 C2 1.391 . S
C2 C1 1.391 . S
C2 H58 0.947 . S
C2 C59 1.392 . S
C3 C4 1.391 . S
C3 C7 1.397 . S
C3 C59 1.419 . S
C4 C0 1.391 . S
C4 C3 1.391 . S
C4 C5 1.399 . S
C5 C4 1.399 . S
C5 C8 1.396 . S
C5 C17 1.453 . S
C5 C18 1.684 . S
H6 C30 0.948 . S
C7 C3 1.397 . S
C7 C8 1.394 . S
C7 C26 1.723 . S
C8 C5 1.396 . S
C8 C7 1.394 . S
C8 C38 1.723 . S
H9 C32 0.947 . S
H10 C33 0.948 . S
H11 C39 0.982 . S
H12 C40 0.979 . S
H13 C40 0.980 . S
H14 C40 0.983 . S
H15 C39 0.979 . S
H16 C39 0.977 . S
C17 C5 1.453 . S
C17 H46 0.982 . S
C17 H47 0.979 . S
C17 H48 0.977 . S
C18 C5 1.684 . S
C18 H43 0.979 . S
C18 H44 0.980 . S
C18 H45 0.983 . S
C19 C20 1.391 . S
C19 C24 1.391 . S
C19 H49 0.948 . S
C20 C19 1.391 . S
C20 C21 1.391 . S
C21 C20 1.391 . S
C21 C22 1.392 . S
C21 H50 0.947 . S
C22 C21 1.392 . S
C22 C23 1.419 . S
C22 H51 0.948 . S
C23 C22 1.419 . S
C23 C24 1.391 . S
C23 C27 1.397 . S
C24 C19 1.391 . S
C24 C23 1.391 . S
C24 C25 1.399 . S
C25 C24 1.399 . S
C25 C26 1.396 . S
C25 C28 1.453 . S
C25 C29 1.684 . S
C26 C7 1.723 . S
C26 C25 1.396 . S
C26 C27 1.394 . S
C27 C23 1.397 . S
C27 C26 1.394 . S
C27 C37 1.723 . S
C28 C25 1.453 . S
C28 H52 0.982 . S
C28 H53 0.979 . S
C28 H54 0.977 . S
C29 C25 1.684 . S
C29 H55 0.979 . S
C29 H56 0.980 . S
C29 H57 0.983 . S
C30 H6 0.948 . S
C30 C31 1.391 . S
C30 C35 1.391 . S
C31 C30 1.391 . S
C31 C32 1.391 . S
C32 H9 0.947 . S
C32 C31 1.391 . S
C32 C33 1.392 . S
C33 H10 0.948 . S
C33 C32 1.392 . S
C33 C34 1.419 . S
C34 C33 1.419 . S
C34 C35 1.391 . S
C34 C38 1.397 . S
C35 C30 1.391 . S
C35 C34 1.391 . S
C35 C36 1.399 . S
C36 C35 1.399 . S
C36 C37 1.396 . S
C36 C39 1.453 . S
C36 C40 1.684 . S
C37 C27 1.723 . S
C37 C36 1.396 . S
C37 C38 1.394 . S
C38 C8 1.723 . S
C38 C34 1.397 . S
C38 C37 1.394 . S
C39 H11 0.982 . S
C39 H15 0.979 . S
C39 H16 0.977 . S
C39 C36 1.453 . S
C40 H12 0.979 . S
C40 H13 0.980 . S
C40 H14 0.983 . S
C40 C36 1.684 . S
H41 C59 0.948 . S
H42 C0 0.948 . S
H43 C18 0.979 . S
H44 C18 0.980 . S
H45 C18 0.983 . S
H46 C17 0.982 . S
H47 C17 0.979 . S
H48 C17 0.977 . S
H49 C19 0.948 . S
H50 C21 0.947 . S
H51 C22 0.948 . S
H52 C28 0.982 . S
H53 C28 0.979 . S
H54 C28 0.977 . S
H55 C29 0.979 . S
H56 C29 0.980 . S
H57 C29 0.983 . S
H58 C2 0.947 . S
C59 C2 1.392 . S
C59 C3 1.419 . S
C59 H41 0.948 . S
C60 C61 1.391 . S
C60 C64 1.391 . S
C60 H102 0.948 . S
C61 C60 1.391 . S
C61 C62 1.391 . S
C62 C61 1.391 . S
C62 H118 0.947 . S
C62 C119 1.392 . S
C63 C64 1.391 . S
C63 C67 1.397 . S
C63 C119 1.419 . S
C64 C60 1.391 . S
C64 C63 1.391 . S
C64 C65 1.399 . S
C65 C64 1.399 . S
C65 C68 1.396 . S
C65 C77 1.453 . S
C65 C78 1.684 . S
H66 C90 0.948 . S
C67 C63 1.397 . S
C67 C68 1.394 . S
C67 C86 1.723 . S
C68 C65 1.396 . S
C68 C67 1.394 . S
C68 C98 1.723 . S
H69 C92 0.947 . S
H70 C93 0.948 . S
H71 C99 0.982 . S
H72 C100 0.979 . S
H73 C100 0.980 . S
H74 C100 0.983 . S
H75 C99 0.979 . S
H76 C99 0.977 . S
C77 C65 1.453 . S
C77 H106 0.982 . S
C77 H107 0.979 . S
C77 H108 0.977 . S
C78 C65 1.684 . S
C78 H103 0.979 . S
C78 H104 0.980 . S
C78 H105 0.983 . S
C79 C80 1.391 . S
C79 C84 1.391 . S
C79 H109 0.948 . S
C80 C79 1.391 . S
C80 C81 1.391 . S
C81 C80 1.391 . S
C81 C82 1.392 . S
C81 H110 0.947 . S
C82 C81 1.392 . S
C82 C83 1.419 . S
C82 H111 0.948 . S
C83 C82 1.419 . S
C83 C84 1.391 . S
C83 C87 1.397 . S
C84 C79 1.391 . S
C84 C83 1.391 . S
C84 C85 1.399 . S
C85 C84 1.399 . S
C85 C86 1.396 . S
C85 C88 1.453 . S
C85 C89 1.684 . S
C86 C67 1.723 . S
C86 C85 1.396 . S
C86 C87 1.394 . S
C87 C83 1.397 . S
C87 C86 1.394 . S
C87 C97 1.723 . S
C88 C85 1.453 . S
C88 H112 0.982 . S
C88 H113 0.979 . S
C88 H114 0.977 . S
C89 C85 1.684 . S
C89 H115 0.979 . S
C89 H116 0.980 . S
C89 H117 0.983 . S
C90 H66 0.948 . S
C90 C91 1.391 . S
C90 C95 1.391 . S
C91 C90 1.391 . S
C91 C92 1.391 . S
C92 H69 0.947 . S
C92 C91 1.391 . S
C92 C93 1.392 . S
C93 H70 0.948 . S
C93 C92 1.392 . S
C93 C94 1.419 . S
C94 C93 1.419 . S
C94 C95 1.391 . S
C94 C98 1.397 . S
C95 C90 1.391 . S
C95 C94 1.391 . S
C95 C96 1.399 . S
C96 C95 1.399 . S
C96 C97 1.396 . S
C96 C99 1.453 . S
C96 C100 1.684 . S
C97 C87 1.723 . S
C97 C96 1.396 . S
C97 C98 1.394 . S
C98 C68 1.723 . S
C98 C94 1.397 . S
C98 C97 1.394 . S
C99 H71 0.982 . S
C99 H75 0.979 . S
C99 H76 0.977 . S
C99 C96 1.453 . S
C100 H72 0.979 . S
C100 H73 0.980 . S
C100 H74 0.983 . S
C100 C96 1.684 . S
H101 C119 0.948 . S
H102 C60 0.948 . S
H103 C78 0.979 . S
H104 C78 0.980 . S
H105 C78 0.983 . S
H106 C77 0.982 . S
H107 C77 0.979 . S
H108 C77 0.977 . S
H109 C79 0.948 . S
H110 C81 0.947 . S
H111 C82 0.948 . S
H112 C88 0.982 . S
H113 C88 0.979 . S
H114 C88 0.977 . S
H115 C89 0.979 . S
H116 C89 0.980 . S
H117 C89 0.983 . S
H118 C62 0.947 . S
C119 C62 1.392 . S
C119 C63 1.419 . S
C119 H101 0.948 . S
C120 C121 1.391 . S
C120 C124 1.391 . S
C120 H162 0.948 . S
C121 C120 1.391 . S
C121 C122 1.391 . S
C122 C121 1.391 . S
C122 H178 0.947 . S
C122 C179 1.392 . S
C123 C124 1.391 . S
C123 C127 1.397 . S
C123 C179 1.419 . S
C124 C120 1.391 . S
C124 C123 1.391 . S
C124 C125 1.399 . S
C125 C124 1.399 . S
C125 C128 1.396 . S
C125 C137 1.453 . S
C125 C138 1.684 . S
H126 C150 0.948 . S
C127 C123 1.397 . S
C127 C128 1.394 . S
C127 C146 1.723 . S
C128 C125 1.396 . S
C128 C127 1.394 . S
C128 C158 1.723 . S
H129 C152 0.947 . S
H130 C153 0.948 . S
H131 C159 0.982 . S
H132 C160 0.979 . S
H133 C160 0.980 . S
H134 C160 0.983 . S
H135 C159 0.979 . S
H136 C159 0.977 . S
C137 C125 1.453 . S
C137 H166 0.982 . S
C137 H167 0.979 . S
C137 H168 0.977 . S
C138 C125 1.684 . S
C138 H163 0.979 . S
C138 H164 0.980 . S
C138 H165 0.983 . S
C139 C140 1.391 . S
C139 C144 1.391 . S
C139 H169 0.948 . S
C140 C139 1.391 . S
C140 C141 1.391 . S
C141 C140 1.391 . S
C141 C142 1.392 . S
C141 H170 0.947 . S
C142 C141 1.392 . S
C142 C143 1.419 . S
C142 H171 0.948 . S
C143 C142 1.419 . S
C143 C144 1.391 . S
C143 C147 1.397 . S
C144 C139 1.391 . S
C144 C143 1.391 . S
C144 C145 1.399 . S
C145 C144 1.399 . S
C145 C146 1.396 . S
C145 C148 1.453 . S
C145 C149 1.684 . S
C146 C127 1.723 . S
C146 C145 1.396 . S
C146 C147 1.394 . S
C147 C143 1.397 . S
C147 C146 1.394 . S
C147 C157 1.723 . S
C148 C145 1.453 . S
C148 H172 0.982 . S
C148 H173 0.979 . S
C148 H174 0.977 . S
C149 C145 1.684 . S
C149 H175 0.979 . S
C149 H176 0.980 . S
C149 H177 0.983 . S
C150 H126 0.948 . S
C150 C151 1.391 . S
C150 C155 1.391 . S
C151 C150 1.391 . S
C151 C152 1.391 . S
C152 H129 0.947 . S
C152 C151 1.391 . S
C152 C153 1.392 . S
C153 H130 0.948 . S
C153 C152 1.392 . S
C153 C154 1.419 . S
C154 C153 1.419 . S
C154 C155 1.391 . S
C154 C158 1.397 . S
C155 C150 1.391 . S
C155 C154 1.391 . S
C155 C156 1.399 . S
C156 C155 1.399 . S
C156 C157 1.396 . S
C156 C159 1.453 . S
C156 C160 1.684 . S
C157 C147 1.723 . S
C157 C156 1.396 . S
C157 C158 1.394 . S
C158 C128 1.723 . S
C158 C154 1.397 . S
C158 C157 1.394 . S
C159 H131 0.982 . S
C159 H135 0.979 . S
C159 H136 0.977 . S
C159 C156 1.453 . S
C160 H132 0.979 . S
C160 H133 0.980 . S
C160 H134 0.983 . S
C160 C156 1.684 . S
H161 C179 0.948 . S
H162 C120 0.948 . S
H163 C138 0.979 . S
H164 C138 0.980 . S
H165 C138 0.983 . S
H166 C137 0.982 . S
H167 C137 0.979 . S
H168 C137 0.977 . S
H169 C139 0.948 . S
H170 C141 0.947 . S
H171 C142 0.948 . S
H172 C148 0.982 . S
H173 C148 0.979 . S
H174 C148 0.977 . S
H175 C149 0.979 . S
H176 C149 0.980 . S
H177 C149 0.983 . S
H178 C122 0.947 . S
C179 C122 1.392 . S
C179 C123 1.419 . S
C179 H161 0.948 . S
C180 C181 1.391 . S
C180 C184 1.391 . S
C180 H222 0.948 . S
C181 C180 1.391 . S
C181 C182 1.391 . S
C182 C181 1.391 . S
C182 H238 0.947 . S
C182 C239 1.392 . S
C183 C184 1.391 . S
C183 C187 1.397 . S
C183 C239 1.419 . S
C184 C180 1.391 . S
C184 C183 1.391 . S
C184 C185 1.399 . S
C185 C184 1.399 . S
C185 C188 1.396 . S
C185 C197 1.453 . S
C185 C198 1.684 . S
H186 C210 0.948 . S
C187 C183 1.397 . S
C187 C188 1.394 . S
C187 C206 1.723 . S
C188 C185 1.396 . S
C188 C187 1.394 . S
C188 C218 1.723 . S
H189 C212 0.947 . S
H190 C213 0.948 . S
H191 C219 0.982 . S
H192 C220 0.979 . S
H193 C220 0.980 . S
H194 C220 0.983 . S
H195 C219 0.979 . S
H196 C219 0.977 . S
C197 C185 1.453 . S
C197 H226 0.982 . S
C197 H227 0.979 . S
C197 H228 0.977 . S
C198 C185 1.684 . S
C198 H223 0.979 . S
C198 H224 0.980 . S
C198 H225 0.983 . S
C199 C200 1.391 . S
C199 C204 1.391 . S
C199 H229 0.948 . S
C200 C199 1.391 . S
C200 C201 1.391 . S
C201 C200 1.391 . S
C201 C202 1.392 . S
C201 H230 0.947 . S
C202 C201 1.392 . S
C202 C203 1.419 . S
C202 H231 0.948 . S
C203 C202 1.419 . S
C203 C204 1.391 . S
C203 C207 1.397 . S
C204 C199 1.391 . S
C204 C203 1.391 . S
C204 C205 1.399 . S
C205 C204 1.399 . S
C205 C206 1.396 . S
C205 C208 1.453 . S
C205 C209 1.684 . S
C206 C187 1.723 . S
C206 C205 1.396 . S
C206 C207 1.394 . S
C207 C203 1.397 . S
C207 C206 1.394 . S
C207 C217 1.723 . S
C208 C205 1.453 . S
C208 H232 0.982 . S
C208 H233 0.979 . S
C208 H234 0.977 . S
C209 C205 1.684 . S
C209 H235 0.979 . S
C209 H236 0.980 . S
C209 H237 0.983 . S
C210 H186 0.948 . S
C210 C211 1.391 . S
C210 C215 1.391 . S
C211 C210 1.391 . S
C211 C212 1.391 . S
C212 H189 0.947 . S
C212 C211 1.391 . S
C212 C213 1.392 . S
C213 H190 0.948 . S
C213 C212 1.392 . S
C213 C214 1.419 . S
C214 C213 1.419 . S
C214 C215 1.391 . S
C214 C218 1.397 . S
C215 C210 1.391 . S
C215 C214 1.391 . S
C215 C216 1.399 . S
C216 C215 1.399 . S
C216 C217 1.396 . S
C216 C219 1.453 . S
C216 C220 1.684 . S
C217 C207 1.723 . S
C217 C216 1.396 . S
C217 C218 1.394 . S
C218 C188 1.723 . S
C218 C214 1.397 . S
C218 C217 1.394 . S
C219 H191 0.982 . S
C219 H195 0.979 . S
C219 H196 0.977 . S
C219 C216 1.453 . S
C220 H192 0.979 . S
C220 H193 0.980 . S
C220 H194 0.983 . S
C220 C216 1.684 . S
H221 C239 0.948 . S
H222 C180 0.948 . S
H223 C198 0.979 . S
H224 C198 0.980 . S
H225 C198 0.983 . S
H226 C197 0.982 . S
H227 C197 0.979 . S
H228 C197 0.977 . S
H229 C199 0.948 . S
H230 C201 0.947 . S
H231 C202 0.948 . S
H232 C208 0.982 . S
H233 C208 0.979 . S
H234 C208 0.977 . S
H235 C209 0.979 . S
H236 C209 0.980 . S
H237 C209 0.983 . S
H238 C182 0.947 . S
C239 C182 1.392 . S
C239 C183 1.419 . S
C239 H221 0.948 . S
C240 C241 1.391 . S
C240 C244 1.391 . S
C240 H282 0.948 . S
C241 C240 1.391 . S
C241 C242 1.391 . S
C242 C241 1.391 . S
C242 H298 0.947 . S
C242 C299 1.392 . S
C243 C244 1.391 . S
C243 C247 1.397 . S
C243 C299 1.419 . S
C244 C240 1.391 . S
C244 C243 1.391 . S
C244 C245 1.399 . S
C245 C244 1.399 . S
C245 C248 1.396 . S
C245 C257 1.453 . S
C245 C258 1.684 . S
H246 C270 0.948 . S
C247 C243 1.397 . S
C247 C248 1.394 . S
C247 C266 1.723 . S
C248 C245 1.396 . S
C248 C247 1.394 . S
C248 C278 1.723 . S
H249 C272 0.947 . S
H250 C273 0.948 . S
H251 C279 0.982 . S
H252 C280 0.979 . S
H253 C280 0.980 . S
H254 C280 0.983 . S
H255 C279 0.979 . S
H256 C279 0.977 . S
C257 C245 1.453 . S
C257 H286 0.982 . S
C257 H287 0.979 . S
C257 H288 0.977 . S
C258 C245 1.684 . S
C258 H283 0.979 . S
C258 H284 0.980 . S
C258 H285 0.983 . S
C259 C260 1.391 . S
C259 C264 1.391 . S
C259 H289 0.948 . S
C260 C259 1.391 . S
C260 C261 1.391 . S
C261 C260 1.391 . S
C261 C262 1.392 . S
C261 H290 0.947 . S
C262 C261 1.392 . S
C262 C263 1.419 . S
C262 H291 0.948 . S
C263 C262 1.419 . S
C263 C264 1.391 . S
C263 C267 1.397 . S
C264 C259 1.391 . S
C264 C263 1.391 . S
C264 C265 1.399 . S
C265 C264 1.399 . S
C265 C266 1.396 . S
C265 C268 1.453 . S
C265 C269 1.684 . S
C266 C247 1.723 . S
C266 C265 1.396 . S
C266 C267 1.394 . S
C267 C263 1.397 . S
C267 C266 1.394 . S
C267 C277 1.723 . S
C268 C265 1.453 . S
C268 H292 0.982 . S
C268 H293 0.979 . S
C268 H294 0.977 . S
C269 C265 1.684 . S
C269 H295 0.979 . S
C269 H296 0.980 . S
C269 H297 0.983 . S
C270 H246 0.948 . S
C270 C271 1.391 . S
C270 C275 1.391 . S
C271 C270 1.391 . S
C271 C272 1.391 . S
C272 H249 0.947 . S
C272 C271 1.391 . S
C272 C273 1.392 . S
C273 H250 0.948 . S
C273 C272 1.392 . S
C273 C274 1.419 . S
C274 C273 1.419 . S
C274 C275 1.391 . S
C274 C278 1.397 . S
C275 C270 1.391 . S
C275 C274 1.391 . S
C275 C276 1.399 . S
C276 C275 1.399 . S
C276 C277 1.396 . S
C276 C279 1.453 . S
C276 C280 1.684 . S
C277 C267 1.723 . S
C277 C276 1.396 . S
C277 C278 1.394 . S
C278 C248 1.723 . S
C278 C274 1.397 . S
C278 C277 1.394 . S
C279 H251 0.982 . S
C279 H255 0.979 . S
C279 H256 0.977 . S
C279 C276 1.453 . S
C280 H252 0.979 . S
C280 H253 0.980 . S
C280 H254 0.983 . S
C280 C276 1.684 . S
H281 C299 0.948 . S
H282 C240 0.948 . S
H283 C258 0.979 . S
H284 C258 0.980 . S
H285 C258 0.983 . S
H286 C257 0.982 . S
H287 C257 0.979 . S
H288 C257 0.977 . S
H289 C259 0.948 . S
H290 C261 0.947 . S
H291 C262 0.948 . S
H292 C268 0.982 . S
H293 C268 0.979 . S
H294 C268 0.977 . S
H295 C269 0.979 . S
H296 C269 0.980 . S
H297 C269 0.983 . S
H298 C242 0.947 . S
C299 C242 1.392 . S
C299 C243 1.419 . S
C299 H281 0.948 . S
C300 C301 1.391 . S
C300 C304 1.391 . S
C300 H342 0.948 . S
C301 C300 1.391 . S
C301 C302 1.391 . S
C302 C301 1.391 . S
C302 H358 0.947 . S
C302 C359 1.392 . S
C303 C304 1.391 . S
C303 C307 1.397 . S
C303 C359 1.419 . S
C304 C300 1.391 . S
C304 C303 1.391 . S
C304 C305 1.399 . S
C305 C304 1.399 . S
C305 C308 1.396 . S
C305 C317 1.453 . S
C305 C318 1.684 . S
H306 C330 0.948 . S
C307 C303 1.397 . S
C307 C308 1.394 . S
C307 C326 1.723 . S
C308 C305 1.396 . S
C308 C307 1.394 . S
C308 C338 1.723 . S
H309 C332 0.947 . S
H310 C333 0.948 . S
H311 C339 0.982 . S
H312 C340 0.979 . S
H313 C340 0.980 . S
H314 C340 0.983 . S
H315 C339 0.979 . S
H316 C339 0.977 . S
C317 C305 1.453 . S
C317 H346 0.982 . S
C317 H347 0.979 . S
C317 H348 0.977 . S
C318 C305 1.684 . S
C318 H343 0.979 . S
C318 H344 0.980 . S
C318 H345 0.983 . S
C319 C320 1.391 . S
C319 C324 1.391 . S
C319 H349 0.948 . S
C320 C319 1.391 . S
C320 C321 1.391 . S
C321 C320 1.391 . S
C321 C322 1.392 . S
C321 H350 0.947 . S
C322 C321 1.392 . S
C322 C323 1.419 . S
C322 H351 0.948 . S
C323 C322 1.419 . S
C323 C324 1.391 . S
C323 C327 1.397 . S
C324 C319 1.391 . S
C324 C323 1.391 . S
C324 C325 1.399 . S
C325 C324 1.399 . S
C325 C326 1.396 . S
C325 C328 1.453 . S
C325 C329 1.684 . S
C326 C307 1.723 . S
C326 C325 1.396 . S
C326 C327 1.394 . S
C327 C323 1.397 . S
C327 C326 1.394 . S
C327 C337 1.723 . S
C328 C325 1.453 . S
C328 H352 0.982 . S
C328 H353 0.979 . S
C328 H354 0.977 . S
C329 C325 1.684 . S
C329 H355 0.979 . S
C329 H356 0.980 . S
C329 H357 0.983 . S
C330 H306 0.948 . S
C330 C331 1.391 . S
C330 C335 1.391 . S
C331 C330 1.391 . S
C331 C332 1.391 . S
C332 H309 0.947 . S
C332 C331 1.391 . S
C332 C333 1.392 . S
C333 H310 0.948 . S
C333 C332 1.392 . S
C333 C334 1.419 . S
C334 C333 1.419 . S
C334 C335 1.391 . S
C334 C338 1.397 . S
C335 C330 1.391 . S
C335 C334 1.391 . S
C335 C336 1.399 . S
C336 C335 1.399 . S
C336 C337 1.396 . S
C336 C339 1.453 . S
C336 C340 1.684 . S
C337 C327 1.723 . S
C337 C336 1.396 . S
C337 C338 1.394 . S
C338 C308 1.723 . S
C338 C334 1.397 . S
C338 C337 1.394 . S
C339 H311 0.982 . S
C339 H315 0.979 . S
C339 H316 0.977 . S
C339 C336 1.453 . S
C340 H312 0.979 . S
C340 H313 0.980 . S
C340 H314 0.983 . S
C340 C336 1.684 . S
H341 C359 0.948 . S
H342 C300 0.948 . S
H343 C318 0.979 . S
H344 C318 0.980 . S
H345 C318 0.983 . S
H346 C317 0.982 . S
H347 C317 0.979 . S
H348 C317 0.977 . S
H349 C319 0.948 . S
H350 C321 0.947 . S
H351 C322 0.948 . S
H352 C328 0.982 . S
H353 C328 0.979 . S
H354 C328 0.977 . S
H355 C329 0.979 . S
H356 C329 0.980 . S
H357 C329 0.983 . S
H358 C302 0.947 . S
C359 C302 1.392 . S
C359 C303 1.419 . S
C359 H341 0.948 . S
C360 C361 1.391 . S
C360 C364 1.391 . S
C360 H402 0.948 . S
C361 C360 1.391 . S
C361 C362 1.391 . S
C362 C361 1.391 . S
C362 H418 0.947 . S
C362 C419 1.392 . S
C363 C364 1.391 . S
C363 C367 1.397 . S
C363 C419 1.419 . S
C364 C360 1.391 . S
C364 C363 1.391 . S
C364 C365 1.399 . S
C365 C364 1.399 . S
C365 C368 1.396 . S
C365 C377 1.453 . S
C365 C378 1.684 . S
H366 C390 0.948 . S
C367 C363 1.397 . S
C367 C368 1.394 . S
C367 C386 1.723 . S
C368 C365 1.396 . S
C368 C367 1.394 . S
C368 C398 1.723 . S
H369 C392 0.947 . S
H370 C393 0.948 . S
H371 C399 0.982 . S
H372 C400 0.979 . S
H373 C400 0.980 . S
H374 C400 0.983 . S
H375 C399 0.979 . S
H376 C399 0.977 . S
C377 C365 1.453 . S
C377 H406 0.982 . S
C377 H407 0.979 . S
C377 H408 0.977 . S
C378 C365 1.684 . S
C378 H403 0.979 . S
C378 H404 0.980 . S
C378 H405 0.983 . S
C379 C380 1.391 . S
C379 C384 1.391 . S
C379 H409 0.948 . S
C380 C379 1.391 . S
C380 C381 1.391 . S
C381 C380 1.391 . S
C381 C382 1.392 . S
C381 H410 0.947 . S
C382 C381 1.392 . S
C382 C383 1.419 . S
C382 H411 0.948 . S
C383 C382 1.419 . S
C383 C384 1.391 . S
C383 C387 1.397 . S
C384 C379 1.391 . S
C384 C383 1.391 . S
C384 C385 1.399 . S
C385 C384 1.399 . S
C385 C386 1.396 . S
C385 C388 1.453 . S
C385 C389 1.684 . S
C386 C367 1.723 . S
C386 C385 1.396 . S
C386 C387 1.394 . S
C387 C383 1.397 . S
C387 C386 1.394 . S
C387 C397 1.723 . S
C388 C385 1.453 . S
C388 H412 0.982 . S
C388 H413 0.979 . S
C388 H414 0.977 . S
C389 C385 1.684 . S
C389 H415 0.979 . S
C389 H416 0.980 . S
C389 H417 0.983 . S
C390 H366 0.948 . S
C390 C391 1.391 . S
C390 C395 1.391 . S
C391 C390 1.391 . S
C391 C392 1.391 . S
C392 H369 0.947 . S
C392 C391 1.391 . S
C392 C393 1.392 . S
C393 H370 0.948 . S
C393 C392 1.392 . S
C393 C394 1.419 . S
C394 C393 1.419 . S
C394 C395 1.391 . S
C394 C398 1.397 . S
C395 C390 1.391 . S
C395 C394 1.391 . S
C395 C396 1.399 . S
C396 C395 1.399 . S
C396 C397 1.396 . S
C396 C399 1.453 . S
C396 C400 1.684 . S
C397 C387 1.723 . S
C397 C396 1.396 . S
C397 C398 1.394 . S
C398 C368 1.723 . S
C398 C394 1.397 . S
C398 C397 1.394 . S
C399 H371 0.982 . S
C399 H375 0.979 . S
C399 H376 0.977 . S
C399 C396 1.453 . S
C400 H372 0.979 . S
C400 H373 0.980 . S
C400 H374 0.983 . S
C400 C396 1.684 . S
H401 C419 0.948 . S
H402 C360 0.948 . S
H403 C378 0.979 . S
H404 C378 0.980 . S
H405 C378 0.983 . S
H406 C377 0.982 . S
H407 C377 0.979 . S
H408 C377 0.977 . S
H409 C379 0.948 . S
H410 C381 0.947 . S
H411 C382 0.948 . S
H412 C388 0.982 . S
H413 C388 0.979 . S
H414 C388 0.977 . S
H415 C389 0.979 . S
H416 C389 0.980 . S
H417 C389 0.983 . S
H418 C362 0.947 . S
C419 C362 1.392 . S
C419 C363 1.419 . S
C419 H401 0.948 . S
C420 C421 1.391 . S
C420 C424 1.391 . S
C420 H462 0.948 . S
C421 C420 1.391 . S
C421 C422 1.391 . S
C422 C421 1.391 . S
C422 H478 0.947 . S
C422 C479 1.392 . S
C423 C424 1.391 . S
C423 C427 1.397 . S
C423 C479 1.419 . S
C424 C420 1.391 . S
C424 C423 1.391 . S
C424 C425 1.399 . S
C425 C424 1.399 . S
C425 C428 1.396 . S
C425 C437 1.453 . S
C425 C438 1.684 . S
H426 C450 0.948 . S
C427 C423 1.397 . S
C427 C428 1.394 . S
C427 C446 1.723 . S
C428 C425 1.396 . S
C428 C427 1.394 . S
C428 C458 1.723 . S
H429 C452 0.947 . S
H430 C453 0.948 . S
H431 C459 0.982 . S
H432 C460 0.979 . S
H433 C460 0.980 . S
H434 C460 0.983 . S
H435 C459 0.979 . S
H436 C459 0.977 . S
C437 C425 1.453 . S
C437 H466 0.982 . S
C437 H467 0.979 . S
C437 H468 0.977 . S
C438 C425 1.684 . S
C438 H463 0.979 . S
C438 H464 0.980 . S
C438 H465 0.983 . S
C439 C440 1.391 . S
C439 C444 1.391 . S
C439 H469 0.948 . S
C440 C439 1.391 . S
C440 C441 1.391 . S
C441 C440 1.391 . S
C441 C442 1.392 . S
C441 H470 0.947 . S
C442 C441 1.392 . S
C442 C443 1.419 . S
C442 H471 0.948 . S
C443 C442 1.419 . S
C443 C444 1.391 . S
C443 C447 1.397 . S
C444 C439 1.391 . S
C444 C443 1.391 . S
C444 C445 1.399 . S
C445 C444 1.399 . S
C445 C446 1.396 . S
C445 C448 1.453 . S
C445 C449 1.684 . S
C446 C427 1.723 . S
C446 C445 1.396 . S
C446 C447 1.394 . S
C447 C443 1.397 . S
C447 C446 1.394 . S
C447 C457 1.723 . S
C448 C445 1.453 . S
C448 H472 0.982 . S
C448 H473 0.979 . S
C448 H474 0.977 . S
C449 C445 1.684 . S
C449 H475 0.979 . S
C449 H476 0.980 . S
C449 H477 0.983 . S
C450 H426 0.948 . S
C450 C451 1.391 . S
C450 C455 1.391 . S
C451 C450 1.391 . S
C451 C452 1.391 . S
C452 H429 0.947 . S
C452 C451 1.391 . S
C452 C453 1.392 . S
C453 H430 0.948 . S
C453 C452 1.392 . S
C453 C454 1.419 . S
C454 C453 1.419 . S
C454 C455 1.391 . S
C454 C458 1.397 . S
C455 C450 1.391 . S
C455 C454 1.391 . S
C455 C456 1.399 . S
C456 C455 1.399 . S
C456 C457 1.396 . S
C456 C459 1.453 . S
C456 C460 1.684 . S
C457 C447 1.723 . S
C457 C456 1.396 . S
C457 C458 1.394 . S
C458 C428 1.723 . S
C458 C454 1.397 . S
C458 C457 1.394 . S
C459 H431 0.982 . S
C459 H435 0.979 . S
C459 H436 0.977 . S
C459 C456 1.453 . S
C460 H432 0.979 . S
C460 H433 0.980 . S
C460 H434 0.983 . S
C460 C456 1.684 . S
H461 C479 0.948 . S
H462 C420 0.948 . S
H463 C438 0.979 . S
H464 C438 0.980 . S
H465 C438 0.983 . S
H466 C437 0.982 . S
H467 C437 0.979 . S
H468 C437 0.977 . S
H469 C439 0.948 . S
H470 C441 0.947 . S
H471 C442 0.948 . S
H472 C448 0.982 . S
H473 C448 0.979 . S
H474 C448 0.977 . S
H475 C449 0.979 . S
H476 C449 0.980 . S
H477 C449 0.983 . S
H478 C422 0.947 . S
C479 C422 1.392 . S
C479 C423 1.419 . S
C479 H461 0.948 . S
Eu480 N509 2.600 . S
Eu480 N515 2.562 . S
Eu480 O524 2.462 . S
Eu480 O525 2.373 . S
Eu480 O527 2.432 . S
Eu480 O528 2.291 . S
Eu480 O532 2.335 . S
Eu480 O535 2.372 . S
Eu480 C544 2.787 . S
C481 N482 1.365 . S
C481 C484 1.405 . S
C481 C488 1.448 . S
N482 C481 1.365 . S
N482 C485 1.319 . S
N482 Eu491 2.600 . S
C483 C485 1.397 . S
C483 C486 1.367 . S
C483 H503 0.931 . S
C484 C481 1.405 . S
C484 C486 1.403 . S
C484 C490 1.439 . S
C485 N482 1.319 . S
C485 C483 1.397 . S
C485 H496 0.930 . S
C486 C483 1.367 . S
C486 C484 1.403 . S
C486 H507 0.929 . S
C487 C488 1.430 . S
C487 C489 1.387 . S
C487 C493 1.404 . S
C488 C481 1.448 . S
C488 C487 1.430 . S
C488 N492 1.351 . S
C489 C487 1.387 . S
C489 C490 1.374 . S
C489 H504 0.931 . S
C490 C484 1.439 . S
C490 C489 1.374 . S
C490 H505 0.931 . S
Eu491 N482 2.600 . S
Eu491 N492 2.562 . S
Eu491 O526 2.320 1_655 S
Eu491 O529 2.372 . S
Eu491 O530 2.462 . S
Eu491 O531 2.373 . S
Eu491 O533 2.432 . S
Eu491 O534 2.291 1_655 S
Eu491 C555 2.787 . S
N492 C488 1.351 . S
N492 Eu491 2.562 . S
N492 C494 1.325 . S
C493 C487 1.404 . S
C493 C495 1.366 . S
C493 H501 0.930 . S
C494 N492 1.325 . S
C494 C495 1.416 . S
C494 H500 0.929 . S
C495 C493 1.366 . S
C495 C494 1.416 . S
C495 H497 0.930 . S
H496 C485 0.930 . S
H497 C495 0.930 . S
H498 C513 0.930 . S
H499 C520 0.930 . S
H500 C494 0.929 . S
H501 C493 0.930 . S
H502 C516 0.929 . S
H503 C483 0.931 . S
H504 C489 0.931 . S
H505 C490 0.931 . S
H506 C511 0.931 . S
H507 C486 0.929 . S
H508 C519 0.930 . S
N509 Eu480 2.600 . S
N509 C510 1.365 . S
N509 C513 1.319 . S
C510 N509 1.365 . S
C510 C512 1.405 . S
C510 C518 1.448 . S
C511 H506 0.931 . S
C511 C513 1.397 . S
C511 C514 1.367 . S
C512 C510 1.405 . S
C512 C514 1.403 . S
C512 C545 1.439 . S
C513 H498 0.930 . S
C513 N509 1.319 . S
C513 C511 1.397 . S
C514 C511 1.367 . S
C514 C512 1.403 . S
C514 H521 0.929 . S
N515 Eu480 2.562 . S
N515 C516 1.325 . S
N515 C518 1.351 . S
C516 H502 0.929 . S
C516 N515 1.325 . S
C516 C520 1.416 . S
C517 C518 1.430 . S
C517 C519 1.404 . S
C517 C546 1.387 . S
C518 C510 1.448 . S
C518 N515 1.351 . S
C518 C517 1.430 . S
C519 H508 0.930 . S
C519 C517 1.404 . S
C519 C520 1.366 . S
C520 H499 0.930 . S
C520 C516 1.416 . S
C520 C519 1.366 . S
H521 C514 0.929 . S
H522 C545 0.931 . S
H523 C546 0.931 . S
O524 Eu480 2.462 . S
O524 C544 1.252 . S
O525 Eu480 2.373 . S
O525 C536 1.249 . S
O526 Eu491 2.320 1_455 S
O526 C536 1.283 . S
O527 Eu480 2.432 . S
O527 C544 1.268 . S
O528 Eu480 2.291 . S
O528 C543 1.255 1_455 S
O529 Eu491 2.372 . S
O529 C543 1.257 . S
O530 Eu491 2.462 . S
O530 C555 1.252 . S
O531 Eu491 2.373 . S
O531 C547 1.249 . S
O532 Eu480 2.335 . S
O532 C547 1.264 1_455 S
O533 Eu491 2.432 . S
O533 C555 1.268 . S
O534 Eu491 2.291 1_455 S
O534 C554 1.255 . S
O535 Eu480 2.372 . S
O535 C554 1.257 . S
C536 O525 1.249 . S
C536 O526 1.283 . S
C537 C540 1.382 . S
C537 C542 1.390 . S
C537 C544 1.506 . S
C538 C539 1.398 . S
C538 C542 1.392 . S
C539 C538 1.398 . S
C539 C541 1.372 . S
C539 H556 0.931 . S
C540 C537 1.382 . S
C540 C541 1.390 . S
C540 H557 0.931 . S
C541 C539 1.372 . S
C541 C540 1.390 . S
C541 H558 0.929 . S
C542 C537 1.390 . S
C542 C538 1.392 . S
C542 H559 0.930 . S
C543 O528 1.255 1_655 S
C543 O529 1.257 . S
C544 Eu480 2.787 . S
C544 O524 1.252 . S
C544 O527 1.268 . S
C544 C537 1.506 . S
C545 C512 1.439 . S
C545 H522 0.931 . S
C545 C546 1.374 . S
C546 C517 1.387 . S
C546 H523 0.931 . S
C546 C545 1.374 . S
C547 O531 1.249 . S
C547 O532 1.264 1_655 S
C548 C551 1.382 . S
C548 C552 1.390 . S
C548 C555 1.506 . S
C549 C550 1.398 . S
C549 C552 1.392 . S
C550 C549 1.398 . S
C550 C553 1.372 . S
C550 H560 0.931 . S
C551 C548 1.382 . S
C551 C553 1.390 . S
C551 H561 0.931 . S
C552 C548 1.390 . S
C552 C549 1.392 . S
C552 H562 0.930 . S
C553 C550 1.372 . S
C553 C551 1.390 . S
C553 H563 0.929 . S
C554 O534 1.255 . S
C554 O535 1.257 . S
C555 Eu491 2.787 . S
C555 O530 1.252 . S
C555 O533 1.268 . S
C555 C548 1.506 . S
H556 C539 0.931 . S
H557 C540 0.931 . S
H558 C541 0.929 . S
H559 C542 0.930 . S
H560 C550 0.931 . S
H561 C551 0.931 . S
H562 C552 0.930 . S
H563 C553 0.929 . S
Eu564 N593 2.600 . S
Eu564 N599 2.562 . S
Eu564 O608 2.462 . S
Eu564 O609 2.373 . S
Eu564 O611 2.432 . S
Eu564 O612 2.291 . S
Eu564 O616 2.335 . S
Eu564 O619 2.372 . S
Eu564 C628 2.787 . S
C565 N566 1.365 . S
C565 C568 1.405 . S
C565 C572 1.448 . S
N566 C565 1.365 . S
N566 C569 1.319 . S
N566 Eu575 2.600 . S
C567 C569 1.397 . S
C567 C570 1.367 . S
C567 H587 0.931 . S
C568 C565 1.405 . S
C568 C570 1.403 . S
C568 C574 1.439 . S
C569 N566 1.319 . S
C569 C567 1.397 . S
C569 H580 0.930 . S
C570 C567 1.367 . S
C570 C568 1.403 . S
C570 H591 0.929 . S
C571 C572 1.430 . S
C571 C573 1.387 . S
C571 C577 1.404 . S
C572 C565 1.448 . S
C572 C571 1.430 . S
C572 N576 1.351 . S
C573 C571 1.387 . S
C573 C574 1.374 . S
C573 H588 0.931 . S
C574 C568 1.439 . S
C574 C573 1.374 . S
C574 H589 0.931 . S
Eu575 N566 2.600 . S
Eu575 N576 2.562 . S
Eu575 O610 2.335 . S
Eu575 O613 2.372 . S
Eu575 O614 2.462 . S
Eu575 O615 2.373 . S
Eu575 O617 2.432 . S
Eu575 O618 2.291 . S
Eu575 C639 2.787 . S
N576 C572 1.351 . S
N576 Eu575 2.562 . S
N576 C578 1.325 . S
C577 C571 1.404 . S
C577 C579 1.366 . S
C577 H585 0.930 . S
C578 N576 1.325 . S
C578 C579 1.416 . S
C578 H584 0.929 . S
C579 C577 1.366 . S
C579 C578 1.416 . S
C579 H581 0.930 . S
H580 C569 0.930 . S
H581 C579 0.930 . S
H582 C597 0.930 . S
H583 C604 0.930 . S
H584 C578 0.929 . S
H585 C577 0.930 . S
H586 C600 0.929 . S
H587 C567 0.931 . S
H588 C573 0.931 . S
H589 C574 0.931 . S
H590 C595 0.931 . S
H591 C570 0.929 . S
H592 C603 0.930 . S
N593 Eu564 2.600 . S
N593 C594 1.365 . S
N593 C597 1.319 . S
C594 N593 1.365 . S
C594 C596 1.405 . S
C594 C602 1.448 . S
C595 H590 0.931 . S
C595 C597 1.397 . S
C595 C598 1.367 . S
C596 C594 1.405 . S
C596 C598 1.403 . S
C596 C629 1.439 . S
C597 H582 0.930 . S
C597 N593 1.319 . S
C597 C595 1.397 . S
C598 C595 1.367 . S
C598 C596 1.403 . S
C598 H605 0.929 . S
N599 Eu564 2.562 . S
N599 C600 1.325 . S
N599 C602 1.351 . S
C600 H586 0.929 . S
C600 N599 1.325 . S
C600 C604 1.416 . S
C601 C602 1.430 . S
C601 C603 1.404 . S
C601 C630 1.387 . S
C602 C594 1.448 . S
C602 N599 1.351 . S
C602 C601 1.430 . S
C603 H592 0.930 . S
C603 C601 1.404 . S
C603 C604 1.366 . S
C604 H583 0.930 . S
C604 C600 1.416 . S
C604 C603 1.366 . S
H605 C598 0.929 . S
H606 C629 0.931 . S
H607 C630 0.931 . S
O608 Eu564 2.462 . S
O608 C628 1.252 . S
O609 Eu564 2.373 . S
O609 C620 1.249 . S
O610 Eu575 2.335 . S
O610 C620 1.264 . S
O611 Eu564 2.432 . S
O611 C628 1.268 . S
O612 Eu564 2.291 . S
O612 C627 1.255 . S
O613 Eu575 2.372 . S
O613 C627 1.257 . S
O614 Eu575 2.462 . S
O614 C639 1.252 . S
O615 Eu575 2.373 . S
O615 C631 1.249 . S
O616 Eu564 2.335 . S
O616 C631 1.264 . S
O617 Eu575 2.432 . S
O617 C639 1.268 . S
O618 Eu575 2.291 . S
O618 C638 1.255 . S
O619 Eu564 2.372 . S
O619 C638 1.257 . S
C620 O609 1.249 . S
C620 O610 1.264 . S
C621 C624 1.382 . S
C621 C626 1.390 . S
C621 C628 1.506 . S
C622 C623 1.398 . S
C622 C626 1.392 . S
C623 C622 1.398 . S
C623 C625 1.372 . S
C623 H640 0.931 . S
C624 C621 1.382 . S
C624 C625 1.390 . S
C624 H641 0.931 . S
C625 C623 1.372 . S
C625 C624 1.390 . S
C625 H642 0.929 . S
C626 C621 1.390 . S
C626 C622 1.392 . S
C626 H643 0.930 . S
C627 O612 1.255 . S
C627 O613 1.257 . S
C628 Eu564 2.787 . S
C628 O608 1.252 . S
C628 O611 1.268 . S
C628 C621 1.506 . S
C629 C596 1.439 . S
C629 H606 0.931 . S
C629 C630 1.374 . S
C630 C601 1.387 . S
C630 H607 0.931 . S
C630 C629 1.374 . S
C631 O615 1.249 . S
C631 O616 1.264 . S
C632 C635 1.382 . S
C632 C636 1.390 . S
C632 C639 1.506 . S
C633 C634 1.398 . S
C633 C636 1.392 . S
C634 C633 1.398 . S
C634 C637 1.372 . S
C634 H644 0.931 . S
C635 C632 1.382 . S
C635 C637 1.390 . S
C635 H645 0.931 . S
C636 C632 1.390 . S
C636 C633 1.392 . S
C636 H646 0.930 . S
C637 C634 1.372 . S
C637 C635 1.390 . S
C637 H647 0.929 . S
C638 O618 1.255 . S
C638 O619 1.257 . S
C639 Eu575 2.787 . S
C639 O614 1.252 . S
C639 O617 1.268 . S
C639 C632 1.506 . S
H640 C623 0.931 . S
H641 C624 0.931 . S
H642 C625 0.929 . S
H643 C626 0.930 . S
H644 C634 0.931 . S
H645 C635 0.931 . S
H646 C636 0.930 . S
H647 C637 0.929 . S
Eu648 N677 2.600 . S
Eu648 N683 2.562 . S
Eu648 O692 2.462 . S
Eu648 O693 2.373 . S
Eu648 O695 2.432 . S
Eu648 O696 2.291 . S
Eu648 O700 2.335 . S
Eu648 O703 2.372 . S
Eu648 C712 2.787 . S
C649 N650 1.365 . S
C649 C652 1.405 . S
C649 C656 1.448 . S
N650 C649 1.365 . S
N650 C653 1.319 . S
N650 Eu659 2.600 . S
C651 C653 1.397 . S
C651 C654 1.367 . S
C651 H671 0.931 . S
C652 C649 1.405 . S
C652 C654 1.403 . S
C652 C658 1.439 . S
C653 N650 1.319 . S
C653 C651 1.397 . S
C653 H664 0.930 . S
C654 C651 1.367 . S
C654 C652 1.403 . S
C654 H675 0.929 . S
C655 C656 1.430 . S
C655 C657 1.387 . S
C655 C661 1.404 . S
C656 C649 1.448 . S
C656 C655 1.430 . S
C656 N660 1.351 . S
C657 C655 1.387 . S
C657 C658 1.374 . S
C657 H672 0.931 . S
C658 C652 1.439 . S
C658 C657 1.374 . S
C658 H673 0.931 . S
Eu659 N650 2.600 . S
Eu659 N660 2.562 . S
Eu659 O694 2.335 1_655 S
Eu659 O697 2.372 . S
Eu659 O698 2.462 . S
Eu659 O699 2.373 . S
Eu659 O701 2.432 . S
Eu659 O702 2.291 1_655 S
Eu659 C723 2.787 . S
N660 C656 1.351 . S
N660 Eu659 2.562 . S
N660 C662 1.325 . S
C661 C655 1.404 . S
C661 C663 1.366 . S
C661 H669 0.930 . S
C662 N660 1.325 . S
C662 C663 1.416 . S
C662 H668 0.929 . S
C663 C661 1.366 . S
C663 C662 1.416 . S
C663 H665 0.930 . S
H664 C653 0.930 . S
H665 C663 0.930 . S
H666 C681 0.930 . S
H667 C688 0.930 . S
H668 C662 0.929 . S
H669 C661 0.930 . S
H670 C684 0.929 . S
H671 C651 0.931 . S
H672 C657 0.931 . S
H673 C658 0.931 . S
H674 C679 0.931 . S
H675 C654 0.929 . S
H676 C687 0.930 . S
N677 Eu648 2.600 . S
N677 C678 1.365 . S
N677 C681 1.319 . S
C678 N677 1.365 . S
C678 C680 1.405 . S
C678 C686 1.448 . S
C679 H674 0.931 . S
C679 C681 1.397 . S
C679 C682 1.367 . S
C680 C678 1.405 . S
C680 C682 1.403 . S
C680 C713 1.439 . S
C681 H666 0.930 . S
C681 N677 1.319 . S
C681 C679 1.397 . S
C682 C679 1.367 . S
C682 C680 1.403 . S
C682 H689 0.929 . S
N683 Eu648 2.562 . S
N683 C684 1.325 . S
N683 C686 1.351 . S
C684 H670 0.929 . S
C684 N683 1.325 . S
C684 C688 1.416 . S
C685 C686 1.430 . S
C685 C687 1.404 . S
C685 C714 1.387 . S
C686 C678 1.448 . S
C686 N683 1.351 . S
C686 C685 1.430 . S
C687 H676 0.930 . S
C687 C685 1.404 . S
C687 C688 1.366 . S
C688 H667 0.930 . S
C688 C684 1.416 . S
C688 C687 1.366 . S
H689 C682 0.929 . S
H690 C713 0.931 . S
H691 C714 0.931 . S
O692 Eu648 2.462 . S
O692 C712 1.252 . S
O693 Eu648 2.373 . S
O693 C704 1.249 . S
O694 Eu659 2.335 1_455 S
O694 C704 1.264 . S
O695 Eu648 2.432 . S
O695 C712 1.268 . S
O696 Eu648 2.291 . S
O696 C711 1.255 1_455 S
O697 Eu659 2.372 . S
O697 C711 1.257 . S
O698 Eu659 2.462 . S
O698 C723 1.252 . S
O699 Eu659 2.373 . S
O699 C715 1.249 . S
O700 Eu648 2.335 . S
O700 C715 1.264 1_455 S
O701 Eu659 2.432 . S
O701 C723 1.268 . S
O702 Eu659 2.291 1_455 S
O702 C722 1.255 . S
O703 Eu648 2.372 . S
O703 C722 1.257 . S
C704 O693 1.249 . S
C704 O694 1.264 . S
C705 C708 1.382 . S
C705 C710 1.390 . S
C705 C712 1.506 . S
C706 C707 1.398 . S
C706 C710 1.392 . S
C707 C706 1.398 . S
C707 C709 1.372 . S
C707 H724 0.931 . S
C708 C705 1.382 . S
C708 C709 1.390 . S
C708 H725 0.931 . S
C709 C707 1.372 . S
C709 C708 1.390 . S
C709 H726 0.929 . S
C710 C705 1.390 . S
C710 C706 1.392 . S
C710 H727 0.930 . S
C711 O696 1.255 1_655 S
C711 O697 1.257 . S
C712 Eu648 2.787 . S
C712 O692 1.252 . S
C712 O695 1.268 . S
C712 C705 1.506 . S
C713 C680 1.439 . S
C713 H690 0.931 . S
C713 C714 1.374 . S
C714 C685 1.387 . S
C714 H691 0.931 . S
C714 C713 1.374 . S
C715 O699 1.249 . S
C715 O700 1.264 1_655 S
C716 C719 1.382 . S
C716 C720 1.390 . S
C716 C723 1.506 . S
C717 C718 1.398 . S
C717 C720 1.392 . S
C718 C717 1.398 . S
C718 C721 1.372 . S
C718 H728 0.931 . S
C719 C716 1.382 . S
C719 C721 1.390 . S
C719 H729 0.931 . S
C720 C716 1.390 . S
C720 C717 1.392 . S
C720 H730 0.930 . S
C721 C718 1.372 . S
C721 C719 1.390 . S
C721 H731 0.929 . S
C722 O702 1.255 . S
C722 O703 1.257 . S
C723 Eu659 2.787 . S
C723 O698 1.252 . S
C723 O701 1.268 . S
C723 C716 1.506 . S
H724 C707 0.931 . S
H725 C708 0.931 . S
H726 C709 0.929 . S
H727 C710 0.930 . S
H728 C718 0.931 . S
H729 C719 0.931 . S
H730 C720 0.930 . S
H731 C721 0.929 . S
Eu732 N761 2.600 . S
Eu732 N767 2.562 . S
Eu732 O776 2.462 . S
Eu732 O777 2.373 . S
Eu732 O779 2.432 . S
Eu732 O780 2.291 . S
Eu732 O784 2.335 . S
Eu732 O787 2.372 . S
Eu732 C796 2.787 . S
C733 N734 1.365 . S
C733 C736 1.405 . S
C733 C740 1.448 . S
N734 C733 1.365 . S
N734 C737 1.319 . S
N734 Eu743 2.600 . S
C735 C737 1.397 . S
C735 C738 1.367 . S
C735 H755 0.931 . S
C736 C733 1.405 . S
C736 C738 1.403 . S
C736 C742 1.439 . S
C737 N734 1.319 . S
C737 C735 1.397 . S
C737 H748 0.930 . S
C738 C735 1.367 . S
C738 C736 1.403 . S
C738 H759 0.929 . S
C739 C740 1.430 . S
C739 C741 1.387 . S
C739 C745 1.404 . S
C740 C733 1.448 . S
C740 C739 1.430 . S
C740 N744 1.351 . S
C741 C739 1.387 . S
C741 C742 1.374 . S
C741 H756 0.931 . S
C742 C736 1.439 . S
C742 C741 1.374 . S
C742 H757 0.931 . S
Eu743 N734 2.600 . S
Eu743 N744 2.562 . S
Eu743 O778 2.335 . S
Eu743 O781 2.372 . S
Eu743 O782 2.462 . S
Eu743 O783 2.373 . S
Eu743 O785 2.432 . S
Eu743 O786 2.291 . S
Eu743 C807 2.787 . S
N744 C740 1.351 . S
N744 Eu743 2.562 . S
N744 C746 1.325 . S
C745 C739 1.404 . S
C745 C747 1.366 . S
C745 H753 0.930 . S
C746 N744 1.325 . S
C746 C747 1.416 . S
C746 H752 0.929 . S
C747 C745 1.366 . S
C747 C746 1.416 . S
C747 H749 0.930 . S
H748 C737 0.930 . S
H749 C747 0.930 . S
H750 C765 0.930 . S
H751 C772 0.930 . S
H752 C746 0.929 . S
H753 C745 0.930 . S
H754 C768 0.929 . S
H755 C735 0.931 . S
H756 C741 0.931 . S
H757 C742 0.931 . S
H758 C763 0.931 . S
H759 C738 0.929 . S
H760 C771 0.930 . S
N761 Eu732 2.600 . S
N761 C762 1.365 . S
N761 C765 1.319 . S
C762 N761 1.365 . S
C762 C764 1.405 . S
C762 C770 1.448 . S
C763 H758 0.931 . S
C763 C765 1.397 . S
C763 C766 1.367 . S
C764 C762 1.405 . S
C764 C766 1.403 . S
C764 C797 1.439 . S
C765 H750 0.930 . S
C765 N761 1.319 . S
C765 C763 1.397 . S
C766 C763 1.367 . S
C766 C764 1.403 . S
C766 H773 0.929 . S
N767 Eu732 2.562 . S
N767 C768 1.325 . S
N767 C770 1.351 . S
C768 H754 0.929 . S
C768 N767 1.325 . S
C768 C772 1.416 . S
C769 C770 1.430 . S
C769 C771 1.404 . S
C769 C798 1.387 . S
C770 C762 1.448 . S
C770 N767 1.351 . S
C770 C769 1.430 . S
C771 H760 0.930 . S
C771 C769 1.404 . S
C771 C772 1.366 . S
C772 H751 0.930 . S
C772 C768 1.416 . S
C772 C771 1.366 . S
H773 C766 0.929 . S
H774 C797 0.931 . S
H775 C798 0.931 . S
O776 Eu732 2.462 . S
O776 C796 1.252 . S
O777 Eu732 2.373 . S
O777 C788 1.249 . S
O778 Eu743 2.335 . S
O778 C788 1.264 . S
O779 Eu732 2.432 . S
O779 C796 1.268 . S
O780 Eu732 2.291 . S
O780 C795 1.255 . S
O781 Eu743 2.372 . S
O781 C795 1.257 . S
O782 Eu743 2.462 . S
O782 C807 1.252 . S
O783 Eu743 2.373 . S
O783 C799 1.249 . S
O784 Eu732 2.335 . S
O784 C799 1.264 . S
O785 Eu743 2.432 . S
O785 C807 1.268 . S
O786 Eu743 2.291 . S
O786 C806 1.255 . S
O787 Eu732 2.372 . S
O787 C806 1.257 . S
C788 O777 1.249 . S
C788 O778 1.264 . S
C789 C792 1.382 . S
C789 C794 1.390 . S
C789 C796 1.506 . S
C790 C791 1.398 . S
C790 C794 1.392 . S
C791 C790 1.398 . S
C791 C793 1.372 . S
C791 H808 0.931 . S
C792 C789 1.382 . S
C792 C793 1.390 . S
C792 H809 0.931 . S
C793 C791 1.372 . S
C793 C792 1.390 . S
C793 H810 0.929 . S
C794 C789 1.390 . S
C794 C790 1.392 . S
C794 H811 0.930 . S
C795 O780 1.255 . S
C795 O781 1.257 . S
C796 Eu732 2.787 . S
C796 O776 1.252 . S
C796 O779 1.268 . S
C796 C789 1.506 . S
C797 C764 1.439 . S
C797 H774 0.931 . S
C797 C798 1.374 . S
C798 C769 1.387 . S
C798 H775 0.931 . S
C798 C797 1.374 . S
C799 O783 1.249 . S
C799 O784 1.264 . S
C800 C803 1.382 . S
C800 C804 1.390 . S
C800 C807 1.506 . S
C801 C802 1.398 . S
C801 C804 1.392 . S
C802 C801 1.398 . S
C802 C805 1.372 . S
C802 H812 0.931 . S
C803 C800 1.382 . S
C803 C805 1.390 . S
C803 H813 0.931 . S
C804 C800 1.390 . S
C804 C801 1.392 . S
C804 H814 0.930 . S
C805 C802 1.372 . S
C805 C803 1.390 . S
C805 H815 0.929 . S
C806 O786 1.255 . S
C806 O787 1.257 . S
C807 Eu743 2.787 . S
C807 O782 1.252 . S
C807 O785 1.268 . S
C807 C800 1.506 . S
H808 C791 0.931 . S
H809 C792 0.931 . S
H810 C793 0.929 . S
H811 C794 0.930 . S
H812 C802 0.931 . S
H813 C803 0.931 . S
H814 C804 0.930 . S
H815 C805 0.929 . S
C816 C817 1.349 . S
C816 C818 1.327 . S
C816 H841 0.950 . S
C817 C816 1.349 . S
C817 C833 1.349 . S
C818 C816 1.327 . S
C818 C837 1.400 1_565 S
C818 H842 0.950 . S
C819 C836 1.574 . S
C819 C838 1.368 . S
C819 H843 0.949 . S
H820 C824 0.949 . S
C821 C822 1.349 . S
C821 C823 1.327 . S
C821 H844 0.950 . S
C822 C821 1.349 . S
C822 C834 1.349 . S
C823 C821 1.327 . S
C823 C839 1.429 . S
C823 H845 0.950 . S
C824 H820 0.949 . S
C824 C832 1.574 . S
C824 C840 1.368 . S
H825 C833 0.950 . S
H826 C831 0.950 . S
H827 C832 0.949 1_565 S
H828 C834 0.950 . S
H829 C835 0.950 . S
H830 C836 0.949 . S
C831 H826 0.950 . S
C831 C833 1.327 1_545 S
C831 C837 1.434 . S
C832 C824 1.574 . S
C832 H827 0.949 1_545 S
C832 C838 1.368 . S
C833 C817 1.349 . S
C833 H825 0.950 . S
C833 C831 1.327 1_565 S
C834 C822 1.349 . S
C834 H828 0.950 . S
C834 C835 1.327 . S
C835 H829 0.950 . S
C835 C834 1.327 . S
C835 C839 1.429 . S
C836 C819 1.574 . S
C836 H830 0.949 . S
C836 C840 1.368 . S
C837 C818 1.400 1_545 S
C837 C831 1.434 . S
C837 C838 1.544 . S
C838 C819 1.368 . S
C838 C832 1.368 . S
C838 C837 1.544 . S
C839 C823 1.429 . S
C839 C835 1.429 . S
C839 C840 1.523 . S
C840 C824 1.368 . S
C840 C836 1.368 . S
C840 C839 1.523 . S
H841 C816 0.950 . S
H842 C818 0.950 . S
H843 C819 0.949 . S
H844 C821 0.950 . S
H845 C823 0.950 . S
C846 C847 1.349 . S
C846 C848 1.327 . S
C846 H871 0.950 . S
C847 C846 1.349 . S
C847 C863 1.349 . S
C848 C846 1.327 . S
C848 C867 1.429 . S
C848 H872 0.950 . S
C849 C866 1.574 . S
C849 C868 1.368 . S
C849 H873 0.949 . S
H850 C854 0.949 . S
C851 C852 1.349 . S
C851 C853 1.327 . S
C851 H874 0.950 . S
C852 C851 1.349 . S
C852 C864 1.349 . S
C853 C851 1.327 . S
C853 C869 1.429 . S
C853 H875 0.950 . S
C854 H850 0.949 . S
C854 C862 1.574 . S
C854 C870 1.368 . S
H855 C863 0.950 . S
H856 C861 0.950 . S
H857 C862 0.949 . S
H858 C864 0.950 . S
H859 C865 0.950 . S
H860 C866 0.949 . S
C861 H856 0.950 . S
C861 C863 1.327 . S
C861 C867 1.429 . S
C862 C854 1.574 . S
C862 H857 0.949 . S
C862 C868 1.368 . S
C863 C847 1.349 . S
C863 H855 0.950 . S
C863 C861 1.327 . S
C864 C852 1.349 . S
C864 H858 0.950 . S
C864 C865 1.327 . S
C865 H859 0.950 . S
C865 C864 1.327 . S
C865 C869 1.429 . S
C866 C849 1.574 . S
C866 H860 0.949 . S
C866 C870 1.368 . S
C867 C848 1.429 . S
C867 C861 1.429 . S
C867 C868 1.523 . S
C868 C849 1.368 . S
C868 C862 1.368 . S
C868 C867 1.523 . S
C869 C853 1.429 . S
C869 C865 1.429 . S
C869 C870 1.523 . S
C870 C854 1.368 . S
C870 C866 1.368 . S
C870 C869 1.523 . S
H871 C846 0.950 . S
H872 C848 0.950 . S
H873 C849 0.949 . S
H874 C851 0.950 . S
H875 C853 0.950 . S
C876 C877 1.349 . S
C876 C878 1.327 . S
C876 H901 0.950 . S
C877 C876 1.349 . S
C877 C893 1.349 . S
C878 C876 1.327 . S
C878 C897 1.429 . S
C878 H902 0.950 . S
C879 C896 1.574 . S
C879 C898 1.368 . S
C879 H903 0.949 . S
H880 C884 0.949 . S
C881 C882 1.349 . S
C881 C883 1.327 . S
C881 H904 0.950 . S
C882 C881 1.349 . S
C882 C894 1.349 . S
C883 C881 1.327 . S
C883 C899 1.429 . S
C883 H905 0.950 . S
C884 H880 0.949 . S
C884 C892 1.574 . S
C884 C900 1.368 . S
H885 C893 0.950 . S
H886 C891 0.950 . S
H887 C892 0.949 . S
H888 C894 0.950 . S
H889 C895 0.950 . S
H890 C896 0.949 . S
C891 H886 0.950 . S
C891 C893 1.327 . S
C891 C897 1.429 . S
C892 C884 1.574 . S
C892 H887 0.949 . S
C892 C898 1.368 . S
C893 C877 1.349 . S
C893 H885 0.950 . S
C893 C891 1.327 . S
C894 C882 1.349 . S
C894 H888 0.950 . S
C894 C895 1.327 . S
C895 H889 0.950 . S
C895 C894 1.327 . S
C895 C899 1.429 . S
C896 C879 1.574 . S
C896 H890 0.949 . S
C896 C900 1.368 . S
C897 C878 1.429 . S
C897 C891 1.429 . S
C897 C898 1.523 . S
C898 C879 1.368 . S
C898 C892 1.368 . S
C898 C897 1.523 . S
C899 C883 1.429 . S
C899 C895 1.429 . S
C899 C900 1.523 . S
C900 C884 1.368 . S
C900 C896 1.368 . S
C900 C899 1.523 . S
H901 C876 0.950 . S
H902 C878 0.950 . S
H903 C879 0.949 . S
H904 C881 0.950 . S
H905 C883 0.950 . S
C906 C907 1.349 . S
C906 C908 1.327 1_565 S
C906 H931 0.950 . S
C907 C906 1.349 . S
C907 C923 1.349 . S
C908 C906 1.327 1_545 S
C908 C927 1.429 . S
C908 H932 0.950 . S
C909 C926 1.574 . S
C909 C928 1.368 . S
C909 H933 0.949 1_545 S
H910 C914 0.949 . S
C911 C912 1.349 . S
C911 C913 1.327 . S
C911 H934 0.950 . S
C912 C911 1.349 . S
C912 C924 1.349 . S
C913 C911 1.327 . S
C913 C929 1.429 . S
C913 H935 0.950 . S
C914 H910 0.949 . S
C914 C922 1.574 . S
C914 C930 1.368 . S
H915 C923 0.950 . S
H916 C921 0.950 . S
H917 C922 0.949 . S
H918 C924 0.950 . S
H919 C925 0.950 . S
H920 C926 0.949 . S
C921 H916 0.950 . S
C921 C923 1.327 . S
C921 C927 1.429 1_565 S
C922 C914 1.574 . S
C922 H917 0.949 . S
C922 C928 1.368 . S
C923 C907 1.349 . S
C923 H915 0.950 . S
C923 C921 1.327 . S
C924 C912 1.349 . S
C924 H918 0.950 . S
C924 C925 1.327 . S
C925 H919 0.950 . S
C925 C924 1.327 . S
C925 C929 1.429 . S
C926 C909 1.574 . S
C926 H920 0.949 . S
C926 C930 1.368 . S
C927 C908 1.429 . S
C927 C921 1.429 1_545 S
C927 C928 1.523 . S
C928 C909 1.368 . S
C928 C922 1.368 . S
C928 C927 1.523 . S
C929 C913 1.429 . S
C929 C925 1.429 . S
C929 C930 1.523 . S
C930 C914 1.368 . S
C930 C926 1.368 . S
C930 C929 1.523 . S
H931 C906 0.950 . S
H932 C908 0.950 . S
H933 C909 0.949 1_565 S
H934 C911 0.950 . S
H935 C913 0.950 . S
C936 C937 1.349 . S
C936 C938 1.327 . S
C936 H961 0.950 . S
C937 C936 1.349 . S
C937 C953 1.349 . S
C938 C936 1.327 . S
C938 C957 1.405 1_545 S
C938 H962 0.950 . S
C939 C956 1.574 . S
C939 C958 1.368 . S
C939 H963 0.949 . S
H940 C944 0.949 . S
C941 C942 1.349 . S
C941 C943 1.327 . S
C941 H964 0.950 . S
C942 C941 1.349 . S
C942 C954 1.349 . S
C943 C941 1.327 . S
C943 C959 1.429 . S
C943 H965 0.950 . S
C944 H940 0.949 . S
C944 C952 1.574 . S
C944 C960 1.368 . S
H945 C953 0.950 . S
H946 C951 0.950 . S
H947 C952 0.989 . S
H948 C954 0.950 1_455 S
H949 C955 0.950 . S
H950 C956 0.949 . S
C951 H946 0.950 . S
C951 C953 1.327 1_565 S
C951 C957 1.430 . S
C952 C944 1.574 . S
C952 H947 0.989 . S
C952 C958 1.368 . S
C953 C937 1.349 . S
C953 H945 0.950 . S
C953 C951 1.327 1_545 S
C954 C942 1.349 . S
C954 H948 0.950 1_655 S
C954 C955 1.327 . S
C955 H949 0.950 . S
C955 C954 1.327 . S
C955 C959 1.429 . S
C956 C939 1.574 . S
C956 H950 0.949 . S
C956 C960 1.368 . S
C957 C938 1.405 1_565 S
C957 C951 1.430 . S
C957 C958 1.544 . S
C958 C939 1.368 . S
C958 C952 1.368 . S
C958 C957 1.544 . S
C959 C943 1.429 . S
C959 C955 1.429 . S
C959 C960 1.523 . S
C960 C944 1.368 . S
C960 C956 1.368 . S
C960 C959 1.523 . S
H961 C936 0.950 . S
H962 C938 0.950 . S
H963 C939 0.949 . S
H964 C941 0.950 . S
H965 C943 0.950 . S
C966 C967 1.349 . S
C966 C968 1.327 . S
C966 H991 0.950 . S
C967 C966 1.349 . S
C967 C983 1.349 . S
C968 C966 1.327 . S
C968 C987 1.429 . S
C968 H992 0.950 . S
C969 C986 1.574 . S
C969 C988 1.368 . S
C969 H993 0.949 . S
H970 C974 0.949 . S
C971 C972 1.349 . S
C971 C973 1.327 . S
C971 H994 0.950 . S
C972 C971 1.349 . S
C972 C984 1.349 . S
C973 C971 1.327 . S
C973 C989 1.429 . S
C973 H995 0.950 . S
C974 H970 0.949 . S
C974 C982 1.574 . S
C974 C990 1.368 . S
H975 C983 0.950 . S
H976 C981 0.950 . S
H977 C982 0.949 . S
H978 C984 0.950 . S
H979 C985 0.950 . S
H980 C986 0.949 . S
C981 H976 0.950 . S
C981 C983 1.327 . S
C981 C987 1.429 . S
C982 C974 1.574 . S
C982 H977 0.949 . S
C982 C988 1.368 . S
C983 C967 1.349 . S
C983 H975 0.950 . S
C983 C981 1.327 . S
C984 C972 1.349 . S
C984 H978 0.950 . S
C984 C985 1.327 . S
C985 H979 0.950 . S
C985 C984 1.327 . S
C985 C989 1.429 . S
C986 C969 1.574 . S
C986 H980 0.949 . S
C986 C990 1.368 . S
C987 C968 1.429 . S
C987 C981 1.429 . S
C987 C988 1.523 . S
C988 C969 1.368 . S
C988 C982 1.368 . S
C988 C987 1.523 . S
C989 C973 1.429 . S
C989 C985 1.429 . S
C989 C990 1.523 . S
C990 C974 1.368 . S
C990 C986 1.368 . S
C990 C989 1.523 . S
H991 C966 0.950 . S
H992 C968 0.950 . S
H993 C969 0.949 . S
H994 C971 0.950 . S
H995 C973 0.950 . S
C996 C997 1.349 . S
C996 C998 1.327 . S
C996 H1021 0.950 . S
C997 C996 1.349 . S
C997 C1013 1.349 . S
C998 C996 1.327 . S
C998 C1017 1.429 . S
C998 H1022 0.950 . S
C999 C1016 1.574 . S
C999 C1018 1.368 . S
C999 H1023 0.949 . S
H1000 C1004 0.949 . S
C1001 C1002 1.349 . S
C1001 C1003 1.327 . S
C1001 H1024 0.950 . S
C1002 C1001 1.349 . S
C1002 C1014 1.349 . S
C1003 C1001 1.327 . S
C1003 C1019 1.429 . S
C1003 H1025 0.950 . S
C1004 H1000 0.949 . S
C1004 C1012 1.574 . S
C1004 C1020 1.368 . S
H1005 C1013 0.950 . S
H1006 C1011 0.950 . S
H1007 C1012 0.949 . S
H1008 C1014 0.950 . S
H1009 C1015 0.950 . S
H1010 C1016 0.949 . S
C1011 H1006 0.950 . S
C1011 C1013 1.327 . S
C1011 C1017 1.429 . S
C1012 C1004 1.574 . S
C1012 H1007 0.949 . S
C1012 C1018 1.368 . S
C1013 C997 1.349 . S
C1013 H1005 0.950 . S
C1013 C1011 1.327 . S
C1014 C1002 1.349 . S
C1014 H1008 0.950 . S
C1014 C1015 1.327 . S
C1015 H1009 0.950 . S
C1015 C1014 1.327 . S
C1015 C1019 1.429 . S
C1016 C999 1.574 . S
C1016 H1010 0.949 . S
C1016 C1020 1.368 . S
C1017 C998 1.429 . S
C1017 C1011 1.429 . S
C1017 C1018 1.523 . S
C1018 C999 1.368 . S
C1018 C1012 1.368 . S
C1018 C1017 1.523 . S
C1019 C1003 1.429 . S
C1019 C1015 1.429 . S
C1019 C1020 1.523 . S
C1020 C1004 1.368 . S
C1020 C1016 1.368 . S
C1020 C1019 1.523 . S
H1021 C996 0.950 . S
H1022 C998 0.950 . S
H1023 C999 0.949 . S
H1024 C1001 0.950 . S
H1025 C1003 0.950 . S
C1026 C1027 1.349 . S
C1026 C1028 1.327 . S
C1026 H1051 0.950 . S
C1027 C1026 1.349 . S
C1027 C1043 1.349 . S
C1028 C1026 1.327 . S
C1028 C1047 1.429 1_545 S
C1028 H1052 0.950 . S
C1029 C1046 1.574 . S
C1029 C1048 1.368 . S
C1029 H1053 0.949 . S
H1030 C1034 0.949 . S
C1031 C1032 1.349 . S
C1031 C1033 1.327 . S
C1031 H1054 0.950 . S
C1032 C1031 1.349 . S
C1032 C1044 1.349 . S
C1033 C1031 1.327 . S
C1033 C1049 1.429 . S
C1033 H1055 0.950 . S
C1034 H1030 0.949 . S
C1034 C1042 1.574 . S
C1034 C1050 1.368 . S
H1035 C1043 0.950 . S
H1036 C1041 0.931 1_565 S
H1037 C1042 0.949 . S
H1038 C1044 0.950 . S
H1039 C1045 0.950 . S
H1040 C1046 0.949 . S
C1041 H1036 0.931 1_545 S
C1041 C1043 1.349 . S
C1041 C1047 1.426 1_545 S
C1042 C1034 1.574 . S
C1042 H1037 0.949 . S
C1042 C1048 1.368 . S
C1043 C1027 1.349 . S
C1043 H1035 0.950 . S
C1043 C1041 1.349 . S
C1044 C1032 1.349 . S
C1044 H1038 0.950 . S
C1044 C1045 1.327 . S
C1045 H1039 0.950 . S
C1045 C1044 1.327 . S
C1045 C1049 1.429 . S
C1046 C1029 1.574 . S
C1046 H1040 0.949 . S
C1046 C1050 1.368 . S
C1047 C1028 1.429 1_565 S
C1047 C1041 1.426 1_565 S
C1047 C1048 1.523 . S
C1048 C1029 1.368 . S
C1048 C1042 1.368 . S
C1048 C1047 1.523 . S
C1049 C1033 1.429 . S
C1049 C1045 1.429 . S
C1049 C1050 1.523 . S
C1050 C1034 1.368 . S
C1050 C1046 1.368 . S
C1050 C1049 1.523 . S
H1051 C1026 0.950 . S
H1052 C1028 0.950 . S
H1053 C1029 0.949 . S
H1054 C1031 0.950 . S
H1055 C1033 0.950 . S
C1056 C1057 1.349 . S
C1056 C1058 1.327 . S
C1056 H1081 0.950 . S
C1057 C1056 1.349 . S
C1057 C1073 1.349 . S
C1058 C1056 1.327 . S
C1058 C1077 1.429 . S
C1058 H1082 0.950 . S
C1059 C1076 1.574 . S
C1059 C1078 1.368 . S
C1059 H1083 0.949 . S
H1060 C1064 0.949 . S
C1061 C1062 1.349 . S
C1061 C1063 1.327 . S
C1061 H1084 0.950 . S
C1062 C1061 1.349 . S
C1062 C1074 1.349 . S
C1063 C1061 1.327 . S
C1063 C1079 1.429 . S
C1063 H1085 0.950 . S
C1064 H1060 0.949 . S
C1064 C1072 1.574 . S
C1064 C1080 1.368 . S
H1065 C1073 0.950 1_556 S
H1066 C1071 0.950 . S
H1067 C1072 0.949 . S
H1068 C1074 0.950 . S
H1069 C1075 0.950 . S
H1070 C1076 0.949 . S
C1071 H1066 0.950 . S
C1071 C1073 1.327 . S
C1071 C1077 1.429 . S
C1072 C1064 1.574 . S
C1072 H1067 0.949 . S
C1072 C1078 1.368 . S
C1073 C1057 1.349 . S
C1073 H1065 0.950 1_554 S
C1073 C1071 1.327 . S
C1074 C1062 1.349 . S
C1074 H1068 0.950 . S
C1074 C1075 1.327 . S
C1075 H1069 0.950 . S
C1075 C1074 1.327 . S
C1075 C1079 1.429 . S
C1076 C1059 1.574 . S
C1076 H1070 0.949 . S
C1076 C1080 1.368 . S
C1077 C1058 1.429 . S
C1077 C1071 1.429 . S
C1077 C1078 1.523 . S
C1078 C1059 1.368 . S
C1078 C1072 1.368 . S
C1078 C1077 1.523 . S
C1079 C1063 1.429 . S
C1079 C1075 1.429 . S
C1079 C1080 1.523 . S
C1080 C1064 1.368 . S
C1080 C1076 1.368 . S
C1080 C1079 1.523 . S
H1081 C1056 0.950 . S
H1082 C1058 0.950 . S
H1083 C1059 0.949 . S
H1084 C1061 0.950 . S
H1085 C1063 0.950 . S
C1086 C1087 1.349 . S
C1086 C1088 1.327 . S
C1086 H1111 0.950 . S
C1087 C1086 1.349 . S
C1087 C1103 1.349 . S
C1088 C1086 1.327 . S
C1088 C1107 1.429 . S
C1088 H1112 0.950 . S
C1089 C1106 1.574 . S
C1089 C1108 1.368 . S
C1089 H1113 0.949 . S
H1090 C1094 0.949 . S
C1091 C1092 1.349 . S
C1091 C1093 1.327 . S
C1091 H1114 0.950 . S
C1092 C1091 1.349 . S
C1092 C1104 1.349 . S
C1093 C1091 1.327 . S
C1093 C1109 1.429 . S
C1093 H1115 0.950 . S
C1094 H1090 0.949 . S
C1094 C1102 1.574 . S
C1094 C1110 1.368 . S
H1095 C1103 0.950 . S
H1096 C1101 0.950 . S
H1097 C1102 0.949 . S
H1098 C1104 0.950 . S
H1099 C1105 0.950 . S
H1100 C1106 0.949 . S
C1101 H1096 0.950 . S
C1101 C1103 1.327 . S
C1101 C1107 1.429 . S
C1102 C1094 1.574 . S
C1102 H1097 0.949 . S
C1102 C1108 1.368 . S
C1103 C1087 1.349 . S
C1103 H1095 0.950 . S
C1103 C1101 1.327 . S
C1104 C1092 1.349 . S
C1104 H1098 0.950 . S
C1104 C1105 1.327 . S
C1105 H1099 0.950 . S
C1105 C1104 1.327 . S
C1105 C1109 1.429 . S
C1106 C1089 1.574 . S
C1106 H1100 0.949 . S
C1106 C1110 1.368 . S
C1107 C1088 1.429 . S
C1107 C1101 1.429 . S
C1107 C1108 1.523 . S
C1108 C1089 1.368 . S
C1108 C1102 1.368 . S
C1108 C1107 1.523 . S
C1109 C1093 1.429 . S
C1109 C1105 1.429 . S
C1109 C1110 1.523 . S
C1110 C1094 1.368 . S
C1110 C1106 1.368 . S
C1110 C1109 1.523 . S
H1111 C1086 0.950 . S
H1112 C1088 0.950 . S
H1113 C1089 0.949 . S
H1114 C1091 0.950 . S
H1115 C1093 0.950 . S
C1116 C1117 1.322 1_556 S
C1116 C1118 1.327 . S
C1116 H1141 0.950 . S
C1117 C1116 1.322 1_554 S
C1117 C1133 1.340 1_554 S
C1118 C1116 1.327 . S
C1118 C1137 1.429 . S
C1118 H1142 0.950 . S
C1119 C1136 1.574 . S
C1119 C1138 1.368 . S
C1119 H1143 0.949 . S
H1120 C1124 0.949 . S
C1121 C1122 1.349 . S
C1121 C1123 1.327 . S
C1121 H1144 0.950 . S
C1122 C1121 1.349 . S
C1122 C1134 1.349 . S
C1123 C1121 1.327 . S
C1123 C1139 1.429 . S
C1123 H1145 0.950 . S
C1124 H1120 0.949 . S
C1124 C1132 1.574 . S
C1124 C1140 1.368 . S
H1125 C1133 0.950 1_554 S
H1126 C1131 0.950 . S
H1127 C1132 0.949 . S
H1128 C1134 0.950 . S
H1129 C1135 0.950 . S
H1130 C1136 0.949 . S
C1131 H1126 0.950 . S
C1131 C1133 1.327 . S
C1131 C1137 1.429 . S
C1132 C1124 1.574 . S
C1132 H1127 0.949 . S
C1132 C1138 1.368 . S
C1133 C1117 1.340 1_556 S
C1133 H1125 0.950 1_556 S
C1133 C1131 1.327 . S
C1134 C1122 1.349 . S
C1134 H1128 0.950 . S
C1134 C1135 1.327 . S
C1135 H1129 0.950 . S
C1135 C1134 1.327 . S
C1135 C1139 1.429 . S
C1136 C1119 1.574 . S
C1136 H1130 0.949 . S
C1136 C1140 1.368 . S
C1137 C1118 1.429 . S
C1137 C1131 1.429 . S
C1137 C1138 1.523 . S
C1138 C1119 1.368 . S
C1138 C1132 1.368 . S
C1138 C1137 1.523 . S
C1139 C1123 1.429 . S
C1139 C1135 1.429 . S
C1139 C1140 1.523 . S
C1140 C1124 1.368 . S
C1140 C1136 1.368 . S
C1140 C1139 1.523 . S
H1141 C1116 0.950 . S
H1142 C1118 0.950 . S
H1143 C1119 0.949 . S
H1144 C1121 0.950 . S
H1145 C1123 0.950 . S
C1146 C1147 1.349 . S
C1146 C1148 1.327 . S
C1146 H1171 0.950 . S
C1147 C1146 1.349 . S
C1147 C1163 1.349 . S
C1148 C1146 1.327 . S
C1148 C1167 1.429 . S
C1148 H1172 0.950 . S
C1149 C1166 1.574 . S
C1149 C1168 1.368 . S
C1149 H1173 0.949 . S
H1150 C1154 0.949 . S
C1151 C1152 1.349 . S
C1151 C1153 1.327 . S
C1151 H1174 0.950 . S
C1152 C1151 1.349 . S
C1152 C1164 1.349 . S
C1153 C1151 1.327 . S
C1153 C1169 1.429 . S
C1153 H1175 0.950 . S
C1154 H1150 0.949 . S
C1154 C1162 1.574 . S
C1154 C1170 1.368 . S
H1155 C1163 0.950 . S
H1156 C1161 0.950 . S
H1157 C1162 0.949 . S
H1158 C1164 0.950 . S
H1159 C1165 0.950 . S
H1160 C1166 0.949 . S
C1161 H1156 0.950 . S
C1161 C1163 1.327 . S
C1161 C1167 1.429 . S
C1162 C1154 1.574 . S
C1162 H1157 0.949 . S
C1162 C1168 1.368 . S
C1163 C1147 1.349 . S
C1163 H1155 0.950 . S
C1163 C1161 1.327 . S
C1164 C1152 1.349 . S
C1164 H1158 0.950 . S
C1164 C1165 1.327 . S
C1165 H1159 0.950 . S
C1165 C1164 1.327 . S
C1165 C1169 1.429 . S
C1166 C1149 1.574 . S
C1166 H1160 0.949 . S
C1166 C1170 1.368 . S
C1167 C1148 1.429 . S
C1167 C1161 1.429 . S
C1167 C1168 1.523 . S
C1168 C1149 1.368 . S
C1168 C1162 1.368 . S
C1168 C1167 1.523 . S
C1169 C1153 1.429 . S
C1169 C1165 1.429 . S
C1169 C1170 1.523 . S
C1170 C1154 1.368 . S
C1170 C1166 1.368 . S
C1170 C1169 1.523 . S
H1171 C1146 0.950 . S
H1172 C1148 0.950 . S
H1173 C1149 0.949 . S
H1174 C1151 0.950 . S
H1175 C1153 0.950 . S
C1176 C1177 1.349 . S
C1176 C1178 1.327 . S
C1176 H1201 0.970 . S
C1177 C1176 1.349 . S
C1177 C1193 1.349 . S
C1178 C1176 1.327 . S
C1178 C1197 1.429 . S
C1178 H1202 0.950 . S
C1179 C1196 1.574 . S
C1179 C1198 1.368 . S
C1179 H1203 0.949 . S
H1180 C1184 0.949 . S
C1181 C1182 1.349 . S
C1181 C1183 1.327 . S
C1181 H1204 0.950 . S
C1182 C1181 1.349 . S
C1182 C1194 1.349 . S
C1183 C1181 1.327 . S
C1183 C1199 1.429 . S
C1183 H1205 0.950 . S
C1184 H1180 0.949 . S
C1184 C1192 1.574 . S
C1184 C1200 1.368 . S
H1185 C1193 0.950 . S
H1186 C1191 0.950 . S
H1187 C1192 0.949 . S
H1188 C1194 0.950 . S
H1189 C1195 0.950 . S
H1190 C1196 0.949 . S
C1191 H1186 0.950 . S
C1191 C1193 1.327 . S
C1191 C1197 1.429 . S
C1192 C1184 1.574 . S
C1192 H1187 0.949 . S
C1192 C1198 1.368 . S
C1193 C1177 1.349 . S
C1193 H1185 0.950 . S
C1193 C1191 1.327 . S
C1194 C1182 1.349 . S
C1194 H1188 0.950 . S
C1194 C1195 1.327 . S
C1195 H1189 0.950 . S
C1195 C1194 1.327 . S
C1195 C1199 1.429 . S
C1196 C1179 1.574 . S
C1196 H1190 0.949 . S
C1196 C1200 1.368 . S
C1197 C1178 1.429 . S
C1197 C1191 1.429 . S
C1197 C1198 1.523 . S
C1198 C1179 1.368 . S
C1198 C1192 1.368 . S
C1198 C1197 1.523 . S
C1199 C1183 1.429 . S
C1199 C1195 1.429 . S
C1199 C1200 1.523 . S
C1200 C1184 1.368 . S
C1200 C1196 1.368 . S
C1200 C1199 1.523 . S
H1201 C1176 0.970 . S
H1202 C1178 0.950 . S
H1203 C1179 0.949 . S
H1204 C1181 0.950 . S
H1205 C1183 0.950 . S
C1206 C1207 1.349 . S
C1206 C1208 1.327 . S
C1206 H1231 0.950 . S
C1207 C1206 1.349 . S
C1207 C1223 1.349 . S
C1208 C1206 1.327 . S
C1208 C1227 1.429 . S
C1208 H1232 0.950 . S
C1209 C1226 1.574 . S
C1209 C1228 1.368 . S
C1209 H1233 0.949 . S
H1210 C1214 0.949 . S
C1211 C1212 1.349 . S
C1211 C1213 1.327 . S
C1211 H1234 0.950 . S
C1212 C1211 1.349 . S
C1212 C1224 1.349 . S
C1213 C1211 1.327 . S
C1213 C1229 1.429 . S
C1213 H1235 0.950 . S
C1214 H1210 0.949 . S
C1214 C1222 1.574 . S
C1214 C1230 1.368 . S
H1215 C1223 0.950 . S
H1216 C1221 0.950 . S
H1217 C1222 0.949 . S
H1218 C1224 0.950 . S
H1219 C1225 0.950 . S
H1220 C1226 0.949 . S
C1221 H1216 0.950 . S
C1221 C1223 1.327 . S
C1221 C1227 1.429 . S
C1222 C1214 1.574 . S
C1222 H1217 0.949 . S
C1222 C1228 1.368 . S
C1223 C1207 1.349 . S
C1223 H1215 0.950 . S
C1223 C1221 1.327 . S
C1224 C1212 1.349 . S
C1224 H1218 0.950 . S
C1224 C1225 1.327 . S
C1225 H1219 0.950 . S
C1225 C1224 1.327 . S
C1225 C1229 1.429 . S
C1226 C1209 1.574 . S
C1226 H1220 0.949 . S
C1226 C1230 1.368 . S
C1227 C1208 1.429 . S
C1227 C1221 1.429 . S
C1227 C1228 1.523 . S
C1228 C1209 1.368 . S
C1228 C1222 1.368 . S
C1228 C1227 1.523 . S
C1229 C1213 1.429 . S
C1229 C1225 1.429 . S
C1229 C1230 1.523 . S
C1230 C1214 1.368 . S
C1230 C1226 1.368 . S
C1230 C1229 1.523 . S
H1231 C1206 0.950 . S
H1232 C1208 0.950 . S
H1233 C1209 0.949 . S
H1234 C1211 0.950 . S
H1235 C1213 0.950 . S
C1236 C1237 1.331 1_554 S
C1236 C1238 1.327 . S
C1236 H1261 0.950 1_554 S
C1237 C1236 1.331 1_556 S
C1237 C1253 1.317 1_556 S
C1238 C1236 1.327 . S
C1238 C1257 1.429 . S
C1238 H1262 0.950 . S
C1239 C1256 1.574 . S
C1239 C1258 1.368 . S
C1239 H1263 0.949 . S
H1240 C1244 0.949 . S
C1241 C1242 1.349 . S
C1241 C1243 1.327 . S
C1241 H1264 0.950 . S
C1242 C1241 1.349 . S
C1242 C1254 1.349 . S
C1243 C1241 1.327 . S
C1243 C1259 1.429 . S
C1243 H1265 0.950 . S
C1244 H1240 0.949 . S
C1244 C1252 1.574 . S
C1244 C1260 1.368 . S
H1245 C1253 0.950 . S
H1246 C1251 0.950 . S
H1247 C1252 0.949 . S
H1248 C1254 0.950 . S
H1249 C1255 0.950 . S
H1250 C1256 0.949 . S
C1251 H1246 0.950 . S
C1251 C1253 1.327 . S
C1251 C1257 1.429 . S
C1252 C1244 1.574 . S
C1252 H1247 0.949 . S
C1252 C1258 1.368 . S
C1253 C1237 1.317 1_554 S
C1253 H1245 0.950 . S
C1253 C1251 1.327 . S
C1254 C1242 1.349 . S
C1254 H1248 0.950 . S
C1254 C1255 1.327 . S
C1255 H1249 0.950 . S
C1255 C1254 1.327 . S
C1255 C1259 1.429 . S
C1256 C1239 1.574 . S
C1256 H1250 0.949 . S
C1256 C1260 1.368 . S
C1257 C1238 1.429 . S
C1257 C1251 1.429 . S
C1257 C1258 1.523 . S
C1258 C1239 1.368 . S
C1258 C1252 1.368 . S
C1258 C1257 1.523 . S
C1259 C1243 1.429 . S
C1259 C1255 1.429 . S
C1259 C1260 1.523 . S
C1260 C1244 1.368 . S
C1260 C1256 1.368 . S
C1260 C1259 1.523 . S
H1261 C1236 0.950 1_556 S
H1262 C1238 0.950 . S
H1263 C1239 0.949 . S
H1264 C1241 0.950 . S
H1265 C1243 0.950 . S
C1266 C1267 1.349 . S
C1266 C1268 1.327 . S
C1266 H1291 0.950 . S
C1267 C1266 1.349 . S
C1267 C1283 1.349 . S
C1268 C1266 1.327 . S
C1268 C1287 1.429 . S
C1268 H1292 0.950 . S
C1269 C1286 1.574 . S
C1269 C1288 1.368 . S
C1269 H1293 0.949 . S
H1270 C1274 0.949 . S
C1271 C1272 1.349 . S
C1271 C1273 1.327 . S
C1271 H1294 0.950 . S
C1272 C1271 1.349 . S
C1272 C1284 1.349 . S
C1273 C1271 1.327 . S
C1273 C1289 1.429 . S
C1273 H1295 0.950 . S
C1274 H1270 0.949 . S
C1274 C1282 1.574 . S
C1274 C1290 1.368 . S
H1275 C1283 0.950 . S
H1276 C1281 0.950 . S
H1277 C1282 0.949 . S
H1278 C1284 0.950 . S
H1279 C1285 0.950 . S
H1280 C1286 0.949 . S
C1281 H1276 0.950 . S
C1281 C1283 1.327 . S
C1281 C1287 1.429 . S
C1282 C1274 1.574 . S
C1282 H1277 0.949 . S
C1282 C1288 1.368 . S
C1283 C1267 1.349 . S
C1283 H1275 0.950 . S
C1283 C1281 1.327 . S
C1284 C1272 1.349 . S
C1284 H1278 0.950 . S
C1284 C1285 1.327 . S
C1285 H1279 0.950 . S
C1285 C1284 1.327 . S
C1285 C1289 1.429 . S
C1286 C1269 1.574 . S
C1286 H1280 0.949 . S
C1286 C1290 1.368 . S
C1287 C1268 1.429 . S
C1287 C1281 1.429 . S
C1287 C1288 1.523 . S
C1288 C1269 1.368 . S
C1288 C1282 1.368 . S
C1288 C1287 1.523 . S
C1289 C1273 1.429 . S
C1289 C1285 1.429 . S
C1289 C1290 1.523 . S
C1290 C1274 1.368 . S
C1290 C1286 1.368 . S
C1290 C1289 1.523 . S
H1291 C1266 0.950 . S
H1292 C1268 0.950 . S
H1293 C1269 0.949 . S
H1294 C1271 0.950 . S
H1295 C1273 0.950 . S
C1296 C1297 1.349 . S
C1296 C1298 1.327 . S
C1296 H1321 0.950 . S
C1297 C1296 1.349 . S
C1297 C1313 1.349 . S
C1298 C1296 1.327 . S
C1298 C1317 1.429 . S
C1298 H1322 0.950 . S
C1299 C1316 1.574 . S
C1299 C1318 1.368 . S
C1299 H1323 0.949 . S
H1300 C1304 0.949 . S
C1301 C1302 1.349 . S
C1301 C1303 1.327 . S
C1301 H1324 0.950 . S
C1302 C1301 1.349 . S
C1302 C1314 1.349 . S
C1303 C1301 1.327 . S
C1303 C1319 1.429 . S
C1303 H1325 0.950 . S
C1304 H1300 0.949 . S
C1304 C1312 1.574 . S
C1304 C1320 1.368 . S
H1305 C1313 0.950 . S
H1306 C1311 0.950 . S
H1307 C1312 0.949 . S
H1308 C1314 0.950 . S
H1309 C1315 0.950 . S
H1310 C1316 0.949 . S
C1311 H1306 0.950 . S
C1311 C1313 1.327 . S
C1311 C1317 1.429 . S
C1312 C1304 1.574 . S
C1312 H1307 0.949 . S
C1312 C1318 1.368 . S
C1313 C1297 1.349 . S
C1313 H1305 0.950 . S
C1313 C1311 1.327 . S
C1314 C1302 1.349 . S
C1314 H1308 0.950 . S
C1314 C1315 1.327 . S
C1315 H1309 0.950 . S
C1315 C1314 1.327 . S
C1315 C1319 1.429 . S
C1316 C1299 1.574 . S
C1316 H1310 0.949 . S
C1316 C1320 1.368 . S
C1317 C1298 1.429 . S
C1317 C1311 1.429 . S
C1317 C1318 1.523 . S
C1318 C1299 1.368 . S
C1318 C1312 1.368 . S
C1318 C1317 1.523 . S
C1319 C1303 1.429 . S
C1319 C1315 1.429 . S
C1319 C1320 1.523 . S
C1320 C1304 1.368 . S
C1320 C1316 1.368 . S
C1320 C1319 1.523 . S
H1321 C1296 0.950 . S
H1322 C1298 0.950 . S
H1323 C1299 0.949 . S
H1324 C1301 0.950 . S
H1325 C1303 0.950 . S
C1326 C1327 1.349 . S
C1326 C1328 1.327 . S
C1326 H1351 0.950 . S
C1327 C1326 1.349 . S
C1327 C1343 1.349 . S
C1328 C1326 1.327 . S
C1328 C1347 1.429 . S
C1328 H1352 0.950 . S
C1329 C1346 1.574 . S
C1329 C1348 1.368 . S
C1329 H1353 0.949 . S
H1330 C1334 0.949 . S
C1331 C1332 1.349 . S
C1331 C1333 1.327 . S
C1331 H1354 0.950 . S
C1332 C1331 1.349 . S
C1332 C1344 1.349 . S
C1333 C1331 1.327 . S
C1333 C1349 1.429 . S
C1333 H1355 0.950 . S
C1334 H1330 0.949 . S
C1334 C1342 1.574 . S
C1334 C1350 1.368 . S
H1335 C1343 0.950 . S
H1336 C1341 0.950 . S
H1337 C1342 0.949 . S
H1338 C1344 0.950 . S
H1339 C1345 0.950 . S
H1340 C1346 0.949 . S
C1341 H1336 0.950 . S
C1341 C1343 1.327 . S
C1341 C1347 1.429 . S
C1342 C1334 1.574 . S
C1342 H1337 0.949 . S
C1342 C1348 1.368 . S
C1343 C1327 1.349 . S
C1343 H1335 0.950 . S
C1343 C1341 1.327 . S
C1344 C1332 1.349 . S
C1344 H1338 0.950 . S
C1344 C1345 1.327 . S
C1345 H1339 0.950 . S
C1345 C1344 1.327 . S
C1345 C1349 1.429 . S
C1346 C1329 1.574 . S
C1346 H1340 0.949 . S
C1346 C1350 1.368 . S
C1347 C1328 1.429 . S
C1347 C1341 1.429 . S
C1347 C1348 1.523 . S
C1348 C1329 1.368 . S
C1348 C1342 1.368 . S
C1348 C1347 1.523 . S
C1349 C1333 1.429 . S
C1349 C1345 1.429 . S
C1349 C1350 1.523 . S
C1350 C1334 1.368 . S
C1350 C1346 1.368 . S
C1350 C1349 1.523 . S
H1351 C1326 0.950 . S
H1352 C1328 0.950 . S
H1353 C1329 0.949 . S
H1354 C1331 0.950 . S
H1355 C1333 0.950 . S
C1356 C1357 1.349 . S
C1356 C1358 1.327 . S
C1356 H1381 0.950 . S
C1357 C1356 1.349 . S
C1357 C1373 1.349 . S
C1358 C1356 1.327 . S
C1358 C1377 1.429 . S
C1358 H1382 0.950 . S
C1359 C1376 1.574 . S
C1359 C1378 1.368 . S
C1359 H1383 0.949 . S
H1360 C1364 0.949 . S
C1361 C1362 1.349 . S
C1361 C1363 1.327 . S
C1361 H1384 0.950 . S
C1362 C1361 1.349 . S
C1362 C1374 1.349 . S
C1363 C1361 1.327 . S
C1363 C1379 1.429 . S
C1363 H1385 0.950 . S
C1364 H1360 0.949 . S
C1364 C1372 1.574 . S
C1364 C1380 1.368 . S
H1365 C1373 0.950 . S
H1366 C1371 0.950 . S
H1367 C1372 0.949 . S
H1368 C1374 0.950 . S
H1369 C1375 0.950 . S
H1370 C1376 0.949 . S
C1371 H1366 0.950 . S
C1371 C1373 1.327 . S
C1371 C1377 1.429 . S
C1372 C1364 1.574 . S
C1372 H1367 0.949 . S
C1372 C1378 1.368 . S
C1373 C1357 1.349 . S
C1373 H1365 0.950 . S
C1373 C1371 1.327 . S
C1374 C1362 1.349 . S
C1374 H1368 0.950 . S
C1374 C1375 1.327 . S
C1375 H1369 0.950 . S
C1375 C1374 1.327 . S
C1375 C1379 1.429 . S
C1376 C1359 1.574 . S
C1376 H1370 0.949 . S
C1376 C1380 1.368 . S
C1377 C1358 1.429 . S
C1377 C1371 1.429 . S
C1377 C1378 1.523 . S
C1378 C1359 1.368 . S
C1378 C1372 1.368 . S
C1378 C1377 1.523 . S
C1379 C1363 1.429 . S
C1379 C1375 1.429 . S
C1379 C1380 1.523 . S
C1380 C1364 1.368 . S
C1380 C1376 1.368 . S
C1380 C1379 1.523 . S
H1381 C1356 0.950 . S
H1382 C1358 0.950 . S
H1383 C1359 0.949 . S
H1384 C1361 0.950 . S
H1385 C1363 0.950 . S
C1386 C1387 1.349 . S
C1386 C1388 1.327 . S
C1386 H1411 0.950 . S
C1387 C1386 1.349 . S
C1387 C1403 1.349 . S
C1388 C1386 1.327 . S
C1388 C1407 1.429 . S
C1388 H1412 0.950 . S
C1389 C1406 1.574 . S
C1389 C1408 1.368 . S
C1389 H1413 0.949 . S
H1390 C1394 0.949 . S
C1391 C1392 1.349 . S
C1391 C1393 1.327 . S
C1391 H1414 0.950 . S
C1392 C1391 1.349 . S
C1392 C1404 1.349 . S
C1393 C1391 1.327 . S
C1393 C1409 1.429 . S
C1393 H1415 0.950 . S
C1394 H1390 0.949 . S
C1394 C1402 1.574 . S
C1394 C1410 1.368 . S
H1395 C1403 0.950 . S
H1396 C1401 0.950 . S
H1397 C1402 0.949 . S
H1398 C1404 0.950 . S
H1399 C1405 0.950 . S
H1400 C1406 0.949 . S
C1401 H1396 0.950 . S
C1401 C1403 1.327 . S
C1401 C1407 1.429 . S
C1402 C1394 1.574 . S
C1402 H1397 0.949 . S
C1402 C1408 1.368 . S
C1403 C1387 1.349 . S
C1403 H1395 0.950 . S
C1403 C1401 1.327 . S
C1404 C1392 1.349 . S
C1404 H1398 0.950 . S
C1404 C1405 1.327 . S
C1405 H1399 0.950 . S
C1405 C1404 1.327 . S
C1405 C1409 1.429 . S
C1406 C1389 1.574 . S
C1406 H1400 0.949 . S
C1406 C1410 1.368 . S
C1407 C1388 1.429 . S
C1407 C1401 1.429 . S
C1407 C1408 1.523 . S
C1408 C1389 1.368 . S
C1408 C1402 1.368 . S
C1408 C1407 1.523 . S
C1409 C1393 1.429 . S
C1409 C1405 1.429 . S
C1409 C1410 1.523 . S
C1410 C1394 1.368 . S
C1410 C1406 1.368 . S
C1410 C1409 1.523 . S
H1411 C1386 0.950 . S
H1412 C1388 0.950 . S
H1413 C1389 0.949 . S
H1414 C1391 0.950 . S
H1415 C1393 0.950 . S
C1416 C1417 1.349 . S
C1416 C1418 1.327 . S
C1416 H1441 0.950 . S
C1417 C1416 1.349 . S
C1417 C1433 1.349 . S
C1418 C1416 1.327 . S
C1418 C1437 1.429 . S
C1418 H1442 0.950 . S
C1419 C1436 1.574 . S
C1419 C1438 1.368 . S
C1419 H1443 0.949 . S
H1420 C1424 0.949 . S
C1421 C1422 1.349 . S
C1421 C1423 1.327 . S
C1421 H1444 0.950 . S
C1422 C1421 1.349 . S
C1422 C1434 1.349 . S
C1423 C1421 1.327 . S
C1423 C1439 1.429 . S
C1423 H1445 0.950 . S
C1424 H1420 0.949 . S
C1424 C1432 1.574 . S
C1424 C1440 1.368 . S
H1425 C1433 0.950 . S
H1426 C1431 0.950 . S
H1427 C1432 0.949 . S
H1428 C1434 0.950 . S
H1429 C1435 0.950 . S
H1430 C1436 0.949 . S
C1431 H1426 0.950 . S
C1431 C1433 1.327 . S
C1431 C1437 1.429 . S
C1432 C1424 1.574 . S
C1432 H1427 0.949 . S
C1432 C1438 1.368 . S
C1433 C1417 1.349 . S
C1433 H1425 0.950 . S
C1433 C1431 1.327 . S
C1434 C1422 1.349 . S
C1434 H1428 0.950 . S
C1434 C1435 1.327 . S
C1435 H1429 0.950 . S
C1435 C1434 1.327 . S
C1435 C1439 1.429 . S
C1436 C1419 1.574 . S
C1436 H1430 0.949 . S
C1436 C1440 1.368 . S
C1437 C1418 1.429 . S
C1437 C1431 1.429 . S
C1437 C1438 1.523 . S
C1438 C1419 1.368 . S
C1438 C1432 1.368 . S
C1438 C1437 1.523 . S
C1439 C1423 1.429 . S
C1439 C1435 1.429 . S
C1439 C1440 1.523 . S
C1440 C1424 1.368 . S
C1440 C1436 1.368 . S
C1440 C1439 1.523 . S
H1441 C1416 0.950 . S
H1442 C1418 0.950 . S
H1443 C1419 0.949 . S
H1444 C1421 0.950 . S
H1445 C1423 0.950 . S
C1446 C1447 1.349 . S
C1446 C1448 1.327 . S
C1446 H1471 0.950 . S
C1447 C1446 1.349 . S
C1447 C1463 1.349 . S
C1448 C1446 1.327 . S
C1448 C1467 1.429 . S
C1448 H1472 0.950 . S
C1449 C1466 1.574 . S
C1449 C1468 1.368 . S
C1449 H1473 0.949 . S
H1450 C1454 0.949 . S
C1451 C1452 1.349 . S
C1451 C1453 1.327 . S
C1451 H1474 0.950 . S
C1452 C1451 1.349 . S
C1452 C1464 1.349 . S
C1453 C1451 1.327 . S
C1453 C1469 1.429 . S
C1453 H1475 0.950 . S
C1454 H1450 0.949 . S
C1454 C1462 1.574 . S
C1454 C1470 1.368 . S
H1455 C1463 0.950 . S
H1456 C1461 0.950 . S
H1457 C1462 0.949 . S
H1458 C1464 0.950 . S
H1459 C1465 0.950 . S
H1460 C1466 0.949 . S
C1461 H1456 0.950 . S
C1461 C1463 1.327 . S
C1461 C1467 1.429 . S
C1462 C1454 1.574 . S
C1462 H1457 0.949 . S
C1462 C1468 1.368 . S
C1463 C1447 1.349 . S
C1463 H1455 0.950 . S
C1463 C1461 1.327 . S
C1464 C1452 1.349 . S
C1464 H1458 0.950 . S
C1464 C1465 1.327 . S
C1465 H1459 0.950 . S
C1465 C1464 1.327 . S
C1465 C1469 1.429 . S
C1466 C1449 1.574 . S
C1466 H1460 0.949 . S
C1466 C1470 1.368 . S
C1467 C1448 1.429 . S
C1467 C1461 1.429 . S
C1467 C1468 1.523 . S
C1468 C1449 1.368 . S
C1468 C1462 1.368 . S
C1468 C1467 1.523 . S
C1469 C1453 1.429 . S
C1469 C1465 1.429 . S
C1469 C1470 1.523 . S
C1470 C1454 1.368 . S
C1470 C1466 1.368 . S
C1470 C1469 1.523 . S
H1471 C1446 0.950 . S
H1472 C1448 0.950 . S
H1473 C1449 0.949 . S
H1474 C1451 0.950 . S
H1475 C1453 0.950 . S
C1476 C1477 1.349 . S
C1476 C1478 1.327 . S
C1476 H1501 0.950 . S
C1477 C1476 1.349 . S
C1477 C1493 1.349 . S
C1478 C1476 1.327 . S
C1478 C1497 1.429 . S
C1478 H1502 0.950 . S
C1479 C1496 1.574 . S
C1479 C1498 1.368 . S
C1479 H1503 0.949 . S
H1480 C1484 0.949 . S
C1481 C1482 1.349 . S
C1481 C1483 1.327 . S
C1481 H1504 0.950 . S
C1482 C1481 1.349 . S
C1482 C1494 1.349 . S
C1483 C1481 1.327 . S
C1483 C1499 1.429 . S
C1483 H1505 0.950 . S
C1484 H1480 0.949 . S
C1484 C1492 1.574 . S
C1484 C1500 1.368 . S
H1485 C1493 0.950 . S
H1486 C1491 0.950 . S
H1487 C1492 0.949 . S
H1488 C1494 0.950 . S
H1489 C1495 0.950 . S
H1490 C1496 0.949 . S
C1491 H1486 0.950 . S
C1491 C1493 1.327 . S
C1491 C1497 1.429 . S
C1492 C1484 1.574 . S
C1492 H1487 0.949 . S
C1492 C1498 1.368 . S
C1493 C1477 1.349 . S
C1493 H1485 0.950 . S
C1493 C1491 1.327 . S
C1494 C1482 1.349 . S
C1494 H1488 0.950 . S
C1494 C1495 1.327 . S
C1495 H1489 0.950 . S
C1495 C1494 1.327 . S
C1495 C1499 1.429 . S
C1496 C1479 1.574 . S
C1496 H1490 0.949 . S
C1496 C1500 1.368 . S
C1497 C1478 1.429 . S
C1497 C1491 1.429 . S
C1497 C1498 1.523 . S
C1498 C1479 1.368 . S
C1498 C1492 1.368 . S
C1498 C1497 1.523 . S
C1499 C1483 1.429 . S
C1499 C1495 1.429 . S
C1499 C1500 1.523 . S
C1500 C1484 1.368 . S
C1500 C1496 1.368 . S
C1500 C1499 1.523 . S
H1501 C1476 0.950 . S
H1502 C1478 0.950 . S
H1503 C1479 0.949 . S
H1504 C1481 0.950 . S
H1505 C1483 0.950 . S
C1506 C1507 1.349 . S
C1506 C1508 1.327 . S
C1506 H1531 0.950 . S
C1507 C1506 1.349 . S
C1507 C1523 1.349 . S
C1508 C1506 1.327 . S
C1508 C1527 1.429 . S
C1508 H1532 0.950 . S
C1509 C1526 1.574 . S
C1509 C1528 1.368 . S
C1509 H1533 0.949 . S
H1510 C1514 0.949 . S
C1511 C1512 1.349 . S
C1511 C1513 1.327 . S
C1511 H1534 0.950 . S
C1512 C1511 1.349 . S
C1512 C1524 1.349 . S
C1513 C1511 1.327 . S
C1513 C1529 1.429 . S
C1513 H1535 0.950 . S
C1514 H1510 0.949 . S
C1514 C1522 1.574 . S
C1514 C1530 1.368 . S
H1515 C1523 0.950 . S
H1516 C1521 0.950 . S
H1517 C1522 0.949 . S
H1518 C1524 0.950 . S
H1519 C1525 0.950 . S
H1520 C1526 0.949 . S
C1521 H1516 0.950 . S
C1521 C1523 1.327 . S
C1521 C1527 1.429 . S
C1522 C1514 1.574 . S
C1522 H1517 0.949 . S
C1522 C1528 1.368 . S
C1523 C1507 1.349 . S
C1523 H1515 0.950 . S
C1523 C1521 1.327 . S
C1524 C1512 1.349 . S
C1524 H1518 0.950 . S
C1524 C1525 1.327 . S
C1525 H1519 0.950 . S
C1525 C1524 1.327 . S
C1525 C1529 1.429 . S
C1526 C1509 1.574 . S
C1526 H1520 0.949 . S
C1526 C1530 1.368 . S
C1527 C1508 1.429 . S
C1527 C1521 1.429 . S
C1527 C1528 1.523 . S
C1528 C1509 1.368 . S
C1528 C1522 1.368 . S
C1528 C1527 1.523 . S
C1529 C1513 1.429 . S
C1529 C1525 1.429 . S
C1529 C1530 1.523 . S
C1530 C1514 1.368 . S
C1530 C1526 1.368 . S
C1530 C1529 1.523 . S
H1531 C1506 0.950 . S
H1532 C1508 0.950 . S
H1533 C1509 0.949 . S
H1534 C1511 0.950 . S
H1535 C1513 0.950 . S
C817 C361 1.437 . S
C822 C554 1.447 . S
C852 C638 1.447 . S
C847 C451 1.445 . S
C882 C631 1.454 . S
C877 C241 1.427 . S
C907 C331 1.435 . S
C912 C547 1.454 . S
C942 C711 1.447 . S
C937 C140 1.428 . S
C972 C795 1.447 . S
C967 C211 1.428 . S
C997 C20 1.416 . S
C1002 C788 1.454 . S
C1027 C91 1.416 . S
C1032 C704 1.454 . S
C1062 C538 1.347 . S
C1057 C80 1.478 1_554 S
C1092 C622 1.347 . S
C1087 C1 1.478 . S
C1122 C633 1.407 . S
C1117 C200 1.538 . S
C1152 C549 1.407 . S
C1147 C121 1.500 . S
C1182 C717 1.347 . S
C1177 C320 1.498 1_556 S
C1207 C260 1.491 . S
C1212 C801 1.347 . S
C1242 C790 1.407 . S
C1237 C440 1.570 . S
C1267 C380 1.513 . S
C1272 C706 1.407 . S
C1302 C536 1.590 . S
C1297 C31 1.569 . S
C1332 C620 1.590 . S
C1327 C61 1.569 . S
C1357 C151 1.560 . S
C1362 C627 1.568 . S
C1392 C543 1.568 . S
C1387 C181 1.561 . S
C1422 C715 1.591 . S
C1417 C271 1.533 . S
C1447 C301 1.590 . S
C1452 C799 1.590 . S
C1477 C391 1.526 . S
C1482 C806 1.568 . S
C1507 C421 1.580 . S
C1512 C722 1.568 . S
