# Generated by pormake.
# Topology llj, (12,3)-cn, num edge types: 1
# Building blocks:
#     Node 0, Type 0, BuildingBlock: QEWDON_clean_sbu_0, # of connection points: 12
#     Node 1, Type 0, BuildingBlock: QEWDON_clean_sbu_0, # of connection points: 12
#     Node 2, Type 1, BuildingBlock: VETTIZ_charged_linker_0, # of connection points: 3
#     Node 3, Type 1, BuildingBlock: VETTIZ_charged_linker_0, # of connection points: 3
#     Node 4, Type 1, BuildingBlock: VETTIZ_charged_linker_0, # of connection points: 3
#     Node 5, Type 1, BuildingBlock: VETTIZ_charged_linker_0, # of connection points: 3
#     Node 6, Type 1, BuildingBlock: VETTIZ_charged_linker_0, # of connection points: 3
#     Node 7, Type 1, BuildingBlock: VETTIZ_charged_linker_0, # of connection points: 3
#     Node 8, Type 1, BuildingBlock: VETTIZ_charged_linker_0, # of connection points: 3
#     Node 9, Type 1, BuildingBlock: VETTIZ_charged_linker_0, # of connection points: 3
#     Edge 10, Type (0, 1), BuildingBlock: XIVTED_clean_linker_0, # of connection points: 2
#     Edge 11, Type (0, 1), BuildingBlock: XIVTED_clean_linker_0, # of connection points: 2
#     Edge 12, Type (0, 1), BuildingBlock: XIVTED_clean_linker_0, # of connection points: 2
#     Edge 13, Type (0, 1), BuildingBlock: XIVTED_clean_linker_0, # of connection points: 2
#     Edge 14, Type (0, 1), BuildingBlock: XIVTED_clean_linker_0, # of connection points: 2
#     Edge 15, Type (0, 1), BuildingBlock: XIVTED_clean_linker_0, # of connection points: 2
#     Edge 16, Type (0, 1), BuildingBlock: XIVTED_clean_linker_0, # of connection points: 2
#     Edge 17, Type (0, 1), BuildingBlock: XIVTED_clean_linker_0, # of connection points: 2
#     Edge 18, Type (0, 1), BuildingBlock: XIVTED_clean_linker_0, # of connection points: 2
#     Edge 19, Type (0, 1), BuildingBlock: XIVTED_clean_linker_0, # of connection points: 2
#     Edge 20, Type (0, 1), BuildingBlock: XIVTED_clean_linker_0, # of connection points: 2
#     Edge 21, Type (0, 1), BuildingBlock: XIVTED_clean_linker_0, # of connection points: 2
#     Edge 22, Type (0, 1), BuildingBlock: XIVTED_clean_linker_0, # of connection points: 2
#     Edge 23, Type (0, 1), BuildingBlock: XIVTED_clean_linker_0, # of connection points: 2
#     Edge 24, Type (0, 1), BuildingBlock: XIVTED_clean_linker_0, # of connection points: 2
#     Edge 25, Type (0, 1), BuildingBlock: XIVTED_clean_linker_0, # of connection points: 2
#     Edge 26, Type (0, 1), BuildingBlock: XIVTED_clean_linker_0, # of connection points: 2
#     Edge 27, Type (0, 1), BuildingBlock: XIVTED_clean_linker_0, # of connection points: 2
#     Edge 28, Type (0, 1), BuildingBlock: XIVTED_clean_linker_0, # of connection points: 2
#     Edge 29, Type (0, 1), BuildingBlock: XIVTED_clean_linker_0, # of connection points: 2
#     Edge 30, Type (0, 1), BuildingBlock: XIVTED_clean_linker_0, # of connection points: 2
#     Edge 31, Type (0, 1), BuildingBlock: XIVTED_clean_linker_0, # of connection points: 2
#     Edge 32, Type (0, 1), BuildingBlock: XIVTED_clean_linker_0, # of connection points: 2
#     Edge 33, Type (0, 1), BuildingBlock: XIVTED_clean_linker_0, # of connection points: 2
# Relax obj value: 0.012
# Max RMSD: 0.057
# Mean RMSD: 0.053
data_MOF--net-llj--node1-QEWDON_clean_sbu_0--node2-VETTIZ_charged_linker_0--edge1-XIVTED_clean_linker_0
_symmetry_space_group_name_H-M    P1
_symmetry_Int_Tables_number       1
_symmetry_cell_setting            triclinic
loop_
_symmetry_equiv_pos_as_xyz
'x, y, z'
_cell_length_a     45.028322
_cell_length_b     45.028325
_cell_length_c     31.545654
_cell_angle_alpha  90.018544
_cell_angle_beta   90.087126
_cell_angle_gamma 89.940362
loop_
_atom_site_label
_atom_site_type_symbol
_atom_site_fract_x
_atom_site_fract_y
_atom_site_fract_z
_atom_type_partial_charge
Zn0 Zn 0.93588 0.05509 0.96727 0.0
Zn1 Zn 0.94443 0.06418 0.06591 0.0
O2 O 0.9674 0.05992 0.01236 0.0
H3 H 0.98807 0.05498 0.0088 0.0
C4 C 0.91992 0.98825 0.92293 0.0
O5 O 0.90939 0.99716 0.95962 0.0
Zn6 Zn 0.05471 0.94627 0.06971 0.0
Zn7 Zn 0.0518 0.9299 0.97117 0.0
O8 O 0.02694 0.94357 0.02054 0.0
H9 H 0.00888 0.95495 0.01732 0.0
Zn10 Zn 0.94975 0.94961 0.98025 0.0
O11 O 0.9545 0.98021 0.02685 0.0
Zn12 Zn 0.95044 0.95654 0.07974 0.0
H13 H 0.96641 0.99789 0.02374 0.0
Zn14 Zn 0.05358 0.05068 0.96608 0.0
O15 O 0.04148 0.02717 0.01769 0.0
H16 H 0.02744 0.01096 0.01682 0.0
Zn17 Zn 0.04829 0.05403 0.06721 0.0
C18 C 0.08216 0.0013 0.92223 0.0
O19 O 0.0804 0.9892 0.96003 0.0
O20 O 0.89646 0.07517 0.98397 0.0
O21 O 0.90426 0.08301 0.05275 0.0
O22 O 0.0922 0.91345 0.98952 0.0
O23 O 0.09328 0.92365 0.05849 0.0
O24 O 0.92638 0.9127 -0.00114 0.0
O25 O 0.92503 0.91955 0.06862 0.0
C26 C 0.9958 0.08792 0.10691 0.0
O27 O 0.07579 0.08902 0.98074 0.0
O28 O 0.07528 0.08881 0.05124 0.0
O29 O 0.02992 0.90728 0.92353 0.0
C30 C 0.88806 0.08545 0.01965 0.0
O31 O 0.95106 0.06175 0.90634 0.0
C32 C 0.00667 0.93267 0.12542 0.0
O33 O 0.93854 0.96706 0.92213 0.0
C34 C 0.10513 0.91241 0.02541 0.0
O35 O 0.07171 0.02719 0.91641 0.0
C36 C 0.92776 0.00993 0.12094 0.0
O37 O 0.96773 0.09057 0.10609 0.0
O38 O 0.00746 0.0687 0.08253 0.0
C39 C 0.91789 0.90472 0.0356 0.0
O40 O 0.03462 0.92977 0.12171 0.0
O41 O 0.99264 0.94545 0.09551 0.0
C42 C 0.06776 0.00233 0.11337 0.0
O43 O 0.93014 0.98188 0.1243 0.0
O44 O 0.94012 0.02254 0.08946 0.0
C45 C 0.08337 0.10034 0.01613 0.0
O46 O 0.06525 0.03033 0.11638 0.0
O47 O 0.06121 0.98981 0.0786 0.0
C48 C 0.00392 0.8976 0.93066 0.0
O49 O 0.99169 0.90249 0.96779 0.0
C50 C 0.97402 0.04806 0.89352 0.0
O51 O 0.98723 0.0291 0.91902 0.0
Zn52 Zn 0.45001 0.53723 0.47337 0.0
Zn53 Zn 0.45038 0.5395 0.5741 0.0
O54 O 0.47637 0.5315 0.5243 0.0
H55 H 0.49543 0.5217 0.52432 0.0
C56 C 0.43113 0.46089 0.39988 0.0
O57 O 0.45144 0.47548 0.42138 0.0
Zn58 Zn 0.54588 0.46421 0.57972 0.0
Zn59 Zn 0.5514 0.45248 0.48061 0.0
O60 O 0.52216 0.46377 0.52644 0.0
H61 H 0.50175 0.46962 0.52218 0.0
Zn62 Zn 0.43634 0.42427 0.47385 0.0
O63 O 0.43454 0.45754 0.51691 0.0
Zn64 Zn 0.439 0.43677 0.57206 0.0
H65 H 0.43788 0.47835 0.51118 0.0
Zn66 Zn 0.54758 0.56583 0.45831 0.0
O67 O 0.55639 0.53848 0.50738 0.0
H68 H 0.56666 0.51967 0.50568 0.0
Zn69 Zn 0.55346 0.56576 0.55665 0.0
C70 C 0.54895 0.52208 0.39152 0.0
O71 O 0.53173 0.50821 0.41865 0.0
O72 O 0.41382 0.56307 0.48679 0.0
O73 O 0.41594 0.56697 0.55705 0.0
O74 O 0.58939 0.43337 0.50424 0.0
O75 O 0.58213 0.43705 0.57381 0.0
O76 O 0.42115 0.38474 0.49833 0.0
O77 O 0.42308 0.39435 0.56745 0.0
C78 C 0.50163 0.56609 0.613 0.0
O79 O 0.56159 0.6085 0.46979 0.0
O80 O 0.56684 0.60725 0.53989 0.0
O81 O 0.53298 0.4306 0.42963 0.0
C82 C 0.40395 0.57356 0.52151 0.0
O83 O 0.47182 0.54841 0.41854 0.0
C84 C 0.49329 0.4425 0.62403 0.0
O85 O 0.42138 0.43655 0.41461 0.0
C86 C 0.59729 0.42785 0.54222 0.0
O87 O 0.55842 0.54785 0.40055 0.0
C88 C 0.41805 0.48696 0.61675 0.0
O89 O 0.47536 0.55765 0.62139 0.0
O90 O 0.51092 0.56404 0.5752 0.0
C91 C 0.417 0.37693 0.53667 0.0
O92 O 0.51992 0.45122 0.62888 0.0
O93 O 0.48255 0.44044 0.58689 0.0
C94 C 0.57709 0.52151 0.60956 0.0
O95 O 0.41496 0.45895 0.61552 0.0
O96 O 0.43584 0.49875 0.59042 0.0
C97 C 0.56879 0.62098 0.50457 0.0
O98 O 0.57954 0.54921 0.6028 0.0
O99 O 0.55845 0.50707 0.58723 0.0
C100 C 0.51148 0.41311 0.43688 0.0
O101 O 0.50192 0.40999 0.47597 0.0
C102 C 0.48397 0.57381 0.41691 0.0
O103 O 0.48229 0.59143 0.45003 0.0
C104 C 0.36701 0.36765 0.89593 0.0
C105 C 0.39334 0.38434 0.89289 0.0
C106 C 0.411 0.38822 0.92941 0.0
C107 C 0.37697 0.35815 0.97033 0.0
C108 C 0.35935 0.35475 0.93478 0.0
C109 C 0.33265 0.33557 0.94326 0.0
H110 H 0.2576 0.2457 0.07737 0.0
C111 C 0.36352 0.34088 0.00508 0.0
C112 C 0.33756 0.32758 0.98953 0.0
H113 H 0.23368 0.27125 0.94948 0.0
H114 H 0.27698 0.30233 0.94527 0.0
H115 H 0.3275 0.23889 0.06248 0.0
H116 H 0.27446 0.31233 0.10645 0.0
H117 H 0.30704 0.3118 0.13703 0.0
H118 H 0.28205 0.28054 0.13902 0.0
H119 H 0.31011 0.23925 0.11366 0.0
H120 H 0.34628 0.25537 0.10537 0.0
C121 C 0.33454 0.30797 0.91406 0.0
C122 C 0.30435 0.35472 0.93686 0.0
C123 C 0.4129 0.34 0.14941 0.0
C124 C 0.40607 0.32606 0.18804 0.0
C125 C 0.38163 0.3065 0.18972 0.0
C126 C 0.36393 0.30154 0.15378 0.0
C127 C 0.37068 0.3163 0.11574 0.0
C128 C 0.3951 0.33478 0.11393 0.0
C129 C 0.39922 0.34841 0.07092 0.0
C130 C 0.37271 0.33578 0.04746 0.0
C131 C 0.35606 0.31701 0.07379 0.0
C132 C 0.42906 0.33695 0.05258 0.0
C133 C 0.39715 0.38264 0.07555 0.0
C134 C 0.26143 0.25822 0.04859 0.0
C135 C 0.24223 0.25561 0.01354 0.0
C136 C 0.24837 0.27223 0.97665 0.0
C137 C 0.27348 0.29046 0.9743 0.0
C138 C 0.29271 0.29231 0.00925 0.0
C139 C 0.28631 0.27672 0.04582 0.0
C140 C 0.30869 0.28234 0.08035 0.0
C141 C 0.32977 0.30349 0.05817 0.0
C142 C 0.32043 0.30903 0.01642 0.0
C143 C 0.32394 0.25248 0.0915 0.0
C144 C 0.29241 0.29735 0.11796 0.0
H145 H 0.41753 0.37884 0.99445 0.0
H146 H 0.35277 0.3645 0.86861 0.0
H147 H 0.30871 0.37851 0.94405 0.0
H148 H 0.28618 0.34845 0.95862 0.0
H149 H 0.29623 0.3534 0.90365 0.0
H150 H 0.35773 0.29946 0.91265 0.0
H151 H 0.32755 0.31353 0.88122 0.0
H152 H 0.32112 0.28911 0.92538 0.0
H153 H 0.4312 0.35548 0.14697 0.0
H154 H 0.37611 0.29511 0.21889 0.0
H155 H 0.34554 0.2866 0.15713 0.0
H156 H 0.43413 0.31413 0.06407 0.0
H157 H 0.44783 0.35148 0.06216 0.0
H158 H 0.42876 0.33489 0.01768 0.0
H159 H 0.38026 0.38888 0.0997 0.0
H160 H 0.38984 0.39385 0.04621 0.0
H161 H 0.41875 0.3922 0.08574 0.0
H162 H 0.43161 0.40056 0.9279 0.0
C163 C 0.40295 0.37529 0.96803 0.0
C164 C 0.69166 0.40112 0.86078 0.0
C165 C 0.67992 0.42983 0.85515 0.0
C166 C 0.67253 0.44689 0.89108 0.0
C167 C 0.68528 0.40575 0.93683 0.0
C168 C 0.6943 0.38961 0.9019 0.0
C169 C 0.70562 0.35926 0.91397 0.0
H170 H 0.72828 0.25587 0.06675 0.0
C171 C 0.68805 0.3866 0.97447 0.0
C172 C 0.70028 0.35943 0.96156 0.0
H173 H 0.75478 0.25248 0.935 0.0
H174 H 0.7326 0.30039 0.92291 0.0
H175 H 0.74817 0.32335 0.08192 0.0
H176 H 0.66357 0.28452 0.05036 0.0
H177 H 0.6567 0.31351 0.08624 0.0
H178 H 0.67898 0.28222 0.10274 0.0
H179 H 0.72728 0.30112 0.11852 0.0
H180 H 0.72085 0.34045 0.11343 0.0
C181 C 0.73914 0.35767 0.90299 0.0
C182 C 0.6863 0.3357 0.89119 0.0
C183 C 0.64583 0.42235 0.11407 0.0
C184 C 0.64248 0.40903 0.15399 0.0
C185 C 0.65334 0.37999 0.16038 0.0
C186 C 0.66732 0.36448 0.12735 0.0
C187 C 0.67031 0.37812 0.08749 0.0
C188 C 0.65965 0.40659 0.08151 0.0
C189 C 0.66387 0.4174 0.03696 0.0
C190 C 0.67888 0.39071 0.01702 0.0
C191 C 0.68265 0.36779 0.04666 0.0
C192 C 0.68462 0.44489 0.03812 0.0
C193 C 0.63267 0.4233 0.01775 0.0
C194 C 0.72937 0.26544 0.0353 0.0
C195 C 0.74331 0.2502 0.00183 0.0
C196 C 0.74381 0.2634 0.96126 0.0
C197 C 0.73122 0.29144 0.95435 0.0
C198 C 0.71801 0.30661 0.98833 0.0
C199 C 0.71712 0.29354 0.02793 0.0
C200 C 0.70269 0.31324 0.06047 0.0
C201 C 0.69586 0.34057 0.03407 0.0
C202 C 0.70467 0.33645 0.99177 0.0
C203 C 0.72572 0.31987 0.09575 0.0
C204 C 0.67407 0.29768 0.0762 0.0
H205 H 0.66844 0.44889 0.95769 0.0
H206 H 0.69795 0.38769 0.83375 0.0
H207 H 0.6624 0.3419 0.8928 0.0
H208 H 0.68784 0.3135 0.90578 0.0
H209 H 0.69246 0.33384 0.85721 0.0
H210 H 0.74962 0.38003 0.90403 0.0
H211 H 0.74268 0.34853 0.87068 0.0
H212 H 0.75196 0.34435 0.92612 0.0
H213 H 0.63728 0.44443 0.10791 0.0
H214 H 0.65125 0.36937 0.19103 0.0
H215 H 0.67517 0.34248 0.13411 0.0
H216 H 0.7002 0.44385 0.0655 0.0
H217 H 0.67169 0.46581 0.04105 0.0
H218 H 0.69921 0.4463 0.01 0.0
H219 H 0.61649 0.40625 0.02857 0.0
H220 H 0.63213 0.42192 0.98287 0.0
H221 H 0.62406 0.44537 0.0276 0.0
H222 H 0.66324 0.46896 0.88764 0.0
C223 C 0.67522 0.43504 0.9318 0.0
C224 C 0.62112 0.64853 0.15495 0.0
C225 C 0.59625 0.62963 0.15523 0.0
C226 C 0.58442 0.6197 0.11635 0.0
C227 C 0.62205 0.64701 0.07806 0.0
C228 C 0.63361 0.6569 0.11609 0.0
C229 C 0.66009 0.6768 0.10984 0.0
H230 H 0.75299 0.74877 0.97642 0.0
C231 C 0.64008 0.65967 0.04352 0.0
C232 C 0.66242 0.67714 0.06176 0.0
H233 H 0.75405 0.74762 0.11369 0.0
H234 H 0.71223 0.71463 0.11412 0.0
H235 H 0.74248 0.67726 0.96733 0.0
H236 H 0.68106 0.751 0.96416 0.0
H237 H 0.67289 0.72651 0.92214 0.0
H238 H 0.70832 0.74497 0.92351 0.0
H239 H 0.74106 0.70267 0.92351 0.0
H240 H 0.71659 0.67106 0.92653 0.0
C241 C 0.68742 0.66182 0.13086 0.0
C242 C 0.65224 0.70783 0.1279 0.0
C243 C 0.61381 0.634 0.89211 0.0
C244 C 0.62598 0.64134 0.85255 0.0
C245 C 0.65054 0.6608 0.85116 0.0
C246 C 0.66293 0.67229 0.88873 0.0
C247 C 0.65061 0.66428 0.92809 0.0
C248 C 0.6264 0.64547 0.92905 0.0
C249 C 0.61594 0.6391 0.97318 0.0
C250 C 0.63805 0.65687 -0.00111 0.0
C251 C 0.6583 0.67175 0.97257 0.0
C252 C 0.61903 0.60521 0.98112 0.0
C253 C 0.5839 0.65144 0.97769 0.0
C254 C 0.74441 0.74123 0.00659 0.0
C255 C 0.7568 0.75129 0.0451 0.0
C256 C 0.74465 0.74093 0.08355 0.0
C257 C 0.7204 0.72153 0.08378 0.0
C258 C 0.70808 0.71207 0.04519 0.0
C259 C 0.72025 0.7216 0.0074 0.0
C260 C 0.70465 0.70834 0.96953 0.0
C261 C 0.68088 0.68972 0.99095 0.0
C262 C 0.68298 0.69219 0.0353 0.0
C263 C 0.72725 0.68892 0.94504 0.0
C264 C 0.69108 0.73391 0.94307 0.0
H265 H 0.587 0.61994 0.04952 0.0
H266 H 0.63086 0.6564 0.18428 0.0
H267 H 0.62879 0.71372 0.12052 0.0
H268 H 0.66557 0.72589 0.11397 0.0
H269 H 0.65487 0.70831 0.16291 0.0
H270 H 0.68563 0.63719 0.12969 0.0
H271 H 0.68952 0.66835 0.16469 0.0
H272 H 0.70843 0.66683 0.11428 0.0
H273 H 0.5945 0.61976 0.89448 0.0
H274 H 0.66039 0.66684 0.82108 0.0
H275 H 0.68164 0.68689 0.88573 0.0
H276 H 0.63841 0.5959 0.96373 0.0
H277 H 0.59895 0.59308 0.97025 0.0
H278 H 0.62336 0.59967 0.01468 0.0
H279 H 0.58075 0.67176 0.95809 0.0
H280 H 0.57861 0.65861 0.01032 0.0
H281 H 0.56719 0.63487 0.96717 0.0
H282 H 0.56495 0.6056 0.11559 0.0
C283 C 0.59716 0.62825 0.07789 0.0
C284 C 0.31962 0.59051 0.156 0.0
C285 C 0.33144 0.56155 0.15509 0.0
C286 C 0.33354 0.54652 0.11606 0.0
C287 C 0.31462 0.58975 0.07944 0.0
C288 C 0.31125 0.60412 0.11784 0.0
C289 C 0.29867 0.63495 0.11252 0.0
H290 H 0.26064 0.74672 0.97943 0.0
C291 C 0.30636 0.61064 0.0455 0.0
C292 C 0.29694 0.6372 0.06448 0.0
H293 H 0.24681 0.74255 0.11514 0.0
H294 H 0.27003 0.69422 0.11704 0.0
H295 H 0.32528 0.71319 0.9755 0.0
H296 H 0.23445 0.68462 0.96362 0.0
H297 H 0.25497 0.66415 0.92652 0.0
H298 H 0.25319 0.70404 0.92185 0.0
H299 H 0.30251 0.72215 0.93052 0.0
H300 H 0.32348 0.68804 0.93293 0.0
C301 C 0.32097 0.65748 0.13143 0.0
C302 C 0.2675 0.63586 0.13329 0.0
C303 C 0.3225 0.58056 0.8925 0.0
C304 C 0.3202 0.59592 0.8539 0.0
C305 C 0.31036 0.62564 0.85405 0.0
C306 C 0.30311 0.63988 0.89221 0.0
C307 C 0.30584 0.62425 0.93063 0.0
C308 C 0.31535 0.59509 0.93023 0.0
C309 C 0.31822 0.58226 0.97395 0.0
C310 C 0.30843 0.60842 0.00078 0.0
C311 C 0.30117 0.63288 0.97532 0.0
C312 C 0.35136 0.57414 0.98135 0.0
C313 C 0.29637 0.5558 0.97761 0.0
C314 C 0.26238 0.73556 0.00972 0.0
C315 C 0.25154 0.7487 0.04711 0.0
C316 C 0.25516 0.73332 0.0858 0.0
C317 C 0.26829 0.70501 0.08682 0.0
C318 C 0.27759 0.69174 0.04875 0.0
C319 C 0.27445 0.70702 0.01108 0.0
C320 C 0.28293 0.68868 0.97322 0.0
C321 C 0.29151 0.65972 0.99431 0.0
C322 C 0.28896 0.66177 0.03861 0.0
C323 C 0.30983 0.70372 0.95149 0.0
C324 C 0.25516 0.68522 0.94443 0.0
H325 H 0.32792 0.54797 0.04963 0.0
H326 H 0.31728 0.60238 0.18567 0.0
H327 H 0.25703 0.61348 0.13376 0.0
H328 H 0.25167 0.64991 0.11542 0.0
H329 H 0.26875 0.64382 0.16658 0.0
H330 H 0.3439 0.65242 0.12049 0.0
H331 H 0.32087 0.65654 0.16662 0.0
H332 H 0.31644 0.68056 0.1217 0.0
H333 H 0.33069 0.55794 0.89359 0.0
H334 H 0.30834 0.63789 0.82464 0.0
H335 H 0.2959 0.66256 0.89033 0.0
H336 H 0.36633 0.58911 0.96321 0.0
H337 H 0.35615 0.55103 0.97109 0.0
H338 H 0.35844 0.5769 0.01465 0.0
H339 H 0.27556 0.56029 0.95963 0.0
H340 H 0.289 0.5517 0.01048 0.0
H341 H 0.3063 0.53513 0.9646 0.0
H342 H 0.34277 0.52431 0.11446 0.0
C343 C 0.32517 0.56042 0.07832 0.0
C344 C 0.88092 0.84587 0.39036 0.0
C345 C 0.91031 0.85653 0.39037 0.0
C346 C 0.92612 0.85754 0.42897 0.0
C347 C 0.88379 0.83723 0.46616 0.0
C348 C 0.86816 0.83643 0.42848 0.0
C349 C 0.8371 0.82478 0.43423 0.0
H350 H 0.73477 0.76184 0.56226 0.0
C351 C 0.86433 0.82567 0.49987 0.0
C352 C 0.83691 0.81839 0.48151 0.0
H353 H 0.72538 0.7862 0.43009 0.0
H354 H 0.77473 0.80661 0.43046 0.0
H355 H 0.80209 0.73934 0.55925 0.0
H356 H 0.76362 0.82442 0.58907 0.0
H357 H 0.79391 0.81944 0.62337 0.0
H358 H 0.76293 0.79408 0.6259 0.0
H359 H 0.78065 0.746 0.60627 0.0
H360 H 0.81994 0.75334 0.60476 0.0
C361 C 0.83399 0.79605 0.40762 0.0
C362 C 0.81489 0.84973 0.42208 0.0
C363 C 0.90259 0.82121 0.65067 0.0
C364 C 0.88983 0.81233 0.68925 0.0
C365 C 0.86113 0.79981 0.68898 0.0
C366 C 0.84518 0.79687 0.65094 0.0
C367 C 0.85801 0.80669 0.61282 0.0
C368 C 0.8864 0.81825 0.61316 0.0
C369 C 0.8965 0.82793 0.57001 0.0
C370 C 0.86921 0.82095 0.54374 0.0
C371 C 0.84675 0.80848 0.56885 0.0
C372 C 0.92344 0.80838 0.55727 0.0
C373 C 0.90297 0.86176 0.57155 0.0
C374 C 0.74299 0.77198 0.53349 0.0
C375 C 0.72604 0.77192 0.49592 0.0
C376 C 0.73807 0.78521 0.45924 0.0
C377 C 0.76674 0.79722 0.45951 0.0
C378 C 0.78363 0.79624 0.49693 0.0
C379 C 0.77145 0.7844 0.53334 0.0
C380 C 0.79214 0.78656 0.57069 0.0
C381 C 0.81902 0.80094 0.55036 0.0
C382 C 0.81402 0.80625 0.50706 0.0
C383 C 0.79906 0.75474 0.5865 0.0
C384 C 0.77752 0.80698 0.60433 0.0
H385 H 0.92631 0.84933 0.49494 0.0
H386 H 0.86818 0.84458 0.36128 0.0
H387 H 0.82466 0.87212 0.42733 0.0
H388 H 0.79465 0.84951 0.44191 0.0
H389 H 0.80842 0.84824 0.38815 0.0
H390 H 0.85411 0.78188 0.41115 0.0
H391 H 0.83137 0.80132 0.37342 0.0
H392 H 0.81523 0.78199 0.41758 0.0
H393 H 0.92434 0.83144 0.6497 0.0
H394 H 0.85091 0.79252 0.71823 0.0
H395 H 0.82337 0.78739 0.65276 0.0
H396 H 0.92115 0.78546 0.57002 0.0
H397 H 0.94451 0.8177 0.56987 0.0
H398 H 0.92547 0.80538 0.52265 0.0
H399 H 0.88759 0.87324 0.59378 0.0
H400 H 0.89937 0.87292 0.5408 0.0
H401 H 0.926 0.86618 0.58248 0.0
H402 H 0.94854 0.86619 0.43015 0.0
C403 C 0.91307 0.84791 0.46672 0.0
C404 C 0.15269 0.87158 0.37762 0.0
C405 C 0.13596 0.89799 0.37505 0.0
C406 C 0.1316 0.91494 0.41213 0.0
C407 C 0.15991 0.8794 0.4531 0.0
C408 C 0.16448 0.86279 0.41687 0.0
C409 C 0.18311 0.83561 0.42546 0.0
H410 H 0.26376 0.75428 0.56532 0.0
C411 C 0.17518 0.86449 0.48857 0.0
C412 C 0.18897 0.83886 0.47273 0.0
H413 H 0.24715 0.73554 0.43276 0.0
H414 H 0.21715 0.77966 0.42726 0.0
H415 H 0.27204 0.82509 0.5569 0.0
H416 H 0.19664 0.77008 0.58591 0.0
H417 H 0.19354 0.80192 0.6176 0.0
H418 H 0.2251 0.77761 0.62428 0.0
H419 H 0.26856 0.8048 0.60564 0.0
H420 H 0.25297 0.84144 0.59964 0.0
C421 C 0.212 0.83816 0.39916 0.0
C422 C 0.16419 0.80778 0.41532 0.0
C423 C 0.16655 0.90755 0.63638 0.0
C424 C 0.1773 0.89854 0.6762 0.0
C425 C 0.19611 0.87353 0.67863 0.0
C426 C 0.20358 0.85747 0.64204 0.0
C427 C 0.192 0.8664 0.60262 0.0
C428 C 0.17412 0.89127 0.60031 0.0
C429 C 0.16359 0.8975 0.55602 0.0
C430 C 0.17753 0.87182 0.53216 0.0
C431 C 0.19416 0.85371 0.55951 0.0
C432 C 0.17656 0.92787 0.54204 0.0
C433 C 0.12918 0.89584 0.55568 0.0
C434 C 0.25345 0.75938 0.53516 0.0
C435 C 0.2582 0.74133 0.49938 0.0
C436 C 0.24448 0.74925 0.4607 0.0
C437 C 0.22686 0.77485 0.45756 0.0
C438 C 0.22264 0.79274 0.49352 0.0
C439 C 0.23557 0.78468 0.53158 0.0
C440 C 0.22771 0.80565 0.56691 0.0
C441 C 0.20842 0.82793 0.54359 0.0
C442 C 0.20566 0.82039 0.50053 0.0
C443 C 0.25673 0.81998 0.58357 0.0
C444 C 0.21 0.78809 0.60075 0.0
H445 H 0.13923 0.91978 0.47782 0.0
H446 H 0.1564 0.85795 0.34984 0.0
H447 H 0.14036 0.81172 0.42276 0.0
H448 H 0.17043 0.78832 0.43471 0.0
H449 H 0.1657 0.80181 0.38123 0.0
H450 H 0.22052 0.86134 0.39968 0.0
H451 H 0.20802 0.83198 0.36553 0.0
H452 H 0.23031 0.82445 0.41174 0.0
H453 H 0.15169 0.92636 0.63336 0.0
H454 H 0.20498 0.86634 0.70886 0.0
H455 H 0.21785 0.83856 0.64594 0.0
H456 H 0.19822 0.93236 0.55782 0.0
H457 H 0.16132 0.9464 0.55025 0.0
H458 H 0.18161 0.92874 0.50777 0.0
H459 H 0.12118 0.87799 0.57722 0.0
H460 H 0.11989 0.89008 0.52435 0.0
H461 H 0.11919 0.91709 0.5665 0.0
H462 H 0.11947 0.93572 0.41105 0.0
C463 C 0.14339 0.9058 0.45097 0.0
C464 C 0.10289 0.13947 0.63863 0.0
C465 C 0.0742 0.12737 0.63452 0.0
C466 C 0.06019 0.1278 0.59458 0.0
C467 C 0.10301 0.15196 0.5638 0.0
C468 C 0.1168 0.15172 0.60295 0.0
C469 C 0.14705 0.16598 0.60154 0.0
H470 H 0.25343 0.23538 0.48644 0.0
C471 C 0.12337 0.16595 0.53318 0.0
C472 C 0.14925 0.17426 0.55492 0.0
H473 H 0.25436 0.21584 0.6207 0.0
H474 H 0.20639 0.19227 0.61458 0.0
H475 H 0.22882 0.17194 0.45757 0.0
H476 H 0.18489 0.2554 0.48084 0.0
H477 H 0.17101 0.24044 0.43317 0.0
H478 H 0.20983 0.24949 0.43726 0.0
H479 H 0.23029 0.20194 0.42023 0.0
H480 H 0.2004 0.17523 0.41973 0.0
C481 C 0.17041 0.14233 0.61421 0.0
C482 C 0.14652 0.19373 0.63056 0.0
C483 C 0.09274 0.17218 0.37901 0.0
C484 C 0.10746 0.18125 0.34204 0.0
C485 C 0.13617 0.19348 0.34535 0.0
C486 C 0.15006 0.19637 0.38505 0.0
C487 C 0.1352 0.18657 0.42169 0.0
C488 C 0.107 0.17477 0.41814 0.0
C489 C 0.09506 0.16396 0.45972 0.0
C490 C 0.12072 0.17119 0.48904 0.0
C491 C 0.14407 0.18463 0.4668 0.0
C492 C 0.08968 0.12998 0.45612 0.0
C493 C 0.06701 0.1825 0.47041 0.0
C494 C 0.24359 0.22564 0.51447 0.0
C495 C 0.25783 0.22749 0.55412 0.0
C496 C 0.24379 0.215 0.58986 0.0
C497 C 0.21594 0.20125 0.58622 0.0
C498 C 0.20187 0.19999 0.54644 0.0
C499 C 0.21582 0.21192 0.51138 0.0
C500 C 0.19767 0.20862 0.47161 0.0
C501 C 0.17023 0.19328 0.4887 0.0
C502 C 0.17281 0.18818 0.53254 0.0
C503 C 0.21509 0.18859 0.44032 0.0
C504 C 0.1905 0.24003 0.4544 0.0
H505 H 0.06249 0.13952 0.52986 0.0
H506 H 0.11409 0.13981 0.66904 0.0
H507 H 0.12446 0.20487 0.62934 0.0
H508 H 0.16248 0.21098 0.62067 0.0
H509 H 0.15095 0.18763 0.66409 0.0
H510 H 0.1646 0.1203 0.60053 0.0
H511 H 0.17159 0.13979 0.6492 0.0
H512 H 0.19282 0.14728 0.60201 0.0
H513 H 0.07098 0.16197 0.37741 0.0
H514 H 0.14793 0.20056 0.31719 0.0
H515 H 0.17196 0.20573 0.38561 0.0
H516 H 0.10562 0.11951 0.43369 0.0
H517 H 0.06692 0.12513 0.44441 0.0
H518 H 0.09334 0.11809 0.48631 0.0
H519 H 0.0696 0.2059 0.45972 0.0
H520 H 0.06274 0.18412 0.50481 0.0
H521 H 0.04702 0.1733 0.45447 0.0
H522 H 0.03827 0.11832 0.59046 0.0
C523 C 0.07439 0.14001 0.55931 0.0
C524 C 0.83772 0.11715 0.6581 0.0
C525 C 0.8559 0.09166 0.65706 0.0
C526 C 0.86479 0.08028 0.61737 0.0
C527 C 0.83692 0.11867 0.58125 0.0
C528 C 0.82881 0.13039 0.61997 0.0
C529 C 0.81058 0.15825 0.61533 0.0
H530 H 0.74264 0.25791 0.4872 0.0
C531 C 0.82388 0.13745 0.54778 0.0
C532 C 0.80873 0.1609 0.56737 0.0
H533 H 0.74923 0.25903 0.62412 0.0
H534 H 0.77744 0.21364 0.62252 0.0
H535 H 0.81103 0.2402 0.47132 0.0
H536 H 0.73177 0.18657 0.47743 0.0
H537 H 0.75309 0.17496 0.43373 0.0
H538 H 0.73864 0.21226 0.43503 0.0
H539 H 0.78358 0.24062 0.42998 0.0
H540 H 0.81297 0.21336 0.43096 0.0
C541 C 0.8281 0.18433 0.63554 0.0
C542 C 0.77973 0.15258 0.63535 0.0
C543 C 0.83664 0.10705 0.39463 0.0
C544 C 0.82764 0.11945 0.3559 0.0
C545 C 0.81126 0.14616 0.35608 0.0
C546 C 0.8037 0.16005 0.39453 0.0
C547 C 0.81288 0.1472 0.43308 0.0
C548 C 0.82916 0.12118 0.43247 0.0
C549 C 0.83795 0.11092 0.47591 0.0
C550 C 0.82396 0.13485 0.50303 0.0
C551 C 0.80921 0.15603 0.478 0.0
C552 C 0.87239 0.11119 0.47891 0.0
C553 C 0.82352 0.08013 0.48352 0.0
C554 C 0.75043 0.24861 0.51685 0.0
C555 C 0.74354 0.2622 0.55587 0.0
C556 C 0.75377 0.24891 0.59366 0.0
C557 C 0.77037 0.22261 0.59268 0.0
C558 C 0.77702 0.20938 0.5535 0.0
C559 C 0.76721 0.22242 0.51641 0.0
C560 C 0.77688 0.20542 0.47768 0.0
C561 C 0.7942 0.18011 0.49772 0.0
C562 C 0.79404 0.18251 0.54216 0.0
C563 C 0.79703 0.22584 0.45069 0.0
C564 C 0.74876 0.19427 0.45435 0.0
H565 H 0.86273 0.08358 0.55065 0.0
H566 H 0.83029 0.12657 0.68783 0.0
H567 H 0.77154 0.13002 0.62696 0.0
H568 H 0.76248 0.16803 0.62385 0.0
H569 H 0.78084 0.15402 0.67047 0.0
H570 H 0.85248 0.18037 0.63421 0.0
H571 H 0.82202 0.1874 0.66937 0.0
H572 H 0.82484 0.20553 0.61845 0.0
H573 H 0.84991 0.08698 0.39555 0.0
H574 H 0.80415 0.15615 0.32652 0.0
H575 H 0.7911 0.18026 0.39277 0.0
H576 H 0.88231 0.12734 0.45633 0.0
H577 H 0.88188 0.089 0.47155 0.0
H578 H 0.88048 0.11848 0.51038 0.0
H579 H 0.80046 0.07966 0.47081 0.0
H580 H 0.82136 0.07443 0.51737 0.0
H581 H 0.83629 0.06229 0.46739 0.0
H582 H 0.87944 0.06127 0.61529 0.0
C583 C 0.85528 0.0935 0.57963 0.0
H584 H 0.1072 0.12831 0.9474 0.0
H585 H 0.205 0.24325 0.08059 0.0
H586 H 0.10557 0.13161 0.08428 0.0
H587 H 0.22079 0.22061 0.94944 0.0
H588 H 0.16406 0.20752 0.08197 0.0
H589 H 0.14357 0.16812 0.94708 0.0
C590 C 0.11432 0.1375 0.97746 0.0
C591 C 0.10349 0.12631 0.01598 0.0
C592 C 0.17646 0.21055 0.05291 0.0
C593 C 0.14542 0.17204 0.01571 0.0
C594 C 0.19994 0.23081 0.05211 0.0
C595 C 0.21648 0.23501 0.01481 0.0
C596 C 0.16934 0.19455 0.01611 0.0
C597 C 0.20847 0.2186 0.97872 0.0
C598 C 0.13522 0.16022 0.97721 0.0
C599 C 0.11349 0.13937 0.05385 0.0
N600 N 0.18553 0.19914 0.98031 0.0
N601 N 0.13405 0.1615 0.05278 0.0
H602 H 0.84616 0.09315 0.95753 0.0
H603 H 0.77639 0.23407 0.0712 0.0
H604 H 0.86741 0.11906 0.08588 0.0
H605 H 0.74613 0.20116 0.95002 0.0
H606 H 0.80594 0.18917 0.08021 0.0
H607 H 0.8057 0.1292 0.95713 0.0
C608 C 0.84209 0.10613 0.98586 0.0
C609 C 0.86057 0.10341 0.02155 0.0
C610 C 0.79257 0.19158 0.05185 0.0
C611 C 0.81442 0.145 0.0211 0.0
C612 C 0.77552 0.2172 0.04676 0.0
C613 C 0.75891 0.22161 0.00955 0.0
C614 C 0.79333 0.17028 0.01936 0.0
C615 C 0.75909 0.19906 0.97878 0.0
C616 C 0.81895 0.12674 0.98559 0.0
C617 C 0.85397 0.1206 0.05748 0.0
N618 N 0.77628 0.17453 0.98417 0.0
N619 N 0.83172 0.14098 0.0561 0.0
H620 H 0.90551 0.86243 0.97577 0.0
H621 H 0.7669 0.79725 0.10061 0.0
H622 H 0.88337 0.88875 0.10351 0.0
H623 H 0.80443 0.75432 0.99051 0.0
H624 H 0.80843 0.8319 0.10104 0.0
H625 H 0.86796 0.82351 0.9795 0.0
C626 C 0.89294 0.8599 0.00476 0.0
C627 C 0.89751 0.87906 0.0393 0.0
C628 C 0.80766 0.81479 0.07694 0.0
C629 C 0.85416 0.83466 0.04354 0.0
C630 C 0.78398 0.79485 0.07673 0.0
C631 C 0.78206 0.77263 0.04551 0.0
C632 C 0.82953 0.81285 0.04543 0.0
C633 C 0.80462 0.77127 0.01482 0.0
C634 C 0.87149 0.83762 0.00686 0.0
C635 C 0.8806 0.87454 0.0761 0.0
N636 N 0.82732 0.79117 0.01545 0.0
N637 N 0.85945 0.85301 0.07708 0.0
H638 H 0.13846 0.88977 0.96098 0.0
H639 H 0.24776 0.79425 0.10619 0.0
H640 H 0.13524 0.89539 0.09764 0.0
H641 H 0.21502 0.76758 0.98299 0.0
H642 H 0.2166 0.83897 0.10176 0.0
H643 H 0.17872 0.85394 0.96672 0.0
C644 C 0.14643 0.88376 0.99225 0.0
C645 C 0.13294 0.89509 0.02893 0.0
C646 C 0.21671 0.82334 0.07566 0.0
C647 C 0.1791 0.85394 0.03556 0.0
C648 C 0.23429 0.79772 0.07819 0.0
C649 C 0.23434 0.77697 0.0448 0.0
C650 C 0.19952 0.82839 0.03925 0.0
C651 C 0.21662 0.78306 0.00911 0.0
C652 C 0.1694 0.86325 0.99545 0.0
C653 C 0.14473 0.88688 0.06855 0.0
N654 N 0.20007 0.80814 0.00732 0.0
N655 N 0.16697 0.86643 0.07088 0.0
H656 H 0.58683 0.65574 0.57137 0.0
H657 H 0.70196 0.74027 0.42989 0.0
H658 H 0.58467 0.65299 0.4345 0.0
H659 H 0.68347 0.76763 0.55853 0.0
H660 H 0.65711 0.71041 0.43044 0.0
H661 H 0.61973 0.69881 0.56768 0.0
C662 C 0.59282 0.66449 0.54056 0.0
C663 C 0.58344 0.65034 0.50319 0.0
C664 C 0.66262 0.72328 0.45837 0.0
C665 C 0.62135 0.69931 0.49883 0.0
C666 C 0.68825 0.74056 0.45804 0.0
C667 C 0.69688 0.75639 0.4944 0.0
C668 C 0.64566 0.72127 0.49554 0.0
C669 C 0.67825 0.75521 0.53012 0.0
C670 C 0.61159 0.6891 0.53849 0.0
C671 C 0.59167 0.66287 0.46417 0.0
N672 N 0.65378 0.73756 0.53002 0.0
N673 N 0.6106 0.68628 0.46302 0.0
H674 H 0.37294 0.59902 0.58757 0.0
H675 H 0.29655 0.71979 0.4392 0.0
H676 H 0.37941 0.59856 0.45093 0.0
H677 H 0.26509 0.70229 0.5661 0.0
H678 H 0.3294 0.67704 0.44476 0.0
H679 H 0.33545 0.6385 0.58245 0.0
C680 C 0.36637 0.60702 0.55656 0.0
C681 C 0.3795 0.59554 0.51965 0.0
C682 C 0.31518 0.68245 0.47132 0.0
C683 C 0.33702 0.64075 0.51368 0.0
C684 C 0.29623 0.70682 0.46809 0.0
C685 C 0.27784 0.71477 0.50217 0.0
C686 C 0.31617 0.666 0.50908 0.0
C687 C 0.27915 0.69738 0.53921 0.0
C688 C 0.34498 0.6295 0.55368 0.0
C689 C 0.37003 0.60671 0.4803 0.0
N690 N 0.29811 0.67392 0.54178 0.0
N691 N 0.34963 0.62883 0.47841 0.0
H692 H 0.40858 0.33038 0.48226 0.0
H693 H 0.27574 0.26509 0.6178 0.0
H694 H 0.38885 0.35944 0.6096 0.0
H695 H 0.30522 0.22704 0.49948 0.0
H696 H 0.32022 0.29605 0.61924 0.0
H697 H 0.3746 0.28879 0.49157 0.0
C698 C 0.39745 0.32775 0.51245 0.0
C699 C 0.40124 0.34871 0.54497 0.0
C700 C 0.31716 0.28065 0.59323 0.0
C701 C 0.36185 0.3013 0.55562 0.0
C702 C 0.2918 0.26283 0.59248 0.0
C703 C 0.28647 0.24369 0.55814 0.0
C704 C 0.33726 0.27952 0.55925 0.0
C705 C 0.308 0.24199 0.52606 0.0
C706 C 0.378 0.30397 0.51775 0.0
C707 C 0.38645 0.34396 0.58355 0.0
N708 N 0.33223 0.25992 0.52715 0.0
N709 N 0.367 0.32104 0.58755 0.0
H710 H 0.61293 0.39775 0.61464 0.0
H711 H 0.74534 0.30969 0.50133 0.0
H712 H 0.64053 0.413 0.48543 0.0
H713 H 0.70059 0.27798 0.61353 0.0
H714 H 0.71334 0.35348 0.5016 0.0
H715 H 0.65194 0.36005 0.62155 0.0
C716 C 0.62743 0.3935 0.58795 0.0
C717 C 0.6232 0.40824 0.54919 0.0
C718 C 0.71067 0.33699 0.52629 0.0
C719 C 0.66772 0.36526 0.55692 0.0
C720 C 0.72879 0.31187 0.52601 0.0
C721 C 0.72548 0.28985 0.55717 0.0
C722 C 0.68914 0.34031 0.55808 0.0
C723 C 0.70415 0.2944 0.58902 0.0
C724 C 0.64956 0.37189 0.59185 0.0
C725 C 0.64271 0.4019 0.51571 0.0
N726 N 0.68669 0.31903 0.58853 0.0
N727 N 0.664 0.38078 0.52027 0.0
H728 H 0.97659 0.13448 0.15519 0.0
H729 H 0.13276 0.1558 0.27216 0.0
H730 H 0.05551 0.08441 0.12564 0.0
H731 H 0.05028 0.19262 0.31769 0.0
H732 H 0.10692 0.13794 0.20878 0.0
H733 H 0.00522 0.16342 0.20633 0.0
C734 C 1e-05 0.12966 0.15905 0.0
C735 C 0.01364 0.10676 0.13586 0.0
C736 C 0.09456 0.15028 0.23238 0.0
C737 C 0.04658 0.13997 0.19437 0.0
C738 C 0.10936 0.16071 0.26833 0.0
C739 C 0.09352 0.1754 0.30035 0.0
C740 C 0.06377 0.15465 0.22849 0.0
C741 C 0.06317 0.18096 0.29399 0.0
C742 C 0.01634 0.14627 0.18823 0.0
C743 C 0.04406 0.10177 0.14222 0.0
N744 N 0.0492 0.17032 0.25898 0.0
N745 N 0.05947 0.11809 0.17099 0.0
H746 H 0.89605 0.98711 0.18685 0.0
H747 H 0.85134 0.14469 0.28437 0.0
H748 H 0.9189 0.07053 0.12843 0.0
H749 H 0.82461 0.06045 0.33699 0.0
H750 H 0.87283 0.11844 0.22357 0.0
H751 H 0.86739 0.01394 0.23975 0.0
C752 C 0.89511 0.01112 0.18496 0.0
C753 C 0.91024 0.02657 0.15291 0.0
C754 C 0.86199 0.10574 0.24823 0.0
C755 C 0.87719 0.05757 0.21374 0.0
C756 C 0.84953 0.12073 0.28272 0.0
C757 C 0.83653 0.10466 0.31594 0.0
C758 C 0.86141 0.07453 0.24712 0.0
C759 C 0.83494 0.07364 0.3124 0.0
C760 C 0.87858 0.02644 0.21521 0.0
C761 C 0.90789 0.05764 0.15226 0.0
N762 N 0.84748 0.05959 0.27887 0.0
N763 N 0.89184 0.07214 0.18229 0.0
H764 H 0.94671 0.92897 0.14189 0.0
H765 H 0.96791 0.84834 0.36481 0.0
H766 H 0.03245 0.90984 0.19662 0.0
H767 H 0.88506 0.888 0.32501 0.0
H768 H 0.99126 0.86681 0.30031 0.0
H769 H 0.923 0.91026 0.20575 0.0
C770 C 0.96059 0.92106 0.16725 0.0
C771 C 0.99161 0.92125 0.16372 0.0
C772 C 0.96797 0.87148 0.30572 0.0
C773 C 0.96462 0.89923 0.23699 0.0
C774 C 0.95464 0.86106 0.34265 0.0
C775 C 0.92448 0.86677 0.35055 0.0
C776 C 0.95102 0.88754 0.27623 0.0
C777 C 0.90826 0.88277 0.32009 0.0
C778 C 0.94701 0.91024 0.2038 0.0
C779 C 0.00842 0.91011 0.19776 0.0
N780 N 0.92175 0.89261 0.28427 0.0
N781 N 0.99471 0.89951 0.23292 0.0
H782 H 0.04484 0.00668 0.19271 0.0
H783 H 0.16191 0.8959 0.29624 0.0
H784 H 0.10912 0.95845 0.11873 0.0
H785 H 0.08214 0.92461 0.36018 0.0
H786 H 0.14331 0.91827 0.23075 0.0
H787 H 0.05897 0.97746 0.2551 0.0
C788 C 0.06186 0.98978 0.18972 0.0
C789 C 0.07571 0.98459 0.15073 0.0
C790 C 0.12979 0.91943 0.25906 0.0
C791 C 0.09222 0.9514 0.2216 0.0
C792 C 0.14032 0.90651 0.29644 0.0
C793 C 0.12376 0.90869 0.334 0.0
C794 C 0.10266 0.93484 0.25935 0.0
C795 C 0.09604 0.92302 0.33231 0.0
C796 C 0.06981 0.97302 0.22514 0.0
C797 C 0.09756 0.96252 0.14818 0.0
N798 N 0.08653 0.93581 0.29577 0.0
N799 N 0.10537 0.94684 0.18328 0.0
H800 H 0.10464 0.94476 0.92185 0.0
H801 H 0.17056 0.95849 0.6876 0.0
H802 H 0.09473 0.02252 0.84309 0.0
H803 H 0.16135 0.87476 0.75292 0.0
H804 H 0.14873 0.98367 0.74856 0.0
H805 H 0.13072 0.91989 0.86391 0.0
C806 C 0.10789 0.95657 0.8924 0.0
C807 C 0.0974 0.9857 0.88729 0.0
C808 C 0.15161 0.9598 0.74963 0.0
C809 C 0.12746 0.95756 0.82108 0.0
C810 C 0.16403 0.9454 0.71483 0.0
C811 C 0.16748 0.91441 0.71493 0.0
C812 C 0.14267 0.94315 0.78497 0.0
C813 C 0.15927 0.89869 0.75152 0.0
C814 C 0.12281 0.94239 0.85936 0.0
C815 C 0.10234 1e-05 0.84842 0.0
N816 N 0.14707 0.91322 0.785 0.0
N817 N 0.11707 0.98581 0.81685 0.0
H818 H 0.02691 0.02894 0.86047 0.0
H819 H 0.01612 0.13474 0.65728 0.0
H820 H 0.95123 0.08446 0.83215 0.0
H821 H 0.09681 0.09043 0.69573 0.0
H822 H 0.99041 0.1124 0.71736 0.0
H823 H 0.051 0.04662 0.79584 0.0
C824 C 0.01532 0.04475 0.84061 0.0
C825 C 0.98731 0.05573 0.8522 0.0
C826 C 0.01373 0.10752 0.71268 0.0
C827 C 0.01463 0.07592 0.77816 0.0
C828 C 0.0284 0.12018 0.6783 0.0
C829 C 0.05865 0.11442 0.67151 0.0
C830 C 0.02938 0.08886 0.74051 0.0
C831 C 0.07355 0.09571 0.70008 0.0
C832 C 0.0291 0.05487 0.80375 0.0
C833 C 0.97306 0.07577 0.82482 0.0
N834 N 0.05875 0.08355 0.73334 0.0
N835 N 0.98696 0.08535 0.78921 0.0
H836 H 0.93275 0.97199 0.84136 0.0
H837 H 0.86938 0.11739 0.73406 0.0
H838 H 0.8862 0.03839 0.91451 0.0
H839 H 0.86475 0.03207 0.67141 0.0
H840 H 0.88493 0.09224 0.79909 0.0
H841 H 0.91762 0.99762 0.77632 0.0
C842 C 0.91938 0.99193 0.84377 0.0
C843 C 0.91067 0.00308 0.88339 0.0
C844 C 0.88047 0.07919 0.77093 0.0
C845 C 0.89386 0.03254 0.80944 0.0
C846 C 0.8714 0.09344 0.73385 0.0
C847 C 0.86563 0.07691 0.69693 0.0
C848 C 0.88433 0.04831 0.7709 0.0
C849 C 0.86947 0.04592 0.69862 0.0
C850 C 0.91077 0.00646 0.80672 0.0
C851 C 0.89335 0.02901 0.88464 0.0
N852 N 0.87876 0.03265 0.73491 0.0
N853 N 0.88571 0.04306 0.84815 0.0
H854 H 0.02571 0.87466 0.85671 0.0
H855 H 0.8669 0.83311 0.7641 0.0
H856 H 0.94495 0.88332 0.92915 0.0
H857 H 0.94924 0.80573 0.70594 0.0
H858 H 0.89472 0.84993 0.82612 0.0
H859 H 0.99791 0.84884 0.8014 0.0
C860 C 0.00212 0.87106 0.86104 0.0
C861 C 0.98756 0.88124 0.89752 0.0
C862 C 0.90666 0.83991 0.79999 0.0
C863 C 0.9556 0.85175 0.83434 0.0
C864 C 0.89076 0.83009 0.76467 0.0
C865 C 0.90579 0.81832 0.72951 0.0
C866 C 0.9378 0.83818 0.79995 0.0
C867 C 0.93679 0.81529 0.73191 0.0
C868 C 0.98629 0.85617 0.82956 0.0
C869 C 0.95703 0.8758 0.90158 0.0
N870 N 0.9518 0.8255 0.76628 0.0
N871 N 0.94198 0.86163 0.8702 0.0
H872 H 0.50904 0.54141 0.69116 0.0
H873 H 0.61571 0.66936 0.77636 0.0
H874 H 0.53937 0.61312 0.61196 0.0
H875 H 0.60502 0.58501 0.83954 0.0
H876 H 0.58782 0.64983 0.71575 0.0
H877 H 0.543 0.55809 0.74714 0.0
C878 C 0.52291 0.56069 0.68569 0.0
C879 C 0.52172 0.57587 0.64702 0.0
C880 C 0.59182 0.63555 0.74278 0.0
C881 C 0.56032 0.5952 0.7106 0.0
C882 C 0.6079 0.64663 0.77728 0.0
C883 C 0.61236 0.62897 0.8134 0.0
C884 C 0.57994 0.60672 0.7446 0.0
C885 C 0.60147 0.59972 0.81286 0.0
C886 C 0.54241 0.57008 0.7174 0.0
C887 C 0.54013 0.60061 0.64119 0.0
N888 N 0.58552 0.58965 0.77928 0.0
N889 N 0.55857 0.60967 0.67278 0.0
H890 H 0.4203 0.54718 0.63228 0.0
H891 H 0.30833 0.53925 0.82778 0.0
H892 H 0.37729 0.46675 0.67367 0.0
H893 H 0.3542 0.61909 0.79013 0.0
H894 H 0.32956 0.51349 0.76684 0.0
H895 H 0.39286 0.57494 0.68544 0.0
C896 C 0.405 0.53534 0.65215 0.0
C897 C 0.40118 0.50458 0.64814 0.0
C898 C 0.3348 0.53671 0.77167 0.0
C899 C 0.36967 0.53621 0.70975 0.0
C900 C 0.32273 0.5514 0.80647 0.0
C901 C 0.32976 0.58126 0.81421 0.0
C902 C 0.35415 0.55195 0.74445 0.0
C903 C 0.34809 0.5961 0.78522 0.0
C904 C 0.38929 0.55124 0.68272 0.0
C905 C 0.38103 0.49047 0.67546 0.0
N906 N 0.3599 0.5812 0.7518 0.0
N907 N 0.36613 0.50637 0.70517 0.0
H908 H 0.45349 0.39787 0.63426 0.0
H909 H 0.41948 0.43817 0.87629 0.0
H910 H 0.49229 0.47258 0.69905 0.0
H911 H 0.39045 0.35745 0.81511 0.0
H912 H 0.44061 0.45482 0.80906 0.0
H913 H 0.42426 0.3866 0.69746 0.0
C914 C 0.45529 0.41224 0.66157 0.0
C915 C 0.47483 0.43637 0.66138 0.0
C916 C 0.42942 0.43357 0.81031 0.0
C917 C 0.44236 0.42325 0.73426 0.0
C918 C 0.41744 0.424 0.84869 0.0
C919 C 0.40342 0.39622 0.85147 0.0
C920 C 0.42738 0.41524 0.77441 0.0
C921 C 0.40087 0.37909 0.81446 0.0
C922 C 0.43891 0.40566 0.6978 0.0
C923 C 0.4774 0.45371 0.6981 0.0
N924 N 0.41294 0.38878 0.77756 0.0
N925 N 0.46136 0.44678 0.73317 0.0
H926 H 0.62438 0.5454 0.65189 0.0
H927 H 0.65245 0.39974 0.79112 0.0
H928 H 0.57272 0.46515 0.64235 0.0
H929 H 0.6888 0.48561 0.82266 0.0
H930 H 0.63134 0.42089 0.72646 0.0
H931 H 0.65492 0.52175 0.70641 0.0
C932 C 0.61958 0.52269 0.66083 0.0
C933 C 0.59607 0.50704 0.64185 0.0
C934 C 0.64423 0.43503 0.74728 0.0
C935 C 0.63109 0.47985 0.70403 0.0
C936 C 0.65657 0.4229 0.78394 0.0
C937 C 0.67213 0.44105 0.81246 0.0
C938 C 0.64751 0.4655 0.73911 0.0
C939 C 0.67652 0.47099 0.80179 0.0
C940 C 0.63709 0.50921 0.69189 0.0
C941 C 0.59088 0.4778 0.65501 0.0
N942 N 0.66401 0.48238 0.76612 0.0
N943 N 0.60821 0.46515 0.68524 0.0
H944 H 0.58579 0.54404 0.33029 0.0
H945 H 0.60115 0.38825 0.2104 0.0
H946 H 0.53494 0.46632 0.3636 0.0
H947 H 0.64932 0.46738 0.17559 0.0
H948 H 0.57548 0.41659 0.26553 0.0
H949 H 0.60688 0.51697 0.27055 0.0
C950 C 0.57902 0.52125 0.32501 0.0
C951 C 0.55918 0.50709 0.35263 0.0
C952 C 0.59162 0.42775 0.24574 0.0
C953 C 0.58341 0.47589 0.28447 0.0
C954 C 0.60645 0.41153 0.21456 0.0
C955 C 0.62741 0.42549 0.18844 0.0
C956 C 0.59791 0.4581 0.2509 0.0
C957 C 0.63309 0.45581 0.19472 0.0
C958 C 0.59111 0.50578 0.2909 0.0
C959 C 0.55075 0.47777 0.34373 0.0
N960 N 0.61848 0.47107 0.22535 0.0
N961 N 0.56316 0.463 0.31066 0.0
H962 H 0.51759 0.62384 0.40585 0.0
H963 H 0.57499 0.57476 0.17678 0.0
H964 H 0.4886 0.5443 0.34145 0.0
H965 H 0.58543 0.66373 0.22565 0.0
H966 H 0.5484 0.5611 0.24122 0.0
H967 H 0.54705 0.63704 0.34359 0.0
C968 C 0.51728 0.60924 0.37857 0.0
C969 C 0.50065 0.5829 0.37887 0.0
C970 C 0.5565 0.58362 0.23784 0.0
C971 C 0.5344 0.59777 0.30782 0.0
C972 C 0.57163 0.59145 0.20104 0.0
C973 C 0.58214 0.62054 0.19561 0.0
C974 C 0.55185 0.60499 0.26953 0.0
C975 C 0.57781 0.64103 0.22859 0.0
C976 C 0.53415 0.61676 0.34312 0.0
C977 C 0.50108 0.56481 0.34264 0.0
N978 N 0.56285 0.63289 0.2641 0.0
N979 N 0.5178 0.57253 0.30865 0.0
H980 H 0.38842 0.43703 0.34807 0.0
H981 H 0.36679 0.58695 0.21543 0.0
H982 H 0.44173 0.51563 0.36596 0.0
H983 H 0.32438 0.50422 0.1823 0.0
H984 H 0.39115 0.56216 0.27498 0.0
H985 H 0.36257 0.46179 0.28972 0.0
C986 C 0.39482 0.45944 0.33961 0.0
C987 C 0.41718 0.47439 0.36212 0.0
C988 C 0.37643 0.54944 0.25479 0.0
C989 C 0.38748 0.50292 0.29578 0.0
C990 C 0.36227 0.56366 0.22109 0.0
C991 C 0.34361 0.54757 0.19388 0.0
C992 C 0.37178 0.51895 0.26143 0.0
C993 C 0.33887 0.51734 0.20229 0.0
C994 C 0.38 0.47358 0.30637 0.0
C995 C 0.42458 0.50334 0.34967 0.0
N996 N 0.35293 0.50397 0.2353 0.0
N997 N 0.40966 0.51673 0.31751 0.0
H998 H 0.4617 0.37858 0.44012 0.0
H999 H 0.46614 0.33533 0.195 0.0
H1000 H 0.52899 0.40997 0.35388 0.0
H1001 H 0.3856 0.3339 0.2692 0.0
H1002 H 0.49305 0.35388 0.2568 0.0
H1003 H 0.43693 0.35361 0.38107 0.0
C1004 C 0.47123 0.38027 0.40879 0.0
C1005 C 0.49711 0.39685 0.4018 0.0
C1006 C 0.46952 0.3493 0.25954 0.0
C1007 C 0.46935 0.36779 0.33438 0.0
C1008 C 0.45411 0.33879 0.22429 0.0
C1009 C 0.42342 0.33343 0.22667 0.0
C1010 C 0.45426 0.3542 0.29761 0.0
C1011 C 0.40923 0.33754 0.26586 0.0
C1012 C 0.45713 0.36596 0.37516 0.0
C1013 C 0.50884 0.3978 0.36064 0.0
N1014 N 0.42474 0.34785 0.29976 0.0
N1015 N 0.49485 0.38347 0.32844 0.0
loop_
_geom_bond_atom_site_label_1
_geom_bond_atom_site_label_2
_geom_bond_distance
_geom_bond_site_symmetry_2
_ccdc_geom_bond_type
Zn0 O2 1.933 1_556 S
Zn0 O20 1.985 . S
Zn0 O31 1.955 . S
Zn1 O2 1.911 . S
Zn1 O21 1.970 . S
Zn1 O37 1.945 . S
Zn1 O44 1.981 . S
O2 Zn0 1.933 1_554 S
O2 Zn1 1.911 . S
O2 H3 0.841 1_655 S
H3 O2 0.841 1_455 S
C4 O5 1.246 . S
C4 O33 1.276 1_545 S
O5 C4 1.246 . S
Zn6 O8 1.911 . S
Zn6 O23 1.970 . S
Zn6 O40 1.945 . S
Zn6 O47 1.981 . S
Zn7 O8 1.933 1_556 S
Zn7 O22 1.985 . S
Zn7 O29 1.955 . S
O8 Zn6 1.911 . S
O8 Zn7 1.933 1_554 S
O8 H9 0.841 1_455 S
H9 O8 0.841 1_655 S
Zn10 O11 1.933 1_556 S
Zn10 O24 1.985 . S
Zn10 O33 1.955 . S
O11 Zn10 1.933 1_554 S
O11 Zn12 1.911 . S
O11 H13 0.841 1_565 S
Zn12 O11 1.911 . S
Zn12 O25 1.970 . S
Zn12 O41 1.981 . S
Zn12 O43 1.945 . S
H13 O11 0.841 1_545 S
Zn14 O15 1.933 1_556 S
Zn14 O27 1.985 . S
Zn14 O35 1.955 . S
O15 Zn14 1.933 1_554 S
O15 H16 0.841 1_545 S
O15 Zn17 1.911 . S
H16 O15 0.841 1_565 S
Zn17 O15 1.911 . S
Zn17 O28 1.970 . S
Zn17 O38 1.981 . S
Zn17 O46 1.945 . S
C18 O19 1.246 . S
C18 O35 1.276 1_565 S
O19 C18 1.246 . S
O20 Zn0 1.985 . S
O20 C30 1.245 1_556 S
O21 Zn1 1.970 . S
O21 C30 1.263 . S
O22 Zn7 1.985 . S
O22 C34 1.245 1_556 S
O23 Zn6 1.970 . S
O23 C34 1.263 . S
O24 Zn10 1.985 . S
O24 C39 1.245 1_556 S
O25 Zn12 1.970 . S
O25 C39 1.263 . S
C26 O37 1.262 1_455 S
C26 O38 1.245 . S
O27 Zn14 1.985 . S
O27 C45 1.245 1_556 S
O28 Zn17 1.970 . S
O28 C45 1.263 . S
O29 Zn7 1.955 . S
O29 C48 1.276 1_455 S
C30 O20 1.245 1_554 S
C30 O21 1.263 . S
O31 Zn0 1.955 . S
O31 C50 1.276 1_655 S
C32 O40 1.262 1_655 S
C32 O41 1.245 . S
O33 C4 1.276 1_565 S
O33 Zn10 1.955 . S
C34 O22 1.245 1_554 S
C34 O23 1.263 . S
O35 Zn14 1.955 . S
O35 C18 1.276 1_545 S
C36 O43 1.262 1_545 S
C36 O44 1.245 . S
O37 Zn1 1.945 . S
O37 C26 1.262 1_655 S
O38 Zn17 1.981 . S
O38 C26 1.245 . S
C39 O24 1.245 1_554 S
C39 O25 1.263 . S
O40 Zn6 1.945 . S
O40 C32 1.262 1_455 S
O41 Zn12 1.981 . S
O41 C32 1.245 . S
C42 O46 1.262 1_565 S
C42 O47 1.245 . S
O43 Zn12 1.945 . S
O43 C36 1.262 1_565 S
O44 Zn1 1.981 . S
O44 C36 1.245 . S
C45 O27 1.245 1_554 S
C45 O28 1.263 . S
O46 Zn17 1.945 . S
O46 C42 1.262 1_545 S
O47 Zn6 1.981 . S
O47 C42 1.245 . S
C48 O29 1.276 1_655 S
C48 O49 1.246 . S
O49 C48 1.246 . S
C50 O31 1.276 1_455 S
C50 O51 1.246 . S
O51 C50 1.246 . S
Zn52 O54 1.933 . S
Zn52 O72 1.985 . S
Zn52 O83 1.955 . S
Zn53 O54 1.911 . S
Zn53 O73 1.970 . S
Zn53 O89 1.945 . S
Zn53 O96 1.981 . S
O54 Zn52 1.933 . S
O54 Zn53 1.911 . S
O54 H55 0.841 . S
H55 O54 0.841 . S
C56 O57 1.246 . S
C56 O85 1.276 . S
O57 C56 1.246 . S
Zn58 O60 1.911 . S
Zn58 O75 1.970 . S
Zn58 O92 1.945 . S
Zn58 O99 1.981 . S
Zn59 O60 1.933 . S
Zn59 O74 1.985 . S
Zn59 O81 1.955 . S
O60 Zn58 1.911 . S
O60 Zn59 1.933 . S
O60 H61 0.841 . S
H61 O60 0.841 . S
Zn62 O63 1.933 . S
Zn62 O76 1.985 . S
Zn62 O85 1.955 . S
O63 Zn62 1.933 . S
O63 Zn64 1.911 . S
O63 H65 0.841 . S
Zn64 O63 1.911 . S
Zn64 O77 1.970 . S
Zn64 O93 1.981 . S
Zn64 O95 1.945 . S
H65 O63 0.841 . S
Zn66 O67 1.933 . S
Zn66 O79 1.985 . S
Zn66 O87 1.955 . S
O67 Zn66 1.933 . S
O67 H68 0.841 . S
O67 Zn69 1.911 . S
H68 O67 0.841 . S
Zn69 O67 1.911 . S
Zn69 O80 1.970 . S
Zn69 O90 1.981 . S
Zn69 O98 1.945 . S
C70 O71 1.246 . S
C70 O87 1.276 . S
O71 C70 1.246 . S
O72 Zn52 1.985 . S
O72 C82 1.245 . S
O73 Zn53 1.970 . S
O73 C82 1.263 . S
O74 Zn59 1.985 . S
O74 C86 1.245 . S
O75 Zn58 1.970 . S
O75 C86 1.263 . S
O76 Zn62 1.985 . S
O76 C91 1.245 . S
O77 Zn64 1.970 . S
O77 C91 1.263 . S
C78 O89 1.262 . S
C78 O90 1.245 . S
O79 Zn66 1.985 . S
O79 C97 1.245 . S
O80 Zn69 1.970 . S
O80 C97 1.263 . S
O81 Zn59 1.955 . S
O81 C100 1.276 . S
C82 O72 1.245 . S
C82 O73 1.263 . S
O83 Zn52 1.955 . S
O83 C102 1.276 . S
C84 O92 1.262 . S
C84 O93 1.245 . S
O85 C56 1.276 . S
O85 Zn62 1.955 . S
C86 O74 1.245 . S
C86 O75 1.263 . S
O87 Zn66 1.955 . S
O87 C70 1.276 . S
C88 O95 1.262 . S
C88 O96 1.245 . S
O89 Zn53 1.945 . S
O89 C78 1.262 . S
O90 Zn69 1.981 . S
O90 C78 1.245 . S
C91 O76 1.245 . S
C91 O77 1.263 . S
O92 Zn58 1.945 . S
O92 C84 1.262 . S
O93 Zn64 1.981 . S
O93 C84 1.245 . S
C94 O98 1.262 . S
C94 O99 1.245 . S
O95 Zn64 1.945 . S
O95 C88 1.262 . S
O96 Zn53 1.981 . S
O96 C88 1.245 . S
C97 O79 1.245 . S
C97 O80 1.263 . S
O98 Zn69 1.945 . S
O98 C94 1.262 . S
O99 Zn58 1.981 . S
O99 C94 1.245 . S
C100 O81 1.276 . S
C100 O101 1.246 . S
O101 C100 1.246 . S
C102 O83 1.276 . S
C102 O103 1.246 . S
O103 C102 1.246 . S
C104 C105 1.391 . S
C104 C108 1.391 . S
C104 H146 0.948 . S
C105 C104 1.391 . S
C105 C106 1.391 . S
C106 C105 1.391 . S
C106 H162 0.947 . S
C106 C163 1.392 . S
C107 C108 1.391 . S
C107 C111 1.397 . S
C107 C163 1.419 . S
C108 C104 1.391 . S
C108 C107 1.391 . S
C108 C109 1.399 . S
C109 C108 1.399 . S
C109 C112 1.396 . S
C109 C121 1.453 . S
C109 C122 1.684 . S
H110 C134 0.948 . S
C111 C107 1.397 . S
C111 C112 1.394 . S
C111 C130 1.723 1_556 S
C112 C109 1.396 . S
C112 C111 1.394 . S
C112 C142 1.723 1_556 S
H113 C136 0.947 . S
H114 C137 0.948 . S
H115 C143 0.982 . S
H116 C144 0.979 . S
H117 C144 0.980 . S
H118 C144 0.983 . S
H119 C143 0.979 . S
H120 C143 0.977 . S
C121 C109 1.453 . S
C121 H150 0.982 . S
C121 H151 0.979 . S
C121 H152 0.977 . S
C122 C109 1.684 . S
C122 H147 0.979 . S
C122 H148 0.980 . S
C122 H149 0.983 . S
C123 C124 1.391 . S
C123 C128 1.391 . S
C123 H153 0.948 . S
C124 C123 1.391 . S
C124 C125 1.391 . S
C125 C124 1.391 . S
C125 C126 1.392 . S
C125 H154 0.947 . S
C126 C125 1.392 . S
C126 C127 1.419 . S
C126 H155 0.948 . S
C127 C126 1.419 . S
C127 C128 1.391 . S
C127 C131 1.397 . S
C128 C123 1.391 . S
C128 C127 1.391 . S
C128 C129 1.399 . S
C129 C128 1.399 . S
C129 C130 1.396 . S
C129 C132 1.453 . S
C129 C133 1.684 . S
C130 C111 1.723 1_554 S
C130 C129 1.396 . S
C130 C131 1.394 . S
C131 C127 1.397 . S
C131 C130 1.394 . S
C131 C141 1.723 . S
C132 C129 1.453 . S
C132 H156 0.982 . S
C132 H157 0.979 . S
C132 H158 0.977 . S
C133 C129 1.684 . S
C133 H159 0.979 . S
C133 H160 0.980 . S
C133 H161 0.983 . S
C134 H110 0.948 . S
C134 C135 1.391 . S
C134 C139 1.391 . S
C135 C134 1.391 . S
C135 C136 1.391 1_554 S
C136 H113 0.947 . S
C136 C135 1.391 1_556 S
C136 C137 1.392 . S
C137 H114 0.948 . S
C137 C136 1.392 . S
C137 C138 1.419 1_556 S
C138 C137 1.419 1_554 S
C138 C139 1.391 . S
C138 C142 1.397 . S
C139 C134 1.391 . S
C139 C138 1.391 . S
C139 C140 1.399 . S
C140 C139 1.399 . S
C140 C141 1.396 . S
C140 C143 1.453 . S
C140 C144 1.684 . S
C141 C131 1.723 . S
C141 C140 1.396 . S
C141 C142 1.394 . S
C142 C112 1.723 1_554 S
C142 C138 1.397 . S
C142 C141 1.394 . S
C143 H115 0.982 . S
C143 H119 0.979 . S
C143 H120 0.977 . S
C143 C140 1.453 . S
C144 H116 0.979 . S
C144 H117 0.980 . S
C144 H118 0.983 . S
C144 C140 1.684 . S
H145 C163 0.948 . S
H146 C104 0.948 . S
H147 C122 0.979 . S
H148 C122 0.980 . S
H149 C122 0.983 . S
H150 C121 0.982 . S
H151 C121 0.979 . S
H152 C121 0.977 . S
H153 C123 0.948 . S
H154 C125 0.947 . S
H155 C126 0.948 . S
H156 C132 0.982 . S
H157 C132 0.979 . S
H158 C132 0.977 . S
H159 C133 0.979 . S
H160 C133 0.980 . S
H161 C133 0.983 . S
H162 C106 0.947 . S
C163 C106 1.392 . S
C163 C107 1.419 . S
C163 H145 0.948 . S
C164 C165 1.391 . S
C164 C168 1.391 . S
C164 H206 0.948 . S
C165 C164 1.391 . S
C165 C166 1.391 . S
C166 C165 1.391 . S
C166 H222 0.947 . S
C166 C223 1.392 . S
C167 C168 1.391 . S
C167 C171 1.397 . S
C167 C223 1.419 . S
C168 C164 1.391 . S
C168 C167 1.391 . S
C168 C169 1.399 . S
C169 C168 1.399 . S
C169 C172 1.396 . S
C169 C181 1.453 . S
C169 C182 1.684 . S
H170 C194 0.948 . S
C171 C167 1.397 . S
C171 C172 1.394 . S
C171 C190 1.723 1_556 S
C172 C169 1.396 . S
C172 C171 1.394 . S
C172 C202 1.723 1_556 S
H173 C196 0.947 . S
H174 C197 0.948 . S
H175 C203 0.982 . S
H176 C204 0.979 . S
H177 C204 0.980 . S
H178 C204 0.983 . S
H179 C203 0.979 . S
H180 C203 0.977 . S
C181 C169 1.453 . S
C181 H210 0.982 . S
C181 H211 0.979 . S
C181 H212 0.977 . S
C182 C169 1.684 . S
C182 H207 0.979 . S
C182 H208 0.980 . S
C182 H209 0.983 . S
C183 C184 1.391 . S
C183 C188 1.391 . S
C183 H213 0.948 . S
C184 C183 1.391 . S
C184 C185 1.391 . S
C185 C184 1.391 . S
C185 C186 1.392 . S
C185 H214 0.947 . S
C186 C185 1.392 . S
C186 C187 1.419 . S
C186 H215 0.948 . S
C187 C186 1.419 . S
C187 C188 1.391 . S
C187 C191 1.397 . S
C188 C183 1.391 . S
C188 C187 1.391 . S
C188 C189 1.399 . S
C189 C188 1.399 . S
C189 C190 1.396 . S
C189 C192 1.453 . S
C189 C193 1.684 . S
C190 C171 1.723 1_554 S
C190 C189 1.396 . S
C190 C191 1.394 . S
C191 C187 1.397 . S
C191 C190 1.394 . S
C191 C201 1.723 . S
C192 C189 1.453 . S
C192 H216 0.982 . S
C192 H217 0.979 . S
C192 H218 0.977 . S
C193 C189 1.684 . S
C193 H219 0.979 . S
C193 H220 0.980 . S
C193 H221 0.983 . S
C194 H170 0.948 . S
C194 C195 1.391 . S
C194 C199 1.391 . S
C195 C194 1.391 . S
C195 C196 1.391 1_554 S
C196 H173 0.947 . S
C196 C195 1.391 1_556 S
C196 C197 1.392 . S
C197 H174 0.948 . S
C197 C196 1.392 . S
C197 C198 1.419 1_556 S
C198 C197 1.419 1_554 S
C198 C199 1.391 . S
C198 C202 1.397 . S
C199 C194 1.391 . S
C199 C198 1.391 . S
C199 C200 1.399 . S
C200 C199 1.399 . S
C200 C201 1.396 . S
C200 C203 1.453 . S
C200 C204 1.684 . S
C201 C191 1.723 . S
C201 C200 1.396 . S
C201 C202 1.394 . S
C202 C172 1.723 1_554 S
C202 C198 1.397 . S
C202 C201 1.394 . S
C203 H175 0.982 . S
C203 H179 0.979 . S
C203 H180 0.977 . S
C203 C200 1.453 . S
C204 H176 0.979 . S
C204 H177 0.980 . S
C204 H178 0.983 . S
C204 C200 1.684 . S
H205 C223 0.948 . S
H206 C164 0.948 . S
H207 C182 0.979 . S
H208 C182 0.980 . S
H209 C182 0.983 . S
H210 C181 0.982 . S
H211 C181 0.979 . S
H212 C181 0.977 . S
H213 C183 0.948 . S
H214 C185 0.947 . S
H215 C186 0.948 . S
H216 C192 0.982 . S
H217 C192 0.979 . S
H218 C192 0.977 . S
H219 C193 0.979 . S
H220 C193 0.980 . S
H221 C193 0.983 . S
H222 C166 0.947 . S
C223 C166 1.392 . S
C223 C167 1.419 . S
C223 H205 0.948 . S
C224 C225 1.391 . S
C224 C228 1.391 . S
C224 H266 0.948 . S
C225 C224 1.391 . S
C225 C226 1.391 . S
C226 C225 1.391 . S
C226 H282 0.947 . S
C226 C283 1.392 . S
C227 C228 1.391 . S
C227 C231 1.397 . S
C227 C283 1.419 . S
C228 C224 1.391 . S
C228 C227 1.391 . S
C228 C229 1.399 . S
C229 C228 1.399 . S
C229 C232 1.396 . S
C229 C241 1.453 . S
C229 C242 1.684 . S
H230 C254 0.948 . S
C231 C227 1.397 . S
C231 C232 1.394 . S
C231 C250 1.723 . S
C232 C229 1.396 . S
C232 C231 1.394 . S
C232 C262 1.723 . S
H233 C256 0.947 . S
H234 C257 0.948 . S
H235 C263 0.982 . S
H236 C264 0.979 . S
H237 C264 0.980 . S
H238 C264 0.983 . S
H239 C263 0.979 . S
H240 C263 0.977 . S
C241 C229 1.453 . S
C241 H270 0.982 . S
C241 H271 0.979 . S
C241 H272 0.977 . S
C242 C229 1.684 . S
C242 H267 0.979 . S
C242 H268 0.980 . S
C242 H269 0.983 . S
C243 C244 1.391 . S
C243 C248 1.391 . S
C243 H273 0.948 . S
C244 C243 1.391 . S
C244 C245 1.391 . S
C245 C244 1.391 . S
C245 C246 1.392 . S
C245 H274 0.947 . S
C246 C245 1.392 . S
C246 C247 1.419 . S
C246 H275 0.948 . S
C247 C246 1.419 . S
C247 C248 1.391 . S
C247 C251 1.397 . S
C248 C243 1.391 . S
C248 C247 1.391 . S
C248 C249 1.399 . S
C249 C248 1.399 . S
C249 C250 1.396 1_556 S
C249 C252 1.453 . S
C249 C253 1.684 . S
C250 C231 1.723 . S
C250 C249 1.396 1_554 S
C250 C251 1.394 1_554 S
C251 C247 1.397 . S
C251 C250 1.394 1_556 S
C251 C261 1.723 . S
C252 C249 1.453 . S
C252 H276 0.982 . S
C252 H277 0.979 . S
C252 H278 0.977 1_556 S
C253 C249 1.684 . S
C253 H279 0.979 . S
C253 H280 0.980 1_556 S
C253 H281 0.983 . S
C254 H230 0.948 . S
C254 C255 1.391 1_556 S
C254 C259 1.391 . S
C255 C254 1.391 1_554 S
C255 C256 1.391 . S
C256 H233 0.947 . S
C256 C255 1.391 . S
C256 C257 1.392 . S
C257 H234 0.948 . S
C257 C256 1.392 . S
C257 C258 1.419 . S
C258 C257 1.419 . S
C258 C259 1.391 1_554 S
C258 C262 1.397 . S
C259 C254 1.391 . S
C259 C258 1.391 1_556 S
C259 C260 1.399 . S
C260 C259 1.399 . S
C260 C261 1.396 . S
C260 C263 1.453 . S
C260 C264 1.684 . S
C261 C251 1.723 . S
C261 C260 1.396 . S
C261 C262 1.394 1_556 S
C262 C232 1.723 . S
C262 C258 1.397 . S
C262 C261 1.394 1_554 S
C263 H235 0.982 . S
C263 H239 0.979 . S
C263 H240 0.977 . S
C263 C260 1.453 . S
C264 H236 0.979 . S
C264 H237 0.980 . S
C264 H238 0.983 . S
C264 C260 1.684 . S
H265 C283 0.948 . S
H266 C224 0.948 . S
H267 C242 0.979 . S
H268 C242 0.980 . S
H269 C242 0.983 . S
H270 C241 0.982 . S
H271 C241 0.979 . S
H272 C241 0.977 . S
H273 C243 0.948 . S
H274 C245 0.947 . S
H275 C246 0.948 . S
H276 C252 0.982 . S
H277 C252 0.979 . S
H278 C252 0.977 1_554 S
H279 C253 0.979 . S
H280 C253 0.980 1_554 S
H281 C253 0.983 . S
H282 C226 0.947 . S
C283 C226 1.392 . S
C283 C227 1.419 . S
C283 H265 0.948 . S
C284 C285 1.391 . S
C284 C288 1.391 . S
C284 H326 0.948 . S
C285 C284 1.391 . S
C285 C286 1.391 . S
C286 C285 1.391 . S
C286 H342 0.947 . S
C286 C343 1.392 . S
C287 C288 1.391 . S
C287 C291 1.397 . S
C287 C343 1.419 . S
C288 C284 1.391 . S
C288 C287 1.391 . S
C288 C289 1.399 . S
C289 C288 1.399 . S
C289 C292 1.396 . S
C289 C301 1.453 . S
C289 C302 1.684 . S
H290 C314 0.948 . S
C291 C287 1.397 . S
C291 C292 1.394 . S
C291 C310 1.723 . S
C292 C289 1.396 . S
C292 C291 1.394 . S
C292 C322 1.723 . S
H293 C316 0.947 . S
H294 C317 0.948 . S
H295 C323 0.982 . S
H296 C324 0.979 . S
H297 C324 0.980 . S
H298 C324 0.983 . S
H299 C323 0.979 . S
H300 C323 0.977 . S
C301 C289 1.453 . S
C301 H330 0.982 . S
C301 H331 0.979 . S
C301 H332 0.977 . S
C302 C289 1.684 . S
C302 H327 0.979 . S
C302 H328 0.980 . S
C302 H329 0.983 . S
C303 C304 1.391 . S
C303 C308 1.391 . S
C303 H333 0.948 . S
C304 C303 1.391 . S
C304 C305 1.391 . S
C305 C304 1.391 . S
C305 C306 1.392 . S
C305 H334 0.947 . S
C306 C305 1.392 . S
C306 C307 1.419 . S
C306 H335 0.948 . S
C307 C306 1.419 . S
C307 C308 1.391 . S
C307 C311 1.397 . S
C308 C303 1.391 . S
C308 C307 1.391 . S
C308 C309 1.399 . S
C309 C308 1.399 . S
C309 C310 1.396 1_556 S
C309 C312 1.453 . S
C309 C313 1.684 . S
C310 C291 1.723 . S
C310 C309 1.396 1_554 S
C310 C311 1.394 1_554 S
C311 C307 1.397 . S
C311 C310 1.394 1_556 S
C311 C321 1.723 . S
C312 C309 1.453 . S
C312 H336 0.982 . S
C312 H337 0.979 . S
C312 H338 0.977 1_556 S
C313 C309 1.684 . S
C313 H339 0.979 . S
C313 H340 0.980 1_556 S
C313 H341 0.983 . S
C314 H290 0.948 . S
C314 C315 1.391 1_556 S
C314 C319 1.391 . S
C315 C314 1.391 1_554 S
C315 C316 1.391 . S
C316 H293 0.947 . S
C316 C315 1.391 . S
C316 C317 1.392 . S
C317 H294 0.948 . S
C317 C316 1.392 . S
C317 C318 1.419 . S
C318 C317 1.419 . S
C318 C319 1.391 1_554 S
C318 C322 1.397 . S
C319 C314 1.391 . S
C319 C318 1.391 1_556 S
C319 C320 1.399 . S
C320 C319 1.399 . S
C320 C321 1.396 . S
C320 C323 1.453 . S
C320 C324 1.684 . S
C321 C311 1.723 . S
C321 C320 1.396 . S
C321 C322 1.394 1_556 S
C322 C292 1.723 . S
C322 C318 1.397 . S
C322 C321 1.394 1_554 S
C323 H295 0.982 . S
C323 H299 0.979 . S
C323 H300 0.977 . S
C323 C320 1.453 . S
C324 H296 0.979 . S
C324 H297 0.980 . S
C324 H298 0.983 . S
C324 C320 1.684 . S
H325 C343 0.948 . S
H326 C284 0.948 . S
H327 C302 0.979 . S
H328 C302 0.980 . S
H329 C302 0.983 . S
H330 C301 0.982 . S
H331 C301 0.979 . S
H332 C301 0.977 . S
H333 C303 0.948 . S
H334 C305 0.947 . S
H335 C306 0.948 . S
H336 C312 0.982 . S
H337 C312 0.979 . S
H338 C312 0.977 1_554 S
H339 C313 0.979 . S
H340 C313 0.980 1_554 S
H341 C313 0.983 . S
H342 C286 0.947 . S
C343 C286 1.392 . S
C343 C287 1.419 . S
C343 H325 0.948 . S
C344 C345 1.391 . S
C344 C348 1.391 . S
C344 H386 0.948 . S
C345 C344 1.391 . S
C345 C346 1.391 . S
C346 C345 1.391 . S
C346 H402 0.947 . S
C346 C403 1.392 . S
C347 C348 1.391 . S
C347 C351 1.397 . S
C347 C403 1.419 . S
C348 C344 1.391 . S
C348 C347 1.391 . S
C348 C349 1.399 . S
C349 C348 1.399 . S
C349 C352 1.396 . S
C349 C361 1.453 . S
C349 C362 1.684 . S
H350 C374 0.948 . S
C351 C347 1.397 . S
C351 C352 1.394 . S
C351 C370 1.723 . S
C352 C349 1.396 . S
C352 C351 1.394 . S
C352 C382 1.723 . S
H353 C376 0.947 . S
H354 C377 0.948 . S
H355 C383 0.982 . S
H356 C384 0.979 . S
H357 C384 0.980 . S
H358 C384 0.983 . S
H359 C383 0.979 . S
H360 C383 0.977 . S
C361 C349 1.453 . S
C361 H390 0.982 . S
C361 H391 0.979 . S
C361 H392 0.977 . S
C362 C349 1.684 . S
C362 H387 0.979 . S
C362 H388 0.980 . S
C362 H389 0.983 . S
C363 C364 1.391 . S
C363 C368 1.391 . S
C363 H393 0.948 . S
C364 C363 1.391 . S
C364 C365 1.391 . S
C365 C364 1.391 . S
C365 C366 1.392 . S
C365 H394 0.947 . S
C366 C365 1.392 . S
C366 C367 1.419 . S
C366 H395 0.948 . S
C367 C366 1.419 . S
C367 C368 1.391 . S
C367 C371 1.397 . S
C368 C363 1.391 . S
C368 C367 1.391 . S
C368 C369 1.399 . S
C369 C368 1.399 . S
C369 C370 1.396 . S
C369 C372 1.453 . S
C369 C373 1.684 . S
C370 C351 1.723 . S
C370 C369 1.396 . S
C370 C371 1.394 . S
C371 C367 1.397 . S
C371 C370 1.394 . S
C371 C381 1.723 . S
C372 C369 1.453 . S
C372 H396 0.982 . S
C372 H397 0.979 . S
C372 H398 0.977 . S
C373 C369 1.684 . S
C373 H399 0.979 . S
C373 H400 0.980 . S
C373 H401 0.983 . S
C374 H350 0.948 . S
C374 C375 1.391 . S
C374 C379 1.391 . S
C375 C374 1.391 . S
C375 C376 1.391 . S
C376 H353 0.947 . S
C376 C375 1.391 . S
C376 C377 1.392 . S
C377 H354 0.948 . S
C377 C376 1.392 . S
C377 C378 1.419 . S
C378 C377 1.419 . S
C378 C379 1.391 . S
C378 C382 1.397 . S
C379 C374 1.391 . S
C379 C378 1.391 . S
C379 C380 1.399 . S
C380 C379 1.399 . S
C380 C381 1.396 . S
C380 C383 1.453 . S
C380 C384 1.684 . S
C381 C371 1.723 . S
C381 C380 1.396 . S
C381 C382 1.394 . S
C382 C352 1.723 . S
C382 C378 1.397 . S
C382 C381 1.394 . S
C383 H355 0.982 . S
C383 H359 0.979 . S
C383 H360 0.977 . S
C383 C380 1.453 . S
C384 H356 0.979 . S
C384 H357 0.980 . S
C384 H358 0.983 . S
C384 C380 1.684 . S
H385 C403 0.948 . S
H386 C344 0.948 . S
H387 C362 0.979 . S
H388 C362 0.980 . S
H389 C362 0.983 . S
H390 C361 0.982 . S
H391 C361 0.979 . S
H392 C361 0.977 . S
H393 C363 0.948 . S
H394 C365 0.947 . S
H395 C366 0.948 . S
H396 C372 0.982 . S
H397 C372 0.979 . S
H398 C372 0.977 . S
H399 C373 0.979 . S
H400 C373 0.980 . S
H401 C373 0.983 . S
H402 C346 0.947 . S
C403 C346 1.392 . S
C403 C347 1.419 . S
C403 H385 0.948 . S
C404 C405 1.391 . S
C404 C408 1.391 . S
C404 H446 0.948 . S
C405 C404 1.391 . S
C405 C406 1.391 . S
C406 C405 1.391 . S
C406 H462 0.947 . S
C406 C463 1.392 . S
C407 C408 1.391 . S
C407 C411 1.397 . S
C407 C463 1.419 . S
C408 C404 1.391 . S
C408 C407 1.391 . S
C408 C409 1.399 . S
C409 C408 1.399 . S
C409 C412 1.396 . S
C409 C421 1.453 . S
C409 C422 1.684 . S
H410 C434 0.948 . S
C411 C407 1.397 . S
C411 C412 1.394 . S
C411 C430 1.723 . S
C412 C409 1.396 . S
C412 C411 1.394 . S
C412 C442 1.723 . S
H413 C436 0.947 . S
H414 C437 0.948 . S
H415 C443 0.982 . S
H416 C444 0.979 . S
H417 C444 0.980 . S
H418 C444 0.983 . S
H419 C443 0.979 . S
H420 C443 0.977 . S
C421 C409 1.453 . S
C421 H450 0.982 . S
C421 H451 0.979 . S
C421 H452 0.977 . S
C422 C409 1.684 . S
C422 H447 0.979 . S
C422 H448 0.980 . S
C422 H449 0.983 . S
C423 C424 1.391 . S
C423 C428 1.391 . S
C423 H453 0.948 . S
C424 C423 1.391 . S
C424 C425 1.391 . S
C425 C424 1.391 . S
C425 C426 1.392 . S
C425 H454 0.947 . S
C426 C425 1.392 . S
C426 C427 1.419 . S
C426 H455 0.948 . S
C427 C426 1.419 . S
C427 C428 1.391 . S
C427 C431 1.397 . S
C428 C423 1.391 . S
C428 C427 1.391 . S
C428 C429 1.399 . S
C429 C428 1.399 . S
C429 C430 1.396 . S
C429 C432 1.453 . S
C429 C433 1.684 . S
C430 C411 1.723 . S
C430 C429 1.396 . S
C430 C431 1.394 . S
C431 C427 1.397 . S
C431 C430 1.394 . S
C431 C441 1.723 . S
C432 C429 1.453 . S
C432 H456 0.982 . S
C432 H457 0.979 . S
C432 H458 0.977 . S
C433 C429 1.684 . S
C433 H459 0.979 . S
C433 H460 0.980 . S
C433 H461 0.983 . S
C434 H410 0.948 . S
C434 C435 1.391 . S
C434 C439 1.391 . S
C435 C434 1.391 . S
C435 C436 1.391 . S
C436 H413 0.947 . S
C436 C435 1.391 . S
C436 C437 1.392 . S
C437 H414 0.948 . S
C437 C436 1.392 . S
C437 C438 1.419 . S
C438 C437 1.419 . S
C438 C439 1.391 . S
C438 C442 1.397 . S
C439 C434 1.391 . S
C439 C438 1.391 . S
C439 C440 1.399 . S
C440 C439 1.399 . S
C440 C441 1.396 . S
C440 C443 1.453 . S
C440 C444 1.684 . S
C441 C431 1.723 . S
C441 C440 1.396 . S
C441 C442 1.394 . S
C442 C412 1.723 . S
C442 C438 1.397 . S
C442 C441 1.394 . S
C443 H415 0.982 . S
C443 H419 0.979 . S
C443 H420 0.977 . S
C443 C440 1.453 . S
C444 H416 0.979 . S
C444 H417 0.980 . S
C444 H418 0.983 . S
C444 C440 1.684 . S
H445 C463 0.948 . S
H446 C404 0.948 . S
H447 C422 0.979 . S
H448 C422 0.980 . S
H449 C422 0.983 . S
H450 C421 0.982 . S
H451 C421 0.979 . S
H452 C421 0.977 . S
H453 C423 0.948 . S
H454 C425 0.947 . S
H455 C426 0.948 . S
H456 C432 0.982 . S
H457 C432 0.979 . S
H458 C432 0.977 . S
H459 C433 0.979 . S
H460 C433 0.980 . S
H461 C433 0.983 . S
H462 C406 0.947 . S
C463 C406 1.392 . S
C463 C407 1.419 . S
C463 H445 0.948 . S
C464 C465 1.391 . S
C464 C468 1.391 . S
C464 H506 0.948 . S
C465 C464 1.391 . S
C465 C466 1.391 . S
C466 C465 1.391 . S
C466 H522 0.947 . S
C466 C523 1.392 . S
C467 C468 1.391 . S
C467 C471 1.397 . S
C467 C523 1.419 . S
C468 C464 1.391 . S
C468 C467 1.391 . S
C468 C469 1.399 . S
C469 C468 1.399 . S
C469 C472 1.396 . S
C469 C481 1.453 . S
C469 C482 1.684 . S
H470 C494 0.948 . S
C471 C467 1.397 . S
C471 C472 1.394 . S
C471 C490 1.723 . S
C472 C469 1.396 . S
C472 C471 1.394 . S
C472 C502 1.723 . S
H473 C496 0.947 . S
H474 C497 0.948 . S
H475 C503 0.982 . S
H476 C504 0.979 . S
H477 C504 0.980 . S
H478 C504 0.983 . S
H479 C503 0.979 . S
H480 C503 0.977 . S
C481 C469 1.453 . S
C481 H510 0.982 . S
C481 H511 0.979 . S
C481 H512 0.977 . S
C482 C469 1.684 . S
C482 H507 0.979 . S
C482 H508 0.980 . S
C482 H509 0.983 . S
C483 C484 1.391 . S
C483 C488 1.391 . S
C483 H513 0.948 . S
C484 C483 1.391 . S
C484 C485 1.391 . S
C485 C484 1.391 . S
C485 C486 1.392 . S
C485 H514 0.947 . S
C486 C485 1.392 . S
C486 C487 1.419 . S
C486 H515 0.948 . S
C487 C486 1.419 . S
C487 C488 1.391 . S
C487 C491 1.397 . S
C488 C483 1.391 . S
C488 C487 1.391 . S
C488 C489 1.399 . S
C489 C488 1.399 . S
C489 C490 1.396 . S
C489 C492 1.453 . S
C489 C493 1.684 . S
C490 C471 1.723 . S
C490 C489 1.396 . S
C490 C491 1.394 . S
C491 C487 1.397 . S
C491 C490 1.394 . S
C491 C501 1.723 . S
C492 C489 1.453 . S
C492 H516 0.982 . S
C492 H517 0.979 . S
C492 H518 0.977 . S
C493 C489 1.684 . S
C493 H519 0.979 . S
C493 H520 0.980 . S
C493 H521 0.983 . S
C494 H470 0.948 . S
C494 C495 1.391 . S
C494 C499 1.391 . S
C495 C494 1.391 . S
C495 C496 1.391 . S
C496 H473 0.947 . S
C496 C495 1.391 . S
C496 C497 1.392 . S
C497 H474 0.948 . S
C497 C496 1.392 . S
C497 C498 1.419 . S
C498 C497 1.419 . S
C498 C499 1.391 . S
C498 C502 1.397 . S
C499 C494 1.391 . S
C499 C498 1.391 . S
C499 C500 1.399 . S
C500 C499 1.399 . S
C500 C501 1.396 . S
C500 C503 1.453 . S
C500 C504 1.684 . S
C501 C491 1.723 . S
C501 C500 1.396 . S
C501 C502 1.394 . S
C502 C472 1.723 . S
C502 C498 1.397 . S
C502 C501 1.394 . S
C503 H475 0.982 . S
C503 H479 0.979 . S
C503 H480 0.977 . S
C503 C500 1.453 . S
C504 H476 0.979 . S
C504 H477 0.980 . S
C504 H478 0.983 . S
C504 C500 1.684 . S
H505 C523 0.948 . S
H506 C464 0.948 . S
H507 C482 0.979 . S
H508 C482 0.980 . S
H509 C482 0.983 . S
H510 C481 0.982 . S
H511 C481 0.979 . S
H512 C481 0.977 . S
H513 C483 0.948 . S
H514 C485 0.947 . S
H515 C486 0.948 . S
H516 C492 0.982 . S
H517 C492 0.979 . S
H518 C492 0.977 . S
H519 C493 0.979 . S
H520 C493 0.980 . S
H521 C493 0.983 . S
H522 C466 0.947 . S
C523 C466 1.392 . S
C523 C467 1.419 . S
C523 H505 0.948 . S
C524 C525 1.391 . S
C524 C528 1.391 . S
C524 H566 0.948 . S
C525 C524 1.391 . S
C525 C526 1.391 . S
C526 C525 1.391 . S
C526 H582 0.947 . S
C526 C583 1.392 . S
C527 C528 1.391 . S
C527 C531 1.397 . S
C527 C583 1.419 . S
C528 C524 1.391 . S
C528 C527 1.391 . S
C528 C529 1.399 . S
C529 C528 1.399 . S
C529 C532 1.396 . S
C529 C541 1.453 . S
C529 C542 1.684 . S
H530 C554 0.948 . S
C531 C527 1.397 . S
C531 C532 1.394 . S
C531 C550 1.723 . S
C532 C529 1.396 . S
C532 C531 1.394 . S
C532 C562 1.723 . S
H533 C556 0.947 . S
H534 C557 0.948 . S
H535 C563 0.982 . S
H536 C564 0.979 . S
H537 C564 0.980 . S
H538 C564 0.983 . S
H539 C563 0.979 . S
H540 C563 0.977 . S
C541 C529 1.453 . S
C541 H570 0.982 . S
C541 H571 0.979 . S
C541 H572 0.977 . S
C542 C529 1.684 . S
C542 H567 0.979 . S
C542 H568 0.980 . S
C542 H569 0.983 . S
C543 C544 1.391 . S
C543 C548 1.391 . S
C543 H573 0.948 . S
C544 C543 1.391 . S
C544 C545 1.391 . S
C545 C544 1.391 . S
C545 C546 1.392 . S
C545 H574 0.947 . S
C546 C545 1.392 . S
C546 C547 1.419 . S
C546 H575 0.948 . S
C547 C546 1.419 . S
C547 C548 1.391 . S
C547 C551 1.397 . S
C548 C543 1.391 . S
C548 C547 1.391 . S
C548 C549 1.399 . S
C549 C548 1.399 . S
C549 C550 1.396 . S
C549 C552 1.453 . S
C549 C553 1.684 . S
C550 C531 1.723 . S
C550 C549 1.396 . S
C550 C551 1.394 . S
C551 C547 1.397 . S
C551 C550 1.394 . S
C551 C561 1.723 . S
C552 C549 1.453 . S
C552 H576 0.982 . S
C552 H577 0.979 . S
C552 H578 0.977 . S
C553 C549 1.684 . S
C553 H579 0.979 . S
C553 H580 0.980 . S
C553 H581 0.983 . S
C554 H530 0.948 . S
C554 C555 1.391 . S
C554 C559 1.391 . S
C555 C554 1.391 . S
C555 C556 1.391 . S
C556 H533 0.947 . S
C556 C555 1.391 . S
C556 C557 1.392 . S
C557 H534 0.948 . S
C557 C556 1.392 . S
C557 C558 1.419 . S
C558 C557 1.419 . S
C558 C559 1.391 . S
C558 C562 1.397 . S
C559 C554 1.391 . S
C559 C558 1.391 . S
C559 C560 1.399 . S
C560 C559 1.399 . S
C560 C561 1.396 . S
C560 C563 1.453 . S
C560 C564 1.684 . S
C561 C551 1.723 . S
C561 C560 1.396 . S
C561 C562 1.394 . S
C562 C532 1.723 . S
C562 C558 1.397 . S
C562 C561 1.394 . S
C563 H535 0.982 . S
C563 H539 0.979 . S
C563 H540 0.977 . S
C563 C560 1.453 . S
C564 H536 0.979 . S
C564 H537 0.980 . S
C564 H538 0.983 . S
C564 C560 1.684 . S
H565 C583 0.948 . S
H566 C524 0.948 . S
H567 C542 0.979 . S
H568 C542 0.980 . S
H569 C542 0.983 . S
H570 C541 0.982 . S
H571 C541 0.979 . S
H572 C541 0.977 . S
H573 C543 0.948 . S
H574 C545 0.947 . S
H575 C546 0.948 . S
H576 C552 0.982 . S
H577 C552 0.979 . S
H578 C552 0.977 . S
H579 C553 0.979 . S
H580 C553 0.980 . S
H581 C553 0.983 . S
H582 C526 0.947 . S
C583 C526 1.392 . S
C583 C527 1.419 . S
C583 H565 0.948 . S
H584 C590 0.930 . S
H585 C594 0.930 . S
H586 C599 0.929 . S
H587 C597 0.929 . S
H588 C592 0.929 . S
H589 C598 0.929 . S
C590 H584 0.930 . S
C590 C591 1.367 1_556 S
C590 C598 1.378 . S
C591 C590 1.367 1_554 S
C591 C599 1.433 . S
C592 H588 0.929 . S
C592 C594 1.378 . S
C592 C596 1.350 . S
C593 C596 1.463 . S
C593 C598 1.350 1_554 S
C593 N601 1.427 . S
C594 H585 0.930 . S
C594 C592 1.378 . S
C594 C595 1.367 . S
C595 C594 1.367 . S
C595 C597 1.433 1_554 S
C596 C592 1.350 . S
C596 C593 1.463 . S
C596 N600 1.427 1_554 S
C597 H587 0.929 . S
C597 C595 1.433 1_556 S
C597 N600 1.384 . S
C598 H589 0.929 . S
C598 C590 1.378 . S
C598 C593 1.350 1_556 S
C599 H586 0.929 . S
C599 C591 1.433 . S
C599 N601 1.384 . S
N600 C596 1.427 1_556 S
N600 C597 1.384 . S
N601 C593 1.427 . S
N601 C599 1.384 . S
H602 C608 0.930 . S
H603 C612 0.930 . S
H604 C617 0.929 . S
H605 C615 0.929 . S
H606 C610 0.929 . S
H607 C616 0.929 . S
C608 H602 0.930 . S
C608 C609 1.367 1_556 S
C608 C616 1.378 . S
C609 C608 1.367 1_554 S
C609 C617 1.433 . S
C610 H606 0.929 . S
C610 C612 1.378 . S
C610 C614 1.350 . S
C611 C614 1.463 . S
C611 C616 1.350 1_554 S
C611 N619 1.427 . S
C612 H603 0.930 . S
C612 C610 1.378 . S
C612 C613 1.367 . S
C613 C612 1.367 . S
C613 C615 1.433 1_554 S
C614 C610 1.350 . S
C614 C611 1.463 . S
C614 N618 1.427 1_554 S
C615 H605 0.929 . S
C615 C613 1.433 1_556 S
C615 N618 1.384 . S
C616 H607 0.929 . S
C616 C608 1.378 . S
C616 C611 1.350 1_556 S
C617 H604 0.929 . S
C617 C609 1.433 . S
C617 N619 1.384 . S
N618 C614 1.427 1_556 S
N618 C615 1.384 . S
N619 C611 1.427 . S
N619 C617 1.384 . S
H620 C626 0.930 . S
H621 C630 0.930 . S
H622 C635 0.929 . S
H623 C633 0.929 . S
H624 C628 0.929 . S
H625 C634 0.929 . S
C626 H620 0.930 . S
C626 C627 1.367 1_556 S
C626 C634 1.378 . S
C627 C626 1.367 1_554 S
C627 C635 1.433 . S
C628 H624 0.929 . S
C628 C630 1.378 . S
C628 C632 1.350 . S
C629 C632 1.463 . S
C629 C634 1.350 1_554 S
C629 N637 1.427 . S
C630 H621 0.930 . S
C630 C628 1.378 . S
C630 C631 1.367 . S
C631 C630 1.367 . S
C631 C633 1.433 1_554 S
C632 C628 1.350 . S
C632 C629 1.463 . S
C632 N636 1.427 1_554 S
C633 H623 0.929 . S
C633 C631 1.433 1_556 S
C633 N636 1.384 . S
C634 H625 0.929 . S
C634 C626 1.378 . S
C634 C629 1.350 1_556 S
C635 H622 0.929 . S
C635 C627 1.433 . S
C635 N637 1.384 . S
N636 C632 1.427 1_556 S
N636 C633 1.384 . S
N637 C629 1.427 . S
N637 C635 1.384 . S
H638 C644 0.930 . S
H639 C648 0.930 . S
H640 C653 0.929 . S
H641 C651 0.929 . S
H642 C646 0.929 . S
H643 C652 0.929 . S
C644 H638 0.930 . S
C644 C645 1.367 1_556 S
C644 C652 1.378 . S
C645 C644 1.367 1_554 S
C645 C653 1.433 . S
C646 H642 0.929 . S
C646 C648 1.378 . S
C646 C650 1.350 . S
C647 C650 1.463 . S
C647 C652 1.350 1_554 S
C647 N655 1.427 . S
C648 H639 0.930 . S
C648 C646 1.378 . S
C648 C649 1.367 . S
C649 C648 1.367 . S
C649 C651 1.433 1_554 S
C650 C646 1.350 . S
C650 C647 1.463 . S
C650 N654 1.427 1_554 S
C651 H641 0.929 . S
C651 C649 1.433 1_556 S
C651 N654 1.384 . S
C652 H643 0.929 . S
C652 C644 1.378 . S
C652 C647 1.350 1_556 S
C653 H640 0.929 . S
C653 C645 1.433 . S
C653 N655 1.384 . S
N654 C650 1.427 1_556 S
N654 C651 1.384 . S
N655 C647 1.427 . S
N655 C653 1.384 . S
H656 C662 0.930 . S
H657 C666 0.930 . S
H658 C671 0.929 . S
H659 C669 0.929 . S
H660 C664 0.929 . S
H661 C670 0.929 . S
C662 H656 0.930 . S
C662 C663 1.367 . S
C662 C670 1.378 . S
C663 C662 1.367 . S
C663 C671 1.433 . S
C664 H660 0.929 . S
C664 C666 1.378 . S
C664 C668 1.350 . S
C665 C668 1.463 . S
C665 C670 1.350 . S
C665 N673 1.427 . S
C666 H657 0.930 . S
C666 C664 1.378 . S
C666 C667 1.367 . S
C667 C666 1.367 . S
C667 C669 1.433 . S
C668 C664 1.350 . S
C668 C665 1.463 . S
C668 N672 1.427 . S
C669 H659 0.929 . S
C669 C667 1.433 . S
C669 N672 1.384 . S
C670 H661 0.929 . S
C670 C662 1.378 . S
C670 C665 1.350 . S
C671 H658 0.929 . S
C671 C663 1.433 . S
C671 N673 1.384 . S
N672 C668 1.427 . S
N672 C669 1.384 . S
N673 C665 1.427 . S
N673 C671 1.384 . S
H674 C680 0.930 . S
H675 C684 0.930 . S
H676 C689 0.929 . S
H677 C687 0.929 . S
H678 C682 0.929 . S
H679 C688 0.929 . S
C680 H674 0.930 . S
C680 C681 1.367 . S
C680 C688 1.378 . S
C681 C680 1.367 . S
C681 C689 1.433 . S
C682 H678 0.929 . S
C682 C684 1.378 . S
C682 C686 1.350 . S
C683 C686 1.463 . S
C683 C688 1.350 . S
C683 N691 1.427 . S
C684 H675 0.930 . S
C684 C682 1.378 . S
C684 C685 1.367 . S
C685 C684 1.367 . S
C685 C687 1.433 . S
C686 C682 1.350 . S
C686 C683 1.463 . S
C686 N690 1.427 . S
C687 H677 0.929 . S
C687 C685 1.433 . S
C687 N690 1.384 . S
C688 H679 0.929 . S
C688 C680 1.378 . S
C688 C683 1.350 . S
C689 H676 0.929 . S
C689 C681 1.433 . S
C689 N691 1.384 . S
N690 C686 1.427 . S
N690 C687 1.384 . S
N691 C683 1.427 . S
N691 C689 1.384 . S
H692 C698 0.930 . S
H693 C702 0.930 . S
H694 C707 0.929 . S
H695 C705 0.929 . S
H696 C700 0.929 . S
H697 C706 0.929 . S
C698 H692 0.930 . S
C698 C699 1.367 . S
C698 C706 1.378 . S
C699 C698 1.367 . S
C699 C707 1.433 . S
C700 H696 0.929 . S
C700 C702 1.378 . S
C700 C704 1.350 . S
C701 C704 1.463 . S
C701 C706 1.350 . S
C701 N709 1.427 . S
C702 H693 0.930 . S
C702 C700 1.378 . S
C702 C703 1.367 . S
C703 C702 1.367 . S
C703 C705 1.433 . S
C704 C700 1.350 . S
C704 C701 1.463 . S
C704 N708 1.427 . S
C705 H695 0.929 . S
C705 C703 1.433 . S
C705 N708 1.384 . S
C706 H697 0.929 . S
C706 C698 1.378 . S
C706 C701 1.350 . S
C707 H694 0.929 . S
C707 C699 1.433 . S
C707 N709 1.384 . S
N708 C704 1.427 . S
N708 C705 1.384 . S
N709 C701 1.427 . S
N709 C707 1.384 . S
H710 C716 0.930 . S
H711 C720 0.930 . S
H712 C725 0.929 . S
H713 C723 0.929 . S
H714 C718 0.929 . S
H715 C724 0.929 . S
C716 H710 0.930 . S
C716 C717 1.367 . S
C716 C724 1.378 . S
C717 C716 1.367 . S
C717 C725 1.433 . S
C718 H714 0.929 . S
C718 C720 1.378 . S
C718 C722 1.350 . S
C719 C722 1.463 . S
C719 C724 1.350 . S
C719 N727 1.427 . S
C720 H711 0.930 . S
C720 C718 1.378 . S
C720 C721 1.367 . S
C721 C720 1.367 . S
C721 C723 1.433 . S
C722 C718 1.350 . S
C722 C719 1.463 . S
C722 N726 1.427 . S
C723 H713 0.929 . S
C723 C721 1.433 . S
C723 N726 1.384 . S
C724 H715 0.929 . S
C724 C716 1.378 . S
C724 C719 1.350 . S
C725 H712 0.929 . S
C725 C717 1.433 . S
C725 N727 1.384 . S
N726 C722 1.427 . S
N726 C723 1.384 . S
N727 C719 1.427 . S
N727 C725 1.384 . S
H728 C734 0.928 1_655 S
H729 C738 0.930 . S
H730 C743 0.929 . S
H731 C741 0.929 . S
H732 C736 0.929 . S
H733 C742 0.929 . S
C734 H728 0.928 1_455 S
C734 C735 1.367 . S
C734 C742 1.378 . S
C735 C734 1.367 . S
C735 C743 1.433 . S
C736 H732 0.929 . S
C736 C738 1.378 . S
C736 C740 1.350 . S
C737 C740 1.463 . S
C737 C742 1.350 . S
C737 N745 1.427 . S
C738 H729 0.930 . S
C738 C736 1.378 . S
C738 C739 1.367 . S
C739 C738 1.367 . S
C739 C741 1.433 . S
C740 C736 1.350 . S
C740 C737 1.463 . S
C740 N744 1.427 . S
C741 H731 0.929 . S
C741 C739 1.433 . S
C741 N744 1.384 . S
C742 H733 0.929 . S
C742 C734 1.378 . S
C742 C737 1.350 . S
C743 H730 0.929 . S
C743 C735 1.433 . S
C743 N745 1.384 . S
N744 C740 1.427 . S
N744 C741 1.384 . S
N745 C737 1.427 . S
N745 C743 1.384 . S
H746 C752 0.930 . S
H747 C756 0.930 . S
H748 C761 0.929 . S
H749 C759 0.929 . S
H750 C754 0.929 . S
H751 C760 0.929 . S
C752 H746 0.930 . S
C752 C753 1.367 . S
C752 C760 1.378 . S
C753 C752 1.367 . S
C753 C761 1.433 . S
C754 H750 0.929 . S
C754 C756 1.378 . S
C754 C758 1.350 . S
C755 C758 1.463 . S
C755 C760 1.350 . S
C755 N763 1.427 . S
C756 H747 0.930 . S
C756 C754 1.378 . S
C756 C757 1.367 . S
C757 C756 1.367 . S
C757 C759 1.433 . S
C758 C754 1.350 . S
C758 C755 1.463 . S
C758 N762 1.427 . S
C759 H749 0.929 . S
C759 C757 1.433 . S
C759 N762 1.384 . S
C760 H751 0.929 . S
C760 C752 1.378 . S
C760 C755 1.350 . S
C761 H748 0.929 . S
C761 C753 1.433 . S
C761 N763 1.384 . S
N762 C758 1.427 . S
N762 C759 1.384 . S
N763 C755 1.427 . S
N763 C761 1.384 . S
H764 C770 0.930 . S
H765 C774 0.930 . S
H766 C779 0.929 1_455 S
H767 C777 0.929 . S
H768 C772 0.929 . S
H769 C778 0.929 . S
C770 H764 0.930 . S
C770 C771 1.367 . S
C770 C778 1.378 . S
C771 C770 1.367 . S
C771 C779 1.433 . S
C772 H768 0.929 . S
C772 C774 1.378 . S
C772 C776 1.350 . S
C773 C776 1.463 . S
C773 C778 1.350 . S
C773 N781 1.427 . S
C774 H765 0.930 . S
C774 C772 1.378 . S
C774 C775 1.367 . S
C775 C774 1.367 . S
C775 C777 1.433 . S
C776 C772 1.350 . S
C776 C773 1.463 . S
C776 N780 1.427 . S
C777 H767 0.929 . S
C777 C775 1.433 . S
C777 N780 1.384 . S
C778 H769 0.929 . S
C778 C770 1.378 . S
C778 C773 1.350 . S
C779 H766 0.929 1_655 S
C779 C771 1.433 . S
C779 N781 1.384 . S
N780 C776 1.427 . S
N780 C777 1.384 . S
N781 C773 1.427 . S
N781 C779 1.384 . S
H782 C788 0.930 . S
H783 C792 0.930 . S
H784 C797 0.929 1_545 S
H785 C795 0.929 . S
H786 C790 0.929 . S
H787 C796 0.929 . S
C788 H782 0.930 . S
C788 C789 1.367 . S
C788 C796 1.378 . S
C789 C788 1.367 . S
C789 C797 1.433 . S
C790 H786 0.929 . S
C790 C792 1.378 . S
C790 C794 1.350 . S
C791 C794 1.463 . S
C791 C796 1.350 . S
C791 N799 1.427 . S
C792 H783 0.930 . S
C792 C790 1.378 . S
C792 C793 1.367 . S
C793 C792 1.367 . S
C793 C795 1.433 . S
C794 C790 1.350 . S
C794 C791 1.463 . S
C794 N798 1.427 . S
C795 H785 0.929 . S
C795 C793 1.433 . S
C795 N798 1.384 . S
C796 H787 0.929 . S
C796 C788 1.378 . S
C796 C791 1.350 . S
C797 H784 0.929 1_565 S
C797 C789 1.433 . S
C797 N799 1.384 . S
N798 C794 1.427 . S
N798 C795 1.384 . S
N799 C791 1.427 . S
N799 C797 1.384 . S
H800 C806 0.930 . S
H801 C810 0.930 . S
H802 C815 0.929 1_545 S
H803 C813 0.929 . S
H804 C808 0.929 . S
H805 C814 0.929 . S
C806 H800 0.930 . S
C806 C807 1.367 . S
C806 C814 1.378 . S
C807 C806 1.367 . S
C807 C815 1.433 . S
C808 H804 0.929 . S
C808 C810 1.378 . S
C808 C812 1.350 . S
C809 C812 1.463 . S
C809 C814 1.350 . S
C809 N817 1.427 . S
C810 H801 0.930 . S
C810 C808 1.378 . S
C810 C811 1.367 . S
C811 C810 1.367 . S
C811 C813 1.433 . S
C812 C808 1.350 . S
C812 C809 1.463 . S
C812 N816 1.427 . S
C813 H803 0.929 . S
C813 C811 1.433 . S
C813 N816 1.384 . S
C814 H805 0.929 . S
C814 C806 1.378 . S
C814 C809 1.350 . S
C815 H802 0.929 1_565 S
C815 C807 1.433 . S
C815 N817 1.384 . S
N816 C812 1.427 . S
N816 C813 1.384 . S
N817 C809 1.427 . S
N817 C815 1.384 . S
H818 C824 0.930 . S
H819 C828 0.930 . S
H820 C833 0.929 1_655 S
H821 C831 0.929 . S
H822 C826 0.929 . S
H823 C832 0.929 . S
C824 H818 0.930 . S
C824 C825 1.367 . S
C824 C832 1.378 . S
C825 C824 1.367 . S
C825 C833 1.433 . S
C826 H822 0.929 . S
C826 C828 1.378 . S
C826 C830 1.350 . S
C827 C830 1.463 . S
C827 C832 1.350 . S
C827 N835 1.427 . S
C828 H819 0.930 . S
C828 C826 1.378 . S
C828 C829 1.367 . S
C829 C828 1.367 . S
C829 C831 1.433 . S
C830 C826 1.350 . S
C830 C827 1.463 . S
C830 N834 1.427 . S
C831 H821 0.929 . S
C831 C829 1.433 . S
C831 N834 1.384 . S
C832 H823 0.929 . S
C832 C824 1.378 . S
C832 C827 1.350 . S
C833 H820 0.929 1_455 S
C833 C825 1.433 . S
C833 N835 1.384 . S
N834 C830 1.427 . S
N834 C831 1.384 . S
N835 C827 1.427 . S
N835 C833 1.384 . S
H836 C842 0.930 1_565 S
H837 C846 0.930 . S
H838 C851 0.929 . S
H839 C849 0.929 . S
H840 C844 0.929 . S
H841 C850 0.899 1_565 S
C842 H836 0.930 1_545 S
C842 C843 1.367 . S
C842 C850 1.378 . S
C843 C842 1.367 . S
C843 C851 1.433 . S
C844 H840 0.929 . S
C844 C846 1.378 . S
C844 C848 1.350 . S
C845 C848 1.463 . S
C845 C850 1.350 . S
C845 N853 1.427 . S
C846 H837 0.930 . S
C846 C844 1.378 . S
C846 C847 1.367 . S
C847 C846 1.367 . S
C847 C849 1.433 . S
C848 C844 1.350 . S
C848 C845 1.463 . S
C848 N852 1.427 . S
C849 H839 0.929 . S
C849 C847 1.433 . S
C849 N852 1.384 . S
C850 H841 0.899 1_545 S
C850 C842 1.378 . S
C850 C845 1.350 . S
C851 H838 0.929 . S
C851 C843 1.433 . S
C851 N853 1.384 . S
N852 C848 1.427 . S
N852 C849 1.384 . S
N853 C845 1.427 . S
N853 C851 1.384 . S
H854 C860 0.930 . S
H855 C864 0.930 . S
H856 C869 0.929 . S
H857 C867 0.929 . S
H858 C862 0.929 . S
H859 C868 0.929 . S
C860 H854 0.930 . S
C860 C861 1.367 . S
C860 C868 1.378 . S
C861 C860 1.367 . S
C861 C869 1.433 . S
C862 H858 0.929 . S
C862 C864 1.378 . S
C862 C866 1.350 . S
C863 C866 1.463 . S
C863 C868 1.350 . S
C863 N871 1.427 . S
C864 H855 0.930 . S
C864 C862 1.378 . S
C864 C865 1.367 . S
C865 C864 1.367 . S
C865 C867 1.433 . S
C866 C862 1.350 . S
C866 C863 1.463 . S
C866 N870 1.427 . S
C867 H857 0.929 . S
C867 C865 1.433 . S
C867 N870 1.384 . S
C868 H859 0.929 . S
C868 C860 1.378 . S
C868 C863 1.350 . S
C869 H856 0.929 . S
C869 C861 1.433 . S
C869 N871 1.384 . S
N870 C866 1.427 . S
N870 C867 1.384 . S
N871 C863 1.427 . S
N871 C869 1.384 . S
H872 C878 0.930 . S
H873 C882 0.930 . S
H874 C887 0.929 . S
H875 C885 0.929 . S
H876 C880 0.929 . S
H877 C886 0.929 . S
C878 H872 0.930 . S
C878 C879 1.367 . S
C878 C886 1.378 . S
C879 C878 1.367 . S
C879 C887 1.433 . S
C880 H876 0.929 . S
C880 C882 1.378 . S
C880 C884 1.350 . S
C881 C884 1.463 . S
C881 C886 1.350 . S
C881 N889 1.427 . S
C882 H873 0.930 . S
C882 C880 1.378 . S
C882 C883 1.367 . S
C883 C882 1.367 . S
C883 C885 1.433 . S
C884 C880 1.350 . S
C884 C881 1.463 . S
C884 N888 1.427 . S
C885 H875 0.929 . S
C885 C883 1.433 . S
C885 N888 1.384 . S
C886 H877 0.929 . S
C886 C878 1.378 . S
C886 C881 1.350 . S
C887 H874 0.929 . S
C887 C879 1.433 . S
C887 N889 1.384 . S
N888 C884 1.427 . S
N888 C885 1.384 . S
N889 C881 1.427 . S
N889 C887 1.384 . S
H890 C896 0.930 . S
H891 C900 0.930 . S
H892 C905 0.929 . S
H893 C903 0.929 . S
H894 C898 0.929 . S
H895 C904 0.929 . S
C896 H890 0.930 . S
C896 C897 1.367 . S
C896 C904 1.378 . S
C897 C896 1.367 . S
C897 C905 1.433 . S
C898 H894 0.929 . S
C898 C900 1.378 . S
C898 C902 1.350 . S
C899 C902 1.463 . S
C899 C904 1.350 . S
C899 N907 1.427 . S
C900 H891 0.930 . S
C900 C898 1.378 . S
C900 C901 1.367 . S
C901 C900 1.367 . S
C901 C903 1.433 . S
C902 C898 1.350 . S
C902 C899 1.463 . S
C902 N906 1.427 . S
C903 H893 0.929 . S
C903 C901 1.433 . S
C903 N906 1.384 . S
C904 H895 0.929 . S
C904 C896 1.378 . S
C904 C899 1.350 . S
C905 H892 0.929 . S
C905 C897 1.433 . S
C905 N907 1.384 . S
N906 C902 1.427 . S
N906 C903 1.384 . S
N907 C899 1.427 . S
N907 C905 1.384 . S
H908 C914 0.930 . S
H909 C918 0.930 . S
H910 C923 0.929 . S
H911 C921 0.929 . S
H912 C916 0.929 . S
H913 C922 0.929 . S
C914 H908 0.930 . S
C914 C915 1.367 . S
C914 C922 1.378 . S
C915 C914 1.367 . S
C915 C923 1.433 . S
C916 H912 0.929 . S
C916 C918 1.378 . S
C916 C920 1.350 . S
C917 C920 1.463 . S
C917 C922 1.350 . S
C917 N925 1.427 . S
C918 H909 0.930 . S
C918 C916 1.378 . S
C918 C919 1.367 . S
C919 C918 1.367 . S
C919 C921 1.433 . S
C920 C916 1.350 . S
C920 C917 1.463 . S
C920 N924 1.427 . S
C921 H911 0.929 . S
C921 C919 1.433 . S
C921 N924 1.384 . S
C922 H913 0.929 . S
C922 C914 1.378 . S
C922 C917 1.350 . S
C923 H910 0.929 . S
C923 C915 1.433 . S
C923 N925 1.384 . S
N924 C920 1.427 . S
N924 C921 1.384 . S
N925 C917 1.427 . S
N925 C923 1.384 . S
H926 C932 0.930 . S
H927 C936 0.930 . S
H928 C941 0.929 . S
H929 C939 0.929 . S
H930 C934 0.929 . S
H931 C940 0.929 . S
C932 H926 0.930 . S
C932 C933 1.367 . S
C932 C940 1.378 . S
C933 C932 1.367 . S
C933 C941 1.433 . S
C934 H930 0.929 . S
C934 C936 1.378 . S
C934 C938 1.350 . S
C935 C938 1.463 . S
C935 C940 1.350 . S
C935 N943 1.427 . S
C936 H927 0.930 . S
C936 C934 1.378 . S
C936 C937 1.367 . S
C937 C936 1.367 . S
C937 C939 1.433 . S
C938 C934 1.350 . S
C938 C935 1.463 . S
C938 N942 1.427 . S
C939 H929 0.929 . S
C939 C937 1.433 . S
C939 N942 1.384 . S
C940 H931 0.929 . S
C940 C932 1.378 . S
C940 C935 1.350 . S
C941 H928 0.929 . S
C941 C933 1.433 . S
C941 N943 1.384 . S
N942 C938 1.427 . S
N942 C939 1.384 . S
N943 C935 1.427 . S
N943 C941 1.384 . S
H944 C950 0.930 . S
H945 C954 0.930 . S
H946 C959 0.929 . S
H947 C957 0.929 . S
H948 C952 0.929 . S
H949 C958 0.929 . S
C950 H944 0.930 . S
C950 C951 1.367 . S
C950 C958 1.378 . S
C951 C950 1.367 . S
C951 C959 1.433 . S
C952 H948 0.929 . S
C952 C954 1.378 . S
C952 C956 1.350 . S
C953 C956 1.463 . S
C953 C958 1.350 . S
C953 N961 1.427 . S
C954 H945 0.930 . S
C954 C952 1.378 . S
C954 C955 1.367 . S
C955 C954 1.367 . S
C955 C957 1.433 . S
C956 C952 1.350 . S
C956 C953 1.463 . S
C956 N960 1.427 . S
C957 H947 0.929 . S
C957 C955 1.433 . S
C957 N960 1.384 . S
C958 H949 0.929 . S
C958 C950 1.378 . S
C958 C953 1.350 . S
C959 H946 0.929 . S
C959 C951 1.433 . S
C959 N961 1.384 . S
N960 C956 1.427 . S
N960 C957 1.384 . S
N961 C953 1.427 . S
N961 C959 1.384 . S
H962 C968 0.930 . S
H963 C972 0.930 . S
H964 C977 0.929 . S
H965 C975 0.929 . S
H966 C970 0.929 . S
H967 C976 0.929 . S
C968 H962 0.930 . S
C968 C969 1.367 . S
C968 C976 1.378 . S
C969 C968 1.367 . S
C969 C977 1.433 . S
C970 H966 0.929 . S
C970 C972 1.378 . S
C970 C974 1.350 . S
C971 C974 1.463 . S
C971 C976 1.350 . S
C971 N979 1.427 . S
C972 H963 0.930 . S
C972 C970 1.378 . S
C972 C973 1.367 . S
C973 C972 1.367 . S
C973 C975 1.433 . S
C974 C970 1.350 . S
C974 C971 1.463 . S
C974 N978 1.427 . S
C975 H965 0.929 . S
C975 C973 1.433 . S
C975 N978 1.384 . S
C976 H967 0.929 . S
C976 C968 1.378 . S
C976 C971 1.350 . S
C977 H964 0.929 . S
C977 C969 1.433 . S
C977 N979 1.384 . S
N978 C974 1.427 . S
N978 C975 1.384 . S
N979 C971 1.427 . S
N979 C977 1.384 . S
H980 C986 0.930 . S
H981 C990 0.930 . S
H982 C995 0.929 . S
H983 C993 0.929 . S
H984 C988 0.929 . S
H985 C994 0.929 . S
C986 H980 0.930 . S
C986 C987 1.367 . S
C986 C994 1.378 . S
C987 C986 1.367 . S
C987 C995 1.433 . S
C988 H984 0.929 . S
C988 C990 1.378 . S
C988 C992 1.350 . S
C989 C992 1.463 . S
C989 C994 1.350 . S
C989 N997 1.427 . S
C990 H981 0.930 . S
C990 C988 1.378 . S
C990 C991 1.367 . S
C991 C990 1.367 . S
C991 C993 1.433 . S
C992 C988 1.350 . S
C992 C989 1.463 . S
C992 N996 1.427 . S
C993 H983 0.929 . S
C993 C991 1.433 . S
C993 N996 1.384 . S
C994 H985 0.929 . S
C994 C986 1.378 . S
C994 C989 1.350 . S
C995 H982 0.929 . S
C995 C987 1.433 . S
C995 N997 1.384 . S
N996 C992 1.427 . S
N996 C993 1.384 . S
N997 C989 1.427 . S
N997 C995 1.384 . S
H998 C1004 0.930 . S
H999 C1008 0.930 . S
H1000 C1013 0.929 . S
H1001 C1011 0.929 . S
H1002 C1006 0.929 . S
H1003 C1012 0.929 . S
C1004 H998 0.930 . S
C1004 C1005 1.367 . S
C1004 C1012 1.378 . S
C1005 C1004 1.367 . S
C1005 C1013 1.433 . S
C1006 H1002 0.929 . S
C1006 C1008 1.378 . S
C1006 C1010 1.350 . S
C1007 C1010 1.463 . S
C1007 C1012 1.350 . S
C1007 N1015 1.427 . S
C1008 H999 0.930 . S
C1008 C1006 1.378 . S
C1008 C1009 1.367 . S
C1009 C1008 1.367 . S
C1009 C1011 1.433 . S
C1010 C1006 1.350 . S
C1010 C1007 1.463 . S
C1010 N1014 1.427 . S
C1011 H1001 0.929 . S
C1011 C1009 1.433 . S
C1011 N1014 1.384 . S
C1012 H1003 0.929 . S
C1012 C1004 1.378 . S
C1012 C1007 1.350 . S
C1013 H1000 0.929 . S
C1013 C1005 1.433 . S
C1013 N1015 1.384 . S
N1014 C1010 1.427 . S
N1014 C1011 1.384 . S
N1015 C1007 1.427 . S
N1015 C1013 1.384 . S
C591 C45 1.626 . S
C595 C135 1.585 . S
C609 C30 1.631 . S
C613 C195 1.595 . S
C627 C39 1.630 . S
C631 C255 1.644 . S
C649 C315 1.638 . S
C645 C34 1.629 . S
C663 C97 1.633 . S
C667 C375 1.592 . S
C685 C435 1.586 . S
C681 C82 1.629 . S
C703 C495 1.643 . S
C699 C91 1.633 . S
C721 C555 1.643 . S
C717 C86 1.625 . S
C739 C484 1.560 . S
C735 C26 1.480 . S
C757 C544 1.560 . S
C753 C36 1.494 . S
C775 C345 1.477 . S
C771 C32 1.500 . S
C793 C405 1.482 . S
C789 C42 1.500 . S
C807 C18 1.570 . S
C811 C424 1.607 . S
C829 C465 1.617 . S
C825 C50 1.565 . S
C843 C4 1.565 . S
C847 C525 1.627 . S
C861 C48 1.570 . S
C865 C364 1.604 . S
C883 C244 1.561 . S
C879 C78 1.498 . S
C897 C88 1.497 . S
C901 C304 1.565 . S
C919 C105 1.467 . S
C915 C84 1.483 . S
C937 C165 1.475 . S
C933 C94 1.489 . S
C955 C184 1.596 . S
C951 C70 1.563 . S
C973 C225 1.617 . S
C969 C102 1.560 . S
C987 C56 1.561 . S
C991 C285 1.622 . S
C1005 C100 1.569 . S
C1009 C124 1.607 . S
