# Generated by pormake.
# Topology ctn, (3,4)-cn, num edge types: 1
# Building blocks:
#     Node 0, Type 0, BuildingBlock: MIDCAF_clean_linker_0, # of connection points: 3
#     Node 1, Type 0, BuildingBlock: MIDCAF_clean_linker_0, # of connection points: 3
#     Node 2, Type 0, BuildingBlock: MIDCAF_clean_linker_0, # of connection points: 3
#     Node 3, Type 0, BuildingBlock: MIDCAF_clean_linker_0, # of connection points: 3
#     Node 4, Type 0, BuildingBlock: MIDCAF_clean_linker_0, # of connection points: 3
#     Node 5, Type 0, BuildingBlock: MIDCAF_clean_linker_0, # of connection points: 3
#     Node 6, Type 0, BuildingBlock: MIDCAF_clean_linker_0, # of connection points: 3
#     Node 7, Type 0, BuildingBlock: MIDCAF_clean_linker_0, # of connection points: 3
#     Node 8, Type 0, BuildingBlock: MIDCAF_clean_linker_0, # of connection points: 3
#     Node 9, Type 0, BuildingBlock: MIDCAF_clean_linker_0, # of connection points: 3
#     Node 10, Type 0, BuildingBlock: MIDCAF_clean_linker_0, # of connection points: 3
#     Node 11, Type 0, BuildingBlock: MIDCAF_clean_linker_0, # of connection points: 3
#     Node 12, Type 0, BuildingBlock: MIDCAF_clean_linker_0, # of connection points: 3
#     Node 13, Type 0, BuildingBlock: MIDCAF_clean_linker_0, # of connection points: 3
#     Node 14, Type 0, BuildingBlock: MIDCAF_clean_linker_0, # of connection points: 3
#     Node 15, Type 0, BuildingBlock: MIDCAF_clean_linker_0, # of connection points: 3
#     Node 16, Type 1, BuildingBlock: TATPOV_clean_sbu_0, # of connection points: 4
#     Node 17, Type 1, BuildingBlock: TATPOV_clean_sbu_0, # of connection points: 4
#     Node 18, Type 1, BuildingBlock: TATPOV_clean_sbu_0, # of connection points: 4
#     Node 19, Type 1, BuildingBlock: TATPOV_clean_sbu_0, # of connection points: 4
#     Node 20, Type 1, BuildingBlock: TATPOV_clean_sbu_0, # of connection points: 4
#     Node 21, Type 1, BuildingBlock: TATPOV_clean_sbu_0, # of connection points: 4
#     Node 22, Type 1, BuildingBlock: TATPOV_clean_sbu_0, # of connection points: 4
#     Node 23, Type 1, BuildingBlock: TATPOV_clean_sbu_0, # of connection points: 4
#     Node 24, Type 1, BuildingBlock: TATPOV_clean_sbu_0, # of connection points: 4
#     Node 25, Type 1, BuildingBlock: TATPOV_clean_sbu_0, # of connection points: 4
#     Node 26, Type 1, BuildingBlock: TATPOV_clean_sbu_0, # of connection points: 4
#     Node 27, Type 1, BuildingBlock: TATPOV_clean_sbu_0, # of connection points: 4
#     Edge 28, Type (0, 1), BuildingBlock: CIFDUS_clean_linker_0, # of connection points: 2
#     Edge 29, Type (0, 1), BuildingBlock: CIFDUS_clean_linker_0, # of connection points: 2
#     Edge 30, Type (0, 1), BuildingBlock: CIFDUS_clean_linker_0, # of connection points: 2
#     Edge 31, Type (0, 1), BuildingBlock: CIFDUS_clean_linker_0, # of connection points: 2
#     Edge 32, Type (0, 1), BuildingBlock: CIFDUS_clean_linker_0, # of connection points: 2
#     Edge 33, Type (0, 1), BuildingBlock: CIFDUS_clean_linker_0, # of connection points: 2
#     Edge 34, Type (0, 1), BuildingBlock: CIFDUS_clean_linker_0, # of connection points: 2
#     Edge 35, Type (0, 1), BuildingBlock: CIFDUS_clean_linker_0, # of connection points: 2
#     Edge 36, Type (0, 1), BuildingBlock: CIFDUS_clean_linker_0, # of connection points: 2
#     Edge 37, Type (0, 1), BuildingBlock: CIFDUS_clean_linker_0, # of connection points: 2
#     Edge 38, Type (0, 1), BuildingBlock: CIFDUS_clean_linker_0, # of connection points: 2
#     Edge 39, Type (0, 1), BuildingBlock: CIFDUS_clean_linker_0, # of connection points: 2
#     Edge 40, Type (0, 1), BuildingBlock: CIFDUS_clean_linker_0, # of connection points: 2
#     Edge 41, Type (0, 1), BuildingBlock: CIFDUS_clean_linker_0, # of connection points: 2
#     Edge 42, Type (0, 1), BuildingBlock: CIFDUS_clean_linker_0, # of connection points: 2
#     Edge 43, Type (0, 1), BuildingBlock: CIFDUS_clean_linker_0, # of connection points: 2
#     Edge 44, Type (0, 1), BuildingBlock: CIFDUS_clean_linker_0, # of connection points: 2
#     Edge 45, Type (0, 1), BuildingBlock: CIFDUS_clean_linker_0, # of connection points: 2
#     Edge 46, Type (0, 1), BuildingBlock: CIFDUS_clean_linker_0, # of connection points: 2
#     Edge 47, Type (0, 1), BuildingBlock: CIFDUS_clean_linker_0, # of connection points: 2
#     Edge 48, Type (0, 1), BuildingBlock: CIFDUS_clean_linker_0, # of connection points: 2
#     Edge 49, Type (0, 1), BuildingBlock: CIFDUS_clean_linker_0, # of connection points: 2
#     Edge 50, Type (0, 1), BuildingBlock: CIFDUS_clean_linker_0, # of connection points: 2
#     Edge 51, Type (0, 1), BuildingBlock: CIFDUS_clean_linker_0, # of connection points: 2
#     Edge 52, Type (0, 1), BuildingBlock: CIFDUS_clean_linker_0, # of connection points: 2
#     Edge 53, Type (0, 1), BuildingBlock: CIFDUS_clean_linker_0, # of connection points: 2
#     Edge 54, Type (0, 1), BuildingBlock: CIFDUS_clean_linker_0, # of connection points: 2
#     Edge 55, Type (0, 1), BuildingBlock: CIFDUS_clean_linker_0, # of connection points: 2
#     Edge 56, Type (0, 1), BuildingBlock: CIFDUS_clean_linker_0, # of connection points: 2
#     Edge 57, Type (0, 1), BuildingBlock: CIFDUS_clean_linker_0, # of connection points: 2
#     Edge 58, Type (0, 1), BuildingBlock: CIFDUS_clean_linker_0, # of connection points: 2
#     Edge 59, Type (0, 1), BuildingBlock: CIFDUS_clean_linker_0, # of connection points: 2
#     Edge 60, Type (0, 1), BuildingBlock: CIFDUS_clean_linker_0, # of connection points: 2
#     Edge 61, Type (0, 1), BuildingBlock: CIFDUS_clean_linker_0, # of connection points: 2
#     Edge 62, Type (0, 1), BuildingBlock: CIFDUS_clean_linker_0, # of connection points: 2
#     Edge 63, Type (0, 1), BuildingBlock: CIFDUS_clean_linker_0, # of connection points: 2
#     Edge 64, Type (0, 1), BuildingBlock: CIFDUS_clean_linker_0, # of connection points: 2
#     Edge 65, Type (0, 1), BuildingBlock: CIFDUS_clean_linker_0, # of connection points: 2
#     Edge 66, Type (0, 1), BuildingBlock: CIFDUS_clean_linker_0, # of connection points: 2
#     Edge 67, Type (0, 1), BuildingBlock: CIFDUS_clean_linker_0, # of connection points: 2
#     Edge 68, Type (0, 1), BuildingBlock: CIFDUS_clean_linker_0, # of connection points: 2
#     Edge 69, Type (0, 1), BuildingBlock: CIFDUS_clean_linker_0, # of connection points: 2
#     Edge 70, Type (0, 1), BuildingBlock: CIFDUS_clean_linker_0, # of connection points: 2
#     Edge 71, Type (0, 1), BuildingBlock: CIFDUS_clean_linker_0, # of connection points: 2
#     Edge 72, Type (0, 1), BuildingBlock: CIFDUS_clean_linker_0, # of connection points: 2
#     Edge 73, Type (0, 1), BuildingBlock: CIFDUS_clean_linker_0, # of connection points: 2
#     Edge 74, Type (0, 1), BuildingBlock: CIFDUS_clean_linker_0, # of connection points: 2
#     Edge 75, Type (0, 1), BuildingBlock: CIFDUS_clean_linker_0, # of connection points: 2
# Relax obj value: 0.003
# Max RMSD: 0.048
# Mean RMSD: 0.021
data_MOF--net-ctn--node1-TATPOV_clean_sbu_0--node2-MIDCAF_clean_linker_0--edge1-CIFDUS_clean_linker_0
_symmetry_space_group_name_H-M    P1
_symmetry_Int_Tables_number       1
_symmetry_cell_setting            triclinic
loop_
_symmetry_equiv_pos_as_xyz
'x, y, z'
_cell_length_a     59.977868
_cell_length_b     60.054968
_cell_length_c     59.981512
_cell_angle_alpha  91.124954
_cell_angle_beta   91.102869
_cell_angle_gamma 91.172644
loop_
_atom_site_label
_atom_site_type_symbol
_atom_site_fract_x
_atom_site_fract_y
_atom_site_fract_z
_atom_type_partial_charge
C0 C 0.95857 0.03852 0.07615 0.0
C1 C 0.95944 0.02136 0.09174 0.0
C2 C 0.97697 0.0062 0.09057 0.0
C3 C 0.99316 0.00809 0.07416 0.0
H4 H 0.04615 0.97594 0.04735 0.0
H5 H 0.07497 0.9482 0.04455 0.0
H6 H 0.10634 0.98568 0.99261 0.0
H7 H 0.07759 0.01374 0.99552 0.0
H8 H 0.05243 0.05655 0.97604 0.0
H9 H 0.0507 0.08823 0.95115 0.0
H10 H 0.99193 0.11101 0.98443 0.0
H11 H 0.99377 0.0798 0.00944 0.0
H12 H 0.97351 0.05394 0.04813 0.0
H13 H 0.94548 0.05066 0.07674 0.0
H14 H 0.97801 0.99264 0.10216 0.0
H15 H 0.00634 0.99604 0.07375 0.0
N16 N 0.02588 0.0122 0.03929 0.0
N17 N 0.04075 0.03131 0.00899 0.0
N18 N 0.00884 0.04443 0.02657 0.0
C19 C 0.04162 0.01402 0.02334 0.0
C20 C 0.02437 0.0466 0.01049 0.0
C21 C 0.00944 0.02733 0.04105 0.0
C22 C 0.05942 0.99717 0.02163 0.0
C23 C 0.05916 0.97839 0.03532 0.0
C24 C 0.07566 0.96235 0.03364 0.0
C25 C 0.09294 0.96465 0.0183 0.0
C26 C 0.09337 0.9835 0.00474 0.0
C27 C 0.07679 0.99953 0.00634 0.0
C28 C 0.02331 0.06557 0.9949 0.0
C29 C 0.03913 0.0683 0.97807 0.0
C30 C 0.03808 0.08641 0.96369 0.0
C31 C 0.02125 0.10225 0.96585 0.0
C32 C 0.00534 0.09936 0.98251 0.0
C33 C 0.00635 0.08131 0.99682 0.0
C34 C 0.99228 0.02525 0.05854 0.0
C35 C 0.97477 0.04046 0.05979 0.0
C36 C 0.22985 0.65002 0.25636 0.0
C37 C 0.21067 0.6453 0.24316 0.0
C38 C 0.20434 0.66061 0.22687 0.0
C39 C 0.21719 0.67998 0.2236 0.0
H40 H 0.22648 0.73313 0.18031 0.0
H41 H 0.22049 0.75735 0.14866 0.0
H42 H 0.27196 0.80262 0.17464 0.0
H43 H 0.27834 0.77827 0.20591 0.0
H44 H 0.31265 0.7617 0.24257 0.0
H45 H 0.34823 0.76565 0.26259 0.0
H46 H 0.33906 0.69984 0.28923 0.0
H47 H 0.30318 0.69611 0.26977 0.0
H48 H 0.25736 0.6722 0.26362 0.0
H49 H 0.23498 0.6388 0.26933 0.0
H50 H 0.18972 0.65739 0.21634 0.0
H51 H 0.21201 0.69127 0.21072 0.0
N52 N 0.24527 0.71954 0.21705 0.0
N53 N 0.27774 0.74066 0.22591 0.0
N54 N 0.27006 0.70784 0.24498 0.0
C55 C 0.25862 0.7377 0.21352 0.0
C56 C 0.2836 0.72579 0.24166 0.0
C57 C 0.25084 0.70458 0.23288 0.0
C58 C 0.25315 0.75352 0.19554 0.0
C59 C 0.23637 0.74836 0.17942 0.0
C60 C 0.23282 0.76234 0.16131 0.0
C61 C 0.24592 0.78182 0.15894 0.0
C62 C 0.26189 0.78751 0.17568 0.0
C63 C 0.26551 0.77353 0.19368 0.0
C64 C 0.30499 0.72856 0.25444 0.0
C65 C 0.31814 0.74808 0.25275 0.0
C66 C 0.33866 0.75029 0.26414 0.0
C67 C 0.34666 0.73299 0.27742 0.0
C68 C 0.33336 0.7136 0.27937 0.0
C69 C 0.31277 0.71144 0.26808 0.0
C70 C 0.23661 0.68449 0.2366 0.0
C71 C 0.24264 0.66931 0.25313 0.0
C72 C 0.00713 0.36562 0.01528 0.0
C73 C 0.98914 0.35595 0.00296 0.0
C74 C 0.96783 0.36486 0.00523 0.0
C75 C 0.96476 0.38378 0.01866 0.0
H76 H 0.92645 0.43907 0.01767 0.0
H77 H 0.89903 0.4642 0.0027 0.0
H78 H 0.92584 0.51752 0.04517 0.0
H79 H 0.95338 0.49225 0.06053 0.0
H80 H 0.99073 0.47902 0.09724 0.0
H81 H 0.01558 0.48914 0.12855 0.0
H82 H 0.05627 0.43251 0.11336 0.0
H83 H 0.03123 0.42203 0.08238 0.0
H84 H 0.01831 0.39179 0.03783 0.0
H85 H 0.02372 0.35901 0.01383 0.0
H86 H 0.95371 0.35786 0.99575 0.0
H87 H 0.94824 0.39069 0.01947 0.0
N88 N 0.96283 0.42865 0.03719 0.0
N89 N 0.97545 0.4555 0.06362 0.0
N90 N 0.99496 0.4223 0.05875 0.0
C91 C 0.96044 0.44878 0.04748 0.0
C92 C 0.99271 0.44231 0.06943 0.0
C93 C 0.98 0.41532 0.04269 0.0
C94 C 0.94239 0.46366 0.04012 0.0
C95 C 0.92651 0.45608 0.02402 0.0
C96 C 0.91079 0.47051 0.01535 0.0
C97 C 0.91052 0.49292 0.02251 0.0
C98 C 0.92565 0.50033 0.03936 0.0
C99 C 0.94147 0.48584 0.04808 0.0
C100 C 0.00876 0.44952 0.08741 0.0
C101 C 0.00506 0.46878 0.10043 0.0
C102 C 0.01941 0.47471 0.11832 0.0
C103 C 0.03783 0.46155 0.12355 0.0
C104 C 0.04201 0.44279 0.11 0.0
C105 C 0.02764 0.43682 0.09219 0.0
C106 C 0.98289 0.39398 0.03037 0.0
C107 C 0.004 0.38434 0.02903 0.0
C108 C 0.75691 0.71981 0.1317 0.0
C109 C 0.74344 0.7004 0.12982 0.0
C110 C 0.72593 0.69757 0.14483 0.0
C111 C 0.72181 0.71389 0.16113 0.0
H112 H 0.68913 0.72677 0.22523 0.0
H113 H 0.66052 0.72424 0.25385 0.0
H114 H 0.65701 0.79607 0.25599 0.0
H115 H 0.68579 0.79854 0.22845 0.0
H116 H 0.73208 0.823 0.22272 0.0
H117 H 0.75517 0.85635 0.22724 0.0
H118 H 0.79892 0.83255 0.17611 0.0
H119 H 0.77553 0.79869 0.17131 0.0
H120 H 0.76351 0.75086 0.14878 0.0
H121 H 0.77076 0.72237 0.12065 0.0
H122 H 0.7151 0.68292 0.14372 0.0
H123 H 0.70802 0.71123 0.17222 0.0
N124 N 0.71328 0.74857 0.19411 0.0
N125 N 0.7211 0.78412 0.20938 0.0
N126 N 0.74283 0.77044 0.18041 0.0
C127 C 0.70854 0.76509 0.20899 0.0
C128 C 0.73829 0.787 0.1953 0.0
C129 C 0.73036 0.75119 0.17963 0.0
C130 C 0.68997 0.76286 0.2248 0.0
C131 C 0.68213 0.74195 0.23184 0.0
C132 C 0.66572 0.74051 0.24821 0.0
C133 C 0.65676 0.75996 0.25765 0.0
C134 C 0.66403 0.78073 0.24977 0.0
C135 C 0.68048 0.78216 0.23377 0.0
C136 C 0.75202 0.8079 0.1968 0.0
C137 C 0.74655 0.8247 0.21231 0.0
C138 C 0.75985 0.84387 0.21499 0.0
C139 C 0.77905 0.84691 0.20227 0.0
C140 C 0.78422 0.83061 0.18615 0.0
C141 C 0.77086 0.81121 0.18349 0.0
C142 C 0.73511 0.73346 0.16283 0.0
C143 C 0.7528 0.73612 0.14797 0.0
C144 C 0.06159 0.9145 0.49149 0.0
C145 C 0.0407 0.9035 0.48936 0.0
C146 C 0.02497 0.91138 0.47391 0.0
C147 C 0.0301 0.92934 0.46049 0.0
H148 H 0.00551 0.9606 0.40885 0.0
H149 H 0.97822 0.9681 0.37985 0.0
H150 H 0.0228 0.01707 0.35206 0.0
H151 H 0.05063 0.00961 0.38142 0.0
H152 H 0.09558 0.02287 0.41115 0.0
H153 H 0.12842 0.04671 0.41851 0.0
H154 H 0.14083 0.01275 0.48017 0.0
H155 H 0.108 0.98907 0.47306 0.0
H156 H 0.08305 0.94065 0.47983 0.0
H157 H 0.07408 0.90881 0.50321 0.0
H158 H 0.00849 0.90373 0.47224 0.0
H159 H 0.01746 0.93475 0.44877 0.0
N160 N 0.04233 0.96315 0.42996 0.0
N161 N 0.06496 0.99332 0.4197 0.0
N162 N 0.07472 0.97209 0.45083 0.0
C163 C 0.04645 0.98022 0.41604 0.0
C164 C 0.07917 0.98938 0.43712 0.0
C165 C 0.05629 0.95889 0.44731 0.0
C166 C 0.03031 0.98461 0.39764 0.0
C167 C 0.00972 0.97296 0.39661 0.0
C168 C 0.99395 0.9773 0.38002 0.0
C169 C 0.99831 0.99332 0.36387 0.0
C170 C 0.01907 0.00463 0.36436 0.0
C171 C 0.03491 0.00042 0.38121 0.0
C172 C 0.0991 0.00397 0.44147 0.0
C173 C 0.10524 0.02049 0.42631 0.0
C174 C 0.12411 0.03412 0.43048 0.0
C175 C 0.13717 0.03164 0.44995 0.0
C176 C 0.13094 0.01527 0.46517 0.0
C177 C 0.11219 0.00157 0.46096 0.0
C178 C 0.05108 0.94015 0.46222 0.0
C179 C 0.06673 0.93268 0.47804 0.0
C180 C 0.2179 0.73775 0.85336 0.0
C181 C 0.21527 0.76084 0.85624 0.0
C182 C 0.20801 0.77322 0.83787 0.0
C183 C 0.20482 0.76289 0.8168 0.0
H184 H 0.16378 0.75825 0.75638 0.0
H185 H 0.13599 0.76753 0.7282 0.0
H186 H 0.16025 0.71566 0.68466 0.0
H187 H 0.18839 0.70656 0.71266 0.0
H188 H 0.22574 0.67259 0.73126 0.0
H189 H 0.24918 0.63962 0.72833 0.0
H190 H 0.28036 0.65706 0.79186 0.0
H191 H 0.25734 0.68962 0.79494 0.0
H192 H 0.21809 0.70991 0.83068 0.0
H193 H 0.22282 0.72757 0.86724 0.0
H194 H 0.20587 0.79103 0.83949 0.0
H195 H 0.20014 0.77292 0.80272 0.0
N196 N 0.19487 0.73582 0.77486 0.0
N197 N 0.20922 0.70848 0.75072 0.0
N198 N 0.2233 0.71268 0.78725 0.0
C199 C 0.19475 0.72531 0.7545 0.0
C200 C 0.2237 0.7022 0.76704 0.0
C201 C 0.20905 0.72943 0.79134 0.0
C202 C 0.17837 0.73157 0.73691 0.0
C203 C 0.16332 0.74883 0.74079 0.0
C204 C 0.14725 0.75409 0.72466 0.0
C205 C 0.14578 0.74225 0.70421 0.0
C206 C 0.16105 0.72525 0.70015 0.0
C207 C 0.17714 0.71997 0.71629 0.0
C208 C 0.2393 0.68358 0.76354 0.0
C209 C 0.23782 0.66954 0.74444 0.0
C210 C 0.25129 0.65075 0.74268 0.0
C211 C 0.26636 0.64571 0.76 0.0
C212 C 0.26866 0.6604 0.77841 0.0
C213 C 0.25536 0.67907 0.78016 0.0
C214 C 0.20914 0.74012 0.81377 0.0
C215 C 0.21511 0.72759 0.83239 0.0
C216 C 0.95439 0.63186 0.49356 0.0
C217 C 0.94777 0.63513 0.51568 0.0
C218 C 0.93836 0.61721 0.52715 0.0
C219 C 0.9352 0.59642 0.51648 0.0
H220 H 0.88432 0.54375 0.50622 0.0
H221 H 0.85502 0.51698 0.51636 0.0
H222 H 0.88733 0.46559 0.47829 0.0
H223 H 0.91646 0.49197 0.46826 0.0
H224 H 0.95804 0.50343 0.43976 0.0
H225 H 0.98181 0.49264 0.40935 0.0
H226 H 0.99751 0.56195 0.39752 0.0
H227 H 0.97432 0.57273 0.4288 0.0
H228 H 0.95691 0.60904 0.46596 0.0
H229 H 0.96173 0.64546 0.48442 0.0
H230 H 0.93301 0.61943 0.54418 0.0
H231 H 0.92774 0.58291 0.52565 0.0
N232 N 0.92296 0.55637 0.48984 0.0
N233 N 0.93382 0.5307 0.4624 0.0
N234 N 0.95192 0.56555 0.4656 0.0
C235 C 0.92032 0.53611 0.47951 0.0
C236 C 0.94961 0.54529 0.45531 0.0
C237 C 0.93879 0.57115 0.48298 0.0
C238 C 0.90279 0.52003 0.48644 0.0
C239 C 0.88523 0.5267 0.50014 0.0
C240 C 0.86838 0.51145 0.50584 0.0
C241 C 0.86896 0.48919 0.49821 0.0
C242 C 0.88658 0.48255 0.48468 0.0
C243 C 0.90323 0.49776 0.47882 0.0
C244 C 0.96419 0.53896 0.43667 0.0
C245 C 0.96651 0.51641 0.43069 0.0
C246 C 0.98008 0.51022 0.41309 0.0
C247 C 0.99143 0.52641 0.40071 0.0
C248 C 0.98922 0.549 0.40678 0.0
C249 C 0.97584 0.5552 0.42466 0.0
C250 C 0.94185 0.59312 0.49432 0.0
C251 C 0.95166 0.61102 0.48305 0.0
C252 C 0.89367 0.80464 0.77149 0.0
C253 C 0.89402 0.82074 0.7548 0.0
C254 C 0.87972 0.83893 0.75657 0.0
C255 C 0.86489 0.84058 0.77417 0.0
H256 H 0.80706 0.87188 0.79131 0.0
H257 H 0.77473 0.89563 0.78762 0.0
H258 H 0.74925 0.87056 0.84933 0.0
H259 H 0.78121 0.84661 0.85294 0.0
H260 H 0.79999 0.80359 0.87279 0.0
H261 H 0.79448 0.77146 0.8963 0.0
H262 H 0.8501 0.73929 0.86545 0.0
H263 H 0.85552 0.77124 0.84163 0.0
H264 H 0.87873 0.79326 0.80135 0.0
H265 H 0.9043 0.7903 0.77052 0.0
H266 H 0.87984 0.85181 0.74418 0.0
H267 H 0.85386 0.85462 0.77474 0.0
N268 N 0.83121 0.84074 0.80802 0.0
N269 N 0.81437 0.82458 0.83887 0.0
N270 N 0.84617 0.80869 0.8237 0.0
C271 C 0.81487 0.84078 0.82341 0.0
C272 C 0.82994 0.8085 0.8392 0.0
C273 C 0.84701 0.82481 0.80813 0.0
C274 C 0.79666 0.85708 0.82228 0.0
C275 C 0.7947 0.87158 0.80423 0.0
C276 C 0.77621 0.88528 0.80214 0.0
C277 C 0.75931 0.88475 0.81804 0.0
C278 C 0.76177 0.871 0.83656 0.0
C279 C 0.78019 0.85733 0.83866 0.0
C280 C 0.82807 0.78997 0.8551 0.0
C281 C 0.81121 0.78978 0.8711 0.0
C282 C 0.8081 0.7714 0.88471 0.0
C283 C 0.82173 0.75277 0.8826 0.0
C284 C 0.8391 0.75327 0.86721 0.0
C285 C 0.84227 0.77167 0.85364 0.0
C286 C 0.86401 0.82407 0.79048 0.0
C287 C 0.87887 0.80629 0.78912 0.0
C288 C 0.39696 0.32305 0.29692 0.0
C289 C 0.39435 0.33614 0.27794 0.0
C290 C 0.37845 0.35303 0.27812 0.0
C291 C 0.36473 0.35606 0.29646 0.0
H292 H 0.308 0.38725 0.3149 0.0
H293 H 0.27401 0.40811 0.30974 0.0
H294 H 0.25162 0.38747 0.37431 0.0
H295 H 0.28534 0.36613 0.37931 0.0
H296 H 0.31432 0.32605 0.4057 0.0
H297 H 0.30952 0.29379 0.42943 0.0
H298 H 0.34351 0.25322 0.38085 0.0
H299 H 0.34949 0.28552 0.35823 0.0
H300 H 0.38523 0.31512 0.32926 0.0
H301 H 0.40894 0.30981 0.29725 0.0
H302 H 0.37628 0.3636 0.26384 0.0
H303 H 0.35222 0.36879 0.29573 0.0
N304 N 0.33416 0.35907 0.33321 0.0
N305 N 0.31818 0.34314 0.36471 0.0
N306 N 0.34984 0.32748 0.34897 0.0
C307 C 0.31815 0.35913 0.34897 0.0
C308 C 0.33398 0.32727 0.3648 0.0
C309 C 0.35022 0.34342 0.33324 0.0
C310 C 0.29929 0.37467 0.34738 0.0
C311 C 0.29602 0.38741 0.32818 0.0
C312 C 0.27654 0.39949 0.32525 0.0
C313 C 0.25994 0.39922 0.34147 0.0
C314 C 0.26386 0.38763 0.36126 0.0
C315 C 0.28327 0.37546 0.36417 0.0
C316 C 0.33236 0.30836 0.38015 0.0
C317 C 0.32104 0.31025 0.40037 0.0
C318 C 0.31814 0.29169 0.41386 0.0
C319 C 0.32608 0.27071 0.40719 0.0
C320 C 0.33764 0.26906 0.38702 0.0
C321 C 0.34096 0.28766 0.37386 0.0
C322 C 0.36655 0.3422 0.31501 0.0
C323 C 0.38321 0.32603 0.31523 0.0
C324 C 0.5076 0.86592 0.515 0.0
C325 C 0.49408 0.86372 0.49564 0.0
C326 C 0.47516 0.87691 0.49362 0.0
C327 C 0.47024 0.89258 0.5101 0.0
H328 H 0.42461 0.9377 0.52386 0.0
H329 H 0.39814 0.96428 0.50981 0.0
H330 H 0.42364 0.01388 0.55731 0.0
H331 H 0.45024 0.98702 0.57176 0.0
H332 H 0.47657 0.95894 0.61544 0.0
H333 H 0.49853 0.96539 0.64963 0.0
H334 H 0.55155 0.92613 0.62278 0.0
H335 H 0.5295 0.9194 0.58842 0.0
H336 H 0.51376 0.88364 0.54606 0.0
H337 H 0.52229 0.85589 0.51694 0.0
H338 H 0.46422 0.87529 0.47906 0.0
H339 H 0.45562 0.90258 0.50759 0.0
N340 N 0.46234 0.92758 0.5411 0.0
N341 N 0.47049 0.94833 0.57369 0.0
N342 N 0.49215 0.91738 0.56425 0.0
C343 C 0.45774 0.94487 0.55497 0.0
C344 C 0.48765 0.93461 0.57853 0.0
C345 C 0.47939 0.91374 0.54547 0.0
C346 C 0.43984 0.96033 0.5487 0.0
C347 C 0.42454 0.95419 0.53152 0.0
C348 C 0.40937 0.96944 0.5234 0.0
C349 C 0.40912 0.99128 0.53217 0.0
C350 C 0.42348 0.99714 0.55023 0.0
C351 C 0.43873 0.98178 0.55846 0.0
C352 C 0.50125 0.93858 0.59918 0.0
C353 C 0.49293 0.95169 0.61672 0.0
C354 C 0.50544 0.95534 0.63636 0.0
C355 C 0.5267 0.94625 0.63882 0.0
C356 C 0.53524 0.93344 0.62122 0.0
C357 C 0.52256 0.92947 0.60165 0.0
C358 C 0.48416 0.89562 0.52912 0.0
C359 C 0.50273 0.88183 0.5316 0.0
C360 C 0.25776 0.22597 0.63826 0.0
C361 C 0.24567 0.20602 0.63397 0.0
C362 C 0.23002 0.19887 0.6496 0.0
C363 C 0.22629 0.21164 0.66891 0.0
H364 H 0.18287 0.21866 0.72248 0.0
H365 H 0.15034 0.21275 0.74588 0.0
H366 H 0.17192 0.26823 0.7883 0.0
H367 H 0.20415 0.2743 0.76515 0.0
H368 H 0.24227 0.30659 0.75091 0.0
H369 H 0.25934 0.34347 0.75493 0.0
H370 H 0.284 0.33826 0.68787 0.0
H371 H 0.26736 0.3009 0.68399 0.0
H372 H 0.26371 0.254 0.66009 0.0
H373 H 0.27022 0.23175 0.62676 0.0
H374 H 0.22035 0.18363 0.64669 0.0
H375 H 0.21393 0.20579 0.68047 0.0
N376 N 0.21822 0.23975 0.70797 0.0
N377 N 0.22583 0.27246 0.72898 0.0
N378 N 0.24538 0.26549 0.6963 0.0
C379 C 0.21411 0.25297 0.72605 0.0
C380 C 0.24148 0.27887 0.71422 0.0
C381 C 0.23396 0.24586 0.69307 0.0
C382 C 0.19598 0.24723 0.74164 0.0
C383 C 0.18087 0.22939 0.73699 0.0
C384 C 0.16229 0.2259 0.75044 0.0
C385 C 0.15846 0.24022 0.76872 0.0
C386 C 0.17425 0.25716 0.77409 0.0
C387 C 0.19276 0.26062 0.76076 0.0
C388 C 0.25321 0.30079 0.71705 0.0
C389 C 0.25139 0.31319 0.73701 0.0
C390 C 0.2611 0.33445 0.73927 0.0
C391 C 0.27275 0.34402 0.72158 0.0
C392 C 0.27523 0.33137 0.70185 0.0
C393 C 0.2656 0.30997 0.69961 0.0
C394 C 0.2382 0.23179 0.67302 0.0
C395 C 0.25409 0.23868 0.65751 0.0
C396 C 0.72771 0.12985 0.76384 0.0
C397 C 0.70618 0.12969 0.75414 0.0
C398 C 0.70097 0.14587 0.73839 0.0
C399 C 0.71695 0.16176 0.73234 0.0
H400 H 0.7385 0.19659 0.67567 0.0
H401 H 0.73312 0.2172 0.64132 0.0
H402 H 0.77881 0.26867 0.66618 0.0
H403 H 0.78466 0.2479 0.70048 0.0
H404 H 0.82492 0.22597 0.73162 0.0
H405 H 0.85987 0.23167 0.75212 0.0
H406 H 0.83978 0.18216 0.79938 0.0
H407 H 0.80469 0.17602 0.77855 0.0
H408 H 0.7601 0.14556 0.76574 0.0
H409 H 0.73214 0.11768 0.77617 0.0
H410 H 0.6846 0.14604 0.73044 0.0
H411 H 0.71229 0.1739 0.72006 0.0
N412 N 0.75139 0.19162 0.71726 0.0
N413 N 0.78586 0.21013 0.7228 0.0
N414 N 0.77496 0.18184 0.74702 0.0
C415 C 0.76648 0.20728 0.71091 0.0
C416 C 0.79031 0.19745 0.74084 0.0
C417 C 0.7554 0.1789 0.73534 0.0
C418 C 0.76213 0.22054 0.69076 0.0
C419 C 0.74727 0.21239 0.67395 0.0
C420 C 0.74418 0.22414 0.65428 0.0
C421 C 0.75551 0.24449 0.65121 0.0
C422 C 0.76976 0.25308 0.66828 0.0
C423 C 0.77321 0.24111 0.68779 0.0
C424 C 0.81179 0.20062 0.75344 0.0
C425 C 0.82782 0.21623 0.74636 0.0
C426 C 0.84791 0.2196 0.7582 0.0
C427 C 0.85257 0.20754 0.77754 0.0
C428 C 0.83676 0.19163 0.78449 0.0
C429 C 0.81658 0.18823 0.77259 0.0
C430 C 0.73851 0.16201 0.74203 0.0
C431 C 0.74368 0.14591 0.75795 0.0
C432 C 0.46374 0.53736 0.5691 0.0
C433 C 0.46637 0.5214 0.58572 0.0
C434 C 0.48557 0.50832 0.58559 0.0
C435 C 0.5016 0.51099 0.5691 0.0
H436 H 0.55777 0.48066 0.54067 0.0
H437 H 0.58859 0.45511 0.53529 0.0
H438 H 0.6142 0.49691 0.4835 0.0
H439 H 0.58354 0.52204 0.48847 0.0
H440 H 0.55546 0.55771 0.46786 0.0
H441 H 0.55117 0.58595 0.4398 0.0
H442 H 0.4909 0.6079 0.47093 0.0
H443 H 0.49532 0.57973 0.49943 0.0
H444 H 0.47704 0.55259 0.54019 0.0
H445 H 0.44932 0.54793 0.56886 0.0
H446 H 0.48803 0.49573 0.59803 0.0
H447 H 0.51607 0.50051 0.56945 0.0
N448 N 0.53346 0.51595 0.53329 0.0
N449 N 0.54596 0.5349 0.50194 0.0
N450 N 0.51333 0.54604 0.51935 0.0
C451 C 0.5487 0.51849 0.51695 0.0
C452 C 0.52841 0.54875 0.50295 0.0
C453 C 0.51571 0.52972 0.53464 0.0
C454 C 0.56795 0.50336 0.51488 0.0
C455 C 0.57003 0.48443 0.5282 0.0
C456 C 0.58775 0.46982 0.52518 0.0
C457 C 0.60374 0.47381 0.50878 0.0
C458 C 0.60194 0.49303 0.49594 0.0
C459 C 0.58432 0.50755 0.49891 0.0
C460 C 0.52571 0.56632 0.48599 0.0
C461 C 0.54126 0.56851 0.46885 0.0
C462 C 0.53873 0.58466 0.4526 0.0
C463 C 0.52061 0.59912 0.45299 0.0
C464 C 0.50515 0.59714 0.47023 0.0
C465 C 0.50764 0.5809 0.48652 0.0
C466 C 0.49888 0.5269 0.55238 0.0
C467 C 0.47976 0.54011 0.55269 0.0
C468 C 0.54405 0.42774 0.02299 0.0
C469 C 0.5226 0.41814 0.02479 0.0
C470 C 0.50518 0.42621 0.01137 0.0
C471 C 0.50921 0.44289 0.996 0.0
H472 H 0.47906 0.48213 0.94546 0.0
H473 H 0.45206 0.48201 0.9148 0.0
H474 H 0.50523 0.49439 0.86863 0.0
H475 H 0.53213 0.49581 0.89979 0.0
H476 H 0.56798 0.53616 0.94172 0.0
H477 H 0.60338 0.55735 0.94324 0.0
H478 H 0.63308 0.50595 0.98256 0.0
H479 H 0.59782 0.48494 0.98144 0.0
H480 H 0.56489 0.45131 0.00641 0.0
H481 H 0.55787 0.42182 0.03297 0.0
H482 H 0.48832 0.41961 0.0127 0.0
H483 H 0.49539 0.44847 0.9858 0.0
N484 N 0.51992 0.47211 0.95995 0.0
N485 N 0.5436 0.4987 0.94395 0.0
N486 N 0.5546 0.48086 0.97679 0.0
C487 C 0.52406 0.48681 0.94354 0.0
C488 C 0.55887 0.49591 0.9607 0.0
C489 C 0.53512 0.46896 0.97659 0.0
C490 C 0.5077 0.48883 0.92499 0.0
C491 C 0.48494 0.48505 0.92878 0.0
C492 C 0.46949 0.48477 0.9111 0.0
C493 C 0.47643 0.48768 0.88903 0.0
C494 C 0.49918 0.49221 0.88535 0.0
C495 C 0.51464 0.49297 0.90319 0.0
C496 C 0.58013 0.50885 0.96141 0.0
C497 C 0.58206 0.52941 0.9507 0.0
C498 C 0.6022 0.54161 0.9517 0.0
C499 C 0.62083 0.53322 0.96302 0.0
C500 C 0.61892 0.51271 0.97369 0.0
C501 C 0.59873 0.50073 0.97306 0.0
C502 C 0.53074 0.45212 0.99379 0.0
C503 C 0.54807 0.4446 0.0077 0.0
C504 C 0.74237 0.25792 0.34522 0.0
C505 C 0.73076 0.27743 0.35012 0.0
C506 C 0.71367 0.2839 0.33538 0.0
C507 C 0.70876 0.27135 0.31583 0.0
H508 H 0.67021 0.26917 0.25688 0.0
H509 H 0.64021 0.27855 0.231 0.0
H510 H 0.65096 0.2178 0.19333 0.0
H511 H 0.68127 0.20865 0.21878 0.0
H512 H 0.7268 0.18085 0.22934 0.0
H513 H 0.74565 0.14508 0.22538 0.0
H514 H 0.76794 0.15037 0.29409 0.0
H515 H 0.74962 0.18591 0.29815 0.0
H516 H 0.74698 0.23058 0.32277 0.0
H517 H 0.75532 0.25221 0.35643 0.0
H518 H 0.70447 0.2989 0.33871 0.0
H519 H 0.6957 0.2769 0.30466 0.0
N520 N 0.70024 0.24456 0.27494 0.0
N521 N 0.70815 0.21329 0.25246 0.0
N522 N 0.72786 0.21987 0.28606 0.0
C523 C 0.69613 0.23198 0.25609 0.0
C524 C 0.72407 0.20714 0.26739 0.0
C525 C 0.71614 0.2386 0.29002 0.0
C526 C 0.67822 0.23811 0.24001 0.0
C527 C 0.66628 0.25783 0.24303 0.0
C528 C 0.64895 0.26317 0.22825 0.0
C529 C 0.6431 0.24892 0.21009 0.0
C530 C 0.6552 0.22933 0.20694 0.0
C531 C 0.67255 0.22402 0.22166 0.0
C532 C 0.73652 0.18622 0.26412 0.0
C533 C 0.7359 0.17448 0.24354 0.0
C534 C 0.74678 0.15412 0.24119 0.0
C535 C 0.75812 0.14505 0.25946 0.0
C536 C 0.75921 0.15702 0.27978 0.0
C537 C 0.74869 0.17741 0.28205 0.0
C538 C 0.72074 0.25202 0.31077 0.0
C539 C 0.73747 0.24542 0.32586 0.0
C540 C 0.46574 0.12511 0.03168 0.0
C541 C 0.45036 0.12602 0.04905 0.0
C542 C 0.43466 0.1085 0.05094 0.0
C543 C 0.4335 0.09115 0.03511 0.0
H544 H 0.39111 0.04152 0.01329 0.0
H545 H 0.36014 0.01475 0.0143 0.0
H546 H 0.37788 0.98883 0.9495 0.0
H547 H 0.40915 0.01523 0.9486 0.0
H548 H 0.44914 0.04387 0.92191 0.0
H549 H 0.47682 0.03742 0.89322 0.0
H550 H 0.52938 0.05827 0.93961 0.0
H551 H 0.50165 0.06531 0.96828 0.0
H552 H 0.4762 0.10796 0.0022 0.0
H553 H 0.47793 0.13844 0.02966 0.0
H554 H 0.42283 0.10851 0.06436 0.0
H555 H 0.42075 0.0783 0.03679 0.0
N556 N 0.42651 0.06041 0.99817 0.0
N557 N 0.43793 0.04409 0.96462 0.0
N558 N 0.46013 0.0721 0.98233 0.0
C559 C 0.42281 0.04548 0.98114 0.0
C560 C 0.45664 0.05727 0.96513 0.0
C561 C 0.44503 0.07383 0.99888 0.0
C562 C 0.40287 0.03041 0.98098 0.0
C563 C 0.38836 0.03025 0.99915 0.0
C564 C 0.37046 0.01499 0.99969 0.0
C565 C 0.36662 0.99954 0.98206 0.0
C566 C 0.38061 0.00025 0.96353 0.0
C567 C 0.39852 0.01547 0.963 0.0
C568 C 0.47324 0.055 0.94736 0.0
C569 C 0.46657 0.04734 0.92592 0.0
C570 C 0.48235 0.04382 0.90946 0.0
C571 C 0.50515 0.04743 0.91426 0.0
C572 C 0.51186 0.05544 0.93555 0.0
C573 C 0.496 0.05948 0.95188 0.0
C574 C 0.44807 0.09084 0.01701 0.0
C575 C 0.46464 0.10769 0.01584 0.0
Zn576 Zn 0.27877 0.84414 0.99854 0.0
Zn577 Zn 0.24489 0.86993 0.0036 0.0
O578 O 0.24709 0.85413 0.03448 0.0
O579 O 0.27778 0.83507 0.0303 0.0
O580 O 0.21962 0.89169 0.00702 0.0
O581 O 0.2992 0.86901 0.99016 0.0
O582 O 0.27161 0.89154 0.99698 0.0
C583 C 0.26192 0.8413 0.04237 0.0
C584 C 0.24399 0.83274 0.96728 0.0
O585 O 0.23481 0.84953 0.97642 0.0
O586 O 0.26273 0.82645 0.97453 0.0
C587 C 0.19909 0.88615 0.00818 0.0
O588 O 0.19333 0.86492 0.00749 0.0
C589 C 0.29181 0.88854 0.99146 0.0
Zn590 Zn 0.10418 0.45806 0.28949 0.0
Zn591 Zn 0.12146 0.49744 0.2785 0.0
O592 O 0.09854 0.50628 0.30225 0.0
O593 O 0.08229 0.47392 0.30892 0.0
O594 O 0.13616 0.52653 0.27011 0.0
O595 O 0.13374 0.44852 0.30206 0.0
O596 O 0.14837 0.48005 0.2906 0.0
C597 C 0.08374 0.49481 0.31214 0.0
C598 C 0.0985 0.46654 0.24304 0.0
O599 O 0.10736 0.48535 0.24875 0.0
O600 O 0.09612 0.45151 0.25735 0.0
C601 C 0.12565 0.54395 0.265 0.0
O602 O 0.10374 0.54343 0.26499 0.0
C603 C 0.1506 0.46122 0.29977 0.0
Zn604 Zn 0.79074 0.5866 0.94035 0.0
Zn605 Zn 0.78156 0.61093 0.97671 0.0
O606 O 0.80709 0.59113 0.98814 0.0
O607 O 0.81573 0.57273 0.9575 0.0
O608 O 0.77488 0.6313 0.00284 0.0
O609 O 0.79662 0.61402 0.9225 0.0
O610 O 0.7906 0.63372 0.95299 0.0
C611 C 0.8191 0.57697 0.97806 0.0
C612 C 0.74633 0.5786 0.95577 0.0
O613 O 0.75186 0.59366 0.97024 0.0
O614 O 0.76011 0.57243 0.94128 0.0
C615 C 0.76962 0.62494 0.02218 0.0
O616 O 0.76826 0.60351 0.02612 0.0
C617 C 0.79582 0.63272 0.93249 0.0
Zn618 Zn 0.84123 0.99682 0.27843 0.0
Zn619 Zn 0.86599 0.00086 0.24379 0.0
O620 O 0.84496 0.02821 0.24133 0.0
O621 O 0.82279 0.02252 0.26953 0.0
O622 O 0.88709 0.00377 0.21796 0.0
O623 O 0.86668 0.00172 0.29992 0.0
O624 O 0.88844 0.00261 0.27089 0.0
C625 C 0.82831 0.03398 0.25297 0.0
C626 C 0.83813 0.95788 0.25082 0.0
O627 O 0.85057 0.96954 0.23829 0.0
O628 O 0.83217 0.96578 0.26943 0.0
C629 C 0.88139 0.00766 0.1979 0.0
O630 O 0.86019 0.01015 0.19284 0.0
C631 C 0.88602 0.00321 0.292 0.0
Zn632 Zn 0.30349 0.10118 0.44953 0.0
Zn633 Zn 0.28862 0.11813 0.48813 0.0
O634 O 0.31254 0.09632 0.49882 0.0
O635 O 0.32349 0.08126 0.46723 0.0
O636 O 0.27784 0.13235 0.5165 0.0
O637 O 0.31521 0.13145 0.44093 0.0
O638 O 0.3003 0.14548 0.47127 0.0
C639 C 0.32465 0.0826 0.48832 0.0
C640 C 0.25649 0.093 0.45562 0.0
O641 O 0.2606 0.10269 0.47439 0.0
O642 O 0.27185 0.09094 0.44155 0.0
C643 C 0.27343 0.1217 0.53404 0.0
O644 O 0.27564 0.09998 0.53402 0.0
C645 C 0.31091 0.14808 0.45328 0.0
Zn646 Zn 0.34679 0.49365 0.77132 0.0
Zn647 Zn 0.37197 0.4998 0.73732 0.0
O648 O 0.35205 0.52808 0.7368 0.0
O649 O 0.3335 0.5235 0.76771 0.0
O650 O 0.39348 0.50381 0.71185 0.0
O651 O 0.37253 0.48967 0.79237 0.0
O652 O 0.39404 0.499 0.76462 0.0
C653 C 0.33792 0.53505 0.75088 0.0
C654 C 0.33896 0.45951 0.73903 0.0
O655 O 0.35509 0.46955 0.72952 0.0
O656 O 0.33157 0.4672 0.75714 0.0
C657 C 0.38789 0.50568 0.69141 0.0
O658 O 0.36662 0.50522 0.68572 0.0
C659 C 0.39173 0.49401 0.78505 0.0
Zn660 Zn 0.77812 0.33603 0.50823 0.0
Zn661 Zn 0.74415 0.36208 0.51403 0.0
O662 O 0.74367 0.34099 0.54127 0.0
O663 O 0.76937 0.31655 0.53346 0.0
O664 O 0.71756 0.38179 0.51957 0.0
O665 O 0.79944 0.36178 0.51369 0.0
O666 O 0.77112 0.38447 0.51444 0.0
C667 C 0.75418 0.32338 0.54606 0.0
C668 C 0.74914 0.33481 0.47018 0.0
O669 O 0.73731 0.347 0.4828 0.0
O670 O 0.768 0.32844 0.47702 0.0
C671 C 0.70739 0.39169 0.50394 0.0
O672 O 0.7143 0.38918 0.4834 0.0
C673 C 0.79212 0.38137 0.51496 0.0
Zn674 Zn 0.59093 0.94309 0.80717 0.0
Zn675 Zn 0.61416 0.9784 0.7926 0.0
O676 O 0.5969 0.99148 0.81927 0.0
O677 O 0.58154 0.96148 0.83369 0.0
O678 O 0.63413 0.00376 0.78291 0.0
O679 O 0.61876 0.92502 0.80971 0.0
O680 O 0.63765 0.95503 0.80027 0.0
C681 C 0.58548 0.98227 0.83438 0.0
C682 C 0.57829 0.95615 0.76244 0.0
O683 O 0.59439 0.97021 0.76506 0.0
O684 O 0.573 0.94339 0.77816 0.0
C685 C 0.62891 0.02416 0.78259 0.0
O686 O 0.60872 0.02986 0.78827 0.0
C687 C 0.63724 0.93479 0.80627 0.0
Zn688 Zn 0.0043 0.28177 0.8452 0.0
Zn689 Zn 0.00816 0.2431 0.86349 0.0
O690 O 0.03646 0.24496 0.84338 0.0
O691 O 0.03108 0.27687 0.8269 0.0
O692 O 0.01121 0.21422 0.88022 0.0
O693 O 0.00844 0.29865 0.87397 0.0
O694 O 0.00843 0.26605 0.89014 0.0
C695 C 0.04275 0.25982 0.82974 0.0
C696 C 0.96604 0.2539 0.83572 0.0
O697 O 0.97749 0.2397 0.84635 0.0
O698 O 0.97377 0.27347 0.83343 0.0
C699 C 0.0168 0.19552 0.87197 0.0
O700 O 0.0209 0.19388 0.85057 0.0
C701 C 0.00922 0.28729 0.89146 0.0
Zn702 Zn 0.50998 0.78649 0.33392 0.0
Zn703 Zn 0.50675 0.75074 0.35863 0.0
O704 O 0.53577 0.74551 0.34069 0.0
O705 O 0.5401 0.77748 0.32366 0.0
O706 O 0.50504 0.72464 0.3795 0.0
O707 O 0.50779 0.80697 0.3605 0.0
O708 O 0.50781 0.77735 0.38143 0.0
C709 C 0.54704 0.75833 0.32822 0.0
C710 C 0.47081 0.7598 0.32296 0.0
O711 O 0.47752 0.74839 0.33944 0.0
O712 O 0.48227 0.77643 0.31675 0.0
C713 C 0.50909 0.70457 0.37407 0.0
O714 O 0.5143 0.69976 0.35337 0.0
C715 C 0.50765 0.79848 0.37963 0.0
Zn716 Zn 0.958 0.79412 0.59029 0.0
Zn717 Zn 0.99322 0.78369 0.61576 0.0
O718 O 0.00654 0.80788 0.59537 0.0
O719 O 0.97771 0.81495 0.57344 0.0
O720 O 0.01876 0.7759 0.6364 0.0
O721 O 0.94124 0.80447 0.61727 0.0
O722 O 0.96989 0.79472 0.63804 0.0
C723 C 0.99801 0.81814 0.57897 0.0
C724 C 0.96928 0.74823 0.5855 0.0
O725 O 0.98486 0.75382 0.59943 0.0
O726 O 0.95527 0.76244 0.57929 0.0
C727 C 0.03828 0.77149 0.62994 0.0
O728 O 0.04252 0.77181 0.60853 0.0
C729 C 0.95034 0.80252 0.63633 0.0
Zn730 Zn 0.44379 0.28669 0.11324 0.0
Zn731 Zn 0.48283 0.28593 0.13484 0.0
O732 O 0.48925 0.3093 0.11082 0.0
O733 O 0.4577 0.30752 0.09134 0.0
O734 O 0.51143 0.28418 0.15302 0.0
O735 O 0.42856 0.29872 0.14028 0.0
O736 O 0.46047 0.29617 0.15865 0.0
C737 C 0.47734 0.31533 0.09424 0.0
C738 C 0.46219 0.24348 0.11213 0.0
O739 O 0.47847 0.25373 0.1221 0.0
O740 O 0.4446 0.25378 0.10733 0.0
C741 C 0.52941 0.27672 0.14517 0.0
O742 O 0.52985 0.27045 0.12407 0.0
C743 C 0.43983 0.30091 0.15827 0.0
H744 H 0.19519 0.79518 0.87901 0.0
H745 H 0.2517 0.75174 0.88167 0.0
H746 H 0.26421 0.76907 0.91665 0.0
H747 H 0.26024 0.79694 0.94577 0.0
H748 H 0.20532 0.84221 0.94375 0.0
H749 H 0.19108 0.82376 0.90928 0.0
C750 C 0.21025 0.78958 0.88725 0.0
C751 C 0.22226 0.77191 0.87777 0.0
C752 C 0.21768 0.79993 0.90747 0.0
C753 C 0.24175 0.76486 0.88875 0.0
C754 C 0.24907 0.77489 0.90873 0.0
C755 C 0.24506 0.80283 0.93796 0.0
C756 C 0.23392 0.82101 0.94737 0.0
C757 C 0.23725 0.79243 0.91817 0.0
C758 C 0.21425 0.82824 0.9369 0.0
C759 C 0.20616 0.81774 0.91714 0.0
H760 H 0.03134 0.54471 0.38771 0.0
H761 H 0.9829 0.49267 0.37034 0.0
H762 H 0.007 0.47882 0.34128 0.0
H763 H 0.0424 0.48023 0.32194 0.0
H764 H 0.09022 0.5332 0.33715 0.0
H765 H 0.06547 0.54832 0.36554 0.0
C766 C 0.02584 0.53058 0.37734 0.0
C767 C 0.00546 0.5195 0.38164 0.0
C768 C 0.03966 0.52287 0.36026 0.0
C769 C 0.99876 0.50115 0.36798 0.0
C770 C 0.01245 0.49329 0.35119 0.0
C771 C 0.04737 0.49516 0.3314 0.0
C772 C 0.06819 0.50543 0.3277 0.0
C773 C 0.03307 0.50377 0.34746 0.0
C774 C 0.07426 0.52498 0.33976 0.0
C775 C 0.06016 0.53356 0.35603 0.0
H776 H 0.82108 0.71002 0.86731 0.0
H777 H 0.81148 0.74992 0.9268 0.0
H778 H 0.80238 0.71635 0.94752 0.0
H779 H 0.79704 0.67561 0.9486 0.0
H780 H 0.80689 0.63606 0.88879 0.0
H781 H 0.81618 0.66955 0.86844 0.0
C782 C 0.8173 0.71136 0.88489 0.0
C783 C 0.81707 0.73242 0.89552 0.0
C784 C 0.81206 0.69205 0.89664 0.0
C785 C 0.81164 0.7339 0.91819 0.0
C786 C 0.80649 0.71472 0.93006 0.0
C787 C 0.80121 0.67431 0.93112 0.0
C788 C 0.80124 0.6533 0.92029 0.0
C789 C 0.80658 0.69369 0.91943 0.0
C790 C 0.80671 0.65197 0.8976 0.0
C791 C 0.81206 0.67113 0.88591 0.0
H792 H 0.95543 0.00229 0.37193 0.0
H793 H 0.00178 0.99543 0.31837 0.0
H794 H 0.97124 0.99932 0.29092 0.0
H795 H 0.93067 0.0017 0.28243 0.0
H796 H 0.88509 0.00811 0.33704 0.0
H797 H 0.91598 0.0073 0.36369 0.0
C798 C 0.95885 0.00174 0.35423 0.0
C799 C 0.98069 0.9983 0.34713 0.0
C800 C 0.9413 0.00374 0.33872 0.0
C801 C 0.98504 0.99807 0.32419 0.0
C802 C 0.96757 0.00015 0.30853 0.0
C803 C 0.92755 0.00313 0.30015 0.0
C804 C 0.90549 0.00469 0.30764 0.0
C805 C 0.94552 0.00255 0.31561 0.0
C806 C 0.9018 0.00665 0.3307 0.0
C807 C 0.91948 0.00621 0.34604 0.0
H808 H 0.2495 0.16098 0.629 0.0
H809 H 0.25011 0.2219 0.59201 0.0
H810 H 0.25826 0.20115 0.55789 0.0
H811 H 0.26626 0.16601 0.53875 0.0
H812 H 0.26558 0.10481 0.57532 0.0
H813 H 0.25612 0.12534 0.60933 0.0
C814 C 0.25115 0.16965 0.61341 0.0
C815 C 0.24938 0.19298 0.61311 0.0
C816 C 0.25586 0.1576 0.59379 0.0
C817 C 0.25177 0.20401 0.5928 0.0
C818 C 0.25633 0.19215 0.57325 0.0
C819 C 0.26398 0.1571 0.55412 0.0
C820 C 0.26674 0.1339 0.55447 0.0
C821 C 0.25864 0.16899 0.57359 0.0
C822 C 0.26361 0.12267 0.57455 0.0
C823 C 0.25822 0.1344 0.59403 0.0
H824 H 0.47251 0.51543 0.63047 0.0
H825 H 0.42107 0.52049 0.57964 0.0
H826 H 0.39241 0.51623 0.60767 0.0
H827 H 0.38181 0.51109 0.64664 0.0
H828 H 0.43323 0.50594 0.69753 0.0
H829 H 0.46189 0.51 0.66948 0.0
C830 C 0.45503 0.5154 0.62549 0.0
C831 C 0.44901 0.51834 0.60294 0.0
C832 C 0.43856 0.51293 0.64173 0.0
C833 C 0.42623 0.51856 0.59688 0.0
C834 C 0.4098 0.51601 0.6129 0.0
C835 C 0.39928 0.51084 0.65163 0.0
C836 C 0.40527 0.5082 0.67423 0.0
C837 C 0.41575 0.51324 0.63539 0.0
C838 C 0.42805 0.50795 0.6803 0.0
C839 C 0.4445 0.51027 0.66425 0.0
H840 H 0.74382 0.28739 0.64364 0.0
H841 H 0.76358 0.22683 0.61041 0.0
H842 H 0.76361 0.24562 0.57464 0.0
H843 H 0.76019 0.27969 0.55324 0.0
H844 H 0.73889 0.34015 0.58559 0.0
H845 H 0.73693 0.32096 0.62125 0.0
C846 C 0.74798 0.27837 0.62849 0.0
C847 C 0.75383 0.25584 0.62957 0.0
C848 C 0.74765 0.28923 0.6079 0.0
C849 C 0.75897 0.24417 0.60989 0.0
C850 C 0.75905 0.25491 0.58948 0.0
C851 C 0.75491 0.28862 0.56806 0.0
C852 C 0.74989 0.31133 0.56687 0.0
C853 C 0.75371 0.27748 0.58835 0.0
C854 C 0.74278 0.32263 0.5861 0.0
C855 C 0.74181 0.3117 0.6065 0.0
H856 H 0.51217 0.93953 0.68055 0.0
H857 H 0.57006 0.96054 0.64439 0.0
H858 H 0.59102 0.96664 0.67956 0.0
H859 H 0.59284 0.96553 0.72077 0.0
H860 H 0.53524 0.94235 0.75631 0.0
H861 H 0.51413 0.9378 0.7213 0.0
C862 C 0.52934 0.94557 0.68042 0.0
C863 C 0.53956 0.9497 0.66 0.0
C864 C 0.5413 0.9487 0.70061 0.0
C865 C 0.56192 0.95716 0.65996 0.0
C866 C 0.57384 0.96073 0.68005 0.0
C867 C 0.57562 0.95965 0.7208 0.0
C868 C 0.56559 0.95437 0.74109 0.0
C869 C 0.5637 0.95652 0.7005 0.0
C870 C 0.54336 0.94646 0.7409 0.0
C871 C 0.53127 0.94386 0.7209 0.0
H872 H 0.87176 0.24777 0.78756 0.0
H873 H 0.88072 0.1775 0.79689 0.0
H874 H 0.91622 0.1854 0.81671 0.0
H875 H 0.94566 0.21254 0.82997 0.0
H876 H 0.93599 0.28263 0.81911 0.0
H877 H 0.90011 0.27445 0.80117 0.0
C878 C 0.88153 0.23413 0.79376 0.0
C879 C 0.87367 0.21208 0.79051 0.0
C880 C 0.90194 0.23876 0.80484 0.0
C881 C 0.88632 0.19466 0.79922 0.0
C882 C 0.90669 0.19916 0.81045 0.0
C883 C 0.93563 0.22599 0.82378 0.0
C884 C 0.94371 0.24816 0.82582 0.0
C885 C 0.91481 0.22118 0.81319 0.0
C886 C 0.93042 0.26539 0.81767 0.0
C887 C 0.90979 0.26076 0.80739 0.0
H888 H 0.49669 0.87429 0.45242 0.0
H889 H 0.50428 0.81936 0.49685 0.0
H890 H 0.50988 0.79404 0.46485 0.0
H891 H 0.51037 0.78743 0.42386 0.0
H892 H 0.50271 0.84334 0.38027 0.0
H893 H 0.49924 0.86827 0.41229 0.0
C894 C 0.49962 0.85677 0.45508 0.0
C895 C 0.49982 0.8486 0.47686 0.0
C896 C 0.50264 0.84246 0.43673 0.0
C897 C 0.50408 0.82598 0.48019 0.0
C898 C 0.50713 0.81152 0.4619 0.0
C899 C 0.50803 0.80507 0.4214 0.0
C900 C 0.50664 0.81339 0.3996 0.0
C901 C 0.50608 0.81953 0.44003 0.0
C902 C 0.50378 0.83637 0.39676 0.0
C903 C 0.50177 0.85072 0.41509 0.0
H904 H 0.13186 0.27446 0.77786 0.0
H905 H 0.13692 0.20366 0.7862 0.0
H906 H 0.10157 0.20307 0.80634 0.0
H907 H 0.06908 0.22329 0.82176 0.0
H908 H 0.06505 0.29414 0.81143 0.0
H909 H 0.10013 0.29406 0.79218 0.0
C910 C 0.12537 0.2589 0.78428 0.0
C911 C 0.13711 0.23921 0.78085 0.0
C912 C 0.10513 0.25871 0.79552 0.0
C913 C 0.12817 0.21907 0.78872 0.0
C914 C 0.10801 0.21877 0.80026 0.0
C915 C 0.07594 0.23865 0.8153 0.0
C916 C 0.06431 0.25866 0.81806 0.0
C917 C 0.09631 0.23855 0.80381 0.0
C918 C 0.07342 0.27843 0.80947 0.0
C919 C 0.09359 0.27848 0.79846 0.0
H920 H 0.50856 0.64253 0.45813 0.0
H921 H 0.52683 0.59388 0.40819 0.0
H922 H 0.5245 0.62195 0.37943 0.0
H923 H 0.51816 0.66053 0.36849 0.0
H924 H 0.49971 0.70922 0.41835 0.0
H925 H 0.50092 0.68088 0.44693 0.0
C926 C 0.51176 0.63799 0.44092 0.0
C927 C 0.51801 0.61612 0.43541 0.0
C928 C 0.51038 0.65425 0.42439 0.0
C929 C 0.52235 0.61065 0.41301 0.0
C930 C 0.52091 0.62668 0.3965 0.0
C931 C 0.5143 0.66495 0.38558 0.0
C932 C 0.50892 0.68704 0.3912 0.0
C933 C 0.51513 0.64858 0.40201 0.0
C934 C 0.50395 0.69239 0.41349 0.0
C935 C 0.50465 0.67618 0.42989 0.0
H936 H 0.88283 0.82791 0.71152 0.0
H937 H 0.93725 0.80679 0.75361 0.0
H938 H 0.95977 0.79983 0.72074 0.0
H939 H 0.96349 0.79866 0.67992 0.0
H940 H 0.9088 0.82004 0.63817 0.0
H941 H 0.8871 0.82834 0.67109 0.0
C942 C 0.89975 0.82216 0.71356 0.0
C943 C 0.90832 0.81788 0.73502 0.0
C944 C 0.91257 0.81819 0.69464 0.0
C945 C 0.93015 0.80999 0.73728 0.0
C946 C 0.94306 0.80608 0.7185 0.0
C947 C 0.94688 0.80526 0.67802 0.0
C948 C 0.93781 0.80861 0.65655 0.0
C949 C 0.93436 0.80992 0.69706 0.0
C950 C 0.91623 0.8172 0.65444 0.0
C951 C 0.90376 0.82196 0.67327 0.0
H952 H 0.0499 0.89691 0.53376 0.0
H953 H 0.01869 0.86559 0.47535 0.0
H954 H 0.00399 0.83573 0.49797 0.0
H955 H 0.99698 0.82038 0.53455 0.0
H956 H 0.02908 0.84975 0.59319 0.0
H957 H 0.0469 0.87831 0.57024 0.0
C958 C 0.04026 0.88332 0.52594 0.0
C959 C 0.0349 0.88384 0.50296 0.0
C960 C 0.03194 0.86595 0.53908 0.0
C961 C 0.02247 0.86601 0.49309 0.0
C962 C 0.01414 0.84883 0.50598 0.0
C963 C 0.0081 0.83291 0.54225 0.0
C964 C 0.01153 0.83329 0.56545 0.0
C965 C 0.01823 0.849 0.52902 0.0
C966 C 0.02623 0.84926 0.5753 0.0
C967 C 0.03628 0.8656 0.5622 0.0
H968 H 0.10219 0.75106 0.71162 0.0
H969 H 0.14973 0.74483 0.65889 0.0
H970 H 0.1207 0.75296 0.63126 0.0
H971 H 0.08183 0.76221 0.62211 0.0
H972 H 0.03457 0.76891 0.67511 0.0
H973 H 0.06354 0.7605 0.70256 0.0
C974 C 0.10628 0.75171 0.69411 0.0
C975 C 0.12815 0.74738 0.68739 0.0
C976 C 0.08954 0.75651 0.67833 0.0
C977 C 0.133 0.74786 0.66455 0.0
C978 C 0.11643 0.75263 0.64873 0.0
C979 C 0.07785 0.76183 0.63965 0.0
C980 C 0.05601 0.76622 0.64648 0.0
C981 C 0.09463 0.75699 0.65543 0.0
C982 C 0.0512 0.76563 0.66933 0.0
C983 C 0.06777 0.76082 0.68508 0.0
H984 H 0.96883 0.64664 0.55498 0.0
H985 H 0.93147 0.67356 0.49997 0.0
H986 H 0.93462 0.71081 0.51699 0.0
H987 H 0.94798 0.73559 0.54721 0.0
H988 H 0.98712 0.7098 0.60162 0.0
H989 H 0.98341 0.67216 0.58512 0.0
C990 C 0.96136 0.66072 0.54685 0.0
C991 C 0.94989 0.65749 0.52633 0.0
C992 C 0.9636 0.68218 0.55657 0.0
C993 C 0.94045 0.67577 0.51573 0.0
C994 C 0.94221 0.69701 0.52547 0.0
C995 C 0.95565 0.72175 0.55555 0.0
C996 C 0.96764 0.72544 0.57571 0.0
C997 C 0.95375 0.70039 0.54584 0.0
C998 C 0.97778 0.70737 0.58609 0.0
C999 C 0.97563 0.68587 0.57669 0.0
H1000 H 0.79378 0.86246 0.24238 0.0
H1001 H 0.79731 0.87583 0.17223 0.0
H1002 H 0.81798 0.91083 0.18071 0.0
H1003 H 0.83207 0.93927 0.2087 0.0
H1004 H 0.82656 0.92516 0.27873 0.0
H1005 H 0.80967 0.88895 0.26967 0.0
C1006 C 0.7991 0.87302 0.22892 0.0
C1007 C 0.79373 0.86678 0.20676 0.0
C1008 C 0.81054 0.8931 0.23394 0.0
C1009 C 0.80122 0.88032 0.18945 0.0
C1010 C 0.81292 0.90038 0.19432 0.0
C1011 C 0.82743 0.9281 0.2219 0.0
C1012 C 0.83034 0.93505 0.24436 0.0
C1013 C 0.81726 0.9072 0.21657 0.0
C1014 C 0.82423 0.9204 0.26131 0.0
C1015 C 0.81458 0.89963 0.25618 0.0
H1016 H 0.78996 0.1291 0.23148 0.0
H1017 H 0.74697 0.11047 0.28512 0.0
H1018 H 0.76372 0.07385 0.28639 0.0
H1019 H 0.79189 0.04827 0.27423 0.0
H1020 H 0.83684 0.06636 0.22194 0.0
H1021 H 0.81788 0.10196 0.21793 0.0
C1022 C 0.78418 0.11684 0.2432 0.0
C1023 C 0.76737 0.1224 0.25828 0.0
C1024 C 0.79428 0.09586 0.24415 0.0
C1025 C 0.76001 0.10654 0.27351 0.0
C1026 C 0.76957 0.08564 0.27423 0.0
C1027 C 0.79757 0.05985 0.2618 0.0
C1028 C 0.81592 0.05465 0.24852 0.0
C1029 C 0.78695 0.08029 0.25994 0.0
C1030 C 0.8228 0.06992 0.23243 0.0
C1031 C 0.812 0.09032 0.23019 0.0
H1032 H 0.37011 0.95593 0.97073 0.0
H1033 H 0.32393 0.00317 0.99746 0.0
H1034 H 0.29618 0.9732 0.00206 0.0
H1035 H 0.2856 0.93312 0.99956 0.0
H1036 H 0.33264 0.88656 0.97286 0.0
H1037 H 0.35922 0.91677 0.96684 0.0
C1038 C 0.35384 0.95979 0.97719 0.0
C1039 C 0.34911 0.98178 0.98366 0.0
C1040 C 0.33808 0.94254 0.97985 0.0
C1041 C 0.32808 0.98634 0.99251 0.0
C1042 C 0.31218 0.96922 0.99507 0.0
C1043 C 0.30159 0.92964 0.99228 0.0
C1044 C 0.30709 0.90754 0.98681 0.0
C1045 C 0.31707 0.94719 0.98899 0.0
C1046 C 0.32795 0.90334 0.97741 0.0
C1047 C 0.34323 0.92063 0.97392 0.0
H1048 H 0.25122 0.43897 0.32177 0.0
H1049 H 0.21898 0.38169 0.35059 0.0
H1050 H 0.18256 0.39638 0.34117 0.0
H1051 H 0.15984 0.42431 0.32321 0.0
H1052 H 0.19142 0.48141 0.29348 0.0
H1053 H 0.2281 0.46785 0.30465 0.0
C1054 C 0.23621 0.42972 0.32598 0.0
C1055 C 0.2379 0.40927 0.33695 0.0
C1056 C 0.2152 0.43813 0.32022 0.0
C1057 C 0.21825 0.39763 0.34251 0.0
C1058 C 0.19737 0.40592 0.33695 0.0
C1059 C 0.1747 0.43387 0.31919 0.0
C1060 C 0.17285 0.45378 0.30738 0.0
C1061 C 0.19566 0.42599 0.32559 0.0
C1062 C 0.19234 0.46601 0.30251 0.0
C1063 C 0.21333 0.45825 0.30887 0.0
H1064 H 0.16935 0.04209 0.42046 0.0
H1065 H 0.15089 0.05228 0.489 0.0
H1066 H 0.18567 0.07324 0.49657 0.0
H1067 H 0.22206 0.08721 0.48409 0.0
H1068 H 0.24068 0.07625 0.41562 0.0
H1069 H 0.20497 0.05738 0.4076 0.0
C1070 C 0.17279 0.04919 0.43697 0.0
C1071 C 0.1576 0.04558 0.45415 0.0
C1072 C 0.19288 0.06105 0.44124 0.0
C1073 C 0.16245 0.0546 0.47555 0.0
C1074 C 0.18229 0.06665 0.47987 0.0
C1075 C 0.21823 0.08089 0.46736 0.0
C1076 C 0.2341 0.08309 0.45052 0.0
C1077 C 0.19775 0.06975 0.4629 0.0
C1078 C 0.22886 0.0747 0.42895 0.0
C1079 C 0.20842 0.06389 0.42433 0.0
H1080 H 0.71169 0.08508 0.75792 0.0
H1081 H 0.66242 0.13607 0.76374 0.0
H1082 H 0.6341 0.10801 0.7728 0.0
H1083 H 0.62333 0.06894 0.7791 0.0
H1084 H 0.67268 0.01794 0.77293 0.0
H1085 H 0.7009 0.04602 0.76408 0.0
C1086 C 0.6948 0.09005 0.76138 0.0
C1087 C 0.68918 0.11262 0.7602 0.0
C1088 C 0.67857 0.07381 0.76646 0.0
C1089 C 0.66713 0.11878 0.76436 0.0
C1090 C 0.65094 0.10275 0.76961 0.0
C1091 C 0.64025 0.06395 0.7758 0.0
C1092 C 0.64582 0.04133 0.77671 0.0
C1093 C 0.65646 0.0802 0.77066 0.0
C1094 C 0.66785 0.0352 0.77233 0.0
C1095 C 0.68406 0.05127 0.7673 0.0
H1096 H 0.3825 0.02233 0.5518 0.0
H1097 H 0.40445 0.99805 0.48783 0.0
H1098 H 0.38063 0.02431 0.46892 0.0
H1099 H 0.35321 0.05341 0.47026 0.0
H1100 H 0.33052 0.07841 0.53368 0.0
H1101 H 0.35517 0.05279 0.55309 0.0
C1102 C 0.38214 0.02295 0.53374 0.0
C1103 C 0.39501 0.00806 0.52124 0.0
C1104 C 0.36831 0.03818 0.52287 0.0
C1105 C 0.39437 0.009 0.49783 0.0
C1106 C 0.38085 0.0241 0.48699 0.0
C1107 C 0.35361 0.05336 0.48834 0.0
C1108 C 0.33995 0.06778 0.50046 0.0
C1109 C 0.36764 0.03861 0.49931 0.0
C1110 C 0.34084 0.06747 0.52391 0.0
C1111 C 0.35492 0.05281 0.53502 0.0
H1112 H 0.62948 0.45193 0.53926 0.0
H1113 H 0.61905 0.45976 0.46847 0.0
H1114 H 0.65 0.4353 0.46084 0.0
H1115 H 0.68041 0.41211 0.47406 0.0
H1116 H 0.69084 0.40344 0.54472 0.0
H1117 H 0.65944 0.42754 0.55254 0.0
C1118 C 0.63383 0.44809 0.52217 0.0
C1119 C 0.62203 0.45791 0.5045 0.0
C1120 C 0.65171 0.43386 0.51784 0.0
C1121 C 0.62806 0.45284 0.48244 0.0
C1122 C 0.64572 0.43873 0.47803 0.0
C1123 C 0.67585 0.41545 0.49119 0.0
C1124 C 0.68808 0.406 0.50875 0.0
C1125 C 0.65777 0.42929 0.49558 0.0
C1126 C 0.68177 0.41048 0.53084 0.0
C1127 C 0.6638 0.42428 0.53534 0.0
H1128 H 0.70338 0.29648 0.38106 0.0
H1129 H 0.77262 0.28885 0.36464 0.0
H1130 H 0.78411 0.30699 0.39974 0.0
H1131 H 0.77483 0.32251 0.43601 0.0
H1132 H 0.70608 0.3312 0.45336 0.0
H1133 H 0.69404 0.31552 0.41683 0.0
C1134 C 0.72096 0.29913 0.38506 0.0
C1135 C 0.73712 0.29093 0.37041 0.0
C1136 C 0.72754 0.30963 0.40544 0.0
C1137 C 0.75984 0.29451 0.37582 0.0
C1138 C 0.76645 0.30496 0.39586 0.0
C1139 C 0.75718 0.32109 0.43181 0.0
C1140 C 0.74136 0.32769 0.44749 0.0
C1141 C 0.75048 0.31211 0.41098 0.0
C1142 C 0.71859 0.32615 0.4416 0.0
C1143 C 0.71171 0.31711 0.42075 0.0
H1144 H 0.5383 0.01834 0.91978 0.0
H1145 H 0.50861 0.06137 0.87141 0.0
H1146 H 0.53351 0.04713 0.84271 0.0
H1147 H 0.56116 0.01961 0.83065 0.0
H1148 H 0.58739 0.97379 0.8784 0.0
H1149 H 0.56683 0.99207 0.90819 0.0
C1150 C 0.53765 0.02487 0.90305 0.0
C1151 C 0.52184 0.04091 0.89764 0.0
C1152 C 0.55137 0.016 0.88655 0.0
C1153 C 0.52073 0.049 0.87585 0.0
C1154 C 0.53492 0.04085 0.85948 0.0
C1155 C 0.56268 0.01404 0.84769 0.0
C1156 C 0.57581 0.99558 0.8525 0.0
C1157 C 0.54996 0.02397 0.86451 0.0
C1158 C 0.57738 0.98806 0.87447 0.0
C1159 C 0.56558 0.99844 0.89144 0.0
H1160 H 0.35246 0.23451 0.41225 0.0
H1161 H 0.28905 0.26072 0.43188 0.0
H1162 H 0.28003 0.22598 0.45028 0.0
H1163 H 0.28848 0.1867 0.45768 0.0
H1164 H 0.34949 0.15933 0.43328 0.0
H1165 H 0.36083 0.19573 0.41938 0.0
C1166 C 0.33653 0.23267 0.4203 0.0
C1167 C 0.32144 0.25034 0.42036 0.0
C1168 C 0.33088 0.21224 0.42984 0.0
C1169 C 0.30122 0.24767 0.43168 0.0
C1170 C 0.29588 0.22765 0.44204 0.0
C1171 C 0.30435 0.18886 0.44953 0.0
C1172 C 0.31816 0.17048 0.44647 0.0
C1173 C 0.31037 0.20965 0.4408 0.0
C1174 C 0.33856 0.17329 0.43568 0.0
C1175 C 0.34506 0.19407 0.42777 0.0
H1176 H 0.47505 0.51045 0.8496 0.0
H1177 H 0.44085 0.45858 0.88541 0.0
H1178 H 0.41226 0.4558 0.85626 0.0
H1179 H 0.39595 0.46888 0.82147 0.0
H1180 H 0.43071 0.51866 0.78379 0.0
H1181 H 0.46046 0.52094 0.81248 0.0
C1182 C 0.46156 0.4983 0.85092 0.0
C1183 C 0.45995 0.48518 0.87012 0.0
C1184 C 0.44529 0.49631 0.8337 0.0
C1185 C 0.44222 0.46953 0.87135 0.0
C1186 C 0.42591 0.46771 0.85453 0.0
C1187 C 0.41012 0.48014 0.81946 0.0
C1188 C 0.41105 0.49376 0.80071 0.0
C1189 C 0.4271 0.48122 0.83584 0.0
C1190 C 0.42966 0.50799 0.79811 0.0
C1191 C 0.44658 0.50938 0.81456 0.0
H1192 H 0.7538 0.70743 0.0865 0.0
H1193 H 0.74214 0.65494 0.13324 0.0
H1194 H 0.74885 0.62698 0.1041 0.0
H1195 H 0.75851 0.61744 0.06539 0.0
H1196 H 0.77067 0.67022 0.019 0.0
H1197 H 0.76357 0.69798 0.04804 0.0
C1198 C 0.75294 0.68988 0.0904 0.0
C1199 C 0.74752 0.68334 0.11208 0.0
C1200 C 0.75696 0.6739 0.07362 0.0
C1201 C 0.74605 0.66048 0.11666 0.0
C1202 C 0.75001 0.64447 0.10003 0.0
C1203 C 0.75961 0.63501 0.06162 0.0
C1204 C 0.76515 0.64166 0.04 0.0
C1205 C 0.75551 0.65098 0.07844 0.0
C1206 C 0.76647 0.66455 0.03546 0.0
C1207 C 0.7624 0.68048 0.05207 0.0
H1208 H 0.96538 0.01194 0.13576 0.0
H1209 H 0.91438 0.0262 0.08667 0.0
H1210 H 0.88585 0.02338 0.11504 0.0
H1211 H 0.87529 0.01678 0.15381 0.0
H1212 H 0.92635 0.0023 0.20282 0.0
H1213 H 0.9548 0.00505 0.17444 0.0
C1214 C 0.948 0.01422 0.13121 0.0
C1215 C 0.94209 0.0193 0.10908 0.0
C1216 C 0.93164 0.01252 0.14761 0.0
C1217 C 0.91948 0.02255 0.10361 0.0
C1218 C 0.90312 0.02082 0.11981 0.0
C1219 C 0.89263 0.0142 0.15831 0.0
C1220 C 0.89859 0.00933 0.18047 0.0
C1221 C 0.90899 0.01585 0.14188 0.0
C1222 C 0.92121 0.00608 0.18593 0.0
C1223 C 0.93754 0.00765 0.16969 0.0
H1224 H 0.28006 0.79932 0.13573 0.0
H1225 H 0.20826 0.79383 0.13536 0.0
H1226 H 0.20644 0.81354 0.09998 0.0
H1227 H 0.22573 0.83061 0.06788 0.0
H1228 H 0.29767 0.83442 0.0689 0.0
H1229 H 0.2989 0.81772 0.10549 0.0
C1230 C 0.26395 0.80281 0.12821 0.0
C1231 C 0.24434 0.79515 0.13828 0.0
C1232 C 0.26306 0.81393 0.10789 0.0
C1233 C 0.22365 0.79937 0.12789 0.0
C1234 C 0.2226 0.81073 0.10769 0.0
C1235 C 0.24159 0.82807 0.07634 0.0
C1236 C 0.26158 0.83367 0.06567 0.0
C1237 C 0.24224 0.81785 0.09735 0.0
C1238 C 0.28206 0.8301 0.07669 0.0
C1239 C 0.2828 0.82052 0.09762 0.0
H1240 H 0.05302 0.43187 0.15333 0.0
H1241 H 0.05325 0.50218 0.13993 0.0
H1242 H 0.07345 0.51 0.17516 0.0
H1243 H 0.08929 0.49682 0.2108 0.0
H1244 H 0.08813 0.42632 0.2237 0.0
H1245 H 0.07053 0.41864 0.18742 0.0
C1246 C 0.05786 0.44889 0.15785 0.0
C1247 C 0.05163 0.4664 0.14399 0.0
C1248 C 0.06931 0.45324 0.1781 0.0
C1249 C 0.05764 0.4884 0.15041 0.0
C1250 C 0.06927 0.49287 0.17051 0.0
C1251 C 0.08543 0.47978 0.20553 0.0
C1252 C 0.08991 0.4622 0.22003 0.0
C1253 C 0.07492 0.47543 0.18466 0.0
C1254 C 0.08471 0.4402 0.21298 0.0
C1255 C 0.07463 0.43575 0.19221 0.0
H1256 H 0.38481 0.75117 0.2612 0.0
H1257 H 0.35877 0.71923 0.31932 0.0
H1258 H 0.39527 0.72303 0.33798 0.0
H1259 H 0.43439 0.73704 0.33842 0.0
H1260 H 0.45921 0.77075 0.28074 0.0
H1261 H 0.42343 0.76479 0.26146 0.0
C1262 C 0.38699 0.74523 0.27804 0.0
C1263 C 0.36895 0.73505 0.28882 0.0
C1264 C 0.40789 0.7478 0.28881 0.0
C1265 C 0.37236 0.72697 0.31048 0.0
C1266 C 0.39323 0.72924 0.32124 0.0
C1267 C 0.43199 0.74286 0.32156 0.0
C1268 C 0.44945 0.75436 0.31107 0.0
C1269 C 0.41111 0.73977 0.31063 0.0
C1270 C 0.44603 0.76197 0.28927 0.0
C1271 C 0.42555 0.75858 0.2782 0.0
H1272 H 0.01986 0.35637 0.9708 0.0
H1273 H 0.96614 0.31638 0.9966 0.0
H1274 H 0.96951 0.28961 0.9655 0.0
H1275 H 0.98551 0.27963 0.92892 0.0
H1276 H 0.0367 0.32209 0.90196 0.0
H1277 H 0.03693 0.3456 0.93564 0.0
C1278 C 0.00923 0.34153 0.96985 0.0
C1279 C 0.99287 0.33825 0.98595 0.0
C1280 C 0.01079 0.32671 0.95161 0.0
C1281 C 0.97885 0.31922 0.98432 0.0
C1282 C 0.98076 0.30395 0.96655 0.0
C1283 C 0.99697 0.29378 0.93073 0.0
C1284 C 0.01112 0.29917 0.91314 0.0
C1285 C 0.99634 0.30779 0.9498 0.0
C1286 C 0.02566 0.31773 0.91536 0.0
C1287 C 0.02576 0.33118 0.93456 0.0
H1288 H 0.62173 0.73014 0.2625 0.0
H1289 H 0.6543 0.78772 0.29399 0.0
H1290 H 0.62408 0.79081 0.32019 0.0
H1291 H 0.5864 0.78003 0.33133 0.0
H1292 H 0.5541 0.72161 0.30192 0.0
H1293 H 0.58645 0.71553 0.27816 0.0
C1294 C 0.62248 0.74305 0.27538 0.0
C1295 C 0.63998 0.75913 0.27569 0.0
C1296 C 0.60507 0.7446 0.29078 0.0
C1297 C 0.64066 0.77563 0.29271 0.0
C1298 C 0.62345 0.77734 0.30787 0.0
C1299 C 0.58676 0.76564 0.32011 0.0
C1300 C 0.56805 0.7513 0.31823 0.0
C1301 C 0.60527 0.76238 0.3066 0.0
C1302 C 0.56851 0.73271 0.30371 0.0
C1303 C 0.58689 0.72941 0.29 0.0
H1304 H 0.02787 0.10366 0.92084 0.0
H1305 H 0.01256 0.14527 0.97777 0.0
H1306 H 0.00966 0.1775 0.95387 0.0
H1307 H 0.01121 0.19396 0.91688 0.0
H1308 H 0.02696 0.15275 0.85978 0.0
H1309 H 0.03014 0.12043 0.88369 0.0
C1310 C 0.02412 0.11982 0.92804 0.0
C1311 C 0.02031 0.12194 0.9511 0.0
C1312 C 0.02252 0.1384 0.91417 0.0
C1313 C 0.01522 0.14302 0.96007 0.0
C1314 C 0.01366 0.16152 0.94642 0.0
C1315 C 0.01534 0.17793 0.9096 0.0
C1316 C 0.01879 0.17585 0.88651 0.0
C1317 C 0.01717 0.1594 0.92344 0.0
C1318 C 0.02419 0.15489 0.87748 0.0
C1319 C 0.02602 0.13636 0.89115 0.0
H1320 H 0.37799 0.3336 0.23561 0.0
H1321 H 0.43866 0.32648 0.27435 0.0
H1322 H 0.45833 0.31523 0.24069 0.0
H1323 H 0.45788 0.30641 0.20032 0.0
H1324 H 0.39669 0.31349 0.16215 0.0
H1325 H 0.37777 0.32598 0.19549 0.0
C1326 C 0.39562 0.32997 0.23665 0.0
C1327 C 0.40686 0.33097 0.25742 0.0
C1328 C 0.40672 0.32339 0.21733 0.0
C1329 C 0.4296 0.32571 0.25855 0.0
C1330 C 0.44085 0.31931 0.23932 0.0
C1331 C 0.44043 0.31075 0.19929 0.0
C1332 C 0.42876 0.30891 0.17872 0.0
C1333 C 0.42951 0.31788 0.21863 0.0
C1334 C 0.40613 0.31464 0.17772 0.0
C1335 C 0.39525 0.32182 0.1968 0.0
H1336 H 0.49657 0.38136 0.01665 0.0
H1337 H 0.53922 0.41269 0.06736 0.0
H1338 H 0.53063 0.38251 0.09285 0.0
H1339 H 0.50894 0.34829 0.10148 0.0
H1340 H 0.46459 0.31898 0.051 0.0
H1341 H 0.47575 0.34738 0.0248 0.0
C1342 C 0.50385 0.38175 0.03335 0.0
C1343 C 0.5183 0.39943 0.04013 0.0
C1344 C 0.49848 0.36468 0.04801 0.0
C1345 C 0.5281 0.39925 0.06163 0.0
C1346 C 0.5231 0.38205 0.07627 0.0
C1347 C 0.50195 0.34804 0.08466 0.0
C1348 C 0.4859 0.33163 0.07822 0.0
C1349 C 0.50807 0.36481 0.06974 0.0
C1350 C 0.47683 0.33155 0.05643 0.0
C1351 C 0.4832 0.34777 0.04141 0.0
H1352 H 0.6029 0.26617 0.22088 0.0
H1353 H 0.64069 0.24335 0.16465 0.0
H1354 H 0.60908 0.25018 0.13964 0.0
H1355 H 0.57043 0.26194 0.13379 0.0
H1356 H 0.53294 0.28538 0.19001 0.0
H1357 H 0.56486 0.27938 0.21483 0.0
C1358 C 0.60437 0.26299 0.20312 0.0
C1359 C 0.62417 0.25415 0.19473 0.0
C1360 C 0.58616 0.26707 0.18878 0.0
C1361 C 0.62557 0.24981 0.17166 0.0
C1362 C 0.60753 0.25384 0.15731 0.0
C1363 C 0.56925 0.26583 0.15145 0.0
C1364 C 0.54924 0.27403 0.15998 0.0
C1365 C 0.58768 0.26231 0.1657 0.0
C1366 C 0.54809 0.27903 0.18294 0.0
C1367 C 0.56634 0.27558 0.19719 0.0
H1368 H 0.4848 0.15013 0.06903 0.0
H1369 H 0.41304 0.14745 0.0616 0.0
H1370 H 0.41043 0.18239 0.08246 0.0
H1371 H 0.42841 0.2152 0.09988 0.0
H1372 H 0.5001 0.21913 0.10706 0.0
H1373 H 0.50285 0.18217 0.0894 0.0
C1374 C 0.46862 0.15718 0.0721 0.0
C1375 C 0.44916 0.14617 0.06371 0.0
C1376 C 0.46721 0.17754 0.08396 0.0
C1377 C 0.42827 0.15537 0.06807 0.0
C1378 C 0.42675 0.17547 0.07987 0.0
C1379 C 0.44466 0.20792 0.09778 0.0
C1380 C 0.46403 0.22001 0.10452 0.0
C1381 C 0.4461 0.18689 0.08748 0.0
C1382 C 0.48492 0.21018 0.10199 0.0
C1383 C 0.4865 0.1891 0.09177 0.0
H1384 H 0.31268 0.36141 0.70728 0.0
H1385 H 0.25204 0.37945 0.74024 0.0
H1386 H 0.26671 0.41708 0.74683 0.0
H1387 H 0.29733 0.4441 0.7456 0.0
H1388 H 0.35811 0.42747 0.71247 0.0
H1389 H 0.34254 0.39024 0.70294 0.0
C1390 C 0.30257 0.37367 0.71562 0.0
C1391 C 0.28145 0.36739 0.7237 0.0
C1392 C 0.31108 0.39552 0.71927 0.0
C1393 C 0.26859 0.38355 0.73444 0.0
C1394 C 0.27688 0.40517 0.73807 0.0
C1395 C 0.30715 0.43242 0.73611 0.0
C1396 C 0.32893 0.43841 0.72998 0.0
C1397 C 0.29823 0.41118 0.73097 0.0
C1398 C 0.34128 0.42324 0.71737 0.0
C1399 C 0.33244 0.40192 0.71208 0.0
H1400 H 0.2925 0.62682 0.72779 0.0
H1401 H 0.2662 0.61633 0.79331 0.0
H1402 H 0.28603 0.58153 0.79602 0.0
H1403 H 0.31093 0.55453 0.78048 0.0
H1404 H 0.33854 0.56377 0.71532 0.0
H1405 H 0.3182 0.59868 0.71178 0.0
C1406 C 0.29109 0.61678 0.74254 0.0
C1407 C 0.27805 0.62419 0.76041 0.0
C1408 C 0.30282 0.5967 0.74411 0.0
C1409 C 0.27637 0.61112 0.77949 0.0
C1410 C 0.28765 0.59119 0.78104 0.0
C1411 C 0.31258 0.56406 0.7654 0.0
C1412 C 0.32626 0.55645 0.74817 0.0
C1413 C 0.30099 0.58393 0.76356 0.0
C1414 C 0.32817 0.56923 0.72887 0.0
C1415 C 0.31649 0.58917 0.72683 0.0
H1416 H 0.87475 0.44741 0.51283 0.0
H1417 H 0.8236 0.49407 0.49647 0.0
H1418 H 0.79477 0.46527 0.50201 0.0
H1419 H 0.78449 0.42573 0.50839 0.0
H1420 H 0.83656 0.37949 0.52382 0.0
H1421 H 0.86453 0.40915 0.52171 0.0
C1422 C 0.85728 0.45129 0.51054 0.0
C1423 C 0.85131 0.47272 0.50399 0.0
C1424 C 0.84094 0.43465 0.51344 0.0
C1425 C 0.8286 0.47767 0.50156 0.0
C1426 C 0.81214 0.46117 0.50458 0.0
C1427 C 0.80192 0.42224 0.51156 0.0
C1428 C 0.80838 0.40031 0.51599 0.0
C1429 C 0.81814 0.43944 0.51008 0.0
C1430 C 0.83107 0.39611 0.5201 0.0
C1431 C 0.84715 0.41308 0.51892 0.0
H1432 H 0.7169 0.87017 0.82406 0.0
H1433 H 0.75522 0.92783 0.80438 0.0
H1434 H 0.72082 0.94843 0.79877 0.0
H1435 H 0.67982 0.95002 0.79978 0.0
H1436 H 0.64195 0.89202 0.81976 0.0
H1437 H 0.67628 0.87172 0.82517 0.0
C1438 C 0.71776 0.88734 0.81881 0.0
C1439 C 0.73859 0.89751 0.81481 0.0
C1440 C 0.698 0.89903 0.81567 0.0
C1441 C 0.73938 0.91959 0.80747 0.0
C1442 C 0.71973 0.9314 0.80434 0.0
C1443 C 0.67906 0.93294 0.80532 0.0
C1444 C 0.65828 0.92261 0.80937 0.0
C1445 C 0.69893 0.92127 0.80841 0.0
C1446 C 0.65766 0.90044 0.81651 0.0
C1447 C 0.67731 0.88878 0.81963 0.0
H1448 H 0.66001 0.51713 0.94967 0.0
H1449 H 0.63003 0.57628 0.97629 0.0
H1450 H 0.6665 0.59565 0.97725 0.0
H1451 H 0.70714 0.59545 0.97049 0.0
H1452 H 0.73598 0.53656 0.9416 0.0
H1453 H 0.69982 0.51734 0.94166 0.0
C1454 C 0.66154 0.53425 0.95572 0.0
C1455 C 0.64256 0.54528 0.96306 0.0
C1456 C 0.68235 0.54527 0.95585 0.0
C1457 C 0.64453 0.56754 0.97055 0.0
C1458 C 0.66535 0.57855 0.97115 0.0
C1459 C 0.70544 0.5784 0.96429 0.0
C1460 C 0.72419 0.56742 0.95612 0.0
C1461 C 0.68441 0.56755 0.96388 0.0
C1462 C 0.72177 0.54541 0.94788 0.0
C1463 C 0.70112 0.53437 0.94794 0.0
H1464 H 0.16535 0.63952 0.24385 0.0
H1465 H 0.22683 0.60376 0.24952 0.0
H1466 H 0.20601 0.56942 0.25657 0.0
H1467 H 0.17054 0.54963 0.26186 0.0
H1468 H 0.10879 0.58492 0.25591 0.0
H1469 H 0.12952 0.61924 0.24797 0.0
C1470 C 0.17416 0.62416 0.24638 0.0
C1471 C 0.19764 0.62429 0.24633 0.0
C1472 C 0.16206 0.60437 0.25041 0.0
C1473 C 0.2088 0.60425 0.24985 0.0
C1474 C 0.1969 0.58455 0.25378 0.0
C1475 C 0.16156 0.56479 0.2588 0.0
C1476 C 0.13813 0.56466 0.25958 0.0
C1477 C 0.17355 0.58445 0.25428 0.0
C1478 C 0.12682 0.5845 0.25545 0.0
C1479 C 0.13867 0.60416 0.25092 0.0
H1480 H 0.88439 0.52467 0.04166 0.0
H1481 H 0.90288 0.49646 0.97807 0.0
H1482 H 0.87701 0.52064 0.95894 0.0
H1483 H 0.84844 0.54858 0.96012 0.0
H1484 H 0.8289 0.57725 0.02316 0.0
H1485 H 0.85616 0.55435 0.04264 0.0
C1486 C 0.88284 0.524 0.02362 0.0
C1487 C 0.89532 0.50857 0.01133 0.0
C1488 C 0.86781 0.538 0.01264 0.0
C1489 C 0.89314 0.50784 0.98795 0.0
C1490 C 0.87845 0.52175 0.97697 0.0
C1491 C 0.85012 0.54997 0.97814 0.0
C1492 C 0.83652 0.56454 0.99015 0.0
C1493 C 0.86555 0.53667 0.98915 0.0
C1494 C 0.83913 0.56615 0.01348 0.0
C1495 C 0.85468 0.55301 0.02463 0.0
H1496 H 0.13794 0.97072 0.01423 0.0
H1497 H 0.08681 0.91942 0.01805 0.0
H1498 H 0.11497 0.89075 0.0155 0.0
H1499 H 0.15413 0.88013 0.01207 0.0
H1500 H 0.20533 0.93141 0.00819 0.0
H1501 H 0.17717 0.96007 0.01069 0.0
C1502 C 0.13294 0.95327 0.01431 0.0
C1503 C 0.11026 0.94729 0.01637 0.0
C1504 C 0.14926 0.93681 0.01283 0.0
C1505 C 0.10415 0.92455 0.01677 0.0
C1506 C 0.12025 0.90811 0.0152 0.0
C1507 C 0.15916 0.89757 0.01177 0.0
C1508 C 0.18187 0.90353 0.00993 0.0
C1509 C 0.14286 0.91403 0.01326 0.0
C1510 C 0.18801 0.92627 0.00961 0.0
C1511 C 0.17189 0.94271 0.01102 0.0
loop_
_geom_bond_atom_site_label_1
_geom_bond_atom_site_label_2
_geom_bond_distance
_geom_bond_site_symmetry_2
_ccdc_geom_bond_type
C0 C1 1.384 . S
C0 H13 0.947 . S
C0 C35 1.382 . S
C1 C0 1.384 . S
C1 C2 1.378 1_655 S
C2 C1 1.378 1_455 S
C2 C3 1.378 . S
C2 H14 0.952 . S
C3 C2 1.378 . S
C3 H15 0.950 . S
C3 C34 1.383 . S
H4 C23 0.947 . S
H5 C24 0.946 . S
H6 C26 0.953 . S
H7 C27 0.945 . S
H8 C29 0.952 . S
H9 C30 0.949 . S
H10 C32 0.950 . S
H11 C33 0.948 . S
H12 C35 0.951 . S
H13 C0 0.947 . S
H14 C2 0.952 . S
H15 C3 0.950 . S
N16 C19 1.382 . S
N16 C21 1.363 . S
N17 C19 1.371 . S
N17 C20 1.372 . S
N18 C20 1.361 . S
N18 C21 1.377 . S
C19 N16 1.382 . S
C19 N17 1.371 . S
C19 C22 1.480 . S
C20 N17 1.372 . S
C20 N18 1.361 . S
C20 C28 1.457 . S
C21 N16 1.363 . S
C21 N18 1.377 . S
C21 C34 1.479 . S
C22 C19 1.480 . S
C22 C23 1.383 1_545 S
C22 C27 1.385 . S
C23 H4 0.947 . S
C23 C22 1.383 1_565 S
C23 C24 1.388 . S
C24 H5 0.946 . S
C24 C23 1.388 . S
C24 C25 1.384 . S
C25 C24 1.384 . S
C25 C26 1.377 1_565 S
C26 H6 0.953 . S
C26 C25 1.377 1_545 S
C26 C27 1.369 . S
C27 H7 0.945 . S
C27 C22 1.385 . S
C27 C26 1.369 . S
C28 C20 1.457 . S
C28 C29 1.372 1_554 S
C28 C33 1.364 . S
C29 H8 0.952 . S
C29 C28 1.372 1_556 S
C29 C30 1.389 . S
C30 H9 0.949 . S
C30 C29 1.389 . S
C30 C31 1.387 . S
C31 C30 1.387 . S
C31 C32 1.372 1_556 S
C32 H10 0.950 . S
C32 C31 1.372 1_554 S
C32 C33 1.379 . S
C33 H11 0.948 . S
C33 C28 1.364 . S
C33 C32 1.379 . S
C34 C3 1.383 . S
C34 C21 1.479 . S
C34 C35 1.398 1_455 S
C35 C0 1.382 . S
C35 H12 0.951 . S
C35 C34 1.398 1_655 S
C36 C37 1.384 . S
C36 H49 0.947 . S
C36 C71 1.382 . S
C37 C36 1.384 . S
C37 C38 1.378 . S
C38 C37 1.378 . S
C38 C39 1.378 . S
C38 H50 0.952 . S
C39 C38 1.378 . S
C39 H51 0.950 . S
C39 C70 1.383 . S
H40 C59 0.947 . S
H41 C60 0.946 . S
H42 C62 0.953 . S
H43 C63 0.945 . S
H44 C65 0.952 . S
H45 C66 0.949 . S
H46 C68 0.950 . S
H47 C69 0.948 . S
H48 C71 0.951 . S
H49 C36 0.947 . S
H50 C38 0.952 . S
H51 C39 0.950 . S
N52 C55 1.382 . S
N52 C57 1.363 . S
N53 C55 1.371 . S
N53 C56 1.372 . S
N54 C56 1.361 . S
N54 C57 1.377 . S
C55 N52 1.382 . S
C55 N53 1.371 . S
C55 C58 1.480 . S
C56 N53 1.372 . S
C56 N54 1.361 . S
C56 C64 1.457 . S
C57 N52 1.363 . S
C57 N54 1.377 . S
C57 C70 1.479 . S
C58 C55 1.480 . S
C58 C59 1.383 . S
C58 C63 1.385 . S
C59 H40 0.947 . S
C59 C58 1.383 . S
C59 C60 1.388 . S
C60 H41 0.946 . S
C60 C59 1.388 . S
C60 C61 1.384 . S
C61 C60 1.384 . S
C61 C62 1.377 . S
C62 H42 0.953 . S
C62 C61 1.377 . S
C62 C63 1.369 . S
C63 H43 0.945 . S
C63 C58 1.385 . S
C63 C62 1.369 . S
C64 C56 1.457 . S
C64 C65 1.372 . S
C64 C69 1.364 . S
C65 H44 0.952 . S
C65 C64 1.372 . S
C65 C66 1.389 . S
C66 H45 0.949 . S
C66 C65 1.389 . S
C66 C67 1.387 . S
C67 C66 1.387 . S
C67 C68 1.372 . S
C68 H46 0.950 . S
C68 C67 1.372 . S
C68 C69 1.379 . S
C69 H47 0.948 . S
C69 C64 1.364 . S
C69 C68 1.379 . S
C70 C39 1.383 . S
C70 C57 1.479 . S
C70 C71 1.398 . S
C71 C36 1.382 . S
C71 H48 0.951 . S
C71 C70 1.398 . S
C72 C73 1.384 1_554 S
C72 H85 0.947 . S
C72 C107 1.382 . S
C73 C72 1.384 1_556 S
C73 C74 1.378 . S
C74 C73 1.378 . S
C74 C75 1.378 1_556 S
C74 H86 0.952 . S
C75 C74 1.378 1_554 S
C75 H87 0.938 1_554 S
C75 C106 1.383 . S
H76 C95 0.947 . S
H77 C96 0.946 . S
H78 C98 0.953 . S
H79 C99 0.945 . S
H80 C101 0.952 . S
H81 C102 0.949 . S
H82 C104 0.950 . S
H83 C105 0.949 . S
H84 C107 0.951 . S
H85 C72 0.947 . S
H86 C74 0.952 . S
H87 C75 0.938 1_556 S
N88 C91 1.382 . S
N88 C93 1.363 . S
N89 C91 1.371 . S
N89 C92 1.372 . S
N90 C92 1.361 . S
N90 C93 1.377 . S
C91 N88 1.382 . S
C91 N89 1.371 . S
C91 C94 1.480 . S
C92 N89 1.372 . S
C92 N90 1.361 . S
C92 C100 1.457 . S
C93 N88 1.363 . S
C93 N90 1.377 . S
C93 C106 1.479 . S
C94 C91 1.480 . S
C94 C95 1.383 . S
C94 C99 1.385 . S
C95 H76 0.947 . S
C95 C94 1.383 . S
C95 C96 1.388 . S
C96 H77 0.946 . S
C96 C95 1.388 . S
C96 C97 1.384 . S
C97 C96 1.384 . S
C97 C98 1.377 . S
C98 H78 0.953 . S
C98 C97 1.377 . S
C98 C99 1.369 . S
C99 H79 0.945 . S
C99 C94 1.385 . S
C99 C98 1.369 . S
C100 C92 1.457 . S
C100 C101 1.372 . S
C100 C105 1.358 1_655 S
C101 H80 0.952 . S
C101 C100 1.372 . S
C101 C102 1.389 . S
C102 H81 0.949 . S
C102 C101 1.389 . S
C102 C103 1.387 1_655 S
C103 C102 1.387 1_455 S
C103 C104 1.372 . S
C104 H82 0.950 . S
C104 C103 1.372 . S
C104 C105 1.383 . S
C105 H83 0.949 . S
C105 C100 1.358 1_455 S
C105 C104 1.383 . S
C106 C75 1.383 . S
C106 C93 1.479 . S
C106 C107 1.398 . S
C107 C72 1.382 . S
C107 H84 0.951 . S
C107 C106 1.398 . S
C108 C109 1.384 . S
C108 H121 0.947 . S
C108 C143 1.382 . S
C109 C108 1.384 . S
C109 C110 1.378 . S
C110 C109 1.378 . S
C110 C111 1.378 . S
C110 H122 0.952 . S
C111 C110 1.378 . S
C111 H123 0.950 . S
C111 C142 1.383 . S
H112 C131 0.947 . S
H113 C132 0.946 . S
H114 C134 0.953 . S
H115 C135 0.945 . S
H116 C137 0.952 . S
H117 C138 0.949 . S
H118 C140 0.950 . S
H119 C141 0.948 . S
H120 C143 0.951 . S
H121 C108 0.947 . S
H122 C110 0.952 . S
H123 C111 0.950 . S
N124 C127 1.382 . S
N124 C129 1.363 . S
N125 C127 1.371 . S
N125 C128 1.372 . S
N126 C128 1.361 . S
N126 C129 1.377 . S
C127 N124 1.382 . S
C127 N125 1.371 . S
C127 C130 1.480 . S
C128 N125 1.372 . S
C128 N126 1.361 . S
C128 C136 1.457 . S
C129 N124 1.363 . S
C129 N126 1.377 . S
C129 C142 1.479 . S
C130 C127 1.480 . S
C130 C131 1.383 . S
C130 C135 1.385 . S
C131 H112 0.947 . S
C131 C130 1.383 . S
C131 C132 1.388 . S
C132 H113 0.946 . S
C132 C131 1.388 . S
C132 C133 1.384 . S
C133 C132 1.384 . S
C133 C134 1.377 . S
C134 H114 0.953 . S
C134 C133 1.377 . S
C134 C135 1.369 . S
C135 H115 0.945 . S
C135 C130 1.385 . S
C135 C134 1.369 . S
C136 C128 1.457 . S
C136 C137 1.372 . S
C136 C141 1.364 . S
C137 H116 0.952 . S
C137 C136 1.372 . S
C137 C138 1.389 . S
C138 H117 0.949 . S
C138 C137 1.389 . S
C138 C139 1.387 . S
C139 C138 1.387 . S
C139 C140 1.372 . S
C140 H118 0.950 . S
C140 C139 1.372 . S
C140 C141 1.379 . S
C141 H119 0.948 . S
C141 C136 1.364 . S
C141 C140 1.379 . S
C142 C111 1.383 . S
C142 C129 1.479 . S
C142 C143 1.398 . S
C143 C108 1.382 . S
C143 H120 0.951 . S
C143 C142 1.398 . S
C144 C145 1.384 . S
C144 H157 0.947 . S
C144 C179 1.382 . S
C145 C144 1.384 . S
C145 C146 1.378 . S
C146 C145 1.378 . S
C146 C147 1.378 . S
C146 H158 0.952 . S
C147 C146 1.378 . S
C147 H159 0.950 . S
C147 C178 1.383 . S
H148 C167 0.947 . S
H149 C168 0.946 . S
H150 C170 0.953 . S
H151 C171 0.945 . S
H152 C173 0.952 . S
H153 C174 0.949 . S
H154 C176 0.950 . S
H155 C177 0.948 . S
H156 C179 0.951 . S
H157 C144 0.947 . S
H158 C146 0.952 . S
H159 C147 0.950 . S
N160 C163 1.382 . S
N160 C165 1.363 . S
N161 C163 1.371 . S
N161 C164 1.372 . S
N162 C164 1.361 . S
N162 C165 1.377 . S
C163 N160 1.382 . S
C163 N161 1.371 . S
C163 C166 1.480 . S
C164 N161 1.372 . S
C164 N162 1.361 . S
C164 C172 1.457 . S
C165 N160 1.363 . S
C165 N162 1.377 . S
C165 C178 1.479 . S
C166 C163 1.480 . S
C166 C167 1.383 . S
C166 C171 1.385 . S
C167 H148 0.947 . S
C167 C166 1.383 . S
C167 C168 1.388 1_455 S
C168 H149 0.946 . S
C168 C167 1.388 1_655 S
C168 C169 1.384 . S
C169 C168 1.384 . S
C169 C170 1.377 1_655 S
C170 H150 0.953 . S
C170 C169 1.377 1_455 S
C170 C171 1.369 . S
C171 H151 0.945 . S
C171 C166 1.385 . S
C171 C170 1.369 . S
C172 C164 1.457 . S
C172 C173 1.372 . S
C172 C177 1.364 . S
C173 H152 0.952 . S
C173 C172 1.372 . S
C173 C174 1.389 1_565 S
C174 H153 0.949 . S
C174 C173 1.389 1_545 S
C174 C175 1.387 . S
C175 C174 1.387 . S
C175 C176 1.372 1_545 S
C176 H154 0.950 . S
C176 C175 1.372 1_565 S
C176 C177 1.379 . S
C177 H155 0.948 . S
C177 C172 1.364 . S
C177 C176 1.379 . S
C178 C147 1.383 . S
C178 C165 1.479 . S
C178 C179 1.398 . S
C179 C144 1.382 . S
C179 H156 0.951 . S
C179 C178 1.398 . S
C180 C181 1.384 . S
C180 H193 0.947 . S
C180 C215 1.382 . S
C181 C180 1.384 . S
C181 C182 1.378 . S
C182 C181 1.378 . S
C182 C183 1.378 . S
C182 H194 0.952 . S
C183 C182 1.378 . S
C183 H195 0.950 . S
C183 C214 1.383 . S
H184 C203 0.947 . S
H185 C204 0.946 . S
H186 C206 0.953 . S
H187 C207 0.945 . S
H188 C209 0.952 . S
H189 C210 0.949 . S
H190 C212 0.950 . S
H191 C213 0.948 . S
H192 C215 0.951 . S
H193 C180 0.947 . S
H194 C182 0.952 . S
H195 C183 0.950 . S
N196 C199 1.382 . S
N196 C201 1.363 . S
N197 C199 1.371 . S
N197 C200 1.372 . S
N198 C200 1.361 . S
N198 C201 1.377 . S
C199 N196 1.382 . S
C199 N197 1.371 . S
C199 C202 1.480 . S
C200 N197 1.372 . S
C200 N198 1.361 . S
C200 C208 1.457 . S
C201 N196 1.363 . S
C201 N198 1.377 . S
C201 C214 1.479 . S
C202 C199 1.480 . S
C202 C203 1.383 . S
C202 C207 1.385 . S
C203 H184 0.947 . S
C203 C202 1.383 . S
C203 C204 1.388 . S
C204 H185 0.946 . S
C204 C203 1.388 . S
C204 C205 1.384 . S
C205 C204 1.384 . S
C205 C206 1.377 . S
C206 H186 0.953 . S
C206 C205 1.377 . S
C206 C207 1.369 . S
C207 H187 0.945 . S
C207 C202 1.385 . S
C207 C206 1.369 . S
C208 C200 1.457 . S
C208 C209 1.372 . S
C208 C213 1.364 . S
C209 H188 0.952 . S
C209 C208 1.372 . S
C209 C210 1.389 . S
C210 H189 0.949 . S
C210 C209 1.389 . S
C210 C211 1.387 . S
C211 C210 1.387 . S
C211 C212 1.372 . S
C212 H190 0.950 . S
C212 C211 1.372 . S
C212 C213 1.379 . S
C213 H191 0.948 . S
C213 C208 1.364 . S
C213 C212 1.379 . S
C214 C183 1.383 . S
C214 C201 1.479 . S
C214 C215 1.398 . S
C215 C180 1.382 . S
C215 H192 0.951 . S
C215 C214 1.398 . S
C216 C217 1.384 . S
C216 H229 0.947 . S
C216 C251 1.382 . S
C217 C216 1.384 . S
C217 C218 1.378 . S
C218 C217 1.378 . S
C218 C219 1.378 . S
C218 H230 0.952 . S
C219 C218 1.378 . S
C219 H231 0.950 . S
C219 C250 1.383 . S
H220 C239 0.947 . S
H221 C240 0.946 . S
H222 C242 0.953 . S
H223 C243 0.945 . S
H224 C245 0.952 . S
H225 C246 0.949 . S
H226 C248 0.950 . S
H227 C249 0.948 . S
H228 C251 0.951 . S
H229 C216 0.947 . S
H230 C218 0.952 . S
H231 C219 0.950 . S
N232 C235 1.382 . S
N232 C237 1.363 . S
N233 C235 1.371 . S
N233 C236 1.372 . S
N234 C236 1.361 . S
N234 C237 1.377 . S
C235 N232 1.382 . S
C235 N233 1.371 . S
C235 C238 1.480 . S
C236 N233 1.372 . S
C236 N234 1.361 . S
C236 C244 1.457 . S
C237 N232 1.363 . S
C237 N234 1.377 . S
C237 C250 1.479 . S
C238 C235 1.480 . S
C238 C239 1.383 . S
C238 C243 1.385 . S
C239 H220 0.947 . S
C239 C238 1.383 . S
C239 C240 1.388 . S
C240 H221 0.946 . S
C240 C239 1.388 . S
C240 C241 1.384 . S
C241 C240 1.384 . S
C241 C242 1.377 . S
C242 H222 0.953 . S
C242 C241 1.377 . S
C242 C243 1.369 . S
C243 H223 0.945 . S
C243 C238 1.385 . S
C243 C242 1.369 . S
C244 C236 1.457 . S
C244 C245 1.372 . S
C244 C249 1.364 1_655 S
C245 H224 0.952 . S
C245 C244 1.372 . S
C245 C246 1.389 . S
C246 H225 0.949 . S
C246 C245 1.389 . S
C246 C247 1.387 1_655 S
C247 C246 1.387 1_455 S
C247 C248 1.372 . S
C248 H226 0.950 . S
C248 C247 1.372 . S
C248 C249 1.379 . S
C249 H227 0.948 . S
C249 C244 1.364 1_455 S
C249 C248 1.379 . S
C250 C219 1.383 . S
C250 C237 1.479 . S
C250 C251 1.398 . S
C251 C216 1.382 . S
C251 H228 0.951 . S
C251 C250 1.398 . S
C252 C253 1.384 . S
C252 H265 0.947 . S
C252 C287 1.382 . S
C253 C252 1.384 . S
C253 C254 1.378 . S
C254 C253 1.378 . S
C254 C255 1.378 . S
C254 H266 0.952 . S
C255 C254 1.378 . S
C255 H267 0.950 . S
C255 C286 1.383 . S
H256 C275 0.947 . S
H257 C276 0.946 . S
H258 C278 0.953 . S
H259 C279 0.945 . S
H260 C281 0.952 . S
H261 C282 0.949 . S
H262 C284 0.950 . S
H263 C285 0.948 . S
H264 C287 0.951 . S
H265 C252 0.947 . S
H266 C254 0.952 . S
H267 C255 0.950 . S
N268 C271 1.382 . S
N268 C273 1.363 . S
N269 C271 1.371 . S
N269 C272 1.372 . S
N270 C272 1.361 . S
N270 C273 1.377 . S
C271 N268 1.382 . S
C271 N269 1.371 . S
C271 C274 1.480 . S
C272 N269 1.372 . S
C272 N270 1.361 . S
C272 C280 1.457 . S
C273 N268 1.363 . S
C273 N270 1.377 . S
C273 C286 1.479 . S
C274 C271 1.480 . S
C274 C275 1.383 . S
C274 C279 1.385 . S
C275 H256 0.947 . S
C275 C274 1.383 . S
C275 C276 1.388 . S
C276 H257 0.946 . S
C276 C275 1.388 . S
C276 C277 1.384 . S
C277 C276 1.384 . S
C277 C278 1.377 . S
C278 H258 0.953 . S
C278 C277 1.377 . S
C278 C279 1.369 . S
C279 H259 0.945 . S
C279 C274 1.385 . S
C279 C278 1.369 . S
C280 C272 1.457 . S
C280 C281 1.372 . S
C280 C285 1.364 . S
C281 H260 0.952 . S
C281 C280 1.372 . S
C281 C282 1.389 . S
C282 H261 0.949 . S
C282 C281 1.389 . S
C282 C283 1.387 . S
C283 C282 1.387 . S
C283 C284 1.372 . S
C284 H262 0.950 . S
C284 C283 1.372 . S
C284 C285 1.379 . S
C285 H263 0.948 . S
C285 C280 1.364 . S
C285 C284 1.379 . S
C286 C255 1.383 . S
C286 C273 1.479 . S
C286 C287 1.398 . S
C287 C252 1.382 . S
C287 H264 0.951 . S
C287 C286 1.398 . S
C288 C289 1.384 . S
C288 H301 0.947 . S
C288 C323 1.382 . S
C289 C288 1.384 . S
C289 C290 1.378 . S
C290 C289 1.378 . S
C290 C291 1.378 . S
C290 H302 0.952 . S
C291 C290 1.378 . S
C291 H303 0.950 . S
C291 C322 1.383 . S
H292 C311 0.947 . S
H293 C312 0.946 . S
H294 C314 0.953 . S
H295 C315 0.945 . S
H296 C317 0.952 . S
H297 C318 0.949 . S
H298 C320 0.950 . S
H299 C321 0.948 . S
H300 C323 0.951 . S
H301 C288 0.947 . S
H302 C290 0.952 . S
H303 C291 0.950 . S
N304 C307 1.382 . S
N304 C309 1.363 . S
N305 C307 1.371 . S
N305 C308 1.372 . S
N306 C308 1.361 . S
N306 C309 1.377 . S
C307 N304 1.382 . S
C307 N305 1.371 . S
C307 C310 1.480 . S
C308 N305 1.372 . S
C308 N306 1.361 . S
C308 C316 1.457 . S
C309 N304 1.363 . S
C309 N306 1.377 . S
C309 C322 1.479 . S
C310 C307 1.480 . S
C310 C311 1.383 . S
C310 C315 1.385 . S
C311 H292 0.947 . S
C311 C310 1.383 . S
C311 C312 1.388 . S
C312 H293 0.946 . S
C312 C311 1.388 . S
C312 C313 1.384 . S
C313 C312 1.384 . S
C313 C314 1.377 . S
C314 H294 0.953 . S
C314 C313 1.377 . S
C314 C315 1.369 . S
C315 H295 0.945 . S
C315 C310 1.385 . S
C315 C314 1.369 . S
C316 C308 1.457 . S
C316 C317 1.372 . S
C316 C321 1.364 . S
C317 H296 0.952 . S
C317 C316 1.372 . S
C317 C318 1.389 . S
C318 H297 0.949 . S
C318 C317 1.389 . S
C318 C319 1.387 . S
C319 C318 1.387 . S
C319 C320 1.372 . S
C320 H298 0.950 . S
C320 C319 1.372 . S
C320 C321 1.379 . S
C321 H299 0.948 . S
C321 C316 1.364 . S
C321 C320 1.379 . S
C322 C291 1.383 . S
C322 C309 1.479 . S
C322 C323 1.398 . S
C323 C288 1.382 . S
C323 H300 0.951 . S
C323 C322 1.398 . S
C324 C325 1.384 . S
C324 H337 0.947 . S
C324 C359 1.382 . S
C325 C324 1.384 . S
C325 C326 1.378 . S
C326 C325 1.378 . S
C326 C327 1.378 . S
C326 H338 0.952 . S
C327 C326 1.378 . S
C327 H339 0.950 . S
C327 C358 1.383 . S
H328 C347 0.947 . S
H329 C348 0.946 . S
H330 C350 0.953 . S
H331 C351 0.945 . S
H332 C353 0.952 . S
H333 C354 0.949 . S
H334 C356 0.950 . S
H335 C357 0.948 . S
H336 C359 0.951 . S
H337 C324 0.947 . S
H338 C326 0.952 . S
H339 C327 0.950 . S
N340 C343 1.382 . S
N340 C345 1.363 . S
N341 C343 1.371 . S
N341 C344 1.372 . S
N342 C344 1.361 . S
N342 C345 1.377 . S
C343 N340 1.382 . S
C343 N341 1.371 . S
C343 C346 1.480 . S
C344 N341 1.372 . S
C344 N342 1.361 . S
C344 C352 1.457 . S
C345 N340 1.363 . S
C345 N342 1.377 . S
C345 C358 1.479 . S
C346 C343 1.480 . S
C346 C347 1.383 . S
C346 C351 1.385 1_565 S
C347 H328 0.947 . S
C347 C346 1.383 . S
C347 C348 1.388 . S
C348 H329 0.946 . S
C348 C347 1.388 . S
C348 C349 1.384 1_565 S
C349 C348 1.384 1_545 S
C349 C350 1.377 . S
C350 H330 0.953 . S
C350 C349 1.377 . S
C350 C351 1.369 . S
C351 H331 0.945 . S
C351 C346 1.385 1_545 S
C351 C350 1.369 . S
C352 C344 1.457 . S
C352 C353 1.372 . S
C352 C357 1.364 . S
C353 H332 0.952 . S
C353 C352 1.372 . S
C353 C354 1.389 . S
C354 H333 0.949 . S
C354 C353 1.389 . S
C354 C355 1.387 . S
C355 C354 1.387 . S
C355 C356 1.372 . S
C356 H334 0.950 . S
C356 C355 1.372 . S
C356 C357 1.379 . S
C357 H335 0.948 . S
C357 C352 1.364 . S
C357 C356 1.379 . S
C358 C327 1.383 . S
C358 C345 1.479 . S
C358 C359 1.398 . S
C359 C324 1.382 . S
C359 H336 0.951 . S
C359 C358 1.398 . S
C360 C361 1.384 . S
C360 H373 0.947 . S
C360 C395 1.382 . S
C361 C360 1.384 . S
C361 C362 1.378 . S
C362 C361 1.378 . S
C362 C363 1.378 . S
C362 H374 0.952 . S
C363 C362 1.378 . S
C363 H375 0.950 . S
C363 C394 1.383 . S
H364 C383 0.947 . S
H365 C384 0.946 . S
H366 C386 0.953 . S
H367 C387 0.945 . S
H368 C389 0.952 . S
H369 C390 0.949 . S
H370 C392 0.950 . S
H371 C393 0.948 . S
H372 C395 0.951 . S
H373 C360 0.947 . S
H374 C362 0.952 . S
H375 C363 0.950 . S
N376 C379 1.382 . S
N376 C381 1.363 . S
N377 C379 1.371 . S
N377 C380 1.372 . S
N378 C380 1.361 . S
N378 C381 1.377 . S
C379 N376 1.382 . S
C379 N377 1.371 . S
C379 C382 1.480 . S
C380 N377 1.372 . S
C380 N378 1.361 . S
C380 C388 1.457 . S
C381 N376 1.363 . S
C381 N378 1.377 . S
C381 C394 1.479 . S
C382 C379 1.480 . S
C382 C383 1.383 . S
C382 C387 1.385 . S
C383 H364 0.947 . S
C383 C382 1.383 . S
C383 C384 1.388 . S
C384 H365 0.946 . S
C384 C383 1.388 . S
C384 C385 1.384 . S
C385 C384 1.384 . S
C385 C386 1.377 . S
C386 H366 0.953 . S
C386 C385 1.377 . S
C386 C387 1.369 . S
C387 H367 0.945 . S
C387 C382 1.385 . S
C387 C386 1.369 . S
C388 C380 1.457 . S
C388 C389 1.372 . S
C388 C393 1.364 . S
C389 H368 0.952 . S
C389 C388 1.372 . S
C389 C390 1.389 . S
C390 H369 0.949 . S
C390 C389 1.389 . S
C390 C391 1.387 . S
C391 C390 1.387 . S
C391 C392 1.372 . S
C392 H370 0.950 . S
C392 C391 1.372 . S
C392 C393 1.379 . S
C393 H371 0.948 . S
C393 C388 1.364 . S
C393 C392 1.379 . S
C394 C363 1.383 . S
C394 C381 1.479 . S
C394 C395 1.398 . S
C395 C360 1.382 . S
C395 H372 0.951 . S
C395 C394 1.398 . S
C396 C397 1.384 . S
C396 H409 0.947 . S
C396 C431 1.382 . S
C397 C396 1.384 . S
C397 C398 1.378 . S
C398 C397 1.378 . S
C398 C399 1.378 . S
C398 H410 0.952 . S
C399 C398 1.378 . S
C399 H411 0.950 . S
C399 C430 1.383 . S
H400 C419 0.947 . S
H401 C420 0.946 . S
H402 C422 0.953 . S
H403 C423 0.945 . S
H404 C425 0.952 . S
H405 C426 0.949 . S
H406 C428 0.950 . S
H407 C429 0.948 . S
H408 C431 0.951 . S
H409 C396 0.947 . S
H410 C398 0.952 . S
H411 C399 0.950 . S
N412 C415 1.382 . S
N412 C417 1.363 . S
N413 C415 1.371 . S
N413 C416 1.372 . S
N414 C416 1.361 . S
N414 C417 1.377 . S
C415 N412 1.382 . S
C415 N413 1.371 . S
C415 C418 1.480 . S
C416 N413 1.372 . S
C416 N414 1.361 . S
C416 C424 1.457 . S
C417 N412 1.363 . S
C417 N414 1.377 . S
C417 C430 1.479 . S
C418 C415 1.480 . S
C418 C419 1.383 . S
C418 C423 1.385 . S
C419 H400 0.947 . S
C419 C418 1.383 . S
C419 C420 1.388 . S
C420 H401 0.946 . S
C420 C419 1.388 . S
C420 C421 1.384 . S
C421 C420 1.384 . S
C421 C422 1.377 . S
C422 H402 0.953 . S
C422 C421 1.377 . S
C422 C423 1.369 . S
C423 H403 0.945 . S
C423 C418 1.385 . S
C423 C422 1.369 . S
C424 C416 1.457 . S
C424 C425 1.372 . S
C424 C429 1.364 . S
C425 H404 0.952 . S
C425 C424 1.372 . S
C425 C426 1.389 . S
C426 H405 0.949 . S
C426 C425 1.389 . S
C426 C427 1.387 . S
C427 C426 1.387 . S
C427 C428 1.372 . S
C428 H406 0.950 . S
C428 C427 1.372 . S
C428 C429 1.379 . S
C429 H407 0.948 . S
C429 C424 1.364 . S
C429 C428 1.379 . S
C430 C399 1.383 . S
C430 C417 1.479 . S
C430 C431 1.398 . S
C431 C396 1.382 . S
C431 H408 0.951 . S
C431 C430 1.398 . S
C432 C433 1.384 . S
C432 H445 0.947 . S
C432 C467 1.382 . S
C433 C432 1.384 . S
C433 C434 1.378 . S
C434 C433 1.378 . S
C434 C435 1.378 . S
C434 H446 0.952 . S
C435 C434 1.378 . S
C435 H447 0.950 . S
C435 C466 1.383 . S
H436 C455 0.947 . S
H437 C456 0.946 . S
H438 C458 0.953 . S
H439 C459 0.945 . S
H440 C461 0.952 . S
H441 C462 0.949 . S
H442 C464 0.950 . S
H443 C465 0.948 . S
H444 C467 0.951 . S
H445 C432 0.947 . S
H446 C434 0.952 . S
H447 C435 0.950 . S
N448 C451 1.382 . S
N448 C453 1.363 . S
N449 C451 1.371 . S
N449 C452 1.372 . S
N450 C452 1.361 . S
N450 C453 1.377 . S
C451 N448 1.382 . S
C451 N449 1.371 . S
C451 C454 1.480 . S
C452 N449 1.372 . S
C452 N450 1.361 . S
C452 C460 1.457 . S
C453 N448 1.363 . S
C453 N450 1.377 . S
C453 C466 1.479 . S
C454 C451 1.480 . S
C454 C455 1.383 . S
C454 C459 1.385 . S
C455 H436 0.947 . S
C455 C454 1.383 . S
C455 C456 1.388 . S
C456 H437 0.946 . S
C456 C455 1.388 . S
C456 C457 1.384 . S
C457 C456 1.384 . S
C457 C458 1.377 . S
C458 H438 0.953 . S
C458 C457 1.377 . S
C458 C459 1.369 . S
C459 H439 0.945 . S
C459 C454 1.385 . S
C459 C458 1.369 . S
C460 C452 1.457 . S
C460 C461 1.372 . S
C460 C465 1.364 . S
C461 H440 0.952 . S
C461 C460 1.372 . S
C461 C462 1.389 . S
C462 H441 0.949 . S
C462 C461 1.389 . S
C462 C463 1.387 . S
C463 C462 1.387 . S
C463 C464 1.372 . S
C464 H442 0.950 . S
C464 C463 1.372 . S
C464 C465 1.379 . S
C465 H443 0.948 . S
C465 C460 1.364 . S
C465 C464 1.379 . S
C466 C435 1.383 . S
C466 C453 1.479 . S
C466 C467 1.398 . S
C467 C432 1.382 . S
C467 H444 0.951 . S
C467 C466 1.398 . S
C468 C469 1.384 . S
C468 H481 0.947 . S
C468 C503 1.382 . S
C469 C468 1.384 . S
C469 C470 1.378 1_554 S
C470 C469 1.378 1_556 S
C470 C471 1.378 . S
C470 H482 0.952 . S
C471 C470 1.378 . S
C471 H483 0.950 . S
C471 C502 1.383 . S
H472 C491 0.947 . S
H473 C492 0.946 . S
H474 C494 0.953 . S
H475 C495 0.945 . S
H476 C497 0.952 . S
H477 C498 0.949 . S
H478 C500 0.950 . S
H479 C501 0.948 . S
H480 C503 0.951 . S
H481 C468 0.947 . S
H482 C470 0.952 . S
H483 C471 0.950 . S
N484 C487 1.382 . S
N484 C489 1.363 . S
N485 C487 1.371 . S
N485 C488 1.372 . S
N486 C488 1.361 . S
N486 C489 1.377 . S
C487 N484 1.382 . S
C487 N485 1.371 . S
C487 C490 1.480 . S
C488 N485 1.372 . S
C488 N486 1.361 . S
C488 C496 1.457 . S
C489 N484 1.363 . S
C489 N486 1.377 . S
C489 C502 1.479 . S
C490 C487 1.480 . S
C490 C491 1.383 . S
C490 C495 1.385 . S
C491 H472 0.947 . S
C491 C490 1.383 . S
C491 C492 1.388 . S
C492 H473 0.946 . S
C492 C491 1.388 . S
C492 C493 1.384 . S
C493 C492 1.384 . S
C493 C494 1.377 . S
C494 H474 0.953 . S
C494 C493 1.377 . S
C494 C495 1.369 . S
C495 H475 0.945 . S
C495 C490 1.385 . S
C495 C494 1.369 . S
C496 C488 1.457 . S
C496 C497 1.372 . S
C496 C501 1.364 . S
C497 H476 0.952 . S
C497 C496 1.372 . S
C497 C498 1.389 . S
C498 H477 0.949 . S
C498 C497 1.389 . S
C498 C499 1.387 . S
C499 C498 1.387 . S
C499 C500 1.372 . S
C500 H478 0.950 . S
C500 C499 1.372 . S
C500 C501 1.379 . S
C501 H479 0.948 . S
C501 C496 1.364 . S
C501 C500 1.379 . S
C502 C471 1.383 . S
C502 C489 1.479 . S
C502 C503 1.398 1_556 S
C503 C468 1.382 . S
C503 H480 0.951 . S
C503 C502 1.398 1_554 S
C504 C505 1.384 . S
C504 H517 0.947 . S
C504 C539 1.382 . S
C505 C504 1.384 . S
C505 C506 1.378 . S
C506 C505 1.378 . S
C506 C507 1.378 . S
C506 H518 0.952 . S
C507 C506 1.378 . S
C507 H519 0.950 . S
C507 C538 1.383 . S
H508 C527 0.947 . S
H509 C528 0.946 . S
H510 C530 0.953 . S
H511 C531 0.945 . S
H512 C533 0.952 . S
H513 C534 0.949 . S
H514 C536 0.950 . S
H515 C537 0.948 . S
H516 C539 0.951 . S
H517 C504 0.947 . S
H518 C506 0.952 . S
H519 C507 0.950 . S
N520 C523 1.382 . S
N520 C525 1.363 . S
N521 C523 1.371 . S
N521 C524 1.372 . S
N522 C524 1.361 . S
N522 C525 1.377 . S
C523 N520 1.382 . S
C523 N521 1.371 . S
C523 C526 1.480 . S
C524 N521 1.372 . S
C524 N522 1.361 . S
C524 C532 1.457 . S
C525 N520 1.363 . S
C525 N522 1.377 . S
C525 C538 1.479 . S
C526 C523 1.480 . S
C526 C527 1.383 . S
C526 C531 1.385 . S
C527 H508 0.947 . S
C527 C526 1.383 . S
C527 C528 1.388 . S
C528 H509 0.946 . S
C528 C527 1.388 . S
C528 C529 1.384 . S
C529 C528 1.384 . S
C529 C530 1.377 . S
C530 H510 0.953 . S
C530 C529 1.377 . S
C530 C531 1.369 . S
C531 H511 0.945 . S
C531 C526 1.385 . S
C531 C530 1.369 . S
C532 C524 1.457 . S
C532 C533 1.372 . S
C532 C537 1.364 . S
C533 H512 0.952 . S
C533 C532 1.372 . S
C533 C534 1.389 . S
C534 H513 0.949 . S
C534 C533 1.389 . S
C534 C535 1.387 . S
C535 C534 1.387 . S
C535 C536 1.372 . S
C536 H514 0.950 . S
C536 C535 1.372 . S
C536 C537 1.379 . S
C537 H515 0.948 . S
C537 C532 1.364 . S
C537 C536 1.379 . S
C538 C507 1.383 . S
C538 C525 1.479 . S
C538 C539 1.398 . S
C539 C504 1.382 . S
C539 H516 0.951 . S
C539 C538 1.398 . S
C540 C541 1.384 1_556 S
C540 H553 0.947 . S
C540 C575 1.382 . S
C541 C540 1.384 1_554 S
C541 C542 1.378 . S
C542 C541 1.378 . S
C542 C543 1.385 . S
C542 H554 0.952 . S
C543 C542 1.385 . S
C543 H555 0.954 . S
C543 C574 1.371 1_554 S
H544 C563 0.947 . S
H545 C564 0.946 . S
H546 C566 0.953 . S
H547 C567 0.945 1_565 S
H548 C569 0.952 . S
H549 C570 0.949 . S
H550 C572 0.950 . S
H551 C573 0.948 . S
H552 C575 0.951 . S
H553 C540 0.947 . S
H554 C542 0.952 . S
H555 C543 0.954 . S
N556 C559 1.382 . S
N556 C561 1.363 . S
N557 C559 1.371 . S
N557 C560 1.372 . S
N558 C560 1.361 . S
N558 C561 1.377 . S
C559 N556 1.382 . S
C559 N557 1.371 . S
C559 C562 1.480 . S
C560 N557 1.372 . S
C560 N558 1.361 . S
C560 C568 1.457 . S
C561 N556 1.363 . S
C561 N558 1.377 . S
C561 C574 1.479 . S
C562 C559 1.480 . S
C562 C563 1.383 . S
C562 C567 1.385 . S
C563 H544 0.947 . S
C563 C562 1.383 . S
C563 C564 1.388 . S
C564 H545 0.946 . S
C564 C563 1.388 . S
C564 C565 1.384 1_545 S
C565 C564 1.384 1_565 S
C565 C566 1.377 . S
C566 H546 0.953 . S
C566 C565 1.377 . S
C566 C567 1.369 1_565 S
C567 H547 0.945 1_545 S
C567 C562 1.385 . S
C567 C566 1.369 1_545 S
C568 C560 1.457 . S
C568 C569 1.372 . S
C568 C573 1.364 . S
C569 H548 0.952 . S
C569 C568 1.372 . S
C569 C570 1.389 . S
C570 H549 0.949 . S
C570 C569 1.389 . S
C570 C571 1.387 . S
C571 C570 1.387 . S
C571 C572 1.372 . S
C572 H550 0.950 . S
C572 C571 1.372 . S
C572 C573 1.379 . S
C573 H551 0.948 . S
C573 C568 1.364 . S
C573 C572 1.379 . S
C574 C543 1.371 1_556 S
C574 C561 1.479 . S
C574 C575 1.398 . S
C575 C540 1.382 . S
C575 H552 0.951 . S
C575 C574 1.398 . S
Zn576 O579 2.023 1_556 S
Zn576 O581 2.055 . S
Zn576 O586 2.078 . S
Zn577 O578 1.962 . S
Zn577 O580 1.986 . S
Zn577 O582 1.996 . S
Zn577 O585 1.943 1_554 S
O578 Zn577 1.962 . S
O578 C583 1.254 . S
O579 Zn576 2.023 1_554 S
O579 C583 1.269 . S
O580 Zn577 1.986 . S
O580 C587 1.262 . S
O581 Zn576 2.055 . S
O581 C589 1.260 . S
O582 Zn577 1.996 . S
O582 C589 1.257 1_554 S
C583 O578 1.254 . S
C583 O579 1.269 . S
C584 O585 1.249 . S
C584 O586 1.270 . S
O585 Zn577 1.943 1_556 S
O585 C584 1.249 . S
O586 Zn576 2.078 . S
O586 C584 1.270 . S
C587 O580 1.262 . S
C587 O588 1.232 . S
O588 C587 1.232 . S
C589 O581 1.260 . S
C589 O582 1.257 1_556 S
Zn590 O593 2.031 . S
Zn590 O595 2.049 . S
Zn590 O600 2.067 . S
Zn591 O592 1.962 . S
Zn591 O594 1.986 . S
Zn591 O596 1.996 . S
Zn591 O599 1.943 . S
O592 Zn591 1.962 . S
O592 C597 1.254 . S
O593 Zn590 2.031 . S
O593 C597 1.269 . S
O594 Zn591 1.986 . S
O594 C601 1.262 . S
O595 Zn590 2.049 . S
O595 C603 1.260 . S
O596 Zn591 1.996 . S
O596 C603 1.257 . S
C597 O592 1.254 . S
C597 O593 1.269 . S
C598 O599 1.249 . S
C598 O600 1.270 . S
O599 Zn591 1.943 . S
O599 C598 1.249 . S
O600 Zn590 2.067 . S
O600 C598 1.270 . S
C601 O594 1.262 . S
C601 O602 1.232 . S
O602 C601 1.232 . S
C603 O595 1.260 . S
C603 O596 1.257 . S
Zn604 O607 2.031 . S
Zn604 O609 2.049 . S
Zn604 O614 2.067 . S
Zn605 O606 1.962 . S
Zn605 O608 1.986 . S
Zn605 O610 1.996 1_554 S
Zn605 O613 1.943 . S
O606 Zn605 1.962 . S
O606 C611 1.254 . S
O607 Zn604 2.031 . S
O607 C611 1.269 1_556 S
O608 Zn605 1.986 . S
O608 C615 1.262 . S
O609 Zn604 2.049 . S
O609 C617 1.260 . S
O610 Zn605 1.996 1_556 S
O610 C617 1.257 . S
C611 O606 1.254 . S
C611 O607 1.269 1_554 S
C612 O613 1.249 1_556 S
C612 O614 1.270 . S
O613 Zn605 1.943 . S
O613 C612 1.249 1_554 S
O614 Zn604 2.067 . S
O614 C612 1.270 . S
C615 O608 1.262 . S
C615 O616 1.232 . S
O616 C615 1.232 . S
C617 O609 1.260 . S
C617 O610 1.257 . S
Zn618 O621 2.020 1_565 S
Zn618 O623 2.058 . S
Zn618 O628 2.083 . S
Zn619 O620 1.962 . S
Zn619 O622 1.986 . S
Zn619 O624 1.996 . S
Zn619 O627 1.943 1_545 S
O620 Zn619 1.962 . S
O620 C625 1.254 . S
O621 Zn618 2.020 1_545 S
O621 C625 1.269 . S
O622 Zn619 1.986 . S
O622 C629 1.262 . S
O623 Zn618 2.058 . S
O623 C631 1.260 . S
O624 Zn619 1.996 . S
O624 C631 1.257 1_545 S
C625 O620 1.254 . S
C625 O621 1.269 . S
C626 O627 1.249 . S
C626 O628 1.270 . S
O627 Zn619 1.943 1_565 S
O627 C626 1.249 . S
O628 Zn618 2.083 . S
O628 C626 1.270 . S
C629 O622 1.262 . S
C629 O630 1.232 . S
O630 C629 1.232 . S
C631 O623 1.260 . S
C631 O624 1.257 1_565 S
Zn632 O635 2.031 . S
Zn632 O637 2.049 . S
Zn632 O642 2.067 . S
Zn633 O634 1.962 . S
Zn633 O636 1.986 . S
Zn633 O638 1.996 . S
Zn633 O641 1.943 . S
O634 Zn633 1.962 . S
O634 C639 1.254 . S
O635 Zn632 2.031 . S
O635 C639 1.269 . S
O636 Zn633 1.986 . S
O636 C643 1.262 . S
O637 Zn632 2.049 . S
O637 C645 1.260 . S
O638 Zn633 1.996 . S
O638 C645 1.257 . S
C639 O634 1.254 . S
C639 O635 1.269 . S
C640 O641 1.249 . S
C640 O642 1.270 . S
O641 Zn633 1.943 . S
O641 C640 1.249 . S
O642 Zn632 2.067 . S
O642 C640 1.270 . S
C643 O636 1.262 . S
C643 O644 1.232 . S
O644 C643 1.232 . S
C645 O637 1.260 . S
C645 O638 1.257 . S
Zn646 O649 2.031 . S
Zn646 O651 2.049 . S
Zn646 O656 2.067 . S
Zn647 O648 1.962 . S
Zn647 O650 1.986 . S
Zn647 O652 1.996 . S
Zn647 O655 1.943 . S
O648 Zn647 1.962 . S
O648 C653 1.254 . S
O649 Zn646 2.031 . S
O649 C653 1.269 . S
O650 Zn647 1.986 . S
O650 C657 1.262 . S
O651 Zn646 2.049 . S
O651 C659 1.260 . S
O652 Zn647 1.996 . S
O652 C659 1.257 . S
C653 O648 1.254 . S
C653 O649 1.269 . S
C654 O655 1.249 . S
C654 O656 1.270 . S
O655 Zn647 1.943 . S
O655 C654 1.249 . S
O656 Zn646 2.067 . S
O656 C654 1.270 . S
C657 O650 1.262 . S
C657 O658 1.232 . S
O658 C657 1.232 . S
C659 O651 1.260 . S
C659 O652 1.257 . S
Zn660 O663 2.031 . S
Zn660 O665 2.049 . S
Zn660 O670 2.067 . S
Zn661 O662 1.962 . S
Zn661 O664 1.986 . S
Zn661 O666 1.996 . S
Zn661 O669 1.943 . S
O662 Zn661 1.962 . S
O662 C667 1.254 . S
O663 Zn660 2.031 . S
O663 C667 1.269 . S
O664 Zn661 1.986 . S
O664 C671 1.262 . S
O665 Zn660 2.049 . S
O665 C673 1.260 . S
O666 Zn661 1.996 . S
O666 C673 1.257 . S
C667 O662 1.254 . S
C667 O663 1.269 . S
C668 O669 1.249 . S
C668 O670 1.270 . S
O669 Zn661 1.943 . S
O669 C668 1.249 . S
O670 Zn660 2.067 . S
O670 C668 1.270 . S
C671 O664 1.262 . S
C671 O672 1.232 . S
O672 C671 1.232 . S
C673 O665 1.260 . S
C673 O666 1.257 . S
Zn674 O677 2.031 . S
Zn674 O679 2.049 . S
Zn674 O684 2.067 . S
Zn675 O676 1.962 . S
Zn675 O678 1.986 . S
Zn675 O680 1.996 1_545 S
Zn675 O683 1.943 . S
O676 Zn675 1.962 . S
O676 C681 1.254 . S
O677 Zn674 2.031 . S
O677 C681 1.269 1_565 S
O678 Zn675 1.986 . S
O678 C685 1.262 . S
O679 Zn674 2.049 . S
O679 C687 1.260 . S
O680 Zn675 1.996 1_565 S
O680 C687 1.257 . S
C681 O676 1.254 . S
C681 O677 1.269 1_545 S
C682 O683 1.249 1_565 S
C682 O684 1.270 . S
O683 Zn675 1.943 . S
O683 C682 1.249 1_545 S
O684 Zn674 2.067 . S
O684 C682 1.270 . S
C685 O678 1.262 . S
C685 O686 1.232 . S
O686 C685 1.232 . S
C687 O679 1.260 . S
C687 O680 1.257 . S
Zn688 O691 2.014 1_655 S
Zn688 O693 2.062 . S
Zn688 O698 2.091 . S
Zn689 O690 1.962 . S
Zn689 O692 1.986 . S
Zn689 O694 1.996 . S
Zn689 O697 1.943 1_455 S
O690 Zn689 1.962 . S
O690 C695 1.254 . S
O691 Zn688 2.014 1_455 S
O691 C695 1.269 . S
O692 Zn689 1.986 . S
O692 C699 1.262 . S
O693 Zn688 2.062 . S
O693 C701 1.260 . S
O694 Zn689 1.996 . S
O694 C701 1.257 1_455 S
C695 O690 1.254 . S
C695 O691 1.269 . S
C696 O697 1.249 . S
C696 O698 1.270 . S
O697 Zn689 1.943 1_655 S
O697 C696 1.249 . S
O698 Zn688 2.091 . S
O698 C696 1.270 . S
C699 O692 1.262 . S
C699 O700 1.232 . S
O700 C699 1.232 . S
C701 O693 1.260 . S
C701 O694 1.257 1_655 S
Zn702 O705 2.031 . S
Zn702 O707 2.049 . S
Zn702 O712 2.067 . S
Zn703 O704 1.962 . S
Zn703 O706 1.986 . S
Zn703 O708 1.996 . S
Zn703 O711 1.943 . S
O704 Zn703 1.962 . S
O704 C709 1.254 . S
O705 Zn702 2.031 . S
O705 C709 1.269 . S
O706 Zn703 1.986 . S
O706 C713 1.262 . S
O707 Zn702 2.049 . S
O707 C715 1.260 . S
O708 Zn703 1.996 . S
O708 C715 1.257 . S
C709 O704 1.254 . S
C709 O705 1.269 . S
C710 O711 1.249 . S
C710 O712 1.270 . S
O711 Zn703 1.943 . S
O711 C710 1.249 . S
O712 Zn702 2.067 . S
O712 C710 1.270 . S
C713 O706 1.262 . S
C713 O714 1.232 . S
O714 C713 1.232 . S
C715 O707 1.260 . S
C715 O708 1.257 . S
Zn716 O719 2.031 . S
Zn716 O721 2.049 . S
Zn716 O726 2.067 . S
Zn717 O718 1.962 . S
Zn717 O720 1.986 . S
Zn717 O722 1.996 1_455 S
Zn717 O725 1.943 . S
O718 Zn717 1.962 . S
O718 C723 1.254 . S
O719 Zn716 2.031 . S
O719 C723 1.269 1_655 S
O720 Zn717 1.986 . S
O720 C727 1.262 . S
O721 Zn716 2.049 . S
O721 C729 1.260 . S
O722 Zn717 1.996 1_655 S
O722 C729 1.257 . S
C723 O718 1.254 . S
C723 O719 1.269 1_455 S
C724 O725 1.249 1_655 S
C724 O726 1.270 . S
O725 Zn717 1.943 . S
O725 C724 1.249 1_455 S
O726 Zn716 2.067 . S
O726 C724 1.270 . S
C727 O720 1.262 . S
C727 O728 1.232 . S
O728 C727 1.232 . S
C729 O721 1.260 . S
C729 O722 1.257 . S
Zn730 O733 2.031 . S
Zn730 O735 2.049 . S
Zn730 O740 2.067 . S
Zn731 O732 1.962 . S
Zn731 O734 1.986 . S
Zn731 O736 1.996 . S
Zn731 O739 1.943 . S
O732 Zn731 1.962 . S
O732 C737 1.254 . S
O733 Zn730 2.031 . S
O733 C737 1.269 . S
O734 Zn731 1.986 . S
O734 C741 1.262 . S
O735 Zn730 2.049 . S
O735 C743 1.260 . S
O736 Zn731 1.996 . S
O736 C743 1.257 . S
C737 O732 1.254 . S
C737 O733 1.269 . S
C738 O739 1.249 . S
C738 O740 1.270 . S
O739 Zn731 1.943 . S
O739 C738 1.249 . S
O740 Zn730 2.067 . S
O740 C738 1.270 . S
C741 O734 1.262 . S
C741 O742 1.232 . S
O742 C741 1.232 . S
C743 O735 1.260 . S
C743 O736 1.257 . S
H744 C750 0.930 . S
H745 C753 0.930 . S
H746 C754 0.930 . S
H747 C755 0.930 . S
H748 C758 0.930 . S
H749 C759 0.930 . S
C750 H744 0.930 . S
C750 C751 1.355 . S
C750 C752 1.415 . S
C751 C750 1.355 . S
C751 C753 1.419 . S
C752 C750 1.415 . S
C752 C757 1.425 . S
C752 C759 1.409 . S
C753 H745 0.930 . S
C753 C751 1.419 . S
C753 C754 1.362 . S
C754 H746 0.930 . S
C754 C753 1.362 . S
C754 C757 1.409 . S
C755 H747 0.930 . S
C755 C756 1.355 . S
C755 C757 1.415 . S
C756 C755 1.355 . S
C756 C758 1.419 . S
C757 C752 1.425 . S
C757 C754 1.409 . S
C757 C755 1.415 . S
C758 H748 0.930 . S
C758 C756 1.419 . S
C758 C759 1.362 . S
C759 H749 0.930 . S
C759 C752 1.409 . S
C759 C758 1.362 . S
H760 C766 0.930 . S
H761 C769 0.930 . S
H762 C770 0.930 . S
H763 C771 0.930 . S
H764 C774 0.930 . S
H765 C775 0.930 . S
C766 H760 0.930 . S
C766 C767 1.355 . S
C766 C768 1.415 . S
C767 C766 1.355 . S
C767 C769 1.419 . S
C768 C766 1.415 . S
C768 C773 1.425 . S
C768 C775 1.409 . S
C769 H761 0.930 . S
C769 C767 1.419 . S
C769 C770 1.362 . S
C770 H762 0.930 . S
C770 C769 1.362 . S
C770 C773 1.409 . S
C771 H763 0.930 . S
C771 C772 1.355 . S
C771 C773 1.415 . S
C772 C771 1.355 . S
C772 C774 1.419 . S
C773 C768 1.425 . S
C773 C770 1.409 . S
C773 C771 1.415 . S
C774 H764 0.930 . S
C774 C772 1.419 . S
C774 C775 1.362 . S
C775 H765 0.930 . S
C775 C768 1.409 . S
C775 C774 1.362 . S
H776 C782 0.930 . S
H777 C785 0.930 . S
H778 C786 0.930 . S
H779 C787 0.930 . S
H780 C790 0.930 . S
H781 C791 0.930 . S
C782 H776 0.930 . S
C782 C783 1.355 . S
C782 C784 1.415 . S
C783 C782 1.355 . S
C783 C785 1.419 . S
C784 C782 1.415 . S
C784 C789 1.425 . S
C784 C791 1.409 . S
C785 H777 0.930 . S
C785 C783 1.419 . S
C785 C786 1.362 . S
C786 H778 0.930 . S
C786 C785 1.362 . S
C786 C789 1.409 . S
C787 H779 0.930 . S
C787 C788 1.355 . S
C787 C789 1.415 . S
C788 C787 1.355 . S
C788 C790 1.419 . S
C789 C784 1.425 . S
C789 C786 1.409 . S
C789 C787 1.415 . S
C790 H780 0.930 . S
C790 C788 1.419 . S
C790 C791 1.362 . S
C791 H781 0.930 . S
C791 C784 1.409 . S
C791 C790 1.362 . S
H792 C798 0.930 . S
H793 C801 0.930 1_455 S
H794 C802 0.930 . S
H795 C803 0.930 . S
H796 C806 0.930 . S
H797 C807 0.930 . S
C798 H792 0.930 . S
C798 C799 1.355 . S
C798 C800 1.415 . S
C799 C798 1.355 . S
C799 C801 1.419 . S
C800 C798 1.415 . S
C800 C805 1.425 . S
C800 C807 1.409 . S
C801 H793 0.930 1_655 S
C801 C799 1.419 . S
C801 C802 1.362 . S
C802 H794 0.930 . S
C802 C801 1.362 . S
C802 C805 1.409 . S
C803 H795 0.930 . S
C803 C804 1.355 . S
C803 C805 1.415 . S
C804 C803 1.355 . S
C804 C806 1.419 . S
C805 C800 1.425 . S
C805 C802 1.409 . S
C805 C803 1.415 . S
C806 H796 0.930 . S
C806 C804 1.419 . S
C806 C807 1.362 . S
C807 H797 0.930 . S
C807 C800 1.409 . S
C807 C806 1.362 . S
H808 C814 0.930 . S
H809 C817 0.930 . S
H810 C818 0.930 . S
H811 C819 0.930 . S
H812 C822 0.930 . S
H813 C823 0.930 . S
C814 H808 0.930 . S
C814 C815 1.355 . S
C814 C816 1.415 . S
C815 C814 1.355 . S
C815 C817 1.419 . S
C816 C814 1.415 . S
C816 C821 1.425 . S
C816 C823 1.409 . S
C817 H809 0.930 . S
C817 C815 1.419 . S
C817 C818 1.362 . S
C818 H810 0.930 . S
C818 C817 1.362 . S
C818 C821 1.409 . S
C819 H811 0.930 . S
C819 C820 1.355 . S
C819 C821 1.415 . S
C820 C819 1.355 . S
C820 C822 1.419 . S
C821 C816 1.425 . S
C821 C818 1.409 . S
C821 C819 1.415 . S
C822 H812 0.930 . S
C822 C820 1.419 . S
C822 C823 1.362 . S
C823 H813 0.930 . S
C823 C816 1.409 . S
C823 C822 1.362 . S
H824 C830 0.930 . S
H825 C833 0.930 . S
H826 C834 0.930 . S
H827 C835 0.930 . S
H828 C838 0.930 . S
H829 C839 0.930 . S
C830 H824 0.930 . S
C830 C831 1.355 . S
C830 C832 1.415 . S
C831 C830 1.355 . S
C831 C833 1.419 . S
C832 C830 1.415 . S
C832 C837 1.425 . S
C832 C839 1.409 . S
C833 H825 0.930 . S
C833 C831 1.419 . S
C833 C834 1.362 . S
C834 H826 0.930 . S
C834 C833 1.362 . S
C834 C837 1.409 . S
C835 H827 0.930 . S
C835 C836 1.355 . S
C835 C837 1.415 . S
C836 C835 1.355 . S
C836 C838 1.419 . S
C837 C832 1.425 . S
C837 C834 1.409 . S
C837 C835 1.415 . S
C838 H828 0.930 . S
C838 C836 1.419 . S
C838 C839 1.362 . S
C839 H829 0.930 . S
C839 C832 1.409 . S
C839 C838 1.362 . S
H840 C846 0.930 . S
H841 C849 0.930 . S
H842 C850 0.930 . S
H843 C851 0.930 . S
H844 C854 0.930 . S
H845 C855 0.930 . S
C846 H840 0.930 . S
C846 C847 1.355 . S
C846 C848 1.415 . S
C847 C846 1.355 . S
C847 C849 1.419 . S
C848 C846 1.415 . S
C848 C853 1.425 . S
C848 C855 1.409 . S
C849 H841 0.930 . S
C849 C847 1.419 . S
C849 C850 1.362 . S
C850 H842 0.930 . S
C850 C849 1.362 . S
C850 C853 1.409 . S
C851 H843 0.930 . S
C851 C852 1.355 . S
C851 C853 1.415 . S
C852 C851 1.355 . S
C852 C854 1.419 . S
C853 C848 1.425 . S
C853 C850 1.409 . S
C853 C851 1.415 . S
C854 H844 0.930 . S
C854 C852 1.419 . S
C854 C855 1.362 . S
C855 H845 0.930 . S
C855 C848 1.409 . S
C855 C854 1.362 . S
H856 C862 0.930 . S
H857 C865 0.930 . S
H858 C866 0.930 . S
H859 C867 0.930 . S
H860 C870 0.930 1_545 S
H861 C871 0.930 . S
C862 H856 0.930 . S
C862 C863 1.355 . S
C862 C864 1.415 . S
C863 C862 1.355 . S
C863 C865 1.419 . S
C864 C862 1.415 . S
C864 C869 1.425 . S
C864 C871 1.409 . S
C865 H857 0.930 . S
C865 C863 1.419 . S
C865 C866 1.362 . S
C866 H858 0.930 . S
C866 C865 1.362 . S
C866 C869 1.409 . S
C867 H859 0.930 . S
C867 C868 1.355 . S
C867 C869 1.415 . S
C868 C867 1.355 . S
C868 C870 1.419 . S
C869 C864 1.425 . S
C869 C866 1.409 . S
C869 C867 1.415 . S
C870 H860 0.930 1_565 S
C870 C868 1.419 . S
C870 C871 1.362 . S
C871 H861 0.930 . S
C871 C864 1.409 . S
C871 C870 1.362 . S
H872 C878 0.930 . S
H873 C881 0.930 . S
H874 C882 0.930 . S
H875 C883 0.930 . S
H876 C886 0.930 . S
H877 C887 0.930 . S
C878 H872 0.930 . S
C878 C879 1.355 . S
C878 C880 1.415 . S
C879 C878 1.355 . S
C879 C881 1.419 . S
C880 C878 1.415 . S
C880 C885 1.425 . S
C880 C887 1.409 . S
C881 H873 0.930 . S
C881 C879 1.419 . S
C881 C882 1.362 . S
C882 H874 0.930 . S
C882 C881 1.362 . S
C882 C885 1.409 . S
C883 H875 0.930 . S
C883 C884 1.355 . S
C883 C885 1.415 . S
C884 C883 1.355 . S
C884 C886 1.419 . S
C885 C880 1.425 . S
C885 C882 1.409 . S
C885 C883 1.415 . S
C886 H876 0.930 . S
C886 C884 1.419 . S
C886 C887 1.362 . S
C887 H877 0.930 . S
C887 C880 1.409 . S
C887 C886 1.362 . S
H888 C894 0.930 . S
H889 C897 0.930 . S
H890 C898 0.930 . S
H891 C899 0.930 . S
H892 C902 0.930 . S
H893 C903 0.930 . S
C894 H888 0.930 . S
C894 C895 1.355 . S
C894 C896 1.415 . S
C895 C894 1.355 . S
C895 C897 1.419 . S
C896 C894 1.415 . S
C896 C901 1.425 . S
C896 C903 1.409 . S
C897 H889 0.930 . S
C897 C895 1.419 . S
C897 C898 1.362 . S
C898 H890 0.930 . S
C898 C897 1.362 . S
C898 C901 1.409 . S
C899 H891 0.930 . S
C899 C900 1.355 . S
C899 C901 1.415 . S
C900 C899 1.355 . S
C900 C902 1.419 . S
C901 C896 1.425 . S
C901 C898 1.409 . S
C901 C899 1.415 . S
C902 H892 0.930 . S
C902 C900 1.419 . S
C902 C903 1.362 . S
C903 H893 0.930 . S
C903 C896 1.409 . S
C903 C902 1.362 . S
H904 C910 0.930 . S
H905 C913 0.930 . S
H906 C914 0.930 . S
H907 C915 0.930 . S
H908 C918 0.930 . S
H909 C919 0.930 . S
C910 H904 0.930 . S
C910 C911 1.355 . S
C910 C912 1.415 . S
C911 C910 1.355 . S
C911 C913 1.419 . S
C912 C910 1.415 . S
C912 C917 1.425 . S
C912 C919 1.409 . S
C913 H905 0.930 . S
C913 C911 1.419 . S
C913 C914 1.362 . S
C914 H906 0.930 . S
C914 C913 1.362 . S
C914 C917 1.409 . S
C915 H907 0.930 . S
C915 C916 1.355 . S
C915 C917 1.415 . S
C916 C915 1.355 . S
C916 C918 1.419 . S
C917 C912 1.425 . S
C917 C914 1.409 . S
C917 C915 1.415 . S
C918 H908 0.930 . S
C918 C916 1.419 . S
C918 C919 1.362 . S
C919 H909 0.930 . S
C919 C912 1.409 . S
C919 C918 1.362 . S
H920 C926 0.930 . S
H921 C929 0.930 . S
H922 C930 0.930 . S
H923 C931 0.930 . S
H924 C934 0.930 . S
H925 C935 0.930 . S
C926 H920 0.930 . S
C926 C927 1.355 . S
C926 C928 1.415 . S
C927 C926 1.355 . S
C927 C929 1.419 . S
C928 C926 1.415 . S
C928 C933 1.425 . S
C928 C935 1.409 . S
C929 H921 0.930 . S
C929 C927 1.419 . S
C929 C930 1.362 . S
C930 H922 0.930 . S
C930 C929 1.362 . S
C930 C933 1.409 . S
C931 H923 0.930 . S
C931 C932 1.355 . S
C931 C933 1.415 . S
C932 C931 1.355 . S
C932 C934 1.419 . S
C933 C928 1.425 . S
C933 C930 1.409 . S
C933 C931 1.415 . S
C934 H924 0.930 . S
C934 C932 1.419 . S
C934 C935 1.362 . S
C935 H925 0.930 . S
C935 C928 1.409 . S
C935 C934 1.362 . S
H936 C942 0.930 . S
H937 C945 0.930 . S
H938 C946 0.930 . S
H939 C947 0.930 . S
H940 C950 0.930 . S
H941 C951 0.930 . S
C942 H936 0.930 . S
C942 C943 1.355 . S
C942 C944 1.415 . S
C943 C942 1.355 . S
C943 C945 1.419 . S
C944 C942 1.415 . S
C944 C949 1.425 . S
C944 C951 1.409 . S
C945 H937 0.930 . S
C945 C943 1.419 . S
C945 C946 1.362 . S
C946 H938 0.930 . S
C946 C945 1.362 . S
C946 C949 1.409 . S
C947 H939 0.930 . S
C947 C948 1.355 . S
C947 C949 1.415 . S
C948 C947 1.355 . S
C948 C950 1.419 . S
C949 C944 1.425 . S
C949 C946 1.409 . S
C949 C947 1.415 . S
C950 H940 0.930 . S
C950 C948 1.419 . S
C950 C951 1.362 . S
C951 H941 0.930 . S
C951 C944 1.409 . S
C951 C950 1.362 . S
H952 C958 0.930 . S
H953 C961 0.930 . S
H954 C962 0.930 . S
H955 C963 0.930 . S
H956 C966 0.930 . S
H957 C967 0.930 . S
C958 H952 0.930 . S
C958 C959 1.355 . S
C958 C960 1.415 . S
C959 C958 1.355 . S
C959 C961 1.419 . S
C960 C958 1.415 . S
C960 C965 1.425 . S
C960 C967 1.409 . S
C961 H953 0.930 . S
C961 C959 1.419 . S
C961 C962 1.362 . S
C962 H954 0.930 . S
C962 C961 1.362 . S
C962 C965 1.409 . S
C963 H955 0.930 . S
C963 C964 1.355 . S
C963 C965 1.415 . S
C964 C963 1.355 . S
C964 C966 1.419 . S
C965 C960 1.425 . S
C965 C962 1.409 . S
C965 C963 1.415 . S
C966 H956 0.930 . S
C966 C964 1.419 . S
C966 C967 1.362 . S
C967 H957 0.930 . S
C967 C960 1.409 . S
C967 C966 1.362 . S
H968 C974 0.930 . S
H969 C977 0.930 . S
H970 C978 0.930 . S
H971 C979 0.930 . S
H972 C982 0.930 . S
H973 C983 0.930 . S
C974 H968 0.930 . S
C974 C975 1.355 . S
C974 C976 1.415 . S
C975 C974 1.355 . S
C975 C977 1.419 . S
C976 C974 1.415 . S
C976 C981 1.425 . S
C976 C983 1.409 . S
C977 H969 0.930 . S
C977 C975 1.419 . S
C977 C978 1.362 . S
C978 H970 0.930 . S
C978 C977 1.362 . S
C978 C981 1.409 . S
C979 H971 0.930 . S
C979 C980 1.355 . S
C979 C981 1.415 . S
C980 C979 1.355 . S
C980 C982 1.419 . S
C981 C976 1.425 . S
C981 C978 1.409 . S
C981 C979 1.415 . S
C982 H972 0.930 . S
C982 C980 1.419 . S
C982 C983 1.362 . S
C983 H973 0.930 . S
C983 C976 1.409 . S
C983 C982 1.362 . S
H984 C990 0.930 . S
H985 C993 0.930 . S
H986 C994 0.930 . S
H987 C995 0.930 . S
H988 C998 0.930 1_455 S
H989 C999 0.930 . S
C990 H984 0.930 . S
C990 C991 1.355 . S
C990 C992 1.415 . S
C991 C990 1.355 . S
C991 C993 1.419 . S
C992 C990 1.415 . S
C992 C997 1.425 . S
C992 C999 1.409 . S
C993 H985 0.930 . S
C993 C991 1.419 . S
C993 C994 1.362 . S
C994 H986 0.930 . S
C994 C993 1.362 . S
C994 C997 1.409 . S
C995 H987 0.930 . S
C995 C996 1.355 . S
C995 C997 1.415 . S
C996 C995 1.355 . S
C996 C998 1.419 . S
C997 C992 1.425 . S
C997 C994 1.409 . S
C997 C995 1.415 . S
C998 H988 0.930 1_655 S
C998 C996 1.419 . S
C998 C999 1.362 . S
C999 H989 0.930 . S
C999 C992 1.409 . S
C999 C998 1.362 . S
H1000 C1006 0.930 . S
H1001 C1009 0.930 . S
H1002 C1010 0.930 . S
H1003 C1011 0.930 . S
H1004 C1014 0.930 . S
H1005 C1015 0.930 . S
C1006 H1000 0.930 . S
C1006 C1007 1.355 . S
C1006 C1008 1.415 . S
C1007 C1006 1.355 . S
C1007 C1009 1.419 . S
C1008 C1006 1.415 . S
C1008 C1013 1.425 . S
C1008 C1015 1.409 . S
C1009 H1001 0.930 . S
C1009 C1007 1.419 . S
C1009 C1010 1.362 . S
C1010 H1002 0.930 . S
C1010 C1009 1.362 . S
C1010 C1013 1.409 . S
C1011 H1003 0.930 . S
C1011 C1012 1.355 . S
C1011 C1013 1.415 . S
C1012 C1011 1.355 . S
C1012 C1014 1.419 . S
C1013 C1008 1.425 . S
C1013 C1010 1.409 . S
C1013 C1011 1.415 . S
C1014 H1004 0.930 . S
C1014 C1012 1.419 . S
C1014 C1015 1.362 . S
C1015 H1005 0.930 . S
C1015 C1008 1.409 . S
C1015 C1014 1.362 . S
H1016 C1022 0.930 . S
H1017 C1025 0.930 . S
H1018 C1026 0.930 . S
H1019 C1027 0.930 . S
H1020 C1030 0.930 . S
H1021 C1031 0.930 . S
C1022 H1016 0.930 . S
C1022 C1023 1.355 . S
C1022 C1024 1.415 . S
C1023 C1022 1.355 . S
C1023 C1025 1.419 . S
C1024 C1022 1.415 . S
C1024 C1029 1.425 . S
C1024 C1031 1.409 . S
C1025 H1017 0.930 . S
C1025 C1023 1.419 . S
C1025 C1026 1.362 . S
C1026 H1018 0.930 . S
C1026 C1025 1.362 . S
C1026 C1029 1.409 . S
C1027 H1019 0.930 . S
C1027 C1028 1.355 . S
C1027 C1029 1.415 . S
C1028 C1027 1.355 . S
C1028 C1030 1.419 . S
C1029 C1024 1.425 . S
C1029 C1026 1.409 . S
C1029 C1027 1.415 . S
C1030 H1020 0.930 . S
C1030 C1028 1.419 . S
C1030 C1031 1.362 . S
C1031 H1021 0.930 . S
C1031 C1024 1.409 . S
C1031 C1030 1.362 . S
H1032 C1038 0.930 . S
H1033 C1041 0.930 1_545 S
H1034 C1042 0.930 . S
H1035 C1043 0.930 . S
H1036 C1046 0.930 . S
H1037 C1047 0.930 . S
C1038 H1032 0.930 . S
C1038 C1039 1.355 . S
C1038 C1040 1.415 . S
C1039 C1038 1.355 . S
C1039 C1041 1.419 . S
C1040 C1038 1.415 . S
C1040 C1045 1.425 . S
C1040 C1047 1.409 . S
C1041 H1033 0.930 1_565 S
C1041 C1039 1.419 . S
C1041 C1042 1.362 . S
C1042 H1034 0.930 . S
C1042 C1041 1.362 . S
C1042 C1045 1.409 . S
C1043 H1035 0.930 . S
C1043 C1044 1.355 . S
C1043 C1045 1.415 . S
C1044 C1043 1.355 . S
C1044 C1046 1.419 . S
C1045 C1040 1.425 . S
C1045 C1042 1.409 . S
C1045 C1043 1.415 . S
C1046 H1036 0.930 . S
C1046 C1044 1.419 . S
C1046 C1047 1.362 . S
C1047 H1037 0.930 . S
C1047 C1040 1.409 . S
C1047 C1046 1.362 . S
H1048 C1054 0.930 . S
H1049 C1057 0.930 . S
H1050 C1058 0.930 . S
H1051 C1059 0.930 . S
H1052 C1062 0.930 . S
H1053 C1063 0.930 . S
C1054 H1048 0.930 . S
C1054 C1055 1.355 . S
C1054 C1056 1.415 . S
C1055 C1054 1.355 . S
C1055 C1057 1.419 . S
C1056 C1054 1.415 . S
C1056 C1061 1.425 . S
C1056 C1063 1.409 . S
C1057 H1049 0.930 . S
C1057 C1055 1.419 . S
C1057 C1058 1.362 . S
C1058 H1050 0.930 . S
C1058 C1057 1.362 . S
C1058 C1061 1.409 . S
C1059 H1051 0.930 . S
C1059 C1060 1.355 . S
C1059 C1061 1.415 . S
C1060 C1059 1.355 . S
C1060 C1062 1.419 . S
C1061 C1056 1.425 . S
C1061 C1058 1.409 . S
C1061 C1059 1.415 . S
C1062 H1052 0.930 . S
C1062 C1060 1.419 . S
C1062 C1063 1.362 . S
C1063 H1053 0.930 . S
C1063 C1056 1.409 . S
C1063 C1062 1.362 . S
H1064 C1070 0.930 . S
H1065 C1073 0.930 . S
H1066 C1074 0.930 . S
H1067 C1075 0.930 . S
H1068 C1078 0.930 . S
H1069 C1079 0.930 . S
C1070 H1064 0.930 . S
C1070 C1071 1.355 . S
C1070 C1072 1.415 . S
C1071 C1070 1.355 . S
C1071 C1073 1.419 . S
C1072 C1070 1.415 . S
C1072 C1077 1.425 . S
C1072 C1079 1.409 . S
C1073 H1065 0.930 . S
C1073 C1071 1.419 . S
C1073 C1074 1.362 . S
C1074 H1066 0.930 . S
C1074 C1073 1.362 . S
C1074 C1077 1.409 . S
C1075 H1067 0.930 . S
C1075 C1076 1.355 . S
C1075 C1077 1.415 . S
C1076 C1075 1.355 . S
C1076 C1078 1.419 . S
C1077 C1072 1.425 . S
C1077 C1074 1.409 . S
C1077 C1075 1.415 . S
C1078 H1068 0.930 . S
C1078 C1076 1.419 . S
C1078 C1079 1.362 . S
C1079 H1069 0.930 . S
C1079 C1072 1.409 . S
C1079 C1078 1.362 . S
H1080 C1086 0.930 . S
H1081 C1089 0.930 . S
H1082 C1090 0.930 . S
H1083 C1091 0.930 . S
H1084 C1094 0.930 . S
H1085 C1095 0.930 . S
C1086 H1080 0.930 . S
C1086 C1087 1.355 . S
C1086 C1088 1.415 . S
C1087 C1086 1.355 . S
C1087 C1089 1.419 . S
C1088 C1086 1.415 . S
C1088 C1093 1.425 . S
C1088 C1095 1.409 . S
C1089 H1081 0.930 . S
C1089 C1087 1.419 . S
C1089 C1090 1.362 . S
C1090 H1082 0.930 . S
C1090 C1089 1.362 . S
C1090 C1093 1.409 . S
C1091 H1083 0.930 . S
C1091 C1092 1.355 . S
C1091 C1093 1.415 . S
C1092 C1091 1.355 . S
C1092 C1094 1.419 . S
C1093 C1088 1.425 . S
C1093 C1090 1.409 . S
C1093 C1091 1.415 . S
C1094 H1084 0.930 . S
C1094 C1092 1.419 . S
C1094 C1095 1.362 . S
C1095 H1085 0.930 . S
C1095 C1088 1.409 . S
C1095 C1094 1.362 . S
H1096 C1102 0.930 . S
H1097 C1105 0.930 . S
H1098 C1106 0.930 . S
H1099 C1107 0.930 . S
H1100 C1110 0.930 . S
H1101 C1111 0.930 . S
C1102 H1096 0.930 . S
C1102 C1103 1.355 . S
C1102 C1104 1.415 . S
C1103 C1102 1.355 . S
C1103 C1105 1.419 . S
C1104 C1102 1.415 . S
C1104 C1109 1.425 . S
C1104 C1111 1.409 . S
C1105 H1097 0.930 . S
C1105 C1103 1.419 . S
C1105 C1106 1.362 . S
C1106 H1098 0.930 . S
C1106 C1105 1.362 . S
C1106 C1109 1.409 . S
C1107 H1099 0.930 . S
C1107 C1108 1.355 . S
C1107 C1109 1.415 . S
C1108 C1107 1.355 . S
C1108 C1110 1.419 . S
C1109 C1104 1.425 . S
C1109 C1106 1.409 . S
C1109 C1107 1.415 . S
C1110 H1100 0.930 . S
C1110 C1108 1.419 . S
C1110 C1111 1.362 . S
C1111 H1101 0.930 . S
C1111 C1104 1.409 . S
C1111 C1110 1.362 . S
H1112 C1118 0.930 . S
H1113 C1121 0.930 . S
H1114 C1122 0.930 . S
H1115 C1123 0.930 . S
H1116 C1126 0.930 . S
H1117 C1127 0.930 . S
C1118 H1112 0.930 . S
C1118 C1119 1.355 . S
C1118 C1120 1.415 . S
C1119 C1118 1.355 . S
C1119 C1121 1.419 . S
C1120 C1118 1.415 . S
C1120 C1125 1.425 . S
C1120 C1127 1.409 . S
C1121 H1113 0.930 . S
C1121 C1119 1.419 . S
C1121 C1122 1.362 . S
C1122 H1114 0.930 . S
C1122 C1121 1.362 . S
C1122 C1125 1.409 . S
C1123 H1115 0.930 . S
C1123 C1124 1.355 . S
C1123 C1125 1.415 . S
C1124 C1123 1.355 . S
C1124 C1126 1.419 . S
C1125 C1120 1.425 . S
C1125 C1122 1.409 . S
C1125 C1123 1.415 . S
C1126 H1116 0.930 . S
C1126 C1124 1.419 . S
C1126 C1127 1.362 . S
C1127 H1117 0.930 . S
C1127 C1120 1.409 . S
C1127 C1126 1.362 . S
H1128 C1134 0.930 . S
H1129 C1137 0.930 . S
H1130 C1138 0.930 . S
H1131 C1139 0.930 . S
H1132 C1142 0.930 . S
H1133 C1143 0.930 . S
C1134 H1128 0.930 . S
C1134 C1135 1.355 . S
C1134 C1136 1.415 . S
C1135 C1134 1.355 . S
C1135 C1137 1.419 . S
C1136 C1134 1.415 . S
C1136 C1141 1.425 . S
C1136 C1143 1.409 . S
C1137 H1129 0.930 . S
C1137 C1135 1.419 . S
C1137 C1138 1.362 . S
C1138 H1130 0.930 . S
C1138 C1137 1.362 . S
C1138 C1141 1.409 . S
C1139 H1131 0.930 . S
C1139 C1140 1.355 . S
C1139 C1141 1.415 . S
C1140 C1139 1.355 . S
C1140 C1142 1.419 . S
C1141 C1136 1.425 . S
C1141 C1138 1.409 . S
C1141 C1139 1.415 . S
C1142 H1132 0.930 . S
C1142 C1140 1.419 . S
C1142 C1143 1.362 . S
C1143 H1133 0.930 . S
C1143 C1136 1.409 . S
C1143 C1142 1.362 . S
H1144 C1150 0.930 . S
H1145 C1153 0.930 . S
H1146 C1154 0.930 . S
H1147 C1155 0.930 . S
H1148 C1158 0.930 . S
H1149 C1159 0.930 . S
C1150 H1144 0.930 . S
C1150 C1151 1.355 . S
C1150 C1152 1.415 . S
C1151 C1150 1.355 . S
C1151 C1153 1.419 . S
C1152 C1150 1.415 . S
C1152 C1157 1.425 . S
C1152 C1159 1.409 . S
C1153 H1145 0.930 . S
C1153 C1151 1.419 . S
C1153 C1154 1.362 . S
C1154 H1146 0.930 . S
C1154 C1153 1.362 . S
C1154 C1157 1.409 . S
C1155 H1147 0.930 . S
C1155 C1156 1.355 . S
C1155 C1157 1.415 . S
C1156 C1155 1.355 . S
C1156 C1158 1.419 . S
C1157 C1152 1.425 . S
C1157 C1154 1.409 . S
C1157 C1155 1.415 . S
C1158 H1148 0.930 . S
C1158 C1156 1.419 . S
C1158 C1159 1.362 . S
C1159 H1149 0.930 . S
C1159 C1152 1.409 . S
C1159 C1158 1.362 . S
H1160 C1166 0.930 . S
H1161 C1169 0.930 . S
H1162 C1170 0.930 . S
H1163 C1171 0.930 . S
H1164 C1174 0.930 . S
H1165 C1175 0.930 . S
C1166 H1160 0.930 . S
C1166 C1167 1.355 . S
C1166 C1168 1.415 . S
C1167 C1166 1.355 . S
C1167 C1169 1.419 . S
C1168 C1166 1.415 . S
C1168 C1173 1.425 . S
C1168 C1175 1.409 . S
C1169 H1161 0.930 . S
C1169 C1167 1.419 . S
C1169 C1170 1.362 . S
C1170 H1162 0.930 . S
C1170 C1169 1.362 . S
C1170 C1173 1.409 . S
C1171 H1163 0.930 . S
C1171 C1172 1.355 . S
C1171 C1173 1.415 . S
C1172 C1171 1.355 . S
C1172 C1174 1.419 . S
C1173 C1168 1.425 . S
C1173 C1170 1.409 . S
C1173 C1171 1.415 . S
C1174 H1164 0.930 . S
C1174 C1172 1.419 . S
C1174 C1175 1.362 . S
C1175 H1165 0.930 . S
C1175 C1168 1.409 . S
C1175 C1174 1.362 . S
H1176 C1182 0.930 . S
H1177 C1185 0.930 . S
H1178 C1186 0.930 . S
H1179 C1187 0.930 . S
H1180 C1190 0.930 . S
H1181 C1191 0.930 . S
C1182 H1176 0.930 . S
C1182 C1183 1.355 . S
C1182 C1184 1.415 . S
C1183 C1182 1.355 . S
C1183 C1185 1.419 . S
C1184 C1182 1.415 . S
C1184 C1189 1.425 . S
C1184 C1191 1.409 . S
C1185 H1177 0.930 . S
C1185 C1183 1.419 . S
C1185 C1186 1.362 . S
C1186 H1178 0.930 . S
C1186 C1185 1.362 . S
C1186 C1189 1.409 . S
C1187 H1179 0.930 . S
C1187 C1188 1.355 . S
C1187 C1189 1.415 . S
C1188 C1187 1.355 . S
C1188 C1190 1.419 . S
C1189 C1184 1.425 . S
C1189 C1186 1.409 . S
C1189 C1187 1.415 . S
C1190 H1180 0.930 . S
C1190 C1188 1.419 . S
C1190 C1191 1.362 . S
C1191 H1181 0.930 . S
C1191 C1184 1.409 . S
C1191 C1190 1.362 . S
H1192 C1198 0.930 . S
H1193 C1201 0.930 . S
H1194 C1202 0.930 . S
H1195 C1203 0.930 . S
H1196 C1206 0.930 . S
H1197 C1207 0.930 . S
C1198 H1192 0.930 . S
C1198 C1199 1.355 . S
C1198 C1200 1.415 . S
C1199 C1198 1.355 . S
C1199 C1201 1.419 . S
C1200 C1198 1.415 . S
C1200 C1205 1.425 . S
C1200 C1207 1.409 . S
C1201 H1193 0.930 . S
C1201 C1199 1.419 . S
C1201 C1202 1.362 . S
C1202 H1194 0.930 . S
C1202 C1201 1.362 . S
C1202 C1205 1.409 . S
C1203 H1195 0.930 . S
C1203 C1204 1.355 . S
C1203 C1205 1.415 . S
C1204 C1203 1.355 . S
C1204 C1206 1.419 . S
C1205 C1200 1.425 . S
C1205 C1202 1.409 . S
C1205 C1203 1.415 . S
C1206 H1196 0.930 . S
C1206 C1204 1.419 . S
C1206 C1207 1.362 . S
C1207 H1197 0.930 . S
C1207 C1200 1.409 . S
C1207 C1206 1.362 . S
H1208 C1214 0.930 . S
H1209 C1217 0.930 . S
H1210 C1218 0.930 1_565 S
H1211 C1219 0.931 . S
H1212 C1222 0.930 . S
H1213 C1223 0.930 . S
C1214 H1208 0.930 . S
C1214 C1215 1.355 . S
C1214 C1216 1.415 . S
C1215 C1214 1.355 . S
C1215 C1217 1.419 . S
C1216 C1214 1.415 . S
C1216 C1221 1.425 . S
C1216 C1223 1.409 . S
C1217 H1209 0.930 . S
C1217 C1215 1.419 . S
C1217 C1218 1.362 . S
C1218 H1210 0.930 1_545 S
C1218 C1217 1.362 . S
C1218 C1221 1.409 . S
C1219 H1211 0.931 . S
C1219 C1220 1.355 . S
C1219 C1221 1.415 . S
C1220 C1219 1.355 . S
C1220 C1222 1.419 . S
C1221 C1216 1.425 . S
C1221 C1218 1.409 . S
C1221 C1219 1.415 . S
C1222 H1212 0.930 . S
C1222 C1220 1.419 . S
C1222 C1223 1.362 . S
C1223 H1213 0.930 . S
C1223 C1216 1.409 . S
C1223 C1222 1.362 . S
H1224 C1230 0.930 . S
H1225 C1233 0.930 . S
H1226 C1234 0.930 . S
H1227 C1235 0.930 . S
H1228 C1238 0.930 . S
H1229 C1239 0.930 . S
C1230 H1224 0.930 . S
C1230 C1231 1.355 . S
C1230 C1232 1.415 . S
C1231 C1230 1.355 . S
C1231 C1233 1.419 . S
C1232 C1230 1.415 . S
C1232 C1237 1.425 . S
C1232 C1239 1.409 . S
C1233 H1225 0.930 . S
C1233 C1231 1.419 . S
C1233 C1234 1.362 . S
C1234 H1226 0.930 . S
C1234 C1233 1.362 . S
C1234 C1237 1.409 . S
C1235 H1227 0.930 . S
C1235 C1236 1.355 . S
C1235 C1237 1.415 . S
C1236 C1235 1.355 . S
C1236 C1238 1.419 . S
C1237 C1232 1.425 . S
C1237 C1234 1.409 . S
C1237 C1235 1.415 . S
C1238 H1228 0.930 . S
C1238 C1236 1.419 . S
C1238 C1239 1.362 . S
C1239 H1229 0.930 . S
C1239 C1232 1.409 . S
C1239 C1238 1.362 . S
H1240 C1246 0.930 . S
H1241 C1249 0.930 . S
H1242 C1250 0.930 . S
H1243 C1251 0.930 . S
H1244 C1254 0.930 . S
H1245 C1255 0.930 . S
C1246 H1240 0.930 . S
C1246 C1247 1.355 . S
C1246 C1248 1.415 . S
C1247 C1246 1.355 . S
C1247 C1249 1.419 . S
C1248 C1246 1.415 . S
C1248 C1253 1.425 . S
C1248 C1255 1.409 . S
C1249 H1241 0.930 . S
C1249 C1247 1.419 . S
C1249 C1250 1.362 . S
C1250 H1242 0.930 . S
C1250 C1249 1.362 . S
C1250 C1253 1.409 . S
C1251 H1243 0.930 . S
C1251 C1252 1.355 . S
C1251 C1253 1.415 . S
C1252 C1251 1.355 . S
C1252 C1254 1.419 . S
C1253 C1248 1.425 . S
C1253 C1250 1.409 . S
C1253 C1251 1.415 . S
C1254 H1244 0.930 . S
C1254 C1252 1.419 . S
C1254 C1255 1.362 . S
C1255 H1245 0.930 . S
C1255 C1248 1.409 . S
C1255 C1254 1.362 . S
H1256 C1262 0.930 . S
H1257 C1265 0.930 . S
H1258 C1266 0.930 . S
H1259 C1267 0.930 . S
H1260 C1270 0.930 . S
H1261 C1271 0.930 . S
C1262 H1256 0.930 . S
C1262 C1263 1.355 . S
C1262 C1264 1.415 . S
C1263 C1262 1.355 . S
C1263 C1265 1.419 . S
C1264 C1262 1.415 . S
C1264 C1269 1.425 . S
C1264 C1271 1.409 . S
C1265 H1257 0.930 . S
C1265 C1263 1.419 . S
C1265 C1266 1.362 . S
C1266 H1258 0.930 . S
C1266 C1265 1.362 . S
C1266 C1269 1.409 . S
C1267 H1259 0.930 . S
C1267 C1268 1.355 . S
C1267 C1269 1.415 . S
C1268 C1267 1.355 . S
C1268 C1270 1.419 . S
C1269 C1264 1.425 . S
C1269 C1266 1.409 . S
C1269 C1267 1.415 . S
C1270 H1260 0.930 . S
C1270 C1268 1.419 . S
C1270 C1271 1.362 . S
C1271 H1261 0.930 . S
C1271 C1264 1.409 . S
C1271 C1270 1.362 . S
H1272 C1278 0.930 . S
H1273 C1281 0.930 . S
H1274 C1282 0.930 . S
H1275 C1283 0.930 . S
H1276 C1286 0.930 . S
H1277 C1287 0.930 . S
C1278 H1272 0.930 . S
C1278 C1279 1.355 . S
C1278 C1280 1.415 . S
C1279 C1278 1.355 . S
C1279 C1281 1.419 . S
C1280 C1278 1.415 . S
C1280 C1285 1.425 . S
C1280 C1287 1.409 1_655 S
C1281 H1273 0.930 . S
C1281 C1279 1.419 . S
C1281 C1282 1.362 . S
C1282 H1274 0.930 . S
C1282 C1281 1.362 . S
C1282 C1285 1.409 . S
C1283 H1275 0.930 . S
C1283 C1284 1.355 . S
C1283 C1285 1.415 . S
C1284 C1283 1.355 . S
C1284 C1286 1.419 1_655 S
C1285 C1280 1.425 . S
C1285 C1282 1.409 . S
C1285 C1283 1.415 . S
C1286 H1276 0.930 . S
C1286 C1284 1.419 1_455 S
C1286 C1287 1.362 . S
C1287 H1277 0.930 . S
C1287 C1280 1.409 1_455 S
C1287 C1286 1.362 . S
H1288 C1294 0.930 . S
H1289 C1297 0.930 . S
H1290 C1298 0.930 . S
H1291 C1299 0.930 . S
H1292 C1302 0.930 . S
H1293 C1303 0.930 . S
C1294 H1288 0.930 . S
C1294 C1295 1.355 . S
C1294 C1296 1.415 . S
C1295 C1294 1.355 . S
C1295 C1297 1.419 . S
C1296 C1294 1.415 . S
C1296 C1301 1.425 . S
C1296 C1303 1.409 . S
C1297 H1289 0.930 . S
C1297 C1295 1.419 . S
C1297 C1298 1.362 . S
C1298 H1290 0.930 . S
C1298 C1297 1.362 . S
C1298 C1301 1.409 . S
C1299 H1291 0.930 . S
C1299 C1300 1.355 . S
C1299 C1301 1.415 . S
C1300 C1299 1.355 . S
C1300 C1302 1.419 . S
C1301 C1296 1.425 . S
C1301 C1298 1.409 . S
C1301 C1299 1.415 . S
C1302 H1292 0.930 . S
C1302 C1300 1.419 . S
C1302 C1303 1.362 . S
C1303 H1293 0.930 . S
C1303 C1296 1.409 . S
C1303 C1302 1.362 . S
H1304 C1310 0.930 . S
H1305 C1313 0.930 . S
H1306 C1314 0.930 . S
H1307 C1315 0.930 . S
H1308 C1318 0.930 1_655 S
H1309 C1319 0.930 1_655 S
C1310 H1304 0.930 . S
C1310 C1311 1.355 . S
C1310 C1312 1.415 . S
C1311 C1310 1.355 . S
C1311 C1313 1.419 . S
C1312 C1310 1.415 . S
C1312 C1317 1.425 . S
C1312 C1319 1.409 . S
C1313 H1305 0.930 . S
C1313 C1311 1.419 . S
C1313 C1314 1.362 . S
C1314 H1306 0.930 . S
C1314 C1313 1.362 . S
C1314 C1317 1.409 . S
C1315 H1307 0.930 . S
C1315 C1316 1.355 . S
C1315 C1317 1.415 . S
C1316 C1315 1.355 . S
C1316 C1318 1.419 . S
C1317 C1312 1.425 . S
C1317 C1314 1.409 . S
C1317 C1315 1.415 . S
C1318 H1308 0.930 1_455 S
C1318 C1316 1.419 . S
C1318 C1319 1.362 . S
C1319 H1309 0.930 1_455 S
C1319 C1312 1.409 . S
C1319 C1318 1.362 . S
H1320 C1326 0.930 . S
H1321 C1329 0.930 . S
H1322 C1330 0.930 . S
H1323 C1331 0.930 . S
H1324 C1334 0.930 . S
H1325 C1335 0.930 . S
C1326 H1320 0.930 . S
C1326 C1327 1.355 . S
C1326 C1328 1.415 . S
C1327 C1326 1.355 . S
C1327 C1329 1.419 . S
C1328 C1326 1.415 . S
C1328 C1333 1.425 . S
C1328 C1335 1.409 . S
C1329 H1321 0.930 . S
C1329 C1327 1.419 . S
C1329 C1330 1.362 . S
C1330 H1322 0.930 . S
C1330 C1329 1.362 . S
C1330 C1333 1.409 . S
C1331 H1323 0.930 . S
C1331 C1332 1.355 . S
C1331 C1333 1.415 . S
C1332 C1331 1.355 . S
C1332 C1334 1.419 . S
C1333 C1328 1.425 . S
C1333 C1330 1.409 . S
C1333 C1331 1.415 . S
C1334 H1324 0.930 . S
C1334 C1332 1.419 . S
C1334 C1335 1.362 . S
C1335 H1325 0.930 . S
C1335 C1328 1.409 . S
C1335 C1334 1.362 . S
H1336 C1342 0.930 . S
H1337 C1345 0.930 . S
H1338 C1346 0.930 . S
H1339 C1347 0.930 . S
H1340 C1350 0.930 . S
H1341 C1351 0.930 . S
C1342 H1336 0.930 . S
C1342 C1343 1.355 . S
C1342 C1344 1.415 . S
C1343 C1342 1.355 . S
C1343 C1345 1.419 . S
C1344 C1342 1.415 . S
C1344 C1349 1.425 . S
C1344 C1351 1.409 . S
C1345 H1337 0.930 . S
C1345 C1343 1.419 . S
C1345 C1346 1.362 . S
C1346 H1338 0.930 . S
C1346 C1345 1.362 . S
C1346 C1349 1.409 . S
C1347 H1339 0.930 . S
C1347 C1348 1.355 . S
C1347 C1349 1.415 . S
C1348 C1347 1.355 . S
C1348 C1350 1.419 . S
C1349 C1344 1.425 . S
C1349 C1346 1.409 . S
C1349 C1347 1.415 . S
C1350 H1340 0.930 . S
C1350 C1348 1.419 . S
C1350 C1351 1.362 . S
C1351 H1341 0.930 . S
C1351 C1344 1.409 . S
C1351 C1350 1.362 . S
H1352 C1358 0.930 . S
H1353 C1361 0.930 . S
H1354 C1362 0.930 . S
H1355 C1363 0.930 . S
H1356 C1366 0.930 . S
H1357 C1367 0.930 . S
C1358 H1352 0.930 . S
C1358 C1359 1.355 . S
C1358 C1360 1.415 . S
C1359 C1358 1.355 . S
C1359 C1361 1.419 . S
C1360 C1358 1.415 . S
C1360 C1365 1.425 . S
C1360 C1367 1.409 . S
C1361 H1353 0.930 . S
C1361 C1359 1.419 . S
C1361 C1362 1.362 . S
C1362 H1354 0.930 . S
C1362 C1361 1.362 . S
C1362 C1365 1.409 . S
C1363 H1355 0.930 . S
C1363 C1364 1.355 . S
C1363 C1365 1.415 . S
C1364 C1363 1.355 . S
C1364 C1366 1.419 . S
C1365 C1360 1.425 . S
C1365 C1362 1.409 . S
C1365 C1363 1.415 . S
C1366 H1356 0.930 . S
C1366 C1364 1.419 . S
C1366 C1367 1.362 . S
C1367 H1357 0.930 . S
C1367 C1360 1.409 . S
C1367 C1366 1.362 . S
H1368 C1374 0.930 . S
H1369 C1377 0.930 . S
H1370 C1378 0.930 . S
H1371 C1379 0.930 . S
H1372 C1382 0.930 . S
H1373 C1383 0.930 . S
C1374 H1368 0.930 . S
C1374 C1375 1.355 . S
C1374 C1376 1.415 . S
C1375 C1374 1.355 . S
C1375 C1377 1.419 . S
C1376 C1374 1.415 . S
C1376 C1381 1.425 . S
C1376 C1383 1.409 . S
C1377 H1369 0.930 . S
C1377 C1375 1.419 . S
C1377 C1378 1.362 . S
C1378 H1370 0.930 . S
C1378 C1377 1.362 . S
C1378 C1381 1.409 . S
C1379 H1371 0.930 . S
C1379 C1380 1.355 . S
C1379 C1381 1.415 . S
C1380 C1379 1.355 . S
C1380 C1382 1.419 . S
C1381 C1376 1.425 . S
C1381 C1378 1.409 . S
C1381 C1379 1.415 . S
C1382 H1372 0.930 . S
C1382 C1380 1.419 . S
C1382 C1383 1.362 . S
C1383 H1373 0.930 . S
C1383 C1376 1.409 . S
C1383 C1382 1.362 . S
H1384 C1390 0.930 . S
H1385 C1393 0.930 . S
H1386 C1394 0.930 . S
H1387 C1395 0.930 . S
H1388 C1398 0.930 . S
H1389 C1399 0.930 . S
C1390 H1384 0.930 . S
C1390 C1391 1.355 . S
C1390 C1392 1.415 . S
C1391 C1390 1.355 . S
C1391 C1393 1.419 . S
C1392 C1390 1.415 . S
C1392 C1397 1.425 . S
C1392 C1399 1.409 . S
C1393 H1385 0.930 . S
C1393 C1391 1.419 . S
C1393 C1394 1.362 . S
C1394 H1386 0.930 . S
C1394 C1393 1.362 . S
C1394 C1397 1.409 . S
C1395 H1387 0.930 . S
C1395 C1396 1.355 . S
C1395 C1397 1.415 . S
C1396 C1395 1.355 . S
C1396 C1398 1.419 . S
C1397 C1392 1.425 . S
C1397 C1394 1.409 . S
C1397 C1395 1.415 . S
C1398 H1388 0.930 . S
C1398 C1396 1.419 . S
C1398 C1399 1.362 . S
C1399 H1389 0.930 . S
C1399 C1392 1.409 . S
C1399 C1398 1.362 . S
H1400 C1406 0.930 . S
H1401 C1409 0.930 . S
H1402 C1410 0.930 . S
H1403 C1411 0.930 . S
H1404 C1414 0.930 . S
H1405 C1415 0.930 . S
C1406 H1400 0.930 . S
C1406 C1407 1.355 . S
C1406 C1408 1.415 . S
C1407 C1406 1.355 . S
C1407 C1409 1.419 . S
C1408 C1406 1.415 . S
C1408 C1413 1.425 . S
C1408 C1415 1.409 . S
C1409 H1401 0.930 . S
C1409 C1407 1.419 . S
C1409 C1410 1.362 . S
C1410 H1402 0.930 . S
C1410 C1409 1.362 . S
C1410 C1413 1.409 . S
C1411 H1403 0.930 . S
C1411 C1412 1.355 . S
C1411 C1413 1.415 . S
C1412 C1411 1.355 . S
C1412 C1414 1.419 . S
C1413 C1408 1.425 . S
C1413 C1410 1.409 . S
C1413 C1411 1.415 . S
C1414 H1404 0.930 . S
C1414 C1412 1.419 . S
C1414 C1415 1.362 . S
C1415 H1405 0.930 . S
C1415 C1408 1.409 . S
C1415 C1414 1.362 . S
H1416 C1422 0.930 . S
H1417 C1425 0.930 . S
H1418 C1426 0.930 . S
H1419 C1427 0.930 . S
H1420 C1430 0.930 . S
H1421 C1431 0.930 . S
C1422 H1416 0.930 . S
C1422 C1423 1.355 . S
C1422 C1424 1.415 . S
C1423 C1422 1.355 . S
C1423 C1425 1.419 . S
C1424 C1422 1.415 . S
C1424 C1429 1.425 . S
C1424 C1431 1.409 . S
C1425 H1417 0.930 . S
C1425 C1423 1.419 . S
C1425 C1426 1.362 . S
C1426 H1418 0.930 . S
C1426 C1425 1.362 . S
C1426 C1429 1.409 . S
C1427 H1419 0.930 . S
C1427 C1428 1.355 . S
C1427 C1429 1.415 . S
C1428 C1427 1.355 . S
C1428 C1430 1.419 . S
C1429 C1424 1.425 . S
C1429 C1426 1.409 . S
C1429 C1427 1.415 . S
C1430 H1420 0.930 . S
C1430 C1428 1.419 . S
C1430 C1431 1.362 . S
C1431 H1421 0.930 . S
C1431 C1424 1.409 . S
C1431 C1430 1.362 . S
H1432 C1438 0.930 . S
H1433 C1441 0.930 . S
H1434 C1442 0.930 . S
H1435 C1443 0.930 . S
H1436 C1446 0.930 . S
H1437 C1447 0.930 . S
C1438 H1432 0.930 . S
C1438 C1439 1.355 . S
C1438 C1440 1.415 . S
C1439 C1438 1.355 . S
C1439 C1441 1.419 . S
C1440 C1438 1.415 . S
C1440 C1445 1.425 . S
C1440 C1447 1.409 . S
C1441 H1433 0.930 . S
C1441 C1439 1.419 . S
C1441 C1442 1.362 . S
C1442 H1434 0.930 . S
C1442 C1441 1.362 . S
C1442 C1445 1.409 . S
C1443 H1435 0.930 . S
C1443 C1444 1.355 . S
C1443 C1445 1.415 . S
C1444 C1443 1.355 . S
C1444 C1446 1.419 . S
C1445 C1440 1.425 . S
C1445 C1442 1.409 . S
C1445 C1443 1.415 . S
C1446 H1436 0.930 . S
C1446 C1444 1.419 . S
C1446 C1447 1.362 . S
C1447 H1437 0.930 . S
C1447 C1440 1.409 . S
C1447 C1446 1.362 . S
H1448 C1454 0.930 . S
H1449 C1457 0.930 . S
H1450 C1458 0.930 . S
H1451 C1459 0.930 . S
H1452 C1462 0.930 1_554 S
H1453 C1463 0.940 . S
C1454 H1448 0.930 . S
C1454 C1455 1.355 . S
C1454 C1456 1.415 . S
C1455 C1454 1.355 . S
C1455 C1457 1.419 . S
C1456 C1454 1.415 . S
C1456 C1461 1.425 . S
C1456 C1463 1.409 . S
C1457 H1449 0.930 . S
C1457 C1455 1.419 . S
C1457 C1458 1.362 . S
C1458 H1450 0.930 . S
C1458 C1457 1.362 . S
C1458 C1461 1.409 . S
C1459 H1451 0.930 . S
C1459 C1460 1.355 . S
C1459 C1461 1.415 . S
C1460 C1459 1.355 . S
C1460 C1462 1.419 . S
C1461 C1456 1.425 . S
C1461 C1458 1.409 . S
C1461 C1459 1.415 . S
C1462 H1452 0.930 1_556 S
C1462 C1460 1.419 . S
C1462 C1463 1.362 . S
C1463 H1453 0.940 . S
C1463 C1456 1.409 . S
C1463 C1462 1.362 . S
H1464 C1470 0.930 . S
H1465 C1473 0.930 . S
H1466 C1474 0.930 . S
H1467 C1475 0.930 . S
H1468 C1478 0.930 . S
H1469 C1479 0.930 . S
C1470 H1464 0.930 . S
C1470 C1471 1.355 . S
C1470 C1472 1.415 . S
C1471 C1470 1.355 . S
C1471 C1473 1.419 . S
C1472 C1470 1.415 . S
C1472 C1477 1.425 . S
C1472 C1479 1.409 . S
C1473 H1465 0.930 . S
C1473 C1471 1.419 . S
C1473 C1474 1.362 . S
C1474 H1466 0.930 . S
C1474 C1473 1.362 . S
C1474 C1477 1.409 . S
C1475 H1467 0.930 . S
C1475 C1476 1.355 . S
C1475 C1477 1.415 . S
C1476 C1475 1.355 . S
C1476 C1478 1.419 . S
C1477 C1472 1.425 . S
C1477 C1474 1.409 . S
C1477 C1475 1.415 . S
C1478 H1468 0.930 . S
C1478 C1476 1.419 . S
C1478 C1479 1.362 . S
C1479 H1469 0.930 . S
C1479 C1472 1.409 . S
C1479 C1478 1.362 . S
H1480 C1486 0.930 . S
H1481 C1489 0.930 . S
H1482 C1490 0.930 1_556 S
H1483 C1491 0.930 1_556 S
H1484 C1494 0.930 . S
H1485 C1495 0.930 . S
C1486 H1480 0.930 . S
C1486 C1487 1.355 . S
C1486 C1488 1.415 . S
C1487 C1486 1.355 . S
C1487 C1489 1.419 . S
C1488 C1486 1.415 . S
C1488 C1493 1.425 . S
C1488 C1495 1.409 . S
C1489 H1481 0.930 . S
C1489 C1487 1.419 . S
C1489 C1490 1.362 . S
C1490 H1482 0.930 1_554 S
C1490 C1489 1.362 . S
C1490 C1493 1.409 . S
C1491 H1483 0.930 1_554 S
C1491 C1492 1.355 . S
C1491 C1493 1.415 . S
C1492 C1491 1.355 . S
C1492 C1494 1.419 . S
C1493 C1488 1.425 . S
C1493 C1490 1.409 . S
C1493 C1491 1.415 . S
C1494 H1484 0.930 . S
C1494 C1492 1.419 . S
C1494 C1495 1.362 . S
C1495 H1485 0.930 . S
C1495 C1488 1.409 . S
C1495 C1494 1.362 . S
H1496 C1502 0.930 . S
H1497 C1505 0.930 . S
H1498 C1506 0.930 . S
H1499 C1507 0.930 . S
H1500 C1510 0.930 . S
H1501 C1511 0.930 . S
C1502 H1496 0.930 . S
C1502 C1503 1.355 . S
C1502 C1504 1.415 . S
C1503 C1502 1.355 . S
C1503 C1505 1.419 . S
C1504 C1502 1.415 . S
C1504 C1509 1.425 . S
C1504 C1511 1.409 . S
C1505 H1497 0.930 . S
C1505 C1503 1.419 . S
C1505 C1506 1.362 . S
C1506 H1498 0.930 . S
C1506 C1505 1.362 . S
C1506 C1509 1.409 . S
C1507 H1499 0.930 . S
C1507 C1508 1.355 . S
C1507 C1509 1.415 . S
C1508 C1507 1.355 . S
C1508 C1510 1.419 . S
C1509 C1504 1.425 . S
C1509 C1506 1.409 . S
C1509 C1507 1.415 . S
C1510 H1500 0.930 . S
C1510 C1508 1.419 . S
C1510 C1511 1.362 . S
C1511 H1501 0.930 . S
C1511 C1504 1.409 . S
C1511 C1510 1.362 . S
C756 C584 1.499 . S
C751 C181 1.508 . S
C772 C597 1.474 . S
C767 C247 1.490 . S
C783 C283 1.632 . S
C788 C617 1.493 . S
C804 C631 1.339 . S
C799 C169 1.443 . S
C820 C643 1.507 . S
C815 C361 1.514 . S
C836 C657 1.430 . S
C831 C433 1.435 . S
C847 C421 1.479 . S
C852 C667 1.466 . S
C868 C682 1.511 . S
C863 C355 1.521 . S
C879 C427 1.515 . S
C884 C696 1.480 . S
C900 C715 1.335 . S
C895 C325 1.455 . S
C911 C385 1.493 . S
C916 C695 1.466 . S
C932 C713 1.430 . S
C927 C463 1.439 . S
C943 C253 1.631 . S
C948 C729 1.488 . S
C959 C145 1.486 . S
C964 C723 1.478 . S
C975 C205 1.501 . S
C980 C727 1.501 . S
C991 C217 1.535 . S
C996 C724 1.517 . S
C1007 C139 1.512 . S
C1012 C626 1.475 . S
C1023 C535 1.475 . S
C1028 C625 1.486 . S
C1044 C589 1.318 . S
C1039 C565 1.436 . S
C1060 C603 1.559 . S
C1055 C313 1.616 . S
C1071 C175 1.554 . S
C1076 C640 1.494 . S
C1092 C685 1.509 . S
C1087 C397 1.506 . S
C1108 C639 1.493 . S
C1103 C349 1.465 . S
C1124 C671 1.427 . S
C1119 C457 1.433 . S
C1140 C668 1.499 . S
C1135 C505 1.506 . S
C1151 C571 1.488 . S
C1156 C681 1.481 . S
C1167 C319 1.641 . S
C1172 C645 1.509 . S
C1188 C659 1.404 . S
C1183 C493 1.452 . S
C1199 C109 1.511 . S
C1204 C615 1.513 . S
C1220 C629 1.424 . S
C1215 C1 1.433 . S
C1236 C583 1.457 . S
C1231 C61 1.488 . S
C1252 C598 1.495 . S
C1247 C103 1.545 . S
C1263 C67 1.513 . S
C1268 C710 1.478 . S
C1279 C73 1.443 . S
C1284 C701 1.380 . S
C1295 C133 1.491 . S
C1300 C709 1.472 . S
C1311 C31 1.411 . S
C1316 C699 1.430 . S
C1332 C743 1.493 . S
C1327 C289 1.620 . S
C1348 C737 1.476 . S
C1343 C469 1.492 . S
C1364 C741 1.501 . S
C1359 C529 1.499 . S
C1375 C541 1.518 . S
C1380 C738 1.525 . S
C1391 C391 1.522 . S
C1396 C654 1.506 . S
C1412 C653 1.491 . S
C1407 C211 1.479 . S
C1428 C673 1.323 . S
C1423 C241 1.430 . S
C1444 C687 1.478 . S
C1439 C277 1.609 . S
C1455 C499 1.553 . S
C1460 C612 1.514 . S
C1476 C601 1.506 . S
C1471 C37 1.510 . S
C1487 C97 1.476 . S
C1492 C611 1.493 . S
C1508 C587 1.439 . S
C1503 C25 1.443 . S
