# Generated by pormake.
# Topology nom, (4,4)-cn, num edge types: 1
# Building blocks:
#     Node 0, Type 0, BuildingBlock: NAHDIM_clean_linker_0, # of connection points: 4
#     Node 1, Type 0, BuildingBlock: NAHDIM_clean_linker_0, # of connection points: 4
#     Node 2, Type 0, BuildingBlock: NAHDIM_clean_linker_0, # of connection points: 4
#     Node 3, Type 0, BuildingBlock: NAHDIM_clean_linker_0, # of connection points: 4
#     Node 4, Type 0, BuildingBlock: NAHDIM_clean_linker_0, # of connection points: 4
#     Node 5, Type 0, BuildingBlock: NAHDIM_clean_linker_0, # of connection points: 4
#     Node 6, Type 1, BuildingBlock: CEKHIL_clean_sbu_0, # of connection points: 4
#     Node 7, Type 1, BuildingBlock: CEKHIL_clean_sbu_0, # of connection points: 4
#     Node 8, Type 1, BuildingBlock: CEKHIL_clean_sbu_0, # of connection points: 4
#     Node 9, Type 1, BuildingBlock: CEKHIL_clean_sbu_0, # of connection points: 4
#     Node 10, Type 1, BuildingBlock: CEKHIL_clean_sbu_0, # of connection points: 4
#     Node 11, Type 1, BuildingBlock: CEKHIL_clean_sbu_0, # of connection points: 4
#     Edge 12, Type (0, 1), BuildingBlock: KIFKEQ_clean_linker_1, # of connection points: 2
#     Edge 13, Type (0, 1), BuildingBlock: KIFKEQ_clean_linker_1, # of connection points: 2
#     Edge 14, Type (0, 1), BuildingBlock: KIFKEQ_clean_linker_1, # of connection points: 2
#     Edge 15, Type (0, 1), BuildingBlock: KIFKEQ_clean_linker_1, # of connection points: 2
#     Edge 16, Type (0, 1), BuildingBlock: KIFKEQ_clean_linker_1, # of connection points: 2
#     Edge 17, Type (0, 1), BuildingBlock: KIFKEQ_clean_linker_1, # of connection points: 2
#     Edge 18, Type (0, 1), BuildingBlock: KIFKEQ_clean_linker_1, # of connection points: 2
#     Edge 19, Type (0, 1), BuildingBlock: KIFKEQ_clean_linker_1, # of connection points: 2
#     Edge 20, Type (0, 1), BuildingBlock: KIFKEQ_clean_linker_1, # of connection points: 2
#     Edge 21, Type (0, 1), BuildingBlock: KIFKEQ_clean_linker_1, # of connection points: 2
#     Edge 22, Type (0, 1), BuildingBlock: KIFKEQ_clean_linker_1, # of connection points: 2
#     Edge 23, Type (0, 1), BuildingBlock: KIFKEQ_clean_linker_1, # of connection points: 2
#     Edge 24, Type (0, 1), BuildingBlock: KIFKEQ_clean_linker_1, # of connection points: 2
#     Edge 25, Type (0, 1), BuildingBlock: KIFKEQ_clean_linker_1, # of connection points: 2
#     Edge 26, Type (0, 1), BuildingBlock: KIFKEQ_clean_linker_1, # of connection points: 2
#     Edge 27, Type (0, 1), BuildingBlock: KIFKEQ_clean_linker_1, # of connection points: 2
#     Edge 28, Type (0, 1), BuildingBlock: KIFKEQ_clean_linker_1, # of connection points: 2
#     Edge 29, Type (0, 1), BuildingBlock: KIFKEQ_clean_linker_1, # of connection points: 2
#     Edge 30, Type (0, 1), BuildingBlock: KIFKEQ_clean_linker_1, # of connection points: 2
#     Edge 31, Type (0, 1), BuildingBlock: KIFKEQ_clean_linker_1, # of connection points: 2
#     Edge 32, Type (0, 1), BuildingBlock: KIFKEQ_clean_linker_1, # of connection points: 2
#     Edge 33, Type (0, 1), BuildingBlock: KIFKEQ_clean_linker_1, # of connection points: 2
#     Edge 34, Type (0, 1), BuildingBlock: KIFKEQ_clean_linker_1, # of connection points: 2
#     Edge 35, Type (0, 1), BuildingBlock: KIFKEQ_clean_linker_1, # of connection points: 2
# Relax obj value: 0.044
# Max RMSD: 0.128
# Mean RMSD: 0.097
data_MOF--net-nom--node1-CEKHIL_clean_sbu_0--node2-NAHDIM_clean_linker_0--edge1-KIFKEQ_clean_linker_1
_symmetry_space_group_name_H-M    P1
_symmetry_Int_Tables_number       1
_symmetry_cell_setting            triclinic
loop_
_symmetry_equiv_pos_as_xyz
'x, y, z'
_cell_length_a     59.331182
_cell_length_b     58.608029
_cell_length_c     71.12844
_cell_angle_alpha  90.138863
_cell_angle_beta   90.11993
_cell_angle_gamma 121.22197
loop_
_atom_site_label
_atom_site_type_symbol
_atom_site_fract_x
_atom_site_fract_y
_atom_site_fract_z
_atom_type_partial_charge
C0 C 0.16665 0.59833 0.23941 0.0
C1 C 0.17355 0.60831 0.25978 0.0
C2 C 0.12987 0.59467 0.2728 0.0
C3 C 0.12027 0.56712 0.27366 0.0
C4 C 0.09415 0.54903 0.27904 0.0
C5 C 0.07739 0.55867 0.28362 0.0
C6 C 0.08713 0.58639 0.28305 0.0
C7 C 0.11331 0.604 0.27774 0.0
C8 C 0.08435 0.5196 0.2797 0.0
C9 C 0.06974 0.59738 0.28775 0.0
C10 C 0.92071 0.46832 0.18149 0.0
C11 C 0.94184 0.48452 0.19544 0.0
C12 C 0.95343 0.4829 0.22802 0.0
C13 C 0.96721 0.51038 0.23189 0.0
C14 C 0.98323 0.52072 0.24793 0.0
C15 C 0.98637 0.50331 0.25996 0.0
C16 C 0.97284 0.47562 0.25586 0.0
C17 C 0.95593 0.46573 0.24023 0.0
C18 C 0.99672 0.55025 0.25199 0.0
C19 C 0.97634 0.45639 0.2678 0.0
C20 C 0.88431 0.46814 0.3564 0.0
C21 C 0.9026 0.49569 0.35656 0.0
C22 C 0.92972 0.50548 0.35609 0.0
C23 C 0.93867 0.48732 0.35558 0.0
C24 C 0.92035 0.4596 0.35683 0.0
C25 C 0.89328 0.45034 0.35737 0.0
C26 C 0.94879 0.53523 0.35536 0.0
C27 C 0.92933 0.43979 0.35661 0.0
C28 C 0.12628 0.55936 0.40933 0.0
C29 C 0.10599 0.54622 0.42514 0.0
C30 C 0.06713 0.54169 0.40891 0.0
C31 C 0.05426 0.55552 0.40525 0.0
C32 C 0.03593 0.54779 0.39052 0.0
C33 C 0.02977 0.5251 0.37953 0.0
C34 C 0.04172 0.51016 0.38379 0.0
C35 C 0.06055 0.5188 0.39827 0.0
C36 C 0.02354 0.56419 0.38652 0.0
C37 C 0.03492 0.48524 0.37288 0.0
C38 C 0.04931 0.53988 0.28823 0.0
C39 C 0.03137 0.5291 0.27333 0.0
C40 C 0.00423 0.51415 0.27654 0.0
C41 C 0.99466 0.51004 0.29519 0.0
C42 C 0.96753 0.49709 0.29896 0.0
C43 C 0.95835 0.49296 0.31734 0.0
C44 C 0.97593 0.50138 0.33269 0.0
C45 C 0.96677 0.49739 0.35142 0.0
C46 C 0.98461 0.50492 0.36637 0.0
C47 C 0.01175 0.51763 0.3631 0.0
C48 C 0.02139 0.52334 0.34445 0.0
C49 C 0.04859 0.53788 0.34065 0.0
C50 C 0.05782 0.54341 0.32226 0.0
C51 C 0.0402 0.53429 0.30696 0.0
C52 C 0.01274 0.51949 0.31044 0.0
C53 C 0.00334 0.51459 0.32921 0.0
C54 C 0.84463 0.4559 0.32305 0.0
C55 C 0.84623 0.4673 0.34275 0.0
O56 O 0.15469 0.61297 0.26712 0.0
O57 O 0.08574 0.55124 0.42272 0.0
O58 O 0.85799 0.45819 0.35508 0.0
O59 O 0.93742 0.47226 0.2128 0.0
H60 H 0.17469 0.59315 0.26844 0.0
H61 H 0.14758 0.57909 0.23875 0.0
H62 H 0.16505 0.61306 0.23058 0.0
H63 H 0.18207 0.59508 0.23344 0.0
H64 H 0.13283 0.55948 0.27004 0.0
H65 H 0.12091 0.62526 0.27711 0.0
H66 H 0.06858 0.50893 0.26901 0.0
H67 H 0.10028 0.51539 0.27697 0.0
H68 H 0.07562 0.51145 0.29368 0.0
H69 H 0.08013 0.61939 0.2861 0.0
H70 H 0.05206 0.58805 0.2785 0.0
H71 H 0.06281 0.59232 0.30248 0.0
H72 H 0.96242 0.49274 0.19038 0.0
H73 H 0.90425 0.4918 0.17577 0.0
H74 H 0.93062 0.46283 0.1704 0.0
H75 H 0.90882 0.44748 0.18732 0.0
H76 H 0.96514 0.52382 0.22265 0.0
H77 H 0.94518 0.44454 0.23712 0.0
H78 H 0.99518 0.55387 0.26714 0.0
H79 H 0.01796 0.55993 0.2485 0.0
H80 H 0.98823 0.55997 0.24357 0.0
H81 H 0.9693 0.43708 0.26046 0.0
H82 H 0.99737 0.46502 0.27172 0.0
H83 H 0.96487 0.45228 0.28095 0.0
H84 H 0.858 0.4894 0.34173 0.0
H85 H 0.89582 0.50962 0.3569 0.0
H86 H 0.87897 0.42911 0.35765 0.0
H87 H 0.95885 0.54062 0.34153 0.0
H88 H 0.93884 0.54672 0.35738 0.0
H89 H 0.96417 0.54129 0.36637 0.0
H90 H 0.91288 0.4191 0.35932 0.0
H91 H 0.938 0.44029 0.34269 0.0
H92 H 0.94494 0.44534 0.36737 0.0
H93 H 0.09787 0.52435 0.42507 0.0
H94 H 0.14268 0.55563 0.41126 0.0
H95 H 0.11699 0.55097 0.39547 0.0
H96 H 0.13446 0.58124 0.40917 0.0
H97 H 0.05925 0.57297 0.41367 0.0
H98 H 0.06994 0.50754 0.40113 0.0
H99 H 0.02516 0.56919 0.37134 0.0
H100 H 0.00227 0.55236 0.39005 0.0
H101 H 0.0328 0.583 0.39483 0.0
H102 H 0.04212 0.47336 0.38003 0.0
H103 H 0.01326 0.47249 0.37087 0.0
H104 H 0.0441 0.49088 0.35877 0.0
H105 H 0.03863 0.53294 0.259 0.0
H106 H 0.95308 0.49017 0.28774 0.0
H107 H 0.93724 0.48288 0.31933 0.0
H108 H 0.97735 0.50137 0.38069 0.0
H109 H 0.06308 0.54538 0.35186 0.0
H110 H 0.07894 0.55473 0.32016 0.0
H111 H 0.8336 0.43374 0.32334 0.0
H112 H 0.83466 0.46257 0.31318 0.0
H113 H 0.86479 0.46309 0.31769 0.0
C114 C 0.42363 0.85467 0.57089 0.0
C115 C 0.41418 0.84662 0.55052 0.0
C116 C 0.42611 0.89012 0.53703 0.0
C117 C 0.45349 0.90075 0.53642 0.0
C118 C 0.47077 0.92751 0.53154 0.0
C119 C 0.46049 0.9439 0.5272 0.0
C120 C 0.43295 0.93311 0.52734 0.0
C121 C 0.41612 0.90627 0.53217 0.0
C122 C 0.50007 0.93842 0.5313 0.0
C123 C 0.42138 0.95008 0.52274 0.0
C124 C 0.54573 0.1137 0.62587 0.0
C125 C 0.52906 0.09483 0.61074 0.0
C126 C 0.53146 0.06702 0.58604 0.0
C127 C 0.50802 0.06136 0.57694 0.0
C128 C 0.49914 0.04522 0.56077 0.0
C129 C 0.51398 0.03457 0.55354 0.0
C130 C 0.53757 0.04023 0.56265 0.0
C131 C 0.54599 0.05643 0.57879 0.0
C132 C 0.47393 0.03958 0.55135 0.0
C133 C 0.55386 0.02919 0.55528 0.0
C134 C 0.58137 0.14374 0.46512 0.0
C135 C 0.55417 0.13079 0.46163 0.0
C136 C 0.53922 0.10306 0.45906 0.0
C137 C 0.55184 0.08819 0.45988 0.0
C138 C 0.57962 0.10159 0.46131 0.0
C139 C 0.59411 0.12936 0.46382 0.0
C140 C 0.50972 0.08945 0.45684 0.0
C141 C 0.59373 0.08635 0.4617 0.0
C142 C 0.46505 0.90014 0.40009 0.0
C143 C 0.47992 0.92133 0.38494 0.0
C144 C 0.48664 0.96081 0.40238 0.0
C145 C 0.47485 0.97569 0.40607 0.0
C146 C 0.48285 0.99333 0.42142 0.0
C147 C 0.50366 0.99661 0.43311 0.0
C148 C 0.51653 0.98253 0.42895 0.0
C149 C 0.50773 0.96456 0.41375 0.0
C150 C 0.46872 0.00807 0.42534 0.0
C151 C 0.5394 0.9862 0.44072 0.0
C152 C 0.47861 0.97265 0.52343 0.0
C153 C 0.48787 0.99 0.53886 0.0
C154 C 0.50479 0.01741 0.53648 0.0
C155 C 0.51265 0.02795 0.5182 0.0
C156 C 0.52927 0.05548 0.5153 0.0
C157 C 0.53681 0.06568 0.49728 0.0
C158 C 0.52824 0.04874 0.48143 0.0
C159 C 0.53581 0.05901 0.46304 0.0
C160 C 0.52761 0.04167 0.44762 0.0
C161 C 0.51141 0.01407 0.45003 0.0
C162 C 0.5029 0.00348 0.46829 0.0
C163 C 0.48582 0.97595 0.47121 0.0
C164 C 0.47781 0.96577 0.48925 0.0
C165 C 0.48654 0.98272 0.50505 0.0
C166 C 0.5036 0.01052 0.50244 0.0
C167 C 0.51162 0.02091 0.48404 0.0
C168 C 0.60393 0.1919 0.49989 0.0
C169 C 0.58691 0.1825 0.48209 0.0
O170 O 0.40864 0.86468 0.54246 0.0
O171 O 0.47692 0.94304 0.38787 0.0
O172 O 0.59567 0.16977 0.47035 0.0
O173 O 0.54074 0.08256 0.60173 0.0
H174 H 0.42968 0.84589 0.54223 0.0
H175 H 0.4422 0.87439 0.5714 0.0
H176 H 0.40853 0.85592 0.57931 0.0
H177 H 0.42751 0.83984 0.57744 0.0
H178 H 0.46162 0.88851 0.53989 0.0
H179 H 0.39499 0.89785 0.53256 0.0
H180 H 0.50987 0.95417 0.54224 0.0
H181 H 0.50489 0.92275 0.53395 0.0
H182 H 0.50837 0.9478 0.51749 0.0
H183 H 0.3995 0.9386 0.5233 0.0
H184 H 0.42898 0.96701 0.53283 0.0
H185 H 0.42763 0.95864 0.50846 0.0
H186 H 0.50817 0.08054 0.61474 0.0
H187 H 0.56157 0.10913 0.62919 0.0
H188 H 0.53447 0.10474 0.63924 0.0
H189 H 0.55409 0.15083 0.61589 0.0
H190 H 0.49655 0.06946 0.58235 0.0
H191 H 0.56404 0.06091 0.58587 0.0
H192 H 0.47796 0.04646 0.53654 0.0
H193 H 0.45962 0.01774 0.55111 0.0
H194 H 0.46475 0.04956 0.5586 0.0
H195 H 0.57165 0.03533 0.56404 0.0
H196 H 0.54173 0.00706 0.55487 0.0
H197 H 0.56017 0.03617 0.54067 0.0
H198 H 0.56639 0.16854 0.48691 0.0
H199 H 0.54448 0.14217 0.46154 0.0
H200 H 0.61525 0.13972 0.46599 0.0
H201 H 0.50006 0.07858 0.46997 0.0
H202 H 0.50335 0.10389 0.45392 0.0
H203 H 0.5028 0.07459 0.44524 0.0
H204 H 0.61541 0.09974 0.46038 0.0
H205 H 0.58946 0.07536 0.47518 0.0
H206 H 0.58646 0.07141 0.45013 0.0
H207 H 0.50119 0.92796 0.38539 0.0
H208 H 0.46717 0.88259 0.39773 0.0
H209 H 0.4731 0.9083 0.41426 0.0
H210 H 0.44377 0.89346 0.39987 0.0
H211 H 0.45878 0.97286 0.39712 0.0
H212 H 0.51743 0.95359 0.41091 0.0
H213 H 0.4617 0.00473 0.44011 0.0
H214 H 0.48262 0.02982 0.42357 0.0
H215 H 0.4516 0.00174 0.41581 0.0
H216 H 0.54965 0.97687 0.43412 0.0
H217 H 0.55386 0.00777 0.44299 0.0
H218 H 0.53211 0.97699 0.45472 0.0
H219 H 0.48179 0.98205 0.55293 0.0
H220 H 0.53656 0.06949 0.52693 0.0
H221 H 0.54957 0.08708 0.49601 0.0
H222 H 0.53378 0.04975 0.4336 0.0
H223 H 0.47841 0.96194 0.45959 0.0
H224 H 0.46472 0.94442 0.49065 0.0
H225 H 0.59756 0.20264 0.50933 0.0
H226 H 0.60175 0.17438 0.50757 0.0
H227 H 0.62509 0.20533 0.49641 0.0
C228 C 0.56799 0.42246 0.73631 0.0
C229 C 0.56908 0.41502 0.71579 0.0
C230 C 0.53897 0.42631 0.70027 0.0
C231 C 0.55603 0.4542 0.70077 0.0
C232 C 0.5474 0.47126 0.69486 0.0
C233 C 0.52118 0.46027 0.68848 0.0
C234 C 0.50409 0.43225 0.68768 0.0
C235 C 0.51334 0.41566 0.69344 0.0
C236 C 0.56619 0.50107 0.69572 0.0
C237 C 0.47591 0.41985 0.68111 0.0
C238 C 0.4336 0.54068 0.78271 0.0
C239 C 0.434 0.52819 0.76461 0.0
C240 C 0.4662 0.53028 0.74213 0.0
C241 C 0.44832 0.50667 0.73254 0.0
C242 C 0.45662 0.4976 0.71731 0.0
C243 C 0.48322 0.51254 0.7115 0.0
C244 C 0.50126 0.53624 0.72117 0.0
C245 C 0.49248 0.54477 0.73641 0.0
C246 C 0.43695 0.47214 0.70733 0.0
C247 C 0.52977 0.5526 0.71532 0.0
C248 C 0.43771 0.5682 0.61263 0.0
C249 C 0.42446 0.54069 0.61581 0.0
C250 C 0.43843 0.52744 0.61719 0.0
C251 C 0.46628 0.54225 0.61577 0.0
C252 C 0.47954 0.56985 0.61166 0.0
C253 C 0.46494 0.58243 0.60986 0.0
C254 C 0.42345 0.49779 0.62079 0.0
C255 C 0.50915 0.5862 0.60995 0.0
C256 C 0.57361 0.46232 0.56579 0.0
C257 C 0.56873 0.47587 0.54914 0.0
C258 C 0.53492 0.48239 0.56383 0.0
C259 C 0.50776 0.46934 0.56677 0.0
C260 C 0.49722 0.47731 0.58122 0.0
C261 C 0.51437 0.4994 0.59268 0.0
C262 C 0.54181 0.51364 0.58911 0.0
C263 C 0.55185 0.50482 0.57485 0.0
C264 C 0.46786 0.46171 0.58453 0.0
C265 C 0.56061 0.53792 0.60058 0.0
C266 C 0.51115 0.47807 0.68371 0.0
C267 C 0.50247 0.48731 0.69849 0.0
C268 C 0.49211 0.50356 0.69513 0.0
C269 C 0.49005 0.51069 0.67653 0.0
C270 C 0.47932 0.52666 0.67267 0.0
C271 C 0.47669 0.53295 0.65429 0.0
C272 C 0.4849 0.52371 0.63904 0.0
C273 C 0.48146 0.52925 0.62026 0.0
C274 C 0.49133 0.52121 0.60548 0.0
C275 C 0.50381 0.50689 0.60892 0.0
C276 C 0.50592 0.49971 0.62755 0.0
C277 C 0.51687 0.4839 0.63146 0.0
C278 C 0.51873 0.47686 0.64983 0.0
C279 C 0.50973 0.48538 0.66501 0.0
C280 C 0.49889 0.50155 0.66141 0.0
C281 C 0.49667 0.50841 0.64266 0.0
C282 C 0.42487 0.60849 0.63756 0.0
C283 C 0.40971 0.58142 0.62761 0.0
O284 O 0.54613 0.40896 0.70639 0.0
O285 O 0.54384 0.47249 0.5504 0.0
O286 O 0.42455 0.58138 0.61257 0.0
O287 O 0.45901 0.53974 0.75696 0.0
H288 H 0.58632 0.43202 0.70876 0.0
H289 H 0.56644 0.44051 0.73706 0.0
H290 H 0.55065 0.40588 0.74354 0.0
H291 H 0.58621 0.42685 0.7439 0.0
H292 H 0.57601 0.46295 0.70589 0.0
H293 H 0.50035 0.39417 0.69303 0.0
H294 H 0.55947 0.50977 0.70664 0.0
H295 H 0.58665 0.50646 0.69914 0.0
H296 H 0.56624 0.51024 0.68206 0.0
H297 H 0.46489 0.39772 0.68191 0.0
H298 H 0.4656 0.4274 0.6898 0.0
H299 H 0.47553 0.42571 0.66634 0.0
H300 H 0.41873 0.52545 0.75416 0.0
H301 H 0.42234 0.51007 0.80233 0.0
H302 H 0.45281 0.56036 0.78375 0.0
H303 H 0.42145 0.54999 0.77979 0.0
H304 H 0.42791 0.49522 0.73683 0.0
H305 H 0.50611 0.56291 0.74392 0.0
H306 H 0.43492 0.47655 0.69247 0.0
H307 H 0.44416 0.45803 0.70726 0.0
H308 H 0.41721 0.46225 0.71402 0.0
H309 H 0.54122 0.57081 0.72411 0.0
H310 H 0.53901 0.54033 0.71643 0.0
H311 H 0.53103 0.55864 0.70039 0.0
H312 H 0.40658 0.56588 0.63806 0.0
H313 H 0.40324 0.52972 0.61744 0.0
H314 H 0.47485 0.60367 0.60716 0.0
H315 H 0.42605 0.49412 0.63571 0.0
H316 H 0.40202 0.48853 0.61797 0.0
H317 H 0.43119 0.48779 0.61189 0.0
H318 H 0.51652 0.60762 0.6073 0.0
H319 H 0.51838 0.58452 0.62306 0.0
H320 H 0.51555 0.57833 0.59825 0.0
H321 H 0.58393 0.49752 0.54909 0.0
H322 H 0.5933 0.46448 0.56462 0.0
H323 H 0.57313 0.47162 0.57927 0.0
H324 H 0.55826 0.44075 0.56619 0.0
H325 H 0.49484 0.45226 0.55804 0.0
H326 H 0.57288 0.5155 0.57247 0.0
H327 H 0.46369 0.45526 0.59943 0.0
H328 H 0.45968 0.47467 0.58179 0.0
H329 H 0.45748 0.44381 0.57532 0.0
H330 H 0.58049 0.54923 0.59413 0.0
H331 H 0.55281 0.55143 0.60218 0.0
H332 H 0.56266 0.53158 0.61485 0.0
H333 H 0.50366 0.48166 0.71281 0.0
H334 H 0.4726 0.5343 0.68382 0.0
H335 H 0.46816 0.54521 0.6522 0.0
H336 H 0.48901 0.52591 0.59113 0.0
H337 H 0.52396 0.47659 0.62034 0.0
H338 H 0.52727 0.46462 0.65199 0.0
H339 H 0.42839 0.6248 0.6278 0.0
H340 H 0.41368 0.6089 0.64993 0.0
H341 H 0.44421 0.61213 0.64256 0.0
C342 C 0.16852 0.57388 0.9009 0.0
C343 C 0.1731 0.56842 0.88061 0.0
C344 C 0.12803 0.53639 0.86958 0.0
C345 C 0.12001 0.55502 0.86732 0.0
C346 C 0.09413 0.54674 0.8619 0.0
C347 C 0.07576 0.51931 0.85891 0.0
C348 C 0.08365 0.50049 0.8613 0.0
C349 C 0.10979 0.50936 0.86643 0.0
C350 C 0.08635 0.56734 0.8594 0.0
C351 C 0.06445 0.47103 0.8585 0.0
C352 C 0.91066 0.50279 0.92098 0.0
C353 C 0.92581 0.49291 0.9325 0.0
C354 C 0.94952 0.48291 0.90844 0.0
C355 C 0.95052 0.46215 0.89964 0.0
C356 C 0.96883 0.46718 0.88543 0.0
C357 C 0.98632 0.49375 0.87965 0.0
C358 C 0.9858 0.515 0.8887 0.0
C359 C 0.96751 0.5094 0.90313 0.0
C360 C 0.96919 0.44401 0.87642 0.0
C361 C 0.00431 0.54357 0.88294 0.0
C362 C 0.88732 0.45313 0.78295 0.0
C363 C 0.8951 0.43451 0.78582 0.0
C364 C 0.92185 0.44261 0.78611 0.0
C365 C 0.94112 0.46986 0.78342 0.0
C366 C 0.93321 0.48819 0.7789 0.0
C367 C 0.90626 0.47948 0.77857 0.0
C368 C 0.92957 0.42236 0.7904 0.0
C369 C 0.95326 0.51726 0.77562 0.0
C370 C 0.1265 0.49363 0.73094 0.0
C371 C 0.11091 0.50732 0.72722 0.0
C372 C 0.06562 0.48875 0.73761 0.0
C373 C 0.04531 0.46477 0.74488 0.0
C374 C 0.02705 0.46443 0.75755 0.0
C375 C 0.02885 0.48871 0.76258 0.0
C376 C 0.04813 0.51283 0.75406 0.0
C377 C 0.06648 0.51263 0.74173 0.0
C378 C 0.00646 0.43826 0.76607 0.0
C379 C 0.04991 0.5389 0.7585 0.0
C380 C 0.04824 0.51039 0.85351 0.0
C381 C 0.03058 0.50676 0.86783 0.0
C382 C 0.00455 0.49909 0.86374 0.0
C383 C 0.99586 0.49529 0.84484 0.0
C384 C 0.97006 0.48847 0.8402 0.0
C385 C 0.96137 0.48375 0.82165 0.0
C386 C 0.97811 0.48558 0.80698 0.0
C387 C 0.96905 0.47966 0.78816 0.0
C388 C 0.98613 0.48155 0.7739 0.0
C389 C 0.01219 0.48909 0.77798 0.0
C390 C 0.02162 0.49517 0.79673 0.0
C391 C 0.04769 0.50279 0.80137 0.0
C392 C 0.05662 0.5083 0.81988 0.0
C393 C 0.03965 0.50575 0.83456 0.0
C394 C 0.01336 0.4982 0.83023 0.0
C395 C 0.00442 0.49318 0.81128 0.0
C396 C 0.83733 0.44633 0.81145 0.0
C397 C 0.84523 0.43018 0.79909 0.0
O398 O 0.1529 0.54344 0.87485 0.0
O399 O 0.08424 0.48822 0.7269 0.0
O400 O 0.86187 0.44641 0.78497 0.0
O401 O 0.93068 0.47621 0.92172 0.0
H402 H 0.17399 0.584 0.87121 0.0
H403 H 0.14973 0.57363 0.90198 0.0
H404 H 0.16754 0.55846 0.9105 0.0
H405 H 0.18474 0.59384 0.90558 0.0
H406 H 0.13368 0.57603 0.86976 0.0
H407 H 0.11608 0.49512 0.86822 0.0
H408 H 0.07131 0.5641 0.87003 0.0
H409 H 0.10338 0.58806 0.86092 0.0
H410 H 0.07735 0.56513 0.8453 0.0
H411 H 0.07324 0.45883 0.8621 0.0
H412 H 0.04673 0.46448 0.86734 0.0
H413 H 0.05784 0.46709 0.84362 0.0
H414 H 0.94478 0.5103 0.93748 0.0
H415 H 0.9064 0.51578 0.9298 0.0
H416 H 0.92243 0.51461 0.90874 0.0
H417 H 0.89177 0.48569 0.91568 0.0
H418 H 0.93669 0.44181 0.90392 0.0
H419 H 0.96724 0.52576 0.90994 0.0
H420 H 0.98967 0.44812 0.8758 0.0
H421 H 0.95676 0.42507 0.88415 0.0
H422 H 0.9617 0.44132 0.86178 0.0
H423 H 0.0003 0.5577 0.89049 0.0
H424 H 0.02493 0.54915 0.8859 0.0
H425 H 0.00262 0.54573 0.86757 0.0
H426 H 0.85556 0.42351 0.80869 0.0
H427 H 0.88029 0.4138 0.78835 0.0
H428 H 0.89996 0.49356 0.77596 0.0
H429 H 0.9383 0.42611 0.80472 0.0
H430 H 0.91243 0.40158 0.78978 0.0
H431 H 0.94474 0.42436 0.78032 0.0
H432 H 0.944 0.52851 0.77069 0.0
H433 H 0.96409 0.52644 0.78891 0.0
H434 H 0.9679 0.51923 0.76504 0.0
H435 H 0.11563 0.52161 0.73908 0.0
H436 H 0.14799 0.50858 0.73122 0.0
H437 H 0.12085 0.48351 0.7448 0.0
H438 H 0.12239 0.47845 0.71994 0.0
H439 H 0.04455 0.4464 0.74127 0.0
H440 H 0.08161 0.53111 0.73547 0.0
H441 H 0.00797 0.43953 0.78165 0.0
H442 H 0.98654 0.43404 0.76215 0.0
H443 H 0.00843 0.42131 0.76129 0.0
H444 H 0.06326 0.55501 0.74871 0.0
H445 H 0.03006 0.53642 0.7578 0.0
H446 H 0.0575 0.54517 0.77304 0.0
H447 H 0.03715 0.50976 0.88236 0.0
H448 H 0.95622 0.48657 0.85088 0.0
H449 H 0.94124 0.47843 0.81902 0.0
H450 H 0.97889 0.47652 0.75956 0.0
H451 H 0.06156 0.5046 0.79075 0.0
H452 H 0.0769 0.51419 0.82256 0.0
H453 H 0.82328 0.43342 0.82248 0.0
H454 H 0.85511 0.46279 0.81848 0.0
H455 H 0.82812 0.45525 0.80296 0.0
C456 C 0.44699 0.85365 0.91338 0.0
C457 C 0.45315 0.84849 0.93333 0.0
C458 C 0.48594 0.894 0.9438 0.0
C459 C 0.468 0.90246 0.94711 0.0
C460 C 0.4769 0.92901 0.95201 0.0
C461 C 0.50427 0.94761 0.9534 0.0
C462 C 0.5224 0.93923 0.95013 0.0
C463 C 0.51294 0.91242 0.94557 0.0
C464 C 0.45702 0.93727 0.95551 0.0
C465 C 0.55173 0.95865 0.95126 0.0
C466 C 0.50729 0.04054 0.85122 0.0
C467 C 0.53188 0.06235 0.86146 0.0
C468 C 0.52524 0.05939 0.89518 0.0
C469 C 0.54777 0.05962 0.90149 0.0
C470 C 0.54751 0.04744 0.91851 0.0
C471 C 0.52426 0.03487 0.92943 0.0
C472 C 0.50197 0.03586 0.92356 0.0
C473 C 0.50288 0.04844 0.90654 0.0
C474 C 0.57184 0.04734 0.92459 0.0
C475 C 0.47694 0.02284 0.93492 0.0
C476 C 0.56526 0.14134 0.02785 0.0
C477 C 0.58444 0.13606 0.02144 0.0
C478 C 0.57887 0.10975 0.01999 0.0
C479 C 0.55332 0.08835 0.02452 0.0
C480 C 0.53438 0.09375 0.03182 0.0
C481 C 0.54081 0.12031 0.03369 0.0
C482 C 0.60003 0.10483 0.0131 0.0
C483 C 0.50706 0.07149 0.03699 0.0
C484 C 0.54577 0.91826 0.09002 0.0
C485 C 0.52507 0.92638 0.09029 0.0
C486 C 0.53755 0.96967 0.07755 0.0
C487 C 0.5614 0.99017 0.07042 0.0
C488 C 0.56188 0.0061 0.05554 0.0
C489 C 0.53782 0.00194 0.04817 0.0
C490 C 0.51361 0.9821 0.05613 0.0
C491 C 0.51375 0.96584 0.07056 0.0
C492 C 0.58808 0.02702 0.0475 0.0
C493 C 0.48761 0.97788 0.04933 0.0
C494 C 0.51377 0.97596 0.95776 0.0
C495 C 0.51537 0.99233 0.94295 0.0
C496 C 0.52262 0.01883 0.94608 0.0
C497 C 0.52827 0.02936 0.96455 0.0
C498 C 0.53493 0.05568 0.96828 0.0
C499 C 0.54031 0.06578 0.98652 0.0
C500 C 0.53979 0.05014 0.00171 0.0
C501 C 0.54582 0.06046 0.02026 0.0
C502 C 0.54479 0.04426 0.03504 0.0
C503 C 0.53804 0.01789 0.03185 0.0
C504 C 0.53215 0.00729 0.01336 0.0
C505 C 0.52554 0.98096 0.00956 0.0
C506 C 0.51925 0.97055 0.99141 0.0
C507 C 0.52002 0.9863 0.97626 0.0
C508 C 0.52714 0.01306 0.97968 0.0
C509 C 0.53302 0.0235 0.99827 0.0
C510 C 0.569 0.20057 0.0109 0.0
C511 C 0.58353 0.18586 0.01491 0.0
O512 O 0.47822 0.86854 0.93873 0.0
O513 O 0.53794 0.95397 0.09133 0.0
O514 O 0.5696 0.16644 0.02832 0.0
O515 O 0.52448 0.06913 0.87804 0.0
H516 H 0.43834 0.84771 0.94328 0.0
H517 H 0.44746 0.87281 0.91284 0.0
H518 H 0.4617 0.85462 0.90325 0.0
H519 H 0.427 0.83749 0.90897 0.0
H520 H 0.44702 0.88863 0.94587 0.0
H521 H 0.52665 0.90578 0.94301 0.0
H522 H 0.45885 0.95146 0.94445 0.0
H523 H 0.43644 0.92 0.95546 0.0
H524 H 0.46103 0.94772 0.96926 0.0
H525 H 0.56325 0.94924 0.94748 0.0
H526 H 0.55735 0.97571 0.94168 0.0
H527 H 0.5572 0.9668 0.96576 0.0
H528 H 0.54413 0.0534 0.86437 0.0
H529 H 0.51269 0.03612 0.83731 0.0
H530 H 0.49801 0.02195 0.85968 0.0
H531 H 0.49248 0.0465 0.84923 0.0
H532 H 0.56545 0.06908 0.893 0.0
H533 H 0.48573 0.04875 0.90165 0.0
H534 H 0.57708 0.0547 0.93929 0.0
H535 H 0.56776 0.02659 0.92425 0.0
H536 H 0.589 0.0599 0.91539 0.0
H537 H 0.4616 0.02605 0.92873 0.0
H538 H 0.46897 0.00105 0.93581 0.0
H539 H 0.4812 0.03089 0.94949 0.0
H540 H 0.584 0.17636 0.00142 0.0
H541 H 0.60371 0.15245 0.01748 0.0
H542 H 0.52633 0.12472 0.03891 0.0
H543 H 0.59582 0.09778 0.99829 0.0
H544 H 0.61989 0.12321 0.01369 0.0
H545 H 0.60027 0.08908 0.02159 0.0
H546 H 0.49422 0.07905 0.04159 0.0
H547 H 0.49766 0.05794 0.02477 0.0
H548 H 0.50835 0.05954 0.04856 0.0
H549 H 0.51348 0.91898 0.07697 0.0
H550 H 0.53622 0.89628 0.08849 0.0
H551 H 0.55923 0.9278 0.07791 0.0
H552 H 0.55763 0.92473 0.10319 0.0
H553 H 0.57965 0.99308 0.07615 0.0
H554 H 0.49536 0.95029 0.07652 0.0
H555 H 0.58799 0.02477 0.03199 0.0
H556 H 0.59145 0.04716 0.05052 0.0
H557 H 0.60476 0.02586 0.0535 0.0
H558 H 0.47126 0.96526 0.05913 0.0
H559 H 0.48882 0.99732 0.04763 0.0
H560 H 0.48277 0.96787 0.03539 0.0
H561 H 0.51069 0.98425 0.92877 0.0
H562 H 0.53587 0.0687 0.95713 0.0
H563 H 0.54499 0.0861 0.98852 0.0
H564 H 0.54942 0.05233 0.04921 0.0
H565 H 0.52498 0.96798 0.02058 0.0
H566 H 0.51399 0.95005 0.98939 0.0
H567 H 0.56762 0.21041 0.02386 0.0
H568 H 0.57942 0.21592 -0.00012 0.0
H569 H 0.54873 0.1862 0.0058 0.0
C570 C 0.6178 0.47056 0.07704 0.0
C571 C 0.61709 0.45859 0.09632 0.0
C572 C 0.60159 0.48184 0.11616 0.0
C573 C 0.57458 0.46237 0.11667 0.0
C574 C 0.55598 0.46907 0.12206 0.0
C575 C 0.56454 0.49579 0.12688 0.0
C576 C 0.59178 0.51531 0.12679 0.0
C577 C 0.60998 0.50792 0.12172 0.0
C578 C 0.52714 0.44766 0.12245 0.0
C579 C 0.60164 0.54409 0.13161 0.0
C580 C 0.42163 0.51952 0.06258 0.0
C581 C 0.44427 0.52454 0.04948 0.0
C582 C 0.47973 0.53344 0.07197 0.0
C583 C 0.50357 0.55361 0.07955 0.0
C584 C 0.51597 0.54845 0.09429 0.0
C585 C 0.504 0.52238 0.10174 0.0
C586 C 0.4803 0.5016 0.09375 0.0
C587 C 0.46843 0.50729 0.07886 0.0
C588 C 0.54152 0.57097 0.10223 0.0
C589 C 0.46726 0.47353 0.10126 0.0
C590 C 0.46413 0.59058 0.19535 0.0
C591 C 0.4914 0.60227 0.19304 0.0
C592 C 0.50289 0.58656 0.19276 0.0
C593 C 0.48679 0.55861 0.19512 0.0
C594 C 0.45957 0.54698 0.1987 0.0
C595 C 0.44858 0.56322 0.19889 0.0
C596 C 0.53213 0.59975 0.18932 0.0
C597 C 0.44199 0.51732 0.20151 0.0
C598 C 0.61641 0.51749 0.26487 0.0
C599 C 0.58756 0.49475 0.26481 0.0
C600 C 0.55955 0.50968 0.25272 0.0
C601 C 0.56993 0.53557 0.246 0.0
C602 C 0.55851 0.54052 0.23045 0.0
C603 C 0.53577 0.51904 0.22188 0.0
C604 C 0.52467 0.49292 0.22921 0.0
C605 C 0.53695 0.4885 0.24447 0.0
C606 C 0.57093 0.56864 0.22313 0.0
C607 C 0.50004 0.46966 0.22084 0.0
C608 C 0.54497 0.50362 0.13105 0.0
C609 C 0.53291 0.50817 0.1158 0.0
C610 C 0.51555 0.51723 0.11852 0.0
C611 C 0.51019 0.52226 0.13692 0.0
C612 C 0.49357 0.53235 0.14009 0.0
C613 C 0.48951 0.53855 0.15815 0.0
C614 C 0.50136 0.53426 0.17379 0.0
C615 C 0.4983 0.54166 0.1921 0.0
C616 C 0.50907 0.53578 0.2075 0.0
C617 C 0.52404 0.5238 0.205 0.0
C618 C 0.52878 0.51789 0.18664 0.0
C619 C 0.54526 0.50761 0.18346 0.0
C620 C 0.55037 0.50261 0.16529 0.0
C621 C 0.53919 0.50769 0.1496 0.0
C622 C 0.52202 0.51742 0.15251 0.0
C623 C 0.51715 0.52291 0.17101 0.0
C624 C 0.44024 0.61041 0.16313 0.0
C625 C 0.45756 0.62406 0.18043 0.0
O626 O 0.62011 0.47632 0.11045 0.0
O627 O 0.57153 0.50524 0.2672 0.0
O628 O 0.45232 0.60513 0.19414 0.0
O629 O 0.46838 0.54038 0.05831 0.0
H630 H 0.59789 0.43962 0.09771 0.0
H631 H 0.60104 0.47386 0.07569 0.0
H632 H 0.63647 0.49 0.07523 0.0
H633 H 0.61605 0.45672 0.06564 0.0
H634 H 0.56779 0.44186 0.11314 0.0
H635 H 0.63087 0.52273 0.12148 0.0
H636 H 0.5166 0.45136 0.11107 0.0
H637 H 0.52393 0.42737 0.12046 0.0
H638 H 0.51827 0.4483 0.13603 0.0
H639 H 0.62323 0.55716 0.12947 0.0
H640 H 0.59136 0.5516 0.12283 0.0
H641 H 0.59718 0.54565 0.14653 0.0
H642 H 0.44203 0.50515 0.04533 0.0
H643 H 0.4024 0.5074 0.05523 0.0
H644 H 0.42135 0.50841 0.07527 0.0
H645 H 0.42381 0.53869 0.06719 0.0
H646 H 0.51225 0.57365 0.07401 0.0
H647 H 0.45022 0.49131 0.07294 0.0
H648 H 0.55649 0.56502 0.10282 0.0
H649 H 0.54946 0.58948 0.09379 0.0
H650 H 0.53829 0.57539 0.11683 0.0
H651 H 0.44887 0.45954 0.09352 0.0
H652 H 0.48108 0.46615 0.10025 0.0
H653 H 0.46248 0.47344 0.11636 0.0
H654 H 0.47836 0.63392 0.17568 0.0
H655 H 0.50381 0.62365 0.19138 0.0
H656 H 0.42761 0.55447 0.20106 0.0
H657 H 0.53546 0.59321 0.17548 0.0
H658 H 0.54224 0.62187 0.18936 0.0
H659 H 0.54128 0.59359 0.20023 0.0
H660 H 0.4215 0.51151 0.20516 0.0
H661 H 0.44154 0.5067 0.18844 0.0
H662 H 0.45008 0.51063 0.21288 0.0
H663 H 0.5833 0.48418 0.251 0.0
H664 H 0.62966 0.50957 0.26273 0.0
H665 H 0.61985 0.53158 0.25327 0.0
H666 H 0.62151 0.52859 0.27842 0.0
H667 H 0.58734 0.55176 0.2527 0.0
H668 H 0.52903 0.46858 0.25002 0.0
H669 H 0.57316 0.56893 0.20761 0.0
H670 H 0.5579 0.57647 0.2264 0.0
H671 H 0.59057 0.58221 0.22955 0.0
H672 H 0.49183 0.45161 0.22982 0.0
H673 H 0.48475 0.47496 0.21878 0.0
H674 H 0.50464 0.4647 0.20684 0.0
H675 H 0.53744 0.50504 0.10159 0.0
H676 H 0.48387 0.53603 0.12861 0.0
H677 H 0.47689 0.54671 0.15968 0.0
H678 H 0.50652 0.54142 0.22152 0.0
H679 H 0.55469 0.50361 0.19496 0.0
H680 H 0.56333 0.49486 0.16367 0.0
H681 H 0.44376 0.62544 0.15222 0.0
H682 H 0.44513 0.59603 0.15705 0.0
H683 H 0.41902 0.59933 0.16694 0.0
Co684 Co 0.62265 0.38446 0.40287 0.0
O685 O 0.6442 0.37941 0.38535 0.0
O686 O 0.6561 0.41746 0.39997 0.0
C687 C 0.61066 0.3474 0.41952 0.0
O688 O 0.60623 0.39673 0.42261 0.0
Co689 Co 0.56302 0.34503 0.40446 0.0
O690 O 0.56599 0.36199 0.42919 0.0
C691 C 0.58437 0.384 0.37385 0.0
C692 C 0.66212 0.40416 0.38844 0.0
C693 C 0.58546 0.38518 0.43293 0.0
O694 O 0.60716 0.3945 0.38165 0.0
O695 O 0.5639 0.36318 0.38023 0.0
O696 O 0.63291 0.36931 0.42273 0.0
O697 O 0.59716 0.34777 0.40527 0.0
Co698 Co 0.23645 0.61772 0.57967 0.0
O699 O 0.26113 0.61977 0.59809 0.0
O700 O 0.23911 0.5862 0.57811 0.0
C701 C 0.26261 0.6595 0.56893 0.0
O702 O 0.21041 0.60915 0.55823 0.0
Co703 Co 0.21322 0.65395 0.58197 0.0
O704 O 0.20246 0.64251 0.55555 0.0
C705 C 0.19477 0.60895 0.60825 0.0
C706 C 0.25653 0.59708 0.59151 0.0
C707 C 0.20093 0.62139 0.54927 0.0
O708 O 0.20732 0.60039 0.5987 0.0
O709 O 0.19612 0.63104 0.6047 0.0
O710 O 0.26506 0.64005 0.56272 0.0
O711 O 0.24572 0.65354 0.58232 0.0
Co712 Co 0.63229 0.25038 0.73987 0.0
O713 O 0.63505 0.27795 0.72379 0.0
O714 O 0.59996 0.25096 0.74079 0.0
C715 C 0.67182 0.27633 0.7538 0.0
O716 O 0.62259 0.22055 0.75873 0.0
Co717 Co 0.67016 0.22994 0.73584 0.0
O718 O 0.65399 0.21006 0.75931 0.0
C719 C 0.62829 0.21402 0.7077 0.0
C720 C 0.61151 0.271 0.72926 0.0
C721 C 0.63285 0.2077 0.76568 0.0
O722 O 0.61843 0.22458 0.71814 0.0
O723 O 0.65015 0.2156 0.71155 0.0
O724 O 0.65102 0.27619 0.75958 0.0
O725 O 0.66862 0.26212 0.73892 0.0
Co726 Co 0.39738 0.62053 0.90424 0.0
O727 O 0.37464 0.62373 0.88651 0.0
O728 O 0.36217 0.58983 0.90599 0.0
C729 C 0.41588 0.66245 0.91551 0.0
O730 O 0.41407 0.61037 0.92498 0.0
Co731 Co 0.45773 0.65432 0.90203 0.0
O732 O 0.45736 0.64012 0.92739 0.0
C733 C 0.42848 0.60928 0.8757 0.0
C734 C 0.3558 0.60124 0.89313 0.0
C735 C 0.43636 0.6198 0.93341 0.0
O736 O 0.4071 0.6023 0.8847 0.0
O737 O 0.45047 0.63051 0.87959 0.0
O738 O 0.39338 0.6435 0.92182 0.0
O739 O 0.42586 0.65601 0.90179 0.0
Co740 Co 0.77391 0.38683 0.07321 0.0
O741 O 0.74683 0.38257 0.09024 0.0
O742 O 0.77265 0.41905 0.07382 0.0
C743 C 0.74864 0.34737 0.05854 0.0
O744 O 0.80273 0.3988 0.05357 0.0
Co745 Co 0.79645 0.35035 0.07278 0.0
O746 O 0.81186 0.3668 0.0482 0.0
C747 C 0.81503 0.39253 0.10159 0.0
C748 C 0.75312 0.40653 0.08545 0.0
C749 C 0.81411 0.38898 0.04403 0.0
O750 O 0.80038 0.40038 0.0943 0.0
O751 O 0.81586 0.37242 0.09549 0.0
O752 O 0.74786 0.36829 0.05373 0.0
O753 O 0.76356 0.35028 0.07282 0.0
Co754 Co 0.39772 0.787 0.23169 0.0
O755 O 0.39154 0.75891 0.21462 0.0
O756 O 0.4268 0.78085 0.23283 0.0
C757 C 0.35685 0.76462 0.24393 0.0
O758 O 0.41027 0.81592 0.25188 0.0
Co759 Co 0.36726 0.81586 0.22896 0.0
O760 O 0.37958 0.82703 0.25514 0.0
C761 C 0.40997 0.82942 0.20205 0.0
C762 C 0.41361 0.76195 0.22056 0.0
C763 C 0.39998 0.82728 0.261 0.0
O764 O 0.41564 0.81405 0.2111 0.0
O765 O 0.39054 0.83212 0.20637 0.0
O766 O 0.37528 0.76091 0.25017 0.0
O767 O 0.36316 0.78071 0.2298 0.0
H768 H 0.18544 0.65965 0.25265 0.0
H769 H 0.22164 0.61435 0.26708 0.0
H770 H 0.22881 0.70047 0.25183 0.0
H771 H 0.265 0.65484 0.2657 0.0
H772 H 0.31226 0.75616 0.22615 0.0
H773 H 0.2672 0.72016 0.23214 0.0
H774 H 0.29399 0.69678 0.28089 0.0
H775 H 0.33912 0.73226 0.27451 0.0
C776 C 0.20268 0.65852 0.25587 0.0
C777 C 0.20016 0.63392 0.26033 0.0
C778 C 0.22753 0.68183 0.25525 0.0
C779 C 0.2504 0.68101 0.25884 0.0
C780 C 0.2478 0.65637 0.26332 0.0
C781 C 0.22298 0.63311 0.26401 0.0
C782 C 0.30842 0.74366 0.23836 0.0
C783 C 0.32922 0.74674 0.2497 0.0
C784 C 0.28257 0.72304 0.24183 0.0
C785 C 0.27703 0.70526 0.25682 0.0
C786 C 0.29766 0.70968 0.26895 0.0
C787 C 0.32349 0.73014 0.26539 0.0
H788 H 0.62924 0.22344 0.46401 0.0
H789 H 0.54769 0.19385 0.47733 0.0
H790 H 0.63253 0.26264 0.44929 0.0
H791 H 0.55094 0.23313 0.46239 0.0
H792 H 0.56787 0.29685 0.41421 0.0
H793 H 0.56011 0.2557 0.42924 0.0
H794 H 0.63027 0.30175 0.46294 0.0
H795 H 0.63797 0.34251 0.44818 0.0
C796 C 0.61202 0.22532 0.4637 0.0
C797 C 0.58829 0.20578 0.47192 0.0
C798 C 0.61389 0.24772 0.45534 0.0
C799 C 0.59203 0.25095 0.45489 0.0
C800 C 0.56803 0.23103 0.46254 0.0
C801 C 0.56622 0.20868 0.47111 0.0
C802 C 0.58138 0.29812 0.425 0.0
C803 C 0.60367 0.32282 0.42987 0.0
C804 C 0.57694 0.27465 0.43359 0.0
C805 C 0.59486 0.27561 0.44699 0.0
C806 C 0.61644 0.30043 0.45238 0.0
C807 C 0.62074 0.32377 0.44398 0.0
H808 H 0.36408 0.55911 0.64767 0.0
H809 H 0.39588 0.59331 0.59336 0.0
H810 H 0.32251 0.55592 0.63928 0.0
H811 H 0.35423 0.58971 0.58491 0.0
H812 H 0.26982 0.5659 0.57153 0.0
H813 H 0.30394 0.55588 0.57985 0.0
H814 H 0.31412 0.5942 0.63374 0.0
H815 H 0.28053 0.60456 0.62534 0.0
C816 C 0.36192 0.5653 0.63378 0.0
C817 C 0.38309 0.57609 0.62109 0.0
C818 C 0.33821 0.56354 0.62902 0.0
C819 C 0.33514 0.57241 0.61142 0.0
C820 C 0.35592 0.58228 0.59844 0.0
C821 C 0.37978 0.58439 0.6033 0.0
C822 C 0.2789 0.57154 0.58532 0.0
C823 C 0.2727 0.58611 0.59777 0.0
C824 C 0.2985 0.56598 0.59001 0.0
C825 C 0.31171 0.5744 0.60738 0.0
C826 C 0.30413 0.58732 0.62031 0.0
C827 C 0.28498 0.59332 0.61548 0.0
H828 H 0.80828 0.42898 0.77503 0.0
H829 H 0.82857 0.37717 0.80375 0.0
H830 H 0.76719 0.38997 0.76402 0.0
H831 H 0.78774 0.33809 0.79217 0.0
H832 H 0.71947 0.28102 0.74618 0.0
H833 H 0.76332 0.31741 0.75625 0.0
H834 H 0.72709 0.3532 0.78741 0.0
H835 H 0.68364 0.31695 0.77793 0.0
C836 C 0.80404 0.40927 0.77885 0.0
C837 C 0.8213 0.4061 0.7906 0.0
C838 C 0.78066 0.38703 0.77251 0.0
C839 C 0.77441 0.36121 0.7774 0.0
C840 C 0.79226 0.35787 0.78823 0.0
C841 C 0.81547 0.38018 0.79489 0.0
C842 C 0.72093 0.29648 0.75539 0.0
C843 C 0.69815 0.2962 0.7612 0.0
C844 C 0.74592 0.31721 0.76111 0.0
C845 C 0.74836 0.33811 0.77236 0.0
C846 C 0.72561 0.3374 0.77855 0.0
C847 C 0.70077 0.31655 0.77318 0.0
H848 H 0.40987 0.80026 0.94158 0.0
H849 H 0.4913 0.83617 0.92517 0.0
H850 H 0.40442 0.75624 0.93966 0.0
H851 H 0.48625 0.79208 0.92395 0.0
H852 H 0.45341 0.70755 0.89782 0.0
H853 H 0.46526 0.75327 0.90444 0.0
H854 H 0.41515 0.72622 0.95347 0.0
H855 H 0.40255 0.68041 0.94634 0.0
C856 C 0.42678 0.79872 0.93802 0.0
C857 C 0.45111 0.82167 0.93391 0.0
C858 C 0.42374 0.7735 0.93702 0.0
C859 C 0.44497 0.77056 0.93183 0.0
C860 C 0.46945 0.79359 0.9279 0.0
C861 C 0.47244 0.81886 0.92878 0.0
C862 C 0.4453 0.71147 0.91018 0.0
C863 C 0.42676 0.69041 0.9214 0.0
C864 C 0.45217 0.73771 0.91404 0.0
C865 C 0.44083 0.74342 0.92933 0.0
C866 C 0.42372 0.72247 0.9413 0.0
C867 C 0.41664 0.69623 0.9373 0.0
H868 H 0.61271 0.40994 0.09312 0.0
H869 H 0.67039 0.49337 0.10183 0.0
H870 H 0.64756 0.39969 0.09348 0.0
H871 H 0.7055 0.48309 0.10245 0.0
H872 H 0.711 0.38421 0.1091 0.0
H873 H 0.67973 0.39864 0.11452 0.0
H874 H 0.72644 0.46783 0.07976 0.0
H875 H 0.75802 0.45362 0.07458 0.0
C876 C 0.63284 0.42602 0.09543 0.0
C877 C 0.6388 0.45238 0.09773 0.0
C878 C 0.65281 0.42016 0.09573 0.0
C879 C 0.67927 0.44055 0.0982 0.0
C880 C 0.68529 0.46697 0.1005 0.0
C881 C 0.66524 0.47283 0.10026 0.0
C882 C 0.71487 0.40276 0.10289 0.0
C883 C 0.7368 0.41763 0.09123 0.0
C884 C 0.69686 0.41093 0.1059 0.0
C885 C 0.70039 0.43413 0.09732 0.0
C886 C 0.72321 0.4499 0.08663 0.0
C887 C 0.74126 0.44172 0.08361 0.0
H888 H 0.41082 0.7987 0.54552 0.0
H889 H 0.36255 0.83265 0.55612 0.0
H890 H 0.37203 0.75401 0.54773 0.0
H891 H 0.32348 0.78793 0.55768 0.0
H892 H 0.26998 0.70509 0.58526 0.0
H893 H 0.30508 0.75069 0.57871 0.0
H894 H 0.33147 0.7222 0.53262 0.0
H895 H 0.29689 0.67654 0.53961 0.0
C896 C 0.39178 0.79654 0.5479 0.0
C897 C 0.38963 0.81912 0.55027 0.0
C898 C 0.36951 0.77096 0.54908 0.0
C899 C 0.34457 0.76736 0.55273 0.0
C900 C 0.3424 0.78999 0.55496 0.0
C901 C 0.36472 0.81559 0.55388 0.0
C902 C 0.28304 0.70864 0.57356 0.0
C903 C 0.28094 0.68727 0.5631 0.0
C904 C 0.30312 0.73479 0.56974 0.0
C905 C 0.32133 0.74008 0.55528 0.0
C906 C 0.31816 0.71876 0.54412 0.0
C907 C 0.29823 0.69262 0.54804 0.0
H908 H 0.53153 0.3616 0.7201 0.0
H909 H 0.61484 0.41515 0.71113 0.0
H910 H 0.53817 0.32372 0.72073 0.0
H911 H 0.62165 0.37765 0.7122 0.0
H912 H 0.57102 0.27264 0.74626 0.0
H913 H 0.55824 0.30564 0.74104 0.0
H914 H 0.61323 0.33861 0.69492 0.0
H915 H 0.62646 0.30625 0.70051 0.0
C916 C 0.55119 0.36518 0.71804 0.0
C917 C 0.57261 0.39124 0.71514 0.0
C918 C 0.55503 0.34356 0.71855 0.0
C919 C 0.58039 0.3476 0.71631 0.0
C920 C 0.60175 0.3737 0.71349 0.0
C921 C 0.59791 0.39524 0.71296 0.0
C922 C 0.57995 0.28662 0.73479 0.0
C923 C 0.59998 0.28715 0.72397 0.0
C924 C 0.57261 0.3055 0.73176 0.0
C925 C 0.58508 0.32509 0.71778 0.0
C926 C 0.60374 0.32426 0.70612 0.0
C927 C 0.6112 0.30559 0.70924 0.0
H928 H 0.22101 0.61198 0.87243 0.0
H929 H 0.18439 0.52877 0.88703 0.0
H930 H 0.26407 0.61636 0.87295 0.0
H931 H 0.22747 0.53278 0.88686 0.0
H932 H 0.33762 0.61639 0.86339 0.0
H933 H 0.29246 0.60497 0.85755 0.0
H934 H 0.26648 0.55259 0.9057 0.0
H935 H 0.31149 0.56327 0.91104 0.0
C936 C 0.22217 0.59447 0.8753 0.0
C937 C 0.1993 0.56995 0.8793 0.0
C938 C 0.24683 0.5969 0.8755 0.0
C939 C 0.24928 0.57484 0.87975 0.0
C940 C 0.22634 0.55019 0.8836 0.0
C941 C 0.20163 0.54782 0.88353 0.0
C942 C 0.32216 0.60203 0.87249 0.0
C943 C 0.3281 0.59093 0.88779 0.0
C944 C 0.2963 0.59564 0.86924 0.0
C945 C 0.27587 0.57825 0.88136 0.0
C946 C 0.28164 0.56592 0.89599 0.0
C947 C 0.30749 0.57211 0.89911 0.0
H948 H 0.60139 0.20437 0.0509 0.0
H949 H 0.62786 0.2125 0.99349 0.0
H950 H 0.64516 0.24046 0.06042 0.0
H951 H 0.67167 0.24871 0.00299 0.0
H952 H 0.72295 0.33726 0.02517 0.0
H953 H 0.68595 0.29488 0.01419 0.0
H954 H 0.69375 0.25551 0.06284 0.0
H955 H 0.73108 0.29815 0.07384 0.0
C956 C 0.61678 0.21342 0.04042 0.0
C957 C 0.61135 0.20544 0.02148 0.0
C958 C 0.64184 0.23402 0.04587 0.0
C959 C 0.66183 0.24735 0.03244 0.0
C960 C 0.65662 0.23882 0.01361 0.0
C961 C 0.63163 0.21808 0.0082 0.0
C962 C 0.71715 0.31946 0.03332 0.0
C963 C 0.72972 0.32101 0.05042 0.0
C964 C 0.69603 0.29516 0.02698 0.0
C965 C 0.68686 0.27193 0.03774 0.0
C966 C 0.70032 0.27318 0.05437 0.0
C967 C 0.72175 0.29751 0.06059 0.0
H968 H 0.49057 0.67855 0.17992 0.0
H969 H 0.41316 0.61694 0.198 0.0
H970 H 0.48132 0.7127 0.19026 0.0
H971 H 0.40384 0.65109 0.20824 0.0
H972 H 0.38587 0.71751 0.19902 0.0
H973 H 0.39756 0.68472 0.1906 0.0
H974 H 0.47165 0.73079 0.22008 0.0
H975 H 0.45988 0.76388 0.22867 0.0
C976 C 0.47169 0.67234 0.18628 0.0
C977 C 0.45254 0.6451 0.18813 0.0
C978 C 0.46645 0.69187 0.19225 0.0
C979 C 0.44183 0.68452 0.19994 0.0
C980 C 0.42288 0.6573 0.20215 0.0
C981 C 0.42822 0.63778 0.19637 0.0
C982 C 0.40474 0.72081 0.20366 0.0
C983 C 0.42196 0.74329 0.21454 0.0
C984 C 0.41131 0.70188 0.19895 0.0
C985 C 0.43537 0.70507 0.20485 0.0
C986 C 0.45297 0.72788 0.21534 0.0
C987 C 0.44624 0.74677 0.22025 0.0
H988 H 0.80755 0.41809 0.35529 0.0
H989 H 0.82337 0.49769 0.3452 0.0
H990 H 0.76304 0.40433 0.36555 0.0
H991 H 0.77869 0.48389 0.35528 0.0
H992 H 0.70626 0.45303 0.39551 0.0
H993 H 0.75099 0.46927 0.38416 0.0
H994 H 0.72217 0.39728 0.35125 0.0
H995 H 0.67781 0.38098 0.36269 0.0
C996 C 0.80149 0.43263 0.35536 0.0
C997 C 0.81898 0.45901 0.34968 0.0
C998 C 0.77599 0.42475 0.36108 0.0
C999 C 0.76737 0.44304 0.36117 0.0
C1000 C 0.78488 0.46945 0.35554 0.0
C1001 C 0.81039 0.47731 0.34975 0.0
C1002 C 0.70949 0.44086 0.38569 0.0
C1003 C 0.68859 0.41565 0.38012 0.0
C1004 C 0.73506 0.45016 0.37917 0.0
C1005 C 0.74011 0.43436 0.36702 0.0
C1006 C 0.71899 0.40965 0.36092 0.0
C1007 C 0.69353 0.4004 0.36738 0.0
H1008 H 0.10793 0.58653 0.44708 0.0
H1009 H 0.13546 0.5313 0.44521 0.0
H1010 H 0.13003 0.60364 0.47706 0.0
H1011 H 0.15918 0.54964 0.4747 0.0
H1012 H 0.1778 0.56993 0.53668 0.0
H1013 H 0.15432 0.55155 0.50716 0.0
H1014 H 0.17118 0.62996 0.49094 0.0
H1015 H 0.19336 0.64788 0.52086 0.0
C1016 C 0.11866 0.57796 0.4531 0.0
C1017 C 0.11938 0.55702 0.44399 0.0
C1018 C 0.13171 0.58807 0.47022 0.0
C1019 C 0.14646 0.57806 0.47843 0.0
C1020 C 0.14757 0.55747 0.4691 0.0
C1021 C 0.13412 0.54703 0.45213 0.0
C1022 C 0.17645 0.58319 0.52678 0.0
C1023 C 0.18729 0.61031 0.53113 0.0
C1024 C 0.16311 0.5727 0.50978 0.0
C1025 C 0.16072 0.5892 0.49657 0.0
C1026 C 0.17202 0.61645 0.50087 0.0
C1027 C 0.18492 0.62681 0.51801 0.0
H1028 H 0.49517 0.11797 0.6189 0.0
H1029 H 0.58061 0.13322 0.5887 0.0
H1030 H 0.5255 0.14801 0.65122 0.0
H1031 H 0.6091 0.16313 0.62181 0.0
H1032 H 0.63968 0.18529 0.68297 0.0
H1033 H 0.61508 0.16132 0.65489 0.0
H1034 H 0.55951 0.18659 0.66513 0.0
H1035 H 0.58349 0.20982 0.69336 0.0
C1036 C 0.51641 0.1275 0.61903 0.0
C1037 C 0.53408 0.1184 0.60187 0.0
C1038 C 0.5354 0.14525 0.63948 0.0
C1039 C 0.57041 0.1576 0.64069 0.0
C1040 C 0.58799 0.15438 0.62106 0.0
C1041 C 0.57069 0.13692 0.59998 0.0
C1042 C 0.62218 0.18569 0.67925 0.0
C1043 C 0.61356 0.19944 0.69052 0.0
C1044 C 0.60815 0.17207 0.66306 0.0
C1045 C 0.58526 0.17194 0.65778 0.0
C1046 C 0.5767 0.18573 0.66898 0.0
C1047 C 0.59064 0.19928 0.68515 0.0
H1048 H 0.37737 0.48938 0.77493 0.0
H1049 H 0.47473 0.52166 0.7881 0.0
H1050 H 0.37803 0.52005 0.80692 0.0
H1051 H 0.47311 0.55156 0.81987 0.0
H1052 H 0.46906 0.6168 0.85305 0.0
H1053 H 0.46784 0.58786 0.82804 0.0
H1054 H 0.3853 0.53256 0.83892 0.0
H1055 H 0.38623 0.5618 0.86363 0.0
C1056 C 0.39461 0.49968 0.78386 0.0
C1057 C 0.4274 0.50622 0.7762 0.0
C1058 C 0.39562 0.51983 0.80337 0.0
C1059 C 0.42594 0.5404 0.81636 0.0
C1060 C 0.45565 0.54001 0.81133 0.0
C1061 C 0.45659 0.52051 0.79211 0.0
C1062 C 0.45061 0.59849 0.85012 0.0
C1063 C 0.42774 0.5917 0.86038 0.0
C1064 C 0.44998 0.58175 0.83587 0.0
C1065 C 0.4265 0.55785 0.83155 0.0
C1066 C 0.40362 0.55103 0.84171 0.0
C1067 C 0.40421 0.56776 0.85598 0.0
H1068 H 0.88407 0.44117 0.9338 0.0
H1069 H 0.93032 0.5104 0.969 0.0
H1070 H 0.85763 0.41637 0.96091 0.0
H1071 H 0.90384 0.48552 0.99623 0.0
H1072 H 0.83025 0.44032 0.03418 0.0
H1073 H 0.85755 0.46556 0.00754 0.0
H1074 H 0.86353 0.398 0.99086 0.0
H1075 H 0.83609 0.37259 0.01742 0.0
C1076 C 0.88873 0.45097 0.9474 0.0
C1077 C 0.90963 0.47753 0.94939 0.0
C1078 C 0.87364 0.43677 0.96291 0.0
C1079 C 0.87882 0.44893 0.98071 0.0
C1080 C 0.89936 0.47566 0.98266 0.0
C1081 C 0.9146 0.48984 0.96714 0.0
C1082 C 0.83736 0.4308 0.02485 0.0
C1083 C 0.8309 0.40437 0.02793 0.0
C1084 C 0.85315 0.44535 0.00966 0.0
C1085 C 0.86265 0.43374 0.99712 0.0
C1086 C 0.85626 0.40737 0.0002 0.0
C1087 C 0.84065 0.39287 0.01547 0.0
H1088 H 0.48435 0.87499 0.09272 0.0
H1089 H 0.5247 0.94792 0.12522 0.0
H1090 H 0.45623 0.85185 0.11971 0.0
H1091 H 0.49602 0.92488 0.15197 0.0
H1092 H 0.41704 0.87544 0.18659 0.0
H1093 H 0.44437 0.89977 0.15949 0.0
H1094 H 0.46713 0.84116 0.15343 0.0
H1095 H 0.44031 0.81707 0.18064 0.0
C1096 C 0.48692 0.88613 0.10553 0.0
C1097 C 0.5065 0.91333 0.10672 0.0
C1098 C 0.47095 0.87289 0.12096 0.0
C1099 C 0.47399 0.88664 0.13785 0.0
C1100 C 0.49316 0.91393 0.13901 0.0
C1101 C 0.50952 0.9271 0.12368 0.0
C1102 C 0.4279 0.86778 0.17948 0.0
C1103 C 0.42654 0.84435 0.18576 0.0
C1104 C 0.44359 0.88175 0.16406 0.0
C1105 C 0.45772 0.87224 0.15439 0.0
C1106 C 0.45626 0.84878 0.16058 0.0
C1107 C 0.44103 0.83511 0.17621 0.0
H1108 H 0.5974 0.45425 0.26367 0.0
H1109 H 0.5687 0.49179 0.30101 0.0
H1110 H 0.59418 0.42468 0.28914 0.0
H1111 H 0.5649 0.46177 0.32625 0.0
H1112 H 0.5412 0.38484 0.36099 0.0
H1113 H 0.53914 0.40941 0.33376 0.0
H1114 H 0.62035 0.43667 0.32107 0.0
H1115 H 0.62264 0.41272 0.34829 0.0
C1116 C 0.58993 0.4558 0.2772 0.0
C1117 C 0.58292 0.47503 0.28023 0.0
C1118 C 0.58816 0.43898 0.29174 0.0
C1119 C 0.57912 0.44089 0.30955 0.0
C1120 C 0.57153 0.45966 0.31253 0.0
C1121 C 0.57373 0.47683 0.29808 0.0
C1122 C 0.55849 0.3959 0.35226 0.0
C1123 C 0.5821 0.39698 0.35678 0.0
C1124 C 0.55734 0.41 0.33679 0.0
C1125 C 0.57958 0.42483 0.32537 0.0
C1126 C 0.60288 0.42521 0.32958 0.0
C1127 C 0.60421 0.41164 0.34521 0.0
H1128 H 0.44286 0.9241 0.36264 0.0
H1129 H 0.49214 0.88994 0.36427 0.0
H1130 H 0.42523 0.90293 0.33241 0.0
H1131 H 0.47322 0.86717 0.33451 0.0
H1132 H 0.45088 0.84755 0.27286 0.0
H1133 H 0.47113 0.87167 0.30198 0.0
H1134 H 0.39656 0.86172 0.31889 0.0
H1135 H 0.3769 0.83897 0.28944 0.0
C1136 C 0.45006 0.91216 0.35649 0.0
C1137 C 0.46939 0.90918 0.36568 0.0
C1138 C 0.43963 0.89964 0.33922 0.0
C1139 C 0.44766 0.88317 0.3309 0.0
C1140 C 0.46688 0.88008 0.3402 0.0
C1141 C 0.47765 0.893 0.35732 0.0
C1142 C 0.4389 0.85062 0.28281 0.0
C1143 C 0.41235 0.8415 0.2788 0.0
C1144 C 0.45045 0.86433 0.29959 0.0
C1145 C 0.43558 0.86883 0.31289 0.0
C1146 C 0.40889 0.85931 0.30888 0.0
C1147 C 0.39751 0.84605 0.292 0.0
H1148 H 0.61367 0.48845 0.5301 0.0
H1149 H 0.52927 0.43501 0.52773 0.0
H1150 H 0.61847 0.46711 0.50212 0.0
H1151 H 0.53381 0.41481 0.49929 0.0
H1152 H 0.61576 0.43846 0.44174 0.0
H1153 H 0.61167 0.46128 0.4691 0.0
H1154 H 0.54786 0.38598 0.48974 0.0
H1155 H 0.55124 0.36355 0.46218 0.0
C1156 C 0.59614 0.47252 0.52334 0.0
C1157 C 0.57111 0.46382 0.53093 0.0
C1158 C 0.59884 0.46035 0.50727 0.0
C1159 C 0.57654 0.43922 0.49837 0.0
C1160 C 0.55149 0.43073 0.50589 0.0
C1161 C 0.54883 0.4426 0.5221 0.0
C1162 C 0.60085 0.42684 0.45213 0.0
C1163 C 0.5837 0.39923 0.44969 0.0
C1164 C 0.59858 0.43989 0.46787 0.0
C1165 C 0.57929 0.42555 0.48162 0.0
C1166 C 0.56251 0.39785 0.47926 0.0
C1167 C 0.56456 0.38491 0.46347 0.0
H1168 H 0.09966 0.48663 0.69134 0.0
H1169 H 0.14146 0.56127 0.72168 0.0
H1170 H 0.11668 0.51046 0.66167 0.0
H1171 H 0.15866 0.5851 0.6921 0.0
H1172 H 0.16933 0.62207 0.63436 0.0
H1173 H 0.14572 0.59697 0.66224 0.0
H1174 H 0.16073 0.53469 0.64698 0.0
H1175 H 0.18407 0.5595 0.61904 0.0
C1176 C 0.11222 0.50817 0.6916 0.0
C1177 C 0.11917 0.52215 0.70877 0.0
C1178 C 0.12208 0.52178 0.67467 0.0
C1179 C 0.13905 0.54964 0.67456 0.0
C1180 C 0.14536 0.56367 0.6917 0.0
C1181 C 0.13562 0.55005 0.70863 0.0
C1182 C 0.16739 0.60291 0.63682 0.0
C1183 C 0.17876 0.5929 0.62447 0.0
C1184 C 0.15396 0.5886 0.65286 0.0
C1185 C 0.15144 0.56391 0.65683 0.0
C1186 C 0.16209 0.55353 0.6442 0.0
C1187 C 0.17563 0.56787 0.62823 0.0
H1188 H 0.58486 0.08932 0.85455 0.0
H1189 H 0.51496 0.09177 0.84193 0.0
H1190 H 0.61034 0.12677 0.83355 0.0
H1191 H 0.53992 0.12804 0.81994 0.0
H1192 H 0.59512 0.20493 0.78944 0.0
H1193 H 0.57219 0.1728 0.81454 0.0
H1194 H 0.61585 0.1344 0.80129 0.0
H1195 H 0.63946 0.16711 0.77698 0.0
C1196 C 0.5749 0.09774 0.84714 0.0
C1197 C 0.5477 0.08691 0.84938 0.0
C1198 C 0.58945 0.11912 0.83497 0.0
C1199 C 0.57715 0.13013 0.8246 0.0
C1200 C 0.55017 0.12019 0.82763 0.0
C1201 C 0.53571 0.09907 0.84007 0.0
C1202 C 0.59989 0.18969 0.792 0.0
C1203 C 0.61914 0.18862 0.78121 0.0
C1204 C 0.58664 0.17115 0.80634 0.0
C1205 C 0.59209 0.15089 0.81005 0.0
C1206 C 0.61145 0.14999 0.79923 0.0
C1207 C 0.62492 0.1687 0.78513 0.0
H1208 H 0.42412 0.50308 0.01467 0.0
H1209 H 0.46145 0.57769 0.04521 0.0
H1210 H 0.42239 0.52602 0.98649 0.0
H1211 H 0.45964 0.60059 0.01715 0.0
H1212 H 0.47801 0.6359 0.95761 0.0
H1213 H 0.48 0.61264 0.98538 0.0
H1214 H 0.39961 0.54922 0.97555 0.0
H1215 H 0.39757 0.57223 0.94773 0.0
C1216 C 0.43207 0.52439 0.0153 0.0
C1217 C 0.44344 0.53871 0.03199 0.0
C1218 C 0.43094 0.53748 0.99924 0.0
C1219 C 0.44109 0.56513 0.9996 0.0
C1220 C 0.45213 0.57937 0.01636 0.0
C1221 C 0.45312 0.56627 0.03241 0.0
C1222 C 0.46075 0.617 0.96135 0.0
C1223 C 0.43763 0.60597 0.95042 0.0
C1224 C 0.46186 0.60375 0.9773 0.0
C1225 C 0.43996 0.57911 0.98261 0.0
C1226 C 0.41689 0.56804 0.97168 0.0
C1227 C 0.4157 0.58135 0.95581 0.0
H1228 H 0.89191 0.47652 0.21627 0.0
H1229 H 0.96097 0.52529 0.1645 0.0
H1230 H 0.85559 0.44153 0.18761 0.0
H1231 H 0.92276 0.48915 0.13723 0.0
H1232 H 0.86574 0.40577 0.10742 0.0
H1233 H 0.89614 0.43544 0.13187 0.0
H1234 H 0.83406 0.44409 0.15553 0.0
H1235 H 0.80393 0.41534 0.13066 0.0
C1236 C 0.89721 0.47953 0.20155 0.0
C1237 C 0.93189 0.50154 0.19372 0.0
C1238 C 0.87523 0.45716 0.18375 0.0
C1239 C 0.88576 0.46047 0.15959 0.0
C1240 C 0.91763 0.48721 0.15196 0.0
C1241 C 0.94106 0.51068 0.16866 0.0
C1242 C 0.85858 0.41386 0.11795 0.0
C1243 C 0.83256 0.40833 0.11723 0.0
C1244 C 0.87596 0.4309 0.1318 0.0
C1245 C 0.86728 0.44188 0.14545 0.0
C1246 C 0.84106 0.43564 0.14517 0.0
C1247 C 0.82392 0.41932 0.13096 0.0
loop_
_geom_bond_atom_site_label_1
_geom_bond_atom_site_label_2
_geom_bond_distance
_geom_bond_site_symmetry_2
_ccdc_geom_bond_type
C0 C1 1.560 . S
C0 H61 0.959 . S
C0 H62 0.959 . S
C0 H63 0.960 . S
C1 C0 1.560 . S
C1 O56 1.426 . S
C1 H60 0.980 . S
C2 C3 1.407 . S
C2 C7 1.418 . S
C2 O56 1.334 . S
C3 C2 1.407 . S
C3 C4 1.360 . S
C3 H64 0.929 . S
C4 C3 1.360 . S
C4 C5 1.401 . S
C4 C8 1.527 . S
C5 C4 1.401 . S
C5 C6 1.405 . S
C5 C38 1.587 . S
C6 C5 1.405 . S
C6 C7 1.332 . S
C6 C9 1.496 . S
C7 C2 1.418 . S
C7 C6 1.332 . S
C7 H65 0.929 . S
C8 C4 1.527 . S
C8 H66 0.959 . S
C8 H67 0.961 . S
C8 H68 0.961 . S
C9 C6 1.496 . S
C9 H69 0.960 . S
C9 H70 0.960 . S
C9 H71 0.961 . S
C10 C11 1.517 . S
C10 H73 0.961 . S
C10 H74 0.960 . S
C10 H75 0.959 . S
C11 C10 1.517 . S
C11 O59 1.468 . S
C11 H72 0.980 . S
C12 C13 1.349 . S
C12 C17 1.367 . S
C12 O59 1.408 . S
C13 C12 1.349 . S
C13 C14 1.407 . S
C13 H76 0.930 . S
C14 C13 1.407 . S
C14 C15 1.449 . S
C14 C18 1.527 . S
C15 C14 1.449 . S
C15 C16 1.384 . S
C15 C40 1.553 1_655 S
C16 C15 1.384 . S
C16 C17 1.364 . S
C16 C19 1.450 . S
C17 C12 1.367 . S
C17 C16 1.364 . S
C17 H77 0.931 . S
C18 C14 1.527 . S
C18 H78 0.930 1_655 S
C18 H79 0.959 1_655 S
C18 H80 1.001 . S
C19 C16 1.450 . S
C19 H81 0.960 . S
C19 H82 0.960 1_655 S
C19 H83 0.960 . S
C20 C21 1.309 . S
C20 C25 1.304 . S
C20 O58 1.435 . S
C21 C20 1.309 . S
C21 C22 1.476 . S
C21 H85 0.930 . S
C22 C21 1.476 . S
C22 C23 1.400 . S
C22 C26 1.567 . S
C23 C22 1.400 . S
C23 C24 1.373 . S
C23 C45 1.432 . S
C24 C23 1.373 . S
C24 C25 1.339 . S
C24 C27 1.530 . S
C25 C20 1.304 . S
C25 C24 1.339 . S
C25 H86 0.930 . S
C26 C22 1.567 . S
C26 H87 0.961 . S
C26 H88 0.960 . S
C26 H89 0.958 . S
C27 C24 1.530 . S
C27 H90 0.961 . S
C27 H91 0.960 . S
C27 H92 0.960 . S
C28 C29 1.530 . S
C28 H94 0.961 . S
C28 H95 0.961 . S
C28 H96 0.959 . S
C29 C28 1.530 . S
C29 O57 1.412 . S
C29 H93 0.980 . S
C30 C31 1.288 . S
C30 C35 1.377 . S
C30 O57 1.393 . S
C31 C30 1.288 . S
C31 C32 1.369 . S
C31 H97 0.932 . S
C32 C31 1.369 . S
C32 C33 1.398 . S
C32 C36 1.527 . S
C33 C32 1.398 . S
C33 C34 1.380 . S
C33 C47 1.497 . S
C34 C33 1.380 . S
C34 C35 1.383 . S
C34 C37 1.603 . S
C35 C30 1.377 . S
C35 C34 1.383 . S
C35 H98 0.929 . S
C36 C32 1.527 . S
C36 H99 0.961 . S
C36 H100 0.959 . S
C36 H101 0.959 . S
C37 C34 1.603 . S
C37 H102 0.960 . S
C37 H103 0.962 . S
C37 H104 0.961 . S
C38 C5 1.587 . S
C38 C39 1.360 . S
C38 C51 1.412 . S
C39 C38 1.360 . S
C39 C40 1.365 . S
C39 H105 0.929 . S
C40 C15 1.553 1_455 S
C40 C39 1.365 . S
C40 C41 1.404 . S
C41 C40 1.404 . S
C41 C42 1.395 1_455 S
C41 C52 1.451 . S
C42 C41 1.395 1_655 S
C42 C43 1.322 . S
C42 H106 0.930 . S
C43 C42 1.322 . S
C43 C44 1.459 . S
C43 H107 0.929 . S
C44 C43 1.459 . S
C44 C45 1.445 . S
C44 C53 1.395 1_655 S
C45 C23 1.432 . S
C45 C44 1.445 . S
C45 C46 1.370 . S
C46 C45 1.370 . S
C46 C47 1.438 1_655 S
C46 H108 0.930 . S
C47 C33 1.497 . S
C47 C46 1.438 1_455 S
C47 C48 1.360 . S
C48 C47 1.360 . S
C48 C49 1.401 . S
C48 C53 1.446 . S
C49 C48 1.401 . S
C49 C50 1.347 . S
C49 H109 0.929 . S
C50 C49 1.347 . S
C50 C51 1.455 . S
C50 H110 0.930 . S
C51 C38 1.412 . S
C51 C50 1.455 . S
C51 C52 1.331 . S
C52 C41 1.451 . S
C52 C51 1.331 . S
C52 C53 1.497 . S
C53 C44 1.395 1_455 S
C53 C48 1.446 . S
C53 C52 1.497 . S
C54 C55 1.582 . S
C54 H111 0.962 . S
C54 H112 0.959 . S
C54 H113 0.958 . S
C55 C54 1.582 . S
C55 O58 1.458 . S
C55 H84 0.980 . S
O56 C1 1.426 . S
O56 C2 1.334 . S
O57 C29 1.412 . S
O57 C30 1.393 . S
O58 C20 1.435 . S
O58 C55 1.458 . S
O59 C11 1.468 . S
O59 C12 1.408 . S
H60 C1 0.980 . S
H61 C0 0.959 . S
H62 C0 0.959 . S
H63 C0 0.960 . S
H64 C3 0.929 . S
H65 C7 0.929 . S
H66 C8 0.959 . S
H67 C8 0.961 . S
H68 C8 0.961 . S
H69 C9 0.960 . S
H70 C9 0.960 . S
H71 C9 0.961 . S
H72 C11 0.980 . S
H73 C10 0.961 . S
H74 C10 0.960 . S
H75 C10 0.959 . S
H76 C13 0.930 . S
H77 C17 0.931 . S
H78 C18 0.930 1_455 S
H79 C18 0.959 1_455 S
H80 C18 1.001 . S
H81 C19 0.960 . S
H82 C19 0.960 1_455 S
H83 C19 0.960 . S
H84 C55 0.980 . S
H85 C21 0.930 . S
H86 C25 0.930 . S
H87 C26 0.961 . S
H88 C26 0.960 . S
H89 C26 0.958 . S
H90 C27 0.961 . S
H91 C27 0.960 . S
H92 C27 0.960 . S
H93 C29 0.980 . S
H94 C28 0.961 . S
H95 C28 0.961 . S
H96 C28 0.959 . S
H97 C31 0.932 . S
H98 C35 0.929 . S
H99 C36 0.961 . S
H100 C36 0.959 . S
H101 C36 0.959 . S
H102 C37 0.960 . S
H103 C37 0.962 . S
H104 C37 0.961 . S
H105 C39 0.929 . S
H106 C42 0.930 . S
H107 C43 0.929 . S
H108 C46 0.930 . S
H109 C49 0.929 . S
H110 C50 0.930 . S
H111 C54 0.962 . S
H112 C54 0.959 . S
H113 C54 0.958 . S
C114 C115 1.560 . S
C114 H175 0.959 . S
C114 H176 0.959 . S
C114 H177 0.960 . S
C115 C114 1.560 . S
C115 O170 1.426 . S
C115 H174 0.980 . S
C116 C117 1.407 . S
C116 C121 1.418 . S
C116 O170 1.334 . S
C117 C116 1.407 . S
C117 C118 1.360 . S
C117 H178 0.929 . S
C118 C117 1.360 . S
C118 C119 1.401 . S
C118 C122 1.527 . S
C119 C118 1.401 . S
C119 C120 1.405 . S
C119 C152 1.587 . S
C120 C119 1.405 . S
C120 C121 1.332 . S
C120 C123 1.496 . S
C121 C116 1.418 . S
C121 C120 1.332 . S
C121 H179 0.929 . S
C122 C118 1.527 . S
C122 H180 0.959 . S
C122 H181 0.961 . S
C122 H182 0.961 . S
C123 C120 1.496 . S
C123 H183 0.960 . S
C123 H184 0.960 . S
C123 H185 0.961 . S
C124 C125 1.517 . S
C124 H187 0.961 . S
C124 H188 0.960 . S
C124 H189 0.959 . S
C125 C124 1.517 . S
C125 O173 1.468 . S
C125 H186 0.980 . S
C126 C127 1.349 . S
C126 C131 1.367 . S
C126 O173 1.408 . S
C127 C126 1.349 . S
C127 C128 1.407 . S
C127 H190 0.930 . S
C128 C127 1.407 . S
C128 C129 1.449 . S
C128 C132 1.535 . S
C129 C128 1.449 . S
C129 C130 1.384 . S
C129 C154 1.553 . S
C130 C129 1.384 . S
C130 C131 1.364 . S
C130 C133 1.450 . S
C131 C126 1.367 . S
C131 C130 1.364 . S
C131 H191 0.931 . S
C132 C128 1.535 . S
C132 H192 0.959 . S
C132 H193 0.961 . S
C132 H194 0.959 . S
C133 C130 1.450 . S
C133 H195 0.960 . S
C133 H196 0.960 . S
C133 H197 0.960 . S
C134 C135 1.309 . S
C134 C139 1.304 . S
C134 O172 1.435 . S
C135 C134 1.309 . S
C135 C136 1.476 . S
C135 H199 0.930 . S
C136 C135 1.476 . S
C136 C137 1.400 . S
C136 C140 1.567 . S
C137 C136 1.400 . S
C137 C138 1.373 . S
C137 C159 1.432 . S
C138 C137 1.373 . S
C138 C139 1.339 . S
C138 C141 1.530 . S
C139 C134 1.304 . S
C139 C138 1.339 . S
C139 H200 0.930 . S
C140 C136 1.567 . S
C140 H201 0.961 . S
C140 H202 0.960 . S
C140 H203 0.958 . S
C141 C138 1.530 . S
C141 H204 0.961 . S
C141 H205 0.960 . S
C141 H206 0.960 . S
C142 C143 1.530 . S
C142 H208 0.961 . S
C142 H209 0.961 . S
C142 H210 0.959 . S
C143 C142 1.530 . S
C143 O171 1.412 . S
C143 H207 0.980 . S
C144 C145 1.288 . S
C144 C149 1.377 . S
C144 O171 1.393 . S
C145 C144 1.288 . S
C145 C146 1.369 . S
C145 H211 0.932 . S
C146 C145 1.369 . S
C146 C147 1.398 . S
C146 C150 1.527 1_565 S
C147 C146 1.398 . S
C147 C148 1.380 . S
C147 C161 1.497 1_565 S
C148 C147 1.380 . S
C148 C149 1.383 . S
C148 C151 1.603 . S
C149 C144 1.377 . S
C149 C148 1.383 . S
C149 H212 0.929 . S
C150 C146 1.527 1_545 S
C150 H213 0.961 . S
C150 H214 0.959 . S
C150 H215 0.959 1_545 S
C151 C148 1.603 . S
C151 H216 0.960 . S
C151 H217 0.962 . S
C151 H218 0.961 . S
C152 C119 1.587 . S
C152 C153 1.360 . S
C152 C165 1.412 . S
C153 C152 1.360 . S
C153 C154 1.365 1_565 S
C153 H219 0.929 . S
C154 C129 1.553 . S
C154 C153 1.365 1_545 S
C154 C155 1.404 . S
C155 C154 1.404 . S
C155 C156 1.395 . S
C155 C166 1.451 . S
C156 C155 1.395 . S
C156 C157 1.322 . S
C156 H220 0.930 . S
C157 C156 1.322 . S
C157 C158 1.459 . S
C157 H221 0.929 . S
C158 C157 1.459 . S
C158 C159 1.445 . S
C158 C167 1.395 . S
C159 C137 1.432 . S
C159 C158 1.445 . S
C159 C160 1.370 . S
C160 C159 1.370 . S
C160 C161 1.438 . S
C160 H222 0.930 . S
C161 C147 1.497 1_545 S
C161 C160 1.438 . S
C161 C162 1.363 . S
C162 C161 1.363 . S
C162 C163 1.395 1_545 S
C162 C167 1.449 . S
C163 C162 1.395 1_565 S
C163 C164 1.347 . S
C163 H223 0.929 . S
C164 C163 1.347 . S
C164 C165 1.455 . S
C164 H224 0.930 . S
C165 C152 1.412 . S
C165 C164 1.455 . S
C165 C166 1.331 1_565 S
C166 C155 1.451 . S
C166 C165 1.331 1_545 S
C166 C167 1.497 . S
C167 C158 1.395 . S
C167 C162 1.449 . S
C167 C166 1.497 . S
C168 C169 1.582 . S
C168 H225 0.962 . S
C168 H226 0.959 . S
C168 H227 0.958 . S
C169 C168 1.582 . S
C169 O172 1.458 . S
C169 H198 0.980 . S
O170 C115 1.426 . S
O170 C116 1.334 . S
O171 C143 1.412 . S
O171 C144 1.393 . S
O172 C134 1.435 . S
O172 C169 1.458 . S
O173 C125 1.468 . S
O173 C126 1.408 . S
H174 C115 0.980 . S
H175 C114 0.959 . S
H176 C114 0.959 . S
H177 C114 0.960 . S
H178 C117 0.929 . S
H179 C121 0.929 . S
H180 C122 0.959 . S
H181 C122 0.961 . S
H182 C122 0.961 . S
H183 C123 0.960 . S
H184 C123 0.960 . S
H185 C123 0.961 . S
H186 C125 0.980 . S
H187 C124 0.961 . S
H188 C124 0.960 . S
H189 C124 0.959 . S
H190 C127 0.930 . S
H191 C131 0.931 . S
H192 C132 0.959 . S
H193 C132 0.961 . S
H194 C132 0.959 . S
H195 C133 0.960 . S
H196 C133 0.960 . S
H197 C133 0.960 . S
H198 C169 0.980 . S
H199 C135 0.930 . S
H200 C139 0.930 . S
H201 C140 0.961 . S
H202 C140 0.960 . S
H203 C140 0.958 . S
H204 C141 0.961 . S
H205 C141 0.960 . S
H206 C141 0.960 . S
H207 C143 0.980 . S
H208 C142 0.961 . S
H209 C142 0.961 . S
H210 C142 0.959 . S
H211 C145 0.932 . S
H212 C149 0.929 . S
H213 C150 0.961 . S
H214 C150 0.959 . S
H215 C150 0.959 1_565 S
H216 C151 0.960 . S
H217 C151 0.962 . S
H218 C151 0.961 . S
H219 C153 0.929 . S
H220 C156 0.930 . S
H221 C157 0.929 . S
H222 C160 0.930 . S
H223 C163 0.929 . S
H224 C164 0.930 . S
H225 C168 0.962 . S
H226 C168 0.959 . S
H227 C168 0.958 . S
C228 C229 1.560 . S
C228 H289 0.959 . S
C228 H290 0.959 . S
C228 H291 0.960 . S
C229 C228 1.560 . S
C229 O284 1.426 . S
C229 H288 0.980 . S
C230 C231 1.407 . S
C230 C235 1.418 . S
C230 O284 1.334 . S
C231 C230 1.407 . S
C231 C232 1.360 . S
C231 H292 0.929 . S
C232 C231 1.360 . S
C232 C233 1.401 . S
C232 C236 1.527 . S
C233 C232 1.401 . S
C233 C234 1.405 . S
C233 C266 1.587 . S
C234 C233 1.405 . S
C234 C235 1.332 . S
C234 C237 1.496 . S
C235 C230 1.418 . S
C235 C234 1.332 . S
C235 H293 0.929 . S
C236 C232 1.527 . S
C236 H294 0.959 . S
C236 H295 0.961 . S
C236 H296 0.961 . S
C237 C234 1.496 . S
C237 H297 0.960 . S
C237 H298 0.960 . S
C237 H299 0.961 . S
C238 C239 1.517 . S
C238 H301 0.961 . S
C238 H302 0.960 . S
C238 H303 0.959 . S
C239 C238 1.517 . S
C239 O287 1.468 . S
C239 H300 0.980 . S
C240 C241 1.349 . S
C240 C245 1.367 . S
C240 O287 1.408 . S
C241 C240 1.349 . S
C241 C242 1.407 . S
C241 H304 0.930 . S
C242 C241 1.407 . S
C242 C243 1.449 . S
C242 C246 1.535 . S
C243 C242 1.449 . S
C243 C244 1.384 . S
C243 C268 1.553 . S
C244 C243 1.384 . S
C244 C245 1.364 . S
C244 C247 1.450 . S
C245 C240 1.367 . S
C245 C244 1.364 . S
C245 H305 0.931 . S
C246 C242 1.535 . S
C246 H306 0.959 . S
C246 H307 0.961 . S
C246 H308 0.959 . S
C247 C244 1.450 . S
C247 H309 0.960 . S
C247 H310 0.960 . S
C247 H311 0.960 . S
C248 C249 1.309 . S
C248 C253 1.304 . S
C248 O286 1.435 . S
C249 C248 1.309 . S
C249 C250 1.476 . S
C249 H313 0.930 . S
C250 C249 1.476 . S
C250 C251 1.400 . S
C250 C254 1.567 . S
C251 C250 1.400 . S
C251 C252 1.373 . S
C251 C273 1.432 . S
C252 C251 1.373 . S
C252 C253 1.339 . S
C252 C255 1.530 . S
C253 C248 1.304 . S
C253 C252 1.339 . S
C253 H314 0.930 . S
C254 C250 1.567 . S
C254 H315 0.961 . S
C254 H316 0.960 . S
C254 H317 0.958 . S
C255 C252 1.530 . S
C255 H318 0.961 . S
C255 H319 0.960 . S
C255 H320 0.960 . S
C256 C257 1.530 . S
C256 H322 0.961 . S
C256 H323 0.961 . S
C256 H324 0.959 . S
C257 C256 1.530 . S
C257 O285 1.412 . S
C257 H321 0.980 . S
C258 C259 1.288 . S
C258 C263 1.377 . S
C258 O285 1.393 . S
C259 C258 1.288 . S
C259 C260 1.369 . S
C259 H325 0.932 . S
C260 C259 1.369 . S
C260 C261 1.398 . S
C260 C264 1.527 . S
C261 C260 1.398 . S
C261 C262 1.380 . S
C261 C275 1.497 . S
C262 C261 1.380 . S
C262 C263 1.383 . S
C262 C265 1.603 . S
C263 C258 1.377 . S
C263 C262 1.383 . S
C263 H326 0.929 . S
C264 C260 1.527 . S
C264 H327 0.961 . S
C264 H328 0.959 . S
C264 H329 0.959 . S
C265 C262 1.603 . S
C265 H330 0.960 . S
C265 H331 0.962 . S
C265 H332 0.961 . S
C266 C233 1.587 . S
C266 C267 1.360 . S
C266 C279 1.412 . S
C267 C266 1.360 . S
C267 C268 1.365 . S
C267 H333 0.929 . S
C268 C243 1.553 . S
C268 C267 1.365 . S
C268 C269 1.404 . S
C269 C268 1.404 . S
C269 C270 1.395 . S
C269 C280 1.451 . S
C270 C269 1.395 . S
C270 C271 1.322 . S
C270 H334 0.930 . S
C271 C270 1.322 . S
C271 C272 1.459 . S
C271 H335 0.929 . S
C272 C271 1.459 . S
C272 C273 1.445 . S
C272 C281 1.395 . S
C273 C251 1.432 . S
C273 C272 1.445 . S
C273 C274 1.370 . S
C274 C273 1.370 . S
C274 C275 1.438 . S
C274 H336 0.930 . S
C275 C261 1.497 . S
C275 C274 1.438 . S
C275 C276 1.360 . S
C276 C275 1.360 . S
C276 C277 1.401 . S
C276 C281 1.446 . S
C277 C276 1.401 . S
C277 C278 1.347 . S
C277 H337 0.929 . S
C278 C277 1.347 . S
C278 C279 1.455 . S
C278 H338 0.930 . S
C279 C266 1.412 . S
C279 C278 1.455 . S
C279 C280 1.331 . S
C280 C269 1.451 . S
C280 C279 1.331 . S
C280 C281 1.497 . S
C281 C272 1.395 . S
C281 C276 1.446 . S
C281 C280 1.497 . S
C282 C283 1.582 . S
C282 H339 0.962 . S
C282 H340 0.959 . S
C282 H341 0.958 . S
C283 C282 1.582 . S
C283 O286 1.458 . S
C283 H312 0.980 . S
O284 C229 1.426 . S
O284 C230 1.334 . S
O285 C257 1.412 . S
O285 C258 1.393 . S
O286 C248 1.435 . S
O286 C283 1.458 . S
O287 C239 1.468 . S
O287 C240 1.408 . S
H288 C229 0.980 . S
H289 C228 0.959 . S
H290 C228 0.959 . S
H291 C228 0.960 . S
H292 C231 0.929 . S
H293 C235 0.929 . S
H294 C236 0.959 . S
H295 C236 0.961 . S
H296 C236 0.961 . S
H297 C237 0.960 . S
H298 C237 0.960 . S
H299 C237 0.961 . S
H300 C239 0.980 . S
H301 C238 0.961 . S
H302 C238 0.960 . S
H303 C238 0.959 . S
H304 C241 0.930 . S
H305 C245 0.931 . S
H306 C246 0.959 . S
H307 C246 0.961 . S
H308 C246 0.959 . S
H309 C247 0.960 . S
H310 C247 0.960 . S
H311 C247 0.960 . S
H312 C283 0.980 . S
H313 C249 0.930 . S
H314 C253 0.930 . S
H315 C254 0.961 . S
H316 C254 0.960 . S
H317 C254 0.958 . S
H318 C255 0.961 . S
H319 C255 0.960 . S
H320 C255 0.960 . S
H321 C257 0.980 . S
H322 C256 0.961 . S
H323 C256 0.961 . S
H324 C256 0.959 . S
H325 C259 0.932 . S
H326 C263 0.929 . S
H327 C264 0.961 . S
H328 C264 0.959 . S
H329 C264 0.959 . S
H330 C265 0.960 . S
H331 C265 0.962 . S
H332 C265 0.961 . S
H333 C267 0.929 . S
H334 C270 0.930 . S
H335 C271 0.929 . S
H336 C274 0.930 . S
H337 C277 0.929 . S
H338 C278 0.930 . S
H339 C282 0.962 . S
H340 C282 0.959 . S
H341 C282 0.958 . S
C342 C343 1.560 . S
C342 H403 0.959 . S
C342 H404 0.959 . S
C342 H405 0.960 . S
C343 C342 1.560 . S
C343 O398 1.426 . S
C343 H402 0.980 . S
C344 C345 1.407 . S
C344 C349 1.418 . S
C344 O398 1.334 . S
C345 C344 1.407 . S
C345 C346 1.360 . S
C345 H406 0.929 . S
C346 C345 1.360 . S
C346 C347 1.401 . S
C346 C350 1.527 . S
C347 C346 1.401 . S
C347 C348 1.405 . S
C347 C380 1.587 . S
C348 C347 1.405 . S
C348 C349 1.332 . S
C348 C351 1.496 . S
C349 C344 1.418 . S
C349 C348 1.332 . S
C349 H407 0.929 . S
C350 C346 1.527 . S
C350 H408 0.959 . S
C350 H409 0.961 . S
C350 H410 0.961 . S
C351 C348 1.496 . S
C351 H411 0.960 . S
C351 H412 0.960 . S
C351 H413 0.961 . S
C352 C353 1.517 . S
C352 H415 0.961 . S
C352 H416 0.960 . S
C352 H417 0.959 . S
C353 C352 1.517 . S
C353 O401 1.468 . S
C353 H414 0.980 . S
C354 C355 1.349 . S
C354 C359 1.367 . S
C354 O401 1.408 . S
C355 C354 1.349 . S
C355 C356 1.407 . S
C355 H418 0.930 . S
C356 C355 1.407 . S
C356 C357 1.449 . S
C356 C360 1.535 . S
C357 C356 1.449 . S
C357 C358 1.384 . S
C357 C382 1.553 1_655 S
C358 C357 1.384 . S
C358 C359 1.364 . S
C358 C361 1.450 . S
C359 C354 1.367 . S
C359 C358 1.364 . S
C359 H419 0.931 . S
C360 C356 1.535 . S
C360 H420 0.959 1_655 S
C360 H421 0.934 1_655 S
C360 H422 0.959 . S
C361 C358 1.450 . S
C361 H423 0.960 . S
C361 H424 0.960 1_655 S
C361 H425 0.960 . S
C362 C363 1.309 . S
C362 C367 1.304 . S
C362 O400 1.435 . S
C363 C362 1.309 . S
C363 C364 1.476 . S
C363 H427 0.930 . S
C364 C363 1.476 . S
C364 C365 1.400 . S
C364 C368 1.567 . S
C365 C364 1.400 . S
C365 C366 1.373 . S
C365 C387 1.432 . S
C366 C365 1.373 . S
C366 C367 1.339 . S
C366 C369 1.530 . S
C367 C362 1.304 . S
C367 C366 1.339 . S
C367 H428 0.930 . S
C368 C364 1.567 . S
C368 H429 0.961 . S
C368 H430 0.960 . S
C368 H431 0.958 . S
C369 C366 1.530 . S
C369 H432 0.961 . S
C369 H433 0.960 . S
C369 H434 0.960 . S
C370 C371 1.530 . S
C370 H436 0.961 . S
C370 H437 0.961 . S
C370 H438 0.959 . S
C371 C370 1.530 . S
C371 O399 1.412 . S
C371 H435 0.980 . S
C372 C373 1.288 . S
C372 C377 1.377 . S
C372 O399 1.393 . S
C373 C372 1.288 . S
C373 C374 1.369 . S
C373 H439 0.932 . S
C374 C373 1.369 . S
C374 C375 1.398 . S
C374 C378 1.527 . S
C375 C374 1.398 . S
C375 C376 1.380 . S
C375 C389 1.497 . S
C376 C375 1.380 . S
C376 C377 1.383 . S
C376 C379 1.603 . S
C377 C372 1.377 . S
C377 C376 1.383 . S
C377 H440 0.929 . S
C378 C374 1.527 . S
C378 H441 0.961 . S
C378 H442 0.959 1_455 S
C378 H443 0.959 . S
C379 C376 1.603 . S
C379 H444 0.960 . S
C379 H445 0.962 . S
C379 H446 0.961 . S
C380 C347 1.587 . S
C380 C381 1.360 . S
C380 C393 1.412 . S
C381 C380 1.360 . S
C381 C382 1.365 . S
C381 H447 0.929 . S
C382 C357 1.553 1_455 S
C382 C381 1.365 . S
C382 C383 1.404 . S
C383 C382 1.404 . S
C383 C384 1.395 1_455 S
C383 C394 1.451 . S
C384 C383 1.395 1_655 S
C384 C385 1.322 . S
C384 H448 0.930 . S
C385 C384 1.322 . S
C385 C386 1.459 . S
C385 H449 0.929 . S
C386 C385 1.459 . S
C386 C387 1.445 . S
C386 C395 1.395 1_655 S
C387 C365 1.432 . S
C387 C386 1.445 . S
C387 C388 1.370 . S
C388 C387 1.370 . S
C388 C389 1.438 1_655 S
C388 H450 0.930 . S
C389 C375 1.497 . S
C389 C388 1.438 1_455 S
C389 C390 1.360 . S
C390 C389 1.360 . S
C390 C391 1.401 . S
C390 C395 1.446 . S
C391 C390 1.401 . S
C391 C392 1.347 . S
C391 H451 0.929 . S
C392 C391 1.347 . S
C392 C393 1.455 . S
C392 H452 0.930 . S
C393 C380 1.412 . S
C393 C392 1.455 . S
C393 C394 1.331 . S
C394 C383 1.451 . S
C394 C393 1.331 . S
C394 C395 1.497 . S
C395 C386 1.395 1_455 S
C395 C390 1.446 . S
C395 C394 1.497 . S
C396 C397 1.582 . S
C396 H453 0.962 . S
C396 H454 0.959 . S
C396 H455 0.958 . S
C397 C396 1.582 . S
C397 O400 1.458 . S
C397 H426 0.980 . S
O398 C343 1.426 . S
O398 C344 1.334 . S
O399 C371 1.412 . S
O399 C372 1.393 . S
O400 C362 1.435 . S
O400 C397 1.458 . S
O401 C353 1.468 . S
O401 C354 1.408 . S
H402 C343 0.980 . S
H403 C342 0.959 . S
H404 C342 0.959 . S
H405 C342 0.960 . S
H406 C345 0.929 . S
H407 C349 0.929 . S
H408 C350 0.959 . S
H409 C350 0.961 . S
H410 C350 0.961 . S
H411 C351 0.960 . S
H412 C351 0.960 . S
H413 C351 0.961 . S
H414 C353 0.980 . S
H415 C352 0.961 . S
H416 C352 0.960 . S
H417 C352 0.959 . S
H418 C355 0.930 . S
H419 C359 0.931 . S
H420 C360 0.959 1_455 S
H421 C360 0.934 1_455 S
H422 C360 0.959 . S
H423 C361 0.960 . S
H424 C361 0.960 1_455 S
H425 C361 0.960 . S
H426 C397 0.980 . S
H427 C363 0.930 . S
H428 C367 0.930 . S
H429 C368 0.961 . S
H430 C368 0.960 . S
H431 C368 0.958 . S
H432 C369 0.961 . S
H433 C369 0.960 . S
H434 C369 0.960 . S
H435 C371 0.980 . S
H436 C370 0.961 . S
H437 C370 0.961 . S
H438 C370 0.959 . S
H439 C373 0.932 . S
H440 C377 0.929 . S
H441 C378 0.961 . S
H442 C378 0.959 1_655 S
H443 C378 0.959 . S
H444 C379 0.960 . S
H445 C379 0.962 . S
H446 C379 0.961 . S
H447 C381 0.929 . S
H448 C384 0.930 . S
H449 C385 0.929 . S
H450 C388 0.930 . S
H451 C391 0.929 . S
H452 C392 0.930 . S
H453 C396 0.962 . S
H454 C396 0.959 . S
H455 C396 0.958 . S
C456 C457 1.560 . S
C456 H517 0.959 . S
C456 H518 0.959 . S
C456 H519 0.960 . S
C457 C456 1.560 . S
C457 O512 1.426 . S
C457 H516 0.980 . S
C458 C459 1.407 . S
C458 C463 1.418 . S
C458 O512 1.334 . S
C459 C458 1.407 . S
C459 C460 1.360 . S
C459 H520 0.929 . S
C460 C459 1.360 . S
C460 C461 1.401 . S
C460 C464 1.527 . S
C461 C460 1.401 . S
C461 C462 1.405 . S
C461 C494 1.587 . S
C462 C461 1.405 . S
C462 C463 1.332 . S
C462 C465 1.496 . S
C463 C458 1.418 . S
C463 C462 1.332 . S
C463 H521 0.929 . S
C464 C460 1.527 . S
C464 H522 0.959 . S
C464 H523 0.961 . S
C464 H524 0.961 . S
C465 C462 1.496 . S
C465 H525 0.960 . S
C465 H526 0.960 . S
C465 H527 0.961 . S
C466 C467 1.517 . S
C466 H529 0.961 . S
C466 H530 0.960 . S
C466 H531 0.959 . S
C467 C466 1.517 . S
C467 O515 1.468 . S
C467 H528 0.980 . S
C468 C469 1.349 . S
C468 C473 1.367 . S
C468 O515 1.408 . S
C469 C468 1.349 . S
C469 C470 1.407 . S
C469 H532 0.930 . S
C470 C469 1.407 . S
C470 C471 1.449 . S
C470 C474 1.535 . S
C471 C470 1.449 . S
C471 C472 1.384 . S
C471 C496 1.553 . S
C472 C471 1.384 . S
C472 C473 1.364 . S
C472 C475 1.450 . S
C473 C468 1.367 . S
C473 C472 1.364 . S
C473 H533 0.931 . S
C474 C470 1.535 . S
C474 H534 0.959 . S
C474 H535 0.961 . S
C474 H536 0.959 . S
C475 C472 1.450 . S
C475 H537 0.960 . S
C475 H538 0.960 . S
C475 H539 0.960 . S
C476 C477 1.309 . S
C476 C481 1.304 . S
C476 O514 1.435 . S
C477 C476 1.309 . S
C477 C478 1.476 . S
C477 H541 0.930 . S
C478 C477 1.476 . S
C478 C479 1.400 . S
C478 C482 1.567 . S
C479 C478 1.400 . S
C479 C480 1.373 . S
C479 C501 1.432 . S
C480 C479 1.373 . S
C480 C481 1.339 . S
C480 C483 1.530 . S
C481 C476 1.304 . S
C481 C480 1.339 . S
C481 H542 0.930 . S
C482 C478 1.567 . S
C482 H543 0.961 . S
C482 H544 0.960 . S
C482 H545 0.958 . S
C483 C480 1.530 . S
C483 H546 0.961 . S
C483 H547 0.960 . S
C483 H548 0.960 . S
C484 C485 1.530 . S
C484 H550 0.961 . S
C484 H551 0.961 . S
C484 H552 0.959 . S
C485 C484 1.530 . S
C485 O513 1.412 . S
C485 H549 0.980 . S
C486 C487 1.288 . S
C486 C491 1.377 . S
C486 O513 1.393 . S
C487 C486 1.288 . S
C487 C488 1.369 . S
C487 H553 0.932 . S
C488 C487 1.369 . S
C488 C489 1.398 . S
C488 C492 1.527 1_565 S
C489 C488 1.398 . S
C489 C490 1.380 . S
C489 C503 1.497 1_565 S
C490 C489 1.380 . S
C490 C491 1.383 . S
C490 C493 1.603 . S
C491 C486 1.377 . S
C491 C490 1.383 . S
C491 H554 0.929 . S
C492 C488 1.527 1_545 S
C492 H555 0.961 . S
C492 H556 0.959 . S
C492 H557 0.959 1_545 S
C493 C490 1.603 . S
C493 H558 0.960 . S
C493 H559 0.962 . S
C493 H560 0.961 . S
C494 C461 1.587 . S
C494 C495 1.360 . S
C494 C507 1.412 . S
C495 C494 1.360 . S
C495 C496 1.365 1_565 S
C495 H561 0.929 . S
C496 C471 1.553 . S
C496 C495 1.365 1_545 S
C496 C497 1.404 . S
C497 C496 1.404 . S
C497 C498 1.395 . S
C497 C508 1.452 1_545 S
C498 C497 1.395 . S
C498 C499 1.322 . S
C498 H562 0.930 . S
C499 C498 1.322 . S
C499 C500 1.459 . S
C499 H563 0.929 . S
C500 C499 1.459 . S
C500 C501 1.445 1_556 S
C500 C509 1.395 . S
C501 C479 1.432 . S
C501 C500 1.445 1_554 S
C501 C502 1.370 . S
C502 C501 1.370 . S
C502 C503 1.438 . S
C502 H564 0.930 . S
C503 C489 1.497 1_545 S
C503 C502 1.438 . S
C503 C504 1.360 1_545 S
C504 C503 1.360 1_565 S
C504 C505 1.401 . S
C504 C509 1.446 1_564 S
C505 C504 1.401 . S
C505 C506 1.347 1_554 S
C505 H565 0.929 . S
C506 C505 1.347 1_556 S
C506 C507 1.455 . S
C506 H566 0.930 . S
C507 C494 1.412 . S
C507 C506 1.455 . S
C507 C508 1.330 . S
C508 C497 1.452 1_565 S
C508 C507 1.330 . S
C508 C509 1.497 1_565 S
C509 C500 1.395 . S
C509 C504 1.446 1_546 S
C509 C508 1.497 1_545 S
C510 C511 1.582 . S
C510 H567 0.962 . S
C510 H568 0.959 . S
C510 H569 0.958 . S
C511 C510 1.582 . S
C511 O514 1.458 . S
C511 H540 0.980 . S
O512 C457 1.426 . S
O512 C458 1.334 . S
O513 C485 1.412 . S
O513 C486 1.393 . S
O514 C476 1.435 . S
O514 C511 1.458 . S
O515 C467 1.468 . S
O515 C468 1.408 . S
H516 C457 0.980 . S
H517 C456 0.959 . S
H518 C456 0.959 . S
H519 C456 0.960 . S
H520 C459 0.929 . S
H521 C463 0.929 . S
H522 C464 0.959 . S
H523 C464 0.961 . S
H524 C464 0.961 . S
H525 C465 0.960 . S
H526 C465 0.960 . S
H527 C465 0.961 . S
H528 C467 0.980 . S
H529 C466 0.961 . S
H530 C466 0.960 . S
H531 C466 0.959 . S
H532 C469 0.930 . S
H533 C473 0.931 . S
H534 C474 0.959 . S
H535 C474 0.961 . S
H536 C474 0.959 . S
H537 C475 0.960 . S
H538 C475 0.960 . S
H539 C475 0.960 . S
H540 C511 0.980 . S
H541 C477 0.930 . S
H542 C481 0.930 . S
H543 C482 0.961 . S
H544 C482 0.960 . S
H545 C482 0.958 . S
H546 C483 0.961 . S
H547 C483 0.960 . S
H548 C483 0.960 . S
H549 C485 0.980 . S
H550 C484 0.961 . S
H551 C484 0.961 . S
H552 C484 0.959 . S
H553 C487 0.932 . S
H554 C491 0.929 . S
H555 C492 0.961 . S
H556 C492 0.959 . S
H557 C492 0.959 1_565 S
H558 C493 0.960 . S
H559 C493 0.962 . S
H560 C493 0.961 . S
H561 C495 0.929 . S
H562 C498 0.930 . S
H563 C499 0.929 . S
H564 C502 0.930 . S
H565 C505 0.929 . S
H566 C506 0.930 . S
H567 C510 0.962 . S
H568 C510 0.959 . S
H569 C510 0.958 . S
C570 C571 1.560 . S
C570 H631 0.959 . S
C570 H632 0.959 . S
C570 H633 0.960 . S
C571 C570 1.560 . S
C571 O626 1.426 . S
C571 H630 0.980 . S
C572 C573 1.407 . S
C572 C577 1.418 . S
C572 O626 1.334 . S
C573 C572 1.407 . S
C573 C574 1.360 . S
C573 H634 0.929 . S
C574 C573 1.360 . S
C574 C575 1.401 . S
C574 C578 1.527 . S
C575 C574 1.401 . S
C575 C576 1.405 . S
C575 C608 1.587 . S
C576 C575 1.405 . S
C576 C577 1.332 . S
C576 C579 1.496 . S
C577 C572 1.418 . S
C577 C576 1.332 . S
C577 H635 0.929 . S
C578 C574 1.527 . S
C578 H636 0.959 . S
C578 H637 0.961 . S
C578 H638 0.961 . S
C579 C576 1.496 . S
C579 H639 0.960 . S
C579 H640 0.960 . S
C579 H641 0.961 . S
C580 C581 1.517 . S
C580 H643 0.961 . S
C580 H644 0.960 . S
C580 H645 0.959 . S
C581 C580 1.517 . S
C581 O629 1.468 . S
C581 H642 0.980 . S
C582 C583 1.349 . S
C582 C587 1.367 . S
C582 O629 1.408 . S
C583 C582 1.349 . S
C583 C584 1.407 . S
C583 H646 0.930 . S
C584 C583 1.407 . S
C584 C585 1.449 . S
C584 C588 1.535 . S
C585 C584 1.449 . S
C585 C586 1.384 . S
C585 C610 1.553 . S
C586 C585 1.384 . S
C586 C587 1.364 . S
C586 C589 1.450 . S
C587 C582 1.367 . S
C587 C586 1.364 . S
C587 H647 0.931 . S
C588 C584 1.535 . S
C588 H648 0.959 . S
C588 H649 0.961 . S
C588 H650 0.959 . S
C589 C586 1.450 . S
C589 H651 0.960 . S
C589 H652 0.960 . S
C589 H653 0.960 . S
C590 C591 1.309 . S
C590 C595 1.304 . S
C590 O628 1.435 . S
C591 C590 1.309 . S
C591 C592 1.476 . S
C591 H655 0.930 . S
C592 C591 1.476 . S
C592 C593 1.400 . S
C592 C596 1.567 . S
C593 C592 1.400 . S
C593 C594 1.373 . S
C593 C615 1.432 . S
C594 C593 1.373 . S
C594 C595 1.339 . S
C594 C597 1.530 . S
C595 C590 1.304 . S
C595 C594 1.339 . S
C595 H656 0.930 . S
C596 C592 1.567 . S
C596 H657 0.961 . S
C596 H658 0.960 . S
C596 H659 0.958 . S
C597 C594 1.530 . S
C597 H660 0.961 . S
C597 H661 0.960 . S
C597 H662 0.960 . S
C598 C599 1.530 . S
C598 H664 0.961 . S
C598 H665 0.961 . S
C598 H666 0.959 . S
C599 C598 1.530 . S
C599 O627 1.412 . S
C599 H663 0.980 . S
C600 C601 1.288 . S
C600 C605 1.377 . S
C600 O627 1.393 . S
C601 C600 1.288 . S
C601 C602 1.369 . S
C601 H667 0.932 . S
C602 C601 1.369 . S
C602 C603 1.398 . S
C602 C606 1.527 . S
C603 C602 1.398 . S
C603 C604 1.380 . S
C603 C617 1.497 . S
C604 C603 1.380 . S
C604 C605 1.383 . S
C604 C607 1.603 . S
C605 C600 1.377 . S
C605 C604 1.383 . S
C605 H668 0.929 . S
C606 C602 1.527 . S
C606 H669 0.961 . S
C606 H670 0.959 . S
C606 H671 0.959 . S
C607 C604 1.603 . S
C607 H672 0.960 . S
C607 H673 0.962 . S
C607 H674 0.961 . S
C608 C575 1.587 . S
C608 C609 1.360 . S
C608 C621 1.412 . S
C609 C608 1.360 . S
C609 C610 1.365 . S
C609 H675 0.929 . S
C610 C585 1.553 . S
C610 C609 1.365 . S
C610 C611 1.404 . S
C611 C610 1.404 . S
C611 C612 1.395 . S
C611 C622 1.451 . S
C612 C611 1.395 . S
C612 C613 1.322 . S
C612 H676 0.930 . S
C613 C612 1.322 . S
C613 C614 1.459 . S
C613 H677 0.929 . S
C614 C613 1.459 . S
C614 C615 1.445 . S
C614 C623 1.395 . S
C615 C593 1.432 . S
C615 C614 1.445 . S
C615 C616 1.370 . S
C616 C615 1.370 . S
C616 C617 1.438 . S
C616 H678 0.930 . S
C617 C603 1.497 . S
C617 C616 1.438 . S
C617 C618 1.360 . S
C618 C617 1.360 . S
C618 C619 1.401 . S
C618 C623 1.446 . S
C619 C618 1.401 . S
C619 C620 1.347 . S
C619 H679 0.929 . S
C620 C619 1.347 . S
C620 C621 1.455 . S
C620 H680 0.930 . S
C621 C608 1.412 . S
C621 C620 1.455 . S
C621 C622 1.331 . S
C622 C611 1.451 . S
C622 C621 1.331 . S
C622 C623 1.497 . S
C623 C614 1.395 . S
C623 C618 1.446 . S
C623 C622 1.497 . S
C624 C625 1.582 . S
C624 H681 0.962 . S
C624 H682 0.959 . S
C624 H683 0.958 . S
C625 C624 1.582 . S
C625 O628 1.458 . S
C625 H654 0.980 . S
O626 C571 1.426 . S
O626 C572 1.334 . S
O627 C599 1.412 . S
O627 C600 1.393 . S
O628 C590 1.435 . S
O628 C625 1.458 . S
O629 C581 1.468 . S
O629 C582 1.408 . S
H630 C571 0.980 . S
H631 C570 0.959 . S
H632 C570 0.959 . S
H633 C570 0.960 . S
H634 C573 0.929 . S
H635 C577 0.929 . S
H636 C578 0.959 . S
H637 C578 0.961 . S
H638 C578 0.961 . S
H639 C579 0.960 . S
H640 C579 0.960 . S
H641 C579 0.961 . S
H642 C581 0.980 . S
H643 C580 0.961 . S
H644 C580 0.960 . S
H645 C580 0.959 . S
H646 C583 0.930 . S
H647 C587 0.931 . S
H648 C588 0.959 . S
H649 C588 0.961 . S
H650 C588 0.959 . S
H651 C589 0.960 . S
H652 C589 0.960 . S
H653 C589 0.960 . S
H654 C625 0.980 . S
H655 C591 0.930 . S
H656 C595 0.930 . S
H657 C596 0.961 . S
H658 C596 0.960 . S
H659 C596 0.958 . S
H660 C597 0.961 . S
H661 C597 0.960 . S
H662 C597 0.960 . S
H663 C599 0.980 . S
H664 C598 0.961 . S
H665 C598 0.961 . S
H666 C598 0.959 . S
H667 C601 0.932 . S
H668 C605 0.929 . S
H669 C606 0.961 . S
H670 C606 0.959 . S
H671 C606 0.959 . S
H672 C607 0.960 . S
H673 C607 0.962 . S
H674 C607 0.961 . S
H675 C609 0.929 . S
H676 C612 0.930 . S
H677 C613 0.929 . S
H678 C616 0.930 . S
H679 C619 0.929 . S
H680 C620 0.930 . S
H681 C624 0.962 . S
H682 C624 0.959 . S
H683 C624 0.958 . S
Co684 O685 2.216 . S
Co684 O686 2.091 . S
Co684 O688 2.004 . S
Co684 O694 2.021 . S
Co684 O696 2.137 . S
Co684 O697 2.244 . S
O685 Co684 2.216 . S
O685 C692 1.247 . S
O686 Co684 2.091 . S
O686 C692 1.261 . S
C687 O696 1.247 . S
C687 O697 1.272 . S
O688 Co684 2.004 . S
O688 C693 1.259 . S
Co689 O690 2.061 . S
Co689 O695 2.052 . S
Co689 O697 2.135 . S
O690 Co689 2.061 . S
O690 C693 1.235 . S
C691 O694 1.238 . S
C691 O695 1.241 . S
C692 O685 1.247 . S
C692 O686 1.261 . S
C693 O688 1.259 . S
C693 O690 1.235 . S
O694 Co684 2.021 . S
O694 C691 1.238 . S
O695 Co689 2.052 . S
O695 C691 1.241 . S
O696 Co684 2.137 . S
O696 C687 1.247 . S
O697 Co684 2.244 . S
O697 C687 1.272 . S
O697 Co689 2.135 . S
Co698 O699 2.216 . S
Co698 O700 2.091 . S
Co698 O702 2.004 . S
Co698 O708 2.021 . S
Co698 O710 2.137 . S
Co698 O711 2.244 . S
O699 Co698 2.216 . S
O699 C706 1.247 . S
O700 Co698 2.091 . S
O700 C706 1.261 . S
C701 O710 1.247 . S
C701 O711 1.272 . S
O702 Co698 2.004 . S
O702 C707 1.259 . S
Co703 O704 2.061 . S
Co703 O709 2.052 . S
Co703 O711 2.135 . S
O704 Co703 2.061 . S
O704 C707 1.235 . S
C705 O708 1.238 . S
C705 O709 1.241 . S
C706 O699 1.247 . S
C706 O700 1.261 . S
C707 O702 1.259 . S
C707 O704 1.235 . S
O708 Co698 2.021 . S
O708 C705 1.238 . S
O709 Co703 2.052 . S
O709 C705 1.241 . S
O710 Co698 2.137 . S
O710 C701 1.247 . S
O711 Co698 2.244 . S
O711 C701 1.272 . S
O711 Co703 2.135 . S
Co712 O713 2.216 . S
Co712 O714 2.091 . S
Co712 O716 2.004 . S
Co712 O722 2.021 . S
Co712 O724 2.137 . S
Co712 O725 2.244 . S
O713 Co712 2.216 . S
O713 C720 1.247 . S
O714 Co712 2.091 . S
O714 C720 1.261 . S
C715 O724 1.247 . S
C715 O725 1.272 . S
O716 Co712 2.004 . S
O716 C721 1.259 . S
Co717 O718 2.061 . S
Co717 O723 2.052 . S
Co717 O725 2.135 . S
O718 Co717 2.061 . S
O718 C721 1.235 . S
C719 O722 1.238 . S
C719 O723 1.241 . S
C720 O713 1.247 . S
C720 O714 1.261 . S
C721 O716 1.259 . S
C721 O718 1.235 . S
O722 Co712 2.021 . S
O722 C719 1.238 . S
O723 Co717 2.052 . S
O723 C719 1.241 . S
O724 Co712 2.137 . S
O724 C715 1.247 . S
O725 Co712 2.244 . S
O725 C715 1.272 . S
O725 Co717 2.135 . S
Co726 O727 2.216 . S
Co726 O728 2.091 . S
Co726 O730 2.004 . S
Co726 O736 2.021 . S
Co726 O738 2.137 . S
Co726 O739 2.244 . S
O727 Co726 2.216 . S
O727 C734 1.247 . S
O728 Co726 2.091 . S
O728 C734 1.261 . S
C729 O738 1.247 . S
C729 O739 1.272 . S
O730 Co726 2.004 . S
O730 C735 1.259 . S
Co731 O732 2.061 . S
Co731 O737 2.052 . S
Co731 O739 2.135 . S
O732 Co731 2.061 . S
O732 C735 1.235 . S
C733 O736 1.238 . S
C733 O737 1.241 . S
C734 O727 1.247 . S
C734 O728 1.261 . S
C735 O730 1.259 . S
C735 O732 1.235 . S
O736 Co726 2.021 . S
O736 C733 1.238 . S
O737 Co731 2.052 . S
O737 C733 1.241 . S
O738 Co726 2.137 . S
O738 C729 1.247 . S
O739 Co726 2.244 . S
O739 C729 1.272 . S
O739 Co731 2.135 . S
Co740 O741 2.216 . S
Co740 O742 2.091 . S
Co740 O744 2.004 . S
Co740 O750 2.021 . S
Co740 O752 2.137 . S
Co740 O753 2.244 . S
O741 Co740 2.216 . S
O741 C748 1.247 . S
O742 Co740 2.091 . S
O742 C748 1.261 . S
C743 O752 1.247 . S
C743 O753 1.272 . S
O744 Co740 2.004 . S
O744 C749 1.259 . S
Co745 O746 2.061 . S
Co745 O751 2.052 . S
Co745 O753 2.135 . S
O746 Co745 2.061 . S
O746 C749 1.235 . S
C747 O750 1.238 . S
C747 O751 1.241 . S
C748 O741 1.247 . S
C748 O742 1.261 . S
C749 O744 1.259 . S
C749 O746 1.235 . S
O750 Co740 2.021 . S
O750 C747 1.238 . S
O751 Co745 2.052 . S
O751 C747 1.241 . S
O752 Co740 2.137 . S
O752 C743 1.247 . S
O753 Co740 2.244 . S
O753 C743 1.272 . S
O753 Co745 2.135 . S
Co754 O755 2.216 . S
Co754 O756 2.091 . S
Co754 O758 2.004 . S
Co754 O764 2.021 . S
Co754 O766 2.137 . S
Co754 O767 2.244 . S
O755 Co754 2.216 . S
O755 C762 1.247 . S
O756 Co754 2.091 . S
O756 C762 1.261 . S
C757 O766 1.247 . S
C757 O767 1.272 . S
O758 Co754 2.004 . S
O758 C763 1.259 . S
Co759 O760 2.061 . S
Co759 O765 2.052 . S
Co759 O767 2.135 . S
O760 Co759 2.061 . S
O760 C763 1.235 . S
C761 O764 1.238 . S
C761 O765 1.241 . S
C762 O755 1.247 . S
C762 O756 1.261 . S
C763 O758 1.259 . S
C763 O760 1.235 . S
O764 Co754 2.021 . S
O764 C761 1.238 . S
O765 Co759 2.052 . S
O765 C761 1.241 . S
O766 Co754 2.137 . S
O766 C757 1.247 . S
O767 Co754 2.244 . S
O767 C757 1.272 . S
O767 Co759 2.135 . S
H768 C776 0.950 . S
H769 C781 0.950 . S
H770 C778 0.950 . S
H771 C780 0.950 . S
H772 C782 0.950 . S
H773 C784 0.950 . S
H774 C786 0.950 . S
H775 C787 0.950 . S
C776 H768 0.950 . S
C776 C777 1.386 . S
C776 C778 1.391 . S
C777 C776 1.386 . S
C777 C781 1.393 . S
C778 H770 0.950 . S
C778 C776 1.391 . S
C778 C779 1.400 . S
C779 C778 1.400 . S
C779 C780 1.398 . S
C779 C785 1.491 . S
C780 H771 0.950 . S
C780 C779 1.398 . S
C780 C781 1.391 . S
C781 H769 0.950 . S
C781 C777 1.393 . S
C781 C780 1.391 . S
C782 H772 0.950 . S
C782 C783 1.386 . S
C782 C784 1.391 . S
C783 C782 1.386 . S
C783 C787 1.393 . S
C784 H773 0.950 . S
C784 C782 1.391 . S
C784 C785 1.400 . S
C785 C779 1.491 . S
C785 C784 1.400 . S
C785 C786 1.398 . S
C786 H774 0.950 . S
C786 C785 1.398 . S
C786 C787 1.391 . S
C787 H775 0.950 . S
C787 C783 1.393 . S
C787 C786 1.391 . S
H788 C796 0.950 . S
H789 C801 0.950 . S
H790 C798 0.950 . S
H791 C800 0.950 . S
H792 C802 0.950 . S
H793 C804 0.950 . S
H794 C806 0.950 . S
H795 C807 0.950 . S
C796 H788 0.950 . S
C796 C797 1.386 . S
C796 C798 1.391 . S
C797 C796 1.386 . S
C797 C801 1.393 . S
C798 H790 0.950 . S
C798 C796 1.391 . S
C798 C799 1.400 . S
C799 C798 1.400 . S
C799 C800 1.398 . S
C799 C805 1.491 . S
C800 H791 0.950 . S
C800 C799 1.398 . S
C800 C801 1.391 . S
C801 H789 0.950 . S
C801 C797 1.393 . S
C801 C800 1.391 . S
C802 H792 0.950 . S
C802 C803 1.386 . S
C802 C804 1.391 . S
C803 C802 1.386 . S
C803 C807 1.393 . S
C804 H793 0.950 . S
C804 C802 1.391 . S
C804 C805 1.400 . S
C805 C799 1.491 . S
C805 C804 1.400 . S
C805 C806 1.398 . S
C806 H794 0.950 . S
C806 C805 1.398 . S
C806 C807 1.391 . S
C807 H795 0.950 . S
C807 C803 1.393 . S
C807 C806 1.391 . S
H808 C816 0.950 . S
H809 C821 0.950 . S
H810 C818 0.950 . S
H811 C820 0.950 . S
H812 C822 0.950 . S
H813 C824 0.950 . S
H814 C826 0.950 . S
H815 C827 0.950 . S
C816 H808 0.950 . S
C816 C817 1.386 . S
C816 C818 1.391 . S
C817 C816 1.386 . S
C817 C821 1.393 . S
C818 H810 0.950 . S
C818 C816 1.391 . S
C818 C819 1.400 . S
C819 C818 1.400 . S
C819 C820 1.398 . S
C819 C825 1.491 . S
C820 H811 0.950 . S
C820 C819 1.398 . S
C820 C821 1.391 . S
C821 H809 0.950 . S
C821 C817 1.393 . S
C821 C820 1.391 . S
C822 H812 0.950 . S
C822 C823 1.386 . S
C822 C824 1.391 . S
C823 C822 1.386 . S
C823 C827 1.393 . S
C824 H813 0.950 . S
C824 C822 1.391 . S
C824 C825 1.400 . S
C825 C819 1.491 . S
C825 C824 1.400 . S
C825 C826 1.398 . S
C826 H814 0.950 . S
C826 C825 1.398 . S
C826 C827 1.391 . S
C827 H815 0.950 . S
C827 C823 1.393 . S
C827 C826 1.391 . S
H828 C836 0.950 . S
H829 C841 0.950 . S
H830 C838 0.950 . S
H831 C840 0.950 . S
H832 C842 0.950 . S
H833 C844 0.950 . S
H834 C846 0.950 . S
H835 C847 0.950 . S
C836 H828 0.950 . S
C836 C837 1.386 . S
C836 C838 1.391 . S
C837 C836 1.386 . S
C837 C841 1.393 . S
C838 H830 0.950 . S
C838 C836 1.391 . S
C838 C839 1.400 . S
C839 C838 1.400 . S
C839 C840 1.398 . S
C839 C845 1.491 . S
C840 H831 0.950 . S
C840 C839 1.398 . S
C840 C841 1.391 . S
C841 H829 0.950 . S
C841 C837 1.393 . S
C841 C840 1.391 . S
C842 H832 0.950 . S
C842 C843 1.386 . S
C842 C844 1.391 . S
C843 C842 1.386 . S
C843 C847 1.393 . S
C844 H833 0.950 . S
C844 C842 1.391 . S
C844 C845 1.400 . S
C845 C839 1.491 . S
C845 C844 1.400 . S
C845 C846 1.398 . S
C846 H834 0.950 . S
C846 C845 1.398 . S
C846 C847 1.391 . S
C847 H835 0.950 . S
C847 C843 1.393 . S
C847 C846 1.391 . S
H848 C856 0.950 . S
H849 C861 0.950 . S
H850 C858 0.950 . S
H851 C860 0.950 . S
H852 C862 0.950 . S
H853 C864 0.950 . S
H854 C866 0.950 . S
H855 C867 0.950 . S
C856 H848 0.950 . S
C856 C857 1.386 . S
C856 C858 1.391 . S
C857 C856 1.386 . S
C857 C861 1.393 . S
C858 H850 0.950 . S
C858 C856 1.391 . S
C858 C859 1.400 . S
C859 C858 1.400 . S
C859 C860 1.398 . S
C859 C865 1.491 . S
C860 H851 0.950 . S
C860 C859 1.398 . S
C860 C861 1.391 . S
C861 H849 0.950 . S
C861 C857 1.393 . S
C861 C860 1.391 . S
C862 H852 0.950 . S
C862 C863 1.386 . S
C862 C864 1.391 . S
C863 C862 1.386 . S
C863 C867 1.393 . S
C864 H853 0.950 . S
C864 C862 1.391 . S
C864 C865 1.400 . S
C865 C859 1.491 . S
C865 C864 1.400 . S
C865 C866 1.398 . S
C866 H854 0.950 . S
C866 C865 1.398 . S
C866 C867 1.391 . S
C867 H855 0.950 . S
C867 C863 1.393 . S
C867 C866 1.391 . S
H868 C876 0.950 . S
H869 C881 0.950 . S
H870 C878 0.950 . S
H871 C880 0.950 . S
H872 C882 0.950 . S
H873 C884 0.950 . S
H874 C886 0.950 . S
H875 C887 0.950 . S
C876 H868 0.950 . S
C876 C877 1.386 . S
C876 C878 1.391 . S
C877 C876 1.386 . S
C877 C881 1.393 . S
C878 H870 0.950 . S
C878 C876 1.391 . S
C878 C879 1.400 . S
C879 C878 1.400 . S
C879 C880 1.398 . S
C879 C885 1.491 . S
C880 H871 0.950 . S
C880 C879 1.398 . S
C880 C881 1.391 . S
C881 H869 0.950 . S
C881 C877 1.393 . S
C881 C880 1.391 . S
C882 H872 0.950 . S
C882 C883 1.386 . S
C882 C884 1.391 . S
C883 C882 1.386 . S
C883 C887 1.393 . S
C884 H873 0.950 . S
C884 C882 1.391 . S
C884 C885 1.400 . S
C885 C879 1.491 . S
C885 C884 1.400 . S
C885 C886 1.398 . S
C886 H874 0.950 . S
C886 C885 1.398 . S
C886 C887 1.391 . S
C887 H875 0.950 . S
C887 C883 1.393 . S
C887 C886 1.391 . S
H888 C896 0.950 . S
H889 C901 0.950 . S
H890 C898 0.950 . S
H891 C900 0.950 . S
H892 C902 0.950 . S
H893 C904 0.950 . S
H894 C906 0.950 . S
H895 C907 0.950 . S
C896 H888 0.950 . S
C896 C897 1.386 . S
C896 C898 1.391 . S
C897 C896 1.386 . S
C897 C901 1.393 . S
C898 H890 0.950 . S
C898 C896 1.391 . S
C898 C899 1.400 . S
C899 C898 1.400 . S
C899 C900 1.398 . S
C899 C905 1.491 . S
C900 H891 0.950 . S
C900 C899 1.398 . S
C900 C901 1.391 . S
C901 H889 0.950 . S
C901 C897 1.393 . S
C901 C900 1.391 . S
C902 H892 0.950 . S
C902 C903 1.386 . S
C902 C904 1.391 . S
C903 C902 1.386 . S
C903 C907 1.393 . S
C904 H893 0.950 . S
C904 C902 1.391 . S
C904 C905 1.400 . S
C905 C899 1.491 . S
C905 C904 1.400 . S
C905 C906 1.398 . S
C906 H894 0.950 . S
C906 C905 1.398 . S
C906 C907 1.391 . S
C907 H895 0.950 . S
C907 C903 1.393 . S
C907 C906 1.391 . S
H908 C916 0.950 . S
H909 C921 0.950 . S
H910 C918 0.950 . S
H911 C920 0.950 . S
H912 C922 0.950 . S
H913 C924 0.950 . S
H914 C926 0.950 . S
H915 C927 0.950 . S
C916 H908 0.950 . S
C916 C917 1.386 . S
C916 C918 1.391 . S
C917 C916 1.386 . S
C917 C921 1.393 . S
C918 H910 0.950 . S
C918 C916 1.391 . S
C918 C919 1.400 . S
C919 C918 1.400 . S
C919 C920 1.398 . S
C919 C925 1.491 . S
C920 H911 0.950 . S
C920 C919 1.398 . S
C920 C921 1.391 . S
C921 H909 0.950 . S
C921 C917 1.393 . S
C921 C920 1.391 . S
C922 H912 0.950 . S
C922 C923 1.386 . S
C922 C924 1.391 . S
C923 C922 1.386 . S
C923 C927 1.393 . S
C924 H913 0.950 . S
C924 C922 1.391 . S
C924 C925 1.400 . S
C925 C919 1.491 . S
C925 C924 1.400 . S
C925 C926 1.398 . S
C926 H914 0.950 . S
C926 C925 1.398 . S
C926 C927 1.391 . S
C927 H915 0.950 . S
C927 C923 1.393 . S
C927 C926 1.391 . S
H928 C936 0.950 . S
H929 C941 0.950 . S
H930 C938 0.950 . S
H931 C940 0.950 . S
H932 C942 0.950 . S
H933 C944 0.950 . S
H934 C946 0.950 . S
H935 C947 0.950 . S
C936 H928 0.950 . S
C936 C937 1.386 . S
C936 C938 1.391 . S
C937 C936 1.386 . S
C937 C941 1.393 . S
C938 H930 0.950 . S
C938 C936 1.391 . S
C938 C939 1.400 . S
C939 C938 1.400 . S
C939 C940 1.398 . S
C939 C945 1.491 . S
C940 H931 0.950 . S
C940 C939 1.398 . S
C940 C941 1.391 . S
C941 H929 0.950 . S
C941 C937 1.393 . S
C941 C940 1.391 . S
C942 H932 0.950 . S
C942 C943 1.386 . S
C942 C944 1.391 . S
C943 C942 1.386 . S
C943 C947 1.393 . S
C944 H933 0.950 . S
C944 C942 1.391 . S
C944 C945 1.400 . S
C945 C939 1.491 . S
C945 C944 1.400 . S
C945 C946 1.398 . S
C946 H934 0.950 . S
C946 C945 1.398 . S
C946 C947 1.391 . S
C947 H935 0.950 . S
C947 C943 1.393 . S
C947 C946 1.391 . S
H948 C956 0.950 . S
H949 C961 0.950 . S
H950 C958 0.950 . S
H951 C960 0.950 . S
H952 C962 0.950 . S
H953 C964 0.950 . S
H954 C966 0.950 . S
H955 C967 0.950 . S
C956 H948 0.950 . S
C956 C957 1.386 . S
C956 C958 1.391 . S
C957 C956 1.386 . S
C957 C961 1.393 . S
C958 H950 0.950 . S
C958 C956 1.391 . S
C958 C959 1.400 . S
C959 C958 1.400 . S
C959 C960 1.398 . S
C959 C965 1.491 . S
C960 H951 0.950 . S
C960 C959 1.398 . S
C960 C961 1.391 . S
C961 H949 0.950 . S
C961 C957 1.393 . S
C961 C960 1.391 . S
C962 H952 0.950 . S
C962 C963 1.386 . S
C962 C964 1.391 . S
C963 C962 1.386 . S
C963 C967 1.393 . S
C964 H953 0.950 . S
C964 C962 1.391 . S
C964 C965 1.400 . S
C965 C959 1.491 . S
C965 C964 1.400 . S
C965 C966 1.398 . S
C966 H954 0.950 . S
C966 C965 1.398 . S
C966 C967 1.391 . S
C967 H955 0.950 . S
C967 C963 1.393 . S
C967 C966 1.391 . S
H968 C976 0.950 . S
H969 C981 0.950 . S
H970 C978 0.950 . S
H971 C980 0.950 . S
H972 C982 0.950 . S
H973 C984 0.950 . S
H974 C986 0.950 . S
H975 C987 0.950 . S
C976 H968 0.950 . S
C976 C977 1.386 . S
C976 C978 1.391 . S
C977 C976 1.386 . S
C977 C981 1.393 . S
C978 H970 0.950 . S
C978 C976 1.391 . S
C978 C979 1.400 . S
C979 C978 1.400 . S
C979 C980 1.398 . S
C979 C985 1.491 . S
C980 H971 0.950 . S
C980 C979 1.398 . S
C980 C981 1.391 . S
C981 H969 0.950 . S
C981 C977 1.393 . S
C981 C980 1.391 . S
C982 H972 0.950 . S
C982 C983 1.386 . S
C982 C984 1.391 . S
C983 C982 1.386 . S
C983 C987 1.393 . S
C984 H973 0.950 . S
C984 C982 1.391 . S
C984 C985 1.400 . S
C985 C979 1.491 . S
C985 C984 1.400 . S
C985 C986 1.398 . S
C986 H974 0.950 . S
C986 C985 1.398 . S
C986 C987 1.391 . S
C987 H975 0.950 . S
C987 C983 1.393 . S
C987 C986 1.391 . S
H988 C996 0.950 . S
H989 C1001 0.950 . S
H990 C998 0.950 . S
H991 C1000 0.950 . S
H992 C1002 0.950 . S
H993 C1004 0.950 . S
H994 C1006 0.950 . S
H995 C1007 0.950 . S
C996 H988 0.950 . S
C996 C997 1.386 . S
C996 C998 1.391 . S
C997 C996 1.386 . S
C997 C1001 1.393 . S
C998 H990 0.950 . S
C998 C996 1.391 . S
C998 C999 1.400 . S
C999 C998 1.400 . S
C999 C1000 1.398 . S
C999 C1005 1.491 . S
C1000 H991 0.950 . S
C1000 C999 1.398 . S
C1000 C1001 1.391 . S
C1001 H989 0.950 . S
C1001 C997 1.393 . S
C1001 C1000 1.391 . S
C1002 H992 0.950 . S
C1002 C1003 1.386 . S
C1002 C1004 1.391 . S
C1003 C1002 1.386 . S
C1003 C1007 1.393 . S
C1004 H993 0.950 . S
C1004 C1002 1.391 . S
C1004 C1005 1.400 . S
C1005 C999 1.491 . S
C1005 C1004 1.400 . S
C1005 C1006 1.398 . S
C1006 H994 0.950 . S
C1006 C1005 1.398 . S
C1006 C1007 1.391 . S
C1007 H995 0.950 . S
C1007 C1003 1.393 . S
C1007 C1006 1.391 . S
H1008 C1016 0.950 . S
H1009 C1021 0.950 . S
H1010 C1018 0.950 . S
H1011 C1020 0.950 . S
H1012 C1022 0.950 . S
H1013 C1024 0.950 . S
H1014 C1026 0.950 . S
H1015 C1027 0.950 . S
C1016 H1008 0.950 . S
C1016 C1017 1.386 . S
C1016 C1018 1.391 . S
C1017 C1016 1.386 . S
C1017 C1021 1.393 . S
C1018 H1010 0.950 . S
C1018 C1016 1.391 . S
C1018 C1019 1.400 . S
C1019 C1018 1.400 . S
C1019 C1020 1.398 . S
C1019 C1025 1.491 . S
C1020 H1011 0.950 . S
C1020 C1019 1.398 . S
C1020 C1021 1.391 . S
C1021 H1009 0.950 . S
C1021 C1017 1.393 . S
C1021 C1020 1.391 . S
C1022 H1012 0.950 . S
C1022 C1023 1.386 . S
C1022 C1024 1.391 . S
C1023 C1022 1.386 . S
C1023 C1027 1.393 . S
C1024 H1013 0.950 . S
C1024 C1022 1.391 . S
C1024 C1025 1.400 . S
C1025 C1019 1.491 . S
C1025 C1024 1.400 . S
C1025 C1026 1.398 . S
C1026 H1014 0.950 . S
C1026 C1025 1.398 . S
C1026 C1027 1.391 . S
C1027 H1015 0.950 . S
C1027 C1023 1.393 . S
C1027 C1026 1.391 . S
H1028 C1036 0.950 . S
H1029 C1041 0.950 . S
H1030 C1038 0.950 . S
H1031 C1040 0.950 . S
H1032 C1042 0.950 . S
H1033 C1044 0.950 . S
H1034 C1046 0.950 . S
H1035 C1047 0.950 . S
C1036 H1028 0.950 . S
C1036 C1037 1.386 . S
C1036 C1038 1.391 . S
C1037 C1036 1.386 . S
C1037 C1041 1.393 . S
C1038 H1030 0.950 . S
C1038 C1036 1.391 . S
C1038 C1039 1.400 . S
C1039 C1038 1.400 . S
C1039 C1040 1.398 . S
C1039 C1045 1.491 . S
C1040 H1031 0.950 . S
C1040 C1039 1.398 . S
C1040 C1041 1.391 . S
C1041 H1029 0.950 . S
C1041 C1037 1.393 . S
C1041 C1040 1.391 . S
C1042 H1032 0.950 . S
C1042 C1043 1.386 . S
C1042 C1044 1.391 . S
C1043 C1042 1.386 . S
C1043 C1047 1.393 . S
C1044 H1033 0.950 . S
C1044 C1042 1.391 . S
C1044 C1045 1.400 . S
C1045 C1039 1.491 . S
C1045 C1044 1.400 . S
C1045 C1046 1.398 . S
C1046 H1034 0.950 . S
C1046 C1045 1.398 . S
C1046 C1047 1.391 . S
C1047 H1035 0.950 . S
C1047 C1043 1.393 . S
C1047 C1046 1.391 . S
H1048 C1056 0.950 . S
H1049 C1061 0.950 . S
H1050 C1058 0.950 . S
H1051 C1060 0.950 . S
H1052 C1062 0.950 . S
H1053 C1064 0.950 . S
H1054 C1066 0.950 . S
H1055 C1067 0.950 . S
C1056 H1048 0.950 . S
C1056 C1057 1.386 . S
C1056 C1058 1.391 . S
C1057 C1056 1.386 . S
C1057 C1061 1.393 . S
C1058 H1050 0.950 . S
C1058 C1056 1.391 . S
C1058 C1059 1.400 . S
C1059 C1058 1.400 . S
C1059 C1060 1.398 . S
C1059 C1065 1.491 . S
C1060 H1051 0.950 . S
C1060 C1059 1.398 . S
C1060 C1061 1.391 . S
C1061 H1049 0.950 . S
C1061 C1057 1.393 . S
C1061 C1060 1.391 . S
C1062 H1052 0.950 . S
C1062 C1063 1.386 . S
C1062 C1064 1.391 . S
C1063 C1062 1.386 . S
C1063 C1067 1.393 . S
C1064 H1053 0.950 . S
C1064 C1062 1.391 . S
C1064 C1065 1.400 . S
C1065 C1059 1.491 . S
C1065 C1064 1.400 . S
C1065 C1066 1.398 . S
C1066 H1054 0.950 . S
C1066 C1065 1.398 . S
C1066 C1067 1.391 . S
C1067 H1055 0.950 . S
C1067 C1063 1.393 . S
C1067 C1066 1.391 . S
H1068 C1076 0.950 . S
H1069 C1081 0.950 . S
H1070 C1078 0.950 . S
H1071 C1080 0.950 . S
H1072 C1082 0.950 . S
H1073 C1084 0.950 . S
H1074 C1086 0.950 . S
H1075 C1087 0.950 . S
C1076 H1068 0.950 . S
C1076 C1077 1.386 . S
C1076 C1078 1.391 . S
C1077 C1076 1.386 . S
C1077 C1081 1.393 . S
C1078 H1070 0.950 . S
C1078 C1076 1.391 . S
C1078 C1079 1.400 . S
C1079 C1078 1.400 . S
C1079 C1080 1.398 . S
C1079 C1085 1.491 . S
C1080 H1071 0.950 . S
C1080 C1079 1.398 . S
C1080 C1081 1.391 . S
C1081 H1069 0.950 . S
C1081 C1077 1.393 . S
C1081 C1080 1.391 . S
C1082 H1072 0.950 . S
C1082 C1083 1.386 . S
C1082 C1084 1.391 . S
C1083 C1082 1.386 . S
C1083 C1087 1.393 . S
C1084 H1073 0.950 . S
C1084 C1082 1.391 . S
C1084 C1085 1.400 1_554 S
C1085 C1079 1.491 . S
C1085 C1084 1.400 1_556 S
C1085 C1086 1.398 . S
C1086 H1074 0.950 . S
C1086 C1085 1.398 . S
C1086 C1087 1.391 1_556 S
C1087 H1075 0.950 . S
C1087 C1083 1.393 . S
C1087 C1086 1.391 1_554 S
H1088 C1096 0.950 . S
H1089 C1101 0.950 . S
H1090 C1098 0.950 . S
H1091 C1100 0.950 . S
H1092 C1102 0.950 . S
H1093 C1104 0.950 . S
H1094 C1106 0.950 . S
H1095 C1107 0.950 . S
C1096 H1088 0.950 . S
C1096 C1097 1.386 . S
C1096 C1098 1.391 . S
C1097 C1096 1.386 . S
C1097 C1101 1.393 . S
C1098 H1090 0.950 . S
C1098 C1096 1.391 . S
C1098 C1099 1.400 . S
C1099 C1098 1.400 . S
C1099 C1100 1.398 . S
C1099 C1105 1.491 . S
C1100 H1091 0.950 . S
C1100 C1099 1.398 . S
C1100 C1101 1.391 . S
C1101 H1089 0.950 . S
C1101 C1097 1.393 . S
C1101 C1100 1.391 . S
C1102 H1092 0.950 . S
C1102 C1103 1.386 . S
C1102 C1104 1.391 . S
C1103 C1102 1.386 . S
C1103 C1107 1.393 . S
C1104 H1093 0.950 . S
C1104 C1102 1.391 . S
C1104 C1105 1.400 . S
C1105 C1099 1.491 . S
C1105 C1104 1.400 . S
C1105 C1106 1.398 . S
C1106 H1094 0.950 . S
C1106 C1105 1.398 . S
C1106 C1107 1.391 . S
C1107 H1095 0.950 . S
C1107 C1103 1.393 . S
C1107 C1106 1.391 . S
H1108 C1116 0.950 . S
H1109 C1121 0.950 . S
H1110 C1118 0.950 . S
H1111 C1120 0.950 . S
H1112 C1122 0.950 . S
H1113 C1124 0.950 . S
H1114 C1126 0.950 . S
H1115 C1127 0.950 . S
C1116 H1108 0.950 . S
C1116 C1117 1.386 . S
C1116 C1118 1.391 . S
C1117 C1116 1.386 . S
C1117 C1121 1.393 . S
C1118 H1110 0.950 . S
C1118 C1116 1.391 . S
C1118 C1119 1.400 . S
C1119 C1118 1.400 . S
C1119 C1120 1.398 . S
C1119 C1125 1.491 . S
C1120 H1111 0.950 . S
C1120 C1119 1.398 . S
C1120 C1121 1.391 . S
C1121 H1109 0.950 . S
C1121 C1117 1.393 . S
C1121 C1120 1.391 . S
C1122 H1112 0.950 . S
C1122 C1123 1.386 . S
C1122 C1124 1.391 . S
C1123 C1122 1.386 . S
C1123 C1127 1.393 . S
C1124 H1113 0.950 . S
C1124 C1122 1.391 . S
C1124 C1125 1.400 . S
C1125 C1119 1.491 . S
C1125 C1124 1.400 . S
C1125 C1126 1.398 . S
C1126 H1114 0.950 . S
C1126 C1125 1.398 . S
C1126 C1127 1.391 . S
C1127 H1115 0.950 . S
C1127 C1123 1.393 . S
C1127 C1126 1.391 . S
H1128 C1136 0.950 . S
H1129 C1141 0.950 . S
H1130 C1138 0.950 . S
H1131 C1140 0.950 . S
H1132 C1142 0.950 . S
H1133 C1144 0.950 . S
H1134 C1146 0.950 . S
H1135 C1147 0.950 . S
C1136 H1128 0.950 . S
C1136 C1137 1.386 . S
C1136 C1138 1.391 . S
C1137 C1136 1.386 . S
C1137 C1141 1.393 . S
C1138 H1130 0.950 . S
C1138 C1136 1.391 . S
C1138 C1139 1.400 . S
C1139 C1138 1.400 . S
C1139 C1140 1.398 . S
C1139 C1145 1.491 . S
C1140 H1131 0.950 . S
C1140 C1139 1.398 . S
C1140 C1141 1.391 . S
C1141 H1129 0.950 . S
C1141 C1137 1.393 . S
C1141 C1140 1.391 . S
C1142 H1132 0.950 . S
C1142 C1143 1.386 . S
C1142 C1144 1.391 . S
C1143 C1142 1.386 . S
C1143 C1147 1.393 . S
C1144 H1133 0.950 . S
C1144 C1142 1.391 . S
C1144 C1145 1.400 . S
C1145 C1139 1.491 . S
C1145 C1144 1.400 . S
C1145 C1146 1.398 . S
C1146 H1134 0.950 . S
C1146 C1145 1.398 . S
C1146 C1147 1.391 . S
C1147 H1135 0.950 . S
C1147 C1143 1.393 . S
C1147 C1146 1.391 . S
H1148 C1156 0.950 . S
H1149 C1161 0.950 . S
H1150 C1158 0.950 . S
H1151 C1160 0.950 . S
H1152 C1162 0.950 . S
H1153 C1164 0.950 . S
H1154 C1166 0.950 . S
H1155 C1167 0.950 . S
C1156 H1148 0.950 . S
C1156 C1157 1.386 . S
C1156 C1158 1.391 . S
C1157 C1156 1.386 . S
C1157 C1161 1.393 . S
C1158 H1150 0.950 . S
C1158 C1156 1.391 . S
C1158 C1159 1.400 . S
C1159 C1158 1.400 . S
C1159 C1160 1.398 . S
C1159 C1165 1.491 . S
C1160 H1151 0.950 . S
C1160 C1159 1.398 . S
C1160 C1161 1.391 . S
C1161 H1149 0.950 . S
C1161 C1157 1.393 . S
C1161 C1160 1.391 . S
C1162 H1152 0.950 . S
C1162 C1163 1.386 . S
C1162 C1164 1.391 . S
C1163 C1162 1.386 . S
C1163 C1167 1.393 . S
C1164 H1153 0.950 . S
C1164 C1162 1.391 . S
C1164 C1165 1.400 . S
C1165 C1159 1.491 . S
C1165 C1164 1.400 . S
C1165 C1166 1.398 . S
C1166 H1154 0.950 . S
C1166 C1165 1.398 . S
C1166 C1167 1.391 . S
C1167 H1155 0.950 . S
C1167 C1163 1.393 . S
C1167 C1166 1.391 . S
H1168 C1176 0.950 . S
H1169 C1181 0.950 . S
H1170 C1178 0.950 . S
H1171 C1180 0.950 . S
H1172 C1182 0.950 . S
H1173 C1184 0.950 . S
H1174 C1186 0.950 . S
H1175 C1187 0.950 . S
C1176 H1168 0.950 . S
C1176 C1177 1.386 . S
C1176 C1178 1.391 . S
C1177 C1176 1.386 . S
C1177 C1181 1.393 . S
C1178 H1170 0.950 . S
C1178 C1176 1.391 . S
C1178 C1179 1.400 . S
C1179 C1178 1.400 . S
C1179 C1180 1.398 . S
C1179 C1185 1.491 . S
C1180 H1171 0.950 . S
C1180 C1179 1.398 . S
C1180 C1181 1.391 . S
C1181 H1169 0.950 . S
C1181 C1177 1.393 . S
C1181 C1180 1.391 . S
C1182 H1172 0.950 . S
C1182 C1183 1.386 . S
C1182 C1184 1.391 . S
C1183 C1182 1.386 . S
C1183 C1187 1.393 . S
C1184 H1173 0.950 . S
C1184 C1182 1.391 . S
C1184 C1185 1.400 . S
C1185 C1179 1.491 . S
C1185 C1184 1.400 . S
C1185 C1186 1.398 . S
C1186 H1174 0.950 . S
C1186 C1185 1.398 . S
C1186 C1187 1.391 . S
C1187 H1175 0.950 . S
C1187 C1183 1.393 . S
C1187 C1186 1.391 . S
H1188 C1196 0.950 . S
H1189 C1201 0.950 . S
H1190 C1198 0.950 . S
H1191 C1200 0.950 . S
H1192 C1202 0.950 . S
H1193 C1204 0.950 . S
H1194 C1206 0.950 . S
H1195 C1207 0.950 . S
C1196 H1188 0.950 . S
C1196 C1197 1.386 . S
C1196 C1198 1.391 . S
C1197 C1196 1.386 . S
C1197 C1201 1.393 . S
C1198 H1190 0.950 . S
C1198 C1196 1.391 . S
C1198 C1199 1.400 . S
C1199 C1198 1.400 . S
C1199 C1200 1.398 . S
C1199 C1205 1.491 . S
C1200 H1191 0.950 . S
C1200 C1199 1.398 . S
C1200 C1201 1.391 . S
C1201 H1189 0.950 . S
C1201 C1197 1.393 . S
C1201 C1200 1.391 . S
C1202 H1192 0.950 . S
C1202 C1203 1.386 . S
C1202 C1204 1.391 . S
C1203 C1202 1.386 . S
C1203 C1207 1.393 . S
C1204 H1193 0.950 . S
C1204 C1202 1.391 . S
C1204 C1205 1.400 . S
C1205 C1199 1.491 . S
C1205 C1204 1.400 . S
C1205 C1206 1.398 . S
C1206 H1194 0.950 . S
C1206 C1205 1.398 . S
C1206 C1207 1.391 . S
C1207 H1195 0.950 . S
C1207 C1203 1.393 . S
C1207 C1206 1.391 . S
H1208 C1216 0.950 . S
H1209 C1221 0.950 . S
H1210 C1218 0.950 1_556 S
H1211 C1220 0.950 . S
H1212 C1222 0.950 . S
H1213 C1224 0.950 . S
H1214 C1226 0.950 . S
H1215 C1227 0.950 . S
C1216 H1208 0.950 . S
C1216 C1217 1.386 . S
C1216 C1218 1.391 . S
C1217 C1216 1.386 . S
C1217 C1221 1.393 . S
C1218 H1210 0.950 1_554 S
C1218 C1216 1.391 . S
C1218 C1219 1.400 . S
C1219 C1218 1.400 . S
C1219 C1220 1.398 . S
C1219 C1225 1.491 1_554 S
C1220 H1211 0.950 . S
C1220 C1219 1.398 . S
C1220 C1221 1.391 . S
C1221 H1209 0.950 . S
C1221 C1217 1.393 . S
C1221 C1220 1.391 . S
C1222 H1212 0.950 . S
C1222 C1223 1.386 . S
C1222 C1224 1.391 . S
C1223 C1222 1.386 . S
C1223 C1227 1.393 . S
C1224 H1213 0.950 . S
C1224 C1222 1.391 . S
C1224 C1225 1.400 . S
C1225 C1219 1.491 1_556 S
C1225 C1224 1.400 . S
C1225 C1226 1.398 . S
C1226 H1214 0.950 . S
C1226 C1225 1.398 . S
C1226 C1227 1.391 . S
C1227 H1215 0.950 . S
C1227 C1223 1.393 . S
C1227 C1226 1.391 . S
H1228 C1236 0.950 . S
H1229 C1241 0.950 . S
H1230 C1238 0.950 . S
H1231 C1240 0.950 . S
H1232 C1242 0.950 . S
H1233 C1244 0.950 . S
H1234 C1246 0.950 . S
H1235 C1247 0.950 . S
C1236 H1228 0.950 . S
C1236 C1237 1.386 . S
C1236 C1238 1.391 . S
C1237 C1236 1.386 . S
C1237 C1241 1.393 . S
C1238 H1230 0.950 . S
C1238 C1236 1.391 . S
C1238 C1239 1.400 . S
C1239 C1238 1.400 . S
C1239 C1240 1.398 . S
C1239 C1245 1.491 . S
C1240 H1231 0.950 . S
C1240 C1239 1.398 . S
C1240 C1241 1.391 . S
C1241 H1229 0.950 . S
C1241 C1237 1.393 . S
C1241 C1240 1.391 . S
C1242 H1232 0.950 . S
C1242 C1243 1.386 . S
C1242 C1244 1.391 . S
C1243 C1242 1.386 . S
C1243 C1247 1.393 . S
C1244 H1233 0.950 . S
C1244 C1242 1.391 . S
C1244 C1245 1.400 . S
C1245 C1239 1.491 . S
C1245 C1244 1.400 . S
C1245 C1246 1.398 . S
C1246 H1234 0.950 . S
C1246 C1245 1.398 . S
C1246 C1247 1.391 . S
C1247 H1235 0.950 . S
C1247 C1243 1.393 . S
C1247 C1246 1.391 . S
C783 C757 1.681 . S
C777 C1 1.307 . S
C797 C169 1.526 . S
C803 C687 1.806 . S
C817 C283 1.485 . S
C823 C706 1.809 . S
C837 C397 1.390 . S
C843 C715 1.657 . S
C863 C729 1.508 . S
C857 C457 1.119 . S
C877 C571 1.186 . S
C883 C748 1.587 . S
C897 C115 1.234 . S
C903 C701 1.652 . S
C917 C229 1.194 . S
C923 C720 1.550 . S
C937 C343 1.116 . S
C943 C734 1.523 . S
C963 C743 1.595 . S
C957 C511 1.324 . S
C983 C762 1.791 . S
C977 C625 1.466 . S
C1003 C692 1.797 . S
C997 C55 1.508 . S
C1017 C29 1.194 . S
C1023 C707 1.431 . S
C1037 C125 0.904 . S
C1043 C719 1.507 . S
C1063 C733 1.456 . S
C1057 C239 0.903 . S
C1077 C353 0.935 . S
C1083 C749 1.464 . S
C1103 C761 1.344 . S
C1097 C485 1.085 . S
C1123 C691 1.421 . S
C1117 C599 1.121 . S
C1143 C763 1.439 . S
C1137 C143 1.198 . S
C1157 C257 1.151 . S
C1163 C693 1.472 . S
C1183 C705 1.375 . S
C1177 C371 1.121 . S
C1197 C467 0.885 . S
C1203 C721 1.453 . S
C1217 C581 0.927 . S
C1223 C735 1.482 . S
C1237 C11 0.951 . S
C1243 C747 1.520 . S
