# Generated by pormake.
# Topology pyr, (3,6)-cn, num edge types: 1
# Building blocks:
#     Node 0, Type 0, BuildingBlock: PAMTOO_clean_linker_0, # of connection points: 3
#     Node 1, Type 0, BuildingBlock: PAMTOO_clean_linker_0, # of connection points: 3
#     Node 2, Type 0, BuildingBlock: PAMTOO_clean_linker_0, # of connection points: 3
#     Node 3, Type 0, BuildingBlock: PAMTOO_clean_linker_0, # of connection points: 3
#     Node 4, Type 0, BuildingBlock: PAMTOO_clean_linker_0, # of connection points: 3
#     Node 5, Type 0, BuildingBlock: PAMTOO_clean_linker_0, # of connection points: 3
#     Node 6, Type 0, BuildingBlock: PAMTOO_clean_linker_0, # of connection points: 3
#     Node 7, Type 0, BuildingBlock: PAMTOO_clean_linker_0, # of connection points: 3
#     Node 8, Type 1, BuildingBlock: BETDIP_clean_sbu_0, # of connection points: 6
#     Node 9, Type 1, BuildingBlock: BETDIP_clean_sbu_0, # of connection points: 6
#     Node 10, Type 1, BuildingBlock: BETDIP_clean_sbu_0, # of connection points: 6
#     Node 11, Type 1, BuildingBlock: BETDIP_clean_sbu_0, # of connection points: 6
#     Edge 12, Type (0, 1), None
#     Edge 13, Type (0, 1), None
#     Edge 14, Type (0, 1), None
#     Edge 15, Type (0, 1), None
#     Edge 16, Type (0, 1), None
#     Edge 17, Type (0, 1), None
#     Edge 18, Type (0, 1), None
#     Edge 19, Type (0, 1), None
#     Edge 20, Type (0, 1), None
#     Edge 21, Type (0, 1), None
#     Edge 22, Type (0, 1), None
#     Edge 23, Type (0, 1), None
#     Edge 24, Type (0, 1), None
#     Edge 25, Type (0, 1), None
#     Edge 26, Type (0, 1), None
#     Edge 27, Type (0, 1), None
#     Edge 28, Type (0, 1), None
#     Edge 29, Type (0, 1), None
#     Edge 30, Type (0, 1), None
#     Edge 31, Type (0, 1), None
#     Edge 32, Type (0, 1), None
#     Edge 33, Type (0, 1), None
#     Edge 34, Type (0, 1), None
#     Edge 35, Type (0, 1), None
# Relax obj value: 0.489
# Max RMSD: 0.342
# Mean RMSD: 0.165
data_MOF--net-pyr--node1-BETDIP_clean_sbu_0--node2-PAMTOO_clean_linker_0--edge1-none
_symmetry_space_group_name_H-M    P1
_symmetry_Int_Tables_number       1
_symmetry_cell_setting            triclinic
loop_
_symmetry_equiv_pos_as_xyz
'x, y, z'
_cell_length_a     17.148869
_cell_length_b     17.399412
_cell_length_c     16.906203
_cell_angle_alpha  91.679942
_cell_angle_beta   93.538907
_cell_angle_gamma 114.33443
loop_
_atom_site_label
_atom_site_type_symbol
_atom_site_fract_x
_atom_site_fract_y
_atom_site_fract_z
_atom_type_partial_charge
H0 H 0.28509 0.30959 0.41745 0.0
H1 H 0.53341 0.3116 0.46181 0.0
H2 H 0.4774 0.42107 0.25267 0.0
H3 H 0.65479 0.33442 0.41003 0.0
C4 C 0.65136 0.35375 0.34849 0.0
O5 O 0.59958 0.39751 0.33972 0.0
H6 H 0.71781 0.39764 0.33741 0.0
C7 C 0.348 0.32273 0.39734 0.0
C8 C 0.37167 0.36337 0.32667 0.0
C9 C 0.40694 0.30539 0.44605 0.0
C10 C 0.48854 0.32427 0.42257 0.0
C11 C 0.5151 0.3663 0.35341 0.0
C12 C 0.45627 0.38566 0.30473 0.0
H13 H 1.00372 1.01375 0.96695 0.0
H14 H 0.06206 0.94399 0.74006 0.0
H15 H 0.20253 0.92385 0.94927 0.0
H16 H 0.28671 0.99839 0.80765 0.0
C17 C 0.25401 0.93945 0.76867 0.0
O18 O 0.17646 0.88847 0.79794 0.0
H19 H 0.24048 0.95815 0.70883 0.0
C20 C 0.03821 0.98636 0.93242 0.0
C21 C 0.10596 0.97193 0.96874 0.0
C22 C 1.02544 0.98206 0.85041 0.0
C23 C 0.06896 0.94513 0.80424 0.0
C24 C 0.1302 0.91998 0.84099 0.0
C25 C 0.1494 0.93526 0.92299 0.0
H26 H 0.76939 0.40238 0.13768 0.0
H27 H 0.59255 0.38786 0.93866 0.0
H28 H 0.83775 0.60489 0.9777 0.0
H29 H 0.65953 0.6343 0.91007 0.0
C30 C 0.64271 0.58473 0.86113 0.0
O31 O 0.69372 0.53775 0.87658 0.0
H32 H 0.57462 0.54131 0.86665 0.0
C33 C 0.7531 0.42997 1.0861 0.0
C34 C 0.81367 0.5086 1.06419 0.0
C35 C 0.67356 0.38411 1.04261 0.0
C36 C 0.65279 0.42241 0.9737 0.0
C37 C 0.71002 0.50455 0.94896 0.0
C38 C 0.79127 0.54519 0.99562 0.0
H39 H 0.85851 0.92151 0.6364 0.0
H40 H 0.82347 0.70306 0.48614 0.0
H41 H 0.04991 0.9371 0.47498 0.0
H42 H 0.91721 0.77747 0.3036 0.0
C43 C 0.93783 0.73355 0.33613 0.0
O44 O 0.973 0.77254 0.41434 0.0
H45 H 0.87846 0.67654 0.34434 0.0
C46 C 0.88103 0.89255 0.59072 0.0
C47 C 0.96109 0.94146 0.5608 0.0
C48 C 0.82957 0.80723 0.56527 0.0
C49 C 0.86095 0.76873 0.50512 0.0
C50 C 0.9396 0.8142 0.46825 0.0
C51 C 0.98861 0.90148 0.49817 0.0
H52 H 0.50158 1.08068 0.8716 0.0
H53 H 0.57025 0.9347 1.04121 0.0
H54 H 0.70928 1.00995 0.83574 0.0
H55 H 0.67873 0.83805 0.87869 0.0
C56 C 0.69373 0.85 0.9438 0.0
O57 O 0.69804 0.92924 0.96573 0.0
H58 H 0.64109 0.80181 0.97393 0.0
C59 C 0.53477 1.04114 0.88707 0.0
C60 C 0.60196 1.0445 0.84332 0.0
C61 C 0.52715 1.00743 0.9614 0.0
C62 C 0.57383 0.95875 0.98247 0.0
C63 C 0.64001 0.95897 0.93706 0.0
C64 C 0.65455 1.00371 0.86815 0.0
H65 H 0.09204 0.27856 0.42524 0.0
H66 H 0.91936 0.40295 0.42248 0.0
H67 H 0.0489 0.38705 0.63927 0.0
H68 H 0.88267 0.40544 0.67206 0.0
C69 C 0.86997 0.39704 0.60642 0.0
O70 O 0.9449 0.44516 0.5721 0.0
H71 H 0.84887 0.3283 0.59131 0.0
C72 C 0.06447 0.31699 0.45379 0.0
C73 C 0.07578 0.3287 0.53602 0.0
C74 C 1.00387 0.33845 0.41173 0.0
C75 C 0.96885 0.38783 0.4515 0.0
C76 C 0.98895 0.40921 0.53272 0.0
C77 C 0.04316 0.38017 0.57497 0.0
H78 H 0.34506 0.90742 0.16225 0.0
H79 H 0.29119 0.6985 0.31349 0.0
H80 H 0.52855 0.92238 0.35559 0.0
H81 H 0.38406 0.73923 0.49694 0.0
C82 C 0.45092 0.76008 0.4799 0.0
O83 O 0.44803 0.76038 0.39513 0.0
H84 H 0.48828 0.826 0.50456 0.0
C85 C 0.36276 0.88001 0.21311 0.0
C86 C 0.44153 0.92929 0.25919 0.0
C87 C 0.30595 0.79647 0.23121 0.0
C88 C 0.33273 0.76113 0.29818 0.0
C89 C 0.41462 0.804 0.34318 0.0
C90 C 0.46666 0.88871 0.32286 0.0
H91 H 1.02344 0.38159 0.9408 0.0
H92 H 0.23126 0.62405 0.90314 0.0
H93 H 0.18235 0.40983 0.74474 0.0
H94 H 0.33376 0.47579 0.76808 0.0
C95 C 0.35433 0.54537 0.77217 0.0
O96 O 0.28248 0.56419 0.77607 0.0
H97 H 0.39602 0.57004 0.82828 0.0
C98 C 0.07627 0.42057 0.90777 0.0
C99 C 0.09741 0.38118 0.83871 0.0
C100 C 0.12287 0.51111 0.93302 0.0
C101 C 0.19312 0.55764 0.88715 0.0
C102 C 0.21499 0.51985 0.82059 0.0
C103 C 0.16526 0.43485 0.79709 0.0
Tb104 Tb 0.9565 0.15197 0.69938 0.0
Tb105 Tb 0.12013 0.1652 0.70491 0.0
C106 C 0.80953 1.13451 0.64558 0.0
C107 C 0.74545 0.16289 0.66932 0.0
C108 C 0.66066 1.10768 0.64516 0.0
C109 C 0.60268 1.07745 0.70278 0.0
C110 C 0.6304 1.10527 0.78208 0.0
C111 C 0.70592 0.17862 0.80035 0.0
C112 C 0.76363 0.20909 0.74253 0.0
C113 C 0.05417 0.28705 0.80293 0.0
C114 C 1.00975 1.05258 0.81981 0.0
C115 C 0.27252 0.18407 0.73078 0.0
C116 C 0.3385 0.23068 0.67813 0.0
C117 C 0.34013 0.30729 0.65219 0.0
C118 C 0.36261 0.33102 0.57655 0.0
C119 C 0.38881 0.28148 0.5275 0.0
C120 C 0.39962 0.21183 0.55747 0.0
C121 C 0.37396 0.18608 0.63267 0.0
C122 C 1.01282 1.03209 0.60082 0.0
C123 C 0.079 0.25857 0.57888 0.0
O124 O 0.82383 1.08469 0.69518 0.0
O125 O 0.88032 0.19141 0.62303 0.0
O126 O 0.07398 0.2622 0.73763 0.0
O127 O 0.97598 0.23327 0.81117 0.0
O128 O 0.94674 1.04178 0.76617 0.0
O129 O 0.07873 1.12197 0.81899 0.0
O130 O 0.24016 0.22806 0.77001 0.0
O131 O 0.21238 1.1159 0.69619 0.0
O132 O 0.99965 1.05608 0.66838 0.0
O133 O 0.08982 1.08589 0.58876 0.0
O134 O 0.14189 0.26985 0.63139 0.0
O135 O 1.00537 0.19382 0.5846 0.0
H136 H 0.64481 1.07428 0.5872 0.0
H137 H 0.54271 1.02391 0.6873 0.0
H138 H 0.72681 0.20258 0.86145 0.0
H139 H 0.82829 0.25491 0.76062 0.0
H140 H 0.31448 0.344 0.68616 0.0
H141 H 0.35703 0.3869 0.5554 0.0
H142 H 0.42211 0.17427 0.5208 0.0
H143 H 0.373 1.12668 0.65144 0.0
Tb144 Tb 0.63166 0.15049 0.17556 0.0
Tb145 Tb 0.49441 0.17414 0.14782 0.0
C146 C 0.76889 1.13154 0.17324 0.0
C147 C 0.85277 0.19121 0.20693 0.0
C148 C 0.8667 0.27621 0.21741 0.0
C149 C 0.91953 0.32588 0.28166 0.0
C150 C 0.96243 0.29266 0.33442 0.0
C151 C 0.95525 0.20976 0.31763 0.0
C152 C 0.90155 0.15992 0.25378 0.0
C153 C 0.49883 1.02142 0.2384 0.0
C154 C 0.6228 0.27846 0.29148 0.0
C155 C 0.35541 0.18278 0.17203 0.0
C156 C 0.26778 1.12019 0.15993 0.0
C157 C 0.20749 1.146 1.12533 0.0
C158 C 0.14476 1.09188 1.06962 0.0
C159 C 0.14247 1.01166 1.04884 0.0
C160 C 0.19238 0.98115 1.09624 0.0
C161 C 0.25422 1.03522 0.15271 0.0
C162 C 0.61523 0.29671 1.07208 0.0
C163 C 0.52919 1.06756 1.02357 0.0
O164 O 0.73559 0.15522 1.11257 0.0
O165 O 0.71491 1.10277 0.22721 0.0
O166 O 0.49794 1.05325 0.17164 0.0
O167 O 0.57322 1.06788 0.27384 0.0
O168 O 0.67922 0.26046 0.25666 0.0
O169 O 0.54179 0.23714 0.26655 0.0
O170 O 0.4032 0.16801 0.22715 0.0
O171 O 0.39301 0.20265 1.10596 0.0
O172 O 0.62538 0.26914 0.14015 0.0
O173 O 0.53606 0.25388 1.04556 0.0
O174 O 0.46362 1.06683 1.06055 0.0
O175 O 0.6056 1.11827 1.05184 0.0
H176 H 0.82899 0.30141 0.18186 0.0
H177 H 0.92309 0.38896 0.29176 0.0
H178 H 0.98416 0.17949 0.35728 0.0
H179 H 0.88995 1.09382 0.24741 0.0
H180 H 0.21743 0.21168 0.13084 0.0
H181 H 0.1079 1.11879 1.03537 0.0
H182 H 0.19151 0.91955 1.08349 0.0
H183 H 0.29994 1.0145 0.1809 0.0
Tb184 Tb 0.58301 0.7353 0.69763 0.0
Tb185 Tb 0.5594 0.60429 0.59846 0.0
C186 C 0.54026 0.83928 0.7698 0.0
C187 C 0.45839 0.85159 0.76586 0.0
C188 C 0.42471 0.87121 0.69516 0.0
C189 C 0.35537 0.89463 0.69524 0.0
C190 C 0.3161 0.89689 0.76556 0.0
C191 C 0.3448 0.86995 0.83472 0.0
C192 C 0.41427 0.84649 0.8345 0.0
C193 C 0.6451 0.6307 0.77869 0.0
C194 C 0.40996 0.58148 0.70285 0.0
C195 C 0.58403 0.48744 0.52905 0.0
C196 C 0.65554 0.46107 0.54367 0.0
C197 C 0.64863 0.39894 0.5975 0.0
C198 C 0.71812 0.37872 0.61642 0.0
C199 C 0.79619 0.41984 0.58206 0.0
C200 C 0.80252 0.48014 0.52624 0.0
C201 C 0.73285 0.50042 0.50725 0.0
C202 C 0.49003 0.70167 0.52301 0.0
C203 C 0.74243 0.76095 0.60164 0.0
O204 O 0.58677 0.85806 0.70887 0.0
O205 O 0.53709 0.77003 0.7994 0.0
O206 O 0.57898 0.61141 0.72879 0.0
O207 O 0.67839 0.71299 0.77951 0.0
O208 O 0.44313 0.66287 0.69501 0.0
O209 O 0.45181 0.54026 0.67261 0.0
O210 O 0.53236 0.47536 0.58518 0.0
O211 O 0.6032 0.56096 0.50024 0.0
O212 O 0.55948 0.72576 0.56862 0.0
O213 O 0.45636 0.61957 0.52073 0.0
O214 O 0.70019 0.67804 0.59194 0.0
O215 O 0.70614 0.80249 0.64219 0.0
H216 H 0.45482 0.873 0.6404 0.0
H217 H 0.33498 0.91472 0.64075 0.0
H218 H 0.31613 0.87081 0.88986 0.0
H219 H 0.43619 0.82822 0.88924 0.0
H220 H 0.58977 0.3666 0.62592 0.0
H221 H 0.71123 0.33134 0.65884 0.0
H222 H 0.8612 0.51222 0.4976 0.0
H223 H 0.73986 0.5475 0.4645 0.0
Tb224 Tb 0.06437 0.70692 1.09732 0.0
Tb225 Tb 0.05445 0.57513 0.18968 0.0
C226 C 1.00789 0.80188 1.02582 0.0
C227 C 0.92402 0.8077 1.00694 0.0
C228 C 0.89473 0.80667 0.92733 0.0
C229 C 0.82437 0.82589 0.90753 0.0
C230 C 0.77736 0.84145 0.96661 0.0
C231 C 0.80486 0.83998 1.04648 0.0
C232 C 0.87801 0.82462 1.06648 0.0
C233 C 0.22123 0.74725 0.17712 0.0
C234 C 0.99125 0.70246 0.27639 0.0
C235 C 0.10746 0.47778 0.26132 0.0
C236 C 0.17867 0.44977 0.25777 0.0
C237 C 0.2656 0.50736 0.26886 0.0
C238 C 0.33066 0.47897 0.28266 0.0
C239 C 0.31004 0.39226 0.28569 0.0
C240 C 0.2242 0.3346 0.26702 0.0
C241 C 0.1596 0.36312 0.2521 0.0
C242 C 0.89996 0.54809 1.11478 0.0
C243 C 0.102 0.55893 1.00586 0.0
O244 O 1.02232 0.74246 0.98951 0.0
O245 O 0.03889 0.81488 1.09955 0.0
O246 O 0.14666 0.70657 0.20095 0.0
O247 O 0.20702 0.77037 1.10696 0.0
O248 O 0.99973 0.73114 0.20331 0.0
O249 O 1.0086 0.63506 0.28722 0.0
O250 O 0.12767 0.55611 0.28524 0.0
O251 O 0.04774 0.45263 0.20281 0.0
O252 O 0.97324 0.57938 1.08787 0.0
O253 O 0.91245 0.52478 0.18557 0.0
O254 O 0.09612 0.53016 1.07849 0.0
O255 O 0.09326 0.63179 0.99865 0.0
H256 H 0.92913 0.79519 0.88001 0.0
H257 H 0.80713 0.82899 0.84553 0.0
H258 H 0.76974 0.85086 1.09344 0.0
H259 H 0.89872 0.82659 0.12861 0.0
H260 H 0.28325 0.57438 0.27075 0.0
H261 H 0.39602 0.52501 0.29741 0.0
H262 H 0.20625 0.26731 0.26917 0.0
H263 H 0.09409 0.31711 0.24019 0.0
loop_
_geom_bond_atom_site_label_1
_geom_bond_atom_site_label_2
_geom_bond_distance
_geom_bond_site_symmetry_2
_ccdc_geom_bond_type
H0 C7 0.929 . S
H1 C10 0.930 . S
H2 C12 0.929 . S
H3 C4 0.969 . S
C4 H3 0.969 . S
C4 O5 1.550 . S
C4 H6 0.973 . S
O5 C4 1.550 . S
O5 C11 1.412 . S
H6 C4 0.973 . S
C7 H0 0.929 . S
C7 C8 1.400 . S
C7 C9 1.364 . S
C8 C7 1.400 . S
C8 C12 1.377 . S
C9 C7 1.364 . S
C9 C10 1.374 . S
C10 H1 0.930 . S
C10 C9 1.374 . S
C10 C11 1.383 . S
C11 O5 1.412 . S
C11 C10 1.383 . S
C11 C12 1.394 . S
C12 H2 0.929 . S
C12 C8 1.377 . S
C12 C11 1.394 . S
H13 C20 0.929 . S
H14 C23 0.930 . S
H15 C25 0.929 . S
H16 C17 0.969 . S
C17 H16 0.969 . S
C17 O18 1.550 . S
C17 H19 0.973 1_455 S
O18 C17 1.550 . S
O18 C24 1.412 . S
H19 C17 0.973 1_655 S
C20 H13 0.929 . S
C20 C21 1.400 1_655 S
C20 C22 1.364 . S
C21 C20 1.400 1_455 S
C21 C25 1.377 . S
C22 C20 1.364 . S
C22 C23 1.374 . S
C23 H14 0.930 . S
C23 C22 1.374 . S
C23 C24 1.383 1_655 S
C24 O18 1.412 . S
C24 C23 1.383 1_455 S
C24 C25 1.394 . S
C25 H15 0.929 . S
C25 C21 1.377 . S
C25 C24 1.394 . S
H26 C33 0.929 . S
H27 C36 0.930 . S
H28 C38 0.929 . S
H29 C30 0.969 . S
C30 H29 0.969 . S
C30 O31 1.550 . S
C30 H32 0.973 . S
O31 C30 1.550 . S
O31 C37 1.412 . S
H32 C30 0.973 . S
C33 H26 0.929 . S
C33 C34 1.400 . S
C33 C35 1.364 . S
C34 C33 1.400 . S
C34 C38 1.377 . S
C35 C33 1.364 . S
C35 C36 1.374 . S
C36 H27 0.930 . S
C36 C35 1.374 . S
C36 C37 1.383 . S
C37 O31 1.412 . S
C37 C36 1.383 . S
C37 C38 1.394 . S
C38 H28 0.929 . S
C38 C34 1.377 . S
C38 C37 1.394 . S
H39 C46 0.929 . S
H40 C49 0.930 . S
H41 C51 0.929 . S
H42 C43 0.969 . S
C43 H42 0.969 . S
C43 O44 1.550 . S
C43 H45 0.973 . S
O44 C43 1.550 . S
O44 C50 1.412 . S
H45 C43 0.973 . S
C46 H39 0.929 . S
C46 C47 1.400 . S
C46 C48 1.364 . S
C47 C46 1.400 . S
C47 C51 1.377 . S
C48 C46 1.364 . S
C48 C49 1.374 . S
C49 H40 0.930 . S
C49 C48 1.374 . S
C49 C50 1.383 . S
C50 O44 1.412 . S
C50 C49 1.383 . S
C50 C51 1.394 . S
C51 H41 0.929 . S
C51 C47 1.377 . S
C51 C50 1.394 . S
H52 C59 0.929 . S
H53 C62 0.930 . S
H54 C64 0.929 . S
H55 C56 0.969 . S
C56 H55 0.969 . S
C56 O57 1.550 . S
C56 H58 0.973 1_556 S
O57 C56 1.550 . S
O57 C63 1.412 . S
H58 C56 0.973 1_554 S
C59 H52 0.929 . S
C59 C60 1.400 . S
C59 C61 1.364 . S
C60 C59 1.400 . S
C60 C64 1.377 . S
C61 C59 1.364 . S
C61 C62 1.374 . S
C62 H53 0.930 . S
C62 C61 1.374 . S
C62 C63 1.383 . S
C63 O57 1.412 . S
C63 C62 1.383 . S
C63 C64 1.394 . S
C64 H54 0.929 . S
C64 C60 1.377 . S
C64 C63 1.394 . S
H65 C72 0.929 . S
H66 C75 0.930 . S
H67 C77 0.929 . S
H68 C69 0.969 . S
C69 H68 0.969 . S
C69 O70 1.550 1_655 S
C69 H71 0.973 . S
O70 C69 1.550 1_455 S
O70 C76 1.412 1_455 S
H71 C69 0.973 . S
C72 H65 0.929 . S
C72 C73 1.400 . S
C72 C74 1.364 1_455 S
C73 C72 1.400 . S
C73 C77 1.377 . S
C74 C72 1.364 1_655 S
C74 C75 1.374 . S
C75 H66 0.930 . S
C75 C74 1.374 . S
C75 C76 1.383 . S
C76 O70 1.412 1_655 S
C76 C75 1.383 . S
C76 C77 1.394 1_655 S
C77 H67 0.929 . S
C77 C73 1.377 . S
C77 C76 1.394 1_455 S
H78 C85 0.929 . S
H79 C88 0.930 . S
H80 C90 0.929 . S
H81 C82 0.969 . S
C82 H81 0.969 . S
C82 O83 1.550 . S
C82 H84 0.973 . S
O83 C82 1.550 . S
O83 C89 1.412 . S
H84 C82 0.973 . S
C85 H78 0.929 . S
C85 C86 1.400 . S
C85 C87 1.364 . S
C86 C85 1.400 . S
C86 C90 1.377 . S
C87 C85 1.364 . S
C87 C88 1.374 . S
C88 H79 0.930 . S
C88 C87 1.374 . S
C88 C89 1.383 . S
C89 O83 1.412 . S
C89 C88 1.383 . S
C89 C90 1.394 . S
C90 H80 0.929 . S
C90 C86 1.377 . S
C90 C89 1.394 . S
H91 C98 0.929 1_655 S
H92 C101 0.930 . S
H93 C103 0.929 . S
H94 C95 0.969 . S
C95 H94 0.969 . S
C95 O96 1.550 . S
C95 H97 0.973 . S
O96 C95 1.550 . S
O96 C102 1.412 . S
H97 C95 0.973 . S
C98 H91 0.929 1_455 S
C98 C99 1.400 . S
C98 C100 1.364 . S
C99 C98 1.400 . S
C99 C103 1.377 . S
C100 C98 1.364 . S
C100 C101 1.374 . S
C101 H92 0.930 . S
C101 C100 1.374 . S
C101 C102 1.383 . S
C102 O96 1.412 . S
C102 C101 1.383 . S
C102 C103 1.394 . S
C103 H93 0.929 . S
C103 C99 1.377 . S
C103 C102 1.394 . S
Tb104 C106 2.809 1_545 S
Tb104 O124 2.484 1_545 S
Tb104 O125 2.440 1_545 S
Tb104 O126 2.658 1_655 S
Tb104 O127 2.409 . S
Tb104 O128 2.378 1_545 S
Tb104 O132 2.325 1_545 S
Tb104 O135 2.341 . S
Tb105 C115 2.809 . S
Tb105 O126 2.325 . S
Tb105 O129 2.341 1_545 S
Tb105 O130 2.484 . S
Tb105 O131 2.440 . S
Tb105 O132 2.658 1_445 S
Tb105 O133 2.409 1_545 S
Tb105 O134 2.378 . S
C106 Tb104 2.809 1_565 S
C106 C107 1.514 . S
C106 O124 1.248 . S
C106 O125 1.266 . S
C107 C106 1.514 . S
C107 C108 1.359 . S
C107 C112 1.348 . S
C108 C107 1.359 . S
C108 C109 1.380 . S
C108 H136 0.929 . S
C109 C108 1.380 . S
C109 C110 1.347 . S
C109 H137 0.931 . S
C110 C109 1.347 . S
C110 C111 1.369 . S
C111 C110 1.369 . S
C111 C112 1.408 . S
C111 H138 0.930 . S
C112 C107 1.348 . S
C112 C111 1.408 . S
C112 H139 0.930 . S
C113 O126 1.281 . S
C113 O127 1.254 1_455 S
C114 O128 1.236 1_455 S
C114 O129 1.266 . S
C115 Tb105 2.809 . S
C115 C116 1.514 . S
C115 O130 1.248 . S
C115 O131 1.266 . S
C116 C115 1.514 . S
C116 C117 1.359 . S
C116 C121 1.348 . S
C117 C116 1.359 . S
C117 C118 1.380 . S
C117 H140 0.929 . S
C118 C117 1.380 . S
C118 C119 1.347 . S
C118 H141 0.931 . S
C119 C118 1.347 . S
C119 C120 1.369 . S
C120 C119 1.369 . S
C120 C121 1.408 . S
C120 H142 0.930 . S
C121 C116 1.348 . S
C121 C120 1.408 . S
C121 H143 0.930 . S
C122 O132 1.281 . S
C122 O133 1.254 1_655 S
C123 O134 1.236 1_655 S
C123 O135 1.266 . S
O124 Tb104 2.484 1_565 S
O124 C106 1.248 . S
O125 Tb104 2.440 1_565 S
O125 C106 1.266 . S
O126 Tb104 2.658 1_455 S
O126 Tb105 2.325 . S
O126 C113 1.281 . S
O127 Tb104 2.409 . S
O127 C113 1.254 1_655 S
O128 Tb104 2.378 1_565 S
O128 C114 1.236 1_655 S
O129 Tb105 2.341 1_565 S
O129 C114 1.266 . S
O130 Tb105 2.484 . S
O130 C115 1.248 . S
O131 Tb105 2.440 . S
O131 C115 1.266 . S
O132 Tb104 2.325 1_565 S
O132 Tb105 2.658 1_665 S
O132 C122 1.281 . S
O133 Tb105 2.409 1_565 S
O133 C122 1.254 1_455 S
O134 Tb105 2.378 . S
O134 C123 1.236 1_455 S
O135 Tb104 2.341 . S
O135 C123 1.266 . S
H136 C108 0.929 . S
H137 C109 0.931 . S
H138 C111 0.930 . S
H139 C112 0.930 . S
H140 C117 0.929 . S
H141 C118 0.931 . S
H142 C120 0.930 . S
H143 C121 0.930 . S
Tb144 C146 2.809 . S
Tb144 O164 2.484 . S
Tb144 O165 2.440 . S
Tb144 O166 2.658 1_545 S
Tb144 O167 2.409 1_545 S
Tb144 O168 2.378 . S
Tb144 O172 2.325 1_554 S
Tb144 O175 2.341 1_544 S
Tb145 C155 2.807 1_545 S
Tb145 O166 2.323 1_546 S
Tb145 O169 2.343 1_556 S
Tb145 O170 2.482 1_545 S
Tb145 O171 2.440 1_545 S
Tb145 O172 2.659 . S
Tb145 O173 2.410 . S
Tb145 O174 2.377 1_545 S
C146 Tb144 2.809 . S
C146 C147 1.514 . S
C146 O164 1.248 . S
C146 O165 1.266 . S
C147 C146 1.514 . S
C147 C148 1.359 . S
C147 C152 1.348 . S
C148 C147 1.359 . S
C148 C149 1.380 . S
C148 H176 0.929 . S
C149 C148 1.380 . S
C149 C150 1.347 . S
C149 H177 0.931 . S
C150 C149 1.347 . S
C150 C151 1.369 . S
C151 C150 1.369 . S
C151 C152 1.408 . S
C151 H178 0.930 . S
C152 C147 1.348 . S
C152 C151 1.408 . S
C152 H179 0.930 . S
C153 O166 1.281 . S
C153 O167 1.254 . S
C154 O168 1.236 . S
C154 O169 1.266 . S
C155 Tb145 2.807 1_565 S
C155 C156 1.514 . S
C155 O170 1.248 . S
C155 O171 1.266 . S
C156 C155 1.514 . S
C156 C157 1.359 . S
C156 C161 1.348 . S
C157 C156 1.359 . S
C157 C158 1.380 . S
C157 H180 0.929 . S
C158 C157 1.380 . S
C158 C159 1.347 . S
C158 H181 0.931 . S
C159 C158 1.347 . S
C159 C160 1.369 . S
C160 C159 1.369 . S
C160 C161 1.408 . S
C160 H182 0.930 . S
C161 C156 1.348 . S
C161 C160 1.408 . S
C161 H183 0.930 . S
C162 O172 1.281 . S
C162 O173 1.254 . S
C163 O174 1.236 . S
C163 O175 1.266 . S
O164 Tb144 2.484 . S
O164 C146 1.248 . S
O165 Tb144 2.440 . S
O165 C146 1.266 . S
O166 Tb144 2.658 1_565 S
O166 Tb145 2.323 1_564 S
O166 C153 1.281 . S
O167 Tb144 2.409 1_565 S
O167 C153 1.254 . S
O168 Tb144 2.378 . S
O168 C154 1.236 . S
O169 Tb145 2.343 1_554 S
O169 C154 1.266 . S
O170 Tb145 2.482 1_565 S
O170 C155 1.248 . S
O171 Tb145 2.440 1_565 S
O171 C155 1.266 . S
O172 Tb144 2.325 1_556 S
O172 Tb145 2.659 . S
O172 C162 1.281 . S
O173 Tb145 2.410 . S
O173 C162 1.254 . S
O174 Tb145 2.377 1_565 S
O174 C163 1.236 . S
O175 Tb144 2.341 1_566 S
O175 C163 1.266 . S
H176 C148 0.929 . S
H177 C149 0.931 . S
H178 C151 0.930 . S
H179 C152 0.930 . S
H180 C157 0.929 . S
H181 C158 0.931 . S
H182 C160 0.930 . S
H183 C161 0.930 . S
Tb184 C186 2.809 . S
Tb184 O204 2.484 . S
Tb184 O205 2.440 . S
Tb184 O206 2.658 . S
Tb184 O207 2.409 . S
Tb184 O208 2.378 . S
Tb184 O212 2.325 . S
Tb184 O215 2.341 . S
Tb185 C195 2.809 . S
Tb185 O206 2.325 . S
Tb185 O209 2.341 . S
Tb185 O210 2.484 . S
Tb185 O211 2.440 . S
Tb185 O212 2.658 . S
Tb185 O213 2.409 . S
Tb185 O214 2.378 . S
C186 Tb184 2.809 . S
C186 C187 1.514 . S
C186 O204 1.248 . S
C186 O205 1.266 . S
C187 C186 1.514 . S
C187 C188 1.359 . S
C187 C192 1.348 . S
C188 C187 1.359 . S
C188 C189 1.380 . S
C188 H216 0.929 . S
C189 C188 1.380 . S
C189 C190 1.347 . S
C189 H217 0.931 . S
C190 C189 1.347 . S
C190 C191 1.369 . S
C191 C190 1.369 . S
C191 C192 1.408 . S
C191 H218 0.930 . S
C192 C187 1.348 . S
C192 C191 1.408 . S
C192 H219 0.930 . S
C193 O206 1.281 . S
C193 O207 1.254 . S
C194 O208 1.236 . S
C194 O209 1.266 . S
C195 Tb185 2.809 . S
C195 C196 1.514 . S
C195 O210 1.248 . S
C195 O211 1.266 . S
C196 C195 1.514 . S
C196 C197 1.359 . S
C196 C201 1.348 . S
C197 C196 1.359 . S
C197 C198 1.380 . S
C197 H220 0.929 . S
C198 C197 1.380 . S
C198 C199 1.347 . S
C198 H221 0.931 . S
C199 C198 1.347 . S
C199 C200 1.369 . S
C200 C199 1.369 . S
C200 C201 1.408 . S
C200 H222 0.930 . S
C201 C196 1.348 . S
C201 C200 1.408 . S
C201 H223 0.930 . S
C202 O212 1.281 . S
C202 O213 1.254 . S
C203 O214 1.236 . S
C203 O215 1.266 . S
O204 Tb184 2.484 . S
O204 C186 1.248 . S
O205 Tb184 2.440 . S
O205 C186 1.266 . S
O206 Tb184 2.658 . S
O206 Tb185 2.325 . S
O206 C193 1.281 . S
O207 Tb184 2.409 . S
O207 C193 1.254 . S
O208 Tb184 2.378 . S
O208 C194 1.236 . S
O209 Tb185 2.341 . S
O209 C194 1.266 . S
O210 Tb185 2.484 . S
O210 C195 1.248 . S
O211 Tb185 2.440 . S
O211 C195 1.266 . S
O212 Tb184 2.325 . S
O212 Tb185 2.658 . S
O212 C202 1.281 . S
O213 Tb185 2.409 . S
O213 C202 1.254 . S
O214 Tb185 2.378 . S
O214 C203 1.236 . S
O215 Tb184 2.341 . S
O215 C203 1.266 . S
H216 C188 0.929 . S
H217 C189 0.931 . S
H218 C191 0.930 . S
H219 C192 0.930 . S
H220 C197 0.929 . S
H221 C198 0.931 . S
H222 C200 0.930 . S
H223 C201 0.930 . S
Tb224 C226 2.809 . S
Tb224 O244 2.484 . S
Tb224 O245 2.440 . S
Tb224 O246 2.658 1_655 S
Tb224 O247 2.409 1_655 S
Tb224 O248 2.378 . S
Tb224 O252 2.325 . S
Tb224 O255 2.341 1_654 S
Tb225 C235 2.809 . S
Tb225 O246 2.325 . S
Tb225 O249 2.341 1_455 S
Tb225 O250 2.484 . S
Tb225 O251 2.440 . S
Tb225 O252 2.658 1_455 S
Tb225 O253 2.409 1_455 S
Tb225 O254 2.378 . S
C226 Tb224 2.809 . S
C226 C227 1.514 . S
C226 O244 1.248 . S
C226 O245 1.266 . S
C227 C226 1.514 . S
C227 C228 1.359 1_554 S
C227 C232 1.348 . S
C228 C227 1.359 1_556 S
C228 C229 1.380 . S
C228 H256 0.929 . S
C229 C228 1.380 . S
C229 C230 1.347 . S
C229 H257 0.931 . S
C230 C229 1.347 . S
C230 C231 1.369 1_556 S
C231 C230 1.369 1_554 S
C231 C232 1.408 . S
C231 H258 0.930 . S
C232 C227 1.348 . S
C232 C231 1.408 . S
C232 H259 0.930 . S
C233 O246 1.281 . S
C233 O247 1.254 . S
C234 O248 1.236 . S
C234 O249 1.266 . S
C235 Tb225 2.809 . S
C235 C236 1.514 . S
C235 O250 1.248 . S
C235 O251 1.266 . S
C236 C235 1.514 . S
C236 C237 1.359 . S
C236 C241 1.348 . S
C237 C236 1.359 . S
C237 C238 1.380 . S
C237 H260 0.929 . S
C238 C237 1.380 . S
C238 C239 1.347 . S
C238 H261 0.931 . S
C239 C238 1.347 . S
C239 C240 1.369 . S
C240 C239 1.369 . S
C240 C241 1.408 . S
C240 H262 0.930 . S
C241 C236 1.348 . S
C241 C240 1.408 . S
C241 H263 0.930 . S
C242 O252 1.281 . S
C242 O253 1.254 . S
C243 O254 1.236 1_556 S
C243 O255 1.266 . S
O244 Tb224 2.484 . S
O244 C226 1.248 . S
O245 Tb224 2.440 . S
O245 C226 1.266 . S
O246 Tb224 2.658 1_455 S
O246 Tb225 2.325 . S
O246 C233 1.281 . S
O247 Tb224 2.409 1_455 S
O247 C233 1.254 . S
O248 Tb224 2.378 . S
O248 C234 1.236 . S
O249 Tb225 2.341 1_655 S
O249 C234 1.266 . S
O250 Tb225 2.484 . S
O250 C235 1.248 . S
O251 Tb225 2.440 . S
O251 C235 1.266 . S
O252 Tb224 2.325 . S
O252 Tb225 2.658 1_655 S
O252 C242 1.281 . S
O253 Tb225 2.409 1_655 S
O253 C242 1.254 . S
O254 Tb225 2.378 . S
O254 C243 1.236 1_554 S
O255 Tb224 2.341 1_456 S
O255 C243 1.266 . S
H256 C228 0.929 . S
H257 C229 0.931 . S
H258 C231 0.930 . S
H259 C232 0.930 . S
H260 C237 0.929 . S
H261 C238 0.931 . S
H262 C240 0.930 . S
H263 C241 0.930 . S
C9 C119 2.050 . S
C21 C159 1.809 . S
C193 C30 3.565 . S
C43 C234 3.561 . S
C154 C4 2.143 . S
C114 C22 3.101 1_455 S
C242 C34 2.470 1_554 S
C203 C48 2.543 . S
C8 C239 3.220 . S
C162 C35 3.088 . S
C47 C122 3.767 . S
C17 C190 3.163 . S
C110 C60 1.760 . S
C74 C150 0.678 . S
C82 C202 2.700 . S
C100 C243 4.639 . S
C61 C163 2.387 . S
C123 C73 2.388 1_655 S
C233 C87 2.519 . S
C194 C95 2.590 . S
C56 C230 2.578 . S
C153 C86 3.336 . S
C113 C99 3.929 . S
C69 C199 1.635 . S
