# Generated by pormake.
# Topology apo, (3,6)-cn, num edge types: 1
# Building blocks:
#     Node 0, Type 0, BuildingBlock: BETDAH_clean_linker_0, # of connection points: 3
#     Node 1, Type 0, BuildingBlock: BETDAH_clean_linker_0, # of connection points: 3
#     Node 2, Type 0, BuildingBlock: BETDAH_clean_linker_0, # of connection points: 3
#     Node 3, Type 0, BuildingBlock: BETDAH_clean_linker_0, # of connection points: 3
#     Node 4, Type 0, BuildingBlock: BETDAH_clean_linker_0, # of connection points: 3
#     Node 5, Type 0, BuildingBlock: BETDAH_clean_linker_0, # of connection points: 3
#     Node 6, Type 0, BuildingBlock: BETDAH_clean_linker_0, # of connection points: 3
#     Node 7, Type 0, BuildingBlock: BETDAH_clean_linker_0, # of connection points: 3
#     Node 8, Type 1, BuildingBlock: KUMBUR_clean_sbu_1, # of connection points: 6
#     Node 9, Type 1, BuildingBlock: KUMBUR_clean_sbu_1, # of connection points: 6
#     Node 10, Type 1, BuildingBlock: KUMBUR_clean_sbu_1, # of connection points: 6
#     Node 11, Type 1, BuildingBlock: KUMBUR_clean_sbu_1, # of connection points: 6
#     Edge 12, Type (0, 1), BuildingBlock: XUDNAN_clean_linker_2, # of connection points: 2
#     Edge 13, Type (0, 1), BuildingBlock: XUDNAN_clean_linker_2, # of connection points: 2
#     Edge 14, Type (0, 1), BuildingBlock: XUDNAN_clean_linker_2, # of connection points: 2
#     Edge 15, Type (0, 1), BuildingBlock: XUDNAN_clean_linker_2, # of connection points: 2
#     Edge 16, Type (0, 1), BuildingBlock: XUDNAN_clean_linker_2, # of connection points: 2
#     Edge 17, Type (0, 1), BuildingBlock: XUDNAN_clean_linker_2, # of connection points: 2
#     Edge 18, Type (0, 1), BuildingBlock: XUDNAN_clean_linker_2, # of connection points: 2
#     Edge 19, Type (0, 1), BuildingBlock: XUDNAN_clean_linker_2, # of connection points: 2
#     Edge 20, Type (0, 1), BuildingBlock: XUDNAN_clean_linker_2, # of connection points: 2
#     Edge 21, Type (0, 1), BuildingBlock: XUDNAN_clean_linker_2, # of connection points: 2
#     Edge 22, Type (0, 1), BuildingBlock: XUDNAN_clean_linker_2, # of connection points: 2
#     Edge 23, Type (0, 1), BuildingBlock: XUDNAN_clean_linker_2, # of connection points: 2
#     Edge 24, Type (0, 1), BuildingBlock: XUDNAN_clean_linker_2, # of connection points: 2
#     Edge 25, Type (0, 1), BuildingBlock: XUDNAN_clean_linker_2, # of connection points: 2
#     Edge 26, Type (0, 1), BuildingBlock: XUDNAN_clean_linker_2, # of connection points: 2
#     Edge 27, Type (0, 1), BuildingBlock: XUDNAN_clean_linker_2, # of connection points: 2
#     Edge 28, Type (0, 1), BuildingBlock: XUDNAN_clean_linker_2, # of connection points: 2
#     Edge 29, Type (0, 1), BuildingBlock: XUDNAN_clean_linker_2, # of connection points: 2
#     Edge 30, Type (0, 1), BuildingBlock: XUDNAN_clean_linker_2, # of connection points: 2
#     Edge 31, Type (0, 1), BuildingBlock: XUDNAN_clean_linker_2, # of connection points: 2
#     Edge 32, Type (0, 1), BuildingBlock: XUDNAN_clean_linker_2, # of connection points: 2
#     Edge 33, Type (0, 1), BuildingBlock: XUDNAN_clean_linker_2, # of connection points: 2
#     Edge 34, Type (0, 1), BuildingBlock: XUDNAN_clean_linker_2, # of connection points: 2
#     Edge 35, Type (0, 1), BuildingBlock: XUDNAN_clean_linker_2, # of connection points: 2
# Relax obj value: 0.036
# Max RMSD: 0.221
# Mean RMSD: 0.156
data_MOF--net-apo--node1-KUMBUR_clean_sbu_1--node2-BETDAH_clean_linker_0--edge1-XUDNAN_clean_linker_2
_symmetry_space_group_name_H-M    P1
_symmetry_Int_Tables_number       1
_symmetry_cell_setting            triclinic
loop_
_symmetry_equiv_pos_as_xyz
'x, y, z'
_cell_length_a     27.46739
_cell_length_b     41.622314
_cell_length_c     51.467365
_cell_angle_alpha  90.110305
_cell_angle_beta   89.954833
_cell_angle_gamma 90.530699
loop_
_atom_site_label
_atom_site_type_symbol
_atom_site_fract_x
_atom_site_fract_y
_atom_site_fract_z
_atom_type_partial_charge
H0 H 0.37398 0.4284 0.42839 0.0
H1 H 0.30031 0.37066 0.37054 0.0
H2 H 0.31837 0.33426 0.44762 0.0
C3 C 0.35488 0.40649 0.423 0.0
C4 C 0.34789 0.38207 0.44158 0.0
C5 C 0.33769 0.40273 0.39732 0.0
C6 C 0.31269 0.3742 0.39033 0.0
C7 C 0.30674 0.34937 0.40855 0.0
C8 C 0.32422 0.35354 0.43383 0.0
N9 N 0.28807 0.31858 0.40175 0.0
C10 C 0.24834 0.31227 0.38574 0.0
H11 H 0.1431 0.09865 0.93025 0.0
H12 H 0.23694 0.14376 0.87368 0.0
H13 H 0.25377 0.1665 0.9543 0.0
C14 C 0.17317 0.11473 0.9258 0.0
C15 C 0.19567 0.13248 0.94584 0.0
C16 C 0.18817 0.1183 0.89975 0.0
C17 C 0.22522 0.14075 0.89364 0.0
C18 C 0.2483 0.15835 0.9135 0.0
C19 C 0.2342 0.15347 0.93929 0.0
N20 N 0.28653 0.18082 0.90876 0.0
C21 C 0.30016 0.19336 0.88478 0.0
H22 H 0.84383 0.08819 0.59353 0.0
H23 H 0.80283 0.15012 0.65697 0.0
H24 H 0.8066 0.18682 0.57917 0.0
C25 C 0.83173 0.11139 0.60042 0.0
C26 C 0.82602 0.13673 0.58263 0.0
C27 C 0.82334 0.11581 0.62726 0.0
C28 C 0.80908 0.14631 0.63641 0.0
C29 C 0.80342 0.17191 0.61883 0.0
C30 C 0.81208 0.16689 0.59231 0.0
N31 N 0.79161 0.20362 0.62681 0.0
C32 C 0.76331 0.21232 0.6481 0.0
H33 H 0.67609 0.42568 0.09615 0.0
H34 H 0.77921 0.40058 0.15569 0.0
H35 H 0.80775 0.37552 0.07642 0.0
C36 C 0.70977 0.41433 0.10191 0.0
C37 C 0.73954 0.39993 0.083 0.0
C38 C 0.72387 0.41473 0.12819 0.0
C39 C 0.7675 0.39997 0.13558 0.0
C40 C 0.79775 0.3862 0.11682 0.0
C41 C 0.78397 0.38642 0.09068 0.0
N42 N 0.84383 0.37411 0.12375 0.0
C43 C 0.84849 0.34635 0.13837 0.0
H44 H 0.64938 0.59173 0.6046 0.0
H45 H 0.72884 0.65019 0.65955 0.0
H46 H 0.73356 0.67305 0.57833 0.0
C47 C 0.67396 0.61164 0.60861 0.0
C48 C 0.68967 0.63142 0.58814 0.0
C49 C 0.68808 0.618 0.6344 0.0
C50 C 0.71797 0.64497 0.63975 0.0
C51 C 0.73398 0.66492 0.61934 0.0
C52 C 0.72002 0.65782 0.59384 0.0
N53 N 0.76396 0.6925 0.62323 0.0
C54 C 0.78303 0.70334 0.6467 0.0
H55 H 0.85296 0.94134 0.10019 0.0
H56 H 0.76512 0.86296 0.07083 0.0
H57 H 0.7856 0.87426 0.15294 0.0
C58 C 0.82961 0.92059 0.10332 0.0
C59 C 0.82047 0.91044 0.12898 0.0
C60 C 0.81056 0.90354 0.08187 0.0
C61 C 0.78165 0.87612 0.08676 0.0
C62 C 0.7728 0.86522 0.11208 0.0
C63 C 0.79239 0.8824 0.13328 0.0
N64 N 0.74425 0.83673 0.11494 0.0
C65 C 0.72899 0.8226 0.13809 0.0
H66 H 0.16364 0.91707 0.43435 0.0
H67 H 0.24122 0.89505 0.36377 0.0
H68 H 0.287 0.85466 0.43627 0.0
C69 C 0.19179 0.90422 0.42405 0.0
C70 C 0.22333 0.88473 0.43838 0.0
C71 C 0.19708 0.90818 0.39704 0.0
C72 C 0.23542 0.8922 0.38445 0.0
C73 C 0.26751 0.87284 0.39852 0.0
C74 C 0.26114 0.86882 0.4254 0.0
N75 N 0.31015 0.86151 0.38628 0.0
C76 C 0.31364 0.83073 0.37609 0.0
H77 H 0.36181 0.59991 0.92569 0.0
H78 H 0.25485 0.66728 0.95182 0.0
H79 H 0.25737 0.63937 0.87177 0.0
C80 C 0.33117 0.61522 0.92145 0.0
C81 C 0.31204 0.61663 0.89596 0.0
C82 C 0.31041 0.63312 0.94176 0.0
C83 C 0.27106 0.65319 0.93638 0.0
C84 C 0.25315 0.65638 0.91117 0.0
C85 C 0.27335 0.638 0.89095 0.0
N86 N 0.21295 0.67703 0.9074 0.0
C87 C 0.20395 0.69471 0.88505 0.0
Tb88 Tb 0.06032 0.11652 0.24006 0.0
C89 C 0.84277 0.10415 0.25906 0.0
N90 N 0.87134 0.13068 0.26238 0.0
C91 C 0.81263 0.1626 0.23979 0.0
C92 C 0.79907 0.10554 0.24475 0.0
C93 C 0.85549 0.16001 0.25424 0.0
C94 C 0.78464 0.13516 0.23467 0.0
C95 C 0.82873 0.04742 0.26713 0.0
C96 C 0.85706 0.07557 0.27041 0.0
C97 C 0.7857 0.04855 0.25246 0.0
C98 C 0.77085 0.07754 0.24134 0.0
Tb99 Tb 0.94102 0.12319 0.28579 0.0
N100 N 0.89927 0.07528 0.28423 0.0
C101 C 0.84463 0.01895 0.27857 0.0
C102 C 0.91441 0.04762 0.29578 0.0
C103 C 0.88754 0.0191 0.29306 0.0
H104 H 0.87516 0.18169 0.25921 0.0
H105 H 0.90014 0.99721 0.30203 0.0
H106 H 0.12246 0.0495 0.24642 0.0
H107 H 0.1224 0.23623 0.21647 0.0
H108 H 0.94737 0.04709 0.30679 0.0
H109 H 0.82405 0.99677 0.27639 0.0
H110 H 0.06209 0.19178 0.21967 0.0
H111 H 0.80089 0.18584 0.23293 0.0
H112 H 0.76353 0.02715 0.24969 0.0
H113 H 0.73734 0.0781 0.23026 0.0
H114 H 0.20735 0.03431 0.25676 0.0
H115 H 0.75131 0.13725 0.22357 0.0
H116 H 0.20714 0.22794 0.23118 0.0
N117 N 0.13698 0.09963 0.24902 0.0
C118 C 0.17146 0.1231 0.25083 0.0
C119 C 0.1976 0.05938 0.25546 0.0
C120 C 0.2205 0.11561 0.25584 0.0
C121 C 0.14964 0.06802 0.24981 0.0
C122 C 0.23302 0.08331 0.25899 0.0
N123 N 0.11143 0.15986 0.23791 0.0
C124 C 0.09876 0.18834 0.22665 0.0
C125 C 0.19424 0.17856 0.24263 0.0
C126 C 0.15843 0.15423 0.24459 0.0
C127 C 0.18067 0.20862 0.23301 0.0
C128 C 0.13285 0.21339 0.22467 0.0
H129 H 0.27029 0.07653 0.26291 0.0
H130 H 0.29356 0.13508 0.26001 0.0
H131 H 0.27063 0.19019 0.24818 0.0
O132 O 0.02828 0.11009 0.20302 0.0
O133 O 0.05684 0.15804 0.26655 0.0
O134 O 0.01105 0.14014 0.30135 0.0
O135 O 0.10583 0.1072 0.20824 0.0
O136 O 0.99596 0.14249 0.22719 0.0
O137 O 0.95983 0.16573 0.26283 0.0
O138 O 0.90729 0.11442 0.32242 0.0
O139 O 0.94468 0.09728 0.24818 0.0
O140 O 0.01863 0.0727 0.24616 0.0
O141 O 0.90877 0.16215 0.30493 0.0
O142 O 0.9986 0.09429 0.3032 0.0
O143 O 0.06125 0.08252 0.27338 0.0
C144 C 0.04361 0.15973 0.29112 0.0
C145 C 0.07424 0.08272 0.17055 0.0
C146 C 0.09632 0.07461 0.12487 0.0
C147 C 0.09856 0.0413 0.12966 0.0
C148 C 0.07668 0.04963 0.17497 0.0
C149 C 0.08801 0.02897 0.1544 0.0
C150 C 0.08205 0.0948 0.1455 0.0
C151 C 0.97078 0.16553 0.238 0.0
C152 C 0.07021 0.1061 0.19176 0.0
C153 C 0.25575 0.14029 0.25594 0.0
C154 C 0.24271 0.17167 0.24916 0.0
C155 C 0.9712 0.07164 0.24366 0.0
C156 C 0.86806 0.15809 0.34673 0.0
C157 C 0.84803 0.16015 0.39313 0.0
C158 C 0.82118 0.18819 0.38861 0.0
C159 C 0.84095 0.18612 0.34288 0.0
C160 C 0.87089 0.14478 0.37192 0.0
C161 C 0.81746 0.20089 0.36366 0.0
C162 C 0.03881 0.07916 0.29621 0.0
C163 C 0.89553 0.14452 0.3246 0.0
H164 H 0.10987 0.02471 0.11467 0.0
H165 H 0.07102 0.03998 0.19429 0.0
H166 H 0.09034 1.00339 0.15785 0.0
H167 H 0.07845 0.12042 0.14254 0.0
H168 H 0.80272 0.20024 0.40443 0.0
H169 H 0.83812 0.19678 0.32376 0.0
H170 H 0.89222 0.12339 0.37519 0.0
H171 H 0.79663 0.22247 0.36045 0.0
Tb172 Tb 0.46204 0.39832 0.73563 0.0
C173 C 0.65315 0.43924 0.77872 0.0
N174 N 0.6319 0.40987 0.78182 0.0
C175 C 0.70579 0.3848 0.76759 0.0
C176 C 0.70052 0.44263 0.76847 0.0
C177 C 0.65899 0.38279 0.77826 0.0
C178 C 0.72624 0.41486 0.76208 0.0
C179 C 0.65023 0.49661 0.78677 0.0
C180 C 0.62866 0.46583 0.78775 0.0
C181 C 0.69624 0.50043 0.77519 0.0
C182 C 0.72133 0.47347 0.766 0.0
Tb183 Tb 0.55293 0.4102 0.79687 0.0
N184 N 0.58372 0.46125 0.79811 0.0
C185 C 0.62524 0.52238 0.79794 0.0
C186 C 0.56045 0.48579 0.8105 0.0
C187 C 0.58054 0.51682 0.81029 0.0
H188 H 0.64508 0.35949 0.78388 0.0
H189 H 0.56147 0.53642 0.8195 0.0
H190 H 0.35767 0.42141 0.76085 0.0
H191 H 0.51051 0.28776 0.68668 0.0
H192 H 0.52591 0.48145 0.81997 0.0
H193 H 0.64058 0.54645 0.79764 0.0
H194 H 0.51635 0.34581 0.69596 0.0
H195 H 0.72637 0.36317 0.76404 0.0
H196 H 0.71325 0.52396 0.77385 0.0
H197 H 0.75742 0.47661 0.75783 0.0
H198 H 0.28012 0.39601 0.7749 0.0
H199 H 0.76272 0.41637 0.75413 0.0
H200 H 0.4428 0.25553 0.7053 0.0
N201 N 0.38878 0.37738 0.74842 0.0
C202 C 0.38143 0.34559 0.74391 0.0
C203 C 0.30853 0.38151 0.76642 0.0
C204 C 0.33816 0.33001 0.75174 0.0
C205 C 0.3524 0.39581 0.7585 0.0
C206 C 0.30159 0.3484 0.76329 0.0
N207 N 0.45703 0.34564 0.72256 0.0
C208 C 0.48851 0.33166 0.70546 0.0
C209 C 0.41107 0.29607 0.72534 0.0
C210 C 0.41737 0.32898 0.731 0.0
C211 C 0.44618 0.28082 0.71009 0.0
C212 C 0.48451 0.29889 0.69961 0.0
H213 H 0.26757 0.33741 0.7694 0.0
H214 H 0.3 0.28425 0.75361 0.0
H215 H 0.36393 0.25446 0.73043 0.0
O216 O 0.43885 0.3936 0.69639 0.0
O217 O 0.44434 0.3807 0.7749 0.0
O218 O 0.51513 0.36376 0.79363 0.0
O219 O 0.42929 0.43818 0.71786 0.0
O220 O 0.53799 0.38148 0.73164 0.0
O221 O 0.56163 0.36656 0.77309 0.0
O222 O 0.52806 0.41408 0.83533 0.0
O223 O 0.54056 0.44797 0.7681 0.0
O224 O 0.53275 0.42186 0.7293 0.0
O225 O 0.6017 0.40046 0.82742 0.0
O226 O 0.47817 0.42805 0.80182 0.0
O227 O 0.44784 0.44045 0.76067 0.0
C228 C 0.46909 0.35906 0.78762 0.0
C229 C 0.39915 0.43775 0.67339 0.0
C230 C 0.38023 0.43843 0.62669 0.0
C231 C 0.34827 0.46414 0.63138 0.0
C232 C 0.36801 0.46385 0.67717 0.0
C233 C 0.34277 0.47687 0.65629 0.0
C234 C 0.40569 0.42539 0.64811 0.0
C235 C 0.56268 0.36287 0.7476 0.0
C236 C 0.42278 0.42281 0.69612 0.0
C237 C 0.33268 0.29684 0.74739 0.0
C238 C 0.36915 0.27986 0.73427 0.0
C239 C 0.54755 0.44671 0.74295 0.0
C240 C 0.56696 0.38199 0.86662 0.0
C241 C 0.59241 0.36719 0.91042 0.0
C242 C 0.56173 0.33999 0.9091 0.0
C243 C 0.53685 0.35462 0.86548 0.0
C244 C 0.5946 0.38809 0.889 0.0
C245 C 0.53429 0.33375 0.88671 0.0
C246 C 0.45052 0.44524 0.78614 0.0
C247 C 0.56924 0.4053 0.84529 0.0
H248 H 0.32649 0.47423 0.61598 0.0
H249 H 0.36228 0.47376 0.6964 0.0
H250 H 0.31812 0.49664 0.6595 0.0
H251 H 0.43082 0.40582 0.64528 0.0
H252 H 0.55949 0.32332 0.9252 0.0
H253 H 0.51517 0.34957 0.84835 0.0
H254 H 0.61724 0.40955 0.88987 0.0
H255 H 0.51094 0.31268 0.88581 0.0
Tb256 Tb 0.05792 0.91374 0.73257 0.0
C257 C 0.87079 0.85984 0.78422 0.0
N258 N 0.88429 0.89064 0.77919 0.0
C259 C 0.80608 0.90057 0.76019 0.0
C260 C 0.82482 0.8478 0.77672 0.0
C261 C 0.85228 0.91133 0.76788 0.0
C262 C 0.79233 0.86864 0.76455 0.0
C263 C 0.89097 0.80849 0.80306 0.0
C264 C 0.90341 0.84057 0.79708 0.0
C265 C 0.84586 0.79589 0.79489 0.0
C266 C 0.81272 0.81557 0.78187 0.0
Tb267 Tb 0.96042 0.90614 0.79258 0.0
N268 N 0.94627 0.85387 0.80495 0.0
C269 C 0.92345 0.79048 0.81789 0.0
C270 C 0.97554 0.83734 0.82158 0.0
C271 C 0.9655 0.80521 0.82764 0.0
H272 H 0.86202 0.93624 0.76509 0.0
H273 H 0.9896 0.79208 0.8403 0.0
H274 H 0.14797 0.86782 0.75679 0.0
H275 H 0.06196 0.03735 0.70205 0.0
H276 H 0.00583 0.84916 0.83093 0.0
H277 H 0.91533 0.76573 0.8229 0.0
H278 H 0.02877 0.98189 0.70478 0.0
H279 H 0.78099 0.91698 0.7511 0.0
H280 H 0.83575 0.77123 0.79915 0.0
H281 H 0.77761 0.80577 0.77621 0.0
H282 H 0.22477 0.87648 0.78007 0.0
H283 H 0.75645 0.86041 0.75868 0.0
H284 H 0.13815 0.05168 0.7252 0.0
N285 N 0.13277 0.91775 0.75257 0.0
C286 C 0.15259 0.94784 0.75354 0.0
C287 C 0.20432 0.89688 0.7732 0.0
C288 C 0.19781 0.95385 0.76562 0.0
C289 C 0.1597 0.89213 0.76061 0.0
C290 C 0.22302 0.92795 0.77621 0.0
N291 N 0.08529 0.96554 0.72949 0.0
C292 C 0.062 0.98808 0.71492 0.0
C293 C 0.14859 1.00372 0.74033 0.0
C294 C 0.12858 0.97248 0.7411 0.0
C295 C 0.12389 0.02737 0.72635 0.0
C296 C 0.08075 0.0194 0.71331 0.0
H297 H 0.25788 0.93152 0.78567 0.0
H298 H 0.25162 0.99038 0.77536 0.0
H299 H 0.20844 0.03407 0.75318 0.0
O300 O 0.04722 0.91725 0.69192 0.0
O301 O 0.0437 0.95325 0.7598 0.0
O302 O 0.03283 0.92709 0.79795 0.0
O303 O 0.11056 0.89487 0.70733 0.0
O304 O 0.98332 0.93 0.72513 0.0
O305 O 0.9514 0.94711 0.76522 0.0
O306 O 0.94756 0.90358 0.83272 0.0
O307 O 0.94293 0.88603 0.75424 0.0
O308 O 0.01411 0.86914 0.73514 0.0
O309 O 0.92576 0.94507 0.8114 0.0
O310 O 0.03423 0.88582 0.79754 0.0
O311 O 0.0617 0.87058 0.75675 0.0
C312 C 0.04717 0.95247 0.78513 0.0
C313 C 0.12001 0.92038 0.66694 0.0
C314 C 0.1556 0.92226 0.62334 0.0
C315 C 0.18339 0.94927 0.6309 0.0
C316 C 0.14896 0.94691 0.67399 0.0
C317 C 0.17999 0.96144 0.65604 0.0
C318 C 0.12368 0.90793 0.64155 0.0
C319 C 0.95415 0.94816 0.73937 0.0
C320 C 0.08874 0.90416 0.68637 0.0
C321 C 0.21714 0.98525 0.76594 0.0
C322 C 0.19264 1.01013 0.75325 0.0
C323 C 0.96799 0.86458 0.74147 0.0
C324 C 0.8806 0.93085 0.84959 0.0
C325 C 0.84227 0.93033 0.89249 0.0
C326 C 0.79702 0.92438 0.88072 0.0
C327 C 0.8349 0.92531 0.8382 0.0
C328 C 0.88399 0.93372 0.87682 0.0
C329 C 0.79338 0.92216 0.85371 0.0
C330 C 0.05838 0.86621 0.78206 0.0
C331 C 0.92567 0.93092 0.83395 0.0
H332 H 0.20883 0.96053 0.61757 0.0
H333 H 0.14869 0.95606 0.69347 0.0
H334 H 0.20219 0.98187 0.66179 0.0
H335 H 0.10202 0.8871 0.63607 0.0
H336 H 0.76449 0.92165 0.89247 0.0
H337 H 0.83124 0.92303 0.81744 0.0
H338 H 0.91918 0.93774 0.88586 0.0
H339 H 0.75831 0.91768 0.84476 0.0
Tb340 Tb 0.46839 0.61554 0.22848 0.0
C341 C 0.65855 0.64846 0.26873 0.0
N342 N 0.63642 0.61904 0.26896 0.0
C343 C 0.7052 0.59681 0.24655 0.0
C344 C 0.70339 0.65357 0.25597 0.0
C345 C 0.66111 0.59293 0.25986 0.0
C346 C 0.7259 0.6274 0.24406 0.0
C347 C 0.65967 0.70376 0.28384 0.0
C348 C 0.63728 0.67326 0.28247 0.0
C349 C 0.70328 0.70934 0.27025 0.0
C350 C 0.72502 0.68432 0.25627 0.0
Tb351 Tb 0.56201 0.61691 0.28968 0.0
N352 N 0.59405 0.66732 0.29447 0.0
C353 C 0.63747 0.72763 0.29885 0.0
C354 C 0.57312 0.69 0.30999 0.0
C355 C 0.5943 0.72059 0.31222 0.0
H356 H 0.64795 0.56884 0.26327 0.0
H357 H 0.57722 0.73877 0.32411 0.0
H358 H 0.36717 0.64502 0.25293 0.0
H359 H 0.49948 0.51001 0.1694 0.0
H360 H 0.53958 0.68457 0.32015 0.0
H361 H 0.65355 0.75142 0.30043 0.0
H362 H 0.51713 0.56447 0.18611 0.0
H363 H 0.7237 0.57609 0.2387 0.0
H364 H 0.72079 0.73277 0.2707 0.0
H365 H 0.75918 0.68878 0.24631 0.0
H366 H 0.28235 0.62692 0.25997 0.0
H367 H 0.76032 0.63028 0.23399 0.0
H368 H 0.42103 0.48345 0.18008 0.0
N369 N 0.38941 0.60088 0.23594 0.0
C370 C 0.37525 0.57157 0.22703 0.0
C371 C 0.30823 0.61099 0.25087 0.0
C372 C 0.32719 0.56024 0.23047 0.0
C373 C 0.35645 0.62108 0.24705 0.0
C374 C 0.29362 0.5803 0.24278 0.0
N375 N 0.45384 0.56637 0.20971 0.0
C376 C 0.48485 0.55201 0.19261 0.0
C377 C 0.39578 0.52313 0.20362 0.0
C378 C 0.40905 0.55336 0.21395 0.0
C379 C 0.42969 0.50676 0.18836 0.0
C380 C 0.47409 0.5216 0.18238 0.0
H381 H 0.25628 0.57254 0.24578 0.0
H382 H 0.27766 0.52018 0.22398 0.0
H383 H 0.33779 0.48764 0.20036 0.0
O384 O 0.45744 0.61887 0.18827 0.0
O385 O 0.4442 0.5897 0.26386 0.0
O386 O 0.51381 0.57463 0.28639 0.0
O387 O 0.44229 0.65911 0.21311 0.0
O388 O 0.54147 0.59473 0.22523 0.0
O389 O 0.56195 0.57385 0.26502 0.0
O390 O 0.55029 0.61901 0.33022 0.0
O391 O 0.54834 0.65874 0.26482 0.0
O392 O 0.54227 0.63498 0.22551 0.0
O393 O 0.61353 0.59638 0.31462 0.0
O394 O 0.48829 0.6336 0.29809 0.0
O395 O 0.45659 0.6526 0.25872 0.0
C396 C 0.4668 0.57196 0.28131 0.0
C397 C 0.39693 0.65389 0.17351 0.0
C398 C 0.35999 0.65482 0.13011 0.0
C399 C 0.31743 0.66755 0.14126 0.0
C400 C 0.35405 0.66639 0.18414 0.0
C401 C 0.31452 0.67305 0.16803 0.0
C402 C 0.39944 0.6479 0.14662 0.0
C403 C 0.55892 0.57144 0.23957 0.0
C404 C 0.44043 0.64776 0.18951 0.0
C405 C 0.31427 0.52952 0.22129 0.0
C406 C 0.34856 0.51095 0.20793 0.0
C407 C 0.55545 0.65953 0.23973 0.0
C408 C 0.62262 0.62285 0.35483 0.0
C409 C 0.6447 0.63323 0.40002 0.0
C410 C 0.68077 0.65501 0.39155 0.0
C411 C 0.65995 0.6439 0.34683 0.0
C412 C 0.61539 0.61736 0.38148 0.0
C413 C 0.68835 0.66019 0.3651 0.0
C414 C 0.45745 0.65105 0.28449 0.0
C415 C 0.59185 0.606 0.3356 0.0
H416 H 0.28658 0.67388 0.12931 0.0
H417 H 0.35116 0.67127 0.20475 0.0
H418 H 0.28162 0.68292 0.1763 0.0
H419 H 0.43241 0.6377 0.13866 0.0
H420 H 0.7042 0.66729 0.40536 0.0
H421 H 0.66777 0.64744 0.32652 0.0
H422 H 0.58719 0.6007 0.38777 0.0
H423 H 0.71689 0.67647 0.35873 0.0
H424 H 0.21774 0.94599 0.35374 0.0
H425 H 0.10069 0.9211 0.40733 0.0
H426 H 0.05088 0.96397 0.38897 0.0
H427 H 0.20225 0.02929 0.35078 0.0
H428 H 0.21112 0.03287 0.3162 0.0
H429 H 0.23938 1.00062 0.33373 0.0
H430 H 0.19833 0.95898 0.30321 0.0
H431 H 0.17011 0.99103 0.28539 0.0
H432 H 0.13316 0.95934 0.29909 0.0
H433 H 0.01855 0.01403 0.36927 0.0
H434 H 0.99538 0.05915 0.3416 0.0
H435 H 0.12546 0.04527 0.29514 0.0
C436 C 0.18134 0.94888 0.36137 0.0
C437 C 0.16429 0.93063 0.38285 0.0
C438 C 0.11603 0.93559 0.39188 0.0
C439 C 0.08705 0.95977 0.38141 0.0
C440 C 0.10585 0.97806 0.36115 0.0
C441 C 0.15102 0.97217 0.3505 0.0
C442 C 0.16093 0.9942 0.32759 0.0
C443 C 0.2061 0.0155 0.33238 0.0
C444 C 0.16592 0.97472 0.30232 0.0
C445 C 0.11475 0.01388 0.32762 0.0
C446 C 0.08406 1.00452 0.34749 0.0
C447 C 0.04128 0.02075 0.35294 0.0
C448 C 0.02839 0.04638 0.33691 0.0
C449 C 0.057 0.05478 0.31489 0.0
C450 C 0.10151 0.03874 0.31081 0.0
H451 H 0.34722 0.5548 0.90081 0.0
H452 H 0.32064 0.62891 0.8433 0.0
H453 H 0.34905 0.59232 0.80885 0.0
H454 H 0.45938 0.52711 0.87174 0.0
H455 H 0.44804 0.48575 0.88032 0.0
H456 H 0.4239 0.51749 0.90022 0.0
H457 H 0.33715 0.49333 0.89474 0.0
H458 H 0.36103 0.46174 0.87459 0.0
H459 H 0.31309 0.48696 0.86254 0.0
H460 H 0.37998 0.54692 0.78031 0.0
H461 H 0.41637 0.4984 0.76081 0.0
H462 H 0.42731 0.45563 0.83741 0.0
C463 C 0.34792 0.56375 0.88109 0.0
C464 C 0.33118 0.59499 0.87501 0.0
C465 C 0.33214 0.60503 0.84865 0.0
C466 C 0.34857 0.58443 0.82888 0.0
C467 C 0.36449 0.55386 0.83564 0.0
C468 C 0.36484 0.54372 0.86117 0.0
C469 C 0.38515 0.51009 0.86345 0.0
C470 C 0.43189 0.51013 0.87991 0.0
C471 C 0.34681 0.48665 0.87448 0.0
C472 C 0.39602 0.5028 0.8352 0.0
C473 C 0.38351 0.52822 0.8194 0.0
C474 C 0.38998 0.52692 0.79254 0.0
C475 C 0.41042 0.49914 0.78161 0.0
C476 C 0.42465 0.47312 0.79754 0.0
C477 C 0.41689 0.47506 0.82467 0.0
H478 H 0.68445 0.55207 0.63503 0.0
H479 H 0.6489 0.6361 0.68108 0.0
H480 H 0.61013 0.60107 0.71403 0.0
H481 H 0.57524 0.50915 0.64586 0.0
H482 H 0.60305 0.47019 0.64797 0.0
H483 H 0.6314 0.50141 0.62891 0.0
H484 H 0.71132 0.49555 0.65524 0.0
H485 H 0.68331 0.46397 0.67412 0.0
H486 H 0.70946 0.49855 0.69019 0.0
H487 H 0.56931 0.55764 0.73984 0.0
H488 H 0.53498 0.50824 0.75901 0.0
H489 H 0.59855 0.45173 0.69697 0.0
C490 C 0.66887 0.56306 0.65218 0.0
C491 C 0.66964 0.59684 0.65552 0.0
C492 C 0.64921 0.61031 0.67828 0.0
C493 C 0.62685 0.59061 0.69699 0.0
C494 C 0.62565 0.55751 0.69275 0.0
C495 C 0.64668 0.54376 0.67109 0.0
C496 C 0.63963 0.50755 0.671 0.0
C497 C 0.6106 0.49644 0.64701 0.0
C498 C 0.68886 0.4904 0.67275 0.0
C499 C 0.61034 0.50314 0.6957 0.0
C500 C 0.60283 0.53231 0.70793 0.0
C501 C 0.5757 0.53465 0.73067 0.0
C502 C 0.55655 0.50641 0.74147 0.0
C503 C 0.56505 0.47613 0.72978 0.0
C504 C 0.59169 0.47456 0.70636 0.0
H505 H 0.81454 0.97523 0.13818 0.0
H506 H 0.87534 0.88753 0.16911 0.0
H507 H 0.91729 0.91901 0.20347 0.0
H508 H 0.91729 0.02522 0.14797 0.0
H509 H 0.88325 0.06021 0.15731 0.0
H510 H 0.85616 0.03061 0.13612 0.0
H511 H 0.7836 0.02446 0.16786 0.0
H512 H 0.81058 0.05378 0.1894 0.0
H513 H 0.79482 0.01431 0.20132 0.0
H514 H 0.96014 0.96086 0.23106 0.0
H515 H 0.99404 1.00932 0.25269 0.0
H516 H 0.89995 0.06943 0.20636 0.0
C517 C 0.83625 0.96267 0.1524 0.0
C518 C 0.84179 0.92894 0.15104 0.0
C519 C 0.87034 0.91329 0.16998 0.0
C520 C 0.89441 0.931 0.18947 0.0
C521 C 0.88881 0.96429 0.19004 0.0
C522 C 0.85978 0.97992 0.17226 0.0
C523 C 0.86026 0.01593 0.17695 0.0
C524 C 0.88045 0.03405 0.15317 0.0
C525 C 0.80928 0.02782 0.18433 0.0
C526 C 0.89495 0.01823 0.19978 0.0
C527 C 0.91134 0.98818 0.2069 0.0
C528 C 0.9468 0.98441 0.226 0.0
C529 C 0.96602 1.01202 0.23807 0.0
C530 C 0.94911 0.04291 0.23138 0.0
C531 C 0.91273 0.04598 0.21219 0.0
H532 H 0.87715 0.1131 0.67264 0.0
H533 H 0.78532 0.05559 0.62184 0.0
H534 H 0.80249 1.00752 0.64814 0.0
H535 H 0.96868 0.05546 0.68083 0.0
H536 H 0.9806 0.06462 0.71449 0.0
H537 H 0.95696 0.09513 0.69338 0.0
H538 H 0.88472 0.10337 0.72515 0.0
H539 H 0.90833 0.07254 0.74609 0.0
H540 H 0.8469 0.06948 0.73398 0.0
H541 H 0.83641 0.96477 0.67633 0.0
H542 H 0.88427 0.93002 0.7055 0.0
H543 H 0.95318 0.01416 0.73945 0.0
C544 C 0.85972 0.09053 0.66753 0.0
C545 C 0.82967 0.0881 0.64523 0.0
C546 C 0.80847 0.05798 0.63878 0.0
C547 C 0.81787 0.03057 0.65367 0.0
C548 C 0.84849 0.03353 0.67512 0.0
C549 C 0.86897 0.06272 0.6822 0.0
C550 C 0.90325 0.05865 0.70515 0.0
C551 C 0.95545 0.06908 0.69801 0.0
C552 C 0.88467 0.07711 0.72901 0.0
C553 C 0.89974 0.02256 0.70935 0.0
C554 C 0.86761 1.00864 0.69187 0.0
C555 C 0.86088 0.97544 0.69045 0.0
C556 C 0.88814 0.95589 0.70704 0.0
C557 C 0.9213 0.96955 0.72499 0.0
C558 C 0.92675 1.00331 0.72643 0.0
H559 H 0.69534 0.47725 0.12608 0.0
H560 H 0.68948 0.39236 0.17467 0.0
H561 H 0.6459 0.42315 0.20862 0.0
H562 H 0.71941 0.53269 0.17766 0.0
H563 H 0.68359 0.56447 0.1639 0.0
H564 H 0.71162 0.53528 0.14294 0.0
H565 H 0.62764 0.5219 0.12274 0.0
H566 H 0.59879 0.55067 0.14379 0.0
H567 H 0.57807 0.50946 0.14345 0.0
H568 H 0.60356 0.46358 0.23727 0.0
H569 H 0.56641 0.51071 0.25867 0.0
H570 H 0.60522 0.56979 0.19237 0.0
C571 C 0.68413 0.46508 0.14372 0.0
C572 C 0.69505 0.4324 0.14775 0.0
C573 C 0.68106 0.41738 0.17128 0.0
C574 C 0.65638 0.43465 0.1906 0.0
C575 C 0.64659 0.46699 0.18614 0.0
C576 C 0.66023 0.48209 0.16333 0.0
C577 C 0.6473 0.51738 0.16381 0.0
C578 C 0.69322 0.5387 0.16197 0.0
C579 C 0.61077 0.52532 0.14217 0.0
C580 C 0.62405 0.51975 0.19038 0.0
C581 C 0.62371 0.49041 0.20292 0.0
C582 C 0.60363 0.48666 0.22762 0.0
C583 C 0.58284 0.51353 0.23966 0.0
C584 C 0.58239 0.54367 0.22698 0.0
C585 C 0.60424 0.54686 0.20228 0.0
H586 H 0.42519 0.43147 0.38555 0.0
H587 H 0.27231 0.43128 0.36472 0.0
H588 H 0.28828 0.47459 0.33275 0.0
H589 H 0.44676 0.51635 0.38031 0.0
H590 H 0.50662 0.51226 0.36638 0.0
H591 H 0.48292 0.48161 0.38769 0.0
H592 H 0.49713 0.43862 0.35206 0.0
H593 H 0.52091 0.46915 0.33065 0.0
H594 H 0.47076 0.444 0.32031 0.0
H595 H 0.3208 0.52022 0.30477 0.0
H596 H 0.36778 0.56114 0.28073 0.0
H597 H 0.5006 0.52843 0.31723 0.0
C598 C 0.39508 0.44066 0.3743 0.0
C599 C 0.34739 0.42823 0.3777 0.0
C600 C 0.30906 0.44046 0.36235 0.0
C601 C 0.3178 0.4651 0.34424 0.0
C602 C 0.36523 0.47694 0.34143 0.0
C603 C 0.40332 0.46485 0.35584 0.0
C604 C 0.45109 0.48112 0.34865 0.0
C605 C 0.47313 0.49889 0.37216 0.0
C606 C 0.48709 0.45677 0.33724 0.0
C607 C 0.43392 0.50449 0.32813 0.0
C608 C 0.38424 0.50189 0.32438 0.0
C609 C 0.35987 0.52195 0.30719 0.0
C610 C 0.38702 0.545 0.29333 0.0
C611 C 0.43821 0.54754 0.29621 0.0
C612 C 0.46167 0.52696 0.31408 0.0
H613 H 0.16893 0.05352 0.90071 0.0
H614 H 0.15562 0.13802 0.85208 0.0
H615 H 0.11668 0.10483 0.81786 0.0
H616 H 0.19735 0.99834 0.84894 0.0
H617 H 0.1636 0.96538 0.86305 0.0
H618 H 0.19003 0.99586 0.8837 0.0
H619 H 0.10524 1.00634 0.90409 0.0
H620 H 0.0786 0.97599 0.88339 0.0
H621 H 0.05481 0.0162 0.88326 0.0
H622 H 0.07768 0.06274 0.78943 0.0
H623 H 0.04497 0.01427 0.76782 0.0
H624 H 0.08591 0.95662 0.83429 0.0
C625 C 0.1575 0.06507 0.88292 0.0
C626 C 0.16511 0.09839 0.87906 0.0
C627 C 0.15042 0.11252 0.85536 0.0
C628 C 0.12807 0.0939 0.83589 0.0
C629 C 0.12096 0.06116 0.84037 0.0
C630 C 0.1355 0.04681 0.86323 0.0
C631 C 0.12454 1.01102 0.86294 0.0
C632 C 0.17169 0.99151 0.86476 0.0
C633 C 0.08866 1.00186 0.88471 0.0
C634 C 0.10123 1.00752 0.83641 0.0
C635 C 0.09943 0.03676 0.82376 0.0
C636 C 0.0793 0.0397 0.79908 0.0
C637 C 0.06109 1.01198 0.78688 0.0
C638 C 0.06372 0.98161 0.79916 0.0
C639 C 0.08348 0.97951 0.82441 0.0
H640 H 0.15669 0.07931 0.97175 0.0
H641 H 0.19507 0.18005 0.98296 0.0
H642 H 0.17487 0.17544 0.02915 0.0
H643 H 0.0507 0.08227 0.01574 0.0
H644 H 0.05955 0.04191 0.02734 0.0
H645 H 0.07791 0.05261 0.99484 0.0
H646 H 0.16512 0.03286 1.00459 0.0
H647 H 0.14721 0.02243 0.03719 0.0
H648 H 0.19793 0.04943 0.03191 0.0
H649 H 0.15926 0.15906 0.07452 0.0
H650 H 0.137 0.1345 0.11585 0.0
H651 H 0.09393 0.04681 0.07527 0.0
C652 C 0.1602 0.10061 0.98371 0.0
C653 C 0.17909 0.12984 0.97349 0.0
C654 C 0.18287 0.15695 0.99019 0.0
C655 C 0.17091 0.15474 0.01654 0.0
C656 C 0.15371 0.12551 0.02599 0.0
C657 C 0.1471 0.09912 1.01008 0.0
C658 C 0.12637 0.0709 0.02535 0.0
C659 C 0.07561 0.06137 0.01521 0.0
C660 C 0.16125 0.04222 0.02471 0.0
C661 C 0.12351 0.08552 0.05238 0.0
C662 C 0.14005 0.11691 0.05219 0.0
C663 C 0.14457 0.13484 0.07484 0.0
C664 C 0.13104 0.12059 0.09837 0.0
C665 C 0.11152 0.08883 0.09927 0.0
C666 C 0.10815 0.07111 0.0757 0.0
H667 H 0.34642 0.43674 0.47228 0.0
H668 H 0.38696 0.33612 0.47359 0.0
H669 H 0.40364 0.34023 0.52044 0.0
H670 H 0.44083 0.46319 0.51994 0.0
H671 H 0.40123 0.49274 0.53412 0.0
H672 H 0.39534 0.48237 0.50024 0.0
H673 H 0.3042 0.46859 0.50757 0.0
H674 H 0.30991 0.47851 0.54148 0.0
H675 H 0.28742 0.43942 0.53192 0.0
H676 H 0.40585 0.35339 0.56811 0.0
H677 H 0.40105 0.37587 0.61218 0.0
H678 H 0.36984 0.46973 0.57935 0.0
C679 C 0.36001 0.41575 0.4822 0.0
C680 C 0.36445 0.38595 0.46911 0.0
C681 C 0.38184 0.35904 0.48313 0.0
C682 C 0.39189 0.36116 0.50979 0.0
C683 C 0.38558 0.39056 0.52221 0.0
C684 C 0.37106 0.41756 0.5088 0.0
C685 C 0.36622 0.44609 0.52697 0.0
C686 C 0.40311 0.47267 0.5199 0.0
C687 C 0.31383 0.45889 0.52698 0.0
C688 C 0.37874 0.4306 0.55274 0.0
C689 C 0.3897 0.39856 0.54958 0.0
C690 C 0.3986 0.37869 0.57078 0.0
C691 C 0.39614 0.39188 0.59588 0.0
C692 C 0.38546 0.42487 0.59976 0.0
C693 C 0.3775 0.44438 0.57758 0.0
H694 H 0.65022 0.38347 0.06254 0.0
H695 H 0.79604 0.41411 0.04074 0.0
H696 H 0.7739 0.40939 0.99441 0.0
H697 H 0.63512 0.32503 0.01262 0.0
H698 H 0.57166 0.33324 1.00706 0.0
H699 H 0.59792 0.34042 0.03862 0.0
H700 H 0.56949 0.39957 0.03715 0.0
H701 H 0.54277 0.3925 1.00567 0.0
H702 H 0.58669 0.4245 1.00998 0.0
H703 H 0.73714 0.39987 0.95066 0.0
H704 H 0.68754 0.38697 0.91203 0.0
H705 H 0.56508 0.36267 0.96186 0.0
C706 C 0.67721 0.38964 0.04799 0.0
C707 C 0.7249 0.39911 0.05523 0.0
C708 C 0.75947 0.4065 0.03563 0.0
C709 C 0.74718 0.40401 1.00928 0.0
C710 C 0.70017 0.39409 1.0028 0.0
C711 C 0.66562 0.38713 0.02154 0.0
C712 C 0.61806 0.37624 1.00925 0.0
C713 C 0.60494 0.34168 0.01737 0.0
C714 C 0.57682 0.3996 0.01591 0.0
C715 C 0.63146 0.37796 0.9807 0.0
C716 C 0.67894 0.38844 0.97746 0.0
C717 C 0.6998 0.39184 0.95294 0.0
C718 C 0.67128 0.38456 0.93111 0.0
C719 C 0.62237 0.37394 0.93389 0.0
C720 C 0.60244 0.37047 0.9591 0.0
H721 H 0.86219 0.18015 0.5466 0.0
H722 H 0.80645 0.08247 0.55315 0.0
H723 H 0.81504 0.07568 0.50576 0.0
H724 H 0.79582 0.19884 0.49026 0.0
H725 H 0.84285 0.224 0.47641 0.0
H726 H 0.83851 0.21958 0.5111 0.0
H727 H 0.92816 0.20078 0.51267 0.0
H728 H 0.9327 0.20501 0.47791 0.0
H729 H 0.94672 0.16716 0.493 0.0
H730 H 0.82493 0.08083 0.45655 0.0
H731 H 0.82969 0.09891 0.41067 0.0
H732 H 0.8734 0.19394 0.43671 0.0
C733 C 0.85165 0.15725 0.53826 0.0
C734 C 0.83376 0.13184 0.554 0.0
C735 C 0.82124 0.10221 0.54188 0.0
C736 C 0.82575 0.09813 0.51484 0.0
C737 C 0.84267 0.1239 0.49997 0.0
C738 C 0.85519 0.15293 0.51132 0.0
C739 C 0.86873 0.17774 0.49099 0.0
C740 C 0.83442 0.20674 0.49227 0.0
C741 C 0.92226 0.18828 0.49382 0.0
C742 C 0.86089 0.15839 0.46637 0.0
C743 C 0.84673 0.12719 0.47187 0.0
C744 C 0.83626 0.10517 0.45207 0.0
C745 C 0.83926 0.11555 0.42608 0.0
C746 C 0.85184 0.14778 0.42017 0.0
C747 C 0.86361 0.16916 0.44066 0.0
H748 H 0.8189 0.86584 0.03761 0.0
H749 H 0.82473 0.96538 0.06332 0.0
H750 H 0.84052 0.98244 0.01829 0.0
H751 H 0.9084 0.8709 0.98648 0.0
H752 H 0.87454 0.84499 0.96482 0.0
H753 H 0.86864 0.84018 0.99947 0.0
H754 H 0.77517 0.84677 0.99585 0.0
H755 H 0.78074 0.8514 0.9612 0.0
H756 H 0.75103 0.88191 0.98021 0.0
H757 H 0.85387 0.98893 0.96971 0.0
H758 H 0.85655 0.9843 0.92162 0.0
H759 H 0.83372 0.88151 0.92756 0.0
C760 C 0.82301 0.89131 0.034 0.0
C761 C 0.82076 0.9141 0.05449 0.0
C762 C 0.82738 0.94714 0.0484 0.0
C763 C 0.83607 0.95718 0.02273 0.0
C764 C 0.83754 0.93404 1.00313 0.0
C765 C 0.83065 0.90182 1.00846 0.0
C766 C 0.83063 0.88191 0.98376 0.0
C767 C 0.87309 0.85809 0.98364 0.0
C768 C 0.78147 0.86448 0.98004 0.0
C769 C 0.83808 0.908 0.96363 0.0
C770 C 0.84287 0.93788 0.9752 0.0
C771 C 0.85014 0.96566 0.96048 0.0
C772 C 0.85176 0.96285 0.93327 0.0
C773 C 0.84543 0.93261 0.92113 0.0
C774 C 0.83881 0.90487 0.93651 0.0
H775 H 0.66755 0.675 0.54989 0.0
H776 H 0.67859 0.57252 0.56425 0.0
H777 H 0.65779 0.56168 0.51843 0.0
H778 H 0.56979 0.67145 0.50143 0.0
H779 H 0.59676 0.703 0.4821 0.0
H780 H 0.60577 0.70255 0.51679 0.0
H781 H 0.6993 0.70385 0.50997 0.0
H782 H 0.69058 0.70442 0.47535 0.0
H783 H 0.72722 0.6736 0.48992 0.0
H784 H 0.64242 0.56218 0.4701 0.0
H785 H 0.63879 0.57416 0.42307 0.0
H786 H 0.64182 0.6762 0.44027 0.0
C787 C 0.66552 0.65022 0.54353 0.0
C788 C 0.67461 0.62464 0.56085 0.0
C789 C 0.67093 0.59258 0.55159 0.0
C790 C 0.65927 0.58616 0.52553 0.0
C791 C 0.65139 0.61202 0.50894 0.0
C792 C 0.6545 0.64341 0.51759 0.0
C793 C 0.64853 0.66697 0.49549 0.0
C794 C 0.60246 0.68718 0.49918 0.0
C795 C 0.69413 0.68846 0.49251 0.0
C796 C 0.64303 0.64395 0.4729 0.0
C797 C 0.64379 0.61234 0.48107 0.0
C798 C 0.64126 0.58683 0.46351 0.0
C799 C 0.63898 0.59385 0.43687 0.0
C800 C 0.63994 0.62608 0.42811 0.0
C801 C 0.64104 0.65134 0.44646 0.0
H802 H 0.25852 0.62395 0.98656 0.0
H803 H 0.4051 0.63992 0.95778 0.0
H804 H 0.43508 0.64435 1.00307 0.0
H805 H 0.26289 0.67922 0.03756 0.0
H806 H 0.22795 0.65522 0.06008 0.0
H807 H 0.21896 0.6503 0.02567 0.0
H808 H 0.2373 0.58953 0.02945 0.0
H809 H 0.24583 0.59416 0.06397 0.0
H810 H 0.29329 0.57687 0.04436 0.0
H811 H 0.44675 0.65326 0.05141 0.0
H812 H 0.44096 0.66165 0.09866 0.0
H813 H 0.28714 0.63642 0.09591 0.0
C814 C 0.29706 0.6279 0.98983 0.0
C815 C 0.32958 0.63161 0.96872 0.0
C816 C 0.37973 0.63669 0.97371 0.0
C817 C 0.39698 0.63939 0.99934 0.0
C818 C 0.36366 0.63647 0.01972 0.0
C819 C 0.31487 0.63031 0.01523 0.0
C820 C 0.2863 0.62909 0.0404 0.0
C821 C 0.2467 0.655 0.04095 0.0
C822 C 0.2644 0.5954 0.0448 0.0
C823 C 0.32633 0.63643 0.05978 0.0
C824 C 0.37069 0.64058 0.0475 0.0
C825 C 0.41239 0.64936 0.06127 0.0
C826 C 0.40871 0.65388 0.08825 0.0
C827 C 0.36367 0.64939 0.1014 0.0
C828 C 0.32213 0.64033 0.08673 0.0
H829 H 0.20884 0.93452 0.47192 0.0
H830 H 0.22404 0.83096 0.46955 0.0
H831 H 0.20612 0.82842 0.51682 0.0
H832 H 0.26214 0.94734 0.5349 0.0
H833 H 0.22048 0.97894 0.54324 0.0
H834 H 0.23629 0.97198 0.50976 0.0
H835 H 0.14476 0.96559 0.49836 0.0
H836 H 0.12868 0.97219 0.53186 0.0
H837 H 0.10826 0.93623 0.51543 0.0
H838 H 0.18324 0.83798 0.56467 0.0
H839 H 0.16432 0.8589 0.60864 0.0
H840 H 0.16177 0.9558 0.57784 0.0
C841 C 0.20839 0.91124 0.4813 0.0
C842 C 0.21743 0.88287 0.46705 0.0
C843 C 0.21744 0.85299 0.48016 0.0
C844 C 0.20694 0.85133 0.50692 0.0
C845 C 0.19674 0.87979 0.52019 0.0
C846 C 0.19787 0.90919 0.50776 0.0
C847 C 0.18562 0.93636 0.52607 0.0
C848 C 0.22871 0.96004 0.52864 0.0
C849 C 0.13906 0.95359 0.51741 0.0
C850 C 0.17738 0.9178 0.55089 0.0
C851 C 0.18372 0.8852 0.54724 0.0
C852 C 0.17822 0.86347 0.56768 0.0
C853 C 0.16706 0.87553 0.59253 0.0
C854 C 0.16171 0.90899 0.5967 0.0
C855 C 0.16614 0.93013 0.57539 0.0
H856 H 0.24368 0.28899 0.33645 0.0
H857 H 0.16136 0.30008 0.40761 0.0
H858 H 0.09612 0.26485 0.38992 0.0
H859 H 0.13567 0.28541 0.2921 0.0
H860 H 0.16321 0.25593 0.27132 0.0
H861 H 0.20087 0.28495 0.28802 0.0
H862 H 0.25089 0.23949 0.30852 0.0
H863 H 0.21393 0.20968 0.29247 0.0
H864 H 0.22036 0.20872 0.32723 0.0
H865 H 0.04561 0.22265 0.36672 0.0
H866 H 0.0104 0.18036 0.33856 0.0
H867 H 0.12469 0.19774 0.28201 0.0
C868 C 0.211 0.2849 0.34782 0.0
C869 C 0.20668 0.29764 0.37309 0.0
C870 C 0.16449 0.291 0.38793 0.0
C871 C 0.12747 0.27091 0.37809 0.0
C872 C 0.13322 0.25787 0.35331 0.0
C873 C 0.17354 0.26504 0.33818 0.0
C874 C 0.17221 0.24648 0.31283 0.0
C875 C 0.16774 0.26956 0.2897 0.0
C876 C 0.21702 0.22483 0.31013 0.0
C877 C 0.12597 0.2268 0.31647 0.0
C878 C 0.10384 0.23385 0.33987 0.0
C879 C 0.06224 0.21733 0.34815 0.0
C880 C 0.04268 0.19315 0.33206 0.0
C881 C 0.06461 0.18559 0.30787 0.0
C882 C 0.10663 0.20296 0.30008 0.0
H883 H 0.28327 0.25503 0.87186 0.0
H884 H 0.36756 0.17146 0.85106 0.0
H885 H 0.41562 0.20437 0.81998 0.0
H886 H 0.28428 0.29396 0.80596 0.0
H887 H 0.28974 0.33354 0.82008 0.0
H888 H 0.25768 0.30216 0.83727 0.0
H889 H 0.31401 0.31175 0.87701 0.0
H890 H 0.34664 0.3426 0.85963 0.0
H891 H 0.37906 0.30898 0.87294 0.0
H892 H 0.46229 0.24789 0.7968 0.0
H893 H 0.50042 0.29813 0.78058 0.0
H894 H 0.38394 0.35339 0.81483 0.0
C895 C 0.31065 0.24354 0.85997 0.0
C896 C 0.32134 0.21073 0.86324 0.0
C897 C 0.35842 0.19649 0.84826 0.0
C898 C 0.3859 0.21502 0.83068 0.0
C899 C 0.37547 0.24765 0.82832 0.0
C900 C 0.33824 0.26173 0.84229 0.0
C901 C 0.33701 0.29771 0.83779 0.0
C902 C 0.28935 0.30741 0.82446 0.0
C903 C 0.34465 0.31633 0.86336 0.0
C904 C 0.3802 0.30187 0.81974 0.0
C905 C 0.40187 0.27269 0.8145 0.0
C906 C 0.44505 0.27076 0.80034 0.0
C907 C 0.46668 0.29934 0.79142 0.0
C908 C 0.44483 0.32933 0.79641 0.0
C909 C 0.40076 0.33058 0.81043 0.0
H910 H 0.7201 0.26917 0.64099 0.0
H911 H 0.73894 0.19289 0.69709 0.0
H912 H 0.68873 0.22314 0.72893 0.0
H913 H 0.72783 0.33481 0.68579 0.0
H914 H 0.68246 0.35849 0.66957 0.0
H915 H 0.71842 0.3304 0.65129 0.0
H916 H 0.63954 0.30265 0.63456 0.0
H917 H 0.60333 0.33062 0.65285 0.0
H918 H 0.59516 0.28803 0.65762 0.0
H919 H 0.6374 0.26271 0.75462 0.0
H920 H 0.5888 0.30745 0.77208 0.0
H921 H 0.60491 0.35836 0.69908 0.0
C922 C 0.71331 0.25883 0.65997 0.0
C923 C 0.73293 0.22879 0.66677 0.0
C924 C 0.72386 0.21588 0.69167 0.0
C925 C 0.69549 0.23291 0.70978 0.0
C926 C 0.67671 0.2627 0.70254 0.0
C927 C 0.68521 0.27551 0.67818 0.0
C928 C 0.6615 0.30808 0.67526 0.0
C929 C 0.69985 0.3345 0.67018 0.0
C930 C 0.62258 0.30728 0.6538 0.0
C931 C 0.63855 0.31184 0.70184 0.0
C932 C 0.64756 0.28538 0.71727 0.0
C933 C 0.63008 0.28345 0.74264 0.0
C934 C 0.60254 0.30905 0.7524 0.0
C935 C 0.59255 0.33632 0.73688 0.0
C936 C 0.6113 0.33769 0.71132 0.0
H937 H 0.8788 0.3363 0.18795 0.0
H938 H 0.83862 0.28849 0.11615 0.0
H939 H 0.86125 0.2361 0.13511 0.0
H940 H 0.9823 0.29073 0.2012 0.0
H941 H 0.97372 0.28877 0.23589 0.0
H942 H 0.94987 0.32212 0.21786 0.0
H943 H 0.86347 0.31027 0.23601 0.0
H944 H 0.88725 0.27703 0.2543 0.0
H945 H 0.83728 0.27066 0.23216 0.0
H946 H 0.89579 0.1905 0.15975 0.0
H947 H 0.93573 0.15301 0.18982 0.0
H948 H 0.95181 0.22941 0.24672 0.0
C949 C 0.87387 0.3146 0.17656 0.0
C950 C 0.85673 0.31594 0.15078 0.0
C951 C 0.85136 0.28752 0.13606 0.0
C952 C 0.86412 0.25779 0.14664 0.0
C953 C 0.88182 0.25711 0.17201 0.0
C954 C 0.88621 0.28464 0.18695 0.0
C955 C 0.90827 0.27726 0.21327 0.0
C956 C 0.95639 0.29582 0.21727 0.0
C957 C 0.87189 0.28422 0.23523 0.0
C958 C 0.91688 0.2415 0.21046 0.0
C959 C 0.90117 0.23044 0.18651 0.0
C960 C 0.90764 0.19874 0.17869 0.0
C961 C 0.9307 0.17773 0.19581 0.0
C962 C 0.94668 0.18842 0.22053 0.0
C963 C 0.93938 0.22065 0.22801 0.0
H964 H 0.77029 0.76474 0.66136 0.0
H965 H 0.85514 0.67975 0.6767 0.0
H966 H 0.90858 0.71135 0.70626 0.0
H967 H 0.86821 0.81763 0.65744 0.0
H968 H 0.83834 0.85126 0.6725 0.0
H969 H 0.80293 0.82123 0.65564 0.0
H970 H 0.75096 0.81099 0.6969 0.0
H971 H 0.7855 0.84181 0.71334 0.0
H972 H 0.78082 0.80204 0.72713 0.0
H973 H 0.95917 0.75384 0.72869 0.0
H974 H 0.99975 0.80319 0.74512 0.0
H975 H 0.88015 0.86035 0.71673 0.0
C976 C 0.79911 0.75265 0.67174 0.0
C977 C 0.80832 0.71983 0.66742 0.0
C978 C 0.84719 0.7048 0.68037 0.0
C979 C 0.87771 0.72259 0.69706 0.0
C980 C 0.86851 0.75526 0.70051 0.0
C981 C 0.82977 0.77008 0.68844 0.0
C982 C 0.82997 0.80592 0.69371 0.0
C983 C 0.83519 0.82512 0.66831 0.0
C984 C 0.7841 0.81576 0.70871 0.0
C985 C 0.87527 0.80912 0.71033 0.0
C986 C 0.89712 0.77964 0.71391 0.0
C987 C 0.94189 0.77693 0.72644 0.0
C988 C 0.96491 0.80503 0.73548 0.0
C989 C 0.94293 0.83531 0.73218 0.0
C990 C 0.89726 0.83731 0.71978 0.0
H991 H 0.72076 0.75808 0.13898 0.0
H992 H 0.68559 0.84425 0.18208 0.0
H993 H 0.63867 0.81141 0.21384 0.0
H994 H 0.60734 0.71999 0.14489 0.0
H995 H 0.63049 0.67989 0.14865 0.0
H996 H 0.66536 0.70947 0.13101 0.0
H997 H 0.73911 0.70034 0.1614 0.0
H998 H 0.70463 0.67051 0.17909 0.0
H999 H 0.7314 0.7042 0.19605 0.0
H1000 H 0.5912 0.76933 0.23901 0.0
H1001 H 0.54893 0.72138 0.25655 0.0
H1002 H 0.61436 0.6625 0.19662 0.0
C1003 C 0.70406 0.76982 0.1555 0.0
C1004 C 0.7071 0.80348 0.15852 0.0
C1005 C 0.68406 0.81837 0.17984 0.0
C1006 C 0.65731 0.79992 0.19784 0.0
C1007 C 0.65413 0.7667 0.19411 0.0
C1008 C 0.67727 0.75174 0.17358 0.0
C1009 C 0.66645 0.71591 0.17329 0.0
C1010 C 0.64089 0.70574 0.14796 0.0
C1011 C 0.71318 0.6966 0.17772 0.0
C1012 C 0.63245 0.71313 0.19638 0.0
C1013 C 0.62625 0.74263 0.2083 0.0
C1014 C 0.59611 0.74614 0.22989 0.0
C1015 C 0.5722 0.71879 0.23969 0.0
C1016 C 0.57843 0.68831 0.22793 0.0
C1017 C 0.60863 0.68557 0.20585 0.0
H1018 H 0.34759 0.81906 0.3278 0.0
H1019 H 0.30323 0.77313 0.39955 0.0
H1020 H 0.32823 0.7203 0.38184 0.0
H1021 H 0.31181 0.75234 0.28343 0.0
H1022 H 0.36383 0.75868 0.26263 0.0
H1023 H 0.3376 0.79208 0.27985 0.0
H1024 H 0.42168 0.80518 0.30037 0.0
H1025 H 0.44803 0.77185 0.28327 0.0
H1026 H 0.45317 0.77438 0.31812 0.0
H1027 H 0.36668 0.67422 0.35844 0.0
H1028 H 0.41359 0.63739 0.33047 0.0
H1029 H 0.43081 0.71272 0.27306 0.0
C1030 C 0.34214 0.79765 0.33943 0.0
C1031 C 0.32307 0.79968 0.36481 0.0
C1032 C 0.3173 0.77165 0.37991 0.0
C1033 C 0.33138 0.74169 0.37001 0.0
C1034 C 0.35083 0.74038 0.34497 0.0
C1035 C 0.35588 0.76758 0.32977 0.0
C1036 C 0.38068 0.75995 0.30418 0.0
C1037 C 0.34642 0.76613 0.28116 0.0
C1038 C 0.42873 0.77897 0.30133 0.0
C1039 C 0.38987 0.72438 0.30759 0.0
C1040 C 0.37222 0.71357 0.33122 0.0
C1041 C 0.37983 0.68225 0.33969 0.0
C1042 C 0.40661 0.66156 0.32375 0.0
C1043 C 0.42515 0.67218 0.29955 0.0
C1044 C 0.41593 0.70382 0.29119 0.0
H1045 H 0.17743 0.75614 0.89216 0.0
H1046 H 0.19559 0.68258 0.83341 0.0
H1047 H 0.1635 0.71981 0.79999 0.0
H1048 H 0.06597 0.78596 0.86905 0.0
H1049 H 0.0788 0.8276 0.87615 0.0
H1050 H 0.10675 0.79654 0.89517 0.0
H1051 H 0.19247 0.8192 0.8845 0.0
H1052 H 0.16507 0.85087 0.86587 0.0
H1053 H 0.20986 0.82526 0.85107 0.0
H1054 H 0.12534 0.76401 0.77385 0.0
H1055 H 0.08467 0.81178 0.75636 0.0
H1056 H 0.0925 0.85739 0.83216 0.0
C1057 C 0.17531 0.74818 0.87213 0.0
C1058 C 0.18918 0.71682 0.86504 0.0
C1059 C 0.1854 0.70673 0.83894 0.0
C1060 C 0.16722 0.72768 0.81994 0.0
C1061 C 0.15323 0.75849 0.82755 0.0
C1062 C 0.15732 0.76879 0.85301 0.0
C1063 C 0.13809 0.80263 0.85628 0.0
C1064 C 0.09484 0.8032 0.87528 0.0
C1065 C 0.17881 0.82586 0.86494 0.0
C1066 C 0.12189 0.80965 0.82876 0.0
C1067 C 0.13107 0.7839 0.81252 0.0
C1068 C 0.11814 0.78432 0.78639 0.0
C1069 C 0.09489 0.8116 0.77667 0.0
C1070 C 0.08441 0.83816 0.79299 0.0
C1071 C 0.09908 0.83728 0.81929 0.0
loop_
_geom_bond_atom_site_label_1
_geom_bond_atom_site_label_2
_geom_bond_distance
_geom_bond_site_symmetry_2
_ccdc_geom_bond_type
H0 C3 0.929 . S
H1 C6 0.929 . S
H2 C8 0.930 . S
C3 H0 0.929 . S
C3 C4 1.398 . S
C3 C5 1.396 . S
C4 C3 1.398 . S
C4 C8 1.407 . S
C5 C3 1.396 . S
C5 C6 1.394 . S
C6 H1 0.929 . S
C6 C5 1.394 . S
C6 C7 1.382 . S
C7 C6 1.382 . S
C7 C8 1.392 . S
C7 N9 1.420 . S
C8 H2 0.930 . S
C8 C4 1.407 . S
C8 C7 1.392 . S
N9 C7 1.420 . S
N9 C10 1.244 . S
C10 N9 1.244 . S
H11 C14 0.929 . S
H12 C17 0.929 . S
H13 C19 0.930 . S
C14 H11 0.929 . S
C14 C15 1.398 . S
C14 C16 1.396 . S
C15 C14 1.398 . S
C15 C19 1.407 . S
C16 C14 1.396 . S
C16 C17 1.394 . S
C17 H12 0.929 . S
C17 C16 1.394 . S
C17 C18 1.382 . S
C18 C17 1.382 . S
C18 C19 1.392 . S
C18 N20 1.420 . S
C19 H13 0.930 . S
C19 C15 1.407 . S
C19 C18 1.392 . S
N20 C18 1.420 . S
N20 C21 1.244 . S
C21 N20 1.244 . S
H22 C25 0.929 . S
H23 C28 0.929 . S
H24 C30 0.930 . S
C25 H22 0.929 . S
C25 C26 1.398 . S
C25 C27 1.396 . S
C26 C25 1.398 . S
C26 C30 1.407 . S
C27 C25 1.396 . S
C27 C28 1.394 . S
C28 H23 0.929 . S
C28 C27 1.394 . S
C28 C29 1.382 . S
C29 C28 1.382 . S
C29 C30 1.392 . S
C29 N31 1.420 . S
C30 H24 0.930 . S
C30 C26 1.407 . S
C30 C29 1.392 . S
N31 C29 1.420 . S
N31 C32 1.244 . S
C32 N31 1.244 . S
H33 C36 0.929 . S
H34 C39 0.929 . S
H35 C41 0.930 . S
C36 H33 0.929 . S
C36 C37 1.398 . S
C36 C38 1.396 . S
C37 C36 1.398 . S
C37 C41 1.407 . S
C38 C36 1.396 . S
C38 C39 1.394 . S
C39 H34 0.929 . S
C39 C38 1.394 . S
C39 C40 1.382 . S
C40 C39 1.382 . S
C40 C41 1.392 . S
C40 N42 1.420 . S
C41 H35 0.930 . S
C41 C37 1.407 . S
C41 C40 1.392 . S
N42 C40 1.420 . S
N42 C43 1.244 . S
C43 N42 1.244 . S
H44 C47 0.929 . S
H45 C50 0.929 . S
H46 C52 0.930 . S
C47 H44 0.929 . S
C47 C48 1.398 . S
C47 C49 1.396 . S
C48 C47 1.398 . S
C48 C52 1.407 . S
C49 C47 1.396 . S
C49 C50 1.394 . S
C50 H45 0.929 . S
C50 C49 1.394 . S
C50 C51 1.382 . S
C51 C50 1.382 . S
C51 C52 1.392 . S
C51 N53 1.420 . S
C52 H46 0.930 . S
C52 C48 1.407 . S
C52 C51 1.392 . S
N53 C51 1.420 . S
N53 C54 1.244 . S
C54 N53 1.244 . S
H55 C58 0.929 . S
H56 C61 0.929 . S
H57 C63 0.930 . S
C58 H55 0.929 . S
C58 C59 1.398 . S
C58 C60 1.396 . S
C59 C58 1.398 . S
C59 C63 1.407 . S
C60 C58 1.396 . S
C60 C61 1.394 . S
C61 H56 0.929 . S
C61 C60 1.394 . S
C61 C62 1.382 . S
C62 C61 1.382 . S
C62 C63 1.392 . S
C62 N64 1.420 . S
C63 H57 0.930 . S
C63 C59 1.407 . S
C63 C62 1.392 . S
N64 C62 1.420 . S
N64 C65 1.244 . S
C65 N64 1.244 . S
H66 C69 0.929 . S
H67 C72 0.929 . S
H68 C74 0.930 . S
C69 H66 0.929 . S
C69 C70 1.398 . S
C69 C71 1.396 . S
C70 C69 1.398 . S
C70 C74 1.407 . S
C71 C69 1.396 . S
C71 C72 1.394 . S
C72 H67 0.929 . S
C72 C71 1.394 . S
C72 C73 1.382 . S
C73 C72 1.382 . S
C73 C74 1.392 . S
C73 N75 1.420 . S
C74 H68 0.930 . S
C74 C70 1.407 . S
C74 C73 1.392 . S
N75 C73 1.420 . S
N75 C76 1.244 . S
C76 N75 1.244 . S
H77 C80 0.929 . S
H78 C83 0.929 . S
H79 C85 0.930 . S
C80 H77 0.929 . S
C80 C81 1.398 . S
C80 C82 1.396 . S
C81 C80 1.398 . S
C81 C85 1.407 . S
C82 C80 1.396 . S
C82 C83 1.394 . S
C83 H78 0.929 . S
C83 C82 1.394 . S
C83 C84 1.382 . S
C84 C83 1.382 . S
C84 C85 1.392 . S
C84 N86 1.420 . S
C85 H79 0.930 . S
C85 C81 1.407 . S
C85 C84 1.392 . S
N86 C84 1.420 . S
N86 C87 1.244 . S
C87 N86 1.244 . S
Tb88 N117 2.617 . S
Tb88 N123 2.572 . S
Tb88 O132 2.465 . S
Tb88 O133 2.387 . S
Tb88 O135 2.428 . S
Tb88 O136 2.308 . S
Tb88 O140 2.349 . S
Tb88 O143 2.393 . S
Tb88 C152 2.802 . S
C89 N90 1.379 . S
C89 C92 1.416 . S
C89 C96 1.424 . S
N90 C89 1.379 . S
N90 C93 1.334 . S
N90 Tb99 2.617 . S
C91 C93 1.390 . S
C91 C94 1.339 . S
C91 H111 0.930 . S
C92 C89 1.416 . S
C92 C94 1.416 . S
C92 C98 1.448 . S
C93 N90 1.334 . S
C93 C91 1.390 . S
C93 H104 0.930 . S
C94 C91 1.339 . S
C94 C92 1.416 . S
C94 H115 0.930 . S
C95 C96 1.413 . S
C95 C97 1.427 . S
C95 C101 1.416 1_545 S
C96 C89 1.424 . S
C96 C95 1.413 . S
C96 N100 1.361 . S
C97 C95 1.427 . S
C97 C98 1.328 . S
C97 H112 0.929 . S
C98 C92 1.448 . S
C98 C97 1.328 . S
C98 H113 0.930 . S
Tb99 N90 2.617 . S
Tb99 N100 2.572 . S
Tb99 O134 2.349 1_655 S
Tb99 O137 2.393 . S
Tb99 O138 2.465 . S
Tb99 O139 2.387 . S
Tb99 O141 2.428 . S
Tb99 O142 2.308 1_655 S
Tb99 C163 2.802 . S
N100 C96 1.361 . S
N100 Tb99 2.572 . S
N100 C102 1.340 . S
C101 C95 1.416 1_565 S
C101 C103 1.332 . S
C101 H109 0.931 . S
C102 N100 1.340 . S
C102 C103 1.407 1_545 S
C102 H108 0.930 . S
C103 C101 1.332 . S
C103 C102 1.407 1_565 S
C103 H105 0.929 . S
H104 C93 0.930 . S
H105 C103 0.929 . S
H106 C121 0.930 . S
H107 C128 0.929 . S
H108 C102 0.930 . S
H109 C101 0.931 . S
H110 C124 0.930 . S
H111 C91 0.930 . S
H112 C97 0.929 . S
H113 C98 0.930 . S
H114 C119 0.930 . S
H115 C94 0.930 . S
H116 C127 0.931 . S
N117 Tb88 2.617 . S
N117 C118 1.379 . S
N117 C121 1.334 . S
C118 N117 1.379 . S
C118 C120 1.416 . S
C118 C126 1.424 . S
C119 H114 0.930 . S
C119 C121 1.390 . S
C119 C122 1.339 . S
C120 C118 1.416 . S
C120 C122 1.416 . S
C120 C153 1.448 . S
C121 H106 0.930 . S
C121 N117 1.334 . S
C121 C119 1.390 . S
C122 C119 1.339 . S
C122 C120 1.416 . S
C122 H129 0.930 . S
N123 Tb88 2.572 . S
N123 C124 1.340 . S
N123 C126 1.361 . S
C124 H110 0.930 . S
C124 N123 1.340 . S
C124 C128 1.407 . S
C125 C126 1.413 . S
C125 C127 1.416 . S
C125 C154 1.427 . S
C126 C118 1.424 . S
C126 N123 1.361 . S
C126 C125 1.413 . S
C127 H116 0.931 . S
C127 C125 1.416 . S
C127 C128 1.332 . S
C128 H107 0.929 . S
C128 C124 1.407 . S
C128 C127 1.332 . S
H129 C122 0.930 . S
H130 C153 0.930 . S
H131 C154 0.929 . S
O132 Tb88 2.465 . S
O132 C152 1.264 . S
O133 Tb88 2.387 . S
O133 C144 1.264 . S
O134 Tb99 2.349 1_455 S
O134 C144 1.243 . S
O135 Tb88 2.428 . S
O135 C152 1.256 . S
O136 Tb88 2.308 . S
O136 C151 1.266 1_455 S
O137 Tb99 2.393 . S
O137 C151 1.248 . S
O138 Tb99 2.465 . S
O138 C163 1.264 . S
O139 Tb99 2.387 . S
O139 C155 1.264 . S
O140 Tb88 2.349 . S
O140 C155 1.243 1_455 S
O141 Tb99 2.428 . S
O141 C163 1.256 . S
O142 Tb99 2.308 1_455 S
O142 C162 1.266 . S
O143 Tb88 2.393 . S
O143 C162 1.248 . S
C144 O133 1.264 . S
C144 O134 1.243 . S
C145 C148 1.399 . S
C145 C150 1.383 . S
C145 C152 1.496 . S
C146 C147 1.399 . S
C146 C150 1.389 . S
C147 C146 1.399 . S
C147 C149 1.380 . S
C147 H164 0.929 . S
C148 C145 1.399 . S
C148 C149 1.392 . S
C148 H165 0.929 . S
C149 C147 1.380 . S
C149 C148 1.392 . S
C149 H166 0.929 . S
C150 C145 1.383 . S
C150 C146 1.389 . S
C150 H167 0.931 . S
C151 O136 1.266 1_655 S
C151 O137 1.248 . S
C152 Tb88 2.802 . S
C152 O132 1.264 . S
C152 O135 1.256 . S
C152 C145 1.496 . S
C153 C120 1.448 . S
C153 H130 0.930 . S
C153 C154 1.328 . S
C154 C125 1.427 . S
C154 H131 0.929 . S
C154 C153 1.328 . S
C155 O139 1.264 . S
C155 O140 1.243 1_655 S
C156 C159 1.399 . S
C156 C160 1.383 . S
C156 C163 1.496 . S
C157 C158 1.399 . S
C157 C160 1.389 . S
C158 C157 1.399 . S
C158 C161 1.380 . S
C158 H168 0.929 . S
C159 C156 1.399 . S
C159 C161 1.392 . S
C159 H169 0.929 . S
C160 C156 1.383 . S
C160 C157 1.389 . S
C160 H170 0.931 . S
C161 C158 1.380 . S
C161 C159 1.392 . S
C161 H171 0.929 . S
C162 O142 1.266 . S
C162 O143 1.248 . S
C163 Tb99 2.802 . S
C163 O138 1.264 . S
C163 O141 1.256 . S
C163 C156 1.496 . S
H164 C147 0.929 . S
H165 C148 0.929 . S
H166 C149 0.929 . S
H167 C150 0.931 . S
H168 C158 0.929 . S
H169 C159 0.929 . S
H170 C160 0.931 . S
H171 C161 0.929 . S
Tb172 N201 2.617 . S
Tb172 N207 2.572 . S
Tb172 O216 2.465 . S
Tb172 O217 2.387 . S
Tb172 O219 2.428 . S
Tb172 O220 2.308 . S
Tb172 O224 2.349 . S
Tb172 O227 2.393 . S
Tb172 C236 2.802 . S
C173 N174 1.379 . S
C173 C176 1.416 . S
C173 C180 1.424 . S
N174 C173 1.379 . S
N174 C177 1.334 . S
N174 Tb183 2.617 . S
C175 C177 1.390 . S
C175 C178 1.339 . S
C175 H195 0.930 . S
C176 C173 1.416 . S
C176 C178 1.416 . S
C176 C182 1.448 . S
C177 N174 1.334 . S
C177 C175 1.390 . S
C177 H188 0.930 . S
C178 C175 1.339 . S
C178 C176 1.416 . S
C178 H199 0.930 . S
C179 C180 1.413 . S
C179 C181 1.427 . S
C179 C185 1.416 . S
C180 C173 1.424 . S
C180 C179 1.413 . S
C180 N184 1.361 . S
C181 C179 1.427 . S
C181 C182 1.328 . S
C181 H196 0.929 . S
C182 C176 1.448 . S
C182 C181 1.328 . S
C182 H197 0.930 . S
Tb183 N174 2.617 . S
Tb183 N184 2.572 . S
Tb183 O218 2.349 . S
Tb183 O221 2.393 . S
Tb183 O222 2.465 . S
Tb183 O223 2.387 . S
Tb183 O225 2.428 . S
Tb183 O226 2.308 . S
Tb183 C247 2.802 . S
N184 C180 1.361 . S
N184 Tb183 2.572 . S
N184 C186 1.340 . S
C185 C179 1.416 . S
C185 C187 1.332 . S
C185 H193 0.931 . S
C186 N184 1.340 . S
C186 C187 1.407 . S
C186 H192 0.930 . S
C187 C185 1.332 . S
C187 C186 1.407 . S
C187 H189 0.929 . S
H188 C177 0.930 . S
H189 C187 0.929 . S
H190 C205 0.930 . S
H191 C212 0.929 . S
H192 C186 0.930 . S
H193 C185 0.931 . S
H194 C208 0.930 . S
H195 C175 0.930 . S
H196 C181 0.929 . S
H197 C182 0.930 . S
H198 C203 0.930 . S
H199 C178 0.930 . S
H200 C211 0.931 . S
N201 Tb172 2.617 . S
N201 C202 1.379 . S
N201 C205 1.334 . S
C202 N201 1.379 . S
C202 C204 1.416 . S
C202 C210 1.424 . S
C203 H198 0.930 . S
C203 C205 1.390 . S
C203 C206 1.339 . S
C204 C202 1.416 . S
C204 C206 1.416 . S
C204 C237 1.448 . S
C205 H190 0.930 . S
C205 N201 1.334 . S
C205 C203 1.390 . S
C206 C203 1.339 . S
C206 C204 1.416 . S
C206 H213 0.930 . S
N207 Tb172 2.572 . S
N207 C208 1.340 . S
N207 C210 1.361 . S
C208 H194 0.930 . S
C208 N207 1.340 . S
C208 C212 1.407 . S
C209 C210 1.413 . S
C209 C211 1.416 . S
C209 C238 1.427 . S
C210 C202 1.424 . S
C210 N207 1.361 . S
C210 C209 1.413 . S
C211 H200 0.931 . S
C211 C209 1.416 . S
C211 C212 1.332 . S
C212 H191 0.929 . S
C212 C208 1.407 . S
C212 C211 1.332 . S
H213 C206 0.930 . S
H214 C237 0.930 . S
H215 C238 0.929 . S
O216 Tb172 2.465 . S
O216 C236 1.264 . S
O217 Tb172 2.387 . S
O217 C228 1.264 . S
O218 Tb183 2.349 . S
O218 C228 1.243 . S
O219 Tb172 2.428 . S
O219 C236 1.256 . S
O220 Tb172 2.308 . S
O220 C235 1.266 . S
O221 Tb183 2.393 . S
O221 C235 1.248 . S
O222 Tb183 2.465 . S
O222 C247 1.264 . S
O223 Tb183 2.387 . S
O223 C239 1.264 . S
O224 Tb172 2.349 . S
O224 C239 1.243 . S
O225 Tb183 2.428 . S
O225 C247 1.256 . S
O226 Tb183 2.308 . S
O226 C246 1.266 . S
O227 Tb172 2.393 . S
O227 C246 1.248 . S
C228 O217 1.264 . S
C228 O218 1.243 . S
C229 C232 1.399 . S
C229 C234 1.383 . S
C229 C236 1.496 . S
C230 C231 1.399 . S
C230 C234 1.389 . S
C231 C230 1.399 . S
C231 C233 1.380 . S
C231 H248 0.929 . S
C232 C229 1.399 . S
C232 C233 1.392 . S
C232 H249 0.929 . S
C233 C231 1.380 . S
C233 C232 1.392 . S
C233 H250 0.929 . S
C234 C229 1.383 . S
C234 C230 1.389 . S
C234 H251 0.931 . S
C235 O220 1.266 . S
C235 O221 1.248 . S
C236 Tb172 2.802 . S
C236 O216 1.264 . S
C236 O219 1.256 . S
C236 C229 1.496 . S
C237 C204 1.448 . S
C237 H214 0.930 . S
C237 C238 1.328 . S
C238 C209 1.427 . S
C238 H215 0.929 . S
C238 C237 1.328 . S
C239 O223 1.264 . S
C239 O224 1.243 . S
C240 C243 1.399 . S
C240 C244 1.383 . S
C240 C247 1.496 . S
C241 C242 1.399 . S
C241 C244 1.389 . S
C242 C241 1.399 . S
C242 C245 1.380 . S
C242 H252 0.929 . S
C243 C240 1.399 . S
C243 C245 1.392 . S
C243 H253 0.929 . S
C244 C240 1.383 . S
C244 C241 1.389 . S
C244 H254 0.931 . S
C245 C242 1.380 . S
C245 C243 1.392 . S
C245 H255 0.929 . S
C246 O226 1.266 . S
C246 O227 1.248 . S
C247 Tb183 2.802 . S
C247 O222 1.264 . S
C247 O225 1.256 . S
C247 C240 1.496 . S
H248 C231 0.929 . S
H249 C232 0.929 . S
H250 C233 0.929 . S
H251 C234 0.931 . S
H252 C242 0.929 . S
H253 C243 0.929 . S
H254 C244 0.931 . S
H255 C245 0.929 . S
Tb256 N285 2.617 . S
Tb256 N291 2.572 . S
Tb256 O300 2.465 . S
Tb256 O301 2.387 . S
Tb256 O303 2.428 . S
Tb256 O304 2.313 . S
Tb256 O308 2.349 . S
Tb256 O311 2.393 . S
Tb256 C320 2.802 . S
C257 N258 1.379 . S
C257 C260 1.416 . S
C257 C264 1.424 . S
N258 C257 1.379 . S
N258 C261 1.334 . S
N258 Tb267 2.617 . S
C259 C261 1.390 . S
C259 C262 1.339 . S
C259 H279 0.930 . S
C260 C257 1.416 . S
C260 C262 1.416 . S
C260 C266 1.448 . S
C261 N258 1.334 . S
C261 C259 1.390 . S
C261 H272 0.930 . S
C262 C259 1.339 . S
C262 C260 1.416 . S
C262 H283 0.930 . S
C263 C264 1.413 . S
C263 C265 1.427 . S
C263 C269 1.416 . S
C264 C257 1.424 . S
C264 C263 1.413 . S
C264 N268 1.361 . S
C265 C263 1.427 . S
C265 C266 1.328 . S
C265 H280 0.929 . S
C266 C260 1.448 . S
C266 C265 1.328 . S
C266 H281 0.930 . S
Tb267 N258 2.617 . S
Tb267 N268 2.572 . S
Tb267 O302 2.349 1_655 S
Tb267 O305 2.393 . S
Tb267 O306 2.465 . S
Tb267 O307 2.387 . S
Tb267 O309 2.428 . S
Tb267 O310 2.308 1_655 S
Tb267 C331 2.802 . S
N268 C264 1.361 . S
N268 Tb267 2.572 . S
N268 C270 1.340 . S
C269 C263 1.416 . S
C269 C271 1.332 . S
C269 H277 0.931 . S
C270 N268 1.340 . S
C270 C271 1.407 . S
C270 H276 0.930 . S
C271 C269 1.332 . S
C271 C270 1.407 . S
C271 H273 0.929 . S
H272 C261 0.930 . S
H273 C271 0.929 . S
H274 C289 0.930 . S
H275 C296 0.929 . S
H276 C270 0.930 . S
H277 C269 0.931 . S
H278 C292 0.930 . S
H279 C259 0.930 . S
H280 C265 0.929 . S
H281 C266 0.930 . S
H282 C287 0.930 . S
H283 C262 0.930 . S
H284 C295 0.931 . S
N285 Tb256 2.617 . S
N285 C286 1.379 . S
N285 C289 1.334 . S
C286 N285 1.379 . S
C286 C288 1.416 . S
C286 C294 1.424 . S
C287 H282 0.930 . S
C287 C289 1.390 . S
C287 C290 1.339 . S
C288 C286 1.416 . S
C288 C290 1.416 . S
C288 C321 1.448 . S
C289 H274 0.930 . S
C289 N285 1.334 . S
C289 C287 1.390 . S
C290 C287 1.339 . S
C290 C288 1.416 . S
C290 H297 0.930 . S
N291 Tb256 2.572 . S
N291 C292 1.340 . S
N291 C294 1.361 . S
C292 H278 0.930 . S
C292 N291 1.340 . S
C292 C296 1.407 1_565 S
C293 C294 1.413 . S
C293 C295 1.416 1_565 S
C293 C322 1.427 . S
C294 C286 1.424 . S
C294 N291 1.361 . S
C294 C293 1.413 . S
C295 H284 0.931 . S
C295 C293 1.416 1_545 S
C295 C296 1.332 . S
C296 H275 0.929 . S
C296 C292 1.407 1_545 S
C296 C295 1.332 . S
H297 C290 0.930 . S
H298 C321 0.930 . S
H299 C322 0.929 . S
O300 Tb256 2.465 . S
O300 C320 1.264 . S
O301 Tb256 2.387 . S
O301 C312 1.264 . S
O302 Tb267 2.349 1_455 S
O302 C312 1.243 . S
O303 Tb256 2.428 . S
O303 C320 1.256 . S
O304 Tb256 2.313 . S
O304 C319 1.261 1_455 S
O305 Tb267 2.393 . S
O305 C319 1.248 . S
O306 Tb267 2.465 . S
O306 C331 1.264 . S
O307 Tb267 2.387 . S
O307 C323 1.264 . S
O308 Tb256 2.349 . S
O308 C323 1.244 1_455 S
O309 Tb267 2.428 . S
O309 C331 1.256 . S
O310 Tb267 2.308 1_455 S
O310 C330 1.266 . S
O311 Tb256 2.393 . S
O311 C330 1.248 . S
C312 O301 1.264 . S
C312 O302 1.243 . S
C313 C316 1.399 . S
C313 C318 1.383 . S
C313 C320 1.496 . S
C314 C315 1.399 . S
C314 C318 1.389 . S
C315 C314 1.399 . S
C315 C317 1.380 . S
C315 H332 0.929 . S
C316 C313 1.399 . S
C316 C317 1.392 . S
C316 H333 0.929 . S
C317 C315 1.380 . S
C317 C316 1.392 . S
C317 H334 0.929 . S
C318 C313 1.383 . S
C318 C314 1.389 . S
C318 H335 0.931 . S
C319 O304 1.261 1_655 S
C319 O305 1.248 . S
C320 Tb256 2.802 . S
C320 O300 1.264 . S
C320 O303 1.256 . S
C320 C313 1.496 . S
C321 C288 1.448 . S
C321 H298 0.930 . S
C321 C322 1.328 . S
C322 C293 1.427 . S
C322 H299 0.929 . S
C322 C321 1.328 . S
C323 O307 1.264 . S
C323 O308 1.244 1_655 S
C324 C327 1.399 . S
C324 C328 1.383 . S
C324 C331 1.496 . S
C325 C326 1.399 . S
C325 C328 1.389 . S
C326 C325 1.399 . S
C326 C329 1.380 . S
C326 H336 0.929 . S
C327 C324 1.399 . S
C327 C329 1.392 . S
C327 H337 0.929 . S
C328 C324 1.383 . S
C328 C325 1.389 . S
C328 H338 0.931 . S
C329 C326 1.380 . S
C329 C327 1.392 . S
C329 H339 0.929 . S
C330 O310 1.266 . S
C330 O311 1.248 . S
C331 Tb267 2.802 . S
C331 O306 1.264 . S
C331 O309 1.256 . S
C331 C324 1.496 . S
H332 C315 0.929 . S
H333 C316 0.929 . S
H334 C317 0.929 . S
H335 C318 0.931 . S
H336 C326 0.929 . S
H337 C327 0.929 . S
H338 C328 0.931 . S
H339 C329 0.929 . S
Tb340 N369 2.617 . S
Tb340 N375 2.572 . S
Tb340 O384 2.465 . S
Tb340 O385 2.387 . S
Tb340 O387 2.428 . S
Tb340 O388 2.308 . S
Tb340 O392 2.349 . S
Tb340 O395 2.393 . S
Tb340 C404 2.802 . S
C341 N342 1.379 . S
C341 C344 1.416 . S
C341 C348 1.424 . S
N342 C341 1.379 . S
N342 C345 1.334 . S
N342 Tb351 2.617 . S
C343 C345 1.390 . S
C343 C346 1.339 . S
C343 H363 0.930 . S
C344 C341 1.416 . S
C344 C346 1.416 . S
C344 C350 1.448 . S
C345 N342 1.334 . S
C345 C343 1.390 . S
C345 H356 0.930 . S
C346 C343 1.339 . S
C346 C344 1.416 . S
C346 H367 0.930 . S
C347 C348 1.413 . S
C347 C349 1.427 . S
C347 C353 1.416 . S
C348 C341 1.424 . S
C348 C347 1.413 . S
C348 N352 1.361 . S
C349 C347 1.427 . S
C349 C350 1.328 . S
C349 H364 0.929 . S
C350 C344 1.448 . S
C350 C349 1.328 . S
C350 H365 0.930 . S
Tb351 N342 2.617 . S
Tb351 N352 2.572 . S
Tb351 O386 2.349 . S
Tb351 O389 2.393 . S
Tb351 O390 2.465 . S
Tb351 O391 2.387 . S
Tb351 O393 2.428 . S
Tb351 O394 2.308 . S
Tb351 C415 2.802 . S
N352 C348 1.361 . S
N352 Tb351 2.572 . S
N352 C354 1.340 . S
C353 C347 1.416 . S
C353 C355 1.332 . S
C353 H361 0.931 . S
C354 N352 1.340 . S
C354 C355 1.407 . S
C354 H360 0.930 . S
C355 C353 1.332 . S
C355 C354 1.407 . S
C355 H357 0.929 . S
H356 C345 0.930 . S
H357 C355 0.929 . S
H358 C373 0.930 . S
H359 C380 0.929 . S
H360 C354 0.930 . S
H361 C353 0.931 . S
H362 C376 0.930 . S
H363 C343 0.930 . S
H364 C349 0.929 . S
H365 C350 0.930 . S
H366 C371 0.930 . S
H367 C346 0.930 . S
H368 C379 0.931 . S
N369 Tb340 2.617 . S
N369 C370 1.379 . S
N369 C373 1.334 . S
C370 N369 1.379 . S
C370 C372 1.416 . S
C370 C378 1.424 . S
C371 H366 0.930 . S
C371 C373 1.390 . S
C371 C374 1.339 . S
C372 C370 1.416 . S
C372 C374 1.416 . S
C372 C405 1.448 . S
C373 H358 0.930 . S
C373 N369 1.334 . S
C373 C371 1.390 . S
C374 C371 1.339 . S
C374 C372 1.416 . S
C374 H381 0.930 . S
N375 Tb340 2.572 . S
N375 C376 1.340 . S
N375 C378 1.361 . S
C376 H362 0.930 . S
C376 N375 1.340 . S
C376 C380 1.407 . S
C377 C378 1.413 . S
C377 C379 1.416 . S
C377 C406 1.427 . S
C378 C370 1.424 . S
C378 N375 1.361 . S
C378 C377 1.413 . S
C379 H368 0.931 . S
C379 C377 1.416 . S
C379 C380 1.332 . S
C380 H359 0.929 . S
C380 C376 1.407 . S
C380 C379 1.332 . S
H381 C374 0.930 . S
H382 C405 0.930 . S
H383 C406 0.929 . S
O384 Tb340 2.465 . S
O384 C404 1.264 . S
O385 Tb340 2.387 . S
O385 C396 1.264 . S
O386 Tb351 2.349 . S
O386 C396 1.243 . S
O387 Tb340 2.428 . S
O387 C404 1.256 . S
O388 Tb340 2.308 . S
O388 C403 1.266 . S
O389 Tb351 2.393 . S
O389 C403 1.248 . S
O390 Tb351 2.465 . S
O390 C415 1.264 . S
O391 Tb351 2.387 . S
O391 C407 1.264 . S
O392 Tb340 2.349 . S
O392 C407 1.243 . S
O393 Tb351 2.428 . S
O393 C415 1.256 . S
O394 Tb351 2.308 . S
O394 C414 1.266 . S
O395 Tb340 2.393 . S
O395 C414 1.248 . S
C396 O385 1.264 . S
C396 O386 1.243 . S
C397 C400 1.399 . S
C397 C402 1.383 . S
C397 C404 1.496 . S
C398 C399 1.399 . S
C398 C402 1.389 . S
C399 C398 1.399 . S
C399 C401 1.380 . S
C399 H416 0.929 . S
C400 C397 1.399 . S
C400 C401 1.392 . S
C400 H417 0.929 . S
C401 C399 1.380 . S
C401 C400 1.392 . S
C401 H418 0.929 . S
C402 C397 1.383 . S
C402 C398 1.389 . S
C402 H419 0.931 . S
C403 O388 1.266 . S
C403 O389 1.248 . S
C404 Tb340 2.802 . S
C404 O384 1.264 . S
C404 O387 1.256 . S
C404 C397 1.496 . S
C405 C372 1.448 . S
C405 H382 0.930 . S
C405 C406 1.328 . S
C406 C377 1.427 . S
C406 H383 0.929 . S
C406 C405 1.328 . S
C407 O391 1.264 . S
C407 O392 1.243 . S
C408 C411 1.399 . S
C408 C412 1.383 . S
C408 C415 1.496 . S
C409 C410 1.399 . S
C409 C412 1.389 . S
C410 C409 1.399 . S
C410 C413 1.380 . S
C410 H420 0.929 . S
C411 C408 1.399 . S
C411 C413 1.392 . S
C411 H421 0.929 . S
C412 C408 1.383 . S
C412 C409 1.389 . S
C412 H422 0.931 . S
C413 C410 1.380 . S
C413 C411 1.392 . S
C413 H423 0.929 . S
C414 O394 1.266 . S
C414 O395 1.248 . S
C415 Tb351 2.802 . S
C415 O390 1.264 . S
C415 O393 1.256 . S
C415 C408 1.496 . S
H416 C399 0.929 . S
H417 C400 0.929 . S
H418 C401 0.929 . S
H419 C402 0.931 . S
H420 C410 0.929 . S
H421 C411 0.929 . S
H422 C412 0.931 . S
H423 C413 0.929 . S
H424 C436 0.930 . S
H425 C438 0.930 . S
H426 C439 0.930 . S
H427 C443 0.959 1_545 S
H428 C443 0.959 . S
H429 C443 0.961 . S
H430 C444 0.960 . S
H431 C444 0.961 . S
H432 C444 0.959 . S
H433 C447 0.923 1_565 S
H434 C448 0.931 . S
H435 C450 0.930 . S
C436 H424 0.930 . S
C436 C437 1.399 . S
C436 C441 1.399 . S
C437 C436 1.399 . S
C437 C438 1.376 . S
C438 H425 0.930 . S
C438 C437 1.376 . S
C438 C439 1.388 . S
C439 H426 0.930 . S
C439 C438 1.388 . S
C439 C440 1.390 . S
C440 C439 1.390 . S
C440 C441 1.394 . S
C440 C446 1.465 . S
C441 C436 1.399 . S
C441 C440 1.394 . S
C441 C442 1.516 . S
C442 C441 1.516 . S
C442 C443 1.502 . S
C442 C444 1.561 . S
C442 C445 1.526 . S
C443 H427 0.959 1_565 S
C443 H428 0.959 . S
C443 H429 0.961 . S
C443 C442 1.502 . S
C444 H430 0.960 . S
C444 H431 0.961 . S
C444 H432 0.959 . S
C444 C442 1.561 . S
C445 C442 1.526 . S
C445 C446 1.396 . S
C445 C450 1.390 1_565 S
C446 C440 1.465 . S
C446 C445 1.396 . S
C446 C447 1.384 1_565 S
C447 H433 0.923 1_545 S
C447 C446 1.384 1_545 S
C447 C448 1.407 . S
C448 H434 0.931 . S
C448 C447 1.407 . S
C448 C449 1.389 . S
C449 C448 1.389 . S
C449 C450 1.387 . S
C450 H435 0.930 . S
C450 C445 1.390 1_545 S
C450 C449 1.387 . S
H451 C463 0.930 . S
H452 C465 0.930 . S
H453 C466 0.930 . S
H454 C470 0.959 . S
H455 C470 0.959 . S
H456 C470 0.961 . S
H457 C471 0.960 . S
H458 C471 0.961 . S
H459 C471 0.959 . S
H460 C474 0.929 . S
H461 C475 0.931 . S
H462 C477 0.930 . S
C463 H451 0.930 . S
C463 C464 1.399 . S
C463 C468 1.399 . S
C464 C463 1.399 . S
C464 C465 1.376 . S
C465 H452 0.930 . S
C465 C464 1.376 . S
C465 C466 1.388 . S
C466 H453 0.930 . S
C466 C465 1.388 . S
C466 C467 1.390 . S
C467 C466 1.390 . S
C467 C468 1.394 . S
C467 C473 1.465 . S
C468 C463 1.399 . S
C468 C467 1.394 . S
C468 C469 1.516 . S
C469 C468 1.516 . S
C469 C470 1.502 . S
C469 C471 1.561 . S
C469 C472 1.526 . S
C470 H454 0.959 . S
C470 H455 0.959 . S
C470 H456 0.961 . S
C470 C469 1.502 . S
C471 H457 0.960 . S
C471 H458 0.961 . S
C471 H459 0.959 . S
C471 C469 1.561 . S
C472 C469 1.526 . S
C472 C473 1.396 . S
C472 C477 1.390 . S
C473 C467 1.465 . S
C473 C472 1.396 . S
C473 C474 1.399 . S
C474 H460 0.929 . S
C474 C473 1.399 . S
C474 C475 1.385 . S
C475 H461 0.931 . S
C475 C474 1.385 . S
C475 C476 1.389 . S
C476 C475 1.389 . S
C476 C477 1.387 . S
C477 H462 0.930 . S
C477 C472 1.390 . S
C477 C476 1.387 . S
H478 C490 0.930 . S
H479 C492 0.930 . S
H480 C493 0.930 . S
H481 C497 0.959 . S
H482 C497 0.959 . S
H483 C497 0.961 . S
H484 C498 0.960 . S
H485 C498 0.961 . S
H486 C498 0.959 . S
H487 C501 0.929 . S
H488 C502 0.931 . S
H489 C504 0.930 . S
C490 H478 0.930 . S
C490 C491 1.399 . S
C490 C495 1.399 . S
C491 C490 1.399 . S
C491 C492 1.376 . S
C492 H479 0.930 . S
C492 C491 1.376 . S
C492 C493 1.388 . S
C493 H480 0.930 . S
C493 C492 1.388 . S
C493 C494 1.390 . S
C494 C493 1.390 . S
C494 C495 1.394 . S
C494 C500 1.465 . S
C495 C490 1.399 . S
C495 C494 1.394 . S
C495 C496 1.516 . S
C496 C495 1.516 . S
C496 C497 1.502 . S
C496 C498 1.561 . S
C496 C499 1.526 . S
C497 H481 0.959 . S
C497 H482 0.959 . S
C497 H483 0.961 . S
C497 C496 1.502 . S
C498 H484 0.960 . S
C498 H485 0.961 . S
C498 H486 0.959 . S
C498 C496 1.561 . S
C499 C496 1.526 . S
C499 C500 1.396 . S
C499 C504 1.390 . S
C500 C494 1.465 . S
C500 C499 1.396 . S
C500 C501 1.399 . S
C501 H487 0.929 . S
C501 C500 1.399 . S
C501 C502 1.385 . S
C502 H488 0.931 . S
C502 C501 1.385 . S
C502 C503 1.389 . S
C503 C502 1.389 . S
C503 C504 1.387 . S
C504 H489 0.930 . S
C504 C499 1.390 . S
C504 C503 1.387 . S
H505 C517 0.930 . S
H506 C519 0.930 . S
H507 C520 0.930 . S
H508 C524 0.959 . S
H509 C524 0.959 . S
H510 C524 0.961 . S
H511 C525 0.960 . S
H512 C525 0.987 . S
H513 C525 0.959 . S
H514 C528 0.929 . S
H515 C529 0.931 1_455 S
H516 C531 0.930 . S
C517 H505 0.930 . S
C517 C518 1.399 . S
C517 C522 1.399 . S
C518 C517 1.399 . S
C518 C519 1.376 . S
C519 H506 0.930 . S
C519 C518 1.376 . S
C519 C520 1.388 . S
C520 H507 0.930 . S
C520 C519 1.388 . S
C520 C521 1.390 . S
C521 C520 1.390 . S
C521 C522 1.394 . S
C521 C527 1.465 . S
C522 C517 1.399 . S
C522 C521 1.394 . S
C522 C523 1.516 . S
C523 C522 1.516 . S
C523 C524 1.502 1_565 S
C523 C525 1.561 . S
C523 C526 1.526 1_565 S
C524 H508 0.959 . S
C524 H509 0.959 . S
C524 H510 0.961 . S
C524 C523 1.502 1_545 S
C525 H511 0.960 . S
C525 H512 0.987 . S
C525 H513 0.959 . S
C525 C523 1.561 . S
C526 C523 1.526 1_545 S
C526 C527 1.396 1_545 S
C526 C531 1.390 . S
C527 C521 1.465 . S
C527 C526 1.396 1_565 S
C527 C528 1.399 . S
C528 H514 0.929 . S
C528 C527 1.399 . S
C528 C529 1.385 1_565 S
C529 H515 0.931 1_655 S
C529 C528 1.385 1_545 S
C529 C530 1.389 . S
C530 C529 1.389 . S
C530 C531 1.387 . S
C531 H516 0.930 . S
C531 C526 1.390 . S
C531 C530 1.387 . S
H532 C544 0.930 . S
H533 C546 0.930 . S
H534 C547 0.930 . S
H535 C551 0.959 . S
H536 C551 0.959 . S
H537 C551 0.961 . S
H538 C552 0.960 . S
H539 C552 0.961 . S
H540 C552 0.959 . S
H541 C555 0.929 . S
H542 C556 0.931 . S
H543 C558 0.930 1_545 S
C544 H532 0.930 . S
C544 C545 1.399 . S
C544 C549 1.399 . S
C545 C544 1.399 . S
C545 C546 1.376 . S
C546 H533 0.930 . S
C546 C545 1.376 . S
C546 C547 1.388 . S
C547 H534 0.930 . S
C547 C546 1.388 . S
C547 C548 1.390 . S
C548 C547 1.390 . S
C548 C549 1.394 . S
C548 C554 1.465 . S
C549 C544 1.399 . S
C549 C548 1.394 . S
C549 C550 1.516 . S
C550 C549 1.516 . S
C550 C551 1.502 . S
C550 C552 1.561 . S
C550 C553 1.526 . S
C551 H535 0.959 . S
C551 H536 0.959 . S
C551 H537 0.961 . S
C551 C550 1.502 . S
C552 H538 0.960 . S
C552 H539 0.961 . S
C552 H540 0.959 . S
C552 C550 1.561 . S
C553 C550 1.526 . S
C553 C554 1.396 . S
C553 C558 1.390 1_545 S
C554 C548 1.465 . S
C554 C553 1.396 . S
C554 C555 1.399 1_545 S
C555 H541 0.929 . S
C555 C554 1.399 1_565 S
C555 C556 1.385 . S
C556 H542 0.931 . S
C556 C555 1.385 . S
C556 C557 1.389 . S
C557 C556 1.389 . S
C557 C558 1.387 . S
C558 H543 0.930 1_565 S
C558 C553 1.390 1_565 S
C558 C557 1.387 . S
H559 C571 0.930 . S
H560 C573 0.930 . S
H561 C574 0.930 . S
H562 C578 0.959 . S
H563 C578 0.959 . S
H564 C578 0.961 . S
H565 C579 0.960 . S
H566 C579 0.961 . S
H567 C579 0.959 . S
H568 C582 0.929 . S
H569 C583 0.931 . S
H570 C585 0.930 . S
C571 H559 0.930 . S
C571 C572 1.399 . S
C571 C576 1.399 . S
C572 C571 1.399 . S
C572 C573 1.376 . S
C573 H560 0.930 . S
C573 C572 1.376 . S
C573 C574 1.388 . S
C574 H561 0.930 . S
C574 C573 1.388 . S
C574 C575 1.390 . S
C575 C574 1.390 . S
C575 C576 1.394 . S
C575 C581 1.465 . S
C576 C571 1.399 . S
C576 C575 1.394 . S
C576 C577 1.516 . S
C577 C576 1.516 . S
C577 C578 1.502 . S
C577 C579 1.561 . S
C577 C580 1.526 . S
C578 H562 0.959 . S
C578 H563 0.959 . S
C578 H564 0.961 . S
C578 C577 1.502 . S
C579 H565 0.960 . S
C579 H566 0.961 . S
C579 H567 0.959 . S
C579 C577 1.561 . S
C580 C577 1.526 . S
C580 C581 1.396 . S
C580 C585 1.390 . S
C581 C575 1.465 . S
C581 C580 1.396 . S
C581 C582 1.399 . S
C582 H568 0.929 . S
C582 C581 1.399 . S
C582 C583 1.385 . S
C583 H569 0.931 . S
C583 C582 1.385 . S
C583 C584 1.389 . S
C584 C583 1.389 . S
C584 C585 1.387 . S
C585 H570 0.930 . S
C585 C580 1.390 . S
C585 C584 1.387 . S
H586 C598 0.930 . S
H587 C600 0.930 . S
H588 C601 0.930 . S
H589 C605 0.959 . S
H590 C605 0.959 . S
H591 C605 0.961 . S
H592 C606 0.960 . S
H593 C606 0.961 . S
H594 C606 0.959 . S
H595 C609 0.929 . S
H596 C610 0.931 . S
H597 C612 0.930 . S
C598 H586 0.930 . S
C598 C599 1.399 . S
C598 C603 1.399 . S
C599 C598 1.399 . S
C599 C600 1.376 . S
C600 H587 0.930 . S
C600 C599 1.376 . S
C600 C601 1.388 . S
C601 H588 0.930 . S
C601 C600 1.388 . S
C601 C602 1.390 . S
C602 C601 1.390 . S
C602 C603 1.394 . S
C602 C608 1.465 . S
C603 C598 1.399 . S
C603 C602 1.394 . S
C603 C604 1.516 . S
C604 C603 1.516 . S
C604 C605 1.502 . S
C604 C606 1.561 . S
C604 C607 1.526 . S
C605 H589 0.959 . S
C605 H590 0.959 . S
C605 H591 0.961 . S
C605 C604 1.502 . S
C606 H592 0.960 . S
C606 H593 0.961 . S
C606 H594 0.959 . S
C606 C604 1.561 . S
C607 C604 1.526 . S
C607 C608 1.396 . S
C607 C612 1.390 . S
C608 C602 1.465 . S
C608 C607 1.396 . S
C608 C609 1.399 . S
C609 H595 0.929 . S
C609 C608 1.399 . S
C609 C610 1.385 . S
C610 H596 0.931 . S
C610 C609 1.385 . S
C610 C611 1.389 . S
C611 C610 1.389 . S
C611 C612 1.387 . S
C612 H597 0.930 . S
C612 C607 1.390 . S
C612 C611 1.387 . S
H613 C625 0.930 . S
H614 C627 0.930 . S
H615 C628 0.930 . S
H616 C632 0.959 . S
H617 C632 0.959 . S
H618 C632 0.961 . S
H619 C633 0.960 . S
H620 C633 0.961 . S
H621 C633 0.959 . S
H622 C636 0.929 . S
H623 C637 0.931 . S
H624 C639 0.930 . S
C625 H613 0.930 . S
C625 C626 1.399 . S
C625 C630 1.399 . S
C626 C625 1.399 . S
C626 C627 1.376 . S
C627 H614 0.930 . S
C627 C626 1.376 . S
C627 C628 1.388 . S
C628 H615 0.930 . S
C628 C627 1.388 . S
C628 C629 1.390 . S
C629 C628 1.390 . S
C629 C630 1.394 . S
C629 C635 1.465 . S
C630 C625 1.399 . S
C630 C629 1.394 . S
C630 C631 1.516 . S
C631 C630 1.516 . S
C631 C632 1.502 1_545 S
C631 C633 1.561 . S
C631 C634 1.526 . S
C632 H616 0.959 . S
C632 H617 0.959 . S
C632 H618 0.961 . S
C632 C631 1.502 1_565 S
C633 H619 0.960 . S
C633 H620 0.961 . S
C633 H621 0.959 . S
C633 C631 1.561 . S
C634 C631 1.526 . S
C634 C635 1.396 . S
C634 C639 1.390 1_545 S
C635 C629 1.465 . S
C635 C634 1.396 . S
C635 C636 1.399 . S
C636 H622 0.929 . S
C636 C635 1.399 . S
C636 C637 1.385 1_545 S
C637 H623 0.931 . S
C637 C636 1.385 1_565 S
C637 C638 1.389 . S
C638 C637 1.389 . S
C638 C639 1.387 . S
C639 H624 0.930 . S
C639 C634 1.390 1_565 S
C639 C638 1.387 . S
H640 C652 0.930 . S
H641 C654 0.930 . S
H642 C655 0.930 . S
H643 C659 0.959 . S
H644 C659 0.959 . S
H645 C659 0.961 1_556 S
H646 C660 0.960 . S
H647 C660 0.961 . S
H648 C660 0.959 . S
H649 C663 0.929 . S
H650 C664 0.931 . S
H651 C666 0.930 . S
C652 H640 0.930 . S
C652 C653 1.399 . S
C652 C657 1.390 1_556 S
C653 C652 1.399 . S
C653 C654 1.376 . S
C654 H641 0.930 . S
C654 C653 1.376 . S
C654 C655 1.388 1_556 S
C655 H642 0.930 . S
C655 C654 1.388 1_554 S
C655 C656 1.390 . S
C656 C655 1.390 . S
C656 C657 1.398 . S
C656 C662 1.465 . S
C657 C652 1.390 1_554 S
C657 C656 1.398 . S
C657 C658 1.522 . S
C658 C657 1.522 . S
C658 C659 1.502 . S
C658 C660 1.561 . S
C658 C661 1.526 . S
C659 H643 0.959 . S
C659 H644 0.959 . S
C659 H645 0.961 1_554 S
C659 C658 1.502 . S
C660 H646 0.960 . S
C660 H647 0.961 . S
C660 H648 0.959 . S
C660 C658 1.561 . S
C661 C658 1.526 . S
C661 C662 1.396 . S
C661 C666 1.390 . S
C662 C656 1.465 . S
C662 C661 1.396 . S
C662 C663 1.399 . S
C663 H649 0.929 . S
C663 C662 1.399 . S
C663 C664 1.385 . S
C664 H650 0.931 . S
C664 C663 1.385 . S
C664 C665 1.389 . S
C665 C664 1.389 . S
C665 C666 1.387 . S
C666 H651 0.930 . S
C666 C661 1.390 . S
C666 C665 1.387 . S
H667 C679 0.930 . S
H668 C681 0.930 . S
H669 C682 0.930 . S
H670 C686 0.959 . S
H671 C686 0.959 . S
H672 C686 0.961 . S
H673 C687 0.960 . S
H674 C687 0.961 . S
H675 C687 0.959 . S
H676 C690 0.929 . S
H677 C691 0.931 . S
H678 C693 0.930 . S
C679 H667 0.930 . S
C679 C680 1.399 . S
C679 C684 1.399 . S
C680 C679 1.399 . S
C680 C681 1.376 . S
C681 H668 0.930 . S
C681 C680 1.376 . S
C681 C682 1.388 . S
C682 H669 0.930 . S
C682 C681 1.388 . S
C682 C683 1.390 . S
C683 C682 1.390 . S
C683 C684 1.394 . S
C683 C689 1.465 . S
C684 C679 1.399 . S
C684 C683 1.394 . S
C684 C685 1.516 . S
C685 C684 1.516 . S
C685 C686 1.502 . S
C685 C687 1.561 . S
C685 C688 1.526 . S
C686 H670 0.959 . S
C686 H671 0.959 . S
C686 H672 0.961 . S
C686 C685 1.502 . S
C687 H673 0.960 . S
C687 H674 0.961 . S
C687 H675 0.959 . S
C687 C685 1.561 . S
C688 C685 1.526 . S
C688 C689 1.396 . S
C688 C693 1.390 . S
C689 C683 1.465 . S
C689 C688 1.396 . S
C689 C690 1.399 . S
C690 H676 0.929 . S
C690 C689 1.399 . S
C690 C691 1.385 . S
C691 H677 0.931 . S
C691 C690 1.385 . S
C691 C692 1.389 . S
C692 C691 1.389 . S
C692 C693 1.387 . S
C693 H678 0.930 . S
C693 C688 1.390 . S
C693 C692 1.387 . S
H694 C706 0.930 . S
H695 C708 0.930 . S
H696 C709 0.930 . S
H697 C713 0.959 . S
H698 C713 0.959 1_556 S
H699 C713 0.961 . S
H700 C714 0.960 1_554 S
H701 C714 0.961 . S
H702 C714 0.959 . S
H703 C717 0.929 . S
H704 C718 0.931 . S
H705 C720 0.930 . S
C706 H694 0.930 . S
C706 C707 1.399 . S
C706 C711 1.399 . S
C707 C706 1.399 . S
C707 C708 1.376 . S
C708 H695 0.930 . S
C708 C707 1.376 . S
C708 C709 1.388 1_554 S
C709 H696 0.930 . S
C709 C708 1.388 1_556 S
C709 C710 1.390 . S
C710 C709 1.390 . S
C710 C711 1.394 1_556 S
C710 C716 1.465 . S
C711 C706 1.399 . S
C711 C710 1.394 1_554 S
C711 C712 1.516 1_554 S
C712 C711 1.516 1_556 S
C712 C713 1.502 1_556 S
C712 C714 1.561 . S
C712 C715 1.526 . S
C713 H697 0.959 . S
C713 H698 0.959 1_554 S
C713 H699 0.961 . S
C713 C712 1.502 1_554 S
C714 H700 0.960 1_556 S
C714 H701 0.961 . S
C714 H702 0.959 . S
C714 C712 1.561 . S
C715 C712 1.526 . S
C715 C716 1.396 . S
C715 C720 1.390 . S
C716 C710 1.465 . S
C716 C715 1.396 . S
C716 C717 1.399 . S
C717 H703 0.929 . S
C717 C716 1.399 . S
C717 C718 1.385 . S
C718 H704 0.931 . S
C718 C717 1.385 . S
C718 C719 1.389 . S
C719 C718 1.389 . S
C719 C720 1.387 . S
C720 H705 0.930 . S
C720 C715 1.390 . S
C720 C719 1.387 . S
H721 C733 0.930 . S
H722 C735 0.930 . S
H723 C736 0.930 . S
H724 C740 0.959 . S
H725 C740 0.959 . S
H726 C740 0.961 . S
H727 C741 0.960 . S
H728 C741 0.961 . S
H729 C741 0.959 . S
H730 C744 0.929 . S
H731 C745 0.931 . S
H732 C747 0.930 . S
C733 H721 0.930 . S
C733 C734 1.399 . S
C733 C738 1.399 . S
C734 C733 1.399 . S
C734 C735 1.376 . S
C735 H722 0.930 . S
C735 C734 1.376 . S
C735 C736 1.388 . S
C736 H723 0.930 . S
C736 C735 1.388 . S
C736 C737 1.390 . S
C737 C736 1.390 . S
C737 C738 1.394 . S
C737 C743 1.465 . S
C738 C733 1.399 . S
C738 C737 1.394 . S
C738 C739 1.516 . S
C739 C738 1.516 . S
C739 C740 1.502 . S
C739 C741 1.561 . S
C739 C742 1.526 . S
C740 H724 0.959 . S
C740 H725 0.959 . S
C740 H726 0.961 . S
C740 C739 1.502 . S
C741 H727 0.960 . S
C741 H728 0.961 . S
C741 H729 0.959 . S
C741 C739 1.561 . S
C742 C739 1.526 . S
C742 C743 1.396 . S
C742 C747 1.390 . S
C743 C737 1.465 . S
C743 C742 1.396 . S
C743 C744 1.399 . S
C744 H730 0.929 . S
C744 C743 1.399 . S
C744 C745 1.385 . S
C745 H731 0.931 . S
C745 C744 1.385 . S
C745 C746 1.389 . S
C746 C745 1.389 . S
C746 C747 1.387 . S
C747 H732 0.930 . S
C747 C742 1.390 . S
C747 C746 1.387 . S
H748 C760 0.930 . S
H749 C762 0.930 . S
H750 C763 0.930 . S
H751 C767 0.955 1_554 S
H752 C767 0.959 . S
H753 C767 0.961 1_554 S
H754 C768 0.960 . S
H755 C768 0.961 . S
H756 C768 0.959 . S
H757 C771 0.929 . S
H758 C772 0.931 . S
H759 C774 0.930 . S
C760 H748 0.930 . S
C760 C761 1.399 . S
C760 C765 1.399 . S
C761 C760 1.399 . S
C761 C762 1.376 . S
C762 H749 0.930 . S
C762 C761 1.376 . S
C762 C763 1.388 . S
C763 H750 0.930 . S
C763 C762 1.388 . S
C763 C764 1.390 1_554 S
C764 C763 1.390 1_556 S
C764 C765 1.394 1_556 S
C764 C770 1.465 . S
C765 C760 1.399 . S
C765 C764 1.394 1_554 S
C765 C766 1.516 1_554 S
C766 C765 1.516 1_556 S
C766 C767 1.502 . S
C766 C768 1.561 . S
C766 C769 1.526 . S
C767 H751 0.955 1_556 S
C767 H752 0.959 . S
C767 H753 0.961 1_556 S
C767 C766 1.502 . S
C768 H754 0.960 . S
C768 H755 0.961 . S
C768 H756 0.959 . S
C768 C766 1.561 . S
C769 C766 1.526 . S
C769 C770 1.396 . S
C769 C774 1.390 . S
C770 C764 1.465 . S
C770 C769 1.396 . S
C770 C771 1.399 . S
C771 H757 0.929 . S
C771 C770 1.399 . S
C771 C772 1.385 . S
C772 H758 0.931 . S
C772 C771 1.385 . S
C772 C773 1.389 . S
C773 C772 1.389 . S
C773 C774 1.387 . S
C774 H759 0.930 . S
C774 C769 1.390 . S
C774 C773 1.387 . S
H775 C787 0.930 . S
H776 C789 0.930 . S
H777 C790 0.930 . S
H778 C794 0.959 . S
H779 C794 0.959 . S
H780 C794 0.961 . S
H781 C795 0.960 . S
H782 C795 0.961 . S
H783 C795 0.959 . S
H784 C798 0.929 . S
H785 C799 0.931 . S
H786 C801 0.930 . S
C787 H775 0.930 . S
C787 C788 1.399 . S
C787 C792 1.399 . S
C788 C787 1.399 . S
C788 C789 1.376 . S
C789 H776 0.930 . S
C789 C788 1.376 . S
C789 C790 1.388 . S
C790 H777 0.930 . S
C790 C789 1.388 . S
C790 C791 1.390 . S
C791 C790 1.390 . S
C791 C792 1.394 . S
C791 C797 1.465 . S
C792 C787 1.399 . S
C792 C791 1.394 . S
C792 C793 1.516 . S
C793 C792 1.516 . S
C793 C794 1.502 . S
C793 C795 1.561 . S
C793 C796 1.526 . S
C794 H778 0.959 . S
C794 H779 0.959 . S
C794 H780 0.961 . S
C794 C793 1.502 . S
C795 H781 0.960 . S
C795 H782 0.961 . S
C795 H783 0.959 . S
C795 C793 1.561 . S
C796 C793 1.526 . S
C796 C797 1.396 . S
C796 C801 1.390 . S
C797 C791 1.465 . S
C797 C796 1.396 . S
C797 C798 1.399 . S
C798 H784 0.929 . S
C798 C797 1.399 . S
C798 C799 1.385 . S
C799 H785 0.931 . S
C799 C798 1.385 . S
C799 C800 1.389 . S
C800 C799 1.389 . S
C800 C801 1.387 . S
C801 H786 0.930 . S
C801 C796 1.390 . S
C801 C800 1.387 . S
H802 C814 0.930 . S
H803 C816 0.930 . S
H804 C817 0.930 . S
H805 C821 0.959 . S
H806 C821 0.959 . S
H807 C821 0.961 . S
H808 C822 0.960 1_556 S
H809 C822 0.961 . S
H810 C822 0.953 1_556 S
H811 C825 0.929 . S
H812 C826 0.931 . S
H813 C828 0.930 . S
C814 H802 0.930 . S
C814 C815 1.399 . S
C814 C819 1.399 . S
C815 C814 1.399 . S
C815 C816 1.376 . S
C816 H803 0.930 . S
C816 C815 1.376 . S
C816 C817 1.388 . S
C817 H804 0.930 . S
C817 C816 1.388 . S
C817 C818 1.390 1_556 S
C818 C817 1.390 1_554 S
C818 C819 1.394 1_554 S
C818 C824 1.465 . S
C819 C814 1.399 . S
C819 C818 1.394 1_556 S
C819 C820 1.516 1_556 S
C820 C819 1.516 1_554 S
C820 C821 1.502 . S
C820 C822 1.561 . S
C820 C823 1.526 . S
C821 H805 0.959 . S
C821 H806 0.959 . S
C821 H807 0.961 . S
C821 C820 1.502 . S
C822 H808 0.960 1_554 S
C822 H809 0.961 . S
C822 H810 0.953 1_554 S
C822 C820 1.561 . S
C823 C820 1.526 . S
C823 C824 1.396 . S
C823 C828 1.390 . S
C824 C818 1.465 . S
C824 C823 1.396 . S
C824 C825 1.399 . S
C825 H811 0.929 . S
C825 C824 1.399 . S
C825 C826 1.385 . S
C826 H812 0.931 . S
C826 C825 1.385 . S
C826 C827 1.389 . S
C827 C826 1.389 . S
C827 C828 1.387 . S
C828 H813 0.930 . S
C828 C823 1.390 . S
C828 C827 1.387 . S
H829 C841 0.930 . S
H830 C843 0.930 . S
H831 C844 0.930 . S
H832 C848 0.959 . S
H833 C848 0.959 . S
H834 C848 0.961 . S
H835 C849 0.960 . S
H836 C849 0.961 . S
H837 C849 0.959 . S
H838 C852 0.929 . S
H839 C853 0.931 . S
H840 C855 0.930 . S
C841 H829 0.930 . S
C841 C842 1.399 . S
C841 C846 1.399 . S
C842 C841 1.399 . S
C842 C843 1.376 . S
C843 H830 0.930 . S
C843 C842 1.376 . S
C843 C844 1.388 . S
C844 H831 0.930 . S
C844 C843 1.388 . S
C844 C845 1.390 . S
C845 C844 1.390 . S
C845 C846 1.394 . S
C845 C851 1.465 . S
C846 C841 1.399 . S
C846 C845 1.394 . S
C846 C847 1.516 . S
C847 C846 1.516 . S
C847 C848 1.502 . S
C847 C849 1.561 . S
C847 C850 1.526 . S
C848 H832 0.959 . S
C848 H833 0.959 . S
C848 H834 0.961 . S
C848 C847 1.502 . S
C849 H835 0.960 . S
C849 H836 0.961 . S
C849 H837 0.959 . S
C849 C847 1.561 . S
C850 C847 1.526 . S
C850 C851 1.396 . S
C850 C855 1.390 . S
C851 C845 1.465 . S
C851 C850 1.396 . S
C851 C852 1.399 . S
C852 H838 0.929 . S
C852 C851 1.399 . S
C852 C853 1.385 . S
C853 H839 0.931 . S
C853 C852 1.385 . S
C853 C854 1.389 . S
C854 C853 1.389 . S
C854 C855 1.387 . S
C855 H840 0.930 . S
C855 C850 1.390 . S
C855 C854 1.387 . S
H856 C868 0.930 . S
H857 C870 0.930 . S
H858 C871 0.930 . S
H859 C875 0.959 . S
H860 C875 0.959 . S
H861 C875 0.961 . S
H862 C876 0.960 . S
H863 C876 0.961 . S
H864 C876 0.959 . S
H865 C879 0.929 . S
H866 C880 0.931 . S
H867 C882 0.930 . S
C868 H856 0.930 . S
C868 C869 1.399 . S
C868 C873 1.399 . S
C869 C868 1.399 . S
C869 C870 1.376 . S
C870 H857 0.930 . S
C870 C869 1.376 . S
C870 C871 1.388 . S
C871 H858 0.930 . S
C871 C870 1.388 . S
C871 C872 1.390 . S
C872 C871 1.390 . S
C872 C873 1.394 . S
C872 C878 1.465 . S
C873 C868 1.399 . S
C873 C872 1.394 . S
C873 C874 1.516 . S
C874 C873 1.516 . S
C874 C875 1.502 . S
C874 C876 1.561 . S
C874 C877 1.526 . S
C875 H859 0.959 . S
C875 H860 0.959 . S
C875 H861 0.961 . S
C875 C874 1.502 . S
C876 H862 0.960 . S
C876 H863 0.961 . S
C876 H864 0.959 . S
C876 C874 1.561 . S
C877 C874 1.526 . S
C877 C878 1.396 . S
C877 C882 1.390 . S
C878 C872 1.465 . S
C878 C877 1.396 . S
C878 C879 1.399 . S
C879 H865 0.929 . S
C879 C878 1.399 . S
C879 C880 1.385 . S
C880 H866 0.931 . S
C880 C879 1.385 . S
C880 C881 1.389 . S
C881 C880 1.389 . S
C881 C882 1.387 . S
C882 H867 0.930 . S
C882 C877 1.390 . S
C882 C881 1.387 . S
H883 C895 0.930 . S
H884 C897 0.930 . S
H885 C898 0.930 . S
H886 C902 0.959 . S
H887 C902 0.959 . S
H888 C902 0.961 . S
H889 C903 0.960 . S
H890 C903 0.961 . S
H891 C903 0.959 . S
H892 C906 0.929 . S
H893 C907 0.931 . S
H894 C909 0.930 . S
C895 H883 0.930 . S
C895 C896 1.399 . S
C895 C900 1.399 . S
C896 C895 1.399 . S
C896 C897 1.376 . S
C897 H884 0.930 . S
C897 C896 1.376 . S
C897 C898 1.388 . S
C898 H885 0.930 . S
C898 C897 1.388 . S
C898 C899 1.390 . S
C899 C898 1.390 . S
C899 C900 1.394 . S
C899 C905 1.465 . S
C900 C895 1.399 . S
C900 C899 1.394 . S
C900 C901 1.516 . S
C901 C900 1.516 . S
C901 C902 1.502 . S
C901 C903 1.561 . S
C901 C904 1.526 . S
C902 H886 0.959 . S
C902 H887 0.959 . S
C902 H888 0.961 . S
C902 C901 1.502 . S
C903 H889 0.960 . S
C903 H890 0.961 . S
C903 H891 0.959 . S
C903 C901 1.561 . S
C904 C901 1.526 . S
C904 C905 1.396 . S
C904 C909 1.390 . S
C905 C899 1.465 . S
C905 C904 1.396 . S
C905 C906 1.399 . S
C906 H892 0.929 . S
C906 C905 1.399 . S
C906 C907 1.385 . S
C907 H893 0.931 . S
C907 C906 1.385 . S
C907 C908 1.389 . S
C908 C907 1.389 . S
C908 C909 1.387 . S
C909 H894 0.930 . S
C909 C904 1.390 . S
C909 C908 1.387 . S
H910 C922 0.930 . S
H911 C924 0.930 . S
H912 C925 0.930 . S
H913 C929 0.959 . S
H914 C929 0.959 . S
H915 C929 0.961 . S
H916 C930 0.960 . S
H917 C930 0.961 . S
H918 C930 0.959 . S
H919 C933 0.929 . S
H920 C934 0.931 . S
H921 C936 0.930 . S
C922 H910 0.930 . S
C922 C923 1.399 . S
C922 C927 1.399 . S
C923 C922 1.399 . S
C923 C924 1.376 . S
C924 H911 0.930 . S
C924 C923 1.376 . S
C924 C925 1.388 . S
C925 H912 0.930 . S
C925 C924 1.388 . S
C925 C926 1.390 . S
C926 C925 1.390 . S
C926 C927 1.394 . S
C926 C932 1.465 . S
C927 C922 1.399 . S
C927 C926 1.394 . S
C927 C928 1.516 . S
C928 C927 1.516 . S
C928 C929 1.502 . S
C928 C930 1.561 . S
C928 C931 1.526 . S
C929 H913 0.959 . S
C929 H914 0.959 . S
C929 H915 0.961 . S
C929 C928 1.502 . S
C930 H916 0.960 . S
C930 H917 0.961 . S
C930 H918 0.959 . S
C930 C928 1.561 . S
C931 C928 1.526 . S
C931 C932 1.396 . S
C931 C936 1.390 . S
C932 C926 1.465 . S
C932 C931 1.396 . S
C932 C933 1.399 . S
C933 H919 0.929 . S
C933 C932 1.399 . S
C933 C934 1.385 . S
C934 H920 0.931 . S
C934 C933 1.385 . S
C934 C935 1.389 . S
C935 C934 1.389 . S
C935 C936 1.387 . S
C936 H921 0.930 . S
C936 C931 1.390 . S
C936 C935 1.387 . S
H937 C949 0.930 . S
H938 C951 0.930 . S
H939 C952 0.930 . S
H940 C956 0.959 . S
H941 C956 0.959 . S
H942 C956 0.961 . S
H943 C957 0.960 . S
H944 C957 0.961 . S
H945 C957 0.959 . S
H946 C960 0.929 . S
H947 C961 0.931 . S
H948 C963 0.930 . S
C949 H937 0.930 . S
C949 C950 1.399 . S
C949 C954 1.399 . S
C950 C949 1.399 . S
C950 C951 1.376 . S
C951 H938 0.930 . S
C951 C950 1.376 . S
C951 C952 1.388 . S
C952 H939 0.930 . S
C952 C951 1.388 . S
C952 C953 1.390 . S
C953 C952 1.390 . S
C953 C954 1.394 . S
C953 C959 1.465 . S
C954 C949 1.399 . S
C954 C953 1.394 . S
C954 C955 1.516 . S
C955 C954 1.516 . S
C955 C956 1.502 . S
C955 C957 1.561 . S
C955 C958 1.526 . S
C956 H940 0.959 . S
C956 H941 0.959 . S
C956 H942 0.961 . S
C956 C955 1.502 . S
C957 H943 0.960 . S
C957 H944 0.961 . S
C957 H945 0.959 . S
C957 C955 1.561 . S
C958 C955 1.526 . S
C958 C959 1.396 . S
C958 C963 1.390 . S
C959 C953 1.465 . S
C959 C958 1.396 . S
C959 C960 1.399 . S
C960 H946 0.929 . S
C960 C959 1.399 . S
C960 C961 1.385 . S
C961 H947 0.931 . S
C961 C960 1.385 . S
C961 C962 1.389 . S
C962 C961 1.389 . S
C962 C963 1.387 . S
C963 H948 0.930 . S
C963 C958 1.390 . S
C963 C962 1.387 . S
H964 C976 0.930 . S
H965 C978 0.930 . S
H966 C979 0.930 . S
H967 C983 0.959 . S
H968 C983 0.959 . S
H969 C983 0.961 . S
H970 C984 0.960 . S
H971 C984 0.961 . S
H972 C984 0.959 . S
H973 C987 0.929 . S
H974 C988 0.931 1_455 S
H975 C990 0.930 . S
C976 H964 0.930 . S
C976 C977 1.399 . S
C976 C981 1.399 . S
C977 C976 1.399 . S
C977 C978 1.376 . S
C978 H965 0.930 . S
C978 C977 1.376 . S
C978 C979 1.388 . S
C979 H966 0.930 . S
C979 C978 1.388 . S
C979 C980 1.390 . S
C980 C979 1.390 . S
C980 C981 1.394 . S
C980 C986 1.465 . S
C981 C976 1.399 . S
C981 C980 1.394 . S
C981 C982 1.516 . S
C982 C981 1.516 . S
C982 C983 1.502 . S
C982 C984 1.561 . S
C982 C985 1.526 . S
C983 H967 0.959 . S
C983 H968 0.959 . S
C983 H969 0.961 . S
C983 C982 1.502 . S
C984 H970 0.960 . S
C984 H971 0.961 . S
C984 H972 0.959 . S
C984 C982 1.561 . S
C985 C982 1.526 . S
C985 C986 1.396 . S
C985 C990 1.390 . S
C986 C980 1.465 . S
C986 C985 1.396 . S
C986 C987 1.399 . S
C987 H973 0.929 . S
C987 C986 1.399 . S
C987 C988 1.385 . S
C988 H974 0.931 1_655 S
C988 C987 1.385 . S
C988 C989 1.389 . S
C989 C988 1.389 . S
C989 C990 1.387 . S
C990 H975 0.930 . S
C990 C985 1.390 . S
C990 C989 1.387 . S
H991 C1003 0.930 . S
H992 C1005 0.930 . S
H993 C1006 0.930 . S
H994 C1010 0.959 . S
H995 C1010 0.959 . S
H996 C1010 0.961 . S
H997 C1011 0.960 . S
H998 C1011 0.961 . S
H999 C1011 0.959 . S
H1000 C1014 0.929 . S
H1001 C1015 0.931 . S
H1002 C1017 0.930 . S
C1003 H991 0.930 . S
C1003 C1004 1.399 . S
C1003 C1008 1.399 . S
C1004 C1003 1.399 . S
C1004 C1005 1.376 . S
C1005 H992 0.930 . S
C1005 C1004 1.376 . S
C1005 C1006 1.388 . S
C1006 H993 0.930 . S
C1006 C1005 1.388 . S
C1006 C1007 1.390 . S
C1007 C1006 1.390 . S
C1007 C1008 1.394 . S
C1007 C1013 1.465 . S
C1008 C1003 1.399 . S
C1008 C1007 1.394 . S
C1008 C1009 1.516 . S
C1009 C1008 1.516 . S
C1009 C1010 1.502 . S
C1009 C1011 1.561 . S
C1009 C1012 1.526 . S
C1010 H994 0.959 . S
C1010 H995 0.959 . S
C1010 H996 0.961 . S
C1010 C1009 1.502 . S
C1011 H997 0.960 . S
C1011 H998 0.961 . S
C1011 H999 0.959 . S
C1011 C1009 1.561 . S
C1012 C1009 1.526 . S
C1012 C1013 1.396 . S
C1012 C1017 1.390 . S
C1013 C1007 1.465 . S
C1013 C1012 1.396 . S
C1013 C1014 1.399 . S
C1014 H1000 0.929 . S
C1014 C1013 1.399 . S
C1014 C1015 1.385 . S
C1015 H1001 0.931 . S
C1015 C1014 1.385 . S
C1015 C1016 1.389 . S
C1016 C1015 1.389 . S
C1016 C1017 1.387 . S
C1017 H1002 0.930 . S
C1017 C1012 1.390 . S
C1017 C1016 1.387 . S
H1018 C1030 0.930 . S
H1019 C1032 0.930 . S
H1020 C1033 0.930 . S
H1021 C1037 0.959 . S
H1022 C1037 0.959 . S
H1023 C1037 0.961 . S
H1024 C1038 0.960 . S
H1025 C1038 0.961 . S
H1026 C1038 0.959 . S
H1027 C1041 0.929 . S
H1028 C1042 0.931 . S
H1029 C1044 0.930 . S
C1030 H1018 0.930 . S
C1030 C1031 1.399 . S
C1030 C1035 1.399 . S
C1031 C1030 1.399 . S
C1031 C1032 1.376 . S
C1032 H1019 0.930 . S
C1032 C1031 1.376 . S
C1032 C1033 1.388 . S
C1033 H1020 0.930 . S
C1033 C1032 1.388 . S
C1033 C1034 1.390 . S
C1034 C1033 1.390 . S
C1034 C1035 1.394 . S
C1034 C1040 1.465 . S
C1035 C1030 1.399 . S
C1035 C1034 1.394 . S
C1035 C1036 1.516 . S
C1036 C1035 1.516 . S
C1036 C1037 1.502 . S
C1036 C1038 1.561 . S
C1036 C1039 1.526 . S
C1037 H1021 0.959 . S
C1037 H1022 0.959 . S
C1037 H1023 0.961 . S
C1037 C1036 1.502 . S
C1038 H1024 0.960 . S
C1038 H1025 0.961 . S
C1038 H1026 0.959 . S
C1038 C1036 1.561 . S
C1039 C1036 1.526 . S
C1039 C1040 1.396 . S
C1039 C1044 1.390 . S
C1040 C1034 1.465 . S
C1040 C1039 1.396 . S
C1040 C1041 1.399 . S
C1041 H1027 0.929 . S
C1041 C1040 1.399 . S
C1041 C1042 1.385 . S
C1042 H1028 0.931 . S
C1042 C1041 1.385 . S
C1042 C1043 1.389 . S
C1043 C1042 1.389 . S
C1043 C1044 1.387 . S
C1044 H1029 0.930 . S
C1044 C1039 1.390 . S
C1044 C1043 1.387 . S
H1045 C1057 0.930 . S
H1046 C1059 0.930 . S
H1047 C1060 0.930 . S
H1048 C1064 0.959 . S
H1049 C1064 0.959 . S
H1050 C1064 0.961 . S
H1051 C1065 0.960 . S
H1052 C1065 0.961 . S
H1053 C1065 0.959 . S
H1054 C1068 0.929 . S
H1055 C1069 0.931 1_655 S
H1056 C1071 0.930 . S
C1057 H1045 0.930 . S
C1057 C1058 1.399 . S
C1057 C1062 1.399 . S
C1058 C1057 1.399 . S
C1058 C1059 1.376 . S
C1059 H1046 0.930 . S
C1059 C1058 1.376 . S
C1059 C1060 1.388 . S
C1060 H1047 0.930 . S
C1060 C1059 1.388 . S
C1060 C1061 1.390 . S
C1061 C1060 1.390 . S
C1061 C1062 1.394 . S
C1061 C1067 1.465 . S
C1062 C1057 1.399 . S
C1062 C1061 1.394 . S
C1062 C1063 1.516 . S
C1063 C1062 1.516 . S
C1063 C1064 1.502 . S
C1063 C1065 1.561 . S
C1063 C1066 1.526 . S
C1064 H1048 0.959 . S
C1064 H1049 0.959 . S
C1064 H1050 0.961 . S
C1064 C1063 1.502 . S
C1065 H1051 0.960 . S
C1065 H1052 0.961 . S
C1065 H1053 0.959 . S
C1065 C1063 1.561 . S
C1066 C1063 1.526 . S
C1066 C1067 1.396 . S
C1066 C1071 1.390 . S
C1067 C1061 1.465 . S
C1067 C1066 1.396 . S
C1067 C1068 1.399 . S
C1068 H1054 0.929 . S
C1068 C1067 1.399 . S
C1068 C1069 1.385 . S
C1069 H1055 0.931 1_455 S
C1069 C1068 1.385 . S
C1069 C1070 1.389 . S
C1070 C1069 1.389 . S
C1070 C1071 1.387 . S
C1071 H1056 0.930 . S
C1071 C1066 1.390 . S
C1071 C1070 1.387 . S
C437 C71 1.649 . S
C449 C162 1.657 . S
C476 C246 1.600 . S
C464 C81 1.628 . S
C503 C239 1.660 . S
C491 C49 1.660 . S
C518 C59 1.612 . S
C530 C155 1.636 . S
C557 C319 1.663 . S
C545 C27 1.657 . S
C584 C403 1.677 . S
C572 C38 1.683 . S
C599 C5 1.658 . S
C611 C396 1.639 . S
C626 C16 1.694 . S
C638 C312 1.698 . S
C665 C146 1.409 . S
C653 C15 1.564 . S
C692 C230 1.425 . S
C680 C4 1.579 . S
C719 C241 1.295 . S
C707 C37 1.574 . S
C746 C157 1.404 . S
C734 C26 1.570 . S
C773 C325 1.406 . S
C761 C60 1.612 . S
C788 C48 1.629 . S
C800 C409 1.430 . S
C827 C398 1.394 . S
C815 C82 1.605 . S
C842 C70 1.636 . S
C854 C314 1.409 . S
C881 C144 1.491 . S
C869 C10 1.499 . S
C908 C228 1.544 . S
C896 C21 1.521 . S
C923 C32 1.478 . S
C935 C235 1.447 . S
C962 C151 1.524 . S
C950 C43 1.528 . S
C989 C323 1.587 . S
C977 C54 1.582 . S
C1004 C65 1.530 . S
C1016 C407 1.538 . S
C1031 C76 1.587 . S
C1043 C414 1.581 . S
C1058 C87 1.536 . S
C1070 C330 1.511 . S
