# Generated by pormake.
# Topology ptr, (4,4)-cn, num edge types: 1
# Building blocks:
#     Node 0, Type 0, BuildingBlock: AZAVOO_clean_sbu_0, # of connection points: 4
#     Node 1, Type 0, BuildingBlock: AZAVOO_clean_sbu_0, # of connection points: 4
#     Node 2, Type 0, BuildingBlock: AZAVOO_clean_sbu_0, # of connection points: 4
#     Node 3, Type 0, BuildingBlock: AZAVOO_clean_sbu_0, # of connection points: 4
#     Node 4, Type 0, BuildingBlock: AZAVOO_clean_sbu_0, # of connection points: 4
#     Node 5, Type 0, BuildingBlock: AZAVOO_clean_sbu_0, # of connection points: 4
#     Node 6, Type 0, BuildingBlock: AZAVOO_clean_sbu_0, # of connection points: 4
#     Node 7, Type 0, BuildingBlock: AZAVOO_clean_sbu_0, # of connection points: 4
#     Node 8, Type 0, BuildingBlock: AZAVOO_clean_sbu_0, # of connection points: 4
#     Node 9, Type 0, BuildingBlock: AZAVOO_clean_sbu_0, # of connection points: 4
#     Node 10, Type 0, BuildingBlock: AZAVOO_clean_sbu_0, # of connection points: 4
#     Node 11, Type 0, BuildingBlock: AZAVOO_clean_sbu_0, # of connection points: 4
#     Node 12, Type 0, BuildingBlock: AZAVOO_clean_sbu_0, # of connection points: 4
#     Node 13, Type 0, BuildingBlock: AZAVOO_clean_sbu_0, # of connection points: 4
#     Node 14, Type 0, BuildingBlock: AZAVOO_clean_sbu_0, # of connection points: 4
#     Node 15, Type 0, BuildingBlock: AZAVOO_clean_sbu_0, # of connection points: 4
#     Node 16, Type 0, BuildingBlock: AZAVOO_clean_sbu_0, # of connection points: 4
#     Node 17, Type 0, BuildingBlock: AZAVOO_clean_sbu_0, # of connection points: 4
#     Node 18, Type 1, BuildingBlock: GIZVER_clean_linker_0, # of connection points: 4
#     Node 19, Type 1, BuildingBlock: GIZVER_clean_linker_0, # of connection points: 4
#     Node 20, Type 1, BuildingBlock: GIZVER_clean_linker_0, # of connection points: 4
#     Node 21, Type 1, BuildingBlock: GIZVER_clean_linker_0, # of connection points: 4
#     Node 22, Type 1, BuildingBlock: GIZVER_clean_linker_0, # of connection points: 4
#     Node 23, Type 1, BuildingBlock: GIZVER_clean_linker_0, # of connection points: 4
#     Node 24, Type 1, BuildingBlock: GIZVER_clean_linker_0, # of connection points: 4
#     Node 25, Type 1, BuildingBlock: GIZVER_clean_linker_0, # of connection points: 4
#     Node 26, Type 1, BuildingBlock: GIZVER_clean_linker_0, # of connection points: 4
#     Node 27, Type 1, BuildingBlock: GIZVER_clean_linker_0, # of connection points: 4
#     Node 28, Type 1, BuildingBlock: GIZVER_clean_linker_0, # of connection points: 4
#     Node 29, Type 1, BuildingBlock: GIZVER_clean_linker_0, # of connection points: 4
#     Node 30, Type 1, BuildingBlock: GIZVER_clean_linker_0, # of connection points: 4
#     Node 31, Type 1, BuildingBlock: GIZVER_clean_linker_0, # of connection points: 4
#     Node 32, Type 1, BuildingBlock: GIZVER_clean_linker_0, # of connection points: 4
#     Node 33, Type 1, BuildingBlock: GIZVER_clean_linker_0, # of connection points: 4
#     Node 34, Type 1, BuildingBlock: GIZVER_clean_linker_0, # of connection points: 4
#     Node 35, Type 1, BuildingBlock: GIZVER_clean_linker_0, # of connection points: 4
#     Edge 36, Type (0, 1), BuildingBlock: AJUNOK_clean_linker_0, # of connection points: 2
#     Edge 37, Type (0, 1), BuildingBlock: AJUNOK_clean_linker_0, # of connection points: 2
#     Edge 38, Type (0, 1), BuildingBlock: AJUNOK_clean_linker_0, # of connection points: 2
#     Edge 39, Type (0, 1), BuildingBlock: AJUNOK_clean_linker_0, # of connection points: 2
#     Edge 40, Type (0, 1), BuildingBlock: AJUNOK_clean_linker_0, # of connection points: 2
#     Edge 41, Type (0, 1), BuildingBlock: AJUNOK_clean_linker_0, # of connection points: 2
#     Edge 42, Type (0, 1), BuildingBlock: AJUNOK_clean_linker_0, # of connection points: 2
#     Edge 43, Type (0, 1), BuildingBlock: AJUNOK_clean_linker_0, # of connection points: 2
#     Edge 44, Type (0, 1), BuildingBlock: AJUNOK_clean_linker_0, # of connection points: 2
#     Edge 45, Type (0, 1), BuildingBlock: AJUNOK_clean_linker_0, # of connection points: 2
#     Edge 46, Type (0, 1), BuildingBlock: AJUNOK_clean_linker_0, # of connection points: 2
#     Edge 47, Type (0, 1), BuildingBlock: AJUNOK_clean_linker_0, # of connection points: 2
#     Edge 48, Type (0, 1), BuildingBlock: AJUNOK_clean_linker_0, # of connection points: 2
#     Edge 49, Type (0, 1), BuildingBlock: AJUNOK_clean_linker_0, # of connection points: 2
#     Edge 50, Type (0, 1), BuildingBlock: AJUNOK_clean_linker_0, # of connection points: 2
#     Edge 51, Type (0, 1), BuildingBlock: AJUNOK_clean_linker_0, # of connection points: 2
#     Edge 52, Type (0, 1), BuildingBlock: AJUNOK_clean_linker_0, # of connection points: 2
#     Edge 53, Type (0, 1), BuildingBlock: AJUNOK_clean_linker_0, # of connection points: 2
#     Edge 54, Type (0, 1), BuildingBlock: AJUNOK_clean_linker_0, # of connection points: 2
#     Edge 55, Type (0, 1), BuildingBlock: AJUNOK_clean_linker_0, # of connection points: 2
#     Edge 56, Type (0, 1), BuildingBlock: AJUNOK_clean_linker_0, # of connection points: 2
#     Edge 57, Type (0, 1), BuildingBlock: AJUNOK_clean_linker_0, # of connection points: 2
#     Edge 58, Type (0, 1), BuildingBlock: AJUNOK_clean_linker_0, # of connection points: 2
#     Edge 59, Type (0, 1), BuildingBlock: AJUNOK_clean_linker_0, # of connection points: 2
#     Edge 60, Type (0, 1), BuildingBlock: AJUNOK_clean_linker_0, # of connection points: 2
#     Edge 61, Type (0, 1), BuildingBlock: AJUNOK_clean_linker_0, # of connection points: 2
#     Edge 62, Type (0, 1), BuildingBlock: AJUNOK_clean_linker_0, # of connection points: 2
#     Edge 63, Type (0, 1), BuildingBlock: AJUNOK_clean_linker_0, # of connection points: 2
#     Edge 64, Type (0, 1), BuildingBlock: AJUNOK_clean_linker_0, # of connection points: 2
#     Edge 65, Type (0, 1), BuildingBlock: AJUNOK_clean_linker_0, # of connection points: 2
#     Edge 66, Type (0, 1), BuildingBlock: AJUNOK_clean_linker_0, # of connection points: 2
#     Edge 67, Type (0, 1), BuildingBlock: AJUNOK_clean_linker_0, # of connection points: 2
#     Edge 68, Type (0, 1), BuildingBlock: AJUNOK_clean_linker_0, # of connection points: 2
#     Edge 69, Type (0, 1), BuildingBlock: AJUNOK_clean_linker_0, # of connection points: 2
#     Edge 70, Type (0, 1), BuildingBlock: AJUNOK_clean_linker_0, # of connection points: 2
#     Edge 71, Type (0, 1), BuildingBlock: AJUNOK_clean_linker_0, # of connection points: 2
#     Edge 72, Type (0, 1), BuildingBlock: AJUNOK_clean_linker_0, # of connection points: 2
#     Edge 73, Type (0, 1), BuildingBlock: AJUNOK_clean_linker_0, # of connection points: 2
#     Edge 74, Type (0, 1), BuildingBlock: AJUNOK_clean_linker_0, # of connection points: 2
#     Edge 75, Type (0, 1), BuildingBlock: AJUNOK_clean_linker_0, # of connection points: 2
#     Edge 76, Type (0, 1), BuildingBlock: AJUNOK_clean_linker_0, # of connection points: 2
#     Edge 77, Type (0, 1), BuildingBlock: AJUNOK_clean_linker_0, # of connection points: 2
#     Edge 78, Type (0, 1), BuildingBlock: AJUNOK_clean_linker_0, # of connection points: 2
#     Edge 79, Type (0, 1), BuildingBlock: AJUNOK_clean_linker_0, # of connection points: 2
#     Edge 80, Type (0, 1), BuildingBlock: AJUNOK_clean_linker_0, # of connection points: 2
#     Edge 81, Type (0, 1), BuildingBlock: AJUNOK_clean_linker_0, # of connection points: 2
#     Edge 82, Type (0, 1), BuildingBlock: AJUNOK_clean_linker_0, # of connection points: 2
#     Edge 83, Type (0, 1), BuildingBlock: AJUNOK_clean_linker_0, # of connection points: 2
#     Edge 84, Type (0, 1), BuildingBlock: AJUNOK_clean_linker_0, # of connection points: 2
#     Edge 85, Type (0, 1), BuildingBlock: AJUNOK_clean_linker_0, # of connection points: 2
#     Edge 86, Type (0, 1), BuildingBlock: AJUNOK_clean_linker_0, # of connection points: 2
#     Edge 87, Type (0, 1), BuildingBlock: AJUNOK_clean_linker_0, # of connection points: 2
#     Edge 88, Type (0, 1), BuildingBlock: AJUNOK_clean_linker_0, # of connection points: 2
#     Edge 89, Type (0, 1), BuildingBlock: AJUNOK_clean_linker_0, # of connection points: 2
#     Edge 90, Type (0, 1), BuildingBlock: AJUNOK_clean_linker_0, # of connection points: 2
#     Edge 91, Type (0, 1), BuildingBlock: AJUNOK_clean_linker_0, # of connection points: 2
#     Edge 92, Type (0, 1), BuildingBlock: AJUNOK_clean_linker_0, # of connection points: 2
#     Edge 93, Type (0, 1), BuildingBlock: AJUNOK_clean_linker_0, # of connection points: 2
#     Edge 94, Type (0, 1), BuildingBlock: AJUNOK_clean_linker_0, # of connection points: 2
#     Edge 95, Type (0, 1), BuildingBlock: AJUNOK_clean_linker_0, # of connection points: 2
#     Edge 96, Type (0, 1), BuildingBlock: AJUNOK_clean_linker_0, # of connection points: 2
#     Edge 97, Type (0, 1), BuildingBlock: AJUNOK_clean_linker_0, # of connection points: 2
#     Edge 98, Type (0, 1), BuildingBlock: AJUNOK_clean_linker_0, # of connection points: 2
#     Edge 99, Type (0, 1), BuildingBlock: AJUNOK_clean_linker_0, # of connection points: 2
#     Edge 100, Type (0, 1), BuildingBlock: AJUNOK_clean_linker_0, # of connection points: 2
#     Edge 101, Type (0, 1), BuildingBlock: AJUNOK_clean_linker_0, # of connection points: 2
#     Edge 102, Type (0, 1), BuildingBlock: AJUNOK_clean_linker_0, # of connection points: 2
#     Edge 103, Type (0, 1), BuildingBlock: AJUNOK_clean_linker_0, # of connection points: 2
#     Edge 104, Type (0, 1), BuildingBlock: AJUNOK_clean_linker_0, # of connection points: 2
#     Edge 105, Type (0, 1), BuildingBlock: AJUNOK_clean_linker_0, # of connection points: 2
#     Edge 106, Type (0, 1), BuildingBlock: AJUNOK_clean_linker_0, # of connection points: 2
#     Edge 107, Type (0, 1), BuildingBlock: AJUNOK_clean_linker_0, # of connection points: 2
# Relax obj value: 0.077
# Max RMSD: 0.240
# Mean RMSD: 0.126
data_MOF--net-ptr--node1-AZAVOO_clean_sbu_0--node2-GIZVER_clean_linker_0--edge1-AJUNOK_clean_linker_0
_symmetry_space_group_name_H-M    P1
_symmetry_Int_Tables_number       1
_symmetry_cell_setting            triclinic
loop_
_symmetry_equiv_pos_as_xyz
'x, y, z'
_cell_length_a     60.58411
_cell_length_b     59.788685
_cell_length_c     34.417658
_cell_angle_alpha  91.926716
_cell_angle_beta   91.704197
_cell_angle_gamma 120.03048
loop_
_atom_site_label
_atom_site_type_symbol
_atom_site_fract_x
_atom_site_fract_y
_atom_site_fract_z
_atom_type_partial_charge
Mg0 Mg 0.0066 0.36511 0.97583 0.0
O1 O 0.00471 0.38584 0.03249 0.0
O2 O 0.97319 0.3945 0.02221 0.0
Mg3 Mg 0.95519 0.37976 0.96093 0.0
C4 C 0.99115 0.3955 0.04393 0.0
C5 C 0.05146 0.35387 0.98772 0.0
O6 O 0.05658 0.36451 0.95395 0.0
O7 O 0.97027 0.32773 0.98991 0.0
O8 O 0.9401 0.33774 0.97698 0.0
O9 O 0.03416 0.40319 0.95273 0.0
O10 O 0.99233 0.38503 0.94442 0.0
C11 C 0.94678 0.32159 0.98731 0.0
C12 C 0.01465 0.40466 0.93994 0.0
O13 O 0.03214 0.35158 0.00494 0.0
Mg14 Mg 0.62232 0.63414 0.04241 0.0
O15 O 0.60254 0.61556 0.98324 0.0
O16 O 0.56425 0.61225 0.98022 0.0
Mg17 Mg 0.55901 0.62748 0.03919 0.0
C18 C 0.58149 0.60912 0.96479 0.0
C19 C 0.66963 0.62768 0.02867 0.0
O20 O 0.65788 0.60972 0.05353 0.0
O21 O 0.62913 0.67336 0.02462 0.0
O22 O 0.59054 0.66917 0.02824 0.0
O23 O 0.60538 0.59545 0.06759 0.0
O24 O 0.58724 0.61949 0.06846 0.0
C25 C 0.61439 0.68288 0.02284 0.0
C26 C 0.58639 0.59829 0.07721 0.0
O27 O 0.66008 0.64149 0.01881 0.0
Mg28 Mg 0.39055 0.00275 0.97933 0.0
O29 O 0.4095 0.00342 0.03745 0.0
O30 O 0.45009 0.03519 0.04052 0.0
Mg31 Mg 0.45741 0.0535 0.9814 0.0
C32 C 0.43112 0.01663 0.05585 0.0
C33 C 0.33807 0.95423 -0.00447 0.0
O34 O 0.34708 0.94236 0.97403 0.0
O35 O 0.39033 0.03886 -0.00147 0.0
O36 O 0.43083 0.06992 0.99422 0.0
O37 O 0.40118 0.9755 0.9523 0.0
O38 O 0.42496 0.01803 0.95295 0.0
C39 C 0.40754 0.06265 0.00055 0.0
C40 C 0.42184 0.99571 0.94251 0.0
O41 O 0.35165 0.97842 0.00316 0.0
Mg42 Mg 0.99661 0.63761 0.03471 0.0
O43 O 0.00537 0.61945 0.98088 0.0
O44 O 0.04081 0.61843 -0.00194 0.0
Mg45 Mg 0.05437 0.63489 0.06012 0.0
C46 C 0.02284 0.61405 0.97322 0.0
C47 C 0.94516 0.63382 0.01522 0.0
O48 O 0.94008 0.61884 0.04462 0.0
O49 O 0.02918 0.67774 0.02157 0.0
O50 O 0.06308 0.67463 0.04027 0.0
O51 O 0.97323 0.59857 0.05838 0.0
O52 O 0.01476 0.62374 0.07016 0.0
C53 C 0.0533 0.6876 0.02686 0.0
C54 C 0.99436 0.60194 0.0743 0.0
O55 O 0.96732 0.64421 0.00183 0.0
Mg56 Mg 0.37425 0.37616 0.97063 0.0
O57 O 0.39583 0.39765 0.02789 0.0
O58 O 0.43704 0.4097 0.02347 0.0
Mg59 Mg 0.44143 0.39505 0.96425 0.0
C60 C 0.41877 0.40873 0.04213 0.0
C61 C 0.31986 0.36797 0.98868 0.0
O62 O 0.32437 0.38344 0.96006 0.0
O63 O 0.37586 0.34059 0.98848 0.0
O64 O 0.41669 0.35298 0.98041 0.0
O65 O 0.38275 0.4129 0.94349 0.0
O66 O 0.40736 0.39556 0.94009 0.0
C67 C 0.39425 0.33592 0.98892 0.0
C68 C 0.40327 0.414 0.93125 0.0
O69 O 0.33655 0.36208 -0.00092 0.0
Mg70 Mg 0.61727 0.99312 0.02288 0.0
O71 O 0.59313 0.98183 0.9655 0.0
O72 O 0.55923 0.94253 0.97058 0.0
Mg73 Mg 0.5606 0.92964 0.0318 0.0
C74 C 0.57245 0.96235 0.95116 0.0
C75 C 0.67388 0.03333 0.01224 0.0
O76 O 0.6752 0.02288 0.04457 0.0
O77 O 0.6303 0.96431 0.00843 0.0
O78 O 0.59603 0.92654 0.01948 0.0
O79 O 0.59641 0.01174 0.04746 0.0
O80 O 0.58454 0.97061 0.05289 0.0
C81 C 0.61936 0.93985 0.0109 0.0
C82 C 0.58031 0.98941 0.05993 0.0
O83 O 0.65206 0.02533 -0.00477 0.0
Mg84 Mg 0.6833 0.70422 0.3032 0.0
O85 O 0.6826 0.72632 0.35894 0.0
O86 O 0.65038 0.73407 0.35063 0.0
Mg87 Mg 0.63053 0.71724 0.2909 0.0
C88 C 0.6692 0.73594 0.37111 0.0
C89 C 0.71769 0.67931 0.31477 0.0
O90 O 0.70604 0.66791 0.28105 0.0
O91 O 0.64829 0.66682 0.32083 0.0
O92 O 0.61727 0.67592 0.30918 0.0
O93 O 0.70843 0.74161 0.27617 0.0
O94 O 0.6664 0.7212 0.27093 0.0
C95 C 0.62466 0.66025 0.31941 0.0
C96 C 0.68783 0.7411 0.26356 0.0
O97 O 0.71162 0.69439 0.33233 0.0
Mg98 Mg 0.29012 0.96613 0.38024 0.0
O99 O 0.2688 0.94704 0.32218 0.0
O100 O 0.23024 0.94305 0.32096 0.0
Mg101 Mg 0.22661 0.95896 0.3804 0.0
C102 C 0.24732 0.94009 0.30472 0.0
C103 C 0.34628 0.97509 0.37201 0.0
O104 O 0.34695 0.9757 0.41023 0.0
O105 O 0.29639 0.00524 0.36224 0.0
O106 O 0.25757 0.00033 0.36716 0.0
O107 O 0.27404 0.92781 0.40628 0.0
O108 O 0.25583 0.95181 0.40845 0.0
C109 C 0.28125 0.0143 0.36071 0.0
C110 C 0.2553 0.93074 0.41711 0.0
O111 O 0.32654 0.97231 0.35331 0.0
Mg112 Mg 0.04985 0.33494 0.3044 0.0
O113 O 0.06632 0.33422 0.36381 0.0
O114 O 0.10709 0.36557 0.36975 0.0
Mg115 Mg 0.11683 0.38557 0.31215 0.0
C116 C 0.08747 0.34684 0.38354 0.0
C117 C 0.99941 0.28618 0.32535 0.0
O118 O 0.01117 0.27449 0.31135 0.0
O119 O 0.04924 0.37082 0.32325 0.0
O120 O 0.09001 0.40197 0.32297 0.0
O121 O 0.06138 0.30785 0.27972 0.0
O122 O 0.08536 0.35043 0.28154 0.0
C123 C 0.06646 0.39457 0.32714 0.0
C124 C 0.08275 0.32814 0.27244 0.0
O125 O 0.01037 0.31064 0.32574 0.0
Mg126 Mg 0.67612 0.9733 0.35741 0.0
O127 O 0.68215 0.95419 0.3017 0.0
O128 O 0.71887 0.95472 0.31375 0.0
Mg129 Mg 0.73559 0.97204 0.37405 0.0
C130 C 0.69957 0.94937 0.29131 0.0
C131 C 0.62361 0.96921 0.34566 0.0
O132 O 0.62132 0.95736 0.37801 0.0
O133 O 0.70718 0.01364 0.34105 0.0
O134 O 0.74184 0.011 0.35604 0.0
O135 O 0.65561 0.93507 0.38507 0.0
O136 O 0.69712 0.96145 0.39135 0.0
C137 C 0.73144 0.02377 0.34437 0.0
C138 C 0.67764 0.93988 0.39941 0.0
O139 O 0.64434 0.97797 0.32814 0.0
Mg140 Mg 0.04226 0.70761 0.30681 0.0
O141 O 0.06583 0.72672 0.36421 0.0
O142 O 0.10365 0.72933 0.35826 0.0
Mg143 Mg 0.10514 0.71412 0.29789 0.0
C144 C 0.08807 0.73279 0.37805 0.0
C145 C 0.98468 0.6833 0.31611 0.0
O146 O 0.98551 0.67248 0.28274 0.0
O147 O 0.03642 0.66835 0.32298 0.0
O148 O 0.07479 0.67346 0.31273 0.0
O149 O 0.0568 0.74588 0.28093 0.0
O150 O 0.07538 0.72234 0.27607 0.0
C151 C 0.05165 0.65945 0.32172 0.0
C152 C 0.07532 0.74322 0.26821 0.0
O153 O 0.00556 0.69943 0.3344 0.0
Mg154 Mg 0.28883 0.34132 0.37476 0.0
O155 O 0.26465 0.32951 0.31699 0.0
O156 O 0.22645 0.29509 0.32686 0.0
Mg157 Mg 0.22663 0.28449 0.39004 0.0
C158 C 0.24209 0.31212 0.305 0.0
C159 C 0.34148 0.39052 0.35633 0.0
O160 O 0.33609 0.40132 0.3856 0.0
O161 O 0.29499 0.30696 0.36545 0.0
O162 O 0.25735 0.27341 0.37855 0.0
O163 O 0.27349 0.36677 0.39552 0.0
O164 O 0.25572 0.3251 0.40503 0.0
C165 C 0.28055 0.28279 0.36956 0.0
C166 C 0.25504 0.34621 0.40919 0.0
O167 O 0.32556 0.36726 0.34473 0.0
Mg168 Mg 0.33896 0.03819 0.6448 0.0
O169 O 0.34078 0.05916 0.70281 0.0
O170 O 0.30755 0.06553 0.70328 0.0
Mg171 Mg 0.28477 0.04915 0.64524 0.0
C172 C 0.32774 0.06768 0.71962 0.0
C173 C 0.37376 0.01282 0.65351 0.0
O174 O 0.35927 0.99834 0.6233 0.0
O175 O 0.30607 8e-05 0.66424 0.0
O176 O 0.27354 0.00753 0.65956 0.0
O177 O 0.36129 0.0759 0.61737 0.0
O178 O 0.31926 0.05427 0.61693 0.0
C179 C 0.28231 0.99243 0.66612 0.0
C180 C 0.33983 0.07451 0.60749 0.0
O181 O 0.36939 0.02971 0.66915 0.0
Mg182 Mg 0.95841 0.30512 0.71909 0.0
O183 O 0.93824 0.28753 0.65968 0.0
O184 O 0.89873 0.28128 0.66016 0.0
Mg185 Mg 0.89339 0.2942 0.72083 0.0
C186 C 0.91642 0.27999 0.6428 0.0
C187 C 0.00885 0.30464 0.70397 0.0
O188 O 0.99884 0.28629 0.72874 0.0
O189 O 0.96236 0.34382 0.70495 0.0
O190 O 0.92287 0.33687 0.71108 0.0
O191 O 0.94396 0.26571 0.74095 0.0
O192 O 0.9235 0.28743 0.74537 0.0
C193 C 0.94644 0.35192 0.70511 0.0
C194 C 0.92401 0.26653 0.75133 0.0
O195 O 0.99682 0.3161 0.69408 0.0
Mg196 Mg 0.71082 0.65955 0.63112 0.0
O197 O 0.72736 0.65772 0.69008 0.0
O198 O 0.76883 0.68711 0.69458 0.0
Mg199 Mg 0.77904 0.70643 0.63641 0.0
C200 C 0.74884 0.66935 0.70913 0.0
C201 C 0.65686 0.61342 0.64423 0.0
O202 O 0.66485 0.60164 0.62046 0.0
O203 O 0.7134 0.69713 0.65057 0.0
O204 O 0.75488 0.72574 0.64788 0.0
O205 O 0.71929 0.63029 0.60508 0.0
O206 O 0.74568 0.67247 0.60685 0.0
C207 C 0.73197 0.72035 0.65328 0.0
C208 C 0.74121 0.64954 0.59709 0.0
O209 O 0.67132 0.6373 0.65347 0.0
Mg210 Mg 0.32817 0.29627 0.70635 0.0
O211 O 0.33683 0.27874 0.65243 0.0
O212 O 0.37428 0.2808 0.66508 0.0
Mg213 Mg 0.38882 0.29843 0.72673 0.0
C214 C 0.35483 0.27478 0.6424 0.0
C215 C 0.28341 0.30616 0.69212 0.0
O216 O 0.28775 0.31079 0.72997 0.0
O217 O 0.35829 0.33694 0.69098 0.0
O218 O 0.39424 0.33703 0.70717 0.0
O219 O 0.30751 0.25756 0.73172 0.0
O220 O 0.34902 0.28486 0.74055 0.0
C221 C 0.38261 0.34846 0.69468 0.0
C222 C 0.32962 0.26247 0.74582 0.0
O223 O 0.2972 0.29963 0.67317 0.0
Mg224 Mg 0.70282 0.04036 0.63044 0.0
O225 O 0.72647 0.05881 0.688 0.0
O226 O 0.76555 0.06497 0.67929 0.0
Mg227 Mg 0.76744 0.05246 0.61686 0.0
C228 C 0.74929 0.06618 0.70068 0.0
C229 C 0.64842 0.03199 0.64787 0.0
O230 O 0.65305 0.04811 0.62014 0.0
O231 O 0.70081 0.00226 0.64307 0.0
O232 O 0.73999 0.01032 0.63086 0.0
O233 O 0.71408 0.07916 0.60805 0.0
O234 O 0.73565 0.05868 0.60044 0.0
C235 C 0.71722 0.99495 0.64043 0.0
C236 C 0.73382 0.07891 0.59515 0.0
O237 O 0.6655 0.02693 0.65928 0.0
Mg238 Mg 0.95546 0.66963 0.69847 0.0
O239 O 0.93138 0.65699 0.64073 0.0
O240 O 0.89697 0.61841 0.64821 0.0
Mg241 Mg 0.89774 0.60738 0.71087 0.0
C242 C 0.91054 0.63729 0.62733 0.0
C243 C 0.0122 0.70981 0.68683 0.0
O244 O 0.01418 0.7004 0.71987 0.0
O245 O 0.96759 0.63963 0.68699 0.0
O246 O 0.93258 0.60288 0.69989 0.0
O247 O 0.9351 0.68959 0.72088 0.0
O248 O 0.92278 0.64856 0.72846 0.0
C249 C 0.95593 0.61525 0.69103 0.0
C250 C 0.91881 0.6676 0.73411 0.0
O251 O 0.99024 0.70074 0.66975 0.0
H252 H 0.14791 0.29943 0.14554 0.0
H253 H 0.12973 0.30708 0.02628 0.0
H254 H 0.10606 0.33743 0.12118 0.0
H255 H 0.14478 0.2687 0.08053 0.0
H256 H 0.15476 0.2868 0.03808 0.0
H257 H 0.17336 0.28407 0.14249 0.0
H258 H 0.25313 0.33567 0.12946 0.0
H259 H 0.19963 0.31633 0.03204 0.0
C260 C 0.14058 0.30708 0.12417 0.0
C261 C 0.12819 0.31996 0.13741 0.0
C262 C 0.14256 0.30342 0.08408 0.0
C263 C 0.12989 0.31123 0.0572 0.0
C264 C 0.11613 0.323 0.07062 0.0
C265 C 0.11644 0.32822 0.11062 0.0
C266 C 0.15559 0.28869 0.07042 0.0
C267 C 0.18306 0.30094 0.08652 0.0
C268 C 0.18856 0.29747 0.12524 0.0
C269 C 0.21365 0.31094 0.14172 0.0
C270 C 0.23356 0.32546 0.11757 0.0
C271 C 0.2288 0.32632 0.07772 0.0
C272 C 0.20347 0.31515 0.06263 0.0
H273 H 0.71107 0.841 0.15084 0.0
H274 H 0.68032 0.81772 0.03205 0.0
H275 H 0.65805 0.76124 0.11833 0.0
H276 H 0.7317 0.86952 0.09535 0.0
H277 H 0.71616 0.86106 0.04782 0.0
H278 H 0.71143 0.88112 0.15067 0.0
H279 H 0.67064 0.91914 0.1146 0.0
H280 H 0.68593 0.87472 0.03028 0.0
C281 C 0.6984 0.82622 0.12909 0.0
C282 C 0.68416 0.80045 0.13935 0.0
C283 C 0.69666 0.83279 0.09055 0.0
C284 C 0.68108 0.81311 0.06207 0.0
C285 C 0.66708 0.78736 0.07236 0.0
C286 C 0.66838 0.78136 0.11092 0.0
C287 C 0.71269 0.86042 0.07944 0.0
C288 C 0.70009 0.87604 0.0894 0.0
C289 C 0.70165 0.88555 0.12803 0.0
C290 C 0.69089 0.90099 0.13741 0.0
C291 C 0.67856 0.9068 0.10786 0.0
C292 C 0.67685 0.89751 0.06939 0.0
C293 C 0.68728 0.88185 0.06014 0.0
H294 H 0.17005 0.82047 0.16137 0.0
H295 H 0.15723 0.80546 0.03756 0.0
H296 H 0.09421 0.77746 0.11232 0.0
H297 H 0.20198 0.81892 0.11665 0.0
H298 H 0.19872 0.82159 0.06577 0.0
H299 H 0.20303 0.85806 0.16173 0.0
H300 H 0.26337 0.92923 0.12472 0.0
H301 H 0.22777 0.8622 0.04501 0.0
C302 C 0.1574 0.81482 0.13563 0.0
C303 C 0.13112 0.8012 0.14038 0.0
C304 C 0.16715 0.81777 0.09845 0.0
C305 C 0.14993 0.80569 0.06586 0.0
C306 C 0.12348 0.79068 0.07058 0.0
C307 C 0.11428 0.79021 0.10769 0.0
C308 C 0.1954 0.82788 0.09474 0.0
C309 C 0.21186 0.85697 0.1015 0.0
C310 C 0.21399 0.86911 0.13827 0.0
C311 C 0.23191 0.89532 0.14637 0.0
C312 C 0.24851 0.90939 0.1177 0.0
C313 C 0.2472 0.89755 0.08112 0.0
C314 C 0.22846 0.87152 0.07295 0.0
H315 H 0.36722 0.19366 0.84805 0.0
H316 H 0.39347 0.22282 0.96636 0.0
H317 H 0.34735 0.2462 0.90173 0.0
H318 H 0.41011 0.20147 0.87962 0.0
H319 H 0.41386 0.20398 0.93134 0.0
H320 H 0.37487 0.16065 0.8448 0.0
H321 H 0.35675 0.09185 0.90307 0.0
H322 H 0.39599 0.16574 0.96667 0.0
C323 C 0.36709 0.20444 0.87377 0.0
C324 C 0.35447 0.21863 0.87165 0.0
C325 C 0.38131 0.20594 0.90776 0.0
C326 C 0.38195 0.22104 0.94049 0.0
C327 C 0.36971 0.23571 0.93858 0.0
C328 C 0.35544 0.23369 0.90441 0.0
C329 C 0.39933 0.19546 0.90656 0.0
C330 C 0.3854 0.16638 0.90643 0.0
C331 C 0.37403 0.15135 0.8716 0.0
C332 C 0.36336 0.12444 0.8704 0.0
C333 C 0.36395 0.11253 0.90442 0.0
C334 C 0.37594 0.12735 0.93913 0.0
C335 C 0.38608 0.1542 0.94023 0.0
H336 H 0.8469 0.16639 0.85938 0.0
H337 H 0.85732 0.18911 0.98213 0.0
H338 H 0.88629 0.24633 0.89678 0.0
H339 H 0.84683 0.13751 0.91901 0.0
H340 H 0.83704 0.14431 0.9639 0.0
H341 H 0.81755 0.12649 0.85727 0.0
H342 H 0.73823 0.08094 0.87792 0.0
H343 H 0.79212 0.12523 0.97311 0.0
C344 C 0.85252 0.18091 0.88278 0.0
C345 C 0.86572 0.20695 0.87366 0.0
C346 C 0.84804 0.17401 0.92187 0.0
C347 C 0.85874 0.19388 0.95188 0.0
C348 C 0.87249 0.21995 0.94261 0.0
C349 C 0.87497 0.22618 0.90368 0.0
C350 C 0.83568 0.1458 0.93189 0.0
C351 C 0.80806 0.12919 0.91659 0.0
C352 C 0.80237 0.12074 0.87703 0.0
C353 C 0.77716 0.10407 0.86278 0.0
C354 C 0.75752 0.0949 0.88867 0.0
C355 C 0.76269 0.10193 0.92859 0.0
C356 C 0.78796 0.11964 0.94232 0.0
H357 H 0.81892 0.62901 0.84422 0.0
H358 H 0.8342 0.62351 0.96557 0.0
H359 H 0.89555 0.66308 0.88934 0.0
H360 H 0.78722 0.59213 0.88917 0.0
H361 H 0.79147 0.5996 0.94031 0.0
H362 H 0.78153 0.62339 0.84448 0.0
H363 H 0.73431 0.65045 0.89148 0.0
H364 H 0.76911 0.61941 0.96711 0.0
C365 C 0.83188 0.63474 0.86948 0.0
C366 C 0.85804 0.64939 0.86402 0.0
C367 C 0.82287 0.62626 0.90653 0.0
C368 C 0.8408 0.63128 0.93753 0.0
C369 C 0.86718 0.64451 0.93161 0.0
C370 C 0.87546 0.65413 0.89506 0.0
C371 C 0.79456 0.60842 0.91159 0.0
C372 C 0.77885 0.62159 0.9069 0.0
C373 C 0.77426 0.62803 0.86985 0.0
C374 C 0.7591 0.63931 0.86452 0.0
C375 C 0.74683 0.6426 0.8961 0.0
C376 C 0.74961 0.63472 0.93302 0.0
C377 C 0.76644 0.62509 0.93857 0.0
H378 H 0.80568 0.618 0.47108 0.0
H379 H 0.80109 0.63894 0.35345 0.0
H380 H 0.77081 0.66301 0.44707 0.0
H381 H 0.80945 0.59376 0.40832 0.0
H382 H 0.81829 0.61111 0.36496 0.0
H383 H 0.83894 0.61404 0.47088 0.0
H384 H 0.91844 0.65698 0.45002 0.0
H385 H 0.86281 0.63976 0.35614 0.0
C386 C 0.80133 0.6286 0.45043 0.0
C387 C 0.78942 0.64206 0.46349 0.0
C388 C 0.80685 0.62834 0.411 0.0
C389 C 0.79823 0.64012 0.38421 0.0
C390 C 0.78521 0.65277 0.39713 0.0
C391 C 0.78148 0.65403 0.43688 0.0
C392 C 0.81974 0.61354 0.3973 0.0
C393 C 0.84748 0.62632 0.4121 0.0
C394 C 0.85378 0.62466 0.45123 0.0
C395 C 0.87932 0.63652 0.46533 0.0
C396 C 0.89871 0.64889 0.43953 0.0
C397 C 0.89298 0.64966 0.40003 0.0
C398 C 0.86732 0.63889 0.38656 0.0
H399 H 0.36239 0.17189 0.49194 0.0
H400 H 0.3388 0.14899 0.37042 0.0
H401 H 0.31483 0.09189 0.45598 0.0
H402 H 0.3857 0.20102 0.43469 0.0
H403 H 0.36889 0.19354 0.38827 0.0
H404 H 0.3678 0.21197 0.49343 0.0
H405 H 0.32346 0.24796 0.46809 0.0
H406 H 0.33783 0.2073 0.37617 0.0
C407 C 0.35132 0.15723 0.46914 0.0
C408 C 0.33753 0.13129 0.47863 0.0
C409 C 0.35112 0.16403 0.43026 0.0
C410 C 0.33817 0.14425 0.40063 0.0
C411 C 0.32508 0.11825 0.41012 0.0
C412 C 0.32446 0.11209 0.44899 0.0
C413 C 0.36628 0.19206 0.42013 0.0
C414 C 0.3538 0.20728 0.43344 0.0
C415 C 0.35668 0.21609 0.47278 0.0
C416 C 0.34542 0.2304 0.4856 0.0
C417 C 0.3316 0.23625 0.45866 0.0
C418 C 0.32895 0.22818 0.41936 0.0
C419 C 0.33984 0.21348 0.40666 0.0
H420 H 0.83469 0.15788 0.50241 0.0
H421 H 0.83248 0.14256 0.37908 0.0
H422 H 0.76318 0.10947 0.44071 0.0
H423 H 0.87001 0.15508 0.46918 0.0
H424 H 0.87066 0.15492 0.41756 0.0
H425 H 0.87256 0.19474 0.50642 0.0
H426 H 0.92915 0.26539 0.46074 0.0
H427 H 0.89444 0.1947 0.38883 0.0
C428 C 0.82394 0.1502 0.47484 0.0
C429 C 0.79729 0.13571 0.47452 0.0
C430 C 0.83674 0.15258 0.44055 0.0
C431 C 0.82249 0.14082 0.40538 0.0
C432 C 0.79585 0.1244 0.4051 0.0
C433 C 0.78345 0.12302 0.43961 0.0
C434 C 0.86509 0.16256 0.4431 0.0
C435 C 0.88061 0.19165 0.44648 0.0
C436 C 0.88281 0.20519 0.48185 0.0
C437 C 0.89972 0.23192 0.48679 0.0
C438 C 0.915 0.24504 0.45622 0.0
C439 C 0.91326 0.2317 0.42086 0.0
C440 C 0.89554 0.20515 0.41586 0.0
H441 H 0.02584 0.52665 0.16861 0.0
H442 H 0.04377 0.5461 0.29125 0.0
H443 H 0.99861 0.57119 0.22792 0.0
H444 H 0.06534 0.53124 0.20184 0.0
H445 H 0.06924 0.53414 0.25362 0.0
H446 H 0.03058 0.48967 0.16804 0.0
H447 H 0.01595 0.42192 0.22713 0.0
H448 H 0.05328 0.49624 0.28942 0.0
C449 C 0.02297 0.53434 0.19573 0.0
C450 C 0.00887 0.54705 0.19513 0.0
C451 C 0.03547 0.5338 0.23037 0.0
C452 C 0.03315 0.5455 0.26494 0.0
C453 C 0.01981 0.55914 0.26455 0.0
C454 C 0.00707 0.55899 0.22967 0.0
C455 C 0.05473 0.52493 0.22889 0.0
C456 C 0.04199 0.49597 0.22923 0.0
C457 C 0.03053 0.48057 0.19475 0.0
C458 C 0.02075 0.45375 0.19393 0.0
C459 C 0.02234 0.44244 0.2281 0.0
C460 C 0.03411 0.45768 0.26256 0.0
C461 C 0.04348 0.48436 0.26318 0.0
H462 H 0.51357 0.50475 0.19623 0.0
H463 H 0.53239 0.52905 0.31833 0.0
H464 H 0.55929 0.58491 0.23081 0.0
H465 H 0.51519 0.4756 0.25618 0.0
H466 H 0.50745 0.48404 0.30176 0.0
H467 H 0.48498 0.46399 0.19692 0.0
H468 H 0.40588 0.4307 0.22038 0.0
H469 H 0.46306 0.4677 0.31372 0.0
C470 C 0.52156 0.51964 0.2194 0.0
C471 C 0.53532 0.54545 0.20933 0.0
C472 C 0.51916 0.51335 0.2589 0.0
C473 C 0.53249 0.53348 0.28804 0.0
C474 C 0.54691 0.55927 0.27774 0.0
C475 C 0.54751 0.56502 0.23868 0.0
C476 C 0.5055 0.48527 0.26978 0.0
C477 C 0.47747 0.4703 0.25609 0.0
C478 C 0.47047 0.46119 0.21687 0.0
C479 C 0.44473 0.44714 0.20353 0.0
C480 C 0.42587 0.44141 0.23016 0.0
C481 C 0.43228 0.44743 0.26998 0.0
C482 C 0.45808 0.46286 0.28288 0.0
H483 H 0.48866 0.95879 0.18703 0.0
H484 H 0.51244 0.96617 0.30831 0.0
H485 H 0.5671 0.98839 0.21958 0.0
H486 H 0.45795 0.93431 0.24116 0.0
H487 H 0.46816 0.94553 0.29068 0.0
H488 H 0.46866 0.97881 0.19674 0.0
H489 H 0.41834 0.00316 0.23854 0.0
H490 H 0.44037 0.9599 0.31157 0.0
C491 C 0.50354 0.96591 0.20996 0.0
C492 C 0.52888 0.97673 0.1997 0.0
C493 C 0.49751 0.96376 0.24941 0.0
C494 C 0.51703 0.96929 0.27808 0.0
C495 C 0.54212 0.97728 0.2674 0.0
C496 C 0.54792 0.98218 0.22841 0.0
C497 C 0.46988 0.95196 0.2604 0.0
C498 C 0.45842 0.96947 0.25637 0.0
C499 C 0.45876 0.98069 0.22084 0.0
C500 C 0.44416 0.99247 0.21426 0.0
C501 C 0.42975 0.99411 0.24389 0.0
C502 C 0.42792 0.98211 0.27883 0.0
C503 C 0.44261 0.97016 0.28529 0.0
H504 H 0.47811 0.96578 0.80306 0.0
H505 H 0.45916 0.97547 0.68523 0.0
H506 H 0.43784 0.00597 0.7829 0.0
H507 H 0.47018 0.93345 0.73676 0.0
H508 H 0.4804 0.95142 0.6943 0.0
H509 H 0.50001 0.94664 0.79712 0.0
H510 H 0.57989 0.98853 0.77769 0.0
H511 H 0.52568 0.97943 0.68628 0.0
C512 C 0.4707 0.97383 0.78246 0.0
C513 C 0.45923 0.98738 0.79705 0.0
C514 C 0.47154 0.96995 0.74207 0.0
C515 C 0.45972 0.97925 0.71637 0.0
C516 C 0.44782 0.99266 0.73093 0.0
C517 C 0.44802 0.99682 0.77127 0.0
C518 C 0.48213 0.9533 0.72667 0.0
C519 C 0.50959 0.96317 0.7408 0.0
C520 C 0.51526 0.95821 0.7785 0.0
C521 C 0.54062 0.96844 0.79256 0.0
C522 C 0.56027 0.9815 0.76749 0.0
C523 C 0.55496 0.98464 0.72889 0.0
C524 C 0.52973 0.97649 0.71596 0.0
H525 H 0.04373 0.50973 0.83242 0.0
H526 H 0.00857 0.48624 0.71593 0.0
H527 H 0.98841 0.43029 0.80285 0.0
H528 H 0.06181 0.53847 0.7772 0.0
H529 H 0.0459 0.52925 0.72991 0.0
H530 H 0.03883 0.54748 0.83312 0.0
H531 H 0.00117 0.58838 0.79589 0.0
H532 H 0.01848 0.54576 0.71132 0.0
C533 C 0.03 0.49504 0.81147 0.0
C534 C 0.01577 0.46939 0.82214 0.0
C535 C 0.02689 0.50151 0.7734 0.0
C536 C 0.01021 0.48177 0.74576 0.0
C537 C 0.99626 0.45611 0.75656 0.0
C538 C 0.9987 0.45028 0.79485 0.0
C539 C 0.04268 0.52903 0.76159 0.0
C540 C 0.03002 0.54467 0.77119 0.0
C541 C 0.03025 0.553 0.81009 0.0
C542 C 0.01969 0.56865 0.81926 0.0
C543 C 0.00889 0.57585 0.78924 0.0
C544 C 0.00848 0.56774 0.75052 0.0
C545 C 0.01877 0.55192 0.7414 0.0
H546 H 0.49028 0.49719 0.81936 0.0
H547 H 0.4796 0.46879 0.70009 0.0
H548 H 0.41586 0.44285 0.77272 0.0
H549 H 0.52045 0.48481 0.78205 0.0
H550 H 0.52016 0.48667 0.73087 0.0
H551 H 0.53056 0.52508 0.82595 0.0
H552 H 0.591 0.59371 0.78178 0.0
H553 H 0.54542 0.52688 0.70433 0.0
C554 C 0.47789 0.48755 0.7938 0.0
C555 C 0.45182 0.47172 0.79902 0.0
C556 C 0.48828 0.48653 0.75832 0.0
C557 C 0.47167 0.4711 0.72673 0.0
C558 C 0.44533 0.45522 0.73146 0.0
C559 C 0.4355 0.45678 0.76728 0.0
C560 C 0.51622 0.49437 0.75807 0.0
C561 C 0.53452 0.52312 0.76383 0.0
C562 C 0.54025 0.53563 0.80116 0.0
C563 C 0.56004 0.56133 0.80753 0.0
C564 C 0.57494 0.57426 0.77656 0.0
C565 C 0.57025 0.56164 0.73956 0.0
C566 C 0.54921 0.5366 0.73296 0.0
H567 H 0.70348 0.86307 0.50294 0.0
H568 H 0.71337 0.88137 0.62623 0.0
H569 H 0.66997 0.90415 0.55356 0.0
H570 H 0.74106 0.86827 0.54448 0.0
H571 H 0.73964 0.8678 0.59606 0.0
H572 H 0.70817 0.82809 0.50241 0.0
H573 H 0.69192 0.75733 0.55292 0.0
H574 H 0.72384 0.82765 0.62517 0.0
C575 C 0.69786 0.86919 0.52893 0.0
C576 C 0.68361 0.88158 0.52483 0.0
C577 C 0.70798 0.8682 0.56567 0.0
C578 C 0.70373 0.87999 0.59845 0.0
C579 C 0.69013 0.89323 0.59439 0.0
C580 C 0.67872 0.89235 0.55782 0.0
C581 C 0.72775 0.85992 0.56836 0.0
C582 C 0.71583 0.83093 0.56467 0.0
C583 C 0.70683 0.81758 0.52802 0.0
C584 C 0.69767 0.79091 0.52378 0.0
C585 C 0.69795 0.77773 0.55642 0.0
C586 C 0.70766 0.79091 0.5929 0.0
C587 C 0.71597 0.81738 0.59713 0.0
H588 H 0.18453 0.83646 0.53495 0.0
H589 H 0.19706 0.85925 0.65782 0.0
H590 H 0.22467 0.91646 0.57234 0.0
H591 H 0.18584 0.80763 0.59473 0.0
H592 H 0.17593 0.81438 0.6396 0.0
H593 H 0.157 0.79532 0.53357 0.0
H594 H 0.07712 0.75379 0.55248 0.0
H595 H 0.13089 0.79789 0.64782 0.0
C596 C 0.1908 0.85103 0.55845 0.0
C597 C 0.20358 0.87705 0.54926 0.0
C598 C 0.18716 0.84417 0.59762 0.0
C599 C 0.19816 0.86402 0.62758 0.0
C600 C 0.21161 0.89007 0.61828 0.0
C601 C 0.21358 0.89631 0.57932 0.0
C602 C 0.17474 0.81599 0.60759 0.0
C603 C 0.14719 0.79978 0.59204 0.0
C604 C 0.14165 0.79064 0.55275 0.0
C605 C 0.11638 0.77481 0.53814 0.0
C606 C 0.09652 0.76726 0.56338 0.0
C607 C 0.10149 0.77527 0.60297 0.0
C608 C 0.12689 0.79186 0.61716 0.0
H609 H 0.16034 0.32042 0.52725 0.0
H610 H 0.17471 0.29628 0.63738 0.0
H611 H 0.23614 0.34051 0.56414 0.0
H612 H 0.12867 0.27336 0.5672 0.0
H613 H 0.13211 0.28122 0.61792 0.0
H614 H 0.11973 0.30039 0.52036 0.0
H615 H 0.07337 0.32936 0.56496 0.0
H616 H 0.11046 0.30229 0.64364 0.0
C617 C 0.17312 0.32062 0.54972 0.0
C618 C 0.19911 0.33245 0.54217 0.0
C619 C 0.16389 0.30775 0.5844 0.0
C620 C 0.18149 0.30741 0.61178 0.0
C621 C 0.20753 0.31925 0.60445 0.0
C622 C 0.21617 0.33229 0.57029 0.0
C623 C 0.13545 0.28989 0.58906 0.0
C624 C 0.11908 0.3022 0.58311 0.0
C625 C 0.11316 0.30641 0.54534 0.0
C626 C 0.09793 0.31752 0.53907 0.0
C627 C 0.08627 0.32206 0.5704 0.0
C628 C 0.09015 0.31605 0.60816 0.0
C629 C 0.10726 0.30688 0.61456 0.0
C630 C 0.01483 0.40835 0.10926 0.0
C631 C 0.99719 0.40941 0.08291 0.0
C632 C 0.0219 0.42231 0.14534 0.0
C633 C 0.01173 0.43803 0.15653 0.0
H634 H 0.02352 0.39685 0.10189 0.0
H635 H 0.03595 0.42129 0.16426 0.0
S636 S 0.96422 0.44706 0.09945 0.0
N637 N 0.9692 0.42723 0.07143 0.0
N638 N 0.98258 0.45327 0.13937 0.0
C639 C 0.99382 0.43903 0.13095 0.0
C640 C 0.98649 0.42475 0.09422 0.0
C641 C 0.56864 0.55859 0.11549 0.0
C642 C 0.56702 0.58 0.10312 0.0
C643 C 0.5557 0.54518 0.14771 0.0
C644 C 0.54067 0.55268 0.16853 0.0
H645 H 0.58152 0.55336 0.10216 0.0
H646 H 0.55936 0.53045 0.15845 0.0
S647 S 0.52567 0.60355 0.14361 0.0
N648 N 0.54571 0.60517 0.11086 0.0
N649 N 0.52152 0.57985 0.17126 0.0
C650 C 0.53659 0.57203 0.15395 0.0
C651 C 0.54972 0.58571 0.12122 0.0
C652 C 0.45852 0.02167 0.11545 0.0
C653 C 0.43409 0.01047 0.09644 0.0
C654 C 0.46175 0.01598 0.1537 0.0
C655 C 0.44064 0.99919 0.17444 0.0
H656 H 0.47537 0.03477 0.10061 0.0
H657 H 0.48085 0.02479 0.16718 0.0
S658 S 0.37271 0.96419 0.13827 0.0
N659 N 0.38838 0.98139 0.10172 0.0
N660 N 0.39465 0.97072 0.17324 0.0
C661 C 0.41616 0.9878 0.15594 0.0
C662 C 0.41282 0.99343 0.11704 0.0
C663 C 0.45459 0.01579 0.89345 0.0
C664 C 0.43784 0.99354 0.91265 0.0
C665 C 0.46338 0.01376 0.85713 0.0
C666 C 0.45612 0.98946 0.83918 0.0
H667 H 0.45917 0.03485 0.90472 0.0
H668 H 0.47446 0.03119 0.84177 0.0
S669 S 0.41749 0.92569 0.88105 0.0
N670 N 0.418 0.94671 0.914 0.0
N671 N 0.43465 0.94299 0.84557 0.0
C672 C 0.44197 0.96728 0.86002 0.0
C673 C 0.43284 0.9693 0.89694 0.0
C674 C 0.03857 0.43792 0.89236 0.0
C675 C 0.01814 0.42673 0.91721 0.0
C676 C 0.03941 0.45459 0.86397 0.0
C677 C 0.02002 0.46084 0.8599 0.0
H678 H 0.05293 0.43217 0.8927 0.0
H679 H 0.05408 0.46084 0.84301 0.0
S680 S 0.96582 0.44171 0.92328 0.0
N681 N 0.98081 0.42712 0.9404 0.0
N682 N 0.98203 0.45782 0.88624 0.0
C683 C 0.00099 0.45193 0.88693 0.0
C684 C 1.00013 0.43501 0.91586 0.0
C685 C 0.55209 0.58598 0.90615 0.0
C686 C 0.57674 0.59739 0.92442 0.0
C687 C 0.54689 0.57436 0.86842 0.0
C688 C 0.56617 0.57395 0.84728 0.0
H689 H 0.53652 0.58576 0.92117 0.0
H690 H 0.52764 0.56577 0.85556 0.0
S691 S 0.63379 0.60055 0.88144 0.0
N692 N 0.62067 0.60724 0.91806 0.0
N693 N 0.61068 0.58527 0.8473 0.0
C694 C 0.59088 0.58522 0.86497 0.0
C695 C 0.59621 0.59695 0.90348 0.0
C696 C 0.99951 0.58904 0.91114 0.0
C697 C 0.02234 0.60205 0.93446 0.0
C698 C 0.99864 0.57751 0.87454 0.0
C699 C 0.02059 0.57864 0.85972 0.0
H700 H 0.98212 0.58764 0.92122 0.0
H701 H 0.98066 0.56779 0.85751 0.0
S702 S 0.08539 0.61128 0.9083 0.0
N703 N 0.06763 0.61571 0.9396 0.0
N704 N 0.06591 0.59438 0.87062 0.0
C705 C 0.0435 0.59147 0.88271 0.0
C706 C 0.04441 0.60312 0.92006 0.0
C707 C 0.41021 0.44838 0.88535 0.0
C708 C 0.41929 0.43349 0.90349 0.0
C709 C 0.42189 0.46258 0.85294 0.0
C710 C 0.44341 0.46288 0.8383 0.0
H711 H 0.39295 0.44773 0.89453 0.0
H712 H 0.4133 0.47225 0.83804 0.0
S713 S 0.47605 0.42907 0.87654 0.0
N714 N 0.45226 0.42155 0.90516 0.0
N715 N 0.47417 0.44833 0.84516 0.0
C716 C 0.45369 0.44958 0.85767 0.0
C717 C 0.44167 0.4349 0.89009 0.0
C718 C 0.57378 0.98686 0.89307 0.0
C719 C 0.56333 0.96311 0.91099 0.0
C720 C 0.56583 0.98834 0.85517 0.0
C721 C 0.54719 0.96614 0.83348 0.0
H722 H 0.58821 0.00458 0.90842 0.0
H723 H 0.57445 0.00707 0.84264 0.0
S724 S 0.51414 0.89911 0.86609 0.0
N725 N 0.53328 0.9167 0.90373 0.0
N726 N 0.51871 0.91963 0.83211 0.0
C727 C 0.5364 0.94227 0.8509 0.0
C728 C 0.54441 0.94072 0.88969 0.0
C729 C 0.56793 0.00841 0.11433 0.0
C730 C 0.56162 0.98705 0.08855 0.0
C731 C 0.55551 0.00526 0.14905 0.0
C732 C 0.53611 0.98076 0.15885 0.0
H733 H 0.58408 0.02726 0.10951 0.0
H734 H 0.56233 0.02176 0.16967 0.0
S735 S 0.50836 0.91998 0.09711 0.0
N736 N 0.53153 0.9416 0.07187 0.0
N737 N 0.5084 0.93566 0.13757 0.0
C738 C 0.52764 0.95987 0.13143 0.0
C739 C 0.54039 0.96304 0.09609 0.0
C740 C 0.01763 0.5813 0.10255 0.0
C741 C 0.99503 0.58235 0.09845 0.0
C742 C 0.02095 0.56734 0.13167 0.0
C743 C 0.00179 0.55404 0.15783 0.0
H744 H 0.03338 0.59232 0.08442 0.0
H745 H 0.03943 0.56878 0.13566 0.0
S746 S 0.93746 0.54706 0.15526 0.0
N747 N 0.95189 0.56607 0.11956 0.0
N748 N 0.95824 0.53983 0.17458 0.0
C749 C 0.97822 0.5529 0.1517 0.0
C750 C 0.97477 0.56702 0.12185 0.0
C751 C 0.44429 0.44386 0.09294 0.0
C752 C 0.42414 0.41873 0.08287 0.0
C753 C 0.45066 0.45302 0.13201 0.0
C754 C 0.43747 0.43711 0.16228 0.0
H755 H 0.45511 0.45651 0.07046 0.0
H756 H 0.46601 0.4727 0.13854 0.0
S757 S 0.38508 0.36856 0.15046 0.0
N758 N 0.39183 0.37766 0.10554 0.0
N759 N 0.40467 0.39409 0.17906 0.0
C760 C 0.41766 0.41162 0.15231 0.0
C761 C 0.41079 0.40263 0.11255 0.0
C762 C 0.69366 0.74875 0.43574 0.0
C763 C 0.67592 0.75008 0.40995 0.0
C764 C 0.70048 0.76194 0.47242 0.0
C765 C 0.68999 0.77714 0.48477 0.0
H766 H 0.70236 0.73737 0.42769 0.0
H767 H 0.71435 0.76045 0.49113 0.0
S768 S 0.64283 0.78734 0.42888 0.0
N769 N 0.64805 0.76816 0.39973 0.0
N770 N 0.66095 0.79275 0.46882 0.0
C771 C 0.67234 0.7788 0.45944 0.0
C772 C 0.66526 0.76528 0.42209 0.0
C773 C 0.23868 0.89164 0.45667 0.0
C774 C 0.23639 0.91255 0.44368 0.0
C775 C 0.22572 0.87812 0.48881 0.0
C776 C 0.20997 0.885 0.50894 0.0
H777 H 0.25196 0.88681 0.44376 0.0
H778 H 0.22973 0.8637 0.49989 0.0
S779 S 0.19336 0.9345 0.48247 0.0
N780 N 0.214 0.93672 0.4504 0.0
N781 N 0.18964 0.9111 0.51045 0.0
C782 C 0.20542 0.90393 0.49389 0.0
C783 C 0.21862 0.91776 0.46131 0.0
C784 C 0.11362 0.34779 0.44173 0.0
C785 C 0.08942 0.33919 0.42339 0.0
C786 C 0.11609 0.34045 0.47902 0.0
C787 C 0.09448 0.32449 0.49954 0.0
H788 H 0.13086 0.36009 0.42708 0.0
H789 H 0.13508 0.34752 0.49209 0.0
S790 S 0.0268 0.29641 0.46494 0.0
N791 N 0.0433 0.31359 0.42888 0.0
N792 N 0.04819 0.29988 0.49908 0.0
C793 C 0.07018 0.31573 0.48181 0.0
C794 C 0.06759 0.32303 0.44368 0.0
C795 C 0.1194 0.34845 0.2299 0.0
C796 C 0.10111 0.32613 0.24734 0.0
C797 C 0.13062 0.34648 0.19605 0.0
C798 C 0.12424 0.32218 0.17907 0.0
H799 H 0.12322 0.36748 0.23998 0.0
H800 H 0.14258 0.3639 0.18118 0.0
S801 S 0.08315 0.25843 0.21936 0.0
N802 N 0.08139 0.27937 0.24981 0.0
N803 N 0.10262 0.27577 0.18594 0.0
C804 C 0.10893 0.30001 0.19922 0.0
C805 C 0.09733 0.30197 0.23359 0.0
C806 C 0.66568 0.7603 0.22694 0.0
C807 C 0.68864 0.7614 0.2389 0.0
C808 C 0.66488 0.77534 0.19728 0.0
C809 C 0.68697 0.792 0.17825 0.0
H810 H 0.64783 0.7466 0.23873 0.0
H811 H 0.64649 0.77249 0.18715 0.0
S812 S 0.75256 0.80515 0.20226 0.0
N813 N 0.73467 0.78319 0.23265 0.0
N814 N 0.7329 0.81106 0.17619 0.0
C815 C 0.71042 0.79515 0.19219 0.0
C816 C 0.71131 0.7799 0.22267 0.0
C817 C 0.26316 0.93068 0.24353 0.0
C818 C 0.24256 0.92872 0.26417 0.0
C819 C 0.25956 0.92019 0.20537 0.0
C820 C 0.23521 0.90719 0.18623 0.0
H821 H 0.28234 0.94042 0.25688 0.0
H822 H 0.27595 0.92188 0.19098 0.0
S823 S 0.17489 0.89676 0.22654 0.0
N824 N 0.19679 0.91275 0.26211 0.0
N825 N 0.1902 0.89314 0.19016 0.0
C826 C 0.21443 0.90511 0.20623 0.0
C827 C 0.21807 0.91589 0.24516 0.0
C828 C 0.67395 0.92309 0.23116 0.0
C829 C 0.69764 0.93703 0.25218 0.0
C830 C 0.67182 0.9109 0.19454 0.0
C831 C 0.69328 0.91224 0.1775 0.0
H832 H 0.65688 0.9214 0.24314 0.0
H833 H 0.6532 0.90038 0.17936 0.0
S834 S 0.75994 0.94764 0.21911 0.0
N835 N 0.74325 0.95215 0.25234 0.0
N836 N 0.73907 0.92949 0.18352 0.0
C837 C 0.71706 0.92619 0.19802 0.0
C838 C 0.71928 0.93855 0.23529 0.0
C839 C 0.0892 0.78097 0.22633 0.0
C840 C 0.09359 0.7618 0.24143 0.0
C841 C 0.10268 0.79524 0.19506 0.0
C842 C 0.12143 0.79127 0.17858 0.0
H843 H 0.07415 0.78391 0.23705 0.0
H844 H 0.09758 0.80852 0.18249 0.0
S845 S 0.14187 0.74522 0.20865 0.0
N846 N 0.11932 0.74099 0.2382 0.0
N847 N 0.14484 0.76819 0.18041 0.0
C848 C 0.12723 0.77354 0.19489 0.0
C849 C 0.11329 0.75873 0.22614 0.0
C850 C 0.24875 0.30962 0.23448 0.0
C851 C 0.234 0.31114 0.26395 0.0
C852 C 0.24146 0.30854 0.19517 0.0
C853 C 0.21952 0.30975 0.18379 0.0
H854 H 0.26591 0.30892 0.24189 0.0
H855 H 0.25324 0.30686 0.17353 0.0
S856 S 0.1751 0.31497 0.25079 0.0
N857 N 0.19652 0.31362 0.27992 0.0
N858 N 0.18356 0.31338 0.20607 0.0
C859 C 0.20464 0.31134 0.21332 0.0
C860 C 0.21174 0.31168 0.25339 0.0
C861 C 0.24596 0.36667 0.46562 0.0
C862 C 0.23668 0.34748 0.4351 0.0
C863 C 0.23205 0.36323 0.49894 0.0
C864 C 0.20842 0.34052 0.50269 0.0
H865 H 0.26517 0.38309 0.46566 0.0
H866 H 0.2409 0.37725 0.52338 0.0
S867 S 0.173 0.28823 0.42574 0.0
N868 N 0.20025 0.30817 0.40663 0.0
N869 N 0.17433 0.30106 0.46958 0.0
C870 C 0.19752 0.323 0.47002 0.0
C871 C 0.21167 0.32662 0.43611 0.0
C872 C 0.65799 0.89981 0.43733 0.0
C873 C 0.68004 0.92229 0.42656 0.0
C874 C 0.65917 0.88521 0.46766 0.0
C875 C 0.68254 0.89221 0.48728 0.0
H876 H 0.63947 0.89419 0.42369 0.0
H877 H 0.64165 0.8691 0.47693 0.0
S878 S 0.74577 0.94856 0.4707 0.0
N879 N 0.72595 0.95042 0.43889 0.0
N880 N 0.72809 0.92219 0.49389 0.0
C881 C 0.7048 0.91366 0.47562 0.0
C882 C 0.70359 0.9289 0.44571 0.0
C883 C 0.08407 0.75609 0.43677 0.0
C884 C 0.09605 0.74389 0.41854 0.0
C885 C 0.09116 0.7665 0.47517 0.0
C886 C 0.11037 0.76496 0.49686 0.0
H887 H 0.06918 0.75775 0.42124 0.0
H888 H 0.08147 0.77578 0.48806 0.0
S889 S 0.14655 0.7336 0.46364 0.0
N890 N 0.12763 0.73022 0.42567 0.0
N891 N 0.14049 0.74936 0.49805 0.0
C892 C 0.12242 0.75273 0.47914 0.0
C893 C 0.11536 0.74228 0.43997 0.0
C894 C 0.32665 0.09655 0.77317 0.0
C895 C 0.33666 0.08127 0.75876 0.0
C896 C 0.3353 0.11038 0.80933 0.0
C897 C 0.35401 0.10916 0.83273 0.0
H898 H 0.31227 0.09824 0.75615 0.0
H899 H 0.32727 0.12208 0.81911 0.0
S900 S 0.38661 0.07229 0.80899 0.0
N901 N 0.36649 0.06589 0.77125 0.0
N902 N 0.38264 0.09191 0.83912 0.0
C903 C 0.3641 0.0939 0.819 0.0
C904 C 0.35547 0.07997 0.78205 0.0
C905 C 0.88461 0.24935 0.78883 0.0
C906 C 0.90414 0.24588 0.77384 0.0
C907 C 0.8698 0.23428 0.8184 0.0
C908 C 0.87387 0.21514 0.83397 0.0
H909 H 0.88198 0.26509 0.77995 0.0
H910 H 0.85656 0.23912 0.8315 0.0
S911 S 0.91895 0.19484 0.79981 0.0
N912 N 0.92385 0.21898 0.7726 0.0
N913 N 0.89615 0.19097 0.82868 0.0
C914 C 0.89127 0.2095 0.81636 0.0
C915 C 0.9064 0.22484 0.78616 0.0
C916 C 0.77492 0.67035 0.76758 0.0
C917 C 0.75074 0.66179 0.74916 0.0
C918 C 0.77737 0.66302 0.80491 0.0
C919 C 0.75575 0.64705 0.82542 0.0
H920 H 0.79219 0.6826 0.75295 0.0
H921 H 0.79635 0.66996 0.81791 0.0
S922 S 0.68808 0.61923 0.79083 0.0
N923 N 0.70461 0.63639 0.75478 0.0
N924 N 0.70944 0.6226 0.82492 0.0
C925 C 0.73146 0.63844 0.8077 0.0
C926 C 0.7289 0.64578 0.76956 0.0
C927 C 0.77961 0.66801 0.55776 0.0
C928 C 0.75848 0.64597 0.57137 0.0
C929 C 0.79152 0.66621 0.52462 0.0
C930 C 0.78296 0.64231 0.50436 0.0
H931 H 0.78565 0.68712 0.57058 0.0
H932 H 0.80615 0.68387 0.51295 0.0
S933 S 0.73244 0.57821 0.53274 0.0
N934 N 0.73251 0.59893 0.56581 0.0
N935 N 0.75509 0.59575 0.50325 0.0
C936 C 0.76404 0.6198 0.5202 0.0
C937 C 0.75176 0.62158 0.55393 0.0
C938 C 0.3619 0.11305 0.56699 0.0
C939 C 0.33906 0.09364 0.58173 0.0
C940 C 0.36152 0.12742 0.53578 0.0
C941 C 0.3383 0.12299 0.51847 0.0
H942 H 0.3802 0.11596 0.57772 0.0
H943 H 0.37937 0.1405 0.52317 0.0
S944 S 0.2735 0.07838 0.55045 0.0
N945 N 0.29273 0.07362 0.57958 0.0
N946 N 0.29227 0.10098 0.52162 0.0
C947 C 0.31557 0.10571 0.5354 0.0
C948 C 0.31587 0.09093 0.56687 0.0
C949 C 0.9321 0.27161 0.58063 0.0
C950 C 0.91151 0.26882 0.60214 0.0
C951 C 0.92815 0.26022 0.543 0.0
C952 C 0.90345 0.24546 0.52537 0.0
H953 H 0.9515 0.28247 0.59305 0.0
H954 H 0.94454 0.26239 0.52803 0.0
S955 S 0.84307 0.23296 0.5679 0.0
N956 N 0.86541 0.25068 0.60211 0.0
N957 N 0.85818 0.22941 0.53119 0.0
C958 C 0.88272 0.24289 0.546 0.0
C959 C 0.8867 0.25457 0.58435 0.0
C960 C 0.32905 0.24822 0.58301 0.0
C961 C 0.35298 0.26264 0.60325 0.0
C962 C 0.32675 0.23709 0.54561 0.0
C963 C 0.34829 0.24006 0.52677 0.0
H964 H 0.31189 0.24552 0.59609 0.0
H965 H 0.30793 0.2263 0.53108 0.0
S966 S 0.41538 0.27634 0.56657 0.0
N967 N 0.39874 0.2792 0.60155 0.0
N968 N 0.39434 0.25866 0.53085 0.0
C969 C 0.37229 0.25411 0.54675 0.0
C970 C 0.37466 0.26533 0.58504 0.0
C971 C 0.77693 0.10292 0.56874 0.0
C972 C 0.75238 0.09959 0.57161 0.0
C973 C 0.79256 0.11697 0.53923 0.0
C974 C 0.78416 0.12819 0.51149 0.0
H975 H 0.78361 0.0934 0.58798 0.0
H976 H 0.81041 0.11718 0.53631 0.0
S977 S 0.72362 0.12943 0.51069 0.0
N978 N 0.72193 0.11187 0.54774 0.0
N979 N 0.75151 0.13845 0.49214 0.0
C980 C 0.7608 0.12729 0.51642 0.0
C981 C 0.74487 0.11301 0.54664 0.0
C982 C 0.91212 0.65934 0.56608 0.0
C983 C 0.90177 0.63644 0.58626 0.0
C984 C 0.90443 0.65915 0.52725 0.0
C985 C 0.88616 0.63607 0.50694 0.0
H986 H 0.92623 0.67765 0.58036 0.0
H987 H 0.91285 0.67729 0.51299 0.0
S988 S 0.85401 0.57061 0.5455 0.0
N989 N 0.87255 0.58982 0.58247 0.0
N990 N 0.8585 0.58959 0.50926 0.0
C991 C 0.87565 0.61301 0.52658 0.0
C992 C 0.88338 0.61317 0.56625 0.0
C993 C 0.87771 0.64031 0.76515 0.0
C994 C 0.89863 0.66503 0.75978 0.0
C995 C 0.86253 0.63583 0.7971 0.0
C996 C 0.8679 0.65592 0.82479 0.0
H997 H 0.87404 0.62394 0.74608 0.0
H998 H 0.84801 0.61613 0.80198 0.0
S999 S 0.91728 0.72493 0.82041 0.0
N1000 N 0.9214 0.71056 0.78175 0.0
N1001 N 0.89293 0.70194 0.8421 0.0
C1002 C 0.88696 0.68116 0.81761 0.0
C1003 C 0.90229 0.6858 0.7849 0.0
C1004 C 0.31547 0.23364 0.80099 0.0
C1005 C 0.33226 0.24441 0.77093 0.0
C1006 C 0.32155 0.22277 0.83203 0.0
C1007 C 0.34457 0.2223 0.83387 0.0
H1008 H 0.29866 0.23558 0.80227 0.0
H1009 H 0.3091 0.21644 0.85615 0.0
S1010 S 0.39172 0.24258 0.75717 0.0
N1011 N 0.36995 0.24927 0.74065 0.0
N1012 N 0.38222 0.23006 0.79967 0.0
C1013 C 0.36005 0.23046 0.8017 0.0
C1014 C 0.35369 0.24131 0.77005 0.0
C1015 C 0.74407 0.08648 0.76189 0.0
C1016 C 0.75714 0.0762 0.7417 0.0
C1017 C 0.75098 0.09583 0.80079 0.0
C1018 C 0.7711 0.09512 0.82108 0.0
H1019 H 0.72845 0.08747 0.7475 0.0
H1020 H 0.74047 0.10371 0.81513 0.0
S1021 S 0.8103 0.06852 0.78249 0.0
N1022 N 0.79071 0.0651 0.74546 0.0
N1023 N 0.80323 0.08218 0.81878 0.0
C1024 C 0.78421 0.08472 0.80141 0.0
C1025 C 0.77734 0.07537 0.76171 0.0
C1026 C 0.05864 0.32739 0.03571 0.0
C1027 C 0.06784 0.3445 0.00548 0.0
C1028 C 0.07397 0.31931 0.05469 0.0
C1029 C 0.09931 0.32818 0.04465 0.0
H1030 H 0.03951 0.32042 0.04529 0.0
H1031 H 0.06617 0.30659 0.07844 0.0
S1032 S 0.13233 0.37203 0.96624 0.0
N1033 N 0.10365 0.36896 0.96485 0.0
N1034 N 0.13259 0.35405 0.00145 0.0
C1035 C 0.1085 0.3444 0.01348 0.0
C1036 C 0.09277 0.35255 0.99377 0.0
C1037 C 0.65267 0.72683 0.0173 0.0
C1038 C 0.62616 0.71149 0.02149 0.0
C1039 C 0.66583 0.75333 0.02831 0.0
C1040 C 0.65294 0.76537 0.04367 0.0
H1041 H 0.66376 0.71798 0.00886 0.0
H1042 H 0.68651 0.76373 0.02893 0.0
S1043 S 0.58322 0.73582 0.05182 0.0
N1044 N 0.587 0.71183 0.03494 0.0
N1045 N 0.61212 0.76151 0.05632 0.0
C1046 C 0.62623 0.75121 0.04318 0.0
C1047 C 0.61271 0.72425 0.03182 0.0
C1048 C 0.30311 0.91301 0.01901 0.0
C1049 C 0.31313 0.93943 0.01304 0.0
C1050 C 0.28095 0.89924 0.03936 0.0
C1051 C 0.26785 0.91132 0.05409 0.0
H1052 H 0.31307 0.90315 0.00948 0.0
H1053 H 0.27477 0.87932 0.04523 0.0
S1054 S 0.28393 0.97903 0.04074 0.0
N1055 N 0.30682 0.97648 0.01984 0.0
N1056 N 0.2648 0.95035 0.05737 0.0
C1057 C 0.27676 0.93728 0.04615 0.0
C1058 C 0.29948 0.95139 0.02579 0.0
C1059 C 0.41716 0.10798 0.99353 0.0
C1060 C 0.39932 0.08224 0.00115 0.0
C1061 C 0.40914 0.12425 0.97814 0.0
C1062 C 0.38308 0.11531 0.97012 0.0
H1063 H 0.43745 0.11477 -0.00464 0.0
H1064 H 0.42351 0.14274 0.96831 0.0
S1065 S 0.3288 0.05322 -0.00241 0.0
N1066 N 0.35437 0.05127 0.00949 0.0
N1067 N 0.33953 0.08196 0.97979 0.0
C1068 C 0.36512 0.09137 0.98359 0.0
C1069 C 0.37321 0.0748 -0.0005 0.0
C1070 C 0.93269 0.27428 0.98767 0.0
C1071 C 0.92647 0.29404 0.99029 0.0
C1072 C 0.91381 0.24845 0.97835 0.0
C1073 C 0.8881 0.2415 0.97151 0.0
H1074 H 0.95247 0.27902 0.98908 0.0
H1075 H 0.91977 0.23445 0.97198 0.0
S1076 S 0.86084 0.28432 0.98443 0.0
N1077 N 0.89186 0.30365 0.99322 0.0
N1078 N 0.85675 0.25521 0.97472 0.0
C1079 C 0.88123 0.26031 0.97912 0.0
C1080 C 0.90034 0.28658 0.98873 0.0
C1081 C 0.70867 0.65332 0.99162 0.0
C1082 C 0.69242 0.63037 0.00965 0.0
C1083 C 0.72851 0.6553 0.96938 0.0
C1084 C 0.7327 0.6343 0.96381 0.0
H1085 H 0.70562 0.66968 0.99379 0.0
H1086 H 0.74 0.67308 0.95502 0.0
S1087 S 0.69632 0.57031 0.00644 0.0
N1088 N 0.68286 0.58672 0.0225 0.0
N1089 N 0.71958 0.59016 0.97961 0.0
C1090 C 0.71739 0.61167 0.98326 0.0
C1091 C 0.69737 0.60976 0.00636 0.0
C1092 C 0.89961 0.61767 0.99488 0.0
C1093 C 0.92508 0.63804 -0.00214 0.0
C1094 C 0.88044 0.62053 0.97594 0.0
C1095 C 0.88596 0.64406 0.96001 0.0
H1096 H 0.89467 0.59897 0.00557 0.0
H1097 H 0.86152 0.6037 0.97177 0.0
S1098 S 0.94879 0.70483 0.96745 0.0
N1099 N 0.95434 0.68337 0.98783 0.0
N1100 N 0.9181 0.68923 0.95392 0.0
C1101 C 0.91101 0.66522 0.96586 0.0
C1102 C 0.93063 0.66208 0.98426 0.0
C1103 C 0.36301 0.2884 0.9888 0.0
C1104 C 0.38855 0.30877 0.99159 0.0
C1105 C 0.35691 0.26321 0.97697 0.0
C1106 C 0.37608 0.25758 0.96719 0.0
H1107 H 0.34749 0.29228 0.992 0.0
H1108 H 0.33697 0.24871 0.97138 0.0
S1109 S 0.44599 0.30224 0.98179 0.0
N1110 N 0.43321 0.32008 0.99369 0.0
N1111 N 0.42171 0.2731 0.96967 0.0
C1112 C 0.40167 0.27681 0.97581 0.0
C1113 C 0.40791 0.30238 0.98841 0.0
C1114 C 0.69584 0.06813 0.9654 0.0
C1115 C 0.69749 0.05322 0.9949 0.0
C1116 C 0.71746 0.08536 0.94608 0.0
C1117 C 0.74161 0.0883 0.95526 0.0
H1118 H 0.67759 0.06605 0.95643 0.0
H1119 H 0.71507 0.09574 0.92264 0.0
S1120 S 0.75657 0.0546 0.03123 0.0
N1121 N 0.72566 0.04353 0.03367 0.0
N1122 N 0.76607 0.07547 -0.00334 0.0
C1123 C 0.74378 0.07438 0.98581 0.0
C1124 C 0.72178 0.05692 0.00573 0.0
C1125 C 0.62336 0.90059 0.01879 0.0
C1126 C 0.6351 0.92715 0.01166 0.0
C1127 C 0.63769 0.88981 0.03297 0.0
C1128 C 0.66418 0.90512 0.03988 0.0
H1129 H 0.60276 0.88853 0.01694 0.0
H1130 H 0.62772 0.87013 0.04217 0.0
S1131 S 0.70494 0.97365 0.01723 0.0
N1132 N 0.67556 0.96706 0.00564 0.0
N1133 N 0.70221 0.94656 0.03265 0.0
C1134 C 0.6765 0.93062 0.02818 0.0
C1135 C 0.66201 0.94169 0.01376 0.0
C1136 C 0.09718 0.72516 0.02233 0.0
C1137 C 0.07073 0.71571 0.02279 0.0
C1138 C 0.11486 0.75122 0.03183 0.0
C1139 C 0.10674 0.7688 0.04231 0.0
H1140 H 0.10435 0.71194 0.01817 0.0
H1141 H 0.1348 0.75674 0.03564 0.0
S1142 S 0.04008 0.75565 0.03591 0.0
N1143 N 0.03751 0.72725 0.02546 0.0
N1144 N 0.07095 0.7764 0.04318 0.0
C1145 C 0.0806 0.7605 0.03661 0.0
C1146 C 0.0625 0.73386 0.02697 0.0
C1147 C 0.29 0.33756 0.03498 0.0
C1148 C 0.29562 0.35713 0.00895 0.0
C1149 C 0.26801 0.32744 0.05602 0.0
C1150 C 0.25068 0.33647 0.05221 0.0
H1151 H 0.30276 0.33 0.03949 0.0
H1152 H 0.26466 0.31248 0.07586 0.0
S1153 S 0.25579 0.38687 0.98734 0.0
N1154 N 0.28146 0.38469 0.97963 0.0
N1155 N 0.24005 0.3656 0.01991 0.0
C1156 C 0.25554 0.35552 0.02566 0.0
C1157 C 0.27805 0.3659 0.00394 0.0
C1158 C 0.73711 0.6511 0.32266 0.0
C1159 C 0.73749 0.6744 0.33217 0.0
C1160 C 0.75422 0.64503 0.34145 0.0
C1161 C 0.77251 0.66222 0.37002 0.0
H1162 H 0.72269 0.63686 0.30196 0.0
H1163 H 0.75206 0.62612 0.33533 0.0
S1164 S 0.78448 0.72766 0.40029 0.0
N1165 N 0.75975 0.71603 0.3686 0.0
N1166 N 0.79218 0.70487 0.40311 0.0
C1167 C 0.77438 0.68642 0.37743 0.0
C1168 C 0.75678 0.69243 0.3588 0.0
C1169 C 0.27656 0.05353 0.36749 0.0
C1170 C 0.29203 0.04275 0.3587 0.0
C1171 C 0.28737 0.07983 0.37866 0.0
C1172 C 0.31394 0.09636 0.38075 0.0
H1173 H 0.25615 0.04123 0.36958 0.0
H1174 H 0.27509 0.08664 0.3898 0.0
S1175 S 0.36238 0.07966 0.35106 0.0
N1176 N 0.33502 0.05208 0.34531 0.0
N1177 N 0.3551 0.10152 0.36648 0.0
C1178 C 0.32928 0.08676 0.3668 0.0
C1179 C 0.31837 0.05991 0.35569 0.0
C1180 C 0.9673 0.24613 0.35538 0.0
C1181 C 0.97523 0.2715 0.345 0.0
C1182 C 0.94642 0.23296 0.37843 0.0
C1183 C 0.9326 0.24459 0.39174 0.0
H1184 H 0.97792 0.23673 0.34717 0.0
H1185 H 0.94186 0.21399 0.38742 0.0
S1186 S 0.94322 0.30916 0.36809 0.0
N1187 N 0.96602 0.3068 0.34656 0.0
N1188 N 0.92653 0.28174 0.38963 0.0
C1189 C 0.93936 0.26932 0.37973 0.0
C1190 C 0.96071 0.28283 0.35636 0.0
C1191 C 0.0759 0.43967 0.31846 0.0
C1192 C 0.0582 0.4141 0.32709 0.0
C1193 C 0.06767 0.45551 0.30207 0.0
C1194 C 0.04155 0.44629 0.29411 0.0
H1195 H 0.09621 0.44655 0.32015 0.0
H1196 H 0.08189 0.47381 0.29149 0.0
S1197 S 0.98766 0.38475 0.32402 0.0
N1198 N 0.01339 0.38321 0.33647 0.0
N1199 N 0.99814 0.41305 0.30481 0.0
C1200 C 0.02376 0.42264 0.30853 0.0
C1201 C 0.03206 0.40653 0.32548 0.0
C1202 C 0.57873 0.62614 0.32262 0.0
C1203 C 0.60461 0.63272 0.32335 0.0
C1204 C 0.55902 0.6007 0.31354 0.0
C1205 C 0.56442 0.58083 0.30545 0.0
H1206 H 0.57365 0.64108 0.32556 0.0
H1207 H 0.53973 0.59711 0.30874 0.0
S1208 S 0.62806 0.58627 0.31206 0.0
N1209 N 0.63398 0.61606 0.32193 0.0
N1210 N 0.59675 0.56828 0.30488 0.0
C1211 C 0.58974 0.58637 0.31115 0.0
C1212 C 0.60992 0.61233 0.32017 0.0
C1213 C 0.36322 0.96832 0.31041 0.0
C1214 C 0.36755 0.97617 0.35021 0.0
C1215 C 0.38269 0.9695 0.28831 0.0
C1216 C 0.40749 0.97885 0.30481 0.0
H1217 H 0.34459 0.96118 0.29596 0.0
H1218 H 0.37832 0.9633 0.25772 0.0
S1219 S 0.42897 0.00121 0.40782 0.0
N1220 N 0.3985 0.99291 0.40563 0.0
N1221 N 0.43533 0.99549 0.36344 0.0
C1222 C 0.41209 0.98616 0.34471 0.0
C1223 C 0.3921 0.98481 0.36752 0.0
C1224 C 0.60749 0.99428 0.30972 0.0
C1225 C 0.60233 0.97236 0.33009 0.0
C1226 C 0.58766 0.99694 0.29274 0.0
C1227 C 0.56187 0.97744 0.29453 0.0
H1228 H 0.62703 0.00935 0.30637 0.0
H1229 H 0.59264 0.01387 0.27642 0.0
S1230 S 0.53829 0.91669 0.34617 0.0
N1231 N 0.56964 0.9316 0.35348 0.0
N1232 N 0.5324 0.93589 0.31988 0.0
C1233 C 0.55645 0.95595 0.31639 0.0
C1234 C 0.57667 0.95353 0.33442 0.0
C1235 C 0.05896 0.62205 0.32142 0.0
C1236 C 0.04163 0.6312 0.32322 0.0
C1237 C 0.05101 0.59679 0.30753 0.0
C1238 C 0.02535 0.57963 0.29538 0.0
H1239 H 0.07927 0.63518 0.32676 0.0
H1240 H 0.06566 0.59194 0.30198 0.0
S1241 S 0.97114 0.591 0.30867 0.0
N1242 N 0.99674 0.61904 0.32191 0.0
N1243 N 0.98171 0.57112 0.29698 0.0
C1244 C 0.00725 0.58705 0.30403 0.0
C1245 C 0.0154 0.61299 0.31769 0.0
C1246 C 0.37978 0.43242 0.33976 0.0
C1247 C 0.36607 0.4051 0.3373 0.0
C1248 C 0.40224 0.44645 0.31971 0.0
C1249 C 0.41178 0.43355 0.29706 0.0
H1250 H 0.37263 0.44304 0.35611 0.0
H1251 H 0.41156 0.46737 0.32064 0.0
S1252 S 0.38515 0.36263 0.28492 0.0
N1253 N 0.36521 0.36596 0.31292 0.0
N1254 N 0.40735 0.39229 0.27592 0.0
C1255 C 0.39907 0.40639 0.29612 0.0
C1256 C 0.37622 0.39216 0.31603 0.0
C1257 C 0.27757 0.24055 0.38358 0.0
C1258 C 0.29189 0.26569 0.3701 0.0
C1259 C 0.28936 0.2266 0.39499 0.0
C1260 C 0.31577 0.23704 0.39268 0.0
H1261 H 0.25747 0.23239 0.38856 0.0
H1262 H 0.27816 0.2086 0.409 0.0
S1263 S 0.36107 0.29922 0.35183 0.0
N1264 N 0.33339 0.29837 0.34907 0.0
N1265 N 0.35534 0.27193 0.37082 0.0
C1266 C 0.3298 0.26063 0.37513 0.0
C1267 C 0.31789 0.27501 0.36367 0.0
C1268 C 0.73879 0.06884 0.35123 0.0
C1269 C 0.74829 0.05217 0.34268 0.0
C1270 C 0.75522 0.09435 0.36593 0.0
C1271 C 0.78154 0.10376 0.37348 0.0
H1272 H 0.7184 0.06147 0.35066 0.0
H1273 H 0.74682 0.10573 0.37556 0.0
S1274 S 0.81645 0.07021 0.34272 0.0
N1275 N 0.78614 0.04911 0.3315 0.0
N1276 N 0.81682 0.09611 0.36165 0.0
C1277 C 0.79159 0.08858 0.35874 0.0
C1278 C 0.77494 0.06293 0.34279 0.0
C1279 C 0.95893 0.69156 0.36378 0.0
C1280 C 0.95994 0.6759 0.33326 0.0
C1281 C 0.9365 0.68381 0.38334 0.0
C1282 C 0.91424 0.66004 0.3733 0.0
H1283 H 0.97579 0.70966 0.37342 0.0
H1284 H 0.93688 0.69602 0.40765 0.0
S1285 S 0.90634 0.61245 0.29439 0.0
N1286 N 0.9362 0.63606 0.29254 0.0
N1287 N 0.89419 0.62136 0.32994 0.0
C1288 C 0.91456 0.64476 0.34166 0.0
C1289 C 0.93739 0.6527 0.32153 0.0
C1290 C 0.39427 0.98564 0.66236 0.0
C1291 C 0.39472 0.00921 0.66964 0.0
C1292 C 0.41269 0.98101 0.68009 0.0
C1293 C 0.43237 -0.00013 0.70542 0.0
H1294 H 0.37894 0.97021 0.64421 0.0
H1295 H 0.41067 0.96203 0.67563 0.0
S1296 S 0.44457 0.06624 0.72907 0.0
N1297 N 0.41819 0.05261 0.70062 0.0
N1298 N 0.45299 0.04405 0.73311 0.0
C1299 C 0.43405 0.02412 0.71071 0.0
C1300 C 0.41518 0.02874 0.6931 0.0
C1301 C 0.98247 0.39699 0.69791 0.0
C1302 C 0.95657 0.38033 0.70504 0.0
C1303 C 0.99478 0.4234 0.70937 0.0
C1304 C 0.98161 0.434 0.72826 0.0
H1305 H 0.99394 0.38926 0.68657 0.0
H1306 H 0.0153 0.43487 0.70743 0.0
S1307 S 0.91265 0.40055 0.74561 0.0
N1308 N 0.9172 0.3778 0.72551 0.0
N1309 N 0.94077 0.42733 0.7477 0.0
C1310 C 0.95518 0.41847 0.73097 0.0
C1311 C 0.94251 0.39162 0.71912 0.0
C1312 C 0.62105 0.61214 0.67978 0.0
C1313 C 0.63253 0.59884 0.66339 0.0
C1314 C 0.59988 0.5996 0.70255 0.0
C1315 C 0.58953 0.57334 0.70995 0.0
H1316 H 0.62889 0.63261 0.67587 0.0
H1317 H 0.59208 0.61073 0.71553 0.0
S1318 S 0.61234 0.52971 0.67333 0.0
N1319 N 0.63147 0.55776 0.65499 0.0
N1320 N 0.59214 0.53433 0.6987 0.0
C1321 C 0.60026 0.55957 0.69259 0.0
C1322 C 0.62166 0.5723 0.66907 0.0
C1323 C 0.7002 0.73516 0.64813 0.0
C1324 C 0.72589 0.74152 0.6538 0.0
C1325 C 0.69398 0.75282 0.63294 0.0
C1326 C 0.7132 0.77749 0.62361 0.0
H1327 H 0.68478 0.7156 0.65132 0.0
H1328 H 0.67418 0.74626 0.62471 0.0
S1329 S 0.78278 0.80637 0.64479 0.0
N1330 N 0.77028 0.77631 0.65807 0.0
N1331 N 0.75844 0.80942 0.62918 0.0
C1332 C 0.73862 0.78548 0.63513 0.0
C1333 C 0.74501 0.76747 0.65045 0.0
C1334 C 0.23719 0.95573 0.66541 0.0
C1335 C 0.26358 0.96431 0.66866 0.0
C1336 C 0.21921 0.9299 0.65457 0.0
C1337 C 0.22686 0.91162 0.64733 0.0
H1338 H 0.23049 0.96944 0.66754 0.0
H1339 H 0.19962 0.92484 0.64779 0.0
S1340 S 0.29235 0.92226 0.66097 0.0
N1341 N 0.2956 0.95101 0.67093 0.0
N1342 N 0.26157 0.90248 0.65057 0.0
C1343 C 0.25251 0.91902 0.65568 0.0
C1344 C 0.27095 0.94538 0.66643 0.0
C1345 C 0.03926 0.29062 0.68199 0.0
C1346 C 0.0324 0.30989 0.6847 0.0
C1347 C 0.05935 0.29361 0.65941 0.0
C1348 C 0.07352 0.31609 0.63904 0.0
H1349 H 0.02815 0.27247 0.69564 0.0
H1350 H 0.06274 0.27751 0.65598 0.0
S1351 S 0.06654 0.37433 0.64287 0.0
N1352 N 0.04354 0.3536 0.66929 0.0
N1353 N 0.08175 0.35946 0.62772 0.0
C1354 C 0.06824 0.33636 0.64418 0.0
C1355 C 0.04757 0.3332 0.66675 0.0
C1356 C 0.25756 0.30153 0.63151 0.0
C1357 C 0.26297 0.30868 0.6715 0.0
C1358 C 0.23915 0.30445 0.61059 0.0
C1359 C 0.22538 0.31472 0.62867 0.0
H1360 H 0.26775 0.29376 0.61596 0.0
H1361 H 0.23579 0.29881 0.57977 0.0
S1362 S 0.23148 0.33585 0.7327 0.0
N1363 N 0.25238 0.32594 0.72868 0.0
N1364 N 0.21776 0.33152 0.68876 0.0
C1365 C 0.23001 0.3214 0.6687 0.0
C1366 C 0.24884 0.31842 0.69023 0.0
C1367 C 0.72765 0.95954 0.64152 0.0
C1368 C 0.70909 0.96712 0.6429 0.0
C1369 C 0.72086 0.93396 0.63143 0.0
C1370 C 0.69523 0.91498 0.62234 0.0
H1371 H 0.74779 0.97384 0.64481 0.0
H1372 H 0.73609 0.92989 0.62632 0.0
S1373 S 0.63886 0.92292 0.63355 0.0
N1374 N 0.66356 0.95222 0.6433 0.0
N1375 N 0.65093 0.90402 0.62438 0.0
C1376 C 0.6763 0.92139 0.6296 0.0
C1377 C 0.68319 0.94753 0.63982 0.0
C1378 C 0.0595 0.73285 0.67988 0.0
C1379 C 0.03544 0.72957 0.66874 0.0
C1380 C 0.08139 0.74937 0.6604 0.0
C1381 C 0.08003 0.76334 0.62927 0.0
H1382 H 0.06129 0.72165 0.70258 0.0
H1383 H 0.09915 0.74998 0.66822 0.0
S1384 S 0.02264 0.76505 0.59307 0.0
N1385 N 0.01226 0.74408 0.6275 0.0
N1386 N 0.05346 0.77535 0.59139 0.0
C1387 C 0.0565 0.7617 0.61977 0.0
C1388 C 0.03419 0.74474 0.63932 0.0
C1389 C 0.95774 0.57471 0.69841 0.0
C1390 C 0.97068 0.60149 0.69254 0.0
C1391 C 0.97082 0.56261 0.71254 0.0
C1392 C 0.99727 0.57678 0.72072 0.0
H1393 H 0.93709 0.56342 0.69542 0.0
H1394 H 0.95989 0.54274 0.72069 0.0
S1395 S 0.04094 0.64555 0.70228 0.0
N1396 N 0.01225 0.64053 0.68955 0.0
N1397 N 0.03657 0.61756 0.7164 0.0
C1398 C 0.01083 0.60259 0.71047 0.0
C1399 C 0.99759 0.61501 0.69611 0.0
C1400 C 0.42489 0.38851 0.69109 0.0
C1401 C 0.3981 0.37677 0.68993 0.0
C1402 C 0.44055 0.41512 0.69919 0.0
C1403 C 0.43005 0.43111 0.70628 0.0
H1404 H 0.43392 0.37682 0.68916 0.0
H1405 H 0.46083 0.42251 0.7042 0.0
S1406 S 0.36154 0.41135 0.69472 0.0
N1407 N 0.36199 0.3841 0.68782 0.0
N1408 N 0.39166 0.43437 0.70251 0.0
C1409 C 0.40356 0.42029 0.69924 0.0
C1410 C 0.3875 0.39304 0.69121 0.0
C1411 C 0.60806 0.0305 0.6671 0.0
C1412 C 0.62308 0.01863 0.6646 0.0
C1413 C 0.58495 0.01876 0.686 0.0
C1414 C 0.57617 0.99473 0.7024 0.0
H1415 H 0.61472 0.04942 0.65588 0.0
H1416 H 0.57454 0.02901 0.68939 0.0
S1417 S 0.6062 0.95387 0.69817 0.0
N1418 N 0.62596 0.98022 0.67636 0.0
N1419 N 0.58255 0.9582 0.71125 0.0
C1420 C 0.59015 0.98198 0.69776 0.0
C1421 C 0.61363 0.99393 0.67904 0.0
loop_
_geom_bond_atom_site_label_1
_geom_bond_atom_site_label_2
_geom_bond_distance
_geom_bond_site_symmetry_2
_ccdc_geom_bond_type
Mg0 O1 2.028 1_556 S
Mg0 O7 1.986 1_455 S
Mg0 O9 2.114 . S
Mg0 O10 2.251 1_455 S
Mg0 O13 2.010 1_556 S
O1 Mg0 2.028 1_554 S
O1 C4 1.250 1_455 S
O2 Mg3 2.028 1_554 S
O2 C4 1.248 . S
Mg3 O2 2.028 1_556 S
Mg3 O8 2.032 . S
Mg3 O10 2.079 . S
C4 O1 1.250 1_655 S
C4 O2 1.248 . S
C5 O6 1.264 1_554 S
C5 O13 1.249 . S
O6 C5 1.264 1_556 S
O7 Mg0 1.986 1_655 S
O7 C11 1.246 . S
O8 Mg3 2.032 . S
O8 C11 1.259 . S
O9 Mg0 2.114 . S
O9 C12 1.252 . S
O10 Mg0 2.251 1_655 S
O10 Mg3 2.079 . S
O10 C12 1.273 1_655 S
C11 O7 1.246 . S
C11 O8 1.259 . S
C12 O9 1.252 . S
C12 O10 1.273 1_455 S
O13 Mg0 2.010 1_554 S
O13 C5 1.249 . S
Mg14 O15 2.028 1_554 S
Mg14 O21 1.986 . S
Mg14 O23 2.114 . S
Mg14 O24 2.251 . S
Mg14 O27 2.010 . S
O15 Mg14 2.028 1_556 S
O15 C18 1.250 . S
O16 Mg17 2.028 1_556 S
O16 C18 1.248 . S
Mg17 O16 2.028 1_554 S
Mg17 O22 2.032 . S
Mg17 O24 2.079 . S
C18 O15 1.250 . S
C18 O16 1.248 . S
C19 O20 1.264 . S
C19 O27 1.249 . S
O20 C19 1.264 . S
O21 Mg14 1.986 . S
O21 C25 1.246 . S
O22 Mg17 2.032 . S
O22 C25 1.259 . S
O23 Mg14 2.114 . S
O23 C26 1.252 . S
O24 Mg14 2.251 . S
O24 Mg17 2.079 . S
O24 C26 1.273 . S
C25 O21 1.246 . S
C25 O22 1.259 . S
C26 O23 1.252 . S
C26 O24 1.273 . S
O27 Mg14 2.010 . S
O27 C19 1.249 . S
Mg28 O29 2.022 1_556 S
Mg28 O35 1.986 1_565 S
Mg28 O37 2.114 . S
Mg28 O38 2.251 1_565 S
Mg28 O41 2.010 1_556 S
O29 Mg28 2.022 1_554 S
O29 C32 1.244 1_565 S
O30 Mg31 2.028 1_554 S
O30 C32 1.248 . S
Mg31 O30 2.028 1_556 S
Mg31 O36 2.032 . S
Mg31 O38 2.079 . S
C32 O29 1.244 1_545 S
C32 O30 1.248 . S
C33 O34 1.264 1_554 S
C33 O41 1.249 . S
O34 C33 1.264 1_556 S
O35 Mg28 1.986 1_545 S
O35 C39 1.246 . S
O36 Mg31 2.032 . S
O36 C39 1.259 . S
O37 Mg28 2.114 . S
O37 C40 1.252 . S
O38 Mg28 2.251 1_545 S
O38 Mg31 2.079 . S
O38 C40 1.273 1_545 S
C39 O35 1.246 . S
C39 O36 1.259 . S
C40 O37 1.252 . S
C40 O38 1.273 1_565 S
O41 Mg28 2.010 1_554 S
O41 C33 1.249 . S
Mg42 O43 2.028 1_554 S
Mg42 O49 1.986 1_655 S
Mg42 O51 2.114 . S
Mg42 O52 2.251 1_655 S
Mg42 O55 2.010 . S
O43 Mg42 2.028 1_556 S
O43 C46 1.250 1_655 S
O44 Mg45 2.028 1_556 S
O44 C46 1.248 . S
Mg45 O44 2.028 1_554 S
Mg45 O50 2.032 . S
Mg45 O52 2.079 . S
C46 O43 1.250 1_455 S
C46 O44 1.248 . S
C47 O48 1.280 . S
C47 O55 1.257 . S
O48 C47 1.280 . S
O49 Mg42 1.986 1_455 S
O49 C53 1.246 . S
O50 Mg45 2.032 . S
O50 C53 1.259 . S
O51 Mg42 2.114 . S
O51 C54 1.252 . S
O52 Mg42 2.251 1_455 S
O52 Mg45 2.079 . S
O52 C54 1.273 1_455 S
C53 O49 1.246 . S
C53 O50 1.259 . S
C54 O51 1.252 . S
C54 O52 1.273 1_655 S
O55 Mg42 2.010 . S
O55 C47 1.257 . S
Mg56 O57 2.028 1_556 S
Mg56 O63 1.986 . S
Mg56 O65 2.114 . S
Mg56 O66 2.251 . S
Mg56 O69 2.010 1_556 S
O57 Mg56 2.028 1_554 S
O57 C60 1.250 . S
O58 Mg59 2.028 1_554 S
O58 C60 1.248 . S
Mg59 O58 2.028 1_556 S
Mg59 O64 2.032 . S
Mg59 O66 2.079 . S
C60 O57 1.250 . S
C60 O58 1.248 . S
C61 O62 1.264 1_554 S
C61 O69 1.249 . S
O62 C61 1.264 1_556 S
O63 Mg56 1.986 . S
O63 C67 1.246 . S
O64 Mg59 2.032 . S
O64 C67 1.259 . S
O65 Mg56 2.114 . S
O65 C68 1.252 . S
O66 Mg56 2.251 . S
O66 Mg59 2.079 . S
O66 C68 1.273 . S
C67 O63 1.246 . S
C67 O64 1.259 . S
C68 O65 1.252 . S
C68 O66 1.273 . S
O69 Mg56 2.010 1_554 S
O69 C61 1.249 . S
Mg70 O71 2.028 1_554 S
Mg70 O77 1.986 1_545 S
Mg70 O79 2.114 . S
Mg70 O80 2.251 1_545 S
Mg70 O83 2.010 . S
O71 Mg70 2.028 1_556 S
O71 C74 1.250 1_545 S
O72 Mg73 2.028 1_556 S
O72 C74 1.248 . S
Mg73 O72 2.028 1_554 S
Mg73 O78 2.032 . S
Mg73 O80 2.079 . S
C74 O71 1.250 1_565 S
C74 O72 1.248 . S
C75 O76 1.264 . S
C75 O83 1.249 . S
O76 C75 1.264 . S
O77 Mg70 1.986 1_565 S
O77 C81 1.246 . S
O78 Mg73 2.032 . S
O78 C81 1.259 . S
O79 Mg70 2.114 . S
O79 C82 1.252 . S
O80 Mg70 2.251 1_565 S
O80 Mg73 2.079 . S
O80 C82 1.273 1_565 S
C81 O77 1.246 . S
C81 O78 1.259 . S
C82 O79 1.252 . S
C82 O80 1.273 1_545 S
O83 Mg70 2.010 . S
O83 C75 1.249 . S
Mg84 O85 2.028 . S
Mg84 O91 1.986 . S
Mg84 O93 2.114 . S
Mg84 O94 2.251 . S
Mg84 O97 2.010 . S
O85 Mg84 2.028 . S
O85 C88 1.250 . S
O86 Mg87 2.028 . S
O86 C88 1.248 . S
Mg87 O86 2.028 . S
Mg87 O92 2.032 . S
Mg87 O94 2.079 . S
C88 O85 1.250 . S
C88 O86 1.248 . S
C89 O90 1.264 . S
C89 O97 1.249 . S
O90 C89 1.264 . S
O91 Mg84 1.986 . S
O91 C95 1.246 . S
O92 Mg87 2.032 . S
O92 C95 1.259 . S
O93 Mg84 2.114 . S
O93 C96 1.252 . S
O94 Mg84 2.251 . S
O94 Mg87 2.079 . S
O94 C96 1.273 . S
C95 O91 1.246 . S
C95 O92 1.259 . S
C96 O93 1.252 . S
C96 O94 1.273 . S
O97 Mg84 2.010 . S
O97 C89 1.249 . S
Mg98 O99 2.028 . S
Mg98 O105 1.986 1_565 S
Mg98 O107 2.114 . S
Mg98 O108 2.251 . S
Mg98 O111 2.010 . S
O99 Mg98 2.028 . S
O99 C102 1.250 . S
O100 Mg101 2.028 . S
O100 C102 1.248 . S
Mg101 O100 2.028 . S
Mg101 O106 2.032 1_565 S
Mg101 O108 2.079 . S
C102 O99 1.250 . S
C102 O100 1.248 . S
C103 O104 1.264 . S
C103 O111 1.249 . S
O104 C103 1.264 . S
O105 Mg98 1.986 1_545 S
O105 C109 1.246 . S
O106 Mg101 2.032 1_545 S
O106 C109 1.259 . S
O107 Mg98 2.114 . S
O107 C110 1.252 . S
O108 Mg98 2.251 . S
O108 Mg101 2.079 . S
O108 C110 1.273 . S
C109 O105 1.246 . S
C109 O106 1.259 . S
C110 O107 1.252 . S
C110 O108 1.273 . S
O111 Mg98 2.010 . S
O111 C103 1.249 . S
Mg112 O113 2.028 . S
Mg112 O119 1.986 . S
Mg112 O121 2.114 . S
Mg112 O122 2.251 . S
Mg112 O125 2.010 1_455 S
O113 Mg112 2.028 . S
O113 C116 1.250 . S
O114 Mg115 2.028 . S
O114 C116 1.248 . S
Mg115 O114 2.028 . S
Mg115 O120 2.032 . S
Mg115 O122 2.079 . S
C116 O113 1.250 . S
C116 O114 1.248 . S
C117 O118 1.264 . S
C117 O125 1.249 . S
O118 C117 1.264 . S
O119 Mg112 1.986 . S
O119 C123 1.246 . S
O120 Mg115 2.032 . S
O120 C123 1.259 . S
O121 Mg112 2.114 . S
O121 C124 1.252 . S
O122 Mg112 2.251 . S
O122 Mg115 2.079 . S
O122 C124 1.273 . S
C123 O119 1.246 . S
C123 O120 1.259 . S
C124 O121 1.252 . S
C124 O122 1.273 . S
O125 Mg112 2.010 1_655 S
O125 C117 1.249 . S
Mg126 O127 2.028 . S
Mg126 O133 1.986 1_565 S
Mg126 O135 2.114 . S
Mg126 O136 2.251 . S
Mg126 O139 2.010 . S
O127 Mg126 2.028 . S
O127 C130 1.250 . S
O128 Mg129 2.028 . S
O128 C130 1.248 . S
Mg129 O128 2.028 . S
Mg129 O134 2.032 1_565 S
Mg129 O136 2.079 . S
C130 O127 1.250 . S
C130 O128 1.248 . S
C131 O132 1.264 . S
C131 O139 1.249 . S
O132 C131 1.264 . S
O133 Mg126 1.986 1_545 S
O133 C137 1.246 . S
O134 Mg129 2.032 1_545 S
O134 C137 1.259 . S
O135 Mg126 2.114 . S
O135 C138 1.252 . S
O136 Mg126 2.251 . S
O136 Mg129 2.079 . S
O136 C138 1.273 . S
C137 O133 1.246 . S
C137 O134 1.259 . S
C138 O135 1.252 . S
C138 O136 1.273 . S
O139 Mg126 2.010 . S
O139 C131 1.249 . S
Mg140 O141 2.028 . S
Mg140 O147 1.986 . S
Mg140 O149 2.114 . S
Mg140 O150 2.251 . S
Mg140 O153 2.010 1_455 S
O141 Mg140 2.028 . S
O141 C144 1.250 . S
O142 Mg143 2.028 . S
O142 C144 1.248 . S
Mg143 O142 2.028 . S
Mg143 O148 2.032 . S
Mg143 O150 2.079 . S
C144 O141 1.250 . S
C144 O142 1.248 . S
C145 O146 1.264 . S
C145 O153 1.249 . S
O146 C145 1.264 . S
O147 Mg140 1.986 . S
O147 C151 1.246 . S
O148 Mg143 2.032 . S
O148 C151 1.259 . S
O149 Mg140 2.114 . S
O149 C152 1.252 . S
O150 Mg140 2.251 . S
O150 Mg143 2.079 . S
O150 C152 1.273 . S
C151 O147 1.246 . S
C151 O148 1.259 . S
C152 O149 1.252 . S
C152 O150 1.273 . S
O153 Mg140 2.010 1_655 S
O153 C145 1.249 . S
Mg154 O155 2.028 . S
Mg154 O161 1.986 . S
Mg154 O163 2.114 . S
Mg154 O164 2.251 . S
Mg154 O167 2.010 . S
O155 Mg154 2.028 . S
O155 C158 1.250 . S
O156 Mg157 2.028 . S
O156 C158 1.248 . S
Mg157 O156 2.028 . S
Mg157 O162 2.032 . S
Mg157 O164 2.079 . S
C158 O155 1.250 . S
C158 O156 1.248 . S
C159 O160 1.264 . S
C159 O167 1.249 . S
O160 C159 1.264 . S
O161 Mg154 1.986 . S
O161 C165 1.246 . S
O162 Mg157 2.032 . S
O162 C165 1.259 . S
O163 Mg154 2.114 . S
O163 C166 1.252 . S
O164 Mg154 2.251 . S
O164 Mg157 2.079 . S
O164 C166 1.273 . S
C165 O161 1.246 . S
C165 O162 1.259 . S
C166 O163 1.252 . S
C166 O164 1.273 . S
O167 Mg154 2.010 . S
O167 C159 1.249 . S
Mg168 O169 2.028 . S
Mg168 O175 1.986 1_545 S
Mg168 O177 2.114 . S
Mg168 O178 2.251 . S
Mg168 O181 2.010 . S
O169 Mg168 2.028 . S
O169 C172 1.250 . S
O170 Mg171 2.028 . S
O170 C172 1.248 . S
Mg171 O170 2.028 . S
Mg171 O176 2.032 1_545 S
Mg171 O178 2.079 . S
C172 O169 1.250 . S
C172 O170 1.248 . S
C173 O174 1.264 . S
C173 O181 1.249 . S
O174 C173 1.264 . S
O175 Mg168 1.986 1_565 S
O175 C179 1.246 . S
O176 Mg171 2.032 1_565 S
O176 C179 1.259 . S
O177 Mg168 2.114 . S
O177 C180 1.252 . S
O178 Mg168 2.251 . S
O178 Mg171 2.079 . S
O178 C180 1.273 . S
C179 O175 1.246 . S
C179 O176 1.259 . S
C180 O177 1.252 . S
C180 O178 1.273 . S
O181 Mg168 2.010 . S
O181 C173 1.249 . S
Mg182 O183 2.028 . S
Mg182 O189 1.986 . S
Mg182 O191 2.114 . S
Mg182 O192 2.251 . S
Mg182 O195 2.010 1_655 S
O183 Mg182 2.028 . S
O183 C186 1.250 . S
O184 Mg185 2.028 . S
O184 C186 1.248 . S
Mg185 O184 2.028 . S
Mg185 O190 2.032 . S
Mg185 O192 2.079 . S
C186 O183 1.250 . S
C186 O184 1.248 . S
C187 O188 1.264 . S
C187 O195 1.249 . S
O188 C187 1.264 . S
O189 Mg182 1.986 . S
O189 C193 1.246 . S
O190 Mg185 2.032 . S
O190 C193 1.259 . S
O191 Mg182 2.114 . S
O191 C194 1.252 . S
O192 Mg182 2.251 . S
O192 Mg185 2.079 . S
O192 C194 1.273 . S
C193 O189 1.246 . S
C193 O190 1.259 . S
C194 O191 1.252 . S
C194 O192 1.273 . S
O195 Mg182 2.010 1_455 S
O195 C187 1.249 . S
Mg196 O197 2.028 . S
Mg196 O203 1.986 . S
Mg196 O205 2.114 . S
Mg196 O206 2.251 . S
Mg196 O209 2.010 . S
O197 Mg196 2.028 . S
O197 C200 1.250 . S
O198 Mg199 2.028 . S
O198 C200 1.248 . S
Mg199 O198 2.028 . S
Mg199 O204 2.032 . S
Mg199 O206 2.079 . S
C200 O197 1.250 . S
C200 O198 1.248 . S
C201 O202 1.264 . S
C201 O209 1.249 . S
O202 C201 1.264 . S
O203 Mg196 1.986 . S
O203 C207 1.246 . S
O204 Mg199 2.032 . S
O204 C207 1.259 . S
O205 Mg196 2.114 . S
O205 C208 1.252 . S
O206 Mg196 2.251 . S
O206 Mg199 2.079 . S
O206 C208 1.273 . S
C207 O203 1.246 . S
C207 O204 1.259 . S
C208 O205 1.252 . S
C208 O206 1.273 . S
O209 Mg196 2.010 . S
O209 C201 1.249 . S
Mg210 O211 2.028 . S
Mg210 O217 1.986 . S
Mg210 O219 2.114 . S
Mg210 O220 2.251 . S
Mg210 O223 2.010 . S
O211 Mg210 2.028 . S
O211 C214 1.250 . S
O212 Mg213 2.028 . S
O212 C214 1.248 . S
Mg213 O212 2.028 . S
Mg213 O218 2.032 . S
Mg213 O220 2.079 . S
C214 O211 1.250 . S
C214 O212 1.248 . S
C215 O216 1.264 . S
C215 O223 1.249 . S
O216 C215 1.264 . S
O217 Mg210 1.986 . S
O217 C221 1.246 . S
O218 Mg213 2.032 . S
O218 C221 1.259 . S
O219 Mg210 2.114 . S
O219 C222 1.252 . S
O220 Mg210 2.251 . S
O220 Mg213 2.079 . S
O220 C222 1.273 . S
C221 O217 1.246 . S
C221 O218 1.259 . S
C222 O219 1.252 . S
C222 O220 1.273 . S
O223 Mg210 2.010 . S
O223 C215 1.249 . S
Mg224 O225 2.028 . S
Mg224 O231 1.986 1_545 S
Mg224 O233 2.114 . S
Mg224 O234 2.251 . S
Mg224 O237 2.010 . S
O225 Mg224 2.028 . S
O225 C228 1.250 . S
O226 Mg227 2.028 . S
O226 C228 1.248 . S
Mg227 O226 2.028 . S
Mg227 O232 2.032 1_545 S
Mg227 O234 2.079 . S
C228 O225 1.250 . S
C228 O226 1.248 . S
C229 O230 1.264 . S
C229 O237 1.249 . S
O230 C229 1.264 . S
O231 Mg224 1.986 1_565 S
O231 C235 1.246 . S
O232 Mg227 2.032 1_565 S
O232 C235 1.259 . S
O233 Mg224 2.114 . S
O233 C236 1.252 . S
O234 Mg224 2.251 . S
O234 Mg227 2.079 . S
O234 C236 1.273 . S
C235 O231 1.246 . S
C235 O232 1.259 . S
C236 O233 1.252 . S
C236 O234 1.273 . S
O237 Mg224 2.010 . S
O237 C229 1.249 . S
Mg238 O239 2.028 . S
Mg238 O245 1.986 . S
Mg238 O247 2.114 . S
Mg238 O248 2.251 . S
Mg238 O251 2.010 1_655 S
O239 Mg238 2.028 . S
O239 C242 1.250 . S
O240 Mg241 2.028 . S
O240 C242 1.248 . S
Mg241 O240 2.028 . S
Mg241 O246 2.032 . S
Mg241 O248 2.079 . S
C242 O239 1.250 . S
C242 O240 1.248 . S
C243 O244 1.264 . S
C243 O251 1.249 . S
O244 C243 1.264 . S
O245 Mg238 1.986 . S
O245 C249 1.246 . S
O246 Mg241 2.032 . S
O246 C249 1.259 . S
O247 Mg238 2.114 . S
O247 C250 1.252 . S
O248 Mg238 2.251 . S
O248 Mg241 2.079 . S
O248 C250 1.273 . S
C249 O245 1.246 . S
C249 O246 1.259 . S
C250 O247 1.252 . S
C250 O248 1.273 . S
O251 Mg238 2.010 1_455 S
O251 C243 1.249 . S
H252 C260 0.930 . S
H253 C263 0.930 . S
H254 C265 0.930 . S
H255 C266 0.970 . S
H256 C266 0.970 . S
H257 C268 0.930 . S
H258 C270 0.930 . S
H259 C272 0.930 . S
C260 H252 0.930 . S
C260 C261 1.382 . S
C260 C262 1.426 . S
C261 C260 1.382 . S
C261 C265 1.389 . S
C262 C260 1.426 . S
C262 C263 1.375 . S
C262 C266 1.532 . S
C263 H253 0.930 . S
C263 C262 1.375 . S
C263 C264 1.416 . S
C264 C263 1.416 . S
C264 C265 1.371 . S
C265 H254 0.930 . S
C265 C261 1.389 . S
C265 C264 1.371 . S
C266 H255 0.970 . S
C266 H256 0.970 . S
C266 C262 1.532 . S
C266 C267 1.499 . S
C267 C266 1.499 . S
C267 C268 1.370 . S
C267 C272 1.415 . S
C268 H257 0.930 . S
C268 C267 1.370 . S
C268 C269 1.407 . S
C269 C268 1.407 . S
C269 C270 1.365 . S
C270 H258 0.930 . S
C270 C269 1.365 . S
C270 C271 1.393 . S
C271 C270 1.393 . S
C271 C272 1.387 . S
C272 H259 0.930 . S
C272 C267 1.415 . S
C272 C271 1.387 . S
H273 C281 0.930 . S
H274 C284 0.930 . S
H275 C286 0.930 . S
H276 C287 0.970 . S
H277 C287 0.970 . S
H278 C289 0.930 . S
H279 C291 0.930 . S
H280 C293 0.930 . S
C281 H273 0.930 . S
C281 C282 1.382 . S
C281 C283 1.426 . S
C282 C281 1.382 . S
C282 C286 1.389 . S
C283 C281 1.426 . S
C283 C284 1.375 . S
C283 C287 1.532 . S
C284 H274 0.930 . S
C284 C283 1.375 . S
C284 C285 1.416 . S
C285 C284 1.416 . S
C285 C286 1.371 . S
C286 H275 0.930 . S
C286 C282 1.389 . S
C286 C285 1.371 . S
C287 H276 0.970 . S
C287 H277 0.970 . S
C287 C283 1.532 . S
C287 C288 1.499 . S
C288 C287 1.499 . S
C288 C289 1.370 . S
C288 C293 1.415 . S
C289 H278 0.930 . S
C289 C288 1.370 . S
C289 C290 1.407 . S
C290 C289 1.407 . S
C290 C291 1.365 . S
C291 H279 0.930 . S
C291 C290 1.365 . S
C291 C292 1.393 . S
C292 C291 1.393 . S
C292 C293 1.387 . S
C293 H280 0.930 . S
C293 C288 1.415 . S
C293 C292 1.387 . S
H294 C302 0.930 . S
H295 C305 0.930 . S
H296 C307 0.930 . S
H297 C308 0.970 . S
H298 C308 0.970 . S
H299 C310 0.930 . S
H300 C312 0.930 . S
H301 C314 0.930 . S
C302 H294 0.930 . S
C302 C303 1.382 . S
C302 C304 1.426 . S
C303 C302 1.382 . S
C303 C307 1.389 . S
C304 C302 1.426 . S
C304 C305 1.375 . S
C304 C308 1.532 . S
C305 H295 0.930 . S
C305 C304 1.375 . S
C305 C306 1.416 . S
C306 C305 1.416 . S
C306 C307 1.371 . S
C307 H296 0.930 . S
C307 C303 1.389 . S
C307 C306 1.371 . S
C308 H297 0.970 . S
C308 H298 0.970 . S
C308 C304 1.532 . S
C308 C309 1.499 . S
C309 C308 1.499 . S
C309 C310 1.370 . S
C309 C314 1.415 . S
C310 H299 0.930 . S
C310 C309 1.370 . S
C310 C311 1.407 . S
C311 C310 1.407 . S
C311 C312 1.365 . S
C312 H300 0.930 . S
C312 C311 1.365 . S
C312 C313 1.393 . S
C313 C312 1.393 . S
C313 C314 1.387 . S
C314 H301 0.930 . S
C314 C309 1.415 . S
C314 C313 1.387 . S
H315 C323 0.930 . S
H316 C326 0.930 . S
H317 C328 0.930 . S
H318 C329 0.970 . S
H319 C329 0.970 . S
H320 C331 0.930 . S
H321 C333 0.930 . S
H322 C335 0.930 . S
C323 H315 0.930 . S
C323 C324 1.382 . S
C323 C325 1.426 . S
C324 C323 1.382 . S
C324 C328 1.389 . S
C325 C323 1.426 . S
C325 C326 1.375 . S
C325 C329 1.532 . S
C326 H316 0.930 . S
C326 C325 1.375 . S
C326 C327 1.416 . S
C327 C326 1.416 . S
C327 C328 1.371 . S
C328 H317 0.930 . S
C328 C324 1.389 . S
C328 C327 1.371 . S
C329 H318 0.970 . S
C329 H319 0.970 . S
C329 C325 1.532 . S
C329 C330 1.499 . S
C330 C329 1.499 . S
C330 C331 1.370 . S
C330 C335 1.415 . S
C331 H320 0.930 . S
C331 C330 1.370 . S
C331 C332 1.407 . S
C332 C331 1.407 . S
C332 C333 1.365 . S
C333 H321 0.930 . S
C333 C332 1.365 . S
C333 C334 1.393 . S
C334 C333 1.393 . S
C334 C335 1.387 . S
C335 H322 0.930 . S
C335 C330 1.415 . S
C335 C334 1.387 . S
H336 C344 0.930 . S
H337 C347 0.930 . S
H338 C349 0.930 . S
H339 C350 0.970 . S
H340 C350 0.970 . S
H341 C352 0.930 . S
H342 C354 0.930 . S
H343 C356 0.930 . S
C344 H336 0.930 . S
C344 C345 1.382 . S
C344 C346 1.426 . S
C345 C344 1.382 . S
C345 C349 1.389 . S
C346 C344 1.426 . S
C346 C347 1.375 . S
C346 C350 1.532 . S
C347 H337 0.930 . S
C347 C346 1.375 . S
C347 C348 1.416 . S
C348 C347 1.416 . S
C348 C349 1.371 . S
C349 H338 0.930 . S
C349 C345 1.389 . S
C349 C348 1.371 . S
C350 H339 0.970 . S
C350 H340 0.970 . S
C350 C346 1.532 . S
C350 C351 1.499 . S
C351 C350 1.499 . S
C351 C352 1.370 . S
C351 C356 1.415 . S
C352 H341 0.930 . S
C352 C351 1.370 . S
C352 C353 1.407 . S
C353 C352 1.407 . S
C353 C354 1.365 . S
C354 H342 0.930 . S
C354 C353 1.365 . S
C354 C355 1.393 . S
C355 C354 1.393 . S
C355 C356 1.387 . S
C356 H343 0.930 . S
C356 C351 1.415 . S
C356 C355 1.387 . S
H357 C365 0.930 . S
H358 C368 0.930 . S
H359 C370 0.930 . S
H360 C371 0.970 . S
H361 C371 0.970 . S
H362 C373 0.930 . S
H363 C375 0.930 . S
H364 C377 0.930 . S
C365 H357 0.930 . S
C365 C366 1.382 . S
C365 C367 1.426 . S
C366 C365 1.382 . S
C366 C370 1.389 . S
C367 C365 1.426 . S
C367 C368 1.375 . S
C367 C371 1.532 . S
C368 H358 0.930 . S
C368 C367 1.375 . S
C368 C369 1.416 . S
C369 C368 1.416 . S
C369 C370 1.371 . S
C370 H359 0.930 . S
C370 C366 1.389 . S
C370 C369 1.371 . S
C371 H360 0.970 . S
C371 H361 0.970 . S
C371 C367 1.532 . S
C371 C372 1.499 . S
C372 C371 1.499 . S
C372 C373 1.370 . S
C372 C377 1.415 . S
C373 H362 0.930 . S
C373 C372 1.370 . S
C373 C374 1.407 . S
C374 C373 1.407 . S
C374 C375 1.365 . S
C375 H363 0.930 . S
C375 C374 1.365 . S
C375 C376 1.393 . S
C376 C375 1.393 . S
C376 C377 1.387 . S
C377 H364 0.930 . S
C377 C372 1.415 . S
C377 C376 1.387 . S
H378 C386 0.930 . S
H379 C389 0.930 . S
H380 C391 0.930 . S
H381 C392 0.970 . S
H382 C392 0.970 . S
H383 C394 0.930 . S
H384 C396 0.930 . S
H385 C398 0.930 . S
C386 H378 0.930 . S
C386 C387 1.382 . S
C386 C388 1.426 . S
C387 C386 1.382 . S
C387 C391 1.389 . S
C388 C386 1.426 . S
C388 C389 1.375 . S
C388 C392 1.532 . S
C389 H379 0.930 . S
C389 C388 1.375 . S
C389 C390 1.416 . S
C390 C389 1.416 . S
C390 C391 1.371 . S
C391 H380 0.930 . S
C391 C387 1.389 . S
C391 C390 1.371 . S
C392 H381 0.970 . S
C392 H382 0.970 . S
C392 C388 1.532 . S
C392 C393 1.499 . S
C393 C392 1.499 . S
C393 C394 1.370 . S
C393 C398 1.415 . S
C394 H383 0.930 . S
C394 C393 1.370 . S
C394 C395 1.407 . S
C395 C394 1.407 . S
C395 C396 1.365 . S
C396 H384 0.930 . S
C396 C395 1.365 . S
C396 C397 1.393 . S
C397 C396 1.393 . S
C397 C398 1.387 . S
C398 H385 0.930 . S
C398 C393 1.415 . S
C398 C397 1.387 . S
H399 C407 0.930 . S
H400 C410 0.930 . S
H401 C412 0.930 . S
H402 C413 0.970 . S
H403 C413 0.970 . S
H404 C415 0.930 . S
H405 C417 0.930 . S
H406 C419 0.930 . S
C407 H399 0.930 . S
C407 C408 1.382 . S
C407 C409 1.426 . S
C408 C407 1.382 . S
C408 C412 1.389 . S
C409 C407 1.426 . S
C409 C410 1.375 . S
C409 C413 1.532 . S
C410 H400 0.930 . S
C410 C409 1.375 . S
C410 C411 1.416 . S
C411 C410 1.416 . S
C411 C412 1.371 . S
C412 H401 0.930 . S
C412 C408 1.389 . S
C412 C411 1.371 . S
C413 H402 0.970 . S
C413 H403 0.970 . S
C413 C409 1.532 . S
C413 C414 1.499 . S
C414 C413 1.499 . S
C414 C415 1.370 . S
C414 C419 1.415 . S
C415 H404 0.930 . S
C415 C414 1.370 . S
C415 C416 1.407 . S
C416 C415 1.407 . S
C416 C417 1.365 . S
C417 H405 0.930 . S
C417 C416 1.365 . S
C417 C418 1.393 . S
C418 C417 1.393 . S
C418 C419 1.387 . S
C419 H406 0.930 . S
C419 C414 1.415 . S
C419 C418 1.387 . S
H420 C428 0.930 . S
H421 C431 0.930 . S
H422 C433 0.930 . S
H423 C434 0.970 . S
H424 C434 0.970 . S
H425 C436 0.930 . S
H426 C438 0.930 . S
H427 C440 0.930 . S
C428 H420 0.930 . S
C428 C429 1.382 . S
C428 C430 1.426 . S
C429 C428 1.382 . S
C429 C433 1.389 . S
C430 C428 1.426 . S
C430 C431 1.375 . S
C430 C434 1.532 . S
C431 H421 0.930 . S
C431 C430 1.375 . S
C431 C432 1.416 . S
C432 C431 1.416 . S
C432 C433 1.371 . S
C433 H422 0.930 . S
C433 C429 1.389 . S
C433 C432 1.371 . S
C434 H423 0.970 . S
C434 H424 0.970 . S
C434 C430 1.532 . S
C434 C435 1.499 . S
C435 C434 1.499 . S
C435 C436 1.370 . S
C435 C440 1.415 . S
C436 H425 0.930 . S
C436 C435 1.370 . S
C436 C437 1.407 . S
C437 C436 1.407 . S
C437 C438 1.365 . S
C438 H426 0.930 . S
C438 C437 1.365 . S
C438 C439 1.393 . S
C439 C438 1.393 . S
C439 C440 1.387 . S
C440 H427 0.930 . S
C440 C435 1.415 . S
C440 C439 1.387 . S
H441 C449 0.930 . S
H442 C452 0.930 . S
H443 C454 0.930 . S
H444 C455 0.970 . S
H445 C455 0.970 . S
H446 C457 0.930 . S
H447 C459 0.930 . S
H448 C461 0.930 . S
C449 H441 0.930 . S
C449 C450 1.382 . S
C449 C451 1.426 . S
C450 C449 1.382 . S
C450 C454 1.389 1_455 S
C451 C449 1.426 . S
C451 C452 1.375 . S
C451 C455 1.532 . S
C452 H442 0.930 . S
C452 C451 1.375 . S
C452 C453 1.416 . S
C453 C452 1.416 . S
C453 C454 1.371 1_455 S
C454 H443 0.930 . S
C454 C450 1.389 1_655 S
C454 C453 1.371 1_655 S
C455 H444 0.970 . S
C455 H445 0.970 . S
C455 C451 1.532 . S
C455 C456 1.499 . S
C456 C455 1.499 . S
C456 C457 1.370 . S
C456 C461 1.415 . S
C457 H446 0.930 . S
C457 C456 1.370 . S
C457 C458 1.409 . S
C458 C457 1.409 . S
C458 C459 1.367 1_455 S
C459 H447 0.930 . S
C459 C458 1.367 1_655 S
C459 C460 1.393 1_655 S
C460 C459 1.393 1_455 S
C460 C461 1.387 . S
C461 H448 0.930 . S
C461 C456 1.415 . S
C461 C460 1.387 . S
H462 C470 0.930 . S
H463 C473 0.930 . S
H464 C475 0.930 . S
H465 C476 0.970 . S
H466 C476 0.970 . S
H467 C478 0.930 . S
H468 C480 0.930 . S
H469 C482 0.930 . S
C470 H462 0.930 . S
C470 C471 1.382 . S
C470 C472 1.426 . S
C471 C470 1.382 . S
C471 C475 1.389 . S
C472 C470 1.426 . S
C472 C473 1.375 . S
C472 C476 1.532 . S
C473 H463 0.930 . S
C473 C472 1.375 . S
C473 C474 1.416 . S
C474 C473 1.416 . S
C474 C475 1.371 . S
C475 H464 0.930 . S
C475 C471 1.389 . S
C475 C474 1.371 . S
C476 H465 0.970 . S
C476 H466 0.970 . S
C476 C472 1.532 . S
C476 C477 1.499 . S
C477 C476 1.499 . S
C477 C478 1.370 . S
C477 C482 1.415 . S
C478 H467 0.930 . S
C478 C477 1.370 . S
C478 C479 1.407 . S
C479 C478 1.407 . S
C479 C480 1.365 . S
C480 H468 0.930 . S
C480 C479 1.365 . S
C480 C481 1.393 . S
C481 C480 1.393 . S
C481 C482 1.387 . S
C482 H469 0.930 . S
C482 C477 1.415 . S
C482 C481 1.387 . S
H483 C491 0.930 . S
H484 C494 0.930 . S
H485 C496 0.930 . S
H486 C497 0.970 . S
H487 C497 0.970 . S
H488 C499 0.930 . S
H489 C501 0.930 . S
H490 C503 0.930 . S
C491 H483 0.930 . S
C491 C492 1.382 . S
C491 C493 1.426 . S
C492 C491 1.382 . S
C492 C496 1.389 1_565 S
C493 C491 1.426 . S
C493 C494 1.375 . S
C493 C497 1.532 . S
C494 H484 0.930 . S
C494 C493 1.375 . S
C494 C495 1.416 . S
C495 C494 1.416 . S
C495 C496 1.371 1_565 S
C496 H485 0.930 . S
C496 C492 1.389 1_545 S
C496 C495 1.371 1_545 S
C497 H486 0.970 . S
C497 H487 0.970 . S
C497 C493 1.532 . S
C497 C498 1.499 . S
C498 C497 1.499 . S
C498 C499 1.370 . S
C498 C503 1.415 . S
C499 H488 0.930 . S
C499 C498 1.370 . S
C499 C500 1.431 . S
C500 C499 1.431 . S
C500 C501 1.356 1_565 S
C501 H489 0.930 . S
C501 C500 1.356 1_545 S
C501 C502 1.393 1_545 S
C502 C501 1.393 1_565 S
C502 C503 1.387 . S
C503 H490 0.930 . S
C503 C498 1.415 . S
C503 C502 1.387 . S
H504 C512 0.930 . S
H505 C515 0.930 . S
H506 C517 0.930 . S
H507 C518 0.970 . S
H508 C518 0.970 . S
H509 C520 0.930 . S
H510 C522 0.930 . S
H511 C524 0.930 . S
C512 H504 0.930 . S
C512 C513 1.382 . S
C512 C514 1.426 . S
C513 C512 1.382 . S
C513 C517 1.389 1_565 S
C514 C512 1.426 . S
C514 C515 1.375 . S
C514 C518 1.532 . S
C515 H505 0.930 . S
C515 C514 1.375 . S
C515 C516 1.416 . S
C516 C515 1.416 . S
C516 C517 1.371 1_565 S
C517 H506 0.930 . S
C517 C513 1.389 1_545 S
C517 C516 1.371 1_545 S
C518 H507 0.970 . S
C518 H508 0.970 . S
C518 C514 1.532 . S
C518 C519 1.499 . S
C519 C518 1.499 . S
C519 C520 1.370 . S
C519 C524 1.415 . S
C520 H509 0.930 . S
C520 C519 1.370 . S
C520 C521 1.407 . S
C521 C520 1.407 . S
C521 C522 1.365 1_565 S
C522 H510 0.930 . S
C522 C521 1.365 1_545 S
C522 C523 1.393 1_545 S
C523 C522 1.393 1_565 S
C523 C524 1.387 . S
C524 H511 0.930 . S
C524 C519 1.415 . S
C524 C523 1.387 . S
H525 C533 0.930 . S
H526 C536 0.930 . S
H527 C538 0.930 . S
H528 C539 0.970 . S
H529 C539 0.970 . S
H530 C541 0.930 . S
H531 C543 0.930 . S
H532 C545 0.930 . S
C533 H525 0.930 . S
C533 C534 1.382 . S
C533 C535 1.426 . S
C534 C533 1.382 . S
C534 C538 1.389 1_455 S
C535 C533 1.426 . S
C535 C536 1.375 . S
C535 C539 1.532 . S
C536 H526 0.930 . S
C536 C535 1.375 . S
C536 C537 1.416 . S
C537 C536 1.416 . S
C537 C538 1.371 1_455 S
C538 H527 0.930 . S
C538 C534 1.389 1_655 S
C538 C537 1.371 1_655 S
C539 H528 0.970 . S
C539 H529 0.970 . S
C539 C535 1.532 . S
C539 C540 1.499 . S
C540 C539 1.499 . S
C540 C541 1.370 . S
C540 C545 1.415 . S
C541 H530 0.930 . S
C541 C540 1.370 . S
C541 C542 1.407 . S
C542 C541 1.407 . S
C542 C543 1.365 1_455 S
C543 H531 0.930 . S
C543 C542 1.365 1_655 S
C543 C544 1.393 1_655 S
C544 C543 1.393 1_455 S
C544 C545 1.387 . S
C545 H532 0.930 . S
C545 C540 1.415 . S
C545 C544 1.387 . S
H546 C554 0.930 . S
H547 C557 0.930 . S
H548 C559 0.930 . S
H549 C560 0.970 . S
H550 C560 0.970 . S
H551 C562 0.930 . S
H552 C564 0.930 . S
H553 C566 0.930 . S
C554 H546 0.930 . S
C554 C555 1.382 . S
C554 C556 1.426 . S
C555 C554 1.382 . S
C555 C559 1.389 . S
C556 C554 1.426 . S
C556 C557 1.375 . S
C556 C560 1.532 . S
C557 H547 0.930 . S
C557 C556 1.375 . S
C557 C558 1.416 . S
C558 C557 1.416 . S
C558 C559 1.371 . S
C559 H548 0.930 . S
C559 C555 1.389 . S
C559 C558 1.371 . S
C560 H549 0.970 . S
C560 H550 0.970 . S
C560 C556 1.532 . S
C560 C561 1.499 . S
C561 C560 1.499 . S
C561 C562 1.370 . S
C561 C566 1.415 . S
C562 H551 0.930 . S
C562 C561 1.370 . S
C562 C563 1.407 . S
C563 C562 1.407 . S
C563 C564 1.365 . S
C564 H552 0.930 . S
C564 C563 1.365 . S
C564 C565 1.393 . S
C565 C564 1.393 . S
C565 C566 1.387 . S
C566 H553 0.930 . S
C566 C561 1.415 . S
C566 C565 1.387 . S
H567 C575 0.930 . S
H568 C578 0.930 . S
H569 C580 0.930 . S
H570 C581 0.970 . S
H571 C581 0.970 . S
H572 C583 0.930 . S
H573 C585 0.930 . S
H574 C587 0.930 . S
C575 H567 0.930 . S
C575 C576 1.382 . S
C575 C577 1.426 . S
C576 C575 1.382 . S
C576 C580 1.389 . S
C577 C575 1.426 . S
C577 C578 1.375 . S
C577 C581 1.532 . S
C578 H568 0.930 . S
C578 C577 1.375 . S
C578 C579 1.416 . S
C579 C578 1.416 . S
C579 C580 1.371 . S
C580 H569 0.930 . S
C580 C576 1.389 . S
C580 C579 1.371 . S
C581 H570 0.970 . S
C581 H571 0.970 . S
C581 C577 1.532 . S
C581 C582 1.499 . S
C582 C581 1.499 . S
C582 C583 1.370 . S
C582 C587 1.415 . S
C583 H572 0.930 . S
C583 C582 1.370 . S
C583 C584 1.407 . S
C584 C583 1.407 . S
C584 C585 1.365 . S
C585 H573 0.930 . S
C585 C584 1.365 . S
C585 C586 1.393 . S
C586 C585 1.393 . S
C586 C587 1.387 . S
C587 H574 0.930 . S
C587 C582 1.415 . S
C587 C586 1.387 . S
H588 C596 0.930 . S
H589 C599 0.930 . S
H590 C601 0.930 . S
H591 C602 0.970 . S
H592 C602 0.970 . S
H593 C604 0.930 . S
H594 C606 0.930 . S
H595 C608 0.930 . S
C596 H588 0.930 . S
C596 C597 1.382 . S
C596 C598 1.426 . S
C597 C596 1.382 . S
C597 C601 1.389 . S
C598 C596 1.426 . S
C598 C599 1.375 . S
C598 C602 1.532 . S
C599 H589 0.930 . S
C599 C598 1.375 . S
C599 C600 1.416 . S
C600 C599 1.416 . S
C600 C601 1.371 . S
C601 H590 0.930 . S
C601 C597 1.389 . S
C601 C600 1.371 . S
C602 H591 0.970 . S
C602 H592 0.970 . S
C602 C598 1.532 . S
C602 C603 1.499 . S
C603 C602 1.499 . S
C603 C604 1.370 . S
C603 C608 1.415 . S
C604 H593 0.930 . S
C604 C603 1.370 . S
C604 C605 1.407 . S
C605 C604 1.407 . S
C605 C606 1.365 . S
C606 H594 0.930 . S
C606 C605 1.365 . S
C606 C607 1.393 . S
C607 C606 1.393 . S
C607 C608 1.387 . S
C608 H595 0.930 . S
C608 C603 1.415 . S
C608 C607 1.387 . S
H609 C617 0.930 . S
H610 C620 0.930 . S
H611 C622 0.930 . S
H612 C623 0.970 . S
H613 C623 0.970 . S
H614 C625 0.930 . S
H615 C627 0.930 . S
H616 C629 0.930 . S
C617 H609 0.930 . S
C617 C618 1.382 . S
C617 C619 1.426 . S
C618 C617 1.382 . S
C618 C622 1.389 . S
C619 C617 1.426 . S
C619 C620 1.375 . S
C619 C623 1.532 . S
C620 H610 0.930 . S
C620 C619 1.375 . S
C620 C621 1.416 . S
C621 C620 1.416 . S
C621 C622 1.371 . S
C622 H611 0.930 . S
C622 C618 1.389 . S
C622 C621 1.371 . S
C623 H612 0.970 . S
C623 H613 0.970 . S
C623 C619 1.532 . S
C623 C624 1.499 . S
C624 C623 1.499 . S
C624 C625 1.370 . S
C624 C629 1.415 . S
C625 H614 0.930 . S
C625 C624 1.370 . S
C625 C626 1.407 . S
C626 C625 1.407 . S
C626 C627 1.365 . S
C627 H615 0.930 . S
C627 C626 1.365 . S
C627 C628 1.393 . S
C628 C627 1.393 . S
C628 C629 1.387 . S
C629 H616 0.930 . S
C629 C624 1.415 . S
C629 C628 1.387 . S
C630 C631 1.369 1_455 S
C630 C632 1.419 . S
C630 H634 0.930 . S
C631 C630 1.369 1_655 S
C631 C640 1.429 . S
C632 C630 1.419 . S
C632 C633 1.363 1_455 S
C632 H635 0.929 . S
C633 C632 1.363 1_655 S
C633 C639 1.428 . S
H634 C630 0.930 . S
H635 C632 0.929 . S
S636 N637 1.613 . S
S636 N638 1.610 . S
N637 S636 1.613 . S
N637 C640 1.350 . S
N638 S636 1.610 . S
N638 C639 1.351 . S
C639 C633 1.428 . S
C639 N638 1.351 . S
C639 C640 1.434 . S
C640 C631 1.429 . S
C640 N637 1.350 . S
C640 C639 1.434 . S
C641 C642 1.369 . S
C641 C643 1.419 . S
C641 H645 0.930 . S
C642 C641 1.369 . S
C642 C651 1.429 . S
C643 C641 1.419 . S
C643 C644 1.363 . S
C643 H646 0.929 . S
C644 C643 1.363 . S
C644 C650 1.428 . S
H645 C641 0.930 . S
H646 C643 0.929 . S
S647 N648 1.613 . S
S647 N649 1.610 . S
N648 S647 1.613 . S
N648 C651 1.350 . S
N649 S647 1.610 . S
N649 C650 1.351 . S
C650 C644 1.428 . S
C650 N649 1.351 . S
C650 C651 1.434 . S
C651 C642 1.429 . S
C651 N648 1.350 . S
C651 C650 1.434 . S
C652 C653 1.369 . S
C652 C654 1.419 . S
C652 H656 0.930 . S
C653 C652 1.369 . S
C653 C662 1.429 1_545 S
C654 C652 1.419 . S
C654 C655 1.363 . S
C654 H657 0.929 . S
C655 C654 1.363 . S
C655 C661 1.428 1_545 S
H656 C652 0.930 . S
H657 C654 0.929 . S
S658 N659 1.613 . S
S658 N660 1.610 . S
N659 S658 1.613 . S
N659 C662 1.350 . S
N660 S658 1.610 . S
N660 C661 1.351 . S
C661 C655 1.428 1_565 S
C661 N660 1.351 . S
C661 C662 1.434 . S
C662 C653 1.429 1_565 S
C662 N659 1.350 . S
C662 C661 1.434 . S
C663 C664 1.369 1_545 S
C663 C665 1.419 . S
C663 H667 0.930 . S
C664 C663 1.369 1_565 S
C664 C673 1.429 . S
C665 C663 1.419 . S
C665 C666 1.363 1_545 S
C665 H668 0.929 . S
C666 C665 1.363 1_565 S
C666 C672 1.428 . S
H667 C663 0.930 . S
H668 C665 0.929 . S
S669 N670 1.613 . S
S669 N671 1.610 . S
N670 S669 1.613 . S
N670 C673 1.350 . S
N671 S669 1.610 . S
N671 C672 1.351 . S
C672 C666 1.428 . S
C672 N671 1.351 . S
C672 C673 1.434 . S
C673 C664 1.429 . S
C673 N670 1.350 . S
C673 C672 1.434 . S
C674 C675 1.369 . S
C674 C676 1.419 . S
C674 H678 0.930 . S
C675 C674 1.369 . S
C675 C684 1.429 . S
C676 C674 1.419 . S
C676 C677 1.363 . S
C676 H679 0.929 . S
C677 C676 1.363 . S
C677 C683 1.428 . S
H678 C674 0.930 . S
H679 C676 0.929 . S
S680 N681 1.613 1_655 S
S680 N682 1.610 . S
N681 S680 1.613 1_455 S
N681 C684 1.350 . S
N682 S680 1.610 . S
N682 C683 1.351 1_655 S
C683 C677 1.428 . S
C683 N682 1.351 1_455 S
C683 C684 1.434 . S
C684 C675 1.429 . S
C684 N681 1.350 . S
C684 C683 1.434 . S
C685 C686 1.369 . S
C685 C687 1.419 . S
C685 H689 0.930 . S
C686 C685 1.369 . S
C686 C695 1.429 . S
C687 C685 1.419 . S
C687 C688 1.363 . S
C687 H690 0.929 . S
C688 C687 1.363 . S
C688 C694 1.428 . S
H689 C685 0.930 . S
H690 C687 0.929 . S
S691 N692 1.613 . S
S691 N693 1.610 . S
N692 S691 1.613 . S
N692 C695 1.350 . S
N693 S691 1.610 . S
N693 C694 1.351 . S
C694 C688 1.428 . S
C694 N693 1.351 . S
C694 C695 1.434 . S
C695 C686 1.429 . S
C695 N692 1.350 . S
C695 C694 1.434 . S
C696 C697 1.369 1_655 S
C696 C698 1.419 . S
C696 H700 0.930 . S
C697 C696 1.369 1_455 S
C697 C706 1.429 . S
C698 C696 1.419 . S
C698 C699 1.363 1_655 S
C698 H701 0.929 . S
C699 C698 1.363 1_455 S
C699 C705 1.428 . S
H700 C696 0.930 . S
H701 C698 0.929 . S
S702 N703 1.613 . S
S702 N704 1.610 . S
N703 S702 1.613 . S
N703 C706 1.350 . S
N704 S702 1.610 . S
N704 C705 1.351 . S
C705 C699 1.428 . S
C705 N704 1.351 . S
C705 C706 1.434 . S
C706 C697 1.429 . S
C706 N703 1.350 . S
C706 C705 1.434 . S
C707 C708 1.369 . S
C707 C709 1.419 . S
C707 H711 0.930 . S
C708 C707 1.369 . S
C708 C717 1.429 . S
C709 C707 1.419 . S
C709 C710 1.363 . S
C709 H712 0.929 . S
C710 C709 1.363 . S
C710 C716 1.428 . S
H711 C707 0.930 . S
H712 C709 0.929 . S
S713 N714 1.613 . S
S713 N715 1.610 . S
N714 S713 1.613 . S
N714 C717 1.350 . S
N715 S713 1.610 . S
N715 C716 1.351 . S
C716 C710 1.428 . S
C716 N715 1.351 . S
C716 C717 1.434 . S
C717 C708 1.429 . S
C717 N714 1.350 . S
C717 C716 1.434 . S
C718 C719 1.369 1_545 S
C718 C720 1.419 . S
C718 H722 0.930 . S
C719 C718 1.369 1_565 S
C719 C728 1.429 . S
C720 C718 1.419 . S
C720 C721 1.363 1_545 S
C720 H723 0.929 . S
C721 C720 1.363 1_565 S
C721 C727 1.428 . S
H722 C718 0.930 . S
H723 C720 0.929 . S
S724 N725 1.613 . S
S724 N726 1.610 . S
N725 S724 1.613 . S
N725 C728 1.350 . S
N726 S724 1.610 . S
N726 C727 1.351 . S
C727 C721 1.428 . S
C727 N726 1.351 . S
C727 C728 1.434 . S
C728 C719 1.429 . S
C728 N725 1.350 . S
C728 C727 1.434 . S
C729 C730 1.369 . S
C729 C731 1.419 . S
C729 H733 0.930 . S
C730 C729 1.369 . S
C730 C739 1.429 1_545 S
C731 C729 1.419 . S
C731 C732 1.363 . S
C731 H734 0.929 . S
C732 C731 1.363 . S
C732 C738 1.428 1_545 S
H733 C729 0.930 . S
H734 C731 0.929 . S
S735 N736 1.613 . S
S735 N737 1.610 . S
N736 S735 1.613 . S
N736 C739 1.350 . S
N737 S735 1.610 . S
N737 C738 1.351 . S
C738 C732 1.428 1_565 S
C738 N737 1.351 . S
C738 C739 1.434 . S
C739 C730 1.429 1_565 S
C739 N736 1.350 . S
C739 C738 1.434 . S
C740 C741 1.369 1_455 S
C740 C742 1.419 . S
C740 H744 0.930 . S
C741 C740 1.369 1_655 S
C741 C750 1.429 . S
C742 C740 1.419 . S
C742 C743 1.363 1_455 S
C742 H745 0.929 . S
C743 C742 1.363 1_655 S
C743 C749 1.428 . S
H744 C740 0.930 . S
H745 C742 0.929 . S
S746 N747 1.613 . S
S746 N748 1.610 . S
N747 S746 1.613 . S
N747 C750 1.350 . S
N748 S746 1.610 . S
N748 C749 1.351 . S
C749 C743 1.428 . S
C749 N748 1.351 . S
C749 C750 1.434 . S
C750 C741 1.429 . S
C750 N747 1.350 . S
C750 C749 1.434 . S
C751 C752 1.369 . S
C751 C753 1.419 . S
C751 H755 0.930 . S
C752 C751 1.369 . S
C752 C761 1.429 . S
C753 C751 1.419 . S
C753 C754 1.363 . S
C753 H756 0.929 . S
C754 C753 1.363 . S
C754 C760 1.428 . S
H755 C751 0.930 . S
H756 C753 0.929 . S
S757 N758 1.613 . S
S757 N759 1.610 . S
N758 S757 1.613 . S
N758 C761 1.350 . S
N759 S757 1.610 . S
N759 C760 1.351 . S
C760 C754 1.428 . S
C760 N759 1.351 . S
C760 C761 1.434 . S
C761 C752 1.429 . S
C761 N758 1.350 . S
C761 C760 1.434 . S
C762 C763 1.369 . S
C762 C764 1.419 . S
C762 H766 0.930 . S
C763 C762 1.369 . S
C763 C772 1.429 . S
C764 C762 1.419 . S
C764 C765 1.363 . S
C764 H767 0.929 . S
C765 C764 1.363 . S
C765 C771 1.428 . S
H766 C762 0.930 . S
H767 C764 0.929 . S
S768 N769 1.613 . S
S768 N770 1.610 . S
N769 S768 1.613 . S
N769 C772 1.350 . S
N770 S768 1.610 . S
N770 C771 1.351 . S
C771 C765 1.428 . S
C771 N770 1.351 . S
C771 C772 1.434 . S
C772 C763 1.429 . S
C772 N769 1.350 . S
C772 C771 1.434 . S
C773 C774 1.369 . S
C773 C775 1.419 . S
C773 H777 0.930 . S
C774 C773 1.369 . S
C774 C783 1.429 . S
C775 C773 1.419 . S
C775 C776 1.363 . S
C775 H778 0.929 . S
C776 C775 1.363 . S
C776 C782 1.428 . S
H777 C773 0.930 . S
H778 C775 0.929 . S
S779 N780 1.613 . S
S779 N781 1.610 . S
N780 S779 1.613 . S
N780 C783 1.350 . S
N781 S779 1.610 . S
N781 C782 1.351 . S
C782 C776 1.428 . S
C782 N781 1.351 . S
C782 C783 1.434 . S
C783 C774 1.429 . S
C783 N780 1.350 . S
C783 C782 1.434 . S
C784 C785 1.369 . S
C784 C786 1.419 . S
C784 H788 0.930 . S
C785 C784 1.369 . S
C785 C794 1.429 . S
C786 C784 1.419 . S
C786 C787 1.363 . S
C786 H789 0.929 . S
C787 C786 1.363 . S
C787 C793 1.428 . S
H788 C784 0.930 . S
H789 C786 0.929 . S
S790 N791 1.613 . S
S790 N792 1.610 . S
N791 S790 1.613 . S
N791 C794 1.350 . S
N792 S790 1.610 . S
N792 C793 1.351 . S
C793 C787 1.428 . S
C793 N792 1.351 . S
C793 C794 1.434 . S
C794 C785 1.429 . S
C794 N791 1.350 . S
C794 C793 1.434 . S
C795 C796 1.369 . S
C795 C797 1.419 . S
C795 H799 0.930 . S
C796 C795 1.369 . S
C796 C805 1.429 . S
C797 C795 1.419 . S
C797 C798 1.363 . S
C797 H800 0.929 . S
C798 C797 1.363 . S
C798 C804 1.428 . S
H799 C795 0.930 . S
H800 C797 0.929 . S
S801 N802 1.613 . S
S801 N803 1.610 . S
N802 S801 1.613 . S
N802 C805 1.350 . S
N803 S801 1.610 . S
N803 C804 1.351 . S
C804 C798 1.428 . S
C804 N803 1.351 . S
C804 C805 1.434 . S
C805 C796 1.429 . S
C805 N802 1.350 . S
C805 C804 1.434 . S
C806 C807 1.369 . S
C806 C808 1.419 . S
C806 H810 0.930 . S
C807 C806 1.369 . S
C807 C816 1.429 . S
C808 C806 1.419 . S
C808 C809 1.363 . S
C808 H811 0.929 . S
C809 C808 1.363 . S
C809 C815 1.428 . S
H810 C806 0.930 . S
H811 C808 0.929 . S
S812 N813 1.613 . S
S812 N814 1.610 . S
N813 S812 1.613 . S
N813 C816 1.350 . S
N814 S812 1.610 . S
N814 C815 1.351 . S
C815 C809 1.428 . S
C815 N814 1.351 . S
C815 C816 1.434 . S
C816 C807 1.429 . S
C816 N813 1.350 . S
C816 C815 1.434 . S
C817 C818 1.369 . S
C817 C819 1.419 . S
C817 H821 0.930 . S
C818 C817 1.369 . S
C818 C827 1.429 . S
C819 C817 1.419 . S
C819 C820 1.363 . S
C819 H822 0.929 . S
C820 C819 1.363 . S
C820 C826 1.428 . S
H821 C817 0.930 . S
H822 C819 0.929 . S
S823 N824 1.613 . S
S823 N825 1.610 . S
N824 S823 1.613 . S
N824 C827 1.350 . S
N825 S823 1.610 . S
N825 C826 1.351 . S
C826 C820 1.428 . S
C826 N825 1.351 . S
C826 C827 1.434 . S
C827 C818 1.429 . S
C827 N824 1.350 . S
C827 C826 1.434 . S
C828 C829 1.369 . S
C828 C830 1.419 . S
C828 H832 0.930 . S
C829 C828 1.369 . S
C829 C838 1.429 . S
C830 C828 1.419 . S
C830 C831 1.363 . S
C830 H833 0.929 . S
C831 C830 1.363 . S
C831 C837 1.428 . S
H832 C828 0.930 . S
H833 C830 0.929 . S
S834 N835 1.613 . S
S834 N836 1.610 . S
N835 S834 1.613 . S
N835 C838 1.350 . S
N836 S834 1.610 . S
N836 C837 1.351 . S
C837 C831 1.428 . S
C837 N836 1.351 . S
C837 C838 1.434 . S
C838 C829 1.429 . S
C838 N835 1.350 . S
C838 C837 1.434 . S
C839 C840 1.369 . S
C839 C841 1.419 . S
C839 H843 0.930 . S
C840 C839 1.369 . S
C840 C849 1.429 . S
C841 C839 1.419 . S
C841 C842 1.363 . S
C841 H844 0.929 . S
C842 C841 1.363 . S
C842 C848 1.428 . S
H843 C839 0.930 . S
H844 C841 0.929 . S
S845 N846 1.613 . S
S845 N847 1.610 . S
N846 S845 1.613 . S
N846 C849 1.350 . S
N847 S845 1.610 . S
N847 C848 1.351 . S
C848 C842 1.428 . S
C848 N847 1.351 . S
C848 C849 1.434 . S
C849 C840 1.429 . S
C849 N846 1.350 . S
C849 C848 1.434 . S
C850 C851 1.369 . S
C850 C852 1.419 . S
C850 H854 0.930 . S
C851 C850 1.369 . S
C851 C860 1.429 . S
C852 C850 1.419 . S
C852 C853 1.363 . S
C852 H855 0.929 . S
C853 C852 1.363 . S
C853 C859 1.428 . S
H854 C850 0.930 . S
H855 C852 0.929 . S
S856 N857 1.613 . S
S856 N858 1.610 . S
N857 S856 1.613 . S
N857 C860 1.350 . S
N858 S856 1.610 . S
N858 C859 1.351 . S
C859 C853 1.428 . S
C859 N858 1.351 . S
C859 C860 1.434 . S
C860 C851 1.429 . S
C860 N857 1.350 . S
C860 C859 1.434 . S
C861 C862 1.369 . S
C861 C863 1.419 . S
C861 H865 0.930 . S
C862 C861 1.369 . S
C862 C871 1.429 . S
C863 C861 1.419 . S
C863 C864 1.363 . S
C863 H866 0.929 . S
C864 C863 1.363 . S
C864 C870 1.428 . S
H865 C861 0.930 . S
H866 C863 0.929 . S
S867 N868 1.613 . S
S867 N869 1.610 . S
N868 S867 1.613 . S
N868 C871 1.350 . S
N869 S867 1.610 . S
N869 C870 1.351 . S
C870 C864 1.428 . S
C870 N869 1.351 . S
C870 C871 1.434 . S
C871 C862 1.429 . S
C871 N868 1.350 . S
C871 C870 1.434 . S
C872 C873 1.369 . S
C872 C874 1.419 . S
C872 H876 0.930 . S
C873 C872 1.369 . S
C873 C882 1.429 . S
C874 C872 1.419 . S
C874 C875 1.363 . S
C874 H877 0.929 . S
C875 C874 1.363 . S
C875 C881 1.428 . S
H876 C872 0.930 . S
H877 C874 0.929 . S
S878 N879 1.613 . S
S878 N880 1.610 . S
N879 S878 1.613 . S
N879 C882 1.350 . S
N880 S878 1.610 . S
N880 C881 1.351 . S
C881 C875 1.428 . S
C881 N880 1.351 . S
C881 C882 1.434 . S
C882 C873 1.429 . S
C882 N879 1.350 . S
C882 C881 1.434 . S
C883 C884 1.369 . S
C883 C885 1.419 . S
C883 H887 0.930 . S
C884 C883 1.369 . S
C884 C893 1.429 . S
C885 C883 1.419 . S
C885 C886 1.363 . S
C885 H888 0.929 . S
C886 C885 1.363 . S
C886 C892 1.428 . S
H887 C883 0.930 . S
H888 C885 0.929 . S
S889 N890 1.613 . S
S889 N891 1.610 . S
N890 S889 1.613 . S
N890 C893 1.350 . S
N891 S889 1.610 . S
N891 C892 1.351 . S
C892 C886 1.428 . S
C892 N891 1.351 . S
C892 C893 1.434 . S
C893 C884 1.429 . S
C893 N890 1.350 . S
C893 C892 1.434 . S
C894 C895 1.369 . S
C894 C896 1.419 . S
C894 H898 0.930 . S
C895 C894 1.369 . S
C895 C904 1.429 . S
C896 C894 1.419 . S
C896 C897 1.363 . S
C896 H899 0.929 . S
C897 C896 1.363 . S
C897 C903 1.428 . S
H898 C894 0.930 . S
H899 C896 0.929 . S
S900 N901 1.613 . S
S900 N902 1.610 . S
N901 S900 1.613 . S
N901 C904 1.350 . S
N902 S900 1.610 . S
N902 C903 1.351 . S
C903 C897 1.428 . S
C903 N902 1.351 . S
C903 C904 1.434 . S
C904 C895 1.429 . S
C904 N901 1.350 . S
C904 C903 1.434 . S
C905 C906 1.369 . S
C905 C907 1.419 . S
C905 H909 0.930 . S
C906 C905 1.369 . S
C906 C915 1.429 . S
C907 C905 1.419 . S
C907 C908 1.363 . S
C907 H910 0.929 . S
C908 C907 1.363 . S
C908 C914 1.428 . S
H909 C905 0.930 . S
H910 C907 0.929 . S
S911 N912 1.613 . S
S911 N913 1.610 . S
N912 S911 1.613 . S
N912 C915 1.350 . S
N913 S911 1.610 . S
N913 C914 1.351 . S
C914 C908 1.428 . S
C914 N913 1.351 . S
C914 C915 1.434 . S
C915 C906 1.429 . S
C915 N912 1.350 . S
C915 C914 1.434 . S
C916 C917 1.369 . S
C916 C918 1.419 . S
C916 H920 0.930 . S
C917 C916 1.369 . S
C917 C926 1.429 . S
C918 C916 1.419 . S
C918 C919 1.363 . S
C918 H921 0.929 . S
C919 C918 1.363 . S
C919 C925 1.428 . S
H920 C916 0.930 . S
H921 C918 0.929 . S
S922 N923 1.613 . S
S922 N924 1.610 . S
N923 S922 1.613 . S
N923 C926 1.350 . S
N924 S922 1.610 . S
N924 C925 1.351 . S
C925 C919 1.428 . S
C925 N924 1.351 . S
C925 C926 1.434 . S
C926 C917 1.429 . S
C926 N923 1.350 . S
C926 C925 1.434 . S
C927 C928 1.369 . S
C927 C929 1.419 . S
C927 H931 0.930 . S
C928 C927 1.369 . S
C928 C937 1.429 . S
C929 C927 1.419 . S
C929 C930 1.363 . S
C929 H932 0.929 . S
C930 C929 1.363 . S
C930 C936 1.428 . S
H931 C927 0.930 . S
H932 C929 0.929 . S
S933 N934 1.613 . S
S933 N935 1.610 . S
N934 S933 1.613 . S
N934 C937 1.350 . S
N935 S933 1.610 . S
N935 C936 1.351 . S
C936 C930 1.428 . S
C936 N935 1.351 . S
C936 C937 1.434 . S
C937 C928 1.429 . S
C937 N934 1.350 . S
C937 C936 1.434 . S
C938 C939 1.369 . S
C938 C940 1.419 . S
C938 H942 0.930 . S
C939 C938 1.369 . S
C939 C948 1.429 . S
C940 C938 1.419 . S
C940 C941 1.363 . S
C940 H943 0.929 . S
C941 C940 1.363 . S
C941 C947 1.428 . S
H942 C938 0.930 . S
H943 C940 0.929 . S
S944 N945 1.613 . S
S944 N946 1.610 . S
N945 S944 1.613 . S
N945 C948 1.350 . S
N946 S944 1.610 . S
N946 C947 1.351 . S
C947 C941 1.428 . S
C947 N946 1.351 . S
C947 C948 1.434 . S
C948 C939 1.429 . S
C948 N945 1.350 . S
C948 C947 1.434 . S
C949 C950 1.369 . S
C949 C951 1.419 . S
C949 H953 0.930 . S
C950 C949 1.369 . S
C950 C959 1.429 . S
C951 C949 1.419 . S
C951 C952 1.363 . S
C951 H954 0.929 . S
C952 C951 1.363 . S
C952 C958 1.428 . S
H953 C949 0.930 . S
H954 C951 0.929 . S
S955 N956 1.613 . S
S955 N957 1.610 . S
N956 S955 1.613 . S
N956 C959 1.350 . S
N957 S955 1.610 . S
N957 C958 1.351 . S
C958 C952 1.428 . S
C958 N957 1.351 . S
C958 C959 1.434 . S
C959 C950 1.429 . S
C959 N956 1.350 . S
C959 C958 1.434 . S
C960 C961 1.369 . S
C960 C962 1.419 . S
C960 H964 0.930 . S
C961 C960 1.369 . S
C961 C970 1.429 . S
C962 C960 1.419 . S
C962 C963 1.363 . S
C962 H965 0.929 . S
C963 C962 1.363 . S
C963 C969 1.428 . S
H964 C960 0.930 . S
H965 C962 0.929 . S
S966 N967 1.613 . S
S966 N968 1.610 . S
N967 S966 1.613 . S
N967 C970 1.350 . S
N968 S966 1.610 . S
N968 C969 1.351 . S
C969 C963 1.428 . S
C969 N968 1.351 . S
C969 C970 1.434 . S
C970 C961 1.429 . S
C970 N967 1.350 . S
C970 C969 1.434 . S
C971 C972 1.369 . S
C971 C973 1.419 . S
C971 H975 0.930 . S
C972 C971 1.369 . S
C972 C981 1.429 . S
C973 C971 1.419 . S
C973 C974 1.363 . S
C973 H976 0.929 . S
C974 C973 1.363 . S
C974 C980 1.428 . S
H975 C971 0.930 . S
H976 C973 0.929 . S
S977 N978 1.613 . S
S977 N979 1.610 . S
N978 S977 1.613 . S
N978 C981 1.350 . S
N979 S977 1.610 . S
N979 C980 1.351 . S
C980 C974 1.428 . S
C980 N979 1.351 . S
C980 C981 1.434 . S
C981 C972 1.429 . S
C981 N978 1.350 . S
C981 C980 1.434 . S
C982 C983 1.369 . S
C982 C984 1.419 . S
C982 H986 0.930 . S
C983 C982 1.369 . S
C983 C992 1.429 . S
C984 C982 1.419 . S
C984 C985 1.363 . S
C984 H987 0.929 . S
C985 C984 1.363 . S
C985 C991 1.428 . S
H986 C982 0.930 . S
H987 C984 0.929 . S
S988 N989 1.613 . S
S988 N990 1.610 . S
N989 S988 1.613 . S
N989 C992 1.350 . S
N990 S988 1.610 . S
N990 C991 1.351 . S
C991 C985 1.428 . S
C991 N990 1.351 . S
C991 C992 1.434 . S
C992 C983 1.429 . S
C992 N989 1.350 . S
C992 C991 1.434 . S
C993 C994 1.369 . S
C993 C995 1.419 . S
C993 H997 0.930 . S
C994 C993 1.369 . S
C994 C1003 1.429 . S
C995 C993 1.419 . S
C995 C996 1.363 . S
C995 H998 0.929 . S
C996 C995 1.363 . S
C996 C1002 1.428 . S
H997 C993 0.930 . S
H998 C995 0.929 . S
S999 N1000 1.613 . S
S999 N1001 1.610 . S
N1000 S999 1.613 . S
N1000 C1003 1.350 . S
N1001 S999 1.610 . S
N1001 C1002 1.351 . S
C1002 C996 1.428 . S
C1002 N1001 1.351 . S
C1002 C1003 1.434 . S
C1003 C994 1.429 . S
C1003 N1000 1.350 . S
C1003 C1002 1.434 . S
C1004 C1005 1.369 . S
C1004 C1006 1.419 . S
C1004 H1008 0.930 . S
C1005 C1004 1.369 . S
C1005 C1014 1.429 . S
C1006 C1004 1.419 . S
C1006 C1007 1.363 . S
C1006 H1009 0.929 . S
C1007 C1006 1.363 . S
C1007 C1013 1.428 . S
H1008 C1004 0.930 . S
H1009 C1006 0.929 . S
S1010 N1011 1.613 . S
S1010 N1012 1.610 . S
N1011 S1010 1.613 . S
N1011 C1014 1.350 . S
N1012 S1010 1.610 . S
N1012 C1013 1.351 . S
C1013 C1007 1.428 . S
C1013 N1012 1.351 . S
C1013 C1014 1.434 . S
C1014 C1005 1.429 . S
C1014 N1011 1.350 . S
C1014 C1013 1.434 . S
C1015 C1016 1.369 . S
C1015 C1017 1.419 . S
C1015 H1019 0.930 . S
C1016 C1015 1.369 . S
C1016 C1025 1.429 . S
C1017 C1015 1.419 . S
C1017 C1018 1.363 . S
C1017 H1020 0.929 . S
C1018 C1017 1.363 . S
C1018 C1024 1.428 . S
H1019 C1015 0.930 . S
H1020 C1017 0.929 . S
S1021 N1022 1.613 . S
S1021 N1023 1.610 . S
N1022 S1021 1.613 . S
N1022 C1025 1.350 . S
N1023 S1021 1.610 . S
N1023 C1024 1.351 . S
C1024 C1018 1.428 . S
C1024 N1023 1.351 . S
C1024 C1025 1.434 . S
C1025 C1016 1.429 . S
C1025 N1022 1.350 . S
C1025 C1024 1.434 . S
C1026 C1027 1.369 . S
C1026 C1028 1.419 . S
C1026 H1030 0.930 . S
C1027 C1026 1.369 . S
C1027 C1036 1.429 . S
C1028 C1026 1.419 . S
C1028 C1029 1.363 . S
C1028 H1031 0.929 . S
C1029 C1028 1.363 . S
C1029 C1035 1.428 . S
H1030 C1026 0.930 . S
H1031 C1028 0.929 . S
S1032 N1033 1.613 . S
S1032 N1034 1.610 1_556 S
N1033 S1032 1.613 . S
N1033 C1036 1.350 1_556 S
N1034 S1032 1.610 1_554 S
N1034 C1035 1.351 . S
C1035 C1029 1.428 . S
C1035 N1034 1.351 . S
C1035 C1036 1.434 . S
C1036 C1027 1.429 . S
C1036 N1033 1.350 1_554 S
C1036 C1035 1.434 . S
C1037 C1038 1.369 . S
C1037 C1039 1.419 . S
C1037 H1041 0.935 . S
C1038 C1037 1.369 . S
C1038 C1047 1.429 . S
C1039 C1037 1.419 . S
C1039 C1040 1.363 . S
C1039 H1042 0.929 . S
C1040 C1039 1.363 . S
C1040 C1046 1.428 . S
H1041 C1037 0.935 . S
H1042 C1039 0.929 . S
S1043 N1044 1.613 . S
S1043 N1045 1.610 . S
N1044 S1043 1.613 . S
N1044 C1047 1.350 . S
N1045 S1043 1.610 . S
N1045 C1046 1.351 . S
C1046 C1040 1.428 . S
C1046 N1045 1.351 . S
C1046 C1047 1.434 . S
C1047 C1038 1.429 . S
C1047 N1044 1.350 . S
C1047 C1046 1.434 . S
C1048 C1049 1.369 . S
C1048 C1050 1.419 . S
C1048 H1052 0.930 . S
C1049 C1048 1.369 . S
C1049 C1058 1.429 . S
C1050 C1048 1.419 . S
C1050 C1051 1.363 . S
C1050 H1053 0.929 . S
C1051 C1050 1.363 . S
C1051 C1057 1.428 . S
H1052 C1048 0.930 . S
H1053 C1050 0.929 . S
S1054 N1055 1.613 . S
S1054 N1056 1.610 . S
N1055 S1054 1.613 . S
N1055 C1058 1.350 . S
N1056 S1054 1.610 . S
N1056 C1057 1.351 . S
C1057 C1051 1.428 . S
C1057 N1056 1.351 . S
C1057 C1058 1.434 . S
C1058 C1049 1.429 . S
C1058 N1055 1.350 . S
C1058 C1057 1.434 . S
C1059 C1060 1.369 . S
C1059 C1061 1.419 . S
C1059 H1063 0.930 . S
C1060 C1059 1.369 . S
C1060 C1069 1.429 1_556 S
C1061 C1059 1.419 . S
C1061 C1062 1.363 . S
C1061 H1064 0.929 . S
C1062 C1061 1.363 . S
C1062 C1068 1.428 . S
H1063 C1059 0.930 . S
H1064 C1061 0.929 . S
S1065 N1066 1.613 . S
S1065 N1067 1.610 . S
N1066 S1065 1.613 . S
N1066 C1069 1.350 . S
N1067 S1065 1.610 . S
N1067 C1068 1.351 1_554 S
C1068 C1062 1.428 . S
C1068 N1067 1.351 1_556 S
C1068 C1069 1.434 1_556 S
C1069 C1060 1.429 1_554 S
C1069 N1066 1.350 . S
C1069 C1068 1.434 1_554 S
C1070 C1071 1.369 . S
C1070 C1072 1.419 . S
C1070 H1074 0.930 . S
C1071 C1070 1.369 . S
C1071 C1080 1.429 . S
C1072 C1070 1.419 . S
C1072 C1073 1.363 . S
C1072 H1075 0.929 . S
C1073 C1072 1.363 . S
C1073 C1079 1.428 . S
H1074 C1070 0.930 . S
H1075 C1072 0.929 . S
S1076 N1077 1.613 . S
S1076 N1078 1.610 1_554 S
N1077 S1076 1.613 . S
N1077 C1080 1.350 1_554 S
N1078 S1076 1.610 1_556 S
N1078 C1079 1.351 . S
C1079 C1073 1.428 . S
C1079 N1078 1.351 . S
C1079 C1080 1.434 . S
C1080 C1071 1.429 . S
C1080 N1077 1.350 1_556 S
C1080 C1079 1.434 . S
C1081 C1082 1.369 . S
C1081 C1083 1.419 . S
C1081 H1085 0.930 . S
C1082 C1081 1.369 . S
C1082 C1091 1.429 . S
C1083 C1081 1.419 . S
C1083 C1084 1.363 . S
C1083 H1086 0.929 . S
C1084 C1083 1.363 . S
C1084 C1090 1.428 . S
H1085 C1081 0.930 . S
H1086 C1083 0.929 . S
S1087 N1088 1.613 . S
S1087 N1089 1.610 . S
N1088 S1087 1.613 . S
N1088 C1091 1.350 . S
N1089 S1087 1.610 . S
N1089 C1090 1.351 . S
C1090 C1084 1.428 . S
C1090 N1089 1.351 . S
C1090 C1091 1.434 . S
C1091 C1082 1.429 . S
C1091 N1088 1.350 . S
C1091 C1090 1.434 . S
C1092 C1093 1.369 . S
C1092 C1094 1.419 . S
C1092 H1096 0.930 1_556 S
C1093 C1092 1.369 . S
C1093 C1102 1.429 . S
C1094 C1092 1.419 . S
C1094 C1095 1.363 . S
C1094 H1097 0.929 . S
C1095 C1094 1.363 . S
C1095 C1101 1.428 . S
H1096 C1092 0.930 1_554 S
H1097 C1094 0.929 . S
S1098 N1099 1.613 . S
S1098 N1100 1.610 . S
N1099 S1098 1.613 . S
N1099 C1102 1.350 . S
N1100 S1098 1.610 . S
N1100 C1101 1.351 . S
C1101 C1095 1.428 . S
C1101 N1100 1.351 . S
C1101 C1102 1.434 . S
C1102 C1093 1.429 . S
C1102 N1099 1.350 . S
C1102 C1101 1.434 . S
C1103 C1104 1.369 . S
C1103 C1105 1.419 . S
C1103 H1107 0.930 . S
C1104 C1103 1.369 . S
C1104 C1113 1.429 . S
C1105 C1103 1.419 . S
C1105 C1106 1.363 . S
C1105 H1108 0.929 . S
C1106 C1105 1.363 . S
C1106 C1112 1.428 . S
H1107 C1103 0.930 . S
H1108 C1105 0.929 . S
S1109 N1110 1.613 . S
S1109 N1111 1.610 . S
N1110 S1109 1.613 . S
N1110 C1113 1.350 . S
N1111 S1109 1.610 . S
N1111 C1112 1.351 . S
C1112 C1106 1.428 . S
C1112 N1111 1.351 . S
C1112 C1113 1.434 . S
C1113 C1104 1.429 . S
C1113 N1110 1.350 . S
C1113 C1112 1.434 . S
C1114 C1115 1.369 . S
C1114 C1116 1.419 . S
C1114 H1118 0.930 . S
C1115 C1114 1.369 . S
C1115 C1124 1.435 . S
C1116 C1114 1.419 . S
C1116 C1117 1.363 . S
C1116 H1119 0.929 . S
C1117 C1116 1.363 . S
C1117 C1123 1.428 . S
H1118 C1114 0.930 . S
H1119 C1116 0.929 . S
S1120 N1121 1.613 . S
S1120 N1122 1.610 . S
N1121 S1120 1.613 . S
N1121 C1124 1.337 1_554 S
N1122 S1120 1.610 . S
N1122 C1123 1.351 1_554 S
C1123 C1117 1.428 . S
C1123 N1122 1.351 1_556 S
C1123 C1124 1.440 . S
C1124 C1115 1.435 . S
C1124 N1121 1.337 1_556 S
C1124 C1123 1.440 . S
C1125 C1126 1.369 . S
C1125 C1127 1.419 . S
C1125 H1129 0.930 . S
C1126 C1125 1.369 . S
C1126 C1135 1.429 . S
C1127 C1125 1.419 . S
C1127 C1128 1.363 . S
C1127 H1130 0.929 . S
C1128 C1127 1.363 . S
C1128 C1134 1.428 . S
H1129 C1125 0.930 . S
H1130 C1127 0.929 . S
S1131 N1132 1.613 . S
S1131 N1133 1.610 1_556 S
N1132 S1131 1.613 . S
N1132 C1135 1.350 1_556 S
N1133 S1131 1.610 1_554 S
N1133 C1134 1.351 . S
C1134 C1128 1.428 . S
C1134 N1133 1.351 . S
C1134 C1135 1.434 . S
C1135 C1126 1.429 . S
C1135 N1132 1.350 1_554 S
C1135 C1134 1.434 . S
C1136 C1137 1.369 . S
C1136 C1138 1.419 . S
C1136 H1140 0.930 . S
C1137 C1136 1.369 . S
C1137 C1146 1.429 . S
C1138 C1136 1.419 . S
C1138 C1139 1.363 . S
C1138 H1141 0.929 . S
C1139 C1138 1.363 . S
C1139 C1145 1.428 . S
H1140 C1136 0.930 . S
H1141 C1138 0.929 . S
S1142 N1143 1.613 . S
S1142 N1144 1.610 1_556 S
N1143 S1142 1.613 . S
N1143 C1146 1.350 1_556 S
N1144 S1142 1.610 1_554 S
N1144 C1145 1.351 . S
C1145 C1139 1.428 . S
C1145 N1144 1.351 . S
C1145 C1146 1.434 . S
C1146 C1137 1.429 . S
C1146 N1143 1.350 1_554 S
C1146 C1145 1.434 . S
C1147 C1148 1.369 . S
C1147 C1149 1.419 . S
C1147 H1151 0.930 . S
C1148 C1147 1.369 . S
C1148 C1157 1.429 . S
C1149 C1147 1.419 . S
C1149 C1150 1.363 . S
C1149 H1152 0.929 . S
C1150 C1149 1.363 . S
C1150 C1156 1.428 . S
H1151 C1147 0.930 . S
H1152 C1149 0.929 . S
S1153 N1154 1.613 . S
S1153 N1155 1.610 . S
N1154 S1153 1.613 . S
N1154 C1157 1.350 . S
N1155 S1153 1.610 . S
N1155 C1156 1.351 . S
C1156 C1150 1.428 . S
C1156 N1155 1.351 . S
C1156 C1157 1.434 . S
C1157 C1148 1.429 . S
C1157 N1154 1.350 . S
C1157 C1156 1.434 . S
C1158 C1159 1.369 . S
C1158 C1160 1.419 . S
C1158 H1162 0.930 . S
C1159 C1158 1.369 . S
C1159 C1168 1.429 . S
C1160 C1158 1.419 . S
C1160 C1161 1.363 . S
C1160 H1163 0.929 . S
C1161 C1160 1.363 . S
C1161 C1167 1.428 . S
H1162 C1158 0.930 . S
H1163 C1160 0.929 . S
S1164 N1165 1.613 . S
S1164 N1166 1.610 . S
N1165 S1164 1.613 . S
N1165 C1168 1.350 . S
N1166 S1164 1.610 . S
N1166 C1167 1.351 . S
C1167 C1161 1.428 . S
C1167 N1166 1.351 . S
C1167 C1168 1.434 . S
C1168 C1159 1.429 . S
C1168 N1165 1.350 . S
C1168 C1167 1.434 . S
C1169 C1170 1.369 . S
C1169 C1171 1.419 . S
C1169 H1173 0.930 . S
C1170 C1169 1.369 . S
C1170 C1179 1.429 . S
C1171 C1169 1.419 . S
C1171 C1172 1.363 . S
C1171 H1174 0.929 . S
C1172 C1171 1.363 . S
C1172 C1178 1.428 . S
H1173 C1169 0.930 . S
H1174 C1171 0.929 . S
S1175 N1176 1.613 . S
S1175 N1177 1.610 . S
N1176 S1175 1.613 . S
N1176 C1179 1.350 . S
N1177 S1175 1.610 . S
N1177 C1178 1.351 . S
C1178 C1172 1.428 . S
C1178 N1177 1.351 . S
C1178 C1179 1.434 . S
C1179 C1170 1.429 . S
C1179 N1176 1.350 . S
C1179 C1178 1.434 . S
C1180 C1181 1.369 . S
C1180 C1182 1.419 . S
C1180 H1184 0.930 . S
C1181 C1180 1.369 . S
C1181 C1190 1.429 . S
C1182 C1180 1.419 . S
C1182 C1183 1.363 . S
C1182 H1185 0.929 . S
C1183 C1182 1.363 . S
C1183 C1189 1.428 . S
H1184 C1180 0.930 . S
H1185 C1182 0.929 . S
S1186 N1187 1.613 . S
S1186 N1188 1.610 . S
N1187 S1186 1.613 . S
N1187 C1190 1.350 . S
N1188 S1186 1.610 . S
N1188 C1189 1.351 . S
C1189 C1183 1.428 . S
C1189 N1188 1.351 . S
C1189 C1190 1.434 . S
C1190 C1181 1.429 . S
C1190 N1187 1.350 . S
C1190 C1189 1.434 . S
C1191 C1192 1.369 . S
C1191 C1193 1.419 . S
C1191 H1195 0.930 . S
C1192 C1191 1.369 . S
C1192 C1201 1.429 1_455 S
C1193 C1191 1.419 . S
C1193 C1194 1.363 . S
C1193 H1196 0.929 . S
C1194 C1193 1.363 . S
C1194 C1200 1.428 1_455 S
H1195 C1191 0.930 . S
H1196 C1193 0.929 . S
S1197 N1198 1.613 . S
S1197 N1199 1.610 . S
N1198 S1197 1.613 . S
N1198 C1201 1.350 . S
N1199 S1197 1.610 . S
N1199 C1200 1.351 . S
C1200 C1194 1.428 1_655 S
C1200 N1199 1.351 . S
C1200 C1201 1.434 . S
C1201 C1192 1.429 1_655 S
C1201 N1198 1.350 . S
C1201 C1200 1.434 . S
C1202 C1203 1.369 . S
C1202 C1204 1.419 . S
C1202 H1206 0.930 . S
C1203 C1202 1.369 . S
C1203 C1212 1.429 . S
C1204 C1202 1.419 . S
C1204 C1205 1.363 . S
C1204 H1207 0.929 . S
C1205 C1204 1.363 . S
C1205 C1211 1.428 . S
H1206 C1202 0.930 . S
H1207 C1204 0.929 . S
S1208 N1209 1.613 . S
S1208 N1210 1.610 . S
N1209 S1208 1.613 . S
N1209 C1212 1.350 . S
N1210 S1208 1.610 . S
N1210 C1211 1.351 . S
C1211 C1205 1.428 . S
C1211 N1210 1.351 . S
C1211 C1212 1.434 . S
C1212 C1203 1.429 . S
C1212 N1209 1.350 . S
C1212 C1211 1.434 . S
C1213 C1214 1.369 . S
C1213 C1215 1.419 . S
C1213 H1217 0.930 . S
C1214 C1213 1.369 . S
C1214 C1223 1.429 . S
C1215 C1213 1.419 . S
C1215 C1216 1.363 . S
C1215 H1218 0.929 . S
C1216 C1215 1.363 . S
C1216 C1222 1.428 . S
H1217 C1213 0.930 . S
H1218 C1215 0.929 . S
S1219 N1220 1.606 . S
S1219 N1221 1.605 . S
N1220 S1219 1.606 . S
N1220 C1223 1.350 . S
N1221 S1219 1.605 . S
N1221 C1222 1.341 . S
C1222 C1216 1.428 . S
C1222 N1221 1.341 . S
C1222 C1223 1.434 . S
C1223 C1214 1.429 . S
C1223 N1220 1.350 . S
C1223 C1222 1.434 . S
C1224 C1225 1.369 1_545 S
C1224 C1226 1.419 . S
C1224 H1228 0.930 . S
C1225 C1224 1.369 1_565 S
C1225 C1234 1.429 . S
C1226 C1224 1.419 . S
C1226 C1227 1.363 1_545 S
C1226 H1229 0.929 . S
C1227 C1226 1.363 1_565 S
C1227 C1233 1.428 . S
H1228 C1224 0.930 . S
H1229 C1226 0.929 . S
S1230 N1231 1.613 . S
S1230 N1232 1.610 . S
N1231 S1230 1.613 . S
N1231 C1234 1.350 . S
N1232 S1230 1.610 . S
N1232 C1233 1.351 . S
C1233 C1227 1.428 . S
C1233 N1232 1.351 . S
C1233 C1234 1.434 . S
C1234 C1225 1.429 . S
C1234 N1231 1.350 . S
C1234 C1233 1.434 . S
C1235 C1236 1.369 . S
C1235 C1237 1.419 . S
C1235 H1239 0.930 . S
C1236 C1235 1.369 . S
C1236 C1245 1.429 . S
C1237 C1235 1.419 . S
C1237 C1238 1.363 . S
C1237 H1240 0.929 . S
C1238 C1237 1.363 . S
C1238 C1244 1.422 1_455 S
H1239 C1235 0.930 . S
H1240 C1237 0.929 . S
S1241 N1242 1.613 1_655 S
S1241 N1243 1.610 . S
N1242 S1241 1.613 1_455 S
N1242 C1245 1.350 . S
N1243 S1241 1.610 . S
N1243 C1244 1.352 . S
C1244 C1238 1.422 1_655 S
C1244 N1243 1.352 . S
C1244 C1245 1.440 1_655 S
C1245 C1236 1.429 . S
C1245 N1242 1.350 . S
C1245 C1244 1.440 1_455 S
C1246 C1247 1.369 . S
C1246 C1248 1.419 . S
C1246 H1250 0.930 . S
C1247 C1246 1.369 . S
C1247 C1256 1.429 . S
C1248 C1246 1.419 . S
C1248 C1249 1.363 . S
C1248 H1251 0.929 . S
C1249 C1248 1.363 . S
C1249 C1255 1.428 . S
H1250 C1246 0.930 . S
H1251 C1248 0.929 . S
S1252 N1253 1.613 . S
S1252 N1254 1.610 . S
N1253 S1252 1.613 . S
N1253 C1256 1.350 . S
N1254 S1252 1.610 . S
N1254 C1255 1.351 . S
C1255 C1249 1.428 . S
C1255 N1254 1.351 . S
C1255 C1256 1.434 . S
C1256 C1247 1.429 . S
C1256 N1253 1.350 . S
C1256 C1255 1.434 . S
C1257 C1258 1.369 . S
C1257 C1259 1.419 . S
C1257 H1261 0.930 . S
C1258 C1257 1.369 . S
C1258 C1267 1.429 . S
C1259 C1257 1.419 . S
C1259 C1260 1.363 . S
C1259 H1262 0.929 . S
C1260 C1259 1.363 . S
C1260 C1266 1.428 . S
H1261 C1257 0.930 . S
H1262 C1259 0.929 . S
S1263 N1264 1.613 . S
S1263 N1265 1.610 . S
N1264 S1263 1.613 . S
N1264 C1267 1.350 . S
N1265 S1263 1.610 . S
N1265 C1266 1.351 . S
C1266 C1260 1.428 . S
C1266 N1265 1.351 . S
C1266 C1267 1.434 . S
C1267 C1258 1.429 . S
C1267 N1264 1.350 . S
C1267 C1266 1.434 . S
C1268 C1269 1.369 . S
C1268 C1270 1.419 . S
C1268 H1272 0.930 . S
C1269 C1268 1.369 . S
C1269 C1278 1.429 . S
C1270 C1268 1.419 . S
C1270 C1271 1.363 . S
C1270 H1273 0.929 . S
C1271 C1270 1.363 . S
C1271 C1277 1.428 . S
H1272 C1268 0.930 . S
H1273 C1270 0.929 . S
S1274 N1275 1.613 . S
S1274 N1276 1.610 . S
N1275 S1274 1.613 . S
N1275 C1278 1.350 . S
N1276 S1274 1.610 . S
N1276 C1277 1.351 . S
C1277 C1271 1.428 . S
C1277 N1276 1.351 . S
C1277 C1278 1.434 . S
C1278 C1269 1.429 . S
C1278 N1275 1.350 . S
C1278 C1277 1.434 . S
C1279 C1280 1.369 . S
C1279 C1281 1.419 . S
C1279 H1283 0.930 . S
C1280 C1279 1.369 . S
C1280 C1289 1.429 . S
C1281 C1279 1.419 . S
C1281 C1282 1.363 . S
C1281 H1284 0.929 . S
C1282 C1281 1.363 . S
C1282 C1288 1.428 . S
H1283 C1279 0.930 . S
H1284 C1281 0.929 . S
S1285 N1286 1.613 . S
S1285 N1287 1.610 . S
N1286 S1285 1.613 . S
N1286 C1289 1.350 . S
N1287 S1285 1.610 . S
N1287 C1288 1.351 . S
C1288 C1282 1.428 . S
C1288 N1287 1.351 . S
C1288 C1289 1.434 . S
C1289 C1280 1.429 . S
C1289 N1286 1.350 . S
C1289 C1288 1.434 . S
C1290 C1291 1.369 1_565 S
C1290 C1292 1.419 . S
C1290 H1294 0.930 . S
C1291 C1290 1.369 1_545 S
C1291 C1300 1.429 . S
C1292 C1290 1.419 . S
C1292 C1293 1.363 1_565 S
C1292 H1295 0.929 . S
C1293 C1292 1.363 1_545 S
C1293 C1299 1.428 . S
H1294 C1290 0.930 . S
H1295 C1292 0.929 . S
S1296 N1297 1.613 . S
S1296 N1298 1.610 . S
N1297 S1296 1.613 . S
N1297 C1300 1.350 . S
N1298 S1296 1.610 . S
N1298 C1299 1.351 . S
C1299 C1293 1.428 . S
C1299 N1298 1.351 . S
C1299 C1300 1.434 . S
C1300 C1291 1.429 . S
C1300 N1297 1.350 . S
C1300 C1299 1.434 . S
C1301 C1302 1.369 . S
C1301 C1303 1.419 1_655 S
C1301 H1305 0.930 1_655 S
C1302 C1301 1.369 . S
C1302 C1311 1.429 . S
C1303 C1301 1.419 1_455 S
C1303 C1304 1.363 1_455 S
C1303 H1306 0.929 . S
C1304 C1303 1.363 1_655 S
C1304 C1310 1.428 . S
H1305 C1301 0.930 1_455 S
H1306 C1303 0.929 . S
S1307 N1308 1.613 . S
S1307 N1309 1.610 . S
N1308 S1307 1.613 . S
N1308 C1311 1.350 . S
N1309 S1307 1.610 . S
N1309 C1310 1.351 . S
C1310 C1304 1.428 . S
C1310 N1309 1.351 . S
C1310 C1311 1.434 . S
C1311 C1302 1.429 . S
C1311 N1308 1.350 . S
C1311 C1310 1.434 . S
C1312 C1313 1.369 . S
C1312 C1314 1.419 . S
C1312 H1316 0.930 . S
C1313 C1312 1.369 . S
C1313 C1322 1.429 . S
C1314 C1312 1.419 . S
C1314 C1315 1.363 . S
C1314 H1317 0.929 . S
C1315 C1314 1.363 . S
C1315 C1321 1.428 . S
H1316 C1312 0.930 . S
H1317 C1314 0.929 . S
S1318 N1319 1.613 . S
S1318 N1320 1.610 . S
N1319 S1318 1.613 . S
N1319 C1322 1.350 . S
N1320 S1318 1.610 . S
N1320 C1321 1.351 . S
C1321 C1315 1.428 . S
C1321 N1320 1.351 . S
C1321 C1322 1.434 . S
C1322 C1313 1.429 . S
C1322 N1319 1.350 . S
C1322 C1321 1.434 . S
C1323 C1324 1.369 . S
C1323 C1325 1.419 . S
C1323 H1327 0.930 . S
C1324 C1323 1.369 . S
C1324 C1333 1.429 . S
C1325 C1323 1.419 . S
C1325 C1326 1.363 . S
C1325 H1328 0.929 . S
C1326 C1325 1.363 . S
C1326 C1332 1.428 . S
H1327 C1323 0.930 . S
H1328 C1325 0.929 . S
S1329 N1330 1.613 . S
S1329 N1331 1.610 . S
N1330 S1329 1.613 . S
N1330 C1333 1.350 . S
N1331 S1329 1.610 . S
N1331 C1332 1.351 . S
C1332 C1326 1.428 . S
C1332 N1331 1.351 . S
C1332 C1333 1.434 . S
C1333 C1324 1.429 . S
C1333 N1330 1.350 . S
C1333 C1332 1.434 . S
C1334 C1335 1.369 . S
C1334 C1336 1.419 . S
C1334 H1338 0.930 . S
C1335 C1334 1.369 . S
C1335 C1344 1.429 . S
C1336 C1334 1.419 . S
C1336 C1337 1.363 . S
C1336 H1339 0.929 . S
C1337 C1336 1.363 . S
C1337 C1343 1.428 . S
H1338 C1334 0.930 . S
H1339 C1336 0.929 . S
S1340 N1341 1.613 . S
S1340 N1342 1.610 . S
N1341 S1340 1.613 . S
N1341 C1344 1.350 . S
N1342 S1340 1.610 . S
N1342 C1343 1.351 . S
C1343 C1337 1.428 . S
C1343 N1342 1.351 . S
C1343 C1344 1.434 . S
C1344 C1335 1.429 . S
C1344 N1341 1.350 . S
C1344 C1343 1.434 . S
C1345 C1346 1.369 . S
C1345 C1347 1.419 . S
C1345 H1349 0.930 . S
C1346 C1345 1.369 . S
C1346 C1355 1.429 . S
C1347 C1345 1.419 . S
C1347 C1348 1.363 . S
C1347 H1350 0.929 . S
C1348 C1347 1.363 . S
C1348 C1354 1.428 . S
H1349 C1345 0.930 . S
H1350 C1347 0.929 . S
S1351 N1352 1.613 . S
S1351 N1353 1.610 . S
N1352 S1351 1.613 . S
N1352 C1355 1.350 . S
N1353 S1351 1.610 . S
N1353 C1354 1.351 . S
C1354 C1348 1.428 . S
C1354 N1353 1.351 . S
C1354 C1355 1.434 . S
C1355 C1346 1.429 . S
C1355 N1352 1.350 . S
C1355 C1354 1.434 . S
C1356 C1357 1.369 . S
C1356 C1358 1.419 . S
C1356 H1360 0.930 . S
C1357 C1356 1.369 . S
C1357 C1366 1.429 . S
C1358 C1356 1.419 . S
C1358 C1359 1.363 . S
C1358 H1361 0.929 . S
C1359 C1358 1.363 . S
C1359 C1365 1.428 . S
H1360 C1356 0.930 . S
H1361 C1358 0.929 . S
S1362 N1363 1.613 . S
S1362 N1364 1.610 . S
N1363 S1362 1.613 . S
N1363 C1366 1.350 . S
N1364 S1362 1.610 . S
N1364 C1365 1.351 . S
C1365 C1359 1.428 . S
C1365 N1364 1.351 . S
C1365 C1366 1.434 . S
C1366 C1357 1.429 . S
C1366 N1363 1.350 . S
C1366 C1365 1.434 . S
C1367 C1368 1.369 . S
C1367 C1369 1.419 . S
C1367 H1371 0.930 . S
C1368 C1367 1.369 . S
C1368 C1377 1.429 . S
C1369 C1367 1.419 . S
C1369 C1370 1.363 . S
C1369 H1372 0.929 . S
C1370 C1369 1.363 . S
C1370 C1376 1.428 . S
H1371 C1367 0.930 . S
H1372 C1369 0.929 . S
S1373 N1374 1.613 . S
S1373 N1375 1.610 . S
N1374 S1373 1.613 . S
N1374 C1377 1.350 . S
N1375 S1373 1.610 . S
N1375 C1376 1.351 . S
C1376 C1370 1.428 . S
C1376 N1375 1.351 . S
C1376 C1377 1.434 . S
C1377 C1368 1.429 . S
C1377 N1374 1.350 . S
C1377 C1376 1.434 . S
C1378 C1379 1.369 . S
C1378 C1380 1.419 . S
C1378 H1382 0.930 . S
C1379 C1378 1.369 . S
C1379 C1388 1.429 . S
C1380 C1378 1.419 . S
C1380 C1381 1.363 . S
C1380 H1383 0.929 . S
C1381 C1380 1.363 . S
C1381 C1387 1.428 . S
H1382 C1378 0.930 . S
H1383 C1380 0.929 . S
S1384 N1385 1.613 . S
S1384 N1386 1.610 . S
N1385 S1384 1.613 . S
N1385 C1388 1.350 . S
N1386 S1384 1.610 . S
N1386 C1387 1.351 . S
C1387 C1381 1.428 . S
C1387 N1386 1.351 . S
C1387 C1388 1.434 . S
C1388 C1379 1.429 . S
C1388 N1385 1.350 . S
C1388 C1387 1.434 . S
C1389 C1390 1.369 . S
C1389 C1391 1.419 . S
C1389 H1393 0.930 . S
C1390 C1389 1.369 . S
C1390 C1399 1.429 1_655 S
C1391 C1389 1.419 . S
C1391 C1392 1.363 . S
C1391 H1394 0.929 . S
C1392 C1391 1.363 . S
C1392 C1398 1.428 1_655 S
H1393 C1389 0.930 . S
H1394 C1391 0.929 . S
S1395 N1396 1.613 . S
S1395 N1397 1.610 . S
N1396 S1395 1.613 . S
N1396 C1399 1.350 . S
N1397 S1395 1.610 . S
N1397 C1398 1.351 . S
C1398 C1392 1.428 1_455 S
C1398 N1397 1.351 . S
C1398 C1399 1.434 . S
C1399 C1390 1.429 1_455 S
C1399 N1396 1.350 . S
C1399 C1398 1.434 . S
C1400 C1401 1.369 . S
C1400 C1402 1.419 . S
C1400 H1404 0.930 . S
C1401 C1400 1.369 . S
C1401 C1410 1.429 . S
C1402 C1400 1.419 . S
C1402 C1403 1.363 . S
C1402 H1405 0.929 . S
C1403 C1402 1.363 . S
C1403 C1409 1.428 . S
H1404 C1400 0.930 . S
H1405 C1402 0.929 . S
S1406 N1407 1.613 . S
S1406 N1408 1.610 . S
N1407 S1406 1.613 . S
N1407 C1410 1.350 . S
N1408 S1406 1.610 . S
N1408 C1409 1.351 . S
C1409 C1403 1.428 . S
C1409 N1408 1.351 . S
C1409 C1410 1.434 . S
C1410 C1401 1.429 . S
C1410 N1407 1.350 . S
C1410 C1409 1.434 . S
C1411 C1412 1.369 . S
C1411 C1413 1.419 . S
C1411 H1415 0.930 . S
C1412 C1411 1.369 . S
C1412 C1421 1.429 . S
C1413 C1411 1.419 . S
C1413 C1414 1.363 . S
C1413 H1416 0.922 . S
C1414 C1413 1.363 . S
C1414 C1420 1.428 . S
H1415 C1411 0.930 . S
H1416 C1413 0.922 . S
S1417 N1418 1.613 . S
S1417 N1419 1.610 . S
N1418 S1417 1.613 . S
N1418 C1421 1.350 . S
N1419 S1417 1.610 . S
N1419 C1420 1.351 . S
C1420 C1414 1.428 . S
C1420 N1419 1.351 . S
C1420 C1421 1.434 . S
C1421 C1412 1.429 . S
C1421 N1418 1.350 . S
C1421 C1420 1.434 . S
C631 C4 1.552 . S
C633 C458 1.553 1_655 S
C642 C26 1.572 . S
C644 C471 1.530 . S
C655 C500 1.483 1_545 S
C653 C32 1.508 . S
C664 C40 1.516 . S
C666 C513 1.466 . S
C675 C12 1.557 . S
C677 C534 1.516 . S
C686 C18 1.527 . S
C688 C563 1.502 . S
C697 C46 1.553 . S
C699 C542 1.537 . S
C710 C555 1.496 . S
C708 C68 1.559 . S
C721 C521 1.495 . S
C719 C74 1.517 . S
C730 C82 1.512 . S
C732 C492 1.487 1_545 S
C743 C450 1.526 1_655 S
C741 C54 1.565 . S
C752 C60 1.521 . S
C754 C479 1.513 . S
C763 C88 1.574 . S
C765 C584 1.560 . S
C774 C110 1.587 . S
C776 C597 1.548 . S
C787 C626 1.510 . S
C785 C116 1.540 . S
C796 C124 1.532 . S
C798 C261 1.485 . S
C807 C96 1.574 . S
C809 C282 1.528 . S
C818 C102 1.528 . S
C820 C311 1.509 . S
C829 C130 1.559 . S
C831 C290 1.557 . S
C840 C152 1.580 . S
C842 C303 1.514 . S
C853 C269 1.536 . S
C851 C158 1.525 . S
C864 C618 1.479 . S
C862 C166 1.528 . S
C875 C576 1.502 . S
C873 C138 1.556 . S
C886 C605 1.535 . S
C884 C144 1.536 . S
C895 C172 1.573 . S
C897 C332 1.542 . S
C906 C194 1.593 . S
C908 C345 1.549 . S
C917 C200 1.539 . S
C919 C374 1.511 . S
C928 C208 1.540 . S
C930 C387 1.495 . S
C941 C408 1.528 . S
C939 C180 1.572 . S
C952 C437 1.520 . S
C950 C186 1.534 . S
C963 C416 1.577 . S
C961 C214 1.574 . S
C974 C429 1.510 . S
C972 C236 1.575 . S
C983 C242 1.516 . S
C985 C395 1.530 . S
C996 C366 1.466 . S
C994 C250 1.516 . S
C1005 C222 1.562 . S
C1007 C324 1.516 . S
C1018 C353 1.529 . S
C1016 C228 1.525 . S
C1029 C264 1.365 . S
C1027 C5 1.210 . S
C1038 C25 1.394 . S
C1040 C285 1.297 . S
C1051 C313 1.318 . S
C1049 C33 1.240 . S
C1062 C334 1.281 . S
C1060 C39 1.368 . S
C1073 C348 1.321 . S
C1071 C11 1.407 . S
C1084 C376 1.291 . S
C1082 C19 1.184 1_556 S
C1093 C47 1.220 1_556 S
C1095 C369 1.300 . S
C1104 C67 1.424 . S
C1106 C327 1.229 . S
C1115 C75 1.237 1_556 S
C1117 C355 1.408 . S
C1126 C81 1.407 . S
C1128 C292 1.347 . S
C1139 C306 1.252 . S
C1137 C53 1.430 . S
C1148 C61 1.203 . S
C1150 C271 1.363 . S
C1161 C390 1.342 . S
C1159 C89 1.210 . S
C1170 C109 1.421 . S
C1172 C411 1.317 . S
C1181 C117 1.217 . S
C1183 C439 1.307 . S
C1194 C460 1.250 . S
C1192 C123 1.335 . S
C1203 C95 1.390 . S
C1205 C474 1.292 . S
C1214 C103 1.164 . S
C1216 C502 1.280 . S
C1225 C131 1.183 . S
C1227 C495 1.238 . S
C1236 C151 1.389 . S
C1238 C453 1.234 . S
C1249 C481 1.364 . S
C1247 C159 1.213 . S
C1258 C165 1.402 . S
C1260 C418 1.329 . S
C1269 C137 1.447 . S
C1271 C432 1.260 . S
C1282 C397 1.383 . S
C1280 C145 1.205 . S
C1293 C516 1.286 1_545 S
C1291 C173 1.186 . S
C1302 C193 1.355 . S
C1304 C537 1.259 1_655 S
C1313 C201 1.185 . S
C1315 C565 1.292 . S
C1326 C586 1.253 . S
C1324 C207 1.363 . S
C1337 C600 1.324 . S
C1335 C179 1.426 . S
C1346 C187 1.212 . S
C1348 C628 1.307 . S
C1357 C215 1.221 . S
C1359 C621 1.282 . S
C1368 C235 1.451 . S
C1370 C579 1.268 . S
C1381 C607 1.380 . S
C1379 C243 1.232 . S
C1392 C544 1.275 1_655 S
C1390 C249 1.340 . S
C1403 C558 1.254 . S
C1401 C221 1.424 . S
C1412 C229 1.184 . S
C1414 C523 1.303 1_545 S
