# Generated by pormake.
# Topology zzz, (3,6)-cn, num edge types: 1
# Building blocks:
#     Node 0, Type 0, BuildingBlock: PAMTOO_clean_linker_0, # of connection points: 3
#     Node 1, Type 0, BuildingBlock: PAMTOO_clean_linker_0, # of connection points: 3
#     Node 2, Type 0, BuildingBlock: PAMTOO_clean_linker_0, # of connection points: 3
#     Node 3, Type 0, BuildingBlock: PAMTOO_clean_linker_0, # of connection points: 3
#     Node 4, Type 0, BuildingBlock: PAMTOO_clean_linker_0, # of connection points: 3
#     Node 5, Type 0, BuildingBlock: PAMTOO_clean_linker_0, # of connection points: 3
#     Node 6, Type 0, BuildingBlock: PAMTOO_clean_linker_0, # of connection points: 3
#     Node 7, Type 0, BuildingBlock: PAMTOO_clean_linker_0, # of connection points: 3
#     Node 8, Type 1, BuildingBlock: KUMBUR_clean_sbu_0, # of connection points: 6
#     Node 9, Type 1, BuildingBlock: KUMBUR_clean_sbu_0, # of connection points: 6
#     Node 10, Type 1, BuildingBlock: KUMBUR_clean_sbu_0, # of connection points: 6
#     Node 11, Type 1, BuildingBlock: KUMBUR_clean_sbu_0, # of connection points: 6
#     Edge 12, Type (0, 1), BuildingBlock: ZUJKAS_clean_linker_0, # of connection points: 2
#     Edge 13, Type (0, 1), BuildingBlock: ZUJKAS_clean_linker_0, # of connection points: 2
#     Edge 14, Type (0, 1), BuildingBlock: ZUJKAS_clean_linker_0, # of connection points: 2
#     Edge 15, Type (0, 1), BuildingBlock: ZUJKAS_clean_linker_0, # of connection points: 2
#     Edge 16, Type (0, 1), BuildingBlock: ZUJKAS_clean_linker_0, # of connection points: 2
#     Edge 17, Type (0, 1), BuildingBlock: ZUJKAS_clean_linker_0, # of connection points: 2
#     Edge 18, Type (0, 1), BuildingBlock: ZUJKAS_clean_linker_0, # of connection points: 2
#     Edge 19, Type (0, 1), BuildingBlock: ZUJKAS_clean_linker_0, # of connection points: 2
#     Edge 20, Type (0, 1), BuildingBlock: ZUJKAS_clean_linker_0, # of connection points: 2
#     Edge 21, Type (0, 1), BuildingBlock: ZUJKAS_clean_linker_0, # of connection points: 2
#     Edge 22, Type (0, 1), BuildingBlock: ZUJKAS_clean_linker_0, # of connection points: 2
#     Edge 23, Type (0, 1), BuildingBlock: ZUJKAS_clean_linker_0, # of connection points: 2
#     Edge 24, Type (0, 1), BuildingBlock: ZUJKAS_clean_linker_0, # of connection points: 2
#     Edge 25, Type (0, 1), BuildingBlock: ZUJKAS_clean_linker_0, # of connection points: 2
#     Edge 26, Type (0, 1), BuildingBlock: ZUJKAS_clean_linker_0, # of connection points: 2
#     Edge 27, Type (0, 1), BuildingBlock: ZUJKAS_clean_linker_0, # of connection points: 2
#     Edge 28, Type (0, 1), BuildingBlock: ZUJKAS_clean_linker_0, # of connection points: 2
#     Edge 29, Type (0, 1), BuildingBlock: ZUJKAS_clean_linker_0, # of connection points: 2
#     Edge 30, Type (0, 1), BuildingBlock: ZUJKAS_clean_linker_0, # of connection points: 2
#     Edge 31, Type (0, 1), BuildingBlock: ZUJKAS_clean_linker_0, # of connection points: 2
#     Edge 32, Type (0, 1), BuildingBlock: ZUJKAS_clean_linker_0, # of connection points: 2
#     Edge 33, Type (0, 1), BuildingBlock: ZUJKAS_clean_linker_0, # of connection points: 2
#     Edge 34, Type (0, 1), BuildingBlock: ZUJKAS_clean_linker_0, # of connection points: 2
#     Edge 35, Type (0, 1), BuildingBlock: ZUJKAS_clean_linker_0, # of connection points: 2
# Relax obj value: 0.144
# Max RMSD: 0.152
# Mean RMSD: 0.111
data_MOF--net-zzz--node1-KUMBUR_clean_sbu_0--node2-PAMTOO_clean_linker_0--edge1-ZUJKAS_clean_linker_0
_symmetry_space_group_name_H-M    P1
_symmetry_Int_Tables_number       1
_symmetry_cell_setting            triclinic
loop_
_symmetry_equiv_pos_as_xyz
'x, y, z'
_cell_length_a     65.398331
_cell_length_b     65.352411
_cell_length_c     19.106842
_cell_angle_alpha  91.029793
_cell_angle_beta   90.322925
_cell_angle_gamma 89.986544
loop_
_atom_site_label
_atom_site_type_symbol
_atom_site_fract_x
_atom_site_fract_y
_atom_site_fract_z
_atom_type_partial_charge
H0 H 0.81111 0.55853 0.10781 0.0
H1 H 0.74938 0.55207 0.03501 0.0
H2 H 0.76649 0.52768 0.23452 0.0
H3 H 0.72276 0.50619 0.15771 0.0
C4 C 0.72729 0.51659 0.11512 0.0
O5 O 0.73562 0.53423 0.14518 0.0
H6 H 0.7389 0.50809 0.08353 0.0
C7 C 0.79569 0.55322 0.11708 0.0
C8 C 0.79118 0.54239 0.17828 0.0
C9 C 0.78092 0.55627 0.06486 0.0
C10 C 0.76082 0.5499 0.07549 0.0
C11 C 0.75545 0.53996 0.13684 0.0
C12 C 0.77064 0.536 0.18822 0.0
H13 H 0.98196 0.8148 0.13588 0.0
H14 H 0.98531 0.75452 0.04322 0.0
H15 H 0.01394 0.76679 0.24316 0.0
H16 H 0.03536 0.72873 0.14298 0.0
C17 C 0.02211 0.7299 0.10661 0.0
O18 O 1.00562 0.7379 0.14395 0.0
H19 H 0.02677 0.7405 0.06459 0.0
C20 C 0.98664 0.79891 0.13912 0.0
C21 C 0.998 0.79261 0.19746 0.0
C22 C 0.9824 0.78544 0.08289 0.0
C23 C 0.98875 0.76502 0.08619 0.0
C24 C 1.00011 0.75807 0.14325 0.0
C25 C 1.00507 0.77201 0.19893 0.0
H26 H 0.71999 0.98039 0.16767 0.0
H27 H 0.77903 0.98335 0.07082 0.0
H28 H 0.76925 0.01294 0.27107 0.0
H29 H 0.80516 0.03426 0.17015 0.0
C30 C 0.80379 0.02103 0.13303 0.0
O31 O 0.79678 1.00433 0.17018 0.0
H32 H 0.79254 0.02538 0.09193 0.0
C33 C 0.73592 0.98503 0.16981 0.0
C34 C 0.74296 0.99678 0.22718 0.0
C35 C 0.74871 0.98043 0.113 0.0
C36 C 0.76913 0.98685 0.11471 0.0
C37 C 0.77675 0.99849 0.17117 0.0
C38 C 0.76354 1.00372 0.22755 0.0
H39 H 0.56157 0.7287 0.17027 0.0
H40 H 0.55417 0.78799 0.08088 0.0
H41 H 0.53218 0.77708 0.28906 0.0
H42 H 0.50802 0.8153 0.20128 0.0
C43 C 0.51946 0.81272 0.15924 0.0
O44 O 0.53715 0.8051 0.18978 0.0
H45 H 0.51281 0.8014 0.12126 0.0
C46 C 0.5566 0.74449 0.17577 0.0
C47 C 0.54688 0.75109 0.2376 0.0
C48 C 0.55901 0.75761 0.11924 0.0
C49 C 0.55228 0.77785 0.12463 0.0
C50 C 0.54274 0.78506 0.18563 0.0
C51 C 0.53967 0.77155 0.24197 0.0
H52 H 0.22532 0.51912 0.12693 0.0
H53 H 0.28654 0.51429 0.20829 0.0
H54 H 0.27457 0.50122 0.99034 0.0
H55 H 0.31777 0.47817 0.06309 0.0
C56 C 0.31396 0.48733 0.11082 0.0
O57 O 0.30346 0.50471 0.09013 0.0
H58 H 0.30419 0.47761 0.1443 0.0
C59 C 0.24135 0.51554 0.11912 0.0
C60 C 0.24801 0.50996 0.05174 0.0
C61 C 0.25496 0.51687 0.17618 0.0
C62 C 0.27578 0.5131 0.16508 0.0
C63 C 0.28297 0.50734 0.09875 0.0
C64 C 0.26901 0.50542 0.0419 0.0
H65 H 0.06071 0.2198 0.10228 0.0
H66 H 0.04963 0.27854 0.19968 0.0
H67 H 0.02562 0.26533 0.99372 0.0
H68 H 0.03187 0.31812 0.03579 0.0
C69 C 0.0387 0.31158 0.08378 0.0
O70 O 0.02849 0.29347 0.09837 0.0
H71 H 0.05506 0.30836 0.07165 0.0
C72 C 0.05473 0.23525 0.09921 0.0
C73 C 0.04346 0.24083 0.0397 0.0
C74 C 0.05681 0.24858 0.1573 0.0
C75 C 0.0483 0.26822 0.15482 0.0
C76 C 0.03742 0.27459 0.09601 0.0
C77 C 0.03467 0.26074 0.0384 0.0
H78 H 0.31604 0.05084 0.11467 0.0
H79 H 0.25269 0.04842 0.17418 0.0
H80 H 0.26944 0.03844 0.95949 0.0
H81 H 0.21755 0.05431 0.99593 0.0
C82 C 0.22338 0.05365 0.05057 0.0
O83 O 0.23864 0.03881 0.05267 0.0
H84 H 0.2297 0.06905 0.06408 0.0
C85 C 0.30003 0.04937 0.10068 0.0
C86 C 0.29481 0.04539 0.03012 0.0
C87 C 0.28508 0.05029 0.15355 0.0
C88 C 0.26452 0.04739 0.1349 0.0
C89 C 0.25872 0.04306 0.06589 0.0
C90 C 0.27388 0.042 0.013 0.0
H91 H 0.47099 0.31483 0.08123 0.0
H92 H 0.47866 0.25569 0.17169 0.0
H93 H 0.50225 0.26699 0.96583 0.0
H94 H 0.52177 0.24362 0.1308 0.0
C95 C 0.51456 0.23163 0.09656 0.0
O96 O 0.49697 0.23895 0.06474 0.0
H97 H 0.52591 0.22782 0.05525 0.0
C98 C 0.47629 0.29914 0.07636 0.0
C99 C 0.48663 0.2927 0.01557 0.0
C100 C 0.47362 0.28601 0.13274 0.0
C101 C 0.48079 0.26589 0.12823 0.0
C102 C 0.491 0.25888 0.06829 0.0
C103 C 0.49428 0.2724 0.01213 0.0
Tb104 Tb 0.03388 1.01123 0.67149 0.0
C105 C 0.97644 0.98982 0.45938 0.0
C106 C 0.99743 0.97655 0.36534 0.0
C107 C 0.96523 0.95999 0.39097 0.0
C108 C 0.99414 0.99065 0.42123 0.0
C109 C 0.96139 0.97492 0.44292 0.0
C110 C 0.9832 0.96086 0.35194 0.0
C111 C 0.93835 0.99289 0.5199 0.0
N112 N 0.97311 1.0048 0.50789 0.0
C113 C 0.95359 1.00746 0.53307 0.0
C114 C 0.94247 0.97617 0.47616 0.0
Tb115 Tb 1.00041 0.02662 0.53381 0.0
N116 N 1.00747 1.0061 0.43576 0.0
C117 C 0.02306 1.00959 0.38949 0.0
C118 C 0.01448 0.97909 0.32284 0.0
C119 C 0.02711 0.99593 0.33419 0.0
H120 H 0.94954 0.0209 0.56361 0.0
H121 H 0.03973 0.99873 0.29923 0.0
H122 H 0.98558 0.9498 0.30986 0.0
H123 H 0.92331 0.99482 0.54246 0.0
H124 H 0.03229 0.02314 0.39187 0.0
H125 H 1.00544 0.05966 0.88812 0.0
H126 H 0.01744 0.9688 0.27902 0.0
H127 H 0.08218 0.99794 0.63998 0.0
H128 H 1.00281 0.0329 0.80117 0.0
H129 H 0.11669 1.01156 0.66383 0.0
H130 H 0.95399 0.94829 0.3784 0.0
H131 H 0.03782 0.07828 0.90692 0.0
H132 H 0.07483 0.08202 0.8791 0.0
H133 H 0.93054 0.96505 0.46503 0.0
H134 H 0.10524 0.06904 0.8177 0.0
N135 N 0.03381 0.03533 0.76371 0.0
C136 C 0.01741 0.04017 0.80585 0.0
C137 C 0.03695 0.06619 0.86745 0.0
C138 C 0.05406 0.06043 0.82866 0.0
C139 C 0.0187 0.0557 0.857 0.0
C140 C 0.05207 0.04462 0.77743 0.0
H141 H 0.12106 0.04253 0.73866 0.0
N142 N 0.06685 0.02138 0.69826 0.0
C143 C 0.10346 0.01914 0.68609 0.0
C144 C 0.06913 0.0375 0.743 0.0
C145 C 0.08386 1.01146 0.67283 0.0
C146 C 0.10585 0.03664 0.72808 0.0
C147 C 0.08864 0.04575 0.75853 0.0
O148 O 0.05146 0.99111 0.73281 0.0
O149 O 0.01525 1.00074 0.58244 0.0
O150 O 0.98081 0.02 0.62384 0.0
O151 O 1.00265 1.01001 0.71367 0.0
O152 O 0.04494 0.99071 0.58864 0.0
O153 O 0.01987 0.98513 0.71311 0.0
O154 O 0.97578 0.04233 0.48816 0.0
O155 O 0.01997 0.03715 0.62014 0.0
O156 O 0.05415 0.02176 0.58773 0.0
O157 O 0.03203 0.03462 0.50332 0.0
O158 O 0.99178 0.05039 0.61045 0.0
O159 O 1.00663 0.05102 0.46683 0.0
C160 C 0.02809 0.98855 0.55418 0.0
C161 C 0.04195 0.95699 0.7023 0.0
C162 C 0.02987 0.92317 0.664 0.0
C163 C 0.02684 0.94174 0.70098 0.0
C164 C 0.04827 0.92009 0.62763 0.0
C165 C 0.06052 0.95325 0.66752 0.0
C166 C 0.06353 0.935 0.62993 0.0
C167 C 0.98415 0.01372 0.6883 0.0
C168 C 0.03715 0.97739 0.73298 0.0
C169 C 0.09045 0.0623 0.80595 0.0
C170 C 0.07316 0.06965 0.84096 0.0
C171 C 1.00863 0.05122 0.64543 0.0
C172 C 0.98298 0.07771 0.48934 0.0
C173 C 0.99864 0.09241 0.49357 0.0
C174 C 0.99527 0.11163 0.52566 0.0
C175 C 0.97583 0.11613 0.55301 0.0
C176 C 0.96354 0.08272 0.51579 0.0
C177 C 0.96007 0.10179 0.54759 0.0
C178 C 0.05069 0.03048 0.52683 0.0
C179 C 0.98754 0.0566 0.4646 0.0
H180 H 0.01272 0.94439 0.72922 0.0
H181 H 0.05093 0.9061 0.59782 0.0
H182 H 0.07255 0.96459 0.66762 0.0
H183 H 0.0777 0.93245 0.60214 0.0
H184 H 0.01351 0.08886 0.47176 0.0
H185 H 0.9728 0.13073 0.57857 0.0
H186 H 0.95115 0.07173 0.51355 0.0
H187 H 0.94515 0.1054 0.5687 0.0
Tb188 Tb 0.52562 0.03829 0.68571 0.0
C189 C 0.53623 0.96514 0.5 0.0
C190 C 0.56044 0.97638 0.41362 0.0
C191 C 0.56021 0.94082 0.44829 0.0
C192 C 0.5447 0.98076 0.46205 0.0
C193 C 0.54334 0.94485 0.49142 0.0
C194 C 0.56869 0.95656 0.40915 0.0
C195 C 0.51412 0.93349 0.55675 0.0
N196 N 0.51944 0.96942 0.53872 0.0
C197 C 0.50748 0.95378 0.56238 0.0
C198 C 0.53243 0.92904 0.52262 0.0
Tb199 Tb 0.51078 1.00334 0.55082 0.0
N200 N 0.53603 0.99967 0.46686 0.0
C201 C 0.54134 0.01421 0.41926 0.0
C202 C 0.56658 0.99167 0.3682 0.0
C203 C 0.5568 1.01055 0.37047 0.0
H204 H 0.49308 0.95711 0.58756 0.0
H205 H 0.56112 0.02235 0.33437 0.0
H206 H 0.581 0.95303 0.37315 0.0
H207 H 0.505 0.9213 0.57814 0.0
H208 H 0.53437 0.02899 0.4184 0.0
H209 H 0.47545 0.01775 0.90227 0.0
H210 H 0.57826 0.98881 0.32924 0.0
H211 H 0.54026 0.08419 0.63222 0.0
H212 H 0.50061 1.01088 0.81363 0.0
H213 H 0.53048 0.12017 0.65213 0.0
H214 H 0.56609 0.9254 0.44187 0.0
H215 H 0.4616 0.0525 0.92025 0.0
H216 H 0.46201 0.08938 0.88915 0.0
H217 H 0.5374 0.91328 0.5173 0.0
H218 H 0.47683 0.11724 0.82127 0.0
N219 N 0.50215 0.04181 0.77621 0.0
C220 C 0.49556 0.02644 0.81896 0.0
C221 C 0.47303 0.04975 0.88034 0.0
C222 C 0.48034 0.06564 0.83964 0.0
C223 C 0.48085 0.03015 0.87045 0.0
C224 C 0.49516 0.06122 0.78785 0.0
H225 H 0.50253 0.12889 0.73396 0.0
N226 N 0.51794 0.07233 0.70176 0.0
C227 C 0.52263 0.10818 0.67959 0.0
C228 C 0.50327 0.07693 0.74927 0.0
C229 C 0.52815 0.08772 0.6686 0.0
C230 C 0.50682 0.11302 0.72561 0.0
C231 C 0.49712 0.09738 0.76185 0.0
O232 O 0.54598 0.0567 0.74543 0.0
O233 O 0.5365 0.01861 0.6005 0.0
O234 O 0.52122 0.98462 0.63928 0.0
O235 O 0.52497 1.00785 0.73287 0.0
O236 O 0.54743 0.04777 0.60559 0.0
O237 O 0.55068 0.02443 0.73593 0.0
O238 O 0.49512 0.98618 0.47283 0.0
O239 O 0.49997 0.02297 0.63561 0.0
O240 O 0.50966 0.05588 0.60414 0.0
O241 O 0.51209 0.03429 0.50651 0.0
O242 O 0.48737 0.99444 0.62616 0.0
O243 O 0.48406 0.01551 0.50594 0.0
C244 C 0.54938 0.03051 0.57321 0.0
C245 C 0.57979 0.04512 0.72375 0.0
C246 C 0.61271 0.0304 0.689 0.0
C247 C 0.59401 0.02903 0.72492 0.0
C248 C 0.61703 0.04832 0.65217 0.0
C249 C 0.58479 0.06312 0.68835 0.0
C250 C 0.60324 0.0646 0.65251 0.0
C251 C 0.52454 0.98895 0.70648 0.0
C252 C 0.55903 0.04191 0.75211 0.0
C253 C 0.4819 0.10167 0.81142 0.0
C254 C 0.47349 0.08581 0.85012 0.0
C255 C 0.4863 1.01148 0.66093 0.0
C256 C 0.45953 0.98937 0.49222 0.0
C257 C 0.44337 1.00219 0.51325 0.0
C258 C 0.42459 0.99398 0.53457 0.0
C259 C 0.42236 0.9726 0.53677 0.0
C260 C 0.45678 0.96804 0.49328 0.0
C261 C 0.43839 0.95976 0.51623 0.0
C262 C 0.5087 0.05259 0.53548 0.0
C263 C 0.47951 0.9984 0.4742 0.0
H264 H 0.59035 0.01543 0.75393 0.0
H265 H 0.63109 0.04982 0.62313 0.0
H266 H 0.57422 0.07584 0.68638 0.0
H267 H 0.60676 0.07834 0.62418 0.0
H268 H 0.4454 0.01865 0.51291 0.0
H269 H 0.40799 0.96575 0.55161 0.0
H270 H 0.4689 0.95772 0.47722 0.0
H271 H 0.43643 0.94332 0.51717 0.0
Tb272 Tb 0.53674 0.51529 0.55973 0.0
C273 C 0.45528 0.50864 0.7195 0.0
C274 C 0.43023 0.52734 0.6529 0.0
C275 C 0.41931 0.49952 0.72657 0.0
C276 C 0.45073 0.52361 0.67227 0.0
C277 C 0.43964 0.49658 0.74819 0.0
C278 C 0.4146 0.51495 0.67917 0.0
C279 C 0.46508 0.48093 0.82198 0.0
N280 N 0.47501 0.50656 0.73987 0.0
C281 C 0.47999 0.49339 0.7924 0.0
C282 C 0.44483 0.48236 0.79919 0.0
Tb283 Tb 0.49862 0.52747 0.6884 0.0
N284 N 0.46629 0.53522 0.64813 0.0
C285 C 0.46205 0.5515 0.60631 0.0
C286 C 0.42598 0.54379 0.60955 0.0
C287 C 0.44197 0.55589 0.58601 0.0
H288 H 0.49562 0.49201 0.8102 0.0
H289 H 0.43885 0.5687 0.55244 0.0
H290 H 0.3988 0.51745 0.66422 0.0
H291 H 0.46923 0.47022 0.86219 0.0
H292 H 0.47394 0.56111 0.58678 0.0
H293 H 0.596 0.47358 0.69753 0.0
H294 H 0.4104 0.54752 0.59509 0.0
H295 H 0.54084 0.55037 0.43703 0.0
H296 H 0.56145 0.47977 0.65444 0.0
H297 H 0.56745 0.57287 0.38975 0.0
H298 H 0.40708 0.49033 0.74757 0.0
H299 H 0.62411 0.49705 0.6676 0.0
H300 H 0.63596 0.5275 0.60047 0.0
H301 H 0.43327 0.47278 0.82239 0.0
H302 H 0.62823 0.55455 0.51621 0.0
N303 N 0.56899 0.50705 0.60034 0.0
C304 C 0.57321 0.49024 0.63968 0.0
C305 C 0.60881 0.49988 0.64795 0.0
C306 C 0.60478 0.51633 0.6043 0.0
C307 C 0.593 0.48659 0.66476 0.0
C308 C 0.58453 0.51939 0.58063 0.0
H309 H 0.6028 0.57132 0.43623 0.0
N310 N 0.56079 0.53618 0.51035 0.0
C311 C 0.57128 0.56219 0.43044 0.0
C312 C 0.58026 0.53453 0.53383 0.0
C313 C 0.55626 0.54931 0.45722 0.0
C314 C 0.59118 0.56133 0.45699 0.0
C315 C 0.59597 0.54717 0.50861 0.0
O316 O 0.53781 0.50947 0.45151 0.0
O317 O 0.50442 0.51766 0.58264 0.0
O318 O 0.49559 0.49476 0.66176 0.0
O319 O 0.52844 0.48789 0.62155 0.0
O320 O 0.51366 0.52853 0.48942 0.0
O321 O 0.53874 0.48465 0.52374 0.0
O322 O 0.49795 0.53379 0.79628 0.0
O323 O 0.53088 0.52506 0.66538 0.0
O324 O 0.53949 0.54816 0.58562 0.0
O325 O 0.50675 0.55488 0.62705 0.0
O326 O 0.52178 0.51472 0.75965 0.0
O327 O 0.49538 0.55815 0.72238 0.0
C328 C 0.4978 0.52522 0.52667 0.0
C329 C 0.51656 0.48132 0.42519 0.0
C330 C 0.48832 0.45683 0.42363 0.0
C331 C 0.50719 0.46363 0.45103 0.0
C332 C 0.47878 0.46806 0.37044 0.0
C333 C 0.50696 0.49192 0.37052 0.0
C334 C 0.48812 0.48542 0.344 0.0
C335 C 0.51072 0.4818 0.64821 0.0
C336 C 0.53512 0.48995 0.45934 0.0
C337 C 0.61598 0.54486 0.53431 0.0
C338 C 0.62038 0.52946 0.58222 0.0
C339 C 0.53753 0.5177 0.72164 0.0
C340 C 0.51774 0.56315 0.81957 0.0
C341 C 0.52633 0.58093 0.79137 0.0
C342 C 0.5449 0.58877 0.81774 0.0
C343 C 0.55483 0.57867 0.87268 0.0
C344 C 0.52778 0.5536 0.87559 0.0
C345 C 0.54625 0.56125 0.90146 0.0
C346 C 0.52433 0.56105 0.59975 0.0
C347 C 0.49955 0.55339 0.78695 0.0
H348 H 0.51442 0.45526 0.49292 0.0
H349 H 0.46441 0.46304 0.3475 0.0
H350 H 0.51373 0.50559 0.34937 0.0
H351 H 0.48073 0.49385 0.30267 0.0
H352 H 0.51873 0.58858 0.74858 0.0
H353 H 0.56886 0.5847 0.89523 0.0
H354 H 0.52158 0.53992 0.8986 0.0
H355 H 0.55387 0.55371 0.94432 0.0
Tb356 Tb 0.02634 0.53499 0.56645 0.0
C357 C 0.03073 0.45491 0.72242 0.0
C358 C 0.02021 0.42857 0.63883 0.0
C359 C 0.04416 0.42032 0.73167 0.0
C360 C 0.01995 0.44918 0.66241 0.0
C361 C 0.0425 0.44036 0.75866 0.0
C362 C 0.03297 0.4144 0.67205 0.0
C363 C 0.04771 0.46554 0.85096 0.0
N364 N 0.02828 0.47428 0.74843 0.0
C365 C 0.0357 0.47937 0.81381 0.0
C366 C 0.05144 0.44609 0.82271 0.0
Tb367 Tb 1.00912 0.49558 0.67961 0.0
N368 N 1.0076 0.46322 0.63164 0.0
C369 C 0.99336 0.45691 0.58304 0.0
C370 C 1.00679 0.42252 0.58519 0.0
C371 C 0.99301 0.43665 0.55827 0.0
H372 H 0.03302 0.49425 0.83709 0.0
H373 H 0.98206 0.43196 0.51844 0.0
H374 H 0.03362 0.39862 0.65377 0.0
H375 H 0.05404 0.46989 0.90152 0.0
H376 H 0.98232 0.4673 0.56185 0.0
H377 H 0.05723 0.59822 0.71937 0.0
H378 H 1.00635 0.40679 0.56632 0.0
H379 H 0.99728 0.53512 0.42323 0.0
H380 H 0.05455 0.56254 0.67916 0.0
H381 H 0.97568 0.55957 0.35963 0.0
H382 H 0.05334 0.40902 0.75834 0.0
H383 H 0.03378 0.62432 0.6723 0.0
H384 H 1.00554 0.63314 0.58853 0.0
H385 H 0.0606 0.43536 0.85201 0.0
H386 H 0.98319 0.62257 0.49028 0.0
N387 N 0.02894 0.56762 0.61198 0.0
C388 C 0.04396 0.57348 0.65831 0.0
C389 C 0.0323 0.60851 0.65502 0.0
C390 C 0.01782 0.60275 0.60435 0.0
C391 C 0.04562 0.59385 0.68138 0.0
C392 C 0.01675 0.582 0.58288 0.0
H393 H 0.97227 0.59525 0.40355 0.0
N394 N 1.00556 0.55649 0.50418 0.0
C395 C 0.98365 0.56444 0.40685 0.0
C396 C 1.0045 0.57619 0.5272 0.0
C397 C 0.99596 0.55064 0.44304 0.0
C398 C 0.98168 0.58453 0.43199 0.0
C399 C 0.99251 0.59075 0.49204 0.0
O400 O 0.03944 0.54083 0.46832 0.0
O401 O 0.02352 0.50218 0.58079 0.0
O402 O 0.04275 0.49556 0.68759 0.0
O403 O 0.0505 0.52775 0.64409 0.0
O404 O 0.02186 0.51216 0.48115 0.0
O405 O 0.05802 0.53939 0.56183 0.0
O406 O 0.98987 0.47607 0.73599 0.0
O407 O 0.01285 0.52817 0.66601 0.0
O408 O 0.99264 0.53568 0.57314 0.0
O409 O 0.98721 0.50134 0.59368 0.0
O410 O 0.01622 0.51762 0.76524 0.0
O411 O 0.9818 0.50743 0.72264 0.0
C412 C 0.02155 0.49598 0.51789 0.0
C413 C 0.06751 0.56382 0.48067 0.0
C414 C 0.09872 0.58415 0.48393 0.0
C415 C 0.08842 0.56571 0.49543 0.0
C416 C 0.0878 0.60092 0.45794 0.0
C417 C 0.05671 0.58071 0.45491 0.0
C418 C 0.06685 0.5992 0.444 0.0
C419 C 0.05571 0.51083 0.67752 0.0
C420 C 0.05736 0.54436 0.4963 0.0
C421 C 0.99243 0.61118 0.51616 0.0
C422 C 1.00513 0.61719 0.57213 0.0
C423 C 0.0166 0.53396 0.72853 0.0
C424 C 0.95506 0.48334 0.71212 0.0
C425 C 0.93934 0.49791 0.70751 0.0
C426 C 0.92057 0.493 0.67476 0.0
C427 C 0.91771 0.4731 0.64709 0.0
C428 C 0.95156 0.46338 0.686 0.0
C429 C 0.93306 0.4584 0.65328 0.0
C430 C 0.9806 0.51933 0.57167 0.0
C431 C 0.97532 0.48951 0.74034 0.0
H432 H 0.09679 0.55258 0.51452 0.0
H433 H 0.09549 0.61525 0.44807 0.0
H434 H 0.04053 0.57969 0.44334 0.0
H435 H 0.05848 0.61218 0.42416 0.0
H436 H 0.94179 0.51307 0.72982 0.0
H437 H 0.90365 0.46887 0.6204 0.0
H438 H 0.9632 0.45167 0.68971 0.0
H439 H 0.93066 0.4431 0.63219 0.0
H440 H 0.18555 0.07089 0.0475 0.0
H441 H 0.15693 0.06726 0.12846 0.0
H442 H 0.19193 0.02395 0.24732 0.0
H443 H 0.22074 0.02781 0.16692 0.0
H444 H 0.13323 0.03547 0.16328 0.0
H445 H 0.17434 0.06269 0.40154 0.0
H446 H 0.18487 0.06516 0.31505 0.0
H447 H 0.1863 0.04112 0.35927 0.0
C448 C 0.18711 0.06047 0.09067 0.0
C449 C 0.20547 0.04954 0.09987 0.0
C450 C 0.1707 0.05843 0.13719 0.0
C451 C 0.17215 0.04555 0.1952 0.0
C452 C 0.19041 0.03437 0.20419 0.0
H453 H 0.0884 1.01202 0.52887 0.0
H454 H 0.11709 0.01647 0.44993 0.0
C455 C 0.2069 0.03644 0.15756 0.0
C456 C 0.15448 0.04386 0.24529 0.0
H457 H 0.14105 0.04924 0.418 0.0
C458 C 0.13498 0.03858 0.21892 0.0
C459 C 0.1565 0.04793 0.31825 0.0
C460 C 0.17657 0.05474 0.35027 0.0
C461 C 0.11779 0.03686 0.263 0.0
C462 C 0.11983 0.04089 0.33593 0.0
C463 C 0.13931 0.04617 0.36232 0.0
C464 C 0.10219 0.03905 0.38596 0.0
C465 C 0.09767 0.03014 0.23111 0.0
C466 C 0.08409 0.05055 0.37817 0.0
C467 C 0.06755 0.04818 0.42442 0.0
C468 C 0.06869 0.03438 0.48018 0.0
C469 C 0.08697 0.02321 0.48832 0.0
C470 C 0.10345 0.02559 0.44235 0.0
H471 H 0.09978 0.02254 0.17916 0.0
H472 H 0.08956 0.01942 0.26584 0.0
H473 H 0.0878 0.04374 0.2237 0.0
H474 H 0.08272 0.06139 0.33624 0.0
H475 H 0.05381 0.0571 0.41624 0.0
H476 H 0.50362 0.22969 0.23543 0.0
H477 H 0.50003 0.19921 0.30796 0.0
H478 H 0.51164 0.1606 0.12722 0.0
H479 H 0.51543 0.19106 0.05496 0.0
H480 H 0.47448 0.16488 0.30197 0.0
H481 H 0.55528 0.14153 0.26476 0.0
H482 H 0.54594 0.16644 0.24079 0.0
H483 H 0.5413 0.14456 0.1845 0.0
C484 C 0.50525 0.21468 0.21118 0.0
C485 C 0.51014 0.21278 0.13971 0.0
C486 C 0.50321 0.19724 0.25267 0.0
C487 C 0.50604 0.1775 0.22371 0.0
C488 C 0.5099 0.1756 0.15148 0.0
H489 H 0.51207 0.05423 0.39165 0.0
H490 H 0.51027 0.0842 0.31771 0.0
C491 C 0.51193 0.19302 0.11001 0.0
C492 C 0.50538 0.159 0.26912 0.0
H493 H 0.53396 0.11828 0.32359 0.0
C494 C 0.48752 0.15473 0.30683 0.0
C495 C 0.52236 0.14568 0.27592 0.0
C496 C 0.54238 0.14982 0.23993 0.0
C497 C 0.48602 0.13737 0.34954 0.0
C498 C 0.50301 0.12401 0.35617 0.0
C499 C 0.52087 0.12836 0.31859 0.0
C500 C 0.50273 0.10549 0.40162 0.0
C501 C 0.46604 0.13323 0.38572 0.0
C502 C 0.49884 0.10715 0.47386 0.0
C503 C 0.49989 0.08988 0.5166 0.0
C504 C 0.50532 0.07053 0.48876 0.0
C505 C 0.50844 0.06881 0.41596 0.0
C506 C 0.50734 0.08605 0.37322 0.0
H507 H 0.45307 0.14109 0.35969 0.0
H508 H 0.46273 0.11658 0.38676 0.0
H509 H 0.46697 0.13908 0.44052 0.0
H510 H 0.49542 0.1219 0.4977 0.0
H511 H 0.49658 0.09179 0.57168 0.0
H512 H 0.32391 0.52197 0.1924 0.0
H513 H 0.35473 0.52791 0.26371 0.0
H514 H 0.37815 0.46894 0.1988 0.0
H515 H 0.34763 0.4632 0.12634 0.0
H516 H 0.36992 0.50782 0.37383 0.0
H517 H 0.42728 0.50386 0.16197 0.0
H518 H 0.40021 0.50561 0.14439 0.0
H519 H 0.4116 0.48139 0.1654 0.0
C520 C 0.33578 0.51044 0.1922 0.0
C521 C 0.33352 0.49234 0.15171 0.0
C522 C 0.35341 0.51379 0.23347 0.0
C523 C 0.36917 0.4991 0.23584 0.0
C524 C 0.36668 0.48086 0.19652 0.0
H525 H 0.46851 0.49575 0.5538 0.0
H526 H 0.43697 0.48877 0.48686 0.0
C527 C 0.34915 0.47756 0.15511 0.0
C528 C 0.3878 0.50253 0.28107 0.0
H529 H 0.4402 0.50409 0.27843 0.0
C530 C 0.38527 0.50695 0.35285 0.0
C531 C 0.40797 0.50166 0.25409 0.0
C532 C 0.41198 0.49807 0.17715 0.0
C533 C 0.40215 0.51042 0.39792 0.0
C534 C 0.42229 0.50924 0.3712 0.0
C535 C 0.42484 0.50482 0.29945 0.0
C536 C 0.44087 0.51383 0.4154 0.0
C537 C 0.3983 0.51651 0.47304 0.0
C538 C 0.45384 0.53005 0.39769 0.0
C539 C 0.4718 0.53403 0.43592 0.0
C540 C 0.47735 0.52198 0.49323 0.0
C541 C 0.46439 0.50574 0.51142 0.0
C542 C 0.44633 0.50173 0.47295 0.0
H543 H 0.38181 0.51895 0.48395 0.0
H544 H 0.4041 0.50449 0.50829 0.0
H545 H 0.40666 0.53088 0.48528 0.0
H546 H 0.45016 0.53957 0.35353 0.0
H547 H 0.4816 0.54644 0.41987 0.0
H548 H 0.06911 0.33651 0.13655 0.0
H549 H 0.06649 0.36559 0.21852 0.0
H550 H 1.00216 0.35365 0.24294 0.0
H551 H 1.00478 0.32437 0.16049 0.0
H552 H 0.04327 0.40036 0.20226 0.0
H553 H 0.02084 0.36221 0.44715 0.0
H554 H 0.03143 0.34831 0.37322 0.0
H555 H 1.00504 0.35598 0.37249 0.0
C556 C 0.05447 0.33973 0.16058 0.0
C557 C 0.03726 0.32767 0.14298 0.0
C558 C 0.05296 0.35653 0.20731 0.0
C559 C 0.03419 0.36188 0.23823 0.0
C560 C 0.01696 0.34972 0.22144 0.0
H561 H 0.99936 0.48153 0.40839 0.0
H562 H 1.00287 0.449 0.34385 0.0
C563 C 0.01846 0.33292 0.17419 0.0
C564 C 0.03257 0.38089 0.28398 0.0
H565 H 0.01955 0.39858 0.44809 0.0
C566 C 0.03812 0.39987 0.25605 0.0
C567 C 0.02607 0.3805 0.35472 0.0
C568 C 0.02066 0.36066 0.38914 0.0
C569 C 0.03695 0.41828 0.2958 0.0
C570 C 0.02996 0.41798 0.36589 0.0
C571 C 0.02482 0.39898 0.39449 0.0
C572 C 0.02728 0.43737 0.40872 0.0
C573 C 0.04335 0.438 0.26243 0.0
C574 C 0.0396 0.4418 0.46795 0.0
C575 C 0.03752 0.46054 0.50543 0.0
C576 C 0.0228 0.47505 0.48527 0.0
C577 C 1.01057 0.47053 0.42614 0.0
C578 C 0.01263 0.45193 0.3889 0.0
H579 H 0.05271 0.43521 0.21487 0.0
H580 H 0.0295 0.44665 0.24689 0.0
H581 H 0.05224 0.4477 0.29994 0.0
H582 H 0.05109 0.43095 0.48439 0.0
H583 H 0.04762 0.46382 0.54933 0.0
H584 H 0.81681 0.98671 0.05697 0.0
H585 H 0.84815 0.98263 0.98754 0.0
H586 H 0.86725 0.0433 0.05129 0.0
H587 H 0.83633 0.04716 0.12154 0.0
H588 H 0.86133 1.00272 0.87725 0.0
H589 H 0.91955 0.01341 0.085 0.0
H590 H 0.89289 1.00945 0.10439 0.0
H591 H 0.9021 0.03454 0.08293 0.0
C592 C 0.82796 0.99894 0.05766 0.0
C593 C 0.82428 0.01701 0.09689 0.0
C594 C 0.84587 0.99668 0.01739 0.0
C595 C 0.86055 0.01246 0.01487 0.0
C596 C 0.85673 0.03055 0.05369 0.0
H597 H 0.94752 0.03403 0.6794 0.0
H598 H 0.91816 0.0324 0.75721 0.0
C599 C 0.83892 0.03278 0.09397 0.0
C600 C 0.87917 1.0106 0.96883 0.0
H601 H 0.93125 0.01703 0.9671 0.0
C602 C 0.87661 1.00569 0.89728 0.0
C603 C 0.89935 0.01409 0.99424 0.0
C604 C 0.90369 0.01795 0.07097 0.0
C605 C 0.89332 1.00485 0.85066 0.0
C606 C 0.91334 1.00952 0.87532 0.0
C607 C 0.91601 0.01373 0.94731 0.0
C608 C 0.93157 1.0104 0.82733 0.0
C609 C 0.88927 0.99863 0.77542 0.0
C610 C 0.94954 0.99923 0.84127 0.0
C611 C 0.96658 1.00023 0.7965 0.0
C612 C 0.96611 1.0124 0.73637 0.0
C613 C 0.94828 0.02388 0.72344 0.0
C614 C 0.93136 0.02297 0.76828 0.0
H615 H 0.87517 0.98923 0.77024 0.0
H616 H 0.88703 0.01257 0.74395 0.0
H617 H 0.90225 0.98978 0.75308 0.0
H618 H 0.95036 0.98956 0.88664 0.0
H619 H 0.98006 0.99132 0.80871 0.0
H620 H 0.49252 0.84398 0.13883 0.0
H621 H 0.49614 0.87427 0.06636 0.0
H622 H 0.55789 0.85639 0.01648 0.0
H623 H 0.55414 0.8258 0.08792 0.0
H624 H 0.52115 0.90719 0.07031 0.0
H625 H 0.53411 0.86336 0.8233 0.0
H626 H 0.52588 0.8513 0.9025 0.0
H627 H 0.55233 0.85794 0.89104 0.0
C628 C 0.50698 0.84664 0.11315 0.0
C629 C 0.52313 0.83258 0.12037 0.0
C630 C 0.50902 0.86398 0.07147 0.0
C631 C 0.52721 0.86766 0.03485 0.0
C632 C 0.54354 0.85382 0.04289 0.0
H633 H 0.54853 0.98603 0.82476 0.0
H634 H 0.55078 0.95727 0.90576 0.0
C635 C 0.54146 0.83638 0.08449 0.0
C636 C 0.52872 0.88575 0.98765 0.0
H637 H 0.53664 0.89934 0.81757 0.0
C638 C 0.52463 0.90545 0.01509 0.0
C639 C 0.53298 0.88362 0.91516 0.0
C640 C 0.53639 0.86292 0.88093 0.0
C641 C 0.52458 0.9229 0.9725 0.0
C642 C 0.52914 0.9208 0.90024 0.0
C643 C 0.53334 0.90111 0.87292 0.0
C644 C 0.52833 0.93848 0.85105 0.0
C645 C 0.51887 0.94331 1.00497 0.0
C646 C 0.51535 0.93757 0.79222 0.0
C647 C 0.51424 0.95388 0.74572 0.0
C648 C 0.5262 0.97156 0.75597 0.0
C649 C 0.53915 0.97261 0.81506 0.0
C650 C 0.54035 0.95618 0.86169 0.0
H651 H 0.5108 0.94153 0.05552 0.0
H652 H 0.53297 0.95232 0.01533 0.0
H653 H 0.50892 0.95216 0.96925 0.0
H654 H 0.50573 0.92429 0.7828 0.0
H655 H 0.50344 0.95284 0.703 0.0
H656 H 0.68741 0.52299 0.15583 0.0
H657 H 0.65678 0.52617 0.08157 0.0
H658 H 0.69459 0.52394 0.89751 0.0
H659 H 0.72518 0.52063 0.97174 0.0
H660 H 0.64422 0.55408 0.97925 0.0
H661 H 0.6547 0.47645 0.86181 0.0
H662 H 0.6687 0.48511 0.93841 0.0
H663 H 0.67615 0.49336 0.85304 0.0
C664 C 0.68917 0.52341 0.09954 0.0
C665 C 0.70868 0.52125 0.06966 0.0
C666 C 0.67165 0.5252 0.05704 0.0
C667 C 0.67321 0.52485 0.98357 0.0
C668 C 0.69283 0.52377 0.95381 0.0
H669 H 0.56734 0.54689 0.69866 0.0
H670 H 0.60087 0.54999 0.75743 0.0
C671 C 0.71035 0.52202 0.99632 0.0
C672 C 0.65429 0.5249 0.93855 0.0
H673 H 0.62698 0.49583 0.81973 0.0
C674 C 0.64055 0.54141 0.94398 0.0
C675 C 0.64926 0.50829 0.89282 0.0
C676 C 0.66284 0.48969 0.88633 0.0
C677 C 0.62202 0.5417 0.90554 0.0
C678 C 0.617 0.52508 0.85997 0.0
C679 C 0.63082 0.50867 0.85408 0.0
C680 C 0.59678 0.52352 0.82259 0.0
C681 C 0.60752 0.55939 0.91627 0.0
C682 C 0.58334 0.50751 0.83841 0.0
C683 C 0.56433 0.50569 0.80464 0.0
C684 C 0.55839 0.51951 0.75281 0.0
C685 C 0.57172 0.53567 0.73697 0.0
C686 C 0.59078 0.5376 0.7713 0.0
H687 H 0.61222 0.56954 0.96078 0.0
H688 H 0.60696 0.56866 0.86823 0.0
H689 H 0.59189 0.5536 0.92621 0.0
H690 H 0.58746 0.49649 0.87774 0.0
H691 H 0.55424 0.4933 0.81884 0.0
H692 H 0.04012 0.69252 0.1321 0.0
H693 H 0.03652 0.66023 0.06611 0.0
H694 H 0.99033 0.68756 0.93589 0.0
H695 H 0.99435 0.7201 1.00093 0.0
H696 H 1.00641 0.63346 0.04247 0.0
H697 H 0.02768 0.6658 0.78678 0.0
H698 H 0.03039 0.68012 0.86785 0.0
H699 H 1.00578 0.67787 0.82576 0.0
C700 C 0.02901 0.69162 0.08993 0.0
C701 C 0.01746 0.70901 0.07225 0.0
C702 C 0.027 0.67308 0.05184 0.0
C703 C 0.01348 0.6713 0.9944 0.0
C704 C 1.00132 0.68845 0.9784 0.0
H705 H 0.99061 0.56637 0.70013 0.0
H706 H 0.98858 0.5996 0.7633 0.0
C707 C 1.00338 0.70706 0.01644 0.0
C708 C 0.01232 0.65158 0.95184 0.0
H709 H 0.01728 0.63114 0.78591 0.0
C710 C 1.00884 0.63305 0.98637 0.0
C711 C 0.01537 0.6507 0.87821 0.0
C712 C 0.0202 0.66963 0.83743 0.0
C713 C 1.00832 0.614 0.95007 0.0
C714 C 1.01171 0.6131 0.87675 0.0
C715 C 0.01474 0.63162 0.84187 0.0
C716 C 0.01307 0.59307 0.83635 0.0
C717 C 1.00385 0.59497 0.99083 0.0
C718 C 0.02769 0.57829 0.85483 0.0
C719 C 0.02891 0.55943 0.81859 0.0
C720 C 0.0159 0.55488 0.76151 0.0
C721 C 1.00123 0.56961 0.7426 0.0
C722 C 0.99999 0.58857 0.77911 0.0
H723 H 0.99554 0.59863 0.04003 0.0
H724 H 0.99462 0.58388 0.95931 0.0
H725 H 0.01849 0.58751 1.0052 0.0
H726 H 0.03826 0.58132 0.8976 0.0
H727 H 0.04017 0.54833 0.83512 0.0
H728 H 0.03923 0.25173 0.28494 0.0
H729 H 0.04691 0.23143 0.38626 0.0
H730 H 0.10041 0.20689 0.28322 0.0
H731 H 0.09212 0.22684 0.17941 0.0
H732 H 0.07781 0.17781 0.31315 0.0
H733 H 0.07987 0.2233 0.5547 0.0
H734 H 0.05833 0.23267 0.50708 0.0
H735 H 0.08372 0.23504 0.47087 0.0
C736 C 0.05313 0.2427 0.28483 0.0
C737 C 0.06495 0.24068 0.22406 0.0
C738 C 0.05769 0.23118 0.3435 0.0
C739 C 0.07441 0.21766 0.34325 0.0
C740 C 0.08745 0.21721 0.28493 0.0
H741 H 0.03629 0.10619 0.55181 0.0
H742 H 0.06376 0.13094 0.53205 0.0
C743 C 0.08267 0.22852 0.22555 0.0
C744 C 0.07478 0.20087 0.39468 0.0
H745 H 0.05692 0.19162 0.55841 0.0
C746 C 0.07424 0.18072 0.36777 0.0
C747 C 0.07055 0.20437 0.46648 0.0
C748 C 0.07342 0.22507 0.50124 0.0
C749 C 0.06636 0.16472 0.40719 0.0
C750 C 0.0589 0.16905 0.47517 0.0
C751 C 0.06225 0.18846 0.50565 0.0
C752 C 0.04328 0.15566 0.50577 0.0
C753 C 0.06369 0.1439 0.37268 0.0
C754 C 0.02276 0.16171 0.50068 0.0
C755 C 1.00712 0.14763 0.51083 0.0
C756 C 1.01173 0.12724 0.52664 0.0
C757 C 0.0323 0.12168 0.53783 0.0
C758 C 0.04799 0.13581 0.52737 0.0
H759 H 0.07006 0.14323 0.3189 0.0
H760 H 0.0715 0.13214 0.40433 0.0
H761 H 0.0472 0.13989 0.36975 0.0
H762 H 0.01884 0.17695 0.4836 0.0
H763 H 0.99149 0.15244 0.50174 0.0
H764 H 0.26677 0.03326 0.26819 0.0
H765 H 0.27904 0.03337 0.38802 0.0
H766 H 0.33036 0.0707 0.32924 0.0
H767 H 0.31701 0.07257 0.21079 0.0
H768 H 0.31063 0.01449 0.41645 0.0
H769 H 0.32477 0.09141 0.52249 0.0
H770 H 0.30802 0.08715 0.44808 0.0
H771 H 0.33518 0.09079 0.43617 0.0
C772 C 0.28012 0.04239 0.28098 0.0
C773 C 0.29103 0.05269 0.22879 0.0
C774 C 0.28719 0.04232 0.35 0.0
C775 C 0.3056 0.05209 0.36833 0.0
C776 C 0.31584 0.06343 0.31745 0.0
H777 H 0.4143 0.02767 0.46067 0.0
H778 H 0.38169 0.04502 0.45934 0.0
C779 C 0.30847 0.06399 0.24878 0.0
C780 C 0.31645 0.04666 0.43396 0.0
H781 H 0.35278 0.06569 0.54591 0.0
C782 C 0.31918 0.02576 0.447 0.0
C783 C 0.32731 0.06123 0.47526 0.0
C784 C 0.32341 0.08389 0.47006 0.0
C785 C 0.33466 0.01899 0.4918 0.0
C786 C 0.34768 0.0336 0.52462 0.0
C787 C 0.343 0.05451 0.51973 0.0
C788 C 0.36876 0.02776 0.54401 0.0
C789 C 0.33857 0.99626 0.49617 0.0
C790 C 0.37284 0.01317 0.59531 0.0
C791 C 0.39171 1.00306 0.5962 0.0
C792 C 0.40669 1.00756 0.54604 0.0
C793 C 0.40324 0.0238 0.50024 0.0
C794 C 0.38451 0.03382 0.49946 0.0
H795 H 0.32727 0.98706 0.46543 0.0
H796 H 0.35409 0.99256 0.47635 0.0
H797 H 0.33774 0.99149 0.5515 0.0
H798 H 0.36101 1.00863 0.63128 0.0
H799 H 0.39419 0.99104 0.63359 0.0
H800 H 0.49411 0.29272 0.25374 0.0
H801 H 0.48387 0.31588 0.34839 0.0
H802 H 0.42389 0.32141 0.25475 0.0
H803 H 0.43479 0.29917 0.15729 0.0
H804 H 0.43979 0.35595 0.26199 0.0
H805 H 0.45306 0.32461 0.52204 0.0
H806 H 0.47549 0.31947 0.47161 0.0
H807 H 0.45135 0.3082 0.44512 0.0
C808 C 0.47849 0.29824 0.25511 0.0
C809 C 0.46523 0.29437 0.1986 0.0
C810 C 0.47251 0.31134 0.30975 0.0
C811 C 0.45298 0.32038 0.30946 0.0
C812 C 0.439 0.31464 0.25639 0.0
H813 H 0.44818 0.4478 0.45082 0.0
H814 H 0.43309 0.41347 0.45034 0.0
C815 C 0.44519 0.30196 0.20077 0.0
C816 C 0.44937 0.33917 0.35264 0.0
H817 H 0.4629 0.36149 0.50912 0.0
C818 C 0.44401 0.357 0.3169 0.0
C819 C 0.45478 0.34072 0.42441 0.0
C820 C 0.45876 0.32211 0.46788 0.0
C821 C 0.44625 0.3764 0.3481 0.0
C822 C 0.45383 0.37803 0.41752 0.0
C823 C 0.45725 0.3602 0.45574 0.0
C824 C 0.46214 0.39772 0.44426 0.0
C825 C 0.44251 0.395 0.30383 0.0
C826 C 0.48344 0.4001 0.44713 0.0
C827 C 0.49208 0.4196 0.44736 0.0
C828 C 0.47949 0.437 0.44461 0.0
C829 C 0.45821 0.4346 0.45101 0.0
C830 C 0.44957 0.41504 0.45122 0.0
H831 H 0.43872 0.39088 0.24859 0.0
H832 H 0.42955 0.40395 0.32571 0.0
H833 H 0.45622 0.40502 0.30414 0.0
H834 H 0.49341 0.38691 0.44205 0.0
H835 H 0.50852 0.42092 0.44277 0.0
H836 H 0.2726 0.54276 0.27441 0.0
H837 H 0.25725 0.5557 0.38297 0.0
H838 H 0.20389 0.51835 0.34196 0.0
H839 H 0.21972 0.50433 0.23749 0.0
H840 H 0.22706 0.57873 0.39076 0.0
H841 H 0.20428 0.51352 0.54509 0.0
H842 H 0.22292 0.51066 0.47617 0.0
H843 H 0.19593 0.50716 0.45824 0.0
C844 C 0.25793 0.53674 0.29009 0.0
C845 C 0.24722 0.52274 0.24669 0.0
C846 C 0.24913 0.54422 0.3521 0.0
C847 C 0.22947 0.53788 0.37163 0.0
C848 C 0.21931 0.52311 0.32992 0.0
H849 H 0.12635 0.59633 0.3886 0.0
H850 H 0.16284 0.58982 0.38994 0.0
C851 C 0.22819 0.51542 0.26888 0.0
C852 C 0.21783 0.549 0.427 0.0
H853 H 0.17669 0.54056 0.53058 0.0
C854 C 0.21655 0.57042 0.42347 0.0
C855 C 0.20473 0.53863 0.4732 0.0
C856 C 0.20732 0.51624 0.48885 0.0
C857 C 0.20044 0.58112 0.45548 0.0
C858 C 0.18482 0.56999 0.48877 0.0
C859 C 0.18807 0.54916 0.50232 0.0
C860 C 0.16372 0.57821 0.49571 0.0
C861 C 0.19973 0.60408 0.44943 0.0
C862 C 0.15176 0.57389 0.55451 0.0
C863 C 0.13061 0.57708 0.55278 0.0
C864 C 0.12117 0.5849 0.49258 0.0
C865 C 0.1333 0.59064 0.43604 0.0
C866 C 0.1543 0.58708 0.4372 0.0
H867 H 0.21525 0.61064 0.45759 0.0
H868 H 0.19478 0.60813 0.39576 0.0
H869 H 0.18915 0.61123 0.48803 0.0
H870 H 0.15857 0.56696 0.60014 0.0
H871 H 0.12151 0.57255 0.59711 0.0
H872 H 0.94815 0.80906 0.06623 0.0
H873 H 0.93881 0.8284 0.96207 0.0
H874 H 0.98915 0.80054 0.85032 0.0
H875 H 0.99775 0.78068 0.95242 0.0
H876 H 0.96203 0.85607 0.92195 0.0
H877 H 0.95225 0.80689 0.68979 0.0
H878 H 0.95055 0.79673 0.77689 0.0
H879 H 0.97491 0.79832 0.73302 0.0
C880 C 0.95665 0.80655 0.01834 0.0
C881 C 0.97372 0.7935 0.01725 0.0
C882 C 0.95129 0.81753 0.9588 0.0
C883 C 0.96312 0.81588 0.89771 0.0
C884 C 0.97927 0.80169 0.89548 0.0
H885 H 0.03723 0.88249 0.68016 0.0
H886 H 0.01286 0.85656 0.71477 0.0
C887 C 0.98437 0.79045 0.95439 0.0
C888 C 0.962 0.83191 0.84358 0.0
H889 H 0.973 0.83888 0.67121 0.0
C890 C 0.96351 0.85238 0.86665 0.0
C891 C 0.96371 0.8273 0.77114 0.0
C892 C 0.96001 0.80608 0.74154 0.0
C893 C 0.96938 0.86785 0.82118 0.0
C894 C 0.97372 0.86269 0.7506 0.0
C895 C 0.96991 0.84272 0.7256 0.0
C896 C 0.98647 0.87642 0.70847 0.0
C897 C 0.97307 0.88912 0.85089 0.0
C898 C 0.97949 0.89584 0.68936 0.0
C899 C 0.99348 0.91082 0.6696 0.0
C900 C 0.01457 0.9065 0.6686 0.0
C901 C 0.02113 0.88637 0.68044 0.0
C902 C 1.00718 0.87147 0.70014 0.0
H903 H 0.97017 0.89018 0.90809 0.0
H904 H 0.98909 0.89388 0.8413 0.0
H905 H 0.96281 0.90015 0.82455 0.0
H906 H 0.96349 0.89983 0.69463 0.0
H907 H 0.98792 0.92606 0.65877 0.0
H908 H 0.75028 0.99662 0.98422 0.0
H909 H 0.72884 0.98762 0.8839 0.0
H910 H 0.7059 0.93516 0.993 0.0
H911 H 0.72658 0.94503 0.09592 0.0
H912 H 0.72012 0.95764 0.79245 0.0
H913 H 0.65478 0.96736 0.97738 0.0
H914 H 0.68065 0.97249 1.00476 0.0
H915 H 0.67196 0.94652 0.99269 0.0
C916 C 0.74106 0.98287 0.98615 0.0
C917 C 0.73976 0.9717 0.04793 0.0
C918 C 0.72883 0.97767 0.92866 0.0
C919 C 0.71527 0.96104 0.93157 0.0
C920 C 0.71571 0.94845 0.99044 0.0
H921 H 0.60612 0.98874 0.69318 0.0
H922 H 0.63071 0.96284 0.73019 0.0
C923 C 0.7276 0.95399 0.04892 0.0
C924 C 0.69879 0.95945 0.87802 0.0
H925 H 0.64817 0.97082 0.85968 0.0
C926 C 0.70426 0.95992 0.80697 0.0
C927 C 0.67797 0.96213 0.89668 0.0
C928 C 0.6709 0.96222 0.97187 0.0
C929 C 0.69001 0.96542 0.75542 0.0
C930 C 0.66985 0.97034 0.77555 0.0
C931 C 0.66374 0.96713 0.84467 0.0
C932 C 0.65654 0.9835 0.73264 0.0
C933 C 0.69698 0.96742 0.68082 0.0
C934 C 0.66305 1.00352 0.71963 0.0
C935 C 0.64899 0.01848 0.70065 0.0
C936 C 0.62809 0.01369 0.69401 0.0
C937 C 0.62198 0.99313 0.70012 0.0
C938 C 0.63606 0.97819 0.72006 0.0
H939 H 0.70932 0.95626 0.66852 0.0
H940 H 0.68413 0.96503 0.64332 0.0
H941 H 0.70326 0.98301 0.67352 0.0
H942 H 0.67868 1.00809 0.73058 0.0
H943 H 0.65434 0.03409 0.69696 0.0
H944 H 0.59758 0.74447 0.09008 0.0
H945 H 0.60782 0.72309 0.98953 0.0
H946 H 0.54699 0.7287 0.9027 0.0
H947 H 0.53737 0.75103 1.0005 0.0
H948 H 0.59231 0.68842 0.97954 0.0
H949 H 0.57641 0.72234 0.72499 0.0
H950 H 0.5786 0.73794 0.80374 0.0
H951 H 0.5544 0.72658 0.77842 0.0
C952 C 0.58681 0.74185 0.04758 0.0
C953 C 0.56674 0.74925 0.05242 0.0
C954 C 0.59262 0.72968 0.99017 0.0
C955 C 0.57826 0.72427 0.93791 0.0
C956 C 0.55862 0.73304 0.94064 0.0
H957 H 0.52362 0.62401 0.7992 0.0
H958 H 0.53801 0.65838 0.79966 0.0
C959 C 0.553 0.74562 0.99709 0.0
C960 C 0.58178 0.70601 0.89202 0.0
H961 H 0.56753 0.68517 0.73391 0.0
C962 C 0.58771 0.68789 0.92492 0.0
C963 C 0.57586 0.70515 0.82061 0.0
C964 C 0.5712 0.72417 0.78 0.0
C965 C 0.58559 0.6688 0.89145 0.0
C966 C 0.57757 0.66779 0.82247 0.0
C967 C 0.57354 0.68598 0.78693 0.0
C968 C 0.56947 0.64822 0.79391 0.0
C969 C 0.58995 0.6498 0.93305 0.0
C970 C 0.58232 0.6312 0.78461 0.0
C971 C 0.57411 0.61146 0.78535 0.0
C972 C 0.55297 0.60864 0.79419 0.0
C973 C 0.53997 0.62573 0.79281 0.0
C974 C 0.5482 0.64542 0.79282 0.0
H975 H 0.59398 0.65339 0.9885 0.0
H976 H 0.57644 0.6395 0.93237 0.0
H977 H 0.60297 0.64136 0.90928 0.0
H978 H 0.59877 0.63311 0.78405 0.0
H979 H 0.5844 0.59847 0.78468 0.0
H980 H 0.77811 0.53405 0.94529 0.0
H981 H 0.79876 0.53842 0.84112 0.0
H982 H 0.81941 0.59716 0.92078 0.0
H983 H 0.79981 0.59194 0.0283 0.0
H984 H 0.8072 0.56209 0.73519 0.0
H985 H 0.87171 0.56707 0.9278 0.0
H986 H 0.84591 0.56256 0.95547 0.0
H987 H 0.85371 0.58774 0.92948 0.0
C988 C 0.78656 0.54818 0.93957 0.0
C989 C 0.78772 0.56251 0.99493 0.0
C990 C 0.79837 0.55072 0.87988 0.0
C991 C 0.81128 0.56779 0.87415 0.0
C992 C 0.81021 0.58349 0.92528 0.0
H993 H 0.92331 0.53466 0.65639 0.0
H994 H 0.89653 0.56002 0.67966 0.0
C995 C 0.79886 0.58064 0.98624 0.0
C996 C 0.82803 0.56685 0.82194 0.0
H997 H 0.87937 0.55778 0.81422 0.0
C998 C 0.82306 0.56171 0.75205 0.0
C999 C 0.84884 0.56651 0.8435 0.0
C1000 C 0.85545 0.57113 0.91808 0.0
C1001 C 0.83795 0.5541 0.70576 0.0
C1002 C 0.85826 0.5519 0.72972 0.0
C1003 C 0.8637 0.55948 0.79629 0.0
C1004 C 0.87277 0.53761 0.69553 0.0
C1005 C 0.83159 0.54705 0.63338 0.0
C1006 C 0.86812 0.51666 0.69484 0.0
C1007 C 0.88344 0.50216 0.68383 0.0
C1008 C 0.90375 0.50832 0.67281 0.0
C1009 C 0.90796 0.52937 0.66692 0.0
C1010 C 0.89263 0.54391 0.67901 0.0
H1011 H 0.81891 0.55663 0.61314 0.0
H1012 H 0.84459 0.54754 0.59638 0.0
H1013 H 0.82599 0.53104 0.6356 0.0
H1014 H 0.85299 0.51145 0.70897 0.0
H1015 H 0.87957 0.48616 0.68932 0.0
H1016 H 1.00723 0.22418 0.99084 0.0
H1017 H 1.00282 0.1928 0.91922 0.0
H1018 H 0.06808 0.1892 0.89109 0.0
H1019 H 0.07248 0.21996 0.96467 0.0
H1020 H 1.0102 0.17982 0.79091 0.0
H1021 H 0.05939 0.13351 0.96328 0.0
H1022 H 0.05188 0.15928 0.98637 0.0
H1023 H 0.07294 0.15471 0.92767 0.0
C1024 C 0.02059 0.21691 0.96814 0.0
C1025 C 0.04021 0.22472 0.9834 0.0
C1026 C 0.01809 0.19879 0.92755 0.0
C1027 C 0.03515 0.18795 0.90103 0.0
C1028 C 0.05464 0.19656 0.91266 0.0
H1029 H 0.04618 0.07152 0.65372 0.0
H1030 H 0.05338 0.10473 0.71278 0.0
C1031 C 0.05714 0.21446 0.95389 0.0
C1032 C 0.03257 0.16769 0.86206 0.0
H1033 H 0.04877 0.11759 0.85648 0.0
C1034 C 0.01866 0.16627 0.80569 0.0
C1035 C 0.04346 0.14967 0.88052 0.0
C1036 C 0.05758 0.14926 0.94318 0.0
C1037 C 0.0155 0.14778 0.76754 0.0
C1038 C 0.02643 0.12984 0.78579 0.0
C1039 C 0.0405 0.13125 0.84157 0.0
C1040 C 0.02252 0.10933 0.75053 0.0
C1041 C 1.00046 0.14773 0.70749 0.0
C1042 C 1.00295 0.10051 0.75246 0.0
C1043 C 0.99895 0.08154 0.71961 0.0
C1044 C 0.01443 0.07049 0.6846 0.0
C1045 C 0.03406 0.07927 0.68204 0.0
C1046 C 0.03812 0.09836 0.71542 0.0
H1047 H 0.9991 0.16313 0.68419 0.0
H1048 H 1.00497 0.13662 0.66601 0.0
H1049 H 0.98516 0.14331 0.72698 0.0
H1050 H 0.99064 0.10832 0.7796 0.0
H1051 H 0.98356 0.07543 0.72168 0.0
H1052 H 0.30378 0.0142 0.93523 0.0
H1053 H 0.33512 1.01 0.86517 0.0
H1054 H 0.35623 0.06912 0.93754 0.0
H1055 H 0.32521 0.07327 0.00792 0.0
H1056 H 0.3609 0.05528 0.77401 0.0
H1057 H 0.39439 1.00523 0.97754 0.0
H1058 H 0.36815 1.00127 0.9511 0.0
H1059 H 0.37512 0.02415 0.99844 0.0
C1060 C 0.31485 0.02651 0.93488 0.0
C1061 C 0.31184 0.04411 0.97727 0.0
C1062 C 0.33287 0.02405 0.8951 0.0
C1063 C 0.3482 0.03922 0.89598 0.0
C1064 C 0.34474 0.05719 0.93562 0.0
H1065 H 0.46808 0.04997 0.67723 0.0
H1066 H 0.43544 0.05805 0.73481 0.0
C1067 C 0.32693 0.05954 0.97591 0.0
C1068 C 0.3684 0.03587 0.86001 0.0
H1069 H 0.41452 1.01179 0.87959 0.0
C1070 C 0.37262 0.04568 0.79678 0.0
C1071 C 0.38383 0.02352 0.88968 0.0
C1072 C 0.38037 0.01293 0.95808 0.0
C1073 C 0.39156 0.04311 0.76184 0.0
C1074 C 0.40716 0.03073 0.7917 0.0
C1075 C 0.40284 0.02117 0.8556 0.0
C1076 C 0.42764 0.02655 0.7572 0.0
C1077 C 0.3943 0.05342 0.69252 0.0
C1078 C 0.43508 1.00636 0.75254 0.0
C1079 C 0.45422 1.00194 0.72313 0.0
C1080 C 0.46671 0.01748 0.69647 0.0
C1081 C 0.45924 0.03769 0.69928 0.0
C1082 C 0.4402 0.04223 0.7308 0.0
H1083 H 0.37935 0.05641 0.66674 0.0
H1084 H 0.40191 0.06842 0.70152 0.0
H1085 H 0.40383 0.04409 0.65627 0.0
H1086 H 0.42597 0.99379 0.77142 0.0
H1087 H 0.45922 0.98614 0.72068 0.0
H1088 H 0.52211 0.30428 0.94886 0.0
H1089 H 0.52678 0.33426 0.874 0.0
H1090 H 0.46196 0.3459 0.8805 0.0
H1091 H 0.45729 0.31627 0.95504 0.0
H1092 H 0.50926 0.34799 0.74196 0.0
H1093 H 0.48702 0.39867 0.9647 0.0
H1094 H 0.4935 0.37208 0.97572 0.0
H1095 H 0.46862 0.37911 0.94364 0.0
C1096 C 0.50882 0.31295 0.93282 0.0
C1097 C 0.48934 0.30792 0.95844 0.0
C1098 C 0.51151 0.33018 0.89035 0.0
C1099 C 0.49478 0.34273 0.87274 0.0
C1100 C 0.4752 0.33684 0.89444 0.0
H1101 H 0.47533 0.46177 0.68323 0.0
H1102 H 0.47178 0.42768 0.73254 0.0
C1103 C 0.47253 0.31977 0.9368 0.0
C1104 C 0.49769 0.36256 0.83551 0.0
H1105 H 0.49034 0.41428 0.85446 0.0
C1106 C 0.50526 0.36249 0.76672 0.0
C1107 C 0.49246 0.3816 0.86744 0.0
C1108 C 0.48512 0.38299 0.94214 0.0
C1109 C 0.50719 0.38077 0.72872 0.0
C1110 C 0.5018 0.39978 0.76064 0.0
C1111 C 0.49439 0.3998 0.82955 0.0
C1112 C 0.50384 0.41988 0.72437 0.0
C1113 C 0.51443 0.37954 0.65396 0.0
C1114 C 0.52299 0.427 0.70211 0.0
C1115 C 0.5251 0.44669 0.67449 0.0
C1116 C 0.50816 0.45992 0.66904 0.0
C1117 C 0.48886 0.45236 0.68835 0.0
C1118 C 0.48676 0.43273 0.71627 0.0
H1119 H 0.51274 0.36384 0.63137 0.0
H1120 H 0.50584 0.39037 0.62064 0.0
H1121 H 0.53087 0.38371 0.65224 0.0
H1122 H 0.53649 0.4176 0.70838 0.0
H1123 H 0.54017 0.4517 0.65961 0.0
H1124 H 0.22311 0.54109 0.0121 0.0
H1125 H 0.1927 0.53918 0.93681 0.0
H1126 H 0.20595 0.47597 0.88833 0.0
H1127 H 0.23665 0.47783 0.964 0.0
H1128 H 0.18905 0.51659 0.7723 0.0
H1129 H 0.14447 0.48853 0.99897 0.0
H1130 H 0.16527 0.50635 0.01264 0.0
H1131 H 0.17062 0.48054 0.98548 0.0
C1132 C 0.21988 0.52691 0.98397 0.0
C1133 C 0.23242 0.50964 0.99383 0.0
C1134 C 0.20242 0.52583 0.94107 0.0
C1135 C 0.19692 0.50743 0.907 0.0
C1136 C 0.20989 0.49036 0.91391 0.0
H1137 H 0.07511 0.47749 0.73487 0.0
H1138 H 0.10948 0.47574 0.78588 0.0
C1139 C 0.22753 0.49147 0.95674 0.0
C1140 C 0.17683 0.50589 0.86922 0.0
H1141 H 0.12617 0.4956 0.8961 0.0
C1142 C 0.17531 0.51184 0.79909 0.0
C1143 C 0.15887 0.49971 0.90401 0.0
C1144 C 0.15966 0.49338 0.97947 0.0
C1145 C 0.15634 0.5119 0.76314 0.0
C1146 C 0.1382 0.50628 0.79866 0.0
C1147 C 0.13989 0.49994 0.86849 0.0
C1148 C 0.11731 0.50723 0.76528 0.0
C1149 C 0.15603 0.51775 0.6871 0.0
C1150 C 0.10987 0.52553 0.73694 0.0
C1151 C 0.09009 0.5266 0.70804 0.0
C1152 C 0.07698 0.50946 0.70727 0.0
C1153 C 0.08448 0.49112 0.73545 0.0
C1154 C 0.10428 0.49007 0.76439 0.0
H1155 H 0.17117 0.51524 0.66224 0.0
H1156 H 0.14435 0.50887 0.65709 0.0
H1157 H 0.15231 0.53425 0.68324 0.0
H1158 H 0.11923 0.5392 0.73821 0.0
H1159 H 0.08505 0.54102 0.68699 0.0
H1160 H 0.03499 0.80993 0.23414 0.0
H1161 H 0.04062 0.84153 0.30385 0.0
H1162 H 0.97635 0.84407 0.35154 0.0
H1163 H 0.97075 0.81271 0.28168 0.0
H1164 H 0.02208 0.87929 0.27234 0.0
H1165 H 1.0023 0.85818 0.54328 0.0
H1166 H 1.00841 0.83931 0.47634 0.0
H1167 H 0.98353 0.85097 0.4784 0.0
C1168 C 0.02222 0.81681 0.26168 0.0
C1169 C 1.00249 0.80847 0.25348 0.0
C1170 C 0.02539 0.83505 0.30106 0.0
C1171 C 1.00897 0.84529 0.33411 0.0
C1172 C 0.98941 0.83644 0.32824 0.0
H1173 H 0.99419 0.96309 0.56465 0.0
H1174 H 0.98936 0.92895 0.5104 0.0
C1175 C 0.98621 0.8184 0.28827 0.0
C1176 C 1.01183 0.86615 0.36821 0.0
H1177 H 1.00578 0.89363 0.52146 0.0
C1178 C 0.01867 0.88235 0.32703 0.0
C1179 C 1.00709 0.87046 0.43936 0.0
C1180 C 1.00008 0.85381 0.48727 0.0
C1181 C 0.02053 0.90256 0.35396 0.0
C1182 C 0.0161 0.90695 0.42558 0.0
C1183 C 1.00924 0.89065 0.46684 0.0
C1184 C 0.01876 0.9281 0.45852 0.0
C1185 C 0.02653 0.91903 0.30376 0.0
C1186 C 0.03695 0.93926 0.44946 0.0
C1187 C 0.03935 0.95904 0.47836 0.0
C1188 C 0.02384 0.96833 0.51856 0.0
C1189 C 1.00604 0.95687 0.53109 0.0
C1190 C 1.00343 0.93713 0.50082 0.0
H1191 H 0.0216 0.91511 0.24941 0.0
H1192 H 0.01977 0.93398 0.31865 0.0
H1193 H 0.04343 0.92053 0.30357 0.0
H1194 H 0.04955 0.9326 0.42056 0.0
H1195 H 0.05361 0.96705 0.47004 0.0
H1196 H 0.72052 0.03185 0.24176 0.0
H1197 H 0.68964 0.0369 0.31219 0.0
H1198 H 0.69883 0.9779 0.40487 0.0
H1199 H 0.72933 0.97265 0.33236 0.0
H1200 H 0.6612 0.98044 0.36494 0.0
H1201 H 0.6771 0.05253 0.50888 0.0
H1202 H 0.67992 0.05589 0.41657 0.0
H1203 H 0.69677 0.03872 0.46204 0.0
C1204 C 0.71638 0.02033 0.27919 0.0
C1205 C 0.72777 1.00212 0.283 0.0
C1206 C 0.69861 0.02319 0.3196 0.0
C1207 C 0.69178 1.00797 0.36544 0.0
C1208 C 0.70361 0.99002 0.37067 0.0
H1209 H 0.57231 0.9951 0.58857 0.0
H1210 H 0.607 0.98836 0.54482 0.0
C1211 C 0.72126 0.9871 0.3298 0.0
C1212 C 0.67149 1.00992 0.40266 0.0
H1213 H 0.64183 0.04266 0.50069 0.0
C1214 C 0.6571 0.99399 0.39532 0.0
C1215 C 0.66589 0.02742 0.4432 0.0
C1216 C 0.68083 0.04449 0.45882 0.0
C1217 C 0.63723 0.99542 0.4239 0.0
C1218 C 0.63126 0.01335 0.4618 0.0
C1219 C 0.64595 0.02899 0.4711 0.0
C1220 C 0.60979 0.01685 0.48913 0.0
C1221 C 0.62273 0.97786 0.41052 0.0
C1222 C 0.59959 0.03533 0.47508 0.0
C1223 C 0.57994 0.03931 0.50128 0.0
C1224 C 0.56954 0.02483 0.54138 0.0
C1225 C 0.57959 1.00632 0.55594 0.0
C1226 C 0.5995 1.00245 0.53058 0.0
H1227 H 0.62718 0.96859 0.36374 0.0
H1228 H 0.62293 0.96765 0.4563 0.0
H1229 H 0.60695 0.98342 0.40273 0.0
H1230 H 0.60689 0.04686 0.44377 0.0
H1231 H 0.5728 0.05386 0.49013 0.0
H1232 H 0.51159 0.74021 0.30629 0.0
H1233 H 0.50674 0.71077 0.38324 0.0
H1234 H 0.57115 0.69729 0.37106 0.0
H1235 H 0.57602 0.72659 0.29528 0.0
H1236 H 0.51427 0.67032 0.34704 0.0
H1237 H 0.56137 0.69097 0.57899 0.0
H1238 H 0.5536 0.70956 0.5153 0.0
H1239 H 0.57517 0.69312 0.49855 0.0
C1240 C 0.52479 0.73132 0.32183 0.0
C1241 C 0.54421 0.73588 0.29484 0.0
C1242 C 0.52199 0.71436 0.36538 0.0
C1243 C 0.53861 0.70176 0.38394 0.0
C1244 C 0.55811 0.70685 0.35912 0.0
H1245 H 0.55933 0.58192 0.5644 0.0
H1246 H 0.56201 0.61625 0.5157 0.0
C1247 C 0.56086 0.72362 0.31536 0.0
C1248 C 0.53547 0.68236 0.42375 0.0
H1249 H 0.55237 0.65556 0.5656 0.0
C1250 C 0.5224 0.66724 0.39535 0.0
C1251 C 0.54616 0.67809 0.48667 0.0
C1252 C 0.55971 0.69387 0.5221 0.0
C1253 C 0.52026 0.64792 0.42639 0.0
C1254 C 0.53118 0.64353 0.48875 0.0
C1255 C 0.54402 0.65876 0.51782 0.0
C1256 C 0.52972 0.6231 0.52337 0.0
C1257 C 0.50691 0.63206 0.3904 0.0
C1258 C 0.51084 0.61557 0.54664 0.0
C1259 C 0.50925 0.59582 0.57397 0.0
C1260 C 0.52649 0.58296 0.57874 0.0
C1261 C 0.54559 0.59102 0.55941 0.0
C1262 C 0.54718 0.61079 0.53201 0.0
H1263 H 0.50387 0.63585 0.33484 0.0
H1264 H 0.51407 0.61667 0.39211 0.0
H1265 H 0.49199 0.63135 0.41763 0.0
H1266 H 0.49721 0.62489 0.54275 0.0
H1267 H 0.49434 0.59051 0.58968 0.0
H1268 H 0.79111 0.53945 0.32404 0.0
H1269 H 0.82039 0.53318 0.40181 0.0
H1270 H 0.86003 0.52882 0.22251 0.0
H1271 H 0.83097 0.53276 0.14554 0.0
H1272 H 0.87205 0.50269 0.30373 0.0
H1273 H 0.86185 0.57181 0.47274 0.0
H1274 H 0.84027 0.5549 0.47163 0.0
H1275 H 0.84742 0.56774 0.39302 0.0
C1276 C 0.80602 0.5369 0.30116 0.0
C1277 C 0.80848 0.53729 0.2279 0.0
C1278 C 0.82295 0.53371 0.34601 0.0
C1279 C 0.84288 0.53126 0.31894 0.0
C1280 C 0.84509 0.53092 0.24582 0.0
H1281 H 0.95956 0.55384 0.53108 0.0
H1282 H 0.92617 0.55576 0.47327 0.0
C1283 C 0.82827 0.53355 0.20136 0.0
C1284 C 0.8616 0.52862 0.36478 0.0
H1285 H 0.88899 0.54977 0.50168 0.0
C1286 C 0.87568 0.51311 0.34683 0.0
C1287 C 0.86677 0.54218 0.4211 0.0
C1288 C 0.85343 0.56022 0.44054 0.0
C1289 C 0.89474 0.5112 0.38095 0.0
C1290 C 0.8997 0.52436 0.43857 0.0
C1291 C 0.88538 0.53953 0.45804 0.0
C1292 C 0.91993 0.52323 0.47684 0.0
C1293 C 0.90973 0.49573 0.35165 0.0
C1294 C 0.92778 0.50448 0.50021 0.0
C1295 C 0.94734 0.50326 0.53061 0.0
C1296 C 0.95944 0.52086 0.54124 0.0
C1297 C 0.95109 0.53983 0.52187 0.0
C1298 C 0.93174 0.54097 0.48951 0.0
H1299 H 0.90647 0.49205 0.29568 0.0
H1300 H 0.92571 0.50135 0.35583 0.0
H1301 H 0.9084 0.48128 0.38089 0.0
H1302 H 0.91883 0.49062 0.4947 0.0
H1303 H 0.9529 0.4884 0.54585 0.0
loop_
_geom_bond_atom_site_label_1
_geom_bond_atom_site_label_2
_geom_bond_distance
_geom_bond_site_symmetry_2
_ccdc_geom_bond_type
H0 C7 0.929 . S
H1 C10 0.930 . S
H2 C12 0.929 . S
H3 C4 0.969 . S
C4 H3 0.969 . S
C4 O5 1.550 . S
C4 H6 0.973 . S
O5 C4 1.550 . S
O5 C11 1.412 . S
H6 C4 0.973 . S
C7 H0 0.929 . S
C7 C8 1.400 . S
C7 C9 1.364 . S
C8 C7 1.400 . S
C8 C12 1.377 . S
C9 C7 1.364 . S
C9 C10 1.374 . S
C10 H1 0.930 . S
C10 C9 1.374 . S
C10 C11 1.383 . S
C11 O5 1.412 . S
C11 C10 1.383 . S
C11 C12 1.394 . S
C12 H2 0.929 . S
C12 C8 1.377 . S
C12 C11 1.394 . S
H13 C20 0.929 . S
H14 C23 0.930 . S
H15 C25 0.929 . S
H16 C17 0.969 . S
C17 H16 0.969 . S
C17 O18 1.550 . S
C17 H19 0.973 . S
O18 C17 1.550 . S
O18 C24 1.412 . S
H19 C17 0.973 . S
C20 H13 0.929 . S
C20 C21 1.400 . S
C20 C22 1.364 . S
C21 C20 1.400 . S
C21 C25 1.377 . S
C22 C20 1.364 . S
C22 C23 1.374 . S
C23 H14 0.930 . S
C23 C22 1.374 . S
C23 C24 1.383 . S
C24 O18 1.412 . S
C24 C23 1.383 . S
C24 C25 1.394 . S
C25 H15 0.929 . S
C25 C21 1.377 . S
C25 C24 1.394 . S
H26 C33 0.929 . S
H27 C36 0.930 . S
H28 C38 0.929 . S
H29 C30 0.969 . S
C30 H29 0.969 . S
C30 O31 1.550 . S
C30 H32 0.973 . S
O31 C30 1.550 . S
O31 C37 1.412 . S
H32 C30 0.973 . S
C33 H26 0.929 . S
C33 C34 1.400 . S
C33 C35 1.364 . S
C34 C33 1.400 . S
C34 C38 1.377 . S
C35 C33 1.364 . S
C35 C36 1.374 . S
C36 H27 0.930 . S
C36 C35 1.374 . S
C36 C37 1.383 . S
C37 O31 1.412 . S
C37 C36 1.383 . S
C37 C38 1.394 . S
C38 H28 0.929 . S
C38 C34 1.377 . S
C38 C37 1.394 . S
H39 C46 0.929 . S
H40 C49 0.930 . S
H41 C51 0.929 . S
H42 C43 0.969 . S
C43 H42 0.969 . S
C43 O44 1.550 . S
C43 H45 0.973 . S
O44 C43 1.550 . S
O44 C50 1.412 . S
H45 C43 0.973 . S
C46 H39 0.929 . S
C46 C47 1.400 . S
C46 C48 1.364 . S
C47 C46 1.400 . S
C47 C51 1.377 . S
C48 C46 1.364 . S
C48 C49 1.374 . S
C49 H40 0.930 . S
C49 C48 1.374 . S
C49 C50 1.383 . S
C50 O44 1.412 . S
C50 C49 1.383 . S
C50 C51 1.394 . S
C51 H41 0.929 . S
C51 C47 1.377 . S
C51 C50 1.394 . S
H52 C59 0.929 . S
H53 C62 0.930 . S
H54 C64 0.929 . S
H55 C56 0.969 . S
C56 H55 0.969 . S
C56 O57 1.550 . S
C56 H58 0.973 . S
O57 C56 1.550 . S
O57 C63 1.412 . S
H58 C56 0.973 . S
C59 H52 0.929 . S
C59 C60 1.400 . S
C59 C61 1.364 1_556 S
C60 C59 1.400 . S
C60 C64 1.377 . S
C61 C59 1.364 1_554 S
C61 C62 1.374 . S
C62 H53 0.930 . S
C62 C61 1.374 . S
C62 C63 1.383 . S
C63 O57 1.412 . S
C63 C62 1.383 . S
C63 C64 1.394 1_554 S
C64 H54 0.929 . S
C64 C60 1.377 . S
C64 C63 1.394 1_556 S
H65 C72 0.929 . S
H66 C75 0.930 . S
H67 C77 0.929 . S
H68 C69 0.969 . S
C69 H68 0.969 . S
C69 O70 1.550 . S
C69 H71 0.973 . S
O70 C69 1.550 . S
O70 C76 1.412 . S
H71 C69 0.973 . S
C72 H65 0.929 . S
C72 C73 1.400 . S
C72 C74 1.364 1_556 S
C73 C72 1.400 . S
C73 C77 1.377 . S
C74 C72 1.364 1_554 S
C74 C75 1.374 . S
C75 H66 0.930 . S
C75 C74 1.374 . S
C75 C76 1.383 . S
C76 O70 1.412 . S
C76 C75 1.383 . S
C76 C77 1.394 1_554 S
C77 H67 0.929 . S
C77 C73 1.377 . S
C77 C76 1.394 1_556 S
H78 C85 0.929 . S
H79 C88 0.930 . S
H80 C90 0.929 . S
H81 C82 0.969 . S
C82 H81 0.969 . S
C82 O83 1.550 . S
C82 H84 0.973 . S
O83 C82 1.550 . S
O83 C89 1.412 . S
H84 C82 0.973 . S
C85 H78 0.929 . S
C85 C86 1.400 . S
C85 C87 1.364 1_556 S
C86 C85 1.400 . S
C86 C90 1.377 . S
C87 C85 1.364 1_554 S
C87 C88 1.374 . S
C88 H79 0.930 . S
C88 C87 1.374 . S
C88 C89 1.383 . S
C89 O83 1.412 . S
C89 C88 1.383 . S
C89 C90 1.394 1_554 S
C90 H80 0.929 . S
C90 C86 1.377 . S
C90 C89 1.394 1_556 S
H91 C98 0.929 . S
H92 C101 0.930 . S
H93 C103 0.929 . S
H94 C95 0.969 . S
C95 H94 0.969 . S
C95 O96 1.550 . S
C95 H97 0.973 . S
O96 C95 1.550 . S
O96 C102 1.412 . S
H97 C95 0.973 . S
C98 H91 0.929 . S
C98 C99 1.400 . S
C98 C100 1.364 1_556 S
C99 C98 1.400 . S
C99 C103 1.377 . S
C100 C98 1.364 1_554 S
C100 C101 1.374 . S
C101 H92 0.930 . S
C101 C100 1.374 . S
C101 C102 1.383 . S
C102 O96 1.412 . S
C102 C101 1.383 . S
C102 C103 1.394 1_554 S
C103 H93 0.929 . S
C103 C99 1.377 . S
C103 C102 1.394 1_556 S
Tb104 N135 2.660 1_565 S
Tb104 N142 2.598 1_565 S
Tb104 O148 2.546 . S
Tb104 O149 2.610 1_455 S
Tb104 O151 2.320 1_455 S
Tb104 O152 2.552 . S
Tb104 O153 2.413 . S
Tb104 O155 2.362 1_565 S
Tb104 O156 2.421 . S
Tb104 C168 2.833 . S
C105 C108 1.411 1_545 S
C105 C109 1.414 . S
C105 N112 1.359 . S
C106 C108 1.450 . S
C106 C110 1.432 . S
C106 C118 1.410 . S
C107 C109 1.444 1_565 S
C107 C110 1.317 . S
C107 H130 0.929 . S
C108 C105 1.411 1_565 S
C108 C106 1.450 . S
C108 N116 1.350 1_565 S
C109 C105 1.414 . S
C109 C107 1.444 1_545 S
C109 C114 1.385 . S
C110 C106 1.432 . S
C110 C107 1.317 . S
C110 H122 0.930 . S
C111 C113 1.392 . S
C111 C114 1.370 . S
C111 H123 0.931 . S
N112 C105 1.359 . S
N112 C113 1.327 . S
N112 Tb115 2.600 . S
C113 C111 1.392 . S
C113 N112 1.327 . S
C113 H120 0.930 . S
C114 C109 1.385 . S
C114 C111 1.370 . S
C114 H133 0.930 . S
Tb115 N112 2.600 . S
Tb115 N116 2.660 . S
Tb115 O149 2.362 1_545 S
Tb115 O150 2.421 . S
Tb115 O154 2.546 . S
Tb115 O155 2.610 1_655 S
Tb115 O157 2.320 1_655 S
Tb115 O158 2.552 1_655 S
Tb115 O159 2.413 . S
Tb115 C179 2.833 . S
N116 C108 1.350 1_545 S
N116 Tb115 2.660 . S
N116 C117 1.305 1_645 S
C117 N116 1.305 1_465 S
C117 C119 1.407 . S
C117 H124 0.930 . S
C118 C106 1.410 . S
C118 C119 1.345 1_655 S
C118 H126 0.930 . S
C119 C117 1.407 . S
C119 C118 1.345 1_455 S
C119 H121 0.930 . S
H120 C113 0.930 . S
H121 C119 0.930 . S
H122 C110 0.930 . S
H123 C111 0.931 . S
H124 C117 0.930 . S
H125 C139 0.930 1_655 S
H126 C118 0.930 . S
H127 C145 0.930 . S
H128 C136 0.930 1_655 S
H129 C143 0.931 . S
H130 C107 0.929 . S
H131 C137 0.930 . S
H132 C170 0.930 . S
H133 C114 0.930 . S
H134 C169 0.929 . S
N135 Tb104 2.660 1_545 S
N135 C136 1.305 . S
N135 C140 1.360 . S
C136 H128 0.930 1_455 S
C136 N135 1.305 . S
C136 C139 1.407 . S
C137 H131 0.930 . S
C137 C138 1.410 . S
C137 C139 1.345 . S
C138 C137 1.410 . S
C138 C140 1.417 . S
C138 C170 1.432 . S
C139 H125 0.930 1_455 S
C139 C136 1.407 . S
C139 C137 1.345 . S
C140 N135 1.360 . S
C140 C138 1.417 . S
C140 C144 1.432 . S
H141 C146 0.930 . S
N142 Tb104 2.598 1_545 S
N142 C144 1.364 . S
N142 C145 1.323 1_545 S
C143 H129 0.931 . S
C143 C145 1.392 . S
C143 C146 1.370 1_565 S
C144 C140 1.432 . S
C144 N142 1.364 . S
C144 C147 1.414 . S
C145 H127 0.930 . S
C145 N142 1.323 1_565 S
C145 C143 1.392 . S
C146 H141 0.930 . S
C146 C143 1.370 1_545 S
C146 C147 1.385 . S
C147 C144 1.414 . S
C147 C146 1.385 . S
C147 C169 1.444 . S
O148 Tb104 2.546 . S
O148 C168 1.251 . S
O149 Tb104 2.610 1_655 S
O149 Tb115 2.362 1_565 S
O149 C160 1.283 . S
O150 Tb115 2.421 . S
O150 C167 1.262 . S
O151 Tb104 2.320 1_655 S
O151 C167 1.260 1_565 S
O152 Tb104 2.552 . S
O152 C160 1.243 1_455 S
O153 Tb104 2.413 . S
O153 C168 1.256 . S
O154 Tb115 2.546 . S
O154 C179 1.251 . S
O155 Tb104 2.362 1_545 S
O155 Tb115 2.610 1_455 S
O155 C171 1.283 . S
O156 Tb104 2.421 . S
O156 C178 1.262 1_565 S
O157 Tb115 2.320 1_455 S
O157 C178 1.260 . S
O158 Tb115 2.552 1_455 S
O158 C171 1.243 . S
O159 Tb115 2.413 . S
O159 C179 1.253 . S
C160 O149 1.283 . S
C160 O152 1.243 1_655 S
C161 C163 1.382 . S
C161 C165 1.393 . S
C161 C168 1.500 . S
C162 C163 1.400 . S
C162 C164 1.384 . S
C163 C161 1.382 . S
C163 C162 1.400 . S
C163 H180 0.930 1_455 S
C164 C162 1.384 . S
C164 C166 1.392 . S
C164 H181 0.931 . S
C165 C161 1.393 . S
C165 C166 1.401 . S
C165 H182 0.930 . S
C166 C164 1.392 . S
C166 C165 1.401 . S
C166 H183 0.930 . S
C167 O150 1.262 . S
C167 O151 1.260 1_545 S
C168 Tb104 2.833 . S
C168 O148 1.251 . S
C168 O153 1.256 . S
C168 C161 1.500 . S
C169 H134 0.929 . S
C169 C147 1.444 . S
C169 C170 1.317 . S
C170 H132 0.930 . S
C170 C138 1.432 . S
C170 C169 1.317 . S
C171 O155 1.283 . S
C171 O158 1.243 . S
C172 C173 1.345 1_655 S
C172 C176 1.393 . S
C172 C179 1.500 . S
C173 C172 1.345 1_455 S
C173 C174 1.398 1_455 S
C173 H184 0.970 . S
C174 C173 1.398 1_655 S
C174 C175 1.397 . S
C175 C174 1.397 . S
C175 C177 1.392 . S
C175 H185 0.931 . S
C176 C172 1.393 . S
C176 C177 1.401 . S
C176 H186 0.930 . S
C177 C175 1.392 . S
C177 C176 1.401 . S
C177 H187 0.930 . S
C178 O156 1.262 1_545 S
C178 O157 1.260 . S
C179 Tb115 2.833 . S
C179 O154 1.251 . S
C179 O159 1.253 . S
C179 C172 1.500 . S
H180 C163 0.930 1_655 S
H181 C164 0.931 . S
H182 C165 0.930 . S
H183 C166 0.930 . S
H184 C173 0.970 . S
H185 C175 0.931 . S
H186 C176 0.930 . S
H187 C177 0.930 . S
Tb188 N219 2.660 . S
Tb188 N226 2.600 . S
Tb188 O232 2.546 . S
Tb188 O233 2.610 1_545 S
Tb188 O235 2.320 1_545 S
Tb188 O236 2.552 . S
Tb188 O237 2.413 . S
Tb188 O239 2.362 . S
Tb188 O240 2.421 . S
Tb188 C252 2.833 . S
C189 C192 1.432 . S
C189 C193 1.414 . S
C189 N196 1.359 . S
C190 C192 1.417 . S
C190 C194 1.432 . S
C190 C202 1.410 . S
C191 C193 1.444 . S
C191 C194 1.317 . S
C191 H214 0.929 . S
C192 C189 1.432 . S
C192 C190 1.417 . S
C192 N200 1.360 . S
C193 C189 1.414 . S
C193 C191 1.444 . S
C193 C198 1.385 . S
C194 C190 1.432 . S
C194 C191 1.317 . S
C194 H206 0.930 . S
C195 C197 1.392 . S
C195 C198 1.370 . S
C195 H207 0.931 . S
N196 C189 1.359 . S
N196 C197 1.327 . S
N196 Tb199 2.600 . S
C197 C195 1.392 . S
C197 N196 1.327 . S
C197 H204 0.930 . S
C198 C193 1.385 . S
C198 C195 1.370 . S
C198 H217 0.930 . S
Tb199 N196 2.600 . S
Tb199 N200 2.660 . S
Tb199 O233 2.362 . S
Tb199 O234 2.421 . S
Tb199 O238 2.546 . S
Tb199 O239 2.610 1_565 S
Tb199 O241 2.320 1_565 S
Tb199 O242 2.552 1_565 S
Tb199 O243 2.413 1_565 S
Tb199 C263 2.833 . S
N200 C192 1.360 . S
N200 Tb199 2.660 . S
N200 C201 1.305 1_565 S
C201 N200 1.305 1_545 S
C201 C203 1.407 . S
C201 H208 0.930 . S
C202 C190 1.410 . S
C202 C203 1.345 1_565 S
C202 H210 0.930 . S
C203 C201 1.407 . S
C203 C202 1.345 1_545 S
C203 H205 0.930 . S
H204 C197 0.930 . S
H205 C203 0.930 . S
H206 C194 0.930 . S
H207 C195 0.931 . S
H208 C201 0.930 . S
H209 C223 0.930 1_565 S
H210 C202 0.930 . S
H211 C229 0.930 . S
H212 C220 0.930 1_565 S
H213 C227 0.931 . S
H214 C191 0.929 . S
H215 C221 0.930 . S
H216 C254 0.930 . S
H217 C198 0.930 . S
H218 C253 0.929 . S
N219 Tb188 2.660 . S
N219 C220 1.305 . S
N219 C224 1.360 . S
C220 H212 0.930 1_545 S
C220 N219 1.305 . S
C220 C223 1.407 . S
C221 H215 0.930 . S
C221 C222 1.410 . S
C221 C223 1.345 . S
C222 C221 1.410 . S
C222 C224 1.417 . S
C222 C254 1.432 . S
C223 H209 0.930 1_545 S
C223 C220 1.407 . S
C223 C221 1.345 . S
C224 N219 1.360 . S
C224 C222 1.417 . S
C224 C228 1.432 . S
H225 C230 0.930 . S
N226 Tb188 2.600 . S
N226 C228 1.359 . S
N226 C229 1.327 . S
C227 H213 0.931 . S
C227 C229 1.392 . S
C227 C230 1.370 . S
C228 C224 1.432 . S
C228 N226 1.359 . S
C228 C231 1.414 . S
C229 H211 0.930 . S
C229 N226 1.327 . S
C229 C227 1.392 . S
C230 H225 0.930 . S
C230 C227 1.370 . S
C230 C231 1.385 . S
C231 C228 1.414 . S
C231 C230 1.385 . S
C231 C253 1.444 . S
O232 Tb188 2.546 . S
O232 C252 1.251 . S
O233 Tb188 2.610 1_565 S
O233 Tb199 2.362 . S
O233 C244 1.283 1_565 S
O234 Tb199 2.421 . S
O234 C251 1.262 . S
O235 Tb188 2.320 1_565 S
O235 C251 1.260 . S
O236 Tb188 2.552 . S
O236 C244 1.251 . S
O237 Tb188 2.413 . S
O237 C252 1.256 . S
O238 Tb199 2.546 . S
O238 C263 1.251 . S
O239 Tb188 2.362 . S
O239 Tb199 2.610 1_545 S
O239 C255 1.283 . S
O240 Tb188 2.421 . S
O240 C262 1.262 . S
O241 Tb199 2.320 1_545 S
O241 C262 1.260 . S
O242 Tb199 2.552 1_545 S
O242 C255 1.243 . S
O243 Tb199 2.413 1_545 S
O243 C263 1.256 1_545 S
C244 O233 1.283 1_545 S
C244 O236 1.251 . S
C245 C247 1.382 . S
C245 C249 1.393 . S
C245 C252 1.500 . S
C246 C247 1.400 . S
C246 C248 1.384 . S
C247 C245 1.382 . S
C247 C246 1.400 . S
C247 H264 0.930 . S
C248 C246 1.384 . S
C248 C250 1.392 . S
C248 H265 0.931 . S
C249 C245 1.393 . S
C249 C250 1.401 . S
C249 H266 0.930 . S
C250 C248 1.392 . S
C250 C249 1.401 . S
C250 H267 0.930 . S
C251 O234 1.262 . S
C251 O235 1.260 . S
C252 Tb188 2.833 . S
C252 O232 1.251 . S
C252 O237 1.256 . S
C252 C245 1.500 . S
C253 H218 0.929 . S
C253 C231 1.444 . S
C253 C254 1.317 . S
C254 H216 0.930 . S
C254 C222 1.432 . S
C254 C253 1.317 . S
C255 O239 1.283 . S
C255 O242 1.243 . S
C256 C257 1.382 1_565 S
C256 C260 1.393 . S
C256 C263 1.500 . S
C257 C256 1.382 1_545 S
C257 C258 1.405 . S
C257 H268 0.930 . S
C258 C257 1.405 . S
C258 C259 1.333 1_545 S
C259 C258 1.333 1_565 S
C259 C261 1.392 . S
C259 H269 0.931 . S
C260 C256 1.393 . S
C260 C261 1.401 . S
C260 H270 0.930 . S
C261 C259 1.392 . S
C261 C260 1.401 . S
C261 H271 0.930 . S
C262 O240 1.262 . S
C262 O241 1.260 . S
C263 Tb199 2.833 . S
C263 O238 1.251 . S
C263 O243 1.256 1_565 S
C263 C256 1.500 . S
H264 C247 0.930 . S
H265 C248 0.931 . S
H266 C249 0.930 . S
H267 C250 0.930 . S
H268 C257 0.930 . S
H269 C259 0.931 . S
H270 C260 0.930 . S
H271 C261 0.930 . S
Tb272 N303 2.660 . S
Tb272 N310 2.600 . S
Tb272 O316 2.546 . S
Tb272 O317 2.610 . S
Tb272 O319 2.320 . S
Tb272 O320 2.552 . S
Tb272 O321 2.413 . S
Tb272 O323 2.362 . S
Tb272 O324 2.421 . S
Tb272 C336 2.833 . S
C273 C276 1.432 . S
C273 C277 1.414 . S
C273 N280 1.359 . S
C274 C276 1.417 . S
C274 C278 1.432 . S
C274 C286 1.410 . S
C275 C277 1.444 . S
C275 C278 1.317 . S
C275 H298 0.929 . S
C276 C273 1.432 . S
C276 C274 1.417 . S
C276 N284 1.360 . S
C277 C273 1.414 . S
C277 C275 1.444 . S
C277 C282 1.385 . S
C278 C274 1.432 . S
C278 C275 1.317 . S
C278 H290 0.930 . S
C279 C281 1.392 . S
C279 C282 1.370 . S
C279 H291 0.931 . S
N280 C273 1.359 . S
N280 C281 1.327 . S
N280 Tb283 2.600 . S
C281 C279 1.392 . S
C281 N280 1.327 . S
C281 H288 0.930 . S
C282 C277 1.385 . S
C282 C279 1.370 . S
C282 H301 0.930 . S
Tb283 N280 2.600 . S
Tb283 N284 2.660 . S
Tb283 O317 2.362 . S
Tb283 O318 2.421 . S
Tb283 O322 2.546 . S
Tb283 O323 2.610 . S
Tb283 O325 2.320 . S
Tb283 O326 2.552 . S
Tb283 O327 2.413 . S
Tb283 C347 2.833 . S
N284 C276 1.360 . S
N284 Tb283 2.660 . S
N284 C285 1.305 . S
C285 N284 1.305 . S
C285 C287 1.407 . S
C285 H292 0.930 . S
C286 C274 1.410 . S
C286 C287 1.345 . S
C286 H294 0.930 . S
C287 C285 1.407 . S
C287 C286 1.345 . S
C287 H289 0.930 . S
H288 C281 0.930 . S
H289 C287 0.930 . S
H290 C278 0.930 . S
H291 C279 0.931 . S
H292 C285 0.930 . S
H293 C307 0.930 . S
H294 C286 0.930 . S
H295 C313 0.930 . S
H296 C304 0.930 . S
H297 C311 0.931 . S
H298 C275 0.929 . S
H299 C305 0.930 . S
H300 C338 0.930 . S
H301 C282 0.930 . S
H302 C337 0.929 . S
N303 Tb272 2.660 . S
N303 C304 1.305 . S
N303 C308 1.360 . S
C304 H296 0.930 . S
C304 N303 1.305 . S
C304 C307 1.407 . S
C305 H299 0.930 . S
C305 C306 1.410 . S
C305 C307 1.345 . S
C306 C305 1.410 . S
C306 C308 1.417 . S
C306 C338 1.432 . S
C307 H293 0.930 . S
C307 C304 1.407 . S
C307 C305 1.345 . S
C308 N303 1.360 . S
C308 C306 1.417 . S
C308 C312 1.432 . S
H309 C314 0.930 . S
N310 Tb272 2.600 . S
N310 C312 1.359 . S
N310 C313 1.327 . S
C311 H297 0.931 . S
C311 C313 1.392 . S
C311 C314 1.370 . S
C312 C308 1.432 . S
C312 N310 1.359 . S
C312 C315 1.414 . S
C313 H295 0.930 . S
C313 N310 1.327 . S
C313 C311 1.392 . S
C314 H309 0.930 . S
C314 C311 1.370 . S
C314 C315 1.385 . S
C315 C312 1.414 . S
C315 C314 1.385 . S
C315 C337 1.444 . S
O316 Tb272 2.546 . S
O316 C336 1.251 . S
O317 Tb272 2.610 . S
O317 Tb283 2.362 . S
O317 C328 1.283 . S
O318 Tb283 2.421 . S
O318 C335 1.262 . S
O319 Tb272 2.320 . S
O319 C335 1.260 . S
O320 Tb272 2.552 . S
O320 C328 1.243 . S
O321 Tb272 2.413 . S
O321 C336 1.256 . S
O322 Tb283 2.546 . S
O322 C347 1.251 . S
O323 Tb272 2.362 . S
O323 Tb283 2.610 . S
O323 C339 1.283 . S
O324 Tb272 2.421 . S
O324 C346 1.262 . S
O325 Tb283 2.320 . S
O325 C346 1.260 . S
O326 Tb283 2.552 . S
O326 C339 1.243 . S
O327 Tb283 2.413 . S
O327 C347 1.256 . S
C328 O317 1.283 . S
C328 O320 1.243 . S
C329 C331 1.382 . S
C329 C333 1.393 . S
C329 C336 1.500 . S
C330 C331 1.400 . S
C330 C332 1.384 . S
C331 C329 1.382 . S
C331 C330 1.400 . S
C331 H348 0.930 . S
C332 C330 1.384 . S
C332 C334 1.392 . S
C332 H349 0.931 . S
C333 C329 1.393 . S
C333 C334 1.401 . S
C333 H350 0.930 . S
C334 C332 1.392 . S
C334 C333 1.401 . S
C334 H351 0.930 . S
C335 O318 1.262 . S
C335 O319 1.260 . S
C336 Tb272 2.833 . S
C336 O316 1.251 . S
C336 O321 1.256 . S
C336 C329 1.500 . S
C337 H302 0.929 . S
C337 C315 1.444 . S
C337 C338 1.317 . S
C338 H300 0.930 . S
C338 C306 1.432 . S
C338 C337 1.317 . S
C339 O323 1.283 . S
C339 O326 1.243 . S
C340 C341 1.382 . S
C340 C344 1.393 . S
C340 C347 1.500 . S
C341 C340 1.382 . S
C341 C342 1.400 . S
C341 H352 0.930 . S
C342 C341 1.400 . S
C342 C343 1.384 . S
C343 C342 1.384 . S
C343 C345 1.392 . S
C343 H353 0.931 . S
C344 C340 1.393 . S
C344 C345 1.401 . S
C344 H354 0.930 . S
C345 C343 1.392 . S
C345 C344 1.401 . S
C345 H355 0.930 1_556 S
C346 O324 1.262 . S
C346 O325 1.260 . S
C347 Tb283 2.833 . S
C347 O322 1.251 . S
C347 O327 1.256 . S
C347 C340 1.500 . S
H348 C331 0.930 . S
H349 C332 0.931 . S
H350 C333 0.930 . S
H351 C334 0.930 . S
H352 C341 0.930 . S
H353 C343 0.931 . S
H354 C344 0.930 . S
H355 C345 0.930 1_554 S
Tb356 N387 2.660 . S
Tb356 N394 2.600 . S
Tb356 O400 2.546 . S
Tb356 O401 2.610 . S
Tb356 O403 2.320 . S
Tb356 O404 2.552 . S
Tb356 O405 2.413 . S
Tb356 O407 2.362 . S
Tb356 O408 2.421 1_455 S
Tb356 C420 2.833 . S
C357 C360 1.432 . S
C357 C361 1.414 . S
C357 N364 1.359 . S
C358 C360 1.417 . S
C358 C362 1.432 . S
C358 C370 1.410 . S
C359 C361 1.444 . S
C359 C362 1.317 . S
C359 H382 0.929 . S
C360 C357 1.432 . S
C360 C358 1.417 . S
C360 N368 1.360 . S
C361 C357 1.414 . S
C361 C359 1.444 . S
C361 C366 1.385 1_655 S
C362 C358 1.432 . S
C362 C359 1.317 . S
C362 H374 0.930 . S
C363 C365 1.392 . S
C363 C366 1.370 . S
C363 H375 0.931 . S
N364 C357 1.359 . S
N364 C365 1.327 1_655 S
N364 Tb367 2.600 . S
C365 C363 1.392 . S
C365 N364 1.327 1_455 S
C365 H372 0.930 . S
C366 C361 1.385 1_455 S
C366 C363 1.370 . S
C366 H385 0.930 . S
Tb367 N364 2.600 . S
Tb367 N368 2.660 . S
Tb367 O401 2.362 1_655 S
Tb367 O402 2.421 1_655 S
Tb367 O406 2.546 . S
Tb367 O407 2.610 1_655 S
Tb367 O409 2.320 . S
Tb367 O410 2.552 . S
Tb367 O411 2.413 . S
Tb367 C431 2.833 . S
N368 C360 1.360 . S
N368 Tb367 2.660 . S
N368 C369 1.305 . S
C369 N368 1.305 . S
C369 C371 1.407 . S
C369 H376 0.930 . S
C370 C358 1.410 . S
C370 C371 1.345 . S
C370 H378 0.930 . S
C371 C369 1.407 . S
C371 C370 1.345 . S
C371 H373 0.930 . S
H372 C365 0.930 . S
H373 C371 0.930 . S
H374 C362 0.930 . S
H375 C363 0.931 . S
H376 C369 0.930 . S
H377 C391 0.930 . S
H378 C370 0.930 . S
H379 C397 0.930 1_655 S
H380 C388 0.930 . S
H381 C395 0.931 1_655 S
H382 C359 0.929 . S
H383 C389 0.930 . S
H384 C422 0.930 . S
H385 C366 0.930 . S
H386 C421 0.929 . S
N387 Tb356 2.660 . S
N387 C388 1.305 . S
N387 C392 1.360 . S
C388 H380 0.930 . S
C388 N387 1.305 . S
C388 C391 1.407 . S
C389 H383 0.930 . S
C389 C390 1.410 . S
C389 C391 1.345 . S
C390 C389 1.410 . S
C390 C392 1.417 . S
C390 C422 1.432 . S
C391 H377 0.930 . S
C391 C388 1.407 . S
C391 C389 1.345 . S
C392 N387 1.360 . S
C392 C390 1.417 . S
C392 C396 1.432 . S
H393 C398 0.930 . S
N394 Tb356 2.600 . S
N394 C396 1.359 . S
N394 C397 1.327 . S
C395 H381 0.931 1_455 S
C395 C397 1.392 . S
C395 C398 1.370 . S
C396 C392 1.432 . S
C396 N394 1.359 . S
C396 C399 1.414 . S
C397 H379 0.930 1_455 S
C397 N394 1.327 . S
C397 C395 1.392 . S
C398 H393 0.930 . S
C398 C395 1.370 . S
C398 C399 1.385 . S
C399 C396 1.414 . S
C399 C398 1.385 . S
C399 C421 1.444 . S
O400 Tb356 2.546 . S
O400 C420 1.251 . S
O401 Tb356 2.610 . S
O401 Tb367 2.362 1_455 S
O401 C412 1.283 . S
O402 Tb367 2.421 1_455 S
O402 C419 1.262 . S
O403 Tb356 2.320 . S
O403 C419 1.260 . S
O404 Tb356 2.552 . S
O404 C412 1.243 . S
O405 Tb356 2.413 . S
O405 C420 1.256 . S
O406 Tb367 2.546 . S
O406 C431 1.251 . S
O407 Tb356 2.362 . S
O407 Tb367 2.610 1_455 S
O407 C423 1.283 1_455 S
O408 Tb356 2.421 1_655 S
O408 C430 1.262 . S
O409 Tb367 2.320 . S
O409 C430 1.260 . S
O410 Tb367 2.552 . S
O410 C423 1.243 . S
O411 Tb367 2.413 . S
O411 C431 1.256 . S
C412 O401 1.283 . S
C412 O404 1.243 . S
C413 C415 1.382 . S
C413 C417 1.393 . S
C413 C420 1.500 . S
C414 C415 1.400 . S
C414 C416 1.384 . S
C415 C413 1.382 . S
C415 C414 1.400 . S
C415 H432 0.930 . S
C416 C414 1.384 . S
C416 C418 1.392 . S
C416 H433 0.931 . S
C417 C413 1.393 . S
C417 C418 1.401 . S
C417 H434 0.930 . S
C418 C416 1.392 . S
C418 C417 1.401 . S
C418 H435 0.930 . S
C419 O402 1.262 . S
C419 O403 1.260 . S
C420 Tb356 2.833 . S
C420 O400 1.251 . S
C420 O405 1.256 . S
C420 C413 1.500 . S
C421 H386 0.929 . S
C421 C399 1.444 . S
C421 C422 1.317 . S
C422 H384 0.930 . S
C422 C390 1.432 . S
C422 C421 1.317 . S
C423 O407 1.283 1_655 S
C423 O410 1.243 . S
C424 C425 1.382 . S
C424 C428 1.393 . S
C424 C431 1.500 . S
C425 C424 1.382 . S
C425 C426 1.400 . S
C425 H436 0.930 . S
C426 C425 1.400 . S
C426 C427 1.384 . S
C427 C426 1.384 . S
C427 C429 1.392 . S
C427 H437 0.931 . S
C428 C424 1.393 . S
C428 C429 1.401 . S
C428 H438 0.930 . S
C429 C427 1.392 . S
C429 C428 1.401 . S
C429 H439 0.930 1_556 S
C430 O408 1.262 . S
C430 O409 1.260 . S
C431 Tb367 2.833 . S
C431 O406 1.251 . S
C431 O411 1.256 . S
C431 C424 1.500 . S
H432 C415 0.930 . S
H433 C416 0.931 . S
H434 C417 0.930 . S
H435 C418 0.930 . S
H436 C425 0.930 . S
H437 C427 0.931 . S
H438 C428 0.930 . S
H439 C429 0.930 1_554 S
H440 C448 0.929 . S
H441 C450 0.930 . S
H442 C452 0.930 . S
H443 C455 0.929 . S
H444 C458 0.930 . S
H445 C460 0.960 . S
H446 C460 0.960 . S
H447 C460 0.960 . S
C448 H440 0.929 . S
C448 C449 1.377 . S
C448 C450 1.384 . S
C449 C448 1.377 . S
C449 C455 1.390 . S
C450 H441 0.930 . S
C450 C448 1.384 . S
C450 C451 1.372 . S
C451 C450 1.372 . S
C451 C452 1.400 . S
C451 C456 1.490 . S
C452 H442 0.930 . S
C452 C451 1.400 . S
C452 C455 1.386 . S
H453 C469 0.930 1_565 S
H454 C470 0.931 . S
C455 H443 0.929 . S
C455 C449 1.390 . S
C455 C452 1.386 . S
C456 C451 1.490 . S
C456 C458 1.395 . S
C456 C459 1.403 . S
H457 C463 0.930 . S
C458 H444 0.930 . S
C458 C456 1.395 . S
C458 C461 1.403 . S
C459 C456 1.403 . S
C459 C460 1.524 . S
C459 C463 1.400 . S
C460 H445 0.960 . S
C460 H446 0.960 . S
C460 H447 0.960 . S
C460 C459 1.524 . S
C461 C458 1.403 . S
C461 C462 1.392 . S
C461 C465 1.495 . S
C462 C461 1.392 . S
C462 C463 1.385 . S
C462 C464 1.478 . S
C463 H457 0.930 . S
C463 C459 1.400 . S
C463 C462 1.385 . S
C464 C462 1.478 . S
C464 C466 1.381 . S
C464 C470 1.383 . S
C465 C461 1.495 . S
C465 H471 0.959 . S
C465 H472 0.961 . S
C465 H473 0.960 . S
C466 C464 1.381 . S
C466 C467 1.394 . S
C466 H474 0.930 . S
C467 C466 1.394 . S
C467 C468 1.383 . S
C467 H475 0.929 . S
C468 C467 1.383 . S
C468 C469 1.377 . S
C469 H453 0.930 1_545 S
C469 C468 1.377 . S
C469 C470 1.379 . S
C470 H454 0.931 . S
C470 C464 1.383 . S
C470 C469 1.379 . S
H471 C465 0.959 . S
H472 C465 0.961 . S
H473 C465 0.960 . S
H474 C466 0.930 . S
H475 C467 0.929 . S
H476 C484 0.929 . S
H477 C486 0.930 . S
H478 C488 0.930 . S
H479 C491 0.929 . S
H480 C494 0.930 . S
H481 C496 0.960 . S
H482 C496 0.960 . S
H483 C496 0.960 . S
C484 H476 0.929 . S
C484 C485 1.377 . S
C484 C486 1.384 . S
C485 C484 1.377 . S
C485 C491 1.390 . S
C486 H477 0.930 . S
C486 C484 1.384 . S
C486 C487 1.372 . S
C487 C486 1.372 . S
C487 C488 1.400 . S
C487 C492 1.490 . S
C488 H478 0.930 . S
C488 C487 1.400 . S
C488 C491 1.386 . S
H489 C505 0.930 . S
H490 C506 0.931 . S
C491 H479 0.929 . S
C491 C485 1.390 . S
C491 C488 1.386 . S
C492 C487 1.490 . S
C492 C494 1.395 . S
C492 C495 1.403 . S
H493 C499 0.930 . S
C494 H480 0.930 . S
C494 C492 1.395 . S
C494 C497 1.403 . S
C495 C492 1.403 . S
C495 C496 1.524 . S
C495 C499 1.400 . S
C496 H481 0.960 . S
C496 H482 0.960 . S
C496 H483 0.960 . S
C496 C495 1.524 . S
C497 C494 1.403 . S
C497 C498 1.392 . S
C497 C501 1.495 . S
C498 C497 1.392 . S
C498 C499 1.385 . S
C498 C500 1.478 . S
C499 H493 0.930 . S
C499 C495 1.400 . S
C499 C498 1.385 . S
C500 C498 1.478 . S
C500 C502 1.381 . S
C500 C506 1.383 . S
C501 C497 1.495 . S
C501 H507 0.959 . S
C501 H508 0.961 . S
C501 H509 0.960 . S
C502 C500 1.381 . S
C502 C503 1.394 . S
C502 H510 0.930 . S
C503 C502 1.394 . S
C503 C504 1.383 . S
C503 H511 0.929 . S
C504 C503 1.383 . S
C504 C505 1.377 . S
C505 H489 0.930 . S
C505 C504 1.377 . S
C505 C506 1.379 . S
C506 H490 0.931 . S
C506 C500 1.383 . S
C506 C505 1.379 . S
H507 C501 0.959 . S
H508 C501 0.961 . S
H509 C501 0.960 . S
H510 C502 0.930 . S
H511 C503 0.929 . S
H512 C520 0.929 . S
H513 C522 0.930 . S
H514 C524 0.930 . S
H515 C527 0.929 . S
H516 C530 0.930 . S
H517 C532 0.960 . S
H518 C532 0.960 . S
H519 C532 0.960 . S
C520 H512 0.929 . S
C520 C521 1.377 . S
C520 C522 1.384 . S
C521 C520 1.377 . S
C521 C527 1.390 . S
C522 H513 0.930 . S
C522 C520 1.384 . S
C522 C523 1.372 . S
C523 C522 1.372 . S
C523 C524 1.400 . S
C523 C528 1.490 . S
C524 H514 0.930 . S
C524 C523 1.400 . S
C524 C527 1.386 . S
H525 C541 0.930 . S
H526 C542 0.931 . S
C527 H515 0.929 . S
C527 C521 1.390 . S
C527 C524 1.386 . S
C528 C523 1.490 . S
C528 C530 1.395 . S
C528 C531 1.403 . S
H529 C535 0.930 . S
C530 H516 0.930 . S
C530 C528 1.395 . S
C530 C533 1.403 . S
C531 C528 1.403 . S
C531 C532 1.524 . S
C531 C535 1.400 . S
C532 H517 0.960 . S
C532 H518 0.960 . S
C532 H519 0.960 . S
C532 C531 1.524 . S
C533 C530 1.403 . S
C533 C534 1.392 . S
C533 C537 1.495 . S
C534 C533 1.392 . S
C534 C535 1.385 . S
C534 C536 1.478 . S
C535 H529 0.930 . S
C535 C531 1.400 . S
C535 C534 1.385 . S
C536 C534 1.478 . S
C536 C538 1.381 . S
C536 C542 1.383 . S
C537 C533 1.495 . S
C537 H543 0.959 . S
C537 H544 0.961 . S
C537 H545 0.960 . S
C538 C536 1.381 . S
C538 C539 1.394 . S
C538 H546 0.930 . S
C539 C538 1.394 . S
C539 C540 1.383 . S
C539 H547 0.929 . S
C540 C539 1.383 . S
C540 C541 1.377 . S
C541 H525 0.930 . S
C541 C540 1.377 . S
C541 C542 1.379 . S
C542 H526 0.931 . S
C542 C536 1.383 . S
C542 C541 1.379 . S
H543 C537 0.959 . S
H544 C537 0.961 . S
H545 C537 0.960 . S
H546 C538 0.930 . S
H547 C539 0.929 . S
H548 C556 0.929 . S
H549 C558 0.930 . S
H550 C560 0.930 . S
H551 C563 0.929 . S
H552 C566 0.930 . S
H553 C568 0.960 . S
H554 C568 0.960 . S
H555 C568 0.960 . S
C556 H548 0.929 . S
C556 C557 1.377 . S
C556 C558 1.384 . S
C557 C556 1.377 . S
C557 C563 1.390 . S
C558 H549 0.930 . S
C558 C556 1.384 . S
C558 C559 1.372 . S
C559 C558 1.372 . S
C559 C560 1.400 . S
C559 C564 1.490 . S
C560 H550 0.930 . S
C560 C559 1.400 . S
C560 C563 1.386 . S
H561 C577 0.930 1_655 S
H562 C578 0.931 . S
C563 H551 0.929 . S
C563 C557 1.390 . S
C563 C560 1.386 . S
C564 C559 1.490 . S
C564 C566 1.395 . S
C564 C567 1.403 . S
H565 C571 0.930 . S
C566 H552 0.930 . S
C566 C564 1.395 . S
C566 C569 1.403 . S
C567 C564 1.403 . S
C567 C568 1.524 . S
C567 C571 1.400 . S
C568 H553 0.960 . S
C568 H554 0.960 . S
C568 H555 0.960 . S
C568 C567 1.524 . S
C569 C566 1.403 . S
C569 C570 1.392 . S
C569 C573 1.495 . S
C570 C569 1.392 . S
C570 C571 1.385 . S
C570 C572 1.478 . S
C571 H565 0.930 . S
C571 C567 1.400 . S
C571 C570 1.385 . S
C572 C570 1.478 . S
C572 C574 1.381 . S
C572 C578 1.383 . S
C573 C569 1.495 . S
C573 H579 0.959 . S
C573 H580 0.961 . S
C573 H581 0.960 . S
C574 C572 1.381 . S
C574 C575 1.394 . S
C574 H582 0.930 . S
C575 C574 1.394 . S
C575 C576 1.383 . S
C575 H583 0.929 . S
C576 C575 1.383 . S
C576 C577 1.377 . S
C577 H561 0.930 1_455 S
C577 C576 1.377 . S
C577 C578 1.379 . S
C578 H562 0.931 . S
C578 C572 1.383 . S
C578 C577 1.379 . S
H579 C573 0.959 . S
H580 C573 0.961 . S
H581 C573 0.960 . S
H582 C574 0.930 . S
H583 C575 0.929 . S
H584 C592 0.929 . S
H585 C594 0.930 . S
H586 C596 0.930 . S
H587 C599 0.929 . S
H588 C602 0.930 . S
H589 C604 0.960 . S
H590 C604 0.960 1_565 S
H591 C604 0.960 . S
C592 H584 0.929 . S
C592 C593 1.377 . S
C592 C594 1.384 . S
C593 C592 1.377 . S
C593 C599 1.390 . S
C594 H585 0.930 . S
C594 C592 1.384 . S
C594 C595 1.372 . S
C595 C594 1.372 . S
C595 C596 1.400 . S
C595 C600 1.490 1_554 S
C596 H586 0.930 . S
C596 C595 1.400 . S
C596 C599 1.386 . S
H597 C613 0.930 . S
H598 C614 0.932 1_545 S
C599 H587 0.929 . S
C599 C593 1.390 . S
C599 C596 1.386 . S
C600 C595 1.490 1_556 S
C600 C602 1.395 . S
C600 C603 1.403 . S
H601 C607 0.930 1_545 S
C602 H588 0.930 . S
C602 C600 1.395 . S
C602 C605 1.403 . S
C603 C600 1.403 . S
C603 C604 1.524 1_566 S
C603 C607 1.400 . S
C604 H589 0.960 . S
C604 H590 0.960 1_545 S
C604 H591 0.960 . S
C604 C603 1.524 1_544 S
C605 C602 1.403 . S
C605 C606 1.392 . S
C605 C609 1.495 . S
C606 C605 1.392 . S
C606 C607 1.385 . S
C606 C608 1.478 . S
C607 H601 0.930 1_565 S
C607 C603 1.400 . S
C607 C606 1.385 . S
C608 C606 1.478 . S
C608 C610 1.381 . S
C608 C614 1.380 . S
C609 C605 1.495 . S
C609 H615 0.959 . S
C609 H616 0.961 . S
C609 H617 0.960 . S
C610 C608 1.381 . S
C610 C611 1.394 . S
C610 H618 0.930 . S
C611 C610 1.394 . S
C611 C612 1.383 . S
C611 H619 0.929 . S
C612 C611 1.383 . S
C612 C613 1.377 1_565 S
C613 H597 0.930 . S
C613 C612 1.377 1_545 S
C613 C614 1.380 1_545 S
C614 H598 0.932 1_565 S
C614 C608 1.380 . S
C614 C613 1.380 1_565 S
H615 C609 0.959 . S
H616 C609 0.961 . S
H617 C609 0.960 . S
H618 C610 0.930 . S
H619 C611 0.929 . S
H620 C628 0.929 . S
H621 C630 0.930 . S
H622 C632 0.930 . S
H623 C635 0.929 . S
H624 C638 0.930 1_554 S
H625 C640 0.960 . S
H626 C640 0.960 . S
H627 C640 0.960 . S
C628 H620 0.929 . S
C628 C629 1.377 . S
C628 C630 1.384 . S
C629 C628 1.377 . S
C629 C635 1.390 . S
C630 H621 0.930 . S
C630 C628 1.384 . S
C630 C631 1.372 . S
C631 C630 1.372 . S
C631 C632 1.400 . S
C631 C636 1.490 1_554 S
C632 H622 0.930 . S
C632 C631 1.400 . S
C632 C635 1.386 . S
H633 C649 0.930 . S
H634 C650 0.931 . S
C635 H623 0.929 . S
C635 C629 1.390 . S
C635 C632 1.386 . S
C636 C631 1.490 1_556 S
C636 C638 1.395 . S
C636 C639 1.403 . S
H637 C643 0.930 . S
C638 H624 0.930 1_556 S
C638 C636 1.395 . S
C638 C641 1.403 . S
C639 C636 1.403 . S
C639 C640 1.524 . S
C639 C643 1.400 . S
C640 H625 0.960 . S
C640 H626 0.960 . S
C640 H627 0.960 . S
C640 C639 1.524 . S
C641 C638 1.403 . S
C641 C642 1.392 . S
C641 C645 1.495 . S
C642 C641 1.392 . S
C642 C643 1.385 . S
C642 C644 1.478 . S
C643 H637 0.930 . S
C643 C639 1.400 . S
C643 C642 1.385 . S
C644 C642 1.478 . S
C644 C646 1.381 . S
C644 C650 1.383 . S
C645 C641 1.495 . S
C645 H651 0.959 1_556 S
C645 H652 0.961 . S
C645 H653 0.960 . S
C646 C644 1.381 . S
C646 C647 1.394 . S
C646 H654 0.930 . S
C647 C646 1.394 . S
C647 C648 1.383 . S
C647 H655 0.929 . S
C648 C647 1.383 . S
C648 C649 1.377 . S
C649 H633 0.930 . S
C649 C648 1.377 . S
C649 C650 1.379 . S
C650 H634 0.931 . S
C650 C644 1.383 . S
C650 C649 1.379 . S
H651 C645 0.959 1_554 S
H652 C645 0.961 . S
H653 C645 0.960 . S
H654 C646 0.930 . S
H655 C647 0.929 . S
H656 C664 0.929 . S
H657 C666 0.930 . S
H658 C668 0.930 . S
H659 C671 0.929 . S
H660 C674 0.920 1_554 S
H661 C676 0.960 . S
H662 C676 0.960 . S
H663 C676 0.960 . S
C664 H656 0.929 . S
C664 C665 1.377 . S
C664 C666 1.384 . S
C665 C664 1.377 . S
C665 C671 1.390 . S
C666 H657 0.930 . S
C666 C664 1.384 . S
C666 C667 1.372 . S
C667 C666 1.372 . S
C667 C668 1.400 1_554 S
C667 C672 1.490 1_554 S
C668 H658 0.930 . S
C668 C667 1.400 1_556 S
C668 C671 1.386 1_556 S
H669 C685 0.930 . S
H670 C686 0.931 . S
C671 H659 0.929 . S
C671 C665 1.390 . S
C671 C668 1.386 1_554 S
C672 C667 1.490 1_556 S
C672 C674 1.395 . S
C672 C675 1.403 . S
H673 C679 0.930 . S
C674 H660 0.920 1_556 S
C674 C672 1.395 . S
C674 C677 1.403 . S
C675 C672 1.403 . S
C675 C676 1.524 . S
C675 C679 1.400 . S
C676 H661 0.960 . S
C676 H662 0.960 . S
C676 H663 0.960 . S
C676 C675 1.524 . S
C677 C674 1.403 . S
C677 C678 1.392 . S
C677 C681 1.495 . S
C678 C677 1.392 . S
C678 C679 1.385 . S
C678 C680 1.478 . S
C679 H673 0.930 . S
C679 C675 1.400 . S
C679 C678 1.385 . S
C680 C678 1.478 . S
C680 C682 1.381 . S
C680 C686 1.383 . S
C681 C677 1.495 . S
C681 H687 0.959 . S
C681 H688 0.961 . S
C681 H689 0.960 . S
C682 C680 1.381 . S
C682 C683 1.394 . S
C682 H690 0.930 . S
C683 C682 1.394 . S
C683 C684 1.383 . S
C683 H691 0.929 . S
C684 C683 1.383 . S
C684 C685 1.377 . S
C685 H669 0.930 . S
C685 C684 1.377 . S
C685 C686 1.379 . S
C686 H670 0.931 . S
C686 C680 1.383 . S
C686 C685 1.379 . S
H687 C681 0.959 . S
H688 C681 0.961 . S
H689 C681 0.960 . S
H690 C682 0.930 . S
H691 C683 0.929 . S
H692 C700 0.929 . S
H693 C702 0.930 . S
H694 C704 0.930 1_556 S
H695 C707 0.929 . S
H696 C710 0.930 1_554 S
H697 C712 0.960 . S
H698 C712 0.960 . S
H699 C712 0.960 . S
C700 H692 0.929 . S
C700 C701 1.377 . S
C700 C702 1.384 . S
C701 C700 1.377 . S
C701 C707 1.390 . S
C702 H693 0.930 . S
C702 C700 1.384 . S
C702 C703 1.372 . S
C703 C702 1.372 . S
C703 C704 1.400 . S
C703 C708 1.490 1_554 S
C704 H694 0.930 1_554 S
C704 C703 1.400 . S
C704 C707 1.386 . S
H705 C721 0.930 . S
H706 C722 0.931 . S
C707 H695 0.929 . S
C707 C701 1.390 . S
C707 C704 1.386 . S
C708 C703 1.490 1_556 S
C708 C710 1.395 . S
C708 C711 1.403 . S
H709 C715 0.930 . S
C710 H696 0.930 1_556 S
C710 C708 1.395 . S
C710 C713 1.403 . S
C711 C708 1.403 . S
C711 C712 1.524 . S
C711 C715 1.400 . S
C712 H697 0.960 . S
C712 H698 0.960 . S
C712 H699 0.960 . S
C712 C711 1.524 . S
C713 C710 1.403 . S
C713 C714 1.392 . S
C713 C717 1.495 . S
C714 C713 1.392 . S
C714 C715 1.385 . S
C714 C716 1.478 . S
C715 H709 0.930 . S
C715 C711 1.400 . S
C715 C714 1.385 . S
C716 C714 1.478 . S
C716 C718 1.381 . S
C716 C722 1.383 . S
C717 C713 1.495 . S
C717 H723 0.959 1_556 S
C717 H724 0.961 . S
C717 H725 0.960 . S
C718 C716 1.381 . S
C718 C719 1.386 1_655 S
C718 H726 0.930 1_655 S
C719 C718 1.386 1_455 S
C719 C720 1.367 1_455 S
C719 H727 0.955 . S
C720 C719 1.367 1_655 S
C720 C721 1.377 . S
C721 H705 0.930 . S
C721 C720 1.377 . S
C721 C722 1.379 . S
C722 H706 0.931 . S
C722 C716 1.383 . S
C722 C721 1.379 . S
H723 C717 0.959 1_554 S
H724 C717 0.961 . S
H725 C717 0.960 . S
H726 C718 0.930 1_455 S
H727 C719 0.955 . S
H728 C736 0.929 . S
H729 C738 0.930 . S
H730 C740 0.930 . S
H731 C743 0.929 . S
H732 C746 0.930 . S
H733 C748 0.960 . S
H734 C748 0.960 . S
H735 C748 0.960 . S
C736 H728 0.929 . S
C736 C737 1.377 . S
C736 C738 1.384 . S
C737 C736 1.377 . S
C737 C743 1.390 . S
C738 H729 0.930 . S
C738 C736 1.384 . S
C738 C739 1.372 . S
C739 C738 1.372 . S
C739 C740 1.400 . S
C739 C744 1.490 . S
C740 H730 0.930 . S
C740 C739 1.400 . S
C740 C743 1.386 . S
H741 C757 0.930 . S
H742 C758 0.931 . S
C743 H731 0.929 . S
C743 C737 1.390 . S
C743 C740 1.386 . S
C744 C739 1.490 . S
C744 C746 1.395 . S
C744 C747 1.403 . S
H745 C751 0.930 . S
C746 H732 0.930 . S
C746 C744 1.395 . S
C746 C749 1.403 . S
C747 C744 1.403 . S
C747 C748 1.524 . S
C747 C751 1.400 . S
C748 H733 0.960 . S
C748 H734 0.960 . S
C748 H735 0.960 . S
C748 C747 1.524 . S
C749 C746 1.403 . S
C749 C750 1.392 . S
C749 C753 1.495 . S
C750 C749 1.392 . S
C750 C751 1.385 . S
C750 C752 1.478 . S
C751 H745 0.930 . S
C751 C747 1.400 . S
C751 C750 1.385 . S
C752 C750 1.478 . S
C752 C754 1.381 . S
C752 C758 1.383 . S
C753 C749 1.495 . S
C753 H759 0.959 . S
C753 H760 0.961 . S
C753 H761 0.960 . S
C754 C752 1.381 . S
C754 C755 1.394 1_455 S
C754 H762 0.928 1_455 S
C755 C754 1.394 1_655 S
C755 C756 1.383 1_655 S
C755 H763 0.929 . S
C756 C755 1.383 1_455 S
C756 C757 1.377 . S
C757 H741 0.930 . S
C757 C756 1.377 . S
C757 C758 1.379 . S
C758 H742 0.931 . S
C758 C752 1.383 . S
C758 C757 1.379 . S
H759 C753 0.959 . S
H760 C753 0.961 . S
H761 C753 0.960 . S
H762 C754 0.928 1_655 S
H763 C755 0.929 . S
H764 C772 0.929 . S
H765 C774 0.930 . S
H766 C776 0.930 . S
H767 C779 0.929 . S
H768 C782 0.930 . S
H769 C784 0.960 . S
H770 C784 0.960 . S
H771 C784 0.960 . S
C772 H764 0.929 . S
C772 C773 1.377 . S
C772 C774 1.384 . S
C773 C772 1.377 . S
C773 C779 1.390 . S
C774 H765 0.930 . S
C774 C772 1.384 . S
C774 C775 1.372 . S
C775 C774 1.372 . S
C775 C776 1.400 . S
C775 C780 1.490 . S
C776 H766 0.930 . S
C776 C775 1.400 . S
C776 C779 1.386 . S
H777 C793 0.930 . S
H778 C794 0.931 . S
C779 H767 0.929 . S
C779 C773 1.390 . S
C779 C776 1.386 . S
C780 C775 1.490 . S
C780 C782 1.395 . S
C780 C783 1.403 . S
H781 C787 0.930 . S
C782 H768 0.930 . S
C782 C780 1.395 . S
C782 C785 1.403 . S
C783 C780 1.403 . S
C783 C784 1.524 . S
C783 C787 1.400 . S
C784 H769 0.960 . S
C784 H770 0.960 . S
C784 H771 0.960 . S
C784 C783 1.524 . S
C785 C782 1.403 . S
C785 C786 1.392 . S
C785 C789 1.495 1_545 S
C786 C785 1.392 . S
C786 C787 1.385 . S
C786 C788 1.478 . S
C787 H781 0.930 . S
C787 C783 1.400 . S
C787 C786 1.385 . S
C788 C786 1.478 . S
C788 C790 1.381 . S
C788 C794 1.383 . S
C789 C785 1.495 1_565 S
C789 H795 0.959 . S
C789 H796 0.961 . S
C789 H797 0.960 . S
C790 C788 1.381 . S
C790 C791 1.394 . S
C790 H798 0.930 . S
C791 C790 1.394 . S
C791 C792 1.383 . S
C791 H799 0.941 . S
C792 C791 1.383 . S
C792 C793 1.377 . S
C793 H777 0.930 . S
C793 C792 1.377 . S
C793 C794 1.379 . S
C794 H778 0.931 . S
C794 C788 1.383 . S
C794 C793 1.379 . S
H795 C789 0.959 . S
H796 C789 0.961 . S
H797 C789 0.960 . S
H798 C790 0.930 . S
H799 C791 0.941 . S
H800 C808 0.929 . S
H801 C810 0.930 . S
H802 C812 0.930 . S
H803 C815 0.929 . S
H804 C818 0.930 . S
H805 C820 0.960 . S
H806 C820 0.960 . S
H807 C820 0.960 . S
C808 H800 0.929 . S
C808 C809 1.377 . S
C808 C810 1.384 . S
C809 C808 1.377 . S
C809 C815 1.390 . S
C810 H801 0.930 . S
C810 C808 1.384 . S
C810 C811 1.372 . S
C811 C810 1.372 . S
C811 C812 1.400 . S
C811 C816 1.490 . S
C812 H802 0.930 . S
C812 C811 1.400 . S
C812 C815 1.386 . S
H813 C829 0.930 . S
H814 C830 0.931 . S
C815 H803 0.929 . S
C815 C809 1.390 . S
C815 C812 1.386 . S
C816 C811 1.490 . S
C816 C818 1.395 . S
C816 C819 1.403 . S
H817 C823 0.930 . S
C818 H804 0.930 . S
C818 C816 1.395 . S
C818 C821 1.403 . S
C819 C816 1.403 . S
C819 C820 1.524 . S
C819 C823 1.400 . S
C820 H805 0.960 . S
C820 H806 0.960 . S
C820 H807 0.960 . S
C820 C819 1.524 . S
C821 C818 1.403 . S
C821 C822 1.392 . S
C821 C825 1.495 . S
C822 C821 1.392 . S
C822 C823 1.385 . S
C822 C824 1.478 . S
C823 H817 0.930 . S
C823 C819 1.400 . S
C823 C822 1.385 . S
C824 C822 1.478 . S
C824 C826 1.381 . S
C824 C830 1.383 . S
C825 C821 1.495 . S
C825 H831 0.959 . S
C825 H832 0.961 . S
C825 H833 0.960 . S
C826 C824 1.381 . S
C826 C827 1.394 . S
C826 H834 0.930 . S
C827 C826 1.394 . S
C827 C828 1.383 . S
C827 H835 0.929 . S
C828 C827 1.383 . S
C828 C829 1.377 . S
C829 H813 0.930 . S
C829 C828 1.377 . S
C829 C830 1.379 . S
C830 H814 0.931 . S
C830 C824 1.383 . S
C830 C829 1.379 . S
H831 C825 0.959 . S
H832 C825 0.961 . S
H833 C825 0.960 . S
H834 C826 0.930 . S
H835 C827 0.929 . S
H836 C844 0.929 . S
H837 C846 0.930 . S
H838 C848 0.930 . S
H839 C851 0.920 1_556 S
H840 C854 0.930 . S
H841 C856 0.960 . S
H842 C856 0.960 . S
H843 C856 0.960 . S
C844 H836 0.929 . S
C844 C845 1.377 . S
C844 C846 1.384 . S
C845 C844 1.377 . S
C845 C851 1.390 . S
C846 H837 0.930 . S
C846 C844 1.384 . S
C846 C847 1.372 . S
C847 C846 1.372 . S
C847 C848 1.400 . S
C847 C852 1.490 . S
C848 H838 0.930 . S
C848 C847 1.400 . S
C848 C851 1.386 . S
H849 C865 0.930 . S
H850 C866 0.931 . S
C851 H839 0.920 1_554 S
C851 C845 1.390 . S
C851 C848 1.386 . S
C852 C847 1.490 . S
C852 C854 1.395 . S
C852 C855 1.403 . S
H853 C859 0.930 . S
C854 H840 0.930 . S
C854 C852 1.395 . S
C854 C857 1.403 . S
C855 C852 1.403 . S
C855 C856 1.524 . S
C855 C859 1.400 . S
C856 H841 0.960 . S
C856 H842 0.960 . S
C856 H843 0.960 . S
C856 C855 1.524 . S
C857 C854 1.403 . S
C857 C858 1.392 . S
C857 C861 1.495 . S
C858 C857 1.392 . S
C858 C859 1.385 . S
C858 C860 1.478 . S
C859 H853 0.930 . S
C859 C855 1.400 . S
C859 C858 1.385 . S
C860 C858 1.478 . S
C860 C862 1.381 . S
C860 C866 1.383 . S
C861 C857 1.495 . S
C861 H867 0.959 . S
C861 H868 0.961 . S
C861 H869 0.960 . S
C862 C860 1.381 . S
C862 C863 1.394 . S
C862 H870 0.930 . S
C863 C862 1.394 . S
C863 C864 1.383 . S
C863 H871 0.929 . S
C864 C863 1.383 . S
C864 C865 1.377 . S
C865 H849 0.930 . S
C865 C864 1.377 . S
C865 C866 1.379 . S
C866 H850 0.931 . S
C866 C860 1.383 . S
C866 C865 1.379 . S
H867 C861 0.959 . S
H868 C861 0.961 . S
H869 C861 0.960 . S
H870 C862 0.930 . S
H871 C863 0.929 . S
H872 C880 0.929 . S
H873 C882 0.930 1_556 S
H874 C884 0.930 . S
H875 C887 0.929 . S
H876 C890 0.930 . S
H877 C892 0.960 . S
H878 C892 0.960 . S
H879 C892 0.960 . S
C880 H872 0.929 . S
C880 C881 1.377 . S
C880 C882 1.384 . S
C881 C880 1.377 . S
C881 C887 1.390 . S
C882 H873 0.930 1_554 S
C882 C880 1.384 . S
C882 C883 1.372 . S
C883 C882 1.372 . S
C883 C884 1.400 . S
C883 C888 1.490 . S
C884 H874 0.930 . S
C884 C883 1.400 . S
C884 C887 1.386 . S
H885 C901 0.930 . S
H886 C902 0.922 1_454 S
C887 H875 0.929 . S
C887 C881 1.390 . S
C887 C884 1.386 . S
C888 C883 1.490 . S
C888 C890 1.395 . S
C888 C891 1.403 . S
H889 C895 0.930 1_455 S
C890 H876 0.930 . S
C890 C888 1.395 . S
C890 C893 1.403 1_554 S
C891 C888 1.403 . S
C891 C892 1.524 1_655 S
C891 C895 1.400 1_554 S
C892 H877 0.960 . S
C892 H878 0.960 . S
C892 H879 0.960 . S
C892 C891 1.524 1_455 S
C893 C890 1.403 1_556 S
C893 C894 1.392 . S
C893 C897 1.495 . S
C894 C893 1.392 . S
C894 C895 1.385 . S
C894 C896 1.478 . S
C895 H889 0.930 1_655 S
C895 C891 1.400 1_556 S
C895 C894 1.385 . S
C896 C894 1.478 . S
C896 C898 1.381 . S
C896 C902 1.383 . S
C897 C893 1.495 . S
C897 H903 0.959 . S
C897 H904 0.961 . S
C897 H905 0.960 . S
C898 C896 1.381 . S
C898 C899 1.394 . S
C898 H906 0.930 . S
C899 C898 1.394 . S
C899 C900 1.383 1_655 S
C899 H907 0.929 . S
C900 C899 1.383 1_455 S
C900 C901 1.377 . S
C901 H885 0.930 . S
C901 C900 1.377 . S
C901 C902 1.379 1_455 S
C902 H886 0.922 1_656 S
C902 C896 1.383 . S
C902 C901 1.379 1_655 S
H903 C897 0.959 . S
H904 C897 0.961 . S
H905 C897 0.960 . S
H906 C898 0.930 . S
H907 C899 0.929 . S
H908 C916 0.929 . S
H909 C918 0.930 . S
H910 C920 0.930 . S
H911 C923 0.929 . S
H912 C926 0.930 1_545 S
H913 C928 0.960 . S
H914 C928 0.960 . S
H915 C928 0.960 . S
C916 H908 0.929 . S
C916 C917 1.377 . S
C916 C918 1.384 . S
C917 C916 1.377 . S
C917 C923 1.390 . S
C918 H909 0.930 . S
C918 C916 1.384 . S
C918 C919 1.372 . S
C919 C918 1.372 . S
C919 C920 1.400 . S
C919 C924 1.490 . S
C920 H910 0.930 . S
C920 C919 1.400 . S
C920 C923 1.386 . S
H921 C937 0.930 . S
H922 C938 0.931 . S
C923 H911 0.929 . S
C923 C917 1.390 . S
C923 C920 1.386 . S
C924 C919 1.490 . S
C924 C926 1.395 . S
C924 C927 1.403 . S
H925 C931 0.930 . S
C926 H912 0.930 1_565 S
C926 C924 1.395 . S
C926 C929 1.403 1_564 S
C927 C924 1.403 . S
C927 C928 1.524 . S
C927 C931 1.400 1_554 S
C928 H913 0.960 . S
C928 H914 0.960 . S
C928 H915 0.960 . S
C928 C927 1.524 . S
C929 C926 1.403 1_546 S
C929 C930 1.392 1_545 S
C929 C933 1.495 . S
C930 C929 1.392 1_565 S
C930 C931 1.385 . S
C930 C932 1.478 . S
C931 H925 0.930 . S
C931 C927 1.400 1_556 S
C931 C930 1.385 . S
C932 C930 1.478 . S
C932 C934 1.381 1_565 S
C932 C938 1.383 . S
C933 C929 1.495 . S
C933 H939 0.959 . S
C933 H940 0.961 . S
C933 H941 0.960 . S
C934 C932 1.381 1_545 S
C934 C935 1.394 . S
C934 H942 0.930 . S
C935 C934 1.394 . S
C935 C936 1.383 . S
C935 H943 0.929 . S
C936 C935 1.383 . S
C936 C937 1.377 1_545 S
C937 H921 0.930 . S
C937 C936 1.377 1_565 S
C937 C938 1.379 . S
C938 H922 0.931 . S
C938 C932 1.383 . S
C938 C937 1.379 . S
H939 C933 0.959 . S
H940 C933 0.961 . S
H941 C933 0.960 . S
H942 C934 0.930 . S
H943 C935 0.929 . S
H944 C952 0.929 . S
H945 C954 0.930 . S
H946 C956 0.930 . S
H947 C959 0.929 . S
H948 C962 0.930 . S
H949 C964 0.960 . S
H950 C964 0.960 . S
H951 C964 0.960 . S
C952 H944 0.929 . S
C952 C953 1.377 . S
C952 C954 1.384 . S
C953 C952 1.377 . S
C953 C959 1.390 . S
C954 H945 0.930 . S
C954 C952 1.384 . S
C954 C955 1.372 . S
C955 C954 1.372 . S
C955 C956 1.400 . S
C955 C960 1.490 . S
C956 H946 0.930 . S
C956 C955 1.400 . S
C956 C959 1.386 . S
H957 C973 0.930 . S
H958 C974 0.931 . S
C959 H947 0.929 . S
C959 C953 1.390 . S
C959 C956 1.386 . S
C960 C955 1.490 . S
C960 C962 1.395 . S
C960 C963 1.403 1_554 S
H961 C967 0.930 . S
C962 H948 0.930 . S
C962 C960 1.395 . S
C962 C965 1.403 . S
C963 C960 1.403 1_556 S
C963 C964 1.524 . S
C963 C967 1.400 . S
C964 H949 0.960 . S
C964 H950 0.960 . S
C964 H951 0.960 . S
C964 C963 1.524 . S
C965 C962 1.403 . S
C965 C966 1.392 1_554 S
C965 C969 1.495 . S
C966 C965 1.392 1_556 S
C966 C967 1.385 . S
C966 C968 1.478 . S
C967 H961 0.930 . S
C967 C963 1.400 . S
C967 C966 1.385 . S
C968 C966 1.478 . S
C968 C970 1.381 . S
C968 C974 1.383 . S
C969 C965 1.495 . S
C969 H975 0.959 . S
C969 H976 0.961 . S
C969 H977 0.960 . S
C970 C968 1.381 . S
C970 C971 1.394 . S
C970 H978 0.930 1_556 S
C971 C970 1.394 . S
C971 C972 1.383 . S
C971 H979 0.929 . S
C972 C971 1.383 . S
C972 C973 1.377 . S
C973 H957 0.930 . S
C973 C972 1.377 . S
C973 C974 1.379 . S
C974 H958 0.931 . S
C974 C968 1.383 . S
C974 C973 1.379 . S
H975 C969 0.959 . S
H976 C969 0.961 . S
H977 C969 0.960 . S
H978 C970 0.930 1_554 S
H979 C971 0.929 . S
H980 C988 0.929 . S
H981 C990 0.930 . S
H982 C992 0.930 1_556 S
H983 C995 0.929 . S
H984 C998 0.930 . S
H985 C1000 0.960 1_556 S
H986 C1000 0.960 . S
H987 C1000 0.960 1_556 S
C988 H980 0.929 . S
C988 C989 1.377 . S
C988 C990 1.384 . S
C989 C988 1.377 . S
C989 C995 1.390 . S
C990 H981 0.930 . S
C990 C988 1.384 . S
C990 C991 1.372 . S
C991 C990 1.372 . S
C991 C992 1.400 . S
C991 C996 1.490 . S
C992 H982 0.930 1_554 S
C992 C991 1.400 . S
C992 C995 1.386 . S
H993 C1009 0.930 . S
H994 C1010 0.931 . S
C995 H983 0.929 . S
C995 C989 1.390 . S
C995 C992 1.386 . S
C996 C991 1.490 . S
C996 C998 1.395 . S
C996 C999 1.403 . S
H997 C1003 0.930 . S
C998 H984 0.930 . S
C998 C996 1.395 . S
C998 C1001 1.403 . S
C999 C996 1.403 . S
C999 C1000 1.524 . S
C999 C1003 1.400 1_554 S
C1000 H985 0.960 1_554 S
C1000 H986 0.960 . S
C1000 H987 0.960 1_554 S
C1000 C999 1.524 . S
C1001 C998 1.403 . S
C1001 C1002 1.392 1_554 S
C1001 C1005 1.495 . S
C1002 C1001 1.392 1_556 S
C1002 C1003 1.385 . S
C1002 C1004 1.478 . S
C1003 H997 0.930 . S
C1003 C999 1.400 1_556 S
C1003 C1002 1.385 . S
C1004 C1002 1.478 . S
C1004 C1006 1.381 . S
C1004 C1010 1.383 . S
C1005 C1001 1.495 . S
C1005 H1011 0.959 . S
C1005 H1012 0.961 1_554 S
C1005 H1013 0.960 . S
C1006 C1004 1.381 . S
C1006 C1007 1.394 . S
C1006 H1014 0.930 1_556 S
C1007 C1006 1.394 . S
C1007 C1008 1.383 . S
C1007 H1015 0.929 . S
C1008 C1007 1.383 . S
C1008 C1009 1.377 . S
C1009 H993 0.930 . S
C1009 C1008 1.377 . S
C1009 C1010 1.379 . S
C1010 H994 0.931 . S
C1010 C1004 1.383 . S
C1010 C1009 1.379 . S
H1011 C1005 0.959 . S
H1012 C1005 0.961 1_556 S
H1013 C1005 0.960 . S
H1014 C1006 0.930 1_554 S
H1015 C1007 0.929 . S
H1016 C1024 0.929 . S
H1017 C1026 0.930 . S
H1018 C1028 0.930 . S
H1019 C1031 0.929 . S
H1020 C1034 0.930 . S
H1021 C1036 0.960 . S
H1022 C1036 0.960 . S
H1023 C1036 0.960 . S
C1024 H1016 0.929 . S
C1024 C1025 1.377 . S
C1024 C1026 1.384 . S
C1025 C1024 1.377 . S
C1025 C1031 1.390 . S
C1026 H1017 0.930 . S
C1026 C1024 1.384 . S
C1026 C1027 1.372 . S
C1027 C1026 1.372 . S
C1027 C1028 1.400 . S
C1027 C1032 1.490 . S
C1028 H1018 0.930 . S
C1028 C1027 1.400 . S
C1028 C1031 1.386 . S
H1029 C1045 0.930 . S
H1030 C1046 0.931 . S
C1031 H1019 0.929 . S
C1031 C1025 1.390 . S
C1031 C1028 1.386 . S
C1032 C1027 1.490 . S
C1032 C1034 1.395 . S
C1032 C1035 1.403 . S
H1033 C1039 0.930 . S
C1034 H1020 0.930 . S
C1034 C1032 1.395 . S
C1034 C1037 1.403 . S
C1035 C1032 1.403 . S
C1035 C1036 1.524 . S
C1035 C1039 1.400 . S
C1036 H1021 0.960 . S
C1036 H1022 0.960 . S
C1036 H1023 0.960 . S
C1036 C1035 1.524 . S
C1037 C1034 1.403 . S
C1037 C1038 1.392 . S
C1037 C1041 1.495 . S
C1038 C1037 1.392 . S
C1038 C1039 1.385 . S
C1038 C1040 1.478 . S
C1039 H1033 0.930 . S
C1039 C1035 1.400 . S
C1039 C1038 1.385 . S
C1040 C1038 1.478 . S
C1040 C1042 1.381 . S
C1040 C1046 1.383 . S
C1041 C1037 1.495 . S
C1041 H1047 0.959 . S
C1041 H1048 0.961 . S
C1041 H1049 0.960 1_455 S
C1042 C1040 1.381 . S
C1042 C1043 1.394 . S
C1042 H1050 0.930 . S
C1043 C1042 1.394 . S
C1043 C1044 1.383 . S
C1043 H1051 0.888 1_455 S
C1044 C1043 1.383 . S
C1044 C1045 1.377 . S
C1045 H1029 0.930 . S
C1045 C1044 1.377 . S
C1045 C1046 1.379 . S
C1046 H1030 0.931 . S
C1046 C1040 1.383 . S
C1046 C1045 1.379 . S
H1047 C1041 0.959 . S
H1048 C1041 0.961 . S
H1049 C1041 0.960 1_655 S
H1050 C1042 0.930 . S
H1051 C1043 0.888 1_655 S
H1052 C1060 0.929 . S
H1053 C1062 0.930 . S
H1054 C1064 0.930 . S
H1055 C1067 0.929 . S
H1056 C1070 0.930 . S
H1057 C1072 0.960 . S
H1058 C1072 0.960 . S
H1059 C1072 0.960 . S
C1060 H1052 0.929 . S
C1060 C1061 1.377 . S
C1060 C1062 1.384 . S
C1061 C1060 1.377 . S
C1061 C1067 1.390 . S
C1062 H1053 0.930 . S
C1062 C1060 1.384 . S
C1062 C1063 1.372 . S
C1063 C1062 1.372 . S
C1063 C1064 1.400 . S
C1063 C1068 1.490 . S
C1064 H1054 0.930 . S
C1064 C1063 1.400 . S
C1064 C1067 1.386 . S
H1065 C1081 0.930 . S
H1066 C1082 0.931 . S
C1067 H1055 0.929 . S
C1067 C1061 1.390 . S
C1067 C1064 1.386 . S
C1068 C1063 1.490 . S
C1068 C1070 1.395 . S
C1068 C1071 1.403 . S
H1069 C1075 0.930 . S
C1070 H1056 0.930 . S
C1070 C1068 1.395 . S
C1070 C1073 1.403 . S
C1071 C1068 1.403 . S
C1071 C1072 1.524 . S
C1071 C1075 1.400 . S
C1072 H1057 0.960 . S
C1072 H1058 0.960 . S
C1072 H1059 0.960 . S
C1072 C1071 1.524 . S
C1073 C1070 1.403 . S
C1073 C1074 1.392 . S
C1073 C1077 1.495 . S
C1074 C1073 1.392 . S
C1074 C1075 1.385 . S
C1074 C1076 1.478 . S
C1075 H1069 0.930 . S
C1075 C1071 1.400 . S
C1075 C1074 1.385 . S
C1076 C1074 1.478 . S
C1076 C1078 1.381 . S
C1076 C1082 1.383 . S
C1077 C1073 1.495 . S
C1077 H1083 0.959 . S
C1077 H1084 0.961 . S
C1077 H1085 0.960 . S
C1078 C1076 1.381 . S
C1078 C1079 1.394 . S
C1078 H1086 0.930 . S
C1079 C1078 1.394 . S
C1079 C1080 1.383 . S
C1079 H1087 0.929 . S
C1080 C1079 1.383 . S
C1080 C1081 1.377 . S
C1081 H1065 0.930 . S
C1081 C1080 1.377 . S
C1081 C1082 1.379 . S
C1082 H1066 0.931 . S
C1082 C1076 1.383 . S
C1082 C1081 1.379 . S
H1083 C1077 0.959 . S
H1084 C1077 0.961 . S
H1085 C1077 0.960 . S
H1086 C1078 0.930 . S
H1087 C1079 0.929 . S
H1088 C1096 0.929 . S
H1089 C1098 0.930 . S
H1090 C1100 0.930 . S
H1091 C1103 0.929 . S
H1092 C1106 0.930 . S
H1093 C1108 0.960 . S
H1094 C1108 0.960 . S
H1095 C1108 0.960 . S
C1096 H1088 0.929 . S
C1096 C1097 1.377 . S
C1096 C1098 1.384 . S
C1097 C1096 1.377 . S
C1097 C1103 1.390 . S
C1098 H1089 0.930 . S
C1098 C1096 1.384 . S
C1098 C1099 1.372 . S
C1099 C1098 1.372 . S
C1099 C1100 1.400 . S
C1099 C1104 1.490 . S
C1100 H1090 0.930 . S
C1100 C1099 1.400 . S
C1100 C1103 1.386 . S
H1101 C1117 0.930 . S
H1102 C1118 0.931 . S
C1103 H1091 0.929 . S
C1103 C1097 1.390 . S
C1103 C1100 1.386 . S
C1104 C1099 1.490 . S
C1104 C1106 1.395 . S
C1104 C1107 1.403 . S
H1105 C1111 0.930 . S
C1106 H1092 0.930 . S
C1106 C1104 1.395 . S
C1106 C1109 1.403 . S
C1107 C1104 1.403 . S
C1107 C1108 1.524 . S
C1107 C1111 1.400 . S
C1108 H1093 0.960 . S
C1108 H1094 0.960 . S
C1108 H1095 0.960 . S
C1108 C1107 1.524 . S
C1109 C1106 1.403 . S
C1109 C1110 1.392 . S
C1109 C1113 1.495 . S
C1110 C1109 1.392 . S
C1110 C1111 1.385 . S
C1110 C1112 1.478 . S
C1111 H1105 0.930 . S
C1111 C1107 1.400 . S
C1111 C1110 1.385 . S
C1112 C1110 1.478 . S
C1112 C1114 1.381 . S
C1112 C1118 1.383 . S
C1113 C1109 1.495 . S
C1113 H1119 0.959 . S
C1113 H1120 0.961 . S
C1113 H1121 0.960 . S
C1114 C1112 1.381 . S
C1114 C1115 1.394 . S
C1114 H1122 0.930 . S
C1115 C1114 1.394 . S
C1115 C1116 1.383 . S
C1115 H1123 0.929 . S
C1116 C1115 1.383 . S
C1116 C1117 1.377 . S
C1117 H1101 0.930 . S
C1117 C1116 1.377 . S
C1117 C1118 1.379 . S
C1118 H1102 0.931 . S
C1118 C1112 1.383 . S
C1118 C1117 1.379 . S
H1119 C1113 0.959 . S
H1120 C1113 0.961 . S
H1121 C1113 0.960 . S
H1122 C1114 0.930 . S
H1123 C1115 0.929 . S
H1124 C1132 0.929 . S
H1125 C1134 0.930 . S
H1126 C1136 0.930 . S
H1127 C1139 0.929 . S
H1128 C1142 0.930 . S
H1129 C1144 0.960 . S
H1130 C1144 0.960 . S
H1131 C1144 0.960 . S
C1132 H1124 0.929 . S
C1132 C1133 1.377 . S
C1132 C1134 1.384 . S
C1133 C1132 1.377 . S
C1133 C1139 1.390 . S
C1134 H1125 0.930 . S
C1134 C1132 1.384 . S
C1134 C1135 1.372 . S
C1135 C1134 1.372 . S
C1135 C1136 1.400 . S
C1135 C1140 1.490 . S
C1136 H1126 0.930 . S
C1136 C1135 1.400 . S
C1136 C1139 1.386 . S
H1137 C1153 0.930 . S
H1138 C1154 0.931 . S
C1139 H1127 0.929 . S
C1139 C1133 1.390 . S
C1139 C1136 1.386 . S
C1140 C1135 1.490 . S
C1140 C1142 1.395 . S
C1140 C1143 1.403 . S
H1141 C1147 0.930 . S
C1142 H1128 0.930 . S
C1142 C1140 1.395 . S
C1142 C1145 1.403 . S
C1143 C1140 1.403 . S
C1143 C1144 1.524 . S
C1143 C1147 1.400 . S
C1144 H1129 0.960 . S
C1144 H1130 0.960 . S
C1144 H1131 0.960 . S
C1144 C1143 1.524 . S
C1145 C1142 1.403 . S
C1145 C1146 1.392 . S
C1145 C1149 1.495 . S
C1146 C1145 1.392 . S
C1146 C1147 1.385 . S
C1146 C1148 1.478 . S
C1147 H1141 0.930 . S
C1147 C1143 1.400 . S
C1147 C1146 1.385 . S
C1148 C1146 1.478 . S
C1148 C1150 1.381 . S
C1148 C1154 1.383 . S
C1149 C1145 1.495 . S
C1149 H1155 0.959 . S
C1149 H1156 0.961 . S
C1149 H1157 0.960 . S
C1150 C1148 1.381 . S
C1150 C1151 1.394 . S
C1150 H1158 0.930 . S
C1151 C1150 1.394 . S
C1151 C1152 1.383 . S
C1151 H1159 0.929 . S
C1152 C1151 1.383 . S
C1152 C1153 1.377 . S
C1153 H1137 0.930 . S
C1153 C1152 1.377 . S
C1153 C1154 1.379 . S
C1154 H1138 0.931 . S
C1154 C1148 1.383 . S
C1154 C1153 1.379 . S
H1155 C1149 0.959 . S
H1156 C1149 0.961 . S
H1157 C1149 0.960 . S
H1158 C1150 0.930 . S
H1159 C1151 0.929 . S
H1160 C1168 0.929 . S
H1161 C1170 0.930 . S
H1162 C1172 0.930 . S
H1163 C1175 0.929 . S
H1164 C1178 0.930 . S
H1165 C1180 0.960 . S
H1166 C1180 0.960 . S
H1167 C1180 0.960 . S
C1168 H1160 0.929 . S
C1168 C1169 1.377 . S
C1168 C1170 1.384 . S
C1169 C1168 1.377 . S
C1169 C1175 1.390 . S
C1170 H1161 0.930 . S
C1170 C1168 1.384 . S
C1170 C1171 1.372 . S
C1171 C1170 1.372 . S
C1171 C1172 1.400 . S
C1171 C1176 1.490 . S
C1172 H1162 0.930 . S
C1172 C1171 1.400 . S
C1172 C1175 1.386 . S
H1173 C1189 0.930 . S
H1174 C1190 0.931 . S
C1175 H1163 0.929 . S
C1175 C1169 1.390 . S
C1175 C1172 1.386 . S
C1176 C1171 1.490 . S
C1176 C1178 1.395 . S
C1176 C1179 1.403 . S
H1177 C1183 0.930 . S
C1178 H1164 0.930 . S
C1178 C1176 1.395 . S
C1178 C1181 1.403 . S
C1179 C1176 1.403 . S
C1179 C1180 1.524 . S
C1179 C1183 1.400 . S
C1180 H1165 0.960 . S
C1180 H1166 0.960 . S
C1180 H1167 0.960 . S
C1180 C1179 1.524 . S
C1181 C1178 1.403 . S
C1181 C1182 1.392 . S
C1181 C1185 1.495 1_655 S
C1182 C1181 1.392 . S
C1182 C1183 1.385 . S
C1182 C1184 1.478 . S
C1183 H1177 0.930 . S
C1183 C1179 1.400 . S
C1183 C1182 1.385 . S
C1184 C1182 1.478 . S
C1184 C1186 1.381 . S
C1184 C1190 1.383 . S
C1185 C1181 1.495 1_455 S
C1185 H1191 0.959 . S
C1185 H1192 0.961 . S
C1185 H1193 0.960 . S
C1186 C1184 1.381 . S
C1186 C1187 1.394 . S
C1186 H1194 0.930 1_655 S
C1187 C1186 1.394 . S
C1187 C1188 1.383 . S
C1187 H1195 0.929 1_655 S
C1188 C1187 1.383 . S
C1188 C1189 1.377 . S
C1189 H1173 0.930 . S
C1189 C1188 1.377 . S
C1189 C1190 1.379 . S
C1190 H1174 0.931 . S
C1190 C1184 1.383 . S
C1190 C1189 1.379 . S
H1191 C1185 0.959 . S
H1192 C1185 0.961 . S
H1193 C1185 0.960 . S
H1194 C1186 0.930 1_455 S
H1195 C1187 0.929 1_455 S
H1196 C1204 0.929 . S
H1197 C1206 0.930 . S
H1198 C1208 0.930 . S
H1199 C1211 0.929 . S
H1200 C1214 0.930 . S
H1201 C1216 0.934 1_545 S
H1202 C1216 0.937 1_545 S
H1203 C1216 0.984 . S
C1204 H1196 0.929 . S
C1204 C1205 1.377 . S
C1204 C1206 1.384 . S
C1205 C1204 1.377 . S
C1205 C1211 1.390 . S
C1206 H1197 0.930 . S
C1206 C1204 1.384 . S
C1206 C1207 1.372 . S
C1207 C1206 1.372 . S
C1207 C1208 1.400 . S
C1207 C1212 1.490 . S
C1208 H1198 0.930 . S
C1208 C1207 1.400 . S
C1208 C1211 1.386 . S
H1209 C1225 0.930 . S
H1210 C1226 0.931 . S
C1211 H1199 0.929 . S
C1211 C1205 1.390 . S
C1211 C1208 1.386 . S
C1212 C1207 1.490 . S
C1212 C1214 1.395 . S
C1212 C1215 1.403 . S
H1213 C1219 0.930 . S
C1214 H1200 0.930 . S
C1214 C1212 1.395 . S
C1214 C1217 1.403 . S
C1215 C1212 1.403 . S
C1215 C1216 1.551 . S
C1215 C1219 1.400 . S
C1216 H1201 0.934 1_565 S
C1216 H1202 0.937 1_565 S
C1216 H1203 0.984 . S
C1216 C1215 1.551 . S
C1217 C1214 1.403 . S
C1217 C1218 1.392 . S
C1217 C1221 1.495 . S
C1218 C1217 1.392 . S
C1218 C1219 1.385 . S
C1218 C1220 1.478 . S
C1219 H1213 0.930 . S
C1219 C1215 1.400 . S
C1219 C1218 1.385 . S
C1220 C1218 1.478 . S
C1220 C1222 1.381 . S
C1220 C1226 1.383 . S
C1221 C1217 1.495 . S
C1221 H1227 0.959 . S
C1221 H1228 0.961 . S
C1221 H1229 0.960 . S
C1222 C1220 1.381 . S
C1222 C1223 1.394 . S
C1222 H1230 0.930 . S
C1223 C1222 1.394 . S
C1223 C1224 1.383 . S
C1223 H1231 0.929 . S
C1224 C1223 1.383 . S
C1224 C1225 1.377 . S
C1225 H1209 0.930 . S
C1225 C1224 1.377 . S
C1225 C1226 1.379 . S
C1226 H1210 0.931 . S
C1226 C1220 1.383 . S
C1226 C1225 1.379 . S
H1227 C1221 0.959 . S
H1228 C1221 0.961 . S
H1229 C1221 0.960 . S
H1230 C1222 0.930 . S
H1231 C1223 0.929 . S
H1232 C1240 0.929 . S
H1233 C1242 0.930 . S
H1234 C1244 0.930 . S
H1235 C1247 0.929 . S
H1236 C1250 0.930 . S
H1237 C1252 0.960 . S
H1238 C1252 0.960 . S
H1239 C1252 0.960 . S
C1240 H1232 0.929 . S
C1240 C1241 1.377 . S
C1240 C1242 1.384 . S
C1241 C1240 1.377 . S
C1241 C1247 1.390 . S
C1242 H1233 0.930 . S
C1242 C1240 1.384 . S
C1242 C1243 1.372 . S
C1243 C1242 1.372 . S
C1243 C1244 1.400 . S
C1243 C1248 1.490 . S
C1244 H1234 0.930 . S
C1244 C1243 1.400 . S
C1244 C1247 1.386 . S
H1245 C1261 0.930 . S
H1246 C1262 0.931 . S
C1247 H1235 0.929 . S
C1247 C1241 1.390 . S
C1247 C1244 1.386 . S
C1248 C1243 1.490 . S
C1248 C1250 1.395 . S
C1248 C1251 1.403 . S
H1249 C1255 0.930 . S
C1250 H1236 0.930 . S
C1250 C1248 1.395 . S
C1250 C1253 1.403 . S
C1251 C1248 1.403 . S
C1251 C1252 1.524 . S
C1251 C1255 1.400 . S
C1252 H1237 0.960 . S
C1252 H1238 0.960 . S
C1252 H1239 0.960 . S
C1252 C1251 1.524 . S
C1253 C1250 1.403 . S
C1253 C1254 1.392 . S
C1253 C1257 1.495 . S
C1254 C1253 1.392 . S
C1254 C1255 1.385 . S
C1254 C1256 1.478 . S
C1255 H1249 0.930 . S
C1255 C1251 1.400 . S
C1255 C1254 1.385 . S
C1256 C1254 1.478 . S
C1256 C1258 1.381 . S
C1256 C1262 1.383 . S
C1257 C1253 1.495 . S
C1257 H1263 0.959 . S
C1257 H1264 0.961 . S
C1257 H1265 0.960 . S
C1258 C1256 1.381 . S
C1258 C1259 1.394 . S
C1258 H1266 0.930 . S
C1259 C1258 1.394 . S
C1259 C1260 1.383 . S
C1259 H1267 0.929 . S
C1260 C1259 1.383 . S
C1260 C1261 1.377 . S
C1261 H1245 0.930 . S
C1261 C1260 1.377 . S
C1261 C1262 1.379 . S
C1262 H1246 0.931 . S
C1262 C1256 1.383 . S
C1262 C1261 1.379 . S
H1263 C1257 0.959 . S
H1264 C1257 0.961 . S
H1265 C1257 0.960 . S
H1266 C1258 0.930 . S
H1267 C1259 0.929 . S
H1268 C1276 0.929 . S
H1269 C1278 0.930 . S
H1270 C1280 0.930 . S
H1271 C1283 0.929 . S
H1272 C1286 0.930 . S
H1273 C1288 0.960 . S
H1274 C1288 0.960 . S
H1275 C1288 0.960 . S
C1276 H1268 0.929 . S
C1276 C1277 1.377 . S
C1276 C1278 1.384 . S
C1277 C1276 1.377 . S
C1277 C1283 1.390 . S
C1278 H1269 0.930 . S
C1278 C1276 1.384 . S
C1278 C1279 1.372 . S
C1279 C1278 1.372 . S
C1279 C1280 1.400 . S
C1279 C1284 1.490 . S
C1280 H1270 0.930 . S
C1280 C1279 1.400 . S
C1280 C1283 1.386 . S
H1281 C1297 0.930 . S
H1282 C1298 0.931 . S
C1283 H1271 0.929 . S
C1283 C1277 1.390 . S
C1283 C1280 1.386 . S
C1284 C1279 1.490 . S
C1284 C1286 1.395 . S
C1284 C1287 1.403 . S
H1285 C1291 0.930 . S
C1286 H1272 0.930 . S
C1286 C1284 1.395 . S
C1286 C1289 1.403 . S
C1287 C1284 1.403 . S
C1287 C1288 1.524 . S
C1287 C1291 1.400 . S
C1288 H1273 0.960 . S
C1288 H1274 0.960 . S
C1288 H1275 0.960 . S
C1288 C1287 1.524 . S
C1289 C1286 1.403 . S
C1289 C1290 1.392 . S
C1289 C1293 1.495 . S
C1290 C1289 1.392 . S
C1290 C1291 1.385 . S
C1290 C1292 1.478 . S
C1291 H1285 0.930 . S
C1291 C1287 1.400 . S
C1291 C1290 1.385 . S
C1292 C1290 1.478 . S
C1292 C1294 1.381 . S
C1292 C1298 1.383 . S
C1293 C1289 1.495 . S
C1293 H1299 0.959 . S
C1293 H1300 0.961 . S
C1293 H1301 0.960 . S
C1294 C1292 1.381 . S
C1294 C1295 1.394 . S
C1294 H1302 0.930 . S
C1295 C1294 1.394 . S
C1295 C1296 1.383 . S
C1295 H1303 0.929 . S
C1296 C1295 1.383 . S
C1296 C1297 1.377 . S
C1297 H1281 0.930 . S
C1297 C1296 1.377 . S
C1297 C1298 1.379 . S
C1298 H1282 0.931 . S
C1298 C1292 1.383 . S
C1298 C1297 1.379 . S
H1299 C1293 0.959 . S
H1300 C1293 0.961 . S
H1301 C1293 0.960 . S
H1302 C1294 0.930 . S
H1303 C1295 0.929 . S
C449 C82 1.699 . S
C468 C178 1.824 . S
C504 C262 1.886 . S
C485 C95 1.733 . S
C540 C328 1.919 . S
C521 C56 1.863 . S
C576 C412 1.833 . S
C557 C69 1.820 . S
C612 C167 1.860 1_565 S
C593 C30 1.651 . S
C629 C43 1.664 . S
C648 C251 1.853 . S
C665 C4 1.785 . S
C684 C339 1.870 . S
C701 C17 1.754 . S
C720 C423 1.833 . S
C756 C174 0.547 1_455 S
C737 C74 0.488 . S
C792 C258 0.485 . S
C773 C87 0.482 . S
C828 C330 0.421 . S
C809 C100 0.446 . S
C845 C61 0.488 . S
C864 C414 0.509 . S
C881 C22 0.509 . S
C900 C162 0.617 . S
C936 C246 0.454 . S
C917 C35 0.458 . S
C972 C342 0.413 . S
C953 C48 0.459 . S
C989 C9 0.471 . S
C1008 C426 0.473 . S
C1025 C73 1.949 . S
C1044 C171 1.963 . S
C1061 C86 1.915 . S
C1080 C255 1.940 . S
C1116 C335 1.920 . S
C1097 C99 1.803 . S
C1152 C419 1.981 . S
C1133 C60 1.844 . S
C1169 C21 1.955 . S
C1188 C160 1.981 . S
C1224 C244 1.971 1_565 S
C1205 C34 1.907 . S
C1260 C346 1.919 . S
C1241 C47 1.809 . S
C1277 C8 1.838 . S
C1296 C430 1.964 . S
