# Generated by pormake.
# Topology pyr, (3,6)-cn, num edge types: 1
# Building blocks:
#     Node 0, Type 0, BuildingBlock: BETDIP_clean_linker_0, # of connection points: 3
#     Node 1, Type 0, BuildingBlock: BETDIP_clean_linker_0, # of connection points: 3
#     Node 2, Type 0, BuildingBlock: BETDIP_clean_linker_0, # of connection points: 3
#     Node 3, Type 0, BuildingBlock: BETDIP_clean_linker_0, # of connection points: 3
#     Node 4, Type 0, BuildingBlock: BETDIP_clean_linker_0, # of connection points: 3
#     Node 5, Type 0, BuildingBlock: BETDIP_clean_linker_0, # of connection points: 3
#     Node 6, Type 0, BuildingBlock: BETDIP_clean_linker_0, # of connection points: 3
#     Node 7, Type 0, BuildingBlock: BETDIP_clean_linker_0, # of connection points: 3
#     Node 8, Type 1, BuildingBlock: BETDAH_clean_sbu_0, # of connection points: 6
#     Node 9, Type 1, BuildingBlock: BETDAH_clean_sbu_0, # of connection points: 6
#     Node 10, Type 1, BuildingBlock: BETDAH_clean_sbu_0, # of connection points: 6
#     Node 11, Type 1, BuildingBlock: BETDAH_clean_sbu_0, # of connection points: 6
#     Edge 12, Type (0, 1), None
#     Edge 13, Type (0, 1), None
#     Edge 14, Type (0, 1), None
#     Edge 15, Type (0, 1), None
#     Edge 16, Type (0, 1), None
#     Edge 17, Type (0, 1), None
#     Edge 18, Type (0, 1), None
#     Edge 19, Type (0, 1), None
#     Edge 20, Type (0, 1), None
#     Edge 21, Type (0, 1), None
#     Edge 22, Type (0, 1), None
#     Edge 23, Type (0, 1), None
#     Edge 24, Type (0, 1), None
#     Edge 25, Type (0, 1), None
#     Edge 26, Type (0, 1), None
#     Edge 27, Type (0, 1), None
#     Edge 28, Type (0, 1), None
#     Edge 29, Type (0, 1), None
#     Edge 30, Type (0, 1), None
#     Edge 31, Type (0, 1), None
#     Edge 32, Type (0, 1), None
#     Edge 33, Type (0, 1), None
#     Edge 34, Type (0, 1), None
#     Edge 35, Type (0, 1), None
# Relax obj value: 0.383
# Max RMSD: 0.223
# Mean RMSD: 0.147
data_MOF--net-pyr--node1-BETDAH_clean_sbu_0--node2-BETDIP_clean_linker_0--edge1-none
_symmetry_space_group_name_H-M    P1
_symmetry_Int_Tables_number       1
_symmetry_cell_setting            triclinic
loop_
_symmetry_equiv_pos_as_xyz
'x, y, z'
_cell_length_a     17.732551
_cell_length_b     16.883012
_cell_length_c     15.996504
_cell_angle_alpha  93.571033
_cell_angle_beta   86.399361
_cell_angle_gamma 113.19931
loop_
_atom_site_label
_atom_site_type_symbol
_atom_site_fract_x
_atom_site_fract_y
_atom_site_fract_z
_atom_type_partial_charge
H0 H 0.43802 0.53026 0.28823 0.0
H1 H 0.6051 0.42609 0.17173 0.0
H2 H 0.43553 0.29376 0.36988 0.0
H3 H 0.50583 0.6204 1.07188 0.0
C4 C 0.4812 0.57278 1.11957 0.0
C5 C 0.46304 0.48165 0.28251 0.0
C6 C 0.42859 0.4108 0.33259 0.0
C7 C 0.52095 0.48335 0.21914 0.0
C8 C 0.55973 0.42485 0.22072 0.0
C9 C 0.53254 0.35851 0.27915 0.0
C10 C 0.46486 0.35082 0.33335 0.0
N11 N 0.53562 0.53742 0.14978 0.0
H12 H 0.16545 1.11482 0.83635 0.0
H13 H 0.3378 1.03371 0.70077 0.0
H14 H 0.23158 0.91672 0.93139 0.0
H15 H 0.26007 1.07959 0.57874 0.0
C16 C 0.2338 1.11542 0.62142 0.0
C17 C 0.1956 1.07018 0.83125 0.0
C18 C 0.18742 1.01333 0.89563 0.0
C19 C 0.24808 1.0756 0.76125 0.0
C20 C 0.2932 1.02466 0.75271 0.0
C21 C 0.28684 0.96839 0.81503 0.0
C22 C 0.23143 0.959 0.88354 0.0
N23 N 0.26116 1.13924 0.70345 0.0
H24 H 0.81804 0.63444 0.9769 0.0
H25 H 0.60471 0.40128 0.93465 0.0
H26 H 0.79482 0.39988 1.08823 0.0
H27 H 0.64258 0.47975 0.79363 0.0
C28 C 0.64265 0.54051 0.82058 0.0
C29 C 0.78442 0.56639 0.98712 0.0
C30 C 0.8175 0.52289 1.03841 0.0
C31 C 0.7093 0.52273 0.94642 0.0
C32 C 0.66408 0.43424 0.96185 0.0
C33 C 0.69256 0.38971 1.01634 0.0
C34 C 0.77043 0.43437 1.05128 0.0
N35 N 0.67782 0.57016 0.89557 0.0
H36 H 0.75675 0.6548 0.48792 0.0
H37 H 0.98475 0.87524 0.44339 0.0
H38 H 0.80458 0.89658 0.6244 0.0
H39 H 0.99604 0.79849 0.33174 0.0
C40 C 0.96286 0.72985 0.3387 0.0
C41 C 0.79587 0.72208 0.49918 0.0
C42 C 0.77048 0.77196 0.56074 0.0
C43 C 0.87308 0.75764 0.45429 0.0
C44 C 0.9241 0.84601 0.47267 0.0
C45 C 0.89881 0.89658 0.53319 0.0
C46 C 0.82275 0.85846 0.57645 0.0
N47 N 0.89896 0.70213 0.39625 0.0
H48 H 0.51651 0.91171 0.13585 0.0
H49 H 0.65573 0.76986 1.03503 0.0
H50 H 0.67072 0.99917 0.91709 0.0
H51 H 0.61194 0.72497 0.25657 0.0
C52 C 0.63734 0.7733 0.20951 0.0
C53 C 0.55583 0.90155 1.08597 0.0
C54 C 0.58161 0.95678 1.01822 0.0
C55 C 0.58999 0.84085 1.09611 0.0
C56 C 0.63768 0.82353 1.03061 0.0
C57 C 0.66937 0.88089 0.96543 0.0
C58 C 0.64203 0.94887 0.96138 0.0
N59 N 0.58139 0.80374 0.17532 0.0
H60 H 0.93275 0.25995 0.4286 0.0
H61 H 0.77629 0.3111 0.61202 0.0
H62 H 0.89477 0.49621 0.42237 0.0
H63 H 0.85051 0.25488 0.70239 0.0
C64 C 0.86823 0.21258 0.65888 0.0
C65 C 0.91157 0.30782 0.45646 0.0
C66 C 0.92198 0.38237 0.41431 0.0
C67 C 0.86662 0.2884 0.53197 0.0
C68 C 0.82086 0.33602 0.56099 0.0
C69 C 0.82451 0.4066 0.51605 0.0
C70 C 0.88631 0.43745 0.45238 0.0
N71 N 0.86079 0.21387 0.57164 0.0
H72 H 0.28141 0.72139 0.33177 0.0
H73 H 0.51113 0.93579 0.36311 0.0
H74 H 0.34412 0.94258 0.18076 0.0
H75 H 0.44536 0.8529 0.51988 0.0
C76 C 0.4486 0.79396 0.49175 0.0
C77 C 0.32393 0.78399 0.31269 0.0
C78 C 0.302 0.82637 0.25023 0.0
C79 C 0.39898 0.8217 0.35361 0.0
C80 C 0.4526 0.90668 0.33356 0.0
C81 C 0.43322 0.95166 0.2713 0.0
C82 C 0.35805 0.91015 0.23003 0.0
N83 N 0.4221 0.76974 0.4074 0.0
H84 H 0.08764 0.40597 0.86008 0.0
H85 H 0.30787 0.63826 0.83921 0.0
H86 H 0.27076 0.42208 0.66544 0.0
H87 H 0.23246 0.7029 0.91166 0.0
C88 C 0.18128 0.65691 0.94669 0.0
C89 C 0.14662 0.44196 0.82953 0.0
C90 C 0.17456 0.40311 0.76013 0.0
C91 C 0.19218 0.52835 0.85759 0.0
C92 C 0.27032 0.57393 0.81707 0.0
C93 C 0.29939 0.53621 0.74691 0.0
C94 C 0.24986 0.45148 0.71922 0.0
N95 N 0.15658 0.56636 0.92476 0.0
Ho96 Ho 0.05441 0.18495 0.55978 0.0
Ho97 Ho 1.026 1.11404 0.72482 0.0
C98 C 0.12456 0.31395 0.72586 0.0
C99 C 0.09155 0.28069 0.43463 0.0
C100 C 0.17671 0.33036 0.40989 0.0
C101 C 0.20068 0.34234 0.32528 0.0
C102 C 0.28351 0.3706 0.30132 0.0
C103 C 0.34289 0.38699 0.36145 0.0
C104 C 0.31884 0.37533 0.4459 0.0
C105 C 0.23627 0.34784 0.47013 0.0
C106 C 0.17225 1.13408 0.6 0.0
C107 C 0.95415 0.98572 0.56147 0.0
C108 C 0.9912 1.00691 0.84065 0.0
C109 C 0.90645 0.94769 0.85497 0.0
C110 C 0.88314 0.89146 0.92034 0.0
C111 C 0.80099 0.85627 0.94824 0.0
C112 C 0.74301 0.88218 0.91413 0.0
C113 C 0.76514 0.92624 0.83908 0.0
C114 C 0.84631 0.9582 0.80941 0.0
C115 C 0.91087 0.17039 0.68494 0.0
O116 O 0.09534 0.30468 0.64972 0.0
O117 O 0.11751 0.24505 0.76608 0.0
O118 O 0.07074 0.19752 0.42563 0.0
O119 O 0.06675 0.30426 0.50704 0.0
O120 O 0.14342 1.12136 0.5264 0.0
O121 O 0.13904 0.17332 0.64814 0.0
O122 O 0.9871 0.99561 0.63515 0.0
O123 O 0.95822 1.05448 0.52315 0.0
O124 O 1.00267 1.08774 0.8564 0.0
O125 O 1.02434 0.99456 0.76848 0.0
O126 O 0.9352 0.17571 0.76008 0.0
O127 O 0.94237 1.12925 0.63704 0.0
H128 H 0.15571 0.325 0.27747 0.0
H129 H 0.30114 0.37524 0.23534 0.0
H130 H 0.36285 0.38417 0.49258 0.0
H131 H 0.2186 0.33483 0.53542 0.0
H132 H 0.92887 0.88012 0.95322 0.0
H133 H 0.78605 0.8164 1.00174 0.0
H134 H 0.72237 0.9439 0.80756 0.0
H135 H 0.86329 0.99879 0.75592 0.0
Ho136 Ho 0.63266 0.16631 0.17438 0.0
Ho137 Ho 0.49844 0.16876 1.10579 0.0
C138 C 0.55292 0.28198 0.26415 0.0
C139 C 0.77995 0.17805 0.19375 0.0
C140 C 0.85093 0.25753 0.20809 0.0
C141 C 0.83588 0.33265 0.22042 0.0
C142 C 0.88369 0.3983 0.27376 0.0
C143 C 0.94008 0.3832 0.32166 0.0
C144 C 0.97333 0.32496 0.28561 0.0
C145 C 0.92491 0.25717 0.23283 0.0
C146 C 0.49404 1.03844 0.24337 0.0
C147 C 0.56885 1.03877 1.02415 0.0
C148 C 0.36141 0.18486 1.08527 0.0
C149 C 0.27346 1.13436 1.08447 0.0
C150 C 0.24278 1.0454 1.09536 0.0
C151 C 0.1766 0.99192 1.04841 0.0
C152 C 0.15493 1.02878 0.98203 0.0
C153 C 0.15866 1.11301 1.00073 0.0
C154 C 0.22448 0.16881 1.04689 0.0
C155 C 0.63878 0.29892 1.04144 0.0
O156 O 0.62608 0.28871 0.23513 0.0
O157 O 0.49248 0.21203 0.23999 0.0
O158 O 0.72396 0.16179 0.25486 0.0
O159 O 0.749 0.17023 1.12051 0.0
O160 O 0.55893 1.086 0.2833 0.0
O161 O 0.50639 1.0589 0.16757 0.0
O162 O 0.49724 1.04057 1.04999 0.0
O163 O 0.633 1.10666 1.04526 0.0
O164 O 0.40499 0.16593 1.02423 0.0
O165 O 0.3951 0.19618 0.15726 0.0
O166 O 0.57782 0.24759 0.99861 0.0
O167 O 0.62296 0.27757 1.11685 0.0
H168 H 0.77865 0.33364 0.20256 0.0
H169 H 0.86006 0.44683 0.29212 0.0
H170 H 1.02422 0.31895 0.3134 0.0
H171 H 0.93958 0.20086 0.22099 0.0
H172 H 0.27613 1.01739 1.12953 0.0
H173 H 0.16055 0.92337 1.0485 0.0
H174 H 0.12724 1.14116 0.96393 0.0
H175 H 0.24332 0.23791 1.04322 0.0
Ho176 Ho 0.51509 0.59434 0.60094 0.0
Ho177 Ho 0.55821 0.72934 0.71286 0.0
C178 C 0.60942 0.58635 0.77191 0.0
C179 C 0.52836 0.46995 0.51073 0.0
C180 C 0.5994 0.4457 0.51035 0.0
C181 C 0.62102 0.41992 0.58404 0.0
C182 C 0.69701 0.41446 0.58858 0.0
C183 C 0.75156 0.42995 0.51804 0.0
C184 C 0.72861 0.45463 0.44404 0.0
C185 C 0.6543 0.46362 0.44082 0.0
C186 C 0.37787 0.58382 0.69673 0.0
C187 C 0.4738 0.74574 0.54047 0.0
C188 C 0.54933 0.854 0.80672 0.0
C189 C 0.48152 0.88234 0.81432 0.0
C190 C 0.40227 0.82376 0.79462 0.0
C191 C 0.33732 0.85055 0.79749 0.0
C192 C 0.35198 0.93669 0.81823 0.0
C193 C 0.4313 0.99566 0.83692 0.0
C194 C 0.49609 0.96866 0.83415 0.0
C195 C 0.69333 0.73501 0.615 0.0
O196 O 0.5877 0.55709 0.69466 0.0
O197 O 0.59995 0.65653 0.80057 0.0
O198 O 0.48276 0.4575 0.57985 0.0
O199 O 0.54413 0.54518 0.4806 0.0
O200 O 0.38096 0.56871 0.6164 0.0
O201 O 0.44972 0.60437 0.72319 0.0
O202 O 0.49007 0.77172 0.61945 0.0
O203 O 0.48274 0.67488 0.51199 0.0
O204 O 0.58873 0.86587 0.73401 0.0
O205 O 0.53272 0.77765 0.8346 0.0
O206 O 0.69305 0.75519 0.69446 0.0
O207 O 0.62183 0.71755 0.59038 0.0
H208 H 0.58041 0.40632 0.63945 0.0
H209 H 0.71208 0.39716 0.64741 0.0
H210 H 0.76651 0.46556 0.38713 0.0
H211 H 0.64065 0.48663 0.3843 0.0
H212 H 0.3915 0.75808 0.77445 0.0
H213 H 0.27666 0.80511 0.78114 0.0
H214 H 0.4432 1.06291 0.85195 0.0
H215 H 0.55749 1.01535 0.84558 0.0
Ho216 Ho 0.06195 0.59208 0.17304 0.0
Ho217 Ho 0.05864 0.76024 1.11439 0.0
C218 C 0.22126 0.78081 0.20668 0.0
C219 C 0.13014 0.48203 0.17773 0.0
C220 C 0.21924 0.49709 0.16944 0.0
C221 C 0.24864 0.45127 1.10824 0.0
C222 C 0.33375 0.47308 1.09419 0.0
C223 C 0.39099 0.54223 0.13988 0.0
C224 C 0.36143 0.58935 0.19884 0.0
C225 C 0.27699 0.56458 0.21583 0.0
C226 C 0.99121 0.67601 0.28415 0.0
C227 C 0.90048 0.57025 1.07821 0.0
C228 C 0.9853 0.86665 1.12118 0.0
C229 C 0.89726 0.84699 0.14539 0.0
C230 C 0.86199 0.9081 0.14108 0.0
C231 C 0.77764 0.8859 0.162 0.0
C232 C 0.72729 0.80196 0.18698 0.0
C233 C 0.76416 0.74325 0.19556 0.0
C234 C 0.84768 0.76553 0.17559 0.0
C235 C 0.14094 0.6904 1.00509 0.0
O236 O 0.18769 0.69505 0.20655 0.0
O237 O 0.1828 0.82474 0.17423 0.0
O238 O 0.10456 0.51397 0.24531 0.0
O239 O 0.09965 0.49511 1.11016 0.0
O240 O 0.96747 0.59213 0.28052 0.0
O241 O 0.05248 0.70627 0.23438 0.0
O242 O 0.93575 0.65558 1.07392 0.0
O243 O 0.93756 0.52737 1.11459 0.0
O244 O 1.00029 0.82992 1.05106 0.0
O245 O 1.02893 0.86066 0.18139 0.0
O246 O 0.15804 0.77331 1.01448 0.0
O247 O 0.07628 0.64896 1.04918 0.0
H248 H 0.2059 0.39958 1.07039 0.0
H249 H 0.3548 0.43736 1.04634 0.0
H250 H 0.404 0.64453 0.23324 0.0
H251 H 0.25651 0.59947 0.26414 0.0
H252 H 0.89911 0.97224 1.12024 0.0
H253 H 0.75198 0.93401 0.15802 0.0
H254 H 0.72797 0.67921 0.21741 0.0
H255 H 0.8735 0.71871 0.18463 0.0
loop_
_geom_bond_atom_site_label_1
_geom_bond_atom_site_label_2
_geom_bond_distance
_geom_bond_site_symmetry_2
_ccdc_geom_bond_type
H0 C5 0.930 . S
H1 C8 0.930 . S
H2 C10 0.930 . S
H3 C4 1.016 . S
C4 H3 1.016 . S
C4 N11 1.286 . S
C5 H0 0.930 . S
C5 C6 1.397 . S
C5 C7 1.361 . S
C6 C5 1.397 . S
C6 C10 1.390 . S
C7 C5 1.361 . S
C7 C8 1.393 . S
C7 N11 1.413 . S
C8 H1 0.930 . S
C8 C7 1.393 . S
C8 C9 1.399 . S
C9 C8 1.399 . S
C9 C10 1.381 . S
C10 H2 0.930 . S
C10 C6 1.390 . S
C10 C9 1.381 . S
N11 C4 1.286 . S
N11 C7 1.413 . S
H12 C17 0.930 . S
H13 C20 0.930 . S
H14 C22 0.930 . S
H15 C16 1.016 1_455 S
C16 H15 1.016 1_655 S
C16 N23 1.286 . S
C17 H12 0.930 . S
C17 C18 1.397 . S
C17 C19 1.361 . S
C18 C17 1.397 . S
C18 C22 1.390 . S
C19 C17 1.361 . S
C19 C20 1.393 . S
C19 N23 1.413 1_455 S
C20 H13 0.930 . S
C20 C19 1.393 . S
C20 C21 1.399 . S
C21 C20 1.399 . S
C21 C22 1.381 . S
C22 H14 0.930 . S
C22 C18 1.390 . S
C22 C21 1.381 . S
N23 C16 1.286 . S
N23 C19 1.413 1_655 S
H24 C29 0.930 . S
H25 C32 0.930 . S
H26 C34 0.930 . S
H27 C28 1.016 . S
C28 H27 1.016 . S
C28 N35 1.286 . S
C29 H24 0.930 . S
C29 C30 1.397 . S
C29 C31 1.361 . S
C30 C29 1.397 . S
C30 C34 1.390 . S
C31 C29 1.361 . S
C31 C32 1.393 . S
C31 N35 1.413 . S
C32 H25 0.930 . S
C32 C31 1.393 . S
C32 C33 1.399 . S
C33 C32 1.399 . S
C33 C34 1.381 . S
C34 H26 0.930 . S
C34 C30 1.390 . S
C34 C33 1.381 . S
N35 C28 1.286 . S
N35 C31 1.413 . S
H36 C41 0.930 . S
H37 C44 0.930 . S
H38 C46 0.930 . S
H39 C40 1.016 . S
C40 H39 1.016 . S
C40 N47 1.286 . S
C41 H36 0.930 . S
C41 C42 1.397 . S
C41 C43 1.361 . S
C42 C41 1.397 . S
C42 C46 1.390 . S
C43 C41 1.361 . S
C43 C44 1.393 . S
C43 N47 1.413 . S
C44 H37 0.930 . S
C44 C43 1.393 . S
C44 C45 1.399 . S
C45 C44 1.399 . S
C45 C46 1.381 . S
C46 H38 0.930 . S
C46 C42 1.390 . S
C46 C45 1.381 . S
N47 C40 1.286 . S
N47 C43 1.413 . S
H48 C53 0.930 . S
H49 C56 0.930 . S
H50 C58 0.930 . S
H51 C52 1.016 . S
C52 H51 1.016 . S
C52 N59 1.286 . S
C53 H48 0.930 . S
C53 C54 1.397 . S
C53 C55 1.361 . S
C54 C53 1.397 . S
C54 C58 1.390 . S
C55 C53 1.361 . S
C55 C56 1.393 . S
C55 N59 1.413 . S
C56 H49 0.930 . S
C56 C55 1.393 . S
C56 C57 1.399 . S
C57 C56 1.399 . S
C57 C58 1.381 . S
C58 H50 0.930 . S
C58 C54 1.390 . S
C58 C57 1.381 . S
N59 C52 1.286 . S
N59 C55 1.413 . S
H60 C65 0.930 . S
H61 C68 0.930 . S
H62 C70 0.930 . S
H63 C64 1.016 . S
C64 H63 1.016 . S
C64 N71 1.286 1_455 S
C65 H60 0.930 . S
C65 C66 1.397 . S
C65 C67 1.361 . S
C66 C65 1.397 . S
C66 C70 1.390 . S
C67 C65 1.361 . S
C67 C68 1.393 . S
C67 N71 1.413 . S
C68 H61 0.930 . S
C68 C67 1.393 . S
C68 C69 1.399 . S
C69 C68 1.399 . S
C69 C70 1.381 . S
C70 H62 0.930 . S
C70 C66 1.390 . S
C70 C69 1.381 . S
N71 C64 1.286 1_655 S
N71 C67 1.413 . S
H72 C77 0.930 . S
H73 C80 0.930 . S
H74 C82 0.930 . S
H75 C76 1.016 . S
C76 H75 1.016 . S
C76 N83 1.286 . S
C77 H72 0.930 . S
C77 C78 1.397 . S
C77 C79 1.361 . S
C78 C77 1.397 . S
C78 C82 1.390 . S
C79 C77 1.361 . S
C79 C80 1.393 . S
C79 N83 1.413 . S
C80 H73 0.930 . S
C80 C79 1.393 . S
C80 C81 1.399 . S
C81 C80 1.399 . S
C81 C82 1.381 . S
C82 H74 0.930 . S
C82 C78 1.390 . S
C82 C81 1.381 . S
N83 C76 1.286 . S
N83 C79 1.413 . S
H84 C89 0.930 . S
H85 C92 0.930 . S
H86 C94 0.930 . S
H87 C88 1.016 . S
C88 H87 1.016 . S
C88 N95 1.286 . S
C89 H84 0.930 . S
C89 C90 1.397 . S
C89 C91 1.361 . S
C90 C89 1.397 . S
C90 C94 1.390 . S
C91 C89 1.361 . S
C91 C92 1.393 . S
C91 N95 1.413 . S
C92 H85 0.930 . S
C92 C91 1.393 . S
C92 C93 1.399 . S
C93 C92 1.399 . S
C93 C94 1.381 . S
C94 H86 0.930 . S
C94 C90 1.390 . S
C94 C93 1.381 . S
N95 C88 1.286 . S
N95 C91 1.413 . S
Ho96 C99 2.811 . S
Ho96 O116 2.322 . S
Ho96 O118 2.378 . S
Ho96 O119 2.524 . S
Ho96 O120 2.381 1_545 S
Ho96 O121 2.669 1_545 S
Ho96 O123 2.346 1_445 S
Ho96 O127 2.305 1_455 S
Ho97 C108 2.811 1_545 S
Ho97 O117 2.346 1_655 S
Ho97 O121 2.305 1_645 S
Ho97 O122 2.322 1_545 S
Ho97 O124 2.378 1_545 S
Ho97 O125 2.524 1_545 S
Ho97 O126 2.381 . S
Ho97 O127 2.669 . S
C98 O116 1.259 . S
C98 O117 1.268 . S
C99 Ho96 2.811 . S
C99 C100 1.488 . S
C99 O118 1.215 . S
C99 O119 1.289 . S
C100 C99 1.488 . S
C100 C101 1.348 . S
C100 C105 1.413 . S
C101 C100 1.348 . S
C101 C102 1.442 . S
C101 H128 0.930 . S
C102 C101 1.442 . S
C102 C103 1.381 . S
C102 H129 0.931 . S
C103 C102 1.381 . S
C103 C104 1.321 . S
C104 C103 1.321 . S
C104 C105 1.403 . S
C104 H130 0.934 . S
C105 C100 1.413 . S
C105 C104 1.403 . S
C105 H131 0.930 . S
C106 O120 1.275 . S
C106 O121 1.256 . S
C107 O122 1.259 . S
C107 O123 1.268 . S
C108 Ho97 2.811 1_565 S
C108 C109 1.488 . S
C108 O124 1.215 . S
C108 O125 1.289 . S
C109 C108 1.488 . S
C109 C110 1.348 . S
C109 C114 1.413 . S
C110 C109 1.348 . S
C110 C111 1.442 . S
C110 H132 0.930 . S
C111 C110 1.442 . S
C111 C112 1.381 . S
C111 H133 0.931 . S
C112 C111 1.381 . S
C112 C113 1.321 . S
C113 C112 1.321 . S
C113 C114 1.403 . S
C113 H134 0.934 . S
C114 C109 1.413 . S
C114 C113 1.403 . S
C114 H135 0.930 . S
C115 O126 1.275 . S
C115 O127 1.256 . S
O116 Ho96 2.322 . S
O116 C98 1.259 . S
O117 Ho97 2.346 1_455 S
O117 C98 1.268 . S
O118 Ho96 2.378 . S
O118 C99 1.215 . S
O119 Ho96 2.524 . S
O119 C99 1.289 . S
O120 Ho96 2.381 1_565 S
O120 C106 1.275 . S
O121 Ho96 2.669 1_565 S
O121 Ho97 2.305 1_465 S
O121 C106 1.256 . S
O122 Ho97 2.322 1_565 S
O122 C107 1.259 . S
O123 Ho96 2.346 1_665 S
O123 C107 1.268 . S
O124 Ho97 2.378 1_565 S
O124 C108 1.215 . S
O125 Ho97 2.524 1_565 S
O125 C108 1.289 . S
O126 Ho97 2.381 . S
O126 C115 1.275 . S
O127 Ho96 2.305 1_655 S
O127 Ho97 2.669 . S
O127 C115 1.256 . S
H128 C101 0.930 . S
H129 C102 0.931 . S
H130 C104 0.934 . S
H131 C105 0.930 . S
H132 C110 0.930 . S
H133 C111 0.931 . S
H134 C113 0.934 . S
H135 C114 0.930 . S
Ho136 C139 2.811 . S
Ho136 O156 2.322 . S
Ho136 O158 2.378 . S
Ho136 O159 2.524 . S
Ho136 O160 2.381 1_545 S
Ho136 O161 2.669 1_545 S
Ho136 O163 2.346 1_544 S
Ho136 O167 2.305 1_554 S
Ho137 C148 2.811 1_545 S
Ho137 O157 2.346 1_556 S
Ho137 O161 2.305 1_546 S
Ho137 O162 2.322 1_545 S
Ho137 O164 2.378 1_545 S
Ho137 O165 2.524 1_545 S
Ho137 O166 2.381 . S
Ho137 O167 2.669 . S
C138 O156 1.259 . S
C138 O157 1.268 . S
C139 Ho136 2.811 . S
C139 C140 1.488 . S
C139 O158 1.215 . S
C139 O159 1.289 . S
C140 C139 1.488 . S
C140 C141 1.348 . S
C140 C145 1.413 . S
C141 C140 1.348 . S
C141 C142 1.442 . S
C141 H168 0.930 . S
C142 C141 1.442 . S
C142 C143 1.381 . S
C142 H169 0.931 . S
C143 C142 1.381 . S
C143 C144 1.321 . S
C144 C143 1.321 . S
C144 C145 1.403 . S
C144 H170 0.934 . S
C145 C140 1.413 . S
C145 C144 1.403 . S
C145 H171 0.930 . S
C146 O160 1.275 . S
C146 O161 1.256 . S
C147 O162 1.259 . S
C147 O163 1.268 . S
C148 Ho137 2.811 1_565 S
C148 C149 1.488 . S
C148 O164 1.215 . S
C148 O165 1.289 . S
C149 C148 1.488 . S
C149 C150 1.348 . S
C149 C154 1.413 . S
C150 C149 1.348 . S
C150 C151 1.442 . S
C150 H172 0.930 . S
C151 C150 1.442 . S
C151 C152 1.381 . S
C151 H173 0.931 . S
C152 C151 1.381 . S
C152 C153 1.321 . S
C153 C152 1.321 . S
C153 C154 1.403 . S
C153 H174 0.934 . S
C154 C149 1.413 . S
C154 C153 1.403 . S
C154 H175 0.930 . S
C155 O166 1.275 . S
C155 O167 1.256 . S
O156 Ho136 2.322 . S
O156 C138 1.259 . S
O157 Ho137 2.346 1_554 S
O157 C138 1.268 . S
O158 Ho136 2.378 . S
O158 C139 1.215 . S
O159 Ho136 2.524 . S
O159 C139 1.289 . S
O160 Ho136 2.381 1_565 S
O160 C146 1.275 . S
O161 Ho136 2.669 1_565 S
O161 Ho137 2.305 1_564 S
O161 C146 1.256 . S
O162 Ho137 2.322 1_565 S
O162 C147 1.259 . S
O163 Ho136 2.346 1_566 S
O163 C147 1.268 . S
O164 Ho137 2.378 1_565 S
O164 C148 1.215 . S
O165 Ho137 2.524 1_565 S
O165 C148 1.289 . S
O166 Ho137 2.381 . S
O166 C155 1.275 . S
O167 Ho136 2.305 1_556 S
O167 Ho137 2.669 . S
O167 C155 1.256 . S
H168 C141 0.930 . S
H169 C142 0.931 . S
H170 C144 0.934 . S
H171 C145 0.930 . S
H172 C150 0.930 . S
H173 C151 0.931 . S
H174 C153 0.934 . S
H175 C154 0.930 . S
Ho176 C179 2.811 . S
Ho176 O196 2.322 . S
Ho176 O198 2.378 . S
Ho176 O199 2.524 . S
Ho176 O200 2.381 . S
Ho176 O201 2.669 . S
Ho176 O203 2.346 . S
Ho176 O207 2.305 . S
Ho177 C188 2.811 . S
Ho177 O197 2.346 . S
Ho177 O201 2.305 . S
Ho177 O202 2.322 . S
Ho177 O204 2.378 . S
Ho177 O205 2.524 . S
Ho177 O206 2.381 . S
Ho177 O207 2.669 . S
C178 O196 1.259 . S
C178 O197 1.268 . S
C179 Ho176 2.811 . S
C179 C180 1.488 . S
C179 O198 1.215 . S
C179 O199 1.289 . S
C180 C179 1.488 . S
C180 C181 1.348 . S
C180 C185 1.413 . S
C181 C180 1.348 . S
C181 C182 1.442 . S
C181 H208 0.930 . S
C182 C181 1.442 . S
C182 C183 1.381 . S
C182 H209 0.931 . S
C183 C182 1.381 . S
C183 C184 1.321 . S
C184 C183 1.321 . S
C184 C185 1.403 . S
C184 H210 0.934 . S
C185 C180 1.413 . S
C185 C184 1.403 . S
C185 H211 0.930 . S
C186 O200 1.275 . S
C186 O201 1.256 . S
C187 O202 1.259 . S
C187 O203 1.268 . S
C188 Ho177 2.811 . S
C188 C189 1.488 . S
C188 O204 1.215 . S
C188 O205 1.289 . S
C189 C188 1.488 . S
C189 C190 1.348 . S
C189 C194 1.413 . S
C190 C189 1.348 . S
C190 C191 1.442 . S
C190 H212 0.930 . S
C191 C190 1.442 . S
C191 C192 1.381 . S
C191 H213 0.931 . S
C192 C191 1.381 . S
C192 C193 1.321 . S
C193 C192 1.321 . S
C193 C194 1.403 . S
C193 H214 0.934 . S
C194 C189 1.413 . S
C194 C193 1.403 . S
C194 H215 0.930 . S
C195 O206 1.275 . S
C195 O207 1.256 . S
O196 Ho176 2.322 . S
O196 C178 1.259 . S
O197 Ho177 2.346 . S
O197 C178 1.268 . S
O198 Ho176 2.378 . S
O198 C179 1.215 . S
O199 Ho176 2.524 . S
O199 C179 1.289 . S
O200 Ho176 2.381 . S
O200 C186 1.275 . S
O201 Ho176 2.669 . S
O201 Ho177 2.305 . S
O201 C186 1.256 . S
O202 Ho177 2.322 . S
O202 C187 1.259 . S
O203 Ho176 2.346 . S
O203 C187 1.268 . S
O204 Ho177 2.378 . S
O204 C188 1.215 . S
O205 Ho177 2.524 . S
O205 C188 1.289 . S
O206 Ho177 2.381 . S
O206 C195 1.275 . S
O207 Ho176 2.305 . S
O207 Ho177 2.669 . S
O207 C195 1.256 . S
H208 C181 0.930 . S
H209 C182 0.931 . S
H210 C184 0.934 . S
H211 C185 0.930 . S
H212 C190 0.930 . S
H213 C191 0.931 . S
H214 C193 0.934 . S
H215 C194 0.930 . S
Ho216 C219 2.811 . S
Ho216 O236 2.322 . S
Ho216 O238 2.378 . S
Ho216 O239 2.524 . S
Ho216 O240 2.381 1_455 S
Ho216 O241 2.669 1_455 S
Ho216 O243 2.346 1_454 S
Ho216 O247 2.305 1_554 S
Ho217 C228 2.811 1_455 S
Ho217 O237 2.346 1_556 S
Ho217 O241 2.305 1_456 S
Ho217 O242 2.322 1_455 S
Ho217 O244 2.378 1_455 S
Ho217 O245 2.524 1_455 S
Ho217 O246 2.381 . S
Ho217 O247 2.669 . S
C218 O236 1.259 . S
C218 O237 1.268 . S
C219 Ho216 2.811 . S
C219 C220 1.488 . S
C219 O238 1.215 . S
C219 O239 1.289 . S
C220 C219 1.488 . S
C220 C221 1.348 . S
C220 C225 1.413 . S
C221 C220 1.348 . S
C221 C222 1.442 . S
C221 H248 0.930 . S
C222 C221 1.442 . S
C222 C223 1.381 . S
C222 H249 0.931 . S
C223 C222 1.381 . S
C223 C224 1.321 . S
C224 C223 1.321 . S
C224 C225 1.403 . S
C224 H250 0.934 . S
C225 C220 1.413 . S
C225 C224 1.403 . S
C225 H251 0.930 . S
C226 O240 1.275 . S
C226 O241 1.256 . S
C227 O242 1.259 . S
C227 O243 1.268 . S
C228 Ho217 2.811 1_655 S
C228 C229 1.488 . S
C228 O244 1.215 . S
C228 O245 1.289 . S
C229 C228 1.488 . S
C229 C230 1.348 . S
C229 C234 1.413 . S
C230 C229 1.348 . S
C230 C231 1.442 . S
C230 H252 0.930 . S
C231 C230 1.442 . S
C231 C232 1.381 . S
C231 H253 0.931 . S
C232 C231 1.381 . S
C232 C233 1.321 . S
C233 C232 1.321 . S
C233 C234 1.403 . S
C233 H254 0.934 . S
C234 C229 1.413 . S
C234 C233 1.403 . S
C234 H255 0.930 . S
C235 O246 1.275 . S
C235 O247 1.256 . S
O236 Ho216 2.322 . S
O236 C218 1.259 . S
O237 Ho217 2.346 1_554 S
O237 C218 1.268 . S
O238 Ho216 2.378 . S
O238 C219 1.215 . S
O239 Ho216 2.524 . S
O239 C219 1.289 . S
O240 Ho216 2.381 1_655 S
O240 C226 1.275 . S
O241 Ho216 2.669 1_655 S
O241 Ho217 2.305 1_654 S
O241 C226 1.256 . S
O242 Ho217 2.322 1_655 S
O242 C227 1.259 . S
O243 Ho216 2.346 1_656 S
O243 C227 1.268 . S
O244 Ho217 2.378 1_655 S
O244 C228 1.215 . S
O245 Ho217 2.524 1_655 S
O245 C228 1.289 . S
O246 Ho217 2.381 . S
O246 C235 1.275 . S
O247 Ho216 2.305 1_556 S
O247 Ho217 2.669 . S
O247 C235 1.256 . S
H248 C221 0.930 . S
H249 C222 0.931 . S
H250 C224 0.934 . S
H251 C225 0.930 . S
H252 C230 0.930 . S
H253 C231 0.931 . S
H254 C233 0.934 . S
H255 C234 0.930 . S
C6 C103 1.040 . S
C18 C152 1.512 . S
C178 C28 3.865 . S
C40 C226 2.800 . S
C138 C9 2.785 . S
C106 C16 2.047 1_455 S
C227 C30 2.522 . S
C195 C42 1.940 . S
C4 C223 2.395 . S
C155 C33 3.770 . S
C45 C107 2.981 . S
C21 C192 2.255 . S
C112 C57 1.190 . S
C66 C143 1.796 . S
C76 C187 3.962 . S
C88 C235 2.667 . S
C54 C147 2.854 . S
C115 C64 2.207 1_655 S
C218 C78 2.430 . S
C186 C93 2.059 . S
C52 C232 2.416 . S
C146 C81 3.755 . S
C98 C90 2.977 . S
C69 C183 2.159 . S
