# Generated by pormake.
# Topology zzz, (3,6)-cn, num edge types: 1
# Building blocks:
#     Node 0, Type 0, BuildingBlock: PAMTOO_clean_linker_0, # of connection points: 3
#     Node 1, Type 0, BuildingBlock: PAMTOO_clean_linker_0, # of connection points: 3
#     Node 2, Type 0, BuildingBlock: PAMTOO_clean_linker_0, # of connection points: 3
#     Node 3, Type 0, BuildingBlock: PAMTOO_clean_linker_0, # of connection points: 3
#     Node 4, Type 0, BuildingBlock: PAMTOO_clean_linker_0, # of connection points: 3
#     Node 5, Type 0, BuildingBlock: PAMTOO_clean_linker_0, # of connection points: 3
#     Node 6, Type 0, BuildingBlock: PAMTOO_clean_linker_0, # of connection points: 3
#     Node 7, Type 0, BuildingBlock: PAMTOO_clean_linker_0, # of connection points: 3
#     Node 8, Type 1, BuildingBlock: FUNLAD_clean_sbu_0, # of connection points: 6
#     Node 9, Type 1, BuildingBlock: FUNLAD_clean_sbu_0, # of connection points: 6
#     Node 10, Type 1, BuildingBlock: FUNLAD_clean_sbu_0, # of connection points: 6
#     Node 11, Type 1, BuildingBlock: FUNLAD_clean_sbu_0, # of connection points: 6
#     Edge 12, Type (0, 1), BuildingBlock: KIFKEQ_clean_linker_1, # of connection points: 2
#     Edge 13, Type (0, 1), BuildingBlock: KIFKEQ_clean_linker_1, # of connection points: 2
#     Edge 14, Type (0, 1), BuildingBlock: KIFKEQ_clean_linker_1, # of connection points: 2
#     Edge 15, Type (0, 1), BuildingBlock: KIFKEQ_clean_linker_1, # of connection points: 2
#     Edge 16, Type (0, 1), BuildingBlock: KIFKEQ_clean_linker_1, # of connection points: 2
#     Edge 17, Type (0, 1), BuildingBlock: KIFKEQ_clean_linker_1, # of connection points: 2
#     Edge 18, Type (0, 1), BuildingBlock: KIFKEQ_clean_linker_1, # of connection points: 2
#     Edge 19, Type (0, 1), BuildingBlock: KIFKEQ_clean_linker_1, # of connection points: 2
#     Edge 20, Type (0, 1), BuildingBlock: KIFKEQ_clean_linker_1, # of connection points: 2
#     Edge 21, Type (0, 1), BuildingBlock: KIFKEQ_clean_linker_1, # of connection points: 2
#     Edge 22, Type (0, 1), BuildingBlock: KIFKEQ_clean_linker_1, # of connection points: 2
#     Edge 23, Type (0, 1), BuildingBlock: KIFKEQ_clean_linker_1, # of connection points: 2
#     Edge 24, Type (0, 1), BuildingBlock: KIFKEQ_clean_linker_1, # of connection points: 2
#     Edge 25, Type (0, 1), BuildingBlock: KIFKEQ_clean_linker_1, # of connection points: 2
#     Edge 26, Type (0, 1), BuildingBlock: KIFKEQ_clean_linker_1, # of connection points: 2
#     Edge 27, Type (0, 1), BuildingBlock: KIFKEQ_clean_linker_1, # of connection points: 2
#     Edge 28, Type (0, 1), BuildingBlock: KIFKEQ_clean_linker_1, # of connection points: 2
#     Edge 29, Type (0, 1), BuildingBlock: KIFKEQ_clean_linker_1, # of connection points: 2
#     Edge 30, Type (0, 1), BuildingBlock: KIFKEQ_clean_linker_1, # of connection points: 2
#     Edge 31, Type (0, 1), BuildingBlock: KIFKEQ_clean_linker_1, # of connection points: 2
#     Edge 32, Type (0, 1), BuildingBlock: KIFKEQ_clean_linker_1, # of connection points: 2
#     Edge 33, Type (0, 1), BuildingBlock: KIFKEQ_clean_linker_1, # of connection points: 2
#     Edge 34, Type (0, 1), BuildingBlock: KIFKEQ_clean_linker_1, # of connection points: 2
#     Edge 35, Type (0, 1), BuildingBlock: KIFKEQ_clean_linker_1, # of connection points: 2
# Relax obj value: 0.116
# Max RMSD: 0.175
# Mean RMSD: 0.089
data_MOF--net-zzz--node1-FUNLAD_clean_sbu_0--node2-PAMTOO_clean_linker_0--edge1-KIFKEQ_clean_linker_1
_symmetry_space_group_name_H-M    P1
_symmetry_Int_Tables_number       1
_symmetry_cell_setting            triclinic
loop_
_symmetry_equiv_pos_as_xyz
'x, y, z'
_cell_length_a     51.620706
_cell_length_b     57.391335
_cell_length_c     17.764972
_cell_angle_alpha  85.046962
_cell_angle_beta   84.262501
_cell_angle_gamma 89.854686
loop_
_atom_site_label
_atom_site_type_symbol
_atom_site_fract_x
_atom_site_fract_y
_atom_site_fract_z
_atom_type_partial_charge
H0 H 0.8683 0.49064 0.28803 0.0
H1 H 0.79937 0.48805 0.17109 0.0
H2 H 0.79589 0.5166 0.38806 0.0
H3 H 0.77757 0.53925 0.21409 0.0
C4 C 0.76089 0.52838 0.24226 0.0
O5 O 0.76919 0.50734 0.27517 0.0
H6 H 0.7512 0.53854 0.28749 0.0
C7 C 0.84755 0.49334 0.28628 0.0
C8 C 0.83354 0.50397 0.34542 0.0
C9 C 0.8355 0.48738 0.22328 0.0
C10 C 0.8089 0.49203 0.22015 0.0
C11 C 0.79462 0.50241 0.27971 0.0
C12 C 0.80689 0.50825 0.34273 0.0
H13 H 0.97798 0.84239 0.18482 0.0
H14 H 0.99862 0.791 0.02727 0.0
H15 H 0.96936 0.76934 0.25828 0.0
H16 H 1.01071 0.73798 0.19268 0.0
C17 C 1.00883 0.74287 0.1315 0.0
O18 O 0.98595 0.755 0.12471 0.0
H19 H 0.02589 0.75404 0.10831 0.0
C20 C 0.97864 0.8243 0.17131 0.0
C21 C 0.97153 0.80669 0.229 0.0
C22 C 0.98868 0.819 0.09872 0.0
C23 C 0.99087 0.79548 0.08309 0.0
C24 C 0.9835 0.77759 0.14024 0.0
C25 C 0.97416 0.78318 0.21363 0.0
H26 H 0.68885 0.01998 0.16124 0.0
H27 H 0.75753 0.01232 0.00779 0.0
H28 H 0.76055 0.99831 0.24919 0.0
H29 H 0.81062 0.02029 0.17239 0.0
C30 C 0.80665 0.01798 0.11308 0.0
O31 O 0.78801 1.00065 0.11429 0.0
H32 H 0.79937 0.03503 0.08881 0.0
C33 C 0.70949 0.01623 0.1518 0.0
C34 C 0.72313 0.0093 0.21402 0.0
C35 C 0.72155 0.01736 0.07755 0.0
C36 C 0.74797 0.01161 0.06509 0.0
C37 C 0.76222 1.00516 0.12696 0.0
C38 C 0.74965 1.00357 0.20158 0.0
H39 H 0.52295 0.64131 0.18948 0.0
H40 H 0.51415 0.70065 0.02823 0.0
H41 H 0.55007 0.70904 0.23281 0.0
H42 H 0.52162 0.75204 0.18601 0.0
C43 C 0.51791 0.74724 0.12875 0.0
O44 O 0.5358 0.73061 0.10608 0.0
H45 H 0.49781 0.73987 0.13292 0.0
C46 C 0.52506 0.65988 0.17246 0.0
C47 C 0.53703 0.67401 0.2193 0.0
C48 C 0.51664 0.66912 0.10339 0.0
C49 C 0.52045 0.6931 0.08133 0.0
C50 C 0.53235 0.70753 0.12803 0.0
C51 C 0.54081 0.69793 0.19695 0.0
H52 H 0.18274 0.51665 0.16373 0.0
H53 H 0.24958 0.51745 0.28991 0.0
H54 H 0.25628 0.49143 0.06876 0.0
H55 H 0.29335 0.53406 0.16859 0.0
C56 C 0.30102 0.51592 0.16723 0.0
O57 O 0.28134 0.49957 0.18646 0.0
H58 H 0.30956 0.51376 0.10829 0.0
C59 C 0.20338 0.51384 0.16761 0.0
C60 C 0.21818 0.5038 0.10861 0.0
C61 C 0.21443 0.51889 0.23324 0.0
C62 C 0.24085 0.51404 0.23898 0.0
C63 C 0.25605 0.50453 0.17932 0.0
C64 C 0.24469 0.49931 0.11399 0.0
H65 H 0.07242 0.17052 0.2371 0.0
H66 H 0.05435 0.22076 0.40057 0.0
H67 H 0.08588 0.2436 0.17236 0.0
H68 H 0.02998 0.26071 0.30174 0.0
C69 C 0.04821 0.27136 0.29665 0.0
O70 O 0.06938 0.25712 0.30722 0.0
H71 H 0.05078 0.28043 0.23853 0.0
C72 C 0.07234 0.18842 0.25252 0.0
C73 C 0.08077 0.20627 0.19714 0.0
C74 C 0.0628 0.19327 0.32597 0.0
C75 C 0.06167 0.21661 0.34403 0.0
C76 C 0.07023 0.23474 0.2889 0.0
C77 C 0.07968 0.22958 0.21512 0.0
H78 H 0.3671 0.99681 0.24583 0.0
H79 H 0.29842 0.99248 0.40488 0.0
H80 H 0.29241 0.0132 0.16812 0.0
H81 H 0.25177 0.03686 0.27193 0.0
C82 C 0.25452 0.02537 0.32419 0.0
O83 O 0.26613 1.0048 0.3038 0.0
H84 H 0.2673 0.035 0.3581 0.0
C85 C 0.34612 0.99814 0.25761 0.0
C86 C 0.33128 1.00552 0.19852 0.0
C87 C 0.33457 0.9933 0.33191 0.0
C88 C 0.30757 0.99584 0.34736 0.0
C89 C 0.29225 1.00281 0.28831 0.0
C90 C 0.30415 0.00761 0.21355 0.0
H91 H 0.53095 0.3714 0.22914 0.0
H92 H 0.54504 0.31069 0.37903 0.0
H93 H 0.50314 0.30396 0.18418 0.0
H94 H 0.48178 0.27409 0.32648 0.0
C95 C 0.49988 0.27284 0.3557 0.0
O96 O 0.52046 0.2815 0.30527 0.0
H97 H 0.49733 0.28347 0.40544 0.0
C98 C 0.52912 0.35272 0.24445 0.0
C99 C 0.5158 0.33902 0.19918 0.0
C100 C 0.54009 0.3428 0.30879 0.0
C101 C 0.537 0.31868 0.32902 0.0
C102 C 0.52349 0.30469 0.2846 0.0
C103 C 0.51325 0.31482 0.2189 0.0
C104 C 0.04354 0.96804 0.80961 0.0
N105 N 1.01022 0.97165 0.60673 0.0
C106 C 0.02766 0.95431 0.59331 0.0
C107 C 0.02058 0.93462 0.55966 0.0
C108 C 0.99528 0.93255 0.53843 0.0
C109 C 0.97775 0.951 0.5508 0.0
C110 C 0.98566 0.9705 0.58547 0.0
Zn111 Zn 0.02189 0.99603 0.67456 0.0
C112 C 0.98053 1.00501 0.79988 0.0
N113 N 0.04956 0.04048 0.82962 0.0
C114 C 0.07441 0.04099 0.84901 0.0
C115 C 0.03299 0.05854 0.8423 0.0
C116 C 0.04156 0.07858 0.87142 0.0
C117 C 0.06742 0.08015 0.88821 0.0
C118 C 0.08376 0.06075 0.87912 0.0
Zn119 Zn 0.03736 0.01618 0.76244 0.0
O120 O 0.03339 0.96792 0.74753 0.0
C121 C 0.0788 0.00744 0.63742 0.0
O122 O 0.04821 0.98743 0.83541 0.0
H123 H 0.01342 0.05801 0.82585 0.0
H124 H 0.04688 0.95513 0.6121 0.0
H125 H 0.08737 0.02659 0.83765 0.0
O126 O 0.05976 0.99743 0.61297 0.0
O127 O 0.0751 0.01683 0.69988 0.0
H128 H 0.97196 0.9843 0.59759 0.0
O129 O 0.02593 0.04435 0.68914 0.0
O130 O 1.01077 0.02468 0.6021 0.0
O131 O 0.99973 0.01509 0.82335 0.0
O132 O 0.98395 0.9953 0.73783 0.0
C133 C 0.01553 0.04413 0.62744 0.0
H134 H 0.03465 0.92073 0.55317 0.0
H135 H 0.95811 0.95028 0.53471 0.0
H136 H 0.02819 0.09296 0.87908 0.0
H137 H 0.10383 0.06129 0.89172 0.0
C138 C 0.49105 0.9965 0.6126 0.0
N139 N 0.52492 0.0606 0.65048 0.0
C140 C 0.52791 0.06562 0.57376 0.0
C141 C 0.52666 0.08871 0.54207 0.0
C142 C 0.52202 0.10693 0.58953 0.0
C143 C 0.51897 0.10127 0.66855 0.0
C144 C 0.52062 0.07791 0.69795 0.0
Zn145 Zn 0.52643 0.02596 0.69259 0.0
C146 C 0.48528 0.01257 0.81519 0.0
N147 N 0.52952 0.95279 0.76795 0.0
C148 C 0.5321 0.93478 0.72263 0.0
C149 C 0.52702 0.94865 0.84496 0.0
C150 C 0.52643 0.92582 0.87924 0.0
C151 C 0.52862 0.90684 0.8342 0.0
C152 C 0.53185 0.91155 0.75476 0.0
Zn153 Zn 0.52826 0.98734 0.72461 0.0
O154 O 0.49931 0.01713 0.61764 0.0
C155 C 0.56963 1.00102 0.60298 0.0
O156 O 0.50075 0.97937 0.65033 0.0
H157 H 0.52523 0.96312 0.88021 0.0
H158 H 0.53107 0.05165 0.53681 0.0
H159 H 0.53404 0.93841 0.66155 0.0
O160 O 0.55866 0.02057 0.61245 0.0
O161 O 0.56017 0.98255 0.64053 0.0
H162 H 0.51834 0.0736 0.75874 0.0
O163 O 0.55577 0.99611 0.79794 0.0
O164 O 0.55364 0.03397 0.76807 0.0
O165 O 0.49637 0.99298 0.80723 0.0
O166 O 0.49434 0.03064 0.77475 0.0
C167 C 0.56375 0.01673 0.80419 0.0
H168 H 0.52876 0.09218 0.48086 0.0
H169 H 0.51555 0.11477 0.7073 0.0
H170 H 0.52433 0.92305 0.94064 0.0
H171 H 0.53348 0.89743 0.71791 0.0
C172 C 0.55772 0.4753 0.60435 0.0
N173 N 0.48312 0.50464 0.61754 0.0
C174 C 0.48797 0.50677 0.54054 0.0
C175 C 0.46759 0.50756 0.49464 0.0
C176 C 0.44173 0.50633 0.52779 0.0
C177 C 0.43717 0.50376 0.60753 0.0
C178 C 0.45829 0.50298 0.65161 0.0
Zn179 Zn 0.5151 0.50515 0.67759 0.0
C180 C 0.51738 0.46624 0.79625 0.0
N181 N 0.58531 0.50637 0.78665 0.0
C182 C 0.6099 0.50976 0.75197 0.0
C183 C 0.58077 0.50345 0.86367 0.0
C184 C 0.60125 0.50389 0.90898 0.0
C185 C 0.62686 0.50735 0.87514 0.0
C186 C 0.63108 0.51035 0.7954 0.0
Zn187 Zn 0.55331 0.50575 0.72684 0.0
O188 O 0.53431 0.48215 0.60382 0.0
C189 C 0.55138 0.54441 0.60809 0.0
O190 O 0.572 0.48284 0.65137 0.0
H191 H 0.5611 0.50092 0.89035 0.0
H192 H 0.50779 0.50808 0.51429 0.0
H193 H 0.61309 0.51204 0.69067 0.0
O194 O 0.52942 0.53475 0.60557 0.0
O195 O 0.56682 0.53589 0.65461 0.0
H196 H 0.45485 0.50135 0.71291 0.0
O197 O 0.53382 0.52832 0.8023 0.0
O198 O 0.49671 0.52851 0.75136 0.0
O199 O 0.53947 0.47592 0.79638 0.0
O200 O 0.50121 0.47522 0.75251 0.0
C201 C 0.51062 0.53563 0.79992 0.0
H202 H 0.47213 0.50907 0.43356 0.0
H203 H 0.41754 0.50288 0.63555 0.0
H204 H 0.59694 0.50195 0.97013 0.0
H205 H 0.65053 0.51293 0.7669 0.0
C206 C 0.06111 0.51791 0.61151 0.0
N207 N 0.02858 0.45183 0.67837 0.0
C208 C 0.0255 0.45118 0.60337 0.0
C209 C 0.02672 0.43006 0.57005 0.0
C210 C 0.03149 0.40927 0.6138 0.0
C211 C 0.03503 0.41034 0.69087 0.0
C212 C 0.03331 0.43195 0.72237 0.0
Zn213 Zn 0.02634 0.48426 0.71939 0.0
C214 C 0.06692 0.49427 0.81429 0.0
N215 N 0.02176 0.5544 0.78249 0.0
C216 C 0.01948 0.57456 0.73732 0.0
C217 C 0.02278 0.55477 0.85862 0.0
C218 C 0.02169 0.57584 0.89215 0.0
C219 C 0.0196 0.59699 0.84725 0.0
C220 C 0.0183 0.59618 0.76876 0.0
Zn221 Zn 0.02395 0.52198 0.74148 0.0
O222 O 0.05319 0.49697 0.62805 0.0
C223 C 0.98337 0.51212 0.64686 0.0
O224 O 0.05137 0.53402 0.65014 0.0
H225 H 0.02446 0.53861 0.8938 0.0
H226 H 0.02221 0.46715 0.56883 0.0
H227 H 0.0187 0.57388 0.67693 0.0
O228 O 0.9943 0.49235 0.65601 0.0
O229 O 0.99244 0.52958 0.67539 0.0
H230 H 0.0358 0.43284 0.78179 0.0
O231 O 0.99654 0.50926 0.83159 0.0
O232 O 0.99933 0.47208 0.81157 0.0
O233 O 0.05552 0.51387 0.80653 0.0
O234 O 0.05836 0.47691 0.78411 0.0
C235 C 0.98898 0.48824 0.84883 0.0
H236 H 0.02435 0.43007 0.51014 0.0
H237 H 0.03872 0.39464 0.72648 0.0
H238 H 0.02222 0.57551 0.95303 0.0
H239 H 0.01682 0.61208 0.73194 0.0
H240 H 0.24519 0.01358 0.47733 0.0
H241 H 0.20574 0.02554 0.27495 0.0
H242 H 0.20318 0.0077 0.55391 0.0
H243 H 0.16367 0.02011 0.35103 0.0
H244 H 0.09308 0.9894 0.50156 0.0
H245 H 0.13548 0.99177 0.42718 0.0
H246 H 0.16589 0.03056 0.59708 0.0
H247 H 0.12361 0.02784 0.67214 0.0
C248 C 0.22746 0.01492 0.4494 0.0
C249 C 0.22864 0.02036 0.37051 0.0
C250 C 0.20339 0.01171 0.49316 0.0
C251 C 0.17993 0.01365 0.45891 0.0
C252 C 0.18127 0.01832 0.37944 0.0
C253 C 0.20534 0.02156 0.33578 0.0
C254 C 0.10882 0.99838 0.52326 0.0
C255 C 0.10485 0.00847 0.5929 0.0
C256 C 0.13314 0.99984 0.48031 0.0
C257 C 0.15419 0.0114 0.50586 0.0
C258 C 0.15028 0.02126 0.57597 0.0
C259 C 0.12594 0.01983 0.61888 0.0
H260 H 0.4634 0.2386 0.39632 0.0
H261 H 0.54607 0.25112 0.38682 0.0
H262 H 0.46925 0.19888 0.45332 0.0
H263 H 0.55203 0.21129 0.44373 0.0
H264 H 0.55296 0.1298 0.47175 0.0
H265 H 0.54823 0.16962 0.41387 0.0
H266 H 0.48163 0.17966 0.57484 0.0
H267 H 0.48612 0.13977 0.632 0.0
C268 C 0.48288 0.23271 0.40547 0.0
C269 C 0.50434 0.24775 0.38506 0.0
C270 C 0.48622 0.21005 0.43882 0.0
C271 C 0.51112 0.20187 0.45296 0.0
C272 C 0.53264 0.21693 0.43259 0.0
C273 C 0.52925 0.23971 0.39983 0.0
C274 C 0.53727 0.1405 0.49467 0.0
C275 C 0.51987 0.13156 0.55641 0.0
C276 C 0.5347 0.16338 0.46189 0.0
C277 C 0.51449 0.1778 0.48949 0.0
C278 C 0.49724 0.16893 0.55166 0.0
C279 C 0.49997 0.14615 0.58493 0.0
H280 H 0.35401 0.51391 0.13546 0.0
H281 H 0.29395 0.51216 0.32309 0.0
H282 H 0.38724 0.51129 0.22452 0.0
H283 H 0.32715 0.50969 0.41251 0.0
H284 H 0.39568 0.4815 0.54567 0.0
H285 H 0.36125 0.48311 0.4602 0.0
H286 H 0.40423 0.53659 0.31329 0.0
H287 H 0.43834 0.5352 0.39858 0.0
C288 C 0.34794 0.51276 0.19583 0.0
C289 C 0.32141 0.51287 0.22243 0.0
C290 C 0.36694 0.51144 0.24684 0.0
C291 C 0.35983 0.5103 0.32564 0.0
C292 C 0.33325 0.51024 0.35224 0.0
C293 C 0.31425 0.5117 0.30112 0.0
C294 C 0.39762 0.49379 0.49561 0.0
C295 C 0.41993 0.50803 0.47864 0.0
C296 C 0.37792 0.49467 0.44657 0.0
C297 C 0.38017 0.50977 0.37947 0.0
C298 C 0.40218 0.52438 0.36357 0.0
C299 C 0.42175 0.52357 0.41255 0.0
H300 H 0.08636 0.30047 0.33243 0.0
H301 H 1.00487 0.28356 0.38668 0.0
H302 H 0.08201 0.33194 0.41758 0.0
H303 H 1.00046 0.31489 0.47184 0.0
H304 H 0.99779 0.39294 0.52189 0.0
H305 H 1.00198 0.35807 0.45251 0.0
H306 H 0.07263 0.3399 0.5546 0.0
H307 H 0.06853 0.37513 0.62372 0.0
C308 C 0.06764 0.30328 0.3636 0.0
C309 C 0.04603 0.28945 0.35368 0.0
C310 C 0.06515 0.32121 0.41247 0.0
C311 C 0.04089 0.32588 0.45151 0.0
C312 C 0.01936 0.31183 0.44218 0.0
C313 C 0.0219 0.29383 0.39376 0.0
C314 C 0.01413 0.38142 0.52987 0.0
C315 C 0.0329 0.38681 0.5779 0.0
C316 C 0.01643 0.36135 0.49059 0.0
C317 C 0.03767 0.34624 0.49794 0.0
C318 C 0.05616 0.35132 0.54735 0.0
C319 C 0.0537 0.37134 0.58739 0.0
H320 H 0.85282 1.00196 0.16206 0.0
H321 H 0.81611 0.02058 0.95791 0.0
H322 H 0.89419 0.99648 0.0861 0.0
H323 H 0.85763 0.01547 0.8813 0.0
H324 H 0.93397 0.98768 0.76427 0.0
H325 H 0.89149 0.98788 0.83926 0.0
H326 H 0.92606 0.02231 0.01188 0.0
H327 H 0.96826 0.02188 0.93796 0.0
C328 C 0.85361 1.00469 0.10077 0.0
C329 C 0.83138 0.01198 0.06581 0.0
C330 C 0.87733 1.00172 0.05719 0.0
C331 C 0.8794 1.00586 0.9775 0.0
C332 C 0.85678 0.01204 0.9424 0.0
C333 C 0.83303 0.01505 0.98614 0.0
C334 C 0.93249 0.99521 0.81837 0.0
C335 C 0.95459 1.00475 0.84497 0.0
C336 C 0.90811 0.99542 0.86122 0.0
C337 C 0.90531 1.00501 0.93192 0.0
C338 C 0.92749 0.01441 0.95843 0.0
C339 C 0.95173 0.01432 0.9156 0.0
H340 H 0.47847 0.77234 0.06911 0.0
H341 H 0.56202 0.77201 0.06928 0.0
H342 H 0.48108 0.80975 0.9921 0.0
H343 H 0.56473 0.80966 0.99211 0.0
H344 H 0.55936 0.86921 0.80002 0.0
H345 H 0.55711 0.82955 0.86424 0.0
H346 H 0.49194 0.85003 0.01559 0.0
H347 H 0.49397 0.88929 0.95117 0.0
C348 C 0.49745 0.78013 0.05165 0.0
C349 C 0.52007 0.76908 0.07427 0.0
C350 C 0.49894 0.80166 0.008 0.0
C351 C 0.52311 0.81276 0.98607 0.0
C352 C 0.54584 0.80146 0.00726 0.0
C353 C 0.54431 0.77993 0.05145 0.0
C354 C 0.54442 0.86512 0.84655 0.0
C355 C 0.52691 0.88243 0.87066 0.0
C356 C 0.54327 0.84248 0.88372 0.0
C357 C 0.52432 0.8366 0.94502 0.0
C358 C 0.5066 0.85385 0.96813 0.0
C359 C 0.50792 0.87645 0.93163 0.0
H360 H 0.70896 0.5184 0.26974 0.0
H361 H 0.77089 0.52759 0.08784 0.0
H362 H 0.67799 0.51186 0.17802 0.0
H363 H 0.74003 0.52086 0.99553 0.0
H364 H 0.66893 0.53721 0.85607 0.0
H365 H 0.70243 0.54084 0.94231 0.0
H366 H 0.66751 0.48334 0.09048 0.0
H367 H 0.6342 0.47958 0.00428 0.0
C368 C 0.71586 0.51898 0.20997 0.0
C369 C 0.74209 0.52393 0.18548 0.0
C370 C 0.69824 0.51508 0.15749 0.0
C371 C 0.70653 0.51593 0.07938 0.0
C372 C 0.73296 0.52043 0.05514 0.0
C373 C 0.75062 0.52423 0.1078 0.0
C374 C 0.66867 0.52508 0.90636 0.0
C375 C 0.6487 0.50827 0.92361 0.0
C376 C 0.68785 0.52718 0.95585 0.0
C377 C 0.68746 0.51254 0.02369 0.0
C378 C 0.66804 0.49521 0.0395 0.0
C379 C 0.64895 0.49307 0.99005 0.0
H380 H 1.01072 0.69675 0.1861 0.0
H381 H 1.00765 0.74113 0.97854 0.0
H382 H 0.01318 0.66228 0.11418 0.0
H383 H 1.01035 0.70659 0.90584 0.0
H384 H 0.98885 0.63529 0.81841 0.0
H385 H 0.98559 0.67095 0.88502 0.0
H386 H 0.04526 0.64508 0.02398 0.0
H387 H 0.04866 0.60973 0.95745 0.0
C388 C 1.0105 0.69907 0.12501 0.0
C389 C 1.00904 0.72153 0.08769 0.0
C390 C 1.01207 0.67938 0.08372 0.0
C391 C 1.01217 0.6817 0.00418 0.0
C392 C 1.01015 0.7042 0.96704 0.0
C393 C 1.00869 0.72393 0.00843 0.0
C394 C 1.0015 0.63738 0.86247 0.0
C395 C 0.0188 0.61952 0.88316 0.0
C396 C 0.9996 0.65778 0.90073 0.0
C397 C 0.01491 0.6607 0.96051 0.0
C398 C 0.03274 0.64314 0.97945 0.0
C399 C 0.03469 0.62287 0.94122 0.0
H400 H 0.01725 0.18976 0.42079 0.0
H401 H 0.08705 0.1519 0.35377 0.0
H402 H 0.99905 0.15408 0.49366 0.0
H403 H 0.06858 0.11648 0.42359 0.0
H404 H 1.00644 0.08643 0.68176 0.0
H405 H 0.01388 0.12458 0.6106 0.0
H406 H 0.02689 0.09087 0.4023 0.0
H407 H 0.01914 0.05261 0.4733 0.0
C408 C 0.02881 0.17398 0.4226 0.0
C409 C 0.05341 0.17348 0.3809 0.0
C410 C 0.01829 0.1536 0.46334 0.0
C411 C 0.03214 0.13251 0.46184 0.0
C412 C 0.05721 0.13239 0.42351 0.0
C413 C 0.06782 0.15268 0.3841 0.0
C414 C 1.00999 0.08724 0.62042 0.0
C415 C 0.0125 0.06662 0.58287 0.0
C416 C 0.01418 0.10906 0.5799 0.0
C417 C 0.02129 0.1105 0.50147 0.0
C418 C 0.02159 0.09005 0.46306 0.0
C419 C 0.01699 0.06823 0.50346 0.0
H420 H 0.36999 0.9583 0.33942 0.0
H421 H 0.33908 0.01661 0.45684 0.0
H422 H 0.40718 0.95657 0.41455 0.0
H423 H 0.37619 0.01481 0.5328 0.0
H424 H 0.4634 0.03014 0.53868 0.0
H425 H 0.42232 0.0257 0.48555 0.0
H426 H 0.42431 0.95109 0.54272 0.0
H427 H 0.46574 0.95545 0.59639 0.0
C428 C 0.37074 0.97017 0.3834 0.0
C429 C 0.35185 0.98767 0.3923 0.0
C430 C 0.39201 0.96921 0.42629 0.0
C431 C 0.39482 0.98586 0.47835 0.0
C432 C 0.3747 1.00202 0.492 0.0
C433 C 0.35331 1.00287 0.44941 0.0
C434 C 0.45528 0.01272 0.53953 0.0
C435 C 0.46791 0.99314 0.57176 0.0
C436 C 0.43152 0.01024 0.51 0.0
C437 C 0.41984 0.98811 0.51148 0.0
C438 C 0.43281 0.96837 0.54133 0.0
C439 C 0.45658 0.97087 0.57158 0.0
H440 H 0.57557 0.37722 0.25867 0.0
H441 H 0.53465 0.34386 0.46355 0.0
H442 H 0.58881 0.40899 0.32961 0.0
H443 H 0.5485 0.37548 0.53487 0.0
H444 H 0.58362 0.43551 0.64511 0.0
H445 H 0.58781 0.40041 0.57467 0.0
H446 H 0.55466 0.43804 0.38652 0.0
H447 H 0.5498 0.4726 0.45744 0.0
C448 C 0.56996 0.37638 0.31927 0.0
C449 C 0.55355 0.35834 0.35529 0.0
C450 C 0.57765 0.3945 0.35978 0.0
C451 C 0.56942 0.39478 0.43736 0.0
C452 C 0.55523 0.37558 0.47509 0.0
C453 C 0.5473 0.3575 0.4343 0.0
C454 C 0.57811 0.4364 0.58767 0.0
C455 C 0.56655 0.45668 0.55618 0.0
C456 C 0.58029 0.41634 0.54781 0.0
C457 C 0.57159 0.41658 0.47528 0.0
C458 C 0.56182 0.43745 0.44195 0.0
C459 C 0.55902 0.45722 0.4824 0.0
H460 H 0.2114 0.50027 0.37979 0.0
H461 H 0.17785 0.55343 0.2325 0.0
H462 H 0.17526 0.50448 0.47714 0.0
H463 H 0.14149 0.55747 0.33014 0.0
H464 H 0.0859 0.55983 0.56247 0.0
H465 H 0.12663 0.5653 0.47805 0.0
H466 H 0.12815 0.49135 0.45004 0.0
H467 H 0.08784 0.48584 0.5318 0.0
C468 C 0.19686 0.51349 0.36938 0.0
C469 C 0.19717 0.52628 0.29834 0.0
C470 C 0.17611 0.51578 0.42481 0.0
C471 C 0.1555 0.53102 0.41027 0.0
C472 C 0.15718 0.54561 0.34249 0.0
C473 C 0.17786 0.5432 0.2867 0.0
C474 C 0.09483 0.54485 0.53742 0.0
C475 C 0.08369 0.5224 0.5541 0.0
C476 C 0.11812 0.54797 0.48971 0.0
C477 C 0.13071 0.52863 0.45945 0.0
C478 C 0.11913 0.50644 0.47432 0.0
C479 C 0.09586 0.50337 0.52062 0.0
H480 H 0.03563 0.82204 0.01119 0.0
H481 H 0.96486 0.86023 0.06413 0.0
H482 H 0.05552 0.85763 0.94245 0.0
H483 H 0.98494 0.89563 -0.00183 0.0
H484 H 0.03563 0.95909 0.96328 0.0
H485 H 0.02539 0.92069 0.03074 0.0
H486 H 0.04496 0.88776 0.82328 0.0
H487 H 0.05488 0.9261 0.7556 0.0
C488 C 0.02418 0.83786 0.00676 0.0
C489 C 0.9988 0.83848 0.04357 0.0
C490 C 0.03566 0.85821 0.96846 0.0
C491 C 0.02198 0.87941 0.9675 0.0
C492 C 0.99613 0.87963 0.00028 0.0
C493 C 0.98459 0.85935 0.03731 0.0
C494 C 0.03876 0.94359 0.9329 0.0
C495 C 0.04584 0.94549 0.85436 0.0
C496 C 0.03266 0.92168 0.97117 0.0
C497 C 0.03402 0.90145 0.93159 0.0
C498 C 0.04375 0.90313 0.85484 0.0
C499 C 0.04944 0.92503 0.81633 0.0
H500 H 0.71411 0.99058 0.96249 0.0
H501 H 0.69079 0.05531 0.05533 0.0
H502 H 0.6769 0.99291 0.88706 0.0
H503 H 0.65337 0.05751 0.98132 0.0
H504 H 0.5924 0.05682 0.80765 0.0
H505 H 0.63472 0.06007 0.85716 0.0
H506 H 0.63068 0.9868 0.93706 0.0
H507 H 0.5888 0.98348 0.88772 0.0
C508 C 0.70159 1.00575 0.96441 0.0
C509 C 0.7051 0.02267 0.0149 0.0
C510 C 0.6801 0.00693 0.92225 0.0
C511 C 0.66188 0.02509 0.92988 0.0
C512 C 0.66699 0.04329 0.97436 0.0
C513 C 0.68842 0.04206 0.01661 0.0
C514 C 0.60041 0.04151 0.83673 0.0
C515 C 0.58722 0.01989 0.84374 0.0
C516 C 0.62471 0.04334 0.86451 0.0
C517 C 0.63628 0.02356 0.89934 0.0
C518 C 0.62265 1.00219 0.90846 0.0
C519 C 0.59843 1.00039 0.88112 0.0
H520 H 0.52682 0.66791 0.94923 0.0
H521 H 0.48175 0.63345 0.14536 0.0
H522 H 0.51675 0.63583 0.8745 0.0
H523 H 0.47266 0.60108 0.07123 0.0
H524 H 0.51886 0.53923 0.94652 0.0
H525 H 0.51178 0.57363 0.01778 0.0
H526 H 0.47738 0.60962 0.82914 0.0
H527 H 0.48364 0.5747 0.75849 0.0
C528 C 0.51412 0.65391 0.97577 0.0
C529 C 0.50556 0.65298 0.05364 0.0
C530 C 0.50839 0.63554 0.933 0.0
C531 C 0.49422 0.61594 0.96763 0.0
C532 C 0.48382 0.61594 0.04359 0.0
C533 C 0.48919 0.6344 0.08595 0.0
C534 C 0.50901 0.55422 0.92137 0.0
C535 C 0.50158 0.55434 0.84755 0.0
C536 C 0.50495 0.57386 0.962 0.0
C537 C 0.49403 0.59419 0.92875 0.0
C538 C 0.48572 0.59407 0.8559 0.0
C539 C 0.48913 0.57411 0.81593 0.0
H540 H 0.83748 0.50505 0.07595 0.0
H541 H 0.87157 0.45247 0.22394 0.0
H542 H 0.87347 0.5007 0.97813 0.0
H543 H 0.90774 0.44826 0.12601 0.0
H544 H 0.96077 0.52033 0.92455 0.0
H545 H 0.92 0.51453 0.00394 0.0
H546 H 0.92359 0.44034 0.98069 0.0
H547 H 0.9648 0.44609 0.89868 0.0
C548 C 0.85207 0.49187 0.08634 0.0
C549 C 0.85201 0.47935 0.15773 0.0
C550 C 0.87274 0.48951 0.03067 0.0
C551 C 0.89351 0.47447 0.04542 0.0
C552 C 0.89195 0.45998 0.11344 0.0
C553 C 0.87135 0.46246 0.1694 0.0
C554 C 0.9531 0.50269 0.93625 0.0
C555 C 0.96604 0.48366 0.90492 0.0
C556 C 0.92954 0.49945 0.9811 0.0
C557 C 0.91841 0.47709 -0.00332 0.0
C558 C 0.93172 0.45779 0.96843 0.0
C559 C 0.9553 0.46108 0.92214 0.0
H560 H 0.0513 0.20809 0.07977 0.0
H561 H 0.12606 0.18617 0.14715 0.0
H562 H 0.05421 0.17987 0.98484 0.0
H563 H 0.12967 0.15829 0.05031 0.0
H564 H 0.0961 0.08553 0.00692 0.0
H565 H 0.10663 0.12194 0.0584 0.0
H566 H 0.07154 0.16117 0.87641 0.0
H567 H 0.0605 0.1246 0.82625 0.0
C568 C 0.06914 0.19827 0.07065 0.0
C569 C 0.08848 0.19928 0.1203 0.0
C570 C 0.07078 0.18188 0.01661 0.0
C571 C 0.09189 0.16629 0.0113 0.0
C572 C 0.11285 0.16959 0.05425 0.0
C573 C 0.11108 0.18588 0.10864 0.0
C574 C 0.09112 0.10195 0.97718 0.0
C575 C 0.07707 0.10222 0.91352 0.0
C576 C 0.09731 0.1229 0.00626 0.0
C577 C 0.0898 0.14459 0.97181 0.0
C578 C 0.07722 0.14482 0.90514 0.0
C579 C 0.07086 0.12388 0.87651 0.0
H580 H 0.35922 0.04469 0.15075 0.0
H581 H 0.33765 0.97794 0.08131 0.0
H582 H 0.39503 0.04804 0.04966 0.0
H583 H 0.37317 0.9813 0.97868 0.0
H584 H 0.46096 0.97687 0.90676 0.0
H585 H 0.41967 0.97767 0.98514 0.0
H586 H 0.41194 0.0512 0.9163 0.0
H587 H 0.45372 0.0505 0.83827 0.0
C588 C 0.36142 0.03129 0.1112 0.0
C589 C 0.34552 0.01123 0.12286 0.0
C590 C 0.38205 0.0331 0.05356 0.0
C591 C 0.38732 0.01474 0.0068 0.0
C592 C 0.36997 0.99556 0.01463 0.0
C593 C 0.34931 0.99379 0.07235 0.0
C594 C 0.45056 0.99327 0.90836 0.0
C595 C 0.46079 0.01365 0.86639 0.0
C596 C 0.42664 0.99365 0.95265 0.0
C597 C 0.41221 0.01442 0.9563 0.0
C598 C 0.42254 0.0349 0.9149 0.0
C599 C 0.44653 0.03452 0.87033 0.0
H600 H 0.48037 0.374 0.1912 0.0
H601 H 0.53099 0.33159 0.05201 0.0
H602 H 0.4755 0.40165 0.08106 0.0
H603 H 0.52615 0.35923 0.94128 0.0
H604 H 0.55279 0.43471 0.8413 0.0
H605 H 0.54584 0.39948 0.92657 0.0
H606 H 0.46296 0.41171 0.94607 0.0
H607 H 0.47 0.44736 0.85862 0.0
C608 C 0.48953 0.37012 0.13616 0.0
C609 C 0.5061 0.35074 0.12991 0.0
C610 C 0.48675 0.38593 0.07306 0.0
C611 C 0.50074 0.38281 0.00272 0.0
C612 C 0.51533 0.36221 0.99502 0.0
C613 C 0.51792 0.34627 0.05809 0.0
C614 C 0.533 0.42984 0.863 0.0
C615 C 0.51195 0.44397 0.84391 0.0
C616 C 0.529 0.40943 0.91123 0.0
C617 C 0.50384 0.40267 0.94273 0.0
C618 C 0.48258 0.41647 0.92243 0.0
C619 C 0.48658 0.43682 0.87254 0.0
H620 H 0.19103 0.46397 0.10168 0.0
H621 H 0.2126 0.52993 0.97694 0.0
H622 H 0.15624 0.45914 0.02023 0.0
H623 H 0.17814 0.5251 0.89432 0.0
H624 H 0.09009 0.52915 0.87777 0.0
H625 H 0.13115 0.52832 0.93294 0.0
H626 H 0.14067 0.45556 0.892 0.0
H627 H 0.09901 0.4563 0.83616 0.0
C628 C 0.18907 0.47684 0.05428 0.0
C629 C 0.20452 0.49718 0.04467 0.0
C630 C 0.16911 0.47416 0.00791 0.0
C631 C 0.16417 0.49194 0.95176 0.0
C632 C 0.18124 0.51128 0.93796 0.0
C633 C 0.20118 0.51393 0.98434 0.0
C634 C 0.1008 0.51289 0.88039 0.0
C635 C 0.09118 0.49276 0.85253 0.0
C636 C 0.12458 0.51252 0.91125 0.0
C637 C 0.13943 0.492 0.91549 0.0
C638 C 0.12969 0.47167 0.88907 0.0
C639 C 0.10582 0.47207 0.85745 0.0
H640 H 1.00065 0.7999 0.34716 0.0
H641 H 0.93019 0.83236 0.27997 0.0
H642 H 1.0029 0.82786 0.44252 0.0
H643 H 0.93239 0.8604 0.375 0.0
H644 H 0.94821 0.90898 0.5621 0.0
H645 H 0.93692 0.8723 0.51133 0.0
H646 H 0.01387 0.87027 0.3923 0.0
H647 H 0.0248 0.90696 0.43965 0.0
C648 C 0.98478 0.81207 0.35608 0.0
C649 C 0.96535 0.81413 0.30617 0.0
C650 C 0.98626 0.8283 0.40982 0.0
C651 C 0.9682 0.84666 0.41453 0.0
C652 C 0.94659 0.84649 0.37248 0.0
C653 C 0.94521 0.83033 0.31846 0.0
C654 C 0.96261 0.9008 0.5245 0.0
C655 C 0.98752 0.91089 0.50557 0.0
C656 C 0.95622 0.87968 0.49632 0.0
C657 C 0.97476 0.86811 0.44972 0.0
C658 C 0.99947 0.87834 0.43029 0.0
C659 C 1.00569 0.89948 0.45729 0.0
H660 H 0.69832 0.04472 0.2802 0.0
H661 H 0.71279 0.9708 0.31517 0.0
H662 H 0.66317 0.0415 0.3813 0.0
H663 H 0.67808 0.96743 0.42062 0.0
H664 H 0.59081 0.96599 0.51961 0.0
H665 H 0.63212 0.96731 0.43822 0.0
H666 H 0.64775 0.03604 0.50644 0.0
H667 H 0.60605 0.03522 0.58235 0.0
C668 C 0.69462 0.0279 0.31216 0.0
C669 C 0.70833 0.00806 0.2902 0.0
C670 C 0.67436 0.02596 0.37047 0.0
C671 C 0.66738 1.00411 0.40944 0.0
C672 C 0.68248 0.98447 0.3911 0.0
C673 C 0.70274 0.98643 0.33181 0.0
C674 C 0.60314 0.98135 0.51654 0.0
C675 C 0.59491 1.00073 0.5556 0.0
C676 C 0.62699 0.98206 0.47067 0.0
C677 C 0.64336 1.00195 0.46449 0.0
C678 C 0.63549 0.02073 0.50725 0.0
C679 C 0.6115 0.02026 0.55112 0.0
H680 H 0.50696 0.66494 0.35189 0.0
H681 H 0.58439 0.65581 0.24414 0.0
H682 H 0.51563 0.63618 0.45544 0.0
H683 H 0.59355 0.62716 0.34857 0.0
H684 H 0.5768 0.55113 0.46623 0.0
H685 H 0.57817 0.58721 0.38161 0.0
H686 H 0.53889 0.62371 0.56275 0.0
H687 H 0.5372 0.58739 0.64623 0.0
C688 C 0.52626 0.6575 0.35244 0.0
C689 C 0.54516 0.6628 0.29107 0.0
C690 C 0.53127 0.64094 0.41159 0.0
C691 C 0.55526 0.62915 0.41021 0.0
C692 C 0.57478 0.63568 0.351 0.0
C693 C 0.56973 0.65232 0.29183 0.0
C694 C 0.56919 0.56709 0.48815 0.0
C695 C 0.55715 0.56672 0.56248 0.0
C696 C 0.56998 0.58779 0.43996 0.0
C697 C 0.55853 0.60843 0.46519 0.0
C698 C 0.54765 0.60814 0.54116 0.0
C699 C 0.54687 0.58745 0.58917 0.0
H700 H 0.83539 0.48156 0.48554 0.0
H701 H 0.86572 0.54126 0.33997 0.0
H702 H 0.86941 0.48637 0.56987 0.0
H703 H 0.89988 0.5461 0.42344 0.0
H704 H 0.95465 0.55138 0.61138 0.0
H705 H 0.91359 0.55306 0.55238 0.0
H706 H 0.91645 0.47833 0.53853 0.0
H707 H 0.957 0.47659 0.59665 0.0
C708 C 0.84871 0.49627 0.47353 0.0
C709 C 0.84797 0.51117 0.40708 0.0
C710 C 0.86834 0.49889 0.52105 0.0
C711 C 0.88753 0.51641 0.50254 0.0
C712 C 0.88531 0.53255 0.43945 0.0
C713 C 0.86576 0.52984 0.39182 0.0
C714 C 0.94647 0.53536 0.59555 0.0
C715 C 0.95917 0.51388 0.60844 0.0
C716 C 0.92296 0.53632 0.5621 0.0
C717 C 0.91159 0.51577 0.542 0.0
C718 C 0.92435 0.49439 0.55501 0.0
C719 C 0.94783 0.49346 0.58752 0.0
loop_
_geom_bond_atom_site_label_1
_geom_bond_atom_site_label_2
_geom_bond_distance
_geom_bond_site_symmetry_2
_ccdc_geom_bond_type
H0 C7 0.929 . S
H1 C10 0.930 . S
H2 C12 0.929 . S
H3 C4 0.969 . S
C4 H3 0.969 . S
C4 O5 1.550 . S
C4 H6 0.973 . S
O5 C4 1.550 . S
O5 C11 1.412 . S
H6 C4 0.973 . S
C7 H0 0.929 . S
C7 C8 1.400 . S
C7 C9 1.364 . S
C8 C7 1.400 . S
C8 C12 1.377 . S
C9 C7 1.364 . S
C9 C10 1.374 . S
C10 H1 0.930 . S
C10 C9 1.374 . S
C10 C11 1.383 . S
C11 O5 1.412 . S
C11 C10 1.383 . S
C11 C12 1.394 . S
C12 H2 0.929 . S
C12 C8 1.377 . S
C12 C11 1.394 . S
H13 C20 0.929 . S
H14 C23 0.930 . S
H15 C25 0.929 . S
H16 C17 0.969 . S
C17 H16 0.969 . S
C17 O18 1.550 1_556 S
C17 H19 0.973 . S
O18 C17 1.550 1_554 S
O18 C24 1.412 . S
H19 C17 0.973 . S
C20 H13 0.929 . S
C20 C21 1.400 . S
C20 C22 1.364 1_554 S
C21 C20 1.400 . S
C21 C25 1.377 . S
C22 C20 1.364 1_556 S
C22 C23 1.374 . S
C23 H14 0.930 . S
C23 C22 1.374 . S
C23 C24 1.383 1_556 S
C24 O18 1.412 . S
C24 C23 1.383 1_554 S
C24 C25 1.394 . S
C25 H15 0.929 . S
C25 C21 1.377 . S
C25 C24 1.394 . S
H26 C33 0.929 1_565 S
H27 C36 0.927 1_556 S
H28 C38 0.930 1_565 S
H29 C30 0.969 . S
C30 H29 0.969 . S
C30 O31 1.550 1_545 S
C30 H32 0.973 1_544 S
O31 C30 1.550 1_565 S
O31 C37 1.405 1_565 S
H32 C30 0.973 1_566 S
C33 H26 0.929 1_545 S
C33 C34 1.399 . S
C33 C35 1.364 . S
C34 C33 1.399 . S
C34 C38 1.377 . S
C35 C33 1.364 . S
C35 C36 1.374 1_545 S
C36 H27 0.927 1_554 S
C36 C35 1.374 1_565 S
C36 C37 1.380 1_565 S
C37 O31 1.405 1_545 S
C37 C36 1.380 1_545 S
C37 C38 1.396 . S
C38 H28 0.930 1_545 S
C38 C34 1.377 . S
C38 C37 1.396 . S
H39 C46 0.929 . S
H40 C49 0.930 1_556 S
H41 C51 0.929 . S
H42 C43 0.969 . S
C43 H42 0.969 . S
C43 O44 1.550 . S
C43 H45 0.973 1_554 S
O44 C43 1.550 . S
O44 C50 1.412 . S
H45 C43 0.973 1_556 S
C46 H39 0.929 . S
C46 C47 1.400 . S
C46 C48 1.364 . S
C47 C46 1.400 . S
C47 C51 1.377 . S
C48 C46 1.364 . S
C48 C49 1.374 . S
C49 H40 0.930 1_554 S
C49 C48 1.374 . S
C49 C50 1.383 . S
C50 O44 1.412 . S
C50 C49 1.383 . S
C50 C51 1.394 . S
C51 H41 0.929 . S
C51 C47 1.377 . S
C51 C50 1.394 . S
H52 C59 0.929 . S
H53 C62 0.930 . S
H54 C64 0.929 . S
H55 C56 0.969 . S
C56 H55 0.969 . S
C56 O57 1.550 . S
C56 H58 0.973 . S
O57 C56 1.550 . S
O57 C63 1.412 . S
H58 C56 0.973 . S
C59 H52 0.929 . S
C59 C60 1.400 . S
C59 C61 1.364 . S
C60 C59 1.400 . S
C60 C64 1.377 . S
C61 C59 1.364 . S
C61 C62 1.374 . S
C62 H53 0.930 . S
C62 C61 1.374 . S
C62 C63 1.383 . S
C63 O57 1.412 . S
C63 C62 1.383 . S
C63 C64 1.394 . S
C64 H54 0.929 . S
C64 C60 1.377 . S
C64 C63 1.394 . S
H65 C72 0.929 . S
H66 C75 0.930 . S
H67 C77 0.929 . S
H68 C69 0.969 . S
C69 H68 0.969 . S
C69 O70 1.550 . S
C69 H71 0.973 . S
O70 C69 1.550 . S
O70 C76 1.412 . S
H71 C69 0.973 . S
C72 H65 0.929 . S
C72 C73 1.400 . S
C72 C74 1.364 . S
C73 C72 1.400 . S
C73 C77 1.377 . S
C74 C72 1.364 . S
C74 C75 1.374 . S
C75 H66 0.930 . S
C75 C74 1.374 . S
C75 C76 1.383 . S
C76 O70 1.412 . S
C76 C75 1.383 . S
C76 C77 1.394 . S
C77 H67 0.929 . S
C77 C73 1.377 . S
C77 C76 1.394 . S
H78 C85 0.928 1_565 S
H79 C88 0.933 . S
H80 C90 0.927 1_565 S
H81 C82 0.969 . S
C82 H81 0.969 . S
C82 O83 1.550 1_545 S
C82 H84 0.973 1_545 S
O83 C82 1.550 1_565 S
O83 C89 1.402 1_565 S
H84 C82 0.973 1_565 S
C85 H78 0.928 1_545 S
C85 C86 1.401 . S
C85 C87 1.364 . S
C86 C85 1.401 . S
C86 C90 1.377 . S
C87 C85 1.364 . S
C87 C88 1.374 1_545 S
C88 H79 0.933 . S
C88 C87 1.374 1_565 S
C88 C89 1.384 1_565 S
C89 O83 1.402 1_545 S
C89 C88 1.384 1_545 S
C89 C90 1.392 . S
C90 H80 0.927 1_545 S
C90 C86 1.377 . S
C90 C89 1.392 . S
H91 C98 0.929 . S
H92 C101 0.930 . S
H93 C103 0.929 . S
H94 C95 0.969 . S
C95 H94 0.969 . S
C95 O96 1.550 . S
C95 H97 0.973 . S
O96 C95 1.550 . S
O96 C102 1.412 . S
H97 C95 0.973 . S
C98 H91 0.929 . S
C98 C99 1.400 . S
C98 C100 1.364 . S
C99 C98 1.400 . S
C99 C103 1.377 . S
C100 C98 1.364 . S
C100 C101 1.374 . S
C101 H92 0.930 . S
C101 C100 1.374 . S
C101 C102 1.383 . S
C102 O96 1.412 . S
C102 C101 1.383 . S
C102 C103 1.394 . S
C103 H93 0.929 . S
C103 C99 1.377 . S
C103 C102 1.394 . S
C104 O120 1.251 . S
C104 O122 1.254 . S
N105 C106 1.333 . S
N105 C110 1.307 1_455 S
N105 Zn111 2.020 . S
C106 N105 1.333 . S
C106 C107 1.379 . S
C106 H124 0.952 . S
C107 C106 1.379 . S
C107 C108 1.390 1_455 S
C107 H134 0.949 . S
C108 C107 1.390 1_655 S
C108 C109 1.357 . S
C109 C108 1.357 . S
C109 C110 1.370 . S
C109 H135 0.950 . S
C110 N105 1.307 1_655 S
C110 C109 1.370 . S
C110 H128 0.948 . S
Zn111 N105 2.020 . S
Zn111 O120 2.039 . S
Zn111 O126 2.034 . S
Zn111 O130 2.025 1_565 S
Zn111 O132 2.024 1_455 S
C112 O131 1.246 . S
C112 O132 1.249 1_545 S
N113 C114 1.307 . S
N113 C115 1.333 . S
N113 Zn119 2.020 . S
C114 N113 1.307 . S
C114 C118 1.370 . S
C114 H125 0.948 . S
C115 N113 1.333 . S
C115 C116 1.379 . S
C115 H123 0.952 . S
C116 C115 1.379 . S
C116 C117 1.390 1_556 S
C116 H136 0.949 . S
C117 C116 1.390 1_554 S
C117 C118 1.357 1_554 S
C118 C114 1.370 . S
C118 C117 1.357 1_556 S
C118 H137 0.950 1_556 S
Zn119 N113 2.020 . S
Zn119 O122 2.025 1_545 S
Zn119 O127 2.024 . S
Zn119 O129 2.039 . S
Zn119 O131 2.034 1_455 S
O120 C104 1.251 . S
O120 Zn111 2.039 . S
C121 O126 1.246 . S
C121 O127 1.249 1_565 S
O122 C104 1.254 . S
O122 Zn119 2.025 1_565 S
H123 C115 0.952 . S
H124 C106 0.952 . S
H125 C114 0.948 . S
O126 Zn111 2.034 . S
O126 C121 1.246 . S
O127 Zn119 2.024 . S
O127 C121 1.249 1_545 S
H128 C110 0.948 . S
O129 Zn119 2.039 . S
O129 C133 1.251 . S
O130 Zn111 2.025 1_545 S
O130 C133 1.254 . S
O131 C112 1.246 . S
O131 Zn119 2.034 1_655 S
O132 Zn111 2.024 1_655 S
O132 C112 1.249 1_565 S
C133 O129 1.251 . S
C133 O130 1.254 . S
H134 C107 0.949 . S
H135 C109 0.950 . S
H136 C116 0.949 . S
H137 C118 0.950 1_554 S
C138 O154 1.251 1_565 S
C138 O156 1.254 . S
N139 C140 1.333 . S
N139 C144 1.307 . S
N139 Zn145 2.020 . S
C140 N139 1.333 . S
C140 C141 1.379 . S
C140 H158 0.952 . S
C141 C140 1.379 . S
C141 C142 1.390 . S
C141 H168 0.949 . S
C142 C141 1.390 . S
C142 C143 1.357 . S
C143 C142 1.357 . S
C143 C144 1.370 . S
C143 H169 0.950 . S
C144 N139 1.307 . S
C144 C143 1.370 . S
C144 H162 0.948 . S
Zn145 N139 2.020 . S
Zn145 O154 2.039 . S
Zn145 O160 2.034 . S
Zn145 O164 2.025 . S
Zn145 O166 2.024 . S
C146 O165 1.246 1_545 S
C146 O166 1.249 . S
N147 C148 1.307 . S
N147 C149 1.333 . S
N147 Zn153 2.020 . S
C148 N147 1.307 . S
C148 C152 1.370 . S
C148 H159 0.948 . S
C149 N147 1.333 . S
C149 C150 1.379 . S
C149 H157 0.952 . S
C150 C149 1.379 . S
C150 C151 1.390 . S
C150 H170 0.949 . S
C151 C150 1.390 . S
C151 C152 1.357 . S
C152 C148 1.370 . S
C152 C151 1.357 . S
C152 H171 0.950 . S
Zn153 N147 2.020 . S
Zn153 O156 2.025 . S
Zn153 O161 2.024 . S
Zn153 O163 2.039 . S
Zn153 O165 2.034 . S
O154 C138 1.251 1_545 S
O154 Zn145 2.039 . S
C155 O160 1.246 1_565 S
C155 O161 1.249 . S
O156 C138 1.254 . S
O156 Zn153 2.025 . S
H157 C149 0.952 . S
H158 C140 0.952 . S
H159 C148 0.948 . S
O160 Zn145 2.034 . S
O160 C155 1.246 1_545 S
O161 Zn153 2.024 . S
O161 C155 1.249 . S
H162 C144 0.948 . S
O163 Zn153 2.039 . S
O163 C167 1.251 1_565 S
O164 Zn145 2.025 . S
O164 C167 1.254 . S
O165 C146 1.246 1_565 S
O165 Zn153 2.034 . S
O166 Zn145 2.024 . S
O166 C146 1.249 . S
C167 O163 1.251 1_545 S
C167 O164 1.254 . S
H168 C141 0.949 . S
H169 C143 0.950 . S
H170 C150 0.949 . S
H171 C152 0.950 . S
C172 O188 1.251 . S
C172 O190 1.254 . S
N173 C174 1.333 . S
N173 C178 1.307 . S
N173 Zn179 2.020 . S
C174 N173 1.333 . S
C174 C175 1.379 . S
C174 H192 0.952 . S
C175 C174 1.379 . S
C175 C176 1.390 . S
C175 H202 0.949 . S
C176 C175 1.390 . S
C176 C177 1.357 . S
C177 C176 1.357 . S
C177 C178 1.370 . S
C177 H203 0.950 . S
C178 N173 1.307 . S
C178 C177 1.370 . S
C178 H196 0.948 . S
Zn179 N173 2.020 . S
Zn179 O188 2.039 . S
Zn179 O194 2.034 . S
Zn179 O198 2.025 . S
Zn179 O200 2.024 . S
C180 O199 1.246 . S
C180 O200 1.249 . S
N181 C182 1.307 . S
N181 C183 1.333 . S
N181 Zn187 2.020 . S
C182 N181 1.307 . S
C182 C186 1.370 . S
C182 H193 0.948 . S
C183 N181 1.333 . S
C183 C184 1.379 . S
C183 H191 0.952 . S
C184 C183 1.379 . S
C184 C185 1.390 . S
C184 H204 0.949 . S
C185 C184 1.390 . S
C185 C186 1.357 . S
C186 C182 1.370 . S
C186 C185 1.357 . S
C186 H205 0.950 . S
Zn187 N181 2.020 . S
Zn187 O190 2.025 . S
Zn187 O195 2.024 . S
Zn187 O197 2.039 . S
Zn187 O199 2.034 . S
O188 C172 1.251 . S
O188 Zn179 2.039 . S
C189 O194 1.246 . S
C189 O195 1.249 . S
O190 C172 1.254 . S
O190 Zn187 2.025 . S
H191 C183 0.952 . S
H192 C174 0.952 . S
H193 C182 0.948 . S
O194 Zn179 2.034 . S
O194 C189 1.246 . S
O195 Zn187 2.024 . S
O195 C189 1.249 . S
H196 C178 0.948 . S
O197 Zn187 2.039 . S
O197 C201 1.251 . S
O198 Zn179 2.025 . S
O198 C201 1.254 . S
O199 C180 1.246 . S
O199 Zn187 2.034 . S
O200 Zn179 2.024 . S
O200 C180 1.249 . S
C201 O197 1.251 . S
C201 O198 1.254 . S
H202 C175 0.949 . S
H203 C177 0.950 . S
H204 C184 0.949 . S
H205 C186 0.950 . S
C206 O222 1.251 . S
C206 O224 1.254 . S
N207 C208 1.333 . S
N207 C212 1.307 . S
N207 Zn213 2.020 . S
C208 N207 1.333 . S
C208 C209 1.379 . S
C208 H226 0.952 . S
C209 C208 1.379 . S
C209 C210 1.390 . S
C209 H236 0.949 . S
C210 C209 1.390 . S
C210 C211 1.357 . S
C211 C210 1.357 . S
C211 C212 1.370 . S
C211 H237 0.950 . S
C212 N207 1.307 . S
C212 C211 1.370 . S
C212 H230 0.948 . S
Zn213 N207 2.020 . S
Zn213 O222 2.039 . S
Zn213 O228 2.034 1_455 S
Zn213 O232 2.025 1_455 S
Zn213 O234 2.024 . S
C214 O233 1.246 . S
C214 O234 1.249 . S
N215 C216 1.307 . S
N215 C217 1.329 1_455 S
N215 Zn221 2.020 . S
C216 N215 1.307 . S
C216 C220 1.370 . S
C216 H227 0.948 . S
C217 N215 1.329 1_655 S
C217 C218 1.381 . S
C217 H225 0.955 . S
C218 C217 1.381 . S
C218 C219 1.390 1_655 S
C218 H238 0.949 . S
C219 C218 1.390 1_455 S
C219 C220 1.357 . S
C220 C216 1.370 . S
C220 C219 1.357 . S
C220 H239 0.950 . S
Zn221 N215 2.020 . S
Zn221 O224 2.025 . S
Zn221 O229 2.024 1_455 S
Zn221 O231 2.039 1_455 S
Zn221 O233 2.034 . S
O222 C206 1.251 . S
O222 Zn213 2.039 . S
C223 O228 1.246 . S
C223 O229 1.249 . S
O224 C206 1.254 . S
O224 Zn221 2.025 . S
H225 C217 0.955 . S
H226 C208 0.952 . S
H227 C216 0.948 . S
O228 Zn213 2.034 1_655 S
O228 C223 1.246 . S
O229 Zn221 2.024 1_655 S
O229 C223 1.249 . S
H230 C212 0.948 . S
O231 Zn221 2.039 1_655 S
O231 C235 1.251 . S
O232 Zn213 2.025 1_655 S
O232 C235 1.254 . S
O233 C214 1.246 . S
O233 Zn221 2.034 . S
O234 Zn213 2.024 . S
O234 C214 1.249 . S
C235 O231 1.251 . S
C235 O232 1.254 . S
H236 C209 0.949 . S
H237 C211 0.950 . S
H238 C218 0.949 . S
H239 C220 0.950 . S
H240 C248 0.950 . S
H241 C253 0.950 . S
H242 C250 0.950 . S
H243 C252 0.950 . S
H244 C254 0.950 . S
H245 C256 0.950 . S
H246 C258 0.950 . S
H247 C259 0.950 . S
C248 H240 0.950 . S
C248 C249 1.379 1_565 S
C248 C250 1.391 . S
C249 C248 1.379 1_545 S
C249 C253 1.400 . S
C250 H242 0.950 . S
C250 C248 1.391 . S
C250 C251 1.400 . S
C251 C250 1.400 . S
C251 C252 1.398 1_565 S
C251 C257 1.491 . S
C252 H243 0.950 . S
C252 C251 1.398 1_545 S
C252 C253 1.391 . S
C253 H241 0.950 . S
C253 C249 1.400 . S
C253 C252 1.391 . S
C254 H244 0.950 . S
C254 C255 1.386 1_545 S
C254 C256 1.391 . S
C255 C254 1.386 1_565 S
C255 C259 1.393 . S
C256 H245 0.950 . S
C256 C254 1.391 . S
C256 C257 1.400 1_545 S
C257 C251 1.491 . S
C257 C256 1.400 1_565 S
C257 C258 1.398 . S
C258 H246 0.950 . S
C258 C257 1.398 . S
C258 C259 1.391 . S
C259 H247 0.950 . S
C259 C255 1.393 . S
C259 C258 1.391 . S
H260 C268 0.950 . S
H261 C273 0.950 . S
H262 C270 0.950 . S
H263 C272 0.950 . S
H264 C274 0.950 . S
H265 C276 0.950 . S
H266 C278 0.950 . S
H267 C279 0.950 . S
C268 H260 0.950 . S
C268 C269 1.386 . S
C268 C270 1.391 . S
C269 C268 1.386 . S
C269 C273 1.393 . S
C270 H262 0.950 . S
C270 C268 1.391 . S
C270 C271 1.400 . S
C271 C270 1.400 . S
C271 C272 1.398 . S
C271 C277 1.491 . S
C272 H263 0.950 . S
C272 C271 1.398 . S
C272 C273 1.391 . S
C273 H261 0.950 . S
C273 C269 1.393 . S
C273 C272 1.391 . S
C274 H264 0.950 . S
C274 C275 1.386 . S
C274 C276 1.391 . S
C275 C274 1.386 . S
C275 C279 1.393 . S
C276 H265 0.950 . S
C276 C274 1.391 . S
C276 C277 1.400 . S
C277 C271 1.491 . S
C277 C276 1.400 . S
C277 C278 1.398 . S
C278 H266 0.950 . S
C278 C277 1.398 . S
C278 C279 1.391 . S
C279 H267 0.950 . S
C279 C275 1.393 . S
C279 C278 1.391 . S
H280 C288 0.950 . S
H281 C293 0.950 . S
H282 C290 0.950 . S
H283 C292 0.950 . S
H284 C294 0.950 . S
H285 C296 0.950 . S
H286 C298 0.950 . S
H287 C299 0.950 . S
C288 H280 0.950 . S
C288 C289 1.386 . S
C288 C290 1.391 . S
C289 C288 1.386 . S
C289 C293 1.393 . S
C290 H282 0.950 . S
C290 C288 1.391 . S
C290 C291 1.400 . S
C291 C290 1.400 . S
C291 C292 1.398 . S
C291 C297 1.491 . S
C292 H283 0.950 . S
C292 C291 1.398 . S
C292 C293 1.391 . S
C293 H281 0.950 . S
C293 C289 1.393 . S
C293 C292 1.391 . S
C294 H284 0.950 . S
C294 C295 1.386 . S
C294 C296 1.391 . S
C295 C294 1.386 . S
C295 C299 1.393 . S
C296 H285 0.950 . S
C296 C294 1.391 . S
C296 C297 1.400 . S
C297 C291 1.491 . S
C297 C296 1.400 . S
C297 C298 1.398 . S
C298 H286 0.950 . S
C298 C297 1.398 . S
C298 C299 1.391 . S
C299 H287 0.950 . S
C299 C295 1.393 . S
C299 C298 1.391 . S
H300 C308 0.950 . S
H301 C313 0.950 . S
H302 C310 0.950 . S
H303 C312 0.950 . S
H304 C314 0.950 1_655 S
H305 C316 0.950 . S
H306 C318 0.950 . S
H307 C319 0.950 . S
C308 H300 0.950 . S
C308 C309 1.386 . S
C308 C310 1.391 . S
C309 C308 1.386 . S
C309 C313 1.393 . S
C310 H302 0.950 . S
C310 C308 1.391 . S
C310 C311 1.400 . S
C311 C310 1.400 . S
C311 C312 1.398 . S
C311 C317 1.491 . S
C312 H303 0.950 . S
C312 C311 1.398 . S
C312 C313 1.391 . S
C313 H301 0.950 . S
C313 C309 1.393 . S
C313 C312 1.391 . S
C314 H304 0.950 1_455 S
C314 C315 1.386 . S
C314 C316 1.391 . S
C315 C314 1.386 . S
C315 C319 1.393 . S
C316 H305 0.950 . S
C316 C314 1.391 . S
C316 C317 1.400 . S
C317 C311 1.491 . S
C317 C316 1.400 . S
C317 C318 1.398 . S
C318 H306 0.950 . S
C318 C317 1.398 . S
C318 C319 1.391 . S
C319 H307 0.950 . S
C319 C315 1.393 . S
C319 C318 1.391 . S
H320 C328 0.950 1_554 S
H321 C333 0.950 . S
H322 C330 0.950 . S
H323 C332 0.950 . S
H324 C334 0.950 . S
H325 C336 0.950 . S
H326 C338 0.950 . S
H327 C339 0.950 . S
C328 H320 0.950 1_556 S
C328 C329 1.370 1_565 S
C328 C330 1.391 . S
C329 C328 1.370 1_545 S
C329 C333 1.408 . S
C330 H322 0.950 . S
C330 C328 1.391 . S
C330 C331 1.400 1_565 S
C331 C330 1.400 1_545 S
C331 C332 1.398 . S
C331 C337 1.491 . S
C332 H323 0.950 . S
C332 C331 1.398 . S
C332 C333 1.391 . S
C333 H321 0.950 . S
C333 C329 1.408 . S
C333 C332 1.391 . S
C334 H324 0.950 . S
C334 C335 1.386 . S
C334 C336 1.391 . S
C335 C334 1.386 . S
C335 C339 1.393 1_545 S
C336 H325 0.950 . S
C336 C334 1.391 . S
C336 C337 1.400 . S
C337 C331 1.491 . S
C337 C336 1.400 . S
C337 C338 1.398 1_545 S
C338 H326 0.950 . S
C338 C337 1.398 1_565 S
C338 C339 1.391 . S
C339 H327 0.950 . S
C339 C335 1.393 1_565 S
C339 C338 1.391 . S
H340 C348 0.950 . S
H341 C353 0.950 . S
H342 C350 0.950 . S
H343 C352 0.950 . S
H344 C354 0.950 . S
H345 C356 0.950 . S
H346 C358 0.950 . S
H347 C359 0.950 . S
C348 H340 0.950 . S
C348 C349 1.386 . S
C348 C350 1.391 . S
C349 C348 1.386 . S
C349 C353 1.393 1_554 S
C350 H342 0.950 . S
C350 C348 1.391 . S
C350 C351 1.400 1_554 S
C351 C350 1.400 1_556 S
C351 C352 1.398 . S
C351 C357 1.491 . S
C352 H343 0.950 . S
C352 C351 1.398 . S
C352 C353 1.391 . S
C353 H341 0.950 . S
C353 C349 1.393 1_556 S
C353 C352 1.391 . S
C354 H344 0.950 . S
C354 C355 1.386 . S
C354 C356 1.391 . S
C355 C354 1.386 . S
C355 C359 1.393 . S
C356 H345 0.950 . S
C356 C354 1.391 . S
C356 C357 1.400 . S
C357 C351 1.491 . S
C357 C356 1.400 . S
C357 C358 1.398 . S
C358 H346 0.950 . S
C358 C357 1.398 . S
C358 C359 1.391 . S
C359 H347 0.950 . S
C359 C355 1.393 . S
C359 C358 1.391 . S
H360 C368 0.950 . S
H361 C373 0.950 . S
H362 C370 0.950 . S
H363 C372 0.950 . S
H364 C374 0.950 . S
H365 C376 0.950 . S
H366 C378 0.950 1_554 S
H367 C379 0.950 . S
C368 H360 0.950 . S
C368 C369 1.386 . S
C368 C370 1.391 . S
C369 C368 1.386 . S
C369 C373 1.393 1_554 S
C370 H362 0.950 . S
C370 C368 1.391 . S
C370 C371 1.400 1_554 S
C371 C370 1.400 1_556 S
C371 C372 1.398 . S
C371 C377 1.491 . S
C372 H363 0.950 . S
C372 C371 1.398 . S
C372 C373 1.391 . S
C373 H361 0.950 . S
C373 C369 1.393 1_556 S
C373 C372 1.391 . S
C374 H364 0.950 . S
C374 C375 1.386 . S
C374 C376 1.391 . S
C375 C374 1.386 . S
C375 C379 1.393 . S
C376 H365 0.950 . S
C376 C374 1.391 . S
C376 C377 1.400 . S
C377 C371 1.491 . S
C377 C376 1.400 . S
C377 C378 1.398 . S
C378 H366 0.950 1_556 S
C378 C377 1.398 . S
C378 C379 1.391 . S
C379 H367 0.950 . S
C379 C375 1.393 . S
C379 C378 1.391 . S
H380 C388 0.950 1_455 S
H381 C393 0.950 . S
H382 C390 0.950 . S
H383 C392 0.950 . S
H384 C394 0.950 . S
H385 C396 0.950 . S
H386 C398 0.950 . S
H387 C399 0.950 . S
C388 H380 0.950 1_655 S
C388 C389 1.386 . S
C388 C390 1.391 1_655 S
C389 C388 1.386 . S
C389 C393 1.393 . S
C390 H382 0.950 . S
C390 C388 1.391 1_455 S
C390 C391 1.400 1_455 S
C391 C390 1.400 1_655 S
C391 C392 1.398 . S
C391 C397 1.491 . S
C392 H383 0.950 . S
C392 C391 1.398 . S
C392 C393 1.391 . S
C393 H381 0.950 . S
C393 C389 1.393 . S
C393 C392 1.391 . S
C394 H384 0.950 . S
C394 C395 1.383 1_655 S
C394 C396 1.391 . S
C395 C394 1.383 1_455 S
C395 C399 1.395 . S
C396 H385 0.950 . S
C396 C394 1.391 . S
C396 C397 1.400 . S
C397 C391 1.491 . S
C397 C396 1.400 . S
C397 C398 1.398 1_655 S
C398 H386 0.950 . S
C398 C397 1.398 1_455 S
C398 C399 1.391 . S
C399 H387 0.950 . S
C399 C395 1.395 . S
C399 C398 1.391 . S
H400 C408 0.950 . S
H401 C413 0.950 . S
H402 C410 0.950 . S
H403 C412 0.950 . S
H404 C414 0.950 . S
H405 C416 0.950 . S
H406 C418 0.950 . S
H407 C419 0.949 . S
C408 H400 0.950 . S
C408 C409 1.386 . S
C408 C410 1.391 . S
C409 C408 1.386 . S
C409 C413 1.393 . S
C410 H402 0.950 . S
C410 C408 1.391 . S
C410 C411 1.400 . S
C411 C410 1.400 . S
C411 C412 1.398 . S
C411 C417 1.491 . S
C412 H403 0.950 . S
C412 C411 1.398 . S
C412 C413 1.391 . S
C413 H401 0.950 . S
C413 C409 1.393 . S
C413 C412 1.391 . S
C414 H404 0.950 . S
C414 C415 1.386 . S
C414 C416 1.391 . S
C415 C414 1.386 . S
C415 C419 1.393 . S
C416 H405 0.950 . S
C416 C414 1.391 . S
C416 C417 1.400 . S
C417 C411 1.491 . S
C417 C416 1.400 . S
C417 C418 1.398 . S
C418 H406 0.950 . S
C418 C417 1.398 . S
C418 C419 1.391 . S
C419 H407 0.949 . S
C419 C415 1.393 . S
C419 C418 1.391 . S
H420 C428 0.950 . S
H421 C433 0.950 . S
H422 C430 0.950 . S
H423 C432 0.950 . S
H424 C434 0.950 . S
H425 C436 0.950 . S
H426 C438 0.950 . S
H427 C439 0.950 . S
C428 H420 0.950 . S
C428 C429 1.401 . S
C428 C430 1.391 . S
C429 C428 1.401 . S
C429 C433 1.379 1_565 S
C430 H422 0.950 . S
C430 C428 1.391 . S
C430 C431 1.400 . S
C431 C430 1.400 . S
C431 C432 1.398 1_565 S
C431 C437 1.491 . S
C432 H423 0.950 . S
C432 C431 1.398 1_545 S
C432 C433 1.391 . S
C433 H421 0.950 . S
C433 C429 1.379 1_545 S
C433 C432 1.391 . S
C434 H424 0.950 . S
C434 C435 1.386 1_545 S
C434 C436 1.391 . S
C435 C434 1.386 1_565 S
C435 C439 1.393 . S
C436 H425 0.950 . S
C436 C434 1.391 . S
C436 C437 1.400 1_545 S
C437 C431 1.491 . S
C437 C436 1.400 1_565 S
C437 C438 1.398 . S
C438 H426 0.950 . S
C438 C437 1.398 . S
C438 C439 1.391 . S
C439 H427 0.950 . S
C439 C435 1.393 . S
C439 C438 1.391 . S
H440 C448 0.950 . S
H441 C453 0.950 . S
H442 C450 0.950 . S
H443 C452 0.950 . S
H444 C454 0.950 . S
H445 C456 0.950 . S
H446 C458 0.950 . S
H447 C459 0.950 . S
C448 H440 0.950 . S
C448 C449 1.386 . S
C448 C450 1.391 . S
C449 C448 1.386 . S
C449 C453 1.393 . S
C450 H442 0.950 . S
C450 C448 1.391 . S
C450 C451 1.400 . S
C451 C450 1.400 . S
C451 C452 1.398 . S
C451 C457 1.491 . S
C452 H443 0.950 . S
C452 C451 1.398 . S
C452 C453 1.391 . S
C453 H441 0.950 . S
C453 C449 1.393 . S
C453 C452 1.391 . S
C454 H444 0.950 . S
C454 C455 1.386 . S
C454 C456 1.391 . S
C455 C454 1.386 . S
C455 C459 1.393 . S
C456 H445 0.950 . S
C456 C454 1.391 . S
C456 C457 1.400 . S
C457 C451 1.491 . S
C457 C456 1.400 . S
C457 C458 1.398 . S
C458 H446 0.950 . S
C458 C457 1.398 . S
C458 C459 1.391 . S
C459 H447 0.950 . S
C459 C455 1.393 . S
C459 C458 1.391 . S
H460 C468 0.950 . S
H461 C473 0.950 . S
H462 C470 0.950 . S
H463 C472 0.950 . S
H464 C474 0.950 . S
H465 C476 0.950 . S
H466 C478 0.950 . S
H467 C479 0.950 . S
C468 H460 0.950 . S
C468 C469 1.386 . S
C468 C470 1.391 . S
C469 C468 1.386 . S
C469 C473 1.393 . S
C470 H462 0.950 . S
C470 C468 1.391 . S
C470 C471 1.400 . S
C471 C470 1.400 . S
C471 C472 1.398 . S
C471 C477 1.491 . S
C472 H463 0.950 . S
C472 C471 1.398 . S
C472 C473 1.391 . S
C473 H461 0.950 . S
C473 C469 1.393 . S
C473 C472 1.391 . S
C474 H464 0.950 . S
C474 C475 1.386 . S
C474 C476 1.391 . S
C475 C474 1.386 . S
C475 C479 1.393 . S
C476 H465 0.950 . S
C476 C474 1.391 . S
C476 C477 1.400 . S
C477 C471 1.491 . S
C477 C476 1.400 . S
C477 C478 1.398 . S
C478 H466 0.950 . S
C478 C477 1.398 . S
C478 C479 1.391 . S
C479 H467 0.950 . S
C479 C475 1.393 . S
C479 C478 1.391 . S
H480 C488 0.950 . S
H481 C493 0.950 1_554 S
H482 C490 0.950 . S
H483 C492 0.950 . S
H484 C494 0.950 . S
H485 C496 0.951 . S
H486 C498 0.950 . S
H487 C499 0.950 . S
C488 H480 0.950 . S
C488 C489 1.386 . S
C488 C490 1.391 . S
C489 C488 1.386 . S
C489 C493 1.393 . S
C490 H482 0.950 . S
C490 C488 1.391 . S
C490 C491 1.400 . S
C491 C490 1.400 . S
C491 C492 1.398 . S
C491 C497 1.491 . S
C492 H483 0.950 . S
C492 C491 1.398 . S
C492 C493 1.391 . S
C493 H481 0.950 1_556 S
C493 C489 1.393 . S
C493 C492 1.391 . S
C494 H484 0.950 . S
C494 C495 1.386 . S
C494 C496 1.388 1_455 S
C495 C494 1.386 . S
C495 C499 1.393 . S
C496 H485 0.951 . S
C496 C494 1.388 1_655 S
C496 C497 1.402 . S
C497 C491 1.491 . S
C497 C496 1.402 . S
C497 C498 1.398 1_655 S
C498 H486 0.950 . S
C498 C497 1.398 1_455 S
C498 C499 1.391 . S
C499 H487 0.950 . S
C499 C495 1.393 . S
C499 C498 1.391 . S
H500 C508 0.951 . S
H501 C513 0.950 . S
H502 C510 0.950 . S
H503 C512 0.950 . S
H504 C514 0.950 . S
H505 C516 0.950 . S
H506 C518 0.950 . S
H507 C519 0.949 1_565 S
C508 H500 0.951 . S
C508 C509 1.385 1_565 S
C508 C510 1.392 . S
C509 C508 1.385 1_545 S
C509 C513 1.393 1_554 S
C510 H502 0.950 . S
C510 C508 1.392 . S
C510 C511 1.400 1_564 S
C511 C510 1.400 1_546 S
C511 C512 1.398 . S
C511 C517 1.491 . S
C512 H503 0.950 . S
C512 C511 1.398 . S
C512 C513 1.391 . S
C513 H501 0.950 . S
C513 C509 1.393 1_556 S
C513 C512 1.391 . S
C514 H504 0.950 . S
C514 C515 1.386 . S
C514 C516 1.391 . S
C515 C514 1.386 . S
C515 C519 1.393 . S
C516 H505 0.950 . S
C516 C514 1.391 . S
C516 C517 1.400 . S
C517 C511 1.491 . S
C517 C516 1.400 . S
C517 C518 1.398 1_545 S
C518 H506 0.950 . S
C518 C517 1.398 1_565 S
C518 C519 1.391 1_565 S
C519 H507 0.949 1_545 S
C519 C515 1.393 . S
C519 C518 1.391 1_545 S
H520 C528 0.950 . S
H521 C533 0.950 . S
H522 C530 0.950 . S
H523 C532 0.950 . S
H524 C534 0.950 . S
H525 C536 0.950 . S
H526 C538 0.950 . S
H527 C539 0.950 . S
C528 H520 0.950 . S
C528 C529 1.386 1_556 S
C528 C530 1.391 . S
C529 C528 1.386 1_554 S
C529 C533 1.393 . S
C530 H522 0.950 . S
C530 C528 1.391 . S
C530 C531 1.400 . S
C531 C530 1.400 . S
C531 C532 1.398 1_556 S
C531 C537 1.491 . S
C532 H523 0.950 . S
C532 C531 1.398 1_554 S
C532 C533 1.391 . S
C533 H521 0.950 . S
C533 C529 1.393 . S
C533 C532 1.391 . S
C534 H524 0.950 . S
C534 C535 1.386 . S
C534 C536 1.391 . S
C535 C534 1.386 . S
C535 C539 1.393 . S
C536 H525 0.950 . S
C536 C534 1.391 . S
C536 C537 1.400 . S
C537 C531 1.491 . S
C537 C536 1.400 . S
C537 C538 1.398 . S
C538 H526 0.950 . S
C538 C537 1.398 . S
C538 C539 1.391 . S
C539 H527 0.950 . S
C539 C535 1.393 . S
C539 C538 1.391 . S
H540 C548 0.950 1_556 S
H541 C553 0.950 . S
H542 C550 0.950 . S
H543 C552 0.950 . S
H544 C554 0.950 . S
H545 C556 0.950 1_554 S
H546 C558 0.950 . S
H547 C559 0.950 . S
C548 H540 0.950 1_554 S
C548 C549 1.386 . S
C548 C550 1.391 1_554 S
C549 C548 1.386 . S
C549 C553 1.393 . S
C550 H542 0.950 . S
C550 C548 1.391 1_556 S
C550 C551 1.400 . S
C551 C550 1.400 . S
C551 C552 1.398 1_556 S
C551 C557 1.491 . S
C552 H543 0.950 . S
C552 C551 1.398 1_554 S
C552 C553 1.391 . S
C553 H541 0.950 . S
C553 C549 1.393 . S
C553 C552 1.391 . S
C554 H544 0.950 . S
C554 C555 1.386 . S
C554 C556 1.391 . S
C555 C554 1.386 . S
C555 C559 1.393 . S
C556 H545 0.950 1_556 S
C556 C554 1.391 . S
C556 C557 1.400 . S
C557 C551 1.491 . S
C557 C556 1.400 . S
C557 C558 1.398 . S
C558 H546 0.950 . S
C558 C557 1.398 . S
C558 C559 1.391 . S
C559 H547 0.950 . S
C559 C555 1.393 . S
C559 C558 1.391 . S
H560 C568 0.950 . S
H561 C573 0.950 . S
H562 C570 0.950 . S
H563 C572 0.950 . S
H564 C574 0.950 . S
H565 C576 0.950 . S
H566 C578 0.950 . S
H567 C579 0.950 . S
C568 H560 0.950 . S
C568 C569 1.386 . S
C568 C570 1.391 . S
C569 C568 1.386 . S
C569 C573 1.393 . S
C570 H562 0.950 . S
C570 C568 1.391 . S
C570 C571 1.400 . S
C571 C570 1.400 . S
C571 C572 1.398 . S
C571 C577 1.491 . S
C572 H563 0.950 . S
C572 C571 1.398 . S
C572 C573 1.391 . S
C573 H561 0.950 . S
C573 C569 1.393 . S
C573 C572 1.391 . S
C574 H564 0.950 . S
C574 C575 1.386 . S
C574 C576 1.391 . S
C575 C574 1.386 . S
C575 C579 1.393 . S
C576 H565 0.950 . S
C576 C574 1.391 . S
C576 C577 1.400 . S
C577 C571 1.491 . S
C577 C576 1.400 . S
C577 C578 1.398 . S
C578 H566 0.950 . S
C578 C577 1.398 . S
C578 C579 1.391 . S
C579 H567 0.950 . S
C579 C575 1.393 . S
C579 C578 1.391 . S
H580 C588 0.950 . S
H581 C593 0.950 . S
H582 C590 0.950 . S
H583 C592 0.950 . S
H584 C594 0.950 . S
H585 C596 0.950 . S
H586 C598 0.950 . S
H587 C599 0.950 . S
C588 H580 0.950 . S
C588 C589 1.416 . S
C588 C590 1.391 . S
C589 C588 1.416 . S
C589 C593 1.362 1_545 S
C590 H582 0.950 . S
C590 C588 1.391 . S
C590 C591 1.400 . S
C591 C590 1.400 . S
C591 C592 1.398 1_545 S
C591 C597 1.491 . S
C592 H583 0.950 . S
C592 C591 1.398 1_565 S
C592 C593 1.391 . S
C593 H581 0.950 . S
C593 C589 1.362 1_565 S
C593 C592 1.391 . S
C594 H584 0.950 . S
C594 C595 1.386 1_565 S
C594 C596 1.391 1_556 S
C595 C594 1.386 1_545 S
C595 C599 1.393 . S
C596 H585 0.950 . S
C596 C594 1.391 1_554 S
C596 C597 1.400 1_565 S
C597 C591 1.491 . S
C597 C596 1.400 1_545 S
C597 C598 1.398 1_554 S
C598 H586 0.950 . S
C598 C597 1.398 1_556 S
C598 C599 1.391 . S
C599 H587 0.950 . S
C599 C595 1.393 . S
C599 C598 1.391 . S
H600 C608 0.950 . S
H601 C613 0.950 . S
H602 C610 0.950 . S
H603 C612 0.950 . S
H604 C614 0.950 . S
H605 C616 0.950 . S
H606 C618 0.950 . S
H607 C619 0.950 . S
C608 H600 0.950 . S
C608 C609 1.386 . S
C608 C610 1.391 . S
C609 C608 1.386 . S
C609 C613 1.393 . S
C610 H602 0.950 . S
C610 C608 1.391 . S
C610 C611 1.400 . S
C611 C610 1.400 . S
C611 C612 1.398 . S
C611 C617 1.491 . S
C612 H603 0.950 . S
C612 C611 1.398 . S
C612 C613 1.391 . S
C613 H601 0.950 . S
C613 C609 1.393 . S
C613 C612 1.391 . S
C614 H604 0.950 . S
C614 C615 1.386 . S
C614 C616 1.391 1_556 S
C615 C614 1.386 . S
C615 C619 1.393 . S
C616 H605 0.950 . S
C616 C614 1.391 1_554 S
C616 C617 1.400 . S
C617 C611 1.491 . S
C617 C616 1.400 . S
C617 C618 1.398 1_554 S
C618 H606 0.950 . S
C618 C617 1.398 1_556 S
C618 C619 1.391 . S
C619 H607 0.950 . S
C619 C615 1.393 . S
C619 C618 1.391 . S
H620 C628 0.950 . S
H621 C633 0.950 . S
H622 C630 0.950 1_556 S
H623 C632 0.950 . S
H624 C634 0.950 . S
H625 C636 0.950 1_554 S
H626 C638 0.950 . S
H627 C639 0.950 . S
C628 H620 0.950 . S
C628 C629 1.386 . S
C628 C630 1.391 . S
C629 C628 1.386 . S
C629 C633 1.393 . S
C630 H622 0.950 1_554 S
C630 C628 1.391 . S
C630 C631 1.400 . S
C631 C630 1.400 . S
C631 C632 1.398 . S
C631 C637 1.491 1_554 S
C632 H623 0.950 . S
C632 C631 1.398 . S
C632 C633 1.391 . S
C633 H621 0.950 . S
C633 C629 1.393 . S
C633 C632 1.391 . S
C634 H624 0.950 . S
C634 C635 1.386 . S
C634 C636 1.391 . S
C635 C634 1.386 . S
C635 C639 1.393 . S
C636 H625 0.950 1_556 S
C636 C634 1.391 . S
C636 C637 1.400 . S
C637 C631 1.491 1_556 S
C637 C636 1.400 . S
C637 C638 1.398 . S
C638 H626 0.950 . S
C638 C637 1.398 . S
C638 C639 1.391 . S
C639 H627 0.950 . S
C639 C635 1.393 . S
C639 C638 1.391 . S
H640 C648 0.950 1_455 S
H641 C653 0.950 . S
H642 C650 0.950 1_455 S
H643 C652 0.950 . S
H644 C654 0.950 . S
H645 C656 0.950 . S
H646 C658 0.950 . S
H647 C659 0.950 . S
C648 H640 0.950 1_655 S
C648 C649 1.386 . S
C648 C650 1.391 . S
C649 C648 1.386 . S
C649 C653 1.393 . S
C650 H642 0.950 1_655 S
C650 C648 1.391 . S
C650 C651 1.400 . S
C651 C650 1.400 . S
C651 C652 1.398 . S
C651 C657 1.491 . S
C652 H643 0.950 . S
C652 C651 1.398 . S
C652 C653 1.391 . S
C653 H641 0.950 . S
C653 C649 1.393 . S
C653 C652 1.391 . S
C654 H644 0.950 . S
C654 C655 1.386 . S
C654 C656 1.391 . S
C655 C654 1.386 . S
C655 C659 1.393 1_655 S
C656 H645 0.950 . S
C656 C654 1.391 . S
C656 C657 1.400 . S
C657 C651 1.491 . S
C657 C656 1.400 . S
C657 C658 1.398 1_655 S
C658 H646 0.950 . S
C658 C657 1.398 1_455 S
C658 C659 1.391 . S
C659 H647 0.950 . S
C659 C655 1.393 1_455 S
C659 C658 1.391 . S
H660 C668 0.950 . S
H661 C673 0.950 . S
H662 C670 0.950 . S
H663 C672 0.950 . S
H664 C674 0.950 . S
H665 C676 0.950 . S
H666 C678 0.950 . S
H667 C679 0.950 . S
C668 H660 0.950 . S
C668 C669 1.386 . S
C668 C670 1.391 . S
C669 C668 1.386 . S
C669 C673 1.392 1_545 S
C670 H662 0.950 . S
C670 C668 1.391 . S
C670 C671 1.400 1_545 S
C671 C670 1.400 1_565 S
C671 C672 1.398 . S
C671 C677 1.491 . S
C672 H663 0.950 . S
C672 C671 1.398 . S
C672 C673 1.391 . S
C673 H661 0.950 . S
C673 C669 1.392 1_565 S
C673 C672 1.391 . S
C674 H664 0.950 . S
C674 C675 1.386 . S
C674 C676 1.391 . S
C675 C674 1.386 . S
C675 C679 1.393 1_565 S
C676 H665 0.950 . S
C676 C674 1.391 . S
C676 C677 1.400 . S
C677 C671 1.491 . S
C677 C676 1.400 . S
C677 C678 1.398 1_565 S
C678 H666 0.950 . S
C678 C677 1.398 1_545 S
C678 C679 1.391 . S
C679 H667 0.950 . S
C679 C675 1.393 1_545 S
C679 C678 1.391 . S
H680 C688 0.950 . S
H681 C693 0.950 . S
H682 C690 0.950 . S
H683 C692 0.950 . S
H684 C694 0.950 . S
H685 C696 0.950 . S
H686 C698 0.950 . S
H687 C699 0.950 . S
C688 H680 0.950 . S
C688 C689 1.386 . S
C688 C690 1.391 . S
C689 C688 1.386 . S
C689 C693 1.393 . S
C690 H682 0.950 . S
C690 C688 1.391 . S
C690 C691 1.400 . S
C691 C690 1.400 . S
C691 C692 1.398 . S
C691 C697 1.491 . S
C692 H683 0.950 . S
C692 C691 1.398 . S
C692 C693 1.391 . S
C693 H681 0.950 . S
C693 C689 1.393 . S
C693 C692 1.391 . S
C694 H684 0.950 . S
C694 C695 1.386 . S
C694 C696 1.391 . S
C695 C694 1.386 . S
C695 C699 1.393 . S
C696 H685 0.950 . S
C696 C694 1.391 . S
C696 C697 1.400 . S
C697 C691 1.491 . S
C697 C696 1.400 . S
C697 C698 1.398 . S
C698 H686 0.950 . S
C698 C697 1.398 . S
C698 C699 1.391 . S
C699 H687 0.950 . S
C699 C695 1.393 . S
C699 C698 1.391 . S
H700 C708 0.950 . S
H701 C713 0.950 . S
H702 C710 0.950 . S
H703 C712 0.950 . S
H704 C714 0.950 . S
H705 C716 0.950 . S
H706 C718 0.950 . S
H707 C719 0.950 . S
C708 H700 0.950 . S
C708 C709 1.386 . S
C708 C710 1.391 . S
C709 C708 1.386 . S
C709 C713 1.393 . S
C710 H702 0.950 . S
C710 C708 1.391 . S
C710 C711 1.400 . S
C711 C710 1.400 . S
C711 C712 1.398 . S
C711 C717 1.491 . S
C712 H703 0.950 . S
C712 C711 1.398 . S
C712 C713 1.391 . S
C713 H701 0.950 . S
C713 C709 1.393 . S
C713 C712 1.391 . S
C714 H704 0.950 . S
C714 C715 1.386 . S
C714 C716 1.391 . S
C715 C714 1.386 . S
C715 C719 1.393 . S
C716 H705 0.950 . S
C716 C714 1.391 . S
C716 C717 1.400 . S
C717 C711 1.491 . S
C717 C716 1.400 . S
C717 C718 1.398 . S
C718 H706 0.950 . S
C718 C717 1.398 . S
C718 C719 1.391 . S
C719 H707 0.950 . S
C719 C715 1.393 . S
C719 C718 1.391 . S
C249 C82 1.758 . S
C255 C121 1.873 . S
C275 C142 1.545 . S
C269 C95 1.468 . S
C295 C176 1.369 . S
C289 C56 1.252 . S
C315 C210 1.546 . S
C309 C69 1.494 . S
C335 C112 1.872 . S
C329 C30 1.749 1_556 S
C349 C43 1.454 . S
C355 C151 1.550 . S
C369 C4 1.258 . S
C375 C185 1.369 . S
C389 C17 1.455 . S
C395 C219 1.547 . S
C415 C133 0.510 . S
C409 C74 0.577 . S
C435 C138 0.974 . S
C429 C87 0.954 1_565 S
C455 C172 0.913 . S
C449 C100 0.897 . S
C469 C61 0.427 . S
C475 C206 0.401 . S
C489 C22 0.598 . S
C495 C104 0.524 . S
C515 C167 0.976 . S
C509 C35 0.963 . S
C535 C201 0.910 . S
C529 C48 0.890 . S
C549 C9 0.404 . S
C555 C235 0.401 . S
C569 C73 1.303 . S
C575 C117 1.324 . S
C589 C86 1.706 . S
C595 C146 1.757 . S
C615 C180 1.547 . S
C609 C99 1.511 . S
C635 C214 1.611 . S
C629 C60 1.558 . S
C649 C21 1.279 . S
C655 C108 1.318 . S
C675 C155 1.757 . S
C669 C34 1.708 . S
C695 C189 1.548 . S
C689 C47 1.509 . S
C709 C8 1.561 . S
C715 C223 1.611 . S
