# Generated by pormake.
# Topology eea, (3,6)-cn, num edge types: 1
# Building blocks:
#     Node 0, Type 0, BuildingBlock: QEWDON_clean_linker_0, # of connection points: 3
#     Node 1, Type 0, BuildingBlock: QEWDON_clean_linker_0, # of connection points: 3
#     Node 2, Type 0, BuildingBlock: QEWDON_clean_linker_0, # of connection points: 3
#     Node 3, Type 0, BuildingBlock: QEWDON_clean_linker_0, # of connection points: 3
#     Node 4, Type 0, BuildingBlock: QEWDON_clean_linker_0, # of connection points: 3
#     Node 5, Type 0, BuildingBlock: QEWDON_clean_linker_0, # of connection points: 3
#     Node 6, Type 0, BuildingBlock: QEWDON_clean_linker_0, # of connection points: 3
#     Node 7, Type 0, BuildingBlock: QEWDON_clean_linker_0, # of connection points: 3
#     Node 8, Type 0, BuildingBlock: QEWDON_clean_linker_0, # of connection points: 3
#     Node 9, Type 0, BuildingBlock: QEWDON_clean_linker_0, # of connection points: 3
#     Node 10, Type 0, BuildingBlock: QEWDON_clean_linker_0, # of connection points: 3
#     Node 11, Type 0, BuildingBlock: QEWDON_clean_linker_0, # of connection points: 3
#     Node 12, Type 0, BuildingBlock: QEWDON_clean_linker_0, # of connection points: 3
#     Node 13, Type 0, BuildingBlock: QEWDON_clean_linker_0, # of connection points: 3
#     Node 14, Type 0, BuildingBlock: QEWDON_clean_linker_0, # of connection points: 3
#     Node 15, Type 0, BuildingBlock: QEWDON_clean_linker_0, # of connection points: 3
#     Node 16, Type 0, BuildingBlock: QEWDON_clean_linker_0, # of connection points: 3
#     Node 17, Type 0, BuildingBlock: QEWDON_clean_linker_0, # of connection points: 3
#     Node 18, Type 1, BuildingBlock: KUMBUR_clean_sbu_0, # of connection points: 6
#     Node 19, Type 1, BuildingBlock: KUMBUR_clean_sbu_0, # of connection points: 6
#     Node 20, Type 1, BuildingBlock: KUMBUR_clean_sbu_0, # of connection points: 6
#     Node 21, Type 1, BuildingBlock: KUMBUR_clean_sbu_0, # of connection points: 6
#     Node 22, Type 1, BuildingBlock: KUMBUR_clean_sbu_0, # of connection points: 6
#     Node 23, Type 1, BuildingBlock: KUMBUR_clean_sbu_0, # of connection points: 6
#     Node 24, Type 1, BuildingBlock: KUMBUR_clean_sbu_0, # of connection points: 6
#     Node 25, Type 1, BuildingBlock: KUMBUR_clean_sbu_0, # of connection points: 6
#     Node 26, Type 1, BuildingBlock: KUMBUR_clean_sbu_0, # of connection points: 6
#     Edge 27, Type (0, 1), BuildingBlock: XUDNAN_clean_linker_2, # of connection points: 2
#     Edge 28, Type (0, 1), BuildingBlock: XUDNAN_clean_linker_2, # of connection points: 2
#     Edge 29, Type (0, 1), BuildingBlock: XUDNAN_clean_linker_2, # of connection points: 2
#     Edge 30, Type (0, 1), BuildingBlock: XUDNAN_clean_linker_2, # of connection points: 2
#     Edge 31, Type (0, 1), BuildingBlock: XUDNAN_clean_linker_2, # of connection points: 2
#     Edge 32, Type (0, 1), BuildingBlock: XUDNAN_clean_linker_2, # of connection points: 2
#     Edge 33, Type (0, 1), BuildingBlock: XUDNAN_clean_linker_2, # of connection points: 2
#     Edge 34, Type (0, 1), BuildingBlock: XUDNAN_clean_linker_2, # of connection points: 2
#     Edge 35, Type (0, 1), BuildingBlock: XUDNAN_clean_linker_2, # of connection points: 2
#     Edge 36, Type (0, 1), BuildingBlock: XUDNAN_clean_linker_2, # of connection points: 2
#     Edge 37, Type (0, 1), BuildingBlock: XUDNAN_clean_linker_2, # of connection points: 2
#     Edge 38, Type (0, 1), BuildingBlock: XUDNAN_clean_linker_2, # of connection points: 2
#     Edge 39, Type (0, 1), BuildingBlock: XUDNAN_clean_linker_2, # of connection points: 2
#     Edge 40, Type (0, 1), BuildingBlock: XUDNAN_clean_linker_2, # of connection points: 2
#     Edge 41, Type (0, 1), BuildingBlock: XUDNAN_clean_linker_2, # of connection points: 2
#     Edge 42, Type (0, 1), BuildingBlock: XUDNAN_clean_linker_2, # of connection points: 2
#     Edge 43, Type (0, 1), BuildingBlock: XUDNAN_clean_linker_2, # of connection points: 2
#     Edge 44, Type (0, 1), BuildingBlock: XUDNAN_clean_linker_2, # of connection points: 2
#     Edge 45, Type (0, 1), BuildingBlock: XUDNAN_clean_linker_2, # of connection points: 2
#     Edge 46, Type (0, 1), BuildingBlock: XUDNAN_clean_linker_2, # of connection points: 2
#     Edge 47, Type (0, 1), BuildingBlock: XUDNAN_clean_linker_2, # of connection points: 2
#     Edge 48, Type (0, 1), BuildingBlock: XUDNAN_clean_linker_2, # of connection points: 2
#     Edge 49, Type (0, 1), BuildingBlock: XUDNAN_clean_linker_2, # of connection points: 2
#     Edge 50, Type (0, 1), BuildingBlock: XUDNAN_clean_linker_2, # of connection points: 2
#     Edge 51, Type (0, 1), BuildingBlock: XUDNAN_clean_linker_2, # of connection points: 2
#     Edge 52, Type (0, 1), BuildingBlock: XUDNAN_clean_linker_2, # of connection points: 2
#     Edge 53, Type (0, 1), BuildingBlock: XUDNAN_clean_linker_2, # of connection points: 2
#     Edge 54, Type (0, 1), BuildingBlock: XUDNAN_clean_linker_2, # of connection points: 2
#     Edge 55, Type (0, 1), BuildingBlock: XUDNAN_clean_linker_2, # of connection points: 2
#     Edge 56, Type (0, 1), BuildingBlock: XUDNAN_clean_linker_2, # of connection points: 2
#     Edge 57, Type (0, 1), BuildingBlock: XUDNAN_clean_linker_2, # of connection points: 2
#     Edge 58, Type (0, 1), BuildingBlock: XUDNAN_clean_linker_2, # of connection points: 2
#     Edge 59, Type (0, 1), BuildingBlock: XUDNAN_clean_linker_2, # of connection points: 2
#     Edge 60, Type (0, 1), BuildingBlock: XUDNAN_clean_linker_2, # of connection points: 2
#     Edge 61, Type (0, 1), BuildingBlock: XUDNAN_clean_linker_2, # of connection points: 2
#     Edge 62, Type (0, 1), BuildingBlock: XUDNAN_clean_linker_2, # of connection points: 2
#     Edge 63, Type (0, 1), BuildingBlock: XUDNAN_clean_linker_2, # of connection points: 2
#     Edge 64, Type (0, 1), BuildingBlock: XUDNAN_clean_linker_2, # of connection points: 2
#     Edge 65, Type (0, 1), BuildingBlock: XUDNAN_clean_linker_2, # of connection points: 2
#     Edge 66, Type (0, 1), BuildingBlock: XUDNAN_clean_linker_2, # of connection points: 2
#     Edge 67, Type (0, 1), BuildingBlock: XUDNAN_clean_linker_2, # of connection points: 2
#     Edge 68, Type (0, 1), BuildingBlock: XUDNAN_clean_linker_2, # of connection points: 2
#     Edge 69, Type (0, 1), BuildingBlock: XUDNAN_clean_linker_2, # of connection points: 2
#     Edge 70, Type (0, 1), BuildingBlock: XUDNAN_clean_linker_2, # of connection points: 2
#     Edge 71, Type (0, 1), BuildingBlock: XUDNAN_clean_linker_2, # of connection points: 2
#     Edge 72, Type (0, 1), BuildingBlock: XUDNAN_clean_linker_2, # of connection points: 2
#     Edge 73, Type (0, 1), BuildingBlock: XUDNAN_clean_linker_2, # of connection points: 2
#     Edge 74, Type (0, 1), BuildingBlock: XUDNAN_clean_linker_2, # of connection points: 2
#     Edge 75, Type (0, 1), BuildingBlock: XUDNAN_clean_linker_2, # of connection points: 2
#     Edge 76, Type (0, 1), BuildingBlock: XUDNAN_clean_linker_2, # of connection points: 2
#     Edge 77, Type (0, 1), BuildingBlock: XUDNAN_clean_linker_2, # of connection points: 2
#     Edge 78, Type (0, 1), BuildingBlock: XUDNAN_clean_linker_2, # of connection points: 2
#     Edge 79, Type (0, 1), BuildingBlock: XUDNAN_clean_linker_2, # of connection points: 2
#     Edge 80, Type (0, 1), BuildingBlock: XUDNAN_clean_linker_2, # of connection points: 2
# Relax obj value: 0.044
# Max RMSD: 0.209
# Mean RMSD: 0.150
data_MOF--net-eea--node1-KUMBUR_clean_sbu_0--node2-QEWDON_clean_linker_0--edge1-XUDNAN_clean_linker_2
_symmetry_space_group_name_H-M    P1
_symmetry_Int_Tables_number       1
_symmetry_cell_setting            triclinic
loop_
_symmetry_equiv_pos_as_xyz
'x, y, z'
_cell_length_a     57.423789
_cell_length_b     58.974797
_cell_length_c     63.440885
_cell_angle_alpha  90.124878
_cell_angle_beta   89.931613
_cell_angle_gamma 119.99005
loop_
_atom_site_label
_atom_site_type_symbol
_atom_site_fract_x
_atom_site_fract_y
_atom_site_fract_z
_atom_type_partial_charge
H0 H 0.21091 0.12512 0.43634 0.0
C1 C 0.20954 0.10689 0.4314 0.0
C2 C 0.22611 0.09873 0.44098 0.0
C3 C 0.1899 0.09069 0.41665 0.0
H4 H 0.23682 0.06871 0.44237 0.0
C5 C 0.22364 0.0747 0.43516 0.0
C6 C 0.2043 0.05826 0.4204 0.0
C7 C 0.18758 0.06648 0.41107 0.0
C8 C 0.1702 0.09795 0.40874 0.0
H9 H 0.17221 0.05371 0.39999 0.0
C10 C 0.17864 0.12355 0.40169 0.0
C11 C 0.15964 0.13077 0.39579 0.0
C12 C 0.14254 0.07957 0.40938 0.0
H13 H 0.13545 0.05984 0.41497 0.0
C14 C 0.12369 0.08671 0.40347 0.0
H15 H 0.1999 0.13791 0.40101 0.0
C16 C 0.13213 0.11221 0.39686 0.0
H17 H 0.1172 0.11739 0.39232 0.0
H18 H 0.10244 0.07248 0.40419 0.0
H19 H 0.90437 0.09905 0.42541 0.0
C20 C 0.92004 0.11771 0.41945 0.0
C21 C 0.92561 0.14099 0.42983 0.0
C22 C 0.93511 0.11808 0.40189 0.0
H23 H 0.95101 0.18296 0.43012 0.0
C24 C 0.94667 0.16494 0.42226 0.0
C25 C 0.96193 0.16586 0.40447 0.0
C26 C 0.95612 0.14221 0.39456 0.0
C27 C 0.9294 0.09304 0.3918 0.0
H28 H 0.96745 0.14256 0.38077 0.0
C29 C 0.90287 0.0737 0.38657 0.0
C30 C 0.8975 0.04935 0.37831 0.0
C31 C 0.95047 0.08789 0.38825 0.0
H32 H 0.97099 0.10232 0.39223 0.0
C33 C 0.94516 0.06375 0.38012 0.0
H34 H 0.88644 0.07749 0.38905 0.0
C35 C 0.91885 0.04451 0.37532 0.0
H36 H 0.91519 0.02596 0.36893 0.0
H37 H 0.96151 0.05988 0.37762 0.0
H38 H 0.92904 0.81307 0.42614 0.0
C39 C 0.91085 0.80912 0.41796 0.0
C40 C 0.88547 0.79196 0.42695 0.0
C41 C 0.91297 0.82237 0.39896 0.0
H42 H 0.84239 0.77428 0.42245 0.0
C43 C 0.86214 0.78779 0.41623 0.0
C44 C 0.86392 0.80129 0.39761 0.0
C45 C 0.88926 0.81846 0.38906 0.0
C46 C 0.93981 0.84126 0.38983 0.0
H47 H 0.89041 0.8286 0.37452 0.0
C48 C 0.96089 0.83545 0.3886 0.0
C49 C 0.98578 0.85316 0.37901 0.0
C50 C 0.94421 0.86532 0.38186 0.0
H51 H 0.92873 0.87066 0.38291 0.0
C52 C 0.96862 0.88285 0.3725 0.0
H53 H 0.95775 0.81708 0.39491 0.0
C54 C 0.98912 0.87681 0.3709 0.0
H55 H 1.00745 0.89061 0.3629 0.0
H56 H 0.9716 0.90118 0.36625 0.0
H57 H 0.12324 0.20429 0.61 0.0
C58 C 0.10787 0.20705 0.61747 0.0
C59 C 0.09533 0.21828 0.60578 0.0
C60 C 0.09953 0.19809 0.63828 0.0
H61 H 0.06543 0.23021 0.60639 0.0
C62 C 0.07486 0.22123 0.61524 0.0
C63 C 0.06631 0.21286 0.63591 0.0
C64 C 0.07864 0.20125 0.64733 0.0
C65 C 0.1113 0.1841 0.65021 0.0
H66 H 0.07226 0.19522 0.66341 0.0
C67 C 0.13883 0.19106 0.6486 0.0
C68 C 0.1492 0.17741 0.66026 0.0
C69 C 0.0944 0.16298 0.66332 0.0
H70 H 0.07314 0.15636 0.66454 0.0
C71 C 0.10444 0.14977 0.67495 0.0
H72 H 0.15209 0.20703 0.63839 0.0
C73 C 0.13147 0.15698 0.67362 0.0
H74 H 0.13845 0.14661 0.68345 0.0
H75 H 0.09113 0.1338 0.68515 0.0
H76 H 0.82716 0.92766 0.59118 0.0
C77 C 0.82882 0.91292 0.60019 0.0
C78 C 0.81301 0.88636 0.59482 0.0
C79 C 0.84817 0.92085 0.61614 0.0
H80 H 0.80265 0.84704 0.60279 0.0
C81 C 0.81578 0.86753 0.60645 0.0
C82 C 0.83502 0.87501 0.62274 0.0
C83 C 0.85153 0.90198 0.62705 0.0
C84 C 0.8663 0.9491 0.62026 0.0
H85 H 0.86734 0.9086 0.63873 0.0
C86 C 0.85602 0.9652 0.62691 0.0
C87 C 0.8734 0.99224 0.6301 0.0
C88 C 0.89404 0.96019 0.61694 0.0
H89 H 0.90231 0.94814 0.61177 0.0
C90 C 0.91126 0.987 0.61983 0.0
H91 H 0.83462 0.9567 0.62962 0.0
C92 C 0.90105 1.00297 0.62629 0.0
H93 H 0.91487 0.02365 0.62877 0.0
H94 H 0.93262 0.99542 0.61711 0.0
H95 H 0.11528 0.8817 0.59864 0.0
C96 C 0.12899 0.89974 0.60671 0.0
C97 C 0.15678 0.91237 0.60231 0.0
C98 C 0.1186 0.91072 0.62093 0.0
H99 H 0.1956 0.94538 0.60998 0.0
C100 C 0.17425 0.93583 0.61311 0.0
C101 C 0.16442 0.94719 0.62764 0.0
C102 C 0.13637 0.93447 0.63108 0.0
C103 C 0.08897 0.8992 0.62347 0.0
H104 H 0.128 0.94325 0.64139 0.0
C105 C 0.07192 0.87302 0.63008 0.0
C106 C 0.04377 0.8628 0.63232 0.0
C107 C 0.07765 0.91493 0.61899 0.0
H108 H 0.0902 0.93496 0.61377 0.0
C109 C 0.05006 0.90493 0.6207 0.0
H110 H 0.08071 0.86102 0.6339 0.0
C111 C 0.03326 0.87918 0.62716 0.0
H112 H 1.01187 0.87207 0.62776 0.0
H113 H 0.04157 0.91717 0.61685 0.0
H114 H 0.88678 0.45889 0.77361 0.0
C115 C 0.88315 0.4408 0.76623 0.0
C116 C 0.89811 0.42905 0.77247 0.0
C117 C 0.86247 0.42856 0.75146 0.0
H118 H 0.90326 0.39556 0.76928 0.0
C119 C 0.89215 0.40474 0.76375 0.0
C120 C 0.87208 0.39253 0.74811 0.0
C121 C 0.85769 0.40513 0.742 0.0
C122 C 0.84357 0.43835 0.74781 0.0
H123 H 0.84245 0.39694 0.72987 0.0
C124 C 0.85212 0.46322 0.73906 0.0
C125 C 0.83366 0.47217 0.73638 0.0
C126 C 0.81655 0.42254 0.75373 0.0
H127 H 0.80962 0.40337 0.76054 0.0
C128 C 0.79836 0.43146 0.7513 0.0
H129 H 0.87292 0.47547 0.73435 0.0
C130 C 0.80683 0.45613 0.74275 0.0
H131 H 0.79224 0.4625 0.74071 0.0
H132 H 0.77761 0.41919 0.75601 0.0
H133 H 0.57842 0.43459 0.75389 0.0
C134 C 0.59419 0.45315 0.74795 0.0
C135 C 0.60402 0.47551 0.76091 0.0
C136 C 0.60459 0.45463 0.72749 0.0
H137 H 0.6333 0.51667 0.76341 0.0
C138 C 0.62497 0.49951 0.75335 0.0
C139 C 0.6358 0.50167 0.73312 0.0
C140 C 0.62542 0.47925 0.72027 0.0
C141 C 0.59411 0.43064 0.71372 0.0
H142 H 0.63321 0.48134 0.70441 0.0
C143 C 0.56708 0.4097 0.71487 0.0
C144 C 0.55762 0.38743 0.70153 0.0
C145 C 0.6115 0.42853 0.6992 0.0
H146 H 0.63253 0.44335 0.69826 0.0
C147 C 0.6022 0.40713 0.68569 0.0
H148 H 0.55345 0.4107 0.72609 0.0
C149 C 0.57559 0.38698 0.68663 0.0
H150 H 0.56917 0.37109 0.67544 0.0
H151 H 0.61579 0.40614 0.67437 0.0
H152 H 0.57472 0.10429 0.75576 0.0
C153 C 0.56077 0.11032 0.75026 0.0
C154 C 0.54071 0.10877 0.76398 0.0
C155 C 0.56176 0.11771 0.72909 0.0
H156 H 0.50638 0.11436 0.76687 0.0
C157 C 0.52171 0.11527 0.75635 0.0
C158 C 0.52295 0.12379 0.73544 0.0
C159 C 0.54303 0.12486 0.72194 0.0
C160 C 0.57981 0.11449 0.71387 0.0
H161 H 0.54364 0.13064 0.70565 0.0
C162 C 0.60768 0.12481 0.71768 0.0
C163 C 0.62352 0.11954 0.7035 0.0
C164 C 0.56835 0.09927 0.69569 0.0
H165 H 0.54709 0.09086 0.69245 0.0
C166 C 0.58388 0.09397 0.68183 0.0
H167 H 0.61692 0.13673 0.73153 0.0
C168 C 0.61116 0.10386 0.68572 0.0
H169 H 0.62282 0.09968 0.67455 0.0
H170 H 0.57469 0.08204 0.66799 0.0
H171 H 0.80163 0.55607 0.93869 0.0
C172 C 0.78355 0.55417 0.9457 0.0
C173 C 0.77087 0.56709 0.93653 0.0
C174 C 0.77255 0.53816 0.96362 0.0
H175 H 0.73562 0.57144 0.9378 0.0
C176 C 0.74663 0.56334 0.94552 0.0
C177 C 0.73564 0.54819 0.96376 0.0
C178 C 0.74934 0.53644 0.97294 0.0
C179 C 0.78322 0.52109 0.97172 0.0
H180 H 0.74153 0.52536 0.98735 0.0
C181 C 0.81107 0.52911 0.97246 0.0
C182 C 0.8199 0.51222 0.98078 0.0
C183 C 0.76459 0.4957 0.97873 0.0
H184 H 0.74315 0.48825 0.97766 0.0
C185 C 0.77308 0.47935 0.98717 0.0
H186 H 0.82566 0.54833 0.96673 0.0
C187 C 0.8003 0.48756 0.98849 0.0
H188 H 0.80585 0.47443 0.99589 0.0
H189 H 0.75838 0.46013 0.99287 0.0
H190 H 0.48332 0.25562 0.94387 0.0
C191 C 0.47912 0.23687 0.95009 0.0
C192 C 0.4687 0.21509 0.93651 0.0
C193 C 0.48525 0.23462 0.97126 0.0
H194 H 0.45705 0.17447 0.93343 0.0
C195 C 0.46446 0.19099 0.94413 0.0
C196 C 0.46971 0.188 0.96523 0.0
C197 C 0.47965 0.20981 0.9787 0.0
C198 C 0.49846 0.258 0.98554 0.0
H199 H 0.48285 0.20734 0.99515 0.0
C200 C 0.49313 0.27895 0.98411 0.0
C201 C 0.50551 0.30057 0.99809 0.0
C202 C 0.51691 0.25946 1.00085 0.0
H203 H 0.52251 0.24449 1.00199 0.0
C204 C 0.52866 0.28032 0.01492 0.0
H205 H 0.47943 0.27841 0.97218 0.0
C206 C 0.52283 0.30051 0.01377 0.0
H207 H 0.5319 0.31602 0.02536 0.0
H208 H 0.54241 0.28085 0.02684 0.0
H209 H 0.75685 0.22654 0.93955 0.0
C210 C 0.77568 0.24045 0.94691 0.0
C211 C 0.79998 0.24932 0.93576 0.0
C212 C 0.77578 0.25016 0.96728 0.0
H213 H 0.84286 0.27614 0.93586 0.0
C214 C 0.82429 0.2686 0.94473 0.0
C215 C 0.82478 0.27848 0.9649 0.0
C216 C 0.80069 0.26849 0.97628 0.0
C217 C 0.75029 0.24353 0.9787 0.0
H218 H 0.80132 0.27597 0.99201 0.0
C219 C 0.72714 0.21815 0.9784 0.0
C220 C 0.70376 0.21309 0.98977 0.0
C221 C 0.74923 0.26349 0.99018 0.0
H222 H 0.76592 0.2834 0.99012 0.0
C223 C 0.72667 0.25832 1.00188 0.0
H224 H 0.72722 0.2026 0.96934 0.0
C225 C 0.70429 0.23338 1.00188 0.0
H226 H 0.68714 0.23006 0.01133 0.0
H227 H 0.72645 0.27382 0.0109 0.0
H228 H 0.57624 0.79902 0.10958 0.0
C229 C 0.57194 0.78135 0.10113 0.0
C230 C 0.58806 0.76983 0.10434 0.0
C231 C 0.54976 0.76977 0.08746 0.0
H232 H 0.59438 0.73798 0.0953 0.0
C233 C 0.58208 0.74691 0.09302 0.0
C234 C 0.56031 0.73528 0.07889 0.0
C235 C 0.54411 0.7468 0.0765 0.0
C236 C 0.53108 0.78028 0.08559 0.0
H237 H 0.52669 0.73772 0.06626 0.0
C238 C 0.54027 0.80677 0.08052 0.0
C239 C 0.52173 0.81566 0.07763 0.0
C240 C 0.5034 0.76317 0.08844 0.0
H241 H 0.49585 0.74285 0.09258 0.0
C242 C 0.48516 0.77203 0.08612 0.0
H243 H 0.56155 0.82007 0.07806 0.0
C244 C 0.49417 0.79798 0.08068 0.0
H245 H 0.4795 0.8043 0.07899 0.0
H246 H 0.4639 0.75866 0.08845 0.0
H247 H 0.23845 0.76155 0.10371 0.0
C248 C 0.256 0.7783 0.0971 0.0
C249 C 0.26589 0.80327 0.10642 0.0
C250 C 0.26919 0.77471 0.0798 0.0
H251 H 0.29795 0.84375 0.10579 0.0
C252 C 0.28981 0.82465 0.0985 0.0
C253 C 0.3033 0.82139 0.08123 0.0
C254 C 0.29217 0.79666 0.07165 0.0
C255 C 0.26025 0.74824 0.07041 0.0
H256 H 0.30173 0.7945 0.05767 0.0
C257 C 0.23278 0.72897 0.06816 0.0
C258 C 0.22507 0.70498 0.05753 0.0
C259 C 0.27985 0.74252 0.06294 0.0
H260 H 0.30108 0.75612 0.06518 0.0
C261 C 0.27254 0.7194 0.05217 0.0
H262 H 0.21763 0.73286 0.07448 0.0
C263 C 0.24557 0.70112 0.04906 0.0
H264 H 0.24107 0.68403 0.03976 0.0
H265 H 0.28793 0.71574 0.04596 0.0
H266 H 0.25947 0.47593 0.0926 0.0
C267 C 0.24122 0.47434 0.08628 0.0
C268 C 0.21705 0.46101 0.09793 0.0
C269 C 0.24202 0.48589 0.0666 0.0
H270 H 0.17493 0.44984 0.09834 0.0
C271 C 0.19356 0.45936 0.0895 0.0
C272 C 0.19363 0.47022 0.06986 0.0
C273 C 0.21785 0.48349 0.05854 0.0
C274 C 0.26803 0.50129 0.05471 0.0
H275 H 0.21762 0.49138 0.04319 0.0
C276 C 0.28822 0.49402 0.05416 0.0
C277 C 0.31235 0.50882 0.04242 0.0
C278 C 0.27277 0.52389 0.04371 0.0
H279 H 0.2584 0.53068 0.04419 0.0
C280 C 0.29617 0.5383 0.03203 0.0
H281 H 0.28507 0.47688 0.06275 0.0
C282 C 0.31559 0.53079 0.03119 0.0
H283 H 0.33305 0.54217 0.02137 0.0
H284 H 0.29923 0.55543 0.02344 0.0
H285 H 0.46833 0.87969 0.28015 0.0
C286 C 0.45076 0.87959 0.28646 0.0
C287 C 0.43944 0.89252 0.27535 0.0
C288 C 0.43894 0.86569 0.30516 0.0
H289 H 0.40628 0.90022 0.27451 0.0
C290 C 0.41602 0.89158 0.28335 0.0
C291 C 0.40388 0.87772 0.3019 0.0
C292 C 0.41585 0.86557 0.3129 0.0
C293 C 0.44895 0.84943 0.31578 0.0
H294 H 0.40646 0.85536 0.32738 0.0
C295 C 0.47657 0.8568 0.31621 0.0
C296 C 0.48522 0.84092 0.32644 0.0
C297 C 0.43029 0.82565 0.32539 0.0
H298 H 0.40889 0.81848 0.32467 0.0
C299 C 0.43874 0.81041 0.33595 0.0
H300 H 0.4912 0.8747 0.30856 0.0
C301 C 0.46587 0.81804 0.3367 0.0
H302 H 0.47161 0.80585 0.34545 0.0
H303 H 0.42411 0.79245 0.34357 0.0
H304 H 0.14761 0.59072 0.27066 0.0
C305 C 0.14913 0.57513 0.27837 0.0
C306 C 0.13663 0.54993 0.26938 0.0
C307 C 0.16507 0.5808 0.29647 0.0
H308 H 0.13151 0.51118 0.2715 0.0
C309 C 0.14045 0.53035 0.27874 0.0
C310 C 0.15619 0.53561 0.29707 0.0
C311 C 0.1677 0.56079 0.30605 0.0
C312 C 0.18135 0.60813 0.30422 0.0
H313 H 0.17923 0.56519 0.32048 0.0
C314 C 0.17005 0.62436 0.30695 0.0
C315 C 0.18623 0.65051 0.31361 0.0
C316 C 0.20888 0.61832 0.30833 0.0
H317 H 0.21816 0.60639 0.3061 0.0
C318 C 0.22488 0.64417 0.31493 0.0
H319 H 0.14886 0.61674 0.30386 0.0
C320 C 0.2137 0.66021 0.31752 0.0
H321 H 0.2265 0.68016 0.32286 0.0
H322 H 0.24605 0.65181 0.31801 0.0
H323 H 0.43173 0.55203 0.27707 0.0
C324 C 0.44945 0.56807 0.28414 0.0
C325 C 0.47369 0.58061 0.27247 0.0
C326 C 0.44773 0.57672 0.30449 0.0
H327 H 0.51386 0.61443 0.27164 0.0
C328 C 0.49564 0.60372 0.28074 0.0
C329 C 0.49409 0.6133 0.3007 0.0
C330 C 0.47101 0.59818 0.31297 0.0
C331 C 0.42152 0.56534 0.31639 0.0
H332 H 0.47096 0.60391 0.32916 0.0
C333 C 0.40005 0.5393 0.31325 0.0
C334 C 0.3754 0.53022 0.32404 0.0
C335 C 0.41734 0.58152 0.33056 0.0
H336 H 0.43217 0.60194 0.33276 0.0
C337 C 0.39351 0.57207 0.34184 0.0
H338 H 0.40205 0.52635 0.30224 0.0
C339 C 0.37272 0.54667 0.33864 0.0
H340 H 0.35403 0.54003 0.34714 0.0
H341 H 0.39088 0.5848 0.3527 0.0
Tb342 Tb 0.50102 0.99587 0.99631 0.0
C343 C 0.53545 0.0798 0.06402 0.0
C344 C 0.58395 0.10148 0.06319 0.0
C345 C 0.56182 0.12609 0.07257 0.0
C346 C 0.55859 0.07896 0.06024 0.0
C347 C 0.53668 0.10317 0.07071 0.0
C348 C 0.58545 0.12524 0.06883 0.0
C349 C 0.48842 0.07887 0.07497 0.0
N350 N 0.51168 0.0572 0.06216 0.0
C351 C 0.48831 0.05615 0.06838 0.0
C352 C 0.51269 0.10257 0.07589 0.0
Tb353 Tb 0.5133 0.02143 0.0498 0.0
N354 N 0.55617 0.0556 0.05494 0.0
C355 C 0.57852 0.05301 0.05391 0.0
C356 C 0.60693 0.09921 0.06113 0.0
C357 C 0.60417 0.07475 0.05685 0.0
H358 H 0.46943 0.03797 0.06759 0.0
H359 H 0.62179 0.07264 0.05566 0.0
H360 H 0.60476 0.14285 0.07092 0.0
H361 H 0.4698 0.07808 0.07931 0.0
H362 H 0.57687 0.03437 0.05039 0.0
H363 H 0.39244 0.94115 0.99119 0.0
H364 H 0.62679 0.116 0.06341 0.0
H365 H 0.54686 0.98167 0.97926 0.0
H366 H 0.43663 0.98047 0.99627 0.0
H367 H 0.54825 0.94297 0.96611 0.0
H368 H 0.56323 0.14435 0.07746 0.0
H369 H 0.3893 0.89893 0.98194 0.0
H370 H 0.41308 0.87418 0.97242 0.0
H371 H 0.51274 0.12011 0.08108 0.0
H372 H 0.45556 0.87474 0.96527 0.0
N373 N 0.45876 0.96084 0.9907 0.0
C374 C 0.43579 0.96233 0.99219 0.0
C375 C 0.40885 0.91618 0.98419 0.0
C376 C 0.43245 0.91514 0.98133 0.0
C377 C 0.41056 0.93999 0.98933 0.0
C378 C 0.45734 0.93814 0.9846 0.0
H379 H 0.5061 0.90052 0.96236 0.0
N380 N 0.50433 0.96129 0.98329 0.0
C381 C 0.52919 0.94139 0.97019 0.0
C382 C 0.48102 0.93841 0.98057 0.0
C383 C 0.52831 0.96332 0.97759 0.0
C384 C 0.50536 0.91746 0.96812 0.0
C385 C 0.48082 0.91578 0.97318 0.0
O386 O 0.52253 0.01157 0.96806 0.0
O387 O 0.52617 0.02696 0.01752 0.0
O388 O 0.50352 0.04639 0.03086 0.0
O389 O 0.48011 0.01805 1.00305 0.0
O390 O 0.54528 0.01978 0.99422 0.0
O391 O 0.48335 0.0072 0.97259 0.0
O392 O 0.49001 1.00462 0.07704 0.0
O393 O 0.48796 0.98991 0.02876 0.0
O394 O 0.50971 0.97018 0.01524 0.0
O395 O 0.53282 0.99765 0.04357 0.0
O396 O 0.46924 0.99929 0.05142 0.0
O397 O 0.53046 0.01163 0.075 0.0
C398 C 0.54922 0.03521 0.0098 0.0
C399 C 0.49621 1.00496 0.93753 0.0
C400 C 0.49934 0.01496 0.89973 0.0
C401 C 0.50648 0.02317 0.92086 0.0
C402 C 0.48193 0.98818 0.89567 0.0
C403 C 0.47893 0.97842 0.93298 0.0
C404 C 0.47189 0.97012 0.91217 0.0
C405 C 0.4872 0.03951 0.0144 0.0
C406 C 0.5033 0.01403 0.95952 0.0
C407 C 0.45617 0.89246 0.97071 0.0
C408 C 0.43199 0.89213 0.97481 0.0
C409 C 0.46507 0.98308 0.03637 0.0
C410 C 0.51354 0.01199 0.10903 0.0
C411 C 0.50383 0.99311 0.12515 0.0
C412 C 0.5073 1.00065 0.14658 0.0
C413 C 0.52056 0.02754 0.15147 0.0
C414 C 0.52673 0.03863 0.11432 0.0
C415 C 0.53016 0.0463 0.13545 0.0
C416 C 0.52521 0.9761 0.03215 0.0
C417 C 0.50921 1.0034 0.08685 0.0
H418 H 0.51966 0.04373 0.92439 0.0
H419 H 0.47636 0.98108 0.87967 0.0
H420 H 0.47079 0.96413 0.94549 0.0
H421 H 0.45858 0.94957 0.9088 0.0
H422 H 0.49331 0.97253 0.12095 0.0
H423 H 0.52398 0.03413 0.16771 0.0
H424 H 0.53436 0.05344 0.10216 0.0
H425 H 0.54043 0.06691 0.13944 0.0
Tb426 Tb 0.02737 0.50244 0.99192 0.0
C427 C 0.93881 0.47269 0.05502 0.0
C428 C 0.93013 0.50881 0.05354 0.0
C429 C 0.8937 0.46509 0.06157 0.0
C430 C 0.94789 0.4989 0.05124 0.0
C431 C 0.91184 0.45571 0.06096 0.0
C432 C 0.90288 0.49165 0.05799 0.0
C433 C 0.92389 0.42301 0.0694 0.0
N434 N 0.95713 0.46459 0.05533 0.0
C435 C 0.95049 0.44077 0.06389 0.0
C436 C 0.90432 0.4303 0.06747 0.0
Tb437 Tb 0.99954 0.49443 0.04403 0.0
N438 N 0.97466 0.51512 0.04788 0.0
C439 C 0.98514 0.54168 0.04948 0.0
C440 C 0.94058 0.53585 0.0528 0.0
C441 C 0.96828 0.55235 0.05144 0.0
H442 H 0.96552 0.43506 0.06559 0.0
H443 H 0.97675 0.57337 0.052 0.0
H444 H 0.88894 0.4989 0.05952 0.0
H445 H 0.91856 0.4038 0.07528 0.0
H446 H 1.00638 0.55521 0.04931 0.0
H447 H 0.05909 0.43053 0.98438 0.0
H448 H 0.92762 0.5442 0.05448 0.0
H449 H 0.05855 0.56538 0.9786 0.0
H450 H 0.02657 0.44565 0.98944 0.0
H451 H 0.10461 0.60003 0.96981 0.0
H452 H 0.87284 0.45227 0.06582 0.0
H453 H 0.10719 0.46259 0.97861 0.0
H454 H 0.14307 0.50941 0.97262 0.0
H455 H 0.8838 0.41667 0.0721 0.0
H456 H 0.1556 0.55571 0.96898 0.0
N457 N 0.05595 0.48617 0.98743 0.0
C458 C 0.04745 0.45999 0.987 0.0
C459 C 0.093 0.46941 0.98095 0.0
C460 C 0.10132 0.49608 0.98004 0.0
C461 C 0.06587 0.45126 0.98412 0.0
C462 C 0.08207 0.5039 0.98337 0.0
H463 H 0.14136 0.58972 0.96786 0.0
N464 N 0.0692 0.53581 0.98245 0.0
C465 C 0.10048 0.58032 0.97288 0.0
C466 C 0.08897 0.5297 0.98078 0.0
C467 C 0.07436 0.56058 0.97778 0.0
C468 C 0.1212 0.57445 0.97187 0.0
C469 C 0.11547 0.54876 0.9754 0.0
O470 O 0.02006 0.51497 0.96288 0.0
O471 O 0.99589 0.50219 0.01126 0.0
O472 O 0.97215 0.45862 0.0268 0.0
O473 O 0.99512 0.46126 0.99549 0.0
O474 O 1.01298 0.53053 0.98889 0.0
O475 O 1.01256 0.47558 0.96674 0.0
O476 O 0.03326 0.50948 0.06432 0.0
O477 O 0.02875 0.49203 0.0243 0.0
O478 O 0.05743 0.53147 0.01325 0.0
O479 O 0.029 0.5357 0.03686 0.0
O480 O 1.00977 0.46324 0.04611 0.0
O481 O 0.9939 0.49498 0.07686 0.0
C482 C 0.9948 0.52118 1.00321 0.0
C483 C 0.02477 0.49408 0.93271 0.0
C484 C 0.02034 0.49093 0.89438 0.0
C485 C 1.00886 0.48847 0.91448 0.0
C486 C 0.0477 0.49864 0.89275 0.0
C487 C 0.05197 0.50146 0.9307 0.0
C488 C 0.06334 0.50367 0.91083 0.0
C489 C 0.9749 0.44863 0.00888 0.0
C490 C 1.01288 0.49269 0.9536 0.0
C491 C 0.13508 0.54136 0.97303 0.0
C492 C 0.12795 0.51501 0.97512 0.0
C493 C 0.02817 0.47196 0.03182 0.0
C494 C 0.02499 0.4904 0.09817 0.0
C495 C 0.03842 0.50413 0.11651 0.0
C496 C 0.04419 0.49145 0.13283 0.0
C497 C 0.03649 0.4649 0.13039 0.0
C498 C 0.01723 0.46382 0.09631 0.0
C499 C 0.02311 0.45125 0.11226 0.0
C500 C 0.05268 0.545 0.02753 0.0
C501 C 0.01902 0.50402 0.08136 0.0
H502 H 0.98783 0.48285 0.91588 0.0
H503 H 0.05693 0.50065 0.87744 0.0
H504 H 0.06448 0.50565 0.94439 0.0
H505 H 0.08439 0.50948 0.90945 0.0
H506 H 0.04442 0.52465 0.11804 0.0
H507 H 0.04021 0.45446 0.14274 0.0
H508 H 1.00641 0.45254 0.08275 0.0
H509 H 0.017 0.43074 0.11066 0.0
Tb510 Tb 0.52764 0.51499 0.04252 0.0
C511 C 0.48392 0.5465 0.96795 0.0
C512 C 0.43625 0.51477 0.96806 0.0
C513 C 0.45194 0.55847 0.95432 0.0
C514 C 0.46299 0.5217 0.97297 0.0
C515 C 0.47862 0.56483 0.958 0.0
C516 C 0.43082 0.53348 0.95928 0.0
C517 C 0.52647 0.5932 0.95356 0.0
N518 N 0.50959 0.55197 0.97136 0.0
C519 C 0.5308 0.57449 0.96348 0.0
C520 C 0.5003 0.58857 0.95115 0.0
Tb521 Tb 0.5138 0.51977 0.98794 0.0
N522 N 0.46899 0.50372 0.9808 0.0
C523 C 0.44934 0.4779 0.98177 0.0
C524 C 0.41586 0.48889 0.97107 0.0
C525 C 0.42253 0.47028 0.97746 0.0
H526 H 0.55116 0.5786 0.96545 0.0
H527 H 0.40701 0.44998 0.97904 0.0
H528 H 0.41038 0.52852 0.95561 0.0
H529 H 0.54334 0.61125 0.94789 0.0
H530 H 0.45356 0.46283 0.98639 0.0
H531 H 0.63332 0.5881 0.04641 0.0
H532 H 0.39508 0.48286 0.9676 0.0
H533 H 0.49449 0.45497 0.06221 0.0
H534 H 0.58524 0.57225 0.04126 0.0
H535 H 0.50513 0.42228 0.0766 0.0
H536 H 0.44747 0.57241 0.94692 0.0
H537 H 0.64868 0.55737 0.057 0.0
H538 H 0.63669 0.5118 0.06804 0.0
H539 H 0.49702 0.6031 0.94341 0.0
H540 H 0.60172 0.46661 0.07645 0.0
N541 N 0.57296 0.53241 0.04817 0.0
C542 C 0.59137 0.55845 0.04594 0.0
C543 C 0.62742 0.55022 0.05477 0.0
C544 C 0.60838 0.52395 0.05839 0.0
C545 C 0.61882 0.56762 0.04884 0.0
C546 C 0.58099 0.51567 0.0551 0.0
H547 H 0.55253 0.43316 0.08006 0.0
N548 N 0.53548 0.48389 0.0572 0.0
C549 C 0.5212 0.44139 0.0719 0.0
C550 C 0.56151 0.49046 0.05983 0.0
C551 C 0.51526 0.45999 0.06384 0.0
C552 C 0.54797 0.44757 0.07378 0.0
C553 C 0.56856 0.4725 0.06796 0.0
O554 O 0.50735 0.50522 0.07181 0.0
O555 O 0.49864 0.51395 0.02001 0.0
O556 O 0.51888 0.55541 1.00301 0.0
O557 O 0.53827 0.55567 0.03543 0.0
O558 O 0.48411 0.4882 0.04446 0.0
O559 O 0.5372 0.54498 0.06447 0.0
O560 O 0.53326 0.50277 0.97128 0.0
O561 O 0.54233 0.52138 0.01063 0.0
O562 O 0.52421 0.48123 0.02535 0.0
O563 O 0.4969 0.47845 0.99717 0.0
O564 O 0.55707 0.54894 0.98801 0.0
O565 O 0.50854 0.51422 0.95494 0.0
C566 C 0.47712 0.49618 0.02814 0.0
C567 C 0.53251 0.53283 0.10026 0.0
C568 C 0.52921 0.53946 0.1379 0.0
C569 C 0.51765 0.53355 0.11766 0.0
C570 C 0.55553 0.54426 0.14067 0.0
C571 C 0.55872 0.53741 0.10341 0.0
C572 C 0.57009 0.54302 0.12352 0.0
C573 C 0.53047 0.56679 0.02105 0.0
C574 C 0.52115 0.52912 0.07886 0.0
C575 C 0.59584 0.4802 0.07043 0.0
C576 C 0.61574 0.50591 0.06564 0.0
C577 C 0.56417 0.53952 1.00337 0.0
C578 C 0.54583 0.51756 0.93621 0.0
C579 C 0.54394 0.50357 0.91759 0.0
C580 C 0.56346 0.51531 0.90151 0.0
C581 C 0.58507 0.54085 0.90457 0.0
C582 C 0.56759 0.54311 0.93861 0.0
C583 C 0.58709 0.55455 0.92298 0.0
C584 C 0.50769 0.46815 0.00966 0.0
C585 C 0.52511 0.50549 0.95293 0.0
H586 H 0.49745 0.53018 0.11539 0.0
H587 H 0.56472 0.5488 0.15616 0.0
H588 H 0.57061 0.53715 0.09033 0.0
H589 H 0.59037 0.54668 0.12577 0.0
H590 H 0.52719 0.48388 0.91548 0.0
H591 H 0.60065 0.55019 0.89274 0.0
H592 H 0.56979 0.55448 0.95243 0.0
H593 H 0.60385 0.57419 0.92516 0.0
Tb594 Tb 0.161 0.33115 0.32555 0.0
C595 C 0.21724 0.40535 0.3997 0.0
C596 C 0.26245 0.41241 0.39992 0.0
C597 C 0.25387 0.44611 0.4135 0.0
C598 C 0.23502 0.39694 0.39469 0.0
C599 C 0.22632 0.4299 0.40938 0.0
C600 C 0.2719 0.4373 0.40889 0.0
C601 C 0.18004 0.41942 0.41202 0.0
N602 N 0.19076 0.38876 0.39606 0.0
C603 C 0.17201 0.39508 0.40273 0.0
C604 C 0.20734 0.43702 0.4152 0.0
Tb605 Tb 0.17956 0.34957 0.38025 0.0
N606 N 0.22505 0.37275 0.38612 0.0
C607 C 0.24146 0.36239 0.38322 0.0
C608 C 0.2793 0.40196 0.3968 0.0
C609 C 0.26872 0.37677 0.38854 0.0
H610 H 0.15084 0.38167 0.40038 0.0
H611 H 0.28157 0.36843 0.38619 0.0
H612 H 0.29298 0.4496 0.41278 0.0
H613 H 0.16515 0.42454 0.41681 0.0
H614 H 0.2338 0.343 0.37685 0.0
H615 H 0.05779 0.30955 0.32107 0.0
H616 H 0.30039 0.41299 0.40102 0.0
H617 H 0.19007 0.30176 0.30177 0.0
H618 H 0.10644 0.33745 0.32668 0.0
H619 H 0.17638 0.25856 0.28589 0.0
H620 H 0.26129 0.46512 0.42081 0.0
H621 H 0.03896 0.2633 0.31029 0.0
H622 H 0.04738 0.22726 0.29842 0.0
H623 H 0.21349 0.45576 0.4226 0.0
H624 H 0.07983 0.21318 0.28889 0.0
N625 N 0.1154 0.30717 0.32001 0.0
C626 C 0.0987 0.31736 0.32199 0.0
C627 C 0.0604 0.27545 0.31284 0.0
C628 C 0.07781 0.2657 0.30925 0.0
C629 C 0.07098 0.30156 0.31882 0.0
C630 C 0.10552 0.28231 0.31294 0.0
H631 H 0.12815 0.22493 0.28381 0.0
N632 N 0.15011 0.29211 0.30963 0.0
C633 C 0.16131 0.26271 0.29205 0.0
C634 C 0.12359 0.27445 0.30752 0.0
C635 C 0.16899 0.28715 0.30102 0.0
C636 C 0.13408 0.24373 0.29099 0.0
C637 C 0.11477 0.24973 0.29829 0.0
O638 O 0.18471 0.34536 0.29814 0.0
O639 O 0.19154 0.35524 0.3478 0.0
O640 O 0.18302 0.38347 0.36381 0.0
O641 O 0.15355 0.36315 0.33569 0.0
O642 O 0.20415 0.34368 0.32308 0.0
O643 O 0.15081 0.35078 0.30279 0.0
O644 O 0.15646 0.33662 0.40807 0.0
O645 O 0.14839 0.32491 0.35817 0.0
O646 O 0.16095 0.2979 0.34058 0.0
O647 O 0.18673 0.31756 0.3708 0.0
O648 O 0.13765 0.34005 0.38272 0.0
O649 O 0.18839 0.32832 0.40231 0.0
C650 C 0.21296 0.35877 0.33932 0.0
C651 C 0.16211 0.34662 0.2676 0.0
C652 C 0.16813 0.35835 0.23004 0.0
C653 C 0.1744 0.36543 0.2515 0.0
C654 C 0.14955 0.33199 0.2252 0.0
C655 C 0.14317 0.32081 0.26221 0.0
C656 C 0.13706 0.31355 0.24116 0.0
C657 C 0.16754 0.38355 0.34838 0.0
C658 C 0.16979 0.35385 0.28986 0.0
C659 C 0.08709 0.2324 0.29574 0.0
C660 C 0.06862 0.24042 0.30116 0.0
C661 C 0.12852 0.32503 0.36655 0.0
C662 C 0.17813 0.3317 0.43793 0.0
C663 C 0.16418 0.31222 0.45321 0.0
C664 C 0.17102 0.31714 0.47481 0.0
C665 C 0.19231 0.34198 0.48064 0.0
C666 C 0.19934 0.35612 0.44421 0.0
C667 C 0.20637 0.36117 0.46544 0.0
C668 C 0.1752 0.29811 0.35701 0.0
C669 C 0.17009 0.32624 0.41559 0.0
H670 H 0.1886 0.38548 0.2558 0.0
H671 H 0.14477 0.32537 0.20904 0.0
H672 H 0.13323 0.3062 0.27421 0.0
H673 H 0.1227 0.29344 0.23716 0.0
H674 H 0.14811 0.29323 0.44817 0.0
H675 H 0.19784 0.34689 0.49702 0.0
H676 H 0.2104 0.37128 0.43276 0.0
H677 H 0.22265 0.38017 0.47018 0.0
Tb678 Tb 0.69824 0.83797 0.31392 0.0
C679 C 0.62531 0.81869 0.38651 0.0
C680 C 0.61955 0.85669 0.38634 0.0
C681 C 0.58343 0.81494 0.3989 0.0
C682 C 0.63521 0.84492 0.38184 0.0
C683 C 0.59964 0.80366 0.39567 0.0
C684 C 0.59335 0.84139 0.39423 0.0
C685 C 0.60942 0.76869 0.40076 0.0
N686 N 0.64174 0.80853 0.38375 0.0
C687 C 0.63486 0.78446 0.39195 0.0
C688 C 0.59152 0.77814 0.40226 0.0
Tb689 Tb 0.68246 0.83598 0.36854 0.0
N690 N 0.66079 0.85928 0.37433 0.0
C691 C 0.67242 0.88592 0.37263 0.0
C692 C 0.63104 0.88369 0.38365 0.0
C693 C 0.65773 0.89841 0.37718 0.0
H694 H 0.64857 0.777 0.39085 0.0
H695 H 0.66696 0.91941 0.37542 0.0
H696 H 0.58092 0.85004 0.39743 0.0
H697 H 0.60368 0.7493 0.40646 0.0
H698 H 0.6928 0.89803 0.36742 0.0
H699 H 0.64713 0.7576 0.25891 0.0
H700 H 0.6197 0.89345 0.38701 0.0
H701 H 0.76256 0.87066 0.32791 0.0
H702 H 0.65336 0.79528 0.2803 0.0
H703 H 0.8024 0.86593 0.32457 0.0
H704 H 0.56351 0.8036 0.40566 0.0
H705 H 0.68167 0.74421 0.25945 0.0
H706 H 0.72767 0.75385 0.27109 0.0
H707 H 0.57192 0.76597 0.4093 0.0
H708 H 0.77035 0.78369 0.28892 0.0
N709 N 0.69055 0.8025 0.29358 0.0
C710 C 0.66859 0.7896 0.28063 0.0
C711 C 0.68443 0.76067 0.26894 0.0
C712 C 0.7079 0.77533 0.28073 0.0
C713 C 0.66493 0.7682 0.26855 0.0
C714 C 0.71045 0.79657 0.2928 0.0
H715 H 0.79876 0.82608 0.30834 0.0
N716 N 0.73617 0.83434 0.31284 0.0
C717 C 0.78324 0.85065 0.31871 0.0
C718 C 0.73427 0.81326 0.30268 0.0
C719 C 0.76047 0.85337 0.32039 0.0
C720 C 0.78112 0.82822 0.30945 0.0
C721 C 0.75649 0.80932 0.30099 0.0
O722 O 0.72652 0.8698 0.29608 0.0
O723 O 0.67881 0.84973 0.33773 0.0
O724 O 0.64935 0.80146 0.35327 0.0
O725 O 0.66649 0.79727 0.32096 0.0
O726 O 0.65876 0.83375 0.30962 0.0
O727 O 0.68645 0.84575 0.28451 0.0
O728 O 0.71682 0.84541 0.3868 0.0
O729 O 0.70794 0.83178 0.3455 0.0
O730 O 0.72454 0.87733 0.3268 0.0
O731 O 0.71556 0.87551 0.36289 0.0
O732 O 0.68843 0.80229 0.367 0.0
O733 O 0.68154 0.8408 0.40157 0.0
C734 C 0.65741 0.84332 0.32743 0.0
C735 C 0.72186 0.86377 0.2591 0.0
C736 C 0.7164 0.84961 0.22214 0.0
C737 C 0.70527 0.84878 0.24219 0.0
C738 C 0.74432 0.86579 0.21932 0.0
C739 C 0.74965 0.8796 0.2557 0.0
C740 C 0.76074 0.88048 0.23599 0.0
C741 C 0.64774 0.7883 0.33585 0.0
C742 C 0.71058 0.86432 0.28001 0.0
C743 C 0.75364 0.78726 0.29017 0.0
C744 C 0.72933 0.77026 0.28004 0.0
C745 C 0.70569 0.81039 0.35186 0.0
C746 C 0.70859 0.82904 0.42153 0.0
C747 C 0.71892 0.84072 0.44124 0.0
C748 C 0.72237 0.82641 0.45757 0.0
C749 C 0.71516 0.80017 0.45378 0.0
C750 C 0.70178 0.80291 0.41819 0.0
C751 C 0.70503 0.78861 0.43423 0.0
C752 C 0.72933 0.88778 0.34589 0.0
C753 C 0.70545 0.84446 0.40461 0.0
H754 H 0.68383 0.83648 0.24464 0.0
H755 H 0.75357 0.86755 0.20408 0.0
H756 H 0.76289 0.89159 0.26825 0.0
H757 H 0.78215 0.8929 0.23354 0.0
H758 H 0.72462 0.86104 0.44372 0.0
H759 H 0.717 0.7884 0.46603 0.0
H760 H 0.69398 0.79341 0.40327 0.0
H761 H 0.69958 0.76843 0.43151 0.0
Tb762 Tb 0.19737 0.84576 0.3814 0.0
C763 C 0.15872 0.89138 0.31378 0.0
C764 C 0.11172 0.85895 0.30974 0.0
C765 C 0.12695 0.90478 0.30265 0.0
C766 C 0.13823 0.86574 0.31514 0.0
C767 C 0.15352 0.91114 0.30698 0.0
C768 C 0.10608 0.87869 0.30395 0.0
C769 C 0.2015 0.94103 0.30641 0.0
N770 N 0.18414 0.89655 0.31764 0.0
C771 C 0.20562 0.92067 0.31301 0.0
C772 C 0.1753 0.93637 0.30378 0.0
Tb773 Tb 0.18876 0.86183 0.32801 0.0
N774 N 0.14463 0.84724 0.32037 0.0
C775 C 0.1257 0.82129 0.31921 0.0
C776 C 0.09195 0.83246 0.30952 0.0
C777 C 0.09908 0.81353 0.31388 0.0
H778 H 0.2259 0.92435 0.31505 0.0
H779 H 0.08406 0.79295 0.31334 0.0
H780 H 0.08579 0.8739 0.29993 0.0
H781 H 0.2185 0.96028 0.3034 0.0
H782 H 0.13088 0.80647 0.32264 0.0
H783 H 0.29308 0.9283 0.40731 0.0
H784 H 0.07132 0.8264 0.30546 0.0
H785 H 0.18034 0.78143 0.3838 0.0
H786 H 0.24439 0.90384 0.40349 0.0
H787 H 0.20289 0.75609 0.37877 0.0
H788 H 0.12245 0.91971 0.2976 0.0
H789 H 0.32014 0.90766 0.39847 0.0
H790 H 0.32124 0.86717 0.3883 0.0
H791 H 0.17216 0.95213 0.29858 0.0
H792 H 0.29656 0.82003 0.38048 0.0
N793 N 0.2429 0.86985 0.38971 0.0
C794 C 0.25548 0.89454 0.39836 0.0
C795 C 0.29855 0.89681 0.39624 0.0
C796 C 0.28545 0.87068 0.38979 0.0
C797 C 0.28337 0.90854 0.40112 0.0
C798 C 0.25724 0.85745 0.38707 0.0
H799 H 0.25246 0.77842 0.37689 0.0
N800 N 0.21625 0.8189 0.38135 0.0
C801 C 0.21463 0.77725 0.3794 0.0
C802 C 0.24343 0.83107 0.38267 0.0
C803 C 0.20184 0.792 0.38164 0.0
C804 C 0.24255 0.78988 0.37845 0.0
C805 C 0.25736 0.81703 0.3809 0.0
O806 O 0.17796 0.81787 0.40538 0.0
O807 O 0.16933 0.84434 0.35765 0.0
O808 O 0.19056 0.89282 0.34848 0.0
O809 O 0.21194 0.88773 0.37775 0.0
O810 O 0.16321 0.85145 0.3882 0.0
O811 O 0.19718 0.85915 0.41213 0.0
O812 O 0.21538 0.87513 0.30206 0.0
O813 O 0.21349 0.85478 0.34976 0.0
O814 O 0.17014 0.80898 0.36496 0.0
O815 O 0.17938 0.82086 0.32962 0.0
O816 O 0.23222 0.8875 0.33157 0.0
O817 O 0.17791 0.83907 0.30027 0.0
C818 C 0.15423 0.84888 0.36938 0.0
C819 C 0.19556 0.83197 0.44001 0.0
C820 C 0.20263 0.83996 0.47812 0.0
C821 C 0.19277 0.84343 0.45871 0.0
C822 C 0.21499 0.82447 0.47838 0.0
C823 C 0.20842 0.81709 0.44075 0.0
C824 C 0.21794 0.81331 0.45987 0.0
C825 C 0.20249 0.90062 0.36705 0.0
C826 C 0.18471 0.83566 0.42001 0.0
C827 C 0.28553 0.83039 0.38222 0.0
C828 C 0.29957 0.85722 0.38666 0.0
C829 C 0.23644 0.87321 0.34458 0.0
C830 C 0.19596 0.86121 0.26816 0.0
C831 C 0.2029 0.85001 0.25132 0.0
C832 C 0.19821 0.85434 0.23028 0.0
C833 C 0.18699 0.87032 0.22632 0.0
C834 C 0.18488 0.87714 0.26374 0.0
C835 C 0.18057 0.88176 0.24294 0.0
C836 C 0.17047 0.80313 0.34481 0.0
C837 C 0.19957 0.85539 0.29015 0.0
H838 H 0.18327 0.85533 0.45802 0.0
H839 H 0.22224 0.82074 0.49297 0.0
H840 H 0.211 0.80825 0.42663 0.0
H841 H 0.22761 0.80157 0.46036 0.0
H842 H 0.21119 0.83741 0.25457 0.0
H843 H 0.18313 0.87387 0.2103 0.0
H844 H 0.17936 0.88587 0.27629 0.0
H845 H 0.17193 0.89403 0.2397 0.0
Tb846 Tb 0.83253 0.66942 0.65589 0.0
C847 C 0.89634 0.74118 0.73072 0.0
C848 C 0.94097 0.74728 0.72681 0.0
C849 C 0.93478 0.78012 0.74512 0.0
C850 C 0.91303 0.73255 0.72318 0.0
C851 C 0.90688 0.76485 0.74209 0.0
C852 C 0.9518 0.7713 0.73755 0.0
C853 C 0.86135 0.75527 0.74829 0.0
N854 N 0.86954 0.72562 0.7278 0.0
C855 C 0.85189 0.73192 0.73696 0.0
C856 C 0.88899 0.77199 0.75065 0.0
Tb857 Tb 0.85571 0.68732 0.70971 0.0
N858 N 0.90164 0.70891 0.71345 0.0
C859 C 0.91712 0.69806 0.70827 0.0
C860 C 0.95705 0.737 0.72019 0.0
C861 C 0.945 0.71212 0.71112 0.0
H862 H 0.83049 0.71921 0.73519 0.0
H863 H 0.95716 0.70369 0.70639 0.0
H864 H 0.97324 0.78297 0.74038 0.0
H865 H 0.84731 0.76037 0.75515 0.0
H866 H 0.90832 0.67882 0.70135 0.0
H867 H 0.73252 0.65689 0.65839 0.0
H868 H 0.97862 0.74776 0.72255 0.0
H869 H 0.85522 0.63562 0.63015 0.0
H870 H 0.78154 0.68087 0.66243 0.0
H871 H 0.8366 0.59245 0.61281 0.0
H872 H 0.94331 0.79845 0.75371 0.0
H873 H 0.70921 0.6112 0.64546 0.0
H874 H 0.71257 0.57356 0.63024 0.0
H875 H 0.89627 0.79001 0.7595 0.0
H876 H 0.74097 0.55584 0.61788 0.0
N877 N 0.78651 0.64881 0.65285 0.0
C878 C 0.77194 0.66094 0.65687 0.0
C879 C 0.73086 0.62158 0.64737 0.0
C880 C 0.74601 0.60989 0.64181 0.0
C881 C 0.74395 0.64739 0.65459 0.0
C882 C 0.7741 0.62421 0.64476 0.0
H883 H 0.78733 0.56285 0.61113 0.0
N884 N 0.81695 0.62993 0.6392 0.0
C885 C 0.82323 0.59832 0.61982 0.0
C886 C 0.78995 0.61443 0.6376 0.0
C887 C 0.8337 0.62276 0.62963 0.0
C888 C 0.79542 0.58163 0.61897 0.0
C889 C 0.77837 0.58985 0.6275 0.0
O890 O 0.8518 0.67981 0.62617 0.0
O891 O 0.86568 0.69344 0.67662 0.0
O892 O 0.85836 0.72233 0.69532 0.0
O893 O 0.82899 0.70323 0.66687 0.0
O894 O 0.87419 0.67865 0.65075 0.0
O895 O 0.82444 0.69277 0.63575 0.0
O896 O 0.83642 0.67578 0.73941 0.0
O897 O 0.82256 0.66335 0.68892 0.0
O898 O 0.83141 0.63513 0.67011 0.0
O899 O 0.86069 0.65456 0.69861 0.0
O900 O 0.81413 0.67837 0.71467 0.0
O901 O 0.86348 0.66285 0.72875 0.0
C902 C 0.88489 0.69367 0.66678 0.0
C903 C 0.82704 0.68632 0.59932 0.0
C904 C 0.82962 0.69767 0.562 0.0
C905 C 0.84183 0.70164 0.58197 0.0
C906 C 0.80267 0.67791 0.55954 0.0
C907 C 0.8002 0.6666 0.59642 0.0
C908 C 0.78816 0.66239 0.57663 0.0
C909 C 0.84369 0.72337 0.67958 0.0
C910 C 0.83928 0.69209 0.62051 0.0
C911 C 0.7503 0.57485 0.62546 0.0
C912 C 0.73414 0.58494 0.6325 0.0
C913 C 0.80347 0.66344 0.69862 0.0
C914 C 0.8608 0.66743 0.76562 0.0
C915 C 0.84426 0.65529 0.78327 0.0
C916 C 0.85571 0.65738 0.80333 0.0
C917 C 0.88374 0.6719 0.80562 0.0
C918 C 0.88881 0.68221 0.76838 0.0
C919 C 0.90014 0.68438 0.78826 0.0
C920 C 0.84684 0.6348 0.68546 0.0
C921 C 0.8488 0.6631 0.74433 0.0
H922 H 0.8625 0.71707 0.58412 0.0
H923 H 0.79288 0.67434 0.54433 0.0
H924 H 0.78837 0.65473 0.60947 0.0
H925 H 0.76742 0.6472 0.57457 0.0
H926 H 0.82262 0.64388 0.78136 0.0
H927 H 0.89291 0.67385 0.82094 0.0
H928 H 0.90201 0.69173 0.75514 0.0
H929 H 0.92174 0.69568 0.79021 0.0
Tb930 Tb 0.3593 0.17029 0.65929 0.0
C931 C 0.27943 0.14183 0.73352 0.0
C932 C 0.26361 0.17284 0.73209 0.0
C933 C 0.23574 0.13024 0.7482 0.0
C934 C 0.28318 0.1658 0.72739 0.0
C935 C 0.25589 0.12388 0.74432 0.0
C936 C 0.23966 0.15475 0.74218 0.0
C937 C 0.27512 0.09595 0.74852 0.0
N938 N 0.29967 0.13676 0.72995 0.0
C939 C 0.29817 0.11447 0.73786 0.0
C940 C 0.25374 0.10053 0.75156 0.0
Tb941 Tb 0.33695 0.16855 0.71282 0.0
N942 N 0.30697 0.18298 0.71835 0.0
C943 C 0.31315 0.2083 0.71501 0.0
C944 C 0.26913 0.19816 0.72722 0.0
C945 C 0.29419 0.21609 0.71893 0.0
H946 H 0.31443 0.11054 0.73567 0.0
H947 H 0.29898 0.23595 0.71562 0.0
H948 H 0.2243 0.15972 0.74578 0.0
H949 H 0.27388 0.07816 0.75439 0.0
H950 H 0.33248 0.22255 0.70879 0.0
H951 H 0.38833 0.09599 0.66171 0.0
H952 H 0.25456 0.20429 0.73042 0.0
H953 H 0.38903 0.22891 0.63698 0.0
H954 H 0.35697 0.1128 0.66448 0.0
H955 H 0.4339 0.26027 0.62272 0.0
H956 H 0.21743 0.11666 0.75636 0.0
H957 H 0.43566 0.12557 0.65141 0.0
H958 H 0.47138 0.17031 0.63943 0.0
H959 H 0.23599 0.08623 0.75993 0.0
H960 H 0.48388 0.21517 0.62888 0.0
N961 N 0.38624 0.15197 0.65628 0.0
C962 C 0.37746 0.12604 0.65983 0.0
C963 C 0.42194 0.13312 0.65253 0.0
C964 C 0.43044 0.15926 0.64777 0.0
C965 C 0.39523 0.11635 0.6583 0.0
C966 C 0.41182 0.16812 0.64971 0.0
H967 H 0.46985 0.24877 0.62221 0.0
N968 N 0.39987 0.20039 0.64514 0.0
C969 C 0.42998 0.24153 0.62874 0.0
C970 C 0.41892 0.19329 0.64396 0.0
C971 C 0.4046 0.22371 0.63676 0.0
C972 C 0.45025 0.23499 0.62853 0.0
C973 C 0.44473 0.21043 0.63588 0.0
O974 O 0.34615 0.17826 0.63076 0.0
O975 O 0.33032 0.17235 0.67981 0.0
O976 O 0.3044 0.13404 0.69717 0.0
O977 O 0.32708 0.13013 0.66794 0.0
O978 O 0.34391 0.19739 0.65483 0.0
O979 O 0.34421 0.14123 0.6357 0.0
O980 O 0.35463 0.16477 0.74066 0.0
O981 O 0.36559 0.16642 0.69212 0.0
O982 O 0.39071 0.20473 0.67569 0.0
O983 O 0.3653 0.20916 0.70234 0.0
O984 O 0.35361 0.14237 0.71727 0.0
O985 O 0.35384 0.20019 0.73413 0.0
C986 C 0.32753 0.18976 0.6705 0.0
C987 C 0.35164 0.15786 0.60085 0.0
C988 C 0.34638 0.15947 0.56282 0.0
C989 C 0.33583 0.15603 0.58334 0.0
C990 C 0.37287 0.16472 0.55998 0.0
C991 C 0.37781 0.16241 0.59764 0.0
C992 C 0.3884 0.16596 0.57732 0.0
C993 C 0.30594 0.12069 0.68083 0.0
C994 C 0.34094 0.15611 0.62227 0.0
C995 C 0.46381 0.20219 0.6348 0.0
C996 C 0.45668 0.17663 0.64077 0.0
C997 C 0.36962 0.14981 0.70143 0.0
C998 C 0.35414 0.18907 0.76996 0.0
C999 C 0.37425 0.19544 0.78516 0.0
C1000 C 0.36875 0.19556 0.80683 0.0
C1001 C 0.34266 0.18956 0.81288 0.0
C1002 C 0.32842 0.18337 0.77635 0.0
C1003 C 0.32278 0.1837 0.79772 0.0
C1004 C 0.38738 0.21863 0.69058 0.0
C1005 C 0.3604 0.18774 0.74765 0.0
H1006 H 0.31551 0.15233 0.58568 0.0
H1007 H 0.38134 0.16731 0.5443 0.0
H1008 H 0.3901 0.16326 0.61076 0.0
H1009 H 0.40867 0.16964 0.57502 0.0
H1010 H 0.3942 0.20028 0.77997 0.0
H1011 H 0.33734 0.18882 0.82933 0.0
H1012 H 0.31271 0.17857 0.76492 0.0
H1013 H 0.3028 0.17906 0.80258 0.0
Tb1014 Tb 0.86432 0.18455 0.70829 0.0
C1015 C 0.80753 0.20739 0.63919 0.0
C1016 C 0.76221 0.17062 0.6401 0.0
C1017 C 0.77006 0.21365 0.63007 0.0
C1018 C 0.79006 0.18132 0.64323 0.0
C1019 C 0.7979 0.22378 0.63201 0.0
C1020 C 0.75222 0.18708 0.6341 0.0
C1021 C 0.84405 0.25794 0.62706 0.0
N1022 N 0.83425 0.2162 0.64092 0.0
C1023 C 0.85259 0.2408 0.63406 0.0
C1024 C 0.81658 0.24952 0.62632 0.0
Tb1025 Tb 0.84627 0.18719 0.6539 0.0
N1026 N 0.80061 0.16611 0.64878 0.0
C1027 C 0.78439 0.13954 0.65005 0.0
C1028 C 0.74542 0.1436 0.64231 0.0
C1029 C 0.75663 0.12794 0.64692 0.0
H1030 H 0.87386 0.24749 0.63477 0.0
H1031 H 0.7439 0.10694 0.64823 0.0
H1032 H 0.73084 0.17929 0.63189 0.0
H1033 H 0.85864 0.27761 0.62223 0.0
H1034 H 0.79257 0.1271 0.65384 0.0
H1035 H 0.96793 0.26241 0.71446 0.0
H1036 H 0.72393 0.13458 0.6399 0.0
H1037 H 0.83382 0.12585 0.73018 0.0
H1038 H 0.91982 0.24357 0.70741 0.0
H1039 H 0.84638 0.09562 0.74666 0.0
H1040 H 0.76219 0.22598 0.62481 0.0
H1041 H 0.98567 0.2342 0.72674 0.0
H1042 H 0.97611 0.18998 0.73939 0.0
H1043 H 0.81001 0.26277 0.62076 0.0
H1044 H 0.94291 0.14433 0.74814 0.0
N1045 N 0.90982 0.20433 0.71451 0.0
C1046 C 0.92693 0.23073 0.71262 0.0
C1047 C 0.96439 0.22566 0.72349 0.0
C1048 C 0.94655 0.19907 0.72699 0.0
C1049 C 0.95444 0.24164 0.71664 0.0
C1050 C 0.91909 0.18895 0.72235 0.0
H1051 H 0.89437 0.10899 0.75113 0.0
N1052 N 0.87427 0.15562 0.7244 0.0
C1053 C 0.86186 0.11466 0.74127 0.0
C1054 C 0.90057 0.16361 0.72755 0.0
C1055 C 0.85483 0.13187 0.73194 0.0
C1056 C 0.88895 0.12223 0.74369 0.0
C1057 C 0.90872 0.14721 0.73722 0.0
O1058 O 0.84263 0.17539 0.7369 0.0
O1059 O 0.83366 0.1797 0.68626 0.0
O1060 O 0.84427 0.2179 0.67162 0.0
O1061 O 0.87359 0.22452 0.69922 0.0
O1062 O 0.82108 0.15532 0.71106 0.0
O1063 O 0.87242 0.21506 0.72942 0.0
O1064 O 0.86801 0.19896 0.62538 0.0
O1065 O 0.87704 0.19088 0.67564 0.0
O1066 O 0.86403 0.15153 0.69233 0.0
O1067 O 0.83979 0.14786 0.66149 0.0
O1068 O 0.88891 0.21722 0.65164 0.0
O1069 O 0.83712 0.15897 0.63014 0.0
C1070 C 0.81262 0.16158 0.69459 0.0
C1071 C 0.8658 0.20373 0.76543 0.0
C1072 C 0.86029 0.21161 0.80262 0.0
C1073 C 0.85016 0.20536 0.78183 0.0
C1074 C 0.88635 0.21584 0.80653 0.0
C1075 C 0.89142 0.20759 0.76992 0.0
C1076 C 0.90156 0.21354 0.79037 0.0
C1077 C 0.85965 0.2321 0.68744 0.0
C1078 C 0.8557 0.19946 0.7436 0.0
C1079 C 0.93618 0.15665 0.74085 0.0
C1080 C 0.95507 0.18263 0.73586 0.0
C1081 C 0.89749 0.20987 0.66743 0.0
C1082 C 0.84394 0.17505 0.59529 0.0
C1083 C 0.85354 0.16693 0.57804 0.0
C1084 C 0.84282 0.16515 0.55769 0.0
C1085 C 0.82295 0.17215 0.5548 0.0
C1086 C 0.82404 0.18179 0.5919 0.0
C1087 C 0.81374 0.18049 0.57179 0.0
C1088 C 0.85049 0.13874 0.67527 0.0
C1089 C 0.85419 0.17589 0.61678 0.0
H1090 H 0.8302 0.20187 0.77823 0.0
H1091 H 0.89542 0.22151 0.82199 0.0
H1092 H 0.90381 0.20651 0.75759 0.0
H1093 H 0.92153 0.21688 0.79364 0.0
H1094 H 0.86872 0.1614 0.58051 0.0
H1095 H 0.81454 0.17118 0.53932 0.0
H1096 H 0.81629 0.18791 0.60476 0.0
H1097 H 0.79839 0.18577 0.5694 0.0
H1098 H 0.31922 0.87388 0.07521 0.0
H1099 H 0.3473 0.81808 0.06957 0.0
H1100 H 0.38992 0.85235 0.05448 0.0
H1101 H 0.35061 0.91028 0.02718 0.0
H1102 H 0.35963 0.94163 0.03857 0.0
H1103 H 0.33045 0.91245 0.04804 0.0
H1104 H 0.34947 0.92293 0.08612 0.0
H1105 H 0.37849 0.95223 0.07672 0.0
H1106 H 0.38273 0.92823 0.09113 0.0
H1107 H 0.43008 0.89264 0.04066 0.0
H1108 H 0.46625 0.93718 0.03206 0.0
H1109 H 0.41336 0.96766 0.04685 0.0
C1110 C 0.33438 0.86892 0.07089 0.0
C1111 C 0.32959 0.84306 0.0733 0.0
C1112 C 0.35009 0.8375 0.06744 0.0
C1113 C 0.37447 0.85687 0.05887 0.0
C1114 C 0.37832 0.88193 0.05628 0.0
C1115 C 0.35901 0.88813 0.06229 0.0
C1116 C 0.36887 0.91695 0.05857 0.0
C1117 C 0.35133 0.92052 0.04211 0.0
C1118 C 0.36996 0.9309 0.07937 0.0
C1119 C 0.39684 0.92597 0.04998 0.0
C1120 C 0.40171 0.90535 0.04849 0.0
C1121 C 0.42639 0.90891 0.04157 0.0
C1122 C 0.44683 0.93432 0.03651 0.0
C1123 C 0.44247 0.95584 0.03826 0.0
C1124 C 0.41705 0.95146 0.04496 0.0
H1125 H 0.17929 0.50739 0.05983 0.0
H1126 H 0.14923 0.42379 0.06099 0.0
H1127 H 0.1047 0.41557 0.04908 0.0
H1128 H 0.1185 0.50228 0.0804 0.0
H1129 H 0.11964 0.5284 0.06501 0.0
H1130 H 0.15044 0.52918 0.07209 0.0
H1131 H 0.16428 0.53388 0.03367 0.0
H1132 H 0.13365 0.53212 0.02464 0.0
H1133 H 0.14341 0.50927 0.01484 0.0
H1134 H 0.06253 0.41596 0.0404 0.0
H1135 H 0.0256 0.42511 0.03367 0.0
H1136 H 0.08222 0.50841 0.03636 0.0
C1137 C 0.16341 0.48743 0.05717 0.0
C1138 C 0.16775 0.46617 0.06104 0.0
C1139 C 0.14633 0.44029 0.05794 0.0
C1140 C 0.12099 0.43546 0.0512 0.0
C1141 C 0.11717 0.45671 0.04774 0.0
C1142 C 0.13771 0.48221 0.05065 0.0
C1143 C 0.12758 0.50131 0.04692 0.0
C1144 C 0.12917 0.51618 0.06731 0.0
C1145 C 0.14313 0.5203 0.02893 0.0
C1146 C 0.09845 0.4826 0.04089 0.0
C1147 C 0.09283 0.45694 0.04187 0.0
C1148 C 0.06681 0.43598 0.0391 0.0
C1149 C 0.04596 0.44132 0.0353 0.0
C1150 C 0.05123 0.46737 0.03369 0.0
C1151 C 0.07786 0.4883 0.03655 0.0
H1152 H 0.56689 0.69356 0.09124 0.0
H1153 H 0.54069 0.72217 0.03844 0.0
H1154 H 0.52999 0.68238 0.01841 0.0
H1155 H 0.59971 0.66674 0.05904 0.0
H1156 H 0.59038 0.63914 0.07614 0.0
H1157 H 0.59509 0.66947 0.08685 0.0
H1158 H 0.54707 0.64493 0.10265 0.0
H1159 H 0.54222 0.61456 0.09194 0.0
H1160 H 0.51884 0.62551 0.08561 0.0
H1161 H 0.52022 0.63864 1.00452 0.0
H1162 H 0.51508 0.59556 0.99685 0.0
H1163 H 0.55229 0.59721 0.05678 0.0
C1164 C 0.55924 0.69177 0.07538 0.0
C1165 C 0.55441 0.71119 0.06665 0.0
C1166 C 0.54396 0.7075 0.04586 0.0
C1167 C 0.53802 0.68499 0.03421 0.0
C1168 C 0.54296 0.66635 0.04333 0.0
C1169 C 0.55361 0.66959 0.06335 0.0
C1170 C 0.55758 0.64678 0.06922 0.0
C1171 C 0.58747 0.6561 0.07303 0.0
C1172 C 0.5404 0.63208 0.08849 0.0
C1173 C 0.54738 0.63021 0.0494 0.0
C1174 C 0.53882 0.64178 0.03478 0.0
C1175 C 0.52739 0.62967 0.01568 0.0
C1176 C 0.52479 0.60519 0.01135 0.0
C1177 C 0.53404 0.59311 0.02579 0.0
C1178 C 0.54544 0.60595 0.04514 0.0
H1179 H 0.85921 0.32575 0.94644 0.0
H1180 H 0.84643 0.28102 1.00372 0.0
H1181 H 0.88562 0.31899 0.02007 0.0
H1182 H 0.93357 0.36337 0.94869 0.0
H1183 H 0.93537 0.39296 0.93911 0.0
H1184 H 0.90804 0.36151 0.93109 0.0
H1185 H 0.87385 0.37468 0.94465 0.0
H1186 H 0.90105 0.40607 0.95279 0.0
H1187 H 0.87585 0.38528 0.9716 0.0
H1188 H 0.92398 0.36219 0.03101 0.0
H1189 H 0.95912 0.40827 0.03608 0.0
H1190 H 0.94702 0.42617 0.97222 0.0
C1191 C 0.86513 0.32381 0.96223 0.0
C1192 C 0.84999 0.30037 0.97379 0.0
C1193 C 0.85783 0.29876 0.99462 0.0
C1194 C 0.88008 0.32019 1.00399 0.0
C1195 C 0.89427 0.34316 0.99234 0.0
C1196 C 0.88721 0.34516 0.97191 0.0
C1197 C 0.90482 0.37271 0.96344 0.0
C1198 C 0.92144 0.37262 0.94445 0.0
C1199 C 0.88788 0.38542 0.95779 0.0
C1200 C 0.92263 0.38595 0.98241 0.0
C1201 C 0.91624 0.36842 0.99883 0.0
C1202 C 0.92913 0.37607 0.01827 0.0
C1203 C 0.94882 0.40235 0.02111 0.0
C1204 C 0.95534 0.42079 1.00473 0.0
C1205 C 0.94244 0.41238 0.98497 0.0
H1206 H 0.71431 0.58164 0.96538 0.0
H1207 H 0.69558 0.50262 0.98119 0.0
H1208 H 0.65161 0.49325 0.99484 0.0
H1209 H 0.6801 0.5914 0.00998 0.0
H1210 H 0.66755 0.60881 0.99479 0.0
H1211 H 0.69856 0.61025 0.98731 0.0
H1212 H 0.67943 0.59359 0.94985 0.0
H1213 H 0.64845 0.5922 0.95729 0.0
H1214 H 0.64792 0.56343 0.94703 0.0
H1215 H 0.60859 0.49117 1.00516 0.0
H1216 H 0.56947 0.49654 0.01112 0.0
H1217 H 0.61429 0.57653 0.98875 0.0
C1218 C 0.70102 0.56235 0.9717 0.0
C1219 C 0.70898 0.54305 0.97241 0.0
C1220 C 0.69067 0.5181 0.98091 0.0
C1221 C 0.6654 0.51245 0.98859 0.0
C1222 C 0.65832 0.53184 0.98766 0.0
C1223 C 0.67549 0.55627 0.97938 0.0
C1224 C 0.66232 0.57318 0.97962 0.0
C1225 C 0.67808 0.59735 0.99377 0.0
C1226 C 0.65936 0.58106 0.95711 0.0
C1227 C 0.63505 0.55435 0.98915 0.0
C1228 C 0.63331 0.53066 0.99373 0.0
C1229 C 0.60992 0.50978 1.00191 0.0
C1230 C 0.5877 0.51311 1.00542 0.0
C1231 C 0.58885 0.53723 1.00115 0.0
C1232 C 0.61294 0.55807 0.99273 0.0
H1233 H 0.50088 0.17873 0.99318 0.0
H1234 H 0.42903 0.13872 0.95451 0.0
H1235 H 0.42438 0.09628 0.96438 0.0
H1236 H 0.52746 0.13787 0.98216 0.0
H1237 H 0.53936 0.13842 0.00854 0.0
H1238 H 0.53636 0.16559 0.99913 0.0
H1239 H 0.50552 0.16039 0.031 0.0
H1240 H 0.50898 0.13336 0.04026 0.0
H1241 H 0.476 0.12905 0.03582 0.0
H1242 H 0.42986 0.05847 0.97573 0.0
H1243 H 0.44366 0.02784 0.98953 0.0
H1244 H 0.50976 0.09193 0.02303 0.0
C1245 C 0.48378 0.16107 0.98715 0.0
C1246 C 0.46547 0.16225 0.97287 0.0
C1247 C 0.44369 0.13852 0.96511 0.0
C1248 C 0.44071 0.11424 0.97077 0.0
C1249 C 0.45938 0.11385 0.98453 0.0
C1250 C 0.48029 0.13661 0.99287 0.0
C1251 C 0.49793 0.13074 1.00698 0.0
C1252 C 0.52699 0.14393 0.99869 0.0
C1253 C 0.49703 0.13886 0.02988 0.0
C1254 C 0.48406 0.10122 1.00481 0.0
C1255 C 0.46187 0.09187 0.99179 0.0
C1256 C 0.44691 0.0655 0.98625 0.0
C1257 C 0.45495 0.04825 0.99412 0.0
C1258 C 0.47761 0.0574 0.00752 0.0
C1259 C 0.49205 0.08421 0.01313 0.0
H1260 H 0.69574 0.16236 0.99277 0.0
H1261 H 0.6534 0.20564 0.98526 0.0
H1262 H 0.61032 0.1653 0.99067 0.0
H1263 H 0.64312 0.10271 0.9646 0.0
H1264 H 0.64767 0.08065 0.98144 0.0
H1265 H 0.67555 0.11288 0.97615 0.0
H1266 H 0.68225 0.12142 0.0161 0.0
H1267 H 0.6537 0.0898 0.02188 0.0
H1268 H 0.65514 0.11908 0.03197 0.0
H1269 H 0.57244 0.12221 1.0 0.0
H1270 H 0.54008 0.07612 1.00678 0.0
H1271 H 0.60434 0.05779 1.00607 0.0
C1272 C 0.67735 0.16318 0.9918 0.0
C1273 C 0.67811 0.18741 0.9891 0.0
C1274 C 0.6535 0.18755 0.98789 0.0
C1275 C 0.62884 0.16469 0.9909 0.0
C1276 C 0.62883 0.14147 0.99456 0.0
C1277 C 0.65221 0.1402 0.99438 0.0
C1278 C 0.64591 0.11221 0.99827 0.0
C1279 C 0.65351 0.10148 0.97896 0.0
C1280 C 0.66008 0.11052 0.01825 0.0
C1281 C 0.61552 0.09834 1.00121 0.0
C1282 C 0.60633 0.11584 0.99918 0.0
C1283 C 0.57934 0.10827 1.00164 0.0
C1284 C 0.56105 0.08198 1.00588 0.0
C1285 C 0.56963 0.06339 0.00775 0.0
C1286 C 0.59727 0.07168 1.00509 0.0
H1287 H 0.84225 0.48 0.97827 0.0
H1288 H 0.86448 0.56147 0.98717 0.0
H1289 H 0.91148 0.57254 0.99332 0.0
H1290 H 0.87845 0.47735 0.01973 0.0
H1291 H 0.89084 0.45719 0.00859 0.0
H1292 H 0.85937 0.45368 0.99979 0.0
H1293 H 0.8732 0.46319 0.96132 0.0
H1294 H 0.90389 0.46364 0.96809 0.0
H1295 H 0.90519 0.49101 0.9544 0.0
H1296 H 0.95676 0.57464 0.99773 0.0
H1297 H 0.99512 0.56716 1.00316 0.0
H1298 H 0.94153 0.48352 0.99779 0.0
C1299 C 0.85676 0.50024 0.98163 0.0
C1300 C 0.84913 0.51979 0.98232 0.0
C1301 C 0.86945 0.54606 0.9862 0.0
C1302 C 0.89629 0.55253 0.98989 0.0
C1303 C 0.90267 0.53255 0.98987 0.0
C1304 C 0.88341 0.50692 0.98585 0.0
C1305 C 0.89497 0.48878 0.98796 0.0
C1306 C 0.88008 0.46802 1.00505 0.0
C1307 C 0.89428 0.4759 0.96668 0.0
C1308 C 0.92367 0.50813 0.99441 0.0
C1309 C 0.92792 0.5334 0.99469 0.0
C1310 C 0.95346 0.5549 0.99804 0.0
C1311 C 0.9751 0.55049 1.00116 0.0
C1312 C 0.97103 0.52477 1.00193 0.0
C1313 C 0.94494 0.50331 0.99838 0.0
H1314 H 0.54093 0.35253 1.00714 0.0
H1315 H 0.45905 0.30048 0.98599 0.0
H1316 H 0.45116 0.33794 0.98511 0.0
H1317 H 0.5239 0.38911 0.04306 0.0
H1318 H 0.55471 0.41928 0.03804 0.0
H1319 H 0.55381 0.38848 0.03533 0.0
H1320 H 0.57176 0.40155 0.99701 0.0
H1321 H 0.5718 0.43197 0.99983 0.0
H1322 H 0.55341 0.40993 0.97856 0.0
H1323 H 0.45233 0.38179 0.98688 0.0
H1324 H 0.46168 0.42705 0.99318 0.0
H1325 H 0.54081 0.4483 0.01694 0.0
C1326 C 0.52115 0.34869 1.00253 0.0
C1327 C 0.50064 0.32323 0.99665 0.0
C1328 C 0.47536 0.31968 0.99021 0.0
C1329 C 0.47058 0.34087 0.98981 0.0
C1330 C 0.49114 0.36548 0.99613 0.0
C1331 C 0.51584 0.36937 1.00253 0.0
C1332 C 0.53423 0.39737 0.00956 0.0
C1333 C 0.54209 0.3986 0.03289 0.0
C1334 C 0.55927 0.411 0.99539 0.0
C1335 C 0.51595 0.40863 1.0063 0.0
C1336 C 0.49132 0.39012 0.9982 0.0
C1337 C 0.47149 0.39636 0.99333 0.0
C1338 C 0.47699 0.42212 0.99689 0.0
C1339 C 0.50189 0.44112 1.00563 0.0
C1340 C 0.52149 0.43414 0.01042 0.0
H1341 H 0.20416 0.65145 0.05236 0.0
H1342 H 0.17926 0.70998 0.05628 0.0
H1343 H 0.13231 0.67525 0.05085 0.0
H1344 H 0.16044 0.61751 0.00839 0.0
H1345 H 0.15471 0.58599 0.0169 0.0
H1346 H 0.18597 0.61511 0.02309 0.0
H1347 H 0.17835 0.60341 0.06296 0.0
H1348 H 0.1474 0.57424 0.05644 0.0
H1349 H 0.14735 0.59726 0.07516 0.0
H1350 H 0.08729 0.63319 0.04502 0.0
H1351 H 0.04963 0.58891 0.03641 0.0
H1352 H 0.10573 0.56022 0.03137 0.0
C1353 C 0.18926 0.65751 0.0517 0.0
C1354 C 0.1961 0.684 0.05481 0.0
C1355 C 0.17505 0.69005 0.05448 0.0
C1356 C 0.14816 0.67039 0.05117 0.0
C1357 C 0.14251 0.64477 0.04772 0.0
C1358 C 0.16262 0.63845 0.04761 0.0
C1359 C 0.15176 0.60986 0.04216 0.0
C1360 C 0.16395 0.60697 0.0214 0.0
C1361 C 0.15649 0.59536 0.06028 0.0
C1362 C 0.12224 0.60088 0.03959 0.0
C1363 C 0.11716 0.62117 0.04309 0.0
C1364 C 0.09112 0.61725 0.04214 0.0
C1365 C 0.06984 0.59204 0.03739 0.0
C1366 C 0.07484 0.57125 0.03329 0.0
C1367 C 0.10139 0.57584 0.03433 0.0
H1368 H 0.36762 0.54161 0.03823 0.0
H1369 H 0.30679 0.45936 0.04324 0.0
H1370 H 0.34208 0.4475 0.03886 0.0
H1371 H 0.40425 0.53274 0.99714 0.0
H1372 H 0.43734 0.55697 1.00608 0.0
H1373 H 0.40874 0.56084 0.01173 0.0
H1374 H 0.41711 0.56345 0.05162 0.0
H1375 H 0.44698 0.56153 0.04674 0.0
H1376 H 0.42151 0.53857 0.0644 0.0
H1377 H 0.38442 0.44463 0.03501 0.0
H1378 H 0.43017 0.45093 0.03137 0.0
H1379 H 0.46284 0.5345 0.02462 0.0
C1380 C 0.36142 0.52102 0.03821 0.0
C1381 C 0.33399 0.50147 0.04109 0.0
C1382 C 0.32744 0.47487 0.04146 0.0
C1383 C 0.3474 0.46788 0.03875 0.0
C1384 C 0.37395 0.48763 0.03546 0.0
C1385 C 0.38099 0.51367 0.03516 0.0
C1386 C 0.41092 0.53111 0.0309 0.0
C1387 C 0.41562 0.54633 0.01023 0.0
C1388 C 0.42496 0.54976 0.04953 0.0
C1389 C 0.41972 0.51082 0.02897 0.0
C1390 C 0.39806 0.48586 0.03185 0.0
C1391 C 0.40137 0.46402 0.03236 0.0
C1392 C 0.4274 0.46776 0.03023 0.0
C1393 C 0.44984 0.49303 0.027 0.0
C1394 C 0.44589 0.51485 0.02622 0.0
H1395 H 0.49955 0.83159 0.04708 0.0
H1396 H 0.5629 0.86156 0.094 0.0
H1397 H 0.57326 0.90683 0.08591 0.0
H1398 H 0.53329 0.88573 0.00912 0.0
H1399 H 0.50193 0.88388 1.00224 0.0
H1400 H 0.50223 0.85491 0.01067 0.0
H1401 H 0.46731 0.84843 0.03968 0.0
H1402 H 0.46794 0.87788 0.03136 0.0
H1403 H 0.47532 0.8744 0.05837 0.0
H1404 H 0.57292 0.9486 0.07509 0.0
H1405 H 0.56395 0.98269 0.06108 0.0
H1406 H 0.50178 0.92459 0.02061 0.0
C1407 C 0.51583 0.8477 0.05551 0.0
C1408 C 0.5304 0.84306 0.07122 0.0
C1409 C 0.55165 0.86468 0.08178 0.0
C1410 C 0.55756 0.89043 0.07734 0.0
C1411 C 0.54227 0.89422 0.06212 0.0
C1412 C 0.52205 0.87338 0.05119 0.0
C1413 C 0.50785 0.88234 0.03613 0.0
C1414 C 0.51158 0.87637 0.01318 0.0
C1415 C 0.47784 0.87003 0.04173 0.0
C1416 C 0.5229 0.91147 0.04046 0.0
C1417 C 0.54265 0.91805 0.05552 0.0
C1418 C 0.55782 0.94367 0.06303 0.0
C1419 C 0.55255 0.96292 0.05501 0.0
C1420 C 0.53241 0.95649 0.03953 0.0
C1421 C 0.51771 0.93041 0.03209 0.0
H1422 H 1.01225 0.17884 0.38884 0.0
H1423 H 0.96023 0.21128 0.40085 0.0
H1424 H 0.99592 0.25438 0.38863 0.0
H1425 H 0.07255 0.23302 0.40586 0.0
H1426 H 0.09356 0.23119 0.38558 0.0
H1427 H 0.06355 0.20198 0.39378 0.0
H1428 H 0.04706 0.19323 0.35541 0.0
H1429 H 0.07661 0.22265 0.34668 0.0
H1430 H 0.04357 0.21767 0.34105 0.0
H1431 H 0.03827 0.29469 0.37911 0.0
H1432 H 0.08483 0.32979 0.37218 0.0
H1433 H 0.10936 0.27183 0.36363 0.0
C1434 C 1.00817 0.19488 0.38854 0.0
C1435 C 0.98336 0.19158 0.39603 0.0
C1436 C 0.97913 0.21329 0.39562 0.0
C1437 C 0.99921 0.23784 0.38848 0.0
C1438 C 0.02344 0.24048 0.38147 0.0
C1439 C 0.02802 0.21962 0.3813 0.0
C1440 C 0.05641 0.22822 0.37382 0.0
C1441 C 0.07243 0.22328 0.3908 0.0
C1442 C 0.0559 0.21464 0.35299 0.0
C1443 C 0.06732 0.25732 0.37057 0.0
C1444 C 0.0478 0.26385 0.37494 0.0
C1445 C 0.05354 0.28976 0.37514 0.0
C1446 C 0.07999 0.30955 0.3712 0.0
C1447 C 0.10035 0.30342 0.36671 0.0
C1448 C 0.09388 0.27693 0.36614 0.0
H1449 H 0.8469 0.83695 0.39643 0.0
H1450 H 0.82502 0.75837 0.37695 0.0
H1451 H 0.78305 0.75282 0.36089 0.0
H1452 H 0.77901 0.82083 0.41069 0.0
H1453 H 0.78382 0.85205 0.40225 0.0
H1454 H 0.81203 0.84948 0.41156 0.0
H1455 H 0.83665 0.87053 0.37716 0.0
H1456 H 0.80828 0.87158 0.36619 0.0
H1457 H 0.82279 0.85478 0.35235 0.0
H1458 H 0.74234 0.7555 0.34832 0.0
H1459 H 0.70624 0.76594 0.34098 0.0
H1460 H 0.75539 0.84292 0.36831 0.0
C1461 C 0.83331 0.8187 0.3886 0.0
C1462 C 0.83918 0.79817 0.38759 0.0
C1463 C 0.82083 0.77433 0.37765 0.0
C1464 C 0.79702 0.77106 0.36853 0.0
C1465 C 0.79175 0.79171 0.36975 0.0
C1466 C 0.80927 0.81497 0.37976 0.0
C1467 C 0.79843 0.8337 0.37977 0.0
C1468 C 0.79301 0.83934 0.40241 0.0
C1469 C 0.81765 0.85916 0.36816 0.0
C1470 C 0.77236 0.81763 0.3678 0.0
C1471 C 0.76869 0.79337 0.3623 0.0
C1472 C 0.7452 0.77457 0.35232 0.0
C1473 C 0.72486 0.78063 0.34815 0.0
C1474 C 0.72841 0.80542 0.35353 0.0
C1475 C 0.75244 0.82405 0.36351 0.0
H1476 H 0.19638 0.03302 0.38188 0.0
H1477 H 0.20418 0.02392 0.449 0.0
H1478 H 0.20315 0.98241 0.44225 0.0
H1479 H 0.15029 0.96153 0.37159 0.0
H1480 H 0.16501 0.96276 0.34621 0.0
H1481 H 0.16432 0.9911 0.35614 0.0
H1482 H 0.21601 0.01888 0.35138 0.0
H1483 H 0.21677 0.99054 0.34166 0.0
H1484 H 0.23729 0.00848 0.3639 0.0
H1485 H 0.20519 0.94456 0.42876 0.0
H1486 H 0.20687 0.90963 0.40927 0.0
H1487 H 0.19585 0.94067 0.35046 0.0
C1488 C 0.19734 0.022 0.39515 0.0
C1489 C 0.20083 0.03198 0.41597 0.0
C1490 C 0.20216 0.01704 0.4329 0.0
C1491 C 0.20138 0.99331 0.42925 0.0
C1492 C 0.1988 0.98445 0.4086 0.0
C1493 C 0.19634 0.99796 0.3918 0.0
C1494 C 0.19439 0.98396 0.37113 0.0
C1495 C 0.16686 0.97427 0.36065 0.0
C1496 C 0.2175 1.00152 0.35614 0.0
C1497 C 0.19719 0.96115 0.37902 0.0
C1498 C 0.19955 0.96189 0.4007 0.0
C1499 C 0.20327 0.94367 0.41177 0.0
C1500 C 0.20457 0.92404 0.40043 0.0
C1501 C 0.20223 0.92265 0.37814 0.0
C1502 C 0.19812 0.94134 0.36737 0.0
H1503 H 0.54985 0.64164 0.29291 0.0
H1504 H 0.4856 0.6471 0.32472 0.0
H1505 H 0.51813 0.6906 0.33764 0.0
H1506 H 0.60232 0.67773 0.33119 0.0
H1507 H 0.62832 0.6951 0.3119 0.0
H1508 H 0.60045 0.66313 0.3058 0.0
H1509 H 0.58947 0.68182 0.27267 0.0
H1510 H 0.61767 0.71359 0.27868 0.0
H1511 H 0.58466 0.70965 0.27547 0.0
H1512 H 0.55652 0.73274 0.34809 0.0
H1513 H 0.59901 0.77366 0.35304 0.0
H1514 H 0.63944 0.7451 0.31202 0.0
C1515 C 0.54252 0.65191 0.30254 0.0
C1516 C 0.51492 0.64007 0.30825 0.0
C1517 C 0.50655 0.65473 0.32079 0.0
C1518 C 0.5249 0.6798 0.32808 0.0
C1519 C 0.55172 0.6906 0.32239 0.0
C1520 C 0.56063 0.67745 0.30969 0.0
C1521 C 0.59062 0.69454 0.30531 0.0
C1522 C 0.60635 0.68186 0.31408 0.0
C1523 C 0.5959 0.70024 0.28162 0.0
C1524 C 0.59693 0.71919 0.31759 0.0
C1525 C 0.57409 0.71614 0.32747 0.0
C1526 C 0.57452 0.73548 0.34029 0.0
C1527 C 0.59889 0.75873 0.34304 0.0
C1528 C 0.62263 0.76286 0.33276 0.0
C1529 C 0.62158 0.74272 0.31982 0.0
H1530 H 0.38792 0.91327 0.31356 0.0
H1531 H 0.35884 0.83039 0.30506 0.0
H1532 H 0.31333 0.82028 0.31595 0.0
H1533 H 0.34751 0.90526 0.36051 0.0
H1534 H 0.34115 0.93134 0.3538 0.0
H1535 H 0.3717 0.93263 0.34513 0.0
H1536 H 0.36073 0.93739 0.30637 0.0
H1537 H 0.33033 0.93646 0.31487 0.0
H1538 H 0.32881 0.91351 0.29535 0.0
H1539 H 0.27072 0.81909 0.32574 0.0
H1540 H 0.23374 0.82666 0.33599 0.0
H1541 H 0.28995 0.90999 0.34076 0.0
C1542 C 0.37188 0.89305 0.31399 0.0
C1543 C 0.37678 0.87256 0.30842 0.0
C1544 C 0.35544 0.84631 0.30932 0.0
C1545 C 0.32956 0.84039 0.31547 0.0
C1546 C 0.32533 0.86093 0.32096 0.0
C1547 C 0.34587 0.88672 0.32051 0.0
C1548 C 0.33573 0.90491 0.32759 0.0
C1549 C 0.34987 0.91939 0.34797 0.0
C1550 C 0.3391 0.9242 0.30999 0.0
C1551 C 0.30626 0.88534 0.33161 0.0
C1552 C 0.30077 0.8601 0.32763 0.0
C1553 C 0.27485 0.83872 0.32924 0.0
C1554 C 0.25398 0.8432 0.3352 0.0
C1555 C 0.25916 0.86879 0.33997 0.0
C1556 C 0.28562 0.89015 0.33786 0.0
H1557 H 0.12377 0.4812 0.29773 0.0
H1558 H 0.20264 0.54428 0.31667 0.0
H1559 H 0.21214 0.5124 0.33332 0.0
H1560 H 0.11017 0.43926 0.34237 0.0
H1561 H 0.09558 0.40937 0.32723 0.0
H1562 H 0.09362 0.43714 0.31771 0.0
H1563 H 0.11628 0.43598 0.28269 0.0
H1564 H 0.11811 0.4081 0.29205 0.0
H1565 H 0.14819 0.43702 0.28343 0.0
H1566 H 0.21315 0.47458 0.34896 0.0
H1567 H 0.20798 0.43207 0.35886 0.0
H1568 H 0.131 0.39219 0.32656 0.0
C1569 C 0.14314 0.48842 0.30521 0.0
C1570 C 0.16203 0.51563 0.30632 0.0
C1571 C 0.18716 0.52386 0.31629 0.0
C1572 C 0.19297 0.50582 0.32566 0.0
C1573 C 0.17381 0.4794 0.32455 0.0
C1574 C 0.14964 0.47056 0.31423 0.0
C1575 C 0.13335 0.44083 0.31436 0.0
C1576 C 0.10659 0.43109 0.32612 0.0
C1577 C 0.12872 0.42984 0.29179 0.0
C1578 C 0.15217 0.4345 0.32649 0.0
C1579 C 0.17519 0.45715 0.33244 0.0
C1580 C 0.19532 0.45667 0.34426 0.0
C1581 C 0.19208 0.43237 0.34992 0.0
C1582 C 0.1691 0.40877 0.34345 0.0
C1583 C 0.14884 0.4099 0.33162 0.0
H1584 H 0.36514 0.47982 0.33203 0.0
H1585 H 0.32999 0.5241 0.30666 0.0
H1586 H 0.28529 0.48439 0.30672 0.0
H1587 H 0.31721 0.41649 0.30239 0.0
H1588 H 0.31636 0.39649 0.32415 0.0
H1589 H 0.34632 0.42739 0.31905 0.0
H1590 H 0.34513 0.44239 0.35725 0.0
H1591 H 0.31548 0.41144 0.36215 0.0
H1592 H 0.31509 0.44156 0.36668 0.0
H1593 H 0.24437 0.44256 0.31344 0.0
H1594 H 0.20879 0.39836 0.32266 0.0
H1595 H 0.26831 0.37874 0.34356 0.0
C1596 C 0.34814 0.48074 0.32568 0.0
C1597 C 0.35094 0.50492 0.31915 0.0
C1598 C 0.32821 0.50569 0.31149 0.0
C1599 C 0.30274 0.48327 0.31156 0.0
C1600 C 0.30031 0.46003 0.31904 0.0
C1601 C 0.32236 0.45824 0.32538 0.0
C1602 C 0.31353 0.4308 0.33345 0.0
C1603 C 0.32397 0.41697 0.31889 0.0
C1604 C 0.32283 0.43161 0.35626 0.0
C1605 C 0.28305 0.41813 0.33194 0.0
C1606 C 0.27614 0.43546 0.32333 0.0
C1607 C 0.24952 0.42888 0.32037 0.0
C1608 C 0.22933 0.40387 0.32621 0.0
C1609 C 0.23552 0.38569 0.33543 0.0
C1610 C 0.26287 0.39269 0.33773 0.0
H1611 H 0.50503 0.80693 0.32508 0.0
H1612 H 0.53123 0.88988 0.32827 0.0
H1613 H 0.57847 0.8999 0.33034 0.0
H1614 H 0.55053 0.80866 0.36322 0.0
H1615 H 0.55742 0.78518 0.35062 0.0
H1616 H 0.52526 0.7831 0.34712 0.0
H1617 H 0.52972 0.78583 0.30682 0.0
H1618 H 0.5609 0.78577 0.30933 0.0
H1619 H 0.55989 0.81158 0.29491 0.0
H1620 H 0.62351 0.90047 0.33006 0.0
H1621 H 0.66125 0.89128 0.32934 0.0
H1622 H 0.60451 0.80828 0.33057 0.0
C1623 C 0.52051 0.82727 0.32649 0.0
C1624 C 0.51408 0.84758 0.32663 0.0
C1625 C 0.53539 0.8739 0.32785 0.0
C1626 C 0.56234 0.87978 0.32924 0.0
C1627 C 0.56773 0.85917 0.32958 0.0
C1628 C 0.54731 0.83343 0.32828 0.0
C1629 C 0.55812 0.8147 0.32929 0.0
C1630 C 0.54721 0.79685 0.34872 0.0
C1631 C 0.55179 0.79853 0.30887 0.0
C1632 C 0.5879 0.83388 0.33133 0.0
C1633 C 0.59318 0.85948 0.33122 0.0
C1634 C 0.6195 0.88051 0.3309 0.0
C1635 C 0.64081 0.87517 0.33079 0.0
C1636 C 0.63571 0.84912 0.33175 0.0
C1637 C 0.60891 0.82834 0.33156 0.0
H1638 H 0.20568 0.69993 0.29845 0.0
H1639 H 0.14191 0.64068 0.33685 0.0
H1640 H 0.1271 0.67232 0.34636 0.0
H1641 H 0.22355 0.75225 0.33259 0.0
H1642 H 0.23065 0.77606 0.31219 0.0
H1643 H 0.234 0.74788 0.3068 0.0
H1644 H 0.201 0.73585 0.27526 0.0
H1645 H 0.19758 0.76405 0.28077 0.0
H1646 H 0.16815 0.73193 0.27959 0.0
H1647 H 0.12416 0.71273 0.3559 0.0
H1648 H 0.1312 0.75726 0.3623 0.0
H1649 H 0.19498 0.78867 0.31579 0.0
C1650 C 0.18825 0.69349 0.30852 0.0
C1651 C 0.17486 0.66793 0.31692 0.0
C1652 C 0.15221 0.66013 0.33009 0.0
C1653 C 0.14375 0.67799 0.33561 0.0
C1654 C 0.15791 0.70334 0.3275 0.0
C1655 C 0.17943 0.71091 0.31396 0.0
C1656 C 0.19225 0.73957 0.30828 0.0
C1657 C 0.22185 0.75482 0.3154 0.0
C1658 C 0.18957 0.74304 0.28456 0.0
C1659 C 0.17504 0.74718 0.32113 0.0
C1660 C 0.15537 0.72611 0.3322 0.0
C1661 C 0.13901 0.72919 0.34687 0.0
C1662 C 0.14312 0.75447 0.35043 0.0
C1663 C 0.16322 0.77615 0.3392 0.0
C1664 C 0.1789 0.77227 0.32409 0.0
H1665 H 0.86857 0.99922 0.39318 0.0
H1666 H 0.86459 0.05362 0.34959 0.0
H1667 H 0.82029 0.01841 0.33685 0.0
H1668 H 0.83877 0.94304 0.36042 0.0
H1669 H 0.82 0.92042 0.38121 0.0
H1670 H 0.85091 0.95001 0.38718 0.0
H1671 H 0.82599 0.96287 0.41461 0.0
H1672 H 0.79504 0.93323 0.40873 0.0
H1673 H 0.79674 0.9645 0.40662 0.0
H1674 H 0.7787 0.97581 0.32638 0.0
H1675 H 0.74029 0.93059 0.32218 0.0
H1676 H 0.76941 0.90525 0.37493 0.0
C1677 C 0.85815 1.0037 0.38113 0.0
C1678 C 0.86985 0.02904 0.3723 0.0
C1679 C 0.85576 0.03434 0.3566 0.0
C1680 C 0.83071 0.01445 0.34923 0.0
C1681 C 0.81984 0.98953 0.35804 0.0
C1682 C 0.83288 0.98424 0.37395 0.0
C1683 C 0.81677 0.95591 0.38092 0.0
C1684 C 0.83256 0.94151 0.3772 0.0
C1685 C 0.80812 0.95403 0.40409 0.0
C1686 C 0.79286 0.94597 0.36622 0.0
C1687 C 0.79514 0.96554 0.35294 0.0
C1688 C 0.77644 0.96048 0.33697 0.0
C1689 C 0.75479 0.93481 0.33464 0.0
C1690 C 0.75178 0.91477 0.34849 0.0
C1691 C 0.77099 0.92048 0.3645 0.0
H1692 H 0.04077 0.88738 0.38048 0.0
H1693 H 0.98174 0.80508 0.37192 0.0
H1694 H 0.01847 0.79546 0.3665 0.0
H1695 H 0.0849 0.89013 0.33999 0.0
H1696 H 0.11594 0.91176 0.3534 0.0
H1697 H 0.08614 0.91375 0.3586 0.0
H1698 H 0.08755 0.90614 0.39824 0.0
H1699 H 0.11861 0.90619 0.39418 0.0
H1700 H 0.09087 0.87891 0.40723 0.0
H1701 H 0.0619 0.79446 0.36394 0.0
H1702 H 0.1086 0.80256 0.36348 0.0
H1703 H 0.13901 0.88575 0.36986 0.0
C1704 C 0.03537 0.86731 0.37725 0.0
C1705 C 1.00806 0.847 0.37669 0.0
C1706 C 1.0023 0.821 0.37286 0.0
C1707 C 0.02309 0.81535 0.36951 0.0
C1708 C 0.04963 0.8359 0.36982 0.0
C1709 C 0.05582 0.86138 0.37358 0.0
C1710 C 0.08601 0.87996 0.37301 0.0
C1711 C 0.09373 0.9001 0.35519 0.0
C1712 C 0.09636 0.89359 0.39444 0.0
C1713 C 0.09584 0.8609 0.36847 0.0
C1714 C 0.07454 0.83555 0.36683 0.0
C1715 C 0.07867 0.81429 0.36457 0.0
C1716 C 0.1052 0.81905 0.36412 0.0
C1717 C 0.12723 0.84487 0.36521 0.0
C1718 C 0.12245 0.86599 0.36767 0.0
H1719 H 0.14627 0.16551 0.4123 0.0
H1720 H 0.1919 0.1558 0.36219 0.0
H1721 H 0.20273 0.1989 0.34748 0.0
H1722 H 0.11732 0.19619 0.38298 0.0
H1723 H 0.12069 0.218 0.40425 0.0
H1724 H 0.11776 0.18689 0.40998 0.0
H1725 H 0.16232 0.21214 0.43152 0.0
H1726 H 0.1652 0.24301 0.42439 0.0
H1727 H 0.19226 0.23683 0.41856 0.0
H1728 H 0.20479 0.2409 0.33652 0.0
H1729 H 0.20119 0.28069 0.3317 0.0
H1730 H 0.15597 0.26404 0.38984 0.0
C1731 C 0.1588 0.1727 0.39837 0.0
C1732 C 0.16826 0.15751 0.38826 0.0
C1733 C 0.18466 0.16737 0.37014 0.0
C1734 C 0.19082 0.19172 0.36169 0.0
C1735 C 0.1808 0.20608 0.37183 0.0
C1736 C 0.16554 0.19715 0.38999 0.0
C1737 C 0.15719 0.21634 0.39781 0.0
C1738 C 0.1264 0.20356 0.39876 0.0
C1739 C 0.17001 0.22776 0.41934 0.0
C1740 C 0.1691 0.23691 0.38069 0.0
C1741 C 0.18274 0.23068 0.3659 0.0
C1742 C 0.19441 0.24611 0.3481 0.0
C1743 C 0.19207 0.26848 0.34537 0.0
C1744 C 0.17825 0.27513 0.36035 0.0
C1745 C 0.16687 0.25935 0.37832 0.0
H1746 H 0.68505 0.51492 0.71501 0.0
H1747 H 0.63544 0.5476 0.73441 0.0
H1748 H 0.67166 0.5917 0.72449 0.0
H1749 H 0.74709 0.56734 0.73462 0.0
H1750 H 0.76733 0.56664 0.71317 0.0
H1751 H 0.73693 0.53727 0.72047 0.0
H1752 H 0.72079 0.53273 0.68227 0.0
H1753 H 0.74995 0.56303 0.67444 0.0
H1754 H 0.71662 0.55819 0.67051 0.0
H1755 H 0.71407 0.63244 0.71603 0.0
H1756 H 0.76041 0.66777 0.70875 0.0
H1757 H 0.78342 0.61004 0.69332 0.0
C1758 C 0.68172 0.53135 0.71679 0.0
C1759 C 0.65732 0.52779 0.72545 0.0
C1760 C 0.65392 0.54984 0.72791 0.0
C1761 C 0.67437 0.57497 0.72224 0.0
C1762 C 0.69827 0.57792 0.71409 0.0
C1763 C 0.70216 0.55679 0.71135 0.0
C1764 C 0.73044 0.56583 0.70321 0.0
C1765 C 0.74637 0.55885 0.71881 0.0
C1766 C 0.72943 0.55428 0.68129 0.0
C1767 C 0.74186 0.59531 0.70214 0.0
C1768 C 0.72282 0.60173 0.70848 0.0
C1769 C 0.72898 0.62766 0.71061 0.0
C1770 C 0.75534 0.6476 0.70647 0.0
C1771 C 0.77523 0.64169 0.69984 0.0
C1772 C 0.76834 0.61514 0.69753 0.0
H1773 H 0.46741 0.09637 0.73772 0.0
H1774 H 0.53455 0.16946 0.71576 0.0
H1775 H 0.50295 0.18393 0.70399 0.0
H1776 H 0.42252 0.08944 0.69401 0.0
H1777 H 0.39284 0.07512 0.7103 0.0
H1778 H 0.42072 0.07051 0.71687 0.0
H1779 H 0.42286 0.08956 0.75417 0.0
H1780 H 0.39504 0.09424 0.74765 0.0
H1781 H 0.42625 0.12153 0.75673 0.0
H1782 H 0.46388 0.19181 0.69712 0.0
H1783 H 0.42065 0.19067 0.69275 0.0
H1784 H 0.37831 0.11116 0.71624 0.0
C1785 C 0.47542 0.11541 0.73041 0.0
C1786 C 0.50352 0.13187 0.72776 0.0
C1787 C 0.51315 0.1565 0.7179 0.0
C1788 C 0.49534 0.16491 0.71122 0.0
C1789 C 0.46778 0.1483 0.71414 0.0
C1790 C 0.45783 0.12389 0.72323 0.0
C1791 C 0.42729 0.10961 0.72413 0.0
C1792 C 0.41513 0.08469 0.71052 0.0
C1793 C 0.41728 0.10337 0.74703 0.0
C1794 C 0.42164 0.13001 0.71463 0.0
C1795 C 0.44529 0.15223 0.70904 0.0
C1796 C 0.44525 0.17422 0.70099 0.0
C1797 C 0.42048 0.17334 0.69836 0.0
C1798 C 0.39588 0.15042 0.70315 0.0
C1799 C 0.39669 0.12867 0.71175 0.0
H1800 H 0.9047 0.36969 0.74436 0.0
H1801 H 0.82398 0.35486 0.73027 0.0
H1802 H 0.81471 0.31542 0.7111 0.0
H1803 H 0.91712 0.34354 0.69803 0.0
H1804 H 0.93215 0.32707 0.71138 0.0
H1805 H 0.93424 0.35605 0.72279 0.0
H1806 H 0.9124 0.33072 0.75722 0.0
H1807 H 0.91057 0.30177 0.74602 0.0
H1808 H 0.88059 0.30064 0.75596 0.0
H1809 H 0.81491 0.27954 0.69082 0.0
H1810 H 0.82031 0.24332 0.6777 0.0
H1811 H 0.89662 0.27499 0.71064 0.0
C1812 C 0.8849 0.35822 0.73757 0.0
C1813 C 0.8657 0.36677 0.73826 0.0
C1814 C 0.83999 0.35035 0.72908 0.0
C1815 C 0.83422 0.32743 0.71828 0.0
C1816 C 0.85381 0.32021 0.71743 0.0
C1817 C 0.87824 0.3345 0.72745 0.0
C1818 C 0.89465 0.32079 0.72564 0.0
C1819 C 0.92111 0.33789 0.71375 0.0
C1820 C 0.89985 0.31302 0.74751 0.0
C1821 C 0.87564 0.29682 0.71278 0.0
C1822 C 0.85252 0.29738 0.70782 0.0
C1823 C 0.83261 0.27849 0.69503 0.0
C1824 C 0.83593 0.25795 0.68761 0.0
C1825 C 0.85857 0.25584 0.69356 0.0
C1826 C 0.87887 0.27579 0.70614 0.0
H1827 H 0.21368 0.98923 0.61428 0.0
H1828 H 0.15855 0.96257 0.66753 0.0
H1829 H 0.18781 1.00388 0.68594 0.0
H1830 H 0.27416 0.01931 0.64654 0.0
H1831 H 0.29271 0.04596 0.62848 0.0
H1832 H 0.26677 0.01473 0.61873 0.0
H1833 H 0.24306 0.03735 0.60114 0.0
H1834 H 0.26886 0.06862 0.6109 0.0
H1835 H 0.23407 0.05727 0.61694 0.0
H1836 H 0.22187 0.04911 0.69815 0.0
H1837 H 0.26044 0.09289 0.70476 0.0
H1838 H 0.29695 0.08862 0.64604 0.0
C1839 C 0.20774 0.99171 0.62991 0.0
C1840 C 0.18316 0.9723 0.63908 0.0
C1841 C 0.17654 0.97708 0.65959 0.0
C1842 C 0.19326 1.00053 0.67037 0.0
C1843 C 0.21703 0.01912 0.66079 0.0
C1844 C 0.22453 0.01486 0.64117 0.0
C1845 C 0.25173 0.03777 0.63481 0.0
C1846 C 0.27258 0.02891 0.63198 0.0
C1847 C 0.24927 0.05103 0.61476 0.0
C1848 C 0.25822 0.05557 0.65392 0.0
C1849 C 0.23771 0.04451 0.66856 0.0
C1850 C 0.23832 0.05768 0.68699 0.0
C1851 C 0.26056 0.08261 0.69071 0.0
C1852 C 0.28243 0.09414 0.67638 0.0
C1853 C 0.28099 0.0803 0.65763 0.0
H1854 H 0.01612 0.17653 0.6518 0.0
H1855 H 0.0681 0.25942 0.64 0.0
H1856 H 0.03167 0.26772 0.65062 0.0
H1857 H 0.95693 0.17201 0.6312 0.0
H1858 H 0.9343 0.1494 0.65058 0.0
H1859 H 0.96506 0.14975 0.64431 0.0
H1860 H 0.97763 0.1563 0.68347 0.0
H1861 H 0.9477 0.15734 0.69039 0.0
H1862 H 0.98045 0.18422 0.6973 0.0
H1863 H 0.98874 0.26671 0.65758 0.0
H1864 H 0.94189 0.25672 0.66222 0.0
H1865 H 0.91636 0.17475 0.67131 0.0
C1866 C 0.01995 0.19647 0.65205 0.0
C1867 C 0.04511 0.21744 0.64528 0.0
C1868 C 0.04912 0.24316 0.64525 0.0
C1869 C 0.02852 0.24804 0.65127 0.0
C1870 C 1.00382 0.22701 0.65736 0.0
C1871 C 0.99937 0.20172 0.65795 0.0
C1872 C 0.97025 0.18261 0.66394 0.0
C1873 C 0.95581 0.16225 0.64644 0.0
C1874 C 0.96889 0.16931 0.68504 0.0
C1875 C 0.95894 0.20104 0.66596 0.0
C1876 C 0.97884 0.22658 0.66217 0.0
C1877 C 0.97314 0.24691 0.66109 0.0
C1878 C 0.94646 0.24106 0.66371 0.0
C1879 C 0.92567 0.21519 0.66778 0.0
C1880 C 0.93204 0.19489 0.66907 0.0
H1881 H 0.82501 0.82574 0.60979 0.0
H1882 H 0.85164 0.87791 0.6641 0.0
H1883 H 0.85838 0.84589 0.68384 0.0
H1884 H 0.78595 0.76711 0.64059 0.0
H1885 H 0.79335 0.74704 0.62353 0.0
H1886 H 0.79246 0.77493 0.61298 0.0
H1887 H 0.84087 0.79331 0.59858 0.0
H1888 H 0.84187 0.7655 0.60917 0.0
H1889 H 0.86744 0.79819 0.61638 0.0
H1890 H 0.86445 0.80873 0.6973 0.0
H1891 H 0.86384 0.7674 0.70465 0.0
H1892 H 0.82673 0.73715 0.64378 0.0
C1893 C 0.83189 0.83054 0.6259 0.0
C1894 C 0.83817 0.85494 0.63503 0.0
C1895 C 0.8475 0.86 0.65622 0.0
C1896 C 0.85118 0.84174 0.66775 0.0
C1897 C 0.8449 0.8181 0.65819 0.0
C1898 C 0.83498 0.81225 0.63788 0.0
C1899 C 0.82841 0.78484 0.63164 0.0
C1900 C 0.79825 0.76745 0.62691 0.0
C1901 C 0.84568 0.78552 0.61283 0.0
C1902 C 0.83625 0.77626 0.65162 0.0
C1903 C 0.84618 0.79588 0.66661 0.0
C1904 C 0.85612 0.793 0.68585 0.0
C1905 C 0.85553 0.76932 0.68997 0.0
C1906 C 0.8444 0.74849 0.6752 0.0
C1907 C 0.83479 0.75227 0.65573 0.0
H1908 H 0.99689 0.84426 0.65577 0.0
H1909 H 0.04712 0.81821 0.62502 0.0
H1910 H 0.01412 0.7726 0.63441 0.0
H1911 H 0.97107 0.79647 0.69766 0.0
H1912 H 0.93738 0.79145 0.69655 0.0
H1913 H 0.96569 0.82272 0.68949 0.0
H1914 H 0.94542 0.82099 0.6529 0.0
H1915 H 0.91638 0.7903 0.65988 0.0
H1916 H 0.9351 0.79265 0.63636 0.0
H1917 H 0.97337 0.72922 0.64398 0.0
H1918 H 0.92832 0.69203 0.65241 0.0
H1919 H 0.90399 0.74614 0.67579 0.0
C1920 C 1.00114 0.8291 0.6509 0.0
C1921 C 0.02494 0.83522 0.63952 0.0
C1922 C 0.02951 0.81444 0.634 0.0
C1923 C 1.01071 0.78833 0.63918 0.0
C1924 C 0.98728 0.7831 0.64989 0.0
C1925 C 0.98243 0.80294 0.65564 0.0
C1926 C 0.95487 0.79203 0.66576 0.0
C1927 C 0.95739 0.80121 0.68875 0.0
C1928 C 0.93689 0.79943 0.65296 0.0
C1929 C 0.94474 0.76287 0.66452 0.0
C1930 C 0.96385 0.75815 0.65547 0.0
C1931 C 0.95848 0.73275 0.65137 0.0
C1932 C 0.93284 0.71174 0.65621 0.0
C1933 C 0.91282 0.71608 0.6652 0.0
C1934 C 0.91905 0.74205 0.6696 0.0
H1935 H 0.1707 0.14452 0.66405 0.0
H1936 H 0.19442 0.22629 0.65492 0.0
H1937 H 0.24209 0.23796 0.65661 0.0
H1938 H 0.21854 0.15605 0.70242 0.0
H1939 H 0.22671 0.13138 0.69459 0.0
H1940 H 0.19371 0.1267 0.68952 0.0
H1941 H 0.19671 0.12121 0.6498 0.0
H1942 H 0.22871 0.1232 0.65395 0.0
H1943 H 0.22588 0.14484 0.63542 0.0
H1944 H 0.2876 0.2407 0.65911 0.0
H1945 H 0.32691 0.23451 0.66332 0.0
H1946 H 0.27371 0.15186 0.67502 0.0
C1947 C 0.18575 0.16498 0.66249 0.0
C1948 C 0.17833 0.18445 0.65939 0.0
C1949 C 0.19915 0.21082 0.65696 0.0
C1950 C 0.22642 0.2177 0.65809 0.0
C1951 C 0.23281 0.19809 0.66177 0.0
C1952 C 0.21303 0.17224 0.66389 0.0
C1953 C 0.22516 0.155 0.6686 0.0
C1954 C 0.21549 0.14146 0.69007 0.0
C1955 C 0.21873 0.13488 0.65088 0.0
C1956 C 0.25494 0.17523 0.66901 0.0
C1957 C 0.25889 0.19991 0.66467 0.0
C1958 C 0.28466 0.22153 0.66281 0.0
C1959 C 0.30687 0.21786 0.66525 0.0
C1960 C 0.30341 0.19293 0.67013 0.0
C1961 C 0.27701 0.17132 0.67205 0.0
H1962 H 0.88281 0.03937 0.61436 0.0
H1963 H 0.84173 0.98379 0.66467 0.0
H1964 H 0.8291 0.01438 0.68082 0.0
H1965 H 0.9104 0.09702 0.64465 0.0
H1966 H 0.9052 0.11593 0.62481 0.0
H1967 H 0.90932 0.08879 0.61714 0.0
H1968 H 0.86383 0.06906 0.59705 0.0
H1969 H 0.85975 0.0961 0.6054 0.0
H1970 H 0.83394 0.06299 0.61108 0.0
H1971 H 0.82521 0.05292 0.69339 0.0
H1972 H 0.827 0.09517 0.69987 0.0
H1973 H 0.86899 0.12508 0.64074 0.0
C1974 C 0.87083 0.03355 0.62862 0.0
C1975 C 0.8632 0.00924 0.63831 0.0
C1976 C 0.84751 1.0022 0.65692 0.0
C1977 C 0.84037 0.01949 0.66622 0.0
C1978 C 0.84868 0.04355 0.65652 0.0
C1979 C 0.86316 0.05039 0.63792 0.0
C1980 C 0.86995 0.07757 0.63086 0.0
C1981 C 0.90054 0.0959 0.62931 0.0
C1982 C 0.85603 0.07635 0.60985 0.0
C1983 C 0.85796 0.08538 0.64882 0.0
C1984 C 0.84571 0.06543 0.66343 0.0
C1985 C 0.83446 0.06853 0.68194 0.0
C1986 C 0.83578 0.09263 0.68561 0.0
C1987 C 0.84814 0.11318 0.67083 0.0
C1988 C 0.8591 0.10942 0.65211 0.0
H1989 H 0.53962 0.33508 0.69314 0.0
H1990 H 0.51068 0.38738 0.7126 0.0
H1991 H 0.46436 0.34986 0.71331 0.0
H1992 H 0.48548 0.29757 0.65688 0.0
H1993 H 0.48544 0.26762 0.66262 0.0
H1994 H 0.51601 0.29857 0.66518 0.0
H1995 H 0.52001 0.28629 0.70385 0.0
H1996 H 0.48892 0.25575 0.70115 0.0
H1997 H 0.49277 0.2782 0.72198 0.0
H1998 H 0.42042 0.30565 0.71181 0.0
H1999 H 0.38347 0.26012 0.70606 0.0
H2000 H 0.44125 0.2387 0.6836 0.0
C2001 C 0.52372 0.33902 0.69731 0.0
C2002 C 0.52931 0.36464 0.70279 0.0
C2003 C 0.50744 0.36815 0.7087 0.0
C2004 C 0.48088 0.34689 0.70898 0.0
C2005 C 0.47625 0.32215 0.70308 0.0
C2006 C 0.49712 0.31824 0.69717 0.0
C2007 C 0.48689 0.29007 0.69059 0.0
C2008 C 0.49387 0.28839 0.66743 0.0
C2009 C 0.4978 0.2768 0.70527 0.0
C2010 C 0.45692 0.27869 0.69353 0.0
C2011 C 0.45113 0.29733 0.7011 0.0
C2012 C 0.42479 0.29101 0.70573 0.0
C2013 C 0.40392 0.2651 0.70246 0.0
C2014 C 0.40941 0.2459 0.69423 0.0
C2015 C 0.43632 0.25296 0.68968 0.0
H2016 H 0.65205 0.09361 0.70613 0.0
H2017 H 0.66181 0.17134 0.7052 0.0
H2018 H 0.71123 0.19057 0.70253 0.0
H2019 H 0.71373 0.1123 0.73791 0.0
H2020 H 0.72062 0.08962 0.724 0.0
H2021 H 0.68643 0.08249 0.72724 0.0
H2022 H 0.68005 0.07685 0.68712 0.0
H2023 H 0.71453 0.08537 0.6831 0.0
H2024 H 0.70122 0.10354 0.66994 0.0
H2025 H 0.75934 0.201 0.69709 0.0
H2026 H 0.80268 0.20225 0.69363 0.0
H2027 H 0.76249 0.11799 0.69912 0.0
C2028 C 0.6647 0.11471 0.70588 0.0
C2029 C 0.65314 0.13106 0.70605 0.0
C2030 C 0.67027 0.15853 0.70544 0.0
C2031 C 0.69833 0.16957 0.70373 0.0
C2032 C 0.70903 0.15289 0.70302 0.0
C2033 C 0.6928 0.12606 0.70461 0.0
C2034 C 0.7094 0.1125 0.70358 0.0
C2035 C 0.70743 0.0984 0.72442 0.0
C2036 C 0.70081 0.09346 0.68481 0.0
C2037 C 0.73744 0.13581 0.70046 0.0
C2038 C 0.73672 0.1589 0.70013 0.0
C2039 C 0.76002 0.18299 0.69725 0.0
C2040 C 0.78462 0.18354 0.69491 0.0
C2041 C 0.78599 0.16025 0.69515 0.0
C2042 C 0.76203 0.1361 0.69838 0.0
H2043 H 0.82573 0.51128 0.75135 0.0
H2044 H 0.85863 0.48997 0.69838 0.0
H2045 H 0.86635 0.52986 0.67941 0.0
H2046 H 0.79087 0.53599 0.72242 0.0
H2047 H 0.79843 0.56247 0.74045 0.0
H2048 H 0.79685 0.533 0.7499 0.0
H2049 H 0.84521 0.56068 0.76491 0.0
H2050 H 0.8467 0.5901 0.75526 0.0
H2051 H 0.87214 0.5823 0.74762 0.0
H2052 H 0.86635 0.57 0.66505 0.0
H2053 H 0.86361 0.60997 0.65814 0.0
H2054 H 0.83252 0.60577 0.72111 0.0
C2055 C 0.83492 0.51527 0.73588 0.0
C2056 C 0.84164 0.49766 0.72627 0.0
C2057 C 0.85363 0.50342 0.70604 0.0
C2058 C 0.8579 0.52589 0.69514 0.0
C2059 C 0.85043 0.54255 0.70485 0.0
C2060 C 0.83967 0.53776 0.72494 0.0
C2061 C 0.83326 0.55864 0.73186 0.0
C2062 C 0.80306 0.5468 0.73641 0.0
C2063 C 0.85035 0.57383 0.75105 0.0
C2064 C 0.84156 0.57565 0.71237 0.0
C2065 C 0.85126 0.56599 0.69688 0.0
C2066 C 0.85905 0.57786 0.67714 0.0
C2067 C 0.85718 0.60034 0.67325 0.0
C2068 C 0.84782 0.6107 0.68909 0.0
C2069 C 0.83998 0.59824 0.70885 0.0
H2070 H 0.4455 0.93892 0.25971 0.0
H2071 H 0.45868 0.8746 0.24361 0.0
H2072 H 0.47718 0.89506 0.20921 0.0
H2073 H 0.42468 0.94645 0.20763 0.0
H2074 H 0.44102 0.98162 0.20935 0.0
H2075 H 0.42909 0.96211 0.23291 0.0
H2076 H 0.47678 0.98797 0.24915 0.0
H2077 H 0.48885 0.00754 0.22564 0.0
H2078 H 0.50498 0.98996 0.23499 0.0
H2079 H 0.49427 0.92244 0.17637 0.0
H2080 H 0.50926 0.95507 0.14779 0.0
H2081 H 0.48368 1.00098 0.18451 0.0
C2082 C 0.45216 0.92906 0.24893 0.0
C2083 C 0.45083 0.90521 0.25458 0.0
C2084 C 0.45997 0.89312 0.23996 0.0
C2085 C 0.47032 0.90449 0.22025 0.0
C2086 C 0.47138 0.92797 0.21524 0.0
C2087 C 0.46254 0.94014 0.22913 0.0
C2088 C 0.46593 0.96529 0.21981 0.0
C2089 C 0.43855 0.96376 0.21727 0.0
C2090 C 0.48529 0.9891 0.23319 0.0
C2091 C 0.47814 0.9654 0.19855 0.0
C2092 C 0.48104 0.94365 0.19622 0.0
C2093 C 0.49198 0.93949 0.17799 0.0
C2094 C 0.50027 0.95808 0.16175 0.0
C2095 C 0.49763 0.98065 0.16375 0.0
C2096 C 0.48628 0.98415 0.18248 0.0
H2097 H 0.13628 0.52145 0.2348 0.0
H2098 H 0.10102 0.56637 0.25918 0.0
H2099 H 0.07545 0.55849 0.22608 0.0
H2100 H 0.14237 0.54227 0.18079 0.0
H2101 H 0.13361 0.51063 0.17014 0.0
H2102 H 0.14979 0.52051 0.19548 0.0
H2103 H 0.11082 0.47886 0.21251 0.0
H2104 H 0.09462 0.46877 0.18721 0.0
H2105 H 0.07672 0.47204 0.20929 0.0
H2106 H 0.05301 0.54492 0.19043 0.0
H2107 H 0.03393 0.52498 0.15581 0.0
H2108 H 0.08375 0.48881 0.15505 0.0
C2109 C 0.123 0.52945 0.23331 0.0
C2110 C 0.1207 0.54457 0.24963 0.0
C2111 C 0.10339 0.555 0.24681 0.0
C2112 C 0.08872 0.55058 0.22809 0.0
C2113 C 0.09156 0.53567 0.21231 0.0
C2114 C 0.10819 0.52518 0.21476 0.0
C2115 C 0.10722 0.50936 0.19562 0.0
C2116 C 0.13489 0.52142 0.18487 0.0
C2117 C 0.09671 0.48055 0.20151 0.0
C2118 C 0.08722 0.51235 0.18209 0.0
C2119 C 0.07857 0.52775 0.1919 0.0
C2120 C 0.05974 0.53292 0.18256 0.0
C2121 C 0.04915 0.52166 0.16283 0.0
C2122 C 0.05733 0.50533 0.15271 0.0
C2123 C 0.07691 0.50101 0.16244 0.0
H2124 H 0.50462 0.60718 0.23741 0.0
H2125 H 0.44844 0.52885 0.26005 0.0
H2126 H 0.453 0.51048 0.22653 0.0
H2127 H 0.48706 0.59692 0.18197 0.0
H2128 H 0.52147 0.61606 0.17333 0.0
H2129 H 0.51125 0.62359 0.19801 0.0
H2130 H 0.54826 0.61895 0.21752 0.0
H2131 H 0.55869 0.61156 0.19293 0.0
H2132 H 0.54947 0.58912 0.21472 0.0
H2133 H 0.46501 0.50014 0.19089 0.0
H2134 H 0.48683 0.49874 0.15751 0.0
H2135 H 0.53853 0.58293 0.16 0.0
C2136 C 0.49328 0.58614 0.23558 0.0
C2137 C 0.47587 0.56966 0.25164 0.0
C2138 C 0.4613 0.5422 0.24799 0.0
C2139 C 0.46389 0.53146 0.22897 0.0
C2140 C 0.48142 0.54827 0.21371 0.0
C2141 C 0.4961 0.575 0.2169 0.0
C2142 C 0.51531 0.58859 0.19878 0.0
C2143 C 0.50835 0.6074 0.18735 0.0
C2144 C 0.54466 0.60289 0.20645 0.0
C2145 C 0.50941 0.56528 0.18503 0.0
C2146 C 0.48939 0.54223 0.19371 0.0
C2147 C 0.48065 0.51807 0.18394 0.0
C2148 C 0.49302 0.51742 0.16501 0.0
C2149 C 0.51413 0.54071 0.15632 0.0
C2150 C 0.52226 0.56491 0.16636 0.0
H2151 H 0.90453 0.40903 0.80975 0.0
H2152 H 0.93975 0.47913 0.77131 0.0
H2153 H 0.97464 0.50251 0.79842 0.0
H2154 H 0.91428 0.44196 0.85935 0.0
H2155 H 0.92198 0.4202 0.87373 0.0
H2156 H 0.90045 0.40844 0.85093 0.0
H2157 H 0.93176 0.39368 0.8339 0.0
H2158 H 0.95328 0.40523 0.85672 0.0
H2159 H 0.96705 0.41704 0.83088 0.0
H2160 H 1.00581 0.51813 0.82926 0.0
H2161 H 0.03085 0.5255 0.86264 0.0
H2162 H 0.97431 0.44623 0.88229 0.0
C2163 C 0.91982 0.4292 0.807 0.0
C2164 C 0.91966 0.4423 0.78841 0.0
C2165 C 0.93962 0.46882 0.78546 0.0
C2166 C 0.95948 0.48221 0.80074 0.0
C2167 C 0.95894 0.46888 0.819 0.0
C2168 C 0.93961 0.44301 0.82228 0.0
C2169 C 0.9432 0.43359 0.84363 0.0
C2170 C 0.91851 0.42558 0.85774 0.0
C2171 C 0.94918 0.41105 0.84112 0.0
C2172 C 0.96757 0.45821 0.8518 0.0
C2173 C 0.97641 0.47824 0.83723 0.0
C2174 C 0.99901 0.50265 0.84084 0.0
C2175 C 1.01308 0.50666 0.85979 0.0
C2176 C 1.00433 0.4865 0.87498 0.0
C2177 C 0.98115 0.46204 0.871 0.0
H2178 H 0.59422 0.51177 0.78005 0.0
H2179 H 0.58838 0.43642 0.7907 0.0
H2180 H 0.57212 0.43583 0.82692 0.0
H2181 H 0.6211 0.53818 0.82959 0.0
H2182 H 0.60365 0.55635 0.83203 0.0
H2183 H 0.61157 0.54912 0.80634 0.0
H2184 H 0.56124 0.52693 0.79591 0.0
H2185 H 0.55315 0.53402 0.82165 0.0
H2186 H 0.53641 0.50083 0.81196 0.0
H2187 H 0.55981 0.44547 0.86337 0.0
H2188 H 0.55488 0.46535 0.89637 0.0
H2189 H 0.57007 0.53456 0.86152 0.0
C2190 C 0.58947 0.49504 0.78991 0.0
C2191 C 0.59262 0.47412 0.78239 0.0
C2192 C 0.5858 0.45253 0.79588 0.0
C2193 C 0.57662 0.45206 0.81655 0.0
C2194 C 0.57423 0.47326 0.82353 0.0
C2195 C 0.58049 0.49434 0.81053 0.0
C2196 C 0.57806 0.51555 0.82208 0.0
C2197 C 0.60521 0.54131 0.82254 0.0
C2198 C 0.55589 0.51956 0.81232 0.0
C2199 C 0.57012 0.50347 0.84378 0.0
C2200 C 0.56758 0.47891 0.84432 0.0
C2201 C 0.56149 0.46457 0.86303 0.0
C2202 C 0.55857 0.47592 0.88168 0.0
C2203 C 0.56209 0.50146 0.8815 0.0
C2204 C 0.5673 0.51501 0.86216 0.0
H2205 H 0.49639 0.07153 0.78553 0.0
H2206 H 0.58202 0.12499 0.79227 0.0
H2207 H 0.58043 0.10856 0.82839 0.0
H2208 H 0.47749 0.07528 0.83997 0.0
H2209 H 0.4526 0.04098 0.84106 0.0
H2210 H 0.46021 0.05818 0.81631 0.0
H2211 H 0.47084 0.02416 0.79976 0.0
H2212 H 0.46333 0.00691 0.82445 0.0
H2213 H 0.49551 0.01811 0.81204 0.0
H2214 H 0.56963 0.08527 0.86363 0.0
H2215 H 0.55096 0.05571 0.89429 0.0
H2216 H 0.47248 0.01696 0.86441 0.0
C2217 C 0.51471 0.08006 0.79475 0.0
C2218 C 0.53933 0.09968 0.78612 0.0
C2219 C 0.56297 0.10992 0.79853 0.0
C2220 C 0.56223 0.10078 0.8191 0.0
C2221 C 0.53771 0.08126 0.82707 0.0
C2222 C 0.51438 0.07095 0.81525 0.0
C2223 C 0.49092 0.04917 0.8271 0.0
C2224 C 0.46901 0.05634 0.83137 0.0
C2225 C 0.47949 0.02305 0.81512 0.0
C2226 C 0.50469 0.0487 0.84735 0.0
C2227 C 0.53163 0.06752 0.84712 0.0
C2228 C 0.54853 0.07055 0.86399 0.0
C2229 C 0.5377 0.05375 0.88142 0.0
C2230 C 0.51024 0.03395 0.88185 0.0
C2231 C 0.49359 0.0317 0.86456 0.0
H2232 H 0.14579 0.25012 0.58886 0.0
H2233 H 0.06123 0.20586 0.57244 0.0
H2234 H 0.07186 0.22374 0.53636 0.0
H2235 H 0.16018 0.30703 0.56149 0.0
H2236 H 0.19312 0.31471 0.55254 0.0
H2237 H 0.17956 0.29623 0.57638 0.0
H2238 H 0.18632 0.25897 0.56154 0.0
H2239 H 0.20016 0.27746 0.53769 0.0
H2240 H 0.17197 0.24458 0.53636 0.0
H2241 H 0.09078 0.24974 0.50337 0.0
H2242 H 0.11682 0.28114 0.47539 0.0
H2243 H 0.18973 0.30771 0.51221 0.0
C2244 C 0.12966 0.2437 0.57747 0.0
C2245 C 0.10267 0.22657 0.58344 0.0
C2246 C 0.08202 0.21905 0.56823 0.0
C2247 C 0.08787 0.22903 0.54767 0.0
C2248 C 0.11453 0.24647 0.54243 0.0
C2249 C 0.13517 0.25359 0.55679 0.0
C2250 C 0.16187 0.27389 0.54738 0.0
C2251 C 0.17441 0.29948 0.56021 0.0
C2252 C 0.18122 0.26307 0.54564 0.0
C2253 C 0.15286 0.27751 0.52576 0.0
C2254 C 0.12552 0.26135 0.52319 0.0
C2255 C 0.11231 0.26215 0.50503 0.0
C2256 C 0.12738 0.28003 0.48911 0.0
C2257 C 0.15551 0.29698 0.49131 0.0
C2258 C 0.1683 0.2953 0.50991 0.0
H2259 H 0.80799 0.85248 0.56321 0.0
H2260 H 0.77812 0.90345 0.58383 0.0
H2261 H 0.75138 0.89356 0.55108 0.0
H2262 H 0.81539 0.87026 0.50933 0.0
H2263 H 0.80499 0.83785 0.49956 0.0
H2264 H 0.8205 0.84772 0.52511 0.0
H2265 H 0.77944 0.80795 0.54221 0.0
H2266 H 0.7639 0.79783 0.51667 0.0
H2267 H 0.74621 0.80308 0.53789 0.0
H2268 H 0.72896 0.87904 0.51539 0.0
H2269 H 0.71181 0.8602 0.48012 0.0
H2270 H 0.75761 0.81987 0.48267 0.0
C2271 C 0.79539 0.86115 0.56104 0.0
C2272 C 0.795 0.87862 0.57613 0.0
C2273 C 0.77877 0.89006 0.57245 0.0
C2274 C 0.76349 0.88453 0.55392 0.0
C2275 C 0.7647 0.86756 0.5392 0.0
C2276 C 0.78017 0.85597 0.5426 0.0
C2277 C 0.7787 0.83913 0.52402 0.0
C2278 C 0.80655 0.84936 0.51391 0.0
C2279 C 0.76632 0.81029 0.53059 0.0
C2280 C 0.76004 0.8431 0.5096 0.0
C2281 C 0.75213 0.85952 0.51863 0.0
C2282 C 0.73503 0.86615 0.50817 0.0
C2283 C 0.72557 0.85553 0.48806 0.0
C2284 C 0.73328 0.83849 0.47855 0.0
C2285 C 0.75093 0.83247 0.48955 0.0
H2286 H 0.13432 0.88948 0.56386 0.0
H2287 H 0.20388 0.91088 0.60358 0.0
H2288 H 0.22324 0.89585 0.57594 0.0
H2289 H 0.13009 0.83006 0.54274 0.0
H2290 H 0.11976 0.83428 0.51692 0.0
H2291 H 0.11137 0.84693 0.53979 0.0
H2292 H 0.13438 0.89304 0.52287 0.0
H2293 H 0.14306 0.88058 0.50004 0.0
H2294 H 0.16896 0.90786 0.51452 0.0
H2295 H 0.23588 0.87983 0.54369 0.0
H2296 H 0.23978 0.86135 0.50996 0.0
H2297 H 0.16086 0.84751 0.49158 0.0
C2298 C 0.15345 0.8907 0.56692 0.0
C2299 C 0.16761 0.90166 0.58599 0.0
C2300 C 0.1928 0.90312 0.58906 0.0
C2301 C 0.20393 0.89448 0.57346 0.0
C2302 C 0.18963 0.88416 0.55483 0.0
C2303 C 0.16482 0.88198 0.55154 0.0
C2304 C 0.15357 0.86986 0.53012 0.0
C2305 C 0.12713 0.84373 0.53254 0.0
C2306 C 0.14977 0.88898 0.51606 0.0
C2307 C 0.17598 0.86566 0.52187 0.0
C2308 C 0.19662 0.87419 0.53638 0.0
C2309 C 0.21969 0.87279 0.53232 0.0
C2310 C 0.22162 0.86205 0.51309 0.0
C2311 C 0.2005 0.85251 0.49805 0.0
C2312 C 0.17747 0.85467 0.50257 0.0
H2313 H 0.59078 0.79335 0.14286 0.0
H2314 H 0.63707 0.7723 0.10108 0.0
H2315 H 0.67298 0.78766 0.12763 0.0
H2316 H 0.6483 0.85353 0.16142 0.0
H2317 H 0.63523 0.85028 0.18777 0.0
H2318 H 0.61249 0.83655 0.16581 0.0
H2319 H 0.58965 0.7912 0.18404 0.0
H2320 H 0.61257 0.80473 0.20593 0.0
H2321 H 0.60976 0.77695 0.19174 0.0
H2322 H 0.70326 0.80378 0.15894 0.0
H2323 H 0.7287 0.82472 0.19123 0.0
H2324 H 0.66523 0.83956 0.21156 0.0
C2325 C 0.60857 0.79223 0.13911 0.0
C2326 C 0.61069 0.78109 0.11987 0.0
C2327 C 0.63441 0.77996 0.11585 0.0
C2328 C 0.65507 0.78879 0.13081 0.0
C2329 C 0.65206 0.79914 0.14968 0.0
C2330 C 0.62966 0.80135 0.15376 0.0
C2331 C 0.63206 0.81431 0.17498 0.0
C2332 C 0.63203 0.84021 0.17233 0.0
C2333 C 0.60968 0.79568 0.19006 0.0
C2334 C 0.65934 0.81902 0.18214 0.0
C2335 C 0.67029 0.80977 0.16739 0.0
C2336 C 0.69508 0.81146 0.17048 0.0
C2337 C 0.70946 0.82355 0.18887 0.0
C2338 C 0.69931 0.83431 0.20388 0.0
C2339 C 0.67361 0.83151 0.20054 0.0
H2340 H 0.28647 0.83251 0.14301 0.0
H2341 H 0.21153 0.78233 0.11029 0.0
H2342 H 0.18635 0.78793 0.13938 0.0
H2343 H 0.26118 0.81037 0.19608 0.0
H2344 H 0.28055 0.84243 0.2077 0.0
H2345 H 0.29293 0.83393 0.18464 0.0
H2346 H 0.29683 0.87409 0.16493 0.0
H2347 H 0.28461 0.88279 0.18795 0.0
H2348 H 0.26777 0.8781 0.16301 0.0
H2349 H 0.16922 0.8006 0.17089 0.0
H2350 H 0.16129 0.81947 0.20309 0.0
H2351 H 0.24676 0.86085 0.21636 0.0
C2352 C 0.26477 0.82274 0.14194 0.0
C2353 C 0.25101 0.80683 0.12431 0.0
C2354 C 0.22255 0.79426 0.1237 0.0
C2355 C 0.20805 0.79741 0.14014 0.0
C2356 C 0.22218 0.81313 0.15725 0.0
C2357 C 0.24989 0.82557 0.15833 0.0
C2358 C 0.26008 0.84173 0.17841 0.0
C2359 C 0.27454 0.8315 0.19254 0.0
C2360 C 0.2784 0.87091 0.17326 0.0
C2361 C 0.23378 0.83669 0.18828 0.0
C2362 C 0.21219 0.82009 0.17575 0.0
C2363 C 0.18593 0.81338 0.18093 0.0
C2364 C 0.1816 0.82416 0.19923 0.0
C2365 C 0.20334 0.84129 0.21228 0.0
C2366 C 0.22975 0.84738 0.20685 0.0
H2367 H 0.17536 0.41574 0.11483 0.0
H2368 H 0.25601 0.47873 0.12918 0.0
H2369 H 0.25291 0.45943 0.16432 0.0
H2370 H 0.14818 0.41465 0.16597 0.0
H2371 H 0.12606 0.37968 0.16575 0.0
H2372 H 0.13554 0.39757 0.14132 0.0
H2373 H 0.15322 0.36765 0.12728 0.0
H2374 H 0.14381 0.34967 0.15167 0.0
H2375 H 0.17796 0.3643 0.14232 0.0
H2376 H 0.24031 0.4326 0.19857 0.0
H2377 H 0.21953 0.40155 0.22807 0.0
H2378 H 0.14558 0.35977 0.19199 0.0
C2379 C 0.19239 0.42581 0.12531 0.0
C2380 C 0.21596 0.44893 0.11898 0.0
C2381 C 0.23786 0.46081 0.1333 0.0
C2382 C 0.2362 0.4501 0.15345 0.0
C2383 C 0.21243 0.4276 0.15922 0.0
C2384 C 0.1909 0.41573 0.14553 0.0
C2385 C 0.16724 0.39226 0.1556 0.0
C2386 C 0.14282 0.39629 0.15726 0.0
C2387 C 0.16015 0.36698 0.1435 0.0
C2388 C 0.17879 0.39262 0.17711 0.0
C2389 C 0.20492 0.41299 0.17893 0.0
C2390 C 0.21976 0.41671 0.19731 0.0
C2391 C 0.20764 0.39904 0.21411 0.0
C2392 C 0.18078 0.37795 0.21259 0.0
C2393 C 0.16627 0.37518 0.19378 0.0
H2394 H 0.79948 0.56184 0.90305 0.0
H2395 H 0.76849 0.61119 0.926 0.0
H2396 H 0.7838 0.63712 0.8935 0.0
H2397 H 0.86017 0.61564 0.88074 0.0
H2398 H 0.86093 0.59658 0.85878 0.0
H2399 H 0.8461 0.58078 0.8834 0.0
H2400 H 0.80187 0.54932 0.86391 0.0
H2401 H 0.81645 0.56525 0.83926 0.0
H2402 H 0.78542 0.56266 0.84822 0.0
H2403 H 0.80139 0.65736 0.85798 0.0
H2404 H 0.82535 0.67379 0.824 0.0
H2405 H 0.849 0.61464 0.8255 0.0
C2406 C 0.79611 0.57824 0.9015 0.0
C2407 C 0.78207 0.58385 0.9172 0.0
C2408 C 0.77823 0.60563 0.91411 0.0
C2409 C 0.78706 0.62072 0.89568 0.0
C2410 C 0.8003 0.61431 0.88047 0.0
C2411 C 0.80532 0.59393 0.88333 0.0
C2412 C 0.82131 0.59211 0.86496 0.0
C2413 C 0.84876 0.59655 0.87242 0.0
C2414 C 0.8053 0.56577 0.85341 0.0
C2415 C 0.82441 0.61461 0.85135 0.0
C2416 C 0.81175 0.6269 0.86046 0.0
C2417 C 0.81147 0.64797 0.85074 0.0
C2418 C 0.82495 0.65708 0.83143 0.0
C2419 C 0.83877 0.64535 0.82221 0.0
C2420 C 0.83838 0.62378 0.83224 0.0
H2421 H 0.43564 0.23247 0.92142 0.0
H2422 H 0.48553 0.20032 0.90164 0.0
H2423 H 0.46848 0.19586 0.86526 0.0
H2424 H 0.37962 0.19024 0.8926 0.0
H2425 H 0.3695 0.21361 0.88542 0.0
H2426 H 0.3886 0.21836 0.90911 0.0
H2427 H 0.42493 0.26431 0.8963 0.0
H2428 H 0.40573 0.25987 0.87265 0.0
H2429 H 0.44031 0.26774 0.87084 0.0
H2430 H 0.44151 0.18892 0.83272 0.0
H2431 H 0.40818 0.18201 0.80551 0.0
H2432 H 0.37662 0.22039 0.84548 0.0
C2433 C 0.44361 0.22536 0.90922 0.0
C2434 C 0.46201 0.21688 0.91423 0.0
C2435 C 0.47147 0.20696 0.89805 0.0
C2436 C 0.46194 0.2044 0.87737 0.0
C2437 C 0.44304 0.212 0.87306 0.0
C2438 C 0.4342 0.22259 0.88844 0.0
C2439 C 0.41219 0.22717 0.87998 0.0
C2440 C 0.38593 0.2114 0.89252 0.0
C2441 C 0.42135 0.25652 0.87994 0.0
C2442 C 0.40946 0.21669 0.85772 0.0
C2443 C 0.42761 0.20825 0.85403 0.0
C2444 C 0.42765 0.19606 0.83522 0.0
C2445 C 0.40863 0.19235 0.81976 0.0
C2446 C 0.38977 0.20089 0.82306 0.0
C2447 C 0.39056 0.21349 0.84232 0.0
H2448 H 0.8275 0.22535 0.92263 0.0
H2449 H 0.77471 0.25292 0.9005 0.0
H2450 H 0.78149 0.24316 0.86366 0.0
H2451 H 0.87469 0.25128 0.88273 0.0
H2452 H 0.88059 0.22407 0.88066 0.0
H2453 H 0.86932 0.23057 0.90521 0.0
H2454 H 0.82846 0.18342 0.90552 0.0
H2455 H 0.83978 0.17663 0.88106 0.0
H2456 H 0.80624 0.17167 0.88309 0.0
H2457 H 0.79952 0.23619 0.8291 0.0
H2458 H 0.82364 0.22907 0.80008 0.0
H2459 H 0.86113 0.20182 0.84521 0.0
C2460 C 0.81687 0.2287 0.91002 0.0
C2461 C 0.80047 0.23971 0.91427 0.0
C2462 C 0.78707 0.24416 0.89748 0.0
C2463 C 0.79091 0.23878 0.87656 0.0
C2464 C 0.80779 0.2285 0.87282 0.0
C2465 C 0.8201 0.223 0.88916 0.0
C2466 C 0.83798 0.21284 0.88098 0.0
C2467 C 0.86737 0.23076 0.8878 0.0
C2468 C 0.82748 0.18445 0.88808 0.0
C2469 C 0.83461 0.21436 0.85745 0.0
C2470 C 0.81716 0.22343 0.85302 0.0
C2471 C 0.81267 0.22842 0.83239 0.0
C2472 C 0.82642 0.22411 0.81593 0.0
C2473 C 0.84436 0.21463 0.82006 0.0
C2474 C 0.84794 0.20933 0.84122 0.0
H2475 H 0.22888 0.08165 0.48018 0.0
H2476 H 0.26556 0.1504 0.44029 0.0
H2477 H 0.2991 0.17485 0.46827 0.0
H2478 H 0.23849 0.11682 0.53024 0.0
H2479 H 0.24502 0.09429 0.54467 0.0
H2480 H 0.22316 0.08308 0.52202 0.0
H2481 H 0.25266 0.06608 0.50508 0.0
H2482 H 0.2746 0.07726 0.52761 0.0
H2483 H 0.28816 0.08827 0.50159 0.0
H2484 H 0.33134 0.18989 0.49924 0.0
H2485 H 0.35775 0.1954 0.53166 0.0
H2486 H 0.2982 0.11745 0.55186 0.0
C2487 C 0.24385 0.10194 0.47746 0.0
C2488 C 0.24486 0.11421 0.45812 0.0
C2489 C 0.26451 0.14079 0.45507 0.0
C2490 C 0.2836 0.15474 0.47084 0.0
C2491 C 0.28234 0.14189 0.48963 0.0
C2492 C 0.2627 0.11618 0.49309 0.0
C2493 C 0.26599 0.1066 0.51439 0.0
C2494 C 0.24172 0.0998 0.52867 0.0
C2495 C 0.27064 0.08318 0.51201 0.0
C2496 C 0.29099 0.1307 0.52222 0.0
C2497 C 0.30017 0.15087 0.50772 0.0
C2498 C 0.32405 0.17442 0.51086 0.0
C2499 C 0.33893 0.17736 0.52923 0.0
C2500 C 0.32971 0.15698 0.54426 0.0
C2501 C 0.30531 0.13352 0.54079 0.0
H2502 H 0.94228 0.16987 0.46685 0.0
H2503 H 0.87114 0.11031 0.43456 0.0
H2504 H 0.8433 0.10783 0.46497 0.0
H2505 H 0.92236 0.14357 0.51979 0.0
H2506 H 0.93584 0.17527 0.53207 0.0
H2507 H 0.95077 0.17169 0.5082 0.0
H2508 H 0.94386 0.20722 0.4901 0.0
H2509 H 0.92913 0.21105 0.51395 0.0
H2510 H 0.91075 0.20352 0.4895 0.0
H2511 H 0.82272 0.11269 0.4979 0.0
H2512 H 0.8103 0.126 0.53102 0.0
H2513 H 0.89415 0.1828 0.5425 0.0
C2514 C 0.92084 0.15636 0.46614 0.0
C2515 C 0.909 0.14007 0.44829 0.0
C2516 C 0.88084 0.12259 0.44814 0.0
C2517 C 0.8648 0.1211 0.46533 0.0
C2518 C 0.8771 0.13723 0.48266 0.0
C2519 C 0.90444 0.15462 0.48322 0.0
C2520 C 0.91232 0.17037 0.50357 0.0
C2521 C 0.93146 0.16489 0.51668 0.0
C2522 C 0.92474 0.19978 0.499 0.0
C2523 C 0.88507 0.15934 0.51418 0.0
C2524 C 0.86511 0.14011 0.50184 0.0
C2525 C 0.83817 0.12761 0.50776 0.0
C2526 C 0.83131 0.1353 0.52657 0.0
C2527 C 0.85126 0.15532 0.53932 0.0
C2528 C 0.87856 0.16716 0.53321 0.0
H2529 H 0.84749 0.78031 0.45811 0.0
H2530 H 0.91797 0.77402 0.44332 0.0
H2531 H 0.91361 0.75253 0.4776 0.0
H2532 H 0.85795 0.79067 0.51413 0.0
H2533 H 0.82275 0.77059 0.52032 0.0
H2534 H 0.83285 0.7876 0.49549 0.0
H2535 H 0.80452 0.74378 0.47552 0.0
H2536 H 0.79421 0.72668 0.50026 0.0
H2537 H 0.81012 0.71682 0.48063 0.0
H2538 H 0.90066 0.73049 0.51362 0.0
H2539 H 0.87813 0.7069 0.54646 0.0
H2540 H 0.81447 0.72474 0.53584 0.0
C2541 C 0.86198 0.77427 0.46183 0.0
C2542 C 0.88316 0.77905 0.44778 0.0
C2543 C 0.90184 0.77115 0.4538 0.0
C2544 C 0.89946 0.75877 0.47326 0.0
C2545 C 0.87819 0.7542 0.48655 0.0
C2546 C 0.85966 0.76154 0.48096 0.0
C2547 C 0.83768 0.75307 0.49738 0.0
C2548 C 0.83784 0.7769 0.50742 0.0
C2549 C 0.81 0.73395 0.48788 0.0
C2550 C 0.84652 0.73949 0.51299 0.0
C2551 C 0.87018 0.74071 0.50669 0.0
C2552 C 0.88214 0.72944 0.51866 0.0
C2553 C 0.86931 0.71619 0.53731 0.0
C2554 C 0.84459 0.71398 0.54359 0.0
C2555 C 0.83331 0.72606 0.53134 0.0
loop_
_geom_bond_atom_site_label_1
_geom_bond_atom_site_label_2
_geom_bond_distance
_geom_bond_site_symmetry_2
_ccdc_geom_bond_type
H0 C1 0.949 . S
C1 H0 0.949 . S
C1 C2 1.395 . S
C1 C3 1.391 . S
C2 C1 1.395 . S
C2 C5 1.390 . S
C3 C1 1.391 . S
C3 C7 1.387 . S
C3 C8 1.491 . S
H4 C5 0.950 . S
C5 C2 1.390 . S
C5 H4 0.950 . S
C5 C6 1.378 . S
C6 C5 1.378 . S
C6 C7 1.409 . S
C7 C3 1.387 . S
C7 C6 1.409 . S
C7 H9 0.951 . S
C8 C3 1.491 . S
C8 C10 1.382 . S
C8 C12 1.404 . S
H9 C7 0.951 . S
C10 C8 1.382 . S
C10 C11 1.390 . S
C10 H15 0.949 . S
C11 C10 1.390 . S
C11 C16 1.399 . S
C12 C8 1.404 . S
C12 H13 0.950 . S
C12 C14 1.375 . S
H13 C12 0.950 . S
C14 C12 1.375 . S
C14 C16 1.382 . S
C14 H18 0.950 . S
H15 C10 0.949 . S
C16 C11 1.399 . S
C16 C14 1.382 . S
C16 H17 0.952 . S
H17 C16 0.952 . S
H18 C14 0.950 . S
H19 C20 0.949 . S
C20 H19 0.949 . S
C20 C21 1.395 . S
C20 C22 1.391 . S
C21 C20 1.395 . S
C21 C24 1.390 . S
C22 C20 1.391 . S
C22 C26 1.387 . S
C22 C27 1.491 . S
H23 C24 0.950 . S
C24 C21 1.390 . S
C24 H23 0.950 . S
C24 C25 1.378 . S
C25 C24 1.378 . S
C25 C26 1.409 . S
C26 C22 1.387 . S
C26 C25 1.409 . S
C26 H28 0.951 . S
C27 C22 1.491 . S
C27 C29 1.382 . S
C27 C31 1.404 . S
H28 C26 0.951 . S
C29 C27 1.382 . S
C29 C30 1.390 . S
C29 H34 0.949 . S
C30 C29 1.390 . S
C30 C35 1.399 . S
C31 C27 1.404 . S
C31 H32 0.950 . S
C31 C33 1.375 . S
H32 C31 0.950 . S
C33 C31 1.375 . S
C33 C35 1.382 . S
C33 H37 0.950 . S
H34 C29 0.949 . S
C35 C30 1.399 . S
C35 C33 1.382 . S
C35 H36 0.952 1_545 S
H36 C35 0.952 1_565 S
H37 C33 0.950 . S
H38 C39 0.949 . S
C39 H38 0.949 . S
C39 C40 1.395 . S
C39 C41 1.391 . S
C40 C39 1.395 . S
C40 C43 1.390 . S
C41 C39 1.391 . S
C41 C45 1.387 . S
C41 C46 1.491 . S
H42 C43 0.950 . S
C43 C40 1.390 . S
C43 H42 0.950 . S
C43 C44 1.378 . S
C44 C43 1.378 . S
C44 C45 1.409 . S
C45 C41 1.387 . S
C45 C44 1.409 . S
C45 H47 0.951 . S
C46 C41 1.491 . S
C46 C48 1.382 . S
C46 C50 1.404 . S
H47 C45 0.951 . S
C48 C46 1.382 . S
C48 C49 1.390 . S
C48 H53 0.949 . S
C49 C48 1.390 . S
C49 C54 1.399 1_655 S
C50 C46 1.404 . S
C50 H51 0.950 . S
C50 C52 1.375 . S
H51 C50 0.950 . S
C52 C50 1.375 . S
C52 C54 1.382 1_655 S
C52 H56 0.950 . S
H53 C48 0.949 . S
C54 C49 1.399 1_455 S
C54 C52 1.382 1_455 S
C54 H55 0.952 . S
H55 C54 0.952 . S
H56 C52 0.950 . S
H57 C58 0.949 . S
C58 H57 0.949 . S
C58 C59 1.395 . S
C58 C60 1.391 . S
C59 C58 1.395 . S
C59 C62 1.390 . S
C60 C58 1.391 . S
C60 C64 1.387 . S
C60 C65 1.491 . S
H61 C62 0.950 . S
C62 C59 1.390 . S
C62 H61 0.950 . S
C62 C63 1.378 . S
C63 C62 1.378 . S
C63 C64 1.409 . S
C64 C60 1.387 . S
C64 C63 1.409 . S
C64 H66 0.951 . S
C65 C60 1.491 . S
C65 C67 1.382 . S
C65 C69 1.404 . S
H66 C64 0.951 . S
C67 C65 1.382 . S
C67 C68 1.390 . S
C67 H72 0.949 . S
C68 C67 1.390 . S
C68 C73 1.399 . S
C69 C65 1.404 . S
C69 H70 0.950 . S
C69 C71 1.375 . S
H70 C69 0.950 . S
C71 C69 1.375 . S
C71 C73 1.382 . S
C71 H75 0.950 . S
H72 C67 0.949 . S
C73 C68 1.399 . S
C73 C71 1.382 . S
C73 H74 0.952 . S
H74 C73 0.952 . S
H75 C71 0.950 . S
H76 C77 0.949 . S
C77 H76 0.949 . S
C77 C78 1.395 . S
C77 C79 1.391 . S
C78 C77 1.395 . S
C78 C81 1.390 . S
C79 C77 1.391 . S
C79 C83 1.387 . S
C79 C84 1.491 . S
H80 C81 0.950 . S
C81 C78 1.390 . S
C81 H80 0.950 . S
C81 C82 1.378 . S
C82 C81 1.378 . S
C82 C83 1.409 . S
C83 C79 1.387 . S
C83 C82 1.409 . S
C83 H85 0.951 . S
C84 C79 1.491 . S
C84 C86 1.382 . S
C84 C88 1.404 . S
H85 C83 0.951 . S
C86 C84 1.382 . S
C86 C87 1.390 . S
C86 H91 0.949 . S
C87 C86 1.390 . S
C87 C92 1.399 . S
C88 C84 1.404 . S
C88 H89 0.950 . S
C88 C90 1.375 . S
H89 C88 0.950 . S
C90 C88 1.375 . S
C90 C92 1.382 . S
C90 H94 0.950 . S
H91 C86 0.949 . S
C92 C87 1.399 . S
C92 C90 1.382 . S
C92 H93 0.952 1_565 S
H93 C92 0.952 1_545 S
H94 C90 0.950 . S
H95 C96 0.949 . S
C96 H95 0.949 . S
C96 C97 1.395 . S
C96 C98 1.391 . S
C97 C96 1.395 . S
C97 C100 1.390 . S
C98 C96 1.391 . S
C98 C102 1.387 . S
C98 C103 1.491 . S
H99 C100 0.950 . S
C100 C97 1.390 . S
C100 H99 0.950 . S
C100 C101 1.378 . S
C101 C100 1.378 . S
C101 C102 1.409 . S
C102 C98 1.387 . S
C102 C101 1.409 . S
C102 H104 0.951 . S
C103 C98 1.491 . S
C103 C105 1.382 . S
C103 C107 1.404 . S
H104 C102 0.951 . S
C105 C103 1.382 . S
C105 C106 1.390 . S
C105 H110 0.949 . S
C106 C105 1.390 . S
C106 C111 1.399 . S
C107 C103 1.404 . S
C107 H108 0.950 . S
C107 C109 1.375 . S
H108 C107 0.950 . S
C109 C107 1.375 . S
C109 C111 1.382 . S
C109 H113 0.950 . S
H110 C105 0.949 . S
C111 C106 1.399 . S
C111 C109 1.382 . S
C111 H112 0.952 1_455 S
H112 C111 0.952 1_655 S
H113 C109 0.950 . S
H114 C115 0.949 . S
C115 H114 0.949 . S
C115 C116 1.395 . S
C115 C117 1.391 . S
C116 C115 1.395 . S
C116 C119 1.390 . S
C117 C115 1.391 . S
C117 C121 1.387 . S
C117 C122 1.491 . S
H118 C119 0.950 . S
C119 C116 1.390 . S
C119 H118 0.950 . S
C119 C120 1.378 . S
C120 C119 1.378 . S
C120 C121 1.409 . S
C121 C117 1.387 . S
C121 C120 1.409 . S
C121 H123 0.951 . S
C122 C117 1.491 . S
C122 C124 1.382 . S
C122 C126 1.404 . S
H123 C121 0.951 . S
C124 C122 1.382 . S
C124 C125 1.390 . S
C124 H129 0.949 . S
C125 C124 1.390 . S
C125 C130 1.399 . S
C126 C122 1.404 . S
C126 H127 0.950 . S
C126 C128 1.375 . S
H127 C126 0.950 . S
C128 C126 1.375 . S
C128 C130 1.382 . S
C128 H132 0.950 . S
H129 C124 0.949 . S
C130 C125 1.399 . S
C130 C128 1.382 . S
C130 H131 0.952 . S
H131 C130 0.952 . S
H132 C128 0.950 . S
H133 C134 0.949 . S
C134 H133 0.949 . S
C134 C135 1.395 . S
C134 C136 1.391 . S
C135 C134 1.395 . S
C135 C138 1.390 . S
C136 C134 1.391 . S
C136 C140 1.387 . S
C136 C141 1.491 . S
H137 C138 0.950 . S
C138 C135 1.390 . S
C138 H137 0.950 . S
C138 C139 1.378 . S
C139 C138 1.378 . S
C139 C140 1.409 . S
C140 C136 1.387 . S
C140 C139 1.409 . S
C140 H142 0.951 . S
C141 C136 1.491 . S
C141 C143 1.382 . S
C141 C145 1.404 . S
H142 C140 0.951 . S
C143 C141 1.382 . S
C143 C144 1.390 . S
C143 H148 0.949 . S
C144 C143 1.390 . S
C144 C149 1.399 . S
C145 C141 1.404 . S
C145 H146 0.950 . S
C145 C147 1.375 . S
H146 C145 0.950 . S
C147 C145 1.375 . S
C147 C149 1.382 . S
C147 H151 0.950 . S
H148 C143 0.949 . S
C149 C144 1.399 . S
C149 C147 1.382 . S
C149 H150 0.952 . S
H150 C149 0.952 . S
H151 C147 0.950 . S
H152 C153 0.949 . S
C153 H152 0.949 . S
C153 C154 1.395 . S
C153 C155 1.391 . S
C154 C153 1.395 . S
C154 C157 1.390 . S
C155 C153 1.391 . S
C155 C159 1.387 . S
C155 C160 1.491 . S
H156 C157 0.950 . S
C157 C154 1.390 . S
C157 H156 0.950 . S
C157 C158 1.378 . S
C158 C157 1.378 . S
C158 C159 1.409 . S
C159 C155 1.387 . S
C159 C158 1.409 . S
C159 H161 0.951 . S
C160 C155 1.491 . S
C160 C162 1.382 . S
C160 C164 1.404 . S
H161 C159 0.951 . S
C162 C160 1.382 . S
C162 C163 1.390 . S
C162 H167 0.949 . S
C163 C162 1.390 . S
C163 C168 1.399 . S
C164 C160 1.404 . S
C164 H165 0.950 . S
C164 C166 1.375 . S
H165 C164 0.950 . S
C166 C164 1.375 . S
C166 C168 1.382 . S
C166 H170 0.950 . S
H167 C162 0.949 . S
C168 C163 1.399 . S
C168 C166 1.382 . S
C168 H169 0.952 . S
H169 C168 0.952 . S
H170 C166 0.950 . S
H171 C172 0.949 . S
C172 H171 0.949 . S
C172 C173 1.395 . S
C172 C174 1.391 . S
C173 C172 1.395 . S
C173 C176 1.390 . S
C174 C172 1.391 . S
C174 C178 1.387 . S
C174 C179 1.491 . S
H175 C176 0.950 . S
C176 C173 1.390 . S
C176 H175 0.950 . S
C176 C177 1.378 . S
C177 C176 1.378 . S
C177 C178 1.409 . S
C178 C174 1.387 . S
C178 C177 1.409 . S
C178 H180 0.951 . S
C179 C174 1.491 . S
C179 C181 1.382 . S
C179 C183 1.404 . S
H180 C178 0.951 . S
C181 C179 1.382 . S
C181 C182 1.390 . S
C181 H186 0.949 . S
C182 C181 1.390 . S
C182 C187 1.399 . S
C183 C179 1.404 . S
C183 H184 0.950 . S
C183 C185 1.375 . S
H184 C183 0.950 . S
C185 C183 1.375 . S
C185 C187 1.382 . S
C185 H189 0.950 . S
H186 C181 0.949 . S
C187 C182 1.399 . S
C187 C185 1.382 . S
C187 H188 0.952 . S
H188 C187 0.952 . S
H189 C185 0.950 . S
H190 C191 0.949 . S
C191 H190 0.949 . S
C191 C192 1.395 . S
C191 C193 1.391 . S
C192 C191 1.395 . S
C192 C195 1.390 . S
C193 C191 1.391 . S
C193 C197 1.387 . S
C193 C198 1.491 . S
H194 C195 0.950 . S
C195 C192 1.390 . S
C195 H194 0.950 . S
C195 C196 1.378 . S
C196 C195 1.378 . S
C196 C197 1.409 . S
C197 C193 1.387 . S
C197 C196 1.409 . S
C197 H199 0.951 . S
C198 C193 1.491 . S
C198 C200 1.382 . S
C198 C202 1.404 . S
H199 C197 0.951 . S
C200 C198 1.382 . S
C200 C201 1.390 . S
C200 H205 0.949 . S
C201 C200 1.390 . S
C201 C206 1.399 . S
C202 C198 1.404 . S
C202 H203 0.950 . S
C202 C204 1.375 . S
H203 C202 0.950 . S
C204 C202 1.375 . S
C204 C206 1.382 . S
C204 H208 0.950 1_556 S
H205 C200 0.949 . S
C206 C201 1.399 . S
C206 C204 1.382 . S
C206 H207 0.952 1_556 S
H207 C206 0.952 1_554 S
H208 C204 0.950 1_554 S
H209 C210 0.949 . S
C210 H209 0.949 . S
C210 C211 1.395 . S
C210 C212 1.391 . S
C211 C210 1.395 . S
C211 C214 1.390 . S
C212 C210 1.391 . S
C212 C216 1.387 . S
C212 C217 1.491 . S
H213 C214 0.950 . S
C214 C211 1.390 . S
C214 H213 0.950 . S
C214 C215 1.378 . S
C215 C214 1.378 . S
C215 C216 1.409 . S
C216 C212 1.387 . S
C216 C215 1.409 . S
C216 H218 0.951 . S
C217 C212 1.491 . S
C217 C219 1.382 . S
C217 C221 1.404 . S
H218 C216 0.951 . S
C219 C217 1.382 . S
C219 C220 1.390 . S
C219 H224 0.949 . S
C220 C219 1.390 . S
C220 C225 1.399 . S
C221 C217 1.404 . S
C221 H222 0.950 . S
C221 C223 1.375 . S
H222 C221 0.950 . S
C223 C221 1.375 . S
C223 C225 1.382 . S
C223 H227 0.950 . S
H224 C219 0.949 . S
C225 C220 1.399 . S
C225 C223 1.382 . S
C225 H226 0.952 . S
H226 C225 0.952 . S
H227 C223 0.950 . S
H228 C229 0.949 . S
C229 H228 0.949 . S
C229 C230 1.395 . S
C229 C231 1.391 . S
C230 C229 1.395 . S
C230 C233 1.390 . S
C231 C229 1.391 . S
C231 C235 1.387 . S
C231 C236 1.491 . S
H232 C233 0.950 . S
C233 C230 1.390 . S
C233 H232 0.950 . S
C233 C234 1.378 . S
C234 C233 1.378 . S
C234 C235 1.409 . S
C235 C231 1.387 . S
C235 C234 1.409 . S
C235 H237 0.951 . S
C236 C231 1.491 . S
C236 C238 1.382 . S
C236 C240 1.404 . S
H237 C235 0.951 . S
C238 C236 1.382 . S
C238 C239 1.390 . S
C238 H243 0.949 . S
C239 C238 1.390 . S
C239 C244 1.399 . S
C240 C236 1.404 . S
C240 H241 0.950 . S
C240 C242 1.375 . S
H241 C240 0.950 . S
C242 C240 1.375 . S
C242 C244 1.382 . S
C242 H246 0.950 . S
H243 C238 0.949 . S
C244 C239 1.399 . S
C244 C242 1.382 . S
C244 H245 0.952 . S
H245 C244 0.952 . S
H246 C242 0.950 . S
H247 C248 0.949 . S
C248 H247 0.949 . S
C248 C249 1.395 . S
C248 C250 1.391 . S
C249 C248 1.395 . S
C249 C252 1.390 . S
C250 C248 1.391 . S
C250 C254 1.387 . S
C250 C255 1.491 . S
H251 C252 0.950 . S
C252 C249 1.390 . S
C252 H251 0.950 . S
C252 C253 1.378 . S
C253 C252 1.378 . S
C253 C254 1.409 . S
C254 C250 1.387 . S
C254 C253 1.409 . S
C254 H256 0.951 . S
C255 C250 1.491 . S
C255 C257 1.382 . S
C255 C259 1.404 . S
H256 C254 0.951 . S
C257 C255 1.382 . S
C257 C258 1.390 . S
C257 H262 0.949 . S
C258 C257 1.390 . S
C258 C263 1.399 . S
C259 C255 1.404 . S
C259 H260 0.950 . S
C259 C261 1.375 . S
H260 C259 0.950 . S
C261 C259 1.375 . S
C261 C263 1.382 . S
C261 H265 0.950 . S
H262 C257 0.949 . S
C263 C258 1.399 . S
C263 C261 1.382 . S
C263 H264 0.952 . S
H264 C263 0.952 . S
H265 C261 0.950 . S
H266 C267 0.949 . S
C267 H266 0.949 . S
C267 C268 1.395 . S
C267 C269 1.391 . S
C268 C267 1.395 . S
C268 C271 1.390 . S
C269 C267 1.391 . S
C269 C273 1.387 . S
C269 C274 1.491 . S
H270 C271 0.950 . S
C271 C268 1.390 . S
C271 H270 0.950 . S
C271 C272 1.378 . S
C272 C271 1.378 . S
C272 C273 1.409 . S
C273 C269 1.387 . S
C273 C272 1.409 . S
C273 H275 0.951 . S
C274 C269 1.491 . S
C274 C276 1.382 . S
C274 C278 1.404 . S
H275 C273 0.951 . S
C276 C274 1.382 . S
C276 C277 1.390 . S
C276 H281 0.949 . S
C277 C276 1.390 . S
C277 C282 1.399 . S
C278 C274 1.404 . S
C278 H279 0.950 . S
C278 C280 1.375 . S
H279 C278 0.950 . S
C280 C278 1.375 . S
C280 C282 1.382 . S
C280 H284 0.950 . S
H281 C276 0.949 . S
C282 C277 1.399 . S
C282 C280 1.382 . S
C282 H283 0.952 . S
H283 C282 0.952 . S
H284 C280 0.950 . S
H285 C286 0.949 . S
C286 H285 0.949 . S
C286 C287 1.395 . S
C286 C288 1.391 . S
C287 C286 1.395 . S
C287 C290 1.390 . S
C288 C286 1.391 . S
C288 C292 1.387 . S
C288 C293 1.491 . S
H289 C290 0.950 . S
C290 C287 1.390 . S
C290 H289 0.950 . S
C290 C291 1.378 . S
C291 C290 1.378 . S
C291 C292 1.409 . S
C292 C288 1.387 . S
C292 C291 1.409 . S
C292 H294 0.951 . S
C293 C288 1.491 . S
C293 C295 1.382 . S
C293 C297 1.404 . S
H294 C292 0.951 . S
C295 C293 1.382 . S
C295 C296 1.390 . S
C295 H300 0.949 . S
C296 C295 1.390 . S
C296 C301 1.399 . S
C297 C293 1.404 . S
C297 H298 0.950 . S
C297 C299 1.375 . S
H298 C297 0.950 . S
C299 C297 1.375 . S
C299 C301 1.382 . S
C299 H303 0.950 . S
H300 C295 0.949 . S
C301 C296 1.399 . S
C301 C299 1.382 . S
C301 H302 0.952 . S
H302 C301 0.952 . S
H303 C299 0.950 . S
H304 C305 0.949 . S
C305 H304 0.949 . S
C305 C306 1.395 . S
C305 C307 1.391 . S
C306 C305 1.395 . S
C306 C309 1.390 . S
C307 C305 1.391 . S
C307 C311 1.387 . S
C307 C312 1.491 . S
H308 C309 0.950 . S
C309 C306 1.390 . S
C309 H308 0.950 . S
C309 C310 1.378 . S
C310 C309 1.378 . S
C310 C311 1.409 . S
C311 C307 1.387 . S
C311 C310 1.409 . S
C311 H313 0.951 . S
C312 C307 1.491 . S
C312 C314 1.382 . S
C312 C316 1.404 . S
H313 C311 0.951 . S
C314 C312 1.382 . S
C314 C315 1.390 . S
C314 H319 0.949 . S
C315 C314 1.390 . S
C315 C320 1.399 . S
C316 C312 1.404 . S
C316 H317 0.950 . S
C316 C318 1.375 . S
H317 C316 0.950 . S
C318 C316 1.375 . S
C318 C320 1.382 . S
C318 H322 0.950 . S
H319 C314 0.949 . S
C320 C315 1.399 . S
C320 C318 1.382 . S
C320 H321 0.952 . S
H321 C320 0.952 . S
H322 C318 0.950 . S
H323 C324 0.949 . S
C324 H323 0.949 . S
C324 C325 1.395 . S
C324 C326 1.391 . S
C325 C324 1.395 . S
C325 C328 1.390 . S
C326 C324 1.391 . S
C326 C330 1.387 . S
C326 C331 1.491 . S
H327 C328 0.950 . S
C328 C325 1.390 . S
C328 H327 0.950 . S
C328 C329 1.378 . S
C329 C328 1.378 . S
C329 C330 1.409 . S
C330 C326 1.387 . S
C330 C329 1.409 . S
C330 H332 0.951 . S
C331 C326 1.491 . S
C331 C333 1.382 . S
C331 C335 1.404 . S
H332 C330 0.951 . S
C333 C331 1.382 . S
C333 C334 1.390 . S
C333 H338 0.949 . S
C334 C333 1.390 . S
C334 C339 1.399 . S
C335 C331 1.404 . S
C335 H336 0.950 . S
C335 C337 1.375 . S
H336 C335 0.950 . S
C337 C335 1.375 . S
C337 C339 1.382 . S
C337 H341 0.950 . S
H338 C333 0.949 . S
C339 C334 1.399 . S
C339 C337 1.382 . S
C339 H340 0.952 . S
H340 C339 0.952 . S
H341 C337 0.950 . S
Tb342 N373 2.660 . S
Tb342 N380 2.600 . S
Tb342 O386 2.546 . S
Tb342 O387 2.610 1_566 S
Tb342 O389 2.320 1_565 S
Tb342 O390 2.552 1_565 S
Tb342 O391 2.413 1_565 S
Tb342 O393 2.362 1_556 S
Tb342 O394 2.421 . S
Tb342 C406 2.833 1_565 S
C343 C346 1.432 . S
C343 C347 1.414 . S
C343 N350 1.359 . S
C344 C346 1.417 . S
C344 C348 1.432 . S
C344 C356 1.410 . S
C345 C347 1.444 . S
C345 C348 1.317 . S
C345 H368 0.929 . S
C346 C343 1.432 . S
C346 C344 1.417 . S
C346 N354 1.360 . S
C347 C343 1.414 . S
C347 C345 1.444 . S
C347 C352 1.385 . S
C348 C344 1.432 . S
C348 C345 1.317 . S
C348 H360 0.930 . S
C349 C351 1.392 . S
C349 C352 1.370 . S
C349 H361 0.931 . S
N350 C343 1.359 . S
N350 C351 1.327 . S
N350 Tb353 2.600 . S
C351 C349 1.392 . S
C351 N350 1.327 . S
C351 H358 0.930 . S
C352 C347 1.385 . S
C352 C349 1.370 . S
C352 H371 0.930 . S
Tb353 N350 2.600 . S
Tb353 N354 2.660 . S
Tb353 O387 2.362 . S
Tb353 O388 2.421 . S
Tb353 O392 2.546 . S
Tb353 O393 2.610 1_545 S
Tb353 O395 2.320 1_545 S
Tb353 O396 2.552 1_545 S
Tb353 O397 2.413 1_545 S
Tb353 C417 2.833 1_545 S
N354 C346 1.360 . S
N354 Tb353 2.660 . S
N354 C355 1.305 . S
C355 N354 1.305 . S
C355 C357 1.407 . S
C355 H362 0.930 . S
C356 C344 1.410 . S
C356 C357 1.345 . S
C356 H364 0.930 . S
C357 C355 1.407 . S
C357 C356 1.345 . S
C357 H359 0.930 . S
H358 C351 0.930 . S
H359 C357 0.930 . S
H360 C348 0.930 . S
H361 C349 0.931 . S
H362 C355 0.930 . S
H363 C377 0.930 . S
H364 C356 0.930 . S
H365 C383 0.930 . S
H366 C374 0.942 . S
H367 C381 0.931 . S
H368 C345 0.929 . S
H369 C375 0.930 . S
H370 C408 0.930 . S
H371 C352 0.930 . S
H372 C407 0.929 . S
N373 Tb342 2.660 . S
N373 C374 1.305 . S
N373 C378 1.360 . S
C374 H366 0.942 . S
C374 N373 1.305 . S
C374 C377 1.407 . S
C375 H369 0.930 . S
C375 C376 1.410 . S
C375 C377 1.345 . S
C376 C375 1.410 . S
C376 C378 1.417 . S
C376 C408 1.432 . S
C377 H363 0.930 . S
C377 C374 1.407 . S
C377 C375 1.345 . S
C378 N373 1.360 . S
C378 C376 1.417 . S
C378 C382 1.432 . S
H379 C384 0.930 . S
N380 Tb342 2.600 . S
N380 C382 1.359 . S
N380 C383 1.327 . S
C381 H367 0.931 . S
C381 C383 1.392 . S
C381 C384 1.370 . S
C382 C378 1.432 . S
C382 N380 1.359 . S
C382 C385 1.414 . S
C383 H365 0.930 . S
C383 N380 1.327 . S
C383 C381 1.392 . S
C384 H379 0.930 . S
C384 C381 1.370 . S
C384 C385 1.385 . S
C385 C382 1.414 . S
C385 C384 1.385 . S
C385 C407 1.444 . S
O386 Tb342 2.546 . S
O386 C406 1.251 1_565 S
O387 Tb342 2.610 1_544 S
O387 Tb353 2.362 . S
O387 C398 1.283 1_554 S
O388 Tb353 2.421 . S
O388 C405 1.262 . S
O389 Tb342 2.320 1_545 S
O389 C405 1.260 1_556 S
O390 Tb342 2.552 1_545 S
O390 C398 1.243 . S
O391 Tb342 2.413 1_545 S
O391 C406 1.256 . S
O392 Tb353 2.546 . S
O392 C417 1.250 1_545 S
O393 Tb342 2.362 1_554 S
O393 Tb353 2.610 1_565 S
O393 C409 1.283 . S
O394 Tb342 2.421 . S
O394 C416 1.262 1_556 S
O395 Tb353 2.320 1_565 S
O395 C416 1.260 . S
O396 Tb353 2.552 1_565 S
O396 C409 1.243 . S
O397 Tb353 2.413 1_565 S
O397 C417 1.257 . S
C398 O387 1.283 1_556 S
C398 O390 1.243 . S
C399 C401 1.382 . S
C399 C403 1.393 1_545 S
C399 C406 1.500 . S
C400 C401 1.400 . S
C400 C402 1.384 . S
C401 C399 1.382 . S
C401 C400 1.400 . S
C401 H418 0.930 . S
C402 C400 1.384 . S
C402 C404 1.392 . S
C402 H419 0.931 . S
C403 C399 1.393 1_565 S
C403 C404 1.401 1_565 S
C403 H420 0.930 . S
C404 C402 1.392 . S
C404 C403 1.401 1_545 S
C404 H421 0.930 1_545 S
C405 O388 1.262 . S
C405 O389 1.260 1_554 S
C406 Tb342 2.833 1_545 S
C406 O386 1.251 1_545 S
C406 O391 1.256 . S
C406 C399 1.500 . S
C407 H372 0.929 . S
C407 C385 1.444 . S
C407 C408 1.317 . S
C408 H370 0.930 . S
C408 C376 1.432 . S
C408 C407 1.317 . S
C409 O393 1.283 . S
C409 O396 1.243 . S
C410 C411 1.382 . S
C410 C414 1.393 1_565 S
C410 C417 1.500 . S
C411 C410 1.382 . S
C411 C412 1.400 . S
C411 H422 0.930 . S
C412 C411 1.400 . S
C412 C413 1.384 . S
C413 C412 1.384 . S
C413 C415 1.392 . S
C413 H423 0.931 . S
C414 C410 1.393 1_545 S
C414 C415 1.401 1_545 S
C414 H424 0.930 . S
C415 C413 1.392 . S
C415 C414 1.401 1_565 S
C415 H425 0.930 1_565 S
C416 O394 1.262 1_554 S
C416 O395 1.260 . S
C417 Tb353 2.833 1_565 S
C417 O392 1.250 1_565 S
C417 O397 1.257 . S
C417 C410 1.500 . S
H418 C401 0.930 . S
H419 C402 0.931 . S
H420 C403 0.930 . S
H421 C404 0.930 1_565 S
H422 C411 0.930 . S
H423 C413 0.931 . S
H424 C414 0.930 . S
H425 C415 0.930 1_545 S
Tb426 N457 2.660 . S
Tb426 N464 2.600 . S
Tb426 O470 2.546 . S
Tb426 O471 2.610 1_456 S
Tb426 O473 2.320 1_455 S
Tb426 O474 2.552 1_455 S
Tb426 O475 2.413 1_455 S
Tb426 O477 2.362 1_556 S
Tb426 O478 2.421 . S
Tb426 C490 2.833 . S
C427 C430 1.432 . S
C427 C431 1.414 . S
C427 N434 1.359 . S
C428 C430 1.417 . S
C428 C432 1.432 . S
C428 C440 1.410 . S
C429 C431 1.444 . S
C429 C432 1.317 . S
C429 H452 0.929 . S
C430 C427 1.432 . S
C430 C428 1.417 . S
C430 N438 1.360 . S
C431 C427 1.414 . S
C431 C429 1.444 . S
C431 C436 1.385 . S
C432 C428 1.432 . S
C432 C429 1.317 . S
C432 H444 0.930 . S
C433 C435 1.392 . S
C433 C436 1.370 . S
C433 H445 0.931 . S
N434 C427 1.359 . S
N434 C435 1.327 . S
N434 Tb437 2.600 . S
C435 C433 1.392 . S
C435 N434 1.327 . S
C435 H442 0.930 . S
C436 C431 1.385 . S
C436 C433 1.370 . S
C436 H455 0.930 . S
Tb437 N434 2.600 . S
Tb437 N438 2.660 . S
Tb437 O471 2.362 . S
Tb437 O472 2.421 . S
Tb437 O476 2.546 . S
Tb437 O477 2.610 1_655 S
Tb437 O479 2.320 1_655 S
Tb437 O480 2.552 1_655 S
Tb437 O481 2.413 1_655 S
Tb437 C501 2.833 1_655 S
N438 C430 1.360 . S
N438 Tb437 2.660 . S
N438 C439 1.305 . S
C439 N438 1.305 . S
C439 C441 1.407 . S
C439 H446 0.923 1_655 S
C440 C428 1.410 . S
C440 C441 1.345 . S
C440 H448 0.930 . S
C441 C439 1.407 . S
C441 C440 1.345 . S
C441 H443 0.930 . S
H442 C435 0.930 . S
H443 C441 0.930 . S
H444 C432 0.930 . S
H445 C433 0.931 . S
H446 C439 0.923 1_455 S
H447 C461 0.930 . S
H448 C440 0.930 . S
H449 C467 0.930 . S
H450 C458 0.930 . S
H451 C465 0.931 . S
H452 C429 0.929 . S
H453 C459 0.930 . S
H454 C492 0.930 . S
H455 C436 0.930 . S
H456 C491 0.929 . S
N457 Tb426 2.660 . S
N457 C458 1.305 . S
N457 C462 1.360 . S
C458 H450 0.930 . S
C458 N457 1.305 . S
C458 C461 1.407 . S
C459 H453 0.930 . S
C459 C460 1.410 . S
C459 C461 1.345 . S
C460 C459 1.410 . S
C460 C462 1.417 . S
C460 C492 1.432 . S
C461 H447 0.930 . S
C461 C458 1.407 . S
C461 C459 1.345 . S
C462 N457 1.360 . S
C462 C460 1.417 . S
C462 C466 1.432 . S
H463 C468 0.930 . S
N464 Tb426 2.600 . S
N464 C466 1.359 . S
N464 C467 1.327 . S
C465 H451 0.931 . S
C465 C467 1.392 . S
C465 C468 1.370 . S
C466 C462 1.432 . S
C466 N464 1.359 . S
C466 C469 1.414 . S
C467 H449 0.930 . S
C467 N464 1.327 . S
C467 C465 1.392 . S
C468 H463 0.930 . S
C468 C465 1.370 . S
C468 C469 1.385 . S
C469 C466 1.414 . S
C469 C468 1.385 . S
C469 C491 1.444 . S
O470 Tb426 2.546 . S
O470 C490 1.251 . S
O471 Tb426 2.610 1_654 S
O471 Tb437 2.362 . S
O471 C482 1.283 1_554 S
O472 Tb437 2.421 . S
O472 C489 1.262 . S
O473 Tb426 2.320 1_655 S
O473 C489 1.260 1_556 S
O474 Tb426 2.552 1_655 S
O474 C482 1.243 . S
O475 Tb426 2.413 1_655 S
O475 C490 1.256 1_655 S
O476 Tb437 2.546 . S
O476 C501 1.251 1_655 S
O477 Tb426 2.362 1_554 S
O477 Tb437 2.610 1_455 S
O477 C493 1.283 . S
O478 Tb426 2.421 . S
O478 C500 1.262 1_556 S
O479 Tb437 2.320 1_455 S
O479 C500 1.260 . S
O480 Tb437 2.552 1_455 S
O480 C493 1.243 . S
O481 Tb437 2.413 1_455 S
O481 C501 1.256 . S
C482 O471 1.283 1_556 S
C482 O474 1.243 . S
C483 C485 1.382 . S
C483 C487 1.393 1_655 S
C483 C490 1.500 1_655 S
C484 C485 1.400 . S
C484 C486 1.384 . S
C485 C483 1.382 . S
C485 C484 1.400 . S
C485 H502 0.930 . S
C486 C484 1.384 . S
C486 C488 1.392 1_655 S
C486 H503 0.931 . S
C487 C483 1.393 1_455 S
C487 C488 1.401 . S
C487 H504 0.930 . S
C488 C486 1.392 1_455 S
C488 C487 1.401 . S
C488 H505 0.930 . S
C489 O472 1.262 . S
C489 O473 1.260 1_554 S
C490 Tb426 2.833 . S
C490 O470 1.251 . S
C490 O475 1.256 1_455 S
C490 C483 1.500 1_455 S
C491 H456 0.929 . S
C491 C469 1.444 . S
C491 C492 1.317 . S
C492 H454 0.930 . S
C492 C460 1.432 . S
C492 C491 1.317 . S
C493 O477 1.283 . S
C493 O480 1.243 . S
C494 C495 1.382 . S
C494 C498 1.393 1_455 S
C494 C501 1.500 . S
C495 C494 1.382 . S
C495 C496 1.400 . S
C495 H506 0.930 . S
C496 C495 1.400 . S
C496 C497 1.384 . S
C497 C496 1.384 . S
C497 C499 1.392 . S
C497 H507 0.931 . S
C498 C494 1.393 1_655 S
C498 C499 1.401 1_655 S
C498 H508 0.930 . S
C499 C497 1.392 . S
C499 C498 1.401 1_455 S
C499 H509 0.930 1_455 S
C500 O478 1.262 1_554 S
C500 O479 1.260 . S
C501 Tb437 2.833 1_455 S
C501 O476 1.251 1_455 S
C501 O481 1.256 . S
C501 C494 1.500 . S
H502 C485 0.930 . S
H503 C486 0.931 . S
H504 C487 0.930 . S
H505 C488 0.930 . S
H506 C495 0.930 . S
H507 C497 0.931 . S
H508 C498 0.930 . S
H509 C499 0.930 1_655 S
Tb510 N541 2.660 . S
Tb510 N548 2.600 . S
Tb510 O554 2.546 . S
Tb510 O555 2.610 . S
Tb510 O557 2.320 . S
Tb510 O558 2.552 . S
Tb510 O559 2.413 . S
Tb510 O561 2.362 . S
Tb510 O562 2.421 . S
Tb510 C574 2.833 . S
C511 C514 1.432 . S
C511 C515 1.414 . S
C511 N518 1.359 . S
C512 C514 1.417 . S
C512 C516 1.432 . S
C512 C524 1.410 . S
C513 C515 1.444 . S
C513 C516 1.317 . S
C513 H536 0.929 . S
C514 C511 1.432 . S
C514 C512 1.417 . S
C514 N522 1.360 . S
C515 C511 1.414 . S
C515 C513 1.444 . S
C515 C520 1.385 . S
C516 C512 1.432 . S
C516 C513 1.317 . S
C516 H528 0.930 . S
C517 C519 1.392 . S
C517 C520 1.370 . S
C517 H529 0.931 . S
N518 C511 1.359 . S
N518 C519 1.327 . S
N518 Tb521 2.600 . S
C519 C517 1.392 . S
C519 N518 1.327 . S
C519 H526 0.930 . S
C520 C515 1.385 . S
C520 C517 1.370 . S
C520 H539 0.930 . S
Tb521 N518 2.600 . S
Tb521 N522 2.660 . S
Tb521 O555 2.362 1_556 S
Tb521 O556 2.421 . S
Tb521 O560 2.546 . S
Tb521 O561 2.610 1_556 S
Tb521 O563 2.320 . S
Tb521 O564 2.552 . S
Tb521 O565 2.413 . S
Tb521 C585 2.833 . S
N522 C514 1.360 . S
N522 Tb521 2.660 . S
N522 C523 1.305 . S
C523 N522 1.305 . S
C523 C525 1.407 . S
C523 H530 0.930 . S
C524 C512 1.410 . S
C524 C525 1.345 . S
C524 H532 0.930 . S
C525 C523 1.407 . S
C525 C524 1.345 . S
C525 H527 0.930 . S
H526 C519 0.930 . S
H527 C525 0.930 . S
H528 C516 0.930 . S
H529 C517 0.931 . S
H530 C523 0.930 . S
H531 C545 0.930 . S
H532 C524 0.930 . S
H533 C551 0.930 . S
H534 C542 0.930 . S
H535 C549 0.931 . S
H536 C513 0.929 . S
H537 C543 0.930 . S
H538 C576 0.930 . S
H539 C520 0.930 . S
H540 C575 0.929 . S
N541 Tb510 2.660 . S
N541 C542 1.305 . S
N541 C546 1.360 . S
C542 H534 0.930 . S
C542 N541 1.305 . S
C542 C545 1.407 . S
C543 H537 0.930 . S
C543 C544 1.410 . S
C543 C545 1.345 . S
C544 C543 1.410 . S
C544 C546 1.417 . S
C544 C576 1.432 . S
C545 H531 0.930 . S
C545 C542 1.407 . S
C545 C543 1.345 . S
C546 N541 1.360 . S
C546 C544 1.417 . S
C546 C550 1.432 . S
H547 C552 0.930 . S
N548 Tb510 2.600 . S
N548 C550 1.359 . S
N548 C551 1.327 . S
C549 H535 0.931 . S
C549 C551 1.392 . S
C549 C552 1.370 . S
C550 C546 1.432 . S
C550 N548 1.359 . S
C550 C553 1.414 . S
C551 H533 0.930 . S
C551 N548 1.327 . S
C551 C549 1.392 . S
C552 H547 0.930 . S
C552 C549 1.370 . S
C552 C553 1.385 . S
C553 C550 1.414 . S
C553 C552 1.385 . S
C553 C575 1.444 . S
O554 Tb510 2.546 . S
O554 C574 1.251 . S
O555 Tb510 2.610 . S
O555 Tb521 2.362 1_554 S
O555 C566 1.283 . S
O556 Tb521 2.421 . S
O556 C573 1.262 1_556 S
O557 Tb510 2.320 . S
O557 C573 1.260 . S
O558 Tb510 2.552 . S
O558 C566 1.243 . S
O559 Tb510 2.413 . S
O559 C574 1.256 . S
O560 Tb521 2.546 . S
O560 C585 1.251 . S
O561 Tb510 2.362 . S
O561 Tb521 2.610 1_554 S
O561 C577 1.283 1_554 S
O562 Tb510 2.421 . S
O562 C584 1.262 . S
O563 Tb521 2.320 . S
O563 C584 1.260 1_556 S
O564 Tb521 2.552 . S
O564 C577 1.243 . S
O565 Tb521 2.413 . S
O565 C585 1.256 . S
C566 O555 1.283 . S
C566 O558 1.243 . S
C567 C569 1.382 . S
C567 C571 1.393 . S
C567 C574 1.500 . S
C568 C569 1.400 . S
C568 C570 1.384 . S
C569 C567 1.382 . S
C569 C568 1.400 . S
C569 H586 0.930 . S
C570 C568 1.384 . S
C570 C572 1.392 . S
C570 H587 0.931 . S
C571 C567 1.393 . S
C571 C572 1.401 . S
C571 H588 0.930 . S
C572 C570 1.392 . S
C572 C571 1.401 . S
C572 H589 0.930 . S
C573 O556 1.262 1_554 S
C573 O557 1.260 . S
C574 Tb510 2.833 . S
C574 O554 1.251 . S
C574 O559 1.256 . S
C574 C567 1.500 . S
C575 H540 0.929 . S
C575 C553 1.444 . S
C575 C576 1.317 . S
C576 H538 0.930 . S
C576 C544 1.432 . S
C576 C575 1.317 . S
C577 O561 1.283 1_556 S
C577 O564 1.243 . S
C578 C579 1.382 . S
C578 C582 1.393 . S
C578 C585 1.500 . S
C579 C578 1.382 . S
C579 C580 1.400 . S
C579 H590 0.930 . S
C580 C579 1.400 . S
C580 C581 1.384 . S
C581 C580 1.384 . S
C581 C583 1.392 . S
C581 H591 0.931 . S
C582 C578 1.393 . S
C582 C583 1.401 . S
C582 H592 0.930 . S
C583 C581 1.392 . S
C583 C582 1.401 . S
C583 H593 0.930 . S
C584 O562 1.262 . S
C584 O563 1.260 1_554 S
C585 Tb521 2.833 . S
C585 O560 1.251 . S
C585 O565 1.256 . S
C585 C578 1.500 . S
H586 C569 0.930 . S
H587 C570 0.931 . S
H588 C571 0.930 . S
H589 C572 0.930 . S
H590 C579 0.930 . S
H591 C581 0.931 . S
H592 C582 0.930 . S
H593 C583 0.930 . S
Tb594 N625 2.660 . S
Tb594 N632 2.600 . S
Tb594 O638 2.546 . S
Tb594 O639 2.610 . S
Tb594 O641 2.320 . S
Tb594 O642 2.552 . S
Tb594 O643 2.413 . S
Tb594 O645 2.362 . S
Tb594 O646 2.421 . S
Tb594 C658 2.833 . S
C595 C598 1.432 . S
C595 C599 1.414 . S
C595 N602 1.359 . S
C596 C598 1.417 . S
C596 C600 1.432 . S
C596 C608 1.410 . S
C597 C599 1.444 . S
C597 C600 1.317 . S
C597 H620 0.929 . S
C598 C595 1.432 . S
C598 C596 1.417 . S
C598 N606 1.360 . S
C599 C595 1.414 . S
C599 C597 1.444 . S
C599 C604 1.385 . S
C600 C596 1.432 . S
C600 C597 1.317 . S
C600 H612 0.930 . S
C601 C603 1.392 . S
C601 C604 1.370 . S
C601 H613 0.931 . S
N602 C595 1.359 . S
N602 C603 1.327 . S
N602 Tb605 2.600 . S
C603 C601 1.392 . S
C603 N602 1.327 . S
C603 H610 0.930 . S
C604 C599 1.385 . S
C604 C601 1.370 . S
C604 H623 0.930 . S
Tb605 N602 2.600 . S
Tb605 N606 2.660 . S
Tb605 O639 2.362 . S
Tb605 O640 2.421 . S
Tb605 O644 2.546 . S
Tb605 O645 2.610 . S
Tb605 O647 2.320 . S
Tb605 O648 2.552 . S
Tb605 O649 2.413 . S
Tb605 C669 2.833 . S
N606 C598 1.360 . S
N606 Tb605 2.660 . S
N606 C607 1.305 . S
C607 N606 1.305 . S
C607 C609 1.407 . S
C607 H614 0.930 . S
C608 C596 1.410 . S
C608 C609 1.345 . S
C608 H616 0.930 . S
C609 C607 1.407 . S
C609 C608 1.345 . S
C609 H611 0.930 . S
H610 C603 0.930 . S
H611 C609 0.930 . S
H612 C600 0.930 . S
H613 C601 0.931 . S
H614 C607 0.930 . S
H615 C629 0.930 . S
H616 C608 0.930 . S
H617 C635 0.930 . S
H618 C626 0.930 . S
H619 C633 0.931 . S
H620 C597 0.929 . S
H621 C627 0.930 1_655 S
H622 C660 0.930 1_655 S
H623 C604 0.930 . S
H624 C659 0.929 . S
N625 Tb594 2.660 . S
N625 C626 1.305 . S
N625 C630 1.360 . S
C626 H618 0.930 . S
C626 N625 1.305 . S
C626 C629 1.407 . S
C627 H621 0.930 1_455 S
C627 C628 1.410 . S
C627 C629 1.345 . S
C628 C627 1.410 . S
C628 C630 1.417 . S
C628 C660 1.432 . S
C629 H615 0.930 . S
C629 C626 1.407 . S
C629 C627 1.345 . S
C630 N625 1.360 . S
C630 C628 1.417 . S
C630 C634 1.432 . S
H631 C636 0.930 . S
N632 Tb594 2.600 . S
N632 C634 1.359 . S
N632 C635 1.327 . S
C633 H619 0.931 . S
C633 C635 1.392 . S
C633 C636 1.370 . S
C634 C630 1.432 . S
C634 N632 1.359 . S
C634 C637 1.414 . S
C635 H617 0.930 . S
C635 N632 1.327 . S
C635 C633 1.392 . S
C636 H631 0.930 . S
C636 C633 1.370 . S
C636 C637 1.385 . S
C637 C634 1.414 . S
C637 C636 1.385 . S
C637 C659 1.444 . S
O638 Tb594 2.546 . S
O638 C658 1.251 . S
O639 Tb594 2.610 . S
O639 Tb605 2.362 . S
O639 C650 1.283 . S
O640 Tb605 2.421 . S
O640 C657 1.262 . S
O641 Tb594 2.320 . S
O641 C657 1.260 . S
O642 Tb594 2.552 . S
O642 C650 1.243 . S
O643 Tb594 2.413 . S
O643 C658 1.256 . S
O644 Tb605 2.546 . S
O644 C669 1.251 . S
O645 Tb594 2.362 . S
O645 Tb605 2.610 . S
O645 C661 1.283 . S
O646 Tb594 2.421 . S
O646 C668 1.262 . S
O647 Tb605 2.320 . S
O647 C668 1.260 . S
O648 Tb605 2.552 . S
O648 C661 1.243 . S
O649 Tb605 2.413 . S
O649 C669 1.256 . S
C650 O639 1.283 . S
C650 O642 1.243 . S
C651 C653 1.382 . S
C651 C655 1.393 . S
C651 C658 1.500 . S
C652 C653 1.400 . S
C652 C654 1.384 . S
C653 C651 1.382 . S
C653 C652 1.400 . S
C653 H670 0.930 . S
C654 C652 1.384 . S
C654 C656 1.392 . S
C654 H671 0.931 . S
C655 C651 1.393 . S
C655 C656 1.401 . S
C655 H672 0.930 . S
C656 C654 1.392 . S
C656 C655 1.401 . S
C656 H673 0.930 . S
C657 O640 1.262 . S
C657 O641 1.260 . S
C658 Tb594 2.833 . S
C658 O638 1.251 . S
C658 O643 1.256 . S
C658 C651 1.500 . S
C659 H624 0.929 . S
C659 C637 1.444 . S
C659 C660 1.317 . S
C660 H622 0.930 1_455 S
C660 C628 1.432 . S
C660 C659 1.317 . S
C661 O645 1.283 . S
C661 O648 1.243 . S
C662 C663 1.382 . S
C662 C666 1.393 . S
C662 C669 1.500 . S
C663 C662 1.382 . S
C663 C664 1.400 . S
C663 H674 0.930 . S
C664 C663 1.400 . S
C664 C665 1.384 . S
C665 C664 1.384 . S
C665 C667 1.392 . S
C665 H675 0.931 . S
C666 C662 1.393 . S
C666 C667 1.401 . S
C666 H676 0.930 . S
C667 C665 1.392 . S
C667 C666 1.401 . S
C667 H677 0.930 . S
C668 O646 1.262 . S
C668 O647 1.260 . S
C669 Tb605 2.833 . S
C669 O644 1.251 . S
C669 O649 1.256 . S
C669 C662 1.500 . S
H670 C653 0.930 . S
H671 C654 0.931 . S
H672 C655 0.930 . S
H673 C656 0.930 . S
H674 C663 0.930 . S
H675 C665 0.931 . S
H676 C666 0.930 . S
H677 C667 0.930 . S
Tb678 N709 2.660 . S
Tb678 N716 2.600 . S
Tb678 O722 2.546 . S
Tb678 O723 2.610 . S
Tb678 O725 2.320 . S
Tb678 O726 2.552 . S
Tb678 O727 2.413 . S
Tb678 O729 2.362 . S
Tb678 O730 2.421 . S
Tb678 C742 2.833 . S
C679 C682 1.432 . S
C679 C683 1.414 . S
C679 N686 1.359 . S
C680 C682 1.417 . S
C680 C684 1.432 . S
C680 C692 1.410 . S
C681 C683 1.444 . S
C681 C684 1.317 . S
C681 H704 0.929 . S
C682 C679 1.432 . S
C682 C680 1.417 . S
C682 N690 1.360 . S
C683 C679 1.414 . S
C683 C681 1.444 . S
C683 C688 1.385 . S
C684 C680 1.432 . S
C684 C681 1.317 . S
C684 H696 0.930 . S
C685 C687 1.392 . S
C685 C688 1.370 . S
C685 H697 0.931 . S
N686 C679 1.359 . S
N686 C687 1.327 . S
N686 Tb689 2.600 . S
C687 C685 1.392 . S
C687 N686 1.327 . S
C687 H694 0.930 . S
C688 C683 1.385 . S
C688 C685 1.370 . S
C688 H707 0.930 . S
Tb689 N686 2.600 . S
Tb689 N690 2.660 . S
Tb689 O723 2.362 . S
Tb689 O724 2.421 . S
Tb689 O728 2.546 . S
Tb689 O729 2.610 . S
Tb689 O731 2.320 . S
Tb689 O732 2.552 . S
Tb689 O733 2.413 . S
Tb689 C753 2.833 . S
N690 C682 1.360 . S
N690 Tb689 2.660 . S
N690 C691 1.305 . S
C691 N690 1.305 . S
C691 C693 1.407 . S
C691 H698 0.930 . S
C692 C680 1.410 . S
C692 C693 1.345 . S
C692 H700 0.930 . S
C693 C691 1.407 . S
C693 C692 1.345 . S
C693 H695 0.930 . S
H694 C687 0.930 . S
H695 C693 0.930 . S
H696 C684 0.930 . S
H697 C685 0.931 . S
H698 C691 0.930 . S
H699 C713 0.930 . S
H700 C692 0.930 . S
H701 C719 0.930 . S
H702 C710 0.930 . S
H703 C717 0.931 . S
H704 C681 0.929 . S
H705 C711 0.930 . S
H706 C744 0.930 . S
H707 C688 0.930 . S
H708 C743 0.929 . S
N709 Tb678 2.660 . S
N709 C710 1.305 . S
N709 C714 1.360 . S
C710 H702 0.930 . S
C710 N709 1.305 . S
C710 C713 1.407 . S
C711 H705 0.930 . S
C711 C712 1.410 . S
C711 C713 1.345 . S
C712 C711 1.410 . S
C712 C714 1.417 . S
C712 C744 1.432 . S
C713 H699 0.930 . S
C713 C710 1.407 . S
C713 C711 1.345 . S
C714 N709 1.360 . S
C714 C712 1.417 . S
C714 C718 1.432 . S
H715 C720 0.930 . S
N716 Tb678 2.600 . S
N716 C718 1.359 . S
N716 C719 1.327 . S
C717 H703 0.931 . S
C717 C719 1.392 . S
C717 C720 1.370 . S
C718 C714 1.432 . S
C718 N716 1.359 . S
C718 C721 1.414 . S
C719 H701 0.930 . S
C719 N716 1.327 . S
C719 C717 1.392 . S
C720 H715 0.930 . S
C720 C717 1.370 . S
C720 C721 1.385 . S
C721 C718 1.414 . S
C721 C720 1.385 . S
C721 C743 1.444 . S
O722 Tb678 2.546 . S
O722 C742 1.251 . S
O723 Tb678 2.610 . S
O723 Tb689 2.362 . S
O723 C734 1.283 . S
O724 Tb689 2.421 . S
O724 C741 1.262 . S
O725 Tb678 2.320 . S
O725 C741 1.260 . S
O726 Tb678 2.552 . S
O726 C734 1.243 . S
O727 Tb678 2.413 . S
O727 C742 1.256 . S
O728 Tb689 2.546 . S
O728 C753 1.251 . S
O729 Tb678 2.362 . S
O729 Tb689 2.610 . S
O729 C745 1.283 . S
O730 Tb678 2.421 . S
O730 C752 1.262 . S
O731 Tb689 2.320 . S
O731 C752 1.260 . S
O732 Tb689 2.552 . S
O732 C745 1.243 . S
O733 Tb689 2.413 . S
O733 C753 1.256 . S
C734 O723 1.283 . S
C734 O726 1.243 . S
C735 C737 1.382 . S
C735 C739 1.393 . S
C735 C742 1.500 . S
C736 C737 1.400 . S
C736 C738 1.384 . S
C737 C735 1.382 . S
C737 C736 1.400 . S
C737 H754 0.930 . S
C738 C736 1.384 . S
C738 C740 1.392 . S
C738 H755 0.931 . S
C739 C735 1.393 . S
C739 C740 1.401 . S
C739 H756 0.930 . S
C740 C738 1.392 . S
C740 C739 1.401 . S
C740 H757 0.930 . S
C741 O724 1.262 . S
C741 O725 1.260 . S
C742 Tb678 2.833 . S
C742 O722 1.251 . S
C742 O727 1.256 . S
C742 C735 1.500 . S
C743 H708 0.929 . S
C743 C721 1.444 . S
C743 C744 1.317 . S
C744 H706 0.930 . S
C744 C712 1.432 . S
C744 C743 1.317 . S
C745 O729 1.283 . S
C745 O732 1.243 . S
C746 C747 1.382 . S
C746 C750 1.393 . S
C746 C753 1.500 . S
C747 C746 1.382 . S
C747 C748 1.400 . S
C747 H758 0.930 . S
C748 C747 1.400 . S
C748 C749 1.384 . S
C749 C748 1.384 . S
C749 C751 1.392 . S
C749 H759 0.931 . S
C750 C746 1.393 . S
C750 C751 1.401 . S
C750 H760 0.930 . S
C751 C749 1.392 . S
C751 C750 1.401 . S
C751 H761 0.930 . S
C752 O730 1.262 . S
C752 O731 1.260 . S
C753 Tb689 2.833 . S
C753 O728 1.251 . S
C753 O733 1.256 . S
C753 C746 1.500 . S
H754 C737 0.930 . S
H755 C738 0.931 . S
H756 C739 0.930 . S
H757 C740 0.930 . S
H758 C747 0.930 . S
H759 C749 0.931 . S
H760 C750 0.930 . S
H761 C751 0.930 . S
Tb762 N793 2.660 . S
Tb762 N800 2.600 . S
Tb762 O806 2.546 . S
Tb762 O807 2.610 . S
Tb762 O809 2.320 . S
Tb762 O810 2.552 . S
Tb762 O811 2.413 . S
Tb762 O813 2.362 . S
Tb762 O814 2.421 . S
Tb762 C826 2.833 . S
C763 C766 1.432 . S
C763 C767 1.414 . S
C763 N770 1.359 . S
C764 C766 1.417 . S
C764 C768 1.432 . S
C764 C776 1.410 . S
C765 C767 1.444 . S
C765 C768 1.317 . S
C765 H788 0.929 . S
C766 C763 1.432 . S
C766 C764 1.417 . S
C766 N774 1.360 . S
C767 C763 1.414 . S
C767 C765 1.444 . S
C767 C772 1.385 . S
C768 C764 1.432 . S
C768 C765 1.317 . S
C768 H780 0.930 . S
C769 C771 1.392 . S
C769 C772 1.370 . S
C769 H781 0.931 . S
N770 C763 1.359 . S
N770 C771 1.327 . S
N770 Tb773 2.600 . S
C771 C769 1.392 . S
C771 N770 1.327 . S
C771 H778 0.930 . S
C772 C767 1.385 . S
C772 C769 1.370 . S
C772 H791 0.930 . S
Tb773 N770 2.600 . S
Tb773 N774 2.660 . S
Tb773 O807 2.362 . S
Tb773 O808 2.421 . S
Tb773 O812 2.546 . S
Tb773 O813 2.610 . S
Tb773 O815 2.320 . S
Tb773 O816 2.552 . S
Tb773 O817 2.413 . S
Tb773 C837 2.833 . S
N774 C766 1.360 . S
N774 Tb773 2.660 . S
N774 C775 1.305 . S
C775 N774 1.305 . S
C775 C777 1.407 . S
C775 H782 0.930 . S
C776 C764 1.410 . S
C776 C777 1.345 . S
C776 H784 0.930 . S
C777 C775 1.407 . S
C777 C776 1.345 . S
C777 H779 0.930 . S
H778 C771 0.930 . S
H779 C777 0.930 . S
H780 C768 0.930 . S
H781 C769 0.931 . S
H782 C775 0.930 . S
H783 C797 0.930 . S
H784 C776 0.930 . S
H785 C803 0.930 . S
H786 C794 0.930 . S
H787 C801 0.931 . S
H788 C765 0.929 . S
H789 C795 0.930 . S
H790 C828 0.930 . S
H791 C772 0.930 . S
H792 C827 0.929 . S
N793 Tb762 2.660 . S
N793 C794 1.305 . S
N793 C798 1.360 . S
C794 H786 0.930 . S
C794 N793 1.305 . S
C794 C797 1.407 . S
C795 H789 0.930 . S
C795 C796 1.410 . S
C795 C797 1.345 . S
C796 C795 1.410 . S
C796 C798 1.417 . S
C796 C828 1.432 . S
C797 H783 0.930 . S
C797 C794 1.407 . S
C797 C795 1.345 . S
C798 N793 1.360 . S
C798 C796 1.417 . S
C798 C802 1.432 . S
H799 C804 0.930 . S
N800 Tb762 2.600 . S
N800 C802 1.359 . S
N800 C803 1.327 . S
C801 H787 0.931 . S
C801 C803 1.392 . S
C801 C804 1.370 . S
C802 C798 1.432 . S
C802 N800 1.359 . S
C802 C805 1.414 . S
C803 H785 0.930 . S
C803 N800 1.327 . S
C803 C801 1.392 . S
C804 H799 0.930 . S
C804 C801 1.370 . S
C804 C805 1.385 . S
C805 C802 1.414 . S
C805 C804 1.385 . S
C805 C827 1.444 . S
O806 Tb762 2.546 . S
O806 C826 1.251 . S
O807 Tb762 2.610 . S
O807 Tb773 2.362 . S
O807 C818 1.283 . S
O808 Tb773 2.421 . S
O808 C825 1.262 . S
O809 Tb762 2.320 . S
O809 C825 1.260 . S
O810 Tb762 2.552 . S
O810 C818 1.243 . S
O811 Tb762 2.413 . S
O811 C826 1.256 . S
O812 Tb773 2.546 . S
O812 C837 1.251 . S
O813 Tb762 2.362 . S
O813 Tb773 2.610 . S
O813 C829 1.283 . S
O814 Tb762 2.421 . S
O814 C836 1.262 . S
O815 Tb773 2.320 . S
O815 C836 1.260 . S
O816 Tb773 2.552 . S
O816 C829 1.243 . S
O817 Tb773 2.413 . S
O817 C837 1.256 . S
C818 O807 1.283 . S
C818 O810 1.243 . S
C819 C821 1.382 . S
C819 C823 1.393 . S
C819 C826 1.500 . S
C820 C821 1.400 . S
C820 C822 1.384 . S
C821 C819 1.382 . S
C821 C820 1.400 . S
C821 H838 0.930 . S
C822 C820 1.384 . S
C822 C824 1.392 . S
C822 H839 0.931 . S
C823 C819 1.393 . S
C823 C824 1.401 . S
C823 H840 0.930 . S
C824 C822 1.392 . S
C824 C823 1.401 . S
C824 H841 0.930 . S
C825 O808 1.262 . S
C825 O809 1.260 . S
C826 Tb762 2.833 . S
C826 O806 1.251 . S
C826 O811 1.256 . S
C826 C819 1.500 . S
C827 H792 0.929 . S
C827 C805 1.444 . S
C827 C828 1.317 . S
C828 H790 0.930 . S
C828 C796 1.432 . S
C828 C827 1.317 . S
C829 O813 1.283 . S
C829 O816 1.243 . S
C830 C831 1.382 . S
C830 C834 1.393 . S
C830 C837 1.500 . S
C831 C830 1.382 . S
C831 C832 1.400 . S
C831 H842 0.930 . S
C832 C831 1.400 . S
C832 C833 1.384 . S
C833 C832 1.384 . S
C833 C835 1.392 . S
C833 H843 0.931 . S
C834 C830 1.393 . S
C834 C835 1.401 . S
C834 H844 0.930 . S
C835 C833 1.392 . S
C835 C834 1.401 . S
C835 H845 0.930 . S
C836 O814 1.262 . S
C836 O815 1.260 . S
C837 Tb773 2.833 . S
C837 O812 1.251 . S
C837 O817 1.256 . S
C837 C830 1.500 . S
H838 C821 0.930 . S
H839 C822 0.931 . S
H840 C823 0.930 . S
H841 C824 0.930 . S
H842 C831 0.930 . S
H843 C833 0.931 . S
H844 C834 0.930 . S
H845 C835 0.930 . S
Tb846 N877 2.660 . S
Tb846 N884 2.600 . S
Tb846 O890 2.546 . S
Tb846 O891 2.610 . S
Tb846 O893 2.320 . S
Tb846 O894 2.552 . S
Tb846 O895 2.413 . S
Tb846 O897 2.362 . S
Tb846 O898 2.421 . S
Tb846 C910 2.833 . S
C847 C850 1.432 . S
C847 C851 1.414 . S
C847 N854 1.359 . S
C848 C850 1.417 . S
C848 C852 1.432 . S
C848 C860 1.410 . S
C849 C851 1.444 . S
C849 C852 1.317 . S
C849 H872 0.929 . S
C850 C847 1.432 . S
C850 C848 1.417 . S
C850 N858 1.360 . S
C851 C847 1.414 . S
C851 C849 1.444 . S
C851 C856 1.385 . S
C852 C848 1.432 . S
C852 C849 1.317 . S
C852 H864 0.930 . S
C853 C855 1.392 . S
C853 C856 1.370 . S
C853 H865 0.931 . S
N854 C847 1.359 . S
N854 C855 1.327 . S
N854 Tb857 2.600 . S
C855 C853 1.392 . S
C855 N854 1.327 . S
C855 H862 0.930 . S
C856 C851 1.385 . S
C856 C853 1.370 . S
C856 H875 0.930 . S
Tb857 N854 2.600 . S
Tb857 N858 2.660 . S
Tb857 O891 2.362 . S
Tb857 O892 2.421 . S
Tb857 O896 2.546 . S
Tb857 O897 2.610 . S
Tb857 O899 2.320 . S
Tb857 O900 2.552 . S
Tb857 O901 2.413 . S
Tb857 C921 2.833 . S
N858 C850 1.360 . S
N858 Tb857 2.660 . S
N858 C859 1.305 . S
C859 N858 1.305 . S
C859 C861 1.407 . S
C859 H866 0.930 . S
C860 C848 1.410 . S
C860 C861 1.345 . S
C860 H868 0.930 . S
C861 C859 1.407 . S
C861 C860 1.345 . S
C861 H863 0.930 . S
H862 C855 0.930 . S
H863 C861 0.930 . S
H864 C852 0.930 . S
H865 C853 0.931 . S
H866 C859 0.930 . S
H867 C881 0.930 . S
H868 C860 0.930 . S
H869 C887 0.930 . S
H870 C878 0.930 . S
H871 C885 0.931 . S
H872 C849 0.929 . S
H873 C879 0.930 . S
H874 C912 0.930 . S
H875 C856 0.930 . S
H876 C911 0.929 . S
N877 Tb846 2.660 . S
N877 C878 1.305 . S
N877 C882 1.360 . S
C878 H870 0.930 . S
C878 N877 1.305 . S
C878 C881 1.407 . S
C879 H873 0.930 . S
C879 C880 1.410 . S
C879 C881 1.345 . S
C880 C879 1.410 . S
C880 C882 1.417 . S
C880 C912 1.432 . S
C881 H867 0.930 . S
C881 C878 1.407 . S
C881 C879 1.345 . S
C882 N877 1.360 . S
C882 C880 1.417 . S
C882 C886 1.432 . S
H883 C888 0.930 . S
N884 Tb846 2.600 . S
N884 C886 1.359 . S
N884 C887 1.327 . S
C885 H871 0.931 . S
C885 C887 1.392 . S
C885 C888 1.370 . S
C886 C882 1.432 . S
C886 N884 1.359 . S
C886 C889 1.414 . S
C887 H869 0.930 . S
C887 N884 1.327 . S
C887 C885 1.392 . S
C888 H883 0.930 . S
C888 C885 1.370 . S
C888 C889 1.385 . S
C889 C886 1.414 . S
C889 C888 1.385 . S
C889 C911 1.444 . S
O890 Tb846 2.546 . S
O890 C910 1.251 . S
O891 Tb846 2.610 . S
O891 Tb857 2.362 . S
O891 C902 1.283 . S
O892 Tb857 2.421 . S
O892 C909 1.262 . S
O893 Tb846 2.320 . S
O893 C909 1.260 . S
O894 Tb846 2.552 . S
O894 C902 1.243 . S
O895 Tb846 2.413 . S
O895 C910 1.256 . S
O896 Tb857 2.546 . S
O896 C921 1.251 . S
O897 Tb846 2.362 . S
O897 Tb857 2.610 . S
O897 C913 1.283 . S
O898 Tb846 2.421 . S
O898 C920 1.262 . S
O899 Tb857 2.320 . S
O899 C920 1.260 . S
O900 Tb857 2.552 . S
O900 C913 1.243 . S
O901 Tb857 2.413 . S
O901 C921 1.256 . S
C902 O891 1.283 . S
C902 O894 1.243 . S
C903 C905 1.382 . S
C903 C907 1.393 . S
C903 C910 1.500 . S
C904 C905 1.400 . S
C904 C906 1.384 . S
C905 C903 1.382 . S
C905 C904 1.400 . S
C905 H922 0.930 . S
C906 C904 1.384 . S
C906 C908 1.392 . S
C906 H923 0.931 . S
C907 C903 1.393 . S
C907 C908 1.401 . S
C907 H924 0.930 . S
C908 C906 1.392 . S
C908 C907 1.401 . S
C908 H925 0.930 . S
C909 O892 1.262 . S
C909 O893 1.260 . S
C910 Tb846 2.833 . S
C910 O890 1.251 . S
C910 O895 1.256 . S
C910 C903 1.500 . S
C911 H876 0.929 . S
C911 C889 1.444 . S
C911 C912 1.317 . S
C912 H874 0.930 . S
C912 C880 1.432 . S
C912 C911 1.317 . S
C913 O897 1.283 . S
C913 O900 1.243 . S
C914 C915 1.382 . S
C914 C918 1.393 . S
C914 C921 1.500 . S
C915 C914 1.382 . S
C915 C916 1.400 . S
C915 H926 0.930 . S
C916 C915 1.400 . S
C916 C917 1.384 . S
C917 C916 1.384 . S
C917 C919 1.392 . S
C917 H927 0.931 . S
C918 C914 1.393 . S
C918 C919 1.401 . S
C918 H928 0.930 . S
C919 C917 1.392 . S
C919 C918 1.401 . S
C919 H929 0.930 . S
C920 O898 1.262 . S
C920 O899 1.260 . S
C921 Tb857 2.833 . S
C921 O896 1.251 . S
C921 O901 1.256 . S
C921 C914 1.500 . S
H922 C905 0.930 . S
H923 C906 0.931 . S
H924 C907 0.930 . S
H925 C908 0.930 . S
H926 C915 0.930 . S
H927 C917 0.931 . S
H928 C918 0.930 . S
H929 C919 0.930 . S
Tb930 N961 2.660 . S
Tb930 N968 2.600 . S
Tb930 O974 2.546 . S
Tb930 O975 2.610 . S
Tb930 O977 2.320 . S
Tb930 O978 2.552 . S
Tb930 O979 2.413 . S
Tb930 O981 2.362 . S
Tb930 O982 2.421 . S
Tb930 C994 2.833 . S
C931 C934 1.432 . S
C931 C935 1.414 . S
C931 N938 1.359 . S
C932 C934 1.417 . S
C932 C936 1.432 . S
C932 C944 1.410 . S
C933 C935 1.444 . S
C933 C936 1.317 . S
C933 H956 0.929 . S
C934 C931 1.432 . S
C934 C932 1.417 . S
C934 N942 1.360 . S
C935 C931 1.414 . S
C935 C933 1.444 . S
C935 C940 1.385 . S
C936 C932 1.432 . S
C936 C933 1.317 . S
C936 H948 0.930 . S
C937 C939 1.392 . S
C937 C940 1.370 . S
C937 H949 0.931 . S
N938 C931 1.359 . S
N938 C939 1.327 . S
N938 Tb941 2.600 . S
C939 C937 1.392 . S
C939 N938 1.327 . S
C939 H946 0.930 . S
C940 C935 1.385 . S
C940 C937 1.370 . S
C940 H959 0.930 . S
Tb941 N938 2.600 . S
Tb941 N942 2.660 . S
Tb941 O975 2.362 . S
Tb941 O976 2.421 . S
Tb941 O980 2.546 . S
Tb941 O981 2.610 . S
Tb941 O983 2.320 . S
Tb941 O984 2.552 . S
Tb941 O985 2.413 . S
Tb941 C1005 2.833 . S
N942 C934 1.360 . S
N942 Tb941 2.660 . S
N942 C943 1.305 . S
C943 N942 1.305 . S
C943 C945 1.407 . S
C943 H950 0.930 . S
C944 C932 1.410 . S
C944 C945 1.345 . S
C944 H952 0.930 . S
C945 C943 1.407 . S
C945 C944 1.345 . S
C945 H947 0.930 . S
H946 C939 0.930 . S
H947 C945 0.930 . S
H948 C936 0.930 . S
H949 C937 0.931 . S
H950 C943 0.930 . S
H951 C965 0.930 . S
H952 C944 0.930 . S
H953 C971 0.930 . S
H954 C962 0.930 . S
H955 C969 0.931 . S
H956 C933 0.929 . S
H957 C963 0.930 . S
H958 C996 0.930 . S
H959 C940 0.930 . S
H960 C995 0.929 . S
N961 Tb930 2.660 . S
N961 C962 1.305 . S
N961 C966 1.360 . S
C962 H954 0.930 . S
C962 N961 1.305 . S
C962 C965 1.407 . S
C963 H957 0.930 . S
C963 C964 1.410 . S
C963 C965 1.345 . S
C964 C963 1.410 . S
C964 C966 1.417 . S
C964 C996 1.432 . S
C965 H951 0.930 . S
C965 C962 1.407 . S
C965 C963 1.345 . S
C966 N961 1.360 . S
C966 C964 1.417 . S
C966 C970 1.432 . S
H967 C972 0.930 . S
N968 Tb930 2.600 . S
N968 C970 1.359 . S
N968 C971 1.327 . S
C969 H955 0.931 . S
C969 C971 1.392 . S
C969 C972 1.370 . S
C970 C966 1.432 . S
C970 N968 1.359 . S
C970 C973 1.414 . S
C971 H953 0.930 . S
C971 N968 1.327 . S
C971 C969 1.392 . S
C972 H967 0.930 . S
C972 C969 1.370 . S
C972 C973 1.385 . S
C973 C970 1.414 . S
C973 C972 1.385 . S
C973 C995 1.444 . S
O974 Tb930 2.546 . S
O974 C994 1.251 . S
O975 Tb930 2.610 . S
O975 Tb941 2.362 . S
O975 C986 1.283 . S
O976 Tb941 2.421 . S
O976 C993 1.262 . S
O977 Tb930 2.320 . S
O977 C993 1.260 . S
O978 Tb930 2.552 . S
O978 C986 1.243 . S
O979 Tb930 2.413 . S
O979 C994 1.256 . S
O980 Tb941 2.546 . S
O980 C1005 1.251 . S
O981 Tb930 2.362 . S
O981 Tb941 2.610 . S
O981 C997 1.283 . S
O982 Tb930 2.421 . S
O982 C1004 1.262 . S
O983 Tb941 2.320 . S
O983 C1004 1.260 . S
O984 Tb941 2.552 . S
O984 C997 1.243 . S
O985 Tb941 2.413 . S
O985 C1005 1.256 . S
C986 O975 1.283 . S
C986 O978 1.243 . S
C987 C989 1.382 . S
C987 C991 1.393 . S
C987 C994 1.500 . S
C988 C989 1.400 . S
C988 C990 1.384 . S
C989 C987 1.382 . S
C989 C988 1.400 . S
C989 H1006 0.930 . S
C990 C988 1.384 . S
C990 C992 1.392 . S
C990 H1007 0.931 . S
C991 C987 1.393 . S
C991 C992 1.401 . S
C991 H1008 0.930 . S
C992 C990 1.392 . S
C992 C991 1.401 . S
C992 H1009 0.930 . S
C993 O976 1.262 . S
C993 O977 1.260 . S
C994 Tb930 2.833 . S
C994 O974 1.251 . S
C994 O979 1.256 . S
C994 C987 1.500 . S
C995 H960 0.929 . S
C995 C973 1.444 . S
C995 C996 1.317 . S
C996 H958 0.930 . S
C996 C964 1.432 . S
C996 C995 1.317 . S
C997 O981 1.283 . S
C997 O984 1.243 . S
C998 C999 1.382 . S
C998 C1002 1.393 . S
C998 C1005 1.500 . S
C999 C998 1.382 . S
C999 C1000 1.400 . S
C999 H1010 0.930 . S
C1000 C999 1.400 . S
C1000 C1001 1.384 . S
C1001 C1000 1.384 . S
C1001 C1003 1.392 . S
C1001 H1011 0.931 . S
C1002 C998 1.393 . S
C1002 C1003 1.401 . S
C1002 H1012 0.930 . S
C1003 C1001 1.392 . S
C1003 C1002 1.401 . S
C1003 H1013 0.930 . S
C1004 O982 1.262 . S
C1004 O983 1.260 . S
C1005 Tb941 2.833 . S
C1005 O980 1.251 . S
C1005 O985 1.256 . S
C1005 C998 1.500 . S
H1006 C989 0.930 . S
H1007 C990 0.931 . S
H1008 C991 0.930 . S
H1009 C992 0.930 . S
H1010 C999 0.930 . S
H1011 C1001 0.931 . S
H1012 C1002 0.930 . S
H1013 C1003 0.930 . S
Tb1014 N1045 2.660 . S
Tb1014 N1052 2.600 . S
Tb1014 O1058 2.546 . S
Tb1014 O1059 2.610 . S
Tb1014 O1061 2.320 . S
Tb1014 O1062 2.552 . S
Tb1014 O1063 2.413 . S
Tb1014 O1065 2.362 . S
Tb1014 O1066 2.421 . S
Tb1014 C1078 2.833 . S
C1015 C1018 1.432 . S
C1015 C1019 1.414 . S
C1015 N1022 1.359 . S
C1016 C1018 1.417 . S
C1016 C1020 1.432 . S
C1016 C1028 1.410 . S
C1017 C1019 1.444 . S
C1017 C1020 1.317 . S
C1017 H1040 0.929 . S
C1018 C1015 1.432 . S
C1018 C1016 1.417 . S
C1018 N1026 1.360 . S
C1019 C1015 1.414 . S
C1019 C1017 1.444 . S
C1019 C1024 1.385 . S
C1020 C1016 1.432 . S
C1020 C1017 1.317 . S
C1020 H1032 0.930 . S
C1021 C1023 1.392 . S
C1021 C1024 1.370 . S
C1021 H1033 0.931 . S
N1022 C1015 1.359 . S
N1022 C1023 1.327 . S
N1022 Tb1025 2.600 . S
C1023 C1021 1.392 . S
C1023 N1022 1.327 . S
C1023 H1030 0.930 . S
C1024 C1019 1.385 . S
C1024 C1021 1.370 . S
C1024 H1043 0.930 . S
Tb1025 N1022 2.600 . S
Tb1025 N1026 2.660 . S
Tb1025 O1059 2.362 . S
Tb1025 O1060 2.421 . S
Tb1025 O1064 2.546 . S
Tb1025 O1065 2.610 . S
Tb1025 O1067 2.320 . S
Tb1025 O1068 2.552 . S
Tb1025 O1069 2.413 . S
Tb1025 C1089 2.833 . S
N1026 C1018 1.360 . S
N1026 Tb1025 2.660 . S
N1026 C1027 1.305 . S
C1027 N1026 1.305 . S
C1027 C1029 1.407 . S
C1027 H1034 0.930 . S
C1028 C1016 1.410 . S
C1028 C1029 1.345 . S
C1028 H1036 0.930 . S
C1029 C1027 1.407 . S
C1029 C1028 1.345 . S
C1029 H1031 0.930 . S
H1030 C1023 0.930 . S
H1031 C1029 0.930 . S
H1032 C1020 0.930 . S
H1033 C1021 0.931 . S
H1034 C1027 0.930 . S
H1035 C1049 0.930 . S
H1036 C1028 0.930 . S
H1037 C1055 0.930 . S
H1038 C1046 0.930 . S
H1039 C1053 0.931 . S
H1040 C1017 0.929 . S
H1041 C1047 0.930 1_455 S
H1042 C1080 0.930 1_455 S
H1043 C1024 0.930 . S
H1044 C1079 0.929 . S
N1045 Tb1014 2.660 . S
N1045 C1046 1.305 . S
N1045 C1050 1.360 . S
C1046 H1038 0.930 . S
C1046 N1045 1.305 . S
C1046 C1049 1.407 . S
C1047 H1041 0.930 1_655 S
C1047 C1048 1.410 . S
C1047 C1049 1.345 . S
C1048 C1047 1.410 . S
C1048 C1050 1.417 . S
C1048 C1080 1.432 . S
C1049 H1035 0.930 . S
C1049 C1046 1.407 . S
C1049 C1047 1.345 . S
C1050 N1045 1.360 . S
C1050 C1048 1.417 . S
C1050 C1054 1.432 . S
H1051 C1056 0.930 . S
N1052 Tb1014 2.600 . S
N1052 C1054 1.359 . S
N1052 C1055 1.327 . S
C1053 H1039 0.931 . S
C1053 C1055 1.392 . S
C1053 C1056 1.370 . S
C1054 C1050 1.432 . S
C1054 N1052 1.359 . S
C1054 C1057 1.414 . S
C1055 H1037 0.930 . S
C1055 N1052 1.327 . S
C1055 C1053 1.392 . S
C1056 H1051 0.930 . S
C1056 C1053 1.370 . S
C1056 C1057 1.385 . S
C1057 C1054 1.414 . S
C1057 C1056 1.385 . S
C1057 C1079 1.444 . S
O1058 Tb1014 2.546 . S
O1058 C1078 1.251 . S
O1059 Tb1014 2.610 . S
O1059 Tb1025 2.362 . S
O1059 C1070 1.283 . S
O1060 Tb1025 2.421 . S
O1060 C1077 1.262 . S
O1061 Tb1014 2.320 . S
O1061 C1077 1.260 . S
O1062 Tb1014 2.552 . S
O1062 C1070 1.243 . S
O1063 Tb1014 2.413 . S
O1063 C1078 1.256 . S
O1064 Tb1025 2.546 . S
O1064 C1089 1.251 . S
O1065 Tb1014 2.362 . S
O1065 Tb1025 2.610 . S
O1065 C1081 1.283 . S
O1066 Tb1014 2.421 . S
O1066 C1088 1.262 . S
O1067 Tb1025 2.320 . S
O1067 C1088 1.260 . S
O1068 Tb1025 2.552 . S
O1068 C1081 1.243 . S
O1069 Tb1025 2.413 . S
O1069 C1089 1.256 . S
C1070 O1059 1.283 . S
C1070 O1062 1.243 . S
C1071 C1073 1.382 . S
C1071 C1075 1.393 . S
C1071 C1078 1.500 . S
C1072 C1073 1.400 . S
C1072 C1074 1.384 . S
C1073 C1071 1.382 . S
C1073 C1072 1.400 . S
C1073 H1090 0.930 . S
C1074 C1072 1.384 . S
C1074 C1076 1.392 . S
C1074 H1091 0.931 . S
C1075 C1071 1.393 . S
C1075 C1076 1.401 . S
C1075 H1092 0.930 . S
C1076 C1074 1.392 . S
C1076 C1075 1.401 . S
C1076 H1093 0.930 . S
C1077 O1060 1.262 . S
C1077 O1061 1.260 . S
C1078 Tb1014 2.833 . S
C1078 O1058 1.251 . S
C1078 O1063 1.256 . S
C1078 C1071 1.500 . S
C1079 H1044 0.929 . S
C1079 C1057 1.444 . S
C1079 C1080 1.317 . S
C1080 H1042 0.930 1_655 S
C1080 C1048 1.432 . S
C1080 C1079 1.317 . S
C1081 O1065 1.283 . S
C1081 O1068 1.243 . S
C1082 C1083 1.382 . S
C1082 C1086 1.393 . S
C1082 C1089 1.500 . S
C1083 C1082 1.382 . S
C1083 C1084 1.400 . S
C1083 H1094 0.930 . S
C1084 C1083 1.400 . S
C1084 C1085 1.384 . S
C1085 C1084 1.384 . S
C1085 C1087 1.392 . S
C1085 H1095 0.931 . S
C1086 C1082 1.393 . S
C1086 C1087 1.401 . S
C1086 H1096 0.930 . S
C1087 C1085 1.392 . S
C1087 C1086 1.401 . S
C1087 H1097 0.930 . S
C1088 O1066 1.262 . S
C1088 O1067 1.260 . S
C1089 Tb1025 2.833 . S
C1089 O1064 1.251 . S
C1089 O1069 1.256 . S
C1089 C1082 1.500 . S
H1090 C1073 0.930 . S
H1091 C1074 0.931 . S
H1092 C1075 0.930 . S
H1093 C1076 0.930 . S
H1094 C1083 0.930 . S
H1095 C1085 0.931 . S
H1096 C1086 0.930 . S
H1097 C1087 0.930 . S
H1098 C1110 0.930 . S
H1099 C1112 0.930 . S
H1100 C1113 0.930 . S
H1101 C1117 0.959 . S
H1102 C1117 0.959 . S
H1103 C1117 0.961 . S
H1104 C1118 0.960 . S
H1105 C1118 0.961 . S
H1106 C1118 0.959 . S
H1107 C1121 0.929 1_556 S
H1108 C1122 0.931 1_556 S
H1109 C1124 0.930 . S
C1110 H1098 0.930 . S
C1110 C1111 1.399 . S
C1110 C1115 1.399 . S
C1111 C1110 1.399 . S
C1111 C1112 1.376 . S
C1112 H1099 0.930 . S
C1112 C1111 1.376 . S
C1112 C1113 1.388 . S
C1113 H1100 0.930 . S
C1113 C1112 1.388 . S
C1113 C1114 1.390 . S
C1114 C1113 1.390 . S
C1114 C1115 1.394 . S
C1114 C1120 1.465 . S
C1115 C1110 1.399 . S
C1115 C1114 1.394 . S
C1115 C1116 1.516 . S
C1116 C1115 1.516 . S
C1116 C1117 1.502 . S
C1116 C1118 1.561 . S
C1116 C1119 1.526 . S
C1117 H1101 0.959 . S
C1117 H1102 0.959 . S
C1117 H1103 0.961 . S
C1117 C1116 1.502 . S
C1118 H1104 0.960 . S
C1118 H1105 0.961 . S
C1118 H1106 0.959 . S
C1118 C1116 1.561 . S
C1119 C1116 1.526 . S
C1119 C1120 1.396 . S
C1119 C1124 1.390 . S
C1120 C1114 1.465 . S
C1120 C1119 1.396 . S
C1120 C1121 1.399 . S
C1121 H1107 0.929 1_554 S
C1121 C1120 1.399 . S
C1121 C1122 1.385 . S
C1122 H1108 0.931 1_554 S
C1122 C1121 1.385 . S
C1122 C1123 1.389 . S
C1123 C1122 1.389 . S
C1123 C1124 1.387 . S
C1124 H1109 0.930 . S
C1124 C1119 1.390 . S
C1124 C1123 1.387 . S
H1125 C1137 0.930 . S
H1126 C1139 0.930 . S
H1127 C1140 0.930 . S
H1128 C1144 0.959 . S
H1129 C1144 0.959 . S
H1130 C1144 0.961 . S
H1131 C1145 0.960 . S
H1132 C1145 0.961 . S
H1133 C1145 0.959 . S
H1134 C1148 0.929 . S
H1135 C1149 0.931 . S
H1136 C1151 0.930 . S
C1137 H1125 0.930 . S
C1137 C1138 1.399 . S
C1137 C1142 1.399 . S
C1138 C1137 1.399 . S
C1138 C1139 1.376 . S
C1139 H1126 0.930 . S
C1139 C1138 1.376 . S
C1139 C1140 1.388 . S
C1140 H1127 0.930 . S
C1140 C1139 1.388 . S
C1140 C1141 1.390 . S
C1141 C1140 1.390 . S
C1141 C1142 1.394 . S
C1141 C1147 1.465 . S
C1142 C1137 1.399 . S
C1142 C1141 1.394 . S
C1142 C1143 1.516 . S
C1143 C1142 1.516 . S
C1143 C1144 1.502 . S
C1143 C1145 1.561 . S
C1143 C1146 1.526 . S
C1144 H1128 0.959 . S
C1144 H1129 0.959 . S
C1144 H1130 0.961 . S
C1144 C1143 1.502 . S
C1145 H1131 0.960 . S
C1145 H1132 0.961 . S
C1145 H1133 0.959 . S
C1145 C1143 1.561 . S
C1146 C1143 1.526 . S
C1146 C1147 1.396 . S
C1146 C1151 1.390 . S
C1147 C1141 1.465 . S
C1147 C1146 1.396 . S
C1147 C1148 1.399 . S
C1148 H1134 0.929 . S
C1148 C1147 1.399 . S
C1148 C1149 1.385 . S
C1149 H1135 0.931 . S
C1149 C1148 1.385 . S
C1149 C1150 1.389 . S
C1150 C1149 1.389 . S
C1150 C1151 1.387 . S
C1151 H1136 0.930 . S
C1151 C1146 1.390 . S
C1151 C1150 1.387 . S
H1152 C1164 0.930 . S
H1153 C1166 0.930 . S
H1154 C1167 0.966 . S
H1155 C1171 0.959 . S
H1156 C1171 0.959 . S
H1157 C1171 0.961 . S
H1158 C1172 0.960 . S
H1159 C1172 0.961 . S
H1160 C1172 0.959 . S
H1161 C1175 0.929 1_556 S
H1162 C1176 0.931 1_556 S
H1163 C1178 0.930 . S
C1164 H1152 0.930 . S
C1164 C1165 1.399 . S
C1164 C1169 1.399 . S
C1165 C1164 1.399 . S
C1165 C1166 1.376 . S
C1166 H1153 0.930 . S
C1166 C1165 1.376 . S
C1166 C1167 1.388 . S
C1167 H1154 0.966 . S
C1167 C1166 1.388 . S
C1167 C1168 1.390 . S
C1168 C1167 1.390 . S
C1168 C1169 1.394 . S
C1168 C1174 1.465 . S
C1169 C1164 1.399 . S
C1169 C1168 1.394 . S
C1169 C1170 1.516 . S
C1170 C1169 1.516 . S
C1170 C1171 1.502 . S
C1170 C1172 1.561 . S
C1170 C1173 1.526 . S
C1171 H1155 0.959 . S
C1171 H1156 0.959 . S
C1171 H1157 0.961 . S
C1171 C1170 1.502 . S
C1172 H1158 0.960 . S
C1172 H1159 0.961 . S
C1172 H1160 0.959 . S
C1172 C1170 1.561 . S
C1173 C1170 1.526 . S
C1173 C1174 1.396 . S
C1173 C1178 1.390 . S
C1174 C1168 1.465 . S
C1174 C1173 1.396 . S
C1174 C1175 1.399 . S
C1175 H1161 0.929 1_554 S
C1175 C1174 1.399 . S
C1175 C1176 1.385 . S
C1176 H1162 0.931 1_554 S
C1176 C1175 1.385 . S
C1176 C1177 1.389 . S
C1177 C1176 1.389 . S
C1177 C1178 1.387 . S
C1178 H1163 0.930 . S
C1178 C1173 1.390 . S
C1178 C1177 1.387 . S
H1179 C1191 0.930 . S
H1180 C1193 0.930 1_554 S
H1181 C1194 0.930 . S
H1182 C1198 0.959 . S
H1183 C1198 0.959 . S
H1184 C1198 0.961 . S
H1185 C1199 0.960 . S
H1186 C1199 0.961 . S
H1187 C1199 0.959 . S
H1188 C1202 0.929 . S
H1189 C1203 0.931 . S
H1190 C1205 0.930 . S
C1191 H1179 0.930 . S
C1191 C1192 1.399 . S
C1191 C1196 1.399 . S
C1192 C1191 1.399 . S
C1192 C1193 1.376 . S
C1193 H1180 0.930 1_556 S
C1193 C1192 1.376 . S
C1193 C1194 1.388 1_556 S
C1194 H1181 0.930 . S
C1194 C1193 1.388 1_554 S
C1194 C1195 1.390 1_554 S
C1195 C1194 1.390 1_556 S
C1195 C1196 1.394 . S
C1195 C1201 1.465 . S
C1196 C1191 1.399 . S
C1196 C1195 1.394 . S
C1196 C1197 1.516 . S
C1197 C1196 1.516 . S
C1197 C1198 1.502 . S
C1197 C1199 1.561 . S
C1197 C1200 1.526 . S
C1198 H1182 0.959 . S
C1198 H1183 0.959 . S
C1198 H1184 0.961 . S
C1198 C1197 1.502 . S
C1199 H1185 0.960 . S
C1199 H1186 0.961 . S
C1199 H1187 0.959 . S
C1199 C1197 1.561 . S
C1200 C1197 1.526 . S
C1200 C1201 1.396 . S
C1200 C1205 1.390 . S
C1201 C1195 1.465 . S
C1201 C1200 1.396 . S
C1201 C1202 1.399 1_556 S
C1202 H1188 0.929 . S
C1202 C1201 1.399 1_554 S
C1202 C1203 1.385 . S
C1203 H1189 0.931 . S
C1203 C1202 1.385 . S
C1203 C1204 1.389 1_554 S
C1204 C1203 1.389 1_556 S
C1204 C1205 1.387 . S
C1205 H1190 0.930 . S
C1205 C1200 1.390 . S
C1205 C1204 1.387 . S
H1206 C1218 0.930 . S
H1207 C1220 0.930 . S
H1208 C1221 0.930 . S
H1209 C1225 0.959 . S
H1210 C1225 0.959 . S
H1211 C1225 0.961 . S
H1212 C1226 0.960 . S
H1213 C1226 0.961 . S
H1214 C1226 0.959 . S
H1215 C1229 0.929 . S
H1216 C1230 0.931 . S
H1217 C1232 0.930 . S
C1218 H1206 0.930 . S
C1218 C1219 1.399 . S
C1218 C1223 1.399 . S
C1219 C1218 1.399 . S
C1219 C1220 1.376 . S
C1220 H1207 0.930 . S
C1220 C1219 1.376 . S
C1220 C1221 1.388 . S
C1221 H1208 0.930 . S
C1221 C1220 1.388 . S
C1221 C1222 1.390 . S
C1222 C1221 1.390 . S
C1222 C1223 1.394 . S
C1222 C1228 1.465 . S
C1223 C1218 1.399 . S
C1223 C1222 1.394 . S
C1223 C1224 1.516 . S
C1224 C1223 1.516 . S
C1224 C1225 1.502 . S
C1224 C1226 1.561 . S
C1224 C1227 1.526 . S
C1225 H1209 0.959 . S
C1225 H1210 0.959 . S
C1225 H1211 0.961 . S
C1225 C1224 1.502 . S
C1226 H1212 0.960 . S
C1226 H1213 0.961 . S
C1226 H1214 0.959 . S
C1226 C1224 1.561 . S
C1227 C1224 1.526 . S
C1227 C1228 1.396 . S
C1227 C1232 1.390 . S
C1228 C1222 1.465 . S
C1228 C1227 1.396 . S
C1228 C1229 1.399 1_556 S
C1229 H1215 0.929 . S
C1229 C1228 1.399 1_554 S
C1229 C1230 1.385 . S
C1230 H1216 0.931 . S
C1230 C1229 1.385 . S
C1230 C1231 1.389 1_554 S
C1231 C1230 1.389 1_556 S
C1231 C1232 1.387 . S
C1232 H1217 0.930 . S
C1232 C1227 1.390 . S
C1232 C1231 1.387 . S
H1233 C1245 0.930 1_554 S
H1234 C1247 0.930 . S
H1235 C1248 0.930 . S
H1236 C1252 0.959 . S
H1237 C1252 0.959 . S
H1238 C1252 0.961 . S
H1239 C1253 0.960 . S
H1240 C1253 0.961 . S
H1241 C1253 0.959 1_556 S
H1242 C1256 0.929 . S
H1243 C1257 0.931 . S
H1244 C1259 0.930 . S
C1245 H1233 0.930 1_556 S
C1245 C1246 1.399 . S
C1245 C1250 1.399 . S
C1246 C1245 1.399 . S
C1246 C1247 1.376 . S
C1247 H1234 0.930 . S
C1247 C1246 1.376 . S
C1247 C1248 1.388 . S
C1248 H1235 0.930 . S
C1248 C1247 1.388 . S
C1248 C1249 1.390 . S
C1249 C1248 1.390 . S
C1249 C1250 1.394 . S
C1249 C1255 1.465 . S
C1250 C1245 1.399 . S
C1250 C1249 1.394 . S
C1250 C1251 1.516 1_556 S
C1251 C1250 1.516 1_554 S
C1251 C1252 1.502 . S
C1251 C1253 1.561 . S
C1251 C1254 1.526 1_554 S
C1252 H1236 0.959 . S
C1252 H1237 0.959 . S
C1252 H1238 0.961 . S
C1252 C1251 1.502 . S
C1253 H1239 0.960 . S
C1253 H1240 0.961 . S
C1253 H1241 0.959 1_554 S
C1253 C1251 1.561 . S
C1254 C1251 1.526 1_556 S
C1254 C1255 1.396 . S
C1254 C1259 1.390 1_556 S
C1255 C1249 1.465 . S
C1255 C1254 1.396 . S
C1255 C1256 1.399 . S
C1256 H1242 0.929 . S
C1256 C1255 1.399 . S
C1256 C1257 1.385 . S
C1257 H1243 0.931 . S
C1257 C1256 1.385 . S
C1257 C1258 1.389 . S
C1258 C1257 1.389 . S
C1258 C1259 1.387 1_556 S
C1259 H1244 0.930 . S
C1259 C1254 1.390 1_554 S
C1259 C1258 1.387 1_554 S
H1260 C1272 0.930 1_554 S
H1261 C1274 0.930 . S
H1262 C1275 0.930 . S
H1263 C1279 0.959 . S
H1264 C1279 0.959 . S
H1265 C1279 0.961 . S
H1266 C1280 0.960 . S
H1267 C1280 0.961 . S
H1268 C1280 0.959 . S
H1269 C1283 0.929 . S
H1270 C1284 0.931 . S
H1271 C1286 0.930 . S
C1272 H1260 0.930 1_556 S
C1272 C1273 1.399 . S
C1272 C1277 1.399 . S
C1273 C1272 1.399 . S
C1273 C1274 1.376 . S
C1274 H1261 0.930 . S
C1274 C1273 1.376 . S
C1274 C1275 1.388 . S
C1275 H1262 0.930 . S
C1275 C1274 1.388 . S
C1275 C1276 1.390 . S
C1276 C1275 1.390 . S
C1276 C1277 1.394 . S
C1276 C1282 1.465 . S
C1277 C1272 1.399 . S
C1277 C1276 1.394 . S
C1277 C1278 1.516 1_556 S
C1278 C1277 1.516 1_554 S
C1278 C1279 1.502 . S
C1278 C1280 1.561 . S
C1278 C1281 1.540 . S
C1279 H1263 0.959 . S
C1279 H1264 0.959 . S
C1279 H1265 0.961 . S
C1279 C1278 1.502 . S
C1280 H1266 0.960 . S
C1280 H1267 0.961 . S
C1280 H1268 0.959 . S
C1280 C1278 1.561 . S
C1281 C1278 1.540 . S
C1281 C1282 1.368 1_554 S
C1281 C1286 1.400 . S
C1282 C1276 1.465 . S
C1282 C1281 1.368 1_556 S
C1282 C1283 1.399 . S
C1283 H1269 0.929 . S
C1283 C1282 1.399 . S
C1283 C1284 1.385 . S
C1284 H1270 0.931 . S
C1284 C1283 1.385 . S
C1284 C1285 1.389 . S
C1285 C1284 1.389 . S
C1285 C1286 1.387 1_556 S
C1286 H1271 0.930 . S
C1286 C1281 1.400 . S
C1286 C1285 1.387 1_554 S
H1287 C1299 0.930 . S
H1288 C1301 0.930 1_554 S
H1289 C1302 0.930 . S
H1290 C1306 0.959 . S
H1291 C1306 0.959 . S
H1292 C1306 0.961 . S
H1293 C1307 0.960 . S
H1294 C1307 0.961 . S
H1295 C1307 0.959 . S
H1296 C1310 0.929 . S
H1297 C1311 0.931 . S
H1298 C1313 0.930 . S
C1299 H1287 0.930 . S
C1299 C1300 1.399 . S
C1299 C1304 1.399 . S
C1300 C1299 1.399 . S
C1300 C1301 1.376 . S
C1301 H1288 0.930 1_556 S
C1301 C1300 1.376 . S
C1301 C1302 1.388 1_556 S
C1302 H1289 0.930 . S
C1302 C1301 1.388 1_554 S
C1302 C1303 1.390 1_554 S
C1303 C1302 1.390 1_556 S
C1303 C1304 1.394 . S
C1303 C1309 1.465 . S
C1304 C1299 1.399 . S
C1304 C1303 1.394 . S
C1304 C1305 1.516 . S
C1305 C1304 1.516 . S
C1305 C1306 1.502 . S
C1305 C1307 1.561 . S
C1305 C1308 1.526 . S
C1306 H1290 0.959 . S
C1306 H1291 0.959 . S
C1306 H1292 0.961 . S
C1306 C1305 1.502 . S
C1307 H1293 0.960 . S
C1307 H1294 0.961 . S
C1307 H1295 0.959 . S
C1307 C1305 1.561 . S
C1308 C1305 1.526 . S
C1308 C1309 1.396 . S
C1308 C1313 1.390 . S
C1309 C1303 1.465 . S
C1309 C1308 1.396 . S
C1309 C1310 1.399 1_556 S
C1310 H1296 0.929 . S
C1310 C1309 1.399 1_554 S
C1310 C1311 1.385 . S
C1311 H1297 0.931 . S
C1311 C1310 1.385 . S
C1311 C1312 1.389 1_554 S
C1312 C1311 1.389 1_556 S
C1312 C1313 1.387 . S
C1313 H1298 0.930 . S
C1313 C1308 1.390 . S
C1313 C1312 1.387 . S
H1314 C1326 0.930 . S
H1315 C1328 0.930 . S
H1316 C1329 0.930 . S
H1317 C1333 0.959 . S
H1318 C1333 0.959 . S
H1319 C1333 0.961 . S
H1320 C1334 0.960 . S
H1321 C1334 0.961 . S
H1322 C1334 0.959 . S
H1323 C1337 0.929 . S
H1324 C1338 0.931 . S
H1325 C1340 0.930 . S
C1326 H1314 0.930 . S
C1326 C1327 1.399 . S
C1326 C1331 1.399 . S
C1327 C1326 1.399 . S
C1327 C1328 1.376 1_556 S
C1328 H1315 0.930 . S
C1328 C1327 1.376 1_554 S
C1328 C1329 1.388 . S
C1329 H1316 0.930 . S
C1329 C1328 1.388 . S
C1329 C1330 1.404 . S
C1330 C1329 1.404 . S
C1330 C1331 1.373 1_554 S
C1330 C1336 1.468 . S
C1331 C1326 1.399 . S
C1331 C1330 1.373 1_556 S
C1331 C1332 1.516 . S
C1332 C1331 1.516 . S
C1332 C1333 1.502 . S
C1332 C1334 1.561 . S
C1332 C1335 1.526 . S
C1333 H1317 0.959 . S
C1333 H1318 0.959 . S
C1333 H1319 0.961 . S
C1333 C1332 1.502 . S
C1334 H1320 0.960 . S
C1334 H1321 0.961 . S
C1334 H1322 0.959 . S
C1334 C1332 1.561 . S
C1335 C1332 1.526 . S
C1335 C1336 1.396 1_556 S
C1335 C1340 1.390 . S
C1336 C1330 1.468 . S
C1336 C1335 1.396 1_554 S
C1336 C1337 1.399 . S
C1337 H1323 0.929 . S
C1337 C1336 1.399 . S
C1337 C1338 1.385 . S
C1338 H1324 0.931 . S
C1338 C1337 1.385 . S
C1338 C1339 1.389 . S
C1339 C1338 1.389 . S
C1339 C1340 1.387 1_554 S
C1340 H1325 0.930 . S
C1340 C1335 1.390 . S
C1340 C1339 1.387 1_556 S
H1341 C1353 0.930 . S
H1342 C1355 0.930 . S
H1343 C1356 0.930 . S
H1344 C1360 0.959 . S
H1345 C1360 0.959 . S
H1346 C1360 0.961 . S
H1347 C1361 0.960 . S
H1348 C1361 0.961 . S
H1349 C1361 0.959 . S
H1350 C1364 0.929 . S
H1351 C1365 0.931 . S
H1352 C1367 0.930 . S
C1353 H1341 0.930 . S
C1353 C1354 1.399 . S
C1353 C1358 1.399 . S
C1354 C1353 1.399 . S
C1354 C1355 1.376 . S
C1355 H1342 0.930 . S
C1355 C1354 1.376 . S
C1355 C1356 1.388 . S
C1356 H1343 0.930 . S
C1356 C1355 1.388 . S
C1356 C1357 1.390 . S
C1357 C1356 1.390 . S
C1357 C1358 1.394 . S
C1357 C1363 1.465 . S
C1358 C1353 1.399 . S
C1358 C1357 1.394 . S
C1358 C1359 1.516 . S
C1359 C1358 1.516 . S
C1359 C1360 1.502 . S
C1359 C1361 1.561 . S
C1359 C1362 1.526 . S
C1360 H1344 0.959 . S
C1360 H1345 0.959 . S
C1360 H1346 0.961 . S
C1360 C1359 1.502 . S
C1361 H1347 0.960 . S
C1361 H1348 0.961 . S
C1361 H1349 0.959 . S
C1361 C1359 1.561 . S
C1362 C1359 1.526 . S
C1362 C1363 1.396 . S
C1362 C1367 1.390 . S
C1363 C1357 1.465 . S
C1363 C1362 1.396 . S
C1363 C1364 1.399 . S
C1364 H1350 0.929 . S
C1364 C1363 1.399 . S
C1364 C1365 1.385 . S
C1365 H1351 0.931 . S
C1365 C1364 1.385 . S
C1365 C1366 1.389 . S
C1366 C1365 1.389 . S
C1366 C1367 1.387 . S
C1367 H1352 0.930 . S
C1367 C1362 1.390 . S
C1367 C1366 1.387 . S
H1368 C1380 0.930 . S
H1369 C1382 0.930 . S
H1370 C1383 0.930 . S
H1371 C1387 0.959 . S
H1372 C1387 0.959 . S
H1373 C1387 0.961 . S
H1374 C1388 0.960 . S
H1375 C1388 0.961 . S
H1376 C1388 0.959 . S
H1377 C1391 0.929 . S
H1378 C1392 0.931 . S
H1379 C1394 0.930 . S
C1380 H1368 0.930 . S
C1380 C1381 1.399 . S
C1380 C1385 1.399 . S
C1381 C1380 1.399 . S
C1381 C1382 1.376 . S
C1382 H1369 0.930 . S
C1382 C1381 1.376 . S
C1382 C1383 1.388 . S
C1383 H1370 0.930 . S
C1383 C1382 1.388 . S
C1383 C1384 1.390 . S
C1384 C1383 1.390 . S
C1384 C1385 1.394 . S
C1384 C1390 1.465 . S
C1385 C1380 1.399 . S
C1385 C1384 1.394 . S
C1385 C1386 1.516 . S
C1386 C1385 1.516 . S
C1386 C1387 1.502 . S
C1386 C1388 1.561 . S
C1386 C1389 1.526 . S
C1387 H1371 0.959 . S
C1387 H1372 0.959 . S
C1387 H1373 0.961 . S
C1387 C1386 1.502 . S
C1388 H1374 0.960 . S
C1388 H1375 0.961 . S
C1388 H1376 0.959 . S
C1388 C1386 1.561 . S
C1389 C1386 1.526 . S
C1389 C1390 1.396 . S
C1389 C1394 1.390 . S
C1390 C1384 1.465 . S
C1390 C1389 1.396 . S
C1390 C1391 1.399 . S
C1391 H1377 0.929 . S
C1391 C1390 1.399 . S
C1391 C1392 1.385 . S
C1392 H1378 0.931 . S
C1392 C1391 1.385 . S
C1392 C1393 1.389 . S
C1393 C1392 1.389 . S
C1393 C1394 1.387 . S
C1394 H1379 0.930 . S
C1394 C1389 1.390 . S
C1394 C1393 1.387 . S
H1395 C1407 0.930 . S
H1396 C1409 0.930 . S
H1397 C1410 0.930 . S
H1398 C1414 0.959 . S
H1399 C1414 0.959 . S
H1400 C1414 0.961 . S
H1401 C1415 0.960 . S
H1402 C1415 0.961 . S
H1403 C1415 0.959 . S
H1404 C1418 0.929 . S
H1405 C1419 0.931 . S
H1406 C1421 0.930 . S
C1407 H1395 0.930 . S
C1407 C1408 1.399 . S
C1407 C1412 1.399 . S
C1408 C1407 1.399 . S
C1408 C1409 1.376 . S
C1409 H1396 0.930 . S
C1409 C1408 1.376 . S
C1409 C1410 1.388 . S
C1410 H1397 0.930 . S
C1410 C1409 1.388 . S
C1410 C1411 1.390 . S
C1411 C1410 1.390 . S
C1411 C1412 1.394 . S
C1411 C1417 1.465 . S
C1412 C1407 1.399 . S
C1412 C1411 1.394 . S
C1412 C1413 1.516 . S
C1413 C1412 1.516 . S
C1413 C1414 1.502 . S
C1413 C1415 1.561 1_554 S
C1413 C1416 1.526 . S
C1414 H1398 0.959 . S
C1414 H1399 0.959 . S
C1414 H1400 0.961 . S
C1414 C1413 1.502 . S
C1415 H1401 0.960 . S
C1415 H1402 0.961 . S
C1415 H1403 0.959 . S
C1415 C1413 1.561 1_556 S
C1416 C1413 1.526 . S
C1416 C1417 1.396 . S
C1416 C1421 1.390 . S
C1417 C1411 1.465 . S
C1417 C1416 1.396 . S
C1417 C1418 1.399 . S
C1418 H1404 0.929 . S
C1418 C1417 1.399 . S
C1418 C1419 1.385 . S
C1419 H1405 0.931 . S
C1419 C1418 1.385 . S
C1419 C1420 1.389 . S
C1420 C1419 1.389 . S
C1420 C1421 1.387 . S
C1421 H1406 0.930 . S
C1421 C1416 1.390 . S
C1421 C1420 1.387 . S
H1422 C1434 0.930 . S
H1423 C1436 0.930 . S
H1424 C1437 0.930 . S
H1425 C1441 0.959 . S
H1426 C1441 0.959 . S
H1427 C1441 0.961 . S
H1428 C1442 0.960 . S
H1429 C1442 0.961 1_455 S
H1430 C1442 0.959 . S
H1431 C1445 0.929 . S
H1432 C1446 0.931 . S
H1433 C1448 0.930 . S
C1434 H1422 0.930 . S
C1434 C1435 1.399 . S
C1434 C1439 1.399 . S
C1435 C1434 1.399 . S
C1435 C1436 1.376 . S
C1436 H1423 0.930 . S
C1436 C1435 1.376 . S
C1436 C1437 1.388 . S
C1437 H1424 0.930 . S
C1437 C1436 1.388 . S
C1437 C1438 1.390 . S
C1438 C1437 1.390 . S
C1438 C1439 1.394 . S
C1438 C1444 1.465 1_655 S
C1439 C1434 1.399 . S
C1439 C1438 1.394 . S
C1439 C1440 1.516 1_655 S
C1440 C1439 1.516 1_455 S
C1440 C1441 1.502 . S
C1440 C1442 1.561 1_455 S
C1440 C1443 1.526 . S
C1441 H1425 0.959 . S
C1441 H1426 0.959 . S
C1441 H1427 0.961 . S
C1441 C1440 1.502 . S
C1442 H1428 0.960 . S
C1442 H1429 0.961 1_655 S
C1442 H1430 0.959 . S
C1442 C1440 1.561 1_655 S
C1443 C1440 1.526 . S
C1443 C1444 1.396 . S
C1443 C1448 1.390 . S
C1444 C1438 1.465 1_455 S
C1444 C1443 1.396 . S
C1444 C1445 1.399 . S
C1445 H1431 0.929 . S
C1445 C1444 1.399 . S
C1445 C1446 1.385 . S
C1446 H1432 0.931 . S
C1446 C1445 1.385 . S
C1446 C1447 1.389 . S
C1447 C1446 1.389 . S
C1447 C1448 1.387 . S
C1448 H1433 0.930 . S
C1448 C1443 1.390 . S
C1448 C1447 1.387 . S
H1449 C1461 0.930 . S
H1450 C1463 0.930 . S
H1451 C1464 0.930 . S
H1452 C1468 0.959 . S
H1453 C1468 0.959 . S
H1454 C1468 0.961 . S
H1455 C1469 0.960 . S
H1456 C1469 0.961 . S
H1457 C1469 0.959 . S
H1458 C1472 0.929 . S
H1459 C1473 0.931 . S
H1460 C1475 0.930 . S
C1461 H1449 0.930 . S
C1461 C1462 1.399 . S
C1461 C1466 1.399 . S
C1462 C1461 1.399 . S
C1462 C1463 1.376 . S
C1463 H1450 0.930 . S
C1463 C1462 1.376 . S
C1463 C1464 1.388 . S
C1464 H1451 0.930 . S
C1464 C1463 1.388 . S
C1464 C1465 1.390 . S
C1465 C1464 1.390 . S
C1465 C1466 1.394 . S
C1465 C1471 1.465 . S
C1466 C1461 1.399 . S
C1466 C1465 1.394 . S
C1466 C1467 1.516 . S
C1467 C1466 1.516 . S
C1467 C1468 1.502 . S
C1467 C1469 1.561 . S
C1467 C1470 1.526 . S
C1468 H1452 0.959 . S
C1468 H1453 0.959 . S
C1468 H1454 0.961 . S
C1468 C1467 1.502 . S
C1469 H1455 0.960 . S
C1469 H1456 0.961 . S
C1469 H1457 0.959 . S
C1469 C1467 1.561 . S
C1470 C1467 1.526 . S
C1470 C1471 1.396 . S
C1470 C1475 1.390 . S
C1471 C1465 1.465 . S
C1471 C1470 1.396 . S
C1471 C1472 1.399 . S
C1472 H1458 0.929 . S
C1472 C1471 1.399 . S
C1472 C1473 1.385 . S
C1473 H1459 0.931 . S
C1473 C1472 1.385 . S
C1473 C1474 1.389 . S
C1474 C1473 1.389 . S
C1474 C1475 1.387 . S
C1475 H1460 0.930 . S
C1475 C1470 1.390 . S
C1475 C1474 1.387 . S
H1476 C1488 0.930 . S
H1477 C1490 0.930 . S
H1478 C1491 0.930 . S
H1479 C1495 0.959 1_565 S
H1480 C1495 0.959 1_565 S
H1481 C1495 0.961 . S
H1482 C1496 0.960 . S
H1483 C1496 0.961 . S
H1484 C1496 0.959 . S
H1485 C1499 0.929 . S
H1486 C1500 0.931 . S
H1487 C1502 0.930 . S
C1488 H1476 0.930 . S
C1488 C1489 1.399 . S
C1488 C1493 1.399 . S
C1489 C1488 1.399 . S
C1489 C1490 1.376 . S
C1490 H1477 0.930 . S
C1490 C1489 1.376 . S
C1490 C1491 1.388 . S
C1491 H1478 0.930 . S
C1491 C1490 1.388 . S
C1491 C1492 1.390 . S
C1492 C1491 1.390 . S
C1492 C1493 1.394 . S
C1492 C1498 1.465 1_545 S
C1493 C1488 1.399 . S
C1493 C1492 1.394 . S
C1493 C1494 1.516 . S
C1494 C1493 1.516 . S
C1494 C1495 1.502 . S
C1494 C1496 1.561 . S
C1494 C1497 1.526 1_545 S
C1495 H1479 0.959 1_545 S
C1495 H1480 0.959 1_545 S
C1495 H1481 0.961 . S
C1495 C1494 1.502 . S
C1496 H1482 0.960 . S
C1496 H1483 0.961 . S
C1496 H1484 0.959 . S
C1496 C1494 1.561 . S
C1497 C1494 1.526 1_565 S
C1497 C1498 1.396 . S
C1497 C1502 1.390 . S
C1498 C1492 1.465 1_565 S
C1498 C1497 1.396 . S
C1498 C1499 1.399 . S
C1499 H1485 0.929 . S
C1499 C1498 1.399 . S
C1499 C1500 1.385 . S
C1500 H1486 0.931 . S
C1500 C1499 1.385 . S
C1500 C1501 1.389 . S
C1501 C1500 1.389 . S
C1501 C1502 1.387 . S
C1502 H1487 0.930 . S
C1502 C1497 1.390 . S
C1502 C1501 1.387 . S
H1503 C1515 0.930 . S
H1504 C1517 0.930 . S
H1505 C1518 0.930 . S
H1506 C1522 0.959 . S
H1507 C1522 0.959 . S
H1508 C1522 0.961 . S
H1509 C1523 0.960 . S
H1510 C1523 0.961 . S
H1511 C1523 0.959 . S
H1512 C1526 0.929 . S
H1513 C1527 0.931 . S
H1514 C1529 0.930 . S
C1515 H1503 0.930 . S
C1515 C1516 1.399 . S
C1515 C1520 1.399 . S
C1516 C1515 1.399 . S
C1516 C1517 1.376 . S
C1517 H1504 0.930 . S
C1517 C1516 1.376 . S
C1517 C1518 1.388 . S
C1518 H1505 0.930 . S
C1518 C1517 1.388 . S
C1518 C1519 1.390 . S
C1519 C1518 1.390 . S
C1519 C1520 1.394 . S
C1519 C1525 1.465 . S
C1520 C1515 1.399 . S
C1520 C1519 1.394 . S
C1520 C1521 1.516 . S
C1521 C1520 1.516 . S
C1521 C1522 1.502 . S
C1521 C1523 1.561 . S
C1521 C1524 1.526 . S
C1522 H1506 0.959 . S
C1522 H1507 0.959 . S
C1522 H1508 0.961 . S
C1522 C1521 1.502 . S
C1523 H1509 0.960 . S
C1523 H1510 0.961 . S
C1523 H1511 0.959 . S
C1523 C1521 1.561 . S
C1524 C1521 1.526 . S
C1524 C1525 1.396 . S
C1524 C1529 1.390 . S
C1525 C1519 1.465 . S
C1525 C1524 1.396 . S
C1525 C1526 1.399 . S
C1526 H1512 0.929 . S
C1526 C1525 1.399 . S
C1526 C1527 1.385 . S
C1527 H1513 0.931 . S
C1527 C1526 1.385 . S
C1527 C1528 1.389 . S
C1528 C1527 1.389 . S
C1528 C1529 1.387 . S
C1529 H1514 0.930 . S
C1529 C1524 1.390 . S
C1529 C1528 1.387 . S
H1530 C1542 0.930 . S
H1531 C1544 0.930 . S
H1532 C1545 0.930 . S
H1533 C1549 0.959 . S
H1534 C1549 0.959 . S
H1535 C1549 0.961 . S
H1536 C1550 0.960 . S
H1537 C1550 0.961 . S
H1538 C1550 0.959 . S
H1539 C1553 0.929 . S
H1540 C1554 0.931 . S
H1541 C1556 0.930 . S
C1542 H1530 0.930 . S
C1542 C1543 1.399 . S
C1542 C1547 1.399 . S
C1543 C1542 1.399 . S
C1543 C1544 1.376 . S
C1544 H1531 0.930 . S
C1544 C1543 1.376 . S
C1544 C1545 1.388 . S
C1545 H1532 0.930 . S
C1545 C1544 1.388 . S
C1545 C1546 1.390 . S
C1546 C1545 1.390 . S
C1546 C1547 1.394 . S
C1546 C1552 1.465 . S
C1547 C1542 1.399 . S
C1547 C1546 1.394 . S
C1547 C1548 1.516 . S
C1548 C1547 1.516 . S
C1548 C1549 1.502 . S
C1548 C1550 1.561 . S
C1548 C1551 1.526 . S
C1549 H1533 0.959 . S
C1549 H1534 0.959 . S
C1549 H1535 0.961 . S
C1549 C1548 1.502 . S
C1550 H1536 0.960 . S
C1550 H1537 0.961 . S
C1550 H1538 0.959 . S
C1550 C1548 1.561 . S
C1551 C1548 1.526 . S
C1551 C1552 1.396 . S
C1551 C1556 1.390 . S
C1552 C1546 1.465 . S
C1552 C1551 1.396 . S
C1552 C1553 1.399 . S
C1553 H1539 0.929 . S
C1553 C1552 1.399 . S
C1553 C1554 1.385 . S
C1554 H1540 0.931 . S
C1554 C1553 1.385 . S
C1554 C1555 1.389 . S
C1555 C1554 1.389 . S
C1555 C1556 1.387 . S
C1556 H1541 0.930 . S
C1556 C1551 1.390 . S
C1556 C1555 1.387 . S
H1557 C1569 0.930 . S
H1558 C1571 0.930 . S
H1559 C1572 0.930 . S
H1560 C1576 0.959 . S
H1561 C1576 0.959 . S
H1562 C1576 0.961 . S
H1563 C1577 0.960 . S
H1564 C1577 0.961 . S
H1565 C1577 0.959 . S
H1566 C1580 0.929 . S
H1567 C1581 0.931 . S
H1568 C1583 0.930 . S
C1569 H1557 0.930 . S
C1569 C1570 1.399 . S
C1569 C1574 1.399 . S
C1570 C1569 1.399 . S
C1570 C1571 1.376 . S
C1571 H1558 0.930 . S
C1571 C1570 1.376 . S
C1571 C1572 1.388 . S
C1572 H1559 0.930 . S
C1572 C1571 1.388 . S
C1572 C1573 1.390 . S
C1573 C1572 1.390 . S
C1573 C1574 1.394 . S
C1573 C1579 1.465 . S
C1574 C1569 1.399 . S
C1574 C1573 1.394 . S
C1574 C1575 1.516 . S
C1575 C1574 1.516 . S
C1575 C1576 1.502 . S
C1575 C1577 1.561 . S
C1575 C1578 1.526 . S
C1576 H1560 0.959 . S
C1576 H1561 0.959 . S
C1576 H1562 0.961 . S
C1576 C1575 1.502 . S
C1577 H1563 0.960 . S
C1577 H1564 0.961 . S
C1577 H1565 0.959 . S
C1577 C1575 1.561 . S
C1578 C1575 1.526 . S
C1578 C1579 1.396 . S
C1578 C1583 1.390 . S
C1579 C1573 1.465 . S
C1579 C1578 1.396 . S
C1579 C1580 1.399 . S
C1580 H1566 0.929 . S
C1580 C1579 1.399 . S
C1580 C1581 1.385 . S
C1581 H1567 0.931 . S
C1581 C1580 1.385 . S
C1581 C1582 1.389 . S
C1582 C1581 1.389 . S
C1582 C1583 1.387 . S
C1583 H1568 0.930 . S
C1583 C1578 1.390 . S
C1583 C1582 1.387 . S
H1584 C1596 0.930 . S
H1585 C1598 0.930 . S
H1586 C1599 0.930 . S
H1587 C1603 0.959 . S
H1588 C1603 0.959 . S
H1589 C1603 0.961 . S
H1590 C1604 0.960 . S
H1591 C1604 0.961 . S
H1592 C1604 0.959 . S
H1593 C1607 0.929 . S
H1594 C1608 0.931 . S
H1595 C1610 0.930 . S
C1596 H1584 0.930 . S
C1596 C1597 1.399 . S
C1596 C1601 1.399 . S
C1597 C1596 1.399 . S
C1597 C1598 1.376 . S
C1598 H1585 0.930 . S
C1598 C1597 1.376 . S
C1598 C1599 1.388 . S
C1599 H1586 0.930 . S
C1599 C1598 1.388 . S
C1599 C1600 1.390 . S
C1600 C1599 1.390 . S
C1600 C1601 1.394 . S
C1600 C1606 1.465 . S
C1601 C1596 1.399 . S
C1601 C1600 1.394 . S
C1601 C1602 1.516 . S
C1602 C1601 1.516 . S
C1602 C1603 1.502 . S
C1602 C1604 1.561 . S
C1602 C1605 1.526 . S
C1603 H1587 0.959 . S
C1603 H1588 0.959 . S
C1603 H1589 0.961 . S
C1603 C1602 1.502 . S
C1604 H1590 0.960 . S
C1604 H1591 0.961 . S
C1604 H1592 0.959 . S
C1604 C1602 1.561 . S
C1605 C1602 1.526 . S
C1605 C1606 1.396 . S
C1605 C1610 1.390 . S
C1606 C1600 1.465 . S
C1606 C1605 1.396 . S
C1606 C1607 1.399 . S
C1607 H1593 0.929 . S
C1607 C1606 1.399 . S
C1607 C1608 1.385 . S
C1608 H1594 0.931 . S
C1608 C1607 1.385 . S
C1608 C1609 1.389 . S
C1609 C1608 1.389 . S
C1609 C1610 1.387 . S
C1610 H1595 0.930 . S
C1610 C1605 1.390 . S
C1610 C1609 1.387 . S
H1611 C1623 0.930 . S
H1612 C1625 0.930 . S
H1613 C1626 0.930 . S
H1614 C1630 0.959 . S
H1615 C1630 0.959 . S
H1616 C1630 0.961 . S
H1617 C1631 0.960 . S
H1618 C1631 0.961 . S
H1619 C1631 0.959 . S
H1620 C1634 0.929 . S
H1621 C1635 0.931 . S
H1622 C1637 0.930 . S
C1623 H1611 0.930 . S
C1623 C1624 1.399 . S
C1623 C1628 1.399 . S
C1624 C1623 1.399 . S
C1624 C1625 1.376 . S
C1625 H1612 0.930 . S
C1625 C1624 1.376 . S
C1625 C1626 1.388 . S
C1626 H1613 0.930 . S
C1626 C1625 1.388 . S
C1626 C1627 1.390 . S
C1627 C1626 1.390 . S
C1627 C1628 1.394 . S
C1627 C1633 1.465 . S
C1628 C1623 1.399 . S
C1628 C1627 1.394 . S
C1628 C1629 1.516 . S
C1629 C1628 1.516 . S
C1629 C1630 1.502 . S
C1629 C1631 1.561 . S
C1629 C1632 1.526 . S
C1630 H1614 0.959 . S
C1630 H1615 0.959 . S
C1630 H1616 0.961 . S
C1630 C1629 1.502 . S
C1631 H1617 0.960 . S
C1631 H1618 0.961 . S
C1631 H1619 0.959 . S
C1631 C1629 1.561 . S
C1632 C1629 1.526 . S
C1632 C1633 1.396 . S
C1632 C1637 1.390 . S
C1633 C1627 1.465 . S
C1633 C1632 1.396 . S
C1633 C1634 1.399 . S
C1634 H1620 0.929 . S
C1634 C1633 1.399 . S
C1634 C1635 1.385 . S
C1635 H1621 0.931 . S
C1635 C1634 1.385 . S
C1635 C1636 1.389 . S
C1636 C1635 1.389 . S
C1636 C1637 1.387 . S
C1637 H1622 0.930 . S
C1637 C1632 1.390 . S
C1637 C1636 1.387 . S
H1638 C1650 0.930 . S
H1639 C1652 0.930 . S
H1640 C1653 0.930 . S
H1641 C1657 0.959 . S
H1642 C1657 0.959 . S
H1643 C1657 0.961 . S
H1644 C1658 0.960 . S
H1645 C1658 0.961 . S
H1646 C1658 0.959 . S
H1647 C1661 0.929 . S
H1648 C1662 0.931 . S
H1649 C1664 0.930 . S
C1650 H1638 0.930 . S
C1650 C1651 1.399 . S
C1650 C1655 1.399 . S
C1651 C1650 1.399 . S
C1651 C1652 1.376 . S
C1652 H1639 0.930 . S
C1652 C1651 1.376 . S
C1652 C1653 1.388 . S
C1653 H1640 0.930 . S
C1653 C1652 1.388 . S
C1653 C1654 1.390 . S
C1654 C1653 1.390 . S
C1654 C1655 1.394 . S
C1654 C1660 1.465 . S
C1655 C1650 1.399 . S
C1655 C1654 1.394 . S
C1655 C1656 1.516 . S
C1656 C1655 1.516 . S
C1656 C1657 1.502 . S
C1656 C1658 1.561 . S
C1656 C1659 1.526 . S
C1657 H1641 0.959 . S
C1657 H1642 0.959 . S
C1657 H1643 0.961 . S
C1657 C1656 1.502 . S
C1658 H1644 0.960 . S
C1658 H1645 0.961 . S
C1658 H1646 0.959 . S
C1658 C1656 1.561 . S
C1659 C1656 1.526 . S
C1659 C1660 1.396 . S
C1659 C1664 1.390 . S
C1660 C1654 1.465 . S
C1660 C1659 1.396 . S
C1660 C1661 1.399 . S
C1661 H1647 0.929 . S
C1661 C1660 1.399 . S
C1661 C1662 1.385 . S
C1662 H1648 0.931 . S
C1662 C1661 1.385 . S
C1662 C1663 1.389 . S
C1663 C1662 1.389 . S
C1663 C1664 1.387 . S
C1664 H1649 0.930 . S
C1664 C1659 1.390 . S
C1664 C1663 1.387 . S
H1665 C1677 0.930 . S
H1666 C1679 0.930 1_545 S
H1667 C1680 0.930 . S
H1668 C1684 0.959 . S
H1669 C1684 0.959 . S
H1670 C1684 0.961 . S
H1671 C1685 0.960 . S
H1672 C1685 0.961 . S
H1673 C1685 0.959 . S
H1674 C1688 0.929 . S
H1675 C1689 0.931 . S
H1676 C1691 0.930 . S
C1677 H1665 0.930 . S
C1677 C1678 1.399 . S
C1677 C1682 1.399 . S
C1678 C1677 1.399 . S
C1678 C1679 1.376 . S
C1679 H1666 0.930 1_565 S
C1679 C1678 1.376 . S
C1679 C1680 1.388 . S
C1680 H1667 0.930 . S
C1680 C1679 1.388 . S
C1680 C1681 1.390 . S
C1681 C1680 1.390 . S
C1681 C1682 1.394 . S
C1681 C1687 1.465 . S
C1682 C1677 1.399 . S
C1682 C1681 1.394 . S
C1682 C1683 1.516 . S
C1683 C1682 1.516 . S
C1683 C1684 1.502 . S
C1683 C1685 1.561 . S
C1683 C1686 1.526 . S
C1684 H1668 0.959 . S
C1684 H1669 0.959 . S
C1684 H1670 0.961 . S
C1684 C1683 1.502 . S
C1685 H1671 0.960 . S
C1685 H1672 0.961 . S
C1685 H1673 0.959 . S
C1685 C1683 1.561 . S
C1686 C1683 1.526 . S
C1686 C1687 1.396 . S
C1686 C1691 1.390 . S
C1687 C1681 1.465 . S
C1687 C1686 1.396 . S
C1687 C1688 1.399 . S
C1688 H1674 0.929 . S
C1688 C1687 1.399 . S
C1688 C1689 1.385 . S
C1689 H1675 0.931 . S
C1689 C1688 1.385 . S
C1689 C1690 1.389 . S
C1690 C1689 1.389 . S
C1690 C1691 1.387 . S
C1691 H1676 0.930 . S
C1691 C1686 1.390 . S
C1691 C1690 1.387 . S
H1692 C1704 0.930 . S
H1693 C1706 0.930 . S
H1694 C1707 0.930 . S
H1695 C1711 0.959 . S
H1696 C1711 0.959 . S
H1697 C1711 0.961 . S
H1698 C1712 0.960 . S
H1699 C1712 0.961 . S
H1700 C1712 0.959 . S
H1701 C1715 0.929 . S
H1702 C1716 0.931 . S
H1703 C1718 0.930 . S
C1704 H1692 0.930 . S
C1704 C1705 1.399 . S
C1704 C1709 1.399 . S
C1705 C1704 1.399 . S
C1705 C1706 1.376 . S
C1706 H1693 0.930 . S
C1706 C1705 1.376 . S
C1706 C1707 1.388 . S
C1707 H1694 0.930 . S
C1707 C1706 1.388 . S
C1707 C1708 1.390 . S
C1708 C1707 1.390 . S
C1708 C1709 1.394 . S
C1708 C1714 1.465 . S
C1709 C1704 1.399 . S
C1709 C1708 1.394 . S
C1709 C1710 1.516 . S
C1710 C1709 1.516 . S
C1710 C1711 1.502 . S
C1710 C1712 1.561 . S
C1710 C1713 1.526 . S
C1711 H1695 0.959 . S
C1711 H1696 0.959 . S
C1711 H1697 0.961 . S
C1711 C1710 1.502 . S
C1712 H1698 0.960 . S
C1712 H1699 0.961 . S
C1712 H1700 0.959 . S
C1712 C1710 1.561 . S
C1713 C1710 1.526 . S
C1713 C1714 1.396 . S
C1713 C1718 1.390 . S
C1714 C1708 1.465 . S
C1714 C1713 1.396 . S
C1714 C1715 1.399 . S
C1715 H1701 0.929 . S
C1715 C1714 1.399 . S
C1715 C1716 1.385 . S
C1716 H1702 0.931 . S
C1716 C1715 1.385 . S
C1716 C1717 1.389 . S
C1717 C1716 1.389 . S
C1717 C1718 1.387 . S
C1718 H1703 0.930 . S
C1718 C1713 1.390 . S
C1718 C1717 1.387 . S
H1719 C1731 0.930 . S
H1720 C1733 0.930 . S
H1721 C1734 0.930 . S
H1722 C1738 0.959 . S
H1723 C1738 0.959 . S
H1724 C1738 0.961 . S
H1725 C1739 0.960 . S
H1726 C1739 0.961 . S
H1727 C1739 0.959 . S
H1728 C1742 0.929 . S
H1729 C1743 0.931 . S
H1730 C1745 0.930 . S
C1731 H1719 0.930 . S
C1731 C1732 1.399 . S
C1731 C1736 1.399 . S
C1732 C1731 1.399 . S
C1732 C1733 1.376 . S
C1733 H1720 0.930 . S
C1733 C1732 1.376 . S
C1733 C1734 1.388 . S
C1734 H1721 0.930 . S
C1734 C1733 1.388 . S
C1734 C1735 1.390 . S
C1735 C1734 1.390 . S
C1735 C1736 1.394 . S
C1735 C1741 1.465 . S
C1736 C1731 1.399 . S
C1736 C1735 1.394 . S
C1736 C1737 1.516 . S
C1737 C1736 1.516 . S
C1737 C1738 1.502 . S
C1737 C1739 1.561 . S
C1737 C1740 1.526 . S
C1738 H1722 0.959 . S
C1738 H1723 0.959 . S
C1738 H1724 0.961 . S
C1738 C1737 1.502 . S
C1739 H1725 0.960 . S
C1739 H1726 0.961 . S
C1739 H1727 0.959 . S
C1739 C1737 1.561 . S
C1740 C1737 1.526 . S
C1740 C1741 1.396 . S
C1740 C1745 1.390 . S
C1741 C1735 1.465 . S
C1741 C1740 1.396 . S
C1741 C1742 1.399 . S
C1742 H1728 0.929 . S
C1742 C1741 1.399 . S
C1742 C1743 1.385 . S
C1743 H1729 0.931 . S
C1743 C1742 1.385 . S
C1743 C1744 1.389 . S
C1744 C1743 1.389 . S
C1744 C1745 1.387 . S
C1745 H1730 0.930 . S
C1745 C1740 1.390 . S
C1745 C1744 1.387 . S
H1746 C1758 0.930 . S
H1747 C1760 0.930 . S
H1748 C1761 0.930 . S
H1749 C1765 0.959 . S
H1750 C1765 0.959 . S
H1751 C1765 0.961 . S
H1752 C1766 0.960 . S
H1753 C1766 0.961 . S
H1754 C1766 0.959 . S
H1755 C1769 0.929 . S
H1756 C1770 0.931 . S
H1757 C1772 0.930 . S
C1758 H1746 0.930 . S
C1758 C1759 1.399 . S
C1758 C1763 1.399 . S
C1759 C1758 1.399 . S
C1759 C1760 1.376 . S
C1760 H1747 0.930 . S
C1760 C1759 1.376 . S
C1760 C1761 1.388 . S
C1761 H1748 0.930 . S
C1761 C1760 1.388 . S
C1761 C1762 1.390 . S
C1762 C1761 1.390 . S
C1762 C1763 1.394 . S
C1762 C1768 1.465 . S
C1763 C1758 1.399 . S
C1763 C1762 1.394 . S
C1763 C1764 1.516 . S
C1764 C1763 1.516 . S
C1764 C1765 1.502 . S
C1764 C1766 1.561 . S
C1764 C1767 1.526 . S
C1765 H1749 0.959 . S
C1765 H1750 0.959 . S
C1765 H1751 0.961 . S
C1765 C1764 1.502 . S
C1766 H1752 0.960 . S
C1766 H1753 0.961 . S
C1766 H1754 0.959 . S
C1766 C1764 1.561 . S
C1767 C1764 1.526 . S
C1767 C1768 1.396 . S
C1767 C1772 1.390 . S
C1768 C1762 1.465 . S
C1768 C1767 1.396 . S
C1768 C1769 1.399 . S
C1769 H1755 0.929 . S
C1769 C1768 1.399 . S
C1769 C1770 1.385 . S
C1770 H1756 0.931 . S
C1770 C1769 1.385 . S
C1770 C1771 1.389 . S
C1771 C1770 1.389 . S
C1771 C1772 1.387 . S
C1772 H1757 0.930 . S
C1772 C1767 1.390 . S
C1772 C1771 1.387 . S
H1773 C1785 0.930 . S
H1774 C1787 0.930 . S
H1775 C1788 0.930 . S
H1776 C1792 0.959 . S
H1777 C1792 0.959 . S
H1778 C1792 0.961 . S
H1779 C1793 0.960 . S
H1780 C1793 0.961 . S
H1781 C1793 0.959 . S
H1782 C1796 0.929 . S
H1783 C1797 0.931 . S
H1784 C1799 0.930 . S
C1785 H1773 0.930 . S
C1785 C1786 1.399 . S
C1785 C1790 1.399 . S
C1786 C1785 1.399 . S
C1786 C1787 1.376 . S
C1787 H1774 0.930 . S
C1787 C1786 1.376 . S
C1787 C1788 1.388 . S
C1788 H1775 0.930 . S
C1788 C1787 1.388 . S
C1788 C1789 1.390 . S
C1789 C1788 1.390 . S
C1789 C1790 1.394 . S
C1789 C1795 1.465 . S
C1790 C1785 1.399 . S
C1790 C1789 1.394 . S
C1790 C1791 1.516 . S
C1791 C1790 1.516 . S
C1791 C1792 1.502 . S
C1791 C1793 1.561 . S
C1791 C1794 1.526 . S
C1792 H1776 0.959 . S
C1792 H1777 0.959 . S
C1792 H1778 0.961 . S
C1792 C1791 1.502 . S
C1793 H1779 0.960 . S
C1793 H1780 0.961 . S
C1793 H1781 0.959 . S
C1793 C1791 1.561 . S
C1794 C1791 1.526 . S
C1794 C1795 1.396 . S
C1794 C1799 1.390 . S
C1795 C1789 1.465 . S
C1795 C1794 1.396 . S
C1795 C1796 1.399 . S
C1796 H1782 0.929 . S
C1796 C1795 1.399 . S
C1796 C1797 1.385 . S
C1797 H1783 0.931 . S
C1797 C1796 1.385 . S
C1797 C1798 1.389 . S
C1798 C1797 1.389 . S
C1798 C1799 1.387 . S
C1799 H1784 0.930 . S
C1799 C1794 1.390 . S
C1799 C1798 1.387 . S
H1800 C1812 0.930 . S
H1801 C1814 0.930 . S
H1802 C1815 0.930 . S
H1803 C1819 0.959 . S
H1804 C1819 0.959 . S
H1805 C1819 0.961 . S
H1806 C1820 0.960 . S
H1807 C1820 0.961 . S
H1808 C1820 0.959 . S
H1809 C1823 0.929 . S
H1810 C1824 0.931 . S
H1811 C1826 0.930 . S
C1812 H1800 0.930 . S
C1812 C1813 1.399 . S
C1812 C1817 1.399 . S
C1813 C1812 1.399 . S
C1813 C1814 1.376 . S
C1814 H1801 0.930 . S
C1814 C1813 1.376 . S
C1814 C1815 1.388 . S
C1815 H1802 0.930 . S
C1815 C1814 1.388 . S
C1815 C1816 1.390 . S
C1816 C1815 1.390 . S
C1816 C1817 1.394 . S
C1816 C1822 1.465 . S
C1817 C1812 1.399 . S
C1817 C1816 1.394 . S
C1817 C1818 1.516 . S
C1818 C1817 1.516 . S
C1818 C1819 1.502 . S
C1818 C1820 1.561 . S
C1818 C1821 1.526 . S
C1819 H1803 0.959 . S
C1819 H1804 0.959 . S
C1819 H1805 0.961 . S
C1819 C1818 1.502 . S
C1820 H1806 0.960 . S
C1820 H1807 0.961 . S
C1820 H1808 0.959 . S
C1820 C1818 1.561 . S
C1821 C1818 1.526 . S
C1821 C1822 1.396 . S
C1821 C1826 1.390 . S
C1822 C1816 1.465 . S
C1822 C1821 1.396 . S
C1822 C1823 1.399 . S
C1823 H1809 0.929 . S
C1823 C1822 1.399 . S
C1823 C1824 1.385 . S
C1824 H1810 0.931 . S
C1824 C1823 1.385 . S
C1824 C1825 1.389 . S
C1825 C1824 1.389 . S
C1825 C1826 1.387 . S
C1826 H1811 0.930 . S
C1826 C1821 1.390 . S
C1826 C1825 1.387 . S
H1827 C1839 0.930 . S
H1828 C1841 0.930 . S
H1829 C1842 0.930 . S
H1830 C1846 0.959 . S
H1831 C1846 0.959 1_545 S
H1832 C1846 0.961 . S
H1833 C1847 0.960 . S
H1834 C1847 0.961 . S
H1835 C1847 0.959 . S
H1836 C1850 0.929 . S
H1837 C1851 0.931 . S
H1838 C1853 0.930 . S
C1839 H1827 0.930 . S
C1839 C1840 1.399 . S
C1839 C1844 1.399 . S
C1840 C1839 1.399 . S
C1840 C1841 1.376 . S
C1841 H1828 0.930 . S
C1841 C1840 1.376 . S
C1841 C1842 1.388 . S
C1842 H1829 0.930 . S
C1842 C1841 1.388 . S
C1842 C1843 1.390 . S
C1843 C1842 1.390 . S
C1843 C1844 1.394 . S
C1843 C1849 1.465 1_565 S
C1844 C1839 1.399 . S
C1844 C1843 1.394 . S
C1844 C1845 1.516 1_565 S
C1845 C1844 1.516 1_545 S
C1845 C1846 1.502 1_545 S
C1845 C1847 1.561 . S
C1845 C1848 1.526 . S
C1846 H1830 0.959 . S
C1846 H1831 0.959 1_565 S
C1846 H1832 0.961 . S
C1846 C1845 1.502 1_565 S
C1847 H1833 0.960 . S
C1847 H1834 0.961 . S
C1847 H1835 0.959 . S
C1847 C1845 1.561 . S
C1848 C1845 1.526 . S
C1848 C1849 1.396 . S
C1848 C1853 1.390 . S
C1849 C1843 1.465 1_545 S
C1849 C1848 1.396 . S
C1849 C1850 1.399 . S
C1850 H1836 0.929 . S
C1850 C1849 1.399 . S
C1850 C1851 1.385 . S
C1851 H1837 0.931 . S
C1851 C1850 1.385 . S
C1851 C1852 1.389 . S
C1852 C1851 1.389 . S
C1852 C1853 1.387 . S
C1853 H1838 0.930 . S
C1853 C1848 1.390 . S
C1853 C1852 1.387 . S
H1854 C1866 0.930 . S
H1855 C1868 0.930 . S
H1856 C1869 0.930 . S
H1857 C1873 0.959 . S
H1858 C1873 0.959 . S
H1859 C1873 0.961 . S
H1860 C1874 0.960 . S
H1861 C1874 0.961 . S
H1862 C1874 0.959 . S
H1863 C1877 0.929 1_455 S
H1864 C1878 0.931 . S
H1865 C1880 0.930 . S
C1866 H1854 0.930 . S
C1866 C1867 1.399 . S
C1866 C1871 1.399 . S
C1867 C1866 1.399 . S
C1867 C1868 1.376 . S
C1868 H1855 0.930 . S
C1868 C1867 1.376 . S
C1868 C1869 1.388 . S
C1869 H1856 0.930 . S
C1869 C1868 1.388 . S
C1869 C1870 1.390 . S
C1870 C1869 1.390 . S
C1870 C1871 1.394 . S
C1870 C1876 1.465 1_455 S
C1871 C1866 1.399 . S
C1871 C1870 1.394 . S
C1871 C1872 1.516 1_455 S
C1872 C1871 1.516 1_655 S
C1872 C1873 1.502 . S
C1872 C1874 1.561 . S
C1872 C1875 1.526 . S
C1873 H1857 0.959 . S
C1873 H1858 0.959 . S
C1873 H1859 0.961 . S
C1873 C1872 1.502 . S
C1874 H1860 0.960 . S
C1874 H1861 0.961 . S
C1874 H1862 0.959 . S
C1874 C1872 1.561 . S
C1875 C1872 1.526 . S
C1875 C1876 1.396 . S
C1875 C1880 1.390 . S
C1876 C1870 1.465 1_655 S
C1876 C1875 1.396 . S
C1876 C1877 1.399 . S
C1877 H1863 0.929 1_655 S
C1877 C1876 1.399 . S
C1877 C1878 1.385 . S
C1878 H1864 0.931 . S
C1878 C1877 1.385 . S
C1878 C1879 1.389 . S
C1879 C1878 1.389 . S
C1879 C1880 1.387 . S
C1880 H1865 0.930 . S
C1880 C1875 1.390 . S
C1880 C1879 1.387 . S
H1881 C1893 0.930 . S
H1882 C1895 0.930 . S
H1883 C1896 0.930 . S
H1884 C1900 0.959 . S
H1885 C1900 0.959 . S
H1886 C1900 0.961 . S
H1887 C1901 0.960 . S
H1888 C1901 0.961 . S
H1889 C1901 0.959 . S
H1890 C1904 0.929 . S
H1891 C1905 0.931 . S
H1892 C1907 0.930 . S
C1893 H1881 0.930 . S
C1893 C1894 1.399 . S
C1893 C1898 1.399 . S
C1894 C1893 1.399 . S
C1894 C1895 1.376 . S
C1895 H1882 0.930 . S
C1895 C1894 1.376 . S
C1895 C1896 1.388 . S
C1896 H1883 0.930 . S
C1896 C1895 1.388 . S
C1896 C1897 1.390 . S
C1897 C1896 1.390 . S
C1897 C1898 1.394 . S
C1897 C1903 1.465 . S
C1898 C1893 1.399 . S
C1898 C1897 1.394 . S
C1898 C1899 1.516 . S
C1899 C1898 1.516 . S
C1899 C1900 1.502 . S
C1899 C1901 1.561 . S
C1899 C1902 1.526 . S
C1900 H1884 0.959 . S
C1900 H1885 0.959 . S
C1900 H1886 0.961 . S
C1900 C1899 1.502 . S
C1901 H1887 0.960 . S
C1901 H1888 0.961 . S
C1901 H1889 0.959 . S
C1901 C1899 1.561 . S
C1902 C1899 1.526 . S
C1902 C1903 1.396 . S
C1902 C1907 1.390 . S
C1903 C1897 1.465 . S
C1903 C1902 1.396 . S
C1903 C1904 1.399 . S
C1904 H1890 0.929 . S
C1904 C1903 1.399 . S
C1904 C1905 1.385 . S
C1905 H1891 0.931 . S
C1905 C1904 1.385 . S
C1905 C1906 1.389 . S
C1906 C1905 1.389 . S
C1906 C1907 1.387 . S
C1907 H1892 0.930 . S
C1907 C1902 1.390 . S
C1907 C1906 1.387 . S
H1908 C1920 0.930 . S
H1909 C1922 0.930 . S
H1910 C1923 0.930 . S
H1911 C1927 0.959 . S
H1912 C1927 0.959 . S
H1913 C1927 0.961 . S
H1914 C1928 0.960 . S
H1915 C1928 0.961 . S
H1916 C1928 0.959 . S
H1917 C1931 0.929 . S
H1918 C1932 0.931 . S
H1919 C1934 0.930 . S
C1920 H1908 0.930 . S
C1920 C1921 1.399 . S
C1920 C1925 1.399 . S
C1921 C1920 1.399 . S
C1921 C1922 1.376 . S
C1922 H1909 0.930 . S
C1922 C1921 1.376 . S
C1922 C1923 1.388 . S
C1923 H1910 0.930 . S
C1923 C1922 1.388 . S
C1923 C1924 1.390 . S
C1924 C1923 1.390 . S
C1924 C1925 1.394 . S
C1924 C1930 1.465 . S
C1925 C1920 1.399 . S
C1925 C1924 1.394 . S
C1925 C1926 1.516 . S
C1926 C1925 1.516 . S
C1926 C1927 1.502 . S
C1926 C1928 1.561 . S
C1926 C1929 1.526 . S
C1927 H1911 0.959 . S
C1927 H1912 0.959 . S
C1927 H1913 0.961 . S
C1927 C1926 1.502 . S
C1928 H1914 0.960 . S
C1928 H1915 0.961 . S
C1928 H1916 0.959 . S
C1928 C1926 1.561 . S
C1929 C1926 1.526 . S
C1929 C1930 1.396 . S
C1929 C1934 1.390 . S
C1930 C1924 1.465 . S
C1930 C1929 1.396 . S
C1930 C1931 1.399 . S
C1931 H1917 0.929 . S
C1931 C1930 1.399 . S
C1931 C1932 1.385 . S
C1932 H1918 0.931 . S
C1932 C1931 1.385 . S
C1932 C1933 1.389 . S
C1933 C1932 1.389 . S
C1933 C1934 1.387 . S
C1934 H1919 0.930 . S
C1934 C1929 1.390 . S
C1934 C1933 1.387 . S
H1935 C1947 0.930 . S
H1936 C1949 0.930 . S
H1937 C1950 0.930 . S
H1938 C1954 0.959 . S
H1939 C1954 0.959 . S
H1940 C1954 0.961 . S
H1941 C1955 0.960 . S
H1942 C1955 0.961 . S
H1943 C1955 0.959 . S
H1944 C1958 0.929 . S
H1945 C1959 0.931 . S
H1946 C1961 0.930 . S
C1947 H1935 0.930 . S
C1947 C1948 1.399 . S
C1947 C1952 1.399 . S
C1948 C1947 1.399 . S
C1948 C1949 1.376 . S
C1949 H1936 0.930 . S
C1949 C1948 1.376 . S
C1949 C1950 1.388 . S
C1950 H1937 0.930 . S
C1950 C1949 1.388 . S
C1950 C1951 1.390 . S
C1951 C1950 1.390 . S
C1951 C1952 1.394 . S
C1951 C1957 1.465 . S
C1952 C1947 1.399 . S
C1952 C1951 1.394 . S
C1952 C1953 1.516 . S
C1953 C1952 1.516 . S
C1953 C1954 1.502 . S
C1953 C1955 1.561 . S
C1953 C1956 1.526 . S
C1954 H1938 0.959 . S
C1954 H1939 0.959 . S
C1954 H1940 0.961 . S
C1954 C1953 1.502 . S
C1955 H1941 0.960 . S
C1955 H1942 0.961 . S
C1955 H1943 0.959 . S
C1955 C1953 1.561 . S
C1956 C1953 1.526 . S
C1956 C1957 1.396 . S
C1956 C1961 1.390 . S
C1957 C1951 1.465 . S
C1957 C1956 1.396 . S
C1957 C1958 1.399 . S
C1958 H1944 0.929 . S
C1958 C1957 1.399 . S
C1958 C1959 1.385 . S
C1959 H1945 0.931 . S
C1959 C1958 1.385 . S
C1959 C1960 1.389 . S
C1960 C1959 1.389 . S
C1960 C1961 1.387 . S
C1961 H1946 0.930 . S
C1961 C1956 1.390 . S
C1961 C1960 1.387 . S
H1962 C1974 0.930 . S
H1963 C1976 0.930 1_565 S
H1964 C1977 0.930 . S
H1965 C1981 0.959 . S
H1966 C1981 0.959 . S
H1967 C1981 0.961 . S
H1968 C1982 0.960 . S
H1969 C1982 0.961 . S
H1970 C1982 0.959 . S
H1971 C1985 0.929 . S
H1972 C1986 0.931 . S
H1973 C1988 0.930 . S
C1974 H1962 0.930 . S
C1974 C1975 1.399 . S
C1974 C1979 1.399 . S
C1975 C1974 1.399 . S
C1975 C1976 1.376 . S
C1976 H1963 0.930 1_545 S
C1976 C1975 1.376 . S
C1976 C1977 1.388 . S
C1977 H1964 0.930 . S
C1977 C1976 1.388 . S
C1977 C1978 1.390 . S
C1978 C1977 1.390 . S
C1978 C1979 1.394 . S
C1978 C1984 1.465 . S
C1979 C1974 1.399 . S
C1979 C1978 1.394 . S
C1979 C1980 1.516 . S
C1980 C1979 1.516 . S
C1980 C1981 1.502 . S
C1980 C1982 1.561 . S
C1980 C1983 1.526 . S
C1981 H1965 0.959 . S
C1981 H1966 0.959 . S
C1981 H1967 0.961 . S
C1981 C1980 1.502 . S
C1982 H1968 0.960 . S
C1982 H1969 0.961 . S
C1982 H1970 0.959 . S
C1982 C1980 1.561 . S
C1983 C1980 1.526 . S
C1983 C1984 1.396 . S
C1983 C1988 1.390 . S
C1984 C1978 1.465 . S
C1984 C1983 1.396 . S
C1984 C1985 1.399 . S
C1985 H1971 0.929 . S
C1985 C1984 1.399 . S
C1985 C1986 1.385 . S
C1986 H1972 0.931 . S
C1986 C1985 1.385 . S
C1986 C1987 1.389 . S
C1987 C1986 1.389 . S
C1987 C1988 1.387 . S
C1988 H1973 0.930 . S
C1988 C1983 1.390 . S
C1988 C1987 1.387 . S
H1989 C2001 0.930 . S
H1990 C2003 0.930 . S
H1991 C2004 0.930 . S
H1992 C2008 0.959 . S
H1993 C2008 0.959 . S
H1994 C2008 0.961 . S
H1995 C2009 0.960 . S
H1996 C2009 0.961 . S
H1997 C2009 0.959 . S
H1998 C2012 0.929 . S
H1999 C2013 0.931 . S
H2000 C2015 0.930 . S
C2001 H1989 0.930 . S
C2001 C2002 1.399 . S
C2001 C2006 1.399 . S
C2002 C2001 1.399 . S
C2002 C2003 1.376 . S
C2003 H1990 0.930 . S
C2003 C2002 1.376 . S
C2003 C2004 1.388 . S
C2004 H1991 0.930 . S
C2004 C2003 1.388 . S
C2004 C2005 1.390 . S
C2005 C2004 1.390 . S
C2005 C2006 1.394 . S
C2005 C2011 1.465 . S
C2006 C2001 1.399 . S
C2006 C2005 1.394 . S
C2006 C2007 1.516 . S
C2007 C2006 1.516 . S
C2007 C2008 1.502 . S
C2007 C2009 1.561 . S
C2007 C2010 1.526 . S
C2008 H1992 0.959 . S
C2008 H1993 0.959 . S
C2008 H1994 0.961 . S
C2008 C2007 1.502 . S
C2009 H1995 0.960 . S
C2009 H1996 0.961 . S
C2009 H1997 0.959 . S
C2009 C2007 1.561 . S
C2010 C2007 1.526 . S
C2010 C2011 1.396 . S
C2010 C2015 1.390 . S
C2011 C2005 1.465 . S
C2011 C2010 1.396 . S
C2011 C2012 1.399 . S
C2012 H1998 0.929 . S
C2012 C2011 1.399 . S
C2012 C2013 1.385 . S
C2013 H1999 0.931 . S
C2013 C2012 1.385 . S
C2013 C2014 1.389 . S
C2014 C2013 1.389 . S
C2014 C2015 1.387 . S
C2015 H2000 0.930 . S
C2015 C2010 1.390 . S
C2015 C2014 1.387 . S
H2016 C2028 0.930 . S
H2017 C2030 0.930 . S
H2018 C2031 0.930 . S
H2019 C2035 0.959 . S
H2020 C2035 0.959 . S
H2021 C2035 0.961 . S
H2022 C2036 0.960 . S
H2023 C2036 0.961 . S
H2024 C2036 0.959 . S
H2025 C2039 0.929 . S
H2026 C2040 0.931 . S
H2027 C2042 0.930 . S
C2028 H2016 0.930 . S
C2028 C2029 1.399 . S
C2028 C2033 1.399 . S
C2029 C2028 1.399 . S
C2029 C2030 1.376 . S
C2030 H2017 0.930 . S
C2030 C2029 1.376 . S
C2030 C2031 1.388 . S
C2031 H2018 0.930 . S
C2031 C2030 1.388 . S
C2031 C2032 1.390 . S
C2032 C2031 1.390 . S
C2032 C2033 1.394 . S
C2032 C2038 1.465 . S
C2033 C2028 1.399 . S
C2033 C2032 1.394 . S
C2033 C2034 1.516 . S
C2034 C2033 1.516 . S
C2034 C2035 1.502 . S
C2034 C2036 1.561 . S
C2034 C2037 1.526 . S
C2035 H2019 0.959 . S
C2035 H2020 0.959 . S
C2035 H2021 0.961 . S
C2035 C2034 1.502 . S
C2036 H2022 0.960 . S
C2036 H2023 0.961 . S
C2036 H2024 0.959 . S
C2036 C2034 1.561 . S
C2037 C2034 1.526 . S
C2037 C2038 1.396 . S
C2037 C2042 1.390 . S
C2038 C2032 1.465 . S
C2038 C2037 1.396 . S
C2038 C2039 1.399 . S
C2039 H2025 0.929 . S
C2039 C2038 1.399 . S
C2039 C2040 1.385 . S
C2040 H2026 0.931 . S
C2040 C2039 1.385 . S
C2040 C2041 1.389 . S
C2041 C2040 1.389 . S
C2041 C2042 1.387 . S
C2042 H2027 0.930 . S
C2042 C2037 1.390 . S
C2042 C2041 1.387 . S
H2043 C2055 0.930 . S
H2044 C2057 0.930 . S
H2045 C2058 0.930 . S
H2046 C2062 0.959 . S
H2047 C2062 0.959 . S
H2048 C2062 0.961 . S
H2049 C2063 0.960 . S
H2050 C2063 0.961 . S
H2051 C2063 0.959 . S
H2052 C2066 0.929 . S
H2053 C2067 0.931 . S
H2054 C2069 0.930 . S
C2055 H2043 0.930 . S
C2055 C2056 1.399 . S
C2055 C2060 1.399 . S
C2056 C2055 1.399 . S
C2056 C2057 1.376 . S
C2057 H2044 0.930 . S
C2057 C2056 1.376 . S
C2057 C2058 1.388 . S
C2058 H2045 0.930 . S
C2058 C2057 1.388 . S
C2058 C2059 1.390 . S
C2059 C2058 1.390 . S
C2059 C2060 1.394 . S
C2059 C2065 1.465 . S
C2060 C2055 1.399 . S
C2060 C2059 1.394 . S
C2060 C2061 1.516 . S
C2061 C2060 1.516 . S
C2061 C2062 1.502 . S
C2061 C2063 1.561 . S
C2061 C2064 1.526 . S
C2062 H2046 0.959 . S
C2062 H2047 0.959 . S
C2062 H2048 0.961 . S
C2062 C2061 1.502 . S
C2063 H2049 0.960 . S
C2063 H2050 0.961 . S
C2063 H2051 0.959 . S
C2063 C2061 1.561 . S
C2064 C2061 1.526 . S
C2064 C2065 1.396 . S
C2064 C2069 1.390 . S
C2065 C2059 1.465 . S
C2065 C2064 1.396 . S
C2065 C2066 1.399 . S
C2066 H2052 0.929 . S
C2066 C2065 1.399 . S
C2066 C2067 1.385 . S
C2067 H2053 0.931 . S
C2067 C2066 1.385 . S
C2067 C2068 1.389 . S
C2068 C2067 1.389 . S
C2068 C2069 1.387 . S
C2069 H2054 0.930 . S
C2069 C2064 1.390 . S
C2069 C2068 1.387 . S
H2070 C2082 0.930 . S
H2071 C2084 0.930 . S
H2072 C2085 0.930 . S
H2073 C2089 0.959 . S
H2074 C2089 0.959 . S
H2075 C2089 0.961 . S
H2076 C2090 0.960 . S
H2077 C2090 0.961 . S
H2078 C2090 0.959 . S
H2079 C2093 0.929 . S
H2080 C2094 0.931 . S
H2081 C2096 0.930 . S
C2082 H2070 0.930 . S
C2082 C2083 1.399 . S
C2082 C2087 1.399 . S
C2083 C2082 1.399 . S
C2083 C2084 1.376 . S
C2084 H2071 0.930 . S
C2084 C2083 1.376 . S
C2084 C2085 1.388 . S
C2085 H2072 0.930 . S
C2085 C2084 1.388 . S
C2085 C2086 1.390 . S
C2086 C2085 1.390 . S
C2086 C2087 1.394 . S
C2086 C2092 1.465 . S
C2087 C2082 1.399 . S
C2087 C2086 1.394 . S
C2087 C2088 1.516 . S
C2088 C2087 1.516 . S
C2088 C2089 1.502 . S
C2088 C2090 1.561 . S
C2088 C2091 1.526 . S
C2089 H2073 0.959 . S
C2089 H2074 0.959 . S
C2089 H2075 0.961 . S
C2089 C2088 1.502 . S
C2090 H2076 0.960 . S
C2090 H2077 0.961 . S
C2090 H2078 0.959 . S
C2090 C2088 1.561 . S
C2091 C2088 1.526 . S
C2091 C2092 1.396 . S
C2091 C2096 1.390 . S
C2092 C2086 1.465 . S
C2092 C2091 1.396 . S
C2092 C2093 1.399 . S
C2093 H2079 0.929 . S
C2093 C2092 1.399 . S
C2093 C2094 1.385 . S
C2094 H2080 0.931 . S
C2094 C2093 1.385 . S
C2094 C2095 1.389 . S
C2095 C2094 1.389 . S
C2095 C2096 1.387 . S
C2096 H2081 0.930 . S
C2096 C2091 1.390 . S
C2096 C2095 1.387 . S
H2097 C2109 0.930 . S
H2098 C2111 0.930 . S
H2099 C2112 0.930 . S
H2100 C2116 0.959 . S
H2101 C2116 0.959 . S
H2102 C2116 0.961 . S
H2103 C2117 0.960 . S
H2104 C2117 0.961 . S
H2105 C2117 0.959 . S
H2106 C2120 0.929 . S
H2107 C2121 0.931 . S
H2108 C2123 0.930 . S
C2109 H2097 0.930 . S
C2109 C2110 1.399 . S
C2109 C2114 1.399 . S
C2110 C2109 1.399 . S
C2110 C2111 1.376 . S
C2111 H2098 0.930 . S
C2111 C2110 1.376 . S
C2111 C2112 1.388 . S
C2112 H2099 0.930 . S
C2112 C2111 1.388 . S
C2112 C2113 1.390 . S
C2113 C2112 1.390 . S
C2113 C2114 1.394 . S
C2113 C2119 1.465 . S
C2114 C2109 1.399 . S
C2114 C2113 1.394 . S
C2114 C2115 1.516 . S
C2115 C2114 1.516 . S
C2115 C2116 1.502 . S
C2115 C2117 1.561 . S
C2115 C2118 1.526 . S
C2116 H2100 0.959 . S
C2116 H2101 0.959 . S
C2116 H2102 0.961 . S
C2116 C2115 1.502 . S
C2117 H2103 0.960 . S
C2117 H2104 0.961 . S
C2117 H2105 0.959 . S
C2117 C2115 1.561 . S
C2118 C2115 1.526 . S
C2118 C2119 1.396 . S
C2118 C2123 1.390 . S
C2119 C2113 1.465 . S
C2119 C2118 1.396 . S
C2119 C2120 1.399 . S
C2120 H2106 0.929 . S
C2120 C2119 1.399 . S
C2120 C2121 1.385 . S
C2121 H2107 0.931 . S
C2121 C2120 1.385 . S
C2121 C2122 1.389 . S
C2122 C2121 1.389 . S
C2122 C2123 1.387 . S
C2123 H2108 0.930 . S
C2123 C2118 1.390 . S
C2123 C2122 1.387 . S
H2124 C2136 0.930 . S
H2125 C2138 0.930 . S
H2126 C2139 0.930 . S
H2127 C2143 0.959 . S
H2128 C2143 0.959 . S
H2129 C2143 0.961 . S
H2130 C2144 0.960 . S
H2131 C2144 0.961 . S
H2132 C2144 0.959 . S
H2133 C2147 0.929 . S
H2134 C2148 0.931 . S
H2135 C2150 0.930 . S
C2136 H2124 0.930 . S
C2136 C2137 1.399 . S
C2136 C2141 1.399 . S
C2137 C2136 1.399 . S
C2137 C2138 1.376 . S
C2138 H2125 0.930 . S
C2138 C2137 1.376 . S
C2138 C2139 1.388 . S
C2139 H2126 0.930 . S
C2139 C2138 1.388 . S
C2139 C2140 1.390 . S
C2140 C2139 1.390 . S
C2140 C2141 1.394 . S
C2140 C2146 1.465 . S
C2141 C2136 1.399 . S
C2141 C2140 1.394 . S
C2141 C2142 1.516 . S
C2142 C2141 1.516 . S
C2142 C2143 1.502 . S
C2142 C2144 1.561 . S
C2142 C2145 1.526 . S
C2143 H2127 0.959 . S
C2143 H2128 0.959 . S
C2143 H2129 0.961 . S
C2143 C2142 1.502 . S
C2144 H2130 0.960 . S
C2144 H2131 0.961 . S
C2144 H2132 0.959 . S
C2144 C2142 1.561 . S
C2145 C2142 1.526 . S
C2145 C2146 1.396 . S
C2145 C2150 1.390 . S
C2146 C2140 1.465 . S
C2146 C2145 1.396 . S
C2146 C2147 1.399 . S
C2147 H2133 0.929 . S
C2147 C2146 1.399 . S
C2147 C2148 1.385 . S
C2148 H2134 0.931 . S
C2148 C2147 1.385 . S
C2148 C2149 1.389 . S
C2149 C2148 1.389 . S
C2149 C2150 1.387 . S
C2150 H2135 0.930 . S
C2150 C2145 1.390 . S
C2150 C2149 1.387 . S
H2151 C2163 0.930 . S
H2152 C2165 0.930 . S
H2153 C2166 0.930 . S
H2154 C2170 0.959 . S
H2155 C2170 0.959 . S
H2156 C2170 0.961 . S
H2157 C2171 0.960 . S
H2158 C2171 0.961 . S
H2159 C2171 0.959 . S
H2160 C2174 0.929 . S
H2161 C2175 0.931 . S
H2162 C2177 0.930 . S
C2163 H2151 0.930 . S
C2163 C2164 1.399 . S
C2163 C2168 1.399 . S
C2164 C2163 1.399 . S
C2164 C2165 1.376 . S
C2165 H2152 0.930 . S
C2165 C2164 1.376 . S
C2165 C2166 1.388 . S
C2166 H2153 0.930 . S
C2166 C2165 1.388 . S
C2166 C2167 1.390 . S
C2167 C2166 1.390 . S
C2167 C2168 1.394 . S
C2167 C2173 1.465 . S
C2168 C2163 1.399 . S
C2168 C2167 1.394 . S
C2168 C2169 1.516 . S
C2169 C2168 1.516 . S
C2169 C2170 1.502 . S
C2169 C2171 1.561 . S
C2169 C2172 1.526 . S
C2170 H2154 0.959 . S
C2170 H2155 0.959 . S
C2170 H2156 0.961 . S
C2170 C2169 1.502 . S
C2171 H2157 0.960 . S
C2171 H2158 0.961 . S
C2171 H2159 0.959 . S
C2171 C2169 1.561 . S
C2172 C2169 1.526 . S
C2172 C2173 1.396 . S
C2172 C2177 1.390 . S
C2173 C2167 1.465 . S
C2173 C2172 1.396 . S
C2173 C2174 1.399 . S
C2174 H2160 0.929 . S
C2174 C2173 1.399 . S
C2174 C2175 1.385 . S
C2175 H2161 0.931 . S
C2175 C2174 1.385 . S
C2175 C2176 1.389 . S
C2176 C2175 1.389 . S
C2176 C2177 1.387 . S
C2177 H2162 0.930 . S
C2177 C2172 1.390 . S
C2177 C2176 1.387 . S
H2178 C2190 0.930 . S
H2179 C2192 0.930 . S
H2180 C2193 0.930 . S
H2181 C2197 0.959 . S
H2182 C2197 0.959 . S
H2183 C2197 0.961 . S
H2184 C2198 0.960 . S
H2185 C2198 0.961 . S
H2186 C2198 0.959 . S
H2187 C2201 0.929 . S
H2188 C2202 0.931 . S
H2189 C2204 0.930 . S
C2190 H2178 0.930 . S
C2190 C2191 1.399 . S
C2190 C2195 1.399 . S
C2191 C2190 1.399 . S
C2191 C2192 1.376 . S
C2192 H2179 0.930 . S
C2192 C2191 1.376 . S
C2192 C2193 1.388 . S
C2193 H2180 0.930 . S
C2193 C2192 1.388 . S
C2193 C2194 1.390 . S
C2194 C2193 1.390 . S
C2194 C2195 1.394 . S
C2194 C2200 1.465 . S
C2195 C2190 1.399 . S
C2195 C2194 1.394 . S
C2195 C2196 1.516 . S
C2196 C2195 1.516 . S
C2196 C2197 1.502 . S
C2196 C2198 1.561 . S
C2196 C2199 1.526 . S
C2197 H2181 0.959 . S
C2197 H2182 0.959 . S
C2197 H2183 0.961 . S
C2197 C2196 1.502 . S
C2198 H2184 0.960 . S
C2198 H2185 0.961 . S
C2198 H2186 0.959 . S
C2198 C2196 1.561 . S
C2199 C2196 1.526 . S
C2199 C2200 1.396 . S
C2199 C2204 1.390 . S
C2200 C2194 1.465 . S
C2200 C2199 1.396 . S
C2200 C2201 1.399 . S
C2201 H2187 0.929 . S
C2201 C2200 1.399 . S
C2201 C2202 1.385 . S
C2202 H2188 0.931 . S
C2202 C2201 1.385 . S
C2202 C2203 1.389 . S
C2203 C2202 1.389 . S
C2203 C2204 1.387 . S
C2204 H2189 0.930 . S
C2204 C2199 1.390 . S
C2204 C2203 1.387 . S
H2205 C2217 0.930 . S
H2206 C2219 0.930 . S
H2207 C2220 0.930 . S
H2208 C2224 0.959 . S
H2209 C2224 0.959 . S
H2210 C2224 0.961 . S
H2211 C2225 0.960 . S
H2212 C2225 0.961 . S
H2213 C2225 0.959 . S
H2214 C2228 0.929 . S
H2215 C2229 0.931 . S
H2216 C2231 0.930 . S
C2217 H2205 0.930 . S
C2217 C2218 1.399 . S
C2217 C2222 1.399 . S
C2218 C2217 1.399 . S
C2218 C2219 1.376 . S
C2219 H2206 0.930 . S
C2219 C2218 1.376 . S
C2219 C2220 1.388 . S
C2220 H2207 0.930 . S
C2220 C2219 1.388 . S
C2220 C2221 1.390 . S
C2221 C2220 1.390 . S
C2221 C2222 1.394 . S
C2221 C2227 1.465 . S
C2222 C2217 1.399 . S
C2222 C2221 1.394 . S
C2222 C2223 1.516 . S
C2223 C2222 1.516 . S
C2223 C2224 1.502 . S
C2223 C2225 1.561 . S
C2223 C2226 1.526 . S
C2224 H2208 0.959 . S
C2224 H2209 0.959 . S
C2224 H2210 0.961 . S
C2224 C2223 1.502 . S
C2225 H2211 0.960 . S
C2225 H2212 0.961 . S
C2225 H2213 0.959 . S
C2225 C2223 1.561 . S
C2226 C2223 1.526 . S
C2226 C2227 1.396 . S
C2226 C2231 1.390 . S
C2227 C2221 1.465 . S
C2227 C2226 1.396 . S
C2227 C2228 1.399 . S
C2228 H2214 0.929 . S
C2228 C2227 1.399 . S
C2228 C2229 1.385 . S
C2229 H2215 0.931 . S
C2229 C2228 1.385 . S
C2229 C2230 1.389 . S
C2230 C2229 1.389 . S
C2230 C2231 1.387 . S
C2231 H2216 0.930 . S
C2231 C2226 1.390 . S
C2231 C2230 1.387 . S
H2232 C2244 0.930 . S
H2233 C2246 0.930 . S
H2234 C2247 0.930 . S
H2235 C2251 0.959 . S
H2236 C2251 0.959 . S
H2237 C2251 0.961 . S
H2238 C2252 0.960 . S
H2239 C2252 0.961 . S
H2240 C2252 0.959 . S
H2241 C2255 0.929 . S
H2242 C2256 0.931 . S
H2243 C2258 0.930 . S
C2244 H2232 0.930 . S
C2244 C2245 1.399 . S
C2244 C2249 1.399 . S
C2245 C2244 1.399 . S
C2245 C2246 1.376 . S
C2246 H2233 0.930 . S
C2246 C2245 1.376 . S
C2246 C2247 1.388 . S
C2247 H2234 0.930 . S
C2247 C2246 1.388 . S
C2247 C2248 1.390 . S
C2248 C2247 1.390 . S
C2248 C2249 1.394 . S
C2248 C2254 1.465 . S
C2249 C2244 1.399 . S
C2249 C2248 1.394 . S
C2249 C2250 1.516 . S
C2250 C2249 1.516 . S
C2250 C2251 1.502 . S
C2250 C2252 1.561 . S
C2250 C2253 1.526 . S
C2251 H2235 0.959 . S
C2251 H2236 0.959 . S
C2251 H2237 0.961 . S
C2251 C2250 1.502 . S
C2252 H2238 0.960 . S
C2252 H2239 0.961 . S
C2252 H2240 0.959 . S
C2252 C2250 1.561 . S
C2253 C2250 1.526 . S
C2253 C2254 1.396 . S
C2253 C2258 1.390 . S
C2254 C2248 1.465 . S
C2254 C2253 1.396 . S
C2254 C2255 1.399 . S
C2255 H2241 0.929 . S
C2255 C2254 1.399 . S
C2255 C2256 1.385 . S
C2256 H2242 0.931 . S
C2256 C2255 1.385 . S
C2256 C2257 1.389 . S
C2257 C2256 1.389 . S
C2257 C2258 1.387 . S
C2258 H2243 0.930 . S
C2258 C2253 1.390 . S
C2258 C2257 1.387 . S
H2259 C2271 0.930 . S
H2260 C2273 0.930 . S
H2261 C2274 0.930 . S
H2262 C2278 0.959 . S
H2263 C2278 0.959 . S
H2264 C2278 0.961 . S
H2265 C2279 0.960 . S
H2266 C2279 0.961 . S
H2267 C2279 0.959 . S
H2268 C2282 0.929 . S
H2269 C2283 0.931 . S
H2270 C2285 0.930 . S
C2271 H2259 0.930 . S
C2271 C2272 1.399 . S
C2271 C2276 1.399 . S
C2272 C2271 1.399 . S
C2272 C2273 1.376 . S
C2273 H2260 0.930 . S
C2273 C2272 1.376 . S
C2273 C2274 1.388 . S
C2274 H2261 0.930 . S
C2274 C2273 1.388 . S
C2274 C2275 1.390 . S
C2275 C2274 1.390 . S
C2275 C2276 1.394 . S
C2275 C2281 1.465 . S
C2276 C2271 1.399 . S
C2276 C2275 1.394 . S
C2276 C2277 1.516 . S
C2277 C2276 1.516 . S
C2277 C2278 1.502 . S
C2277 C2279 1.561 . S
C2277 C2280 1.526 . S
C2278 H2262 0.959 . S
C2278 H2263 0.959 . S
C2278 H2264 0.961 . S
C2278 C2277 1.502 . S
C2279 H2265 0.960 . S
C2279 H2266 0.961 . S
C2279 H2267 0.959 . S
C2279 C2277 1.561 . S
C2280 C2277 1.526 . S
C2280 C2281 1.396 . S
C2280 C2285 1.390 . S
C2281 C2275 1.465 . S
C2281 C2280 1.396 . S
C2281 C2282 1.399 . S
C2282 H2268 0.929 . S
C2282 C2281 1.399 . S
C2282 C2283 1.385 . S
C2283 H2269 0.931 . S
C2283 C2282 1.385 . S
C2283 C2284 1.389 . S
C2284 C2283 1.389 . S
C2284 C2285 1.387 . S
C2285 H2270 0.930 . S
C2285 C2280 1.390 . S
C2285 C2284 1.387 . S
H2286 C2298 0.930 . S
H2287 C2300 0.930 . S
H2288 C2301 0.930 . S
H2289 C2305 0.959 . S
H2290 C2305 0.959 . S
H2291 C2305 0.961 . S
H2292 C2306 0.960 . S
H2293 C2306 0.961 . S
H2294 C2306 0.959 . S
H2295 C2309 0.929 . S
H2296 C2310 0.931 . S
H2297 C2312 0.930 . S
C2298 H2286 0.930 . S
C2298 C2299 1.399 . S
C2298 C2303 1.399 . S
C2299 C2298 1.399 . S
C2299 C2300 1.376 . S
C2300 H2287 0.930 . S
C2300 C2299 1.376 . S
C2300 C2301 1.388 . S
C2301 H2288 0.930 . S
C2301 C2300 1.388 . S
C2301 C2302 1.390 . S
C2302 C2301 1.390 . S
C2302 C2303 1.394 . S
C2302 C2308 1.465 . S
C2303 C2298 1.399 . S
C2303 C2302 1.394 . S
C2303 C2304 1.516 . S
C2304 C2303 1.516 . S
C2304 C2305 1.502 . S
C2304 C2306 1.561 . S
C2304 C2307 1.526 . S
C2305 H2289 0.959 . S
C2305 H2290 0.959 . S
C2305 H2291 0.961 . S
C2305 C2304 1.502 . S
C2306 H2292 0.960 . S
C2306 H2293 0.961 . S
C2306 H2294 0.959 . S
C2306 C2304 1.561 . S
C2307 C2304 1.526 . S
C2307 C2308 1.396 . S
C2307 C2312 1.390 . S
C2308 C2302 1.465 . S
C2308 C2307 1.396 . S
C2308 C2309 1.399 . S
C2309 H2295 0.929 . S
C2309 C2308 1.399 . S
C2309 C2310 1.385 . S
C2310 H2296 0.931 . S
C2310 C2309 1.385 . S
C2310 C2311 1.389 . S
C2311 C2310 1.389 . S
C2311 C2312 1.387 . S
C2312 H2297 0.930 . S
C2312 C2307 1.390 . S
C2312 C2311 1.387 . S
H2313 C2325 0.930 . S
H2314 C2327 0.930 . S
H2315 C2328 0.930 . S
H2316 C2332 0.959 . S
H2317 C2332 0.959 . S
H2318 C2332 0.961 . S
H2319 C2333 0.960 . S
H2320 C2333 0.961 . S
H2321 C2333 0.959 . S
H2322 C2336 0.929 . S
H2323 C2337 0.931 . S
H2324 C2339 0.930 . S
C2325 H2313 0.930 . S
C2325 C2326 1.399 . S
C2325 C2330 1.399 . S
C2326 C2325 1.399 . S
C2326 C2327 1.376 . S
C2327 H2314 0.930 . S
C2327 C2326 1.376 . S
C2327 C2328 1.388 . S
C2328 H2315 0.930 . S
C2328 C2327 1.388 . S
C2328 C2329 1.390 . S
C2329 C2328 1.390 . S
C2329 C2330 1.394 . S
C2329 C2335 1.465 . S
C2330 C2325 1.399 . S
C2330 C2329 1.394 . S
C2330 C2331 1.516 . S
C2331 C2330 1.516 . S
C2331 C2332 1.502 . S
C2331 C2333 1.561 . S
C2331 C2334 1.526 . S
C2332 H2316 0.959 . S
C2332 H2317 0.959 . S
C2332 H2318 0.961 . S
C2332 C2331 1.502 . S
C2333 H2319 0.960 . S
C2333 H2320 0.961 . S
C2333 H2321 0.959 . S
C2333 C2331 1.561 . S
C2334 C2331 1.526 . S
C2334 C2335 1.396 . S
C2334 C2339 1.390 . S
C2335 C2329 1.465 . S
C2335 C2334 1.396 . S
C2335 C2336 1.399 . S
C2336 H2322 0.929 . S
C2336 C2335 1.399 . S
C2336 C2337 1.385 . S
C2337 H2323 0.931 . S
C2337 C2336 1.385 . S
C2337 C2338 1.389 . S
C2338 C2337 1.389 . S
C2338 C2339 1.387 . S
C2339 H2324 0.930 . S
C2339 C2334 1.390 . S
C2339 C2338 1.387 . S
H2340 C2352 0.930 . S
H2341 C2354 0.930 . S
H2342 C2355 0.930 . S
H2343 C2359 0.959 . S
H2344 C2359 0.959 . S
H2345 C2359 0.961 . S
H2346 C2360 0.960 . S
H2347 C2360 0.961 . S
H2348 C2360 0.959 . S
H2349 C2363 0.929 . S
H2350 C2364 0.931 . S
H2351 C2366 0.930 . S
C2352 H2340 0.930 . S
C2352 C2353 1.399 . S
C2352 C2357 1.399 . S
C2353 C2352 1.399 . S
C2353 C2354 1.376 . S
C2354 H2341 0.930 . S
C2354 C2353 1.376 . S
C2354 C2355 1.388 . S
C2355 H2342 0.930 . S
C2355 C2354 1.388 . S
C2355 C2356 1.390 . S
C2356 C2355 1.390 . S
C2356 C2357 1.394 . S
C2356 C2362 1.465 . S
C2357 C2352 1.399 . S
C2357 C2356 1.394 . S
C2357 C2358 1.516 . S
C2358 C2357 1.516 . S
C2358 C2359 1.502 . S
C2358 C2360 1.561 . S
C2358 C2361 1.526 . S
C2359 H2343 0.959 . S
C2359 H2344 0.959 . S
C2359 H2345 0.961 . S
C2359 C2358 1.502 . S
C2360 H2346 0.960 . S
C2360 H2347 0.961 . S
C2360 H2348 0.959 . S
C2360 C2358 1.561 . S
C2361 C2358 1.526 . S
C2361 C2362 1.396 . S
C2361 C2366 1.390 . S
C2362 C2356 1.465 . S
C2362 C2361 1.396 . S
C2362 C2363 1.399 . S
C2363 H2349 0.929 . S
C2363 C2362 1.399 . S
C2363 C2364 1.385 . S
C2364 H2350 0.931 . S
C2364 C2363 1.385 . S
C2364 C2365 1.389 . S
C2365 C2364 1.389 . S
C2365 C2366 1.387 . S
C2366 H2351 0.930 . S
C2366 C2361 1.390 . S
C2366 C2365 1.387 . S
H2367 C2379 0.930 . S
H2368 C2381 0.930 . S
H2369 C2382 0.930 . S
H2370 C2386 0.959 . S
H2371 C2386 0.959 . S
H2372 C2386 0.961 . S
H2373 C2387 0.960 . S
H2374 C2387 0.961 . S
H2375 C2387 0.959 . S
H2376 C2390 0.929 . S
H2377 C2391 0.931 . S
H2378 C2393 0.930 . S
C2379 H2367 0.930 . S
C2379 C2380 1.399 . S
C2379 C2384 1.399 . S
C2380 C2379 1.399 . S
C2380 C2381 1.376 . S
C2381 H2368 0.930 . S
C2381 C2380 1.376 . S
C2381 C2382 1.388 . S
C2382 H2369 0.930 . S
C2382 C2381 1.388 . S
C2382 C2383 1.390 . S
C2383 C2382 1.390 . S
C2383 C2384 1.394 . S
C2383 C2389 1.465 . S
C2384 C2379 1.399 . S
C2384 C2383 1.394 . S
C2384 C2385 1.516 . S
C2385 C2384 1.516 . S
C2385 C2386 1.502 . S
C2385 C2387 1.561 . S
C2385 C2388 1.526 . S
C2386 H2370 0.959 . S
C2386 H2371 0.959 . S
C2386 H2372 0.961 . S
C2386 C2385 1.502 . S
C2387 H2373 0.960 . S
C2387 H2374 0.961 . S
C2387 H2375 0.959 . S
C2387 C2385 1.561 . S
C2388 C2385 1.526 . S
C2388 C2389 1.396 . S
C2388 C2393 1.390 . S
C2389 C2383 1.465 . S
C2389 C2388 1.396 . S
C2389 C2390 1.399 . S
C2390 H2376 0.929 . S
C2390 C2389 1.399 . S
C2390 C2391 1.385 . S
C2391 H2377 0.931 . S
C2391 C2390 1.385 . S
C2391 C2392 1.389 . S
C2392 C2391 1.389 . S
C2392 C2393 1.387 . S
C2393 H2378 0.930 . S
C2393 C2388 1.390 . S
C2393 C2392 1.387 . S
H2394 C2406 0.930 . S
H2395 C2408 0.930 . S
H2396 C2409 0.930 . S
H2397 C2413 0.959 . S
H2398 C2413 0.959 . S
H2399 C2413 0.961 . S
H2400 C2414 0.960 . S
H2401 C2414 0.961 . S
H2402 C2414 0.959 . S
H2403 C2417 0.929 . S
H2404 C2418 0.931 . S
H2405 C2420 0.930 . S
C2406 H2394 0.930 . S
C2406 C2407 1.399 . S
C2406 C2411 1.399 . S
C2407 C2406 1.399 . S
C2407 C2408 1.376 . S
C2408 H2395 0.930 . S
C2408 C2407 1.376 . S
C2408 C2409 1.388 . S
C2409 H2396 0.930 . S
C2409 C2408 1.388 . S
C2409 C2410 1.390 . S
C2410 C2409 1.390 . S
C2410 C2411 1.394 . S
C2410 C2416 1.465 . S
C2411 C2406 1.399 . S
C2411 C2410 1.394 . S
C2411 C2412 1.516 . S
C2412 C2411 1.516 . S
C2412 C2413 1.502 . S
C2412 C2414 1.561 . S
C2412 C2415 1.526 . S
C2413 H2397 0.959 . S
C2413 H2398 0.959 . S
C2413 H2399 0.961 . S
C2413 C2412 1.502 . S
C2414 H2400 0.960 . S
C2414 H2401 0.961 . S
C2414 H2402 0.959 . S
C2414 C2412 1.561 . S
C2415 C2412 1.526 . S
C2415 C2416 1.396 . S
C2415 C2420 1.390 . S
C2416 C2410 1.465 . S
C2416 C2415 1.396 . S
C2416 C2417 1.399 . S
C2417 H2403 0.929 . S
C2417 C2416 1.399 . S
C2417 C2418 1.385 . S
C2418 H2404 0.931 . S
C2418 C2417 1.385 . S
C2418 C2419 1.389 . S
C2419 C2418 1.389 . S
C2419 C2420 1.387 . S
C2420 H2405 0.930 . S
C2420 C2415 1.390 . S
C2420 C2419 1.387 . S
H2421 C2433 0.930 . S
H2422 C2435 0.930 . S
H2423 C2436 0.930 . S
H2424 C2440 0.959 . S
H2425 C2440 0.959 . S
H2426 C2440 0.961 . S
H2427 C2441 0.960 . S
H2428 C2441 0.961 . S
H2429 C2441 0.959 . S
H2430 C2444 0.929 . S
H2431 C2445 0.931 . S
H2432 C2447 0.930 . S
C2433 H2421 0.930 . S
C2433 C2434 1.399 . S
C2433 C2438 1.399 . S
C2434 C2433 1.399 . S
C2434 C2435 1.376 . S
C2435 H2422 0.930 . S
C2435 C2434 1.376 . S
C2435 C2436 1.388 . S
C2436 H2423 0.930 . S
C2436 C2435 1.388 . S
C2436 C2437 1.390 . S
C2437 C2436 1.390 . S
C2437 C2438 1.394 . S
C2437 C2443 1.465 . S
C2438 C2433 1.399 . S
C2438 C2437 1.394 . S
C2438 C2439 1.516 . S
C2439 C2438 1.516 . S
C2439 C2440 1.502 . S
C2439 C2441 1.561 . S
C2439 C2442 1.526 . S
C2440 H2424 0.959 . S
C2440 H2425 0.959 . S
C2440 H2426 0.961 . S
C2440 C2439 1.502 . S
C2441 H2427 0.960 . S
C2441 H2428 0.961 . S
C2441 H2429 0.959 . S
C2441 C2439 1.561 . S
C2442 C2439 1.526 . S
C2442 C2443 1.396 . S
C2442 C2447 1.390 . S
C2443 C2437 1.465 . S
C2443 C2442 1.396 . S
C2443 C2444 1.399 . S
C2444 H2430 0.929 . S
C2444 C2443 1.399 . S
C2444 C2445 1.385 . S
C2445 H2431 0.931 . S
C2445 C2444 1.385 . S
C2445 C2446 1.389 . S
C2446 C2445 1.389 . S
C2446 C2447 1.387 . S
C2447 H2432 0.930 . S
C2447 C2442 1.390 . S
C2447 C2446 1.387 . S
H2448 C2460 0.930 . S
H2449 C2462 0.930 . S
H2450 C2463 0.930 . S
H2451 C2467 0.959 . S
H2452 C2467 0.959 . S
H2453 C2467 0.961 . S
H2454 C2468 0.960 . S
H2455 C2468 0.961 . S
H2456 C2468 0.959 . S
H2457 C2471 0.929 . S
H2458 C2472 0.931 . S
H2459 C2474 0.930 . S
C2460 H2448 0.930 . S
C2460 C2461 1.399 . S
C2460 C2465 1.399 . S
C2461 C2460 1.399 . S
C2461 C2462 1.376 . S
C2462 H2449 0.930 . S
C2462 C2461 1.376 . S
C2462 C2463 1.388 . S
C2463 H2450 0.930 . S
C2463 C2462 1.388 . S
C2463 C2464 1.390 . S
C2464 C2463 1.390 . S
C2464 C2465 1.394 . S
C2464 C2470 1.465 . S
C2465 C2460 1.399 . S
C2465 C2464 1.394 . S
C2465 C2466 1.516 . S
C2466 C2465 1.516 . S
C2466 C2467 1.502 . S
C2466 C2468 1.561 . S
C2466 C2469 1.526 . S
C2467 H2451 0.959 . S
C2467 H2452 0.959 . S
C2467 H2453 0.961 . S
C2467 C2466 1.502 . S
C2468 H2454 0.960 . S
C2468 H2455 0.961 . S
C2468 H2456 0.959 . S
C2468 C2466 1.561 . S
C2469 C2466 1.526 . S
C2469 C2470 1.396 . S
C2469 C2474 1.390 . S
C2470 C2464 1.465 . S
C2470 C2469 1.396 . S
C2470 C2471 1.399 . S
C2471 H2457 0.929 . S
C2471 C2470 1.399 . S
C2471 C2472 1.385 . S
C2472 H2458 0.931 . S
C2472 C2471 1.385 . S
C2472 C2473 1.389 . S
C2473 C2472 1.389 . S
C2473 C2474 1.387 . S
C2474 H2459 0.930 . S
C2474 C2469 1.390 . S
C2474 C2473 1.387 . S
H2475 C2487 0.930 . S
H2476 C2489 0.930 . S
H2477 C2490 0.930 . S
H2478 C2494 0.959 . S
H2479 C2494 0.959 . S
H2480 C2494 0.961 . S
H2481 C2495 0.960 . S
H2482 C2495 0.961 . S
H2483 C2495 0.959 . S
H2484 C2498 0.929 . S
H2485 C2499 0.931 . S
H2486 C2501 0.930 . S
C2487 H2475 0.930 . S
C2487 C2488 1.399 . S
C2487 C2492 1.399 . S
C2488 C2487 1.399 . S
C2488 C2489 1.376 . S
C2489 H2476 0.930 . S
C2489 C2488 1.376 . S
C2489 C2490 1.388 . S
C2490 H2477 0.930 . S
C2490 C2489 1.388 . S
C2490 C2491 1.390 . S
C2491 C2490 1.390 . S
C2491 C2492 1.394 . S
C2491 C2497 1.465 . S
C2492 C2487 1.399 . S
C2492 C2491 1.394 . S
C2492 C2493 1.516 . S
C2493 C2492 1.516 . S
C2493 C2494 1.502 . S
C2493 C2495 1.561 . S
C2493 C2496 1.526 . S
C2494 H2478 0.959 . S
C2494 H2479 0.959 . S
C2494 H2480 0.961 . S
C2494 C2493 1.502 . S
C2495 H2481 0.960 . S
C2495 H2482 0.961 . S
C2495 H2483 0.959 . S
C2495 C2493 1.561 . S
C2496 C2493 1.526 . S
C2496 C2497 1.396 . S
C2496 C2501 1.390 . S
C2497 C2491 1.465 . S
C2497 C2496 1.396 . S
C2497 C2498 1.399 . S
C2498 H2484 0.929 . S
C2498 C2497 1.399 . S
C2498 C2499 1.385 . S
C2499 H2485 0.931 . S
C2499 C2498 1.385 . S
C2499 C2500 1.389 . S
C2500 C2499 1.389 . S
C2500 C2501 1.387 . S
C2501 H2486 0.930 . S
C2501 C2496 1.390 . S
C2501 C2500 1.387 . S
H2502 C2514 0.930 . S
H2503 C2516 0.930 . S
H2504 C2517 0.930 . S
H2505 C2521 0.959 . S
H2506 C2521 0.959 . S
H2507 C2521 0.961 . S
H2508 C2522 0.960 . S
H2509 C2522 0.961 . S
H2510 C2522 0.959 . S
H2511 C2525 0.929 . S
H2512 C2526 0.931 . S
H2513 C2528 0.930 . S
C2514 H2502 0.930 . S
C2514 C2515 1.399 . S
C2514 C2519 1.399 . S
C2515 C2514 1.399 . S
C2515 C2516 1.376 . S
C2516 H2503 0.930 . S
C2516 C2515 1.376 . S
C2516 C2517 1.388 . S
C2517 H2504 0.930 . S
C2517 C2516 1.388 . S
C2517 C2518 1.390 . S
C2518 C2517 1.390 . S
C2518 C2519 1.394 . S
C2518 C2524 1.465 . S
C2519 C2514 1.399 . S
C2519 C2518 1.394 . S
C2519 C2520 1.516 . S
C2520 C2519 1.516 . S
C2520 C2521 1.502 . S
C2520 C2522 1.561 . S
C2520 C2523 1.526 . S
C2521 H2505 0.959 . S
C2521 H2506 0.959 . S
C2521 H2507 0.961 . S
C2521 C2520 1.502 . S
C2522 H2508 0.960 . S
C2522 H2509 0.961 . S
C2522 H2510 0.959 . S
C2522 C2520 1.561 . S
C2523 C2520 1.526 . S
C2523 C2524 1.396 . S
C2523 C2528 1.390 . S
C2524 C2518 1.465 . S
C2524 C2523 1.396 . S
C2524 C2525 1.399 . S
C2525 H2511 0.929 . S
C2525 C2524 1.399 . S
C2525 C2526 1.385 . S
C2526 H2512 0.931 . S
C2526 C2525 1.385 . S
C2526 C2527 1.389 . S
C2527 C2526 1.389 . S
C2527 C2528 1.387 . S
C2528 H2513 0.930 . S
C2528 C2523 1.390 . S
C2528 C2527 1.387 . S
H2529 C2541 0.930 . S
H2530 C2543 0.930 . S
H2531 C2544 0.930 . S
H2532 C2548 0.959 . S
H2533 C2548 0.959 . S
H2534 C2548 0.961 . S
H2535 C2549 0.960 . S
H2536 C2549 0.961 . S
H2537 C2549 0.959 . S
H2538 C2552 0.929 . S
H2539 C2553 0.931 . S
H2540 C2555 0.930 . S
C2541 H2529 0.930 . S
C2541 C2542 1.399 . S
C2541 C2546 1.399 . S
C2542 C2541 1.399 . S
C2542 C2543 1.376 . S
C2543 H2530 0.930 . S
C2543 C2542 1.376 . S
C2543 C2544 1.388 . S
C2544 H2531 0.930 . S
C2544 C2543 1.388 . S
C2544 C2545 1.390 . S
C2545 C2544 1.390 . S
C2545 C2546 1.394 . S
C2545 C2551 1.465 . S
C2546 C2541 1.399 . S
C2546 C2545 1.394 . S
C2546 C2547 1.516 . S
C2547 C2546 1.516 . S
C2547 C2548 1.502 . S
C2547 C2549 1.561 . S
C2547 C2550 1.526 . S
C2548 H2532 0.959 . S
C2548 H2533 0.959 . S
C2548 H2534 0.961 . S
C2548 C2547 1.502 . S
C2549 H2535 0.960 . S
C2549 H2536 0.961 . S
C2549 H2537 0.959 . S
C2549 C2547 1.561 . S
C2550 C2547 1.526 . S
C2550 C2551 1.396 . S
C2550 C2555 1.390 . S
C2551 C2545 1.465 . S
C2551 C2550 1.396 . S
C2551 C2552 1.399 . S
C2552 H2538 0.929 . S
C2552 C2551 1.399 . S
C2552 C2553 1.385 . S
C2553 H2539 0.931 . S
C2553 C2552 1.385 . S
C2553 C2554 1.389 . S
C2554 C2553 1.389 . S
C2554 C2555 1.387 . S
C2555 H2540 0.930 . S
C2555 C2550 1.390 . S
C2555 C2554 1.387 . S
C1111 C253 1.475 . S
C1123 C409 1.442 . S
C1138 C272 1.490 . S
C1150 C493 1.449 . S
C1165 C234 1.467 . S
C1177 C573 1.447 . S
C1192 C215 1.456 . S
C1204 C489 1.440 1_556 S
C1231 C577 1.415 . S
C1219 C177 1.467 . S
C1246 C196 1.392 . S
C1258 C405 1.424 1_556 S
C1285 C398 1.472 . S
C1273 C220 1.426 . S
C1312 C482 1.518 . S
C1300 C182 1.512 . S
C1327 C201 1.494 . S
C1339 C584 1.484 . S
C1354 C258 1.492 . S
C1366 C500 1.445 . S
C1381 C277 1.481 . S
C1393 C566 1.443 . S
C1420 C416 1.502 . S
C1408 C239 1.377 . S
C1447 C661 1.377 . S
C1435 C25 1.448 . S
C1462 C44 1.490 . S
C1474 C745 1.448 . S
C1489 C6 1.429 . S
C1501 C825 1.461 . S
C1516 C329 1.436 . S
C1528 C741 1.455 . S
C1543 C291 1.458 . S
C1555 C829 1.386 . S
C1570 C310 1.424 . S
C1582 C657 1.419 . S
C1597 C334 1.433 . S
C1609 C650 1.465 . S
C1624 C296 1.523 . S
C1636 C734 1.503 . S
C1663 C836 1.486 . S
C1651 C315 1.489 . S
C1678 C30 1.473 1_565 S
C1690 C752 1.449 . S
C1717 C818 1.453 . S
C1705 C49 1.476 1_455 S
C1732 C11 1.459 . S
C1744 C668 1.429 . S
C1771 C913 1.370 . S
C1759 C139 1.445 . S
C1786 C158 1.509 . S
C1798 C997 1.478 . S
C1825 C1077 1.456 . S
C1813 C120 1.462 . S
C1852 C993 1.442 . S
C1840 C101 1.456 . S
C1879 C1081 1.397 . S
C1867 C63 1.449 . S
C1894 C82 1.427 . S
C1906 C909 1.415 . S
C1921 C106 1.452 1_655 S
C1933 C902 1.451 . S
C1948 C68 1.494 . S
C1960 C986 1.470 . S
C1987 C1088 1.479 . S
C1975 C87 1.501 1_545 S
C2002 C144 1.485 . S
C2014 C1004 1.444 . S
C2029 C163 1.391 . S
C2041 C1070 1.462 . S
C2056 C125 1.412 . S
C2068 C920 1.461 . S
C2083 C287 1.672 . S
C2095 C412 1.567 . S
C2122 C496 1.525 . S
C2110 C306 1.718 . S
C2137 C325 1.664 . S
C2149 C568 1.389 . S
C2164 C116 1.687 . S
C2176 C484 1.397 . S
C2191 C135 1.689 . S
C2203 C580 1.581 . S
C2230 C400 1.407 . S
C2218 C154 1.631 . S
C2245 C59 1.664 . S
C2257 C664 1.582 . S
C2272 C78 1.700 . S
C2284 C748 1.519 . S
C2299 C97 1.642 . S
C2311 C820 1.387 . S
C2326 C230 1.654 . S
C2338 C736 1.425 . S
C2365 C832 1.555 . S
C2353 C249 1.693 . S
C2380 C268 1.625 . S
C2392 C652 1.460 . S
C2407 C173 1.618 . S
C2419 C916 1.509 . S
C2434 C192 1.691 . S
C2446 C1000 1.581 . S
C2473 C1072 1.513 . S
C2461 C211 1.643 . S
C2488 C2 1.684 . S
C2500 C988 1.394 . S
C2515 C21 1.672 . S
C2527 C1084 1.491 . S
C2542 C40 1.602 . S
C2554 C904 1.353 . S
