# Generated by pormake.
# Topology apo, (3,6)-cn, num edge types: 1
# Building blocks:
#     Node 0, Type 0, BuildingBlock: BETDAH_clean_linker_0, # of connection points: 3
#     Node 1, Type 0, BuildingBlock: BETDAH_clean_linker_0, # of connection points: 3
#     Node 2, Type 0, BuildingBlock: BETDAH_clean_linker_0, # of connection points: 3
#     Node 3, Type 0, BuildingBlock: BETDAH_clean_linker_0, # of connection points: 3
#     Node 4, Type 0, BuildingBlock: BETDAH_clean_linker_0, # of connection points: 3
#     Node 5, Type 0, BuildingBlock: BETDAH_clean_linker_0, # of connection points: 3
#     Node 6, Type 0, BuildingBlock: BETDAH_clean_linker_0, # of connection points: 3
#     Node 7, Type 0, BuildingBlock: BETDAH_clean_linker_0, # of connection points: 3
#     Node 8, Type 1, BuildingBlock: KUMBOL_clean_sbu_1, # of connection points: 6
#     Node 9, Type 1, BuildingBlock: KUMBOL_clean_sbu_1, # of connection points: 6
#     Node 10, Type 1, BuildingBlock: KUMBOL_clean_sbu_1, # of connection points: 6
#     Node 11, Type 1, BuildingBlock: KUMBOL_clean_sbu_1, # of connection points: 6
#     Edge 12, Type (0, 1), BuildingBlock: CIFDUS_clean_linker_0, # of connection points: 2
#     Edge 13, Type (0, 1), BuildingBlock: CIFDUS_clean_linker_0, # of connection points: 2
#     Edge 14, Type (0, 1), BuildingBlock: CIFDUS_clean_linker_0, # of connection points: 2
#     Edge 15, Type (0, 1), BuildingBlock: CIFDUS_clean_linker_0, # of connection points: 2
#     Edge 16, Type (0, 1), BuildingBlock: CIFDUS_clean_linker_0, # of connection points: 2
#     Edge 17, Type (0, 1), BuildingBlock: CIFDUS_clean_linker_0, # of connection points: 2
#     Edge 18, Type (0, 1), BuildingBlock: CIFDUS_clean_linker_0, # of connection points: 2
#     Edge 19, Type (0, 1), BuildingBlock: CIFDUS_clean_linker_0, # of connection points: 2
#     Edge 20, Type (0, 1), BuildingBlock: CIFDUS_clean_linker_0, # of connection points: 2
#     Edge 21, Type (0, 1), BuildingBlock: CIFDUS_clean_linker_0, # of connection points: 2
#     Edge 22, Type (0, 1), BuildingBlock: CIFDUS_clean_linker_0, # of connection points: 2
#     Edge 23, Type (0, 1), BuildingBlock: CIFDUS_clean_linker_0, # of connection points: 2
#     Edge 24, Type (0, 1), BuildingBlock: CIFDUS_clean_linker_0, # of connection points: 2
#     Edge 25, Type (0, 1), BuildingBlock: CIFDUS_clean_linker_0, # of connection points: 2
#     Edge 26, Type (0, 1), BuildingBlock: CIFDUS_clean_linker_0, # of connection points: 2
#     Edge 27, Type (0, 1), BuildingBlock: CIFDUS_clean_linker_0, # of connection points: 2
#     Edge 28, Type (0, 1), BuildingBlock: CIFDUS_clean_linker_0, # of connection points: 2
#     Edge 29, Type (0, 1), BuildingBlock: CIFDUS_clean_linker_0, # of connection points: 2
#     Edge 30, Type (0, 1), BuildingBlock: CIFDUS_clean_linker_0, # of connection points: 2
#     Edge 31, Type (0, 1), BuildingBlock: CIFDUS_clean_linker_0, # of connection points: 2
#     Edge 32, Type (0, 1), BuildingBlock: CIFDUS_clean_linker_0, # of connection points: 2
#     Edge 33, Type (0, 1), BuildingBlock: CIFDUS_clean_linker_0, # of connection points: 2
#     Edge 34, Type (0, 1), BuildingBlock: CIFDUS_clean_linker_0, # of connection points: 2
#     Edge 35, Type (0, 1), BuildingBlock: CIFDUS_clean_linker_0, # of connection points: 2
# Relax obj value: 0.036
# Max RMSD: 0.229
# Mean RMSD: 0.160
data_MOF--net-apo--node1-KUMBOL_clean_sbu_1--node2-BETDAH_clean_linker_0--edge1-CIFDUS_clean_linker_0
_symmetry_space_group_name_H-M    P1
_symmetry_Int_Tables_number       1
_symmetry_cell_setting            triclinic
loop_
_symmetry_equiv_pos_as_xyz
'x, y, z'
_cell_length_a     24.033682
_cell_length_b     36.15293
_cell_length_c     46.641835
_cell_angle_alpha  89.795427
_cell_angle_beta   90.395718
_cell_angle_gamma 90.615301
loop_
_atom_site_label
_atom_site_type_symbol
_atom_site_fract_x
_atom_site_fract_y
_atom_site_fract_z
_atom_type_partial_charge
H0 H 0.36892 0.45072 0.41845 0.0
H1 H 0.2799 0.37891 0.36002 0.0
H2 H 0.30784 0.34541 0.44768 0.0
C3 C 0.34699 0.42492 0.41418 0.0
C4 C 0.34119 0.39894 0.43625 0.0
C5 C 0.32461 0.41828 0.38674 0.0
C6 C 0.29686 0.38441 0.38117 0.0
C7 C 0.29057 0.35814 0.40346 0.0
C8 C 0.31255 0.3658 0.43073 0.0
N9 N 0.26276 0.32356 0.39995 0.0
C10 C 0.23656 0.30998 0.37543 0.0
H11 H 0.12156 0.1089 0.92155 0.0
H12 H 0.24565 0.12082 0.85558 0.0
H13 H 0.27295 0.17012 0.9379 0.0
C14 C 0.16075 0.12034 0.91408 0.0
C15 C 0.19401 0.14153 0.93286 0.0
C16 C 0.17883 0.11272 0.88605 0.0
C17 C 0.23044 0.12715 0.87681 0.0
C18 C 0.26385 0.14831 0.89543 0.0
C19 C 0.24563 0.15518 0.92329 0.0
N20 N 0.31946 0.15746 0.88823 0.0
C21 C 0.33413 0.18452 0.86834 0.0
H22 H 0.86001 0.09118 0.58648 0.0
H23 H 0.77493 0.13838 0.65914 0.0
H24 H 0.71539 0.15762 0.57385 0.0
C25 C 0.82865 0.10887 0.59554 0.0
C26 C 0.79049 0.12564 0.57679 0.0
C27 C 0.82342 0.11239 0.62561 0.0
C28 C 0.78036 0.13481 0.63631 0.0
C29 C 0.74149 0.15094 0.61759 0.0
C30 C 0.74654 0.14597 0.58808 0.0
N31 N 0.69179 0.16643 0.62809 0.0
C32 C 0.6894 0.19917 0.64351 0.0
H33 H 0.66287 0.44008 0.09869 0.0
H34 H 0.75926 0.37191 0.15617 0.0
H35 H 0.77139 0.35756 0.06509 0.0
C36 C 0.69241 0.41805 0.10218 0.0
C37 C 0.71436 0.3997 0.07847 0.0
C38 C 0.70883 0.40878 0.13034 0.0
C39 C 0.74555 0.37904 0.1347 0.0
C40 C 0.76765 0.36046 0.11089 0.0
C41 C 0.7523 0.37117 0.08316 0.0
N42 N 0.80931 0.33319 0.11345 0.0
C43 C 0.81648 0.309 0.13629 0.0
H44 H 0.68301 0.55818 0.59227 0.0
H45 H 0.73681 0.64392 0.64992 0.0
H46 H 0.72503 0.66662 0.55961 0.0
C47 C 0.69725 0.58641 0.59548 0.0
C48 C 0.70247 0.61067 0.57193 0.0
C49 C 0.7087 0.59834 0.62354 0.0
C50 C 0.72845 0.63459 0.62825 0.0
C51 C 0.7357 0.65889 0.60487 0.0
C52 C 0.72161 0.64698 0.57712 0.0
N53 N 0.75468 0.69602 0.60818 0.0
C54 C 0.78135 0.71077 0.63221 0.0
H55 H 0.85999 0.94799 0.09536 0.0
H56 H 0.75746 0.85895 0.06337 0.0
H57 H 0.75478 0.88621 0.15304 0.0
C58 C 0.83062 0.92554 0.09909 0.0
C59 C 0.81058 0.91936 0.127 0.0
C60 C 0.81189 0.90408 0.07586 0.0
C61 C 0.7721 0.87615 0.08091 0.0
C62 C 0.75151 0.86932 0.10851 0.0
C63 C 0.77062 0.89113 0.13167 0.0
N64 N 0.7111 0.84058 0.11153 0.0
C65 C 0.69202 0.82496 0.13701 0.0
H66 H 0.12697 0.91285 0.42458 0.0
H67 H 0.23853 0.87383 0.35958 0.0
H68 H 0.26139 0.84076 0.44733 0.0
C69 C 0.16208 0.89619 0.41838 0.0
C70 C 0.191 0.87615 0.43947 0.0
C71 C 0.17898 0.89585 0.38952 0.0
C72 C 0.22482 0.8742 0.38166 0.0
C73 C 0.25406 0.85402 0.40262 0.0
C74 C 0.23734 0.85548 0.43129 0.0
N75 N 0.30284 0.83401 0.39619 0.0
C76 C 0.31301 0.81589 0.37054 0.0
H77 H 0.3893 0.60502 0.92406 0.0
H78 H 0.36 0.72164 0.9257 0.0
H79 H 0.32038 0.66058 0.8496 0.0
C80 C 0.37306 0.6294 0.91352 0.0
C81 C 0.35488 0.62793 0.88461 0.0
C82 C 0.37428 0.66299 0.92853 0.0
C83 C 0.35762 0.69537 0.91457 0.0
C84 C 0.33738 0.69445 0.88647 0.0
C85 C 0.33514 0.66073 0.87159 0.0
N86 N 0.32565 0.72862 0.87288 0.0
C87 C 0.27914 0.7355 0.85592 0.0
C88 C 0.82698 0.1036 0.27026 0.0
C89 C 0.80012 0.03858 0.27157 0.0
C90 C 0.84052 0.0668 0.27533 0.0
C91 C 0.74595 0.04781 0.26294 0.0
C92 C 0.77219 0.11292 0.26212 0.0
C93 C 0.73201 0.08485 0.25826 0.0
N94 N 0.86663 0.13032 0.27422 0.0
C95 C 0.85271 0.16687 0.27289 0.0
C96 C 0.75898 0.15028 0.25868 0.0
C97 C 0.79925 0.17736 0.26444 0.0
Gd98 Gd 0.07794 0.11506 0.22745 0.0
Gd99 Gd 0.95462 0.10897 0.28881 0.0
N100 N 0.89362 0.05847 0.2831 0.0
C101 C 0.81564 1.00181 0.27614 0.0
C102 C 0.90893 0.02271 0.2876 0.0
C103 C 0.87031 0.99386 0.28415 0.0
H104 H 0.95105 0.01631 0.29333 0.0
H105 H 0.8828 0.9655 0.28753 0.0
H106 H 0.04838 0.19943 0.20284 0.0
H107 H 0.88226 0.18819 0.27892 0.0
H108 H 0.09182 0.26172 0.20117 0.0
H109 H 0.7859 0.97936 0.27333 0.0
H110 H 0.71448 0.02648 0.25985 0.0
H111 H 0.18307 0.05599 0.23814 0.0
H112 H 0.71741 0.15853 0.25243 0.0
H113 H 0.78887 0.20636 0.26288 0.0
H114 H 0.27466 0.24352 0.24076 0.0
H115 H 0.68985 0.09154 0.25189 0.0
H116 H 0.32955 0.1187 0.25964 0.0
H117 H 0.28205 0.05829 0.25279 0.0
N118 N 0.17331 0.11431 0.23945 0.0
C119 C 0.19959 0.1477 0.24122 0.0
C120 C 0.20289 0.08247 0.24214 0.0
C121 C 0.2858 0.11783 0.25388 0.0
C122 C 0.25916 0.08369 0.25002 0.0
C123 C 0.25644 0.15042 0.24869 0.0
H124 H 0.32619 0.18801 0.25542 0.0
N125 N 0.1171 0.1748 0.22408 0.0
C126 C 0.17087 0.17893 0.23281 0.0
C127 C 0.1684 0.24398 0.22096 0.0
C128 C 0.1978 0.21372 0.23184 0.0
C129 C 0.0895 0.20361 0.2117 0.0
C130 C 0.11429 0.23876 0.21044 0.0
O131 O 0.93852 0.0813 0.24558 0.0
O132 O 0.02648 0.06357 0.23374 0.0
O133 O 0.05712 0.12312 0.1822 0.0
O134 O 0.12401 0.0871 0.19415 0.0
O135 O 0.02183 0.06653 0.29618 0.0
O136 O 0.09329 0.07026 0.26185 0.0
O137 O 0.07556 0.15994 0.26098 0.0
O138 O 0.04375 0.12593 0.29887 0.0
O139 O 0.93313 0.08868 0.33138 0.0
O140 O 0.93359 0.14743 0.32263 0.0
O141 O 0.99158 0.13809 0.21983 0.0
O142 O 0.96791 0.16148 0.26373 0.0
C143 C 0.9725 0.0612 0.23017 0.0
C144 C 0.06998 0.05601 0.28538 0.0
C145 C 0.1353 0.12181 0.1517 0.0
C146 C 0.15912 0.13615 0.10189 0.0
C147 C 0.21725 0.15912 0.141 0.0
C148 C 0.18253 0.14181 0.16078 0.0
C149 C 0.20577 0.15636 0.11179 0.0
C150 C 0.1238 0.11881 0.12211 0.0
C151 C 0.09885 0.10386 0.17315 0.0
C152 C 0.25343 0.21693 0.24097 0.0
C153 C 0.28271 0.18533 0.24939 0.0
H154 H 0.18759 0.2712 0.21985 0.0
C155 C 0.07021 0.155 0.28868 0.0
C156 C 0.9674 0.16322 0.23565 0.0
C157 C 0.87352 0.12572 0.35925 0.0
C158 C 0.83145 0.12852 0.4069 0.0
C159 C 0.77507 0.13819 0.36396 0.0
C160 C 0.82152 0.13295 0.3468 0.0
C161 C 0.7799 0.13625 0.39374 0.0
C162 C 0.87827 0.12331 0.3893 0.0
C163 C 0.92349 0.12151 0.34143 0.0
H164 H 0.25364 0.17435 0.14833 0.0
H165 H 0.19318 0.14366 0.18317 0.0
H166 H 0.23438 0.16933 0.09689 0.0
H167 H 0.08763 0.10318 0.11491 0.0
H168 H 0.73521 0.14416 0.35414 0.0
H169 H 0.81664 0.13493 0.32391 0.0
H170 H 0.74327 0.14142 0.40643 0.0
H171 H 0.91838 0.11723 0.39886 0.0
C172 C 0.68478 0.4443 0.76886 0.0
C173 C 0.68417 0.51141 0.77072 0.0
C174 C 0.6571 0.477 0.77467 0.0
C175 C 0.7388 0.51252 0.76023 0.0
C176 C 0.73981 0.44531 0.75861 0.0
C177 C 0.76652 0.47958 0.75418 0.0
N178 N 0.65748 0.41154 0.77282 0.0
C179 C 0.68336 0.3788 0.76794 0.0
C180 C 0.76628 0.4118 0.75302 0.0
C181 C 0.73801 0.37841 0.75786 0.0
Gd182 Gd 0.44238 0.40658 0.73005 0.0
Gd183 Gd 0.56517 0.41515 0.78839 0.0
N184 N 0.60365 0.47505 0.78418 0.0
C185 C 0.65561 0.54367 0.77764 0.0
C186 C 0.57708 0.50624 0.79265 0.0
C187 C 0.60214 0.54101 0.78904 0.0
H188 H 0.53723 0.50452 0.80283 0.0
H189 H 0.58044 0.56572 0.79537 0.0
H190 H 0.47532 0.31738 0.71664 0.0
H191 H 0.66214 0.35291 0.77216 0.0
H192 H 0.43465 0.25555 0.72407 0.0
H193 H 0.67492 0.57065 0.77489 0.0
H194 H 0.7601 0.53873 0.75686 0.0
H195 H 0.34354 0.46685 0.74745 0.0
H196 H 0.80857 0.41141 0.74514 0.0
H197 H 0.75833 0.35237 0.75389 0.0
H198 H 0.25187 0.27925 0.75978 0.0
H199 H 0.80872 0.48091 0.74618 0.0
H200 H 0.19801 0.40546 0.77187 0.0
H201 H 0.24664 0.46541 0.76469 0.0
N202 N 0.34989 0.4083 0.74539 0.0
C203 C 0.32365 0.37506 0.74864 0.0
C204 C 0.32292 0.44052 0.75081 0.0
C205 C 0.24055 0.40591 0.76432 0.0
C206 C 0.26791 0.43981 0.76037 0.0
C207 C 0.26835 0.37297 0.75846 0.0
H208 H 0.20042 0.33608 0.77004 0.0
N209 N 0.4068 0.34585 0.73429 0.0
C210 C 0.35291 0.34294 0.74296 0.0
C211 C 0.35756 0.27628 0.74052 0.0
C212 C 0.32718 0.30802 0.74675 0.0
C213 C 0.43516 0.31509 0.72639 0.0
C214 C 0.4115 0.27988 0.72991 0.0
O215 O 0.58021 0.43727 0.7431 0.0
O216 O 0.49535 0.45808 0.72765 0.0
O217 O 0.44758 0.3899 0.68551 0.0
O218 O 0.38685 0.43025 0.69812 0.0
O219 O 0.48387 0.44463 0.79737 0.0
O220 O 0.44641 0.46128 0.75333 0.0
O221 O 0.42622 0.38779 0.77572 0.0
O222 O 0.50952 0.36426 0.79076 0.0
O223 O 0.55592 0.42878 0.83339 0.0
O224 O 0.62028 0.39117 0.82039 0.0
O225 O 0.52532 0.37855 0.72106 0.0
O226 O 0.55855 0.36089 0.76545 0.0
C227 C 0.54979 0.46057 0.72827 0.0
C228 C 0.452 0.46583 0.78124 0.0
C229 C 0.42364 0.43518 0.65151 0.0
C230 C 0.41734 0.44444 0.5997 0.0
C231 C 0.47084 0.48744 0.62938 0.0
C232 C 0.45714 0.46702 0.65383 0.0
C233 C 0.45106 0.47634 0.60247 0.0
C234 C 0.40406 0.42392 0.6245 0.0
C235 C 0.40963 0.41292 0.6769 0.0
C236 C 0.27215 0.30585 0.7566 0.0
C237 C 0.24282 0.33822 0.76242 0.0
H238 H 0.33936 0.24896 0.74324 0.0
C239 C 0.45486 0.36384 0.79073 0.0
C240 C 0.55673 0.35732 0.73746 0.0
C241 C 0.63752 0.42716 0.86163 0.0
C242 C 0.67456 0.43287 0.91028 0.0
C243 C 0.71042 0.47213 0.87201 0.0
C244 C 0.67401 0.45525 0.85253 0.0
C245 C 0.71079 0.46108 0.90072 0.0
C246 C 0.6379 0.41603 0.89047 0.0
C247 C 0.59853 0.40928 0.8415 0.0
H248 H 0.49665 0.51205 0.6313 0.0
H249 H 0.47258 0.47607 0.67447 0.0
H250 H 0.46148 0.49308 0.58393 0.0
H251 H 0.37901 0.39889 0.62283 0.0
H252 H 0.73862 0.49373 0.86481 0.0
H253 H 0.6745 0.46411 0.83046 0.0
H254 H 0.74008 0.4742 0.91533 0.0
H255 H 0.60926 0.39453 0.8975 0.0
C256 C 0.82882 0.84933 0.76444 0.0
C257 C 0.85326 0.78598 0.77559 0.0
C258 C 0.86597 0.82419 0.77627 0.0
C259 C 0.80452 0.77347 0.76175 0.0
C260 C 0.77901 0.83696 0.7513 0.0
C261 C 0.76747 0.79889 0.74967 0.0
N262 N 0.84189 0.88595 0.76531 0.0
C263 C 0.80599 0.91183 0.75499 0.0
C264 C 0.74249 0.86327 0.73997 0.0
C265 C 0.75587 0.90089 0.74203 0.0
Gd266 Gd 0.05543 0.90172 0.72782 0.0
Gd267 Gd 0.92678 0.90196 0.7868 0.0
N268 N 0.91327 0.83708 0.78929 0.0
C269 C 0.88909 0.76151 0.78958 0.0
C270 C 0.94472 0.81359 0.80556 0.0
C271 C 0.93427 0.77548 0.80519 0.0
H272 H 0.97695 0.82386 0.81966 0.0
H273 H 0.96039 0.75698 0.81749 0.0
H274 H 0.06956 0.99303 0.71708 0.0
H275 H 0.81653 0.94084 0.75651 0.0
H276 H 0.14162 0.0418 0.72329 0.0
H277 H 0.88081 0.73199 0.78956 0.0
H278 H 0.79455 0.7442 0.76074 0.0
H279 H 0.12101 0.82133 0.73522 0.0
H280 H 0.70385 0.85485 0.72969 0.0
H281 H 0.72773 0.92143 0.73352 0.0
H282 H 0.30139 0.97615 0.75808 0.0
H283 H 0.72977 0.78883 0.73934 0.0
H284 H 0.28831 0.84377 0.76309 0.0
H285 H 0.21355 0.79888 0.75071 0.0
N286 N 0.14282 0.87799 0.74028 0.0
C287 C 0.18391 0.90307 0.74579 0.0
C288 C 0.15335 0.841 0.74101 0.0
C289 C 0.24775 0.8537 0.75658 0.0
C290 C 0.20569 0.82827 0.74956 0.0
C291 C 0.2375 0.89164 0.7542 0.0
H292 H 0.32071 0.91011 0.76587 0.0
N293 N 0.1211 0.95006 0.73297 0.0
C294 C 0.17302 0.94023 0.74163 0.0
C295 C 0.20347 1.00406 0.73923 0.0
C296 C 0.21541 0.96703 0.74542 0.0
C297 C 0.11014 0.9858 0.72524 0.0
C298 C 0.15083 1.01339 0.72874 0.0
O299 O 0.91513 0.89057 0.73923 0.0
O300 O 0.99115 0.85605 0.72983 0.0
O301 O 0.0347 0.91549 0.68342 0.0
O302 O 0.0988 0.87592 0.69258 0.0
O303 O 0.01122 0.88151 0.80054 0.0
O304 O 0.03738 0.85507 0.75852 0.0
O305 O 0.06815 0.94014 0.76548 0.0
O306 O 0.99423 0.94358 0.79786 0.0
O307 O 0.89944 0.88931 0.83018 0.0
O308 O 0.87007 0.93837 0.80897 0.0
O309 O 0.98866 0.94508 0.72085 0.0
O310 O 0.93004 0.95438 0.76043 0.0
C311 C 0.93845 0.86312 0.72567 0.0
C312 C 0.04499 0.86045 0.78604 0.0
C313 C 0.11189 0.91384 0.65208 0.0
C314 C 0.14081 0.92676 0.6029 0.0
C315 C 0.19191 0.95374 0.64285 0.0
C316 C 0.15642 0.93585 0.66199 0.0
C317 C 0.18403 0.94945 0.61347 0.0
C318 C 0.10462 0.90885 0.62232 0.0
C319 C 0.0744 0.89548 0.67285 0.0
C320 C 0.26838 0.95594 0.75475 0.0
C321 C 0.27936 0.91833 0.7592 0.0
H322 H 0.23492 0.02549 0.74189 0.0
C323 C 0.04369 0.95365 0.7883 0.0
C324 C 0.95055 0.96378 0.73509 0.0
C325 C 0.88569 0.94152 0.85912 0.0
C326 C 0.88067 0.94867 0.91123 0.0
C327 C 0.93384 0.99268 0.88248 0.0
C328 C 0.91938 0.97341 0.85764 0.0
C329 C 0.91476 0.98045 0.90911 0.0
C330 C 0.86621 0.92933 0.88598 0.0
C331 C 0.87263 0.92006 0.83299 0.0
H332 H 0.22597 0.9707 0.65085 0.0
H333 H 0.16446 0.9389 0.68451 0.0
H334 H 0.21255 0.96323 0.59893 0.0
H335 H 0.07111 0.89133 0.61434 0.0
H336 H 0.95988 0.01724 0.8811 0.0
H337 H 0.93454 0.98335 0.83724 0.0
H338 H 0.92603 0.99621 0.92802 0.0
H339 H 0.84066 0.90449 0.88723 0.0
C340 C 0.67676 0.66235 0.27822 0.0
C341 C 0.65631 0.72182 0.29922 0.0
C342 C 0.6406 0.68503 0.2929 0.0
C343 C 0.70768 0.73576 0.28951 0.0
C344 C 0.72912 0.67576 0.26928 0.0
C345 C 0.74403 0.71277 0.27461 0.0
N346 N 0.66056 0.62699 0.27265 0.0
C347 C 0.69599 0.60273 0.26016 0.0
C348 C 0.76499 0.65147 0.25537 0.0
C349 C 0.74856 0.61468 0.25108 0.0
Gd350 Gd 0.4568 0.61145 0.22325 0.0
Gd351 Gd 0.57142 0.60944 0.28762 0.0
N352 N 0.59125 0.67064 0.30208 0.0
C353 C 0.62061 0.74319 0.31578 0.0
C354 C 0.55866 0.69042 0.3202 0.0
C355 C 0.57206 0.72719 0.32674 0.0
H356 H 0.52284 0.67786 0.33022 0.0
H357 H 0.54535 0.74298 0.34059 0.0
H358 H 0.46885 0.52796 0.19416 0.0
H359 H 0.68347 0.57425 0.25698 0.0
H360 H 0.41817 0.46776 0.19424 0.0
H361 H 0.63112 0.77158 0.32108 0.0
H362 H 0.72019 0.76406 0.29394 0.0
H363 H 0.36193 0.67489 0.24369 0.0
H364 H 0.80561 0.66071 0.24818 0.0
H365 H 0.77631 0.59556 0.24075 0.0
H366 H 0.25475 0.49104 0.25001 0.0
H367 H 0.78386 0.72373 0.26765 0.0
H368 H 0.22116 0.61644 0.27749 0.0
H369 H 0.27114 0.67535 0.26789 0.0
N370 N 0.36668 0.6161 0.24265 0.0
C371 C 0.33778 0.58378 0.24549 0.0
C372 C 0.34182 0.64888 0.24889 0.0
C373 C 0.26169 0.61602 0.26748 0.0
C374 C 0.28979 0.64931 0.26213 0.0
C375 C 0.28485 0.58276 0.25834 0.0
H376 H 0.21555 0.54748 0.27082 0.0
N377 N 0.40977 0.5543 0.22065 0.0
C378 C 0.3595 0.55203 0.23365 0.0
C379 C 0.35146 0.4876 0.22057 0.0
C380 C 0.32945 0.51838 0.23451 0.0
C381 C 0.42986 0.52515 0.20544 0.0
C382 C 0.40142 0.49118 0.20557 0.0
O383 O 0.59145 0.63511 0.24432 0.0
O384 O 0.51055 0.66254 0.22982 0.0
O385 O 0.47901 0.61007 0.17819 0.0
O386 O 0.39908 0.63086 0.19058 0.0
O387 O 0.48625 0.63276 0.2967 0.0
O388 O 0.45764 0.65997 0.25429 0.0
O389 O 0.46945 0.56126 0.25177 0.0
O390 O 0.48521 0.58657 0.29558 0.0
O391 O 0.60244 0.61051 0.3318 0.0
O392 O 0.60337 0.55914 0.30709 0.0
O393 O 0.5398 0.58589 0.21301 0.0
O394 O 0.57788 0.56238 0.25547 0.0
C395 C 0.56516 0.66232 0.23154 0.0
C396 C 0.45752 0.65779 0.28251 0.0
C397 C 0.43793 0.65434 0.14785 0.0
C398 C 0.42884 0.67387 0.09776 0.0
C399 C 0.45909 0.71771 0.13452 0.0
C400 C 0.45515 0.69014 0.15546 0.0
C401 C 0.44581 0.70979 0.10592 0.0
C402 C 0.42523 0.64624 0.11909 0.0
C403 C 0.4329 0.62497 0.16951 0.0
C404 C 0.27816 0.51676 0.24874 0.0
C405 C 0.25592 0.54889 0.26066 0.0
H406 H 0.32964 0.46122 0.22074 0.0
C407 C 0.46209 0.56105 0.27951 0.0
C408 C 0.57286 0.56318 0.22721 0.0
C409 C 0.63817 0.55563 0.35633 0.0
C410 C 0.66575 0.55357 0.40695 0.0
C411 C 0.66746 0.49777 0.37813 0.0
C412 C 0.64882 0.51758 0.35428 0.0
C413 C 0.67543 0.51551 0.40436 0.0
C414 C 0.64757 0.5737 0.38276 0.0
C415 C 0.61388 0.57543 0.33145 0.0
H416 H 0.47211 0.74541 0.14048 0.0
H417 H 0.46527 0.69674 0.17754 0.0
H418 H 0.44809 0.73199 0.09033 0.0
H419 H 0.41303 0.61825 0.1134 0.0
H420 H 0.67523 0.46843 0.37635 0.0
H421 H 0.64194 0.50294 0.33433 0.0
H422 H 0.68962 0.49955 0.42266 0.0
H423 H 0.63928 0.60298 0.38479 0.0
H424 H 0.22598 0.94159 0.34954 0.0
H425 H 0.06724 0.9051 0.38254 0.0
H426 H 0.01992 0.95101 0.35299 0.0
H427 H 0.02418 1.0039 0.3206 0.0
H428 H 0.18192 0.04092 0.2873 0.0
H429 H 0.22913 0.99238 0.314 0.0
C430 C 0.18095 0.94316 0.34978 0.0
C431 C 0.15025 0.92009 0.36839 0.0
C432 C 0.15388 0.96982 0.33278 0.0
C433 C 0.09193 0.92283 0.3687 0.0
C434 C 0.06482 0.94908 0.35181 0.0
C435 C 0.06866 1.00107 0.31853 0.0
C436 C 0.09898 0.02562 0.3009 0.0
C437 C 0.09547 0.97316 0.3342 0.0
C438 C 0.15702 0.02177 0.29953 0.0
C439 C 0.18422 0.99416 0.3152 0.0
H440 H 0.38043 0.62113 0.82752 0.0
H441 H 0.34488 0.55562 0.90306 0.0
H442 H 0.37048 0.49975 0.87756 0.0
H443 H 0.40956 0.46983 0.83486 0.0
H444 H 0.4369 0.53434 0.75826 0.0
H445 H 0.40622 0.59007 0.78294 0.0
C446 C 0.37663 0.59468 0.83837 0.0
C447 C 0.36171 0.59315 0.86759 0.0
C448 C 0.39013 0.56232 0.82335 0.0
C449 C 0.3579 0.5582 0.88097 0.0
C450 C 0.37218 0.52602 0.86632 0.0
C451 C 0.40807 0.49605 0.82352 0.0
C452 C 0.42594 0.49813 0.79491 0.0
C453 C 0.38962 0.52786 0.83773 0.0
C454 C 0.4232 0.53208 0.78028 0.0
C455 C 0.40597 0.56397 0.79444 0.0
H456 H 0.61767 0.60183 0.6564 0.0
H457 H 0.7651 0.53794 0.64278 0.0
H458 H 0.73129 0.49044 0.67643 0.0
H459 H 0.65463 0.46422 0.70567 0.0
H460 H 0.50482 0.52728 0.71624 0.0
H461 H 0.54423 0.57771 0.68789 0.0
C462 C 0.64284 0.57789 0.66143 0.0
C463 C 0.694 0.57345 0.64763 0.0
C464 C 0.6221 0.5502 0.67981 0.0
C465 C 0.7259 0.542 0.65358 0.0
C466 C 0.70632 0.51477 0.67258 0.0
C467 C 0.63101 0.48921 0.70202 0.0
C468 C 0.57662 0.4918 0.71279 0.0
C469 C 0.65371 0.51808 0.68522 0.0
C470 C 0.54646 0.52434 0.70786 0.0
C471 C 0.56902 0.5533 0.69172 0.0
H472 H 0.91793 0.93596 0.13975 0.0
H473 H 0.75026 0.95726 0.16683 0.0
H474 H 0.78516 1.00342 0.20121 0.0
H475 H 0.86333 0.04081 0.22073 0.0
H476 H 0.03098 0.01697 0.19442 0.0
H477 H 0.99589 0.96973 0.1618 0.0
C478 C 0.88905 0.95054 0.15334 0.0
C479 C 0.8316 0.94341 0.15063 0.0
C480 C 0.90935 0.97707 0.17278 0.0
C481 C 0.7947 0.96212 0.16862 0.0
C482 C 0.81462 0.98875 0.18806 0.0
C483 C 0.89228 0.02485 0.20836 0.0
C484 C 0.94984 0.03236 0.21048 0.0
C485 C 0.87186 0.99693 0.18995 0.0
C486 C 0.98651 1.01185 0.19351 0.0
C487 C 0.96652 0.98468 0.17481 0.0
H488 H 0.79584 0.08324 0.67829 0.0
H489 H 0.93172 0.08922 0.61809 0.0
H490 H 0.98295 0.04424 0.64651 0.0
H491 H 0.98669 1.00006 0.68679 0.0
H492 H 0.85581 1.00048 0.74982 0.0
H493 H 0.80624 0.04696 0.72219 0.0
C494 C 0.83727 0.07585 0.67156 0.0
C495 C 0.85878 0.08948 0.64542 0.0
C496 C 0.8676 0.05078 0.6885 0.0
C497 C 0.91264 0.07854 0.63741 0.0
C498 C 0.94244 0.05292 0.65384 0.0
C499 C 0.9477 1.01058 0.69476 0.0
C500 C 0.92461 0.99583 0.72013 0.0
C501 C 0.91979 0.03823 0.67911 0.0
C502 C 0.87433 1.01047 0.73014 0.0
C503 C 0.84582 0.03725 0.71435 0.0
H504 H 0.70768 0.48325 0.13169 0.0
H505 H 0.66792 0.38733 0.18304 0.0
H506 H 0.62704 0.42725 0.21969 0.0
H507 H 0.59449 0.48957 0.23464 0.0
H508 H 0.62993 0.58365 0.1804 0.0
H509 H 0.68034 0.54441 0.14729 0.0
C510 C 0.69002 0.47099 0.1509 0.0
C511 C 0.68986 0.43235 0.1544 0.0
C512 C 0.66552 0.49388 0.17128 0.0
C513 C 0.66836 0.41701 0.1798 0.0
C514 C 0.64471 0.43982 0.20065 0.0
C515 C 0.61414 0.50135 0.21579 0.0
C516 C 0.60847 0.53931 0.20977 0.0
C517 C 0.6419 0.47829 0.19631 0.0
C518 C 0.63347 0.55441 0.18522 0.0
C519 C 0.66227 0.53203 0.16632 0.0
H520 H 0.37196 0.4124 0.33387 0.0
H521 H 0.2957 0.49017 0.39094 0.0
H522 H 0.32921 0.54172 0.36165 0.0
H523 H 0.39048 0.56489 0.32356 0.0
H524 H 0.46558 0.48805 0.26548 0.0
H525 H 0.42216 0.436 0.29108 0.0
C526 C 0.36132 0.44059 0.3393 0.0
C527 C 0.33203 0.44756 0.36467 0.0
C528 C 0.38154 0.47027 0.32252 0.0
C529 C 0.31865 0.48423 0.3716 0.0
C530 C 0.33811 0.51372 0.35499 0.0
C531 C 0.39696 0.53671 0.31649 0.0
C532 C 0.43193 0.53006 0.29319 0.0
C533 C 0.37147 0.50712 0.33111 0.0
C534 C 0.43909 0.49364 0.28362 0.0
C535 C 0.41432 0.46393 0.29825 0.0
H536 H 0.21594 0.05369 0.85623 0.0
H537 H 0.06712 0.11453 0.87457 0.0
H538 H 0.01189 0.071 0.84566 0.0
H539 H 1.0062 0.01539 0.81507 0.0
H540 H 0.1544 0.95263 0.79981 0.0
H541 H 0.20994 0.9977 0.82666 0.0
C542 C 0.17153 0.05767 0.85359 0.0
C543 C 0.14571 0.08742 0.86735 0.0
C544 C 0.14002 0.03227 0.83732 0.0
C545 C 0.08791 0.09178 0.86423 0.0
C546 C 0.05636 0.06694 0.84769 0.0
C547 C 0.05042 1.01132 0.81809 0.0
C548 C 0.0762 0.98086 0.80531 0.0
C549 C 0.08191 0.03691 0.83429 0.0
C550 C 0.13385 0.97638 0.80877 0.0
C551 C 0.16554 1.00194 0.8244 0.0
H552 H 0.15605 0.09038 0.9715 0.0
H553 H 0.19576 0.20642 0.96215 0.0
H554 H 0.18141 0.21575 0.01339 0.0
H555 H 0.16684 0.18997 0.06135 0.0
H556 H 0.13188 0.07347 0.07167 0.0
H557 H 0.13321 0.06546 0.01956 0.0
C558 C 0.1604 0.11782 0.98063 0.0
C559 C 0.1774 0.14764 0.96311 0.0
C560 C 0.15306 0.12286 0.01029 0.0
C561 C 0.18337 0.18298 0.97526 0.0
C562 C 0.17512 0.18833 1.00454 0.0
C563 C 0.15909 0.16285 0.05219 0.0
C564 C 0.15003 0.13228 0.07041 0.0
C565 C 0.16152 0.15831 0.02236 0.0
C566 C 0.13881 0.09749 0.05817 0.0
C567 C 0.14009 0.09284 0.02836 0.0
H568 H 0.2893 0.39235 0.4876 0.0
H569 H 0.44575 0.4237 0.44935 0.0
H570 H 0.48363 0.43975 0.49655 0.0
H571 H 0.47172 0.44578 0.54853 0.0
H572 H 0.31374 0.41693 0.58653 0.0
H573 H 0.27748 0.39831 0.53973 0.0
C574 C 0.33186 0.40233 0.4897 0.0
C575 C 0.36471 0.40686 0.4651 0.0
C576 C 0.35311 0.41191 0.51685 0.0
C577 C 0.41956 0.42027 0.46801 0.0
C578 C 0.44124 0.42937 0.49496 0.0
C579 C 0.42919 0.43573 0.54658 0.0
C580 C 0.39562 0.43278 0.57111 0.0
C581 C 0.40823 0.42562 0.5195 0.0
C582 C 0.34088 0.41903 0.56815 0.0
C583 C 0.31992 0.40858 0.54133 0.0
H584 H 0.69259 0.35645 0.03193 0.0
H585 H 0.70682 0.47051 0.05825 0.0
H586 H 0.69238 0.49079 0.00883 0.0
H587 H 0.68116 0.47614 0.95778 0.0
H588 H 0.67087 0.3621 0.93109 0.0
H589 H 0.67817 0.34183 0.98098 0.0
C590 C 0.69256 0.38574 0.02683 0.0
C591 C 0.701 0.41188 0.04876 0.0
C592 C 0.68517 0.39723 0.99829 0.0
C593 C 0.69984 0.44977 0.04188 0.0
C594 C 0.69205 0.46141 0.01357 0.0
C595 C 0.68072 0.44685 0.96288 0.0
C596 C 0.67589 0.42069 0.94072 0.0
C597 C 0.68557 0.43538 0.99156 0.0
C598 C 0.67416 0.38284 0.94774 0.0
C599 C 0.67867 0.37121 0.97625 0.0
H600 H 0.87554 0.14341 0.54078 0.0
H601 H 0.71102 0.0949 0.54274 0.0
H602 H 0.71106 0.08888 0.49055 0.0
H603 H 0.75574 0.09996 0.44442 0.0
H604 H 0.91728 0.15317 0.44153 0.0
H605 H 0.92124 0.15387 0.49388 0.0
C606 C 0.8401 0.13119 0.52967 0.0
C607 C 0.79328 0.11966 0.54542 0.0
C608 C 0.83989 0.12864 0.49953 0.0
C609 C 0.74732 0.10412 0.53094 0.0
C610 C 0.74735 0.10068 0.50115 0.0
C611 C 0.79172 0.11203 0.45514 0.0
C612 C 0.83589 0.12676 0.43884 0.0
C613 C 0.793 0.1134 0.48521 0.0
C614 C 0.8828 0.14128 0.45334 0.0
C615 C 0.88493 0.14199 0.48336 0.0
H616 H 0.75466 0.90288 0.02486 0.0
H617 H 0.91897 0.92088 0.06051 0.0
H618 H 0.95465 0.9354 0.01294 0.0
H619 H 0.93916 0.94423 0.9613 0.0
H620 H 0.77557 0.92539 0.92529 0.0
H621 H 0.74017 0.90882 0.97272 0.0
C622 C 0.79844 0.90946 0.02222 0.0
C623 C 0.83383 0.91109 0.04643 0.0
C624 C 0.81896 0.91748 0.99466 0.0
C625 C 0.89039 0.92012 0.04246 0.0
C626 C 0.911 0.9282 0.01519 0.0
C627 C 0.89571 0.93659 0.96384 0.0
C628 C 0.86001 0.93629 0.93977 0.0
C629 C 0.87558 0.92732 0.99119 0.0
C630 C 0.80406 0.92561 0.94338 0.0
C631 C 0.78371 0.91636 0.97055 0.0
H632 H 0.74821 0.63201 0.52032 0.0
H633 H 0.61917 0.56193 0.55614 0.0
H634 H 0.59635 0.53882 0.50862 0.0
H635 H 0.61454 0.53671 0.45681 0.0
H636 H 0.73714 0.61024 0.42014 0.0
H637 H 0.75952 0.63475 0.46791 0.0
C638 C 0.7144 0.61219 0.51787 0.0
C639 C 0.68652 0.59832 0.54228 0.0
C640 C 0.69997 0.59974 0.49017 0.0
C641 C 0.64307 0.57232 0.5382 0.0
C642 C 0.62935 0.5593 0.51086 0.0
C643 C 0.64574 0.55838 0.45934 0.0
C644 C 0.67444 0.57158 0.43516 0.0
C645 C 0.65792 0.57247 0.48675 0.0
C646 C 0.71446 0.59983 0.43852 0.0
C647 C 0.72743 0.61362 0.46582 0.0
H648 H 0.33324 0.62766 0.97555 0.0
H649 H 0.46127 0.7041 0.94834 0.0
H650 H 0.49133 0.71281 0.99811 0.0
H651 H 0.4788 0.7007 0.04936 0.0
H652 H 0.34599 0.62791 0.07715 0.0
H653 H 0.32101 0.61524 0.02735 0.0
C654 C 0.36814 0.64581 0.98063 0.0
C655 C 0.39522 0.66515 0.95845 0.0
C656 C 0.38424 0.65142 0.0094 0.0
C657 C 0.43992 0.68898 0.96516 0.0
C658 C 0.45699 0.69401 0.99358 0.0
C659 C 0.44402 0.68232 0.04464 0.0
C660 C 0.4144 0.66543 0.06722 0.0
C661 C 0.4289 0.67583 0.01591 0.0
C662 C 0.37023 0.641 0.0604 0.0
C663 C 0.35556 0.6339 0.03184 0.0
H664 H 0.15959 0.93714 0.46913 0.0
H665 H 0.18646 0.81997 0.47905 0.0
H666 H 0.16682 0.8244 0.53029 0.0
H667 H 0.14902 0.8627 0.57306 0.0
H668 H 0.12485 0.97991 0.56276 0.0
H669 H 0.13458 0.97422 0.51081 0.0
C670 C 0.16004 0.9124 0.48233 0.0
C671 C 0.17478 0.87831 0.47021 0.0
C672 C 0.1489 0.91517 0.51177 0.0
C673 C 0.1761 0.84668 0.48787 0.0
C674 C 0.16455 0.84914 0.51716 0.0
C675 C 0.14451 0.88671 0.55926 0.0
C676 C 0.13593 0.92162 0.57152 0.0
C677 C 0.15182 0.88336 0.52946 0.0
C678 C 0.1312 0.95277 0.55363 0.0
C679 C 0.13713 0.94955 0.52401 0.0
H680 H 0.18575 0.24684 0.38802 0.0
H681 H 0.22006 0.32167 0.31818 0.0
H682 H 0.16965 0.28028 0.28489 0.0
H683 H 0.11582 0.2227 0.27625 0.0
H684 H 0.08525 0.14721 0.34642 0.0
H685 H 0.1329 0.18944 0.37929 0.0
C686 C 0.18191 0.25404 0.36548 0.0
C687 C 0.20611 0.287 0.35535 0.0
C688 C 0.15338 0.23012 0.34671 0.0
C689 C 0.20139 0.29633 0.32626 0.0
C690 C 0.17268 0.27269 0.30734 0.0
C691 C 0.12041 0.21517 0.29859 0.0
C692 C 0.09786 0.18139 0.30865 0.0
C693 C 0.14867 0.23942 0.31735 0.0
C694 C 0.1024 0.17282 0.33798 0.0
C695 C 0.12978 0.19694 0.35682 0.0
H696 H 0.29461 0.25249 0.85612 0.0
H697 H 0.43169 0.17933 0.84148 0.0
H698 H 0.48212 0.2286 0.81609 0.0
H699 H 0.48898 0.29341 0.80001 0.0
H700 H 0.35131 0.36656 0.81382 0.0
H701 H 0.2993 0.31667 0.83742 0.0
C702 C 0.33517 0.24738 0.84696 0.0
C703 C 0.3596 0.21256 0.85041 0.0
C704 C 0.36403 0.27597 0.83257 0.0
C705 C 0.4122 0.20603 0.83879 0.0
C706 C 0.44112 0.23421 0.82446 0.0
C707 C 0.44781 0.29844 0.80844 0.0
C708 C 0.42435 0.33371 0.80561 0.0
C709 C 0.41788 0.26949 0.82166 0.0
C710 C 0.3704 0.33966 0.81597 0.0
C711 C 0.34059 0.31114 0.82941 0.0
H712 H 0.67055 0.20856 0.69965 0.0
H713 H 0.67325 0.26511 0.61828 0.0
H714 H 0.63354 0.32031 0.6403 0.0
H715 H 0.59182 0.35074 0.68219 0.0
H716 H 0.5894 0.29367 0.76359 0.0
H717 H 0.63513 0.24065 0.74226 0.0
C718 C 0.66343 0.23333 0.68699 0.0
C719 C 0.67503 0.23323 0.65759 0.0
C720 C 0.63998 0.26468 0.69975 0.0
C721 C 0.66505 0.265 0.6411 0.0
C722 C 0.642 0.29638 0.65363 0.0
C723 C 0.60155 0.32674 0.69524 0.0
C724 C 0.58698 0.32614 0.72439 0.0
C725 C 0.62819 0.29627 0.68283 0.0
C726 C 0.60031 0.29496 0.74111 0.0
C727 C 0.6264 0.26453 0.72892 0.0
H728 H 0.86735 0.3122 0.18797 0.0
H729 H 0.80296 0.23761 0.12375 0.0
H730 H 0.84394 0.18496 0.14904 0.0
H731 H 0.90385 0.16084 0.18763 0.0
H732 H 0.96616 0.23481 0.25286 0.0
H733 H 0.92065 0.28706 0.22914 0.0
C734 C 0.86144 0.28426 0.18002 0.0
C735 C 0.83211 0.27837 0.15434 0.0
C736 C 0.88551 0.25421 0.19459 0.0
C737 C 0.82504 0.24239 0.14376 0.0
C738 C 0.84881 0.21241 0.15805 0.0
C739 C 0.9073 0.18844 0.19656 0.0
C740 C 0.93862 0.19426 0.22164 0.0
C741 C 0.88019 0.2181 0.18313 0.0
C742 C 0.94219 0.22989 0.23346 0.0
C743 C 0.91622 0.2597 0.21994 0.0
H744 H 0.76481 0.78163 0.64486 0.0
H745 H 0.86744 0.68827 0.66552 0.0
H746 H 0.9263 0.72746 0.69655 0.0
H747 H 0.95058 0.78928 0.71604 0.0
H748 H 0.84743 0.8824 0.69465 0.0
H749 H 0.78683 0.84258 0.66563 0.0
C750 C 0.79966 0.76989 0.65654 0.0
C751 C 0.81186 0.73229 0.65328 0.0
C752 C 0.83355 0.7927 0.67384 0.0
C753 C 0.85725 0.71719 0.66808 0.0
C754 C 0.89101 0.73964 0.68559 0.0
C755 C 0.91511 0.80081 0.70477 0.0
C756 C 0.90367 0.83876 0.70726 0.0
C757 C 0.88011 0.7776 0.68826 0.0
C758 C 0.85709 0.85328 0.69299 0.0
C759 C 0.82237 0.83052 0.67644 0.0
H760 H 0.73059 0.76148 0.15869 0.0
H761 H 0.59379 0.83711 0.16272 0.0
H762 H 0.542 0.79356 0.19329 0.0
H763 H 0.53358 0.73203 0.2163 0.0
H764 H 0.67004 0.65593 0.21066 0.0
H765 H 0.72421 0.70146 0.18376 0.0
C766 C 0.68996 0.76864 0.16688 0.0
C767 C 0.6661 0.80245 0.15898 0.0
C768 C 0.66023 0.74319 0.18396 0.0
C769 C 0.6131 0.81136 0.16904 0.0
C770 C 0.58338 0.78635 0.18628 0.0
C771 C 0.57521 0.7255 0.2092 0.0
C772 C 0.59781 0.69066 0.21564 0.0
C773 C 0.60609 0.75184 0.19342 0.0
C774 C 0.65191 0.68269 0.20641 0.0
C775 C 0.68288 0.70868 0.19085 0.0
H776 H 0.31987 0.7431 0.37493 0.0
H777 H 0.34973 0.8342 0.31724 0.0
H778 H 0.39379 0.79224 0.28293 0.0
H779 H 0.43092 0.73 0.2716 0.0
H780 H 0.40379 0.64044 0.33143 0.0
H781 H 0.35137 0.6811 0.36253 0.0
C782 C 0.33514 0.75351 0.35455 0.0
C783 C 0.33143 0.7913 0.34829 0.0
C784 C 0.3614 0.72949 0.3355 0.0
C785 C 0.35188 0.80495 0.32219 0.0
C786 C 0.37729 0.78102 0.30273 0.0
C787 C 0.41279 0.71944 0.29126 0.0
C788 C 0.42153 0.6824 0.29935 0.0
C789 C 0.38335 0.7433 0.30944 0.0
C790 C 0.39817 0.66897 0.32493 0.0
C791 C 0.36808 0.69216 0.34272 0.0
H792 H 0.24323 0.80371 0.86277 0.0
H793 H 0.21242 0.70358 0.81532 0.0
H794 H 0.13536 0.73345 0.78933 0.0
H795 H 0.0776 0.78887 0.78007 0.0
H796 H 0.11084 0.88881 0.82764 0.0
H797 H 0.18587 0.85831 0.85392 0.0
C798 C 0.21935 0.7885 0.84677 0.0
C799 C 0.23279 0.75172 0.84082 0.0
C800 C 0.17574 0.80587 0.83205 0.0
C801 C 0.20224 0.732 0.82013 0.0
C802 C 0.1584 0.74907 0.80535 0.0
C803 C 0.10159 0.80383 0.79613 0.0
C804 C 0.08946 0.84108 0.80177 0.0
C805 C 0.14489 0.78608 0.81108 0.0
C806 C 0.11979 0.86015 0.82295 0.0
C807 C 0.1627 0.84278 0.83789 0.0
loop_
_geom_bond_atom_site_label_1
_geom_bond_atom_site_label_2
_geom_bond_distance
_geom_bond_site_symmetry_2
_ccdc_geom_bond_type
H0 C3 0.929 . S
H1 C6 0.929 . S
H2 C8 0.930 . S
C3 H0 0.929 . S
C3 C4 1.398 . S
C3 C5 1.396 . S
C4 C3 1.398 . S
C4 C8 1.407 . S
C5 C3 1.396 . S
C5 C6 1.394 . S
C6 H1 0.929 . S
C6 C5 1.394 . S
C6 C7 1.382 . S
C7 C6 1.382 . S
C7 C8 1.392 . S
C7 N9 1.420 . S
C8 H2 0.930 . S
C8 C4 1.407 . S
C8 C7 1.392 . S
N9 C7 1.420 . S
N9 C10 1.244 . S
C10 N9 1.244 . S
H11 C14 0.929 . S
H12 C17 0.929 . S
H13 C19 0.930 . S
C14 H11 0.929 . S
C14 C15 1.398 . S
C14 C16 1.396 . S
C15 C14 1.398 . S
C15 C19 1.407 . S
C16 C14 1.396 . S
C16 C17 1.394 . S
C17 H12 0.929 . S
C17 C16 1.394 . S
C17 C18 1.382 . S
C18 C17 1.382 . S
C18 C19 1.392 . S
C18 N20 1.420 . S
C19 H13 0.930 . S
C19 C15 1.407 . S
C19 C18 1.392 . S
N20 C18 1.420 . S
N20 C21 1.244 . S
C21 N20 1.244 . S
H22 C25 0.929 . S
H23 C28 0.929 . S
H24 C30 0.930 . S
C25 H22 0.929 . S
C25 C26 1.398 . S
C25 C27 1.396 . S
C26 C25 1.398 . S
C26 C30 1.407 . S
C27 C25 1.396 . S
C27 C28 1.394 . S
C28 H23 0.929 . S
C28 C27 1.394 . S
C28 C29 1.382 . S
C29 C28 1.382 . S
C29 C30 1.392 . S
C29 N31 1.420 . S
C30 H24 0.930 . S
C30 C26 1.407 . S
C30 C29 1.392 . S
N31 C29 1.420 . S
N31 C32 1.244 . S
C32 N31 1.244 . S
H33 C36 0.929 . S
H34 C39 0.929 . S
H35 C41 0.930 . S
C36 H33 0.929 . S
C36 C37 1.398 . S
C36 C38 1.396 . S
C37 C36 1.398 . S
C37 C41 1.407 . S
C38 C36 1.396 . S
C38 C39 1.394 . S
C39 H34 0.929 . S
C39 C38 1.394 . S
C39 C40 1.382 . S
C40 C39 1.382 . S
C40 C41 1.392 . S
C40 N42 1.420 . S
C41 H35 0.930 . S
C41 C37 1.407 . S
C41 C40 1.392 . S
N42 C40 1.420 . S
N42 C43 1.244 . S
C43 N42 1.244 . S
H44 C47 0.929 . S
H45 C50 0.929 . S
H46 C52 0.930 . S
C47 H44 0.929 . S
C47 C48 1.398 . S
C47 C49 1.396 . S
C48 C47 1.398 . S
C48 C52 1.407 . S
C49 C47 1.396 . S
C49 C50 1.394 . S
C50 H45 0.929 . S
C50 C49 1.394 . S
C50 C51 1.382 . S
C51 C50 1.382 . S
C51 C52 1.392 . S
C51 N53 1.420 . S
C52 H46 0.930 . S
C52 C48 1.407 . S
C52 C51 1.392 . S
N53 C51 1.420 . S
N53 C54 1.244 . S
C54 N53 1.244 . S
H55 C58 0.929 . S
H56 C61 0.929 . S
H57 C63 0.930 . S
C58 H55 0.929 . S
C58 C59 1.398 . S
C58 C60 1.396 . S
C59 C58 1.398 . S
C59 C63 1.407 . S
C60 C58 1.396 . S
C60 C61 1.394 . S
C61 H56 0.929 . S
C61 C60 1.394 . S
C61 C62 1.382 . S
C62 C61 1.382 . S
C62 C63 1.392 . S
C62 N64 1.420 . S
C63 H57 0.930 . S
C63 C59 1.407 . S
C63 C62 1.392 . S
N64 C62 1.420 . S
N64 C65 1.244 . S
C65 N64 1.244 . S
H66 C69 0.929 . S
H67 C72 0.929 . S
H68 C74 0.930 . S
C69 H66 0.929 . S
C69 C70 1.398 . S
C69 C71 1.396 . S
C70 C69 1.398 . S
C70 C74 1.407 . S
C71 C69 1.396 . S
C71 C72 1.394 . S
C72 H67 0.929 . S
C72 C71 1.394 . S
C72 C73 1.382 . S
C73 C72 1.382 . S
C73 C74 1.392 . S
C73 N75 1.420 . S
C74 H68 0.930 . S
C74 C70 1.407 . S
C74 C73 1.392 . S
N75 C73 1.420 . S
N75 C76 1.244 . S
C76 N75 1.244 . S
H77 C80 0.929 . S
H78 C83 0.929 . S
H79 C85 0.930 . S
C80 H77 0.929 . S
C80 C81 1.398 . S
C80 C82 1.396 . S
C81 C80 1.398 . S
C81 C85 1.407 . S
C82 C80 1.396 . S
C82 C83 1.394 . S
C83 H78 0.929 . S
C83 C82 1.394 . S
C83 C84 1.382 . S
C84 C83 1.382 . S
C84 C85 1.392 . S
C84 N86 1.420 . S
C85 H79 0.930 . S
C85 C81 1.407 . S
C85 C84 1.392 . S
N86 C84 1.420 . S
N86 C87 1.244 . S
C87 N86 1.244 . S
C88 C90 1.422 . S
C88 C92 1.415 . S
C88 N94 1.369 . S
C89 C90 1.421 . S
C89 C91 1.417 . S
C89 C101 1.422 1_545 S
C90 C88 1.422 . S
C90 C89 1.421 . S
C90 N100 1.359 . S
C91 C89 1.417 . S
C91 C93 1.329 . S
C91 H110 0.930 1_545 S
C92 C88 1.415 . S
C92 C93 1.437 . S
C92 C96 1.413 . S
C93 C91 1.329 . S
C93 C92 1.437 . S
C93 H115 0.929 . S
N94 C88 1.369 . S
N94 C95 1.338 . S
N94 Gd99 2.622 . S
C95 N94 1.338 . S
C95 C97 1.378 . S
C95 H107 0.929 . S
C96 C92 1.413 . S
C96 C97 1.348 . S
C96 H112 0.931 . S
C97 C95 1.378 . S
C97 C96 1.348 . S
C97 H113 0.930 . S
Gd98 N118 2.622 . S
Gd98 N125 2.570 . S
Gd98 O132 2.353 . S
Gd98 O133 2.468 . S
Gd98 O134 2.427 . S
Gd98 O136 2.388 . S
Gd98 O137 2.386 . S
Gd98 O141 2.307 . S
Gd98 C151 2.805 . S
Gd99 N94 2.622 . S
Gd99 N100 2.570 . S
Gd99 O131 2.386 . S
Gd99 O135 2.307 1_655 S
Gd99 O138 2.353 1_655 S
Gd99 O139 2.468 . S
Gd99 O140 2.427 . S
Gd99 O142 2.388 . S
Gd99 C163 2.805 . S
N100 C90 1.359 . S
N100 Gd99 2.570 . S
N100 C102 1.343 . S
C101 C89 1.422 1_565 S
C101 C103 1.321 . S
C101 H109 0.931 . S
C102 N100 1.343 . S
C102 C103 1.390 1_545 S
C102 H104 0.931 . S
C103 C101 1.321 . S
C103 C102 1.390 1_565 S
C103 H105 0.930 . S
H104 C102 0.931 . S
H105 C103 0.930 . S
H106 C129 0.931 . S
H107 C95 0.929 . S
H108 C130 0.930 . S
H109 C101 0.931 . S
H110 C91 0.930 1_565 S
H111 C120 0.929 . S
H112 C96 0.931 . S
H113 C97 0.930 . S
H114 C152 0.930 . S
H115 C93 0.929 . S
H116 C121 0.931 . S
H117 C122 0.930 . S
N118 Gd98 2.622 . S
N118 C119 1.369 . S
N118 C120 1.338 . S
C119 N118 1.369 . S
C119 C123 1.415 . S
C119 C126 1.422 . S
C120 H111 0.929 . S
C120 N118 1.338 . S
C120 C122 1.378 . S
C121 H116 0.931 . S
C121 C122 1.348 . S
C121 C123 1.413 . S
C122 H117 0.930 . S
C122 C120 1.378 . S
C122 C121 1.348 . S
C123 C119 1.415 . S
C123 C121 1.413 . S
C123 C153 1.437 . S
H124 C153 0.929 . S
N125 Gd98 2.570 . S
N125 C126 1.359 . S
N125 C129 1.343 . S
C126 C119 1.422 . S
C126 N125 1.359 . S
C126 C128 1.421 . S
C127 C128 1.422 . S
C127 C130 1.321 . S
C127 H154 0.931 . S
C128 C126 1.421 . S
C128 C127 1.422 . S
C128 C152 1.417 . S
C129 H106 0.931 . S
C129 N125 1.343 . S
C129 C130 1.390 . S
C130 H108 0.930 . S
C130 C127 1.321 . S
C130 C129 1.390 . S
O131 Gd99 2.386 . S
O131 C143 1.265 . S
O132 Gd98 2.353 . S
O132 C143 1.242 1_455 S
O133 Gd98 2.468 . S
O133 C151 1.263 . S
O134 Gd98 2.427 . S
O134 C151 1.252 . S
O135 Gd99 2.307 1_455 S
O135 C144 1.261 . S
O136 Gd98 2.388 . S
O136 C144 1.252 . S
O137 Gd98 2.386 . S
O137 C155 1.265 . S
O138 Gd99 2.353 1_455 S
O138 C155 1.242 . S
O139 Gd99 2.468 . S
O139 C163 1.263 . S
O140 Gd99 2.427 . S
O140 C163 1.252 . S
O141 Gd98 2.307 . S
O141 C156 1.261 1_455 S
O142 Gd99 2.388 . S
O142 C156 1.252 . S
C143 O131 1.265 . S
C143 O132 1.242 1_655 S
C144 O135 1.261 . S
C144 O136 1.252 . S
C145 C148 1.394 . S
C145 C150 1.370 . S
C145 C151 1.500 . S
C146 C149 1.383 . S
C146 C150 1.395 . S
C147 C148 1.396 . S
C147 C149 1.365 . S
C147 H164 0.929 . S
C148 C145 1.394 . S
C148 C147 1.396 . S
C148 H165 0.930 . S
C149 C146 1.383 . S
C149 C147 1.365 . S
C149 H166 0.931 . S
C150 C145 1.370 . S
C150 C146 1.395 . S
C150 H167 0.930 . S
C151 Gd98 2.805 . S
C151 O133 1.263 . S
C151 O134 1.252 . S
C151 C145 1.500 . S
C152 H114 0.930 . S
C152 C128 1.417 . S
C152 C153 1.329 . S
C153 C123 1.437 . S
C153 H124 0.929 . S
C153 C152 1.329 . S
H154 C127 0.931 . S
C155 O137 1.265 . S
C155 O138 1.242 . S
C156 O141 1.261 1_655 S
C156 O142 1.252 . S
C157 C160 1.394 . S
C157 C162 1.370 . S
C157 C163 1.500 . S
C158 C161 1.383 . S
C158 C162 1.395 . S
C159 C160 1.396 . S
C159 C161 1.365 . S
C159 H168 0.929 . S
C160 C157 1.394 . S
C160 C159 1.396 . S
C160 H169 0.930 . S
C161 C158 1.383 . S
C161 C159 1.365 . S
C161 H170 0.931 . S
C162 C157 1.370 . S
C162 C158 1.395 . S
C162 H171 0.930 . S
C163 Gd99 2.805 . S
C163 O139 1.263 . S
C163 O140 1.252 . S
C163 C157 1.500 . S
H164 C147 0.929 . S
H165 C148 0.930 . S
H166 C149 0.931 . S
H167 C150 0.930 . S
H168 C159 0.929 . S
H169 C160 0.930 . S
H170 C161 0.931 . S
H171 C162 0.930 . S
C172 C174 1.422 . S
C172 C176 1.415 . S
C172 N178 1.369 . S
C173 C174 1.421 . S
C173 C175 1.417 . S
C173 C185 1.422 . S
C174 C172 1.422 . S
C174 C173 1.421 . S
C174 N184 1.359 . S
C175 C173 1.417 . S
C175 C177 1.329 . S
C175 H194 0.930 . S
C176 C172 1.415 . S
C176 C177 1.437 . S
C176 C180 1.413 . S
C177 C175 1.329 . S
C177 C176 1.437 . S
C177 H199 0.929 . S
N178 C172 1.369 . S
N178 C179 1.338 . S
N178 Gd183 2.622 . S
C179 N178 1.338 . S
C179 C181 1.378 . S
C179 H191 0.929 . S
C180 C176 1.413 . S
C180 C181 1.348 . S
C180 H196 0.931 . S
C181 C179 1.378 . S
C181 C180 1.348 . S
C181 H197 0.930 . S
Gd182 N202 2.622 . S
Gd182 N209 2.570 . S
Gd182 O216 2.353 . S
Gd182 O217 2.468 . S
Gd182 O218 2.427 . S
Gd182 O220 2.388 . S
Gd182 O221 2.386 . S
Gd182 O225 2.307 . S
Gd182 C235 2.805 . S
Gd183 N178 2.622 . S
Gd183 N184 2.570 . S
Gd183 O215 2.386 . S
Gd183 O219 2.307 . S
Gd183 O222 2.353 . S
Gd183 O223 2.468 . S
Gd183 O224 2.427 . S
Gd183 O226 2.388 . S
Gd183 C247 2.805 . S
N184 C174 1.359 . S
N184 Gd183 2.570 . S
N184 C186 1.343 . S
C185 C173 1.422 . S
C185 C187 1.321 . S
C185 H193 0.931 . S
C186 N184 1.343 . S
C186 C187 1.390 . S
C186 H188 0.931 . S
C187 C185 1.321 . S
C187 C186 1.390 . S
C187 H189 0.930 . S
H188 C186 0.931 . S
H189 C187 0.930 . S
H190 C213 0.931 . S
H191 C179 0.929 . S
H192 C214 0.930 . S
H193 C185 0.931 . S
H194 C175 0.930 . S
H195 C204 0.929 . S
H196 C180 0.931 . S
H197 C181 0.930 . S
H198 C236 0.930 . S
H199 C177 0.929 . S
H200 C205 0.931 . S
H201 C206 0.930 . S
N202 Gd182 2.622 . S
N202 C203 1.369 . S
N202 C204 1.338 . S
C203 N202 1.369 . S
C203 C207 1.415 . S
C203 C210 1.422 . S
C204 H195 0.929 . S
C204 N202 1.338 . S
C204 C206 1.378 . S
C205 H200 0.931 . S
C205 C206 1.348 . S
C205 C207 1.413 . S
C206 H201 0.930 . S
C206 C204 1.378 . S
C206 C205 1.348 . S
C207 C203 1.415 . S
C207 C205 1.413 . S
C207 C237 1.437 . S
H208 C237 0.929 . S
N209 Gd182 2.570 . S
N209 C210 1.359 . S
N209 C213 1.343 . S
C210 C203 1.422 . S
C210 N209 1.359 . S
C210 C212 1.421 . S
C211 C212 1.422 . S
C211 C214 1.321 . S
C211 H238 0.931 . S
C212 C210 1.421 . S
C212 C211 1.422 . S
C212 C236 1.417 . S
C213 H190 0.931 . S
C213 N209 1.343 . S
C213 C214 1.390 . S
C214 H192 0.930 . S
C214 C211 1.321 . S
C214 C213 1.390 . S
O215 Gd183 2.386 . S
O215 C227 1.265 . S
O216 Gd182 2.353 . S
O216 C227 1.242 . S
O217 Gd182 2.468 . S
O217 C235 1.263 . S
O218 Gd182 2.427 . S
O218 C235 1.252 . S
O219 Gd183 2.307 . S
O219 C228 1.261 . S
O220 Gd182 2.388 . S
O220 C228 1.252 . S
O221 Gd182 2.386 . S
O221 C239 1.265 . S
O222 Gd183 2.353 . S
O222 C239 1.242 . S
O223 Gd183 2.468 . S
O223 C247 1.263 . S
O224 Gd183 2.427 . S
O224 C247 1.252 . S
O225 Gd182 2.307 . S
O225 C240 1.261 . S
O226 Gd183 2.388 . S
O226 C240 1.252 . S
C227 O215 1.265 . S
C227 O216 1.242 . S
C228 O219 1.261 . S
C228 O220 1.252 . S
C229 C232 1.394 . S
C229 C234 1.370 . S
C229 C235 1.500 . S
C230 C233 1.383 . S
C230 C234 1.395 . S
C231 C232 1.396 . S
C231 C233 1.365 . S
C231 H248 0.929 . S
C232 C229 1.394 . S
C232 C231 1.396 . S
C232 H249 0.930 . S
C233 C230 1.383 . S
C233 C231 1.365 . S
C233 H250 0.931 . S
C234 C229 1.370 . S
C234 C230 1.395 . S
C234 H251 0.930 . S
C235 Gd182 2.805 . S
C235 O217 1.263 . S
C235 O218 1.252 . S
C235 C229 1.500 . S
C236 H198 0.930 . S
C236 C212 1.417 . S
C236 C237 1.329 . S
C237 C207 1.437 . S
C237 H208 0.929 . S
C237 C236 1.329 . S
H238 C211 0.931 . S
C239 O221 1.265 . S
C239 O222 1.242 . S
C240 O225 1.261 . S
C240 O226 1.252 . S
C241 C244 1.394 . S
C241 C246 1.370 . S
C241 C247 1.500 . S
C242 C245 1.383 . S
C242 C246 1.395 . S
C243 C244 1.396 . S
C243 C245 1.365 . S
C243 H252 0.929 . S
C244 C241 1.394 . S
C244 C243 1.396 . S
C244 H253 0.930 . S
C245 C242 1.383 . S
C245 C243 1.365 . S
C245 H254 0.931 . S
C246 C241 1.370 . S
C246 C242 1.395 . S
C246 H255 0.930 . S
C247 Gd183 2.805 . S
C247 O223 1.263 . S
C247 O224 1.252 . S
C247 C241 1.500 . S
H248 C231 0.929 . S
H249 C232 0.930 . S
H250 C233 0.931 . S
H251 C234 0.930 . S
H252 C243 0.929 . S
H253 C244 0.930 . S
H254 C245 0.931 . S
H255 C246 0.930 . S
C256 C258 1.422 . S
C256 C260 1.415 . S
C256 N262 1.369 . S
C257 C258 1.421 . S
C257 C259 1.417 . S
C257 C269 1.422 . S
C258 C256 1.422 . S
C258 C257 1.421 . S
C258 N268 1.359 . S
C259 C257 1.417 . S
C259 C261 1.329 . S
C259 H278 0.930 . S
C260 C256 1.415 . S
C260 C261 1.437 . S
C260 C264 1.413 . S
C261 C259 1.329 . S
C261 C260 1.437 . S
C261 H283 0.929 . S
N262 C256 1.369 . S
N262 C263 1.338 . S
N262 Gd267 2.622 . S
C263 N262 1.338 . S
C263 C265 1.378 . S
C263 H275 0.929 . S
C264 C260 1.413 . S
C264 C265 1.348 . S
C264 H280 0.931 . S
C265 C263 1.378 . S
C265 C264 1.348 . S
C265 H281 0.930 . S
Gd266 N286 2.622 . S
Gd266 N293 2.570 . S
Gd266 O300 2.353 1_455 S
Gd266 O301 2.468 . S
Gd266 O302 2.427 . S
Gd266 O304 2.388 . S
Gd266 O305 2.386 . S
Gd266 O309 2.292 1_455 S
Gd266 C319 2.805 . S
Gd267 N262 2.622 . S
Gd267 N268 2.570 . S
Gd267 O299 2.386 . S
Gd267 O303 2.307 1_655 S
Gd267 O306 2.353 1_655 S
Gd267 O307 2.468 . S
Gd267 O308 2.427 . S
Gd267 O310 2.388 . S
Gd267 C331 2.805 . S
N268 C258 1.359 . S
N268 Gd267 2.570 . S
N268 C270 1.343 . S
C269 C257 1.422 . S
C269 C271 1.321 . S
C269 H277 0.931 . S
C270 N268 1.343 . S
C270 C271 1.390 . S
C270 H272 0.931 . S
C271 C269 1.321 . S
C271 C270 1.390 . S
C271 H273 0.930 . S
H272 C270 0.931 . S
H273 C271 0.930 . S
H274 C297 0.931 . S
H275 C263 0.929 . S
H276 C298 0.930 . S
H277 C269 0.931 . S
H278 C259 0.930 . S
H279 C288 0.929 . S
H280 C264 0.931 . S
H281 C265 0.930 . S
H282 C320 0.930 1_545 S
H283 C261 0.929 . S
H284 C289 0.931 . S
H285 C290 0.930 . S
N286 Gd266 2.622 . S
N286 C287 1.369 . S
N286 C288 1.338 . S
C287 N286 1.369 . S
C287 C291 1.415 . S
C287 C294 1.422 . S
C288 H279 0.929 . S
C288 N286 1.338 . S
C288 C290 1.378 . S
C289 H284 0.931 . S
C289 C290 1.348 . S
C289 C291 1.413 . S
C290 H285 0.930 . S
C290 C288 1.378 . S
C290 C289 1.348 . S
C291 C287 1.415 . S
C291 C289 1.413 . S
C291 C321 1.437 . S
H292 C321 0.929 . S
N293 Gd266 2.570 . S
N293 C294 1.359 . S
N293 C297 1.343 . S
C294 C287 1.422 . S
C294 N293 1.359 . S
C294 C296 1.421 . S
C295 C296 1.422 1_545 S
C295 C298 1.321 . S
C295 H322 0.931 . S
C296 C294 1.421 . S
C296 C295 1.422 1_565 S
C296 C320 1.417 . S
C297 H274 0.931 . S
C297 N293 1.343 . S
C297 C298 1.390 1_565 S
C298 H276 0.930 . S
C298 C295 1.321 . S
C298 C297 1.390 1_545 S
O299 Gd267 2.386 . S
O299 C311 1.265 . S
O300 Gd266 2.353 1_655 S
O300 C311 1.242 . S
O301 Gd266 2.468 . S
O301 C319 1.263 . S
O302 Gd266 2.427 . S
O302 C319 1.252 . S
O303 Gd267 2.307 1_455 S
O303 C312 1.261 . S
O304 Gd266 2.388 . S
O304 C312 1.252 . S
O305 Gd266 2.386 . S
O305 C323 1.265 . S
O306 Gd267 2.353 1_455 S
O306 C323 1.242 . S
O307 Gd267 2.468 . S
O307 C331 1.263 . S
O308 Gd267 2.427 . S
O308 C331 1.252 . S
O309 Gd266 2.292 1_655 S
O309 C324 1.279 . S
O310 Gd267 2.388 . S
O310 C324 1.252 . S
C311 O299 1.265 . S
C311 O300 1.242 . S
C312 O303 1.261 . S
C312 O304 1.252 . S
C313 C316 1.394 . S
C313 C318 1.370 . S
C313 C319 1.500 . S
C314 C317 1.383 . S
C314 C318 1.395 . S
C315 C316 1.396 . S
C315 C317 1.365 . S
C315 H332 0.929 . S
C316 C313 1.394 . S
C316 C315 1.396 . S
C316 H333 0.930 . S
C317 C314 1.383 . S
C317 C315 1.365 . S
C317 H334 0.931 . S
C318 C313 1.370 . S
C318 C314 1.395 . S
C318 H335 0.930 . S
C319 Gd266 2.805 . S
C319 O301 1.263 . S
C319 O302 1.252 . S
C319 C313 1.500 . S
C320 H282 0.930 1_565 S
C320 C296 1.417 . S
C320 C321 1.329 . S
C321 C291 1.437 . S
C321 H292 0.929 . S
C321 C320 1.329 . S
H322 C295 0.931 . S
C323 O305 1.265 . S
C323 O306 1.242 . S
C324 O309 1.279 . S
C324 O310 1.252 . S
C325 C328 1.394 . S
C325 C330 1.370 . S
C325 C331 1.500 . S
C326 C329 1.383 . S
C326 C330 1.395 . S
C327 C328 1.396 . S
C327 C329 1.365 . S
C327 H336 0.929 . S
C328 C325 1.394 . S
C328 C327 1.396 . S
C328 H337 0.930 . S
C329 C326 1.383 . S
C329 C327 1.365 . S
C329 H338 0.931 . S
C330 C325 1.370 . S
C330 C326 1.395 . S
C330 H339 0.930 . S
C331 Gd267 2.805 . S
C331 O307 1.263 . S
C331 O308 1.252 . S
C331 C325 1.500 . S
H332 C315 0.929 . S
H333 C316 0.930 . S
H334 C317 0.931 . S
H335 C318 0.930 . S
H336 C327 0.929 . S
H337 C328 0.930 . S
H338 C329 0.931 . S
H339 C330 0.930 . S
C340 C342 1.422 . S
C340 C344 1.415 . S
C340 N346 1.369 . S
C341 C342 1.421 . S
C341 C343 1.417 . S
C341 C353 1.422 . S
C342 C340 1.422 . S
C342 C341 1.421 . S
C342 N352 1.359 . S
C343 C341 1.417 . S
C343 C345 1.329 . S
C343 H362 0.930 . S
C344 C340 1.415 . S
C344 C345 1.437 . S
C344 C348 1.413 . S
C345 C343 1.329 . S
C345 C344 1.437 . S
C345 H367 0.929 . S
N346 C340 1.369 . S
N346 C347 1.338 . S
N346 Gd351 2.622 . S
C347 N346 1.338 . S
C347 C349 1.378 . S
C347 H359 0.929 . S
C348 C344 1.413 . S
C348 C349 1.348 . S
C348 H364 0.931 . S
C349 C347 1.378 . S
C349 C348 1.348 . S
C349 H365 0.930 . S
Gd350 N370 2.622 . S
Gd350 N377 2.570 . S
Gd350 O384 2.353 . S
Gd350 O385 2.468 . S
Gd350 O386 2.427 . S
Gd350 O388 2.388 . S
Gd350 O389 2.386 . S
Gd350 O393 2.307 . S
Gd350 C403 2.805 . S
Gd351 N346 2.622 . S
Gd351 N352 2.570 . S
Gd351 O383 2.386 . S
Gd351 O387 2.307 . S
Gd351 O390 2.353 . S
Gd351 O391 2.468 . S
Gd351 O392 2.427 . S
Gd351 O394 2.388 . S
Gd351 C415 2.805 . S
N352 C342 1.359 . S
N352 Gd351 2.570 . S
N352 C354 1.343 . S
C353 C341 1.422 . S
C353 C355 1.321 . S
C353 H361 0.931 . S
C354 N352 1.343 . S
C354 C355 1.390 . S
C354 H356 0.931 . S
C355 C353 1.321 . S
C355 C354 1.390 . S
C355 H357 0.930 . S
H356 C354 0.931 . S
H357 C355 0.930 . S
H358 C381 0.931 . S
H359 C347 0.929 . S
H360 C382 0.930 . S
H361 C353 0.931 . S
H362 C343 0.930 . S
H363 C372 0.929 . S
H364 C348 0.931 . S
H365 C349 0.930 . S
H366 C404 0.930 . S
H367 C345 0.929 . S
H368 C373 0.931 . S
H369 C374 0.930 . S
N370 Gd350 2.622 . S
N370 C371 1.369 . S
N370 C372 1.338 . S
C371 N370 1.369 . S
C371 C375 1.415 . S
C371 C378 1.422 . S
C372 H363 0.929 . S
C372 N370 1.338 . S
C372 C374 1.378 . S
C373 H368 0.931 . S
C373 C374 1.348 . S
C373 C375 1.413 . S
C374 H369 0.930 . S
C374 C372 1.378 . S
C374 C373 1.348 . S
C375 C371 1.415 . S
C375 C373 1.413 . S
C375 C405 1.437 . S
H376 C405 0.929 . S
N377 Gd350 2.570 . S
N377 C378 1.359 . S
N377 C381 1.343 . S
C378 C371 1.422 . S
C378 N377 1.359 . S
C378 C380 1.421 . S
C379 C380 1.422 . S
C379 C382 1.321 . S
C379 H406 0.931 . S
C380 C378 1.421 . S
C380 C379 1.422 . S
C380 C404 1.417 . S
C381 H358 0.931 . S
C381 N377 1.343 . S
C381 C382 1.390 . S
C382 H360 0.930 . S
C382 C379 1.321 . S
C382 C381 1.390 . S
O383 Gd351 2.386 . S
O383 C395 1.265 . S
O384 Gd350 2.353 . S
O384 C395 1.242 . S
O385 Gd350 2.468 . S
O385 C403 1.263 . S
O386 Gd350 2.427 . S
O386 C403 1.252 . S
O387 Gd351 2.307 . S
O387 C396 1.261 . S
O388 Gd350 2.388 . S
O388 C396 1.252 . S
O389 Gd350 2.386 . S
O389 C407 1.265 . S
O390 Gd351 2.353 . S
O390 C407 1.242 . S
O391 Gd351 2.468 . S
O391 C415 1.263 . S
O392 Gd351 2.427 . S
O392 C415 1.252 . S
O393 Gd350 2.307 . S
O393 C408 1.261 . S
O394 Gd351 2.388 . S
O394 C408 1.252 . S
C395 O383 1.265 . S
C395 O384 1.242 . S
C396 O387 1.261 . S
C396 O388 1.252 . S
C397 C400 1.394 . S
C397 C402 1.370 . S
C397 C403 1.500 . S
C398 C401 1.383 . S
C398 C402 1.395 . S
C399 C400 1.396 . S
C399 C401 1.365 . S
C399 H416 0.929 . S
C400 C397 1.394 . S
C400 C399 1.396 . S
C400 H417 0.930 . S
C401 C398 1.383 . S
C401 C399 1.365 . S
C401 H418 0.931 . S
C402 C397 1.370 . S
C402 C398 1.395 . S
C402 H419 0.930 . S
C403 Gd350 2.805 . S
C403 O385 1.263 . S
C403 O386 1.252 . S
C403 C397 1.500 . S
C404 H366 0.930 . S
C404 C380 1.417 . S
C404 C405 1.329 . S
C405 C375 1.437 . S
C405 H376 0.929 . S
C405 C404 1.329 . S
H406 C379 0.931 . S
C407 O389 1.265 . S
C407 O390 1.242 . S
C408 O393 1.261 . S
C408 O394 1.252 . S
C409 C412 1.394 . S
C409 C414 1.370 . S
C409 C415 1.500 . S
C410 C413 1.383 . S
C410 C414 1.395 . S
C411 C412 1.396 . S
C411 C413 1.365 . S
C411 H420 0.929 . S
C412 C409 1.394 . S
C412 C411 1.396 . S
C412 H421 0.930 . S
C413 C410 1.383 . S
C413 C411 1.365 . S
C413 H422 0.931 . S
C414 C409 1.370 . S
C414 C410 1.395 . S
C414 H423 0.930 . S
C415 Gd351 2.805 . S
C415 O391 1.263 . S
C415 O392 1.252 . S
C415 C409 1.500 . S
H416 C399 0.929 . S
H417 C400 0.930 . S
H418 C401 0.931 . S
H419 C402 0.930 . S
H420 C411 0.929 . S
H421 C412 0.930 . S
H422 C413 0.931 . S
H423 C414 0.930 . S
H424 C430 0.930 . S
H425 C433 0.930 . S
H426 C434 0.930 . S
H427 C435 0.927 1_545 S
H428 C438 0.930 . S
H429 C439 0.930 . S
C430 H424 0.930 . S
C430 C431 1.355 . S
C430 C432 1.415 . S
C431 C430 1.355 . S
C431 C433 1.419 . S
C432 C430 1.415 . S
C432 C437 1.425 . S
C432 C439 1.409 . S
C433 H425 0.930 . S
C433 C431 1.419 . S
C433 C434 1.362 . S
C434 H426 0.930 . S
C434 C433 1.362 . S
C434 C437 1.409 . S
C435 H427 0.927 1_565 S
C435 C436 1.347 1_565 S
C435 C437 1.425 . S
C436 C435 1.347 1_545 S
C436 C438 1.419 . S
C437 C432 1.425 . S
C437 C434 1.409 . S
C437 C435 1.425 . S
C438 H428 0.930 . S
C438 C436 1.419 . S
C438 C439 1.362 1_545 S
C439 H429 0.930 . S
C439 C432 1.409 . S
C439 C438 1.362 1_565 S
H440 C446 0.930 . S
H441 C449 0.930 . S
H442 C450 0.930 . S
H443 C451 0.930 . S
H444 C454 0.930 . S
H445 C455 0.930 . S
C446 H440 0.930 . S
C446 C447 1.355 . S
C446 C448 1.415 . S
C447 C446 1.355 . S
C447 C449 1.419 . S
C448 C446 1.415 . S
C448 C453 1.425 . S
C448 C455 1.409 . S
C449 H441 0.930 . S
C449 C447 1.419 . S
C449 C450 1.362 . S
C450 H442 0.930 . S
C450 C449 1.362 . S
C450 C453 1.409 . S
C451 H443 0.930 . S
C451 C452 1.355 . S
C451 C453 1.415 . S
C452 C451 1.355 . S
C452 C454 1.419 . S
C453 C448 1.425 . S
C453 C450 1.409 . S
C453 C451 1.415 . S
C454 H444 0.930 . S
C454 C452 1.419 . S
C454 C455 1.362 . S
C455 H445 0.930 . S
C455 C448 1.409 . S
C455 C454 1.362 . S
H456 C462 0.930 . S
H457 C465 0.930 . S
H458 C466 0.930 . S
H459 C467 0.930 . S
H460 C470 0.930 . S
H461 C471 0.930 . S
C462 H456 0.930 . S
C462 C463 1.355 . S
C462 C464 1.415 . S
C463 C462 1.355 . S
C463 C465 1.419 . S
C464 C462 1.415 . S
C464 C469 1.425 . S
C464 C471 1.409 . S
C465 H457 0.930 . S
C465 C463 1.419 . S
C465 C466 1.362 . S
C466 H458 0.930 . S
C466 C465 1.362 . S
C466 C469 1.409 . S
C467 H459 0.930 . S
C467 C468 1.355 . S
C467 C469 1.415 . S
C468 C467 1.355 . S
C468 C470 1.419 . S
C469 C464 1.425 . S
C469 C466 1.409 . S
C469 C467 1.415 . S
C470 H460 0.930 . S
C470 C468 1.419 . S
C470 C471 1.362 . S
C471 H461 0.930 . S
C471 C464 1.409 . S
C471 C470 1.362 . S
H472 C478 0.930 . S
H473 C481 0.930 . S
H474 C482 0.930 . S
H475 C483 0.930 . S
H476 C486 0.930 . S
H477 C487 0.932 . S
C478 H472 0.930 . S
C478 C479 1.355 . S
C478 C480 1.415 . S
C479 C478 1.355 . S
C479 C481 1.419 . S
C480 C478 1.415 . S
C480 C485 1.425 . S
C480 C487 1.425 . S
C481 H473 0.930 . S
C481 C479 1.419 . S
C481 C482 1.362 . S
C482 H474 0.930 . S
C482 C481 1.362 . S
C482 C485 1.409 . S
C483 H475 0.930 . S
C483 C484 1.355 . S
C483 C485 1.415 1_545 S
C484 C483 1.355 . S
C484 C486 1.419 . S
C485 C480 1.425 . S
C485 C482 1.409 . S
C485 C483 1.415 1_565 S
C486 H476 0.930 . S
C486 C484 1.419 . S
C486 C487 1.345 1_545 S
C487 H477 0.932 . S
C487 C480 1.425 . S
C487 C486 1.345 1_565 S
H488 C494 0.930 . S
H489 C497 0.930 . S
H490 C498 0.930 . S
H491 C499 0.930 . S
H492 C502 0.930 . S
H493 C503 0.930 . S
C494 H488 0.930 . S
C494 C495 1.355 . S
C494 C496 1.415 . S
C495 C494 1.355 . S
C495 C497 1.419 . S
C496 C494 1.415 . S
C496 C501 1.425 . S
C496 C503 1.409 . S
C497 H489 0.930 . S
C497 C495 1.419 . S
C497 C498 1.362 . S
C498 H490 0.930 . S
C498 C497 1.362 . S
C498 C501 1.409 . S
C499 H491 0.930 . S
C499 C500 1.355 . S
C499 C501 1.415 1_565 S
C500 C499 1.355 . S
C500 C502 1.419 . S
C501 C496 1.425 . S
C501 C498 1.409 . S
C501 C499 1.415 1_545 S
C502 H492 0.930 . S
C502 C500 1.419 . S
C502 C503 1.362 1_565 S
C503 H493 0.930 . S
C503 C496 1.409 . S
C503 C502 1.362 1_545 S
H504 C510 0.930 . S
H505 C513 0.930 . S
H506 C514 0.930 . S
H507 C515 0.930 . S
H508 C518 0.930 . S
H509 C519 0.930 . S
C510 H504 0.930 . S
C510 C511 1.355 . S
C510 C512 1.415 . S
C511 C510 1.355 . S
C511 C513 1.419 . S
C512 C510 1.415 . S
C512 C517 1.425 . S
C512 C519 1.409 . S
C513 H505 0.930 . S
C513 C511 1.419 . S
C513 C514 1.362 . S
C514 H506 0.930 . S
C514 C513 1.362 . S
C514 C517 1.409 . S
C515 H507 0.930 . S
C515 C516 1.355 . S
C515 C517 1.415 . S
C516 C515 1.355 . S
C516 C518 1.419 . S
C517 C512 1.425 . S
C517 C514 1.409 . S
C517 C515 1.415 . S
C518 H508 0.930 . S
C518 C516 1.419 . S
C518 C519 1.362 . S
C519 H509 0.930 . S
C519 C512 1.409 . S
C519 C518 1.362 . S
H520 C526 0.930 . S
H521 C529 0.930 . S
H522 C530 0.930 . S
H523 C531 0.930 . S
H524 C534 0.930 . S
H525 C535 0.930 . S
C526 H520 0.930 . S
C526 C527 1.355 . S
C526 C528 1.415 . S
C527 C526 1.355 . S
C527 C529 1.419 . S
C528 C526 1.415 . S
C528 C533 1.425 . S
C528 C535 1.409 . S
C529 H521 0.930 . S
C529 C527 1.419 . S
C529 C530 1.362 . S
C530 H522 0.930 . S
C530 C529 1.362 . S
C530 C533 1.409 . S
C531 H523 0.930 . S
C531 C532 1.355 . S
C531 C533 1.415 . S
C532 C531 1.355 . S
C532 C534 1.419 . S
C533 C528 1.425 . S
C533 C530 1.409 . S
C533 C531 1.415 . S
C534 H524 0.930 . S
C534 C532 1.419 . S
C534 C535 1.362 . S
C535 H525 0.930 . S
C535 C528 1.409 . S
C535 C534 1.362 . S
H536 C542 0.930 . S
H537 C545 0.930 . S
H538 C546 0.930 . S
H539 C547 0.930 . S
H540 C550 0.930 . S
H541 C551 0.930 . S
C542 H536 0.930 . S
C542 C543 1.355 . S
C542 C544 1.415 . S
C543 C542 1.355 . S
C543 C545 1.419 . S
C544 C542 1.415 . S
C544 C549 1.425 . S
C544 C551 1.409 . S
C545 H537 0.930 . S
C545 C543 1.419 . S
C545 C546 1.362 . S
C546 H538 0.930 . S
C546 C545 1.362 . S
C546 C549 1.409 . S
C547 H539 0.930 . S
C547 C548 1.355 . S
C547 C549 1.415 1_565 S
C548 C547 1.355 . S
C548 C550 1.419 . S
C549 C544 1.425 . S
C549 C546 1.409 . S
C549 C547 1.415 1_545 S
C550 H540 0.930 . S
C550 C548 1.419 . S
C550 C551 1.362 1_565 S
C551 H541 0.930 . S
C551 C544 1.409 . S
C551 C550 1.362 1_545 S
H552 C558 0.930 . S
H553 C561 0.930 . S
H554 C562 0.931 1_554 S
H555 C563 0.930 . S
H556 C566 0.930 . S
H557 C567 0.930 . S
C558 H552 0.930 . S
C558 C559 1.355 . S
C558 C560 1.415 1_556 S
C559 C558 1.355 . S
C559 C561 1.419 . S
C560 C558 1.415 1_554 S
C560 C565 1.425 . S
C560 C567 1.409 . S
C561 H553 0.930 . S
C561 C559 1.419 . S
C561 C562 1.361 . S
C562 H554 0.931 1_556 S
C562 C561 1.361 . S
C562 C565 1.410 1_556 S
C563 H555 0.930 . S
C563 C564 1.355 . S
C563 C565 1.415 . S
C564 C563 1.355 . S
C564 C566 1.419 . S
C565 C560 1.425 . S
C565 C562 1.410 1_554 S
C565 C563 1.415 . S
C566 H556 0.930 . S
C566 C564 1.419 . S
C566 C567 1.362 . S
C567 H557 0.930 . S
C567 C560 1.409 . S
C567 C566 1.362 . S
H568 C574 0.930 . S
H569 C577 0.930 . S
H570 C578 0.930 . S
H571 C579 0.930 . S
H572 C582 0.930 . S
H573 C583 0.930 . S
C574 H568 0.930 . S
C574 C575 1.355 . S
C574 C576 1.415 . S
C575 C574 1.355 . S
C575 C577 1.419 . S
C576 C574 1.415 . S
C576 C581 1.425 . S
C576 C583 1.409 . S
C577 H569 0.930 . S
C577 C575 1.419 . S
C577 C578 1.362 . S
C578 H570 0.930 . S
C578 C577 1.362 . S
C578 C581 1.409 . S
C579 H571 0.930 . S
C579 C580 1.355 . S
C579 C581 1.415 . S
C580 C579 1.355 . S
C580 C582 1.419 . S
C581 C576 1.425 . S
C581 C578 1.409 . S
C581 C579 1.415 . S
C582 H572 0.930 . S
C582 C580 1.419 . S
C582 C583 1.362 . S
C583 H573 0.930 . S
C583 C576 1.409 . S
C583 C582 1.362 . S
H584 C590 0.930 . S
H585 C593 0.930 . S
H586 C594 0.930 . S
H587 C595 0.930 . S
H588 C598 0.930 . S
H589 C599 0.930 . S
C590 H584 0.930 . S
C590 C591 1.355 . S
C590 C592 1.415 1_554 S
C591 C590 1.355 . S
C591 C593 1.419 . S
C592 C590 1.415 1_556 S
C592 C597 1.425 . S
C592 C599 1.409 . S
C593 H585 0.930 . S
C593 C591 1.419 . S
C593 C594 1.362 . S
C594 H586 0.930 . S
C594 C593 1.362 . S
C594 C597 1.409 1_554 S
C595 H587 0.930 . S
C595 C596 1.355 . S
C595 C597 1.415 . S
C596 C595 1.355 . S
C596 C598 1.419 . S
C597 C592 1.425 . S
C597 C594 1.409 1_556 S
C597 C595 1.415 . S
C598 H588 0.930 . S
C598 C596 1.419 . S
C598 C599 1.362 . S
C599 H589 0.930 . S
C599 C592 1.409 . S
C599 C598 1.362 . S
H600 C606 0.930 . S
H601 C609 0.930 . S
H602 C610 0.930 . S
H603 C611 0.930 . S
H604 C614 0.930 . S
H605 C615 0.930 . S
C606 H600 0.930 . S
C606 C607 1.355 . S
C606 C608 1.415 . S
C607 C606 1.355 . S
C607 C609 1.419 . S
C608 C606 1.415 . S
C608 C613 1.425 . S
C608 C615 1.409 . S
C609 H601 0.930 . S
C609 C607 1.419 . S
C609 C610 1.362 . S
C610 H602 0.930 . S
C610 C609 1.362 . S
C610 C613 1.409 . S
C611 H603 0.930 . S
C611 C612 1.355 . S
C611 C613 1.415 . S
C612 C611 1.355 . S
C612 C614 1.419 . S
C613 C608 1.425 . S
C613 C610 1.409 . S
C613 C611 1.415 . S
C614 H604 0.930 . S
C614 C612 1.419 . S
C614 C615 1.362 . S
C615 H605 0.930 . S
C615 C608 1.409 . S
C615 C614 1.362 . S
H616 C622 0.930 . S
H617 C625 0.930 . S
H618 C626 0.930 . S
H619 C627 0.930 . S
H620 C630 0.930 . S
H621 C631 0.930 . S
C622 H616 0.930 . S
C622 C623 1.355 . S
C622 C624 1.415 1_554 S
C623 C622 1.355 . S
C623 C625 1.419 . S
C624 C622 1.415 1_556 S
C624 C629 1.425 . S
C624 C631 1.409 . S
C625 H617 0.930 . S
C625 C623 1.419 . S
C625 C626 1.362 . S
C626 H618 0.930 . S
C626 C625 1.362 . S
C626 C629 1.409 1_554 S
C627 H619 0.930 . S
C627 C628 1.355 . S
C627 C629 1.415 . S
C628 C627 1.355 . S
C628 C630 1.419 . S
C629 C624 1.425 . S
C629 C626 1.409 1_556 S
C629 C627 1.415 . S
C630 H620 0.930 . S
C630 C628 1.419 . S
C630 C631 1.362 . S
C631 H621 0.930 . S
C631 C624 1.409 . S
C631 C630 1.362 . S
H632 C638 0.930 . S
H633 C641 0.930 . S
H634 C642 0.930 . S
H635 C643 0.930 . S
H636 C646 0.930 . S
H637 C647 0.930 . S
C638 H632 0.930 . S
C638 C639 1.355 . S
C638 C640 1.415 . S
C639 C638 1.355 . S
C639 C641 1.419 . S
C640 C638 1.415 . S
C640 C645 1.425 . S
C640 C647 1.409 . S
C641 H633 0.930 . S
C641 C639 1.419 . S
C641 C642 1.362 . S
C642 H634 0.930 . S
C642 C641 1.362 . S
C642 C645 1.409 . S
C643 H635 0.930 . S
C643 C644 1.355 . S
C643 C645 1.415 . S
C644 C643 1.355 . S
C644 C646 1.419 . S
C645 C640 1.425 . S
C645 C642 1.409 . S
C645 C643 1.415 . S
C646 H636 0.930 . S
C646 C644 1.419 . S
C646 C647 1.362 . S
C647 H637 0.930 . S
C647 C640 1.409 . S
C647 C646 1.362 . S
H648 C654 0.930 . S
H649 C657 0.930 . S
H650 C658 0.930 . S
H651 C659 0.930 . S
H652 C662 0.930 . S
H653 C663 0.930 1_556 S
C654 H648 0.930 . S
C654 C655 1.355 . S
C654 C656 1.415 . S
C655 C654 1.355 . S
C655 C657 1.419 . S
C656 C654 1.415 . S
C656 C661 1.425 1_556 S
C656 C663 1.409 1_556 S
C657 H649 0.930 . S
C657 C655 1.419 . S
C657 C658 1.362 1_556 S
C658 H650 0.930 . S
C658 C657 1.362 1_554 S
C658 C661 1.409 . S
C659 H651 0.930 . S
C659 C660 1.355 . S
C659 C661 1.415 . S
C660 C659 1.355 . S
C660 C662 1.419 . S
C661 C656 1.425 1_554 S
C661 C658 1.409 . S
C661 C659 1.415 . S
C662 H652 0.930 . S
C662 C660 1.419 . S
C662 C663 1.362 . S
C663 H653 0.930 1_554 S
C663 C656 1.409 1_554 S
C663 C662 1.362 . S
H664 C670 0.930 . S
H665 C673 0.930 . S
H666 C674 0.930 . S
H667 C675 0.930 . S
H668 C678 0.930 . S
H669 C679 0.930 . S
C670 H664 0.930 . S
C670 C671 1.355 . S
C670 C672 1.415 . S
C671 C670 1.355 . S
C671 C673 1.419 . S
C672 C670 1.415 . S
C672 C677 1.425 . S
C672 C679 1.409 . S
C673 H665 0.930 . S
C673 C671 1.419 . S
C673 C674 1.362 . S
C674 H666 0.930 . S
C674 C673 1.362 . S
C674 C677 1.409 . S
C675 H667 0.930 . S
C675 C676 1.355 . S
C675 C677 1.415 . S
C676 C675 1.355 . S
C676 C678 1.419 . S
C677 C672 1.425 . S
C677 C674 1.409 . S
C677 C675 1.415 . S
C678 H668 0.930 . S
C678 C676 1.419 . S
C678 C679 1.362 . S
C679 H669 0.930 . S
C679 C672 1.409 . S
C679 C678 1.362 . S
H680 C686 0.930 . S
H681 C689 0.930 . S
H682 C690 0.930 . S
H683 C691 0.930 . S
H684 C694 0.930 . S
H685 C695 0.930 . S
C686 H680 0.930 . S
C686 C687 1.355 . S
C686 C688 1.415 . S
C687 C686 1.355 . S
C687 C689 1.419 . S
C688 C686 1.415 . S
C688 C693 1.425 . S
C688 C695 1.409 . S
C689 H681 0.930 . S
C689 C687 1.419 . S
C689 C690 1.362 . S
C690 H682 0.930 . S
C690 C689 1.362 . S
C690 C693 1.409 . S
C691 H683 0.930 . S
C691 C692 1.355 . S
C691 C693 1.415 . S
C692 C691 1.355 . S
C692 C694 1.419 . S
C693 C688 1.425 . S
C693 C690 1.409 . S
C693 C691 1.415 . S
C694 H684 0.930 . S
C694 C692 1.419 . S
C694 C695 1.362 . S
C695 H685 0.930 . S
C695 C688 1.409 . S
C695 C694 1.362 . S
H696 C702 0.930 . S
H697 C705 0.930 . S
H698 C706 0.930 . S
H699 C707 0.930 . S
H700 C710 0.930 . S
H701 C711 0.930 . S
C702 H696 0.930 . S
C702 C703 1.355 . S
C702 C704 1.415 . S
C703 C702 1.355 . S
C703 C705 1.419 . S
C704 C702 1.415 . S
C704 C709 1.425 . S
C704 C711 1.409 . S
C705 H697 0.930 . S
C705 C703 1.419 . S
C705 C706 1.362 . S
C706 H698 0.930 . S
C706 C705 1.362 . S
C706 C709 1.409 . S
C707 H699 0.930 . S
C707 C708 1.355 . S
C707 C709 1.415 . S
C708 C707 1.355 . S
C708 C710 1.419 . S
C709 C704 1.425 . S
C709 C706 1.409 . S
C709 C707 1.415 . S
C710 H700 0.930 . S
C710 C708 1.419 . S
C710 C711 1.362 . S
C711 H701 0.930 . S
C711 C704 1.409 . S
C711 C710 1.362 . S
H712 C718 0.930 . S
H713 C721 0.930 . S
H714 C722 0.930 . S
H715 C723 0.930 . S
H716 C726 0.930 . S
H717 C727 0.930 . S
C718 H712 0.930 . S
C718 C719 1.355 . S
C718 C720 1.415 . S
C719 C718 1.355 . S
C719 C721 1.419 . S
C720 C718 1.415 . S
C720 C725 1.425 . S
C720 C727 1.409 . S
C721 H713 0.930 . S
C721 C719 1.419 . S
C721 C722 1.362 . S
C722 H714 0.930 . S
C722 C721 1.362 . S
C722 C725 1.409 . S
C723 H715 0.930 . S
C723 C724 1.355 . S
C723 C725 1.415 . S
C724 C723 1.355 . S
C724 C726 1.419 . S
C725 C720 1.425 . S
C725 C722 1.409 . S
C725 C723 1.415 . S
C726 H716 0.930 . S
C726 C724 1.419 . S
C726 C727 1.362 . S
C727 H717 0.930 . S
C727 C720 1.409 . S
C727 C726 1.362 . S
H728 C734 0.930 . S
H729 C737 0.930 . S
H730 C738 0.930 . S
H731 C739 0.930 . S
H732 C742 0.930 . S
H733 C743 0.930 . S
C734 H728 0.930 . S
C734 C735 1.355 . S
C734 C736 1.415 . S
C735 C734 1.355 . S
C735 C737 1.419 . S
C736 C734 1.415 . S
C736 C741 1.425 . S
C736 C743 1.409 . S
C737 H729 0.930 . S
C737 C735 1.419 . S
C737 C738 1.362 . S
C738 H730 0.930 . S
C738 C737 1.362 . S
C738 C741 1.409 . S
C739 H731 0.930 . S
C739 C740 1.355 . S
C739 C741 1.415 . S
C740 C739 1.355 . S
C740 C742 1.419 . S
C741 C736 1.425 . S
C741 C738 1.409 . S
C741 C739 1.415 . S
C742 H732 0.930 . S
C742 C740 1.419 . S
C742 C743 1.362 . S
C743 H733 0.930 . S
C743 C736 1.409 . S
C743 C742 1.362 . S
H744 C750 0.930 . S
H745 C753 0.930 . S
H746 C754 0.930 . S
H747 C755 0.930 . S
H748 C758 0.930 . S
H749 C759 0.930 . S
C750 H744 0.930 . S
C750 C751 1.355 . S
C750 C752 1.415 . S
C751 C750 1.355 . S
C751 C753 1.419 . S
C752 C750 1.415 . S
C752 C757 1.425 . S
C752 C759 1.409 . S
C753 H745 0.930 . S
C753 C751 1.419 . S
C753 C754 1.362 . S
C754 H746 0.930 . S
C754 C753 1.362 . S
C754 C757 1.409 . S
C755 H747 0.930 . S
C755 C756 1.355 . S
C755 C757 1.415 . S
C756 C755 1.355 . S
C756 C758 1.419 . S
C757 C752 1.425 . S
C757 C754 1.409 . S
C757 C755 1.415 . S
C758 H748 0.930 . S
C758 C756 1.419 . S
C758 C759 1.362 . S
C759 H749 0.930 . S
C759 C752 1.409 . S
C759 C758 1.362 . S
H760 C766 0.930 . S
H761 C769 0.930 . S
H762 C770 0.930 . S
H763 C771 0.930 . S
H764 C774 0.930 . S
H765 C775 0.930 . S
C766 H760 0.930 . S
C766 C767 1.355 . S
C766 C768 1.415 . S
C767 C766 1.355 . S
C767 C769 1.419 . S
C768 C766 1.415 . S
C768 C773 1.425 . S
C768 C775 1.409 . S
C769 H761 0.930 . S
C769 C767 1.419 . S
C769 C770 1.362 . S
C770 H762 0.930 . S
C770 C769 1.362 . S
C770 C773 1.409 . S
C771 H763 0.930 . S
C771 C772 1.355 . S
C771 C773 1.415 . S
C772 C771 1.355 . S
C772 C774 1.419 . S
C773 C768 1.425 . S
C773 C770 1.409 . S
C773 C771 1.415 . S
C774 H764 0.930 . S
C774 C772 1.419 . S
C774 C775 1.362 . S
C775 H765 0.930 . S
C775 C768 1.409 . S
C775 C774 1.362 . S
H776 C782 0.930 . S
H777 C785 0.930 . S
H778 C786 0.930 . S
H779 C787 0.930 . S
H780 C790 0.930 . S
H781 C791 0.930 . S
C782 H776 0.930 . S
C782 C783 1.355 . S
C782 C784 1.415 . S
C783 C782 1.355 . S
C783 C785 1.419 . S
C784 C782 1.415 . S
C784 C789 1.425 . S
C784 C791 1.409 . S
C785 H777 0.930 . S
C785 C783 1.419 . S
C785 C786 1.362 . S
C786 H778 0.930 . S
C786 C785 1.362 . S
C786 C789 1.409 . S
C787 H779 0.930 . S
C787 C788 1.355 . S
C787 C789 1.415 . S
C788 C787 1.355 . S
C788 C790 1.419 . S
C789 C784 1.425 . S
C789 C786 1.409 . S
C789 C787 1.415 . S
C790 H780 0.930 . S
C790 C788 1.419 . S
C790 C791 1.362 . S
C791 H781 0.930 . S
C791 C784 1.409 . S
C791 C790 1.362 . S
H792 C798 0.930 . S
H793 C801 0.930 . S
H794 C802 0.930 . S
H795 C803 0.930 . S
H796 C806 0.930 . S
H797 C807 0.930 . S
C798 H792 0.930 . S
C798 C799 1.355 . S
C798 C800 1.415 . S
C799 C798 1.355 . S
C799 C801 1.419 . S
C800 C798 1.415 . S
C800 C805 1.425 . S
C800 C807 1.409 . S
C801 H793 0.930 . S
C801 C799 1.419 . S
C801 C802 1.362 . S
C802 H794 0.930 . S
C802 C801 1.362 . S
C802 C805 1.409 . S
C803 H795 0.930 . S
C803 C804 1.355 . S
C803 C805 1.415 . S
C804 C803 1.355 . S
C804 C806 1.419 . S
C805 C800 1.425 . S
C805 C802 1.409 . S
C805 C803 1.415 . S
C806 H796 0.930 . S
C806 C804 1.419 . S
C806 C807 1.362 . S
C807 H797 0.930 . S
C807 C800 1.409 . S
C807 C806 1.362 . S
C431 C71 1.644 . S
C436 C144 1.622 . S
C452 C228 1.611 . S
C447 C81 1.642 . S
C468 C227 1.657 . S
C463 C49 1.656 . S
C479 C59 1.622 . S
C484 C143 1.618 . S
C500 C324 1.633 . S
C495 C27 1.641 . S
C516 C408 1.676 . S
C511 C38 1.678 . S
C527 C5 1.638 . S
C532 C407 1.653 . S
C543 C16 1.669 . S
C548 C323 1.682 . S
C564 C146 1.338 . S
C559 C15 1.543 . S
C580 C230 1.348 . S
C575 C4 1.554 . S
C596 C242 1.323 . S
C591 C37 1.558 . S
C612 C158 1.372 . S
C607 C26 1.579 . S
C628 C326 1.404 . S
C623 C60 1.578 . S
C639 C48 1.616 . S
C644 C410 1.410 . S
C660 C398 1.458 . S
C655 C82 1.626 . S
C671 C70 1.635 . S
C676 C314 1.455 . S
C692 C155 1.489 . S
C687 C10 1.463 . S
C708 C239 1.528 . S
C703 C21 1.534 . S
C719 C32 1.486 . S
C724 C240 1.433 . S
C740 C156 1.474 . S
C735 C43 1.527 . S
C756 C311 1.572 . S
C751 C54 1.573 . S
C767 C65 1.539 . S
C772 C395 1.528 . S
C783 C76 1.537 . S
C788 C396 1.569 . S
C799 C87 1.529 . S
C804 C312 1.509 . S
