# Generated by pormake.
# Topology zzz, (3,6)-cn, num edge types: 1
# Building blocks:
#     Node 0, Type 0, BuildingBlock: PAMTOO_clean_linker_0, # of connection points: 3
#     Node 1, Type 0, BuildingBlock: PAMTOO_clean_linker_0, # of connection points: 3
#     Node 2, Type 0, BuildingBlock: PAMTOO_clean_linker_0, # of connection points: 3
#     Node 3, Type 0, BuildingBlock: PAMTOO_clean_linker_0, # of connection points: 3
#     Node 4, Type 0, BuildingBlock: PAMTOO_clean_linker_0, # of connection points: 3
#     Node 5, Type 0, BuildingBlock: PAMTOO_clean_linker_0, # of connection points: 3
#     Node 6, Type 0, BuildingBlock: PAMTOO_clean_linker_0, # of connection points: 3
#     Node 7, Type 0, BuildingBlock: PAMTOO_clean_linker_0, # of connection points: 3
#     Node 8, Type 1, BuildingBlock: JUFBIX_clean_sbu_0, # of connection points: 6
#     Node 9, Type 1, BuildingBlock: JUFBIX_clean_sbu_0, # of connection points: 6
#     Node 10, Type 1, BuildingBlock: JUFBIX_clean_sbu_0, # of connection points: 6
#     Node 11, Type 1, BuildingBlock: JUFBIX_clean_sbu_0, # of connection points: 6
#     Edge 12, Type (0, 1), BuildingBlock: XIVTED_clean_linker_0, # of connection points: 2
#     Edge 13, Type (0, 1), BuildingBlock: XIVTED_clean_linker_0, # of connection points: 2
#     Edge 14, Type (0, 1), BuildingBlock: XIVTED_clean_linker_0, # of connection points: 2
#     Edge 15, Type (0, 1), BuildingBlock: XIVTED_clean_linker_0, # of connection points: 2
#     Edge 16, Type (0, 1), BuildingBlock: XIVTED_clean_linker_0, # of connection points: 2
#     Edge 17, Type (0, 1), BuildingBlock: XIVTED_clean_linker_0, # of connection points: 2
#     Edge 18, Type (0, 1), BuildingBlock: XIVTED_clean_linker_0, # of connection points: 2
#     Edge 19, Type (0, 1), BuildingBlock: XIVTED_clean_linker_0, # of connection points: 2
#     Edge 20, Type (0, 1), BuildingBlock: XIVTED_clean_linker_0, # of connection points: 2
#     Edge 21, Type (0, 1), BuildingBlock: XIVTED_clean_linker_0, # of connection points: 2
#     Edge 22, Type (0, 1), BuildingBlock: XIVTED_clean_linker_0, # of connection points: 2
#     Edge 23, Type (0, 1), BuildingBlock: XIVTED_clean_linker_0, # of connection points: 2
#     Edge 24, Type (0, 1), BuildingBlock: XIVTED_clean_linker_0, # of connection points: 2
#     Edge 25, Type (0, 1), BuildingBlock: XIVTED_clean_linker_0, # of connection points: 2
#     Edge 26, Type (0, 1), BuildingBlock: XIVTED_clean_linker_0, # of connection points: 2
#     Edge 27, Type (0, 1), BuildingBlock: XIVTED_clean_linker_0, # of connection points: 2
#     Edge 28, Type (0, 1), BuildingBlock: XIVTED_clean_linker_0, # of connection points: 2
#     Edge 29, Type (0, 1), BuildingBlock: XIVTED_clean_linker_0, # of connection points: 2
#     Edge 30, Type (0, 1), BuildingBlock: XIVTED_clean_linker_0, # of connection points: 2
#     Edge 31, Type (0, 1), BuildingBlock: XIVTED_clean_linker_0, # of connection points: 2
#     Edge 32, Type (0, 1), BuildingBlock: XIVTED_clean_linker_0, # of connection points: 2
#     Edge 33, Type (0, 1), BuildingBlock: XIVTED_clean_linker_0, # of connection points: 2
#     Edge 34, Type (0, 1), BuildingBlock: XIVTED_clean_linker_0, # of connection points: 2
#     Edge 35, Type (0, 1), BuildingBlock: XIVTED_clean_linker_0, # of connection points: 2
# Relax obj value: 0.118
# Max RMSD: 0.177
# Mean RMSD: 0.083
data_MOF--net-zzz--node1-JUFBIX_clean_sbu_0--node2-PAMTOO_clean_linker_0--edge1-XIVTED_clean_linker_0
_symmetry_space_group_name_H-M    P1
_symmetry_Int_Tables_number       1
_symmetry_cell_setting            triclinic
loop_
_symmetry_equiv_pos_as_xyz
'x, y, z'
_cell_length_a     51.957337
_cell_length_b     51.798412
_cell_length_c     17.622309
_cell_angle_alpha  81.494731
_cell_angle_beta   89.876509
_cell_angle_gamma 91.683279
loop_
_atom_site_label
_atom_site_type_symbol
_atom_site_fract_x
_atom_site_fract_y
_atom_site_fract_z
_atom_type_partial_charge
H0 H 0.85965 0.48498 0.30532 0.0
H1 H 0.79311 0.4952 0.16098 0.0
H2 H 0.78984 0.51265 0.39225 0.0
H3 H 0.73422 0.49405 0.33362 0.0
C4 C 0.74305 0.49253 0.27701 0.0
O5 O 0.7634 0.51053 0.26462 0.0
H6 H 0.74979 0.47222 0.27902 0.0
C7 C 0.83947 0.48955 0.29773 0.0
C8 C 0.82614 0.49841 0.35745 0.0
C9 C 0.8279 0.48852 0.22661 0.0
C10 C 0.8022 0.49569 0.21599 0.0
C11 C 0.78824 0.5038 0.27606 0.0
C12 C 0.80036 0.50562 0.34664 0.0
H13 H 0.01001 0.8253 0.33108 0.0
H14 H 1.00442 0.76945 0.17346 0.0
H15 H 0.98876 0.74539 0.41425 0.0
H16 H 0.01192 0.6989 0.33606 0.0
C17 C 0.01245 0.71182 0.27975 0.0
O18 O 0.993 0.72955 0.27839 0.0
H19 H 0.03175 0.72193 0.27441 0.0
C20 C 1.00633 0.80547 0.31993 0.0
C21 C 0.99927 0.78625 0.38107 0.0
C22 C 0.00753 0.79999 0.24467 0.0
C23 C 1.00346 0.77415 0.23127 0.0
C24 C 0.99723 0.75431 0.29253 0.0
C25 C 0.99452 0.76047 0.3675 0.0
H26 H 0.68912 0.994 0.22625 0.0
H27 H 0.75023 0.99516 0.06067 0.0
H28 H 0.76781 0.99621 0.2995 0.0
H29 H 0.80469 0.02923 0.18851 0.0
C30 C 0.80134 0.01916 0.1377 0.0
O31 O 0.78752 0.9961 0.16052 0.0
H32 H 0.79016 0.03235 0.09518 0.0
C33 C 0.70952 0.99402 0.21265 0.0
C34 C 0.72731 0.9948 0.2715 0.0
C35 C 0.71738 0.99403 0.13671 0.0
C36 C 0.7438 0.995 0.11927 0.0
C37 C 0.76207 0.99564 0.17793 0.0
C38 C 0.75379 0.99554 0.25438 0.0
H39 H 0.52896 0.66399 0.22669 0.0
H40 H 0.52268 0.73365 0.06283 0.0
H41 H 0.5249 0.73859 0.30497 0.0
H42 H 0.49096 0.77957 0.20972 0.0
C43 C 0.50015 0.77848 0.15326 0.0
O44 O 0.52302 0.76561 0.16517 0.0
H45 H 0.4866 0.76755 0.11983 0.0
C46 C 0.52778 0.6851 0.21425 0.0
C47 C 0.52737 0.69973 0.27468 0.0
C48 C 0.52585 0.69705 0.13821 0.0
C49 C 0.52398 0.72421 0.12177 0.0
C50 C 0.52387 0.73929 0.18182 0.0
C51 C 0.52523 0.727 0.25863 0.0
H52 H 0.16805 0.53071 0.2698 0.0
H53 H 0.23615 0.52823 0.40856 0.0
H54 H 0.23987 0.50916 0.17902 0.0
H55 H 0.28318 0.48084 0.28853 0.0
C56 C 0.27655 0.49126 0.33548 0.0
O57 O 0.26668 0.51488 0.30353 0.0
H58 H 0.2615 0.4785 0.36862 0.0
C59 C 0.1886 0.5279 0.27628 0.0
C60 C 0.20249 0.51997 0.21622 0.0
C61 C 0.20042 0.53075 0.34591 0.0
C62 C 0.2268 0.52621 0.35479 0.0
C63 C 0.24113 0.51867 0.29452 0.0
C64 C 0.2289 0.51529 0.2252 0.0
H65 H 0.02203 0.18527 0.26341 0.0
H66 H 0.01683 0.24301 0.41435 0.0
H67 H 0.02859 0.26668 0.1713 0.0
H68 H 0.05185 0.30827 0.26771 0.0
C69 C 0.04423 0.29686 0.3219 0.0
O70 O 0.0222 0.28313 0.30554 0.0
H71 H 0.05952 0.28337 0.34556 0.0
C72 C 0.02235 0.20556 0.27248 0.0
C73 C 0.02574 0.22502 0.20926 0.0
C74 C 0.01963 0.21164 0.34672 0.0
C75 C 0.01913 0.23793 0.35732 0.0
C76 C 0.0224 0.25784 0.29422 0.0
C77 C 0.02585 0.25138 0.21986 0.0
H78 H 0.33451 0.99935 0.35946 0.0
H79 H 0.27179 0.99358 0.5215 0.0
H80 H 0.25773 0.01527 0.27965 0.0
H81 H 0.22004 0.04034 0.37545 0.0
C82 C 0.225 0.02865 0.4313 0.0
O83 O 0.23628 1.0059 0.41793 0.0
H84 H 0.23875 0.04071 0.46079 0.0
C85 C 0.31412 1.00049 0.37171 0.0
C86 C 0.29734 0.00783 0.31107 0.0
C87 C 0.30526 0.99513 0.44759 0.0
C88 C 0.27897 0.99753 0.46303 0.0
C89 C 0.26175 1.00467 0.40255 0.0
C90 C 0.27097 0.00984 0.32628 0.0
H91 H 0.49822 0.34968 0.34574 0.0
H92 H 0.50831 0.27993 0.50677 0.0
H93 H 0.503 0.27563 0.26469 0.0
H94 H 0.47794 0.22802 0.35902 0.0
C95 C 0.48537 0.23205 0.41535 0.0
O96 O 0.50703 0.24829 0.40331 0.0
H97 H 0.46978 0.24171 0.44327 0.0
C98 C 0.50002 0.32863 0.35745 0.0
C99 C 0.50008 0.31422 0.29649 0.0
C100 C 0.5032 0.31657 0.43294 0.0
C101 C 0.50602 0.28948 0.44829 0.0
C102 C 0.50541 0.27458 0.38777 0.0
C103 C 0.50295 0.28704 0.31147 0.0
Co104 Co 0.02285 0.01708 0.83847 0.0
C105 C 0.97098 1.00595 0.86754 0.0
Co106 Co 1.00502 0.99441 0.75395 0.0
C107 C 0.02943 0.06235 0.91424 0.0
C108 C 0.06031 0.03611 0.93987 0.0
N109 N 0.03768 0.03871 0.90274 0.0
N110 N 0.04616 0.07488 0.95591 0.0
C111 C 0.06557 0.05827 0.97259 0.0
H112 H 0.01198 0.07071 0.88933 0.0
H113 H 0.07263 0.01959 0.94078 0.0
C114 C 0.05698 1.00582 0.72528 0.0
N115 N 0.99019 0.97272 0.68968 0.0
C116 C 0.99845 0.94906 0.67844 0.0
C117 C 0.96763 0.97531 0.65217 0.0
N118 N 0.98182 0.9365 0.63655 0.0
C119 C 0.96245 0.95314 0.61946 0.0
C120 C 1.00194 0.04658 0.70778 0.0
O121 O 0.05488 0.0169 0.78477 0.0
O122 O 0.03724 0.99441 0.70121 0.0
O123 O 0.99606 0.02479 0.68636 0.0
O124 O 0.01345 0.04702 0.77093 0.0
O125 O 0.97271 0.99476 0.80803 0.0
H126 H 0.95533 0.99186 0.6509 0.0
H127 H 0.01588 0.94076 0.7036 0.0
O128 O 0.99095 0.01708 0.89101 0.0
O129 O 0.03197 0.98663 0.90588 0.0
O130 O 0.01434 0.96451 0.82146 0.0
C131 C 0.02606 0.96487 0.88429 0.0
H132 H 0.08256 0.06191 0.00523 0.0
H133 H 0.94553 0.94952 0.58647 0.0
Co134 Co 0.50206 0.01353 0.83838 0.0
C135 C 0.51376 0.96016 0.8553 0.0
Co136 Co 0.52151 1.00095 0.73823 0.0
C137 C 0.45937 0.02817 0.92831 0.0
C138 C 0.49152 0.01489 0.99764 0.0
N139 N 0.48421 0.02123 0.92395 0.0
N140 N 0.45088 0.02587 0.00144 0.0
C141 C 0.47101 0.01748 0.04522 0.0
H142 H 0.447 0.03248 0.87903 0.0
H143 H 0.50981 0.00666 0.01551 0.0
C144 C 0.50964 0.05439 0.72191 0.0
N145 N 0.53943 0.99342 0.65231 0.0
C146 C 0.56479 0.98852 0.64627 0.0
C147 C 0.53125 0.99843 0.57913 0.0
N148 N 0.57276 0.99102 0.57252 0.0
C149 C 0.55167 0.99712 0.53016 0.0
C150 C 0.46873 0.9967 0.72986 0.0
O151 O 0.50085 0.0489 0.79008 0.0
O152 O 0.51919 0.03635 0.68982 0.0
O153 O 0.48927 0.99246 0.69486 0.0
O154 O 0.47036 1.00601 0.79237 0.0
O155 O 0.52356 0.96553 0.78821 0.0
H156 H 0.51221 1.00489 0.56225 0.0
H157 H 0.57775 0.98558 0.69458 0.0
O158 O 0.50345 0.9782 0.88542 0.0
O159 O 0.53426 0.02063 0.8838 0.0
O160 O 0.55314 0.00942 0.78277 0.0
C161 C 0.55475 0.01717 0.84754 0.0
H162 H 0.47033 0.01175 0.10685 0.0
H163 H 0.55142 1.00195 0.46825 0.0
Co164 Co 0.53523 0.50593 0.78974 0.0
C165 C 0.50869 0.46904 0.89485 0.0
Co166 Co 0.49279 0.5079 0.78102 0.0
C167 C 0.5831 0.50411 0.87114 0.0
C168 C 0.58951 0.50491 0.75089 0.0
N169 N 0.57068 0.50487 0.80358 0.0
N170 N 0.60897 0.5037 0.86317 0.0
C171 C 0.61303 0.50421 0.78726 0.0
H172 H 0.57319 0.50425 0.92512 0.0
H173 H 0.58633 0.50541 0.69005 0.0
C174 C 0.51943 0.54479 0.67595 0.0
N175 N 0.45728 0.50886 0.76846 0.0
C176 C 0.44392 0.50906 0.7026 0.0
C177 C 0.43918 0.50863 0.8234 0.0
N178 N 0.41815 0.50889 0.7141 0.0
C179 C 0.41518 0.50866 0.79031 0.0
C180 C 0.51283 0.54098 0.87462 0.0
O181 O 0.53931 0.53391 0.70654 0.0
O182 O 0.49723 0.53574 0.6984 0.0
O183 O 0.4916 0.53309 0.8491 0.0
O184 O 0.5336 0.53087 0.85734 0.0
O185 O 0.48874 0.47979 0.86441 0.0
H186 H 0.44318 0.50808 0.88383 0.0
H187 H 0.45307 0.50932 0.64726 0.0
O188 O 0.53079 0.47819 0.87211 0.0
O189 O 0.53644 0.48074 0.72179 0.0
O190 O 0.4944 0.48292 0.71325 0.0
C191 C 0.51522 0.47279 0.69624 0.0
H192 H 0.63162 0.50378 0.75973 0.0
H193 H 0.39699 0.50789 0.82064 0.0
Co194 Co 0.01265 0.52908 0.78962 0.0
C195 C 0.05101 0.50463 0.88501 0.0
Co196 Co 0.01617 0.4867 0.78695 0.0
C197 C 0.00911 0.57333 0.86971 0.0
C198 C 0.00778 0.58514 0.74827 0.0
N199 N 0.00968 0.56394 0.80214 0.0
N200 N 1.00694 0.59956 0.86054 0.0
C201 C 1.00614 0.60704 0.78392 0.0
H202 H 0.01066 0.56107 0.92471 0.0
H203 H 0.00759 0.58469 0.6871 0.0
C204 C 0.97782 0.51104 0.69148 0.0
N205 N 0.01915 0.45182 0.7749 0.0
C206 C 0.01973 0.44211 0.70784 0.0
C207 C 0.02143 0.43089 0.82946 0.0
N208 N 0.02232 0.41591 0.71801 0.0
C209 C 0.02337 0.40883 0.79479 0.0
C210 C 0.98009 0.4963 0.89078 0.0
O211 O 0.98543 0.53185 0.71612 0.0
O212 O 0.98938 0.48995 0.71332 0.0
O213 O 0.9908 0.47761 0.86491 0.0
O214 O 0.98773 0.51964 0.86741 0.0
O215 O 0.04306 0.48384 0.86102 0.0
H216 H 0.02184 0.43165 0.89047 0.0
H217 H 0.01807 0.45416 0.65255 0.0
O218 O 0.03976 0.52586 0.86263 0.0
O219 O 0.03773 0.53819 0.71102 0.0
O220 O 0.04139 0.49614 0.70966 0.0
C221 C 0.04873 0.51955 0.6857 0.0
H222 H 1.00421 0.62687 0.75545 0.0
H223 H 0.02584 0.3892 0.82414 0.0
H224 H 0.21652 0.03502 0.58171 0.0
H225 H 0.06758 0.98851 0.58865 0.0
H226 H 0.17859 0.00837 0.38916 0.0
H227 H 0.1036 0.02545 0.76692 0.0
H228 H 0.10876 0.9919 0.51937 0.0
H229 H 0.17621 0.0277 0.65518 0.0
C230 C 0.19968 0.02749 0.5551 0.0
C231 C 0.20076 0.02251 0.47905 0.0
C232 C 0.10766 0.9992 0.57374 0.0
C233 C 0.1545 0.01402 0.56276 0.0
C234 C 0.08415 0.99723 0.61345 0.0
C235 C 0.08203 0.0068 0.68372 0.0
C236 C 0.12934 0.0107 0.60456 0.0
C237 C 0.10423 0.0179 0.71288 0.0
C238 C 0.17665 0.02336 0.59695 0.0
C239 C 0.17845 0.01258 0.44752 0.0
N240 N 0.12687 0.01955 0.67323 0.0
N241 N 0.15621 0.00876 0.48934 0.0
H242 H 0.47779 0.21783 0.57074 0.0
H243 H 0.526 0.0719 0.57508 0.0
H244 H 0.50763 0.18906 0.37193 0.0
H245 H 0.49028 0.09819 0.77026 0.0
H246 H 0.52244 0.11563 0.50308 0.0
H247 H 0.48547 0.17534 0.64798 0.0
C248 C 0.48606 0.20253 0.54356 0.0
C249 C 0.4917 0.20671 0.46472 0.0
C250 C 0.51544 0.11191 0.56172 0.0
C251 C 0.50068 0.15815 0.55249 0.0
C252 C 0.51748 0.08688 0.60303 0.0
C253 C 0.50834 0.08125 0.67895 0.0
C254 C 0.50418 0.13161 0.59631 0.0
C255 C 0.49753 0.10157 0.71189 0.0
C256 C 0.49041 0.1783 0.58754 0.0
C257 C 0.50274 0.18645 0.43239 0.0
N258 N 0.49569 0.1258 0.67034 0.0
N259 N 0.50671 0.16301 0.47624 0.0
H260 H 0.32864 0.48628 0.31358 0.0
H261 H 0.36829 0.52293 0.72513 0.0
H262 H 0.27402 0.50641 0.47792 0.0
H263 H 0.42154 0.49313 0.57327 0.0
H264 H 0.33419 0.51998 0.63167 0.0
H265 H 0.36357 0.49193 0.40368 0.0
C266 C 0.32406 0.49198 0.36864 0.0
C267 C 0.29844 0.49571 0.38876 0.0
C268 C 0.35336 0.51412 0.61872 0.0
C269 C 0.33823 0.50233 0.49203 0.0
C270 C 0.37289 0.51568 0.67239 0.0
C271 C 0.39798 0.50814 0.65774 0.0
C272 C 0.35881 0.50501 0.54939 0.0
C273 C 0.40268 0.49941 0.58722 0.0
C274 C 0.34396 0.49518 0.42008 0.0
C275 C 0.29353 0.50327 0.46049 0.0
N276 N 0.3833 0.49803 0.53594 0.0
N277 N 0.31321 0.50626 0.5096 0.0
H278 H 0.03034 0.2832 0.47309 0.0
H279 H 0.03534 0.43004 0.56708 0.0
H280 H 0.04538 0.35071 0.30291 0.0
H281 H 0.01343 0.36318 0.73359 0.0
H282 H 0.03863 0.40141 0.4697 0.0
H283 H 0.02353 0.31212 0.5693 0.0
C284 C 0.03199 0.30415 0.45603 0.0
C285 C 0.03843 0.3146 0.38015 0.0
C286 C 0.03303 0.393 0.52752 0.0
C287 C 0.03096 0.34786 0.48974 0.0
C288 C 0.03101 0.40941 0.58337 0.0
C289 C 0.02408 0.39916 0.6593 0.0
C290 C 0.02819 0.36601 0.54732 0.0
C291 C 0.01916 0.37206 0.67645 0.0
C292 C 0.02818 0.32065 0.51086 0.0
C293 C 0.04047 0.34186 0.36087 0.0
N294 N 0.02136 0.35649 0.62109 0.0
N295 N 0.03687 0.35753 0.41532 0.0
H296 H 0.80927 0.99787 0.00585 0.0
H297 H 0.96212 0.02515 0.0014 0.0
H298 H 0.85064 0.02941 0.18462 0.0
H299 H 0.92306 0.9875 0.8296 0.0
H300 H 0.92132 0.02631 0.06915 0.0
H301 H 0.85043 0.993 0.94091 0.0
C302 C 0.82708 1.0035 0.03169 0.0
C303 C 0.8266 0.01398 0.10069 0.0
C304 C 0.9216 0.01772 0.01677 0.0
C305 C 0.87368 0.00882 0.0266 0.0
C306 C 0.94496 0.01708 0.97783 0.0
C307 C 0.94611 0.00625 0.90941 0.0
C308 C 0.89899 0.00758 0.98723 0.0
C309 C 0.92313 0.99605 0.88207 0.0
C310 C 0.85053 1.00081 0.99461 0.0
C311 C 0.85014 0.02119 0.13161 0.0
N312 N 0.90052 0.99705 0.92086 0.0
N313 N 0.87265 0.01858 0.09426 0.0
H314 H 0.5156 0.7919 0.00306 0.0
H315 H 0.50037 0.94522 0.00521 0.0
H316 H 0.49573 0.82606 0.20308 0.0
H317 H 0.52768 0.91407 0.80672 0.0
H318 H 0.49924 0.90147 0.07767 0.0
H319 H 0.52102 0.836 0.92964 0.0
C320 C 0.51253 0.80875 0.03142 0.0
C321 C 0.50503 0.80543 0.10891 0.0
C322 C 0.50557 0.90409 0.01837 0.0
C323 C 0.51108 0.85577 0.02575 0.0
C324 C 0.50618 0.92915 0.97668 0.0
C325 C 0.51402 0.9334 0.89939 0.0
C326 C 0.5127 0.88282 0.98284 0.0
C327 C 0.52147 0.91172 0.86608 0.0
C328 C 0.5156 0.83385 0.98966 0.0
C329 C 0.50137 0.82778 0.14333 0.0
N330 N 0.52049 0.88733 0.90787 0.0
N331 N 0.50428 0.85194 0.10147 0.0
H332 H 0.75044 0.50807 0.1208 0.0
H333 H 0.60186 0.48803 0.01672 0.0
H334 H 0.69067 0.48583 0.28981 0.0
H335 H 0.66008 0.51745 0.84816 0.0
H336 H 0.63416 0.48713 0.11691 0.0
H337 H 0.71786 0.51162 0.01992 0.0
C338 C 0.73042 0.50428 0.13681 0.0
C339 C 0.7232 0.49722 0.2141 0.0
C340 C 0.63988 0.49384 0.05801 0.0
C341 C 0.68578 0.50061 0.09862 0.0
C342 C 0.62135 0.49449 0.00047 0.0
C343 C 0.62806 0.50291 0.92324 0.0
C344 C 0.66549 0.50154 0.03867 0.0
C345 C 0.65391 0.51053 0.90641 0.0
C346 C 0.71181 0.50621 0.07912 0.0
C347 C 0.69701 0.49186 0.23114 0.0
N348 N 0.67163 0.50964 0.96351 0.0
N349 N 0.67929 0.49367 0.17402 0.0
H350 H 0.02321 0.72687 0.12683 0.0
H351 H 0.99167 0.58547 0.00926 0.0
H352 H 0.99442 0.66099 0.28542 0.0
H353 H 0.01988 0.6514 0.84899 0.0
H354 H 0.99135 0.61314 0.10989 0.0
H355 H 0.02044 0.70017 0.02284 0.0
C356 C 0.01619 0.70679 0.13946 0.0
C357 C 0.0093 0.696 0.21473 0.0
C358 C 0.99756 0.6216 0.05267 0.0
C359 C 1.00609 0.66527 0.09648 0.0
C360 C 0.99791 0.60572 0.99509 0.0
C361 C 1.00597 0.61597 0.92021 0.0
C362 C 1.00538 0.64803 0.03574 0.0
C363 C 0.01333 0.6426 0.90544 0.0
C364 C 0.01465 0.69154 0.08028 0.0
C365 C 1.00014 0.66996 0.22823 0.0
N366 N 0.01295 0.65763 0.96262 0.0
N367 N 0.99895 0.65546 0.16985 0.0
H368 H 0.04914 0.16887 0.36983 0.0
H369 H 0.99315 0.09408 0.75003 0.0
H370 H 0.98581 0.20456 0.46973 0.0
H371 H 1.00377 0.05553 0.55179 0.0
H372 H 0.9958 0.13653 0.66638 0.0
H373 H 0.04061 0.12882 0.45869 0.0
C374 C 0.03354 0.16833 0.41101 0.0
C375 C 0.01769 0.18981 0.41117 0.0
C376 C 0.99703 0.1187 0.64144 0.0
C377 C 0.00825 0.14422 0.51355 0.0
C378 C 0.99552 0.09459 0.68872 0.0
C379 C 0.9983 0.0714 0.65737 0.0
C380 C 1.00215 0.11943 0.56318 0.0
C381 C 1.00141 0.07297 0.57794 0.0
C382 C 0.02867 0.14548 0.46125 0.0
C383 C 0.99833 0.18834 0.4675 0.0
N384 N 1.00383 0.09668 0.5336 0.0
N385 N 0.99402 0.16573 0.51674 0.0
H386 H 0.31264 0.01669 0.57927 0.0
H387 H 0.45692 0.97123 0.60797 0.0
H388 H 0.34205 0.95857 0.45295 0.0
H389 H 0.422 0.01066 0.77968 0.0
H390 H 0.41433 0.96522 0.55326 0.0
H391 H 0.3512 0.01275 0.65984 0.0
C392 C 0.32686 1.00257 0.57001 0.0
C393 C 0.32441 0.98822 0.50882 0.0
C394 C 0.41596 0.97496 0.60342 0.0
C395 C 0.36872 0.98413 0.59876 0.0
C396 C 0.4403 0.97851 0.63437 0.0
C397 C 0.44307 0.99165 0.69804 0.0
C398 C 0.39428 0.98495 0.6357 0.0
C399 C 0.42081 1.00053 0.73027 0.0
C400 C 0.34896 1.00049 0.61544 0.0
C401 C 0.34347 0.97033 0.49881 0.0
N402 N 0.3974 0.99729 0.69823 0.0
N403 N 0.36503 0.96913 0.5423 0.0
H404 H 0.54485 0.32957 0.51461 0.0
H405 H 0.47317 0.45253 0.63129 0.0
H406 H 0.46404 0.34331 0.48136 0.0
H407 H 0.55398 0.43969 0.67325 0.0
H408 H 0.46957 0.41134 0.58117 0.0
H409 H 0.54835 0.36738 0.58382 0.0
C410 C 0.5277 0.34003 0.52449 0.0
C411 C 0.50408 0.33337 0.4933 0.0
C412 C 0.48814 0.41748 0.60111 0.0
C413 C 0.508 0.3769 0.56909 0.0
C414 C 0.49027 0.44117 0.62922 0.0
C415 C 0.51395 0.44965 0.65632 0.0
C416 C 0.50985 0.40203 0.59981 0.0
C417 C 0.53539 0.43399 0.65243 0.0
C418 C 0.52974 0.36179 0.56282 0.0
C419 C 0.4825 0.34781 0.50545 0.0
N420 N 0.53282 0.41087 0.6248 0.0
N421 N 0.48503 0.36906 0.54173 0.0
H422 H 0.19674 0.50168 0.48733 0.0
H423 H 0.06692 0.56582 0.60287 0.0
H424 H 0.16581 0.5693 0.34937 0.0
H425 H 0.08442 0.48435 0.66199 0.0
H426 H 0.10784 0.57292 0.531 0.0
H427 H 0.16123 0.50191 0.57875 0.0
C428 C 0.18294 0.51709 0.47773 0.0
C429 C 0.18396 0.53535 0.41069 0.0
C430 C 0.1026 0.55356 0.56002 0.0
C431 C 0.14318 0.53541 0.51351 0.0
C432 C 0.07927 0.54947 0.60047 0.0
C433 C 0.07213 0.52441 0.63753 0.0
C434 C 0.11899 0.53255 0.55842 0.0
C435 C 0.08894 0.50393 0.6334 0.0
C436 C 0.16252 0.51701 0.52922 0.0
C437 C 0.16544 0.55476 0.40031 0.0
N438 N 0.1116 0.50849 0.59488 0.0
N439 N 0.14555 0.55412 0.45077 0.0
H440 H 0.03891 0.80305 0.1165 0.0
H441 H 0.03276 0.91749 0.83899 0.0
H442 H 0.9855 0.84733 0.22981 0.0
H443 H 0.02818 0.95542 0.04053 0.0
H444 H 0.03159 0.87496 0.92124 0.0
H445 H 0.04873 0.84254 0.02322 0.0
C446 C 0.02909 0.82091 0.12124 0.0
C447 C 0.01172 0.82206 0.18169 0.0
C448 C 0.03155 0.89261 0.94737 0.0
C449 C 0.02316 0.86691 0.07742 0.0
C450 C 0.03208 0.91684 0.9007 0.0
C451 C 0.03045 0.9399 0.93335 0.0
C452 C 0.02882 0.89161 0.02684 0.0
C453 C 0.02956 0.93809 0.0133 0.0
C454 C 0.0348 0.84337 0.06851 0.0
C455 C 0.99958 0.84572 0.18548 0.0
N456 N 0.02815 0.91426 0.05736 0.0
N457 N 1.00582 0.86725 0.13488 0.0
H458 H 0.67532 0.96157 0.14086 0.0
H459 H 0.60178 0.02694 0.77737 0.0
H460 H 0.71284 0.02733 0.00065 0.0
H461 H 0.56548 0.0082 -2e-05 0.0
H462 H 0.64413 0.0206 0.83865 0.0
H463 H 0.63627 0.96938 0.06514 0.0
C464 C 0.67549 0.9773 0.09288 0.0
C465 C 0.69713 0.99414 0.0777 0.0
C466 C 0.62684 0.01826 0.87374 0.0
C467 C 0.65262 1.00306 0.99117 0.0
C468 C 0.60278 0.02194 0.83918 0.0
C469 C 0.58017 0.01819 0.88395 0.0
C470 C 0.62807 0.00996 0.95292 0.0
C471 C 0.58243 0.01152 0.96356 0.0
C472 C 0.65319 0.98185 0.05034 0.0
C473 C 0.6965 0.01398 0.01417 0.0
N474 N 0.60596 0.00716 0.99539 0.0
N475 N 0.67438 0.01811 0.97325 0.0
H476 H 0.48475 0.68507 0.05304 0.0
H477 H 0.55479 0.56033 0.94204 0.0
H478 H 0.56477 0.66901 0.09432 0.0
H479 H 0.47446 0.57471 0.89598 0.0
H480 H 0.5588 0.60141 0.99257 0.0
H481 H 0.48101 0.64723 0.984 0.0
C482 C 0.50171 0.67407 0.04498 0.0
C483 C 0.52515 0.6801 0.07831 0.0
C484 C 0.54024 0.59563 0.97167 0.0
C485 C 0.52093 0.63657 0.00269 0.0
C486 C 0.53787 0.57202 0.9433 0.0
C487 C 0.51421 0.56401 0.91491 0.0
C488 C 0.5188 0.61149 0.97189 0.0
C489 C 0.49302 0.58005 0.91783 0.0
C490 C 0.49952 0.65231 0.00674 0.0
C491 C 0.54646 0.665 0.06851 0.0
N492 N 0.49582 0.60311 0.94569 0.0
N493 N 0.54379 0.64378 0.0322 0.0
H494 H 0.83287 0.51791 0.08588 0.0
H495 H 0.96048 0.45003 0.97064 0.0
H496 H 0.86094 0.44851 0.22239 0.0
H497 H 0.94553 0.53228 0.91639 0.0
H498 H 0.91923 0.44371 0.04123 0.0
H499 H 0.86828 0.51658 0.99515 0.0
C500 C 0.84601 0.50191 0.09537 0.0
C501 C 0.84425 0.48349 0.16199 0.0
C502 C 0.92512 0.46306 0.01352 0.0
C503 C 0.88501 0.48219 0.05986 0.0
C504 C 0.94863 0.4667 0.97385 0.0
C505 C 0.95657 0.49175 0.93849 0.0
C506 C 0.90938 0.48451 0.01594 0.0
C507 C 0.94039 0.51267 0.94359 0.0
C508 C 0.86638 0.50135 0.04423 0.0
C509 C 0.86194 0.46326 0.17199 0.0
N510 N 0.91756 0.50854 0.98123 0.0
N511 N 0.88188 0.46333 0.12195 0.0
H512 H 0.98933 0.21124 0.11155 0.0
H513 H 0.0853 0.10744 0.98954 0.0
H514 H 0.07123 0.21476 0.14613 0.0
H515 H 1.00277 0.10271 0.96389 0.0
H516 H 0.0815 0.15091 0.02541 0.0
H517 H 0.99504 0.17745 0.03002 0.0
C518 C 0.00866 0.20587 0.09843 0.0
C519 C 0.02987 0.21597 0.13472 0.0
C520 C 0.06424 0.14046 0.01124 0.0
C521 C 0.03653 0.17628 0.04531 0.0
C522 C 0.06636 0.11545 0.99148 0.0
C523 C 0.0443 0.10106 0.97453 0.0
C524 C 0.03985 0.15129 0.01451 0.0
C525 C 0.02035 0.11294 0.97623 0.0
C526 C 0.01191 0.18617 0.05323 0.0
C527 C 0.05445 0.20772 0.11812 0.0
N528 N 0.01876 0.13719 0.99654 0.0
N529 N 0.05708 0.18795 0.07598 0.0
H530 H 0.30869 0.97208 0.21976 0.0
H531 H 0.418 0.06574 0.99428 0.0
H532 H 0.31498 0.05433 0.23293 0.0
H533 H 0.42401 0.98302 0.06448 0.0
H534 H 0.37372 0.06309 0.04728 0.0
H535 H 0.34324 0.97741 0.12349 0.0
C536 C 0.31651 0.9915 0.19937 0.0
C537 C 0.30884 0.01286 0.2334 0.0
C538 C 0.38465 0.0455 0.05007 0.0
C539 C 0.34908 0.01897 0.12606 0.0
C540 C 0.40976 0.04704 0.02004 0.0
C541 C 0.42447 0.0246 0.02625 0.0
C542 C 0.37421 0.02124 0.08488 0.0
C543 C 0.4132 1.00072 0.05968 0.0
C544 C 0.33652 0.99448 0.14553 0.0
C545 C 0.32014 0.0375 0.20696 0.0
N546 N 0.38878 0.99966 0.08786 0.0
N547 N 0.34003 0.03985 0.15566 0.0
H548 H 0.45819 0.33747 0.22833 0.0
H549 H 0.54782 0.43877 0.9563 0.0
H550 H 0.53898 0.32683 0.19332 0.0
H551 H 0.46494 0.44285 0.95754 0.0
H552 H 0.54442 0.39693 0.03988 0.0
H553 H 0.45922 0.37387 0.12224 0.0
C554 C 0.4759 0.34219 0.19599 0.0
C555 C 0.49845 0.32897 0.21844 0.0
C556 C 0.52694 0.40689 0.02181 0.0
C557 C 0.50016 0.37133 0.0999 0.0
C558 C 0.52886 0.43097 0.97453 0.0
C559 C 0.50661 0.44453 0.95019 0.0
C560 C 0.50261 0.39621 0.04578 0.0
C561 C 0.48261 0.43321 0.97529 0.0
C562 C 0.47659 0.36318 0.13624 0.0
C563 C 0.52111 0.33627 0.17662 0.0
N564 N 0.48125 0.40977 0.02202 0.0
N565 N 0.5215 0.35724 0.1201 0.0
H566 H 0.18678 0.55728 0.10351 0.0
H567 H 0.08017 0.46328 0.94833 0.0
H568 H 0.18302 0.47426 0.17772 0.0
H569 H 0.07673 0.54727 0.92455 0.0
H570 H 0.12131 0.4657 0.01596 0.0
H571 H 0.15126 0.55259 0.01523 0.0
C572 C 0.17906 0.53792 0.0988 0.0
C573 C 0.18801 0.51607 0.14668 0.0
C574 C 0.11148 0.48354 0.99582 0.0
C575 C 0.14657 0.51058 0.04881 0.0
C576 C 0.08794 0.48217 0.95767 0.0
C577 C 0.07482 0.50508 0.9312 0.0
C578 C 0.12209 0.50801 0.00665 0.0
C579 C 0.08596 0.52905 0.94435 0.0
C580 C 0.15851 0.53526 0.04949 0.0
C581 C 0.17689 0.49147 0.14042 0.0
N582 N 0.10889 0.52986 0.98082 0.0
N583 N 0.1565 0.48938 0.093 0.0
H584 H 0.95354 0.79614 0.44374 0.0
H585 H 0.02513 0.90817 0.63353 0.0
H586 H 0.03536 0.80035 0.47959 0.0
H587 H 0.94302 0.90435 0.59753 0.0
H588 H 0.02819 0.86456 0.59882 0.0
H589 H 0.94806 0.82997 0.52547 0.0
C590 C 0.9702 0.8032 0.47232 0.0
C591 C 0.99491 0.79534 0.45553 0.0
C592 C 0.00945 0.87315 0.59914 0.0
C593 C 0.98905 0.835 0.54564 0.0
C594 C 0.00766 0.89816 0.6191 0.0
C595 C 0.98379 0.91031 0.61785 0.0
C596 C 0.98725 0.86003 0.57725 0.0
C597 C 0.96193 0.89618 0.59784 0.0
C598 C 0.96716 0.82292 0.51768 0.0
C599 C 0.01597 0.8057 0.49199 0.0
N600 N 0.96422 0.87195 0.57782 0.0
N601 N 0.01264 0.82538 0.53396 0.0
H602 H 0.71507 0.95387 0.38251 0.0
H603 H 0.59386 0.0293 0.46909 0.0
H604 H 0.71176 0.03748 0.32851 0.0
H605 H 0.61139 0.95776 0.61461 0.0
H606 H 0.6379 0.03217 0.41888 0.0
H607 H 0.67972 0.95409 0.4751 0.0
C608 C 0.70784 0.9724 0.39336 0.0
C609 C 0.71652 0.99573 0.34867 0.0
C610 C 0.6323 0.01594 0.46238 0.0
C611 C 0.67521 0.99602 0.45064 0.0
C612 C 0.60709 0.01417 0.49032 0.0
C613 C 0.59899 0.99308 0.54514 0.0
C614 C 0.64951 0.99613 0.48801 0.0
C615 C 0.61698 0.97422 0.57197 0.0
C616 C 0.68739 0.97249 0.44526 0.0
C617 C 0.70586 0.01914 0.36275 0.0
N618 N 0.64133 0.9759 0.54209 0.0
N619 N 0.68534 0.01864 0.41098 0.0
H620 H 0.48759 0.68783 0.37536 0.0
H621 H 0.56355 0.5702 0.61417 0.0
H622 H 0.56849 0.67614 0.34628 0.0
H623 H 0.48082 0.5759 0.61408 0.0
H624 H 0.56685 0.61229 0.53009 0.0
H625 H 0.48617 0.65137 0.48158 0.0
C626 C 0.50526 0.67826 0.39367 0.0
C627 C 0.52826 0.68514 0.35314 0.0
C628 C 0.54799 0.60432 0.54855 0.0
C629 C 0.52667 0.6428 0.47183 0.0
C630 C 0.54608 0.58019 0.59616 0.0
C631 C 0.52186 0.56932 0.62072 0.0
C632 C 0.52554 0.61779 0.52565 0.0
C633 C 0.4999 0.58335 0.59611 0.0
C634 C 0.5044 0.65716 0.45327 0.0
C635 C 0.5505 0.6716 0.37718 0.0
N636 N 0.50227 0.6068 0.55004 0.0
N637 N 0.54911 0.65089 0.4344 0.0
H638 H 0.84199 0.54359 0.40835 0.0
H639 H 0.95493 0.46841 0.64333 0.0
H640 H 0.84579 0.4599 0.45962 0.0
H641 H 0.94607 0.55137 0.63569 0.0
H642 H 0.91431 0.46581 0.57683 0.0
H643 H 0.87795 0.54778 0.49681 0.0
C644 C 0.84973 0.52614 0.44071 0.0
C645 C 0.84084 0.50136 0.42756 0.0
C646 C 0.92112 0.48463 0.58962 0.0
C647 C 0.88246 0.50591 0.52577 0.0
C648 C 0.94454 0.4862 0.62717 0.0
C649 C 0.9541 0.5102 0.64495 0.0
C650 C 0.907 0.50726 0.56867 0.0
C651 C 0.93953 0.53248 0.62276 0.0
C652 C 0.87047 0.52851 0.49023 0.0
C653 C 0.85196 0.47933 0.46894 0.0
N654 N 0.91673 0.5305 0.58544 0.0
N655 N 0.87237 0.48212 0.5153 0.0
loop_
_geom_bond_atom_site_label_1
_geom_bond_atom_site_label_2
_geom_bond_distance
_geom_bond_site_symmetry_2
_ccdc_geom_bond_type
H0 C7 0.929 . S
H1 C10 0.930 . S
H2 C12 0.929 . S
H3 C4 0.969 . S
C4 H3 0.969 . S
C4 O5 1.550 . S
C4 H6 0.973 . S
O5 C4 1.550 . S
O5 C11 1.412 . S
H6 C4 0.973 . S
C7 H0 0.929 . S
C7 C8 1.400 . S
C7 C9 1.364 . S
C8 C7 1.400 . S
C8 C12 1.377 . S
C9 C7 1.364 . S
C9 C10 1.374 . S
C10 H1 0.930 . S
C10 C9 1.374 . S
C10 C11 1.383 . S
C11 O5 1.412 . S
C11 C10 1.383 . S
C11 C12 1.394 . S
C12 H2 0.929 . S
C12 C8 1.377 . S
C12 C11 1.394 . S
H13 C20 0.929 . S
H14 C23 0.930 . S
H15 C25 0.929 . S
H16 C17 0.969 . S
C17 H16 0.969 . S
C17 O18 1.550 . S
C17 H19 0.973 . S
O18 C17 1.550 . S
O18 C24 1.412 . S
H19 C17 0.973 . S
C20 H13 0.929 . S
C20 C21 1.400 . S
C20 C22 1.364 . S
C21 C20 1.400 . S
C21 C25 1.377 . S
C22 C20 1.364 . S
C22 C23 1.374 . S
C23 H14 0.930 . S
C23 C22 1.374 . S
C23 C24 1.383 . S
C24 O18 1.412 . S
C24 C23 1.383 . S
C24 C25 1.394 . S
C25 H15 0.929 . S
C25 C21 1.377 . S
C25 C24 1.394 . S
H26 C33 0.929 1_565 S
H27 C36 0.924 1_556 S
H28 C38 0.930 1_565 S
H29 C30 0.969 . S
C30 H29 0.969 . S
C30 O31 1.550 1_546 S
C30 H32 0.973 1_545 S
O31 C30 1.550 1_564 S
O31 C37 1.404 1_565 S
H32 C30 0.973 1_565 S
C33 H26 0.929 1_545 S
C33 C34 1.398 . S
C33 C35 1.365 . S
C34 C33 1.398 . S
C34 C38 1.376 . S
C35 C33 1.365 . S
C35 C36 1.374 1_545 S
C36 H27 0.924 1_554 S
C36 C35 1.374 1_565 S
C36 C37 1.378 1_565 S
C37 O31 1.404 1_545 S
C37 C36 1.378 1_545 S
C37 C38 1.399 . S
C38 H28 0.930 1_545 S
C38 C34 1.376 . S
C38 C37 1.399 . S
H39 C46 0.929 . S
H40 C49 0.930 . S
H41 C51 0.929 . S
H42 C43 0.969 . S
C43 H42 0.969 . S
C43 O44 1.550 . S
C43 H45 0.973 . S
O44 C43 1.550 . S
O44 C50 1.412 . S
H45 C43 0.973 . S
C46 H39 0.929 . S
C46 C47 1.400 . S
C46 C48 1.364 . S
C47 C46 1.400 . S
C47 C51 1.377 . S
C48 C46 1.364 . S
C48 C49 1.374 . S
C49 H40 0.930 . S
C49 C48 1.374 . S
C49 C50 1.383 . S
C50 O44 1.412 . S
C50 C49 1.383 . S
C50 C51 1.394 . S
C51 H41 0.929 . S
C51 C47 1.377 . S
C51 C50 1.394 . S
H52 C59 0.929 . S
H53 C62 0.930 . S
H54 C64 0.929 . S
H55 C56 0.969 . S
C56 H55 0.969 . S
C56 O57 1.550 . S
C56 H58 0.973 . S
O57 C56 1.550 . S
O57 C63 1.412 . S
H58 C56 0.973 . S
C59 H52 0.929 . S
C59 C60 1.400 . S
C59 C61 1.364 . S
C60 C59 1.400 . S
C60 C64 1.377 . S
C61 C59 1.364 . S
C61 C62 1.374 . S
C62 H53 0.930 . S
C62 C61 1.374 . S
C62 C63 1.383 . S
C63 O57 1.412 . S
C63 C62 1.383 . S
C63 C64 1.394 . S
C64 H54 0.929 . S
C64 C60 1.377 . S
C64 C63 1.394 . S
H65 C72 0.929 . S
H66 C75 0.930 . S
H67 C77 0.929 . S
H68 C69 0.969 . S
C69 H68 0.969 . S
C69 O70 1.550 . S
C69 H71 0.973 . S
O70 C69 1.550 . S
O70 C76 1.412 . S
H71 C69 0.973 . S
C72 H65 0.929 . S
C72 C73 1.400 . S
C72 C74 1.364 . S
C73 C72 1.400 . S
C73 C77 1.377 . S
C74 C72 1.364 . S
C74 C75 1.374 . S
C75 H66 0.930 . S
C75 C74 1.374 . S
C75 C76 1.383 . S
C76 O70 1.412 . S
C76 C75 1.383 . S
C76 C77 1.394 . S
C77 H67 0.929 . S
C77 C73 1.377 . S
C77 C76 1.394 . S
H78 C85 0.928 1_565 S
H79 C88 0.935 . S
H80 C90 0.926 1_565 S
H81 C82 0.969 . S
C82 H81 0.969 . S
C82 O83 1.550 1_545 S
C82 H84 0.973 1_545 S
O83 C82 1.550 1_565 S
O83 C89 1.403 1_565 S
H84 C82 0.973 1_565 S
C85 H78 0.928 1_545 S
C85 C86 1.401 . S
C85 C87 1.363 . S
C86 C85 1.401 . S
C86 C90 1.377 . S
C87 C85 1.363 . S
C87 C88 1.375 1_545 S
C88 H79 0.935 . S
C88 C87 1.375 1_565 S
C88 C89 1.386 1_565 S
C89 O83 1.403 1_545 S
C89 C88 1.386 1_545 S
C89 C90 1.390 . S
C90 H80 0.926 1_545 S
C90 C86 1.377 . S
C90 C89 1.390 . S
H91 C98 0.929 . S
H92 C101 0.930 . S
H93 C103 0.929 . S
H94 C95 0.969 . S
C95 H94 0.969 . S
C95 O96 1.550 . S
C95 H97 0.973 . S
O96 C95 1.550 . S
O96 C102 1.412 . S
H97 C95 0.973 . S
C98 H91 0.929 . S
C98 C99 1.400 . S
C98 C100 1.364 . S
C99 C98 1.400 . S
C99 C103 1.377 . S
C100 C98 1.364 . S
C100 C101 1.374 . S
C101 H92 0.930 . S
C101 C100 1.374 . S
C101 C102 1.383 . S
C102 O96 1.412 . S
C102 C101 1.383 . S
C102 C103 1.394 . S
C103 H93 0.929 . S
C103 C99 1.377 . S
C103 C102 1.394 . S
Co104 N109 2.057 . S
Co104 O121 2.021 . S
Co104 O124 2.062 . S
Co104 O128 2.117 1_455 S
Co104 O129 2.020 1_545 S
C105 O125 1.259 1_545 S
C105 O128 1.258 . S
Co106 N115 2.057 . S
Co106 O122 2.117 1_655 S
Co106 O123 2.020 1_665 S
Co106 O125 2.021 . S
Co106 O130 2.062 . S
C107 N109 1.316 . S
C107 N110 1.347 1_556 S
C107 H112 0.931 . S
C108 N109 1.375 1_655 S
C108 C111 1.350 1_656 S
C108 H113 0.930 . S
N109 Co104 2.057 . S
N109 C107 1.316 . S
N109 C108 1.375 1_455 S
N110 C107 1.347 1_554 S
N110 C111 1.373 . S
C111 C108 1.350 1_454 S
C111 N110 1.373 . S
C111 H132 0.931 1_455 S
H112 C107 0.931 . S
H113 C108 0.930 . S
C114 O121 1.259 1_565 S
C114 O122 1.258 . S
N115 Co106 2.057 . S
N115 C116 1.316 . S
N115 C117 1.375 1_655 S
C116 N115 1.316 . S
C116 N118 1.347 . S
C116 H127 0.931 . S
C117 N115 1.375 1_455 S
C117 C119 1.350 . S
C117 H126 0.930 . S
N118 C116 1.347 . S
N118 C119 1.373 1_655 S
C119 C117 1.350 . S
C119 N118 1.373 1_455 S
C119 H133 0.931 . S
C120 O123 1.256 . S
C120 O124 1.255 . S
O121 Co104 2.021 . S
O121 C114 1.259 1_545 S
O122 Co106 2.117 1_455 S
O122 C114 1.258 . S
O123 Co106 2.020 1_445 S
O123 C120 1.256 . S
O124 Co104 2.062 . S
O124 C120 1.255 . S
O125 C105 1.259 1_565 S
O125 Co106 2.021 . S
H126 C117 0.930 . S
H127 C116 0.931 . S
O128 Co104 2.117 1_655 S
O128 C105 1.258 . S
O129 Co104 2.020 1_565 S
O129 C131 1.256 . S
O130 Co106 2.062 . S
O130 C131 1.255 1_655 S
C131 O129 1.256 . S
C131 O130 1.255 1_455 S
H132 C111 0.931 1_655 S
H133 C119 0.931 . S
Co134 N139 2.057 1_545 S
Co134 O151 2.021 . S
Co134 O154 2.067 . S
Co134 O158 2.117 1_545 S
Co134 O159 2.020 . S
C135 O155 1.259 . S
C135 O158 1.258 . S
Co136 N145 2.057 1_565 S
Co136 O152 2.117 1_565 S
Co136 O153 2.020 . S
Co136 O155 2.021 . S
Co136 O160 2.065 . S
C137 N139 1.316 1_545 S
C137 N140 1.347 1_556 S
C137 H142 0.931 . S
C138 N139 1.375 1_554 S
C138 C141 1.350 . S
C138 H143 0.930 . S
N139 Co134 2.057 1_565 S
N139 C137 1.316 1_565 S
N139 C138 1.375 1_556 S
N140 C137 1.347 1_554 S
N140 C141 1.373 1_545 S
C141 C138 1.350 . S
C141 N140 1.373 1_565 S
C141 H162 0.931 . S
H142 C137 0.931 . S
H143 C138 0.930 . S
C144 O151 1.259 . S
C144 O152 1.258 . S
N145 Co136 2.057 1_545 S
N145 C146 1.316 1_545 S
N145 C147 1.375 . S
C146 N145 1.316 1_565 S
C146 N148 1.347 . S
C146 H157 0.931 . S
C147 N145 1.375 . S
C147 C149 1.350 . S
C147 H156 0.930 . S
N148 C146 1.347 . S
N148 C149 1.373 1_565 S
C149 C147 1.350 . S
C149 N148 1.373 1_545 S
C149 H163 0.931 . S
C150 O153 1.256 . S
C150 O154 1.245 1_565 S
O151 Co134 2.021 . S
O151 C144 1.259 . S
O152 Co136 2.117 1_545 S
O152 C144 1.258 . S
O153 Co136 2.020 . S
O153 C150 1.256 . S
O154 Co134 2.067 . S
O154 C150 1.245 1_545 S
O155 C135 1.259 . S
O155 Co136 2.021 . S
H156 C147 0.930 . S
H157 C146 0.931 . S
O158 Co134 2.117 1_565 S
O158 C135 1.258 . S
O159 Co134 2.020 . S
O159 C161 1.256 . S
O160 Co136 2.065 . S
O160 C161 1.248 1_565 S
C161 O159 1.256 . S
C161 O160 1.248 1_545 S
H162 C141 0.931 . S
H163 C149 0.931 . S
Co164 N169 2.057 . S
Co164 O181 2.021 . S
Co164 O184 2.062 . S
Co164 O188 2.117 . S
Co164 O189 2.020 . S
C165 O185 1.259 . S
C165 O188 1.258 . S
Co166 N175 2.057 . S
Co166 O182 2.117 . S
Co166 O183 2.020 . S
Co166 O185 2.021 . S
Co166 O190 2.062 . S
C167 N169 1.316 . S
C167 N170 1.347 . S
C167 H172 0.931 . S
C168 N169 1.375 . S
C168 C171 1.350 . S
C168 H173 0.930 . S
N169 Co164 2.057 . S
N169 C167 1.316 . S
N169 C168 1.375 . S
N170 C167 1.347 . S
N170 C171 1.373 . S
C171 C168 1.350 . S
C171 N170 1.373 . S
C171 H192 0.931 . S
H172 C167 0.931 . S
H173 C168 0.930 . S
C174 O181 1.259 . S
C174 O182 1.258 . S
N175 Co166 2.057 . S
N175 C176 1.316 . S
N175 C177 1.375 . S
C176 N175 1.316 . S
C176 N178 1.347 . S
C176 H187 0.931 . S
C177 N175 1.375 . S
C177 C179 1.350 . S
C177 H186 0.930 . S
N178 C176 1.347 . S
N178 C179 1.373 . S
C179 C177 1.350 . S
C179 N178 1.373 . S
C179 H193 0.931 . S
C180 O183 1.256 . S
C180 O184 1.255 . S
O181 Co164 2.021 . S
O181 C174 1.259 . S
O182 Co166 2.117 . S
O182 C174 1.258 . S
O183 Co166 2.020 . S
O183 C180 1.256 . S
O184 Co164 2.062 . S
O184 C180 1.255 . S
O185 C165 1.259 . S
O185 Co166 2.021 . S
H186 C177 0.930 . S
H187 C176 0.931 . S
O188 Co164 2.117 . S
O188 C165 1.258 . S
O189 Co164 2.020 . S
O189 C191 1.256 . S
O190 Co166 2.062 . S
O190 C191 1.255 . S
C191 O189 1.256 . S
C191 O190 1.255 . S
H192 C171 0.931 . S
H193 C179 0.931 . S
Co194 N199 2.057 . S
Co194 O211 2.021 1_455 S
Co194 O214 2.062 1_455 S
Co194 O218 2.117 . S
Co194 O219 2.020 . S
C195 O215 1.259 . S
C195 O218 1.258 . S
Co196 N205 2.057 . S
Co196 O212 2.117 1_455 S
Co196 O213 2.020 1_455 S
Co196 O215 2.021 . S
Co196 O220 2.062 . S
C197 N199 1.316 1_655 S
C197 N200 1.348 . S
C197 H202 0.931 . S
C198 N199 1.375 . S
C198 C201 1.350 . S
C198 H203 0.930 . S
N199 Co194 2.057 . S
N199 C197 1.316 1_455 S
N199 C198 1.375 . S
N200 C197 1.348 . S
N200 C201 1.369 1_655 S
C201 C198 1.350 . S
C201 N200 1.369 1_455 S
C201 H222 0.931 . S
H202 C197 0.931 . S
H203 C198 0.930 . S
C204 O211 1.259 . S
C204 O212 1.258 . S
N205 Co196 2.057 . S
N205 C206 1.316 . S
N205 C207 1.375 1_455 S
C206 N205 1.316 . S
C206 N208 1.347 . S
C206 H217 0.931 . S
C207 N205 1.375 1_655 S
C207 C209 1.350 . S
C207 H216 0.930 . S
N208 C206 1.347 . S
N208 C209 1.373 1_455 S
C209 C207 1.350 . S
C209 N208 1.373 1_655 S
C209 H223 0.931 . S
C210 O213 1.256 . S
C210 O214 1.255 . S
O211 Co194 2.021 1_655 S
O211 C204 1.259 . S
O212 Co196 2.117 1_655 S
O212 C204 1.258 . S
O213 Co196 2.020 1_655 S
O213 C210 1.256 . S
O214 Co194 2.062 1_655 S
O214 C210 1.255 . S
O215 C195 1.259 . S
O215 Co196 2.021 . S
H216 C207 0.930 . S
H217 C206 0.931 . S
O218 Co194 2.117 . S
O218 C195 1.258 . S
O219 Co194 2.020 . S
O219 C221 1.256 . S
O220 Co196 2.062 . S
O220 C221 1.255 . S
C221 O219 1.256 . S
C221 O220 1.255 . S
H222 C201 0.931 . S
H223 C209 0.931 . S
H224 C230 0.930 . S
H225 C234 0.930 . S
H226 C239 0.929 . S
H227 C237 0.929 . S
H228 C232 0.929 . S
H229 C238 0.929 . S
C230 H224 0.930 . S
C230 C231 1.363 1_545 S
C230 C238 1.378 . S
C231 C230 1.363 1_565 S
C231 C239 1.437 . S
C232 H228 0.929 . S
C232 C234 1.378 . S
C232 C236 1.350 . S
C233 C236 1.463 . S
C233 C238 1.350 1_565 S
C233 N241 1.427 . S
C234 H225 0.930 . S
C234 C232 1.378 . S
C234 C235 1.367 . S
C235 C234 1.367 . S
C235 C237 1.433 1_565 S
C236 C232 1.350 . S
C236 C233 1.463 . S
C236 N240 1.427 1_565 S
C237 H227 0.929 . S
C237 C235 1.433 1_545 S
C237 N240 1.384 . S
C238 H229 0.929 . S
C238 C230 1.378 . S
C238 C233 1.350 1_545 S
C239 H226 0.929 . S
C239 C231 1.437 . S
C239 N241 1.384 . S
N240 C236 1.427 1_545 S
N240 C237 1.384 . S
N241 C233 1.427 . S
N241 C239 1.384 . S
H242 C248 0.930 . S
H243 C252 0.930 . S
H244 C257 0.929 . S
H245 C255 0.929 . S
H246 C250 0.929 . S
H247 C256 0.929 . S
C248 H242 0.930 . S
C248 C249 1.367 . S
C248 C256 1.378 . S
C249 C248 1.367 . S
C249 C257 1.433 . S
C250 H246 0.929 . S
C250 C252 1.378 . S
C250 C254 1.350 . S
C251 C254 1.463 . S
C251 C256 1.350 . S
C251 N259 1.427 . S
C252 H243 0.930 . S
C252 C250 1.378 . S
C252 C253 1.367 . S
C253 C252 1.367 . S
C253 C255 1.433 . S
C254 C250 1.350 . S
C254 C251 1.463 . S
C254 N258 1.427 . S
C255 H245 0.929 . S
C255 C253 1.433 . S
C255 N258 1.384 . S
C256 H247 0.929 . S
C256 C248 1.378 . S
C256 C251 1.350 . S
C257 H244 0.929 . S
C257 C249 1.433 . S
C257 N259 1.384 . S
N258 C254 1.427 . S
N258 C255 1.384 . S
N259 C251 1.427 . S
N259 C257 1.384 . S
H260 C266 0.930 . S
H261 C270 0.930 . S
H262 C275 0.929 . S
H263 C273 0.929 . S
H264 C268 0.929 . S
H265 C274 0.929 . S
C266 H260 0.930 . S
C266 C267 1.367 . S
C266 C274 1.378 . S
C267 C266 1.367 . S
C267 C275 1.433 . S
C268 H264 0.929 . S
C268 C270 1.378 . S
C268 C272 1.350 . S
C269 C272 1.463 . S
C269 C274 1.350 . S
C269 N277 1.427 . S
C270 H261 0.930 . S
C270 C268 1.378 . S
C270 C271 1.367 . S
C271 C270 1.367 . S
C271 C273 1.433 . S
C272 C268 1.350 . S
C272 C269 1.463 . S
C272 N276 1.427 . S
C273 H263 0.929 . S
C273 C271 1.433 . S
C273 N276 1.384 . S
C274 H265 0.929 . S
C274 C266 1.378 . S
C274 C269 1.350 . S
C275 H262 0.929 . S
C275 C267 1.433 . S
C275 N277 1.384 . S
N276 C272 1.427 . S
N276 C273 1.384 . S
N277 C269 1.427 . S
N277 C275 1.384 . S
H278 C284 0.930 . S
H279 C288 0.930 . S
H280 C293 0.929 . S
H281 C291 0.929 . S
H282 C286 0.929 . S
H283 C292 0.929 . S
C284 H278 0.930 . S
C284 C285 1.367 . S
C284 C292 1.378 . S
C285 C284 1.367 . S
C285 C293 1.433 . S
C286 H282 0.929 . S
C286 C288 1.378 . S
C286 C290 1.350 . S
C287 C290 1.463 . S
C287 C292 1.350 . S
C287 N295 1.427 . S
C288 H279 0.930 . S
C288 C286 1.378 . S
C288 C289 1.367 . S
C289 C288 1.367 . S
C289 C291 1.433 . S
C290 C286 1.350 . S
C290 C287 1.463 . S
C290 N294 1.427 . S
C291 H281 0.929 . S
C291 C289 1.433 . S
C291 N294 1.384 . S
C292 H283 0.929 . S
C292 C284 1.378 . S
C292 C287 1.350 . S
C293 H280 0.929 . S
C293 C285 1.433 . S
C293 N295 1.384 . S
N294 C290 1.427 . S
N294 C291 1.384 . S
N295 C287 1.427 . S
N295 C293 1.384 . S
H296 C302 0.928 . S
H297 C306 0.930 . S
H298 C311 0.929 . S
H299 C309 0.929 . S
H300 C304 0.929 1_554 S
H301 C310 0.929 . S
C302 H296 0.928 . S
C302 C303 1.368 . S
C302 C310 1.377 . S
C303 C302 1.368 . S
C303 C311 1.437 1_556 S
C304 H300 0.929 1_556 S
C304 C306 1.378 . S
C304 C308 1.350 . S
C305 C308 1.463 . S
C305 C310 1.350 . S
C305 N313 1.427 1_556 S
C306 H297 0.930 . S
C306 C304 1.378 . S
C306 C307 1.367 . S
C307 C306 1.367 . S
C307 C309 1.433 . S
C308 C304 1.350 . S
C308 C305 1.463 . S
C308 N312 1.427 . S
C309 H299 0.929 . S
C309 C307 1.433 . S
C309 N312 1.384 . S
C310 H301 0.929 . S
C310 C302 1.377 . S
C310 C305 1.350 . S
C311 H298 0.929 . S
C311 C303 1.437 1_554 S
C311 N313 1.384 . S
N312 C308 1.427 . S
N312 C309 1.384 . S
N313 C305 1.427 1_554 S
N313 C311 1.384 . S
H314 C320 0.930 . S
H315 C324 0.930 . S
H316 C329 0.929 . S
H317 C327 0.929 . S
H318 C322 0.929 . S
H319 C328 0.929 . S
C320 H314 0.930 . S
C320 C321 1.367 . S
C320 C328 1.378 1_554 S
C321 C320 1.367 . S
C321 C329 1.433 . S
C322 H318 0.929 . S
C322 C324 1.378 . S
C322 C326 1.350 . S
C323 C326 1.463 . S
C323 C328 1.350 . S
C323 N331 1.427 . S
C324 H315 0.930 . S
C324 C322 1.378 . S
C324 C325 1.367 . S
C325 C324 1.367 . S
C325 C327 1.433 . S
C326 C322 1.350 . S
C326 C323 1.463 . S
C326 N330 1.427 . S
C327 H317 0.929 . S
C327 C325 1.433 . S
C327 N330 1.384 . S
C328 H319 0.929 . S
C328 C320 1.378 1_556 S
C328 C323 1.350 . S
C329 H316 0.929 . S
C329 C321 1.433 . S
C329 N331 1.384 1_554 S
N330 C326 1.427 . S
N330 C327 1.384 . S
N331 C323 1.427 . S
N331 C329 1.384 1_556 S
H332 C338 0.930 . S
H333 C342 0.930 . S
H334 C347 0.929 . S
H335 C345 0.929 . S
H336 C340 0.929 . S
H337 C346 0.929 . S
C338 H332 0.930 . S
C338 C339 1.367 . S
C338 C346 1.378 1_554 S
C339 C338 1.367 . S
C339 C347 1.433 . S
C340 H336 0.929 . S
C340 C342 1.378 1_554 S
C340 C344 1.350 1_554 S
C341 C344 1.463 1_554 S
C341 C346 1.350 1_554 S
C341 N349 1.427 . S
C342 H333 0.930 . S
C342 C340 1.378 1_556 S
C342 C343 1.367 . S
C343 C342 1.367 . S
C343 C345 1.433 . S
C344 C340 1.350 1_556 S
C344 C341 1.463 1_556 S
C344 N348 1.427 . S
C345 H335 0.929 . S
C345 C343 1.433 . S
C345 N348 1.384 . S
C346 H337 0.929 . S
C346 C338 1.378 1_556 S
C346 C341 1.350 1_556 S
C347 H334 0.929 . S
C347 C339 1.433 . S
C347 N349 1.384 . S
N348 C344 1.427 . S
N348 C345 1.384 . S
N349 C341 1.427 . S
N349 C347 1.384 . S
H350 C356 0.930 . S
H351 C360 0.930 . S
H352 C365 0.929 . S
H353 C363 0.956 . S
H354 C358 0.929 . S
H355 C364 0.929 . S
C356 H350 0.930 . S
C356 C357 1.367 1_556 S
C356 C364 1.378 . S
C357 C356 1.367 1_554 S
C357 C365 1.433 . S
C358 H354 0.929 . S
C358 C360 1.378 . S
C358 C362 1.350 . S
C359 C362 1.463 . S
C359 C364 1.350 . S
C359 N367 1.427 1_556 S
C360 H351 0.930 . S
C360 C358 1.378 . S
C360 C361 1.367 . S
C361 C360 1.367 . S
C361 C363 1.418 1_655 S
C362 C358 1.350 . S
C362 C359 1.463 . S
C362 N366 1.427 . S
C363 H353 0.956 . S
C363 C361 1.418 1_455 S
C363 N366 1.373 1_455 S
C364 H355 0.929 . S
C364 C356 1.378 . S
C364 C359 1.350 . S
C365 H352 0.929 . S
C365 C357 1.433 . S
C365 N367 1.384 . S
N366 C362 1.427 . S
N366 C363 1.373 1_655 S
N367 C359 1.427 1_554 S
N367 C365 1.384 . S
H368 C374 0.930 . S
H369 C378 0.920 1_655 S
H370 C383 0.929 . S
H371 C381 0.929 . S
H372 C376 0.929 . S
H373 C382 0.929 . S
C374 H368 0.930 . S
C374 C375 1.367 . S
C374 C382 1.378 . S
C375 C374 1.367 . S
C375 C383 1.433 . S
C376 H372 0.929 . S
C376 C378 1.384 . S
C376 C380 1.350 . S
C377 C380 1.463 . S
C377 C382 1.350 . S
C377 N385 1.427 . S
C378 H369 0.920 1_455 S
C378 C376 1.384 . S
C378 C379 1.371 . S
C379 C378 1.371 . S
C379 C381 1.433 . S
C380 C376 1.350 . S
C380 C377 1.463 . S
C380 N384 1.427 . S
C381 H371 0.929 . S
C381 C379 1.433 . S
C381 N384 1.384 . S
C382 H373 0.929 . S
C382 C374 1.378 . S
C382 C377 1.350 . S
C383 H370 0.929 . S
C383 C375 1.433 . S
C383 N385 1.384 . S
N384 C380 1.427 . S
N384 C381 1.384 . S
N385 C377 1.427 . S
N385 C383 1.384 . S
H386 C392 0.930 . S
H387 C396 0.930 . S
H388 C401 0.929 . S
H389 C399 0.929 . S
H390 C394 0.929 . S
H391 C400 0.929 . S
C392 H386 0.930 . S
C392 C393 1.370 . S
C392 C400 1.378 . S
C393 C392 1.370 . S
C393 C401 1.429 1_545 S
C394 H390 0.929 . S
C394 C396 1.378 . S
C394 C398 1.350 . S
C395 C398 1.463 . S
C395 C400 1.350 1_565 S
C395 N403 1.427 . S
C396 H387 0.930 . S
C396 C394 1.378 . S
C396 C397 1.367 . S
C397 C396 1.367 . S
C397 C399 1.433 1_565 S
C398 C394 1.350 . S
C398 C395 1.463 . S
C398 N402 1.427 1_565 S
C399 H389 0.929 . S
C399 C397 1.433 1_545 S
C399 N402 1.384 . S
C400 H391 0.929 . S
C400 C392 1.378 . S
C400 C395 1.350 1_545 S
C401 H388 0.929 . S
C401 C393 1.429 1_565 S
C401 N403 1.384 . S
N402 C398 1.427 1_545 S
N402 C399 1.384 . S
N403 C395 1.427 . S
N403 C401 1.384 . S
H404 C410 0.930 . S
H405 C414 0.930 . S
H406 C419 0.929 . S
H407 C417 0.929 . S
H408 C412 0.929 . S
H409 C418 0.929 . S
C410 H404 0.930 . S
C410 C411 1.367 . S
C410 C418 1.378 . S
C411 C410 1.367 . S
C411 C419 1.433 . S
C412 H408 0.929 . S
C412 C414 1.378 . S
C412 C416 1.350 . S
C413 C416 1.463 . S
C413 C418 1.350 . S
C413 N421 1.427 . S
C414 H405 0.930 . S
C414 C412 1.378 . S
C414 C415 1.367 . S
C415 C414 1.367 . S
C415 C417 1.433 . S
C416 C412 1.350 . S
C416 C413 1.463 . S
C416 N420 1.427 . S
C417 H407 0.929 . S
C417 C415 1.433 . S
C417 N420 1.384 . S
C418 H409 0.929 . S
C418 C410 1.378 . S
C418 C413 1.350 . S
C419 H406 0.929 . S
C419 C411 1.433 . S
C419 N421 1.384 . S
N420 C416 1.427 . S
N420 C417 1.384 . S
N421 C413 1.427 . S
N421 C419 1.384 . S
H422 C428 0.930 . S
H423 C432 0.930 . S
H424 C437 0.929 . S
H425 C435 0.929 . S
H426 C430 0.929 . S
H427 C436 0.929 . S
C428 H422 0.930 . S
C428 C429 1.367 . S
C428 C436 1.378 . S
C429 C428 1.367 . S
C429 C437 1.433 . S
C430 H426 0.929 . S
C430 C432 1.378 . S
C430 C434 1.350 . S
C431 C434 1.463 . S
C431 C436 1.350 . S
C431 N439 1.427 . S
C432 H423 0.930 . S
C432 C430 1.378 . S
C432 C433 1.367 . S
C433 C432 1.367 . S
C433 C435 1.433 . S
C434 C430 1.350 . S
C434 C431 1.463 . S
C434 N438 1.427 . S
C435 H425 0.929 . S
C435 C433 1.433 . S
C435 N438 1.384 . S
C436 H427 0.929 . S
C436 C428 1.378 . S
C436 C431 1.350 . S
C437 H424 0.929 . S
C437 C429 1.433 . S
C437 N439 1.384 . S
N438 C434 1.427 . S
N438 C435 1.384 . S
N439 C431 1.427 . S
N439 C437 1.384 . S
H440 C446 0.930 . S
H441 C450 0.930 . S
H442 C455 0.929 . S
H443 C453 0.930 1_554 S
H444 C448 0.929 . S
H445 C454 0.929 . S
C446 H440 0.930 . S
C446 C447 1.367 . S
C446 C454 1.378 . S
C447 C446 1.367 . S
C447 C455 1.433 1_554 S
C448 H444 0.929 . S
C448 C450 1.378 . S
C448 C452 1.350 . S
C449 C452 1.463 . S
C449 C454 1.350 1_556 S
C449 N457 1.427 . S
C450 H441 0.930 . S
C450 C448 1.378 . S
C450 C451 1.367 1_655 S
C451 C450 1.367 1_455 S
C451 C453 1.433 . S
C452 C448 1.350 . S
C452 C449 1.463 . S
C452 N456 1.427 . S
C453 H443 0.930 1_556 S
C453 C451 1.433 . S
C453 N456 1.384 1_455 S
C454 H445 0.929 . S
C454 C446 1.378 . S
C454 C449 1.350 1_554 S
C455 H442 0.929 . S
C455 C447 1.433 1_556 S
C455 N457 1.384 . S
N456 C452 1.427 . S
N456 C453 1.384 1_655 S
N457 C449 1.427 . S
N457 C455 1.384 . S
H458 C464 0.930 . S
H459 C468 0.930 . S
H460 C473 0.929 . S
H461 C471 0.929 . S
H462 C466 0.929 . S
H463 C472 0.927 1_554 S
C464 H458 0.930 . S
C464 C465 1.374 1_554 S
C464 C472 1.376 1_554 S
C465 C464 1.374 1_556 S
C465 C473 1.426 1_565 S
C466 H462 0.929 . S
C466 C468 1.378 . S
C466 C470 1.350 . S
C467 C470 1.463 . S
C467 C472 1.353 1_545 S
C467 N475 1.427 . S
C468 H459 0.930 . S
C468 C466 1.378 . S
C468 C469 1.367 . S
C469 C468 1.367 . S
C469 C471 1.433 1_545 S
C470 C466 1.350 . S
C470 C467 1.463 . S
C470 N474 1.427 1_545 S
C471 H461 0.929 . S
C471 C469 1.433 1_565 S
C471 N474 1.384 . S
C472 H463 0.927 1_556 S
C472 C464 1.376 1_556 S
C472 C467 1.353 1_565 S
C473 H460 0.929 . S
C473 C465 1.426 1_545 S
C473 N475 1.384 . S
N474 C470 1.427 1_565 S
N474 C471 1.384 . S
N475 C467 1.427 . S
N475 C473 1.384 . S
H476 C482 0.930 . S
H477 C486 0.930 . S
H478 C491 0.929 . S
H479 C489 0.929 1_554 S
H480 C484 0.929 . S
H481 C490 0.929 . S
C482 H476 0.930 . S
C482 C483 1.367 . S
C482 C490 1.378 . S
C483 C482 1.367 . S
C483 C491 1.433 1_554 S
C484 H480 0.929 . S
C484 C486 1.378 . S
C484 C488 1.350 . S
C485 C488 1.463 . S
C485 C490 1.350 1_556 S
C485 N493 1.427 . S
C486 H477 0.930 . S
C486 C484 1.378 . S
C486 C487 1.367 . S
C487 C486 1.367 . S
C487 C489 1.433 . S
C488 C484 1.350 . S
C488 C485 1.463 . S
C488 N492 1.427 1_556 S
C489 H479 0.929 1_556 S
C489 C487 1.433 . S
C489 N492 1.384 1_556 S
C490 H481 0.929 . S
C490 C482 1.378 . S
C490 C485 1.350 1_554 S
C491 H478 0.929 . S
C491 C483 1.433 1_556 S
C491 N493 1.384 . S
N492 C488 1.427 1_554 S
N492 C489 1.384 1_554 S
N493 C485 1.427 . S
N493 C491 1.384 . S
H494 C500 0.930 . S
H495 C504 0.930 1_554 S
H496 C509 0.929 . S
H497 C507 0.929 . S
H498 C502 0.929 . S
H499 C508 0.929 . S
C500 H494 0.930 . S
C500 C501 1.367 . S
C500 C508 1.378 1_554 S
C501 C500 1.367 . S
C501 C509 1.433 . S
C502 H498 0.929 . S
C502 C504 1.378 1_554 S
C502 C506 1.350 1_554 S
C503 C506 1.463 1_554 S
C503 C508 1.350 1_554 S
C503 N511 1.427 . S
C504 H495 0.930 1_556 S
C504 C502 1.378 1_556 S
C504 C505 1.367 . S
C505 C504 1.367 . S
C505 C507 1.433 . S
C506 C502 1.350 1_556 S
C506 C503 1.463 1_556 S
C506 N510 1.427 . S
C507 H497 0.929 . S
C507 C505 1.433 . S
C507 N510 1.384 . S
C508 H499 0.929 . S
C508 C500 1.378 1_556 S
C508 C503 1.350 1_556 S
C509 H496 0.929 . S
C509 C501 1.433 . S
C509 N511 1.384 . S
N510 C506 1.427 . S
N510 C507 1.384 . S
N511 C503 1.427 . S
N511 C509 1.384 . S
H512 C518 0.930 . S
H513 C522 0.930 . S
H514 C527 0.929 . S
H515 C525 0.929 1_556 S
H516 C520 0.929 . S
H517 C526 0.929 . S
C518 H512 0.930 . S
C518 C519 1.367 . S
C518 C526 1.378 . S
C519 C518 1.367 . S
C519 C527 1.433 . S
C520 H516 0.929 . S
C520 C522 1.378 . S
C520 C524 1.350 . S
C521 C524 1.463 . S
C521 C526 1.350 . S
C521 N529 1.427 . S
C522 H513 0.930 . S
C522 C520 1.378 . S
C522 C523 1.367 . S
C523 C522 1.367 . S
C523 C525 1.433 . S
C524 C520 1.350 . S
C524 C521 1.463 . S
C524 N528 1.427 . S
C525 H515 0.929 1_554 S
C525 C523 1.433 . S
C525 N528 1.384 . S
C526 H517 0.929 . S
C526 C518 1.378 . S
C526 C521 1.350 . S
C527 H514 0.929 . S
C527 C519 1.433 . S
C527 N529 1.384 . S
N528 C524 1.427 . S
N528 C525 1.384 . S
N529 C521 1.427 . S
N529 C527 1.384 . S
H530 C536 0.930 . S
H531 C540 0.930 . S
H532 C545 0.929 . S
H533 C543 0.929 . S
H534 C538 0.929 . S
H535 C544 0.929 . S
C536 H530 0.930 . S
C536 C537 1.350 1_565 S
C536 C544 1.378 . S
C537 C536 1.350 1_545 S
C537 C545 1.449 . S
C538 H534 0.929 . S
C538 C540 1.378 . S
C538 C542 1.350 . S
C539 C542 1.463 . S
C539 C544 1.350 1_545 S
C539 N547 1.427 . S
C540 H531 0.930 . S
C540 C538 1.378 . S
C540 C541 1.367 . S
C541 C540 1.367 . S
C541 C543 1.433 1_545 S
C542 C538 1.350 . S
C542 C539 1.463 . S
C542 N546 1.427 1_545 S
C543 H533 0.929 . S
C543 C541 1.433 1_565 S
C543 N546 1.384 . S
C544 H535 0.929 . S
C544 C536 1.378 . S
C544 C539 1.350 1_565 S
C545 H532 0.929 . S
C545 C537 1.449 . S
C545 N547 1.384 . S
N546 C542 1.427 1_565 S
N546 C543 1.384 . S
N547 C539 1.427 . S
N547 C545 1.384 . S
H548 C554 0.930 . S
H549 C558 0.930 . S
H550 C563 0.929 . S
H551 C561 0.929 1_556 S
H552 C556 0.929 . S
H553 C562 0.929 . S
C554 H548 0.930 . S
C554 C555 1.367 . S
C554 C562 1.378 . S
C555 C554 1.367 . S
C555 C563 1.433 . S
C556 H552 0.929 . S
C556 C558 1.378 . S
C556 C560 1.350 . S
C557 C560 1.463 . S
C557 C562 1.350 . S
C557 N565 1.427 . S
C558 H549 0.930 . S
C558 C556 1.378 . S
C558 C559 1.367 1_554 S
C559 C558 1.367 1_556 S
C559 C561 1.433 1_556 S
C560 C556 1.350 . S
C560 C557 1.463 . S
C560 N564 1.427 . S
C561 H551 0.929 1_554 S
C561 C559 1.433 1_554 S
C561 N564 1.384 . S
C562 H553 0.929 . S
C562 C554 1.378 . S
C562 C557 1.350 . S
C563 H550 0.929 . S
C563 C555 1.433 . S
C563 N565 1.384 . S
N564 C560 1.427 . S
N564 C561 1.384 . S
N565 C557 1.427 . S
N565 C563 1.384 . S
H566 C572 0.930 . S
H567 C576 0.930 . S
H568 C581 0.929 . S
H569 C579 0.929 . S
H570 C574 0.929 . S
H571 C580 0.929 . S
C572 H566 0.930 . S
C572 C573 1.367 . S
C572 C580 1.378 . S
C573 C572 1.367 . S
C573 C581 1.433 . S
C574 H570 0.929 . S
C574 C576 1.378 . S
C574 C578 1.350 . S
C575 C578 1.463 . S
C575 C580 1.350 . S
C575 N583 1.427 . S
C576 H567 0.930 . S
C576 C574 1.378 . S
C576 C577 1.367 1_554 S
C577 C576 1.367 1_556 S
C577 C579 1.433 . S
C578 C574 1.350 . S
C578 C575 1.463 . S
C578 N582 1.427 . S
C579 H569 0.929 . S
C579 C577 1.433 . S
C579 N582 1.384 1_556 S
C580 H571 0.929 . S
C580 C572 1.378 . S
C580 C575 1.350 . S
C581 H568 0.929 . S
C581 C573 1.433 . S
C581 N583 1.384 . S
N582 C578 1.427 . S
N582 C579 1.384 1_554 S
N583 C575 1.427 . S
N583 C581 1.384 . S
H584 C590 0.930 . S
H585 C594 0.930 . S
H586 C599 0.929 . S
H587 C597 0.929 . S
H588 C592 0.929 . S
H589 C598 0.929 . S
C590 H584 0.930 . S
C590 C591 1.367 . S
C590 C598 1.378 . S
C591 C590 1.367 . S
C591 C599 1.433 . S
C592 H588 0.929 . S
C592 C594 1.378 . S
C592 C596 1.350 . S
C593 C596 1.463 . S
C593 C598 1.350 . S
C593 N601 1.427 . S
C594 H585 0.930 . S
C594 C592 1.378 . S
C594 C595 1.367 . S
C595 C594 1.367 . S
C595 C597 1.433 . S
C596 C592 1.350 . S
C596 C593 1.463 . S
C596 N600 1.427 . S
C597 H587 0.929 . S
C597 C595 1.433 . S
C597 N600 1.384 . S
C598 H589 0.929 . S
C598 C590 1.378 . S
C598 C593 1.350 . S
C599 H586 0.929 . S
C599 C591 1.433 . S
C599 N601 1.384 . S
N600 C596 1.427 . S
N600 C597 1.384 . S
N601 C593 1.427 . S
N601 C599 1.384 . S
H602 C608 0.930 . S
H603 C612 0.930 . S
H604 C617 0.929 . S
H605 C615 0.929 . S
H606 C610 0.929 . S
H607 C616 0.929 . S
C608 H602 0.930 . S
C608 C609 1.367 . S
C608 C616 1.378 . S
C609 C608 1.367 . S
C609 C617 1.433 1_565 S
C610 H606 0.929 . S
C610 C612 1.378 . S
C610 C614 1.350 1_545 S
C611 C614 1.463 . S
C611 C616 1.350 . S
C611 N619 1.427 1_565 S
C612 H603 0.930 . S
C612 C610 1.378 . S
C612 C613 1.367 1_545 S
C613 C612 1.367 1_565 S
C613 C615 1.433 . S
C614 C610 1.350 1_565 S
C614 C611 1.463 . S
C614 N618 1.427 . S
C615 H605 0.929 . S
C615 C613 1.433 . S
C615 N618 1.384 . S
C616 H607 0.929 . S
C616 C608 1.378 . S
C616 C611 1.350 . S
C617 H604 0.929 . S
C617 C609 1.433 1_545 S
C617 N619 1.384 . S
N618 C614 1.427 . S
N618 C615 1.384 . S
N619 C611 1.427 1_545 S
N619 C617 1.384 . S
H620 C626 0.930 . S
H621 C630 0.930 . S
H622 C635 0.929 . S
H623 C633 0.929 . S
H624 C628 0.929 . S
H625 C634 0.929 . S
C626 H620 0.930 . S
C626 C627 1.367 . S
C626 C634 1.378 . S
C627 C626 1.367 . S
C627 C635 1.433 . S
C628 H624 0.929 . S
C628 C630 1.378 . S
C628 C632 1.350 . S
C629 C632 1.463 . S
C629 C634 1.350 . S
C629 N637 1.427 . S
C630 H621 0.930 . S
C630 C628 1.378 . S
C630 C631 1.367 . S
C631 C630 1.367 . S
C631 C633 1.433 . S
C632 C628 1.350 . S
C632 C629 1.463 . S
C632 N636 1.427 . S
C633 H623 0.929 . S
C633 C631 1.433 . S
C633 N636 1.384 . S
C634 H625 0.929 . S
C634 C626 1.378 . S
C634 C629 1.350 . S
C635 H622 0.929 . S
C635 C627 1.433 . S
C635 N637 1.384 . S
N636 C632 1.427 . S
N636 C633 1.384 . S
N637 C629 1.427 . S
N637 C635 1.384 . S
H638 C644 0.930 . S
H639 C648 0.930 . S
H640 C653 0.929 . S
H641 C651 0.929 . S
H642 C646 0.929 . S
H643 C652 0.929 . S
C644 H638 0.930 . S
C644 C645 1.367 . S
C644 C652 1.378 . S
C645 C644 1.367 . S
C645 C653 1.433 . S
C646 H642 0.929 . S
C646 C648 1.378 . S
C646 C650 1.350 . S
C647 C650 1.463 . S
C647 C652 1.350 . S
C647 N655 1.427 . S
C648 H639 0.930 . S
C648 C646 1.378 . S
C648 C649 1.367 . S
C649 C648 1.367 . S
C649 C651 1.433 . S
C650 C646 1.350 . S
C650 C647 1.463 . S
C650 N654 1.427 . S
C651 H641 0.929 . S
C651 C649 1.433 . S
C651 N654 1.384 . S
C652 H643 0.929 . S
C652 C644 1.378 . S
C652 C647 1.350 . S
C653 H640 0.929 . S
C653 C645 1.433 . S
C653 N655 1.384 . S
N654 C650 1.427 . S
N654 C651 1.384 . S
N655 C647 1.427 . S
N655 C653 1.384 . S
C231 C82 1.591 1_565 S
C235 C114 1.677 . S
C253 C144 1.804 . S
C249 C95 1.719 . S
C271 N178 1.357 . S
C267 C56 1.305 . S
C289 N208 1.400 . S
C285 C69 1.350 . S
C307 C105 1.675 . S
C303 C30 1.587 . S
C321 C43 1.693 . S
C325 C135 1.809 . S
C339 C4 1.296 . S
C343 N170 1.357 . S
C357 C17 1.286 . S
C361 N200 1.404 . S
C379 C120 0.440 . S
C375 C74 0.507 . S
C397 C150 0.782 . S
C393 C87 0.787 . S
C415 C191 1.063 . S
C411 C100 1.049 . S
C429 C61 0.604 . S
C433 C221 0.602 . S
C447 C22 0.497 . S
C451 C131 0.425 . S
C469 C161 0.777 . S
C465 C35 0.761 1_566 S
C487 C180 1.056 . S
C483 C48 1.029 . S
C501 C9 0.609 . S
C505 C210 0.596 . S
C519 C73 1.472 . S
C523 N110 1.467 . S
C537 C86 1.429 . S
C541 N140 1.432 . S
C559 C165 1.657 . S
C555 C99 1.628 . S
C577 C195 1.594 . S
C573 C60 1.561 . S
C591 C21 1.469 . S
C595 N118 1.474 . S
C613 N148 1.420 . S
C609 C34 1.438 1_565 S
C631 C174 1.658 . S
C627 C47 1.628 . S
C645 C8 1.560 . S
C649 C204 1.594 . S
