# Generated by pormake.
# Topology zzz, (3,6)-cn, num edge types: 1
# Building blocks:
#     Node 0, Type 0, BuildingBlock: VETTIZ_charged_linker_0, # of connection points: 3
#     Node 1, Type 0, BuildingBlock: VETTIZ_charged_linker_0, # of connection points: 3
#     Node 2, Type 0, BuildingBlock: VETTIZ_charged_linker_0, # of connection points: 3
#     Node 3, Type 0, BuildingBlock: VETTIZ_charged_linker_0, # of connection points: 3
#     Node 4, Type 0, BuildingBlock: VETTIZ_charged_linker_0, # of connection points: 3
#     Node 5, Type 0, BuildingBlock: VETTIZ_charged_linker_0, # of connection points: 3
#     Node 6, Type 0, BuildingBlock: VETTIZ_charged_linker_0, # of connection points: 3
#     Node 7, Type 0, BuildingBlock: VETTIZ_charged_linker_0, # of connection points: 3
#     Node 8, Type 1, BuildingBlock: KUMBOL_clean_sbu_0, # of connection points: 6
#     Node 9, Type 1, BuildingBlock: KUMBOL_clean_sbu_0, # of connection points: 6
#     Node 10, Type 1, BuildingBlock: KUMBOL_clean_sbu_0, # of connection points: 6
#     Node 11, Type 1, BuildingBlock: KUMBOL_clean_sbu_0, # of connection points: 6
#     Edge 12, Type (0, 1), BuildingBlock: KIFKEQ_clean_linker_1, # of connection points: 2
#     Edge 13, Type (0, 1), BuildingBlock: KIFKEQ_clean_linker_1, # of connection points: 2
#     Edge 14, Type (0, 1), BuildingBlock: KIFKEQ_clean_linker_1, # of connection points: 2
#     Edge 15, Type (0, 1), BuildingBlock: KIFKEQ_clean_linker_1, # of connection points: 2
#     Edge 16, Type (0, 1), BuildingBlock: KIFKEQ_clean_linker_1, # of connection points: 2
#     Edge 17, Type (0, 1), BuildingBlock: KIFKEQ_clean_linker_1, # of connection points: 2
#     Edge 18, Type (0, 1), BuildingBlock: KIFKEQ_clean_linker_1, # of connection points: 2
#     Edge 19, Type (0, 1), BuildingBlock: KIFKEQ_clean_linker_1, # of connection points: 2
#     Edge 20, Type (0, 1), BuildingBlock: KIFKEQ_clean_linker_1, # of connection points: 2
#     Edge 21, Type (0, 1), BuildingBlock: KIFKEQ_clean_linker_1, # of connection points: 2
#     Edge 22, Type (0, 1), BuildingBlock: KIFKEQ_clean_linker_1, # of connection points: 2
#     Edge 23, Type (0, 1), BuildingBlock: KIFKEQ_clean_linker_1, # of connection points: 2
#     Edge 24, Type (0, 1), BuildingBlock: KIFKEQ_clean_linker_1, # of connection points: 2
#     Edge 25, Type (0, 1), BuildingBlock: KIFKEQ_clean_linker_1, # of connection points: 2
#     Edge 26, Type (0, 1), BuildingBlock: KIFKEQ_clean_linker_1, # of connection points: 2
#     Edge 27, Type (0, 1), BuildingBlock: KIFKEQ_clean_linker_1, # of connection points: 2
#     Edge 28, Type (0, 1), BuildingBlock: KIFKEQ_clean_linker_1, # of connection points: 2
#     Edge 29, Type (0, 1), BuildingBlock: KIFKEQ_clean_linker_1, # of connection points: 2
#     Edge 30, Type (0, 1), BuildingBlock: KIFKEQ_clean_linker_1, # of connection points: 2
#     Edge 31, Type (0, 1), BuildingBlock: KIFKEQ_clean_linker_1, # of connection points: 2
#     Edge 32, Type (0, 1), BuildingBlock: KIFKEQ_clean_linker_1, # of connection points: 2
#     Edge 33, Type (0, 1), BuildingBlock: KIFKEQ_clean_linker_1, # of connection points: 2
#     Edge 34, Type (0, 1), BuildingBlock: KIFKEQ_clean_linker_1, # of connection points: 2
#     Edge 35, Type (0, 1), BuildingBlock: KIFKEQ_clean_linker_1, # of connection points: 2
# Relax obj value: 0.302
# Max RMSD: 0.229
# Mean RMSD: 0.215
data_MOF--net-zzz--node1-KUMBOL_clean_sbu_0--node2-VETTIZ_charged_linker_0--edge1-KIFKEQ_clean_linker_1
_symmetry_space_group_name_H-M    P1
_symmetry_Int_Tables_number       1
_symmetry_cell_setting            triclinic
loop_
_symmetry_equiv_pos_as_xyz
'x, y, z'
_cell_length_a     56.949539
_cell_length_b     56.950869
_cell_length_c     19.822572
_cell_angle_alpha  90.999177
_cell_angle_beta   90.039856
_cell_angle_gamma 89.993778
loop_
_atom_site_label
_atom_site_type_symbol
_atom_site_fract_x
_atom_site_fract_y
_atom_site_fract_z
_atom_type_partial_charge
C0 C 0.80721 0.54152 0.28694 0.0
C1 C 0.82768 0.5517 0.31672 0.0
C2 C 0.83436 0.57437 0.29757 0.0
C3 C 0.8039 0.57487 0.2127 0.0
C4 C 0.79507 0.55397 0.23582 0.0
C5 C 0.7718 0.54826 0.2005 0.0
H6 H 0.69544 0.57908 0.944 0.0
C7 C 0.78975 0.58268 0.15525 0.0
C8 C 0.76994 0.56801 0.1486 0.0
H9 H 0.68371 0.524 0.0869 0.0
H10 H 0.72159 0.53281 0.1402 0.0
H11 H 0.71677 0.61841 0.04774 0.0
H12 H 0.74275 0.56647 0.91009 0.0
H13 H 0.76685 0.58542 0.91852 0.0
H14 H 0.73955 0.59621 0.88463 0.0
H15 H 0.71493 0.61914 0.95733 0.0
H16 H 0.73989 0.63121 1.00184 0.0
C17 C 0.75203 0.54984 0.2534 0.0
C18 C 0.77347 0.52388 0.16612 0.0
C19 C 0.83116 0.6298 0.9782 0.0
C20 C 0.82483 0.63565 0.91172 0.0
C21 C 0.80066 0.63612 0.89555 0.0
C22 C 0.78387 0.62733 0.9404 0.0
C23 C 0.79124 0.61808 1.00222 0.0
C24 C 0.81425 0.62087 0.02204 0.0
C25 C 0.81884 0.61106 0.09079 0.0
C26 C 0.79534 0.59915 0.10481 0.0
C27 C 0.77943 0.60317 0.05245 0.0
C28 C 0.82398 0.63197 0.14003 0.0
C29 C 0.83929 0.59314 0.08538 0.0
C30 C 0.7005 0.56918 0.98785 0.0
C31 C 0.68602 0.55121 1.01179 0.0
C32 C 0.69428 0.53812 0.06728 0.0
C33 C 0.71616 0.54339 0.09871 0.0
C34 C 0.7301 0.5619 0.07447 0.0
C35 C 0.72203 0.57413 1.01922 0.0
C36 C 0.73911 0.59218 0.99582 0.0
C37 C 0.75829 0.59004 0.04826 0.0
C38 C 0.75336 0.57224 0.0951 0.0
C39 C 0.72713 0.61659 1.00035 0.0
C40 C 0.7475 0.58491 0.92363 0.0
H41 H 0.8283 0.60322 0.23459 0.0
H42 H 0.80098 0.52454 0.30289 0.0
H43 H 0.78921 0.52289 0.13302 0.0
H44 H 0.75801 0.52002 0.13418 0.0
H45 H 0.77494 0.50991 0.20434 0.0
H46 H 0.75339 0.56653 0.28316 0.0
H47 H 0.75321 0.53503 0.28902 0.0
H48 H 0.73443 0.54969 0.23026 0.0
H49 H 0.84926 0.62984 0.99436 0.0
H50 H 0.79476 0.6418 0.84657 0.0
H51 H 0.76595 0.62698 0.92378 0.0
H52 H 0.82321 0.6493 0.11502 0.0
H53 H 0.84186 0.63071 0.16218 0.0
H54 H 0.81089 0.63297 0.18153 0.0
H55 H 0.83565 0.5798 0.04507 0.0
H56 H 0.84233 0.58359 0.13239 0.0
H57 H 0.85609 0.60202 0.07342 0.0
H58 H 0.84943 0.58287 0.32084 0.0
C59 C 0.82243 0.58603 0.24671 0.0
C60 C 0.90496 0.8102 0.9082 0.0
C61 C 0.90257 0.83489 0.90693 0.0
C62 C 0.9041 0.84722 0.96947 0.0
C63 C 0.91962 0.81267 0.0228 0.0
C64 C 0.9145 0.79965 0.96556 0.0
C65 C 0.92349 0.77485 0.97005 0.0
H66 H 1.00893 0.70319 0.06657 0.0
C67 C 0.93505 0.7985 0.06623 0.0
C68 C 0.93741 0.77627 0.03623 0.0
H69 H 0.9487 0.68894 0.93875 0.0
H70 H 0.9307 0.72464 0.97737 0.0
H71 H 0.01383 0.76369 0.05327 0.0
H72 H 0.9697 0.72809 0.19884 0.0
H73 H 0.9899 0.7491 0.23272 0.0
H74 H 1.00076 0.72226 0.19544 0.0
H75 H 0.02641 0.74259 0.1095 0.0
H76 H 0.01844 0.77133 0.14023 0.0
C77 C 0.93951 0.76985 0.90818 0.0
C78 C 0.90195 0.75819 0.97421 0.0
C79 C 0.97464 0.8422 0.25752 0.0
C80 C 0.99282 0.83793 0.30335 0.0
C81 C 1.00472 0.81602 0.2969 0.0
C82 C 0.99797 0.79886 0.24703 0.0
C83 C 0.97917 0.80357 0.20266 0.0
C84 C 0.96818 0.82521 0.20914 0.0
C85 C 0.9495 0.8288 0.15776 0.0
C86 C 0.94969 0.80534 0.12099 0.0
C87 C 0.9672 0.79011 0.14585 0.0
C88 C 0.95739 0.84938 0.11206 0.0
C89 C 0.9259 0.8329 0.19531 0.0
C90 C 0.99202 0.7081 0.04626 0.0
C91 C 0.98085 0.69366 0.99593 0.0
C92 C 0.95826 0.70005 0.97426 0.0
C93 C 0.94782 0.72091 0.99611 0.0
C94 C 0.96013 0.7364 0.03866 0.0
C95 C 0.98098 0.72953 0.06771 0.0
C96 C 0.98849 0.74773 0.12162 0.0
C97 C 0.96974 0.7671 0.11438 0.0
C98 C 0.95388 0.76014 0.06296 0.0
C99 C 1.01322 0.75687 0.10546 0.0
C100 C 0.98723 0.73623 0.1912 0.0
H101 H 0.91423 0.84687 0.07181 0.0
H102 H 0.90176 0.79947 0.86371 0.0
H103 H 0.88497 0.76784 0.97697 0.0
H104 H 0.90253 0.74737 0.02028 0.0
H105 H 0.90081 0.74634 0.9292 0.0
H106 H 0.95306 0.7838 0.90376 0.0
H107 H 0.92912 0.76928 0.86076 0.0
H108 H 0.94893 0.75303 0.9106 0.0
H109 H 0.96562 0.85894 0.25786 0.0
H110 H 0.01903 0.81203 0.33077 0.0
H111 H 1.00759 0.78264 0.2442 0.0
H112 H 0.97636 0.85364 0.11807 0.0
H113 H 0.94752 0.86575 0.12395 0.0
H114 H 0.95553 0.84512 0.05762 0.0
H115 H 0.92469 0.82166 0.24054 0.0
H116 H 0.91043 0.82807 0.16429 0.0
H117 H 0.92413 0.85147 0.21264 0.0
H118 H 0.90135 0.86593 0.97363 0.0
C119 C 0.91226 0.83614 0.0273 0.0
C120 C 0.82425 0.98398 0.05668 0.0
C121 C 0.83816 0.97344 1.00449 0.0
C122 C 0.82873 0.9542 0.96828 0.0
C123 C 0.79264 0.9562 0.03242 0.0
C124 C 0.80147 0.97473 0.07052 0.0
C125 C 0.78378 0.98212 0.12509 0.0
H126 H 0.67245 0.96317 0.2561 0.0
C127 C 0.7687 0.95062 0.0556 0.0
C128 C 0.76308 0.96529 0.11143 0.0
H129 H 0.72213 0.01403 0.33397 0.0
H130 H 0.75049 1.00177 0.24687 0.0
H131 H 0.6779 0.97467 0.11503 0.0
H132 H 0.70848 0.92085 0.23363 0.0
H133 H 0.70106 0.90736 0.15606 0.0
H134 H 0.67843 0.92127 0.20638 0.0
H135 H 0.66363 0.94695 0.12448 0.0
H136 H 0.68338 0.95242 0.05527 0.0
C137 C 0.77676 1.0079 0.11447 0.0
C138 C 0.79483 0.97812 0.19484 0.0
C139 C 0.71752 0.9002 0.9027 0.0
C140 C 0.69289 0.89771 0.90165 0.0
C141 C 0.68068 0.90028 0.96337 0.0
C142 C 0.69197 0.90929 0.02089 0.0
C143 C 0.71556 0.9163 1.01655 0.0
C144 C 0.72831 0.91043 0.95964 0.0
C145 C 0.75284 0.92019 0.96269 0.0
C146 C 0.75193 0.93462 0.0282 0.0
C147 C 0.7301 0.93221 0.05924 0.0
C148 C 0.75644 0.93587 0.90011 0.0
C149 C 0.77009 0.89914 0.96745 0.0
C150 C 0.68957 0.97146 0.25641 0.0
C151 C 0.69494 0.98923 0.30369 0.0
C152 C 0.71731 1.00014 0.29865 0.0
C153 C 0.73383 0.99295 0.24829 0.0
C154 C 0.72795 0.97477 0.2019 0.0
C155 C 0.70593 0.96462 0.2073 0.0
C156 C 0.70124 0.9465 0.15388 0.0
C157 C 0.72426 0.94641 0.11615 0.0
C158 C 0.74034 0.96304 0.14309 0.0
C159 C 0.68044 0.95534 0.10994 0.0
C160 C 0.69688 0.92271 0.18882 0.0
H161 H 0.80073 0.93099 0.95172 0.0
H162 H 0.83103 0.99865 0.08618 0.0
H163 H 0.80179 0.95993 0.19799 0.0
H164 H 0.78195 0.9804 0.23599 0.0
H165 H 0.8096 0.99053 0.20407 0.0
H166 H 0.77087 1.01046 0.0616 0.0
H167 H 0.7919 0.01977 0.12446 0.0
H168 H 0.76215 0.01337 0.14772 0.0
H169 H 0.72773 0.89723 0.85733 0.0
H170 H 0.66184 0.89802 0.96594 0.0
H171 H 0.68129 0.91228 0.06465 0.0
H172 H 0.74028 0.94618 0.88954 0.0
H173 H 0.76048 0.92506 0.8544 0.0
H174 H 0.77036 0.94915 0.9065 0.0
H175 H 0.76122 0.88293 0.98495 0.0
H176 H 0.7842 0.90243 1.00504 0.0
H177 H 0.77816 0.89487 0.91774 0.0
H178 H 0.83857 0.94586 0.92767 0.0
C179 C 0.80647 0.94553 0.98219 0.0
C180 C 0.54955 0.72736 0.28926 0.0
C181 C 0.55676 0.70489 0.31147 0.0
C182 C 0.5755 0.6936 0.27846 0.0
C183 C 0.57863 0.72535 0.19932 0.0
C184 C 0.56108 0.73746 0.23313 0.0
C185 C 0.55705 0.76139 0.20159 0.0
H186 H 0.58512 0.83481 0.93986 0.0
C187 C 0.58629 0.73917 0.14097 0.0
C188 C 0.57418 0.76075 0.14175 0.0
H189 H 0.53772 0.8514 0.10376 0.0
H190 H 0.54487 0.81274 0.1515 0.0
H191 H 0.62564 0.8106 0.02786 0.0
H192 H 0.5665 0.78644 0.91232 0.0
H193 H 0.5869 0.76355 0.90516 0.0
H194 H 0.59422 0.79214 0.87329 0.0
H195 H 0.62379 0.8116 0.93753 0.0
H196 H 0.63507 0.78615 0.97952 0.0
C197 C 0.56371 0.78058 0.25394 0.0
C198 C 0.53131 0.76298 0.17809 0.0
C199 C 0.63386 0.69737 0.96026 0.0
C200 C 0.6387 0.70303 0.89286 0.0
C201 C 0.637 0.72669 0.87372 0.0
C202 C 0.62801 0.74377 0.91865 0.0
C203 C 0.62029 0.73705 0.98301 0.0
C204 C 0.62423 0.71439 1.0037 0.0
C205 C 0.61363 0.70975 0.07157 0.0
C206 C 0.60151 0.73303 0.08675 0.0
C207 C 0.60554 0.74891 0.03503 0.0
C208 C 0.63402 0.70501 0.12163 0.0
C209 C 0.59579 0.68924 0.06294 0.0
C210 C 0.57659 0.8306 0.98695 0.0
C211 C 0.56124 0.84663 1.01843 0.0
C212 C 0.54978 0.83955 0.07822 0.0
C213 C 0.55405 0.81715 0.10618 0.0
C214 C 0.56987 0.80153 0.07399 0.0
C215 C 0.58065 0.80862 1.01512 0.0
C216 C 0.59619 0.79015 0.98471 0.0
C217 C 0.59409 0.771 0.03616 0.0
C218 C 0.57847 0.77725 0.0889 0.0
C219 C 0.62153 0.80003 0.9816 0.0
C220 C 0.58566 0.78268 0.91515 0.0
H221 H 0.60028 0.6937 0.20012 0.0
H222 H 0.53542 0.73665 0.31467 0.0
H223 H 0.52654 0.74724 0.14705 0.0
H224 H 0.52813 0.77843 0.14654 0.0
H225 H 0.51923 0.76394 0.22206 0.0
H226 H 0.58106 0.77665 0.27695 0.0
H227 H 0.55049 0.78158 0.29508 0.0
H228 H 0.56532 0.79805 0.23138 0.0
H229 H 0.63468 0.67937 0.97681 0.0
H230 H 0.64089 0.73162 0.82239 0.0
H231 H 0.6261 0.76123 0.89995 0.0
H232 H 0.65091 0.71258 0.10404 0.0
H233 H 0.63686 0.68589 0.12816 0.0
H234 H 0.63102 0.71346 0.17169 0.0
H235 H 0.58617 0.69057 1.01428 0.0
H236 H 0.58192 0.68914 0.10159 0.0
H237 H 0.60483 0.67196 0.06307 0.0
H238 H 0.58144 0.67653 0.29489 0.0
C239 C 0.58645 0.70365 0.22322 0.0
C240 C 0.3346 0.48459 0.2318 0.0
C241 C 0.34755 0.47427 0.28524 0.0
C242 C 0.33957 0.4528 0.31086 0.0
C243 C 0.30517 0.45373 0.23948 0.0
C244 C 0.31335 0.47378 0.20924 0.0
C245 C 0.29652 0.48128 0.15343 0.0
H246 H 0.19474 0.45369 0.97649 0.0
C247 C 0.28261 0.44679 0.20879 0.0
C248 C 0.27752 0.46209 0.15552 0.0
H249 H 0.23679 0.51559 0.94791 0.0
H250 H 0.26426 0.50253 0.03537 0.0
H251 H 0.2364 0.41536 1.00276 0.0
H252 H 0.18932 0.45895 0.11083 0.0
H253 H 0.19888 0.44126 0.17673 0.0
H254 H 0.18368 0.42829 0.10517 0.0
H255 H 0.2053 0.41153 1.0129 0.0
H256 H 0.22598 0.39874 0.07076 0.0
C257 C 0.30971 0.48106 0.08567 0.0
C258 C 0.28648 0.50563 0.17239 0.0
C259 C 0.22585 0.39699 0.33975 0.0
C260 C 0.20226 0.3911 0.32555 0.0
C261 C 0.19515 0.38974 0.25733 0.0
C262 C 0.20971 0.39809 0.20632 0.0
C263 C 0.23125 0.40843 0.22377 0.0
C264 C 0.23998 0.40593 0.28806 0.0
C265 C 0.26423 0.41634 0.29493 0.0
C266 C 0.26634 0.42922 0.22795 0.0
C267 C 0.24674 0.42468 0.18734 0.0
C268 C 0.282 0.39574 0.30059 0.0
C269 C 0.26466 0.43349 0.35642 0.0
C270 C 0.2101 0.46431 0.98775 0.0
C271 C 0.21376 0.48538 0.95416 0.0
C272 C 0.23357 0.49912 0.97274 0.0
C273 C 0.24945 0.49155 0.02349 0.0
C274 C 0.24511 0.47038 0.05748 0.0
C275 C 0.22533 0.45755 0.03933 0.0
C276 C 0.22099 0.43726 0.08425 0.0
C277 C 0.2419 0.43906 0.13128 0.0
C278 C 0.25659 0.45823 0.11575 0.0
C279 C 0.22203 0.41443 0.04066 0.0
C280 C 0.19707 0.44143 0.12108 0.0
H281 H 0.31383 0.42629 0.30986 0.0
H282 H 0.34051 0.50079 0.20962 0.0
H283 H 0.27981 0.50579 0.22512 0.0
H284 H 0.27159 0.51052 0.13996 0.0
H285 H 0.30024 0.51938 0.16859 0.0
H286 H 0.31845 0.46381 0.07696 0.0
H287 H 0.32341 0.49495 0.08535 0.0
H288 H 0.29778 0.48388 0.04265 0.0
H289 H 0.23231 0.39687 0.39108 0.0
H290 H 0.17745 0.38469 0.24354 0.0
H291 H 0.20292 0.39772 0.15596 0.0
H292 H 0.27348 0.3782 0.29593 0.0
H293 H 0.29114 0.39608 0.35014 0.0
H294 H 0.29534 0.39613 0.25977 0.0
H295 H 0.25003 0.44636 0.35314 0.0
H296 H 0.2811 0.44365 0.36014 0.0
H297 H 0.26282 0.42386 0.40434 0.0
H298 H 0.34946 0.44389 0.34953 0.0
C299 C 0.31879 0.44251 0.28798 0.0
C300 C 0.1334 0.22738 0.37025 0.0
C301 C 0.13612 0.20278 0.36965 0.0
C302 C 0.1348 0.19071 0.30693 0.0
C303 C 0.11945 0.2256 0.2548 0.0
C304 C 0.12428 0.23831 0.31294 0.0
C305 C 0.11539 0.26317 0.3092 0.0
H306 H 0.03092 0.33599 0.21209 0.0
C307 C 0.10407 0.24 0.21177 0.0
C308 C 0.10168 0.2621 0.24265 0.0
H309 H 0.09087 0.34941 0.34169 0.0
H310 H 0.10853 0.31349 0.30353 0.0
H311 H 0.06979 0.31083 0.08048 0.0
H312 H 0.02541 0.2756 0.22614 0.0
H313 H 0.02072 0.26782 0.13938 0.0
H314 H 1.01299 0.29669 0.16958 0.0
H315 H 0.03877 0.31682 0.08382 0.0
H316 H 0.04951 0.28995 0.04641 0.0
C317 C 0.13702 0.27975 0.30618 0.0
C318 C 0.09919 0.268 0.37077 0.0
C319 C 0.06384 0.19701 1.01999 0.0
C320 C 0.04539 0.20145 0.97513 0.0
C321 C 0.03366 0.22342 0.9824 0.0
C322 C 0.04075 0.24044 0.0322 0.0
C323 C 0.05972 0.23554 0.07576 0.0
C324 C 0.0706 0.21387 0.06848 0.0
C325 C 0.08941 0.21006 0.11938 0.0
C326 C 0.08937 0.2334 0.15685 0.0
C327 C 0.07188 0.24878 0.13262 0.0
C328 C 0.1129 0.20605 0.08123 0.0
C329 C 0.08162 0.18932 0.16463 0.0
C330 C 0.04771 0.33087 0.23279 0.0
C331 C 0.0589 0.34515 0.28342 0.0
C332 C 0.08131 0.33845 0.30582 0.0
C333 C 0.09155 0.31745 0.28418 0.0
C334 C 0.07923 0.30217 0.241 0.0
C335 C 0.05854 0.30931 0.21154 0.0
C336 C 0.05088 0.29123 0.15754 0.0
C337 C 0.06946 0.2717 0.16465 0.0
C338 C 0.0853 0.27841 0.21634 0.0
C339 C 0.05222 0.30278 0.08803 0.0
C340 C 0.02607 0.28231 0.17384 0.0
H341 H 0.12491 0.19161 0.20441 0.0
H342 H 0.13567 0.23742 0.41663 0.0
H343 H 0.08566 0.254 0.37467 0.0
H344 H 0.08973 0.2848 0.36834 0.0
H345 H 0.10945 0.26851 0.41843 0.0
H346 H 0.15397 0.27004 0.30364 0.0
H347 H 0.13806 0.29142 0.35158 0.0
H348 H 0.13665 0.29074 0.26043 0.0
H349 H 0.07277 0.18022 1.01896 0.0
H350 H 0.01919 0.22755 0.94924 0.0
H351 H 0.03123 0.25671 0.03561 0.0
H352 H 0.11407 0.21755 0.03654 0.0
H353 H 0.11453 0.18756 0.06298 0.0
H354 H 0.12846 0.2106 0.11222 0.0
H355 H 0.06268 0.18495 0.15849 0.0
H356 H 0.08345 0.19346 0.21916 0.0
H357 H 0.0916 0.17303 0.15246 0.0
H358 H 0.13733 0.1719 0.30327 0.0
C359 C 0.12681 0.20211 0.24939 0.0
C360 C 0.31623 0.04565 0.97866 0.0
C361 C 0.33623 0.05629 0.94833 0.0
C362 C 0.3412 0.07997 0.96421 0.0
C363 C 0.31116 0.08029 0.04955 0.0
C364 C 0.30326 0.05863 0.02814 0.0
C365 C 0.27958 0.05343 0.06158 0.0
H366 H 0.20173 0.08961 0.31249 0.0
C367 C 0.29662 0.08895 0.10493 0.0
C368 C 0.27675 0.07452 0.11093 0.0
H369 H 0.19021 0.03188 0.17227 0.0
H370 H 0.22827 0.03971 0.11955 0.0
H371 H 0.24436 0.08147 0.35565 0.0
H372 H 0.22292 0.12671 0.20458 0.0
H373 H 0.24572 0.14079 0.25041 0.0
H374 H 0.22057 0.12961 0.29479 0.0
H375 H 0.2494 0.11185 0.36888 0.0
H376 H 0.27231 0.09281 0.33656 0.0
C377 C 0.28107 0.03002 0.09887 0.0
C378 C 0.26048 0.05328 1.00653 0.0
C379 C 0.33868 0.12791 0.29934 0.0
C380 C 0.33065 0.13587 0.36309 0.0
C381 C 0.30666 0.1418 0.36979 0.0
C382 C 0.29062 0.13607 0.31837 0.0
C383 C 0.29865 0.12429 0.26011 0.0
C384 C 0.32241 0.12238 0.24855 0.0
C385 C 0.32769 0.11173 0.18024 0.0
C386 C 0.30285 0.10511 0.15675 0.0
C387 C 0.28627 0.11116 0.20605 0.0
C388 C 0.34345 0.08981 0.18801 0.0
C389 C 0.33968 0.1307 0.13717 0.0
C390 C 0.20678 0.07887 0.26927 0.0
C391 C 0.1923 0.06047 0.24613 0.0
C392 C 0.20071 0.04636 0.19148 0.0
C393 C 0.2227 0.05104 0.16032 0.0
C394 C 0.23659 0.06998 0.18387 0.0
C395 C 0.2284 0.08324 0.23822 0.0
C396 C 0.2452 0.10204 0.26035 0.0
C397 C 0.2646 0.09882 0.20865 0.0
C398 C 0.25983 0.08 0.16301 0.0
C399 C 0.2533 0.09695 0.33386 0.0
C400 C 0.23301 0.12615 0.25263 0.0
H401 H 0.33125 0.1106 0.0207 0.0
H402 H 0.3109 0.02805 0.96395 0.0
H403 H 0.26169 0.0694 0.97584 0.0
H404 H 0.24262 0.05291 0.02784 0.0
H405 H 0.26262 0.03781 0.97212 0.0
H406 H 0.29601 0.03034 0.13504 0.0
H407 H 0.28381 0.01518 0.0626 0.0
H408 H 0.26492 0.02654 0.12788 0.0
H409 H 0.35697 0.12388 0.29066 0.0
H410 H 0.29999 0.14937 0.41644 0.0
H411 H 0.27247 0.14012 0.32667 0.0
H412 H 0.335 0.07685 0.22155 0.0
H413 H 0.36083 0.09463 0.20958 0.0
H414 H 0.34691 0.08107 0.1387 0.0
H415 H 0.34963 0.14358 0.16885 0.0
H416 H 0.32656 0.14074 0.1078 0.0
H417 H 0.35302 0.12296 0.10267 0.0
H418 H 0.35535 0.08903 0.93901 0.0
C419 C 0.32834 0.09212 1.01347 0.0
C420 C 0.48558 0.3141 0.98144 0.0
C421 C 0.47798 0.33615 0.95717 0.0
C422 C 0.45862 0.34717 0.98787 0.0
C423 C 0.45571 0.31611 0.0692 0.0
C424 C 0.4738 0.30416 0.03738 0.0
C425 C 0.47804 0.28056 0.0706 0.0
H426 H 0.44933 0.20831 0.33435 0.0
C427 C 0.44798 0.30266 0.12814 0.0
C428 C 0.46049 0.28133 0.12941 0.0
H429 H 0.49797 0.1916 0.17363 0.0
H430 H 0.49069 0.22992 0.12404 0.0
H431 H 0.4674 0.25713 0.36074 0.0
H432 H 0.40899 0.23196 0.24386 0.0
H433 H 0.39921 0.25642 0.29166 0.0
H434 H 0.41061 0.23117 0.33426 0.0
H435 H 0.4395 0.25159 0.3989 0.0
H436 H 0.44687 0.27997 0.3656 0.0
C437 C 0.50364 0.27961 0.09563 0.0
C438 C 0.47206 0.2609 1.01898 0.0
C439 C 0.39961 0.34546 0.30493 0.0
C440 C 0.39476 0.34035 0.37269 0.0
C441 C 0.39649 0.31684 0.39336 0.0
C442 C 0.40567 0.29946 0.34972 0.0
C443 C 0.41348 0.30571 0.28506 0.0
C444 C 0.40941 0.32815 0.26277 0.0
C445 C 0.42007 0.3323 0.19471 0.0
C446 C 0.43248 0.30904 0.18145 0.0
C447 C 0.42849 0.29355 0.23419 0.0
C448 C 0.43765 0.35309 0.20207 0.0
C449 C 0.39972 0.33636 0.144 0.0
C450 C 0.45812 0.21246 0.28759 0.0
C451 C 0.47384 0.19648 0.25746 0.0
C452 C 0.48562 0.20342 0.19806 0.0
C453 C 0.48125 0.22561 0.169 0.0
C454 C 0.46503 0.24117 0.1997 0.0
C455 C 0.45399 0.23426 0.25838 0.0
C456 C 0.43812 0.25277 0.28728 0.0
C457 C 0.44024 0.27161 0.23488 0.0
C458 C 0.4562 0.2652 0.18315 0.0
C459 C 0.44825 0.26078 0.35684 0.0
C460 C 0.41287 0.24266 0.29003 0.0
H461 H 0.43318 0.34705 0.06443 0.0
H462 H 0.50016 0.30499 0.95772 0.0
H463 H 0.45488 0.26444 0.99442 0.0
H464 H 0.4704 0.24359 0.0425 0.0
H465 H 0.48566 0.25974 0.97889 0.0
H466 H 0.50793 0.29568 0.12585 0.0
H467 H 0.51603 0.2785 0.05241 0.0
H468 H 0.50687 0.2645 0.12844 0.0
H469 H 0.39869 0.3633 0.28712 0.0
H470 H 0.39251 0.31229 0.44494 0.0
H471 H 0.40764 0.28217 0.36956 0.0
H472 H 0.44743 0.35211 0.25057 0.0
H473 H 0.42837 0.37023 0.20145 0.0
H474 H 0.45138 0.35323 0.16303 0.0
H475 H 0.38277 0.32916 0.1624 0.0
H476 H 0.40273 0.32716 0.095 0.0
H477 H 0.39696 0.35536 0.13506 0.0
H478 H 0.45237 0.36392 0.96981 0.0
C479 C 0.44747 0.33731 0.04305 0.0
Gd480 Gd 0.99222 0.02619 0.5762 0.0
Gd481 Gd 0.03947 0.01535 0.69725 0.0
C482 C 0.06986 0.07305 0.83603 0.0
C483 C 0.10821 0.07945 0.78613 0.0
C484 C 0.08227 0.04918 0.7405 0.0
C485 C 0.06534 0.0552 0.78736 0.0
C486 C 0.10418 0.06075 0.74049 0.0
C487 C 0.09107 0.0856 0.83385 0.0
C488 C 0.05322 0.07735 0.8865 0.0
C489 C 0.03325 0.06328 0.88939 0.0
N490 N 0.04501 0.04271 0.78782 0.0
C491 C 0.0296 0.04572 0.84027 0.0
H492 H 0.01438 0.0348 0.84557 0.0
C493 C 0.09537 0.02202 0.65734 0.0
N494 N 0.07787 0.03096 0.6976 0.0
C495 C 0.11732 0.03298 0.65514 0.0
C496 C 0.12162 0.0527 0.69609 0.0
H497 H 0.092 1.00698 0.62473 0.0
H498 H 0.09465 0.09961 0.87009 0.0
H499 H 0.01642 1.00218 0.43468 0.0
H500 H 0.05597 0.09095 0.92457 0.0
H501 H 0.02062 0.0659 0.92962 0.0
H502 H 0.12479 0.08879 0.78628 0.0
H503 H 0.94105 0.03698 0.65405 0.0
H504 H 0.97138 0.94759 0.36149 0.0
H505 H 1.00813 0.97045 0.35317 0.0
H506 H 0.90346 0.95488 0.50273 0.0
H507 H 0.13084 0.02629 0.6216 0.0
H508 H 0.13865 0.06115 0.69443 0.0
H509 H 0.93253 0.9416 0.4185 0.0
H510 H 0.90153 0.0193 0.6622 0.0
N511 N 0.9851 0.99724 0.49156 0.0
C512 C 0.97492 0.9616 0.39774 0.0
C513 C 0.99566 0.97448 0.39288 0.0
C514 C 0.95869 0.96744 0.4482 0.0
C515 C 0.96424 0.98577 0.49436 0.0
C516 C 1.00034 0.99251 0.43981 0.0
N517 N 0.95345 1.01171 0.58218 0.0
C518 C 0.94791 0.9932 0.5414 0.0
C519 C 0.91442 1.01173 0.62813 0.0
C520 C 0.90891 0.99181 0.58923 0.0
C521 C 0.93675 0.02177 0.62311 0.0
C522 C 0.92558 0.98255 0.5442 0.0
H523 H 0.89159 0.98409 0.59305 0.0
O524 O 0.96863 0.05451 0.55043 0.0
O525 O 0.01703 0.04234 0.6511 0.0
O526 O 1.0031 0.01593 0.74799 0.0
O527 O 0.9782 1.00412 0.66126 0.0
O528 O 0.98331 0.05499 0.65372 0.0
O529 O 0.99814 0.04607 0.48527 0.0
O530 O 0.06481 0.98971 0.73147 0.0
O531 O 0.01563 0.99927 0.6198 0.0
O532 O 0.02822 0.0272 0.52374 0.0
O533 O 0.054 0.0367 0.61094 0.0
O534 O 0.05002 0.98849 0.61612 0.0
O535 O 0.02949 0.98931 0.77094 0.0
C536 C 1.00391 0.05743 0.67949 0.0
C537 C 0.92041 0.96349 0.50081 0.0
C538 C 0.93695 0.95594 0.45285 0.0
C539 C 0.98209 0.06153 0.50175 0.0
C540 C 0.98964 0.08616 0.50824 0.0
C541 C 0.97274 0.10406 0.50885 0.0
C542 C 1.01326 0.09179 0.52163 0.0
C543 C 0.01998 0.11508 0.53551 0.0
C544 C 0.97928 0.12724 0.52314 0.0
C545 C 1.00273 0.13276 0.53662 0.0
C546 C 0.98259 1.00761 0.72616 0.0
C547 C 0.02956 0.98522 0.58999 0.0
C548 C 0.04876 0.97733 0.76118 0.0
C549 C 0.04607 0.95285 0.73573 0.0
C550 C 0.06501 0.94149 0.7034 0.0
C551 C 0.02394 0.94183 0.73562 0.0
C552 C 0.02048 0.92019 0.70162 0.0
C553 C 0.06167 0.92013 0.66928 0.0
C554 C 0.03955 0.90965 0.66766 0.0
C555 C 0.04906 0.03454 0.54586 0.0
H556 H 0.9544 0.10001 0.49972 0.0
H557 H 0.02642 0.07809 0.52238 0.0
H558 H 0.96614 0.14097 0.52378 0.0
H559 H 1.00746 0.15094 0.54617 0.0
H560 H 0.08224 0.94952 0.70239 0.0
H561 H 1.00938 0.95018 0.7617 0.0
H562 H 0.07623 0.91182 0.64319 0.0
H563 H 0.03739 0.8933 0.63963 0.0
Gd564 Gd 0.51083 0.99708 0.5764 0.0
Gd565 Gd 0.5222 0.04526 0.69777 0.0
C566 C 0.46508 0.07958 0.82879 0.0
C567 C 0.46133 0.11801 0.77854 0.0
C568 C 0.49002 0.08995 0.73517 0.0
C569 C 0.48287 0.07375 0.78181 0.0
C570 C 0.47972 0.11246 0.73387 0.0
C571 C 0.45402 0.10158 0.82593 0.0
C572 C 0.45924 0.06327 0.87796 0.0
C573 C 0.47149 0.04211 0.88057 0.0
N574 N 0.49387 0.05261 0.78281 0.0
C575 C 0.48902 0.03717 0.83301 0.0
H576 H 0.49814 0.02073 0.83626 0.0
C577 C 0.5175 0.10047 0.65171 0.0
N578 N 0.50783 0.08404 0.69295 0.0
C579 C 0.50781 0.12298 0.64827 0.0
C580 C 0.48861 0.12891 0.68887 0.0
H581 H 0.53217 0.09586 0.61957 0.0
H582 H 0.44014 0.10624 0.86106 0.0
H583 H 0.52995 0.02156 0.43 0.0
H584 H 0.44561 0.06701 0.91473 0.0
H585 H 0.46737 0.02951 0.91906 0.0
H586 H 0.45302 0.13512 0.77786 0.0
H587 H 0.50307 0.94518 0.65004 0.0
H588 H 0.58517 0.97915 0.34981 0.0
H589 H 0.56047 0.01476 0.34556 0.0
H590 H 0.5834 0.91093 0.48738 0.0
H591 H 0.51509 0.13568 0.61411 0.0
H592 H 0.48114 0.14637 0.68621 0.0
H593 H 0.59384 0.94058 0.40371 0.0
H594 H 0.52216 0.90623 0.65287 0.0
N595 N 0.53778 0.99097 0.48644 0.0
C596 C 0.5718 0.98214 0.38787 0.0
C597 C 0.55793 1.00226 0.38541 0.0
C598 C 0.56766 0.96571 0.43801 0.0
C599 C 0.55013 0.97056 0.48667 0.0
C600 C 0.54069 1.00622 0.43454 0.0
N601 N 0.52649 0.9587 0.57662 0.0
C602 C 0.54434 0.95392 0.53349 0.0
C603 C 0.52864 0.9195 0.61918 0.0
C604 C 0.548 0.91482 0.57793 0.0
C605 C 0.51781 0.94151 0.61717 0.0
C606 C 0.55581 0.93196 0.53341 0.0
H607 H 0.55637 0.89776 0.57951 0.0
O608 O 0.4847 0.97147 0.54478 0.0
O609 O 0.49524 0.02148 0.65348 0.0
O610 O 0.52402 1.00953 0.7495 0.0
O611 O 0.53317 0.98345 0.66191 0.0
O612 O 0.4845 0.9871 0.65734 0.0
O613 O 0.48486 1.0058 0.50024 0.0
O614 O 0.55103 0.06875 0.72208 0.0
O615 O 0.53775 0.02017 0.62256 0.0
O616 O 0.51011 0.03319 0.52618 0.0
O617 O 0.49921 0.0586 0.61364 0.0
O618 O 0.55022 0.05393 0.61975 0.0
O619 O 0.54256 0.04025 0.78906 0.0
C620 C 0.48132 1.00776 0.68303 0.0
C621 C 0.57416 0.92756 0.48763 0.0
C622 C 0.58008 0.94443 0.43998 0.0
C623 C 0.47254 0.98702 0.51247 0.0
C624 C 0.44823 0.99067 0.53716 0.0
C625 C 0.43649 0.97241 0.57005 0.0
C626 C 0.43792 1.01313 0.53664 0.0
C627 C 0.41668 0.01763 0.57081 0.0
C628 C 0.41551 0.97676 0.60429 0.0
C629 C 0.4058 0.99923 0.60549 0.0
C630 C 0.53151 0.98873 0.727 0.0
C631 C 0.55249 0.03319 0.59389 0.0
C632 C 0.55815 0.05587 0.77168 0.0
C633 C 0.58264 0.0479 0.76578 0.0
C634 C 0.60084 0.06447 0.76493 0.0
C635 C 0.58778 0.02411 0.75298 0.0
C636 C 0.61084 0.01683 0.73939 0.0
C637 C 0.62383 0.05737 0.751 0.0
C638 C 0.62884 0.0337 0.73802 0.0
C639 C 0.50178 0.05372 0.54858 0.0
H640 H 0.44399 0.95495 0.57156 0.0
H641 H 0.44655 0.02715 0.51 0.0
H642 H 0.40694 0.96272 0.63093 0.0
H643 H 0.38977 1.00218 0.63378 0.0
H644 H 0.59717 0.08295 0.77357 0.0
H645 H 0.57385 1.01121 0.75238 0.0
H646 H 0.6378 0.07024 0.75015 0.0
H647 H 0.64686 0.02853 0.72856 0.0
Gd648 Gd 0.49102 0.52796 0.68478 0.0
Gd649 Gd 0.54379 0.51332 0.58629 0.0
C650 C 0.61888 0.52671 0.65943 0.0
C651 C 0.63125 0.55865 0.58795 0.0
C652 C 0.59231 0.54162 0.57501 0.0
C653 C 0.59676 0.52653 0.62723 0.0
C654 C 0.60969 0.55748 0.5536 0.0
C655 C 0.63585 0.54327 0.64076 0.0
C656 C 0.6235 0.50984 0.70811 0.0
C657 C 0.60654 0.49293 0.72206 0.0
N658 N 0.57992 0.51083 0.64417 0.0
C659 C 0.58487 0.49351 0.68888 0.0
H660 H 0.57205 0.48033 0.70055 0.0
C661 C 0.56746 0.55209 0.48484 0.0
N662 N 0.57141 0.53988 0.54264 0.0
C663 C 0.58409 0.56814 0.46183 0.0
C664 C 0.60516 0.57113 0.49701 0.0
H665 H 0.55106 0.55003 0.45793 0.0
H666 H 0.6528 0.54389 0.66559 0.0
H667 H 0.46354 0.56017 0.56705 0.0
H668 H 0.64023 0.50941 0.73413 0.0
H669 H 0.61009 0.47952 0.75872 0.0
H670 H 0.64473 0.57091 0.57279 0.0
H671 H 0.48376 0.49095 0.81236 0.0
H672 H 0.39437 0.53301 0.53831 0.0
H673 H 0.42535 0.56159 0.51011 0.0
H674 H 0.38909 0.47221 0.70159 0.0
H675 H 0.58059 0.57827 0.41724 0.0
H676 H 0.61804 0.58354 0.47904 0.0
H677 H 0.3812 0.49925 0.60875 0.0
H678 H 0.45392 0.46322 0.85389 0.0
N679 N 0.45494 0.5306 0.62662 0.0
C680 C 0.41119 0.53228 0.56374 0.0
C681 C 0.42862 0.54845 0.54776 0.0
C682 C 0.41553 0.51564 0.6133 0.0
C683 C 0.43776 0.51546 0.64488 0.0
C684 C 0.45038 0.54753 0.58035 0.0
N685 N 0.46321 0.50165 0.72861 0.0
C686 C 0.44211 0.50037 0.69715 0.0
C687 C 0.45039 0.4735 0.80959 0.0
C688 C 0.42906 0.47103 0.77544 0.0
C689 C 0.46721 0.48925 0.78605 0.0
C690 C 0.4245 0.48486 0.71923 0.0
H691 H 0.41602 0.45887 0.79386 0.0
O692 O 0.48241 0.53999 0.7859 0.0
O693 O 0.53021 0.52842 0.68242 0.0
O694 O 0.5332 0.48348 0.65687 0.0
O695 O 0.49297 0.48845 0.67156 0.0
O696 O 0.51525 0.51979 0.77287 0.0
O697 O 0.47981 0.56395 0.70223 0.0
O698 O 0.55289 0.50152 0.48533 0.0
O699 O 0.50472 0.5128 0.5892 0.0
O700 O 0.50172 0.55783 0.61435 0.0
O701 O 0.5419 0.55283 0.59965 0.0
O702 O 0.5192 0.52106 0.49819 0.0
O703 O 0.55454 0.4772 0.56828 0.0
C704 C 0.53489 0.52318 0.74263 0.0
C705 C 0.40275 0.48416 0.68584 0.0
C706 C 0.39826 0.49957 0.63304 0.0
C707 C 0.47939 0.56163 0.76762 0.0
C708 C 0.49267 0.57897 0.80712 0.0
C709 C 0.48219 0.58984 0.86337 0.0
C710 C 0.5163 0.5835 0.79183 0.0
C711 C 0.52955 0.59871 0.83319 0.0
C712 C 0.49522 0.60514 0.90435 0.0
C713 C 0.51876 0.60954 0.88959 0.0
C714 C 0.51219 0.47538 0.67439 0.0
C715 C 0.49967 0.51762 0.52903 0.0
C716 C 0.5553 0.47974 0.50298 0.0
C717 C 0.5417 0.46293 0.46234 0.0
C718 C 0.55185 0.45264 0.40471 0.0
C719 C 0.51802 0.45862 0.4775 0.0
C720 C 0.50435 0.44434 0.4345 0.0
C721 C 0.53843 0.43821 0.3622 0.0
C722 C 0.51481 0.43413 0.37672 0.0
C723 C 0.52273 0.56591 0.59675 0.0
H724 H 0.46404 0.58629 0.87594 0.0
H725 H 0.52444 0.57487 0.74869 0.0
H726 H 0.48709 0.61356 0.94778 0.0
H727 H 0.52843 0.6217 0.92174 0.0
H728 H 0.57004 0.45605 0.39216 0.0
H729 H 0.51014 0.46677 0.52178 0.0
H730 H 0.54631 0.43026 0.31768 0.0
H731 H 0.50482 0.42268 0.34326 0.0
Gd732 Gd 1.00979 0.4944 0.69275 0.0
Gd733 Gd 0.02849 0.54335 0.58804 0.0
C734 C 0.02144 0.61983 0.66403 0.0
C735 C 0.99133 0.63505 0.58991 0.0
C736 C 1.00505 0.59475 0.57642 0.0
C737 C 0.01993 0.59774 0.63061 0.0
C738 C 0.99109 0.61358 0.55403 0.0
C739 C 1.00655 0.63819 0.64479 0.0
C740 C 0.03834 0.62302 0.71445 0.0
C741 C 0.05369 0.60475 0.72879 0.0
N742 N 0.034 0.57955 0.64794 0.0
C743 C 0.05148 0.58321 0.69439 0.0
H744 H 0.0637 0.56968 0.70683 0.0
C745 C 0.99472 0.57186 0.48071 0.0
N746 N 1.0057 0.57403 0.54208 0.0
C747 C 0.98033 0.5898 0.45697 0.0
C748 C 0.97812 0.61062 0.49451 0.0
H749 H 0.99668 0.55591 0.45094 0.0
H750 H 1.00721 0.6551 0.67063 0.0
H751 H 0.97937 0.46513 0.57179 0.0
H752 H 0.04004 0.63966 0.74136 0.0
H753 H 0.06721 0.60718 0.76667 0.0
H754 H 0.98051 0.6496 0.57406 0.0
H755 H 0.04308 0.48918 0.83099 0.0
H756 H 1.00556 0.39492 0.55814 0.0
H757 H 0.97822 0.42566 0.51976 0.0
H758 H 0.06185 0.39188 0.73731 0.0
H759 H 0.97109 0.5876 0.40954 0.0
H760 H 0.96717 0.62463 0.47573 0.0
H761 H 0.03722 0.38267 0.6383 0.0
H762 H 0.06841 0.45949 0.8841 0.0
N763 N 1.00761 0.45731 0.63837 0.0
C764 C 1.00616 0.41227 0.58136 0.0
C765 C 0.99067 0.42956 0.55968 0.0
C766 C 0.02181 0.41741 0.63401 0.0
C767 C 0.02189 0.4403 0.66253 0.0
C768 C 0.99143 0.45199 0.58943 0.0
N769 N 0.03429 0.46723 0.74672 0.0
C770 C 0.03569 0.44543 0.7183 0.0
C771 C 0.05941 0.45534 0.83729 0.0
C772 C 0.06216 0.43328 0.80648 0.0
C773 C 0.04503 0.47209 0.80716 0.0
C774 C 0.04991 0.42792 0.74692 0.0
H775 H 0.07327 0.42031 0.83 0.0
O776 O 0.99504 0.49297 0.79354 0.0
O777 O 1.00995 0.53376 0.68271 0.0
O778 O 0.05681 0.53256 0.66469 0.0
O779 O 0.04947 0.4933 0.68648 0.0
O780 O 0.01819 0.52072 0.77637 0.0
O781 O 0.97592 0.47818 0.70807 0.0
O782 O 0.04202 0.55501 0.49191 0.0
O783 O 0.02617 0.50443 0.59573 0.0
O784 O 0.97942 0.50393 0.62261 0.0
O785 O 0.98905 0.53969 0.57379 0.0
O786 O 0.01945 0.51786 0.50224 0.0
O787 O 0.06603 0.54318 0.56834 0.0
C788 C 0.01505 0.53965 0.74304 0.0
C789 C 0.05084 0.40549 0.71651 0.0
C790 C 0.03681 0.40024 0.66016 0.0
C791 C 0.97564 0.48319 0.77245 0.0
C792 C 0.95381 0.49335 0.79816 0.0
C793 C 0.94007 0.48015 0.84209 0.0
C794 C 0.946 0.51545 0.77699 0.0
C795 C 0.92399 0.52389 0.79806 0.0
C796 C 0.91846 0.48873 0.86433 0.0
C797 C 0.91037 0.51039 0.84223 0.0
C798 C 0.06367 0.51171 0.68687 0.0
C799 C 0.0213 0.49868 0.53525 0.0
C800 C 0.06333 0.5485 0.50523 0.0
C801 C 0.0741 0.53275 0.45449 0.0
C802 C 0.07755 0.54094 0.389 0.0
C803 C 0.07956 0.50927 0.46925 0.0
C804 C 0.08861 0.49409 0.41891 0.0
C805 C 0.08633 0.52596 0.33873 0.0
C806 C 0.09187 0.50275 0.35341 0.0
C807 C 0.97417 0.52238 0.58554 0.0
H808 H 0.94596 0.4631 0.85864 0.0
H809 H 0.95665 0.52563 0.74284 0.0
H810 H 0.90787 0.4785 0.8983 0.0
H811 H 0.89349 0.5167 0.86006 0.0
H812 H 0.07322 0.55889 0.37662 0.0
H813 H 0.07659 0.50279 0.5196 0.0
H814 H 0.08901 0.53242 0.28827 0.0
H815 H 0.09935 0.4918 0.31372 0.0
H816 H 0.16961 0.01836 0.27301 0.0
H817 H 0.16163 0.09339 0.29903 0.0
H818 H 0.13409 1.01242 0.34064 0.0
H819 H 0.12698 0.08735 0.36807 0.0
H820 H 0.08555 0.06562 0.55907 0.0
H821 H 0.11857 0.07156 0.48246 0.0
H822 H 0.08991 0.01948 0.34479 0.0
H823 H 0.05671 0.01371 0.42143 0.0
C824 C 0.16027 0.03361 0.29226 0.0
C825 C 0.16905 0.05636 0.28099 0.0
C826 C 0.13988 0.03019 0.33143 0.0
C827 C 0.12777 0.04939 0.361 0.0
C828 C 0.13604 0.07209 0.34763 0.0
C829 C 0.15611 0.07552 0.30792 0.0
C830 C 0.08617 0.05554 0.51223 0.0
C831 C 0.06829 0.03929 0.49641 0.0
C832 C 0.10512 0.05899 0.46806 0.0
C833 C 0.10707 0.04597 0.40714 0.0
C834 C 0.08915 0.02972 0.39128 0.0
C835 C 0.06993 0.0266 0.43496 0.0
H836 H 0.44098 0.16774 0.31439 0.0
H837 H 0.51538 0.17201 0.27491 0.0
H838 H 0.44721 0.13262 0.38013 0.0
H839 H 0.52161 0.13643 0.34052 0.0
H840 H 0.52126 0.06099 0.42352 0.0
H841 H 0.51438 0.09368 0.34768 0.0
H842 H 0.46433 0.1231 0.48914 0.0
H843 H 0.47106 0.09033 0.56432 0.0
C844 C 0.45874 0.1612 0.31959 0.0
C845 C 0.47772 0.1731 0.28989 0.0
C846 C 0.4623 0.14097 0.35755 0.0
C847 C 0.48496 0.13175 0.36677 0.0
C848 C 0.50388 0.14293 0.33443 0.0
C849 C 0.50031 0.16334 0.29655 0.0
C850 C 0.50845 0.07414 0.43787 0.0
C851 C 0.49649 0.07273 0.4998 0.0
C852 C 0.50474 0.09313 0.39469 0.0
C853 C 0.48876 0.11114 0.41189 0.0
C854 C 0.47655 0.10949 0.47348 0.0
C855 C 0.48046 0.09067 0.51685 0.0
H856 H 0.38814 0.49129 0.2254 0.0
H857 H 0.35599 0.4807 0.41934 0.0
H858 H 0.42521 0.50189 0.28205 0.0
H859 H 0.39252 0.49107 0.47547 0.0
H860 H 0.46672 0.48385 0.55648 0.0
H861 H 0.43046 0.47508 0.49524 0.0
H862 H 0.44647 0.52967 0.35393 0.0
H863 H 0.48289 0.53824 0.41564 0.0
C864 C 0.3888 0.49171 0.28 0.0
C865 C 0.36902 0.485 0.31758 0.0
C866 C 0.41012 0.49766 0.31269 0.0
C867 C 0.4122 0.497 0.38375 0.0
C868 C 0.39202 0.4913 0.42091 0.0
C869 C 0.37088 0.48551 0.38852 0.0
C870 C 0.46236 0.49414 0.51282 0.0
C871 C 0.47731 0.51229 0.49239 0.0
C872 C 0.44153 0.4891 0.47734 0.0
C873 C 0.43513 0.50183 0.41962 0.0
C874 C 0.45065 0.5194 0.39779 0.0
C875 C 0.47149 0.52445 0.43347 0.0
H876 H 0.043 0.38658 0.22673 0.0
H877 H 0.05239 0.35282 0.41765 0.0
H878 H 0.03392 0.42371 0.28658 0.0
H879 H 0.04333 0.38945 0.47723 0.0
H880 H 0.0535 0.46387 0.56464 0.0
H881 H 0.06065 0.42706 0.50207 0.0
H882 H 1.00696 0.44555 0.35855 0.0
H883 H 0.99999 0.48226 0.42133 0.0
C884 C 0.04247 0.38689 0.28134 0.0
C885 C 0.04827 0.36657 0.31713 0.0
C886 C 0.03745 0.40826 0.31594 0.0
C887 C 0.03818 0.40992 0.38728 0.0
C888 C 0.04305 0.38926 0.4226 0.0
C889 C 0.04794 0.36806 0.38825 0.0
C890 C 0.04298 0.45986 0.52039 0.0
C891 C 0.02557 0.47567 0.49948 0.0
C892 C 0.04709 0.43873 0.48414 0.0
C893 C 0.0342 0.43291 0.42511 0.0
C894 C 0.01734 0.44921 0.40327 0.0
C895 C 1.0132 0.47025 0.43966 0.0
H896 H 0.87727 0.94637 0.98881 0.0
H897 H 0.85364 0.0179 0.96997 0.0
H898 H 0.91277 0.95546 0.92579 0.0
H899 H 0.89002 0.02727 0.90843 0.0
H900 H 0.97174 0.03236 0.8427 0.0
H901 H 0.93837 0.02632 0.91925 0.0
H902 H 0.91588 0.96724 0.79651 0.0
H903 H 0.94866 0.9737 0.71921 0.0
C904 C 0.87995 0.96427 0.97285 0.0
C905 C 0.86236 0.98135 0.98431 0.0
C906 C 0.9003 0.96942 0.93623 0.0
C907 C 0.90414 0.99198 0.91098 0.0
C908 C 0.88758 1.00968 0.92704 0.0
C909 C 0.86683 1.00438 0.96293 0.0
C910 C 0.95984 0.01791 0.83254 0.0
C911 C 0.96319 1.00325 0.77532 0.0
C912 C 0.94056 0.01463 0.87604 0.0
C913 C 0.92446 0.99623 0.86436 0.0
C914 C 0.928 0.98147 0.80745 0.0
C915 C 0.94685 0.98513 0.76315 0.0
H916 H 0.59388 0.87496 0.95851 0.0
H917 H 0.51993 0.87191 1.00563 0.0
H918 H 0.58734 0.91002 0.89279 0.0
H919 H 0.51349 0.90759 0.94054 0.0
H920 H 0.51501 0.98337 0.85644 0.0
H921 H 0.52232 0.95081 0.93276 0.0
H922 H 0.56811 0.91869 0.7843 0.0
H923 H 0.56095 0.95121 0.70855 0.0
C924 C 0.57616 0.88176 0.9551 0.0
C925 C 0.55736 0.87016 0.98674 0.0
C926 C 0.57244 0.90197 0.91723 0.0
C927 C 0.54983 0.91154 0.9103 0.0
C928 C 0.53117 0.90077 0.94483 0.0
C929 C 0.53487 0.88031 0.98244 0.0
C930 C 0.52686 0.96952 0.84039 0.0
C931 C 0.53733 0.96997 0.77611 0.0
C932 C 0.53086 0.95069 0.88397 0.0
C933 C 0.54577 0.932 0.86488 0.0
C934 C 0.55665 0.93279 0.80115 0.0
C935 C 0.55242 0.95142 0.75739 0.0
H936 H 0.6646 0.5086 0.98073 0.0
H937 H 0.65449 0.58335 0.96346 0.0
H938 H 0.62863 0.50171 0.9154 0.0
H939 H 0.6189 0.57648 0.89863 0.0
H940 H 0.5687 0.55717 0.72499 0.0
H941 H 0.60452 0.56361 0.79132 0.0
H942 H 0.58652 0.50472 0.91568 0.0
H943 H 0.55097 0.49832 0.84859 0.0
C944 C 0.65461 0.52358 0.96393 0.0
C945 C 0.66279 0.54654 0.97732 0.0
C946 C 0.63392 0.51965 0.92615 0.0
C947 C 0.6207 0.53855 0.90071 0.0
C948 C 0.62866 0.56144 0.91565 0.0
C949 C 0.6492 0.56537 0.95331 0.0
C950 C 0.57259 0.54548 0.76601 0.0
C951 C 0.55734 0.52682 0.78028 0.0
C952 C 0.59302 0.5493 0.8048 0.0
C953 C 0.59877 0.53458 0.85912 0.0
C954 C 0.58315 0.51616 0.87372 0.0
C955 C 0.56266 0.51253 0.8354 0.0
H956 H 0.99707 0.65224 0.05204 0.0
H957 H 0.98719 0.68616 0.86155 0.0
H958 H 1.00558 0.61505 0.99176 0.0
H959 H 0.99557 0.64941 0.80157 0.0
H960 H 0.98307 0.57491 0.71558 0.0
H961 H 0.9769 0.61186 0.77878 0.0
H962 H 0.03197 0.59295 0.9174 0.0
H963 H 0.03782 0.55609 0.8545 0.0
C964 C 0.99738 0.65196 0.99741 0.0
C965 C 0.99156 0.67234 0.9619 0.0
C966 C 1.00206 0.63055 0.96257 0.0
C967 C 1.00086 0.62888 0.89127 0.0
C968 C 0.99614 0.64962 0.85617 0.0
C969 C 0.99164 0.67088 0.89075 0.0
C970 C 0.99404 0.57883 0.75901 0.0
C971 C 1.01148 0.56286 0.77852 0.0
C972 C 0.99049 0.60003 0.79561 0.0
C973 C 1.00412 0.6058 0.85331 0.0
C974 C 0.02105 0.58934 0.87372 0.0
C975 C 0.02454 0.56821 0.83721 0.0
H976 H 0.11058 0.21575 0.48114 0.0
H977 H 0.15354 0.15885 0.40302 0.0
H978 H 0.09062 0.1893 0.5529 0.0
H979 H 0.133 0.13176 0.47639 0.0
H980 H 0.05665 0.10011 0.45806 0.0
H981 H 0.09518 0.11774 0.4519 0.0
H982 H 0.0793 0.16099 0.62771 0.0
H983 H 0.03999 0.14409 0.6309 0.0
C984 C 0.11676 0.19778 0.48136 0.0
C985 C 0.13293 0.18933 0.43304 0.0
C986 C 0.10507 0.18232 0.5233 0.0
C987 C 0.10926 0.15802 0.51816 0.0
C988 C 0.12854 0.15023 0.47935 0.0
C989 C 0.14035 0.1658 0.43722 0.0
C990 C 0.06162 0.11292 0.49653 0.0
C991 C 0.04509 0.12131 0.54358 0.0
C992 C 0.08394 0.12296 0.49353 0.0
C993 C 0.09024 0.1415 0.53795 0.0
C994 C 0.07478 0.14742 0.59104 0.0
C995 C 0.05225 0.13775 0.59301 0.0
H996 H 0.37917 0.1391 0.37489 0.0
H997 H 0.3168 0.12451 0.49153 0.0
H998 H 0.40209 0.11537 0.45104 0.0
H999 H 0.34016 0.10305 0.57088 0.0
H1000 H 0.36997 0.02726 0.56086 0.0
H1001 H 0.35156 0.06442 0.53965 0.0
H1002 H 0.41907 0.09906 0.55064 0.0
H1003 H 0.4377 0.06132 0.57258 0.0
C1004 C 0.37041 0.13161 0.41792 0.0
C1005 C 0.34576 0.13242 0.42386 0.0
C1006 C 0.38372 0.11826 0.46249 0.0
C1007 C 0.37266 0.10621 0.51501 0.0
C1008 C 0.34898 0.11121 0.52893 0.0
C1009 C 0.33557 0.12394 0.48342 0.0
C1010 C 0.38091 0.04281 0.56111 0.0
C1011 C 0.40539 0.04114 0.56771 0.0
C1012 C 0.37028 0.06433 0.54919 0.0
C1013 C 0.38379 0.0849 0.54336 0.0
C1014 C 0.40816 0.08355 0.55413 0.0
C1015 C 0.41884 0.06189 0.56629 0.0
H1016 H 0.41832 0.34235 0.4922 0.0
H1017 H 0.37285 0.38359 0.36629 0.0
H1018 H 0.43632 0.37755 0.53585 0.0
H1019 H 0.39097 0.41942 0.411 0.0
H1020 H 0.46705 0.44513 0.34869 0.0
H1021 H 0.42889 0.42764 0.36621 0.0
H1022 H 0.44651 0.41576 0.57524 0.0
H1023 H 0.48533 0.43264 0.55626 0.0
C1024 C 0.41108 0.35899 0.47667 0.0
C1025 C 0.39505 0.36009 0.42287 0.0
C1026 C 0.42155 0.37945 0.50196 0.0
C1027 C 0.41607 0.40131 0.4739 0.0
C1028 C 0.39634 0.40271 0.43135 0.0
C1029 C 0.38587 0.38217 0.40588 0.0
C1030 C 0.46261 0.43913 0.39865 0.0
C1031 C 0.47944 0.43931 0.4503 0.0
C1032 C 0.44047 0.42946 0.4093 0.0
C1033 C 0.43474 0.41961 0.47188 0.0
C1034 C 0.45054 0.42266 0.52601 0.0
C1035 C 0.47278 0.43233 0.5152 0.0
H1036 H 0.20231 0.4204 0.43611 0.0
H1037 H 0.16 0.36712 0.33651 0.0
H1038 H 0.16802 0.43658 0.48849 0.0
H1039 H 0.12499 0.38373 0.3897 0.0
H1040 H 0.08426 0.45402 0.34124 0.0
H1041 H 0.1075 0.41868 0.35106 0.0
H1042 H 0.13272 0.44289 0.546 0.0
H1043 H 0.11054 0.47904 0.53392 0.0
C1044 C 0.18587 0.41125 0.42782 0.0
C1045 C 0.18392 0.39308 0.37913 0.0
C1046 C 0.16587 0.42069 0.45832 0.0
C1047 C 0.14343 0.41219 0.44095 0.0
C1048 C 0.14192 0.39134 0.402 0.0
C1049 C 0.16204 0.38181 0.37147 0.0
C1050 C 0.09457 0.4517 0.38657 0.0
C1051 C 0.09656 0.46992 0.43495 0.0
C1052 C 0.10761 0.43111 0.39301 0.0
C1053 C 0.12287 0.42828 0.44821 0.0
C1054 C 0.12184 0.44487 0.50163 0.0
C1055 C 0.10898 0.46561 0.49483 0.0
H1056 H 0.91671 0.81778 0.78003 0.0
H1057 H 0.89408 0.88237 0.87897 0.0
H1058 H 0.9386 0.84005 0.70058 0.0
H1059 H 0.91878 0.9043 0.80426 0.0
H1060 H 0.97617 0.93973 0.69601 0.0
H1061 H 0.93869 0.92003 0.71265 0.0
H1062 H 0.97541 0.85395 0.73207 0.0
H1063 H 1.01226 0.8734 0.714 0.0
C1064 C 0.91589 0.83665 0.78545 0.0
C1065 C 0.90535 0.8479 0.84186 0.0
C1066 C 0.92891 0.84952 0.73939 0.0
C1067 C 0.93219 0.87375 0.74954 0.0
C1068 C 0.91765 0.88547 0.7965 0.0
C1069 C 0.90381 0.87265 0.84097 0.0
C1070 C 0.97612 0.92092 0.7026 0.0
C1071 C 0.99731 0.90819 0.70385 0.0
C1072 C 0.95458 0.9096 0.71207 0.0
C1073 C 0.9538 0.88532 0.72378 0.0
C1074 C 0.97497 0.87253 0.72151 0.0
C1075 C 0.99635 0.88377 0.71156 0.0
H1076 H 0.70709 0.92059 0.78795 0.0
H1077 H 0.64829 0.88151 0.86658 0.0
H1078 H 0.68146 0.94145 0.71595 0.0
H1079 H 0.62202 0.90306 0.79287 0.0
H1080 H 0.59555 0.98111 0.8172 0.0
H1081 H 0.6111 0.94171 0.82083 0.0
H1082 H 0.65321 0.95524 0.64402 0.0
H1083 H 0.63862 0.9955 0.6438 0.0
C1084 C 0.68882 0.91541 0.78791 0.0
C1085 C 0.67969 0.90033 0.83699 0.0
C1086 C 0.67382 0.92766 0.74571 0.0
C1087 C 0.64936 0.92507 0.75139 0.0
C1088 C 0.64071 0.9064 0.78986 0.0
C1089 C 0.65582 0.89403 0.83224 0.0
C1090 C 0.60769 0.97549 0.77808 0.0
C1091 C 0.61637 0.99153 0.73132 0.0
C1092 C 0.61647 0.95265 0.77951 0.0
C1093 C 0.63399 0.94526 0.73369 0.0
C1094 C 0.64034 0.9605 0.68151 0.0
C1095 C 0.632 0.98357 0.68125 0.0
H1096 H 0.66111 0.66009 0.89596 0.0
H1097 H 0.61458 0.70166 0.77419 0.0
H1098 H 0.6428 0.62438 0.85123 0.0
H1099 H 0.59646 0.66644 0.73016 0.0
H1100 H 0.54841 0.60942 0.71045 0.0
H1101 H 0.58691 0.62703 0.69022 0.0
H1102 H 0.60425 0.61845 0.90081 0.0
H1103 H 0.5666 0.60005 0.91957 0.0
C1104 C 0.64788 0.66161 0.857 0.0
C1105 C 0.6384 0.68369 0.84148 0.0
C1106 C 0.63735 0.64114 0.83142 0.0
C1107 C 0.6173 0.64265 0.79018 0.0
C1108 C 0.61152 0.66455 0.76305 0.0
C1109 C 0.62203 0.68498 0.78854 0.0
C1110 C 0.56092 0.61048 0.75154 0.0
C1111 C 0.55434 0.60409 0.81705 0.0
C1112 C 0.58294 0.62056 0.74001 0.0
C1113 C 0.59862 0.62448 0.79398 0.0
C1114 C 0.59286 0.6156 0.85769 0.0
C1115 C 0.57101 0.60544 0.86898 0.0
H1116 H 0.82005 0.62411 0.77569 0.0
H1117 H 0.87237 0.64709 0.92066 0.0
H1118 H 0.85025 0.60576 0.70849 0.0
H1119 H 0.90192 0.62548 0.85883 0.0
H1120 H 0.88146 0.53203 0.74276 0.0
H1121 H 0.86187 0.56926 0.73481 0.0
H1122 H 0.92655 0.60502 0.78932 0.0
H1123 H 0.94567 0.56687 0.80109 0.0
C1124 C 0.83795 0.6258 0.79328 0.0
C1125 C 0.84326 0.63531 0.85762 0.0
C1126 C 0.8554 0.61473 0.75477 0.0
C1127 C 0.87814 0.61197 0.78134 0.0
C1128 C 0.88441 0.62599 0.83775 0.0
C1129 C 0.86716 0.63809 0.8745 0.0
C1130 C 0.89157 0.54791 0.75175 0.0
C1131 C 0.91475 0.54664 0.7749 0.0
C1132 C 0.88044 0.56953 0.74621 0.0
C1133 C 0.89228 0.59057 0.76351 0.0
C1134 C 0.91652 0.5893 0.77791 0.0
C1135 C 0.92763 0.56746 0.78401 0.0
H1136 H 1.00128 0.18795 0.92721 0.0
H1137 H 0.07483 0.17153 0.90445 0.0
H1138 H 0.99143 0.15454 0.85327 0.0
H1139 H 0.06512 0.13748 0.83548 0.0
H1140 H 0.044 0.08443 0.67236 0.0
H1141 H 0.05332 0.12032 0.73633 0.0
H1142 H 0.98787 0.11418 0.84497 0.0
H1143 H 0.97853 0.07881 0.77912 0.0
C1144 C 0.01541 0.17738 0.90636 0.0
C1145 C 0.03889 0.18259 0.92332 0.0
C1146 C 1.00975 0.1578 0.86452 0.0
C1147 C 0.02736 0.14263 0.8382 0.0
C1148 C 0.05084 0.14845 0.85344 0.0
C1149 C 0.05646 0.16805 0.89441 0.0
C1150 C 0.03178 0.09066 0.71051 0.0
C1151 C 1.01082 0.07834 0.72188 0.0
C1152 C 0.03703 0.11142 0.7474 0.0
C1153 C 0.02144 0.12067 0.79678 0.0
C1154 C 1.00032 0.10826 0.80716 0.0
C1155 C 0.99502 0.08766 0.76985 0.0
H1156 H 0.34496 0.0653 0.81562 0.0
H1157 H 0.3669 0.02103 0.97775 0.0
H1158 H 0.37871 0.05247 0.74843 0.0
H1159 H 0.40135 1.0089 0.9126 0.0
H1160 H 0.45637 0.98022 0.76735 0.0
H1161 H 0.41928 0.98868 0.82416 0.0
H1162 H 0.41896 0.05794 0.73829 0.0
H1163 H 0.4556 0.04876 0.67938 0.0
C1164 C 0.35674 0.05231 0.83619 0.0
C1165 C 0.3529 0.04379 0.90154 0.0
C1166 C 0.37647 0.04528 0.7982 0.0
C1167 C 0.39333 0.02982 0.82482 0.0
C1168 C 0.38885 0.02055 0.88929 0.0
C1169 C 0.36892 0.02738 0.92688 0.0
C1170 C 0.44839 0.99731 0.76102 0.0
C1171 C 0.45936 0.01408 0.72045 0.0
C1172 C 0.42706 1.00226 0.79394 0.0
C1173 C 0.41582 0.02417 0.78711 0.0
C1174 C 0.42665 0.04076 0.74494 0.0
C1175 C 0.44799 0.03571 0.7118 0.0
H1176 H 0.46336 0.33993 0.82712 0.0
H1177 H 0.51684 0.36391 0.96549 0.0
H1178 H 0.47406 0.37084 0.74882 0.0
H1179 H 0.52726 0.39536 0.88866 0.0
H1180 H 0.54691 0.44758 0.72817 0.0
H1181 H 0.54242 0.41023 0.7856 0.0
H1182 H 0.46787 0.41177 0.74545 0.0
H1183 H 0.47257 0.44848 0.68622 0.0
C1184 C 0.47805 0.3513 0.83953 0.0
C1185 C 0.48963 0.34912 0.90175 0.0
C1186 C 0.48391 0.36939 0.79529 0.0
C1187 C 0.50131 0.38608 0.81245 0.0
C1188 C 0.51393 0.38287 0.8729 0.0
C1189 C 0.50811 0.36467 0.91699 0.0
C1190 C 0.52962 0.43977 0.73064 0.0
C1191 C 0.51007 0.45134 0.70317 0.0
C1192 C 0.52699 0.41836 0.76425 0.0
C1193 C 0.50474 0.40779 0.77103 0.0
C1194 C 0.48537 0.41899 0.74103 0.0
C1195 C 0.48802 0.44034 0.70755 0.0
H1196 H 0.19874 0.46046 0.84361 0.0
H1197 H 0.18713 0.5258 0.95109 0.0
H1198 H 0.16462 0.46784 0.77287 0.0
H1199 H 0.15225 0.53301 0.88198 0.0
H1200 H 0.09588 0.54625 0.72255 0.0
H1201 H 0.13365 0.54179 0.77877 0.0
H1202 H 0.12396 0.46655 0.7776 0.0
H1203 H 0.0869 0.47106 0.71867 0.0
C1204 C 0.18903 0.47665 0.85142 0.0
C1205 C 0.19583 0.49259 0.90288 0.0
C1206 C 0.16915 0.48076 0.81138 0.0
C1207 C 0.15504 0.50085 0.82193 0.0
C1208 C 0.16253 0.51739 0.87146 0.0
C1209 C 0.18267 0.51334 0.91121 0.0
C1210 C 0.10178 0.52873 0.73392 0.0
C1211 C 0.08777 0.50908 0.71713 0.0
C1212 C 0.12356 0.52615 0.76684 0.0
C1213 C 0.13218 0.50379 0.78387 0.0
C1214 C 0.11838 0.48412 0.76521 0.0
C1215 C 0.09674 0.48672 0.73204 0.0
H1216 H 0.03648 0.85206 0.3535 0.0
H1217 H 0.96259 0.86748 0.37223 0.0
H1218 H 0.04542 0.88591 0.42685 0.0
H1219 H 0.97139 0.90198 0.44014 0.0
H1220 H 0.98993 0.95765 0.59658 0.0
H1221 H 0.98215 0.92034 0.53799 0.0
H1222 H 0.04856 0.92618 0.43389 0.0
H1223 H 0.05661 0.96258 0.49629 0.0
C1224 C 0.02209 0.8625 0.37336 0.0
C1225 C 0.99879 0.85691 0.35534 0.0
C1226 C 0.02722 0.88233 0.41484 0.0
C1227 C 1.00925 0.89739 0.43961 0.0
C1228 C 0.98594 0.89112 0.4235 0.0
C1229 C 0.98085 0.87126 0.38305 0.0
C1230 C 1.00277 0.95089 0.56107 0.0
C1231 C 0.02365 0.96337 0.55026 0.0
C1232 C 0.99834 0.92941 0.52686 0.0
C1233 C 0.01456 0.91979 0.47977 0.0
C1234 C 0.03561 0.93239 0.46988 0.0
C1235 C 0.04016 0.95359 0.50513 0.0
H1236 H 0.68292 0.03345 0.35442 0.0
H1237 H 0.66473 0.96025 0.37131 0.0
H1238 H 0.64984 0.04394 0.42767 0.0
H1239 H 0.63102 0.97063 0.43969 0.0
H1240 H 0.579 0.99292 0.60212 0.0
H1241 H 0.61464 0.98288 0.53945 0.0
H1242 H 0.60935 0.04807 0.43196 0.0
H1243 H 0.57407 0.05807 0.49609 0.0
C1244 C 0.67204 0.01955 0.37397 0.0
C1245 C 0.67658 0.99599 0.35564 0.0
C1246 C 0.65268 0.02558 0.41532 0.0
C1247 C 0.63714 1.00825 0.4396 0.0
C1248 C 0.64234 0.98466 0.42319 0.0
C1249 C 0.66172 0.97867 0.38271 0.0
C1250 C 0.58536 1.00493 0.56449 0.0
C1251 C 0.57331 0.02599 0.55274 0.0
C1252 C 0.60597 0.99927 0.52847 0.0
C1253 C 0.61536 0.0146 0.47996 0.0
C1254 C 0.60326 0.03585 0.46927 0.0
C1255 C 0.58276 0.04152 0.50555 0.0
H1256 H 0.518 0.67699 0.30406 0.0
H1257 H 0.57181 0.70104 0.44121 0.0
H1258 H 0.50771 0.64563 0.38134 0.0
H1259 H 0.56125 0.67022 0.52 0.0
H1260 H 0.56237 0.59277 0.5846 0.0
H1261 H 0.56718 0.62931 0.52466 0.0
H1262 H 0.49263 0.63096 0.48457 0.0
H1263 H 0.48805 0.59376 0.54272 0.0
C1264 C 0.52685 0.67625 0.35239 0.0
C1265 C 0.54535 0.69184 0.36719 0.0
C1266 C 0.52109 0.65811 0.39675 0.0
C1267 C 0.53381 0.65495 0.45707 0.0
C1268 C 0.5513 0.67163 0.47369 0.0
C1269 C 0.55709 0.68968 0.42916 0.0
C1270 C 0.54695 0.60089 0.56308 0.0
C1271 C 0.52487 0.58993 0.56768 0.0
C1272 C 0.54966 0.62215 0.5292 0.0
C1273 C 0.53033 0.63335 0.49896 0.0
C1274 C 0.50804 0.62284 0.50603 0.0
C1275 C 0.50535 0.60151 0.54005 0.0
H1276 H 0.85982 0.5175 0.28839 0.0
H1277 H 0.83353 0.56085 0.45161 0.0
H1278 H 0.8942 0.50742 0.35654 0.0
H1279 H 0.86774 0.55068 0.52037 0.0
H1280 H 0.92971 0.51672 0.63864 0.0
H1281 H 0.89183 0.51954 0.57947 0.0
H1282 H 0.92857 0.53146 0.3928 0.0
H1283 H 0.96602 0.52871 0.45194 0.0
C1284 C 0.86086 0.52404 0.33996 0.0
C1285 C 0.84361 0.53953 0.36502 0.0
C1286 C 0.8808 0.51861 0.37876 0.0
C1287 C 0.88401 0.52842 0.44399 0.0
C1288 C 0.8659 0.54263 0.47075 0.0
C1289 C 0.84613 0.54831 0.43152 0.0
C1290 C 0.92962 0.51991 0.58502 0.0
C1291 C 0.95093 0.52299 0.55033 0.0
C1292 C 0.90791 0.52158 0.55101 0.0
C1293 C 0.90698 0.52567 0.481 0.0
C1294 C 0.92842 0.52809 0.4464 0.0
C1295 C 0.94998 0.52689 0.48056 0.0
loop_
_geom_bond_atom_site_label_1
_geom_bond_atom_site_label_2
_geom_bond_distance
_geom_bond_site_symmetry_2
_ccdc_geom_bond_type
C0 C1 1.391 . S
C0 C4 1.391 . S
C0 H42 0.948 . S
C1 C0 1.391 . S
C1 C2 1.391 . S
C2 C1 1.391 . S
C2 H58 0.947 . S
C2 C59 1.392 . S
C3 C4 1.391 . S
C3 C7 1.397 . S
C3 C59 1.419 . S
C4 C0 1.391 . S
C4 C3 1.391 . S
C4 C5 1.399 . S
C5 C4 1.399 . S
C5 C8 1.396 . S
C5 C17 1.453 . S
C5 C18 1.684 . S
H6 C30 0.948 . S
C7 C3 1.397 . S
C7 C8 1.394 . S
C7 C26 1.723 . S
C8 C5 1.396 . S
C8 C7 1.394 . S
C8 C38 1.723 . S
H9 C32 0.947 . S
H10 C33 0.948 . S
H11 C39 0.982 . S
H12 C40 0.979 . S
H13 C40 0.980 . S
H14 C40 0.976 1_556 S
H15 C39 0.979 . S
H16 C39 0.977 . S
C17 C5 1.453 . S
C17 H46 0.982 . S
C17 H47 0.979 . S
C17 H48 0.977 . S
C18 C5 1.684 . S
C18 H43 0.979 . S
C18 H44 0.980 . S
C18 H45 0.983 . S
C19 C20 1.391 1_554 S
C19 C24 1.391 . S
C19 H49 0.948 . S
C20 C19 1.391 1_556 S
C20 C21 1.391 . S
C21 C20 1.391 . S
C21 C22 1.392 1_556 S
C21 H50 0.947 . S
C22 C21 1.392 1_554 S
C22 C23 1.419 . S
C22 H51 0.948 . S
C23 C22 1.419 . S
C23 C24 1.391 . S
C23 C27 1.397 . S
C24 C19 1.391 . S
C24 C23 1.391 . S
C24 C25 1.399 . S
C25 C24 1.399 . S
C25 C26 1.396 . S
C25 C28 1.453 . S
C25 C29 1.684 . S
C26 C7 1.723 . S
C26 C25 1.396 . S
C26 C27 1.394 . S
C27 C23 1.397 . S
C27 C26 1.394 . S
C27 C37 1.723 . S
C28 C25 1.453 . S
C28 H52 0.982 . S
C28 H53 0.979 . S
C28 H54 0.977 . S
C29 C25 1.684 . S
C29 H55 0.979 . S
C29 H56 0.980 . S
C29 H57 0.983 . S
C30 H6 0.948 . S
C30 C31 1.391 . S
C30 C35 1.391 . S
C31 C30 1.391 . S
C31 C32 1.391 . S
C32 H9 0.947 . S
C32 C31 1.391 . S
C32 C33 1.392 . S
C33 H10 0.948 . S
C33 C32 1.392 . S
C33 C34 1.419 . S
C34 C33 1.419 . S
C34 C35 1.391 . S
C34 C38 1.397 . S
C35 C30 1.391 . S
C35 C34 1.391 . S
C35 C36 1.399 . S
C36 C35 1.399 . S
C36 C37 1.396 . S
C36 C39 1.453 . S
C36 C40 1.684 . S
C37 C27 1.723 . S
C37 C36 1.396 . S
C37 C38 1.394 . S
C38 C8 1.723 . S
C38 C34 1.397 . S
C38 C37 1.394 . S
C39 H11 0.982 . S
C39 H15 0.979 . S
C39 H16 0.977 . S
C39 C36 1.453 . S
C40 H12 0.979 . S
C40 H13 0.980 . S
C40 H14 0.976 1_554 S
C40 C36 1.684 . S
H41 C59 0.948 . S
H42 C0 0.948 . S
H43 C18 0.979 . S
H44 C18 0.980 . S
H45 C18 0.983 . S
H46 C17 0.982 . S
H47 C17 0.979 . S
H48 C17 0.977 . S
H49 C19 0.948 . S
H50 C21 0.947 . S
H51 C22 0.948 . S
H52 C28 0.982 . S
H53 C28 0.979 . S
H54 C28 0.977 . S
H55 C29 0.979 . S
H56 C29 0.980 . S
H57 C29 0.983 . S
H58 C2 0.947 . S
C59 C2 1.392 . S
C59 C3 1.419 . S
C59 H41 0.948 . S
C60 C61 1.391 . S
C60 C64 1.391 . S
C60 H102 0.948 1_554 S
C61 C60 1.391 . S
C61 C62 1.391 . S
C62 C61 1.391 . S
C62 H118 0.947 . S
C62 C119 1.392 . S
C63 C64 1.391 . S
C63 C67 1.397 . S
C63 C119 1.419 . S
C64 C60 1.391 . S
C64 C63 1.391 . S
C64 C65 1.399 . S
C65 C64 1.399 . S
C65 C68 1.396 . S
C65 C77 1.453 . S
C65 C78 1.684 . S
H66 C90 0.948 . S
C67 C63 1.397 . S
C67 C68 1.394 . S
C67 C86 1.723 . S
C68 C65 1.396 . S
C68 C67 1.394 . S
C68 C98 1.723 . S
H69 C92 0.947 . S
H70 C93 0.948 . S
H71 C99 0.982 . S
H72 C100 0.979 . S
H73 C100 0.980 . S
H74 C100 0.983 . S
H75 C99 0.979 . S
H76 C99 0.977 . S
C77 C65 1.453 . S
C77 H106 0.982 . S
C77 H107 0.979 1_554 S
C77 H108 0.977 . S
C78 C65 1.684 . S
C78 H103 0.979 . S
C78 H104 0.980 . S
C78 H105 0.983 1_554 S
C79 C80 1.391 . S
C79 C84 1.391 . S
C79 H109 0.948 . S
C80 C79 1.391 . S
C80 C81 1.391 . S
C81 C80 1.391 . S
C81 C82 1.392 . S
C81 H110 0.947 . S
C82 C81 1.392 . S
C82 C83 1.419 . S
C82 H111 0.948 . S
C83 C82 1.419 . S
C83 C84 1.391 . S
C83 C87 1.397 . S
C84 C79 1.391 . S
C84 C83 1.391 . S
C84 C85 1.399 . S
C85 C84 1.399 . S
C85 C86 1.396 . S
C85 C88 1.453 . S
C85 C89 1.684 . S
C86 C67 1.723 . S
C86 C85 1.396 . S
C86 C87 1.394 . S
C87 C83 1.397 . S
C87 C86 1.394 . S
C87 C97 1.723 . S
C88 C85 1.453 . S
C88 H112 0.982 . S
C88 H113 0.979 . S
C88 H114 0.977 . S
C89 C85 1.684 . S
C89 H115 0.979 . S
C89 H116 0.980 . S
C89 H117 0.983 . S
C90 H66 0.948 . S
C90 C91 1.391 . S
C90 C95 1.391 . S
C91 C90 1.391 . S
C91 C92 1.391 . S
C92 H69 0.947 . S
C92 C91 1.391 . S
C92 C93 1.392 . S
C93 H70 0.948 . S
C93 C92 1.392 . S
C93 C94 1.419 . S
C94 C93 1.419 . S
C94 C95 1.391 . S
C94 C98 1.397 . S
C95 C90 1.391 . S
C95 C94 1.391 . S
C95 C96 1.399 . S
C96 C95 1.399 . S
C96 C97 1.396 . S
C96 C99 1.453 . S
C96 C100 1.684 . S
C97 C87 1.723 . S
C97 C96 1.396 . S
C97 C98 1.394 . S
C98 C68 1.723 . S
C98 C94 1.397 . S
C98 C97 1.394 . S
C99 H71 0.982 . S
C99 H75 0.979 . S
C99 H76 0.977 . S
C99 C96 1.453 . S
C100 H72 0.979 . S
C100 H73 0.980 . S
C100 H74 0.983 . S
C100 C96 1.684 . S
H101 C119 0.948 . S
H102 C60 0.948 1_556 S
H103 C78 0.979 . S
H104 C78 0.980 . S
H105 C78 0.983 1_556 S
H106 C77 0.982 . S
H107 C77 0.979 1_556 S
H108 C77 0.977 . S
H109 C79 0.948 . S
H110 C81 0.947 . S
H111 C82 0.948 . S
H112 C88 0.982 . S
H113 C88 0.979 . S
H114 C88 0.977 . S
H115 C89 0.979 . S
H116 C89 0.980 . S
H117 C89 0.983 . S
H118 C62 0.947 . S
C119 C62 1.392 . S
C119 C63 1.419 . S
C119 H101 0.948 . S
C120 C121 1.391 . S
C120 C124 1.391 . S
C120 H162 0.948 . S
C121 C120 1.391 . S
C121 C122 1.391 . S
C122 C121 1.391 . S
C122 H178 0.947 . S
C122 C179 1.392 . S
C123 C124 1.391 . S
C123 C127 1.397 . S
C123 C179 1.419 . S
C124 C120 1.391 . S
C124 C123 1.391 . S
C124 C125 1.399 . S
C125 C124 1.399 . S
C125 C128 1.396 . S
C125 C137 1.453 . S
C125 C138 1.684 . S
H126 C150 0.948 . S
C127 C123 1.397 . S
C127 C128 1.394 . S
C127 C146 1.723 . S
C128 C125 1.396 . S
C128 C127 1.394 . S
C128 C158 1.723 . S
H129 C152 0.947 . S
H130 C153 0.948 . S
H131 C159 0.982 . S
H132 C160 0.979 . S
H133 C160 0.980 . S
H134 C160 0.983 . S
H135 C159 0.979 . S
H136 C159 0.977 . S
C137 C125 1.453 . S
C137 H166 0.982 . S
C137 H167 0.979 . S
C137 H168 0.977 . S
C138 C125 1.684 . S
C138 H163 0.979 . S
C138 H164 0.980 . S
C138 H165 0.983 . S
C139 C140 1.391 . S
C139 C144 1.391 . S
C139 H169 0.948 1_554 S
C140 C139 1.391 . S
C140 C141 1.391 . S
C141 C140 1.391 . S
C141 C142 1.392 . S
C141 H170 0.947 . S
C142 C141 1.392 . S
C142 C143 1.419 . S
C142 H171 0.948 . S
C143 C142 1.419 . S
C143 C144 1.391 . S
C143 C147 1.397 . S
C144 C139 1.391 . S
C144 C143 1.391 . S
C144 C145 1.399 . S
C145 C144 1.399 . S
C145 C146 1.396 . S
C145 C148 1.453 . S
C145 C149 1.684 . S
C146 C127 1.723 . S
C146 C145 1.396 . S
C146 C147 1.394 . S
C147 C143 1.397 . S
C147 C146 1.394 . S
C147 C157 1.723 . S
C148 C145 1.453 . S
C148 H172 0.982 . S
C148 H173 0.979 1_554 S
C148 H174 0.977 . S
C149 C145 1.684 . S
C149 H175 0.979 . S
C149 H176 0.980 . S
C149 H177 0.983 1_554 S
C150 H126 0.948 . S
C150 C151 1.391 . S
C150 C155 1.391 . S
C151 C150 1.391 . S
C151 C152 1.391 . S
C152 H129 0.947 . S
C152 C151 1.391 . S
C152 C153 1.392 . S
C153 H130 0.948 . S
C153 C152 1.392 . S
C153 C154 1.419 . S
C154 C153 1.419 . S
C154 C155 1.391 . S
C154 C158 1.397 . S
C155 C150 1.391 . S
C155 C154 1.391 . S
C155 C156 1.399 . S
C156 C155 1.399 . S
C156 C157 1.396 . S
C156 C159 1.453 . S
C156 C160 1.684 . S
C157 C147 1.723 . S
C157 C156 1.396 . S
C157 C158 1.394 . S
C158 C128 1.723 . S
C158 C154 1.397 . S
C158 C157 1.394 . S
C159 H131 0.982 . S
C159 H135 0.979 . S
C159 H136 0.977 . S
C159 C156 1.453 . S
C160 H132 0.979 . S
C160 H133 0.980 . S
C160 H134 0.983 . S
C160 C156 1.684 . S
H161 C179 0.948 . S
H162 C120 0.948 . S
H163 C138 0.979 . S
H164 C138 0.980 . S
H165 C138 0.983 . S
H166 C137 0.982 . S
H167 C137 0.979 . S
H168 C137 0.977 . S
H169 C139 0.948 1_556 S
H170 C141 0.947 . S
H171 C142 0.948 . S
H172 C148 0.982 . S
H173 C148 0.979 1_556 S
H174 C148 0.977 . S
H175 C149 0.979 . S
H176 C149 0.980 . S
H177 C149 0.983 1_556 S
H178 C122 0.947 . S
C179 C122 1.392 . S
C179 C123 1.419 . S
C179 H161 0.948 . S
C180 C181 1.391 . S
C180 C184 1.391 . S
C180 H222 0.948 . S
C181 C180 1.391 . S
C181 C182 1.391 . S
C182 C181 1.391 . S
C182 H238 0.947 . S
C182 C239 1.392 . S
C183 C184 1.391 . S
C183 C187 1.397 . S
C183 C239 1.419 . S
C184 C180 1.391 . S
C184 C183 1.391 . S
C184 C185 1.399 . S
C185 C184 1.399 . S
C185 C188 1.396 . S
C185 C197 1.453 . S
C185 C198 1.684 . S
H186 C210 0.948 . S
C187 C183 1.397 . S
C187 C188 1.394 . S
C187 C206 1.723 . S
C188 C185 1.396 . S
C188 C187 1.394 . S
C188 C218 1.723 . S
H189 C212 0.947 . S
H190 C213 0.948 . S
H191 C219 0.982 . S
H192 C220 0.979 . S
H193 C220 0.980 . S
H194 C220 0.989 . S
H195 C219 0.979 . S
H196 C219 0.977 . S
C197 C185 1.453 . S
C197 H226 0.982 . S
C197 H227 0.979 . S
C197 H228 0.977 . S
C198 C185 1.684 . S
C198 H223 0.979 . S
C198 H224 0.980 . S
C198 H225 0.983 . S
C199 C200 1.382 1_554 S
C199 C204 1.391 . S
C199 H229 0.948 . S
C200 C199 1.382 1_556 S
C200 C201 1.394 . S
C201 C200 1.394 . S
C201 C202 1.392 1_556 S
C201 H230 0.947 . S
C202 C201 1.392 1_554 S
C202 C203 1.419 . S
C202 H231 0.948 . S
C203 C202 1.419 . S
C203 C204 1.391 . S
C203 C207 1.397 . S
C204 C199 1.391 . S
C204 C203 1.391 . S
C204 C205 1.399 . S
C205 C204 1.399 . S
C205 C206 1.396 . S
C205 C208 1.453 . S
C205 C209 1.684 . S
C206 C187 1.723 . S
C206 C205 1.396 . S
C206 C207 1.394 . S
C207 C203 1.397 . S
C207 C206 1.394 . S
C207 C217 1.723 . S
C208 C205 1.453 . S
C208 H232 0.982 . S
C208 H233 0.979 . S
C208 H234 0.977 . S
C209 C205 1.684 . S
C209 H235 0.979 . S
C209 H236 0.980 . S
C209 H237 0.983 . S
C210 H186 0.948 . S
C210 C211 1.391 . S
C210 C215 1.391 . S
C211 C210 1.391 . S
C211 C212 1.391 . S
C212 H189 0.947 . S
C212 C211 1.391 . S
C212 C213 1.392 . S
C213 H190 0.948 . S
C213 C212 1.392 . S
C213 C214 1.419 . S
C214 C213 1.419 . S
C214 C215 1.391 . S
C214 C218 1.397 . S
C215 C210 1.391 . S
C215 C214 1.391 . S
C215 C216 1.399 . S
C216 C215 1.399 . S
C216 C217 1.396 . S
C216 C219 1.453 . S
C216 C220 1.684 . S
C217 C207 1.723 . S
C217 C216 1.396 . S
C217 C218 1.394 . S
C218 C188 1.723 . S
C218 C214 1.397 . S
C218 C217 1.394 . S
C219 H191 0.982 . S
C219 H195 0.979 . S
C219 H196 0.977 . S
C219 C216 1.453 . S
C220 H192 0.979 . S
C220 H193 0.980 . S
C220 H194 0.989 . S
C220 C216 1.684 . S
H221 C239 0.948 . S
H222 C180 0.948 . S
H223 C198 0.979 . S
H224 C198 0.980 . S
H225 C198 0.983 . S
H226 C197 0.982 . S
H227 C197 0.979 . S
H228 C197 0.977 . S
H229 C199 0.948 . S
H230 C201 0.947 . S
H231 C202 0.948 . S
H232 C208 0.982 . S
H233 C208 0.979 . S
H234 C208 0.977 . S
H235 C209 0.979 . S
H236 C209 0.980 . S
H237 C209 0.983 . S
H238 C182 0.947 . S
C239 C182 1.392 . S
C239 C183 1.419 . S
C239 H221 0.948 . S
C240 C241 1.391 . S
C240 C244 1.391 . S
C240 H282 0.948 1_554 S
C241 C240 1.391 . S
C241 C242 1.391 . S
C242 C241 1.391 . S
C242 H298 0.947 . S
C242 C299 1.392 . S
C243 C244 1.391 . S
C243 C247 1.397 . S
C243 C299 1.419 . S
C244 C240 1.391 . S
C244 C243 1.391 . S
C244 C245 1.399 1_554 S
C245 C244 1.399 1_556 S
C245 C248 1.396 . S
C245 C257 1.453 . S
C245 C258 1.684 . S
H246 C270 0.948 . S
C247 C243 1.397 . S
C247 C248 1.394 1_554 S
C247 C266 1.723 . S
C248 C245 1.396 . S
C248 C247 1.394 1_556 S
C248 C278 1.723 . S
H249 C272 0.947 . S
H250 C273 0.948 . S
H251 C279 0.982 . S
H252 C280 0.979 . S
H253 C280 0.980 . S
H254 C280 0.983 . S
H255 C279 0.979 . S
H256 C279 0.977 . S
C257 C245 1.453 . S
C257 H286 0.982 . S
C257 H287 0.979 . S
C257 H288 0.977 . S
C258 C245 1.684 . S
C258 H283 0.979 . S
C258 H284 0.980 . S
C258 H285 0.983 . S
C259 C260 1.391 . S
C259 C264 1.391 . S
C259 H289 0.948 . S
C260 C259 1.391 . S
C260 C261 1.391 . S
C261 C260 1.391 . S
C261 C262 1.392 . S
C261 H290 0.947 . S
C262 C261 1.392 . S
C262 C263 1.419 . S
C262 H291 0.948 . S
C263 C262 1.419 . S
C263 C264 1.391 . S
C263 C267 1.397 . S
C264 C259 1.391 . S
C264 C263 1.391 . S
C264 C265 1.399 . S
C265 C264 1.399 . S
C265 C266 1.396 . S
C265 C268 1.453 . S
C265 C269 1.684 . S
C266 C247 1.723 . S
C266 C265 1.396 . S
C266 C267 1.394 . S
C267 C263 1.397 . S
C267 C266 1.394 . S
C267 C277 1.723 1_554 S
C268 C265 1.453 . S
C268 H292 0.982 . S
C268 H293 0.979 . S
C268 H294 0.977 . S
C269 C265 1.684 . S
C269 H295 0.979 . S
C269 H296 0.980 . S
C269 H297 0.983 . S
C270 H246 0.948 . S
C270 C271 1.391 . S
C270 C275 1.391 . S
C271 C270 1.391 . S
C271 C272 1.391 . S
C272 H249 0.947 . S
C272 C271 1.391 . S
C272 C273 1.392 . S
C273 H250 0.948 . S
C273 C272 1.392 . S
C273 C274 1.419 . S
C274 C273 1.419 . S
C274 C275 1.391 . S
C274 C278 1.397 . S
C275 C270 1.391 . S
C275 C274 1.391 . S
C275 C276 1.399 . S
C276 C275 1.399 . S
C276 C277 1.396 . S
C276 C279 1.453 . S
C276 C280 1.684 . S
C277 C267 1.723 1_556 S
C277 C276 1.396 . S
C277 C278 1.394 . S
C278 C248 1.723 . S
C278 C274 1.397 . S
C278 C277 1.394 . S
C279 H251 0.982 . S
C279 H255 0.979 . S
C279 H256 0.977 . S
C279 C276 1.453 . S
C280 H252 0.979 . S
C280 H253 0.980 . S
C280 H254 0.983 . S
C280 C276 1.684 . S
H281 C299 0.948 . S
H282 C240 0.948 1_556 S
H283 C258 0.979 . S
H284 C258 0.980 . S
H285 C258 0.983 . S
H286 C257 0.982 . S
H287 C257 0.979 . S
H288 C257 0.977 . S
H289 C259 0.948 . S
H290 C261 0.947 . S
H291 C262 0.948 . S
H292 C268 0.982 . S
H293 C268 0.979 . S
H294 C268 0.977 . S
H295 C269 0.979 . S
H296 C269 0.980 . S
H297 C269 0.983 . S
H298 C242 0.947 . S
C299 C242 1.392 . S
C299 C243 1.419 . S
C299 H281 0.948 . S
C300 C301 1.391 . S
C300 C304 1.391 . S
C300 H342 0.948 . S
C301 C300 1.391 . S
C301 C302 1.391 . S
C302 C301 1.391 . S
C302 H358 0.947 . S
C302 C359 1.392 . S
C303 C304 1.391 . S
C303 C307 1.397 . S
C303 C359 1.419 . S
C304 C300 1.391 . S
C304 C303 1.391 . S
C304 C305 1.399 . S
C305 C304 1.399 . S
C305 C308 1.396 . S
C305 C317 1.453 . S
C305 C318 1.684 . S
H306 C330 0.948 1_556 S
C307 C303 1.397 . S
C307 C308 1.394 . S
C307 C326 1.723 1_554 S
C308 C305 1.396 . S
C308 C307 1.394 . S
C308 C338 1.723 . S
H309 C332 0.947 . S
H310 C333 0.948 . S
H311 C339 0.982 . S
H312 C340 0.979 . S
H313 C340 0.980 . S
H314 C340 0.983 . S
H315 C339 0.979 . S
H316 C339 0.977 . S
C317 C305 1.453 . S
C317 H346 0.982 . S
C317 H347 0.979 . S
C317 H348 0.977 . S
C318 C305 1.684 . S
C318 H343 0.979 . S
C318 H344 0.980 . S
C318 H345 0.983 . S
C319 C320 1.391 . S
C319 C324 1.391 . S
C319 H349 0.948 . S
C320 C319 1.391 . S
C320 C321 1.391 . S
C321 C320 1.391 . S
C321 C322 1.392 . S
C321 H350 0.947 . S
C322 C321 1.392 . S
C322 C323 1.419 . S
C322 H351 0.948 . S
C323 C322 1.419 . S
C323 C324 1.391 . S
C323 C327 1.397 . S
C324 C319 1.391 . S
C324 C323 1.391 . S
C324 C325 1.399 . S
C325 C324 1.399 . S
C325 C326 1.396 . S
C325 C328 1.453 . S
C325 C329 1.684 . S
C326 C307 1.723 1_556 S
C326 C325 1.396 . S
C326 C327 1.394 . S
C327 C323 1.397 . S
C327 C326 1.394 . S
C327 C337 1.723 . S
C328 C325 1.453 . S
C328 H352 0.982 . S
C328 H353 0.979 . S
C328 H354 0.977 . S
C329 C325 1.684 . S
C329 H355 0.979 . S
C329 H356 0.980 . S
C329 H357 0.983 . S
C330 H306 0.948 1_554 S
C330 C331 1.391 . S
C330 C335 1.391 . S
C331 C330 1.391 . S
C331 C332 1.391 . S
C332 H309 0.947 . S
C332 C331 1.391 . S
C332 C333 1.392 . S
C333 H310 0.948 . S
C333 C332 1.392 . S
C333 C334 1.419 . S
C334 C333 1.419 . S
C334 C335 1.391 . S
C334 C338 1.397 . S
C335 C330 1.391 . S
C335 C334 1.391 . S
C335 C336 1.399 1_554 S
C336 C335 1.399 1_556 S
C336 C337 1.396 . S
C336 C339 1.453 . S
C336 C340 1.684 . S
C337 C327 1.723 . S
C337 C336 1.396 . S
C337 C338 1.394 1_556 S
C338 C308 1.723 . S
C338 C334 1.397 . S
C338 C337 1.394 1_554 S
C339 H311 0.982 . S
C339 H315 0.979 . S
C339 H316 0.977 . S
C339 C336 1.453 . S
C340 H312 0.979 . S
C340 H313 0.980 . S
C340 H314 0.983 . S
C340 C336 1.684 . S
H341 C359 0.948 . S
H342 C300 0.948 . S
H343 C318 0.979 . S
H344 C318 0.980 . S
H345 C318 0.983 . S
H346 C317 0.982 . S
H347 C317 0.979 . S
H348 C317 0.977 . S
H349 C319 0.948 . S
H350 C321 0.947 . S
H351 C322 0.948 . S
H352 C328 0.982 . S
H353 C328 0.979 . S
H354 C328 0.977 . S
H355 C329 0.979 . S
H356 C329 0.980 . S
H357 C329 0.983 . S
H358 C302 0.947 . S
C359 C302 1.392 . S
C359 C303 1.419 . S
C359 H341 0.948 . S
C360 C361 1.391 . S
C360 C364 1.391 . S
C360 H402 0.948 . S
C361 C360 1.391 . S
C361 C362 1.391 . S
C362 C361 1.391 . S
C362 H418 0.947 . S
C362 C419 1.392 . S
C363 C364 1.391 . S
C363 C367 1.397 . S
C363 C419 1.419 . S
C364 C360 1.391 . S
C364 C363 1.391 . S
C364 C365 1.399 . S
C365 C364 1.399 . S
C365 C368 1.396 . S
C365 C377 1.453 . S
C365 C378 1.684 . S
H366 C390 0.948 . S
C367 C363 1.397 . S
C367 C368 1.394 . S
C367 C386 1.723 1_556 S
C368 C365 1.396 . S
C368 C367 1.394 . S
C368 C398 1.723 1_556 S
H369 C392 0.943 1_556 S
H370 C393 0.948 . S
H371 C399 0.982 . S
H372 C400 0.979 . S
H373 C400 0.980 . S
H374 C400 0.983 . S
H375 C399 0.979 . S
H376 C399 0.977 . S
C377 C365 1.453 . S
C377 H406 0.982 . S
C377 H407 0.979 . S
C377 H408 0.977 . S
C378 C365 1.684 . S
C378 H403 0.979 . S
C378 H404 0.980 . S
C378 H405 0.983 . S
C379 C380 1.391 . S
C379 C384 1.391 . S
C379 H409 0.948 . S
C380 C379 1.391 . S
C380 C381 1.391 . S
C381 C380 1.391 . S
C381 C382 1.392 . S
C381 H410 0.947 . S
C382 C381 1.392 . S
C382 C383 1.419 . S
C382 H411 0.948 . S
C383 C382 1.419 . S
C383 C384 1.391 . S
C383 C387 1.397 . S
C384 C379 1.391 . S
C384 C383 1.391 . S
C384 C385 1.399 . S
C385 C384 1.399 . S
C385 C386 1.396 . S
C385 C388 1.453 . S
C385 C389 1.684 . S
C386 C367 1.723 1_554 S
C386 C385 1.396 . S
C386 C387 1.394 . S
C387 C383 1.397 . S
C387 C386 1.394 . S
C387 C397 1.723 . S
C388 C385 1.453 . S
C388 H412 0.982 . S
C388 H413 0.979 . S
C388 H414 0.977 1_554 S
C389 C385 1.684 . S
C389 H415 0.979 . S
C389 H416 0.980 1_554 S
C389 H417 0.983 . S
C390 H366 0.948 . S
C390 C391 1.391 . S
C390 C395 1.391 . S
C391 C390 1.391 . S
C391 C392 1.397 . S
C392 H369 0.943 1_554 S
C392 C391 1.397 . S
C392 C393 1.390 1_554 S
C393 H370 0.948 . S
C393 C392 1.390 1_556 S
C393 C394 1.419 1_556 S
C394 C393 1.419 1_554 S
C394 C395 1.391 . S
C394 C398 1.397 . S
C395 C390 1.391 . S
C395 C394 1.391 . S
C395 C396 1.399 . S
C396 C395 1.399 . S
C396 C397 1.396 . S
C396 C399 1.453 . S
C396 C400 1.684 . S
C397 C387 1.723 . S
C397 C396 1.396 . S
C397 C398 1.394 . S
C398 C368 1.723 1_554 S
C398 C394 1.397 . S
C398 C397 1.394 . S
C399 H371 0.982 . S
C399 H375 0.979 . S
C399 H376 0.977 . S
C399 C396 1.453 . S
C400 H372 0.979 . S
C400 H373 0.980 . S
C400 H374 0.983 . S
C400 C396 1.684 . S
H401 C419 0.948 . S
H402 C360 0.948 . S
H403 C378 0.979 . S
H404 C378 0.980 . S
H405 C378 0.983 . S
H406 C377 0.982 . S
H407 C377 0.979 . S
H408 C377 0.977 . S
H409 C379 0.948 . S
H410 C381 0.947 . S
H411 C382 0.948 . S
H412 C388 0.982 . S
H413 C388 0.979 . S
H414 C388 0.977 1_556 S
H415 C389 0.979 . S
H416 C389 0.980 1_556 S
H417 C389 0.983 . S
H418 C362 0.947 . S
C419 C362 1.392 . S
C419 C363 1.419 . S
C419 H401 0.948 . S
C420 C421 1.391 . S
C420 C424 1.391 . S
C420 H462 0.948 . S
C421 C420 1.391 . S
C421 C422 1.391 . S
C422 C421 1.391 . S
C422 H478 0.947 . S
C422 C479 1.392 . S
C423 C424 1.391 . S
C423 C427 1.397 . S
C423 C479 1.419 . S
C424 C420 1.391 . S
C424 C423 1.391 . S
C424 C425 1.399 . S
C425 C424 1.399 . S
C425 C428 1.396 . S
C425 C437 1.453 . S
C425 C438 1.684 . S
H426 C450 0.948 . S
C427 C423 1.397 . S
C427 C428 1.394 . S
C427 C446 1.723 1_556 S
C428 C425 1.396 . S
C428 C427 1.394 . S
C428 C458 1.723 1_556 S
H429 C452 0.947 1_556 S
H430 C453 0.948 . S
H431 C459 0.982 . S
H432 C460 0.979 . S
H433 C460 0.980 . S
H434 C460 0.983 . S
H435 C459 0.979 . S
H436 C459 0.977 . S
C437 C425 1.453 . S
C437 H466 0.982 . S
C437 H467 0.979 . S
C437 H468 0.977 . S
C438 C425 1.684 . S
C438 H463 0.979 . S
C438 H464 0.980 . S
C438 H465 0.983 . S
C439 C440 1.391 . S
C439 C444 1.391 . S
C439 H469 0.948 . S
C440 C439 1.391 . S
C440 C441 1.391 . S
C441 C440 1.391 . S
C441 C442 1.392 . S
C441 H470 0.947 . S
C442 C441 1.392 . S
C442 C443 1.419 . S
C442 H471 0.948 . S
C443 C442 1.419 . S
C443 C444 1.391 . S
C443 C447 1.397 . S
C444 C439 1.391 . S
C444 C443 1.391 . S
C444 C445 1.399 . S
C445 C444 1.399 . S
C445 C446 1.396 . S
C445 C448 1.453 . S
C445 C449 1.684 . S
C446 C427 1.723 1_554 S
C446 C445 1.396 . S
C446 C447 1.394 . S
C447 C443 1.397 . S
C447 C446 1.394 . S
C447 C457 1.723 . S
C448 C445 1.453 . S
C448 H472 0.982 . S
C448 H473 0.979 . S
C448 H474 0.977 1_554 S
C449 C445 1.684 . S
C449 H475 0.979 . S
C449 H476 0.980 1_554 S
C449 H477 0.983 . S
C450 H426 0.948 . S
C450 C451 1.391 . S
C450 C455 1.391 . S
C451 C450 1.391 . S
C451 C452 1.391 . S
C452 H429 0.947 1_554 S
C452 C451 1.391 . S
C452 C453 1.392 1_554 S
C453 H430 0.948 . S
C453 C452 1.392 1_556 S
C453 C454 1.419 1_556 S
C454 C453 1.419 1_554 S
C454 C455 1.391 . S
C454 C458 1.397 . S
C455 C450 1.391 . S
C455 C454 1.391 . S
C455 C456 1.399 . S
C456 C455 1.399 . S
C456 C457 1.396 . S
C456 C459 1.453 . S
C456 C460 1.684 . S
C457 C447 1.723 . S
C457 C456 1.396 . S
C457 C458 1.394 . S
C458 C428 1.723 1_554 S
C458 C454 1.397 . S
C458 C457 1.394 . S
C459 H431 0.982 . S
C459 H435 0.979 . S
C459 H436 0.977 . S
C459 C456 1.453 . S
C460 H432 0.979 . S
C460 H433 0.980 . S
C460 H434 0.983 . S
C460 C456 1.684 . S
H461 C479 0.948 . S
H462 C420 0.948 . S
H463 C438 0.979 . S
H464 C438 0.980 . S
H465 C438 0.983 . S
H466 C437 0.982 . S
H467 C437 0.979 . S
H468 C437 0.977 . S
H469 C439 0.948 . S
H470 C441 0.947 . S
H471 C442 0.948 . S
H472 C448 0.982 . S
H473 C448 0.979 . S
H474 C448 0.977 1_556 S
H475 C449 0.979 . S
H476 C449 0.980 1_556 S
H477 C449 0.983 . S
H478 C422 0.947 . S
C479 C422 1.392 . S
C479 C423 1.419 . S
C479 H461 0.948 . S
Gd480 N511 2.661 1_545 S
Gd480 N517 2.601 . S
Gd480 O524 2.545 . S
Gd480 O525 2.606 1_655 S
Gd480 O527 2.429 . S
Gd480 O528 2.545 1_655 S
Gd480 O529 2.412 . S
Gd480 O531 2.362 1_545 S
Gd480 O532 2.324 1_655 S
Gd480 C539 2.828 . S
Gd481 N490 2.661 1_565 S
Gd481 N494 2.601 . S
Gd481 O525 2.362 1_565 S
Gd481 O526 2.324 1_455 S
Gd481 O530 2.545 . S
Gd481 O531 2.606 1_455 S
Gd481 O533 2.429 . S
Gd481 O534 2.545 . S
Gd481 O535 2.412 . S
Gd481 C548 2.828 . S
C482 C485 1.417 . S
C482 C487 1.431 . S
C482 C488 1.412 . S
C483 C486 1.437 . S
C483 C487 1.317 . S
C483 H502 0.929 . S
C484 C485 1.426 . S
C484 C486 1.413 . S
C484 N494 1.359 1_545 S
C485 C482 1.417 . S
C485 C484 1.426 . S
C485 N490 1.350 . S
C486 C483 1.437 . S
C486 C484 1.413 . S
C486 C496 1.373 1_545 S
C487 C482 1.431 . S
C487 C483 1.317 . S
C487 H498 0.930 . S
C488 C482 1.412 . S
C488 C489 1.355 . S
C488 H500 0.930 . S
C489 C488 1.355 . S
C489 C491 1.402 . S
C489 H501 0.930 1_455 S
N490 Gd481 2.661 1_545 S
N490 C485 1.350 . S
N490 C491 1.307 . S
C491 C489 1.402 . S
C491 N490 1.307 . S
C491 H492 0.930 1_455 S
H492 C491 0.930 1_655 S
C493 N494 1.334 . S
C493 C495 1.394 . S
C493 H497 0.930 . S
N494 Gd481 2.601 . S
N494 C484 1.359 1_565 S
N494 C493 1.334 . S
C495 C493 1.394 . S
C495 C496 1.382 . S
C495 H507 0.930 . S
C496 C486 1.373 1_565 S
C496 C495 1.382 . S
C496 H508 0.926 1_565 S
H497 C493 0.930 . S
H498 C487 0.930 . S
H499 C516 0.930 . S
H500 C488 0.930 . S
H501 C489 0.930 1_655 S
H502 C483 0.929 . S
H503 C521 0.930 . S
H504 C512 0.930 . S
H505 C513 0.942 . S
H506 C537 0.929 . S
H507 C495 0.930 . S
H508 C496 0.926 1_545 S
H509 C538 0.930 . S
H510 C519 0.930 . S
N511 Gd480 2.661 1_565 S
N511 C515 1.350 . S
N511 C516 1.307 1_655 S
C512 H504 0.930 . S
C512 C513 1.342 1_655 S
C512 C514 1.412 . S
C513 H505 0.942 . S
C513 C512 1.342 1_455 S
C513 C516 1.403 . S
C514 C512 1.412 . S
C514 C515 1.417 . S
C514 C538 1.431 . S
C515 N511 1.350 . S
C515 C514 1.417 . S
C515 C518 1.426 1_565 S
C516 H499 0.930 . S
C516 N511 1.307 1_455 S
C516 C513 1.403 . S
N517 Gd480 2.601 . S
N517 C518 1.359 . S
N517 C521 1.334 . S
C518 C515 1.426 1_545 S
C518 N517 1.359 . S
C518 C522 1.413 . S
C519 H510 0.930 . S
C519 C520 1.359 . S
C519 C521 1.394 . S
C520 C519 1.359 . S
C520 C522 1.391 . S
C520 H523 0.929 . S
C521 H503 0.930 . S
C521 N517 1.334 . S
C521 C519 1.394 . S
C522 C518 1.413 . S
C522 C520 1.391 . S
C522 C537 1.437 1_545 S
H523 C520 0.929 . S
O524 Gd480 2.545 . S
O524 C539 1.258 . S
O525 Gd480 2.606 1_455 S
O525 Gd481 2.362 1_545 S
O525 C536 1.284 . S
O526 Gd481 2.324 1_655 S
O526 C546 1.254 1_565 S
O527 Gd480 2.429 . S
O527 C546 1.268 . S
O528 Gd480 2.545 1_455 S
O528 C536 1.250 . S
O529 Gd480 2.412 . S
O529 C539 1.252 . S
O530 Gd481 2.545 . S
O530 C548 1.258 . S
O531 Gd480 2.362 1_565 S
O531 Gd481 2.606 1_655 S
O531 C547 1.284 . S
O532 Gd480 2.324 1_455 S
O532 C555 1.254 . S
O533 Gd481 2.429 . S
O533 C555 1.268 1_565 S
O534 Gd481 2.545 . S
O534 C547 1.250 1_455 S
O535 Gd481 2.412 . S
O535 C548 1.252 . S
C536 O525 1.284 . S
C536 O528 1.250 . S
C537 H506 0.929 . S
C537 C522 1.437 1_565 S
C537 C538 1.317 . S
C538 H509 0.930 . S
C538 C514 1.431 . S
C538 C537 1.317 . S
C539 Gd480 2.828 . S
C539 O524 1.258 . S
C539 O529 1.252 . S
C539 C540 1.497 . S
C540 C539 1.497 . S
C540 C541 1.395 . S
C540 C542 1.380 . S
C541 C540 1.395 . S
C541 C544 1.398 . S
C541 H556 0.930 . S
C542 C540 1.380 . S
C542 C543 1.391 . S
C542 H557 0.930 1_655 S
C543 C542 1.391 . S
C543 C545 1.387 . S
C544 C541 1.398 . S
C544 C545 1.380 . S
C544 H558 0.930 . S
C545 C543 1.387 . S
C545 C544 1.380 . S
C545 H559 0.930 . S
C546 O526 1.254 1_545 S
C546 O527 1.268 . S
C547 O531 1.284 . S
C547 O534 1.250 1_655 S
C548 Gd481 2.828 . S
C548 O530 1.258 . S
C548 O535 1.252 . S
C548 C549 1.497 . S
C549 C548 1.497 . S
C549 C550 1.395 . S
C549 C551 1.380 . S
C550 C549 1.395 . S
C550 C553 1.398 . S
C550 H560 0.930 . S
C551 C549 1.380 . S
C551 C552 1.391 . S
C551 H561 0.914 1_455 S
C552 C551 1.391 . S
C552 C554 1.387 . S
C553 C550 1.398 . S
C553 C554 1.380 . S
C553 H562 0.930 . S
C554 C552 1.387 . S
C554 C553 1.380 . S
C554 H563 0.930 . S
C555 O532 1.254 . S
C555 O533 1.268 1_545 S
H556 C541 0.930 . S
H557 C542 0.930 1_455 S
H558 C544 0.930 . S
H559 C545 0.930 . S
H560 C550 0.930 . S
H561 C551 0.914 1_655 S
H562 C553 0.930 . S
H563 C554 0.930 . S
Gd564 N595 2.661 . S
Gd564 N601 2.601 . S
Gd564 O608 2.545 . S
Gd564 O609 2.606 1_565 S
Gd564 O611 2.429 . S
Gd564 O612 2.545 1_565 S
Gd564 O613 2.412 . S
Gd564 O615 2.362 . S
Gd564 O616 2.324 1_565 S
Gd564 C623 2.828 . S
Gd565 N574 2.661 . S
Gd565 N578 2.601 . S
Gd565 O609 2.362 . S
Gd565 O610 2.324 1_545 S
Gd565 O614 2.545 . S
Gd565 O615 2.606 1_545 S
Gd565 O617 2.429 . S
Gd565 O618 2.545 . S
Gd565 O619 2.412 . S
Gd565 C632 2.828 . S
C566 C569 1.417 . S
C566 C571 1.431 . S
C566 C572 1.412 . S
C567 C570 1.437 . S
C567 C571 1.317 . S
C567 H586 0.929 . S
C568 C569 1.426 . S
C568 C570 1.413 . S
C568 N578 1.359 . S
C569 C566 1.417 . S
C569 C568 1.426 . S
C569 N574 1.350 . S
C570 C567 1.437 . S
C570 C568 1.413 . S
C570 C580 1.391 . S
C571 C566 1.431 . S
C571 C567 1.317 . S
C571 H582 0.930 . S
C572 C566 1.412 . S
C572 C573 1.355 . S
C572 H584 0.930 . S
C573 C572 1.355 . S
C573 C575 1.402 . S
C573 H585 0.930 1_545 S
N574 Gd565 2.661 . S
N574 C569 1.350 . S
N574 C575 1.307 . S
C575 C573 1.402 . S
C575 N574 1.307 . S
C575 H576 0.930 1_545 S
H576 C575 0.930 1_565 S
C577 N578 1.334 . S
C577 C579 1.394 . S
C577 H581 0.930 . S
N578 Gd565 2.601 . S
N578 C568 1.359 . S
N578 C577 1.334 . S
C579 C577 1.394 . S
C579 C580 1.359 . S
C579 H591 0.930 . S
C580 C570 1.391 . S
C580 C579 1.359 . S
C580 H592 0.929 . S
H581 C577 0.930 . S
H582 C571 0.930 . S
H583 C600 0.930 . S
H584 C572 0.930 . S
H585 C573 0.930 1_565 S
H586 C567 0.929 . S
H587 C605 0.930 . S
H588 C596 0.930 . S
H589 C597 0.930 . S
H590 C621 0.929 . S
H591 C579 0.930 . S
H592 C580 0.929 . S
H593 C622 0.930 . S
H594 C603 0.930 . S
N595 Gd564 2.661 . S
N595 C599 1.350 . S
N595 C600 1.307 1_565 S
C596 H588 0.930 . S
C596 C597 1.355 1_565 S
C596 C598 1.412 . S
C597 H589 0.930 . S
C597 C596 1.355 1_545 S
C597 C600 1.402 . S
C598 C596 1.412 . S
C598 C599 1.417 . S
C598 C622 1.431 . S
C599 N595 1.350 . S
C599 C598 1.417 . S
C599 C602 1.426 . S
C600 H583 0.930 . S
C600 N595 1.307 1_545 S
C600 C597 1.402 . S
N601 Gd564 2.601 . S
N601 C602 1.359 . S
N601 C605 1.334 . S
C602 C599 1.426 . S
C602 N601 1.359 . S
C602 C606 1.413 . S
C603 H594 0.930 . S
C603 C604 1.359 . S
C603 C605 1.394 . S
C604 C603 1.359 . S
C604 C606 1.391 . S
C604 H607 0.929 . S
C605 H587 0.930 . S
C605 N601 1.334 . S
C605 C603 1.394 . S
C606 C602 1.413 . S
C606 C604 1.391 . S
C606 C621 1.437 . S
H607 C604 0.929 . S
O608 Gd564 2.545 . S
O608 C623 1.258 . S
O609 Gd564 2.606 1_545 S
O609 Gd565 2.362 . S
O609 C620 1.284 . S
O610 Gd565 2.324 1_565 S
O610 C630 1.254 . S
O611 Gd564 2.429 . S
O611 C630 1.268 . S
O612 Gd564 2.545 1_545 S
O612 C620 1.250 . S
O613 Gd564 2.412 . S
O613 C623 1.252 . S
O614 Gd565 2.545 . S
O614 C632 1.258 . S
O615 Gd564 2.362 . S
O615 Gd565 2.606 1_565 S
O615 C631 1.284 . S
O616 Gd564 2.324 1_545 S
O616 C639 1.254 . S
O617 Gd565 2.429 . S
O617 C639 1.268 . S
O618 Gd565 2.545 . S
O618 C631 1.250 1_545 S
O619 Gd565 2.412 . S
O619 C632 1.252 . S
C620 O609 1.284 . S
C620 O612 1.250 . S
C621 H590 0.929 . S
C621 C606 1.437 . S
C621 C622 1.317 . S
C622 H593 0.930 . S
C622 C598 1.431 . S
C622 C621 1.317 . S
C623 Gd564 2.828 . S
C623 O608 1.258 . S
C623 O613 1.252 . S
C623 C624 1.497 . S
C624 C623 1.497 . S
C624 C625 1.395 . S
C624 C626 1.380 . S
C625 C624 1.395 . S
C625 C628 1.398 . S
C625 H640 0.930 . S
C626 C624 1.380 . S
C626 C627 1.391 . S
C626 H641 0.930 1_565 S
C627 C626 1.391 . S
C627 C629 1.387 . S
C628 C625 1.398 . S
C628 C629 1.380 . S
C628 H642 0.930 . S
C629 C627 1.387 . S
C629 C628 1.380 . S
C629 H643 0.930 . S
C630 O610 1.254 . S
C630 O611 1.268 . S
C631 O615 1.284 . S
C631 O618 1.250 1_565 S
C632 Gd565 2.828 . S
C632 O614 1.258 . S
C632 O619 1.252 . S
C632 C633 1.497 . S
C633 C632 1.497 . S
C633 C634 1.395 . S
C633 C635 1.380 . S
C634 C633 1.395 . S
C634 C637 1.398 . S
C634 H644 0.930 . S
C635 C633 1.380 . S
C635 C636 1.391 . S
C635 H645 0.930 . S
C636 C635 1.391 . S
C636 C638 1.387 . S
C637 C634 1.398 . S
C637 C638 1.380 . S
C637 H646 0.930 . S
C638 C636 1.387 . S
C638 C637 1.380 . S
C638 H647 0.930 . S
C639 O616 1.254 . S
C639 O617 1.268 . S
H640 C625 0.930 . S
H641 C626 0.930 1_545 S
H642 C628 0.930 . S
H643 C629 0.930 . S
H644 C634 0.930 . S
H645 C635 0.930 . S
H646 C637 0.930 . S
H647 C638 0.930 . S
Gd648 N679 2.661 . S
Gd648 N685 2.601 . S
Gd648 O692 2.545 . S
Gd648 O693 2.606 . S
Gd648 O695 2.429 . S
Gd648 O696 2.545 . S
Gd648 O697 2.412 . S
Gd648 O699 2.362 . S
Gd648 O700 2.324 . S
Gd648 C707 2.828 . S
Gd649 N658 2.661 . S
Gd649 N662 2.601 . S
Gd649 O693 2.362 . S
Gd649 O694 2.324 . S
Gd649 O698 2.545 . S
Gd649 O699 2.606 . S
Gd649 O701 2.429 . S
Gd649 O702 2.545 . S
Gd649 O703 2.412 . S
Gd649 C716 2.828 . S
C650 C653 1.417 . S
C650 C655 1.431 . S
C650 C656 1.412 . S
C651 C654 1.437 . S
C651 C655 1.317 . S
C651 H670 0.929 . S
C652 C653 1.426 . S
C652 C654 1.413 . S
C652 N662 1.359 . S
C653 C650 1.417 . S
C653 C652 1.426 . S
C653 N658 1.350 . S
C654 C651 1.437 . S
C654 C652 1.413 . S
C654 C664 1.391 . S
C655 C650 1.431 . S
C655 C651 1.317 . S
C655 H666 0.930 . S
C656 C650 1.412 . S
C656 C657 1.355 . S
C656 H668 0.930 . S
C657 C656 1.355 . S
C657 C659 1.402 . S
C657 H669 0.930 . S
N658 Gd649 2.661 . S
N658 C653 1.350 . S
N658 C659 1.307 . S
C659 C657 1.402 . S
C659 N658 1.307 . S
C659 H660 0.930 . S
H660 C659 0.930 . S
C661 N662 1.334 . S
C661 C663 1.394 . S
C661 H665 0.930 . S
N662 Gd649 2.601 . S
N662 C652 1.359 . S
N662 C661 1.334 . S
C663 C661 1.394 . S
C663 C664 1.359 . S
C663 H675 0.930 . S
C664 C654 1.391 . S
C664 C663 1.359 . S
C664 H676 0.929 . S
H665 C661 0.930 . S
H666 C655 0.930 . S
H667 C684 0.930 . S
H668 C656 0.930 . S
H669 C657 0.930 . S
H670 C651 0.929 . S
H671 C689 0.930 . S
H672 C680 0.930 . S
H673 C681 0.930 . S
H674 C705 0.929 . S
H675 C663 0.930 . S
H676 C664 0.929 . S
H677 C706 0.930 . S
H678 C687 0.930 . S
N679 Gd648 2.661 . S
N679 C683 1.350 . S
N679 C684 1.307 . S
C680 H672 0.930 . S
C680 C681 1.355 . S
C680 C682 1.412 . S
C681 H673 0.930 . S
C681 C680 1.355 . S
C681 C684 1.402 . S
C682 C680 1.412 . S
C682 C683 1.417 . S
C682 C706 1.431 . S
C683 N679 1.350 . S
C683 C682 1.417 . S
C683 C686 1.426 . S
C684 H667 0.930 . S
C684 N679 1.307 . S
C684 C681 1.402 . S
N685 Gd648 2.601 . S
N685 C686 1.359 . S
N685 C689 1.334 . S
C686 C683 1.426 . S
C686 N685 1.359 . S
C686 C690 1.413 . S
C687 H678 0.930 . S
C687 C688 1.359 . S
C687 C689 1.394 . S
C688 C687 1.359 . S
C688 C690 1.391 . S
C688 H691 0.929 . S
C689 H671 0.930 . S
C689 N685 1.334 . S
C689 C687 1.394 . S
C690 C686 1.413 . S
C690 C688 1.391 . S
C690 C705 1.437 . S
H691 C688 0.929 . S
O692 Gd648 2.545 . S
O692 C707 1.258 . S
O693 Gd648 2.606 . S
O693 Gd649 2.362 . S
O693 C704 1.284 . S
O694 Gd649 2.324 . S
O694 C714 1.254 . S
O695 Gd648 2.429 . S
O695 C714 1.268 . S
O696 Gd648 2.545 . S
O696 C704 1.250 . S
O697 Gd648 2.412 . S
O697 C707 1.252 . S
O698 Gd649 2.545 . S
O698 C716 1.258 . S
O699 Gd648 2.362 . S
O699 Gd649 2.606 . S
O699 C715 1.284 . S
O700 Gd648 2.324 . S
O700 C723 1.254 . S
O701 Gd649 2.429 . S
O701 C723 1.268 . S
O702 Gd649 2.545 . S
O702 C715 1.250 . S
O703 Gd649 2.412 . S
O703 C716 1.252 . S
C704 O693 1.284 . S
C704 O696 1.250 . S
C705 H674 0.929 . S
C705 C690 1.437 . S
C705 C706 1.317 . S
C706 H677 0.930 . S
C706 C682 1.431 . S
C706 C705 1.317 . S
C707 Gd648 2.828 . S
C707 O692 1.258 . S
C707 O697 1.252 . S
C707 C708 1.497 . S
C708 C707 1.497 . S
C708 C709 1.395 . S
C708 C710 1.380 . S
C709 C708 1.395 . S
C709 C712 1.398 . S
C709 H724 0.930 . S
C710 C708 1.380 . S
C710 C711 1.391 . S
C710 H725 0.930 . S
C711 C710 1.391 . S
C711 C713 1.387 . S
C712 C709 1.398 . S
C712 C713 1.380 . S
C712 H726 0.930 . S
C713 C711 1.387 . S
C713 C712 1.380 . S
C713 H727 0.930 . S
C714 O694 1.254 . S
C714 O695 1.268 . S
C715 O699 1.284 . S
C715 O702 1.250 . S
C716 Gd649 2.828 . S
C716 O698 1.258 . S
C716 O703 1.252 . S
C716 C717 1.497 . S
C717 C716 1.497 . S
C717 C718 1.395 . S
C717 C719 1.380 . S
C718 C717 1.395 . S
C718 C721 1.398 . S
C718 H728 0.930 . S
C719 C717 1.380 . S
C719 C720 1.391 . S
C719 H729 0.930 . S
C720 C719 1.391 . S
C720 C722 1.387 . S
C721 C718 1.398 . S
C721 C722 1.380 . S
C721 H730 0.930 . S
C722 C720 1.387 . S
C722 C721 1.380 . S
C722 H731 0.930 . S
C723 O700 1.254 . S
C723 O701 1.268 . S
H724 C709 0.930 . S
H725 C710 0.930 . S
H726 C712 0.930 . S
H727 C713 0.930 . S
H728 C718 0.930 . S
H729 C719 0.930 . S
H730 C721 0.930 . S
H731 C722 0.930 . S
Gd732 N763 2.661 . S
Gd732 N769 2.601 . S
Gd732 O776 2.545 . S
Gd732 O777 2.599 1_655 S
Gd732 O779 2.429 1_655 S
Gd732 O780 2.545 . S
Gd732 O781 2.412 . S
Gd732 O783 2.362 1_655 S
Gd732 O784 2.324 . S
Gd732 C791 2.828 . S
Gd733 N742 2.661 . S
Gd733 N746 2.601 . S
Gd733 O777 2.373 . S
Gd733 O778 2.324 . S
Gd733 O782 2.545 . S
Gd733 O783 2.606 . S
Gd733 O785 2.429 1_455 S
Gd733 O786 2.545 . S
Gd733 O787 2.412 . S
Gd733 C800 2.828 . S
C734 C737 1.417 . S
C734 C739 1.431 . S
C734 C740 1.412 . S
C735 C738 1.437 . S
C735 C739 1.317 . S
C735 H754 0.929 . S
C736 C737 1.426 . S
C736 C738 1.413 . S
C736 N746 1.359 . S
C737 C734 1.417 . S
C737 C736 1.426 . S
C737 N742 1.350 . S
C738 C735 1.437 . S
C738 C736 1.413 . S
C738 C748 1.391 . S
C739 C734 1.431 . S
C739 C735 1.317 . S
C739 H750 0.930 . S
C740 C734 1.412 . S
C740 C741 1.355 . S
C740 H752 0.930 . S
C741 C740 1.355 . S
C741 C743 1.402 . S
C741 H753 0.930 . S
N742 Gd733 2.661 . S
N742 C737 1.350 . S
N742 C743 1.307 . S
C743 C741 1.402 . S
C743 N742 1.307 . S
C743 H744 0.930 . S
H744 C743 0.930 . S
C745 N746 1.334 . S
C745 C747 1.399 . S
C745 H749 0.930 1_455 S
N746 Gd733 2.601 . S
N746 C736 1.359 . S
N746 C745 1.334 . S
C747 C745 1.399 . S
C747 C748 1.380 . S
C747 H759 0.907 1_455 S
C748 C738 1.391 . S
C748 C747 1.380 . S
C748 H760 0.929 . S
H749 C745 0.930 1_655 S
H750 C739 0.930 . S
H751 C768 0.930 . S
H752 C740 0.930 . S
H753 C741 0.930 . S
H754 C735 0.929 . S
H755 C773 0.930 . S
H756 C764 0.930 . S
H757 C765 0.930 . S
H758 C789 0.929 . S
H759 C747 0.907 1_655 S
H760 C748 0.929 . S
H761 C790 0.930 . S
H762 C771 0.930 . S
N763 Gd732 2.661 . S
N763 C767 1.350 . S
N763 C768 1.307 . S
C764 H756 0.930 . S
C764 C765 1.355 . S
C764 C766 1.412 . S
C765 H757 0.930 . S
C765 C764 1.355 . S
C765 C768 1.402 . S
C766 C764 1.412 . S
C766 C767 1.417 . S
C766 C790 1.431 . S
C767 N763 1.350 . S
C767 C766 1.417 . S
C767 C770 1.426 . S
C768 H751 0.930 . S
C768 N763 1.307 . S
C768 C765 1.402 . S
N769 Gd732 2.601 . S
N769 C770 1.359 . S
N769 C773 1.334 1_655 S
C770 C767 1.426 . S
C770 N769 1.359 . S
C770 C774 1.413 . S
C771 H762 0.930 . S
C771 C772 1.359 1_455 S
C771 C773 1.394 . S
C772 C771 1.359 1_655 S
C772 C774 1.391 . S
C772 H775 0.929 . S
C773 H755 0.930 . S
C773 N769 1.334 1_455 S
C773 C771 1.394 . S
C774 C770 1.413 . S
C774 C772 1.391 . S
C774 C789 1.437 . S
H775 C772 0.929 . S
O776 Gd732 2.545 . S
O776 C791 1.258 . S
O777 Gd732 2.599 1_455 S
O777 Gd733 2.373 . S
O777 C788 1.277 1_455 S
O778 Gd733 2.324 . S
O778 C798 1.254 . S
O779 Gd732 2.429 1_455 S
O779 C798 1.268 . S
O780 Gd732 2.545 . S
O780 C788 1.250 . S
O781 Gd732 2.412 . S
O781 C791 1.252 . S
O782 Gd733 2.545 . S
O782 C800 1.258 . S
O783 Gd732 2.362 1_455 S
O783 Gd733 2.606 . S
O783 C799 1.284 . S
O784 Gd732 2.324 . S
O784 C807 1.254 . S
O785 Gd733 2.429 1_655 S
O785 C807 1.268 . S
O786 Gd733 2.545 . S
O786 C799 1.250 . S
O787 Gd733 2.412 . S
O787 C800 1.252 . S
C788 O777 1.277 1_655 S
C788 O780 1.250 . S
C789 H758 0.929 . S
C789 C774 1.437 . S
C789 C790 1.317 . S
C790 H761 0.930 . S
C790 C766 1.431 . S
C790 C789 1.317 . S
C791 Gd732 2.828 . S
C791 O776 1.258 . S
C791 O781 1.252 . S
C791 C792 1.497 . S
C792 C791 1.497 . S
C792 C793 1.395 . S
C792 C794 1.380 . S
C793 C792 1.395 . S
C793 C796 1.398 . S
C793 H808 0.930 . S
C794 C792 1.380 . S
C794 C795 1.391 . S
C794 H809 0.930 . S
C795 C794 1.391 . S
C795 C797 1.387 . S
C796 C793 1.398 . S
C796 C797 1.380 . S
C796 H810 0.930 . S
C797 C795 1.387 . S
C797 C796 1.380 . S
C797 H811 0.930 . S
C798 O778 1.254 . S
C798 O779 1.268 . S
C799 O783 1.284 . S
C799 O786 1.250 . S
C800 Gd733 2.828 . S
C800 O782 1.258 . S
C800 O787 1.252 . S
C800 C801 1.497 . S
C801 C800 1.497 . S
C801 C802 1.395 . S
C801 C803 1.380 . S
C802 C801 1.395 . S
C802 C805 1.398 . S
C802 H812 0.930 . S
C803 C801 1.380 . S
C803 C804 1.391 . S
C803 H813 0.930 . S
C804 C803 1.391 . S
C804 C806 1.387 . S
C805 C802 1.398 . S
C805 C806 1.380 . S
C805 H814 0.930 . S
C806 C804 1.387 . S
C806 C805 1.380 . S
C806 H815 0.930 . S
C807 O784 1.254 . S
C807 O785 1.268 . S
H808 C793 0.930 . S
H809 C794 0.930 . S
H810 C796 0.930 . S
H811 C797 0.930 . S
H812 C802 0.930 . S
H813 C803 0.930 . S
H814 C805 0.930 . S
H815 C806 0.930 . S
H816 C824 0.950 . S
H817 C829 0.950 . S
H818 C826 0.950 . S
H819 C828 0.950 . S
H820 C830 0.950 . S
H821 C832 0.950 . S
H822 C834 0.950 . S
H823 C835 0.950 . S
C824 H816 0.950 . S
C824 C825 1.386 . S
C824 C826 1.391 . S
C825 C824 1.386 . S
C825 C829 1.393 . S
C826 H818 0.950 . S
C826 C824 1.391 . S
C826 C827 1.400 . S
C827 C826 1.400 . S
C827 C828 1.398 . S
C827 C833 1.491 . S
C828 H819 0.950 . S
C828 C827 1.398 . S
C828 C829 1.391 . S
C829 H817 0.950 . S
C829 C825 1.393 . S
C829 C828 1.391 . S
C830 H820 0.950 . S
C830 C831 1.386 . S
C830 C832 1.391 . S
C831 C830 1.386 . S
C831 C835 1.393 . S
C832 H821 0.950 . S
C832 C830 1.391 . S
C832 C833 1.400 . S
C833 C827 1.491 . S
C833 C832 1.400 . S
C833 C834 1.398 . S
C834 H822 0.950 . S
C834 C833 1.398 . S
C834 C835 1.391 . S
C835 H823 0.950 . S
C835 C831 1.393 . S
C835 C834 1.391 . S
H836 C844 0.950 . S
H837 C849 0.950 . S
H838 C846 0.950 . S
H839 C848 0.950 . S
H840 C850 0.950 . S
H841 C852 0.950 . S
H842 C854 0.950 . S
H843 C855 0.950 . S
C844 H836 0.950 . S
C844 C845 1.386 . S
C844 C846 1.391 . S
C845 C844 1.386 . S
C845 C849 1.393 . S
C846 H838 0.950 . S
C846 C844 1.391 . S
C846 C847 1.400 . S
C847 C846 1.400 . S
C847 C848 1.398 . S
C847 C853 1.491 . S
C848 H839 0.950 . S
C848 C847 1.398 . S
C848 C849 1.391 . S
C849 H837 0.950 . S
C849 C845 1.393 . S
C849 C848 1.391 . S
C850 H840 0.950 . S
C850 C851 1.386 . S
C850 C852 1.391 . S
C851 C850 1.386 . S
C851 C855 1.393 . S
C852 H841 0.950 . S
C852 C850 1.391 . S
C852 C853 1.400 . S
C853 C847 1.491 . S
C853 C852 1.400 . S
C853 C854 1.398 . S
C854 H842 0.950 . S
C854 C853 1.398 . S
C854 C855 1.391 . S
C855 H843 0.950 . S
C855 C851 1.393 . S
C855 C854 1.391 . S
H856 C864 0.950 . S
H857 C869 0.950 . S
H858 C866 0.950 . S
H859 C868 0.950 . S
H860 C870 0.950 . S
H861 C872 0.950 . S
H862 C874 0.950 . S
H863 C875 0.950 . S
C864 H856 0.950 . S
C864 C865 1.386 . S
C864 C866 1.391 . S
C865 C864 1.386 . S
C865 C869 1.393 . S
C866 H858 0.950 . S
C866 C864 1.391 . S
C866 C867 1.400 . S
C867 C866 1.400 . S
C867 C868 1.398 . S
C867 C873 1.491 . S
C868 H859 0.950 . S
C868 C867 1.398 . S
C868 C869 1.391 . S
C869 H857 0.950 . S
C869 C865 1.393 . S
C869 C868 1.391 . S
C870 H860 0.950 . S
C870 C871 1.386 . S
C870 C872 1.391 . S
C871 C870 1.386 . S
C871 C875 1.393 . S
C872 H861 0.950 . S
C872 C870 1.391 . S
C872 C873 1.400 . S
C873 C867 1.491 . S
C873 C872 1.400 . S
C873 C874 1.398 . S
C874 H862 0.950 . S
C874 C873 1.398 . S
C874 C875 1.391 . S
C875 H863 0.950 . S
C875 C871 1.393 . S
C875 C874 1.391 . S
H876 C884 0.950 . S
H877 C889 0.950 . S
H878 C886 0.950 . S
H879 C888 0.950 . S
H880 C890 0.950 . S
H881 C892 0.950 . S
H882 C894 0.950 . S
H883 C895 0.950 . S
C884 H876 0.950 . S
C884 C885 1.386 . S
C884 C886 1.391 . S
C885 C884 1.386 . S
C885 C889 1.393 . S
C886 H878 0.950 . S
C886 C884 1.391 . S
C886 C887 1.400 . S
C887 C886 1.400 . S
C887 C888 1.398 . S
C887 C893 1.491 . S
C888 H879 0.950 . S
C888 C887 1.398 . S
C888 C889 1.391 . S
C889 H877 0.950 . S
C889 C885 1.393 . S
C889 C888 1.391 . S
C890 H880 0.950 . S
C890 C891 1.386 . S
C890 C892 1.391 . S
C891 C890 1.386 . S
C891 C895 1.393 . S
C892 H881 0.950 . S
C892 C890 1.391 . S
C892 C893 1.400 . S
C893 C887 1.491 . S
C893 C892 1.400 . S
C893 C894 1.398 . S
C894 H882 0.950 . S
C894 C893 1.398 . S
C894 C895 1.391 . S
C895 H883 0.950 . S
C895 C891 1.393 . S
C895 C894 1.391 . S
H896 C904 0.950 . S
H897 C909 0.950 . S
H898 C906 0.950 . S
H899 C908 0.950 . S
H900 C910 0.950 1_545 S
H901 C912 0.950 . S
H902 C914 0.950 . S
H903 C915 0.950 . S
C904 H896 0.950 . S
C904 C905 1.386 . S
C904 C906 1.391 1_554 S
C905 C904 1.386 . S
C905 C909 1.393 . S
C906 H898 0.950 . S
C906 C904 1.391 1_556 S
C906 C907 1.400 . S
C907 C906 1.400 . S
C907 C908 1.398 1_556 S
C907 C913 1.491 . S
C908 H899 0.950 . S
C908 C907 1.398 1_554 S
C908 C909 1.391 . S
C909 H897 0.950 . S
C909 C905 1.393 . S
C909 C908 1.391 . S
C910 H900 0.950 1_565 S
C910 C911 1.386 . S
C910 C912 1.391 . S
C911 C910 1.386 . S
C911 C915 1.393 . S
C912 H901 0.950 . S
C912 C910 1.391 . S
C912 C913 1.400 . S
C913 C907 1.491 . S
C913 C912 1.400 . S
C913 C914 1.398 . S
C914 H902 0.950 . S
C914 C913 1.398 . S
C914 C915 1.391 . S
C915 H903 0.950 . S
C915 C911 1.393 . S
C915 C914 1.391 . S
H916 C924 0.950 . S
H917 C929 0.950 . S
H918 C926 0.950 . S
H919 C928 0.950 . S
H920 C930 0.950 . S
H921 C932 0.950 . S
H922 C934 0.950 . S
H923 C935 0.950 . S
C924 H916 0.950 . S
C924 C925 1.386 . S
C924 C926 1.391 1_554 S
C925 C924 1.386 . S
C925 C929 1.393 . S
C926 H918 0.950 . S
C926 C924 1.391 1_556 S
C926 C927 1.400 . S
C927 C926 1.400 . S
C927 C928 1.398 1_556 S
C927 C933 1.491 . S
C928 H919 0.950 . S
C928 C927 1.398 1_554 S
C928 C929 1.391 . S
C929 H917 0.950 . S
C929 C925 1.393 . S
C929 C928 1.391 . S
C930 H920 0.950 . S
C930 C931 1.386 . S
C930 C932 1.391 . S
C931 C930 1.386 . S
C931 C935 1.393 . S
C932 H921 0.950 . S
C932 C930 1.391 . S
C932 C933 1.400 . S
C933 C927 1.491 . S
C933 C932 1.400 . S
C933 C934 1.398 . S
C934 H922 0.950 . S
C934 C933 1.398 . S
C934 C935 1.391 . S
C935 H923 0.950 . S
C935 C931 1.393 . S
C935 C934 1.391 . S
H936 C944 0.950 . S
H937 C949 0.950 . S
H938 C946 0.950 . S
H939 C948 0.950 . S
H940 C950 0.950 . S
H941 C952 0.950 . S
H942 C954 0.950 . S
H943 C955 0.950 . S
C944 H936 0.950 . S
C944 C945 1.386 . S
C944 C946 1.391 . S
C945 C944 1.386 . S
C945 C949 1.385 1_554 S
C946 H938 0.950 . S
C946 C944 1.391 . S
C946 C947 1.400 1_554 S
C947 C946 1.400 1_556 S
C947 C948 1.398 . S
C947 C953 1.491 . S
C948 H939 0.950 . S
C948 C947 1.398 . S
C948 C949 1.398 . S
C949 H937 0.950 . S
C949 C945 1.385 1_556 S
C949 C948 1.398 . S
C950 H940 0.950 . S
C950 C951 1.386 . S
C950 C952 1.391 . S
C951 C950 1.386 . S
C951 C955 1.393 . S
C952 H941 0.950 . S
C952 C950 1.391 . S
C952 C953 1.400 . S
C953 C947 1.491 . S
C953 C952 1.400 . S
C953 C954 1.398 . S
C954 H942 0.950 . S
C954 C953 1.398 . S
C954 C955 1.391 . S
C955 H943 0.950 . S
C955 C951 1.393 . S
C955 C954 1.391 . S
H956 C964 0.950 . S
H957 C969 0.950 . S
H958 C966 0.950 . S
H959 C968 0.950 . S
H960 C970 0.950 1_455 S
H961 C972 0.950 . S
H962 C974 0.950 . S
H963 C975 0.950 . S
C964 H956 0.950 . S
C964 C965 1.386 . S
C964 C966 1.391 1_554 S
C965 C964 1.386 . S
C965 C969 1.393 . S
C966 H958 0.950 . S
C966 C964 1.391 1_556 S
C966 C967 1.400 . S
C967 C966 1.400 . S
C967 C968 1.398 . S
C967 C973 1.491 . S
C968 H959 0.950 . S
C968 C967 1.398 . S
C968 C969 1.391 1_556 S
C969 H957 0.950 . S
C969 C965 1.393 . S
C969 C968 1.391 1_554 S
C970 H960 0.950 1_655 S
C970 C971 1.386 . S
C970 C972 1.391 . S
C971 C970 1.386 . S
C971 C975 1.393 . S
C972 H961 0.950 . S
C972 C970 1.391 . S
C972 C973 1.400 . S
C973 C967 1.491 . S
C973 C972 1.400 . S
C973 C974 1.398 . S
C974 H962 0.950 . S
C974 C973 1.398 . S
C974 C975 1.391 . S
C975 H963 0.950 . S
C975 C971 1.393 . S
C975 C974 1.391 . S
H976 C984 0.950 . S
H977 C989 0.950 . S
H978 C986 0.950 . S
H979 C988 0.950 . S
H980 C990 0.950 . S
H981 C992 0.950 . S
H982 C994 0.950 . S
H983 C995 0.950 1_655 S
C984 H976 0.950 . S
C984 C985 1.386 . S
C984 C986 1.391 . S
C985 C984 1.386 . S
C985 C989 1.393 . S
C986 H978 0.950 . S
C986 C984 1.391 . S
C986 C987 1.400 . S
C987 C986 1.400 . S
C987 C988 1.398 . S
C987 C993 1.491 . S
C988 H979 0.950 . S
C988 C987 1.398 . S
C988 C989 1.391 . S
C989 H977 0.950 . S
C989 C985 1.393 . S
C989 C988 1.391 . S
C990 H980 0.950 . S
C990 C991 1.386 . S
C990 C992 1.391 . S
C991 C990 1.386 . S
C991 C995 1.393 . S
C992 H981 0.950 . S
C992 C990 1.391 . S
C992 C993 1.400 . S
C993 C987 1.491 . S
C993 C992 1.400 . S
C993 C994 1.398 . S
C994 H982 0.950 . S
C994 C993 1.398 . S
C994 C995 1.391 . S
C995 H983 0.950 1_455 S
C995 C991 1.393 . S
C995 C994 1.391 . S
H996 C1004 0.950 . S
H997 C1009 0.950 . S
H998 C1006 0.950 . S
H999 C1008 0.950 . S
H1000 C1010 0.950 . S
H1001 C1012 0.950 . S
H1002 C1014 0.950 . S
H1003 C1015 0.950 . S
C1004 H996 0.950 . S
C1004 C1005 1.386 . S
C1004 C1006 1.391 . S
C1005 C1004 1.386 . S
C1005 C1009 1.393 . S
C1006 H998 0.950 . S
C1006 C1004 1.391 . S
C1006 C1007 1.400 . S
C1007 C1006 1.400 . S
C1007 C1008 1.398 . S
C1007 C1013 1.491 . S
C1008 H999 0.950 . S
C1008 C1007 1.398 . S
C1008 C1009 1.391 . S
C1009 H997 0.950 . S
C1009 C1005 1.393 . S
C1009 C1008 1.391 . S
C1010 H1000 0.950 . S
C1010 C1011 1.386 1_565 S
C1010 C1012 1.391 1_565 S
C1011 C1010 1.386 1_545 S
C1011 C1015 1.393 . S
C1012 H1001 0.950 . S
C1012 C1010 1.391 1_545 S
C1012 C1013 1.400 . S
C1013 C1007 1.491 . S
C1013 C1012 1.400 . S
C1013 C1014 1.398 . S
C1014 H1002 0.950 . S
C1014 C1013 1.398 . S
C1014 C1015 1.391 . S
C1015 H1003 0.950 . S
C1015 C1011 1.393 . S
C1015 C1014 1.391 . S
H1016 C1024 0.950 . S
H1017 C1029 0.950 . S
H1018 C1026 0.950 . S
H1019 C1028 0.950 . S
H1020 C1030 0.950 . S
H1021 C1032 0.950 . S
H1022 C1034 0.950 . S
H1023 C1035 0.950 . S
C1024 H1016 0.950 . S
C1024 C1025 1.386 . S
C1024 C1026 1.391 . S
C1025 C1024 1.386 . S
C1025 C1029 1.393 . S
C1026 H1018 0.950 . S
C1026 C1024 1.391 . S
C1026 C1027 1.400 . S
C1027 C1026 1.400 . S
C1027 C1028 1.398 . S
C1027 C1033 1.491 . S
C1028 H1019 0.950 . S
C1028 C1027 1.398 . S
C1028 C1029 1.391 . S
C1029 H1017 0.950 . S
C1029 C1025 1.393 . S
C1029 C1028 1.391 . S
C1030 H1020 0.950 . S
C1030 C1031 1.386 . S
C1030 C1032 1.391 . S
C1031 C1030 1.386 . S
C1031 C1035 1.393 . S
C1032 H1021 0.950 . S
C1032 C1030 1.391 . S
C1032 C1033 1.400 . S
C1033 C1027 1.491 . S
C1033 C1032 1.400 . S
C1033 C1034 1.398 . S
C1034 H1022 0.950 . S
C1034 C1033 1.398 . S
C1034 C1035 1.391 . S
C1035 H1023 0.950 . S
C1035 C1031 1.393 . S
C1035 C1034 1.391 . S
H1036 C1044 0.950 . S
H1037 C1049 0.950 . S
H1038 C1046 0.950 . S
H1039 C1048 0.950 . S
H1040 C1050 0.950 . S
H1041 C1052 0.950 . S
H1042 C1054 0.950 . S
H1043 C1055 0.950 . S
C1044 H1036 0.950 . S
C1044 C1045 1.386 . S
C1044 C1046 1.391 . S
C1045 C1044 1.386 . S
C1045 C1049 1.393 . S
C1046 H1038 0.950 . S
C1046 C1044 1.391 . S
C1046 C1047 1.400 . S
C1047 C1046 1.400 . S
C1047 C1048 1.398 . S
C1047 C1053 1.491 . S
C1048 H1039 0.950 . S
C1048 C1047 1.398 . S
C1048 C1049 1.391 . S
C1049 H1037 0.950 . S
C1049 C1045 1.393 . S
C1049 C1048 1.391 . S
C1050 H1040 0.950 . S
C1050 C1051 1.386 . S
C1050 C1052 1.391 . S
C1051 C1050 1.386 . S
C1051 C1055 1.393 . S
C1052 H1041 0.950 . S
C1052 C1050 1.391 . S
C1052 C1053 1.400 . S
C1053 C1047 1.491 . S
C1053 C1052 1.400 . S
C1053 C1054 1.398 . S
C1054 H1042 0.950 . S
C1054 C1053 1.398 . S
C1054 C1055 1.391 . S
C1055 H1043 0.950 . S
C1055 C1051 1.393 . S
C1055 C1054 1.391 . S
H1056 C1064 0.950 . S
H1057 C1069 0.950 . S
H1058 C1066 0.950 1_554 S
H1059 C1068 0.950 . S
H1060 C1070 0.950 . S
H1061 C1072 0.950 . S
H1062 C1074 0.950 . S
H1063 C1075 0.950 . S
C1064 H1056 0.950 . S
C1064 C1065 1.386 1_554 S
C1064 C1066 1.391 1_554 S
C1065 C1064 1.386 1_556 S
C1065 C1069 1.393 . S
C1066 H1058 0.950 1_556 S
C1066 C1064 1.391 1_556 S
C1066 C1067 1.400 . S
C1067 C1066 1.400 . S
C1067 C1068 1.398 . S
C1067 C1073 1.491 . S
C1068 H1059 0.950 . S
C1068 C1067 1.398 . S
C1068 C1069 1.391 . S
C1069 H1057 0.950 . S
C1069 C1065 1.393 . S
C1069 C1068 1.391 . S
C1070 H1060 0.950 . S
C1070 C1071 1.386 1_655 S
C1070 C1072 1.391 . S
C1071 C1070 1.386 1_455 S
C1071 C1075 1.393 . S
C1072 H1061 0.950 . S
C1072 C1070 1.391 . S
C1072 C1073 1.400 . S
C1073 C1067 1.491 . S
C1073 C1072 1.400 . S
C1073 C1074 1.398 . S
C1074 H1062 0.950 . S
C1074 C1073 1.398 . S
C1074 C1075 1.391 1_655 S
C1075 H1063 0.950 . S
C1075 C1071 1.393 . S
C1075 C1074 1.391 1_455 S
H1076 C1084 0.950 . S
H1077 C1089 0.950 . S
H1078 C1086 0.950 . S
H1079 C1088 0.950 1_554 S
H1080 C1090 0.951 . S
H1081 C1092 0.950 . S
H1082 C1094 0.950 . S
H1083 C1095 0.950 . S
C1084 H1076 0.950 . S
C1084 C1085 1.386 . S
C1084 C1086 1.391 . S
C1085 C1084 1.386 . S
C1085 C1089 1.393 1_556 S
C1086 H1078 0.950 . S
C1086 C1084 1.391 . S
C1086 C1087 1.400 . S
C1087 C1086 1.400 . S
C1087 C1088 1.398 . S
C1087 C1093 1.491 . S
C1088 H1079 0.950 1_556 S
C1088 C1087 1.398 . S
C1088 C1089 1.391 1_556 S
C1089 H1077 0.950 . S
C1089 C1085 1.393 1_554 S
C1089 C1088 1.391 1_554 S
C1090 H1080 0.951 . S
C1090 C1091 1.389 . S
C1090 C1092 1.387 1_545 S
C1091 C1090 1.389 . S
C1091 C1095 1.393 . S
C1092 H1081 0.950 . S
C1092 C1090 1.387 1_565 S
C1092 C1093 1.400 . S
C1093 C1087 1.491 . S
C1093 C1092 1.400 . S
C1093 C1094 1.398 . S
C1094 H1082 0.950 . S
C1094 C1093 1.398 . S
C1094 C1095 1.391 1_565 S
C1095 H1083 0.950 . S
C1095 C1091 1.393 . S
C1095 C1094 1.391 1_545 S
H1096 C1104 0.950 . S
H1097 C1109 0.950 . S
H1098 C1106 0.950 . S
H1099 C1108 0.950 . S
H1100 C1110 0.950 . S
H1101 C1112 0.950 . S
H1102 C1114 0.950 . S
H1103 C1115 0.950 . S
C1104 H1096 0.950 . S
C1104 C1105 1.386 1_554 S
C1104 C1106 1.391 1_554 S
C1105 C1104 1.386 1_556 S
C1105 C1109 1.393 . S
C1106 H1098 0.950 . S
C1106 C1104 1.391 1_556 S
C1106 C1107 1.400 . S
C1107 C1106 1.400 . S
C1107 C1108 1.398 . S
C1107 C1113 1.491 . S
C1108 H1099 0.950 . S
C1108 C1107 1.398 . S
C1108 C1109 1.391 . S
C1109 H1097 0.950 . S
C1109 C1105 1.393 . S
C1109 C1108 1.391 . S
C1110 H1100 0.950 . S
C1110 C1111 1.386 . S
C1110 C1112 1.391 . S
C1111 C1110 1.386 . S
C1111 C1115 1.393 . S
C1112 H1101 0.950 . S
C1112 C1110 1.391 . S
C1112 C1113 1.400 . S
C1113 C1107 1.491 . S
C1113 C1112 1.400 . S
C1113 C1114 1.398 . S
C1114 H1102 0.950 . S
C1114 C1113 1.398 . S
C1114 C1115 1.391 . S
C1115 H1103 0.950 . S
C1115 C1111 1.393 . S
C1115 C1114 1.391 . S
H1116 C1124 0.950 . S
H1117 C1129 0.950 . S
H1118 C1126 0.950 . S
H1119 C1128 0.950 1_554 S
H1120 C1130 0.950 . S
H1121 C1132 0.950 . S
H1122 C1134 0.950 . S
H1123 C1135 0.950 . S
C1124 H1116 0.950 . S
C1124 C1125 1.386 . S
C1124 C1126 1.391 . S
C1125 C1124 1.386 . S
C1125 C1129 1.393 1_556 S
C1126 H1118 0.950 . S
C1126 C1124 1.391 . S
C1126 C1127 1.400 . S
C1127 C1126 1.400 . S
C1127 C1128 1.398 . S
C1127 C1133 1.491 . S
C1128 H1119 0.950 1_556 S
C1128 C1127 1.398 . S
C1128 C1129 1.391 1_556 S
C1129 H1117 0.950 . S
C1129 C1125 1.393 1_554 S
C1129 C1128 1.391 1_554 S
C1130 H1120 0.950 . S
C1130 C1131 1.386 . S
C1130 C1132 1.391 . S
C1131 C1130 1.386 . S
C1131 C1135 1.393 . S
C1132 H1121 0.950 . S
C1132 C1130 1.391 . S
C1132 C1133 1.400 . S
C1133 C1127 1.491 . S
C1133 C1132 1.400 . S
C1133 C1134 1.398 . S
C1134 H1122 0.950 . S
C1134 C1133 1.398 . S
C1134 C1135 1.391 . S
C1135 H1123 0.950 . S
C1135 C1131 1.393 . S
C1135 C1134 1.391 . S
H1136 C1144 0.950 . S
H1137 C1149 0.950 . S
H1138 C1146 0.950 . S
H1139 C1148 0.950 . S
H1140 C1150 0.950 . S
H1141 C1152 0.950 . S
H1142 C1154 0.950 . S
H1143 C1155 0.950 . S
C1144 H1136 0.950 . S
C1144 C1145 1.386 . S
C1144 C1146 1.391 . S
C1145 C1144 1.386 . S
C1145 C1149 1.393 . S
C1146 H1138 0.950 . S
C1146 C1144 1.391 . S
C1146 C1147 1.400 . S
C1147 C1146 1.400 . S
C1147 C1148 1.398 . S
C1147 C1153 1.491 . S
C1148 H1139 0.950 . S
C1148 C1147 1.398 . S
C1148 C1149 1.391 . S
C1149 H1137 0.950 . S
C1149 C1145 1.393 . S
C1149 C1148 1.391 . S
C1150 H1140 0.950 . S
C1150 C1151 1.386 . S
C1150 C1152 1.391 . S
C1151 C1150 1.386 . S
C1151 C1155 1.393 . S
C1152 H1141 0.950 . S
C1152 C1150 1.391 . S
C1152 C1153 1.400 . S
C1153 C1147 1.491 . S
C1153 C1152 1.400 . S
C1153 C1154 1.398 . S
C1154 H1142 0.950 . S
C1154 C1153 1.398 . S
C1154 C1155 1.391 . S
C1155 H1143 0.950 . S
C1155 C1151 1.393 . S
C1155 C1154 1.391 . S
H1156 C1164 0.950 . S
H1157 C1169 0.950 . S
H1158 C1166 0.950 . S
H1159 C1168 0.950 . S
H1160 C1170 0.950 . S
H1161 C1172 0.950 . S
H1162 C1174 0.950 . S
H1163 C1175 0.950 . S
C1164 H1156 0.950 . S
C1164 C1165 1.386 . S
C1164 C1166 1.391 . S
C1165 C1164 1.386 . S
C1165 C1169 1.393 . S
C1166 H1158 0.950 . S
C1166 C1164 1.391 . S
C1166 C1167 1.400 . S
C1167 C1166 1.400 . S
C1167 C1168 1.398 . S
C1167 C1173 1.491 . S
C1168 H1159 0.950 . S
C1168 C1167 1.398 . S
C1168 C1169 1.391 . S
C1169 H1157 0.950 . S
C1169 C1165 1.393 . S
C1169 C1168 1.391 . S
C1170 H1160 0.950 . S
C1170 C1171 1.386 . S
C1170 C1172 1.391 . S
C1171 C1170 1.386 . S
C1171 C1175 1.393 . S
C1172 H1161 0.950 . S
C1172 C1170 1.391 . S
C1172 C1173 1.400 . S
C1173 C1167 1.491 . S
C1173 C1172 1.400 . S
C1173 C1174 1.398 . S
C1174 H1162 0.950 . S
C1174 C1173 1.398 . S
C1174 C1175 1.391 . S
C1175 H1163 0.950 . S
C1175 C1171 1.393 . S
C1175 C1174 1.391 . S
H1176 C1184 0.950 . S
H1177 C1189 0.950 . S
H1178 C1186 0.950 . S
H1179 C1188 0.950 . S
H1180 C1190 0.950 . S
H1181 C1192 0.950 . S
H1182 C1194 0.950 . S
H1183 C1195 0.950 . S
C1184 H1176 0.950 . S
C1184 C1185 1.386 . S
C1184 C1186 1.391 . S
C1185 C1184 1.386 . S
C1185 C1189 1.393 . S
C1186 H1178 0.950 . S
C1186 C1184 1.391 . S
C1186 C1187 1.400 . S
C1187 C1186 1.400 . S
C1187 C1188 1.398 . S
C1187 C1193 1.491 . S
C1188 H1179 0.950 . S
C1188 C1187 1.398 . S
C1188 C1189 1.391 . S
C1189 H1177 0.950 . S
C1189 C1185 1.393 . S
C1189 C1188 1.391 . S
C1190 H1180 0.950 . S
C1190 C1191 1.386 . S
C1190 C1192 1.391 . S
C1191 C1190 1.386 . S
C1191 C1195 1.393 . S
C1192 H1181 0.950 . S
C1192 C1190 1.391 . S
C1192 C1193 1.400 . S
C1193 C1187 1.491 . S
C1193 C1192 1.400 . S
C1193 C1194 1.398 . S
C1194 H1182 0.950 . S
C1194 C1193 1.398 . S
C1194 C1195 1.391 . S
C1195 H1183 0.950 . S
C1195 C1191 1.393 . S
C1195 C1194 1.391 . S
H1196 C1204 0.950 . S
H1197 C1209 0.950 . S
H1198 C1206 0.950 . S
H1199 C1208 0.950 . S
H1200 C1210 0.950 . S
H1201 C1212 0.950 . S
H1202 C1214 0.950 . S
H1203 C1215 0.950 . S
C1204 H1196 0.950 . S
C1204 C1205 1.386 . S
C1204 C1206 1.391 . S
C1205 C1204 1.386 . S
C1205 C1209 1.393 . S
C1206 H1198 0.950 . S
C1206 C1204 1.391 . S
C1206 C1207 1.400 . S
C1207 C1206 1.400 . S
C1207 C1208 1.398 . S
C1207 C1213 1.491 . S
C1208 H1199 0.950 . S
C1208 C1207 1.398 . S
C1208 C1209 1.391 . S
C1209 H1197 0.950 . S
C1209 C1205 1.393 . S
C1209 C1208 1.391 . S
C1210 H1200 0.950 . S
C1210 C1211 1.386 . S
C1210 C1212 1.391 . S
C1211 C1210 1.386 . S
C1211 C1215 1.393 . S
C1212 H1201 0.950 . S
C1212 C1210 1.391 . S
C1212 C1213 1.400 . S
C1213 C1207 1.491 . S
C1213 C1212 1.400 . S
C1213 C1214 1.398 . S
C1214 H1202 0.950 . S
C1214 C1213 1.398 . S
C1214 C1215 1.391 . S
C1215 H1203 0.950 . S
C1215 C1211 1.393 . S
C1215 C1214 1.391 . S
H1216 C1224 0.950 . S
H1217 C1229 0.950 . S
H1218 C1226 0.950 . S
H1219 C1228 0.950 . S
H1220 C1230 0.950 . S
H1221 C1232 0.950 . S
H1222 C1234 0.950 . S
H1223 C1235 0.950 1_455 S
C1224 H1216 0.950 . S
C1224 C1225 1.386 . S
C1224 C1226 1.391 . S
C1225 C1224 1.386 . S
C1225 C1229 1.393 . S
C1226 H1218 0.950 . S
C1226 C1224 1.391 . S
C1226 C1227 1.400 . S
C1227 C1226 1.400 . S
C1227 C1228 1.398 . S
C1227 C1233 1.491 . S
C1228 H1219 0.950 . S
C1228 C1227 1.398 . S
C1228 C1229 1.391 . S
C1229 H1217 0.950 . S
C1229 C1225 1.393 . S
C1229 C1228 1.391 . S
C1230 H1220 0.950 . S
C1230 C1231 1.386 . S
C1230 C1232 1.391 . S
C1231 C1230 1.386 . S
C1231 C1235 1.393 . S
C1232 H1221 0.950 . S
C1232 C1230 1.391 . S
C1232 C1233 1.400 . S
C1233 C1227 1.491 . S
C1233 C1232 1.400 . S
C1233 C1234 1.398 . S
C1234 H1222 0.950 . S
C1234 C1233 1.398 . S
C1234 C1235 1.391 . S
C1235 H1223 0.950 1_655 S
C1235 C1231 1.393 . S
C1235 C1234 1.391 . S
H1236 C1244 0.950 . S
H1237 C1249 0.950 . S
H1238 C1246 0.950 . S
H1239 C1248 0.950 . S
H1240 C1250 0.950 . S
H1241 C1252 0.950 . S
H1242 C1254 0.950 . S
H1243 C1255 0.950 . S
C1244 H1236 0.950 . S
C1244 C1245 1.386 . S
C1244 C1246 1.391 . S
C1245 C1244 1.386 . S
C1245 C1249 1.393 . S
C1246 H1238 0.950 . S
C1246 C1244 1.391 . S
C1246 C1247 1.400 . S
C1247 C1246 1.400 . S
C1247 C1248 1.398 . S
C1247 C1253 1.491 . S
C1248 H1239 0.950 . S
C1248 C1247 1.398 . S
C1248 C1249 1.391 . S
C1249 H1237 0.950 . S
C1249 C1245 1.393 . S
C1249 C1248 1.391 . S
C1250 H1240 0.950 . S
C1250 C1251 1.386 . S
C1250 C1252 1.391 . S
C1251 C1250 1.386 . S
C1251 C1255 1.393 . S
C1252 H1241 0.950 . S
C1252 C1250 1.391 . S
C1252 C1253 1.400 . S
C1253 C1247 1.491 . S
C1253 C1252 1.400 . S
C1253 C1254 1.398 . S
C1254 H1242 0.950 . S
C1254 C1253 1.398 . S
C1254 C1255 1.391 . S
C1255 H1243 0.950 . S
C1255 C1251 1.393 . S
C1255 C1254 1.391 . S
H1256 C1264 0.950 . S
H1257 C1269 0.950 . S
H1258 C1266 0.950 . S
H1259 C1268 0.950 . S
H1260 C1270 0.950 . S
H1261 C1272 0.950 . S
H1262 C1274 0.950 . S
H1263 C1275 0.950 . S
C1264 H1256 0.950 . S
C1264 C1265 1.386 . S
C1264 C1266 1.391 . S
C1265 C1264 1.386 . S
C1265 C1269 1.393 . S
C1266 H1258 0.950 . S
C1266 C1264 1.391 . S
C1266 C1267 1.400 . S
C1267 C1266 1.400 . S
C1267 C1268 1.398 . S
C1267 C1273 1.491 . S
C1268 H1259 0.950 . S
C1268 C1267 1.398 . S
C1268 C1269 1.391 . S
C1269 H1257 0.950 . S
C1269 C1265 1.393 . S
C1269 C1268 1.391 . S
C1270 H1260 0.950 . S
C1270 C1271 1.386 . S
C1270 C1272 1.391 . S
C1271 C1270 1.386 . S
C1271 C1275 1.393 . S
C1272 H1261 0.950 . S
C1272 C1270 1.391 . S
C1272 C1273 1.400 . S
C1273 C1267 1.491 . S
C1273 C1272 1.400 . S
C1273 C1274 1.398 . S
C1274 H1262 0.950 . S
C1274 C1273 1.398 . S
C1274 C1275 1.391 . S
C1275 H1263 0.950 . S
C1275 C1271 1.393 . S
C1275 C1274 1.391 . S
H1276 C1284 0.950 . S
H1277 C1289 0.950 . S
H1278 C1286 0.950 . S
H1279 C1288 0.950 . S
H1280 C1290 0.950 . S
H1281 C1292 0.950 . S
H1282 C1294 0.950 . S
H1283 C1295 0.950 . S
C1284 H1276 0.950 . S
C1284 C1285 1.386 . S
C1284 C1286 1.391 . S
C1285 C1284 1.386 . S
C1285 C1289 1.393 . S
C1286 H1278 0.950 . S
C1286 C1284 1.391 . S
C1286 C1287 1.400 . S
C1287 C1286 1.400 . S
C1287 C1288 1.398 . S
C1287 C1293 1.491 . S
C1288 H1279 0.950 . S
C1288 C1287 1.398 . S
C1288 C1289 1.391 . S
C1289 H1277 0.950 . S
C1289 C1285 1.393 . S
C1289 C1288 1.391 . S
C1290 H1280 0.950 . S
C1290 C1291 1.386 . S
C1290 C1292 1.391 . S
C1291 C1290 1.386 . S
C1291 C1295 1.393 . S
C1292 H1281 0.950 . S
C1292 C1290 1.391 . S
C1292 C1293 1.400 . S
C1293 C1287 1.491 . S
C1293 C1292 1.400 . S
C1293 C1294 1.398 . S
C1294 H1282 0.950 . S
C1294 C1293 1.398 . S
C1294 C1295 1.391 . S
C1295 H1283 0.950 . S
C1295 C1291 1.393 . S
C1295 C1294 1.391 . S
C825 C391 2.375 . S
C831 C555 2.331 . S
C851 C639 2.360 . S
C845 C451 2.405 . S
C871 C715 2.262 . S
C865 C241 2.179 . S
C891 C799 2.239 . S
C885 C331 2.155 . S
C911 C546 2.334 1_565 S
C905 C121 2.113 . S
C925 C211 2.323 . S
C931 C630 2.353 . S
C945 C31 2.445 . S
C951 C704 2.264 . S
C965 C91 2.220 . S
C971 C788 2.234 . S
C991 C543 0.649 1_455 S
C985 C301 0.646 . S
C1011 C627 0.586 1_545 S
C1005 C380 0.561 . S
C1031 C720 0.584 . S
C1025 C440 0.566 . S
C1045 C260 0.666 . S
C1051 C804 0.628 . S
C1065 C61 0.667 1_556 S
C1071 C552 0.643 . S
C1091 C636 0.552 . S
C1085 C140 0.637 1_556 S
C1111 C711 0.585 . S
C1105 C200 0.584 . S
C1125 C20 0.664 . S
C1131 C795 0.629 . S
C1145 C320 2.870 . S
C1151 C536 2.894 . S
C1165 C361 2.519 . S
C1171 C620 2.858 . S
C1191 C714 2.928 . S
C1185 C421 2.407 . S
C1211 C798 2.959 . S
C1205 C271 2.730 . S
C1225 C80 2.905 . S
C1231 C547 2.889 . S
C1251 C631 2.865 . S
C1245 C151 2.877 . S
C1271 C723 2.932 . S
C1265 C181 2.347 . S
C1285 C1 2.398 . S
C1291 C807 2.955 . S
