# Generated by pormake.
# Topology zzz, (3,6)-cn, num edge types: 1
# Building blocks:
#     Node 0, Type 0, BuildingBlock: VETTIZ_charged_linker_0, # of connection points: 3
#     Node 1, Type 0, BuildingBlock: VETTIZ_charged_linker_0, # of connection points: 3
#     Node 2, Type 0, BuildingBlock: VETTIZ_charged_linker_0, # of connection points: 3
#     Node 3, Type 0, BuildingBlock: VETTIZ_charged_linker_0, # of connection points: 3
#     Node 4, Type 0, BuildingBlock: VETTIZ_charged_linker_0, # of connection points: 3
#     Node 5, Type 0, BuildingBlock: VETTIZ_charged_linker_0, # of connection points: 3
#     Node 6, Type 0, BuildingBlock: VETTIZ_charged_linker_0, # of connection points: 3
#     Node 7, Type 0, BuildingBlock: VETTIZ_charged_linker_0, # of connection points: 3
#     Node 8, Type 1, BuildingBlock: GEDQOX_clean_sbu_0, # of connection points: 6
#     Node 9, Type 1, BuildingBlock: GEDQOX_clean_sbu_0, # of connection points: 6
#     Node 10, Type 1, BuildingBlock: GEDQOX_clean_sbu_0, # of connection points: 6
#     Node 11, Type 1, BuildingBlock: GEDQOX_clean_sbu_0, # of connection points: 6
#     Edge 12, Type (0, 1), BuildingBlock: XIVTED_clean_linker_0, # of connection points: 2
#     Edge 13, Type (0, 1), BuildingBlock: XIVTED_clean_linker_0, # of connection points: 2
#     Edge 14, Type (0, 1), BuildingBlock: XIVTED_clean_linker_0, # of connection points: 2
#     Edge 15, Type (0, 1), BuildingBlock: XIVTED_clean_linker_0, # of connection points: 2
#     Edge 16, Type (0, 1), BuildingBlock: XIVTED_clean_linker_0, # of connection points: 2
#     Edge 17, Type (0, 1), BuildingBlock: XIVTED_clean_linker_0, # of connection points: 2
#     Edge 18, Type (0, 1), BuildingBlock: XIVTED_clean_linker_0, # of connection points: 2
#     Edge 19, Type (0, 1), BuildingBlock: XIVTED_clean_linker_0, # of connection points: 2
#     Edge 20, Type (0, 1), BuildingBlock: XIVTED_clean_linker_0, # of connection points: 2
#     Edge 21, Type (0, 1), BuildingBlock: XIVTED_clean_linker_0, # of connection points: 2
#     Edge 22, Type (0, 1), BuildingBlock: XIVTED_clean_linker_0, # of connection points: 2
#     Edge 23, Type (0, 1), BuildingBlock: XIVTED_clean_linker_0, # of connection points: 2
#     Edge 24, Type (0, 1), BuildingBlock: XIVTED_clean_linker_0, # of connection points: 2
#     Edge 25, Type (0, 1), BuildingBlock: XIVTED_clean_linker_0, # of connection points: 2
#     Edge 26, Type (0, 1), BuildingBlock: XIVTED_clean_linker_0, # of connection points: 2
#     Edge 27, Type (0, 1), BuildingBlock: XIVTED_clean_linker_0, # of connection points: 2
#     Edge 28, Type (0, 1), BuildingBlock: XIVTED_clean_linker_0, # of connection points: 2
#     Edge 29, Type (0, 1), BuildingBlock: XIVTED_clean_linker_0, # of connection points: 2
#     Edge 30, Type (0, 1), BuildingBlock: XIVTED_clean_linker_0, # of connection points: 2
#     Edge 31, Type (0, 1), BuildingBlock: XIVTED_clean_linker_0, # of connection points: 2
#     Edge 32, Type (0, 1), BuildingBlock: XIVTED_clean_linker_0, # of connection points: 2
#     Edge 33, Type (0, 1), BuildingBlock: XIVTED_clean_linker_0, # of connection points: 2
#     Edge 34, Type (0, 1), BuildingBlock: XIVTED_clean_linker_0, # of connection points: 2
#     Edge 35, Type (0, 1), BuildingBlock: XIVTED_clean_linker_0, # of connection points: 2
# Relax obj value: 0.314
# Max RMSD: 0.267
# Mean RMSD: 0.201
data_MOF--net-zzz--node1-GEDQOX_clean_sbu_0--node2-VETTIZ_charged_linker_0--edge1-XIVTED_clean_linker_0
_symmetry_space_group_name_H-M    P1
_symmetry_Int_Tables_number       1
_symmetry_cell_setting            triclinic
loop_
_symmetry_equiv_pos_as_xyz
'x, y, z'
_cell_length_a     62.202247
_cell_length_b     58.112081
_cell_length_c     22.006216
_cell_angle_alpha  81.875158
_cell_angle_beta   90.831771
_cell_angle_gamma 102.03692
loop_
_atom_site_label
_atom_site_type_symbol
_atom_site_fract_x
_atom_site_fract_y
_atom_site_fract_z
_atom_type_partial_charge
C0 C 0.79291 0.48068 0.32624 0.0
C1 C 0.81113 0.47384 0.35665 0.0
C2 C 0.82133 0.45745 0.33299 0.0
C3 C 0.797 0.45698 0.24632 0.0
C4 C 0.7859 0.47168 0.27162 0.0
C5 C 0.76657 0.47641 0.23333 0.0
H6 H 0.71122 0.46917 0.96677 0.0
C7 C 0.78717 0.45262 0.18659 0.0
C8 C 0.769 0.46345 0.17907 0.0
H9 H 0.69402 0.49692 0.12779 0.0
H10 H 0.72565 0.48657 0.17985 0.0
H11 H 0.76298 0.4902 0.97157 0.0
H12 H 0.7242 0.42122 0.04169 0.0
H13 H 0.74788 0.41733 0.00482 0.0
H14 H 0.72837 0.43159 0.96104 0.0
H15 H 0.75183 0.46879 0.92201 0.0
H16 H 0.77799 0.46891 0.95852 0.0
C17 C 0.76979 0.50357 0.21368 0.0
C18 C 0.74517 0.4651 0.27109 0.0
C19 C 0.83001 0.41979 0.0382 0.0
C20 C 0.82806 0.41823 0.97516 0.0
C21 C 0.80851 0.42196 0.94568 0.0
C22 C 0.79192 0.42866 0.97765 0.0
C23 C 0.79501 0.43194 0.03956 0.0
C24 C 0.81357 0.42685 0.06909 0.0
C25 C 0.8149 0.43242 0.13375 0.0
C26 C 0.79434 0.44231 0.13791 0.0
C27 C 0.78271 0.44203 0.08272 0.0
C28 C 0.83621 0.45147 0.13869 0.0
C29 C 0.81369 0.40886 0.17794 0.0
C30 C 0.71413 0.47283 0.01343 0.0
C31 C 0.70009 0.48415 0.04272 0.0
C32 C 0.70473 0.48874 0.10339 0.0
C33 C 0.72302 0.4825 0.13397 0.0
C34 C 0.73694 0.47146 0.10392 0.0
C35 C 0.73231 0.46657 0.04489 0.0
C36 C 0.74893 0.45449 0.02068 0.0
C37 C 0.76379 0.45224 0.0757 0.0
C38 C 0.75686 0.46262 0.12391 0.0
C39 C 0.76107 0.47124 0.96501 0.0
C40 C 0.73684 0.42989 0.00574 0.0
H41 H 0.82318 0.43704 0.26177 0.0
H42 H 0.78449 0.49285 0.34429 0.0
H43 H 0.74771 0.45069 0.30778 0.0
H44 H 0.73194 0.45638 0.24266 0.0
H45 H 0.7391 0.47851 0.29368 0.0
H46 H 0.78687 0.51115 0.19633 0.0
H47 H 0.76689 0.5126 0.25311 0.0
H48 H 0.75891 0.50837 0.17614 0.0
H49 H 0.84489 0.41748 0.06228 0.0
H50 H 0.8064 0.42058 0.8973 0.0
H51 H 0.77771 0.43189 0.95235 0.0
H52 H 0.83862 0.46509 0.09705 0.0
H53 H 0.85089 0.4433 0.14296 0.0
H54 H 0.83602 0.46154 0.17735 0.0
H55 H 0.80516 0.39321 0.15669 0.0
H56 H 0.80395 0.40818 0.22015 0.0
H57 H 0.83036 0.406 0.19084 0.0
H58 H 0.83539 0.45194 0.35561 0.0
C59 C 0.81433 0.44895 0.27822 0.0
C60 C 0.9236 0.77455 0.05849 0.0
C61 C 0.91972 0.79573 0.07653 0.0
C62 C 0.91076 0.7946 0.13581 0.0
C63 C 0.91918 0.75599 0.1639 0.0
C64 C 0.92352 0.75485 0.10343 0.0
C65 C 0.93098 0.7323 0.09626 0.0
H66 H 0.99591 0.65914 0.19329 0.0
C67 C 0.92861 0.73794 0.20245 0.0
C68 C 0.93425 0.72285 0.16383 0.0
H69 H 0.94539 0.64916 0.0562 0.0
H70 H 0.92822 0.6781 0.09566 0.0
H71 H 0.00324 0.71906 0.18658 0.0
H72 H 0.95854 0.66359 0.30344 0.0
H73 H 0.97455 0.68481 0.34537 0.0
H74 H 0.98785 0.66617 0.30687 0.0
H75 H 0.01331 0.6986 0.24333 0.0
H76 H 0.00437 0.72402 0.26401 0.0
C77 C 0.95277 0.73812 0.05885 0.0
C78 C 0.91241 0.71625 0.06469 0.0
C79 C 0.96063 0.76421 0.39965 0.0
C80 C 0.97968 0.76155 0.4319 0.0
C81 C 0.9916 0.74501 0.41605 0.0
C82 C 0.98444 0.73145 0.3682 0.0
C83 C 0.96578 0.73529 0.33427 0.0
C84 C 0.95455 0.75184 0.35005 0.0
C85 C 0.93755 0.75707 0.30436 0.0
C86 C 0.93932 0.73985 0.25966 0.0
C87 C 0.95568 0.72677 0.27754 0.0
C88 C 0.94433 0.78373 0.27534 0.0
C89 C 0.91485 0.75063 0.33726 0.0
C90 C 0.98164 0.66382 0.17002 0.0
C91 C 0.97283 0.65287 0.11888 0.0
C92 C 0.95342 0.65846 0.0924 0.0
C93 C 0.94386 0.67567 0.11311 0.0
C94 C 0.95432 0.68827 0.15835 0.0
C95 C 0.9718 0.6814 0.18956 0.0
C96 C 0.97737 0.69462 0.24449 0.0
C97 C 0.95998 0.70998 0.24016 0.0
C98 C 0.94776 0.70694 0.18678 0.0
C99 C 1.00087 0.70985 0.23464 0.0
C100 C 0.97455 0.67641 0.30348 0.0
H101 H 0.90367 0.77434 0.22435 0.0
H102 H 0.92868 0.77414 0.01193 0.0
H103 H 0.90226 0.72686 0.0352 0.0
H104 H 0.90118 0.70375 0.09903 0.0
H105 H 0.91906 0.70612 0.03301 0.0
H106 H 0.96555 0.75065 0.08053 0.0
H107 H 0.95041 0.74622 0.01108 0.0
H108 H 0.95909 0.72186 0.05567 0.0
H109 H 0.9516 0.77738 0.40932 0.0
H110 H 0.00652 0.74285 0.44007 0.0
H111 H 0.99407 0.71911 0.35801 0.0
H112 H 0.9503 0.78569 0.22721 0.0
H113 H 0.95808 0.79408 0.29934 0.0
H114 H 0.9307 0.79325 0.2772 0.0
H115 H 0.91294 0.73344 0.36831 0.0
H116 H 0.90114 0.74825 0.30468 0.0
H117 H 0.91288 0.76452 0.36537 0.0
H118 H 0.90649 0.80997 0.1512 0.0
C119 C 0.90991 0.77437 0.17917 0.0
C120 C 0.82859 0.01128 0.06748 0.0
C121 C 0.83644 0.01751 0.00628 0.0
C122 C 0.82408 0.02905 0.96253 0.0
C123 C 0.79743 0.02972 0.04095 0.0
C124 C 0.80886 0.0173 0.08365 0.0
C125 C 0.79746 0.01172 0.14588 0.0
H126 H 0.71607 0.02994 0.32652 0.0
C127 C 0.77883 0.03524 0.0727 0.0
C128 C 0.77868 0.02488 0.13452 0.0
H129 H 0.75909 0.98095 0.37427 0.0
H130 H 0.77761 0.99351 0.27435 0.0
H131 H 0.75175 0.07361 0.25317 0.0
H132 H 0.70452 0.01435 0.20451 0.0
H133 H 0.70407 0.03735 0.14441 0.0
H134 H 0.6968 0.04089 0.22101 0.0
H135 H 0.72274 0.07263 0.25211 0.0
H136 H 0.73995 0.08424 0.18469 0.0
C137 C 0.81354 0.02197 0.19415 0.0
C138 C 0.78894 0.98449 0.15971 0.0
C139 C 0.72682 0.08096 0.95302 0.0
C140 C 0.70785 0.08808 0.97109 0.0
C141 C 0.70379 0.08756 0.03423 0.0
C142 C 0.71703 0.07795 0.07843 0.0
C143 C 0.73442 0.0685 0.05959 0.0
C144 C 0.73979 0.07115 0.99801 0.0
C145 C 0.75918 0.06039 0.98709 0.0
C146 C 0.76346 0.04947 0.05195 0.0
C147 C 0.74871 0.05404 0.09381 0.0
C148 C 0.77842 0.08084 0.96111 0.0
C149 C 0.75191 0.04111 0.9446 0.0
C150 C 0.72979 0.02224 0.31614 0.0
C151 C 0.7364 0.00478 0.35849 0.0
C152 C 0.75379 0.99454 0.34226 0.0
C153 C 0.76439 1.00174 0.28429 0.0
C154 C 0.75709 0.0189 0.24178 0.0
C155 C 0.73998 0.02868 0.25842 0.0
C156 C 0.73263 0.04477 0.20674 0.0
C157 C 0.74809 0.04321 0.15581 0.0
C158 C 0.76272 0.02838 0.17628 0.0
C159 C 0.73676 0.07016 0.22484 0.0
C160 C 0.70824 0.03407 0.19333 0.0
H161 H 0.79638 0.04449 0.94418 0.0
H162 H 0.83768 1.00212 0.10177 0.0
H163 H 0.78405 0.97677 0.11684 0.0
H164 H 0.77397 0.97954 0.18901 0.0
H165 H 0.80181 0.97558 0.18171 0.0
H166 H 0.82139 0.0408 0.17766 0.0
H167 H 0.82677 0.01175 0.20305 0.0
H168 H 0.8053 0.02187 0.23826 0.0
H169 H 0.73068 0.08157 0.90491 0.0
H170 H 0.68933 0.09277 0.0499 0.0
H171 H 0.71237 0.07698 0.12558 0.0
H172 H 0.77723 0.09788 0.97705 0.0
H173 H 0.77848 0.08383 0.91013 0.0
H174 H 0.79464 0.07773 0.97707 0.0
H175 H 0.73486 0.0311 0.95638 0.0
H176 H 0.76204 0.02748 0.94939 0.0
H177 H 0.75219 0.0492 0.8957 0.0
H178 H 0.82987 0.03409 0.91534 0.0
C179 C 0.80475 0.0353 0.97954 0.0
C180 C 0.58493 0.72453 0.46821 0.0
C181 C 0.59495 0.70495 0.48769 0.0
C182 C 0.61351 0.70268 0.45479 0.0
C183 C 0.60986 0.73617 0.38031 0.0
C184 C 0.5931 0.74033 0.41474 0.0
C185 C 0.58606 0.76304 0.38708 0.0
H186 H 0.59639 0.85246 0.14278 0.0
C187 C 0.61358 0.75371 0.32477 0.0
C188 C 0.60054 0.7705 0.32891 0.0
H189 H 0.55504 0.84468 0.3033 0.0
H190 H 0.5682 0.80907 0.34598 0.0
H191 H 0.64002 0.83787 0.20978 0.0
H192 H 0.58379 0.80695 0.11675 0.0
H193 H 0.59943 0.78509 0.11701 0.0
H194 H 0.60975 0.8148 0.078 0.0
H195 H 0.63442 0.84314 0.12924 0.0
H196 H 0.64852 0.82 0.16005 0.0
C197 C 0.59164 0.7812 0.43274 0.0
C198 C 0.56141 0.75698 0.37203 0.0
C199 C 0.63987 0.72909 0.1339 0.0
C200 C 0.63951 0.73945 0.07215 0.0
C201 C 0.64102 0.76419 0.05914 0.0
C202 C 0.6391 0.77745 0.10647 0.0
C203 C 0.63517 0.76571 0.16683 0.0
C204 C 0.63731 0.74242 0.18053 0.0
C205 C 0.63314 0.73303 0.24761 0.0
C206 C 0.62496 0.75355 0.2695 0.0
C207 C 0.62593 0.77237 0.22165 0.0
C208 C 0.65531 0.72941 0.27681 0.0
C209 C 0.61514 0.70989 0.25377 0.0
C210 C 0.59053 0.84358 0.18795 0.0
C211 C 0.57509 0.85178 0.22022 0.0
C212 C 0.56712 0.83884 0.2776 0.0
C213 C 0.57483 0.81826 0.30236 0.0
C214 C 0.59037 0.81036 0.26889 0.0
C215 C 0.5977 0.82305 0.2124 0.0
C216 C 0.61256 0.81159 0.17956 0.0
C217 C 0.61421 0.79049 0.22693 0.0
C218 C 0.60122 0.78958 0.27964 0.0
C219 C 0.6351 0.82904 0.16854 0.0
C220 C 0.60099 0.80426 0.11977 0.0
H221 H 0.63535 0.71589 0.37937 0.0
H222 H 0.57118 0.72736 0.4937 0.0
H223 H 0.5578 0.74135 0.3468 0.0
H224 H 0.55603 0.7716 0.3424 0.0
H225 H 0.55118 0.75259 0.41473 0.0
H226 H 0.60839 0.7814 0.4514 0.0
H227 H 0.57976 0.77659 0.47201 0.0
H228 H 0.5918 0.79955 0.41116 0.0
H229 H 0.63936 0.71028 0.1456 0.0
H230 H 0.64172 0.77286 0.01207 0.0
H231 H 0.63925 0.79597 0.09382 0.0
H232 H 0.66923 0.73429 0.24309 0.0
H233 H 0.65455 0.71054 0.29627 0.0
H234 H 0.66009 0.74067 0.31362 0.0
H235 H 0.60038 0.71288 0.22721 0.0
H236 H 0.60967 0.70319 0.30152 0.0
H237 H 0.62123 0.69533 0.2365 0.0
H238 H 0.62174 0.68811 0.46826 0.0
C239 C 0.62118 0.71841 0.40223 0.0
C240 C 0.33166 0.53045 0.58598 0.0
C241 C 0.34063 0.53443 0.64387 0.0
C242 C 0.32926 0.5455 0.6825 0.0
C243 C 0.30148 0.54911 0.60553 0.0
C244 C 0.31206 0.53763 0.56822 0.0
C245 C 0.2996 0.53338 0.51016 0.0
H246 H 0.20734 0.53995 0.34711 0.0
C247 C 0.28196 0.55493 0.57303 0.0
C248 C 0.28077 0.54584 0.51688 0.0
H249 H 0.2566 0.50044 0.31546 0.0
H250 H 0.27929 0.51802 0.39514 0.0
H251 H 0.2072 0.52898 0.49381 0.0
H252 H 0.23854 0.58783 0.36295 0.0
H253 H 0.23726 0.60008 0.4312 0.0
H254 H 0.21214 0.58713 0.39538 0.0
H255 H 0.19346 0.54761 0.44149 0.0
H256 H 0.20221 0.55571 0.51432 0.0
C257 C 0.29155 0.50617 0.51173 0.0
C258 C 0.31456 0.54555 0.45431 0.0
C259 C 0.228 0.5922 0.67722 0.0
C260 C 0.20858 0.59941 0.65621 0.0
C261 C 0.2044 0.60187 0.5927 0.0
C262 C 0.21784 0.59468 0.55198 0.0
C263 C 0.23541 0.58458 0.57497 0.0
C264 C 0.24131 0.58511 0.6355 0.0
C265 C 0.26187 0.57558 0.6495 0.0
C266 C 0.26603 0.5675 0.58863 0.0
C267 C 0.24994 0.57211 0.54611 0.0
C268 C 0.25653 0.55438 0.702 0.0
C269 C 0.28034 0.59633 0.66431 0.0
C270 C 0.22312 0.53526 0.35719 0.0
C271 C 0.2301 0.51856 0.32632 0.0
C272 C 0.25088 0.51317 0.33927 0.0
C273 C 0.26383 0.52315 0.38587 0.0
C274 C 0.25574 0.53847 0.41975 0.0
C275 C 0.23597 0.54479 0.40376 0.0
C276 C 0.22936 0.56061 0.4452 0.0
C277 C 0.24794 0.5619 0.4909 0.0
C278 C 0.26333 0.54889 0.47605 0.0
C279 C 0.20687 0.54775 0.4754 0.0
C280 C 0.22917 0.58515 0.40697 0.0
H281 H 0.30224 0.56139 0.69497 0.0
H282 H 0.33971 0.52213 0.55452 0.0
H283 H 0.32302 0.56379 0.46148 0.0
H284 H 0.30528 0.54763 0.41144 0.0
H285 H 0.32737 0.53538 0.44727 0.0
H286 H 0.28946 0.49679 0.55966 0.0
H287 H 0.30344 0.49848 0.488 0.0
H288 H 0.27516 0.50141 0.49135 0.0
H289 H 0.23199 0.59078 0.72548 0.0
H290 H 0.1897 0.60747 0.57492 0.0
H291 H 0.21322 0.59583 0.50476 0.0
H292 H 0.24021 0.54296 0.69499 0.0
H293 H 0.25603 0.56068 0.74721 0.0
H294 H 0.26831 0.54249 0.7043 0.0
H295 H 0.2778 0.61372 0.64026 0.0
H296 H 0.29672 0.59496 0.64823 0.0
H297 H 0.28088 0.59746 0.71429 0.0
H298 H 0.33505 0.54817 0.72809 0.0
C299 C 0.30998 0.55306 0.66342 0.0
C300 C 0.11585 0.23263 0.61982 0.0
C301 C 0.11965 0.21114 0.60354 0.0
C302 C 0.12677 0.21112 0.54288 0.0
C303 C 0.11733 0.2492 0.5126 0.0
C304 C 0.11436 0.25136 0.57325 0.0
C305 C 0.10629 0.27366 0.57958 0.0
H306 H 0.05233 0.35821 0.45471 0.0
C307 C 0.10723 0.26687 0.47439 0.0
C308 C 0.10104 0.28162 0.51284 0.0
H309 H 0.08548 0.35209 0.62904 0.0
H310 H 0.09788 0.31826 0.6047 0.0
H311 H 0.09043 0.3442 0.36564 0.0
H312 H 0.03426 0.29769 0.46455 0.0
H313 H 0.0368 0.29068 0.39009 0.0
H314 H 0.03075 0.319 0.39955 0.0
H315 H 0.06278 0.34829 0.35199 0.0
H316 H 0.07284 0.3261 0.3185 0.0
C317 C 0.12544 0.29151 0.60419 0.0
C318 C 0.0854 0.26708 0.62123 0.0
C319 C 0.08212 0.24582 0.26733 0.0
C320 C 0.06456 0.24998 0.23011 0.0
C321 C 0.05313 0.26743 0.24283 0.0
C322 C 0.05921 0.28024 0.29279 0.0
C323 C 0.07616 0.2747 0.33189 0.0
C324 C 0.08699 0.25744 0.31863 0.0
C325 C 0.10171 0.25031 0.36882 0.0
C326 C 0.09862 0.26659 0.41446 0.0
C327 C 0.08404 0.2814 0.39264 0.0
C328 C 0.12557 0.2564 0.34306 0.0
C329 C 0.0931 0.22342 0.39364 0.0
C330 C 0.0622 0.34946 0.48758 0.0
C331 C 0.0683 0.3584 0.54348 0.0
C332 C 0.08106 0.3463 0.58502 0.0
C333 C 0.0882 0.32644 0.57118 0.0
C334 C 0.08222 0.31788 0.51579 0.0
C335 C 0.06956 0.32922 0.47445 0.0
C336 C 0.06522 0.31682 0.41779 0.0
C337 C 0.07922 0.29797 0.43011 0.0
C338 C 0.08829 0.29832 0.48899 0.0
C339 C 0.07317 0.33479 0.36008 0.0
C340 C 0.04044 0.30551 0.41735 0.0
H341 H 0.13074 0.22906 0.45183 0.0
H342 H 0.11195 0.23394 0.66679 0.0
H343 H 0.07354 0.25189 0.60621 0.0
H344 H 0.0766 0.28175 0.62014 0.0
H345 H 0.08959 0.26193 0.66979 0.0
H346 H 0.14134 0.28556 0.6046 0.0
H347 H 0.12212 0.294 0.65205 0.0
H348 H 0.12854 0.30911 0.57494 0.0
H349 H 0.09068 0.23194 0.26023 0.0
H350 H 0.03936 0.27083 0.21484 0.0
H351 H 0.05013 0.29341 0.30035 0.0
H352 H 0.12884 0.27379 0.31258 0.0
H353 H 0.12855 0.24266 0.31573 0.0
H354 H 0.13796 0.25835 0.37955 0.0
H355 H 0.07791 0.2153 0.37077 0.0
H356 H 0.08831 0.22051 0.44289 0.0
H357 H 0.10538 0.21262 0.3866 0.0
H358 H 0.1307 0.19547 0.52827 0.0
C359 C 0.12609 0.23037 0.49764 0.0
C360 C 0.29897 0.00492 0.36507 0.0
C361 C 0.31724 0.99977 0.33656 0.0
C362 C 0.32751 0.98195 0.36583 0.0
C363 C 0.30274 0.97562 0.45291 0.0
C364 C 0.29179 0.99229 0.42328 0.0
C365 C 0.27232 0.99436 0.46114 0.0
H366 H 0.21355 0.96001 0.73042 0.0
C367 C 0.29242 0.9666 0.51379 0.0
C368 C 0.27428 0.97711 0.51915 0.0
H369 H 0.19841 0.0066 0.57202 0.0
H370 H 0.23127 1.00273 0.51959 0.0
H371 H 0.22814 0.92116 0.65719 0.0
H372 H 0.2635 0.98278 0.73019 0.0
H373 H 0.28097 0.9625 0.73781 0.0
H374 H 0.25478 0.95478 0.77799 0.0
H375 H 0.23064 0.92313 0.7378 0.0
H376 H 0.25117 0.91358 0.69637 0.0
C377 C 0.25114 0.98599 0.4257 0.0
C378 C 0.27554 0.02025 0.47447 0.0
C379 C 0.33259 0.91862 0.66812 0.0
C380 C 0.32995 0.9116 0.73179 0.0
C381 C 0.31018 0.91297 0.76032 0.0
C382 C 0.2941 0.92281 0.72666 0.0
C383 C 0.29795 0.93164 0.66397 0.0
C384 C 0.31668 0.92882 0.63555 0.0
C385 C 0.31892 0.94046 0.56995 0.0
C386 C 0.29881 0.95151 0.56407 0.0
C387 C 0.28654 0.94623 0.61898 0.0
C388 C 0.31756 0.92071 0.52847 0.0
C389 C 0.34066 0.95956 0.56323 0.0
C390 C 0.21711 0.96918 0.68416 0.0
C391 C 0.20317 0.98336 0.65513 0.0
C392 C 0.20888 0.99557 0.59552 0.0
C393 C 0.22784 0.99313 0.56493 0.0
C394 C 0.24131 0.97838 0.59428 0.0
C395 C 0.23587 0.96691 0.6532 0.0
C396 C 0.25216 0.95247 0.67856 0.0
C397 C 0.26776 0.95613 0.62424 0.0
C398 C 0.26155 0.97148 0.57479 0.0
C399 C 0.24001 0.92617 0.69379 0.0
C400 C 0.26342 0.96345 0.73426 0.0
H401 H 0.32923 0.95681 0.44357 0.0
H402 H 0.29064 0.01836 0.3428 0.0
H403 H 0.29271 0.02675 0.48873 0.0
H404 H 0.26491 0.02213 0.51237 0.0
H405 H 0.27231 0.03225 0.43294 0.0
H406 H 0.25252 0.97054 0.40247 0.0
H407 H 0.24805 1.00039 0.3899 0.0
H408 H 0.2365 0.97969 0.45597 0.0
H409 H 0.3477 0.91831 0.64473 0.0
H410 H 0.30762 0.90748 0.80925 0.0
H411 H 0.27972 0.92408 0.7513 0.0
H412 H 0.30843 0.90319 0.55163 0.0
H413 H 0.33418 0.91846 0.5162 0.0
H414 H 0.30832 0.92416 0.48591 0.0
H415 H 0.34348 0.96866 0.60475 0.0
H416 H 0.34072 0.974 0.52493 0.0
H417 H 0.35502 0.95143 0.55739 0.0
H418 H 0.34151 0.97774 0.34432 0.0
C419 C 0.32036 0.96985 0.42353 0.0
C420 C 0.47002 0.28297 0.18353 0.0
C421 C 0.45869 0.30088 0.15847 0.0
C422 C 0.43612 0.29789 0.17257 0.0
C423 C 0.43859 0.26511 0.24976 0.0
C424 C 0.45917 0.26464 0.22885 0.0
C425 C 0.4667 0.24285 0.26146 0.0
H426 H 0.45056 0.15614 0.51276 0.0
C427 C 0.43304 0.2478 0.30457 0.0
C428 C 0.44855 0.23326 0.31074 0.0
H429 H 0.4976 0.16311 0.36538 0.0
H430 H 0.4846 0.19757 0.3138 0.0
H431 H 0.45868 0.20228 0.53428 0.0
H432 H 0.4086 0.16611 0.43118 0.0
H433 H 0.39682 0.18414 0.47379 0.0
H434 H 0.4117 0.16311 0.5131 0.0
H435 H 0.4313 0.1955 0.56346 0.0
H436 H 0.44278 0.22412 0.51994 0.0
C437 C 0.48941 0.25064 0.28971 0.0
C438 C 0.46663 0.22548 0.21446 0.0
C439 C 0.40007 0.27683 0.47814 0.0
C440 C 0.39887 0.26822 0.54133 0.0
C441 C 0.39788 0.24379 0.55992 0.0
C442 C 0.40152 0.22921 0.51718 0.0
C443 C 0.40691 0.2394 0.45614 0.0
C444 C 0.4045 0.2623 0.43638 0.0
C445 C 0.41089 0.27024 0.36982 0.0
C446 C 0.41954 0.24881 0.35495 0.0
C447 C 0.41805 0.23145 0.40666 0.0
C448 C 0.4292 0.29311 0.3643 0.0
C449 C 0.39009 0.2742 0.33367 0.0
C450 C 0.45776 0.16453 0.46851 0.0
C451 C 0.47473 0.1564 0.44258 0.0
C452 C 0.48433 0.16883 0.38628 0.0
C453 C 0.47663 0.18865 0.35608 0.0
C454 C 0.45929 0.19618 0.38264 0.0
C455 C 0.45039 0.18415 0.4383 0.0
C456 C 0.4331 0.19497 0.4628 0.0
C457 C 0.43162 0.21446 0.41032 0.0
C458 C 0.44715 0.21546 0.36334 0.0
C459 C 0.44172 0.2047 0.5231 0.0
C460 C 0.41135 0.17612 0.47112 0.0
H461 H 0.4086 0.27719 0.22615 0.0
H462 H 0.48693 0.28392 0.17054 0.0
H463 H 0.45176 0.22459 0.18543 0.0
H464 H 0.46605 0.20711 0.23644 0.0
H465 H 0.48131 0.23134 0.18358 0.0
H466 H 0.48905 0.26481 0.31855 0.0
H467 H 0.50217 0.25775 0.25321 0.0
H468 H 0.49456 0.23586 0.3194 0.0
H469 H 0.40033 0.29536 0.46211 0.0
H470 H 0.39609 0.23644 0.60807 0.0
H471 H 0.4014 0.21096 0.5338 0.0
H472 H 0.44349 0.29005 0.39295 0.0
H473 H 0.4231 0.30809 0.37919 0.0
H474 H 0.4352 0.29925 0.31663 0.0
H475 H 0.37703 0.27711 0.36394 0.0
H476 H 0.38286 0.25864 0.31046 0.0
H477 H 0.39368 0.29042 0.29914 0.0
H478 H 0.42663 0.31031 0.1506 0.0
C479 C 0.4259 0.27962 0.21729 0.0
Nd480 Nd 0.01815 0.99397 0.78603 0.0
Nd481 Nd 0.02688 0.01187 0.90353 0.0
C482 C 0.00795 0.97867 0.67918 0.0
C483 C 0.00541 0.95497 0.65943 0.0
C484 C 1.00107 0.93427 0.70268 0.0
C485 C 0.99991 0.91191 0.68441 0.0
C486 C 0.00325 0.90974 0.62248 0.0
C487 C 0.00762 0.93057 0.57933 0.0
C488 C 0.00868 0.95294 0.59767 0.0
C489 C 0.05739 0.98586 0.83574 0.0
C490 C 0.00493 0.95595 0.90525 0.0
C491 C 0.03691 0.02797 0.00923 0.0
C492 C 0.03795 0.05173 0.02812 0.0
C493 C 0.05685 0.06308 0.0562 0.0
C494 C 0.05848 0.08607 0.0711 0.0
C495 C 0.04118 0.09821 0.05851 0.0
C496 C 0.02216 0.08669 0.03099 0.0
C497 C 0.0206 0.06381 0.01568 0.0
C498 C 0.98762 0.02004 0.85442 0.0
C499 C 0.04031 0.0499 0.78441 0.0
O500 O 0.99324 0.98123 0.71821 0.0
O501 O 0.02788 0.98848 0.69328 0.0
O502 O 0.04248 0.96995 0.81495 0.0
O503 O 0.0505 0.00486 0.83445 0.0
O504 O 1.00015 0.96154 0.84759 0.0
O505 O 0.01773 0.97134 0.93584 0.0
O506 O 0.05182 0.02653 0.96945 0.0
O507 O 0.01744 0.01598 0.99754 0.0
O508 O 0.00267 0.03587 0.87488 0.0
O509 O 0.99448 1.00103 0.85508 0.0
O510 O 0.04488 0.04433 0.84222 0.0
O511 O 0.02767 0.03447 0.75361 0.0
H512 H 0.99883 0.9354 0.75078 0.0
H513 H 0.99681 0.89636 0.71907 0.0
H514 H 0.01001 0.9296 0.5312 0.0
H515 H 0.01223 0.96868 0.56363 0.0
H516 H 0.07048 0.05425 0.06609 0.0
H517 H 0.07328 0.09428 0.09288 0.0
H518 H 0.00864 0.09558 0.01998 0.0
H519 H 0.00588 0.05572 0.99336 0.0
Nd520 Nd 0.53177 0.98677 0.80127 0.0
Nd521 Nd 0.50987 0.01765 0.87008 0.0
C522 C 0.55119 0.95617 0.75674 0.0
C523 C 0.57286 0.95809 0.7275 0.0
C524 C 0.59175 0.9729 0.74698 0.0
C525 C 0.6119 0.97588 0.71635 0.0
C526 C 0.61362 0.96431 0.66506 0.0
C527 C 0.5947 0.94913 0.64647 0.0
C528 C 0.57455 0.94606 0.67741 0.0
C529 C 0.52093 0.02513 0.72859 0.0
C530 C 0.56239 0.03464 0.83475 0.0
C531 C 0.49132 0.04899 0.91464 0.0
C532 C 0.47081 0.04759 0.94887 0.0
C533 C 0.46536 0.06824 0.96446 0.0
C534 C 0.44606 0.06688 0.99809 0.0
C535 C 0.43186 0.04478 0.0167 0.0
C536 C 0.43739 0.02415 1.00024 0.0
C537 C 0.45665 0.02555 0.96664 0.0
C538 C 0.52117 0.9795 0.94285 0.0
C539 C 0.47911 0.96973 0.83649 0.0
O540 O 0.55115 0.95853 0.81505 0.0
O541 O 0.53761 0.96739 0.725 0.0
O542 O 0.53892 0.01775 0.72196 0.0
O543 O 0.50896 0.0119 0.77103 0.0
O544 O 0.56218 0.01283 0.82443 0.0
O545 O 0.54415 0.0416 0.84656 0.0
O546 O 0.48904 0.04461 0.85794 0.0
O547 O 0.50603 0.03877 0.94412 0.0
O548 O 0.5031 0.98671 0.94979 0.0
O549 O 0.53292 0.99282 0.90016 0.0
O550 O 0.47939 0.99137 0.84833 0.0
O551 O 0.49729 0.96293 0.82317 0.0
H552 H 0.5909 0.9825 0.78535 0.0
H553 H 0.62612 0.98742 0.73268 0.0
H554 H 0.59525 0.94019 0.60673 0.0
H555 H 0.56015 0.93469 0.66133 0.0
H556 H 0.47607 0.08542 0.95088 0.0
H557 H 0.44224 0.08314 0.00929 0.0
H558 H 0.42711 0.00679 0.01453 0.0
H559 H 0.46063 0.00939 0.95508 0.0
Nd560 Nd 0.51201 0.51722 0.87184 0.0
Nd561 Nd 0.53087 0.49293 0.77101 0.0
C562 C 0.49109 0.54327 0.92682 0.0
C563 C 0.50097 0.56719 0.94224 0.0
C564 C 0.50306 0.58723 0.89678 0.0
C565 C 0.51848 0.60798 0.90275 0.0
C566 C 0.53193 0.60915 0.95446 0.0
C567 C 0.5281 0.59015 0.00284 0.0
C568 C 0.51269 0.56941 0.99694 0.0
C569 C 0.55661 0.5191 0.89007 0.0
C570 C 0.53919 0.54952 0.75223 0.0
C571 C 0.54548 0.4649 0.70568 0.0
C572 C 0.5312 0.44485 0.68119 0.0
C573 C 0.53615 0.42216 0.69055 0.0
C574 C 0.52019 0.40224 0.68024 0.0
C575 C 0.49896 0.40471 0.66112 0.0
C576 C 0.49447 0.42763 0.64955 0.0
C577 C 0.51038 0.4474 0.65918 0.0
C578 C 0.4889 0.50044 0.75197 0.0
C579 C 0.50776 0.46002 0.89939 0.0
O580 O 0.48912 0.54183 0.86794 0.0
O581 O 0.49867 0.52554 0.95709 0.0
O582 O 0.54453 0.52758 0.92501 0.0
O583 O 0.54485 0.51068 0.84868 0.0
O584 O 0.52186 0.54632 0.78884 0.0
O585 O 0.54912 0.53185 0.74637 0.0
O586 O 0.54659 0.4623 0.76559 0.0
O587 O 0.54287 0.48612 0.68218 0.0
O588 O 0.50297 0.50171 0.70832 0.0
O589 O 0.49658 0.49373 0.80311 0.0
O590 O 0.52009 0.46184 0.84963 0.0
O591 O 0.50065 0.47835 0.91514 0.0
H592 H 0.49412 0.58628 0.85429 0.0
H593 H 0.52092 0.62242 0.86492 0.0
H594 H 0.53779 0.59087 0.0441 0.0
H595 H 0.51124 0.55448 0.03329 0.0
H596 H 0.55197 0.41973 0.70843 0.0
H597 H 0.52435 0.38489 0.68862 0.0
H598 H 0.47829 0.43033 0.63594 0.0
H599 H 0.50586 0.46457 0.65256 0.0
Nd600 Nd 0.00928 0.52551 0.77974 0.0
Nd601 Nd 0.03118 0.48668 0.87668 0.0
C602 C 0.98404 0.5548 0.73578 0.0
C603 C 0.96378 0.54963 0.70065 0.0
C604 C 0.95039 0.56629 0.68748 0.0
C605 C 0.9303 0.56013 0.65788 0.0
C606 C 0.92331 0.53713 0.64192 0.0
C607 C 0.93704 0.52071 0.65462 0.0
C608 C 0.95704 0.52691 0.68359 0.0
C609 C 0.0209 0.48996 0.72284 0.0
C610 C 0.97912 0.4733 0.84025 0.0
C611 C 0.05513 0.45619 0.92279 0.0
C612 C 0.07321 0.45724 0.96704 0.0
C613 C 0.09185 0.44847 0.95484 0.0
C614 C 0.10994 0.45124 0.99378 0.0
C615 C 0.10961 0.46271 0.0458 0.0
C616 C 0.09078 0.47122 0.05818 0.0
C617 C 0.07282 0.46862 0.01907 0.0
C618 C 0.01926 0.52201 0.93354 0.0
C619 C 0.06136 0.53892 0.81381 0.0
O620 O 0.98243 0.54406 0.79262 0.0
O621 O 0.00216 0.55351 0.70764 0.0
O622 O 0.01229 0.50682 0.6936 0.0
O623 O 0.02283 0.49319 0.77804 0.0
O624 O 0.98021 0.49544 0.81354 0.0
O625 O 0.99635 0.46507 0.86334 0.0
O626 O 0.05987 0.47007 0.87031 0.0
O627 O 0.03553 0.45611 0.94458 0.0
O628 O 0.02722 0.50475 0.96332 0.0
O629 O 0.01784 0.51898 0.87819 0.0
O630 O 0.06033 0.51688 0.84173 0.0
O631 O 0.04406 0.54705 0.79095 0.0
H632 H 0.95529 0.58385 0.70082 0.0
H633 H 0.92004 0.57312 0.64871 0.0
H634 H 0.93238 0.50303 0.64188 0.0
H635 H 0.96717 0.51379 0.69349 0.0
H636 H 0.09256 0.43985 0.91458 0.0
H637 H 0.12417 0.44441 0.98324 0.0
H638 H 0.09015 0.48051 0.09725 0.0
H639 H 0.05883 0.47596 0.02892 0.0
H640 H 0.18541 0.02263 0.66175 0.0
H641 H 0.07601 0.94741 0.83684 0.0
H642 H 0.17393 0.94702 0.72094 0.0
H643 H 0.09174 0.02405 0.80798 0.0
H644 H 0.11262 0.94719 0.79833 0.0
H645 H 0.15147 0.02389 0.71557 0.0
C646 C 0.17574 0.00631 0.68589 0.0
C647 C 0.18257 0.9847 0.68684 0.0
C648 C 0.10823 0.96409 0.80118 0.0
C649 C 0.14382 0.98601 0.74887 0.0
C650 C 0.08737 0.9642 0.82356 0.0
C651 C 0.08082 0.98575 0.82551 0.0
C652 C 0.12259 0.98571 0.7797 0.0
C653 C 0.09615 0.00702 0.80744 0.0
C654 C 0.15648 0.00706 0.71706 0.0
C655 C 0.16949 0.96413 0.7195 0.0
N656 N 0.11622 0.00647 0.78444 0.0
N657 N 0.15076 0.96529 0.74884 0.0
H658 H 0.51715 0.14936 0.45973 0.0
H659 H 0.48047 0.03693 0.71899 0.0
H660 H 0.4495 0.11556 0.50338 0.0
H661 H 0.54591 0.05664 0.64007 0.0
H662 H 0.46947 0.0678 0.64476 0.0
H663 H 0.52874 0.11692 0.52751 0.0
C664 C 0.50473 0.135 0.48276 0.0
C665 C 0.48231 0.13543 0.47635 0.0
C666 C 0.48623 0.06535 0.64354 0.0
C667 C 0.49545 0.09856 0.555 0.0
C668 C 0.49253 0.04781 0.68612 0.0
C669 C 0.5141 0.04419 0.68551 0.0
C670 C 0.50168 0.0796 0.60044 0.0
C671 C 0.52907 0.0588 0.64191 0.0
C672 C 0.51136 0.11658 0.52184 0.0
C673 C 0.46698 0.11635 0.5079 0.0
N674 N 0.52262 0.07592 0.60126 0.0
N675 N 0.47382 0.09892 0.54617 0.0
H676 H 0.35793 0.49743 0.61219 0.0
H677 H 0.45889 0.50722 0.83449 0.0
H678 H 0.37195 0.55492 0.72177 0.0
H679 H 0.46696 0.49939 0.64465 0.0
H680 H 0.42178 0.51449 0.81151 0.0
H681 H 0.39339 0.48778 0.64103 0.0
C682 C 0.36829 0.50813 0.64204 0.0
C683 C 0.36171 0.52729 0.66381 0.0
C684 C 0.43176 0.51107 0.77522 0.0
C685 C 0.40189 0.51531 0.69928 0.0
C686 C 0.45285 0.50699 0.78818 0.0
C687 C 0.46608 0.50319 0.74109 0.0
C688 C 0.42373 0.5104 0.71543 0.0
C689 C 0.45735 0.50256 0.68205 0.0
C690 C 0.38845 0.50237 0.65891 0.0
C691 C 0.37585 0.53976 0.70436 0.0
N692 N 0.43663 0.50598 0.67092 0.0
N693 N 0.3952 0.53348 0.72098 0.0
H694 H 0.09322 0.3935 0.60056 0.0
H695 H 0.00399 0.47216 0.62008 0.0
H696 H 0.02866 0.37301 0.52557 0.0
H697 H 0.05205 0.4641 0.75991 0.0
H698 H 0.01517 0.44089 0.57096 0.0
H699 H 0.08114 0.42517 0.64337 0.0
C700 C 0.07646 0.39563 0.59295 0.0
C701 C 0.06178 0.38004 0.56056 0.0
C702 C 0.02316 0.44591 0.61259 0.0
C703 C 0.04802 0.41694 0.60868 0.0
C704 C 0.01685 0.46374 0.64056 0.0
C705 C 0.02703 0.47054 0.69453 0.0
C706 C 0.04017 0.43531 0.6379 0.0
C707 C 0.04359 0.45914 0.71907 0.0
C708 C 0.06962 0.41379 0.61746 0.0
C709 C 0.04054 0.38446 0.55035 0.0
N710 N 0.04981 0.44226 0.69028 0.0
N711 N 0.03424 0.40247 0.57456 0.0
H712 H 0.87592 0.03292 0.05764 0.0
H713 H 0.95106 0.98613 0.83496 0.0
H714 H 0.84651 0.99544 0.91149 0.0
H715 H 0.971 0.05311 0.90438 0.0
H716 H 0.9134 0.9834 0.87303 0.0
H717 H 0.91243 0.03327 0.01631 0.0
C718 C 0.87719 0.02431 0.01765 0.0
C719 C 0.85826 0.01411 0.98792 0.0
C720 C 0.92607 0.99874 0.87922 0.0
C721 C 0.8998 0.0146 0.94024 0.0
C722 C 0.94746 1.00039 0.85725 0.0
C723 C 0.96421 0.01985 0.86651 0.0
C724 C 0.92165 0.01637 0.9119 0.0
C725 C 0.95867 0.03776 0.89615 0.0
C726 C 0.89796 0.02476 0.99369 0.0
C727 C 0.86078 1.0035 0.9356 0.0
N728 N 0.93799 0.03541 0.91856 0.0
N729 N 0.88121 0.00396 0.91337 0.0
H730 H 0.5995 0.89351 0.16235 0.0
H731 H 0.49703 0.94809 0.03333 0.0
H732 H 0.53246 0.85854 0.20966 0.0
H733 H 0.56218 0.96911 0.95277 0.0
H734 H 0.50978 0.91839 0.10779 0.0
H735 H 0.58625 0.92513 0.09746 0.0
C736 C 0.58195 0.89261 0.15961 0.0
C737 C 0.56706 0.87313 0.19096 0.0
C738 C 0.52127 0.92951 0.07385 0.0
C739 C 0.55173 0.90945 0.11627 0.0
C740 C 0.51402 0.94645 0.03134 0.0
C741 C 0.52859 0.96108 0.9868 0.0
C742 C 0.54332 0.92737 0.0723 0.0
C743 C 0.5504 0.95818 0.98623 0.0
C744 C 0.5744 0.91065 0.1223 0.0
C745 C 0.54452 0.8732 0.18647 0.0
N746 N 0.55711 0.94174 0.02845 0.0
N747 N 0.53752 0.89098 0.14934 0.0
H748 H 0.67178 0.45978 0.96484 0.0
H749 H 0.58448 0.54192 0.96849 0.0
H750 H 0.68372 0.52418 0.04804 0.0
H751 H 0.58024 0.49065 0.84271 0.0
H752 H 0.62088 0.53526 0.99852 0.0
H753 H 0.63839 0.47031 0.91924 0.0
C754 C 0.66757 0.47625 0.97302 0.0
C755 C 0.68053 0.49096 0.01107 0.0
C756 C 0.61214 0.5256 0.96389 0.0
C757 C 0.64211 0.50289 0.9597 0.0
C758 C 0.59136 0.52939 0.94681 0.0
C759 C 0.5794 0.51675 0.90329 0.0
C760 C 0.62092 0.50874 0.93798 0.0
C761 C 0.58902 0.50075 0.87646 0.0
C762 C 0.64844 0.48219 0.94711 0.0
C763 C 0.67402 0.51196 0.02039 0.0
N764 N 0.60916 0.49697 0.89479 0.0
N765 N 0.65522 0.51716 0.9954 0.0
H766 H 0.98021 0.6512 0.998 0.0
H767 H 0.0173 0.52595 0.05502 0.0
H768 H 0.98841 0.61464 0.17871 0.0
H769 H 0.0087 0.56316 0.87556 0.0
H770 H 0.00829 0.55874 0.10138 0.0
H771 H 0.99251 0.62009 0.9529 0.0
C772 C 0.98473 0.63663 0.02827 0.0
C773 C 0.98305 0.63542 0.09232 0.0
C774 C 0.00831 0.55975 0.05187 0.0
C775 C 0.99717 0.5995 0.04068 0.0
C776 C 0.01341 0.54101 0.02535 0.0
C777 C 0.01341 0.5417 0.96132 0.0
C778 C 0.00325 0.57944 0.0141 0.0
C779 C 0.00843 0.5617 0.92509 0.0
C780 C 0.99176 0.61885 0.00241 0.0
C781 C 0.98949 0.61633 0.12917 0.0
N782 N 0.00352 0.57974 0.95196 0.0
N783 N 0.99608 0.599 0.10282 0.0
H784 H 0.08547 0.20029 0.6876 0.0
H785 H 0.06211 0.0631 0.67392 0.0
H786 H 0.13385 0.16856 0.60981 0.0
H787 H 0.04227 0.09069 0.83121 0.0
H788 H 0.08419 0.10288 0.63635 0.0
H789 H 0.06641 0.16108 0.73285 0.0
C790 C 0.09257 0.18533 0.68102 0.0
C791 C 0.11136 0.18809 0.64357 0.0
C792 C 0.07486 0.10013 0.67887 0.0
C793 C 0.08853 0.14277 0.69314 0.0
C794 C 0.06204 0.07768 0.69961 0.0
C795 C 0.05031 0.07391 0.75516 0.0
C796 C 0.07542 0.11879 0.71353 0.0
C797 C 0.05105 0.09308 0.78786 0.0
C798 C 0.08134 0.16281 0.70633 0.0
C799 C 0.1191 0.1675 0.63637 0.0
N800 N 0.06331 0.11478 0.76636 0.0
N801 N 0.10739 0.14565 0.65979 0.0
H802 H 0.36148 0.88715 0.70661 0.0
H803 H 0.46862 0.92698 0.79115 0.0
H804 H 0.34353 0.92824 0.839 0.0
H805 H 0.44055 0.97434 0.88525 0.0
H806 H 0.43186 0.90265 0.78322 0.0
H807 H 0.39868 0.8935 0.74553 0.0
C808 C 0.36522 0.89691 0.74523 0.0
C809 C 0.34949 0.90775 0.7683 0.0
C810 C 0.43363 0.91834 0.80551 0.0
C811 C 0.39223 0.91514 0.81378 0.0
C812 C 0.45473 0.93218 0.81039 0.0
C813 C 0.45759 0.9531 0.83724 0.0
C814 C 0.41533 0.92565 0.82749 0.0
C815 C 0.4391 0.95874 0.86256 0.0
C816 C 0.3866 0.90054 0.76774 0.0
C817 C 0.35508 0.9197 0.81923 0.0
N818 N 0.41882 0.94526 0.85644 0.0
N819 N 0.37609 0.92353 0.83922 0.0
H820 H 0.38579 0.31067 0.54289 0.0
H821 H 0.49112 0.36091 0.73319 0.0
H822 H 0.42657 0.26603 0.63861 0.0
H823 H 0.46571 0.40047 0.5773 0.0
H824 H 0.46122 0.32682 0.72344 0.0
H825 H 0.40746 0.3446 0.58582 0.0
C826 C 0.39882 0.30781 0.57442 0.0
C827 C 0.40482 0.28561 0.58537 0.0
C828 C 0.46215 0.34313 0.69198 0.0
C829 C 0.42957 0.32425 0.63444 0.0
C830 C 0.47937 0.36248 0.69685 0.0
C831 C 0.48113 0.38365 0.6557 0.0
C832 C 0.44644 0.34505 0.6462 0.0
C833 C 0.46498 0.38474 0.61064 0.0
C834 C 0.41124 0.32721 0.59857 0.0
C835 C 0.42145 0.28282 0.6281 0.0
N836 N 0.44838 0.36573 0.60708 0.0
N837 N 0.4336 0.30207 0.65 0.0
H838 H 0.18068 0.63078 0.65098 0.0
H839 H 0.07344 0.5818 0.73942 0.0
H840 H 0.19497 0.568 0.75923 0.0
H841 H 0.09959 0.53213 0.86931 0.0
H842 H 0.11058 0.60419 0.7154 0.0
H843 H 0.14504 0.62311 0.70294 0.0
C844 C 0.17644 0.61559 0.68649 0.0
C845 C 0.1906 0.59966 0.69955 0.0
C846 C 0.10837 0.58881 0.75033 0.0
C847 C 0.14939 0.5901 0.75767 0.0
C848 C 0.08699 0.57587 0.76382 0.0
C849 C 0.08338 0.55475 0.80543 0.0
C850 C 0.12629 0.58057 0.77889 0.0
C851 C 0.10157 0.54802 0.83587 0.0
C852 C 0.15589 0.61099 0.71573 0.0
C853 C 0.18456 0.58068 0.74715 0.0
N854 N 0.12219 0.56068 0.82135 0.0
N855 N 0.16425 0.57617 0.7735 0.0
H856 H 0.90629 0.83874 0.07079 0.0
H857 H 0.00636 0.91492 0.86349 0.0
H858 H 0.9564 0.80712 1.00151 0.0
H859 H 0.97953 0.94309 0.00951 0.0
H860 H 0.98393 0.8756 0.89983 0.0
H861 H 0.9282 0.87804 0.03202 0.0
C862 C 0.92167 0.83986 0.04706 0.0
C863 C 0.92948 0.81927 0.04053 0.0
C864 C 0.98315 0.89031 0.92438 0.0
C865 C 0.9543 0.86425 0.99516 0.0
C866 C 0.99603 0.91261 0.90406 0.0
C867 C 0.99499 0.93195 0.9345 0.0
C868 C 0.96867 0.88756 0.97438 0.0
C869 C 0.98106 0.92835 0.98592 0.0
C870 C 0.93414 0.86234 0.0251 0.0
C871 C 0.9493 0.82214 0.00741 0.0
N872 N 0.96817 0.90653 0.004 0.0
N873 N 0.96101 0.84416 0.98624 0.0
H874 H 0.67985 0.11948 0.96592 0.0
H875 H 0.57318 0.07517 0.88915 0.0
H876 H 0.69483 0.06327 0.87574 0.0
H877 H 0.60053 0.03162 0.78072 0.0
H878 H 0.61009 0.09769 0.90362 0.0
H879 H 0.64451 0.11508 0.91489 0.0
C880 C 0.67585 0.10647 0.93458 0.0
C881 C 0.69008 0.09121 0.92679 0.0
C882 C 0.60818 0.08367 0.87535 0.0
C883 C 0.64932 0.08552 0.86929 0.0
C884 C 0.58696 0.07071 0.86728 0.0
C885 C 0.58388 0.05113 0.83513 0.0
C886 C 0.62636 0.07694 0.85073 0.0
C887 C 0.60222 0.0462 0.80732 0.0
C888 C 0.65549 0.10379 0.90572 0.0
C889 C 0.6844 0.07531 0.88394 0.0
N890 N 0.62264 0.05879 0.81649 0.0
N891 N 0.66432 0.07257 0.85791 0.0
H892 H 0.60962 0.74594 0.98252 0.0
H893 H 0.57367 0.60683 0.99056 0.0
H894 H 0.64975 0.69658 0.05638 0.0
H895 H 0.53388 0.65684 0.9195 0.0
H896 H 0.6048 0.63984 0.99606 0.0
H897 H 0.58641 0.71464 0.93519 0.0
C898 C 0.61414 0.72877 0.98704 0.0
C899 C 0.63138 0.72377 0.02526 0.0
C900 C 0.58933 0.64362 0.97874 0.0
C901 C 0.60412 0.68748 0.9729 0.0
C902 C 0.57147 0.6248 0.97633 0.0
C903 C 0.55101 0.62915 0.95594 0.0
C904 C 0.58672 0.66703 0.96097 0.0
C905 C 0.54931 0.65271 0.93601 0.0
C906 C 0.60057 0.71073 0.9606 0.0
C907 C 0.6362 0.70106 0.02905 0.0
N908 N 0.56686 0.67079 0.93977 0.0
N909 N 0.62228 0.68356 0.00466 0.0
H910 H 0.85927 0.39142 0.00764 0.0
H911 H 0.94413 0.47705 0.76688 0.0
H912 H 0.84242 0.44247 0.86237 0.0
H913 H 0.96363 0.43414 0.926 0.0
H914 H 0.90616 0.45622 0.7859 0.0
H915 H 0.89625 0.39851 0.96288 0.0
C916 C 0.86316 0.40374 0.96563 0.0
C917 C 0.84781 0.41681 0.93967 0.0
C918 C 0.91872 0.45107 0.8163 0.0
C919 C 0.89006 0.4249 0.88819 0.0
C920 C 0.94045 0.46301 0.80555 0.0
C921 C 0.957 0.45768 0.84581 0.0
C922 C 0.91336 0.43382 0.86819 0.0
C923 C 0.95132 0.43896 0.89425 0.0
C924 C 0.88428 0.40776 0.94013 0.0
C925 C 0.85362 0.43203 0.88433 0.0
N926 N 0.92986 0.42798 0.90483 0.0
N927 N 0.87438 0.43596 0.86113 0.0
H928 H 0.02423 0.22069 0.22244 0.0
H929 H 0.07687 0.13541 0.04168 0.0
H930 H 0.08883 0.2401 0.13866 0.0
H931 H 0.0098 0.1174 0.10889 0.0
H932 H 0.08021 0.17519 0.06958 0.0
H933 H 0.01667 0.18502 0.17111 0.0
C934 C 0.0365 0.21792 0.19137 0.0
C935 C 0.05717 0.23339 0.1847 0.0
C936 C 0.06469 0.16264 0.07792 0.0
C937 C 0.049 0.19221 0.12764 0.0
C938 C 0.06283 0.13979 0.06244 0.0
C939 C 0.04309 0.12286 0.07345 0.0
C940 C 0.04674 0.16873 0.10526 0.0
C941 C 0.02532 0.12984 0.09934 0.0
C942 C 0.03232 0.19736 0.16277 0.0
C943 C 0.07267 0.22863 0.14498 0.0
N944 N 0.02763 0.15212 0.11488 0.0
N945 N 0.0684 0.20835 0.11879 0.0
H946 H 0.31268 0.98526 0.22426 0.0
H947 H 0.42674 0.06985 0.11079 0.0
H948 H 0.34561 0.0426 0.31794 0.0
H949 H 0.39111 0.01566 0.01032 0.0
H950 H 0.39479 0.06413 0.17869 0.0
H951 H 0.33802 1.00037 0.13674 0.0
C952 C 0.32475 1.00161 0.22517 0.0
C953 C 0.32694 0.01294 0.2777 0.0
C954 C 0.39385 0.05367 0.14138 0.0
C955 C 0.35669 0.02973 0.17934 0.0
C956 C 0.41211 0.05699 0.10231 0.0
C957 C 0.4118 0.04302 0.05499 0.0
C958 C 0.37511 0.03614 0.13347 0.0
C959 C 0.39236 0.02646 0.04695 0.0
C960 C 0.33941 0.01008 0.17563 0.0
C961 C 0.34322 0.03364 0.27767 0.0
N962 N 0.37493 0.02334 0.08607 0.0
N963 N 0.35772 0.04117 0.22967 0.0
H964 H 0.48467 0.30925 0.05274 0.0
H965 H 0.48554 0.44917 0.0099 0.0
H966 H 0.45763 0.34485 0.18288 0.0
H967 H 0.51645 0.41708 0.87904 0.0
H968 H 0.47616 0.41069 0.07426 0.0
H969 H 0.49818 0.34819 0.98963 0.0
C970 C 0.48188 0.32525 0.06837 0.0
C971 C 0.46984 0.32384 0.12269 0.0
C972 C 0.48504 0.41199 0.03153 0.0
C973 C 0.48492 0.36818 0.05104 0.0
C974 C 0.49035 0.43405 0.99453 0.0
C975 C 0.50177 0.4365 0.93872 0.0
C976 C 0.49107 0.392 0.01281 0.0
C977 C 0.50761 0.41611 0.92166 0.0
C978 C 0.48943 0.34742 0.03228 0.0
C979 C 0.46658 0.3451 0.14085 0.0
N980 N 0.50215 0.39473 0.95842 0.0
N981 N 0.47391 0.36623 0.1051 0.0
H982 H 0.18941 0.49298 0.35746 0.0
H983 H 0.15336 0.47749 0.01312 0.0
H984 H 0.23492 0.51447 0.20415 0.0
H985 H 0.10983 0.45668 0.17119 0.0
H986 H 0.18443 0.48712 0.08161 0.0
H987 H 0.16125 0.47544 0.28986 0.0
C988 C 0.19347 0.49377 0.30938 0.0
C989 C 0.21437 0.50535 0.28604 0.0
C990 C 0.1681 0.48024 0.10126 0.0
C991 C 0.1821 0.48556 0.20781 0.0
C992 C 0.15038 0.47464 0.06225 0.0
C993 C 0.12893 0.4665 0.08648 0.0
C994 C 0.16431 0.47762 0.16489 0.0
C995 C 0.12601 0.46331 0.15041 0.0
C996 C 0.1774 0.48378 0.27072 0.0
C997 C 0.21894 0.5057 0.22367 0.0
N998 N 0.14344 0.469 0.18722 0.0
N999 N 0.20279 0.4962 0.18635 0.0
H1000 H 0.0188 0.79368 0.42841 0.0
H1001 H 0.9741 0.8679 0.66173 0.0
H1002 H 0.95803 0.76929 0.53153 0.0
H1003 H 0.02957 0.89696 0.53883 0.0
H1004 H 0.97155 0.82932 0.62699 0.0
H1005 H 0.02693 0.82869 0.48231 0.0
C1006 C 0.00756 0.79529 0.46397 0.0
C1007 C 0.98777 0.77853 0.47579 0.0
C1008 C 0.98437 0.84409 0.60783 0.0
C1009 C 0.99659 0.8188 0.53636 0.0
C1010 C 0.9859 0.86616 0.62787 0.0
C1011 C 0.002 0.88587 0.60298 0.0
C1012 C 0.99907 0.84152 0.56257 0.0
C1013 C 0.01665 0.88244 0.55863 0.0
C1014 C 0.01203 0.81544 0.49408 0.0
C1015 C 0.97351 0.78176 0.52128 0.0
N1016 N 0.0148 0.86077 0.53975 0.0
N1017 N 0.97808 0.80158 0.54941 0.0
H1018 H 0.71651 0.95931 0.40722 0.0
H1019 H 0.64355 0.00652 0.6391 0.0
H1020 H 0.72647 0.03206 0.44069 0.0
H1021 H 0.63188 0.9332 0.60839 0.0
H1022 H 0.6768 0.01477 0.57613 0.0
H1023 H 0.68881 0.94793 0.49059 0.0
C1024 C 0.7133 0.97275 0.43327 0.0
C1025 C 0.72369 0.99667 0.41696 0.0
C1026 C 0.6671 0.9968 0.58344 0.0
C1027 C 0.6918 0.98395 0.51124 0.0
C1028 C 0.64809 0.99201 0.6199 0.0
C1029 C 0.6347 0.96909 0.62924 0.0
C1030 C 0.67288 0.97864 0.55538 0.0
C1031 C 0.64141 0.95123 0.60178 0.0
C1032 C 0.69734 0.96632 0.48038 0.0
C1033 C 0.71871 0.01345 0.45156 0.0
N1034 N 0.65992 0.95641 0.56583 0.0
N1035 N 0.70301 0.00682 0.49651 0.0
H1036 H 0.61788 0.68247 0.57646 0.0
H1037 H 0.51583 0.58437 0.72259 0.0
H1038 H 0.55172 0.68321 0.51575 0.0
H1039 H 0.58026 0.56954 0.70186 0.0
H1040 H 0.52873 0.62416 0.6655 0.0
H1041 H 0.60415 0.6452 0.64363 0.0
C1042 C 0.6004 0.67497 0.57773 0.0
C1043 C 0.58601 0.68582 0.53916 0.0
C1044 C 0.54001 0.61218 0.67352 0.0
C1045 C 0.57018 0.64316 0.617 0.0
C1046 C 0.53272 0.58947 0.70614 0.0
C1047 C 0.54698 0.57349 0.71676 0.0
C1048 C 0.56188 0.61925 0.65248 0.0
C1049 C 0.56867 0.58116 0.6943 0.0
C1050 C 0.59262 0.65364 0.61602 0.0
C1051 C 0.56344 0.67553 0.54443 0.0
N1052 N 0.57549 0.60354 0.6636 0.0
N1053 N 0.55623 0.65466 0.58224 0.0
H1054 H 0.82325 0.5211 0.36669 0.0
H1055 H 0.89305 0.49545 0.66713 0.0
H1056 H 0.82205 0.45148 0.46669 0.0
H1057 H 0.90499 0.56247 0.54734 0.0
H1058 H 0.86079 0.48152 0.60749 0.0
H1059 H 0.84662 0.53873 0.44608 0.0
C1060 C 0.82743 0.5096 0.40624 0.0
C1061 C 0.82093 0.48482 0.41007 0.0
C1062 C 0.87031 0.49937 0.59456 0.0
C1063 C 0.84775 0.50473 0.50028 0.0
C1064 C 0.88879 0.5073 0.62845 0.0
C1065 C 0.90199 0.52999 0.61139 0.0
C1066 C 0.86495 0.51417 0.543 0.0
C1067 C 0.89533 0.54482 0.5619 0.0
C1068 C 0.8409 0.51963 0.45119 0.0
C1069 C 0.82694 0.47066 0.46182 0.0
N1070 N 0.87742 0.53653 0.52887 0.0
N1071 N 0.84018 0.4808 0.50458 0.0
loop_
_geom_bond_atom_site_label_1
_geom_bond_atom_site_label_2
_geom_bond_distance
_geom_bond_site_symmetry_2
_ccdc_geom_bond_type
C0 C1 1.391 . S
C0 C4 1.391 . S
C0 H42 0.948 . S
C1 C0 1.391 . S
C1 C2 1.391 . S
C2 C1 1.391 . S
C2 H58 0.947 . S
C2 C59 1.392 . S
C3 C4 1.391 . S
C3 C7 1.397 . S
C3 C59 1.419 . S
C4 C0 1.391 . S
C4 C3 1.391 . S
C4 C5 1.399 . S
C5 C4 1.399 . S
C5 C8 1.396 . S
C5 C17 1.453 . S
C5 C18 1.684 . S
H6 C30 0.948 . S
C7 C3 1.397 . S
C7 C8 1.394 . S
C7 C26 1.723 . S
C8 C5 1.396 . S
C8 C7 1.394 . S
C8 C38 1.723 . S
H9 C32 0.947 . S
H10 C33 0.948 . S
H11 C39 0.982 . S
H12 C40 0.979 . S
H13 C40 0.980 . S
H14 C40 0.983 . S
H15 C39 0.979 . S
H16 C39 0.977 . S
C17 C5 1.453 . S
C17 H46 0.982 . S
C17 H47 0.979 . S
C17 H48 0.977 . S
C18 C5 1.684 . S
C18 H43 0.979 . S
C18 H44 0.980 . S
C18 H45 0.983 . S
C19 C20 1.391 . S
C19 C24 1.391 . S
C19 H49 0.948 . S
C20 C19 1.391 . S
C20 C21 1.391 . S
C21 C20 1.391 . S
C21 C22 1.392 . S
C21 H50 0.947 . S
C22 C21 1.392 . S
C22 C23 1.419 . S
C22 H51 0.948 . S
C23 C22 1.419 . S
C23 C24 1.391 . S
C23 C27 1.397 1_556 S
C24 C19 1.391 . S
C24 C23 1.391 . S
C24 C25 1.399 1_556 S
C25 C24 1.399 1_554 S
C25 C26 1.396 . S
C25 C28 1.453 . S
C25 C29 1.684 . S
C26 C7 1.723 . S
C26 C25 1.396 . S
C26 C27 1.394 . S
C27 C23 1.397 1_554 S
C27 C26 1.394 . S
C27 C37 1.723 . S
C28 C25 1.453 . S
C28 H52 0.982 . S
C28 H53 0.979 . S
C28 H54 0.977 . S
C29 C25 1.684 . S
C29 H55 0.979 . S
C29 H56 0.980 . S
C29 H57 0.983 . S
C30 H6 0.948 . S
C30 C31 1.391 1_556 S
C30 C35 1.391 . S
C31 C30 1.391 1_554 S
C31 C32 1.391 . S
C32 H9 0.947 . S
C32 C31 1.391 . S
C32 C33 1.392 . S
C33 H10 0.948 . S
C33 C32 1.392 . S
C33 C34 1.419 . S
C34 C33 1.419 . S
C34 C35 1.391 1_554 S
C34 C38 1.397 . S
C35 C30 1.391 . S
C35 C34 1.391 1_556 S
C35 C36 1.399 . S
C36 C35 1.399 . S
C36 C37 1.396 1_556 S
C36 C39 1.453 . S
C36 C40 1.684 . S
C37 C27 1.723 . S
C37 C36 1.396 1_554 S
C37 C38 1.394 . S
C38 C8 1.723 . S
C38 C34 1.397 . S
C38 C37 1.394 . S
C39 H11 0.982 . S
C39 H15 0.979 . S
C39 H16 0.977 . S
C39 C36 1.453 . S
C40 H12 0.979 . S
C40 H13 0.980 . S
C40 H14 0.983 . S
C40 C36 1.684 . S
H41 C59 0.948 . S
H42 C0 0.948 . S
H43 C18 0.979 . S
H44 C18 0.980 . S
H45 C18 0.983 . S
H46 C17 0.982 . S
H47 C17 0.979 . S
H48 C17 0.977 . S
H49 C19 0.948 . S
H50 C21 0.947 . S
H51 C22 0.948 . S
H52 C28 0.982 . S
H53 C28 0.979 . S
H54 C28 0.977 . S
H55 C29 0.979 . S
H56 C29 0.980 . S
H57 C29 0.983 . S
H58 C2 0.947 . S
C59 C2 1.392 . S
C59 C3 1.419 . S
C59 H41 0.948 . S
C60 C61 1.391 . S
C60 C64 1.391 . S
C60 H102 0.948 . S
C61 C60 1.391 . S
C61 C62 1.391 . S
C62 C61 1.391 . S
C62 H118 0.947 . S
C62 C119 1.392 . S
C63 C64 1.391 . S
C63 C67 1.397 1_556 S
C63 C119 1.419 . S
C64 C60 1.391 . S
C64 C63 1.391 . S
C64 C65 1.399 . S
C65 C64 1.399 . S
C65 C68 1.398 1_556 S
C65 C77 1.453 . S
C65 C78 1.684 . S
H66 C90 0.948 . S
C67 C63 1.397 1_554 S
C67 C68 1.393 . S
C67 C86 1.723 . S
C68 C65 1.398 1_554 S
C68 C67 1.393 . S
C68 C98 1.722 . S
H69 C92 0.947 . S
H70 C93 0.948 . S
H71 C99 0.982 . S
H72 C100 0.979 . S
H73 C100 0.980 . S
H74 C100 0.983 . S
H75 C99 0.979 . S
H76 C99 0.977 . S
C77 C65 1.453 . S
C77 H106 0.982 . S
C77 H107 0.979 . S
C77 H108 0.977 . S
C78 C65 1.684 . S
C78 H103 0.979 . S
C78 H104 0.980 . S
C78 H105 0.983 . S
C79 C80 1.391 . S
C79 C84 1.391 . S
C79 H109 0.948 . S
C80 C79 1.391 . S
C80 C81 1.391 . S
C81 C80 1.391 . S
C81 C82 1.392 . S
C81 H110 0.947 . S
C82 C81 1.392 . S
C82 C83 1.419 . S
C82 H111 0.948 . S
C83 C82 1.419 . S
C83 C84 1.391 . S
C83 C87 1.397 . S
C84 C79 1.391 . S
C84 C83 1.391 . S
C84 C85 1.399 . S
C85 C84 1.399 . S
C85 C86 1.396 . S
C85 C88 1.453 . S
C85 C89 1.684 . S
C86 C67 1.723 . S
C86 C85 1.396 . S
C86 C87 1.394 . S
C87 C83 1.397 . S
C87 C86 1.394 . S
C87 C97 1.723 . S
C88 C85 1.453 . S
C88 H112 0.982 . S
C88 H113 0.979 . S
C88 H114 0.977 . S
C89 C85 1.684 . S
C89 H115 0.979 . S
C89 H116 0.980 . S
C89 H117 0.983 . S
C90 H66 0.948 . S
C90 C91 1.391 . S
C90 C95 1.391 . S
C91 C90 1.391 . S
C91 C92 1.391 1_554 S
C92 H69 0.947 . S
C92 C91 1.391 1_556 S
C92 C93 1.392 . S
C93 H70 0.948 . S
C93 C92 1.392 . S
C93 C94 1.419 1_556 S
C94 C93 1.419 1_554 S
C94 C95 1.391 . S
C94 C98 1.397 . S
C95 C90 1.391 . S
C95 C94 1.391 . S
C95 C96 1.399 . S
C96 C95 1.399 . S
C96 C97 1.396 . S
C96 C99 1.453 . S
C96 C100 1.684 . S
C97 C87 1.723 . S
C97 C96 1.396 . S
C97 C98 1.394 . S
C98 C68 1.722 . S
C98 C94 1.397 . S
C98 C97 1.394 . S
C99 H71 0.982 . S
C99 H75 0.979 . S
C99 H76 0.977 . S
C99 C96 1.453 . S
C100 H72 0.979 . S
C100 H73 0.980 . S
C100 H74 0.983 . S
C100 C96 1.684 . S
H101 C119 0.948 1_554 S
H102 C60 0.948 . S
H103 C78 0.979 . S
H104 C78 0.980 . S
H105 C78 0.983 . S
H106 C77 0.982 . S
H107 C77 0.979 . S
H108 C77 0.977 . S
H109 C79 0.948 . S
H110 C81 0.947 . S
H111 C82 0.948 . S
H112 C88 0.982 . S
H113 C88 0.979 . S
H114 C88 0.977 . S
H115 C89 0.979 . S
H116 C89 0.980 . S
H117 C89 0.983 . S
H118 C62 0.947 . S
C119 C62 1.392 . S
C119 C63 1.419 . S
C119 H101 0.948 1_556 S
C120 C121 1.391 . S
C120 C124 1.391 1_556 S
C120 H162 0.948 1_556 S
C121 C120 1.391 . S
C121 C122 1.391 . S
C122 C121 1.391 . S
C122 H178 0.947 . S
C122 C179 1.392 . S
C123 C124 1.391 1_556 S
C123 C127 1.398 1_565 S
C123 C179 1.419 . S
C124 C120 1.391 1_554 S
C124 C123 1.391 1_554 S
C124 C125 1.399 . S
C125 C124 1.399 . S
C125 C128 1.396 1_565 S
C125 C137 1.453 1_565 S
C125 C138 1.684 . S
H126 C150 0.948 . S
C127 C123 1.398 1_545 S
C127 C128 1.394 1_556 S
C127 C146 1.723 . S
C128 C125 1.396 1_545 S
C128 C127 1.394 1_554 S
C128 C158 1.723 . S
H129 C152 0.947 . S
H130 C153 0.948 . S
H131 C159 0.982 . S
H132 C160 0.979 . S
H133 C160 0.980 . S
H134 C160 0.983 . S
H135 C159 0.979 . S
H136 C159 0.977 . S
C137 C125 1.453 1_545 S
C137 H166 0.982 . S
C137 H167 0.979 . S
C137 H168 0.977 . S
C138 C125 1.684 . S
C138 H163 0.979 . S
C138 H164 0.980 . S
C138 H165 0.983 . S
C139 C140 1.391 . S
C139 C144 1.391 . S
C139 H169 0.948 . S
C140 C139 1.391 . S
C140 C141 1.391 . S
C141 C140 1.391 . S
C141 C142 1.392 . S
C141 H170 0.947 . S
C142 C141 1.392 . S
C142 C143 1.419 . S
C142 H171 0.948 . S
C143 C142 1.419 . S
C143 C144 1.391 . S
C143 C147 1.397 1_565 S
C144 C139 1.391 . S
C144 C143 1.391 . S
C144 C145 1.399 . S
C145 C144 1.399 . S
C145 C146 1.396 1_565 S
C145 C148 1.453 1_565 S
C145 C149 1.684 . S
C146 C127 1.723 . S
C146 C145 1.396 1_545 S
C146 C147 1.395 . S
C147 C143 1.397 1_545 S
C147 C146 1.395 . S
C147 C157 1.722 1_556 S
C148 C145 1.453 1_545 S
C148 H172 0.982 . S
C148 H173 0.979 . S
C148 H174 0.977 . S
C149 C145 1.684 . S
C149 H175 0.979 . S
C149 H176 0.980 . S
C149 H177 0.983 . S
C150 H126 0.948 . S
C150 C151 1.391 . S
C150 C155 1.391 . S
C151 C150 1.391 . S
C151 C152 1.391 . S
C152 H129 0.947 . S
C152 C151 1.391 . S
C152 C153 1.392 . S
C153 H130 0.948 . S
C153 C152 1.392 . S
C153 C154 1.419 . S
C154 C153 1.419 . S
C154 C155 1.391 . S
C154 C158 1.396 1_565 S
C155 C150 1.391 . S
C155 C154 1.391 . S
C155 C156 1.399 . S
C156 C155 1.399 . S
C156 C157 1.396 1_565 S
C156 C159 1.453 1_565 S
C156 C160 1.684 . S
C157 C147 1.722 1_554 S
C157 C156 1.396 1_545 S
C157 C158 1.394 . S
C158 C128 1.723 . S
C158 C154 1.396 1_545 S
C158 C157 1.394 . S
C159 H131 0.982 . S
C159 H135 0.979 . S
C159 H136 0.977 . S
C159 C156 1.453 1_545 S
C160 H132 0.979 . S
C160 H133 0.980 . S
C160 H134 0.983 . S
C160 C156 1.684 . S
H161 C179 0.948 . S
H162 C120 0.948 1_554 S
H163 C138 0.979 . S
H164 C138 0.980 . S
H165 C138 0.983 . S
H166 C137 0.982 . S
H167 C137 0.979 . S
H168 C137 0.977 . S
H169 C139 0.948 . S
H170 C141 0.947 . S
H171 C142 0.948 . S
H172 C148 0.982 . S
H173 C148 0.979 . S
H174 C148 0.977 . S
H175 C149 0.979 . S
H176 C149 0.980 . S
H177 C149 0.983 . S
H178 C122 0.947 . S
C179 C122 1.392 . S
C179 C123 1.419 . S
C179 H161 0.948 . S
C180 C181 1.391 . S
C180 C184 1.391 . S
C180 H222 0.948 . S
C181 C180 1.391 . S
C181 C182 1.391 . S
C182 C181 1.391 . S
C182 H238 0.947 . S
C182 C239 1.392 . S
C183 C184 1.391 . S
C183 C187 1.397 . S
C183 C239 1.419 . S
C184 C180 1.391 . S
C184 C183 1.391 . S
C184 C185 1.399 . S
C185 C184 1.399 . S
C185 C188 1.396 . S
C185 C197 1.453 . S
C185 C198 1.684 . S
H186 C210 0.948 . S
C187 C183 1.397 . S
C187 C188 1.394 . S
C187 C206 1.723 . S
C188 C185 1.396 . S
C188 C187 1.394 . S
C188 C218 1.723 . S
H189 C212 0.947 . S
H190 C213 0.948 . S
H191 C219 0.982 . S
H192 C220 0.979 . S
H193 C220 0.980 . S
H194 C220 0.983 . S
H195 C219 0.979 . S
H196 C219 0.977 . S
C197 C185 1.453 . S
C197 H226 0.982 . S
C197 H227 0.979 . S
C197 H228 0.977 . S
C198 C185 1.684 . S
C198 H223 0.979 . S
C198 H224 0.980 . S
C198 H225 0.983 . S
C199 C200 1.391 . S
C199 C204 1.391 . S
C199 H229 0.948 . S
C200 C199 1.391 . S
C200 C201 1.391 . S
C201 C200 1.391 . S
C201 C202 1.392 . S
C201 H230 0.947 . S
C202 C201 1.392 . S
C202 C203 1.419 . S
C202 H231 0.948 . S
C203 C202 1.419 . S
C203 C204 1.391 . S
C203 C207 1.397 . S
C204 C199 1.391 . S
C204 C203 1.391 . S
C204 C205 1.399 . S
C205 C204 1.399 . S
C205 C206 1.396 . S
C205 C208 1.453 . S
C205 C209 1.684 . S
C206 C187 1.723 . S
C206 C205 1.396 . S
C206 C207 1.394 . S
C207 C203 1.397 . S
C207 C206 1.394 . S
C207 C217 1.723 . S
C208 C205 1.453 . S
C208 H232 0.982 . S
C208 H233 0.979 . S
C208 H234 0.977 . S
C209 C205 1.684 . S
C209 H235 0.979 . S
C209 H236 0.980 . S
C209 H237 0.983 . S
C210 H186 0.948 . S
C210 C211 1.391 . S
C210 C215 1.391 . S
C211 C210 1.391 . S
C211 C212 1.391 . S
C212 H189 0.947 . S
C212 C211 1.391 . S
C212 C213 1.392 . S
C213 H190 0.948 . S
C213 C212 1.392 . S
C213 C214 1.419 . S
C214 C213 1.419 . S
C214 C215 1.391 . S
C214 C218 1.397 . S
C215 C210 1.391 . S
C215 C214 1.391 . S
C215 C216 1.399 . S
C216 C215 1.399 . S
C216 C217 1.396 . S
C216 C219 1.453 . S
C216 C220 1.684 . S
C217 C207 1.723 . S
C217 C216 1.396 . S
C217 C218 1.394 . S
C218 C188 1.723 . S
C218 C214 1.397 . S
C218 C217 1.394 . S
C219 H191 0.982 . S
C219 H195 0.979 . S
C219 H196 0.977 . S
C219 C216 1.453 . S
C220 H192 0.979 . S
C220 H193 0.980 . S
C220 H194 0.983 . S
C220 C216 1.684 . S
H221 C239 0.948 . S
H222 C180 0.948 . S
H223 C198 0.979 . S
H224 C198 0.980 . S
H225 C198 0.983 . S
H226 C197 0.982 . S
H227 C197 0.979 . S
H228 C197 0.977 . S
H229 C199 0.948 . S
H230 C201 0.947 . S
H231 C202 0.948 . S
H232 C208 0.982 . S
H233 C208 0.979 . S
H234 C208 0.977 . S
H235 C209 0.979 . S
H236 C209 0.980 . S
H237 C209 0.983 . S
H238 C182 0.947 . S
C239 C182 1.392 . S
C239 C183 1.419 . S
C239 H221 0.948 . S
C240 C241 1.391 . S
C240 C244 1.391 . S
C240 H282 0.948 . S
C241 C240 1.391 . S
C241 C242 1.391 . S
C242 C241 1.391 . S
C242 H298 0.947 . S
C242 C299 1.392 . S
C243 C244 1.391 . S
C243 C247 1.397 . S
C243 C299 1.419 . S
C244 C240 1.391 . S
C244 C243 1.391 . S
C244 C245 1.399 . S
C245 C244 1.399 . S
C245 C248 1.396 . S
C245 C257 1.453 . S
C245 C258 1.684 . S
H246 C270 0.948 . S
C247 C243 1.397 . S
C247 C248 1.394 . S
C247 C266 1.723 . S
C248 C245 1.396 . S
C248 C247 1.394 . S
C248 C278 1.723 . S
H249 C272 0.947 . S
H250 C273 0.948 . S
H251 C279 0.982 . S
H252 C280 0.979 . S
H253 C280 0.980 . S
H254 C280 0.983 . S
H255 C279 0.979 . S
H256 C279 0.977 . S
C257 C245 1.453 . S
C257 H286 0.982 . S
C257 H287 0.979 . S
C257 H288 0.977 . S
C258 C245 1.684 . S
C258 H283 0.979 . S
C258 H284 0.980 . S
C258 H285 0.983 . S
C259 C260 1.391 . S
C259 C264 1.391 . S
C259 H289 0.948 . S
C260 C259 1.391 . S
C260 C261 1.391 . S
C261 C260 1.391 . S
C261 C262 1.392 . S
C261 H290 0.947 . S
C262 C261 1.392 . S
C262 C263 1.419 . S
C262 H291 0.948 . S
C263 C262 1.419 . S
C263 C264 1.391 . S
C263 C267 1.397 . S
C264 C259 1.391 . S
C264 C263 1.391 . S
C264 C265 1.399 . S
C265 C264 1.399 . S
C265 C266 1.396 . S
C265 C268 1.453 . S
C265 C269 1.684 . S
C266 C247 1.723 . S
C266 C265 1.396 . S
C266 C267 1.394 . S
C267 C263 1.397 . S
C267 C266 1.394 . S
C267 C277 1.723 . S
C268 C265 1.453 . S
C268 H292 0.982 . S
C268 H293 0.979 . S
C268 H294 0.977 . S
C269 C265 1.684 . S
C269 H295 0.979 . S
C269 H296 0.980 . S
C269 H297 0.983 . S
C270 H246 0.948 . S
C270 C271 1.391 . S
C270 C275 1.391 . S
C271 C270 1.391 . S
C271 C272 1.391 . S
C272 H249 0.947 . S
C272 C271 1.391 . S
C272 C273 1.392 . S
C273 H250 0.948 . S
C273 C272 1.392 . S
C273 C274 1.419 . S
C274 C273 1.419 . S
C274 C275 1.391 . S
C274 C278 1.397 . S
C275 C270 1.391 . S
C275 C274 1.391 . S
C275 C276 1.399 . S
C276 C275 1.399 . S
C276 C277 1.396 . S
C276 C279 1.453 . S
C276 C280 1.684 . S
C277 C267 1.723 . S
C277 C276 1.396 . S
C277 C278 1.394 . S
C278 C248 1.723 . S
C278 C274 1.397 . S
C278 C277 1.394 . S
C279 H251 0.982 . S
C279 H255 0.979 . S
C279 H256 0.977 . S
C279 C276 1.453 . S
C280 H252 0.979 . S
C280 H253 0.980 . S
C280 H254 0.983 . S
C280 C276 1.684 . S
H281 C299 0.948 . S
H282 C240 0.948 . S
H283 C258 0.979 . S
H284 C258 0.980 . S
H285 C258 0.983 . S
H286 C257 0.982 . S
H287 C257 0.979 . S
H288 C257 0.977 . S
H289 C259 0.948 . S
H290 C261 0.947 . S
H291 C262 0.948 . S
H292 C268 0.982 . S
H293 C268 0.979 . S
H294 C268 0.977 . S
H295 C269 0.979 . S
H296 C269 0.980 . S
H297 C269 0.983 . S
H298 C242 0.947 . S
C299 C242 1.392 . S
C299 C243 1.419 . S
C299 H281 0.948 . S
C300 C301 1.391 . S
C300 C304 1.391 . S
C300 H342 0.948 . S
C301 C300 1.391 . S
C301 C302 1.391 . S
C302 C301 1.391 . S
C302 H358 0.947 . S
C302 C359 1.392 . S
C303 C304 1.391 . S
C303 C307 1.397 . S
C303 C359 1.419 . S
C304 C300 1.391 . S
C304 C303 1.391 . S
C304 C305 1.399 . S
C305 C304 1.399 . S
C305 C308 1.396 . S
C305 C317 1.453 . S
C305 C318 1.684 . S
H306 C330 0.948 . S
C307 C303 1.397 . S
C307 C308 1.394 . S
C307 C326 1.723 . S
C308 C305 1.396 . S
C308 C307 1.394 . S
C308 C338 1.723 . S
H309 C332 0.947 . S
H310 C333 0.948 . S
H311 C339 0.982 . S
H312 C340 0.979 . S
H313 C340 0.980 . S
H314 C340 0.983 . S
H315 C339 0.979 . S
H316 C339 0.977 . S
C317 C305 1.453 . S
C317 H346 0.982 . S
C317 H347 0.979 . S
C317 H348 0.977 . S
C318 C305 1.684 . S
C318 H343 0.979 . S
C318 H344 0.980 . S
C318 H345 0.983 . S
C319 C320 1.391 . S
C319 C324 1.391 . S
C319 H349 0.948 . S
C320 C319 1.391 . S
C320 C321 1.391 . S
C321 C320 1.391 . S
C321 C322 1.392 . S
C321 H350 0.947 . S
C322 C321 1.392 . S
C322 C323 1.419 . S
C322 H351 0.948 . S
C323 C322 1.419 . S
C323 C324 1.391 . S
C323 C327 1.397 . S
C324 C319 1.391 . S
C324 C323 1.391 . S
C324 C325 1.399 . S
C325 C324 1.399 . S
C325 C326 1.396 . S
C325 C328 1.453 . S
C325 C329 1.684 . S
C326 C307 1.723 . S
C326 C325 1.396 . S
C326 C327 1.394 . S
C327 C323 1.397 . S
C327 C326 1.394 . S
C327 C337 1.723 . S
C328 C325 1.453 . S
C328 H352 0.982 . S
C328 H353 0.979 . S
C328 H354 0.977 . S
C329 C325 1.684 . S
C329 H355 0.979 . S
C329 H356 0.980 . S
C329 H357 0.983 . S
C330 H306 0.948 . S
C330 C331 1.391 . S
C330 C335 1.391 . S
C331 C330 1.391 . S
C331 C332 1.391 . S
C332 H309 0.947 . S
C332 C331 1.391 . S
C332 C333 1.392 . S
C333 H310 0.948 . S
C333 C332 1.392 . S
C333 C334 1.419 . S
C334 C333 1.419 . S
C334 C335 1.391 . S
C334 C338 1.397 . S
C335 C330 1.391 . S
C335 C334 1.391 . S
C335 C336 1.399 . S
C336 C335 1.399 . S
C336 C337 1.396 . S
C336 C339 1.453 . S
C336 C340 1.684 . S
C337 C327 1.723 . S
C337 C336 1.396 . S
C337 C338 1.394 . S
C338 C308 1.723 . S
C338 C334 1.397 . S
C338 C337 1.394 . S
C339 H311 0.982 . S
C339 H315 0.979 . S
C339 H316 0.977 . S
C339 C336 1.453 . S
C340 H312 0.979 . S
C340 H313 0.980 . S
C340 H314 0.983 . S
C340 C336 1.684 . S
H341 C359 0.948 . S
H342 C300 0.948 . S
H343 C318 0.979 . S
H344 C318 0.980 . S
H345 C318 0.983 . S
H346 C317 0.982 . S
H347 C317 0.979 . S
H348 C317 0.977 . S
H349 C319 0.948 . S
H350 C321 0.947 . S
H351 C322 0.948 . S
H352 C328 0.982 . S
H353 C328 0.979 . S
H354 C328 0.977 . S
H355 C329 0.979 . S
H356 C329 0.980 . S
H357 C329 0.983 . S
H358 C302 0.947 . S
C359 C302 1.392 . S
C359 C303 1.419 . S
C359 H341 0.948 . S
C360 C361 1.391 . S
C360 C364 1.391 . S
C360 H402 0.948 . S
C361 C360 1.391 . S
C361 C362 1.391 . S
C362 C361 1.391 . S
C362 H418 0.947 . S
C362 C419 1.392 . S
C363 C364 1.391 . S
C363 C367 1.396 1_545 S
C363 C419 1.419 . S
C364 C360 1.391 . S
C364 C363 1.391 . S
C364 C365 1.399 . S
C365 C364 1.399 . S
C365 C368 1.396 1_545 S
C365 C377 1.453 1_545 S
C365 C378 1.684 . S
H366 C390 0.948 . S
C367 C363 1.396 1_565 S
C367 C368 1.395 . S
C367 C386 1.723 . S
C368 C365 1.396 1_565 S
C368 C367 1.395 . S
C368 C398 1.722 . S
H369 C392 0.947 . S
H370 C393 0.948 . S
H371 C399 0.982 . S
H372 C400 0.979 . S
H373 C400 0.980 . S
H374 C400 0.983 . S
H375 C399 0.979 . S
H376 C399 0.977 . S
C377 C365 1.453 1_565 S
C377 H406 0.982 . S
C377 H407 0.979 . S
C377 H408 0.977 . S
C378 C365 1.684 . S
C378 H403 0.979 . S
C378 H404 0.980 . S
C378 H405 0.983 . S
C379 C380 1.391 . S
C379 C384 1.391 . S
C379 H409 0.948 . S
C380 C379 1.391 . S
C380 C381 1.391 . S
C381 C380 1.391 . S
C381 C382 1.392 . S
C381 H410 0.947 . S
C382 C381 1.392 . S
C382 C383 1.419 . S
C382 H411 0.948 . S
C383 C382 1.419 . S
C383 C384 1.391 . S
C383 C387 1.397 1_545 S
C384 C379 1.391 . S
C384 C383 1.391 . S
C384 C385 1.399 . S
C385 C384 1.399 . S
C385 C386 1.396 1_545 S
C385 C388 1.453 1_545 S
C385 C389 1.684 . S
C386 C367 1.723 . S
C386 C385 1.396 1_565 S
C386 C387 1.393 . S
C387 C383 1.397 1_565 S
C387 C386 1.393 . S
C387 C397 1.723 . S
C388 C385 1.453 1_565 S
C388 H412 0.982 . S
C388 H413 0.979 . S
C388 H414 0.977 . S
C389 C385 1.684 . S
C389 H415 0.979 . S
C389 H416 0.980 . S
C389 H417 0.983 . S
C390 H366 0.948 . S
C390 C391 1.391 . S
C390 C395 1.391 . S
C391 C390 1.391 . S
C391 C392 1.391 . S
C392 H369 0.947 . S
C392 C391 1.391 . S
C392 C393 1.392 . S
C393 H370 0.948 . S
C393 C392 1.392 . S
C393 C394 1.419 . S
C394 C393 1.419 . S
C394 C395 1.391 . S
C394 C398 1.398 1_545 S
C395 C390 1.391 . S
C395 C394 1.391 . S
C395 C396 1.399 . S
C396 C395 1.399 . S
C396 C397 1.396 1_545 S
C396 C399 1.453 1_545 S
C396 C400 1.684 . S
C397 C387 1.723 . S
C397 C396 1.396 1_565 S
C397 C398 1.394 . S
C398 C368 1.722 . S
C398 C394 1.398 1_565 S
C398 C397 1.394 . S
C399 H371 0.982 . S
C399 H375 0.979 . S
C399 H376 0.977 . S
C399 C396 1.453 1_565 S
C400 H372 0.979 . S
C400 H373 0.980 . S
C400 H374 0.983 . S
C400 C396 1.684 . S
H401 C419 0.948 . S
H402 C360 0.948 . S
H403 C378 0.979 . S
H404 C378 0.980 . S
H405 C378 0.983 . S
H406 C377 0.982 . S
H407 C377 0.979 . S
H408 C377 0.977 . S
H409 C379 0.948 . S
H410 C381 0.947 . S
H411 C382 0.948 . S
H412 C388 0.982 . S
H413 C388 0.979 . S
H414 C388 0.977 . S
H415 C389 0.979 . S
H416 C389 0.980 . S
H417 C389 0.983 . S
H418 C362 0.947 . S
C419 C362 1.392 . S
C419 C363 1.419 . S
C419 H401 0.948 . S
C420 C421 1.391 . S
C420 C424 1.391 . S
C420 H462 0.948 . S
C421 C420 1.391 . S
C421 C422 1.391 . S
C422 C421 1.391 . S
C422 H478 0.947 . S
C422 C479 1.392 . S
C423 C424 1.391 . S
C423 C427 1.397 . S
C423 C479 1.419 . S
C424 C420 1.391 . S
C424 C423 1.391 . S
C424 C425 1.399 . S
C425 C424 1.399 . S
C425 C428 1.396 . S
C425 C437 1.453 . S
C425 C438 1.684 . S
H426 C450 0.948 . S
C427 C423 1.397 . S
C427 C428 1.394 . S
C427 C446 1.723 . S
C428 C425 1.396 . S
C428 C427 1.394 . S
C428 C458 1.723 . S
H429 C452 0.947 . S
H430 C453 0.948 . S
H431 C459 0.982 . S
H432 C460 0.979 . S
H433 C460 0.980 . S
H434 C460 0.983 . S
H435 C459 0.979 . S
H436 C459 0.977 . S
C437 C425 1.453 . S
C437 H466 0.982 . S
C437 H467 0.979 . S
C437 H468 0.977 . S
C438 C425 1.684 . S
C438 H463 0.979 . S
C438 H464 0.980 . S
C438 H465 0.983 . S
C439 C440 1.391 . S
C439 C444 1.391 . S
C439 H469 0.948 . S
C440 C439 1.391 . S
C440 C441 1.391 . S
C441 C440 1.391 . S
C441 C442 1.392 . S
C441 H470 0.947 . S
C442 C441 1.392 . S
C442 C443 1.419 . S
C442 H471 0.948 . S
C443 C442 1.419 . S
C443 C444 1.391 . S
C443 C447 1.397 . S
C444 C439 1.391 . S
C444 C443 1.391 . S
C444 C445 1.399 . S
C445 C444 1.399 . S
C445 C446 1.396 . S
C445 C448 1.453 . S
C445 C449 1.684 . S
C446 C427 1.723 . S
C446 C445 1.396 . S
C446 C447 1.394 . S
C447 C443 1.397 . S
C447 C446 1.394 . S
C447 C457 1.723 . S
C448 C445 1.453 . S
C448 H472 0.982 . S
C448 H473 0.979 . S
C448 H474 0.977 . S
C449 C445 1.684 . S
C449 H475 0.979 . S
C449 H476 0.980 . S
C449 H477 0.983 . S
C450 H426 0.948 . S
C450 C451 1.391 . S
C450 C455 1.391 . S
C451 C450 1.391 . S
C451 C452 1.391 . S
C452 H429 0.947 . S
C452 C451 1.391 . S
C452 C453 1.392 . S
C453 H430 0.948 . S
C453 C452 1.392 . S
C453 C454 1.419 . S
C454 C453 1.419 . S
C454 C455 1.391 . S
C454 C458 1.397 . S
C455 C450 1.391 . S
C455 C454 1.391 . S
C455 C456 1.399 . S
C456 C455 1.399 . S
C456 C457 1.396 . S
C456 C459 1.453 . S
C456 C460 1.684 . S
C457 C447 1.723 . S
C457 C456 1.396 . S
C457 C458 1.394 . S
C458 C428 1.723 . S
C458 C454 1.397 . S
C458 C457 1.394 . S
C459 H431 0.982 . S
C459 H435 0.979 . S
C459 H436 0.977 . S
C459 C456 1.453 . S
C460 H432 0.979 . S
C460 H433 0.980 . S
C460 H434 0.983 . S
C460 C456 1.684 . S
H461 C479 0.948 . S
H462 C420 0.948 . S
H463 C438 0.979 . S
H464 C438 0.980 . S
H465 C438 0.983 . S
H466 C437 0.982 . S
H467 C437 0.979 . S
H468 C437 0.977 . S
H469 C439 0.948 . S
H470 C441 0.947 . S
H471 C442 0.948 . S
H472 C448 0.982 . S
H473 C448 0.979 . S
H474 C448 0.977 . S
H475 C449 0.979 . S
H476 C449 0.980 . S
H477 C449 0.983 . S
H478 C422 0.947 . S
C479 C422 1.392 . S
C479 C423 1.419 . S
C479 H461 0.948 . S
Nd480 C482 2.836 1_455 S
Nd480 O500 2.500 1_455 S
Nd480 O501 2.492 . S
Nd480 O502 2.487 . S
Nd480 O503 2.682 1_565 S
Nd480 O504 2.410 . S
Nd480 O509 2.430 1_455 S
Nd480 O511 2.424 1_565 S
Nd481 C491 2.836 . S
Nd481 O503 2.414 . S
Nd481 O505 2.424 1_545 S
Nd481 O506 2.500 . S
Nd481 O507 2.492 . S
Nd481 O508 2.487 1_455 S
Nd481 O509 2.678 1_445 S
Nd481 O510 2.410 . S
C482 Nd480 2.836 1_655 S
C482 C483 1.498 . S
C482 O500 1.258 . S
C482 O501 1.239 1_655 S
C483 C482 1.498 . S
C483 C484 1.366 . S
C483 C488 1.407 . S
C484 C483 1.366 . S
C484 C485 1.392 . S
C484 H512 0.930 . S
C485 C484 1.392 . S
C485 C486 1.398 . S
C485 H513 0.929 . S
C486 C485 1.398 . S
C486 C487 1.352 . S
C487 C486 1.352 . S
C487 C488 1.384 . S
C487 H514 0.930 . S
C488 C483 1.407 . S
C488 C487 1.384 . S
C488 H515 0.929 1_655 S
C489 O502 1.241 . S
C489 O503 1.273 1_565 S
C490 O504 1.251 . S
C490 O505 1.268 . S
C491 Nd481 2.836 . S
C491 C492 1.498 1_556 S
C491 O506 1.258 . S
C491 O507 1.239 . S
C492 C491 1.498 1_554 S
C492 C493 1.366 1_554 S
C492 C497 1.407 . S
C493 C492 1.366 1_556 S
C493 C494 1.392 1_556 S
C493 H516 0.930 . S
C494 C493 1.392 1_554 S
C494 C495 1.398 . S
C494 H517 0.929 . S
C495 C494 1.398 . S
C495 C496 1.352 . S
C496 C495 1.352 . S
C496 C497 1.384 . S
C496 H518 0.930 . S
C497 C492 1.407 . S
C497 C496 1.384 . S
C497 H519 0.929 . S
C498 O508 1.241 . S
C498 O509 1.250 1_545 S
C499 O510 1.251 . S
C499 O511 1.268 . S
O500 Nd480 2.500 1_655 S
O500 C482 1.258 . S
O501 Nd480 2.492 . S
O501 C482 1.239 1_455 S
O502 Nd480 2.487 . S
O502 C489 1.241 . S
O503 Nd480 2.682 1_545 S
O503 Nd481 2.414 . S
O503 C489 1.273 1_545 S
O504 Nd480 2.410 . S
O504 C490 1.251 . S
O505 Nd481 2.424 1_565 S
O505 C490 1.268 . S
O506 Nd481 2.500 . S
O506 C491 1.258 . S
O507 Nd481 2.492 . S
O507 C491 1.239 . S
O508 Nd481 2.487 1_655 S
O508 C498 1.241 . S
O509 Nd480 2.430 1_655 S
O509 Nd481 2.678 1_665 S
O509 C498 1.250 1_565 S
O510 Nd481 2.410 . S
O510 C499 1.251 . S
O511 Nd480 2.424 1_545 S
O511 C499 1.268 . S
H512 C484 0.930 . S
H513 C485 0.929 . S
H514 C487 0.930 . S
H515 C488 0.929 1_455 S
H516 C493 0.930 . S
H517 C494 0.929 . S
H518 C496 0.930 . S
H519 C497 0.929 . S
Nd520 C522 2.836 . S
Nd520 O540 2.500 . S
Nd520 O541 2.492 . S
Nd520 O542 2.487 1_565 S
Nd520 O543 2.682 1_565 S
Nd520 O544 2.410 1_565 S
Nd520 O549 2.414 . S
Nd520 O551 2.424 . S
Nd521 C531 2.836 . S
Nd521 O543 2.414 . S
Nd521 O545 2.424 . S
Nd521 O546 2.500 . S
Nd521 O547 2.492 1_556 S
Nd521 O548 2.487 1_545 S
Nd521 O549 2.682 1_545 S
Nd521 O550 2.410 1_545 S
C522 Nd520 2.836 . S
C522 C523 1.498 . S
C522 O540 1.258 . S
C522 O541 1.239 . S
C523 C522 1.498 . S
C523 C524 1.366 . S
C523 C528 1.407 . S
C524 C523 1.366 . S
C524 C525 1.392 . S
C524 H552 0.930 . S
C525 C524 1.392 . S
C525 C526 1.398 . S
C525 H553 0.929 . S
C526 C525 1.398 . S
C526 C527 1.352 . S
C527 C526 1.352 . S
C527 C528 1.384 . S
C527 H554 0.930 . S
C528 C523 1.407 . S
C528 C527 1.384 . S
C528 H555 0.929 1_565 S
C529 O542 1.241 . S
C529 O543 1.273 . S
C530 O544 1.251 . S
C530 O545 1.268 . S
C531 Nd521 2.836 . S
C531 C532 1.498 1_556 S
C531 O546 1.258 . S
C531 O547 1.239 1_556 S
C532 C531 1.498 1_554 S
C532 C533 1.366 1_554 S
C532 C537 1.407 . S
C533 C532 1.366 1_556 S
C533 C534 1.392 1_556 S
C533 H556 0.930 . S
C534 C533 1.392 1_554 S
C534 C535 1.398 . S
C534 H557 0.929 . S
C535 C534 1.398 . S
C535 C536 1.352 . S
C536 C535 1.352 . S
C536 C537 1.384 . S
C536 H558 0.930 . S
C537 C532 1.407 . S
C537 C536 1.384 . S
C537 H559 0.929 1_545 S
C538 O548 1.241 . S
C538 O549 1.273 . S
C539 O550 1.251 . S
C539 O551 1.268 . S
O540 Nd520 2.500 . S
O540 C522 1.258 . S
O541 Nd520 2.492 . S
O541 C522 1.239 . S
O542 Nd520 2.487 1_545 S
O542 C529 1.241 . S
O543 Nd520 2.682 1_545 S
O543 Nd521 2.414 . S
O543 C529 1.273 . S
O544 Nd520 2.410 1_545 S
O544 C530 1.251 . S
O545 Nd521 2.424 . S
O545 C530 1.268 . S
O546 Nd521 2.500 . S
O546 C531 1.258 . S
O547 Nd521 2.492 1_554 S
O547 C531 1.239 1_554 S
O548 Nd521 2.487 1_565 S
O548 C538 1.241 . S
O549 Nd520 2.414 . S
O549 Nd521 2.682 1_565 S
O549 C538 1.273 . S
O550 Nd521 2.410 1_565 S
O550 C539 1.251 . S
O551 Nd520 2.424 . S
O551 C539 1.268 . S
H552 C524 0.930 . S
H553 C525 0.929 . S
H554 C527 0.930 . S
H555 C528 0.929 1_545 S
H556 C533 0.930 . S
H557 C534 0.929 . S
H558 C536 0.930 . S
H559 C537 0.929 1_565 S
Nd560 C562 2.836 . S
Nd560 O580 2.500 . S
Nd560 O581 2.492 . S
Nd560 O582 2.487 . S
Nd560 O583 2.682 . S
Nd560 O584 2.410 . S
Nd560 O589 2.414 . S
Nd560 O591 2.424 . S
Nd561 C571 2.836 . S
Nd561 O583 2.414 . S
Nd561 O585 2.424 . S
Nd561 O586 2.500 . S
Nd561 O587 2.492 . S
Nd561 O588 2.487 . S
Nd561 O589 2.682 . S
Nd561 O590 2.410 . S
C562 Nd560 2.836 . S
C562 C563 1.498 . S
C562 O580 1.258 . S
C562 O581 1.239 . S
C563 C562 1.498 . S
C563 C564 1.366 . S
C563 C568 1.407 1_556 S
C564 C563 1.366 . S
C564 C565 1.392 . S
C564 H592 0.930 . S
C565 C564 1.392 . S
C565 C566 1.398 . S
C565 H593 0.929 . S
C566 C565 1.398 . S
C566 C567 1.352 1_556 S
C567 C566 1.352 1_554 S
C567 C568 1.384 . S
C567 H594 0.930 . S
C568 C563 1.407 1_554 S
C568 C567 1.384 . S
C568 H595 0.929 . S
C569 O582 1.241 . S
C569 O583 1.273 . S
C570 O584 1.251 . S
C570 O585 1.268 . S
C571 Nd561 2.836 . S
C571 C572 1.498 . S
C571 O586 1.258 . S
C571 O587 1.239 . S
C572 C571 1.498 . S
C572 C573 1.366 . S
C572 C577 1.407 . S
C573 C572 1.366 . S
C573 C574 1.392 . S
C573 H596 0.930 . S
C574 C573 1.392 . S
C574 C575 1.398 . S
C574 H597 0.929 . S
C575 C574 1.398 . S
C575 C576 1.352 . S
C576 C575 1.352 . S
C576 C577 1.384 . S
C576 H598 0.930 . S
C577 C572 1.407 . S
C577 C576 1.384 . S
C577 H599 0.929 . S
C578 O588 1.241 . S
C578 O589 1.273 . S
C579 O590 1.251 . S
C579 O591 1.268 . S
O580 Nd560 2.500 . S
O580 C562 1.258 . S
O581 Nd560 2.492 . S
O581 C562 1.239 . S
O582 Nd560 2.487 . S
O582 C569 1.241 . S
O583 Nd560 2.682 . S
O583 Nd561 2.414 . S
O583 C569 1.273 . S
O584 Nd560 2.410 . S
O584 C570 1.251 . S
O585 Nd561 2.424 . S
O585 C570 1.268 . S
O586 Nd561 2.500 . S
O586 C571 1.258 . S
O587 Nd561 2.492 . S
O587 C571 1.239 . S
O588 Nd561 2.487 . S
O588 C578 1.241 . S
O589 Nd560 2.414 . S
O589 Nd561 2.682 . S
O589 C578 1.273 . S
O590 Nd561 2.410 . S
O590 C579 1.251 . S
O591 Nd560 2.424 . S
O591 C579 1.268 . S
H592 C564 0.930 . S
H593 C565 0.929 . S
H594 C567 0.930 . S
H595 C568 0.929 . S
H596 C573 0.930 . S
H597 C574 0.929 . S
H598 C576 0.930 . S
H599 C577 0.929 . S
Nd600 C602 2.836 1_455 S
Nd600 O620 2.500 1_455 S
Nd600 O621 2.492 1_455 S
Nd600 O622 2.487 . S
Nd600 O623 2.682 . S
Nd600 O624 2.410 1_455 S
Nd600 O629 2.414 . S
Nd600 O631 2.424 . S
Nd601 C611 2.836 . S
Nd601 O623 2.414 . S
Nd601 O625 2.424 1_455 S
Nd601 O626 2.500 . S
Nd601 O627 2.492 . S
Nd601 O628 2.487 . S
Nd601 O629 2.682 . S
Nd601 O630 2.410 . S
C602 Nd600 2.836 1_655 S
C602 C603 1.498 . S
C602 O620 1.258 . S
C602 O621 1.239 . S
C603 C602 1.498 . S
C603 C604 1.366 . S
C603 C608 1.407 . S
C604 C603 1.366 . S
C604 C605 1.392 . S
C604 H632 0.930 . S
C605 C604 1.392 . S
C605 C606 1.398 . S
C605 H633 0.929 . S
C606 C605 1.398 . S
C606 C607 1.352 . S
C607 C606 1.352 . S
C607 C608 1.384 . S
C607 H634 0.930 . S
C608 C603 1.407 . S
C608 C607 1.384 . S
C608 H635 0.929 . S
C609 O622 1.241 . S
C609 O623 1.273 . S
C610 O624 1.251 . S
C610 O625 1.268 . S
C611 Nd601 2.836 . S
C611 C612 1.498 1_556 S
C611 O626 1.258 . S
C611 O627 1.239 . S
C612 C611 1.498 1_554 S
C612 C613 1.366 . S
C612 C617 1.407 . S
C613 C612 1.366 . S
C613 C614 1.392 . S
C613 H636 0.930 1_554 S
C614 C613 1.392 . S
C614 C615 1.398 . S
C614 H637 0.929 . S
C615 C614 1.398 . S
C615 C616 1.352 . S
C616 C615 1.352 . S
C616 C617 1.384 . S
C616 H638 0.930 . S
C617 C612 1.407 . S
C617 C616 1.384 . S
C617 H639 0.929 . S
C618 O628 1.241 . S
C618 O629 1.273 . S
C619 O630 1.251 . S
C619 O631 1.268 . S
O620 Nd600 2.500 1_655 S
O620 C602 1.258 . S
O621 Nd600 2.492 1_655 S
O621 C602 1.239 . S
O622 Nd600 2.487 . S
O622 C609 1.241 . S
O623 Nd600 2.682 . S
O623 Nd601 2.414 . S
O623 C609 1.273 . S
O624 Nd600 2.410 1_655 S
O624 C610 1.251 . S
O625 Nd601 2.424 1_655 S
O625 C610 1.268 . S
O626 Nd601 2.500 . S
O626 C611 1.258 . S
O627 Nd601 2.492 . S
O627 C611 1.239 . S
O628 Nd601 2.487 . S
O628 C618 1.241 . S
O629 Nd600 2.414 . S
O629 Nd601 2.682 . S
O629 C618 1.273 . S
O630 Nd601 2.410 . S
O630 C619 1.251 . S
O631 Nd600 2.424 . S
O631 C619 1.268 . S
H632 C604 0.930 . S
H633 C605 0.929 . S
H634 C607 0.930 . S
H635 C608 0.929 . S
H636 C613 0.930 1_556 S
H637 C614 0.929 . S
H638 C616 0.930 . S
H639 C617 0.929 . S
H640 C646 0.930 . S
H641 C650 0.930 . S
H642 C655 0.929 . S
H643 C653 0.929 . S
H644 C648 0.929 . S
H645 C654 0.929 . S
C646 H640 0.930 . S
C646 C647 1.367 . S
C646 C654 1.378 . S
C647 C646 1.367 . S
C647 C655 1.433 1_545 S
C648 H644 0.929 . S
C648 C650 1.378 . S
C648 C652 1.350 . S
C649 C652 1.463 . S
C649 C654 1.350 1_565 S
C649 N657 1.427 . S
C650 H641 0.930 . S
C650 C648 1.378 . S
C650 C651 1.367 . S
C651 C650 1.367 . S
C651 C653 1.433 1_565 S
C652 C648 1.350 . S
C652 C649 1.463 . S
C652 N656 1.427 1_565 S
C653 H643 0.929 . S
C653 C651 1.433 1_545 S
C653 N656 1.384 . S
C654 H645 0.929 . S
C654 C646 1.378 . S
C654 C649 1.350 1_545 S
C655 H642 0.929 . S
C655 C647 1.433 1_565 S
C655 N657 1.384 . S
N656 C652 1.427 1_545 S
N656 C653 1.384 . S
N657 C649 1.427 . S
N657 C655 1.384 . S
H658 C664 0.930 . S
H659 C668 0.930 . S
H660 C673 0.929 . S
H661 C671 0.929 . S
H662 C666 0.929 . S
H663 C672 0.929 . S
C664 H658 0.930 . S
C664 C665 1.367 . S
C664 C672 1.378 . S
C665 C664 1.367 . S
C665 C673 1.433 . S
C666 H662 0.929 . S
C666 C668 1.378 . S
C666 C670 1.350 . S
C667 C670 1.463 . S
C667 C672 1.350 . S
C667 N675 1.427 . S
C668 H659 0.930 . S
C668 C666 1.378 . S
C668 C669 1.367 . S
C669 C668 1.367 . S
C669 C671 1.433 . S
C670 C666 1.350 . S
C670 C667 1.463 . S
C670 N674 1.427 . S
C671 H661 0.929 . S
C671 C669 1.433 . S
C671 N674 1.384 . S
C672 H663 0.929 . S
C672 C664 1.378 . S
C672 C667 1.350 . S
C673 H660 0.929 . S
C673 C665 1.433 . S
C673 N675 1.384 . S
N674 C670 1.427 . S
N674 C671 1.384 . S
N675 C667 1.427 . S
N675 C673 1.384 . S
H676 C682 0.930 . S
H677 C686 0.930 . S
H678 C691 0.929 . S
H679 C689 0.929 . S
H680 C684 0.929 . S
H681 C690 0.929 . S
C682 H676 0.930 . S
C682 C683 1.367 . S
C682 C690 1.378 . S
C683 C682 1.367 . S
C683 C691 1.433 . S
C684 H680 0.929 . S
C684 C686 1.378 . S
C684 C688 1.350 . S
C685 C688 1.463 . S
C685 C690 1.350 . S
C685 N693 1.427 . S
C686 H677 0.930 . S
C686 C684 1.378 . S
C686 C687 1.367 . S
C687 C686 1.367 . S
C687 C689 1.433 . S
C688 C684 1.350 . S
C688 C685 1.463 . S
C688 N692 1.427 . S
C689 H679 0.929 . S
C689 C687 1.433 . S
C689 N692 1.384 . S
C690 H681 0.929 . S
C690 C682 1.378 . S
C690 C685 1.350 . S
C691 H678 0.929 . S
C691 C683 1.433 . S
C691 N693 1.384 . S
N692 C688 1.427 . S
N692 C689 1.384 . S
N693 C685 1.427 . S
N693 C691 1.384 . S
H694 C700 0.930 . S
H695 C704 0.930 . S
H696 C709 0.929 . S
H697 C707 0.929 . S
H698 C702 0.929 . S
H699 C708 0.929 . S
C700 H694 0.930 . S
C700 C701 1.367 . S
C700 C708 1.378 . S
C701 C700 1.367 . S
C701 C709 1.433 . S
C702 H698 0.929 . S
C702 C704 1.378 . S
C702 C706 1.350 . S
C703 C706 1.463 . S
C703 C708 1.350 . S
C703 N711 1.427 . S
C704 H695 0.930 . S
C704 C702 1.378 . S
C704 C705 1.367 . S
C705 C704 1.367 . S
C705 C707 1.433 . S
C706 C702 1.350 . S
C706 C703 1.463 . S
C706 N710 1.427 . S
C707 H697 0.929 . S
C707 C705 1.433 . S
C707 N710 1.384 . S
C708 H699 0.929 . S
C708 C700 1.378 . S
C708 C703 1.350 . S
C709 H696 0.929 . S
C709 C701 1.433 . S
C709 N711 1.384 . S
N710 C706 1.427 . S
N710 C707 1.384 . S
N711 C703 1.427 . S
N711 C709 1.384 . S
H712 C718 0.930 . S
H713 C722 0.930 . S
H714 C727 0.929 1_554 S
H715 C725 0.929 . S
H716 C720 0.929 . S
H717 C726 0.929 . S
C718 H712 0.930 . S
C718 C719 1.370 . S
C718 C726 1.378 . S
C719 C718 1.370 . S
C719 C727 1.427 1_545 S
C720 H716 0.929 . S
C720 C722 1.378 . S
C720 C724 1.350 1_565 S
C721 C724 1.463 . S
C721 C726 1.350 . S
C721 N729 1.427 1_545 S
C722 H713 0.930 . S
C722 C720 1.378 . S
C722 C723 1.367 1_565 S
C723 C722 1.367 1_545 S
C723 C725 1.433 . S
C724 C720 1.350 1_545 S
C724 C721 1.463 . S
C724 N728 1.427 . S
C725 H715 0.929 . S
C725 C723 1.433 . S
C725 N728 1.384 . S
C726 H717 0.929 . S
C726 C718 1.378 . S
C726 C721 1.350 . S
C727 H714 0.929 1_556 S
C727 C719 1.427 1_565 S
C727 N729 1.384 . S
N728 C724 1.427 . S
N728 C725 1.384 . S
N729 C721 1.427 1_565 S
N729 C727 1.384 . S
H730 C736 0.930 . S
H731 C740 0.926 1_556 S
H732 C745 0.929 . S
H733 C743 0.929 . S
H734 C738 0.929 . S
H735 C744 0.929 . S
C736 H730 0.930 . S
C736 C737 1.367 . S
C736 C744 1.378 . S
C737 C736 1.367 . S
C737 C745 1.433 . S
C738 H734 0.929 . S
C738 C740 1.391 . S
C738 C742 1.350 . S
C739 C742 1.463 . S
C739 C744 1.350 . S
C739 N747 1.427 . S
C740 H731 0.926 1_554 S
C740 C738 1.391 . S
C740 C741 1.359 1_554 S
C741 C740 1.359 1_556 S
C741 C743 1.433 . S
C742 C738 1.350 . S
C742 C739 1.463 . S
C742 N746 1.427 . S
C743 H733 0.929 . S
C743 C741 1.433 . S
C743 N746 1.384 1_556 S
C744 H735 0.929 . S
C744 C736 1.378 . S
C744 C739 1.350 . S
C745 H732 0.929 . S
C745 C737 1.433 . S
C745 N747 1.384 . S
N746 C742 1.427 . S
N746 C743 1.384 1_554 S
N747 C739 1.427 . S
N747 C745 1.384 . S
H748 C754 0.930 . S
H749 C758 0.930 . S
H750 C763 0.929 . S
H751 C761 0.929 . S
H752 C756 0.929 . S
H753 C762 0.929 . S
C754 H748 0.930 . S
C754 C755 1.367 . S
C754 C762 1.378 . S
C755 C754 1.367 . S
C755 C763 1.433 1_556 S
C756 H752 0.929 . S
C756 C758 1.378 . S
C756 C760 1.350 . S
C757 C760 1.463 . S
C757 C762 1.350 . S
C757 N765 1.427 . S
C758 H749 0.930 . S
C758 C756 1.378 . S
C758 C759 1.367 . S
C759 C758 1.367 . S
C759 C761 1.433 . S
C760 C756 1.350 . S
C760 C757 1.463 . S
C760 N764 1.427 . S
C761 H751 0.929 . S
C761 C759 1.433 . S
C761 N764 1.384 . S
C762 H753 0.929 . S
C762 C754 1.378 . S
C762 C757 1.350 . S
C763 H750 0.929 . S
C763 C755 1.433 1_554 S
C763 N765 1.384 1_554 S
N764 C760 1.427 . S
N764 C761 1.384 . S
N765 C757 1.427 . S
N765 C763 1.384 1_556 S
H766 C772 0.930 . S
H767 C776 0.930 . S
H768 C781 0.929 . S
H769 C779 0.929 . S
H770 C774 0.929 . S
H771 C780 0.929 . S
C772 H766 0.930 . S
C772 C773 1.367 . S
C772 C780 1.378 . S
C773 C772 1.367 . S
C773 C781 1.433 1_556 S
C774 H770 0.929 . S
C774 C776 1.378 . S
C774 C778 1.350 . S
C775 C778 1.463 . S
C775 C780 1.350 . S
C775 N783 1.427 . S
C776 H767 0.930 . S
C776 C774 1.378 . S
C776 C777 1.367 . S
C777 C776 1.367 . S
C777 C779 1.433 . S
C778 C774 1.350 . S
C778 C775 1.463 . S
C778 N782 1.427 . S
C779 H769 0.929 . S
C779 C777 1.433 . S
C779 N782 1.384 . S
C780 H771 0.929 . S
C780 C772 1.378 . S
C780 C775 1.350 . S
C781 H768 0.929 . S
C781 C773 1.433 1_554 S
C781 N783 1.384 1_554 S
N782 C778 1.427 . S
N782 C779 1.384 . S
N783 C775 1.427 . S
N783 C781 1.384 1_556 S
H784 C790 0.930 . S
H785 C794 0.930 . S
H786 C799 0.929 . S
H787 C797 0.929 . S
H788 C792 0.929 . S
H789 C798 0.929 . S
C790 H784 0.930 . S
C790 C791 1.367 . S
C790 C798 1.378 . S
C791 C790 1.367 . S
C791 C799 1.433 . S
C792 H788 0.929 . S
C792 C794 1.378 . S
C792 C796 1.350 . S
C793 C796 1.463 . S
C793 C798 1.350 . S
C793 N801 1.427 . S
C794 H785 0.930 . S
C794 C792 1.378 . S
C794 C795 1.367 . S
C795 C794 1.367 . S
C795 C797 1.433 . S
C796 C792 1.350 . S
C796 C793 1.463 . S
C796 N800 1.427 . S
C797 H787 0.929 . S
C797 C795 1.433 . S
C797 N800 1.384 . S
C798 H789 0.929 . S
C798 C790 1.378 . S
C798 C793 1.350 . S
C799 H786 0.929 . S
C799 C791 1.433 . S
C799 N801 1.384 . S
N800 C796 1.427 . S
N800 C797 1.384 . S
N801 C793 1.427 . S
N801 C799 1.384 . S
H802 C808 0.930 . S
H803 C812 0.930 . S
H804 C817 0.929 . S
H805 C815 0.929 . S
H806 C810 0.929 . S
H807 C816 0.929 . S
C808 H802 0.930 . S
C808 C809 1.409 . S
C808 C816 1.378 . S
C809 C808 1.409 . S
C809 C817 1.406 1_565 S
C810 H806 0.929 . S
C810 C812 1.378 . S
C810 C814 1.350 1_545 S
C811 C814 1.463 . S
C811 C816 1.350 . S
C811 N819 1.427 1_565 S
C812 H803 0.930 . S
C812 C810 1.378 . S
C812 C813 1.367 1_545 S
C813 C812 1.367 1_565 S
C813 C815 1.433 . S
C814 C810 1.350 1_565 S
C814 C811 1.463 . S
C814 N818 1.427 . S
C815 H805 0.929 . S
C815 C813 1.433 . S
C815 N818 1.384 . S
C816 H807 0.929 . S
C816 C808 1.378 . S
C816 C811 1.350 . S
C817 H804 0.929 . S
C817 C809 1.406 1_545 S
C817 N819 1.384 . S
N818 C814 1.427 . S
N818 C815 1.384 . S
N819 C811 1.427 1_545 S
N819 C817 1.384 . S
H820 C826 0.930 . S
H821 C830 0.930 . S
H822 C835 0.929 . S
H823 C833 0.929 . S
H824 C828 0.929 . S
H825 C834 0.929 . S
C826 H820 0.930 . S
C826 C827 1.367 . S
C826 C834 1.378 . S
C827 C826 1.367 . S
C827 C835 1.433 . S
C828 H824 0.929 . S
C828 C830 1.378 . S
C828 C832 1.350 . S
C829 C832 1.463 . S
C829 C834 1.350 . S
C829 N837 1.427 . S
C830 H821 0.930 . S
C830 C828 1.378 . S
C830 C831 1.367 . S
C831 C830 1.367 . S
C831 C833 1.433 . S
C832 C828 1.350 . S
C832 C829 1.463 . S
C832 N836 1.427 . S
C833 H823 0.929 . S
C833 C831 1.433 . S
C833 N836 1.384 . S
C834 H825 0.929 . S
C834 C826 1.378 . S
C834 C829 1.350 . S
C835 H822 0.929 . S
C835 C827 1.433 . S
C835 N837 1.384 . S
N836 C832 1.427 . S
N836 C833 1.384 . S
N837 C829 1.427 . S
N837 C835 1.384 . S
H838 C844 0.930 . S
H839 C848 0.930 . S
H840 C853 0.929 . S
H841 C851 0.929 . S
H842 C846 0.929 . S
H843 C852 0.929 . S
C844 H838 0.930 . S
C844 C845 1.367 . S
C844 C852 1.378 . S
C845 C844 1.367 . S
C845 C853 1.433 . S
C846 H842 0.929 . S
C846 C848 1.378 . S
C846 C850 1.350 . S
C847 C850 1.463 . S
C847 C852 1.350 . S
C847 N855 1.427 . S
C848 H839 0.930 . S
C848 C846 1.378 . S
C848 C849 1.367 . S
C849 C848 1.367 . S
C849 C851 1.433 . S
C850 C846 1.350 . S
C850 C847 1.463 . S
C850 N854 1.427 . S
C851 H841 0.929 . S
C851 C849 1.433 . S
C851 N854 1.384 . S
C852 H843 0.929 . S
C852 C844 1.378 . S
C852 C847 1.350 . S
C853 H840 0.929 . S
C853 C845 1.433 . S
C853 N855 1.384 . S
N854 C850 1.427 . S
N854 C851 1.384 . S
N855 C847 1.427 . S
N855 C853 1.384 . S
H856 C862 0.930 . S
H857 C866 0.930 1_455 S
H858 C871 0.929 . S
H859 C869 0.929 . S
H860 C864 0.929 . S
H861 C870 0.929 . S
C862 H856 0.930 . S
C862 C863 1.367 . S
C862 C870 1.378 . S
C863 C862 1.367 . S
C863 C871 1.433 . S
C864 H860 0.929 . S
C864 C866 1.378 . S
C864 C868 1.350 . S
C865 C868 1.463 . S
C865 C870 1.350 . S
C865 N873 1.427 . S
C866 H857 0.930 1_655 S
C866 C864 1.378 . S
C866 C867 1.367 . S
C867 C866 1.367 . S
C867 C869 1.433 . S
C868 C864 1.350 . S
C868 C865 1.463 . S
C868 N872 1.427 . S
C869 H859 0.929 . S
C869 C867 1.433 . S
C869 N872 1.384 . S
C870 H861 0.929 . S
C870 C862 1.378 . S
C870 C865 1.350 . S
C871 H858 0.929 . S
C871 C863 1.433 . S
C871 N873 1.384 . S
N872 C868 1.427 . S
N872 C869 1.384 . S
N873 C865 1.427 . S
N873 C871 1.384 . S
H874 C880 0.930 . S
H875 C884 0.930 . S
H876 C889 0.929 . S
H877 C887 0.929 . S
H878 C882 0.915 1_565 S
H879 C888 0.929 . S
C880 H874 0.930 . S
C880 C881 1.380 . S
C880 C888 1.378 . S
C881 C880 1.380 . S
C881 C889 1.433 1_545 S
C882 H878 0.915 1_545 S
C882 C884 1.378 . S
C882 C886 1.350 . S
C883 C886 1.463 . S
C883 C888 1.350 . S
C883 N891 1.427 1_545 S
C884 H875 0.930 . S
C884 C882 1.378 . S
C884 C885 1.367 . S
C885 C884 1.367 . S
C885 C887 1.433 . S
C886 C882 1.350 . S
C886 C883 1.463 . S
C886 N890 1.427 . S
C887 H877 0.929 . S
C887 C885 1.433 . S
C887 N890 1.384 . S
C888 H879 0.929 . S
C888 C880 1.378 . S
C888 C883 1.350 . S
C889 H876 0.929 . S
C889 C881 1.433 1_565 S
C889 N891 1.384 . S
N890 C886 1.427 . S
N890 C887 1.384 . S
N891 C883 1.427 1_565 S
N891 C889 1.384 . S
H892 C898 0.930 . S
H893 C902 0.930 . S
H894 C907 0.929 . S
H895 C905 0.929 . S
H896 C900 0.929 1_556 S
H897 C906 0.929 . S
C898 H892 0.930 . S
C898 C899 1.367 . S
C898 C906 1.378 . S
C899 C898 1.367 . S
C899 C907 1.433 . S
C900 H896 0.929 1_554 S
C900 C902 1.378 1_554 S
C900 C904 1.350 . S
C901 C904 1.463 . S
C901 C906 1.350 . S
C901 N909 1.427 . S
C902 H893 0.930 . S
C902 C900 1.378 1_556 S
C902 C903 1.367 1_556 S
C903 C902 1.367 1_554 S
C903 C905 1.433 . S
C904 C900 1.350 . S
C904 C901 1.463 . S
C904 N908 1.427 . S
C905 H895 0.929 . S
C905 C903 1.433 . S
C905 N908 1.384 . S
C906 H897 0.929 . S
C906 C898 1.378 . S
C906 C901 1.350 . S
C907 H894 0.929 . S
C907 C899 1.433 . S
C907 N909 1.384 . S
N908 C904 1.427 . S
N908 C905 1.384 . S
N909 C901 1.427 . S
N909 C907 1.384 . S
H910 C916 0.930 . S
H911 C920 0.930 . S
H912 C925 0.929 . S
H913 C923 0.929 . S
H914 C918 0.929 . S
H915 C924 0.929 . S
C916 H910 0.930 . S
C916 C917 1.367 . S
C916 C924 1.378 . S
C917 C916 1.367 . S
C917 C925 1.433 . S
C918 H914 0.929 . S
C918 C920 1.378 . S
C918 C922 1.350 . S
C919 C922 1.463 . S
C919 C924 1.350 . S
C919 N927 1.427 . S
C920 H911 0.930 . S
C920 C918 1.378 . S
C920 C921 1.367 . S
C921 C920 1.367 . S
C921 C923 1.433 . S
C922 C918 1.350 . S
C922 C919 1.463 . S
C922 N926 1.427 . S
C923 H913 0.929 . S
C923 C921 1.433 . S
C923 N926 1.384 . S
C924 H915 0.929 . S
C924 C916 1.378 . S
C924 C919 1.350 . S
C925 H912 0.929 . S
C925 C917 1.433 . S
C925 N927 1.384 . S
N926 C922 1.427 . S
N926 C923 1.384 . S
N927 C919 1.427 . S
N927 C925 1.384 . S
H928 C934 0.930 . S
H929 C938 0.930 . S
H930 C943 0.929 . S
H931 C941 0.929 . S
H932 C936 0.929 . S
H933 C942 0.929 . S
C934 H928 0.930 . S
C934 C935 1.367 . S
C934 C942 1.378 . S
C935 C934 1.367 . S
C935 C943 1.433 . S
C936 H932 0.929 . S
C936 C938 1.378 . S
C936 C940 1.350 . S
C937 C940 1.463 . S
C937 C942 1.350 . S
C937 N945 1.427 . S
C938 H929 0.930 . S
C938 C936 1.378 . S
C938 C939 1.367 . S
C939 C938 1.367 . S
C939 C941 1.433 . S
C940 C936 1.350 . S
C940 C937 1.463 . S
C940 N944 1.427 . S
C941 H931 0.929 . S
C941 C939 1.433 . S
C941 N944 1.384 . S
C942 H933 0.929 . S
C942 C934 1.378 . S
C942 C937 1.350 . S
C943 H930 0.929 . S
C943 C935 1.433 . S
C943 N945 1.384 . S
N944 C940 1.427 . S
N944 C941 1.384 . S
N945 C937 1.427 . S
N945 C943 1.384 . S
H946 C952 0.930 . S
H947 C956 0.930 . S
H948 C961 0.929 . S
H949 C959 0.939 . S
H950 C954 0.929 . S
H951 C960 0.929 . S
C952 H946 0.930 . S
C952 C953 1.367 1_565 S
C952 C960 1.378 . S
C953 C952 1.367 1_545 S
C953 C961 1.433 . S
C954 H950 0.929 . S
C954 C956 1.378 . S
C954 C958 1.350 . S
C955 C958 1.463 . S
C955 C960 1.350 1_545 S
C955 N963 1.427 . S
C956 H947 0.930 . S
C956 C954 1.378 . S
C956 C957 1.367 . S
C957 C956 1.367 . S
C957 C959 1.424 1_545 S
C958 C954 1.350 . S
C958 C955 1.463 . S
C958 N962 1.427 1_545 S
C959 H949 0.939 . S
C959 C957 1.424 1_565 S
C959 N962 1.382 . S
C960 H951 0.929 . S
C960 C952 1.378 . S
C960 C955 1.350 1_565 S
C961 H948 0.929 . S
C961 C953 1.433 . S
C961 N963 1.384 . S
N962 C958 1.427 1_565 S
N962 C959 1.382 . S
N963 C955 1.427 . S
N963 C961 1.384 . S
H964 C970 0.930 . S
H965 C974 0.930 1_554 S
H966 C979 0.929 . S
H967 C977 0.929 . S
H968 C972 0.929 . S
H969 C978 0.929 . S
C970 H964 0.930 . S
C970 C971 1.367 1_556 S
C970 C978 1.378 . S
C971 C970 1.367 1_554 S
C971 C979 1.433 . S
C972 H968 0.929 . S
C972 C974 1.378 1_554 S
C972 C976 1.350 1_554 S
C973 C976 1.463 . S
C973 C978 1.350 . S
C973 N981 1.427 1_556 S
C974 H965 0.930 1_556 S
C974 C972 1.378 1_556 S
C974 C975 1.367 . S
C975 C974 1.367 . S
C975 C977 1.433 . S
C976 C972 1.350 1_556 S
C976 C973 1.463 . S
C976 N980 1.427 . S
C977 H967 0.929 . S
C977 C975 1.433 . S
C977 N980 1.384 . S
C978 H969 0.929 . S
C978 C970 1.378 . S
C978 C973 1.350 . S
C979 H966 0.929 . S
C979 C971 1.433 . S
C979 N981 1.384 . S
N980 C976 1.427 . S
N980 C977 1.384 . S
N981 C973 1.427 1_554 S
N981 C979 1.384 . S
H982 C988 0.930 . S
H983 C992 0.930 . S
H984 C997 0.929 . S
H985 C995 0.929 . S
H986 C990 0.929 . S
H987 C996 0.929 . S
C988 H982 0.930 . S
C988 C989 1.367 . S
C988 C996 1.378 . S
C989 C988 1.367 . S
C989 C997 1.433 . S
C990 H986 0.929 . S
C990 C992 1.378 . S
C990 C994 1.350 . S
C991 C994 1.463 . S
C991 C996 1.350 . S
C991 N999 1.427 . S
C992 H983 0.930 . S
C992 C990 1.378 . S
C992 C993 1.367 . S
C993 C992 1.367 . S
C993 C995 1.433 . S
C994 C990 1.350 . S
C994 C991 1.463 . S
C994 N998 1.427 . S
C995 H985 0.929 . S
C995 C993 1.433 . S
C995 N998 1.384 . S
C996 H987 0.929 . S
C996 C988 1.378 . S
C996 C991 1.350 . S
C997 H984 0.929 . S
C997 C989 1.433 . S
C997 N999 1.384 . S
N998 C994 1.427 . S
N998 C995 1.384 . S
N999 C991 1.427 . S
N999 C997 1.384 . S
H1000 C1006 0.930 . S
H1001 C1010 0.930 . S
H1002 C1015 0.929 . S
H1003 C1013 0.929 . S
H1004 C1008 0.929 . S
H1005 C1014 0.929 . S
C1006 H1000 0.930 . S
C1006 C1007 1.367 . S
C1006 C1014 1.378 . S
C1007 C1006 1.367 . S
C1007 C1015 1.433 . S
C1008 H1004 0.929 . S
C1008 C1010 1.378 . S
C1008 C1012 1.350 . S
C1009 C1012 1.463 . S
C1009 C1014 1.350 . S
C1009 N1017 1.427 . S
C1010 H1001 0.930 . S
C1010 C1008 1.378 . S
C1010 C1011 1.367 . S
C1011 C1010 1.367 . S
C1011 C1013 1.433 . S
C1012 C1008 1.350 . S
C1012 C1009 1.463 . S
C1012 N1016 1.427 . S
C1013 H1003 0.929 . S
C1013 C1011 1.433 . S
C1013 N1016 1.384 . S
C1014 H1005 0.929 . S
C1014 C1006 1.378 . S
C1014 C1009 1.350 . S
C1015 H1002 0.929 . S
C1015 C1007 1.433 . S
C1015 N1017 1.384 . S
N1016 C1012 1.427 . S
N1016 C1013 1.384 . S
N1017 C1009 1.427 . S
N1017 C1015 1.384 . S
H1018 C1024 0.930 . S
H1019 C1028 0.930 1_545 S
H1020 C1033 0.929 . S
H1021 C1031 0.929 . S
H1022 C1026 0.929 1_545 S
H1023 C1032 0.929 . S
C1024 H1018 0.930 . S
C1024 C1025 1.367 . S
C1024 C1032 1.378 . S
C1025 C1024 1.367 . S
C1025 C1033 1.433 1_565 S
C1026 H1022 0.929 1_565 S
C1026 C1028 1.378 . S
C1026 C1030 1.350 . S
C1027 C1030 1.463 . S
C1027 C1032 1.350 . S
C1027 N1035 1.427 1_565 S
C1028 H1019 0.930 1_565 S
C1028 C1026 1.378 . S
C1028 C1029 1.367 . S
C1029 C1028 1.367 . S
C1029 C1031 1.433 . S
C1030 C1026 1.350 . S
C1030 C1027 1.463 . S
C1030 N1034 1.427 . S
C1031 H1021 0.929 . S
C1031 C1029 1.433 . S
C1031 N1034 1.384 . S
C1032 H1023 0.929 . S
C1032 C1024 1.378 . S
C1032 C1027 1.350 . S
C1033 H1020 0.929 . S
C1033 C1025 1.433 1_545 S
C1033 N1035 1.384 . S
N1034 C1030 1.427 . S
N1034 C1031 1.384 . S
N1035 C1027 1.427 1_545 S
N1035 C1033 1.384 . S
H1036 C1042 0.930 . S
H1037 C1046 0.930 . S
H1038 C1051 0.929 . S
H1039 C1049 0.929 . S
H1040 C1044 0.929 . S
H1041 C1050 0.929 . S
C1042 H1036 0.930 . S
C1042 C1043 1.367 . S
C1042 C1050 1.378 . S
C1043 C1042 1.367 . S
C1043 C1051 1.433 . S
C1044 H1040 0.929 . S
C1044 C1046 1.378 . S
C1044 C1048 1.350 . S
C1045 C1048 1.463 . S
C1045 C1050 1.350 . S
C1045 N1053 1.427 . S
C1046 H1037 0.930 . S
C1046 C1044 1.378 . S
C1046 C1047 1.367 . S
C1047 C1046 1.367 . S
C1047 C1049 1.433 . S
C1048 C1044 1.350 . S
C1048 C1045 1.463 . S
C1048 N1052 1.427 . S
C1049 H1039 0.929 . S
C1049 C1047 1.433 . S
C1049 N1052 1.384 . S
C1050 H1041 0.929 . S
C1050 C1042 1.378 . S
C1050 C1045 1.350 . S
C1051 H1038 0.929 . S
C1051 C1043 1.433 . S
C1051 N1053 1.384 . S
N1052 C1048 1.427 . S
N1052 C1049 1.384 . S
N1053 C1045 1.427 . S
N1053 C1051 1.384 . S
H1054 C1060 0.930 . S
H1055 C1064 0.930 . S
H1056 C1069 0.929 . S
H1057 C1067 0.929 . S
H1058 C1062 0.929 . S
H1059 C1068 0.929 . S
C1060 H1054 0.930 . S
C1060 C1061 1.367 . S
C1060 C1068 1.378 . S
C1061 C1060 1.367 . S
C1061 C1069 1.433 . S
C1062 H1058 0.929 . S
C1062 C1064 1.378 . S
C1062 C1066 1.350 . S
C1063 C1066 1.463 . S
C1063 C1068 1.350 . S
C1063 N1071 1.427 . S
C1064 H1055 0.930 . S
C1064 C1062 1.378 . S
C1064 C1065 1.367 . S
C1065 C1064 1.367 . S
C1065 C1067 1.433 . S
C1066 C1062 1.350 . S
C1066 C1063 1.463 . S
C1066 N1070 1.427 . S
C1067 H1057 0.929 . S
C1067 C1065 1.433 . S
C1067 N1070 1.384 . S
C1068 H1059 0.929 . S
C1068 C1060 1.378 . S
C1068 C1063 1.350 . S
C1069 H1056 0.929 . S
C1069 C1061 1.433 . S
C1069 N1071 1.384 . S
N1070 C1066 1.427 . S
N1070 C1067 1.384 . S
N1071 C1063 1.427 . S
N1071 C1069 1.384 . S
C647 C391 0.919 . S
C651 C489 0.919 . S
C669 C529 1.967 . S
C665 C451 2.133 . S
C687 C578 1.691 . S
C683 C241 1.691 . S
C705 C609 2.180 . S
C701 C331 2.060 . S
C723 C498 0.895 . S
C719 C121 0.917 1_545 S
C737 C211 2.045 . S
C741 C538 1.978 . S
C755 C31 1.713 1_556 S
C759 C569 1.682 . S
C773 C91 2.180 1_556 S
C777 C618 2.181 1_655 S
C795 C499 1.488 . S
C791 C301 1.086 . S
C813 C539 0.931 . S
C809 C380 0.894 1_565 S
C831 C575 0.640 . S
C827 C440 0.639 . S
C845 C260 1.322 . S
C849 C619 1.564 . S
C863 C61 1.228 . S
C867 C490 1.497 1_655 S
C885 C530 0.940 . S
C881 C140 0.847 1_545 S
C903 C566 0.632 1_554 S
C899 C200 0.653 . S
C917 C20 1.500 . S
C921 C610 1.565 . S
C935 C320 2.106 . S
C939 C495 2.210 . S
C953 C361 1.604 . S
C957 C535 1.745 . S
C975 C579 2.939 . S
C971 C421 2.495 . S
C993 C615 1.816 . S
C989 C271 1.808 . S
C1007 C80 2.183 . S
C1011 C486 2.220 . S
C1029 C526 1.740 . S
C1025 C151 1.726 . S
C1047 C570 2.939 . S
C1043 C181 2.392 . S
C1061 C1 1.682 . S
C1065 C606 1.813 . S
