# Generated by pormake.
# Topology anh, (6,3)-cn, num edge types: 1
# Building blocks:
#     Node 0, Type 0, BuildingBlock: CUWYAW_clean_sbu_0, # of connection points: 6
#     Node 1, Type 0, BuildingBlock: CUWYAW_clean_sbu_0, # of connection points: 6
#     Node 2, Type 0, BuildingBlock: CUWYAW_clean_sbu_0, # of connection points: 6
#     Node 3, Type 1, BuildingBlock: QEWDON_clean_linker_0, # of connection points: 3
#     Node 4, Type 1, BuildingBlock: QEWDON_clean_linker_0, # of connection points: 3
#     Node 5, Type 1, BuildingBlock: QEWDON_clean_linker_0, # of connection points: 3
#     Node 6, Type 1, BuildingBlock: QEWDON_clean_linker_0, # of connection points: 3
#     Node 7, Type 1, BuildingBlock: QEWDON_clean_linker_0, # of connection points: 3
#     Node 8, Type 1, BuildingBlock: QEWDON_clean_linker_0, # of connection points: 3
#     Edge 9, Type (0, 1), BuildingBlock: OJICUG_clean_linker_0, # of connection points: 2
#     Edge 10, Type (0, 1), BuildingBlock: OJICUG_clean_linker_0, # of connection points: 2
#     Edge 11, Type (0, 1), BuildingBlock: OJICUG_clean_linker_0, # of connection points: 2
#     Edge 12, Type (0, 1), BuildingBlock: OJICUG_clean_linker_0, # of connection points: 2
#     Edge 13, Type (0, 1), BuildingBlock: OJICUG_clean_linker_0, # of connection points: 2
#     Edge 14, Type (0, 1), BuildingBlock: OJICUG_clean_linker_0, # of connection points: 2
#     Edge 15, Type (0, 1), BuildingBlock: OJICUG_clean_linker_0, # of connection points: 2
#     Edge 16, Type (0, 1), BuildingBlock: OJICUG_clean_linker_0, # of connection points: 2
#     Edge 17, Type (0, 1), BuildingBlock: OJICUG_clean_linker_0, # of connection points: 2
#     Edge 18, Type (0, 1), BuildingBlock: OJICUG_clean_linker_0, # of connection points: 2
#     Edge 19, Type (0, 1), BuildingBlock: OJICUG_clean_linker_0, # of connection points: 2
#     Edge 20, Type (0, 1), BuildingBlock: OJICUG_clean_linker_0, # of connection points: 2
#     Edge 21, Type (0, 1), BuildingBlock: OJICUG_clean_linker_0, # of connection points: 2
#     Edge 22, Type (0, 1), BuildingBlock: OJICUG_clean_linker_0, # of connection points: 2
#     Edge 23, Type (0, 1), BuildingBlock: OJICUG_clean_linker_0, # of connection points: 2
#     Edge 24, Type (0, 1), BuildingBlock: OJICUG_clean_linker_0, # of connection points: 2
#     Edge 25, Type (0, 1), BuildingBlock: OJICUG_clean_linker_0, # of connection points: 2
#     Edge 26, Type (0, 1), BuildingBlock: OJICUG_clean_linker_0, # of connection points: 2
# Relax obj value: 0.347
# Max RMSD: 0.153
# Mean RMSD: 0.131
data_MOF--net-anh--node1-CUWYAW_clean_sbu_0--node2-QEWDON_clean_linker_0--edge1-OJICUG_clean_linker_0
_symmetry_space_group_name_H-M    P1
_symmetry_Int_Tables_number       1
_symmetry_cell_setting            triclinic
loop_
_symmetry_equiv_pos_as_xyz
'x, y, z'
_cell_length_a     24.078455
_cell_length_b     24.134821
_cell_length_c     35.646983
_cell_angle_alpha  94.266489
_cell_angle_beta   92.757655
_cell_angle_gamma 119.89607
loop_
_atom_site_label
_atom_site_type_symbol
_atom_site_fract_x
_atom_site_fract_y
_atom_site_fract_z
_atom_type_partial_charge
C0 C 1.13047 0.44718 0.13374 0.0
Eu1 Eu 0.21325 0.56772 0.1368 0.0
C2 C 1.07233 0.42756 0.15373 0.0
C3 C 1.08004 0.45196 0.19195 0.0
C4 C 1.03378 0.46336 0.20679 0.0
C5 C 0.97802 0.44917 0.18409 0.0
C6 C 0.96635 0.41663 0.14756 0.0
C7 C 1.01315 0.40588 0.13251 0.0
C8 C 0.24756 0.63352 0.20783 0.0
C9 C 1.11819 0.63077 0.13044 0.0
C10 C 0.33198 0.82714 0.14298 0.0
Eu11 Eu 0.27178 0.70222 0.13366 0.0
C12 C 0.37877 0.89205 0.13417 0.0
C13 C 0.35688 0.92411 0.11161 0.0
C14 C 0.3921 0.99086 0.11261 0.0
C15 C 0.45001 1.0265 0.1359 0.0
C16 C 0.47547 0.99395 0.15507 0.0
C17 C 0.43982 0.92713 0.15447 0.0
C18 C 0.2328 0.63303 0.06416 0.0
C19 C 0.36695 0.63771 0.13085 0.0
O20 O 1.1338 0.48032 0.10569 0.0
O21 O 0.18508 0.47343 0.15508 0.0
O22 O 0.25539 0.58574 0.19732 0.0
O23 O 0.22175 0.64557 0.18022 0.0
O24 O 1.12442 0.5799 0.12116 0.0
O25 O 0.1709 0.6849 0.14398 0.0
O26 O 0.34968 0.794 0.16289 0.0
O27 O 0.28253 0.79147 0.11829 0.0
O28 O 0.22779 0.68307 0.07305 0.0
O29 O 0.26115 0.62393 0.09134 0.0
O30 O 0.36321 0.69084 0.13863 0.0
O31 O 0.31233 0.58145 0.12425 0.0
H32 H 1.12489 0.46919 0.20935 0.0
H33 H 1.04449 0.48812 0.23508 0.0
H34 H 0.92269 0.40277 0.12978 0.0
H35 H 1.00588 0.38703 0.10302 0.0
H36 H 0.30977 0.89843 0.09581 0.0
H37 H 0.37163 1.01499 0.09764 0.0
H38 H 0.51984 1.02053 0.17358 0.0
H39 H 0.45767 0.90383 0.17231 0.0
C40 C 0.59814 0.26763 0.45653 0.0
Eu41 Eu 0.64761 0.19676 0.47221 0.0
C42 C 0.62422 0.32762 0.43897 0.0
C43 C 0.59547 0.36533 0.44306 0.0
C44 C 0.62829 0.42886 0.43487 0.0
C45 C 0.69112 0.45583 0.42364 0.0
C46 C 0.71637 0.41569 0.41518 0.0
C47 C 0.68243 0.35143 0.42227 0.0
C48 C 0.67633 0.16924 0.54053 0.0
C49 C 0.80944 0.28755 0.46704 0.0
C50 C 0.76093 1.05207 0.47206 0.0
Eu51 Eu 0.72438 0.13505 0.46588 0.0
C52 C 0.71749 0.98166 0.46465 0.0
C53 C 0.68903 0.95243 0.42778 0.0
C54 C 0.63442 0.89103 0.42205 0.0
C55 C 0.60684 0.85827 0.45308 0.0
C56 C 0.63849 0.8852 0.48954 0.0
C57 C 0.69343 0.94604 0.49524 0.0
C58 C 0.68947 0.16244 0.39985 0.0
C59 C 0.5615 1.04127 0.46211 0.0
O60 O 0.58826 0.2174 0.43445 0.0
O61 O 0.62605 0.27197 0.48993 0.0
O62 O 0.62106 0.16278 0.52925 0.0
O63 O 0.71539 0.19184 0.5155 0.0
O64 O 0.75102 0.28161 0.46341 0.0
O65 O 0.8135 0.23605 0.47302 0.0
O66 O 0.74957 1.07972 0.50141 0.0
O67 O 0.771 1.08426 0.44273 0.0
O68 O 0.74708 0.17257 0.40831 0.0
O69 O 0.65497 0.13796 0.42587 0.0
O70 O 0.61922 1.04588 0.46198 0.0
O71 O 0.55874 1.0949 0.46572 0.0
H72 H 0.55016 0.34742 0.45538 0.0
H73 H 0.60796 0.45903 0.44205 0.0
H74 H 0.76461 0.43543 0.40661 0.0
H75 H 0.70404 0.32199 0.41743 0.0
H76 H 0.70636 0.97836 0.40345 0.0
H77 H 0.61171 0.87087 0.39358 0.0
H78 H 0.61993 0.85976 0.5139 0.0
H79 H 0.71453 0.96695 0.5239 0.0
C80 C 0.92855 0.71424 0.79387 0.0
Eu81 Eu 0.81273 0.6831 0.80345 0.0
C82 C 0.9545 0.6824 0.81713 0.0
C83 C 0.95528 0.69111 0.85675 0.0
C84 C 0.94474 0.64158 0.8784 0.0
C85 C 0.93555 0.58303 0.86116 0.0
C86 C 0.94381 0.57776 0.82247 0.0
C87 C 0.95344 0.62709 0.80068 0.0
C88 C 0.79293 0.67556 0.87875 0.0
C89 C 0.74847 0.52476 0.80035 0.0
C90 C 0.5718 0.5711 0.83813 0.0
Eu91 Eu 0.68415 0.61235 0.81381 0.0
C92 C 0.51638 0.57819 0.82767 0.0
C93 C 0.50209 0.5847 0.79011 0.0
C94 C 0.4446 0.5828 0.77941 0.0
C95 C 0.40147 0.57557 0.8063 0.0
C96 C 0.418 0.57312 0.84429 0.0
C97 C 0.47501 0.57418 0.85486 0.0
C98 C 0.69943 0.6102 0.73936 0.0
C99 C 0.74579 0.76901 0.80078 0.0
O100 O 0.8811 0.67475 0.76861 0.0
O101 O 0.91565 0.75452 0.81261 0.0
O102 O 0.83086 0.72763 0.8646 0.0
O103 O 0.76605 0.62978 0.8527 0.0
O104 O 0.79244 0.5785 0.78791 0.0
O105 O 0.70271 0.52758 0.81813 0.0
O106 O 0.62356 0.62267 0.85423 0.0
O107 O 0.5842 0.53816 0.81262 0.0
O108 O 0.65853 0.56149 0.75521 0.0
O109 O 0.72932 0.65967 0.76307 0.0
O110 O 0.69883 0.71674 0.8136 0.0
O111 O 0.7965 0.76623 0.79032 0.0
H112 H 0.95667 0.73326 0.87073 0.0
H113 H 0.93977 0.64792 0.90819 0.0
H114 H 0.94008 0.53437 0.80862 0.0
H115 H 0.95292 0.61886 0.77033 0.0
H116 H 0.53412 0.58868 0.76881 0.0
H117 H 0.43291 0.58502 0.75004 0.0
H118 H 0.38514 0.56668 0.8655 0.0
H119 H 0.48557 0.56935 0.88393 0.0
H120 H 0.67566 0.37771 0.31059 0.0
C121 C 0.64013 0.34489 0.28788 0.0
C122 C 0.6104 0.27834 0.28948 0.0
C123 C 0.62948 0.36917 0.25529 0.0
H124 H 0.54717 0.18496 0.25894 0.0
C125 C 0.56761 0.23648 0.25895 0.0
C126 C 0.55763 0.2601 0.22617 0.0
C127 C 0.58766 0.32642 0.22451 0.0
C128 C 0.67711 0.43479 0.24838 0.0
H129 H 0.5839 0.34433 0.19805 0.0
C130 C 0.74005 0.44796 0.24568 0.0
C131 C 0.78555 0.50394 0.23167 0.0
C132 C 0.6598 0.47968 0.23853 0.0
H133 H 0.61078 0.46954 0.23968 0.0
C134 C 0.70586 0.53735 0.2261 0.0
H135 H 0.75195 0.41129 0.25131 0.0
C136 C 0.76835 0.54912 0.22198 0.0
H137 H 0.80258 0.59245 0.21064 0.0
H138 H 0.69237 0.57181 0.21837 0.0
H139 H 0.55934 0.58913 0.58693 0.0
C140 C 0.59449 0.59699 0.56698 0.0
C141 C 0.65777 0.61524 0.58019 0.0
C142 C 0.57686 0.59001 0.52831 0.0
H143 H 0.75247 0.64112 0.56531 0.0
C144 C 0.70405 0.62768 0.55457 0.0
C145 C 0.68636 0.61747 0.51534 0.0
C146 C 0.62243 0.59911 0.50284 0.0
C147 C 0.51273 0.57835 0.51402 0.0
H148 H 0.60617 0.58874 0.47298 0.0
C149 C 0.51025 0.6178 0.4881 0.0
C150 C 0.45221 0.61401 0.47595 0.0
C151 C 0.45526 0.53241 0.52715 0.0
H152 H 0.45584 0.50115 0.54725 0.0
C153 C 0.39655 0.52716 0.51444 0.0
H154 H 0.55497 0.65549 0.47946 0.0
C155 C 0.39501 0.56865 0.48939 0.0
H156 H 0.34996 0.56645 0.4813 0.0
H157 H 0.35244 0.4921 0.52487 0.0
H158 H 1.13496 0.47527 0.90022 0.0
C159 C 1.08535 0.44334 0.90494 0.0
C160 C 1.06899 0.44202 0.94223 0.0
C161 C 1.03712 0.41039 0.87433 0.0
H162 H 0.99163 0.41762 0.97702 0.0
C163 C 1.00383 0.41078 0.94882 0.0
C164 C 0.95708 0.39156 0.91798 0.0
C165 C 0.9729 0.37568 0.88284 0.0
C166 C 1.05212 0.42459 0.83455 0.0
H167 H 0.9351 0.34947 0.86006 0.0
C168 C 1.11514 0.44806 0.82469 0.0
C169 C 1.13382 0.47562 0.79096 0.0
C170 C 1.00651 0.42405 0.80766 0.0
H171 H 0.95777 0.40895 0.81376 0.0
C172 C 1.02416 0.4469 0.77268 0.0
H173 H 1.15138 0.4482 0.84396 0.0
C174 C 1.08798 0.47361 0.76447 0.0
H175 H 1.10196 0.49466 0.73828 0.0
H176 H 0.98879 0.44665 0.75263 0.0
H177 H 0.16257 0.62512 0.37784 0.0
C178 C 0.20468 0.66841 0.39122 0.0
C179 C 0.25275 0.70696 0.36827 0.0
C180 C 0.209 0.68654 0.43039 0.0
H181 H 0.34377 0.79318 0.36643 0.0
C182 C 0.30751 0.76455 0.38454 0.0
C183 C 0.31692 0.78589 0.42338 0.0
C184 C 0.26691 0.74628 0.44607 0.0
C185 C 1.15168 0.64574 0.45381 0.0
H186 H 0.27454 0.7619 0.47599 0.0
C187 C 1.10002 0.57887 0.44331 0.0
C188 C 1.04649 0.54667 0.46618 0.0
C189 C 1.14651 0.67676 0.4874 0.0
H190 H 0.18064 0.72671 0.49668 0.0
C191 C 1.09607 0.64558 0.50965 0.0
H192 H 1.1007 0.55235 0.4177 0.0
C193 C 1.04728 0.58228 0.49932 0.0
H194 H 1.00905 0.56086 0.51765 0.0
H195 H 1.09422 0.67148 0.53526 0.0
H196 H 0.72239 0.11073 0.71346 0.0
C197 C 0.73043 0.15614 0.72694 0.0
C198 C 0.73295 0.20224 0.70368 0.0
C199 C 0.73664 0.16745 0.76687 0.0
H200 H 0.74116 0.29478 0.70167 0.0
C201 C 0.74117 0.26111 0.72018 0.0
C202 C 0.74581 0.27605 0.75958 0.0
C203 C 0.74414 0.22877 0.78267 0.0
C204 C 0.73102 0.11402 0.79144 0.0
H205 H 0.7501 0.24124 0.81288 0.0
C206 C 0.73829 1.05865 0.77922 0.0
C207 C 0.72881 1.00981 0.80403 0.0
C208 C 0.71455 0.11715 0.82861 0.0
H209 H 0.70535 0.15431 0.83972 0.0
C210 C 0.70724 1.07154 0.85264 0.0
H211 H 0.75023 1.05289 0.7509 0.0
C212 C 0.71422 1.01936 0.84074 0.0
H213 H 0.70755 0.98542 0.8608 0.0
H214 H 0.69489 1.07625 0.88105 0.0
H215 H 0.72817 0.64959 0.04951 0.0
C216 C 0.76641 0.64352 0.06196 0.0
C217 C 0.81143 0.64272 0.03832 0.0
C218 C 0.77262 0.64102 0.10128 0.0
H219 H 0.89768 0.63741 0.03496 0.0
C220 C 0.86351 0.63749 0.05366 0.0
C221 C 0.87306 0.63342 0.09245 0.0
C222 C 0.82709 0.6356 0.1161 0.0
C223 C 0.72576 0.64981 0.12645 0.0
H224 H 0.83375 0.632 0.14581 0.0
C225 C 0.66234 0.63963 0.11348 0.0
C226 C 0.62436 0.65432 0.13851 0.0
C227 C 0.74753 0.67394 0.16469 0.0
H228 H 0.79461 0.68508 0.1764 0.0
C229 C 0.71061 0.6869 0.18888 0.0
H230 H 0.64294 0.62151 0.08437 0.0
C231 C 0.6506 0.67741 0.17616 0.0
H232 H 0.62431 0.68877 0.19623 0.0
H233 H 0.72932 0.70545 0.21809 0.0
C234 C 0.43903 0.58651 0.12018 0.0
C235 C 0.43291 0.64163 0.12869 0.0
H236 H 0.50188 0.54636 0.11539 0.0
C237 C 0.49147 0.70092 0.1358 0.0
H238 H 0.39607 0.53958 0.11446 0.0
C239 C 0.55241 0.70473 0.13582 0.0
C240 C 0.55885 0.64971 0.12836 0.0
H241 H 0.49047 0.7449 0.14244 0.0
H242 H 0.59527 0.75135 0.14325 0.0
C243 C 0.50039 0.59041 0.12012 0.0
C244 C 0.93351 0.36056 0.46425 0.0
C245 C 0.87082 0.35274 0.46318 0.0
H246 H 1.03664 0.425 0.46496 0.0
C247 C 0.86787 0.40893 0.45843 0.0
H248 H 0.93932 0.31952 0.46781 0.0
C249 C 0.92403 0.46951 0.45611 0.0
C250 C 0.98692 0.478 0.45807 0.0
H251 H 0.82185 0.40673 0.45761 0.0
H252 H 0.91833 0.51105 0.45435 0.0
C253 C 0.99003 0.42155 0.46191 0.0
C254 C 0.79158 0.88861 0.78728 0.0
C255 C 0.74043 0.83001 0.79738 0.0
H256 H 0.82888 0.9896 0.78046 0.0
C257 C 0.68376 0.83101 0.80477 0.0
H258 H 0.83637 0.89119 0.7812 0.0
C259 C 0.67913 0.88743 0.80354 0.0
C260 C 0.73077 0.94684 0.79489 0.0
H261 H 0.64268 0.78805 0.8124 0.0
H262 H 0.63502 0.88515 0.81101 0.0
C263 C 0.78702 0.9456 0.78626 0.0
C264 C 1.00462 0.58344 0.09538 0.0
C265 C 1.05291 0.62815 0.12356 0.0
H266 H 0.91263 0.54986 0.06384 0.0
C267 C 1.03858 0.67195 0.14353 0.0
H268 H 1.01253 0.54881 0.079 0.0
C269 C 0.97942 0.67138 0.13545 0.0
C270 C 0.93221 0.62811 0.10626 0.0
H271 H 1.0736 0.70745 0.16544 0.0
H272 H 0.97196 0.70692 0.15111 0.0
C273 C 0.94653 0.58405 0.08664 0.0
C274 C 0.49788 0.92116 0.43564 0.0
C275 C 0.49899 0.97475 0.45536 0.0
H276 H 0.44269 0.82244 0.41064 0.0
C277 C 0.43893 0.96374 0.46687 0.0
H278 H 0.54166 0.92667 0.42543 0.0
C279 C 0.38104 0.90244 0.45885 0.0
C280 C 0.37994 0.84937 0.43814 0.0
H281 H 0.4364 1.00292 0.48197 0.0
H282 H 0.33648 0.89746 0.4676 0.0
C283 C 0.44018 0.86067 0.42696 0.0
C284 C 0.70996 0.40458 0.80928 0.0
C285 C 0.75002 0.46146 0.79269 0.0
H286 H 0.6779 0.30383 0.8134 0.0
C287 C 0.79167 0.4567 0.76761 0.0
H288 H 0.67711 0.40496 0.82885 0.0
C289 C 0.79192 0.39834 0.75863 0.0
C290 C 0.75112 0.34095 0.77446 0.0
H291 H 0.82381 0.49826 0.75406 0.0
H292 H 0.82411 0.39807 0.73852 0.0
C293 C 0.71084 0.34601 0.80062 0.0
C294 C 0.53838 0.74621 0.42085 0.0
C295 C 0.54631 0.79532 0.44809 0.0
H296 H 0.49472 0.64458 0.40687 0.0
C297 C 0.50064 0.78086 0.47443 0.0
H298 H 0.57197 0.75606 0.3997 0.0
C299 C 0.45575 0.71699 0.47811 0.0
C300 C 0.45746 0.66744 0.45603 0.0
H301 H 0.5039 0.81838 0.49469 0.0
H302 H 0.42784 0.70672 0.50224 0.0
C303 C 0.49322 0.68229 0.4245 0.0
C304 C 0.94797 0.53855 0.92031 0.0
C305 C 0.91913 0.52811 0.8834 0.0
H306 H 0.97572 0.49985 0.96379 0.0
C307 C 0.87873 0.46435 0.86693 0.0
H308 H 0.9773 0.58667 0.93479 0.0
C309 C 0.87745 0.41341 0.88387 0.0
C310 C 0.91993 0.42635 0.91622 0.0
H311 H 0.85222 0.45421 0.83957 0.0
H312 H 0.85131 0.36577 0.8684 0.0
C313 C 0.94662 0.48768 0.93713 0.0
C314 C 0.43554 0.11533 0.16359 0.0
C315 C 0.47594 1.09564 0.14735 0.0
H316 H 0.43077 0.18531 0.20194 0.0
C317 C 0.5424 0.13891 0.14999 0.0
H318 H 0.38414 1.08245 0.16232 0.0
C319 C 0.56867 0.19825 0.17194 0.0
C320 C 0.52882 0.2143 0.1919 0.0
H321 H 0.57434 0.12461 0.13778 0.0
H322 H 0.62058 0.22843 0.17666 0.0
C323 C 0.46197 0.17414 0.18615 0.0
C324 C 0.71585 0.56785 0.42218 0.0
C325 C 0.73447 0.52522 0.4346 0.0
H326 H 0.69189 0.63925 0.43956 0.0
C327 C 0.76936 0.54094 0.47022 0.0
H328 H 0.69142 0.55862 0.39415 0.0
C329 C 0.76455 0.58286 0.4972 0.0
C330 C 0.72816 0.61163 0.48746 0.0
H331 H 0.78707 0.51052 0.47992 0.0
H332 H 0.77959 0.58315 0.52632 0.0
C333 C 0.7146 0.61281 0.44865 0.0
C334 C 0.30863 0.59146 0.81653 0.0
C335 C 0.33603 0.56237 0.79466 0.0
H336 H 0.22148 0.58638 0.83166 0.0
C337 C 0.29709 0.51239 0.7659 0.0
H338 H 0.33784 0.63046 0.83855 0.0
C339 C 0.23053 0.4873 0.76192 0.0
C340 C 0.20283 0.51234 0.78652 0.0
H341 H 0.31718 0.48899 0.74882 0.0
H342 H 0.20045 0.44523 0.74191 0.0
C343 C 0.24239 0.56651 0.8125 0.0
C344 C 0.90514 0.49405 0.17244 0.0
C345 C 0.9346 0.47189 0.19761 0.0
H346 H 0.83583 0.52405 0.16395 0.0
C347 C 0.92278 0.47239 0.23582 0.0
H348 H 0.91435 0.4958 0.14305 0.0
C349 C 0.87936 0.49047 0.24796 0.0
C350 C 0.84609 0.50748 0.22209 0.0
H351 H 0.94446 0.45573 0.25608 0.0
H352 H 0.86815 0.48659 0.27708 0.0
C353 C 0.8613 0.51177 0.18456 0.0
C354 C 0.1641 0.60002 0.00327 0.0
C355 C 0.19709 0.58579 0.03088 0.0
H356 H 1.09828 0.56499 0.95319 0.0
C357 C 0.19138 0.52463 0.02779 0.0
H358 H 0.16777 0.64675 0.00491 0.0
C359 C 1.1506 0.47739 -0.00154 0.0
C360 C 1.1163 0.49147 0.97167 0.0
H361 H 0.21663 0.51264 0.0487 0.0
H362 H 1.14489 0.42982 -0.00289 0.0
C363 C 1.12433 0.55336 0.97381 0.0
C364 C 0.60509 0.16688 0.35992 0.0
C365 C 0.67073 0.19085 0.37023 0.0
H366 H 0.53453 0.17738 0.32746 0.0
C367 C 0.7168 0.24501 0.35471 0.0
H368 H 0.56868 0.12521 0.37167 0.0
C369 C 0.6972 0.27528 0.32958 0.0
C370 C 0.6313 0.25142 0.31944 0.0
H371 H 0.7677 0.26471 0.36261 0.0
H372 H 0.73357 0.31641 0.31743 0.0
C373 C 0.58554 0.19696 0.33491 0.0
C374 C 0.64688 0.55617 0.6755 0.0
C375 C 0.69391 0.61154 0.69827 0.0
H376 H 0.59872 0.51467 0.62019 0.0
C377 C 0.73226 0.66785 0.68161 0.0
H378 H 0.61697 0.51192 0.68753 0.0
C379 C 0.72209 0.66908 0.64274 0.0
C380 C 0.67295 0.61431 0.62051 0.0
H381 H 0.76902 0.71104 0.69866 0.0
H382 H 0.75105 0.7131 0.63029 0.0
C383 C 0.63622 0.55769 0.63705 0.0
C384 C 0.64863 0.13193 0.60444 0.0
C385 C 0.69504 0.17205 0.58148 0.0
H386 H 0.62492 0.10879 0.66076 0.0
C387 C 0.75627 0.2187 0.5989 0.0
H388 H 0.60093 1.09574 0.59192 0.0
C389 C 0.76943 0.22719 0.63851 0.0
C390 C 0.72236 0.18798 0.66149 0.0
H391 H 0.79285 0.2508 0.58212 0.0
H392 H 0.81595 0.26547 0.65133 0.0
C393 C 0.66236 0.13925 0.64386 0.0
C394 C 0.85177 0.71109 0.94395 0.0
C395 C 0.7968 0.66739 0.91962 0.0
H396 H 0.89984 0.73667 0.00018 0.0
C397 C 0.74643 0.61528 0.9346 0.0
H398 H 0.89161 0.75144 0.93325 0.0
C399 C 0.75062 0.60762 0.97319 0.0
C400 C 0.80605 0.65087 -0.00263 0.0
H401 H 0.70354 0.58079 0.91653 0.0
H402 H 0.71094 0.56735 0.98406 0.0
C403 C 0.85666 0.70247 0.98223 0.0
C404 C 0.25166 0.7115 0.26104 0.0
C405 C 0.2459 0.6521 0.24849 0.0
H406 H 0.25916 0.77579 0.3088 0.0
C407 C 0.23941 0.60992 0.27547 0.0
H408 H 0.25667 0.74496 0.24101 0.0
C409 C 0.2392 0.62676 0.31399 0.0
C410 C 0.24702 0.68691 0.32678 0.0
H411 H 0.2344 0.56354 0.26681 0.0
H412 H 0.23487 0.59344 0.33396 0.0
C413 C 0.2531 0.72907 0.29982 0.0
loop_
_geom_bond_atom_site_label_1
_geom_bond_atom_site_label_2
_geom_bond_distance
_geom_bond_site_symmetry_2
_ccdc_geom_bond_type
C0 Eu1 2.835 . S
C0 C2 1.500 . S
C0 O20 1.257 . S
C0 O21 1.260 . S
Eu1 C0 2.835 . S
Eu1 O20 2.473 . S
Eu1 O21 2.480 . S
Eu1 O22 2.430 . S
Eu1 O23 2.670 1_655 S
Eu1 O24 2.394 . S
Eu1 O29 2.355 . S
Eu1 O31 2.374 1_655 S
C2 C0 1.500 . S
C2 C3 1.377 . S
C2 C7 1.377 . S
C3 C2 1.377 . S
C3 C4 1.395 . S
C3 H32 0.931 . S
C4 C3 1.395 . S
C4 C5 1.383 . S
C4 H33 0.931 . S
C5 C4 1.383 . S
C5 C6 1.394 . S
C6 C5 1.394 . S
C6 C7 1.378 . S
C6 H34 0.931 . S
C7 C2 1.377 . S
C7 C6 1.378 . S
C7 H35 0.931 . S
C8 O22 1.259 1_455 S
C8 O23 1.270 . S
C9 O24 1.251 . S
C9 O25 1.251 . S
C10 Eu11 2.835 . S
C10 C12 1.500 . S
C10 O26 1.257 . S
C10 O27 1.260 . S
Eu11 C10 2.835 . S
Eu11 O23 2.355 . S
Eu11 O25 2.374 1_455 S
Eu11 O26 2.473 . S
Eu11 O27 2.480 . S
Eu11 O28 2.430 . S
Eu11 O29 2.670 1_455 S
Eu11 O30 2.394 . S
C12 C10 1.500 . S
C12 C13 1.377 . S
C12 C17 1.377 . S
C13 C12 1.377 . S
C13 C14 1.395 . S
C13 H36 0.931 . S
C14 C13 1.395 . S
C14 C15 1.383 . S
C14 H37 0.931 . S
C15 C14 1.383 . S
C15 C16 1.394 . S
C16 C15 1.394 . S
C16 C17 1.378 . S
C16 H38 0.931 . S
C17 C12 1.377 . S
C17 C16 1.378 . S
C17 H39 0.931 . S
C18 O28 1.259 . S
C18 O29 1.270 1_455 S
C19 O30 1.251 . S
C19 O31 1.251 . S
O20 C0 1.257 . S
O20 Eu1 2.473 . S
O21 C0 1.260 . S
O21 Eu1 2.480 . S
O22 Eu1 2.430 . S
O22 C8 1.259 1_655 S
O23 Eu1 2.670 1_455 S
O23 C8 1.270 . S
O23 Eu11 2.355 . S
O24 Eu1 2.394 . S
O24 C9 1.251 . S
O25 C9 1.251 . S
O25 Eu11 2.374 1_655 S
O26 C10 1.257 . S
O26 Eu11 2.473 . S
O27 C10 1.260 . S
O27 Eu11 2.480 . S
O28 Eu11 2.430 . S
O28 C18 1.259 . S
O29 Eu1 2.355 . S
O29 Eu11 2.670 1_655 S
O29 C18 1.270 1_655 S
O30 Eu11 2.394 . S
O30 C19 1.251 . S
O31 Eu1 2.374 1_455 S
O31 C19 1.251 . S
H32 C3 0.931 . S
H33 C4 0.931 . S
H34 C6 0.931 . S
H35 C7 0.931 . S
H36 C13 0.931 . S
H37 C14 0.931 . S
H38 C16 0.931 . S
H39 C17 0.931 . S
C40 Eu41 2.835 . S
C40 C42 1.500 . S
C40 O60 1.257 . S
C40 O61 1.260 . S
Eu41 C40 2.835 . S
Eu41 O60 2.473 . S
Eu41 O61 2.480 . S
Eu41 O62 2.430 . S
Eu41 O63 2.670 . S
Eu41 O64 2.394 . S
Eu41 O69 2.355 . S
Eu41 O71 2.374 1_545 S
C42 C40 1.500 . S
C42 C43 1.377 . S
C42 C47 1.377 . S
C43 C42 1.377 . S
C43 C44 1.395 . S
C43 H72 0.931 . S
C44 C43 1.395 . S
C44 C45 1.383 . S
C44 H73 0.931 . S
C45 C44 1.383 . S
C45 C46 1.394 . S
C46 C45 1.394 . S
C46 C47 1.378 . S
C46 H74 0.931 . S
C47 C42 1.377 . S
C47 C46 1.378 . S
C47 H75 0.931 . S
C48 O62 1.259 . S
C48 O63 1.270 . S
C49 O64 1.251 . S
C49 O65 1.251 . S
C50 Eu51 2.835 1_565 S
C50 C52 1.500 . S
C50 O66 1.257 . S
C50 O67 1.260 . S
Eu51 C50 2.835 1_545 S
Eu51 O63 2.355 . S
Eu51 O65 2.374 . S
Eu51 O66 2.473 1_545 S
Eu51 O67 2.480 1_545 S
Eu51 O68 2.430 . S
Eu51 O69 2.670 . S
Eu51 O70 2.394 1_545 S
C52 C50 1.500 . S
C52 C53 1.377 . S
C52 C57 1.377 . S
C53 C52 1.377 . S
C53 C54 1.395 . S
C53 H76 0.931 . S
C54 C53 1.395 . S
C54 C55 1.383 . S
C54 H77 0.931 . S
C55 C54 1.383 . S
C55 C56 1.394 . S
C56 C55 1.394 . S
C56 C57 1.378 . S
C56 H78 0.931 . S
C57 C52 1.377 . S
C57 C56 1.378 . S
C57 H79 0.931 . S
C58 O68 1.259 . S
C58 O69 1.270 . S
C59 O70 1.251 . S
C59 O71 1.251 . S
O60 C40 1.257 . S
O60 Eu41 2.473 . S
O61 C40 1.260 . S
O61 Eu41 2.480 . S
O62 Eu41 2.430 . S
O62 C48 1.259 . S
O63 Eu41 2.670 . S
O63 C48 1.270 . S
O63 Eu51 2.355 . S
O64 Eu41 2.394 . S
O64 C49 1.251 . S
O65 C49 1.251 . S
O65 Eu51 2.374 . S
O66 C50 1.257 . S
O66 Eu51 2.473 1_565 S
O67 C50 1.260 . S
O67 Eu51 2.480 1_565 S
O68 Eu51 2.430 . S
O68 C58 1.259 . S
O69 Eu41 2.355 . S
O69 Eu51 2.670 . S
O69 C58 1.270 . S
O70 Eu51 2.394 1_565 S
O70 C59 1.251 . S
O71 Eu41 2.374 1_565 S
O71 C59 1.251 . S
H72 C43 0.931 . S
H73 C44 0.931 . S
H74 C46 0.931 . S
H75 C47 0.931 . S
H76 C53 0.931 . S
H77 C54 0.931 . S
H78 C56 0.931 . S
H79 C57 0.931 . S
C80 Eu81 2.835 . S
C80 C82 1.500 . S
C80 O100 1.257 . S
C80 O101 1.260 . S
Eu81 C80 2.835 . S
Eu81 O100 2.473 . S
Eu81 O101 2.480 . S
Eu81 O102 2.430 . S
Eu81 O103 2.670 . S
Eu81 O104 2.394 . S
Eu81 O109 2.355 . S
Eu81 O111 2.374 . S
C82 C80 1.500 . S
C82 C83 1.377 . S
C82 C87 1.377 . S
C83 C82 1.377 . S
C83 C84 1.395 . S
C83 H112 0.931 . S
C84 C83 1.395 . S
C84 C85 1.383 . S
C84 H113 0.931 . S
C85 C84 1.383 . S
C85 C86 1.394 . S
C86 C85 1.394 . S
C86 C87 1.378 . S
C86 H114 0.931 . S
C87 C82 1.377 . S
C87 C86 1.378 . S
C87 H115 0.931 . S
C88 O102 1.259 . S
C88 O103 1.270 . S
C89 O104 1.251 . S
C89 O105 1.251 . S
C90 Eu91 2.835 . S
C90 C92 1.500 . S
C90 O106 1.257 . S
C90 O107 1.260 . S
Eu91 C90 2.835 . S
Eu91 O103 2.355 . S
Eu91 O105 2.374 . S
Eu91 O106 2.473 . S
Eu91 O107 2.480 . S
Eu91 O108 2.430 . S
Eu91 O109 2.670 . S
Eu91 O110 2.394 . S
C92 C90 1.500 . S
C92 C93 1.377 . S
C92 C97 1.377 . S
C93 C92 1.377 . S
C93 C94 1.395 . S
C93 H116 0.931 . S
C94 C93 1.395 . S
C94 C95 1.383 . S
C94 H117 0.931 . S
C95 C94 1.383 . S
C95 C96 1.394 . S
C96 C95 1.394 . S
C96 C97 1.378 . S
C96 H118 0.931 . S
C97 C92 1.377 . S
C97 C96 1.378 . S
C97 H119 0.931 . S
C98 O108 1.259 . S
C98 O109 1.270 . S
C99 O110 1.251 . S
C99 O111 1.251 . S
O100 C80 1.257 . S
O100 Eu81 2.473 . S
O101 C80 1.260 . S
O101 Eu81 2.480 . S
O102 Eu81 2.430 . S
O102 C88 1.259 . S
O103 Eu81 2.670 . S
O103 C88 1.270 . S
O103 Eu91 2.355 . S
O104 Eu81 2.394 . S
O104 C89 1.251 . S
O105 C89 1.251 . S
O105 Eu91 2.374 . S
O106 C90 1.257 . S
O106 Eu91 2.473 . S
O107 C90 1.260 . S
O107 Eu91 2.480 . S
O108 Eu91 2.430 . S
O108 C98 1.259 . S
O109 Eu81 2.355 . S
O109 Eu91 2.670 . S
O109 C98 1.270 . S
O110 Eu91 2.394 . S
O110 C99 1.251 . S
O111 Eu81 2.374 . S
O111 C99 1.251 . S
H112 C83 0.931 . S
H113 C84 0.931 . S
H114 C86 0.931 . S
H115 C87 0.931 . S
H116 C93 0.931 . S
H117 C94 0.931 . S
H118 C96 0.931 . S
H119 C97 0.931 . S
H120 C121 0.949 . S
C121 H120 0.949 . S
C121 C122 1.395 . S
C121 C123 1.391 . S
C122 C121 1.395 . S
C122 C125 1.390 1_545 S
C123 C121 1.391 . S
C123 C127 1.387 . S
C123 C128 1.491 . S
H124 C125 0.950 . S
C125 C122 1.390 1_565 S
C125 H124 0.950 . S
C125 C126 1.378 . S
C126 C125 1.378 . S
C126 C127 1.409 1_565 S
C127 C123 1.387 . S
C127 C126 1.409 1_545 S
C127 H129 0.951 . S
C128 C123 1.491 . S
C128 C130 1.382 . S
C128 C132 1.404 . S
H129 C127 0.951 . S
C130 C128 1.382 . S
C130 C131 1.390 . S
C130 H135 0.949 . S
C131 C130 1.390 . S
C131 C136 1.399 . S
C132 C128 1.404 . S
C132 H133 0.950 . S
C132 C134 1.375 . S
H133 C132 0.950 . S
C134 C132 1.375 . S
C134 C136 1.382 . S
C134 H138 0.950 . S
H135 C130 0.949 . S
C136 C131 1.399 . S
C136 C134 1.382 . S
C136 H137 0.952 . S
H137 C136 0.952 . S
H138 C134 0.950 . S
H139 C140 0.949 . S
C140 H139 0.949 . S
C140 C141 1.395 . S
C140 C142 1.391 . S
C141 C140 1.395 . S
C141 C144 1.390 . S
C142 C140 1.391 . S
C142 C146 1.387 . S
C142 C147 1.491 . S
H143 C144 0.950 . S
C144 C141 1.390 . S
C144 H143 0.950 . S
C144 C145 1.378 . S
C145 C144 1.378 . S
C145 C146 1.409 . S
C146 C142 1.387 . S
C146 C145 1.409 . S
C146 H148 0.951 . S
C147 C142 1.491 . S
C147 C149 1.382 . S
C147 C151 1.404 . S
H148 C146 0.951 . S
C149 C147 1.382 . S
C149 C150 1.390 . S
C149 H154 0.949 . S
C150 C149 1.390 . S
C150 C155 1.399 . S
C151 C147 1.404 . S
C151 H152 0.950 . S
C151 C153 1.375 . S
H152 C151 0.950 . S
C153 C151 1.375 . S
C153 C155 1.382 . S
C153 H157 0.950 . S
H154 C149 0.949 . S
C155 C150 1.399 . S
C155 C153 1.382 . S
C155 H156 0.952 . S
H156 C155 0.952 . S
H157 C153 0.950 . S
H158 C159 0.949 . S
C159 H158 0.949 . S
C159 C160 1.395 1_455 S
C159 C161 1.391 . S
C160 C159 1.395 1_655 S
C160 C163 1.390 . S
C161 C159 1.391 . S
C161 C165 1.387 1_455 S
C161 C166 1.491 . S
H162 C163 0.950 . S
C163 C160 1.390 . S
C163 H162 0.950 . S
C163 C164 1.378 . S
C164 C163 1.378 . S
C164 C165 1.409 . S
C165 C161 1.387 1_655 S
C165 C164 1.409 . S
C165 H167 0.951 . S
C166 C161 1.491 . S
C166 C168 1.382 . S
C166 C170 1.404 . S
H167 C165 0.951 . S
C168 C166 1.382 . S
C168 C169 1.390 . S
C168 H173 0.949 . S
C169 C168 1.390 . S
C169 C174 1.399 . S
C170 C166 1.404 . S
C170 H171 0.950 . S
C170 C172 1.375 . S
H171 C170 0.950 . S
C172 C170 1.375 . S
C172 C174 1.382 . S
C172 H176 0.950 . S
H173 C168 0.949 . S
C174 C169 1.399 . S
C174 C172 1.382 . S
C174 H175 0.952 . S
H175 C174 0.952 . S
H176 C172 0.950 . S
H177 C178 0.949 1_655 S
C178 H177 0.949 1_455 S
C178 C179 1.395 . S
C178 C180 1.391 . S
C179 C178 1.395 . S
C179 C182 1.390 . S
C180 C178 1.391 . S
C180 C184 1.387 . S
C180 C185 1.491 1_455 S
H181 C182 0.950 . S
C182 C179 1.390 . S
C182 H181 0.950 . S
C182 C183 1.378 . S
C183 C182 1.378 . S
C183 C184 1.409 . S
C184 C180 1.387 . S
C184 C183 1.409 . S
C184 H186 0.951 . S
C185 C180 1.491 1_655 S
C185 C187 1.382 . S
C185 C189 1.404 . S
H186 C184 0.951 . S
C187 C185 1.382 . S
C187 C188 1.390 . S
C187 H192 0.949 . S
C188 C187 1.390 . S
C188 C193 1.399 . S
C189 C185 1.404 . S
C189 H190 0.950 . S
C189 C191 1.375 . S
H190 C189 0.950 . S
C191 C189 1.375 . S
C191 C193 1.382 . S
C191 H195 0.950 . S
H192 C187 0.949 . S
C193 C188 1.399 . S
C193 C191 1.382 . S
C193 H194 0.952 . S
H194 C193 0.952 . S
H195 C191 0.950 . S
H196 C197 0.949 1_565 S
C197 H196 0.949 1_545 S
C197 C198 1.395 . S
C197 C199 1.391 . S
C198 C197 1.395 . S
C198 C201 1.390 . S
C199 C197 1.391 . S
C199 C203 1.387 . S
C199 C204 1.491 1_545 S
H200 C201 0.950 . S
C201 C198 1.390 . S
C201 H200 0.950 . S
C201 C202 1.378 . S
C202 C201 1.378 . S
C202 C203 1.409 . S
C203 C199 1.387 . S
C203 C202 1.409 . S
C203 H205 0.951 . S
C204 C199 1.491 1_565 S
C204 C206 1.382 . S
C204 C208 1.404 . S
H205 C203 0.951 . S
C206 C204 1.382 . S
C206 C207 1.390 . S
C206 H211 0.949 . S
C207 C206 1.390 . S
C207 C212 1.399 . S
C208 C204 1.404 . S
C208 H209 0.950 . S
C208 C210 1.375 . S
H209 C208 0.950 . S
C210 C208 1.375 . S
C210 C212 1.382 . S
C210 H214 0.950 . S
H211 C206 0.949 . S
C212 C207 1.399 . S
C212 C210 1.382 . S
C212 H213 0.952 . S
H213 C212 0.952 . S
H214 C210 0.950 . S
H215 C216 0.949 . S
C216 H215 0.949 . S
C216 C217 1.395 . S
C216 C218 1.391 . S
C217 C216 1.395 . S
C217 C220 1.390 . S
C218 C216 1.391 . S
C218 C222 1.387 . S
C218 C223 1.491 . S
H219 C220 0.950 . S
C220 C217 1.390 . S
C220 H219 0.950 . S
C220 C221 1.378 . S
C221 C220 1.378 . S
C221 C222 1.409 . S
C222 C218 1.387 . S
C222 C221 1.409 . S
C222 H224 0.951 . S
C223 C218 1.491 . S
C223 C225 1.382 . S
C223 C227 1.404 . S
H224 C222 0.951 . S
C225 C223 1.382 . S
C225 C226 1.390 . S
C225 H230 0.949 . S
C226 C225 1.390 . S
C226 C231 1.399 . S
C227 C223 1.404 . S
C227 H228 0.950 . S
C227 C229 1.375 . S
H228 C227 0.950 . S
C229 C227 1.375 . S
C229 C231 1.382 . S
C229 H233 0.950 . S
H230 C225 0.949 . S
C231 C226 1.399 . S
C231 C229 1.382 . S
C231 H232 0.952 . S
H232 C231 0.952 . S
H233 C229 0.950 . S
C234 C235 1.387 . S
C234 H238 0.950 . S
C234 C243 1.390 . S
C235 C234 1.387 . S
C235 C237 1.387 . S
H236 C243 0.950 . S
C237 C235 1.387 . S
C237 C239 1.390 . S
C237 H241 0.950 . S
H238 C234 0.950 . S
C239 C237 1.390 . S
C239 C240 1.387 . S
C239 H242 0.950 . S
C240 C239 1.387 . S
C240 C243 1.387 . S
H241 C237 0.950 . S
H242 C239 0.950 . S
C243 C234 1.390 . S
C243 H236 0.950 . S
C243 C240 1.387 . S
C244 C245 1.387 . S
C244 H248 0.950 . S
C244 C253 1.390 . S
C245 C244 1.387 . S
C245 C247 1.387 . S
H246 C253 0.950 . S
C247 C245 1.387 . S
C247 C249 1.390 . S
C247 H251 0.950 . S
H248 C244 0.950 . S
C249 C247 1.390 . S
C249 C250 1.387 . S
C249 H252 0.950 . S
C250 C249 1.387 . S
C250 C253 1.387 . S
H251 C247 0.950 . S
H252 C249 0.950 . S
C253 C244 1.390 . S
C253 H246 0.950 . S
C253 C250 1.387 . S
C254 C255 1.387 . S
C254 H258 0.950 . S
C254 C263 1.390 . S
C255 C254 1.387 . S
C255 C257 1.387 . S
H256 C263 0.950 . S
C257 C255 1.387 . S
C257 C259 1.390 . S
C257 H261 0.950 . S
H258 C254 0.950 . S
C259 C257 1.390 . S
C259 C260 1.387 . S
C259 H262 0.950 . S
C260 C259 1.387 . S
C260 C263 1.387 . S
H261 C257 0.950 . S
H262 C259 0.950 . S
C263 C254 1.390 . S
C263 H256 0.950 . S
C263 C260 1.387 . S
C264 C265 1.387 . S
C264 H268 0.950 . S
C264 C273 1.390 . S
C265 C264 1.387 . S
C265 C267 1.387 . S
H266 C273 0.950 . S
C267 C265 1.387 . S
C267 C269 1.390 . S
C267 H271 0.950 . S
H268 C264 0.950 . S
C269 C267 1.390 . S
C269 C270 1.387 . S
C269 H272 0.950 . S
C270 C269 1.387 . S
C270 C273 1.387 . S
H271 C267 0.950 . S
H272 C269 0.950 . S
C273 C264 1.390 . S
C273 H266 0.950 . S
C273 C270 1.387 . S
C274 C275 1.387 . S
C274 H278 0.950 . S
C274 C283 1.390 . S
C275 C274 1.387 . S
C275 C277 1.387 . S
H276 C283 0.950 . S
C277 C275 1.387 . S
C277 C279 1.390 . S
C277 H281 0.950 . S
H278 C274 0.950 . S
C279 C277 1.390 . S
C279 C280 1.387 . S
C279 H282 0.950 . S
C280 C279 1.387 . S
C280 C283 1.387 . S
H281 C277 0.950 . S
H282 C279 0.950 . S
C283 C274 1.390 . S
C283 H276 0.950 . S
C283 C280 1.387 . S
C284 C285 1.387 . S
C284 H288 0.950 . S
C284 C293 1.390 . S
C285 C284 1.387 . S
C285 C287 1.387 . S
H286 C293 0.950 . S
C287 C285 1.387 . S
C287 C289 1.390 . S
C287 H291 0.950 . S
H288 C284 0.950 . S
C289 C287 1.390 . S
C289 C290 1.387 . S
C289 H292 0.950 . S
C290 C289 1.387 . S
C290 C293 1.387 . S
H291 C287 0.950 . S
H292 C289 0.950 . S
C293 C284 1.390 . S
C293 H286 0.950 . S
C293 C290 1.387 . S
C294 C295 1.387 . S
C294 H298 0.950 . S
C294 C303 1.390 . S
C295 C294 1.387 . S
C295 C297 1.387 . S
H296 C303 0.950 . S
C297 C295 1.387 . S
C297 C299 1.390 . S
C297 H301 0.950 . S
H298 C294 0.950 . S
C299 C297 1.390 . S
C299 C300 1.387 . S
C299 H302 0.950 . S
C300 C299 1.387 . S
C300 C303 1.387 . S
H301 C297 0.950 . S
H302 C299 0.950 . S
C303 C294 1.390 . S
C303 H296 0.950 . S
C303 C300 1.387 . S
C304 C305 1.387 . S
C304 H308 0.950 . S
C304 C313 1.390 . S
C305 C304 1.387 . S
C305 C307 1.387 . S
H306 C313 0.950 . S
C307 C305 1.387 . S
C307 C309 1.390 . S
C307 H311 0.950 . S
H308 C304 0.950 . S
C309 C307 1.390 . S
C309 C310 1.387 . S
C309 H312 0.950 . S
C310 C309 1.387 . S
C310 C313 1.387 . S
H311 C307 0.950 . S
H312 C309 0.950 . S
C313 C304 1.390 . S
C313 H306 0.950 . S
C313 C310 1.387 . S
C314 C315 1.387 . S
C314 H318 0.950 . S
C314 C323 1.390 . S
C315 C314 1.387 . S
C315 C317 1.387 . S
H316 C323 0.950 1_545 S
C317 C315 1.387 . S
C317 C319 1.390 . S
C317 H321 0.950 . S
H318 C314 0.950 . S
C319 C317 1.390 . S
C319 C320 1.387 . S
C319 H322 0.950 . S
C320 C319 1.387 . S
C320 C323 1.387 . S
H321 C317 0.950 . S
H322 C319 0.950 . S
C323 C314 1.390 . S
C323 H316 0.950 1_565 S
C323 C320 1.387 . S
C324 C325 1.387 . S
C324 H328 0.950 . S
C324 C333 1.390 . S
C325 C324 1.387 . S
C325 C327 1.387 . S
H326 C333 0.950 . S
C327 C325 1.387 . S
C327 C329 1.390 . S
C327 H331 0.950 . S
H328 C324 0.950 . S
C329 C327 1.390 . S
C329 C330 1.387 . S
C329 H332 0.950 . S
C330 C329 1.387 . S
C330 C333 1.387 . S
H331 C327 0.950 . S
H332 C329 0.950 . S
C333 C324 1.390 . S
C333 H326 0.950 . S
C333 C330 1.387 . S
C334 C335 1.387 . S
C334 H338 0.950 . S
C334 C343 1.390 . S
C335 C334 1.387 . S
C335 C337 1.387 . S
H336 C343 0.950 . S
C337 C335 1.387 . S
C337 C339 1.390 . S
C337 H341 0.950 . S
H338 C334 0.950 . S
C339 C337 1.390 . S
C339 C340 1.387 . S
C339 H342 0.950 . S
C340 C339 1.387 . S
C340 C343 1.387 . S
H341 C337 0.950 . S
H342 C339 0.950 . S
C343 C334 1.390 . S
C343 H336 0.950 . S
C343 C340 1.387 . S
C344 C345 1.387 . S
C344 H348 0.950 . S
C344 C353 1.390 . S
C345 C344 1.387 . S
C345 C347 1.387 . S
H346 C353 0.950 . S
C347 C345 1.387 . S
C347 C349 1.390 . S
C347 H351 0.950 . S
H348 C344 0.950 . S
C349 C347 1.390 . S
C349 C350 1.387 . S
C349 H352 0.950 . S
C350 C349 1.387 . S
C350 C353 1.387 . S
H351 C347 0.950 . S
H352 C349 0.950 . S
C353 C344 1.390 . S
C353 H346 0.950 . S
C353 C350 1.387 . S
C354 C355 1.387 . S
C354 H358 0.950 . S
C354 C363 1.390 1_554 S
C355 C354 1.387 . S
C355 C357 1.387 1_655 S
H356 C363 0.950 . S
C357 C355 1.387 1_455 S
C357 C359 1.390 . S
C357 H361 0.950 . S
H358 C354 0.950 . S
C359 C357 1.390 . S
C359 C360 1.387 1_454 S
C359 H362 0.950 . S
C360 C359 1.387 1_656 S
C360 C363 1.387 . S
H361 C357 0.950 . S
H362 C359 0.950 . S
C363 C354 1.390 1_556 S
C363 H356 0.950 . S
C363 C360 1.387 . S
C364 C365 1.387 . S
C364 H368 0.950 . S
C364 C373 1.390 . S
C365 C364 1.387 . S
C365 C367 1.369 1_545 S
H366 C373 0.950 . S
C367 C365 1.369 1_565 S
C367 C369 1.389 . S
C367 H371 0.971 . S
H368 C364 0.950 . S
C369 C367 1.389 . S
C369 C370 1.384 1_565 S
C369 H372 0.953 . S
C370 C369 1.384 1_545 S
C370 C373 1.387 . S
H371 C367 0.971 . S
H372 C369 0.953 . S
C373 C364 1.390 . S
C373 H366 0.950 . S
C373 C370 1.387 . S
C374 C375 1.387 . S
C374 H378 0.950 . S
C374 C383 1.390 . S
C375 C374 1.387 . S
C375 C377 1.387 . S
H376 C383 0.950 . S
C377 C375 1.387 . S
C377 C379 1.390 . S
C377 H381 0.950 . S
H378 C374 0.950 . S
C379 C377 1.390 . S
C379 C380 1.387 . S
C379 H382 0.950 . S
C380 C379 1.387 . S
C380 C383 1.387 . S
H381 C377 0.950 . S
H382 C379 0.950 . S
C383 C374 1.390 . S
C383 H376 0.950 . S
C383 C380 1.387 . S
C384 C385 1.387 . S
C384 H388 0.950 1_545 S
C384 C393 1.391 . S
C385 C384 1.387 . S
C385 C387 1.387 . S
H386 C393 0.945 1_565 S
C387 C385 1.387 . S
C387 C389 1.390 . S
C387 H391 0.950 . S
H388 C384 0.950 1_565 S
C389 C387 1.390 . S
C389 C390 1.387 . S
C389 H392 0.950 . S
C390 C389 1.387 . S
C390 C393 1.391 . S
H391 C387 0.950 . S
H392 C389 0.950 . S
C393 C384 1.391 . S
C393 H386 0.945 1_545 S
C393 C390 1.391 . S
C394 C395 1.387 . S
C394 H398 0.950 . S
C394 C403 1.390 1_556 S
C395 C394 1.387 . S
C395 C397 1.387 . S
H396 C403 0.950 . S
C397 C395 1.387 . S
C397 C399 1.390 . S
C397 H401 0.950 . S
H398 C394 0.950 . S
C399 C397 1.390 . S
C399 C400 1.387 1_556 S
C399 H402 0.950 1_556 S
C400 C399 1.387 1_554 S
C400 C403 1.387 . S
H401 C397 0.950 . S
H402 C399 0.950 1_554 S
C403 C394 1.390 1_554 S
C403 H396 0.950 . S
C403 C400 1.387 . S
C404 C405 1.387 . S
C404 H408 0.950 . S
C404 C413 1.390 . S
C405 C404 1.387 . S
C405 C407 1.387 . S
H406 C413 0.950 . S
C407 C405 1.387 . S
C407 C409 1.390 . S
C407 H411 0.950 1_455 S
H408 C404 0.950 . S
C409 C407 1.390 . S
C409 C410 1.387 . S
C409 H412 0.950 . S
C410 C409 1.387 . S
C410 C413 1.387 . S
H411 C407 0.950 1_655 S
H412 C409 0.950 . S
C413 C404 1.390 . S
C413 H406 0.950 . S
C413 C410 1.387 . S
C235 C19 3.139 . S
C240 C226 3.067 . S
C245 C49 3.202 . S
C250 C188 3.132 . S
C255 C99 3.128 . S
C260 C207 3.060 . S
C265 C9 3.060 . S
C270 C221 3.024 . S
C280 C183 2.988 . S
C275 C59 3.024 . S
C290 C202 3.034 . S
C285 C89 3.068 . S
C295 C55 0.835 . S
C300 C150 0.783 . S
C305 C85 0.643 . S
C310 C164 0.552 . S
C315 C15 0.278 . S
C320 C126 0.200 . S
C330 C145 0.610 . S
C325 C45 0.665 . S
C340 C169 0.734 . S
C335 C95 0.715 . S
C345 C5 0.669 . S
C350 C131 0.703 . S
C360 C160 1.331 . S
C355 C18 1.361 1_655 S
C365 C58 1.175 . S
C370 C122 1.232 . S
C375 C98 1.276 . S
C380 C141 1.271 . S
C390 C198 1.752 . S
C385 C48 1.723 . S
C400 C217 1.783 . S
C395 C88 1.715 . S
C405 C8 1.710 . S
C410 C179 1.854 . S
