# Generated by pormake.
# Topology nom, (4,4)-cn, num edge types: 1
# Building blocks:
#     Node 0, Type 0, BuildingBlock: NAWXER_clean_linker_0, # of connection points: 4
#     Node 1, Type 0, BuildingBlock: NAWXER_clean_linker_0, # of connection points: 4
#     Node 2, Type 0, BuildingBlock: NAWXER_clean_linker_0, # of connection points: 4
#     Node 3, Type 0, BuildingBlock: NAWXER_clean_linker_0, # of connection points: 4
#     Node 4, Type 0, BuildingBlock: NAWXER_clean_linker_0, # of connection points: 4
#     Node 5, Type 0, BuildingBlock: NAWXER_clean_linker_0, # of connection points: 4
#     Node 6, Type 1, BuildingBlock: QUQFOY_clean_sbu_3, # of connection points: 4
#     Node 7, Type 1, BuildingBlock: QUQFOY_clean_sbu_3, # of connection points: 4
#     Node 8, Type 1, BuildingBlock: QUQFOY_clean_sbu_3, # of connection points: 4
#     Node 9, Type 1, BuildingBlock: QUQFOY_clean_sbu_3, # of connection points: 4
#     Node 10, Type 1, BuildingBlock: QUQFOY_clean_sbu_3, # of connection points: 4
#     Node 11, Type 1, BuildingBlock: QUQFOY_clean_sbu_3, # of connection points: 4
#     Edge 12, Type (0, 1), BuildingBlock: XUDNAN_clean_linker_2, # of connection points: 2
#     Edge 13, Type (0, 1), BuildingBlock: XUDNAN_clean_linker_2, # of connection points: 2
#     Edge 14, Type (0, 1), BuildingBlock: XUDNAN_clean_linker_2, # of connection points: 2
#     Edge 15, Type (0, 1), BuildingBlock: XUDNAN_clean_linker_2, # of connection points: 2
#     Edge 16, Type (0, 1), BuildingBlock: XUDNAN_clean_linker_2, # of connection points: 2
#     Edge 17, Type (0, 1), BuildingBlock: XUDNAN_clean_linker_2, # of connection points: 2
#     Edge 18, Type (0, 1), BuildingBlock: XUDNAN_clean_linker_2, # of connection points: 2
#     Edge 19, Type (0, 1), BuildingBlock: XUDNAN_clean_linker_2, # of connection points: 2
#     Edge 20, Type (0, 1), BuildingBlock: XUDNAN_clean_linker_2, # of connection points: 2
#     Edge 21, Type (0, 1), BuildingBlock: XUDNAN_clean_linker_2, # of connection points: 2
#     Edge 22, Type (0, 1), BuildingBlock: XUDNAN_clean_linker_2, # of connection points: 2
#     Edge 23, Type (0, 1), BuildingBlock: XUDNAN_clean_linker_2, # of connection points: 2
#     Edge 24, Type (0, 1), BuildingBlock: XUDNAN_clean_linker_2, # of connection points: 2
#     Edge 25, Type (0, 1), BuildingBlock: XUDNAN_clean_linker_2, # of connection points: 2
#     Edge 26, Type (0, 1), BuildingBlock: XUDNAN_clean_linker_2, # of connection points: 2
#     Edge 27, Type (0, 1), BuildingBlock: XUDNAN_clean_linker_2, # of connection points: 2
#     Edge 28, Type (0, 1), BuildingBlock: XUDNAN_clean_linker_2, # of connection points: 2
#     Edge 29, Type (0, 1), BuildingBlock: XUDNAN_clean_linker_2, # of connection points: 2
#     Edge 30, Type (0, 1), BuildingBlock: XUDNAN_clean_linker_2, # of connection points: 2
#     Edge 31, Type (0, 1), BuildingBlock: XUDNAN_clean_linker_2, # of connection points: 2
#     Edge 32, Type (0, 1), BuildingBlock: XUDNAN_clean_linker_2, # of connection points: 2
#     Edge 33, Type (0, 1), BuildingBlock: XUDNAN_clean_linker_2, # of connection points: 2
#     Edge 34, Type (0, 1), BuildingBlock: XUDNAN_clean_linker_2, # of connection points: 2
#     Edge 35, Type (0, 1), BuildingBlock: XUDNAN_clean_linker_2, # of connection points: 2
# Relax obj value: 0.007
# Max RMSD: 0.110
# Mean RMSD: 0.075
data_MOF--net-nom--node1-QUQFOY_clean_sbu_3--node2-NAWXER_clean_linker_0--edge1-XUDNAN_clean_linker_2
_symmetry_space_group_name_H-M    P1
_symmetry_Int_Tables_number       1
_symmetry_cell_setting            triclinic
loop_
_symmetry_equiv_pos_as_xyz
'x, y, z'
_cell_length_a     52.756123
_cell_length_b     53.931349
_cell_length_c     58.398921
_cell_angle_alpha  89.79321
_cell_angle_beta   90.134942
_cell_angle_gamma 120.08863
loop_
_atom_site_label
_atom_site_type_symbol
_atom_site_fract_x
_atom_site_fract_y
_atom_site_fract_z
_atom_type_partial_charge
C0 C 0.89398 0.48211 0.32989 0.0
C1 C 0.88155 0.45757 0.34392 0.0
C2 C 0.92328 0.49503 0.32331 0.0
C3 C 0.94066 0.48344 0.33032 0.0
C4 C 0.89907 0.44614 0.3511 0.0
C5 C 0.92847 0.45912 0.34448 0.0
C6 C 0.97185 0.4975 0.32378 0.0
C7 C 0.91762 0.46413 0.25952 0.0
C8 C 0.92275 0.48598 0.24378 0.0
C9 C 0.93681 0.46963 0.27793 0.0
C10 C 0.9613 0.49713 0.28099 0.0
C11 C 0.94796 0.51304 0.2464 0.0
C12 C 0.96698 0.51851 0.26475 0.0
C13 C 0.98142 0.50431 0.3008 0.0
C14 C 0.11235 0.55687 0.30884 0.0
C15 C 0.12199 0.58296 0.29708 0.0
C16 C 0.08269 0.53911 0.31402 0.0
C17 C 0.0621 0.5469 0.30726 0.0
C18 C 0.10103 0.59039 0.29023 0.0
C19 C 0.07138 0.57234 0.29497 0.0
C20 C 0.03096 0.5293 0.31363 0.0
C21 C 0.08287 0.57727 0.37399 0.0
C22 C 0.08368 0.55987 0.39154 0.0
C23 C 0.06189 0.56546 0.3567 0.0
C24 C 0.04193 0.53583 0.35615 0.0
C25 C 0.06249 0.53058 0.39195 0.0
C26 C 0.04175 0.51861 0.37432 0.0
C27 C 0.02146 0.52306 0.33659 0.0
H28 H 0.88102 0.49132 0.32394 0.0
H29 H 0.93243 0.51421 0.31283 0.0
H30 H 0.89024 0.42752 0.3622 0.0
H31 H 0.94167 0.45013 0.35034 0.0
H32 H 0.89846 0.44303 0.2579 0.0
H33 H 0.93238 0.4525 0.28985 0.0
H34 H 0.953 0.53014 0.23427 0.0
H35 H 0.98589 0.53978 0.2665 0.0
H36 H 0.12764 0.55007 0.31401 0.0
H37 H 0.07581 0.51935 0.32336 0.0
H38 H 0.10746 0.61052 0.28166 0.0
H39 H 0.05579 0.57878 0.28977 0.0
H40 H 0.09868 0.6 0.37356 0.0
H41 H 0.06161 0.57949 0.34352 0.0
H42 H 0.06271 0.5168 0.4054 0.0
H43 H 0.02621 0.49581 0.37448 0.0
N44 N 0.99223 0.50703 0.34082 0.0
N45 N 0.01065 0.52001 0.29669 0.0
C46 C 0.42097 0.88994 0.50002 0.0
C47 C 0.43531 0.88338 0.51724 0.0
C48 C 0.43327 0.91782 0.49142 0.0
C49 C 0.46062 0.93961 0.49939 0.0
C50 C 0.46279 0.90498 0.52503 0.0
C51 C 0.47533 0.93279 0.51616 0.0
C52 C 0.47208 0.97004 0.4928 0.0
C53 C 0.46705 0.93084 0.42221 0.0
C54 C 0.44746 0.93304 0.40707 0.0
C55 C 0.47329 0.94438 0.44361 0.0
C56 C 0.4599 0.96016 0.45014 0.0
C57 C 0.43292 0.94745 0.41434 0.0
C58 C 0.43926 0.96104 0.43552 0.0
C59 C 0.46977 0.97895 0.47046 0.0
C60 C 0.53093 0.10665 0.47347 0.0
C61 C 0.5104 0.11104 0.46132 0.0
C62 C 0.52332 0.0794 0.48178 0.0
C63 C 0.49512 0.05607 0.47796 0.0
C64 C 0.48184 0.08772 0.45841 0.0
C65 C 0.47443 0.06051 0.46638 0.0
C66 C 0.48761 0.02655 0.484 0.0
C67 C 0.48975 0.06825 0.55082 0.0
C68 C 0.51198 0.07128 0.56583 0.0
C69 C 0.48319 0.0514 0.53121 0.0
C70 C 0.49875 0.03727 0.52618 0.0
C71 C 0.52776 0.05737 0.56067 0.0
C72 C 0.52097 0.04024 0.54112 0.0
C73 C 0.49053 0.01798 0.5062 0.0
H74 H 0.39946 0.87385 0.49407 0.0
H75 H 0.42056 0.92249 0.47941 0.0
H76 H 0.4743 0.90048 0.53831 0.0
H77 H 0.49623 0.94919 0.52285 0.0
H78 H 0.47864 0.91993 0.41705 0.0
H79 H 0.48961 0.94376 0.4545 0.0
H80 H 0.41717 0.94895 0.40334 0.0
H81 H 0.4286 0.97301 0.44024 0.0
H82 H 0.5532 0.12398 0.47584 0.0
H83 H 0.53975 0.07632 0.49039 0.0
H84 H 0.46519 0.09035 0.44971 0.0
H85 H 0.45253 0.04277 0.46332 0.0
H86 H 0.47732 0.07883 0.55432 0.0
H87 H 0.46548 0.0489 0.52023 0.0
H88 H 0.5448 0.05911 0.57207 0.0
H89 H 0.53301 0.02925 0.53767 0.0
N90 N 0.48266 0.99007 0.50976 0.0
N91 N 0.47744 0.00675 0.46707 0.0
C92 C 0.55711 0.47214 0.6091 0.0
C93 C 0.53914 0.45213 0.59246 0.0
C94 C 0.54493 0.48043 0.62657 0.0
C95 C 0.51457 0.46923 0.62764 0.0
C96 C 0.50865 0.44106 0.5936 0.0
C97 C 0.49655 0.44983 0.61085 0.0
C98 C 0.50178 0.47844 0.6459 0.0
C99 C 0.52387 0.41764 0.6795 0.0
C100 C 0.54318 0.42786 0.69818 0.0
C101 C 0.51291 0.43411 0.67001 0.0
C102 C 0.52171 0.46165 0.67848 0.0
C103 C 0.5516 0.4551 0.70706 0.0
C104 C 0.541 0.47189 0.69724 0.0
C105 C 0.50835 0.47824 0.66934 0.0
C106 C 0.4373 0.51835 0.7198 0.0
C107 C 0.45917 0.54364 0.7301 0.0
C108 C 0.44457 0.50485 0.70272 0.0
C109 C 0.47384 0.51639 0.69584 0.0
C110 C 0.48843 0.55497 0.72321 0.0
C111 C 0.49571 0.54131 0.70638 0.0
C112 C 0.4822 0.50249 0.67809 0.0
C113 C 0.42867 0.53698 0.64465 0.0
C114 C 0.40513 0.51597 0.63179 0.0
C115 C 0.45134 0.5324 0.65197 0.0
C116 C 0.45054 0.50657 0.6468 0.0
C117 C 0.40533 0.49088 0.62572 0.0
C118 C 0.42769 0.48624 0.63317 0.0
C119 C 0.47303 0.49986 0.65502 0.0
H120 H 0.5807 0.48181 0.60851 0.0
H121 H 0.5593 0.49593 0.63908 0.0
H122 H 0.49401 0.42532 0.58137 0.0
H123 H 0.47304 0.44101 0.61137 0.0
H124 H 0.51643 0.39641 0.67271 0.0
H125 H 0.49677 0.42476 0.65651 0.0
H126 H 0.56638 0.46339 0.72154 0.0
H127 H 0.54767 0.49278 0.70443 0.0
H128 H 0.41457 0.5092 0.7248 0.0
H129 H 0.42745 0.48544 0.69491 0.0
H130 H 0.50576 0.57419 0.73109 0.0
H131 H 0.51844 0.55035 0.70141 0.0
H132 H 0.42926 0.55663 0.64948 0.0
H133 H 0.46929 0.54896 0.66172 0.0
H134 H 0.38803 0.47462 0.61526 0.0
H135 H 0.42677 0.46634 0.6286 0.0
N136 N 0.48369 0.48841 0.63975 0.0
N137 N 0.4991 0.49116 0.68445 0.0
C138 C 0.89889 0.4109 0.79967 0.0
C139 C 0.8894 0.42266 0.78244 0.0
C140 C 0.92696 0.42689 0.80899 0.0
C141 C 0.94602 0.45488 0.80121 0.0
C142 C 0.90854 0.45065 0.77466 0.0
C143 C 0.9367 0.46651 0.78382 0.0
C144 C 0.97617 0.47164 0.81027 0.0
C145 C 0.91851 0.46729 0.86817 0.0
C146 C 0.9219 0.45625 0.88909 0.0
C147 C 0.93785 0.47271 0.85009 0.0
C148 C 0.96056 0.46641 0.85216 0.0
C149 C 0.94444 0.44964 0.8911 0.0
C150 C 0.96361 0.45475 0.87283 0.0
C151 C 0.98294 0.47482 0.83388 0.0
C152 C 0.11317 0.55697 0.83628 0.0
C153 C 0.12146 0.54286 0.85241 0.0
C154 C 0.08472 0.54346 0.82738 0.0
C155 C 0.06421 0.51536 0.83404 0.0
C156 C 0.1005 0.51508 0.85956 0.0
C157 C 0.07221 0.50153 0.85049 0.0
C158 C 0.03401 0.50043 0.82484 0.0
C159 C 0.09464 0.52088 0.76422 0.0
C160 C 0.08954 0.53525 0.74628 0.0
C161 C 0.07437 0.50846 0.78205 0.0
C162 C 0.04921 0.51117 0.78264 0.0
C163 C 0.06398 0.53712 0.74647 0.0
C164 C 0.04409 0.52531 0.76451 0.0
C165 C 0.02715 0.49836 0.80121 0.0
H166 H 0.88452 0.38942 0.80605 0.0
H167 H 0.9339 0.41726 0.82207 0.0
H168 H 0.9019 0.4601 0.76122 0.0
H169 H 0.95117 0.48796 0.77742 0.0
H170 H 0.90119 0.47229 0.86586 0.0
H171 H 0.93552 0.48277 0.83478 0.0
H172 H 0.94796 0.44148 0.90704 0.0
H173 H 0.98122 0.45011 0.87502 0.0
H174 H 0.12873 0.57831 0.8303 0.0
H175 H 0.07881 0.55494 0.81522 0.0
H176 H 0.10585 0.50382 0.87233 0.0
H177 H 0.05658 0.48005 0.85621 0.0
H178 H 0.11403 0.51881 0.7642 0.0
H179 H 0.07831 0.49663 0.79524 0.0
H180 H 0.0596 0.54812 0.73281 0.0
H181 H 0.02471 0.52741 0.76436 0.0
N182 N -0.00152 0.48389 0.79496 0.0
N183 N 0.01161 0.48867 0.84017 0.0
C184 C 0.49565 0.91311 0.97249 0.0
C185 C 0.47945 0.90519 0.95204 0.0
C186 C 0.50526 0.94009 0.98205 0.0
C187 C 0.49811 0.95937 0.97168 0.0
C188 C 0.47273 0.92462 0.94146 0.0
C189 C 0.48197 0.95145 0.9512 0.0
C190 C 0.50915 0.98854 0.98104 0.0
C191 C 0.4517 0.92761 0.03529 0.0
C192 C 0.465 0.93 0.05672 0.0
C193 C 0.46578 0.9486 0.01848 0.0
C194 C 0.49398 0.97198 0.02234 0.0
C195 C 0.49288 0.95393 0.06078 0.0
C196 C 0.5072 0.97463 0.04376 0.0
C197 C 0.50924 0.99448 0.00465 0.0
C198 C 0.55741 0.12226 0.00599 0.0
C199 C 0.57773 0.13004 0.02402 0.0
C200 C 0.54368 0.09453 -0.00294 0.0
C201 C 0.55023 0.07411 0.0058 0.0
C202 C 0.58385 0.10938 0.03299 0.0
C203 C 0.57009 0.08164 0.02405 0.0
C204 C 0.53599 0.04467 -0.0035 0.0
C205 C 0.59153 0.10104 0.9379 0.0
C206 C 0.57522 0.09971 0.91838 0.0
C207 C 0.57825 0.08183 0.95604 0.0
C208 C 0.5484 0.06101 0.955 0.0
C209 C 0.54519 0.07929 0.91766 0.0
C210 C 0.53199 0.05999 0.93572 0.0
C211 C 0.53469 0.03868 0.97287 0.0
H212 H 0.50159 0.89872 0.98075 0.0
H213 H 0.51868 0.94603 -0.00267 0.0
H214 H 0.46021 0.91901 0.9257 0.0
H215 H 0.4765 0.96606 0.94271 0.0
H216 H 0.4304 0.90945 0.03136 0.0
H217 H 0.45448 0.9465 0.00247 0.0
H218 H 0.50357 0.95699 0.07721 0.0
H219 H 0.5287 0.99273 0.04736 0.0
H220 H 0.55235 0.13771 -0.00143 0.0
H221 H 0.52788 0.08905 0.98337 0.0
H222 H 0.59907 0.11458 0.04708 0.0
H223 H 0.5752 0.0661 0.03124 0.0
H224 H 0.6147 0.11661 0.93894 0.0
H225 H 0.5915 0.08267 0.97053 0.0
H226 H 0.53216 0.07746 0.90272 0.0
H227 H 0.50899 0.0439 0.93449 0.0
N228 N 0.52146 0.01089 0.96612 0.0
N229 N 0.52309 0.02234 0.01144 0.0
C230 C 0.50706 0.60904 0.18076 0.0
C231 C 0.48252 0.60001 0.19495 0.0
C232 C 0.51297 0.58905 0.17076 0.0
C233 C 0.49448 0.55963 0.17478 0.0
C234 C 0.46383 0.57054 0.19883 0.0
C235 C 0.47001 0.55049 0.18905 0.0
C236 C 0.50235 0.53892 0.16556 0.0
C237 C 0.47269 0.56872 0.10415 0.0
C238 C 0.49361 0.58192 0.08664 0.0
C239 C 0.47798 0.5552 0.12255 0.0
C240 C 0.50446 0.55493 0.12398 0.0
C241 C 0.52001 0.58153 0.08815 0.0
C242 C 0.52534 0.56823 0.10656 0.0
C243 C 0.50986 0.53904 0.14237 0.0
C244 C 0.55406 0.4555 0.1363 0.0
C245 C 0.57758 0.47254 0.12161 0.0
C246 C 0.53846 0.46708 0.14689 0.0
C247 C 0.54665 0.49595 0.14318 0.0
C248 C 0.58618 0.50151 0.1186 0.0
C249 C 0.5709 0.51305 0.12924 0.0
C250 C 0.52917 0.50855 0.15166 0.0
C251 C 0.55975 0.48457 0.21636 0.0
C252 C 0.53641 0.46392 0.22959 0.0
C253 C 0.55441 0.4981 0.19803 0.0
C254 C 0.52566 0.49124 0.19269 0.0
C255 C 0.50764 0.45696 0.22406 0.0
C256 C 0.50237 0.47072 0.20591 0.0
C257 C 0.51985 0.50686 0.17454 0.0
H258 H 0.52168 0.63162 0.17737 0.0
H259 H 0.53237 0.59664 0.16024 0.0
H260 H 0.44485 0.5631 0.20983 0.0
H261 H 0.45574 0.5279 0.19261 0.0
H262 H 0.45217 0.56871 0.1036 0.0
H263 H 0.46105 0.5444 0.13532 0.0
H264 H 0.53638 0.5909 0.07479 0.0
H265 H 0.54581 0.5681 0.10705 0.0
H266 H 0.54706 0.43306 0.13879 0.0
H267 H 0.51948 0.45328 0.15721 0.0
H268 H 0.60452 0.51519 0.10763 0.0
H269 H 0.57776 0.53537 0.12617 0.0
H270 H 0.58212 0.49028 0.22021 0.0
H271 H 0.57277 0.51432 0.18833 0.0
H272 H 0.48928 0.4414 0.23415 0.0
H273 H 0.48007 0.46543 0.20224 0.0
N274 N 0.50702 0.52234 0.18066 0.0
N275 N 0.52335 0.52419 0.1365 0.0
C276 C 0.68619 0.41229 0.39639 0.0
O277 O 0.68755 0.43578 0.40148 0.0
Cd278 Cd 0.64695 0.4389 0.41578 0.0
O279 O 0.66226 0.38861 0.39875 0.0
Cd280 Cd 0.61154 0.37301 0.41209 0.0
C281 C 0.59968 0.41111 0.37102 0.0
O282 O 0.62664 0.40325 0.44581 0.0
O283 O 0.58036 0.3821 0.43842 0.0
O284 O 0.60762 0.32935 0.42869 0.0
C285 C 0.60111 0.3965 0.45232 0.0
O286 O 0.61637 0.43355 0.38242 0.0
C287 C 0.58523 0.31223 0.41714 0.0
O288 O 0.59526 0.38678 0.37765 0.0
O289 O 0.5752 0.32337 0.40327 0.0
C290 C 0.26327 0.56792 0.5721 0.0
O291 O 0.2372 0.55109 0.56552 0.0
Cd292 Cd 0.20377 0.56533 0.55215 0.0
O293 O 0.27371 0.59499 0.57183 0.0
Cd294 Cd 0.25301 0.62648 0.56193 0.0
C295 C 0.19955 0.59435 0.60213 0.0
O296 O 0.23076 0.60425 0.52587 0.0
O297 O 0.21518 0.63121 0.53971 0.0
O298 O 0.29897 0.66549 0.54614 0.0
C299 C 0.217 0.61756 0.52275 0.0
O300 O 0.18516 0.57488 0.58744 0.0
C301 C 0.30121 0.68413 0.56048 0.0
O302 O 0.22532 0.61451 0.59761 0.0
O303 O 0.28143 0.67589 0.57567 0.0
C304 C 0.69586 0.27695 0.72742 0.0
O305 O 0.69594 0.25524 0.71917 0.0
Cd306 Cd 0.65121 0.21018 0.71495 0.0
O307 O 0.67184 0.27567 0.73269 0.0
Cd308 Cd 0.61835 0.24281 0.73241 0.0
C309 C 0.62728 0.20054 0.7709 0.0
O310 O 0.61489 0.21799 0.69654 0.0
O311 O 0.57563 0.20057 0.7172 0.0
O312 O 0.61335 0.28177 0.71661 0.0
C313 C 0.58786 0.19969 0.69878 0.0
O314 O 0.63869 0.19411 0.75444 0.0
C315 C 0.59867 0.28347 0.73308 0.0
O316 O 0.61821 0.21823 0.76806 0.0
O317 O 0.5926 0.26584 0.74952 0.0
C318 C 0.31957 0.59952 0.90701 0.0
O319 O 0.32151 0.57759 0.91196 0.0
Cd320 Cd 0.36785 0.58074 0.92029 0.0
O321 O 0.34245 0.62419 0.90627 0.0
Cd322 Cd 0.39585 0.64556 0.9114 0.0
C323 C 0.40268 0.60535 0.8695 0.0
O324 O 0.39571 0.61995 0.94655 0.0
O325 O 0.43761 0.64722 0.93041 0.0
O326 O 0.39848 0.68822 0.92821 0.0
C327 C 0.42344 0.63177 0.94737 0.0
O328 O 0.391 0.5843 0.88337 0.0
C329 C 0.41511 0.7054 0.91289 0.0
O330 O 0.40573 0.6295 0.87504 0.0
O331 O 0.4227 0.69473 0.89679 0.0
C332 C 0.7269 0.4343 0.06493 0.0
O333 O 0.74868 0.45554 0.05551 0.0
Cd334 Cd 0.79424 0.45794 0.04884 0.0
O335 O 0.72728 0.4114 0.06986 0.0
Cd336 Cd 0.75824 0.38846 0.06479 0.0
C337 C 0.80566 0.43663 0.10295 0.0
O338 O 0.77642 0.41383 0.02975 0.0
O339 O 0.79465 0.38712 0.03769 0.0
O340 O 0.70875 0.35089 0.05733 0.0
C341 C 0.79366 0.40506 0.02417 0.0
O342 O 0.81038 0.45535 0.08763 0.0
C343 C 0.71175 0.33022 0.06426 0.0
O344 O 0.78783 0.41007 0.09949 0.0
O345 O 0.73687 0.33637 0.07183 0.0
C346 C 0.3148 0.73511 0.24521 0.0
O347 O 0.31087 0.75331 0.23426 0.0
Cd348 Cd 0.34932 0.79588 0.21696 0.0
O349 O 0.34017 0.73782 0.24672 0.0
Cd350 Cd 0.3905 0.76996 0.23203 0.0
C351 C 0.39593 0.82508 0.26329 0.0
O352 O 0.37566 0.77925 0.19516 0.0
O353 O 0.4217 0.80498 0.20235 0.0
O354 O 0.39155 0.72619 0.22457 0.0
C355 C 0.40079 0.79819 0.1884 0.0
O356 O 0.37924 0.8267 0.24828 0.0
C357 C 0.41632 0.73448 0.23381 0.0
O358 O 0.40224 0.80518 0.26261 0.0
O359 O 0.42906 0.75934 0.24266 0.0
H360 H 0.14666 0.61851 0.25982 0.0
H361 H 0.16951 0.59273 0.32363 0.0
H362 H 0.22172 0.62669 0.31611 0.0
H363 H 0.20984 0.63181 0.22677 0.0
H364 H 0.21278 0.66305 0.21289 0.0
H365 H 0.17753 0.63454 0.22212 0.0
H366 H 0.16988 0.67073 0.24596 0.0
H367 H 0.20507 0.69934 0.23681 0.0
H368 H 0.19696 0.6927 0.26693 0.0
H369 H 0.27177 0.66449 0.30177 0.0
H370 H 0.31476 0.70516 0.28318 0.0
H371 H 0.25785 0.70907 0.23133 0.0
C372 C 0.16246 0.61997 0.27238 0.0
C373 C 0.1537 0.60264 0.29229 0.0
C374 C 0.17548 0.60516 0.30796 0.0
C375 C 0.20526 0.62458 0.30394 0.0
C376 C 0.21293 0.64158 0.28431 0.0
C377 C 0.19209 0.63961 0.26892 0.0
C378 C 0.2057 0.66153 0.24993 0.0
C379 C 0.2012 0.64684 0.22655 0.0
C380 C 0.19369 0.6823 0.24992 0.0
C381 C 0.23748 0.67637 0.25714 0.0
C382 C 0.24135 0.66428 0.27679 0.0
C383 C 0.26898 0.67419 0.28643 0.0
C384 C 0.29323 0.69722 0.27577 0.0
C385 C 0.2895 0.71033 0.25599 0.0
C386 C 0.26126 0.69965 0.2466 0.0
H387 H 0.54798 0.16512 0.47848 0.0
H388 H 0.49248 0.12131 0.42 0.0
H389 H 0.50527 0.1678 0.40276 0.0
H390 H 0.53323 0.22281 0.48132 0.0
H391 H 0.57032 0.24952 0.48839 0.0
H392 H 0.55646 0.2127 0.49654 0.0
H393 H 0.59941 0.21262 0.47518 0.0
H394 H 0.61346 0.24947 0.46701 0.0
H395 H 0.60564 0.22279 0.4454 0.0
H396 H 0.52282 0.21876 0.39218 0.0
H397 H 0.54619 0.27129 0.38809 0.0
H398 H 0.59285 0.28231 0.452 0.0
C399 C 0.5387 0.16523 0.46195 0.0
C400 C 0.51883 0.13937 0.45083 0.0
C401 C 0.50709 0.14067 0.42926 0.0
C402 C 0.51442 0.16702 0.41917 0.0
C403 C 0.53383 0.192 0.43068 0.0
C404 C 0.54604 0.19139 0.45148 0.0
C405 C 0.56671 0.22145 0.46003 0.0
C406 C 0.55603 0.22693 0.48293 0.0
C407 C 0.59817 0.22689 0.46201 0.0
C408 C 0.56403 0.23898 0.44083 0.0
C409 C 0.54481 0.22153 0.42415 0.0
C410 C 0.53808 0.23268 0.40504 0.0
C411 C 0.5514 0.26252 0.4029 0.0
C412 C 0.57143 0.28083 0.41965 0.0
C413 C 0.57784 0.26883 0.43881 0.0
H414 H 0.40579 0.56481 0.61615 0.0
H415 H 0.34727 0.47499 0.63236 0.0
H416 H 0.30535 0.47894 0.61865 0.0
H417 H 0.35502 0.5889 0.6339 0.0
H418 H 0.36611 0.61525 0.61137 0.0
H419 H 0.39183 0.60569 0.62279 0.0
H420 H 0.40072 0.593 0.58197 0.0
H421 H 0.37486 0.6023 0.57045 0.0
H422 H 0.37002 0.56725 0.56526 0.0
H423 H 0.27032 0.49128 0.60156 0.0
H424 H 0.24281 0.51244 0.58463 0.0
H425 H 0.32278 0.59523 0.58095 0.0
C426 C 0.38411 0.5461 0.61711 0.0
C427 C 0.37992 0.51945 0.62502 0.0
C428 C 0.35118 0.49544 0.62586 0.0
C429 C 0.32716 0.49749 0.61825 0.0
C430 C 0.33211 0.5238 0.6101 0.0
C431 C 0.35972 0.5478 0.60972 0.0
C432 C 0.35869 0.57346 0.60007 0.0
C433 C 0.36849 0.59723 0.61811 0.0
C434 C 0.37717 0.58465 0.57813 0.0
C435 C 0.32623 0.55992 0.59489 0.0
C436 C 0.31145 0.53123 0.60075 0.0
C437 C 0.28155 0.51379 0.59706 0.0
C438 C 0.26615 0.52603 0.5873 0.0
C439 C 0.2806 0.55553 0.58147 0.0
C440 C 0.3111 0.57267 0.58533 0.0
H441 H 0.86204 0.36688 0.76802 0.0
H442 H 0.84974 0.44026 0.77459 0.0
H443 H 0.79971 0.41175 0.75875 0.0
H444 H 0.82164 0.34018 0.71459 0.0
H445 H 0.80628 0.30311 0.72272 0.0
H446 H 0.84151 0.32966 0.73369 0.0
H447 H 0.82291 0.31414 0.77522 0.0
H448 H 0.7877 0.28749 0.76439 0.0
H449 H 0.79023 0.31394 0.78448 0.0
H450 H 0.75007 0.37435 0.7448 0.0
H451 H 0.70453 0.33094 0.73289 0.0
H452 H 0.74983 0.28241 0.73417 0.0
C453 C 0.84879 0.37692 0.7661 0.0
C454 C 0.85966 0.40574 0.77252 0.0
C455 C 0.84185 0.41827 0.76957 0.0
C456 C 0.81344 0.40225 0.76064 0.0
C457 C 0.80335 0.37385 0.75454 0.0
C458 C 0.82053 0.36133 0.75702 0.0
C459 C 0.80426 0.33028 0.74959 0.0
C460 C 0.81932 0.32554 0.72892 0.0
C461 C 0.80108 0.31029 0.76962 0.0
C462 C 0.77503 0.32711 0.74295 0.0
C463 C 0.77498 0.3525 0.74591 0.0
C464 C 0.74995 0.35444 0.74214 0.0
C465 C 0.7242 0.32968 0.73542 0.0
C466 C 0.72375 0.30341 0.7324 0.0
C467 C 0.74966 0.30231 0.73591 0.0
H468 H 0.45258 0.85257 0.97288 0.0
H469 H 0.48592 0.89447 0.90739 0.0
H470 H 0.47223 0.84767 0.88991 0.0
H471 H 0.47646 0.80157 0.96841 0.0
H472 H 0.44432 0.77292 0.98185 0.0
H473 H 0.45622 0.8096 0.98901 0.0
H474 H 0.40509 0.8018 0.97808 0.0
H475 H 0.39301 0.76507 0.97091 0.0
H476 H 0.39033 0.78836 0.95004 0.0
H477 H 0.45734 0.79672 0.88019 0.0
H478 H 0.43961 0.74475 0.87834 0.0
H479 H 0.41422 0.736 0.94985 0.0
C480 C 0.45697 0.85184 0.95486 0.0
C481 C 0.47032 0.87704 0.94145 0.0
C482 C 0.47548 0.8753 0.91788 0.0
C483 C 0.4679 0.84888 0.90785 0.0
C484 C 0.45491 0.82443 0.92159 0.0
C485 C 0.44923 0.82562 0.94453 0.0
C486 C 0.43492 0.79619 0.95548 0.0
C487 C 0.45414 0.79502 0.97483 0.0
C488 C 0.404 0.78734 0.96413 0.0
C489 C 0.43378 0.77829 0.93518 0.0
C490 C 0.44554 0.79499 0.91582 0.0
C491 C 0.44784 0.78338 0.89518 0.0
C492 C 0.4378 0.75389 0.89431 0.0
C493 C 0.42539 0.73637 0.9139 0.0
C494 C 0.4233 0.74881 0.93453 0.0
H495 H 0.60449 0.44339 0.13757 0.0
H496 H 0.58556 0.47589 0.07574 0.0
H497 H 0.61764 0.46388 0.05363 0.0
H498 H 0.67772 0.47123 0.12768 0.0
H499 H 0.68077 0.44148 0.13851 0.0
H500 H 0.65239 0.44764 0.14904 0.0
H501 H 0.61292 0.39613 0.1376 0.0
H502 H 0.64125 0.38965 0.12724 0.0
H503 H 0.61164 0.38422 0.10859 0.0
H504 H 0.65765 0.45719 0.03985 0.0
H505 H 0.70093 0.45175 0.03412 0.0
H506 H 0.69332 0.42088 0.10382 0.0
C507 C 0.60636 0.44694 0.11924 0.0
C508 C 0.59263 0.46049 0.10827 0.0
C509 C 0.59603 0.46557 0.08438 0.0
C510 C 0.61408 0.45873 0.07169 0.0
C511 C 0.62834 0.4465 0.08308 0.0
C512 C 0.62439 0.44016 0.10623 0.0
C513 C 0.6444 0.42931 0.11451 0.0
C514 C 0.66504 0.44858 0.13355 0.0
C515 C 0.62648 0.39796 0.12245 0.0
C516 C 0.66108 0.43189 0.09266 0.0
C517 C 0.65123 0.44168 0.07475 0.0
C518 C 0.66507 0.44876 0.05351 0.0
C519 C 0.68971 0.44582 0.05046 0.0
C520 C 0.70002 0.43559 0.06844 0.0
C521 C 0.68529 0.42809 0.08969 0.0
H522 H 0.40791 0.83065 0.49653 0.0
H523 H 0.42815 0.87181 0.56301 0.0
H524 H 0.39874 0.82461 0.58171 0.0
H525 H 0.33494 0.77954 0.50771 0.0
H526 H 0.3351 0.75086 0.49207 0.0
H527 H 0.35978 0.78751 0.48405 0.0
H528 H 0.40394 0.77936 0.48863 0.0
H529 H 0.37935 0.74258 0.49657 0.0
H530 H 0.40914 0.76554 0.5153 0.0
H531 H 0.36225 0.77396 0.59267 0.0
H532 H 0.32457 0.72263 0.59541 0.0
H533 H 0.33043 0.7138 0.52212 0.0
C534 C 0.40648 0.8296 0.51504 0.0
C535 C 0.42035 0.8548 0.52837 0.0
C536 C 0.41799 0.8527 0.55253 0.0
C537 C 0.40125 0.82602 0.56328 0.0
C538 C 0.38741 0.80162 0.54964 0.0
C539 C 0.39022 0.80309 0.52607 0.0
C540 C 0.3724 0.77374 0.51533 0.0
C541 C 0.34918 0.77288 0.49882 0.0
C542 C 0.39241 0.76478 0.50325 0.0
C543 C 0.35842 0.75566 0.53648 0.0
C544 C 0.36732 0.77217 0.55609 0.0
C545 C 0.35558 0.76069 0.5775 0.0
C546 C 0.33415 0.73159 0.57889 0.0
C547 C 0.32499 0.71427 0.55904 0.0
C548 C 0.33757 0.72644 0.53764 0.0
H549 H 0.56659 0.39937 0.67635 0.0
H550 H 0.54199 0.41416 0.74351 0.0
H551 H 0.55422 0.37916 0.76031 0.0
H552 H 0.53765 0.32497 0.68201 0.0
H553 H 0.56694 0.32429 0.66672 0.0
H554 H 0.55783 0.35158 0.66037 0.0
H555 H 0.61141 0.39109 0.66852 0.0
H556 H 0.62079 0.36392 0.67468 0.0
H557 H 0.62803 0.39123 0.69556 0.0
H558 H 0.5654 0.33936 0.76894 0.0
H559 H 0.57901 0.30156 0.76932 0.0
H560 H 0.59775 0.31465 0.69657 0.0
C561 C 0.56407 0.39542 0.69463 0.0
C562 C 0.55336 0.40936 0.70868 0.0
C563 C 0.55044 0.40383 0.73253 0.0
C564 C 0.55716 0.3839 0.74216 0.0
C565 C 0.5671 0.37004 0.72771 0.0
C566 C 0.57096 0.37591 0.70451 0.0
C567 C 0.58173 0.35806 0.69262 0.0
C568 C 0.55972 0.33857 0.67436 0.0
C569 C 0.61231 0.37722 0.68224 0.0
C570 C 0.58289 0.34085 0.71267 0.0
C571 C 0.57426 0.3479 0.73277 0.0
C572 C 0.57252 0.33391 0.75335 0.0
C573 C 0.58014 0.3124 0.75339 0.0
C574 C 0.58959 0.30532 0.73302 0.0
C575 C 0.59089 0.31978 0.71247 0.0
H576 H 0.15479 0.518 0.86193 0.0
H577 H 0.15693 0.59953 0.86397 0.0
H578 H 0.20749 0.62271 0.87895 0.0
H579 H 0.195 0.52793 0.91471 0.0
H580 H 0.21393 0.51029 0.90406 0.0
H581 H 0.17795 0.50018 0.89344 0.0
H582 H 0.19788 0.51024 0.85189 0.0
H583 H 0.2339 0.52036 0.86237 0.0
H584 H 0.22856 0.54489 0.84476 0.0
H585 H 0.25831 0.63721 0.89271 0.0
H586 H 0.30544 0.64185 0.90465 0.0
H587 H 0.26896 0.55033 0.89536 0.0
C588 C 0.16566 0.54065 0.8658 0.0
C589 C 0.1518 0.55691 0.86171 0.0
C590 C 0.16717 0.58665 0.86661 0.0
C591 C 0.19582 0.59999 0.8753 0.0
C592 C 0.20874 0.58327 0.87915 0.0
C593 C 0.19412 0.55424 0.87463 0.0
C594 C 0.21297 0.54113 0.8801 0.0
C595 C 0.19913 0.51855 0.89922 0.0
C596 C 0.21866 0.52842 0.85849 0.0
C597 C 0.2406 0.56739 0.88827 0.0
C598 C 0.23774 0.59149 0.88755 0.0
C599 C 0.26073 0.61845 0.89351 0.0
C600 C 0.28742 0.62087 0.90024 0.0
C601 C 0.29083 0.59643 0.90108 0.0
C602 C 0.26694 0.56935 0.89519 0.0
H603 H 0.63569 0.16376 0.03589 0.0
H604 H 0.55323 0.16333 0.03288 0.0
H605 H 0.57823 0.2135 0.04604 0.0
H606 H 0.66461 0.20954 0.08724 0.0
H607 H 0.70161 0.22785 0.07647 0.0
H608 H 0.67686 0.19117 0.0685 0.0
H609 H 0.68611 0.20538 0.02562 0.0
H610 H 0.71081 0.24205 0.03343 0.0
H611 H 0.68002 0.23342 0.01501 0.0
H612 H 0.61243 0.2644 0.05613 0.0
H613 H 0.65383 0.31312 0.0629 0.0
H614 H 0.71417 0.28057 0.06098 0.0
C615 C 0.62277 0.17402 0.03847 0.0
C616 C 0.59249 0.15962 0.03331 0.0
C617 C 0.5765 0.17403 0.03645 0.0
C618 C 0.59045 0.20244 0.0441 0.0
C619 C 0.62036 0.2161 0.04874 0.0
C620 C 0.63635 0.20238 0.04618 0.0
C621 C 0.66855 0.22248 0.05118 0.0
C622 C 0.67848 0.21214 0.0721 0.0
C623 C 0.68747 0.22604 0.03005 0.0
C624 C 0.66825 0.24984 0.05641 0.0
C625 C 0.64016 0.24556 0.05503 0.0
C626 C 0.63446 0.26795 0.0576 0.0
C627 C 0.65812 0.29554 0.06138 0.0
C628 C 0.68711 0.30051 0.06266 0.0
C629 C 0.69215 0.27725 0.06054 0.0
H630 H 0.43122 0.60108 0.1948 0.0
H631 H 0.52114 0.64772 0.21864 0.0
H632 H 0.51276 0.68561 0.23416 0.0
H633 H 0.4283 0.66123 0.17569 0.0
H634 H 0.39083 0.64811 0.18409 0.0
H635 H 0.40291 0.62321 0.17717 0.0
H636 H 0.38529 0.59884 0.21683 0.0
H637 H 0.37306 0.62366 0.22386 0.0
H638 H 0.39845 0.62019 0.24244 0.0
H639 H 0.49554 0.71976 0.24482 0.0
H640 H 0.4712 0.74852 0.24871 0.0
H641 H 0.39281 0.67995 0.21718 0.0
C642 C 0.4489 0.61898 0.20374 0.0
C643 C 0.47676 0.6215 0.20568 0.0
C644 C 0.49965 0.64552 0.21697 0.0
C645 C 0.49506 0.66702 0.22593 0.0
C646 C 0.46745 0.66416 0.22341 0.0
C647 C 0.44476 0.64076 0.21258 0.0
C648 C 0.41788 0.64389 0.21063 0.0
C649 C 0.4095 0.64413 0.1854 0.0
C650 C 0.39215 0.62024 0.22426 0.0
C651 C 0.42919 0.67293 0.22165 0.0
C652 C 0.45769 0.68411 0.22918 0.0
C653 C 0.47312 0.71114 0.23918 0.0
C654 C 0.45913 0.72731 0.24131 0.0
C655 C 0.43012 0.71647 0.23327 0.0
C656 C 0.41495 0.68878 0.22359 0.0
H657 H 0.85327 0.48537 0.35866 0.0
H658 H 0.84002 0.40038 0.34629 0.0
H659 H 0.78831 0.37908 0.35848 0.0
H660 H 0.80812 0.4676 0.40855 0.0
H661 H 0.79437 0.49121 0.40126 0.0
H662 H 0.83021 0.49942 0.39177 0.0
H663 H 0.81551 0.5017 0.34974 0.0
H664 H 0.77962 0.49349 0.3591 0.0
H665 H 0.78339 0.47144 0.33781 0.0
H666 H 0.73761 0.36737 0.37159 0.0
H667 H 0.69267 0.36623 0.38523 0.0
H668 H 0.74003 0.45921 0.38839 0.0
C669 C 0.83947 0.46228 0.35832 0.0
C670 C 0.85062 0.44452 0.35145 0.0
C671 C 0.83197 0.41437 0.35168 0.0
C672 C 0.80256 0.4021 0.35846 0.0
C673 C 0.79225 0.42031 0.36498 0.0
C674 C 0.81021 0.44974 0.365 0.0
C675 C 0.79398 0.46467 0.3728 0.0
C676 C 0.80747 0.48172 0.39491 0.0
C677 C 0.79307 0.48395 0.35372 0.0
C678 C 0.764 0.43904 0.37713 0.0
C679 C 0.76335 0.41362 0.37252 0.0
C680 C 0.73788 0.38716 0.37527 0.0
C681 C 0.71247 0.38673 0.383 0.0
C682 C 0.71278 0.41261 0.3879 0.0
C683 C 0.73898 0.43901 0.38484 0.0
H684 H 0.07969 0.55904 0.43852 0.0
H685 H 0.14188 0.58832 0.38243 0.0
H686 H 0.18288 0.60866 0.4101 0.0
H687 H 0.12246 0.62164 0.47489 0.0
H688 H 0.11212 0.60109 0.50107 0.0
H689 H 0.08753 0.58906 0.47691 0.0
H690 H 0.08569 0.54014 0.47798 0.0
H691 H 0.11014 0.55198 0.50218 0.0
H692 H 0.1194 0.53931 0.47679 0.0
H693 H 0.21669 0.62212 0.44344 0.0
H694 H 0.24174 0.63067 0.48088 0.0
H695 H 0.15838 0.59662 0.51573 0.0
C696 C 0.10198 0.5698 0.43218 0.0
C697 C 0.1078 0.57215 0.40843 0.0
C698 C 0.13713 0.58649 0.4006 0.0
C699 C 0.16048 0.59806 0.41616 0.0
C700 C 0.1541 0.59549 0.43946 0.0
C701 C 0.12562 0.582 0.4475 0.0
C702 C 0.12496 0.58229 0.47346 0.0
C703 C 0.11094 0.59956 0.48209 0.0
C704 C 0.10912 0.55161 0.48317 0.0
C705 C 0.15749 0.59751 0.47873 0.0
C706 C 0.17385 0.60479 0.45882 0.0
C707 C 0.20421 0.61707 0.45915 0.0
C708 C 0.21822 0.62184 0.48041 0.0
C709 C 0.20195 0.61488 0.50095 0.0
C710 C 0.17127 0.60288 0.50016 0.0
H711 H 0.5653 0.11181 0.58316 0.0
H712 H 0.47189 0.06863 0.59664 0.0
H713 H 0.48123 0.09657 0.6322 0.0
H714 H 0.5887 0.11565 0.64186 0.0
H715 H 0.62048 0.15078 0.63868 0.0
H716 H 0.60651 0.12711 0.61441 0.0
H717 H 0.60213 0.16603 0.59148 0.0
H718 H 0.61607 0.1898 0.61567 0.0
H719 H 0.5813 0.18115 0.60323 0.0
H720 H 0.50059 0.12854 0.66642 0.0
H721 H 0.52865 0.16387 0.6965 0.0
H722 H 0.60953 0.18729 0.66045 0.0
C723 C 0.54687 0.10815 0.59371 0.0
C724 C 0.51787 0.08809 0.58719 0.0
C725 C 0.49425 0.08411 0.60124 0.0
C726 C 0.49934 0.09975 0.6215 0.0
C727 C 0.52817 0.11942 0.62741 0.0
C728 C 0.55155 0.12379 0.61391 0.0
C729 C 0.58033 0.14668 0.62397 0.0
C730 C 0.60017 0.13431 0.63009 0.0
C731 C 0.59586 0.17244 0.60761 0.0
C732 C 0.56947 0.15442 0.64526 0.0
C733 C 0.53932 0.13831 0.64696 0.0
C734 C 0.52421 0.14134 0.66526 0.0
C735 C 0.54034 0.16143 0.68227 0.0
C736 C 0.57125 0.17838 0.68079 0.0
C737 C 0.58591 0.17475 0.662 0.0
H738 H 0.42497 0.5192 0.76799 0.0
H739 H 0.47727 0.60067 0.73337 0.0
H740 H 0.46722 0.62526 0.76471 0.0
H741 H 0.36961 0.53396 0.791 0.0
H742 H 0.36659 0.5157 0.81764 0.0
H743 H 0.37652 0.50444 0.79182 0.0
H744 H 0.42352 0.51104 0.81164 0.0
H745 H 0.41382 0.52245 0.83747 0.0
H746 H 0.44887 0.54517 0.82419 0.0
H747 H 0.45247 0.64103 0.80026 0.0
H748 H 0.435 0.64707 0.83787 0.0
H749 H 0.39327 0.55532 0.84966 0.0
C750 C 0.43389 0.54215 0.76686 0.0
C751 C 0.45178 0.55807 0.74826 0.0
C752 C 0.4636 0.58814 0.74756 0.0
C753 C 0.45792 0.60225 0.76521 0.0
C754 C 0.44049 0.58598 0.78346 0.0
C755 C 0.42867 0.5566 0.78443 0.0
C756 C 0.41173 0.54429 0.80642 0.0
C757 C 0.37918 0.52336 0.80141 0.0
C758 C 0.42531 0.5299 0.82077 0.0
C759 C 0.41605 0.57136 0.81774 0.0
C760 C 0.4325 0.59513 0.80415 0.0
C761 C 0.43951 0.62256 0.81105 0.0
C762 C 0.42948 0.62576 0.83244 0.0
C763 C 0.4128 0.6017 0.84678 0.0
C764 C 0.40603 0.57417 0.83919 0.0
H765 H 0.89895 0.41346 0.92205 0.0
H766 H 0.90247 0.4927 0.90163 0.0
H767 H 0.87046 0.48789 0.93387 0.0
H768 H 0.8243 0.37619 0.94054 0.0
H769 H 0.83073 0.35934 0.96483 0.0
H770 H 0.85396 0.36867 0.93999 0.0
H771 H 0.89966 0.39848 0.96538 0.0
H772 H 0.87657 0.38921 0.99032 0.0
H773 H 0.90122 0.42632 0.98336 0.0
H774 H 0.83725 0.47431 0.96719 0.0
H775 H 0.80576 0.45349 0.00102 0.0
H776 H 0.82523 0.38422 0.00186 0.0
C777 C 0.89321 0.42994 0.92446 0.0
C778 C 0.90297 0.45326 0.909 0.0
C779 C 0.89473 0.47423 0.91278 0.0
C780 C 0.87674 0.47185 0.9312 0.0
C781 C 0.86735 0.44855 0.94592 0.0
C782 C 0.8754 0.42804 0.94294 0.0
C783 C 0.86223 0.40522 0.96147 0.0
C784 C 0.84158 0.3756 0.95108 0.0
C785 C 0.88637 0.40479 0.97599 0.0
C786 C 0.8454 0.41608 0.97518 0.0
C787 C 0.84866 0.44107 0.96578 0.0
C788 C 0.83465 0.45486 0.97483 0.0
C789 C 0.81675 0.4428 0.99402 0.0
C790 C 0.81314 0.4173 0.00411 0.0
C791 C 0.82781 0.40386 0.99461 0.0
H792 H 0.48928 0.91053 0.08906 0.0
H793 H 0.40587 0.89955 0.06593 0.0
H794 H 0.3805 0.86278 0.0956 0.0
H795 H 0.46417 0.83718 0.10451 0.0
H796 H 0.48681 0.8463 0.12976 0.0
H797 H 0.49848 0.87051 0.10568 0.0
H798 H 0.50331 0.91128 0.13197 0.0
H799 H 0.49179 0.88725 0.15614 0.0
H800 H 0.47234 0.90575 0.14888 0.0
H801 H 0.36404 0.82745 0.12787 0.0
H802 H 0.35793 0.79838 0.16233 0.0
H803 H 0.45221 0.83486 0.16636 0.0
C804 C 0.46571 0.90063 0.09025 0.0
C805 C 0.44967 0.90788 0.07483 0.0
C806 C 0.41874 0.89399 0.07703 0.0
C807 C 0.40407 0.87316 0.09397 0.0
C808 C 0.42059 0.86661 0.1088 0.0
C809 C 0.45074 0.8801 0.10727 0.0
C810 C 0.46341 0.87006 0.12603 0.0
C811 C 0.47914 0.85512 0.11588 0.0
C812 C 0.48392 0.89507 0.14168 0.0
C813 C 0.43565 0.84892 0.13843 0.0
C814 C 0.41119 0.84701 0.12801 0.0
C815 C 0.38302 0.8288 0.13622 0.0
C816 C 0.37979 0.81232 0.15576 0.0
C817 C 0.4046 0.81444 0.16704 0.0
C818 C 0.43286 0.83289 0.15813 0.0
H819 H 0.57724 0.49014 0.26349 0.0
H820 H 0.50795 0.40695 0.24083 0.0
H821 H 0.51642 0.3843 0.27466 0.0
H822 H 0.62563 0.46657 0.28573 0.0
H823 H 0.63736 0.49076 0.30973 0.0
H824 H 0.62613 0.50016 0.28351 0.0
H825 H 0.58782 0.50712 0.30594 0.0
H826 H 0.59883 0.49761 0.33221 0.0
H827 H 0.56101 0.47821 0.32336 0.0
H828 H 0.53286 0.37079 0.31074 0.0
H829 H 0.55526 0.36739 0.34691 0.0
H830 H 0.61296 0.45971 0.34649 0.0
C831 C 0.56407 0.46711 0.26554 0.0
C832 C 0.54202 0.45023 0.24953 0.0
C833 C 0.52486 0.42025 0.25299 0.0
C834 C 0.52957 0.40721 0.27209 0.0
C835 C 0.55139 0.42451 0.28762 0.0
C836 C 0.56831 0.45381 0.28459 0.0
C837 C 0.58992 0.46761 0.30405 0.0
C838 C 0.62164 0.48212 0.29522 0.0
C839 C 0.58403 0.48889 0.31716 0.0
C840 C 0.58258 0.44147 0.31847 0.0
C841 C 0.5604 0.41681 0.30865 0.0
C842 C 0.55019 0.38996 0.31863 0.0
C843 C 0.56307 0.38826 0.33918 0.0
C844 C 0.58578 0.41329 0.34962 0.0
C845 C 0.59548 0.44021 0.33908 0.0
H846 H 0.44058 0.88155 0.39169 0.0
H847 H 0.44557 0.96044 0.36841 0.0
H848 H 0.43597 0.94231 0.32891 0.0
H849 H 0.47556 0.87149 0.34046 0.0
H850 H 0.45214 0.83309 0.34072 0.0
H851 H 0.46123 0.85284 0.36718 0.0
H852 H 0.40602 0.83094 0.37621 0.0
H853 H 0.39676 0.8112 0.34979 0.0
H854 H 0.3826 0.83477 0.3557 0.0
H855 H 0.42183 0.91475 0.29288 0.0
H856 H 0.40556 0.8795 0.26158 0.0
H857 H 0.4117 0.81881 0.30699 0.0
C858 C 0.44012 0.89514 0.3782 0.0
C859 C 0.44346 0.92228 0.3832 0.0
C860 C 0.44246 0.93935 0.36509 0.0
C861 C 0.43728 0.92936 0.34255 0.0
C862 C 0.43347 0.90236 0.33826 0.0
C863 C 0.43506 0.88552 0.35546 0.0
C864 C 0.42906 0.85684 0.34612 0.0
C865 C 0.45611 0.85337 0.34878 0.0
C866 C 0.402 0.83198 0.35764 0.0
C867 C 0.42321 0.86006 0.32114 0.0
C868 C 0.42599 0.88656 0.31705 0.0
C869 C 0.41997 0.89406 0.29574 0.0
C870 C 0.41063 0.87386 0.27811 0.0
C871 C 0.40758 0.84654 0.28183 0.0
C872 C 0.41434 0.83972 0.30357 0.0
H873 H 0.52075 0.43821 0.54755 0.0
H874 H 0.58714 0.44497 0.59547 0.0
H875 H 0.61026 0.43225 0.56469 0.0
H876 H 0.51328 0.3755 0.51819 0.0
H877 H 0.50729 0.38683 0.49062 0.0
H878 H 0.49627 0.39727 0.51632 0.0
H879 H 0.52748 0.45062 0.5044 0.0
H880 H 0.53873 0.44037 0.47874 0.0
H881 H 0.5659 0.4654 0.49834 0.0
H882 H 0.62762 0.42112 0.52852 0.0
H883 H 0.63564 0.40797 0.48987 0.0
H884 H 0.55551 0.40376 0.46626 0.0
C885 C 0.53988 0.43663 0.55178 0.0
C886 C 0.55225 0.44305 0.57403 0.0
C887 C 0.57759 0.441 0.57851 0.0
C888 C 0.5908 0.43353 0.56117 0.0
C889 C 0.57817 0.42765 0.53947 0.0
C890 C 0.55306 0.42868 0.53478 0.0
C891 C 0.5436 0.42071 0.51009 0.0
C892 C 0.51331 0.39345 0.50873 0.0
C893 C 0.54396 0.44578 0.49713 0.0
C894 C 0.5675 0.41529 0.50161 0.0
C895 C 0.58737 0.41971 0.51882 0.0
C896 C 0.61205 0.41728 0.51497 0.0
C897 C 0.61647 0.40992 0.49296 0.0
C898 C 0.59608 0.40468 0.4752 0.0
C899 C 0.57124 0.40731 0.47963 0.0
H900 H 0.07858 0.52582 0.70048 0.0
H901 H 0.14802 0.57377 0.74945 0.0
H902 H 0.18323 0.59668 0.71757 0.0
H903 H 0.1223 0.51143 0.662 0.0
H904 H 0.10447 0.5143 0.63658 0.0
H905 H 0.08469 0.50311 0.66321 0.0
H906 H 0.07286 0.54419 0.65989 0.0
H907 H 0.09281 0.55564 0.63332 0.0
H908 H 0.10238 0.5806 0.65663 0.0
H909 H 0.21048 0.61456 0.68035 0.0
H910 H 0.22934 0.62231 0.64081 0.0
H911 H 0.14246 0.56063 0.61618 0.0
C912 C 0.10119 0.54129 0.70441 0.0
C913 C 0.11071 0.54829 0.7273 0.0
C914 C 0.14047 0.56819 0.73195 0.0
C915 C 0.16049 0.58139 0.71399 0.0
C916 C 0.15039 0.57415 0.69155 0.0
C917 C 0.12153 0.55429 0.68672 0.0
C918 C 0.11664 0.54905 0.66121 0.0
C919 C 0.10643 0.51761 0.65542 0.0
C920 C 0.09488 0.55791 0.65224 0.0
C921 C 0.1473 0.56899 0.65242 0.0
C922 C 0.16633 0.58359 0.67018 0.0
C923 C 0.19581 0.60321 0.66631 0.0
C924 C 0.20627 0.60755 0.64376 0.0
C925 C 0.1874 0.59204 0.62538 0.0
C926 C 0.15745 0.57278 0.62984 0.0
H927 H 0.55625 0.12923 0.89145 0.0
H928 H 0.6267 0.11032 0.89901 0.0
H929 H 0.6491 0.13669 0.86327 0.0
H930 H 0.54834 0.12007 0.83176 0.0
H931 H 0.54131 0.14905 0.8266 0.0
H932 H 0.53195 0.1308 0.8538 0.0
H933 H 0.56356 0.17911 0.87468 0.0
H934 H 0.57292 0.19756 0.84752 0.0
H935 H 0.60147 0.20155 0.86678 0.0
H936 H 0.66098 0.16032 0.8251 0.0
H937 H 0.66381 0.18308 0.78779 0.0
H938 H 0.58687 0.18869 0.80512 0.0
C939 C 0.57657 0.13096 0.88569 0.0
C940 C 0.58984 0.11787 0.89806 0.0
C941 C 0.61642 0.12057 0.89001 0.0
C942 C 0.62922 0.13537 0.86967 0.0
C943 C 0.61535 0.14761 0.8577 0.0
C944 C 0.58982 0.14592 0.86549 0.0
C945 C 0.57897 0.16029 0.84893 0.0
C946 C 0.54833 0.13877 0.83973 0.0
C947 C 0.57926 0.18617 0.86015 0.0
C948 C 0.60202 0.16969 0.83034 0.0
C949 C 0.62275 0.1621 0.83579 0.0
C950 C 0.64517 0.16678 0.82077 0.0
C951 C 0.64648 0.17957 0.79958 0.0
C952 C 0.62568 0.18779 0.79366 0.0
C953 C 0.60333 0.18303 0.80937 0.0
H954 H 0.44157 0.56292 0.0633 0.0
H955 H 0.53251 0.63124 0.06414 0.0
H956 H 0.52418 0.65131 0.02884 0.0
H957 H 0.43437 0.55276 0.00346 0.0
H958 H 0.39759 0.5468 0.00197 0.0
H959 H 0.41024 0.53804 0.02776 0.0
H960 H 0.39708 0.57067 0.05128 0.0
H961 H 0.38414 0.57935 0.02558 0.0
H962 H 0.41185 0.60759 0.04288 0.0
H963 H 0.50703 0.6623 0.99233 0.0
H964 H 0.48111 0.66568 0.95831 0.0
H965 H 0.40053 0.59199 0.98213 0.0
C966 C 0.45962 0.58241 0.05636 0.0
C967 C 0.4878 0.59532 0.06647 0.0
C968 C 0.51088 0.62059 0.05652 0.0
C969 C 0.50634 0.63229 0.03653 0.0
C970 C 0.47849 0.61871 0.0268 0.0
C971 C 0.45541 0.59455 0.0365 0.0
C972 C 0.42769 0.58406 0.02245 0.0
C973 C 0.41685 0.55361 0.01337 0.0
C974 C 0.40378 0.58552 0.03638 0.0
C975 C 0.43893 0.60591 0.0032 0.0
C976 C 0.46833 0.62561 0.00603 0.0
C977 C 0.48393 0.6472 0.99005 0.0
C978 C 0.46904 0.64885 0.97073 0.0
C979 C 0.43879 0.62919 0.96765 0.0
C980 C 0.42359 0.60748 0.98416 0.0
H981 H 0.89414 0.43893 0.21532 0.0
H982 H 0.90412 0.52236 0.22951 0.0
H983 H 0.8731 0.51717 0.19628 0.0
H984 H 0.89715 0.44474 0.15534 0.0
H985 H 0.86963 0.40806 0.14979 0.0
H986 H 0.89093 0.41704 0.17571 0.0
H987 H 0.84337 0.39367 0.19986 0.0
H988 H 0.82187 0.38444 0.17398 0.0
H989 H 0.81688 0.40512 0.19584 0.0
H990 H 0.84559 0.50566 0.16002 0.0
H991 H 0.81987 0.48689 0.12341 0.0
H992 H 0.8245 0.40939 0.13292 0.0
C993 C 0.8893 0.45582 0.21169 0.0
C994 C 0.90185 0.48121 0.2249 0.0
C995 C 0.89525 0.50298 0.21941 0.0
C996 C 0.87747 0.50015 0.20066 0.0
C997 C 0.86606 0.47525 0.18769 0.0
C998 C 0.87134 0.45327 0.19302 0.0
C999 C 0.85703 0.42921 0.17563 0.0
C1000 C 0.88007 0.4245 0.1634 0.0
C1001 C 0.83338 0.40147 0.18701 0.0
C1002 C 0.84355 0.44151 0.15945 0.0
C1003 C 0.84909 0.4681 0.16684 0.0
C1004 C 0.84068 0.48469 0.15419 0.0
C1005 C 0.82624 0.4739 0.13337 0.0
C1006 C 0.82008 0.44665 0.12543 0.0
C1007 C 0.82855 0.43009 0.13879 0.0
loop_
_geom_bond_atom_site_label_1
_geom_bond_atom_site_label_2
_geom_bond_distance
_geom_bond_site_symmetry_2
_ccdc_geom_bond_type
C0 C1 1.384 . S
C0 C2 1.384 . S
C0 H28 0.931 . S
C1 C0 1.384 . S
C1 C4 1.382 . S
C2 C0 1.384 . S
C2 C3 1.381 . S
C2 H29 0.930 . S
C3 C2 1.381 . S
C3 C5 1.381 . S
C3 C6 1.487 . S
C4 C1 1.382 . S
C4 C5 1.387 . S
C4 H30 0.930 . S
C5 C3 1.381 . S
C5 C4 1.387 . S
C5 H31 0.931 . S
C6 C3 1.487 . S
C6 C13 1.399 . S
C6 N44 1.343 1_655 S
C7 C8 1.384 . S
C7 C9 1.384 . S
C7 H32 0.931 . S
C8 C7 1.384 . S
C8 C11 1.382 . S
C9 C7 1.384 . S
C9 C10 1.381 . S
C9 H33 0.930 . S
C10 C9 1.381 . S
C10 C12 1.381 . S
C10 C13 1.487 . S
C11 C8 1.382 . S
C11 C12 1.387 . S
C11 H34 0.930 . S
C12 C10 1.381 . S
C12 C11 1.387 . S
C12 H35 0.931 . S
C13 C6 1.399 . S
C13 C10 1.487 . S
C13 N45 1.343 1_655 S
C14 C15 1.384 . S
C14 C16 1.384 . S
C14 H36 0.931 . S
C15 C14 1.384 . S
C15 C18 1.382 . S
C16 C14 1.384 . S
C16 C17 1.381 . S
C16 H37 0.930 . S
C17 C16 1.381 . S
C17 C19 1.381 . S
C17 C20 1.487 . S
C18 C15 1.382 . S
C18 C19 1.387 . S
C18 H38 0.930 . S
C19 C17 1.381 . S
C19 C18 1.387 . S
C19 H39 0.931 . S
C20 C17 1.487 . S
C20 C27 1.399 . S
C20 N45 1.343 . S
C21 C22 1.384 . S
C21 C23 1.384 . S
C21 H40 0.931 . S
C22 C21 1.384 . S
C22 C25 1.382 . S
C23 C21 1.384 . S
C23 C24 1.381 . S
C23 H41 0.930 . S
C24 C23 1.381 . S
C24 C26 1.381 . S
C24 C27 1.487 . S
C25 C22 1.382 . S
C25 C26 1.387 . S
C25 H42 0.930 . S
C26 C24 1.381 . S
C26 C25 1.387 . S
C26 H43 0.931 . S
C27 C20 1.399 . S
C27 C24 1.487 . S
C27 N44 1.343 . S
H28 C0 0.931 . S
H29 C2 0.930 . S
H30 C4 0.930 . S
H31 C5 0.931 . S
H32 C7 0.931 . S
H33 C9 0.930 . S
H34 C11 0.930 . S
H35 C12 0.931 . S
H36 C14 0.931 . S
H37 C16 0.930 . S
H38 C18 0.930 . S
H39 C19 0.931 . S
H40 C21 0.931 . S
H41 C23 0.930 . S
H42 C25 0.930 . S
H43 C26 0.931 . S
N44 C6 1.343 1_455 S
N44 C27 1.343 . S
N45 C13 1.343 1_455 S
N45 C20 1.343 . S
C46 C47 1.384 . S
C46 C48 1.384 . S
C46 H74 0.931 . S
C47 C46 1.384 . S
C47 C50 1.382 . S
C48 C46 1.384 . S
C48 C49 1.381 . S
C48 H75 0.930 . S
C49 C48 1.381 . S
C49 C51 1.381 . S
C49 C52 1.487 . S
C50 C47 1.382 . S
C50 C51 1.387 . S
C50 H76 0.930 . S
C51 C49 1.381 . S
C51 C50 1.387 . S
C51 H77 0.931 . S
C52 C49 1.487 . S
C52 C59 1.399 . S
C52 N90 1.343 1_565 S
C53 C54 1.384 . S
C53 C55 1.384 . S
C53 H78 0.931 . S
C54 C53 1.384 . S
C54 C57 1.382 . S
C55 C53 1.384 . S
C55 C56 1.381 . S
C55 H79 0.930 . S
C56 C55 1.381 . S
C56 C58 1.381 . S
C56 C59 1.487 . S
C57 C54 1.382 . S
C57 C58 1.387 . S
C57 H80 0.930 . S
C58 C56 1.381 . S
C58 C57 1.387 . S
C58 H81 0.931 . S
C59 C52 1.399 . S
C59 C56 1.487 . S
C59 N91 1.343 1_565 S
C60 C61 1.384 . S
C60 C62 1.384 . S
C60 H82 0.931 . S
C61 C60 1.384 . S
C61 C64 1.382 . S
C62 C60 1.384 . S
C62 C63 1.381 . S
C62 H83 0.930 . S
C63 C62 1.381 . S
C63 C65 1.381 . S
C63 C66 1.487 . S
C64 C61 1.382 . S
C64 C65 1.387 . S
C64 H84 0.930 . S
C65 C63 1.381 . S
C65 C64 1.387 . S
C65 H85 0.931 . S
C66 C63 1.487 . S
C66 C73 1.399 . S
C66 N91 1.343 . S
C67 C68 1.384 . S
C67 C69 1.384 . S
C67 H86 0.931 . S
C68 C67 1.384 . S
C68 C71 1.382 . S
C69 C67 1.384 . S
C69 C70 1.381 . S
C69 H87 0.930 . S
C70 C69 1.381 . S
C70 C72 1.381 . S
C70 C73 1.487 . S
C71 C68 1.382 . S
C71 C72 1.387 . S
C71 H88 0.930 . S
C72 C70 1.381 . S
C72 C71 1.387 . S
C72 H89 0.931 . S
C73 C66 1.399 . S
C73 C70 1.487 . S
C73 N90 1.343 . S
H74 C46 0.931 . S
H75 C48 0.930 . S
H76 C50 0.930 . S
H77 C51 0.931 . S
H78 C53 0.931 . S
H79 C55 0.930 . S
H80 C57 0.930 . S
H81 C58 0.931 . S
H82 C60 0.931 . S
H83 C62 0.930 . S
H84 C64 0.930 . S
H85 C65 0.931 . S
H86 C67 0.931 . S
H87 C69 0.930 . S
H88 C71 0.930 . S
H89 C72 0.931 . S
N90 C52 1.343 1_545 S
N90 C73 1.343 . S
N91 C59 1.343 1_545 S
N91 C66 1.343 . S
C92 C93 1.384 . S
C92 C94 1.384 . S
C92 H120 0.931 . S
C93 C92 1.384 . S
C93 C96 1.382 . S
C94 C92 1.384 . S
C94 C95 1.381 . S
C94 H121 0.930 . S
C95 C94 1.381 . S
C95 C97 1.381 . S
C95 C98 1.487 . S
C96 C93 1.382 . S
C96 C97 1.387 . S
C96 H122 0.930 . S
C97 C95 1.381 . S
C97 C96 1.387 . S
C97 H123 0.931 . S
C98 C95 1.487 . S
C98 C105 1.399 . S
C98 N136 1.343 . S
C99 C100 1.384 . S
C99 C101 1.384 . S
C99 H124 0.931 . S
C100 C99 1.384 . S
C100 C103 1.382 . S
C101 C99 1.384 . S
C101 C102 1.381 . S
C101 H125 0.930 . S
C102 C101 1.381 . S
C102 C104 1.381 . S
C102 C105 1.487 . S
C103 C100 1.382 . S
C103 C104 1.387 . S
C103 H126 0.930 . S
C104 C102 1.381 . S
C104 C103 1.387 . S
C104 H127 0.931 . S
C105 C98 1.399 . S
C105 C102 1.487 . S
C105 N137 1.343 . S
C106 C107 1.384 . S
C106 C108 1.384 . S
C106 H128 0.931 . S
C107 C106 1.384 . S
C107 C110 1.382 . S
C108 C106 1.384 . S
C108 C109 1.381 . S
C108 H129 0.930 . S
C109 C108 1.381 . S
C109 C111 1.381 . S
C109 C112 1.487 . S
C110 C107 1.382 . S
C110 C111 1.387 . S
C110 H130 0.930 . S
C111 C109 1.381 . S
C111 C110 1.387 . S
C111 H131 0.931 . S
C112 C109 1.487 . S
C112 C119 1.399 . S
C112 N137 1.343 . S
C113 C114 1.384 . S
C113 C115 1.384 . S
C113 H132 0.931 . S
C114 C113 1.384 . S
C114 C117 1.382 . S
C115 C113 1.384 . S
C115 C116 1.381 . S
C115 H133 0.930 . S
C116 C115 1.381 . S
C116 C118 1.381 . S
C116 C119 1.487 . S
C117 C114 1.382 . S
C117 C118 1.387 . S
C117 H134 0.930 . S
C118 C116 1.381 . S
C118 C117 1.387 . S
C118 H135 0.931 . S
C119 C112 1.399 . S
C119 C116 1.487 . S
C119 N136 1.343 . S
H120 C92 0.931 . S
H121 C94 0.930 . S
H122 C96 0.930 . S
H123 C97 0.931 . S
H124 C99 0.931 . S
H125 C101 0.930 . S
H126 C103 0.930 . S
H127 C104 0.931 . S
H128 C106 0.931 . S
H129 C108 0.930 . S
H130 C110 0.930 . S
H131 C111 0.931 . S
H132 C113 0.931 . S
H133 C115 0.930 . S
H134 C117 0.930 . S
H135 C118 0.931 . S
N136 C98 1.343 . S
N136 C119 1.343 . S
N137 C105 1.343 . S
N137 C112 1.343 . S
C138 C139 1.384 . S
C138 C140 1.384 . S
C138 H166 0.931 . S
C139 C138 1.384 . S
C139 C142 1.382 . S
C140 C138 1.384 . S
C140 C141 1.381 . S
C140 H167 0.930 . S
C141 C140 1.381 . S
C141 C143 1.381 . S
C141 C144 1.487 . S
C142 C139 1.382 . S
C142 C143 1.387 . S
C142 H168 0.930 . S
C143 C141 1.381 . S
C143 C142 1.387 . S
C143 H169 0.931 . S
C144 C141 1.487 . S
C144 C151 1.399 . S
C144 N182 1.353 . S
C145 C146 1.384 . S
C145 C147 1.384 . S
C145 H170 0.931 . S
C146 C145 1.384 . S
C146 C149 1.382 . S
C147 C145 1.384 . S
C147 C148 1.381 . S
C147 H171 0.930 . S
C148 C147 1.381 . S
C148 C150 1.381 . S
C148 C151 1.487 . S
C149 C146 1.382 . S
C149 C150 1.387 . S
C149 H172 0.930 . S
C150 C148 1.381 . S
C150 C149 1.387 . S
C150 H173 0.931 . S
C151 C144 1.399 . S
C151 C148 1.487 . S
C151 N183 1.343 1_655 S
C152 C153 1.384 . S
C152 C154 1.384 . S
C152 H174 0.931 . S
C153 C152 1.384 . S
C153 C156 1.382 . S
C154 C152 1.384 . S
C154 C155 1.381 . S
C154 H175 0.930 . S
C155 C154 1.381 . S
C155 C157 1.381 . S
C155 C158 1.487 . S
C156 C153 1.382 . S
C156 C157 1.387 . S
C156 H176 0.930 . S
C157 C155 1.381 . S
C157 C156 1.387 . S
C157 H177 0.931 . S
C158 C155 1.487 . S
C158 C165 1.399 . S
C158 N183 1.343 . S
C159 C160 1.384 . S
C159 C161 1.384 . S
C159 H178 0.931 . S
C160 C159 1.384 . S
C160 C163 1.382 . S
C161 C159 1.384 . S
C161 C162 1.381 . S
C161 H179 0.930 . S
C162 C161 1.381 . S
C162 C164 1.381 . S
C162 C165 1.487 . S
C163 C160 1.382 . S
C163 C164 1.387 . S
C163 H180 0.930 . S
C164 C162 1.381 . S
C164 C163 1.387 . S
C164 H181 0.931 . S
C165 C158 1.399 . S
C165 C162 1.487 . S
C165 N182 1.326 1_455 S
H166 C138 0.931 . S
H167 C140 0.930 . S
H168 C142 0.930 . S
H169 C143 0.931 . S
H170 C145 0.931 . S
H171 C147 0.930 . S
H172 C149 0.930 . S
H173 C150 0.931 . S
H174 C152 0.931 . S
H175 C154 0.930 . S
H176 C156 0.930 . S
H177 C157 0.931 . S
H178 C159 0.931 . S
H179 C161 0.930 . S
H180 C163 0.930 . S
H181 C164 0.931 . S
N182 C144 1.353 . S
N182 C165 1.326 1_655 S
N183 C151 1.343 1_455 S
N183 C158 1.343 . S
C184 C185 1.384 . S
C184 C186 1.384 . S
C184 H212 0.931 . S
C185 C184 1.384 . S
C185 C188 1.382 . S
C186 C184 1.384 . S
C186 C187 1.381 . S
C186 H213 0.930 1_556 S
C187 C186 1.381 . S
C187 C189 1.381 . S
C187 C190 1.487 . S
C188 C185 1.382 . S
C188 C189 1.387 . S
C188 H214 0.930 . S
C189 C187 1.381 . S
C189 C188 1.387 . S
C189 H215 0.931 . S
C190 C187 1.487 . S
C190 C197 1.399 1_556 S
C190 N228 1.365 . S
C191 C192 1.384 . S
C191 C193 1.384 . S
C191 H216 0.931 . S
C192 C191 1.384 . S
C192 C195 1.382 . S
C193 C191 1.384 . S
C193 C194 1.381 . S
C193 H217 0.930 . S
C194 C193 1.381 . S
C194 C196 1.381 . S
C194 C197 1.487 . S
C195 C192 1.382 . S
C195 C196 1.387 . S
C195 H218 0.930 . S
C196 C194 1.381 . S
C196 C195 1.387 . S
C196 H219 0.931 . S
C197 C190 1.399 1_554 S
C197 C194 1.487 . S
C197 N229 1.343 1_565 S
C198 C199 1.384 . S
C198 C200 1.384 1_554 S
C198 H220 0.944 . S
C199 C198 1.384 . S
C199 C202 1.382 . S
C200 C198 1.384 1_556 S
C200 C201 1.381 1_556 S
C200 H221 0.930 . S
C201 C200 1.381 1_554 S
C201 C203 1.381 . S
C201 C204 1.477 1_554 S
C202 C199 1.382 . S
C202 C203 1.387 . S
C202 H222 0.930 . S
C203 C201 1.381 . S
C203 C202 1.387 . S
C203 H223 0.931 . S
C204 C201 1.477 1_556 S
C204 C211 1.432 . S
C204 N229 1.317 1_556 S
C205 C206 1.384 . S
C205 C207 1.384 . S
C205 H224 0.931 . S
C206 C205 1.384 . S
C206 C209 1.382 . S
C207 C205 1.384 . S
C207 C208 1.381 . S
C207 H225 0.930 . S
C208 C207 1.381 . S
C208 C210 1.381 . S
C208 C211 1.487 . S
C209 C206 1.382 . S
C209 C210 1.387 . S
C209 H226 0.930 . S
C210 C208 1.381 . S
C210 C209 1.387 . S
C210 H227 0.931 . S
C211 C204 1.432 . S
C211 C208 1.487 . S
C211 N228 1.313 1_545 S
H212 C184 0.931 . S
H213 C186 0.930 1_554 S
H214 C188 0.930 . S
H215 C189 0.931 . S
H216 C191 0.931 . S
H217 C193 0.930 . S
H218 C195 0.930 . S
H219 C196 0.931 . S
H220 C198 0.944 . S
H221 C200 0.930 . S
H222 C202 0.930 . S
H223 C203 0.931 . S
H224 C205 0.931 . S
H225 C207 0.930 . S
H226 C209 0.930 . S
H227 C210 0.931 . S
N228 C190 1.365 . S
N228 C211 1.313 1_565 S
N229 C197 1.343 1_545 S
N229 C204 1.317 1_554 S
C230 C231 1.384 . S
C230 C232 1.384 . S
C230 H258 0.931 . S
C231 C230 1.384 . S
C231 C234 1.382 . S
C232 C230 1.384 . S
C232 C233 1.381 . S
C232 H259 0.930 . S
C233 C232 1.381 . S
C233 C235 1.381 . S
C233 C236 1.487 . S
C234 C231 1.382 . S
C234 C235 1.387 . S
C234 H260 0.930 . S
C235 C233 1.381 . S
C235 C234 1.387 . S
C235 H261 0.931 . S
C236 C233 1.487 . S
C236 C243 1.399 . S
C236 N274 1.343 . S
C237 C238 1.384 . S
C237 C239 1.384 . S
C237 H262 0.931 . S
C238 C237 1.384 . S
C238 C241 1.382 . S
C239 C237 1.384 . S
C239 C240 1.381 . S
C239 H263 0.930 . S
C240 C239 1.381 . S
C240 C242 1.381 . S
C240 C243 1.487 . S
C241 C238 1.382 . S
C241 C242 1.387 . S
C241 H264 0.930 . S
C242 C240 1.381 . S
C242 C241 1.387 . S
C242 H265 0.931 . S
C243 C236 1.399 . S
C243 C240 1.487 . S
C243 N275 1.343 . S
C244 C245 1.384 . S
C244 C246 1.384 . S
C244 H266 0.931 . S
C245 C244 1.384 . S
C245 C248 1.382 . S
C246 C244 1.384 . S
C246 C247 1.381 . S
C246 H267 0.930 . S
C247 C246 1.381 . S
C247 C249 1.381 . S
C247 C250 1.487 . S
C248 C245 1.382 . S
C248 C249 1.387 . S
C248 H268 0.930 . S
C249 C247 1.381 . S
C249 C248 1.387 . S
C249 H269 0.931 . S
C250 C247 1.487 . S
C250 C257 1.399 . S
C250 N275 1.343 . S
C251 C252 1.384 . S
C251 C253 1.384 . S
C251 H270 0.931 . S
C252 C251 1.384 . S
C252 C255 1.382 . S
C253 C251 1.384 . S
C253 C254 1.381 . S
C253 H271 0.930 . S
C254 C253 1.381 . S
C254 C256 1.381 . S
C254 C257 1.487 . S
C255 C252 1.382 . S
C255 C256 1.387 . S
C255 H272 0.930 . S
C256 C254 1.381 . S
C256 C255 1.387 . S
C256 H273 0.931 . S
C257 C250 1.399 . S
C257 C254 1.487 . S
C257 N274 1.343 . S
H258 C230 0.931 . S
H259 C232 0.930 . S
H260 C234 0.930 . S
H261 C235 0.931 . S
H262 C237 0.931 . S
H263 C239 0.930 . S
H264 C241 0.930 . S
H265 C242 0.931 . S
H266 C244 0.931 . S
H267 C246 0.930 . S
H268 C248 0.930 . S
H269 C249 0.931 . S
H270 C251 0.931 . S
H271 C253 0.930 . S
H272 C255 0.930 . S
H273 C256 0.931 . S
N274 C236 1.343 . S
N274 C257 1.343 . S
N275 C243 1.343 . S
N275 C250 1.343 . S
C276 O277 1.306 . S
C276 O279 1.160 . S
O277 C276 1.306 . S
O277 Cd278 2.228 . S
Cd278 O277 2.228 . S
Cd278 O282 2.273 . S
Cd278 O286 2.277 . S
O279 C276 1.160 . S
O279 Cd280 2.203 . S
Cd280 O279 2.203 . S
Cd280 O282 2.411 . S
Cd280 O283 2.333 . S
Cd280 O284 2.352 . S
Cd280 O288 2.277 . S
Cd280 O289 2.356 . S
C281 O286 1.209 . S
C281 O288 1.226 . S
O282 Cd278 2.273 . S
O282 Cd280 2.411 . S
O282 C285 1.320 . S
O283 Cd280 2.333 . S
O283 C285 1.214 . S
O284 Cd280 2.352 . S
O284 C287 1.258 . S
C285 O282 1.320 . S
C285 O283 1.214 . S
O286 Cd278 2.277 . S
O286 C281 1.209 . S
C287 O284 1.258 . S
C287 O289 1.282 . S
O288 Cd280 2.277 . S
O288 C281 1.226 . S
O289 Cd280 2.356 . S
O289 C287 1.282 . S
C290 O291 1.306 . S
C290 O293 1.160 . S
O291 C290 1.306 . S
O291 Cd292 2.228 . S
Cd292 O291 2.228 . S
Cd292 O296 2.273 . S
Cd292 O300 2.277 . S
O293 C290 1.160 . S
O293 Cd294 2.203 . S
Cd294 O293 2.203 . S
Cd294 O296 2.411 . S
Cd294 O297 2.333 . S
Cd294 O298 2.352 . S
Cd294 O302 2.277 . S
Cd294 O303 2.356 . S
C295 O300 1.209 . S
C295 O302 1.226 . S
O296 Cd292 2.273 . S
O296 Cd294 2.411 . S
O296 C299 1.320 . S
O297 Cd294 2.333 . S
O297 C299 1.214 . S
O298 Cd294 2.352 . S
O298 C301 1.258 . S
C299 O296 1.320 . S
C299 O297 1.214 . S
O300 Cd292 2.277 . S
O300 C295 1.209 . S
C301 O298 1.258 . S
C301 O303 1.282 . S
O302 Cd294 2.277 . S
O302 C295 1.226 . S
O303 Cd294 2.356 . S
O303 C301 1.282 . S
C304 O305 1.306 . S
C304 O307 1.160 . S
O305 C304 1.306 . S
O305 Cd306 2.228 . S
Cd306 O305 2.228 . S
Cd306 O310 2.273 . S
Cd306 O314 2.277 . S
O307 C304 1.160 . S
O307 Cd308 2.203 . S
Cd308 O307 2.203 . S
Cd308 O310 2.411 . S
Cd308 O311 2.333 . S
Cd308 O312 2.352 . S
Cd308 O316 2.277 . S
Cd308 O317 2.356 . S
C309 O314 1.209 . S
C309 O316 1.226 . S
O310 Cd306 2.273 . S
O310 Cd308 2.411 . S
O310 C313 1.320 . S
O311 Cd308 2.333 . S
O311 C313 1.214 . S
O312 Cd308 2.352 . S
O312 C315 1.258 . S
C313 O310 1.320 . S
C313 O311 1.214 . S
O314 Cd306 2.277 . S
O314 C309 1.209 . S
C315 O312 1.258 . S
C315 O317 1.282 . S
O316 Cd308 2.277 . S
O316 C309 1.226 . S
O317 Cd308 2.356 . S
O317 C315 1.282 . S
C318 O319 1.306 . S
C318 O321 1.160 . S
O319 C318 1.306 . S
O319 Cd320 2.228 . S
Cd320 O319 2.228 . S
Cd320 O324 2.273 . S
Cd320 O328 2.277 . S
O321 C318 1.160 . S
O321 Cd322 2.203 . S
Cd322 O321 2.203 . S
Cd322 O324 2.411 . S
Cd322 O325 2.333 . S
Cd322 O326 2.352 . S
Cd322 O330 2.277 . S
Cd322 O331 2.356 . S
C323 O328 1.209 . S
C323 O330 1.226 . S
O324 Cd320 2.273 . S
O324 Cd322 2.411 . S
O324 C327 1.320 . S
O325 Cd322 2.333 . S
O325 C327 1.214 . S
O326 Cd322 2.352 . S
O326 C329 1.258 . S
C327 O324 1.320 . S
C327 O325 1.214 . S
O328 Cd320 2.277 . S
O328 C323 1.209 . S
C329 O326 1.258 . S
C329 O331 1.282 . S
O330 Cd322 2.277 . S
O330 C323 1.226 . S
O331 Cd322 2.356 . S
O331 C329 1.282 . S
C332 O333 1.306 . S
C332 O335 1.160 . S
O333 C332 1.306 . S
O333 Cd334 2.228 . S
Cd334 O333 2.228 . S
Cd334 O338 2.273 . S
Cd334 O342 2.277 . S
O335 C332 1.160 . S
O335 Cd336 2.203 . S
Cd336 O335 2.203 . S
Cd336 O338 2.411 . S
Cd336 O339 2.333 . S
Cd336 O340 2.352 . S
Cd336 O344 2.277 . S
Cd336 O345 2.356 . S
C337 O342 1.209 . S
C337 O344 1.226 . S
O338 Cd334 2.273 . S
O338 Cd336 2.411 . S
O338 C341 1.320 . S
O339 Cd336 2.333 . S
O339 C341 1.214 . S
O340 Cd336 2.352 . S
O340 C343 1.258 . S
C341 O338 1.320 . S
C341 O339 1.214 . S
O342 Cd334 2.277 . S
O342 C337 1.209 . S
C343 O340 1.258 . S
C343 O345 1.282 . S
O344 Cd336 2.277 . S
O344 C337 1.226 . S
O345 Cd336 2.356 . S
O345 C343 1.282 . S
C346 O347 1.306 . S
C346 O349 1.160 . S
O347 C346 1.306 . S
O347 Cd348 2.228 . S
Cd348 O347 2.228 . S
Cd348 O352 2.273 . S
Cd348 O356 2.277 . S
O349 C346 1.160 . S
O349 Cd350 2.203 . S
Cd350 O349 2.203 . S
Cd350 O352 2.411 . S
Cd350 O353 2.333 . S
Cd350 O354 2.352 . S
Cd350 O358 2.277 . S
Cd350 O359 2.356 . S
C351 O356 1.209 . S
C351 O358 1.226 . S
O352 Cd348 2.273 . S
O352 Cd350 2.411 . S
O352 C355 1.320 . S
O353 Cd350 2.333 . S
O353 C355 1.214 . S
O354 Cd350 2.352 . S
O354 C357 1.258 . S
C355 O352 1.320 . S
C355 O353 1.214 . S
O356 Cd348 2.277 . S
O356 C351 1.209 . S
C357 O354 1.258 . S
C357 O359 1.282 . S
O358 Cd350 2.277 . S
O358 C351 1.226 . S
O359 Cd350 2.356 . S
O359 C357 1.282 . S
H360 C372 0.930 . S
H361 C374 0.930 . S
H362 C375 0.930 . S
H363 C379 0.959 . S
H364 C379 0.959 . S
H365 C379 0.961 . S
H366 C380 0.960 . S
H367 C380 0.961 . S
H368 C380 0.959 . S
H369 C383 0.929 . S
H370 C384 0.931 . S
H371 C386 0.930 . S
C372 H360 0.930 . S
C372 C373 1.399 . S
C372 C377 1.399 . S
C373 C372 1.399 . S
C373 C374 1.376 . S
C374 H361 0.930 . S
C374 C373 1.376 . S
C374 C375 1.388 . S
C375 H362 0.930 . S
C375 C374 1.388 . S
C375 C376 1.390 . S
C376 C375 1.390 . S
C376 C377 1.394 . S
C376 C382 1.465 . S
C377 C372 1.399 . S
C377 C376 1.394 . S
C377 C378 1.516 . S
C378 C377 1.516 . S
C378 C379 1.502 . S
C378 C380 1.561 . S
C378 C381 1.526 . S
C379 H363 0.959 . S
C379 H364 0.959 . S
C379 H365 0.961 . S
C379 C378 1.502 . S
C380 H366 0.960 . S
C380 H367 0.961 . S
C380 H368 0.959 . S
C380 C378 1.561 . S
C381 C378 1.526 . S
C381 C382 1.396 . S
C381 C386 1.390 . S
C382 C376 1.465 . S
C382 C381 1.396 . S
C382 C383 1.399 . S
C383 H369 0.929 . S
C383 C382 1.399 . S
C383 C384 1.385 . S
C384 H370 0.931 . S
C384 C383 1.385 . S
C384 C385 1.389 . S
C385 C384 1.389 . S
C385 C386 1.387 . S
C386 H371 0.930 . S
C386 C381 1.390 . S
C386 C385 1.387 . S
H387 C399 0.930 . S
H388 C401 0.930 . S
H389 C402 0.930 . S
H390 C406 0.959 . S
H391 C406 0.959 . S
H392 C406 0.961 . S
H393 C407 0.960 . S
H394 C407 0.961 . S
H395 C407 0.959 . S
H396 C410 0.929 . S
H397 C411 0.931 . S
H398 C413 0.930 . S
C399 H387 0.930 . S
C399 C400 1.399 . S
C399 C404 1.399 . S
C400 C399 1.399 . S
C400 C401 1.376 . S
C401 H388 0.930 . S
C401 C400 1.376 . S
C401 C402 1.388 . S
C402 H389 0.930 . S
C402 C401 1.388 . S
C402 C403 1.390 . S
C403 C402 1.390 . S
C403 C404 1.394 . S
C403 C409 1.465 . S
C404 C399 1.399 . S
C404 C403 1.394 . S
C404 C405 1.516 . S
C405 C404 1.516 . S
C405 C406 1.502 . S
C405 C407 1.561 . S
C405 C408 1.526 . S
C406 H390 0.959 . S
C406 H391 0.959 . S
C406 H392 0.961 . S
C406 C405 1.502 . S
C407 H393 0.960 . S
C407 H394 0.961 . S
C407 H395 0.959 . S
C407 C405 1.561 . S
C408 C405 1.526 . S
C408 C409 1.396 . S
C408 C413 1.390 . S
C409 C403 1.465 . S
C409 C408 1.396 . S
C409 C410 1.399 . S
C410 H396 0.929 . S
C410 C409 1.399 . S
C410 C411 1.385 . S
C411 H397 0.931 . S
C411 C410 1.385 . S
C411 C412 1.389 . S
C412 C411 1.389 . S
C412 C413 1.387 . S
C413 H398 0.930 . S
C413 C408 1.390 . S
C413 C412 1.387 . S
H414 C426 0.930 . S
H415 C428 0.930 . S
H416 C429 0.930 . S
H417 C433 0.959 . S
H418 C433 0.959 . S
H419 C433 0.961 . S
H420 C434 0.960 . S
H421 C434 0.961 . S
H422 C434 0.959 . S
H423 C437 0.929 . S
H424 C438 0.931 . S
H425 C440 0.930 . S
C426 H414 0.930 . S
C426 C427 1.399 . S
C426 C431 1.399 . S
C427 C426 1.399 . S
C427 C428 1.376 . S
C428 H415 0.930 . S
C428 C427 1.376 . S
C428 C429 1.388 . S
C429 H416 0.930 . S
C429 C428 1.388 . S
C429 C430 1.390 . S
C430 C429 1.390 . S
C430 C431 1.394 . S
C430 C436 1.465 . S
C431 C426 1.399 . S
C431 C430 1.394 . S
C431 C432 1.516 . S
C432 C431 1.516 . S
C432 C433 1.502 . S
C432 C434 1.561 . S
C432 C435 1.526 . S
C433 H417 0.959 . S
C433 H418 0.959 . S
C433 H419 0.961 . S
C433 C432 1.502 . S
C434 H420 0.960 . S
C434 H421 0.961 . S
C434 H422 0.959 . S
C434 C432 1.561 . S
C435 C432 1.526 . S
C435 C436 1.396 . S
C435 C440 1.390 . S
C436 C430 1.465 . S
C436 C435 1.396 . S
C436 C437 1.399 . S
C437 H423 0.929 . S
C437 C436 1.399 . S
C437 C438 1.385 . S
C438 H424 0.931 . S
C438 C437 1.385 . S
C438 C439 1.389 . S
C439 C438 1.389 . S
C439 C440 1.387 . S
C440 H425 0.930 . S
C440 C435 1.390 . S
C440 C439 1.387 . S
H441 C453 0.930 . S
H442 C455 0.930 . S
H443 C456 0.930 . S
H444 C460 0.959 . S
H445 C460 0.959 . S
H446 C460 0.961 . S
H447 C461 0.960 . S
H448 C461 0.961 . S
H449 C461 0.959 . S
H450 C464 0.929 . S
H451 C465 0.931 . S
H452 C467 0.930 . S
C453 H441 0.930 . S
C453 C454 1.399 . S
C453 C458 1.399 . S
C454 C453 1.399 . S
C454 C455 1.376 . S
C455 H442 0.930 . S
C455 C454 1.376 . S
C455 C456 1.388 . S
C456 H443 0.930 . S
C456 C455 1.388 . S
C456 C457 1.390 . S
C457 C456 1.390 . S
C457 C458 1.394 . S
C457 C463 1.465 . S
C458 C453 1.399 . S
C458 C457 1.394 . S
C458 C459 1.516 . S
C459 C458 1.516 . S
C459 C460 1.502 . S
C459 C461 1.561 . S
C459 C462 1.526 . S
C460 H444 0.959 . S
C460 H445 0.959 . S
C460 H446 0.961 . S
C460 C459 1.502 . S
C461 H447 0.960 . S
C461 H448 0.961 . S
C461 H449 0.959 . S
C461 C459 1.561 . S
C462 C459 1.526 . S
C462 C463 1.396 . S
C462 C467 1.390 . S
C463 C457 1.465 . S
C463 C462 1.396 . S
C463 C464 1.399 . S
C464 H450 0.929 . S
C464 C463 1.399 . S
C464 C465 1.385 . S
C465 H451 0.931 . S
C465 C464 1.385 . S
C465 C466 1.389 . S
C466 C465 1.389 . S
C466 C467 1.387 . S
C467 H452 0.930 . S
C467 C462 1.390 . S
C467 C466 1.387 . S
H468 C480 0.930 . S
H469 C482 0.930 . S
H470 C483 0.930 . S
H471 C487 0.959 . S
H472 C487 0.959 . S
H473 C487 0.961 . S
H474 C488 0.960 1_554 S
H475 C488 0.961 . S
H476 C488 0.959 . S
H477 C491 0.929 . S
H478 C492 0.931 . S
H479 C494 0.930 . S
C480 H468 0.930 . S
C480 C481 1.399 . S
C480 C485 1.399 . S
C481 C480 1.399 . S
C481 C482 1.376 . S
C482 H469 0.930 . S
C482 C481 1.376 . S
C482 C483 1.388 . S
C483 H470 0.930 . S
C483 C482 1.388 . S
C483 C484 1.390 . S
C484 C483 1.390 . S
C484 C485 1.394 . S
C484 C490 1.465 . S
C485 C480 1.399 . S
C485 C484 1.394 . S
C485 C486 1.516 . S
C486 C485 1.516 . S
C486 C487 1.502 . S
C486 C488 1.561 . S
C486 C489 1.526 . S
C487 H471 0.959 . S
C487 H472 0.959 . S
C487 H473 0.961 . S
C487 C486 1.502 . S
C488 H474 0.960 1_556 S
C488 H475 0.961 . S
C488 H476 0.959 . S
C488 C486 1.561 . S
C489 C486 1.526 . S
C489 C490 1.396 . S
C489 C494 1.390 . S
C490 C484 1.465 . S
C490 C489 1.396 . S
C490 C491 1.399 . S
C491 H477 0.929 . S
C491 C490 1.399 . S
C491 C492 1.385 . S
C492 H478 0.931 . S
C492 C491 1.385 . S
C492 C493 1.389 . S
C493 C492 1.389 . S
C493 C494 1.387 . S
C494 H479 0.930 . S
C494 C489 1.390 . S
C494 C493 1.387 . S
H495 C507 0.930 . S
H496 C509 0.930 . S
H497 C510 0.930 . S
H498 C514 0.959 . S
H499 C514 0.959 . S
H500 C514 0.961 . S
H501 C515 0.960 . S
H502 C515 0.961 . S
H503 C515 0.959 . S
H504 C518 0.929 . S
H505 C519 0.931 . S
H506 C521 0.930 . S
C507 H495 0.930 . S
C507 C508 1.399 . S
C507 C512 1.399 . S
C508 C507 1.399 . S
C508 C509 1.376 . S
C509 H496 0.930 . S
C509 C508 1.376 . S
C509 C510 1.388 . S
C510 H497 0.930 . S
C510 C509 1.388 . S
C510 C511 1.390 . S
C511 C510 1.390 . S
C511 C512 1.394 . S
C511 C517 1.465 . S
C512 C507 1.399 . S
C512 C511 1.394 . S
C512 C513 1.516 . S
C513 C512 1.516 . S
C513 C514 1.502 . S
C513 C515 1.561 . S
C513 C516 1.526 . S
C514 H498 0.959 . S
C514 H499 0.959 . S
C514 H500 0.961 . S
C514 C513 1.502 . S
C515 H501 0.960 . S
C515 H502 0.961 . S
C515 H503 0.959 . S
C515 C513 1.561 . S
C516 C513 1.526 . S
C516 C517 1.396 . S
C516 C521 1.390 . S
C517 C511 1.465 . S
C517 C516 1.396 . S
C517 C518 1.399 . S
C518 H504 0.929 . S
C518 C517 1.399 . S
C518 C519 1.385 . S
C519 H505 0.931 . S
C519 C518 1.385 . S
C519 C520 1.389 . S
C520 C519 1.389 . S
C520 C521 1.387 . S
C521 H506 0.930 . S
C521 C516 1.390 . S
C521 C520 1.387 . S
H522 C534 0.930 . S
H523 C536 0.930 . S
H524 C537 0.930 . S
H525 C541 0.959 . S
H526 C541 0.959 . S
H527 C541 0.961 . S
H528 C542 0.960 . S
H529 C542 0.961 . S
H530 C542 0.959 . S
H531 C545 0.929 . S
H532 C546 0.931 . S
H533 C548 0.930 . S
C534 H522 0.930 . S
C534 C535 1.399 . S
C534 C539 1.399 . S
C535 C534 1.399 . S
C535 C536 1.376 . S
C536 H523 0.930 . S
C536 C535 1.376 . S
C536 C537 1.388 . S
C537 H524 0.930 . S
C537 C536 1.388 . S
C537 C538 1.390 . S
C538 C537 1.390 . S
C538 C539 1.394 . S
C538 C544 1.465 . S
C539 C534 1.399 . S
C539 C538 1.394 . S
C539 C540 1.516 . S
C540 C539 1.516 . S
C540 C541 1.502 . S
C540 C542 1.561 . S
C540 C543 1.526 . S
C541 H525 0.959 . S
C541 H526 0.959 . S
C541 H527 0.961 . S
C541 C540 1.502 . S
C542 H528 0.960 . S
C542 H529 0.961 . S
C542 H530 0.959 . S
C542 C540 1.561 . S
C543 C540 1.526 . S
C543 C544 1.396 . S
C543 C548 1.390 . S
C544 C538 1.465 . S
C544 C543 1.396 . S
C544 C545 1.399 . S
C545 H531 0.929 . S
C545 C544 1.399 . S
C545 C546 1.385 . S
C546 H532 0.931 . S
C546 C545 1.385 . S
C546 C547 1.389 . S
C547 C546 1.389 . S
C547 C548 1.387 . S
C548 H533 0.930 . S
C548 C543 1.390 . S
C548 C547 1.387 . S
H549 C561 0.930 . S
H550 C563 0.930 . S
H551 C564 0.930 . S
H552 C568 0.959 . S
H553 C568 0.959 . S
H554 C568 0.961 . S
H555 C569 0.960 . S
H556 C569 0.961 . S
H557 C569 0.959 . S
H558 C572 0.929 . S
H559 C573 0.931 . S
H560 C575 0.930 . S
C561 H549 0.930 . S
C561 C562 1.399 . S
C561 C566 1.399 . S
C562 C561 1.399 . S
C562 C563 1.376 . S
C563 H550 0.930 . S
C563 C562 1.376 . S
C563 C564 1.388 . S
C564 H551 0.930 . S
C564 C563 1.388 . S
C564 C565 1.390 . S
C565 C564 1.390 . S
C565 C566 1.394 . S
C565 C571 1.465 . S
C566 C561 1.399 . S
C566 C565 1.394 . S
C566 C567 1.516 . S
C567 C566 1.516 . S
C567 C568 1.502 . S
C567 C569 1.561 . S
C567 C570 1.526 . S
C568 H552 0.959 . S
C568 H553 0.959 . S
C568 H554 0.961 . S
C568 C567 1.502 . S
C569 H555 0.960 . S
C569 H556 0.961 . S
C569 H557 0.959 . S
C569 C567 1.561 . S
C570 C567 1.526 . S
C570 C571 1.396 . S
C570 C575 1.390 . S
C571 C565 1.465 . S
C571 C570 1.396 . S
C571 C572 1.399 . S
C572 H558 0.929 . S
C572 C571 1.399 . S
C572 C573 1.385 . S
C573 H559 0.931 . S
C573 C572 1.385 . S
C573 C574 1.389 . S
C574 C573 1.389 . S
C574 C575 1.387 . S
C575 H560 0.930 . S
C575 C570 1.390 . S
C575 C574 1.387 . S
H576 C588 0.930 . S
H577 C590 0.930 . S
H578 C591 0.930 . S
H579 C595 0.959 . S
H580 C595 0.959 . S
H581 C595 0.961 . S
H582 C596 0.960 . S
H583 C596 0.961 . S
H584 C596 0.959 . S
H585 C599 0.929 . S
H586 C600 0.931 . S
H587 C602 0.930 . S
C588 H576 0.930 . S
C588 C589 1.399 . S
C588 C593 1.399 . S
C589 C588 1.399 . S
C589 C590 1.376 . S
C590 H577 0.930 . S
C590 C589 1.376 . S
C590 C591 1.388 . S
C591 H578 0.930 . S
C591 C590 1.388 . S
C591 C592 1.390 . S
C592 C591 1.390 . S
C592 C593 1.394 . S
C592 C598 1.465 . S
C593 C588 1.399 . S
C593 C592 1.394 . S
C593 C594 1.516 . S
C594 C593 1.516 . S
C594 C595 1.502 . S
C594 C596 1.561 . S
C594 C597 1.526 . S
C595 H579 0.959 . S
C595 H580 0.959 . S
C595 H581 0.961 . S
C595 C594 1.502 . S
C596 H582 0.960 . S
C596 H583 0.961 . S
C596 H584 0.959 . S
C596 C594 1.561 . S
C597 C594 1.526 . S
C597 C598 1.396 . S
C597 C602 1.390 . S
C598 C592 1.465 . S
C598 C597 1.396 . S
C598 C599 1.399 . S
C599 H585 0.929 . S
C599 C598 1.399 . S
C599 C600 1.385 . S
C600 H586 0.931 . S
C600 C599 1.385 . S
C600 C601 1.389 . S
C601 C600 1.389 . S
C601 C602 1.387 . S
C602 H587 0.930 . S
C602 C597 1.390 . S
C602 C601 1.387 . S
H603 C615 0.930 . S
H604 C617 0.930 . S
H605 C618 0.930 . S
H606 C622 0.959 . S
H607 C622 0.959 . S
H608 C622 0.961 . S
H609 C623 0.960 . S
H610 C623 0.961 . S
H611 C623 0.979 . S
H612 C626 0.929 . S
H613 C627 0.931 . S
H614 C629 0.930 . S
C615 H603 0.930 . S
C615 C616 1.399 . S
C615 C620 1.399 . S
C616 C615 1.399 . S
C616 C617 1.376 . S
C617 H604 0.930 . S
C617 C616 1.376 . S
C617 C618 1.388 . S
C618 H605 0.930 . S
C618 C617 1.388 . S
C618 C619 1.390 . S
C619 C618 1.390 . S
C619 C620 1.394 . S
C619 C625 1.465 . S
C620 C615 1.399 . S
C620 C619 1.394 . S
C620 C621 1.516 . S
C621 C620 1.516 . S
C621 C622 1.502 . S
C621 C623 1.561 . S
C621 C624 1.526 . S
C622 H606 0.959 . S
C622 H607 0.959 . S
C622 H608 0.961 . S
C622 C621 1.502 . S
C623 H609 0.960 . S
C623 H610 0.961 . S
C623 H611 0.979 . S
C623 C621 1.561 . S
C624 C621 1.526 . S
C624 C625 1.396 . S
C624 C629 1.390 . S
C625 C619 1.465 . S
C625 C624 1.396 . S
C625 C626 1.399 . S
C626 H612 0.929 . S
C626 C625 1.399 . S
C626 C627 1.385 . S
C627 H613 0.931 . S
C627 C626 1.385 . S
C627 C628 1.389 . S
C628 C627 1.389 . S
C628 C629 1.387 . S
C629 H614 0.930 . S
C629 C624 1.390 . S
C629 C628 1.387 . S
H630 C642 0.930 . S
H631 C644 0.930 . S
H632 C645 0.930 . S
H633 C649 0.959 . S
H634 C649 0.959 . S
H635 C649 0.961 . S
H636 C650 0.960 . S
H637 C650 0.961 . S
H638 C650 0.959 . S
H639 C653 0.929 . S
H640 C654 0.931 . S
H641 C656 0.930 . S
C642 H630 0.930 . S
C642 C643 1.399 . S
C642 C647 1.399 . S
C643 C642 1.399 . S
C643 C644 1.376 . S
C644 H631 0.930 . S
C644 C643 1.376 . S
C644 C645 1.388 . S
C645 H632 0.930 . S
C645 C644 1.388 . S
C645 C646 1.390 . S
C646 C645 1.390 . S
C646 C647 1.394 . S
C646 C652 1.465 . S
C647 C642 1.399 . S
C647 C646 1.394 . S
C647 C648 1.516 . S
C648 C647 1.516 . S
C648 C649 1.502 . S
C648 C650 1.561 . S
C648 C651 1.526 . S
C649 H633 0.959 . S
C649 H634 0.959 . S
C649 H635 0.961 . S
C649 C648 1.502 . S
C650 H636 0.960 . S
C650 H637 0.961 . S
C650 H638 0.959 . S
C650 C648 1.561 . S
C651 C648 1.526 . S
C651 C652 1.396 . S
C651 C656 1.390 . S
C652 C646 1.465 . S
C652 C651 1.396 . S
C652 C653 1.399 . S
C653 H639 0.929 . S
C653 C652 1.399 . S
C653 C654 1.385 . S
C654 H640 0.931 . S
C654 C653 1.385 . S
C654 C655 1.389 . S
C655 C654 1.389 . S
C655 C656 1.387 . S
C656 H641 0.930 . S
C656 C651 1.390 . S
C656 C655 1.387 . S
H657 C669 0.930 . S
H658 C671 0.930 . S
H659 C672 0.930 . S
H660 C676 0.959 . S
H661 C676 0.959 . S
H662 C676 0.961 . S
H663 C677 0.960 . S
H664 C677 0.961 . S
H665 C677 0.959 . S
H666 C680 0.929 . S
H667 C681 0.931 . S
H668 C683 0.930 . S
C669 H657 0.930 . S
C669 C670 1.399 . S
C669 C674 1.399 . S
C670 C669 1.399 . S
C670 C671 1.376 . S
C671 H658 0.930 . S
C671 C670 1.376 . S
C671 C672 1.388 . S
C672 H659 0.930 . S
C672 C671 1.388 . S
C672 C673 1.390 . S
C673 C672 1.390 . S
C673 C674 1.394 . S
C673 C679 1.465 . S
C674 C669 1.399 . S
C674 C673 1.394 . S
C674 C675 1.516 . S
C675 C674 1.516 . S
C675 C676 1.502 . S
C675 C677 1.561 . S
C675 C678 1.526 . S
C676 H660 0.959 . S
C676 H661 0.959 . S
C676 H662 0.961 . S
C676 C675 1.502 . S
C677 H663 0.960 . S
C677 H664 0.961 . S
C677 H665 0.959 . S
C677 C675 1.561 . S
C678 C675 1.526 . S
C678 C679 1.396 . S
C678 C683 1.390 . S
C679 C673 1.465 . S
C679 C678 1.396 . S
C679 C680 1.399 . S
C680 H666 0.929 . S
C680 C679 1.399 . S
C680 C681 1.385 . S
C681 H667 0.931 . S
C681 C680 1.385 . S
C681 C682 1.389 . S
C682 C681 1.389 . S
C682 C683 1.387 . S
C683 H668 0.930 . S
C683 C678 1.390 . S
C683 C682 1.387 . S
H684 C696 0.930 . S
H685 C698 0.930 . S
H686 C699 0.930 . S
H687 C703 0.959 . S
H688 C703 0.959 . S
H689 C703 0.961 . S
H690 C704 0.960 . S
H691 C704 0.961 . S
H692 C704 0.959 . S
H693 C707 0.929 . S
H694 C708 0.931 . S
H695 C710 0.930 . S
C696 H684 0.930 . S
C696 C697 1.399 . S
C696 C701 1.399 . S
C697 C696 1.399 . S
C697 C698 1.376 . S
C698 H685 0.930 . S
C698 C697 1.376 . S
C698 C699 1.388 . S
C699 H686 0.930 . S
C699 C698 1.388 . S
C699 C700 1.390 . S
C700 C699 1.390 . S
C700 C701 1.394 . S
C700 C706 1.465 . S
C701 C696 1.399 . S
C701 C700 1.394 . S
C701 C702 1.516 . S
C702 C701 1.516 . S
C702 C703 1.502 . S
C702 C704 1.561 . S
C702 C705 1.526 . S
C703 H687 0.959 . S
C703 H688 0.959 . S
C703 H689 0.961 . S
C703 C702 1.502 . S
C704 H690 0.960 . S
C704 H691 0.961 . S
C704 H692 0.959 . S
C704 C702 1.561 . S
C705 C702 1.526 . S
C705 C706 1.396 . S
C705 C710 1.390 . S
C706 C700 1.465 . S
C706 C705 1.396 . S
C706 C707 1.399 . S
C707 H693 0.929 . S
C707 C706 1.399 . S
C707 C708 1.385 . S
C708 H694 0.931 . S
C708 C707 1.385 . S
C708 C709 1.389 . S
C709 C708 1.389 . S
C709 C710 1.387 . S
C710 H695 0.930 . S
C710 C705 1.390 . S
C710 C709 1.387 . S
H711 C723 0.930 . S
H712 C725 0.930 . S
H713 C726 0.930 . S
H714 C730 0.959 . S
H715 C730 0.959 . S
H716 C730 0.961 . S
H717 C731 0.960 . S
H718 C731 0.961 . S
H719 C731 0.959 . S
H720 C734 0.929 . S
H721 C735 0.931 . S
H722 C737 0.930 . S
C723 H711 0.930 . S
C723 C724 1.399 . S
C723 C728 1.399 . S
C724 C723 1.399 . S
C724 C725 1.376 . S
C725 H712 0.930 . S
C725 C724 1.376 . S
C725 C726 1.388 . S
C726 H713 0.930 . S
C726 C725 1.388 . S
C726 C727 1.390 . S
C727 C726 1.390 . S
C727 C728 1.394 . S
C727 C733 1.465 . S
C728 C723 1.399 . S
C728 C727 1.394 . S
C728 C729 1.516 . S
C729 C728 1.516 . S
C729 C730 1.502 . S
C729 C731 1.561 . S
C729 C732 1.526 . S
C730 H714 0.959 . S
C730 H715 0.959 . S
C730 H716 0.961 . S
C730 C729 1.502 . S
C731 H717 0.960 . S
C731 H718 0.961 . S
C731 H719 0.959 . S
C731 C729 1.561 . S
C732 C729 1.526 . S
C732 C733 1.396 . S
C732 C737 1.390 . S
C733 C727 1.465 . S
C733 C732 1.396 . S
C733 C734 1.399 . S
C734 H720 0.929 . S
C734 C733 1.399 . S
C734 C735 1.385 . S
C735 H721 0.931 . S
C735 C734 1.385 . S
C735 C736 1.389 . S
C736 C735 1.389 . S
C736 C737 1.387 . S
C737 H722 0.930 . S
C737 C732 1.390 . S
C737 C736 1.387 . S
H738 C750 0.930 . S
H739 C752 0.930 . S
H740 C753 0.930 . S
H741 C757 0.959 . S
H742 C757 0.959 . S
H743 C757 0.961 . S
H744 C758 0.960 . S
H745 C758 0.961 . S
H746 C758 0.959 . S
H747 C761 0.929 . S
H748 C762 0.931 . S
H749 C764 0.930 . S
C750 H738 0.930 . S
C750 C751 1.399 . S
C750 C755 1.399 . S
C751 C750 1.399 . S
C751 C752 1.376 . S
C752 H739 0.930 . S
C752 C751 1.376 . S
C752 C753 1.388 . S
C753 H740 0.930 . S
C753 C752 1.388 . S
C753 C754 1.390 . S
C754 C753 1.390 . S
C754 C755 1.394 . S
C754 C760 1.465 . S
C755 C750 1.399 . S
C755 C754 1.394 . S
C755 C756 1.516 . S
C756 C755 1.516 . S
C756 C757 1.502 . S
C756 C758 1.561 . S
C756 C759 1.526 . S
C757 H741 0.959 . S
C757 H742 0.959 . S
C757 H743 0.961 . S
C757 C756 1.502 . S
C758 H744 0.960 . S
C758 H745 0.961 . S
C758 H746 0.959 . S
C758 C756 1.561 . S
C759 C756 1.526 . S
C759 C760 1.396 . S
C759 C764 1.390 . S
C760 C754 1.465 . S
C760 C759 1.396 . S
C760 C761 1.399 . S
C761 H747 0.929 . S
C761 C760 1.399 . S
C761 C762 1.385 . S
C762 H748 0.931 . S
C762 C761 1.385 . S
C762 C763 1.389 . S
C763 C762 1.389 . S
C763 C764 1.387 . S
C764 H749 0.930 . S
C764 C759 1.390 . S
C764 C763 1.387 . S
H765 C777 0.930 . S
H766 C779 0.930 . S
H767 C780 0.930 . S
H768 C784 0.959 . S
H769 C784 0.959 . S
H770 C784 0.961 . S
H771 C785 0.960 . S
H772 C785 0.961 . S
H773 C785 0.959 . S
H774 C788 0.929 . S
H775 C789 0.931 . S
H776 C791 0.930 . S
C777 H765 0.930 . S
C777 C778 1.399 . S
C777 C782 1.399 . S
C778 C777 1.399 . S
C778 C779 1.376 . S
C779 H766 0.930 . S
C779 C778 1.376 . S
C779 C780 1.388 . S
C780 H767 0.930 . S
C780 C779 1.388 . S
C780 C781 1.390 . S
C781 C780 1.390 . S
C781 C782 1.394 . S
C781 C787 1.465 . S
C782 C777 1.399 . S
C782 C781 1.394 . S
C782 C783 1.516 . S
C783 C782 1.516 . S
C783 C784 1.502 . S
C783 C785 1.561 . S
C783 C786 1.526 . S
C784 H768 0.959 . S
C784 H769 0.959 . S
C784 H770 0.961 . S
C784 C783 1.502 . S
C785 H771 0.960 . S
C785 H772 0.961 . S
C785 H773 0.959 . S
C785 C783 1.561 . S
C786 C783 1.526 . S
C786 C787 1.396 . S
C786 C791 1.390 1_556 S
C787 C781 1.465 . S
C787 C786 1.396 . S
C787 C788 1.399 1_556 S
C788 H774 0.929 . S
C788 C787 1.399 1_554 S
C788 C789 1.385 . S
C789 H775 0.931 . S
C789 C788 1.385 . S
C789 C790 1.389 . S
C790 C789 1.389 . S
C790 C791 1.387 . S
C791 H776 0.930 . S
C791 C786 1.390 1_554 S
C791 C790 1.387 . S
H792 C804 0.930 . S
H793 C806 0.930 . S
H794 C807 0.930 . S
H795 C811 0.959 . S
H796 C811 0.959 . S
H797 C811 0.961 . S
H798 C812 0.960 . S
H799 C812 0.961 . S
H800 C812 0.959 . S
H801 C815 0.929 . S
H802 C816 0.931 . S
H803 C818 0.930 . S
C804 H792 0.930 . S
C804 C805 1.399 . S
C804 C809 1.399 . S
C805 C804 1.399 . S
C805 C806 1.376 . S
C806 H793 0.930 . S
C806 C805 1.376 . S
C806 C807 1.388 . S
C807 H794 0.930 . S
C807 C806 1.388 . S
C807 C808 1.390 . S
C808 C807 1.390 . S
C808 C809 1.394 . S
C808 C814 1.465 . S
C809 C804 1.399 . S
C809 C808 1.394 . S
C809 C810 1.516 . S
C810 C809 1.516 . S
C810 C811 1.502 . S
C810 C812 1.561 . S
C810 C813 1.526 . S
C811 H795 0.959 . S
C811 H796 0.959 . S
C811 H797 0.961 . S
C811 C810 1.502 . S
C812 H798 0.960 . S
C812 H799 0.961 . S
C812 H800 0.959 . S
C812 C810 1.561 . S
C813 C810 1.526 . S
C813 C814 1.396 . S
C813 C818 1.390 . S
C814 C808 1.465 . S
C814 C813 1.396 . S
C814 C815 1.399 . S
C815 H801 0.929 . S
C815 C814 1.399 . S
C815 C816 1.385 . S
C816 H802 0.931 . S
C816 C815 1.385 . S
C816 C817 1.389 . S
C817 C816 1.389 . S
C817 C818 1.387 . S
C818 H803 0.930 . S
C818 C813 1.390 . S
C818 C817 1.387 . S
H819 C831 0.930 . S
H820 C833 0.930 . S
H821 C834 0.930 . S
H822 C838 0.959 . S
H823 C838 0.959 . S
H824 C838 0.961 . S
H825 C839 0.960 . S
H826 C839 0.961 . S
H827 C839 0.959 . S
H828 C842 0.929 . S
H829 C843 0.931 . S
H830 C845 0.930 . S
C831 H819 0.930 . S
C831 C832 1.399 . S
C831 C836 1.399 . S
C832 C831 1.399 . S
C832 C833 1.376 . S
C833 H820 0.930 . S
C833 C832 1.376 . S
C833 C834 1.388 . S
C834 H821 0.930 . S
C834 C833 1.388 . S
C834 C835 1.390 . S
C835 C834 1.390 . S
C835 C836 1.394 . S
C835 C841 1.465 . S
C836 C831 1.399 . S
C836 C835 1.394 . S
C836 C837 1.516 . S
C837 C836 1.516 . S
C837 C838 1.502 . S
C837 C839 1.561 . S
C837 C840 1.526 . S
C838 H822 0.959 . S
C838 H823 0.959 . S
C838 H824 0.961 . S
C838 C837 1.502 . S
C839 H825 0.960 . S
C839 H826 0.961 . S
C839 H827 0.959 . S
C839 C837 1.561 . S
C840 C837 1.526 . S
C840 C841 1.396 . S
C840 C845 1.390 . S
C841 C835 1.465 . S
C841 C840 1.396 . S
C841 C842 1.399 . S
C842 H828 0.929 . S
C842 C841 1.399 . S
C842 C843 1.385 . S
C843 H829 0.931 . S
C843 C842 1.385 . S
C843 C844 1.389 . S
C844 C843 1.389 . S
C844 C845 1.387 . S
C845 H830 0.930 . S
C845 C840 1.390 . S
C845 C844 1.387 . S
H846 C858 0.930 . S
H847 C860 0.930 . S
H848 C861 0.930 . S
H849 C865 0.959 . S
H850 C865 0.959 . S
H851 C865 0.961 . S
H852 C866 0.960 . S
H853 C866 0.961 . S
H854 C866 0.959 . S
H855 C869 0.929 . S
H856 C870 0.931 . S
H857 C872 0.930 . S
C858 H846 0.930 . S
C858 C859 1.399 . S
C858 C863 1.399 . S
C859 C858 1.399 . S
C859 C860 1.376 . S
C860 H847 0.930 . S
C860 C859 1.376 . S
C860 C861 1.388 . S
C861 H848 0.930 . S
C861 C860 1.388 . S
C861 C862 1.390 . S
C862 C861 1.390 . S
C862 C863 1.394 . S
C862 C868 1.465 . S
C863 C858 1.399 . S
C863 C862 1.394 . S
C863 C864 1.516 . S
C864 C863 1.516 . S
C864 C865 1.502 . S
C864 C866 1.561 . S
C864 C867 1.526 . S
C865 H849 0.959 . S
C865 H850 0.959 . S
C865 H851 0.961 . S
C865 C864 1.502 . S
C866 H852 0.960 . S
C866 H853 0.961 . S
C866 H854 0.959 . S
C866 C864 1.561 . S
C867 C864 1.526 . S
C867 C868 1.396 . S
C867 C872 1.390 . S
C868 C862 1.465 . S
C868 C867 1.396 . S
C868 C869 1.399 . S
C869 H855 0.929 . S
C869 C868 1.399 . S
C869 C870 1.385 . S
C870 H856 0.931 . S
C870 C869 1.385 . S
C870 C871 1.389 . S
C871 C870 1.389 . S
C871 C872 1.387 . S
C872 H857 0.930 . S
C872 C867 1.390 . S
C872 C871 1.387 . S
H873 C885 0.930 . S
H874 C887 0.930 . S
H875 C888 0.930 . S
H876 C892 0.959 . S
H877 C892 0.959 . S
H878 C892 0.961 . S
H879 C893 0.960 . S
H880 C893 0.961 . S
H881 C893 0.959 . S
H882 C896 0.929 . S
H883 C897 0.931 . S
H884 C899 0.930 . S
C885 H873 0.930 . S
C885 C886 1.399 . S
C885 C890 1.399 . S
C886 C885 1.399 . S
C886 C887 1.376 . S
C887 H874 0.930 . S
C887 C886 1.376 . S
C887 C888 1.388 . S
C888 H875 0.930 . S
C888 C887 1.388 . S
C888 C889 1.390 . S
C889 C888 1.390 . S
C889 C890 1.394 . S
C889 C895 1.465 . S
C890 C885 1.399 . S
C890 C889 1.394 . S
C890 C891 1.516 . S
C891 C890 1.516 . S
C891 C892 1.502 . S
C891 C893 1.561 . S
C891 C894 1.526 . S
C892 H876 0.959 . S
C892 H877 0.959 . S
C892 H878 0.961 . S
C892 C891 1.502 . S
C893 H879 0.960 . S
C893 H880 0.961 . S
C893 H881 0.959 . S
C893 C891 1.561 . S
C894 C891 1.526 . S
C894 C895 1.396 . S
C894 C899 1.390 . S
C895 C889 1.465 . S
C895 C894 1.396 . S
C895 C896 1.399 . S
C896 H882 0.929 . S
C896 C895 1.399 . S
C896 C897 1.385 . S
C897 H883 0.931 . S
C897 C896 1.385 . S
C897 C898 1.389 . S
C898 C897 1.389 . S
C898 C899 1.387 . S
C899 H884 0.930 . S
C899 C894 1.390 . S
C899 C898 1.387 . S
H900 C912 0.930 . S
H901 C914 0.930 . S
H902 C915 0.930 . S
H903 C919 0.959 . S
H904 C919 0.959 . S
H905 C919 0.961 . S
H906 C920 0.960 . S
H907 C920 0.961 . S
H908 C920 0.959 . S
H909 C923 0.929 . S
H910 C924 0.931 . S
H911 C926 0.930 . S
C912 H900 0.930 . S
C912 C913 1.399 . S
C912 C917 1.399 . S
C913 C912 1.399 . S
C913 C914 1.376 . S
C914 H901 0.930 . S
C914 C913 1.376 . S
C914 C915 1.388 . S
C915 H902 0.930 . S
C915 C914 1.388 . S
C915 C916 1.390 . S
C916 C915 1.390 . S
C916 C917 1.394 . S
C916 C922 1.465 . S
C917 C912 1.399 . S
C917 C916 1.394 . S
C917 C918 1.516 . S
C918 C917 1.516 . S
C918 C919 1.502 . S
C918 C920 1.561 . S
C918 C921 1.526 . S
C919 H903 0.959 . S
C919 H904 0.959 . S
C919 H905 0.961 . S
C919 C918 1.502 . S
C920 H906 0.960 . S
C920 H907 0.961 . S
C920 H908 0.959 . S
C920 C918 1.561 . S
C921 C918 1.526 . S
C921 C922 1.396 . S
C921 C926 1.390 . S
C922 C916 1.465 . S
C922 C921 1.396 . S
C922 C923 1.399 . S
C923 H909 0.929 . S
C923 C922 1.399 . S
C923 C924 1.385 . S
C924 H910 0.931 . S
C924 C923 1.385 . S
C924 C925 1.389 . S
C925 C924 1.389 . S
C925 C926 1.387 . S
C926 H911 0.930 . S
C926 C921 1.390 . S
C926 C925 1.387 . S
H927 C939 0.930 . S
H928 C941 0.930 . S
H929 C942 0.930 . S
H930 C946 0.959 . S
H931 C946 0.959 . S
H932 C946 0.961 . S
H933 C947 0.960 . S
H934 C947 0.961 . S
H935 C947 0.959 . S
H936 C950 0.929 . S
H937 C951 0.931 . S
H938 C953 0.930 . S
C939 H927 0.930 . S
C939 C940 1.399 . S
C939 C944 1.399 . S
C940 C939 1.399 . S
C940 C941 1.376 . S
C941 H928 0.930 . S
C941 C940 1.376 . S
C941 C942 1.388 . S
C942 H929 0.930 . S
C942 C941 1.388 . S
C942 C943 1.390 . S
C943 C942 1.390 . S
C943 C944 1.394 . S
C943 C949 1.465 . S
C944 C939 1.399 . S
C944 C943 1.394 . S
C944 C945 1.516 . S
C945 C944 1.516 . S
C945 C946 1.502 . S
C945 C947 1.561 . S
C945 C948 1.526 . S
C946 H930 0.959 . S
C946 H931 0.959 . S
C946 H932 0.961 . S
C946 C945 1.502 . S
C947 H933 0.960 . S
C947 H934 0.961 . S
C947 H935 0.959 . S
C947 C945 1.561 . S
C948 C945 1.526 . S
C948 C949 1.396 . S
C948 C953 1.390 . S
C949 C943 1.465 . S
C949 C948 1.396 . S
C949 C950 1.399 . S
C950 H936 0.929 . S
C950 C949 1.399 . S
C950 C951 1.385 . S
C951 H937 0.931 . S
C951 C950 1.385 . S
C951 C952 1.389 . S
C952 C951 1.389 . S
C952 C953 1.387 . S
C953 H938 0.930 . S
C953 C948 1.390 . S
C953 C952 1.387 . S
H954 C966 0.930 . S
H955 C968 0.930 . S
H956 C969 0.930 . S
H957 C973 0.959 . S
H958 C973 0.959 . S
H959 C973 0.961 . S
H960 C974 0.942 1_554 S
H961 C974 0.999 . S
H962 C974 0.937 1_554 S
H963 C977 0.929 . S
H964 C978 0.931 . S
H965 C980 0.930 . S
C966 H954 0.930 . S
C966 C967 1.399 . S
C966 C971 1.399 . S
C967 C966 1.399 . S
C967 C968 1.376 . S
C968 H955 0.930 . S
C968 C967 1.376 . S
C968 C969 1.388 . S
C969 H956 0.930 . S
C969 C968 1.388 . S
C969 C970 1.390 . S
C970 C969 1.390 . S
C970 C971 1.394 . S
C970 C976 1.465 . S
C971 C966 1.399 . S
C971 C970 1.394 . S
C971 C972 1.516 1_554 S
C972 C971 1.516 1_556 S
C972 C973 1.502 . S
C972 C974 1.566 . S
C972 C975 1.526 . S
C973 H957 0.959 . S
C973 H958 0.959 . S
C973 H959 0.961 . S
C973 C972 1.502 . S
C974 H960 0.942 1_556 S
C974 H961 0.999 . S
C974 H962 0.937 1_556 S
C974 C972 1.566 . S
C975 C972 1.526 . S
C975 C976 1.396 1_556 S
C975 C980 1.390 . S
C976 C970 1.465 . S
C976 C975 1.396 1_554 S
C976 C977 1.399 . S
C977 H963 0.929 . S
C977 C976 1.399 . S
C977 C978 1.385 1_554 S
C978 H964 0.931 . S
C978 C977 1.385 1_556 S
C978 C979 1.389 . S
C979 C978 1.389 . S
C979 C980 1.387 . S
C980 H965 0.930 . S
C980 C975 1.390 . S
C980 C979 1.387 . S
H981 C993 0.930 . S
H982 C995 0.930 . S
H983 C996 0.930 . S
H984 C1000 0.959 . S
H985 C1000 0.959 . S
H986 C1000 0.961 . S
H987 C1001 0.960 . S
H988 C1001 0.961 . S
H989 C1001 0.959 . S
H990 C1004 0.929 . S
H991 C1005 0.931 . S
H992 C1007 0.930 . S
C993 H981 0.930 . S
C993 C994 1.399 . S
C993 C998 1.399 . S
C994 C993 1.399 . S
C994 C995 1.376 . S
C995 H982 0.930 . S
C995 C994 1.376 . S
C995 C996 1.388 . S
C996 H983 0.930 . S
C996 C995 1.388 . S
C996 C997 1.390 . S
C997 C996 1.390 . S
C997 C998 1.394 . S
C997 C1003 1.465 . S
C998 C993 1.399 . S
C998 C997 1.394 . S
C998 C999 1.516 . S
C999 C998 1.516 . S
C999 C1000 1.502 . S
C999 C1001 1.561 . S
C999 C1002 1.526 . S
C1000 H984 0.959 . S
C1000 H985 0.959 . S
C1000 H986 0.961 . S
C1000 C999 1.502 . S
C1001 H987 0.960 . S
C1001 H988 0.961 . S
C1001 H989 0.959 . S
C1001 C999 1.561 . S
C1002 C999 1.526 . S
C1002 C1003 1.396 . S
C1002 C1007 1.390 . S
C1003 C997 1.465 . S
C1003 C1002 1.396 . S
C1003 C1004 1.399 . S
C1004 H990 0.929 . S
C1004 C1003 1.399 . S
C1004 C1005 1.385 . S
C1005 H991 0.931 . S
C1005 C1004 1.385 . S
C1005 C1006 1.389 . S
C1006 C1005 1.389 . S
C1006 C1007 1.387 . S
C1007 H992 0.930 . S
C1007 C1002 1.390 . S
C1007 C1006 1.387 . S
C385 C346 1.605 . S
C373 C15 1.560 . S
C400 C61 1.609 . S
C412 C287 1.606 . S
C427 C114 1.558 . S
C439 C290 1.586 . S
C454 C139 1.571 . S
C466 C304 1.602 . S
C493 C329 1.605 . S
C481 C185 1.615 . S
C508 C245 1.584 . S
C520 C332 1.589 . S
C535 C47 1.580 . S
C547 C301 1.570 . S
C562 C100 1.590 . S
C574 C315 1.580 . S
C589 C153 1.546 . S
C601 C318 1.570 . S
C628 C343 1.574 . S
C616 C199 1.567 . S
C655 C357 1.591 . S
C643 C231 1.554 . S
C682 C276 1.569 . S
C670 C1 1.566 . S
C697 C22 1.448 . S
C709 C299 1.459 . S
C724 C68 1.481 . S
C736 C313 1.464 . S
C763 C323 1.482 . S
C751 C107 1.469 . S
C778 C146 1.470 . S
C790 C341 1.472 . S
C817 C355 1.481 . S
C805 C192 1.478 . S
C844 C281 1.481 . S
C832 C252 1.468 . S
C871 C351 1.505 . S
C859 C54 1.503 . S
C886 C93 1.476 . S
C898 C285 1.471 . S
C925 C295 1.488 . S
C913 C160 1.478 . S
C940 C206 1.499 . S
C952 C309 1.503 . S
C967 C238 1.476 . S
C979 C327 1.471 . S
C994 C8 1.492 . S
C1006 C337 1.488 . S
