# Generated by pormake.
# Topology rtl, (3,6)-cn, num edge types: 1
# Building blocks:
#     Node 0, Type 0, BuildingBlock: BETDIP_clean_linker_0, # of connection points: 3
#     Node 1, Type 0, BuildingBlock: BETDIP_clean_linker_0, # of connection points: 3
#     Node 2, Type 0, BuildingBlock: BETDIP_clean_linker_0, # of connection points: 3
#     Node 3, Type 0, BuildingBlock: BETDIP_clean_linker_0, # of connection points: 3
#     Node 4, Type 1, BuildingBlock: CIFDUS_clean_sbu_1, # of connection points: 6
#     Node 5, Type 1, BuildingBlock: CIFDUS_clean_sbu_1, # of connection points: 6
#     Edge 6, Type (0, 1), BuildingBlock: FUNLAD_clean_linker_1, # of connection points: 2
#     Edge 7, Type (0, 1), BuildingBlock: FUNLAD_clean_linker_1, # of connection points: 2
#     Edge 8, Type (0, 1), BuildingBlock: FUNLAD_clean_linker_1, # of connection points: 2
#     Edge 9, Type (0, 1), BuildingBlock: FUNLAD_clean_linker_1, # of connection points: 2
#     Edge 10, Type (0, 1), BuildingBlock: FUNLAD_clean_linker_1, # of connection points: 2
#     Edge 11, Type (0, 1), BuildingBlock: FUNLAD_clean_linker_1, # of connection points: 2
#     Edge 12, Type (0, 1), BuildingBlock: FUNLAD_clean_linker_1, # of connection points: 2
#     Edge 13, Type (0, 1), BuildingBlock: FUNLAD_clean_linker_1, # of connection points: 2
#     Edge 14, Type (0, 1), BuildingBlock: FUNLAD_clean_linker_1, # of connection points: 2
#     Edge 15, Type (0, 1), BuildingBlock: FUNLAD_clean_linker_1, # of connection points: 2
#     Edge 16, Type (0, 1), BuildingBlock: FUNLAD_clean_linker_1, # of connection points: 2
#     Edge 17, Type (0, 1), BuildingBlock: FUNLAD_clean_linker_1, # of connection points: 2
# Relax obj value: 0.017
# Max RMSD: 0.115
# Mean RMSD: 0.088
data_MOF--net-rtl--node1-CIFDUS_clean_sbu_1--node2-BETDIP_clean_linker_0--edge1-FUNLAD_clean_linker_1
_symmetry_space_group_name_H-M    P1
_symmetry_Int_Tables_number       1
_symmetry_cell_setting            triclinic
loop_
_symmetry_equiv_pos_as_xyz
'x, y, z'
_cell_length_a     36.129742
_cell_length_b     36.487053
_cell_length_c     22.481267
_cell_angle_alpha  91.090623
_cell_angle_beta   98.568596
_cell_angle_gamma 90.041991
loop_
_atom_site_label
_atom_site_type_symbol
_atom_site_fract_x
_atom_site_fract_y
_atom_site_fract_z
_atom_type_partial_charge
H0 H 0.21606 0.80453 0.01724 0.0
H1 H 0.23262 0.82298 0.20865 0.0
H2 H 0.15808 0.89238 0.09352 0.0
H3 H 0.29583 0.80671 0.18542 0.0
C4 C 0.28679 0.78137 0.16144 0.0
C5 C 0.20945 0.81971 0.0562 0.0
C6 C 0.1841 0.84901 0.04856 0.0
C7 C 0.22727 0.81048 0.11365 0.0
C8 C 0.21925 0.83045 0.16416 0.0
C9 C 0.19341 0.85939 0.15785 0.0
C10 C 0.1762 0.86875 0.09964 0.0
N11 N 0.25304 0.78087 0.11967 0.0
H12 H 0.7437 0.73851 0.71412 0.0
H13 H 0.73103 0.74256 0.52095 0.0
H14 H 0.66498 0.66719 0.60598 0.0
H15 H 0.78295 0.78506 0.71476 0.0
C16 C 0.78819 0.7907 0.66956 0.0
C17 C 0.73063 0.72875 0.67043 0.0
C18 C 0.70326 0.70084 0.6663 0.0
C19 C 0.74046 0.74408 0.6176 0.0
C20 C 0.72273 0.73118 0.56109 0.0
C21 C 0.69533 0.70347 0.5565 0.0
C22 C 0.68603 0.68867 0.60932 0.0
N23 N 0.76813 0.77208 0.61843 0.0
H24 H 0.81305 0.23473 0.90806 0.0
H25 H 0.82421 0.25049 0.09995 0.0
H26 H 0.89197 0.17055 0.02443 0.0
H27 H 0.75448 0.25467 0.91132 0.0
C28 C 0.75727 0.27528 0.94714 0.0
C29 C 0.82594 0.22764 0.95291 0.0
C30 C 0.85424 0.20099 0.9596 0.0
C31 C 0.81482 0.24544 1.00339 0.0
C32 C 0.83285 0.23685 0.06104 0.0
C33 C 0.86135 0.21046 0.06898 0.0
C34 C 0.87164 0.19236 0.01803 0.0
N35 N 0.78591 0.27225 0.99777 0.0
H36 H 0.29692 0.34087 0.38913 0.0
H37 H 0.32662 0.33261 0.58096 0.0
H38 H 0.36805 0.42245 0.48878 0.0
H39 H 0.25064 0.30179 0.40017 0.0
C40 C 0.25854 0.28696 0.4415 0.0
C41 C 0.3113 0.3515 0.4316 0.0
C42 C 0.33353 0.38323 0.43187 0.0
C43 C 0.30873 0.33315 0.48554 0.0
C44 C 0.32902 0.34666 0.5397 0.0
C45 C 0.3507 0.3788 0.54117 0.0
C46 C 0.35227 0.39711 0.48721 0.0
N47 N 0.28669 0.30085 0.4876 0.0
O48 O 1.00908 0.07326 0.49349 0.0
Mn49 Mn 0.02787 0.03426 0.55967 0.0
O50 O 0.95765 0.0498 0.43716 0.0
Mn51 Mn 0.96637 1.00237 0.46225 0.0
O52 O 0.04651 0.99518 0.62575 0.0
O53 O 0.07558 0.06402 0.57893 0.0
Mn54 Mn 0.08881 0.06584 0.6577 0.0
O55 O 1.00296 0.06469 0.62306 0.0
O56 O 0.09776 0.0184 0.68272 0.0
O57 O 0.05258 1.00366 0.49609 0.0
O58 O 1.00498 0.97841 0.43195 0.0
O59 O 0.12426 0.09257 0.6267 0.0
O60 O 0.05015 0.08951 0.68835 0.0
C61 C 0.95156 0.98428 0.54568 0.0
C62 C 0.98074 0.076 0.4516 0.0
C63 C 0.07463 0.99229 0.66797 0.0
C64 C 0.10417 0.0849 0.57528 0.0
C65 C 1.0154 0.08485 0.66936 0.0
C66 C 0.03981 0.98314 0.45034 0.0
O67 O 0.98016 1.00474 0.5407 0.0
O68 O 0.93104 0.97619 0.49482 0.0
O69 O 0.54871 0.56873 0.12797 0.0
Mn70 Mn 0.52827 0.53217 0.0572 0.0
O71 O 0.58628 0.5368 0.19718 0.0
Mn72 Mn 0.57132 0.49092 0.16583 0.0
O73 O 0.50751 0.49608 0.98533 0.0
O74 O 0.48991 0.57016 0.02646 0.0
Mn75 Mn 0.49151 0.5761 0.94895 0.0
O76 O 0.56816 0.55452 1.00851 0.0
O77 O 0.47835 0.53137 0.91165 0.0
O78 O 0.48981 0.50926 0.10869 0.0
O79 O 0.5247 0.47529 0.17917 0.0
O80 O 0.45554 0.60783 0.96807 0.0
O81 O 0.53854 0.59344 0.94175 0.0
C82 C 0.59236 0.47022 0.08747 0.0
C83 C 0.57224 0.56694 0.17679 0.0
C84 C 0.48814 0.50006 0.93281 0.0
C85 C 0.46379 0.59464 0.02149 0.0
C86 C 0.56842 0.57926 0.96864 0.0
C87 C 0.49325 0.48677 0.15291 0.0
O88 O 0.5668 0.4948 0.08732 0.0
O89 O 0.60516 0.4583 0.14033 0.0
H90 H 0.2474 0.24072 0.49363 0.0
C91 C 0.23943 0.25475 0.45144 0.0
H92 H 0.20053 0.2549 0.36844 0.0
H93 H 0.19409 0.08702 0.48682 0.0
H94 H 0.2566 0.07898 0.46035 0.0
H95 H 0.28795 0.12948 0.41566 0.0
H96 H 0.25719 0.18831 0.39738 0.0
C97 C 0.20986 0.24045 0.40978 0.0
C98 C 0.18841 0.20756 0.4244 0.0
C99 C 0.20638 0.17316 0.43328 0.0
C100 C 0.18822 0.14395 0.45858 0.0
C101 C 0.20703 0.11011 0.46828 0.0
C102 C 0.24268 0.10512 0.45296 0.0
C103 C 0.26034 0.13357 0.4278 0.0
C104 C 0.24251 0.16724 0.41791 0.0
H105 H 0.09392 0.09814 0.4774 0.0
C106 C 0.11234 0.10254 0.51972 0.0
H107 H 0.1602 0.12909 0.56644 0.0
H108 H 0.14288 0.26699 0.40032 0.0
H109 H 0.07869 0.27292 0.41912 0.0
H110 H 0.04746 0.22231 0.46361 0.0
H111 H 0.08013 0.16546 0.48937 0.0
C112 C 0.14161 0.12601 0.52392 0.0
C113 C 0.1522 0.14902 0.475 0.0
C114 C 0.13235 0.18173 0.45879 0.0
C115 C 0.15046 0.21102 0.4332 0.0
C116 C 0.13047 0.24389 0.41954 0.0
C117 C 0.09363 0.24766 0.43019 0.0
C118 C 0.07605 0.21917 0.4553 0.0
C119 C 0.09515 0.18665 0.46996 0.0
H120 H 0.34071 0.75753 0.18573 0.0
C121 C 0.31221 0.7523 0.16413 0.0
H122 H 0.27372 0.71173 0.12055 0.0
H123 H 0.38414 0.63371 0.96952 0.0
H124 H 0.33263 0.65147 0.89398 0.0
H125 H 0.28065 0.68867 0.92175 0.0
H126 H 0.27957 0.70779 0.02478 0.0
C127 C 0.30281 0.71771 0.13796 0.0
C128 C 0.33223 0.69184 0.12281 0.0
C129 C 0.33236 0.68121 0.06177 0.0
C130 C 0.36293 0.66088 0.04533 0.0
C131 C 0.36217 0.65013 0.98422 0.0
C132 C 0.33266 0.65994 0.9404 0.0
C133 C 0.30337 0.68078 0.95607 0.0
C134 C 0.3031 0.69146 1.0158 0.0
H135 H 0.43345 0.58663 0.09935 0.0
C136 C 0.44282 0.60676 0.06985 0.0
H137 H 0.43956 0.66026 0.03719 0.0
H138 H 0.33567 0.69831 0.24494 0.0
H139 H 0.3869 0.67893 0.32046 0.0
H140 H 0.44228 0.6481 0.29067 0.0
H141 H 0.44644 0.63567 0.18523 0.0
C142 C 0.42944 0.64122 0.06788 0.0
C143 C 0.39396 0.6523 0.08928 0.0
C144 C 0.39243 0.66006 0.15074 0.0
C145 C 0.3611 0.6792 0.16769 0.0
C146 C 0.35951 0.68527 0.22958 0.0
C147 C 0.38856 0.67404 0.27329 0.0
C148 C 0.41973 0.65659 0.25652 0.0
C149 C 0.42182 0.64965 0.19595 0.0
H150 H 0.81923 0.82243 0.6147 0.0
C151 C 0.8147 0.81723 0.66053 0.0
H152 H 0.8302 0.83387 0.75378 0.0
H153 H 0.95868 0.89575 0.58912 0.0
H154 H 0.97537 0.83175 0.57864 0.0
H155 H 0.94144 0.7832 0.62351 0.0
H156 H 0.89023 0.79839 0.67844 0.0
C157 C 0.83533 0.83758 0.70787 0.0
C158 C 0.86205 0.86669 0.69497 0.0
C159 C 0.89297 0.85753 0.66546 0.0
C160 C 0.91313 0.8856 0.64086 0.0
C161 C 0.9426 0.87554 0.60892 0.0
C162 C 0.95254 0.83892 0.6028 0.0
C163 C 0.93341 0.81158 0.628 0.0
C164 C 0.90395 0.82062 0.65903 0.0
H165 H 0.96551 0.96648 0.64089 0.0
C166 C 0.94382 0.96734 0.60192 0.0
H167 H 0.88956 0.95119 0.562 0.0
H168 H 0.81029 0.89426 0.76126 0.0
H169 H 0.798 0.95863 0.77979 0.0
H170 H 0.83382 1.00707 0.73819 0.0
H171 H 0.88236 0.9913 0.67762 0.0
C172 C 0.91116 0.94924 0.60101 0.0
C173 C 0.90273 0.92278 0.64672 0.0
C174 C 0.87543 0.93209 0.68337 0.0
C175 C 0.85501 0.90407 0.70767 0.0
C176 C 0.82681 0.91438 0.74207 0.0
C177 C 0.81948 0.95122 0.75299 0.0
C178 C 0.8396 0.97852 0.72948 0.0
C179 C 0.86719 0.9692 0.69474 0.0
H180 H 0.70611 0.30045 0.90842 0.0
C181 C 0.7294 0.30208 0.94504 0.0
H182 H 0.75259 0.33165 0.02609 0.0
H183 H 0.6136 0.44271 0.91308 0.0
H184 H 0.64744 0.45103 0.82865 0.0
H185 H 0.70419 0.41503 0.81964 0.0
H186 H 0.72719 0.37011 0.89443 0.0
C187 C 0.7296 0.32981 0.989 0.0
C188 C 0.69564 0.35228 0.99353 0.0
C189 C 0.68305 0.37898 0.95002 0.0
C190 C 0.65103 0.40073 0.95629 0.0
C191 C 0.63837 0.42631 0.91131 0.0
C192 C 0.65742 0.43122 0.86253 0.0
C193 C 0.68932 0.41086 0.85737 0.0
C194 C 0.70213 0.38504 0.90048 0.0
H195 H 0.63363 0.46908 0.0265 0.0
C196 C 0.60767 0.45636 0.03453 0.0
H197 H 0.57573 0.40832 0.02875 0.0
H198 H 0.71081 0.30195 0.08275 0.0
H199 H 0.67849 0.29509 0.16872 0.0
H200 H 0.62527 0.33491 0.18284 0.0
H201 H 0.60382 0.38135 0.11099 0.0
C202 C 0.60093 0.42119 0.01766 0.0
C203 C 0.63238 0.39655 1.00697 0.0
C204 C 0.64491 0.36963 0.0503 0.0
C205 C 0.67628 0.34733 0.04319 0.0
C206 C 0.68767 0.32023 0.08649 0.0
C207 C 0.6693 0.31586 0.13608 0.0
C208 C 0.63931 0.33821 0.14394 0.0
C209 C 0.62718 0.3648 0.1019 0.0
H210 H 0.2061 0.87685 0.25382 0.0
C211 C 0.18596 0.8796 0.21308 0.0
H212 H 0.13346 0.90209 0.17726 0.0
H213 H 0.11259 0.90603 0.46263 0.0
H214 H 0.11619 0.83953 0.45759 0.0
H215 H 0.13292 0.80793 0.36735 0.0
H216 H 0.14672 0.84239 0.28229 0.0
C217 C 0.15462 0.89898 0.21641 0.0
C218 C 0.14746 0.91745 0.27333 0.0
C219 C 0.13879 0.89659 0.32216 0.0
C220 C 0.12762 0.91466 0.37323 0.0
C221 C 0.12001 0.89343 0.42207 0.0
C222 C 0.12217 0.85534 0.41987 0.0
C223 C 0.13171 0.83757 0.36914 0.0
C224 C 0.1398 0.85777 0.32066 0.0
H225 H 0.05279 0.94419 0.38121 0.0
C226 C 0.06543 0.96396 0.41512 0.0
H227 H 0.11541 0.99221 0.44975 0.0
H228 H 0.16636 0.96563 0.19107 0.0
H229 H 0.16337 0.03207 0.19744 0.0
H230 H 0.14242 0.06314 0.28497 0.0
H231 H 0.12439 0.028 0.36675 0.0
C232 C 0.10217 0.97117 0.41887 0.0
C233 C 0.12354 0.9533 0.37435 0.0
C234 C 0.13471 0.97424 0.32763 0.0
C235 C 0.14656 0.95629 0.27697 0.0
C236 C 0.15685 0.97787 0.23032 0.0
C237 C 0.15535 0.01601 0.23348 0.0
C238 C 0.14355 0.03351 0.28277 0.0
C239 C 0.13322 0.01301 0.32935 0.0
H240 H 0.6641 0.6685 0.71056 0.0
C241 C 0.69032 0.68379 0.71925 0.0
H242 H 0.73478 0.69902 0.78828 0.0
H243 H 0.61384 0.67886 0.96896 0.0
H244 H 0.62801 0.74398 0.98182 0.0
H245 H 0.67163 0.77352 0.92263 0.0
H246 H 0.7015 0.73812 0.85037 0.0
C247 C 0.70858 0.68431 0.77598 0.0
C248 C 0.69138 0.6652 0.82337 0.0
C249 C 0.67511 0.68599 0.86641 0.0
C250 C 0.64968 0.66902 0.90004 0.0
C251 C 0.63296 0.6906 0.9417 0.0
C252 C 0.64098 0.7279 0.94965 0.0
C253 C 0.66556 0.74453 0.91635 0.0
C254 C 0.68245 0.72396 0.875 0.0
H255 H 0.63047 0.57943 0.97398 0.0
C256 C 0.60464 0.59162 0.95224 0.0
H257 H 0.57994 0.6304 0.89011 0.0
H258 H 0.7261 0.61625 0.75737 0.0
H259 H 0.71396 0.55064 0.74683 0.0
H260 H 0.66754 0.52144 0.80105 0.0
H261 H 0.63345 0.55729 0.86654 0.0
C262 C 0.60569 0.61733 0.91022 0.0
C263 C 0.64056 0.63133 0.8905 0.0
C264 C 0.66015 0.60968 0.85241 0.0
C265 C 0.68607 0.62665 0.8196 0.0
C266 C 0.70545 0.60467 0.78197 0.0
C267 C 0.69887 0.56707 0.77578 0.0
C268 C 0.67278 0.55062 0.80641 0.0
C269 C 0.65342 0.57157 0.84408 0.0
H270 H 0.85946 0.20041 0.16542 0.0
C271 C 0.87766 0.19984 0.13101 0.0
H272 H 0.93202 0.18863 0.11203 0.0
H273 H 0.94359 0.17949 0.41327 0.0
H274 H 0.93009 0.24481 0.41189 0.0
H275 H 0.91619 0.27718 0.31578 0.0
H276 H 0.91523 0.24446 0.22038 0.0
C277 C 0.91333 0.18864 0.14567 0.0
C278 C 0.92672 0.17106 0.20449 0.0
C279 C 0.92823 0.19083 0.25989 0.0
C280 C 0.93715 0.17235 0.31552 0.0
C281 C 0.93725 0.19237 0.37 0.0
C282 C 0.92964 0.22981 0.36978 0.0
C283 C 0.92176 0.24803 0.31563 0.0
C284 C 0.92106 0.22892 0.26119 0.0
H285 H 1.00112 0.12621 0.41179 0.0
C286 C 0.97698 0.10851 0.41235 0.0
H287 H 0.92228 0.09443 0.37159 0.0
H288 H 0.93026 0.12543 0.10687 0.0
H289 H 0.94806 0.06151 0.10911 0.0
H290 H 0.96548 0.03028 0.20555 0.0
H291 H 0.96498 0.06288 0.30041 0.0
C292 C 0.94605 0.11267 0.37126 0.0
C293 C 0.94524 0.1344 0.31565 0.0
C294 C 0.94676 0.1154 0.26045 0.0
C295 C 0.93735 0.13362 0.20487 0.0
C296 C 0.93773 0.11333 0.15053 0.0
C297 C 0.94781 0.07649 0.15108 0.0
C298 C 0.95755 0.05888 0.20535 0.0
C299 C 0.957 0.07792 0.25948 0.0
H300 H 0.37545 0.42483 0.59942 0.0
C301 C 0.37028 0.39542 0.59847 0.0
H302 H 0.38057 0.34675 0.64829 0.0
H303 H 0.51426 0.43149 0.81776 0.0
H304 H 0.54967 0.39012 0.76206 0.0
H305 H 0.51771 0.35056 0.67989 0.0
H306 H 0.45006 0.35231 0.65258 0.0
C307 C 0.38278 0.37641 0.64827 0.0
C308 C 0.40156 0.39576 0.70391 0.0
C309 C 0.44093 0.39356 0.72071 0.0
C310 C 0.45938 0.41618 0.76861 0.0
C311 C 0.49884 0.41468 0.78236 0.0
C312 C 0.51949 0.39107 0.75068 0.0
C313 C 0.50149 0.3688 0.70439 0.0
C314 C 0.46269 0.37003 0.68919 0.0
H315 H 0.47968 0.4401 0.91395 0.0
C316 C 0.47527 0.46721 0.89508 0.0
H317 H 0.45185 0.49828 0.8205 0.0
H318 H 0.32534 0.40142 0.69096 0.0
H319 H 0.28963 0.44064 0.7497 0.0
H320 H 0.32147 0.47984 0.83244 0.0
H321 H 0.38924 0.47994 0.85714 0.0
C322 C 0.4569 0.47103 0.83862 0.0
C323 C 0.43829 0.44056 0.80011 0.0
C324 C 0.39867 0.44039 0.78653 0.0
C325 C 0.3803 0.41795 0.73859 0.0
C326 C 0.34071 0.41843 0.72621 0.0
C327 C 0.31987 0.44065 0.75977 0.0
C328 C 0.3378 0.46272 0.80636 0.0
C329 C 0.37671 0.46267 0.81984 0.0
H330 H 0.66307 0.66103 0.49961 0.0
C331 C 0.67652 0.68765 0.49814 0.0
H332 H 0.68651 0.73049 0.43992 0.0
H333 H 0.67073 0.61392 0.22108 0.0
H334 H 0.7355 0.63349 0.22653 0.0
H335 H 0.76384 0.67668 0.30629 0.0
H336 H 0.72764 0.70068 0.38098 0.0
C337 C 0.67382 0.70394 0.44444 0.0
C338 C 0.65471 0.68436 0.38927 0.0
C339 C 0.67602 0.67125 0.34536 0.0
C340 C 0.65979 0.64605 0.29973 0.0
C341 C 0.68191 0.63274 0.25712 0.0
C342 C 0.71902 0.64386 0.25961 0.0
C343 C 0.73497 0.66821 0.30448 0.0
C344 C 0.7139 0.68175 0.3471 0.0
H345 H 0.57081 0.62696 0.19595 0.0
C346 C 0.58357 0.60121 0.21136 0.0
H347 H 0.62306 0.57528 0.2757 0.0
H348 H 0.60375 0.71169 0.45667 0.0
H349 H 0.53833 0.69389 0.44913 0.0
H350 H 0.51083 0.6481 0.37301 0.0
H351 H 0.5483 0.62018 0.30358 0.0
C352 C 0.60926 0.60077 0.26141 0.0
C353 C 0.6223 0.63406 0.29799 0.0
C354 C 0.59992 0.64991 0.33836 0.0
C355 C 0.61605 0.6755 0.3835 0.0
C356 C 0.59308 0.69133 0.42279 0.0
C357 C 0.55549 0.68152 0.41869 0.0
C358 C 0.54 0.65578 0.37575 0.0
C359 C 0.56184 0.63998 0.33608 0.0
H360 H 0.84451 0.18519 0.86272 0.0
C361 C 0.86386 0.18226 0.90433 0.0
H362 H 0.9162 0.16002 0.94191 0.0
H363 H 0.92988 0.03785 0.74768 0.0
H364 H 0.91001 1.0009 0.82591 0.0
H365 H 0.88677 0.02999 0.91311 0.0
H366 H 0.88353 0.0963 0.92291 0.0
C367 C 0.89574 0.16358 0.90203 0.0
C368 C 0.90437 0.14633 0.84504 0.0
C369 C 0.90539 0.10756 0.83934 0.0
C370 C 0.91843 0.09075 0.78873 0.0
C371 C 0.92009 0.05202 0.78505 0.0
C372 C 0.90872 0.03048 0.82959 0.0
C373 C 0.89565 0.04687 0.87871 0.0
C374 C 0.89401 0.08494 0.88384 0.0
H375 H 1.00165 0.1227 0.73955 0.0
C376 C 0.98938 0.10337 0.70462 0.0
H377 H 0.93981 0.07525 0.66755 0.0
H378 H 0.90505 0.22155 0.84029 0.0
H379 H 0.92053 0.25794 0.75839 0.0
H380 H 0.93923 0.22836 0.66789 0.0
H381 H 0.94316 0.162 0.65944 0.0
C382 C 0.95263 0.0959 0.69958 0.0
C383 C 0.93056 0.11276 0.74405 0.0
C384 C 0.92637 0.15136 0.74706 0.0
C385 C 0.91406 0.16828 0.79817 0.0
C386 C 0.91286 0.20705 0.80172 0.0
C387 C 0.92189 0.22834 0.75508 0.0
C388 C 0.93254 0.21171 0.70421 0.0
C389 C 0.93489 0.17368 0.70007 0.0
H390 H 0.31403 0.39756 0.33649 0.0
C391 C 0.33659 0.40153 0.37386 0.0
H392 H 0.39037 0.42433 0.40113 0.0
H393 H 0.40257 0.42518 0.11482 0.0
H394 H 0.39062 0.3594 0.11237 0.0
H395 H 0.37107 0.32905 0.19985 0.0
H396 H 0.36258 0.36397 0.28937 0.0
C397 C 0.36719 0.42064 0.36485 0.0
C398 C 0.37146 0.43853 0.30694 0.0
C399 C 0.37659 0.41729 0.25521 0.0
C400 C 0.38944 0.43444 0.20562 0.0
C401 C 0.39391 0.41301 0.15412 0.0
C402 C 0.38701 0.37542 0.15211 0.0
C403 C 0.37589 0.35836 0.20132 0.0
C404 C 0.37091 0.37885 0.25247 0.0
H405 H 0.46645 0.44942 0.20775 0.0
C406 C 0.46058 0.4722 0.17719 0.0
H407 H 0.41955 0.51085 0.14355 0.0
H408 H 0.35733 0.48815 0.39311 0.0
H409 H 0.3677 0.55401 0.39308 0.0
H410 H 0.39213 0.58305 0.30853 0.0
H411 H 0.40619 0.54651 0.2233 0.0
C412 C 0.42605 0.48663 0.1704 0.0
C413 C 0.39906 0.4722 0.20896 0.0
C414 C 0.38993 0.49402 0.25739 0.0
C415 C 0.37616 0.47717 0.30644 0.0
C416 C 0.36828 0.49953 0.35512 0.0
C417 C 0.37398 0.53732 0.35554 0.0
C418 C 0.38773 0.55369 0.30792 0.0
C419 C 0.39579 0.53241 0.25938 0.0
H420 H 0.18752 0.85935 0.95277 0.0
C421 C 0.16904 0.86092 0.98672 0.0
H422 H 0.11554 0.87561 1.0054 0.0
H423 H 0.08902 1.00452 0.82269 0.0
H424 H 0.08742 0.03534 0.91875 0.0
H425 H 0.1024 1.00201 1.01369 0.0
H426 H 0.11871 0.93777 1.01322 0.0
C427 C 0.13436 0.87468 0.97196 0.0
C428 C 0.12266 0.8937 0.91377 0.0
C429 C 0.11317 0.93144 0.91499 0.0
C430 C 0.10536 0.95092 0.86033 0.0
C431 C 0.0959 0.98857 0.8629 0.0
C432 C 0.09473 1.00659 0.91773 0.0
C433 C 0.10308 0.98781 0.97114 0.0
C434 C 0.1123 0.95077 0.97012 0.0
H435 H 0.05399 0.94141 0.7054 0.0
C436 C 0.0779 0.95968 0.70705 0.0
H437 H 0.13129 0.9747 0.75236 0.0
H438 H 0.1316 0.82021 0.89405 0.0
H439 H 0.13237 0.78948 0.79745 0.0
H440 H 0.12242 0.82418 0.70329 0.0
H441 H 0.11099 0.88982 0.70504 0.0
C442 C 0.10784 0.9558 0.7502 0.0
C443 C 0.10758 0.93297 0.80446 0.0
C444 C 0.11475 0.89486 0.80282 0.0
C445 C 0.12174 0.87505 0.85746 0.0
C446 C 0.12756 0.83677 0.85423 0.0
C447 C 0.12778 0.81878 0.79904 0.0
C448 C 0.1221 0.83831 0.74599 0.0
C449 C 0.11563 0.87594 0.74758 0.0
loop_
_geom_bond_atom_site_label_1
_geom_bond_atom_site_label_2
_geom_bond_distance
_geom_bond_site_symmetry_2
_ccdc_geom_bond_type
H0 C5 0.930 1_556 S
H1 C8 0.930 . S
H2 C10 0.930 . S
H3 C4 1.016 . S
C4 H3 1.016 . S
C4 N11 1.286 . S
C5 H0 0.930 1_554 S
C5 C6 1.397 . S
C5 C7 1.361 . S
C6 C5 1.397 . S
C6 C10 1.390 . S
C7 C5 1.361 . S
C7 C8 1.393 . S
C7 N11 1.413 . S
C8 H1 0.930 . S
C8 C7 1.393 . S
C8 C9 1.399 . S
C9 C8 1.399 . S
C9 C10 1.381 . S
C10 H2 0.930 . S
C10 C6 1.390 . S
C10 C9 1.381 . S
N11 C4 1.286 . S
N11 C7 1.413 . S
H12 C17 0.930 . S
H13 C20 0.930 . S
H14 C22 0.930 . S
H15 C16 1.016 . S
C16 H15 1.016 . S
C16 N23 1.286 . S
C17 H12 0.930 . S
C17 C18 1.397 . S
C17 C19 1.361 . S
C18 C17 1.397 . S
C18 C22 1.390 . S
C19 C17 1.361 . S
C19 C20 1.393 . S
C19 N23 1.413 . S
C20 H13 0.930 . S
C20 C19 1.393 . S
C20 C21 1.399 . S
C21 C20 1.399 . S
C21 C22 1.381 . S
C22 H14 0.930 . S
C22 C18 1.390 . S
C22 C21 1.381 . S
N23 C16 1.286 . S
N23 C19 1.413 . S
H24 C29 0.930 . S
H25 C32 0.930 . S
H26 C34 0.930 . S
H27 C28 1.016 . S
C28 H27 1.016 . S
C28 N35 1.286 1_554 S
C29 H24 0.930 . S
C29 C30 1.397 . S
C29 C31 1.361 . S
C30 C29 1.397 . S
C30 C34 1.390 1_556 S
C31 C29 1.361 . S
C31 C32 1.393 1_556 S
C31 N35 1.413 . S
C32 H25 0.930 . S
C32 C31 1.393 1_554 S
C32 C33 1.399 . S
C33 C32 1.399 . S
C33 C34 1.381 . S
C34 H26 0.930 . S
C34 C30 1.390 1_554 S
C34 C33 1.381 . S
N35 C28 1.286 1_556 S
N35 C31 1.413 . S
H36 C41 0.930 . S
H37 C44 0.930 . S
H38 C46 0.930 . S
H39 C40 1.016 . S
C40 H39 1.016 . S
C40 N47 1.286 . S
C41 H36 0.930 . S
C41 C42 1.397 . S
C41 C43 1.361 . S
C42 C41 1.397 . S
C42 C46 1.390 . S
C43 C41 1.361 . S
C43 C44 1.393 . S
C43 N47 1.413 . S
C44 H37 0.930 . S
C44 C43 1.393 . S
C44 C45 1.399 . S
C45 C44 1.399 . S
C45 C46 1.381 . S
C46 H38 0.930 . S
C46 C42 1.390 . S
C46 C45 1.381 . S
N47 C40 1.286 . S
N47 C43 1.413 . S
O48 Mn49 2.163 1_655 S
O48 C62 1.244 . S
Mn49 O48 2.163 1_455 S
Mn49 O52 2.160 1_545 S
Mn49 O53 2.221 . S
Mn49 O55 2.163 1_455 S
Mn49 O57 2.160 1_545 S
Mn49 O67 2.221 1_445 S
O50 Mn51 2.087 1_545 S
O50 C62 1.256 . S
Mn51 O50 2.087 1_565 S
Mn51 O58 2.089 1_655 S
Mn51 O67 2.290 . S
Mn51 O68 2.251 . S
O52 Mn49 2.160 1_565 S
O52 C63 1.239 . S
O53 Mn49 2.221 . S
O53 Mn54 2.290 . S
O53 C64 1.278 . S
Mn54 O53 2.290 . S
Mn54 O56 2.089 . S
Mn54 O59 2.251 . S
Mn54 O60 2.087 . S
O55 Mn49 2.163 1_655 S
O55 C65 1.244 . S
O56 Mn54 2.089 . S
O56 C63 1.256 1_545 S
O57 Mn49 2.160 1_565 S
O57 C66 1.239 . S
O58 Mn51 2.089 1_455 S
O58 C66 1.256 . S
O59 Mn54 2.251 . S
O59 C64 1.241 . S
O60 Mn54 2.087 . S
O60 C65 1.256 1_455 S
C61 O67 1.278 . S
C61 O68 1.241 . S
C62 O48 1.244 . S
C62 O50 1.256 . S
C63 O52 1.239 . S
C63 O56 1.256 1_565 S
C64 O53 1.278 . S
C64 O59 1.241 . S
C65 O55 1.244 . S
C65 O60 1.256 1_655 S
C66 O57 1.239 . S
C66 O58 1.256 . S
O67 Mn49 2.221 1_665 S
O67 Mn51 2.290 . S
O67 C61 1.278 . S
O68 Mn51 2.251 . S
O68 C61 1.241 . S
O69 Mn70 2.163 . S
O69 C83 1.244 . S
Mn70 O69 2.163 . S
Mn70 O73 2.160 1_554 S
Mn70 O74 2.221 . S
Mn70 O76 2.163 1_554 S
Mn70 O78 2.160 . S
Mn70 O88 2.221 . S
O71 Mn72 2.087 . S
O71 C83 1.256 . S
Mn72 O71 2.087 . S
Mn72 O79 2.089 . S
Mn72 O88 2.290 . S
Mn72 O89 2.251 . S
O73 Mn70 2.160 1_556 S
O73 C84 1.239 . S
O74 Mn70 2.221 . S
O74 Mn75 2.290 1_554 S
O74 C85 1.278 . S
Mn75 O74 2.290 1_556 S
Mn75 O77 2.089 . S
Mn75 O80 2.251 . S
Mn75 O81 2.087 . S
O76 Mn70 2.163 1_556 S
O76 C86 1.244 . S
O77 Mn75 2.089 . S
O77 C84 1.256 . S
O78 Mn70 2.160 . S
O78 C87 1.239 . S
O79 Mn72 2.089 . S
O79 C87 1.256 . S
O80 Mn75 2.251 . S
O80 C85 1.241 1_556 S
O81 Mn75 2.087 . S
O81 C86 1.256 . S
C82 O88 1.278 . S
C82 O89 1.241 . S
C83 O69 1.244 . S
C83 O71 1.256 . S
C84 O73 1.239 . S
C84 O77 1.256 . S
C85 O74 1.278 . S
C85 O80 1.241 1_554 S
C86 O76 1.244 . S
C86 O81 1.256 . S
C87 O78 1.239 . S
C87 O79 1.256 . S
O88 Mn70 2.221 . S
O88 Mn72 2.290 . S
O88 C82 1.278 . S
O89 Mn72 2.251 . S
O89 C82 1.241 . S
H90 C91 0.951 . S
C91 H90 0.951 . S
C91 C97 1.265 . S
H92 C97 0.950 . S
H93 C101 0.949 . S
H94 C102 0.950 . S
H95 C103 0.951 . S
H96 C104 0.951 . S
C97 C91 1.265 . S
C97 H92 0.950 . S
C97 C98 1.478 . S
C98 C97 1.478 . S
C98 C99 1.397 . S
C98 C115 1.394 . S
C99 C98 1.397 . S
C99 C100 1.438 . S
C99 C104 1.429 . S
C100 C99 1.438 . S
C100 C101 1.428 . S
C100 C113 1.394 . S
C101 H93 0.949 . S
C101 C100 1.428 . S
C101 C102 1.345 . S
C102 H94 0.950 . S
C102 C101 1.345 . S
C102 C103 1.424 . S
C103 H95 0.951 . S
C103 C102 1.424 . S
C103 C104 1.347 . S
C104 H96 0.951 . S
C104 C99 1.429 . S
C104 C103 1.347 . S
H105 C106 0.951 . S
C106 H105 0.951 . S
C106 C112 1.265 . S
H107 C112 0.950 . S
H108 C116 0.949 . S
H109 C117 0.950 . S
H110 C118 0.951 . S
H111 C119 0.951 . S
C112 C106 1.265 . S
C112 H107 0.950 . S
C112 C113 1.478 . S
C113 C100 1.394 . S
C113 C112 1.478 . S
C113 C114 1.397 . S
C114 C113 1.397 . S
C114 C115 1.438 . S
C114 C119 1.429 . S
C115 C98 1.394 . S
C115 C114 1.438 . S
C115 C116 1.428 . S
C116 H108 0.949 . S
C116 C115 1.428 . S
C116 C117 1.345 . S
C117 H109 0.950 . S
C117 C116 1.345 . S
C117 C118 1.424 . S
C118 H110 0.951 . S
C118 C117 1.424 . S
C118 C119 1.347 . S
C119 H111 0.951 . S
C119 C114 1.429 . S
C119 C118 1.347 . S
H120 C121 0.951 . S
C121 H120 0.951 . S
C121 C127 1.265 . S
H122 C127 0.950 . S
H123 C131 0.949 . S
H124 C132 0.950 . S
H125 C133 0.951 . S
H126 C134 0.951 . S
C127 C121 1.265 . S
C127 H122 0.950 . S
C127 C128 1.478 . S
C128 C127 1.478 . S
C128 C129 1.397 . S
C128 C145 1.394 . S
C129 C128 1.397 . S
C129 C130 1.438 . S
C129 C134 1.429 1_554 S
C130 C129 1.438 . S
C130 C131 1.428 1_554 S
C130 C143 1.394 . S
C131 H123 0.949 . S
C131 C130 1.428 1_556 S
C131 C132 1.345 . S
C132 H124 0.950 . S
C132 C131 1.345 . S
C132 C133 1.424 . S
C133 H125 0.951 . S
C133 C132 1.424 . S
C133 C134 1.347 . S
C134 H126 0.951 . S
C134 C129 1.429 1_556 S
C134 C133 1.347 . S
H135 C136 0.951 . S
C136 H135 0.951 . S
C136 C142 1.265 . S
H137 C142 0.950 . S
H138 C146 0.949 . S
H139 C147 0.950 . S
H140 C148 0.951 . S
H141 C149 0.951 . S
C142 C136 1.265 . S
C142 H137 0.950 . S
C142 C143 1.478 . S
C143 C130 1.394 . S
C143 C142 1.478 . S
C143 C144 1.397 . S
C144 C143 1.397 . S
C144 C145 1.438 . S
C144 C149 1.429 . S
C145 C128 1.394 . S
C145 C144 1.438 . S
C145 C146 1.428 . S
C146 H138 0.949 . S
C146 C145 1.428 . S
C146 C147 1.345 . S
C147 H139 0.950 . S
C147 C146 1.345 . S
C147 C148 1.424 . S
C148 H140 0.951 . S
C148 C147 1.424 . S
C148 C149 1.347 . S
C149 H141 0.951 . S
C149 C144 1.429 . S
C149 C148 1.347 . S
H150 C151 0.951 . S
C151 H150 0.951 . S
C151 C157 1.265 . S
H152 C157 0.950 . S
H153 C161 0.949 . S
H154 C162 0.950 . S
H155 C163 0.951 . S
H156 C164 0.951 . S
C157 C151 1.265 . S
C157 H152 0.950 . S
C157 C158 1.478 . S
C158 C157 1.478 . S
C158 C159 1.397 . S
C158 C175 1.394 . S
C159 C158 1.397 . S
C159 C160 1.438 . S
C159 C164 1.429 . S
C160 C159 1.438 . S
C160 C161 1.428 . S
C160 C173 1.394 . S
C161 H153 0.949 . S
C161 C160 1.428 . S
C161 C162 1.345 . S
C162 H154 0.950 . S
C162 C161 1.345 . S
C162 C163 1.424 . S
C163 H155 0.951 . S
C163 C162 1.424 . S
C163 C164 1.347 . S
C164 H156 0.951 . S
C164 C159 1.429 . S
C164 C163 1.347 . S
H165 C166 0.951 . S
C166 H165 0.951 . S
C166 C172 1.265 . S
H167 C172 0.950 . S
H168 C176 0.949 . S
H169 C177 0.950 . S
H170 C178 0.951 . S
H171 C179 0.951 . S
C172 C166 1.265 . S
C172 H167 0.950 . S
C172 C173 1.478 . S
C173 C160 1.394 . S
C173 C172 1.478 . S
C173 C174 1.397 . S
C174 C173 1.397 . S
C174 C175 1.438 . S
C174 C179 1.429 . S
C175 C158 1.394 . S
C175 C174 1.438 . S
C175 C176 1.428 . S
C176 H168 0.949 . S
C176 C175 1.428 . S
C176 C177 1.345 . S
C177 H169 0.950 . S
C177 C176 1.345 . S
C177 C178 1.424 . S
C178 H170 0.951 . S
C178 C177 1.424 . S
C178 C179 1.347 . S
C179 H171 0.951 . S
C179 C174 1.429 . S
C179 C178 1.347 . S
H180 C181 0.951 1_556 S
C181 H180 0.951 1_554 S
C181 C187 1.265 . S
H182 C187 0.950 . S
H183 C191 0.949 . S
H184 C192 0.950 . S
H185 C193 0.951 . S
H186 C194 0.951 . S
C187 C181 1.265 . S
C187 H182 0.950 . S
C187 C188 1.478 . S
C188 C187 1.478 . S
C188 C189 1.397 1_554 S
C188 C205 1.394 . S
C189 C188 1.397 1_556 S
C189 C190 1.438 . S
C189 C194 1.429 . S
C190 C189 1.438 . S
C190 C191 1.428 . S
C190 C203 1.394 1_556 S
C191 H183 0.949 . S
C191 C190 1.428 . S
C191 C192 1.345 . S
C192 H184 0.950 . S
C192 C191 1.345 . S
C192 C193 1.424 . S
C193 H185 0.951 . S
C193 C192 1.424 . S
C193 C194 1.347 . S
C194 H186 0.951 . S
C194 C189 1.429 . S
C194 C193 1.347 . S
H195 C196 0.951 . S
C196 H195 0.951 . S
C196 C202 1.265 . S
H197 C202 0.950 . S
H198 C206 0.949 . S
H199 C207 0.950 . S
H200 C208 0.951 . S
H201 C209 0.951 . S
C202 C196 1.265 . S
C202 H197 0.950 . S
C202 C203 1.478 . S
C203 C190 1.394 1_554 S
C203 C202 1.478 . S
C203 C204 1.397 . S
C204 C203 1.397 . S
C204 C205 1.438 . S
C204 C209 1.429 . S
C205 C188 1.394 . S
C205 C204 1.438 . S
C205 C206 1.428 . S
C206 H198 0.949 . S
C206 C205 1.428 . S
C206 C207 1.345 . S
C207 H199 0.950 . S
C207 C206 1.345 . S
C207 C208 1.424 . S
C208 H200 0.951 . S
C208 C207 1.424 . S
C208 C209 1.347 . S
C209 H201 0.951 . S
C209 C204 1.429 . S
C209 C208 1.347 . S
H210 C211 0.951 . S
C211 H210 0.951 . S
C211 C217 1.265 . S
H212 C217 0.950 . S
H213 C221 0.949 . S
H214 C222 0.950 . S
H215 C223 0.951 . S
H216 C224 0.951 . S
C217 C211 1.265 . S
C217 H212 0.950 . S
C217 C218 1.478 . S
C218 C217 1.478 . S
C218 C219 1.397 . S
C218 C235 1.394 . S
C219 C218 1.397 . S
C219 C220 1.438 . S
C219 C224 1.429 . S
C220 C219 1.438 . S
C220 C221 1.428 . S
C220 C233 1.394 . S
C221 H213 0.949 . S
C221 C220 1.428 . S
C221 C222 1.345 . S
C222 H214 0.950 . S
C222 C221 1.345 . S
C222 C223 1.424 . S
C223 H215 0.951 . S
C223 C222 1.424 . S
C223 C224 1.347 . S
C224 H216 0.951 . S
C224 C219 1.429 . S
C224 C223 1.347 . S
H225 C226 0.951 . S
C226 H225 0.951 . S
C226 C232 1.265 . S
H227 C232 0.950 . S
H228 C236 0.949 . S
H229 C237 0.949 1_545 S
H230 C238 0.951 . S
H231 C239 0.951 1_545 S
C232 C226 1.265 . S
C232 H227 0.950 . S
C232 C233 1.478 . S
C233 C220 1.394 . S
C233 C232 1.478 . S
C233 C234 1.397 . S
C234 C233 1.397 . S
C234 C235 1.438 . S
C234 C239 1.429 . S
C235 C218 1.394 . S
C235 C234 1.438 . S
C235 C236 1.428 . S
C236 H228 0.949 . S
C236 C235 1.428 . S
C236 C237 1.345 . S
C237 H229 0.949 1_565 S
C237 C236 1.345 . S
C237 C238 1.424 1_565 S
C238 H230 0.951 . S
C238 C237 1.424 1_545 S
C238 C239 1.347 1_545 S
C239 H231 0.951 1_565 S
C239 C234 1.429 . S
C239 C238 1.347 1_565 S
H240 C241 0.951 . S
C241 H240 0.951 . S
C241 C247 1.265 . S
H242 C247 0.950 . S
H243 C251 0.949 . S
H244 C252 0.950 . S
H245 C253 0.951 . S
H246 C254 0.951 . S
C247 C241 1.265 . S
C247 H242 0.950 . S
C247 C248 1.478 . S
C248 C247 1.478 . S
C248 C249 1.397 . S
C248 C265 1.394 . S
C249 C248 1.397 . S
C249 C250 1.438 . S
C249 C254 1.429 . S
C250 C249 1.438 . S
C250 C251 1.428 . S
C250 C263 1.394 . S
C251 H243 0.949 . S
C251 C250 1.428 . S
C251 C252 1.345 . S
C252 H244 0.950 . S
C252 C251 1.345 . S
C252 C253 1.424 . S
C253 H245 0.951 . S
C253 C252 1.424 . S
C253 C254 1.347 . S
C254 H246 0.951 . S
C254 C249 1.429 . S
C254 C253 1.347 . S
H255 C256 0.951 . S
C256 H255 0.951 . S
C256 C262 1.265 . S
H257 C262 0.950 . S
H258 C266 0.949 . S
H259 C267 0.950 . S
H260 C268 0.951 . S
H261 C269 0.951 . S
C262 C256 1.265 . S
C262 H257 0.950 . S
C262 C263 1.478 . S
C263 C250 1.394 . S
C263 C262 1.478 . S
C263 C264 1.397 . S
C264 C263 1.397 . S
C264 C265 1.438 . S
C264 C269 1.429 . S
C265 C248 1.394 . S
C265 C264 1.438 . S
C265 C266 1.428 . S
C266 H258 0.949 . S
C266 C265 1.428 . S
C266 C267 1.345 . S
C267 H259 0.950 . S
C267 C266 1.345 . S
C267 C268 1.424 . S
C268 H260 0.951 . S
C268 C267 1.424 . S
C268 C269 1.347 . S
C269 H261 0.951 . S
C269 C264 1.429 . S
C269 C268 1.347 . S
H270 C271 0.951 . S
C271 H270 0.951 . S
C271 C277 1.265 . S
H272 C277 0.950 . S
H273 C281 0.949 . S
H274 C282 0.968 . S
H275 C283 0.951 . S
H276 C284 0.951 . S
C277 C271 1.265 . S
C277 H272 0.950 . S
C277 C278 1.478 . S
C278 C277 1.478 . S
C278 C279 1.397 . S
C278 C295 1.394 . S
C279 C278 1.397 . S
C279 C280 1.438 . S
C279 C284 1.429 . S
C280 C279 1.438 . S
C280 C281 1.428 . S
C280 C293 1.394 . S
C281 H273 0.949 . S
C281 C280 1.428 . S
C281 C282 1.345 . S
C282 H274 0.968 . S
C282 C281 1.345 . S
C282 C283 1.424 . S
C283 H275 0.951 . S
C283 C282 1.424 . S
C283 C284 1.347 . S
C284 H276 0.951 . S
C284 C279 1.429 . S
C284 C283 1.347 . S
H285 C286 0.951 . S
C286 H285 0.951 . S
C286 C292 1.265 . S
H287 C292 0.950 . S
H288 C296 0.949 . S
H289 C297 0.950 . S
H290 C298 0.951 . S
H291 C299 0.951 . S
C292 C286 1.265 . S
C292 H287 0.950 . S
C292 C293 1.478 . S
C293 C280 1.394 . S
C293 C292 1.478 . S
C293 C294 1.397 . S
C294 C293 1.397 . S
C294 C295 1.438 . S
C294 C299 1.429 . S
C295 C278 1.394 . S
C295 C294 1.438 . S
C295 C296 1.428 . S
C296 H288 0.949 . S
C296 C295 1.428 . S
C296 C297 1.345 . S
C297 H289 0.950 . S
C297 C296 1.345 . S
C297 C298 1.424 . S
C298 H290 0.951 . S
C298 C297 1.424 . S
C298 C299 1.347 . S
C299 H291 0.951 . S
C299 C294 1.429 . S
C299 C298 1.347 . S
H300 C301 0.951 . S
C301 H300 0.951 . S
C301 C307 1.265 . S
H302 C307 0.950 . S
H303 C311 0.949 . S
H304 C312 0.950 . S
H305 C313 0.951 . S
H306 C314 0.951 . S
C307 C301 1.265 . S
C307 H302 0.950 . S
C307 C308 1.478 . S
C308 C307 1.478 . S
C308 C309 1.397 . S
C308 C325 1.394 . S
C309 C308 1.397 . S
C309 C310 1.438 . S
C309 C314 1.429 . S
C310 C309 1.438 . S
C310 C311 1.428 . S
C310 C323 1.394 . S
C311 H303 0.949 . S
C311 C310 1.428 . S
C311 C312 1.345 . S
C312 H304 0.950 . S
C312 C311 1.345 . S
C312 C313 1.424 . S
C313 H305 0.951 . S
C313 C312 1.424 . S
C313 C314 1.347 . S
C314 H306 0.951 . S
C314 C309 1.429 . S
C314 C313 1.347 . S
H315 C316 0.951 . S
C316 H315 0.951 . S
C316 C322 1.265 . S
H317 C322 0.950 . S
H318 C326 0.949 . S
H319 C327 0.950 . S
H320 C328 0.951 . S
H321 C329 0.951 . S
C322 C316 1.265 . S
C322 H317 0.950 . S
C322 C323 1.478 . S
C323 C310 1.394 . S
C323 C322 1.478 . S
C323 C324 1.397 . S
C324 C323 1.397 . S
C324 C325 1.438 . S
C324 C329 1.429 . S
C325 C308 1.394 . S
C325 C324 1.438 . S
C325 C326 1.428 . S
C326 H318 0.949 . S
C326 C325 1.428 . S
C326 C327 1.345 . S
C327 H319 0.950 . S
C327 C326 1.345 . S
C327 C328 1.424 . S
C328 H320 0.951 . S
C328 C327 1.424 . S
C328 C329 1.347 . S
C329 H321 0.951 . S
C329 C324 1.429 . S
C329 C328 1.347 . S
H330 C331 0.951 . S
C331 H330 0.951 . S
C331 C337 1.265 . S
H332 C337 0.950 . S
H333 C341 0.949 . S
H334 C342 0.950 . S
H335 C343 0.951 . S
H336 C344 0.951 . S
C337 C331 1.265 . S
C337 H332 0.950 . S
C337 C338 1.478 . S
C338 C337 1.478 . S
C338 C339 1.397 . S
C338 C355 1.394 . S
C339 C338 1.397 . S
C339 C340 1.438 . S
C339 C344 1.429 . S
C340 C339 1.438 . S
C340 C341 1.428 . S
C340 C353 1.394 . S
C341 H333 0.949 . S
C341 C340 1.428 . S
C341 C342 1.345 . S
C342 H334 0.950 . S
C342 C341 1.345 . S
C342 C343 1.424 . S
C343 H335 0.951 . S
C343 C342 1.424 . S
C343 C344 1.347 . S
C344 H336 0.951 . S
C344 C339 1.429 . S
C344 C343 1.347 . S
H345 C346 0.951 . S
C346 H345 0.951 . S
C346 C352 1.265 . S
H347 C352 0.950 . S
H348 C356 0.949 . S
H349 C357 0.950 . S
H350 C358 0.951 . S
H351 C359 0.951 . S
C352 C346 1.265 . S
C352 H347 0.950 . S
C352 C353 1.478 . S
C353 C340 1.394 . S
C353 C352 1.478 . S
C353 C354 1.397 . S
C354 C353 1.397 . S
C354 C355 1.438 . S
C354 C359 1.429 . S
C355 C338 1.394 . S
C355 C354 1.438 . S
C355 C356 1.428 . S
C356 H348 0.949 . S
C356 C355 1.428 . S
C356 C357 1.345 . S
C357 H349 0.950 . S
C357 C356 1.345 . S
C357 C358 1.424 . S
C358 H350 0.951 . S
C358 C357 1.424 . S
C358 C359 1.347 . S
C359 H351 0.951 . S
C359 C354 1.429 . S
C359 C358 1.347 . S
H360 C361 0.951 . S
C361 H360 0.951 . S
C361 C367 1.265 . S
H362 C367 0.950 . S
H363 C371 0.949 . S
H364 C372 0.950 . S
H365 C373 0.951 . S
H366 C374 0.951 . S
C367 C361 1.265 . S
C367 H362 0.950 . S
C367 C368 1.478 . S
C368 C367 1.478 . S
C368 C369 1.397 . S
C368 C385 1.394 . S
C369 C368 1.397 . S
C369 C370 1.438 . S
C369 C374 1.429 . S
C370 C369 1.438 . S
C370 C371 1.428 . S
C370 C383 1.394 . S
C371 H363 0.949 . S
C371 C370 1.428 . S
C371 C372 1.345 . S
C372 H364 0.950 . S
C372 C371 1.345 . S
C372 C373 1.424 . S
C373 H365 0.951 . S
C373 C372 1.424 . S
C373 C374 1.347 . S
C374 H366 0.951 . S
C374 C369 1.429 . S
C374 C373 1.347 . S
H375 C376 0.951 . S
C376 H375 0.951 . S
C376 C382 1.265 . S
H377 C382 0.950 . S
H378 C386 0.949 . S
H379 C387 0.950 . S
H380 C388 0.951 . S
H381 C389 0.951 . S
C382 C376 1.265 . S
C382 H377 0.950 . S
C382 C383 1.478 . S
C383 C370 1.394 . S
C383 C382 1.478 . S
C383 C384 1.397 . S
C384 C383 1.397 . S
C384 C385 1.438 . S
C384 C389 1.429 . S
C385 C368 1.394 . S
C385 C384 1.438 . S
C385 C386 1.428 . S
C386 H378 0.949 . S
C386 C385 1.428 . S
C386 C387 1.345 . S
C387 H379 0.950 . S
C387 C386 1.345 . S
C387 C388 1.424 . S
C388 H380 0.951 . S
C388 C387 1.424 . S
C388 C389 1.347 . S
C389 H381 0.951 . S
C389 C384 1.429 . S
C389 C388 1.347 . S
H390 C391 0.951 . S
C391 H390 0.951 . S
C391 C397 1.265 . S
H392 C397 0.950 . S
H393 C401 0.949 . S
H394 C402 0.950 . S
H395 C403 0.951 . S
H396 C404 0.951 . S
C397 C391 1.265 . S
C397 H392 0.950 . S
C397 C398 1.478 . S
C398 C397 1.478 . S
C398 C399 1.397 . S
C398 C415 1.394 . S
C399 C398 1.397 . S
C399 C400 1.438 . S
C399 C404 1.429 . S
C400 C399 1.438 . S
C400 C401 1.428 . S
C400 C413 1.394 . S
C401 H393 0.949 . S
C401 C400 1.428 . S
C401 C402 1.345 . S
C402 H394 0.950 . S
C402 C401 1.345 . S
C402 C403 1.424 . S
C403 H395 0.951 . S
C403 C402 1.424 . S
C403 C404 1.347 . S
C404 H396 0.951 . S
C404 C399 1.429 . S
C404 C403 1.347 . S
H405 C406 0.951 . S
C406 H405 0.951 . S
C406 C412 1.265 . S
H407 C412 0.950 . S
H408 C416 0.949 . S
H409 C417 0.950 . S
H410 C418 0.951 . S
H411 C419 0.951 . S
C412 C406 1.265 . S
C412 H407 0.950 . S
C412 C413 1.478 . S
C413 C400 1.394 . S
C413 C412 1.478 . S
C413 C414 1.397 . S
C414 C413 1.397 . S
C414 C415 1.438 . S
C414 C419 1.429 . S
C415 C398 1.394 . S
C415 C414 1.438 . S
C415 C416 1.428 . S
C416 H408 0.949 . S
C416 C415 1.428 . S
C416 C417 1.345 . S
C417 H409 0.950 . S
C417 C416 1.345 . S
C417 C418 1.424 . S
C418 H410 0.951 . S
C418 C417 1.424 . S
C418 C419 1.347 . S
C419 H411 0.951 . S
C419 C414 1.429 . S
C419 C418 1.347 . S
H420 C421 0.951 . S
C421 H420 0.951 . S
C421 C427 1.265 . S
H422 C427 0.950 . S
H423 C431 0.949 1_545 S
H424 C432 0.950 . S
H425 C433 0.951 . S
H426 C434 0.951 . S
C427 C421 1.265 . S
C427 H422 0.950 . S
C427 C428 1.478 . S
C428 C427 1.478 . S
C428 C429 1.397 . S
C428 C445 1.394 . S
C429 C428 1.397 . S
C429 C430 1.438 . S
C429 C434 1.429 . S
C430 C429 1.438 . S
C430 C431 1.428 . S
C430 C443 1.394 . S
C431 H423 0.949 1_565 S
C431 C430 1.428 . S
C431 C432 1.345 1_565 S
C432 H424 0.950 . S
C432 C431 1.345 1_545 S
C432 C433 1.424 . S
C433 H425 0.951 . S
C433 C432 1.424 . S
C433 C434 1.347 1_545 S
C434 H426 0.951 . S
C434 C429 1.429 . S
C434 C433 1.347 1_565 S
H435 C436 0.951 . S
C436 H435 0.951 . S
C436 C442 1.265 . S
H437 C442 0.950 . S
H438 C446 0.949 . S
H439 C447 0.950 . S
H440 C448 0.951 . S
H441 C449 0.951 . S
C442 C436 1.265 . S
C442 H437 0.950 . S
C442 C443 1.478 . S
C443 C430 1.394 . S
C443 C442 1.478 . S
C443 C444 1.397 . S
C444 C443 1.397 . S
C444 C445 1.438 . S
C444 C449 1.429 . S
C445 C428 1.394 . S
C445 C444 1.438 . S
C445 C446 1.428 . S
C446 H438 0.949 . S
C446 C445 1.428 . S
C446 C447 1.345 . S
C447 H439 0.950 . S
C447 C446 1.345 . S
C447 C448 1.424 . S
C448 H440 0.951 . S
C448 C447 1.424 . S
C448 C449 1.347 . S
C449 H441 0.951 . S
C449 C444 1.429 . S
C449 C448 1.347 . S
C106 C64 1.248 . S
C91 C40 1.431 . S
C121 C4 1.455 . S
C136 C85 1.276 . S
C151 C16 1.594 . S
C166 C61 1.406 . S
C181 C28 1.591 . S
C196 C82 1.376 . S
C226 C66 1.450 . S
C211 C9 1.516 . S
C256 C86 1.508 . S
C241 C18 1.585 . S
C271 C33 1.591 . S
C286 C62 1.553 . S
C301 C45 1.492 . S
C316 C84 1.495 . S
C346 C83 1.513 . S
C331 C21 1.504 . S
C376 C65 1.432 . S
C361 C30 1.539 . S
C406 C87 1.385 . S
C391 C42 1.450 . S
C421 C6 1.463 1_556 S
C436 C63 1.395 . S
