# Generated by pormake.
# Topology ctn, (3,4)-cn, num edge types: 1
# Building blocks:
#     Node 0, Type 0, BuildingBlock: BETDIP_clean_linker_0, # of connection points: 3
#     Node 1, Type 0, BuildingBlock: BETDIP_clean_linker_0, # of connection points: 3
#     Node 2, Type 0, BuildingBlock: BETDIP_clean_linker_0, # of connection points: 3
#     Node 3, Type 0, BuildingBlock: BETDIP_clean_linker_0, # of connection points: 3
#     Node 4, Type 0, BuildingBlock: BETDIP_clean_linker_0, # of connection points: 3
#     Node 5, Type 0, BuildingBlock: BETDIP_clean_linker_0, # of connection points: 3
#     Node 6, Type 0, BuildingBlock: BETDIP_clean_linker_0, # of connection points: 3
#     Node 7, Type 0, BuildingBlock: BETDIP_clean_linker_0, # of connection points: 3
#     Node 8, Type 0, BuildingBlock: BETDIP_clean_linker_0, # of connection points: 3
#     Node 9, Type 0, BuildingBlock: BETDIP_clean_linker_0, # of connection points: 3
#     Node 10, Type 0, BuildingBlock: BETDIP_clean_linker_0, # of connection points: 3
#     Node 11, Type 0, BuildingBlock: BETDIP_clean_linker_0, # of connection points: 3
#     Node 12, Type 0, BuildingBlock: BETDIP_clean_linker_0, # of connection points: 3
#     Node 13, Type 0, BuildingBlock: BETDIP_clean_linker_0, # of connection points: 3
#     Node 14, Type 0, BuildingBlock: BETDIP_clean_linker_0, # of connection points: 3
#     Node 15, Type 0, BuildingBlock: BETDIP_clean_linker_0, # of connection points: 3
#     Node 16, Type 1, BuildingBlock: AZAVOO_clean_sbu_0, # of connection points: 4
#     Node 17, Type 1, BuildingBlock: AZAVOO_clean_sbu_0, # of connection points: 4
#     Node 18, Type 1, BuildingBlock: AZAVOO_clean_sbu_0, # of connection points: 4
#     Node 19, Type 1, BuildingBlock: AZAVOO_clean_sbu_0, # of connection points: 4
#     Node 20, Type 1, BuildingBlock: AZAVOO_clean_sbu_0, # of connection points: 4
#     Node 21, Type 1, BuildingBlock: AZAVOO_clean_sbu_0, # of connection points: 4
#     Node 22, Type 1, BuildingBlock: AZAVOO_clean_sbu_0, # of connection points: 4
#     Node 23, Type 1, BuildingBlock: AZAVOO_clean_sbu_0, # of connection points: 4
#     Node 24, Type 1, BuildingBlock: AZAVOO_clean_sbu_0, # of connection points: 4
#     Node 25, Type 1, BuildingBlock: AZAVOO_clean_sbu_0, # of connection points: 4
#     Node 26, Type 1, BuildingBlock: AZAVOO_clean_sbu_0, # of connection points: 4
#     Node 27, Type 1, BuildingBlock: AZAVOO_clean_sbu_0, # of connection points: 4
#     Edge 28, Type (0, 1), None
#     Edge 29, Type (0, 1), None
#     Edge 30, Type (0, 1), None
#     Edge 31, Type (0, 1), None
#     Edge 32, Type (0, 1), None
#     Edge 33, Type (0, 1), None
#     Edge 34, Type (0, 1), None
#     Edge 35, Type (0, 1), None
#     Edge 36, Type (0, 1), None
#     Edge 37, Type (0, 1), None
#     Edge 38, Type (0, 1), None
#     Edge 39, Type (0, 1), None
#     Edge 40, Type (0, 1), None
#     Edge 41, Type (0, 1), None
#     Edge 42, Type (0, 1), None
#     Edge 43, Type (0, 1), None
#     Edge 44, Type (0, 1), None
#     Edge 45, Type (0, 1), None
#     Edge 46, Type (0, 1), None
#     Edge 47, Type (0, 1), None
#     Edge 48, Type (0, 1), None
#     Edge 49, Type (0, 1), None
#     Edge 50, Type (0, 1), None
#     Edge 51, Type (0, 1), None
#     Edge 52, Type (0, 1), None
#     Edge 53, Type (0, 1), None
#     Edge 54, Type (0, 1), None
#     Edge 55, Type (0, 1), None
#     Edge 56, Type (0, 1), None
#     Edge 57, Type (0, 1), None
#     Edge 58, Type (0, 1), None
#     Edge 59, Type (0, 1), None
#     Edge 60, Type (0, 1), None
#     Edge 61, Type (0, 1), None
#     Edge 62, Type (0, 1), None
#     Edge 63, Type (0, 1), None
#     Edge 64, Type (0, 1), None
#     Edge 65, Type (0, 1), None
#     Edge 66, Type (0, 1), None
#     Edge 67, Type (0, 1), None
#     Edge 68, Type (0, 1), None
#     Edge 69, Type (0, 1), None
#     Edge 70, Type (0, 1), None
#     Edge 71, Type (0, 1), None
#     Edge 72, Type (0, 1), None
#     Edge 73, Type (0, 1), None
#     Edge 74, Type (0, 1), None
#     Edge 75, Type (0, 1), None
# Relax obj value: 0.083
# Max RMSD: 0.219
# Mean RMSD: 0.110
data_MOF--net-ctn--node1-AZAVOO_clean_sbu_0--node2-BETDIP_clean_linker_0--edge1-none
_symmetry_space_group_name_H-M    P1
_symmetry_Int_Tables_number       1
_symmetry_cell_setting            triclinic
loop_
_symmetry_equiv_pos_as_xyz
'x, y, z'
_cell_length_a     21.007505
_cell_length_b     22.81625
_cell_length_c     25.628011
_cell_angle_alpha  92.61835
_cell_angle_beta   101.2499
_cell_angle_gamma 96.878291
loop_
_atom_site_label
_atom_site_type_symbol
_atom_site_fract_x
_atom_site_fract_y
_atom_site_fract_z
_atom_type_partial_charge
H0 H 1.0214 0.11987 0.06496 0.0
H1 H 0.1235 0.01621 0.97304 0.0
H2 H 0.0653 0.94916 0.11384 0.0
H3 H 0.13857 0.09833 0.93181 0.0
C4 C 0.11359 0.13239 0.94676 0.0
C5 C 0.04109 0.07895 0.05834 0.0
C6 C 0.03861 0.03517 0.09463 0.0
C7 C 0.07273 0.07338 0.01556 0.0
C8 C 0.09946 0.0212 0.00631 0.0
C9 C 0.0961 0.97531 0.0408 0.0
C10 C 0.06644 0.98312 0.08573 0.0
N11 N 0.07964 0.12372 0.98568 0.0
H12 H 0.25739 0.66065 0.17717 0.0
H13 H 0.44146 0.76661 0.24272 0.0
H14 H 0.35526 0.63846 0.33651 0.0
H15 H 0.29096 0.81041 0.19241 0.0
C16 C 0.30462 0.79268 0.15659 0.0
C17 C 0.29917 0.67206 0.20982 0.0
C18 C 0.30131 0.6448 0.25732 0.0
C19 C 0.34955 0.71585 0.20472 0.0
C20 C 0.40357 0.7315 0.24684 0.0
C21 C 0.40609 0.70391 0.29509 0.0
C22 C 0.35445 0.6604 0.29976 0.0
N23 N 0.34076 0.74799 0.15888 0.0
H24 H 0.89698 0.52284 0.99077 0.0
H25 H 0.05096 0.43386 0.07233 0.0
H26 H 0.02614 0.60635 0.13416 0.0
H27 H 1.02133 0.45829 0.93876 0.0
C28 C 0.99792 0.41946 0.95414 0.0
C29 C 0.93745 0.52255 0.02422 0.0
C30 C 0.95732 0.57154 0.06129 0.0
C31 C 0.97099 0.47346 0.02869 0.0
C32 C 0.02463 0.47206 0.07034 0.0
C33 C 0.04437 0.51917 0.10919 0.0
C34 C 1.0102 0.56908 0.10487 0.0
N35 N 0.95426 0.4269 0.98865 0.0
H36 H 0.67948 0.78357 0.12517 0.0
H37 H 0.77724 0.93561 0.22872 0.0
H38 H 0.88467 0.83692 0.13708 0.0
H39 H 0.69655 0.91289 0.27474 0.0
C40 C 0.66479 0.87399 0.25465 0.0
C41 C 0.72341 0.81375 0.14188 0.0
C42 C 0.7826 0.80522 0.12789 0.0
C43 C 0.72155 0.85884 0.18006 0.0
C44 C 0.77855 0.89912 0.20063 0.0
C45 C 0.83782 0.89151 0.18509 0.0
C46 C 0.8395 0.8433 0.14984 0.0
N47 N 0.66352 0.85844 0.2004 0.0
H48 H 0.02827 0.92831 0.40545 0.0
H49 H 0.13441 0.03636 0.54505 0.0
H50 H 0.09373 0.11163 0.39297 0.0
H51 H 0.11912 0.87277 0.46221 0.0
C52 C 0.08956 0.87241 0.49275 0.0
C53 C 0.05233 0.97087 0.42422 0.0
C54 C 0.05715 0.01957 0.39322 0.0
C55 C 0.07796 0.9771 0.47958 0.0
C56 C 0.11152 0.03207 0.5031 0.0
C57 C 0.1175 0.08068 0.47163 0.0
C58 C 0.0881 0.07446 0.41742 0.0
N59 N 0.07295 0.92731 0.51078 0.0
H60 H 0.1909 0.77465 0.82455 0.0
H61 H 0.28076 0.66311 0.72778 0.0
H62 H 0.37569 0.71376 0.88872 0.0
H63 H 0.23525 0.71268 0.6655 0.0
C64 C 0.18748 0.71778 0.67401 0.0
C65 C 0.23124 0.75079 0.81987 0.0
C66 C 0.28239 0.74703 0.86399 0.0
C67 C 0.2317 0.72276 0.76961 0.0
C68 C 0.28239 0.68888 0.76455 0.0
C69 C 0.33533 0.68681 0.80646 0.0
C70 C 0.33502 0.7161 0.85595 0.0
N71 N 0.17998 0.7267 0.72484 0.0
H72 H 0.05624 0.57799 0.48914 0.0
H73 H 0.98835 0.39455 0.48555 0.0
H74 H 0.89279 0.52127 0.56207 0.0
H75 H 1.00932 0.50495 0.38522 0.0
C76 C 0.05491 0.48745 0.40026 0.0
C77 C 1.02306 0.54373 0.50091 0.0
C78 C 0.97597 0.55771 0.52963 0.0
C79 C 0.02742 0.48518 0.48572 0.0
C80 C 0.98522 0.43958 0.49934 0.0
C81 C 0.93556 0.45207 0.52598 0.0
C82 C 0.93112 0.51137 0.54153 0.0
N83 N 0.06911 0.47291 0.45086 0.0
H84 H 0.77408 0.81422 0.69883 0.0
H85 H 0.82876 0.70776 0.82982 0.0
H86 H 0.69123 0.83286 0.83772 0.0
H87 H 0.88385 0.81975 0.70484 0.0
C88 C 0.88909 0.77303 0.70696 0.0
C89 C 0.7692 0.80103 0.73807 0.0
C90 C 0.72887 0.82939 0.76551 0.0
C91 C 0.80752 0.75953 0.76207 0.0
C92 C 0.79928 0.74019 0.81177 0.0
C93 C 0.75604 0.76513 0.83928 0.0
C94 C 0.72108 0.81007 0.81564 0.0
N95 N 0.85615 0.73879 0.73707 0.0
H96 H 0.27409 0.31425 0.19885 0.0
H97 H 0.32875 0.20777 0.32983 0.0
H98 H 0.19124 0.33288 0.33775 0.0
H99 H 0.38386 0.31977 0.20486 0.0
C100 C 0.3891 0.27304 0.20698 0.0
C101 C 0.26921 0.30106 0.23809 0.0
C102 C 0.22888 0.32941 0.26553 0.0
C103 C 0.30752 0.25955 0.26209 0.0
C104 C 0.29928 0.2402 0.31179 0.0
C105 C 0.25604 0.26515 0.3393 0.0
C106 C 0.22109 0.31009 0.31566 0.0
N107 N 0.35615 0.23881 0.23709 0.0
H108 H 0.397 0.02285 0.49075 0.0
H109 H 0.55099 0.93387 0.57229 0.0
H110 H 0.52612 0.10633 0.63416 0.0
H111 H 0.5214 0.95829 0.43875 0.0
C112 C 0.49798 0.91947 0.45412 0.0
C113 C 0.43746 0.02255 0.5242 0.0
C114 C 0.45732 0.07153 0.56128 0.0
C115 C 0.47102 0.97347 0.52866 0.0
C116 C 0.52465 0.97207 0.57031 0.0
C117 C 0.54437 0.01916 0.60917 0.0
C118 C 0.51019 0.06907 0.60487 0.0
N119 N 0.45429 0.92692 0.48861 0.0
H120 H 0.17945 0.28355 0.62516 0.0
H121 H 0.2772 0.43559 0.72873 0.0
H122 H 0.38466 0.33689 0.63711 0.0
H123 H 0.19644 0.41294 0.7747 0.0
C124 C 0.16471 0.37401 0.75462 0.0
C125 C 0.22339 0.31373 0.64188 0.0
C126 C 0.28258 0.30519 0.62791 0.0
C127 C 0.22152 0.35882 0.68006 0.0
C128 C 0.27851 0.3991 0.70064 0.0
C129 C 0.3378 0.39149 0.68512 0.0
C130 C 0.33948 0.34327 0.64987 0.0
N131 N 0.16347 0.35844 0.70038 0.0
H132 H 0.75737 0.16061 0.67718 0.0
H133 H 0.94142 0.26659 0.74272 0.0
H134 H 0.85524 0.13845 0.83653 0.0
H135 H 0.79092 0.31038 0.69242 0.0
C136 C 0.80459 0.29265 0.65659 0.0
C137 C 0.79914 0.17202 0.70983 0.0
C138 C 0.80129 0.14478 0.75734 0.0
C139 C 0.84952 0.21582 0.70473 0.0
C140 C 0.90354 0.23149 0.74685 0.0
C141 C 0.90606 0.2039 0.7951 0.0
C142 C 0.85442 0.16039 0.79978 0.0
N143 N 0.84072 0.24795 0.65889 0.0
H144 H 0.52137 0.61984 0.56496 0.0
H145 H 0.62347 0.51618 0.47305 0.0
H146 H 0.56527 0.44913 0.61384 0.0
H147 H 0.63856 0.59829 0.43182 0.0
C148 C 0.61358 0.63236 0.44677 0.0
C149 C 0.54106 0.57892 0.55834 0.0
C150 C 0.53858 0.53513 0.59463 0.0
C151 C 0.57271 0.57335 0.51556 0.0
C152 C 0.59943 0.52117 0.50631 0.0
C153 C 0.59608 0.47528 0.54081 0.0
C154 C 0.56642 0.48309 0.58574 0.0
N155 N 0.57962 0.62369 0.48569 0.0
H156 H 0.52825 0.42833 0.90547 0.0
H157 H 0.63441 0.53639 0.04505 0.0
H158 H 0.59372 0.61164 0.89297 0.0
H159 H 0.61913 0.3728 0.96223 0.0
C160 C 0.58957 0.37243 0.99278 0.0
C161 C 0.55232 0.47089 0.92424 0.0
C162 C 0.55714 0.51958 0.89323 0.0
C163 C 0.57795 0.47712 0.97959 0.0
C164 C 0.61152 0.53209 0.00311 0.0
C165 C 0.6175 0.58069 0.97164 0.0
C166 C 0.5881 0.57447 0.91742 0.0
N167 N 0.57294 0.42733 0.0108 0.0
H168 H 0.6909 0.27464 0.32457 0.0
H169 H 0.78078 0.16313 0.22778 0.0
H170 H 0.8757 0.21375 0.38873 0.0
H171 H 0.73527 0.21269 0.16551 0.0
C172 C 0.6875 0.21779 0.17402 0.0
C173 C 0.73125 0.25079 0.31988 0.0
C174 C 0.7824 0.24702 0.364 0.0
C175 C 0.73171 0.22277 0.26961 0.0
C176 C 0.78241 0.18889 0.26456 0.0
C177 C 0.83535 0.18681 0.30647 0.0
C178 C 0.83503 0.2161 0.35596 0.0
N179 N 0.68 0.2267 0.22485 0.0
H180 H 0.55629 0.07802 0.98919 0.0
H181 H 0.48837 0.89458 0.98555 0.0
H182 H 0.3928 0.02129 0.06206 0.0
H183 H 0.50929 0.00487 0.88521 0.0
C184 C 0.55492 0.98742 0.90027 0.0
C185 C 0.5231 0.04376 0.00094 0.0
C186 C 0.476 0.05773 0.02964 0.0
C187 C 0.52747 0.98521 0.98575 0.0
C188 C 0.48525 0.9396 0.99934 0.0
C189 C 0.43558 0.95209 0.02597 0.0
C190 C 0.43113 0.01139 0.04153 0.0
N191 N 0.56916 0.97295 0.95089 0.0
Mg192 Mg 0.231 0.84278 0.01657 0.0
O193 O 0.32629 0.90795 0.0238 0.0
O194 O 0.40792 0.8522 0.04054 0.0
Mg195 Mg 0.37002 0.75552 0.04515 0.0
C196 C 0.38724 0.90216 0.03297 0.0
C197 C 0.1272 0.9211 0.03221 0.0
O198 O 0.12011 0.87745 0.06311 0.0
O199 O 0.24138 0.80669 0.92973 0.0
O200 O 0.32335 0.75378 0.95687 0.0
O201 O 0.24086 0.85321 0.10508 0.0
O202 O 0.28301 0.78516 0.06406 0.0
C203 C 0.28176 0.77127 0.91952 0.0
C204 C 0.27642 0.81094 0.10783 0.0
O205 O 0.16573 0.91782 0.99922 0.0
Mg206 Mg 0.17135 0.51442 0.28028 0.0
O207 O 0.09957 0.52183 0.20034 0.0
O208 O 0.15558 0.50506 0.13685 0.0
Mg209 Mg 0.26317 0.49948 0.17542 0.0
C210 C 0.10322 0.51632 0.15128 0.0
C211 C 0.0998 0.48514 0.36777 0.0
O212 O 0.15774 0.46937 0.38596 0.0
O213 O 0.17212 0.41403 0.27093 0.0
O214 O 0.24131 0.41288 0.21513 0.0
O215 O 0.20284 0.61137 0.28706 0.0
O216 O 0.252 0.54498 0.24964 0.0
C217 C 0.20931 0.38695 0.24713 0.0
C218 C 0.24893 0.59926 0.26303 0.0
O219 O 0.08716 0.50383 0.32164 0.0
Mg220 Mg 0.81468 0.70294 0.01176 0.0
O221 O 0.7221 0.63478 0.00265 0.0
O222 O 0.63608 0.68472 0.98458 0.0
Mg223 Mg 0.67171 0.78425 0.99345 0.0
C224 C 0.66042 0.63633 0.99137 0.0
C225 C 0.9222 0.62429 0.05396 0.0
O226 O 0.93374 0.66698 0.09203 0.0
O227 O 0.79206 0.71725 0.92033 0.0
O228 O 0.71202 0.7748 0.91706 0.0
O229 O 0.82155 0.71829 0.09871 0.0
O230 O 0.7675 0.76965 0.03792 0.0
C231 C 0.75249 0.75016 0.89489 0.0
C232 C 0.78604 0.76013 0.08712 0.0
O233 O 0.87837 0.6276 0.01211 0.0
Mg234 Mg 0.96833 0.07361 0.22804 0.0
O235 O 0.8939 0.9887 0.21084 0.0
O236 O 0.95289 0.91412 0.20489 0.0
Mg237 Mg 0.06175 0.94775 0.22023 0.0
C238 C 0.89809 0.9337 0.20308 0.0
C239 C 0.89036 0.15382 0.29789 0.0
O240 O 0.94159 0.1535 0.33652 0.0
O241 O 1.0008 0.05158 0.31328 0.0
O242 O 0.05959 0.97685 0.30779 0.0
O243 O 0.96417 0.08106 0.14009 0.0
O244 O 0.0345 0.03192 0.18914 0.0
C245 C 0.03543 0.01369 0.3349 0.0
C246 C 1.01039 0.04783 0.14257 0.0
O247 O 0.88882 0.1268 0.25262 0.0
Mg248 Mg 0.31468 0.20293 0.51177 0.0
O249 O 0.2221 0.13477 0.50265 0.0
O250 O 0.13607 0.1847 0.48459 0.0
Mg251 Mg 0.1717 0.28424 0.49347 0.0
C252 C 0.16042 0.13631 0.49137 0.0
C253 C 0.4222 0.12428 0.55397 0.0
O254 O 0.43372 0.16695 0.59204 0.0
O255 O 0.29206 0.21726 0.42034 0.0
O256 O 0.21202 0.2748 0.41707 0.0
O257 O 0.32154 0.21827 0.59872 0.0
O258 O 0.26749 0.26963 0.53793 0.0
C259 C 0.25249 0.25017 0.3949 0.0
C260 C 0.28603 0.2601 0.58713 0.0
O261 O 0.37837 0.12759 0.51211 0.0
Mg262 Mg 0.4683 0.57359 0.72804 0.0
O263 O 0.39387 0.48868 0.71085 0.0
O264 O 0.45287 0.4141 0.70492 0.0
Mg265 Mg 0.56172 0.44773 0.72025 0.0
C266 C 0.39807 0.43368 0.7031 0.0
C267 C 0.39034 0.65381 0.79789 0.0
O268 O 0.44157 0.6535 0.83651 0.0
O269 O 0.50078 0.55158 0.81329 0.0
O270 O 0.55957 0.47684 0.8078 0.0
O271 O 0.46414 0.58103 0.64009 0.0
O272 O 0.53447 0.53189 0.68914 0.0
C273 C 0.53541 0.5137 0.83491 0.0
C274 C 0.51036 0.5478 0.64258 0.0
O275 O 0.3888 0.62678 0.75261 0.0
Mg276 Mg 0.73098 0.34276 0.51658 0.0
O277 O 0.82627 0.40792 0.52382 0.0
O278 O 0.90791 0.35218 0.54055 0.0
Mg279 Mg 0.87 0.2555 0.54517 0.0
C280 C 0.88722 0.40214 0.53299 0.0
C281 C 0.62718 0.42107 0.53222 0.0
O282 O 0.62009 0.37742 0.56312 0.0
O283 O 0.74137 0.30667 0.42974 0.0
O284 O 0.82335 0.25376 0.45688 0.0
O285 O 0.74083 0.35319 0.60509 0.0
O286 O 0.78299 0.28513 0.56407 0.0
C287 C 0.78176 0.27125 0.41953 0.0
C288 C 0.7764 0.31092 0.60783 0.0
O289 O 0.66571 0.4178 0.49923 0.0
Mg290 Mg 0.67133 0.01439 0.78027 0.0
O291 O 0.59956 0.0218 0.70033 0.0
O292 O 0.65558 0.00505 0.63685 0.0
Mg293 Mg 0.76317 -0.00053 0.67542 0.0
C294 C 0.60322 0.01631 0.65127 0.0
C295 C 0.59981 0.98513 0.86778 0.0
O296 O 0.65778 0.96943 0.88598 0.0
O297 O 0.6721 0.91399 0.7709 0.0
O298 O 0.7413 0.91286 0.71511 0.0
O299 O 0.70281 0.11133 0.78707 0.0
O300 O 0.75198 0.04496 0.74965 0.0
C301 C 0.70929 0.88693 0.7471 0.0
C302 C 0.74891 0.09923 0.76305 0.0
O303 O 0.58714 0.00377 0.82163 0.0
Mg304 Mg 0.11006 0.28893 0.89385 0.0
O305 O 1.01344 0.2507 0.83601 0.0
O306 O 0.94839 0.20932 0.8877 0.0
Mg307 Mg 0.99849 0.22326 0.97492 0.0
C308 C 0.95931 0.22217 0.84198 0.0
C309 C 0.13543 0.33627 0.78344 0.0
O310 O 0.1001 0.28676 0.76123 0.0
O311 O 0.05953 0.36359 0.91741 0.0
O312 O 0.99302 0.3226 0.96789 0.0
O313 O 0.14905 0.20122 0.88948 0.0
O314 O 0.09058 0.22881 0.94702 0.0
C315 C 1.01653 0.36693 0.94568 0.0
C316 C 0.1184 0.18829 0.92751 0.0
O317 O 0.14606 0.34669 0.8335 0.0
Mg318 Mg 0.6101 0.7889 0.39386 0.0
O319 O 0.51348 0.75069 0.336 0.0
O320 O 0.44841 0.70933 0.38769 0.0
Mg321 Mg 0.49849 0.72326 0.47491 0.0
C322 C 0.45934 0.72218 0.34197 0.0
C323 C 0.63548 0.83626 0.28346 0.0
O324 O 0.60009 0.78678 0.26123 0.0
O325 O 0.55959 0.86357 0.41741 0.0
O326 O 0.49304 0.82261 0.46787 0.0
O327 O 0.64907 0.70118 0.38949 0.0
O328 O 0.59059 0.72878 0.44703 0.0
C329 C 0.51657 0.86693 0.44567 0.0
C330 C 0.6184 0.68826 0.42752 0.0
O331 O 0.64614 0.84665 0.33352 0.0
Mg332 Mg 0.98393 0.73006 0.57505 0.0
O333 O 0.07904 0.72306 0.63559 0.0
O334 O 0.14844 0.69815 0.5849 0.0
Mg335 Mg 0.09689 0.67664 0.49799 0.0
C336 C 0.13596 0.71311 0.63009 0.0
C337 C 0.9251 0.7485 0.67383 0.0
O338 O 0.93109 0.6919 0.67403 0.0
O339 O 0.03391 0.81584 0.54522 0.0
O340 O 0.09186 0.77525 0.49192 0.0
O341 O 0.94373 0.6351 0.58251 0.0
O342 O 1.00305 0.66313 0.52404 0.0
C343 C 0.07107 0.82021 0.51098 0.0
C344 C 0.97317 0.62057 0.54511 0.0
O345 O 0.94636 0.77938 0.63919 0.0
Mg346 Mg 0.48394 0.23007 0.07507 0.0
O347 O 0.57905 0.22308 0.1356 0.0
O348 O 0.64845 0.19818 0.08491 0.0
Mg349 Mg 0.5969 0.17667 0.998 0.0
C350 C 0.63597 0.21313 0.1301 0.0
C351 C 0.4251 0.24851 0.17385 0.0
O352 O 0.43107 0.19191 0.17404 0.0
O353 O 0.53392 0.31586 0.04524 0.0
O354 O 0.59186 0.27528 0.99194 0.0
O355 O 0.44375 0.13512 0.08252 0.0
O356 O 0.50306 0.16315 0.02406 0.0
C357 C 0.57108 0.32024 0.011 0.0
C358 C 0.47319 0.12059 0.04512 0.0
O359 O 0.44637 0.27939 0.13922 0.0
loop_
_geom_bond_atom_site_label_1
_geom_bond_atom_site_label_2
_geom_bond_distance
_geom_bond_site_symmetry_2
_ccdc_geom_bond_type
H0 C5 0.930 . S
H1 C8 0.930 . S
H2 C10 0.930 . S
H3 C4 1.016 . S
C4 H3 1.016 . S
C4 N11 1.286 1_455 S
C5 H0 0.930 . S
C5 C6 1.397 1_655 S
C5 C7 1.361 1_655 S
C6 C5 1.397 1_455 S
C6 C10 1.390 1_545 S
C7 C5 1.361 1_455 S
C7 C8 1.393 1_554 S
C7 N11 1.413 1_454 S
C8 H1 0.930 . S
C8 C7 1.393 1_556 S
C8 C9 1.399 1_546 S
C9 C8 1.399 1_564 S
C9 C10 1.381 . S
C10 H2 0.930 . S
C10 C6 1.390 1_565 S
C10 C9 1.381 . S
N11 C4 1.286 1_655 S
N11 C7 1.413 1_656 S
H12 C17 0.930 . S
H13 C20 0.930 . S
H14 C22 0.930 . S
H15 C16 1.016 . S
C16 H15 1.016 . S
C16 N23 1.286 . S
C17 H12 0.930 . S
C17 C18 1.397 . S
C17 C19 1.361 . S
C18 C17 1.397 . S
C18 C22 1.390 . S
C19 C17 1.361 . S
C19 C20 1.393 . S
C19 N23 1.413 . S
C20 H13 0.930 . S
C20 C19 1.393 . S
C20 C21 1.399 . S
C21 C20 1.399 . S
C21 C22 1.381 . S
C22 H14 0.930 . S
C22 C18 1.390 . S
C22 C21 1.381 . S
N23 C16 1.286 . S
N23 C19 1.413 . S
H24 C29 0.930 1_556 S
H25 C32 0.930 . S
H26 C34 0.930 . S
H27 C28 1.016 1_454 S
C28 H27 1.016 1_656 S
C28 N35 1.286 . S
C29 H24 0.930 1_554 S
C29 C30 1.397 . S
C29 C31 1.361 . S
C30 C29 1.397 . S
C30 C34 1.390 . S
C31 C29 1.361 . S
C31 C32 1.393 1_655 S
C31 N35 1.413 1_554 S
C32 H25 0.930 . S
C32 C31 1.393 1_455 S
C32 C33 1.399 . S
C33 C32 1.399 . S
C33 C34 1.381 1_455 S
C34 H26 0.930 . S
C34 C30 1.390 . S
C34 C33 1.381 1_655 S
N35 C28 1.286 . S
N35 C31 1.413 1_556 S
H36 C41 0.930 . S
H37 C44 0.930 . S
H38 C46 0.930 . S
H39 C40 1.016 . S
C40 H39 1.016 . S
C40 N47 1.286 . S
C41 H36 0.930 . S
C41 C42 1.397 . S
C41 C43 1.361 . S
C42 C41 1.397 . S
C42 C46 1.390 . S
C43 C41 1.361 . S
C43 C44 1.393 . S
C43 N47 1.413 . S
C44 H37 0.930 . S
C44 C43 1.393 . S
C44 C45 1.399 . S
C45 C44 1.399 . S
C45 C46 1.381 . S
C46 H38 0.930 . S
C46 C42 1.390 . S
C46 C45 1.381 . S
N47 C40 1.286 . S
N47 C43 1.413 . S
H48 C53 0.930 1_655 S
H49 C56 0.930 . S
H50 C58 0.930 . S
H51 C52 1.016 . S
C52 H51 1.016 . S
C52 N59 1.286 . S
C53 H48 0.930 1_455 S
C53 C54 1.397 1_565 S
C53 C55 1.361 . S
C54 C53 1.397 1_545 S
C54 C58 1.390 . S
C55 C53 1.361 . S
C55 C56 1.393 1_565 S
C55 N59 1.413 . S
C56 H49 0.930 . S
C56 C55 1.393 1_545 S
C56 C57 1.399 . S
C57 C56 1.399 . S
C57 C58 1.381 . S
C58 H50 0.930 . S
C58 C54 1.390 . S
C58 C57 1.381 . S
N59 C52 1.286 . S
N59 C55 1.413 . S
H60 C65 0.930 . S
H61 C68 0.930 . S
H62 C70 0.930 . S
H63 C64 1.016 . S
C64 H63 1.016 . S
C64 N71 1.286 . S
C65 H60 0.930 . S
C65 C66 1.397 . S
C65 C67 1.361 . S
C66 C65 1.397 . S
C66 C70 1.390 . S
C67 C65 1.361 . S
C67 C68 1.393 . S
C67 N71 1.413 . S
C68 H61 0.930 . S
C68 C67 1.393 . S
C68 C69 1.399 . S
C69 C68 1.399 . S
C69 C70 1.381 . S
C70 H62 0.930 . S
C70 C66 1.390 . S
C70 C69 1.381 . S
N71 C64 1.286 . S
N71 C67 1.413 . S
H72 C77 0.930 1_455 S
H73 C80 0.930 . S
H74 C82 0.930 . S
H75 C76 1.016 . S
C76 H75 1.016 . S
C76 N83 1.286 . S
C77 H72 0.930 1_655 S
C77 C78 1.397 . S
C77 C79 1.361 . S
C78 C77 1.397 . S
C78 C82 1.390 . S
C79 C77 1.361 . S
C79 C80 1.393 . S
C79 N83 1.413 1_655 S
C80 H73 0.930 . S
C80 C79 1.393 . S
C80 C81 1.399 . S
C81 C80 1.399 . S
C81 C82 1.381 . S
C82 H74 0.930 . S
C82 C78 1.390 . S
C82 C81 1.381 . S
N83 C76 1.286 . S
N83 C79 1.413 1_455 S
H84 C89 0.930 . S
H85 C92 0.930 . S
H86 C94 0.930 . S
H87 C88 1.016 . S
C88 H87 1.016 . S
C88 N95 1.286 . S
C89 H84 0.930 . S
C89 C90 1.397 . S
C89 C91 1.361 . S
C90 C89 1.397 . S
C90 C94 1.390 . S
C91 C89 1.361 . S
C91 C92 1.393 . S
C91 N95 1.413 . S
C92 H85 0.930 . S
C92 C91 1.393 . S
C92 C93 1.399 . S
C93 C92 1.399 . S
C93 C94 1.381 . S
C94 H86 0.930 . S
C94 C90 1.390 . S
C94 C93 1.381 . S
N95 C88 1.286 . S
N95 C91 1.413 . S
H96 C101 0.930 . S
H97 C104 0.930 . S
H98 C106 0.930 . S
H99 C100 1.016 . S
C100 H99 1.016 . S
C100 N107 1.286 . S
C101 H96 0.930 . S
C101 C102 1.397 . S
C101 C103 1.361 . S
C102 C101 1.397 . S
C102 C106 1.390 . S
C103 C101 1.361 . S
C103 C104 1.393 . S
C103 N107 1.413 . S
C104 H97 0.930 . S
C104 C103 1.393 . S
C104 C105 1.399 . S
C105 C104 1.399 . S
C105 C106 1.381 . S
C106 H98 0.930 . S
C106 C102 1.390 . S
C106 C105 1.381 . S
N107 C100 1.286 . S
N107 C103 1.413 . S
H108 C113 0.930 . S
H109 C116 0.930 . S
H110 C118 0.930 . S
H111 C112 1.016 . S
C112 H111 1.016 . S
C112 N119 1.286 . S
C113 H108 0.930 . S
C113 C114 1.397 . S
C113 C115 1.361 1_545 S
C114 C113 1.397 . S
C114 C118 1.390 . S
C115 C113 1.361 1_565 S
C115 C116 1.393 . S
C115 N119 1.413 . S
C116 H109 0.930 . S
C116 C115 1.393 . S
C116 C117 1.399 1_565 S
C117 C116 1.399 1_545 S
C117 C118 1.381 . S
C118 H110 0.930 . S
C118 C114 1.390 . S
C118 C117 1.381 . S
N119 C112 1.286 . S
N119 C115 1.413 . S
H120 C125 0.930 . S
H121 C128 0.930 . S
H122 C130 0.930 . S
H123 C124 1.016 . S
C124 H123 1.016 . S
C124 N131 1.286 . S
C125 H120 0.930 . S
C125 C126 1.397 . S
C125 C127 1.361 . S
C126 C125 1.397 . S
C126 C130 1.390 . S
C127 C125 1.361 . S
C127 C128 1.393 . S
C127 N131 1.413 . S
C128 H121 0.930 . S
C128 C127 1.393 . S
C128 C129 1.399 . S
C129 C128 1.399 . S
C129 C130 1.381 . S
C130 H122 0.930 . S
C130 C126 1.390 . S
C130 C129 1.381 . S
N131 C124 1.286 . S
N131 C127 1.413 . S
H132 C137 0.930 . S
H133 C140 0.930 . S
H134 C142 0.930 . S
H135 C136 1.016 . S
C136 H135 1.016 . S
C136 N143 1.286 . S
C137 H132 0.930 . S
C137 C138 1.397 . S
C137 C139 1.361 . S
C138 C137 1.397 . S
C138 C142 1.390 . S
C139 C137 1.361 . S
C139 C140 1.393 . S
C139 N143 1.413 . S
C140 H133 0.930 . S
C140 C139 1.393 . S
C140 C141 1.399 . S
C141 C140 1.399 . S
C141 C142 1.381 . S
C142 H134 0.930 . S
C142 C138 1.390 . S
C142 C141 1.381 . S
N143 C136 1.286 . S
N143 C139 1.413 . S
H144 C149 0.930 . S
H145 C152 0.930 . S
H146 C154 0.930 . S
H147 C148 1.016 . S
C148 H147 1.016 . S
C148 N155 1.286 . S
C149 H144 0.930 . S
C149 C150 1.397 . S
C149 C151 1.361 . S
C150 C149 1.397 . S
C150 C154 1.390 . S
C151 C149 1.361 . S
C151 C152 1.393 . S
C151 N155 1.413 . S
C152 H145 0.930 . S
C152 C151 1.393 . S
C152 C153 1.399 . S
C153 C152 1.399 . S
C153 C154 1.381 . S
C154 H146 0.930 . S
C154 C150 1.390 . S
C154 C153 1.381 . S
N155 C148 1.286 . S
N155 C151 1.413 . S
H156 C161 0.930 . S
H157 C164 0.930 1_554 S
H158 C166 0.930 . S
H159 C160 1.016 . S
C160 H159 1.016 . S
C160 N167 1.286 . S
C161 H156 0.930 . S
C161 C162 1.397 . S
C161 C163 1.361 . S
C162 C161 1.397 . S
C162 C166 1.390 . S
C163 C161 1.361 . S
C163 C164 1.393 . S
C163 N167 1.413 1_556 S
C164 H157 0.930 1_556 S
C164 C163 1.393 . S
C164 C165 1.399 . S
C165 C164 1.399 . S
C165 C166 1.381 . S
C166 H158 0.930 . S
C166 C162 1.390 . S
C166 C165 1.381 . S
N167 C160 1.286 . S
N167 C163 1.413 1_554 S
H168 C173 0.930 . S
H169 C176 0.930 . S
H170 C178 0.930 . S
H171 C172 1.016 . S
C172 H171 1.016 . S
C172 N179 1.286 . S
C173 H168 0.930 . S
C173 C174 1.397 . S
C173 C175 1.361 . S
C174 C173 1.397 . S
C174 C178 1.390 . S
C175 C173 1.361 . S
C175 C176 1.393 . S
C175 N179 1.413 . S
C176 H169 0.930 . S
C176 C175 1.393 . S
C176 C177 1.399 . S
C177 C176 1.399 . S
C177 C178 1.381 . S
C178 H170 0.930 . S
C178 C174 1.390 . S
C178 C177 1.381 . S
N179 C172 1.286 . S
N179 C175 1.413 . S
H180 C185 0.930 . S
H181 C188 0.930 . S
H182 C190 0.930 . S
H183 C184 1.025 . S
C184 H183 1.025 . S
C184 N191 1.278 1_565 S
C185 H180 0.930 . S
C185 C186 1.397 1_556 S
C185 C187 1.361 . S
C186 C185 1.397 1_554 S
C186 C190 1.390 . S
C187 C185 1.361 . S
C187 C188 1.393 1_545 S
C187 N191 1.413 . S
C188 H181 0.930 . S
C188 C187 1.393 1_565 S
C188 C189 1.399 . S
C189 C188 1.399 . S
C189 C190 1.381 1_566 S
C190 H182 0.930 . S
C190 C186 1.390 . S
C190 C189 1.381 1_544 S
N191 C184 1.278 1_545 S
N191 C187 1.413 . S
Mg192 O193 2.028 . S
Mg192 O199 1.986 1_554 S
Mg192 O201 2.114 . S
Mg192 O202 2.251 . S
Mg192 O205 2.010 . S
O193 Mg192 2.028 . S
O193 C196 1.250 . S
O194 Mg195 2.028 . S
O194 C196 1.248 . S
Mg195 O194 2.028 . S
Mg195 O200 2.018 1_554 S
Mg195 O202 2.093 . S
C196 O193 1.250 . S
C196 O194 1.248 . S
C197 O198 1.264 . S
C197 O205 1.249 . S
O198 C197 1.264 . S
O199 Mg192 1.986 1_556 S
O199 C203 1.246 . S
O200 Mg195 2.018 1_556 S
O200 C203 1.259 . S
O201 Mg192 2.114 . S
O201 C204 1.252 . S
O202 Mg192 2.251 . S
O202 Mg195 2.093 . S
O202 C204 1.273 . S
C203 O199 1.246 . S
C203 O200 1.259 . S
C204 O201 1.252 . S
C204 O202 1.273 . S
O205 Mg192 2.010 . S
O205 C197 1.249 . S
Mg206 O207 2.028 . S
Mg206 O213 1.986 . S
Mg206 O215 2.114 . S
Mg206 O216 2.251 . S
Mg206 O219 2.010 . S
O207 Mg206 2.028 . S
O207 C210 1.250 . S
O208 Mg209 2.028 . S
O208 C210 1.248 . S
Mg209 O208 2.028 . S
Mg209 O214 2.032 . S
Mg209 O216 2.079 . S
C210 O207 1.250 . S
C210 O208 1.248 . S
C211 O212 1.264 . S
C211 O219 1.249 . S
O212 C211 1.264 . S
O213 Mg206 1.986 . S
O213 C217 1.246 . S
O214 Mg209 2.032 . S
O214 C217 1.259 . S
O215 Mg206 2.114 . S
O215 C218 1.252 . S
O216 Mg206 2.251 . S
O216 Mg209 2.079 . S
O216 C218 1.273 . S
C217 O213 1.246 . S
C217 O214 1.259 . S
C218 O215 1.252 . S
C218 O216 1.273 . S
O219 Mg206 2.010 . S
O219 C211 1.249 . S
Mg220 O221 2.028 1_554 S
Mg220 O227 1.986 1_554 S
Mg220 O229 2.114 . S
Mg220 O230 2.251 . S
Mg220 O233 2.010 . S
O221 Mg220 2.028 1_556 S
O221 C224 1.250 . S
O222 Mg223 2.028 . S
O222 C224 1.248 . S
Mg223 O222 2.028 . S
Mg223 O228 2.032 . S
Mg223 O230 2.079 1_556 S
C224 O221 1.250 . S
C224 O222 1.248 . S
C225 O226 1.264 . S
C225 O233 1.249 . S
O226 C225 1.264 . S
O227 Mg220 1.986 1_556 S
O227 C231 1.246 . S
O228 Mg223 2.032 . S
O228 C231 1.259 . S
O229 Mg220 2.114 . S
O229 C232 1.252 . S
O230 Mg220 2.251 . S
O230 Mg223 2.079 1_554 S
O230 C232 1.273 . S
C231 O227 1.246 . S
C231 O228 1.259 . S
C232 O229 1.252 . S
C232 O230 1.273 . S
O233 Mg220 2.010 . S
O233 C225 1.249 . S
Mg234 O235 2.028 . S
Mg234 O241 1.986 . S
Mg234 O243 2.114 . S
Mg234 O244 2.251 1_655 S
Mg234 O247 2.010 . S
O235 Mg234 2.028 . S
O235 C238 1.250 1_545 S
O236 Mg237 2.028 1_655 S
O236 C238 1.248 . S
Mg237 O236 2.028 1_455 S
Mg237 O242 2.032 . S
Mg237 O244 2.079 1_565 S
C238 O235 1.250 1_565 S
C238 O236 1.248 . S
C239 O240 1.264 . S
C239 O247 1.249 . S
O240 C239 1.264 . S
O241 Mg234 1.986 . S
O241 C245 1.246 1_655 S
O242 Mg237 2.032 . S
O242 C245 1.259 1_565 S
O243 Mg234 2.114 . S
O243 C246 1.252 . S
O244 Mg234 2.251 1_455 S
O244 Mg237 2.079 1_545 S
O244 C246 1.273 1_455 S
C245 O241 1.246 1_455 S
C245 O242 1.259 1_545 S
C246 O243 1.252 . S
C246 O244 1.273 1_655 S
O247 Mg234 2.010 . S
O247 C239 1.249 . S
Mg248 O249 2.028 . S
Mg248 O255 1.986 . S
Mg248 O257 2.114 . S
Mg248 O258 2.251 . S
Mg248 O261 2.010 . S
O249 Mg248 2.028 . S
O249 C252 1.250 . S
O250 Mg251 2.028 . S
O250 C252 1.248 . S
Mg251 O250 2.028 . S
Mg251 O256 2.032 . S
Mg251 O258 2.079 . S
C252 O249 1.250 . S
C252 O250 1.248 . S
C253 O254 1.264 . S
C253 O261 1.249 . S
O254 C253 1.264 . S
O255 Mg248 1.986 . S
O255 C259 1.246 . S
O256 Mg251 2.032 . S
O256 C259 1.259 . S
O257 Mg248 2.114 . S
O257 C260 1.252 . S
O258 Mg248 2.251 . S
O258 Mg251 2.079 . S
O258 C260 1.273 . S
C259 O255 1.246 . S
C259 O256 1.259 . S
C260 O257 1.252 . S
C260 O258 1.273 . S
O261 Mg248 2.010 . S
O261 C253 1.249 . S
Mg262 O263 2.028 . S
Mg262 O269 1.986 . S
Mg262 O271 2.114 . S
Mg262 O272 2.251 . S
Mg262 O275 2.010 . S
O263 Mg262 2.028 . S
O263 C266 1.250 . S
O264 Mg265 2.028 . S
O264 C266 1.248 . S
Mg265 O264 2.028 . S
Mg265 O270 2.032 . S
Mg265 O272 2.079 . S
C266 O263 1.250 . S
C266 O264 1.248 . S
C267 O268 1.264 . S
C267 O275 1.249 . S
O268 C267 1.264 . S
O269 Mg262 1.986 . S
O269 C273 1.246 . S
O270 Mg265 2.032 . S
O270 C273 1.259 . S
O271 Mg262 2.114 . S
O271 C274 1.252 . S
O272 Mg262 2.251 . S
O272 Mg265 2.079 . S
O272 C274 1.273 . S
C273 O269 1.246 . S
C273 O270 1.259 . S
C274 O271 1.252 . S
C274 O272 1.273 . S
O275 Mg262 2.010 . S
O275 C267 1.249 . S
Mg276 O277 2.028 . S
Mg276 O283 1.986 . S
Mg276 O285 2.114 . S
Mg276 O286 2.251 . S
Mg276 O289 2.010 . S
O277 Mg276 2.028 . S
O277 C280 1.250 . S
O278 Mg279 2.028 . S
O278 C280 1.248 . S
Mg279 O278 2.028 . S
Mg279 O284 2.032 . S
Mg279 O286 2.079 . S
C280 O277 1.250 . S
C280 O278 1.248 . S
C281 O282 1.264 . S
C281 O289 1.249 . S
O282 C281 1.264 . S
O283 Mg276 1.986 . S
O283 C287 1.246 . S
O284 Mg279 2.032 . S
O284 C287 1.259 . S
O285 Mg276 2.114 . S
O285 C288 1.252 . S
O286 Mg276 2.251 . S
O286 Mg279 2.079 . S
O286 C288 1.273 . S
C287 O283 1.246 . S
C287 O284 1.259 . S
C288 O285 1.252 . S
C288 O286 1.273 . S
O289 Mg276 2.010 . S
O289 C281 1.249 . S
Mg290 O291 2.028 1_545 S
Mg290 O297 1.986 1_545 S
Mg290 O299 2.114 . S
Mg290 O300 2.251 . S
Mg290 O303 2.010 . S
O291 Mg290 2.028 1_565 S
O291 C294 1.250 . S
O292 Mg293 2.028 . S
O292 C294 1.248 . S
Mg293 O292 2.028 . S
Mg293 O298 2.032 . S
Mg293 O300 2.079 1_565 S
C294 O291 1.250 . S
C294 O292 1.248 . S
C295 O296 1.264 . S
C295 O303 1.249 . S
O296 C295 1.264 . S
O297 Mg290 1.986 1_565 S
O297 C301 1.246 . S
O298 Mg293 2.032 . S
O298 C301 1.259 . S
O299 Mg290 2.114 . S
O299 C302 1.252 . S
O300 Mg290 2.251 . S
O300 Mg293 2.079 1_545 S
O300 C302 1.273 . S
C301 O297 1.246 . S
C301 O298 1.259 . S
C302 O299 1.252 . S
C302 O300 1.273 . S
O303 Mg290 2.010 . S
O303 C295 1.249 . S
Mg304 O305 2.028 1_455 S
Mg304 O311 1.986 . S
Mg304 O313 2.114 . S
Mg304 O314 2.251 1_455 S
Mg304 O317 2.010 . S
O305 Mg304 2.028 1_655 S
O305 C308 1.250 . S
O306 Mg307 2.028 . S
O306 C308 1.248 . S
Mg307 O306 2.028 . S
Mg307 O312 2.032 . S
Mg307 O314 2.079 . S
C308 O305 1.250 . S
C308 O306 1.248 . S
C309 O310 1.264 . S
C309 O317 1.249 . S
O310 C309 1.264 . S
O311 Mg304 1.986 . S
O311 C315 1.246 1_455 S
O312 Mg307 2.032 . S
O312 C315 1.259 . S
O313 Mg304 2.114 . S
O313 C316 1.252 . S
O314 Mg304 2.251 1_655 S
O314 Mg307 2.079 . S
O314 C316 1.273 1_655 S
C315 O311 1.246 1_655 S
C315 O312 1.259 . S
C316 O313 1.252 . S
C316 O314 1.273 1_455 S
O317 Mg304 2.010 . S
O317 C309 1.249 . S
Mg318 O319 2.028 . S
Mg318 O325 1.986 . S
Mg318 O327 2.114 . S
Mg318 O328 2.251 . S
Mg318 O331 2.010 . S
O319 Mg318 2.028 . S
O319 C322 1.250 . S
O320 Mg321 2.028 . S
O320 C322 1.248 . S
Mg321 O320 2.028 . S
Mg321 O326 2.032 . S
Mg321 O328 2.079 . S
C322 O319 1.250 . S
C322 O320 1.248 . S
C323 O324 1.264 . S
C323 O331 1.249 . S
O324 C323 1.264 . S
O325 Mg318 1.986 . S
O325 C329 1.246 . S
O326 Mg321 2.032 . S
O326 C329 1.259 . S
O327 Mg318 2.114 . S
O327 C330 1.252 . S
O328 Mg318 2.251 . S
O328 Mg321 2.079 . S
O328 C330 1.273 . S
C329 O325 1.246 . S
C329 O326 1.259 . S
C330 O327 1.252 . S
C330 O328 1.273 . S
O331 Mg318 2.010 . S
O331 C323 1.249 . S
Mg332 O333 2.028 1_655 S
Mg332 O339 1.986 1_655 S
Mg332 O341 2.114 . S
Mg332 O342 2.251 1_655 S
Mg332 O345 2.010 . S
O333 Mg332 2.028 1_455 S
O333 C336 1.250 . S
O334 Mg335 2.028 . S
O334 C336 1.248 . S
Mg335 O334 2.028 . S
Mg335 O340 2.032 . S
Mg335 O342 2.079 . S
C336 O333 1.250 . S
C336 O334 1.248 . S
C337 O338 1.264 . S
C337 O345 1.249 . S
O338 C337 1.264 . S
O339 Mg332 1.986 1_455 S
O339 C343 1.246 . S
O340 Mg335 2.032 . S
O340 C343 1.259 . S
O341 Mg332 2.114 . S
O341 C344 1.252 . S
O342 Mg332 2.251 1_455 S
O342 Mg335 2.079 . S
O342 C344 1.273 1_455 S
C343 O339 1.246 . S
C343 O340 1.259 . S
C344 O341 1.252 . S
C344 O342 1.273 1_655 S
O345 Mg332 2.010 . S
O345 C337 1.249 . S
Mg346 O347 2.028 . S
Mg346 O353 1.986 . S
Mg346 O355 2.114 . S
Mg346 O356 2.251 . S
Mg346 O359 2.010 . S
O347 Mg346 2.028 . S
O347 C350 1.250 . S
O348 Mg349 2.028 . S
O348 C350 1.248 . S
Mg349 O348 2.028 . S
Mg349 O354 2.032 . S
Mg349 O356 2.079 . S
C350 O347 1.250 . S
C350 O348 1.248 . S
C351 O352 1.264 . S
C351 O359 1.249 . S
O352 C351 1.264 . S
O353 Mg346 1.986 . S
O353 C357 1.246 . S
O354 Mg349 2.032 . S
O354 C357 1.259 . S
O355 Mg346 2.114 . S
O355 C358 1.252 . S
O356 Mg346 2.251 . S
O356 Mg349 2.079 . S
O356 C358 1.273 . S
C357 O353 1.246 . S
C357 O354 1.259 . S
C358 O355 1.252 . S
C358 O356 1.273 . S
O359 Mg346 2.010 . S
O359 C351 1.249 . S
C203 C66 1.855 . S
C211 C76 1.068 . S
C93 C231 1.880 . S
C245 C54 1.584 . S
C260 C126 1.552 . S
C274 C150 2.151 . S
C136 C288 1.293 . S
C294 C117 1.975 1_565 S
C141 C308 1.276 . S
C329 C112 1.388 . S
C124 C309 1.192 . S
C330 C148 1.325 . S
C88 C337 1.314 . S
C52 C343 1.560 . S
C64 C336 1.192 . S
C78 C344 1.254 . S
C45 C238 1.754 . S
C177 C239 1.880 . S
C196 C189 1.408 1_554 S
C217 C102 1.817 . S
C57 C252 1.764 . S
C302 C138 1.552 . S
C253 C114 1.818 . S
C281 C153 1.441 . S
C287 C174 1.855 . S
C184 C295 1.064 1_565 S
C105 C259 1.880 . S
C273 C162 1.584 . S
C42 C232 1.552 . S
C246 C6 2.151 1_655 S
C204 C16 1.293 . S
C210 C33 1.975 . S
C21 C322 1.276 . S
C28 C315 1.388 . S
C40 C323 1.192 . S
C4 C316 1.325 . S
C351 C100 1.314 . S
C357 C160 1.560 . S
C350 C172 1.192 . S
C186 C358 1.254 . S
C129 C266 1.754 . S
C267 C69 1.880 . S
C280 C81 1.408 . S
C301 C90 1.817 . S
C165 C224 1.764 . S
C218 C18 1.552 . S
C30 C225 1.818 . S
C197 C9 1.441 . S
