# Generated by pormake.
# Topology zzz, (3,6)-cn, num edge types: 1
# Building blocks:
#     Node 0, Type 0, BuildingBlock: BELTOD_clean_linker_0, # of connection points: 3
#     Node 1, Type 0, BuildingBlock: BELTOD_clean_linker_0, # of connection points: 3
#     Node 2, Type 0, BuildingBlock: BELTOD_clean_linker_0, # of connection points: 3
#     Node 3, Type 0, BuildingBlock: BELTOD_clean_linker_0, # of connection points: 3
#     Node 4, Type 0, BuildingBlock: BELTOD_clean_linker_0, # of connection points: 3
#     Node 5, Type 0, BuildingBlock: BELTOD_clean_linker_0, # of connection points: 3
#     Node 6, Type 0, BuildingBlock: BELTOD_clean_linker_0, # of connection points: 3
#     Node 7, Type 0, BuildingBlock: BELTOD_clean_linker_0, # of connection points: 3
#     Node 8, Type 1, BuildingBlock: NUHQIS_clean_sbu_0, # of connection points: 6
#     Node 9, Type 1, BuildingBlock: NUHQIS_clean_sbu_0, # of connection points: 6
#     Node 10, Type 1, BuildingBlock: NUHQIS_clean_sbu_0, # of connection points: 6
#     Node 11, Type 1, BuildingBlock: NUHQIS_clean_sbu_0, # of connection points: 6
#     Edge 12, Type (0, 1), BuildingBlock: XUDNAN_clean_linker_2, # of connection points: 2
#     Edge 13, Type (0, 1), BuildingBlock: XUDNAN_clean_linker_2, # of connection points: 2
#     Edge 14, Type (0, 1), BuildingBlock: XUDNAN_clean_linker_2, # of connection points: 2
#     Edge 15, Type (0, 1), BuildingBlock: XUDNAN_clean_linker_2, # of connection points: 2
#     Edge 16, Type (0, 1), BuildingBlock: XUDNAN_clean_linker_2, # of connection points: 2
#     Edge 17, Type (0, 1), BuildingBlock: XUDNAN_clean_linker_2, # of connection points: 2
#     Edge 18, Type (0, 1), BuildingBlock: XUDNAN_clean_linker_2, # of connection points: 2
#     Edge 19, Type (0, 1), BuildingBlock: XUDNAN_clean_linker_2, # of connection points: 2
#     Edge 20, Type (0, 1), BuildingBlock: XUDNAN_clean_linker_2, # of connection points: 2
#     Edge 21, Type (0, 1), BuildingBlock: XUDNAN_clean_linker_2, # of connection points: 2
#     Edge 22, Type (0, 1), BuildingBlock: XUDNAN_clean_linker_2, # of connection points: 2
#     Edge 23, Type (0, 1), BuildingBlock: XUDNAN_clean_linker_2, # of connection points: 2
#     Edge 24, Type (0, 1), BuildingBlock: XUDNAN_clean_linker_2, # of connection points: 2
#     Edge 25, Type (0, 1), BuildingBlock: XUDNAN_clean_linker_2, # of connection points: 2
#     Edge 26, Type (0, 1), BuildingBlock: XUDNAN_clean_linker_2, # of connection points: 2
#     Edge 27, Type (0, 1), BuildingBlock: XUDNAN_clean_linker_2, # of connection points: 2
#     Edge 28, Type (0, 1), BuildingBlock: XUDNAN_clean_linker_2, # of connection points: 2
#     Edge 29, Type (0, 1), BuildingBlock: XUDNAN_clean_linker_2, # of connection points: 2
#     Edge 30, Type (0, 1), BuildingBlock: XUDNAN_clean_linker_2, # of connection points: 2
#     Edge 31, Type (0, 1), BuildingBlock: XUDNAN_clean_linker_2, # of connection points: 2
#     Edge 32, Type (0, 1), BuildingBlock: XUDNAN_clean_linker_2, # of connection points: 2
#     Edge 33, Type (0, 1), BuildingBlock: XUDNAN_clean_linker_2, # of connection points: 2
#     Edge 34, Type (0, 1), BuildingBlock: XUDNAN_clean_linker_2, # of connection points: 2
#     Edge 35, Type (0, 1), BuildingBlock: XUDNAN_clean_linker_2, # of connection points: 2
# Relax obj value: 0.409
# Max RMSD: 0.241
# Mean RMSD: 0.223
data_MOF--net-zzz--node1-NUHQIS_clean_sbu_0--node2-BELTOD_clean_linker_0--edge1-XUDNAN_clean_linker_2
_symmetry_space_group_name_H-M    P1
_symmetry_Int_Tables_number       1
_symmetry_cell_setting            triclinic
loop_
_symmetry_equiv_pos_as_xyz
'x, y, z'
_cell_length_a     55.822116
_cell_length_b     55.812661
_cell_length_c     17.764423
_cell_angle_alpha  89.742675
_cell_angle_beta   89.99962
_cell_angle_gamma 90.030878
loop_
_atom_site_label
_atom_site_type_symbol
_atom_site_fract_x
_atom_site_fract_y
_atom_site_fract_z
_atom_type_partial_charge
P0 P 0.72798 0.47601 0.34438 0.0
H1 H 0.73935 0.47669 0.50467 0.0
H2 H 0.77458 0.4895 0.57211 0.0
H3 H 0.79971 0.52681 0.37334 0.0
H4 H 0.76467 0.51245 0.30442 0.0
H5 H 0.67664 0.46797 0.32695 0.0
H6 H 0.64836 0.47991 0.23048 0.0
H7 H 0.70069 0.52925 0.13924 0.0
H8 H 0.72946 0.51607 0.23424 0.0
H9 H 0.77783 0.45915 0.34742 0.0
H10 H 0.71606 0.45111 0.20355 0.0
O11 O 0.71406 0.45712 0.40297 0.0
H12 H 0.80261 0.43995 0.25448 0.0
H13 H 0.74056 0.42994 0.11178 0.0
C14 C 0.74891 0.49379 0.39928 0.0
C15 C 0.75195 0.48825 0.47577 0.0
C16 C 0.77239 0.49571 0.51474 0.0
C17 C 0.79043 0.5092 0.47865 0.0
C18 C 0.78655 0.51613 0.40313 0.0
C19 C 0.76608 0.50842 0.36385 0.0
C20 C 0.70525 0.49132 0.28911 0.0
C21 C 0.68192 0.4819 0.28773 0.0
C22 C 0.66558 0.48881 0.23195 0.0
C23 C 0.67209 0.50545 0.17579 0.0
C24 C 0.69505 0.516 0.18023 0.0
C25 C 0.71151 0.50881 0.23573 0.0
C26 C 0.74532 0.45789 0.28074 0.0
C27 C 0.76948 0.45314 0.29593 0.0
C28 C 0.78364 0.44152 0.24292 0.0
C29 C 0.77376 0.43357 0.1745 0.0
C30 C 0.74899 0.43644 0.16265 0.0
C31 C 0.73491 0.44854 0.21529 0.0
P32 P 0.0265 0.71968 0.36061 0.0
H33 H 0.04959 0.75599 0.44726 0.0
H34 H 0.03785 0.79481 0.49396 0.0
H35 H 0.96495 0.78131 0.42306 0.0
H36 H 0.97748 0.74238 0.37255 0.0
H37 H 0.03211 0.66823 0.34589 0.0
H38 H 0.01925 0.64047 0.24947 0.0
H39 H 0.97082 0.69402 0.16131 0.0
H40 H 0.98436 0.72209 0.25743 0.0
H41 H 0.0791 0.72078 0.342 0.0
H42 H 0.01655 0.74808 0.2279 0.0
O43 O 0.04303 0.70538 0.42497 0.0
H44 H 0.1048 0.7438 0.256 0.0
H45 H 0.04169 0.77081 0.14292 0.0
C46 C 0.01448 0.74608 0.40647 0.0
C47 C 0.03094 0.76114 0.4427 0.0
C48 C 0.02408 0.78351 0.47006 0.0
C49 C 1.00031 0.79159 0.46313 0.0
C50 C 0.98353 0.77606 0.42869 0.0
C51 C 0.99059 0.75358 0.40016 0.0
C52 C 0.00914 0.6974 0.31008 0.0
C53 C 0.01801 0.67384 0.30787 0.0
C54 C 0.01063 0.65782 0.25207 0.0
C55 C 0.99422 0.66496 0.19632 0.0
C56 C 0.98388 0.68797 0.20223 0.0
C57 C 0.99137 0.70404 0.25819 0.0
C58 C 0.04591 0.73249 0.29061 0.0
C59 C 0.07091 0.73118 0.29735 0.0
C60 C 0.08556 0.74437 0.24836 0.0
C61 C 0.07533 0.75895 0.19212 0.0
C62 C 0.05028 0.75928 0.18404 0.0
C63 C 0.03577 0.74628 0.23294 0.0
P64 P 0.78581 0.02946 0.35582 0.0
H65 H 0.76786 0.024 0.50942 0.0
H66 H 0.72956 0.00938 0.55671 0.0
H67 H 0.71334 0.9809 0.33669 0.0
H68 H 0.75214 0.99486 0.29079 0.0
H69 H 0.81913 0.05292 0.25623 0.0
H70 H 0.84975 0.03894 0.16963 0.0
H71 H 0.83131 0.96561 0.22339 0.0
H72 H 0.80063 0.98003 0.31202 0.0
H73 H 0.76275 0.07385 0.40419 0.0
H74 H 0.76701 0.03099 0.20342 0.0
O75 O 0.80106 0.04311 0.42413 0.0
H76 H 0.72954 0.09656 0.34938 0.0
H77 H 0.73351 0.05261 0.14973 0.0
C78 C 0.76321 0.01017 0.39673 0.0
C79 C 0.75656 0.01369 0.47209 0.0
C80 C 0.73432 0.00573 0.49879 0.0
C81 C 0.71799 0.9943 0.45042 0.0
C82 C 0.72539 0.98942 0.3761 0.0
C83 C 0.74776 0.99726 0.34965 0.0
C84 C 0.80738 0.01755 0.28984 0.0
C85 C 0.8215 0.0338 0.24901 0.0
C86 C 0.83896 0.02574 0.19896 0.0
C87 C 0.84292 1.0011 0.18849 0.0
C88 C 0.82882 0.98472 0.2301 0.0
C89 C 0.81117 0.9929 0.28047 0.0
C90 C 0.76763 0.05107 0.30727 0.0
C91 C 0.75711 0.06991 0.34725 0.0
C92 C 0.7379 0.08265 0.31621 0.0
C93 C 0.72865 0.07637 0.24527 0.0
C94 C 0.74033 0.0584 0.20374 0.0
C95 C 0.75959 0.04589 0.23451 0.0
P96 P 0.47571 0.78758 0.34416 0.0
H97 H 0.48791 0.77633 0.5006 0.0
H98 H 0.50055 0.73944 0.56138 0.0
H99 H 0.51376 0.7078 0.34363 0.0
H100 H 0.50019 0.74494 0.28291 0.0
H101 H 0.4589 0.83408 0.29691 0.0
H102 H 0.47397 0.86395 0.20974 0.0
H103 H 0.54048 0.82453 0.19201 0.0
H104 H 0.5242 0.79367 0.27626 0.0
H105 H 0.43842 0.75215 0.36835 0.0
H106 H 0.4687 0.79038 0.17917 0.0
O107 O 0.45913 0.80012 0.41152 0.0
H108 H 0.41509 0.72747 0.28224 0.0
H109 H 0.44457 0.76677 0.09342 0.0
C110 C 0.4931 0.7636 0.387 0.0
C111 C 0.49414 0.76176 0.46566 0.0
C112 C 0.50142 0.74042 0.50058 0.0
C113 C 0.50807 0.72025 0.45782 0.0
C114 C 0.50838 0.72266 0.37873 0.0
C115 C 0.50101 0.74411 0.34378 0.0
C116 C 0.49053 0.81178 0.29417 0.0
C117 C 0.47697 0.83211 0.27559 0.0
C118 C 0.48575 0.84938 0.22543 0.0
C119 C 0.5086 0.847 0.19271 0.0
C120 C 0.52262 0.82697 0.21432 0.0
C121 C 0.51353 0.80938 0.26366 0.0
C122 C 0.45532 0.77308 0.2805 0.0
C123 C 0.43949 0.75572 0.30845 0.0
C124 C 0.42599 0.74176 0.25907 0.0
C125 C 0.42802 0.74507 0.18076 0.0
C126 C 0.44283 0.76353 0.15334 0.0
C127 C 0.45658 0.77722 0.20267 0.0
P128 P 0.27213 0.46516 0.11601 0.0
H129 H 0.26038 0.4478 0.96434 0.0
H130 H 0.22808 0.45823 0.87729 0.0
H131 H 0.21028 0.51936 0.01404 0.0
H132 H 0.24324 0.50928 0.10005 0.0
H133 H 0.32242 0.44939 0.11548 0.0
H134 H 0.3571 0.46399 0.18435 0.0
H135 H 0.31704 0.52723 0.24682 0.0
H136 H 0.28328 0.51319 0.17297 0.0
H137 H 0.22012 0.4625 0.14186 0.0
H138 H 0.28386 0.46806 0.27843 0.0
O139 O 0.27774 0.4364 0.09768 0.0
H140 H 0.19625 0.47785 0.24599 0.0
H141 H 0.25987 0.48342 0.38268 0.0
C142 C 0.25431 0.47764 0.03932 0.0
C143 C 0.25015 0.46393 0.9745 0.0
C144 C 0.2315 0.46984 0.92479 0.0
C145 C 0.21629 0.48938 0.93939 0.0
C146 C 0.22145 0.504 1.00172 0.0
C147 C 0.24053 0.49842 0.05041 0.0
C148 C 0.3001 0.48014 0.13884 0.0
C149 C 0.32144 0.46688 0.14138 0.0
C150 C 0.34122 0.47509 0.18263 0.0
C151 C 0.34 0.49656 0.22405 0.0
C152 C 0.31915 0.51071 0.21597 0.0
C153 C 0.29963 0.50274 0.173 0.0
C154 C 0.25402 0.46616 0.2002 0.0
C155 C 0.229 0.46666 0.19437 0.0
C156 C 0.21532 0.47526 0.25401 0.0
C157 C 0.22649 0.48264 0.32083 0.0
C158 C 0.251 0.47829 0.33095 0.0
C159 C 0.26471 0.46979 0.27093 0.0
P160 P 0.05227 0.2798 0.08876 0.0
H161 H 0.05595 0.2587 0.93781 0.0
H162 H 0.04469 0.21914 0.89194 0.0
H163 H 1.00199 0.20783 0.09162 0.0
H164 H 0.01383 0.24721 0.13798 0.0
H165 H 0.04996 0.33115 0.05517 0.0
H166 H 0.03504 0.3652 0.12658 0.0
H167 H 1.00309 0.31697 0.28837 0.0
H168 H 0.01766 0.28266 0.21529 0.0
H169 H 0.07784 0.23425 0.09106 0.0
H170 H 0.0651 0.29194 0.24706 0.0
O171 O 0.07217 0.29135 0.02856 0.0
H172 H 0.0884 0.20795 0.19529 0.0
H173 H 0.07481 0.26527 0.35196 0.0
C174 C 0.03563 0.25623 0.04141 0.0
C175 C 0.04337 0.24819 0.97052 0.0
C176 C 0.03696 0.22537 0.94423 0.0
C177 C 0.02278 0.20997 0.98855 0.0
C178 C 0.01333 0.21897 0.05646 0.0
C179 C 0.01975 0.24177 0.08264 0.0
C180 C 0.03508 0.30419 0.12964 0.0
C181 C 0.03919 0.32773 0.10472 0.0
C182 C 0.03072 0.34728 0.14598 0.0
C183 C 0.01819 0.34381 0.21385 0.0
C184 C 0.01296 0.32022 0.23684 0.0
C185 C 0.02098 0.30059 0.19438 0.0
C186 C 0.0689 0.2645 0.16164 0.0
C187 C 0.07779 0.24147 0.14752 0.0
C188 C 0.08414 0.22648 0.20723 0.0
C189 C 0.08177 0.23444 0.28174 0.0
C190 C 0.07629 0.25861 0.29495 0.0
C191 C 0.0703 0.27371 0.23492 0.0
P192 P 0.24125 0.04387 0.13968 0.0
H193 H 0.24345 0.05076 0.9755 0.0
H194 H 0.27588 0.04401 0.88526 0.0
H195 H 0.31535 0.00521 0.05589 0.0
H196 H 0.28282 0.01096 0.14328 0.0
H197 H 0.20199 0.07467 0.1856 0.0
H198 H 0.16441 0.06399 0.24639 0.0
H199 H 0.17259 0.99118 0.17071 0.0
H200 H 0.20984 1.00232 0.10574 0.0
H201 H 0.27205 0.06368 0.25848 0.0
H202 H 0.23341 0.99804 0.21714 0.0
O203 O 0.24609 0.07338 0.13786 0.0
H204 H 0.28862 0.04613 0.37347 0.0
H205 H 0.24808 0.98138 0.33381 0.0
C206 C 0.26032 0.03136 0.06658 0.0
C207 C 0.25865 0.03996 0.99245 0.0
C208 C 0.27754 0.03644 0.94122 0.0
C209 C 0.29875 0.02448 0.96323 0.0
C210 C 0.29948 0.01437 0.03591 0.0
C211 C 0.28058 0.01775 0.08667 0.0
C212 C 0.20908 0.03923 0.14169 0.0
C213 C 0.19509 0.05672 0.17766 0.0
C214 C 0.17355 0.05057 0.21314 0.0
C215 C 0.16579 0.02667 0.21457 0.0
C216 C 0.17825 0.00975 0.17088 0.0
C217 C 0.19949 0.01614 0.13329 0.0
C218 C 0.25103 0.03245 0.22959 0.0
C219 C 0.26647 0.04585 0.27516 0.0
C220 C 0.27575 0.03586 0.34138 0.0
C221 C 0.26961 0.01234 0.36297 0.0
C222 C 0.25333 0.99945 0.31861 0.0
C223 C 0.24454 0.00921 0.252 0.0
P224 P 0.46293 0.22353 0.03648 0.0
H225 H 0.47118 0.24318 0.88444 0.0
H226 H 0.48206 0.28384 0.8463 0.0
H227 H 0.5066 0.2982 0.07189 0.0
H228 H 0.4958 0.25746 0.10975 0.0
H229 H 0.44518 0.17487 0.03549 0.0
H230 H 0.45448 0.13935 0.10826 0.0
H231 H 0.51464 0.17579 0.2092 0.0
H232 H 0.50492 0.21198 0.135 0.0
H233 H 0.42907 0.2626 0.02357 0.0
H234 H 0.45993 0.22029 0.20292 0.0
O235 O 0.44421 0.21581 0.96742 0.0
H236 H 0.41953 0.2941 0.11355 0.0
H237 H 0.45065 0.25166 0.29214 0.0
C238 C 0.48252 0.24703 1.00035 0.0
C239 C 0.47999 0.25458 0.92505 0.0
C240 C 0.48612 0.27803 0.90314 0.0
C241 C 0.49472 0.29453 0.95631 0.0
C242 C 0.49969 0.28609 0.02963 0.0
C243 C 0.49384 0.26256 0.05119 0.0
C244 C 0.47466 0.19608 0.0779 0.0
C245 C 0.46087 0.17519 0.07128 0.0
C246 C 0.4662 0.15472 0.11353 0.0
C247 C 0.48545 0.15446 0.16465 0.0
C248 C 0.49965 0.17531 0.17057 0.0
C249 C 0.49435 0.19592 0.12732 0.0
C250 C 0.44565 0.23927 0.10597 0.0
C251 C 0.43269 0.25949 0.08274 0.0
C252 C 0.42734 0.27755 0.13409 0.0
C253 C 0.43481 0.27546 0.20935 0.0
C254 C 0.44469 0.25373 0.23444 0.0
C255 C 0.4502 0.23577 0.18292 0.0
Tb256 Tb 0.02739 0.99004 0.76971 0.0
Eu257 Eu 0.98866 0.01489 0.65666 0.0
C258 C 0.04358 0.01063 0.61328 0.0
C259 C 0.016 0.04519 0.7807 0.0
C260 C 0.06894 0.94978 0.87968 0.0
C261 C 0.10192 0.92573 0.92655 0.0
C262 C 0.09311 0.9475 0.89946 0.0
C263 C 0.05362 0.92999 0.88602 0.0
C264 C 0.06238 0.9082 0.91358 0.0
C265 C 0.08663 0.90588 0.93453 0.0
C266 C 0.06045 0.97286 0.85091 0.0
O267 O 0.99313 0.9782 0.8164 0.0
O268 O 0.96892 0.00728 0.76488 0.0
O269 O 0.9817 0.97523 0.64461 0.0
O270 O 0.0172 0.96094 0.69389 0.0
C271 C 0.97288 0.99033 0.815 0.0
O272 O 0.96029 0.04131 0.64076 0.0
O273 O 0.97252 0.02056 0.54596 0.0
O274 O 0.02178 0.00887 0.58719 0.0
O275 O 0.04758 0.01054 0.68604 0.0
O276 O 0.01909 0.02499 0.81756 0.0
O277 O 0.01009 0.04495 0.70929 0.0
C278 C 0.99717 0.95773 0.65576 0.0
O279 O 0.06199 0.97575 0.77843 0.0
O280 O 0.04024 0.98094 0.87734 0.0
C281 C 0.97033 0.06262 0.53058 0.0
C282 C 0.99999 0.10167 0.49258 0.0
C283 C 0.98269 0.10399 0.54942 0.0
C284 C 0.96791 0.08466 0.56811 0.0
C285 C 0.98573 0.06133 0.46806 0.0
C286 C 1.0005 0.08063 0.44954 0.0
C287 C 0.96203 0.04029 0.56758 0.0
H288 H 0.12071 0.92446 0.94119 0.0
H289 H 0.1052 0.96261 0.89396 0.0
H290 H 0.03492 0.93145 0.87029 0.0
H291 H 0.05002 0.89338 0.9201 0.0
H292 H 0.98167 0.12013 0.58285 0.0
H293 H 0.95607 0.08634 0.61613 0.0
H294 H 0.98784 0.0448 0.43707 0.0
H295 H 0.01313 0.07865 0.40367 0.0
Tb296 Tb 0.51328 0.02241 0.73208 0.0
Eu297 Eu 0.49525 0.97642 0.63687 0.0
C298 C 0.49677 0.02963 0.56154 0.0
C299 C 0.45929 0.00831 0.73054 0.0
C300 C 0.5439 0.06265 0.87052 0.0
C301 C 0.55752 0.08715 0.97466 0.0
C302 C 0.53969 0.08077 0.92327 0.0
C303 C 0.56593 0.05061 0.87043 0.0
C304 C 0.58381 0.05708 0.92138 0.0
C305 C 0.57986 0.07558 0.97348 0.0
C306 C 0.52551 0.05723 0.8142 0.0
O307 O 0.51226 0.99141 0.81008 0.0
O308 O 0.52065 0.9627 0.72403 0.0
O309 O 0.53228 0.98341 0.59303 0.0
O310 O 0.5468 0.00632 0.69088 0.0
C311 C 0.51971 0.96966 0.79396 0.0
O312 O 0.48832 0.93795 0.63667 0.0
O313 O 0.47959 0.95913 0.53839 0.0
O314 O 0.48718 0.00807 0.56112 0.0
O315 O 0.50911 0.03761 0.61932 0.0
O316 O 0.47447 0.02586 0.71828 0.0
O317 O 0.46605 0.98616 0.71969 0.0
C318 C 0.55015 0.99363 0.62903 0.0
O319 O 0.53317 0.05389 0.74583 0.0
O320 O 0.50937 0.04149 0.83334 0.0
C321 C 0.45092 0.93139 0.57894 0.0
C322 C 0.40073 0.93346 0.58527 0.0
C323 C 0.41415 0.93245 0.65195 0.0
C324 C 0.43906 0.9315 0.64887 0.0
C325 C 0.43744 0.92945 0.51274 0.0
C326 C 0.41248 0.9305 0.51581 0.0
C327 C 0.47611 0.93898 0.57421 0.0
H328 H 0.55403 0.10148 0.0141 0.0
H329 H 0.52274 0.09022 0.92397 0.0
H330 H 0.56942 0.03644 0.8304 0.0
H331 H 0.6007 0.04756 0.92018 0.0
H332 H 0.40551 0.93434 0.7062 0.0
H333 H 0.44896 0.93298 0.7011 0.0
H334 H 0.44621 0.92944 0.45832 0.0
H335 H 0.40264 0.93136 0.46332 0.0
Tb336 Tb 0.48737 0.51802 0.77789 0.0
Eu337 Eu 0.51857 0.49822 0.63821 0.0
C338 C 0.46399 0.50782 0.62224 0.0
C339 C 0.49744 0.462 0.76407 0.0
C340 C 0.44555 0.55446 0.89123 0.0
C341 C 0.42024 0.57863 0.97139 0.0
C342 C 0.43251 0.5573 0.95783 0.0
C343 C 0.44528 0.5726 0.83638 0.0
C344 C 0.43305 0.59397 0.8499 0.0
C345 C 0.42095 0.59744 0.91844 0.0
C346 C 0.46039 0.53314 0.88116 0.0
O347 O 0.52208 0.50793 0.82596 0.0
O348 O 0.54484 0.51394 0.72057 0.0
O349 O 0.51415 0.53806 0.61465 0.0
O350 O 0.50421 0.5505 0.73398 0.0
C351 C 0.54302 0.51181 0.79404 0.0
O352 O 0.54872 0.47832 0.59155 0.0
O353 O 0.52311 0.49522 0.51676 0.0
O354 O 0.47959 0.4905 0.61596 0.0
O355 O 0.46739 0.52432 0.67353 0.0
O356 O 0.48286 0.47924 0.78491 0.0
O357 O 0.51436 0.46576 0.71407 0.0
C358 C 0.5108 0.55519 0.66429 0.0
O359 O 0.45343 0.51848 0.82864 0.0
O360 O 0.48341 0.53699 0.8787 0.0
C361 C 0.53385 0.45564 0.48932 0.0
C362 C 0.51034 0.41381 0.44054 0.0
C363 C 0.52344 0.41373 0.50805 0.0
C364 C 0.53503 0.43444 0.53233 0.0
C365 C 0.52244 0.45515 0.41895 0.0
C366 C 0.51068 0.43448 0.39493 0.0
C367 C 0.53976 0.47894 0.52363 0.0
H368 H 0.4114 0.5809 0.02516 0.0
H369 H 0.43255 0.54337 1.00055 0.0
H370 H 0.45519 0.57055 0.78435 0.0
H371 H 0.43378 0.60811 0.808 0.0
H372 H 0.52406 0.3979 0.54352 0.0
H373 H 0.54368 0.43412 0.5869 0.0
H374 H 0.52116 0.47127 0.38494 0.0
H375 H 0.50069 0.43519 0.34271 0.0
Tb376 Tb 1.00053 0.48938 0.74913 0.0
Eu377 Eu 0.01207 0.53065 0.62371 0.0
C378 C 1.00444 0.47696 0.57728 0.0
C379 C 0.05392 0.50476 0.71917 0.0
C380 C 0.96605 0.44907 0.86822 0.0
C381 C 0.93872 0.4184 0.91361 0.0
C382 C 0.96199 0.42582 0.89552 0.0
C383 C 0.94676 0.46496 0.8604 0.0
C384 C 0.9236 0.45755 0.87772 0.0
C385 C 0.91928 0.4341 0.90337 0.0
C386 C 0.9896 0.45598 0.83901 0.0
O387 O 0.98981 0.52312 0.80263 0.0
O388 O 0.01538 0.54755 0.73747 0.0
O389 O 0.97175 0.53141 0.6296 0.0
O390 O 0.96519 0.49748 0.70216 0.0
C391 C 1.001 0.54373 0.79449 0.0
O392 O 0.01423 0.56832 0.59006 0.0
O393 O 0.02596 0.54055 0.51354 0.0
O394 O 0.99789 0.4989 0.56174 0.0
O395 O 0.01254 0.47165 0.64494 0.0
O396 O 0.03797 0.49864 0.77012 0.0
O397 O 0.0473 0.51257 0.65239 0.0
C398 C 0.95741 0.5154 0.66025 0.0
O399 O 0.99185 0.45324 0.76672 0.0
O400 O 0.99774 0.47673 0.86058 0.0
C401 C 0.05048 0.57405 0.52312 0.0
C402 C 0.10078 0.57646 0.51695 0.0
C403 C 0.0887 0.58076 0.58503 0.0
C404 C 0.06375 0.57928 0.58829 0.0
C405 C 0.06221 0.57308 0.45364 0.0
C406 C 0.08714 0.57412 0.4505 0.0
C407 C 0.02651 0.56335 0.52949 0.0
H408 H 0.93583 0.40026 0.93353 0.0
H409 H 0.97669 0.41325 0.90095 0.0
H410 H 0.94955 0.48297 0.83915 0.0
H411 H 0.90903 0.47019 0.87087 0.0
H412 H 0.09856 0.58328 0.6369 0.0
H413 H 0.05513 0.58012 0.64285 0.0
H414 H 0.05232 0.56891 0.40285 0.0
H415 H 0.09555 0.57056 0.39683 0.0
H416 H 0.11945 0.04287 0.2402 0.0
H417 H 0.17356 0.9939 0.32441 0.0
H418 H 0.14828 0.98491 0.43496 0.0
H419 H 0.10048 0.06663 0.41551 0.0
H420 H 0.0691 0.06743 0.39164 0.0
H421 H 0.09131 0.06965 0.31858 0.0
H422 H 0.07167 0.03337 0.25147 0.0
H423 H 0.04967 0.03125 0.32546 0.0
H424 H 0.0678 0.0056 0.30232 0.0
H425 H 0.11961 0.9847 0.54289 0.0
H426 H 0.08591 0.98772 0.63235 0.0
H427 H 0.04774 0.03348 0.47501 0.0
C428 C 0.12567 0.0299 0.28128 0.0
C429 C 0.1484 0.01888 0.2734 0.0
C430 C 0.15607 1.0022 0.32862 0.0
C431 C 0.14192 0.99715 0.39198 0.0
C432 C 0.11985 0.00858 0.39891 0.0
C433 C 0.11141 0.02413 0.34426 0.0
C434 C 0.08672 0.03352 0.36533 0.0
C435 C 0.08695 0.06094 0.37327 0.0
C436 C 0.06785 0.02545 0.30772 0.0
C437 C 0.08294 0.02127 0.4411 0.0
C438 C 0.10249 0.00725 0.45962 0.0
C439 C 0.10401 0.99528 0.52847 0.0
C440 C 0.08487 0.99725 0.5792 0.0
C441 C 0.06419 0.01068 0.56051 0.0
C442 C 0.06324 0.02286 0.4904 0.0
H443 H 0.49773 0.15163 0.3164 0.0
H444 H 0.48249 0.10747 0.12157 0.0
H445 H 0.48378 0.07136 0.20151 0.0
H446 H 0.53949 0.10845 0.40605 0.0
H447 H 0.52958 0.11558 0.49988 0.0
H448 H 0.5285 0.13807 0.42682 0.0
H449 H 0.48331 0.14427 0.45285 0.0
H450 H 0.48417 0.12161 0.52532 0.0
H451 H 0.46327 0.11896 0.44845 0.0
H452 H 0.48319 0.04021 0.30351 0.0
H453 H 0.48527 0.01551 0.41879 0.0
H454 H 0.50324 0.07878 0.54846 0.0
C455 C 0.49517 0.13434 0.29023 0.0
C456 C 0.48968 0.13259 0.2124 0.0
C457 C 0.48623 0.1095 0.18102 0.0
C458 C 0.48702 0.08879 0.22601 0.0
C459 C 0.49163 0.0912 0.30264 0.0
C460 C 0.49609 0.11331 0.33448 0.0
C461 C 0.50048 0.11072 0.41871 0.0
C462 C 0.52603 0.11868 0.43905 0.0
C463 C 0.48168 0.12472 0.46398 0.0
C464 C 0.49738 0.08381 0.42918 0.0
C465 C 0.49215 0.07297 0.36139 0.0
C466 C 0.48756 0.04846 0.35678 0.0
C467 C 0.48863 0.03458 0.42285 0.0
C468 C 0.49449 0.04507 0.493 0.0
C469 C 0.4989 0.07011 0.4958 0.0
H470 H 0.37069 0.46655 0.30477 0.0
H471 H 0.35393 0.54192 0.2704 0.0
H472 H 0.38263 0.55252 0.3698 0.0
H473 H 0.37893 0.46752 0.50119 0.0
H474 H 0.40423 0.44746 0.502 0.0
H475 H 0.38223 0.44544 0.42814 0.0
H476 H 0.41544 0.45086 0.32766 0.0
H477 H 0.43758 0.45261 0.40122 0.0
H478 H 0.43513 0.47641 0.33273 0.0
H479 H 0.41147 0.55493 0.4795 0.0
H480 H 0.44167 0.54928 0.57968 0.0
H481 H 0.44298 0.47298 0.53413 0.0
C482 C 0.37327 0.48538 0.31635 0.0
C483 C 0.35942 0.50327 0.27922 0.0
C484 C 0.36351 0.52762 0.29856 0.0
C485 C 0.38002 0.53392 0.35488 0.0
C486 C 0.39288 0.5158 0.39091 0.0
C487 C 0.39009 0.49206 0.37131 0.0
C488 C 0.40659 0.47609 0.41761 0.0
C489 C 0.39212 0.45807 0.46504 0.0
C490 C 0.42476 0.46324 0.36677 0.0
C491 C 0.41883 0.49454 0.46709 0.0
C492 C 0.41046 0.51732 0.45127 0.0
C493 C 0.41833 0.5372 0.49169 0.0
C494 C 0.4354 0.53378 0.54891 0.0
C495 C 0.44477 0.51071 0.56478 0.0
C496 C 0.43629 0.49087 0.52307 0.0
H497 H 0.0259 0.35086 0.36605 0.0
H498 H 0.99595 0.38477 0.16707 0.0
H499 H 0.98791 0.42138 0.24031 0.0
H500 H 0.98481 0.3784 0.50393 0.0
H501 H 0.00785 0.3821 0.57404 0.0
H502 H 0.00963 0.35777 0.50785 0.0
H503 H 0.05182 0.37211 0.46724 0.0
H504 H 0.05012 0.39654 0.53289 0.0
H505 H 0.05584 0.40249 0.43471 0.0
H506 H 0.98484 0.45479 0.33175 0.0
H507 H 0.98672 0.48346 0.43583 0.0
H508 H 0.01928 0.42912 0.57875 0.0
C509 C 0.0172 0.36585 0.33846 0.0
C510 C 0.0114 0.36489 0.26074 0.0
C511 C 1.00056 0.38508 0.22629 0.0
C512 C 0.99588 0.40594 0.26754 0.0
C513 C 1.0022 0.40649 0.34344 0.0
C514 C 0.01258 0.38701 0.37888 0.0
C515 C 0.01861 0.39293 0.46036 0.0
C516 C 1.00437 0.37684 0.51476 0.0
C517 C 0.04571 0.39089 0.47461 0.0
C518 C 0.01025 0.41884 0.46476 0.0
C519 C 1.00072 0.42612 0.39658 0.0
C520 C 0.99218 0.44927 0.38548 0.0
C521 C 0.99341 0.46549 0.4453 0.0
C522 C 1.00321 0.45873 0.51602 0.0
C523 C 0.01165 0.43493 0.5257 0.0
H524 H 0.85496 0.02021 0.05042 0.0
H525 H 0.87491 0.96389 0.20744 0.0
H526 H 0.90894 0.95301 0.12511 0.0
H527 H 0.87164 0.98896 0.87785 0.0
H528 H 0.88277 0.01585 0.83351 0.0
H529 H 0.85892 0.01763 0.90158 0.0
H530 H 0.88387 0.04775 0.97985 0.0
H531 H 0.90779 0.04602 0.91218 0.0
H532 H 0.91362 0.03958 0.01 0.0
H533 H 0.94303 0.95053 0.02897 0.0
H534 H 0.97304 0.95616 0.92784 0.0
H535 H 0.93052 0.01444 0.83581 0.0
C536 C 0.86638 0.00549 0.06757 0.0
C537 C 0.86216 0.99294 0.13578 0.0
C538 C 0.87748 0.97361 0.15519 0.0
C539 C 0.89697 0.96738 0.10889 0.0
C540 C 0.90088 0.98053 0.04296 0.0
C541 C 0.88586 0.99908 0.0222 0.0
C542 C 0.89438 0.01111 0.95037 0.0
C543 C 0.87582 0.0082 0.88709 0.0
C544 C 0.90027 0.03768 0.96395 0.0
C545 C 0.91681 0.99673 0.93445 0.0
C546 C 0.92025 0.97907 0.98813 0.0
C547 C 0.94033 0.96417 0.98632 0.0
C548 C 0.95732 0.96752 0.92859 0.0
C549 C 0.95421 0.98567 0.87332 0.0
C550 C 0.93347 1.00024 0.87648 0.0
H551 H 0.4972 0.89546 0.1747 0.0
H552 H 0.53784 0.83794 0.07077 0.0
H553 H 0.54872 0.86496 0.96698 0.0
H554 H 0.47169 0.91635 0.0046 0.0
H555 H 0.47219 0.94757 0.0301 0.0
H556 H 0.47018 0.9249 0.10223 0.0
H557 H 0.5079 0.94233 0.1669 0.0
H558 H 0.51006 0.96504 0.0947 0.0
H559 H 0.5352 0.94567 0.11366 0.0
H560 H 0.55251 0.89662 0.86839 0.0
H561 H 0.54773 0.93023 0.7796 0.0
H562 H 0.503 0.96731 0.94137 0.0
C563 C 0.50847 0.8884 0.13053 0.0
C564 C 0.51678 0.86429 0.13257 0.0
C565 C 0.53167 0.85629 0.07294 0.0
C566 C 0.53785 0.87153 0.0129 0.0
C567 C 0.52898 0.89487 0.0123 0.0
C568 C 0.51455 0.9033 0.06936 0.0
C569 C 0.50586 0.92858 0.05182 0.0
C570 C 0.47835 0.92939 0.04688 0.0
C571 C 0.51533 0.94646 0.11026 0.0
C572 C 0.51731 0.93283 0.97523 0.0
C573 C 0.5308 0.91319 0.9542 0.0
C574 C 0.54218 0.91216 0.88458 0.0
C575 C 0.53932 0.9314 0.83441 0.0
C576 C 0.52511 0.95155 0.85344 0.0
C577 C 0.51435 0.95242 0.92563 0.0
H578 H 0.62219 0.50624 0.17149 0.0
H579 H 0.68492 0.51409 0.02845 0.0
H580 H 0.65875 0.5186 0.91805 0.0
H581 H 0.58937 0.46983 0.04365 0.0
H582 H 0.56062 0.48262 0.06615 0.0
H583 H 0.58408 0.48222 0.13572 0.0
H584 H 0.58042 0.5282 0.15079 0.0
H585 H 0.55688 0.52874 0.08138 0.0
H586 H 0.58306 0.54727 0.06902 0.0
H587 H 0.62601 0.52011 0.82127 0.0
H588 H 0.5891 0.51862 0.74548 0.0
H589 H 0.54727 0.50802 0.94913 0.0
C590 C 0.63054 0.50896 0.11715 0.0
C591 C 0.65587 0.51004 0.10973 0.0
C592 C 0.66572 0.51381 0.03693 0.0
C593 C 0.65096 0.51617 0.97335 0.0
C594 C 0.62622 0.51463 0.98272 0.0
C595 C 0.61605 0.51113 0.05275 0.0
C596 C 0.58896 0.50911 0.04671 0.0
C597 C 0.58025 0.48448 0.07471 0.0
C598 C 0.57661 0.52955 0.08952 0.0
C599 C 0.58554 0.51178 0.96225 0.0
C600 C 0.60729 0.51509 0.92657 0.0
C601 C 0.60887 0.51763 0.84867 0.0
C602 C 0.58772 0.51672 0.80602 0.0
C603 C 0.56514 0.51321 0.84098 0.0
C604 C 0.56417 0.51078 0.92042 0.0
H605 H 0.99148 0.61516 0.1857 0.0
H606 H 0.98961 0.68015 0.05027 0.0
H607 H 0.98799 0.65589 0.93541 0.0
H608 H 0.03015 0.58286 0.06605 0.0
H609 H 0.01573 0.55424 0.07901 0.0
H610 H 0.01423 0.57643 0.15211 0.0
H611 H 0.96791 0.5742 0.15023 0.0
H612 H 0.96927 0.5519 0.07725 0.0
H613 H 0.95213 0.5789 0.06286 0.0
H614 H 0.99122 0.62541 0.83481 0.0
H615 H 0.99658 0.59013 0.75378 0.0
H616 H 0.99543 0.54374 0.95034 0.0
C617 C 0.99042 0.62432 0.13198 0.0
C618 C 0.99039 0.64977 0.12782 0.0
C619 C 0.98904 0.66084 0.0559 0.0
C620 C 0.98832 0.64716 0.98992 0.0
C621 C 0.98884 0.62228 0.99607 0.0
C622 C 0.98961 0.61087 0.06512 0.0
C623 C 0.99102 0.5838 0.05517 0.0
C624 C 0.01416 0.57375 0.09016 0.0
C625 C 0.96875 0.57148 0.08835 0.0
C626 C 0.99144 0.58188 0.96975 0.0
C627 C 0.99018 0.6044 0.93715 0.0
C628 C 0.99184 0.60768 0.85961 0.0
C629 C 0.99498 0.58751 0.81404 0.0
C630 C 0.9962 0.56418 0.84557 0.0
C631 C 0.99409 0.56131 0.92458 0.0
H632 H 0.04424 0.23012 0.37589 0.0
H633 H 0.11176 0.19704 0.31678 0.0
H634 H 0.10031 0.16082 0.38888 0.0
H635 H 0.0349 0.19808 0.56712 0.0
H636 H 1.0033 0.19561 0.54786 0.0
H637 H 0.01987 0.22129 0.51438 0.0
H638 H 0.00499 0.21263 0.37907 0.0
H639 H 0.98899 0.18668 0.41128 0.0
H640 H 0.011 0.18381 0.33761 0.0
H641 H 0.07828 0.12584 0.44084 0.0
H642 H 0.04793 0.09515 0.47129 0.0
H643 H 0.99366 0.15038 0.48845 0.0
C644 C 0.05722 0.21583 0.3822 0.0
C645 C 0.07908 0.21647 0.3424 0.0
C646 C 0.09513 0.19697 0.3482 0.0
C647 C 0.08875 0.17637 0.38903 0.0
C648 C 0.0663 0.17567 0.42356 0.0
C649 C 0.05088 0.19507 0.42147 0.0
C650 C 0.02624 0.18844 0.45064 0.0
C651 C 0.02076 0.20164 0.5244 0.0
C652 C 0.00668 0.19316 0.39108 0.0
C653 C 0.02969 0.16195 0.46452 0.0
C654 C 0.05308 0.15506 0.45074 0.0
C655 C 0.06004 0.13112 0.45306 0.0
C656 C 0.04262 0.11378 0.46909 0.0
C657 C 0.01842 0.12041 0.481 0.0
C658 C 0.01207 0.14485 0.48041 0.0
H659 H 0.28637 0.96661 0.36441 0.0
H660 H 0.28308 0.03094 0.50009 0.0
H661 H 0.31077 0.01244 0.59183 0.0
H662 H 0.29463 0.92222 0.52844 0.0
H663 H 0.31464 0.90452 0.4717 0.0
H664 H 0.28993 0.92015 0.42828 0.0
H665 H 0.31952 0.94109 0.33681 0.0
H666 H 0.34421 0.92584 0.38006 0.0
H667 H 0.34418 0.9581 0.3747 0.0
H668 H 0.34532 0.99169 0.6491 0.0
H669 H 0.38352 0.97065 0.66708 0.0
H670 H 0.36279 0.91808 0.50057 0.0
C671 C 0.29043 0.97639 0.41532 0.0
C672 C 0.28242 1.00015 0.42537 0.0
C673 C 0.28908 0.01273 0.49113 0.0
C674 C 0.30457 1.00225 0.54394 0.0
C675 C 0.31288 0.97907 0.53068 0.0
C676 C 0.30574 0.96615 0.4684 0.0
C677 C 0.31992 0.94321 0.46041 0.0
C678 C 0.30382 0.92122 0.47299 0.0
C679 C 0.33271 0.94203 0.38351 0.0
C680 C 0.3375 0.94615 0.52434 0.0
C681 C 0.33274 0.96662 0.56553 0.0
C682 C 0.34866 0.97511 0.61952 0.0
C683 C 0.37029 0.96289 0.62985 0.0
C684 C 0.37577 0.94231 0.58675 0.0
C685 C 0.35875 0.93342 0.53544 0.0
H686 H 0.45598 0.31656 0.16492 0.0
H687 H 0.42328 0.28221 0.3586 0.0
H688 H 0.43682 0.31583 0.43906 0.0
H689 H 0.50757 0.33381 0.25576 0.0
H690 H 0.51109 0.36161 0.20493 0.0
H691 H 0.49558 0.33696 0.1622 0.0
H692 H 0.45765 0.36397 0.14172 0.0
H693 H 0.4742 0.38856 0.18181 0.0
H694 H 0.44554 0.38012 0.22054 0.0
H695 H 0.45767 0.35118 0.49929 0.0
H696 H 0.48293 0.3857 0.53421 0.0
H697 H 0.5035 0.39487 0.30009 0.0
C698 C 0.45073 0.31662 0.22361 0.0
C699 C 0.43806 0.29718 0.25541 0.0
C700 C 0.43261 0.29723 0.3332 0.0
C701 C 0.44026 0.31617 0.37912 0.0
C702 C 0.45343 0.33471 0.34615 0.0
C703 C 0.45848 0.33509 0.27001 0.0
C704 C 0.4749 0.35561 0.24921 0.0
C705 C 0.49867 0.34644 0.21609 0.0
C706 C 0.46233 0.37312 0.19513 0.0
C707 C 0.47863 0.36662 0.32569 0.0
C708 C 0.466 0.35448 0.3809 0.0
C709 C 0.46749 0.3609 0.4564 0.0
C710 C 0.48213 0.38035 0.47575 0.0
C711 C 0.49529 0.39296 0.41985 0.0
C712 C 0.49342 0.38588 0.34398 0.0
H713 H 0.20469 0.52399 0.28427 0.0
H714 H 0.21935 0.47694 0.47318 0.0
H715 H 0.19486 0.50312 0.55576 0.0
H716 H 0.20243 0.58167 0.39467 0.0
H717 H 0.17859 0.59298 0.33604 0.0
H718 H 0.20092 0.57331 0.29688 0.0
H719 H 0.16754 0.54436 0.25184 0.0
H720 H 0.14525 0.56396 0.29009 0.0
H721 H 0.14617 0.533 0.31923 0.0
H722 H 0.1632 0.52977 0.60905 0.0
H723 H 0.12549 0.55158 0.62617 0.0
H724 H 0.13405 0.58414 0.4053 0.0
C725 C 0.20306 0.5195 0.34346 0.0
C726 C 0.21352 0.49849 0.37278 0.0
C727 C 0.2113 0.49304 0.45019 0.0
C728 C 0.19765 0.5079 0.49729 0.0
C729 C 0.18705 0.52834 0.46609 0.0
C730 C 0.18985 0.53423 0.39094 0.0
C731 C 0.17448 0.55535 0.36852 0.0
C732 C 0.19004 0.57712 0.34783 0.0
C733 C 0.15735 0.54876 0.30368 0.0
C734 C 0.16117 0.55942 0.44137 0.0
C735 C 0.16908 0.5441 0.49757 0.0
C736 C 0.15716 0.54218 0.56613 0.0
C737 C 0.13577 0.55495 0.57557 0.0
C738 C 0.12655 0.56958 0.51671 0.0
C739 C 0.14042 0.57299 0.4511 0.0
H740 H 0.07073 0.77106 0.04362 0.0
H741 H 0.1114 0.78744 0.24477 0.0
H742 H 0.1266 0.82418 0.18449 0.0
H743 H 0.11257 0.80287 0.90062 0.0
H744 H 0.08686 0.81321 0.8484 0.0
H745 H 0.08603 0.78453 0.89553 0.0
H746 H 0.04758 0.79762 0.96574 0.0
H747 H 0.04851 0.82637 0.92043 0.0
H748 H 0.04812 0.82448 0.02176 0.0
H749 H 0.12804 0.86335 0.11992 0.0
H750 H 0.11741 0.90065 0.0536 0.0
H751 H 0.07527 0.85993 0.89361 0.0
C752 C 0.08366 0.78189 0.0736 0.0
C753 C 0.08991 0.7764 0.14873 0.0
C754 C 0.10669 0.79103 0.18668 0.0
C755 C 0.11536 0.81204 0.15287 0.0
C756 C 0.10729 0.81798 0.08088 0.0
C757 C 0.09215 0.80306 0.04094 0.0
C758 C 0.08274 0.81531 0.97067 0.0
C759 C 0.09266 0.80326 0.89959 0.0
C760 C 0.05512 0.81599 0.96972 0.0
C761 C 0.0933 0.84004 0.98069 0.0
C762 C 0.10798 0.84103 0.04328 0.0
C763 C 0.11728 0.86263 0.0693 0.0
C764 C 0.11112 0.88377 0.03119 0.0
C765 C 0.0956 0.8832 0.9681 0.0
C766 C 0.08719 0.86093 0.94157 0.0
H767 H 0.71483 0.08648 0.10005 0.0
H768 H 0.68879 0.08595 0.33036 0.0
H769 H 0.64781 0.09282 0.28455 0.0
H770 H 0.66888 0.12903 0.01852 0.0
H771 H 0.66696 0.11167 0.9334 0.0
H772 H 0.69484 0.11326 0.98439 0.0
H773 H 0.69604 0.06688 0.99145 0.0
H774 H 0.66811 0.06513 0.94163 0.0
H775 H 0.67111 0.05096 0.03252 0.0
H776 H 0.60906 0.09198 0.21425 0.0
H777 H 0.57609 0.08389 0.12492 0.0
H778 H 0.62711 0.08274 0.94083 0.0
C779 C 0.70063 0.08846 0.14105 0.0
C780 C 0.70518 0.08579 0.21887 0.0
C781 C 0.686 0.08848 0.27054 0.0
C782 C 0.66255 0.09225 0.245 0.0
C783 C 0.65853 0.0934 0.16769 0.0
C784 C 0.6771 0.09182 0.11643 0.0
C785 C 0.6678 0.09014 0.03661 0.0
C786 C 0.67505 0.11235 0.99052 0.0
C787 C 0.67627 0.0669 0.99838 0.0
C788 C 0.64113 0.08974 0.05129 0.0
C789 C 0.63609 0.09223 0.12701 0.0
C790 C 0.61276 0.09054 0.15464 0.0
C791 C 0.59416 0.08593 0.10359 0.0
C792 C 0.59911 0.08269 0.02614 0.0
C793 C 0.62285 0.08509 0.99981 0.0
H794 H 0.44901 0.72623 0.05619 0.0
H795 H 0.38404 0.7226 0.18967 0.0
H796 H 0.37092 0.68737 0.11669 0.0
H797 H 0.42191 0.70332 0.87305 0.0
H798 H 0.44908 0.68718 0.85249 0.0
H799 H 0.45043 0.71517 0.90268 0.0
H800 H 0.47377 0.69421 0.01057 0.0
H801 H 0.47235 0.66629 0.96134 0.0
H802 H 0.46088 0.66827 0.05597 0.0
H803 H 0.36921 0.64824 0.04842 0.0
H804 H 0.37889 0.60927 0.99006 0.0
H805 H 0.44443 0.63954 0.8998 0.0
C806 C 0.43145 0.71885 0.06775 0.0
C807 C 0.4175 0.7273 0.12833 0.0
C808 C 0.39509 0.71638 0.14363 0.0
C809 C 0.38739 0.6965 0.102 0.0
C810 C 0.40212 0.68802 0.04458 0.0
C811 C 0.42355 0.69913 0.02674 0.0
C812 C 0.43775 0.68481 0.9702 0.0
C813 C 0.43991 0.69844 0.89514 0.0
C814 C 0.46263 0.67799 1.00145 0.0
C815 C 0.42172 0.66316 0.9625 0.0
C816 C 0.40099 0.66549 0.00448 0.0
C817 C 0.38501 0.64647 0.01363 0.0
C818 C 0.39071 0.62438 0.98072 0.0
C819 C 0.41225 0.62153 0.93966 0.0
C820 C 0.42745 0.64142 0.92863 0.0
H821 H 0.81565 0.40776 0.18785 0.0
H822 H 0.76897 0.44118 0.02239 0.0
H823 H 0.79959 0.43531 0.92544 0.0
H824 H 0.8637 0.43919 0.13933 0.0
H825 H 0.8859 0.41622 0.15445 0.0
H826 H 0.85809 0.41507 0.20488 0.0
H827 H 0.84995 0.37241 0.15383 0.0
H828 H 0.87798 0.37334 0.10342 0.0
H829 H 0.85051 0.36718 0.05378 0.0
H830 H 0.83742 0.43531 0.85487 0.0
H831 H 0.87949 0.44127 0.81701 0.0
H832 H 0.90316 0.41092 0.02936 0.0
C833 C 0.81156 0.41328 0.13083 0.0
C834 C 0.78976 0.42494 0.11327 0.0
C835 C 0.78519 0.43172 0.03761 0.0
C836 C 0.8026 0.42853 0.98182 0.0
C837 C 0.82451 0.41851 1.00229 0.0
C838 C 0.829 0.41078 0.07497 0.0
C839 C 0.85524 0.40479 0.08592 0.0
C840 C 0.86637 0.41972 0.14986 0.0
C841 C 0.85861 0.37782 0.10005 0.0
C842 C 0.86508 0.41205 0.00979 0.0
C843 C 0.84693 0.41915 0.96159 0.0
C844 C 0.85173 0.42925 0.89134 0.0
C845 C 0.87566 0.43277 0.87061 0.0
C846 C 0.89447 0.4265 0.92037 0.0
C847 C 0.88909 0.41531 0.98968 0.0
H848 H 0.01572 0.1885 0.84828 0.0
H849 H 0.02579 0.17202 0.08541 0.0
H850 H 0.02493 0.129 0.05687 0.0
H851 H 0.97524 0.13842 0.80966 0.0
H852 H 0.98731 0.1326 0.71749 0.0
H853 H 0.98811 0.16252 0.7551 0.0
H854 H 0.03395 0.16413 0.73522 0.0
H855 H 0.0333 0.13429 0.69708 0.0
H856 H 0.05256 0.14103 0.77569 0.0
H857 H 0.02495 0.08798 0.00429 0.0
H858 H 0.02334 0.05077 0.93129 0.0
H859 H 0.01255 0.09211 0.72615 0.0
C860 C 0.01763 0.17583 0.8942 0.0
C861 C 0.02053 0.18388 0.9695 0.0
C862 C 0.02296 0.16656 0.02767 0.0
C863 C 0.02274 0.14197 0.01193 0.0
C864 C 0.02 0.13469 0.93756 0.0
C865 C 0.01728 0.151 0.87948 0.0
C866 C 0.01449 0.13803 0.80458 0.0
C867 C 0.98982 0.1432 0.76966 0.0
C868 C 0.03479 0.14478 0.74993 0.0
C869 C 0.01645 0.11198 0.82986 0.0
C870 C 0.01968 0.11063 0.90688 0.0
C871 C 0.02231 0.08878 0.94398 0.0
C872 C 0.02144 0.06766 0.90169 0.0
C873 C 0.01783 0.06829 0.82266 0.0
C874 C 0.01534 0.0909 0.78638 0.0
H875 H 0.33448 0.98971 0.95006 0.0
H876 H 0.31396 0.06012 0.86691 0.0
H877 H 0.35136 0.06234 0.79426 0.0
H878 H 0.39706 1.00431 0.97407 0.0
H879 H 0.40738 0.97499 0.94699 0.0
H880 H 0.37835 0.97844 0.98981 0.0
H881 H 0.36015 0.95648 0.87858 0.0
H882 H 0.38802 0.95447 0.82779 0.0
H883 H 0.36232 0.96882 0.78546 0.0
H884 H 0.39272 0.05902 0.74003 0.0
H885 H 0.43389 0.04894 0.70051 0.0
H886 H 0.42802 0.98023 0.81418 0.0
C887 C 0.33772 0.00562 0.91653 0.0
C888 C 0.32078 0.02464 0.91423 0.0
C889 C 0.32603 0.04497 0.86876 0.0
C890 C 0.34748 0.04655 0.82765 0.0
C891 C 0.36379 0.02771 0.83219 0.0
C892 C 0.35919 0.00759 0.87531 0.0
C893 C 0.38015 0.99018 0.87198 0.0
C894 C 0.39139 0.98679 0.95037 0.0
C895 C 0.37224 0.96606 0.83888 0.0
C896 C 0.39713 1.00359 0.81955 0.0
C897 C 0.38742 0.02539 0.79836 0.0
C898 C 0.40036 0.04187 0.75533 0.0
C899 C 0.42382 0.03603 0.73344 0.0
C900 C 0.43417 0.01374 0.75354 0.0
C901 C 0.42047 0.99724 0.79671 0.0
H902 H 0.51224 0.31891 0.82959 0.0
H903 H 0.47605 0.32982 0.04285 0.0
H904 H 0.47346 0.37306 0.01625 0.0
H905 H 0.54682 0.37479 0.83293 0.0
H906 H 0.54393 0.38031 0.73328 0.0
H907 H 0.54366 0.35002 0.76887 0.0
H908 H 0.50284 0.34271 0.70356 0.0
H909 H 0.50304 0.37301 0.66815 0.0
H910 H 0.47806 0.3624 0.7233 0.0
H911 H 0.47252 0.41441 0.96606 0.0
H912 H 0.47591 0.45272 0.89826 0.0
H913 H 0.51383 0.41715 0.7168 0.0
C914 C 0.50395 0.33047 0.87085 0.0
C915 C 0.4948 0.32089 0.93938 0.0
C916 C 0.48389 0.33668 0.99139 0.0
C917 C 0.48207 0.36128 0.97637 0.0
C918 C 0.49121 0.37013 0.90885 0.0
C919 C 0.50213 0.35536 0.85695 0.0
C920 C 0.51047 0.36991 0.78885 0.0
C921 C 0.53785 0.36868 0.78051 0.0
C922 C 0.49784 0.3615 0.7167 0.0
C923 C 0.50236 0.39502 0.81076 0.0
C924 C 0.49112 0.39451 0.88003 0.0
C925 C 0.48142 0.41507 0.91196 0.0
C926 C 0.48335 0.4368 0.87262 0.0
C927 C 0.49515 0.43815 0.80202 0.0
C928 C 0.50483 0.41684 0.77081 0.0
H929 H 0.16985 0.49642 0.987 0.0
H930 H 0.21308 0.49072 0.78516 0.0
H931 H 0.17658 0.49487 0.70691 0.0
H932 H 0.12082 0.46156 0.91914 0.0
H933 H 0.09808 0.47921 0.96484 0.0
H934 H 0.12769 0.47739 0.00473 0.0
H935 H 0.13108 0.52366 1.00189 0.0
H936 H 0.10143 0.52563 0.96233 0.0
H937 H 0.12634 0.53951 0.91451 0.0
H938 H 0.13482 0.49894 0.65047 0.0
H939 H 0.09173 0.50244 0.62069 0.0
H940 H 0.07528 0.5032 0.85938 0.0
C941 C 0.17167 0.49644 0.9263 0.0
C942 C 0.19442 0.49348 0.89221 0.0
C943 C 0.1959 0.493 0.81256 0.0
C944 C 0.17525 0.49539 0.76766 0.0
C945 C 0.15307 0.49798 0.80306 0.0
C946 C 0.15115 0.49844 0.88064 0.0
C947 C 0.1251 0.50038 0.9047 0.0
C948 C 0.11748 0.47832 0.95109 0.0
C949 C 0.12074 0.52368 0.94844 0.0
C950 C 0.11263 0.50093 0.82868 0.0
C951 C 0.1291 0.49972 0.77073 0.0
C952 C 0.12186 0.50011 0.69553 0.0
C953 C 0.09727 0.50201 0.67911 0.0
C954 C 0.07998 0.50294 0.73751 0.0
C955 C 0.08794 0.50232 0.8133 0.0
H956 H 0.0194 0.81798 0.58136 0.0
H957 H 0.96679 0.82251 0.40152 0.0
H958 H 0.95847 0.86437 0.43651 0.0
H959 H 0.9896 0.8569 0.71559 0.0
H960 H 0.01718 0.8705 0.74648 0.0
H961 H 0.01717 0.84013 0.71259 0.0
H962 H 0.04956 0.85134 0.61414 0.0
H963 H 0.04962 0.88172 0.64771 0.0
H964 H 0.04411 0.87575 0.54958 0.0
H965 H 0.95722 0.90689 0.48762 0.0
H966 H 0.964 0.94618 0.54751 0.0
H967 H 0.01949 0.91469 0.68759 0.0
C968 C 0.00612 0.82761 0.54884 0.0
C969 C 0.99376 0.81649 0.48837 0.0
C970 C 0.97625 0.83009 0.44895 0.0
C971 C 0.9715 0.85408 0.46807 0.0
C972 C 0.98444 0.8645 0.52665 0.0
C973 C 1.00143 0.85167 0.56636 0.0
C974 C 0.01387 0.86739 0.62407 0.0
C975 C 0.00916 0.85818 0.70444 0.0
C976 C 0.04089 0.86915 0.60787 0.0
C977 C 1.00142 0.89116 0.61009 0.0
C978 C 0.98429 0.88906 0.55431 0.0
C979 C 0.97056 0.90867 0.53144 0.0
C980 C 0.97453 0.93097 0.56597 0.0
C981 C 0.99231 0.9337 0.62234 0.0
C982 C 0.0058 0.91335 0.64461 0.0
H983 H 0.68878 0.02126 0.5434 0.0
H984 H 0.68997 0.9554 0.41403 0.0
H985 H 0.64778 0.948 0.44816 0.0
H986 H 0.65103 0.99827 0.69648 0.0
H987 H 0.63534 0.02624 0.70785 0.0
H988 H 0.66587 0.02616 0.67488 0.0
H989 H 0.65309 0.05033 0.55678 0.0
H990 H 0.62252 0.05039 0.58917 0.0
H991 H 0.62962 0.03888 0.4972 0.0
H992 H 0.60499 0.9487 0.49031 0.0
H993 H 0.56483 0.95639 0.54202 0.0
H994 H 0.59128 0.02078 0.65029 0.0
C995 C 0.68041 1.00499 0.52338 0.0
C996 C 0.69292 0.98892 0.47568 0.0
C997 C 0.68086 0.96819 0.44962 0.0
C998 C 0.65688 0.96374 0.46913 0.0
C999 C 0.6451 0.98005 0.51537 0.0
C1000 C 0.65648 1.00017 0.54277 0.0
C1001 C 0.63952 0.01503 0.59062 0.0
C1002 C 0.64848 0.0165 0.67231 0.0
C1003 C 0.63598 0.04014 0.55638 0.0
C1004 C 0.61675 1.00022 0.58529 0.0
C1005 C 0.62043 0.98017 0.54132 0.0
C1006 C 0.60197 0.96422 0.52534 0.0
C1007 C 0.57914 0.96883 0.55485 0.0
C1008 C 0.57482 0.98916 0.60052 0.0
C1009 C 0.59403 1.00495 0.61634 0.0
H1010 H 0.49766 0.67393 0.40965 0.0
H1011 H 0.53069 0.71285 0.59381 0.0
H1012 H 0.5357 0.67504 0.66372 0.0
H1013 H 0.46583 0.63167 0.51944 0.0
H1014 H 0.47101 0.60661 0.45793 0.0
H1015 H 0.47058 0.6366 0.42018 0.0
H1016 H 0.51291 0.63041 0.36401 0.0
H1017 H 0.5134 0.6003 0.40117 0.0
H1018 H 0.53707 0.62095 0.42459 0.0
H1019 H 0.53393 0.63363 0.71925 0.0
H1020 H 0.52892 0.59081 0.75143 0.0
H1021 H 0.50036 0.5774 0.52854 0.0
C1022 C 0.50642 0.67454 0.46394 0.0
C1023 C 0.51347 0.69674 0.49614 0.0
C1024 C 0.52455 0.69641 0.5681 0.0
C1025 C 0.52766 0.67491 0.60828 0.0
C1026 C 0.52001 0.65357 0.57572 0.0
C1027 C 0.50997 0.65311 0.50468 0.0
C1028 C 0.50316 0.62762 0.48315 0.0
C1029 C 0.47604 0.62551 0.46937 0.0
C1030 C 0.5175 0.61933 0.41413 0.0
C1031 C 0.51062 0.61393 0.55361 0.0
C1032 C 0.52014 0.62935 0.60645 0.0
C1033 C 0.5269 0.62133 0.67781 0.0
C1034 C 0.52391 0.59698 0.6957 0.0
C1035 C 0.51461 0.58068 0.64225 0.0
C1036 C 0.50804 0.58933 0.56999 0.0
H1037 H 0.83643 0.51252 0.41865 0.0
H1038 H 0.79763 0.51754 0.63018 0.0
H1039 H 0.83585 0.5203 0.69826 0.0
H1040 H 0.8849 0.47813 0.48243 0.0
H1041 H 0.90749 0.49373 0.42877 0.0
H1042 H 0.87707 0.4928 0.39522 0.0
H1043 H 0.87593 0.53914 0.38927 0.0
H1044 H 0.90646 0.54023 0.42211 0.0
H1045 H 0.88338 0.55621 0.47198 0.0
H1046 H 0.87838 0.51778 0.74527 0.0
H1047 H 0.92223 0.51598 0.76583 0.0
H1048 H 0.93381 0.51775 0.52471 0.0
C1049 C 0.83578 0.51481 0.47906 0.0
C1050 C 0.81365 0.51434 0.51858 0.0
C1051 C 0.81409 0.51707 0.59806 0.0
C1052 C 0.83581 0.51887 0.63753 0.0
C1053 C 0.85716 0.51854 0.59703 0.0
C1054 C 0.85735 0.51715 0.51943 0.0
C1055 C 0.88289 0.5173 0.48963 0.0
C1056 C 0.8884 0.49411 0.44647 0.0
C1057 C 0.88743 0.53955 0.44033 0.0
C1058 C 0.89698 0.51852 0.5627 0.0
C1059 C 0.88175 0.51892 0.62405 0.0
C1060 C 0.89046 0.51806 0.69765 0.0
C1061 C 0.91536 0.51697 0.70886 0.0
C1062 C 0.93129 0.51728 0.64698 0.0
C1063 C 0.92196 0.51817 0.57299 0.0
loop_
_geom_bond_atom_site_label_1
_geom_bond_atom_site_label_2
_geom_bond_distance
_geom_bond_site_symmetry_2
_ccdc_geom_bond_type
P0 O11 1.490 . S
P0 C14 1.812 . S
P0 C20 1.803 . S
P0 C26 1.819 . S
H1 C15 0.941 . S
H2 C16 0.939 . S
H3 C18 0.940 . S
H4 C19 0.940 . S
H5 C21 0.939 . S
H6 C22 0.942 . S
H7 C24 0.940 . S
H8 C25 0.939 . S
H9 C27 0.941 . S
H10 C31 0.939 . S
O11 P0 1.490 . S
H12 C28 0.939 . S
H13 C30 0.940 . S
C14 P0 1.812 . S
C14 C15 1.389 . S
C14 C19 1.391 . S
C15 H1 0.941 . S
C15 C14 1.389 . S
C15 C16 1.397 . S
C16 H2 0.939 . S
C16 C15 1.397 . S
C16 C17 1.378 . S
C17 C16 1.378 . S
C17 C18 1.378 . S
C18 H3 0.940 . S
C18 C17 1.378 . S
C18 C19 1.396 . S
C19 H4 0.940 . S
C19 C14 1.391 . S
C19 C18 1.396 . S
C20 P0 1.803 . S
C20 C21 1.378 . S
C20 C25 1.400 . S
C21 H5 0.939 . S
C21 C20 1.378 . S
C21 C22 1.361 . S
C22 H6 0.942 . S
C22 C21 1.361 . S
C22 C23 1.369 . S
C23 C22 1.369 . S
C23 C24 1.404 . S
C24 H7 0.940 . S
C24 C23 1.404 . S
C24 C25 1.389 . S
C25 H8 0.939 . S
C25 C20 1.400 . S
C25 C24 1.389 . S
C26 P0 1.819 . S
C26 C27 1.391 . S
C26 C31 1.391 . S
C27 H9 0.941 . S
C27 C26 1.391 . S
C27 C28 1.396 . S
C28 H12 0.939 . S
C28 C27 1.396 . S
C28 C29 1.397 . S
C29 C28 1.397 . S
C29 C30 1.385 . S
C30 H13 0.940 . S
C30 C29 1.385 . S
C30 C31 1.388 . S
C31 H10 0.939 . S
C31 C26 1.391 . S
C31 C30 1.388 . S
P32 O43 1.490 . S
P32 C46 1.812 . S
P32 C52 1.803 . S
P32 C58 1.819 . S
H33 C47 0.941 . S
H34 C48 0.939 . S
H35 C50 0.940 . S
H36 C51 0.950 . S
H37 C53 0.939 . S
H38 C54 0.942 . S
H39 C56 0.940 . S
H40 C57 0.959 . S
H41 C59 0.941 . S
H42 C63 0.929 1_655 S
O43 P32 1.490 . S
H44 C60 0.939 . S
H45 C62 0.940 . S
C46 P32 1.812 . S
C46 C47 1.389 . S
C46 C51 1.375 1_455 S
C47 H33 0.941 . S
C47 C46 1.389 . S
C47 C48 1.397 . S
C48 H34 0.939 . S
C48 C47 1.397 . S
C48 C49 1.378 . S
C49 C48 1.378 . S
C49 C50 1.378 1_455 S
C50 H35 0.940 . S
C50 C49 1.378 1_655 S
C50 C51 1.403 . S
C51 H36 0.950 . S
C51 C46 1.375 1_655 S
C51 C50 1.403 . S
C52 P32 1.803 . S
C52 C53 1.378 . S
C52 C57 1.368 1_455 S
C53 H37 0.939 . S
C53 C52 1.378 . S
C53 C54 1.361 . S
C54 H38 0.942 . S
C54 C53 1.361 . S
C54 C55 1.369 . S
C55 C54 1.369 . S
C55 C56 1.404 1_455 S
C56 H39 0.940 . S
C56 C55 1.404 1_655 S
C56 C57 1.402 . S
C57 H40 0.959 . S
C57 C52 1.368 1_655 S
C57 C56 1.402 . S
C58 P32 1.819 . S
C58 C59 1.391 . S
C58 C63 1.391 . S
C59 H41 0.941 . S
C59 C58 1.391 . S
C59 C60 1.396 . S
C60 H44 0.939 . S
C60 C59 1.396 . S
C60 C61 1.397 . S
C61 C60 1.397 . S
C61 C62 1.385 1_455 S
C62 H45 0.940 . S
C62 C61 1.385 1_655 S
C62 C63 1.388 1_655 S
C63 H42 0.929 1_455 S
C63 C58 1.391 . S
C63 C62 1.388 1_455 S
P64 O75 1.490 . S
P64 C78 1.812 . S
P64 C84 1.803 . S
P64 C90 1.819 . S
H65 C79 0.941 . S
H66 C80 0.939 . S
H67 C82 0.940 . S
H68 C83 0.950 . S
H69 C85 0.939 . S
H70 C86 0.942 . S
H71 C88 0.940 . S
H72 C89 0.959 . S
H73 C91 0.941 . S
H74 C95 0.929 1_565 S
O75 P64 1.490 . S
H76 C92 0.939 . S
H77 C94 0.940 . S
C78 P64 1.812 . S
C78 C79 1.389 . S
C78 C83 1.375 1_545 S
C79 H65 0.941 . S
C79 C78 1.389 . S
C79 C80 1.397 . S
C80 H66 0.939 . S
C80 C79 1.397 . S
C80 C81 1.378 . S
C81 C80 1.378 . S
C81 C82 1.378 1_545 S
C82 H67 0.940 . S
C82 C81 1.378 1_565 S
C82 C83 1.403 . S
C83 H68 0.950 . S
C83 C78 1.375 1_565 S
C83 C82 1.403 . S
C84 P64 1.803 . S
C84 C85 1.378 . S
C84 C89 1.368 1_545 S
C85 H69 0.939 . S
C85 C84 1.378 . S
C85 C86 1.361 . S
C86 H70 0.942 . S
C86 C85 1.361 . S
C86 C87 1.369 . S
C87 C86 1.369 . S
C87 C88 1.404 1_545 S
C88 H71 0.940 . S
C88 C87 1.404 1_565 S
C88 C89 1.402 . S
C89 H72 0.959 . S
C89 C84 1.368 1_565 S
C89 C88 1.402 . S
C90 P64 1.819 . S
C90 C91 1.391 . S
C90 C95 1.391 . S
C91 H73 0.941 . S
C91 C90 1.391 . S
C91 C92 1.396 . S
C92 H76 0.939 . S
C92 C91 1.396 . S
C92 C93 1.397 . S
C93 C92 1.397 . S
C93 C94 1.385 1_545 S
C94 H77 0.940 . S
C94 C93 1.385 1_565 S
C94 C95 1.388 1_565 S
C95 H74 0.929 1_545 S
C95 C90 1.391 . S
C95 C94 1.388 1_545 S
P96 O107 1.490 . S
P96 C110 1.812 . S
P96 C116 1.803 . S
P96 C122 1.819 . S
H97 C111 0.941 . S
H98 C112 0.939 . S
H99 C114 0.940 . S
H100 C115 0.940 . S
H101 C117 0.939 . S
H102 C118 0.942 . S
H103 C120 0.940 . S
H104 C121 0.939 . S
H105 C123 0.941 . S
H106 C127 0.939 . S
O107 P96 1.490 . S
H108 C124 0.939 . S
H109 C126 0.940 . S
C110 P96 1.812 . S
C110 C111 1.389 . S
C110 C115 1.391 . S
C111 H97 0.941 . S
C111 C110 1.389 . S
C111 C112 1.397 . S
C112 H98 0.939 . S
C112 C111 1.397 . S
C112 C113 1.378 . S
C113 C112 1.378 . S
C113 C114 1.378 . S
C114 H99 0.940 . S
C114 C113 1.378 . S
C114 C115 1.396 . S
C115 H100 0.940 . S
C115 C110 1.391 . S
C115 C114 1.396 . S
C116 P96 1.803 . S
C116 C117 1.378 . S
C116 C121 1.400 . S
C117 H101 0.939 . S
C117 C116 1.378 . S
C117 C118 1.361 . S
C118 H102 0.942 . S
C118 C117 1.361 . S
C118 C119 1.369 . S
C119 C118 1.369 . S
C119 C120 1.404 . S
C120 H103 0.940 . S
C120 C119 1.404 . S
C120 C121 1.389 . S
C121 H104 0.939 . S
C121 C116 1.400 . S
C121 C120 1.389 . S
C122 P96 1.819 . S
C122 C123 1.391 . S
C122 C127 1.391 . S
C123 H105 0.941 . S
C123 C122 1.391 . S
C123 C124 1.396 . S
C124 H108 0.939 . S
C124 C123 1.396 . S
C124 C125 1.397 . S
C125 C124 1.397 . S
C125 C126 1.385 . S
C126 H109 0.940 . S
C126 C125 1.385 . S
C126 C127 1.388 . S
C127 H106 0.939 . S
C127 C122 1.391 . S
C127 C126 1.388 . S
P128 O139 1.490 . S
P128 C142 1.812 1_554 S
P128 C148 1.803 . S
P128 C154 1.819 . S
H129 C143 0.941 . S
H130 C144 0.939 . S
H131 C146 0.940 . S
H132 C147 0.940 1_554 S
H133 C149 0.939 . S
H134 C150 0.942 . S
H135 C152 0.940 . S
H136 C153 0.939 . S
H137 C155 0.941 . S
H138 C159 0.939 . S
O139 P128 1.490 . S
H140 C156 0.939 . S
H141 C158 0.940 . S
C142 P128 1.812 1_556 S
C142 C143 1.389 . S
C142 C147 1.391 . S
C143 H129 0.941 . S
C143 C142 1.389 . S
C143 C144 1.397 . S
C144 H130 0.939 . S
C144 C143 1.397 . S
C144 C145 1.378 . S
C145 C144 1.378 . S
C145 C146 1.378 . S
C146 H131 0.940 . S
C146 C145 1.378 . S
C146 C147 1.396 . S
C147 H132 0.940 1_556 S
C147 C142 1.391 . S
C147 C146 1.396 . S
C148 P128 1.803 . S
C148 C149 1.378 . S
C148 C153 1.400 . S
C149 H133 0.939 . S
C149 C148 1.378 . S
C149 C150 1.361 . S
C150 H134 0.942 . S
C150 C149 1.361 . S
C150 C151 1.369 . S
C151 C150 1.369 . S
C151 C152 1.404 . S
C152 H135 0.940 . S
C152 C151 1.404 . S
C152 C153 1.389 . S
C153 H136 0.939 . S
C153 C148 1.400 . S
C153 C152 1.389 . S
C154 P128 1.819 . S
C154 C155 1.391 . S
C154 C159 1.391 . S
C155 H137 0.941 . S
C155 C154 1.391 . S
C155 C156 1.396 . S
C156 H140 0.939 . S
C156 C155 1.396 . S
C156 C157 1.397 . S
C157 C156 1.397 . S
C157 C158 1.385 . S
C158 H141 0.940 . S
C158 C157 1.385 . S
C158 C159 1.388 . S
C159 H138 0.939 . S
C159 C154 1.391 . S
C159 C158 1.388 . S
P160 O171 1.490 . S
P160 C174 1.812 1_554 S
P160 C180 1.803 . S
P160 C186 1.819 . S
H161 C175 0.941 . S
H162 C176 0.939 . S
H163 C178 0.940 . S
H164 C179 0.944 1_554 S
H165 C181 0.939 . S
H166 C182 0.942 . S
H167 C184 0.940 . S
H168 C185 0.953 . S
H169 C187 0.941 . S
H170 C191 0.933 1_655 S
O171 P160 1.490 . S
H172 C188 0.939 . S
H173 C190 0.940 . S
C174 P160 1.812 1_556 S
C174 C175 1.389 . S
C174 C179 1.385 1_455 S
C175 H161 0.941 . S
C175 C174 1.389 . S
C175 C176 1.397 . S
C176 H162 0.939 . S
C176 C175 1.397 . S
C176 C177 1.378 . S
C177 C176 1.378 . S
C177 C178 1.378 1_455 S
C178 H163 0.940 . S
C178 C177 1.378 1_655 S
C178 C179 1.399 . S
C179 H164 0.944 1_556 S
C179 C174 1.385 1_655 S
C179 C178 1.399 . S
C180 P160 1.803 . S
C180 C181 1.378 . S
C180 C185 1.379 1_455 S
C181 H165 0.939 . S
C181 C180 1.378 . S
C181 C182 1.361 . S
C182 H166 0.942 . S
C182 C181 1.361 . S
C182 C183 1.369 . S
C183 C182 1.369 . S
C183 C184 1.404 1_455 S
C184 H167 0.940 . S
C184 C183 1.404 1_655 S
C184 C185 1.398 . S
C185 H168 0.953 . S
C185 C180 1.379 1_655 S
C185 C184 1.398 . S
C186 P160 1.819 . S
C186 C187 1.391 . S
C186 C191 1.391 . S
C187 H169 0.941 . S
C187 C186 1.391 . S
C187 C188 1.396 . S
C188 H172 0.939 . S
C188 C187 1.396 . S
C188 C189 1.397 . S
C189 C188 1.397 . S
C189 C190 1.385 1_455 S
C190 H173 0.940 . S
C190 C189 1.385 1_655 S
C190 C191 1.388 1_655 S
C191 H170 0.933 1_455 S
C191 C186 1.391 . S
C191 C190 1.388 1_455 S
P192 O203 1.490 . S
P192 C206 1.812 1_554 S
P192 C212 1.803 . S
P192 C218 1.819 . S
H193 C207 0.941 . S
H194 C208 0.939 . S
H195 C210 0.940 . S
H196 C211 0.944 1_554 S
H197 C213 0.939 . S
H198 C214 0.942 . S
H199 C216 0.940 . S
H200 C217 0.953 . S
H201 C219 0.941 . S
H202 C223 0.933 1_565 S
O203 P192 1.490 . S
H204 C220 0.939 . S
H205 C222 0.940 . S
C206 P192 1.812 1_556 S
C206 C207 1.389 . S
C206 C211 1.385 1_545 S
C207 H193 0.941 . S
C207 C206 1.389 . S
C207 C208 1.397 . S
C208 H194 0.939 . S
C208 C207 1.397 . S
C208 C209 1.378 . S
C209 C208 1.378 . S
C209 C210 1.378 1_545 S
C210 H195 0.940 . S
C210 C209 1.378 1_565 S
C210 C211 1.399 . S
C211 H196 0.944 1_556 S
C211 C206 1.385 1_565 S
C211 C210 1.399 . S
C212 P192 1.803 . S
C212 C213 1.378 . S
C212 C217 1.379 1_545 S
C213 H197 0.939 . S
C213 C212 1.378 . S
C213 C214 1.361 . S
C214 H198 0.942 . S
C214 C213 1.361 . S
C214 C215 1.369 . S
C215 C214 1.369 . S
C215 C216 1.404 1_545 S
C216 H199 0.940 . S
C216 C215 1.404 1_565 S
C216 C217 1.398 . S
C217 H200 0.953 . S
C217 C212 1.379 1_565 S
C217 C216 1.398 . S
C218 P192 1.819 . S
C218 C219 1.391 . S
C218 C223 1.391 . S
C219 H201 0.941 . S
C219 C218 1.391 . S
C219 C220 1.396 . S
C220 H204 0.939 . S
C220 C219 1.396 . S
C220 C221 1.397 . S
C221 C220 1.397 . S
C221 C222 1.385 1_545 S
C222 H205 0.940 . S
C222 C221 1.385 1_565 S
C222 C223 1.388 1_565 S
C223 H202 0.933 1_545 S
C223 C218 1.391 . S
C223 C222 1.388 1_545 S
P224 O235 1.490 . S
P224 C238 1.812 1_554 S
P224 C244 1.803 . S
P224 C250 1.819 . S
H225 C239 0.941 . S
H226 C240 0.939 . S
H227 C242 0.940 . S
H228 C243 0.940 1_554 S
H229 C245 0.939 . S
H230 C246 0.942 . S
H231 C248 0.940 . S
H232 C249 0.939 . S
H233 C251 0.941 . S
H234 C255 0.939 . S
O235 P224 1.490 . S
H236 C252 0.939 . S
H237 C254 0.940 . S
C238 P224 1.812 1_556 S
C238 C239 1.389 . S
C238 C243 1.391 . S
C239 H225 0.941 . S
C239 C238 1.389 . S
C239 C240 1.397 . S
C240 H226 0.939 . S
C240 C239 1.397 . S
C240 C241 1.378 . S
C241 C240 1.378 . S
C241 C242 1.378 . S
C242 H227 0.940 . S
C242 C241 1.378 . S
C242 C243 1.396 . S
C243 H228 0.940 1_556 S
C243 C238 1.391 . S
C243 C242 1.396 . S
C244 P224 1.803 . S
C244 C245 1.378 . S
C244 C249 1.400 . S
C245 H229 0.939 . S
C245 C244 1.378 . S
C245 C246 1.361 . S
C246 H230 0.942 . S
C246 C245 1.361 . S
C246 C247 1.369 . S
C247 C246 1.369 . S
C247 C248 1.404 . S
C248 H231 0.940 . S
C248 C247 1.404 . S
C248 C249 1.389 . S
C249 H232 0.939 . S
C249 C244 1.400 . S
C249 C248 1.389 . S
C250 P224 1.819 . S
C250 C251 1.391 . S
C250 C255 1.391 . S
C251 H233 0.941 . S
C251 C250 1.391 . S
C251 C252 1.396 . S
C252 H236 0.939 . S
C252 C251 1.396 . S
C252 C253 1.397 . S
C253 C252 1.397 . S
C253 C254 1.385 . S
C254 H237 0.940 . S
C254 C253 1.385 . S
C254 C255 1.388 . S
C255 H234 0.939 . S
C255 C250 1.391 . S
C255 C254 1.388 . S
Tb256 C266 2.825 . S
Tb256 O267 2.347 1_455 S
Tb256 O270 2.366 . S
Tb256 O275 2.418 . S
Tb256 O276 2.384 1_565 S
Tb256 O279 2.479 . S
Tb256 O280 2.471 . S
Eu257 O268 2.418 . S
Eu257 O269 2.384 1_545 S
Eu257 O272 2.479 . S
Eu257 O273 2.471 . S
Eu257 O274 2.347 1_655 S
Eu257 O277 2.366 . S
Eu257 C287 2.825 . S
C258 O274 1.259 1_565 S
C258 O275 1.265 . S
C259 O276 1.255 . S
C259 O277 1.265 1_455 S
C260 C262 1.380 . S
C260 C263 1.374 . S
C260 C266 1.507 . S
C261 C262 1.384 . S
C261 C265 1.387 . S
C261 H288 0.930 . S
C262 C260 1.380 . S
C262 C261 1.384 . S
C262 H289 0.931 . S
C263 C260 1.374 . S
C263 C264 1.390 . S
C263 H290 0.930 1_455 S
C264 C263 1.390 . S
C264 C265 1.391 . S
C264 H291 0.930 1_455 S
C265 C261 1.387 . S
C265 C264 1.391 . S
C266 Tb256 2.825 . S
C266 C260 1.507 . S
C266 O279 1.238 . S
C266 O280 1.247 . S
O267 Tb256 2.347 1_655 S
O267 C271 1.259 1_565 S
O268 Eu257 2.418 . S
O268 C271 1.265 . S
O269 Eu257 2.384 1_565 S
O269 C278 1.255 . S
O270 Tb256 2.366 . S
O270 C278 1.265 1_455 S
C271 O267 1.259 1_545 S
C271 O268 1.265 . S
O272 Eu257 2.479 . S
O272 C287 1.238 . S
O273 Eu257 2.471 . S
O273 C287 1.247 . S
O274 Eu257 2.347 1_455 S
O274 C258 1.259 1_545 S
O275 Tb256 2.418 . S
O275 C258 1.265 . S
O276 Tb256 2.384 1_545 S
O276 C259 1.255 . S
O277 Eu257 2.366 . S
O277 C259 1.265 1_655 S
C278 O269 1.255 . S
C278 O270 1.265 1_655 S
O279 Tb256 2.479 . S
O279 C266 1.238 . S
O280 Tb256 2.471 . S
O280 C266 1.247 . S
C281 C284 1.380 . S
C281 C285 1.374 . S
C281 C287 1.507 . S
C282 C283 1.387 . S
C282 C286 1.391 . S
C283 C282 1.387 . S
C283 C284 1.384 . S
C283 H292 0.930 . S
C284 C281 1.380 . S
C284 C283 1.384 . S
C284 H293 0.931 . S
C285 C281 1.374 . S
C285 C286 1.390 . S
C285 H294 0.930 1_655 S
C286 C282 1.391 . S
C286 C285 1.390 . S
C286 H295 0.930 1_655 S
C287 Eu257 2.825 . S
C287 O272 1.238 . S
C287 O273 1.247 . S
C287 C281 1.507 . S
H288 C261 0.930 . S
H289 C262 0.931 . S
H290 C263 0.930 1_655 S
H291 C264 0.930 1_655 S
H292 C283 0.930 . S
H293 C284 0.931 . S
H294 C285 0.930 1_455 S
H295 C286 0.930 1_455 S
Tb296 C306 2.825 . S
Tb296 O307 2.347 1_545 S
Tb296 O310 2.366 . S
Tb296 O315 2.418 . S
Tb296 O316 2.384 . S
Tb296 O319 2.479 . S
Tb296 O320 2.471 . S
Eu297 O308 2.418 . S
Eu297 O309 2.384 . S
Eu297 O312 2.479 . S
Eu297 O313 2.471 . S
Eu297 O314 2.347 1_565 S
Eu297 O317 2.366 . S
Eu297 C327 2.825 . S
C298 O314 1.259 . S
C298 O315 1.265 . S
C299 O316 1.255 . S
C299 O317 1.265 1_545 S
C300 C302 1.380 . S
C300 C303 1.374 . S
C300 C306 1.507 . S
C301 C302 1.384 . S
C301 C305 1.387 . S
C301 H328 0.930 . S
C302 C300 1.380 . S
C302 C301 1.384 . S
C302 H329 0.931 . S
C303 C300 1.374 . S
C303 C304 1.390 . S
C303 H330 0.930 1_545 S
C304 C303 1.390 . S
C304 C305 1.391 . S
C304 H331 0.930 1_545 S
C305 C301 1.387 . S
C305 C304 1.391 . S
C306 Tb296 2.825 . S
C306 C300 1.507 . S
C306 O319 1.238 . S
C306 O320 1.247 . S
O307 Tb296 2.347 1_565 S
O307 C311 1.259 . S
O308 Eu297 2.418 . S
O308 C311 1.265 . S
O309 Eu297 2.384 . S
O309 C318 1.255 . S
O310 Tb296 2.366 . S
O310 C318 1.265 1_545 S
C311 O307 1.259 . S
C311 O308 1.265 . S
O312 Eu297 2.479 . S
O312 C327 1.238 . S
O313 Eu297 2.471 . S
O313 C327 1.247 . S
O314 Eu297 2.347 1_545 S
O314 C298 1.259 . S
O315 Tb296 2.418 . S
O315 C298 1.265 . S
O316 Tb296 2.384 . S
O316 C299 1.255 . S
O317 Eu297 2.366 . S
O317 C299 1.265 1_565 S
C318 O309 1.255 . S
C318 O310 1.265 1_565 S
O319 Tb296 2.479 . S
O319 C306 1.238 . S
O320 Tb296 2.471 . S
O320 C306 1.247 . S
C321 C324 1.380 . S
C321 C325 1.374 . S
C321 C327 1.507 . S
C322 C323 1.387 . S
C322 C326 1.391 . S
C323 C322 1.387 . S
C323 C324 1.384 . S
C323 H332 0.930 . S
C324 C321 1.380 . S
C324 C323 1.384 . S
C324 H333 0.931 . S
C325 C321 1.374 . S
C325 C326 1.390 . S
C325 H334 0.930 1_565 S
C326 C322 1.391 . S
C326 C325 1.390 . S
C326 H335 0.930 1_565 S
C327 Eu297 2.825 . S
C327 O312 1.238 . S
C327 O313 1.247 . S
C327 C321 1.507 . S
H328 C301 0.930 . S
H329 C302 0.931 . S
H330 C303 0.930 1_565 S
H331 C304 0.930 1_565 S
H332 C323 0.930 . S
H333 C324 0.931 . S
H334 C325 0.930 1_545 S
H335 C326 0.930 1_545 S
Tb336 C346 2.825 . S
Tb336 O347 2.347 . S
Tb336 O350 2.366 . S
Tb336 O355 2.418 . S
Tb336 O356 2.384 . S
Tb336 O359 2.479 . S
Tb336 O360 2.471 . S
Eu337 O348 2.418 . S
Eu337 O349 2.384 . S
Eu337 O352 2.479 . S
Eu337 O353 2.471 . S
Eu337 O354 2.347 . S
Eu337 O357 2.366 . S
Eu337 C367 2.825 . S
C338 O354 1.259 . S
C338 O355 1.265 . S
C339 O356 1.255 . S
C339 O357 1.265 . S
C340 C342 1.380 . S
C340 C343 1.374 . S
C340 C346 1.507 . S
C341 C342 1.384 . S
C341 C345 1.387 . S
C341 H368 0.930 . S
C342 C340 1.380 . S
C342 C341 1.384 . S
C342 H369 0.931 . S
C343 C340 1.374 . S
C343 C344 1.390 . S
C343 H370 0.930 . S
C344 C343 1.390 . S
C344 C345 1.391 . S
C344 H371 0.930 . S
C345 C341 1.387 . S
C345 C344 1.391 . S
C346 Tb336 2.825 . S
C346 C340 1.507 . S
C346 O359 1.238 . S
C346 O360 1.247 . S
O347 Tb336 2.347 . S
O347 C351 1.259 . S
O348 Eu337 2.418 . S
O348 C351 1.265 . S
O349 Eu337 2.384 . S
O349 C358 1.255 . S
O350 Tb336 2.366 . S
O350 C358 1.265 . S
C351 O347 1.259 . S
C351 O348 1.265 . S
O352 Eu337 2.479 . S
O352 C367 1.238 . S
O353 Eu337 2.471 . S
O353 C367 1.247 . S
O354 Eu337 2.347 . S
O354 C338 1.259 . S
O355 Tb336 2.418 . S
O355 C338 1.265 . S
O356 Tb336 2.384 . S
O356 C339 1.255 . S
O357 Eu337 2.366 . S
O357 C339 1.265 . S
C358 O349 1.255 . S
C358 O350 1.265 . S
O359 Tb336 2.479 . S
O359 C346 1.238 . S
O360 Tb336 2.471 . S
O360 C346 1.247 . S
C361 C364 1.380 . S
C361 C365 1.374 . S
C361 C367 1.507 . S
C362 C363 1.387 . S
C362 C366 1.391 . S
C363 C362 1.387 . S
C363 C364 1.384 . S
C363 H372 0.930 . S
C364 C361 1.380 . S
C364 C363 1.384 . S
C364 H373 0.931 . S
C365 C361 1.374 . S
C365 C366 1.390 . S
C365 H374 0.930 . S
C366 C362 1.391 . S
C366 C365 1.390 . S
C366 H375 0.930 . S
C367 Eu337 2.825 . S
C367 O352 1.238 . S
C367 O353 1.247 . S
C367 C361 1.507 . S
H368 C341 0.930 . S
H369 C342 0.931 . S
H370 C343 0.930 . S
H371 C344 0.930 . S
H372 C363 0.930 . S
H373 C364 0.931 . S
H374 C365 0.930 . S
H375 C366 0.930 . S
Tb376 C386 2.825 . S
Tb376 O387 2.347 . S
Tb376 O390 2.366 . S
Tb376 O395 2.418 . S
Tb376 O396 2.384 1_655 S
Tb376 O399 2.479 . S
Tb376 O400 2.471 . S
Eu377 O388 2.418 . S
Eu377 O389 2.384 1_455 S
Eu377 O392 2.479 . S
Eu377 O393 2.471 . S
Eu377 O394 2.347 . S
Eu377 O397 2.366 . S
Eu377 C407 2.825 . S
C378 O394 1.259 1_655 S
C378 O395 1.265 . S
C379 O396 1.255 . S
C379 O397 1.265 . S
C380 C382 1.380 . S
C380 C383 1.374 . S
C380 C386 1.507 . S
C381 C382 1.384 . S
C381 C385 1.387 . S
C381 H408 0.930 . S
C382 C380 1.380 . S
C382 C381 1.384 . S
C382 H409 0.931 . S
C383 C380 1.374 . S
C383 C384 1.390 . S
C383 H410 0.930 . S
C384 C383 1.390 . S
C384 C385 1.391 . S
C384 H411 0.930 . S
C385 C381 1.387 . S
C385 C384 1.391 . S
C386 Tb376 2.825 . S
C386 C380 1.507 . S
C386 O399 1.238 . S
C386 O400 1.247 . S
O387 Tb376 2.347 . S
O387 C391 1.259 1_655 S
O388 Eu377 2.418 . S
O388 C391 1.265 . S
O389 Eu377 2.384 1_655 S
O389 C398 1.255 . S
O390 Tb376 2.366 . S
O390 C398 1.265 . S
C391 O387 1.259 1_455 S
C391 O388 1.265 . S
O392 Eu377 2.479 . S
O392 C407 1.238 . S
O393 Eu377 2.471 . S
O393 C407 1.247 . S
O394 Eu377 2.347 . S
O394 C378 1.259 1_455 S
O395 Tb376 2.418 . S
O395 C378 1.265 . S
O396 Tb376 2.384 1_455 S
O396 C379 1.255 . S
O397 Eu377 2.366 . S
O397 C379 1.265 . S
C398 O389 1.255 . S
C398 O390 1.265 . S
O399 Tb376 2.479 . S
O399 C386 1.238 . S
O400 Tb376 2.471 . S
O400 C386 1.247 . S
C401 C404 1.380 . S
C401 C405 1.374 . S
C401 C407 1.507 . S
C402 C403 1.387 . S
C402 C406 1.391 . S
C403 C402 1.387 . S
C403 C404 1.384 . S
C403 H412 0.930 . S
C404 C401 1.380 . S
C404 C403 1.384 . S
C404 H413 0.931 . S
C405 C401 1.374 . S
C405 C406 1.390 . S
C405 H414 0.930 . S
C406 C402 1.391 . S
C406 C405 1.390 . S
C406 H415 0.930 . S
C407 Eu377 2.825 . S
C407 O392 1.238 . S
C407 O393 1.247 . S
C407 C401 1.507 . S
H408 C381 0.930 . S
H409 C382 0.931 . S
H410 C383 0.930 . S
H411 C384 0.930 . S
H412 C403 0.930 . S
H413 C404 0.931 . S
H414 C405 0.930 . S
H415 C406 0.930 . S
H416 C428 0.930 . S
H417 C430 0.930 . S
H418 C431 0.930 . S
H419 C435 0.959 1_545 S
H420 C435 0.959 . S
H421 C435 0.961 . S
H422 C436 0.960 . S
H423 C436 0.961 . S
H424 C436 0.959 . S
H425 C439 0.929 . S
H426 C440 0.931 . S
H427 C442 0.930 . S
C428 H416 0.930 . S
C428 C429 1.391 1_565 S
C428 C433 1.399 . S
C429 C428 1.391 1_545 S
C429 C430 1.386 . S
C430 H417 0.930 . S
C430 C429 1.386 . S
C430 C431 1.388 . S
C431 H418 0.930 . S
C431 C430 1.388 . S
C431 C432 1.390 . S
C432 C431 1.390 . S
C432 C433 1.394 1_545 S
C432 C438 1.465 . S
C433 C428 1.399 . S
C433 C432 1.394 1_565 S
C433 C434 1.516 . S
C434 C433 1.516 . S
C434 C435 1.502 . S
C434 C436 1.561 . S
C434 C437 1.526 . S
C435 H419 0.959 1_565 S
C435 H420 0.959 . S
C435 H421 0.961 . S
C435 C434 1.502 . S
C436 H422 0.960 . S
C436 H423 0.961 . S
C436 H424 0.959 . S
C436 C434 1.561 . S
C437 C434 1.526 . S
C437 C438 1.396 1_565 S
C437 C442 1.390 . S
C438 C432 1.465 . S
C438 C437 1.396 1_545 S
C438 C439 1.399 . S
C439 H425 0.929 . S
C439 C438 1.399 . S
C439 C440 1.385 . S
C440 H426 0.931 . S
C440 C439 1.385 . S
C440 C441 1.389 . S
C441 C440 1.389 . S
C441 C442 1.387 1_545 S
C442 H427 0.930 . S
C442 C437 1.390 . S
C442 C441 1.387 1_565 S
H443 C455 0.930 . S
H444 C457 0.930 . S
H445 C458 0.930 . S
H446 C462 0.959 . S
H447 C462 0.959 . S
H448 C462 0.961 . S
H449 C463 0.960 . S
H450 C463 0.961 . S
H451 C463 0.959 . S
H452 C466 0.929 . S
H453 C467 0.931 . S
H454 C469 0.930 . S
C455 H443 0.930 . S
C455 C456 1.399 . S
C455 C460 1.399 . S
C456 C455 1.399 . S
C456 C457 1.376 . S
C457 H444 0.930 . S
C457 C456 1.376 . S
C457 C458 1.388 . S
C458 H445 0.930 . S
C458 C457 1.388 . S
C458 C459 1.390 . S
C459 C458 1.390 . S
C459 C460 1.394 . S
C459 C465 1.465 . S
C460 C455 1.399 . S
C460 C459 1.394 . S
C460 C461 1.516 . S
C461 C460 1.516 . S
C461 C462 1.502 . S
C461 C463 1.561 . S
C461 C464 1.526 . S
C462 H446 0.959 . S
C462 H447 0.959 . S
C462 H448 0.961 . S
C462 C461 1.502 . S
C463 H449 0.960 . S
C463 H450 0.961 . S
C463 H451 0.959 . S
C463 C461 1.561 . S
C464 C461 1.526 . S
C464 C465 1.396 . S
C464 C469 1.390 . S
C465 C459 1.465 . S
C465 C464 1.396 . S
C465 C466 1.399 . S
C466 H452 0.929 . S
C466 C465 1.399 . S
C466 C467 1.385 . S
C467 H453 0.931 . S
C467 C466 1.385 . S
C467 C468 1.389 . S
C468 C467 1.389 . S
C468 C469 1.387 . S
C469 H454 0.930 . S
C469 C464 1.390 . S
C469 C468 1.387 . S
H470 C482 0.930 . S
H471 C484 0.930 . S
H472 C485 0.930 . S
H473 C489 0.959 . S
H474 C489 0.959 . S
H475 C489 0.961 . S
H476 C490 0.960 . S
H477 C490 0.961 . S
H478 C490 0.959 . S
H479 C493 0.929 . S
H480 C494 0.931 . S
H481 C496 0.930 . S
C482 H470 0.930 . S
C482 C483 1.399 . S
C482 C487 1.399 . S
C483 C482 1.399 . S
C483 C484 1.376 . S
C484 H471 0.930 . S
C484 C483 1.376 . S
C484 C485 1.388 . S
C485 H472 0.930 . S
C485 C484 1.388 . S
C485 C486 1.390 . S
C486 C485 1.390 . S
C486 C487 1.394 . S
C486 C492 1.465 . S
C487 C482 1.399 . S
C487 C486 1.394 . S
C487 C488 1.516 . S
C488 C487 1.516 . S
C488 C489 1.502 . S
C488 C490 1.561 . S
C488 C491 1.526 . S
C489 H473 0.959 . S
C489 H474 0.959 . S
C489 H475 0.961 . S
C489 C488 1.502 . S
C490 H476 0.960 . S
C490 H477 0.961 . S
C490 H478 0.959 . S
C490 C488 1.561 . S
C491 C488 1.526 . S
C491 C492 1.396 . S
C491 C496 1.390 . S
C492 C486 1.465 . S
C492 C491 1.396 . S
C492 C493 1.399 . S
C493 H479 0.929 . S
C493 C492 1.399 . S
C493 C494 1.385 . S
C494 H480 0.931 . S
C494 C493 1.385 . S
C494 C495 1.389 . S
C495 C494 1.389 . S
C495 C496 1.387 . S
C496 H481 0.930 . S
C496 C491 1.390 . S
C496 C495 1.387 . S
H497 C509 0.930 . S
H498 C511 0.930 . S
H499 C512 0.930 . S
H500 C516 0.959 . S
H501 C516 0.959 . S
H502 C516 0.961 . S
H503 C517 0.960 . S
H504 C517 0.961 . S
H505 C517 0.959 . S
H506 C520 0.929 . S
H507 C521 0.931 . S
H508 C523 0.930 . S
C509 H497 0.930 . S
C509 C510 1.399 1_655 S
C509 C514 1.399 . S
C510 C509 1.399 1_455 S
C510 C511 1.376 . S
C511 H498 0.930 . S
C511 C510 1.376 . S
C511 C512 1.388 . S
C512 H499 0.930 . S
C512 C511 1.388 . S
C512 C513 1.390 . S
C513 C512 1.390 . S
C513 C514 1.394 1_455 S
C513 C519 1.465 . S
C514 C509 1.399 . S
C514 C513 1.394 1_655 S
C514 C515 1.516 . S
C515 C514 1.516 . S
C515 C516 1.502 . S
C515 C517 1.561 1_655 S
C515 C518 1.535 . S
C516 H500 0.959 . S
C516 H501 0.959 . S
C516 H502 0.961 . S
C516 C515 1.502 . S
C517 H503 0.960 . S
C517 H504 0.961 . S
C517 H505 0.959 . S
C517 C515 1.561 1_455 S
C518 C515 1.535 . S
C518 C519 1.382 1_655 S
C518 C523 1.395 . S
C519 C513 1.465 . S
C519 C518 1.382 1_455 S
C519 C520 1.399 . S
C520 H506 0.929 . S
C520 C519 1.399 . S
C520 C521 1.385 . S
C521 H507 0.931 . S
C521 C520 1.385 . S
C521 C522 1.389 . S
C522 C521 1.389 . S
C522 C523 1.387 1_455 S
C523 H508 0.930 . S
C523 C518 1.395 . S
C523 C522 1.387 1_655 S
H524 C536 0.930 . S
H525 C538 0.930 . S
H526 C539 0.930 . S
H527 C543 0.959 . S
H528 C543 0.959 . S
H529 C543 0.961 1_554 S
H530 C544 0.960 . S
H531 C544 0.961 . S
H532 C544 0.959 . S
H533 C547 0.929 . S
H534 C548 0.931 . S
H535 C550 0.930 . S
C536 H524 0.930 . S
C536 C537 1.399 1_545 S
C536 C541 1.399 . S
C537 C536 1.399 1_565 S
C537 C538 1.376 . S
C538 H525 0.930 . S
C538 C537 1.376 . S
C538 C539 1.388 . S
C539 H526 0.930 . S
C539 C538 1.388 . S
C539 C540 1.390 . S
C540 C539 1.390 . S
C540 C541 1.394 1_565 S
C540 C546 1.465 . S
C541 C536 1.399 . S
C541 C540 1.394 1_545 S
C541 C542 1.516 . S
C542 C541 1.516 . S
C542 C543 1.502 1_554 S
C542 C544 1.561 . S
C542 C545 1.526 1_554 S
C543 H527 0.959 . S
C543 H528 0.959 . S
C543 H529 0.961 1_556 S
C543 C542 1.502 1_556 S
C544 H530 0.960 . S
C544 H531 0.961 . S
C544 H532 0.959 . S
C544 C542 1.561 . S
C545 C542 1.526 1_556 S
C545 C546 1.396 1_546 S
C545 C550 1.390 . S
C546 C540 1.465 . S
C546 C545 1.396 1_564 S
C546 C547 1.399 . S
C547 H533 0.929 . S
C547 C546 1.399 . S
C547 C548 1.385 1_554 S
C548 H534 0.931 . S
C548 C547 1.385 1_556 S
C548 C549 1.389 . S
C549 C548 1.389 . S
C549 C550 1.387 1_565 S
C550 H535 0.930 . S
C550 C545 1.390 . S
C550 C549 1.387 1_545 S
H551 C563 0.930 . S
H552 C565 0.930 . S
H553 C566 0.930 . S
H554 C570 0.959 . S
H555 C570 0.959 . S
H556 C570 0.961 . S
H557 C571 0.960 . S
H558 C571 0.961 . S
H559 C571 0.959 . S
H560 C574 0.929 . S
H561 C575 0.931 . S
H562 C577 0.930 . S
C563 H551 0.930 . S
C563 C564 1.399 . S
C563 C568 1.399 . S
C564 C563 1.399 . S
C564 C565 1.376 . S
C565 H552 0.930 . S
C565 C564 1.376 . S
C565 C566 1.388 . S
C566 H553 0.930 . S
C566 C565 1.388 . S
C566 C567 1.390 . S
C567 C566 1.390 . S
C567 C568 1.394 . S
C567 C573 1.465 . S
C568 C563 1.399 . S
C568 C567 1.394 . S
C568 C569 1.516 . S
C569 C568 1.516 . S
C569 C570 1.502 . S
C569 C571 1.561 . S
C569 C572 1.526 . S
C570 H554 0.959 . S
C570 H555 0.959 . S
C570 H556 0.961 . S
C570 C569 1.502 . S
C571 H557 0.960 . S
C571 H558 0.961 . S
C571 H559 0.959 . S
C571 C569 1.561 . S
C572 C569 1.526 . S
C572 C573 1.396 . S
C572 C577 1.390 1_554 S
C573 C567 1.465 . S
C573 C572 1.396 . S
C573 C574 1.399 1_554 S
C574 H560 0.929 . S
C574 C573 1.399 1_556 S
C574 C575 1.385 . S
C575 H561 0.931 . S
C575 C574 1.385 . S
C575 C576 1.389 . S
C576 C575 1.389 . S
C576 C577 1.387 . S
C577 H562 0.930 . S
C577 C572 1.390 1_556 S
C577 C576 1.387 . S
H578 C590 0.930 . S
H579 C592 0.930 . S
H580 C593 0.930 . S
H581 C597 0.959 . S
H582 C597 0.959 . S
H583 C597 0.961 . S
H584 C598 0.960 . S
H585 C598 0.961 . S
H586 C598 0.959 . S
H587 C601 0.929 . S
H588 C602 0.931 . S
H589 C604 0.930 . S
C590 H578 0.930 . S
C590 C591 1.399 . S
C590 C595 1.399 . S
C591 C590 1.399 . S
C591 C592 1.376 . S
C592 H579 0.930 . S
C592 C591 1.376 . S
C592 C593 1.388 . S
C593 H580 0.930 . S
C593 C592 1.388 . S
C593 C594 1.390 . S
C594 C593 1.390 . S
C594 C595 1.394 . S
C594 C600 1.465 . S
C595 C590 1.399 . S
C595 C594 1.394 . S
C595 C596 1.516 . S
C596 C595 1.516 . S
C596 C597 1.502 . S
C596 C598 1.561 . S
C596 C599 1.526 . S
C597 H581 0.959 . S
C597 H582 0.959 . S
C597 H583 0.961 . S
C597 C596 1.502 . S
C598 H584 0.960 . S
C598 H585 0.961 . S
C598 H586 0.959 . S
C598 C596 1.561 . S
C599 C596 1.526 . S
C599 C600 1.396 . S
C599 C604 1.390 1_554 S
C600 C594 1.465 . S
C600 C599 1.396 . S
C600 C601 1.399 1_554 S
C601 H587 0.929 . S
C601 C600 1.399 1_556 S
C601 C602 1.385 . S
C602 H588 0.931 . S
C602 C601 1.385 . S
C602 C603 1.389 . S
C603 C602 1.389 . S
C603 C604 1.387 . S
C604 H589 0.930 . S
C604 C599 1.390 1_556 S
C604 C603 1.387 . S
H605 C617 0.930 . S
H606 C619 0.930 . S
H607 C620 0.930 . S
H608 C624 0.959 . S
H609 C624 0.959 . S
H610 C624 0.961 . S
H611 C625 0.960 . S
H612 C625 0.961 . S
H613 C625 0.959 . S
H614 C628 0.929 . S
H615 C629 0.931 . S
H616 C631 0.930 . S
C617 H605 0.930 . S
C617 C618 1.399 1_655 S
C617 C622 1.399 . S
C618 C617 1.399 1_455 S
C618 C619 1.376 . S
C619 H606 0.930 . S
C619 C618 1.376 . S
C619 C620 1.388 . S
C620 H607 0.930 . S
C620 C619 1.388 . S
C620 C621 1.390 . S
C621 C620 1.390 . S
C621 C622 1.394 1_455 S
C621 C627 1.465 . S
C622 C617 1.399 . S
C622 C621 1.394 1_655 S
C622 C623 1.516 . S
C623 C622 1.516 . S
C623 C624 1.502 . S
C623 C625 1.561 . S
C623 C626 1.526 . S
C624 H608 0.959 . S
C624 H609 0.959 . S
C624 H610 0.961 . S
C624 C623 1.502 . S
C625 H611 0.960 . S
C625 H612 0.961 . S
C625 H613 0.959 . S
C625 C623 1.561 . S
C626 C623 1.526 . S
C626 C627 1.396 1_655 S
C626 C631 1.390 1_554 S
C627 C621 1.465 . S
C627 C626 1.396 1_455 S
C627 C628 1.399 1_554 S
C628 H614 0.929 . S
C628 C627 1.399 1_556 S
C628 C629 1.385 . S
C629 H615 0.931 . S
C629 C628 1.385 . S
C629 C630 1.428 . S
C630 C629 1.428 . S
C630 C631 1.356 1_455 S
C631 H616 0.930 . S
C631 C626 1.390 1_556 S
C631 C630 1.356 1_655 S
H632 C644 0.930 . S
H633 C646 0.930 . S
H634 C647 0.930 . S
H635 C651 0.959 . S
H636 C651 0.959 . S
H637 C651 0.961 . S
H638 C652 0.960 . S
H639 C652 0.961 . S
H640 C652 0.959 . S
H641 C655 0.929 1_455 S
H642 C656 0.931 . S
H643 C658 0.930 . S
C644 H632 0.930 . S
C644 C645 1.399 1_655 S
C644 C649 1.399 . S
C645 C644 1.399 1_455 S
C645 C646 1.376 . S
C646 H633 0.930 . S
C646 C645 1.376 . S
C646 C647 1.388 . S
C647 H634 0.930 . S
C647 C646 1.388 . S
C647 C648 1.390 1_455 S
C648 C647 1.390 1_655 S
C648 C649 1.394 . S
C648 C654 1.465 . S
C649 C644 1.399 . S
C649 C648 1.394 . S
C649 C650 1.516 . S
C650 C649 1.516 . S
C650 C651 1.502 . S
C650 C652 1.561 . S
C650 C653 1.526 . S
C651 H635 0.959 . S
C651 H636 0.959 . S
C651 H637 0.961 . S
C651 C650 1.502 . S
C652 H638 0.960 . S
C652 H639 0.961 . S
C652 H640 0.959 . S
C652 C650 1.561 . S
C653 C650 1.526 . S
C653 C654 1.396 . S
C653 C658 1.390 . S
C654 C648 1.465 . S
C654 C653 1.396 . S
C654 C655 1.399 . S
C655 H641 0.929 1_655 S
C655 C654 1.399 . S
C655 C656 1.385 . S
C656 H642 0.931 . S
C656 C655 1.385 . S
C656 C657 1.389 . S
C657 C656 1.389 . S
C657 C658 1.387 . S
C658 H643 0.930 . S
C658 C653 1.390 . S
C658 C657 1.387 . S
H659 C671 0.930 . S
H660 C673 0.930 . S
H661 C674 0.930 . S
H662 C678 0.959 . S
H663 C678 0.959 . S
H664 C678 0.961 . S
H665 C679 0.960 . S
H666 C679 0.961 . S
H667 C679 0.959 . S
H668 C682 0.929 . S
H669 C683 0.931 1_545 S
H670 C685 0.930 . S
C671 H659 0.930 . S
C671 C672 1.399 1_565 S
C671 C676 1.399 . S
C672 C671 1.399 1_545 S
C672 C673 1.376 . S
C673 H660 0.930 . S
C673 C672 1.376 . S
C673 C674 1.388 . S
C674 H661 0.930 . S
C674 C673 1.388 . S
C674 C675 1.390 . S
C675 C674 1.390 . S
C675 C676 1.394 1_545 S
C675 C681 1.465 1_545 S
C676 C671 1.399 . S
C676 C675 1.394 1_565 S
C676 C677 1.516 . S
C677 C676 1.516 . S
C677 C678 1.502 . S
C677 C679 1.561 . S
C677 C680 1.526 . S
C678 H662 0.959 . S
C678 H663 0.959 . S
C678 H664 0.961 . S
C678 C677 1.502 . S
C679 H665 0.960 . S
C679 H666 0.961 . S
C679 H667 0.959 . S
C679 C677 1.561 . S
C680 C677 1.526 . S
C680 C681 1.396 . S
C680 C685 1.390 . S
C681 C675 1.465 1_565 S
C681 C680 1.396 . S
C681 C682 1.399 1_565 S
C682 H668 0.929 . S
C682 C681 1.399 1_545 S
C682 C683 1.385 1_545 S
C683 H669 0.931 1_565 S
C683 C682 1.385 1_565 S
C683 C684 1.389 . S
C684 C683 1.389 . S
C684 C685 1.387 . S
C685 H670 0.930 . S
C685 C680 1.390 . S
C685 C684 1.387 . S
H686 C698 0.930 . S
H687 C700 0.930 . S
H688 C701 0.930 . S
H689 C705 0.959 . S
H690 C705 0.959 . S
H691 C705 0.961 . S
H692 C706 0.960 . S
H693 C706 0.961 . S
H694 C706 0.959 . S
H695 C709 0.929 . S
H696 C710 0.931 . S
H697 C712 0.930 . S
C698 H686 0.930 . S
C698 C699 1.399 . S
C698 C703 1.399 . S
C699 C698 1.399 . S
C699 C700 1.376 . S
C700 H687 0.930 . S
C700 C699 1.376 . S
C700 C701 1.388 . S
C701 H688 0.930 . S
C701 C700 1.388 . S
C701 C702 1.390 . S
C702 C701 1.390 . S
C702 C703 1.394 . S
C702 C708 1.465 . S
C703 C698 1.399 . S
C703 C702 1.394 . S
C703 C704 1.516 . S
C704 C703 1.516 . S
C704 C705 1.502 . S
C704 C706 1.561 . S
C704 C707 1.526 . S
C705 H689 0.959 . S
C705 H690 0.959 . S
C705 H691 0.961 . S
C705 C704 1.502 . S
C706 H692 0.960 . S
C706 H693 0.961 . S
C706 H694 0.959 . S
C706 C704 1.561 . S
C707 C704 1.526 . S
C707 C708 1.396 . S
C707 C712 1.390 . S
C708 C702 1.465 . S
C708 C707 1.396 . S
C708 C709 1.399 . S
C709 H695 0.929 . S
C709 C708 1.399 . S
C709 C710 1.385 . S
C710 H696 0.931 . S
C710 C709 1.385 . S
C710 C711 1.389 . S
C711 C710 1.389 . S
C711 C712 1.387 . S
C712 H697 0.930 . S
C712 C707 1.390 . S
C712 C711 1.387 . S
H713 C725 0.930 . S
H714 C727 0.930 . S
H715 C728 0.930 . S
H716 C732 0.959 . S
H717 C732 0.959 . S
H718 C732 0.961 . S
H719 C733 0.960 . S
H720 C733 0.961 . S
H721 C733 0.959 . S
H722 C736 0.929 . S
H723 C737 0.931 . S
H724 C739 0.930 . S
C725 H713 0.930 . S
C725 C726 1.399 . S
C725 C730 1.399 . S
C726 C725 1.399 . S
C726 C727 1.376 . S
C727 H714 0.930 . S
C727 C726 1.376 . S
C727 C728 1.388 . S
C728 H715 0.930 . S
C728 C727 1.388 . S
C728 C729 1.390 . S
C729 C728 1.390 . S
C729 C730 1.394 . S
C729 C735 1.465 . S
C730 C725 1.399 . S
C730 C729 1.394 . S
C730 C731 1.516 . S
C731 C730 1.516 . S
C731 C732 1.502 . S
C731 C733 1.561 . S
C731 C734 1.526 . S
C732 H716 0.959 . S
C732 H717 0.959 . S
C732 H718 0.961 . S
C732 C731 1.502 . S
C733 H719 0.960 . S
C733 H720 0.961 . S
C733 H721 0.959 . S
C733 C731 1.561 . S
C734 C731 1.526 . S
C734 C735 1.396 . S
C734 C739 1.390 . S
C735 C729 1.465 . S
C735 C734 1.396 . S
C735 C736 1.399 . S
C736 H722 0.929 . S
C736 C735 1.399 . S
C736 C737 1.385 . S
C737 H723 0.931 . S
C737 C736 1.385 . S
C737 C738 1.389 . S
C738 C737 1.389 . S
C738 C739 1.387 . S
C739 H724 0.930 . S
C739 C734 1.390 . S
C739 C738 1.387 . S
H740 C752 0.930 . S
H741 C754 0.930 . S
H742 C755 0.930 . S
H743 C759 0.959 . S
H744 C759 0.959 . S
H745 C759 0.961 . S
H746 C760 0.960 . S
H747 C760 0.961 . S
H748 C760 0.959 1_554 S
H749 C763 0.929 . S
H750 C764 0.931 . S
H751 C766 0.930 . S
C752 H740 0.930 . S
C752 C753 1.399 . S
C752 C757 1.399 1_655 S
C753 C752 1.399 . S
C753 C754 1.376 1_655 S
C754 H741 0.930 . S
C754 C753 1.376 1_455 S
C754 C755 1.388 . S
C755 H742 0.930 . S
C755 C754 1.388 . S
C755 C756 1.390 . S
C756 C755 1.390 . S
C756 C757 1.394 . S
C756 C762 1.465 . S
C757 C752 1.399 1_455 S
C757 C756 1.394 . S
C757 C758 1.516 . S
C758 C757 1.516 . S
C758 C759 1.502 1_554 S
C758 C760 1.561 1_454 S
C758 C761 1.526 . S
C759 H743 0.959 . S
C759 H744 0.959 . S
C759 H745 0.961 . S
C759 C758 1.502 1_556 S
C760 H746 0.960 . S
C760 H747 0.961 . S
C760 H748 0.959 1_556 S
C760 C758 1.561 1_656 S
C761 C758 1.526 . S
C761 C762 1.396 . S
C761 C766 1.390 1_554 S
C762 C756 1.465 . S
C762 C761 1.396 . S
C762 C763 1.399 . S
C763 H749 0.929 . S
C763 C762 1.399 . S
C763 C764 1.385 . S
C764 H750 0.931 . S
C764 C763 1.385 . S
C764 C765 1.389 1_554 S
C765 C764 1.389 1_556 S
C765 C766 1.387 . S
C766 H751 0.930 . S
C766 C761 1.390 1_556 S
C766 C765 1.387 . S
H767 C779 0.930 . S
H768 C781 0.930 . S
H769 C782 0.930 . S
H770 C786 0.959 . S
H771 C786 0.959 . S
H772 C786 0.961 . S
H773 C787 0.960 . S
H774 C787 0.961 . S
H775 C787 0.959 1_554 S
H776 C790 0.929 . S
H777 C791 0.931 . S
H778 C793 0.930 . S
C779 H767 0.930 . S
C779 C780 1.399 . S
C779 C784 1.399 1_565 S
C780 C779 1.399 . S
C780 C781 1.376 1_565 S
C781 H768 0.930 . S
C781 C780 1.376 1_545 S
C781 C782 1.388 . S
C782 H769 0.930 . S
C782 C781 1.388 . S
C782 C783 1.390 . S
C783 C782 1.390 . S
C783 C784 1.394 . S
C783 C789 1.465 . S
C784 C779 1.399 1_545 S
C784 C783 1.394 . S
C784 C785 1.516 . S
C785 C784 1.516 . S
C785 C786 1.502 1_554 S
C785 C787 1.561 1_544 S
C785 C788 1.526 . S
C786 H770 0.959 . S
C786 H771 0.959 . S
C786 H772 0.961 . S
C786 C785 1.502 1_556 S
C787 H773 0.960 . S
C787 H774 0.961 . S
C787 H775 0.959 1_556 S
C787 C785 1.561 1_566 S
C788 C785 1.526 . S
C788 C789 1.396 . S
C788 C793 1.390 1_554 S
C789 C783 1.465 . S
C789 C788 1.396 . S
C789 C790 1.399 . S
C790 H776 0.929 . S
C790 C789 1.399 . S
C790 C791 1.385 . S
C791 H777 0.931 . S
C791 C790 1.385 . S
C791 C792 1.389 1_554 S
C792 C791 1.389 1_556 S
C792 C793 1.387 . S
C793 H778 0.930 . S
C793 C788 1.390 1_556 S
C793 C792 1.387 . S
H794 C806 0.930 . S
H795 C808 0.930 . S
H796 C809 0.930 . S
H797 C813 0.959 . S
H798 C813 0.959 . S
H799 C813 0.961 . S
H800 C814 0.960 . S
H801 C814 0.961 . S
H802 C814 0.959 . S
H803 C817 0.929 1_556 S
H804 C818 0.931 . S
H805 C820 0.930 . S
C806 H794 0.930 . S
C806 C807 1.399 . S
C806 C811 1.399 . S
C807 C806 1.399 . S
C807 C808 1.376 . S
C808 H795 0.930 . S
C808 C807 1.376 . S
C808 C809 1.388 . S
C809 H796 0.930 . S
C809 C808 1.388 . S
C809 C810 1.390 . S
C810 C809 1.390 . S
C810 C811 1.394 . S
C810 C816 1.465 . S
C811 C806 1.399 . S
C811 C810 1.394 . S
C811 C812 1.516 . S
C812 C811 1.516 . S
C812 C813 1.502 . S
C812 C814 1.561 . S
C812 C815 1.526 . S
C813 H797 0.959 . S
C813 H798 0.959 . S
C813 H799 0.961 . S
C813 C812 1.502 . S
C814 H800 0.960 . S
C814 H801 0.961 . S
C814 H802 0.959 . S
C814 C812 1.561 . S
C815 C812 1.526 . S
C815 C816 1.396 . S
C815 C820 1.390 . S
C816 C810 1.465 . S
C816 C815 1.396 . S
C816 C817 1.399 . S
C817 H803 0.929 1_554 S
C817 C816 1.399 . S
C817 C818 1.385 1_554 S
C818 H804 0.931 . S
C818 C817 1.385 1_556 S
C818 C819 1.389 . S
C819 C818 1.389 . S
C819 C820 1.387 1_556 S
C820 H805 0.930 . S
C820 C815 1.390 . S
C820 C819 1.387 1_554 S
H821 C833 0.930 . S
H822 C835 0.930 . S
H823 C836 0.930 . S
H824 C840 0.959 . S
H825 C840 0.959 . S
H826 C840 0.961 . S
H827 C841 0.960 . S
H828 C841 0.961 . S
H829 C841 0.959 . S
H830 C844 0.929 . S
H831 C845 0.931 . S
H832 C847 0.930 . S
C833 H821 0.930 . S
C833 C834 1.399 . S
C833 C838 1.399 . S
C834 C833 1.399 . S
C834 C835 1.376 . S
C835 H822 0.930 . S
C835 C834 1.376 . S
C835 C836 1.388 . S
C836 H823 0.930 . S
C836 C835 1.388 . S
C836 C837 1.390 . S
C837 C836 1.390 . S
C837 C838 1.394 . S
C837 C843 1.465 . S
C838 C833 1.399 . S
C838 C837 1.394 . S
C838 C839 1.516 . S
C839 C838 1.516 . S
C839 C840 1.502 . S
C839 C841 1.561 . S
C839 C842 1.526 . S
C840 H824 0.959 . S
C840 H825 0.959 . S
C840 H826 0.961 . S
C840 C839 1.502 . S
C841 H827 0.960 . S
C841 H828 0.961 . S
C841 H829 0.959 . S
C841 C839 1.561 . S
C842 C839 1.526 . S
C842 C843 1.396 . S
C842 C847 1.390 . S
C843 C837 1.465 . S
C843 C842 1.396 . S
C843 C844 1.399 1_554 S
C844 H830 0.929 . S
C844 C843 1.399 1_556 S
C844 C845 1.385 . S
C845 H831 0.931 . S
C845 C844 1.385 . S
C845 C846 1.389 . S
C846 C845 1.389 . S
C846 C847 1.387 1_556 S
C847 H832 0.930 . S
C847 C842 1.390 . S
C847 C846 1.387 1_554 S
H848 C860 0.930 . S
H849 C862 0.930 . S
H850 C863 0.930 . S
H851 C867 0.959 . S
H852 C867 0.959 . S
H853 C867 0.961 . S
H854 C868 0.960 . S
H855 C868 0.961 . S
H856 C868 0.959 . S
H857 C871 0.929 . S
H858 C872 0.931 . S
H859 C874 0.930 . S
C860 H848 0.930 . S
C860 C861 1.399 . S
C860 C865 1.399 . S
C861 C860 1.399 . S
C861 C862 1.376 . S
C862 H849 0.930 . S
C862 C861 1.376 . S
C862 C863 1.388 . S
C863 H850 0.930 . S
C863 C862 1.388 . S
C863 C864 1.390 . S
C864 C863 1.390 . S
C864 C865 1.394 . S
C864 C870 1.465 . S
C865 C860 1.399 . S
C865 C864 1.394 . S
C865 C866 1.516 . S
C866 C865 1.516 . S
C866 C867 1.502 1_455 S
C866 C868 1.561 . S
C866 C869 1.526 . S
C867 H851 0.959 . S
C867 H852 0.959 . S
C867 H853 0.961 . S
C867 C866 1.502 1_655 S
C868 H854 0.960 . S
C868 H855 0.961 . S
C868 H856 0.959 . S
C868 C866 1.561 . S
C869 C866 1.526 . S
C869 C870 1.396 . S
C869 C874 1.390 . S
C870 C864 1.465 . S
C870 C869 1.396 . S
C870 C871 1.399 . S
C871 H857 0.929 . S
C871 C870 1.399 . S
C871 C872 1.385 . S
C872 H858 0.931 . S
C872 C871 1.385 . S
C872 C873 1.389 . S
C873 C872 1.389 . S
C873 C874 1.387 . S
C874 H859 0.930 . S
C874 C869 1.390 . S
C874 C873 1.387 . S
H875 C887 0.930 . S
H876 C889 0.930 . S
H877 C890 0.930 . S
H878 C894 0.959 . S
H879 C894 0.959 . S
H880 C894 0.961 . S
H881 C895 0.960 . S
H882 C895 0.961 . S
H883 C895 0.959 . S
H884 C898 0.929 . S
H885 C899 0.931 . S
H886 C901 0.930 . S
C887 H875 0.930 . S
C887 C888 1.399 1_565 S
C887 C892 1.399 . S
C888 C887 1.399 1_545 S
C888 C889 1.376 . S
C889 H876 0.930 . S
C889 C888 1.376 . S
C889 C890 1.388 . S
C890 H877 0.930 . S
C890 C889 1.388 . S
C890 C891 1.390 . S
C891 C890 1.390 . S
C891 C892 1.394 1_545 S
C891 C897 1.465 . S
C892 C887 1.399 . S
C892 C891 1.394 1_565 S
C892 C893 1.516 . S
C893 C892 1.516 . S
C893 C894 1.502 . S
C893 C895 1.561 . S
C893 C896 1.526 . S
C894 H878 0.959 . S
C894 H879 0.959 . S
C894 H880 0.961 . S
C894 C893 1.502 . S
C895 H881 0.960 . S
C895 H882 0.961 . S
C895 H883 0.959 . S
C895 C893 1.561 . S
C896 C893 1.526 . S
C896 C897 1.396 1_565 S
C896 C901 1.390 . S
C897 C891 1.465 . S
C897 C896 1.396 1_545 S
C897 C898 1.399 . S
C898 H884 0.929 . S
C898 C897 1.399 . S
C898 C899 1.385 . S
C899 H885 0.931 . S
C899 C898 1.385 . S
C899 C900 1.389 . S
C900 C899 1.389 . S
C900 C901 1.387 1_545 S
C901 H886 0.930 . S
C901 C896 1.390 . S
C901 C900 1.387 1_565 S
H902 C914 0.930 . S
H903 C916 0.930 . S
H904 C917 0.930 . S
H905 C921 0.959 . S
H906 C921 0.959 . S
H907 C921 0.961 . S
H908 C922 0.960 . S
H909 C922 0.961 . S
H910 C922 0.959 . S
H911 C925 0.929 . S
H912 C926 0.931 . S
H913 C928 0.930 . S
C914 H902 0.930 . S
C914 C915 1.399 . S
C914 C919 1.399 . S
C915 C914 1.399 . S
C915 C916 1.376 . S
C916 H903 0.930 . S
C916 C915 1.376 . S
C916 C917 1.388 . S
C917 H904 0.930 . S
C917 C916 1.388 . S
C917 C918 1.390 . S
C918 C917 1.390 . S
C918 C919 1.394 . S
C918 C924 1.465 . S
C919 C914 1.399 . S
C919 C918 1.394 . S
C919 C920 1.516 . S
C920 C919 1.516 . S
C920 C921 1.502 . S
C920 C922 1.561 . S
C920 C923 1.526 . S
C921 H905 0.959 . S
C921 H906 0.959 . S
C921 H907 0.961 . S
C921 C920 1.502 . S
C922 H908 0.960 . S
C922 H909 0.961 . S
C922 H910 0.959 . S
C922 C920 1.561 . S
C923 C920 1.526 . S
C923 C924 1.396 . S
C923 C928 1.390 . S
C924 C918 1.465 . S
C924 C923 1.396 . S
C924 C925 1.399 . S
C925 H911 0.929 . S
C925 C924 1.399 . S
C925 C926 1.385 . S
C926 H912 0.931 . S
C926 C925 1.385 . S
C926 C927 1.389 . S
C927 C926 1.389 . S
C927 C928 1.387 . S
C928 H913 0.930 . S
C928 C923 1.390 . S
C928 C927 1.387 . S
H929 C941 0.930 . S
H930 C943 0.930 . S
H931 C944 0.930 . S
H932 C948 0.959 . S
H933 C948 0.959 . S
H934 C948 0.961 . S
H935 C949 0.960 . S
H936 C949 0.961 . S
H937 C949 0.959 . S
H938 C952 0.929 . S
H939 C953 0.931 . S
H940 C955 0.930 . S
C941 H929 0.930 . S
C941 C942 1.399 . S
C941 C946 1.399 . S
C942 C941 1.399 . S
C942 C943 1.376 . S
C943 H930 0.930 . S
C943 C942 1.376 . S
C943 C944 1.388 . S
C944 H931 0.930 . S
C944 C943 1.388 . S
C944 C945 1.390 . S
C945 C944 1.390 . S
C945 C946 1.394 . S
C945 C951 1.465 . S
C946 C941 1.399 . S
C946 C945 1.394 . S
C946 C947 1.516 . S
C947 C946 1.516 . S
C947 C948 1.502 . S
C947 C949 1.561 . S
C947 C950 1.526 . S
C948 H932 0.959 . S
C948 H933 0.959 . S
C948 H934 0.961 . S
C948 C947 1.502 . S
C949 H935 0.960 . S
C949 H936 0.961 . S
C949 H937 0.959 . S
C949 C947 1.561 . S
C950 C947 1.526 . S
C950 C951 1.396 . S
C950 C955 1.390 . S
C951 C945 1.465 . S
C951 C950 1.396 . S
C951 C952 1.399 . S
C952 H938 0.929 . S
C952 C951 1.399 . S
C952 C953 1.385 . S
C953 H939 0.931 . S
C953 C952 1.385 . S
C953 C954 1.389 . S
C954 C953 1.389 . S
C954 C955 1.387 . S
C955 H940 0.930 . S
C955 C950 1.390 . S
C955 C954 1.387 . S
H956 C968 0.930 . S
H957 C970 0.930 . S
H958 C971 0.930 . S
H959 C975 0.959 . S
H960 C975 0.959 . S
H961 C975 0.961 . S
H962 C976 0.960 . S
H963 C976 0.961 . S
H964 C976 0.959 1_455 S
H965 C979 0.929 . S
H966 C980 0.931 . S
H967 C982 0.930 . S
C968 H956 0.930 . S
C968 C969 1.400 1_655 S
C968 C973 1.399 . S
C969 C968 1.400 1_455 S
C969 C970 1.375 . S
C970 H957 0.930 . S
C970 C969 1.375 . S
C970 C971 1.388 . S
C971 H958 0.930 . S
C971 C970 1.388 . S
C971 C972 1.390 . S
C972 C971 1.390 . S
C972 C973 1.394 1_455 S
C972 C978 1.465 . S
C973 C968 1.399 . S
C973 C972 1.394 1_655 S
C973 C974 1.516 . S
C974 C973 1.516 . S
C974 C975 1.502 . S
C974 C976 1.561 . S
C974 C977 1.526 . S
C975 H959 0.959 . S
C975 H960 0.959 . S
C975 H961 0.961 . S
C975 C974 1.502 . S
C976 H962 0.960 . S
C976 H963 0.961 . S
C976 H964 0.959 1_655 S
C976 C974 1.561 . S
C977 C974 1.526 . S
C977 C978 1.396 1_655 S
C977 C982 1.390 . S
C978 C972 1.465 . S
C978 C977 1.396 1_455 S
C978 C979 1.399 . S
C979 H965 0.929 . S
C979 C978 1.399 . S
C979 C980 1.385 . S
C980 H966 0.931 . S
C980 C979 1.385 . S
C980 C981 1.389 1_455 S
C981 C980 1.389 1_655 S
C981 C982 1.387 . S
C982 H967 0.930 . S
C982 C977 1.390 . S
C982 C981 1.387 . S
H983 C995 0.930 . S
H984 C997 0.930 . S
H985 C998 0.930 . S
H986 C1002 0.959 . S
H987 C1002 0.959 . S
H988 C1002 0.961 . S
H989 C1003 0.960 . S
H990 C1003 0.961 . S
H991 C1003 0.959 . S
H992 C1006 0.929 . S
H993 C1007 0.931 . S
H994 C1009 0.930 . S
C995 H983 0.930 . S
C995 C996 1.399 1_545 S
C995 C1000 1.399 . S
C996 C995 1.399 1_565 S
C996 C997 1.376 . S
C997 H984 0.930 . S
C997 C996 1.376 . S
C997 C998 1.388 . S
C998 H985 0.930 . S
C998 C997 1.388 . S
C998 C999 1.390 . S
C999 C998 1.390 . S
C999 C1000 1.394 1_565 S
C999 C1005 1.465 . S
C1000 C995 1.399 . S
C1000 C999 1.394 1_545 S
C1000 C1001 1.516 . S
C1001 C1000 1.516 . S
C1001 C1002 1.502 . S
C1001 C1003 1.561 . S
C1001 C1004 1.526 . S
C1002 H986 0.959 . S
C1002 H987 0.959 . S
C1002 H988 0.961 . S
C1002 C1001 1.502 . S
C1003 H989 0.960 . S
C1003 H990 0.961 . S
C1003 H991 0.959 . S
C1003 C1001 1.561 . S
C1004 C1001 1.526 . S
C1004 C1005 1.396 1_545 S
C1004 C1009 1.390 . S
C1005 C999 1.465 . S
C1005 C1004 1.396 1_565 S
C1005 C1006 1.399 . S
C1006 H992 0.929 . S
C1006 C1005 1.399 . S
C1006 C1007 1.385 . S
C1007 H993 0.931 . S
C1007 C1006 1.385 . S
C1007 C1008 1.389 . S
C1008 C1007 1.389 . S
C1008 C1009 1.387 1_565 S
C1009 H994 0.930 . S
C1009 C1004 1.390 . S
C1009 C1008 1.387 1_545 S
H1010 C1022 0.930 . S
H1011 C1024 0.930 . S
H1012 C1025 0.930 . S
H1013 C1029 0.959 . S
H1014 C1029 0.959 . S
H1015 C1029 0.961 . S
H1016 C1030 0.960 . S
H1017 C1030 0.961 . S
H1018 C1030 0.959 . S
H1019 C1033 0.929 . S
H1020 C1034 0.931 . S
H1021 C1036 0.930 . S
C1022 H1010 0.930 . S
C1022 C1023 1.399 . S
C1022 C1027 1.399 . S
C1023 C1022 1.399 . S
C1023 C1024 1.376 . S
C1024 H1011 0.930 . S
C1024 C1023 1.376 . S
C1024 C1025 1.388 . S
C1025 H1012 0.930 . S
C1025 C1024 1.388 . S
C1025 C1026 1.390 . S
C1026 C1025 1.390 . S
C1026 C1027 1.394 . S
C1026 C1032 1.465 . S
C1027 C1022 1.399 . S
C1027 C1026 1.394 . S
C1027 C1028 1.516 . S
C1028 C1027 1.516 . S
C1028 C1029 1.502 . S
C1028 C1030 1.561 . S
C1028 C1031 1.526 . S
C1029 H1013 0.959 . S
C1029 H1014 0.959 . S
C1029 H1015 0.961 . S
C1029 C1028 1.502 . S
C1030 H1016 0.960 . S
C1030 H1017 0.961 . S
C1030 H1018 0.959 . S
C1030 C1028 1.561 . S
C1031 C1028 1.526 . S
C1031 C1032 1.396 . S
C1031 C1036 1.390 . S
C1032 C1026 1.465 . S
C1032 C1031 1.396 . S
C1032 C1033 1.399 . S
C1033 H1019 0.929 . S
C1033 C1032 1.399 . S
C1033 C1034 1.385 . S
C1034 H1020 0.931 . S
C1034 C1033 1.385 . S
C1034 C1035 1.389 . S
C1035 C1034 1.389 . S
C1035 C1036 1.387 . S
C1036 H1021 0.930 . S
C1036 C1031 1.390 . S
C1036 C1035 1.387 . S
H1037 C1049 0.930 . S
H1038 C1051 0.930 . S
H1039 C1052 0.930 . S
H1040 C1056 0.959 . S
H1041 C1056 0.959 . S
H1042 C1056 0.961 . S
H1043 C1057 0.960 . S
H1044 C1057 0.961 . S
H1045 C1057 0.959 . S
H1046 C1060 0.929 . S
H1047 C1061 0.931 . S
H1048 C1063 0.930 . S
C1049 H1037 0.930 . S
C1049 C1050 1.399 . S
C1049 C1054 1.399 . S
C1050 C1049 1.399 . S
C1050 C1051 1.376 . S
C1051 H1038 0.930 . S
C1051 C1050 1.376 . S
C1051 C1052 1.388 . S
C1052 H1039 0.930 . S
C1052 C1051 1.388 . S
C1052 C1053 1.390 . S
C1053 C1052 1.390 . S
C1053 C1054 1.394 . S
C1053 C1059 1.465 . S
C1054 C1049 1.399 . S
C1054 C1053 1.394 . S
C1054 C1055 1.516 . S
C1055 C1054 1.516 . S
C1055 C1056 1.502 . S
C1055 C1057 1.561 . S
C1055 C1058 1.526 . S
C1056 H1040 0.959 . S
C1056 H1041 0.959 . S
C1056 H1042 0.961 . S
C1056 C1055 1.502 . S
C1057 H1043 0.960 . S
C1057 H1044 0.961 . S
C1057 H1045 0.959 . S
C1057 C1055 1.561 . S
C1058 C1055 1.526 . S
C1058 C1059 1.396 . S
C1058 C1063 1.390 . S
C1059 C1053 1.465 . S
C1059 C1058 1.396 . S
C1059 C1060 1.399 . S
C1060 H1046 0.929 . S
C1060 C1059 1.399 . S
C1060 C1061 1.385 . S
C1061 H1047 0.931 . S
C1061 C1060 1.385 . S
C1061 C1062 1.389 . S
C1062 C1061 1.389 . S
C1062 C1063 1.387 . S
C1063 H1048 0.930 . S
C1063 C1058 1.390 . S
C1063 C1062 1.387 . S
C429 C215 1.984 . S
C441 C258 2.196 1_545 S
C468 C298 2.208 . S
C456 C247 2.008 . S
C495 C338 2.195 . S
C483 C151 2.072 . S
C522 C378 2.193 1_455 S
C510 C183 2.038 . S
C549 C271 2.191 1_565 S
C537 C87 2.064 1_565 S
C564 C119 2.044 . S
C576 C311 2.217 . S
C591 C23 2.044 . S
C603 C351 2.218 . S
C618 C55 1.987 . S
C630 C391 2.192 . S
C657 C282 0.372 . S
C645 C189 0.369 . S
C684 C322 0.346 . S
C672 C221 0.360 . S
C711 C362 0.403 . S
C699 C253 0.396 . S
C726 C157 0.398 . S
C738 C402 0.411 . S
C753 C61 0.522 1_655 S
C765 C265 0.416 . S
C792 C305 0.423 . S
C780 C93 0.514 1_565 S
C819 C345 0.504 . S
C807 C125 0.392 . S
C834 C29 0.616 . S
C846 C385 0.375 . S
C861 C177 2.460 . S
C873 C259 2.826 . S
C888 C209 2.488 . S
C900 C299 2.795 . S
C927 C339 2.791 . S
C915 C241 2.410 . S
C954 C379 2.798 . S
C942 C145 2.513 . S
C969 C49 2.492 . S
C981 C278 2.829 . S
C1008 C318 2.799 . S
C996 C81 2.502 1_565 S
C1035 C358 2.776 . S
C1023 C113 2.524 . S
C1050 C17 2.556 . S
C1062 C398 2.809 . S
