# Generated by pormake.
# Topology pyr, (3,6)-cn, num edge types: 1
# Building blocks:
#     Node 0, Type 0, BuildingBlock: CUQRIR_clean_linker_1, # of connection points: 3
#     Node 1, Type 0, BuildingBlock: CUQRIR_clean_linker_1, # of connection points: 3
#     Node 2, Type 0, BuildingBlock: CUQRIR_clean_linker_1, # of connection points: 3
#     Node 3, Type 0, BuildingBlock: CUQRIR_clean_linker_1, # of connection points: 3
#     Node 4, Type 0, BuildingBlock: CUQRIR_clean_linker_1, # of connection points: 3
#     Node 5, Type 0, BuildingBlock: CUQRIR_clean_linker_1, # of connection points: 3
#     Node 6, Type 0, BuildingBlock: CUQRIR_clean_linker_1, # of connection points: 3
#     Node 7, Type 0, BuildingBlock: CUQRIR_clean_linker_1, # of connection points: 3
#     Node 8, Type 1, BuildingBlock: BETFEN_clean_sbu_0, # of connection points: 6
#     Node 9, Type 1, BuildingBlock: BETFEN_clean_sbu_0, # of connection points: 6
#     Node 10, Type 1, BuildingBlock: BETFEN_clean_sbu_0, # of connection points: 6
#     Node 11, Type 1, BuildingBlock: BETFEN_clean_sbu_0, # of connection points: 6
#     Edge 12, Type (0, 1), BuildingBlock: AJUNOK_clean_linker_0, # of connection points: 2
#     Edge 13, Type (0, 1), BuildingBlock: AJUNOK_clean_linker_0, # of connection points: 2
#     Edge 14, Type (0, 1), BuildingBlock: AJUNOK_clean_linker_0, # of connection points: 2
#     Edge 15, Type (0, 1), BuildingBlock: AJUNOK_clean_linker_0, # of connection points: 2
#     Edge 16, Type (0, 1), BuildingBlock: AJUNOK_clean_linker_0, # of connection points: 2
#     Edge 17, Type (0, 1), BuildingBlock: AJUNOK_clean_linker_0, # of connection points: 2
#     Edge 18, Type (0, 1), BuildingBlock: AJUNOK_clean_linker_0, # of connection points: 2
#     Edge 19, Type (0, 1), BuildingBlock: AJUNOK_clean_linker_0, # of connection points: 2
#     Edge 20, Type (0, 1), BuildingBlock: AJUNOK_clean_linker_0, # of connection points: 2
#     Edge 21, Type (0, 1), BuildingBlock: AJUNOK_clean_linker_0, # of connection points: 2
#     Edge 22, Type (0, 1), BuildingBlock: AJUNOK_clean_linker_0, # of connection points: 2
#     Edge 23, Type (0, 1), BuildingBlock: AJUNOK_clean_linker_0, # of connection points: 2
#     Edge 24, Type (0, 1), BuildingBlock: AJUNOK_clean_linker_0, # of connection points: 2
#     Edge 25, Type (0, 1), BuildingBlock: AJUNOK_clean_linker_0, # of connection points: 2
#     Edge 26, Type (0, 1), BuildingBlock: AJUNOK_clean_linker_0, # of connection points: 2
#     Edge 27, Type (0, 1), BuildingBlock: AJUNOK_clean_linker_0, # of connection points: 2
#     Edge 28, Type (0, 1), BuildingBlock: AJUNOK_clean_linker_0, # of connection points: 2
#     Edge 29, Type (0, 1), BuildingBlock: AJUNOK_clean_linker_0, # of connection points: 2
#     Edge 30, Type (0, 1), BuildingBlock: AJUNOK_clean_linker_0, # of connection points: 2
#     Edge 31, Type (0, 1), BuildingBlock: AJUNOK_clean_linker_0, # of connection points: 2
#     Edge 32, Type (0, 1), BuildingBlock: AJUNOK_clean_linker_0, # of connection points: 2
#     Edge 33, Type (0, 1), BuildingBlock: AJUNOK_clean_linker_0, # of connection points: 2
#     Edge 34, Type (0, 1), BuildingBlock: AJUNOK_clean_linker_0, # of connection points: 2
#     Edge 35, Type (0, 1), BuildingBlock: AJUNOK_clean_linker_0, # of connection points: 2
# Relax obj value: 0.294
# Max RMSD: 0.384
# Mean RMSD: 0.179
data_MOF--net-pyr--node1-BETFEN_clean_sbu_0--node2-CUQRIR_clean_linker_1--edge1-AJUNOK_clean_linker_0
_symmetry_space_group_name_H-M    P1
_symmetry_Int_Tables_number       1
_symmetry_cell_setting            triclinic
loop_
_symmetry_equiv_pos_as_xyz
'x, y, z'
_cell_length_a     24.202144
_cell_length_b     27.303041
_cell_length_c     24.421478
_cell_angle_alpha  88.732104
_cell_angle_beta   102.30138
_cell_angle_gamma 115.23101
loop_
_atom_site_label
_atom_site_type_symbol
_atom_site_fract_x
_atom_site_fract_y
_atom_site_fract_z
_atom_type_partial_charge
C0 C 0.44625 0.45336 0.32881 0.0
N1 N 0.45751 0.40953 0.33406 0.0
N2 N 0.45868 0.47733 0.28084 0.0
C3 C 0.45476 0.48441 0.38133 0.0
C4 C 0.49791 0.45712 0.26931 0.0
N5 N 0.4953 0.41464 0.29985 0.0
C6 C 0.5401 0.48087 0.22906 0.0
H7 H 0.43387 0.51277 0.37532 0.0
H8 H 0.50571 0.50902 0.39794 0.0
H9 H 0.43379 0.45619 0.4124 0.0
H10 H 0.54978 0.52416 0.22502 0.0
H11 H 0.51845 0.46019 0.18641 0.0
H12 H 0.58424 0.47637 0.24374 0.0
C13 C 0.24775 0.81297 0.72182 0.0
N14 N 0.25094 0.8565 0.75085 0.0
N15 N 0.27154 0.78356 0.75618 0.0
C16 C 0.22865 0.80236 0.6584 0.0
C17 C 0.28812 0.80995 0.8073 0.0
N18 N 0.27793 0.85529 0.80441 0.0
C19 C 0.32423 0.79609 0.85872 0.0
H20 H 0.18025 0.76963 0.64643 0.0
H21 H 0.25795 0.78717 0.6417 0.0
H22 H 0.231 0.83932 0.63724 0.0
H23 H 0.37478 0.81485 0.85813 0.0
H24 H 0.30808 0.75147 0.85878 0.0
H25 H 0.31844 0.81134 0.89784 0.0
C26 C 0.61537 0.32372 0.83709 0.0
N27 N 0.65295 0.31241 0.88101 0.0
N28 N 0.64933 0.35769 0.80237 0.0
C29 C 0.54604 0.30449 0.82995 0.0
C30 C 0.70798 0.36323 0.82532 0.0
N31 N 0.71156 0.34045 0.87506 0.0
C32 C 0.76307 0.38958 0.79813 0.0
H33 H 0.52128 0.27439 0.79299 0.0
H34 H 0.53357 0.33902 0.82142 0.0
H35 H 0.5301 0.2855 0.86776 0.0
H36 H 0.79828 0.42804 0.82237 0.0
H37 H 0.74817 0.39759 0.75397 0.0
H38 H 0.78655 0.36232 0.79887 0.0
C39 C 0.88388 0.68017 0.32981 0.0
N40 N 0.93226 0.72197 0.31154 0.0
N41 N 0.86037 0.69831 0.3672 0.0
C42 C 0.85367 0.6216 0.30656 0.0
C43 C 0.89284 0.75275 0.3688 0.0
N44 N 0.93746 0.76834 0.33726 0.0
C45 C 0.87798 0.79164 0.39979 0.0
H46 H 0.81744 0.61679 0.26789 0.0
H47 H 0.8307 0.59428 0.33731 0.0
H48 H 0.88625 0.60755 0.29485 0.0
H49 H 0.9196 0.81769 0.43252 0.0
H50 H 0.83772 0.77125 0.4196 0.0
H51 H 0.86433 0.81771 0.36982 0.0
C52 C 0.60386 0.7031 0.82656 0.0
N53 N 0.65728 0.71868 0.80845 0.0
N54 N 0.56294 0.71966 0.79273 0.0
C55 C 0.58525 0.65704 0.86398 0.0
C56 C 0.59382 0.74204 0.75074 0.0
N57 N 0.64711 0.73645 0.75855 0.0
C58 C 0.57865 0.7756 0.70507 0.0
H59 H 0.53721 0.62581 0.84559 0.0
H60 H 0.58833 0.6724 0.90667 0.0
H61 H 0.61714 0.63693 0.86811 0.0
H62 H 0.59596 0.81798 0.72267 0.0
H63 H 0.52812 0.75875 0.68616 0.0
H64 H 0.6025 0.77742 0.67048 0.0
C65 C 0.90398 0.29178 0.43756 0.0
N66 N 0.90057 0.2537 0.40071 0.0
N67 N 0.89038 0.33064 0.41081 0.0
C68 C 0.91617 0.28898 0.49992 0.0
C69 C 0.88349 0.31631 0.35633 0.0
N70 N 0.88209 0.26653 0.34933 0.0
C71 C 0.86762 0.34745 0.30858 0.0
H72 H 0.88651 0.24769 0.51062 0.0
H73 H 0.90789 0.31994 0.52114 0.0
H74 H 0.96564 0.29671 0.51489 0.0
H75 H 0.90254 0.39063 0.31607 0.0
H76 H 0.82105 0.3466 0.30691 0.0
H77 H 0.86771 0.33043 0.26774 0.0
C78 C 0.37804 0.72079 0.30246 0.0
N79 N 0.44114 0.7494 0.32124 0.0
N80 N 0.3503 0.75357 0.28411 0.0
C81 C 0.34115 0.66048 0.30589 0.0
C82 C 0.3976 0.80361 0.29839 0.0
N83 N 0.4544 0.80242 0.31614 0.0
C84 C 0.38779 0.85474 0.29254 0.0
H85 H 0.32507 0.63954 0.26317 0.0
H86 H 0.29924 0.65297 0.32239 0.0
H87 H 0.36749 0.64169 0.33406 0.0
H88 H 0.33714 0.84505 0.28375 0.0
H89 H 0.41205 0.88138 0.33208 0.0
H90 H 0.40803 0.87788 0.25824 0.0
C91 C 0.17376 0.37168 0.78624 0.0
N92 N 0.20493 0.36385 0.74834 0.0
N93 N 0.19734 0.42524 0.80629 0.0
C94 C 0.11715 0.32724 0.8011 0.0
C95 C 0.24488 0.44935 0.7785 0.0
N96 N 0.24856 0.41331 0.74201 0.0
C97 C 0.293 0.5073 0.79308 0.0
H98 H 0.08226 0.34273 0.80431 0.0
H99 H 0.13138 0.31346 0.84251 0.0
H100 H 0.09515 0.2917 0.76978 0.0
H101 H 0.30482 0.51681 0.83925 0.0
H102 H 0.2732 0.53495 0.77324 0.0
H103 H 0.33654 0.51502 0.77913 0.0
Pr104 Pr 1.04622 0.03804 0.56727 0.0
Pr105 Pr 0.13646 0.07615 0.53836 0.0
C106 C 0.95741 0.96923 0.6156 0.0
C107 C 0.96297 0.93107 0.65751 0.0
C108 C 0.98336 0.94801 0.71516 0.0
C109 C 0.97774 0.90965 0.75478 0.0
C110 C 0.9463 0.85456 0.73638 0.0
C111 C 0.94337 0.83941 0.68099 0.0
C112 C 0.94832 0.87722 0.64078 0.0
C113 C 0.11131 0.14608 0.62475 0.0
C114 C 0.15266 1.00039 0.63127 0.0
C115 C 0.23575 0.13945 0.49845 0.0
C116 C 0.23972 0.1652 0.44586 0.0
C117 C 0.22313 0.13499 0.3942 0.0
C118 C 0.23184 0.16167 0.3453 0.0
C119 C 0.25641 0.21834 0.34801 0.0
C120 C 0.26526 0.24735 0.39871 0.0
C121 C 0.2584 0.22112 0.44735 0.0
C122 C 0.0708 0.97391 0.4708 0.0
C123 C 1.02055 0.11081 0.47714 0.0
O124 O 0.96086 0.95857 0.56504 0.0
O125 O 0.98793 1.02061 0.6323 0.0
O126 O 0.13506 0.11227 0.62347 0.0
O127 O 0.05474 0.12463 0.59404 0.0
O128 O 0.18786 0.04807 0.61738 0.0
O129 O 0.09293 0.9823 0.60922 0.0
O130 O 0.21325 0.15798 0.53252 0.0
O131 O 0.21437 0.08689 0.49554 0.0
O132 O 1.04801 1.00755 0.47747 0.0
O133 O 0.12496 0.99006 0.50535 0.0
O134 O 0.98756 0.06629 0.49801 0.0
O135 O 0.08198 0.1268 0.48909 0.0
H136 H 0.99881 0.98993 0.72973 0.0
H137 H 0.98492 0.92243 0.79843 0.0
H138 H 0.92432 0.79707 0.66633 0.0
H139 H 0.93643 0.86344 0.59676 0.0
H140 H 0.20656 0.09129 0.39194 0.0
H141 H 0.22517 0.13884 0.30682 0.0
H142 H 0.28515 0.29131 0.40268 0.0
H143 H 0.27036 0.24501 0.4866 0.0
Pr144 Pr 0.52284 0.05649 0.10729 0.0
Pr145 Pr 0.60301 0.03512 0.08194 0.0
C146 C 0.43905 0.07119 0.1533 0.0
C147 C 0.43481 0.11219 0.18626 0.0
C148 C 0.38056 0.1209 0.17313 0.0
C149 C 0.37916 0.16468 0.1999 0.0
C150 C 0.43191 0.19911 0.2399 0.0
C151 C 0.48558 0.18959 0.25344 0.0
C152 C 0.48691 0.14608 0.22712 0.0
C153 C 0.57297 0.13076 1.02642 0.0
C154 C 0.67 0.12193 0.181 0.0
C155 C 0.67632 1.00312 0.0394 0.0
C156 C 0.6535 0.96067 0.99473 0.0
C157 C 0.66607 0.9153 1.00444 0.0
C158 C 0.62826 0.86708 0.97107 0.0
C159 C 0.577 0.86397 0.92895 0.0
C160 C 0.56571 0.90984 0.91891 0.0
C161 C 0.60476 0.95817 0.95028 0.0
C162 C 0.55888 0.96921 0.16997 0.0
C163 C 0.46152 0.98046 0.9976 0.0
O164 O 0.47515 0.04931 0.17868 0.0
O165 O 0.44552 0.08287 0.10242 0.0
O166 O 0.60497 0.12096 0.06982 0.0
O167 O 0.51414 0.09906 1.02174 0.0
O168 O 0.6819 0.1073 0.13655 0.0
O169 O 0.61071 0.1053 0.18374 0.0
O170 O 0.66972 0.047 1.0253 0.0
O171 O 0.65721 0.98517 0.08486 0.0
O172 O 0.52495 0.97285 0.12392 0.0
O173 O 0.61592 1.00518 0.17419 0.0
O174 O 0.44708 0.98591 0.04455 0.0
O175 O 0.52168 1.00173 0.99773 0.0
H176 H 0.34069 0.09543 0.14051 0.0
H177 H 0.33874 0.17339 0.18746 0.0
H178 H 0.52778 0.2177 0.28225 0.0
H179 H 0.52966 0.14063 0.23669 0.0
H180 H 0.70283 0.91645 0.03939 0.0
H181 H 0.63902 0.83246 0.97812 0.0
H182 H 0.52657 0.9084 0.8866 0.0
H183 H 0.59411 0.99263 0.94172 0.0
Pr184 Pr 0.57473 0.58996 0.59073 0.0
Pr185 Pr 0.53043 0.514 0.52169 0.0
C186 C 0.55942 0.66254 0.64656 0.0
C187 C 0.49688 0.65514 0.65378 0.0
C188 C 0.47503 0.63436 0.70223 0.0
C189 C 0.42516 0.64191 0.71498 0.0
C190 C 0.396 0.66872 0.67835 0.0
C191 C 0.4086 0.67744 0.62467 0.0
C192 C 0.45937 0.67176 0.61295 0.0
C193 C 0.60084 0.51134 0.6496 0.0
C194 C 0.42667 0.49123 0.59022 0.0
C195 C 0.57642 0.44526 0.49877 0.0
C196 C 0.62677 0.43773 0.48031 0.0
C197 C 0.64294 0.45136 0.42814 0.0
C198 C 0.68971 0.43968 0.41378 0.0
C199 C 0.72154 0.41596 0.45224 0.0
C200 C 0.70755 0.40566 0.5052 0.0
C201 C 0.66059 0.41606 0.51887 0.0
C202 C 0.50434 0.59999 0.46832 0.0
C203 C 0.66698 0.60358 0.50295 0.0
O204 O 0.56904 0.67003 0.59588 0.0
O205 O 0.58362 0.63197 0.67355 0.0
O206 O 0.54838 0.50386 0.61814 0.0
O207 O 0.64374 0.55997 0.6468 0.0
O208 O 0.43802 0.46319 0.5545 0.0
O209 O 0.46753 0.54274 0.60233 0.0
O210 O 0.5965 0.47666 0.54492 0.0
O211 O 0.52797 0.44762 0.46387 0.0
O212 O 0.55606 0.60409 0.4976 0.0
O213 O 0.4618 0.55008 0.4682 0.0
O214 O 0.66967 0.62335 0.55341 0.0
O215 O 0.6134 0.56389 0.4785 0.0
H216 H 0.5003 0.61757 0.73285 0.0
H217 H 0.41404 0.63195 0.75565 0.0
H218 H 0.38372 0.69452 0.59397 0.0
H219 H 0.47219 0.68522 0.57395 0.0
H220 H 0.61781 0.46857 0.39795 0.0
H221 H 0.69947 0.44738 0.37236 0.0
H222 H 0.7316 0.38754 0.53544 0.0
H223 H 0.64986 0.40618 0.55975 0.0
Pr224 Pr 1.0438 0.61185 1.00693 0.0
Pr225 Pr 0.06421 0.54627 0.08273 0.0
C226 C 1.00924 0.66318 0.92146 0.0
C227 C 0.96853 0.6907 0.91817 0.0
C228 C 0.99035 0.74591 0.90816 0.0
C229 C 0.95154 0.77206 0.90698 0.0
C230 C 0.8909 0.74315 0.91636 0.0
C231 C 0.87085 0.6887 0.92909 0.0
C232 C 0.90911 0.6628 0.92995 0.0
C233 C 0.15653 0.66893 0.08306 0.0
C234 C 1.01252 0.63325 0.13091 0.0
C235 C 0.10116 0.48855 0.1568 0.0
C236 C 0.13853 0.46236 0.14259 0.0
C237 C 0.12248 0.40734 0.15021 0.0
C238 C 0.16367 0.38558 0.14321 0.0
C239 C 0.22117 0.41972 0.13022 0.0
C240 C 0.22837 0.46945 0.1085 0.0
C241 C 0.18912 0.49199 0.11752 0.0
C242 C 0.94932 0.48735 1.00893 0.0
C243 C 0.10871 0.53225 0.96488 0.0
O244 O 0.98223 0.61039 0.92293 0.0
O245 O 0.06279 0.68628 0.95754 0.0
O246 O 0.14021 0.62255 0.05942 0.0
O247 O 0.11418 0.68651 0.06823 0.0
O248 O 1.03583 0.59713 0.14452 0.0
O249 O 1.00373 0.64311 0.07665 0.0
O250 O 0.12886 0.54164 0.16231 0.0
O251 O 1.04354 0.46898 0.12759 0.0
O252 O 0.96551 0.5345 0.03139 0.0
O253 O 0.99508 0.47363 1.01927 0.0
O254 O 0.08129 0.56503 0.94826 0.0
O255 O 0.11385 0.52228 1.01852 0.0
H256 H 1.03677 0.76838 0.90032 0.0
H257 H 0.96742 0.81377 0.89597 0.0
H258 H 0.82361 0.66457 0.93436 0.0
H259 H 0.89129 0.62045 0.93883 0.0
H260 H 0.08128 0.38278 0.16591 0.0
H261 H 0.1562 0.34604 0.15798 0.0
H262 H 0.2715 0.49569 0.0963 0.0
H263 H 0.20103 0.53379 0.1082 0.0
C264 C 0.34448 0.34901 0.31227 0.0
C265 C 0.40648 0.35751 0.33947 0.0
C266 C 0.29233 0.29831 0.29723 0.0
C267 C 0.29441 0.24853 0.3088 0.0
H268 H 0.33452 0.38337 0.30155 0.0
H269 H 0.24678 0.29858 0.28376 0.0
S270 S 0.45027 0.19508 0.36901 0.0
N271 N 0.49899 0.27834 0.39618 0.0
N272 N 0.36606 0.19447 0.32698 0.0
C273 C 0.35274 0.24839 0.32148 0.0
C274 C 0.41447 0.30953 0.35456 0.0
C275 C 0.38189 0.9275 0.84424 0.0
C276 C 0.31758 0.90147 0.84438 0.0
C277 C 0.4277 0.95395 0.89336 0.0
C278 C 0.41129 0.95584 0.94495 0.0
H279 H 0.39711 0.92261 0.80695 0.0
H280 H 0.4765 0.97112 0.89123 0.0
S281 S 0.24785 0.90221 0.96496 0.0
N282 N 0.23921 0.88467 0.89828 0.0
N283 N 0.32419 0.93578 0.99052 0.0
C284 C 0.34648 0.93431 0.9443 0.0
C285 C 0.3 0.90703 0.89408 0.0
C286 C 0.58321 0.37763 0.71809 0.0
C287 C 0.63442 0.39541 0.76514 0.0
C288 C 0.57159 0.41494 0.68111 0.0
C289 C 0.61126 0.47138 0.68919 0.0
H290 H 0.55261 0.33471 0.70933 0.0
H291 H 0.53199 0.39935 0.64538 0.0
S292 S 0.74843 0.53938 0.80802 0.0
N293 N 0.72156 0.47442 0.81926 0.0
N294 N 0.7018 0.54253 0.74947 0.0
C295 C 0.66169 0.48926 0.73633 0.0
C296 C 0.67264 0.45193 0.77425 0.0
C297 C 0.99028 0.67276 0.27834 0.0
C298 C 0.96574 0.71224 0.26987 0.0
C299 C 1.00445 0.64855 0.2345 0.0
C300 C 0.99781 0.6627 0.17777 0.0
H301 H 0.99521 0.65757 0.31956 0.0
H302 H 1.02004 0.61716 0.24553 0.0
S303 S 0.95173 0.77449 0.13311 0.0
N304 N 0.945 0.76993 0.19926 0.0
N305 N 0.97506 0.72819 0.11941 0.0
C306 C 0.97903 0.70604 0.16955 0.0
C307 C 0.96275 0.72976 0.21427 0.0
C308 C 0.49174 0.3479 0.23336 0.0
C309 C 0.51161 0.37171 0.28867 0.0
C310 C 0.45986 0.29173 0.219 0.0
C311 C 0.43909 0.25227 0.25733 0.0
H312 H 0.49586 0.37336 0.19873 0.0
H313 H 0.45021 0.27859 0.17499 0.0
S314 S 0.46661 0.32171 0.45199 0.0
N315 N 0.51873 0.36367 0.39568 0.0
N316 N 0.41272 0.24843 0.40329 0.0
C317 C 0.45531 0.27052 0.31471 0.0
C318 C 0.5114 0.33907 0.33277 0.0
C319 C 0.26017 0.9504 0.73295 0.0
C320 C 0.22434 0.89354 0.72759 0.0
C321 C 0.23711 0.98524 0.70244 0.0
C322 C 0.17776 0.96449 0.66476 0.0
H323 H 0.30707 0.96805 0.75916 0.0
H324 H 0.26629 0.0286 0.70788 0.0
S325 S 0.06604 0.81858 0.63482 0.0
N326 N 0.1246 0.819 0.68417 0.0
N327 N 0.08529 0.88275 0.62256 0.0
C328 C 0.14176 0.90777 0.65939 0.0
C329 C 0.16386 0.8729 0.69197 0.0
C330 C 0.77688 0.42625 0.93416 0.0
C331 C 0.76348 0.37157 0.92104 0.0
C332 C 0.83639 0.46352 0.96393 0.0
C333 C 0.88404 0.44694 0.98368 0.0
H334 H 0.74212 0.44098 0.9178 0.0
H335 H 0.84578 0.50584 0.96939 0.0
S336 S 0.86612 0.3047 0.97512 0.0
N337 N 0.79845 0.30089 0.93843 0.0
N338 N 0.90899 0.36917 0.99824 0.0
C339 C 0.86857 0.39086 0.97664 0.0
C340 C 0.80849 0.35349 0.94472 0.0
C341 C 0.82803 0.68145 0.46056 0.0
C342 C 0.81399 0.66904 0.40144 0.0
C343 C 0.78155 0.66144 0.4933 0.0
C344 C 0.71846 0.62606 0.46926 0.0
H345 H 0.87536 0.70904 0.48143 0.0
H346 H 0.79532 0.67395 0.53777 0.0
S347 S 0.65716 0.57735 0.31748 0.0
N348 N 0.7315 0.61815 0.32141 0.0
N349 N 0.64633 0.57716 0.38181 0.0
C350 C 0.70475 0.61125 0.41065 0.0
C351 C 0.75157 0.63315 0.37728 0.0
C352 C 0.38557 0.43702 0.18699 0.0
C353 C 0.40243 0.46925 0.23826 0.0
C354 C 0.32524 0.41728 0.15232 0.0
C355 C 0.27785 0.42441 0.16997 0.0
H356 H 0.41768 0.425 0.17339 0.0
H357 H 0.3156 0.39638 0.11176 0.0
S358 S 0.29224 0.50387 0.29719 0.0
N359 N 0.36388 0.51235 0.29781 0.0
N360 N 0.24832 0.46208 0.24155 0.0
C361 C 0.29206 0.4534 0.2215 0.0
C362 C 0.35467 0.47965 0.2527 0.0
C363 C 0.65631 0.27478 0.97646 0.0
C364 C 0.63381 0.26722 0.9174 0.0
C365 C 0.6385 0.23076 1.01148 0.0
C366 C 0.59682 0.17708 0.98921 0.0
H367 H 0.6872 0.31518 0.99595 0.0
H368 H 0.65617 0.23914 0.05652 0.0
S369 S 0.53194 0.13366 0.83714 0.0
N370 N 0.57344 0.20001 0.83843 0.0
N371 N 0.53825 0.11889 0.90348 0.0
C372 C 0.57567 0.16893 0.93022 0.0
C373 C 0.59457 0.21334 0.89467 0.0
C374 C 0.96931 0.86881 0.33938 0.0
C375 C 0.98714 0.82506 0.34783 0.0
C376 C 0.99534 0.91612 0.37813 0.0
C377 C 1.04496 0.92541 0.42554 0.0
H378 H 0.92834 0.86276 0.30683 0.0
H379 H 0.97479 0.94469 0.37169 0.0
S380 S 0.12747 0.836 0.45383 0.0
N381 N 0.06842 0.80251 0.40034 0.0
N382 N 0.12184 0.89237 0.46803 0.0
C383 C 0.0704 0.88676 0.42836 0.0
C384 C 1.04151 0.83739 0.39063 0.0
C385 C 0.28644 0.69945 0.74894 0.0
C386 C 0.30355 0.75448 0.73946 0.0
C387 C 0.31678 0.67137 0.72977 0.0
C388 C 0.36304 0.6972 0.6988 0.0
H389 H 0.24949 0.67825 0.77091 0.0
H390 H 0.30304 0.62913 0.73798 0.0
S391 S 0.42876 0.84316 0.67005 0.0
N392 N 0.37552 0.83562 0.70589 0.0
N393 N 0.42622 0.78229 0.66276 0.0
C394 C 0.38085 0.7527 0.69045 0.0
C395 C 0.35307 0.78155 0.71303 0.0
C396 C 0.75119 0.84219 0.76239 0.0
C397 C 0.69652 0.76254 0.73136 0.0
C398 C 0.84684 0.87368 0.77422 0.0
C399 C 0.88755 0.82573 0.75401 0.0
H400 H 0.73005 0.86582 0.77675 0.0
H401 H 0.87502 0.91626 0.78753 0.0
S402 S 0.77909 0.65219 0.69676 0.0
N403 N 0.71486 0.66232 0.69985 0.0
N404 N 0.84908 0.7082 0.71257 0.0
C405 C 0.832 0.74673 0.72389 0.0
C406 C 0.73903 0.71574 0.71243 0.0
C407 C 0.76926 0.22621 0.30201 0.0
C408 C 0.82919 0.22659 0.30951 0.0
C409 C 0.7176 0.19106 0.26193 0.0
C410 C 0.72341 0.1547 0.22707 0.0
H411 H 0.76215 0.25484 0.3258 0.0
H412 H 0.67352 0.19396 0.25684 0.0
S413 S 0.86694 0.13387 0.23312 0.0
N414 N 0.88943 0.184 0.28153 0.0
N415 N 0.79208 0.11693 0.20527 0.0
C416 C 0.78207 0.15249 0.23529 0.0
C417 C 0.83491 0.1885 0.27678 0.0
C418 C 0.48569 0.72975 0.41694 0.0
C419 C 0.47794 0.72532 0.35795 0.0
C420 C 0.4968 0.69074 0.4518 0.0
C421 C 0.49801 0.64369 0.42987 0.0
H422 H 0.47915 0.76175 0.436 0.0
H423 H 0.50261 0.69678 0.49634 0.0
S424 S 0.49116 0.61787 0.27896 0.0
N425 N 0.48019 0.67344 0.28031 0.0
N426 N 0.50154 0.60167 0.34474 0.0
C427 C 0.49579 0.64161 0.37149 0.0
C428 C 0.48578 0.68183 0.33621 0.0
C429 C 0.16028 0.49594 0.83156 0.0
C430 C 0.17587 0.45168 0.84583 0.0
C431 C 0.13896 0.5212 0.86879 0.0
C432 C 0.13225 0.50493 0.9239 0.0
H433 H 0.16373 0.51101 0.79047 0.0
H434 H 0.12778 0.55427 0.85394 0.0
S435 S 0.16847 0.39213 0.98403 0.0
N436 N 0.18463 0.39482 0.92142 0.0
N437 N 0.14419 0.43963 0.98896 0.0
C438 C 0.14836 0.46094 0.9385 0.0
C439 C 0.16994 0.43532 0.90064 0.0
C440 C 0.51113 0.77953 0.79347 0.0
C441 C 0.5165 0.73222 0.81131 0.0
C442 C 0.52959 0.82296 0.83197 0.0
C443 C 0.54142 0.81604 0.88953 0.0
H444 H 0.50305 0.78772 0.75068 0.0
H445 H 0.53856 0.86237 0.81613 0.0
S446 S 0.4835 0.68265 0.94885 0.0
N447 N 0.47926 0.66887 0.88202 0.0
N448 N 0.51472 0.74958 0.9589 0.0
C449 C 0.52186 0.76304 0.90617 0.0
C450 C 0.50494 0.7199 0.86535 0.0
C451 C 0.8956 0.16418 0.42936 0.0
C452 C 0.9294 0.21652 0.41377 0.0
C453 C 0.92504 0.12984 0.44741 0.0
C454 C 0.98988 0.14641 0.45118 0.0
H455 H 0.84633 0.15021 0.42874 0.0
H456 H 0.89677 0.09036 0.46006 0.0
S457 S 0.09925 0.28104 0.41581 0.0
N458 N 1.0308 0.28378 0.40324 0.0
N459 N 0.08643 0.22016 0.43748 0.0
C460 C 1.02391 0.19886 0.43511 0.0
C461 C 0.99368 0.23359 0.41645 0.0
C462 C 0.24012 0.69699 0.23616 0.0
C463 C 0.29909 0.73894 0.23509 0.0
C464 C 0.1946 0.67371 0.18643 0.0
C465 C 0.20595 0.69234 0.13408 0.0
H466 H 0.22943 0.68131 0.27553 0.0
H467 H 0.15027 0.64109 0.18922 0.0
S468 S 0.34566 0.80938 0.10854 0.0
N469 N 0.36235 0.80301 0.17671 0.0
N470 N 0.27473 0.76069 0.08425 0.0
C471 C 0.2619 0.73727 0.13253 0.0
C472 C 0.30897 0.76037 0.18284 0.0
C473 C 0.32527 0.40183 0.69172 0.0
C474 C 0.28755 0.42803 0.69934 0.0
C475 C 0.36714 0.42009 0.65419 0.0
C476 C 0.37444 0.46604 0.62274 0.0
H477 H 0.32423 0.36816 0.71635 0.0
H478 H 0.3962 0.39944 0.6518 0.0
S479 S 0.28162 0.54491 0.6214 0.0
N480 N 0.25607 0.49865 0.66596 0.0
N481 N 0.3364 0.53453 0.60014 0.0
C482 C 0.33584 0.49133 0.62906 0.0
C483 C 0.29222 0.47197 0.66572 0.0
C484 C 0.73299 0.73288 0.90129 0.0
C485 C 0.72016 0.73525 0.84329 0.0
C486 C 0.79503 0.74811 0.92904 0.0
C487 C 0.84228 0.76221 0.89757 0.0
H488 H 0.69718 0.719 0.92518 0.0
H489 H 0.80507 0.74129 0.9732 0.0
S490 S 0.7881 0.80931 0.69511 0.0
N491 N 0.79475 0.78457 0.77761 0.0
N492 N 0.79581 0.78207 0.78634 0.0
C493 C 0.83717 0.77572 0.84029 0.0
C494 C 0.77739 0.76356 0.82113 0.0
C495 C 0.53076 0.89665 0.30631 0.0
C496 C 0.50253 0.84052 0.28871 0.0
C497 C 0.54952 0.93763 0.26818 0.0
C498 C 0.54059 0.92481 0.21022 0.0
H499 H 0.53232 0.90884 0.34871 0.0
H500 H 0.56811 0.97972 0.28375 0.0
S501 S 0.48447 0.78575 0.14476 0.0
N502 N 0.47834 0.77596 0.21064 0.0
N503 N 0.51249 0.85207 0.13976 0.0
C504 C 0.51866 0.8695 0.19331 0.0
C505 C 0.5008 0.82792 0.23232 0.0
C506 C 0.21209 0.2741 0.73455 0.0
C507 C 0.18749 0.31204 0.71558 0.0
C508 C 0.18997 0.22164 0.70517 0.0
C509 C 0.14076 0.20351 0.65591 0.0
H510 H 0.24822 0.28473 0.77287 0.0
H511 H 0.21038 0.1946 0.72222 0.0
S512 S 0.06187 0.28752 0.58869 0.0
N513 N 0.11261 0.32714 0.64378 0.0
N514 N 0.07054 0.23077 0.59009 0.0
C515 C 0.11683 0.24172 0.63703 0.0
C516 C 0.13998 0.29486 0.66624 0.0
C517 C 0.86885 0.40914 0.42891 0.0
C518 C 0.85111 0.35285 0.42685 0.0
C519 C 0.82617 0.43015 0.43497 0.0
C520 C 0.764 0.39518 0.43695 0.0
H521 H 0.91572 0.43678 0.42545 0.0
H522 H 0.84191 0.47373 0.43873 0.0
S523 S 0.69323 0.24489 0.42913 0.0
N524 N 0.76726 0.26301 0.42771 0.0
N525 N 0.68602 0.30207 0.43313 0.0
C526 C 0.74549 0.33901 0.43324 0.0
C527 C 0.7893 0.31794 0.42984 0.0
loop_
_geom_bond_atom_site_label_1
_geom_bond_atom_site_label_2
_geom_bond_distance
_geom_bond_site_symmetry_2
_ccdc_geom_bond_type
C0 N1 1.317 . S
C0 N2 1.348 . S
C0 C3 1.485 . S
N1 C0 1.317 . S
N1 N5 1.370 . S
N2 C0 1.348 . S
N2 C4 1.346 . S
C3 C0 1.485 . S
C3 H7 0.960 . S
C3 H8 0.961 . S
C3 H9 0.960 . S
C4 N2 1.346 . S
C4 N5 1.307 . S
C4 C6 1.486 . S
N5 N1 1.370 . S
N5 C4 1.307 . S
C6 C4 1.486 . S
C6 H10 0.960 . S
C6 H11 0.960 . S
C6 H12 0.959 . S
H7 C3 0.960 . S
H8 C3 0.961 . S
H9 C3 0.960 . S
H10 C6 0.960 . S
H11 C6 0.960 . S
H12 C6 0.959 . S
C13 N14 1.317 . S
C13 N15 1.348 . S
C13 C16 1.485 . S
N14 C13 1.317 . S
N14 N18 1.370 . S
N15 C13 1.348 . S
N15 C17 1.346 . S
C16 C13 1.485 . S
C16 H20 0.960 . S
C16 H21 0.961 . S
C16 H22 0.960 . S
C17 N15 1.346 . S
C17 N18 1.307 . S
C17 C19 1.486 . S
N18 N14 1.370 . S
N18 C17 1.307 . S
C19 C17 1.486 . S
C19 H23 0.960 . S
C19 H24 0.960 . S
C19 H25 0.959 . S
H20 C16 0.960 . S
H21 C16 0.961 . S
H22 C16 0.960 . S
H23 C19 0.960 . S
H24 C19 0.960 . S
H25 C19 0.959 . S
C26 N27 1.317 . S
C26 N28 1.348 . S
C26 C29 1.485 . S
N27 C26 1.317 . S
N27 N31 1.370 . S
N28 C26 1.348 . S
N28 C30 1.346 . S
C29 C26 1.485 . S
C29 H33 0.960 . S
C29 H34 0.961 . S
C29 H35 0.960 . S
C30 N28 1.346 . S
C30 N31 1.307 . S
C30 C32 1.486 . S
N31 N27 1.370 . S
N31 C30 1.307 . S
C32 C30 1.486 . S
C32 H36 0.960 . S
C32 H37 0.960 . S
C32 H38 0.959 . S
H33 C29 0.960 . S
H34 C29 0.961 . S
H35 C29 0.960 . S
H36 C32 0.960 . S
H37 C32 0.960 . S
H38 C32 0.959 . S
C39 N40 1.317 . S
C39 N41 1.348 . S
C39 C42 1.485 . S
N40 C39 1.317 . S
N40 N44 1.370 . S
N41 C39 1.348 . S
N41 C43 1.346 . S
C42 C39 1.485 . S
C42 H46 0.960 . S
C42 H47 0.961 . S
C42 H48 0.960 . S
C43 N41 1.346 . S
C43 N44 1.307 . S
C43 C45 1.486 . S
N44 N40 1.370 . S
N44 C43 1.307 . S
C45 C43 1.486 . S
C45 H49 0.960 . S
C45 H50 0.960 . S
C45 H51 0.959 . S
H46 C42 0.960 . S
H47 C42 0.961 . S
H48 C42 0.960 . S
H49 C45 0.960 . S
H50 C45 0.960 . S
H51 C45 0.959 . S
C52 N53 1.317 . S
C52 N54 1.348 . S
C52 C55 1.485 . S
N53 C52 1.317 . S
N53 N57 1.370 . S
N54 C52 1.348 . S
N54 C56 1.346 . S
C55 C52 1.485 . S
C55 H59 0.960 . S
C55 H60 0.961 . S
C55 H61 0.960 . S
C56 N54 1.346 . S
C56 N57 1.307 . S
C56 C58 1.486 . S
N57 N53 1.370 . S
N57 C56 1.307 . S
C58 C56 1.486 . S
C58 H62 0.960 . S
C58 H63 0.960 . S
C58 H64 0.959 . S
H59 C55 0.960 . S
H60 C55 0.961 . S
H61 C55 0.960 . S
H62 C58 0.960 . S
H63 C58 0.960 . S
H64 C58 0.959 . S
C65 N66 1.317 . S
C65 N67 1.348 . S
C65 C68 1.485 . S
N66 C65 1.317 . S
N66 N70 1.370 . S
N67 C65 1.348 . S
N67 C69 1.346 . S
C68 C65 1.485 . S
C68 H72 0.960 . S
C68 H73 0.961 . S
C68 H74 0.960 . S
C69 N67 1.346 . S
C69 N70 1.307 . S
C69 C71 1.486 . S
N70 N66 1.370 . S
N70 C69 1.307 . S
C71 C69 1.486 . S
C71 H75 0.960 . S
C71 H76 0.960 . S
C71 H77 0.959 . S
H72 C68 0.960 . S
H73 C68 0.961 . S
H74 C68 0.960 . S
H75 C71 0.960 . S
H76 C71 0.960 . S
H77 C71 0.959 . S
C78 N79 1.317 . S
C78 N80 1.348 . S
C78 C81 1.485 . S
N79 C78 1.317 . S
N79 N83 1.370 . S
N80 C78 1.348 . S
N80 C82 1.346 . S
C81 C78 1.485 . S
C81 H85 0.960 . S
C81 H86 0.961 . S
C81 H87 0.960 . S
C82 N80 1.346 . S
C82 N83 1.307 . S
C82 C84 1.486 . S
N83 N79 1.370 . S
N83 C82 1.307 . S
C84 C82 1.486 . S
C84 H88 0.960 . S
C84 H89 0.960 . S
C84 H90 0.959 . S
H85 C81 0.960 . S
H86 C81 0.961 . S
H87 C81 0.960 . S
H88 C84 0.960 . S
H89 C84 0.960 . S
H90 C84 0.959 . S
C91 N92 1.317 . S
C91 N93 1.348 . S
C91 C94 1.485 . S
N92 C91 1.317 . S
N92 N96 1.370 . S
N93 C91 1.348 . S
N93 C95 1.346 . S
C94 C91 1.485 . S
C94 H98 0.960 . S
C94 H99 0.961 . S
C94 H100 0.960 . S
C95 N93 1.346 . S
C95 N96 1.307 . S
C95 C97 1.486 . S
N96 N92 1.370 . S
N96 C95 1.307 . S
C97 C95 1.486 . S
C97 H101 0.960 . S
C97 H102 0.960 . S
C97 H103 0.959 . S
H98 C94 0.960 . S
H99 C94 0.961 . S
H100 C94 0.960 . S
H101 C97 0.960 . S
H102 C97 0.960 . S
H103 C97 0.959 . S
Pr104 C106 2.880 . S
Pr104 O124 2.562 . S
Pr104 O125 2.490 . S
Pr104 O126 2.695 1_665 S
Pr104 O127 2.512 1_665 S
Pr104 O129 2.437 1_655 S
Pr104 O132 2.436 1_655 S
Pr104 O134 2.438 1_565 S
Pr105 C115 2.880 . S
Pr105 O126 2.436 . S
Pr105 O128 2.425 1_545 S
Pr105 O130 2.562 . S
Pr105 O131 2.490 . S
Pr105 O132 2.695 1_545 S
Pr105 O133 2.512 1_545 S
Pr105 O135 2.437 . S
C106 Pr104 2.880 . S
C106 C107 1.491 . S
C106 O124 1.254 . S
C106 O125 1.225 . S
C107 C106 1.491 . S
C107 C108 1.392 . S
C107 C112 1.356 . S
C108 C107 1.392 . S
C108 C109 1.368 . S
C108 H136 0.929 . S
C109 C108 1.368 . S
C109 C110 1.386 . S
C109 H137 0.929 . S
C110 C109 1.386 . S
C110 C111 1.373 . S
C111 C110 1.373 . S
C111 C112 1.409 . S
C111 H138 0.931 . S
C112 C107 1.356 . S
C112 C111 1.409 . S
C112 H139 0.930 . S
C113 O126 1.270 . S
C113 O127 1.248 . S
C114 O128 1.270 . S
C114 O129 1.278 . S
C115 Pr105 2.880 . S
C115 C116 1.491 . S
C115 O130 1.254 . S
C115 O131 1.225 . S
C116 C115 1.491 . S
C116 C117 1.392 . S
C116 C121 1.356 . S
C117 C116 1.392 . S
C117 C118 1.368 . S
C117 H140 0.929 . S
C118 C117 1.368 . S
C118 C119 1.386 . S
C118 H141 0.929 . S
C119 C118 1.386 . S
C119 C120 1.373 . S
C120 C119 1.373 . S
C120 C121 1.409 . S
C120 H142 0.931 . S
C121 C116 1.356 . S
C121 C120 1.409 . S
C121 H143 0.930 . S
C122 O132 1.270 . S
C122 O133 1.248 . S
C123 O134 1.267 1_455 S
C123 O135 1.278 . S
O124 Pr104 2.562 . S
O124 C106 1.254 . S
O125 Pr104 2.490 . S
O125 C106 1.225 . S
O126 Pr104 2.695 1_445 S
O126 Pr105 2.436 . S
O126 C113 1.270 . S
O127 Pr104 2.512 1_445 S
O127 C113 1.248 . S
O128 Pr105 2.425 1_565 S
O128 C114 1.270 . S
O129 Pr104 2.437 1_455 S
O129 C114 1.278 . S
O130 Pr105 2.562 . S
O130 C115 1.254 . S
O131 Pr105 2.490 . S
O131 C115 1.225 . S
O132 Pr104 2.436 1_455 S
O132 Pr105 2.695 1_565 S
O132 C122 1.270 . S
O133 Pr105 2.512 1_565 S
O133 C122 1.248 . S
O134 Pr104 2.438 1_545 S
O134 C123 1.267 1_655 S
O135 Pr105 2.437 . S
O135 C123 1.278 . S
H136 C108 0.929 . S
H137 C109 0.929 . S
H138 C111 0.931 . S
H139 C112 0.930 . S
H140 C117 0.929 . S
H141 C118 0.929 . S
H142 C120 0.931 . S
H143 C121 0.930 . S
Pr144 C146 2.880 . S
Pr144 O164 2.562 . S
Pr144 O165 2.490 . S
Pr144 O166 2.695 . S
Pr144 O167 2.512 . S
Pr144 O169 2.437 . S
Pr144 O172 2.436 1_545 S
Pr144 O174 2.428 1_544 S
Pr145 C155 2.876 1_544 S
Pr145 O166 2.441 . S
Pr145 O168 2.442 . S
Pr145 O170 2.560 1_544 S
Pr145 O171 2.484 1_545 S
Pr145 O172 2.697 1_545 S
Pr145 O173 2.510 1_545 S
Pr145 O175 2.436 1_545 S
C146 Pr144 2.880 . S
C146 C147 1.491 . S
C146 O164 1.254 . S
C146 O165 1.225 . S
C147 C146 1.491 . S
C147 C148 1.392 . S
C147 C152 1.356 . S
C148 C147 1.392 . S
C148 C149 1.368 . S
C148 H176 0.929 . S
C149 C148 1.368 . S
C149 C150 1.386 . S
C149 H177 0.929 . S
C150 C149 1.386 . S
C150 C151 1.373 . S
C151 C150 1.373 . S
C151 C152 1.409 . S
C151 H178 0.931 . S
C152 C147 1.356 . S
C152 C151 1.409 . S
C152 H179 0.930 . S
C153 O166 1.270 . S
C153 O167 1.248 . S
C154 O168 1.267 . S
C154 O169 1.278 . S
C155 Pr145 2.876 1_566 S
C155 C156 1.491 . S
C155 O170 1.254 . S
C155 O171 1.225 1_556 S
C156 C155 1.491 . S
C156 C157 1.392 . S
C156 C161 1.356 . S
C157 C156 1.392 . S
C157 C158 1.368 . S
C157 H180 0.929 1_556 S
C158 C157 1.368 . S
C158 C159 1.386 . S
C158 H181 0.929 . S
C159 C158 1.386 . S
C159 C160 1.373 . S
C160 C159 1.373 . S
C160 C161 1.409 . S
C160 H182 0.931 . S
C161 C156 1.356 . S
C161 C160 1.409 . S
C161 H183 0.930 . S
C162 O172 1.270 . S
C162 O173 1.248 . S
C163 O174 1.274 . S
C163 O175 1.278 1_556 S
O164 Pr144 2.562 . S
O164 C146 1.254 . S
O165 Pr144 2.490 . S
O165 C146 1.225 . S
O166 Pr144 2.695 . S
O166 Pr145 2.441 . S
O166 C153 1.270 . S
O167 Pr144 2.512 . S
O167 C153 1.248 . S
O168 Pr145 2.442 . S
O168 C154 1.267 . S
O169 Pr144 2.437 . S
O169 C154 1.278 . S
O170 Pr145 2.560 1_566 S
O170 C155 1.254 . S
O171 Pr145 2.484 1_565 S
O171 C155 1.225 1_554 S
O172 Pr144 2.436 1_565 S
O172 Pr145 2.697 1_565 S
O172 C162 1.270 . S
O173 Pr145 2.510 1_565 S
O173 C162 1.248 . S
O174 Pr144 2.428 1_566 S
O174 C163 1.274 . S
O175 Pr145 2.436 1_565 S
O175 C163 1.278 1_554 S
H176 C148 0.929 . S
H177 C149 0.929 . S
H178 C151 0.931 . S
H179 C152 0.930 . S
H180 C157 0.929 1_554 S
H181 C158 0.929 . S
H182 C160 0.931 . S
H183 C161 0.930 . S
Pr184 C186 2.880 . S
Pr184 O204 2.562 . S
Pr184 O205 2.490 . S
Pr184 O206 2.695 . S
Pr184 O207 2.512 . S
Pr184 O209 2.437 . S
Pr184 O212 2.436 . S
Pr184 O214 2.438 . S
Pr185 C195 2.880 . S
Pr185 O206 2.436 . S
Pr185 O208 2.438 . S
Pr185 O210 2.562 . S
Pr185 O211 2.490 . S
Pr185 O212 2.695 . S
Pr185 O213 2.512 . S
Pr185 O215 2.437 . S
C186 Pr184 2.880 . S
C186 C187 1.491 . S
C186 O204 1.254 . S
C186 O205 1.225 . S
C187 C186 1.491 . S
C187 C188 1.392 . S
C187 C192 1.356 . S
C188 C187 1.392 . S
C188 C189 1.368 . S
C188 H216 0.929 . S
C189 C188 1.368 . S
C189 C190 1.386 . S
C189 H217 0.929 . S
C190 C189 1.386 . S
C190 C191 1.373 . S
C191 C190 1.373 . S
C191 C192 1.409 . S
C191 H218 0.931 . S
C192 C187 1.356 . S
C192 C191 1.409 . S
C192 H219 0.930 . S
C193 O206 1.270 . S
C193 O207 1.248 . S
C194 O208 1.267 . S
C194 O209 1.278 . S
C195 Pr185 2.880 . S
C195 C196 1.491 . S
C195 O210 1.254 . S
C195 O211 1.225 . S
C196 C195 1.491 . S
C196 C197 1.392 . S
C196 C201 1.356 . S
C197 C196 1.392 . S
C197 C198 1.368 . S
C197 H220 0.929 . S
C198 C197 1.368 . S
C198 C199 1.386 . S
C198 H221 0.929 . S
C199 C198 1.386 . S
C199 C200 1.373 . S
C200 C199 1.373 . S
C200 C201 1.409 . S
C200 H222 0.931 . S
C201 C196 1.356 . S
C201 C200 1.409 . S
C201 H223 0.930 . S
C202 O212 1.270 . S
C202 O213 1.248 . S
C203 O214 1.267 . S
C203 O215 1.278 . S
O204 Pr184 2.562 . S
O204 C186 1.254 . S
O205 Pr184 2.490 . S
O205 C186 1.225 . S
O206 Pr184 2.695 . S
O206 Pr185 2.436 . S
O206 C193 1.270 . S
O207 Pr184 2.512 . S
O207 C193 1.248 . S
O208 Pr185 2.438 . S
O208 C194 1.267 . S
O209 Pr184 2.437 . S
O209 C194 1.278 . S
O210 Pr185 2.562 . S
O210 C195 1.254 . S
O211 Pr185 2.490 . S
O211 C195 1.225 . S
O212 Pr184 2.436 . S
O212 Pr185 2.695 . S
O212 C202 1.270 . S
O213 Pr185 2.512 . S
O213 C202 1.248 . S
O214 Pr184 2.438 . S
O214 C203 1.267 . S
O215 Pr185 2.437 . S
O215 C203 1.278 . S
H216 C188 0.929 . S
H217 C189 0.929 . S
H218 C191 0.931 . S
H219 C192 0.930 . S
H220 C197 0.929 . S
H221 C198 0.929 . S
H222 C200 0.931 . S
H223 C201 0.930 . S
Pr224 C226 2.880 1_455 S
Pr224 O244 2.562 1_455 S
Pr224 O245 2.490 . S
Pr224 O246 2.695 1_556 S
Pr224 O247 2.512 1_556 S
Pr224 O249 2.437 1_456 S
Pr224 O252 2.436 1_455 S
Pr224 O254 2.438 . S
Pr225 C235 2.880 . S
Pr225 O246 2.436 . S
Pr225 O248 2.438 1_455 S
Pr225 O250 2.562 . S
Pr225 O251 2.490 . S
Pr225 O252 2.695 1_454 S
Pr225 O253 2.512 1_454 S
Pr225 O255 2.437 1_554 S
C226 Pr224 2.880 1_655 S
C226 C227 1.491 . S
C226 O244 1.254 . S
C226 O245 1.225 1_655 S
C227 C226 1.491 . S
C227 C228 1.392 . S
C227 C232 1.356 . S
C228 C227 1.392 . S
C228 C229 1.368 . S
C228 H256 0.929 . S
C229 C228 1.368 . S
C229 C230 1.386 . S
C229 H257 0.929 . S
C230 C229 1.386 . S
C230 C231 1.373 . S
C231 C230 1.373 . S
C231 C232 1.409 . S
C231 H258 0.931 . S
C232 C227 1.356 . S
C232 C231 1.409 . S
C232 H259 0.930 . S
C233 O246 1.270 . S
C233 O247 1.248 . S
C234 O248 1.267 . S
C234 O249 1.278 . S
C235 Pr225 2.880 . S
C235 C236 1.491 . S
C235 O250 1.254 . S
C235 O251 1.225 . S
C236 C235 1.491 . S
C236 C237 1.392 . S
C236 C241 1.356 . S
C237 C236 1.392 . S
C237 C238 1.368 . S
C237 H260 0.929 . S
C238 C237 1.368 . S
C238 C239 1.386 . S
C238 H261 0.929 . S
C239 C238 1.386 . S
C239 C240 1.373 . S
C240 C239 1.373 . S
C240 C241 1.409 . S
C240 H262 0.931 . S
C241 C236 1.356 . S
C241 C240 1.409 . S
C241 H263 0.930 . S
C242 O252 1.270 . S
C242 O253 1.248 . S
C243 O254 1.267 . S
C243 O255 1.278 . S
O244 Pr224 2.562 1_655 S
O244 C226 1.254 . S
O245 Pr224 2.490 . S
O245 C226 1.225 1_455 S
O246 Pr224 2.695 1_554 S
O246 Pr225 2.436 . S
O246 C233 1.270 . S
O247 Pr224 2.512 1_554 S
O247 C233 1.248 . S
O248 Pr225 2.438 1_655 S
O248 C234 1.267 . S
O249 Pr224 2.437 1_654 S
O249 C234 1.278 . S
O250 Pr225 2.562 . S
O250 C235 1.254 . S
O251 Pr225 2.490 . S
O251 C235 1.225 . S
O252 Pr224 2.436 1_655 S
O252 Pr225 2.695 1_656 S
O252 C242 1.270 . S
O253 Pr225 2.512 1_656 S
O253 C242 1.248 . S
O254 Pr224 2.438 . S
O254 C243 1.267 . S
O255 Pr225 2.437 1_556 S
O255 C243 1.278 . S
H256 C228 0.929 . S
H257 C229 0.929 . S
H258 C231 0.931 . S
H259 C232 0.930 . S
H260 C237 0.929 . S
H261 C238 0.929 . S
H262 C240 0.931 . S
H263 C241 0.930 . S
C264 C265 1.369 . S
C264 C266 1.419 . S
C264 H268 0.930 . S
C265 C264 1.369 . S
C265 C274 1.429 . S
C266 C264 1.419 . S
C266 C267 1.363 . S
C266 H269 0.929 . S
C267 C266 1.363 . S
C267 C273 1.428 . S
H268 C264 0.930 . S
H269 C266 0.929 . S
S270 N271 1.613 . S
S270 N272 1.610 . S
N271 S270 1.613 . S
N271 C274 1.350 . S
N272 S270 1.610 . S
N272 C273 1.351 . S
C273 C267 1.428 . S
C273 N272 1.351 . S
C273 C274 1.434 . S
C274 C265 1.429 . S
C274 N271 1.350 . S
C274 C273 1.434 . S
C275 C276 1.369 . S
C275 C277 1.419 . S
C275 H279 0.930 . S
C276 C275 1.369 . S
C276 C285 1.429 . S
C277 C275 1.419 . S
C277 C278 1.363 . S
C277 H280 0.929 . S
C278 C277 1.363 . S
C278 C284 1.428 . S
H279 C275 0.930 . S
H280 C277 0.929 . S
S281 N282 1.613 . S
S281 N283 1.610 . S
N282 S281 1.613 . S
N282 C285 1.350 . S
N283 S281 1.610 . S
N283 C284 1.351 . S
C284 C278 1.428 . S
C284 N283 1.351 . S
C284 C285 1.434 . S
C285 C276 1.429 . S
C285 N282 1.350 . S
C285 C284 1.434 . S
C286 C287 1.369 . S
C286 C288 1.419 . S
C286 H290 0.930 . S
C287 C286 1.369 . S
C287 C296 1.429 . S
C288 C286 1.419 . S
C288 C289 1.363 . S
C288 H291 0.929 . S
C289 C288 1.363 . S
C289 C295 1.428 . S
H290 C286 0.930 . S
H291 C288 0.929 . S
S292 N293 1.613 . S
S292 N294 1.610 . S
N293 S292 1.613 . S
N293 C296 1.350 . S
N294 S292 1.610 . S
N294 C295 1.351 . S
C295 C289 1.428 . S
C295 N294 1.351 . S
C295 C296 1.434 . S
C296 C287 1.429 . S
C296 N293 1.350 . S
C296 C295 1.434 . S
C297 C298 1.369 . S
C297 C299 1.419 . S
C297 H301 0.930 . S
C298 C297 1.369 . S
C298 C307 1.429 . S
C299 C297 1.419 . S
C299 C300 1.363 . S
C299 H302 0.929 . S
C300 C299 1.363 . S
C300 C306 1.428 . S
H301 C297 0.930 . S
H302 C299 0.929 . S
S303 N304 1.613 . S
S303 N305 1.610 . S
N304 S303 1.613 . S
N304 C307 1.350 . S
N305 S303 1.610 . S
N305 C306 1.351 . S
C306 C300 1.428 . S
C306 N305 1.351 . S
C306 C307 1.434 . S
C307 C298 1.429 . S
C307 N304 1.350 . S
C307 C306 1.434 . S
C308 C309 1.369 . S
C308 C310 1.419 . S
C308 H312 0.930 . S
C309 C308 1.369 . S
C309 C318 1.429 . S
C310 C308 1.419 . S
C310 C311 1.363 . S
C310 H313 0.929 . S
C311 C310 1.363 . S
C311 C317 1.428 . S
H312 C308 0.930 . S
H313 C310 0.929 . S
S314 N315 1.613 . S
S314 N316 1.610 . S
N315 S314 1.613 . S
N315 C318 1.350 . S
N316 S314 1.610 . S
N316 C317 1.351 . S
C317 C311 1.428 . S
C317 N316 1.351 . S
C317 C318 1.434 . S
C318 C309 1.429 . S
C318 N315 1.350 . S
C318 C317 1.434 . S
C319 C320 1.369 . S
C319 C321 1.419 . S
C319 H323 0.930 . S
C320 C319 1.369 . S
C320 C329 1.429 . S
C321 C319 1.419 . S
C321 C322 1.363 . S
C321 H324 0.929 . S
C322 C321 1.363 . S
C322 C328 1.428 . S
H323 C319 0.930 . S
H324 C321 0.929 . S
S325 N326 1.613 . S
S325 N327 1.610 . S
N326 S325 1.613 . S
N326 C329 1.350 . S
N327 S325 1.610 . S
N327 C328 1.351 . S
C328 C322 1.428 . S
C328 N327 1.351 . S
C328 C329 1.434 . S
C329 C320 1.429 . S
C329 N326 1.350 . S
C329 C328 1.434 . S
C330 C331 1.369 . S
C330 C332 1.419 . S
C330 H334 0.930 . S
C331 C330 1.369 . S
C331 C340 1.429 . S
C332 C330 1.419 . S
C332 C333 1.363 . S
C332 H335 0.929 . S
C333 C332 1.363 . S
C333 C339 1.428 . S
H334 C330 0.930 . S
H335 C332 0.929 . S
S336 N337 1.613 . S
S336 N338 1.610 . S
N337 S336 1.613 . S
N337 C340 1.350 . S
N338 S336 1.610 . S
N338 C339 1.351 . S
C339 C333 1.428 . S
C339 N338 1.351 . S
C339 C340 1.434 . S
C340 C331 1.429 . S
C340 N337 1.350 . S
C340 C339 1.434 . S
C341 C342 1.369 . S
C341 C343 1.419 . S
C341 H345 0.930 . S
C342 C341 1.369 . S
C342 C351 1.429 . S
C343 C341 1.419 . S
C343 C344 1.363 . S
C343 H346 0.929 . S
C344 C343 1.363 . S
C344 C350 1.428 . S
H345 C341 0.930 . S
H346 C343 0.929 . S
S347 N348 1.613 . S
S347 N349 1.610 . S
N348 S347 1.613 . S
N348 C351 1.350 . S
N349 S347 1.610 . S
N349 C350 1.351 . S
C350 C344 1.428 . S
C350 N349 1.351 . S
C350 C351 1.434 . S
C351 C342 1.429 . S
C351 N348 1.350 . S
C351 C350 1.434 . S
C352 C353 1.369 . S
C352 C354 1.419 . S
C352 H356 0.930 . S
C353 C352 1.369 . S
C353 C362 1.429 . S
C354 C352 1.419 . S
C354 C355 1.363 . S
C354 H357 0.929 . S
C355 C354 1.363 . S
C355 C361 1.428 . S
H356 C352 0.930 . S
H357 C354 0.929 . S
S358 N359 1.613 . S
S358 N360 1.610 . S
N359 S358 1.613 . S
N359 C362 1.350 . S
N360 S358 1.610 . S
N360 C361 1.351 . S
C361 C355 1.428 . S
C361 N360 1.351 . S
C361 C362 1.434 . S
C362 C353 1.429 . S
C362 N359 1.350 . S
C362 C361 1.434 . S
C363 C364 1.369 . S
C363 C365 1.419 . S
C363 H367 0.930 . S
C364 C363 1.369 . S
C364 C373 1.429 . S
C365 C363 1.419 . S
C365 C366 1.363 . S
C365 H368 0.929 1_556 S
C366 C365 1.363 . S
C366 C372 1.428 . S
H367 C363 0.930 . S
H368 C365 0.929 1_554 S
S369 N370 1.613 . S
S369 N371 1.610 . S
N370 S369 1.613 . S
N370 C373 1.350 . S
N371 S369 1.610 . S
N371 C372 1.351 . S
C372 C366 1.428 . S
C372 N371 1.351 . S
C372 C373 1.434 . S
C373 C364 1.429 . S
C373 N370 1.350 . S
C373 C372 1.434 . S
C374 C375 1.369 . S
C374 C376 1.419 . S
C374 H378 0.930 . S
C375 C374 1.369 . S
C375 C384 1.429 . S
C376 C374 1.419 . S
C376 C377 1.363 . S
C376 H379 0.929 . S
C377 C376 1.363 . S
C377 C383 1.428 . S
H378 C374 0.930 . S
H379 C376 0.929 . S
S380 N381 1.613 1_455 S
S380 N382 1.610 . S
N381 S380 1.613 1_655 S
N381 C384 1.350 . S
N382 S380 1.610 . S
N382 C383 1.351 1_455 S
C383 C377 1.428 . S
C383 N382 1.351 1_655 S
C383 C384 1.434 . S
C384 C375 1.429 . S
C384 N381 1.350 . S
C384 C383 1.434 . S
C385 C386 1.369 . S
C385 C387 1.419 . S
C385 H389 0.930 . S
C386 C385 1.369 . S
C386 C395 1.429 . S
C387 C385 1.419 . S
C387 C388 1.363 . S
C387 H390 0.929 . S
C388 C387 1.363 . S
C388 C394 1.428 . S
H389 C385 0.930 . S
H390 C387 0.929 . S
S391 N392 1.613 . S
S391 N393 1.610 . S
N392 S391 1.613 . S
N392 C395 1.350 . S
N393 S391 1.610 . S
N393 C394 1.351 . S
C394 C388 1.428 . S
C394 N393 1.351 . S
C394 C395 1.434 . S
C395 C386 1.429 . S
C395 N392 1.350 . S
C395 C394 1.434 . S
C396 C397 1.369 . S
C396 C398 1.419 . S
C396 H400 0.930 . S
C397 C396 1.369 . S
C397 C406 1.429 . S
C398 C396 1.419 . S
C398 C399 1.363 . S
C398 H401 0.929 . S
C399 C398 1.363 . S
C399 C405 1.428 . S
H400 C396 0.930 . S
H401 C398 0.929 . S
S402 N403 1.613 . S
S402 N404 1.610 . S
N403 S402 1.613 . S
N403 C406 1.350 . S
N404 S402 1.610 . S
N404 C405 1.351 . S
C405 C399 1.428 . S
C405 N404 1.351 . S
C405 C406 1.434 . S
C406 C397 1.429 . S
C406 N403 1.350 . S
C406 C405 1.434 . S
C407 C408 1.369 . S
C407 C409 1.419 . S
C407 H411 0.930 . S
C408 C407 1.369 . S
C408 C417 1.429 . S
C409 C407 1.419 . S
C409 C410 1.363 . S
C409 H412 0.929 . S
C410 C409 1.363 . S
C410 C416 1.428 . S
H411 C407 0.930 . S
H412 C409 0.929 . S
S413 N414 1.613 . S
S413 N415 1.610 . S
N414 S413 1.613 . S
N414 C417 1.350 . S
N415 S413 1.610 . S
N415 C416 1.351 . S
C416 C410 1.428 . S
C416 N415 1.351 . S
C416 C417 1.434 . S
C417 C408 1.429 . S
C417 N414 1.350 . S
C417 C416 1.434 . S
C418 C419 1.369 . S
C418 C420 1.419 . S
C418 H422 0.930 . S
C419 C418 1.369 . S
C419 C428 1.429 . S
C420 C418 1.419 . S
C420 C421 1.363 . S
C420 H423 0.929 . S
C421 C420 1.363 . S
C421 C427 1.428 . S
H422 C418 0.930 . S
H423 C420 0.929 . S
S424 N425 1.613 . S
S424 N426 1.610 . S
N425 S424 1.613 . S
N425 C428 1.350 . S
N426 S424 1.610 . S
N426 C427 1.351 . S
C427 C421 1.428 . S
C427 N426 1.351 . S
C427 C428 1.434 . S
C428 C419 1.429 . S
C428 N425 1.350 . S
C428 C427 1.434 . S
C429 C430 1.369 . S
C429 C431 1.419 . S
C429 H433 0.930 . S
C430 C429 1.369 . S
C430 C439 1.429 . S
C431 C429 1.419 . S
C431 C432 1.363 . S
C431 H434 0.929 . S
C432 C431 1.363 . S
C432 C438 1.428 . S
H433 C429 0.930 . S
H434 C431 0.929 . S
S435 N436 1.613 . S
S435 N437 1.610 . S
N436 S435 1.613 . S
N436 C439 1.350 . S
N437 S435 1.610 . S
N437 C438 1.351 . S
C438 C432 1.428 . S
C438 N437 1.351 . S
C438 C439 1.434 . S
C439 C430 1.429 . S
C439 N436 1.350 . S
C439 C438 1.434 . S
C440 C441 1.369 . S
C440 C442 1.419 . S
C440 H444 0.930 . S
C441 C440 1.369 . S
C441 C450 1.429 . S
C442 C440 1.419 . S
C442 C443 1.363 . S
C442 H445 0.929 . S
C443 C442 1.363 . S
C443 C449 1.428 . S
H444 C440 0.930 . S
H445 C442 0.929 . S
S446 N447 1.613 . S
S446 N448 1.610 . S
N447 S446 1.613 . S
N447 C450 1.350 . S
N448 S446 1.610 . S
N448 C449 1.351 . S
C449 C443 1.428 . S
C449 N448 1.351 . S
C449 C450 1.434 . S
C450 C441 1.429 . S
C450 N447 1.350 . S
C450 C449 1.434 . S
C451 C452 1.369 . S
C451 C453 1.419 . S
C451 H455 0.930 . S
C452 C451 1.369 . S
C452 C461 1.429 . S
C453 C451 1.419 . S
C453 C454 1.363 . S
C453 H456 0.929 . S
C454 C453 1.363 . S
C454 C460 1.428 1_655 S
H455 C451 0.930 . S
H456 C453 0.929 . S
S457 N458 1.613 . S
S457 N459 1.610 . S
N458 S457 1.613 . S
N458 C461 1.350 1_455 S
N459 S457 1.610 . S
N459 C460 1.351 . S
C460 C454 1.428 1_455 S
C460 N459 1.351 . S
C460 C461 1.434 1_455 S
C461 C452 1.429 . S
C461 N458 1.350 1_655 S
C461 C460 1.434 1_655 S
C462 C463 1.369 . S
C462 C464 1.419 . S
C462 H466 0.930 . S
C463 C462 1.369 . S
C463 C472 1.429 . S
C464 C462 1.419 . S
C464 C465 1.363 . S
C464 H467 0.929 . S
C465 C464 1.363 . S
C465 C471 1.428 . S
H466 C462 0.930 . S
H467 C464 0.929 . S
S468 N469 1.613 . S
S468 N470 1.610 . S
N469 S468 1.613 . S
N469 C472 1.350 . S
N470 S468 1.610 . S
N470 C471 1.351 . S
C471 C465 1.428 . S
C471 N470 1.351 . S
C471 C472 1.434 . S
C472 C463 1.429 . S
C472 N469 1.350 . S
C472 C471 1.434 . S
C473 C474 1.369 . S
C473 C475 1.419 . S
C473 H477 0.930 . S
C474 C473 1.369 . S
C474 C483 1.429 . S
C475 C473 1.419 . S
C475 C476 1.363 . S
C475 H478 0.929 . S
C476 C475 1.363 . S
C476 C482 1.428 . S
H477 C473 0.930 . S
H478 C475 0.929 . S
S479 N480 1.613 . S
S479 N481 1.610 . S
N480 S479 1.613 . S
N480 C483 1.350 . S
N481 S479 1.610 . S
N481 C482 1.351 . S
C482 C476 1.428 . S
C482 N481 1.351 . S
C482 C483 1.434 . S
C483 C474 1.429 . S
C483 N480 1.350 . S
C483 C482 1.434 . S
C484 C485 1.369 . S
C484 C486 1.419 . S
C484 H488 0.930 . S
C485 C484 1.369 . S
C485 C494 1.429 . S
C486 C484 1.419 . S
C486 C487 1.363 . S
C486 H489 0.929 . S
C487 C486 1.363 . S
C487 C493 1.428 . S
H488 C484 0.930 . S
H489 C486 0.929 . S
S490 N491 1.613 . S
S490 N492 1.610 . S
N491 S490 1.613 . S
N491 C494 1.350 . S
N492 S490 1.610 . S
N492 C493 1.351 . S
C493 C487 1.428 . S
C493 N492 1.351 . S
C493 C494 1.434 . S
C494 C485 1.429 . S
C494 N491 1.350 . S
C494 C493 1.434 . S
C495 C496 1.369 . S
C495 C497 1.419 . S
C495 H499 0.930 . S
C496 C495 1.369 . S
C496 C505 1.429 . S
C497 C495 1.419 . S
C497 C498 1.363 . S
C497 H500 0.929 . S
C498 C497 1.363 . S
C498 C504 1.428 . S
H499 C495 0.930 . S
H500 C497 0.929 . S
S501 N502 1.613 . S
S501 N503 1.610 . S
N502 S501 1.613 . S
N502 C505 1.350 . S
N503 S501 1.610 . S
N503 C504 1.351 . S
C504 C498 1.428 . S
C504 N503 1.351 . S
C504 C505 1.434 . S
C505 C496 1.429 . S
C505 N502 1.350 . S
C505 C504 1.434 . S
C506 C507 1.369 . S
C506 C508 1.419 . S
C506 H510 0.930 . S
C507 C506 1.369 . S
C507 C516 1.429 . S
C508 C506 1.419 . S
C508 C509 1.363 . S
C508 H511 0.929 . S
C509 C508 1.363 . S
C509 C515 1.428 . S
H510 C506 0.930 . S
H511 C508 0.929 . S
S512 N513 1.613 . S
S512 N514 1.610 . S
N513 S512 1.613 . S
N513 C516 1.350 . S
N514 S512 1.610 . S
N514 C515 1.351 . S
C515 C509 1.428 . S
C515 N514 1.351 . S
C515 C516 1.434 . S
C516 C507 1.429 . S
C516 N513 1.350 . S
C516 C515 1.434 . S
C517 C518 1.369 . S
C517 C519 1.419 . S
C517 H521 0.930 . S
C518 C517 1.369 . S
C518 C527 1.429 . S
C519 C517 1.419 . S
C519 C520 1.363 . S
C519 H522 0.929 . S
C520 C519 1.363 . S
C520 C526 1.428 . S
H521 C517 0.930 . S
H522 C519 0.929 . S
S523 N524 1.613 . S
S523 N525 1.610 . S
N524 S523 1.613 . S
N524 C527 1.350 . S
N525 S523 1.610 . S
N525 C526 1.351 . S
C526 C520 1.428 . S
C526 N525 1.351 . S
C526 C527 1.434 . S
C527 C518 1.429 . S
C527 N524 1.350 . S
C527 C526 1.434 . S
C265 N1 0.987 . S
C267 C119 1.037 . S
C276 N18 1.399 . S
C278 C163 1.447 . S
C289 C193 2.043 . S
C287 N28 1.985 . S
C298 N40 2.846 . S
C300 C234 2.825 . S
C311 C150 1.298 . S
C309 N5 1.297 . S
C322 C114 2.150 . S
C320 N14 2.081 . S
C333 C242 1.302 . S
C331 N31 1.304 . S
C344 C203 2.110 . S
C342 N41 2.147 . S
C353 N2 1.361 . S
C355 C239 1.410 . S
C366 C153 2.252 1_556 S
C364 N27 2.314 . S
C375 N44 1.898 . S
C377 C122 1.957 1_655 S
C386 N15 1.868 . S
C388 C190 1.847 . S
C399 C110 1.519 . S
C397 N57 1.545 . S
C408 N70 1.264 . S
C410 C154 1.324 . S
C419 N79 2.198 . S
C421 C202 2.385 . S
C430 N93 2.711 . S
C432 C243 2.643 . S
C441 N54 0.884 . S
C443 C159 0.920 . S
C454 C123 2.638 1_655 S
C452 N66 2.661 . S
C465 C233 1.019 . S
C463 N80 0.979 . S
C476 C194 2.134 . S
C474 N96 2.251 . S
C485 N53 1.448 . S
C487 C230 1.566 . S
C498 C162 1.728 . S
C496 N83 1.636 . S
C509 C113 2.086 . S
C507 N92 2.208 . S
C518 N67 2.334 . S
C520 C199 2.291 . S
