# Generated by pormake.
# Topology anh, (6,3)-cn, num edge types: 1
# Building blocks:
#     Node 0, Type 0, BuildingBlock: NUHQIS_clean_sbu_0, # of connection points: 6
#     Node 1, Type 0, BuildingBlock: NUHQIS_clean_sbu_0, # of connection points: 6
#     Node 2, Type 0, BuildingBlock: NUHQIS_clean_sbu_0, # of connection points: 6
#     Node 3, Type 1, BuildingBlock: BETDAH_clean_linker_0, # of connection points: 3
#     Node 4, Type 1, BuildingBlock: BETDAH_clean_linker_0, # of connection points: 3
#     Node 5, Type 1, BuildingBlock: BETDAH_clean_linker_0, # of connection points: 3
#     Node 6, Type 1, BuildingBlock: BETDAH_clean_linker_0, # of connection points: 3
#     Node 7, Type 1, BuildingBlock: BETDAH_clean_linker_0, # of connection points: 3
#     Node 8, Type 1, BuildingBlock: BETDAH_clean_linker_0, # of connection points: 3
#     Edge 9, Type (0, 1), BuildingBlock: CIFDUS_clean_linker_0, # of connection points: 2
#     Edge 10, Type (0, 1), BuildingBlock: CIFDUS_clean_linker_0, # of connection points: 2
#     Edge 11, Type (0, 1), BuildingBlock: CIFDUS_clean_linker_0, # of connection points: 2
#     Edge 12, Type (0, 1), BuildingBlock: CIFDUS_clean_linker_0, # of connection points: 2
#     Edge 13, Type (0, 1), BuildingBlock: CIFDUS_clean_linker_0, # of connection points: 2
#     Edge 14, Type (0, 1), BuildingBlock: CIFDUS_clean_linker_0, # of connection points: 2
#     Edge 15, Type (0, 1), BuildingBlock: CIFDUS_clean_linker_0, # of connection points: 2
#     Edge 16, Type (0, 1), BuildingBlock: CIFDUS_clean_linker_0, # of connection points: 2
#     Edge 17, Type (0, 1), BuildingBlock: CIFDUS_clean_linker_0, # of connection points: 2
#     Edge 18, Type (0, 1), BuildingBlock: CIFDUS_clean_linker_0, # of connection points: 2
#     Edge 19, Type (0, 1), BuildingBlock: CIFDUS_clean_linker_0, # of connection points: 2
#     Edge 20, Type (0, 1), BuildingBlock: CIFDUS_clean_linker_0, # of connection points: 2
#     Edge 21, Type (0, 1), BuildingBlock: CIFDUS_clean_linker_0, # of connection points: 2
#     Edge 22, Type (0, 1), BuildingBlock: CIFDUS_clean_linker_0, # of connection points: 2
#     Edge 23, Type (0, 1), BuildingBlock: CIFDUS_clean_linker_0, # of connection points: 2
#     Edge 24, Type (0, 1), BuildingBlock: CIFDUS_clean_linker_0, # of connection points: 2
#     Edge 25, Type (0, 1), BuildingBlock: CIFDUS_clean_linker_0, # of connection points: 2
#     Edge 26, Type (0, 1), BuildingBlock: CIFDUS_clean_linker_0, # of connection points: 2
# Relax obj value: 0.285
# Max RMSD: 0.150
# Mean RMSD: 0.109
data_MOF--net-anh--node1-NUHQIS_clean_sbu_0--node2-BETDAH_clean_linker_0--edge1-CIFDUS_clean_linker_0
_symmetry_space_group_name_H-M    P1
_symmetry_Int_Tables_number       1
_symmetry_cell_setting            triclinic
loop_
_symmetry_equiv_pos_as_xyz
'x, y, z'
_cell_length_a     26.447431
_cell_length_b     26.401758
_cell_length_c     43.451183
_cell_angle_alpha  89.369352
_cell_angle_beta   96.054885
_cell_angle_gamma 120.37762
loop_
_atom_site_label
_atom_site_type_symbol
_atom_site_fract_x
_atom_site_fract_y
_atom_site_fract_z
_atom_type_partial_charge
Tb0 Tb 0.19764 0.65512 0.15805 0.0
Eu1 Eu 1.15179 0.74684 0.16757 0.0
C2 C 0.20051 0.69892 0.22316 0.0
C3 C 1.06332 0.60613 0.16995 0.0
C4 C 0.26988 0.56625 0.13916 0.0
C5 C 0.33472 0.52642 0.14809 0.0
C6 C 0.30694 0.55407 0.15933 0.0
C7 C 0.26404 0.55384 0.10716 0.0
C8 C 0.29201 0.52616 0.09587 0.0
C9 C 0.32567 0.51019 0.11645 0.0
C10 C 0.23038 0.58145 0.1527 0.0
O11 O 0.19861 0.69164 0.11308 0.0
O12 O 1.12489 0.71125 0.11744 0.0
O13 O 0.24551 0.80547 0.1572 0.0
O14 O 0.27896 0.74164 0.16954 0.0
C15 C 1.1568 0.70044 0.10023 0.0
O16 O 1.11685 0.80192 0.14923 0.0
O17 O 1.1336 0.79834 0.19869 0.0
O18 O 0.20429 0.74689 0.21211 0.0
O19 O 0.17926 0.65156 0.20534 0.0
O20 O 1.10103 0.59808 0.15617 0.0
O21 O 1.07669 0.659 0.17956 0.0
C22 C 0.28907 0.79557 0.16488 0.0
O23 O 0.25323 0.623 0.17452 0.0
O24 O 0.18833 0.58187 0.13431 0.0
C25 C 1.04491 0.79483 0.17949 0.0
C26 C 0.92102 0.73222 0.17511 0.0
C27 C 0.95023 0.7738 0.15323 0.0
C28 C 1.01177 0.80495 0.15546 0.0
C29 C 1.01583 0.7585 0.2033 0.0
C30 C 0.95439 0.72755 0.20112 0.0
C31 C 1.10678 0.8127 0.17647 0.0
H32 H 0.36146 0.51562 0.16434 0.0
H33 H 0.31181 0.56292 0.1841 0.0
H34 H 0.23547 0.56257 0.09108 0.0
H35 H 0.28449 0.51419 0.07136 0.0
H36 H 0.92573 0.7783 0.13285 0.0
H37 H 1.03315 0.83305 0.13697 0.0
H38 H 1.04002 0.75022 0.22243 0.0
H39 H 0.93297 0.69657 0.21859 0.0
Tb40 Tb 0.73941 0.22807 0.50014 0.0
Eu41 Eu 0.60085 0.17665 0.50713 0.0
C42 C 0.69846 0.2152 0.56382 0.0
C43 C 0.65518 1.09006 0.50579 0.0
C44 C 0.90341 0.3126 0.48918 0.0
C45 C 1.00962 0.37212 0.50084 0.0
C46 C 0.95412 0.33776 0.5107 0.0
C47 C 0.90849 0.32525 0.45779 0.0
C48 C 0.96418 0.3598 0.4479 0.0
C49 C 1.01528 0.38173 0.46923 0.0
C50 C 0.84802 0.26684 0.49959 0.0
O51 O 0.70254 0.23289 0.45387 0.0
O52 O 0.60725 0.15953 0.45699 0.0
O53 O 0.63312 0.27151 0.49707 0.0
O54 O 0.73225 0.30627 0.51013 0.0
C55 C 0.65025 0.19339 0.44047 0.0
O56 O 0.50908 0.14663 0.48942 0.0
O57 O 0.533 0.14515 0.5384 0.0
O58 O 0.65648 0.22442 0.5519 0.0
O59 O 0.72133 0.19512 0.54578 0.0
O60 O 0.70194 0.13265 0.49466 0.0
O61 O 0.6147 1.09923 0.5153 0.0
C62 C 0.68724 0.31534 0.50458 0.0
O63 O 0.82645 0.28155 0.52116 0.0
O64 O 0.80717 0.22939 0.47871 0.0
C65 C 0.44414 1.06339 0.51576 0.0
C66 C 0.37698 0.93962 0.50982 0.0
C67 C 0.37296 0.97386 0.48566 0.0
C68 C 0.40604 1.03511 0.48865 0.0
C69 C 0.44337 1.02935 0.54109 0.0
C70 C 0.41018 0.96804 0.53812 0.0
C71 C 0.4899 0.12639 0.51597 0.0
H72 H 1.0483 0.38942 0.5178 0.0
H73 H 0.95103 0.32835 0.535 0.0
H74 H 0.86988 0.30619 0.44075 0.0
H75 H 0.9674 0.36656 0.42338 0.0
H76 H 0.34812 0.9536 0.46343 0.0
H77 H 0.40495 1.06011 0.46891 0.0
H78 H 0.47127 1.04976 0.56262 0.0
H79 H 0.41327 0.94291 0.55735 0.0
Tb80 Tb 0.64565 0.67987 0.82985 0.0
Eu81 Eu 0.58286 0.53833 0.81685 0.0
C82 C 0.61755 0.59445 0.88369 0.0
C83 C 0.726 0.61987 0.8301 0.0
C84 C 0.72689 0.85337 0.84389 0.0
C85 C 0.8054 0.94273 0.87166 0.0
C86 C 0.77045 0.88147 0.86925 0.0
C87 C 0.71632 0.88756 0.82208 0.0
C88 C 0.7512 0.94873 0.82454 0.0
C89 C 0.79686 0.97642 0.84886 0.0
C90 C 0.6967 0.78911 0.83861 0.0
O91 O 0.65471 0.66369 0.78154 0.0
O92 O 0.57018 0.57532 0.77236 0.0
O93 O 0.50927 0.55331 0.82822 0.0
O94 O 0.55189 0.65341 0.82464 0.0
C95 C 0.61313 0.6223 0.76196 0.0
O96 O 0.56467 0.46033 0.7901 0.0
O97 O 0.52315 0.45111 0.832 0.0
O98 O 0.62649 0.56226 0.86504 0.0
O99 O 0.61311 0.63913 0.87332 0.0
O100 O 0.71866 0.66291 0.83942 0.0
O101 O 0.68123 0.57093 0.81643 0.0
C102 C 0.50557 0.60131 0.82776 0.0
O103 O 0.70524 0.7554 0.858 0.0
O104 O 0.65891 0.76115 0.81434 0.0
C105 C 0.55681 0.38621 0.82274 0.0
C106 C 0.62023 0.32844 0.83768 0.0
C107 C 0.57722 0.30911 0.81166 0.0
C108 C 0.54575 0.33785 0.80428 0.0
C109 C 0.59585 0.40236 0.85015 0.0
C110 C 0.62678 0.37323 0.85777 0.0
C111 C 0.53503 0.42481 0.81104 0.0
H112 H 0.84098 0.9636 0.89036 0.0
H113 H 0.77947 0.85612 0.88641 0.0
H114 H 0.68301 0.86706 0.80234 0.0
H115 H 0.7446 0.97432 0.80658 0.0
H116 H 0.57143 0.27525 0.79543 0.0
H117 H 0.51599 0.32502 0.78298 0.0
H118 H 0.60547 0.43995 0.86464 0.0
H119 H 0.65894 0.38861 0.87816 0.0
H120 H 0.57125 1.08506 0.25618 0.0
H121 H 0.72272 0.25628 0.24585 0.0
H122 H 0.61196 0.14898 0.1655 0.0
C123 C 0.59946 0.1191 0.24163 0.0
C124 C 0.58537 0.11011 0.20927 0.0
C125 C 0.64822 0.17194 0.25537 0.0
C126 C 0.68548 0.21527 0.23588 0.0
C127 C 0.67299 0.20696 0.20339 0.0
C128 C 0.6223 0.15484 0.19047 0.0
N129 N 0.70801 0.25054 0.18278 0.0
C130 C 0.76508 0.29969 0.18923 0.0
H131 H 0.67642 0.58464 0.5864 0.0
H132 H 0.66957 0.74315 0.57271 0.0
H133 H 0.66637 0.64265 0.49429 0.0
C134 C 0.67493 0.61655 0.57098 0.0
C135 C 0.67281 0.6079 0.5389 0.0
C136 C 0.67304 0.66466 0.58338 0.0
C137 C 0.67138 0.70633 0.56332 0.0
C138 C 0.66898 0.69871 0.53105 0.0
C139 C 0.66896 0.649 0.51912 0.0
N140 N 0.66445 0.73842 0.50973 0.0
C141 C 0.66964 0.79286 0.51661 0.0
H142 H 1.02087 0.62897 0.91764 0.0
H143 H 0.18496 0.63843 0.90431 0.0
H144 H 1.05418 0.60079 0.82659 0.0
C145 C 1.05026 0.62769 0.90251 0.0
C146 C 1.03109 0.61571 0.87055 0.0
C147 C 1.1054 0.63567 0.9153 0.0
C148 C 1.14207 0.63136 0.8952 0.0
C149 C 1.12366 0.61821 0.86322 0.0
C150 C 1.06808 0.61027 0.85123 0.0
N151 N 1.15919 0.61252 0.84226 0.0
C152 C 0.21578 0.6197 0.84887 0.0
H153 H 0.3672 0.73313 0.39789 0.0
H154 H 0.37263 0.58354 0.36386 0.0
H155 H 0.40102 0.62539 0.46144 0.0
C156 C 0.37296 0.69569 0.40192 0.0
C157 C 0.3832 0.68272 0.43248 0.0
C158 C 0.36756 0.65981 0.37677 0.0
C159 C 0.37898 0.61374 0.38254 0.0
C160 C 0.39286 0.60251 0.41294 0.0
C161 C 0.39452 0.63684 0.43791 0.0
N162 N 0.39134 0.54902 0.41866 0.0
C163 C 0.3407 0.50495 0.42948 0.0
H164 H 0.81438 0.30007 0.74662 0.0
H165 H 0.97506 0.31716 0.72067 0.0
H166 H 0.96198 0.34879 0.81544 0.0
C167 C 0.85979 0.31107 0.75242 0.0
C168 C 0.88514 0.32652 0.7833 0.0
C169 C 0.8917 0.30828 0.7293 0.0
C170 C 0.94995 0.32084 0.73777 0.0
C171 C 0.97499 0.33477 0.7688 0.0
C172 C 0.94293 0.33892 0.7914 0.0
N173 N 1.02703 0.33331 0.7781 0.0
C174 C 1.02065 0.28584 0.79482 0.0
H175 H 0.66661 0.51715 0.05929 0.0
H176 H 0.51207 0.34858 0.03338 0.0
H177 H 0.60145 0.38264 0.12554 0.0
C178 C 0.63427 0.47323 0.06507 0.0
C179 C 0.63905 0.45475 0.09509 0.0
C180 C 0.58914 0.43535 0.04239 0.0
C181 C 0.549 0.37786 0.05003 0.0
C182 C 0.55396 0.3586 0.07979 0.0
C183 C 0.59934 0.39689 0.1022 0.0
N184 N 0.50689 0.30559 0.08886 0.0
C185 C 0.45637 0.30649 0.09343 0.0
H186 H 0.31592 0.41277 0.14248 0.0
H187 H 0.38349 0.52348 0.06574 0.0
H188 H 0.42316 0.46341 0.04927 0.0
H189 H 0.44548 0.38476 0.05944 0.0
H190 H 0.38314 0.27768 0.13776 0.0
H191 H 0.33331 0.33044 0.15086 0.0
C192 C 0.3395 0.42377 0.1222 0.0
C193 C 0.34769 0.47288 0.10557 0.0
C194 C 0.36239 0.38943 0.11311 0.0
C195 C 0.37689 0.48593 0.07889 0.0
C196 C 0.39955 0.4517 0.06953 0.0
C197 C 0.4197 0.3722 0.07891 0.0
C198 C 0.41683 0.32734 0.0975 0.0
C199 C 0.39328 0.40397 0.08674 0.0
C200 C 0.38464 0.31164 0.12299 0.0
C201 C 0.35688 0.34215 0.13059 0.0
H202 H 1.10301 0.35922 0.48636 0.0
H203 H 1.05894 0.46721 0.42738 0.0
H204 H 1.15603 0.51274 0.40877 0.0
H205 H 0.25374 0.52299 0.41015 0.0
H206 H 0.29913 0.41681 0.46954 0.0
H207 H 0.20068 0.36884 0.48738 0.0
C208 C 1.11496 0.39317 0.46967 0.0
C209 C 1.07428 0.41033 0.45839 0.0
C210 C 0.17058 0.41887 0.45911 0.0
C211 C 1.08962 0.45333 0.43627 0.0
C212 C 1.145 0.47933 0.4257 0.0
C213 C 0.24152 0.48879 0.42675 0.0
C214 C 0.28233 0.47245 0.43845 0.0
C215 C 0.18568 0.46241 0.43697 0.0
C216 C 0.26743 0.42909 0.46017 0.0
C217 C 0.21154 0.40212 0.47039 0.0
H218 H 0.89077 1.0193 0.81798 0.0
H219 H 0.80033 1.07147 0.87547 0.0
H220 H 0.86936 0.1755 0.86721 0.0
H221 H 0.94868 0.24987 0.83885 0.0
H222 H 1.03499 0.19615 0.77916 0.0
H223 H 0.97508 1.094 0.79329 0.0
C224 C 0.8871 1.05379 0.82904 0.0
C225 C 0.8412 1.03874 0.84721 0.0
C226 C 0.92615 0.11274 0.82378 0.0
C227 C 0.83578 1.08285 0.86142 0.0
C228 C 0.87504 0.14197 0.85665 0.0
C229 C 0.95542 0.21584 0.82981 0.0
C230 C 0.99649 0.2298 0.80856 0.0
C231 C 0.91958 0.15729 0.83732 0.0
C232 C 1.0043 0.18591 0.79612 0.0
C233 C 0.96969 0.12767 0.80392 0.0
H234 H 0.87319 0.6152 0.18011 0.0
H235 H 0.82887 0.74644 0.15154 0.0
H236 H 0.73232 0.66934 0.12743 0.0
H237 H 0.66763 0.56669 0.10822 0.0
H238 H 0.71505 0.43679 0.13456 0.0
H239 H 0.8027 0.51119 0.16666 0.0
C240 C 0.8417 0.62693 0.16958 0.0
C241 C 0.85822 0.68647 0.16742 0.0
C242 C 0.78723 0.58267 0.15511 0.0
C243 C 0.81726 0.70092 0.1532 0.0
C244 C 0.76224 0.65692 0.13937 0.0
C245 C 0.69696 0.55471 0.12134 0.0
C246 C 0.6858 0.49681 0.11866 0.0
C247 C 0.74791 0.59798 0.1391 0.0
C248 C 0.72301 0.4812 0.13623 0.0
C249 C 0.77329 0.52383 0.15444 0.0
H250 H 0.43328 0.87993 0.52763 0.0
H251 H 0.2734 0.85744 0.47664 0.0
H252 H 0.25527 0.76641 0.45179 0.0
H253 H 0.29621 0.70653 0.43683 0.0
H254 H 0.45816 0.7316 0.48607 0.0
H255 H 0.46058 0.80432 0.52158 0.0
C256 C 0.39313 0.85403 0.51209 0.0
C257 C 0.35566 0.87646 0.50325 0.0
C258 C 0.38364 0.8024 0.49739 0.0
C259 C 0.30384 0.84203 0.48309 0.0
C260 C 0.29349 0.79004 0.46885 0.0
C261 C 0.33202 0.72794 0.45544 0.0
C262 C 0.37836 0.7159 0.45809 0.0
C263 C 0.33512 0.77209 0.47441 0.0
C264 C 0.42288 0.74144 0.48311 0.0
C265 C 0.42486 0.78378 0.50302 0.0
H266 H 0.73825 0.39914 0.8523 0.0
H267 H 0.60463 0.21893 0.82662 0.0
H268 H 0.68025 0.19904 0.81269 0.0
H269 H 0.77974 0.23925 0.79706 0.0
H270 H 0.91173 0.42018 0.82096 0.0
H271 H 0.84161 0.43289 0.84774 0.0
C272 C 0.72565 0.35477 0.84497 0.0
C273 C 0.66561 0.31092 0.8397 0.0
C274 C 0.76907 0.34413 0.83629 0.0
C275 C 0.65041 0.2538 0.83008 0.0
C276 C 0.69358 0.24245 0.82205 0.0
C277 C 0.79335 0.28091 0.80893 0.0
C278 C 0.84989 0.32916 0.80662 0.0
C279 C 0.75238 0.28827 0.82328 0.0
C280 C 0.86804 0.38275 0.82235 0.0
C281 C 0.82786 0.3901 0.83735 0.0
H282 H 0.7391 1.0583 0.50219 0.0
H283 H 0.55696 0.98673 0.51714 0.0
H284 H 0.54616 0.89016 0.52359 0.0
H285 H 0.58652 0.82305 0.52312 0.0
H286 H 0.76895 0.89485 0.50956 0.0
H287 H 0.78106 0.99284 0.50431 0.0
C288 C 0.6968 1.02148 0.50663 0.0
C289 C 0.64883 1.03038 0.50886 0.0
C290 C 0.69067 0.96531 0.51055 0.0
C291 C 0.59476 0.98182 0.51511 0.0
C292 C 0.58833 0.92607 0.51874 0.0
C293 C 0.6291 0.86039 0.51947 0.0
C294 C 0.67703 0.85178 0.51706 0.0
C295 C 0.63573 0.91695 0.51639 0.0
C296 C 0.73162 0.90042 0.51185 0.0
C297 C 0.73844 0.95647 0.50865 0.0
H298 H 0.77051 0.54957 0.81196 0.0
H299 H 0.81848 0.70539 0.86763 0.0
H300 H 0.91447 0.71754 0.88421 0.0
H301 H 0.98599 0.68467 0.88437 0.0
H302 H 0.94336 0.5319 0.82813 0.0
H303 H 0.84593 0.51868 0.81032 0.0
C304 C 0.80202 0.58635 0.82757 0.0
C305 C 0.7861 0.62639 0.83833 0.0
C306 C 0.85886 0.59394 0.83708 0.0
C307 C 0.82839 0.67371 0.85861 0.0
C308 C 0.88385 0.68085 0.86831 0.0
C309 C 0.95545 0.6483 0.86824 0.0
C310 C 0.97242 0.60914 0.85792 0.0
C311 C 0.89961 0.64126 0.8579 0.0
C312 C 0.93212 0.56302 0.8365 0.0
C313 C 0.87603 0.55528 0.82638 0.0
H314 H 0.33355 0.90926 0.14674 0.0
H315 H 0.38259 0.79998 0.20127 0.0
H316 H 0.478 0.88626 0.21932 0.0
H317 H 0.54636 0.99436 0.222 0.0
H318 H 0.4991 1.10282 0.16564 0.0
H319 H 0.40521 1.01596 0.14599 0.0
C320 C 0.36531 0.90409 0.1623 0.0
C321 C 0.35025 0.8476 0.17255 0.0
C322 C 0.42076 0.9542 0.17249 0.0
C323 C 0.39256 0.84235 0.19267 0.0
C324 C 0.44726 0.89197 0.20323 0.0
C325 C 0.51565 0.99895 0.20528 0.0
C326 C 0.53011 1.05555 0.19548 0.0
C327 C 0.46164 0.94833 0.19368 0.0
C328 C 0.48972 1.06016 0.17351 0.0
C329 C 0.43569 1.01035 0.16235 0.0
H330 H 0.61758 0.36092 0.48233 0.0
H331 H 0.77721 0.40557 0.54172 0.0
H332 H 0.78762 0.49947 0.55701 0.0
H333 H 0.74881 0.56762 0.55583 0.0
H334 H 0.59271 0.52617 0.49429 0.0
H335 H 0.58382 0.43336 0.47752 0.0
C336 C 0.65503 0.39142 0.49838 0.0
C337 C 0.69646 0.37554 0.51085 0.0
C338 C 0.6613 0.44623 0.50686 0.0
C339 C 0.74477 0.41622 0.5315 0.0
C340 C 0.75061 0.47005 0.54045 0.0
C341 C 0.71311 0.53847 0.53855 0.0
C342 C 0.67131 0.55406 0.52647 0.0
C343 C 0.70879 0.48532 0.52863 0.0
C344 C 0.62569 0.51576 0.50388 0.0
C345 C 0.62043 0.46239 0.49439 0.0
H346 H 0.48132 0.68876 0.84128 0.0
H347 H 0.39691 0.50141 0.82295 0.0
H348 H 0.30133 0.49031 0.8292 0.0
H349 H 0.23985 0.53333 0.83886 0.0
H350 H 0.32285 0.71985 0.85781 0.0
H351 H 0.41983 0.7316 0.85268 0.0
C352 C 0.44205 0.64548 0.83857 0.0
C353 C 0.44704 0.59603 0.83142 0.0
C354 C 0.38649 0.63911 0.84256 0.0
C355 C 0.39517 0.54039 0.82838 0.0
C356 C 0.34012 0.5339 0.83199 0.0
C357 C 0.27933 0.57642 0.84228 0.0
C358 C 0.27414 0.62559 0.84908 0.0
C359 C 0.33504 0.58281 0.83906 0.0
C360 C 0.32563 0.68122 0.85296 0.0
C361 C 0.38114 0.68795 0.84982 0.0
H362 H 1.02183 0.48766 0.15946 0.0
H363 H 0.97247 0.60665 0.19493 0.0
H364 H 0.87871 0.52355 0.2064 0.0
H365 H 0.80657 0.41584 0.20375 0.0
H366 H 0.85659 0.2971 0.16926 0.0
H367 H 0.95254 0.38033 0.15967 0.0
C368 C 0.99045 0.4956 0.16945 0.0
C369 C 1.00479 0.55411 0.17591 0.0
C370 C 0.9358 0.44711 0.17599 0.0
C371 C 0.96321 0.56268 0.18932 0.0
C372 C 0.90909 0.51488 0.19587 0.0
C373 C 0.83895 0.40828 0.19464 0.0
C374 C 0.82462 0.35012 0.18758 0.0
C375 C 0.89441 0.45678 0.18904 0.0
C376 C 0.86671 0.34124 0.17527 0.0
C377 C 0.92156 0.38898 0.16957 0.0
H378 H 0.19087 0.64958 0.05901 0.0
H379 H 1.09449 0.74053 0.06374 0.0
H380 H 1.07312 0.73154 0.00722 0.0
H381 H 1.08092 0.69705 0.95653 0.0
H382 H 0.17036 0.59867 0.95252 0.0
H383 H 0.19671 0.61316 0.00841 0.0
C384 C 0.16544 0.66778 0.04772 0.0
C385 C 1.14452 0.69593 0.06576 0.0
C386 C 1.15236 0.6615 0.0152 0.0
C387 C 1.11109 0.71858 0.05058 0.0
C388 C 1.09892 0.7135 0.0182 0.0
C389 C 1.10553 0.67796 0.96773 0.0
C390 C 1.12339 0.64666 0.94975 0.0
C391 C 1.119 0.68471 0.00026 0.0
C392 C 1.15667 0.6239 0.96518 0.0
C393 C 0.17135 0.63162 -0.00262 0.0
H394 H 0.73293 0.23299 0.39964 0.0
H395 H 0.54475 0.13642 0.40349 0.0
H396 H 0.52781 0.12269 0.34704 0.0
H397 H 0.56606 0.13809 0.29659 0.0
H398 H 0.75431 0.22926 0.29277 0.0
H399 H 0.77127 0.24609 0.349 0.0
C400 C 0.68814 0.20915 0.38816 0.0
C401 C 0.64017 0.18599 0.40597 0.0
C402 C 0.67865 0.2006 0.35559 0.0
C403 C 0.58254 0.1547 0.39055 0.0
C404 C 0.5728 0.14686 0.35819 0.0
C405 C 0.61094 0.16089 0.30793 0.0
C406 C 0.65876 0.18213 0.29003 0.0
C407 C 0.62049 0.16938 0.34047 0.0
C408 C 0.71645 0.21296 0.30554 0.0
C409 C 0.72627 0.22229 0.33786 0.0
H410 H 0.68863 0.71409 0.72814 0.0
H411 H 0.54546 0.5336 0.71869 0.0
H412 H 0.55156 0.53141 0.66353 0.0
H413 H 0.59774 0.57888 0.61763 0.0
H414 H 0.73849 0.75963 0.6248 0.0
H415 H 0.73282 0.76369 0.68073 0.0
C416 C 0.65867 0.67443 0.71397 0.0
C417 C 0.61675 0.62413 0.72789 0.0
C418 C 0.66193 0.67334 0.68169 0.0
C419 C 0.57815 0.5732 0.70895 0.0
C420 C 0.58159 0.57168 0.67722 0.0
C421 C 0.62738 0.61913 0.63146 0.0
C422 C 0.66892 0.66864 0.61715 0.0
C423 C 0.62343 0.62121 0.66337 0.0
C424 C 0.70613 0.72086 0.63528 0.0
C425 C 0.70298 0.7231 0.66728 0.0
H426 H 0.77666 0.19069 0.59538 0.0
H427 H 0.68321 0.28356 0.60448 0.0
H428 H 0.7371 0.32291 0.65593 0.0
H429 H 0.81304 0.33344 0.69728 0.0
H430 H 0.90231 0.23595 0.68895 0.0
H431 H 0.84932 0.19787 0.63751 0.0
C432 C 0.76774 0.21927 0.60866 0.0
C433 C 0.72601 0.23423 0.59611 0.0
C434 C 0.799 0.24187 0.63803 0.0
C435 C 0.71483 0.27108 0.61369 0.0
C436 C 0.74595 0.29393 0.64299 0.0
C437 C 0.82059 0.30338 0.68442 0.0
C438 C 0.862 0.28792 0.69712 0.0
C439 C 0.7885 0.28001 0.65524 0.0
C440 C 0.87183 0.24979 0.67967 0.0
C441 C 0.84092 0.2273 0.65036 0.0
H442 H 0.57667 0.48479 0.90118 0.0
H443 H 0.63474 0.65949 0.93734 0.0
H444 H 0.62656 0.62413 0.99032 0.0
H445 H 0.60916 0.54415 0.02589 0.0
H446 H 0.55918 0.37245 0.9876 0.0
H447 H 0.55754 0.40627 0.9355 0.0
C448 C 0.58805 0.5155 0.9206 0.0
C449 C 0.60764 0.57493 0.91552 0.0
C450 C 0.58454 0.49527 0.95047 0.0
C451 C 0.61994 0.61359 0.94079 0.0
C452 C 0.61552 0.59339 0.97098 0.0
C453 C 0.59826 0.51422 0.00616 0.0
C454 C 0.58461 0.45576 0.01077 0.0
C455 C 0.59905 0.53447 0.97607 0.0
C456 C 0.56913 0.41728 0.98488 0.0
C457 C 0.56863 0.4367 0.95504 0.0
H458 H 0.2808 0.66662 0.23631 0.0
H459 H 0.1845 0.73349 0.27845 0.0
H460 H 0.22765 0.72642 0.3301 0.0
H461 H 0.2878 0.69584 0.36243 0.0
H462 H 0.39285 0.63912 0.31995 0.0
H463 H 0.34935 0.64579 0.2688 0.0
C464 C 0.26958 0.67982 0.2569 0.0
C465 C 0.22926 0.69982 0.254 0.0
C466 C 0.2954 0.67677 0.28614 0.0
C467 C 0.2155 0.71792 0.28045 0.0
C468 C 0.23993 0.71363 0.30981 0.0
C469 C 0.30292 0.68654 0.34216 0.0
C470 C 0.34405 0.66712 0.34534 0.0
C471 C 0.2795 0.69259 0.31286 0.0
C472 C 0.36078 0.65327 0.31844 0.0
C473 C 0.33627 0.65753 0.28913 0.0
loop_
_geom_bond_atom_site_label_1
_geom_bond_atom_site_label_2
_geom_bond_distance
_geom_bond_site_symmetry_2
_ccdc_geom_bond_type
Tb0 C10 2.825 . S
Tb0 O11 2.347 . S
Tb0 O14 2.366 . S
Tb0 O19 2.418 . S
Tb0 O20 2.384 1_455 S
Tb0 O23 2.479 . S
Tb0 O24 2.471 . S
Eu1 O12 2.419 1_455 S
Eu1 O13 2.384 . S
Eu1 O16 2.479 1_455 S
Eu1 O17 2.471 1_455 S
Eu1 O18 2.347 . S
Eu1 O21 2.366 1_455 S
Eu1 C31 2.825 1_455 S
C2 O18 1.259 . S
C2 O19 1.265 . S
C3 O20 1.255 . S
C3 O21 1.265 . S
C4 C6 1.380 . S
C4 C7 1.374 . S
C4 C10 1.507 . S
C5 C6 1.384 . S
C5 C9 1.387 . S
C5 H32 0.930 . S
C6 C4 1.380 . S
C6 C5 1.384 . S
C6 H33 0.931 . S
C7 C4 1.374 . S
C7 C8 1.390 . S
C7 H34 0.930 . S
C8 C7 1.390 . S
C8 C9 1.391 . S
C8 H35 0.930 . S
C9 C5 1.387 . S
C9 C8 1.391 . S
C10 Tb0 2.825 . S
C10 C4 1.507 . S
C10 O23 1.238 . S
C10 O24 1.247 . S
O11 Tb0 2.347 . S
O11 C15 1.259 . S
O12 Eu1 2.419 1_655 S
O12 C15 1.259 1_655 S
O13 Eu1 2.384 . S
O13 C22 1.255 . S
O14 Tb0 2.366 . S
O14 C22 1.265 . S
C15 O11 1.259 . S
C15 O12 1.259 1_455 S
O16 Eu1 2.479 1_655 S
O16 C31 1.238 . S
O17 Eu1 2.471 1_655 S
O17 C31 1.247 . S
O18 Eu1 2.347 . S
O18 C2 1.259 . S
O19 Tb0 2.418 . S
O19 C2 1.265 . S
O20 Tb0 2.384 1_655 S
O20 C3 1.255 . S
O21 Eu1 2.366 1_655 S
O21 C3 1.265 . S
C22 O13 1.255 . S
C22 O14 1.265 . S
O23 Tb0 2.479 . S
O23 C10 1.238 . S
O24 Tb0 2.471 . S
O24 C10 1.247 . S
C25 C28 1.380 . S
C25 C29 1.374 . S
C25 C31 1.507 . S
C26 C27 1.387 . S
C26 C30 1.391 . S
C27 C26 1.387 . S
C27 C28 1.384 . S
C27 H36 0.930 . S
C28 C25 1.380 . S
C28 C27 1.384 . S
C28 H37 0.931 . S
C29 C25 1.374 . S
C29 C30 1.390 . S
C29 H38 0.930 . S
C30 C26 1.391 . S
C30 C29 1.390 . S
C30 H39 0.930 . S
C31 Eu1 2.825 1_655 S
C31 O16 1.238 . S
C31 O17 1.247 . S
C31 C25 1.507 . S
H32 C5 0.930 . S
H33 C6 0.931 . S
H34 C7 0.930 . S
H35 C8 0.930 . S
H36 C27 0.930 . S
H37 C28 0.931 . S
H38 C29 0.930 . S
H39 C30 0.930 . S
Tb40 C50 2.825 . S
Tb40 O51 2.347 . S
Tb40 O54 2.366 . S
Tb40 O59 2.418 . S
Tb40 O60 2.384 . S
Tb40 O63 2.479 . S
Tb40 O64 2.471 . S
Eu41 O52 2.418 . S
Eu41 O53 2.384 . S
Eu41 O56 2.479 1_545 S
Eu41 O57 2.471 1_545 S
Eu41 O58 2.347 . S
Eu41 O61 2.366 1_545 S
Eu41 C71 2.825 1_545 S
C42 O58 1.259 . S
C42 O59 1.265 . S
C43 O60 1.255 1_565 S
C43 O61 1.265 . S
C44 C46 1.380 . S
C44 C47 1.374 . S
C44 C50 1.507 . S
C45 C46 1.384 . S
C45 C49 1.387 . S
C45 H72 0.930 . S
C46 C44 1.380 . S
C46 C45 1.384 . S
C46 H73 0.931 . S
C47 C44 1.374 . S
C47 C48 1.390 . S
C47 H74 0.930 . S
C48 C47 1.390 . S
C48 C49 1.391 . S
C48 H75 0.930 . S
C49 C45 1.387 . S
C49 C48 1.391 . S
C50 Tb40 2.825 . S
C50 C44 1.507 . S
C50 O63 1.238 . S
C50 O64 1.247 . S
O51 Tb40 2.347 . S
O51 C55 1.259 . S
O52 Eu41 2.418 . S
O52 C55 1.265 . S
O53 Eu41 2.384 . S
O53 C62 1.255 . S
O54 Tb40 2.366 . S
O54 C62 1.265 . S
C55 O51 1.259 . S
C55 O52 1.265 . S
O56 Eu41 2.479 1_565 S
O56 C71 1.238 . S
O57 Eu41 2.471 1_565 S
O57 C71 1.247 . S
O58 Eu41 2.347 . S
O58 C42 1.259 . S
O59 Tb40 2.418 . S
O59 C42 1.265 . S
O60 Tb40 2.384 . S
O60 C43 1.255 1_545 S
O61 Eu41 2.366 1_565 S
O61 C43 1.265 . S
C62 O53 1.255 . S
C62 O54 1.265 . S
O63 Tb40 2.479 . S
O63 C50 1.238 . S
O64 Tb40 2.471 . S
O64 C50 1.247 . S
C65 C68 1.380 . S
C65 C69 1.374 . S
C65 C71 1.507 . S
C66 C67 1.387 . S
C66 C70 1.391 . S
C67 C66 1.387 . S
C67 C68 1.384 . S
C67 H76 0.930 . S
C68 C65 1.380 . S
C68 C67 1.384 . S
C68 H77 0.931 . S
C69 C65 1.374 . S
C69 C70 1.390 . S
C69 H78 0.930 . S
C70 C66 1.391 . S
C70 C69 1.390 . S
C70 H79 0.930 . S
C71 Eu41 2.825 1_565 S
C71 O56 1.238 . S
C71 O57 1.247 . S
C71 C65 1.507 . S
H72 C45 0.930 . S
H73 C46 0.931 . S
H74 C47 0.930 . S
H75 C48 0.930 . S
H76 C67 0.930 . S
H77 C68 0.931 . S
H78 C69 0.930 . S
H79 C70 0.930 . S
Tb80 C90 2.825 . S
Tb80 O91 2.347 . S
Tb80 O94 2.366 . S
Tb80 O99 2.418 . S
Tb80 O100 2.384 . S
Tb80 O103 2.479 . S
Tb80 O104 2.471 . S
Eu81 O92 2.418 . S
Eu81 O93 2.384 . S
Eu81 O96 2.479 . S
Eu81 O97 2.471 . S
Eu81 O98 2.347 . S
Eu81 O101 2.366 . S
Eu81 C111 2.825 . S
C82 O98 1.259 . S
C82 O99 1.265 . S
C83 O100 1.255 . S
C83 O101 1.265 . S
C84 C86 1.380 . S
C84 C87 1.374 . S
C84 C90 1.507 . S
C85 C86 1.384 . S
C85 C89 1.387 . S
C85 H112 0.930 . S
C86 C84 1.380 . S
C86 C85 1.384 . S
C86 H113 0.931 . S
C87 C84 1.374 . S
C87 C88 1.390 . S
C87 H114 0.930 . S
C88 C87 1.390 . S
C88 C89 1.391 . S
C88 H115 0.930 . S
C89 C85 1.387 . S
C89 C88 1.391 . S
C90 Tb80 2.825 . S
C90 C84 1.507 . S
C90 O103 1.238 . S
C90 O104 1.247 . S
O91 Tb80 2.347 . S
O91 C95 1.259 . S
O92 Eu81 2.418 . S
O92 C95 1.265 . S
O93 Eu81 2.384 . S
O93 C102 1.255 . S
O94 Tb80 2.366 . S
O94 C102 1.265 . S
C95 O91 1.259 . S
C95 O92 1.265 . S
O96 Eu81 2.479 . S
O96 C111 1.238 . S
O97 Eu81 2.471 . S
O97 C111 1.247 . S
O98 Eu81 2.347 . S
O98 C82 1.259 . S
O99 Tb80 2.418 . S
O99 C82 1.265 . S
O100 Tb80 2.384 . S
O100 C83 1.255 . S
O101 Eu81 2.366 . S
O101 C83 1.265 . S
C102 O93 1.255 . S
C102 O94 1.265 . S
O103 Tb80 2.479 . S
O103 C90 1.238 . S
O104 Tb80 2.471 . S
O104 C90 1.247 . S
C105 C108 1.380 . S
C105 C109 1.374 . S
C105 C111 1.507 . S
C106 C107 1.387 . S
C106 C110 1.391 . S
C107 C106 1.387 . S
C107 C108 1.384 . S
C107 H116 0.930 . S
C108 C105 1.380 . S
C108 C107 1.384 . S
C108 H117 0.931 . S
C109 C105 1.374 . S
C109 C110 1.390 . S
C109 H118 0.930 . S
C110 C106 1.391 . S
C110 C109 1.390 . S
C110 H119 0.930 . S
C111 Eu81 2.825 . S
C111 O96 1.238 . S
C111 O97 1.247 . S
C111 C105 1.507 . S
H112 C85 0.930 . S
H113 C86 0.931 . S
H114 C87 0.930 . S
H115 C88 0.930 . S
H116 C107 0.930 . S
H117 C108 0.931 . S
H118 C109 0.930 . S
H119 C110 0.930 . S
H120 C123 0.929 1_565 S
H121 C126 0.929 . S
H122 C128 0.930 . S
C123 H120 0.929 1_545 S
C123 C124 1.398 1_545 S
C123 C125 1.396 . S
C124 C123 1.398 1_565 S
C124 C128 1.407 1_565 S
C125 C123 1.396 . S
C125 C126 1.394 . S
C126 H121 0.929 . S
C126 C125 1.394 . S
C126 C127 1.382 . S
C127 C126 1.382 . S
C127 C128 1.392 . S
C127 N129 1.420 . S
C128 H122 0.930 . S
C128 C124 1.407 1_545 S
C128 C127 1.392 . S
N129 C127 1.420 . S
N129 C130 1.244 . S
C130 N129 1.244 . S
H131 C134 0.929 . S
H132 C137 0.929 . S
H133 C139 0.930 . S
C134 H131 0.929 . S
C134 C135 1.398 . S
C134 C136 1.396 . S
C135 C134 1.398 . S
C135 C139 1.407 . S
C136 C134 1.396 . S
C136 C137 1.394 . S
C137 H132 0.929 . S
C137 C136 1.394 . S
C137 C138 1.382 . S
C138 C137 1.382 . S
C138 C139 1.392 . S
C138 N140 1.420 . S
C139 H133 0.930 . S
C139 C135 1.407 . S
C139 C138 1.392 . S
N140 C138 1.420 . S
N140 C141 1.244 . S
C141 N140 1.244 . S
H142 C145 0.929 . S
H143 C148 0.929 . S
H144 C150 0.930 1_655 S
C145 H142 0.929 . S
C145 C146 1.398 . S
C145 C147 1.396 1_655 S
C146 C145 1.398 . S
C146 C150 1.395 1_655 S
C147 C145 1.396 1_455 S
C147 C148 1.394 . S
C148 H143 0.929 . S
C148 C147 1.394 . S
C148 C149 1.382 . S
C149 C148 1.382 . S
C149 C150 1.404 . S
C149 N151 1.420 . S
C150 H144 0.930 1_455 S
C150 C146 1.395 1_455 S
C150 C149 1.404 . S
N151 C149 1.420 . S
N151 C152 1.244 . S
C152 N151 1.244 . S
H153 C156 0.929 . S
H154 C159 0.929 . S
H155 C161 0.930 . S
C156 H153 0.929 . S
C156 C157 1.398 . S
C156 C158 1.396 . S
C157 C156 1.398 . S
C157 C161 1.407 . S
C158 C156 1.396 . S
C158 C159 1.394 1_455 S
C159 H154 0.929 . S
C159 C158 1.394 1_655 S
C159 C160 1.382 1_655 S
C160 C159 1.382 1_455 S
C160 C161 1.392 . S
C160 N162 1.420 1_455 S
C161 H155 0.930 . S
C161 C157 1.407 . S
C161 C160 1.392 . S
N162 C160 1.420 1_655 S
N162 C163 1.244 . S
C163 N162 1.244 . S
H164 C167 0.929 . S
H165 C170 0.929 1_565 S
H166 C172 0.930 . S
C167 H164 0.929 . S
C167 C168 1.398 . S
C167 C169 1.396 . S
C168 C167 1.398 . S
C168 C172 1.407 . S
C169 C167 1.396 . S
C169 C170 1.394 . S
C170 H165 0.929 1_545 S
C170 C169 1.394 . S
C170 C171 1.382 . S
C171 C170 1.382 . S
C171 C172 1.392 . S
C171 N173 1.420 1_545 S
C172 H166 0.930 . S
C172 C168 1.407 . S
C172 C171 1.392 . S
N173 C171 1.420 1_565 S
N173 C174 1.244 . S
C174 N173 1.244 . S
H175 C178 0.929 . S
H176 C181 0.929 . S
H177 C183 0.930 . S
C178 H175 0.929 . S
C178 C179 1.398 . S
C178 C180 1.396 . S
C179 C178 1.398 . S
C179 C183 1.407 . S
C180 C178 1.396 . S
C180 C181 1.394 . S
C181 H176 0.929 . S
C181 C180 1.394 . S
C181 C182 1.382 . S
C182 C181 1.382 . S
C182 C183 1.392 . S
C182 N184 1.420 . S
C183 H177 0.930 . S
C183 C179 1.407 . S
C183 C182 1.392 . S
N184 C182 1.420 . S
N184 C185 1.244 . S
C185 N184 1.244 . S
H186 C192 0.930 . S
H187 C195 0.930 . S
H188 C196 0.930 . S
H189 C197 0.930 . S
H190 C200 0.930 . S
H191 C201 0.930 . S
C192 H186 0.930 . S
C192 C193 1.355 . S
C192 C194 1.415 . S
C193 C192 1.355 . S
C193 C195 1.419 . S
C194 C192 1.415 . S
C194 C199 1.425 . S
C194 C201 1.409 . S
C195 H187 0.930 . S
C195 C193 1.419 . S
C195 C196 1.362 . S
C196 H188 0.930 . S
C196 C195 1.362 . S
C196 C199 1.409 . S
C197 H189 0.930 . S
C197 C198 1.355 . S
C197 C199 1.415 . S
C198 C197 1.355 . S
C198 C200 1.419 . S
C199 C194 1.425 . S
C199 C196 1.409 . S
C199 C197 1.415 . S
C200 H190 0.930 . S
C200 C198 1.419 . S
C200 C201 1.362 . S
C201 H191 0.930 . S
C201 C194 1.409 . S
C201 C200 1.362 . S
H202 C208 0.930 . S
H203 C211 0.930 . S
H204 C212 0.930 . S
H205 C213 0.930 . S
H206 C216 0.930 . S
H207 C217 0.930 . S
C208 H202 0.930 . S
C208 C209 1.355 . S
C208 C210 1.415 . S
C209 C208 1.355 . S
C209 C211 1.419 . S
C210 C208 1.415 . S
C210 C215 1.425 . S
C210 C217 1.409 . S
C211 H203 0.930 . S
C211 C209 1.419 . S
C211 C212 1.362 . S
C212 H204 0.930 . S
C212 C211 1.362 . S
C212 C215 1.409 . S
C213 H205 0.930 . S
C213 C214 1.355 . S
C213 C215 1.415 . S
C214 C213 1.355 . S
C214 C216 1.419 . S
C215 C210 1.425 . S
C215 C212 1.409 . S
C215 C213 1.415 . S
C216 H206 0.930 . S
C216 C214 1.419 . S
C216 C217 1.362 . S
C217 H207 0.930 . S
C217 C210 1.409 . S
C217 C216 1.362 . S
H218 C224 0.930 . S
H219 C227 0.930 . S
H220 C228 0.930 . S
H221 C229 0.930 . S
H222 C232 0.930 . S
H223 C233 0.930 . S
C224 H218 0.930 . S
C224 C225 1.355 . S
C224 C226 1.415 . S
C225 C224 1.355 . S
C225 C227 1.419 . S
C226 C224 1.415 . S
C226 C231 1.425 . S
C226 C233 1.409 . S
C227 H219 0.930 . S
C227 C225 1.419 . S
C227 C228 1.362 . S
C228 H220 0.930 . S
C228 C227 1.362 . S
C228 C231 1.409 . S
C229 H221 0.930 . S
C229 C230 1.355 . S
C229 C231 1.415 . S
C230 C229 1.355 . S
C230 C232 1.419 . S
C231 C226 1.425 . S
C231 C228 1.409 . S
C231 C229 1.415 . S
C232 H222 0.930 . S
C232 C230 1.419 . S
C232 C233 1.362 . S
C233 H223 0.930 . S
C233 C226 1.409 . S
C233 C232 1.362 . S
H234 C240 0.930 . S
H235 C243 0.930 . S
H236 C244 0.930 . S
H237 C245 0.930 . S
H238 C248 0.930 . S
H239 C249 0.930 . S
C240 H234 0.930 . S
C240 C241 1.355 . S
C240 C242 1.415 . S
C241 C240 1.355 . S
C241 C243 1.419 . S
C242 C240 1.415 . S
C242 C247 1.425 . S
C242 C249 1.409 . S
C243 H235 0.930 . S
C243 C241 1.419 . S
C243 C244 1.362 . S
C244 H236 0.930 . S
C244 C243 1.362 . S
C244 C247 1.409 . S
C245 H237 0.930 . S
C245 C246 1.355 . S
C245 C247 1.415 . S
C246 C245 1.355 . S
C246 C248 1.419 . S
C247 C242 1.425 . S
C247 C244 1.409 . S
C247 C245 1.415 . S
C248 H238 0.930 . S
C248 C246 1.419 . S
C248 C249 1.362 . S
C249 H239 0.930 . S
C249 C242 1.409 . S
C249 C248 1.362 . S
H250 C256 0.930 . S
H251 C259 0.930 . S
H252 C260 0.930 . S
H253 C261 0.930 . S
H254 C264 0.930 . S
H255 C265 0.930 . S
C256 H250 0.930 . S
C256 C257 1.355 . S
C256 C258 1.415 . S
C257 C256 1.355 . S
C257 C259 1.419 . S
C258 C256 1.415 . S
C258 C263 1.425 . S
C258 C265 1.409 . S
C259 H251 0.930 . S
C259 C257 1.419 . S
C259 C260 1.362 . S
C260 H252 0.930 . S
C260 C259 1.362 . S
C260 C263 1.409 . S
C261 H253 0.930 . S
C261 C262 1.355 . S
C261 C263 1.415 . S
C262 C261 1.355 . S
C262 C264 1.419 . S
C263 C258 1.425 . S
C263 C260 1.409 . S
C263 C261 1.415 . S
C264 H254 0.930 . S
C264 C262 1.419 . S
C264 C265 1.362 . S
C265 H255 0.930 . S
C265 C258 1.409 . S
C265 C264 1.362 . S
H266 C272 0.930 . S
H267 C275 0.930 . S
H268 C276 0.930 . S
H269 C277 0.930 . S
H270 C280 0.930 . S
H271 C281 0.930 . S
C272 H266 0.930 . S
C272 C273 1.355 . S
C272 C274 1.415 . S
C273 C272 1.355 . S
C273 C275 1.419 . S
C274 C272 1.415 . S
C274 C279 1.425 . S
C274 C281 1.409 . S
C275 H267 0.930 . S
C275 C273 1.419 . S
C275 C276 1.362 . S
C276 H268 0.930 . S
C276 C275 1.362 . S
C276 C279 1.409 . S
C277 H269 0.930 . S
C277 C278 1.355 . S
C277 C279 1.415 . S
C278 C277 1.355 . S
C278 C280 1.419 . S
C279 C274 1.425 . S
C279 C276 1.409 . S
C279 C277 1.415 . S
C280 H270 0.930 . S
C280 C278 1.419 . S
C280 C281 1.362 . S
C281 H271 0.930 . S
C281 C274 1.409 . S
C281 C280 1.362 . S
H282 C288 0.930 . S
H283 C291 0.930 . S
H284 C292 0.930 . S
H285 C293 0.930 . S
H286 C296 0.930 . S
H287 C297 0.930 . S
C288 H282 0.930 . S
C288 C289 1.355 . S
C288 C290 1.415 . S
C289 C288 1.355 . S
C289 C291 1.419 . S
C290 C288 1.415 . S
C290 C295 1.425 . S
C290 C297 1.409 . S
C291 H283 0.930 . S
C291 C289 1.419 . S
C291 C292 1.362 . S
C292 H284 0.930 . S
C292 C291 1.362 . S
C292 C295 1.409 . S
C293 H285 0.930 . S
C293 C294 1.355 . S
C293 C295 1.415 . S
C294 C293 1.355 . S
C294 C296 1.419 . S
C295 C290 1.425 . S
C295 C292 1.409 . S
C295 C293 1.415 . S
C296 H286 0.930 . S
C296 C294 1.419 . S
C296 C297 1.362 . S
C297 H287 0.930 . S
C297 C290 1.409 . S
C297 C296 1.362 . S
H298 C304 0.930 . S
H299 C307 0.930 . S
H300 C308 0.930 . S
H301 C309 0.930 . S
H302 C312 0.930 . S
H303 C313 0.930 . S
C304 H298 0.930 . S
C304 C305 1.355 . S
C304 C306 1.415 . S
C305 C304 1.355 . S
C305 C307 1.419 . S
C306 C304 1.415 . S
C306 C311 1.425 . S
C306 C313 1.409 . S
C307 H299 0.930 . S
C307 C305 1.419 . S
C307 C308 1.362 . S
C308 H300 0.930 . S
C308 C307 1.362 . S
C308 C311 1.409 . S
C309 H301 0.930 . S
C309 C310 1.355 . S
C309 C311 1.415 . S
C310 C309 1.355 . S
C310 C312 1.419 . S
C311 C306 1.425 . S
C311 C308 1.409 . S
C311 C309 1.415 . S
C312 H302 0.930 . S
C312 C310 1.419 . S
C312 C313 1.362 . S
C313 H303 0.930 . S
C313 C306 1.409 . S
C313 C312 1.362 . S
H314 C320 0.930 . S
H315 C323 0.930 . S
H316 C324 0.930 . S
H317 C325 0.930 . S
H318 C328 0.930 . S
H319 C329 0.930 . S
C320 H314 0.930 . S
C320 C321 1.355 . S
C320 C322 1.415 . S
C321 C320 1.355 . S
C321 C323 1.419 . S
C322 C320 1.415 . S
C322 C327 1.425 . S
C322 C329 1.409 . S
C323 H315 0.930 . S
C323 C321 1.419 . S
C323 C324 1.362 . S
C324 H316 0.930 . S
C324 C323 1.362 . S
C324 C327 1.409 . S
C325 H317 0.930 . S
C325 C326 1.355 . S
C325 C327 1.415 . S
C326 C325 1.355 . S
C326 C328 1.419 . S
C327 C322 1.425 . S
C327 C324 1.409 . S
C327 C325 1.415 . S
C328 H318 0.930 . S
C328 C326 1.419 . S
C328 C329 1.362 . S
C329 H319 0.930 . S
C329 C322 1.409 . S
C329 C328 1.362 . S
H330 C336 0.930 . S
H331 C339 0.930 . S
H332 C340 0.930 . S
H333 C341 0.930 . S
H334 C344 0.930 . S
H335 C345 0.930 . S
C336 H330 0.930 . S
C336 C337 1.355 . S
C336 C338 1.415 . S
C337 C336 1.355 . S
C337 C339 1.419 . S
C338 C336 1.415 . S
C338 C343 1.425 . S
C338 C345 1.409 . S
C339 H331 0.930 . S
C339 C337 1.419 . S
C339 C340 1.362 . S
C340 H332 0.930 . S
C340 C339 1.362 . S
C340 C343 1.409 . S
C341 H333 0.930 . S
C341 C342 1.355 . S
C341 C343 1.415 . S
C342 C341 1.355 . S
C342 C344 1.419 . S
C343 C338 1.425 . S
C343 C340 1.409 . S
C343 C341 1.415 . S
C344 H334 0.930 . S
C344 C342 1.419 . S
C344 C345 1.362 . S
C345 H335 0.930 . S
C345 C338 1.409 . S
C345 C344 1.362 . S
H346 C352 0.930 . S
H347 C355 0.930 . S
H348 C356 0.930 . S
H349 C357 0.930 . S
H350 C360 0.930 . S
H351 C361 0.930 . S
C352 H346 0.930 . S
C352 C353 1.355 . S
C352 C354 1.415 . S
C353 C352 1.355 . S
C353 C355 1.419 . S
C354 C352 1.415 . S
C354 C359 1.425 . S
C354 C361 1.409 . S
C355 H347 0.930 . S
C355 C353 1.419 . S
C355 C356 1.362 . S
C356 H348 0.930 . S
C356 C355 1.362 . S
C356 C359 1.409 . S
C357 H349 0.930 . S
C357 C358 1.355 . S
C357 C359 1.415 . S
C358 C357 1.355 . S
C358 C360 1.419 . S
C359 C354 1.425 . S
C359 C356 1.409 . S
C359 C357 1.415 . S
C360 H350 0.930 . S
C360 C358 1.419 . S
C360 C361 1.362 . S
C361 H351 0.930 . S
C361 C354 1.409 . S
C361 C360 1.362 . S
H362 C368 0.930 . S
H363 C371 0.930 . S
H364 C372 0.930 . S
H365 C373 0.930 . S
H366 C376 0.930 . S
H367 C377 0.930 . S
C368 H362 0.930 . S
C368 C369 1.355 . S
C368 C370 1.415 . S
C369 C368 1.355 . S
C369 C371 1.419 . S
C370 C368 1.415 . S
C370 C375 1.425 . S
C370 C377 1.409 . S
C371 H363 0.930 . S
C371 C369 1.419 . S
C371 C372 1.362 . S
C372 H364 0.930 . S
C372 C371 1.362 . S
C372 C375 1.409 . S
C373 H365 0.930 . S
C373 C374 1.355 . S
C373 C375 1.415 . S
C374 C373 1.355 . S
C374 C376 1.419 . S
C375 C370 1.425 . S
C375 C372 1.409 . S
C375 C373 1.415 . S
C376 H366 0.930 . S
C376 C374 1.419 . S
C376 C377 1.362 . S
C377 H367 0.930 . S
C377 C370 1.409 . S
C377 C376 1.362 . S
H378 C384 0.930 . S
H379 C387 0.930 . S
H380 C388 0.930 . S
H381 C389 0.930 . S
H382 C392 0.930 . S
H383 C393 0.921 1_554 S
C384 H378 0.930 . S
C384 C385 1.355 . S
C384 C386 1.415 . S
C385 C384 1.355 . S
C385 C387 1.419 . S
C386 C384 1.415 . S
C386 C391 1.425 . S
C386 C393 1.396 1_554 S
C387 H379 0.930 . S
C387 C385 1.419 . S
C387 C388 1.362 . S
C388 H380 0.930 . S
C388 C387 1.362 . S
C388 C391 1.409 . S
C389 H381 0.930 . S
C389 C390 1.355 . S
C389 C391 1.415 1_556 S
C390 C389 1.355 . S
C390 C392 1.419 . S
C391 C386 1.425 . S
C391 C388 1.409 . S
C391 C389 1.415 1_554 S
C392 H382 0.930 . S
C392 C390 1.419 . S
C392 C393 1.385 . S
C393 H383 0.921 1_556 S
C393 C386 1.396 1_556 S
C393 C392 1.385 . S
H394 C400 0.930 1_565 S
H395 C403 0.930 . S
H396 C404 0.930 . S
H397 C405 0.930 . S
H398 C408 0.930 1_565 S
H399 C409 0.930 . S
C400 H394 0.930 1_545 S
C400 C401 1.355 . S
C400 C402 1.415 . S
C401 C400 1.355 . S
C401 C403 1.419 . S
C402 C400 1.415 . S
C402 C407 1.425 . S
C402 C409 1.409 1_545 S
C403 H395 0.930 . S
C403 C401 1.419 . S
C403 C404 1.362 . S
C404 H396 0.930 . S
C404 C403 1.362 . S
C404 C407 1.409 . S
C405 H397 0.930 . S
C405 C406 1.355 . S
C405 C407 1.415 . S
C406 C405 1.355 . S
C406 C408 1.419 . S
C407 C402 1.425 . S
C407 C404 1.409 . S
C407 C405 1.415 . S
C408 H398 0.930 1_545 S
C408 C406 1.419 . S
C408 C409 1.362 1_545 S
C409 H399 0.930 . S
C409 C402 1.409 1_565 S
C409 C408 1.362 1_565 S
H410 C416 0.930 . S
H411 C419 0.930 . S
H412 C420 0.930 . S
H413 C421 0.930 . S
H414 C424 0.930 . S
H415 C425 0.930 . S
C416 H410 0.930 . S
C416 C417 1.355 . S
C416 C418 1.415 . S
C417 C416 1.355 . S
C417 C419 1.419 . S
C418 C416 1.415 . S
C418 C423 1.425 . S
C418 C425 1.409 . S
C419 H411 0.930 . S
C419 C417 1.419 . S
C419 C420 1.362 . S
C420 H412 0.930 . S
C420 C419 1.362 . S
C420 C423 1.409 . S
C421 H413 0.930 . S
C421 C422 1.355 . S
C421 C423 1.415 . S
C422 C421 1.355 . S
C422 C424 1.419 . S
C423 C418 1.425 . S
C423 C420 1.409 . S
C423 C421 1.415 . S
C424 H414 0.930 . S
C424 C422 1.419 . S
C424 C425 1.362 . S
C425 H415 0.930 . S
C425 C418 1.409 . S
C425 C424 1.362 . S
H426 C432 0.930 . S
H427 C435 0.930 . S
H428 C436 0.930 . S
H429 C437 0.930 . S
H430 C440 0.930 . S
H431 C441 0.930 . S
C432 H426 0.930 . S
C432 C433 1.355 . S
C432 C434 1.415 . S
C433 C432 1.355 . S
C433 C435 1.419 . S
C434 C432 1.415 . S
C434 C439 1.425 . S
C434 C441 1.409 1_545 S
C435 H427 0.930 . S
C435 C433 1.419 . S
C435 C436 1.362 . S
C436 H428 0.930 . S
C436 C435 1.362 . S
C436 C439 1.409 . S
C437 H429 0.930 . S
C437 C438 1.355 . S
C437 C439 1.415 . S
C438 C437 1.355 . S
C438 C440 1.419 1_545 S
C439 C434 1.425 . S
C439 C436 1.409 . S
C439 C437 1.415 . S
C440 H430 0.930 . S
C440 C438 1.419 1_565 S
C440 C441 1.362 . S
C441 H431 0.930 . S
C441 C434 1.409 1_565 S
C441 C440 1.362 . S
H442 C448 0.930 . S
H443 C451 0.930 . S
H444 C452 0.930 . S
H445 C453 0.930 . S
H446 C456 0.930 . S
H447 C457 0.930 . S
C448 H442 0.930 . S
C448 C449 1.355 . S
C448 C450 1.415 . S
C449 C448 1.355 . S
C449 C451 1.419 . S
C450 C448 1.415 . S
C450 C455 1.425 . S
C450 C457 1.409 . S
C451 H443 0.930 . S
C451 C449 1.419 . S
C451 C452 1.362 . S
C452 H444 0.930 . S
C452 C451 1.362 . S
C452 C455 1.409 . S
C453 H445 0.930 . S
C453 C454 1.355 . S
C453 C455 1.415 1_554 S
C454 C453 1.355 . S
C454 C456 1.419 . S
C455 C450 1.425 . S
C455 C452 1.409 . S
C455 C453 1.415 1_556 S
C456 H446 0.930 . S
C456 C454 1.419 . S
C456 C457 1.362 1_554 S
C457 H447 0.930 . S
C457 C450 1.409 . S
C457 C456 1.362 1_556 S
H458 C464 0.930 . S
H459 C467 0.930 1_655 S
H460 C468 0.930 . S
H461 C469 0.930 1_655 S
H462 C472 0.930 . S
H463 C473 0.930 . S
C464 H458 0.930 . S
C464 C465 1.355 . S
C464 C466 1.415 . S
C465 C464 1.355 . S
C465 C467 1.419 . S
C466 C464 1.415 . S
C466 C471 1.425 . S
C466 C473 1.409 . S
C467 H459 0.930 1_455 S
C467 C465 1.419 . S
C467 C468 1.362 1_455 S
C468 H460 0.930 . S
C468 C467 1.362 1_655 S
C468 C471 1.409 1_655 S
C469 H461 0.930 1_455 S
C469 C470 1.355 . S
C469 C471 1.415 . S
C470 C469 1.355 . S
C470 C472 1.419 . S
C471 C466 1.425 . S
C471 C468 1.409 1_455 S
C471 C469 1.415 . S
C472 H462 0.930 . S
C472 C470 1.419 . S
C472 C473 1.362 . S
C473 H463 0.930 . S
C473 C466 1.409 . S
C473 C472 1.362 . S
C193 C9 0.775 . S
C198 C185 0.773 . S
C209 C49 0.513 . S
C214 C163 0.486 . S
C225 C89 0.499 . S
C230 C174 0.364 . S
C241 C26 0.442 . S
C246 C179 0.440 . S
C262 C157 0.287 . S
C257 C66 0.562 . S
C278 C168 0.321 . S
C273 C106 0.485 . S
C289 C43 3.055 . S
C294 C141 2.972 . S
C305 C83 3.015 . S
C310 C146 2.980 . S
C321 C22 3.053 . S
C326 C124 2.993 . S
C342 C135 3.009 . S
C337 C62 3.048 . S
C358 C152 3.008 . S
C353 C102 3.065 . S
C369 C3 3.055 . S
C374 C130 2.996 . S
C390 C147 1.736 . S
C385 C15 1.698 . S
C401 C55 1.763 . S
C406 C125 1.748 . S
C417 C95 1.707 . S
C422 C136 1.764 . S
C438 C169 1.199 . S
C433 C42 1.143 . S
C454 C180 1.185 . S
C449 C82 1.163 . S
C465 C2 1.173 . S
C470 C158 1.155 . S
