# Generated by pormake.
# Topology rtl, (3,6)-cn, num edge types: 1
# Building blocks:
#     Node 0, Type 0, BuildingBlock: ESEHIV_clean_linker_0, # of connection points: 3
#     Node 1, Type 0, BuildingBlock: ESEHIV_clean_linker_0, # of connection points: 3
#     Node 2, Type 0, BuildingBlock: ESEHIV_clean_linker_0, # of connection points: 3
#     Node 3, Type 0, BuildingBlock: ESEHIV_clean_linker_0, # of connection points: 3
#     Node 4, Type 1, BuildingBlock: KUMBOL_clean_sbu_1, # of connection points: 6
#     Node 5, Type 1, BuildingBlock: KUMBOL_clean_sbu_1, # of connection points: 6
#     Edge 6, Type (0, 1), BuildingBlock: ZUJKAS_clean_linker_0, # of connection points: 2
#     Edge 7, Type (0, 1), BuildingBlock: ZUJKAS_clean_linker_0, # of connection points: 2
#     Edge 8, Type (0, 1), BuildingBlock: ZUJKAS_clean_linker_0, # of connection points: 2
#     Edge 9, Type (0, 1), BuildingBlock: ZUJKAS_clean_linker_0, # of connection points: 2
#     Edge 10, Type (0, 1), BuildingBlock: ZUJKAS_clean_linker_0, # of connection points: 2
#     Edge 11, Type (0, 1), BuildingBlock: ZUJKAS_clean_linker_0, # of connection points: 2
#     Edge 12, Type (0, 1), BuildingBlock: ZUJKAS_clean_linker_0, # of connection points: 2
#     Edge 13, Type (0, 1), BuildingBlock: ZUJKAS_clean_linker_0, # of connection points: 2
#     Edge 14, Type (0, 1), BuildingBlock: ZUJKAS_clean_linker_0, # of connection points: 2
#     Edge 15, Type (0, 1), BuildingBlock: ZUJKAS_clean_linker_0, # of connection points: 2
#     Edge 16, Type (0, 1), BuildingBlock: ZUJKAS_clean_linker_0, # of connection points: 2
#     Edge 17, Type (0, 1), BuildingBlock: ZUJKAS_clean_linker_0, # of connection points: 2
# Relax obj value: 0.017
# Max RMSD: 0.099
# Mean RMSD: 0.059
data_MOF--net-rtl--node1-KUMBOL_clean_sbu_1--node2-ESEHIV_clean_linker_0--edge1-ZUJKAS_clean_linker_0
_symmetry_space_group_name_H-M    P1
_symmetry_Int_Tables_number       1
_symmetry_cell_setting            triclinic
loop_
_symmetry_equiv_pos_as_xyz
'x, y, z'
_cell_length_a     40.220539
_cell_length_b     40.891044
_cell_length_c     35.490813
_cell_angle_alpha  80.184463
_cell_angle_beta   99.28084
_cell_angle_gamma 90.491471
loop_
_atom_site_label
_atom_site_type_symbol
_atom_site_fract_x
_atom_site_fract_y
_atom_site_fract_z
_atom_type_partial_charge
H0 H 0.18283 0.89706 0.01941 0.0
H1 H 0.25025 0.82259 0.09224 0.0
H2 H 0.24303 0.83606 0.96823 0.0
C3 C 0.20185 0.87773 0.0226 0.0
C4 C 0.21144 0.86866 0.98943 0.0
C5 C 0.21584 0.86135 0.0598 0.0
C6 C 0.23986 0.83573 0.06364 0.0
C7 C 0.24984 0.82641 0.03072 0.0
C8 C 0.23571 0.84327 0.99378 0.0
H9 H 0.63498 0.65423 0.60686 0.0
H10 H 0.69728 0.72374 0.54685 0.0
H11 H 0.69877 0.71921 0.66904 0.0
C12 C 0.65357 0.67356 0.60732 0.0
C13 C 0.66574 0.68472 0.6423 0.0
C14 C 0.66441 0.68792 0.57265 0.0
C15 C 0.68793 0.71345 0.57328 0.0
C16 C 0.70047 0.72502 0.60779 0.0
C17 C 0.68921 0.7105 0.64225 0.0
H18 H 0.83444 0.10563 0.05475 0.0
H19 H 0.77457 0.16908 0.10313 0.0
H20 H 0.76724 0.17907 0.97943 0.0
C21 C 0.81529 0.12496 0.05074 0.0
C22 C 0.80157 0.14068 0.01312 0.0
C23 C 0.80599 0.1354 0.08331 0.0
C24 C 0.78223 0.16136 0.07801 0.0
C25 C 0.76801 0.17721 0.04068 0.0
C26 C 0.77774 0.16666 0.00833 0.0
H27 H 0.37734 0.35344 0.46386 0.0
H28 H 0.30833 0.29078 0.52208 0.0
H29 H 0.31564 0.2858 0.4037 0.0
C30 C 0.35817 0.33467 0.46344 0.0
C31 C 0.34825 0.32108 0.42956 0.0
C32 C 0.344 0.32386 0.49702 0.0
C33 C 0.31969 0.29902 0.49649 0.0
C34 C 0.30949 0.28499 0.46308 0.0
C35 C 0.32408 0.29596 0.42982 0.0
C36 C 0.95834 0.10229 0.49074 0.0
C37 C 0.90229 0.08973 0.46027 0.0
C38 C 0.93175 0.0804 0.48739 0.0
C39 C 0.90003 0.1211 0.43652 0.0
C40 C 0.95608 0.13384 0.46701 0.0
C41 C 0.92683 0.14309 0.4399 0.0
N42 N 0.98672 0.09242 0.51654 0.0
C43 C 0.01328 0.11314 0.52099 0.0
C44 C 0.98347 0.15506 0.47099 0.0
C45 C 0.01213 0.1447 0.49822 0.0
Gd46 Gd 0.03419 0.96331 0.52065 0.0
Gd47 Gd 0.98689 0.03856 0.55187 0.0
N48 N 0.93512 0.04969 0.50985 0.0
C49 C 0.87601 0.0672 0.45769 0.0
C50 C 0.90887 0.02832 0.50874 0.0
C51 C 0.87918 0.03653 0.48234 0.0
H52 H 0.91023 0.00512 0.52837 0.0
H53 H 0.85864 0.01926 0.48123 0.0
H54 H 0.10971 0.00168 0.51928 0.0
H55 H 0.03514 0.10552 0.54259 0.0
H56 H 0.16465 1.00016 0.56127 0.0
H57 H 0.853 0.07341 0.43719 0.0
H58 H 0.87766 0.12859 0.41541 0.0
H59 H 0.9949 0.89474 0.55328 0.0
H60 H 0.9827 0.17949 0.45329 0.0
H61 H 0.0333 0.16104 0.50175 0.0
H62 H 0.15993 0.90464 0.65938 0.0
H63 H 0.9247 0.16718 0.42132 0.0
H64 H 0.06025 0.83945 0.65002 0.0
H65 H 0.00559 0.84595 0.60573 0.0
N66 N 0.04288 0.91538 0.56798 0.0
C67 C 0.07342 0.91189 0.59128 0.0
C68 C 0.01878 0.89201 0.5725 0.0
C69 C 0.05576 0.86074 0.62692 0.0
C70 C 0.02483 0.86436 0.60205 0.0
C71 C 0.08052 0.88464 0.62175 0.0
H72 H 0.11754 0.86184 0.67023 0.0
N73 N 0.08928 0.96268 0.55602 0.0
C74 C 0.09708 0.93648 0.5855 0.0
C75 C 0.15288 0.95772 0.60153 0.0
C76 C 0.12883 0.93374 0.60958 0.0
C77 C 0.11384 0.98407 0.54585 0.0
C78 C 0.1456 0.98255 0.569 0.0
O79 O 0.98673 0.03946 0.48791 0.0
O80 O 0.98746 0.98472 0.48025 0.0
O81 O 0.06247 0.96061 0.47391 0.0
O82 O 0.03314 0.91895 0.49457 0.0
O83 O 0.9655 0.9869 0.56511 0.0
O84 O 0.97853 0.95598 0.52003 0.0
O85 O 0.0279 0.96213 0.58318 0.0
O86 O 0.03459 0.01639 0.58918 0.0
O87 O 0.95885 0.03219 0.60006 0.0
O88 O 0.98377 0.0784 0.58445 0.0
O89 O 0.05038 0.0163 0.50148 0.0
O90 O 0.0427 0.04287 0.55179 0.0
C91 C 0.97939 0.01606 0.467 0.0
C92 C 0.96063 0.96149 0.54643 0.0
C93 C 0.03516 0.93044 0.42761 0.0
C94 C 0.04205 0.92804 0.36102 0.0
C95 C 0.98601 0.93232 0.37757 0.0
C96 C 1.00005 0.93228 0.41617 0.0
C97 C 0.00679 0.9302 0.35012 0.0
C98 C 0.05604 0.92832 0.4 0.0
C99 C 0.05023 0.93207 0.46787 0.0
C100 C 0.13581 0.9069 0.64036 0.0
C101 C 0.11174 0.88242 0.64642 0.0
H102 H 0.17756 0.9565 0.6193 0.0
C103 C 0.03819 0.98485 0.60402 0.0
C104 C 0.05717 0.04052 0.52165 0.0
C105 C 0.98269 0.05982 0.65064 0.0
C106 C 0.97547 0.0622 0.71712 0.0
C107 C 0.03139 0.05468 0.70157 0.0
C108 C 0.01761 0.05589 0.6627 0.0
C109 C 0.01056 0.05784 0.72867 0.0
C110 C 0.96172 0.06285 0.67787 0.0
C111 C 0.96799 0.06067 0.60977 0.0
H112 H 0.95892 0.93385 0.36893 0.0
H113 H 0.98351 0.93372 0.43707 0.0
H114 H 0.99518 0.92966 0.3205 0.0
H115 H 0.08315 0.92735 0.40883 0.0
H116 H 0.05836 0.0517 0.71064 0.0
H117 H 0.03422 0.05406 0.64201 0.0
H118 H 0.02207 0.05768 0.75847 0.0
H119 H 0.93473 0.06563 0.66843 0.0
C120 C 0.60831 0.53125 0.02624 0.0
C121 C 0.60723 0.59067 1.00312 0.0
C122 C 0.59297 0.56213 0.02199 0.0
C123 C 0.63625 0.58739 0.98665 0.0
C124 C 0.63841 0.52808 0.01145 0.0
C125 C 0.65177 0.55614 0.99073 0.0
N126 N 0.59511 0.50479 0.04718 0.0
C127 C 0.6129 0.4755 0.05805 0.0
C128 C 0.65493 0.4971 0.01934 0.0
C129 C 0.64248 0.47088 0.04345 0.0
Gd130 Gd 0.46614 0.4816 0.99651 0.0
Gd131 Gd 0.54384 0.51472 0.06792 0.0
N132 N 0.56459 0.56438 0.03761 0.0
C133 C 0.59218 0.62166 1.00201 0.0
C134 C 0.55072 0.59458 0.03837 0.0
C135 C 0.56408 0.62365 0.02021 0.0
H136 H 0.52907 0.59603 0.05256 0.0
H137 H 0.55269 0.64753 0.02019 0.0
H138 H 0.49696 0.41098 0.97583 0.0
H139 H 0.60472 0.45574 0.07855 0.0
H140 H 0.49362 0.35065 0.99724 0.0
H141 H 0.60241 0.6442 0.98785 0.0
H142 H 0.64731 0.60894 0.97146 0.0
H143 H 0.39777 0.51536 0.01655 0.0
H144 H 0.67811 0.4936 0.0085 0.0
H145 H 0.656 0.44732 0.05145 0.0
H146 H 0.40547 0.33975 0.07479 0.0
H147 H 0.67467 0.5541 0.97878 0.0
H148 H 0.34373 0.43879 0.07828 0.0
H149 H 0.34935 0.49794 0.05013 0.0
N150 N 0.41906 0.46674 0.0264 0.0
C151 C 0.41537 0.434 0.03952 0.0
C152 C 0.39518 0.48954 0.02863 0.0
C153 C 0.36479 0.44632 0.06345 0.0
C154 C 0.36786 0.47974 0.04758 0.0
C155 C 0.38847 0.42289 0.05906 0.0
H156 H 0.36541 0.37979 0.08823 0.0
N157 N 0.46195 0.42332 0.01048 0.0
C158 C 0.43791 0.4116 0.03188 0.0
C159 C 0.45535 0.35517 0.03219 0.0
C160 C 0.43413 0.37724 0.04366 0.0
C161 C 0.48049 0.40183 0.99629 0.0
C162 C 0.47816 0.36753 0.00774 0.0
O163 O 0.52687 0.54055 0.00581 0.0
O164 O 0.51359 0.49766 0.9731 0.0
O165 O 0.43923 0.46358 0.94522 0.0
O166 O 0.43804 0.51632 0.94965 0.0
O167 O 0.49343 0.53967 0.06551 0.0
O168 O 0.46154 0.53477 0.00577 0.0
O169 O 0.46281 0.48224 0.05961 0.0
O170 O 0.51648 0.46905 0.09089 0.0
O171 O 0.53853 0.5364 0.11869 0.0
O172 O 0.58497 0.5116 0.11622 0.0
O173 O 0.51859 0.46031 0.99957 0.0
O174 O 0.54378 0.46012 0.06274 0.0
C175 C 0.52704 0.52672 0.97511 0.0
C176 C 0.46873 0.54943 0.03646 0.0
C177 C 0.40617 0.50139 0.8914 0.0
C178 C 0.38665 0.491 0.82567 0.0
C179 C 0.36423 0.53809 0.84792 0.0
C180 C 0.38471 0.52946 0.88385 0.0
C181 C 0.3652 0.51912 0.81899 0.0
C182 C 0.40682 0.48196 0.86235 0.0
C183 C 0.42835 0.49339 0.92922 0.0
C184 C 0.40851 0.36604 0.06508 0.0
C185 C 0.38565 0.38883 0.07268 0.0
H186 H 0.4533 0.32858 0.04065 0.0
C187 C 0.48376 0.46742 0.08979 0.0
C188 C 0.5397 0.44728 0.03074 0.0
C189 C 0.58884 0.55743 0.14889 0.0
C190 C 0.60411 0.59186 0.19874 0.0
C191 C 0.628 0.60241 0.13914 0.0
C192 C 0.61024 0.57598 0.12616 0.0
C193 C 0.625 0.61037 0.17513 0.0
C194 C 0.58594 0.56536 0.18526 0.0
C195 C 0.56961 0.52977 0.13502 0.0
H196 H 0.34763 0.55967 0.84242 0.0
H197 H 0.3837 0.54472 0.9058 0.0
H198 H 0.34892 0.52635 0.79138 0.0
H199 H 0.42373 0.46057 0.86784 0.0
H200 H 0.64444 0.61657 0.1214 0.0
H201 H 0.61351 0.56991 0.09853 0.0
H202 H 0.63967 0.63057 0.18487 0.0
H203 H 0.5695 0.55103 0.20291 0.0
H204 H 0.30948 0.2259 0.43641 0.0
H205 H 0.2666 0.18278 0.43942 0.0
H206 H 0.2073 0.24317 0.49311 0.0
H207 H 0.24969 0.28635 0.48985 0.0
H208 H 0.24423 0.14966 0.50921 0.0
H209 H 0.13957 0.21565 0.40313 0.0
H210 H 0.18295 0.22796 0.40464 0.0
H211 H 0.15871 0.23922 0.43898 0.0
C212 C 0.28706 0.23012 0.44836 0.0
C213 C 0.28297 0.25945 0.46298 0.0
C214 C 0.26271 0.20545 0.45021 0.0
C215 C 0.23365 0.20996 0.46613 0.0
C216 C 0.22931 0.2394 0.48023 0.0
H217 H 0.09522 0.07701 0.56947 0.0
H218 H 0.13893 0.11652 0.55357 0.0
C219 C 0.2537 0.2639 0.47867 0.0
C220 C 0.20854 0.18335 0.46993 0.0
H221 H 0.12522 0.16711 0.44468 0.0
C222 C 0.2183 0.15329 0.49478 0.0
C223 C 0.17481 0.18808 0.45082 0.0
C224 C 0.16334 0.21935 0.4226 0.0
C225 C 0.19485 0.12833 0.50221 0.0
C226 C 0.1608 0.13371 0.48451 0.0
C227 C 0.15131 0.1632 0.45845 0.0
C228 C 0.13443 0.10956 0.49389 0.0
C229 C 0.20659 0.09648 0.52921 0.0
C230 C 0.11704 0.09298 0.46539 0.0
C231 C 0.09198 0.07038 0.47439 0.0
C232 C 0.0836 0.06441 0.51189 0.0
C233 C 0.10094 0.08126 0.54025 0.0
C234 C 0.12609 0.10364 0.53131 0.0
H235 H 0.23434 0.09283 0.53279 0.0
H236 H 0.19985 0.0973 0.55815 0.0
H237 H 0.19411 0.07475 0.51842 0.0
H238 H 0.12303 0.09738 0.43629 0.0
H239 H 0.07897 0.0578 0.45195 0.0
H240 H 0.30802 0.81154 0.08313 0.0
H241 H 0.34703 0.7645 0.08916 0.0
H242 H 0.28511 0.73081 0.99278 0.0
H243 H 0.24548 0.77685 0.98749 0.0
H244 H 0.30437 0.68043 0.05494 0.0
H245 H 0.41465 0.75438 0.01714 0.0
H246 H 0.39679 0.76536 0.05665 0.0
H247 H 0.37255 0.77197 0.00873 0.0
C248 C 0.30265 0.79398 0.06339 0.0
C249 C 0.27381 0.79811 0.0346 0.0
C250 C 0.32513 0.76735 0.0666 0.0
C251 C 0.31924 0.74451 0.04098 0.0
C252 C 0.29027 0.74832 0.01263 0.0
H253 H 0.41275 0.57501 0.9857 0.0
H254 H 0.37726 0.62198 0.98973 0.0
C255 C 0.26779 0.77482 0.00945 0.0
C256 C 0.34277 0.71619 0.04387 0.0
H257 H 0.42304 0.69627 0.0346 0.0
C258 C 0.33033 0.68389 0.05059 0.0
C259 C 0.37665 0.72081 0.03824 0.0
C260 C 0.391 0.75497 0.02946 0.0
C261 C 0.3508 0.65607 0.05154 0.0
C262 C 0.38444 0.66074 0.04525 0.0
C263 C 0.39718 0.69291 0.03943 0.0
C264 C 0.40629 0.6325 0.04298 0.0
C265 C 0.33634 0.62186 0.05923 0.0
C266 C 0.43469 0.6233 0.07128 0.0
C267 C 0.45504 0.59631 0.06923 0.0
C268 C 0.4475 0.57831 0.03854 0.0
C269 C 0.41927 0.5881 0.00987 0.0
C270 C 0.39886 0.6149 0.01214 0.0
H271 H 0.3129 0.62209 0.07204 0.0
H272 H 0.33018 0.61233 0.03151 0.0
H273 H 0.35492 0.6044 0.0791 0.0
H274 H 0.44088 0.63677 0.09518 0.0
H275 H 0.47664 0.5896 0.09173 0.0
H276 H 0.75779 0.729 0.66044 0.0
H277 H 0.80149 0.77104 0.65657 0.0
H278 H 0.74502 0.8224 0.54944 0.0
H279 H 0.70081 0.78137 0.55385 0.0
H280 H 0.84036 0.78521 0.60025 0.0
H281 H 0.76874 0.89812 0.60794 0.0
H282 H 0.75313 0.85687 0.62074 0.0
H283 H 0.74856 0.87657 0.57074 0.0
C284 C 0.75432 0.74968 0.63655 0.0
C285 C 0.72581 0.75179 0.60743 0.0
C286 C 0.77943 0.77355 0.63423 0.0
C287 C 0.77637 0.8001 0.60295 0.0
C288 C 0.74767 0.80255 0.57425 0.0
H289 H 0.93373 0.91353 0.50594 0.0
H290 H 0.88986 0.8743 0.52187 0.0
C291 C 0.72258 0.7788 0.57657 0.0
C292 C 0.80409 0.82404 0.59878 0.0
H293 H 0.8209 0.90684 0.58339 0.0
C294 C 0.8362 0.81179 0.59699 0.0
C295 C 0.7988 0.8587 0.59501 0.0
C296 C 0.76553 0.87334 0.59911 0.0
C297 C 0.86283 0.83328 0.59021 0.0
C298 C 0.857 0.86801 0.58423 0.0
C299 C 0.82523 0.88023 0.5874 0.0
C300 C 0.88344 0.89207 0.57437 0.0
C301 C 0.89701 0.81854 0.58976 0.0
C302 C 0.89366 0.91586 0.59786 0.0
C303 C 0.91853 0.93857 0.58863 0.0
C304 C 0.93364 0.93797 0.55564 0.0
C305 C 0.92293 0.91445 0.53181 0.0
C306 C 0.89797 0.89185 0.54099 0.0
H307 H 0.89987 0.79269 0.60596 0.0
H308 H 0.90001 0.81788 0.55936 0.0
H309 H 0.91756 0.83361 0.60253 0.0
H310 H 0.88264 0.91663 0.62361 0.0
H311 H 0.92614 0.95634 0.60762 0.0
H312 H 0.77269 0.2291 0.08031 0.0
H313 H 0.73172 0.27422 0.07453 0.0
H314 H 0.66798 0.23475 0.98375 0.0
H315 H 0.70862 0.18897 0.98994 0.0
H316 H 0.70654 0.32217 0.00837 0.0
H317 H 0.60564 0.2434 0.06417 0.0
H318 H 0.64884 0.22901 0.07067 0.0
H319 H 0.62222 0.23092 0.02457 0.0
C320 C 0.74982 0.22986 0.05931 0.0
C321 C 0.74369 0.2053 0.03584 0.0
C322 C 0.72657 0.25575 0.05588 0.0
C323 C 0.69668 0.25753 0.02908 0.0
C324 C 0.69071 0.2335 0.005 0.0
H325 H 0.56027 0.43041 0.96694 0.0
H326 H 0.59729 0.38381 0.96451 0.0
C327 C 0.71405 0.20757 0.00833 0.0
C328 C 0.67188 0.28465 0.02663 0.0
H329 H 0.59295 0.30058 0.04371 0.0
C330 C 0.68162 0.3175 0.01586 0.0
C331 C 0.63959 0.27837 0.03689 0.0
C332 C 0.62838 0.24357 0.05004 0.0
C333 C 0.65992 0.34435 0.0152 0.0
C334 C 0.62753 0.33806 0.02517 0.0
C335 C 0.61774 0.30521 0.03583 0.0
C336 C 0.60398 0.36537 0.02617 0.0
C337 C 0.67213 0.37923 1.00495 0.0
C338 C 0.59483 0.36982 0.0615 0.0
C339 C 0.57357 0.39626 0.06294 0.0
C340 C 0.561 0.41853 0.02901 0.0
C341 C 0.56957 0.41356 0.99352 0.0
C342 C 0.59088 0.38715 0.99212 0.0
H343 H 0.69987 0.37986 0.00584 0.0
H344 H 0.65992 0.39013 0.97519 0.0
H345 H 0.66527 0.39509 0.02509 0.0
H346 H 0.60459 0.35315 0.08806 0.0
H347 H 0.56712 0.3994 0.0906 0.0
H348 H 0.19746 0.81856 0.12052 0.0
H349 H 0.1721 0.83246 0.17422 0.0
H350 H 0.18024 0.9367 0.13029 0.0
H351 H 0.20595 0.92304 0.07662 0.0
H352 H 0.19993 0.91284 0.21736 0.0
H353 H 0.07329 0.87606 0.15075 0.0
H354 H 0.10748 0.84693 0.15466 0.0
H355 H 0.10709 0.88626 0.12314 0.0
C356 C 0.19444 0.84443 0.1227 0.0
C357 C 0.20355 0.86973 0.0943 0.0
C358 C 0.17978 0.8523 0.15321 0.0
C359 C 0.17412 0.88556 0.1559 0.0
C360 C 0.18438 0.91089 0.12855 0.0
H361 H 0.03558 0.96061 0.28597 0.0
H362 H 0.06944 0.95238 0.23683 0.0
C363 C 0.19886 0.90305 0.09787 0.0
C364 C 0.15577 0.89382 0.186 0.0
H365 H 0.07795 0.89075 0.21286 0.0
C366 C 0.17327 0.90808 0.21647 0.0
C367 C 0.12094 0.88794 0.1843 0.0
C368 C 0.10088 0.87367 0.15137 0.0
C369 C 0.15682 0.91605 0.24588 0.0
C370 C 0.12213 0.90938 0.24466 0.0
C371 C 0.10458 0.89569 0.21375 0.0
C372 C 0.10342 0.91607 0.27528 0.0
C373 C 0.17651 0.93182 0.27776 0.0
C374 C 0.11138 0.89836 0.31316 0.0
C375 C 0.0919 0.90276 0.34123 0.0
C376 C 0.06402 0.92488 0.33186 0.0
C377 C 0.05656 0.94303 0.29401 0.0
C378 C 0.076 0.93854 0.26596 0.0
H379 H 0.20045 0.94238 0.26972 0.0
H380 H 0.16137 0.95183 0.28491 0.0
H381 H 0.18279 0.91274 0.30422 0.0
H382 H 0.13205 0.88041 0.32071 0.0
H383 H 0.09803 0.88803 0.36992 0.0
H384 H 0.65716 0.61886 0.66901 0.0
H385 H 0.63499 0.59413 0.72753 0.0
H386 H 0.62533 0.6913 0.75683 0.0
H387 H 0.64689 0.71633 0.69796 0.0
H388 H 0.66019 0.59932 0.80734 0.0
H389 H 0.53008 0.65121 0.75736 0.0
H390 H 0.55975 0.64957 0.72456 0.0
H391 H 0.56347 0.68064 0.75508 0.0
C392 C 0.65012 0.635 0.68778 0.0
C393 C 0.65358 0.6696 0.67869 0.0
C394 C 0.63767 0.62081 0.72131 0.0
C395 C 0.62816 0.64092 0.74623 0.0
C396 C 0.63212 0.67539 0.73769 0.0
H397 H 0.53209 0.59348 0.9521 0.0
H398 H 0.55891 0.62193 0.89861 0.0
C399 C 0.64472 0.68961 0.70423 0.0
C400 C 0.61391 0.62571 0.78102 0.0
H401 H 0.54175 0.62057 0.82077 0.0
C402 C 0.63431 0.60395 0.81035 0.0
C403 C 0.58019 0.63195 0.78489 0.0
C404 C 0.5569 0.6544 0.75374 0.0
C405 C 0.62192 0.58834 0.84358 0.0
C406 C 0.58799 0.59406 0.84711 0.0
C407 C 0.56774 0.61618 0.818 0.0
C408 C 0.57273 0.57677 0.88029 0.0
C409 C 0.64544 0.56628 0.87488 0.0
C410 C 0.57123 0.54198 0.88751 0.0
C411 C 0.55622 0.52573 0.91825 0.0
C412 C 0.54234 0.544 0.94225 0.0
C413 C 0.54325 0.57881 0.93455 0.0
C414 C 0.55836 0.59506 0.90388 0.0
H415 H 0.67226 0.57219 0.87335 0.0
H416 H 0.64032 0.56872 0.90409 0.0
H417 H 0.64169 0.54003 0.87118 0.0
H418 H 0.5814 0.52737 0.86913 0.0
H419 H 0.55573 0.49885 0.92344 0.0
H420 H 0.81647 0.06942 0.1137 0.0
H421 H 0.84293 0.04505 0.17968 0.0
H422 H 0.85954 0.14324 0.20733 0.0
H423 H 0.83267 0.16757 0.14196 0.0
H424 H 0.9059 0.0509 0.21781 0.0
H425 H 0.81429 0.10016 0.29578 0.0
H426 H 0.80622 0.10127 0.24406 0.0
H427 H 0.8315 0.13258 0.26432 0.0
C428 C 0.82572 0.08572 0.13398 0.0
C429 C 0.82217 0.12035 0.12293 0.0
C430 C 0.84073 0.07181 0.1716 0.0
C431 C 0.85248 0.09232 0.19869 0.0
C432 C 0.84967 0.12691 0.18734 0.0
H433 H 0.97448 0.07724 0.42153 0.0
H434 H 0.94207 0.0932 0.35655 0.0
C435 C 0.83442 0.14079 0.14995 0.0
C436 C 0.86872 0.0778 0.2385 0.0
H437 H 0.86739 0.08043 0.33393 0.0
C438 C 0.8972 0.05695 0.24322 0.0
C439 C 0.85718 0.08555 0.27166 0.0
C440 C 0.82541 0.10582 0.26875 0.0
C441 C 0.9153 0.04483 0.28017 0.0
C442 C 0.90456 0.05386 0.31301 0.0
C443 C 0.87561 0.07388 0.30848 0.0
C444 C 0.92384 0.04384 0.3523 0.0
C445 C 0.94642 0.0234 0.28393 0.0
C446 C 0.92381 0.0109 0.37144 0.0
C447 C 0.94189 0.00179 0.40882 0.0
C448 C 0.96045 0.02546 0.42741 0.0
C449 C 0.9603 0.05846 0.40807 0.0
C450 C 0.94194 0.06761 0.37092 0.0
H451 H 0.95358 0.02179 0.25534 0.0
H452 H 0.96793 0.03333 0.30212 0.0
H453 H 0.94179 0.99793 0.29857 0.0
H454 H 0.90954 0.99235 0.35761 0.0
H455 H 0.94082 0.97639 0.42337 0.0
H456 H 0.35321 0.38968 0.50079 0.0
H457 H 0.36565 0.41536 0.55876 0.0
H458 H 0.36731 0.319 0.63089 0.0
H459 H 0.35589 0.29299 0.57303 0.0
H460 H 0.32494 0.41159 0.61575 0.0
H461 H 0.45328 0.36083 0.67922 0.0
H462 H 0.43473 0.35978 0.62959 0.0
H463 H 0.42246 0.33031 0.66831 0.0
C464 C 0.35694 0.37386 0.52896 0.0
C465 C 0.35358 0.33927 0.53225 0.0
C466 C 0.36384 0.3886 0.56207 0.0
C467 C 0.36777 0.36908 0.59914 0.0
C468 C 0.36496 0.3345 0.60259 0.0
H469 H 0.3871 0.42325 0.82988 0.0
H470 H 0.38388 0.39231 0.77586 0.0
C471 C 0.35803 0.31972 0.56947 0.0
C472 C 0.37245 0.3852 0.63401 0.0
H473 H 0.4263 0.39126 0.71744 0.0
C474 C 0.34716 0.40723 0.6379 0.0
C475 C 0.40131 0.37919 0.66307 0.0
C476 C 0.42967 0.35646 0.65985 0.0
C477 C 0.34987 0.4234 0.67004 0.0
C478 C 0.37896 0.41789 0.69879 0.0
C479 C 0.40407 0.39547 0.6953 0.0
C480 C 0.38394 0.43608 0.73196 0.0
C481 C 0.32132 0.44599 0.67319 0.0
C482 C 0.38617 0.47076 0.72527 0.0
C483 C 0.38801 0.4884 0.7559 0.0
C484 C 0.38786 0.47171 0.79396 0.0
C485 C 0.38729 0.4368 0.8009 0.0
C486 C 0.38536 0.41912 0.7701 0.0
H487 H 0.29752 0.44075 0.6547 0.0
H488 H 0.31686 0.44343 0.70362 0.0
H489 H 0.32792 0.47214 0.66347 0.0
H490 H 0.38589 0.48427 0.69617 0.0
H491 H 0.38922 0.51521 0.74971 0.0
H492 H 0.6565 0.6238 0.55983 0.0
H493 H 0.6407 0.60511 0.49731 0.0
H494 H 0.62794 0.70694 0.43958 0.0
H495 H 0.64359 0.72577 0.50172 0.0
H496 H 0.58225 0.61827 0.43727 0.0
H497 H 0.6998 0.66782 0.38795 0.0
H498 H 0.69401 0.66234 0.43801 0.0
H499 H 0.67541 0.6977 0.40412 0.0
C500 C 0.64984 0.64216 0.53386 0.0
C501 C 0.65174 0.67626 0.5356 0.0
C502 C 0.64091 0.63146 0.4982 0.0
C503 C 0.63377 0.65467 0.46381 0.0
C504 C 0.63405 0.68865 0.46572 0.0
H505 H 0.59872 0.65312 0.21842 0.0
H506 H 0.60277 0.6667 0.28344 0.0
C507 C 0.64304 0.69935 0.50122 0.0
C508 C 0.62757 0.64364 0.42565 0.0
H509 H 0.65867 0.64942 0.34085 0.0
C510 C 0.59899 0.62487 0.4162 0.0
C511 C 0.64962 0.65216 0.39838 0.0
C512 C 0.68161 0.67084 0.40764 0.0
C513 C 0.5913 0.61531 0.37956 0.0
C514 C 0.61304 0.62443 0.35207 0.0
C515 C 0.64188 0.64271 0.36187 0.0
C516 C 0.60658 0.61562 0.31272 0.0
C517 C 0.55957 0.59635 0.37019 0.0
C518 C 0.60691 0.58235 0.30756 0.0
C519 C 0.60468 0.57449 0.27035 0.0
C520 C 0.60241 0.59982 0.23773 0.0
C521 C 0.60092 0.63306 0.24299 0.0
C522 C 0.60307 0.64086 0.2801 0.0
H523 H 0.54176 0.5981 0.39069 0.0
H524 H 0.54662 0.60566 0.34023 0.0
H525 H 0.56622 0.56976 0.37217 0.0
H526 H 0.61025 0.56249 0.33238 0.0
H527 H 0.60629 0.54868 0.26729 0.0
H528 H 0.81986 0.18212 0.95135 0.0
H529 H 0.84459 0.16689 0.89795 0.0
H530 H 0.83718 0.06322 0.94527 0.0
H531 H 0.81197 0.07825 0.99858 0.0
H532 H 0.90601 0.12744 0.91021 0.0
H533 H 0.79746 0.07146 0.82727 0.0
H534 H 0.79223 0.09938 0.86035 0.0
H535 H 0.80539 0.05707 0.87878 0.0
C536 C 0.82282 0.15607 0.94995 0.0
C537 C 0.81391 0.13136 0.9791 0.0
C538 C 0.83712 0.14743 0.91957 0.0
C539 C 0.84242 0.11397 0.91757 0.0
C540 C 0.83286 0.08919 0.94608 0.0
H541 H 0.97984 0.03071 0.79252 0.0
H542 H 0.94658 0.04237 0.84087 0.0
C543 C 0.81874 0.09781 0.97663 0.0
C544 C 0.8602 0.10512 0.88723 0.0
H545 H 0.85076 0.06683 0.80791 0.0
C546 C 0.89395 0.11423 0.88781 0.0
C547 C 0.84426 0.08803 0.85804 0.0
C548 C 0.80775 0.07855 0.85567 0.0
C549 C 0.91238 0.10637 0.86011 0.0
C550 C 0.89662 0.08884 0.83128 0.0
C551 C 0.86274 0.08005 0.83034 0.0
C552 C 0.91503 0.08011 0.80145 0.0
C553 C 0.94847 0.11713 0.86155 0.0
C554 C 0.90777 0.09709 0.76321 0.0
C555 C 0.92694 0.0908 0.73561 0.0
C556 C 0.95357 0.06721 0.74575 0.0
C557 C 0.95995 0.04946 0.7839 0.0
C558 C 0.94088 0.05592 0.8115 0.0
H559 H 0.95517 0.1351 0.88165 0.0
H560 H 0.96548 0.09506 0.87154 0.0
H561 H 0.95309 0.12866 0.83222 0.0
H562 H 0.88792 0.11592 0.75504 0.0
H563 H 0.92157 0.10521 0.70669 0.0
H564 H 0.36807 0.2856 0.3775 0.0
H565 H 0.39218 0.30706 0.31914 0.0
H566 H 0.38476 0.40666 0.34221 0.0
H567 H 0.36038 0.3856 0.40015 0.0
H568 H 0.36545 0.35394 0.25328 0.0
H569 H 0.48412 0.39735 0.33063 0.0
H570 H 0.45641 0.36913 0.35483 0.0
H571 H 0.44682 0.41293 0.34389 0.0
C572 C 0.37138 0.3121 0.37002 0.0
C573 C 0.36258 0.33383 0.39377 0.0
C574 C 0.38528 0.32429 0.33675 0.0
C575 C 0.39081 0.35838 0.32672 0.0
C576 C 0.38146 0.38018 0.3499 0.0
H577 H 0.42334 0.47794 0.11168 0.0
H578 H 0.40085 0.44855 0.16777 0.0
C579 C 0.36757 0.36806 0.38308 0.0
C580 C 0.40602 0.3714 0.29183 0.0
H581 H 0.4722 0.41601 0.26238 0.0
C582 C 0.3889 0.36732 0.25524 0.0
C583 C 0.4369 0.38838 0.29449 0.0
C584 C 0.45735 0.39198 0.33308 0.0
C585 C 0.40128 0.38079 0.22115 0.0
C586 C 0.43131 0.39913 0.22377 0.0
C587 C 0.449 0.40223 0.26041 0.0
C588 C 0.44444 0.41597 0.18886 0.0
C589 C 0.38228 0.3751 0.18261 0.0
C590 C 0.4767 0.40793 0.18244 0.0
C591 C 0.48952 0.42463 0.1502 0.0
C592 C 0.47033 0.44975 0.12393 0.0
C593 C 0.43827 0.45805 0.13075 0.0
C594 C 0.42541 0.44129 0.16285 0.0
H595 H 0.36504 0.35381 0.186 0.0
H596 H 0.36688 0.39759 0.16855 0.0
H597 H 0.39996 0.37039 0.16302 0.0
H598 H 0.49191 0.38865 0.20233 0.0
H599 H 0.51436 0.41773 0.14573 0.0
H600 H 0.14419 0.88129 0.96476 0.0
H601 H 0.11596 0.90324 0.89908 0.0
H602 H 0.21212 0.91272 0.85966 0.0
H603 H 0.24059 0.89068 0.92537 0.0
H604 H 0.12207 0.9629 0.85038 0.0
H605 H 0.15904 0.856 0.78728 0.0
H606 H 0.16358 0.85513 0.83887 0.0
H607 H 0.19378 0.8763 0.81166 0.0
C608 C 0.15937 0.88845 0.94222 0.0
C609 C 0.19461 0.88414 0.95017 0.0
C610 C 0.1432 0.90083 0.9047 0.0
C611 C 0.16191 0.90906 0.87443 0.0
C612 C 0.19717 0.9058 0.88246 0.0
H613 H 0.08605 0.01886 0.64424 0.0
H614 H 0.11622 1.00127 0.71023 0.0
C615 C 0.21338 0.89328 0.91998 0.0
C616 C 0.14437 0.92063 0.83441 0.0
H617 H 0.13102 0.90125 0.74337 0.0
C618 C 0.12402 0.94947 0.82695 0.0
C619 C 0.14662 0.90274 0.80407 0.0
C620 C 0.16666 0.87065 0.8108 0.0
C621 C 0.10603 0.96107 0.78983 0.0
C622 C 0.10897 0.94362 0.75935 0.0
C623 C 0.12911 0.91468 0.76683 0.0
C624 C 0.09066 0.9545 0.71962 0.0
C625 C 0.08348 0.99147 0.78373 0.0
C626 C 0.0668 0.93374 0.70291 0.0
C627 C 0.04948 0.94379 0.66538 0.0
C628 C 0.05598 0.97462 0.64389 0.0
C629 C 0.08013 0.99523 0.6605 0.0
C630 C 0.09739 0.98521 0.6981 0.0
H631 H 0.07761 0.99703 0.81154 0.0
H632 H 0.09639 0.01321 0.76975 0.0
H633 H 0.05944 0.98833 0.76445 0.0
H634 H 0.06142 0.90986 0.71902 0.0
H635 H 0.03091 0.92749 0.65323 0.0
loop_
_geom_bond_atom_site_label_1
_geom_bond_atom_site_label_2
_geom_bond_distance
_geom_bond_site_symmetry_2
_ccdc_geom_bond_type
H0 C3 0.931 . S
H1 C6 0.928 . S
H2 C8 0.930 . S
C3 H0 0.931 . S
C3 C4 1.413 1_554 S
C3 C5 1.360 . S
C4 C3 1.413 1_556 S
C4 C8 1.429 . S
C5 C3 1.360 . S
C5 C6 1.372 . S
C6 H1 0.928 . S
C6 C5 1.372 . S
C6 C7 1.404 . S
C7 C6 1.404 . S
C7 C8 1.391 1_554 S
C8 H2 0.930 . S
C8 C4 1.429 . S
C8 C7 1.391 1_556 S
H9 C12 0.931 . S
H10 C15 0.928 . S
H11 C17 0.930 . S
C12 H9 0.931 . S
C12 C13 1.413 . S
C12 C14 1.360 . S
C13 C12 1.413 . S
C13 C17 1.429 . S
C14 C12 1.360 . S
C14 C15 1.372 . S
C15 H10 0.928 . S
C15 C14 1.372 . S
C15 C16 1.404 . S
C16 C15 1.404 . S
C16 C17 1.391 . S
C17 H11 0.930 . S
C17 C13 1.429 . S
C17 C16 1.391 . S
H18 C21 0.931 . S
H19 C24 0.928 . S
H20 C26 0.930 1_556 S
C21 H18 0.931 . S
C21 C22 1.413 . S
C21 C23 1.360 . S
C22 C21 1.413 . S
C22 C26 1.429 . S
C23 C21 1.360 . S
C23 C24 1.372 . S
C24 H19 0.928 . S
C24 C23 1.372 . S
C24 C25 1.404 . S
C25 C24 1.404 . S
C25 C26 1.391 . S
C26 H20 0.930 1_554 S
C26 C22 1.429 . S
C26 C25 1.391 . S
H27 C30 0.931 . S
H28 C33 0.928 . S
H29 C35 0.930 . S
C30 H27 0.931 . S
C30 C31 1.413 . S
C30 C32 1.360 . S
C31 C30 1.413 . S
C31 C35 1.429 . S
C32 C30 1.360 . S
C32 C33 1.372 . S
C33 H28 0.928 . S
C33 C32 1.372 . S
C33 C34 1.404 . S
C34 C33 1.404 . S
C34 C35 1.391 . S
C35 H29 0.930 . S
C35 C31 1.429 . S
C35 C34 1.391 . S
C36 C38 1.422 . S
C36 C40 1.415 . S
C36 N42 1.369 . S
C37 C38 1.421 . S
C37 C39 1.417 . S
C37 C49 1.422 . S
C38 C36 1.422 . S
C38 C37 1.421 . S
C38 N48 1.359 . S
C39 C37 1.417 . S
C39 C41 1.329 . S
C39 H58 0.930 . S
C40 C36 1.415 . S
C40 C41 1.437 . S
C40 C44 1.413 . S
C41 C39 1.329 . S
C41 C40 1.437 . S
C41 H63 0.929 . S
N42 C36 1.369 . S
N42 C43 1.338 1_655 S
N42 Gd47 2.622 . S
C43 N42 1.338 1_455 S
C43 C45 1.378 1_455 S
C43 H55 0.929 . S
C44 C40 1.413 . S
C44 C45 1.348 . S
C44 H60 0.931 . S
C45 C43 1.378 1_655 S
C45 C44 1.348 . S
C45 H61 0.930 1_655 S
Gd46 N66 2.622 . S
Gd46 N73 2.570 . S
Gd46 O80 2.371 1_455 S
Gd46 O81 2.468 . S
Gd46 O82 2.427 . S
Gd46 O84 2.388 1_455 S
Gd46 O85 2.386 . S
Gd46 O89 2.307 1_565 S
Gd46 C99 2.805 . S
Gd47 N42 2.622 . S
Gd47 N48 2.570 . S
Gd47 O79 2.386 . S
Gd47 O83 2.307 1_545 S
Gd47 O86 2.353 1_655 S
Gd47 O87 2.468 . S
Gd47 O88 2.427 . S
Gd47 O90 2.388 1_655 S
Gd47 C111 2.805 . S
N48 C38 1.359 . S
N48 Gd47 2.570 . S
N48 C50 1.343 . S
C49 C37 1.422 . S
C49 C51 1.321 . S
C49 H57 0.931 . S
C50 N48 1.343 . S
C50 C51 1.390 . S
C50 H52 0.931 . S
C51 C49 1.321 . S
C51 C50 1.390 . S
C51 H53 0.930 . S
H52 C50 0.931 . S
H53 C51 0.930 . S
H54 C77 0.931 . S
H55 C43 0.929 . S
H56 C78 0.930 . S
H57 C49 0.931 . S
H58 C39 0.930 . S
H59 C68 0.929 1_655 S
H60 C44 0.931 . S
H61 C45 0.930 1_455 S
H62 C100 0.930 . S
H63 C41 0.929 . S
H64 C69 0.931 . S
H65 C70 0.930 1_655 S
N66 Gd46 2.622 . S
N66 C67 1.369 . S
N66 C68 1.338 . S
C67 N66 1.369 . S
C67 C71 1.415 . S
C67 C74 1.422 . S
C68 H59 0.929 1_455 S
C68 N66 1.338 . S
C68 C70 1.378 . S
C69 H64 0.931 . S
C69 C70 1.348 . S
C69 C71 1.413 . S
C70 H65 0.930 1_455 S
C70 C68 1.378 . S
C70 C69 1.348 . S
C71 C67 1.415 . S
C71 C69 1.413 . S
C71 C101 1.437 . S
H72 C101 0.929 . S
N73 Gd46 2.570 . S
N73 C74 1.359 . S
N73 C77 1.343 . S
C74 C67 1.422 . S
C74 N73 1.359 . S
C74 C76 1.421 . S
C75 C76 1.422 . S
C75 C78 1.321 . S
C75 H102 0.931 . S
C76 C74 1.421 . S
C76 C75 1.422 . S
C76 C100 1.417 . S
C77 H54 0.931 . S
C77 N73 1.343 . S
C77 C78 1.390 . S
C78 H56 0.930 . S
C78 C75 1.321 . S
C78 C77 1.390 . S
O79 Gd47 2.386 . S
O79 C91 1.265 . S
O80 Gd46 2.371 1_655 S
O80 C91 1.214 1_565 S
O81 Gd46 2.468 . S
O81 C99 1.263 . S
O82 Gd46 2.427 . S
O82 C99 1.252 . S
O83 Gd47 2.307 1_565 S
O83 C92 1.261 . S
O84 Gd46 2.388 1_655 S
O84 C92 1.252 . S
O85 Gd46 2.386 . S
O85 C103 1.265 . S
O86 Gd47 2.353 1_455 S
O86 C103 1.242 1_545 S
O87 Gd47 2.468 . S
O87 C111 1.263 . S
O88 Gd47 2.427 . S
O88 C111 1.252 . S
O89 Gd46 2.307 1_545 S
O89 C104 1.261 . S
O90 Gd47 2.388 1_455 S
O90 C104 1.252 . S
C91 O79 1.265 . S
C91 O80 1.214 1_545 S
C92 O83 1.261 . S
C92 O84 1.252 . S
C93 C96 1.394 . S
C93 C98 1.370 . S
C93 C99 1.500 . S
C94 C97 1.383 . S
C94 C98 1.395 . S
C95 C96 1.396 . S
C95 C97 1.365 . S
C95 H112 0.929 . S
C96 C93 1.394 . S
C96 C95 1.396 . S
C96 H113 0.930 . S
C97 C94 1.383 . S
C97 C95 1.365 . S
C97 H114 0.931 . S
C98 C93 1.370 . S
C98 C94 1.395 . S
C98 H115 0.930 . S
C99 Gd46 2.805 . S
C99 O81 1.263 . S
C99 O82 1.252 . S
C99 C93 1.500 . S
C100 H62 0.930 . S
C100 C76 1.417 . S
C100 C101 1.329 . S
C101 C71 1.437 . S
C101 H72 0.929 . S
C101 C100 1.329 . S
H102 C75 0.931 . S
C103 O85 1.265 . S
C103 O86 1.242 1_565 S
C104 O89 1.261 . S
C104 O90 1.252 . S
C105 C108 1.394 . S
C105 C110 1.370 . S
C105 C111 1.500 . S
C106 C109 1.383 . S
C106 C110 1.395 . S
C107 C108 1.396 . S
C107 C109 1.365 . S
C107 H116 0.929 . S
C108 C105 1.394 . S
C108 C107 1.396 . S
C108 H117 0.930 . S
C109 C106 1.383 . S
C109 C107 1.365 . S
C109 H118 0.931 . S
C110 C105 1.370 . S
C110 C106 1.395 . S
C110 H119 0.930 . S
C111 Gd47 2.805 . S
C111 O87 1.263 . S
C111 O88 1.252 . S
C111 C105 1.500 . S
H112 C95 0.929 . S
H113 C96 0.930 . S
H114 C97 0.931 . S
H115 C98 0.930 . S
H116 C107 0.929 . S
H117 C108 0.930 . S
H118 C109 0.931 . S
H119 C110 0.930 . S
C120 C122 1.422 . S
C120 C124 1.415 . S
C120 N126 1.369 . S
C121 C122 1.421 . S
C121 C123 1.417 . S
C121 C133 1.422 . S
C122 C120 1.422 . S
C122 C121 1.421 . S
C122 N132 1.359 . S
C123 C121 1.417 . S
C123 C125 1.329 . S
C123 H142 0.930 . S
C124 C120 1.415 . S
C124 C125 1.437 . S
C124 C128 1.413 . S
C125 C123 1.329 . S
C125 C124 1.437 . S
C125 H147 0.929 . S
N126 C120 1.369 . S
N126 C127 1.338 . S
N126 Gd131 2.622 . S
C127 N126 1.338 . S
C127 C129 1.378 . S
C127 H139 0.929 . S
C128 C124 1.413 . S
C128 C129 1.348 . S
C128 H144 0.931 . S
C129 C127 1.378 . S
C129 C128 1.348 . S
C129 H145 0.930 . S
Gd130 N150 2.622 . S
Gd130 N157 2.570 1_556 S
Gd130 O164 2.353 . S
Gd130 O165 2.468 . S
Gd130 O166 2.427 . S
Gd130 O168 2.388 . S
Gd130 O169 2.386 1_556 S
Gd130 O173 2.307 1_556 S
Gd130 C183 2.805 . S
Gd131 N126 2.622 . S
Gd131 N132 2.570 . S
Gd131 O163 2.386 1_554 S
Gd131 O167 2.307 . S
Gd131 O170 2.353 . S
Gd131 O171 2.468 . S
Gd131 O172 2.427 . S
Gd131 O174 2.388 . S
Gd131 C195 2.805 . S
N132 C122 1.359 . S
N132 Gd131 2.570 . S
N132 C134 1.343 . S
C133 C121 1.422 . S
C133 C135 1.321 . S
C133 H141 0.931 . S
C134 N132 1.343 . S
C134 C135 1.390 . S
C134 H136 0.931 . S
C135 C133 1.321 . S
C135 C134 1.390 . S
C135 H137 0.930 . S
H136 C134 0.931 . S
H137 C135 0.930 . S
H138 C161 0.931 . S
H139 C127 0.929 . S
H140 C162 0.930 . S
H141 C133 0.931 . S
H142 C123 0.930 . S
H143 C152 0.929 . S
H144 C128 0.931 . S
H145 C129 0.930 . S
H146 C184 0.930 . S
H147 C125 0.929 . S
H148 C153 0.931 . S
H149 C154 0.930 . S
N150 Gd130 2.622 . S
N150 C151 1.369 1_556 S
N150 C152 1.338 . S
C151 N150 1.369 1_554 S
C151 C155 1.415 . S
C151 C158 1.422 . S
C152 H143 0.929 . S
C152 N150 1.338 . S
C152 C154 1.378 . S
C153 H148 0.931 . S
C153 C154 1.348 1_554 S
C153 C155 1.413 . S
C154 H149 0.930 . S
C154 C152 1.378 . S
C154 C153 1.348 1_556 S
C155 C151 1.415 . S
C155 C153 1.413 . S
C155 C185 1.437 . S
H156 C185 0.929 . S
N157 Gd130 2.570 1_554 S
N157 C158 1.359 . S
N157 C161 1.343 . S
C158 C151 1.422 . S
C158 N157 1.359 . S
C158 C160 1.421 . S
C159 C160 1.422 . S
C159 C162 1.321 . S
C159 H186 0.931 . S
C160 C158 1.421 . S
C160 C159 1.422 . S
C160 C184 1.417 . S
C161 H138 0.931 . S
C161 N157 1.343 . S
C161 C162 1.390 . S
C162 H140 0.930 . S
C162 C159 1.321 . S
C162 C161 1.390 . S
O163 Gd131 2.386 1_556 S
O163 C175 1.265 . S
O164 Gd130 2.353 . S
O164 C175 1.242 . S
O165 Gd130 2.468 . S
O165 C183 1.263 . S
O166 Gd130 2.427 . S
O166 C183 1.252 . S
O167 Gd131 2.307 . S
O167 C176 1.261 . S
O168 Gd130 2.388 . S
O168 C176 1.252 1_556 S
O169 Gd130 2.386 1_554 S
O169 C187 1.265 . S
O170 Gd131 2.353 . S
O170 C187 1.242 . S
O171 Gd131 2.468 . S
O171 C195 1.263 . S
O172 Gd131 2.427 . S
O172 C195 1.252 . S
O173 Gd130 2.307 1_554 S
O173 C188 1.261 . S
O174 Gd131 2.388 . S
O174 C188 1.252 . S
C175 O163 1.265 . S
C175 O164 1.242 . S
C176 O167 1.261 . S
C176 O168 1.252 1_554 S
C177 C180 1.394 . S
C177 C182 1.370 . S
C177 C183 1.500 . S
C178 C181 1.383 . S
C178 C182 1.395 . S
C179 C180 1.396 . S
C179 C181 1.365 . S
C179 H196 0.929 . S
C180 C177 1.394 . S
C180 C179 1.396 . S
C180 H197 0.930 . S
C181 C178 1.383 . S
C181 C179 1.365 . S
C181 H198 0.931 . S
C182 C177 1.370 . S
C182 C178 1.395 . S
C182 H199 0.930 . S
C183 Gd130 2.805 . S
C183 O165 1.263 . S
C183 O166 1.252 . S
C183 C177 1.500 . S
C184 H146 0.930 . S
C184 C160 1.417 . S
C184 C185 1.329 . S
C185 C155 1.437 . S
C185 H156 0.929 . S
C185 C184 1.329 . S
H186 C159 0.931 . S
C187 O169 1.265 . S
C187 O170 1.242 . S
C188 O173 1.261 . S
C188 O174 1.252 . S
C189 C192 1.394 . S
C189 C194 1.370 . S
C189 C195 1.500 . S
C190 C193 1.383 . S
C190 C194 1.395 . S
C191 C192 1.396 . S
C191 C193 1.365 . S
C191 H200 0.929 . S
C192 C189 1.394 . S
C192 C191 1.396 . S
C192 H201 0.930 . S
C193 C190 1.383 . S
C193 C191 1.365 . S
C193 H202 0.931 . S
C194 C189 1.370 . S
C194 C190 1.395 . S
C194 H203 0.930 . S
C195 Gd131 2.805 . S
C195 O171 1.263 . S
C195 O172 1.252 . S
C195 C189 1.500 . S
H196 C179 0.929 . S
H197 C180 0.930 . S
H198 C181 0.931 . S
H199 C182 0.930 . S
H200 C191 0.929 . S
H201 C192 0.930 . S
H202 C193 0.931 . S
H203 C194 0.930 . S
H204 C212 0.929 . S
H205 C214 0.930 . S
H206 C216 0.930 . S
H207 C219 0.929 . S
H208 C222 0.930 . S
H209 C224 0.960 . S
H210 C224 0.960 . S
H211 C224 0.960 . S
C212 H204 0.929 . S
C212 C213 1.377 . S
C212 C214 1.384 . S
C213 C212 1.377 . S
C213 C219 1.390 . S
C214 H205 0.930 . S
C214 C212 1.384 . S
C214 C215 1.372 . S
C215 C214 1.372 . S
C215 C216 1.400 . S
C215 C220 1.490 . S
C216 H206 0.930 . S
C216 C215 1.400 . S
C216 C219 1.386 . S
H217 C233 0.930 . S
H218 C234 0.931 . S
C219 H207 0.929 . S
C219 C213 1.390 . S
C219 C216 1.386 . S
C220 C215 1.490 . S
C220 C222 1.395 . S
C220 C223 1.403 . S
H221 C227 0.930 . S
C222 H208 0.930 . S
C222 C220 1.395 . S
C222 C225 1.403 . S
C223 C220 1.403 . S
C223 C224 1.524 . S
C223 C227 1.400 . S
C224 H209 0.960 . S
C224 H210 0.960 . S
C224 H211 0.960 . S
C224 C223 1.524 . S
C225 C222 1.403 . S
C225 C226 1.392 . S
C225 C229 1.495 . S
C226 C225 1.392 . S
C226 C227 1.385 . S
C226 C228 1.478 . S
C227 H221 0.930 . S
C227 C223 1.400 . S
C227 C226 1.385 . S
C228 C226 1.478 . S
C228 C230 1.381 . S
C228 C234 1.383 . S
C229 C225 1.495 . S
C229 H235 0.959 . S
C229 H236 0.961 . S
C229 H237 0.960 . S
C230 C228 1.381 . S
C230 C231 1.394 . S
C230 H238 0.930 . S
C231 C230 1.394 . S
C231 C232 1.383 . S
C231 H239 0.929 . S
C232 C231 1.383 . S
C232 C233 1.377 . S
C233 H217 0.930 . S
C233 C232 1.377 . S
C233 C234 1.379 . S
C234 H218 0.931 . S
C234 C228 1.383 . S
C234 C233 1.379 . S
H235 C229 0.959 . S
H236 C229 0.961 . S
H237 C229 0.960 . S
H238 C230 0.930 . S
H239 C231 0.929 . S
H240 C248 0.929 . S
H241 C250 0.930 . S
H242 C252 0.930 . S
H243 C255 0.929 . S
H244 C258 0.930 . S
H245 C260 0.960 . S
H246 C260 0.960 . S
H247 C260 0.960 . S
C248 H240 0.929 . S
C248 C249 1.377 . S
C248 C250 1.384 . S
C249 C248 1.377 . S
C249 C255 1.390 1_554 S
C250 H241 0.930 . S
C250 C248 1.384 . S
C250 C251 1.372 . S
C251 C250 1.372 . S
C251 C252 1.400 1_554 S
C251 C256 1.490 . S
C252 H242 0.930 . S
C252 C251 1.400 1_556 S
C252 C255 1.386 . S
H253 C269 0.930 1_556 S
H254 C270 0.931 1_556 S
C255 H243 0.929 . S
C255 C249 1.390 1_556 S
C255 C252 1.386 . S
C256 C251 1.490 . S
C256 C258 1.395 . S
C256 C259 1.403 . S
H257 C263 0.930 1_556 S
C258 H244 0.930 . S
C258 C256 1.395 . S
C258 C261 1.403 . S
C259 C256 1.403 . S
C259 C260 1.524 1_554 S
C259 C263 1.400 . S
C260 H245 0.960 . S
C260 H246 0.960 . S
C260 H247 0.960 . S
C260 C259 1.524 1_556 S
C261 C258 1.403 . S
C261 C262 1.392 . S
C261 C265 1.495 . S
C262 C261 1.392 . S
C262 C263 1.385 . S
C262 C264 1.478 . S
C263 H257 0.930 1_554 S
C263 C259 1.400 . S
C263 C262 1.385 . S
C264 C262 1.478 . S
C264 C266 1.381 . S
C264 C270 1.383 . S
C265 C261 1.495 . S
C265 H271 0.959 . S
C265 H272 0.961 . S
C265 H273 0.960 . S
C266 C264 1.381 . S
C266 C267 1.394 . S
C266 H274 0.930 . S
C267 C266 1.394 . S
C267 C268 1.383 . S
C267 H275 0.929 . S
C268 C267 1.383 . S
C268 C269 1.377 . S
C269 H253 0.930 1_554 S
C269 C268 1.377 . S
C269 C270 1.379 . S
C270 H254 0.931 1_554 S
C270 C264 1.383 . S
C270 C269 1.379 . S
H271 C265 0.959 . S
H272 C265 0.961 . S
H273 C265 0.960 . S
H274 C266 0.930 . S
H275 C267 0.929 . S
H276 C284 0.929 . S
H277 C286 0.930 . S
H278 C288 0.930 . S
H279 C291 0.929 . S
H280 C294 0.930 . S
H281 C296 0.960 . S
H282 C296 0.960 . S
H283 C296 0.960 . S
C284 H276 0.929 . S
C284 C285 1.377 . S
C284 C286 1.384 . S
C285 C284 1.377 . S
C285 C291 1.390 . S
C286 H277 0.930 . S
C286 C284 1.384 . S
C286 C287 1.372 . S
C287 C286 1.372 . S
C287 C288 1.400 . S
C287 C292 1.490 . S
C288 H278 0.930 . S
C288 C287 1.400 . S
C288 C291 1.386 . S
H289 C305 0.930 . S
H290 C306 0.931 . S
C291 H279 0.929 . S
C291 C285 1.390 . S
C291 C288 1.386 . S
C292 C287 1.490 . S
C292 C294 1.395 . S
C292 C295 1.403 . S
H293 C299 0.930 . S
C294 H280 0.930 . S
C294 C292 1.395 . S
C294 C297 1.403 . S
C295 C292 1.403 . S
C295 C296 1.524 . S
C295 C299 1.400 . S
C296 H281 0.960 . S
C296 H282 0.960 . S
C296 H283 0.960 . S
C296 C295 1.524 . S
C297 C294 1.403 . S
C297 C298 1.392 . S
C297 C301 1.495 . S
C298 C297 1.392 . S
C298 C299 1.385 . S
C298 C300 1.478 . S
C299 H293 0.930 . S
C299 C295 1.400 . S
C299 C298 1.385 . S
C300 C298 1.478 . S
C300 C302 1.381 . S
C300 C306 1.383 . S
C301 C297 1.495 . S
C301 H307 0.959 . S
C301 H308 0.961 . S
C301 H309 0.960 . S
C302 C300 1.381 . S
C302 C303 1.394 . S
C302 H310 0.930 . S
C303 C302 1.394 . S
C303 C304 1.383 . S
C303 H311 0.929 . S
C304 C303 1.383 . S
C304 C305 1.377 . S
C305 H289 0.930 . S
C305 C304 1.377 . S
C305 C306 1.379 . S
C306 H290 0.931 . S
C306 C300 1.383 . S
C306 C305 1.379 . S
H307 C301 0.959 . S
H308 C301 0.961 . S
H309 C301 0.960 . S
H310 C302 0.930 . S
H311 C303 0.929 . S
H312 C320 0.929 . S
H313 C322 0.930 . S
H314 C324 0.930 . S
H315 C327 0.929 . S
H316 C330 0.930 1_556 S
H317 C332 0.960 . S
H318 C332 0.960 . S
H319 C332 0.960 . S
C320 H312 0.929 . S
C320 C321 1.377 . S
C320 C322 1.384 . S
C321 C320 1.377 . S
C321 C327 1.390 . S
C322 H313 0.930 . S
C322 C320 1.384 . S
C322 C323 1.372 . S
C323 C322 1.372 . S
C323 C324 1.400 . S
C323 C328 1.490 . S
C324 H314 0.930 . S
C324 C323 1.400 . S
C324 C327 1.386 . S
H325 C341 0.930 . S
H326 C342 0.931 . S
C327 H315 0.929 . S
C327 C321 1.390 . S
C327 C324 1.386 . S
C328 C323 1.490 . S
C328 C330 1.395 . S
C328 C331 1.403 . S
H329 C335 0.930 . S
C330 H316 0.930 1_554 S
C330 C328 1.395 . S
C330 C333 1.403 . S
C331 C328 1.403 . S
C331 C332 1.524 . S
C331 C335 1.400 . S
C332 H317 0.960 . S
C332 H318 0.960 . S
C332 H319 0.960 . S
C332 C331 1.524 . S
C333 C330 1.403 . S
C333 C334 1.394 . S
C333 C337 1.494 1_554 S
C334 C333 1.394 . S
C334 C335 1.385 . S
C334 C336 1.478 . S
C335 H329 0.930 . S
C335 C331 1.400 . S
C335 C334 1.385 . S
C336 C334 1.478 . S
C336 C338 1.381 . S
C336 C342 1.383 . S
C337 C333 1.494 1_556 S
C337 H343 0.959 . S
C337 H344 0.961 . S
C337 H345 0.960 . S
C338 C336 1.381 . S
C338 C339 1.394 . S
C338 H346 0.930 . S
C339 C338 1.394 . S
C339 C340 1.383 . S
C339 H347 0.929 . S
C340 C339 1.383 . S
C340 C341 1.377 . S
C341 H325 0.930 . S
C341 C340 1.377 . S
C341 C342 1.379 . S
C342 H326 0.931 . S
C342 C336 1.383 . S
C342 C341 1.379 . S
H343 C337 0.959 . S
H344 C337 0.961 . S
H345 C337 0.960 . S
H346 C338 0.930 . S
H347 C339 0.929 . S
H348 C356 0.929 . S
H349 C358 0.930 . S
H350 C360 0.930 . S
H351 C363 0.929 . S
H352 C366 0.930 . S
H353 C368 0.960 . S
H354 C368 0.960 . S
H355 C368 0.960 . S
C356 H348 0.929 . S
C356 C357 1.377 . S
C356 C358 1.384 . S
C357 C356 1.377 . S
C357 C363 1.390 . S
C358 H349 0.930 . S
C358 C356 1.384 . S
C358 C359 1.372 . S
C359 C358 1.372 . S
C359 C360 1.400 . S
C359 C364 1.490 . S
C360 H350 0.930 . S
C360 C359 1.400 . S
C360 C363 1.386 . S
H361 C377 0.930 . S
H362 C378 0.931 . S
C363 H351 0.929 . S
C363 C357 1.390 . S
C363 C360 1.386 . S
C364 C359 1.490 . S
C364 C366 1.395 . S
C364 C367 1.403 . S
H365 C371 0.930 . S
C366 H352 0.930 . S
C366 C364 1.395 . S
C366 C369 1.403 . S
C367 C364 1.403 . S
C367 C368 1.524 . S
C367 C371 1.400 . S
C368 H353 0.960 . S
C368 H354 0.960 . S
C368 H355 0.960 . S
C368 C367 1.524 . S
C369 C366 1.403 . S
C369 C370 1.392 . S
C369 C373 1.495 . S
C370 C369 1.392 . S
C370 C371 1.385 . S
C370 C372 1.478 . S
C371 H365 0.930 . S
C371 C367 1.400 . S
C371 C370 1.385 . S
C372 C370 1.478 . S
C372 C374 1.381 . S
C372 C378 1.383 . S
C373 C369 1.495 . S
C373 H379 0.959 . S
C373 H380 0.961 . S
C373 H381 0.960 . S
C374 C372 1.381 . S
C374 C375 1.394 . S
C374 H382 0.930 . S
C375 C374 1.394 . S
C375 C376 1.383 . S
C375 H383 0.929 . S
C376 C375 1.383 . S
C376 C377 1.377 . S
C377 H361 0.930 . S
C377 C376 1.377 . S
C377 C378 1.379 . S
C378 H362 0.931 . S
C378 C372 1.383 . S
C378 C377 1.379 . S
H379 C373 0.959 . S
H380 C373 0.961 . S
H381 C373 0.960 . S
H382 C374 0.930 . S
H383 C375 0.929 . S
H384 C392 0.929 . S
H385 C394 0.930 . S
H386 C396 0.930 . S
H387 C399 0.929 . S
H388 C402 0.930 . S
H389 C404 0.960 . S
H390 C404 0.960 . S
H391 C404 0.960 . S
C392 H384 0.929 . S
C392 C393 1.377 . S
C392 C394 1.384 . S
C393 C392 1.377 . S
C393 C399 1.390 . S
C394 H385 0.930 . S
C394 C392 1.384 . S
C394 C395 1.372 . S
C395 C394 1.372 . S
C395 C396 1.400 . S
C395 C400 1.490 . S
C396 H386 0.930 . S
C396 C395 1.400 . S
C396 C399 1.386 . S
H397 C413 0.930 . S
H398 C414 0.931 . S
C399 H387 0.929 . S
C399 C393 1.390 . S
C399 C396 1.386 . S
C400 C395 1.490 . S
C400 C402 1.395 . S
C400 C403 1.403 . S
H401 C407 0.930 . S
C402 H388 0.930 . S
C402 C400 1.395 . S
C402 C405 1.403 . S
C403 C400 1.403 . S
C403 C404 1.524 . S
C403 C407 1.400 . S
C404 H389 0.960 . S
C404 H390 0.960 . S
C404 H391 0.960 . S
C404 C403 1.524 . S
C405 C402 1.403 . S
C405 C406 1.392 . S
C405 C409 1.495 . S
C406 C405 1.392 . S
C406 C407 1.385 . S
C406 C408 1.478 . S
C407 H401 0.930 . S
C407 C403 1.400 . S
C407 C406 1.385 . S
C408 C406 1.478 . S
C408 C410 1.381 . S
C408 C414 1.383 . S
C409 C405 1.495 . S
C409 H415 0.959 . S
C409 H416 0.961 . S
C409 H417 0.960 . S
C410 C408 1.381 . S
C410 C411 1.394 . S
C410 H418 0.930 . S
C411 C410 1.394 . S
C411 C412 1.383 . S
C411 H419 0.929 . S
C412 C411 1.383 . S
C412 C413 1.377 . S
C413 H397 0.930 . S
C413 C412 1.377 . S
C413 C414 1.379 . S
C414 H398 0.931 . S
C414 C408 1.383 . S
C414 C413 1.379 . S
H415 C409 0.959 . S
H416 C409 0.961 . S
H417 C409 0.960 . S
H418 C410 0.930 . S
H419 C411 0.929 . S
H420 C428 0.929 . S
H421 C430 0.930 . S
H422 C432 0.930 . S
H423 C435 0.929 . S
H424 C438 0.930 . S
H425 C440 0.960 . S
H426 C440 0.960 . S
H427 C440 0.960 . S
C428 H420 0.929 . S
C428 C429 1.377 . S
C428 C430 1.384 . S
C429 C428 1.377 . S
C429 C435 1.390 . S
C430 H421 0.930 . S
C430 C428 1.384 . S
C430 C431 1.372 . S
C431 C430 1.372 . S
C431 C432 1.400 . S
C431 C436 1.490 . S
C432 H422 0.930 . S
C432 C431 1.400 . S
C432 C435 1.386 . S
H433 C449 0.930 . S
H434 C450 0.931 . S
C435 H423 0.929 . S
C435 C429 1.390 . S
C435 C432 1.386 . S
C436 C431 1.490 . S
C436 C438 1.395 . S
C436 C439 1.403 . S
H437 C443 0.930 . S
C438 H424 0.930 . S
C438 C436 1.395 . S
C438 C441 1.403 . S
C439 C436 1.403 . S
C439 C440 1.524 . S
C439 C443 1.400 . S
C440 H425 0.960 . S
C440 H426 0.960 . S
C440 H427 0.960 . S
C440 C439 1.524 . S
C441 C438 1.403 . S
C441 C442 1.392 . S
C441 C445 1.495 . S
C442 C441 1.392 . S
C442 C443 1.385 . S
C442 C444 1.478 . S
C443 H437 0.930 . S
C443 C439 1.400 . S
C443 C442 1.385 . S
C444 C442 1.478 . S
C444 C446 1.381 . S
C444 C450 1.383 . S
C445 C441 1.495 . S
C445 H451 0.959 . S
C445 H452 0.961 . S
C445 H453 0.960 1_545 S
C446 C444 1.381 . S
C446 C447 1.394 . S
C446 H454 0.936 . S
C447 C446 1.394 . S
C447 C448 1.383 . S
C447 H455 0.929 1_545 S
C448 C447 1.383 . S
C448 C449 1.377 . S
C449 H433 0.930 . S
C449 C448 1.377 . S
C449 C450 1.379 . S
C450 H434 0.931 . S
C450 C444 1.383 . S
C450 C449 1.379 . S
H451 C445 0.959 . S
H452 C445 0.961 . S
H453 C445 0.960 1_565 S
H454 C446 0.936 . S
H455 C447 0.929 1_565 S
H456 C464 0.929 . S
H457 C466 0.930 . S
H458 C468 0.930 . S
H459 C471 0.929 . S
H460 C474 0.930 . S
H461 C476 0.960 . S
H462 C476 0.960 . S
H463 C476 0.960 . S
C464 H456 0.929 . S
C464 C465 1.377 . S
C464 C466 1.384 . S
C465 C464 1.377 . S
C465 C471 1.390 . S
C466 H457 0.930 . S
C466 C464 1.384 . S
C466 C467 1.372 . S
C467 C466 1.372 . S
C467 C468 1.400 . S
C467 C472 1.490 . S
C468 H458 0.930 . S
C468 C467 1.400 . S
C468 C471 1.386 . S
H469 C485 0.930 . S
H470 C486 0.931 . S
C471 H459 0.929 . S
C471 C465 1.390 . S
C471 C468 1.386 . S
C472 C467 1.490 . S
C472 C474 1.395 . S
C472 C475 1.403 . S
H473 C479 0.930 . S
C474 H460 0.930 . S
C474 C472 1.395 . S
C474 C477 1.403 . S
C475 C472 1.403 . S
C475 C476 1.524 . S
C475 C479 1.400 . S
C476 H461 0.960 . S
C476 H462 0.960 . S
C476 H463 0.960 . S
C476 C475 1.524 . S
C477 C474 1.403 . S
C477 C478 1.392 . S
C477 C481 1.495 . S
C478 C477 1.392 . S
C478 C479 1.385 . S
C478 C480 1.478 . S
C479 H473 0.930 . S
C479 C475 1.400 . S
C479 C478 1.385 . S
C480 C478 1.478 . S
C480 C482 1.381 . S
C480 C486 1.383 . S
C481 C477 1.495 . S
C481 H487 0.959 . S
C481 H488 0.961 . S
C481 H489 0.960 . S
C482 C480 1.381 . S
C482 C483 1.394 . S
C482 H490 0.930 . S
C483 C482 1.394 . S
C483 C484 1.383 . S
C483 H491 0.929 . S
C484 C483 1.383 . S
C484 C485 1.377 . S
C485 H469 0.930 . S
C485 C484 1.377 . S
C485 C486 1.379 . S
C486 H470 0.931 . S
C486 C480 1.383 . S
C486 C485 1.379 . S
H487 C481 0.959 . S
H488 C481 0.961 . S
H489 C481 0.960 . S
H490 C482 0.930 . S
H491 C483 0.929 . S
H492 C500 0.929 . S
H493 C502 0.930 . S
H494 C504 0.930 . S
H495 C507 0.929 . S
H496 C510 0.930 . S
H497 C512 0.960 . S
H498 C512 0.960 . S
H499 C512 0.960 . S
C500 H492 0.929 . S
C500 C501 1.377 . S
C500 C502 1.384 . S
C501 C500 1.377 . S
C501 C507 1.390 . S
C502 H493 0.930 . S
C502 C500 1.384 . S
C502 C503 1.372 . S
C503 C502 1.372 . S
C503 C504 1.400 . S
C503 C508 1.490 . S
C504 H494 0.930 . S
C504 C503 1.400 . S
C504 C507 1.386 . S
H505 C521 0.930 . S
H506 C522 0.931 . S
C507 H495 0.929 . S
C507 C501 1.390 . S
C507 C504 1.386 . S
C508 C503 1.490 . S
C508 C510 1.395 . S
C508 C511 1.403 . S
H509 C515 0.930 . S
C510 H496 0.930 . S
C510 C508 1.395 . S
C510 C513 1.403 . S
C511 C508 1.403 . S
C511 C512 1.524 . S
C511 C515 1.400 . S
C512 H497 0.960 . S
C512 H498 0.960 . S
C512 H499 0.960 . S
C512 C511 1.524 . S
C513 C510 1.403 . S
C513 C514 1.392 . S
C513 C517 1.495 . S
C514 C513 1.392 . S
C514 C515 1.385 . S
C514 C516 1.478 . S
C515 H509 0.930 . S
C515 C511 1.400 . S
C515 C514 1.385 . S
C516 C514 1.478 . S
C516 C518 1.381 . S
C516 C522 1.383 . S
C517 C513 1.495 . S
C517 H523 0.959 . S
C517 H524 0.961 . S
C517 H525 0.960 . S
C518 C516 1.381 . S
C518 C519 1.394 . S
C518 H526 0.930 . S
C519 C518 1.394 . S
C519 C520 1.383 . S
C519 H527 0.929 . S
C520 C519 1.383 . S
C520 C521 1.377 . S
C521 H505 0.930 . S
C521 C520 1.377 . S
C521 C522 1.379 . S
C522 H506 0.931 . S
C522 C516 1.383 . S
C522 C521 1.379 . S
H523 C517 0.959 . S
H524 C517 0.961 . S
H525 C517 0.960 . S
H526 C518 0.930 . S
H527 C519 0.929 . S
H528 C536 0.929 . S
H529 C538 0.930 . S
H530 C540 0.930 . S
H531 C543 0.929 . S
H532 C546 0.930 . S
H533 C548 0.960 . S
H534 C548 0.960 . S
H535 C548 0.960 . S
C536 H528 0.929 . S
C536 C537 1.377 . S
C536 C538 1.384 . S
C537 C536 1.377 . S
C537 C543 1.390 . S
C538 H529 0.930 . S
C538 C536 1.384 . S
C538 C539 1.372 . S
C539 C538 1.372 . S
C539 C540 1.400 . S
C539 C544 1.490 . S
C540 H530 0.930 . S
C540 C539 1.400 . S
C540 C543 1.386 . S
H541 C557 0.930 . S
H542 C558 0.931 . S
C543 H531 0.929 . S
C543 C537 1.390 . S
C543 C540 1.386 . S
C544 C539 1.490 . S
C544 C546 1.395 . S
C544 C547 1.403 . S
H545 C551 0.930 . S
C546 H532 0.930 . S
C546 C544 1.395 . S
C546 C549 1.403 . S
C547 C544 1.403 . S
C547 C548 1.524 . S
C547 C551 1.400 . S
C548 H533 0.960 . S
C548 H534 0.960 . S
C548 H535 0.960 . S
C548 C547 1.524 . S
C549 C546 1.403 . S
C549 C550 1.392 . S
C549 C553 1.495 . S
C550 C549 1.392 . S
C550 C551 1.385 . S
C550 C552 1.478 . S
C551 H545 0.930 . S
C551 C547 1.400 . S
C551 C550 1.385 . S
C552 C550 1.478 . S
C552 C554 1.381 . S
C552 C558 1.383 . S
C553 C549 1.495 . S
C553 H559 0.959 . S
C553 H560 0.961 . S
C553 H561 0.960 . S
C554 C552 1.381 . S
C554 C555 1.394 . S
C554 H562 0.930 . S
C555 C554 1.394 . S
C555 C556 1.383 . S
C555 H563 0.929 . S
C556 C555 1.383 . S
C556 C557 1.377 . S
C557 H541 0.930 . S
C557 C556 1.377 . S
C557 C558 1.379 . S
C558 H542 0.931 . S
C558 C552 1.383 . S
C558 C557 1.379 . S
H559 C553 0.959 . S
H560 C553 0.961 . S
H561 C553 0.960 . S
H562 C554 0.930 . S
H563 C555 0.929 . S
H564 C572 0.929 . S
H565 C574 0.930 . S
H566 C576 0.930 . S
H567 C579 0.929 . S
H568 C582 0.930 . S
H569 C584 0.960 . S
H570 C584 0.960 . S
H571 C584 0.960 . S
C572 H564 0.929 . S
C572 C573 1.377 . S
C572 C574 1.384 . S
C573 C572 1.377 . S
C573 C579 1.390 . S
C574 H565 0.930 . S
C574 C572 1.384 . S
C574 C575 1.372 . S
C575 C574 1.372 . S
C575 C576 1.400 . S
C575 C580 1.490 . S
C576 H566 0.930 . S
C576 C575 1.400 . S
C576 C579 1.386 . S
H577 C593 0.930 . S
H578 C594 0.931 . S
C579 H567 0.929 . S
C579 C573 1.390 . S
C579 C576 1.386 . S
C580 C575 1.490 . S
C580 C582 1.395 . S
C580 C583 1.403 . S
H581 C587 0.930 . S
C582 H568 0.930 . S
C582 C580 1.395 . S
C582 C585 1.403 . S
C583 C580 1.403 . S
C583 C584 1.524 . S
C583 C587 1.400 . S
C584 H569 0.960 . S
C584 H570 0.960 . S
C584 H571 0.960 . S
C584 C583 1.524 . S
C585 C582 1.403 . S
C585 C586 1.392 . S
C585 C589 1.495 . S
C586 C585 1.392 . S
C586 C587 1.385 . S
C586 C588 1.478 . S
C587 H581 0.930 . S
C587 C583 1.400 . S
C587 C586 1.385 . S
C588 C586 1.478 . S
C588 C590 1.381 . S
C588 C594 1.383 . S
C589 C585 1.495 . S
C589 H595 0.959 . S
C589 H596 0.961 . S
C589 H597 0.960 . S
C590 C588 1.381 . S
C590 C591 1.394 . S
C590 H598 0.930 . S
C591 C590 1.394 . S
C591 C592 1.383 . S
C591 H599 0.929 . S
C592 C591 1.383 . S
C592 C593 1.377 . S
C593 H577 0.930 . S
C593 C592 1.377 . S
C593 C594 1.379 . S
C594 H578 0.931 . S
C594 C588 1.383 . S
C594 C593 1.379 . S
H595 C589 0.959 . S
H596 C589 0.961 . S
H597 C589 0.960 . S
H598 C590 0.930 . S
H599 C591 0.929 . S
H600 C608 0.929 . S
H601 C610 0.930 . S
H602 C612 0.930 . S
H603 C615 0.929 . S
H604 C618 0.930 . S
H605 C620 0.960 . S
H606 C620 0.960 . S
H607 C620 0.960 . S
C608 H600 0.929 . S
C608 C609 1.377 . S
C608 C610 1.384 . S
C609 C608 1.377 . S
C609 C615 1.390 . S
C610 H601 0.930 . S
C610 C608 1.384 . S
C610 C611 1.372 . S
C611 C610 1.372 . S
C611 C612 1.400 . S
C611 C616 1.490 . S
C612 H602 0.930 . S
C612 C611 1.400 . S
C612 C615 1.386 . S
H613 C629 0.930 . S
H614 C630 0.931 . S
C615 H603 0.929 . S
C615 C609 1.390 . S
C615 C612 1.386 . S
C616 C611 1.490 . S
C616 C618 1.395 . S
C616 C619 1.403 . S
H617 C623 0.930 . S
C618 H604 0.930 . S
C618 C616 1.395 . S
C618 C621 1.403 . S
C619 C616 1.403 . S
C619 C620 1.524 . S
C619 C623 1.400 . S
C620 H605 0.960 . S
C620 H606 0.960 . S
C620 H607 0.960 . S
C620 C619 1.524 . S
C621 C618 1.403 . S
C621 C622 1.392 . S
C621 C625 1.495 . S
C622 C621 1.392 . S
C622 C623 1.385 . S
C622 C624 1.478 . S
C623 H617 0.930 . S
C623 C619 1.400 . S
C623 C622 1.385 . S
C624 C622 1.478 . S
C624 C626 1.381 . S
C624 C630 1.383 . S
C625 C621 1.495 . S
C625 H631 0.959 . S
C625 H632 0.961 1_565 S
C625 H633 0.960 . S
C626 C624 1.381 . S
C626 C627 1.394 . S
C626 H634 0.930 . S
C627 C626 1.394 . S
C627 C628 1.383 . S
C627 H635 0.929 . S
C628 C627 1.383 . S
C628 C629 1.377 . S
C629 H613 0.930 . S
C629 C628 1.377 . S
C629 C630 1.379 . S
C630 H614 0.931 . S
C630 C624 1.383 . S
C630 C629 1.379 . S
H631 C625 0.959 . S
H632 C625 0.961 1_545 S
H633 C625 0.960 . S
H634 C626 0.930 . S
H635 C627 0.929 . S
C232 C104 1.539 . S
C213 C34 1.571 . S
C249 C7 1.554 . S
C268 C176 1.543 . S
C285 C16 1.570 . S
C304 C92 1.546 . S
C321 C25 1.548 . S
C340 C188 1.545 . S
C376 C94 1.401 . S
C357 C5 1.531 . S
C412 C175 1.560 . S
C393 C13 1.562 . S
C429 C23 1.541 . S
C448 C91 1.540 . S
C465 C32 1.525 . S
C484 C178 1.325 . S
C520 C190 1.371 . S
C501 C14 1.520 . S
C556 C106 1.336 . S
C537 C22 1.529 1_556 S
C592 C187 1.559 . S
C573 C31 1.563 . S
C609 C4 1.534 . S
C628 C103 1.538 . S
