# Generated by pormake.
# Topology eea, (3,6)-cn, num edge types: 1
# Building blocks:
#     Node 0, Type 0, BuildingBlock: KAKCAD_clean_linker_0, # of connection points: 3
#     Node 1, Type 0, BuildingBlock: KAKCAD_clean_linker_0, # of connection points: 3
#     Node 2, Type 0, BuildingBlock: KAKCAD_clean_linker_0, # of connection points: 3
#     Node 3, Type 0, BuildingBlock: KAKCAD_clean_linker_0, # of connection points: 3
#     Node 4, Type 0, BuildingBlock: KAKCAD_clean_linker_0, # of connection points: 3
#     Node 5, Type 0, BuildingBlock: KAKCAD_clean_linker_0, # of connection points: 3
#     Node 6, Type 0, BuildingBlock: KAKCAD_clean_linker_0, # of connection points: 3
#     Node 7, Type 0, BuildingBlock: KAKCAD_clean_linker_0, # of connection points: 3
#     Node 8, Type 0, BuildingBlock: KAKCAD_clean_linker_0, # of connection points: 3
#     Node 9, Type 0, BuildingBlock: KAKCAD_clean_linker_0, # of connection points: 3
#     Node 10, Type 0, BuildingBlock: KAKCAD_clean_linker_0, # of connection points: 3
#     Node 11, Type 0, BuildingBlock: KAKCAD_clean_linker_0, # of connection points: 3
#     Node 12, Type 0, BuildingBlock: KAKCAD_clean_linker_0, # of connection points: 3
#     Node 13, Type 0, BuildingBlock: KAKCAD_clean_linker_0, # of connection points: 3
#     Node 14, Type 0, BuildingBlock: KAKCAD_clean_linker_0, # of connection points: 3
#     Node 15, Type 0, BuildingBlock: KAKCAD_clean_linker_0, # of connection points: 3
#     Node 16, Type 0, BuildingBlock: KAKCAD_clean_linker_0, # of connection points: 3
#     Node 17, Type 0, BuildingBlock: KAKCAD_clean_linker_0, # of connection points: 3
#     Node 18, Type 1, BuildingBlock: NUHQIS_clean_sbu_0, # of connection points: 6
#     Node 19, Type 1, BuildingBlock: NUHQIS_clean_sbu_0, # of connection points: 6
#     Node 20, Type 1, BuildingBlock: NUHQIS_clean_sbu_0, # of connection points: 6
#     Node 21, Type 1, BuildingBlock: NUHQIS_clean_sbu_0, # of connection points: 6
#     Node 22, Type 1, BuildingBlock: NUHQIS_clean_sbu_0, # of connection points: 6
#     Node 23, Type 1, BuildingBlock: NUHQIS_clean_sbu_0, # of connection points: 6
#     Node 24, Type 1, BuildingBlock: NUHQIS_clean_sbu_0, # of connection points: 6
#     Node 25, Type 1, BuildingBlock: NUHQIS_clean_sbu_0, # of connection points: 6
#     Node 26, Type 1, BuildingBlock: NUHQIS_clean_sbu_0, # of connection points: 6
#     Edge 27, Type (0, 1), BuildingBlock: TEMPAE_clean_linker_10, # of connection points: 2
#     Edge 28, Type (0, 1), BuildingBlock: TEMPAE_clean_linker_10, # of connection points: 2
#     Edge 29, Type (0, 1), BuildingBlock: TEMPAE_clean_linker_10, # of connection points: 2
#     Edge 30, Type (0, 1), BuildingBlock: TEMPAE_clean_linker_10, # of connection points: 2
#     Edge 31, Type (0, 1), BuildingBlock: TEMPAE_clean_linker_10, # of connection points: 2
#     Edge 32, Type (0, 1), BuildingBlock: TEMPAE_clean_linker_10, # of connection points: 2
#     Edge 33, Type (0, 1), BuildingBlock: TEMPAE_clean_linker_10, # of connection points: 2
#     Edge 34, Type (0, 1), BuildingBlock: TEMPAE_clean_linker_10, # of connection points: 2
#     Edge 35, Type (0, 1), BuildingBlock: TEMPAE_clean_linker_10, # of connection points: 2
#     Edge 36, Type (0, 1), BuildingBlock: TEMPAE_clean_linker_10, # of connection points: 2
#     Edge 37, Type (0, 1), BuildingBlock: TEMPAE_clean_linker_10, # of connection points: 2
#     Edge 38, Type (0, 1), BuildingBlock: TEMPAE_clean_linker_10, # of connection points: 2
#     Edge 39, Type (0, 1), BuildingBlock: TEMPAE_clean_linker_10, # of connection points: 2
#     Edge 40, Type (0, 1), BuildingBlock: TEMPAE_clean_linker_10, # of connection points: 2
#     Edge 41, Type (0, 1), BuildingBlock: TEMPAE_clean_linker_10, # of connection points: 2
#     Edge 42, Type (0, 1), BuildingBlock: TEMPAE_clean_linker_10, # of connection points: 2
#     Edge 43, Type (0, 1), BuildingBlock: TEMPAE_clean_linker_10, # of connection points: 2
#     Edge 44, Type (0, 1), BuildingBlock: TEMPAE_clean_linker_10, # of connection points: 2
#     Edge 45, Type (0, 1), BuildingBlock: TEMPAE_clean_linker_10, # of connection points: 2
#     Edge 46, Type (0, 1), BuildingBlock: TEMPAE_clean_linker_10, # of connection points: 2
#     Edge 47, Type (0, 1), BuildingBlock: TEMPAE_clean_linker_10, # of connection points: 2
#     Edge 48, Type (0, 1), BuildingBlock: TEMPAE_clean_linker_10, # of connection points: 2
#     Edge 49, Type (0, 1), BuildingBlock: TEMPAE_clean_linker_10, # of connection points: 2
#     Edge 50, Type (0, 1), BuildingBlock: TEMPAE_clean_linker_10, # of connection points: 2
#     Edge 51, Type (0, 1), BuildingBlock: TEMPAE_clean_linker_10, # of connection points: 2
#     Edge 52, Type (0, 1), BuildingBlock: TEMPAE_clean_linker_10, # of connection points: 2
#     Edge 53, Type (0, 1), BuildingBlock: TEMPAE_clean_linker_10, # of connection points: 2
#     Edge 54, Type (0, 1), BuildingBlock: TEMPAE_clean_linker_10, # of connection points: 2
#     Edge 55, Type (0, 1), BuildingBlock: TEMPAE_clean_linker_10, # of connection points: 2
#     Edge 56, Type (0, 1), BuildingBlock: TEMPAE_clean_linker_10, # of connection points: 2
#     Edge 57, Type (0, 1), BuildingBlock: TEMPAE_clean_linker_10, # of connection points: 2
#     Edge 58, Type (0, 1), BuildingBlock: TEMPAE_clean_linker_10, # of connection points: 2
#     Edge 59, Type (0, 1), BuildingBlock: TEMPAE_clean_linker_10, # of connection points: 2
#     Edge 60, Type (0, 1), BuildingBlock: TEMPAE_clean_linker_10, # of connection points: 2
#     Edge 61, Type (0, 1), BuildingBlock: TEMPAE_clean_linker_10, # of connection points: 2
#     Edge 62, Type (0, 1), BuildingBlock: TEMPAE_clean_linker_10, # of connection points: 2
#     Edge 63, Type (0, 1), BuildingBlock: TEMPAE_clean_linker_10, # of connection points: 2
#     Edge 64, Type (0, 1), BuildingBlock: TEMPAE_clean_linker_10, # of connection points: 2
#     Edge 65, Type (0, 1), BuildingBlock: TEMPAE_clean_linker_10, # of connection points: 2
#     Edge 66, Type (0, 1), BuildingBlock: TEMPAE_clean_linker_10, # of connection points: 2
#     Edge 67, Type (0, 1), BuildingBlock: TEMPAE_clean_linker_10, # of connection points: 2
#     Edge 68, Type (0, 1), BuildingBlock: TEMPAE_clean_linker_10, # of connection points: 2
#     Edge 69, Type (0, 1), BuildingBlock: TEMPAE_clean_linker_10, # of connection points: 2
#     Edge 70, Type (0, 1), BuildingBlock: TEMPAE_clean_linker_10, # of connection points: 2
#     Edge 71, Type (0, 1), BuildingBlock: TEMPAE_clean_linker_10, # of connection points: 2
#     Edge 72, Type (0, 1), BuildingBlock: TEMPAE_clean_linker_10, # of connection points: 2
#     Edge 73, Type (0, 1), BuildingBlock: TEMPAE_clean_linker_10, # of connection points: 2
#     Edge 74, Type (0, 1), BuildingBlock: TEMPAE_clean_linker_10, # of connection points: 2
#     Edge 75, Type (0, 1), BuildingBlock: TEMPAE_clean_linker_10, # of connection points: 2
#     Edge 76, Type (0, 1), BuildingBlock: TEMPAE_clean_linker_10, # of connection points: 2
#     Edge 77, Type (0, 1), BuildingBlock: TEMPAE_clean_linker_10, # of connection points: 2
#     Edge 78, Type (0, 1), BuildingBlock: TEMPAE_clean_linker_10, # of connection points: 2
#     Edge 79, Type (0, 1), BuildingBlock: TEMPAE_clean_linker_10, # of connection points: 2
#     Edge 80, Type (0, 1), BuildingBlock: TEMPAE_clean_linker_10, # of connection points: 2
# Relax obj value: 0.034
# Max RMSD: 0.133
# Mean RMSD: 0.074
data_MOF--net-eea--node1-NUHQIS_clean_sbu_0--node2-KAKCAD_clean_linker_0--edge1-TEMPAE_clean_linker_10
_symmetry_space_group_name_H-M    P1
_symmetry_Int_Tables_number       1
_symmetry_cell_setting            triclinic
loop_
_symmetry_equiv_pos_as_xyz
'x, y, z'
_cell_length_a     63.210168
_cell_length_b     63.350934
_cell_length_c     91.594105
_cell_angle_alpha  93.656876
_cell_angle_beta   93.373129
_cell_angle_gamma 119.85406
loop_
_atom_site_label
_atom_site_type_symbol
_atom_site_fract_x
_atom_site_fract_y
_atom_site_fract_z
_atom_type_partial_charge
C0 C 0.31151 0.18677 0.47506 0.0
C1 C 0.32631 0.17798 0.48098 0.0
C2 C 0.3041 0.18264 0.45999 0.0
C3 C 0.31149 0.16981 0.45044 0.0
C4 C 0.3272 0.162 0.45628 0.0
C5 C 0.33444 0.16595 0.47138 0.0
C6 C 0.30129 0.16303 0.43471 0.0
C7 C 0.29713 0.17917 0.42681 0.0
C8 C 0.28467 0.1717 0.41255 0.0
C9 C 0.27706 0.14798 0.40606 0.0
C10 C 0.28176 0.13193 0.41361 0.0
C11 C 0.29383 0.13954 0.4279 0.0
C12 C 0.27289 0.1067 0.40689 0.0
C13 C 0.24862 0.09217 0.40039 0.0
C14 C 0.2885 0.09686 0.40715 0.0
C15 C 0.27999 0.07293 0.40097 0.0
C16 C 0.25564 0.05833 0.3946 0.0
C17 C 0.27815 0.18796 0.40478 0.0
C18 C 0.27114 0.20291 0.41265 0.0
C19 C 0.27753 0.18767 0.38937 0.0
C20 C 0.26917 0.2012 0.382 0.0
C21 C 0.26176 0.21567 0.3899 0.0
C22 C 0.26322 0.21677 0.40529 0.0
C23 C 0.24004 0.06816 0.39436 0.0
H24 H 0.30526 0.19649 0.48211 0.0
H25 H 0.2918 0.18871 0.45593 0.0
H26 H 0.33352 0.15237 0.44922 0.0
H27 H 0.34572 0.15879 0.47556 0.0
H28 H 0.30346 0.19753 0.43185 0.0
H29 H 0.29625 0.12663 0.43398 0.0
H30 H 0.267 0.14169 0.39521 0.0
H31 H 0.23615 0.09924 0.40017 0.0
H32 H 0.30732 0.10775 0.41205 0.0
H33 H 0.29233 0.0657 0.40136 0.0
H34 H 0.27089 0.2033 0.42447 0.0
H35 H 0.28326 0.1768 0.38296 0.0
H36 H 0.22124 0.05733 0.38941 0.0
H37 H 0.25735 0.22764 0.41159 0.0
H38 H 0.26839 0.20028 0.37011 0.0
C39 C 0.88767 0.17899 0.47697 0.0
C40 C 0.88341 0.16256 0.4876 0.0
C41 C 0.89155 0.17357 0.46265 0.0
C42 C 0.89096 0.1515 0.45865 0.0
C43 C 0.88765 0.13555 0.46937 0.0
C44 C 0.88412 0.14109 0.48369 0.0
C45 C 0.89185 0.14407 0.44313 0.0
C46 C 0.91092 0.15948 0.43506 0.0
C47 C 0.91176 0.15175 0.42044 0.0
C48 C 0.89267 0.12898 0.41379 0.0
C49 C 0.87355 0.11359 0.42174 0.0
C50 C 0.87339 0.12108 0.43642 0.0
C51 C 0.854 0.08938 0.41479 0.0
C52 C 0.83991 0.08744 0.40182 0.0
C53 C 0.84946 0.0681 0.42106 0.0
C54 C 0.83135 0.04513 0.41436 0.0
C55 C 0.81699 0.04299 0.40138 0.0
C56 C 0.933 0.16669 0.41223 0.0
C57 C 0.94268 0.19204 0.41228 0.0
C58 C 0.9437 0.15544 0.4042 0.0
C59 C 0.96356 0.16917 0.39636 0.0
C60 C 0.97317 0.19448 0.3963 0.0
C61 C 0.9625 0.20579 0.40432 0.0
C62 C 0.82141 0.0645 0.39527 0.0
H63 H 0.88708 0.1956 0.47953 0.0
H64 H 0.89393 0.18609 0.45454 0.0
H65 H 0.88744 0.11855 0.46659 0.0
H66 H 0.88159 0.12832 0.49165 0.0
H67 H 0.92556 0.17696 0.44034 0.0
H68 H 0.85854 0.10915 0.44254 0.0
H69 H 0.89287 0.12297 0.40247 0.0
H70 H 0.84301 0.1037 0.39688 0.0
H71 H 0.86031 0.06922 0.43101 0.0
H72 H 0.82895 0.02906 0.41924 0.0
H73 H 0.93475 0.20118 0.41832 0.0
H74 H 0.93684 0.13599 0.40409 0.0
H75 H 0.81049 0.06371 0.38547 0.0
H76 H 0.96968 0.22532 0.40459 0.0
H77 H 0.97129 0.15992 0.39021 0.0
C78 C 0.89901 0.74168 0.48581 0.0
C79 C 0.87492 0.72473 0.48843 0.0
C80 C 0.90391 0.7511 0.47219 0.0
C81 C 0.88484 0.74362 0.46081 0.0
C82 C 0.86085 0.72617 0.46337 0.0
C83 C 0.85595 0.71698 0.47701 0.0
C84 C 0.8897 0.75436 0.44646 0.0
C85 C 0.91134 0.75988 0.43997 0.0
C86 C 0.91565 0.76978 0.42639 0.0
C87 C 0.89834 0.77461 0.41943 0.0
C88 C 0.87679 0.76935 0.42574 0.0
C89 C 0.87255 0.75919 0.43917 0.0
C90 C 0.85867 0.7745 0.41827 0.0
C91 C 0.86575 0.79812 0.41459 0.0
C92 C 0.8342 0.7558 0.41474 0.0
C93 C 0.81716 0.76055 0.40749 0.0
C94 C 0.82405 0.78429 0.40388 0.0
C95 C 0.93798 0.77483 0.41925 0.0
C96 C 0.96142 0.78862 0.42706 0.0
C97 C 0.93598 0.76649 0.40436 0.0
C98 C 0.95694 0.77195 0.39738 0.0
C99 C 0.98041 0.78618 0.40507 0.0
C100 C 0.98244 0.79443 0.41999 0.0
C101 C 0.84861 0.80303 0.40763 0.0
H102 H 0.914 0.74813 0.49443 0.0
H103 H 0.92256 0.76469 0.47072 0.0
H104 H 0.84575 0.71948 0.45481 0.0
H105 H 0.83726 0.70361 0.4786 0.0
H106 H 0.92451 0.75581 0.44522 0.0
H107 H 0.85608 0.75567 0.4441 0.0
H108 H 0.90159 0.78242 0.40903 0.0
H109 H 0.8845 0.81288 0.41733 0.0
H110 H 0.82838 0.73737 0.41736 0.0
H111 H 0.79865 0.74547 0.40454 0.0
H112 H 0.96348 0.79537 0.43852 0.0
H113 H 0.91814 0.75571 0.39811 0.0
H114 H 0.85463 0.82164 0.40538 0.0
H115 H 1.00031 0.80531 0.42621 0.0
H116 H 0.95482 0.76546 0.38586 0.0
C117 C 0.13039 0.25167 0.52336 0.0
C118 C 0.12749 0.2717 0.52049 0.0
C119 C 0.12577 0.2422 0.53694 0.0
C120 C 0.1179 0.25234 0.54797 0.0
C121 C 0.1144 0.27195 0.54503 0.0
C122 C 0.11924 0.28159 0.53148 0.0
C123 C 0.11413 0.24289 0.56263 0.0
C124 C 0.13167 0.23849 0.56973 0.0
C125 C 0.12856 0.22954 0.58356 0.0
C126 C 0.10748 0.22502 0.5903 0.0
C127 C 0.08953 0.22911 0.58339 0.0
C128 C 0.09315 0.23822 0.56955 0.0
C129 C 0.06698 0.22361 0.59062 0.0
C130 C 0.05576 0.20326 0.59868 0.0
C131 C 0.05662 0.23872 0.5897 0.0
C132 C 0.03576 0.23372 0.59673 0.0
C133 C 0.02478 0.21356 0.60496 0.0
C134 C 0.14723 0.22478 0.59091 0.0
C135 C 0.15846 0.21426 0.58272 0.0
C136 C 0.15386 0.23051 0.60619 0.0
C137 C 0.1711 0.22567 0.6131 0.0
C138 C 0.18225 0.21507 0.60491 0.0
C139 C 0.17577 0.20951 0.58963 0.0
C140 C 0.03509 0.19841 0.60581 0.0
H141 H 0.13615 0.24317 0.51509 0.0
H142 H 0.12828 0.22683 0.53879 0.0
H143 H 0.10857 0.28029 0.55337 0.0
H144 H 0.11708 0.2972 0.52976 0.0
H145 H 0.14813 0.24262 0.56459 0.0
H146 H 0.07932 0.24101 0.56393 0.0
H147 H 0.10501 0.21817 0.60097 0.0
H148 H 0.06287 0.19091 0.59945 0.0
H149 H 0.06482 0.25468 0.58373 0.0
H150 H 0.02819 0.24563 0.59562 0.0
H151 H 0.15363 0.20936 0.57097 0.0
H152 H 0.14584 0.2389 0.61283 0.0
H153 H 0.02742 0.1829 0.61218 0.0
H154 H 0.18418 0.20161 0.58294 0.0
H155 H 0.17542 0.22995 0.62491 0.0
C156 C 0.67496 0.81393 0.53909 0.0
C157 C 0.68543 0.83271 0.52985 0.0
C158 C 0.68309 0.81847 0.55411 0.0
C159 C 0.70171 0.84189 0.56014 0.0
C160 C 0.71242 0.86049 0.55086 0.0
C161 C 0.70443 0.85595 0.5359 0.0
C162 C 0.71007 0.84724 0.57608 0.0
C163 C 0.71596 0.83179 0.58341 0.0
C164 C 0.72577 0.83794 0.59828 0.0
C165 C 0.7295 0.85987 0.60572 0.0
C166 C 0.7241 0.87572 0.59841 0.0
C167 C 0.71379 0.86889 0.58372 0.0
C168 C 0.73125 0.90036 0.60562 0.0
C169 C 0.72893 0.90403 0.62062 0.0
C170 C 0.74159 0.92073 0.59756 0.0
C171 C 0.74964 0.94416 0.6043 0.0
C172 C 0.74793 0.94796 0.61936 0.0
C173 C 0.73363 0.82234 0.60571 0.0
C174 C 0.72055 0.79671 0.60238 0.0
C175 C 0.7548 0.83305 0.61587 0.0
C176 C 0.76265 0.81854 0.62248 0.0
C177 C 0.74985 0.79314 0.61884 0.0
C178 C 0.72876 0.78228 0.60876 0.0
C179 C 0.73724 0.9276 0.62743 0.0
H180 H 0.66018 0.79587 0.53477 0.0
H181 H 0.67449 0.80383 0.56105 0.0
H182 H 0.72719 0.87859 0.55516 0.0
H183 H 0.71331 0.87064 0.52903 0.0
H184 H 0.71403 0.81561 0.57729 0.0
H185 H 0.70898 0.88068 0.57807 0.0
H186 H 0.73736 0.86504 0.61708 0.0
H187 H 0.72084 0.88871 0.62712 0.0
H188 H 0.74407 0.91872 0.58605 0.0
H189 H 0.75736 0.95936 0.59769 0.0
H190 H 0.70396 0.78774 0.59482 0.0
H191 H 0.76577 0.8527 0.61847 0.0
H192 H 0.73577 0.92993 0.63907 0.0
H193 H 0.71861 0.76262 0.60589 0.0
H194 H 0.77913 0.82722 0.63015 0.0
C195 C 0.09874 0.82437 0.52414 0.0
C196 C 0.12249 0.83202 0.52027 0.0
C197 C 0.09511 0.82893 0.53869 0.0
C198 C 0.11515 0.84103 0.54962 0.0
C199 C 0.13871 0.84756 0.54577 0.0
C200 C 0.14235 0.84327 0.53127 0.0
C201 C 0.11201 0.84801 0.56483 0.0
C202 C 0.09174 0.83228 0.57202 0.0
C203 C 0.0895 0.83904 0.58653 0.0
C204 C 0.10767 0.8617 0.59383 0.0
C205 C 0.1277 0.8779 0.58671 0.0
C206 C 0.12958 0.87091 0.57221 0.0
C207 C 0.14643 0.90236 0.59418 0.0
C208 C 0.13947 0.91635 0.60305 0.0
C209 C 0.17136 0.91224 0.59214 0.0
C210 C 0.18883 0.93569 0.59856 0.0
C211 C 0.18185 0.94979 0.60729 0.0
C212 C 0.06792 0.82284 0.59405 0.0
C213 C 0.04408 0.81412 0.58736 0.0
C214 C 0.07104 0.81714 0.60831 0.0
C215 C 0.0507 0.80321 0.6158 0.0
C216 C 0.02688 0.79511 0.60927 0.0
C217 C 0.02375 0.80055 0.59495 0.0
C218 C 0.15698 0.93974 0.60957 0.0
H219 H 0.08314 0.81568 0.51583 0.0
H220 H 0.07675 0.82377 0.54124 0.0
H221 H 0.15449 0.85629 0.55396 0.0
H222 H 0.16078 0.84892 0.52861 0.0
H223 H 0.07798 0.81458 0.5665 0.0
H224 H 0.14452 0.88367 0.56648 0.0
H225 H 0.10598 0.86681 0.60504 0.0
H226 H 0.12041 0.90945 0.60475 0.0
H227 H 0.17744 0.90185 0.58555 0.0
H228 H 0.20777 0.94291 0.59645 0.0
H229 H 0.04121 0.81842 0.57642 0.0
H230 H 0.08926 0.82361 0.61369 0.0
H231 H 0.15099 0.94992 0.61643 0.0
H232 H 0.00554 0.79434 0.58964 0.0
H233 H 0.05359 0.7993 0.62685 0.0
C234 C 0.97689 0.51689 0.80854 0.0
C235 C 0.99119 0.50759 0.81451 0.0
C236 C 0.97008 0.51337 0.79341 0.0
C237 C 0.97755 0.5006 0.78388 0.0
C238 C 0.99261 0.4921 0.7898 0.0
C239 C 0.99927 0.49547 0.80494 0.0
C240 C 0.96836 0.49481 0.768 0.0
C241 C 0.96569 0.51187 0.76018 0.0
C242 C 0.95477 0.50558 0.74556 0.0
C243 C 0.94738 0.48217 0.73862 0.0
C244 C 0.95024 0.465 0.74617 0.0
C245 C 0.96063 0.47147 0.76087 0.0
C246 C 0.94125 0.43989 0.739 0.0
C247 C 0.91897 0.42748 0.72987 0.0
C248 C 0.9546 0.42792 0.74149 0.0
C249 C 0.94571 0.40398 0.73518 0.0
C250 C 0.92334 0.39153 0.72613 0.0
C251 C 0.94927 0.5226 0.73788 0.0
C252 C 0.94139 0.53689 0.74565 0.0
C253 C 0.95006 0.52338 0.72258 0.0
C254 C 0.94198 0.53708 0.71516 0.0
C255 C 0.93348 0.55069 0.72293 0.0
C256 C 0.93377 0.55093 0.73826 0.0
C257 C 0.91019 0.40365 0.72345 0.0
H258 H 0.97068 0.52665 0.81558 0.0
H259 H 0.95827 0.51995 0.78926 0.0
H260 H 0.99895 0.48248 0.78275 0.0
H261 H 0.01013 0.48789 0.80917 0.0
H262 H 0.97199 0.53004 0.76555 0.0
H263 H 0.96166 0.45787 0.76699 0.0
H264 H 0.93878 0.47701 0.72741 0.0
H265 H 0.90802 0.43599 0.72787 0.0
H266 H 0.97196 0.43704 0.74834 0.0
H267 H 0.95618 0.39511 0.73761 0.0
H268 H 0.94008 0.53646 0.75737 0.0
H269 H 0.95651 0.51307 0.71627 0.0
H270 H 0.89307 0.39473 0.71637 0.0
H271 H 0.92705 0.56113 0.74445 0.0
H272 H 0.9421 0.53684 0.70333 0.0
C273 C 0.56158 0.51579 0.81222 0.0
C274 C 0.55268 0.49862 0.82256 0.0
C275 C 0.56531 0.50909 0.79814 0.0
C276 C 0.5601 0.48506 0.79411 0.0
C277 C 0.55209 0.46822 0.80463 0.0
C278 C 0.5485 0.47492 0.81867 0.0
C279 C 0.56155 0.47698 0.7788 0.0
C280 C 0.58205 0.491 0.77129 0.0
C281 C 0.58331 0.48299 0.7568 0.0
C282 C 0.56351 0.46074 0.74993 0.0
C283 C 0.54303 0.4464 0.75734 0.0
C284 C 0.54218 0.45482 0.77171 0.0
C285 C 0.52282 0.42228 0.75028 0.0
C286 C 0.51452 0.41903 0.73527 0.0
C287 C 0.51194 0.40213 0.7585 0.0
C288 C 0.49337 0.37931 0.75189 0.0
C289 C 0.48529 0.37596 0.73684 0.0
C290 C 0.6053 0.49749 0.74886 0.0
C291 C 0.61832 0.52328 0.75089 0.0
C292 C 0.61329 0.4856 0.73897 0.0
C293 C 0.63315 0.49905 0.73103 0.0
C294 C 0.64592 0.52469 0.73305 0.0
C295 C 0.63855 0.53671 0.74316 0.0
C296 C 0.49601 0.39614 0.72863 0.0
H297 H 0.56485 0.53416 0.81482 0.0
H298 H 0.57137 0.52242 0.79022 0.0
H299 H 0.54837 0.4497 0.80193 0.0
H300 H 0.54224 0.46141 0.82647 0.0
H301 H 0.59727 0.50773 0.77693 0.0
H302 H 0.52613 0.44425 0.77736 0.0
H303 H 0.56408 0.45436 0.73879 0.0
H304 H 0.52227 0.4342 0.72865 0.0
H305 H 0.51805 0.40386 0.77004 0.0
H306 H 0.48531 0.36428 0.7586 0.0
H307 H 0.61262 0.53317 0.75822 0.0
H308 H 0.60432 0.46583 0.73737 0.0
H309 H 0.49042 0.39417 0.71698 0.0
H310 H 0.64809 0.55653 0.74482 0.0
H311 H 0.63872 0.4894 0.7234 0.0
C312 C 0.56227 0.07857 0.81963 0.0
C313 C 0.53949 0.05778 0.8212 0.0
C314 C 0.5675 0.08791 0.80601 0.0
C315 C 0.54995 0.07694 0.79369 0.0
C316 C 0.52738 0.05602 0.79515 0.0
C317 C 0.52229 0.04645 0.80867 0.0
C318 C 0.55461 0.08767 0.77945 0.0
C319 C 0.57621 0.09338 0.77296 0.0
C320 C 0.58004 0.10273 0.75921 0.0
C321 C 0.5622 0.10684 0.7522 0.0
C322 C 0.54072 0.10172 0.75865 0.0
C323 C 0.53709 0.092 0.77226 0.0
C324 C 0.52219 0.10665 0.75123 0.0
C325 C 0.52961 0.12749 0.74368 0.0
C326 C 0.49693 0.09063 0.75168 0.0
C327 C 0.4796 0.09539 0.74482 0.0
C328 C 0.48703 0.11619 0.73722 0.0
C329 C 0.60245 0.10804 0.75197 0.0
C330 C 0.62574 0.12001 0.76005 0.0
C331 C 0.60073 0.10172 0.73677 0.0
C332 C 0.62174 0.10756 0.72977 0.0
C333 C 0.64508 0.11986 0.73778 0.0
C334 C 0.64682 0.12592 0.75303 0.0
C335 C 0.51228 0.13212 0.73671 0.0
H336 H 0.57589 0.08804 0.82901 0.0
H337 H 0.58498 0.10418 0.80521 0.0
H338 H 0.51363 0.04699 0.78578 0.0
H339 H 0.50482 0.03008 0.80927 0.0
H340 H 0.58961 0.08978 0.77839 0.0
H341 H 0.52083 0.0883 0.77751 0.0
H342 H 0.56507 0.11408 0.74164 0.0
H343 H 0.54888 0.14044 0.74325 0.0
H344 H 0.49047 0.07424 0.75722 0.0
H345 H 0.46036 0.08285 0.74563 0.0
H346 H 0.62773 0.12527 0.77176 0.0
H347 H 0.58307 0.09221 0.73024 0.0
H348 H 0.51874 0.14814 0.7308 0.0
H349 H 0.66448 0.13516 0.75955 0.0
H350 H 0.61972 0.10279 0.718 0.0
C351 C 0.79453 0.58195 0.85562 0.0
C352 C 0.79169 0.602 0.85271 0.0
C353 C 0.7904 0.57286 0.86932 0.0
C354 C 0.78306 0.58339 0.88044 0.0
C355 C 0.77959 0.60301 0.87747 0.0
C356 C 0.78397 0.61229 0.86379 0.0
C357 C 0.77984 0.57439 0.89522 0.0
C358 C 0.79763 0.57022 0.90218 0.0
C359 C 0.7951 0.56183 0.91616 0.0
C360 C 0.77434 0.5576 0.92318 0.0
C361 C 0.75608 0.56137 0.91638 0.0
C362 C 0.75915 0.56995 0.90239 0.0
C363 C 0.73376 0.556 0.92384 0.0
C364 C 0.72305 0.53607 0.93226 0.0
C365 C 0.72302 0.57076 0.92271 0.0
C366 C 0.70223 0.56574 0.92982 0.0
C367 C 0.69171 0.54595 0.93837 0.0
C368 C 0.81404 0.55732 0.92338 0.0
C369 C 0.82465 0.54615 0.91517 0.0
C370 C 0.82155 0.56396 0.93853 0.0
C371 C 0.83909 0.55942 0.94531 0.0
C372 C 0.84961 0.54814 0.93712 0.0
C373 C 0.84221 0.54164 0.92194 0.0
C374 C 0.70247 0.53123 0.93949 0.0
H375 H 0.79989 0.57315 0.84728 0.0
H376 H 0.79287 0.55748 0.87121 0.0
H377 H 0.77416 0.61165 0.88587 0.0
H378 H 0.78188 0.62793 0.86206 0.0
H379 H 0.81385 0.57411 0.89683 0.0
H380 H 0.7451 0.57251 0.89684 0.0
H381 H 0.77236 0.5512 0.93398 0.0
H382 H 0.73044 0.52398 0.93322 0.0
H383 H 0.73083 0.58641 0.91647 0.0
H384 H 0.69432 0.57731 0.92849 0.0
H385 H 0.81914 0.54057 0.9035 0.0
H386 H 0.81399 0.57284 0.94517 0.0
H387 H 0.69518 0.51603 0.94611 0.0
H388 H 0.85011 0.53316 0.91526 0.0
H389 H 0.84415 0.56444 0.95705 0.0
C390 C 0.33964 0.14408 0.87337 0.0
C391 C 0.34956 0.16257 0.86389 0.0
C392 C 0.3483 0.14912 0.88834 0.0
C393 C 0.36685 0.17277 0.89405 0.0
C394 C 0.37711 0.19102 0.8845 0.0
C395 C 0.36865 0.18597 0.86962 0.0
C396 C 0.37562 0.17892 0.90991 0.0
C397 C 0.38316 0.16475 0.9174 0.0
C398 C 0.39449 0.17262 0.93192 0.0
C399 C 0.39773 0.19454 0.93897 0.0
C400 C 0.39001 0.20873 0.93166 0.0
C401 C 0.37857 0.20049 0.91723 0.0
C402 C 0.39589 0.23314 0.93855 0.0
C403 C 0.39467 0.23716 0.95368 0.0
C404 C 0.40398 0.253 0.93008 0.0
C405 C 0.41108 0.27634 0.93659 0.0
C406 C 0.41064 0.28054 0.95178 0.0
C407 C 0.40467 0.15905 0.93938 0.0
C408 C 0.3909 0.13347 0.93905 0.0
C409 C 0.42847 0.17174 0.94679 0.0
C410 C 0.43832 0.15913 0.95374 0.0
C411 C 0.42456 0.13356 0.95347 0.0
C412 C 0.40072 0.12084 0.9461 0.0
C413 C 0.40204 0.26064 0.96024 0.0
H414 H 0.32485 0.12589 0.8693 0.0
H415 H 0.34013 0.13475 0.8955 0.0
H416 H 0.39184 0.20927 0.88857 0.0
H417 H 0.37718 0.20044 0.86256 0.0
H418 H 0.38152 0.14841 0.91166 0.0
H419 H 0.37233 0.21116 0.91149 0.0
H420 H 0.40701 0.20093 0.95002 0.0
H421 H 0.38826 0.22221 0.96049 0.0
H422 H 0.40554 0.25072 0.91845 0.0
H423 H 0.41719 0.29118 0.92971 0.0
H424 H 0.3725 0.12326 0.93345 0.0
H425 H 0.43964 0.19144 0.94705 0.0
H426 H 0.40161 0.26329 0.97199 0.0
H427 H 0.38981 0.10108 0.94559 0.0
H428 H 0.45667 0.1694 0.95941 0.0
C429 C 0.7727 0.15965 0.86059 0.0
C430 C 0.79644 0.16683 0.8568 0.0
C431 C 0.76892 0.16414 0.8751 0.0
C432 C 0.78879 0.17589 0.88614 0.0
C433 C 0.8124 0.18251 0.88239 0.0
C434 C 0.81619 0.17816 0.86792 0.0
C435 C 0.78526 0.18201 0.90144 0.0
C436 C 0.76488 0.16557 0.90829 0.0
C437 C 0.76214 0.17139 0.92287 0.0
C438 C 0.77989 0.19383 0.93057 0.0
C439 C 0.80002 0.21074 0.92382 0.0
C440 C 0.80249 0.20466 0.90925 0.0
C441 C 0.81814 0.23498 0.93181 0.0
C442 C 0.81037 0.24794 0.94096 0.0
C443 C 0.84328 0.24557 0.93017 0.0
C444 C 0.86018 0.26868 0.93731 0.0
C445 C 0.85238 0.2817 0.94638 0.0
C446 C 0.74042 0.15454 0.93006 0.0
C447 C 0.71667 0.14538 0.92307 0.0
C448 C 0.74326 0.14888 0.94437 0.0
C449 C 0.72275 0.13478 0.95169 0.0
C450 C 0.69902 0.12635 0.9449 0.0
C451 C 0.69616 0.13155 0.93046 0.0
C452 C 0.82729 0.27095 0.9482 0.0
H453 H 0.75703 0.15062 0.85234 0.0
H454 H 0.75051 0.15893 0.87758 0.0
H455 H 0.82808 0.19123 0.89065 0.0
H456 H 0.83477 0.18423 0.86541 0.0
H457 H 0.75143 0.14803 0.90244 0.0
H458 H 0.81756 0.21792 0.90381 0.0
H459 H 0.7778 0.19826 0.94183 0.0
H460 H 0.79113 0.24051 0.94235 0.0
H461 H 0.84995 0.23598 0.92336 0.0
H462 H 0.87932 0.2765 0.93553 0.0
H463 H 0.71399 0.14963 0.91208 0.0
H464 H 0.76139 0.15564 0.94997 0.0
H465 H 0.82068 0.28029 0.95526 0.0
H466 H 0.67804 0.12506 0.92494 0.0
H467 H 0.72547 0.13109 0.96282 0.0
C468 C 0.6463 0.8495 0.14067 0.0
C469 C 0.66141 0.84098 0.14646 0.0
C470 C 0.63881 0.8455 0.12562 0.0
C471 C 0.64647 0.83311 0.11593 0.0
C472 C 0.66245 0.82552 0.12163 0.0
C473 C 0.66976 0.82932 0.13672 0.0
C474 C 0.63629 0.82659 0.10019 0.0
C475 C 0.63151 0.84263 0.09257 0.0
C476 C 0.61878 0.83526 0.07838 0.0
C477 C 0.61146 0.81174 0.07169 0.0
C478 C 0.61695 0.79595 0.07889 0.0
C479 C 0.62936 0.8034 0.09308 0.0
C480 C 0.60836 0.77105 0.07188 0.0
C481 C 0.58332 0.75515 0.0676 0.0
C482 C 0.62509 0.76314 0.06935 0.0
C483 C 0.61689 0.7397 0.0624 0.0
C484 C 0.59173 0.72357 0.05812 0.0
C485 C 0.61174 0.85136 0.07088 0.0
C486 C 0.60448 0.86589 0.07898 0.0
C487 C 0.61088 0.8513 0.05548 0.0
C488 C 0.60204 0.86462 0.04833 0.0
C489 C 0.59439 0.87866 0.05644 0.0
C490 C 0.59608 0.87956 0.07183 0.0
C491 C 0.57504 0.73157 0.06093 0.0
H492 H 0.63988 0.85894 0.14781 0.0
H493 H 0.62627 0.85137 0.12169 0.0
H494 H 0.66898 0.81622 0.11447 0.0
H495 H 0.68129 0.82237 0.1408 0.0
H496 H 0.63754 0.86083 0.09778 0.0
H497 H 0.63237 0.79054 0.09883 0.0
H498 H 0.601 0.80537 0.06095 0.0
H499 H 0.5701 0.76087 0.06961 0.0
H500 H 0.64453 0.77526 0.07251 0.0
H501 H 0.63034 0.73439 0.06022 0.0
H502 H 0.60444 0.86609 0.0908 0.0
H503 H 0.6168 0.84076 0.0489 0.0
H504 H 0.5555 0.71955 0.05816 0.0
H505 H 0.59005 0.89013 0.07829 0.0
H506 H 0.60109 0.86389 0.03644 0.0
C507 C 0.22191 0.85163 0.14272 0.0
C508 C 0.2158 0.8351 0.15341 0.0
C509 C 0.22571 0.84531 0.12857 0.0
C510 C 0.22303 0.82219 0.12484 0.0
C511 C 0.21734 0.80587 0.13561 0.0
C512 C 0.21389 0.8123 0.14976 0.0
C513 C 0.22493 0.81438 0.10961 0.0
C514 C 0.24537 0.82895 0.10221 0.0
C515 C 0.24755 0.82056 0.08809 0.0
C516 C 0.22877 0.79776 0.0813 0.0
C517 C 0.20795 0.78326 0.0884 0.0
C518 C 0.20626 0.79175 0.10258 0.0
C519 C 0.18818 0.75914 0.0811 0.0
C520 C 0.18109 0.75597 0.06591 0.0
C521 C 0.17641 0.73901 0.08924 0.0
C522 C 0.15809 0.71628 0.08236 0.0
C523 C 0.15125 0.71301 0.06714 0.0
C524 C 0.26954 0.8352 0.08039 0.0
C525 C 0.27873 0.86031 0.07963 0.0
C526 C 0.281 0.82384 0.07332 0.0
C527 C 0.30099 0.8372 0.06547 0.0
C528 C 0.30991 0.86221 0.06445 0.0
C529 C 0.29865 0.87367 0.07167 0.0
C530 C 0.16293 0.73317 0.05901 0.0
H531 H 0.2236 0.86937 0.14528 0.0
H532 H 0.23 0.85816 0.12044 0.0
H533 H 0.21532 0.78799 0.13303 0.0
H534 H 0.20899 0.79911 0.15773 0.0
H535 H 0.25996 0.84631 0.10766 0.0
H536 H 0.19017 0.78091 0.10813 0.0
H537 H 0.23047 0.79124 0.07045 0.0
H538 H 0.1895 0.77114 0.05933 0.0
H539 H 0.18158 0.74067 0.10092 0.0
H540 H 0.14925 0.70127 0.08901 0.0
H541 H 0.27019 0.86951 0.08491 0.0
H542 H 0.27447 0.80455 0.07385 0.0
H543 H 0.15835 0.73128 0.04724 0.0
H544 H 0.30532 0.89299 0.07121 0.0
H545 H 0.30919 0.82784 0.05997 0.0
C546 C 0.23228 0.40994 0.15288 0.0
C547 C 0.20821 0.39311 0.15561 0.0
C548 C 0.23703 0.41936 0.13925 0.0
C549 C 0.21783 0.412 0.12798 0.0
C550 C 0.19389 0.39454 0.13062 0.0
C551 C 0.18913 0.38534 0.14426 0.0
C552 C 0.22245 0.42311 0.11375 0.0
C553 C 0.24392 0.42878 0.10701 0.0
C554 C 0.24816 0.43939 0.09363 0.0
C555 C 0.23083 0.4447 0.08716 0.0
C556 C 0.20933 0.43901 0.09364 0.0
C557 C 0.20525 0.42825 0.10686 0.0
C558 C 0.19094 0.44411 0.08651 0.0
C559 C 0.19758 0.46789 0.08338 0.0
C560 C 0.16666 0.42516 0.08273 0.0
C561 C 0.14935 0.42981 0.07575 0.0
C562 C 0.15577 0.45369 0.07268 0.0
C563 C 0.27036 0.44461 0.08617 0.0
C564 C 0.29364 0.45535 0.09417 0.0
C565 C 0.26842 0.43929 0.07084 0.0
C566 C 0.28921 0.44482 0.06366 0.0
C567 C 0.31254 0.45586 0.07161 0.0
C568 C 0.3145 0.461 0.08697 0.0
C569 C 0.18015 0.47269 0.0767 0.0
H570 H 0.24735 0.41637 0.16145 0.0
H571 H 0.25565 0.43294 0.13771 0.0
H572 H 0.1787 0.38793 0.12213 0.0
H573 H 0.17046 0.37205 0.14593 0.0
H574 H 0.25698 0.42428 0.11193 0.0
H575 H 0.18885 0.42449 0.11195 0.0
H576 H 0.23395 0.45314 0.07698 0.0
H577 H 0.21618 0.48283 0.08631 0.0
H578 H 0.1612 0.40661 0.08493 0.0
H579 H 0.13101 0.41455 0.07258 0.0
H580 H 0.29579 0.45982 0.10598 0.0
H581 H 0.25074 0.43074 0.06435 0.0
H582 H 0.18581 0.49139 0.07486 0.0
H583 H 0.33217 0.46927 0.09344 0.0
H584 H 0.28703 0.44078 0.05181 0.0
C585 C 0.4638 0.91577 0.19029 0.0
C586 C 0.46176 0.93636 0.18764 0.0
C587 C 0.45915 0.90623 0.20385 0.0
C588 C 0.45209 0.91684 0.21508 0.0
C589 C 0.44947 0.93706 0.21238 0.0
C590 C 0.45436 0.94678 0.19885 0.0
C591 C 0.44806 0.90709 0.22966 0.0
C592 C 0.46499 0.90162 0.23651 0.0
C593 C 0.46144 0.89202 0.25015 0.0
C594 C 0.44041 0.88771 0.25689 0.0
C595 C 0.42326 0.89314 0.25028 0.0
C596 C 0.42736 0.90304 0.2367 0.0
C597 C 0.40098 0.88819 0.25755 0.0
C598 C 0.38747 0.86618 0.26384 0.0
C599 C 0.39324 0.90551 0.25846 0.0
C600 C 0.37267 0.90105 0.26565 0.0
C601 C 0.35923 0.87907 0.27198 0.0
C602 C 0.47978 0.88665 0.25738 0.0
C603 C 0.49109 0.87641 0.24903 0.0
C604 C 0.48627 0.89189 0.27268 0.0
C605 C 0.5036 0.88704 0.27944 0.0
C606 C 0.51499 0.87689 0.27108 0.0
C607 C 0.50849 0.87164 0.25578 0.0
C608 C 0.36682 0.86165 0.27092 0.0
H609 H 0.46887 0.90687 0.18185 0.0
H610 H 0.46094 0.89039 0.20551 0.0
H611 H 0.44426 0.94576 0.22087 0.0
H612 H 0.45288 0.96282 0.19731 0.0
H613 H 0.48134 0.90546 0.23132 0.0
H614 H 0.41405 0.90688 0.23139 0.0
H615 H 0.43736 0.88011 0.26734 0.0
H616 H 0.39279 0.85235 0.2632 0.0
H617 H 0.40333 0.9227 0.25382 0.0
H618 H 0.36717 0.91475 0.26616 0.0
H619 H 0.48637 0.87187 0.23725 0.0
H620 H 0.47818 0.90005 0.27945 0.0
H621 H 0.35699 0.84462 0.27577 0.0
H622 H 0.51704 0.86406 0.24897 0.0
H623 H 0.5079 0.89105 0.29126 0.0
C624 C 0.00759 0.47465 0.20624 0.0
C625 C 0.01608 0.49209 0.19608 0.0
C626 C 0.0162 0.48162 0.22118 0.0
C627 C 0.03352 0.50613 0.22619 0.0
C628 C 0.04225 0.52342 0.21594 0.0
C629 C 0.03359 0.51649 0.20108 0.0
C630 C 0.04276 0.51385 0.24201 0.0
C631 C 0.04895 0.49951 0.25039 0.0
C632 C 0.05955 0.50779 0.26503 0.0
C633 C 0.06346 0.53038 0.27135 0.0
C634 C 0.05746 0.54492 0.26311 0.0
C635 C 0.04689 0.53644 0.24854 0.0
C636 C 0.06425 0.56987 0.26931 0.0
C637 C 0.05871 0.57411 0.28344 0.0
C638 C 0.0775 0.58981 0.26131 0.0
C639 C 0.0856 0.61363 0.26745 0.0
C640 C 0.08038 0.61792 0.28165 0.0
C641 C 0.06842 0.49385 0.27329 0.0
C642 C 0.05397 0.46831 0.273 0.0
C643 C 0.09191 0.50602 0.2811 0.0
C644 C 0.10094 0.4929 0.28826 0.0
C645 C 0.08664 0.46733 0.28782 0.0
C646 C 0.06296 0.45518 0.28025 0.0
C647 C 0.06655 0.59796 0.28953 0.0
H648 H 0.99399 0.45573 0.20267 0.0
H649 H 0.00902 0.46791 0.22882 0.0
H650 H 0.05606 0.54232 0.21936 0.0
H651 H 0.04084 0.53023 0.19346 0.0
H652 H 0.04676 0.48253 0.24528 0.0
H653 H 0.04208 0.54763 0.24223 0.0
H654 H 0.07198 0.53708 0.28256 0.0
H655 H 0.04846 0.55899 0.2898 0.0
H656 H 0.08222 0.58705 0.25045 0.0
H657 H 0.0961 0.62874 0.26114 0.0
H658 H 0.03575 0.45849 0.26712 0.0
H659 H 0.1036 0.52566 0.28136 0.0
H660 H 0.0624 0.60088 0.30053 0.0
H661 H 0.05162 0.43545 0.27964 0.0
H662 H 0.11917 0.50275 0.29411 0.0
C663 C 0.43724 0.4907 0.19249 0.0
C664 C 0.46104 0.49762 0.18902 0.0
C665 C 0.4331 0.49493 0.20696 0.0
C666 C 0.45267 0.50596 0.21822 0.0
C667 C 0.47623 0.51168 0.21479 0.0
C668 C 0.48039 0.50772 0.20035 0.0
C669 C 0.44905 0.51302 0.23328 0.0
C670 C 0.42784 0.49786 0.23997 0.0
C671 C 0.42467 0.50507 0.25414 0.0
C672 C 0.44257 0.52778 0.26149 0.0
C673 C 0.4636 0.5431 0.2549 0.0
C674 C 0.46682 0.53562 0.24091 0.0
C675 C 0.48193 0.56738 0.26238 0.0
C676 C 0.47504 0.58468 0.26632 0.0
C677 C 0.50653 0.57367 0.26512 0.0
C678 C 0.52404 0.59696 0.27175 0.0
C679 C 0.51737 0.61463 0.27546 0.0
C680 C 0.40263 0.4892 0.26136 0.0
C681 C 0.37907 0.48085 0.25435 0.0
C682 C 0.40513 0.48338 0.27567 0.0
C683 C 0.38443 0.46966 0.28292 0.0
C684 C 0.36089 0.46191 0.27608 0.0
C685 C 0.35836 0.4675 0.26171 0.0
C686 C 0.4926 0.60814 0.27265 0.0
H687 H 0.42203 0.48294 0.18392 0.0
H688 H 0.41477 0.49046 0.20918 0.0
H689 H 0.49161 0.51963 0.22325 0.0
H690 H 0.49883 0.51281 0.19801 0.0
H691 H 0.41406 0.48027 0.23433 0.0
H692 H 0.48288 0.54793 0.23577 0.0
H693 H 0.44005 0.53364 0.27232 0.0
H694 H 0.45615 0.58023 0.26412 0.0
H695 H 0.51216 0.56048 0.26222 0.0
H696 H 0.54276 0.60101 0.27402 0.0
H697 H 0.37673 0.48525 0.24335 0.0
H698 H 0.42314 0.48959 0.28128 0.0
H699 H 0.48678 0.62131 0.27505 0.0
H700 H 0.34036 0.46157 0.25619 0.0
H701 H 0.38683 0.46564 0.29401 0.0
Tb702 Tb 0.49282 0.98392 0.98812 0.0
Eu703 Eu 0.51243 0.01543 0.02135 0.0
C704 C 0.51614 0.96832 0.01329 0.0
C705 C 0.45868 0.96853 0.01347 0.0
C706 C 0.48527 0.97321 0.94762 0.0
C707 C 0.47784 0.96735 0.92093 0.0
C708 C 0.47248 0.95816 0.93459 0.0
C709 C 0.50325 0.99767 0.94684 0.0
C710 C 0.50892 0.00677 0.93323 0.0
C711 C 0.49634 0.99175 0.92003 0.0
C712 C 0.48036 0.96335 0.96198 0.0
O713 O 0.47879 0.00904 0.98948 0.0
O714 O 0.50683 0.03979 0.00679 0.0
O715 O 0.54567 0.02848 0.00879 0.0
O716 O 0.52545 0.01821 0.98552 0.0
C717 C 0.48965 0.03173 0.99569 0.0
O718 O 0.5073 0.03501 0.04009 0.0
O719 O 0.53814 0.02891 0.04122 0.0
O720 O 0.50891 0.97873 0.02302 0.0
O721 O 0.51606 0.97242 0.99943 0.0
O722 O 0.46606 0.96053 0.00236 0.0
O723 O 0.47159 0.99118 0.01966 0.0
C724 C 0.54573 0.0297 0.99451 0.0
O725 O 0.49951 0.96658 0.97016 0.0
O726 O 0.46642 0.96843 0.96962 0.0
C727 C 0.51849 0.02586 0.06284 0.0
C728 C 0.50469 0.00684 0.09005 0.0
C729 C 0.50967 0.03066 0.08793 0.0
C730 C 0.51653 0.04006 0.07447 0.0
C731 C 0.51337 0.00203 0.06483 0.0
C732 C 0.50669 0.99268 0.0783 0.0
C733 C 0.525 0.03566 0.04854 0.0
H734 H 0.46738 0.95532 0.91108 0.0
H735 H 0.45841 0.93927 0.93497 0.0
H736 H 0.51314 0.00969 0.95677 0.0
H737 H 0.5235 0.0255 0.93308 0.0
H738 H 0.50793 0.04197 0.09661 0.0
H739 H 0.52012 0.05839 0.07311 0.0
H740 H 0.51453 0.9906 0.05597 0.0
H741 H 0.50336 0.97442 0.07954 0.0
Tb742 Tb 0.01618 0.50389 0.99209 0.0
Eu743 Eu 0.98388 0.49316 0.02042 0.0
C744 C 0.02901 0.54505 0.01708 0.0
C745 C 0.03155 0.4879 0.02102 0.0
C746 C 0.03532 0.51168 0.95431 0.0
C747 C 0.04837 0.52887 0.93137 0.0
C748 C 0.05324 0.52895 0.94645 0.0
C749 C 0.01239 0.49426 0.94694 0.0
C750 C 0.00759 0.49401 0.93182 0.0
C751 C 0.02552 0.51137 0.92391 0.0
C752 C 0.04065 0.51259 0.97023 0.0
O753 O 0.98197 0.47005 0.98559 0.0
O754 O 0.97526 0.45721 0.00846 0.0
O755 O 0.96069 0.4961 0.00209 0.0
O756 O 0.99052 0.51667 0.98683 0.0
C757 C 0.97162 0.45247 0.99409 0.0
O758 O 0.95429 0.46784 0.03247 0.0
O759 O 0.97597 0.50609 0.04086 0.0
O760 O 0.00593 0.53382 0.01961 0.0
O761 O 0.03776 0.53362 0.00931 0.0
O762 O 0.029 0.48551 0.00654 0.0
O763 O 0.01904 0.49513 0.02875 0.0
C764 C 0.96834 0.50887 0.99085 0.0
O765 O 0.03893 0.52924 0.97832 0.0
O766 O 0.03072 0.49168 0.97578 0.0
C767 C 0.96211 0.47771 0.05815 0.0
C768 C 0.97021 0.46958 0.08727 0.0
C769 C 0.95105 0.47396 0.08313 0.0
C770 C 0.94706 0.47801 0.06868 0.0
C771 C 0.98079 0.47265 0.06207 0.0
C772 C 0.98479 0.46857 0.07652 0.0
C773 C 0.95926 0.4843 0.04343 0.0
H774 H 0.06256 0.54232 0.9255 0.0
H775 H 0.07098 0.54259 0.95199 0.0
H776 H 0.99818 0.48094 0.95286 0.0
H777 H 0.98974 0.48051 0.92635 0.0
H778 H 0.93975 0.47523 0.09118 0.0
H779 H 0.93267 0.48205 0.06582 0.0
H780 H 0.9926 0.47241 0.05403 0.0
H781 H 0.99953 0.46502 0.07934 0.0
Tb782 Tb 0.51252 0.49733 0.01834 0.0
Eu783 Eu 0.48955 0.50802 0.98833 0.0
C784 C 0.47956 0.45536 0.9941 0.0
C785 C 0.54157 0.5102 0.99015 0.0
C786 C 0.52135 0.49002 0.05732 0.0
C787 C 0.51213 0.47197 0.08038 0.0
C788 C 0.51981 0.47236 0.06634 0.0
C789 C 0.51518 0.50738 0.06253 0.0
C790 C 0.50773 0.50716 0.07661 0.0
C791 C 0.50595 0.48934 0.08569 0.0
C792 C 0.52755 0.48896 0.04216 0.0
O793 O 0.51386 0.53201 0.02286 0.0
O794 O 0.52025 0.54364 0.99978 0.0
O795 O 0.46525 0.50731 0.00562 0.0
O796 O 0.47466 0.48603 0.02178 0.0
C797 C 0.52227 0.5492 0.014 0.0
O798 O 0.48526 0.53289 0.97456 0.0
O799 O 0.46831 0.49446 0.96681 0.0
O800 O 0.46887 0.46768 0.99035 0.0
O801 O 0.50081 0.46619 0.00211 0.0
O802 O 0.54288 0.51235 0.00463 0.0
O803 O 0.52124 0.50407 0.98191 0.0
C804 C 0.46081 0.49488 0.01715 0.0
O805 O 0.5098 0.47206 0.03293 0.0
O806 O 0.53909 0.50976 0.03656 0.0
C807 C 0.48516 0.52206 0.94934 0.0
C808 C 0.5049 0.52648 0.92211 0.0
C809 C 0.47975 0.51809 0.92265 0.0
C810 C 0.46998 0.51585 0.93615 0.0
C811 C 0.5104 0.53129 0.9489 0.0
C812 C 0.52019 0.53353 0.93541 0.0
C813 C 0.47427 0.51621 0.96333 0.0
H814 H 0.51058 0.45774 0.08694 0.0
H815 H 0.52411 0.45858 0.06242 0.0
H816 H 0.5159 0.52099 0.05567 0.0
H817 H 0.50348 0.52104 0.08038 0.0
H818 H 0.46742 0.51222 0.91262 0.0
H819 H 0.45041 0.50841 0.93629 0.0
H820 H 0.52241 0.53605 0.95898 0.0
H821 H 0.53967 0.54035 0.93538 0.0
Tb822 Tb 0.15755 0.3182 0.32146 0.0
Eu823 Eu 0.17704 0.35031 0.3544 0.0
C824 C 0.18232 0.30428 0.34671 0.0
C825 C 0.12363 0.30236 0.34698 0.0
C826 C 0.15131 0.30647 0.28106 0.0
C827 C 0.15992 0.30206 0.25588 0.0
C828 C 0.15345 0.29255 0.26934 0.0
C829 C 0.15567 0.33007 0.27913 0.0
C830 C 0.16199 0.33955 0.26564 0.0
C831 C 0.16435 0.32573 0.25383 0.0
C832 C 0.14651 0.29702 0.29553 0.0
O833 O 0.14204 0.34213 0.3224 0.0
O834 O 0.16906 0.37327 0.33993 0.0
O835 O 0.20974 0.3642 0.34124 0.0
O836 O 0.18833 0.35346 0.31836 0.0
C837 C 0.15174 0.36459 0.32887 0.0
O838 O 0.17208 0.37005 0.37312 0.0
O839 O 0.20342 0.36471 0.37398 0.0
O840 O 0.17445 0.3141 0.35636 0.0
O841 O 0.18234 0.30865 0.33291 0.0
O842 O 0.13098 0.29463 0.33573 0.0
O843 O 0.13644 0.32491 0.35335 0.0
C844 C 0.20897 0.36559 0.32696 0.0
O845 O 0.16594 0.30155 0.30393 0.0
O846 O 0.13159 0.30107 0.30287 0.0
C847 C 0.18422 0.3616 0.39582 0.0
C848 C 0.1708 0.34259 0.42307 0.0
C849 C 0.17468 0.36599 0.42078 0.0
C850 C 0.18135 0.37539 0.4073 0.0
C851 C 0.18028 0.33821 0.398 0.0
C852 C 0.1738 0.32888 0.4115 0.0
C853 C 0.19019 0.3712 0.38143 0.0
H854 H 0.16198 0.29102 0.24717 0.0
H855 H 0.15057 0.27446 0.27069 0.0
H856 H 0.15444 0.34128 0.2881 0.0
H857 H 0.16493 0.35769 0.26446 0.0
H858 H 0.17217 0.37693 0.42932 0.0
H859 H 0.18401 0.39335 0.40578 0.0
H860 H 0.18214 0.32708 0.38926 0.0
H861 H 0.17133 0.31097 0.41288 0.0
Tb862 Tb 0.68495 0.83636 0.32391 0.0
Eu863 Eu 0.65126 0.82084 0.35153 0.0
C864 C 0.69726 0.8742 0.35122 0.0
C865 C 0.70039 0.81912 0.35209 0.0
C866 C 0.70548 0.84747 0.28654 0.0
C867 C 0.71906 0.86499 0.26375 0.0
C868 C 0.72347 0.86511 0.27889 0.0
C869 C 0.68292 0.82972 0.27892 0.0
C870 C 0.67859 0.82945 0.26376 0.0
C871 C 0.69663 0.84709 0.25603 0.0
C872 C 0.71042 0.84806 0.30247 0.0
O873 O 0.6513 0.80292 0.31555 0.0
O874 O 0.64319 0.78672 0.33747 0.0
O875 O 0.6279 0.82318 0.33302 0.0
O876 O 0.65896 0.84922 0.32011 0.0
C877 C 0.64049 0.78405 0.32306 0.0
O878 O 0.6326 0.79398 0.36682 0.0
O879 O 0.62969 0.82669 0.36734 0.0
O880 O 0.67443 0.86197 0.35424 0.0
O881 O 0.7061 0.86459 0.34203 0.0
O882 O 0.69728 0.81667 0.33762 0.0
O883 O 0.68778 0.82599 0.35997 0.0
C884 C 0.63599 0.83876 0.32313 0.0
O885 O 0.70688 0.86336 0.31069 0.0
O886 O 0.70167 0.82691 0.30765 0.0
C887 C 0.62974 0.81023 0.38981 0.0
C888 C 0.63993 0.81387 0.42051 0.0
C889 C 0.61941 0.79296 0.41299 0.0
C890 C 0.61436 0.7912 0.39778 0.0
C891 C 0.65016 0.83122 0.39722 0.0
C892 C 0.65513 0.83309 0.41246 0.0
C893 C 0.62503 0.80719 0.37373 0.0
H894 H 0.73332 0.87868 0.25803 0.0
H895 H 0.74093 0.87899 0.28462 0.0
H896 H 0.66867 0.81611 0.28468 0.0
H897 H 0.66104 0.81564 0.25809 0.0
H898 H 0.60756 0.77768 0.41881 0.0
H899 H 0.59868 0.77475 0.39219 0.0
H900 H 0.66238 0.84604 0.39122 0.0
H901 H 0.67088 0.84959 0.41792 0.0
Tb902 Tb 0.18035 0.83255 0.35139 0.0
Eu903 Eu 0.15827 0.84525 0.32164 0.0
C904 C 0.15038 0.79268 0.32473 0.0
C905 C 0.21075 0.8477 0.32414 0.0
C906 C 0.18702 0.82302 0.39005 0.0
C907 C 0.17737 0.80515 0.41315 0.0
C908 C 0.18598 0.80589 0.39936 0.0
C909 C 0.17942 0.83951 0.39472 0.0
C910 C 0.17098 0.83891 0.40853 0.0
C911 C 0.16968 0.82161 0.41789 0.0
C912 C 0.19382 0.8221 0.37504 0.0
O913 O 0.19793 0.87228 0.35263 0.0
O914 O 0.16871 0.87619 0.33899 0.0
O915 O 0.12715 0.82823 0.33595 0.0
O916 O 0.15011 0.83655 0.35819 0.0
C917 C 0.18783 0.88518 0.34881 0.0
O918 O 0.16201 0.87133 0.30609 0.0
O919 O 0.13078 0.83439 0.30286 0.0
O920 O 0.1567 0.80965 0.3158 0.0
O921 O 0.15304 0.7981 0.33902 0.0
O922 O 0.2044 0.83373 0.33497 0.0
O923 O 0.19799 0.85761 0.31945 0.0
C924 C 0.12918 0.82978 0.35042 0.0
O925 O 0.17603 0.80613 0.36552 0.0
O926 O 0.2064 0.84298 0.36976 0.0
C927 C 0.14875 0.85274 0.28176 0.0
C928 C 0.16265 0.85104 0.25319 0.0
C929 C 0.15938 0.87038 0.25863 0.0
C930 C 0.15241 0.87117 0.27279 0.0
C931 C 0.15194 0.83337 0.27633 0.0
C932 C 0.15867 0.83245 0.26215 0.0
C933 C 0.14348 0.85486 0.29707 0.0
H934 H 0.17627 0.79134 0.41995 0.0
H935 H 0.19134 0.79273 0.39582 0.0
H936 H 0.17974 0.85268 0.38761 0.0
H937 H 0.16556 0.85209 0.41187 0.0
H938 H 0.16219 0.88487 0.25193 0.0
H939 H 0.15027 0.88638 0.27683 0.0
H940 H 0.14966 0.81915 0.28314 0.0
H941 H 0.16138 0.81752 0.25832 0.0
Tb942 Tb 0.82395 0.64725 0.65362 0.0
Eu943 Eu 0.8417 0.67937 0.68633 0.0
C944 C 0.84984 0.63495 0.6791 0.0
C945 C 0.78962 0.63035 0.67853 0.0
C946 C 0.81805 0.63573 0.61327 0.0
C947 C 0.82679 0.63182 0.58806 0.0
C948 C 0.82039 0.62209 0.60148 0.0
C949 C 0.82213 0.65927 0.61146 0.0
C950 C 0.82837 0.66897 0.59802 0.0
C951 C 0.83095 0.65544 0.58615 0.0
C952 C 0.81331 0.62611 0.6277 0.0
O953 O 0.80643 0.66946 0.65486 0.0
O954 O 0.83452 0.70198 0.67114 0.0
O955 O 0.87507 0.69431 0.6737 0.0
O956 O 0.85442 0.68279 0.65055 0.0
C957 C 0.81635 0.69235 0.66059 0.0
O958 O 0.83481 0.69829 0.70462 0.0
O959 O 0.86724 0.69479 0.70628 0.0
O960 O 0.84122 0.64418 0.68863 0.0
O961 O 0.84958 0.63895 0.66524 0.0
O962 O 0.79863 0.62288 0.66812 0.0
O963 O 0.80098 0.65321 0.6844 0.0
C964 C 0.87476 0.69548 0.65939 0.0
O965 O 0.83281 0.63096 0.63614 0.0
O966 O 0.79811 0.62974 0.63501 0.0
C967 C 0.84689 0.69085 0.72767 0.0
C968 C 0.83337 0.6719 0.75492 0.0
C969 C 0.83758 0.69543 0.75266 0.0
C970 C 0.84429 0.7048 0.73918 0.0
C971 C 0.84263 0.66735 0.72982 0.0
C972 C 0.83608 0.65803 0.74331 0.0
C973 C 0.85305 0.70046 0.71331 0.0
H974 H 0.82902 0.62101 0.57929 0.0
H975 H 0.81772 0.60405 0.60273 0.0
H976 H 0.82073 0.67028 0.62049 0.0
H977 H 0.8311 0.68706 0.59694 0.0
H978 H 0.83531 0.7065 0.76124 0.0
H979 H 0.84722 0.72286 0.73768 0.0
H980 H 0.84431 0.65612 0.72106 0.0
H981 H 0.83336 0.64002 0.74467 0.0
Tb982 Tb 0.34867 0.17055 0.65833 0.0
Eu983 Eu 0.31477 0.15518 0.68614 0.0
C984 C 0.36214 0.20833 0.68613 0.0
C985 C 0.36358 0.15221 0.68642 0.0
C986 C 0.36903 0.18177 0.6209 0.0
C987 C 0.38269 0.19967 0.59822 0.0
C988 C 0.38708 0.19949 0.61332 0.0
C989 C 0.34642 0.16424 0.61324 0.0
C990 C 0.34209 0.16428 0.59811 0.0
C991 C 0.36019 0.18201 0.59046 0.0
C992 C 0.37397 0.18212 0.6368 0.0
O993 O 0.31503 0.13709 0.64989 0.0
O994 O 0.30517 0.12095 0.67176 0.0
O995 O 0.29209 0.15885 0.66779 0.0
O996 O 0.32334 0.18418 0.65473 0.0
C997 C 0.30304 0.11834 0.65735 0.0
O998 O 0.29497 0.12793 0.70099 0.0
O999 O 0.29397 0.16169 0.70224 0.0
O1000 O 0.33967 0.19607 0.68979 0.0
O1001 O 0.37025 0.19888 0.6763 0.0
O1002 O 0.36158 0.15135 0.67198 0.0
O1003 O 0.35031 0.15804 0.6944 0.0
C1004 C 0.30047 0.17429 0.65785 0.0
O1005 O 0.37072 0.19752 0.64512 0.0
O1006 O 0.36497 0.16088 0.6419 0.0
C1007 C 0.29293 0.14379 0.72431 0.0
C1008 C 0.30297 0.14552 0.75487 0.0
C1009 C 0.28218 0.12523 0.74709 0.0
C1010 C 0.27721 0.12442 0.73195 0.0
C1011 C 0.31363 0.16417 0.73199 0.0
C1012 C 0.31852 0.1651 0.74716 0.0
C1013 C 0.28831 0.14163 0.70825 0.0
H1014 H 0.39701 0.21343 0.59257 0.0
H1015 H 0.40459 0.2132 0.61909 0.0
H1016 H 0.33212 0.15056 0.61894 0.0
H1017 H 0.32449 0.15064 0.59241 0.0
H1018 H 0.27004 0.10969 0.75263 0.0
H1019 H 0.26131 0.10842 0.72614 0.0
H1020 H 0.32614 0.17924 0.72624 0.0
H1021 H 0.33449 0.18115 0.75284 0.0
Tb1022 Tb 0.84693 0.16513 0.68591 0.0
Eu1023 Eu 0.82379 0.17583 0.65581 0.0
C1024 C 0.81599 0.12317 0.6609 0.0
C1025 C 0.87557 0.17811 0.6576 0.0
C1026 C 0.85631 0.15867 0.725 0.0
C1027 C 0.84682 0.1412 0.74823 0.0
C1028 C 0.85408 0.14088 0.73413 0.0
C1029 C 0.8513 0.17692 0.73019 0.0
C1030 C 0.84429 0.1774 0.74434 0.0
C1031 C 0.84181 0.15944 0.75347 0.0
C1032 C 0.86202 0.15689 0.70977 0.0
O1033 O 0.84815 0.19957 0.69123 0.0
O1034 O 0.85182 0.21186 0.66818 0.0
O1035 O 0.7997 0.17522 0.67313 0.0
O1036 O 0.80864 0.15297 0.68873 0.0
C1037 C 0.85473 0.2169 0.6825 0.0
O1038 O 0.8269 0.20148 0.64008 0.0
O1039 O 0.797 0.16407 0.63651 0.0
O1040 O 0.80527 0.13511 0.65638 0.0
O1041 O 0.83631 0.13403 0.66984 0.0
O1042 O 0.87713 0.18091 0.67208 0.0
O1043 O 0.85494 0.17102 0.64944 0.0
C1044 C 0.79495 0.16214 0.68436 0.0
O1045 O 0.84388 0.14003 0.70074 0.0
O1046 O 0.87386 0.17741 0.70392 0.0
C1047 C 0.81603 0.18284 0.61583 0.0
C1048 C 0.83283 0.18229 0.58798 0.0
C1049 C 0.82398 0.19813 0.59192 0.0
C1050 C 0.81566 0.19838 0.60573 0.0
C1051 C 0.82476 0.16697 0.61196 0.0
C1052 C 0.83293 0.16659 0.59816 0.0
C1053 C 0.80929 0.18462 0.63078 0.0
H1054 H 0.84522 0.12725 0.75508 0.0
H1055 H 0.85762 0.12651 0.73026 0.0
H1056 H 0.85245 0.19059 0.72324 0.0
H1057 H 0.84028 0.19149 0.74804 0.0
H1058 H 0.82396 0.21071 0.58446 0.0
H1059 H 0.80936 0.21103 0.60862 0.0
H1060 H 0.82551 0.15503 0.61968 0.0
H1061 H 0.83924 0.1539 0.59546 0.0
C1062 C 0.33016 0.89225 0.04621 0.0
C1063 C 0.33089 0.87625 0.05586 0.0
C1064 C 0.35005 0.90598 0.03824 0.0
C1065 C 0.37125 0.90378 0.04005 0.0
C1066 C 0.37191 0.88731 0.04957 0.0
C1067 C 0.35169 0.8737 0.05732 0.0
C1068 C 0.3486 0.92325 0.02814 0.0
C1069 C 0.3943 0.88468 0.05193 0.0
C1070 C 0.41884 0.92871 0.0126 0.0
C1071 C 0.436 0.95173 0.01991 0.0
C1072 C 0.39751 0.91289 0.01895 0.0
C1073 C 0.39348 0.92019 0.03297 0.0
C1074 C 0.41083 0.94332 0.04041 0.0
C1075 C 0.43175 0.9588 0.03377 0.0
C1076 C 0.37929 0.88839 0.01067 0.0
C1077 C 0.40741 0.95172 0.05546 0.0
H1078 H 0.31396 0.894 0.04488 0.0
H1079 H 0.35242 0.86149 0.06485 0.0
H1080 H 0.36239 0.94241 0.03238 0.0
H1081 H 0.353 0.91972 0.01702 0.0
H1082 H 0.33019 0.92151 0.02714 0.0
H1083 H 0.39128 0.86993 0.05893 0.0
H1084 H 0.39959 0.88066 0.04122 0.0
H1085 H 0.40999 0.90217 0.05729 0.0
H1086 H 0.42199 0.92313 0.0019 0.0
H1087 H 0.445 0.97643 0.03962 0.0
H1088 H 0.36103 0.88685 0.00894 0.0
H1089 H 0.37716 0.87345 0.01724 0.0
H1090 H 0.38495 0.88555 0.9998 0.0
H1091 H 0.39008 0.95219 0.05497 0.0
H1092 H 0.42277 0.97019 0.05981 0.0
H1093 H 0.40596 0.93858 0.06334 0.0
C1094 C 0.11243 0.44542 0.06789 0.0
C1095 C 0.13722 0.4587 0.06527 0.0
C1096 C 0.09475 0.44958 0.06075 0.0
C1097 C 0.10203 0.46795 0.05105 0.0
C1098 C 0.12699 0.48172 0.04853 0.0
C1099 C 0.14418 0.47671 0.05548 0.0
C1100 C 0.06822 0.43419 0.06354 0.0
C1101 C 0.13558 0.50178 0.03846 0.0
C1102 C 0.05534 0.46604 0.02201 0.0
C1103 C 0.04914 0.48239 0.02881 0.0
C1104 C 0.07214 0.46079 0.02924 0.0
C1105 C 0.08352 0.47269 0.04346 0.0
C1106 C 0.07741 0.48934 0.05035 0.0
C1107 C 0.06005 0.49373 0.04302 0.0
C1108 C 0.07765 0.44244 0.02169 0.0
C1109 C 0.08955 0.50284 0.06534 0.0
H1110 H 0.10676 0.43181 0.07562 0.0
H1111 H 0.16307 0.48681 0.05307 0.0
H1112 H 0.06165 0.44603 0.06849 0.0
H1113 H 0.05666 0.42493 0.05298 0.0
H1114 H 0.06542 0.42006 0.071 0.0
H1115 H 0.1558 0.5116 0.0382 0.0
H1116 H 0.12674 0.49395 0.02711 0.0
H1117 H 0.13008 0.51525 0.04208 0.0
H1118 H 0.04679 0.45706 0.01108 0.0
H1119 H 0.05545 0.50653 0.04828 0.0
H1120 H 0.07402 0.42767 0.02878 0.0
H1121 H 0.09733 0.45145 0.01989 0.0
H1122 H 0.0665 0.43403 0.0109 0.0
H1123 H 0.08598 0.48962 0.07355 0.0
H1124 H 0.08296 0.51538 0.06911 0.0
H1125 H 0.10972 0.51371 0.06508 0.0
C1126 C 0.59393 0.685 0.05505 0.0
C1127 C 0.5828 0.69844 0.05088 0.0
C1128 C 0.58522 0.66107 0.04859 0.0
C1129 C 0.56449 0.65007 0.03798 0.0
C1130 C 0.55327 0.66351 0.03363 0.0
C1131 C 0.56276 0.68763 0.03997 0.0
C1132 C 0.59794 0.64742 0.05331 0.0
C1133 C 0.53089 0.65225 0.02249 0.0
C1134 C 0.55043 0.5938 0.0127 0.0
C1135 C 0.53326 0.57498 0.02011 0.0
C1136 C 0.56114 0.61838 0.01853 0.0
C1137 C 0.55394 0.62416 0.03185 0.0
C1138 C 0.53641 0.60519 0.03928 0.0
C1139 C 0.52651 0.58078 0.03341 0.0
C1140 C 0.58024 0.63811 0.0105 0.0
C1141 C 0.52784 0.61068 0.05333 0.0
H1142 H 0.60918 0.69296 0.0636 0.0
H1143 H 0.55435 0.69798 0.03638 0.0
H1144 H 0.58541 0.63161 0.05902 0.0
H1145 H 0.60273 0.64003 0.04354 0.0
H1146 H 0.61494 0.65921 0.06082 0.0
H1147 H 0.52435 0.6652 0.02028 0.0
H1148 H 0.53501 0.64611 0.01197 0.0
H1149 H 0.51578 0.63583 0.02653 0.0
H1150 H 0.55581 0.58929 0.00246 0.0
H1151 H 0.51308 0.56623 0.0391 0.0
H1152 H 0.59748 0.64916 0.01792 0.0
H1153 H 0.57387 0.65072 0.00718 0.0
H1154 H 0.58435 0.63047 1.00052 0.0
H1155 H 0.5436 0.62072 0.06193 0.0
H1156 H 0.51374 0.59381 0.05759 0.0
H1157 H 0.52002 0.62266 0.05141 0.0
C1158 C 0.86409 0.32501 0.95459 0.0
C1159 C 0.87027 0.30657 0.9537 0.0
C1160 C 0.88076 0.34858 0.96139 0.0
C1161 C 0.90433 0.35398 0.96728 0.0
C1162 C 0.91077 0.33553 0.96639 0.0
C1163 C 0.89361 0.31201 0.95968 0.0
C1164 C 0.87319 0.36776 0.9622 0.0
C1165 C 0.9358 0.34067 0.97248 0.0
C1166 C 0.95413 0.42093 0.97225 0.0
C1167 C 0.95505 0.42707 0.98735 0.0
C1168 C 0.93802 0.39708 0.96562 0.0
C1169 C 0.92228 0.37901 0.97428 0.0
C1170 C 0.92325 0.38503 0.98955 0.0
C1171 C 0.93973 0.40897 0.99592 0.0
C1172 C 0.93769 0.39126 0.94933 0.0
C1173 C 0.90656 0.3663 0.9991 0.0
H1174 H 0.84627 0.32112 0.94979 0.0
H1175 H 0.89844 0.29781 0.95924 0.0
H1176 H 0.8751 0.37514 0.97382 0.0
H1177 H 0.88544 0.3833 0.95621 0.0
H1178 H 0.85396 0.36042 0.95744 0.0
H1179 H 0.93802 0.32439 0.97076 0.0
H1180 H 0.95022 0.35581 0.96714 0.0
H1181 H 0.93894 0.3467 0.98443 0.0
H1182 H 0.96602 0.43478 0.96557 0.0
H1183 H 0.94027 0.41359 0.00759 0.0
H1184 H 0.91936 0.38553 0.94365 0.0
H1185 H 0.94103 0.37575 0.94738 0.0
H1186 H 0.95171 0.40716 0.94427 0.0
H1187 H 0.88713 0.3597 0.99515 0.0
H1188 H 0.90994 0.37379 0.01084 0.0
H1189 H 0.90913 0.35019 0.99832 0.0
C1190 C 0.66685 0.55983 0.95241 0.0
C1191 C 0.66966 0.54067 0.9461 0.0
C1192 C 0.64619 0.55508 0.95969 0.0
C1193 C 0.62798 0.53059 0.96092 0.0
C1194 C 0.63074 0.51117 0.9547 0.0
C1195 C 0.65138 0.51642 0.94729 0.0
C1196 C 0.64381 0.57631 0.96603 0.0
C1197 C 0.61179 0.48479 0.95582 0.0
C1198 C 0.585 0.51871 0.9908 0.0
C1199 C 0.5637 0.51519 0.98275 0.0
C1200 C 0.60599 0.52358 0.98384 0.0
C1201 C 0.60581 0.52524 0.96848 0.0
C1202 C 0.58439 0.52174 0.9603 0.0
C1203 C 0.56362 0.51667 0.96751 0.0
C1204 C 0.62836 0.52685 0.99291 0.0
C1205 C 0.58347 0.52361 0.94394 0.0
H1206 H 0.68096 0.57863 0.95182 0.0
H1207 H 0.65301 0.50142 0.94225 0.0
H1208 H 0.62656 0.57477 0.96113 0.0
H1209 H 0.64278 0.57586 0.97806 0.0
H1210 H 0.65943 0.59428 0.96402 0.0
H1211 H 0.61706 0.47182 0.95087 0.0
H1212 H 0.60911 0.48171 0.96752 0.0
H1213 H 0.59389 0.48051 0.95016 0.0
H1214 H 0.58526 0.51752 0.00256 0.0
H1215 H 0.54734 0.51407 0.96115 0.0
H1216 H 0.64425 0.54529 0.9921 0.0
H1217 H 0.63324 0.51326 0.98855 0.0
H1218 H 0.62547 0.5247 0.00469 0.0
H1219 H 0.59705 0.54245 0.94177 0.0
H1220 H 0.56505 0.51923 0.93907 0.0
H1221 H 0.58845 0.51098 0.93823 0.0
C1222 C 0.45918 0.12569 0.95853 0.0
C1223 C 0.43524 0.12019 0.96064 0.0
C1224 C 0.46928 0.11266 0.96484 0.0
C1225 C 0.45512 0.09379 0.97352 0.0
C1226 C 0.43116 0.08855 0.97598 0.0
C1227 C 0.42146 0.10177 0.96946 0.0
C1228 C 0.49481 0.11859 0.96185 0.0
C1229 C 0.41559 0.06864 0.98526 0.0
C1230 C 0.46827 0.04196 0.97612 0.0
C1231 C 0.48165 0.04822 0.99002 0.0
C1232 C 0.45984 0.05683 0.97058 0.0
C1233 C 0.46471 0.0784 0.97919 0.0
C1234 C 0.4784 0.085 0.99318 0.0
C1235 C 0.48686 0.06987 0.99841 0.0
C1236 C 0.44557 0.04934 0.95553 0.0
C1237 C 0.48379 0.10784 0.00267 0.0
H1238 H 0.46979 0.13977 0.9516 0.0
H1239 H 0.40308 0.09773 0.97127 0.0
H1240 H 0.50635 0.12225 0.97235 0.0
H1241 H 0.49393 0.10264 0.95547 0.0
H1242 H 0.50392 0.13473 0.95559 0.0
H1243 H 0.39794 0.06788 0.98685 0.0
H1244 H 0.41154 0.05061 0.97994 0.0
H1245 H 0.4257 0.07158 0.99621 0.0
H1246 H 0.46441 0.0254 0.9695 0.0
H1247 H 0.49714 0.07476 0.00917 0.0
H1248 H 0.45461 0.0642 0.94836 0.0
H1249 H 0.42685 0.04629 0.95645 0.0
H1250 H 0.44395 0.03234 0.95008 0.0
H1251 H 0.4937 0.12413 0.99666 0.0
H1252 H 0.49499 0.11058 0.01318 0.0
H1253 H 0.46635 0.10675 0.00521 0.0
C1254 C 0.67457 0.09305 0.96048 0.0
C1255 C 0.67734 0.11277 0.95301 0.0
C1256 C 0.6539 0.07984 0.968 0.0
C1257 C 0.6358 0.08679 0.96821 0.0
C1258 C 0.63882 0.10706 0.96096 0.0
C1259 C 0.65947 0.11969 0.95336 0.0
C1260 C 0.65112 0.05809 0.97539 0.0
C1261 C 0.62006 0.1152 0.96108 0.0
C1262 C 0.57053 0.03902 0.97322 0.0
C1263 C 0.56907 0.04432 0.98811 0.0
C1264 C 0.59219 0.05253 0.96669 0.0
C1265 C 0.61297 0.07199 0.97523 0.0
C1266 C 0.61173 0.0774 0.99031 0.0
C1267 C 0.5898 0.06335 0.99661 0.0
C1268 C 0.5928 0.04594 0.95063 0.0
C1269 C 0.63346 0.09822 0.99969 0.0
H1270 H 0.68832 0.08761 0.96015 0.0
H1271 H 0.66178 0.13517 0.94777 0.0
H1272 H 0.64847 0.0602 0.98714 0.0
H1273 H 0.63457 0.04119 0.97015 0.0
H1274 H 0.66728 0.05566 0.97469 0.0
H1275 H 0.62586 0.13219 0.95568 0.0
H1276 H 0.60233 0.10055 0.95528 0.0
H1277 H 0.61679 0.11845 0.97256 0.0
H1278 H 0.55476 0.02401 0.96665 0.0
H1279 H 0.58876 0.06752 0.00812 0.0
H1280 H 0.60759 0.04155 0.94938 0.0
H1281 H 0.59698 0.06176 0.94438 0.0
H1282 H 0.57513 0.03002 0.9456 0.0
H1283 H 0.64947 0.09547 0.9997 0.0
H1284 H 0.62958 0.09996 0.01125 0.0
H1285 H 0.63873 0.1157 0.99501 0.0
C1286 C 0.86714 0.52064 0.94068 0.0
C1287 C 0.86799 0.54291 0.9444 0.0
C1288 C 0.88394 0.5152 0.94772 0.0
C1289 C 0.90201 0.53239 0.9588 0.0
C1290 C 0.90317 0.55502 0.96249 0.0
C1291 C 0.88619 0.56001 0.95524 0.0
C1292 C 0.88207 0.49085 0.94348 0.0
C1293 C 0.92217 0.57384 0.97424 0.0
C1294 C 0.92864 0.50876 0.98746 0.0
C1295 C 0.95143 0.51485 0.98254 0.0
C1296 C 0.91245 0.51438 0.97984 0.0
C1297 C 0.9191 0.52631 0.96693 0.0
C1298 C 0.942 0.53243 0.96184 0.0
C1299 C 0.95791 0.52668 0.96972 0.0
C1300 C 0.88823 0.50758 0.98565 0.0
C1301 C 0.94969 0.54506 0.94808 0.0
H1302 H 0.85297 0.50717 0.93247 0.0
H1303 H 0.88724 0.57742 0.95804 0.0
H1304 H 0.8999 0.49371 0.94029 0.0
H1305 H 0.87774 0.48004 0.95305 0.0
H1306 H 0.86769 0.47994 0.9342 0.0
H1307 H 0.92103 0.59079 0.97556 0.0
H1308 H 0.91973 0.56606 0.98494 0.0
H1309 H 0.94084 0.57877 0.97151 0.0
H1310 H 0.92341 0.49966 0.99735 0.0
H1311 H 0.97541 0.5314 0.96577 0.0
H1312 H 0.87288 0.49523 0.97721 0.0
H1313 H 0.8869 0.52425 0.98805 0.0
H1314 H 0.8858 0.49833 0.99584 0.0
H1315 H 0.93605 0.53378 0.93857 0.0
H1316 H 0.968 0.54841 0.94551 0.0
H1317 H 0.95023 0.56286 0.94934 0.0
C1318 C 0.44104 0.32537 0.95428 0.0
C1319 C 0.41995 0.30579 0.95877 0.0
C1320 C 0.44997 0.34942 0.96048 0.0
C1321 C 0.43773 0.35398 0.97161 0.0
C1322 C 0.41667 0.33432 0.97639 0.0
C1323 C 0.40794 0.31042 0.96985 0.0
C1324 C 0.47246 0.36995 0.95506 0.0
C1325 C 0.40334 0.33856 0.98836 0.0
C1326 C 0.47584 0.41444 0.99535 0.0
C1327 C 0.46789 0.4291 0.98888 0.0
C1328 C 0.46551 0.38966 0.99018 0.0
C1329 C 0.44707 0.37945 0.97814 0.0
C1330 C 0.43864 0.39403 0.97173 0.0
C1331 C 0.44906 0.41868 0.97725 0.0
C1332 C 0.47471 0.37455 0.9974 0.0
C1333 C 0.4192 0.38381 0.95875 0.0
H1334 H 0.45074 0.32189 0.94595 0.0
H1335 H 0.39152 0.29541 0.97328 0.0
H1336 H 0.46809 0.38354 0.95086 0.0
H1337 H 0.4872 0.37964 0.96428 0.0
H1338 H 0.4796 0.36331 0.94616 0.0
H1339 H 0.38766 0.32121 0.99111 0.0
H1340 H 0.41617 0.34809 0.99846 0.0
H1341 H 0.39634 0.3506 0.98485 0.0
H1342 H 0.49021 0.42235 0.00445 0.0
H1343 H 0.44288 0.42995 0.9722 0.0
H1344 H 0.48397 0.36881 0.98947 0.0
H1345 H 0.4591 0.35765 1.00064 0.0
H1346 H 0.48785 0.38477 0.00731 0.0
H1347 H 0.42609 0.37835 0.9492 0.0
H1348 H 0.41385 0.39724 0.9555 0.0
H1349 H 0.4026 0.36715 0.96135 0.0
C1350 C 0.13146 0.66726 0.06391 0.0
C1351 C 0.13232 0.68859 0.05973 0.0
C1352 C 0.11393 0.64411 0.05694 0.0
C1353 C 0.09705 0.64222 0.04535 0.0
C1354 C 0.09777 0.66361 0.04105 0.0
C1355 C 0.11529 0.68652 0.04836 0.0
C1356 C 0.11363 0.62168 0.06189 0.0
C1357 C 0.08017 0.6623 0.02866 0.0
C1358 C 0.06884 0.58437 0.01878 0.0
C1359 C 0.04578 0.5704 0.0238 0.0
C1360 C 0.08546 0.60805 0.02545 0.0
C1361 C 0.07897 0.61783 0.03757 0.0
C1362 C 0.05559 0.60396 0.04257 0.0
C1363 C 0.03918 0.58045 0.03555 0.0
C1364 C 0.1101 0.62244 0.01968 0.0
C1365 C 0.04816 0.6137 0.05557 0.0
H1366 H 0.14478 0.66866 0.07249 0.0
H1367 H 0.11554 0.70284 0.0452 0.0
H1368 H 0.09518 0.6086 0.06495 0.0
H1369 H 0.11748 0.61219 0.05272 0.0
H1370 H 0.12738 0.62621 0.07145 0.0
H1371 H 0.08317 0.68065 0.02664 0.0
H1372 H 0.08226 0.65355 0.01838 0.0
H1373 H 0.06099 0.65075 0.03119 0.0
H1374 H 0.07397 0.57677 0.00962 0.0
H1375 H 0.02143 0.56969 0.03952 0.0
H1376 H 0.12493 0.62597 0.02828 0.0
H1377 H 0.11308 0.64049 0.01699 0.0
H1378 H 0.1118 0.6127 0.0097 0.0
H1379 H 0.06066 0.61689 0.06554 0.0
H1380 H 0.02903 0.60093 0.05779 0.0
H1381 H 0.04986 0.63156 0.05365 0.0
C1382 C 0.35643 0.48462 0.06748 0.0
C1383 C 0.33469 0.46208 0.06382 0.0
C1384 C 0.37724 0.49088 0.06 0.0
C1385 C 0.37637 0.47418 0.0486 0.0
C1386 C 0.35452 0.45136 0.0449 0.0
C1387 C 0.33398 0.44562 0.05253 0.0
C1388 C 0.40015 0.51541 0.06426 0.0
C1389 C 0.35288 0.43293 0.03292 0.0
C1390 C 0.42244 0.49687 0.02011 0.0
C1391 C 0.43941 0.49019 0.02526 0.0
C1392 C 0.40199 0.49204 0.02768 0.0
C1393 C 0.39842 0.48028 0.04072 0.0
C1394 C 0.41567 0.47383 0.04608 0.0
C1395 C 0.43588 0.47883 0.0383 0.0
C1396 C 0.38407 0.4993 0.02164 0.0
C1397 C 0.41267 0.46139 0.05996 0.0
H1398 H 0.35706 0.49758 0.07606 0.0
H1399 H 0.31739 0.42804 0.04975 0.0
H1400 H 0.41564 0.51275 0.0679 0.0
H1401 H 0.40534 0.52595 0.05458 0.0
H1402 H 0.39778 0.52645 0.07324 0.0
H1403 H 0.33448 0.41614 0.03125 0.0
H1404 H 0.35697 0.44119 0.02239 0.0
H1405 H 0.36678 0.4276 0.03572 0.0
H1406 H 0.42498 0.5057 0.0101 0.0
H1407 H 0.44893 0.47374 0.04249 0.0
H1408 H 0.38219 0.51144 0.0301 0.0
H1409 H 0.36568 0.48278 0.01888 0.0
H1410 H 0.38979 0.50891 0.01163 0.0
H1411 H 0.41153 0.47269 0.0693 0.0
H1412 H 0.42806 0.45815 0.06288 0.0
H1413 H 0.39529 0.44353 0.05858 0.0
C1414 C 0.56342 0.87845 0.03821 0.0
C1415 C 0.58356 0.89149 0.04888 0.0
C1416 C 0.55183 0.88996 0.03164 0.0
C1417 C 0.56099 0.91518 0.03566 0.0
C1418 C 0.5818 0.92858 0.04612 0.0
C1419 C 0.59268 0.91647 0.05275 0.0
C1420 C 0.52939 0.87499 0.02075 0.0
C1421 C 0.59237 0.95562 0.05046 0.0
C1422 C 0.54348 0.95072 0.0106 0.0
C1423 C 0.52619 0.95314 0.01834 0.0
C1424 C 0.55485 0.93821 0.01604 0.0
C1425 C 0.54831 0.92744 0.02933 0.0
C1426 C 0.53019 0.92907 0.0369 0.0
C1427 C 0.51955 0.94216 0.03139 0.0
C1428 C 0.57443 0.93724 0.00784 0.0
C1429 C 0.52235 0.91736 0.05094 0.0
H1430 H 0.55627 0.85904 0.03536 0.0
H1431 H 0.60837 0.92651 0.06096 0.0
H1432 H 0.51336 0.87507 0.02503 0.0
H1433 H 0.53213 0.8832 0.01019 0.0
H1434 H 0.52499 0.8557 0.01855 0.0
H1435 H 0.60948 0.96363 0.05808 0.0
H1436 H 0.59638 0.96557 0.04052 0.0
H1437 H 0.57878 0.95871 0.05591 0.0
H1438 H 0.5488 0.95939 1.00057 0.0
H1439 H 0.50605 0.94388 0.03734 0.0
H1440 H 0.56978 0.91798 0.00521 0.0
H1441 H 0.59218 0.94674 0.0149 0.0
H1442 H 0.57689 0.94594 0.99744 0.0
H1443 H 0.51666 0.89767 0.04921 0.0
H1444 H 0.50692 0.919 0.05494 0.0
H1445 H 0.53802 0.92613 0.05966 0.0
C1446 C 0.99455 0.22631 0.37917 0.0
C1447 C 0.99445 0.20901 0.38802 0.0
C1448 C 0.01474 0.24037 0.37147 0.0
C1449 C 0.03541 0.23721 0.37278 0.0
C1450 C 0.03526 0.21952 0.38154 0.0
C1451 C 0.01476 0.20559 0.38901 0.0
C1452 C 0.01416 0.25895 0.36218 0.0
C1453 C 0.05706 0.21583 0.38338 0.0
C1454 C 0.08322 0.263 0.34551 0.0
C1455 C 0.1009 0.28535 0.35331 0.0
C1456 C 0.06164 0.24714 0.35164 0.0
C1457 C 0.05791 0.2537 0.36594 0.0
C1458 C 0.07585 0.27611 0.37389 0.0
C1459 C 0.097 0.29166 0.36746 0.0
C1460 C 0.04281 0.22344 0.34281 0.0
C1461 C 0.07278 0.28366 0.38925 0.0
H1462 H 0.97876 0.22877 0.37821 0.0
H1463 H 0.01487 0.1924 0.39596 0.0
H1464 H 0.02847 0.27766 0.36689 0.0
H1465 H 0.01834 0.25607 0.35088 0.0
H1466 H 0.99609 0.258 0.3615 0.0
H1467 H 0.05348 0.20036 0.38987 0.0
H1468 H 0.06212 0.2123 0.37248 0.0
H1469 H 0.07312 0.23274 0.38905 0.0
H1470 H 0.0861 0.25802 0.33457 0.0
H1471 H 0.11067 0.30876 0.37368 0.0
H1472 H 0.02494 0.22278 0.34134 0.0
H1473 H 0.03995 0.20772 0.34883 0.0
H1474 H 0.04833 0.22112 0.3318 0.0
H1475 H 0.0559 0.28494 0.38912 0.0
H1476 H 0.08861 0.30158 0.39401 0.0
H1477 H 0.07066 0.26962 0.39661 0.0
C1478 C 0.78106 0.77695 0.39906 0.0
C1479 C 0.80577 0.78945 0.39624 0.0
C1480 C 0.76365 0.78135 0.3918 0.0
C1481 C 0.77115 0.7992 0.38174 0.0
C1482 C 0.79605 0.81215 0.37896 0.0
C1483 C 0.81294 0.80689 0.38606 0.0
C1484 C 0.73718 0.76684 0.39488 0.0
C1485 C 0.80488 0.83164 0.3685 0.0
C1486 C 0.724 0.79709 0.35295 0.0
C1487 C 0.71842 0.81399 0.35964 0.0
C1488 C 0.74086 0.79184 0.3601 0.0
C1489 C 0.75294 0.80431 0.37411 0.0
C1490 C 0.74762 0.82167 0.38081 0.0
C1491 C 0.73017 0.82605 0.37359 0.0
C1492 C 0.74555 0.77275 0.35274 0.0
C1493 C 0.76056 0.83583 0.39555 0.0
H1494 H 0.77524 0.7638 0.40708 0.0
H1495 H 0.83178 0.81637 0.3835 0.0
H1496 H 0.73128 0.77933 0.39973 0.0
H1497 H 0.72525 0.75742 0.38445 0.0
H1498 H 0.73413 0.75292 0.40255 0.0
H1499 H 0.82502 0.84077 0.368 0.0
H1500 H 0.79557 0.82344 0.35728 0.0
H1501 H 0.80011 0.84574 0.37194 0.0
H1502 H 0.71481 0.7876 0.34221 0.0
H1503 H 0.72607 0.83931 0.37873 0.0
H1504 H 0.74156 0.75815 0.36003 0.0
H1505 H 0.76515 0.78111 0.35085 0.0
H1506 H 0.73417 0.76423 0.34203 0.0
H1507 H 0.75672 0.82305 0.40406 0.0
H1508 H 0.75482 0.84917 0.39908 0.0
H1509 H 0.78069 0.84589 0.39503 0.0
C1510 C 0.25987 0.0275 0.37854 0.0
C1511 C 0.24643 0.03283 0.38825 0.0
C1512 C 0.25099 0.0035 0.37214 0.0
C1513 C 0.22829 0.98443 0.37571 0.0
C1514 C 0.21486 0.98967 0.3857 0.0
C1515 C 0.22404 0.01387 0.3918 0.0
C1516 C 0.26565 0.99863 0.36138 0.0
C1517 C 0.19073 0.96975 0.3899 0.0
C1518 C 0.19254 0.92675 0.34916 0.0
C1519 C 0.19846 0.91062 0.35563 0.0
C1520 C 0.20239 0.95093 0.35549 0.0
C1521 C 0.21827 0.95905 0.36871 0.0
C1522 C 0.22428 0.94286 0.37532 0.0
C1523 C 0.21442 0.91885 0.36864 0.0
C1524 C 0.19578 0.96777 0.34804 0.0
C1525 C 0.24093 0.95083 0.38953 0.0
H1526 H 0.27709 0.04222 0.3757 0.0
H1527 H 0.21379 0.01796 0.39945 0.0
H1528 H 0.26994 0.98477 0.36518 0.0
H1529 H 0.25467 0.99101 0.3505 0.0
H1530 H 0.28312 0.01544 0.35995 0.0
H1531 H 0.18298 0.97677 0.3982 0.0
H1532 H 0.17722 0.96116 0.38 0.0
H1533 H 0.19318 0.95517 0.3944 0.0
H1534 H 0.18034 0.92056 0.33904 0.0
H1535 H 0.21893 0.90642 0.37375 0.0
H1536 H 0.21267 0.98431 0.34561 0.0
H1537 H 0.1863 0.97401 0.35548 0.0
H1538 H 0.18367 0.95878 0.3376 0.0
H1539 H 0.25903 0.96681 0.38815 0.0
H1540 H 0.2438 0.936 0.39324 0.0
H1541 H 0.23299 0.95671 0.3983 0.0
C1542 C 0.53021 0.6525 0.29264 0.0
C1543 C 0.53616 0.63975 0.2821 0.0
C1544 C 0.54757 0.6763 0.29879 0.0
C1545 C 0.5717 0.68742 0.29462 0.0
C1546 C 0.57799 0.67464 0.28415 0.0
C1547 C 0.56008 0.65111 0.27787 0.0
C1548 C 0.54008 0.68952 0.30978 0.0
C1549 C 0.60369 0.68576 0.27965 0.0
C1550 C 0.61126 0.75662 0.30165 0.0
C1551 C 0.62408 0.75945 0.31531 0.0
C1552 C 0.59419 0.73323 0.29472 0.0
C1553 C 0.59044 0.71229 0.30146 0.0
C1554 C 0.60403 0.7151 0.31501 0.0
C1555 C 0.62046 0.73868 0.32187 0.0
C1556 C 0.57962 0.73095 0.28045 0.0
C1557 C 0.60101 0.69321 0.32234 0.0
H1558 H 0.512 0.64383 0.29624 0.0
H1559 H 0.56483 0.64173 0.26954 0.0
H1560 H 0.55082 0.6933 0.32061 0.0
H1561 H 0.54416 0.70744 0.30615 0.0
H1562 H 0.52026 0.67881 0.31126 0.0
H1563 H 0.60576 0.67317 0.27163 0.0
H1564 H 0.60864 0.70292 0.27467 0.0
H1565 H 0.617 0.69061 0.28949 0.0
H1566 H 0.61393 0.7727 0.29662 0.0
H1567 H 0.63055 0.74088 0.33238 0.0
H1568 H 0.5598 0.72166 0.28194 0.0
H1569 H 0.58206 0.7195 0.27179 0.0
H1570 H 0.58509 0.74903 0.27651 0.0
H1571 H 0.5821 0.68262 0.3255 0.0
H1572 H 0.61413 0.69855 0.33235 0.0
H1573 H 0.60376 0.68084 0.31455 0.0
C1574 C 0.31588 0.85141 0.27743 0.0
C1575 C 0.33745 0.87435 0.27975 0.0
C1576 C 0.29522 0.84669 0.28469 0.0
C1577 C 0.29616 0.86529 0.29463 0.0
C1578 C 0.31792 0.88844 0.29708 0.0
C1579 C 0.33825 0.89272 0.28958 0.0
C1580 C 0.27229 0.82185 0.28163 0.0
C1581 C 0.31975 0.9087 0.30766 0.0
C1582 C 0.23637 0.86189 0.3031 0.0
C1583 C 0.23266 0.85214 0.31669 0.0
C1584 C 0.25681 0.86608 0.29578 0.0
C1585 C 0.27422 0.86067 0.30225 0.0
C1586 C 0.27066 0.85089 0.31597 0.0
C1587 C 0.24986 0.8466 0.32298 0.0
C1588 C 0.25973 0.87625 0.28109 0.0
C1589 C 0.28889 0.84504 0.32328 0.0
H1590 H 0.31502 0.83722 0.26972 0.0
H1591 H 0.35494 0.91038 0.29158 0.0
H1592 H 0.26717 0.81328 0.29201 0.0
H1593 H 0.25679 0.82387 0.27712 0.0
H1594 H 0.27458 0.80931 0.2737 0.0
H1595 H 0.33811 0.9255 0.30855 0.0
H1596 H 0.30571 0.91342 0.30403 0.0
H1597 H 0.316 0.90245 0.31875 0.0
H1598 H 0.22311 0.86605 0.29806 0.0
H1599 H 0.24721 0.83912 0.33348 0.0
H1600 H 0.2608 0.86361 0.2726 0.0
H1601 H 0.27712 0.89402 0.28175 0.0
H1602 H 0.24432 0.87906 0.27742 0.0
H1603 H 0.29054 0.83138 0.31599 0.0
H1604 H 0.28359 0.83771 0.334 0.0
H1605 H 0.30729 0.86177 0.32514 0.0
C1606 C 0.12053 0.45835 0.2926 0.0
C1607 C 0.09676 0.45333 0.29479 0.0
C1608 C 0.13012 0.44471 0.29864 0.0
C1609 C 0.11561 0.42567 0.30712 0.0
C1610 C 0.09177 0.42082 0.30962 0.0
C1611 C 0.08259 0.43467 0.30336 0.0
C1612 C 0.15552 0.45025 0.29562 0.0
C1613 C 0.07587 0.40078 0.31872 0.0
C1614 C 0.12901 0.37394 0.30959 0.0
C1615 C 0.14269 0.3804 0.32339 0.0
C1616 C 0.12018 0.38858 0.30416 0.0
C1617 C 0.12494 0.4101 0.31281 0.0
C1618 C 0.1387 0.41674 0.32676 0.0
C1619 C 0.14755 0.40186 0.33187 0.0
C1620 C 0.10583 0.38107 0.28913 0.0
C1621 C 0.14397 0.43949 0.33631 0.0
H1622 H 0.13142 0.47259 0.28583 0.0
H1623 H 0.06431 0.43095 0.3052 0.0
H1624 H 0.16706 0.45392 0.30612 0.0
H1625 H 0.15442 0.43412 0.28932 0.0
H1626 H 0.16478 0.46627 0.28928 0.0
H1627 H 0.05824 0.40013 0.3202 0.0
H1628 H 0.0718 0.38278 0.31334 0.0
H1629 H 0.08575 0.4035 0.32972 0.0
H1630 H 0.12536 0.35749 0.30291 0.0
H1631 H 0.15804 0.40691 0.34257 0.0
H1632 H 0.115 0.39583 0.28192 0.0
H1633 H 0.08722 0.37829 0.29007 0.0
H1634 H 0.10398 0.36393 0.28374 0.0
H1635 H 0.15432 0.45588 0.33045 0.0
H1636 H 0.15474 0.44196 0.34695 0.0
H1637 H 0.12651 0.43858 0.3386 0.0
C1638 C 0.32231 0.45666 0.28528 0.0
C1639 C 0.33908 0.44844 0.28406 0.0
C1640 C 0.30168 0.44425 0.29295 0.0
C1641 C 0.2975 0.42284 0.29927 0.0
C1642 C 0.31442 0.41449 0.29807 0.0
C1643 C 0.33517 0.42756 0.2906 0.0
C1644 C 0.28427 0.45395 0.29421 0.0
C1645 C 0.31033 0.39146 0.30438 0.0
C1646 C 0.25323 0.39867 0.32854 0.0
C1647 C 0.2317 0.38075 0.32009 0.0
C1648 C 0.27476 0.41279 0.32189 0.0
C1649 C 0.27481 0.40852 0.30651 0.0
C1650 C 0.25314 0.39038 0.29798 0.0
C1651 C 0.23185 0.37687 0.30484 0.0
C1652 C 0.29743 0.4323 0.33129 0.0
C1653 C 0.25248 0.38499 0.28159 0.0
H1654 H 0.32553 0.473 0.28037 0.0
H1655 H 0.34812 0.42118 0.28959 0.0
H1656 H 0.266 0.44044 0.28846 0.0
H1657 H 0.28175 0.45666 0.30593 0.0
H1658 H 0.29091 0.47159 0.28942 0.0
H1659 H 0.32546 0.38768 0.30273 0.0
H1660 H 0.30863 0.39295 0.31634 0.0
H1661 H 0.29288 0.37559 0.29912 0.0
H1662 H 0.2532 0.40181 0.3403 0.0
H1663 H 0.21535 0.3629 0.29823 0.0
H1664 H 0.30372 0.45032 0.32708 0.0
H1665 H 0.31252 0.42822 0.33068 0.0
H1666 H 0.2942 0.43379 0.34301 0.0
H1667 H 0.25739 0.40168 0.27607 0.0
H1668 H 0.23416 0.37016 0.27656 0.0
H1669 H 0.26625 0.37952 0.27935 0.0
C1670 C 0.53384 0.85031 0.27382 0.0
C1671 C 0.53349 0.87174 0.2783 0.0
C1672 C 0.55093 0.84507 0.28067 0.0
C1673 C 0.56804 0.86156 0.29237 0.0
C1674 C 0.56793 0.8833 0.29689 0.0
C1675 C 0.55074 0.88816 0.28978 0.0
C1676 C 0.55046 0.8217 0.27552 0.0
C1677 C 0.58583 0.90133 0.30934 0.0
C1678 C 0.59532 0.83664 0.31977 0.0
C1679 C 0.6187 0.84464 0.31519 0.0
C1680 C 0.57873 0.84208 0.31246 0.0
C1681 C 0.58555 0.8557 0.30019 0.0
C1682 C 0.60906 0.86373 0.29545 0.0
C1683 C 0.62539 0.85819 0.30304 0.0
C1684 C 0.5539 0.8333 0.31792 0.0
C1685 C 0.61695 0.87813 0.28235 0.0
H1686 H 0.52041 0.83733 0.26511 0.0
H1687 H 0.55093 0.90496 0.29317 0.0
H1688 H 0.56879 0.8259 0.27248 0.0
H1689 H 0.54615 0.80983 0.28457 0.0
H1690 H 0.53668 0.8113 0.26589 0.0
H1691 H 0.58359 0.91754 0.31139 0.0
H1692 H 0.58327 0.89226 0.31958 0.0
H1693 H 0.60492 0.90768 0.30684 0.0
H1694 H 0.58996 0.82623 0.32916 0.0
H1695 H 0.64335 0.86435 0.29937 0.0
H1696 H 0.53919 0.82132 0.30905 0.0
H1697 H 0.55149 0.84916 0.32095 0.0
H1698 H 0.55143 0.82297 0.32764 0.0
H1699 H 0.604 0.86744 0.27246 0.0
H1700 H 0.63575 0.88283 0.27997 0.0
H1701 H 0.61644 0.89533 0.28432 0.0
C1702 C 0.11501 0.66052 0.28835 0.0
C1703 C 0.09009 0.64327 0.28836 0.0
C1704 C 0.12463 0.68472 0.29454 0.0
C1705 C 0.10883 0.69186 0.30068 0.0
C1706 C 0.08362 0.6745 0.30073 0.0
C1707 C 0.07457 0.65029 0.29466 0.0
C1708 C 0.1517 0.70262 0.29452 0.0
C1709 C 0.0662 0.68158 0.30702 0.0
C1710 C 0.13769 0.74919 0.32772 0.0
C1711 C 0.13939 0.76684 0.31862 0.0
C1712 C 0.12763 0.72465 0.32204 0.0
C1713 C 0.11876 0.71759 0.30696 0.0
C1714 C 0.12008 0.73525 0.29777 0.0
C1715 C 0.13055 0.75973 0.3037 0.0
C1716 C 0.12685 0.70636 0.33212 0.0
C1717 C 0.11053 0.72831 0.28167 0.0
H1718 H 0.12705 0.65496 0.28362 0.0
H1719 H 0.05526 0.63693 0.29457 0.0
H1720 H 0.15438 0.71799 0.2882 0.0
H1721 H 0.16016 0.71055 0.30593 0.0
H1722 H 0.16156 0.69395 0.28962 0.0
H1723 H 0.04712 0.66589 0.30619 0.0
H1724 H 0.07237 0.68891 0.31876 0.0
H1725 H 0.06619 0.69634 0.30112 0.0
H1726 H 0.14459 0.7546 0.33926 0.0
H1727 H 0.13165 0.77327 0.29663 0.0
H1728 H 0.1377 0.69823 0.32806 0.0
H1729 H 0.10771 0.69116 0.33211 0.0
H1730 H 0.13423 0.71477 0.34362 0.0
H1731 H 0.12093 0.72108 0.27591 0.0
H1732 H 0.11205 0.74407 0.27617 0.0
H1733 H 0.09101 0.71354 0.28041 0.0
C1734 C 0.79346 0.01391 0.37873 0.0
C1735 C 0.79786 0.01841 0.39413 0.0
C1736 C 0.776 0.9907 0.37176 0.0
C1737 C 0.76306 0.97129 0.38038 0.0
C1738 C 0.76723 0.97565 0.3959 0.0
C1739 C 0.7843 0.99921 0.40259 0.0
C1740 C 0.77174 0.98685 0.35517 0.0
C1741 C 0.75406 0.9553 0.40545 0.0
C1742 C 0.70478 0.9142 0.36321 0.0
C1743 C 0.71383 0.89884 0.3589 0.0
C1744 C 0.72063 0.93797 0.37011 0.0
C1745 C 0.74594 0.94619 0.37312 0.0
C1746 C 0.75502 0.93048 0.36906 0.0
C1747 C 0.7389 0.90711 0.36182 0.0
C1748 C 0.7104 0.95442 0.37395 0.0
C1749 C 0.78177 0.93834 0.37242 0.0
H1750 H 0.80402 0.02838 0.37203 0.0
H1751 H 0.78707 0.00251 0.41448 0.0
H1752 H 0.77778 0.97412 0.35093 0.0
H1753 H 0.75189 0.97832 0.35152 0.0
H1754 H 0.78182 0.00424 0.35012 0.0
H1755 H 0.75927 0.96175 0.41737 0.0
H1756 H 0.73393 0.9471 0.40312 0.0
H1757 H 0.75833 0.94056 0.40288 0.0
H1758 H 0.68541 0.90785 0.36086 0.0
H1759 H 0.74587 0.89512 0.35863 0.0
H1760 H 0.71967 0.97124 0.36829 0.0
H1761 H 0.71406 0.96025 0.38594 0.0
H1762 H 0.69032 0.94531 0.37077 0.0
H1763 H 0.79327 0.95445 0.3666 0.0
H1764 H 0.78567 0.92355 0.36907 0.0
H1765 H 0.78742 0.94395 0.38437 0.0
C1766 C 0.02179 0.81706 0.39838 0.0
C1767 C 0.00264 0.79269 0.39742 0.0
C1768 C 0.04246 0.82361 0.39071 0.0
C1769 C 0.04423 0.80528 0.38208 0.0
C1770 C 0.02509 0.78058 0.38128 0.0
C1771 C 0.00444 0.77462 0.38884 0.0
C1772 C 0.06227 0.85019 0.39169 0.0
C1773 C 0.02649 0.76041 0.37248 0.0
C1774 C 0.08653 0.82283 0.35152 0.0
C1775 C 0.10744 0.82381 0.35844 0.0
C1776 C 0.06596 0.81716 0.35914 0.0
C1777 C 0.06612 0.81189 0.37395 0.0
C1778 C 0.08712 0.81269 0.38095 0.0
C1779 C 0.10756 0.81886 0.37317 0.0
C1780 C 0.04408 0.81688 0.35137 0.0
C1781 C 0.08799 0.80687 0.39664 0.0
H1782 H 0.02033 0.83111 0.40488 0.0
H1783 H 0.98976 0.75573 0.38818 0.0
H1784 H 0.07999 0.85249 0.39633 0.0
H1785 H 0.0648 0.85633 0.38052 0.0
H1786 H 0.05793 0.86227 0.39866 0.0
H1787 H 0.01032 0.74207 0.37321 0.0
H1788 H 0.02776 0.76381 0.36075 0.0
H1789 H 0.04331 0.76021 0.37648 0.0
H1790 H 0.08632 0.82675 0.34018 0.0
H1791 H 0.12357 0.81941 0.3786 0.0
H1792 H 0.03993 0.82973 0.35764 0.0
H1793 H 0.02769 0.79835 0.35084 0.0
H1794 H 0.04711 0.82209 0.34 0.0
H1795 H 0.08691 0.82065 0.40416 0.0
H1796 H 0.10504 0.80671 0.40013 0.0
H1797 H 0.072 0.78874 0.39794 0.0
C1798 C 0.23126 0.21566 0.37138 0.0
C1799 C 0.2513 0.22864 0.38212 0.0
C1800 C 0.21975 0.22722 0.36476 0.0
C1801 C 0.22886 0.25243 0.36883 0.0
C1802 C 0.24965 0.26579 0.37932 0.0
C1803 C 0.26046 0.25364 0.38597 0.0
C1804 C 0.19735 0.21228 0.35384 0.0
C1805 C 0.26018 0.29281 0.38371 0.0
C1806 C 0.21053 0.28768 0.34399 0.0
C1807 C 0.19307 0.28968 0.35178 0.0
C1808 C 0.2223 0.27548 0.34937 0.0
C1809 C 0.21599 0.26462 0.36265 0.0
C1810 C 0.19779 0.26593 0.3703 0.0
C1811 C 0.18674 0.27869 0.36485 0.0
C1812 C 0.24197 0.27485 0.34108 0.0
C1813 C 0.19021 0.25413 0.38434 0.0
H1814 H 0.22407 0.19625 0.36853 0.0
H1815 H 0.27606 0.26364 0.39424 0.0
H1816 H 0.18124 0.21207 0.3582 0.0
H1817 H 0.19999 0.22071 0.34336 0.0
H1818 H 0.19315 0.19309 0.35148 0.0
H1819 H 0.27741 0.30085 0.39122 0.0
H1820 H 0.26397 0.3028 0.37379 0.0
H1821 H 0.24665 0.2958 0.3893 0.0
H1822 H 0.21562 0.29635 0.33394 0.0
H1823 H 0.17312 0.28009 0.37085 0.0
H1824 H 0.23745 0.25567 0.33831 0.0
H1825 H 0.25972 0.28436 0.34813 0.0
H1826 H 0.24433 0.28373 0.33075 0.0
H1827 H 0.18457 0.23447 0.38253 0.0
H1828 H 0.17482 0.25568 0.38849 0.0
H1829 H 0.206 0.2629 0.39299 0.0
C1830 C 0.66318 0.53544 0.70901 0.0
C1831 C 0.66667 0.53884 0.72441 0.0
C1832 C 0.68249 0.54917 0.70063 0.0
C1833 C 0.70597 0.56624 0.70786 0.0
C1834 C 0.70969 0.56927 0.72345 0.0
C1835 C 0.68988 0.55576 0.73154 0.0
C1836 C 0.6776 0.54587 0.68407 0.0
C1837 C 0.73456 0.58691 0.73158 0.0
C1838 C 0.76201 0.58917 0.68656 0.0
C1839 C 0.76691 0.61284 0.68452 0.0
C1840 C 0.74207 0.57362 0.69404 0.0
C1841 C 0.72638 0.58179 0.6992 0.0
C1842 C 0.73069 0.60531 0.69654 0.0
C1843 C 0.75111 0.62067 0.68943 0.0
C1844 C 0.73839 0.54889 0.69695 0.0
C1845 C 0.71405 0.6145 0.70149 0.0
H1846 H 0.64514 0.52243 0.70353 0.0
H1847 H 0.69256 0.55819 0.74346 0.0
H1848 H 0.68116 0.5634 0.68007 0.0
H1849 H 0.69024 0.54083 0.67905 0.0
H1850 H 0.65843 0.53155 0.68014 0.0
H1851 H 0.73479 0.58587 0.74364 0.0
H1852 H 0.74861 0.58306 0.72749 0.0
H1853 H 0.73998 0.60592 0.72949 0.0
H1854 H 0.77443 0.58324 0.68293 0.0
H1855 H 0.75484 0.63898 0.68779 0.0
H1856 H 0.71952 0.53425 0.69275 0.0
H1857 H 0.74057 0.54816 0.70899 0.0
H1858 H 0.75166 0.54491 0.69177 0.0
H1859 H 0.69468 0.60103 0.69742 0.0
H1860 H 0.71882 0.63241 0.69754 0.0
H1861 H 0.71533 0.61659 0.71368 0.0
C1862 C 0.47307 0.14535 0.73004 0.0
C1863 C 0.46856 0.12126 0.72987 0.0
C1864 C 0.45602 0.15044 0.72299 0.0
C1865 C 0.43371 0.13097 0.71575 0.0
C1866 C 0.42889 0.10661 0.71565 0.0
C1867 C 0.44641 0.10207 0.72261 0.0
C1868 C 0.46192 0.17669 0.72327 0.0
C1869 C 0.40524 0.08533 0.70812 0.0
C1870 C 0.38059 0.14254 0.7088 0.0
C1871 C 0.38131 0.14647 0.69388 0.0
C1872 C 0.39736 0.13725 0.71601 0.0
C1873 C 0.4155 0.13613 0.70818 0.0
C1874 C 0.41637 0.14013 0.69314 0.0
C1875 C 0.39919 0.14511 0.68615 0.0
C1876 C 0.39566 0.13282 0.73202 0.0
C1877 C 0.43561 0.13938 0.68445 0.0
H1878 H 0.48988 0.16029 0.73582 0.0
H1879 H 0.44285 0.08344 0.72219 0.0
H1880 H 0.46149 0.18152 0.71187 0.0
H1881 H 0.44784 0.179 0.72868 0.0
H1882 H 0.48022 0.18976 0.7292 0.0
H1883 H 0.40398 0.06743 0.70939 0.0
H1884 H 0.38935 0.08526 0.71272 0.0
H1885 H 0.40369 0.08728 0.69622 0.0
H1886 H 0.36678 0.14344 0.71486 0.0
H1887 H 0.4 0.14825 0.67465 0.0
H1888 H 0.41298 0.14649 0.73867 0.0
H1889 H 0.39316 0.11447 0.73341 0.0
H1890 H 0.38023 0.13394 0.73647 0.0
H1891 H 0.45418 0.15325 0.68966 0.0
H1892 H 0.43383 0.14294 0.67285 0.0
H1893 H 0.4342 0.12122 0.68451 0.0
C1894 C 0.88838 0.34883 0.71899 0.0
C1895 C 0.91355 0.36587 0.71968 0.0
C1896 C 0.87882 0.32457 0.7129 0.0
C1897 C 0.89485 0.31707 0.70755 0.0
C1898 C 0.92028 0.33406 0.7083 0.0
C1899 C 0.92931 0.3583 0.71428 0.0
C1900 C 0.85156 0.30697 0.71218 0.0
C1901 C 0.93793 0.32664 0.70277 0.0
C1902 C 0.87262 0.24905 0.70402 0.0
C1903 C 0.86525 0.24255 0.68889 0.0
C1904 C 0.88257 0.27332 0.71022 0.0
C1905 C 0.88494 0.29143 0.70109 0.0
C1906 C 0.87753 0.28499 0.68582 0.0
C1907 C 0.86788 0.26064 0.67989 0.0
C1908 C 0.89053 0.27959 0.72654 0.0
C1909 C 0.87954 0.30378 0.67578 0.0
H1910 H 0.87613 0.35438 0.72337 0.0
H1911 H 0.94872 0.37141 0.71458 0.0
H1912 H 0.84393 0.29926 0.70063 0.0
H1913 H 0.84803 0.29142 0.71855 0.0
H1914 H 0.84154 0.31583 0.7166 0.0
H1915 H 0.95724 0.34194 0.70445 0.0
H1916 H 0.93662 0.31119 0.70852 0.0
H1917 H 0.93302 0.32016 0.69086 0.0
H1918 H 0.87077 0.2352 0.71103 0.0
H1919 H 0.86213 0.25574 0.66819 0.0
H1920 H 0.87994 0.2871 0.73178 0.0
H1921 H 0.91018 0.29397 0.72847 0.0
H1922 H 0.88789 0.26345 0.73205 0.0
H1923 H 0.86858 0.31203 0.67943 0.0
H1924 H 0.87304 0.29579 0.66414 0.0
H1925 H 0.89887 0.31881 0.67635 0.0
C1926 C 0.22377 0.9802 0.61972 0.0
C1927 C 0.20039 0.97495 0.61393 0.0
C1928 C 0.24132 0.00378 0.62614 0.0
C1929 C 0.23527 0.0225 0.62696 0.0
C1930 C 0.21183 0.01743 0.62102 0.0
C1931 C 0.19474 0.99376 0.61451 0.0
C1932 C 0.26618 0.00854 0.63229 0.0
C1933 C 0.20465 0.03689 0.62178 0.0
C1934 C 0.2696 0.07495 0.65722 0.0
C1935 C 0.28608 0.09381 0.64949 0.0
C1936 C 0.25299 0.05171 0.64999 0.0
C1937 C 0.253 0.04708 0.63468 0.0
C1938 C 0.26973 0.06592 0.62681 0.0
C1939 C 0.286 0.08914 0.6343 0.0
C1940 C 0.23526 0.03216 0.65875 0.0
C1941 C 0.27042 0.06155 0.61049 0.0
H1942 H 0.22823 0.96574 0.6195 0.0
H1943 H 0.17692 0.99003 0.60981 0.0
H1944 H 0.28089 0.02438 0.62758 0.0
H1945 H 0.26871 0.01329 0.64438 0.0
H1946 H 0.26853 0.99244 0.62997 0.0
H1947 H 0.18589 0.03012 0.61635 0.0
H1948 H 0.20539 0.04338 0.63345 0.0
H1949 H 0.21782 0.05292 0.61647 0.0
H1950 H 0.26941 0.0784 0.66894 0.0
H1951 H 0.29874 0.10359 0.62826 0.0
H1952 H 0.23783 0.01605 0.65779 0.0
H1953 H 0.21612 0.02584 0.65425 0.0
H1954 H 0.2376 0.03875 0.67059 0.0
H1955 H 0.27392 0.04621 0.60818 0.0
H1956 H 0.2848 0.07801 0.60604 0.0
H1957 H 0.25239 0.05616 0.60453 0.0
C1958 C 1.00051 0.22763 0.61946 0.0
C1959 C 0.00278 0.2084 0.61272 0.0
C1960 C 0.97998 0.223 0.62684 0.0
C1961 C 0.96136 0.19854 0.62773 0.0
C1962 C 0.96355 0.17904 0.62104 0.0
C1963 C 0.98408 0.18419 0.61354 0.0
C1964 C 0.97821 0.24432 0.63369 0.0
C1965 C 0.94416 0.15269 0.62179 0.0
C1966 C 0.9188 0.18614 0.65791 0.0
C1967 C 0.89762 0.18329 0.65009 0.0
C1968 C 0.93962 0.19097 0.65076 0.0
C1969 C 0.9394 0.19334 0.63548 0.0
C1970 C 0.91813 0.19066 0.62756 0.0
C1971 C 0.8975 0.18552 0.63492 0.0
C1972 C 0.96182 0.19338 0.65956 0.0
C1973 C 0.91717 0.1933 0.61129 0.0
H1974 H 0.01495 0.24638 0.61913 0.0
H1975 H 0.98533 0.16916 0.60818 0.0
H1976 H 0.96111 0.24335 0.62903 0.0
H1977 H 0.97729 0.2434 0.64571 0.0
H1978 H 0.99406 0.26226 0.63185 0.0
H1979 H 0.94897 0.13963 0.61644 0.0
H1980 H 0.94152 0.1491 0.63344 0.0
H1981 H 0.92635 0.14906 0.61634 0.0
H1982 H 0.91904 0.18436 0.6696 0.0
H1983 H 0.8813 0.18351 0.62876 0.0
H1984 H 0.97798 0.21172 0.65892 0.0
H1985 H 0.96623 0.17963 0.65484 0.0
H1986 H 0.95901 0.19081 0.67132 0.0
H1987 H 0.93239 0.2114 0.60915 0.0
H1988 H 0.89954 0.1915 0.60685 0.0
H1989 H 0.91962 0.17913 0.60515 0.0
C1990 C 0.76738 0.76583 0.61615 0.0
C1991 C 0.75901 0.77811 0.62523 0.0
C1992 C 0.77709 0.75221 0.62211 0.0
C1993 C 0.77778 0.75042 0.63745 0.0
C1994 C 0.76897 0.76255 0.64663 0.0
C1995 C 0.75997 0.77658 0.6404 0.0
C1996 C 0.78683 0.73999 0.61204 0.0
C1997 C 0.76889 0.76057 0.66296 0.0
C1998 C 0.78167 0.6963 0.64967 0.0
C1999 C 0.80644 0.70736 0.65511 0.0
C2000 C 0.77195 0.71023 0.64423 0.0
C2001 C 0.78759 0.73568 0.64385 0.0
C2002 C 0.81266 0.74693 0.64929 0.0
C2003 C 0.82173 0.73265 0.65506 0.0
C2004 C 0.74499 0.69771 0.63888 0.0
C2005 C 0.83 0.77393 0.64872 0.0
H2006 H 0.76677 0.76731 0.60443 0.0
H2007 H 0.7534 0.78614 0.64734 0.0
H2008 H 0.80628 0.74636 0.61581 0.0
H2009 H 0.77637 0.71989 0.61241 0.0
H2010 H 0.78564 0.74384 0.60045 0.0
H2011 H 0.76081 0.77062 0.66848 0.0
H2012 H 0.75827 0.74104 0.66499 0.0
H2013 H 0.78788 0.76796 0.66813 0.0
H2014 H 0.76979 0.67675 0.64984 0.0
H2015 H 0.84095 0.74115 0.65916 0.0
H2016 H 0.74262 0.69921 0.62696 0.0
H2017 H 0.7363 0.70688 0.64466 0.0
H2018 H 0.7351 0.67802 0.64065 0.0
H2019 H 0.83039 0.77827 0.63715 0.0
H2020 H 0.849 0.77981 0.65334 0.0
H2021 H 0.8235 0.78483 0.65493 0.0
C2022 C 0.00209 0.76079 0.62411 0.0
C2023 C 0.00537 0.7814 0.61749 0.0
C2024 C 0.98142 0.74728 0.63157 0.0
C2025 C 0.9639 0.7549 0.63266 0.0
C2026 C 0.9675 0.7761 0.62631 0.0
C2027 C 0.98809 0.78897 0.61867 0.0
C2028 C 0.97799 0.72451 0.63794 0.0
C2029 C 0.94946 0.78504 0.62743 0.0
C2030 C 0.89839 0.70745 0.63758 0.0
C2031 C 0.89765 0.71114 0.65278 0.0
C2032 C 0.91985 0.72145 0.63096 0.0
C2033 C 0.9411 0.7399 0.63969 0.0
C2034 C 0.94047 0.74394 0.65502 0.0
C2035 C 0.91878 0.72934 0.66142 0.0
C2036 C 0.9198 0.7163 0.61461 0.0
C2037 C 0.96267 0.76375 0.66462 0.0
H2038 H 0.01542 0.75488 0.62313 0.0
H2039 H 0.99079 0.8051 0.6137 0.0
H2040 H 0.97578 0.72572 0.64983 0.0
H2041 H 0.96099 0.70829 0.63248 0.0
H2042 H 0.99366 0.72149 0.63654 0.0
H2043 H 0.95577 0.80273 0.62276 0.0
H2044 H 0.93147 0.77126 0.62148 0.0
H2045 H 0.94649 0.78734 0.63911 0.0
H2046 H 0.88223 0.69327 0.63081 0.0
H2047 H 0.91832 0.73234 0.67315 0.0
H2048 H 0.93411 0.71151 0.61256 0.0
H2049 H 0.9243 0.73292 0.6091 0.0
H2050 H 0.9018 0.70109 0.60942 0.0
H2051 H 0.97819 0.76029 0.66414 0.0
H2052 H 0.95906 0.76488 0.67629 0.0
H2053 H 0.96855 0.78175 0.66049 0.0
C2054 C 0.20019 0.18781 0.60808 0.0
C2055 C 0.20037 0.2096 0.61232 0.0
C2056 C 0.21687 0.18222 0.61512 0.0
C2057 C 0.23408 0.19871 0.62678 0.0
C2058 C 0.23449 0.22079 0.63107 0.0
C2059 C 0.21771 0.226 0.62377 0.0
C2060 C 0.21587 0.1585 0.6102 0.0
C2061 C 0.25253 0.23884 0.64346 0.0
C2062 C 0.26034 0.17333 0.65448 0.0
C2063 C 0.2836 0.18069 0.6499 0.0
C2064 C 0.24413 0.17917 0.6471 0.0
C2065 C 0.25123 0.19255 0.63474 0.0
C2066 C 0.27463 0.19997 0.63001 0.0
C2067 C 0.29057 0.19403 0.63767 0.0
C2068 C 0.2194 0.17104 0.65255 0.0
C2069 C 0.28279 0.2141 0.61681 0.0
H2070 H 0.18668 0.17484 0.5994 0.0
H2071 H 0.21828 0.24305 0.62698 0.0
H2072 H 0.23408 0.16222 0.60721 0.0
H2073 H 0.21131 0.14682 0.61937 0.0
H2074 H 0.20202 0.14809 0.60061 0.0
H2075 H 0.25065 0.2553 0.64536 0.0
H2076 H 0.24974 0.22993 0.65378 0.0
H2077 H 0.27156 0.24478 0.64102 0.0
H2078 H 0.25478 0.16309 0.66394 0.0
H2079 H 0.30843 0.1997 0.63399 0.0
H2080 H 0.20459 0.15906 0.64373 0.0
H2081 H 0.21737 0.18719 0.6554 0.0
H2082 H 0.21673 0.16091 0.66237 0.0
H2083 H 0.26981 0.20338 0.60695 0.0
H2084 H 0.30151 0.21841 0.6145 0.0
H2085 H 0.28262 0.23149 0.61863 0.0
C2086 C 0.74508 0.97831 0.63694 0.0
C2087 C 0.7578 0.9732 0.62655 0.0
C2088 C 0.75398 0.00232 0.64335 0.0
C2089 C 0.77596 0.02161 0.63915 0.0
C2090 C 0.78904 0.01652 0.62884 0.0
C2091 C 0.77991 0.99236 0.62276 0.0
C2092 C 0.73971 0.00711 0.65445 0.0
C2093 C 0.81253 0.03663 0.62406 0.0
C2094 C 0.78766 0.08656 0.64329 0.0
C2095 C 0.80514 0.097 0.65563 0.0
C2096 C 0.77767 0.06189 0.63796 0.0
C2097 C 0.78514 0.04728 0.64526 0.0
C2098 C 0.80234 0.05755 0.65792 0.0
C2099 C 0.81228 0.08237 0.6629 0.0
C2100 C 0.75959 0.05161 0.62431 0.0
C2101 C 0.8105 0.04242 0.66609 0.0
H2102 H 0.7279 0.96364 0.63983 0.0
H2103 H 0.79015 0.98849 0.615 0.0
H2104 H 0.75176 0.01697 0.66478 0.0
H2105 H 0.73314 0.01904 0.65014 0.0
H2106 H 0.72363 0.98996 0.65708 0.0
H2107 H 0.82049 0.02955 0.61594 0.0
H2108 H 0.80902 0.05025 0.61907 0.0
H2109 H 0.82631 0.04641 0.63374 0.0
H2110 H 0.78211 0.0978 0.63761 0.0
H2111 H 0.8256 0.09028 0.67254 0.0
H2112 H 0.74236 0.0353 0.62657 0.0
H2113 H 0.76727 0.04557 0.61545 0.0
H2114 H 0.75509 0.06519 0.62021 0.0
H2115 H 0.79432 0.02581 0.66914 0.0
H2116 H 0.8229 0.05281 0.67623 0.0
H2117 H 0.82024 0.03619 0.65886 0.0
C2118 C 0.46629 0.33027 0.73337 0.0
C2119 C 0.46614 0.35138 0.72971 0.0
C2120 C 0.44864 0.30699 0.72661 0.0
C2121 C 0.43048 0.30472 0.71579 0.0
C2122 C 0.43008 0.32589 0.71208 0.0
C2123 C 0.44786 0.34895 0.71912 0.0
C2124 C 0.44966 0.28485 0.73087 0.0
C2125 C 0.41106 0.32419 0.70056 0.0
C2126 C 0.40171 0.24808 0.68813 0.0
C2127 C 0.37923 0.23319 0.6936 0.0
C2128 C 0.41835 0.27153 0.69513 0.0
C2129 C 0.4125 0.28026 0.70799 0.0
C2130 C 0.38979 0.26541 0.71353 0.0
C2131 C 0.37336 0.24208 0.70624 0.0
C2132 C 0.4423 0.28688 0.6888 0.0
C2133 C 0.38301 0.27405 0.72729 0.0
H2134 H 0.48055 0.33197 0.74136 0.0
H2135 H 0.44737 0.3651 0.71637 0.0
H2136 H 0.43177 0.27121 0.73434 0.0
H2137 H 0.45315 0.27593 0.72123 0.0
H2138 H 0.46425 0.28961 0.73995 0.0
H2139 H 0.41298 0.34233 0.69914 0.0
H2140 H 0.41268 0.31621 0.68983 0.0
H2141 H 0.39238 0.31182 0.70359 0.0
H2142 H 0.40635 0.24146 0.67832 0.0
H2143 H 0.35608 0.23067 0.71057 0.0
H2144 H 0.45789 0.2909 0.69693 0.0
H2145 H 0.4442 0.30468 0.68646 0.0
H2146 H 0.44376 0.27767 0.67849 0.0
H2147 H 0.39661 0.2776 0.73672 0.0
H2148 H 0.36448 0.26048 0.73003 0.0
H2149 H 0.3835 0.29155 0.72593 0.0
C2150 C 0.68867 0.14958 0.7336 0.0
C2151 C 0.66747 0.12653 0.73016 0.0
C2152 C 0.7097 0.15625 0.72626 0.0
C2153 C 0.70958 0.13947 0.71523 0.0
C2154 C 0.68828 0.11615 0.71174 0.0
C2155 C 0.66753 0.10997 0.71924 0.0
C2156 C 0.73203 0.18129 0.7303 0.0
C2157 C 0.68744 0.09766 0.70012 0.0
C2158 C 0.7558 0.16272 0.68688 0.0
C2159 C 0.77333 0.15698 0.69233 0.0
C2160 C 0.73507 0.15734 0.69428 0.0
C2161 C 0.73185 0.14606 0.70749 0.0
C2162 C 0.74968 0.14059 0.71316 0.0
C2163 C 0.77012 0.14605 0.70552 0.0
C2164 C 0.71647 0.16345 0.68788 0.0
C2165 C 0.74707 0.12874 0.72725 0.0
H2166 H 0.6887 0.16262 0.74187 0.0
H2167 H 0.65138 0.092 0.71665 0.0
H2168 H 0.74798 0.17947 0.73411 0.0
H2169 H 0.73682 0.19149 0.72047 0.0
H2170 H 0.72916 0.19224 0.73909 0.0
H2171 H 0.66936 0.08046 0.69855 0.0
H2172 H 0.69134 0.10553 0.68946 0.0
H2173 H 0.70182 0.09311 0.70322 0.0
H2174 H 0.75809 0.17117 0.67673 0.0
H2175 H 0.78363 0.14172 0.70994 0.0
H2176 H 0.714 0.17552 0.69606 0.0
H2177 H 0.69841 0.14646 0.68523 0.0
H2178 H 0.72192 0.17271 0.67772 0.0
H2179 H 0.74528 0.13997 0.73636 0.0
H2180 H 0.76294 0.12637 0.73044 0.0
H2181 H 0.73012 0.11051 0.72598 0.0
C2182 C 0.9309 0.58804 0.71916 0.0
C2183 C 0.92275 0.56332 0.71503 0.0
C2184 C 0.91959 0.59971 0.71245 0.0
C2185 C 0.89932 0.5861 0.70165 0.0
C2186 C 0.89127 0.5612 0.69731 0.0
C2187 C 0.90327 0.55015 0.70397 0.0
C2188 C 0.929 0.62644 0.71714 0.0
C2189 C 0.86942 0.54599 0.68604 0.0
C2190 C 0.85506 0.6098 0.69725 0.0
C2191 C 0.86148 0.62123 0.68433 0.0
C2192 C 0.86682 0.59775 0.70279 0.0
C2193 C 0.88585 0.59766 0.69541 0.0
C2194 C 0.8923 0.60904 0.6823 0.0
C2195 C 0.87981 0.62047 0.67681 0.0
C2196 C 0.85906 0.58534 0.71663 0.0
C2197 C 0.91282 0.60973 0.6743 0.0
H2198 H 0.94605 0.59818 0.72769 0.0
H2199 H 0.89684 0.53093 0.70093 0.0
H2200 H 0.93278 0.63679 0.70737 0.0
H2201 H 0.91483 0.6285 0.72259 0.0
H2202 H 0.94602 0.63481 0.72487 0.0
H2203 H 0.86606 0.52712 0.6835 0.0
H2204 H 0.85277 0.54483 0.69019 0.0
H2205 H 0.87215 0.55478 0.67569 0.0
H2206 H 0.84077 0.61025 0.70302 0.0
H2207 H 0.88495 0.6295 0.66688 0.0
H2208 H 0.87451 0.59431 0.72549 0.0
H2209 H 0.85423 0.56591 0.71464 0.0
H2210 H 0.84308 0.58597 0.72057 0.0
H2211 H 0.93027 0.61952 0.68164 0.0
H2212 H 0.91531 0.61901 0.66413 0.0
H2213 H 0.90914 0.59087 0.67133 0.0
C2214 C 0.45388 0.95636 0.16666 0.0
C2215 C 0.46766 0.94704 0.17332 0.0
C2216 C 0.45934 0.96643 0.15319 0.0
C2217 C 0.47891 0.96703 0.14609 0.0
C2218 C 0.49285 0.95763 0.15271 0.0
C2219 C 0.48718 0.94793 0.16625 0.0
C2220 C 0.44414 0.97642 0.14655 0.0
C2221 C 0.51379 0.95779 0.14548 0.0
C2222 C 0.47988 0.97207 0.10489 0.0
C2223 C 0.49754 0.9968 0.10443 0.0
C2224 C 0.47353 0.9622 0.11834 0.0
C2225 C 0.48486 0.97744 0.13172 0.0
C2226 C 0.50235 0.00249 0.13137 0.0
C2227 C 0.50857 0.01182 0.11776 0.0
C2228 C 0.45487 0.93537 0.11821 0.0
C2229 C 0.51475 0.0194 0.14539 0.0
H2230 H 0.43857 0.9555 0.17188 0.0
H2231 H 0.49829 0.94126 0.17138 0.0
H2232 H 0.45615 0.99591 0.14483 0.0
H2233 H 0.43502 0.96628 0.1356 0.0
H2234 H 0.42987 0.97505 0.15358 0.0
H2235 H 0.5226 0.94944 0.15193 0.0
H2236 H 0.50707 0.9476 0.13433 0.0
H2237 H 0.52791 0.97686 0.14412 0.0
H2238 H 0.47088 0.96037 0.09469 0.0
H2239 H 0.52247 0.03084 0.1176 0.0
H2240 H 0.43934 0.93317 0.12429 0.0
H2241 H 0.46333 0.92603 0.12393 0.0
H2242 H 0.44753 0.92604 0.10688 0.0
H2243 H 0.50078 0.01895 0.15235 0.0
H2244 H 0.52714 0.03862 0.14324 0.0
H2245 H 0.52563 0.01312 0.15179 0.0
C2246 C 0.00535 0.46445 0.17268 0.0
C2247 C 0.00683 0.48515 0.18027 0.0
C2248 C 0.99832 0.45888 0.15746 0.0
C2249 C 0.99259 0.47436 0.14974 0.0
C2250 C 0.9933 0.49482 0.15746 0.0
C2251 C 1.00041 0.49996 0.17262 0.0
C2252 C 0.99779 0.43693 0.14957 0.0
C2253 C 0.98715 0.51168 0.14964 0.0
C2254 C 1.00046 0.48081 0.10933 0.0
C2255 C 0.97605 0.46801 0.10296 0.0
C2256 C 0.00618 0.48197 0.12448 0.0
C2257 C 0.98702 0.4701 0.13349 0.0
C2258 C 0.96243 0.45616 0.12705 0.0
C2259 C 0.95723 0.45528 0.11184 0.0
C2260 C 0.03265 0.49701 0.13095 0.0
C2261 C 0.94153 0.44314 0.1363 0.0
H2262 H 0.01045 0.45306 0.17856 0.0
H2263 H 1.00115 0.51575 0.17852 0.0
H2264 H 0.97988 0.42518 0.1429 0.0
H2265 H 0.01216 0.44311 0.14188 0.0
H2266 H 1.00095 0.42573 0.15731 0.0
H2267 H 0.9876 0.52619 0.15736 0.0
H2268 H 1.00042 0.52058 0.14152 0.0
H2269 H 0.96863 0.50105 0.14348 0.0
H2270 H 0.01508 0.49092 0.10258 0.0
H2271 H 0.93836 0.44504 0.10693 0.0
H2272 H 0.03743 0.48633 0.13822 0.0
H2273 H 0.0354 0.51345 0.1378 0.0
H2274 H 0.04549 0.50312 0.12233 0.0
H2275 H 0.94537 0.43195 0.14367 0.0
H2276 H 0.92382 0.43106 0.12947 0.0
H2277 H 0.9396 0.45682 0.14338 0.0
C2278 C 0.45218 0.47344 0.16444 0.0
C2279 C 0.46608 0.49547 0.17357 0.0
C2280 C 0.45745 0.47123 0.14991 0.0
C2281 C 0.47678 0.49167 0.14438 0.0
C2282 C 0.4905 0.51409 0.15349 0.0
C2283 C 0.48509 0.51566 0.168 0.0
C2284 C 0.44266 0.44694 0.14058 0.0
C2285 C 0.51097 0.53642 0.14793 0.0
C2286 C 0.5086 0.48342 0.11246 0.0
C2287 C 0.4977 0.48893 0.10063 0.0
C2288 C 0.50141 0.4835 0.12666 0.0
C2289 C 0.48313 0.48962 0.12917 0.0
C2290 C 0.47183 0.49493 0.11728 0.0
C2291 C 0.47911 0.49433 0.10314 0.0
C2292 C 0.51374 0.47752 0.13904 0.0
C2293 C 0.45242 0.50174 0.11954 0.0
H2294 H 0.43756 0.4578 0.16877 0.0
H2295 H 0.49562 0.53281 0.17501 0.0
H2296 H 0.4341 0.44922 0.13032 0.0
H2297 H 0.45492 0.44003 0.13729 0.0
H2298 H 0.42799 0.43295 0.14644 0.0
H2299 H 0.5193 0.55269 0.15627 0.0
H2300 H 0.52555 0.53263 0.14484 0.0
H2301 H 0.50396 0.5409 0.13791 0.0
H2302 H 0.52318 0.47954 0.11071 0.0
H2303 H 0.47019 0.49811 0.09404 0.0
H2304 H 0.49976 0.46284 0.14486 0.0
H2305 H 0.52437 0.49388 0.14718 0.0
H2306 H 0.52638 0.47151 0.13508 0.0
H2307 H 0.4371 0.48719 0.12469 0.0
H2308 H 0.44491 0.50465 0.10907 0.0
H2309 H 0.4603 0.5188 0.12718 0.0
C2310 C 0.9787 0.50588 0.84008 0.0
C2311 C 0.99676 0.50957 0.8307 0.0
C2312 C 0.98331 0.50674 0.85533 0.0
C2313 C 0.00644 0.51112 0.86135 0.0
C2314 C 0.02482 0.51503 0.85199 0.0
C2315 C 0.0198 0.51433 0.83679 0.0
C2316 C 0.96329 0.50262 0.86498 0.0
C2317 C 0.04969 0.51967 0.85803 0.0
C2318 C 0.02611 0.53312 0.90197 0.0
C2319 C 0.02044 0.51128 0.90791 0.0
C2320 C 0.02152 0.53333 0.88682 0.0
C2321 C 0.01126 0.5112 0.87742 0.0
C2322 C 0.00555 0.48909 0.88337 0.0
C2323 C 0.01009 0.48938 0.89857 0.0
C2324 C 0.02754 0.55719 0.8809 0.0
C2325 C 0.9948 0.46517 0.87365 0.0
H2326 H 0.96071 0.50177 0.83546 0.0
H2327 H 0.03396 0.51753 0.82966 0.0
H2328 H 0.95802 0.48595 0.8706 0.0
H2329 H 0.97007 0.51823 0.87365 0.0
H2330 H 0.94667 0.50044 0.85863 0.0
H2331 H 0.06201 0.52245 0.84928 0.0
H2332 H 0.05863 0.53609 0.86623 0.0
H2333 H 0.04757 0.50395 0.8638 0.0
H2334 H 0.03387 0.55002 0.90921 0.0
H2335 H 0.00593 0.47252 0.90315 0.0
H2336 H 0.01076 0.55558 0.87517 0.0
H2337 H 0.04095 0.56141 0.87269 0.0
H2338 H 0.0353 0.57275 0.8897 0.0
H2339 H 0.97715 0.46094 0.86765 0.0
H2340 H 0.99154 0.44964 0.88001 0.0
H2341 H 0.00737 0.4667 0.86529 0.0
C2342 C 0.52556 0.48793 0.84298 0.0
C2343 C 0.54687 0.50492 0.83717 0.0
C2344 C 0.51986 0.49314 0.85683 0.0
C2345 C 0.53574 0.51601 0.8651 0.0
C2346 C 0.55709 0.53344 0.85923 0.0
C2347 C 0.56242 0.52769 0.84534 0.0
C2348 C 0.49687 0.47404 0.86265 0.0
C2349 C 0.57443 0.55804 0.86772 0.0
C2350 C 0.50714 0.53371 0.89543 0.0
C2351 C 0.51472 0.52617 0.90777 0.0
C2352 C 0.51465 0.53145 0.88156 0.0
C2353 C 0.53002 0.5213 0.87998 0.0
C2354 C 0.53842 0.51444 0.89249 0.0
C2355 C 0.53065 0.51694 0.90621 0.0
C2356 C 0.50546 0.53916 0.86851 0.0
C2357 C 0.55474 0.50345 0.89129 0.0
H2358 H 0.51315 0.4705 0.83663 0.0
H2359 H 0.579 0.54085 0.84099 0.0
H2360 H 0.50171 0.46892 0.87317 0.0
H2361 H 0.48478 0.48161 0.86498 0.0
H2362 H 0.48639 0.45721 0.85481 0.0
H2363 H 0.58979 0.56989 0.86142 0.0
H2364 H 0.56436 0.56766 0.87059 0.0
H2365 H 0.58218 0.55548 0.87819 0.0
H2366 H 0.49507 0.54115 0.89659 0.0
H2367 H 0.53631 0.51073 0.91563 0.0
H2368 H 0.4931 0.52283 0.86067 0.0
H2369 H 0.52103 0.55164 0.86259 0.0
H2370 H 0.49527 0.5485 0.87177 0.0
H2371 H 0.54446 0.48529 0.88469 0.0
H2372 H 0.56136 0.50105 0.90222 0.0
H2373 H 0.57085 0.51518 0.8855 0.0
C2374 C 0.50943 0.03837 0.83981 0.0
C2375 C 0.53342 0.04817 0.83581 0.0
C2376 C 0.50328 0.02898 0.8534 0.0
C2377 C 0.52163 0.0298 0.86345 0.0
C2378 C 0.54593 0.03993 0.85961 0.0
C2379 C 0.55149 0.04878 0.84582 0.0
C2380 C 0.47709 0.01814 0.85698 0.0
C2381 C 0.5661 0.04144 0.8701 0.0
C2382 C 0.50969 0.02591 0.90374 0.0
C2383 C 0.50267 0.00146 0.90547 0.0
C2384 C 0.51626 0.03545 0.89022 0.0
C2385 C 0.51534 0.0201 0.87797 0.0
C2386 C 0.50805 0.99537 0.87956 0.0
C2387 C 0.50204 0.98644 0.89328 0.0
C2388 C 0.52417 0.06199 0.88905 0.0
C2389 C 0.50654 0.97831 0.86673 0.0
H2390 H 0.49537 0.03823 0.83238 0.0
H2391 H 0.56999 0.05595 0.84284 0.0
H2392 H 0.46991 0.99898 0.85949 0.0
H2393 H 0.4763 0.02856 0.86693 0.0
H2394 H 0.46484 0.01826 0.84782 0.0
H2395 H 0.58418 0.0504 0.86563 0.0
H2396 H 0.56765 0.05188 0.88069 0.0
H2397 H 0.56162 0.0228 0.87251 0.0
H2398 H 0.50986 0.03765 0.91293 0.0
H2399 H 0.49712 0.96768 0.89447 0.0
H2400 H 0.51133 0.0633 0.88086 0.0
H2401 H 0.54262 0.07153 0.88511 0.0
H2402 H 0.52478 0.07174 0.89972 0.0
H2403 H 0.49375 0.97737 0.85754 0.0
H2404 H 0.50016 0.95948 0.86969 0.0
H2405 H 0.52478 0.98542 0.86262 0.0
C2406 C 0.1191 0.29085 0.49923 0.0
C2407 C 0.13344 0.2824 0.50618 0.0
C2408 C 0.12464 0.301 0.48579 0.0
C2409 C 0.14487 0.30254 0.47902 0.0
C2410 C 0.15939 0.29402 0.48594 0.0
C2411 C 0.15361 0.28422 0.49944 0.0
C2412 C 0.1088 0.31002 0.4788 0.0
C2413 C 0.18106 0.29522 0.47907 0.0
C2414 C 0.14673 0.30751 0.43785 0.0
C2415 C 0.16365 0.33247 0.43743 0.0
C2416 C 0.14035 0.29758 0.45127 0.0
C2417 C 0.15088 0.31298 0.46467 0.0
C2418 C 0.16761 0.33825 0.46435 0.0
C2419 C 0.17388 0.34764 0.45076 0.0
C2420 C 0.12252 0.27052 0.45112 0.0
C2421 C 0.17913 0.35533 0.47838 0.0
H2422 H 0.1033 0.28927 0.5042 0.0
H2423 H 0.16513 0.27822 0.50481 0.0
H2424 H 0.12024 0.3296 0.47711 0.0
H2425 H 0.10024 0.29972 0.46783 0.0
H2426 H 0.09404 0.30799 0.48561 0.0
H2427 H 0.1903 0.28751 0.48575 0.0
H2428 H 0.17498 0.28497 0.46793 0.0
H2429 H 0.19464 0.3145 0.47775 0.0
H2430 H 0.13832 0.29567 0.42764 0.0
H2431 H 0.1872 0.36686 0.45062 0.0
H2432 H 0.10653 0.26762 0.45695 0.0
H2433 H 0.13147 0.26184 0.45707 0.0
H2434 H 0.11577 0.26107 0.43978 0.0
H2435 H 0.16465 0.35423 0.4851 0.0
H2436 H 0.19099 0.37467 0.47624 0.0
H2437 H 0.19038 0.34972 0.48502 0.0
C2438 C 0.67412 0.8462 0.50707 0.0
C2439 C 0.67672 0.82833 0.51395 0.0
C2440 C 0.66732 0.84313 0.49192 0.0
C2441 C 0.66274 0.82154 0.48345 0.0
C2442 C 0.66463 0.8031 0.49036 0.0
C2443 C 0.67168 0.80675 0.50554 0.0
C2444 C 0.66551 0.86321 0.48493 0.0
C2445 C 0.65971 0.77976 0.48166 0.0
C2446 C 0.62686 0.80685 0.44593 0.0
C2447 C 0.64568 0.81545 0.43664 0.0
C2448 C 0.63208 0.80823 0.46117 0.0
C2449 C 0.65673 0.8187 0.46727 0.0
C2450 C 0.6758 0.82729 0.45797 0.0
C2451 C 0.67004 0.82544 0.44276 0.0
C2452 C 0.61127 0.79877 0.47077 0.0
C2453 C 0.70234 0.83869 0.4641 0.0
H2454 H 0.67751 0.8627 0.51356 0.0
H2455 H 0.67386 0.79297 0.51077 0.0
H2456 H 0.67887 0.87042 0.47666 0.0
H2457 H 0.64696 0.85583 0.47906 0.0
H2458 H 0.66917 0.87865 0.49313 0.0
H2459 H 0.66071 0.76669 0.4888 0.0
H2460 H 0.64127 0.77068 0.47538 0.0
H2461 H 0.67329 0.78406 0.47355 0.0
H2462 H 0.60802 0.79936 0.44131 0.0
H2463 H 0.68464 0.8317 0.43564 0.0
H2464 H 0.61322 0.81404 0.47845 0.0
H2465 H 0.61189 0.78515 0.47754 0.0
H2466 H 0.59304 0.7901 0.46423 0.0
H2467 H 0.70761 0.85513 0.47184 0.0
H2468 H 0.71495 0.84416 0.45535 0.0
H2469 H 0.70493 0.82562 0.47041 0.0
C2470 C 0.14505 0.8495 0.49867 0.0
C2471 C 0.12697 0.8293 0.50474 0.0
C2472 C 0.15042 0.84731 0.48421 0.0
C2473 C 0.1376 0.82425 0.47567 0.0
C2474 C 0.11904 0.80382 0.48167 0.0
C2475 C 0.11379 0.80664 0.49613 0.0
C2476 C 0.17006 0.86963 0.47815 0.0
C2477 C 0.1052 0.7789 0.47295 0.0
C2478 C 0.1408 0.82491 0.43439 0.0
C2479 C 0.16045 0.82085 0.43256 0.0
C2480 C 0.13271 0.82542 0.44829 0.0
C2481 C 0.14436 0.82155 0.46066 0.0
C2482 C 0.16366 0.81667 0.45882 0.0
C2483 C 0.17156 0.81652 0.44483 0.0
C2484 C 0.11214 0.8308 0.4498 0.0
C2485 C 0.17645 0.81227 0.47173 0.0
H2486 H 0.15502 0.86711 0.50527 0.0
H2487 H 0.09988 0.791 0.50086 0.0
H2488 H 0.18538 0.8667 0.47556 0.0
H2489 H 0.16256 0.87269 0.46775 0.0
H2490 H 0.17751 0.88644 0.486 0.0
H2491 H 0.09069 0.7651 0.47899 0.0
H2492 H 0.09658 0.77996 0.46233 0.0
H2493 H 0.11813 0.77249 0.47036 0.0
H2494 H 0.13177 0.82781 0.42495 0.0
H2495 H 0.18692 0.81366 0.4436 0.0
H2496 H 0.11915 0.84844 0.45672 0.0
H2497 H 0.09744 0.81642 0.4554 0.0
H2498 H 0.10404 0.83193 0.43898 0.0
H2499 H 0.18642 0.82918 0.47951 0.0
H2500 H 0.18977 0.80683 0.46828 0.0
H2501 H 0.16281 0.79772 0.47778 0.0
C2502 C 0.64949 0.83917 0.17216 0.0
C2503 C 0.66744 0.84321 0.16263 0.0
C2504 C 0.65454 0.84047 0.1874 0.0
C2505 C 0.67802 0.8456 0.19327 0.0
C2506 C 0.69628 0.84978 0.18376 0.0
C2507 C 0.69081 0.84865 0.16855 0.0
C2508 C 0.63463 0.83602 0.1972 0.0
C2509 C 0.7215 0.85519 0.18964 0.0
C2510 C 0.69741 0.8684 0.23383 0.0
C2511 C 0.69209 0.84678 0.23995 0.0
C2512 C 0.693 0.86832 0.21863 0.0
C2513 C 0.68327 0.84612 0.20935 0.0
C2514 C 0.67809 0.82427 0.21546 0.0
C2515 C 0.68244 0.82485 0.23071 0.0
C2516 C 0.69843 0.8919 0.21253 0.0
C2517 C 0.66793 0.8003 0.20589 0.0
H2518 H 0.63125 0.83449 0.16768 0.0
H2519 H 0.70487 0.8521 0.1613 0.0
H2520 H 0.62997 0.8196 0.20297 0.0
H2521 H 0.64122 0.85176 0.20576 0.0
H2522 H 0.61767 0.83323 0.19096 0.0
H2523 H 0.73366 0.85811 0.18078 0.0
H2524 H 0.73025 0.87177 0.19771 0.0
H2525 H 0.71999 0.83979 0.19551 0.0
H2526 H 0.70465 0.88533 0.24099 0.0
H2527 H 0.67858 0.80817 0.23542 0.0
H2528 H 0.68136 0.88988 0.20695 0.0
H2529 H 0.71159 0.89611 0.20416 0.0
H2530 H 0.70622 0.90764 0.22121 0.0
H2531 H 0.64996 0.79534 0.20001 0.0
H2532 H 0.66543 0.78508 0.21233 0.0
H2533 H 0.68043 0.80215 0.19742 0.0
C2534 C 0.22023 0.83633 0.18084 0.0
C2535 C 0.21028 0.84091 0.16817 0.0
C2536 C 0.21345 0.83961 0.19476 0.0
C2537 C 0.19609 0.84738 0.196 0.0
C2538 C 0.18649 0.85267 0.18328 0.0
C2539 C 0.19381 0.84949 0.16951 0.0
C2540 C 0.22438 0.83411 0.20807 0.0
C2541 C 0.16778 0.86079 0.18414 0.0
C2542 C 0.159 0.82871 0.22878 0.0
C2543 C 0.17068 0.85044 0.23834 0.0
C2544 C 0.16685 0.82761 0.21487 0.0
C2545 C 0.18704 0.84869 0.21048 0.0
C2546 C 0.19881 0.87074 0.22005 0.0
C2547 C 0.19041 0.87138 0.23384 0.0
C2548 C 0.15364 0.80382 0.20493 0.0
C2549 C 0.22056 0.89351 0.21583 0.0
H2550 H 0.23315 0.82992 0.17984 0.0
H2551 H 0.18591 0.85281 0.15972 0.0
H2552 H 0.23239 0.84993 0.21669 0.0
H2553 H 0.20978 0.81823 0.21281 0.0
H2554 H 0.23886 0.82987 0.20538 0.0
H2555 H 0.16312 0.86545 0.17338 0.0
H2556 H 0.15074 0.84596 0.18781 0.0
H2557 H 0.17473 0.87699 0.19238 0.0
H2558 H 0.14359 0.81256 0.23216 0.0
H2559 H 0.19966 0.88813 0.24128 0.0
H2560 H 0.16649 0.79715 0.20268 0.0
H2561 H 0.14694 0.80675 0.19421 0.0
H2562 H 0.13778 0.78934 0.2098 0.0
H2563 H 0.23575 0.88992 0.21404 0.0
H2564 H 0.22733 0.90932 0.22438 0.0
H2565 H 0.2156 0.89855 0.20532 0.0
C2566 C 0.21695 0.37562 0.17753 0.0
C2567 C 0.20279 0.38398 0.1703 0.0
C2568 C 0.21148 0.36635 0.19123 0.0
C2569 C 0.19157 0.36573 0.19795 0.0
C2570 C 0.1775 0.37456 0.1908 0.0
C2571 C 0.18318 0.38343 0.17705 0.0
C2572 C 0.22674 0.35684 0.19839 0.0
C2573 C 0.15636 0.37458 0.19766 0.0
C2574 C 0.16104 0.32096 0.22614 0.0
C2575 C 0.17158 0.33598 0.23951 0.0
C2576 C 0.16768 0.33031 0.21258 0.0
C2577 C 0.18508 0.35541 0.21231 0.0
C2578 C 0.19582 0.37069 0.22573 0.0
C2579 C 0.18907 0.36079 0.23914 0.0
C2580 C 0.15589 0.31334 0.19853 0.0
C2581 C 0.21434 0.39758 0.22593 0.0
H2582 H 0.232 0.37584 0.17232 0.0
H2583 H 0.17239 0.39018 0.17161 0.0
H2584 H 0.23483 0.3667 0.20952 0.0
H2585 H 0.21492 0.33717 0.19978 0.0
H2586 H 0.2418 0.35892 0.19185 0.0
H2587 H 0.14768 0.38272 0.19089 0.0
H2588 H 0.14221 0.35557 0.19913 0.0
H2589 H 0.16282 0.38504 0.20874 0.0
H2590 H 0.14726 0.30188 0.22623 0.0
H2591 H 0.19769 0.3725 0.24937 0.0
H2592 H 0.17022 0.31386 0.19188 0.0
H2593 H 0.1452 0.31951 0.19183 0.0
H2594 H 0.14343 0.29411 0.20063 0.0
H2595 H 0.23028 0.39992 0.22025 0.0
H2596 H 0.22106 0.40698 0.23729 0.0
H2597 H 0.20603 0.40673 0.21986 0.0
C2598 C 0.81698 0.61374 0.83127 0.0
C2599 C 0.79721 0.61235 0.83828 0.0
C2600 C 0.82241 0.6233 0.81768 0.0
C2601 C 0.80796 0.63206 0.81095 0.0
C2602 C 0.7881 0.63092 0.81798 0.0
C2603 C 0.78288 0.62097 0.83149 0.0
C2604 C 0.84368 0.62407 0.81053 0.0
C2605 C 0.77235 0.64022 0.81121 0.0
C2606 C 0.8369 0.677 0.78262 0.0
C2607 C 0.82627 0.66185 0.7693 0.0
C2608 C 0.83076 0.66766 0.79622 0.0
C2609 C 0.81375 0.64247 0.79658 0.0
C2610 C 0.80278 0.62711 0.7832 0.0
C2611 C 0.80906 0.63699 0.76975 0.0
C2612 C 0.84273 0.68469 0.81023 0.0
C2613 C 0.78463 0.60014 0.78308 0.0
H2614 H 0.82849 0.60761 0.8365 0.0
H2615 H 0.76737 0.61972 0.83666 0.0
H2616 H 0.83721 0.61385 0.79939 0.0
H2617 H 0.85746 0.64326 0.80918 0.0
H2618 H 0.85282 0.61608 0.81704 0.0
H2619 H 0.75782 0.63837 0.81816 0.0
H2620 H 0.78393 0.65978 0.80951 0.0
H2621 H 0.76352 0.62997 0.80025 0.0
H2622 H 0.85043 0.69614 0.78244 0.0
H2623 H 0.80036 0.62519 0.75956 0.0
H2624 H 0.85395 0.67887 0.81671 0.0
H2625 H 0.82851 0.68381 0.81713 0.0
H2626 H 0.85472 0.70399 0.80807 0.0
H2627 H 0.79352 0.59117 0.78876 0.0
H2628 H 0.77737 0.59077 0.77175 0.0
H2629 H 0.76899 0.5975 0.78919 0.0
C2630 C 0.33478 0.13613 0.8397 0.0
C2631 C 0.34016 0.15785 0.84808 0.0
C2632 C 0.32739 0.13237 0.82454 0.0
C2633 C 0.32554 0.15084 0.81764 0.0
C2634 C 0.33035 0.17251 0.82612 0.0
C2635 C 0.33741 0.17566 0.84123 0.0
C2636 C 0.32213 0.10891 0.81585 0.0
C2637 C 0.32863 0.19267 0.81915 0.0
C2638 C 0.33289 0.15549 0.777 0.0
C2639 C 0.30861 0.14612 0.77093 0.0
C2640 C 0.33859 0.15671 0.79217 0.0
C2641 C 0.31951 0.14809 0.80147 0.0
C2642 C 0.29491 0.13808 0.7954 0.0
C2643 C 0.28976 0.13735 0.78021 0.0
C2644 C 0.36508 0.16765 0.79827 0.0
C2645 C 0.27409 0.12858 0.80498 0.0
H2646 H 0.33701 0.12237 0.84489 0.0
H2647 H 0.341 0.19226 0.8477 0.0
H2648 H 0.30376 0.10008 0.80952 0.0
H2649 H 0.33576 0.11301 0.80779 0.0
H2650 H 0.32282 0.09571 0.82301 0.0
H2651 H 0.33242 0.20814 0.82736 0.0
H2652 H 0.34196 0.19981 0.81086 0.0
H2653 H 0.31008 0.18539 0.81331 0.0
H2654 H 0.3475 0.16183 0.76989 0.0
H2655 H 0.27098 0.13032 0.77564 0.0
H2656 H 0.36739 0.15441 0.80456 0.0
H2657 H 0.37064 0.18417 0.80601 0.0
H2658 H 0.37766 0.17291 0.7895 0.0
H2659 H 0.27474 0.115 0.81179 0.0
H2660 H 0.25587 0.11986 0.79844 0.0
H2661 H 0.27598 0.14385 0.81264 0.0
C2662 C 0.78852 0.16763 0.82967 0.0
C2663 C 0.80091 0.16331 0.84127 0.0
C2664 C 0.7938 0.16598 0.8151 0.0
C2665 C 0.81209 0.16011 0.81206 0.0
C2666 C 0.82427 0.1552 0.82366 0.0
C2667 C 0.81842 0.15669 0.83809 0.0
C2668 C 0.78024 0.17111 0.803 0.0
C2669 C 0.84392 0.14892 0.82088 0.0
C2670 C 0.81531 0.13812 0.77309 0.0
C2671 C 0.83388 0.15965 0.76837 0.0
C2672 C 0.80771 0.13806 0.7872 0.0
C2673 C 0.81918 0.16 0.79686 0.0
C2674 C 0.83789 0.18181 0.79212 0.0
C2675 C 0.84491 0.1814 0.7779 0.0
C2676 C 0.78746 0.11453 0.79178 0.0
C2677 C 0.85076 0.20552 0.80215 0.0
H2678 H 0.77517 0.17303 0.83201 0.0
H2679 H 0.82775 0.15284 0.84692 0.0
H2680 H 0.79325 0.18784 0.79816 0.0
H2681 H 0.77209 0.1558 0.79404 0.0
H2682 H 0.76541 0.17378 0.80702 0.0
H2683 H 0.85127 0.14507 0.83105 0.0
H2684 H 0.83652 0.13268 0.81262 0.0
H2685 H 0.85931 0.16434 0.81629 0.0
H2686 H 0.80653 0.12135 0.76567 0.0
H2687 H 0.8594 0.19803 0.77431 0.0
H2688 H 0.77231 0.11721 0.79515 0.0
H2689 H 0.79443 0.10922 0.80144 0.0
H2690 H 0.77995 0.09922 0.78282 0.0
H2691 H 0.83721 0.21046 0.80579 0.0
H2692 H 0.86476 0.22091 0.79673 0.0
H2693 H 0.85989 0.20324 0.81216 0.0
C2694 C 0.31413 0.17638 0.50661 0.0
C2695 C 0.33215 0.18022 0.49717 0.0
C2696 C 0.31893 0.17741 0.52186 0.0
C2697 C 0.34221 0.1821 0.52781 0.0
C2698 C 0.36056 0.18619 0.5184 0.0
C2699 C 0.35535 0.18531 0.50319 0.0
C2700 C 0.29893 0.17307 0.53157 0.0
C2701 C 0.38558 0.19115 0.52437 0.0
C2702 C 0.36131 0.20393 0.5685 0.0
C2703 C 0.35566 0.18207 0.57442 0.0
C2704 C 0.35705 0.20423 0.55333 0.0
C2705 C 0.34713 0.18218 0.54388 0.0
C2706 C 0.34156 0.16009 0.54979 0.0
C2707 C 0.34578 0.16028 0.56502 0.0
C2708 C 0.36292 0.22807 0.54743 0.0
C2709 C 0.33117 0.13625 0.54004 0.0
H2710 H 0.29602 0.17199 0.50206 0.0
H2711 H 0.36946 0.18862 0.496 0.0
H2712 H 0.29384 0.15642 0.53716 0.0
H2713 H 0.30562 0.18865 0.54026 0.0
H2714 H 0.2822 0.17074 0.52527 0.0
H2715 H 0.39789 0.19418 0.51559 0.0
H2716 H 0.39436 0.20753 0.5326 0.0
H2717 H 0.38372 0.17547 0.53008 0.0
H2718 H 0.36872 0.22075 0.57578 0.0
H2719 H 0.34166 0.14342 0.56957 0.0
H2720 H 0.34605 0.2264 0.54179 0.0
H2721 H 0.37623 0.23235 0.53915 0.0
H2722 H 0.37071 0.24363 0.55624 0.0
H2723 H 0.31339 0.13173 0.53408 0.0
H2724 H 0.32823 0.12078 0.54635 0.0
H2725 H 0.34377 0.13807 0.53164 0.0
C2726 C 0.88853 0.19074 0.50995 0.0
C2727 C 0.87711 0.16706 0.50248 0.0
C2728 C 0.88233 0.195 0.5239 0.0
C2729 C 0.86448 0.17508 0.53061 0.0
C2730 C 0.85295 0.15117 0.52316 0.0
C2731 C 0.85925 0.1475 0.50918 0.0
C2732 C 0.89486 0.22079 0.53146 0.0
C2733 C 0.8339 0.12941 0.52995 0.0
C2734 C 0.86235 0.17914 0.57201 0.0
C2735 C 0.8419 0.18205 0.57334 0.0
C2736 C 0.87029 0.17747 0.55821 0.0
C2737 C 0.85768 0.17904 0.54541 0.0
C2738 C 0.83757 0.18283 0.54671 0.0
C2739 C 0.82984 0.18415 0.56063 0.0
C2740 C 0.89175 0.17333 0.5573 0.0
C2741 C 0.82377 0.18481 0.53333 0.0
H2742 H 0.9025 0.20596 0.50496 0.0
H2743 H 0.84986 0.12921 0.5034 0.0
H2744 H 0.88097 0.22597 0.53394 0.0
H2745 H 0.90486 0.22188 0.5421 0.0
H2746 H 0.90803 0.23433 0.52467 0.0
H2747 H 0.82702 0.11193 0.52284 0.0
H2748 H 0.84175 0.12794 0.54074 0.0
H2749 H 0.81811 0.13189 0.53199 0.0
H2750 H 0.87213 0.17801 0.58177 0.0
H2751 H 0.8139 0.18616 0.56149 0.0
H2752 H 0.90588 0.18744 0.55126 0.0
H2753 H 0.88552 0.15527 0.55107 0.0
H2754 H 0.90036 0.17378 0.56834 0.0
H2755 H 0.83671 0.19882 0.52669 0.0
H2756 H 0.80985 0.18971 0.5363 0.0
H2757 H 0.81434 0.16709 0.52625 0.0
C2758 C 0.84962 0.71441 0.50976 0.0
C2759 C 0.86941 0.71534 0.50305 0.0
C2760 C 0.84386 0.70526 0.52343 0.0
C2761 C 0.85806 0.69652 0.53054 0.0
C2762 C 0.87815 0.69752 0.52385 0.0
C2763 C 0.88368 0.70706 0.51024 0.0
C2764 C 0.82252 0.70487 0.53026 0.0
C2765 C 0.89356 0.68813 0.53097 0.0
C2766 C 0.85539 0.69088 0.57166 0.0
C2767 C 0.83813 0.66596 0.57189 0.0
C2768 C 0.86209 0.70105 0.55832 0.0
C2769 C 0.85154 0.68594 0.54482 0.0
C2770 C 0.83436 0.66074 0.54496 0.0
C2771 C 0.82776 0.65112 0.55845 0.0
C2772 C 0.88037 0.72803 0.55866 0.0
C2773 C 0.82278 0.64395 0.53083 0.0
H2774 H 0.83873 0.72109 0.50434 0.0
H2775 H 0.89888 0.70755 0.50505 0.0
H2776 H 0.80849 0.68576 0.53161 0.0
H2777 H 0.82879 0.71518 0.54138 0.0
H2778 H 0.81373 0.71295 0.52353 0.0
H2779 H 0.90874 0.69049 0.52446 0.0
H2780 H 0.9015 0.69786 0.54214 0.0
H2781 H 0.88188 0.6684 0.53225 0.0
H2782 H 0.86389 0.70247 0.58194 0.0
H2783 H 0.81417 0.63195 0.55844 0.0
H2784 H 0.87193 0.73709 0.55262 0.0
H2785 H 0.89645 0.73069 0.55302 0.0
H2786 H 0.88691 0.7373 0.57006 0.0
H2787 H 0.81202 0.65007 0.52416 0.0
H2788 H 0.81045 0.62463 0.53281 0.0
H2789 H 0.83724 0.64474 0.52419 0.0
loop_
_geom_bond_atom_site_label_1
_geom_bond_atom_site_label_2
_geom_bond_distance
_geom_bond_site_symmetry_2
_ccdc_geom_bond_type
C0 C1 1.386 . S
C0 C2 1.397 . S
C0 H24 0.931 . S
C1 C0 1.386 . S
C1 C5 1.397 . S
C2 C0 1.397 . S
C2 C3 1.384 . S
C2 H25 0.930 . S
C3 C2 1.384 . S
C3 C4 1.377 . S
C3 C6 1.481 . S
C4 C3 1.377 . S
C4 C5 1.389 . S
C4 H26 0.929 . S
C5 C1 1.397 . S
C5 C4 1.389 . S
C5 H27 0.931 . S
C6 C3 1.481 . S
C6 C7 1.387 . S
C6 C11 1.390 . S
C7 C6 1.387 . S
C7 C8 1.401 . S
C7 H28 0.930 . S
C8 C7 1.401 . S
C8 C9 1.376 . S
C8 C17 1.511 . S
C9 C8 1.376 . S
C9 C10 1.392 . S
C9 H30 0.931 . S
C10 C9 1.392 . S
C10 C11 1.361 . S
C10 C12 1.500 . S
C11 C6 1.390 . S
C11 C10 1.361 . S
C11 H29 0.931 . S
C12 C10 1.500 . S
C12 C13 1.371 . S
C12 C14 1.365 . S
C13 C12 1.371 . S
C13 C23 1.386 . S
C13 H31 0.931 . S
C14 C12 1.365 . S
C14 C15 1.409 . S
C14 H32 0.929 . S
C15 C14 1.409 . S
C15 C16 1.380 . S
C15 H33 0.930 . S
C16 C15 1.380 . S
C16 C23 1.357 . S
C17 C8 1.511 . S
C17 C18 1.341 . S
C17 C19 1.371 . S
C18 C17 1.341 . S
C18 C22 1.394 . S
C18 H34 0.930 . S
C19 C17 1.371 . S
C19 C20 1.392 . S
C19 H35 0.931 . S
C20 C19 1.392 . S
C20 C21 1.331 . S
C20 H38 0.932 . S
C21 C20 1.331 . S
C21 C22 1.336 . S
C22 C18 1.394 . S
C22 C21 1.336 . S
C22 H37 0.929 . S
C23 C13 1.386 . S
C23 C16 1.357 . S
C23 H36 0.928 . S
H24 C0 0.931 . S
H25 C2 0.930 . S
H26 C4 0.929 . S
H27 C5 0.931 . S
H28 C7 0.930 . S
H29 C11 0.931 . S
H30 C9 0.931 . S
H31 C13 0.931 . S
H32 C14 0.929 . S
H33 C15 0.930 . S
H34 C18 0.930 . S
H35 C19 0.931 . S
H36 C23 0.928 . S
H37 C22 0.929 . S
H38 C20 0.932 . S
C39 C40 1.386 . S
C39 C41 1.397 . S
C39 H63 0.931 . S
C40 C39 1.386 . S
C40 C44 1.397 . S
C41 C39 1.397 . S
C41 C42 1.384 . S
C41 H64 0.930 . S
C42 C41 1.384 . S
C42 C43 1.377 . S
C42 C45 1.481 . S
C43 C42 1.377 . S
C43 C44 1.389 . S
C43 H65 0.929 . S
C44 C40 1.397 . S
C44 C43 1.389 . S
C44 H66 0.931 . S
C45 C42 1.481 . S
C45 C46 1.387 . S
C45 C50 1.390 . S
C46 C45 1.387 . S
C46 C47 1.401 . S
C46 H67 0.930 . S
C47 C46 1.401 . S
C47 C48 1.376 . S
C47 C56 1.511 . S
C48 C47 1.376 . S
C48 C49 1.392 . S
C48 H69 0.931 . S
C49 C48 1.392 . S
C49 C50 1.361 . S
C49 C51 1.500 . S
C50 C45 1.390 . S
C50 C49 1.361 . S
C50 H68 0.931 . S
C51 C49 1.500 . S
C51 C52 1.371 . S
C51 C53 1.365 . S
C52 C51 1.371 . S
C52 C62 1.386 . S
C52 H70 0.931 . S
C53 C51 1.365 . S
C53 C54 1.409 . S
C53 H71 0.929 . S
C54 C53 1.409 . S
C54 C55 1.380 . S
C54 H72 0.930 . S
C55 C54 1.380 . S
C55 C62 1.357 . S
C56 C47 1.511 . S
C56 C57 1.341 . S
C56 C58 1.371 . S
C57 C56 1.341 . S
C57 C61 1.394 . S
C57 H73 0.930 . S
C58 C56 1.371 . S
C58 C59 1.392 . S
C58 H74 0.931 . S
C59 C58 1.392 . S
C59 C60 1.331 . S
C59 H77 0.932 . S
C60 C59 1.331 . S
C60 C61 1.336 . S
C61 C57 1.394 . S
C61 C60 1.336 . S
C61 H76 0.929 . S
C62 C52 1.386 . S
C62 C55 1.357 . S
C62 H75 0.928 . S
H63 C39 0.931 . S
H64 C41 0.930 . S
H65 C43 0.929 . S
H66 C44 0.931 . S
H67 C46 0.930 . S
H68 C50 0.931 . S
H69 C48 0.931 . S
H70 C52 0.931 . S
H71 C53 0.929 . S
H72 C54 0.930 . S
H73 C57 0.930 . S
H74 C58 0.931 . S
H75 C62 0.928 . S
H76 C61 0.929 . S
H77 C59 0.932 . S
C78 C79 1.386 . S
C78 C80 1.397 . S
C78 H102 0.931 . S
C79 C78 1.386 . S
C79 C83 1.397 . S
C80 C78 1.397 . S
C80 C81 1.384 . S
C80 H103 0.930 . S
C81 C80 1.384 . S
C81 C82 1.377 . S
C81 C84 1.481 . S
C82 C81 1.377 . S
C82 C83 1.389 . S
C82 H104 0.929 . S
C83 C79 1.397 . S
C83 C82 1.389 . S
C83 H105 0.931 . S
C84 C81 1.481 . S
C84 C85 1.387 . S
C84 C89 1.390 . S
C85 C84 1.387 . S
C85 C86 1.401 . S
C85 H106 0.930 . S
C86 C85 1.401 . S
C86 C87 1.376 . S
C86 C95 1.511 . S
C87 C86 1.376 . S
C87 C88 1.392 . S
C87 H108 0.931 . S
C88 C87 1.392 . S
C88 C89 1.361 . S
C88 C90 1.500 . S
C89 C84 1.390 . S
C89 C88 1.361 . S
C89 H107 0.931 . S
C90 C88 1.500 . S
C90 C91 1.371 . S
C90 C92 1.365 . S
C91 C90 1.371 . S
C91 C101 1.386 . S
C91 H109 0.931 . S
C92 C90 1.365 . S
C92 C93 1.409 . S
C92 H110 0.929 . S
C93 C92 1.409 . S
C93 C94 1.380 . S
C93 H111 0.930 . S
C94 C93 1.380 . S
C94 C101 1.357 . S
C95 C86 1.511 . S
C95 C96 1.341 . S
C95 C97 1.371 . S
C96 C95 1.341 . S
C96 C100 1.394 . S
C96 H112 0.930 . S
C97 C95 1.371 . S
C97 C98 1.392 . S
C97 H113 0.931 . S
C98 C97 1.392 . S
C98 C99 1.331 . S
C98 H116 0.932 . S
C99 C98 1.331 . S
C99 C100 1.336 . S
C100 C96 1.394 . S
C100 C99 1.336 . S
C100 H115 0.929 . S
C101 C91 1.386 . S
C101 C94 1.357 . S
C101 H114 0.928 . S
H102 C78 0.931 . S
H103 C80 0.930 . S
H104 C82 0.929 . S
H105 C83 0.931 . S
H106 C85 0.930 . S
H107 C89 0.931 . S
H108 C87 0.931 . S
H109 C91 0.931 . S
H110 C92 0.929 . S
H111 C93 0.930 . S
H112 C96 0.930 . S
H113 C97 0.931 . S
H114 C101 0.928 . S
H115 C100 0.929 . S
H116 C98 0.932 . S
C117 C118 1.386 . S
C117 C119 1.397 . S
C117 H141 0.931 . S
C118 C117 1.386 . S
C118 C122 1.397 . S
C119 C117 1.397 . S
C119 C120 1.384 . S
C119 H142 0.930 . S
C120 C119 1.384 . S
C120 C121 1.377 . S
C120 C123 1.481 . S
C121 C120 1.377 . S
C121 C122 1.389 . S
C121 H143 0.929 . S
C122 C118 1.397 . S
C122 C121 1.389 . S
C122 H144 0.931 . S
C123 C120 1.481 . S
C123 C124 1.387 . S
C123 C128 1.390 . S
C124 C123 1.387 . S
C124 C125 1.401 . S
C124 H145 0.930 . S
C125 C124 1.401 . S
C125 C126 1.376 . S
C125 C134 1.511 . S
C126 C125 1.376 . S
C126 C127 1.392 . S
C126 H147 0.931 . S
C127 C126 1.392 . S
C127 C128 1.361 . S
C127 C129 1.500 . S
C128 C123 1.390 . S
C128 C127 1.361 . S
C128 H146 0.931 . S
C129 C127 1.500 . S
C129 C130 1.371 . S
C129 C131 1.365 . S
C130 C129 1.371 . S
C130 C140 1.386 . S
C130 H148 0.931 . S
C131 C129 1.365 . S
C131 C132 1.409 . S
C131 H149 0.929 . S
C132 C131 1.409 . S
C132 C133 1.380 . S
C132 H150 0.930 . S
C133 C132 1.380 . S
C133 C140 1.357 . S
C134 C125 1.511 . S
C134 C135 1.341 . S
C134 C136 1.371 . S
C135 C134 1.341 . S
C135 C139 1.394 . S
C135 H151 0.930 . S
C136 C134 1.371 . S
C136 C137 1.392 . S
C136 H152 0.931 . S
C137 C136 1.392 . S
C137 C138 1.331 . S
C137 H155 0.932 . S
C138 C137 1.331 . S
C138 C139 1.336 . S
C139 C135 1.394 . S
C139 C138 1.336 . S
C139 H154 0.929 . S
C140 C130 1.386 . S
C140 C133 1.357 . S
C140 H153 0.928 . S
H141 C117 0.931 . S
H142 C119 0.930 . S
H143 C121 0.929 . S
H144 C122 0.931 . S
H145 C124 0.930 . S
H146 C128 0.931 . S
H147 C126 0.931 . S
H148 C130 0.931 . S
H149 C131 0.929 . S
H150 C132 0.930 . S
H151 C135 0.930 . S
H152 C136 0.931 . S
H153 C140 0.928 . S
H154 C139 0.929 . S
H155 C137 0.932 . S
C156 C157 1.386 . S
C156 C158 1.397 . S
C156 H180 0.931 . S
C157 C156 1.386 . S
C157 C161 1.397 . S
C158 C156 1.397 . S
C158 C159 1.384 . S
C158 H181 0.930 . S
C159 C158 1.384 . S
C159 C160 1.377 . S
C159 C162 1.481 . S
C160 C159 1.377 . S
C160 C161 1.389 . S
C160 H182 0.929 . S
C161 C157 1.397 . S
C161 C160 1.389 . S
C161 H183 0.931 . S
C162 C159 1.481 . S
C162 C163 1.387 . S
C162 C167 1.390 . S
C163 C162 1.387 . S
C163 C164 1.401 . S
C163 H184 0.930 . S
C164 C163 1.401 . S
C164 C165 1.376 . S
C164 C173 1.511 . S
C165 C164 1.376 . S
C165 C166 1.392 . S
C165 H186 0.931 . S
C166 C165 1.392 . S
C166 C167 1.361 . S
C166 C168 1.500 . S
C167 C162 1.390 . S
C167 C166 1.361 . S
C167 H185 0.931 . S
C168 C166 1.500 . S
C168 C169 1.371 . S
C168 C170 1.365 . S
C169 C168 1.371 . S
C169 C179 1.386 . S
C169 H187 0.931 . S
C170 C168 1.365 . S
C170 C171 1.409 . S
C170 H188 0.929 . S
C171 C170 1.409 . S
C171 C172 1.380 . S
C171 H189 0.930 . S
C172 C171 1.380 . S
C172 C179 1.357 . S
C173 C164 1.511 . S
C173 C174 1.341 . S
C173 C175 1.371 . S
C174 C173 1.341 . S
C174 C178 1.394 . S
C174 H190 0.930 . S
C175 C173 1.371 . S
C175 C176 1.392 . S
C175 H191 0.931 . S
C176 C175 1.392 . S
C176 C177 1.331 . S
C176 H194 0.932 . S
C177 C176 1.331 . S
C177 C178 1.336 . S
C178 C174 1.394 . S
C178 C177 1.336 . S
C178 H193 0.929 . S
C179 C169 1.386 . S
C179 C172 1.357 . S
C179 H192 0.928 . S
H180 C156 0.931 . S
H181 C158 0.930 . S
H182 C160 0.929 . S
H183 C161 0.931 . S
H184 C163 0.930 . S
H185 C167 0.931 . S
H186 C165 0.931 . S
H187 C169 0.931 . S
H188 C170 0.929 . S
H189 C171 0.930 . S
H190 C174 0.930 . S
H191 C175 0.931 . S
H192 C179 0.928 . S
H193 C178 0.929 . S
H194 C176 0.932 . S
C195 C196 1.386 . S
C195 C197 1.397 . S
C195 H219 0.931 . S
C196 C195 1.386 . S
C196 C200 1.397 . S
C197 C195 1.397 . S
C197 C198 1.384 . S
C197 H220 0.930 . S
C198 C197 1.384 . S
C198 C199 1.377 . S
C198 C201 1.481 . S
C199 C198 1.377 . S
C199 C200 1.389 . S
C199 H221 0.929 . S
C200 C196 1.397 . S
C200 C199 1.389 . S
C200 H222 0.931 . S
C201 C198 1.481 . S
C201 C202 1.387 . S
C201 C206 1.390 . S
C202 C201 1.387 . S
C202 C203 1.401 . S
C202 H223 0.930 . S
C203 C202 1.401 . S
C203 C204 1.376 . S
C203 C212 1.511 . S
C204 C203 1.376 . S
C204 C205 1.392 . S
C204 H225 0.931 . S
C205 C204 1.392 . S
C205 C206 1.361 . S
C205 C207 1.500 . S
C206 C201 1.390 . S
C206 C205 1.361 . S
C206 H224 0.931 . S
C207 C205 1.500 . S
C207 C208 1.371 . S
C207 C209 1.365 . S
C208 C207 1.371 . S
C208 C218 1.386 . S
C208 H226 0.931 . S
C209 C207 1.365 . S
C209 C210 1.409 . S
C209 H227 0.929 . S
C210 C209 1.409 . S
C210 C211 1.380 . S
C210 H228 0.930 . S
C211 C210 1.380 . S
C211 C218 1.357 . S
C212 C203 1.511 . S
C212 C213 1.341 . S
C212 C214 1.371 . S
C213 C212 1.341 . S
C213 C217 1.394 . S
C213 H229 0.930 . S
C214 C212 1.371 . S
C214 C215 1.392 . S
C214 H230 0.931 . S
C215 C214 1.392 . S
C215 C216 1.331 . S
C215 H233 0.932 . S
C216 C215 1.331 . S
C216 C217 1.336 . S
C217 C213 1.394 . S
C217 C216 1.336 . S
C217 H232 0.929 . S
C218 C208 1.386 . S
C218 C211 1.357 . S
C218 H231 0.928 . S
H219 C195 0.931 . S
H220 C197 0.930 . S
H221 C199 0.929 . S
H222 C200 0.931 . S
H223 C202 0.930 . S
H224 C206 0.931 . S
H225 C204 0.931 . S
H226 C208 0.931 . S
H227 C209 0.929 . S
H228 C210 0.930 . S
H229 C213 0.930 . S
H230 C214 0.931 . S
H231 C218 0.928 . S
H232 C217 0.929 . S
H233 C215 0.932 . S
C234 C235 1.386 . S
C234 C236 1.397 . S
C234 H258 0.931 . S
C235 C234 1.386 . S
C235 C239 1.397 1_655 S
C236 C234 1.397 . S
C236 C237 1.384 . S
C236 H259 0.930 . S
C237 C236 1.384 . S
C237 C238 1.377 . S
C237 C240 1.481 . S
C238 C237 1.377 . S
C238 C239 1.389 1_655 S
C238 H260 0.929 1_655 S
C239 C235 1.397 1_455 S
C239 C238 1.389 1_455 S
C239 H261 0.931 . S
C240 C237 1.481 . S
C240 C241 1.387 . S
C240 C245 1.390 . S
C241 C240 1.387 . S
C241 C242 1.401 . S
C241 H262 0.930 . S
C242 C241 1.401 . S
C242 C243 1.376 . S
C242 C251 1.511 . S
C243 C242 1.376 . S
C243 C244 1.392 . S
C243 H264 0.931 . S
C244 C243 1.392 . S
C244 C245 1.361 . S
C244 C246 1.500 . S
C245 C240 1.390 . S
C245 C244 1.361 . S
C245 H263 0.931 . S
C246 C244 1.500 . S
C246 C247 1.371 . S
C246 C248 1.365 . S
C247 C246 1.371 . S
C247 C257 1.386 . S
C247 H265 0.931 . S
C248 C246 1.365 . S
C248 C249 1.409 . S
C248 H266 0.929 . S
C249 C248 1.409 . S
C249 C250 1.380 . S
C249 H267 0.930 . S
C250 C249 1.380 . S
C250 C257 1.357 . S
C251 C242 1.511 . S
C251 C252 1.341 . S
C251 C253 1.371 . S
C252 C251 1.341 . S
C252 C256 1.394 . S
C252 H268 0.930 . S
C253 C251 1.371 . S
C253 C254 1.392 . S
C253 H269 0.931 . S
C254 C253 1.392 . S
C254 C255 1.331 . S
C254 H272 0.932 . S
C255 C254 1.331 . S
C255 C256 1.336 . S
C256 C252 1.394 . S
C256 C255 1.336 . S
C256 H271 0.929 . S
C257 C247 1.386 . S
C257 C250 1.357 . S
C257 H270 0.928 . S
H258 C234 0.931 . S
H259 C236 0.930 . S
H260 C238 0.929 1_455 S
H261 C239 0.931 . S
H262 C241 0.930 . S
H263 C245 0.931 . S
H264 C243 0.931 . S
H265 C247 0.931 . S
H266 C248 0.929 . S
H267 C249 0.930 . S
H268 C252 0.930 . S
H269 C253 0.931 . S
H270 C257 0.928 . S
H271 C256 0.929 . S
H272 C254 0.932 . S
C273 C274 1.386 . S
C273 C275 1.397 . S
C273 H297 0.931 . S
C274 C273 1.386 . S
C274 C278 1.397 . S
C275 C273 1.397 . S
C275 C276 1.384 . S
C275 H298 0.930 . S
C276 C275 1.384 . S
C276 C277 1.377 . S
C276 C279 1.481 . S
C277 C276 1.377 . S
C277 C278 1.389 . S
C277 H299 0.929 . S
C278 C274 1.397 . S
C278 C277 1.389 . S
C278 H300 0.931 . S
C279 C276 1.481 . S
C279 C280 1.387 . S
C279 C284 1.390 . S
C280 C279 1.387 . S
C280 C281 1.401 . S
C280 H301 0.930 . S
C281 C280 1.401 . S
C281 C282 1.376 . S
C281 C290 1.511 . S
C282 C281 1.376 . S
C282 C283 1.392 . S
C282 H303 0.931 . S
C283 C282 1.392 . S
C283 C284 1.361 . S
C283 C285 1.500 . S
C284 C279 1.390 . S
C284 C283 1.361 . S
C284 H302 0.931 . S
C285 C283 1.500 . S
C285 C286 1.371 . S
C285 C287 1.365 . S
C286 C285 1.371 . S
C286 C296 1.386 . S
C286 H304 0.931 . S
C287 C285 1.365 . S
C287 C288 1.409 . S
C287 H305 0.929 . S
C288 C287 1.409 . S
C288 C289 1.380 . S
C288 H306 0.930 . S
C289 C288 1.380 . S
C289 C296 1.357 . S
C290 C281 1.511 . S
C290 C291 1.341 . S
C290 C292 1.371 . S
C291 C290 1.341 . S
C291 C295 1.394 . S
C291 H307 0.930 . S
C292 C290 1.371 . S
C292 C293 1.392 . S
C292 H308 0.931 . S
C293 C292 1.392 . S
C293 C294 1.331 . S
C293 H311 0.932 . S
C294 C293 1.331 . S
C294 C295 1.336 . S
C295 C291 1.394 . S
C295 C294 1.336 . S
C295 H310 0.929 . S
C296 C286 1.386 . S
C296 C289 1.357 . S
C296 H309 0.928 . S
H297 C273 0.931 . S
H298 C275 0.930 . S
H299 C277 0.929 . S
H300 C278 0.931 . S
H301 C280 0.930 . S
H302 C284 0.931 . S
H303 C282 0.931 . S
H304 C286 0.931 . S
H305 C287 0.929 . S
H306 C288 0.930 . S
H307 C291 0.930 . S
H308 C292 0.931 . S
H309 C296 0.928 . S
H310 C295 0.929 . S
H311 C293 0.932 . S
C312 C313 1.386 . S
C312 C314 1.397 . S
C312 H336 0.931 . S
C313 C312 1.386 . S
C313 C317 1.397 . S
C314 C312 1.397 . S
C314 C315 1.384 . S
C314 H337 0.930 . S
C315 C314 1.384 . S
C315 C316 1.377 . S
C315 C318 1.481 . S
C316 C315 1.377 . S
C316 C317 1.389 . S
C316 H338 0.929 . S
C317 C313 1.397 . S
C317 C316 1.389 . S
C317 H339 0.931 . S
C318 C315 1.481 . S
C318 C319 1.387 . S
C318 C323 1.390 . S
C319 C318 1.387 . S
C319 C320 1.401 . S
C319 H340 0.930 . S
C320 C319 1.401 . S
C320 C321 1.376 . S
C320 C329 1.511 . S
C321 C320 1.376 . S
C321 C322 1.392 . S
C321 H342 0.931 . S
C322 C321 1.392 . S
C322 C323 1.361 . S
C322 C324 1.500 . S
C323 C318 1.390 . S
C323 C322 1.361 . S
C323 H341 0.931 . S
C324 C322 1.500 . S
C324 C325 1.371 . S
C324 C326 1.365 . S
C325 C324 1.371 . S
C325 C335 1.386 . S
C325 H343 0.931 . S
C326 C324 1.365 . S
C326 C327 1.409 . S
C326 H344 0.929 . S
C327 C326 1.409 . S
C327 C328 1.380 . S
C327 H345 0.930 . S
C328 C327 1.380 . S
C328 C335 1.357 . S
C329 C320 1.511 . S
C329 C330 1.341 . S
C329 C331 1.371 . S
C330 C329 1.341 . S
C330 C334 1.394 . S
C330 H346 0.930 . S
C331 C329 1.371 . S
C331 C332 1.392 . S
C331 H347 0.931 . S
C332 C331 1.392 . S
C332 C333 1.331 . S
C332 H350 0.932 . S
C333 C332 1.331 . S
C333 C334 1.336 . S
C334 C330 1.394 . S
C334 C333 1.336 . S
C334 H349 0.929 . S
C335 C325 1.386 . S
C335 C328 1.357 . S
C335 H348 0.928 . S
H336 C312 0.931 . S
H337 C314 0.930 . S
H338 C316 0.929 . S
H339 C317 0.931 . S
H340 C319 0.930 . S
H341 C323 0.931 . S
H342 C321 0.931 . S
H343 C325 0.931 . S
H344 C326 0.929 . S
H345 C327 0.930 . S
H346 C330 0.930 . S
H347 C331 0.931 . S
H348 C335 0.928 . S
H349 C334 0.929 . S
H350 C332 0.932 . S
C351 C352 1.386 . S
C351 C353 1.397 . S
C351 H375 0.931 . S
C352 C351 1.386 . S
C352 C356 1.397 . S
C353 C351 1.397 . S
C353 C354 1.384 . S
C353 H376 0.930 . S
C354 C353 1.384 . S
C354 C355 1.377 . S
C354 C357 1.481 . S
C355 C354 1.377 . S
C355 C356 1.389 . S
C355 H377 0.929 . S
C356 C352 1.397 . S
C356 C355 1.389 . S
C356 H378 0.931 . S
C357 C354 1.481 . S
C357 C358 1.387 . S
C357 C362 1.390 . S
C358 C357 1.387 . S
C358 C359 1.401 . S
C358 H379 0.930 . S
C359 C358 1.401 . S
C359 C360 1.376 . S
C359 C368 1.511 . S
C360 C359 1.376 . S
C360 C361 1.392 . S
C360 H381 0.931 . S
C361 C360 1.392 . S
C361 C362 1.361 . S
C361 C363 1.500 . S
C362 C357 1.390 . S
C362 C361 1.361 . S
C362 H380 0.931 . S
C363 C361 1.500 . S
C363 C364 1.371 . S
C363 C365 1.365 . S
C364 C363 1.371 . S
C364 C374 1.386 . S
C364 H382 0.931 . S
C365 C363 1.365 . S
C365 C366 1.409 . S
C365 H383 0.929 . S
C366 C365 1.409 . S
C366 C367 1.380 . S
C366 H384 0.930 . S
C367 C366 1.380 . S
C367 C374 1.357 . S
C368 C359 1.511 . S
C368 C369 1.341 . S
C368 C370 1.371 . S
C369 C368 1.341 . S
C369 C373 1.394 . S
C369 H385 0.930 . S
C370 C368 1.371 . S
C370 C371 1.392 . S
C370 H386 0.931 . S
C371 C370 1.392 . S
C371 C372 1.331 . S
C371 H389 0.932 . S
C372 C371 1.331 . S
C372 C373 1.336 . S
C373 C369 1.394 . S
C373 C372 1.336 . S
C373 H388 0.929 . S
C374 C364 1.386 . S
C374 C367 1.357 . S
C374 H387 0.928 . S
H375 C351 0.931 . S
H376 C353 0.930 . S
H377 C355 0.929 . S
H378 C356 0.931 . S
H379 C358 0.930 . S
H380 C362 0.931 . S
H381 C360 0.931 . S
H382 C364 0.931 . S
H383 C365 0.929 . S
H384 C366 0.930 . S
H385 C369 0.930 . S
H386 C370 0.931 . S
H387 C374 0.928 . S
H388 C373 0.929 . S
H389 C371 0.932 . S
C390 C391 1.386 . S
C390 C392 1.397 . S
C390 H414 0.931 . S
C391 C390 1.386 . S
C391 C395 1.397 . S
C392 C390 1.397 . S
C392 C393 1.384 . S
C392 H415 0.930 . S
C393 C392 1.384 . S
C393 C394 1.377 . S
C393 C396 1.481 . S
C394 C393 1.377 . S
C394 C395 1.389 . S
C394 H416 0.929 . S
C395 C391 1.397 . S
C395 C394 1.389 . S
C395 H417 0.931 . S
C396 C393 1.481 . S
C396 C397 1.387 . S
C396 C401 1.390 . S
C397 C396 1.387 . S
C397 C398 1.401 . S
C397 H418 0.930 . S
C398 C397 1.401 . S
C398 C399 1.376 . S
C398 C407 1.511 . S
C399 C398 1.376 . S
C399 C400 1.392 . S
C399 H420 0.931 . S
C400 C399 1.392 . S
C400 C401 1.361 . S
C400 C402 1.500 . S
C401 C396 1.390 . S
C401 C400 1.361 . S
C401 H419 0.931 . S
C402 C400 1.500 . S
C402 C403 1.371 . S
C402 C404 1.365 . S
C403 C402 1.371 . S
C403 C413 1.386 . S
C403 H421 0.931 . S
C404 C402 1.365 . S
C404 C405 1.409 . S
C404 H422 0.929 . S
C405 C404 1.409 . S
C405 C406 1.380 . S
C405 H423 0.930 . S
C406 C405 1.380 . S
C406 C413 1.357 . S
C407 C398 1.511 . S
C407 C408 1.341 . S
C407 C409 1.371 . S
C408 C407 1.341 . S
C408 C412 1.394 . S
C408 H424 0.930 . S
C409 C407 1.371 . S
C409 C410 1.392 . S
C409 H425 0.931 . S
C410 C409 1.392 . S
C410 C411 1.331 . S
C410 H428 0.932 . S
C411 C410 1.331 . S
C411 C412 1.336 . S
C412 C408 1.394 . S
C412 C411 1.336 . S
C412 H427 0.929 . S
C413 C403 1.386 . S
C413 C406 1.357 . S
C413 H426 0.928 . S
H414 C390 0.931 . S
H415 C392 0.930 . S
H416 C394 0.929 . S
H417 C395 0.931 . S
H418 C397 0.930 . S
H419 C401 0.931 . S
H420 C399 0.931 . S
H421 C403 0.931 . S
H422 C404 0.929 . S
H423 C405 0.930 . S
H424 C408 0.930 . S
H425 C409 0.931 . S
H426 C413 0.928 . S
H427 C412 0.929 . S
H428 C410 0.932 . S
C429 C430 1.386 . S
C429 C431 1.397 . S
C429 H453 0.931 . S
C430 C429 1.386 . S
C430 C434 1.397 . S
C431 C429 1.397 . S
C431 C432 1.384 . S
C431 H454 0.930 . S
C432 C431 1.384 . S
C432 C433 1.377 . S
C432 C435 1.481 . S
C433 C432 1.377 . S
C433 C434 1.389 . S
C433 H455 0.929 . S
C434 C430 1.397 . S
C434 C433 1.389 . S
C434 H456 0.931 . S
C435 C432 1.481 . S
C435 C436 1.387 . S
C435 C440 1.390 . S
C436 C435 1.387 . S
C436 C437 1.401 . S
C436 H457 0.930 . S
C437 C436 1.401 . S
C437 C438 1.376 . S
C437 C446 1.511 . S
C438 C437 1.376 . S
C438 C439 1.392 . S
C438 H459 0.931 . S
C439 C438 1.392 . S
C439 C440 1.361 . S
C439 C441 1.500 . S
C440 C435 1.390 . S
C440 C439 1.361 . S
C440 H458 0.931 . S
C441 C439 1.500 . S
C441 C442 1.371 . S
C441 C443 1.365 . S
C442 C441 1.371 . S
C442 C452 1.386 . S
C442 H460 0.931 . S
C443 C441 1.365 . S
C443 C444 1.409 . S
C443 H461 0.929 . S
C444 C443 1.409 . S
C444 C445 1.380 . S
C444 H462 0.930 . S
C445 C444 1.380 . S
C445 C452 1.357 . S
C446 C437 1.511 . S
C446 C447 1.341 . S
C446 C448 1.371 . S
C447 C446 1.341 . S
C447 C451 1.394 . S
C447 H463 0.930 . S
C448 C446 1.371 . S
C448 C449 1.392 . S
C448 H464 0.931 . S
C449 C448 1.392 . S
C449 C450 1.331 . S
C449 H467 0.932 . S
C450 C449 1.331 . S
C450 C451 1.336 . S
C451 C447 1.394 . S
C451 C450 1.336 . S
C451 H466 0.929 . S
C452 C442 1.386 . S
C452 C445 1.357 . S
C452 H465 0.928 . S
H453 C429 0.931 . S
H454 C431 0.930 . S
H455 C433 0.929 . S
H456 C434 0.931 . S
H457 C436 0.930 . S
H458 C440 0.931 . S
H459 C438 0.931 . S
H460 C442 0.931 . S
H461 C443 0.929 . S
H462 C444 0.930 . S
H463 C447 0.930 . S
H464 C448 0.931 . S
H465 C452 0.928 . S
H466 C451 0.929 . S
H467 C449 0.932 . S
C468 C469 1.386 . S
C468 C470 1.397 . S
C468 H492 0.931 . S
C469 C468 1.386 . S
C469 C473 1.397 . S
C470 C468 1.397 . S
C470 C471 1.384 . S
C470 H493 0.930 . S
C471 C470 1.384 . S
C471 C472 1.377 . S
C471 C474 1.481 . S
C472 C471 1.377 . S
C472 C473 1.389 . S
C472 H494 0.929 . S
C473 C469 1.397 . S
C473 C472 1.389 . S
C473 H495 0.931 . S
C474 C471 1.481 . S
C474 C475 1.387 . S
C474 C479 1.390 . S
C475 C474 1.387 . S
C475 C476 1.401 . S
C475 H496 0.930 . S
C476 C475 1.401 . S
C476 C477 1.376 . S
C476 C485 1.511 . S
C477 C476 1.376 . S
C477 C478 1.392 . S
C477 H498 0.931 . S
C478 C477 1.392 . S
C478 C479 1.361 . S
C478 C480 1.500 . S
C479 C474 1.390 . S
C479 C478 1.361 . S
C479 H497 0.931 . S
C480 C478 1.500 . S
C480 C481 1.371 . S
C480 C482 1.365 . S
C481 C480 1.371 . S
C481 C491 1.386 . S
C481 H499 0.931 . S
C482 C480 1.365 . S
C482 C483 1.409 . S
C482 H500 0.929 . S
C483 C482 1.409 . S
C483 C484 1.380 . S
C483 H501 0.930 . S
C484 C483 1.380 . S
C484 C491 1.357 . S
C485 C476 1.511 . S
C485 C486 1.341 . S
C485 C487 1.371 . S
C486 C485 1.341 . S
C486 C490 1.394 . S
C486 H502 0.930 . S
C487 C485 1.371 . S
C487 C488 1.392 . S
C487 H503 0.931 . S
C488 C487 1.392 . S
C488 C489 1.331 . S
C488 H506 0.932 . S
C489 C488 1.331 . S
C489 C490 1.336 . S
C490 C486 1.394 . S
C490 C489 1.336 . S
C490 H505 0.929 . S
C491 C481 1.386 . S
C491 C484 1.357 . S
C491 H504 0.928 . S
H492 C468 0.931 . S
H493 C470 0.930 . S
H494 C472 0.929 . S
H495 C473 0.931 . S
H496 C475 0.930 . S
H497 C479 0.931 . S
H498 C477 0.931 . S
H499 C481 0.931 . S
H500 C482 0.929 . S
H501 C483 0.930 . S
H502 C486 0.930 . S
H503 C487 0.931 . S
H504 C491 0.928 . S
H505 C490 0.929 . S
H506 C488 0.932 . S
C507 C508 1.386 . S
C507 C509 1.397 . S
C507 H531 0.931 . S
C508 C507 1.386 . S
C508 C512 1.397 . S
C509 C507 1.397 . S
C509 C510 1.384 . S
C509 H532 0.930 . S
C510 C509 1.384 . S
C510 C511 1.377 . S
C510 C513 1.481 . S
C511 C510 1.377 . S
C511 C512 1.389 . S
C511 H533 0.929 . S
C512 C508 1.397 . S
C512 C511 1.389 . S
C512 H534 0.931 . S
C513 C510 1.481 . S
C513 C514 1.387 . S
C513 C518 1.390 . S
C514 C513 1.387 . S
C514 C515 1.401 . S
C514 H535 0.930 . S
C515 C514 1.401 . S
C515 C516 1.376 . S
C515 C524 1.511 . S
C516 C515 1.376 . S
C516 C517 1.392 . S
C516 H537 0.931 . S
C517 C516 1.392 . S
C517 C518 1.361 . S
C517 C519 1.500 . S
C518 C513 1.390 . S
C518 C517 1.361 . S
C518 H536 0.931 . S
C519 C517 1.500 . S
C519 C520 1.371 . S
C519 C521 1.365 . S
C520 C519 1.371 . S
C520 C530 1.386 . S
C520 H538 0.931 . S
C521 C519 1.365 . S
C521 C522 1.409 . S
C521 H539 0.929 . S
C522 C521 1.409 . S
C522 C523 1.380 . S
C522 H540 0.930 . S
C523 C522 1.380 . S
C523 C530 1.357 . S
C524 C515 1.511 . S
C524 C525 1.341 . S
C524 C526 1.371 . S
C525 C524 1.341 . S
C525 C529 1.394 . S
C525 H541 0.930 . S
C526 C524 1.371 . S
C526 C527 1.392 . S
C526 H542 0.931 . S
C527 C526 1.392 . S
C527 C528 1.331 . S
C527 H545 0.932 . S
C528 C527 1.331 . S
C528 C529 1.336 . S
C529 C525 1.394 . S
C529 C528 1.336 . S
C529 H544 0.929 . S
C530 C520 1.386 . S
C530 C523 1.357 . S
C530 H543 0.928 . S
H531 C507 0.931 . S
H532 C509 0.930 . S
H533 C511 0.929 . S
H534 C512 0.931 . S
H535 C514 0.930 . S
H536 C518 0.931 . S
H537 C516 0.931 . S
H538 C520 0.931 . S
H539 C521 0.929 . S
H540 C522 0.930 . S
H541 C525 0.930 . S
H542 C526 0.931 . S
H543 C530 0.928 . S
H544 C529 0.929 . S
H545 C527 0.932 . S
C546 C547 1.386 . S
C546 C548 1.397 . S
C546 H570 0.931 . S
C547 C546 1.386 . S
C547 C551 1.397 . S
C548 C546 1.397 . S
C548 C549 1.384 . S
C548 H571 0.930 . S
C549 C548 1.384 . S
C549 C550 1.377 . S
C549 C552 1.481 . S
C550 C549 1.377 . S
C550 C551 1.389 . S
C550 H572 0.929 . S
C551 C547 1.397 . S
C551 C550 1.389 . S
C551 H573 0.931 . S
C552 C549 1.481 . S
C552 C553 1.387 . S
C552 C557 1.390 . S
C553 C552 1.387 . S
C553 C554 1.401 . S
C553 H574 0.930 . S
C554 C553 1.401 . S
C554 C555 1.376 . S
C554 C563 1.511 . S
C555 C554 1.376 . S
C555 C556 1.392 . S
C555 H576 0.931 . S
C556 C555 1.392 . S
C556 C557 1.361 . S
C556 C558 1.500 . S
C557 C552 1.390 . S
C557 C556 1.361 . S
C557 H575 0.931 . S
C558 C556 1.500 . S
C558 C559 1.371 . S
C558 C560 1.365 . S
C559 C558 1.371 . S
C559 C569 1.386 . S
C559 H577 0.931 . S
C560 C558 1.365 . S
C560 C561 1.409 . S
C560 H578 0.929 . S
C561 C560 1.409 . S
C561 C562 1.380 . S
C561 H579 0.930 . S
C562 C561 1.380 . S
C562 C569 1.357 . S
C563 C554 1.511 . S
C563 C564 1.341 . S
C563 C565 1.371 . S
C564 C563 1.341 . S
C564 C568 1.394 . S
C564 H580 0.930 . S
C565 C563 1.371 . S
C565 C566 1.392 . S
C565 H581 0.931 . S
C566 C565 1.392 . S
C566 C567 1.331 . S
C566 H584 0.932 . S
C567 C566 1.331 . S
C567 C568 1.336 . S
C568 C564 1.394 . S
C568 C567 1.336 . S
C568 H583 0.929 . S
C569 C559 1.386 . S
C569 C562 1.357 . S
C569 H582 0.928 . S
H570 C546 0.931 . S
H571 C548 0.930 . S
H572 C550 0.929 . S
H573 C551 0.931 . S
H574 C553 0.930 . S
H575 C557 0.931 . S
H576 C555 0.931 . S
H577 C559 0.931 . S
H578 C560 0.929 . S
H579 C561 0.930 . S
H580 C564 0.930 . S
H581 C565 0.931 . S
H582 C569 0.928 . S
H583 C568 0.929 . S
H584 C566 0.932 . S
C585 C586 1.386 . S
C585 C587 1.397 . S
C585 H609 0.931 . S
C586 C585 1.386 . S
C586 C590 1.397 . S
C587 C585 1.397 . S
C587 C588 1.384 . S
C587 H610 0.930 . S
C588 C587 1.384 . S
C588 C589 1.377 . S
C588 C591 1.481 . S
C589 C588 1.377 . S
C589 C590 1.389 . S
C589 H611 0.929 . S
C590 C586 1.397 . S
C590 C589 1.389 . S
C590 H612 0.931 . S
C591 C588 1.481 . S
C591 C592 1.387 . S
C591 C596 1.390 . S
C592 C591 1.387 . S
C592 C593 1.401 . S
C592 H613 0.930 . S
C593 C592 1.401 . S
C593 C594 1.376 . S
C593 C602 1.511 . S
C594 C593 1.376 . S
C594 C595 1.392 . S
C594 H615 0.931 . S
C595 C594 1.392 . S
C595 C596 1.361 . S
C595 C597 1.500 . S
C596 C591 1.390 . S
C596 C595 1.361 . S
C596 H614 0.931 . S
C597 C595 1.500 . S
C597 C598 1.371 . S
C597 C599 1.365 . S
C598 C597 1.371 . S
C598 C608 1.386 . S
C598 H616 0.931 . S
C599 C597 1.365 . S
C599 C600 1.409 . S
C599 H617 0.929 . S
C600 C599 1.409 . S
C600 C601 1.380 . S
C600 H618 0.930 . S
C601 C600 1.380 . S
C601 C608 1.357 . S
C602 C593 1.511 . S
C602 C603 1.341 . S
C602 C604 1.371 . S
C603 C602 1.341 . S
C603 C607 1.394 . S
C603 H619 0.930 . S
C604 C602 1.371 . S
C604 C605 1.392 . S
C604 H620 0.931 . S
C605 C604 1.392 . S
C605 C606 1.331 . S
C605 H623 0.932 . S
C606 C605 1.331 . S
C606 C607 1.336 . S
C607 C603 1.394 . S
C607 C606 1.336 . S
C607 H622 0.929 . S
C608 C598 1.386 . S
C608 C601 1.357 . S
C608 H621 0.928 . S
H609 C585 0.931 . S
H610 C587 0.930 . S
H611 C589 0.929 . S
H612 C590 0.931 . S
H613 C592 0.930 . S
H614 C596 0.931 . S
H615 C594 0.931 . S
H616 C598 0.931 . S
H617 C599 0.929 . S
H618 C600 0.930 . S
H619 C603 0.930 . S
H620 C604 0.931 . S
H621 C608 0.928 . S
H622 C607 0.929 . S
H623 C605 0.932 . S
C624 C625 1.386 1_655 S
C624 C626 1.397 1_655 S
C624 H648 0.931 . S
C625 C624 1.386 1_455 S
C625 C629 1.397 . S
C626 C624 1.397 1_455 S
C626 C627 1.384 . S
C626 H649 0.930 1_455 S
C627 C626 1.384 . S
C627 C628 1.377 . S
C627 C630 1.481 . S
C628 C627 1.377 . S
C628 C629 1.389 . S
C628 H650 0.929 . S
C629 C625 1.397 . S
C629 C628 1.389 . S
C629 H651 0.931 . S
C630 C627 1.481 . S
C630 C631 1.387 . S
C630 C635 1.390 . S
C631 C630 1.387 . S
C631 C632 1.401 . S
C631 H652 0.930 . S
C632 C631 1.401 . S
C632 C633 1.376 . S
C632 C641 1.511 . S
C633 C632 1.376 . S
C633 C634 1.392 . S
C633 H654 0.931 . S
C634 C633 1.392 . S
C634 C635 1.361 . S
C634 C636 1.500 . S
C635 C630 1.390 . S
C635 C634 1.361 . S
C635 H653 0.931 . S
C636 C634 1.500 . S
C636 C637 1.371 . S
C636 C638 1.365 . S
C637 C636 1.371 . S
C637 C647 1.386 . S
C637 H655 0.931 . S
C638 C636 1.365 . S
C638 C639 1.409 . S
C638 H656 0.929 . S
C639 C638 1.409 . S
C639 C640 1.380 . S
C639 H657 0.930 . S
C640 C639 1.380 . S
C640 C647 1.357 . S
C641 C632 1.511 . S
C641 C642 1.341 . S
C641 C643 1.371 . S
C642 C641 1.341 . S
C642 C646 1.394 . S
C642 H658 0.930 . S
C643 C641 1.371 . S
C643 C644 1.392 . S
C643 H659 0.931 . S
C644 C643 1.392 . S
C644 C645 1.331 . S
C644 H662 0.932 . S
C645 C644 1.331 . S
C645 C646 1.336 . S
C646 C642 1.394 . S
C646 C645 1.336 . S
C646 H661 0.929 . S
C647 C637 1.386 . S
C647 C640 1.357 . S
C647 H660 0.928 . S
H648 C624 0.931 . S
H649 C626 0.930 1_655 S
H650 C628 0.929 . S
H651 C629 0.931 . S
H652 C631 0.930 . S
H653 C635 0.931 . S
H654 C633 0.931 . S
H655 C637 0.931 . S
H656 C638 0.929 . S
H657 C639 0.930 . S
H658 C642 0.930 . S
H659 C643 0.931 . S
H660 C647 0.928 . S
H661 C646 0.929 . S
H662 C644 0.932 . S
C663 C664 1.386 . S
C663 C665 1.397 . S
C663 H687 0.931 . S
C664 C663 1.386 . S
C664 C668 1.397 . S
C665 C663 1.397 . S
C665 C666 1.384 . S
C665 H688 0.930 . S
C666 C665 1.384 . S
C666 C667 1.377 . S
C666 C669 1.481 . S
C667 C666 1.377 . S
C667 C668 1.389 . S
C667 H689 0.929 . S
C668 C664 1.397 . S
C668 C667 1.389 . S
C668 H690 0.931 . S
C669 C666 1.481 . S
C669 C670 1.387 . S
C669 C674 1.390 . S
C670 C669 1.387 . S
C670 C671 1.401 . S
C670 H691 0.930 . S
C671 C670 1.401 . S
C671 C672 1.376 . S
C671 C680 1.511 . S
C672 C671 1.376 . S
C672 C673 1.392 . S
C672 H693 0.931 . S
C673 C672 1.392 . S
C673 C674 1.361 . S
C673 C675 1.500 . S
C674 C669 1.390 . S
C674 C673 1.361 . S
C674 H692 0.931 . S
C675 C673 1.500 . S
C675 C676 1.371 . S
C675 C677 1.365 . S
C676 C675 1.371 . S
C676 C686 1.386 . S
C676 H694 0.931 . S
C677 C675 1.365 . S
C677 C678 1.409 . S
C677 H695 0.929 . S
C678 C677 1.409 . S
C678 C679 1.380 . S
C678 H696 0.930 . S
C679 C678 1.380 . S
C679 C686 1.357 . S
C680 C671 1.511 . S
C680 C681 1.341 . S
C680 C682 1.371 . S
C681 C680 1.341 . S
C681 C685 1.394 . S
C681 H697 0.930 . S
C682 C680 1.371 . S
C682 C683 1.392 . S
C682 H698 0.931 . S
C683 C682 1.392 . S
C683 C684 1.331 . S
C683 H701 0.932 . S
C684 C683 1.331 . S
C684 C685 1.336 . S
C685 C681 1.394 . S
C685 C684 1.336 . S
C685 H700 0.929 . S
C686 C676 1.386 . S
C686 C679 1.357 . S
C686 H699 0.928 . S
H687 C663 0.931 . S
H688 C665 0.930 . S
H689 C667 0.929 . S
H690 C668 0.931 . S
H691 C670 0.930 . S
H692 C674 0.931 . S
H693 C672 0.931 . S
H694 C676 0.931 . S
H695 C677 0.929 . S
H696 C678 0.930 . S
H697 C681 0.930 . S
H698 C682 0.931 . S
H699 C686 0.928 . S
H700 C685 0.929 . S
H701 C683 0.932 . S
Tb702 C712 2.825 . S
Tb702 O713 2.347 1_565 S
Tb702 O716 2.366 1_565 S
Tb702 O721 2.418 . S
Tb702 O722 2.367 1_556 S
Tb702 O725 2.479 . S
Tb702 O726 2.447 1_565 S
Eu703 O714 2.418 . S
Eu703 O715 2.384 . S
Eu703 O718 2.479 . S
Eu703 O719 2.458 1_545 S
Eu703 O720 2.347 1_545 S
Eu703 O723 2.366 1_545 S
Eu703 C733 2.825 . S
C704 O720 1.259 . S
C704 O721 1.265 1_554 S
C705 O722 1.275 . S
C705 O723 1.265 . S
C706 C708 1.380 . S
C706 C709 1.374 1_565 S
C706 C712 1.507 . S
C707 C708 1.384 . S
C707 C711 1.387 1_565 S
C707 H734 0.930 . S
C708 C706 1.380 . S
C708 C707 1.384 . S
C708 H735 0.931 . S
C709 C706 1.374 1_545 S
C709 C710 1.390 . S
C709 H736 0.930 . S
C710 C709 1.390 . S
C710 C711 1.391 . S
C710 H737 0.930 . S
C711 C707 1.387 1_545 S
C711 C710 1.391 . S
C712 Tb702 2.825 . S
C712 C706 1.507 . S
C712 O725 1.238 . S
C712 O726 1.211 1_565 S
O713 Tb702 2.347 1_545 S
O713 C717 1.260 . S
O714 Eu703 2.418 . S
O714 C717 1.260 1_554 S
O715 Eu703 2.384 . S
O715 C724 1.255 1_554 S
O716 Tb702 2.366 1_545 S
O716 C724 1.265 . S
C717 O713 1.260 . S
C717 O714 1.260 1_556 S
O718 Eu703 2.479 . S
O718 C733 1.238 . S
O719 Eu703 2.458 1_565 S
O719 C733 1.228 1_565 S
O720 Eu703 2.347 1_565 S
O720 C704 1.259 . S
O721 Tb702 2.418 . S
O721 C704 1.265 1_556 S
O722 Tb702 2.367 1_554 S
O722 C705 1.275 . S
O723 Eu703 2.366 1_565 S
O723 C705 1.265 . S
C724 O715 1.255 1_556 S
C724 O716 1.265 . S
O725 Tb702 2.479 . S
O725 C712 1.238 . S
O726 Tb702 2.447 1_545 S
O726 C712 1.211 1_545 S
C727 C730 1.380 . S
C727 C731 1.374 1_545 S
C727 C733 1.507 . S
C728 C729 1.387 1_565 S
C728 C732 1.391 . S
C729 C728 1.387 1_545 S
C729 C730 1.384 . S
C729 H738 0.930 . S
C730 C727 1.380 . S
C730 C729 1.384 . S
C730 H739 0.931 . S
C731 C727 1.374 1_565 S
C731 C732 1.390 . S
C731 H740 0.930 . S
C732 C728 1.391 . S
C732 C731 1.390 . S
C732 H741 0.930 . S
C733 Eu703 2.825 . S
C733 O718 1.238 . S
C733 O719 1.228 1_545 S
C733 C727 1.507 . S
H734 C707 0.930 . S
H735 C708 0.931 . S
H736 C709 0.930 . S
H737 C710 0.930 . S
H738 C729 0.930 . S
H739 C730 0.931 . S
H740 C731 0.930 . S
H741 C732 0.930 . S
Tb742 C752 2.825 . S
Tb742 O753 2.347 1_455 S
Tb742 O756 2.366 1_455 S
Tb742 O761 2.418 . S
Tb742 O762 2.384 1_556 S
Tb742 O765 2.479 . S
Tb742 O766 2.471 1_455 S
Eu743 O754 2.418 . S
Eu743 O755 2.437 . S
Eu743 O758 2.479 . S
Eu743 O759 2.471 1_655 S
Eu743 O760 2.347 1_655 S
Eu743 O763 2.366 1_655 S
Eu743 C773 2.825 . S
C744 O760 1.259 . S
C744 O761 1.265 1_554 S
C745 O762 1.255 . S
C745 O763 1.265 . S
C746 C748 1.380 . S
C746 C749 1.374 1_455 S
C746 C752 1.507 . S
C747 C748 1.384 . S
C747 C751 1.387 1_455 S
C747 H774 0.930 . S
C748 C746 1.380 . S
C748 C747 1.384 . S
C748 H775 0.931 . S
C749 C746 1.374 1_655 S
C749 C750 1.390 . S
C749 H776 0.930 . S
C750 C749 1.390 . S
C750 C751 1.391 . S
C750 H777 0.930 . S
C751 C747 1.387 1_655 S
C751 C750 1.391 . S
C752 Tb742 2.825 . S
C752 C746 1.507 . S
C752 O765 1.238 . S
C752 O766 1.247 1_455 S
O753 Tb742 2.347 1_655 S
O753 C757 1.259 . S
O754 Eu743 2.418 . S
O754 C757 1.265 1_554 S
O755 Eu743 2.437 . S
O755 C764 1.191 1_554 S
O756 Tb742 2.366 1_655 S
O756 C764 1.265 . S
C757 O753 1.259 . S
C757 O754 1.265 1_556 S
O758 Eu743 2.479 . S
O758 C773 1.238 . S
O759 Eu743 2.471 1_455 S
O759 C773 1.247 1_455 S
O760 Eu743 2.347 1_455 S
O760 C744 1.259 . S
O761 Tb742 2.418 . S
O761 C744 1.265 1_556 S
O762 Tb742 2.384 1_554 S
O762 C745 1.255 . S
O763 Eu743 2.366 1_455 S
O763 C745 1.265 . S
C764 O755 1.191 1_556 S
C764 O756 1.265 . S
O765 Tb742 2.479 . S
O765 C752 1.238 . S
O766 Tb742 2.471 1_655 S
O766 C752 1.247 1_655 S
C767 C770 1.396 . S
C767 C771 1.345 1_655 S
C767 C773 1.520 . S
C768 C769 1.387 1_455 S
C768 C772 1.391 . S
C769 C768 1.387 1_655 S
C769 C770 1.384 . S
C769 H778 0.930 . S
C770 C767 1.396 . S
C770 C769 1.384 . S
C770 H779 0.931 . S
C771 C767 1.345 1_455 S
C771 C772 1.390 . S
C771 H780 0.930 . S
C772 C768 1.391 . S
C772 C771 1.390 . S
C772 H781 0.930 . S
C773 Eu743 2.825 . S
C773 O758 1.238 . S
C773 O759 1.247 1_655 S
C773 C767 1.520 . S
H774 C747 0.930 . S
H775 C748 0.931 . S
H776 C749 0.930 . S
H777 C750 0.930 . S
H778 C769 0.930 . S
H779 C770 0.931 . S
H780 C771 0.930 . S
H781 C772 0.930 . S
Tb782 C792 2.825 . S
Tb782 O793 2.347 . S
Tb782 O796 2.366 . S
Tb782 O801 2.418 . S
Tb782 O802 2.384 . S
Tb782 O805 2.479 . S
Tb782 O806 2.471 . S
Eu783 O794 2.418 . S
Eu783 O795 2.384 1_556 S
Eu783 O798 2.479 . S
Eu783 O799 2.471 . S
Eu783 O800 2.347 . S
Eu783 O803 2.366 . S
Eu783 C813 2.825 . S
C784 O800 1.259 . S
C784 O801 1.265 1_556 S
C785 O802 1.255 1_556 S
C785 O803 1.265 . S
C786 C788 1.380 . S
C786 C789 1.374 . S
C786 C792 1.507 . S
C787 C788 1.384 . S
C787 C791 1.387 . S
C787 H814 0.930 . S
C788 C786 1.380 . S
C788 C787 1.384 . S
C788 H815 0.931 . S
C789 C786 1.374 . S
C789 C790 1.390 . S
C789 H816 0.930 . S
C790 C789 1.390 . S
C790 C791 1.391 . S
C790 H817 0.930 . S
C791 C787 1.387 . S
C791 C790 1.391 . S
C792 Tb782 2.825 . S
C792 C786 1.507 . S
C792 O805 1.238 . S
C792 O806 1.247 . S
O793 Tb782 2.347 . S
O793 C797 1.259 . S
O794 Eu783 2.418 . S
O794 C797 1.265 1_556 S
O795 Eu783 2.384 1_554 S
O795 C804 1.255 . S
O796 Tb782 2.366 . S
O796 C804 1.265 . S
C797 O793 1.259 . S
C797 O794 1.265 1_554 S
O798 Eu783 2.479 . S
O798 C813 1.238 . S
O799 Eu783 2.471 . S
O799 C813 1.247 . S
O800 Eu783 2.347 . S
O800 C784 1.259 . S
O801 Tb782 2.418 . S
O801 C784 1.265 1_554 S
O802 Tb782 2.384 . S
O802 C785 1.255 1_554 S
O803 Eu783 2.366 . S
O803 C785 1.265 . S
C804 O795 1.255 . S
C804 O796 1.265 . S
O805 Tb782 2.479 . S
O805 C792 1.238 . S
O806 Tb782 2.471 . S
O806 C792 1.247 . S
C807 C810 1.380 . S
C807 C811 1.374 . S
C807 C813 1.507 . S
C808 C809 1.387 . S
C808 C812 1.391 . S
C809 C808 1.387 . S
C809 C810 1.384 . S
C809 H818 0.930 . S
C810 C807 1.380 . S
C810 C809 1.384 . S
C810 H819 0.931 . S
C811 C807 1.374 . S
C811 C812 1.390 . S
C811 H820 0.930 . S
C812 C808 1.391 . S
C812 C811 1.390 . S
C812 H821 0.930 . S
C813 Eu783 2.825 . S
C813 O798 1.238 . S
C813 O799 1.247 . S
C813 C807 1.507 . S
H814 C787 0.930 . S
H815 C788 0.931 . S
H816 C789 0.930 . S
H817 C790 0.930 . S
H818 C809 0.930 . S
H819 C810 0.931 . S
H820 C811 0.930 . S
H821 C812 0.930 . S
Tb822 C832 2.825 . S
Tb822 O833 2.347 . S
Tb822 O836 2.366 . S
Tb822 O841 2.418 . S
Tb822 O842 2.384 . S
Tb822 O845 2.479 . S
Tb822 O846 2.471 . S
Eu823 O834 2.418 . S
Eu823 O835 2.384 . S
Eu823 O838 2.479 . S
Eu823 O839 2.471 . S
Eu823 O840 2.347 . S
Eu823 O843 2.366 . S
Eu823 C853 2.825 . S
C824 O840 1.259 . S
C824 O841 1.265 . S
C825 O842 1.255 . S
C825 O843 1.265 . S
C826 C828 1.380 . S
C826 C829 1.374 . S
C826 C832 1.507 . S
C827 C828 1.384 . S
C827 C831 1.387 . S
C827 H854 0.930 . S
C828 C826 1.380 . S
C828 C827 1.384 . S
C828 H855 0.931 . S
C829 C826 1.374 . S
C829 C830 1.390 . S
C829 H856 0.930 . S
C830 C829 1.390 . S
C830 C831 1.391 . S
C830 H857 0.930 . S
C831 C827 1.387 . S
C831 C830 1.391 . S
C832 Tb822 2.825 . S
C832 C826 1.507 . S
C832 O845 1.238 . S
C832 O846 1.247 . S
O833 Tb822 2.347 . S
O833 C837 1.259 . S
O834 Eu823 2.418 . S
O834 C837 1.265 . S
O835 Eu823 2.384 . S
O835 C844 1.255 . S
O836 Tb822 2.366 . S
O836 C844 1.265 . S
C837 O833 1.259 . S
C837 O834 1.265 . S
O838 Eu823 2.479 . S
O838 C853 1.238 . S
O839 Eu823 2.471 . S
O839 C853 1.247 . S
O840 Eu823 2.347 . S
O840 C824 1.259 . S
O841 Tb822 2.418 . S
O841 C824 1.265 . S
O842 Tb822 2.384 . S
O842 C825 1.255 . S
O843 Eu823 2.366 . S
O843 C825 1.265 . S
C844 O835 1.255 . S
C844 O836 1.265 . S
O845 Tb822 2.479 . S
O845 C832 1.238 . S
O846 Tb822 2.471 . S
O846 C832 1.247 . S
C847 C850 1.380 . S
C847 C851 1.374 . S
C847 C853 1.507 . S
C848 C849 1.387 . S
C848 C852 1.391 . S
C849 C848 1.387 . S
C849 C850 1.384 . S
C849 H858 0.930 . S
C850 C847 1.380 . S
C850 C849 1.384 . S
C850 H859 0.931 . S
C851 C847 1.374 . S
C851 C852 1.390 . S
C851 H860 0.930 . S
C852 C848 1.391 . S
C852 C851 1.390 . S
C852 H861 0.930 . S
C853 Eu823 2.825 . S
C853 O838 1.238 . S
C853 O839 1.247 . S
C853 C847 1.507 . S
H854 C827 0.930 . S
H855 C828 0.931 . S
H856 C829 0.930 . S
H857 C830 0.930 . S
H858 C849 0.930 . S
H859 C850 0.931 . S
H860 C851 0.930 . S
H861 C852 0.930 . S
Tb862 C872 2.825 . S
Tb862 O873 2.347 . S
Tb862 O876 2.366 . S
Tb862 O881 2.418 . S
Tb862 O882 2.384 . S
Tb862 O885 2.479 . S
Tb862 O886 2.471 . S
Eu863 O874 2.418 . S
Eu863 O875 2.384 . S
Eu863 O878 2.479 . S
Eu863 O879 2.471 . S
Eu863 O880 2.347 . S
Eu863 O883 2.366 . S
Eu863 C893 2.825 . S
C864 O880 1.259 . S
C864 O881 1.265 . S
C865 O882 1.255 . S
C865 O883 1.265 . S
C866 C868 1.380 . S
C866 C869 1.374 . S
C866 C872 1.507 . S
C867 C868 1.384 . S
C867 C871 1.387 . S
C867 H894 0.930 . S
C868 C866 1.380 . S
C868 C867 1.384 . S
C868 H895 0.931 . S
C869 C866 1.374 . S
C869 C870 1.390 . S
C869 H896 0.930 . S
C870 C869 1.390 . S
C870 C871 1.391 . S
C870 H897 0.930 . S
C871 C867 1.387 . S
C871 C870 1.391 . S
C872 Tb862 2.825 . S
C872 C866 1.507 . S
C872 O885 1.238 . S
C872 O886 1.247 . S
O873 Tb862 2.347 . S
O873 C877 1.259 . S
O874 Eu863 2.418 . S
O874 C877 1.265 . S
O875 Eu863 2.384 . S
O875 C884 1.255 . S
O876 Tb862 2.366 . S
O876 C884 1.265 . S
C877 O873 1.259 . S
C877 O874 1.265 . S
O878 Eu863 2.479 . S
O878 C893 1.238 . S
O879 Eu863 2.471 . S
O879 C893 1.247 . S
O880 Eu863 2.347 . S
O880 C864 1.259 . S
O881 Tb862 2.418 . S
O881 C864 1.265 . S
O882 Tb862 2.384 . S
O882 C865 1.255 . S
O883 Eu863 2.366 . S
O883 C865 1.265 . S
C884 O875 1.255 . S
C884 O876 1.265 . S
O885 Tb862 2.479 . S
O885 C872 1.238 . S
O886 Tb862 2.471 . S
O886 C872 1.247 . S
C887 C890 1.380 . S
C887 C891 1.374 . S
C887 C893 1.507 . S
C888 C889 1.387 . S
C888 C892 1.391 . S
C889 C888 1.387 . S
C889 C890 1.384 . S
C889 H898 0.930 . S
C890 C887 1.380 . S
C890 C889 1.384 . S
C890 H899 0.931 . S
C891 C887 1.374 . S
C891 C892 1.390 . S
C891 H900 0.930 . S
C892 C888 1.391 . S
C892 C891 1.390 . S
C892 H901 0.930 . S
C893 Eu863 2.825 . S
C893 O878 1.238 . S
C893 O879 1.247 . S
C893 C887 1.507 . S
H894 C867 0.930 . S
H895 C868 0.931 . S
H896 C869 0.930 . S
H897 C870 0.930 . S
H898 C889 0.930 . S
H899 C890 0.931 . S
H900 C891 0.930 . S
H901 C892 0.930 . S
Tb902 C912 2.825 . S
Tb902 O913 2.347 . S
Tb902 O916 2.366 . S
Tb902 O921 2.418 . S
Tb902 O922 2.384 . S
Tb902 O925 2.479 . S
Tb902 O926 2.471 . S
Eu903 O914 2.418 . S
Eu903 O915 2.384 . S
Eu903 O918 2.479 . S
Eu903 O919 2.471 . S
Eu903 O920 2.347 . S
Eu903 O923 2.366 . S
Eu903 C933 2.825 . S
C904 O920 1.259 . S
C904 O921 1.265 . S
C905 O922 1.255 . S
C905 O923 1.265 . S
C906 C908 1.380 . S
C906 C909 1.374 . S
C906 C912 1.507 . S
C907 C908 1.384 . S
C907 C911 1.387 . S
C907 H934 0.930 . S
C908 C906 1.380 . S
C908 C907 1.384 . S
C908 H935 0.931 . S
C909 C906 1.374 . S
C909 C910 1.390 . S
C909 H936 0.930 . S
C910 C909 1.390 . S
C910 C911 1.391 . S
C910 H937 0.930 . S
C911 C907 1.387 . S
C911 C910 1.391 . S
C912 Tb902 2.825 . S
C912 C906 1.507 . S
C912 O925 1.238 . S
C912 O926 1.247 . S
O913 Tb902 2.347 . S
O913 C917 1.259 . S
O914 Eu903 2.418 . S
O914 C917 1.265 . S
O915 Eu903 2.384 . S
O915 C924 1.255 . S
O916 Tb902 2.366 . S
O916 C924 1.265 . S
C917 O913 1.259 . S
C917 O914 1.265 . S
O918 Eu903 2.479 . S
O918 C933 1.238 . S
O919 Eu903 2.471 . S
O919 C933 1.247 . S
O920 Eu903 2.347 . S
O920 C904 1.259 . S
O921 Tb902 2.418 . S
O921 C904 1.265 . S
O922 Tb902 2.384 . S
O922 C905 1.255 . S
O923 Eu903 2.366 . S
O923 C905 1.265 . S
C924 O915 1.255 . S
C924 O916 1.265 . S
O925 Tb902 2.479 . S
O925 C912 1.238 . S
O926 Tb902 2.471 . S
O926 C912 1.247 . S
C927 C930 1.380 . S
C927 C931 1.374 . S
C927 C933 1.507 . S
C928 C929 1.387 . S
C928 C932 1.391 . S
C929 C928 1.387 . S
C929 C930 1.384 . S
C929 H938 0.930 . S
C930 C927 1.380 . S
C930 C929 1.384 . S
C930 H939 0.931 . S
C931 C927 1.374 . S
C931 C932 1.390 . S
C931 H940 0.930 . S
C932 C928 1.391 . S
C932 C931 1.390 . S
C932 H941 0.930 . S
C933 Eu903 2.825 . S
C933 O918 1.238 . S
C933 O919 1.247 . S
C933 C927 1.507 . S
H934 C907 0.930 . S
H935 C908 0.931 . S
H936 C909 0.930 . S
H937 C910 0.930 . S
H938 C929 0.930 . S
H939 C930 0.931 . S
H940 C931 0.930 . S
H941 C932 0.930 . S
Tb942 C952 2.825 . S
Tb942 O953 2.347 . S
Tb942 O956 2.366 . S
Tb942 O961 2.418 . S
Tb942 O962 2.384 . S
Tb942 O965 2.479 . S
Tb942 O966 2.471 . S
Eu943 O954 2.418 . S
Eu943 O955 2.384 . S
Eu943 O958 2.479 . S
Eu943 O959 2.471 . S
Eu943 O960 2.347 . S
Eu943 O963 2.366 . S
Eu943 C973 2.825 . S
C944 O960 1.259 . S
C944 O961 1.265 . S
C945 O962 1.255 . S
C945 O963 1.265 . S
C946 C948 1.380 . S
C946 C949 1.374 . S
C946 C952 1.507 . S
C947 C948 1.384 . S
C947 C951 1.387 . S
C947 H974 0.930 . S
C948 C946 1.380 . S
C948 C947 1.384 . S
C948 H975 0.931 . S
C949 C946 1.374 . S
C949 C950 1.390 . S
C949 H976 0.930 . S
C950 C949 1.390 . S
C950 C951 1.391 . S
C950 H977 0.930 . S
C951 C947 1.387 . S
C951 C950 1.391 . S
C952 Tb942 2.825 . S
C952 C946 1.507 . S
C952 O965 1.238 . S
C952 O966 1.247 . S
O953 Tb942 2.347 . S
O953 C957 1.259 . S
O954 Eu943 2.418 . S
O954 C957 1.265 . S
O955 Eu943 2.384 . S
O955 C964 1.255 . S
O956 Tb942 2.366 . S
O956 C964 1.265 . S
C957 O953 1.259 . S
C957 O954 1.265 . S
O958 Eu943 2.479 . S
O958 C973 1.238 . S
O959 Eu943 2.471 . S
O959 C973 1.247 . S
O960 Eu943 2.347 . S
O960 C944 1.259 . S
O961 Tb942 2.418 . S
O961 C944 1.265 . S
O962 Tb942 2.384 . S
O962 C945 1.255 . S
O963 Eu943 2.366 . S
O963 C945 1.265 . S
C964 O955 1.255 . S
C964 O956 1.265 . S
O965 Tb942 2.479 . S
O965 C952 1.238 . S
O966 Tb942 2.471 . S
O966 C952 1.247 . S
C967 C970 1.380 . S
C967 C971 1.374 . S
C967 C973 1.507 . S
C968 C969 1.387 . S
C968 C972 1.391 . S
C969 C968 1.387 . S
C969 C970 1.384 . S
C969 H978 0.930 . S
C970 C967 1.380 . S
C970 C969 1.384 . S
C970 H979 0.931 . S
C971 C967 1.374 . S
C971 C972 1.390 . S
C971 H980 0.930 . S
C972 C968 1.391 . S
C972 C971 1.390 . S
C972 H981 0.930 . S
C973 Eu943 2.825 . S
C973 O958 1.238 . S
C973 O959 1.247 . S
C973 C967 1.507 . S
H974 C947 0.930 . S
H975 C948 0.931 . S
H976 C949 0.930 . S
H977 C950 0.930 . S
H978 C969 0.930 . S
H979 C970 0.931 . S
H980 C971 0.930 . S
H981 C972 0.930 . S
Tb982 C992 2.825 . S
Tb982 O993 2.347 . S
Tb982 O996 2.366 . S
Tb982 O1001 2.418 . S
Tb982 O1002 2.384 . S
Tb982 O1005 2.479 . S
Tb982 O1006 2.471 . S
Eu983 O994 2.418 . S
Eu983 O995 2.384 . S
Eu983 O998 2.479 . S
Eu983 O999 2.471 . S
Eu983 O1000 2.347 . S
Eu983 O1003 2.366 . S
Eu983 C1013 2.825 . S
C984 O1000 1.259 . S
C984 O1001 1.265 . S
C985 O1002 1.255 . S
C985 O1003 1.265 . S
C986 C988 1.380 . S
C986 C989 1.374 . S
C986 C992 1.507 . S
C987 C988 1.384 . S
C987 C991 1.387 . S
C987 H1014 0.930 . S
C988 C986 1.380 . S
C988 C987 1.384 . S
C988 H1015 0.931 . S
C989 C986 1.374 . S
C989 C990 1.390 . S
C989 H1016 0.930 . S
C990 C989 1.390 . S
C990 C991 1.391 . S
C990 H1017 0.930 . S
C991 C987 1.387 . S
C991 C990 1.391 . S
C992 Tb982 2.825 . S
C992 C986 1.507 . S
C992 O1005 1.238 . S
C992 O1006 1.247 . S
O993 Tb982 2.347 . S
O993 C997 1.259 . S
O994 Eu983 2.418 . S
O994 C997 1.265 . S
O995 Eu983 2.384 . S
O995 C1004 1.255 . S
O996 Tb982 2.366 . S
O996 C1004 1.265 . S
C997 O993 1.259 . S
C997 O994 1.265 . S
O998 Eu983 2.479 . S
O998 C1013 1.238 . S
O999 Eu983 2.471 . S
O999 C1013 1.247 . S
O1000 Eu983 2.347 . S
O1000 C984 1.259 . S
O1001 Tb982 2.418 . S
O1001 C984 1.265 . S
O1002 Tb982 2.384 . S
O1002 C985 1.255 . S
O1003 Eu983 2.366 . S
O1003 C985 1.265 . S
C1004 O995 1.255 . S
C1004 O996 1.265 . S
O1005 Tb982 2.479 . S
O1005 C992 1.238 . S
O1006 Tb982 2.471 . S
O1006 C992 1.247 . S
C1007 C1010 1.380 . S
C1007 C1011 1.374 . S
C1007 C1013 1.507 . S
C1008 C1009 1.387 . S
C1008 C1012 1.391 . S
C1009 C1008 1.387 . S
C1009 C1010 1.384 . S
C1009 H1018 0.930 . S
C1010 C1007 1.380 . S
C1010 C1009 1.384 . S
C1010 H1019 0.931 . S
C1011 C1007 1.374 . S
C1011 C1012 1.390 . S
C1011 H1020 0.930 . S
C1012 C1008 1.391 . S
C1012 C1011 1.390 . S
C1012 H1021 0.930 . S
C1013 Eu983 2.825 . S
C1013 O998 1.238 . S
C1013 O999 1.247 . S
C1013 C1007 1.507 . S
H1014 C987 0.930 . S
H1015 C988 0.931 . S
H1016 C989 0.930 . S
H1017 C990 0.930 . S
H1018 C1009 0.930 . S
H1019 C1010 0.931 . S
H1020 C1011 0.930 . S
H1021 C1012 0.930 . S
Tb1022 C1032 2.825 . S
Tb1022 O1033 2.347 . S
Tb1022 O1036 2.366 . S
Tb1022 O1041 2.418 . S
Tb1022 O1042 2.384 . S
Tb1022 O1045 2.479 . S
Tb1022 O1046 2.471 . S
Eu1023 O1034 2.418 . S
Eu1023 O1035 2.384 . S
Eu1023 O1038 2.479 . S
Eu1023 O1039 2.471 . S
Eu1023 O1040 2.347 . S
Eu1023 O1043 2.366 . S
Eu1023 C1053 2.825 . S
C1024 O1040 1.259 . S
C1024 O1041 1.265 . S
C1025 O1042 1.255 . S
C1025 O1043 1.265 . S
C1026 C1028 1.380 . S
C1026 C1029 1.374 . S
C1026 C1032 1.507 . S
C1027 C1028 1.384 . S
C1027 C1031 1.387 . S
C1027 H1054 0.930 . S
C1028 C1026 1.380 . S
C1028 C1027 1.384 . S
C1028 H1055 0.931 . S
C1029 C1026 1.374 . S
C1029 C1030 1.390 . S
C1029 H1056 0.930 . S
C1030 C1029 1.390 . S
C1030 C1031 1.391 . S
C1030 H1057 0.930 . S
C1031 C1027 1.387 . S
C1031 C1030 1.391 . S
C1032 Tb1022 2.825 . S
C1032 C1026 1.507 . S
C1032 O1045 1.238 . S
C1032 O1046 1.247 . S
O1033 Tb1022 2.347 . S
O1033 C1037 1.259 . S
O1034 Eu1023 2.418 . S
O1034 C1037 1.265 . S
O1035 Eu1023 2.384 . S
O1035 C1044 1.255 . S
O1036 Tb1022 2.366 . S
O1036 C1044 1.265 . S
C1037 O1033 1.259 . S
C1037 O1034 1.265 . S
O1038 Eu1023 2.479 . S
O1038 C1053 1.238 . S
O1039 Eu1023 2.471 . S
O1039 C1053 1.247 . S
O1040 Eu1023 2.347 . S
O1040 C1024 1.259 . S
O1041 Tb1022 2.418 . S
O1041 C1024 1.265 . S
O1042 Tb1022 2.384 . S
O1042 C1025 1.255 . S
O1043 Eu1023 2.366 . S
O1043 C1025 1.265 . S
C1044 O1035 1.255 . S
C1044 O1036 1.265 . S
O1045 Tb1022 2.479 . S
O1045 C1032 1.238 . S
O1046 Tb1022 2.471 . S
O1046 C1032 1.247 . S
C1047 C1050 1.380 . S
C1047 C1051 1.374 . S
C1047 C1053 1.507 . S
C1048 C1049 1.387 . S
C1048 C1052 1.391 . S
C1049 C1048 1.387 . S
C1049 C1050 1.384 . S
C1049 H1058 0.930 . S
C1050 C1047 1.380 . S
C1050 C1049 1.384 . S
C1050 H1059 0.931 . S
C1051 C1047 1.374 . S
C1051 C1052 1.390 . S
C1051 H1060 0.930 . S
C1052 C1048 1.391 . S
C1052 C1051 1.390 . S
C1052 H1061 0.930 . S
C1053 Eu1023 2.825 . S
C1053 O1038 1.238 . S
C1053 O1039 1.247 . S
C1053 C1047 1.507 . S
H1054 C1027 0.930 . S
H1055 C1028 0.931 . S
H1056 C1029 0.930 . S
H1057 C1030 0.930 . S
H1058 C1049 0.930 . S
H1059 C1050 0.931 . S
H1060 C1051 0.930 . S
H1061 C1052 0.930 . S
C1062 C1063 1.391 . S
C1062 C1064 1.394 . S
C1062 H1078 0.931 . S
C1063 C1062 1.391 . S
C1063 C1067 1.376 . S
C1064 C1062 1.394 . S
C1064 C1065 1.369 . S
C1064 C1068 1.531 . S
C1065 C1064 1.369 . S
C1065 C1066 1.410 . S
C1065 C1073 1.503 . S
C1066 C1065 1.410 . S
C1066 C1067 1.392 . S
C1066 C1069 1.511 . S
C1067 C1063 1.376 . S
C1067 C1066 1.392 . S
C1067 H1079 0.929 . S
C1068 C1064 1.531 . S
C1068 H1080 0.960 . S
C1068 H1081 0.962 . S
C1068 H1082 0.960 . S
C1069 C1066 1.511 . S
C1069 H1083 0.961 . S
C1069 H1084 0.961 . S
C1069 H1085 0.961 . S
C1070 C1071 1.370 . S
C1070 C1072 1.363 . S
C1070 H1086 0.931 . S
C1071 C1070 1.370 . S
C1071 C1075 1.408 . S
C1072 C1070 1.363 . S
C1072 C1073 1.370 . S
C1072 C1076 1.524 . S
C1073 C1065 1.503 . S
C1073 C1072 1.370 . S
C1073 C1074 1.403 . S
C1074 C1073 1.403 . S
C1074 C1075 1.404 . S
C1074 C1077 1.539 . S
C1075 C1071 1.408 . S
C1075 C1074 1.404 . S
C1075 H1087 0.930 . S
C1076 C1072 1.524 . S
C1076 H1088 0.956 . S
C1076 H1089 0.961 . S
C1076 H1090 0.995 . S
C1077 C1074 1.539 . S
C1077 H1091 0.958 . S
C1077 H1092 0.961 . S
C1077 H1093 0.960 . S
H1078 C1062 0.931 . S
H1079 C1067 0.929 . S
H1080 C1068 0.960 . S
H1081 C1068 0.962 . S
H1082 C1068 0.960 . S
H1083 C1069 0.961 . S
H1084 C1069 0.961 . S
H1085 C1069 0.961 . S
H1086 C1070 0.931 . S
H1087 C1075 0.930 . S
H1088 C1076 0.956 . S
H1089 C1076 0.961 . S
H1090 C1076 0.995 . S
H1091 C1077 0.958 . S
H1092 C1077 0.961 . S
H1093 C1077 0.960 . S
C1094 C1095 1.391 . S
C1094 C1096 1.394 . S
C1094 H1110 0.931 . S
C1095 C1094 1.391 . S
C1095 C1099 1.376 . S
C1096 C1094 1.394 . S
C1096 C1097 1.369 . S
C1096 C1100 1.531 . S
C1097 C1096 1.369 . S
C1097 C1098 1.410 . S
C1097 C1105 1.503 . S
C1098 C1097 1.410 . S
C1098 C1099 1.392 . S
C1098 C1101 1.511 . S
C1099 C1095 1.376 . S
C1099 C1098 1.392 . S
C1099 H1111 0.929 . S
C1100 C1096 1.531 . S
C1100 H1112 0.960 . S
C1100 H1113 0.962 . S
C1100 H1114 0.960 . S
C1101 C1098 1.511 . S
C1101 H1115 0.961 . S
C1101 H1116 0.961 . S
C1101 H1117 0.961 . S
C1102 C1103 1.370 . S
C1102 C1104 1.363 . S
C1102 H1118 0.931 . S
C1103 C1102 1.370 . S
C1103 C1107 1.408 . S
C1104 C1102 1.363 . S
C1104 C1105 1.370 . S
C1104 C1108 1.524 . S
C1105 C1097 1.503 . S
C1105 C1104 1.370 . S
C1105 C1106 1.403 . S
C1106 C1105 1.403 . S
C1106 C1107 1.404 . S
C1106 C1109 1.539 . S
C1107 C1103 1.408 . S
C1107 C1106 1.404 . S
C1107 H1119 0.930 . S
C1108 C1104 1.524 . S
C1108 H1120 0.956 . S
C1108 H1121 0.961 . S
C1108 H1122 0.961 . S
C1109 C1106 1.539 . S
C1109 H1123 0.958 . S
C1109 H1124 0.961 . S
C1109 H1125 0.960 . S
H1110 C1094 0.931 . S
H1111 C1099 0.929 . S
H1112 C1100 0.960 . S
H1113 C1100 0.962 . S
H1114 C1100 0.960 . S
H1115 C1101 0.961 . S
H1116 C1101 0.961 . S
H1117 C1101 0.961 . S
H1118 C1102 0.931 . S
H1119 C1107 0.930 . S
H1120 C1108 0.956 . S
H1121 C1108 0.961 . S
H1122 C1108 0.961 . S
H1123 C1109 0.958 . S
H1124 C1109 0.961 . S
H1125 C1109 0.960 . S
C1126 C1127 1.391 . S
C1126 C1128 1.394 . S
C1126 H1142 0.931 . S
C1127 C1126 1.391 . S
C1127 C1131 1.376 . S
C1128 C1126 1.394 . S
C1128 C1129 1.369 . S
C1128 C1132 1.531 . S
C1129 C1128 1.369 . S
C1129 C1130 1.410 . S
C1129 C1137 1.503 . S
C1130 C1129 1.410 . S
C1130 C1131 1.392 . S
C1130 C1133 1.511 . S
C1131 C1127 1.376 . S
C1131 C1130 1.392 . S
C1131 H1143 0.929 . S
C1132 C1128 1.531 . S
C1132 H1144 0.960 . S
C1132 H1145 0.962 . S
C1132 H1146 0.960 . S
C1133 C1130 1.511 . S
C1133 H1147 0.961 1_554 S
C1133 H1148 0.983 . S
C1133 H1149 0.961 . S
C1134 C1135 1.370 . S
C1134 C1136 1.363 . S
C1134 H1150 0.931 . S
C1135 C1134 1.370 . S
C1135 C1139 1.408 . S
C1136 C1134 1.363 . S
C1136 C1137 1.370 . S
C1136 C1140 1.524 . S
C1137 C1129 1.503 . S
C1137 C1136 1.370 . S
C1137 C1138 1.403 . S
C1138 C1137 1.403 . S
C1138 C1139 1.404 . S
C1138 C1141 1.539 . S
C1139 C1135 1.408 . S
C1139 C1138 1.404 . S
C1139 H1151 0.930 . S
C1140 C1136 1.524 . S
C1140 H1152 0.956 . S
C1140 H1153 0.961 1_554 S
C1140 H1154 0.961 1_554 S
C1141 C1138 1.539 . S
C1141 H1155 0.958 . S
C1141 H1156 0.961 . S
C1141 H1157 0.960 . S
H1142 C1126 0.931 . S
H1143 C1131 0.929 . S
H1144 C1132 0.960 . S
H1145 C1132 0.962 . S
H1146 C1132 0.960 . S
H1147 C1133 0.961 1_556 S
H1148 C1133 0.983 . S
H1149 C1133 0.961 . S
H1150 C1134 0.931 . S
H1151 C1139 0.930 . S
H1152 C1140 0.956 . S
H1153 C1140 0.961 1_556 S
H1154 C1140 0.961 1_556 S
H1155 C1141 0.958 . S
H1156 C1141 0.961 . S
H1157 C1141 0.960 . S
C1158 C1159 1.391 . S
C1158 C1160 1.394 . S
C1158 H1174 0.931 . S
C1159 C1158 1.391 . S
C1159 C1163 1.376 . S
C1160 C1158 1.394 . S
C1160 C1161 1.369 . S
C1160 C1164 1.531 . S
C1161 C1160 1.369 . S
C1161 C1162 1.410 . S
C1161 C1169 1.503 . S
C1162 C1161 1.410 . S
C1162 C1163 1.392 . S
C1162 C1165 1.511 . S
C1163 C1159 1.376 . S
C1163 C1162 1.392 . S
C1163 H1175 0.929 . S
C1164 C1160 1.531 . S
C1164 H1176 0.960 . S
C1164 H1177 0.962 . S
C1164 H1178 0.960 . S
C1165 C1162 1.511 . S
C1165 H1179 0.961 . S
C1165 H1180 0.961 . S
C1165 H1181 0.961 . S
C1166 C1167 1.370 . S
C1166 C1168 1.363 . S
C1166 H1182 0.931 . S
C1167 C1166 1.370 . S
C1167 C1171 1.408 1_556 S
C1168 C1166 1.363 . S
C1168 C1169 1.370 . S
C1168 C1172 1.524 . S
C1169 C1161 1.503 . S
C1169 C1168 1.370 . S
C1169 C1170 1.403 . S
C1170 C1169 1.403 . S
C1170 C1171 1.404 1_556 S
C1170 C1173 1.539 1_556 S
C1171 C1167 1.408 1_554 S
C1171 C1170 1.404 1_554 S
C1171 H1183 0.930 . S
C1172 C1168 1.524 . S
C1172 H1184 0.956 . S
C1172 H1185 0.961 . S
C1172 H1186 0.961 . S
C1173 C1170 1.539 1_554 S
C1173 H1187 0.958 . S
C1173 H1188 0.961 . S
C1173 H1189 0.960 . S
H1174 C1158 0.931 . S
H1175 C1163 0.929 . S
H1176 C1164 0.960 . S
H1177 C1164 0.962 . S
H1178 C1164 0.960 . S
H1179 C1165 0.961 . S
H1180 C1165 0.961 . S
H1181 C1165 0.961 . S
H1182 C1166 0.931 . S
H1183 C1171 0.930 . S
H1184 C1172 0.956 . S
H1185 C1172 0.961 . S
H1186 C1172 0.961 . S
H1187 C1173 0.958 . S
H1188 C1173 0.961 . S
H1189 C1173 0.960 . S
C1190 C1191 1.391 . S
C1190 C1192 1.394 . S
C1190 H1206 0.931 . S
C1191 C1190 1.391 . S
C1191 C1195 1.376 . S
C1192 C1190 1.394 . S
C1192 C1193 1.369 . S
C1192 C1196 1.531 . S
C1193 C1192 1.369 . S
C1193 C1194 1.410 . S
C1193 C1201 1.503 . S
C1194 C1193 1.410 . S
C1194 C1195 1.392 . S
C1194 C1197 1.511 . S
C1195 C1191 1.376 . S
C1195 C1194 1.392 . S
C1195 H1207 0.929 . S
C1196 C1192 1.531 . S
C1196 H1208 0.960 . S
C1196 H1209 0.962 . S
C1196 H1210 0.960 . S
C1197 C1194 1.511 . S
C1197 H1211 0.961 . S
C1197 H1212 0.961 . S
C1197 H1213 0.961 . S
C1198 C1199 1.370 . S
C1198 C1200 1.363 . S
C1198 H1214 0.931 . S
C1199 C1198 1.370 . S
C1199 C1203 1.408 . S
C1200 C1198 1.363 . S
C1200 C1201 1.370 . S
C1200 C1204 1.524 . S
C1201 C1193 1.503 . S
C1201 C1200 1.370 . S
C1201 C1202 1.403 . S
C1202 C1201 1.403 . S
C1202 C1203 1.404 . S
C1202 C1205 1.539 . S
C1203 C1199 1.408 . S
C1203 C1202 1.404 . S
C1203 H1215 0.930 . S
C1204 C1200 1.524 . S
C1204 H1216 0.956 . S
C1204 H1217 0.961 . S
C1204 H1218 0.961 . S
C1205 C1202 1.539 . S
C1205 H1219 0.958 . S
C1205 H1220 0.961 . S
C1205 H1221 0.960 . S
H1206 C1190 0.931 . S
H1207 C1195 0.929 . S
H1208 C1196 0.960 . S
H1209 C1196 0.962 . S
H1210 C1196 0.960 . S
H1211 C1197 0.961 . S
H1212 C1197 0.961 . S
H1213 C1197 0.961 . S
H1214 C1198 0.931 . S
H1215 C1203 0.930 . S
H1216 C1204 0.956 . S
H1217 C1204 0.961 . S
H1218 C1204 0.961 . S
H1219 C1205 0.958 . S
H1220 C1205 0.961 . S
H1221 C1205 0.960 . S
C1222 C1223 1.391 . S
C1222 C1224 1.394 . S
C1222 H1238 0.931 . S
C1223 C1222 1.391 . S
C1223 C1227 1.376 . S
C1224 C1222 1.394 . S
C1224 C1225 1.369 . S
C1224 C1228 1.531 . S
C1225 C1224 1.369 . S
C1225 C1226 1.410 . S
C1225 C1233 1.503 . S
C1226 C1225 1.410 . S
C1226 C1227 1.392 . S
C1226 C1229 1.511 . S
C1227 C1223 1.376 . S
C1227 C1226 1.392 . S
C1227 H1239 0.929 . S
C1228 C1224 1.531 . S
C1228 H1240 0.959 . S
C1228 H1241 0.962 . S
C1228 H1242 0.960 . S
C1229 C1226 1.511 . S
C1229 H1243 0.961 . S
C1229 H1244 0.961 . S
C1229 H1245 0.961 . S
C1230 C1231 1.370 . S
C1230 C1232 1.363 . S
C1230 H1246 0.931 . S
C1231 C1230 1.370 . S
C1231 C1235 1.408 1_556 S
C1232 C1230 1.363 . S
C1232 C1233 1.370 . S
C1232 C1236 1.524 . S
C1233 C1225 1.503 . S
C1233 C1232 1.370 . S
C1233 C1234 1.403 1_556 S
C1234 C1233 1.403 1_554 S
C1234 C1235 1.404 . S
C1234 C1237 1.539 . S
C1235 C1231 1.408 1_554 S
C1235 C1234 1.404 . S
C1235 H1247 0.930 . S
C1236 C1232 1.524 . S
C1236 H1248 0.956 . S
C1236 H1249 0.961 . S
C1236 H1250 0.961 . S
C1237 C1234 1.539 . S
C1237 H1251 0.958 . S
C1237 H1252 0.961 . S
C1237 H1253 0.960 . S
H1238 C1222 0.931 . S
H1239 C1227 0.929 . S
H1240 C1228 0.959 . S
H1241 C1228 0.962 . S
H1242 C1228 0.960 . S
H1243 C1229 0.961 . S
H1244 C1229 0.961 . S
H1245 C1229 0.961 . S
H1246 C1230 0.931 . S
H1247 C1235 0.930 . S
H1248 C1236 0.956 . S
H1249 C1236 0.961 . S
H1250 C1236 0.961 . S
H1251 C1237 0.958 . S
H1252 C1237 0.961 . S
H1253 C1237 0.960 . S
C1254 C1255 1.391 . S
C1254 C1256 1.394 . S
C1254 H1270 0.931 . S
C1255 C1254 1.391 . S
C1255 C1259 1.376 . S
C1256 C1254 1.394 . S
C1256 C1257 1.369 . S
C1256 C1260 1.531 . S
C1257 C1256 1.369 . S
C1257 C1258 1.410 . S
C1257 C1265 1.503 . S
C1258 C1257 1.410 . S
C1258 C1259 1.392 . S
C1258 C1261 1.511 . S
C1259 C1255 1.376 . S
C1259 C1258 1.392 . S
C1259 H1271 0.929 . S
C1260 C1256 1.531 . S
C1260 H1272 0.960 . S
C1260 H1273 0.962 . S
C1260 H1274 0.960 . S
C1261 C1258 1.511 . S
C1261 H1275 0.961 . S
C1261 H1276 0.961 . S
C1261 H1277 0.961 . S
C1262 C1263 1.370 . S
C1262 C1264 1.363 . S
C1262 H1278 0.931 . S
C1263 C1262 1.370 . S
C1263 C1267 1.408 . S
C1264 C1262 1.363 . S
C1264 C1265 1.370 . S
C1264 C1268 1.524 . S
C1265 C1257 1.503 . S
C1265 C1264 1.370 . S
C1265 C1266 1.403 . S
C1266 C1265 1.403 . S
C1266 C1267 1.404 . S
C1266 C1269 1.539 1_556 S
C1267 C1263 1.408 . S
C1267 C1266 1.404 . S
C1267 H1279 0.930 1_556 S
C1268 C1264 1.524 . S
C1268 H1280 0.956 . S
C1268 H1281 0.961 . S
C1268 H1282 0.961 . S
C1269 C1266 1.539 1_554 S
C1269 H1283 0.958 . S
C1269 H1284 0.961 . S
C1269 H1285 0.960 1_554 S
H1270 C1254 0.931 . S
H1271 C1259 0.929 . S
H1272 C1260 0.960 . S
H1273 C1260 0.962 . S
H1274 C1260 0.960 . S
H1275 C1261 0.961 . S
H1276 C1261 0.961 . S
H1277 C1261 0.961 . S
H1278 C1262 0.931 . S
H1279 C1267 0.930 1_554 S
H1280 C1268 0.956 . S
H1281 C1268 0.961 . S
H1282 C1268 0.961 . S
H1283 C1269 0.958 . S
H1284 C1269 0.961 . S
H1285 C1269 0.960 1_556 S
C1286 C1287 1.391 . S
C1286 C1288 1.394 . S
C1286 H1302 0.931 . S
C1287 C1286 1.391 . S
C1287 C1291 1.376 . S
C1288 C1286 1.394 . S
C1288 C1289 1.369 . S
C1288 C1292 1.531 . S
C1289 C1288 1.369 . S
C1289 C1290 1.410 . S
C1289 C1297 1.503 . S
C1290 C1289 1.410 . S
C1290 C1291 1.392 . S
C1290 C1293 1.511 . S
C1291 C1287 1.376 . S
C1291 C1290 1.392 . S
C1291 H1303 0.929 . S
C1292 C1288 1.531 . S
C1292 H1304 0.960 . S
C1292 H1305 0.962 . S
C1292 H1306 0.960 . S
C1293 C1290 1.511 . S
C1293 H1307 0.961 . S
C1293 H1308 0.961 . S
C1293 H1309 0.961 . S
C1294 C1295 1.370 . S
C1294 C1296 1.363 . S
C1294 H1310 0.931 . S
C1295 C1294 1.370 . S
C1295 C1299 1.408 . S
C1296 C1294 1.363 . S
C1296 C1297 1.370 . S
C1296 C1300 1.524 . S
C1297 C1289 1.503 . S
C1297 C1296 1.370 . S
C1297 C1298 1.403 . S
C1298 C1297 1.403 . S
C1298 C1299 1.404 . S
C1298 C1301 1.539 . S
C1299 C1295 1.408 . S
C1299 C1298 1.404 . S
C1299 H1311 0.930 . S
C1300 C1296 1.524 . S
C1300 H1312 0.956 . S
C1300 H1313 0.961 . S
C1300 H1314 0.961 . S
C1301 C1298 1.539 . S
C1301 H1315 0.958 . S
C1301 H1316 0.961 . S
C1301 H1317 0.960 . S
H1302 C1286 0.931 . S
H1303 C1291 0.929 . S
H1304 C1292 0.960 . S
H1305 C1292 0.962 . S
H1306 C1292 0.960 . S
H1307 C1293 0.961 . S
H1308 C1293 0.961 . S
H1309 C1293 0.961 . S
H1310 C1294 0.931 . S
H1311 C1299 0.930 . S
H1312 C1300 0.956 . S
H1313 C1300 0.961 . S
H1314 C1300 0.961 . S
H1315 C1301 0.958 . S
H1316 C1301 0.961 . S
H1317 C1301 0.960 . S
C1318 C1319 1.391 . S
C1318 C1320 1.394 . S
C1318 H1334 0.931 . S
C1319 C1318 1.391 . S
C1319 C1323 1.376 . S
C1320 C1318 1.394 . S
C1320 C1321 1.369 . S
C1320 C1324 1.531 . S
C1321 C1320 1.369 . S
C1321 C1322 1.410 . S
C1321 C1329 1.503 . S
C1322 C1321 1.410 . S
C1322 C1323 1.392 . S
C1322 C1325 1.511 . S
C1323 C1319 1.376 . S
C1323 C1322 1.392 . S
C1323 H1335 0.929 . S
C1324 C1320 1.531 . S
C1324 H1336 0.960 . S
C1324 H1337 0.962 . S
C1324 H1338 0.960 . S
C1325 C1322 1.511 . S
C1325 H1339 0.961 . S
C1325 H1340 0.961 . S
C1325 H1341 0.961 . S
C1326 C1327 1.370 1_554 S
C1326 C1328 1.363 1_554 S
C1326 H1342 0.931 . S
C1327 C1326 1.370 1_556 S
C1327 C1331 1.408 . S
C1328 C1326 1.363 1_556 S
C1328 C1329 1.370 . S
C1328 C1332 1.524 1_556 S
C1329 C1321 1.503 . S
C1329 C1328 1.370 . S
C1329 C1330 1.403 . S
C1330 C1329 1.403 . S
C1330 C1331 1.404 . S
C1330 C1333 1.539 . S
C1331 C1327 1.408 . S
C1331 C1330 1.404 . S
C1331 H1343 0.930 . S
C1332 C1328 1.524 1_554 S
C1332 H1344 0.956 . S
C1332 H1345 0.961 . S
C1332 H1346 0.961 . S
C1333 C1330 1.539 . S
C1333 H1347 0.958 . S
C1333 H1348 0.961 . S
C1333 H1349 0.960 . S
H1334 C1318 0.931 . S
H1335 C1323 0.929 . S
H1336 C1324 0.960 . S
H1337 C1324 0.962 . S
H1338 C1324 0.960 . S
H1339 C1325 0.961 . S
H1340 C1325 0.961 . S
H1341 C1325 0.961 . S
H1342 C1326 0.931 . S
H1343 C1331 0.930 . S
H1344 C1332 0.956 . S
H1345 C1332 0.961 . S
H1346 C1332 0.961 . S
H1347 C1333 0.958 . S
H1348 C1333 0.961 . S
H1349 C1333 0.960 . S
C1350 C1351 1.391 . S
C1350 C1352 1.394 . S
C1350 H1366 0.931 . S
C1351 C1350 1.391 . S
C1351 C1355 1.376 . S
C1352 C1350 1.394 . S
C1352 C1353 1.369 . S
C1352 C1356 1.531 . S
C1353 C1352 1.369 . S
C1353 C1354 1.410 . S
C1353 C1361 1.503 . S
C1354 C1353 1.410 . S
C1354 C1355 1.392 . S
C1354 C1357 1.511 . S
C1355 C1351 1.376 . S
C1355 C1354 1.392 . S
C1355 H1367 0.929 . S
C1356 C1352 1.531 . S
C1356 H1368 0.960 . S
C1356 H1369 0.962 . S
C1356 H1370 0.960 . S
C1357 C1354 1.511 . S
C1357 H1371 1.010 . S
C1357 H1372 0.961 . S
C1357 H1373 0.961 . S
C1358 C1359 1.370 . S
C1358 C1360 1.363 . S
C1358 H1374 0.931 . S
C1359 C1358 1.370 . S
C1359 C1363 1.408 . S
C1360 C1358 1.363 . S
C1360 C1361 1.370 . S
C1360 C1364 1.524 . S
C1361 C1353 1.503 . S
C1361 C1360 1.370 . S
C1361 C1362 1.403 . S
C1362 C1361 1.403 . S
C1362 C1363 1.404 . S
C1362 C1365 1.539 . S
C1363 C1359 1.408 . S
C1363 C1362 1.404 . S
C1363 H1375 0.930 . S
C1364 C1360 1.524 . S
C1364 H1376 0.956 . S
C1364 H1377 0.961 . S
C1364 H1378 0.961 . S
C1365 C1362 1.539 . S
C1365 H1379 0.958 . S
C1365 H1380 0.961 . S
C1365 H1381 0.960 . S
H1366 C1350 0.931 . S
H1367 C1355 0.929 . S
H1368 C1356 0.960 . S
H1369 C1356 0.962 . S
H1370 C1356 0.960 . S
H1371 C1357 1.010 . S
H1372 C1357 0.961 . S
H1373 C1357 0.961 . S
H1374 C1358 0.931 . S
H1375 C1363 0.930 . S
H1376 C1364 0.956 . S
H1377 C1364 0.961 . S
H1378 C1364 0.961 . S
H1379 C1365 0.958 . S
H1380 C1365 0.961 . S
H1381 C1365 0.960 . S
C1382 C1383 1.391 . S
C1382 C1384 1.394 . S
C1382 H1398 0.931 . S
C1383 C1382 1.391 . S
C1383 C1387 1.376 . S
C1384 C1382 1.394 . S
C1384 C1385 1.369 . S
C1384 C1388 1.531 . S
C1385 C1384 1.369 . S
C1385 C1386 1.410 . S
C1385 C1393 1.503 . S
C1386 C1385 1.410 . S
C1386 C1387 1.392 . S
C1386 C1389 1.511 . S
C1387 C1383 1.376 . S
C1387 C1386 1.392 . S
C1387 H1399 0.929 . S
C1388 C1384 1.531 . S
C1388 H1400 0.960 . S
C1388 H1401 0.962 . S
C1388 H1402 0.960 . S
C1389 C1386 1.511 . S
C1389 H1403 0.961 . S
C1389 H1404 0.961 . S
C1389 H1405 0.961 . S
C1390 C1391 1.370 . S
C1390 C1392 1.363 . S
C1390 H1406 0.931 . S
C1391 C1390 1.370 . S
C1391 C1395 1.408 . S
C1392 C1390 1.363 . S
C1392 C1393 1.370 . S
C1392 C1396 1.524 . S
C1393 C1385 1.503 . S
C1393 C1392 1.370 . S
C1393 C1394 1.403 . S
C1394 C1393 1.403 . S
C1394 C1395 1.404 . S
C1394 C1397 1.539 . S
C1395 C1391 1.408 . S
C1395 C1394 1.404 . S
C1395 H1407 0.930 . S
C1396 C1392 1.524 . S
C1396 H1408 0.956 . S
C1396 H1409 0.961 . S
C1396 H1410 0.961 . S
C1397 C1394 1.539 . S
C1397 H1411 0.958 . S
C1397 H1412 0.961 . S
C1397 H1413 0.960 . S
H1398 C1382 0.931 . S
H1399 C1387 0.929 . S
H1400 C1388 0.960 . S
H1401 C1388 0.962 . S
H1402 C1388 0.960 . S
H1403 C1389 0.961 . S
H1404 C1389 0.961 . S
H1405 C1389 0.961 . S
H1406 C1390 0.931 . S
H1407 C1395 0.930 . S
H1408 C1396 0.956 . S
H1409 C1396 0.961 . S
H1410 C1396 0.961 . S
H1411 C1397 0.958 . S
H1412 C1397 0.961 . S
H1413 C1397 0.960 . S
C1414 C1415 1.391 . S
C1414 C1416 1.394 . S
C1414 H1430 0.931 . S
C1415 C1414 1.391 . S
C1415 C1419 1.376 . S
C1416 C1414 1.394 . S
C1416 C1417 1.369 . S
C1416 C1420 1.531 . S
C1417 C1416 1.369 . S
C1417 C1418 1.410 . S
C1417 C1425 1.503 . S
C1418 C1417 1.410 . S
C1418 C1419 1.392 . S
C1418 C1421 1.511 . S
C1419 C1415 1.376 . S
C1419 C1418 1.392 . S
C1419 H1431 0.929 . S
C1420 C1416 1.531 . S
C1420 H1432 0.960 . S
C1420 H1433 1.035 . S
C1420 H1434 0.960 . S
C1421 C1418 1.511 . S
C1421 H1435 0.961 . S
C1421 H1436 0.961 . S
C1421 H1437 0.961 . S
C1422 C1423 1.370 . S
C1422 C1424 1.363 . S
C1422 H1438 0.931 1_554 S
C1423 C1422 1.370 . S
C1423 C1427 1.408 . S
C1424 C1422 1.363 . S
C1424 C1425 1.370 . S
C1424 C1428 1.544 . S
C1425 C1417 1.503 . S
C1425 C1424 1.370 . S
C1425 C1426 1.403 . S
C1426 C1425 1.403 . S
C1426 C1427 1.404 . S
C1426 C1429 1.539 . S
C1427 C1423 1.408 . S
C1427 C1426 1.404 . S
C1427 H1439 0.930 . S
C1428 C1424 1.544 . S
C1428 H1440 0.945 1_554 S
C1428 H1441 0.979 . S
C1428 H1442 0.935 1_554 S
C1429 C1426 1.539 . S
C1429 H1443 0.958 . S
C1429 H1444 0.961 . S
C1429 H1445 0.960 . S
H1430 C1414 0.931 . S
H1431 C1419 0.929 . S
H1432 C1420 0.960 . S
H1433 C1420 1.035 . S
H1434 C1420 0.960 . S
H1435 C1421 0.961 . S
H1436 C1421 0.961 . S
H1437 C1421 0.961 . S
H1438 C1422 0.931 1_556 S
H1439 C1427 0.930 . S
H1440 C1428 0.945 1_556 S
H1441 C1428 0.979 . S
H1442 C1428 0.935 1_556 S
H1443 C1429 0.958 . S
H1444 C1429 0.961 . S
H1445 C1429 0.960 . S
C1446 C1447 1.391 . S
C1446 C1448 1.394 1_655 S
C1446 H1462 0.931 . S
C1447 C1446 1.391 . S
C1447 C1451 1.376 . S
C1448 C1446 1.394 1_455 S
C1448 C1449 1.369 . S
C1448 C1452 1.531 . S
C1449 C1448 1.369 . S
C1449 C1450 1.410 . S
C1449 C1457 1.503 . S
C1450 C1449 1.410 . S
C1450 C1451 1.392 1_455 S
C1450 C1453 1.511 . S
C1451 C1447 1.376 . S
C1451 C1450 1.392 1_655 S
C1451 H1463 0.929 . S
C1452 C1448 1.531 . S
C1452 H1464 0.960 . S
C1452 H1465 0.962 . S
C1452 H1466 0.960 . S
C1453 C1450 1.511 . S
C1453 H1467 0.961 . S
C1453 H1468 0.961 . S
C1453 H1469 0.961 . S
C1454 C1455 1.370 . S
C1454 C1456 1.363 . S
C1454 H1470 0.931 . S
C1455 C1454 1.370 . S
C1455 C1459 1.408 . S
C1456 C1454 1.363 . S
C1456 C1457 1.370 . S
C1456 C1460 1.524 . S
C1457 C1449 1.503 . S
C1457 C1456 1.370 . S
C1457 C1458 1.403 . S
C1458 C1457 1.403 . S
C1458 C1459 1.404 . S
C1458 C1461 1.539 . S
C1459 C1455 1.408 . S
C1459 C1458 1.404 . S
C1459 H1471 0.930 . S
C1460 C1456 1.524 . S
C1460 H1472 0.956 . S
C1460 H1473 0.961 . S
C1460 H1474 0.961 . S
C1461 C1458 1.539 . S
C1461 H1475 0.958 . S
C1461 H1476 0.961 . S
C1461 H1477 0.960 . S
H1462 C1446 0.931 . S
H1463 C1451 0.929 . S
H1464 C1452 0.960 . S
H1465 C1452 0.962 . S
H1466 C1452 0.960 . S
H1467 C1453 0.961 . S
H1468 C1453 0.961 . S
H1469 C1453 0.961 . S
H1470 C1454 0.931 . S
H1471 C1459 0.930 . S
H1472 C1460 0.956 . S
H1473 C1460 0.961 . S
H1474 C1460 0.961 . S
H1475 C1461 0.958 . S
H1476 C1461 0.961 . S
H1477 C1461 0.960 . S
C1478 C1479 1.391 . S
C1478 C1480 1.394 . S
C1478 H1494 0.931 . S
C1479 C1478 1.391 . S
C1479 C1483 1.376 . S
C1480 C1478 1.394 . S
C1480 C1481 1.369 . S
C1480 C1484 1.531 . S
C1481 C1480 1.369 . S
C1481 C1482 1.410 . S
C1481 C1489 1.503 . S
C1482 C1481 1.410 . S
C1482 C1483 1.392 . S
C1482 C1485 1.511 . S
C1483 C1479 1.376 . S
C1483 C1482 1.392 . S
C1483 H1495 0.929 . S
C1484 C1480 1.531 . S
C1484 H1496 0.960 . S
C1484 H1497 0.962 . S
C1484 H1498 0.960 . S
C1485 C1482 1.511 . S
C1485 H1499 0.961 . S
C1485 H1500 0.961 . S
C1485 H1501 0.961 . S
C1486 C1487 1.370 . S
C1486 C1488 1.363 . S
C1486 H1502 0.931 . S
C1487 C1486 1.370 . S
C1487 C1491 1.408 . S
C1488 C1486 1.363 . S
C1488 C1489 1.370 . S
C1488 C1492 1.524 . S
C1489 C1481 1.503 . S
C1489 C1488 1.370 . S
C1489 C1490 1.403 . S
C1490 C1489 1.403 . S
C1490 C1491 1.404 . S
C1490 C1493 1.539 . S
C1491 C1487 1.408 . S
C1491 C1490 1.404 . S
C1491 H1503 0.930 . S
C1492 C1488 1.524 . S
C1492 H1504 0.956 . S
C1492 H1505 0.961 . S
C1492 H1506 0.961 . S
C1493 C1490 1.539 . S
C1493 H1507 0.958 . S
C1493 H1508 0.961 . S
C1493 H1509 0.960 . S
H1494 C1478 0.931 . S
H1495 C1483 0.929 . S
H1496 C1484 0.960 . S
H1497 C1484 0.962 . S
H1498 C1484 0.960 . S
H1499 C1485 0.961 . S
H1500 C1485 0.961 . S
H1501 C1485 0.961 . S
H1502 C1486 0.931 . S
H1503 C1491 0.930 . S
H1504 C1492 0.956 . S
H1505 C1492 0.961 . S
H1506 C1492 0.961 . S
H1507 C1493 0.958 . S
H1508 C1493 0.961 . S
H1509 C1493 0.960 . S
C1510 C1511 1.391 . S
C1510 C1512 1.394 . S
C1510 H1526 0.931 . S
C1511 C1510 1.391 . S
C1511 C1515 1.376 . S
C1512 C1510 1.394 . S
C1512 C1513 1.369 1_545 S
C1512 C1516 1.531 1_545 S
C1513 C1512 1.369 1_565 S
C1513 C1514 1.410 1_565 S
C1513 C1521 1.503 . S
C1514 C1513 1.410 1_545 S
C1514 C1515 1.392 . S
C1514 C1517 1.511 1_545 S
C1515 C1511 1.376 . S
C1515 C1514 1.392 . S
C1515 H1527 0.929 . S
C1516 C1512 1.531 1_565 S
C1516 H1528 0.960 . S
C1516 H1529 0.962 . S
C1516 H1530 0.960 . S
C1517 C1514 1.511 1_565 S
C1517 H1531 0.961 1_565 S
C1517 H1532 0.961 . S
C1517 H1533 0.961 . S
C1518 C1519 1.370 . S
C1518 C1520 1.363 . S
C1518 H1534 0.931 . S
C1519 C1518 1.370 . S
C1519 C1523 1.408 . S
C1520 C1518 1.363 . S
C1520 C1521 1.370 . S
C1520 C1524 1.524 . S
C1521 C1513 1.503 . S
C1521 C1520 1.370 . S
C1521 C1522 1.403 . S
C1522 C1521 1.403 . S
C1522 C1523 1.404 . S
C1522 C1525 1.539 . S
C1523 C1519 1.408 . S
C1523 C1522 1.404 . S
C1523 H1535 0.930 . S
C1524 C1520 1.524 . S
C1524 H1536 0.956 . S
C1524 H1537 0.961 . S
C1524 H1538 0.961 . S
C1525 C1522 1.539 . S
C1525 H1539 0.958 . S
C1525 H1540 0.961 . S
C1525 H1541 0.960 . S
H1526 C1510 0.931 . S
H1527 C1515 0.929 . S
H1528 C1516 0.960 . S
H1529 C1516 0.962 . S
H1530 C1516 0.960 . S
H1531 C1517 0.961 1_545 S
H1532 C1517 0.961 . S
H1533 C1517 0.961 . S
H1534 C1518 0.931 . S
H1535 C1523 0.930 . S
H1536 C1524 0.956 . S
H1537 C1524 0.961 . S
H1538 C1524 0.961 . S
H1539 C1525 0.958 . S
H1540 C1525 0.961 . S
H1541 C1525 0.960 . S
C1542 C1543 1.391 . S
C1542 C1544 1.394 . S
C1542 H1558 0.931 . S
C1543 C1542 1.391 . S
C1543 C1547 1.376 . S
C1544 C1542 1.394 . S
C1544 C1545 1.369 . S
C1544 C1548 1.531 . S
C1545 C1544 1.369 . S
C1545 C1546 1.410 . S
C1545 C1553 1.503 . S
C1546 C1545 1.410 . S
C1546 C1547 1.392 . S
C1546 C1549 1.511 . S
C1547 C1543 1.376 . S
C1547 C1546 1.392 . S
C1547 H1559 0.929 . S
C1548 C1544 1.531 . S
C1548 H1560 0.960 . S
C1548 H1561 0.962 . S
C1548 H1562 0.960 . S
C1549 C1546 1.511 . S
C1549 H1563 0.961 . S
C1549 H1564 0.961 . S
C1549 H1565 0.961 . S
C1550 C1551 1.370 . S
C1550 C1552 1.363 . S
C1550 H1566 0.931 . S
C1551 C1550 1.370 . S
C1551 C1555 1.408 . S
C1552 C1550 1.363 . S
C1552 C1553 1.370 . S
C1552 C1556 1.524 . S
C1553 C1545 1.503 . S
C1553 C1552 1.370 . S
C1553 C1554 1.403 . S
C1554 C1553 1.403 . S
C1554 C1555 1.404 . S
C1554 C1557 1.539 . S
C1555 C1551 1.408 . S
C1555 C1554 1.404 . S
C1555 H1567 0.930 . S
C1556 C1552 1.524 . S
C1556 H1568 0.956 . S
C1556 H1569 0.961 . S
C1556 H1570 0.961 . S
C1557 C1554 1.539 . S
C1557 H1571 0.958 . S
C1557 H1572 0.961 . S
C1557 H1573 0.960 . S
H1558 C1542 0.931 . S
H1559 C1547 0.929 . S
H1560 C1548 0.960 . S
H1561 C1548 0.962 . S
H1562 C1548 0.960 . S
H1563 C1549 0.961 . S
H1564 C1549 0.961 . S
H1565 C1549 0.961 . S
H1566 C1550 0.931 . S
H1567 C1555 0.930 . S
H1568 C1556 0.956 . S
H1569 C1556 0.961 . S
H1570 C1556 0.961 . S
H1571 C1557 0.958 . S
H1572 C1557 0.961 . S
H1573 C1557 0.960 . S
C1574 C1575 1.391 . S
C1574 C1576 1.394 . S
C1574 H1590 0.931 . S
C1575 C1574 1.391 . S
C1575 C1579 1.376 . S
C1576 C1574 1.394 . S
C1576 C1577 1.369 . S
C1576 C1580 1.531 . S
C1577 C1576 1.369 . S
C1577 C1578 1.410 . S
C1577 C1585 1.503 . S
C1578 C1577 1.410 . S
C1578 C1579 1.392 . S
C1578 C1581 1.511 . S
C1579 C1575 1.376 . S
C1579 C1578 1.392 . S
C1579 H1591 0.929 . S
C1580 C1576 1.531 . S
C1580 H1592 0.960 . S
C1580 H1593 0.962 . S
C1580 H1594 0.960 . S
C1581 C1578 1.511 . S
C1581 H1595 0.961 . S
C1581 H1596 0.961 . S
C1581 H1597 0.961 . S
C1582 C1583 1.370 . S
C1582 C1584 1.363 . S
C1582 H1598 0.931 . S
C1583 C1582 1.370 . S
C1583 C1587 1.408 . S
C1584 C1582 1.363 . S
C1584 C1585 1.370 . S
C1584 C1588 1.524 . S
C1585 C1577 1.503 . S
C1585 C1584 1.370 . S
C1585 C1586 1.403 . S
C1586 C1585 1.403 . S
C1586 C1587 1.404 . S
C1586 C1589 1.539 . S
C1587 C1583 1.408 . S
C1587 C1586 1.404 . S
C1587 H1599 0.930 . S
C1588 C1584 1.524 . S
C1588 H1600 0.956 . S
C1588 H1601 0.961 . S
C1588 H1602 0.961 . S
C1589 C1586 1.539 . S
C1589 H1603 0.958 . S
C1589 H1604 0.961 . S
C1589 H1605 0.960 . S
H1590 C1574 0.931 . S
H1591 C1579 0.929 . S
H1592 C1580 0.960 . S
H1593 C1580 0.962 . S
H1594 C1580 0.960 . S
H1595 C1581 0.961 . S
H1596 C1581 0.961 . S
H1597 C1581 0.961 . S
H1598 C1582 0.931 . S
H1599 C1587 0.930 . S
H1600 C1588 0.956 . S
H1601 C1588 0.961 . S
H1602 C1588 0.961 . S
H1603 C1589 0.958 . S
H1604 C1589 0.961 . S
H1605 C1589 0.960 . S
C1606 C1607 1.391 . S
C1606 C1608 1.394 . S
C1606 H1622 0.931 . S
C1607 C1606 1.391 . S
C1607 C1611 1.376 . S
C1608 C1606 1.394 . S
C1608 C1609 1.369 . S
C1608 C1612 1.531 . S
C1609 C1608 1.369 . S
C1609 C1610 1.410 . S
C1609 C1617 1.503 . S
C1610 C1609 1.410 . S
C1610 C1611 1.392 . S
C1610 C1613 1.511 . S
C1611 C1607 1.376 . S
C1611 C1610 1.392 . S
C1611 H1623 0.929 . S
C1612 C1608 1.531 . S
C1612 H1624 0.960 . S
C1612 H1625 0.962 . S
C1612 H1626 0.960 . S
C1613 C1610 1.511 . S
C1613 H1627 0.961 . S
C1613 H1628 0.961 . S
C1613 H1629 0.961 . S
C1614 C1615 1.370 . S
C1614 C1616 1.363 . S
C1614 H1630 0.931 . S
C1615 C1614 1.370 . S
C1615 C1619 1.408 . S
C1616 C1614 1.363 . S
C1616 C1617 1.370 . S
C1616 C1620 1.524 . S
C1617 C1609 1.503 . S
C1617 C1616 1.370 . S
C1617 C1618 1.403 . S
C1618 C1617 1.403 . S
C1618 C1619 1.404 . S
C1618 C1621 1.539 . S
C1619 C1615 1.408 . S
C1619 C1618 1.404 . S
C1619 H1631 0.930 . S
C1620 C1616 1.524 . S
C1620 H1632 0.956 . S
C1620 H1633 0.961 . S
C1620 H1634 0.961 . S
C1621 C1618 1.539 . S
C1621 H1635 0.958 . S
C1621 H1636 0.961 . S
C1621 H1637 0.960 . S
H1622 C1606 0.931 . S
H1623 C1611 0.929 . S
H1624 C1612 0.960 . S
H1625 C1612 0.962 . S
H1626 C1612 0.960 . S
H1627 C1613 0.961 . S
H1628 C1613 0.961 . S
H1629 C1613 0.961 . S
H1630 C1614 0.931 . S
H1631 C1619 0.930 . S
H1632 C1620 0.956 . S
H1633 C1620 0.961 . S
H1634 C1620 0.961 . S
H1635 C1621 0.958 . S
H1636 C1621 0.961 . S
H1637 C1621 0.960 . S
C1638 C1639 1.391 . S
C1638 C1640 1.394 . S
C1638 H1654 0.931 . S
C1639 C1638 1.391 . S
C1639 C1643 1.376 . S
C1640 C1638 1.394 . S
C1640 C1641 1.369 . S
C1640 C1644 1.531 . S
C1641 C1640 1.369 . S
C1641 C1642 1.410 . S
C1641 C1649 1.503 . S
C1642 C1641 1.410 . S
C1642 C1643 1.392 . S
C1642 C1645 1.511 . S
C1643 C1639 1.376 . S
C1643 C1642 1.392 . S
C1643 H1655 0.929 . S
C1644 C1640 1.531 . S
C1644 H1656 0.960 . S
C1644 H1657 0.962 . S
C1644 H1658 0.960 . S
C1645 C1642 1.511 . S
C1645 H1659 0.961 . S
C1645 H1660 0.961 . S
C1645 H1661 0.961 . S
C1646 C1647 1.370 . S
C1646 C1648 1.363 . S
C1646 H1662 0.931 . S
C1647 C1646 1.370 . S
C1647 C1651 1.408 . S
C1648 C1646 1.363 . S
C1648 C1649 1.370 . S
C1648 C1652 1.524 . S
C1649 C1641 1.503 . S
C1649 C1648 1.370 . S
C1649 C1650 1.403 . S
C1650 C1649 1.403 . S
C1650 C1651 1.404 . S
C1650 C1653 1.539 . S
C1651 C1647 1.408 . S
C1651 C1650 1.404 . S
C1651 H1663 0.930 . S
C1652 C1648 1.524 . S
C1652 H1664 0.956 . S
C1652 H1665 0.961 . S
C1652 H1666 0.961 . S
C1653 C1650 1.539 . S
C1653 H1667 0.958 . S
C1653 H1668 0.961 . S
C1653 H1669 0.960 . S
H1654 C1638 0.931 . S
H1655 C1643 0.929 . S
H1656 C1644 0.960 . S
H1657 C1644 0.962 . S
H1658 C1644 0.960 . S
H1659 C1645 0.961 . S
H1660 C1645 0.961 . S
H1661 C1645 0.961 . S
H1662 C1646 0.931 . S
H1663 C1651 0.930 . S
H1664 C1652 0.956 . S
H1665 C1652 0.961 . S
H1666 C1652 0.961 . S
H1667 C1653 0.958 . S
H1668 C1653 0.961 . S
H1669 C1653 0.960 . S
C1670 C1671 1.391 . S
C1670 C1672 1.394 . S
C1670 H1686 0.931 . S
C1671 C1670 1.391 . S
C1671 C1675 1.376 . S
C1672 C1670 1.394 . S
C1672 C1673 1.369 . S
C1672 C1676 1.531 . S
C1673 C1672 1.369 . S
C1673 C1674 1.410 . S
C1673 C1681 1.503 . S
C1674 C1673 1.410 . S
C1674 C1675 1.392 . S
C1674 C1677 1.511 . S
C1675 C1671 1.376 . S
C1675 C1674 1.392 . S
C1675 H1687 0.929 . S
C1676 C1672 1.531 . S
C1676 H1688 0.960 . S
C1676 H1689 0.962 . S
C1676 H1690 0.960 . S
C1677 C1674 1.511 . S
C1677 H1691 0.961 . S
C1677 H1692 0.961 . S
C1677 H1693 0.961 . S
C1678 C1679 1.370 . S
C1678 C1680 1.363 . S
C1678 H1694 0.931 . S
C1679 C1678 1.370 . S
C1679 C1683 1.408 . S
C1680 C1678 1.363 . S
C1680 C1681 1.370 . S
C1680 C1684 1.524 . S
C1681 C1673 1.503 . S
C1681 C1680 1.370 . S
C1681 C1682 1.403 . S
C1682 C1681 1.403 . S
C1682 C1683 1.404 . S
C1682 C1685 1.539 . S
C1683 C1679 1.408 . S
C1683 C1682 1.404 . S
C1683 H1695 0.930 . S
C1684 C1680 1.524 . S
C1684 H1696 0.956 . S
C1684 H1697 0.961 . S
C1684 H1698 0.961 . S
C1685 C1682 1.539 . S
C1685 H1699 0.958 . S
C1685 H1700 0.961 . S
C1685 H1701 0.960 . S
H1686 C1670 0.931 . S
H1687 C1675 0.929 . S
H1688 C1676 0.960 . S
H1689 C1676 0.962 . S
H1690 C1676 0.960 . S
H1691 C1677 0.961 . S
H1692 C1677 0.961 . S
H1693 C1677 0.961 . S
H1694 C1678 0.931 . S
H1695 C1683 0.930 . S
H1696 C1684 0.956 . S
H1697 C1684 0.961 . S
H1698 C1684 0.961 . S
H1699 C1685 0.958 . S
H1700 C1685 0.961 . S
H1701 C1685 0.960 . S
C1702 C1703 1.391 . S
C1702 C1704 1.394 . S
C1702 H1718 0.931 . S
C1703 C1702 1.391 . S
C1703 C1707 1.376 . S
C1704 C1702 1.394 . S
C1704 C1705 1.369 . S
C1704 C1708 1.531 . S
C1705 C1704 1.369 . S
C1705 C1706 1.410 . S
C1705 C1713 1.503 . S
C1706 C1705 1.410 . S
C1706 C1707 1.392 . S
C1706 C1709 1.511 . S
C1707 C1703 1.376 . S
C1707 C1706 1.392 . S
C1707 H1719 0.929 . S
C1708 C1704 1.531 . S
C1708 H1720 0.960 . S
C1708 H1721 0.962 . S
C1708 H1722 0.960 . S
C1709 C1706 1.511 . S
C1709 H1723 0.961 . S
C1709 H1724 0.961 . S
C1709 H1725 0.961 . S
C1710 C1711 1.370 . S
C1710 C1712 1.363 . S
C1710 H1726 0.931 . S
C1711 C1710 1.370 . S
C1711 C1715 1.408 . S
C1712 C1710 1.363 . S
C1712 C1713 1.370 . S
C1712 C1716 1.524 . S
C1713 C1705 1.503 . S
C1713 C1712 1.370 . S
C1713 C1714 1.403 . S
C1714 C1713 1.403 . S
C1714 C1715 1.404 . S
C1714 C1717 1.539 . S
C1715 C1711 1.408 . S
C1715 C1714 1.404 . S
C1715 H1727 0.930 . S
C1716 C1712 1.524 . S
C1716 H1728 0.956 . S
C1716 H1729 0.961 . S
C1716 H1730 0.961 . S
C1717 C1714 1.539 . S
C1717 H1731 0.958 . S
C1717 H1732 0.961 . S
C1717 H1733 0.960 . S
H1718 C1702 0.931 . S
H1719 C1707 0.929 . S
H1720 C1708 0.960 . S
H1721 C1708 0.962 . S
H1722 C1708 0.960 . S
H1723 C1709 0.961 . S
H1724 C1709 0.961 . S
H1725 C1709 0.961 . S
H1726 C1710 0.931 . S
H1727 C1715 0.930 . S
H1728 C1716 0.956 . S
H1729 C1716 0.961 . S
H1730 C1716 0.961 . S
H1731 C1717 0.958 . S
H1732 C1717 0.961 . S
H1733 C1717 0.960 . S
C1734 C1735 1.391 . S
C1734 C1736 1.408 . S
C1734 H1750 0.931 . S
C1735 C1734 1.391 . S
C1735 C1739 1.376 . S
C1736 C1734 1.408 . S
C1736 C1737 1.359 1_545 S
C1736 C1740 1.526 1_545 S
C1737 C1736 1.359 1_565 S
C1737 C1738 1.410 . S
C1737 C1745 1.503 . S
C1738 C1737 1.410 . S
C1738 C1739 1.392 1_565 S
C1738 C1741 1.511 . S
C1739 C1735 1.376 . S
C1739 C1738 1.392 1_545 S
C1739 H1751 0.929 . S
C1740 C1736 1.526 1_565 S
C1740 H1752 0.960 . S
C1740 H1753 0.962 . S
C1740 H1754 0.960 1_565 S
C1741 C1738 1.511 . S
C1741 H1755 0.961 . S
C1741 H1756 0.961 . S
C1741 H1757 0.961 . S
C1742 C1743 1.370 . S
C1742 C1744 1.363 . S
C1742 H1758 0.931 . S
C1743 C1742 1.370 . S
C1743 C1747 1.408 . S
C1744 C1742 1.363 . S
C1744 C1745 1.370 . S
C1744 C1748 1.524 . S
C1745 C1737 1.503 . S
C1745 C1744 1.370 . S
C1745 C1746 1.403 . S
C1746 C1745 1.403 . S
C1746 C1747 1.404 . S
C1746 C1749 1.539 . S
C1747 C1743 1.408 . S
C1747 C1746 1.404 . S
C1747 H1759 0.930 . S
C1748 C1744 1.524 . S
C1748 H1760 0.956 . S
C1748 H1761 0.961 . S
C1748 H1762 0.961 . S
C1749 C1746 1.539 . S
C1749 H1763 0.958 . S
C1749 H1764 0.961 . S
C1749 H1765 0.960 . S
H1750 C1734 0.931 . S
H1751 C1739 0.929 . S
H1752 C1740 0.960 . S
H1753 C1740 0.962 . S
H1754 C1740 0.960 1_545 S
H1755 C1741 0.961 . S
H1756 C1741 0.961 . S
H1757 C1741 0.961 . S
H1758 C1742 0.931 . S
H1759 C1747 0.930 . S
H1760 C1748 0.956 . S
H1761 C1748 0.961 . S
H1762 C1748 0.961 . S
H1763 C1749 0.958 . S
H1764 C1749 0.961 . S
H1765 C1749 0.960 . S
C1766 C1767 1.391 1_455 S
C1766 C1768 1.394 . S
C1766 H1782 0.931 . S
C1767 C1766 1.391 1_655 S
C1767 C1771 1.376 . S
C1768 C1766 1.394 . S
C1768 C1769 1.369 . S
C1768 C1772 1.531 . S
C1769 C1768 1.369 . S
C1769 C1770 1.410 . S
C1769 C1777 1.503 . S
C1770 C1769 1.410 . S
C1770 C1771 1.392 1_455 S
C1770 C1773 1.511 . S
C1771 C1767 1.376 . S
C1771 C1770 1.392 1_655 S
C1771 H1783 0.929 . S
C1772 C1768 1.531 . S
C1772 H1784 0.960 . S
C1772 H1785 0.962 . S
C1772 H1786 0.960 . S
C1773 C1770 1.511 . S
C1773 H1787 0.961 1_455 S
C1773 H1788 0.961 . S
C1773 H1789 0.961 . S
C1774 C1775 1.370 . S
C1774 C1776 1.363 . S
C1774 H1790 0.931 . S
C1775 C1774 1.370 . S
C1775 C1779 1.408 . S
C1776 C1774 1.363 . S
C1776 C1777 1.370 . S
C1776 C1780 1.524 . S
C1777 C1769 1.503 . S
C1777 C1776 1.370 . S
C1777 C1778 1.403 . S
C1778 C1777 1.403 . S
C1778 C1779 1.404 . S
C1778 C1781 1.539 . S
C1779 C1775 1.408 . S
C1779 C1778 1.404 . S
C1779 H1791 0.930 . S
C1780 C1776 1.524 . S
C1780 H1792 0.956 . S
C1780 H1793 0.961 . S
C1780 H1794 0.961 . S
C1781 C1778 1.539 . S
C1781 H1795 0.958 . S
C1781 H1796 0.961 . S
C1781 H1797 0.960 . S
H1782 C1766 0.931 . S
H1783 C1771 0.929 . S
H1784 C1772 0.960 . S
H1785 C1772 0.962 . S
H1786 C1772 0.960 . S
H1787 C1773 0.961 1_655 S
H1788 C1773 0.961 . S
H1789 C1773 0.961 . S
H1790 C1774 0.931 . S
H1791 C1779 0.930 . S
H1792 C1780 0.956 . S
H1793 C1780 0.961 . S
H1794 C1780 0.961 . S
H1795 C1781 0.958 . S
H1796 C1781 0.961 . S
H1797 C1781 0.960 . S
C1798 C1799 1.391 . S
C1798 C1800 1.394 . S
C1798 H1814 0.931 . S
C1799 C1798 1.391 . S
C1799 C1803 1.376 . S
C1800 C1798 1.394 . S
C1800 C1801 1.369 . S
C1800 C1804 1.531 . S
C1801 C1800 1.369 . S
C1801 C1802 1.410 . S
C1801 C1809 1.503 . S
C1802 C1801 1.410 . S
C1802 C1803 1.392 . S
C1802 C1805 1.511 . S
C1803 C1799 1.376 . S
C1803 C1802 1.392 . S
C1803 H1815 0.929 . S
C1804 C1800 1.531 . S
C1804 H1816 0.960 . S
C1804 H1817 0.962 . S
C1804 H1818 0.960 . S
C1805 C1802 1.511 . S
C1805 H1819 0.961 . S
C1805 H1820 0.961 . S
C1805 H1821 0.961 . S
C1806 C1807 1.370 . S
C1806 C1808 1.363 . S
C1806 H1822 0.931 . S
C1807 C1806 1.370 . S
C1807 C1811 1.408 . S
C1808 C1806 1.363 . S
C1808 C1809 1.370 . S
C1808 C1812 1.524 . S
C1809 C1801 1.503 . S
C1809 C1808 1.370 . S
C1809 C1810 1.403 . S
C1810 C1809 1.403 . S
C1810 C1811 1.404 . S
C1810 C1813 1.539 . S
C1811 C1807 1.408 . S
C1811 C1810 1.404 . S
C1811 H1823 0.930 . S
C1812 C1808 1.524 . S
C1812 H1824 0.956 . S
C1812 H1825 0.961 . S
C1812 H1826 0.961 . S
C1813 C1810 1.539 . S
C1813 H1827 0.958 . S
C1813 H1828 0.961 . S
C1813 H1829 0.960 . S
H1814 C1798 0.931 . S
H1815 C1803 0.929 . S
H1816 C1804 0.960 . S
H1817 C1804 0.962 . S
H1818 C1804 0.960 . S
H1819 C1805 0.961 . S
H1820 C1805 0.961 . S
H1821 C1805 0.961 . S
H1822 C1806 0.931 . S
H1823 C1811 0.930 . S
H1824 C1812 0.956 . S
H1825 C1812 0.961 . S
H1826 C1812 0.961 . S
H1827 C1813 0.958 . S
H1828 C1813 0.961 . S
H1829 C1813 0.960 . S
C1830 C1831 1.391 . S
C1830 C1832 1.394 . S
C1830 H1846 0.931 . S
C1831 C1830 1.391 . S
C1831 C1835 1.376 . S
C1832 C1830 1.394 . S
C1832 C1833 1.369 . S
C1832 C1836 1.531 . S
C1833 C1832 1.369 . S
C1833 C1834 1.410 . S
C1833 C1841 1.503 . S
C1834 C1833 1.410 . S
C1834 C1835 1.392 . S
C1834 C1837 1.511 . S
C1835 C1831 1.376 . S
C1835 C1834 1.392 . S
C1835 H1847 0.929 . S
C1836 C1832 1.531 . S
C1836 H1848 0.960 . S
C1836 H1849 0.962 . S
C1836 H1850 0.960 . S
C1837 C1834 1.511 . S
C1837 H1851 0.961 . S
C1837 H1852 0.961 . S
C1837 H1853 0.961 . S
C1838 C1839 1.370 . S
C1838 C1840 1.363 . S
C1838 H1854 0.931 . S
C1839 C1838 1.370 . S
C1839 C1843 1.408 . S
C1840 C1838 1.363 . S
C1840 C1841 1.370 . S
C1840 C1844 1.524 . S
C1841 C1833 1.503 . S
C1841 C1840 1.370 . S
C1841 C1842 1.403 . S
C1842 C1841 1.403 . S
C1842 C1843 1.404 . S
C1842 C1845 1.539 . S
C1843 C1839 1.408 . S
C1843 C1842 1.404 . S
C1843 H1855 0.930 . S
C1844 C1840 1.524 . S
C1844 H1856 0.956 . S
C1844 H1857 0.961 . S
C1844 H1858 0.961 . S
C1845 C1842 1.539 . S
C1845 H1859 0.958 . S
C1845 H1860 0.961 . S
C1845 H1861 0.960 . S
H1846 C1830 0.931 . S
H1847 C1835 0.929 . S
H1848 C1836 0.960 . S
H1849 C1836 0.962 . S
H1850 C1836 0.960 . S
H1851 C1837 0.961 . S
H1852 C1837 0.961 . S
H1853 C1837 0.961 . S
H1854 C1838 0.931 . S
H1855 C1843 0.930 . S
H1856 C1844 0.956 . S
H1857 C1844 0.961 . S
H1858 C1844 0.961 . S
H1859 C1845 0.958 . S
H1860 C1845 0.961 . S
H1861 C1845 0.960 . S
C1862 C1863 1.391 . S
C1862 C1864 1.394 . S
C1862 H1878 0.931 . S
C1863 C1862 1.391 . S
C1863 C1867 1.376 . S
C1864 C1862 1.394 . S
C1864 C1865 1.369 . S
C1864 C1868 1.531 . S
C1865 C1864 1.369 . S
C1865 C1866 1.410 . S
C1865 C1873 1.503 . S
C1866 C1865 1.410 . S
C1866 C1867 1.392 . S
C1866 C1869 1.511 . S
C1867 C1863 1.376 . S
C1867 C1866 1.392 . S
C1867 H1879 0.929 . S
C1868 C1864 1.531 . S
C1868 H1880 0.960 . S
C1868 H1881 0.962 . S
C1868 H1882 0.960 . S
C1869 C1866 1.511 . S
C1869 H1883 0.961 . S
C1869 H1884 0.961 . S
C1869 H1885 0.961 . S
C1870 C1871 1.370 . S
C1870 C1872 1.363 . S
C1870 H1886 0.931 . S
C1871 C1870 1.370 . S
C1871 C1875 1.408 . S
C1872 C1870 1.363 . S
C1872 C1873 1.370 . S
C1872 C1876 1.524 . S
C1873 C1865 1.503 . S
C1873 C1872 1.370 . S
C1873 C1874 1.403 . S
C1874 C1873 1.403 . S
C1874 C1875 1.404 . S
C1874 C1877 1.539 . S
C1875 C1871 1.408 . S
C1875 C1874 1.404 . S
C1875 H1887 0.930 . S
C1876 C1872 1.524 . S
C1876 H1888 0.956 . S
C1876 H1889 0.961 . S
C1876 H1890 0.961 . S
C1877 C1874 1.539 . S
C1877 H1891 0.958 . S
C1877 H1892 0.961 . S
C1877 H1893 0.960 . S
H1878 C1862 0.931 . S
H1879 C1867 0.929 . S
H1880 C1868 0.960 . S
H1881 C1868 0.962 . S
H1882 C1868 0.960 . S
H1883 C1869 0.961 . S
H1884 C1869 0.961 . S
H1885 C1869 0.961 . S
H1886 C1870 0.931 . S
H1887 C1875 0.930 . S
H1888 C1876 0.956 . S
H1889 C1876 0.961 . S
H1890 C1876 0.961 . S
H1891 C1877 0.958 . S
H1892 C1877 0.961 . S
H1893 C1877 0.960 . S
C1894 C1895 1.391 . S
C1894 C1896 1.394 . S
C1894 H1910 0.931 . S
C1895 C1894 1.391 . S
C1895 C1899 1.376 . S
C1896 C1894 1.394 . S
C1896 C1897 1.369 . S
C1896 C1900 1.531 . S
C1897 C1896 1.369 . S
C1897 C1898 1.410 . S
C1897 C1905 1.503 . S
C1898 C1897 1.410 . S
C1898 C1899 1.392 . S
C1898 C1901 1.511 . S
C1899 C1895 1.376 . S
C1899 C1898 1.392 . S
C1899 H1911 0.929 . S
C1900 C1896 1.531 . S
C1900 H1912 0.960 . S
C1900 H1913 0.962 . S
C1900 H1914 0.960 . S
C1901 C1898 1.511 . S
C1901 H1915 0.961 . S
C1901 H1916 0.961 . S
C1901 H1917 0.961 . S
C1902 C1903 1.370 . S
C1902 C1904 1.363 . S
C1902 H1918 0.931 . S
C1903 C1902 1.370 . S
C1903 C1907 1.408 . S
C1904 C1902 1.363 . S
C1904 C1905 1.370 . S
C1904 C1908 1.524 . S
C1905 C1897 1.503 . S
C1905 C1904 1.370 . S
C1905 C1906 1.403 . S
C1906 C1905 1.403 . S
C1906 C1907 1.404 . S
C1906 C1909 1.539 . S
C1907 C1903 1.408 . S
C1907 C1906 1.404 . S
C1907 H1919 0.930 . S
C1908 C1904 1.524 . S
C1908 H1920 0.956 . S
C1908 H1921 0.961 . S
C1908 H1922 0.961 . S
C1909 C1906 1.539 . S
C1909 H1923 0.958 . S
C1909 H1924 0.961 . S
C1909 H1925 0.960 . S
H1910 C1894 0.931 . S
H1911 C1899 0.929 . S
H1912 C1900 0.960 . S
H1913 C1900 0.962 . S
H1914 C1900 0.960 . S
H1915 C1901 0.961 . S
H1916 C1901 0.961 . S
H1917 C1901 0.961 . S
H1918 C1902 0.931 . S
H1919 C1907 0.930 . S
H1920 C1908 0.956 . S
H1921 C1908 0.961 . S
H1922 C1908 0.961 . S
H1923 C1909 0.958 . S
H1924 C1909 0.961 . S
H1925 C1909 0.960 . S
C1926 C1927 1.391 . S
C1926 C1928 1.394 1_565 S
C1926 H1942 0.931 . S
C1927 C1926 1.391 . S
C1927 C1931 1.376 . S
C1928 C1926 1.394 1_545 S
C1928 C1929 1.369 . S
C1928 C1932 1.531 . S
C1929 C1928 1.369 . S
C1929 C1930 1.410 . S
C1929 C1937 1.503 . S
C1930 C1929 1.410 . S
C1930 C1931 1.392 1_545 S
C1930 C1933 1.511 . S
C1931 C1927 1.376 . S
C1931 C1930 1.392 1_565 S
C1931 H1943 0.929 . S
C1932 C1928 1.531 . S
C1932 H1944 0.960 . S
C1932 H1945 0.962 . S
C1932 H1946 0.960 . S
C1933 C1930 1.511 . S
C1933 H1947 0.961 . S
C1933 H1948 0.961 . S
C1933 H1949 0.961 . S
C1934 C1935 1.370 . S
C1934 C1936 1.363 . S
C1934 H1950 0.931 . S
C1935 C1934 1.370 . S
C1935 C1939 1.408 . S
C1936 C1934 1.363 . S
C1936 C1937 1.370 . S
C1936 C1940 1.524 . S
C1937 C1929 1.503 . S
C1937 C1936 1.370 . S
C1937 C1938 1.403 . S
C1938 C1937 1.403 . S
C1938 C1939 1.404 . S
C1938 C1941 1.539 . S
C1939 C1935 1.408 . S
C1939 C1938 1.404 . S
C1939 H1951 0.930 . S
C1940 C1936 1.524 . S
C1940 H1952 0.956 . S
C1940 H1953 0.961 . S
C1940 H1954 0.961 . S
C1941 C1938 1.539 . S
C1941 H1955 0.958 . S
C1941 H1956 0.961 . S
C1941 H1957 0.960 . S
H1942 C1926 0.931 . S
H1943 C1931 0.929 . S
H1944 C1932 0.960 . S
H1945 C1932 0.962 . S
H1946 C1932 0.960 . S
H1947 C1933 0.961 . S
H1948 C1933 0.961 . S
H1949 C1933 0.961 . S
H1950 C1934 0.931 . S
H1951 C1939 0.930 . S
H1952 C1940 0.956 . S
H1953 C1940 0.961 . S
H1954 C1940 0.961 . S
H1955 C1941 0.958 . S
H1956 C1941 0.961 . S
H1957 C1941 0.960 . S
C1958 C1959 1.391 . S
C1958 C1960 1.394 1_455 S
C1958 H1974 0.931 . S
C1959 C1958 1.391 . S
C1959 C1963 1.376 1_455 S
C1960 C1958 1.394 1_655 S
C1960 C1961 1.369 . S
C1960 C1964 1.531 . S
C1961 C1960 1.369 . S
C1961 C1962 1.410 . S
C1961 C1969 1.503 . S
C1962 C1961 1.410 . S
C1962 C1963 1.392 . S
C1962 C1965 1.511 . S
C1963 C1959 1.376 1_655 S
C1963 C1962 1.392 . S
C1963 H1975 0.929 . S
C1964 C1960 1.531 . S
C1964 H1976 0.960 . S
C1964 H1977 0.962 . S
C1964 H1978 0.947 1_655 S
C1965 C1962 1.511 . S
C1965 H1979 0.961 . S
C1965 H1980 0.961 . S
C1965 H1981 0.961 . S
C1966 C1967 1.370 . S
C1966 C1968 1.363 . S
C1966 H1982 0.931 . S
C1967 C1966 1.370 . S
C1967 C1971 1.408 . S
C1968 C1966 1.363 . S
C1968 C1969 1.370 . S
C1968 C1972 1.524 . S
C1969 C1961 1.503 . S
C1969 C1968 1.370 . S
C1969 C1970 1.403 . S
C1970 C1969 1.403 . S
C1970 C1971 1.404 . S
C1970 C1973 1.539 . S
C1971 C1967 1.408 . S
C1971 C1970 1.404 . S
C1971 H1983 0.930 . S
C1972 C1968 1.524 . S
C1972 H1984 0.956 . S
C1972 H1985 0.961 . S
C1972 H1986 0.961 . S
C1973 C1970 1.539 . S
C1973 H1987 0.958 . S
C1973 H1988 0.961 . S
C1973 H1989 0.960 . S
H1974 C1958 0.931 . S
H1975 C1963 0.929 . S
H1976 C1964 0.960 . S
H1977 C1964 0.962 . S
H1978 C1964 0.947 1_455 S
H1979 C1965 0.961 . S
H1980 C1965 0.961 . S
H1981 C1965 0.961 . S
H1982 C1966 0.931 . S
H1983 C1971 0.930 . S
H1984 C1972 0.956 . S
H1985 C1972 0.961 . S
H1986 C1972 0.961 . S
H1987 C1973 0.958 . S
H1988 C1973 0.961 . S
H1989 C1973 0.960 . S
C1990 C1991 1.391 . S
C1990 C1992 1.394 . S
C1990 H2006 0.931 . S
C1991 C1990 1.391 . S
C1991 C1995 1.376 . S
C1992 C1990 1.394 . S
C1992 C1993 1.369 . S
C1992 C1996 1.531 . S
C1993 C1992 1.369 . S
C1993 C1994 1.410 . S
C1993 C2001 1.503 . S
C1994 C1993 1.410 . S
C1994 C1995 1.392 . S
C1994 C1997 1.511 . S
C1995 C1991 1.376 . S
C1995 C1994 1.392 . S
C1995 H2007 0.929 . S
C1996 C1992 1.531 . S
C1996 H2008 0.960 . S
C1996 H2009 0.962 . S
C1996 H2010 0.960 . S
C1997 C1994 1.511 . S
C1997 H2011 0.961 . S
C1997 H2012 0.961 . S
C1997 H2013 0.961 . S
C1998 C1999 1.370 . S
C1998 C2000 1.363 . S
C1998 H2014 0.931 . S
C1999 C1998 1.370 . S
C1999 C2003 1.408 . S
C2000 C1998 1.363 . S
C2000 C2001 1.370 . S
C2000 C2004 1.524 . S
C2001 C1993 1.503 . S
C2001 C2000 1.370 . S
C2001 C2002 1.403 . S
C2002 C2001 1.403 . S
C2002 C2003 1.404 . S
C2002 C2005 1.539 . S
C2003 C1999 1.408 . S
C2003 C2002 1.404 . S
C2003 H2015 0.930 . S
C2004 C2000 1.524 . S
C2004 H2016 0.956 . S
C2004 H2017 0.961 . S
C2004 H2018 0.961 . S
C2005 C2002 1.539 . S
C2005 H2019 0.958 . S
C2005 H2020 0.961 . S
C2005 H2021 0.960 . S
H2006 C1990 0.931 . S
H2007 C1995 0.929 . S
H2008 C1996 0.960 . S
H2009 C1996 0.962 . S
H2010 C1996 0.960 . S
H2011 C1997 0.961 . S
H2012 C1997 0.961 . S
H2013 C1997 0.961 . S
H2014 C1998 0.931 . S
H2015 C2003 0.930 . S
H2016 C2004 0.956 . S
H2017 C2004 0.961 . S
H2018 C2004 0.961 . S
H2019 C2005 0.958 . S
H2020 C2005 0.961 . S
H2021 C2005 0.960 . S
C2022 C2023 1.391 . S
C2022 C2024 1.394 1_455 S
C2022 H2038 0.931 . S
C2023 C2022 1.391 . S
C2023 C2027 1.376 . S
C2024 C2022 1.394 1_655 S
C2024 C2025 1.369 . S
C2024 C2028 1.531 . S
C2025 C2024 1.369 . S
C2025 C2026 1.410 . S
C2025 C2033 1.503 . S
C2026 C2025 1.410 . S
C2026 C2027 1.392 1_655 S
C2026 C2029 1.511 . S
C2027 C2023 1.376 . S
C2027 C2026 1.392 1_455 S
C2027 H2039 0.929 . S
C2028 C2024 1.531 . S
C2028 H2040 0.960 . S
C2028 H2041 0.962 . S
C2028 H2042 0.960 1_655 S
C2029 C2026 1.511 . S
C2029 H2043 0.961 . S
C2029 H2044 0.961 . S
C2029 H2045 0.961 . S
C2030 C2031 1.370 . S
C2030 C2032 1.363 . S
C2030 H2046 0.931 . S
C2031 C2030 1.370 . S
C2031 C2035 1.408 . S
C2032 C2030 1.363 . S
C2032 C2033 1.370 . S
C2032 C2036 1.524 . S
C2033 C2025 1.503 . S
C2033 C2032 1.370 . S
C2033 C2034 1.403 . S
C2034 C2033 1.403 . S
C2034 C2035 1.404 . S
C2034 C2037 1.539 . S
C2035 C2031 1.408 . S
C2035 C2034 1.404 . S
C2035 H2047 0.930 . S
C2036 C2032 1.524 . S
C2036 H2048 0.956 . S
C2036 H2049 0.961 . S
C2036 H2050 0.961 . S
C2037 C2034 1.539 . S
C2037 H2051 0.958 . S
C2037 H2052 0.961 . S
C2037 H2053 0.960 . S
H2038 C2022 0.931 . S
H2039 C2027 0.929 . S
H2040 C2028 0.960 . S
H2041 C2028 0.962 . S
H2042 C2028 0.960 1_455 S
H2043 C2029 0.961 . S
H2044 C2029 0.961 . S
H2045 C2029 0.961 . S
H2046 C2030 0.931 . S
H2047 C2035 0.930 . S
H2048 C2036 0.956 . S
H2049 C2036 0.961 . S
H2050 C2036 0.961 . S
H2051 C2037 0.958 . S
H2052 C2037 0.961 . S
H2053 C2037 0.960 . S
C2054 C2055 1.391 . S
C2054 C2056 1.394 . S
C2054 H2070 0.931 . S
C2055 C2054 1.391 . S
C2055 C2059 1.376 . S
C2056 C2054 1.394 . S
C2056 C2057 1.369 . S
C2056 C2060 1.531 . S
C2057 C2056 1.369 . S
C2057 C2058 1.410 . S
C2057 C2065 1.503 . S
C2058 C2057 1.410 . S
C2058 C2059 1.392 . S
C2058 C2061 1.511 . S
C2059 C2055 1.376 . S
C2059 C2058 1.392 . S
C2059 H2071 0.929 . S
C2060 C2056 1.531 . S
C2060 H2072 0.960 . S
C2060 H2073 0.962 . S
C2060 H2074 0.960 . S
C2061 C2058 1.511 . S
C2061 H2075 0.961 . S
C2061 H2076 0.961 . S
C2061 H2077 0.961 . S
C2062 C2063 1.370 . S
C2062 C2064 1.363 . S
C2062 H2078 0.931 . S
C2063 C2062 1.370 . S
C2063 C2067 1.408 . S
C2064 C2062 1.363 . S
C2064 C2065 1.370 . S
C2064 C2068 1.524 . S
C2065 C2057 1.503 . S
C2065 C2064 1.370 . S
C2065 C2066 1.403 . S
C2066 C2065 1.403 . S
C2066 C2067 1.404 . S
C2066 C2069 1.539 . S
C2067 C2063 1.408 . S
C2067 C2066 1.404 . S
C2067 H2079 0.930 . S
C2068 C2064 1.524 . S
C2068 H2080 0.956 . S
C2068 H2081 0.961 . S
C2068 H2082 0.961 . S
C2069 C2066 1.539 . S
C2069 H2083 0.958 . S
C2069 H2084 0.961 . S
C2069 H2085 0.960 . S
H2070 C2054 0.931 . S
H2071 C2059 0.929 . S
H2072 C2060 0.960 . S
H2073 C2060 0.962 . S
H2074 C2060 0.960 . S
H2075 C2061 0.961 . S
H2076 C2061 0.961 . S
H2077 C2061 0.961 . S
H2078 C2062 0.931 . S
H2079 C2067 0.930 . S
H2080 C2068 0.956 . S
H2081 C2068 0.961 . S
H2082 C2068 0.961 . S
H2083 C2069 0.958 . S
H2084 C2069 0.961 . S
H2085 C2069 0.960 . S
C2086 C2087 1.391 . S
C2086 C2088 1.394 . S
C2086 H2102 0.931 . S
C2087 C2086 1.391 . S
C2087 C2091 1.376 . S
C2088 C2086 1.394 . S
C2088 C2089 1.369 1_565 S
C2088 C2092 1.531 1_565 S
C2089 C2088 1.369 1_545 S
C2089 C2090 1.410 1_545 S
C2089 C2097 1.503 . S
C2090 C2089 1.410 1_565 S
C2090 C2091 1.392 . S
C2090 C2093 1.511 1_565 S
C2091 C2087 1.376 . S
C2091 C2090 1.392 . S
C2091 H2103 0.929 . S
C2092 C2088 1.531 1_545 S
C2092 H2104 0.960 . S
C2092 H2105 0.962 . S
C2092 H2106 0.958 . S
C2093 C2090 1.511 1_545 S
C2093 H2107 0.961 . S
C2093 H2108 0.961 . S
C2093 H2109 0.961 . S
C2094 C2095 1.370 . S
C2094 C2096 1.363 . S
C2094 H2110 0.931 . S
C2095 C2094 1.370 . S
C2095 C2099 1.408 . S
C2096 C2094 1.363 . S
C2096 C2097 1.370 . S
C2096 C2100 1.524 . S
C2097 C2089 1.503 . S
C2097 C2096 1.370 . S
C2097 C2098 1.403 . S
C2098 C2097 1.403 . S
C2098 C2099 1.404 . S
C2098 C2101 1.539 . S
C2099 C2095 1.408 . S
C2099 C2098 1.404 . S
C2099 H2111 0.930 . S
C2100 C2096 1.524 . S
C2100 H2112 0.956 . S
C2100 H2113 0.961 . S
C2100 H2114 0.961 . S
C2101 C2098 1.539 . S
C2101 H2115 0.958 . S
C2101 H2116 0.961 . S
C2101 H2117 0.960 . S
H2102 C2086 0.931 . S
H2103 C2091 0.929 . S
H2104 C2092 0.960 . S
H2105 C2092 0.962 . S
H2106 C2092 0.958 . S
H2107 C2093 0.961 . S
H2108 C2093 0.961 . S
H2109 C2093 0.961 . S
H2110 C2094 0.931 . S
H2111 C2099 0.930 . S
H2112 C2100 0.956 . S
H2113 C2100 0.961 . S
H2114 C2100 0.961 . S
H2115 C2101 0.958 . S
H2116 C2101 0.961 . S
H2117 C2101 0.960 . S
C2118 C2119 1.391 . S
C2118 C2120 1.394 . S
C2118 H2134 0.931 . S
C2119 C2118 1.391 . S
C2119 C2123 1.376 . S
C2120 C2118 1.394 . S
C2120 C2121 1.369 . S
C2120 C2124 1.531 . S
C2121 C2120 1.369 . S
C2121 C2122 1.410 . S
C2121 C2129 1.503 . S
C2122 C2121 1.410 . S
C2122 C2123 1.392 . S
C2122 C2125 1.511 . S
C2123 C2119 1.376 . S
C2123 C2122 1.392 . S
C2123 H2135 0.929 . S
C2124 C2120 1.531 . S
C2124 H2136 0.960 . S
C2124 H2137 0.962 . S
C2124 H2138 0.960 . S
C2125 C2122 1.511 . S
C2125 H2139 0.961 . S
C2125 H2140 0.961 . S
C2125 H2141 0.961 . S
C2126 C2127 1.370 . S
C2126 C2128 1.363 . S
C2126 H2142 0.931 . S
C2127 C2126 1.370 . S
C2127 C2131 1.408 . S
C2128 C2126 1.363 . S
C2128 C2129 1.370 . S
C2128 C2132 1.524 . S
C2129 C2121 1.503 . S
C2129 C2128 1.370 . S
C2129 C2130 1.403 . S
C2130 C2129 1.403 . S
C2130 C2131 1.404 . S
C2130 C2133 1.539 . S
C2131 C2127 1.408 . S
C2131 C2130 1.404 . S
C2131 H2143 0.930 . S
C2132 C2128 1.524 . S
C2132 H2144 0.956 . S
C2132 H2145 0.961 . S
C2132 H2146 0.961 . S
C2133 C2130 1.539 . S
C2133 H2147 0.958 . S
C2133 H2148 0.961 . S
C2133 H2149 0.960 . S
H2134 C2118 0.931 . S
H2135 C2123 0.929 . S
H2136 C2124 0.960 . S
H2137 C2124 0.962 . S
H2138 C2124 0.960 . S
H2139 C2125 0.961 . S
H2140 C2125 0.961 . S
H2141 C2125 0.961 . S
H2142 C2126 0.931 . S
H2143 C2131 0.930 . S
H2144 C2132 0.956 . S
H2145 C2132 0.961 . S
H2146 C2132 0.961 . S
H2147 C2133 0.958 . S
H2148 C2133 0.961 . S
H2149 C2133 0.960 . S
C2150 C2151 1.391 . S
C2150 C2152 1.394 . S
C2150 H2166 0.931 . S
C2151 C2150 1.391 . S
C2151 C2155 1.376 . S
C2152 C2150 1.394 . S
C2152 C2153 1.369 . S
C2152 C2156 1.531 . S
C2153 C2152 1.369 . S
C2153 C2154 1.410 . S
C2153 C2161 1.503 . S
C2154 C2153 1.410 . S
C2154 C2155 1.392 . S
C2154 C2157 1.511 . S
C2155 C2151 1.376 . S
C2155 C2154 1.392 . S
C2155 H2167 0.929 . S
C2156 C2152 1.531 . S
C2156 H2168 0.960 . S
C2156 H2169 0.962 . S
C2156 H2170 0.960 . S
C2157 C2154 1.511 . S
C2157 H2171 0.961 . S
C2157 H2172 0.961 . S
C2157 H2173 0.961 . S
C2158 C2159 1.370 . S
C2158 C2160 1.363 . S
C2158 H2174 0.931 . S
C2159 C2158 1.370 . S
C2159 C2163 1.408 . S
C2160 C2158 1.363 . S
C2160 C2161 1.370 . S
C2160 C2164 1.524 . S
C2161 C2153 1.503 . S
C2161 C2160 1.370 . S
C2161 C2162 1.403 . S
C2162 C2161 1.403 . S
C2162 C2163 1.404 . S
C2162 C2165 1.539 . S
C2163 C2159 1.408 . S
C2163 C2162 1.404 . S
C2163 H2175 0.930 . S
C2164 C2160 1.524 . S
C2164 H2176 0.956 . S
C2164 H2177 0.961 . S
C2164 H2178 0.961 . S
C2165 C2162 1.539 . S
C2165 H2179 0.958 . S
C2165 H2180 0.961 . S
C2165 H2181 0.960 . S
H2166 C2150 0.931 . S
H2167 C2155 0.929 . S
H2168 C2156 0.960 . S
H2169 C2156 0.962 . S
H2170 C2156 0.960 . S
H2171 C2157 0.961 . S
H2172 C2157 0.961 . S
H2173 C2157 0.961 . S
H2174 C2158 0.931 . S
H2175 C2163 0.930 . S
H2176 C2164 0.956 . S
H2177 C2164 0.961 . S
H2178 C2164 0.961 . S
H2179 C2165 0.958 . S
H2180 C2165 0.961 . S
H2181 C2165 0.960 . S
C2182 C2183 1.391 . S
C2182 C2184 1.394 . S
C2182 H2198 0.931 . S
C2183 C2182 1.391 . S
C2183 C2187 1.376 . S
C2184 C2182 1.394 . S
C2184 C2185 1.369 . S
C2184 C2188 1.531 . S
C2185 C2184 1.369 . S
C2185 C2186 1.410 . S
C2185 C2193 1.503 . S
C2186 C2185 1.410 . S
C2186 C2187 1.392 . S
C2186 C2189 1.511 . S
C2187 C2183 1.376 . S
C2187 C2186 1.392 . S
C2187 H2199 0.929 . S
C2188 C2184 1.531 . S
C2188 H2200 0.960 . S
C2188 H2201 0.962 . S
C2188 H2202 0.960 . S
C2189 C2186 1.511 . S
C2189 H2203 0.961 . S
C2189 H2204 0.961 . S
C2189 H2205 0.961 . S
C2190 C2191 1.370 . S
C2190 C2192 1.363 . S
C2190 H2206 0.931 . S
C2191 C2190 1.370 . S
C2191 C2195 1.408 . S
C2192 C2190 1.363 . S
C2192 C2193 1.370 . S
C2192 C2196 1.524 . S
C2193 C2185 1.503 . S
C2193 C2192 1.370 . S
C2193 C2194 1.403 . S
C2194 C2193 1.403 . S
C2194 C2195 1.404 . S
C2194 C2197 1.539 . S
C2195 C2191 1.408 . S
C2195 C2194 1.404 . S
C2195 H2207 0.930 . S
C2196 C2192 1.524 . S
C2196 H2208 0.956 . S
C2196 H2209 0.961 . S
C2196 H2210 0.961 . S
C2197 C2194 1.539 . S
C2197 H2211 0.958 . S
C2197 H2212 0.961 . S
C2197 H2213 0.960 . S
H2198 C2182 0.931 . S
H2199 C2187 0.929 . S
H2200 C2188 0.960 . S
H2201 C2188 0.962 . S
H2202 C2188 0.960 . S
H2203 C2189 0.961 . S
H2204 C2189 0.961 . S
H2205 C2189 0.961 . S
H2206 C2190 0.931 . S
H2207 C2195 0.930 . S
H2208 C2196 0.956 . S
H2209 C2196 0.961 . S
H2210 C2196 0.961 . S
H2211 C2197 0.958 . S
H2212 C2197 0.961 . S
H2213 C2197 0.960 . S
C2214 C2215 1.391 . S
C2214 C2216 1.394 . S
C2214 H2230 0.931 . S
C2215 C2214 1.391 . S
C2215 C2219 1.376 . S
C2216 C2214 1.394 . S
C2216 C2217 1.369 . S
C2216 C2220 1.531 1_565 S
C2217 C2216 1.369 . S
C2217 C2218 1.410 . S
C2217 C2225 1.503 . S
C2218 C2217 1.410 . S
C2218 C2219 1.392 . S
C2218 C2221 1.511 . S
C2219 C2215 1.376 . S
C2219 C2218 1.392 . S
C2219 H2231 0.929 . S
C2220 C2216 1.531 1_545 S
C2220 H2232 0.960 . S
C2220 H2233 0.962 1_545 S
C2220 H2234 0.960 . S
C2221 C2218 1.511 . S
C2221 H2235 0.961 . S
C2221 H2236 0.961 . S
C2221 H2237 0.961 . S
C2222 C2223 1.370 . S
C2222 C2224 1.363 . S
C2222 H2238 0.931 . S
C2223 C2222 1.370 . S
C2223 C2227 1.408 1_565 S
C2224 C2222 1.363 . S
C2224 C2225 1.370 . S
C2224 C2228 1.524 . S
C2225 C2217 1.503 . S
C2225 C2224 1.370 . S
C2225 C2226 1.403 1_565 S
C2226 C2225 1.403 1_545 S
C2226 C2227 1.404 . S
C2226 C2229 1.539 . S
C2227 C2223 1.408 1_545 S
C2227 C2226 1.404 . S
C2227 H2239 0.930 . S
C2228 C2224 1.524 . S
C2228 H2240 0.956 . S
C2228 H2241 0.961 . S
C2228 H2242 0.961 . S
C2229 C2226 1.539 . S
C2229 H2243 0.958 . S
C2229 H2244 0.961 . S
C2229 H2245 0.960 . S
H2230 C2214 0.931 . S
H2231 C2219 0.929 . S
H2232 C2220 0.960 . S
H2233 C2220 0.962 1_565 S
H2234 C2220 0.960 . S
H2235 C2221 0.961 . S
H2236 C2221 0.961 . S
H2237 C2221 0.961 . S
H2238 C2222 0.931 . S
H2239 C2227 0.930 . S
H2240 C2228 0.956 . S
H2241 C2228 0.961 . S
H2242 C2228 0.961 . S
H2243 C2229 0.958 . S
H2244 C2229 0.961 . S
H2245 C2229 0.960 . S
C2246 C2247 1.391 . S
C2246 C2248 1.394 . S
C2246 H2262 0.931 . S
C2247 C2246 1.391 . S
C2247 C2251 1.376 1_455 S
C2248 C2246 1.394 . S
C2248 C2249 1.369 . S
C2248 C2252 1.531 . S
C2249 C2248 1.369 . S
C2249 C2250 1.410 1_455 S
C2249 C2257 1.503 . S
C2250 C2249 1.410 1_655 S
C2250 C2251 1.392 . S
C2250 C2253 1.511 . S
C2251 C2247 1.376 1_655 S
C2251 C2250 1.392 . S
C2251 H2263 0.929 . S
C2252 C2248 1.531 . S
C2252 H2264 0.960 . S
C2252 H2265 0.962 . S
C2252 H2266 0.960 . S
C2253 C2250 1.511 . S
C2253 H2267 0.961 . S
C2253 H2268 0.961 . S
C2253 H2269 0.961 . S
C2254 C2255 1.370 . S
C2254 C2256 1.363 . S
C2254 H2270 0.931 . S
C2255 C2254 1.370 . S
C2255 C2259 1.408 1_455 S
C2256 C2254 1.363 . S
C2256 C2257 1.370 . S
C2256 C2260 1.524 . S
C2257 C2249 1.503 . S
C2257 C2256 1.370 . S
C2257 C2258 1.403 1_455 S
C2258 C2257 1.403 1_655 S
C2258 C2259 1.404 . S
C2258 C2261 1.539 . S
C2259 C2255 1.408 1_655 S
C2259 C2258 1.404 . S
C2259 H2271 0.930 . S
C2260 C2256 1.524 . S
C2260 H2272 0.956 . S
C2260 H2273 0.961 . S
C2260 H2274 0.961 . S
C2261 C2258 1.539 . S
C2261 H2275 0.958 . S
C2261 H2276 0.961 . S
C2261 H2277 0.960 . S
H2262 C2246 0.931 . S
H2263 C2251 0.929 . S
H2264 C2252 0.960 . S
H2265 C2252 0.962 . S
H2266 C2252 0.960 . S
H2267 C2253 0.961 . S
H2268 C2253 0.961 . S
H2269 C2253 0.961 . S
H2270 C2254 0.931 . S
H2271 C2259 0.930 . S
H2272 C2260 0.956 . S
H2273 C2260 0.961 . S
H2274 C2260 0.961 . S
H2275 C2261 0.958 . S
H2276 C2261 0.961 . S
H2277 C2261 0.960 . S
C2278 C2279 1.391 . S
C2278 C2280 1.394 . S
C2278 H2294 0.931 . S
C2279 C2278 1.391 . S
C2279 C2283 1.376 . S
C2280 C2278 1.394 . S
C2280 C2281 1.369 . S
C2280 C2284 1.531 . S
C2281 C2280 1.369 . S
C2281 C2282 1.410 . S
C2281 C2289 1.503 . S
C2282 C2281 1.410 . S
C2282 C2283 1.392 . S
C2282 C2285 1.511 . S
C2283 C2279 1.376 . S
C2283 C2282 1.392 . S
C2283 H2295 0.929 . S
C2284 C2280 1.531 . S
C2284 H2296 0.960 . S
C2284 H2297 0.962 . S
C2284 H2298 0.960 . S
C2285 C2282 1.511 . S
C2285 H2299 0.961 . S
C2285 H2300 0.961 . S
C2285 H2301 0.961 . S
C2286 C2287 1.370 . S
C2286 C2288 1.363 . S
C2286 H2302 0.931 . S
C2287 C2286 1.370 . S
C2287 C2291 1.408 . S
C2288 C2286 1.363 . S
C2288 C2289 1.370 . S
C2288 C2292 1.524 . S
C2289 C2281 1.503 . S
C2289 C2288 1.370 . S
C2289 C2290 1.403 . S
C2290 C2289 1.403 . S
C2290 C2291 1.404 . S
C2290 C2293 1.539 . S
C2291 C2287 1.408 . S
C2291 C2290 1.404 . S
C2291 H2303 0.930 . S
C2292 C2288 1.524 . S
C2292 H2304 0.956 . S
C2292 H2305 0.961 . S
C2292 H2306 0.961 . S
C2293 C2290 1.539 . S
C2293 H2307 0.958 . S
C2293 H2308 0.961 . S
C2293 H2309 0.960 . S
H2294 C2278 0.931 . S
H2295 C2283 0.929 . S
H2296 C2284 0.960 . S
H2297 C2284 0.962 . S
H2298 C2284 0.960 . S
H2299 C2285 0.961 . S
H2300 C2285 0.961 . S
H2301 C2285 0.961 . S
H2302 C2286 0.931 . S
H2303 C2291 0.930 . S
H2304 C2292 0.956 . S
H2305 C2292 0.961 . S
H2306 C2292 0.961 . S
H2307 C2293 0.958 . S
H2308 C2293 0.961 . S
H2309 C2293 0.960 . S
C2310 C2311 1.391 . S
C2310 C2312 1.394 . S
C2310 H2326 0.931 . S
C2311 C2310 1.391 . S
C2311 C2315 1.376 1_655 S
C2312 C2310 1.394 . S
C2312 C2313 1.369 . S
C2312 C2316 1.531 . S
C2313 C2312 1.369 . S
C2313 C2314 1.410 1_655 S
C2313 C2321 1.503 . S
C2314 C2313 1.410 1_455 S
C2314 C2315 1.392 . S
C2314 C2317 1.511 . S
C2315 C2311 1.376 1_455 S
C2315 C2314 1.392 . S
C2315 H2327 0.929 . S
C2316 C2312 1.531 . S
C2316 H2328 0.960 . S
C2316 H2329 0.962 . S
C2316 H2330 0.960 . S
C2317 C2314 1.511 . S
C2317 H2331 0.961 . S
C2317 H2332 0.961 . S
C2317 H2333 0.961 . S
C2318 C2319 1.370 . S
C2318 C2320 1.363 . S
C2318 H2334 0.931 . S
C2319 C2318 1.370 . S
C2319 C2323 1.408 . S
C2320 C2318 1.363 . S
C2320 C2321 1.370 . S
C2320 C2324 1.524 . S
C2321 C2313 1.503 . S
C2321 C2320 1.370 . S
C2321 C2322 1.403 . S
C2322 C2321 1.403 . S
C2322 C2323 1.404 . S
C2322 C2325 1.539 1_655 S
C2323 C2319 1.408 . S
C2323 C2322 1.404 . S
C2323 H2335 0.930 . S
C2324 C2320 1.524 . S
C2324 H2336 0.956 . S
C2324 H2337 0.961 . S
C2324 H2338 0.961 . S
C2325 C2322 1.539 1_455 S
C2325 H2339 0.958 1_455 S
C2325 H2340 0.961 . S
C2325 H2341 0.960 . S
H2326 C2310 0.931 . S
H2327 C2315 0.929 . S
H2328 C2316 0.960 . S
H2329 C2316 0.962 . S
H2330 C2316 0.960 . S
H2331 C2317 0.961 . S
H2332 C2317 0.961 . S
H2333 C2317 0.961 . S
H2334 C2318 0.931 . S
H2335 C2323 0.930 . S
H2336 C2324 0.956 . S
H2337 C2324 0.961 . S
H2338 C2324 0.961 . S
H2339 C2325 0.958 1_655 S
H2340 C2325 0.961 . S
H2341 C2325 0.960 . S
C2342 C2343 1.391 . S
C2342 C2344 1.394 . S
C2342 H2358 0.931 . S
C2343 C2342 1.391 . S
C2343 C2347 1.376 . S
C2344 C2342 1.394 . S
C2344 C2345 1.369 . S
C2344 C2348 1.531 . S
C2345 C2344 1.369 . S
C2345 C2346 1.410 . S
C2345 C2353 1.503 . S
C2346 C2345 1.410 . S
C2346 C2347 1.392 . S
C2346 C2349 1.511 . S
C2347 C2343 1.376 . S
C2347 C2346 1.392 . S
C2347 H2359 0.929 . S
C2348 C2344 1.531 . S
C2348 H2360 0.960 . S
C2348 H2361 0.962 . S
C2348 H2362 0.960 . S
C2349 C2346 1.511 . S
C2349 H2363 0.961 . S
C2349 H2364 0.961 . S
C2349 H2365 0.961 . S
C2350 C2351 1.370 . S
C2350 C2352 1.363 . S
C2350 H2366 0.931 . S
C2351 C2350 1.370 . S
C2351 C2355 1.408 . S
C2352 C2350 1.363 . S
C2352 C2353 1.370 . S
C2352 C2356 1.524 . S
C2353 C2345 1.503 . S
C2353 C2352 1.370 . S
C2353 C2354 1.403 . S
C2354 C2353 1.403 . S
C2354 C2355 1.404 . S
C2354 C2357 1.539 . S
C2355 C2351 1.408 . S
C2355 C2354 1.404 . S
C2355 H2367 0.930 . S
C2356 C2352 1.524 . S
C2356 H2368 0.956 . S
C2356 H2369 0.961 . S
C2356 H2370 0.961 . S
C2357 C2354 1.539 . S
C2357 H2371 0.958 . S
C2357 H2372 0.961 . S
C2357 H2373 0.960 . S
H2358 C2342 0.931 . S
H2359 C2347 0.929 . S
H2360 C2348 0.960 . S
H2361 C2348 0.962 . S
H2362 C2348 0.960 . S
H2363 C2349 0.961 . S
H2364 C2349 0.961 . S
H2365 C2349 0.961 . S
H2366 C2350 0.931 . S
H2367 C2355 0.930 . S
H2368 C2356 0.956 . S
H2369 C2356 0.961 . S
H2370 C2356 0.961 . S
H2371 C2357 0.958 . S
H2372 C2357 0.961 . S
H2373 C2357 0.960 . S
C2374 C2375 1.391 . S
C2374 C2376 1.394 . S
C2374 H2390 0.931 . S
C2375 C2374 1.391 . S
C2375 C2379 1.376 . S
C2376 C2374 1.394 . S
C2376 C2377 1.369 . S
C2376 C2380 1.531 1_545 S
C2377 C2376 1.369 . S
C2377 C2378 1.410 . S
C2377 C2385 1.503 . S
C2378 C2377 1.410 . S
C2378 C2379 1.392 . S
C2378 C2381 1.511 . S
C2379 C2375 1.376 . S
C2379 C2378 1.392 . S
C2379 H2391 0.929 . S
C2380 C2376 1.531 1_565 S
C2380 H2392 0.960 . S
C2380 H2393 0.962 1_565 S
C2380 H2394 0.960 . S
C2381 C2378 1.511 . S
C2381 H2395 0.961 . S
C2381 H2396 0.961 . S
C2381 H2397 0.961 . S
C2382 C2383 1.370 . S
C2382 C2384 1.363 . S
C2382 H2398 0.931 . S
C2383 C2382 1.370 . S
C2383 C2387 1.408 1_545 S
C2384 C2382 1.363 . S
C2384 C2385 1.370 . S
C2384 C2388 1.524 . S
C2385 C2377 1.503 . S
C2385 C2384 1.370 . S
C2385 C2386 1.403 1_545 S
C2386 C2385 1.403 1_565 S
C2386 C2387 1.404 . S
C2386 C2389 1.539 . S
C2387 C2383 1.408 1_565 S
C2387 C2386 1.404 . S
C2387 H2399 0.930 . S
C2388 C2384 1.524 . S
C2388 H2400 0.956 . S
C2388 H2401 0.961 . S
C2388 H2402 0.961 . S
C2389 C2386 1.539 . S
C2389 H2403 0.958 . S
C2389 H2404 0.961 . S
C2389 H2405 0.960 . S
H2390 C2374 0.931 . S
H2391 C2379 0.929 . S
H2392 C2380 0.960 . S
H2393 C2380 0.962 1_545 S
H2394 C2380 0.960 . S
H2395 C2381 0.961 . S
H2396 C2381 0.961 . S
H2397 C2381 0.961 . S
H2398 C2382 0.931 . S
H2399 C2387 0.930 . S
H2400 C2388 0.956 . S
H2401 C2388 0.961 . S
H2402 C2388 0.961 . S
H2403 C2389 0.958 . S
H2404 C2389 0.961 . S
H2405 C2389 0.960 . S
C2406 C2407 1.391 . S
C2406 C2408 1.394 . S
C2406 H2422 0.931 . S
C2407 C2406 1.391 . S
C2407 C2411 1.376 . S
C2408 C2406 1.394 . S
C2408 C2409 1.369 . S
C2408 C2412 1.531 . S
C2409 C2408 1.369 . S
C2409 C2410 1.410 . S
C2409 C2417 1.503 . S
C2410 C2409 1.410 . S
C2410 C2411 1.392 . S
C2410 C2413 1.511 . S
C2411 C2407 1.376 . S
C2411 C2410 1.392 . S
C2411 H2423 0.929 . S
C2412 C2408 1.531 . S
C2412 H2424 0.960 . S
C2412 H2425 0.962 . S
C2412 H2426 0.960 . S
C2413 C2410 1.511 . S
C2413 H2427 0.961 . S
C2413 H2428 0.961 . S
C2413 H2429 0.961 . S
C2414 C2415 1.370 . S
C2414 C2416 1.363 . S
C2414 H2430 0.931 . S
C2415 C2414 1.370 . S
C2415 C2419 1.408 . S
C2416 C2414 1.363 . S
C2416 C2417 1.370 . S
C2416 C2420 1.524 . S
C2417 C2409 1.503 . S
C2417 C2416 1.370 . S
C2417 C2418 1.403 . S
C2418 C2417 1.403 . S
C2418 C2419 1.404 . S
C2418 C2421 1.539 . S
C2419 C2415 1.408 . S
C2419 C2418 1.404 . S
C2419 H2431 0.930 . S
C2420 C2416 1.524 . S
C2420 H2432 0.956 . S
C2420 H2433 0.961 . S
C2420 H2434 0.961 . S
C2421 C2418 1.539 . S
C2421 H2435 0.958 . S
C2421 H2436 0.961 . S
C2421 H2437 0.960 . S
H2422 C2406 0.931 . S
H2423 C2411 0.929 . S
H2424 C2412 0.960 . S
H2425 C2412 0.962 . S
H2426 C2412 0.960 . S
H2427 C2413 0.961 . S
H2428 C2413 0.961 . S
H2429 C2413 0.961 . S
H2430 C2414 0.931 . S
H2431 C2419 0.930 . S
H2432 C2420 0.956 . S
H2433 C2420 0.961 . S
H2434 C2420 0.961 . S
H2435 C2421 0.958 . S
H2436 C2421 0.961 . S
H2437 C2421 0.960 . S
C2438 C2439 1.391 . S
C2438 C2440 1.394 . S
C2438 H2454 0.931 . S
C2439 C2438 1.391 . S
C2439 C2443 1.376 . S
C2440 C2438 1.394 . S
C2440 C2441 1.369 . S
C2440 C2444 1.531 . S
C2441 C2440 1.369 . S
C2441 C2442 1.410 . S
C2441 C2449 1.503 . S
C2442 C2441 1.410 . S
C2442 C2443 1.392 . S
C2442 C2445 1.511 . S
C2443 C2439 1.376 . S
C2443 C2442 1.392 . S
C2443 H2455 0.929 . S
C2444 C2440 1.531 . S
C2444 H2456 0.960 . S
C2444 H2457 0.962 . S
C2444 H2458 0.960 . S
C2445 C2442 1.511 . S
C2445 H2459 0.961 . S
C2445 H2460 0.961 . S
C2445 H2461 0.961 . S
C2446 C2447 1.370 . S
C2446 C2448 1.363 . S
C2446 H2462 0.931 . S
C2447 C2446 1.370 . S
C2447 C2451 1.408 . S
C2448 C2446 1.363 . S
C2448 C2449 1.370 . S
C2448 C2452 1.524 . S
C2449 C2441 1.503 . S
C2449 C2448 1.370 . S
C2449 C2450 1.403 . S
C2450 C2449 1.403 . S
C2450 C2451 1.404 . S
C2450 C2453 1.539 . S
C2451 C2447 1.408 . S
C2451 C2450 1.404 . S
C2451 H2463 0.930 . S
C2452 C2448 1.524 . S
C2452 H2464 0.956 . S
C2452 H2465 0.961 . S
C2452 H2466 0.961 . S
C2453 C2450 1.539 . S
C2453 H2467 0.958 . S
C2453 H2468 0.961 . S
C2453 H2469 0.960 . S
H2454 C2438 0.931 . S
H2455 C2443 0.929 . S
H2456 C2444 0.960 . S
H2457 C2444 0.962 . S
H2458 C2444 0.960 . S
H2459 C2445 0.961 . S
H2460 C2445 0.961 . S
H2461 C2445 0.961 . S
H2462 C2446 0.931 . S
H2463 C2451 0.930 . S
H2464 C2452 0.956 . S
H2465 C2452 0.961 . S
H2466 C2452 0.961 . S
H2467 C2453 0.958 . S
H2468 C2453 0.961 . S
H2469 C2453 0.960 . S
C2470 C2471 1.391 . S
C2470 C2472 1.394 . S
C2470 H2486 0.931 . S
C2471 C2470 1.391 . S
C2471 C2475 1.376 . S
C2472 C2470 1.394 . S
C2472 C2473 1.369 . S
C2472 C2476 1.531 . S
C2473 C2472 1.369 . S
C2473 C2474 1.410 . S
C2473 C2481 1.503 . S
C2474 C2473 1.410 . S
C2474 C2475 1.392 . S
C2474 C2477 1.511 . S
C2475 C2471 1.376 . S
C2475 C2474 1.392 . S
C2475 H2487 0.929 . S
C2476 C2472 1.531 . S
C2476 H2488 0.960 . S
C2476 H2489 0.962 . S
C2476 H2490 0.960 . S
C2477 C2474 1.511 . S
C2477 H2491 0.961 . S
C2477 H2492 0.961 . S
C2477 H2493 0.961 . S
C2478 C2479 1.370 . S
C2478 C2480 1.363 . S
C2478 H2494 0.931 . S
C2479 C2478 1.370 . S
C2479 C2483 1.408 . S
C2480 C2478 1.363 . S
C2480 C2481 1.370 . S
C2480 C2484 1.524 . S
C2481 C2473 1.503 . S
C2481 C2480 1.370 . S
C2481 C2482 1.403 . S
C2482 C2481 1.403 . S
C2482 C2483 1.404 . S
C2482 C2485 1.539 . S
C2483 C2479 1.408 . S
C2483 C2482 1.404 . S
C2483 H2495 0.930 . S
C2484 C2480 1.524 . S
C2484 H2496 0.956 . S
C2484 H2497 0.961 . S
C2484 H2498 0.961 . S
C2485 C2482 1.539 . S
C2485 H2499 0.958 . S
C2485 H2500 0.961 . S
C2485 H2501 0.960 . S
H2486 C2470 0.931 . S
H2487 C2475 0.929 . S
H2488 C2476 0.960 . S
H2489 C2476 0.962 . S
H2490 C2476 0.960 . S
H2491 C2477 0.961 . S
H2492 C2477 0.961 . S
H2493 C2477 0.961 . S
H2494 C2478 0.931 . S
H2495 C2483 0.930 . S
H2496 C2484 0.956 . S
H2497 C2484 0.961 . S
H2498 C2484 0.961 . S
H2499 C2485 0.958 . S
H2500 C2485 0.961 . S
H2501 C2485 0.960 . S
C2502 C2503 1.391 . S
C2502 C2504 1.394 . S
C2502 H2518 0.931 . S
C2503 C2502 1.391 . S
C2503 C2507 1.376 . S
C2504 C2502 1.394 . S
C2504 C2505 1.369 . S
C2504 C2508 1.531 . S
C2505 C2504 1.369 . S
C2505 C2506 1.410 . S
C2505 C2513 1.503 . S
C2506 C2505 1.410 . S
C2506 C2507 1.392 . S
C2506 C2509 1.511 . S
C2507 C2503 1.376 . S
C2507 C2506 1.392 . S
C2507 H2519 0.929 . S
C2508 C2504 1.531 . S
C2508 H2520 0.960 . S
C2508 H2521 0.962 . S
C2508 H2522 0.960 . S
C2509 C2506 1.511 . S
C2509 H2523 0.961 . S
C2509 H2524 0.961 . S
C2509 H2525 0.961 . S
C2510 C2511 1.370 . S
C2510 C2512 1.363 . S
C2510 H2526 0.931 . S
C2511 C2510 1.370 . S
C2511 C2515 1.408 . S
C2512 C2510 1.363 . S
C2512 C2513 1.370 . S
C2512 C2516 1.524 . S
C2513 C2505 1.503 . S
C2513 C2512 1.370 . S
C2513 C2514 1.403 . S
C2514 C2513 1.403 . S
C2514 C2515 1.404 . S
C2514 C2517 1.539 . S
C2515 C2511 1.408 . S
C2515 C2514 1.404 . S
C2515 H2527 0.930 . S
C2516 C2512 1.524 . S
C2516 H2528 0.956 . S
C2516 H2529 0.961 . S
C2516 H2530 0.961 . S
C2517 C2514 1.539 . S
C2517 H2531 0.958 . S
C2517 H2532 0.961 . S
C2517 H2533 0.960 . S
H2518 C2502 0.931 . S
H2519 C2507 0.929 . S
H2520 C2508 0.960 . S
H2521 C2508 0.962 . S
H2522 C2508 0.960 . S
H2523 C2509 0.961 . S
H2524 C2509 0.961 . S
H2525 C2509 0.961 . S
H2526 C2510 0.931 . S
H2527 C2515 0.930 . S
H2528 C2516 0.956 . S
H2529 C2516 0.961 . S
H2530 C2516 0.961 . S
H2531 C2517 0.958 . S
H2532 C2517 0.961 . S
H2533 C2517 0.960 . S
C2534 C2535 1.391 . S
C2534 C2536 1.394 . S
C2534 H2550 0.931 . S
C2535 C2534 1.391 . S
C2535 C2539 1.376 . S
C2536 C2534 1.394 . S
C2536 C2537 1.369 . S
C2536 C2540 1.531 . S
C2537 C2536 1.369 . S
C2537 C2538 1.410 . S
C2537 C2545 1.503 . S
C2538 C2537 1.410 . S
C2538 C2539 1.392 . S
C2538 C2541 1.511 . S
C2539 C2535 1.376 . S
C2539 C2538 1.392 . S
C2539 H2551 0.929 . S
C2540 C2536 1.531 . S
C2540 H2552 0.960 . S
C2540 H2553 0.962 . S
C2540 H2554 0.960 . S
C2541 C2538 1.511 . S
C2541 H2555 0.961 . S
C2541 H2556 0.961 . S
C2541 H2557 0.961 . S
C2542 C2543 1.370 . S
C2542 C2544 1.363 . S
C2542 H2558 0.931 . S
C2543 C2542 1.370 . S
C2543 C2547 1.408 . S
C2544 C2542 1.363 . S
C2544 C2545 1.370 . S
C2544 C2548 1.524 . S
C2545 C2537 1.503 . S
C2545 C2544 1.370 . S
C2545 C2546 1.403 . S
C2546 C2545 1.403 . S
C2546 C2547 1.404 . S
C2546 C2549 1.539 . S
C2547 C2543 1.408 . S
C2547 C2546 1.404 . S
C2547 H2559 0.930 . S
C2548 C2544 1.524 . S
C2548 H2560 0.956 . S
C2548 H2561 0.961 . S
C2548 H2562 0.961 . S
C2549 C2546 1.539 . S
C2549 H2563 0.958 . S
C2549 H2564 0.961 . S
C2549 H2565 0.960 . S
H2550 C2534 0.931 . S
H2551 C2539 0.929 . S
H2552 C2540 0.960 . S
H2553 C2540 0.962 . S
H2554 C2540 0.960 . S
H2555 C2541 0.961 . S
H2556 C2541 0.961 . S
H2557 C2541 0.961 . S
H2558 C2542 0.931 . S
H2559 C2547 0.930 . S
H2560 C2548 0.956 . S
H2561 C2548 0.961 . S
H2562 C2548 0.961 . S
H2563 C2549 0.958 . S
H2564 C2549 0.961 . S
H2565 C2549 0.960 . S
C2566 C2567 1.391 . S
C2566 C2568 1.394 . S
C2566 H2582 0.931 . S
C2567 C2566 1.391 . S
C2567 C2571 1.376 . S
C2568 C2566 1.394 . S
C2568 C2569 1.369 . S
C2568 C2572 1.531 . S
C2569 C2568 1.369 . S
C2569 C2570 1.410 . S
C2569 C2577 1.503 . S
C2570 C2569 1.410 . S
C2570 C2571 1.392 . S
C2570 C2573 1.511 . S
C2571 C2567 1.376 . S
C2571 C2570 1.392 . S
C2571 H2583 0.929 . S
C2572 C2568 1.531 . S
C2572 H2584 0.960 . S
C2572 H2585 0.962 . S
C2572 H2586 0.960 . S
C2573 C2570 1.511 . S
C2573 H2587 0.961 . S
C2573 H2588 0.961 . S
C2573 H2589 0.961 . S
C2574 C2575 1.370 . S
C2574 C2576 1.363 . S
C2574 H2590 0.931 . S
C2575 C2574 1.370 . S
C2575 C2579 1.408 . S
C2576 C2574 1.363 . S
C2576 C2577 1.370 . S
C2576 C2580 1.524 . S
C2577 C2569 1.503 . S
C2577 C2576 1.370 . S
C2577 C2578 1.403 . S
C2578 C2577 1.403 . S
C2578 C2579 1.404 . S
C2578 C2581 1.539 . S
C2579 C2575 1.408 . S
C2579 C2578 1.404 . S
C2579 H2591 0.930 . S
C2580 C2576 1.524 . S
C2580 H2592 0.956 . S
C2580 H2593 0.961 . S
C2580 H2594 0.961 . S
C2581 C2578 1.539 . S
C2581 H2595 0.958 . S
C2581 H2596 0.961 . S
C2581 H2597 0.960 . S
H2582 C2566 0.931 . S
H2583 C2571 0.929 . S
H2584 C2572 0.960 . S
H2585 C2572 0.962 . S
H2586 C2572 0.960 . S
H2587 C2573 0.961 . S
H2588 C2573 0.961 . S
H2589 C2573 0.961 . S
H2590 C2574 0.931 . S
H2591 C2579 0.930 . S
H2592 C2580 0.956 . S
H2593 C2580 0.961 . S
H2594 C2580 0.961 . S
H2595 C2581 0.958 . S
H2596 C2581 0.961 . S
H2597 C2581 0.960 . S
C2598 C2599 1.391 . S
C2598 C2600 1.394 . S
C2598 H2614 0.931 . S
C2599 C2598 1.391 . S
C2599 C2603 1.376 . S
C2600 C2598 1.394 . S
C2600 C2601 1.369 . S
C2600 C2604 1.531 . S
C2601 C2600 1.369 . S
C2601 C2602 1.410 . S
C2601 C2609 1.503 . S
C2602 C2601 1.410 . S
C2602 C2603 1.392 . S
C2602 C2605 1.511 . S
C2603 C2599 1.376 . S
C2603 C2602 1.392 . S
C2603 H2615 0.929 . S
C2604 C2600 1.531 . S
C2604 H2616 0.960 . S
C2604 H2617 0.962 . S
C2604 H2618 0.960 . S
C2605 C2602 1.511 . S
C2605 H2619 0.961 . S
C2605 H2620 0.961 . S
C2605 H2621 0.961 . S
C2606 C2607 1.370 . S
C2606 C2608 1.363 . S
C2606 H2622 0.931 . S
C2607 C2606 1.370 . S
C2607 C2611 1.408 . S
C2608 C2606 1.363 . S
C2608 C2609 1.370 . S
C2608 C2612 1.524 . S
C2609 C2601 1.503 . S
C2609 C2608 1.370 . S
C2609 C2610 1.403 . S
C2610 C2609 1.403 . S
C2610 C2611 1.404 . S
C2610 C2613 1.539 . S
C2611 C2607 1.408 . S
C2611 C2610 1.404 . S
C2611 H2623 0.930 . S
C2612 C2608 1.524 . S
C2612 H2624 0.956 . S
C2612 H2625 0.961 . S
C2612 H2626 0.961 . S
C2613 C2610 1.539 . S
C2613 H2627 0.958 . S
C2613 H2628 0.961 . S
C2613 H2629 0.960 . S
H2614 C2598 0.931 . S
H2615 C2603 0.929 . S
H2616 C2604 0.960 . S
H2617 C2604 0.962 . S
H2618 C2604 0.960 . S
H2619 C2605 0.961 . S
H2620 C2605 0.961 . S
H2621 C2605 0.961 . S
H2622 C2606 0.931 . S
H2623 C2611 0.930 . S
H2624 C2612 0.956 . S
H2625 C2612 0.961 . S
H2626 C2612 0.961 . S
H2627 C2613 0.958 . S
H2628 C2613 0.961 . S
H2629 C2613 0.960 . S
C2630 C2631 1.391 . S
C2630 C2632 1.394 . S
C2630 H2646 0.931 . S
C2631 C2630 1.391 . S
C2631 C2635 1.376 . S
C2632 C2630 1.394 . S
C2632 C2633 1.369 . S
C2632 C2636 1.531 . S
C2633 C2632 1.369 . S
C2633 C2634 1.410 . S
C2633 C2641 1.503 . S
C2634 C2633 1.410 . S
C2634 C2635 1.392 . S
C2634 C2637 1.511 . S
C2635 C2631 1.376 . S
C2635 C2634 1.392 . S
C2635 H2647 0.929 . S
C2636 C2632 1.531 . S
C2636 H2648 0.960 . S
C2636 H2649 0.962 . S
C2636 H2650 0.960 . S
C2637 C2634 1.511 . S
C2637 H2651 0.961 . S
C2637 H2652 0.961 . S
C2637 H2653 0.961 . S
C2638 C2639 1.370 . S
C2638 C2640 1.363 . S
C2638 H2654 0.931 . S
C2639 C2638 1.370 . S
C2639 C2643 1.408 . S
C2640 C2638 1.363 . S
C2640 C2641 1.370 . S
C2640 C2644 1.524 . S
C2641 C2633 1.503 . S
C2641 C2640 1.370 . S
C2641 C2642 1.403 . S
C2642 C2641 1.403 . S
C2642 C2643 1.404 . S
C2642 C2645 1.539 . S
C2643 C2639 1.408 . S
C2643 C2642 1.404 . S
C2643 H2655 0.930 . S
C2644 C2640 1.524 . S
C2644 H2656 0.956 . S
C2644 H2657 0.961 . S
C2644 H2658 0.961 . S
C2645 C2642 1.539 . S
C2645 H2659 0.958 . S
C2645 H2660 0.961 . S
C2645 H2661 0.960 . S
H2646 C2630 0.931 . S
H2647 C2635 0.929 . S
H2648 C2636 0.960 . S
H2649 C2636 0.962 . S
H2650 C2636 0.960 . S
H2651 C2637 0.961 . S
H2652 C2637 0.961 . S
H2653 C2637 0.961 . S
H2654 C2638 0.931 . S
H2655 C2643 0.930 . S
H2656 C2644 0.956 . S
H2657 C2644 0.961 . S
H2658 C2644 0.961 . S
H2659 C2645 0.958 . S
H2660 C2645 0.961 . S
H2661 C2645 0.960 . S
C2662 C2663 1.391 . S
C2662 C2664 1.394 . S
C2662 H2678 0.931 . S
C2663 C2662 1.391 . S
C2663 C2667 1.376 . S
C2664 C2662 1.394 . S
C2664 C2665 1.369 . S
C2664 C2668 1.531 . S
C2665 C2664 1.369 . S
C2665 C2666 1.410 . S
C2665 C2673 1.503 . S
C2666 C2665 1.410 . S
C2666 C2667 1.392 . S
C2666 C2669 1.511 . S
C2667 C2663 1.376 . S
C2667 C2666 1.392 . S
C2667 H2679 0.929 . S
C2668 C2664 1.531 . S
C2668 H2680 0.960 . S
C2668 H2681 0.962 . S
C2668 H2682 0.960 . S
C2669 C2666 1.511 . S
C2669 H2683 0.961 . S
C2669 H2684 0.961 . S
C2669 H2685 0.961 . S
C2670 C2671 1.370 . S
C2670 C2672 1.363 . S
C2670 H2686 0.931 . S
C2671 C2670 1.370 . S
C2671 C2675 1.408 . S
C2672 C2670 1.363 . S
C2672 C2673 1.370 . S
C2672 C2676 1.524 . S
C2673 C2665 1.503 . S
C2673 C2672 1.370 . S
C2673 C2674 1.403 . S
C2674 C2673 1.403 . S
C2674 C2675 1.404 . S
C2674 C2677 1.539 . S
C2675 C2671 1.408 . S
C2675 C2674 1.404 . S
C2675 H2687 0.930 . S
C2676 C2672 1.524 . S
C2676 H2688 0.956 . S
C2676 H2689 0.961 . S
C2676 H2690 0.961 . S
C2677 C2674 1.539 . S
C2677 H2691 0.958 . S
C2677 H2692 0.961 . S
C2677 H2693 0.960 . S
H2678 C2662 0.931 . S
H2679 C2667 0.929 . S
H2680 C2668 0.960 . S
H2681 C2668 0.962 . S
H2682 C2668 0.960 . S
H2683 C2669 0.961 . S
H2684 C2669 0.961 . S
H2685 C2669 0.961 . S
H2686 C2670 0.931 . S
H2687 C2675 0.930 . S
H2688 C2676 0.956 . S
H2689 C2676 0.961 . S
H2690 C2676 0.961 . S
H2691 C2677 0.958 . S
H2692 C2677 0.961 . S
H2693 C2677 0.960 . S
C2694 C2695 1.391 . S
C2694 C2696 1.394 . S
C2694 H2710 0.931 . S
C2695 C2694 1.391 . S
C2695 C2699 1.376 . S
C2696 C2694 1.394 . S
C2696 C2697 1.369 . S
C2696 C2700 1.531 . S
C2697 C2696 1.369 . S
C2697 C2698 1.410 . S
C2697 C2705 1.503 . S
C2698 C2697 1.410 . S
C2698 C2699 1.392 . S
C2698 C2701 1.511 . S
C2699 C2695 1.376 . S
C2699 C2698 1.392 . S
C2699 H2711 0.929 . S
C2700 C2696 1.531 . S
C2700 H2712 0.960 . S
C2700 H2713 0.962 . S
C2700 H2714 0.960 . S
C2701 C2698 1.511 . S
C2701 H2715 0.961 . S
C2701 H2716 0.961 . S
C2701 H2717 0.961 . S
C2702 C2703 1.370 . S
C2702 C2704 1.363 . S
C2702 H2718 0.931 . S
C2703 C2702 1.370 . S
C2703 C2707 1.408 . S
C2704 C2702 1.363 . S
C2704 C2705 1.370 . S
C2704 C2708 1.524 . S
C2705 C2697 1.503 . S
C2705 C2704 1.370 . S
C2705 C2706 1.403 . S
C2706 C2705 1.403 . S
C2706 C2707 1.404 . S
C2706 C2709 1.539 . S
C2707 C2703 1.408 . S
C2707 C2706 1.404 . S
C2707 H2719 0.930 . S
C2708 C2704 1.524 . S
C2708 H2720 0.956 . S
C2708 H2721 0.961 . S
C2708 H2722 0.961 . S
C2709 C2706 1.539 . S
C2709 H2723 0.958 . S
C2709 H2724 0.961 . S
C2709 H2725 0.960 . S
H2710 C2694 0.931 . S
H2711 C2699 0.929 . S
H2712 C2700 0.960 . S
H2713 C2700 0.962 . S
H2714 C2700 0.960 . S
H2715 C2701 0.961 . S
H2716 C2701 0.961 . S
H2717 C2701 0.961 . S
H2718 C2702 0.931 . S
H2719 C2707 0.930 . S
H2720 C2708 0.956 . S
H2721 C2708 0.961 . S
H2722 C2708 0.961 . S
H2723 C2709 0.958 . S
H2724 C2709 0.961 . S
H2725 C2709 0.960 . S
C2726 C2727 1.391 . S
C2726 C2728 1.394 . S
C2726 H2742 0.931 . S
C2727 C2726 1.391 . S
C2727 C2731 1.376 . S
C2728 C2726 1.394 . S
C2728 C2729 1.369 . S
C2728 C2732 1.531 . S
C2729 C2728 1.369 . S
C2729 C2730 1.410 . S
C2729 C2737 1.503 . S
C2730 C2729 1.410 . S
C2730 C2731 1.392 . S
C2730 C2733 1.511 . S
C2731 C2727 1.376 . S
C2731 C2730 1.392 . S
C2731 H2743 0.929 . S
C2732 C2728 1.531 . S
C2732 H2744 0.960 . S
C2732 H2745 0.962 . S
C2732 H2746 0.960 . S
C2733 C2730 1.511 . S
C2733 H2747 0.961 . S
C2733 H2748 0.961 . S
C2733 H2749 0.961 . S
C2734 C2735 1.370 . S
C2734 C2736 1.363 . S
C2734 H2750 0.931 . S
C2735 C2734 1.370 . S
C2735 C2739 1.408 . S
C2736 C2734 1.363 . S
C2736 C2737 1.370 . S
C2736 C2740 1.524 . S
C2737 C2729 1.503 . S
C2737 C2736 1.370 . S
C2737 C2738 1.403 . S
C2738 C2737 1.403 . S
C2738 C2739 1.404 . S
C2738 C2741 1.539 . S
C2739 C2735 1.408 . S
C2739 C2738 1.404 . S
C2739 H2751 0.930 . S
C2740 C2736 1.524 . S
C2740 H2752 0.956 . S
C2740 H2753 0.961 . S
C2740 H2754 0.961 . S
C2741 C2738 1.539 . S
C2741 H2755 0.958 . S
C2741 H2756 0.961 . S
C2741 H2757 0.960 . S
H2742 C2726 0.931 . S
H2743 C2731 0.929 . S
H2744 C2732 0.960 . S
H2745 C2732 0.962 . S
H2746 C2732 0.960 . S
H2747 C2733 0.961 . S
H2748 C2733 0.961 . S
H2749 C2733 0.961 . S
H2750 C2734 0.931 . S
H2751 C2739 0.930 . S
H2752 C2740 0.956 . S
H2753 C2740 0.961 . S
H2754 C2740 0.961 . S
H2755 C2741 0.958 . S
H2756 C2741 0.961 . S
H2757 C2741 0.960 . S
C2758 C2759 1.391 . S
C2758 C2760 1.394 . S
C2758 H2774 0.931 . S
C2759 C2758 1.391 . S
C2759 C2763 1.376 . S
C2760 C2758 1.394 . S
C2760 C2761 1.369 . S
C2760 C2764 1.531 . S
C2761 C2760 1.369 . S
C2761 C2762 1.410 . S
C2761 C2769 1.503 . S
C2762 C2761 1.410 . S
C2762 C2763 1.392 . S
C2762 C2765 1.511 . S
C2763 C2759 1.376 . S
C2763 C2762 1.392 . S
C2763 H2775 0.929 . S
C2764 C2760 1.531 . S
C2764 H2776 0.960 . S
C2764 H2777 0.962 . S
C2764 H2778 0.960 . S
C2765 C2762 1.511 . S
C2765 H2779 0.961 . S
C2765 H2780 0.961 . S
C2765 H2781 0.961 . S
C2766 C2767 1.370 . S
C2766 C2768 1.363 . S
C2766 H2782 0.931 . S
C2767 C2766 1.370 . S
C2767 C2771 1.408 . S
C2768 C2766 1.363 . S
C2768 C2769 1.370 . S
C2768 C2772 1.524 . S
C2769 C2761 1.503 . S
C2769 C2768 1.370 . S
C2769 C2770 1.403 . S
C2770 C2769 1.403 . S
C2770 C2771 1.404 . S
C2770 C2773 1.539 . S
C2771 C2767 1.408 . S
C2771 C2770 1.404 . S
C2771 H2783 0.930 . S
C2772 C2768 1.524 . S
C2772 H2784 0.956 . S
C2772 H2785 0.961 . S
C2772 H2786 0.961 . S
C2773 C2770 1.539 . S
C2773 H2787 0.958 . S
C2773 H2788 0.961 . S
C2773 H2789 0.960 . S
H2774 C2758 0.931 . S
H2775 C2763 0.929 . S
H2776 C2764 0.960 . S
H2777 C2764 0.962 . S
H2778 C2764 0.960 . S
H2779 C2765 0.961 . S
H2780 C2765 0.961 . S
H2781 C2765 0.961 . S
H2782 C2766 0.931 . S
H2783 C2771 0.930 . S
H2784 C2772 0.956 . S
H2785 C2772 0.961 . S
H2786 C2772 0.961 . S
H2787 C2773 0.958 . S
H2788 C2773 0.961 . S
H2789 C2773 0.960 . S
C1063 C528 1.666 . S
C1071 C705 1.679 . S
C1095 C562 1.802 . S
C1103 C745 1.825 . S
C1127 C484 1.716 . S
C1135 C797 1.766 . S
C1159 C445 1.587 . S
C1167 C757 1.562 . S
C1199 C785 1.495 . S
C1191 C367 1.499 . S
C1223 C411 1.427 . S
C1231 C717 1.421 . S
C1263 C724 1.700 . S
C1255 C450 1.661 . S
C1295 C764 1.801 . S
C1287 C372 1.799 . S
C1319 C406 1.722 . S
C1327 C784 1.770 . S
C1351 C523 1.567 . S
C1359 C744 1.576 . S
C1383 C567 1.478 . S
C1391 C804 1.474 . S
C1423 C704 1.458 . S
C1415 C489 1.381 . S
C1455 C825 1.679 . S
C1447 C60 1.668 . S
C1479 C94 1.802 . S
C1487 C865 1.825 . S
C1511 C16 1.718 . S
C1519 C917 1.768 . S
C1543 C679 1.589 . S
C1551 C877 1.564 . S
C1575 C601 1.482 . S
C1583 C905 1.497 . S
C1607 C645 1.417 . S
C1615 C837 1.420 . S
C1639 C684 1.682 . S
C1647 C844 1.692 . S
C1671 C606 1.778 . S
C1679 C884 1.807 . S
C1711 C904 1.771 . S
C1703 C640 1.718 . S
C1735 C55 1.545 . S
C1743 C864 1.571 . S
C1775 C924 1.474 . S
C1767 C99 1.479 . S
C1799 C21 1.382 . S
C1807 C824 1.458 . S
C1839 C945 1.675 . S
C1831 C294 1.676 . S
C1863 C328 1.825 . S
C1871 C985 1.818 . S
C1903 C1037 1.752 . S
C1895 C250 1.765 . S
C1935 C997 1.577 . S
C1927 C211 1.545 . S
C1967 C1025 1.495 . S
C1959 C133 1.501 . S
C1991 C177 1.387 . S
C1999 C957 1.427 . S
C2023 C216 1.647 . S
C2031 C964 1.703 . S
C2055 C138 1.800 . S
C2063 C1004 1.801 . S
C2095 C1024 1.755 . S
C2087 C172 1.742 . S
C2119 C289 1.561 . S
C2127 C984 1.577 . S
C2151 C333 1.447 . S
C2159 C1044 1.481 . S
C2183 C255 1.436 . S
C2191 C944 1.440 . S
C2215 C586 1.333 . S
C2223 C728 1.319 . S
C2255 C768 1.849 . S
C2247 C625 1.870 . S
C2279 C664 1.559 . S
C2287 C791 1.584 . S
C2311 C235 1.871 . S
C2319 C751 1.859 . S
C2343 C274 1.547 . S
C2351 C808 1.568 . S
C2383 C711 1.326 . S
C2375 C313 1.329 . S
C2407 C118 1.334 . S
C2415 C848 1.325 . S
C2439 C157 1.844 . S
C2447 C888 1.858 . S
C2471 C196 1.579 . S
C2479 C911 1.575 . S
C2503 C469 1.858 . S
C2511 C871 1.863 . S
C2543 C928 1.564 . S
C2535 C508 1.569 . S
C2567 C547 1.320 . S
C2575 C831 1.323 . S
C2599 C352 1.323 . S
C2607 C968 1.323 . S
C2631 C391 1.873 . S
C2639 C1008 1.846 . S
C2671 C1031 1.576 . S
C2663 C430 1.568 . S
C2695 C1 1.858 . S
C2703 C991 1.862 . S
C2727 C40 1.572 . S
C2735 C1048 1.561 . S
C2759 C79 1.331 . S
C2767 C951 1.323 . S
