# Generated by pormake.
# Topology ptr, (4,4)-cn, num edge types: 1
# Building blocks:
#     Node 0, Type 0, BuildingBlock: UXUYUI_clean_sbu_0, # of connection points: 4
#     Node 1, Type 0, BuildingBlock: UXUYUI_clean_sbu_0, # of connection points: 4
#     Node 2, Type 0, BuildingBlock: UXUYUI_clean_sbu_0, # of connection points: 4
#     Node 3, Type 0, BuildingBlock: UXUYUI_clean_sbu_0, # of connection points: 4
#     Node 4, Type 0, BuildingBlock: UXUYUI_clean_sbu_0, # of connection points: 4
#     Node 5, Type 0, BuildingBlock: UXUYUI_clean_sbu_0, # of connection points: 4
#     Node 6, Type 0, BuildingBlock: UXUYUI_clean_sbu_0, # of connection points: 4
#     Node 7, Type 0, BuildingBlock: UXUYUI_clean_sbu_0, # of connection points: 4
#     Node 8, Type 0, BuildingBlock: UXUYUI_clean_sbu_0, # of connection points: 4
#     Node 9, Type 0, BuildingBlock: UXUYUI_clean_sbu_0, # of connection points: 4
#     Node 10, Type 0, BuildingBlock: UXUYUI_clean_sbu_0, # of connection points: 4
#     Node 11, Type 0, BuildingBlock: UXUYUI_clean_sbu_0, # of connection points: 4
#     Node 12, Type 0, BuildingBlock: UXUYUI_clean_sbu_0, # of connection points: 4
#     Node 13, Type 0, BuildingBlock: UXUYUI_clean_sbu_0, # of connection points: 4
#     Node 14, Type 0, BuildingBlock: UXUYUI_clean_sbu_0, # of connection points: 4
#     Node 15, Type 0, BuildingBlock: UXUYUI_clean_sbu_0, # of connection points: 4
#     Node 16, Type 0, BuildingBlock: UXUYUI_clean_sbu_0, # of connection points: 4
#     Node 17, Type 0, BuildingBlock: UXUYUI_clean_sbu_0, # of connection points: 4
#     Node 18, Type 1, BuildingBlock: AZAVOO_clean_linker_0, # of connection points: 4
#     Node 19, Type 1, BuildingBlock: AZAVOO_clean_linker_0, # of connection points: 4
#     Node 20, Type 1, BuildingBlock: AZAVOO_clean_linker_0, # of connection points: 4
#     Node 21, Type 1, BuildingBlock: AZAVOO_clean_linker_0, # of connection points: 4
#     Node 22, Type 1, BuildingBlock: AZAVOO_clean_linker_0, # of connection points: 4
#     Node 23, Type 1, BuildingBlock: AZAVOO_clean_linker_0, # of connection points: 4
#     Node 24, Type 1, BuildingBlock: AZAVOO_clean_linker_0, # of connection points: 4
#     Node 25, Type 1, BuildingBlock: AZAVOO_clean_linker_0, # of connection points: 4
#     Node 26, Type 1, BuildingBlock: AZAVOO_clean_linker_0, # of connection points: 4
#     Node 27, Type 1, BuildingBlock: AZAVOO_clean_linker_0, # of connection points: 4
#     Node 28, Type 1, BuildingBlock: AZAVOO_clean_linker_0, # of connection points: 4
#     Node 29, Type 1, BuildingBlock: AZAVOO_clean_linker_0, # of connection points: 4
#     Node 30, Type 1, BuildingBlock: AZAVOO_clean_linker_0, # of connection points: 4
#     Node 31, Type 1, BuildingBlock: AZAVOO_clean_linker_0, # of connection points: 4
#     Node 32, Type 1, BuildingBlock: AZAVOO_clean_linker_0, # of connection points: 4
#     Node 33, Type 1, BuildingBlock: AZAVOO_clean_linker_0, # of connection points: 4
#     Node 34, Type 1, BuildingBlock: AZAVOO_clean_linker_0, # of connection points: 4
#     Node 35, Type 1, BuildingBlock: AZAVOO_clean_linker_0, # of connection points: 4
#     Edge 36, Type (0, 1), BuildingBlock: OJICUG_clean_linker_0, # of connection points: 2
#     Edge 37, Type (0, 1), BuildingBlock: OJICUG_clean_linker_0, # of connection points: 2
#     Edge 38, Type (0, 1), BuildingBlock: OJICUG_clean_linker_0, # of connection points: 2
#     Edge 39, Type (0, 1), BuildingBlock: OJICUG_clean_linker_0, # of connection points: 2
#     Edge 40, Type (0, 1), BuildingBlock: OJICUG_clean_linker_0, # of connection points: 2
#     Edge 41, Type (0, 1), BuildingBlock: OJICUG_clean_linker_0, # of connection points: 2
#     Edge 42, Type (0, 1), BuildingBlock: OJICUG_clean_linker_0, # of connection points: 2
#     Edge 43, Type (0, 1), BuildingBlock: OJICUG_clean_linker_0, # of connection points: 2
#     Edge 44, Type (0, 1), BuildingBlock: OJICUG_clean_linker_0, # of connection points: 2
#     Edge 45, Type (0, 1), BuildingBlock: OJICUG_clean_linker_0, # of connection points: 2
#     Edge 46, Type (0, 1), BuildingBlock: OJICUG_clean_linker_0, # of connection points: 2
#     Edge 47, Type (0, 1), BuildingBlock: OJICUG_clean_linker_0, # of connection points: 2
#     Edge 48, Type (0, 1), BuildingBlock: OJICUG_clean_linker_0, # of connection points: 2
#     Edge 49, Type (0, 1), BuildingBlock: OJICUG_clean_linker_0, # of connection points: 2
#     Edge 50, Type (0, 1), BuildingBlock: OJICUG_clean_linker_0, # of connection points: 2
#     Edge 51, Type (0, 1), BuildingBlock: OJICUG_clean_linker_0, # of connection points: 2
#     Edge 52, Type (0, 1), BuildingBlock: OJICUG_clean_linker_0, # of connection points: 2
#     Edge 53, Type (0, 1), BuildingBlock: OJICUG_clean_linker_0, # of connection points: 2
#     Edge 54, Type (0, 1), BuildingBlock: OJICUG_clean_linker_0, # of connection points: 2
#     Edge 55, Type (0, 1), BuildingBlock: OJICUG_clean_linker_0, # of connection points: 2
#     Edge 56, Type (0, 1), BuildingBlock: OJICUG_clean_linker_0, # of connection points: 2
#     Edge 57, Type (0, 1), BuildingBlock: OJICUG_clean_linker_0, # of connection points: 2
#     Edge 58, Type (0, 1), BuildingBlock: OJICUG_clean_linker_0, # of connection points: 2
#     Edge 59, Type (0, 1), BuildingBlock: OJICUG_clean_linker_0, # of connection points: 2
#     Edge 60, Type (0, 1), BuildingBlock: OJICUG_clean_linker_0, # of connection points: 2
#     Edge 61, Type (0, 1), BuildingBlock: OJICUG_clean_linker_0, # of connection points: 2
#     Edge 62, Type (0, 1), BuildingBlock: OJICUG_clean_linker_0, # of connection points: 2
#     Edge 63, Type (0, 1), BuildingBlock: OJICUG_clean_linker_0, # of connection points: 2
#     Edge 64, Type (0, 1), BuildingBlock: OJICUG_clean_linker_0, # of connection points: 2
#     Edge 65, Type (0, 1), BuildingBlock: OJICUG_clean_linker_0, # of connection points: 2
#     Edge 66, Type (0, 1), BuildingBlock: OJICUG_clean_linker_0, # of connection points: 2
#     Edge 67, Type (0, 1), BuildingBlock: OJICUG_clean_linker_0, # of connection points: 2
#     Edge 68, Type (0, 1), BuildingBlock: OJICUG_clean_linker_0, # of connection points: 2
#     Edge 69, Type (0, 1), BuildingBlock: OJICUG_clean_linker_0, # of connection points: 2
#     Edge 70, Type (0, 1), BuildingBlock: OJICUG_clean_linker_0, # of connection points: 2
#     Edge 71, Type (0, 1), BuildingBlock: OJICUG_clean_linker_0, # of connection points: 2
#     Edge 72, Type (0, 1), BuildingBlock: OJICUG_clean_linker_0, # of connection points: 2
#     Edge 73, Type (0, 1), BuildingBlock: OJICUG_clean_linker_0, # of connection points: 2
#     Edge 74, Type (0, 1), BuildingBlock: OJICUG_clean_linker_0, # of connection points: 2
#     Edge 75, Type (0, 1), BuildingBlock: OJICUG_clean_linker_0, # of connection points: 2
#     Edge 76, Type (0, 1), BuildingBlock: OJICUG_clean_linker_0, # of connection points: 2
#     Edge 77, Type (0, 1), BuildingBlock: OJICUG_clean_linker_0, # of connection points: 2
#     Edge 78, Type (0, 1), BuildingBlock: OJICUG_clean_linker_0, # of connection points: 2
#     Edge 79, Type (0, 1), BuildingBlock: OJICUG_clean_linker_0, # of connection points: 2
#     Edge 80, Type (0, 1), BuildingBlock: OJICUG_clean_linker_0, # of connection points: 2
#     Edge 81, Type (0, 1), BuildingBlock: OJICUG_clean_linker_0, # of connection points: 2
#     Edge 82, Type (0, 1), BuildingBlock: OJICUG_clean_linker_0, # of connection points: 2
#     Edge 83, Type (0, 1), BuildingBlock: OJICUG_clean_linker_0, # of connection points: 2
#     Edge 84, Type (0, 1), BuildingBlock: OJICUG_clean_linker_0, # of connection points: 2
#     Edge 85, Type (0, 1), BuildingBlock: OJICUG_clean_linker_0, # of connection points: 2
#     Edge 86, Type (0, 1), BuildingBlock: OJICUG_clean_linker_0, # of connection points: 2
#     Edge 87, Type (0, 1), BuildingBlock: OJICUG_clean_linker_0, # of connection points: 2
#     Edge 88, Type (0, 1), BuildingBlock: OJICUG_clean_linker_0, # of connection points: 2
#     Edge 89, Type (0, 1), BuildingBlock: OJICUG_clean_linker_0, # of connection points: 2
#     Edge 90, Type (0, 1), BuildingBlock: OJICUG_clean_linker_0, # of connection points: 2
#     Edge 91, Type (0, 1), BuildingBlock: OJICUG_clean_linker_0, # of connection points: 2
#     Edge 92, Type (0, 1), BuildingBlock: OJICUG_clean_linker_0, # of connection points: 2
#     Edge 93, Type (0, 1), BuildingBlock: OJICUG_clean_linker_0, # of connection points: 2
#     Edge 94, Type (0, 1), BuildingBlock: OJICUG_clean_linker_0, # of connection points: 2
#     Edge 95, Type (0, 1), BuildingBlock: OJICUG_clean_linker_0, # of connection points: 2
#     Edge 96, Type (0, 1), BuildingBlock: OJICUG_clean_linker_0, # of connection points: 2
#     Edge 97, Type (0, 1), BuildingBlock: OJICUG_clean_linker_0, # of connection points: 2
#     Edge 98, Type (0, 1), BuildingBlock: OJICUG_clean_linker_0, # of connection points: 2
#     Edge 99, Type (0, 1), BuildingBlock: OJICUG_clean_linker_0, # of connection points: 2
#     Edge 100, Type (0, 1), BuildingBlock: OJICUG_clean_linker_0, # of connection points: 2
#     Edge 101, Type (0, 1), BuildingBlock: OJICUG_clean_linker_0, # of connection points: 2
#     Edge 102, Type (0, 1), BuildingBlock: OJICUG_clean_linker_0, # of connection points: 2
#     Edge 103, Type (0, 1), BuildingBlock: OJICUG_clean_linker_0, # of connection points: 2
#     Edge 104, Type (0, 1), BuildingBlock: OJICUG_clean_linker_0, # of connection points: 2
#     Edge 105, Type (0, 1), BuildingBlock: OJICUG_clean_linker_0, # of connection points: 2
#     Edge 106, Type (0, 1), BuildingBlock: OJICUG_clean_linker_0, # of connection points: 2
#     Edge 107, Type (0, 1), BuildingBlock: OJICUG_clean_linker_0, # of connection points: 2
# Relax obj value: 0.134
# Max RMSD: 0.320
# Mean RMSD: 0.191
data_MOF--net-ptr--node1-UXUYUI_clean_sbu_0--node2-AZAVOO_clean_linker_0--edge1-OJICUG_clean_linker_0
_symmetry_space_group_name_H-M    P1
_symmetry_Int_Tables_number       1
_symmetry_cell_setting            triclinic
loop_
_symmetry_equiv_pos_as_xyz
'x, y, z'
_cell_length_a     80.083878
_cell_length_b     79.302211
_cell_length_c     65.167865
_cell_angle_alpha  92.84094
_cell_angle_beta   92.52099
_cell_angle_gamma 120.22948
loop_
_atom_site_label
_atom_site_type_symbol
_atom_site_fract_x
_atom_site_fract_y
_atom_site_fract_z
_atom_type_partial_charge
Li0 Li 0.9944 0.34589 0.00959 0.0
Li1 Li 0.02539 0.36504 0.02929 0.0
Li2 Li 7e-05 0.37349 0.03314 0.0
Li3 Li 0.01712 0.37999 0.00189 0.0
C4 C 0.9859 0.33487 0.05035 0.0
N5 N 0.95776 0.30524 0.07089 0.0
C6 C 0.99031 0.32266 0.06122 0.0
C7 C 0.96723 0.33212 0.05009 0.0
C8 C 0.97587 0.30773 0.07146 0.0
C9 C 0.9532 0.31704 0.06053 0.0
C10 C 0.0242 0.34188 0.99464 0.0
C11 C 0.03534 0.32534 0.97189 0.0
N12 N 0.03091 0.3115 0.98551 0.0
C13 C 0.01976 0.32749 0.00841 0.0
C14 C 0.03205 0.34081 0.97623 0.0
C15 C 0.02326 0.31226 0.00352 0.0
C16 C 0.96944 0.31984 0.97704 0.0
N17 N 0.97614 0.32062 0.99679 0.0
C18 C 0.95807 0.28573 0.99626 0.0
C19 C 0.97088 0.30403 0.0064 0.0
C20 C 0.95081 0.28441 0.97585 0.0
C21 C 0.95671 0.30181 0.96621 0.0
H22 H 0.97417 0.33327 0.96964 0.0
H23 H 0.97678 0.30487 0.02183 0.0
C24 C 0.04316 0.3611 0.0648 0.0
N25 N 0.0451 0.36315 0.04433 0.0
C26 C 0.05546 0.35702 0.0766 0.0
C27 C 0.07201 0.35797 0.04613 0.0
C28 C 0.05945 0.36216 0.03495 0.0
C29 C 0.06984 0.35499 0.06716 0.0
H30 H 0.03158 0.36196 0.0718 0.0
H31 H 0.06076 0.364 0.01866 0.0
C32 C 0.97235 0.3675 0.00073 0.0
N33 N 0.93875 0.36872 0.99334 0.0
C34 C 0.97326 0.38446 0.99425 0.0
C35 C 0.95431 0.351 0.00297 0.0
C36 C 0.95612 0.38484 0.99074 0.0
C37 C 0.9375 0.35195 0.99928 0.0
C38 C 0.04742 0.40535 0.0305 0.0
C39 C 0.05563 0.42169 0.04482 0.0
C40 C 0.05896 0.40317 0.01634 0.0
C41 C 0.07531 0.43563 0.04477 0.0
C42 C 0.07858 0.41742 0.01679 0.0
N43 N 0.08628 0.43321 0.03088 0.0
C44 C 0.98716 0.37876 0.07146 0.0
C45 C 0.98873 0.40022 0.04658 0.0
C46 C 0.98239 0.38863 0.08626 0.0
N47 N 0.99018 0.38466 0.05206 0.0
C48 C 0.98403 0.41054 0.06091 0.0
C49 C 0.9811 0.40497 0.08116 0.0
H50 H 0.98931 0.36698 0.07576 0.0
H51 H 0.99208 0.40517 0.03137 0.0
C52 C 0.02599 0.39147 0.96142 0.0
N53 N 0.02522 0.39756 0.98102 0.0
C54 C 0.02903 0.4037 0.94554 0.0
C55 C 0.03103 0.42836 0.97054 0.0
C56 C 0.02804 0.41571 0.9859 0.0
C57 C 0.0311 0.42224 0.94994 0.0
H58 H 0.0235 0.37686 0.95802 0.0
H59 H 0.027 0.41997 0.00161 0.0
O60 O -0.00013 0.34944 0.04012 0.0
O61 O 0.02085 0.35692 0.999 0.0
O62 O 0.98899 0.3668 0.00398 0.0
O63 O 0.02818 0.39161 0.03045 0.0
H64 H 0.00469 0.32456 0.06157 0.0
H65 H 0.96371 0.3417 0.04217 0.0
H66 H 0.97905 0.2981 0.07983 0.0
H67 H 0.93869 0.31476 0.06046 0.0
H68 H 0.04141 0.32433 0.95769 0.0
H69 H 0.01375 0.3281 0.02276 0.0
H70 H 0.03557 0.35184 0.9654 0.0
H71 H 0.0199 0.30104 0.01405 0.0
H72 H 0.95379 0.27279 0.00444 0.0
H73 H 0.95177 0.30153 0.9504 0.0
H74 H 0.05322 0.35471 0.09273 0.0
H75 H 0.08312 0.35682 0.03837 0.0
H76 H 0.98706 0.39724 0.99207 0.0
H77 H 0.95325 0.33753 0.0073 0.0
H78 H 0.95664 0.39794 0.98591 0.0
H79 H 0.92346 0.33932 0.00105 0.0
H80 H 0.04687 0.42358 0.05586 0.0
H81 H 0.05289 0.39066 0.0051 0.0
H82 H 0.08186 0.44835 0.05577 0.0
H83 H 0.08769 0.41592 0.00594 0.0
H84 H 0.98078 0.38415 0.10183 0.0
H85 H 0.98326 0.4231 0.05634 0.0
H86 H 0.02921 0.39847 0.92993 0.0
H87 H 0.03221 0.44233 0.97465 0.0
Li88 Li 0.64735 0.62826 0.05255 0.0
Li89 Li 0.63434 0.64653 0.06986 0.0
Li90 Li 0.62065 0.61037 0.07335 0.0
Li91 Li 0.61411 0.62138 0.04127 0.0
C92 C 0.66492 0.63791 0.09056 0.0
N93 N 0.70189 0.64814 0.10566 0.0
C94 C 0.67939 0.65762 0.0938 0.0
C95 C 0.66916 0.62341 0.09533 0.0
C96 C 0.69802 0.6625 0.10135 0.0
C97 C 0.68796 0.62888 0.10286 0.0
C98 C 0.64047 0.66083 0.02982 0.0
C99 C 0.62603 0.67928 0.0179 0.0
N100 N 0.64236 0.69095 0.00851 0.0
C101 C 0.65703 0.67288 0.01987 0.0
C102 C 0.62478 0.66395 0.02869 0.0
C103 C 0.65774 0.68807 0.00924 0.0
C104 C 0.67224 0.61755 0.03297 0.0
N105 N 0.67082 0.63228 0.04272 0.0
C106 C 0.70271 0.65593 0.03481 0.0
C107 C 0.68564 0.65114 0.04396 0.0
C108 C 0.70443 0.64117 0.02406 0.0
C109 C 0.68906 0.6217 0.02351 0.0
H110 H 0.66008 0.60274 0.03186 0.0
H111 H 0.68387 0.66259 0.05133 0.0
C112 C 0.63383 0.6724 0.1012 0.0
N113 N 0.64171 0.67126 0.08348 0.0
C114 C 0.63957 0.69066 0.11137 0.0
C115 C 0.66141 0.70607 0.0849 0.0
C116 C 0.65555 0.68759 0.07552 0.0
C117 C 0.65335 0.70772 0.10299 0.0
H118 H 0.6231 0.65912 0.10738 0.0
H119 H 0.66229 0.68631 0.06203 0.0
C120 C 0.61774 0.58335 0.04382 0.0
N121 N 0.60561 0.54392 0.04251 0.0
C122 C 0.60089 0.56971 0.03186 0.0
C123 C 0.62856 0.57696 0.05489 0.0
C124 C 0.59496 0.54984 0.03145 0.0
C125 C 0.62215 0.55696 0.0541 0.0
C126 C 0.58972 0.62503 0.0701 0.0
C127 C 0.5725 0.60758 0.07235 0.0
C128 C 0.58947 0.64251 0.06967 0.0
C129 C 0.55524 0.60781 0.07349 0.0
C130 C 0.57192 0.64215 0.07088 0.0
N131 N 0.5553 0.62495 0.07272 0.0
C132 C 0.61645 0.59292 0.11117 0.0
C133 C 0.59159 0.57401 0.08473 0.0
C134 C 0.60648 0.57912 0.12521 0.0
N135 N 0.60873 0.59024 0.09147 0.0
C136 C 0.58119 0.55986 0.09816 0.0
C137 C 0.58838 0.56253 0.11883 0.0
H138 H 0.62999 0.60611 0.11619 0.0
H139 H 0.58563 0.57237 0.06908 0.0
C140 C 0.60259 0.62148 -0.00023 0.0
N141 N 0.5959 0.6139 0.01792 0.0
C142 C 0.59026 0.61466 0.98176 0.0
C143 C 0.56439 0.59206 0.00127 0.0
C144 C 0.57716 0.59954 0.019 0.0
C145 C 0.571 0.59949 0.98231 0.0
H146 H 0.61772 0.63221 0.99904 0.0
H147 H 0.57239 0.59315 0.03338 0.0
O148 O 0.64666 0.63284 0.08295 0.0
O149 O 0.63963 0.64598 0.04044 0.0
O150 O 0.62365 0.60286 0.04457 0.0
O151 O 0.60684 0.62512 0.06933 0.0
H152 H 0.67634 0.66904 0.09034 0.0
H153 H 0.65805 0.60811 0.09336 0.0
H154 H 0.7094 0.67769 0.10376 0.0
H155 H 0.69146 0.6178 0.10654 0.0
H156 H 0.61397 0.68183 0.0169 0.0
H157 H 0.66925 0.67057 0.02038 0.0
H158 H 0.61166 0.65441 0.03571 0.0
H159 H 0.67051 0.69757 0.00157 0.0
H160 H 0.71404 0.67116 0.03529 0.0
H161 H 0.68986 0.60988 0.01544 0.0
H162 H 0.63312 0.69149 0.12537 0.0
H163 H 0.67233 0.71896 0.07826 0.0
H164 H 0.59243 0.5744 0.02302 0.0
H165 H 0.64175 0.58733 0.06401 0.0
H166 H 0.58189 0.53911 0.02234 0.0
H167 H 0.63034 0.55181 0.06269 0.0
H168 H 0.57239 0.59396 0.07305 0.0
H169 H 0.60268 0.65628 0.06859 0.0
H170 H 0.54179 0.59437 0.07504 0.0
H171 H 0.57154 0.65558 0.07047 0.0
H172 H 0.61244 0.58186 0.14106 0.0
H173 H 0.5674 0.54719 0.09254 0.0
H174 H 0.59604 0.62042 0.96734 0.0
H175 H 0.54968 0.58019 0.00224 0.0
Li176 Li 0.38218 0.99426 0.99874 0.0
Li177 Li 0.39014 0.00425 0.03522 0.0
Li178 Li 0.35606 0.98286 0.02153 0.0
Li179 Li 0.37369 0.01712 0.01462 0.0
C180 C 0.39068 0.97062 0.0224 0.0
N181 N 0.41719 0.95805 0.02425 0.0
C182 C 0.40957 0.98276 0.01699 0.0
C183 C 0.38527 0.9521 0.02874 0.0
C184 C 0.42276 0.97614 0.01803 0.0
C185 C 0.39888 0.946 0.02958 0.0
C186 C 0.41569 0.03878 0.01794 0.0
C187 C 0.43111 0.06926 0.03925 0.0
N188 N 0.44804 0.07458 0.03058 0.0
C189 C 0.43321 0.04453 0.0092 0.0
C190 C 0.41459 0.05121 0.03306 0.0
C191 C 0.44942 0.06269 0.01581 0.0
C192 C 0.40084 0.00589 0.96353 0.0
N193 N 0.39176 0.98978 0.97421 0.0
C194 C 0.40076 0.97193 0.95103 0.0
C195 C 0.39116 0.97281 0.96814 0.0
C196 C 0.41102 0.9887 0.94026 0.0
C197 C 0.41059 0.00568 0.94644 0.0
H198 H 0.40095 0.01912 0.96869 0.0
H199 H 0.3838 0.96019 0.97693 0.0
C200 C 0.39929 0.0029 0.07638 0.0
N201 N 0.40757 0.00893 0.05841 0.0
C202 C 0.41066 0.00489 0.09417 0.0
C203 C 0.43886 0.01865 0.07449 0.0
C204 C 0.42697 0.01676 0.05713 0.0
C205 C 0.43066 0.01269 0.09328 0.0
H206 H 0.38377 0.99636 0.07682 0.0
H207 H 0.43318 0.02117 0.04259 0.0
C208 C 0.34523 0.97927 0.98006 0.0
N209 N 0.32089 0.94976 0.95041 0.0
C210 C 0.33444 0.98264 0.9651 0.0
C211 C 0.34359 0.96085 0.97997 0.0
C212 C 0.32222 0.96754 0.95024 0.0
C213 C 0.33122 0.94614 0.96484 0.0
C214 C 0.36142 0.01565 0.05461 0.0
C215 C 0.34256 0.01235 0.05203 0.0
C216 C 0.37417 0.02884 0.07069 0.0
C217 C 0.33676 0.0223 0.06557 0.0
C218 C 0.36783 0.03851 0.0839 0.0
N219 N 0.34941 0.03506 0.08109 0.0
C220 C 0.32995 0.94991 0.04148 0.0
C221 C 0.31579 0.96462 0.02188 0.0
C222 C 0.31237 0.93807 0.04988 0.0
N223 N 0.33139 0.96316 0.02818 0.0
C224 C 0.29807 0.95336 0.03019 0.0
C225 C 0.29641 0.94029 0.04477 0.0
H226 H 0.34272 0.94932 0.04641 0.0
H227 H 0.31746 0.97545 0.01142 0.0
C228 C 0.3659 0.03795 0.98784 0.0
N229 N 0.36962 0.03802 0.00837 0.0
C230 C 0.35908 0.04976 0.98055 0.0
C231 C 0.36121 0.06255 0.01561 0.0
C232 C 0.36808 0.05048 0.02224 0.0
C233 C 0.35602 0.06177 0.99456 0.0
H234 H 0.36753 0.0281 0.97714 0.0
H235 H 0.37143 0.05061 0.03847 0.0
O236 O 0.37747 0.97674 0.02159 0.0
O237 O 0.39982 0.02091 0.01183 0.0
O238 O 0.35719 0.99394 0.99473 0.0
O239 O 0.36733 0.00592 0.04165 0.0
H240 H 0.41403 0.99711 0.01198 0.0
H241 H 0.37069 0.94253 0.03297 0.0
H242 H 0.43742 0.98538 0.01388 0.0
H243 H 0.39489 0.9317 0.03446 0.0
H244 H 0.43048 0.07903 0.05096 0.0
H245 H 0.43428 0.03499 0.99753 0.0
H246 H 0.40117 0.04694 0.03998 0.0
H247 H 0.46309 0.06732 0.00923 0.0
H248 H 0.4008 0.95858 0.9468 0.0
H249 H 0.41798 0.0188 0.93834 0.0
H250 H 0.4038 -0.00016 0.10833 0.0
H251 H 0.45425 0.02466 0.07327 0.0
H252 H 0.33545 0.99677 0.96501 0.0
H253 H 0.35171 0.95788 0.99145 0.0
H254 H 0.31378 0.96995 0.93857 0.0
H255 H 0.32983 0.93184 0.96458 0.0
H256 H 0.33257 0.00244 0.03955 0.0
H257 H 0.38887 0.03174 0.07288 0.0
H258 H 0.32222 0.01992 0.06369 0.0
H259 H 0.37757 0.04879 0.09635 0.0
H260 H 0.31161 0.92823 0.06125 0.0
H261 H 0.28602 0.9554 0.0259 0.0
H262 H 0.35579 0.04911 0.96413 0.0
H263 H 0.35915 0.07169 0.02692 0.0
Li264 Li 0.0142 0.65799 0.05663 0.0
Li265 Li 0.98979 0.62469 0.06371 0.0
Li266 Li 0.00569 0.63089 0.03069 0.0
Li267 Li 0.98146 0.64047 0.03652 0.0
C268 C 0.03604 0.6409 0.06647 0.0
N269 N 0.07361 0.65348 0.08149 0.0
C270 C 0.03967 0.63617 0.0859 0.0
C271 C 0.05148 0.65186 0.0546 0.0
C272 C 0.05878 0.64271 0.09324 0.0
C273 C 0.07038 0.65813 0.06248 0.0
C274 C 0.97904 0.65083 0.08273 0.0
C275 C 0.95013 0.64612 0.09773 0.0
N276 N 0.96082 0.65545 0.11577 0.0
C277 C 0.98978 0.66066 0.10131 0.0
C278 C 0.9591 0.64374 0.08081 0.0
C279 C 0.98029 0.66272 0.11788 0.0
C280 C 0.03508 0.69877 0.05999 0.0
N281 N 0.03324 0.68291 0.06902 0.0
C282 C 0.05619 0.7034 0.09678 0.0
C283 C 0.04338 0.68485 0.08711 0.0
C284 C 0.05829 0.72013 0.08796 0.0
C285 C 0.04756 0.71761 0.06923 0.0
H286 H 0.02646 0.69674 0.04584 0.0
H287 H 0.0412 0.672 0.09433 0.0
C288 C 0.97244 0.58768 0.07997 0.0
N289 N 0.98173 0.60733 0.08497 0.0
C290 C 0.96966 0.57491 0.09518 0.0
C291 C 0.98575 0.60281 0.12042 0.0
C292 C 0.98817 0.61502 0.10475 0.0
C293 C 0.97685 0.58251 0.11563 0.0
H294 H 0.96814 0.58197 0.06404 0.0
H295 H 0.99624 0.63069 0.10819 0.0
C296 C 0.016 0.66339 0.00886 0.0
N297 N 0.03287 0.67747 0.97275 0.0
C298 C 0.00443 0.65904 0.99048 0.0
C299 C 0.03612 0.67522 0.00897 0.0
C300 C 0.01324 0.66619 0.97235 0.0
C301 C 0.04438 0.68212 0.99053 0.0
C302 C 0.95881 0.59938 0.03143 0.0
C303 C 0.95272 0.58666 0.01353 0.0
C304 C 0.94537 0.59736 0.04549 0.0
C305 C 0.93317 0.57225 0.00989 0.0
C306 C 0.92596 0.58275 0.0413 0.0
N307 N 0.92031 0.57062 0.02372 0.0
C308 C 0.02644 0.61336 0.01407 0.0
C309 C 0.0039 0.61539 0.99103 0.0
C310 C 0.02975 0.60251 0.9989 0.0
N311 N 0.01362 0.61945 0.00989 0.0
C312 C 0.00682 0.60471 0.97544 0.0
C313 C 0.01956 0.59773 0.9794 0.0
H314 H 0.03347 0.61616 0.0294 0.0
H315 H 0.99326 0.61976 0.98836 0.0
C316 C 0.9633 0.66193 0.0291 0.0
N317 N 0.96273 0.64495 0.02322 0.0
C318 C 0.95133 0.66724 0.01853 0.0
C319 C 0.9382 0.63731 0.99629 0.0
C320 C 0.95057 0.63269 0.00715 0.0
C321 C 0.93865 0.65489 0.00182 0.0
H322 H 0.97339 0.67154 0.04172 0.0
H323 H 0.9509 0.61967 0.00228 0.0
O324 O 0.01744 0.63481 0.05915 0.0
O325 O 0.98814 0.64893 0.06625 0.0
O326 O 0.00763 0.6566 0.02678 0.0
O327 O 0.97786 0.61369 0.0351 0.0
H328 H 0.02787 0.62762 0.09525 0.0
H329 H 0.04886 0.65538 0.03943 0.0
H330 H 0.06182 0.63923 0.10829 0.0
H331 H 0.08247 0.66665 0.05347 0.0
H332 H 0.93469 0.64062 0.09649 0.0
H333 H 0.00527 0.6665 0.10297 0.0
H334 H 0.95064 0.63664 0.06637 0.0
H335 H 0.9884 0.67015 0.13241 0.0
H336 H 0.06429 0.70458 0.11105 0.0
H337 H 0.04838 0.72999 0.06203 0.0
H338 H 0.96306 0.55939 0.09076 0.0
H339 H 0.99149 0.60926 0.13599 0.0
H340 H 0.98882 0.65011 0.99018 0.0
H341 H 0.04526 0.6792 0.02317 0.0
H342 H 0.00447 0.66279 0.95797 0.0
H343 H 0.05994 0.69123 0.99037 0.0
H344 H 0.96297 0.58799 0.00252 0.0
H345 H 0.94994 0.60682 0.05958 0.0
H346 H 0.92823 0.56235 0.99605 0.0
H347 H 0.91541 0.58103 0.05206 0.0
H348 H 0.03948 0.59717 0.0027 0.0
H349 H 0.9988 0.60155 0.96058 0.0
H350 H 0.95202 0.68087 0.0233 0.0
H351 H 0.92884 0.62757 0.98328 0.0
Li352 Li 0.35384 0.37626 0.00878 0.0
Li353 Li 0.38594 0.38097 0.01875 0.0
Li354 Li 0.38011 0.39289 0.98692 0.0
Li355 Li 0.36621 0.35828 0.98899 0.0
C356 C 0.37584 0.41704 0.01556 0.0
N357 N 0.3704 0.44876 0.01502 0.0
C358 C 0.38788 0.43406 0.02832 0.0
C359 C 0.36103 0.41614 0.00251 0.0
C360 C 0.38489 0.44995 0.02783 0.0
C361 C 0.35852 0.43233 0.00246 0.0
C362 C 0.35532 0.34325 0.03171 0.0
C363 C 0.35398 0.31416 0.04317 0.0
N364 N 0.34437 0.315 0.05953 0.0
C365 C 0.34526 0.3437 0.04853 0.0
C366 C 0.35958 0.32826 0.0289 0.0
C367 C 0.33993 0.32934 0.06247 0.0
C368 C 0.31413 0.35691 0.01286 0.0
N369 N 0.33127 0.3728 0.02027 0.0
C370 C 0.3165 0.37888 0.04845 0.0
C371 C 0.33272 0.38399 0.03748 0.0
C372 C 0.29875 0.36197 0.04177 0.0
C373 C 0.29754 0.35123 0.0234 0.0
H374 H 0.31362 0.34807 0.9994 0.0
H375 H 0.34666 0.39625 0.0433 0.0
C376 C 0.42305 0.39675 0.04018 0.0
N377 N 0.40362 0.38683 0.04206 0.0
C378 C 0.43606 0.403 0.05771 0.0
C379 C 0.40877 0.3884 0.07863 0.0
C380 C 0.39635 0.38258 0.06076 0.0
C381 C 0.42892 0.39901 0.07728 0.0
H382 H 0.42844 0.40031 0.02513 0.0
H383 H 0.3809 0.37537 0.0619 0.0
C384 C 0.35016 0.36878 0.95724 0.0
N385 N 0.3446 0.36211 0.91481 0.0
C386 C 0.36496 0.36975 0.94582 0.0
C387 C 0.33254 0.36441 0.94708 0.0
C388 C 0.36187 0.36633 0.92439 0.0
C389 C 0.33001 0.36109 0.92561 0.0
C390 C 0.40589 0.37074 0.98876 0.0
C391 C 0.41732 0.37494 0.97204 0.0
C392 C 0.40643 0.35849 0.00312 0.0
C393 C 0.42897 0.36659 0.96985 0.0
C394 C 0.41826 0.35044 0.0004 0.0
N395 N 0.42918 0.35461 0.98395 0.0
C396 C 0.41203 0.4219 0.97016 0.0
C397 C 0.38262 0.41894 0.95658 0.0
C398 C 0.42256 0.43625 0.95698 0.0
N399 N 0.39246 0.41344 0.96954 0.0
C400 C 0.39262 0.43332 0.9431 0.0
C401 C 0.41286 0.44204 0.94306 0.0
H402 H 0.4194 0.41715 0.98062 0.0
H403 H 0.36702 0.41193 0.95643 0.0
C404 C 0.3392 0.3194 0.97899 0.0
N405 N 0.35726 0.33344 0.97486 0.0
C406 C 0.33092 0.30047 0.96958 0.0
C407 C 0.35975 0.31092 0.95131 0.0
C408 C 0.36751 0.32968 0.96114 0.0
C409 C 0.34127 0.29599 0.95563 0.0
H410 H 0.33127 0.32297 0.98969 0.0
H411 H 0.38164 0.34118 0.95775 0.0
O412 O 0.37871 0.40144 0.01583 0.0
O413 O 0.36037 0.35703 0.01771 0.0
O414 O 0.35275 0.37203 0.97826 0.0
O415 O 0.39433 0.37871 0.99098 0.0
H416 H 0.39942 0.43498 0.03849 0.0
H417 H 0.35156 0.4031 0.99251 0.0
H418 H 0.3941 0.46323 0.03763 0.0
H419 H 0.34713 0.43184 0.99243 0.0
H420 H 0.3572 0.30249 0.04119 0.0
H421 H 0.34175 0.35511 0.05092 0.0
H422 H 0.36695 0.32736 0.01575 0.0
H423 H 0.33225 0.3296 0.07562 0.0
H424 H 0.318 0.3877 0.0624 0.0
H425 H 0.28422 0.33797 0.01786 0.0
H426 H 0.4515 0.41117 0.05601 0.0
H427 H 0.40264 0.38545 0.09342 0.0
H428 H 0.3787 0.37314 0.95337 0.0
H429 H 0.32095 0.3636 0.95571 0.0
H430 H 0.3732 0.36705 0.91537 0.0
H431 H 0.31645 0.35769 0.91754 0.0
H432 H 0.41708 0.38443 0.9608 0.0
H433 H 0.39793 0.35535 0.01631 0.0
H434 H 0.43782 0.36964 0.95693 0.0
H435 H 0.4188 0.34091 0.0114 0.0
H436 H 0.43808 0.44226 0.95726 0.0
H437 H 0.38459 0.43746 0.93275 0.0
H438 H 0.31651 0.28949 0.97308 0.0
H439 H 0.36826 0.30805 0.94074 0.0
Li440 Li 0.63016 0.98907 0.05002 0.0
Li441 Li 0.62239 0.01237 0.06711 0.0
Li442 Li 0.61495 0.00318 0.02892 0.0
Li443 Li 0.64835 0.02463 0.04325 0.0
C444 C 0.59061 0.9674 0.05444 0.0
N445 N 0.56335 0.92891 0.05936 0.0
C446 C 0.58308 0.96205 0.07354 0.0
C447 C 0.58406 0.95325 0.03777 0.0
C448 C 0.56937 0.9425 0.07574 0.0
C449 C 0.57033 0.93385 0.04058 0.0
C450 C 0.65834 0.01955 0.08739 0.0
C451 C 0.6811 0.04683 0.11097 0.0
N452 N 0.68137 0.03411 0.12405 0.0
C453 C 0.65905 0.00675 0.10093 0.0
C454 C 0.66962 0.03976 0.09232 0.0
C455 C 0.67069 0.01439 0.11944 0.0
C456 C 0.64861 0.96745 0.04467 0.0
N457 N 0.63432 0.96807 0.0546 0.0
C458 C 0.63133 0.94309 0.07568 0.0
C459 C 0.62555 0.95614 0.06972 0.0
C460 C 0.64656 0.94264 0.06626 0.0
C461 C 0.65498 0.95473 0.05027 0.0
H462 H 0.65571 0.97753 0.03311 0.0
H463 H 0.61492 0.95756 0.07805 0.0
C464 C 0.60179 0.02543 0.09107 0.0
N465 N 0.61283 0.01687 0.09168 0.0
C466 C 0.59231 0.02616 0.10831 0.0
C467 C 0.60623 0.00978 0.12658 0.0
C468 C 0.61534 0.0093 0.109 0.0
C469 C 0.59413 0.01785 0.12623 0.0
H470 H 0.59968 0.03094 0.07692 0.0
H471 H 0.62362 0.00198 0.10888 0.0
C472 C 0.63671 0.99371 0.00399 0.0
N473 N 0.63405 0.97892 0.96393 0.0
C474 C 0.64656 0.00634 0.98896 0.0
C475 C 0.62582 0.97354 0.99873 0.0
C476 C 0.64494 0.99858 0.96877 0.0
C477 C 0.62457 0.96635 0.97837 0.0
C478 C 0.63275 0.04916 0.04615 0.0
C479 C 0.63079 0.05843 0.02929 0.0
C480 C 0.64103 0.05998 0.0651 0.0
C481 C 0.63756 0.07851 0.03157 0.0
C482 C 0.6476 0.08002 0.06678 0.0
N483 N 0.64577 0.0888 0.05011 0.0
C484 C 0.57863 0.98657 0.00469 0.0
C485 C 0.60634 0.01088 0.99005 0.0
C486 C 0.56674 0.98484 0.98737 0.0
N487 N 0.59804 0.99939 0.00561 0.0
C488 C 0.5951 0.00951 0.97243 0.0
C489 C 0.57497 0.99647 0.97094 0.0
H490 H 0.57233 0.97793 0.01751 0.0
H491 H 0.62174 0.02129 0.99143 0.0
C492 C 0.68857 0.04296 0.04373 0.0
N493 N 0.67306 0.04416 0.03651 0.0
C494 C 0.70646 0.05382 0.03558 0.0
C495 C 0.6922 0.06747 0.01325 0.0
C496 C 0.67458 0.05631 0.02181 0.0
C497 C 0.70827 0.06583 0.0197 0.0
H498 H 0.68677 0.03268 0.05494 0.0
H499 H 0.66184 0.05629 0.01564 0.0
O500 O 0.60408 0.98647 0.05204 0.0
O501 O 0.64714 0.01229 0.06912 0.0
O502 O 0.63814 0.00105 0.02385 0.0
O503 O 0.62617 0.0295 0.04416 0.0
H504 H 0.58785 0.97284 0.08656 0.0
H505 H 0.58939 0.95722 0.02278 0.0
H506 H 0.56352 0.93812 0.09047 0.0
H507 H 0.56518 0.92273 0.02782 0.0
H508 H 0.68987 0.06243 0.115 0.0
H509 H 0.65059 0.99108 0.09724 0.0
H510 H 0.66975 0.04989 0.08175 0.0
H511 H 0.67126 0.00465 0.13013 0.0
H512 H 0.62478 0.93436 0.08842 0.0
H513 H 0.66677 0.95482 0.04266 0.0
H514 H 0.58289 0.03225 0.10723 0.0
H515 H 0.60818 0.00334 0.14009 0.0
H516 H 0.65524 0.02197 0.99281 0.0
H517 H 0.61856 0.96353 0.01028 0.0
H518 H 0.65235 0.0082 0.95694 0.0
H519 H 0.61613 0.95076 0.97408 0.0
H520 H 0.62422 0.05022 0.01456 0.0
H521 H 0.6422 0.05295 0.07844 0.0
H522 H 0.63626 0.0859 0.01861 0.0
H523 H 0.65409 0.08858 0.08135 0.0
H524 H 0.55127 0.97481 0.98706 0.0
H525 H 0.60219 0.01858 0.96009 0.0
H526 H 0.71851 0.0522 0.04102 0.0
H527 H 0.69283 0.07622 0.00074 0.0
Li528 Li 0.6528 0.68104 0.33865 0.0
Li529 Li 0.68273 0.69573 0.36036 0.0
Li530 Li 0.65803 0.70632 0.36454 0.0
Li531 Li 0.67795 0.71564 0.33518 0.0
C532 C 0.64364 0.66157 0.37187 0.0
N533 N 0.61861 0.62235 0.37625 0.0
C534 C 0.6505 0.64848 0.37168 0.0
C535 C 0.6241 0.65476 0.37457 0.0
C536 C 0.6376 0.62869 0.37385 0.0
C537 C 0.61166 0.63486 0.37668 0.0
C538 C 0.69567 0.69377 0.32077 0.0
C539 C 0.72936 0.71388 0.3145 0.0
N540 N 0.7283 0.69861 0.30286 0.0
C541 C 0.69485 0.67835 0.30853 0.0
C542 C 0.71301 0.71173 0.32361 0.0
C543 C 0.71153 0.68105 0.2997 0.0
C544 C 0.61645 0.65287 0.31757 0.0
N545 N 0.63446 0.65682 0.32425 0.0
C546 C 0.62735 0.62503 0.31124 0.0
C547 C 0.64013 0.64343 0.32118 0.0
C548 C 0.60853 0.62037 0.30435 0.0
C549 C 0.60315 0.63461 0.30756 0.0
H550 H 0.61234 0.6638 0.32014 0.0
H551 H 0.65455 0.64701 0.32674 0.0
C552 C 0.70385 0.69613 0.39577 0.0
N553 N 0.70013 0.69031 0.37531 0.0
C554 C 0.7154 0.69144 0.40808 0.0
C555 C 0.71908 0.67488 0.37799 0.0
C556 C 0.70736 0.67978 0.36631 0.0
C557 C 0.72316 0.68061 0.39922 0.0
H558 H 0.69757 0.70417 0.40256 0.0
H559 H 0.70377 0.67482 0.35016 0.0
C560 C 0.63537 0.7087 0.33432 0.0
N561 N 0.60733 0.71928 0.33387 0.0
C562 C 0.63816 0.72507 0.32443 0.0
C563 C 0.61821 0.69759 0.34377 0.0
C564 C 0.62384 0.73021 0.32442 0.0
C565 C 0.60424 0.70321 0.34345 0.0
C566 C 0.7031 0.73968 0.37172 0.0
C567 C 0.70184 0.75589 0.37887 0.0
C568 C 0.7212 0.74098 0.37249 0.0
C569 C 0.71873 0.77326 0.38609 0.0
C570 C 0.73775 0.7586 0.37984 0.0
N571 N 0.73619 0.77425 0.3864 0.0
C572 C 0.64133 0.70747 0.40164 0.0
C573 C 0.64805 0.73336 0.38058 0.0
C574 C 0.63589 0.71614 0.41713 0.0
N575 N 0.64755 0.71635 0.38398 0.0
C576 C 0.64271 0.7425 0.39558 0.0
C577 C 0.63698 0.73414 0.41437 0.0
H578 H 0.64133 0.69407 0.40403 0.0
H579 H 0.65331 0.74025 0.36652 0.0
C580 C 0.69113 0.73165 0.2971 0.0
N581 N 0.68891 0.7358 0.31695 0.0
C582 C 0.69622 0.74578 0.28291 0.0
C583 C 0.69688 0.76817 0.30993 0.0
C584 C 0.69192 0.75369 0.3236 0.0
C585 C 0.69865 0.76413 0.28919 0.0
H586 H 0.68809 0.71711 0.29207 0.0
H587 H 0.68932 0.75635 0.3392 0.0
O588 O 0.65595 0.68091 0.36928 0.0
O589 O 0.67945 0.69129 0.32957 0.0
O590 O 0.64934 0.70359 0.33468 0.0
O591 O 0.68662 0.7224 0.36496 0.0
H592 H 0.66556 0.65348 0.36958 0.0
H593 H 0.6186 0.66472 0.37502 0.0
H594 H 0.64268 0.61837 0.37355 0.0
H595 H 0.59649 0.62937 0.37866 0.0
H596 H 0.74287 0.72772 0.3166 0.0
H597 H 0.68151 0.6644 0.30592 0.0
H598 H 0.71375 0.724 0.33242 0.0
H599 H 0.71112 0.6692 0.2903 0.0
H600 H 0.63219 0.61461 0.30888 0.0
H601 H 0.58872 0.63156 0.30273 0.0
H602 H 0.71789 0.69591 0.42442 0.0
H603 H 0.72491 0.66673 0.37042 0.0
H604 H 0.65122 0.73371 0.3168 0.0
H605 H 0.6158 0.68488 0.35147 0.0
H606 H 0.62584 0.74288 0.31688 0.0
H607 H 0.59096 0.69481 0.35084 0.0
H608 H 0.68801 0.75516 0.37873 0.0
H609 H 0.72252 0.7285 0.36764 0.0
H610 H 0.71794 0.78595 0.39148 0.0
H611 H 0.75183 0.75979 0.38041 0.0
H612 H 0.63182 0.70933 0.43148 0.0
H613 H 0.64359 0.75625 0.39273 0.0
H614 H 0.69715 0.74199 0.26697 0.0
H615 H 0.69862 0.78214 0.31537 0.0
Li616 Li 0.28109 0.95155 0.37866 0.0
Li617 Li 0.28719 0.94037 0.41046 0.0
Li618 Li 0.30458 0.97566 0.40476 0.0
Li619 Li 0.31242 0.95354 0.3863 0.0
C620 C 0.25976 0.95827 0.40417 0.0
N621 N 0.22576 0.95889 0.39771 0.0
C622 C 0.24187 0.94104 0.40435 0.0
C623 C 0.26037 0.97588 0.40108 0.0
C624 C 0.22483 0.94163 0.40094 0.0
C625 C 0.24302 0.97588 0.39775 0.0
C626 C 0.28767 0.91332 0.3823 0.0
C627 C 0.30189 0.89558 0.39676 0.0
N628 N 0.29072 0.88016 0.38272 0.0
C629 C 0.27632 0.8973 0.36802 0.0
C630 C 0.30056 0.91248 0.39682 0.0
C631 C 0.27807 0.88066 0.36847 0.0
C632 C 0.265 0.95623 0.34091 0.0
N633 N 0.26164 0.94475 0.35681 0.0
C634 C 0.23217 0.91934 0.33901 0.0
C635 C 0.24551 0.92671 0.35629 0.0
C636 C 0.23565 0.93056 0.32198 0.0
C637 C 0.25207 0.94945 0.32332 0.0
H638 H 0.27821 0.97016 0.34126 0.0
H639 H 0.24346 0.91765 0.3689 0.0
C640 C 0.28206 0.92555 0.44973 0.0
N641 N 0.27489 0.92164 0.4297 0.0
C642 C 0.2721 0.91231 0.46422 0.0
C643 C 0.24773 0.89126 0.43706 0.0
C644 C 0.25822 0.90482 0.4231 0.0
C645 C 0.25452 0.89506 0.45797 0.0
H646 H 0.29524 0.93918 0.45453 0.0
H647 H 0.25286 0.90217 0.40705 0.0
C648 C 0.31517 0.99072 0.36634 0.0
N649 N 0.3315 0.02664 0.34991 0.0
C650 C 0.33332 0.99861 0.35838 0.0
C651 C 0.30531 0.00109 0.36585 0.0
C652 C 0.34133 0.01679 0.35017 0.0
C653 C 0.31381 0.01922 0.3575 0.0
C654 C 0.33431 0.97199 0.42427 0.0
C655 C 0.34737 0.98651 0.41252 0.0
C656 C 0.34063 0.96983 0.44377 0.0
C657 C 0.36657 0.99869 0.42049 0.0
C658 C 0.35995 0.9823 0.45121 0.0
N659 N 0.37241 0.99636 0.43952 0.0
C660 C 0.3063 0.00249 0.43554 0.0
C661 C 0.33013 0.01733 0.4118 0.0
C662 C 0.3127 0.02064 0.44629 0.0
N663 N 0.31486 0.00119 0.41846 0.0
C664 C 0.33673 0.03578 0.42178 0.0
C665 C 0.32794 0.03772 0.43925 0.0
H666 H 0.29442 0.98937 0.44077 0.0
H667 H 0.33721 0.01604 0.39864 0.0
C668 C 0.3302 0.95069 0.35229 0.0
N669 N 0.33188 0.95123 0.37317 0.0
C670 C 0.3448 0.95142 0.34083 0.0
C671 C 0.36221 0.95234 0.37255 0.0
C672 C 0.34713 0.95138 0.3834 0.0
C673 C 0.36128 0.95277 0.35101 0.0
H674 H 0.31784 0.9505 0.34463 0.0
H675 H 0.3479 0.95135 0.4 0.0
O676 O 0.27659 0.95794 0.40724 0.0
O677 O 0.286 0.92965 0.38202 0.0
O678 O 0.30724 0.97304 0.37469 0.0
O679 O 0.31542 0.95989 0.41681 0.0
H680 H 0.24114 0.92733 0.40692 0.0
H681 H 0.27409 0.98943 0.40138 0.0
H682 H 0.21088 0.92838 0.40086 0.0
H683 H 0.24328 0.98939 0.39525 0.0
H684 H 0.31181 0.89473 0.4079 0.0
H685 H 0.26625 0.89774 0.35671 0.0
H686 H 0.30942 0.92469 0.40804 0.0
H687 H 0.26938 0.86815 0.35751 0.0
H688 H 0.21967 0.90473 0.33868 0.0
H689 H 0.25558 0.95843 0.31042 0.0
H690 H 0.27769 0.91589 0.48025 0.0
H691 H 0.23432 0.87805 0.43161 0.0
H692 H 0.34124 0.99089 0.35868 0.0
H693 H 0.29124 0.99518 0.37184 0.0
H694 H 0.35539 0.02309 0.34403 0.0
H695 H 0.30634 0.0274 0.35708 0.0
H696 H 0.34279 0.98822 0.39734 0.0
H697 H 0.33074 0.95861 0.45305 0.0
H698 H 0.37682 0.00997 0.41153 0.0
H699 H 0.36504 0.98078 0.46628 0.0
H700 H 0.30572 0.02121 0.45995 0.0
H701 H 0.34834 0.0484 0.41549 0.0
H702 H 0.34361 0.95188 0.32427 0.0
H703 H 0.3746 0.9531 0.3809 0.0
Li704 Li 0.05524 0.32331 0.33358 0.0
Li705 Li 0.06419 0.33722 0.36922 0.0
Li706 Li 0.02906 0.31434 0.35711 0.0
Li707 Li 0.04715 0.34787 0.34721 0.0
C708 C 0.05063 0.2917 0.35739 0.0
N709 N 0.05002 0.25648 0.35511 0.0
C710 C 0.06765 0.29129 0.3618 0.0
C711 C 0.0332 0.27412 0.35232 0.0
C712 C 0.06708 0.27337 0.36041 0.0
C713 C 0.03321 0.25649 0.3511 0.0
C714 C 0.09239 0.36344 0.34902 0.0
C715 C 0.1185 0.3916 0.36896 0.0
N716 N 0.13149 0.38779 0.36021 0.0
C717 C 0.106 0.3599 0.34011 0.0
C718 C 0.09868 0.37951 0.36344 0.0
C719 C 0.1257 0.37235 0.346 0.0
C720 C 0.05753 0.31853 0.29118 0.0
N721 N 0.0636 0.31561 0.30977 0.0
C722 C 0.08427 0.30622 0.29369 0.0
C723 C 0.0766 0.30942 0.31132 0.0
C724 C 0.07845 0.30936 0.27425 0.0
C725 C 0.06452 0.31517 0.27316 0.0
H726 H 0.04763 0.32403 0.29036 0.0
H727 H 0.0818 0.30794 0.32628 0.0
C728 C 0.0782 0.34939 0.41062 0.0
N729 N 0.08248 0.34415 0.39231 0.0
C730 C 0.09036 0.35341 0.42841 0.0
C731 C 0.11123 0.34666 0.40817 0.0
C732 C 0.0987 0.34288 0.39073 0.0
C733 C 0.10699 0.35181 0.42737 0.0
H734 H 0.06505 0.34995 0.41155 0.0
H735 H 0.10176 0.33864 0.376 0.0
C736 C 0.01646 0.30995 0.31477 0.0
N737 N 0.98836 0.28263 0.28577 0.0
C738 C 0.00352 0.31416 0.30437 0.0
C739 C 0.01524 0.29193 0.31023 0.0
C740 C 0.98937 0.30012 0.28982 0.0
C741 C 0.00091 0.2783 0.29557 0.0
C742 C 0.03437 0.35075 0.38281 0.0
C743 C 0.01441 0.34356 0.38229 0.0
C744 C 0.04732 0.37 0.39076 0.0
C745 C 0.00776 0.35582 0.38956 0.0
C746 C 0.04009 0.38181 0.39785 0.0
N747 N 0.02063 0.37454 0.3971 0.0
C748 C 0.00565 0.29261 0.3866 0.0
C749 C 0.98777 0.28749 0.35463 0.0
C750 C 0.98857 0.28185 0.39621 0.0
N751 N 0.00494 0.29551 0.36628 0.0
C752 C 0.97033 0.27643 0.36358 0.0
C753 C 0.97063 0.27395 0.38473 0.0
H754 H 0.01951 0.29942 0.39551 0.0
H755 H 0.98742 0.29033 0.33868 0.0
C756 C 0.0585 0.38685 0.33806 0.0
N757 N 0.04341 0.36866 0.34036 0.0
C758 C 0.05501 0.40152 0.332 0.0
C759 C 0.02057 0.37843 0.33107 0.0
C760 C 0.02474 0.36427 0.33713 0.0
C761 C 0.03581 0.3973 0.3282 0.0
H762 H 0.07322 0.38988 0.34058 0.0
H763 H 0.01306 0.34963 0.33899 0.0
O764 O 0.05085 0.3091 0.35908 0.0
O765 O 0.07302 0.35129 0.3436 0.0
O766 O 0.03039 0.32355 0.32909 0.0
O767 O 0.04118 0.33909 0.37539 0.0
H768 H 0.08121 0.30467 0.36607 0.0
H769 H 0.01975 0.27402 0.34945 0.0
H770 H 0.0802 0.27288 0.36358 0.0
H771 H 0.01984 0.2428 0.34707 0.0
H772 H 0.12356 0.404 0.38021 0.0
H773 H 0.10143 0.34766 0.3288 0.0
H774 H 0.08837 0.3825 0.37045 0.0
H775 H 0.13639 0.36972 0.33929 0.0
H776 H 0.0953 0.3022 0.29544 0.0
H777 H 0.05934 0.31753 0.25857 0.0
H778 H 0.08635 0.35698 0.44296 0.0
H779 H 0.12397 0.34538 0.4067 0.0
H780 H 0.00436 0.32809 0.30748 0.0
H781 H 0.02543 0.28863 0.31769 0.0
H782 H 0.97921 0.30316 0.28172 0.0
H783 H -0.00017 0.2643 0.29192 0.0
H784 H 0.00415 0.32877 0.37609 0.0
H785 H 0.06279 0.3758 0.39137 0.0
H786 H 0.99237 0.35048 0.38912 0.0
H787 H 0.04996 0.39676 0.40394 0.0
H788 H 0.98937 0.28011 0.41254 0.0
H789 H 0.95675 0.27072 0.35428 0.0
H790 H 0.06717 0.41592 0.3301 0.0
H791 H 0.00557 0.37441 0.32797 0.0
Li792 Li 0.67855 0.98403 0.38861 0.0
Li793 Li 0.65571 0.95012 0.39526 0.0
Li794 Li 0.67516 0.95782 0.36551 0.0
Li795 Li 0.64851 0.96448 0.36668 0.0
C796 C 0.6971 0.95692 0.39507 0.0
N797 N 0.72221 0.94271 0.39275 0.0
C798 C 0.6909 0.93758 0.39911 0.0
C799 C 0.71607 0.96905 0.38988 0.0
C800 C 0.70383 0.93067 0.39786 0.0
C801 C 0.72854 0.96158 0.38877 0.0
C802 C 0.64314 0.97206 0.41405 0.0
C803 C 0.6149 0.95886 0.43349 0.0
N804 N 0.62625 0.96978 0.45066 0.0
C805 C 0.65451 0.98328 0.43184 0.0
C806 C 0.62316 0.95986 0.41482 0.0
C807 C 0.64571 0.98188 0.45021 0.0
C808 C 0.69034 0.02336 0.3996 0.0
N809 N 0.6953 0.00943 0.40158 0.0
C810 C 0.72394 0.03187 0.42269 0.0
C811 C 0.71159 0.01321 0.413 0.0
C812 C 0.71943 0.0467 0.42052 0.0
C813 C 0.70239 0.04229 0.40881 0.0
H814 H 0.67704 0.01976 0.39078 0.0
H815 H 0.71496 0.00173 0.41462 0.0
C816 C 0.63389 0.91342 0.41236 0.0
N817 N 0.64657 0.9329 0.41659 0.0
C818 C 0.62995 0.90057 0.42779 0.0
C819 C 0.65169 0.92821 0.4517 0.0
C820 C 0.65534 0.94045 0.4358 0.0
C821 C 0.63927 0.90789 0.44768 0.0
H822 H 0.62762 0.90771 0.39679 0.0
H823 H 0.66587 0.95588 0.43856 0.0
C824 C 0.68529 0.00038 0.35335 0.0
N825 N 0.70627 0.03936 0.34551 0.0
C826 C 0.67573 0.00992 0.34633 0.0
C827 C 0.70554 0.01064 0.35622 0.0
C828 C 0.68659 0.02963 0.34248 0.0
C829 C 0.71587 0.03035 0.35224 0.0
C830 C 0.63015 0.92621 0.35534 0.0
C831 C 0.63036 0.91955 0.33513 0.0
C832 C 0.61245 0.92044 0.36365 0.0
C833 C 0.61279 0.90733 0.32351 0.0
C834 C 0.5952 0.90822 0.35153 0.0
N835 N 0.59573 0.90198 0.33187 0.0
C836 C 0.67997 0.92881 0.34528 0.0
C837 C 0.70308 0.96098 0.3379 0.0
C838 C 0.68727 0.92086 0.33117 0.0
N839 N 0.68764 0.94849 0.348 0.0
C840 C 0.71107 0.95369 0.32388 0.0
C841 C 0.70284 0.93333 0.31992 0.0
H842 H 0.66773 0.91924 0.35361 0.0
H843 H 0.70897 0.97658 0.34044 0.0
C844 C 0.62043 0.97525 0.35972 0.0
N845 N 0.62919 0.96625 0.35068 0.0
C846 C 0.60758 0.97867 0.34801 0.0
C847 C 0.61263 0.96303 0.31803 0.0
C848 C 0.62574 0.96034 0.33022 0.0
C849 C 0.60361 0.97251 0.32692 0.0
H850 H 0.62384 0.98027 0.3759 0.0
H851 H 0.63354 0.95401 0.32326 0.0
O852 O 0.68449 0.96378 0.39561 0.0
O853 O 0.65149 0.9731 0.39594 0.0
O854 O 0.6749 0.98116 0.35748 0.0
O855 O 0.64719 0.93836 0.36689 0.0
H856 H 0.67622 0.92793 0.40294 0.0
H857 H 0.72102 0.98398 0.38645 0.0
H858 H 0.69921 0.91571 0.40087 0.0
H859 H 0.74323 0.97077 0.38466 0.0
H860 H 0.59946 0.94942 0.43433 0.0
H861 H 0.67 0.9928 0.43155 0.0
H862 H 0.61411 0.95128 0.40114 0.0
H863 H 0.65435 0.99038 0.46413 0.0
H864 H 0.73702 0.03475 0.43151 0.0
H865 H 0.69832 0.05329 0.407 0.0
H866 H 0.62055 0.885 0.42387 0.0
H867 H 0.65903 0.93455 0.46683 0.0
H868 H 0.66009 0.00225 0.34398 0.0
H869 H 0.71317 0.00359 0.36192 0.0
H870 H 0.67938 0.03721 0.33711 0.0
H871 H 0.73152 0.0385 0.35461 0.0
H872 H 0.64392 0.92399 0.32838 0.0
H873 H 0.61204 0.92538 0.37927 0.0
H874 H 0.61273 0.90216 0.30782 0.0
H875 H 0.58139 0.90371 0.35774 0.0
H876 H 0.68016 0.90509 0.32851 0.0
H877 H 0.72331 0.96392 0.31594 0.0
H878 H 0.60086 0.98609 0.35528 0.0
H879 H 0.61005 0.95836 0.30173 0.0
Li880 Li 0.05318 0.72193 0.35519 0.0
Li881 Li 0.01984 0.71388 0.34495 0.0
Li882 Li 0.03538 0.69745 0.32596 0.0
Li883 Li 0.04546 0.7317 0.32162 0.0
C884 C 0.02899 0.68607 0.37095 0.0
N885 N 0.02938 0.66519 0.4035 0.0
C886 C 0.01911 0.68558 0.38827 0.0
C887 C 0.03877 0.67564 0.37003 0.0
C888 C 0.01957 0.67504 0.40461 0.0
C889 C 0.03888 0.66524 0.38667 0.0
C890 C 0.03927 0.75455 0.35511 0.0
C891 C 0.02456 0.77346 0.34578 0.0
N892 N 0.03042 0.78331 0.3648 0.0
C893 C 0.04527 0.76494 0.37451 0.0
C894 C 0.02893 0.75889 0.34058 0.0
C895 C 0.04059 0.7794 0.37914 0.0
C896 C 0.09001 0.7362 0.37763 0.0
N897 N 0.07079 0.72954 0.37886 0.0
C898 C 0.07502 0.734 0.4156 0.0
C899 C 0.06325 0.72867 0.39731 0.0
C900 C 0.09488 0.74081 0.41487 0.0
C901 C 0.10244 0.74204 0.39561 0.0
H902 H 0.09572 0.73722 0.36273 0.0
H903 H 0.04809 0.72409 0.39778 0.0
C904 C 0.97947 0.69359 0.34739 0.0
N905 N 0.99651 0.70884 0.35607 0.0
C906 C 0.96245 0.68721 0.35738 0.0
C907 C 0.98081 0.71286 0.3846 0.0
C908 C 0.99744 0.7186 0.37419 0.0
C909 C 0.9631 0.69661 0.37651 0.0
H910 H 0.9793 0.68579 0.3332 0.0
H911 H 0.01124 0.73021 0.38114 0.0
C912 C 0.0749 0.7153 0.32028 0.0
N913 N 0.10029 0.70469 0.30513 0.0
C914 C 0.08233 0.72109 0.30122 0.0
C915 C 0.08058 0.70436 0.33175 0.0
C916 C 0.0951 0.71552 0.29379 0.0
C917 C 0.09337 0.69907 0.32379 0.0
C918 C 0.00933 0.70768 0.29734 0.0
C919 C 0.01032 0.69843 0.27899 0.0
C920 C 0.99746 0.71589 0.29768 0.0
C921 C -0.00018 0.69806 0.2611 0.0
C922 C 0.98716 0.71519 0.27947 0.0
N923 N 0.98857 0.70639 0.26171 0.0
C924 C 0.0149 0.65691 0.32011 0.0
C925 C 0.03874 0.67165 0.29628 0.0
C926 C 0.00927 0.63829 0.31117 0.0
N927 N 0.02953 0.67307 0.31272 0.0
C928 C 0.03368 0.6533 0.28695 0.0
C929 C 0.01877 0.63628 0.29442 0.0
H930 H 0.0075 0.65851 0.33289 0.0
H931 H 0.04988 0.68471 0.29026 0.0
C932 C 0.06653 0.7704 0.30968 0.0
N933 N 0.05573 0.75122 0.30252 0.0
C934 C 0.07634 0.78474 0.29612 0.0
C935 C 0.06354 0.75935 0.26806 0.0
C936 C 0.054 0.74553 0.28215 0.0
C937 C 0.07519 0.77923 0.27504 0.0
H938 H 0.06812 0.77452 0.32601 0.0
H939 H 0.04606 0.73017 0.27696 0.0
O940 O 0.02872 0.69635 0.35482 0.0
O941 O 0.04358 0.74025 0.35043 0.0
O942 O 0.06234 0.72058 0.32774 0.0
O943 O 0.0193 0.70793 0.31505 0.0
H944 H 0.01129 0.6934 0.38915 0.0
H945 H 0.04604 0.67541 0.35653 0.0
H946 H 0.01212 0.67468 0.41818 0.0
H947 H 0.04644 0.65716 0.38619 0.0
H948 H 0.01656 0.77697 0.33468 0.0
H949 H 0.05333 0.76177 0.38591 0.0
H950 H 0.0245 0.75122 0.3254 0.0
H951 H 0.04505 0.78749 0.39412 0.0
H952 H 0.06877 0.73333 0.43016 0.0
H953 H 0.11774 0.74741 0.39449 0.0
H954 H 0.94919 0.67449 0.35069 0.0
H955 H 0.98195 0.72072 0.39915 0.0
H956 H 0.07822 0.7297 0.29221 0.0
H957 H 0.0753 0.70012 0.3467 0.0
H958 H 0.10088 0.7198 0.27901 0.0
H959 H 0.09785 0.69055 0.33249 0.0
H960 H 0.01925 0.69178 0.27853 0.0
H961 H 0.99604 0.72255 0.31187 0.0
H962 H 0.00059 0.69111 0.24675 0.0
H963 H 0.97797 0.72155 0.27949 0.0
H964 H 0.99742 0.62565 0.31717 0.0
H965 H 0.04149 0.65248 0.27416 0.0
H966 H 0.08511 0.79991 0.30215 0.0
H967 H 0.06261 0.75437 0.25205 0.0
Li968 Li 0.2869 0.34601 0.40077 0.0
Li969 Li 0.29839 0.32571 0.38652 0.0
Li970 Li 0.31197 0.35788 0.37604 0.0
Li971 Li 0.27797 0.33169 0.36317 0.0
C972 C 0.32451 0.3657 0.41851 0.0
N973 N 0.34656 0.39674 0.44757 0.0
C974 C 0.33295 0.36294 0.43629 0.0
C975 C 0.32738 0.38425 0.41545 0.0
C976 C 0.34402 0.37881 0.45083 0.0
C977 C 0.33855 0.39976 0.43032 0.0
C978 C 0.26113 0.2999 0.39529 0.0
C979 C 0.23816 0.26538 0.38847 0.0
N980 N 0.24144 0.26262 0.40835 0.0
C981 C 0.26419 0.29677 0.41568 0.0
C982 C 0.24796 0.28413 0.38157 0.0
C983 C 0.25413 0.27779 0.42197 0.0
C984 C 0.26437 0.3584 0.42225 0.0
N985 N 0.27714 0.35194 0.42428 0.0
C986 C 0.27385 0.35025 0.46048 0.0
C987 C 0.28213 0.34806 0.44291 0.0
C988 C 0.26025 0.35644 0.45884 0.0
C989 C 0.25578 0.36088 0.43948 0.0
H990 H 0.26041 0.36103 0.40717 0.0
H991 H 0.29212 0.34269 0.44402 0.0
C992 C 0.32597 0.31713 0.39998 0.0
N993 N 0.30692 0.30792 0.39313 0.0
C994 C 0.33462 0.30637 0.40543 0.0
C995 C 0.30392 0.27667 0.39653 0.0
C996 C 0.29596 0.28805 0.39082 0.0
C997 C 0.3235 0.28583 0.40417 0.0
H998 H 0.33454 0.33295 0.40103 0.0
H999 H 0.28108 0.28097 0.38458 0.0
C1000 C 0.28807 0.37533 0.36822 0.0
N1001 N 0.28847 0.4077 0.35373 0.0
C1002 C 0.28445 0.37591 0.34717 0.0
C1003 C 0.29155 0.39108 0.38195 0.0
C1004 C 0.28482 0.39245 0.34013 0.0
C1005 C 0.29179 0.40735 0.37431 0.0
C1006 C 0.30779 0.32083 0.34995 0.0
C1007 C 0.3273 0.32632 0.34951 0.0
C1008 C 0.29336 0.30187 0.34265 0.0
C1009 C 0.33207 0.31262 0.3419 0.0
C1010 C 0.29873 0.28862 0.33514 0.0
N1011 N 0.3178 0.29421 0.33495 0.0
C1012 C 0.35212 0.38022 0.37544 0.0
C1013 C 0.33497 0.38746 0.35015 0.0
C1014 C 0.36946 0.39141 0.3664 0.0
N1015 N 0.33531 0.3782 0.36702 0.0
C1016 C 0.35199 0.39888 0.34067 0.0
C1017 C 0.36941 0.40045 0.34844 0.0
H1018 H 0.35187 0.37215 0.38842 0.0
H1019 H 0.32137 0.38497 0.34321 0.0
C1020 C 0.2407 0.31704 0.34163 0.0
N1021 N 0.25973 0.32302 0.34003 0.0
C1022 C 0.22838 0.31288 0.32383 0.0
C1023 C 0.25546 0.32069 0.30335 0.0
C1024 C 0.26715 0.32454 0.32142 0.0
C1025 C 0.23592 0.31518 0.30444 0.0
H1026 H 0.23527 0.3161 0.35669 0.0
H1027 H 0.28237 0.32948 0.32066 0.0
O1028 O 0.31351 0.3502 0.40427 0.0
O1029 O 0.27066 0.31835 0.38884 0.0
O1030 O 0.28741 0.35909 0.37543 0.0
O1031 O 0.3028 0.33382 0.35788 0.0
H1032 H 0.33087 0.34865 0.43887 0.0
H1033 H 0.32123 0.38669 0.40165 0.0
H1034 H 0.35058 0.37688 0.4647 0.0
H1035 H 0.3409 0.41421 0.42813 0.0
H1036 H 0.22797 0.25301 0.37803 0.0
H1037 H 0.27435 0.30883 0.42645 0.0
H1038 H 0.2454 0.28636 0.36575 0.0
H1039 H 0.25643 0.27511 0.43767 0.0
H1040 H 0.27781 0.34682 0.47513 0.0
H1041 H 0.24517 0.36544 0.43751 0.0
H1042 H 0.34988 0.31414 0.41058 0.0
H1043 H 0.29467 0.2609 0.39533 0.0
H1044 H 0.2816 0.36384 0.33632 0.0
H1045 H 0.29391 0.39073 0.39835 0.0
H1046 H 0.2822 0.39314 0.32385 0.0
H1047 H 0.29454 0.41967 0.38476 0.0
H1048 H 0.33862 0.34092 0.35517 0.0
H1049 H 0.27819 0.29738 0.34305 0.0
H1050 H 0.3471 0.31661 0.34157 0.0
H1051 H 0.28773 0.27385 0.32957 0.0
H1052 H 0.38259 0.39231 0.3729 0.0
H1053 H 0.35125 0.4053 0.32662 0.0
H1054 H 0.2134 0.30877 0.32524 0.0
H1055 H 0.26175 0.32244 0.28867 0.0
Li1056 Li 0.32029 0.01507 0.67307 0.0
Li1057 Li 0.35067 0.03234 0.69431 0.0
Li1058 Li 0.32416 0.04037 0.69808 0.0
Li1059 Li 0.34349 0.05009 0.66835 0.0
C1060 C 0.31344 0.99675 0.70708 0.0
N1061 N 0.29147 0.9574 0.71302 0.0
C1062 C 0.32212 0.98526 0.70784 0.0
C1063 C 0.29365 0.98828 0.7096 0.0
C1064 C 0.31075 0.96539 0.71081 0.0
C1065 C 0.28277 0.96835 0.71251 0.0
C1066 C 0.36306 0.0294 0.65452 0.0
C1067 C 0.39615 0.05006 0.64647 0.0
N1068 N 0.39551 0.03444 0.63603 0.0
C1069 C 0.36265 0.0136 0.64351 0.0
C1070 C 0.37988 0.04782 0.65585 0.0
C1071 C 0.37923 0.01642 0.63436 0.0
C1072 C 0.2846 0.98557 0.6525 0.0
N1073 N 0.30273 0.99011 0.65951 0.0
C1074 C 0.29626 0.95816 0.64803 0.0
C1075 C 0.30877 0.97694 0.65736 0.0
C1076 C 0.27735 0.95293 0.64082 0.0
C1077 C 0.27159 0.96695 0.64312 0.0
H1078 H 0.28019 0.99633 0.65431 0.0
H1079 H 0.32328 0.98097 0.66313 0.0
C1080 C 0.37251 0.03532 0.73013 0.0
N1081 N 0.36955 0.02934 0.70972 0.0
C1082 C 0.38497 0.03227 0.74301 0.0
C1083 C 0.39126 0.01714 0.71355 0.0
C1084 C 0.37858 0.02037 0.70129 0.0
C1085 C 0.39446 0.02294 0.73477 0.0
H1086 H 0.36486 0.04213 0.73645 0.0
H1087 H 0.37568 0.01531 0.68516 0.0
C1088 C 0.30001 0.04025 0.66825 0.0
N1089 N 0.27042 0.04861 0.66843 0.0
C1090 C 0.30151 0.05604 0.65813 0.0
C1091 C 0.28335 0.02857 0.67823 0.0
C1092 C 0.28642 0.06006 0.65846 0.0
C1093 C 0.26858 0.03307 0.67822 0.0
C1094 C 0.3686 0.07617 0.70339 0.0
C1095 C 0.36659 0.09204 0.71006 0.0
C1096 C 0.38715 0.07858 0.7033 0.0
C1097 C 0.38314 0.11018 0.71588 0.0
C1098 C 0.40334 0.09694 0.70927 0.0
N1099 N 0.40103 0.11224 0.71535 0.0
C1100 C 0.30678 0.04048 0.73495 0.0
C1101 C 0.31249 0.0661 0.71387 0.0
C1102 C 0.30075 0.04862 0.75036 0.0
N1103 N 0.31281 0.0495 0.71733 0.0
C1104 C 0.30656 0.07471 0.72881 0.0
C1105 C 0.30106 0.06625 0.74758 0.0
H1106 H 0.30743 0.02742 0.73738 0.0
H1107 H 0.31755 0.07307 0.69979 0.0
C1108 C 0.35571 0.0654 0.62975 0.0
N1109 N 0.35298 0.06966 0.64935 0.0
C1110 C 0.36018 0.07904 0.6151 0.0
C1111 C 0.35894 0.10113 0.6411 0.0
C1112 C 0.35467 0.08716 0.65525 0.0
C1113 C 0.36143 0.097 0.62065 0.0
H1114 H 0.35368 0.05113 0.62528 0.0
H1115 H 0.35167 0.08987 0.67066 0.0
O1116 O 0.32425 0.01615 0.70374 0.0
O1117 O 0.34693 0.02681 0.66364 0.0
O1118 O 0.31475 0.03622 0.66828 0.0
O1119 O 0.35249 0.05819 0.69796 0.0
H1120 H 0.3374 0.99155 0.70589 0.0
H1121 H 0.28674 0.99699 0.70927 0.0
H1122 H 0.31725 0.95629 0.71127 0.0
H1123 H 0.26741 0.96158 0.71436 0.0
H1124 H 0.40926 0.06425 0.64739 0.0
H1125 H 0.3497 0.99928 0.64208 0.0
H1126 H 0.38027 0.06033 0.6637 0.0
H1127 H 0.37914 0.00428 0.6259 0.0
H1128 H 0.3014 0.94792 0.64638 0.0
H1129 H 0.25706 0.96348 0.63805 0.0
H1130 H 0.38677 0.03674 0.7593 0.0
H1131 H 0.39843 0.01014 0.70644 0.0
H1132 H 0.31415 0.06507 0.65007 0.0
H1133 H 0.28192 0.01628 0.68608 0.0
H1134 H 0.28743 0.07228 0.65076 0.0
H1135 H 0.25568 0.02424 0.68603 0.0
H1136 H 0.35242 0.09045 0.7106 0.0
H1137 H 0.38909 0.06642 0.69885 0.0
H1138 H 0.38176 0.1226 0.72088 0.0
H1139 H 0.41776 0.09899 0.70916 0.0
H1140 H 0.29688 0.04176 0.76471 0.0
H1141 H 0.30685 0.08819 0.72595 0.0
H1142 H 0.36168 0.07518 0.59939 0.0
H1143 H 0.35977 0.11481 0.64597 0.0
Li1144 Li 0.98064 0.28754 0.71764 0.0
Li1145 Li 0.96488 0.30413 0.73481 0.0
Li1146 Li 0.95482 0.27083 0.74031 0.0
Li1147 Li 0.94604 0.27845 0.70826 0.0
C1148 C 0.9858 0.29052 0.76582 0.0
N1149 N 0.99362 0.28122 0.80396 0.0
C1150 C 0.98142 0.29754 0.78366 0.0
C1151 C 0.99424 0.27887 0.76734 0.0
C1152 C 0.98546 0.29264 0.80281 0.0
C1153 C 0.99807 0.27432 0.78678 0.0
C1154 C 0.97846 0.32278 0.70206 0.0
C1155 C 0.97554 0.35108 0.69653 0.0
N1156 N 0.99517 0.36229 0.69696 0.0
C1157 C 0.99861 0.33458 0.70237 0.0
C1158 C 0.96681 0.33107 0.69902 0.0
C1159 C 0.00678 0.35452 0.69978 0.0
C1160 C 0.00285 0.2894 0.68566 0.0
N1161 N 0.00371 0.29216 0.70649 0.0
C1162 C 0.03808 0.30623 0.70902 0.0
C1163 C 0.02076 0.3002 0.71831 0.0
C1164 C 0.03771 0.30422 0.68744 0.0
C1165 C 0.01978 0.29536 0.67575 0.0
H1166 H 0.98904 0.28323 0.67674 0.0
H1167 H 0.02101 0.30265 0.73482 0.0
C1168 C 0.95645 0.33207 0.7527 0.0
N1169 N 0.97079 0.32859 0.7477 0.0
C1170 C 0.96105 0.35018 0.76226 0.0
C1171 C 0.99507 0.36062 0.76162 0.0
C1172 C 0.9898 0.3423 0.75211 0.0
C1173 C 0.98059 0.36475 0.7668 0.0
H1174 H 0.94147 0.32078 0.74933 0.0
H1175 H 0.00086 0.33893 0.74825 0.0
C1176 C 0.95497 0.24312 0.71401 0.0
N1177 N 0.95059 0.20646 0.71675 0.0
C1178 C 0.93653 0.22677 0.71501 0.0
C1179 C 0.97117 0.24081 0.71433 0.0
C1180 C 0.93463 0.20836 0.71643 0.0
C1181 C 0.96865 0.22215 0.71573 0.0
C1182 C 0.91902 0.27546 0.73048 0.0
C1183 C 0.90507 0.25636 0.73417 0.0
C1184 C 0.91325 0.28733 0.72098 0.0
C1185 C 0.88557 0.24948 0.72832 0.0
C1186 C 0.89361 0.2799 0.71532 0.0
N1187 N 0.88029 0.26129 0.71909 0.0
C1188 C 0.93569 0.25756 0.77528 0.0
C1189 C 0.94966 0.23869 0.7648 0.0
C1190 C 0.92768 0.24603 0.79153 0.0
N1191 N 0.94599 0.25345 0.76196 0.0
C1192 C 0.94172 0.22659 0.78081 0.0
C1193 C 0.9304 0.23012 0.79427 0.0
H1194 H 0.93349 0.26976 0.77314 0.0
H1195 H 0.95874 0.23627 0.75479 0.0
C1196 C 0.93128 0.28139 0.66928 0.0
N1197 N 0.9276 0.26961 0.68495 0.0
C1198 C 0.91926 0.27451 0.651 0.0
C1199 C 0.89959 0.24369 0.66555 0.0
C1200 C 0.91202 0.25114 0.68349 0.0
C1201 C 0.90339 0.25527 0.64881 0.0
H1202 H 0.94397 0.29587 0.67064 0.0
H1203 H 0.90949 0.24198 0.69603 0.0
O1204 O 0.98144 0.29469 0.74693 0.0
O1205 O 0.97019 0.30332 0.70508 0.0
O1206 O 0.95714 0.26121 0.71224 0.0
O1207 O 0.93824 0.28243 0.73593 0.0
H1208 H 0.97478 0.30649 0.78269 0.0
H1209 H 0.99752 0.27317 0.75363 0.0
H1210 H 0.98205 0.29786 0.81675 0.0
H1211 H 0.00448 0.26521 0.7882 0.0
H1212 H 0.9667 0.3577 0.69429 0.0
H1213 H 0.00787 0.32849 0.70481 0.0
H1214 H 0.95121 0.32218 0.69879 0.0
H1215 H 0.02235 0.36384 0.70009 0.0
H1216 H 0.05166 0.31318 0.71853 0.0
H1217 H 0.0189 0.29338 0.65909 0.0
H1218 H 0.94944 0.35282 0.76585 0.0
H1219 H 0.01029 0.37133 0.76512 0.0
H1220 H 0.92387 0.22829 0.71505 0.0
H1221 H 0.98554 0.25328 0.71354 0.0
H1222 H 0.92046 0.19561 0.71735 0.0
H1223 H 0.98106 0.22016 0.71603 0.0
H1224 H 0.90924 0.24679 0.74113 0.0
H1225 H 0.92383 0.30205 0.71779 0.0
H1226 H 0.87464 0.23471 0.73101 0.0
H1227 H 0.88896 0.28891 0.70788 0.0
H1228 H 0.91899 0.24923 0.8015 0.0
H1229 H 0.94446 0.21468 0.78269 0.0
H1230 H 0.92294 0.28384 0.63838 0.0
H1231 H 0.88741 0.22884 0.66461 0.0
Li1232 Li 0.70869 0.6798 0.68186 0.0
Li1233 Li 0.69532 0.64793 0.69271 0.0
Li1234 Li 0.72843 0.6706 0.70248 0.0
Li1235 Li 0.71722 0.6568 0.66627 0.0
C1236 C 0.71224 0.68866 0.72388 0.0
N1237 N 0.72519 0.72133 0.75124 0.0
C1238 C 0.7023 0.68766 0.7413 0.0
C1239 C 0.72879 0.7063 0.72039 0.0
C1240 C 0.70906 0.70433 0.75494 0.0
C1241 C 0.7351 0.72264 0.7344 0.0
C1242 C 0.67377 0.65264 0.6609 0.0
C1243 C 0.64637 0.64472 0.63718 0.0
N1244 N 0.63783 0.64884 0.65269 0.0
C1245 C 0.66472 0.65683 0.67661 0.0
C1246 C 0.66455 0.64657 0.64102 0.0
C1247 C 0.64655 0.6548 0.67215 0.0
C1248 C 0.70569 0.70451 0.65527 0.0
N1249 N 0.70277 0.69927 0.6749 0.0
C1250 C 0.68657 0.71727 0.6805 0.0
C1251 C 0.69353 0.70546 0.68758 0.0
C1252 C 0.68877 0.72231 0.66007 0.0
C1253 C 0.69871 0.71605 0.64746 0.0
H1254 H 0.71271 0.69899 0.64543 0.0
H1255 H 0.69065 0.7005 0.70283 0.0
C1256 C 0.67281 0.62953 0.72428 0.0
N1257 N 0.67267 0.62798 0.70343 0.0
C1258 C 0.65598 0.61801 0.7339 0.0
C1259 C 0.63936 0.6027 0.70046 0.0
C1260 C 0.6566 0.61453 0.69145 0.0
C1261 C 0.6388 0.60484 0.72192 0.0
H1262 H 0.68587 0.64027 0.73338 0.0
H1263 H 0.65693 0.61361 0.67487 0.0
C1264 C 0.75354 0.69117 0.67213 0.0
N1265 N 0.79078 0.70344 0.66162 0.0
C1266 C 0.76081 0.67842 0.67259 0.0
C1267 C 0.76518 0.71012 0.66626 0.0
C1268 C 0.77967 0.68491 0.66723 0.0
C1269 C 0.78398 0.71607 0.66105 0.0
C1270 C 0.70775 0.624 0.69503 0.0
C1271 C 0.70997 0.61873 0.71466 0.0
C1272 C 0.69497 0.60961 0.67983 0.0
C1273 C 0.69922 0.59909 0.71883 0.0
C1274 C 0.68449 0.59014 0.6846 0.0
N1275 N 0.6868 0.58533 0.70384 0.0
C1276 C 0.73955 0.67105 0.74282 0.0
C1277 C 0.76682 0.69166 0.72493 0.0
C1278 C 0.75113 0.67607 0.76121 0.0
N1279 N 0.74747 0.67879 0.72516 0.0
C1280 C 0.77906 0.69682 0.74297 0.0
C1281 C 0.77115 0.68906 0.7614 0.0
H1282 H 0.72409 0.66108 0.74263 0.0
H1283 H 0.77282 0.69814 0.71094 0.0
C1284 C 0.72811 0.66328 0.62659 0.0
N1285 N 0.72465 0.65048 0.64117 0.0
C1286 C 0.73618 0.66176 0.60858 0.0
C1287 C 0.73612 0.63331 0.62044 0.0
C1288 C 0.72828 0.63555 0.63844 0.0
C1289 C 0.74054 0.64681 0.60549 0.0
H1290 H 0.72525 0.67512 0.62937 0.0
H1291 H 0.7258 0.62586 0.6505 0.0
O1292 O 0.70581 0.6723 0.71061 0.0
O1293 O 0.69169 0.65473 0.66473 0.0
O1294 O 0.73491 0.68504 0.67667 0.0
O1295 O 0.71777 0.64319 0.69077 0.0
H1296 H 0.68948 0.67412 0.74425 0.0
H1297 H 0.73674 0.70743 0.70706 0.0
H1298 H 0.7015 0.70375 0.76848 0.0
H1299 H 0.74788 0.73637 0.73189 0.0
H1300 H 0.63907 0.64003 0.62186 0.0
H1301 H 0.67162 0.66158 0.69209 0.0
H1302 H 0.6714 0.64336 0.62868 0.0
H1303 H 0.6394 0.65798 0.68416 0.0
H1304 H 0.67871 0.72159 0.69055 0.0
H1305 H 0.70071 0.71972 0.63162 0.0
H1306 H 0.65628 0.6198 0.75052 0.0
H1307 H 0.62641 0.59273 0.69068 0.0
H1308 H 0.75204 0.6637 0.67708 0.0
H1309 H 0.75969 0.7201 0.66568 0.0
H1310 H 0.78549 0.67521 0.66752 0.0
H1311 H 0.79316 0.73071 0.65648 0.0
H1312 H 0.71984 0.62967 0.72658 0.0
H1313 H 0.69293 0.61351 0.66461 0.0
H1314 H 0.70073 0.5948 0.73398 0.0
H1315 H 0.67445 0.57886 0.67303 0.0
H1316 H 0.74454 0.66968 0.7751 0.0
H1317 H 0.79445 0.70701 0.74264 0.0
H1318 H 0.73933 0.6724 0.59735 0.0
H1319 H 0.73952 0.62174 0.61866 0.0
Li1320 Li 0.34609 0.31648 0.72344 0.0
Li1321 Li 0.32291 0.28234 0.72531 0.0
Li1322 Li 0.34127 0.29233 0.6952 0.0
Li1323 Li 0.31596 0.30032 0.70079 0.0
C1324 C 0.37091 0.30144 0.72588 0.0
N1325 N 0.41036 0.31564 0.72938 0.0
C1326 C 0.37899 0.2952 0.74104 0.0
C1327 C 0.38288 0.31485 0.71248 0.0
C1328 C 0.39897 0.30257 0.74257 0.0
C1329 C 0.40279 0.32187 0.7145 0.0
C1330 C 0.31927 0.30856 0.75222 0.0
C1331 C 0.30788 0.31876 0.78128 0.0
N1332 N 0.32007 0.31617 0.7942 0.0
C1333 C 0.33169 0.306 0.76578 0.0
C1334 C 0.30727 0.31499 0.76 0.0
C1335 C 0.33187 0.30992 0.78695 0.0
C1336 C 0.36264 0.35657 0.73319 0.0
N1337 N 0.36374 0.34074 0.73827 0.0
C1338 C 0.38939 0.36029 0.76416 0.0
C1339 C 0.37656 0.34218 0.75361 0.0
C1340 C 0.3889 0.37703 0.75894 0.0
C1341 C 0.37518 0.37498 0.74333 0.0
H1342 H 0.35208 0.35489 0.7211 0.0
H1343 H 0.3768 0.32928 0.75776 0.0
C1344 C 0.32282 0.25217 0.74447 0.0
N1345 N 0.31294 0.26188 0.7432 0.0
C1346 C 0.31782 0.23766 0.75808 0.0
C1347 C 0.29213 0.24301 0.76851 0.0
C1348 C 0.29771 0.25753 0.75469 0.0
C1349 C 0.30237 0.23297 0.77047 0.0
H1350 H 0.3349 0.256 0.73515 0.0
H1351 H 0.29011 0.26553 0.75337 0.0
C1352 C 0.34939 0.32993 0.67831 0.0
N1353 N 0.36283 0.35502 0.64727 0.0
C1354 C 0.33785 0.32589 0.65996 0.0
C1355 C 0.36777 0.34678 0.68088 0.0
C1356 C 0.3449 0.33873 0.64445 0.0
C1357 C 0.37431 0.35926 0.665 0.0
C1358 C 0.29393 0.25945 0.69478 0.0
C1359 C 0.28748 0.24219 0.68221 0.0
C1360 C 0.28082 0.26181 0.70631 0.0
C1361 C 0.26797 0.22755 0.68134 0.0
C1362 C 0.26143 0.24683 0.70502 0.0
N1363 N 0.25545 0.23015 0.69266 0.0
C1364 C 0.35789 0.27086 0.68031 0.0
C1365 C 0.35401 0.2898 0.6556 0.0
C1366 C 0.3644 0.26257 0.66559 0.0
N1367 N 0.3527 0.28406 0.67504 0.0
C1368 C 0.36043 0.2819 0.64039 0.0
C1369 C 0.36543 0.26784 0.64521 0.0
H1370 H 0.35645 0.26635 0.69584 0.0
H1371 H 0.34941 0.29994 0.65163 0.0
C1372 C 0.29873 0.32255 0.69289 0.0
N1373 N 0.29788 0.30545 0.68695 0.0
C1374 C 0.28726 0.32834 0.68211 0.0
C1375 C 0.27404 0.29862 0.6595 0.0
C1376 C 0.28586 0.29348 0.67063 0.0
C1377 C 0.27479 0.31635 0.66509 0.0
H1378 H 0.30866 0.33188 0.70577 0.0
H1379 H 0.28588 0.28025 0.66584 0.0
O1380 O 0.35138 0.29445 0.7244 0.0
O1381 O 0.31878 0.30486 0.73141 0.0
O1382 O 0.34261 0.31776 0.6939 0.0
O1383 O 0.31303 0.27382 0.69584 0.0
H1384 H 0.36991 0.28486 0.75157 0.0
H1385 H 0.37688 0.31972 0.70059 0.0
H1386 H 0.40543 0.29791 0.75426 0.0
H1387 H 0.41222 0.33225 0.70422 0.0
H1388 H 0.29867 0.32375 0.78752 0.0
H1389 H 0.34105 0.30099 0.76009 0.0
H1390 H 0.29759 0.31705 0.74969 0.0
H1391 H 0.3414 0.30799 0.79762 0.0
H1392 H 0.39949 0.36117 0.77636 0.0
H1393 H 0.37441 0.38751 0.7387 0.0
H1394 H 0.3264 0.23065 0.7593 0.0
H1395 H 0.28002 0.23976 0.77761 0.0
H1396 H 0.32371 0.31282 0.65756 0.0
H1397 H 0.37691 0.35022 0.69499 0.0
H1398 H 0.33614 0.33573 0.63014 0.0
H1399 H 0.3885 0.37234 0.6668 0.0
H1400 H 0.29748 0.24013 0.67323 0.0
H1401 H 0.28551 0.27506 0.71612 0.0
H1402 H 0.26277 0.21411 0.67166 0.0
H1403 H 0.25112 0.24847 0.71384 0.0
H1404 H 0.36823 0.25189 0.67001 0.0
H1405 H 0.36061 0.28612 0.62481 0.0
H1406 H 0.28815 0.34204 0.68701 0.0
H1407 H 0.26483 0.28911 0.6463 0.0
Li1408 Li 0.68602 0.04423 0.67501 0.0
Li1409 Li 0.71821 0.04989 0.68671 0.0
Li1410 Li 0.71202 0.05803 0.65141 0.0
Li1411 Li 0.69899 0.02391 0.6589 0.0
C1412 C 0.70816 0.08477 0.68352 0.0
N1413 N 0.70195 0.11541 0.69303 0.0
C1414 C 0.71502 0.09546 0.70274 0.0
C1415 C 0.69833 0.08978 0.66908 0.0
C1416 C 0.71168 0.11086 0.70728 0.0
C1417 C 0.69529 0.10529 0.67419 0.0
C1418 C 0.69117 0.01563 0.70426 0.0
C1419 C 0.69686 0.99255 0.7215 0.0
N1420 N 0.6881 0.99475 0.73801 0.0
C1421 C 0.68197 0.01743 0.72126 0.0
C1422 C 0.69846 0.0029 0.70426 0.0
C1423 C 0.68067 0.00685 0.73822 0.0
C1424 C 0.64588 0.02878 0.67595 0.0
N1425 N 0.66349 0.04256 0.68509 0.0
C1426 C 0.64868 0.04996 0.71237 0.0
C1427 C 0.66518 0.05317 0.70288 0.0
C1428 C 0.63031 0.03538 0.7037 0.0
C1429 C 0.62896 0.02489 0.68508 0.0
H1430 H 0.64503 0.02024 0.66206 0.0
H1431 H 0.67934 0.06337 0.71032 0.0
C1432 C 0.75451 0.06425 0.71079 0.0
N1433 N 0.73536 0.05837 0.71091 0.0
C1434 C 0.76659 0.07181 0.72908 0.0
C1435 C 0.73894 0.06692 0.74711 0.0
C1436 C 0.72751 0.05965 0.72854 0.0
C1437 C 0.75884 0.07343 0.74755 0.0
H1438 H 0.76052 0.0636 0.69644 0.0
H1439 H 0.71241 0.05552 0.72806 0.0
C1440 C 0.6767 0.03599 0.62702 0.0
N1441 N 0.65969 0.03618 0.58929 0.0
C1442 C 0.67754 0.02544 0.60967 0.0
C1443 C 0.66685 0.04628 0.62529 0.0
C1444 C 0.66897 0.02583 0.5907 0.0
C1445 C 0.65843 0.04629 0.60605 0.0
C1446 C 0.73866 0.03788 0.65573 0.0
C1447 C 0.74739 0.04111 0.6371 0.0
C1448 C 0.7423 0.02739 0.6701 0.0
C1449 C 0.75935 0.03345 0.633 0.0
C1450 C 0.75435 0.01997 0.66543 0.0
N1451 N 0.76254 0.0231 0.64712 0.0
C1452 C 0.73333 0.09519 0.63533 0.0
C1453 C 0.72326 0.06769 0.61145 0.0
C1454 C 0.74337 0.10792 0.62046 0.0
N1455 N 0.72355 0.07549 0.63059 0.0
C1456 C 0.73306 0.07983 0.59612 0.0
C1457 C 0.74353 0.10025 0.60061 0.0
H1458 H 0.73392 0.10105 0.65085 0.0
H1459 H 0.71601 0.052 0.60828 0.0
C1460 C 0.67475 0.98338 0.65448 0.0
N1461 N 0.69092 0.99826 0.64746 0.0
C1462 C 0.66718 0.9642 0.64597 0.0
C1463 C 0.69303 0.97604 0.6231 0.0
C1464 C 0.70002 0.995 0.63197 0.0
C1465 C 0.67632 0.96031 0.63001 0.0
H1466 H 0.66754 0.98648 0.66648 0.0
H1467 H 0.71247 0.00712 0.62619 0.0
O1468 O 0.71113 0.06951 0.67892 0.0
O1469 O 0.69249 0.02582 0.68747 0.0
O1470 O 0.68486 0.03562 0.64575 0.0
O1471 O 0.72683 0.04521 0.65993 0.0
H1472 H 0.72275 0.09183 0.71406 0.0
H1473 H 0.69326 0.08188 0.65403 0.0
H1474 H 0.71681 0.1192 0.72212 0.0
H1475 H 0.68768 0.10931 0.66316 0.0
H1476 H 0.70249 0.9827 0.72173 0.0
H1477 H 0.676 0.02701 0.72141 0.0
H1478 H 0.70509 0.00085 0.691 0.0
H1479 H 0.67373 0.00824 0.75155 0.0
H1480 H 0.65035 0.05804 0.72695 0.0
H1481 H 0.61504 0.01351 0.67797 0.0
H1482 H 0.7819 0.07692 0.72864 0.0
H1483 H 0.73224 0.06765 0.76095 0.0
H1484 H 0.68489 0.01717 0.6108 0.0
H1485 H 0.66552 0.05401 0.63868 0.0
H1486 H 0.66966 0.01788 0.5771 0.0
H1487 H 0.65083 0.05427 0.60447 0.0
H1488 H 0.74486 0.04935 0.62587 0.0
H1489 H 0.73605 0.02518 0.68478 0.0
H1490 H 0.76611 0.03572 0.61858 0.0
H1491 H 0.75726 0.01178 0.6764 0.0
H1492 H 0.75156 0.12353 0.62473 0.0
H1493 H 0.7327 0.07327 0.58101 0.0
H1494 H 0.65407 0.95263 0.65154 0.0
H1495 H 0.70068 0.97375 0.61097 0.0
Li1496 Li 0.94935 0.68305 0.73397 0.0
Li1497 Li 0.95277 0.65525 0.72063 0.0
Li1498 Li 0.97356 0.68891 0.70869 0.0
Li1499 Li 0.9394 0.66908 0.6972 0.0
C1500 C 0.9864 0.68739 0.75245 0.0
N1501 N 0.01511 0.70256 0.78451 0.0
C1502 C 0.98708 0.67516 0.76679 0.0
C1503 C 0.00044 0.70731 0.75433 0.0
C1504 C 0.00167 0.68312 0.78291 0.0
C1505 C 0.0148 0.7147 0.77066 0.0
C1506 C 0.91446 0.63943 0.7294 0.0
C1507 C 0.89179 0.60471 0.72402 0.0
N1508 N 0.88619 0.60493 0.74339 0.0
C1509 C 0.90841 0.63935 0.74921 0.0
C1510 C 0.90602 0.62201 0.71664 0.0
C1511 C 0.89412 0.62175 0.75601 0.0
C1512 C 0.92758 0.69596 0.7553 0.0
N1513 N 0.9425 0.69248 0.75762 0.0
C1514 C 0.94369 0.69718 0.79424 0.0
C1515 C 0.95082 0.69336 0.77657 0.0
C1516 C 0.92765 0.69985 0.79243 0.0
C1517 C 0.91989 0.69973 0.7726 0.0
H1518 H 0.92107 0.69487 0.74003 0.0
H1519 H 0.96244 0.69027 0.7781 0.0
C1520 C 0.96533 0.62806 0.71874 0.0
N1521 N 0.95379 0.63318 0.72875 0.0
C1522 C 0.9691 0.61401 0.72624 0.0
C1523 C 0.94832 0.61017 0.75358 0.0
C1524 C 0.94521 0.62448 0.74577 0.0
C1525 C 0.96088 0.60517 0.74419 0.0
H1526 H 0.97232 0.63556 0.7055 0.0
H1527 H 0.93672 0.62928 0.75392 0.0
C1528 C 0.96144 0.71695 0.7098 0.0
N1529 N 0.97696 0.75705 0.71283 0.0
C1530 C 0.9587 0.72609 0.69325 0.0
C1531 C 0.97183 0.72817 0.72799 0.0
C1532 C 0.96674 0.7464 0.69505 0.0
C1533 C 0.97962 0.74843 0.7292 0.0
C1534 C 0.95665 0.65477 0.673 0.0
C1535 C 0.96649 0.66615 0.65713 0.0
C1536 C 0.94304 0.63491 0.66856 0.0
C1537 C 0.96222 0.65752 0.63694 0.0
C1538 C 0.93917 0.62682 0.64818 0.0
N1539 N 0.94874 0.6382 0.63292 0.0
C1540 C 0.0132 0.70292 0.70603 0.0
C1541 C 0.00067 0.71876 0.68591 0.0
C1542 C 0.03115 0.71329 0.69784 0.0
N1543 N 0.99844 0.70579 0.69992 0.0
C1544 C 0.01835 0.72941 0.67732 0.0
C1545 C 0.03381 0.72654 0.68304 0.0
H1546 H 0.01083 0.69211 0.71678 0.0
H1547 H 0.98849 0.72016 0.68068 0.0
C1548 C 0.90273 0.65049 0.67325 0.0
N1549 N 0.92195 0.66403 0.674 0.0
C1550 C 0.89063 0.64746 0.65562 0.0
C1551 C 0.91839 0.67232 0.64004 0.0
C1552 C 0.92984 0.67502 0.65798 0.0
C1553 C 0.89844 0.65847 0.63868 0.0
H1554 H 0.89677 0.64218 0.68636 0.0
H1555 H 0.94513 0.68584 0.65915 0.0
O1556 O 0.97221 0.67978 0.73655 0.0
O1557 O 0.92848 0.65651 0.72252 0.0
O1558 O 0.95363 0.69708 0.70824 0.0
O1559 O 0.96045 0.66301 0.69282 0.0
H1560 H 0.97639 0.65972 0.76557 0.0
H1561 H 0.00042 0.71695 0.74319 0.0
H1562 H 0.00231 0.67383 0.79416 0.0
H1563 H 0.02575 0.73009 0.77229 0.0
H1564 H 0.88518 0.5911 0.71434 0.0
H1565 H 0.91475 0.6527 0.75929 0.0
H1566 H 0.91043 0.62184 0.70124 0.0
H1567 H 0.88935 0.62145 0.77133 0.0
H1568 H 0.95029 0.69741 0.8092 0.0
H1569 H 0.90736 0.70145 0.77047 0.0
H1570 H 0.9791 0.61087 0.71864 0.0
H1571 H 0.94141 0.60357 0.76726 0.0
H1572 H 0.95054 0.71759 0.67912 0.0
H1573 H 0.97374 0.72131 0.74109 0.0
H1574 H 0.96483 0.75368 0.68232 0.0
H1575 H 0.98774 0.75729 0.74317 0.0
H1576 H 0.97716 0.68152 0.66034 0.0
H1577 H 0.93558 0.62584 0.68073 0.0
H1578 H 0.9696 0.66618 0.62448 0.0
H1579 H 0.9286 0.61149 0.64449 0.0
H1580 H 0.0427 0.71067 0.70274 0.0
H1581 H 0.01957 0.73911 0.6656 0.0
H1582 H 0.87531 0.63683 0.65541 0.0
H1583 H 0.9252 0.68092 0.62731 0.0
H1584 H 0.17616 0.36069 0.02316 0.0
H1585 H 0.26417 0.28432 0.17837 0.0
H1586 H 0.16159 0.35202 0.13881 0.0
H1587 H 0.13927 0.36104 0.12291 0.0
H1588 H 0.09793 0.2999 0.10591 0.0
H1589 H 0.12047 0.29101 0.12197 0.0
H1590 H 0.19236 0.35354 0.10972 0.0
H1591 H 0.18988 0.36226 0.07465 0.0
H1592 H 0.14431 0.30258 0.05728 0.0
H1593 H 0.14709 0.29406 0.09237 0.0
H1594 H 0.2227 0.34818 0.13769 0.0
H1595 H 0.24952 0.35883 0.11565 0.0
H1596 H 0.21487 0.30704 0.07401 0.0
H1597 H 0.18795 0.29645 0.09633 0.0
H1598 H 0.21955 0.33627 0.17902 0.0
H1599 H 0.24656 0.33229 0.19136 0.0
H1600 H 0.22208 0.27773 0.15321 0.0
H1601 H 0.195 0.28176 0.14122 0.0
H1602 H 0.18568 0.33777 0.19677 0.0
H1603 H 0.19734 0.33805 0.23208 0.0
H1604 H 0.18435 0.27845 0.21985 0.0
H1605 H 0.1722 0.27813 0.18445 0.0
H1606 H 0.15702 0.34174 0.17803 0.0
H1607 H 0.13601 0.34011 0.20476 0.0
H1608 H 0.10791 0.27687 0.19911 0.0
H1609 H 0.12967 0.27885 0.17285 0.0
O1610 O 0.17695 0.35691 0.03692 0.0
O1611 O 0.15351 0.32607 0.02881 0.0
O1612 O 0.26558 0.31436 0.19315 0.0
O1613 O 0.25365 0.28626 0.17374 0.0
C1614 C 0.15738 0.31605 0.13843 0.0
C1615 C 0.17135 0.31796 0.12481 0.0
C1616 C 0.18714 0.31596 0.1318 0.0
C1617 C 0.18859 0.31136 0.15221 0.0
C1618 C 0.17459 0.30944 0.16586 0.0
C1619 C 0.15893 0.3117 0.1589 0.0
C1620 C 0.14252 0.32088 0.13164 0.0
C1621 C 0.14751 0.34057 0.13208 0.0
C1622 C 0.13477 0.34568 0.12299 0.0
C1623 C 0.1169 0.33118 0.11311 0.0
C1624 C 0.11169 0.31138 0.11327 0.0
C1625 C 0.12441 0.30626 0.12256 0.0
C1626 C 0.16996 0.32317 0.10349 0.0
C1627 C 0.18193 0.34238 0.09827 0.0
C1628 C 0.18044 0.34731 0.07825 0.0
C1629 C 0.1669 0.33311 0.06315 0.0
C1630 C 0.1549 0.31386 0.06852 0.0
C1631 C 0.15644 0.30895 0.08853 0.0
C1632 C 0.20351 0.32145 0.11871 0.0
C1633 C 0.221 0.33899 0.12396 0.0
C1634 C 0.23628 0.34505 0.11135 0.0
C1635 C 0.23431 0.33373 0.09315 0.0
C1636 C 0.21673 0.31612 0.08788 0.0
C1637 C 0.20143 0.31 0.10063 0.0
C1638 C 0.20522 0.30918 0.15942 0.0
C1639 C 0.21999 0.3234 0.17346 0.0
C1640 C 0.23543 0.32113 0.18042 0.0
C1641 C 0.23645 0.30465 0.17331 0.0
C1642 C 0.22172 0.29056 0.15904 0.0
C1643 C 0.20625 0.29283 0.15214 0.0
C1644 C 0.17802 0.30791 0.18808 0.0
C1645 C 0.18469 0.32453 0.20189 0.0
C1646 C 0.19154 0.32474 0.22198 0.0
C1647 C 0.19194 0.30835 0.2286 0.0
C1648 C 0.18409 0.29124 0.21516 0.0
C1649 C 0.1772 0.29104 0.19498 0.0
C1650 C 0.14474 0.31042 0.17346 0.0
C1651 C 0.14611 0.32754 0.18236 0.0
C1652 C 0.13403 0.32654 0.19761 0.0
C1653 C 0.12019 0.30833 0.20412 0.0
C1654 C 0.11856 0.29114 0.19471 0.0
C1655 C 0.13083 0.2922 0.17958 0.0
C1656 C 0.16532 0.3384 0.04191 0.0
C1657 C 0.2528 0.30213 0.18071 0.0
H1658 H 0.65433 0.81761 0.03599 0.0
H1659 H 0.73414 0.98801 0.19897 0.0
H1660 H 0.6608 0.81614 0.14625 0.0
H1661 H 0.65002 0.78244 0.13337 0.0
H1662 H 0.70771 0.79265 0.14746 0.0
H1663 H 0.71873 0.82682 0.1596 0.0
H1664 H 0.66137 0.84507 0.12263 0.0
H1665 H 0.65303 0.83293 0.08626 0.0
H1666 H 0.70955 0.83897 0.08244 0.0
H1667 H 0.71779 0.85133 0.11879 0.0
H1668 H 0.66673 0.87864 0.15444 0.0
H1669 H 0.65467 0.89386 0.13108 0.0
H1670 H 0.7031 0.90907 0.09413 0.0
H1671 H 0.7154 0.89409 0.11812 0.0
H1672 H 0.6822 0.89057 0.1977 0.0
H1673 H 0.68753 0.92274 0.20978 0.0
H1674 H 0.73791 0.95037 0.17472 0.0
H1675 H 0.73258 0.9181 0.16301 0.0
H1676 H 0.68288 0.85595 0.21806 0.0
H1677 H 0.68695 0.87099 0.25286 0.0
H1678 H 0.74327 0.91834 0.24067 0.0
H1679 H 0.73957 0.90262 0.20601 0.0
H1680 H 0.67197 0.82028 0.19425 0.0
H1681 H 0.67207 0.79943 0.22062 0.0
H1682 H 0.73459 0.8339 0.2286 0.0
H1683 H 0.73438 0.85482 0.20207 0.0
O1684 O 0.65796 0.82253 0.05035 0.0
O1685 O 0.68716 0.82581 0.04924 0.0
O1686 O 0.70577 0.96017 0.21232 0.0
O1687 O 0.73166 0.97509 0.19437 0.0
C1688 C 0.69707 0.84476 0.15992 0.0
C1689 C 0.69543 0.85662 0.14541 0.0
C1690 C 0.69829 0.87515 0.15204 0.0
C1691 C 0.70427 0.8825 0.17286 0.0
C1692 C 0.70671 0.87097 0.18729 0.0
C1693 C 0.70279 0.85195 0.18083 0.0
C1694 C 0.69063 0.82402 0.15348 0.0
C1695 C 0.67117 0.81118 0.14643 0.0
C1696 C 0.66501 0.79197 0.13921 0.0
C1697 C 0.67809 0.78512 0.1394 0.0
C1698 C 0.6974 0.79769 0.14726 0.0
C1699 C 0.70368 0.81711 0.15412 0.0
C1700 C 0.69028 0.84932 0.12327 0.0
C1701 C 0.672 0.84396 0.11386 0.0
C1702 C 0.66724 0.83693 0.0931 0.0
C1703 C 0.68064 0.83503 0.08142 0.0
C1704 C 0.69891 0.8403 0.09098 0.0
C1705 C 0.70366 0.84736 0.11172 0.0
C1706 C 0.69199 0.88542 0.13804 0.0
C1707 C 0.67485 0.88543 0.14142 0.0
C1708 C 0.66784 0.89389 0.12789 0.0
C1709 C 0.6778 0.90244 0.11061 0.0
C1710 C 0.69515 0.90262 0.10735 0.0
C1711 C 0.70219 0.89411 0.12097 0.0
C1712 C 0.70713 0.90203 0.17966 0.0
C1713 C 0.69443 0.9036 0.19273 0.0
C1714 C 0.69748 0.92198 0.19956 0.0
C1715 C 0.7132 0.93914 0.19327 0.0
C1716 C 0.7257 0.93746 0.1799 0.0
C1717 C 0.72268 0.91906 0.17316 0.0
C1718 C 0.71099 0.87807 0.2095 0.0
C1719 C 0.6965 0.86904 0.22316 0.0
C1720 C 0.69879 0.87771 0.24301 0.0
C1721 C 0.71541 0.8958 0.24936 0.0
C1722 C 0.73035 0.90436 0.23608 0.0
C1723 C 0.72826 0.89541 0.21636 0.0
C1724 C 0.70317 0.83901 0.19627 0.0
C1725 C 0.6857 0.82324 0.20158 0.0
C1726 C 0.68577 0.81145 0.2167 0.0
C1727 C 0.70334 0.81515 0.22668 0.0
C1728 C 0.72088 0.83071 0.22104 0.0
C1729 C 0.72078 0.84266 0.20601 0.0
C1730 C 0.67553 0.82752 0.05937 0.0
C1731 C 0.71658 0.95872 0.2006 0.0
H1732 H 0.14482 0.82896 0.02212 0.0
H1733 H 0.29457 0.97452 0.18852 0.0
H1734 H 0.12734 0.84557 0.12429 0.0
H1735 H 0.10117 0.81316 0.11018 0.0
H1736 H 0.1246 0.78598 0.14866 0.0
H1737 H 0.15101 0.81833 0.16222 0.0
H1738 H 0.16158 0.87532 0.10087 0.0
H1739 H 0.1537 0.86011 0.06552 0.0
H1740 H 0.16419 0.81481 0.08548 0.0
H1741 H 0.17227 0.83033 0.12071 0.0
H1742 H 0.19622 0.91001 0.11601 0.0
H1743 H 0.22023 0.9234 0.09047 0.0
H1744 H 0.23989 0.8834 0.10582 0.0
H1745 H 0.21507 0.86945 0.13021 0.0
H1746 H 0.1983 0.92473 0.16955 0.0
H1747 H 0.22838 0.95575 0.17921 0.0
H1748 H 0.26086 0.92582 0.17449 0.0
H1749 H 0.23067 0.89491 0.16508 0.0
H1750 H 0.16738 0.8972 0.20165 0.0
H1751 H 0.17785 0.90876 0.23825 0.0
H1752 H 0.21945 0.88936 0.23573 0.0
H1753 H 0.20885 0.8778 0.19953 0.0
H1754 H 0.12752 0.85624 0.17569 0.0
H1755 H 0.10557 0.83804 0.20183 0.0
H1756 H 0.1483 0.82524 0.22742 0.0
H1757 H 0.17 0.84334 0.20132 0.0
O1758 O 0.14817 0.83483 0.03616 0.0
O1759 O 0.15364 0.81183 0.04722 0.0
O1760 O 0.26508 0.97714 0.18705 0.0
O1761 O 0.28246 0.96247 0.18474 0.0
C1762 C 0.15875 0.85362 0.14995 0.0
C1763 C 0.17181 0.86297 0.1348 0.0
C1764 C 0.18947 0.88049 0.14026 0.0
C1765 C 0.19402 0.88892 0.16077 0.0
C1766 C 0.18122 0.8794 0.17603 0.0
C1767 C 0.16351 0.86178 0.17063 0.0
C1768 C 0.14105 0.8343 0.14429 0.0
C1769 C 0.12661 0.8326 0.12992 0.0
C1770 C 0.11177 0.81415 0.12182 0.0
C1771 C 0.11098 0.79713 0.12829 0.0
C1772 C 0.12481 0.79887 0.14356 0.0
C1773 C 0.13982 0.81732 0.15138 0.0
C1774 C 0.16746 0.8539 0.1133 0.0
C1775 C 0.16228 0.86219 0.09753 0.0
C1776 C 0.15773 0.85343 0.07738 0.0
C1777 C 0.15827 0.83621 0.07268 0.0
C1778 C 0.1636 0.82804 0.08856 0.0
C1779 C 0.16821 0.83685 0.10869 0.0
C1780 C 0.20404 0.88887 0.12493 0.0
C1781 C 0.20569 0.90414 0.11367 0.0
C1782 C 0.2195 0.91182 0.09919 0.0
C1783 C 0.23212 0.90455 0.09602 0.0
C1784 C 0.23025 0.88915 0.10743 0.0
C1785 C 0.21622 0.88128 0.12158 0.0
C1786 C 0.21236 0.90766 0.16639 0.0
C1787 C 0.21195 0.92494 0.17057 0.0
C1788 C 0.22914 0.94262 0.17609 0.0
C1789 C 0.24705 0.94328 0.17755 0.0
C1790 C 0.24735 0.92586 0.17343 0.0
C1791 C 0.23014 0.9082 0.16795 0.0
C1792 C 0.18744 0.88676 0.19799 0.0
C1793 C 0.17875 0.89549 0.20909 0.0
C1794 C 0.18475 0.9021 0.2299 0.0
C1795 C 0.19935 0.89981 0.23986 0.0
C1796 C 0.20795 0.89104 0.22859 0.0
C1797 C 0.20207 0.8846 0.20787 0.0
C1798 C 0.15042 0.85129 0.18678 0.0
C1799 C 0.13212 0.84958 0.18704 0.0
C1800 C 0.11962 0.83914 0.20191 0.0
C1801 C 0.12527 0.83033 0.21677 0.0
C1802 C 0.14367 0.83219 0.21645 0.0
C1803 C 0.15608 0.8425 0.20155 0.0
C1804 C 0.15324 0.82684 0.05129 0.0
C1805 C 0.26535 0.96201 0.1834 0.0
H1806 H 0.30595 0.18451 0.03153 0.0
H1807 H 0.31621 0.03765 0.88437 0.0
H1808 H 0.27764 0.16962 0.92361 0.0
H1809 H 0.28523 0.20304 0.93398 0.0
H1810 H 0.33863 0.22601 0.90392 0.0
H1811 H 0.33087 0.19269 0.89359 0.0
H1812 H 0.27955 0.13738 0.95237 0.0
H1813 H 0.28543 0.15294 0.98739 0.0
H1814 H 0.34189 0.19861 0.97276 0.0
H1815 H 0.33592 0.18277 0.93789 0.0
H1816 H 0.28041 0.09794 0.93594 0.0
H1817 H 0.29171 0.08148 0.9588 0.0
H1818 H 0.35018 0.13067 0.95993 0.0
H1819 H 0.33871 0.147 0.93738 0.0
H1820 H 0.26852 0.0866 0.8866 0.0
H1821 H 0.26821 0.0557 0.88076 0.0
H1822 H 0.33036 0.08644 0.89475 0.0
H1823 H 0.33048 0.11725 0.90024 0.0
H1824 H 0.26525 0.11107 0.85327 0.0
H1825 H 0.26416 0.09566 0.81906 0.0
H1826 H 0.32598 0.11897 0.8274 0.0
H1827 H 0.32689 0.13407 0.86131 0.0
H1828 H 0.26893 0.15785 0.87394 0.0
H1829 H 0.26734 0.17639 0.84553 0.0
H1830 H 0.32144 0.18392 0.82631 0.0
H1831 H 0.32328 0.16605 0.85497 0.0
O1832 O 0.30397 0.17855 0.01765 0.0
O1833 O 0.33282 0.20174 0.0093 0.0
O1834 O 0.28403 0.0346 0.87905 0.0
O1835 O 0.31592 0.04968 0.88646 0.0
C1836 C 0.3008 0.15884 0.90436 0.0
C1837 C 0.30341 0.14964 0.92127 0.0
C1838 C 0.303 0.13174 0.91789 0.0
C1839 C 0.29954 0.12276 0.89767 0.0
C1840 C 0.29703 0.13197 0.88079 0.0
C1841 C 0.29761 0.15001 0.88408 0.0
C1842 C 0.3037 0.17878 0.90785 0.0
C1843 C 0.29076 0.18192 0.91895 0.0
C1844 C 0.29519 0.20097 0.92495 0.0
C1845 C 0.3126 0.21715 0.91988 0.0
C1846 C 0.32501 0.21389 0.90785 0.0
C1847 C 0.32061 0.19487 0.90193 0.0
C1848 C 0.30723 0.15905 0.94257 0.0
C1849 C 0.29319 0.15072 0.9568 0.0
C1850 C 0.29658 0.15966 0.97677 0.0
C1851 C 0.3141 0.17706 0.98285 0.0
C1852 C 0.32822 0.18526 0.96856 0.0
C1853 C 0.32482 0.17628 0.94862 0.0
C1854 C 0.30876 0.1236 0.935 0.0
C1855 C 0.29554 0.10534 0.94163 0.0
C1856 C 0.30206 0.09594 0.95454 0.0
C1857 C 0.32189 0.10468 0.96097 0.0
C1858 C 0.33481 0.12361 0.95544 0.0
C1859 C 0.32828 0.13297 0.94255 0.0
C1860 C 0.29949 0.10409 0.89399 0.0
C1861 C 0.28204 0.08661 0.88835 0.0
C1862 C 0.28191 0.06899 0.88505 0.0
C1863 C 0.29927 0.06859 0.88736 0.0
C1864 C 0.31674 0.08621 0.89289 0.0
C1865 C 0.31685 0.10382 0.8961 0.0
C1866 C 0.29616 0.12372 0.85962 0.0
C1867 C 0.27853 0.11295 0.84753 0.0
C1868 C 0.27792 0.10413 0.82814 0.0
C1869 C 0.29501 0.10625 0.82058 0.0
C1870 C 0.31265 0.11734 0.83269 0.0
C1871 C 0.31319 0.12589 0.85206 0.0
C1872 C 0.29603 0.16027 0.86628 0.0
C1873 C 0.28035 0.16341 0.86349 0.0
C1874 C 0.27948 0.17401 0.84735 0.0
C1875 C 0.29416 0.18137 0.83363 0.0
C1876 C 0.30974 0.17806 0.83641 0.0
C1877 C 0.31077 0.16779 0.85271 0.0
C1878 C 0.3176 0.18658 0.00404 0.0
C1879 C 0.2992 0.0499 0.88402 0.0
H1880 H 0.84024 0.17661 0.04184 0.0
H1881 H 0.72553 0.01471 0.87382 0.0
H1882 H 0.84373 0.18125 0.93117 0.0
H1883 H 0.86986 0.21379 0.94383 0.0
H1884 H 0.91181 0.19623 0.93144 0.0
H1885 H 0.88525 0.16318 0.91969 0.0
H1886 H 0.81453 0.15343 0.95441 0.0
H1887 H 0.82102 0.16451 0.9911 0.0
H1888 H 0.86688 0.15079 0.99513 0.0
H1889 H 0.86006 0.13953 0.95845 0.0
H1890 H 0.78174 0.12142 0.92343 0.0
H1891 H 0.75691 0.10835 0.94795 0.0
H1892 H 0.78987 0.08788 0.98204 0.0
H1893 H 0.81449 0.10059 0.95691 0.0
H1894 H 0.78173 0.11202 0.87912 0.0
H1895 H 0.7516 0.08224 0.86636 0.0
H1896 H 0.77066 0.04756 0.89817 0.0
H1897 H 0.80086 0.07746 0.91061 0.0
H1898 H 0.81914 0.14609 0.86056 0.0
H1899 H 0.8065 0.13525 0.82478 0.0
H1900 H 0.80649 0.08129 0.83176 0.0
H1901 H 0.82052 0.09299 0.8673 0.0
H1902 H 0.85 0.17889 0.88508 0.0
H1903 H 0.87324 0.19957 0.86145 0.0
H1904 H 0.89001 0.1561 0.85065 0.0
H1905 H 0.86654 0.13539 0.87444 0.0
O1906 O 0.83787 0.17209 0.02736 0.0
O1907 O 0.86135 0.16487 0.02859 0.0
O1908 O 0.72822 0.04521 0.86253 0.0
O1909 O 0.73732 0.02672 0.87866 0.0
C1910 C 0.84626 0.15 0.91754 0.0
C1911 C 0.83279 0.13872 0.93155 0.0
C1912 C 0.81545 0.12145 0.92426 0.0
C1913 C 0.81199 0.11493 0.90311 0.0
C1914 C 0.82572 0.12596 0.88909 0.0
C1915 C 0.84286 0.14352 0.89636 0.0
C1916 C 0.86259 0.1698 0.92478 0.0
C1917 C 0.85856 0.18438 0.93136 0.0
C1918 C 0.87355 0.20307 0.93832 0.0
C1919 C 0.89298 0.2077 0.93856 0.0
C1920 C 0.89701 0.19309 0.93167 0.0
C1921 C 0.8819 0.17426 0.92486 0.0
C1922 C 0.83668 0.14546 0.95385 0.0
C1923 C 0.82585 0.15267 0.96329 0.0
C1924 C 0.82965 0.15907 0.98423 0.0
C1925 C 0.84444 0.15849 0.99607 0.0
C1926 C 0.85536 0.15139 0.98648 0.0
C1927 C 0.8515 0.14495 0.96555 0.0
C1928 C 0.7998 0.1118 0.93832 0.0
C1929 C 0.78343 0.11382 0.93599 0.0
C1930 C 0.76943 0.10661 0.95019 0.0
C1931 C 0.77156 0.09731 0.96708 0.0
C1932 C 0.7878 0.09491 0.96914 0.0
C1933 C 0.80184 0.10213 0.95485 0.0
C1934 C 0.79355 0.09687 0.89561 0.0
C1935 C 0.77941 0.09797 0.88321 0.0
C1936 C 0.76219 0.08094 0.876 0.0
C1937 C 0.75874 0.0625 0.88121 0.0
C1938 C 0.77287 0.0615 0.89383 0.0
C1939 C 0.79011 0.07855 0.90098 0.0
C1940 C 0.82083 0.12038 0.86657 0.0
C1941 C 0.81707 0.13224 0.85418 0.0
C1942 C 0.80951 0.12584 0.83379 0.0
C1943 C 0.80509 0.10721 0.82546 0.0
C1944 C 0.80981 0.09576 0.83759 0.0
C1945 C 0.81773 0.10236 0.85795 0.0
C1946 C 0.85676 0.15576 0.88164 0.0
C1947 C 0.8588 0.17391 0.87775 0.0
C1948 C 0.87214 0.18572 0.86431 0.0
C1949 C 0.88363 0.17956 0.85439 0.0
C1950 C 0.88133 0.1612 0.85805 0.0
C1951 C 0.868 0.1494 0.87162 0.0
C1952 C 0.84846 0.16532 0.01831 0.0
C1953 C 0.74049 0.04435 0.87354 0.0
H1954 H 0.85131 0.67797 0.05469 0.0
H1955 H 0.7197 0.67546 0.86954 0.0
H1956 H 0.87972 0.71274 0.95206 0.0
H1957 H 0.90292 0.70553 0.96927 0.0
H1958 H 0.87404 0.64814 0.93613 0.0
H1959 H 0.85032 0.65509 0.92013 0.0
H1960 H 0.84494 0.70873 0.97679 0.0
H1961 H 0.84925 0.70132 0.012 0.0
H1962 H 0.8309 0.64181 0.98957 0.0
H1963 H 0.82648 0.6494 0.95449 0.0
H1964 H 0.80963 0.70761 0.96273 0.0
H1965 H 0.78272 0.69636 0.98503 0.0
H1966 H 0.76139 0.63659 0.96102 0.0
H1967 H 0.78797 0.64809 0.93847 0.0
H1968 H 0.80526 0.71759 0.92461 0.0
H1969 H 0.77607 0.71814 0.91291 0.0
H1970 H 0.75429 0.66215 0.87829 0.0
H1971 H 0.78346 0.66172 0.89029 0.0
H1972 H 0.82844 0.72427 0.88637 0.0
H1973 H 0.81788 0.72693 0.85133 0.0
H1974 H 0.80966 0.67013 0.83233 0.0
H1975 H 0.81948 0.66725 0.86741 0.0
H1976 H 0.87345 0.72536 0.89469 0.0
H1977 H 0.89556 0.72918 0.86798 0.0
H1978 H 0.86895 0.66624 0.85918 0.0
H1979 H 0.84709 0.66265 0.8857 0.0
O1980 O 0.8494 0.68055 0.04067 0.0
O1981 O 0.83998 0.65016 0.02835 0.0
O1982 O 0.7431 0.70425 0.89272 0.0
O1983 O 0.73132 0.67556 0.87453 0.0
C1984 C 0.84718 0.68719 0.92781 0.0
C1985 C 0.83321 0.68433 0.94183 0.0
C1986 C 0.81665 0.68515 0.93539 0.0
C1987 C 0.81427 0.68951 0.91515 0.0
C1988 C 0.82834 0.69261 0.90112 0.0
C1989 C 0.84473 0.69129 0.90741 0.0
C1990 C 0.8636 0.68459 0.93452 0.0
C1991 C 0.87876 0.69882 0.94817 0.0
C1992 C 0.89198 0.69464 0.95798 0.0
C1993 C 0.89026 0.67617 0.95422 0.0
C1994 C 0.87561 0.66238 0.93967 0.0
C1995 C 0.86228 0.66648 0.93011 0.0
C1996 C 0.83549 0.67962 0.96316 0.0
C1997 C 0.84181 0.6941 0.97957 0.0
C1998 C 0.84429 0.68982 -0.00037 0.0
C1999 C 0.84047 0.67098 0.0036 0.0
C2000 C 0.83401 0.65648 0.98705 0.0
C2001 C 0.83149 0.66076 0.96701 0.0
C2002 C 0.80054 0.67865 0.94894 0.0
C2003 C 0.79905 0.69213 0.9623 0.0
C2004 C 0.78381 0.68564 0.97512 0.0
C2005 C 0.7699 0.66557 0.97477 0.0
C2006 C 0.77167 0.65215 0.96144 0.0
C2007 C 0.78685 0.65866 0.94862 0.0
C2008 C 0.79641 0.68962 0.9083 0.0
C2009 C 0.7941 0.70542 0.9146 0.0
C2010 C 0.77745 0.70571 0.90784 0.0
C2011 C 0.76285 0.69019 0.89463 0.0
C2012 C 0.76524 0.67434 0.88843 0.0
C2013 C 0.78187 0.67405 0.89525 0.0
C2014 C 0.82491 0.69565 0.87938 0.0
C2015 C 0.82468 0.71257 0.87453 0.0
C2016 C 0.81864 0.71406 0.85459 0.0
C2017 C 0.81307 0.69877 0.83916 0.0
C2018 C 0.81419 0.68226 0.84385 0.0
C2019 C 0.81987 0.68063 0.86385 0.0
C2020 C 0.859 0.69375 0.89242 0.0
C2021 C 0.87265 0.71246 0.88715 0.0
C2022 C 0.88513 0.7146 0.87183 0.0
C2023 C 0.8841 0.69801 0.86161 0.0
C2024 C 0.87042 0.67931 0.86708 0.0
C2025 C 0.85796 0.67722 0.88229 0.0
C2026 C 0.84324 0.66653 0.02491 0.0
C2027 C 0.7452 0.69049 0.88729 0.0
H2028 H 0.83351 0.68476 0.34867 0.0
H2029 H 0.93206 0.62968 0.5123 0.0
H2030 H 0.82343 0.68574 0.45905 0.0
H2031 H 0.79908 0.69219 0.44387 0.0
H2032 H 0.75495 0.6318 0.44851 0.0
H2033 H 0.77981 0.62533 0.46306 0.0
H2034 H 0.85409 0.68616 0.43622 0.0
H2035 H 0.85 0.69121 0.40004 0.0
H2036 H 0.80168 0.63181 0.39008 0.0
H2037 H 0.80609 0.62689 0.42625 0.0
H2038 H 0.88468 0.685 0.46812 0.0
H2039 H 0.9118 0.69465 0.44667 0.0
H2040 H 0.87749 0.64168 0.40664 0.0
H2041 H 0.85033 0.63187 0.42856 0.0
H2042 H 0.88136 0.67551 0.51095 0.0
H2043 H 0.90976 0.67412 0.52384 0.0
H2044 H 0.88888 0.61959 0.48661 0.0
H2045 H 0.86042 0.62104 0.47404 0.0
H2046 H 0.84332 0.67381 0.52875 0.0
H2047 H 0.85396 0.67505 0.56463 0.0
H2048 H 0.85203 0.61997 0.5521 0.0
H2049 H 0.83974 0.6181 0.51659 0.0
H2050 H 0.81234 0.67604 0.50194 0.0
H2051 H 0.79088 0.67485 0.52787 0.0
H2052 H 0.77731 0.61608 0.53894 0.0
H2053 H 0.79766 0.61691 0.51172 0.0
O2054 O 0.83491 0.68243 0.36291 0.0
O2055 O 0.81009 0.65182 0.35863 0.0
O2056 O 0.93103 0.65863 0.52637 0.0
O2057 O 0.92097 0.6306 0.50745 0.0
C2058 C 0.81887 0.65123 0.46935 0.0
C2059 C 0.83289 0.65301 0.45579 0.0
C2060 C 0.84933 0.65234 0.46326 0.0
C2061 C 0.85134 0.64896 0.48405 0.0
C2062 C 0.83717 0.64683 0.49759 0.0
C2063 C 0.82084 0.64789 0.49021 0.0
C2064 C 0.80339 0.65504 0.46196 0.0
C2065 C 0.80848 0.67392 0.45685 0.0
C2066 C 0.79449 0.67761 0.44836 0.0
C2067 C 0.77503 0.66251 0.44498 0.0
C2068 C 0.76985 0.64369 0.45069 0.0
C2069 C 0.78396 0.63998 0.45913 0.0
C2070 C 0.8305 0.6561 0.43379 0.0
C2071 C 0.84274 0.67422 0.42615 0.0
C2072 C 0.84032 0.67708 0.4055 0.0
C2073 C 0.82554 0.6619 0.39215 0.0
C2074 C 0.81323 0.6438 0.39993 0.0
C2075 C 0.81571 0.64094 0.42057 0.0
C2076 C 0.86564 0.65763 0.45005 0.0
C2077 C 0.88308 0.67534 0.45488 0.0
C2078 C 0.89852 0.68084 0.44261 0.0
C2079 C 0.89675 0.66885 0.42508 0.0
C2080 C 0.87917 0.65121 0.42004 0.0
C2081 C 0.86373 0.64557 0.43254 0.0
C2082 C 0.86875 0.64828 0.49172 0.0
C2083 C 0.8829 0.66323 0.50569 0.0
C2084 C 0.89913 0.66242 0.51298 0.0
C2085 C 0.90157 0.6467 0.50629 0.0
C2086 C 0.88744 0.63186 0.49211 0.0
C2087 C 0.87118 0.63266 0.48488 0.0
C2088 C 0.8408 0.64589 0.51999 0.0
C2089 C 0.84454 0.66168 0.53392 0.0
C2090 C 0.85097 0.66251 0.55438 0.0
C2091 C 0.85432 0.64784 0.56124 0.0
C2092 C 0.84953 0.63149 0.54749 0.0
C2093 C 0.84264 0.63045 0.52711 0.0
C2094 C 0.80644 0.64649 0.50473 0.0
C2095 C 0.80426 0.66268 0.5095 0.0
C2096 C 0.79224 0.66208 0.52465 0.0
C2097 C 0.78249 0.64545 0.53578 0.0
C2098 C 0.78434 0.62905 0.53058 0.0
C2099 C 0.7961 0.62953 0.51511 0.0
C2100 C 0.82298 0.665 0.37022 0.0
C2101 C 0.91876 0.64575 0.51402 0.0
H2102 H 0.33931 0.14725 0.36124 0.0
H2103 H 0.39297 0.3163 0.52552 0.0
H2104 H 0.33067 0.14568 0.47205 0.0
H2105 H 0.32229 0.11234 0.46168 0.0
H2106 H 0.3799 0.12606 0.48377 0.0
H2107 H 0.3886 0.16005 0.49239 0.0
H2108 H 0.33187 0.169 0.44594 0.0
H2109 H 0.32918 0.15785 0.40967 0.0
H2110 H 0.39069 0.17872 0.41355 0.0
H2111 H 0.39319 0.18999 0.44983 0.0
H2112 H 0.33091 0.19663 0.46268 0.0
H2113 H 0.32228 0.21568 0.4408 0.0
H2114 H 0.38297 0.25813 0.43819 0.0
H2115 H 0.39159 0.23838 0.45941 0.0
H2116 H 0.34113 0.21879 0.50972 0.0
H2117 H 0.34285 0.24989 0.51946 0.0
H2118 H 0.40406 0.2809 0.51021 0.0
H2119 H 0.4021 0.24967 0.50056 0.0
H2120 H 0.34337 0.18931 0.5406 0.0
H2121 H 0.34456 0.20446 0.57458 0.0
H2122 H 0.40523 0.24664 0.57062 0.0
H2123 H 0.40382 0.2313 0.53646 0.0
H2124 H 0.33719 0.15198 0.52186 0.0
H2125 H 0.33611 0.13148 0.54927 0.0
H2126 H 0.39843 0.16637 0.56036 0.0
H2127 H 0.39937 0.18688 0.53286 0.0
O2128 O 0.34072 0.15184 0.3756 0.0
O2129 O 0.37237 0.16273 0.37843 0.0
O2130 O 0.36037 0.28716 0.5263 0.0
O2131 O 0.39186 0.30379 0.5217 0.0
C2132 C 0.36524 0.17584 0.48804 0.0
C2133 C 0.36459 0.18733 0.47246 0.0
C2134 C 0.36651 0.20568 0.47787 0.0
C2135 C 0.37037 0.21317 0.4987 0.0
C2136 C 0.37166 0.20202 0.51425 0.0
C2137 C 0.36881 0.18323 0.50895 0.0
C2138 C 0.36035 0.15539 0.48254 0.0
C2139 C 0.34158 0.14156 0.4743 0.0
C2140 C 0.33672 0.12235 0.46876 0.0
C2141 C 0.35037 0.11633 0.47192 0.0
C2142 C 0.36909 0.13018 0.48073 0.0
C2143 C 0.37407 0.14958 0.48585 0.0
C2144 C 0.36277 0.18051 0.45043 0.0
C2145 C 0.34478 0.17135 0.43889 0.0
C2146 C 0.34327 0.16489 0.41818 0.0
C2147 C 0.35973 0.16744 0.40868 0.0
C2148 C 0.37773 0.17656 0.42038 0.0
C2149 C 0.37921 0.18302 0.44108 0.0
C2150 C 0.36186 0.21595 0.46227 0.0
C2151 C 0.34236 0.20961 0.4567 0.0
C2152 C 0.33746 0.22053 0.44431 0.0
C2153 C 0.35199 0.23825 0.43778 0.0
C2154 C 0.37156 0.24442 0.44299 0.0
C2155 C 0.37647 0.2332 0.45503 0.0
C2156 C 0.37148 0.23207 0.50443 0.0
C2157 C 0.35487 0.23234 0.5098 0.0
C2158 C 0.3559 0.25011 0.51536 0.0
C2159 C 0.37361 0.2679 0.51561 0.0
C2160 C 0.39021 0.26749 0.51017 0.0
C2161 C 0.38915 0.2497 0.50464 0.0
C2162 C 0.37351 0.20917 0.53615 0.0
C2163 C 0.35704 0.20147 0.54733 0.0
C2164 C 0.35777 0.21016 0.56675 0.0
C2165 C 0.37499 0.22681 0.57527 0.0
C2166 C 0.39172 0.23395 0.56437 0.0
C2167 C 0.39098 0.22516 0.54496 0.0
C2168 C 0.36835 0.17083 0.52541 0.0
C2169 C 0.35059 0.15515 0.5302 0.0
C2170 C 0.35 0.14356 0.54588 0.0
C2171 C 0.36719 0.1474 0.55693 0.0
C2172 C 0.385 0.16304 0.55197 0.0
C2173 C 0.38555 0.17477 0.53639 0.0
C2174 C 0.35807 0.16056 0.38668 0.0
C2175 C 0.3748 0.28681 0.52153 0.0
H2176 H 0.8061 0.1698 0.34728 0.0
H2177 H 0.963 0.29637 0.51496 0.0
H2178 H 0.79012 0.17283 0.45548 0.0
H2179 H 0.76266 0.14035 0.44355 0.0
H2180 H 0.79274 0.11357 0.4712 0.0
H2181 H 0.81973 0.1459 0.48329 0.0
H2182 H 0.82702 0.20838 0.43086 0.0
H2183 H 0.81759 0.19681 0.39439 0.0
H2184 H 0.82422 0.14701 0.40501 0.0
H2185 H 0.83385 0.15888 0.44137 0.0
H2186 H 0.86984 0.24535 0.45343 0.0
H2187 H 0.89699 0.26141 0.43163 0.0
H2188 H 0.89886 0.20799 0.42389 0.0
H2189 H 0.87218 0.19225 0.44601 0.0
H2190 H 0.86642 0.2514 0.50252 0.0
H2191 H 0.89765 0.28088 0.51306 0.0
H2192 H 0.92704 0.24933 0.49753 0.0
H2193 H 0.89572 0.21992 0.48729 0.0
H2194 H 0.83365 0.22226 0.52994 0.0
H2195 H 0.84499 0.23345 0.56641 0.0
H2196 H 0.88666 0.21434 0.56127 0.0
H2197 H 0.87512 0.20307 0.52515 0.0
H2198 H 0.79377 0.18179 0.5052 0.0
H2199 H 0.77241 0.16063 0.5302 0.0
H2200 H 0.81629 0.14707 0.54985 0.0
H2201 H 0.83719 0.1677 0.52448 0.0
O2202 O 0.80991 0.17414 0.36174 0.0
O2203 O 0.81343 0.14875 0.36804 0.0
O2204 O 0.93464 0.30044 0.51884 0.0
O2205 O 0.95045 0.28491 0.51095 0.0
C2206 C 0.82418 0.1811 0.47615 0.0
C2207 C 0.83658 0.19153 0.4609 0.0
C2208 C 0.8546 0.2086 0.46673 0.0
C2209 C 0.85982 0.21575 0.48771 0.0
C2210 C 0.84725 0.20549 0.50288 0.0
C2211 C 0.8295 0.18809 0.49713 0.0
C2212 C 0.8068 0.16164 0.47033 0.0
C2213 C 0.79057 0.15988 0.45915 0.0
C2214 C 0.775 0.14136 0.45226 0.0
C2215 C 0.7755 0.12435 0.45643 0.0
C2216 C 0.79168 0.12629 0.46804 0.0
C2217 C 0.80716 0.14475 0.47493 0.0
C2218 C 0.83092 0.18437 0.43878 0.0
C2219 C 0.82643 0.19498 0.42526 0.0
C2220 C 0.82103 0.18832 0.40445 0.0
C2221 C 0.82008 0.17094 0.39679 0.0
C2222 C 0.82473 0.16041 0.41041 0.0
C2223 C 0.83016 0.16711 0.4312 0.0
C2224 C 0.86903 0.21764 0.45126 0.0
C2225 C 0.87597 0.23708 0.44678 0.0
C2226 C 0.89146 0.24621 0.43443 0.0
C2227 C 0.9 0.23591 0.42614 0.0
C2228 C 0.8924 0.21618 0.42988 0.0
C2229 C 0.87714 0.20717 0.44246 0.0
C2230 C 0.87884 0.2336 0.49401 0.0
C2231 C 0.87963 0.25091 0.50143 0.0
C2232 C 0.89748 0.26771 0.50742 0.0
C2233 C 0.91486 0.26747 0.50608 0.0
C2234 C 0.91396 0.25004 0.49871 0.0
C2235 C 0.8961 0.23324 0.49279 0.0
C2236 C 0.85365 0.21196 0.52497 0.0
C2237 C 0.84516 0.22046 0.5368 0.0
C2238 C 0.85169 0.22689 0.55752 0.0
C2239 C 0.86665 0.22469 0.56668 0.0
C2240 C 0.87493 0.21598 0.55474 0.0
C2241 C 0.86848 0.20968 0.53409 0.0
C2242 C 0.81706 0.17637 0.51316 0.0
C2243 C 0.79876 0.17432 0.51503 0.0
C2244 C 0.78664 0.16231 0.52935 0.0
C2245 C 0.79264 0.15213 0.54195 0.0
C2246 C 0.81113 0.1545 0.54019 0.0
C2247 C 0.82319 0.16645 0.52588 0.0
C2248 C 0.81429 0.16388 0.37469 0.0
C2249 C 0.93386 0.2853 0.51236 0.0
H2250 H 0.00603 0.52381 0.36677 0.0
H2251 H 0.01039 0.38733 0.19855 0.0
H2252 H 0.96853 0.51114 0.26169 0.0
H2253 H 0.97354 0.54312 0.27437 0.0
H2254 H 0.02402 0.57177 0.23972 0.0
H2255 H 0.01915 0.53983 0.22747 0.0
H2256 H 0.97467 0.48 0.28614 0.0
H2257 H 0.98286 0.49396 0.32199 0.0
H2258 H 0.03697 0.54176 0.30482 0.0
H2259 H 0.02869 0.52752 0.26909 0.0
H2260 H 0.973 0.44228 0.26432 0.0
H2261 H 0.98371 0.4251 0.28678 0.0
H2262 H 0.04266 0.47344 0.28836 0.0
H2263 H 0.03184 0.49032 0.26558 0.0
H2264 H 0.96042 0.43244 0.21645 0.0
H2265 H 0.96088 0.40258 0.20613 0.0
H2266 H 0.02354 0.43501 0.21431 0.0
H2267 H 0.02285 0.4648 0.22437 0.0
H2268 H 0.95341 0.45559 0.18824 0.0
H2269 H 0.94939 0.43895 0.15397 0.0
H2270 H 0.01169 0.46789 0.15288 0.0
H2271 H 0.01548 0.48429 0.18691 0.0
H2272 H 0.95618 0.50043 0.20991 0.0
H2273 H 0.95244 0.52103 0.18534 0.0
H2274 H 0.00852 0.53707 0.16409 0.0
H2275 H 0.01223 0.51676 0.18882 0.0
O2276 O 0.00311 0.5185 0.35252 0.0
O2277 O 0.0307 0.54281 0.34286 0.0
O2278 O 0.97757 0.38293 0.19849 0.0
O2279 O 0.00978 0.39891 0.20258 0.0
C2280 C 0.99185 0.50406 0.23794 0.0
C2281 C 0.99591 0.49433 0.25327 0.0
C2282 C 0.99568 0.47679 0.24779 0.0
C2283 C 0.99124 0.46886 0.22708 0.0
C2284 C 0.98737 0.47867 0.21176 0.0
C2285 C 0.98759 0.49623 0.21716 0.0
C2286 C 0.99342 0.52319 0.2436 0.0
C2287 C 0.98051 0.52433 0.25666 0.0
C2288 C 0.98343 0.54255 0.26393 0.0
C2289 C -0.00082 0.55988 0.25804 0.0
C2290 C 0.01164 0.55864 0.24431 0.0
C2291 C 0.00886 0.54044 0.23727 0.0
C2292 C 0.00103 0.50281 0.27503 0.0
C2293 C 0.9883 0.49346 0.29019 0.0
C2294 C 0.993 0.50148 0.31063 0.0
C2295 C 0.01055 0.51901 0.31627 0.0
C2296 C 0.02332 0.52828 0.301 0.0
C2297 C 0.01862 0.5202 0.28058 0.0
C2298 C 0.00167 0.46748 0.26336 0.0
C2299 C 0.98817 0.44924 0.26979 0.0
C2300 C 0.9943 0.43953 0.28268 0.0
C2301 C 0.01404 0.44793 0.28926 0.0
C2302 C 0.0274 0.46656 0.28336 0.0
C2303 C 0.02124 0.47626 0.27051 0.0
C2304 C 0.99159 0.45072 0.22119 0.0
C2305 C 0.97422 0.43304 0.21598 0.0
C2306 C 0.97453 0.41602 0.21012 0.0
C2307 C 0.99226 0.41641 0.20941 0.0
C2308 C 0.00964 0.43419 0.2147 0.0
C2309 C 0.0093 0.45121 0.2205 0.0
C2310 C 0.98473 0.47118 0.1899 0.0
C2311 C 0.96612 0.45863 0.18031 0.0
C2312 C 0.96387 0.44907 0.16087 0.0
C2313 C 0.98022 0.45214 0.15076 0.0
C2314 C 0.99882 0.46545 0.16011 0.0
C2315 C 0.00103 0.47481 0.17955 0.0
C2316 C 0.9844 0.50703 0.201 0.0
C2317 C 0.9675 0.50822 0.19974 0.0
C2318 C 0.96539 0.51993 0.18571 0.0
C2319 C 0.98025 0.53074 0.17292 0.0
C2320 C 0.99694 0.5291 0.17394 0.0
C2321 C 0.99899 0.51734 0.18786 0.0
C2322 C 0.01546 0.52755 0.33798 0.0
C2323 C 0.99268 0.39837 0.20316 0.0
H2324 H 0.49374 0.51938 0.36446 0.0
H2325 H 0.39563 0.34299 0.2084 0.0
H2326 H 0.50343 0.51744 0.25299 0.0
H2327 H 0.52897 0.55041 0.26594 0.0
H2328 H 0.57094 0.53138 0.26559 0.0
H2329 H 0.54512 0.49825 0.25279 0.0
H2330 H 0.47244 0.48898 0.27789 0.0
H2331 H 0.47689 0.50277 0.31348 0.0
H2332 H 0.52475 0.49292 0.32527 0.0
H2333 H 0.51999 0.47895 0.28968 0.0
H2334 H 0.44115 0.45184 0.24912 0.0
H2335 H 0.41596 0.4387 0.27325 0.0
H2336 H 0.45254 0.42657 0.3132 0.0
H2337 H 0.47747 0.43915 0.28846 0.0
H2338 H 0.44357 0.4402 0.206 0.0
H2339 H 0.41562 0.40813 0.19432 0.0
H2340 H 0.43868 0.3805 0.23277 0.0
H2341 H 0.4667 0.41266 0.24411 0.0
H2342 H 0.4783 0.47369 0.1863 0.0
H2343 H 0.46806 0.4594 0.15081 0.0
H2344 H 0.47801 0.41249 0.16556 0.0
H2345 H 0.48861 0.42717 0.20119 0.0
H2346 H 0.50629 0.50999 0.20997 0.0
H2347 H 0.5273 0.53013 0.1844 0.0
H2348 H 0.55204 0.49276 0.17955 0.0
H2349 H 0.53106 0.47278 0.20557 0.0
O2350 O 0.49221 0.51382 0.35046 0.0
O2351 O 0.51677 0.50854 0.35569 0.0
O2352 O 0.39536 0.37079 0.19319 0.0
O2353 O 0.40653 0.35587 0.21278 0.0
C2354 C 0.50661 0.48536 0.24553 0.0
C2355 C 0.49312 0.47448 0.25968 0.0
C2356 C 0.47679 0.45607 0.25307 0.0
C2357 C 0.47442 0.44815 0.23253 0.0
C2358 C 0.48805 0.45901 0.21836 0.0
C2359 C 0.50404 0.47773 0.22486 0.0
C2360 C 0.52248 0.50552 0.25207 0.0
C2361 C 0.51818 0.52045 0.2556 0.0
C2362 C 0.53278 0.53927 0.26286 0.0
C2363 C 0.55194 0.54345 0.26677 0.0
C2364 C 0.55626 0.52851 0.26287 0.0
C2365 C 0.54162 0.50967 0.25548 0.0
C2366 C 0.4958 0.48283 0.2813 0.0
C2367 C 0.48379 0.4897 0.28823 0.0
C2368 C 0.48641 0.49762 0.30855 0.0
C2369 C 0.50116 0.49892 0.32224 0.0
C2370 C 0.51324 0.49211 0.31515 0.0
C2371 C 0.51056 0.48414 0.29484 0.0
C2372 C 0.46105 0.44631 0.26699 0.0
C2373 C 0.44357 0.44601 0.26291 0.0
C2374 C 0.42933 0.43878 0.27686 0.0
C2375 C 0.43235 0.43182 0.29527 0.0
C2376 C 0.44974 0.43173 0.29911 0.0
C2377 C 0.46398 0.43891 0.28504 0.0
C2378 C 0.45724 0.42872 0.22574 0.0
C2379 C 0.44261 0.42719 0.21178 0.0
C2380 C 0.42663 0.40886 0.20519 0.0
C2381 C 0.42494 0.39173 0.21257 0.0
C2382 C 0.43955 0.39338 0.22674 0.0
C2383 C 0.45555 0.41172 0.23328 0.0
C2384 C 0.48435 0.45156 0.1963 0.0
C2385 C 0.47886 0.46067 0.18175 0.0
C2386 C 0.47299 0.45246 0.16147 0.0
C2387 C 0.47226 0.43483 0.1554 0.0
C2388 C 0.47835 0.42604 0.16985 0.0
C2389 C 0.48446 0.43441 0.19013 0.0
C2390 C 0.51725 0.49002 0.20967 0.0
C2391 C 0.51638 0.50627 0.20353 0.0
C2392 C 0.52826 0.51763 0.18881 0.0
C2393 C 0.54123 0.51294 0.1799 0.0
C2394 C 0.54227 0.49678 0.18627 0.0
C2395 C 0.53028 0.48534 0.20101 0.0
C2396 C 0.50391 0.50737 0.34381 0.0
C2397 C 0.40803 0.37222 0.20555 0.0
H2398 H 0.50072 0.97659 0.38044 0.0
H2399 H 0.37128 0.97448 0.20063 0.0
H2400 H 0.53055 0.01682 0.28443 0.0
H2401 H 0.55593 0.01251 0.3007 0.0
H2402 H 0.54113 0.96421 0.25553 0.0
H2403 H 0.51465 0.96766 0.24056 0.0
H2404 H 0.49335 0.00913 0.30426 0.0
H2405 H 0.49688 0.00042 0.33903 0.0
H2406 H 0.49143 0.9464 0.3132 0.0
H2407 H 0.48767 0.9552 0.27852 0.0
H2408 H 0.46161 0.01201 0.28254 0.0
H2409 H 0.43533 0.00237 0.30546 0.0
H2410 H 0.41922 0.94175 0.29359 0.0
H2411 H 0.44553 0.95154 0.27066 0.0
H2412 H 0.46391 0.0243 0.2383 0.0
H2413 H 0.43452 0.02407 0.22574 0.0
H2414 H 0.40453 0.9609 0.21574 0.0
H2415 H 0.4341 0.9614 0.22818 0.0
H2416 H 0.49414 0.03291 0.21338 0.0
H2417 H 0.48457 0.03909 0.17947 0.0
H2418 H 0.45644 0.97733 0.16039 0.0
H2419 H 0.46559 0.97123 0.19441 0.0
H2420 H 0.53573 0.0303 0.2322 0.0
H2421 H 0.55985 0.03623 0.20721 0.0
H2422 H 0.52198 0.97815 0.17751 0.0
H2423 H 0.49835 0.97229 0.20271 0.0
O2424 O 0.4992 0.97969 0.36656 0.0
O2425 O 0.49642 0.95217 0.35251 0.0
O2426 O 0.39918 0.00748 0.21111 0.0
O2427 O 0.38308 0.975 0.20576 0.0
C2428 C 0.50301 0.99286 0.25424 0.0
C2429 C 0.48823 0.98821 0.26782 0.0
C2430 C 0.47125 0.98826 0.26119 0.0
C2431 C 0.46906 0.99313 0.24116 0.0
C2432 C 0.48364 0.9975 0.22751 0.0
C2433 C 0.50056 0.99725 0.23395 0.0
C2434 C 0.5207 0.99253 0.26136 0.0
C2435 C 0.53295 0.00545 0.27794 0.0
C2436 C 0.54759 0.00302 0.28712 0.0
C2437 C 0.55058 0.98786 0.2796 0.0
C2438 C 0.539 0.97573 0.2621 0.0
C2439 C 0.52407 0.9779 0.25323 0.0
C2440 C 0.49026 0.98279 0.2889 0.0
C2441 C 0.49282 0.99538 0.30617 0.0
C2442 C 0.49489 0.99039 0.326 0.0
C2443 C 0.49446 0.97272 0.3289 0.0
C2444 C 0.49184 0.96013 0.31151 0.0
C2445 C 0.48972 0.96511 0.29169 0.0
C2446 C 0.45538 0.98245 0.27501 0.0
C2447 C 0.45239 0.99667 0.28495 0.0
C2448 C 0.43751 0.99116 0.2981 0.0
C2449 C 0.42531 0.97132 0.30134 0.0
C2450 C 0.42834 0.95711 0.29127 0.0
C2451 C 0.44334 0.96266 0.27826 0.0
C2452 C 0.45107 0.99288 0.2341 0.0
C2453 C 0.45096 0.01045 0.23339 0.0
C2454 C 0.43416 0.01027 0.22622 0.0
C2455 C 0.41717 0.99245 0.21971 0.0
C2456 C 0.41735 0.97486 0.22061 0.0
C2457 C 0.43418 0.97509 0.22775 0.0
C2458 C 0.48063 0.00166 0.2062 0.0
C2459 C 0.48624 0.02081 0.2017 0.0
C2460 C 0.48073 0.02429 0.18245 0.0
C2461 C 0.46984 0.00868 0.16738 0.0
C2462 C 0.46505 0.98963 0.17166 0.0
C2463 C 0.47025 0.98613 0.19102 0.0
C2464 C 0.51532 0.00091 0.21917 0.0
C2465 C 0.53276 0.0189 0.22031 0.0
C2466 C 0.54642 0.02227 0.20599 0.0
C2467 C 0.54284 0.00763 0.19043 0.0
C2468 C 0.52532 0.98962 0.18947 0.0
C2469 C 0.51172 0.9863 0.20372 0.0
C2470 C 0.49674 0.96751 0.34998 0.0
C2471 C 0.39932 0.99218 0.21196 0.0
H2472 H 0.50599 0.04129 0.6895 0.0
H2473 H 0.60784 0.97771 0.84083 0.0
H2474 H 0.49663 0.03533 0.79898 0.0
H2475 H 0.47121 0.04021 0.78367 0.0
H2476 H 0.42963 0.9787 0.78662 0.0
H2477 H 0.45553 0.97387 0.80124 0.0
H2478 H 0.5288 0.03743 0.77485 0.0
H2479 H 0.52389 0.04462 0.73976 0.0
H2480 H 0.47467 0.98591 0.72783 0.0
H2481 H 0.4799 0.97885 0.7629 0.0
H2482 H 0.56063 0.03318 0.80128 0.0
H2483 H 0.58537 0.0409 0.77704 0.0
H2484 H 0.54538 0.98857 0.73832 0.0
H2485 H 0.52103 0.98047 0.76334 0.0
H2486 H 0.55754 0.02386 0.84569 0.0
H2487 H 0.58617 0.02204 0.8566 0.0
H2488 H 0.56408 0.96839 0.81737 0.0
H2489 H 0.53539 0.97027 0.80679 0.0
H2490 H 0.52055 0.02094 0.86692 0.0
H2491 H 0.53176 0.01976 0.9019 0.0
H2492 H 0.52777 0.96453 0.88384 0.0
H2493 H 0.51517 0.9652 0.84925 0.0
H2494 H 0.48966 0.02499 0.8431 0.0
H2495 H 0.46785 0.02223 0.86945 0.0
H2496 H 0.45126 0.96157 0.87352 0.0
H2497 H 0.47266 0.96433 0.84651 0.0
O2498 O 0.50774 0.03809 0.70328 0.0
O2499 O 0.48249 0.00779 0.69796 0.0
O2500 O 0.60734 0.00637 0.85676 0.0
O2501 O 0.59667 0.9788 0.83677 0.0
C2502 C 0.49412 0.00106 0.8072 0.0
C2503 C 0.50763 0.00332 0.79277 0.0
C2504 C 0.52405 0.00201 0.79881 0.0
C2505 C 0.5268 0.99808 0.8192 0.0
C2506 C 0.51312 0.99552 0.83361 0.0
C2507 C 0.4967 0.99692 0.82755 0.0
C2508 C 0.47792 0.00423 0.80101 0.0
C2509 C 0.48197 0.02297 0.79654 0.0
C2510 C 0.46738 0.02574 0.78793 0.0
C2511 C 0.44838 0.00982 0.78379 0.0
C2512 C 0.44418 0.9912 0.7893 0.0
C2513 C 0.45887 0.98843 0.79782 0.0
C2514 C 0.50477 0.00759 0.77135 0.0
C2515 C 0.51706 0.02611 0.76458 0.0
C2516 C 0.51417 0.03019 0.74455 0.0
C2517 C 0.49889 0.01583 0.73098 0.0
C2518 C 0.48659 0.99729 0.73788 0.0
C2519 C 0.48953 0.99322 0.75789 0.0
C2520 C 0.5391 0.0062 0.78415 0.0
C2521 C 0.55731 0.02327 0.78769 0.0
C2522 C 0.57133 0.02779 0.77364 0.0
C2523 C 0.56733 0.01544 0.7556 0.0
C2524 C 0.54902 0.99829 0.75213 0.0
C2525 C 0.53506 0.99369 0.76634 0.0
C2526 C 0.54435 0.99713 0.82556 0.0
C2527 C 0.55888 0.01169 0.83955 0.0
C2528 C 0.57524 0.01063 0.84571 0.0
C2529 C 0.5774 0.99504 0.83788 0.0
C2530 C 0.56286 0.98058 0.82372 0.0
C2531 C 0.54648 0.98162 0.81762 0.0
C2532 C 0.5171 0.99319 0.85549 0.0
C2533 C 0.5215 0.00828 0.87069 0.0
C2534 C 0.52821 0.00771 0.89062 0.0
C2535 C 0.53107 0.99224 0.89566 0.0
C2536 C 0.52564 0.97661 0.88063 0.0
C2537 C 0.51857 0.97702 0.86078 0.0
C2538 C 0.48266 0.99484 0.84281 0.0
C2539 C 0.48107 0.01102 0.84943 0.0
C2540 C 0.46877 0.00946 0.86466 0.0
C2541 C 0.45791 0.99171 0.87371 0.0
C2542 C 0.45927 0.97539 0.86674 0.0
C2543 C 0.47155 0.97696 0.85142 0.0
C2544 C 0.49581 0.02025 0.70974 0.0
C2545 C 0.59473 0.99382 0.84442 0.0
H2546 H 0.95322 0.46363 0.70667 0.0
H2547 H 0.02937 0.63368 0.86927 0.0
H2548 H 0.97403 0.46376 0.81641 0.0
H2549 H 0.96803 0.43169 0.80314 0.0
H2550 H 0.02981 0.45418 0.80598 0.0
H2551 H 0.03567 0.48648 0.81892 0.0
H2552 H 0.96714 0.49206 0.79381 0.0
H2553 H 0.95576 0.47888 0.75798 0.0
H2554 H 0.01351 0.4916 0.74602 0.0
H2555 H 0.02473 0.50492 0.78185 0.0
H2556 H 0.97219 0.52669 0.8237 0.0
H2557 H 0.96078 0.54496 0.80412 0.0
H2558 H 0.00853 0.56283 0.76566 0.0
H2559 H 0.02015 0.54471 0.78567 0.0
H2560 H 0.98825 0.5365 0.86694 0.0
H2561 H 0.9899 0.56674 0.88021 0.0
H2562 H 0.03781 0.59989 0.84328 0.0
H2563 H 0.03623 0.56955 0.83043 0.0
H2564 H 0.99571 0.50537 0.88587 0.0
H2565 H 0.99876 0.52144 0.91983 0.0
H2566 H 0.05132 0.57236 0.90445 0.0
H2567 H 0.04874 0.55566 0.87092 0.0
H2568 H 0.98851 0.47011 0.86068 0.0
H2569 H 0.99407 0.45032 0.88448 0.0
H2570 H 0.0556 0.49221 0.88879 0.0
H2571 H 0.04977 0.51213 0.86504 0.0
O2572 O 0.95805 0.46899 0.72076 0.0
O2573 O 0.98798 0.47578 0.71542 0.0
O2574 O 0.00397 0.6038 0.88324 0.0
O2575 O 0.02841 0.62149 0.86429 0.0
C2576 C 0.00858 0.49693 0.82571 0.0
C2577 C 0.00366 0.5074 0.81216 0.0
C2578 C 0.00472 0.52495 0.81953 0.0
C2579 C 0.01151 0.5325 0.84019 0.0
C2580 C 0.01682 0.52222 0.8537 0.0
C2581 C 0.01509 0.50427 0.84651 0.0
C2582 C 0.00527 0.47741 0.81846 0.0
C2583 C 0.98626 0.46174 0.81416 0.0
C2584 C 0.98287 0.44341 0.80676 0.0
C2585 C 0.99846 0.44042 0.80355 0.0
C2586 C 0.01753 0.45613 0.80812 0.0
C2587 C 0.02091 0.4745 0.81559 0.0
C2588 C 0.99679 0.49958 0.79035 0.0
C2589 C 0.97734 0.49212 0.78337 0.0
C2590 C 0.97087 0.48454 0.76292 0.0
C2591 C 0.98373 0.48421 0.74912 0.0
C2592 C 0.00322 0.49166 0.75623 0.0
C2593 C 0.00968 0.49927 0.77667 0.0
C2594 C 0.99713 0.53464 0.80627 0.0
C2595 C 0.98016 0.53451 0.81101 0.0
C2596 C 0.97367 0.5449 0.79984 0.0
C2597 C 0.98388 0.55539 0.78353 0.0
C2598 C 0.00039 0.55478 0.77814 0.0
C2599 C 0.00704 0.54453 0.78953 0.0
C2600 C 0.01226 0.55087 0.84789 0.0
C2601 C -0.00083 0.55032 0.86184 0.0
C2602 C 0.0001 0.56761 0.86933 0.0
C2603 C 0.01402 0.58575 0.86283 0.0
C2604 C 0.02695 0.58618 0.84864 0.0
C2605 C 0.02606 0.56889 0.84124 0.0
C2606 C 0.02192 0.5294 0.87585 0.0
C2607 C 0.0084 0.51959 0.89019 0.0
C2608 C 0.00999 0.52896 0.90948 0.0
C2609 C 0.02498 0.5484 0.91462 0.0
C2610 C 0.03961 0.5574 0.90102 0.0
C2611 C 0.03815 0.54789 0.88182 0.0
C2612 C 0.01875 0.49245 0.86103 0.0
C2613 C 0.0032 0.47493 0.86666 0.0
C2614 C 0.00644 0.4636 0.88018 0.0
C2615 C 0.02531 0.46958 0.88839 0.0
C2616 C 0.04088 0.48726 0.88283 0.0
C2617 C 0.03761 0.49861 0.86925 0.0
C2618 C 0.9768 0.4761 0.72741 0.0
C2619 C 0.0151 0.60417 0.87078 0.0
H2620 H 0.47837 0.48575 0.68655 0.0
H2621 H 0.62941 0.63192 0.84883 0.0
H2622 H 0.45982 0.50211 0.78979 0.0
H2623 H 0.43357 0.469 0.77803 0.0
H2624 H 0.45999 0.44485 0.81703 0.0
H2625 H 0.48646 0.47791 0.82808 0.0
H2626 H 0.49566 0.53334 0.76456 0.0
H2627 H 0.48763 0.51762 0.72943 0.0
H2628 H 0.49614 0.47149 0.75072 0.0
H2629 H 0.50436 0.48749 0.78572 0.0
H2630 H 0.53441 0.57261 0.78518 0.0
H2631 H 0.56101 0.58799 0.76271 0.0
H2632 H 0.57029 0.53896 0.76598 0.0
H2633 H 0.54364 0.5237 0.78827 0.0
H2634 H 0.53288 0.58427 0.83316 0.0
H2635 H 0.56359 0.61487 0.84198 0.0
H2636 H 0.59448 0.58341 0.83584 0.0
H2637 H 0.56366 0.55291 0.82729 0.0
H2638 H 0.50254 0.56035 0.86201 0.0
H2639 H 0.51351 0.57481 0.89784 0.0
H2640 H 0.55117 0.55058 0.90121 0.0
H2641 H 0.54055 0.53666 0.86548 0.0
H2642 H 0.4608 0.51483 0.83934 0.0
H2643 H 0.43927 0.49748 0.86621 0.0
H2644 H 0.48335 0.48764 0.89382 0.0
H2645 H 0.50444 0.50442 0.86677 0.0
O2646 O 0.48167 0.49177 0.70054 0.0
O2647 O 0.48615 0.46837 0.71229 0.0
O2648 O 0.60048 0.6355 0.84856 0.0
O2649 O 0.61705 0.62003 0.84545 0.0
C2650 C 0.49239 0.5121 0.8145 0.0
C2651 C 0.50515 0.52104 0.79899 0.0
C2652 C 0.52273 0.53884 0.80388 0.0
C2653 C 0.52741 0.54793 0.82415 0.0
C2654 C 0.51468 0.539 0.83962 0.0
C2655 C 0.49715 0.52109 0.83483 0.0
C2656 C 0.47501 0.49238 0.80976 0.0
C2657 C 0.45973 0.48964 0.79599 0.0
C2658 C 0.44474 0.47074 0.78938 0.0
C2659 C 0.44481 0.45431 0.79648 0.0
C2660 C 0.45969 0.4572 0.81104 0.0
C2661 C 0.47469 0.47607 0.81755 0.0
C2662 C 0.50045 0.51148 0.77768 0.0
C2663 C 0.49581 0.51986 0.76158 0.0
C2664 C 0.49121 0.51084 0.74154 0.0
C2665 C 0.49119 0.49326 0.73727 0.0
C2666 C 0.49597 0.48498 0.75348 0.0
C2667 C 0.50062 0.49405 0.77349 0.0
C2668 C 0.53715 0.54708 0.78832 0.0
C2669 C 0.54202 0.5651 0.78076 0.0
C2670 C 0.55725 0.57387 0.76804 0.0
C2671 C 0.56781 0.56472 0.76269 0.0
C2672 C 0.5623 0.54626 0.76962 0.0
C2673 C 0.54712 0.53754 0.78237 0.0
C2674 C 0.54609 0.56644 0.82949 0.0
C2675 C 0.54631 0.58404 0.83377 0.0
C2676 C 0.56386 0.60148 0.83877 0.0
C2677 C 0.58151 0.60159 0.83957 0.0
C2678 C 0.58118 0.58386 0.83533 0.0
C2679 C 0.56361 0.56643 0.83039 0.0
C2680 C 0.52076 0.54747 0.86127 0.0
C2681 C 0.51312 0.55819 0.87056 0.0
C2682 C 0.51938 0.56641 0.89091 0.0
C2683 C 0.53302 0.56361 0.90223 0.0
C2684 C 0.54045 0.55271 0.89287 0.0
C2685 C 0.53449 0.54486 0.87251 0.0
C2686 C 0.4843 0.51117 0.85134 0.0
C2687 C 0.46578 0.50898 0.85127 0.0
C2688 C 0.45354 0.49908 0.86655 0.0
C2689 C 0.45977 0.49145 0.8822 0.0
C2690 C 0.47835 0.49374 0.8822 0.0
C2691 C 0.49042 0.50335 0.8668 0.0
C2692 C 0.4862 0.48366 0.71599 0.0
C2693 C 0.6002 0.62009 0.84481 0.0
H2694 H 0.63626 0.8373 0.70262 0.0
H2695 H 0.65329 0.70491 0.54127 0.0
H2696 H 0.61397 0.83394 0.59561 0.0
H2697 H 0.62175 0.86701 0.60816 0.0
H2698 H 0.67483 0.89154 0.57746 0.0
H2699 H 0.66724 0.8586 0.56546 0.0
H2700 H 0.61336 0.7976 0.61953 0.0
H2701 H 0.6177 0.8098 0.65575 0.0
H2702 H 0.67457 0.85779 0.64576 0.0
H2703 H 0.67014 0.84529 0.60966 0.0
H2704 H 0.61522 0.75888 0.5976 0.0
H2705 H 0.626 0.74075 0.61859 0.0
H2706 H 0.68304 0.7922 0.62869 0.0
H2707 H 0.67243 0.80998 0.60721 0.0
H2708 H 0.60479 0.75276 0.54938 0.0
H2709 H 0.60497 0.72255 0.54017 0.0
H2710 H 0.6667 0.75269 0.5569 0.0
H2711 H 0.66635 0.78285 0.56575 0.0
H2712 H 0.60187 0.77902 0.52036 0.0
H2713 H 0.60086 0.76434 0.48581 0.0
H2714 H 0.66287 0.78861 0.49355 0.0
H2715 H 0.66369 0.80304 0.5278 0.0
H2716 H 0.60589 0.82526 0.54353 0.0
H2717 H 0.60626 0.84719 0.51806 0.0
H2718 H 0.66165 0.85683 0.50048 0.0
H2719 H 0.66152 0.8357 0.52648 0.0
O2720 O 0.63488 0.83269 0.68827 0.0
O2721 O 0.66397 0.85715 0.6823 0.0
O2722 O 0.62114 0.70194 0.53597 0.0
O2723 O 0.65281 0.71668 0.54468 0.0
C2724 C 0.6368 0.824 0.57416 0.0
C2725 C 0.63849 0.81318 0.58994 0.0
C2726 C 0.63806 0.79546 0.58479 0.0
C2727 C 0.63531 0.78822 0.56392 0.0
C2728 C 0.63345 0.79891 0.54819 0.0
C2729 C 0.63421 0.81681 0.55325 0.0
C2730 C 0.63998 0.84388 0.57952 0.0
C2731 C 0.62714 0.8465 0.59139 0.0
C2732 C 0.63162 0.86532 0.5986 0.0
C2733 C 0.64888 0.8818 0.59376 0.0
C2734 C 0.66131 0.87913 0.58119 0.0
C2735 C 0.65697 0.86034 0.57427 0.0
C2736 C 0.64135 0.82065 0.61194 0.0
C2737 C 0.62675 0.81072 0.62522 0.0
C2738 C 0.62926 0.81774 0.64588 0.0
C2739 C 0.64646 0.83482 0.65363 0.0
C2740 C 0.66113 0.84465 0.64028 0.0
C2741 C 0.65861 0.83758 0.61964 0.0
C2742 C 0.64305 0.78573 0.60085 0.0
C2743 C 0.62991 0.76633 0.60471 0.0
C2744 C 0.63608 0.75601 0.6166 0.0
C2745 C 0.65536 0.76511 0.62513 0.0
C2746 C 0.66807 0.78493 0.62244 0.0
C2747 C 0.662 0.79511 0.61026 0.0
C2748 C 0.63552 0.76993 0.55832 0.0
C2749 C 0.61833 0.7528 0.55098 0.0
C2750 C 0.61848 0.73557 0.54577 0.0
C2751 C 0.63586 0.7352 0.54785 0.0
C2752 C 0.65307 0.75246 0.55515 0.0
C2753 C 0.65291 0.76969 0.56026 0.0
C2754 C 0.63287 0.79218 0.52642 0.0
C2755 C 0.61523 0.78142 0.51434 0.0
C2756 C 0.61467 0.77296 0.49476 0.0
C2757 C 0.6318 0.77539 0.48699 0.0
C2758 C 0.64949 0.78673 0.49897 0.0
C2759 C 0.64999 0.79495 0.51853 0.0
C2760 C 0.63356 0.82871 0.53667 0.0
C2761 C 0.618 0.83202 0.53402 0.0
C2762 C 0.6182 0.84447 0.51943 0.0
C2763 C 0.63402 0.85383 0.5073 0.0
C2764 C 0.64938 0.8501 0.50977 0.0
C2765 C 0.6492 0.83777 0.52439 0.0
C2766 C 0.64904 0.84228 0.67557 0.0
C2767 C 0.63608 0.71691 0.54245 0.0
H2768 H 0.16602 0.84688 0.70775 0.0
H2769 H 0.05859 0.67801 0.54447 0.0
H2770 H 0.17181 0.84891 0.5942 0.0
H2771 H 0.1977 0.88196 0.6064 0.0
H2772 H 0.23941 0.86264 0.60481 0.0
H2773 H 0.21323 0.82943 0.59257 0.0
H2774 H 0.14243 0.82086 0.62036 0.0
H2775 H 0.14802 0.83312 0.65668 0.0
H2776 H 0.19384 0.81964 0.66452 0.0
H2777 H 0.18794 0.80724 0.6282 0.0
H2778 H 0.11052 0.78709 0.59124 0.0
H2779 H 0.08497 0.77276 0.61488 0.0
H2780 H 0.11806 0.7527 0.64936 0.0
H2781 H 0.14361 0.76699 0.62531 0.0
H2782 H 0.11081 0.7755 0.54666 0.0
H2783 H 0.08162 0.74459 0.53435 0.0
H2784 H 0.10298 0.71306 0.56869 0.0
H2785 H 0.13221 0.74407 0.58067 0.0
H2786 H 0.14628 0.80905 0.52729 0.0
H2787 H 0.13564 0.79673 0.49124 0.0
H2788 H 0.14189 0.74681 0.50195 0.0
H2789 H 0.15335 0.7597 0.53802 0.0
H2790 H 0.17421 0.84298 0.55094 0.0
H2791 H 0.19485 0.86327 0.52515 0.0
H2792 H 0.21908 0.82558 0.51856 0.0
H2793 H 0.19831 0.80529 0.54457 0.0
O2794 O 0.16401 0.8419 0.69344 0.0
O2795 O 0.18747 0.83474 0.69664 0.0
O2796 O 0.05974 0.70734 0.53161 0.0
O2797 O 0.07 0.69045 0.5491 0.0
C2798 C 0.1747 0.8169 0.58563 0.0
C2799 C 0.16134 0.80562 0.59969 0.0
C2800 C 0.14452 0.78778 0.59262 0.0
C2801 C 0.14153 0.78074 0.57167 0.0
C2802 C 0.15509 0.79191 0.5576 0.0
C2803 C 0.1716 0.81011 0.5646 0.0
C2804 C 0.19071 0.83687 0.59259 0.0
C2805 C 0.18655 0.85185 0.59644 0.0
C2806 C 0.20135 0.8707 0.60327 0.0
C2807 C 0.22056 0.87485 0.60647 0.0
C2808 C 0.2247 0.85978 0.60256 0.0
C2809 C 0.20985 0.8409 0.59553 0.0
C2810 C 0.16466 0.813 0.62175 0.0
C2811 C 0.15356 0.82044 0.63 0.0
C2812 C 0.15684 0.8275 0.65073 0.0
C2813 C 0.17136 0.82732 0.66352 0.0
C2814 C 0.18252 0.81995 0.65511 0.0
C2815 C 0.1792 0.81286 0.63439 0.0
C2816 C 0.12881 0.77795 0.60652 0.0
C2817 C 0.11216 0.77944 0.60379 0.0
C2818 C 0.09771 0.77145 0.61743 0.0
C2819 C 0.09963 0.76179 0.63407 0.0
C2820 C 0.11621 0.76002 0.63662 0.0
C2821 C 0.13077 0.76815 0.62296 0.0
C2822 C 0.12369 0.76199 0.56439 0.0
C2823 C 0.1092 0.76189 0.5514 0.0
C2824 C 0.09252 0.74422 0.54444 0.0
C2825 C 0.08999 0.72634 0.5505 0.0
C2826 C 0.10448 0.72655 0.5637 0.0
C2827 C 0.12118 0.74423 0.57059 0.0
C2828 C 0.15085 0.78542 0.53524 0.0
C2829 C 0.14605 0.79584 0.52172 0.0
C2830 C 0.1399 0.78875 0.50116 0.0
C2831 C 0.13802 0.77087 0.49384 0.0
C2832 C 0.14324 0.76064 0.50725 0.0
C2833 C 0.14979 0.76797 0.52778 0.0
C2834 C 0.18485 0.82275 0.54964 0.0
C2835 C 0.18412 0.83923 0.54408 0.0
C2836 C 0.19577 0.85068 0.52925 0.0
C2837 C 0.20847 0.84592 0.51981 0.0
C2838 C 0.20948 0.82962 0.52571 0.0
C2839 C 0.19764 0.81802 0.54045 0.0
C2840 C 0.17482 0.83486 0.68553 0.0
C2841 C 0.07231 0.70752 0.54313 0.0
H2842 H 0.19456 0.35353 0.7238 0.0
H2843 H 0.04884 0.33177 0.55325 0.0
H2844 H 0.21551 0.37531 0.62057 0.0
H2845 H 0.23908 0.36777 0.63619 0.0
H2846 H 0.2123 0.31296 0.5982 0.0
H2847 H 0.18828 0.3202 0.58351 0.0
H2848 H 0.17931 0.37452 0.64318 0.0
H2849 H 0.18648 0.37102 0.67909 0.0
H2850 H 0.1775 0.31359 0.66129 0.0
H2851 H 0.17009 0.31717 0.6255 0.0
H2852 H 0.1399 0.37177 0.62 0.0
H2853 H 0.11304 0.36239 0.64213 0.0
H2854 H 0.10573 0.30464 0.64336 0.0
H2855 H 0.13225 0.31396 0.62103 0.0
H2856 H 0.14508 0.38137 0.57253 0.0
H2857 H 0.11514 0.38085 0.56175 0.0
H2858 H 0.0823 0.31878 0.5693 0.0
H2859 H 0.11237 0.31948 0.57981 0.0
H2860 H 0.17653 0.38493 0.54617 0.0
H2861 H 0.16616 0.38616 0.51047 0.0
H2862 H 0.12587 0.32378 0.50667 0.0
H2863 H 0.13634 0.32273 0.54216 0.0
H2864 H 0.21413 0.38396 0.56698 0.0
H2865 H 0.23498 0.38572 0.53958 0.0
H2866 H 0.1939 0.32542 0.5186 0.0
H2867 H 0.1733 0.32381 0.54595 0.0
O2868 O 0.19157 0.35455 0.70952 0.0
O2869 O 0.18688 0.32515 0.69956 0.0
O2870 O 0.07847 0.36428 0.55364 0.0
O2871 O 0.06091 0.33239 0.55742 0.0
C2872 C 0.18336 0.3506 0.59504 0.0
C2873 C 0.17026 0.34856 0.60994 0.0
C2874 C 0.15298 0.34838 0.60404 0.0
C2875 C 0.1491 0.3509 0.58342 0.0
C2876 C 0.16223 0.35304 0.5686 0.0
C2877 C 0.17929 0.35278 0.57436 0.0
C2878 C 0.20019 0.34832 0.60091 0.0
C2879 C 0.21504 0.3619 0.61532 0.0
C2880 C 0.2285 0.35755 0.62419 0.0
C2881 C 0.2274 0.33962 0.61865 0.0
C2882 C 0.21331 0.32671 0.60312 0.0
C2883 C 0.19977 0.33097 0.59443 0.0
C2884 C 0.17435 0.34618 0.63174 0.0
C2885 C 0.17886 0.36118 0.64709 0.0
C2886 C 0.18298 0.35915 0.66758 0.0
C2887 C 0.18263 0.34205 0.67305 0.0
C2888 C 0.17795 0.32697 0.6576 0.0
C2889 C 0.17378 0.329 0.63714 0.0
C2890 C 0.13803 0.34356 0.61897 0.0
C2891 C 0.13258 0.35716 0.62521 0.0
C2892 C 0.11726 0.35178 0.63778 0.0
C2893 C 0.10735 0.33279 0.64445 0.0
C2894 C 0.11328 0.31944 0.63868 0.0
C2895 C 0.1284 0.32474 0.62594 0.0
C2896 C 0.13086 0.35049 0.57703 0.0
C2897 C 0.1314 0.36768 0.57181 0.0
C2898 C 0.11428 0.36734 0.56568 0.0
C2899 C 0.09631 0.34977 0.5647 0.0
C2900 C 0.09587 0.33256 0.56992 0.0
C2901 C 0.11301 0.33292 0.57598 0.0
C2902 C 0.15712 0.35376 0.54666 0.0
C2903 C 0.16562 0.37155 0.53748 0.0
C2904 C 0.15965 0.37222 0.51719 0.0
C2905 C 0.14524 0.35505 0.50579 0.0
C2906 C 0.13718 0.33719 0.51495 0.0
C2907 C 0.14304 0.33657 0.53523 0.0
C2908 C 0.19229 0.35375 0.5584 0.0
C2909 C 0.20976 0.37115 0.5565 0.0
C2910 C 0.22154 0.37215 0.54082 0.0
C2911 C 0.21606 0.35569 0.52701 0.0
C2912 C 0.1986 0.33826 0.52916 0.0
C2913 C 0.18679 0.33733 0.54468 0.0
C2914 C 0.18713 0.34 0.69481 0.0
C2915 C 0.07808 0.34933 0.55824 0.0
C2916 C 0.96599 0.40847 0.11288 0.0
C2917 C 0.97869 0.41719 0.09743 0.0
H2918 H 0.95644 0.41275 0.14183 0.0
C2919 C 0.99039 0.4377 0.09863 0.0
H2920 H 0.95666 0.39272 0.11226 0.0
C2921 C 0.99015 0.44916 0.11546 0.0
C2922 C 0.97819 0.44037 0.13142 0.0
H2923 H 0.00047 0.44488 0.08711 0.0
H2924 H -0.00019 0.46488 0.11632 0.0
C2925 C 0.96571 0.41996 0.12969 0.0
C2926 C 0.58458 0.54304 0.14944 0.0
C2927 C 0.57632 0.54895 0.13393 0.0
H2928 H 0.57991 0.52691 0.17615 0.0
C2929 C 0.55639 0.54237 0.13333 0.0
H2930 H 0.59987 0.54778 0.15021 0.0
C2931 C 0.54503 0.53043 0.14804 0.0
C2932 C 0.5533 0.52478 0.16374 0.0
H2933 H 0.54961 0.54685 0.12178 0.0
H2934 H 0.52973 0.52569 0.14718 0.0
C2935 C 0.57314 0.53098 0.16416 0.0
C2936 C 0.45413 0.00502 0.11093 0.0
C2937 C 0.4426 0.01372 0.11178 0.0
H2938 H 0.47181 0.99653 0.12807 0.0
C2939 C 0.44139 0.0221 0.13073 0.0
H2940 H 0.45516 0.99834 0.09649 0.0
C2941 C 0.45107 0.02129 0.14866 0.0
C2942 C 0.46188 0.0118 0.14799 0.0
H2943 H 0.43262 0.02892 0.13173 0.0
H2944 H 0.44941 0.02731 0.16321 0.0
C2945 C 0.46355 0.00391 0.12894 0.0
C2946 C 0.44154 0.00535 0.92224 0.0
C2947 C 0.42296 0.989 0.92333 0.0
H2948 H 0.46716 0.01883 0.90605 0.0
C2949 C 0.41604 0.97323 0.90819 0.0
H2950 H 0.44748 0.01754 0.93393 0.0
C2951 C 0.42736 0.974 0.89208 0.0
C2952 C 0.44582 0.99053 0.89085 0.0
H2953 H 0.40174 0.96049 0.90857 0.0
H2954 H 0.42151 0.96182 0.88039 0.0
C2955 C 0.45282 0.0061 0.90623 0.0
C2956 C 0.04281 0.45498 0.9357 0.0
C2957 C 0.03151 0.43442 0.9331 0.0
H2958 H 0.04962 0.48221 0.92376 0.0
C2959 C 0.01934 0.42558 0.91489 0.0
H2960 H 0.05252 0.46227 0.94942 0.0
C2961 C 0.01789 0.437 0.90007 0.0
C2962 C 0.02849 0.45755 0.90312 0.0
H2963 H 0.01028 0.40981 0.91242 0.0
H2964 H 0.00814 0.4297 0.88638 0.0
C2965 C 0.0413 0.46642 0.92089 0.0
C2966 C 0.55781 0.60154 0.94747 0.0
C2967 C 0.55874 0.59012 0.96282 0.0
H2968 H 0.54853 0.60191 0.91618 0.0
C2969 C 0.54948 0.56971 0.95865 0.0
H2970 H 0.5648 0.6173 0.95034 0.0
C2971 C 0.5404 0.561 0.93914 0.0
C2972 C 0.54017 0.5725 0.92355 0.0
H2973 H 0.55014 0.56059 0.97012 0.0
H2974 H 0.53404 0.54532 0.93603 0.0
C2975 C 0.54845 0.59276 0.92802 0.0
C2976 C 0.03917 0.58633 0.96006 0.0
C2977 C 0.02118 0.58456 0.96361 0.0
H2978 H 0.05453 0.57608 0.94196 0.0
C2979 C 0.00449 0.57009 0.95179 0.0
H2980 H 0.05229 0.59737 0.96889 0.0
C2981 C 0.00578 0.55809 0.93638 0.0
C2982 C 0.02377 0.56007 0.93245 0.0
H2983 H 0.99035 0.56807 0.95437 0.0
H2984 H 0.99267 0.54764 0.9271 0.0
C2985 C 0.04046 0.57422 0.94457 0.0
C2986 C 0.41637 0.45325 0.90729 0.0
C2987 C 0.42385 0.45627 0.92793 0.0
H2988 H 0.42194 0.46209 0.87658 0.0
C2989 C 0.44258 0.47216 0.93367 0.0
H2990 H 0.40208 0.44104 0.9023 0.0
C2991 C 0.45397 0.48404 0.91891 0.0
C2992 C 0.44683 0.48042 0.89814 0.0
H2993 H 0.44862 0.47517 0.94951 0.0
H2994 H 0.46854 0.49585 0.92367 0.0
C2995 C 0.42774 0.46527 0.89253 0.0
C2996 C 0.54706 0.97731 0.94398 0.0
C2997 C 0.56277 0.99533 0.95242 0.0
H2998 H 0.52443 0.96217 0.91974 0.0
C2999 C 0.56717 0.01235 0.94266 0.0
H3000 H 0.54332 0.96388 0.95101 0.0
C3001 C 0.55665 0.01132 0.92455 0.0
C3002 C 0.5412 0.99327 0.9158 0.0
H3003 H 0.5789 0.02655 0.94892 0.0
H3004 H 0.56106 0.02469 0.91712 0.0
C3005 C 0.53637 0.97629 0.9259 0.0
C3006 C 0.57881 0.03118 0.1501 0.0
C3007 C 0.58218 0.01602 0.14373 0.0
H3008 H 0.56373 0.04045 0.16987 0.0
C3009 C 0.57324 0.99852 0.15357 0.0
H3010 H 0.58561 0.0449 0.14295 0.0
C3011 C 0.5609 0.99605 0.16905 0.0
C3012 C 0.55713 0.01099 0.17506 0.0
H3013 H 0.57527 0.98642 0.14888 0.0
H3014 H 0.55415 0.98232 0.17618 0.0
C3015 C 0.56644 0.02871 0.16565 0.0
C3016 C 0.99384 0.57565 0.14424 0.0
C3017 C 0.97696 0.56962 0.13131 0.0
H3018 H 0.008 0.56814 0.16757 0.0
C3019 C 0.96082 0.55087 0.13267 0.0
H3020 H 0.00662 0.58989 0.14338 0.0
C3021 C 0.96168 0.53832 0.14648 0.0
C3022 C 0.97877 0.54422 0.159 0.0
H3023 H 0.94759 0.54587 0.12296 0.0
H3024 H 0.94917 0.52382 0.14699 0.0
C3025 C 0.99473 0.5631 0.15791 0.0
C3026 C 0.45714 0.42699 0.09826 0.0
C3027 C 0.44215 0.4073 0.09636 0.0
H3028 H 0.47864 0.45111 0.11845 0.0
C3029 C 0.43869 0.39621 0.1135 0.0
H3030 H 0.46008 0.43596 0.08539 0.0
C3031 C 0.44926 0.40491 0.13244 0.0
C3032 C 0.46345 0.42491 0.13464 0.0
H3033 H 0.42735 0.38095 0.11243 0.0
H3034 H 0.44559 0.39624 0.14561 0.0
C3035 C 0.46766 0.43572 0.11723 0.0
C3036 C 0.6469 0.76525 0.43586 0.0
C3037 C 0.63401 0.74503 0.43166 0.0
H3038 H 0.65607 0.79074 0.45645 0.0
C3039 C 0.61926 0.73522 0.44491 0.0
H3040 H 0.65857 0.77323 0.42612 0.0
C3041 C 0.61791 0.7453 0.46241 0.0
C3042 C 0.63138 0.76532 0.46704 0.0
H3043 H 0.609 0.71969 0.44198 0.0
H3044 H 0.60688 0.73723 0.47279 0.0
C3045 C 0.6456 0.77527 0.45334 0.0
C3046 C 0.25137 0.87644 0.48907 0.0
C3047 C 0.24272 0.88172 0.47334 0.0
H3048 H 0.24722 0.86078 0.51609 0.0
C3049 C 0.22271 0.87467 0.47272 0.0
H3050 H 0.26675 0.88157 0.48984 0.0
C3051 C 0.21162 0.8629 0.4877 0.0
C3052 C 0.22026 0.85778 0.50355 0.0
H3053 H 0.21568 0.87866 0.46091 0.0
H3054 H 0.19624 0.85779 0.4869 0.0
C3055 C 0.2402 0.86445 0.50397 0.0
C3056 C 0.12337 0.36914 0.46194 0.0
C3057 C 0.11897 0.35416 0.4465 0.0
H3058 H 0.13525 0.38122 0.49279 0.0
C3059 C 0.12482 0.3405 0.45011 0.0
H3060 H 0.11921 0.37998 0.45951 0.0
C3061 C 0.13405 0.34125 0.46911 0.0
C3062 C 0.13771 0.35573 0.48485 0.0
H3063 H 0.12152 0.3287 0.43858 0.0
H3064 H 0.13792 0.33021 0.47167 0.0
C3065 C 0.13271 0.36996 0.48091 0.0
C3066 C 0.09168 0.32119 0.24028 0.0
C3067 C 0.08782 0.30798 0.2555 0.0
H3068 H 0.10424 0.33125 0.21195 0.0
C3069 C 0.09379 0.29413 0.25303 0.0
H3070 H 0.08761 0.33228 0.24171 0.0
C3071 C 0.10391 0.29394 0.23616 0.0
C3072 C 0.10814 0.30747 0.22122 0.0
H3073 H 0.09084 0.28354 0.26425 0.0
H3074 H 0.1089 0.28355 0.23519 0.0
C3075 C 0.10155 0.32083 0.22331 0.0
C3076 C 0.71392 0.78229 0.2584 0.0
C3077 C 0.70099 0.77818 0.27385 0.0
H3078 H 0.72496 0.79747 0.23137 0.0
C3079 C 0.68942 0.78687 0.27403 0.0
H3080 H 0.72302 0.77582 0.25795 0.0
C3081 C 0.69045 0.79907 0.25886 0.0
C3082 C 0.70315 0.80298 0.24325 0.0
H3083 H 0.67914 0.78378 0.28558 0.0
H3084 H 0.6812 0.80539 0.25927 0.0
C3085 C 0.7151 0.79473 0.2433 0.0
C3086 C 0.2194 0.93314 0.28928 0.0
C3087 C 0.22372 0.92184 0.30209 0.0
H3088 H 0.20818 0.93498 0.2595 0.0
C3089 C 0.21819 0.9026 0.29488 0.0
H3090 H 0.22331 0.94796 0.29447 0.0
C3091 C 0.20947 0.89518 0.27498 0.0
C3092 C 0.20608 0.90682 0.26181 0.0
H3093 H 0.22146 0.89354 0.3042 0.0
H3094 H 0.20589 0.88049 0.26968 0.0
C3095 C 0.2106 0.92567 0.26934 0.0
C3096 C 0.71465 0.93443 0.28462 0.0
C3097 C 0.70921 0.92506 0.30299 0.0
H3098 H 0.72113 0.93252 0.25336 0.0
C3099 C 0.70821 0.90689 0.30422 0.0
H3100 H 0.71528 0.94823 0.28287 0.0
C3101 C 0.71121 0.89773 0.28707 0.0
C3102 C 0.7157 0.90674 0.26852 0.0
H3103 H 0.70452 0.89943 0.31823 0.0
H3104 H 0.70946 0.88333 0.2881 0.0
C3105 C 0.71799 0.92542 0.26763 0.0
C3106 C 0.10679 0.80775 0.2668 0.0
C3107 C 0.08735 0.79375 0.26068 0.0
H3108 H 0.13391 0.83044 0.25781 0.0
C3109 C 0.08013 0.79284 0.24034 0.0
H3110 H 0.11289 0.80872 0.28228 0.0
C3111 C 0.09226 0.80517 0.22624 0.0
C3112 C 0.11189 0.81863 0.23218 0.0
H3113 H 0.06517 0.78234 0.23521 0.0
H3114 H 0.08644 0.80366 0.2105 0.0
C3115 C 0.11891 0.82004 0.25271 0.0
C3116 C 0.20536 0.29705 0.28074 0.0
C3117 C 0.22407 0.31331 0.28543 0.0
H3118 H 0.18044 0.28257 0.25882 0.0
C3119 C 0.23176 0.32798 0.27165 0.0
H3120 H 0.19915 0.28552 0.29113 0.0
C3121 C 0.22112 0.32637 0.25343 0.0
C3122 C 0.20254 0.31002 0.2485 0.0
H3123 H 0.24605 0.34077 0.27497 0.0
H3124 H 0.22762 0.33779 0.24297 0.0
C3125 C 0.19474 0.29532 0.26229 0.0
C3126 C 0.24266 0.34142 0.48975 0.0
C3127 C 0.24985 0.35695 0.47693 0.0
H3128 H 0.22649 0.32896 0.51568 0.0
C3129 C 0.24645 0.37247 0.48116 0.0
H3130 H 0.24485 0.32914 0.48676 0.0
C3131 C 0.23588 0.37234 0.49774 0.0
C3132 C 0.22834 0.35658 0.51025 0.0
H3133 H 0.25193 0.38468 0.47161 0.0
H3134 H 0.23317 0.38431 0.50046 0.0
C3135 C 0.23199 0.34122 0.50618 0.0
C3136 C 0.6538 0.89824 0.47634 0.0
C3137 C 0.63742 0.89437 0.46361 0.0
H3138 H 0.66546 0.88878 0.50026 0.0
C3139 C 0.61967 0.87721 0.46572 0.0
H3140 H 0.66779 0.91112 0.47496 0.0
C3141 C 0.61844 0.86412 0.48005 0.0
C3142 C 0.63493 0.8679 0.49253 0.0
H3143 H 0.60675 0.87387 0.45627 0.0
H3144 H 0.60466 0.85085 0.48105 0.0
C3145 C 0.65255 0.88523 0.49066 0.0
C3146 C 0.12426 0.76618 0.43668 0.0
C3147 C 0.1076 0.74747 0.43424 0.0
H3148 H 0.14707 0.78832 0.45766 0.0
C3149 C 0.10221 0.73583 0.45101 0.0
H3150 H 0.12864 0.77548 0.42401 0.0
C3151 C 0.11282 0.74308 0.47013 0.0
C3152 C 0.12886 0.76219 0.47288 0.0
H3153 H 0.08945 0.72132 0.44946 0.0
H3154 H 0.10789 0.7341 0.48303 0.0
C3155 C 0.13472 0.77355 0.4559 0.0
C3156 C 0.3103 0.09703 0.76924 0.0
C3157 C 0.29771 0.07677 0.7649 0.0
H3158 H 0.31909 0.12224 0.79013 0.0
C3159 C 0.28301 0.06661 0.7781 0.0
H3160 H 0.32191 0.10526 0.75953 0.0
C3161 C 0.28145 0.07639 0.79573 0.0
C3162 C 0.29468 0.09644 0.80052 0.0
H3163 H 0.273 0.05103 0.77505 0.0
H3164 H 0.27048 0.0681 0.80608 0.0
C3165 C 0.30881 0.10674 0.78686 0.0
C3166 C 0.92018 0.22478 0.83022 0.0
C3167 C 0.92066 0.21695 0.8106 0.0
H3168 H 0.90841 0.21905 0.85959 0.0
C3169 C 0.91033 0.19652 0.80616 0.0
H3170 H 0.92829 0.24045 0.83419 0.0
C3171 C 0.89886 0.18424 0.82069 0.0
C3172 C 0.89755 0.19219 0.83991 0.0
H3173 H 0.91033 0.1901 0.7911 0.0
H3174 H 0.8903 0.16863 0.8165 0.0
C3175 C 0.90877 0.21254 0.84473 0.0
C3176 C 0.7997 0.69156 0.78166 0.0
C3177 C 0.78353 0.69406 0.78081 0.0
H3178 H 0.82181 0.69108 0.80101 0.0
C3179 C 0.77833 0.69989 0.79897 0.0
H3180 H 0.80391 0.68697 0.76785 0.0
C3181 C 0.78865 0.70245 0.81781 0.0
C3182 C 0.80419 0.69896 0.81885 0.0
H3183 H 0.76597 0.70201 0.79866 0.0
H3184 H 0.78388 0.70623 0.8317 0.0
C3185 C 0.80985 0.69382 0.80057 0.0
C3186 C 0.74438 0.62885 0.57493 0.0
C3187 C 0.7509 0.64625 0.58746 0.0
H3188 H 0.74878 0.61502 0.54833 0.0
C3189 C 0.76769 0.6633 0.5829 0.0
H3190 H 0.7314 0.61553 0.5781 0.0
C3191 C 0.77786 0.66298 0.5662 0.0
C3192 C 0.77132 0.64565 0.5534 0.0
H3193 H 0.77321 0.67683 0.59256 0.0
H3194 H 0.79108 0.67628 0.56362 0.0
C3195 C 0.7544 0.62858 0.55795 0.0
C3196 C 0.37741 0.11522 0.59019 0.0
C3197 C 0.36371 0.11066 0.60485 0.0
H3198 H 0.38936 0.13061 0.56354 0.0
C3199 C 0.35155 0.11866 0.60392 0.0
H3200 H 0.38699 0.10929 0.59061 0.0
C3201 C 0.35284 0.13072 0.58846 0.0
C3202 C 0.36641 0.13515 0.5737 0.0
H3203 H 0.3407 0.11521 0.61486 0.0
H3204 H 0.34319 0.13657 0.58804 0.0
C3205 C 0.37884 0.12749 0.57482 0.0
C3206 C 0.88707 0.22778 0.62107 0.0
C3207 C 0.89203 0.24678 0.62861 0.0
H3208 H 0.8749 0.20584 0.59572 0.0
C3209 C 0.88723 0.25793 0.61613 0.0
H3210 H 0.89074 0.21887 0.63016 0.0
C3211 C 0.87828 0.25049 0.59625 0.0
C3212 C 0.87408 0.2318 0.58846 0.0
H3213 H 0.89069 0.27254 0.62159 0.0
H3214 H 0.87534 0.25964 0.58671 0.0
C3215 C 0.87819 0.22038 0.60123 0.0
C3216 C 0.38125 0.26802 0.61271 0.0
C3217 C 0.37013 0.25769 0.62867 0.0
H3218 H 0.39147 0.26635 0.58333 0.0
C3219 C 0.36223 0.23729 0.62784 0.0
H3220 H 0.38773 0.28376 0.61302 0.0
C3221 C 0.36456 0.22734 0.61094 0.0
C3222 C 0.37486 0.23755 0.59451 0.0
H3223 H 0.35345 0.22886 0.63978 0.0
H3224 H 0.35785 0.21156 0.61048 0.0
C3225 C 0.38358 0.25806 0.59581 0.0
C3226 C 0.75669 0.13146 0.58286 0.0
C3227 C 0.75551 0.11335 0.58509 0.0
H3228 H 0.76941 0.15797 0.56755 0.0
C3229 C 0.76634 0.108 0.57275 0.0
H3230 H 0.74841 0.13594 0.59202 0.0
C3231 C 0.77819 0.12051 0.55867 0.0
C3232 C 0.77957 0.13871 0.55659 0.0
H3233 H 0.76598 0.09428 0.57425 0.0
H3234 H 0.78627 0.11588 0.54935 0.0
C3235 C 0.76857 0.14399 0.56872 0.0
C3236 C 0.88973 0.67182 0.60855 0.0
C3237 C 0.88605 0.6557 0.61965 0.0
H3238 H 0.88314 0.68198 0.58146 0.0
C3239 C 0.87097 0.63698 0.61199 0.0
H3240 H 0.90094 0.68651 0.61414 0.0
C3241 C 0.86021 0.63442 0.59339 0.0
C3242 C 0.86439 0.6505 0.58194 0.0
H3243 H 0.86779 0.6242 0.62005 0.0
H3244 H 0.84877 0.6198 0.58789 0.0
C3245 C 0.87919 0.66924 0.5899 0.0
C3246 C 0.91551 0.68847 0.82674 0.0
C3247 C 0.91798 0.70086 0.81101 0.0
H3248 H 0.90322 0.67814 0.85516 0.0
C3249 C 0.91017 0.71323 0.8127 0.0
H3250 H 0.92108 0.67855 0.82582 0.0
C3251 C 0.89969 0.71281 0.82948 0.0
C3252 C 0.89674 0.69994 0.84484 0.0
H3253 H 0.91196 0.72305 0.80092 0.0
H3254 H 0.89334 0.72206 0.83006 0.0
C3255 C 0.90506 0.68805 0.84345 0.0
C3256 C 0.29308 0.22163 0.80577 0.0
C3257 C 0.29779 0.21838 0.78597 0.0
H3258 H 0.2882 0.21237 0.8364 0.0
C3259 C 0.2995 0.20179 0.78157 0.0
H3260 H 0.29185 0.23435 0.80978 0.0
C3261 C 0.29766 0.1894 0.79689 0.0
C3262 C 0.29382 0.19317 0.81688 0.0
H3263 H 0.30265 0.19856 0.76637 0.0
H3264 H 0.29958 0.17704 0.7932 0.0
C3265 C 0.29104 0.20908 0.82105 0.0
C3266 C 0.78645 0.07901 0.77259 0.0
C3267 C 0.77139 0.08258 0.76704 0.0
H3268 H 0.80912 0.08417 0.79525 0.0
C3269 C 0.76812 0.09485 0.78047 0.0
H3270 H 0.78931 0.06956 0.76264 0.0
C3271 C 0.77918 0.10291 0.79919 0.0
C3272 C 0.79407 0.09919 0.80496 0.0
H3273 H 0.75691 0.09825 0.77656 0.0
H3274 H 0.77571 0.11174 0.80936 0.0
C3275 C 0.79767 0.08722 0.79137 0.0
C3276 C 0.08528 0.33442 0.0704 0.0
C3277 C 0.08193 0.34896 0.079 0.0
H3278 H 0.09887 0.31736 0.0745 0.0
C3279 C 0.0898 0.3573 0.09912 0.0
H3280 H 0.07919 0.32755 0.05503 0.0
C3281 C 0.10097 0.35137 0.11031 0.0
C3282 C 0.10433 0.33686 0.10168 0.0
H3283 H 0.08753 0.36859 0.10611 0.0
H3284 H 0.10693 0.3581 0.12576 0.0
C3285 C 0.09631 0.32839 0.08164 0.0
C3286 C 0.66709 0.73272 0.13328 0.0
C3287 C 0.65921 0.72728 0.11273 0.0
H3288 H 0.6797 0.75573 0.15782 0.0
C3289 C 0.65753 0.74086 0.10114 0.0
H3290 H 0.66861 0.72245 0.14241 0.0
C3291 C 0.66356 0.75961 0.10995 0.0
C3292 C 0.6717 0.7652 0.13039 0.0
H3293 H 0.65148 0.73692 0.08526 0.0
H3294 H 0.66211 0.76987 0.10073 0.0
C3295 C 0.67351 0.75168 0.142 0.0
C3296 C 0.27257 0.94215 0.06666 0.0
C3297 C 0.27892 0.93072 0.05632 0.0
H3298 H 0.25334 0.94308 0.08772 0.0
C3299 C 0.26927 0.9105 0.05822 0.0
H3300 H 0.27999 0.95786 0.06565 0.0
C3301 C 0.25363 0.90187 0.07047 0.0
C3302 C 0.24763 0.91339 0.08149 0.0
H3303 H 0.27389 0.9014 0.05028 0.0
H3304 H 0.24637 0.88618 0.07142 0.0
C3305 C 0.25721 0.93363 0.07923 0.0
C3306 C 0.35313 0.09196 0.99484 0.0
C3307 C 0.34659 0.07259 0.98715 0.0
H3308 H 0.35023 0.11728 0.99283 0.0
C3309 C 0.33097 0.06352 0.97196 0.0
H3310 H 0.36513 0.09934 0.00654 0.0
C3311 C 0.32255 0.07376 0.96407 0.0
C3312 C 0.32946 0.09332 0.97124 0.0
H3313 H 0.32533 0.04848 0.966 0.0
H3314 H 0.31107 0.06652 0.95179 0.0
C3315 C 0.34467 0.10225 0.98692 0.0
C3316 C 0.92133 0.26265 0.95181 0.0
C3317 C 0.93689 0.265 0.96493 0.0
H3318 H 0.89565 0.24292 0.93275 0.0
C3319 C 0.93861 0.24849 0.96813 0.0
H3320 H 0.91945 0.27497 0.94908 0.0
C3321 C 0.92467 0.22999 0.95913 0.0
C3322 C 0.90877 0.22756 0.94657 0.0
H3323 H 0.95062 0.24981 0.9778 0.0
H3324 H 0.92605 0.2175 0.96257 0.0
C3325 C 0.90751 0.24419 0.94266 0.0
C3326 C 0.71891 0.63801 0.99189 0.0
C3327 C 0.72148 0.64638 0.01212 0.0
H3328 H 0.73207 0.63779 0.96414 0.0
C3329 C 0.74022 0.66067 0.02026 0.0
H3330 H 0.70461 0.62724 0.98504 0.0
C3331 C 0.756 0.66674 0.00827 0.0
C3332 C 0.75335 0.65865 0.98787 0.0
H3333 H 0.74266 0.66724 0.03588 0.0
H3334 H 0.77028 0.67774 0.01497 0.0
C3335 C 0.73466 0.6441 0.9799 0.0
C3336 C 0.90667 0.64674 0.98453 0.0
C3337 C 0.9263 0.66048 0.98986 0.0
H3338 H 0.87985 0.64103 0.96964 0.0
C3339 C 0.9341 0.67948 0.98341 0.0
H3340 H 0.90023 0.63207 0.98954 0.0
C3341 C 0.92251 0.68457 0.97168 0.0
C3342 C 0.90284 0.67081 0.96631 0.0
H3343 H 0.94926 0.69029 0.9871 0.0
H3344 H 0.92903 0.69921 0.96661 0.0
C3345 C 0.89505 0.65187 0.97301 0.0
C3346 C 0.32342 0.25969 0.95791 0.0
C3347 C 0.33301 0.27575 0.94604 0.0
H3348 H 0.30962 0.22866 0.95899 0.0
C3349 C 0.33498 0.27233 0.92517 0.0
H3350 H 0.32192 0.26187 0.97411 0.0
C3351 C 0.32785 0.25326 0.91646 0.0
C3352 C 0.31862 0.23724 0.92846 0.0
H3353 H 0.34204 0.2844 0.91556 0.0
H3354 H 0.32966 0.25106 0.90035 0.0
C3355 C 0.31632 0.24065 0.94922 0.0
C3356 C 0.7333 0.09375 0.0017 0.0
C3357 C 0.72599 0.07489 0.00832 0.0
H3358 H 0.75371 0.11579 0.98382 0.0
C3359 C 0.73474 0.06401 0.00248 0.0
H3360 H 0.72703 0.10258 0.00617 0.0
C3361 C 0.74995 0.07152 0.98961 0.0
C3362 C 0.75672 0.09006 0.9823 0.0
H3363 H 0.72925 0.0493 0.00706 0.0
H3364 H 0.75585 0.06247 0.98469 0.0
C3365 C 0.74852 0.10128 0.98886 0.0
C3366 C 0.67493 0.93973 0.07885 0.0
C3367 C 0.65478 0.9311 0.07464 0.0
H3368 H 0.69803 0.93747 0.09371 0.0
C3369 C 0.6425 0.91213 0.08041 0.0
H3370 H 0.68474 0.95442 0.07477 0.0
C3371 C 0.65011 0.90242 0.09119 0.0
C3372 C 0.67015 0.91153 0.09654 0.0
H3373 H 0.62694 0.90502 0.07709 0.0
H3374 H 0.64023 0.88798 0.09585 0.0
C3375 C 0.68255 0.93003 0.08971 0.0
C3376 C 0.07332 0.74319 0.11999 0.0
C3377 C 0.07137 0.74004 0.09835 0.0
H3378 H 0.08731 0.76377 0.14643 0.0
C3379 C 0.08208 0.75606 0.08672 0.0
H3380 H 0.065 0.73131 0.12945 0.0
C3381 C 0.09453 0.77469 0.09648 0.0
C3382 C 0.0967 0.77768 0.11807 0.0
H3383 H 0.08122 0.75416 0.07006 0.0
H3384 H 0.10292 0.78666 0.08714 0.0
C3385 C 0.08596 0.76179 0.12975 0.0
C3386 C 0.28519 0.35536 0.07623 0.0
C3387 C 0.28209 0.35477 0.05475 0.0
H3388 H 0.27253 0.34885 0.10508 0.0
C3389 C 0.26303 0.34671 0.04587 0.0
H3390 H 0.29963 0.361 0.08351 0.0
C3391 C 0.24743 0.33962 0.05827 0.0
C3392 C 0.25062 0.34047 0.07978 0.0
H3393 H 0.26019 0.34614 0.02937 0.0
H3394 H 0.23293 0.33384 0.05109 0.0
C3395 C 0.26965 0.34832 0.08859 0.0
C3396 C 0.73429 0.65717 0.40821 0.0
C3397 C 0.73551 0.67539 0.41195 0.0
H3398 H 0.74585 0.63886 0.41554 0.0
C3399 C 0.74896 0.68879 0.42762 0.0
H3400 H 0.72385 0.64634 0.39652 0.0
C3401 C 0.76127 0.68431 0.43885 0.0
C3402 C 0.76055 0.66638 0.43458 0.0
H3403 H 0.7504 0.70301 0.43086 0.0
H3404 H 0.77157 0.69504 0.4507 0.0
C3405 C 0.7467 0.65273 0.41935 0.0
C3406 C 0.32059 0.06138 0.4582 0.0
C3407 C 0.33416 0.05747 0.44944 0.0
H3408 H 0.31516 0.08257 0.47292 0.0
C3409 C 0.35349 0.07288 0.4496 0.0
H3410 H 0.30554 0.05005 0.45827 0.0
C3411 C 0.35886 0.09184 0.45727 0.0
C3412 C 0.34513 0.09586 0.4654 0.0
H3413 H 0.36452 0.07043 0.44351 0.0
H3414 H 0.37366 0.10343 0.45617 0.0
C3415 C 0.32606 0.08024 0.46628 0.0
C3416 C 0.93652 0.24639 0.38647 0.0
C3417 C 0.95235 0.26422 0.39504 0.0
H3418 H 0.90741 0.22341 0.38964 0.0
C3419 C 0.95057 0.27298 0.41345 0.0
H3420 H 0.93754 0.23935 0.3723 0.0
C3421 C 0.93336 0.26401 0.42322 0.0
C3422 C 0.91765 0.24601 0.41488 0.0
H3423 H 0.96247 0.28686 0.42023 0.0
H3424 H 0.9325 0.27092 0.43758 0.0
C3425 C 0.91935 0.23728 0.39639 0.0
C3426 C 0.01578 0.41348 0.32636 0.0
C3427 C 0.03154 0.41195 0.31997 0.0
H3428 H 0.99802 0.42629 0.32184 0.0
C3429 C 0.04235 0.4235 0.30449 0.0
H3430 H 0.00736 0.40501 0.33849 0.0
C3431 C 0.03705 0.43571 0.29506 0.0
C3432 C 0.02081 0.43662 0.30088 0.0
H3433 H 0.05439 0.42245 0.29899 0.0
H3434 H 0.04517 0.44378 0.28258 0.0
C3435 C 0.01043 0.42566 0.31687 0.0
C3436 C 0.5819 0.5986 0.27728 0.0
C3437 C 0.59453 0.6007 0.29417 0.0
H3438 H 0.55876 0.57886 0.25516 0.0
C3439 C 0.5935 0.58383 0.30146 0.0
H3440 H 0.58255 0.61132 0.27106 0.0
C3441 C 0.57997 0.56527 0.29225 0.0
C3442 C 0.56713 0.56318 0.27562 0.0
H3443 H 0.60281 0.58491 0.31463 0.0
H3444 H 0.57918 0.55252 0.29854 0.0
C3445 C 0.56833 0.58003 0.26813 0.0
C3446 C 0.37501 0.94542 0.32028 0.0
C3447 C 0.37795 0.95611 0.33927 0.0
H3448 H 0.38775 0.94186 0.2934 0.0
C3449 C 0.39677 0.97112 0.34621 0.0
H3450 H 0.36065 0.93372 0.31462 0.0
C3451 C 0.41223 0.97582 0.33406 0.0
C3452 C 0.4092 0.96548 0.31483 0.0
H3453 H 0.39942 0.97973 0.36069 0.0
H3454 H 0.42654 0.9877 0.33961 0.0
C3455 C 0.39051 0.95 0.30822 0.0
C3456 C 0.57384 0.96102 0.30337 0.0
C3457 C 0.59051 0.97647 0.31415 0.0
H3458 H 0.54785 0.95235 0.28461 0.0
C3459 C 0.59454 0.99574 0.31288 0.0
H3460 H 0.57046 0.94603 0.30427 0.0
C3461 C 0.58197 -0.00048 0.30109 0.0
C3462 C 0.56486 0.98404 0.29072 0.0
H3463 H 0.60749 0.00789 0.32091 0.0
H3464 H 0.58569 0.0146 0.30019 0.0
C3465 C 0.56103 0.96472 0.29196 0.0
C3466 C 0.00822 0.6009 0.29729 0.0
C3467 C 0.01322 0.61655 0.28492 0.0
H3468 H -0.00012 0.57075 0.29845 0.0
C3469 C 0.01303 0.61322 0.26348 0.0
H3470 H 0.00855 0.603 0.31389 0.0
C3471 C 0.00822 0.59475 0.25468 0.0
C3472 C 0.00334 0.5792 0.26711 0.0
H3473 H 0.01646 0.62484 0.25345 0.0
H3474 H 0.00825 0.5926 0.23814 0.0
C3475 C 0.00326 0.58241 0.28847 0.0
C3476 C 0.39744 0.40021 0.33316 0.0
C3477 C 0.38681 0.40965 0.33659 0.0
H3478 H 0.41995 0.39962 0.3172 0.0
C3479 C 0.39201 0.42705 0.32729 0.0
H3480 H 0.39357 0.38659 0.33984 0.0
C3481 C 0.40715 0.43453 0.31433 0.0
C3482 C 0.41732 0.42469 0.3103 0.0
H3483 H 0.38422 0.43476 0.32984 0.0
H3484 H 0.41077 0.44794 0.30732 0.0
C3485 C 0.41253 0.40764 0.32015 0.0
C3486 C 0.32602 0.25536 0.40217 0.0
C3487 C 0.33209 0.27415 0.41151 0.0
H3488 H 0.32766 0.22922 0.40319 0.0
C3489 C 0.34596 0.28145 0.42858 0.0
H3490 H 0.31571 0.24939 0.38876 0.0
C3491 C 0.35318 0.27011 0.43638 0.0
C3492 C 0.34647 0.25111 0.42753 0.0
H3493 H 0.35073 0.29565 0.4365 0.0
H3494 H 0.36331 0.27584 0.44997 0.0
C3495 C 0.333 0.24387 0.41025 0.0
C3496 C 0.73804 0.08307 0.41887 0.0
C3497 C 0.73263 0.06672 0.43022 0.0
H3498 H 0.75604 0.11407 0.41814 0.0
C3499 C 0.74043 0.06956 0.45066 0.0
H3500 H 0.73235 0.08125 0.40302 0.0
C3501 C 0.75379 0.08835 0.45942 0.0
C3502 C 0.75979 0.10468 0.44785 0.0
H3503 H 0.73625 0.05723 0.45984 0.0
H3504 H 0.75959 0.09005 0.47521 0.0
C3505 C 0.75154 0.10186 0.42758 0.0
C3506 C 0.948 0.68866 0.41017 0.0
C3507 C 0.94581 0.68887 0.38867 0.0
H3508 H 0.9342 0.68197 0.43839 0.0
C3509 C 0.92709 0.68152 0.37906 0.0
H3510 H 0.9621 0.69366 0.41803 0.0
C3511 C 0.91101 0.67454 0.39079 0.0
C3512 C 0.9134 0.6749 0.41233 0.0
H3513 H 0.92491 0.68155 0.36255 0.0
H3514 H 0.8968 0.66937 0.3831 0.0
C3515 C 0.93201 0.68184 0.42185 0.0
C3516 C 0.40787 0.00165 0.74487 0.0
C3517 C 0.40749 0.01911 0.74818 0.0
H3518 H 0.42111 0.98512 0.7533 0.0
C3519 C 0.41987 0.03297 0.76419 0.0
H3520 H 0.39829 0.99048 0.73293 0.0
C3521 C 0.43266 0.02967 0.77622 0.0
C3522 C 0.43346 0.01249 0.77246 0.0
H3523 H 0.42005 0.04663 0.76712 0.0
H3524 H 0.44209 0.04072 0.78833 0.0
C3525 C 0.42075 0.99841 0.7568 0.0
C3526 C 0.00105 0.40141 0.77022 0.0
C3527 C 0.98579 0.38414 0.77686 0.0
H3528 H 0.01692 0.43276 0.77336 0.0
C3529 C 0.97532 0.38551 0.79295 0.0
H3530 H 0.00925 0.40082 0.7577 0.0
C3531 C 0.97972 0.40378 0.80191 0.0
C3532 C 0.99469 0.42106 0.79497 0.0
H3533 H 0.96373 0.37246 0.79866 0.0
H3534 H 0.97138 0.40437 0.81427 0.0
C3535 C 0.00546 0.41969 0.7792 0.0
C3536 C 0.61596 0.60454 0.747 0.0
C3537 C 0.62027 0.59445 0.73176 0.0
H3538 H 0.59614 0.60306 0.76872 0.0
C3539 C 0.60679 0.57461 0.72608 0.0
H3540 H 0.62589 0.61993 0.75146 0.0
C3541 C 0.58954 0.56497 0.73583 0.0
C3542 C 0.58541 0.57503 0.75131 0.0
H3543 H 0.60974 0.56647 0.7144 0.0
H3544 H 0.57946 0.54963 0.7313 0.0
C3545 C 0.59876 0.59495 0.75667 0.0
C3546 C 0.66828 0.72607 0.6328 0.0
C3547 C 0.67977 0.73306 0.65159 0.0
H3548 H 0.65133 0.73069 0.60989 0.0
C3549 C 0.68242 0.7502 0.6622 0.0
H3550 H 0.66583 0.71276 0.62447 0.0
C3551 C 0.67416 0.76048 0.65384 0.0
C3552 C 0.66282 0.75356 0.63496 0.0
H3553 H 0.69123 0.75586 0.67671 0.0
H3554 H 0.67671 0.77388 0.66205 0.0
C3555 C 0.6598 0.73617 0.62462 0.0
C3556 C 0.25071 0.9301 0.61429 0.0
C3557 C 0.26358 0.93291 0.63124 0.0
H3558 H 0.2272 0.90953 0.59301 0.0
C3559 C 0.26284 0.91643 0.63928 0.0
H3560 H 0.25116 0.94248 0.60745 0.0
C3561 C 0.24923 0.89755 0.63085 0.0
C3562 C 0.23602 0.8948 0.61432 0.0
H3563 H 0.27238 0.91806 0.65248 0.0
H3564 H 0.24861 0.88511 0.63772 0.0
C3565 C 0.23705 0.91125 0.60596 0.0
C3566 C 0.07069 0.30857 0.68384 0.0
C3567 C 0.05594 0.31211 0.67703 0.0
H3568 H 0.09865 0.31242 0.67884 0.0
C3569 C 0.05861 0.32323 0.66005 0.0
H3570 H 0.06898 0.30001 0.69687 0.0
C3571 C 0.07555 0.33038 0.64985 0.0
C3572 C 0.09011 0.32645 0.65632 0.0
H3573 H 0.04758 0.32641 0.65465 0.0
H3574 H 0.07703 0.33856 0.63654 0.0
C3575 C 0.08758 0.31557 0.67349 0.0
C3576 C 0.27071 0.34175 0.64769 0.0
C3577 C 0.26279 0.32237 0.65306 0.0
H3578 H 0.26592 0.36232 0.63219 0.0
C3579 C 0.24333 0.30872 0.64679 0.0
H3580 H 0.28576 0.35253 0.65209 0.0
C3581 C 0.23197 0.31433 0.6355 0.0
C3582 C 0.23984 0.33369 0.63006 0.0
H3583 H 0.23675 0.29376 0.65095 0.0
H3584 H 0.21687 0.30354 0.63141 0.0
C3585 C 0.25936 0.34734 0.63628 0.0
C3586 C 0.66885 0.93653 0.59923 0.0
C3587 C 0.66842 0.94003 0.62053 0.0
H3588 H 0.66279 0.91533 0.57405 0.0
C3589 C 0.6606 0.92401 0.63273 0.0
H3590 H 0.67437 0.94844 0.5893 0.0
C3591 C 0.65371 0.90503 0.6239 0.0
C3592 C 0.65461 0.90166 0.60273 0.0
H3593 H 0.66028 0.92617 0.64921 0.0
H3594 H 0.64827 0.89305 0.63377 0.0
C3595 C 0.66211 0.91757 0.59045 0.0
C3596 C 0.05978 0.75573 0.66744 0.0
C3597 C 0.05201 0.73629 0.67248 0.0
H3598 H 0.08113 0.77911 0.65162 0.0
C3599 C 0.06102 0.7258 0.66612 0.0
H3600 H 0.0534 0.76431 0.67244 0.0
C3601 C 0.07696 0.73432 0.65426 0.0
C3602 C 0.08413 0.75344 0.64846 0.0
H3603 H 0.05526 0.71072 0.66952 0.0
H3604 H 0.08313 0.72565 0.64888 0.0
C3605 C 0.07565 0.7642 0.65554 0.0
C3606 C 0.96989 0.57891 0.74206 0.0
C3607 C 0.96647 0.59201 0.754 0.0
H3608 H 0.97815 0.557 0.7421 0.0
C3609 C 0.96902 0.59294 0.77561 0.0
H3610 H 0.96793 0.5777 0.7254 0.0
C3611 C 0.97455 0.58094 0.78505 0.0
C3612 C 0.97793 0.56789 0.77315 0.0
H3613 H 0.96712 0.60323 0.78532 0.0
H3614 H 0.97654 0.58213 0.80172 0.0
C3615 C 0.97569 0.56704 0.75157 0.0
C3616 C 0.39713 0.41012 0.77482 0.0
C3617 C 0.40295 0.39659 0.76933 0.0
H3618 H 0.40572 0.43888 0.78806 0.0
C3619 C 0.42248 0.40203 0.77334 0.0
H3620 H 0.38214 0.40627 0.77217 0.0
C3621 C 0.43593 0.42064 0.78242 0.0
C3622 C 0.43018 0.43425 0.78775 0.0
H3623 H 0.4275 0.39207 0.76897 0.0
H3624 H 0.45097 0.42453 0.78476 0.0
C3625 C 0.41062 0.42877 0.78394 0.0
C3626 C 0.61007 0.04479 0.72414 0.0
C3627 C 0.61296 0.03012 0.71506 0.0
H3628 H 0.59308 0.05162 0.74353 0.0
C3629 C 0.60001 0.01047 0.7183 0.0
H3630 H 0.61974 0.06003 0.72171 0.0
C3631 C 0.58492 0.00564 0.73107 0.0
C3632 C 0.58239 0.02036 0.74074 0.0
H3633 H 0.60206 0.99889 0.7117 0.0
H3634 H 0.57573 0.99044 0.73398 0.0
C3635 C 0.59489 0.03995 0.73674 0.0
loop_
_geom_bond_atom_site_label_1
_geom_bond_atom_site_label_2
_geom_bond_distance
_geom_bond_site_symmetry_2
_ccdc_geom_bond_type
Li0 N17 1.990 . S
Li0 O60 1.968 . S
Li0 O61 1.984 1_655 S
Li0 O62 1.961 . S
Li1 N25 1.990 . S
Li1 O60 1.944 1_455 S
Li1 O61 1.980 . S
Li1 O63 1.961 . S
Li2 N47 1.990 . S
Li2 O60 1.980 . S
Li2 O62 1.956 . S
Li2 O63 1.970 1_655 S
Li3 N53 1.990 1_554 S
Li3 O61 1.963 . S
Li3 O62 1.970 1_455 S
Li3 O63 1.956 . S
C4 C6 1.348 1_655 S
C4 C7 1.356 . S
C4 O60 1.325 . S
N5 C8 1.314 . S
N5 C9 1.279 . S
C6 C4 1.348 1_455 S
C6 C8 1.353 1_455 S
C6 H64 0.929 . S
C7 C4 1.356 . S
C7 C9 1.358 . S
C7 H65 0.930 . S
C8 N5 1.314 . S
C8 C6 1.353 1_655 S
C8 H66 0.930 1_655 S
C9 N5 1.279 . S
C9 C7 1.358 . S
C9 H67 0.930 . S
C10 C13 1.348 . S
C10 C14 1.356 . S
C10 O61 1.305 1_556 S
C11 N12 1.279 . S
C11 C14 1.358 . S
C11 H68 0.930 . S
N12 C11 1.279 . S
N12 C15 1.314 . S
C13 C10 1.348 . S
C13 C15 1.353 . S
C13 H69 0.929 1_455 S
C14 C10 1.356 . S
C14 C11 1.358 . S
C14 H70 0.930 . S
C15 N12 1.314 . S
C15 C13 1.353 . S
C15 H71 0.930 . S
C16 N17 1.314 1_556 S
C16 C21 1.353 . S
C16 H22 0.930 . S
N17 Li0 1.990 . S
N17 C16 1.314 1_554 S
N17 C19 1.279 . S
C18 C19 1.358 . S
C18 C20 1.356 1_554 S
C18 H72 0.930 . S
C19 N17 1.279 . S
C19 C18 1.358 . S
C19 H23 0.930 . S
C20 C18 1.356 1_556 S
C20 C21 1.348 . S
C21 C16 1.353 . S
C21 C20 1.348 . S
C21 H73 0.929 . S
H22 C16 0.930 . S
H23 C19 0.930 . S
C24 N25 1.314 . S
C24 C26 1.353 . S
C24 H30 0.930 . S
N25 Li1 1.990 . S
N25 C24 1.314 . S
N25 C28 1.279 . S
C26 C24 1.353 . S
C26 C29 1.348 . S
C26 H74 0.929 . S
C27 C28 1.358 . S
C27 C29 1.356 . S
C27 H75 0.930 . S
C28 N25 1.279 . S
C28 C27 1.358 . S
C28 H31 0.930 . S
C29 C26 1.348 . S
C29 C27 1.356 . S
H30 C24 0.930 . S
H31 C28 0.930 . S
C32 C34 1.348 1_554 S
C32 C35 1.356 . S
C32 O62 1.325 . S
N33 C36 1.314 . S
N33 C37 1.279 1_556 S
C34 C32 1.348 1_556 S
C34 C36 1.353 . S
C34 H76 0.929 . S
C35 C32 1.356 . S
C35 C37 1.358 . S
C35 H77 0.930 . S
C36 N33 1.314 . S
C36 C34 1.353 . S
C36 H78 0.930 . S
C37 N33 1.279 1_554 S
C37 C35 1.358 . S
C37 H79 0.930 . S
C38 C39 1.348 . S
C38 C40 1.356 . S
C38 O63 1.325 . S
C39 C38 1.348 . S
C39 C41 1.353 . S
C39 H80 0.929 . S
C40 C38 1.356 . S
C40 C42 1.358 . S
C40 H81 0.930 . S
C41 C39 1.353 . S
C41 N43 1.314 . S
C41 H82 0.930 . S
C42 C40 1.358 . S
C42 N43 1.279 . S
C42 H83 0.930 . S
N43 C41 1.314 . S
N43 C42 1.279 . S
C44 C46 1.353 . S
C44 N47 1.314 . S
C44 H50 0.930 1_655 S
C45 N47 1.279 . S
C45 C48 1.358 . S
C45 H51 0.930 . S
C46 C44 1.353 . S
C46 C49 1.348 . S
C46 H84 0.929 . S
N47 Li2 1.990 . S
N47 C44 1.314 . S
N47 C45 1.279 . S
C48 C45 1.358 . S
C48 C49 1.356 . S
C48 H85 0.930 . S
C49 C46 1.348 . S
C49 C48 1.356 . S
H50 C44 0.930 1_455 S
H51 C45 0.930 . S
C52 N53 1.314 . S
C52 C54 1.353 . S
C52 H58 0.930 . S
N53 Li3 1.990 1_556 S
N53 C52 1.314 . S
N53 C56 1.279 . S
C54 C52 1.353 . S
C54 C57 1.348 . S
C54 H86 0.929 . S
C55 C56 1.358 . S
C55 C57 1.356 . S
C55 H87 0.930 . S
C56 N53 1.279 . S
C56 C55 1.358 . S
C56 H59 0.930 . S
C57 C54 1.348 . S
C57 C55 1.356 . S
H58 C52 0.930 . S
H59 C56 0.930 . S
O60 Li0 1.968 . S
O60 Li1 1.944 1_655 S
O60 Li2 1.980 . S
O60 C4 1.325 . S
O61 Li0 1.984 1_455 S
O61 Li1 1.980 . S
O61 Li3 1.963 . S
O61 C10 1.305 1_554 S
O62 Li0 1.961 . S
O62 Li2 1.956 . S
O62 Li3 1.970 1_655 S
O62 C32 1.325 . S
O63 Li1 1.961 . S
O63 Li2 1.970 1_455 S
O63 Li3 1.956 . S
O63 C38 1.325 . S
H64 C6 0.929 . S
H65 C7 0.930 . S
H66 C8 0.930 1_455 S
H67 C9 0.930 . S
H68 C11 0.930 . S
H69 C13 0.929 1_655 S
H70 C14 0.930 . S
H71 C15 0.930 . S
H72 C18 0.930 . S
H73 C21 0.929 . S
H74 C26 0.929 . S
H75 C27 0.930 . S
H76 C34 0.929 . S
H77 C35 0.930 . S
H78 C36 0.930 . S
H79 C37 0.930 . S
H80 C39 0.929 . S
H81 C40 0.930 . S
H82 C41 0.930 . S
H83 C42 0.930 . S
H84 C46 0.929 . S
H85 C48 0.930 . S
H86 C54 0.929 . S
H87 C55 0.930 . S
Li88 N105 1.990 . S
Li88 O148 1.956 . S
Li88 O149 1.970 . S
Li88 O150 1.961 . S
Li89 N113 1.990 . S
Li89 O148 1.970 . S
Li89 O149 1.956 . S
Li89 O151 1.961 . S
Li90 N135 1.990 . S
Li90 O148 1.961 . S
Li90 O150 1.956 . S
Li90 O151 1.970 . S
Li91 N141 1.990 . S
Li91 O149 1.961 . S
Li91 O150 1.970 . S
Li91 O151 1.956 . S
C92 C94 1.348 . S
C92 C95 1.356 . S
C92 O148 1.325 . S
N93 C96 1.314 . S
N93 C97 1.279 . S
C94 C92 1.348 . S
C94 C96 1.353 . S
C94 H152 0.929 . S
C95 C92 1.356 . S
C95 C97 1.358 . S
C95 H153 0.930 . S
C96 N93 1.314 . S
C96 C94 1.353 . S
C96 H154 0.930 . S
C97 N93 1.279 . S
C97 C95 1.358 . S
C97 H155 0.930 . S
C98 C101 1.348 . S
C98 C102 1.356 . S
C98 O149 1.325 . S
C99 N100 1.279 1_554 S
C99 C102 1.358 . S
C99 H156 0.914 1_554 S
N100 C99 1.279 1_556 S
N100 C103 1.314 1_556 S
C101 C98 1.348 . S
C101 C103 1.353 . S
C101 H157 0.929 . S
C102 C98 1.356 . S
C102 C99 1.358 . S
C102 H158 0.930 . S
C103 N100 1.314 1_554 S
C103 C101 1.353 . S
C103 H159 0.930 . S
C104 N105 1.314 . S
C104 C109 1.353 . S
C104 H110 0.930 . S
N105 Li88 1.990 . S
N105 C104 1.314 . S
N105 C107 1.279 . S
C106 C107 1.358 . S
C106 C108 1.356 . S
C106 H160 0.930 . S
C107 N105 1.279 . S
C107 C106 1.358 . S
C107 H111 0.930 . S
C108 C106 1.356 . S
C108 C109 1.348 . S
C109 C104 1.353 . S
C109 C108 1.348 . S
C109 H161 0.929 . S
H110 C104 0.930 . S
H111 C107 0.930 . S
C112 N113 1.314 . S
C112 C114 1.353 . S
C112 H118 0.930 . S
N113 Li89 1.990 . S
N113 C112 1.314 . S
N113 C116 1.279 . S
C114 C112 1.353 . S
C114 C117 1.348 . S
C114 H162 0.929 . S
C115 C116 1.358 . S
C115 C117 1.356 . S
C115 H163 0.930 . S
C116 N113 1.279 . S
C116 C115 1.358 . S
C116 H119 0.930 . S
C117 C114 1.348 . S
C117 C115 1.356 . S
H118 C112 0.930 . S
H119 C116 0.930 . S
C120 C122 1.348 . S
C120 C123 1.356 . S
C120 O150 1.325 . S
N121 C124 1.314 . S
N121 C125 1.279 . S
C122 C120 1.348 . S
C122 C124 1.353 . S
C122 H164 0.929 . S
C123 C120 1.356 . S
C123 C125 1.358 . S
C123 H165 0.930 . S
C124 N121 1.314 . S
C124 C122 1.353 . S
C124 H166 0.930 . S
C125 N121 1.279 . S
C125 C123 1.358 . S
C125 H167 0.930 . S
C126 C127 1.348 . S
C126 C128 1.356 . S
C126 O151 1.325 . S
C127 C126 1.348 . S
C127 C129 1.353 . S
C127 H168 0.929 . S
C128 C126 1.356 . S
C128 C130 1.358 . S
C128 H169 0.930 . S
C129 C127 1.353 . S
C129 N131 1.314 . S
C129 H170 0.930 . S
C130 C128 1.358 . S
C130 N131 1.279 . S
C130 H171 0.930 . S
N131 C129 1.314 . S
N131 C130 1.279 . S
C132 C134 1.353 . S
C132 N135 1.314 . S
C132 H138 0.930 . S
C133 N135 1.279 . S
C133 C136 1.358 . S
C133 H139 0.930 . S
C134 C132 1.353 . S
C134 C137 1.348 . S
C134 H172 0.929 . S
N135 Li90 1.990 . S
N135 C132 1.314 . S
N135 C133 1.279 . S
C136 C133 1.358 . S
C136 C137 1.356 . S
C136 H173 0.930 . S
C137 C134 1.348 . S
C137 C136 1.356 . S
H138 C132 0.930 . S
H139 C133 0.930 . S
C140 N141 1.314 1_556 S
C140 C142 1.353 . S
C140 H146 0.930 . S
N141 Li91 1.990 . S
N141 C140 1.314 1_554 S
N141 C144 1.279 . S
C142 C140 1.353 . S
C142 C145 1.348 . S
C142 H174 0.929 . S
C143 C144 1.358 . S
C143 C145 1.356 1_554 S
C143 H175 0.930 . S
C144 N141 1.279 . S
C144 C143 1.358 . S
C144 H147 0.930 . S
C145 C142 1.348 . S
C145 C143 1.356 1_556 S
H146 C140 0.930 . S
H147 C144 0.930 . S
O148 Li88 1.956 . S
O148 Li89 1.970 . S
O148 Li90 1.961 . S
O148 C92 1.325 . S
O149 Li88 1.970 . S
O149 Li89 1.956 . S
O149 Li91 1.961 . S
O149 C98 1.325 . S
O150 Li88 1.961 . S
O150 Li90 1.956 . S
O150 Li91 1.970 . S
O150 C120 1.325 . S
O151 Li89 1.961 . S
O151 Li90 1.970 . S
O151 Li91 1.956 . S
O151 C126 1.325 . S
H152 C94 0.929 . S
H153 C95 0.930 . S
H154 C96 0.930 . S
H155 C97 0.930 . S
H156 C99 0.914 1_556 S
H157 C101 0.929 . S
H158 C102 0.930 . S
H159 C103 0.930 . S
H160 C106 0.930 . S
H161 C109 0.929 . S
H162 C114 0.929 . S
H163 C115 0.930 . S
H164 C122 0.929 . S
H165 C123 0.930 . S
H166 C124 0.930 . S
H167 C125 0.930 . S
H168 C127 0.929 . S
H169 C128 0.930 . S
H170 C129 0.930 . S
H171 C130 0.930 . S
H172 C134 0.929 . S
H173 C136 0.930 . S
H174 C142 0.929 . S
H175 C143 0.930 . S
Li176 N193 1.990 1_554 S
Li176 O236 1.956 . S
Li176 O237 1.970 1_565 S
Li176 O238 1.964 . S
Li177 N201 1.990 . S
Li177 O236 1.970 1_545 S
Li177 O237 1.956 . S
Li177 O239 1.961 . S
Li178 N223 1.990 . S
Li178 O236 1.961 . S
Li178 O238 1.991 . S
Li178 O239 1.970 1_565 S
Li179 N229 1.990 . S
Li179 O237 1.961 . S
Li179 O238 1.988 1_545 S
Li179 O239 1.956 . S
C180 C182 1.348 . S
C180 C183 1.356 . S
C180 O236 1.325 . S
N181 C184 1.314 . S
N181 C185 1.279 . S
C182 C180 1.348 . S
C182 C184 1.353 . S
C182 H240 0.929 . S
C183 C180 1.356 . S
C183 C185 1.358 . S
C183 H241 0.930 . S
C184 N181 1.314 . S
C184 C182 1.353 . S
C184 H242 0.930 . S
C185 N181 1.279 . S
C185 C183 1.358 . S
C185 H243 0.930 . S
C186 C189 1.361 . S
C186 C190 1.356 . S
C186 O237 1.325 . S
C187 N188 1.279 . S
C187 C190 1.358 . S
C187 H244 0.930 . S
N188 C187 1.279 . S
N188 C191 1.314 1_554 S
C189 C186 1.361 . S
C189 C191 1.346 1_554 S
C189 H245 0.923 1_554 S
C190 C186 1.356 . S
C190 C187 1.358 . S
C190 H246 0.930 . S
C191 N188 1.314 1_556 S
C191 C189 1.346 1_556 S
C191 H247 0.930 . S
C192 N193 1.314 . S
C192 C197 1.353 . S
C192 H198 0.930 . S
N193 Li176 1.990 1_556 S
N193 C192 1.314 . S
N193 C195 1.279 . S
C194 C195 1.358 . S
C194 C196 1.356 . S
C194 H248 0.930 . S
C195 N193 1.279 . S
C195 C194 1.358 . S
C195 H199 0.930 . S
C196 C194 1.356 . S
C196 C197 1.348 . S
C197 C192 1.353 . S
C197 C196 1.348 . S
C197 H249 0.929 . S
H198 C192 0.930 . S
H199 C195 0.930 . S
C200 N201 1.314 . S
C200 C202 1.353 . S
C200 H206 0.930 . S
N201 Li177 1.990 . S
N201 C200 1.314 . S
N201 C204 1.279 . S
C202 C200 1.353 . S
C202 C205 1.348 . S
C202 H250 0.929 . S
C203 C204 1.358 . S
C203 C205 1.356 . S
C203 H251 0.930 . S
C204 N201 1.279 . S
C204 C203 1.358 . S
C204 H207 0.930 . S
C205 C202 1.348 . S
C205 C203 1.356 . S
H206 C200 0.930 . S
H207 C204 0.930 . S
C208 C210 1.348 . S
C208 C211 1.356 . S
C208 O238 1.298 1_556 S
N209 C212 1.314 . S
N209 C213 1.279 . S
C210 C208 1.348 . S
C210 C212 1.353 . S
C210 H252 0.929 1_565 S
C211 C208 1.356 . S
C211 C213 1.358 . S
C211 H253 0.930 . S
C212 N209 1.314 . S
C212 C210 1.353 . S
C212 H254 0.930 . S
C213 N209 1.279 . S
C213 C211 1.358 . S
C213 H255 0.930 . S
C214 C215 1.348 . S
C214 C216 1.356 . S
C214 O239 1.325 . S
C215 C214 1.348 . S
C215 C217 1.353 . S
C215 H256 0.929 1_545 S
C216 C214 1.356 . S
C216 C218 1.358 . S
C216 H257 0.930 . S
C217 C215 1.353 . S
C217 N219 1.314 . S
C217 H258 0.930 . S
C218 C216 1.358 . S
C218 N219 1.279 . S
C218 H259 0.930 . S
N219 C217 1.314 . S
N219 C218 1.279 . S
C220 C222 1.353 . S
C220 N223 1.314 . S
C220 H226 0.930 . S
C221 N223 1.279 . S
C221 C224 1.358 . S
C221 H227 0.930 . S
C222 C220 1.353 . S
C222 C225 1.348 . S
C222 H260 0.929 . S
N223 Li178 1.990 . S
N223 C220 1.314 . S
N223 C221 1.279 . S
C224 C221 1.358 . S
C224 C225 1.356 . S
C224 H261 0.930 . S
C225 C222 1.348 . S
C225 C224 1.356 . S
H226 C220 0.930 . S
H227 C221 0.930 . S
C228 N229 1.314 1_556 S
C228 C230 1.353 . S
C228 H234 0.930 . S
N229 Li179 1.990 . S
N229 C228 1.314 1_554 S
N229 C232 1.279 . S
C230 C228 1.353 . S
C230 C233 1.348 . S
C230 H262 0.929 . S
C231 C232 1.358 . S
C231 C233 1.356 1_554 S
C231 H263 0.930 . S
C232 N229 1.279 . S
C232 C231 1.358 . S
C232 H235 0.930 . S
C233 C230 1.348 . S
C233 C231 1.356 1_556 S
H234 C228 0.930 . S
H235 C232 0.930 . S
O236 Li176 1.956 . S
O236 Li177 1.970 1_565 S
O236 Li178 1.961 . S
O236 C180 1.325 . S
O237 Li176 1.970 1_545 S
O237 Li177 1.956 . S
O237 Li179 1.961 . S
O237 C186 1.325 . S
O238 Li176 1.964 . S
O238 Li178 1.991 . S
O238 Li179 1.988 1_565 S
O238 C208 1.298 1_554 S
O239 Li177 1.961 . S
O239 Li178 1.970 1_545 S
O239 Li179 1.956 . S
O239 C214 1.325 . S
H240 C182 0.929 . S
H241 C183 0.930 . S
H242 C184 0.930 . S
H243 C185 0.930 . S
H244 C187 0.930 . S
H245 C189 0.923 1_556 S
H246 C190 0.930 . S
H247 C191 0.930 . S
H248 C194 0.930 . S
H249 C197 0.929 . S
H250 C202 0.929 . S
H251 C203 0.930 . S
H252 C210 0.929 1_545 S
H253 C211 0.930 . S
H254 C212 0.930 . S
H255 C213 0.930 . S
H256 C215 0.929 1_565 S
H257 C216 0.930 . S
H258 C217 0.930 . S
H259 C218 0.930 . S
H260 C222 0.929 . S
H261 C224 0.930 . S
H262 C230 0.929 . S
H263 C231 0.930 . S
Li264 N281 1.990 . S
Li264 O324 1.956 . S
Li264 O325 1.970 1_455 S
Li264 O326 1.961 . S
Li265 N289 1.990 . S
Li265 O324 1.970 1_655 S
Li265 O325 1.956 . S
Li265 O327 1.961 . S
Li266 N311 1.973 1_554 S
Li266 O324 1.961 . S
Li266 O326 1.956 . S
Li266 O327 1.970 1_455 S
Li267 N317 1.990 . S
Li267 O325 1.961 . S
Li267 O326 1.970 1_655 S
Li267 O327 1.956 . S
C268 C270 1.348 . S
C268 C271 1.356 . S
C268 O324 1.325 . S
N269 C272 1.314 . S
N269 C273 1.279 . S
C270 C268 1.348 . S
C270 C272 1.353 . S
C270 H328 0.929 . S
C271 C268 1.356 . S
C271 C273 1.358 . S
C271 H329 0.930 . S
C272 N269 1.314 . S
C272 C270 1.353 . S
C272 H330 0.930 . S
C273 N269 1.279 . S
C273 C271 1.358 . S
C273 H331 0.930 . S
C274 C277 1.348 1_655 S
C274 C278 1.356 . S
C274 O325 1.325 . S
C275 N276 1.279 . S
C275 C278 1.358 . S
C275 H332 0.930 . S
N276 C275 1.279 . S
N276 C279 1.314 . S
C277 C274 1.348 1_455 S
C277 C279 1.353 1_455 S
C277 H333 0.929 . S
C278 C274 1.356 . S
C278 C275 1.358 . S
C278 H334 0.930 . S
C279 N276 1.314 . S
C279 C277 1.353 1_655 S
C279 H335 0.930 1_655 S
C280 N281 1.314 . S
C280 C285 1.353 . S
C280 H286 0.930 . S
N281 Li264 1.990 . S
N281 C280 1.314 . S
N281 C283 1.279 . S
C282 C283 1.358 . S
C282 C284 1.356 . S
C282 H336 0.930 . S
C283 N281 1.279 . S
C283 C282 1.358 . S
C283 H287 0.930 . S
C284 C282 1.356 . S
C284 C285 1.348 . S
C285 C280 1.353 . S
C285 C284 1.348 . S
C285 H337 0.929 . S
H286 C280 0.930 . S
H287 C283 0.930 . S
C288 N289 1.314 . S
C288 C290 1.353 . S
C288 H294 0.930 . S
N289 Li265 1.990 . S
N289 C288 1.314 . S
N289 C292 1.279 . S
C290 C288 1.353 . S
C290 C293 1.348 . S
C290 H338 0.929 . S
C291 C292 1.358 . S
C291 C293 1.356 . S
C291 H339 0.930 . S
C292 N289 1.279 . S
C292 C291 1.358 . S
C292 H295 0.930 . S
C293 C290 1.348 . S
C293 C291 1.356 . S
H294 C288 0.930 . S
H295 C292 0.930 . S
C296 C298 1.327 1_454 S
C296 C299 1.356 . S
C296 O326 1.325 . S
N297 C300 1.314 . S
N297 C301 1.279 . S
C298 C296 1.327 1_656 S
C298 C300 1.351 1_655 S
C298 H340 0.952 . S
C299 C296 1.356 . S
C299 C301 1.358 1_554 S
C299 H341 0.930 . S
C300 N297 1.314 . S
C300 C298 1.351 1_455 S
C300 H342 0.930 1_455 S
C301 N297 1.279 . S
C301 C299 1.358 1_556 S
C301 H343 0.930 . S
C302 C303 1.348 . S
C302 C304 1.356 . S
C302 O327 1.325 . S
C303 C302 1.348 . S
C303 C305 1.353 . S
C303 H344 0.929 1_554 S
C304 C302 1.356 . S
C304 C306 1.358 . S
C304 H345 0.930 . S
C305 C303 1.353 . S
C305 N307 1.314 . S
C305 H346 0.930 1_554 S
C306 C304 1.358 . S
C306 N307 1.279 . S
C306 H347 0.930 . S
N307 C305 1.314 . S
N307 C306 1.279 . S
C308 C310 1.353 1_554 S
C308 N311 1.312 1_554 S
C308 H314 0.930 . S
C309 N311 1.300 . S
C309 C312 1.358 . S
C309 H315 0.930 . S
C310 C308 1.353 1_556 S
C310 C313 1.348 . S
C310 H348 0.929 . S
N311 Li266 1.973 1_556 S
N311 C308 1.312 1_556 S
N311 C309 1.300 . S
C312 C309 1.358 . S
C312 C313 1.356 . S
C312 H349 0.930 . S
C313 C310 1.348 . S
C313 C312 1.356 . S
H314 C308 0.930 . S
H315 C309 0.930 . S
C316 N317 1.314 . S
C316 C318 1.353 . S
C316 H322 0.930 . S
N317 Li267 1.990 . S
N317 C316 1.314 . S
N317 C320 1.279 . S
C318 C316 1.353 . S
C318 C321 1.348 . S
C318 H350 0.929 . S
C319 C320 1.358 . S
C319 C321 1.356 . S
C319 H351 0.928 1_554 S
C320 N317 1.279 . S
C320 C319 1.358 . S
C320 H323 0.930 . S
C321 C318 1.348 . S
C321 C319 1.356 . S
H322 C316 0.930 . S
H323 C320 0.930 . S
O324 Li264 1.956 . S
O324 Li265 1.970 1_455 S
O324 Li266 1.961 . S
O324 C268 1.325 . S
O325 Li264 1.970 1_655 S
O325 Li265 1.956 . S
O325 Li267 1.961 . S
O325 C274 1.325 . S
O326 Li264 1.961 . S
O326 Li266 1.956 . S
O326 Li267 1.970 1_455 S
O326 C296 1.325 . S
O327 Li265 1.961 . S
O327 Li266 1.970 1_655 S
O327 Li267 1.956 . S
O327 C302 1.325 . S
H328 C270 0.929 . S
H329 C271 0.930 . S
H330 C272 0.930 . S
H331 C273 0.930 . S
H332 C275 0.930 . S
H333 C277 0.929 . S
H334 C278 0.930 . S
H335 C279 0.930 1_455 S
H336 C282 0.930 . S
H337 C285 0.929 . S
H338 C290 0.929 . S
H339 C291 0.930 . S
H340 C298 0.952 . S
H341 C299 0.930 . S
H342 C300 0.930 1_655 S
H343 C301 0.930 . S
H344 C303 0.929 1_556 S
H345 C304 0.930 . S
H346 C305 0.930 1_556 S
H347 C306 0.930 . S
H348 C310 0.929 . S
H349 C312 0.930 . S
H350 C318 0.929 . S
H351 C319 0.928 1_556 S
Li352 N369 1.990 . S
Li352 O412 1.956 . S
Li352 O413 1.970 . S
Li352 O414 1.961 1_554 S
Li353 N377 1.990 . S
Li353 O412 1.970 . S
Li353 O413 1.956 . S
Li353 O415 1.961 1_554 S
Li354 N399 1.990 . S
Li354 O412 1.961 1_556 S
Li354 O414 1.956 . S
Li354 O415 1.970 . S
Li355 N405 1.990 . S
Li355 O413 1.961 1_556 S
Li355 O414 1.970 . S
Li355 O415 1.956 . S
C356 C358 1.348 . S
C356 C359 1.356 . S
C356 O412 1.325 . S
N357 C360 1.314 . S
N357 C361 1.279 . S
C358 C356 1.348 . S
C358 C360 1.353 . S
C358 H416 0.929 . S
C359 C356 1.356 . S
C359 C361 1.358 . S
C359 H417 0.930 . S
C360 N357 1.314 . S
C360 C358 1.353 . S
C360 H418 0.930 . S
C361 N357 1.279 . S
C361 C359 1.358 . S
C361 H419 0.930 . S
C362 C365 1.348 . S
C362 C366 1.356 . S
C362 O413 1.325 . S
C363 N364 1.279 . S
C363 C366 1.358 . S
C363 H420 0.930 . S
N364 C363 1.279 . S
N364 C367 1.314 . S
C365 C362 1.348 . S
C365 C367 1.353 . S
C365 H421 0.929 . S
C366 C362 1.356 . S
C366 C363 1.358 . S
C366 H422 0.930 . S
C367 N364 1.314 . S
C367 C365 1.353 . S
C367 H423 0.930 . S
C368 N369 1.314 . S
C368 C373 1.353 . S
C368 H374 0.930 . S
N369 Li352 1.990 . S
N369 C368 1.314 . S
N369 C371 1.279 . S
C370 C371 1.358 . S
C370 C372 1.356 . S
C370 H424 0.930 . S
C371 N369 1.279 . S
C371 C370 1.358 . S
C371 H375 0.930 . S
C372 C370 1.356 . S
C372 C373 1.348 . S
C373 C368 1.353 . S
C373 C372 1.348 . S
C373 H425 0.929 . S
H374 C368 0.930 . S
H375 C371 0.930 . S
C376 N377 1.314 . S
C376 C378 1.353 . S
C376 H382 0.930 . S
N377 Li353 1.990 . S
N377 C376 1.314 . S
N377 C380 1.279 . S
C378 C376 1.353 . S
C378 C381 1.348 . S
C378 H426 0.929 . S
C379 C380 1.358 . S
C379 C381 1.356 . S
C379 H427 0.930 . S
C380 N377 1.279 . S
C380 C379 1.358 . S
C380 H383 0.930 . S
C381 C378 1.348 . S
C381 C379 1.356 . S
H382 C376 0.930 . S
H383 C380 0.930 . S
C384 C386 1.348 . S
C384 C387 1.356 . S
C384 O414 1.325 . S
N385 C388 1.314 . S
N385 C389 1.279 . S
C386 C384 1.348 . S
C386 C388 1.353 . S
C386 H428 0.929 . S
C387 C384 1.356 . S
C387 C389 1.358 . S
C387 H429 0.930 . S
C388 N385 1.314 . S
C388 C386 1.353 . S
C388 H430 0.930 . S
C389 N385 1.279 . S
C389 C387 1.358 . S
C389 H431 0.930 . S
C390 C391 1.348 . S
C390 C392 1.363 . S
C390 O415 1.325 . S
C391 C390 1.348 . S
C391 C393 1.353 . S
C391 H432 0.929 . S
C392 C390 1.363 . S
C392 C394 1.364 . S
C392 H433 0.917 1_556 S
C393 C391 1.353 . S
C393 N395 1.314 . S
C393 H434 0.930 . S
C394 C392 1.364 . S
C394 N395 1.279 . S
C394 H435 0.927 1_556 S
N395 C393 1.314 . S
N395 C394 1.279 . S
C396 C398 1.353 . S
C396 N399 1.314 . S
C396 H402 0.930 . S
C397 N399 1.279 . S
C397 C400 1.358 . S
C397 H403 0.930 . S
C398 C396 1.353 . S
C398 C401 1.348 . S
C398 H436 0.929 . S
N399 Li354 1.990 . S
N399 C396 1.314 . S
N399 C397 1.279 . S
C400 C397 1.358 . S
C400 C401 1.356 . S
C400 H437 0.930 . S
C401 C398 1.348 . S
C401 C400 1.356 . S
H402 C396 0.930 . S
H403 C397 0.930 . S
C404 N405 1.314 . S
C404 C406 1.353 . S
C404 H410 0.930 . S
N405 Li355 1.990 . S
N405 C404 1.314 . S
N405 C408 1.279 . S
C406 C404 1.353 . S
C406 C409 1.348 . S
C406 H438 0.929 . S
C407 C408 1.358 . S
C407 C409 1.356 . S
C407 H439 0.930 . S
C408 N405 1.279 . S
C408 C407 1.358 . S
C408 H411 0.930 . S
C409 C406 1.348 . S
C409 C407 1.356 . S
H410 C404 0.930 . S
H411 C408 0.930 . S
O412 Li352 1.956 . S
O412 Li353 1.970 . S
O412 Li354 1.961 1_554 S
O412 C356 1.325 . S
O413 Li352 1.970 . S
O413 Li353 1.956 . S
O413 Li355 1.961 1_554 S
O413 C362 1.325 . S
O414 Li352 1.961 1_556 S
O414 Li354 1.956 . S
O414 Li355 1.970 . S
O414 C384 1.325 . S
O415 Li353 1.961 1_556 S
O415 Li354 1.970 . S
O415 Li355 1.956 . S
O415 C390 1.325 . S
H416 C358 0.929 . S
H417 C359 0.930 . S
H418 C360 0.930 . S
H419 C361 0.930 . S
H420 C363 0.930 . S
H421 C365 0.929 . S
H422 C366 0.930 . S
H423 C367 0.930 . S
H424 C370 0.930 . S
H425 C373 0.929 . S
H426 C378 0.929 . S
H427 C379 0.930 . S
H428 C386 0.929 . S
H429 C387 0.930 . S
H430 C388 0.930 . S
H431 C389 0.930 . S
H432 C391 0.929 . S
H433 C392 0.917 1_554 S
H434 C393 0.930 . S
H435 C394 0.927 1_554 S
H436 C398 0.929 . S
H437 C400 0.930 . S
H438 C406 0.929 . S
H439 C407 0.930 . S
Li440 N457 1.990 . S
Li440 O500 1.956 . S
Li440 O501 1.970 1_565 S
Li440 O502 1.961 . S
Li441 N465 1.990 . S
Li441 O500 1.970 1_545 S
Li441 O501 1.956 . S
Li441 O503 1.961 . S
Li442 N487 1.986 . S
Li442 O500 1.961 . S
Li442 O502 1.956 . S
Li442 O503 1.970 1_565 S
Li443 N493 1.990 . S
Li443 O501 1.961 . S
Li443 O502 1.970 1_545 S
Li443 O503 1.956 . S
C444 C446 1.348 . S
C444 C447 1.356 . S
C444 O500 1.325 . S
N445 C448 1.314 . S
N445 C449 1.279 . S
C446 C444 1.348 . S
C446 C448 1.353 . S
C446 H504 0.929 . S
C447 C444 1.356 . S
C447 C449 1.358 . S
C447 H505 0.930 . S
C448 N445 1.314 . S
C448 C446 1.353 . S
C448 H506 0.930 . S
C449 N445 1.279 . S
C449 C447 1.358 . S
C449 H507 0.930 . S
C450 C453 1.348 . S
C450 C454 1.356 . S
C450 O501 1.325 . S
C451 N452 1.279 . S
C451 C454 1.358 . S
C451 H508 0.930 . S
N452 C451 1.279 . S
N452 C455 1.314 . S
C453 C450 1.348 . S
C453 C455 1.353 . S
C453 H509 0.929 1_545 S
C454 C450 1.356 . S
C454 C451 1.358 . S
C454 H510 0.930 . S
C455 N452 1.314 . S
C455 C453 1.353 . S
C455 H511 0.930 . S
C456 N457 1.314 . S
C456 C461 1.353 . S
C456 H462 0.930 . S
N457 Li440 1.990 . S
N457 C456 1.314 . S
N457 C459 1.279 . S
C458 C459 1.358 . S
C458 C460 1.356 . S
C458 H512 0.930 . S
C459 N457 1.279 . S
C459 C458 1.358 . S
C459 H463 0.930 . S
C460 C458 1.356 . S
C460 C461 1.348 . S
C461 C456 1.353 . S
C461 C460 1.348 . S
C461 H513 0.929 . S
H462 C456 0.930 . S
H463 C459 0.930 . S
C464 N465 1.314 . S
C464 C466 1.353 . S
C464 H470 0.930 . S
N465 Li441 1.990 . S
N465 C464 1.314 . S
N465 C468 1.279 . S
C466 C464 1.353 . S
C466 C469 1.348 . S
C466 H514 0.929 . S
C467 C468 1.358 . S
C467 C469 1.356 . S
C467 H515 0.930 . S
C468 N465 1.279 . S
C468 C467 1.358 . S
C468 H471 0.930 . S
C469 C466 1.348 . S
C469 C467 1.356 . S
H470 C464 0.930 . S
H471 C468 0.930 . S
C472 C474 1.348 1_564 S
C472 C475 1.356 . S
C472 O502 1.325 . S
N473 C476 1.314 . S
N473 C477 1.279 . S
C474 C472 1.348 1_546 S
C474 C476 1.353 1_545 S
C474 H516 0.929 . S
C475 C472 1.356 . S
C475 C477 1.358 1_554 S
C475 H517 0.930 . S
C476 N473 1.314 . S
C476 C474 1.353 1_565 S
C476 H518 0.930 1_565 S
C477 N473 1.279 . S
C477 C475 1.358 1_556 S
C477 H519 0.930 . S
C478 C479 1.348 . S
C478 C480 1.356 . S
C478 O503 1.325 . S
C479 C478 1.348 . S
C479 C481 1.353 . S
C479 H520 0.929 . S
C480 C478 1.356 . S
C480 C482 1.358 . S
C480 H521 0.930 . S
C481 C479 1.353 . S
C481 N483 1.314 . S
C481 H522 0.930 1_554 S
C482 C480 1.358 . S
C482 N483 1.279 . S
C482 H523 0.930 . S
N483 C481 1.314 . S
N483 C482 1.279 . S
C484 C486 1.353 1_554 S
C484 N487 1.314 . S
C484 H490 0.930 . S
C485 N487 1.285 1_556 S
C485 C488 1.358 . S
C485 H491 0.930 . S
C486 C484 1.353 1_556 S
C486 C489 1.348 . S
C486 H524 0.929 . S
N487 Li442 1.986 . S
N487 C484 1.314 . S
N487 C485 1.285 1_554 S
C488 C485 1.358 . S
C488 C489 1.356 . S
C488 H525 0.930 . S
C489 C486 1.348 . S
C489 C488 1.356 . S
H490 C484 0.930 . S
H491 C485 0.930 . S
C492 N493 1.314 . S
C492 C494 1.353 . S
C492 H498 0.930 . S
N493 Li443 1.990 . S
N493 C492 1.314 . S
N493 C496 1.279 . S
C494 C492 1.353 . S
C494 C497 1.348 . S
C494 H526 0.929 . S
C495 C496 1.358 . S
C495 C497 1.356 . S
C495 H527 0.930 . S
C496 N493 1.279 . S
C496 C495 1.358 . S
C496 H499 0.930 . S
C497 C494 1.348 . S
C497 C495 1.356 . S
H498 C492 0.930 . S
H499 C496 0.930 . S
O500 Li440 1.956 . S
O500 Li441 1.970 1_565 S
O500 Li442 1.961 . S
O500 C444 1.325 . S
O501 Li440 1.970 1_545 S
O501 Li441 1.956 . S
O501 Li443 1.961 . S
O501 C450 1.325 . S
O502 Li440 1.961 . S
O502 Li442 1.956 . S
O502 Li443 1.970 1_565 S
O502 C472 1.325 . S
O503 Li441 1.961 . S
O503 Li442 1.970 1_545 S
O503 Li443 1.956 . S
O503 C478 1.325 . S
H504 C446 0.929 . S
H505 C447 0.930 . S
H506 C448 0.930 . S
H507 C449 0.930 . S
H508 C451 0.930 . S
H509 C453 0.929 1_565 S
H510 C454 0.930 . S
H511 C455 0.930 . S
H512 C458 0.930 . S
H513 C461 0.929 . S
H514 C466 0.929 . S
H515 C467 0.930 . S
H516 C474 0.929 . S
H517 C475 0.930 . S
H518 C476 0.930 1_545 S
H519 C477 0.930 . S
H520 C479 0.929 . S
H521 C480 0.930 . S
H522 C481 0.930 1_556 S
H523 C482 0.930 . S
H524 C486 0.929 . S
H525 C488 0.930 . S
H526 C494 0.929 . S
H527 C495 0.930 . S
Li528 N545 1.990 . S
Li528 O588 1.956 . S
Li528 O589 1.970 . S
Li528 O590 1.961 . S
Li529 N553 1.990 . S
Li529 O588 1.970 . S
Li529 O589 1.956 . S
Li529 O591 1.961 . S
Li530 N575 1.990 . S
Li530 O588 1.961 . S
Li530 O590 1.956 . S
Li530 O591 1.970 . S
Li531 N581 1.990 . S
Li531 O589 1.961 . S
Li531 O590 1.970 . S
Li531 O591 1.956 . S
C532 C534 1.348 . S
C532 C535 1.356 . S
C532 O588 1.325 . S
N533 C536 1.314 . S
N533 C537 1.279 . S
C534 C532 1.348 . S
C534 C536 1.353 . S
C534 H592 0.929 . S
C535 C532 1.356 . S
C535 C537 1.358 . S
C535 H593 0.930 . S
C536 N533 1.314 . S
C536 C534 1.353 . S
C536 H594 0.930 . S
C537 N533 1.279 . S
C537 C535 1.358 . S
C537 H595 0.930 . S
C538 C541 1.348 . S
C538 C542 1.356 . S
C538 O589 1.325 . S
C539 N540 1.279 . S
C539 C542 1.358 . S
C539 H596 0.930 . S
N540 C539 1.279 . S
N540 C543 1.314 . S
C541 C538 1.348 . S
C541 C543 1.353 . S
C541 H597 0.929 . S
C542 C538 1.356 . S
C542 C539 1.358 . S
C542 H598 0.930 . S
C543 N540 1.314 . S
C543 C541 1.353 . S
C543 H599 0.930 . S
C544 N545 1.314 . S
C544 C549 1.353 . S
C544 H550 0.930 . S
N545 Li528 1.990 . S
N545 C544 1.314 . S
N545 C547 1.279 . S
C546 C547 1.358 . S
C546 C548 1.356 . S
C546 H600 0.930 . S
C547 N545 1.279 . S
C547 C546 1.358 . S
C547 H551 0.930 . S
C548 C546 1.356 . S
C548 C549 1.348 . S
C549 C544 1.353 . S
C549 C548 1.348 . S
C549 H601 0.929 . S
H550 C544 0.930 . S
H551 C547 0.930 . S
C552 N553 1.314 . S
C552 C554 1.353 . S
C552 H558 0.930 . S
N553 Li529 1.990 . S
N553 C552 1.314 . S
N553 C556 1.279 . S
C554 C552 1.353 . S
C554 C557 1.348 . S
C554 H602 0.929 . S
C555 C556 1.358 . S
C555 C557 1.356 . S
C555 H603 0.930 . S
C556 N553 1.279 . S
C556 C555 1.358 . S
C556 H559 0.930 . S
C557 C554 1.348 . S
C557 C555 1.356 . S
H558 C552 0.930 . S
H559 C556 0.930 . S
C560 C562 1.348 . S
C560 C563 1.356 . S
C560 O590 1.325 . S
N561 C564 1.314 . S
N561 C565 1.279 . S
C562 C560 1.348 . S
C562 C564 1.353 . S
C562 H604 0.929 . S
C563 C560 1.356 . S
C563 C565 1.358 . S
C563 H605 0.930 . S
C564 N561 1.314 . S
C564 C562 1.353 . S
C564 H606 0.930 . S
C565 N561 1.279 . S
C565 C563 1.358 . S
C565 H607 0.930 . S
C566 C567 1.348 . S
C566 C568 1.356 . S
C566 O591 1.325 . S
C567 C566 1.348 . S
C567 C569 1.353 . S
C567 H608 0.929 . S
C568 C566 1.356 . S
C568 C570 1.358 . S
C568 H609 0.930 . S
C569 C567 1.353 . S
C569 N571 1.314 . S
C569 H610 0.930 . S
C570 C568 1.358 . S
C570 N571 1.279 . S
C570 H611 0.930 . S
N571 C569 1.314 . S
N571 C570 1.279 . S
C572 C574 1.353 . S
C572 N575 1.314 . S
C572 H578 0.930 . S
C573 N575 1.279 . S
C573 C576 1.358 . S
C573 H579 0.930 . S
C574 C572 1.353 . S
C574 C577 1.348 . S
C574 H612 0.929 . S
N575 Li530 1.990 . S
N575 C572 1.314 . S
N575 C573 1.279 . S
C576 C573 1.358 . S
C576 C577 1.356 . S
C576 H613 0.930 . S
C577 C574 1.348 . S
C577 C576 1.356 . S
H578 C572 0.930 . S
H579 C573 0.930 . S
C580 N581 1.314 . S
C580 C582 1.353 . S
C580 H586 0.930 . S
N581 Li531 1.990 . S
N581 C580 1.314 . S
N581 C584 1.279 . S
C582 C580 1.353 . S
C582 C585 1.348 . S
C582 H614 0.929 . S
C583 C584 1.358 . S
C583 C585 1.356 . S
C583 H615 0.930 . S
C584 N581 1.279 . S
C584 C583 1.358 . S
C584 H587 0.930 . S
C585 C582 1.348 . S
C585 C583 1.356 . S
H586 C580 0.930 . S
H587 C584 0.930 . S
O588 Li528 1.956 . S
O588 Li529 1.970 . S
O588 Li530 1.961 . S
O588 C532 1.325 . S
O589 Li528 1.970 . S
O589 Li529 1.956 . S
O589 Li531 1.961 . S
O589 C538 1.325 . S
O590 Li528 1.961 . S
O590 Li530 1.956 . S
O590 Li531 1.970 . S
O590 C560 1.325 . S
O591 Li529 1.961 . S
O591 Li530 1.970 . S
O591 Li531 1.956 . S
O591 C566 1.325 . S
H592 C534 0.929 . S
H593 C535 0.930 . S
H594 C536 0.930 . S
H595 C537 0.930 . S
H596 C539 0.930 . S
H597 C541 0.929 . S
H598 C542 0.930 . S
H599 C543 0.930 . S
H600 C546 0.930 . S
H601 C549 0.929 . S
H602 C554 0.929 . S
H603 C555 0.930 . S
H604 C562 0.929 . S
H605 C563 0.930 . S
H606 C564 0.930 . S
H607 C565 0.930 . S
H608 C567 0.929 . S
H609 C568 0.930 . S
H610 C569 0.930 . S
H611 C570 0.930 . S
H612 C574 0.929 . S
H613 C576 0.930 . S
H614 C582 0.929 . S
H615 C583 0.930 . S
Li616 N633 1.990 . S
Li616 O676 1.956 . S
Li616 O677 1.970 . S
Li616 O678 1.961 . S
Li617 N641 1.990 . S
Li617 O676 1.970 . S
Li617 O677 1.956 . S
Li617 O679 1.961 . S
Li618 N663 1.990 1_565 S
Li618 O676 1.961 . S
Li618 O678 1.956 . S
Li618 O679 1.970 . S
Li619 N669 1.990 . S
Li619 O677 1.961 . S
Li619 O678 1.970 . S
Li619 O679 1.956 . S
C620 C622 1.348 . S
C620 C623 1.356 . S
C620 O676 1.325 . S
N621 C624 1.314 . S
N621 C625 1.279 . S
C622 C620 1.348 . S
C622 C624 1.353 . S
C622 H680 0.929 . S
C623 C620 1.356 . S
C623 C625 1.358 . S
C623 H681 0.930 . S
C624 N621 1.314 . S
C624 C622 1.353 . S
C624 H682 0.930 . S
C625 N621 1.279 . S
C625 C623 1.358 . S
C625 H683 0.930 . S
C626 C629 1.348 . S
C626 C630 1.356 . S
C626 O677 1.325 . S
C627 N628 1.279 . S
C627 C630 1.358 . S
C627 H684 0.930 . S
N628 C627 1.279 . S
N628 C631 1.314 . S
C629 C626 1.348 . S
C629 C631 1.353 . S
C629 H685 0.929 . S
C630 C626 1.356 . S
C630 C627 1.358 . S
C630 H686 0.930 . S
C631 N628 1.314 . S
C631 C629 1.353 . S
C631 H687 0.930 . S
C632 N633 1.314 . S
C632 C637 1.353 . S
C632 H638 0.930 . S
N633 Li616 1.990 . S
N633 C632 1.314 . S
N633 C635 1.279 . S
C634 C635 1.358 . S
C634 C636 1.356 . S
C634 H688 0.930 . S
C635 N633 1.279 . S
C635 C634 1.358 . S
C635 H639 0.930 . S
C636 C634 1.356 . S
C636 C637 1.348 . S
C637 C632 1.353 . S
C637 C636 1.348 . S
C637 H689 0.929 . S
H638 C632 0.930 . S
H639 C635 0.930 . S
C640 N641 1.314 . S
C640 C642 1.353 . S
C640 H646 0.930 . S
N641 Li617 1.990 . S
N641 C640 1.314 . S
N641 C644 1.279 . S
C642 C640 1.353 . S
C642 C645 1.348 . S
C642 H690 0.929 . S
C643 C644 1.358 . S
C643 C645 1.356 . S
C643 H691 0.930 . S
C644 N641 1.279 . S
C644 C643 1.358 . S
C644 H647 0.930 . S
C645 C642 1.348 . S
C645 C643 1.356 . S
H646 C640 0.930 . S
H647 C644 0.930 . S
C648 C650 1.348 . S
C648 C651 1.356 . S
C648 O678 1.325 . S
N649 C652 1.314 . S
N649 C653 1.279 . S
C650 C648 1.348 . S
C650 C652 1.332 1_565 S
C650 H692 0.951 . S
C651 C648 1.356 . S
C651 C653 1.358 1_565 S
C651 H693 0.930 . S
C652 N649 1.314 . S
C652 C650 1.332 1_545 S
C652 H694 0.930 . S
C653 N649 1.279 . S
C653 C651 1.358 1_545 S
C653 H695 0.930 . S
C654 C655 1.348 . S
C654 C656 1.356 . S
C654 O679 1.325 . S
C655 C654 1.348 . S
C655 C657 1.353 . S
C655 H696 0.929 1_565 S
C656 C654 1.356 . S
C656 C658 1.358 . S
C656 H697 0.930 . S
C657 C655 1.353 . S
C657 N659 1.314 . S
C657 H698 0.930 1_565 S
C658 C656 1.358 . S
C658 N659 1.279 . S
C658 H699 0.930 . S
N659 C657 1.314 . S
N659 C658 1.279 . S
C660 C662 1.353 . S
C660 N663 1.314 . S
C660 H666 0.954 . S
C661 N663 1.279 . S
C661 C664 1.358 . S
C661 H667 0.930 . S
C662 C660 1.353 . S
C662 C665 1.348 . S
C662 H700 0.929 . S
N663 Li618 1.990 1_545 S
N663 C660 1.314 . S
N663 C661 1.279 . S
C664 C661 1.358 . S
C664 C665 1.356 . S
C664 H701 0.930 . S
C665 C662 1.348 . S
C665 C664 1.356 . S
H666 C660 0.954 . S
H667 C661 0.930 . S
C668 N669 1.314 . S
C668 C670 1.353 . S
C668 H674 0.930 . S
N669 Li619 1.990 . S
N669 C668 1.314 . S
N669 C672 1.279 . S
C670 C668 1.353 . S
C670 C673 1.348 . S
C670 H702 0.929 . S
C671 C672 1.358 . S
C671 C673 1.356 . S
C671 H703 0.930 . S
C672 N669 1.279 . S
C672 C671 1.358 . S
C672 H675 0.930 . S
C673 C670 1.348 . S
C673 C671 1.356 . S
H674 C668 0.930 . S
H675 C672 0.930 . S
O676 Li616 1.956 . S
O676 Li617 1.970 . S
O676 Li618 1.961 . S
O676 C620 1.325 . S
O677 Li616 1.970 . S
O677 Li617 1.956 . S
O677 Li619 1.961 . S
O677 C626 1.325 . S
O678 Li616 1.961 . S
O678 Li618 1.956 . S
O678 Li619 1.970 . S
O678 C648 1.325 . S
O679 Li617 1.961 . S
O679 Li618 1.970 . S
O679 Li619 1.956 . S
O679 C654 1.325 . S
H680 C622 0.929 . S
H681 C623 0.930 . S
H682 C624 0.930 . S
H683 C625 0.930 . S
H684 C627 0.930 . S
H685 C629 0.929 . S
H686 C630 0.930 . S
H687 C631 0.930 . S
H688 C634 0.930 . S
H689 C637 0.929 . S
H690 C642 0.929 . S
H691 C643 0.930 . S
H692 C650 0.951 . S
H693 C651 0.930 . S
H694 C652 0.930 . S
H695 C653 0.930 . S
H696 C655 0.929 1_545 S
H697 C656 0.930 . S
H698 C657 0.930 1_545 S
H699 C658 0.930 . S
H700 C662 0.929 . S
H701 C664 0.930 . S
H702 C670 0.929 . S
H703 C671 0.930 . S
Li704 N721 1.990 . S
Li704 O764 1.956 . S
Li704 O765 1.970 . S
Li704 O766 1.961 . S
Li705 N729 1.990 . S
Li705 O764 1.970 . S
Li705 O765 1.956 . S
Li705 O767 1.961 . S
Li706 N751 1.990 . S
Li706 O764 1.961 . S
Li706 O766 1.956 . S
Li706 O767 1.970 . S
Li707 N757 1.990 . S
Li707 O765 1.961 . S
Li707 O766 1.970 . S
Li707 O767 1.956 . S
C708 C710 1.348 . S
C708 C711 1.356 . S
C708 O764 1.325 . S
N709 C712 1.314 . S
N709 C713 1.279 . S
C710 C708 1.348 . S
C710 C712 1.353 . S
C710 H768 0.929 . S
C711 C708 1.356 . S
C711 C713 1.358 . S
C711 H769 0.930 . S
C712 N709 1.314 . S
C712 C710 1.353 . S
C712 H770 0.930 . S
C713 N709 1.279 . S
C713 C711 1.358 . S
C713 H771 0.930 . S
C714 C717 1.348 . S
C714 C718 1.356 . S
C714 O765 1.325 . S
C715 N716 1.279 . S
C715 C718 1.358 . S
C715 H772 0.930 . S
N716 C715 1.279 . S
N716 C719 1.314 . S
C717 C714 1.348 . S
C717 C719 1.353 . S
C717 H773 0.929 . S
C718 C714 1.356 . S
C718 C715 1.358 . S
C718 H774 0.930 . S
C719 N716 1.314 . S
C719 C717 1.353 . S
C719 H775 0.930 . S
C720 N721 1.314 . S
C720 C725 1.353 . S
C720 H726 0.930 . S
N721 Li704 1.990 . S
N721 C720 1.314 . S
N721 C723 1.279 . S
C722 C723 1.358 . S
C722 C724 1.356 . S
C722 H776 0.930 . S
C723 N721 1.279 . S
C723 C722 1.358 . S
C723 H727 0.930 . S
C724 C722 1.356 . S
C724 C725 1.348 . S
C725 C720 1.353 . S
C725 C724 1.348 . S
C725 H777 0.929 . S
H726 C720 0.930 . S
H727 C723 0.930 . S
C728 N729 1.314 . S
C728 C730 1.353 . S
C728 H734 0.930 . S
N729 Li705 1.990 . S
N729 C728 1.314 . S
N729 C732 1.279 . S
C730 C728 1.353 . S
C730 C733 1.348 . S
C730 H778 0.929 . S
C731 C732 1.358 . S
C731 C733 1.356 . S
C731 H779 0.930 . S
C732 N729 1.279 . S
C732 C731 1.358 . S
C732 H735 0.930 . S
C733 C730 1.348 . S
C733 C731 1.356 . S
H734 C728 0.930 . S
H735 C732 0.930 . S
C736 C738 1.348 . S
C736 C739 1.356 . S
C736 O766 1.325 . S
N737 C740 1.314 . S
N737 C741 1.279 . S
C738 C736 1.348 . S
C738 C740 1.353 1_455 S
C738 H780 0.929 . S
C739 C736 1.356 . S
C739 C741 1.358 1_455 S
C739 H781 0.930 . S
C740 N737 1.314 . S
C740 C738 1.353 1_655 S
C740 H782 0.930 . S
C741 N737 1.279 . S
C741 C739 1.358 1_655 S
C741 H783 0.930 . S
C742 C743 1.348 . S
C742 C744 1.356 . S
C742 O767 1.325 . S
C743 C742 1.348 . S
C743 C745 1.353 . S
C743 H784 0.929 . S
C744 C742 1.356 . S
C744 C746 1.358 . S
C744 H785 0.930 . S
C745 C743 1.353 . S
C745 N747 1.314 . S
C745 H786 0.970 . S
C746 C744 1.358 . S
C746 N747 1.279 . S
C746 H787 0.930 . S
N747 C745 1.314 . S
N747 C746 1.279 . S
C748 C750 1.384 . S
C748 N751 1.320 1_655 S
C748 H754 0.890 1_655 S
C749 N751 1.279 1_655 S
C749 C752 1.358 . S
C749 H755 0.930 . S
C750 C748 1.384 . S
C750 C753 1.348 . S
C750 H788 0.929 . S
N751 Li706 1.990 . S
N751 C748 1.320 1_455 S
N751 C749 1.279 1_455 S
C752 C749 1.358 . S
C752 C753 1.356 . S
C752 H789 0.930 . S
C753 C750 1.348 . S
C753 C752 1.356 . S
H754 C748 0.890 1_455 S
H755 C749 0.930 . S
C756 N757 1.314 . S
C756 C758 1.353 . S
C756 H762 0.930 . S
N757 Li707 1.990 . S
N757 C756 1.314 . S
N757 C760 1.279 . S
C758 C756 1.353 . S
C758 C761 1.348 . S
C758 H790 0.929 . S
C759 C760 1.358 . S
C759 C761 1.356 . S
C759 H791 0.930 . S
C760 N757 1.279 . S
C760 C759 1.358 . S
C760 H763 0.930 . S
C761 C758 1.348 . S
C761 C759 1.356 . S
H762 C756 0.930 . S
H763 C760 0.930 . S
O764 Li704 1.956 . S
O764 Li705 1.970 . S
O764 Li706 1.961 . S
O764 C708 1.325 . S
O765 Li704 1.970 . S
O765 Li705 1.956 . S
O765 Li707 1.961 . S
O765 C714 1.325 . S
O766 Li704 1.961 . S
O766 Li706 1.956 . S
O766 Li707 1.970 . S
O766 C736 1.325 . S
O767 Li705 1.961 . S
O767 Li706 1.970 . S
O767 Li707 1.956 . S
O767 C742 1.325 . S
H768 C710 0.929 . S
H769 C711 0.930 . S
H770 C712 0.930 . S
H771 C713 0.930 . S
H772 C715 0.930 . S
H773 C717 0.929 . S
H774 C718 0.930 . S
H775 C719 0.930 . S
H776 C722 0.930 . S
H777 C725 0.929 . S
H778 C730 0.929 . S
H779 C731 0.930 . S
H780 C738 0.929 . S
H781 C739 0.930 . S
H782 C740 0.930 . S
H783 C741 0.930 . S
H784 C743 0.929 . S
H785 C744 0.930 . S
H786 C745 0.970 . S
H787 C746 0.930 . S
H788 C750 0.929 . S
H789 C752 0.930 . S
H790 C758 0.929 . S
H791 C759 0.930 . S
Li792 N809 1.990 1_565 S
Li792 O852 1.956 . S
Li792 O853 1.970 . S
Li792 O854 1.961 . S
Li793 N817 1.990 . S
Li793 O852 1.970 . S
Li793 O853 1.956 . S
Li793 O855 1.961 . S
Li794 N839 1.990 . S
Li794 O852 1.961 . S
Li794 O854 1.956 . S
Li794 O855 1.970 . S
Li795 N845 1.990 . S
Li795 O853 1.961 . S
Li795 O854 1.970 . S
Li795 O855 1.956 . S
C796 C798 1.348 . S
C796 C799 1.356 . S
C796 O852 1.325 . S
N797 C800 1.314 . S
N797 C801 1.279 . S
C798 C796 1.348 . S
C798 C800 1.353 . S
C798 H856 0.929 . S
C799 C796 1.356 . S
C799 C801 1.358 . S
C799 H857 0.930 . S
C800 N797 1.314 . S
C800 C798 1.353 . S
C800 H858 0.930 . S
C801 N797 1.279 . S
C801 C799 1.358 . S
C801 H859 0.930 . S
C802 C805 1.348 . S
C802 C806 1.356 . S
C802 O853 1.325 . S
C803 N804 1.279 . S
C803 C806 1.358 . S
C803 H860 0.930 . S
N804 C803 1.279 . S
N804 C807 1.314 . S
C805 C802 1.348 . S
C805 C807 1.353 . S
C805 H861 0.929 . S
C806 C802 1.356 . S
C806 C803 1.358 . S
C806 H862 0.930 . S
C807 N804 1.314 . S
C807 C805 1.353 . S
C807 H863 0.930 1_565 S
C808 N809 1.314 . S
C808 C813 1.353 . S
C808 H814 0.930 . S
N809 Li792 1.990 1_545 S
N809 C808 1.314 . S
N809 C811 1.279 . S
C810 C811 1.358 . S
C810 C812 1.356 . S
C810 H864 0.930 . S
C811 N809 1.279 . S
C811 C810 1.358 . S
C811 H815 0.930 . S
C812 C810 1.356 . S
C812 C813 1.348 . S
C813 C808 1.353 . S
C813 C812 1.348 . S
C813 H865 0.929 . S
H814 C808 0.930 . S
H815 C811 0.930 . S
C816 N817 1.314 . S
C816 C818 1.353 . S
C816 H822 0.930 . S
N817 Li793 1.990 . S
N817 C816 1.314 . S
N817 C820 1.279 . S
C818 C816 1.353 . S
C818 C821 1.348 . S
C818 H866 0.929 . S
C819 C820 1.358 . S
C819 C821 1.356 . S
C819 H867 0.930 . S
C820 N817 1.279 . S
C820 C819 1.358 . S
C820 H823 0.930 . S
C821 C818 1.348 . S
C821 C819 1.356 . S
H822 C816 0.930 . S
H823 C820 0.930 . S
C824 C826 1.348 . S
C824 C827 1.356 1_565 S
C824 O854 1.325 . S
N825 C828 1.314 . S
N825 C829 1.279 . S
C826 C824 1.348 . S
C826 C828 1.353 1_565 S
C826 H868 0.929 . S
C827 C824 1.356 1_545 S
C827 C829 1.358 . S
C827 H869 0.930 . S
C828 N825 1.314 . S
C828 C826 1.353 1_545 S
C828 H870 0.930 . S
C829 N825 1.279 . S
C829 C827 1.358 . S
C829 H871 0.930 . S
C830 C831 1.348 . S
C830 C832 1.356 . S
C830 O855 1.325 . S
C831 C830 1.348 . S
C831 C833 1.353 . S
C831 H872 0.929 . S
C832 C830 1.356 . S
C832 C834 1.358 . S
C832 H873 0.930 . S
C833 C831 1.353 . S
C833 N835 1.314 . S
C833 H874 0.930 . S
C834 C832 1.358 . S
C834 N835 1.279 . S
C834 H875 0.930 . S
N835 C833 1.314 . S
N835 C834 1.279 . S
C836 C838 1.353 . S
C836 N839 1.314 . S
C836 H842 0.930 . S
C837 N839 1.279 . S
C837 C840 1.358 . S
C837 H843 0.930 . S
C838 C836 1.353 . S
C838 C841 1.348 . S
C838 H876 0.929 . S
N839 Li794 1.990 . S
N839 C836 1.314 . S
N839 C837 1.279 . S
C840 C837 1.358 . S
C840 C841 1.356 . S
C840 H877 0.930 . S
C841 C838 1.348 . S
C841 C840 1.356 . S
H842 C836 0.930 . S
H843 C837 0.930 . S
C844 N845 1.314 . S
C844 C846 1.353 . S
C844 H850 0.930 . S
N845 Li795 1.990 . S
N845 C844 1.314 . S
N845 C848 1.279 . S
C846 C844 1.353 . S
C846 C849 1.348 . S
C846 H878 0.929 . S
C847 C848 1.358 . S
C847 C849 1.356 . S
C847 H879 0.930 . S
C848 N845 1.279 . S
C848 C847 1.358 . S
C848 H851 0.930 . S
C849 C846 1.348 . S
C849 C847 1.356 . S
H850 C844 0.930 . S
H851 C848 0.930 . S
O852 Li792 1.956 . S
O852 Li793 1.970 . S
O852 Li794 1.961 . S
O852 C796 1.325 . S
O853 Li792 1.970 . S
O853 Li793 1.956 . S
O853 Li795 1.961 . S
O853 C802 1.325 . S
O854 Li792 1.961 . S
O854 Li794 1.956 . S
O854 Li795 1.970 . S
O854 C824 1.325 . S
O855 Li793 1.961 . S
O855 Li794 1.970 . S
O855 Li795 1.956 . S
O855 C830 1.325 . S
H856 C798 0.929 . S
H857 C799 0.930 . S
H858 C800 0.930 . S
H859 C801 0.930 . S
H860 C803 0.930 . S
H861 C805 0.929 . S
H862 C806 0.930 . S
H863 C807 0.930 1_545 S
H864 C810 0.930 . S
H865 C813 0.929 . S
H866 C818 0.929 . S
H867 C819 0.930 . S
H868 C826 0.929 . S
H869 C827 0.930 . S
H870 C828 0.930 . S
H871 C829 0.930 . S
H872 C831 0.929 . S
H873 C832 0.930 . S
H874 C833 0.930 . S
H875 C834 0.930 . S
H876 C838 0.929 . S
H877 C840 0.930 . S
H878 C846 0.929 . S
H879 C847 0.930 . S
Li880 N897 1.990 . S
Li880 O940 1.956 . S
Li880 O941 1.970 . S
Li880 O942 1.961 . S
Li881 N905 1.990 1_455 S
Li881 O940 1.970 . S
Li881 O941 1.956 . S
Li881 O943 1.961 . S
Li882 N927 1.990 . S
Li882 O940 1.961 . S
Li882 O942 1.956 . S
Li882 O943 1.970 . S
Li883 N933 1.990 . S
Li883 O941 1.961 . S
Li883 O942 1.970 . S
Li883 O943 1.956 . S
C884 C886 1.348 . S
C884 C887 1.356 . S
C884 O940 1.325 . S
N885 C888 1.314 . S
N885 C889 1.279 . S
C886 C884 1.348 . S
C886 C888 1.353 . S
C886 H944 0.929 . S
C887 C884 1.356 . S
C887 C889 1.358 . S
C887 H945 0.930 . S
C888 N885 1.314 . S
C888 C886 1.353 . S
C888 H946 0.930 . S
C889 N885 1.279 . S
C889 C887 1.358 . S
C889 H947 0.930 . S
C890 C893 1.348 . S
C890 C894 1.356 . S
C890 O941 1.325 . S
C891 N892 1.279 . S
C891 C894 1.358 . S
C891 H948 0.930 . S
N892 C891 1.279 . S
N892 C895 1.314 . S
C893 C890 1.348 . S
C893 C895 1.353 . S
C893 H949 0.929 . S
C894 C890 1.356 . S
C894 C891 1.358 . S
C894 H950 0.930 . S
C895 N892 1.314 . S
C895 C893 1.353 . S
C895 H951 0.930 . S
C896 N897 1.314 . S
C896 C901 1.353 . S
C896 H902 0.930 . S
N897 Li880 1.990 . S
N897 C896 1.314 . S
N897 C899 1.279 . S
C898 C899 1.358 . S
C898 C900 1.356 . S
C898 H952 0.930 . S
C899 N897 1.279 . S
C899 C898 1.358 . S
C899 H903 0.930 . S
C900 C898 1.356 . S
C900 C901 1.348 . S
C901 C896 1.353 . S
C901 C900 1.348 . S
C901 H953 0.929 . S
H902 C896 0.930 . S
H903 C899 0.930 . S
C904 N905 1.314 . S
C904 C906 1.353 . S
C904 H910 0.930 . S
N905 Li881 1.990 1_655 S
N905 C904 1.314 . S
N905 C908 1.279 . S
C906 C904 1.353 . S
C906 C909 1.348 . S
C906 H954 0.929 . S
C907 C908 1.358 . S
C907 C909 1.356 . S
C907 H955 0.930 . S
C908 N905 1.279 . S
C908 C907 1.358 . S
C908 H911 0.930 1_655 S
C909 C906 1.348 . S
C909 C907 1.356 . S
H910 C904 0.930 . S
H911 C908 0.930 1_455 S
C912 C914 1.348 . S
C912 C915 1.356 . S
C912 O942 1.325 . S
N913 C916 1.314 . S
N913 C917 1.279 . S
C914 C912 1.348 . S
C914 C916 1.353 . S
C914 H956 0.929 . S
C915 C912 1.356 . S
C915 C917 1.358 . S
C915 H957 0.930 . S
C916 N913 1.314 . S
C916 C914 1.353 . S
C916 H958 0.930 . S
C917 N913 1.279 . S
C917 C915 1.358 . S
C917 H959 0.930 . S
C918 C919 1.348 . S
C918 C920 1.307 1_455 S
C918 O943 1.325 . S
C919 C918 1.348 . S
C919 C921 1.353 1_455 S
C919 H960 0.929 . S
C920 C918 1.307 1_655 S
C920 C922 1.388 . S
C920 H961 0.953 . S
C921 C919 1.353 1_655 S
C921 N923 1.314 . S
C921 H962 0.930 . S
C922 C920 1.388 . S
C922 N923 1.279 . S
C922 H963 0.930 . S
N923 C921 1.314 . S
N923 C922 1.279 . S
C924 C926 1.353 . S
C924 N927 1.314 . S
C924 H930 0.930 . S
C925 N927 1.279 . S
C925 C928 1.358 . S
C925 H931 0.930 . S
C926 C924 1.353 . S
C926 C929 1.348 . S
C926 H964 0.929 . S
N927 Li882 1.990 . S
N927 C924 1.314 . S
N927 C925 1.279 . S
C928 C925 1.358 . S
C928 C929 1.356 . S
C928 H965 0.930 . S
C929 C926 1.348 . S
C929 C928 1.356 . S
H930 C924 0.930 . S
H931 C925 0.930 . S
C932 N933 1.314 . S
C932 C934 1.353 . S
C932 H938 0.930 . S
N933 Li883 1.990 . S
N933 C932 1.314 . S
N933 C936 1.279 . S
C934 C932 1.353 . S
C934 C937 1.348 . S
C934 H966 0.929 . S
C935 C936 1.358 . S
C935 C937 1.356 . S
C935 H967 0.930 . S
C936 N933 1.279 . S
C936 C935 1.358 . S
C936 H939 0.930 . S
C937 C934 1.348 . S
C937 C935 1.356 . S
H938 C932 0.930 . S
H939 C936 0.930 . S
O940 Li880 1.956 . S
O940 Li881 1.970 . S
O940 Li882 1.961 . S
O940 C884 1.325 . S
O941 Li880 1.970 . S
O941 Li881 1.956 . S
O941 Li883 1.961 . S
O941 C890 1.325 . S
O942 Li880 1.961 . S
O942 Li882 1.956 . S
O942 Li883 1.970 . S
O942 C912 1.325 . S
O943 Li881 1.961 . S
O943 Li882 1.970 . S
O943 Li883 1.956 . S
O943 C918 1.325 . S
H944 C886 0.929 . S
H945 C887 0.930 . S
H946 C888 0.930 . S
H947 C889 0.930 . S
H948 C891 0.930 . S
H949 C893 0.929 . S
H950 C894 0.930 . S
H951 C895 0.930 . S
H952 C898 0.930 . S
H953 C901 0.929 . S
H954 C906 0.929 . S
H955 C907 0.930 . S
H956 C914 0.929 . S
H957 C915 0.930 . S
H958 C916 0.930 . S
H959 C917 0.930 . S
H960 C919 0.929 . S
H961 C920 0.953 . S
H962 C921 0.930 . S
H963 C922 0.930 . S
H964 C926 0.929 . S
H965 C928 0.930 . S
H966 C934 0.929 . S
H967 C935 0.930 . S
Li968 N985 1.990 . S
Li968 O1028 1.956 . S
Li968 O1029 1.970 . S
Li968 O1030 1.961 . S
Li969 N993 1.990 . S
Li969 O1028 1.970 . S
Li969 O1029 1.956 . S
Li969 O1031 1.961 . S
Li970 N1015 1.990 . S
Li970 O1028 1.961 . S
Li970 O1030 1.956 . S
Li970 O1031 1.970 . S
Li971 N1021 1.990 . S
Li971 O1029 1.961 . S
Li971 O1030 1.970 . S
Li971 O1031 1.956 . S
C972 C974 1.348 . S
C972 C975 1.356 . S
C972 O1028 1.325 . S
N973 C976 1.314 . S
N973 C977 1.279 . S
C974 C972 1.348 . S
C974 C976 1.353 . S
C974 H1032 0.929 . S
C975 C972 1.356 . S
C975 C977 1.358 . S
C975 H1033 0.930 . S
C976 N973 1.314 . S
C976 C974 1.353 . S
C976 H1034 0.930 . S
C977 N973 1.279 . S
C977 C975 1.358 . S
C977 H1035 0.930 . S
C978 C981 1.348 . S
C978 C982 1.356 . S
C978 O1029 1.325 . S
C979 N980 1.279 . S
C979 C982 1.358 . S
C979 H1036 0.930 . S
N980 C979 1.279 . S
N980 C983 1.314 . S
C981 C978 1.348 . S
C981 C983 1.353 . S
C981 H1037 0.929 . S
C982 C978 1.356 . S
C982 C979 1.358 . S
C982 H1038 0.930 . S
C983 N980 1.314 . S
C983 C981 1.353 . S
C983 H1039 0.930 . S
C984 N985 1.314 . S
C984 C989 1.353 . S
C984 H990 0.930 . S
N985 Li968 1.990 . S
N985 C984 1.314 . S
N985 C987 1.279 . S
C986 C987 1.358 . S
C986 C988 1.356 . S
C986 H1040 0.930 . S
C987 N985 1.279 . S
C987 C986 1.358 . S
C987 H991 0.930 . S
C988 C986 1.356 . S
C988 C989 1.348 . S
C989 C984 1.353 . S
C989 C988 1.348 . S
C989 H1041 0.929 . S
H990 C984 0.930 . S
H991 C987 0.930 . S
C992 N993 1.314 . S
C992 C994 1.353 . S
C992 H998 0.930 . S
N993 Li969 1.990 . S
N993 C992 1.314 . S
N993 C996 1.279 . S
C994 C992 1.353 . S
C994 C997 1.348 . S
C994 H1042 0.929 . S
C995 C996 1.358 . S
C995 C997 1.356 . S
C995 H1043 0.930 . S
C996 N993 1.279 . S
C996 C995 1.358 . S
C996 H999 0.930 . S
C997 C994 1.348 . S
C997 C995 1.356 . S
H998 C992 0.930 . S
H999 C996 0.930 . S
C1000 C1002 1.348 . S
C1000 C1003 1.356 . S
C1000 O1030 1.325 . S
N1001 C1004 1.314 . S
N1001 C1005 1.279 . S
C1002 C1000 1.348 . S
C1002 C1004 1.353 . S
C1002 H1044 0.929 . S
C1003 C1000 1.356 . S
C1003 C1005 1.358 . S
C1003 H1045 0.930 . S
C1004 N1001 1.314 . S
C1004 C1002 1.353 . S
C1004 H1046 0.930 . S
C1005 N1001 1.279 . S
C1005 C1003 1.358 . S
C1005 H1047 0.930 . S
C1006 C1007 1.348 . S
C1006 C1008 1.356 . S
C1006 O1031 1.325 . S
C1007 C1006 1.348 . S
C1007 C1009 1.353 . S
C1007 H1048 0.929 . S
C1008 C1006 1.356 . S
C1008 C1010 1.358 . S
C1008 H1049 0.930 . S
C1009 C1007 1.353 . S
C1009 N1011 1.314 . S
C1009 H1050 0.930 . S
C1010 C1008 1.358 . S
C1010 N1011 1.279 . S
C1010 H1051 0.930 . S
N1011 C1009 1.314 . S
N1011 C1010 1.279 . S
C1012 C1014 1.353 . S
C1012 N1015 1.314 . S
C1012 H1018 0.930 . S
C1013 N1015 1.279 . S
C1013 C1016 1.358 . S
C1013 H1019 0.930 . S
C1014 C1012 1.353 . S
C1014 C1017 1.348 . S
C1014 H1052 0.929 . S
N1015 Li970 1.990 . S
N1015 C1012 1.314 . S
N1015 C1013 1.279 . S
C1016 C1013 1.358 . S
C1016 C1017 1.356 . S
C1016 H1053 0.930 . S
C1017 C1014 1.348 . S
C1017 C1016 1.356 . S
H1018 C1012 0.930 . S
H1019 C1013 0.930 . S
C1020 N1021 1.314 . S
C1020 C1022 1.353 . S
C1020 H1026 0.930 . S
N1021 Li971 1.990 . S
N1021 C1020 1.314 . S
N1021 C1024 1.279 . S
C1022 C1020 1.353 . S
C1022 C1025 1.348 . S
C1022 H1054 0.929 . S
C1023 C1024 1.358 . S
C1023 C1025 1.356 . S
C1023 H1055 0.930 . S
C1024 N1021 1.279 . S
C1024 C1023 1.358 . S
C1024 H1027 0.930 . S
C1025 C1022 1.348 . S
C1025 C1023 1.356 . S
H1026 C1020 0.930 . S
H1027 C1024 0.930 . S
O1028 Li968 1.956 . S
O1028 Li969 1.970 . S
O1028 Li970 1.961 . S
O1028 C972 1.325 . S
O1029 Li968 1.970 . S
O1029 Li969 1.956 . S
O1029 Li971 1.961 . S
O1029 C978 1.325 . S
O1030 Li968 1.961 . S
O1030 Li970 1.956 . S
O1030 Li971 1.970 . S
O1030 C1000 1.325 . S
O1031 Li969 1.961 . S
O1031 Li970 1.970 . S
O1031 Li971 1.956 . S
O1031 C1006 1.325 . S
H1032 C974 0.929 . S
H1033 C975 0.930 . S
H1034 C976 0.930 . S
H1035 C977 0.930 . S
H1036 C979 0.930 . S
H1037 C981 0.929 . S
H1038 C982 0.930 . S
H1039 C983 0.930 . S
H1040 C986 0.930 . S
H1041 C989 0.929 . S
H1042 C994 0.929 . S
H1043 C995 0.930 . S
H1044 C1002 0.929 . S
H1045 C1003 0.930 . S
H1046 C1004 0.930 . S
H1047 C1005 0.930 . S
H1048 C1007 0.929 . S
H1049 C1008 0.930 . S
H1050 C1009 0.930 . S
H1051 C1010 0.930 . S
H1052 C1014 0.929 . S
H1053 C1016 0.930 . S
H1054 C1022 0.929 . S
H1055 C1023 0.930 . S
Li1056 N1073 1.990 1_545 S
Li1056 O1116 1.956 . S
Li1056 O1117 1.970 . S
Li1056 O1118 1.961 . S
Li1057 N1081 1.990 . S
Li1057 O1116 1.970 . S
Li1057 O1117 1.956 . S
Li1057 O1119 1.961 . S
Li1058 N1103 1.990 . S
Li1058 O1116 1.961 . S
Li1058 O1118 1.956 . S
Li1058 O1119 1.970 . S
Li1059 N1109 1.990 . S
Li1059 O1117 1.961 . S
Li1059 O1118 1.970 . S
Li1059 O1119 1.956 . S
C1060 C1062 1.348 . S
C1060 C1063 1.356 . S
C1060 O1116 1.325 . S
N1061 C1064 1.314 . S
N1061 C1065 1.279 . S
C1062 C1060 1.348 . S
C1062 C1064 1.353 1_545 S
C1062 H1120 0.929 . S
C1063 C1060 1.356 . S
C1063 C1065 1.358 1_545 S
C1063 H1121 0.930 . S
C1064 N1061 1.314 . S
C1064 C1062 1.353 1_565 S
C1064 H1122 0.930 . S
C1065 N1061 1.279 . S
C1065 C1063 1.358 1_565 S
C1065 H1123 0.930 . S
C1066 C1069 1.348 . S
C1066 C1070 1.356 . S
C1066 O1117 1.325 . S
C1067 N1068 1.279 . S
C1067 C1070 1.358 . S
C1067 H1124 0.930 . S
N1068 C1067 1.279 . S
N1068 C1071 1.314 . S
C1069 C1066 1.348 . S
C1069 C1071 1.353 . S
C1069 H1125 0.929 1_545 S
C1070 C1066 1.356 . S
C1070 C1067 1.358 . S
C1070 H1126 0.930 . S
C1071 N1068 1.314 . S
C1071 C1069 1.353 . S
C1071 H1127 0.930 1_545 S
C1072 N1073 1.314 . S
C1072 C1077 1.353 . S
C1072 H1078 0.936 1_565 S
N1073 Li1056 1.990 1_565 S
N1073 C1072 1.314 . S
N1073 C1075 1.279 . S
C1074 C1075 1.358 . S
C1074 C1076 1.356 . S
C1074 H1128 0.930 . S
C1075 N1073 1.279 . S
C1075 C1074 1.358 . S
C1075 H1079 0.930 . S
C1076 C1074 1.356 . S
C1076 C1077 1.348 . S
C1077 C1072 1.353 . S
C1077 C1076 1.348 . S
C1077 H1129 0.929 . S
H1078 C1072 0.936 1_545 S
H1079 C1075 0.930 . S
C1080 N1081 1.314 . S
C1080 C1082 1.353 . S
C1080 H1086 0.930 . S
N1081 Li1057 1.990 . S
N1081 C1080 1.314 . S
N1081 C1084 1.279 . S
C1082 C1080 1.353 . S
C1082 C1085 1.348 . S
C1082 H1130 0.929 . S
C1083 C1084 1.358 . S
C1083 C1085 1.356 . S
C1083 H1131 0.930 . S
C1084 N1081 1.279 . S
C1084 C1083 1.358 . S
C1084 H1087 0.930 . S
C1085 C1082 1.348 . S
C1085 C1083 1.356 . S
H1086 C1080 0.930 . S
H1087 C1084 0.930 . S
C1088 C1090 1.348 . S
C1088 C1091 1.356 . S
C1088 O1118 1.325 . S
N1089 C1092 1.314 . S
N1089 C1093 1.279 . S
C1090 C1088 1.348 . S
C1090 C1092 1.353 . S
C1090 H1132 0.929 . S
C1091 C1088 1.356 . S
C1091 C1093 1.358 . S
C1091 H1133 0.930 . S
C1092 N1089 1.314 . S
C1092 C1090 1.353 . S
C1092 H1134 0.930 . S
C1093 N1089 1.279 . S
C1093 C1091 1.358 . S
C1093 H1135 0.930 . S
C1094 C1095 1.348 . S
C1094 C1096 1.356 . S
C1094 O1119 1.325 . S
C1095 C1094 1.348 . S
C1095 C1097 1.353 . S
C1095 H1136 0.929 . S
C1096 C1094 1.356 . S
C1096 C1098 1.358 . S
C1096 H1137 0.930 . S
C1097 C1095 1.353 . S
C1097 N1099 1.314 . S
C1097 H1138 0.930 . S
C1098 C1096 1.358 . S
C1098 N1099 1.279 . S
C1098 H1139 0.930 . S
N1099 C1097 1.314 . S
N1099 C1098 1.279 . S
C1100 C1102 1.353 . S
C1100 N1103 1.314 . S
C1100 H1106 0.930 . S
C1101 N1103 1.279 . S
C1101 C1104 1.358 . S
C1101 H1107 0.930 . S
C1102 C1100 1.353 . S
C1102 C1105 1.348 . S
C1102 H1140 0.929 . S
N1103 Li1058 1.990 . S
N1103 C1100 1.314 . S
N1103 C1101 1.279 . S
C1104 C1101 1.358 . S
C1104 C1105 1.356 . S
C1104 H1141 0.930 . S
C1105 C1102 1.348 . S
C1105 C1104 1.356 . S
H1106 C1100 0.930 . S
H1107 C1101 0.930 . S
C1108 N1109 1.314 . S
C1108 C1110 1.353 . S
C1108 H1114 0.930 . S
N1109 Li1059 1.990 . S
N1109 C1108 1.314 . S
N1109 C1112 1.279 . S
C1110 C1108 1.353 . S
C1110 C1113 1.348 . S
C1110 H1142 0.929 . S
C1111 C1112 1.358 . S
C1111 C1113 1.356 . S
C1111 H1143 0.930 . S
C1112 N1109 1.279 . S
C1112 C1111 1.358 . S
C1112 H1115 0.930 . S
C1113 C1110 1.348 . S
C1113 C1111 1.356 . S
H1114 C1108 0.930 . S
H1115 C1112 0.930 . S
O1116 Li1056 1.956 . S
O1116 Li1057 1.970 . S
O1116 Li1058 1.961 . S
O1116 C1060 1.325 . S
O1117 Li1056 1.970 . S
O1117 Li1057 1.956 . S
O1117 Li1059 1.961 . S
O1117 C1066 1.325 . S
O1118 Li1056 1.961 . S
O1118 Li1058 1.956 . S
O1118 Li1059 1.970 . S
O1118 C1088 1.325 . S
O1119 Li1057 1.961 . S
O1119 Li1058 1.970 . S
O1119 Li1059 1.956 . S
O1119 C1094 1.325 . S
H1120 C1062 0.929 . S
H1121 C1063 0.930 . S
H1122 C1064 0.930 . S
H1123 C1065 0.930 . S
H1124 C1067 0.930 . S
H1125 C1069 0.929 1_565 S
H1126 C1070 0.930 . S
H1127 C1071 0.930 1_565 S
H1128 C1074 0.930 . S
H1129 C1077 0.929 . S
H1130 C1082 0.929 . S
H1131 C1083 0.930 . S
H1132 C1090 0.929 . S
H1133 C1091 0.930 . S
H1134 C1092 0.930 . S
H1135 C1093 0.930 . S
H1136 C1095 0.929 . S
H1137 C1096 0.930 . S
H1138 C1097 0.930 . S
H1139 C1098 0.930 . S
H1140 C1102 0.929 . S
H1141 C1104 0.930 . S
H1142 C1110 0.929 . S
H1143 C1111 0.930 . S
Li1144 N1161 1.990 1_655 S
Li1144 O1204 1.956 . S
Li1144 O1205 1.970 . S
Li1144 O1206 1.961 . S
Li1145 N1169 1.990 . S
Li1145 O1204 1.970 . S
Li1145 O1205 1.956 . S
Li1145 O1207 1.961 . S
Li1146 N1191 1.990 . S
Li1146 O1204 1.961 . S
Li1146 O1206 1.956 . S
Li1146 O1207 1.970 . S
Li1147 N1197 1.990 . S
Li1147 O1205 1.961 . S
Li1147 O1206 1.970 . S
Li1147 O1207 1.956 . S
C1148 C1150 1.351 1_655 S
C1148 C1151 1.356 . S
C1148 O1204 1.325 . S
N1149 C1152 1.314 . S
N1149 C1153 1.279 . S
C1150 C1148 1.351 1_455 S
C1150 C1152 1.390 . S
C1150 H1208 0.893 1_455 S
C1151 C1148 1.356 . S
C1151 C1153 1.358 1_655 S
C1151 H1209 0.930 . S
C1152 N1149 1.314 . S
C1152 C1150 1.390 . S
C1152 H1210 0.930 . S
C1153 N1149 1.279 . S
C1153 C1151 1.358 1_455 S
C1153 H1211 0.930 . S
C1154 C1157 1.348 . S
C1154 C1158 1.356 . S
C1154 O1205 1.325 . S
C1155 N1156 1.279 . S
C1155 C1158 1.358 . S
C1155 H1212 0.930 . S
N1156 C1155 1.279 . S
N1156 C1159 1.314 . S
C1157 C1154 1.348 . S
C1157 C1159 1.353 . S
C1157 H1213 0.929 1_655 S
C1158 C1154 1.356 . S
C1158 C1155 1.358 . S
C1158 H1214 0.930 . S
C1159 N1156 1.314 . S
C1159 C1157 1.353 . S
C1159 H1215 0.930 1_655 S
C1160 N1161 1.314 . S
C1160 C1165 1.353 . S
C1160 H1166 0.930 1_455 S
N1161 Li1144 1.990 1_455 S
N1161 C1160 1.314 . S
N1161 C1163 1.279 . S
C1162 C1163 1.358 . S
C1162 C1164 1.356 . S
C1162 H1216 0.930 . S
C1163 N1161 1.279 . S
C1163 C1162 1.358 . S
C1163 H1167 0.930 . S
C1164 C1162 1.356 . S
C1164 C1165 1.348 . S
C1165 C1160 1.353 . S
C1165 C1164 1.348 . S
C1165 H1217 0.929 . S
H1166 C1160 0.930 1_655 S
H1167 C1163 0.930 . S
C1168 N1169 1.314 . S
C1168 C1170 1.353 . S
C1168 H1174 0.930 . S
N1169 Li1145 1.990 . S
N1169 C1168 1.314 . S
N1169 C1172 1.279 . S
C1170 C1168 1.353 . S
C1170 C1173 1.348 . S
C1170 H1218 0.929 . S
C1171 C1172 1.358 . S
C1171 C1173 1.356 . S
C1171 H1219 0.930 . S
C1172 N1169 1.279 . S
C1172 C1171 1.358 . S
C1172 H1175 0.930 . S
C1173 C1170 1.348 . S
C1173 C1171 1.356 . S
H1174 C1168 0.930 . S
H1175 C1172 0.930 . S
C1176 C1178 1.348 . S
C1176 C1179 1.356 . S
C1176 O1206 1.325 . S
N1177 C1180 1.314 . S
N1177 C1181 1.279 . S
C1178 C1176 1.348 . S
C1178 C1180 1.353 . S
C1178 H1220 0.929 . S
C1179 C1176 1.356 . S
C1179 C1181 1.358 . S
C1179 H1221 0.930 . S
C1180 N1177 1.314 . S
C1180 C1178 1.353 . S
C1180 H1222 0.930 . S
C1181 N1177 1.279 . S
C1181 C1179 1.358 . S
C1181 H1223 0.930 . S
C1182 C1183 1.348 . S
C1182 C1184 1.356 . S
C1182 O1207 1.325 . S
C1183 C1182 1.348 . S
C1183 C1185 1.353 . S
C1183 H1224 0.929 . S
C1184 C1182 1.356 . S
C1184 C1186 1.358 . S
C1184 H1225 0.930 . S
C1185 C1183 1.353 . S
C1185 N1187 1.314 . S
C1185 H1226 0.930 . S
C1186 C1184 1.358 . S
C1186 N1187 1.279 . S
C1186 H1227 0.930 . S
N1187 C1185 1.314 . S
N1187 C1186 1.279 . S
C1188 C1190 1.353 . S
C1188 N1191 1.314 . S
C1188 H1194 0.930 . S
C1189 N1191 1.279 . S
C1189 C1192 1.358 . S
C1189 H1195 0.930 . S
C1190 C1188 1.353 . S
C1190 C1193 1.348 . S
C1190 H1228 0.929 . S
N1191 Li1146 1.990 . S
N1191 C1188 1.314 . S
N1191 C1189 1.279 . S
C1192 C1189 1.358 . S
C1192 C1193 1.356 . S
C1192 H1229 0.930 . S
C1193 C1190 1.348 . S
C1193 C1192 1.356 . S
H1194 C1188 0.930 . S
H1195 C1189 0.930 . S
C1196 N1197 1.314 . S
C1196 C1198 1.353 . S
C1196 H1202 0.930 . S
N1197 Li1147 1.990 . S
N1197 C1196 1.314 . S
N1197 C1200 1.279 . S
C1198 C1196 1.353 . S
C1198 C1201 1.348 . S
C1198 H1230 0.929 . S
C1199 C1200 1.358 . S
C1199 C1201 1.356 . S
C1199 H1231 0.930 . S
C1200 N1197 1.279 . S
C1200 C1199 1.358 . S
C1200 H1203 0.930 . S
C1201 C1198 1.348 . S
C1201 C1199 1.356 . S
H1202 C1196 0.930 . S
H1203 C1200 0.930 . S
O1204 Li1144 1.956 . S
O1204 Li1145 1.970 . S
O1204 Li1146 1.961 . S
O1204 C1148 1.325 . S
O1205 Li1144 1.970 . S
O1205 Li1145 1.956 . S
O1205 Li1147 1.961 . S
O1205 C1154 1.325 . S
O1206 Li1144 1.961 . S
O1206 Li1146 1.956 . S
O1206 Li1147 1.970 . S
O1206 C1176 1.325 . S
O1207 Li1145 1.961 . S
O1207 Li1146 1.970 . S
O1207 Li1147 1.956 . S
O1207 C1182 1.325 . S
H1208 C1150 0.893 1_655 S
H1209 C1151 0.930 . S
H1210 C1152 0.930 . S
H1211 C1153 0.930 . S
H1212 C1155 0.930 . S
H1213 C1157 0.929 1_455 S
H1214 C1158 0.930 . S
H1215 C1159 0.930 1_455 S
H1216 C1162 0.930 . S
H1217 C1165 0.929 . S
H1218 C1170 0.929 . S
H1219 C1171 0.930 . S
H1220 C1178 0.929 . S
H1221 C1179 0.930 . S
H1222 C1180 0.930 . S
H1223 C1181 0.930 . S
H1224 C1183 0.929 . S
H1225 C1184 0.930 . S
H1226 C1185 0.930 . S
H1227 C1186 0.930 . S
H1228 C1190 0.929 . S
H1229 C1192 0.930 . S
H1230 C1198 0.929 . S
H1231 C1199 0.930 . S
Li1232 N1249 1.990 . S
Li1232 O1292 1.956 . S
Li1232 O1293 1.970 . S
Li1232 O1294 1.961 . S
Li1233 N1257 1.990 . S
Li1233 O1292 1.970 . S
Li1233 O1293 1.956 . S
Li1233 O1295 1.961 . S
Li1234 N1279 1.990 . S
Li1234 O1292 1.961 . S
Li1234 O1294 1.956 . S
Li1234 O1295 1.970 . S
Li1235 N1285 1.990 . S
Li1235 O1293 1.961 . S
Li1235 O1294 1.970 . S
Li1235 O1295 1.956 . S
C1236 C1238 1.348 . S
C1236 C1239 1.356 . S
C1236 O1292 1.325 . S
N1237 C1240 1.314 . S
N1237 C1241 1.279 . S
C1238 C1236 1.348 . S
C1238 C1240 1.353 . S
C1238 H1296 0.929 . S
C1239 C1236 1.356 . S
C1239 C1241 1.358 . S
C1239 H1297 0.930 . S
C1240 N1237 1.314 . S
C1240 C1238 1.353 . S
C1240 H1298 0.930 . S
C1241 N1237 1.279 . S
C1241 C1239 1.358 . S
C1241 H1299 0.930 . S
C1242 C1245 1.348 . S
C1242 C1246 1.356 . S
C1242 O1293 1.325 . S
C1243 N1244 1.279 . S
C1243 C1246 1.358 . S
C1243 H1300 0.930 . S
N1244 C1243 1.279 . S
N1244 C1247 1.314 . S
C1245 C1242 1.348 . S
C1245 C1247 1.353 . S
C1245 H1301 0.929 . S
C1246 C1242 1.356 . S
C1246 C1243 1.358 . S
C1246 H1302 0.930 . S
C1247 N1244 1.314 . S
C1247 C1245 1.353 . S
C1247 H1303 0.930 . S
C1248 N1249 1.314 . S
C1248 C1253 1.353 . S
C1248 H1254 0.930 . S
N1249 Li1232 1.990 . S
N1249 C1248 1.314 . S
N1249 C1251 1.279 . S
C1250 C1251 1.358 . S
C1250 C1252 1.356 . S
C1250 H1304 0.930 . S
C1251 N1249 1.279 . S
C1251 C1250 1.358 . S
C1251 H1255 0.930 . S
C1252 C1250 1.356 . S
C1252 C1253 1.348 . S
C1253 C1248 1.353 . S
C1253 C1252 1.348 . S
C1253 H1305 0.929 . S
H1254 C1248 0.930 . S
H1255 C1251 0.930 . S
C1256 N1257 1.314 . S
C1256 C1258 1.353 . S
C1256 H1262 0.930 . S
N1257 Li1233 1.990 . S
N1257 C1256 1.314 . S
N1257 C1260 1.279 . S
C1258 C1256 1.353 . S
C1258 C1261 1.348 . S
C1258 H1306 0.929 . S
C1259 C1260 1.358 . S
C1259 C1261 1.356 . S
C1259 H1307 0.930 . S
C1260 N1257 1.279 . S
C1260 C1259 1.358 . S
C1260 H1263 0.930 . S
C1261 C1258 1.348 . S
C1261 C1259 1.356 . S
H1262 C1256 0.930 . S
H1263 C1260 0.930 . S
C1264 C1266 1.348 . S
C1264 C1267 1.356 . S
C1264 O1294 1.325 . S
N1265 C1268 1.314 . S
N1265 C1269 1.279 . S
C1266 C1264 1.348 . S
C1266 C1268 1.353 . S
C1266 H1308 0.929 . S
C1267 C1264 1.356 . S
C1267 C1269 1.358 . S
C1267 H1309 0.930 . S
C1268 N1265 1.314 . S
C1268 C1266 1.353 . S
C1268 H1310 0.930 . S
C1269 N1265 1.279 . S
C1269 C1267 1.358 . S
C1269 H1311 0.930 . S
C1270 C1271 1.348 . S
C1270 C1272 1.356 . S
C1270 O1295 1.325 . S
C1271 C1270 1.348 . S
C1271 C1273 1.353 . S
C1271 H1312 0.929 . S
C1272 C1270 1.356 . S
C1272 C1274 1.358 . S
C1272 H1313 0.930 . S
C1273 C1271 1.353 . S
C1273 N1275 1.314 . S
C1273 H1314 0.930 . S
C1274 C1272 1.358 . S
C1274 N1275 1.279 . S
C1274 H1315 0.930 . S
N1275 C1273 1.314 . S
N1275 C1274 1.279 . S
C1276 C1278 1.353 . S
C1276 N1279 1.314 . S
C1276 H1282 0.930 . S
C1277 N1279 1.279 . S
C1277 C1280 1.358 . S
C1277 H1283 0.930 . S
C1278 C1276 1.353 . S
C1278 C1281 1.348 . S
C1278 H1316 0.929 . S
N1279 Li1234 1.990 . S
N1279 C1276 1.314 . S
N1279 C1277 1.279 . S
C1280 C1277 1.358 . S
C1280 C1281 1.356 . S
C1280 H1317 0.930 . S
C1281 C1278 1.348 . S
C1281 C1280 1.356 . S
H1282 C1276 0.930 . S
H1283 C1277 0.930 . S
C1284 N1285 1.314 . S
C1284 C1286 1.353 . S
C1284 H1290 0.930 . S
N1285 Li1235 1.990 . S
N1285 C1284 1.314 . S
N1285 C1288 1.279 . S
C1286 C1284 1.353 . S
C1286 C1289 1.348 . S
C1286 H1318 0.929 . S
C1287 C1288 1.358 . S
C1287 C1289 1.356 . S
C1287 H1319 0.930 . S
C1288 N1285 1.279 . S
C1288 C1287 1.358 . S
C1288 H1291 0.930 . S
C1289 C1286 1.348 . S
C1289 C1287 1.356 . S
H1290 C1284 0.930 . S
H1291 C1288 0.930 . S
O1292 Li1232 1.956 . S
O1292 Li1233 1.970 . S
O1292 Li1234 1.961 . S
O1292 C1236 1.325 . S
O1293 Li1232 1.970 . S
O1293 Li1233 1.956 . S
O1293 Li1235 1.961 . S
O1293 C1242 1.325 . S
O1294 Li1232 1.961 . S
O1294 Li1234 1.956 . S
O1294 Li1235 1.970 . S
O1294 C1264 1.325 . S
O1295 Li1233 1.961 . S
O1295 Li1234 1.970 . S
O1295 Li1235 1.956 . S
O1295 C1270 1.325 . S
H1296 C1238 0.929 . S
H1297 C1239 0.930 . S
H1298 C1240 0.930 . S
H1299 C1241 0.930 . S
H1300 C1243 0.930 . S
H1301 C1245 0.929 . S
H1302 C1246 0.930 . S
H1303 C1247 0.930 . S
H1304 C1250 0.930 . S
H1305 C1253 0.929 . S
H1306 C1258 0.929 . S
H1307 C1259 0.930 . S
H1308 C1266 0.929 . S
H1309 C1267 0.930 . S
H1310 C1268 0.930 . S
H1311 C1269 0.930 . S
H1312 C1271 0.929 . S
H1313 C1272 0.930 . S
H1314 C1273 0.930 . S
H1315 C1274 0.930 . S
H1316 C1278 0.929 . S
H1317 C1280 0.930 . S
H1318 C1286 0.929 . S
H1319 C1287 0.930 . S
Li1320 N1337 1.990 . S
Li1320 O1380 1.956 . S
Li1320 O1381 1.970 . S
Li1320 O1382 1.961 . S
Li1321 N1345 1.990 . S
Li1321 O1380 1.970 . S
Li1321 O1381 1.956 . S
Li1321 O1383 1.961 . S
Li1322 N1367 1.990 . S
Li1322 O1380 1.961 . S
Li1322 O1382 1.956 . S
Li1322 O1383 1.970 . S
Li1323 N1373 1.990 . S
Li1323 O1381 1.961 . S
Li1323 O1382 1.970 . S
Li1323 O1383 1.956 . S
C1324 C1326 1.348 . S
C1324 C1327 1.356 . S
C1324 O1380 1.325 . S
N1325 C1328 1.314 . S
N1325 C1329 1.279 . S
C1326 C1324 1.348 . S
C1326 C1328 1.353 . S
C1326 H1384 0.929 . S
C1327 C1324 1.356 . S
C1327 C1329 1.358 . S
C1327 H1385 0.930 . S
C1328 N1325 1.314 . S
C1328 C1326 1.353 . S
C1328 H1386 0.930 . S
C1329 N1325 1.279 . S
C1329 C1327 1.358 . S
C1329 H1387 0.930 . S
C1330 C1333 1.348 . S
C1330 C1334 1.356 . S
C1330 O1381 1.325 . S
C1331 N1332 1.279 . S
C1331 C1334 1.358 . S
C1331 H1388 0.930 . S
N1332 C1331 1.279 . S
N1332 C1335 1.314 . S
C1333 C1330 1.348 . S
C1333 C1335 1.353 . S
C1333 H1389 0.929 . S
C1334 C1330 1.356 . S
C1334 C1331 1.358 . S
C1334 H1390 0.930 . S
C1335 N1332 1.314 . S
C1335 C1333 1.353 . S
C1335 H1391 0.930 . S
C1336 N1337 1.314 . S
C1336 C1341 1.353 . S
C1336 H1342 0.930 . S
N1337 Li1320 1.990 . S
N1337 C1336 1.314 . S
N1337 C1339 1.279 . S
C1338 C1339 1.358 . S
C1338 C1340 1.356 . S
C1338 H1392 0.930 . S
C1339 N1337 1.279 . S
C1339 C1338 1.358 . S
C1339 H1343 0.930 . S
C1340 C1338 1.356 . S
C1340 C1341 1.348 . S
C1341 C1336 1.353 . S
C1341 C1340 1.348 . S
C1341 H1393 0.929 . S
H1342 C1336 0.930 . S
H1343 C1339 0.930 . S
C1344 N1345 1.314 . S
C1344 C1346 1.353 . S
C1344 H1350 0.930 . S
N1345 Li1321 1.990 . S
N1345 C1344 1.314 . S
N1345 C1348 1.279 . S
C1346 C1344 1.353 . S
C1346 C1349 1.348 . S
C1346 H1394 0.929 . S
C1347 C1348 1.358 . S
C1347 C1349 1.356 . S
C1347 H1395 0.930 . S
C1348 N1345 1.279 . S
C1348 C1347 1.358 . S
C1348 H1351 0.930 . S
C1349 C1346 1.348 . S
C1349 C1347 1.356 . S
H1350 C1344 0.930 . S
H1351 C1348 0.930 . S
C1352 C1354 1.348 . S
C1352 C1355 1.356 . S
C1352 O1382 1.325 . S
N1353 C1356 1.314 . S
N1353 C1357 1.279 . S
C1354 C1352 1.348 . S
C1354 C1356 1.353 . S
C1354 H1396 0.929 . S
C1355 C1352 1.356 . S
C1355 C1357 1.358 . S
C1355 H1397 0.930 . S
C1356 N1353 1.314 . S
C1356 C1354 1.353 . S
C1356 H1398 0.930 . S
C1357 N1353 1.279 . S
C1357 C1355 1.358 . S
C1357 H1399 0.930 . S
C1358 C1359 1.348 . S
C1358 C1360 1.356 . S
C1358 O1383 1.325 . S
C1359 C1358 1.348 . S
C1359 C1361 1.353 . S
C1359 H1400 0.929 . S
C1360 C1358 1.356 . S
C1360 C1362 1.358 . S
C1360 H1401 0.930 . S
C1361 C1359 1.353 . S
C1361 N1363 1.314 . S
C1361 H1402 0.930 . S
C1362 C1360 1.358 . S
C1362 N1363 1.279 . S
C1362 H1403 0.930 . S
N1363 C1361 1.314 . S
N1363 C1362 1.279 . S
C1364 C1366 1.353 . S
C1364 N1367 1.314 . S
C1364 H1370 0.930 . S
C1365 N1367 1.279 . S
C1365 C1368 1.358 . S
C1365 H1371 0.930 . S
C1366 C1364 1.353 . S
C1366 C1369 1.348 . S
C1366 H1404 0.929 . S
N1367 Li1322 1.990 . S
N1367 C1364 1.314 . S
N1367 C1365 1.279 . S
C1368 C1365 1.358 . S
C1368 C1369 1.356 . S
C1368 H1405 0.930 . S
C1369 C1366 1.348 . S
C1369 C1368 1.356 . S
H1370 C1364 0.930 . S
H1371 C1365 0.930 . S
C1372 N1373 1.314 . S
C1372 C1374 1.353 . S
C1372 H1378 0.930 . S
N1373 Li1323 1.990 . S
N1373 C1372 1.314 . S
N1373 C1376 1.279 . S
C1374 C1372 1.353 . S
C1374 C1377 1.348 . S
C1374 H1406 0.929 . S
C1375 C1376 1.358 . S
C1375 C1377 1.356 . S
C1375 H1407 0.930 . S
C1376 N1373 1.279 . S
C1376 C1375 1.358 . S
C1376 H1379 0.930 . S
C1377 C1374 1.348 . S
C1377 C1375 1.356 . S
H1378 C1372 0.930 . S
H1379 C1376 0.930 . S
O1380 Li1320 1.956 . S
O1380 Li1321 1.970 . S
O1380 Li1322 1.961 . S
O1380 C1324 1.325 . S
O1381 Li1320 1.970 . S
O1381 Li1321 1.956 . S
O1381 Li1323 1.961 . S
O1381 C1330 1.325 . S
O1382 Li1320 1.961 . S
O1382 Li1322 1.956 . S
O1382 Li1323 1.970 . S
O1382 C1352 1.325 . S
O1383 Li1321 1.961 . S
O1383 Li1322 1.970 . S
O1383 Li1323 1.956 . S
O1383 C1358 1.325 . S
H1384 C1326 0.929 . S
H1385 C1327 0.930 . S
H1386 C1328 0.930 . S
H1387 C1329 0.930 . S
H1388 C1331 0.930 . S
H1389 C1333 0.929 . S
H1390 C1334 0.930 . S
H1391 C1335 0.930 . S
H1392 C1338 0.930 . S
H1393 C1341 0.929 . S
H1394 C1346 0.929 . S
H1395 C1347 0.930 . S
H1396 C1354 0.929 . S
H1397 C1355 0.930 . S
H1398 C1356 0.930 . S
H1399 C1357 0.930 . S
H1400 C1359 0.929 . S
H1401 C1360 0.930 . S
H1402 C1361 0.930 . S
H1403 C1362 0.930 . S
H1404 C1366 0.929 . S
H1405 C1368 0.930 . S
H1406 C1374 0.929 . S
H1407 C1375 0.930 . S
Li1408 N1425 1.990 . S
Li1408 O1468 1.956 . S
Li1408 O1469 1.970 . S
Li1408 O1470 1.961 . S
Li1409 N1433 1.990 . S
Li1409 O1468 1.970 . S
Li1409 O1469 1.956 . S
Li1409 O1471 1.961 . S
Li1410 N1455 1.990 . S
Li1410 O1468 1.961 . S
Li1410 O1470 1.956 . S
Li1410 O1471 1.970 . S
Li1411 N1461 1.990 1_545 S
Li1411 O1469 1.961 . S
Li1411 O1470 1.970 . S
Li1411 O1471 1.956 . S
C1412 C1414 1.348 . S
C1412 C1415 1.356 . S
C1412 O1468 1.325 . S
N1413 C1416 1.314 . S
N1413 C1417 1.279 . S
C1414 C1412 1.348 . S
C1414 C1416 1.353 . S
C1414 H1472 0.929 . S
C1415 C1412 1.356 . S
C1415 C1417 1.358 . S
C1415 H1473 0.930 . S
C1416 N1413 1.314 . S
C1416 C1414 1.353 . S
C1416 H1474 0.930 . S
C1417 N1413 1.279 . S
C1417 C1415 1.358 . S
C1417 H1475 0.930 . S
C1418 C1421 1.348 . S
C1418 C1422 1.333 1_545 S
C1418 O1469 1.325 . S
C1419 N1420 1.279 . S
C1419 C1422 1.373 . S
C1419 H1476 0.930 . S
N1420 C1419 1.279 . S
N1420 C1423 1.314 . S
C1421 C1418 1.348 . S
C1421 C1423 1.353 1_545 S
C1421 H1477 0.929 . S
C1422 C1418 1.333 1_565 S
C1422 C1419 1.373 . S
C1422 H1478 0.940 . S
C1423 N1420 1.314 . S
C1423 C1421 1.353 1_565 S
C1423 H1479 0.930 . S
C1424 N1425 1.314 . S
C1424 C1429 1.353 . S
C1424 H1430 0.930 . S
N1425 Li1408 1.990 . S
N1425 C1424 1.314 . S
N1425 C1427 1.279 . S
C1426 C1427 1.358 . S
C1426 C1428 1.356 . S
C1426 H1480 0.930 . S
C1427 N1425 1.279 . S
C1427 C1426 1.358 . S
C1427 H1431 0.930 . S
C1428 C1426 1.356 . S
C1428 C1429 1.348 . S
C1429 C1424 1.353 . S
C1429 C1428 1.348 . S
C1429 H1481 0.929 . S
H1430 C1424 0.930 . S
H1431 C1427 0.930 . S
C1432 N1433 1.314 . S
C1432 C1434 1.353 . S
C1432 H1438 0.930 . S
N1433 Li1409 1.990 . S
N1433 C1432 1.314 . S
N1433 C1436 1.279 . S
C1434 C1432 1.353 . S
C1434 C1437 1.348 . S
C1434 H1482 0.929 . S
C1435 C1436 1.358 . S
C1435 C1437 1.356 . S
C1435 H1483 0.930 . S
C1436 N1433 1.279 . S
C1436 C1435 1.358 . S
C1436 H1439 0.930 . S
C1437 C1434 1.348 . S
C1437 C1435 1.356 . S
H1438 C1432 0.930 . S
H1439 C1436 0.930 . S
C1440 C1442 1.348 . S
C1440 C1443 1.356 . S
C1440 O1470 1.325 . S
N1441 C1444 1.314 . S
N1441 C1445 1.279 . S
C1442 C1440 1.348 . S
C1442 C1444 1.353 . S
C1442 H1484 0.929 . S
C1443 C1440 1.356 . S
C1443 C1445 1.358 . S
C1443 H1485 0.930 . S
C1444 N1441 1.314 . S
C1444 C1442 1.353 . S
C1444 H1486 0.930 1_545 S
C1445 N1441 1.279 . S
C1445 C1443 1.358 . S
C1445 H1487 0.930 . S
C1446 C1447 1.348 . S
C1446 C1448 1.356 . S
C1446 O1471 1.325 . S
C1447 C1446 1.348 . S
C1447 C1449 1.353 . S
C1447 H1488 0.929 . S
C1448 C1446 1.356 . S
C1448 C1450 1.358 . S
C1448 H1489 0.930 . S
C1449 C1447 1.353 . S
C1449 N1451 1.314 . S
C1449 H1490 0.930 . S
C1450 C1448 1.358 . S
C1450 N1451 1.279 . S
C1450 H1491 0.930 . S
N1451 C1449 1.314 . S
N1451 C1450 1.279 . S
C1452 C1454 1.353 . S
C1452 N1455 1.314 . S
C1452 H1458 0.930 . S
C1453 N1455 1.279 . S
C1453 C1456 1.358 . S
C1453 H1459 0.930 . S
C1454 C1452 1.353 . S
C1454 C1457 1.348 . S
C1454 H1492 0.929 . S
N1455 Li1410 1.990 . S
N1455 C1452 1.314 . S
N1455 C1453 1.279 . S
C1456 C1453 1.358 . S
C1456 C1457 1.356 . S
C1456 H1493 0.930 . S
C1457 C1454 1.348 . S
C1457 C1456 1.356 . S
H1458 C1452 0.930 . S
H1459 C1453 0.930 . S
C1460 N1461 1.314 . S
C1460 C1462 1.353 . S
C1460 H1466 0.930 . S
N1461 Li1411 1.990 1_565 S
N1461 C1460 1.314 . S
N1461 C1464 1.279 . S
C1462 C1460 1.353 . S
C1462 C1465 1.348 . S
C1462 H1494 0.929 . S
C1463 C1464 1.358 . S
C1463 C1465 1.356 . S
C1463 H1495 0.930 . S
C1464 N1461 1.279 . S
C1464 C1463 1.358 . S
C1464 H1467 0.930 1_565 S
C1465 C1462 1.348 . S
C1465 C1463 1.356 . S
H1466 C1460 0.930 . S
H1467 C1464 0.930 1_545 S
O1468 Li1408 1.956 . S
O1468 Li1409 1.970 . S
O1468 Li1410 1.961 . S
O1468 C1412 1.325 . S
O1469 Li1408 1.970 . S
O1469 Li1409 1.956 . S
O1469 Li1411 1.961 . S
O1469 C1418 1.325 . S
O1470 Li1408 1.961 . S
O1470 Li1410 1.956 . S
O1470 Li1411 1.970 . S
O1470 C1440 1.325 . S
O1471 Li1409 1.961 . S
O1471 Li1410 1.970 . S
O1471 Li1411 1.956 . S
O1471 C1446 1.325 . S
H1472 C1414 0.929 . S
H1473 C1415 0.930 . S
H1474 C1416 0.930 . S
H1475 C1417 0.930 . S
H1476 C1419 0.930 . S
H1477 C1421 0.929 . S
H1478 C1422 0.940 . S
H1479 C1423 0.930 . S
H1480 C1426 0.930 . S
H1481 C1429 0.929 . S
H1482 C1434 0.929 . S
H1483 C1435 0.930 . S
H1484 C1442 0.929 . S
H1485 C1443 0.930 . S
H1486 C1444 0.930 1_565 S
H1487 C1445 0.930 . S
H1488 C1447 0.929 . S
H1489 C1448 0.930 . S
H1490 C1449 0.930 . S
H1491 C1450 0.930 . S
H1492 C1454 0.929 . S
H1493 C1456 0.930 . S
H1494 C1462 0.929 . S
H1495 C1463 0.930 . S
Li1496 N1513 1.990 . S
Li1496 O1556 1.956 . S
Li1496 O1557 1.970 . S
Li1496 O1558 1.961 . S
Li1497 N1521 1.990 . S
Li1497 O1556 1.970 . S
Li1497 O1557 1.956 . S
Li1497 O1559 1.961 . S
Li1498 N1543 1.959 1_655 S
Li1498 O1556 1.961 . S
Li1498 O1558 1.956 . S
Li1498 O1559 1.970 . S
Li1499 N1549 1.990 . S
Li1499 O1557 1.961 . S
Li1499 O1558 1.970 . S
Li1499 O1559 1.956 . S
C1500 C1502 1.348 . S
C1500 C1503 1.356 . S
C1500 O1556 1.325 . S
N1501 C1504 1.318 . S
N1501 C1505 1.279 . S
C1502 C1500 1.348 . S
C1502 C1504 1.343 1_655 S
C1502 H1560 0.929 . S
C1503 C1500 1.356 . S
C1503 C1505 1.358 1_655 S
C1503 H1561 0.930 . S
C1504 N1501 1.318 . S
C1504 C1502 1.343 1_455 S
C1504 H1562 0.913 . S
C1505 N1501 1.279 . S
C1505 C1503 1.358 1_455 S
C1505 H1563 0.930 . S
C1506 C1509 1.348 . S
C1506 C1510 1.356 . S
C1506 O1557 1.325 . S
C1507 N1508 1.279 . S
C1507 C1510 1.358 . S
C1507 H1564 0.930 . S
N1508 C1507 1.279 . S
N1508 C1511 1.314 . S
C1509 C1506 1.348 . S
C1509 C1511 1.353 . S
C1509 H1565 0.929 . S
C1510 C1506 1.356 . S
C1510 C1507 1.358 . S
C1510 H1566 0.930 . S
C1511 N1508 1.314 . S
C1511 C1509 1.353 . S
C1511 H1567 0.930 . S
C1512 N1513 1.314 . S
C1512 C1517 1.353 . S
C1512 H1518 0.930 . S
N1513 Li1496 1.990 . S
N1513 C1512 1.314 . S
N1513 C1515 1.279 . S
C1514 C1515 1.358 . S
C1514 C1516 1.356 . S
C1514 H1568 0.930 . S
C1515 N1513 1.279 . S
C1515 C1514 1.358 . S
C1515 H1519 0.930 . S
C1516 C1514 1.356 . S
C1516 C1517 1.348 . S
C1517 C1512 1.353 . S
C1517 C1516 1.348 . S
C1517 H1569 0.929 . S
H1518 C1512 0.930 . S
H1519 C1515 0.930 . S
C1520 N1521 1.314 . S
C1520 C1522 1.353 . S
C1520 H1526 0.930 . S
N1521 Li1497 1.990 . S
N1521 C1520 1.314 . S
N1521 C1524 1.279 . S
C1522 C1520 1.353 . S
C1522 C1525 1.348 . S
C1522 H1570 0.929 . S
C1523 C1524 1.358 . S
C1523 C1525 1.356 . S
C1523 H1571 0.930 . S
C1524 N1521 1.279 . S
C1524 C1523 1.358 . S
C1524 H1527 0.930 . S
C1525 C1522 1.348 . S
C1525 C1523 1.356 . S
H1526 C1520 0.930 . S
H1527 C1524 0.930 . S
C1528 C1530 1.348 . S
C1528 C1531 1.356 . S
C1528 O1558 1.325 . S
N1529 C1532 1.314 . S
N1529 C1533 1.279 . S
C1530 C1528 1.348 . S
C1530 C1532 1.353 . S
C1530 H1572 0.929 . S
C1531 C1528 1.356 . S
C1531 C1533 1.358 . S
C1531 H1573 0.930 . S
C1532 N1529 1.314 . S
C1532 C1530 1.353 . S
C1532 H1574 0.930 . S
C1533 N1529 1.279 . S
C1533 C1531 1.358 . S
C1533 H1575 0.930 . S
C1534 C1535 1.348 . S
C1534 C1536 1.356 . S
C1534 O1559 1.325 . S
C1535 C1534 1.348 . S
C1535 C1537 1.353 . S
C1535 H1576 0.929 . S
C1536 C1534 1.356 . S
C1536 C1538 1.358 . S
C1536 H1577 0.930 . S
C1537 C1535 1.353 . S
C1537 N1539 1.314 . S
C1537 H1578 0.930 . S
C1538 C1536 1.358 . S
C1538 N1539 1.279 . S
C1538 H1579 0.930 . S
N1539 C1537 1.314 . S
N1539 C1538 1.279 . S
C1540 C1542 1.353 . S
C1540 N1543 1.365 . S
C1540 H1546 0.930 . S
C1541 N1543 1.269 . S
C1541 C1544 1.358 . S
C1541 H1547 0.930 1_455 S
C1542 C1540 1.353 . S
C1542 C1545 1.348 . S
C1542 H1580 0.929 . S
N1543 Li1498 1.959 1_455 S
N1543 C1540 1.365 . S
N1543 C1541 1.269 . S
C1544 C1541 1.358 . S
C1544 C1545 1.356 . S
C1544 H1581 0.930 . S
C1545 C1542 1.348 . S
C1545 C1544 1.356 . S
H1546 C1540 0.930 . S
H1547 C1541 0.930 1_655 S
C1548 N1549 1.314 . S
C1548 C1550 1.353 . S
C1548 H1554 0.930 . S
N1549 Li1499 1.990 . S
N1549 C1548 1.314 . S
N1549 C1552 1.279 . S
C1550 C1548 1.353 . S
C1550 C1553 1.348 . S
C1550 H1582 0.929 . S
C1551 C1552 1.358 . S
C1551 C1553 1.356 . S
C1551 H1583 0.930 . S
C1552 N1549 1.279 . S
C1552 C1551 1.358 . S
C1552 H1555 0.930 . S
C1553 C1550 1.348 . S
C1553 C1551 1.356 . S
H1554 C1548 0.930 . S
H1555 C1552 0.930 . S
O1556 Li1496 1.956 . S
O1556 Li1497 1.970 . S
O1556 Li1498 1.961 . S
O1556 C1500 1.325 . S
O1557 Li1496 1.970 . S
O1557 Li1497 1.956 . S
O1557 Li1499 1.961 . S
O1557 C1506 1.325 . S
O1558 Li1496 1.961 . S
O1558 Li1498 1.956 . S
O1558 Li1499 1.970 . S
O1558 C1528 1.325 . S
O1559 Li1497 1.961 . S
O1559 Li1498 1.970 . S
O1559 Li1499 1.956 . S
O1559 C1534 1.325 . S
H1560 C1502 0.929 . S
H1561 C1503 0.930 . S
H1562 C1504 0.913 . S
H1563 C1505 0.930 . S
H1564 C1507 0.930 . S
H1565 C1509 0.929 . S
H1566 C1510 0.930 . S
H1567 C1511 0.930 . S
H1568 C1514 0.930 . S
H1569 C1517 0.929 . S
H1570 C1522 0.929 . S
H1571 C1523 0.930 . S
H1572 C1530 0.929 . S
H1573 C1531 0.930 . S
H1574 C1532 0.930 . S
H1575 C1533 0.930 . S
H1576 C1535 0.929 . S
H1577 C1536 0.930 . S
H1578 C1537 0.930 . S
H1579 C1538 0.930 . S
H1580 C1542 0.929 . S
H1581 C1544 0.930 . S
H1582 C1550 0.929 . S
H1583 C1551 0.930 . S
H1584 O1610 0.856 . S
H1585 O1613 0.854 . S
H1586 C1621 0.930 . S
H1587 C1622 0.930 . S
H1588 C1624 0.930 . S
H1589 C1625 0.930 . S
H1590 C1627 0.931 . S
H1591 C1628 0.930 . S
H1592 C1630 0.930 . S
H1593 C1631 0.929 . S
H1594 C1633 0.930 . S
H1595 C1634 0.931 . S
H1596 C1636 0.930 . S
H1597 C1637 0.929 . S
H1598 C1639 0.931 . S
H1599 C1640 0.930 . S
H1600 C1642 0.930 . S
H1601 C1643 0.932 . S
H1602 C1645 0.930 . S
H1603 C1646 0.929 . S
H1604 C1648 0.931 . S
H1605 C1649 0.930 . S
H1606 C1651 0.929 . S
H1607 C1652 0.931 . S
H1608 C1654 0.930 . S
H1609 C1655 0.929 . S
O1610 H1584 0.856 . S
O1610 C1656 1.300 . S
O1611 C1656 1.209 . S
O1612 C1657 1.199 . S
O1613 H1585 0.854 . S
O1613 C1657 1.297 . S
C1614 C1615 1.404 . S
C1614 C1619 1.397 . S
C1614 C1620 1.492 . S
C1615 C1614 1.404 . S
C1615 C1616 1.396 . S
C1615 C1626 1.492 . S
C1616 C1615 1.396 . S
C1616 C1617 1.397 . S
C1616 C1632 1.509 . S
C1617 C1616 1.397 . S
C1617 C1618 1.412 . S
C1617 C1638 1.485 . S
C1618 C1617 1.412 . S
C1618 C1619 1.388 . S
C1618 C1644 1.490 . S
C1619 C1614 1.397 . S
C1619 C1618 1.388 . S
C1619 C1650 1.519 . S
C1620 C1614 1.492 . S
C1620 C1621 1.363 . S
C1620 C1625 1.390 . S
C1621 H1586 0.930 . S
C1621 C1620 1.363 . S
C1621 C1622 1.372 . S
C1622 H1587 0.930 . S
C1622 C1621 1.372 . S
C1622 C1623 1.383 . S
C1623 C1622 1.383 . S
C1623 C1624 1.395 . S
C1624 H1588 0.930 . S
C1624 C1623 1.395 . S
C1624 C1625 1.362 . S
C1625 H1589 0.930 . S
C1625 C1620 1.390 . S
C1625 C1624 1.362 . S
C1626 C1615 1.492 . S
C1626 C1627 1.377 . S
C1626 C1631 1.397 . S
C1627 H1590 0.931 . S
C1627 C1626 1.377 . S
C1627 C1628 1.376 . S
C1628 H1591 0.930 . S
C1628 C1627 1.376 . S
C1628 C1629 1.376 . S
C1629 C1628 1.376 . S
C1629 C1630 1.378 . S
C1629 C1656 1.486 . S
C1630 H1592 0.930 . S
C1630 C1629 1.378 . S
C1630 C1631 1.376 . S
C1631 H1593 0.929 . S
C1631 C1626 1.397 . S
C1631 C1630 1.376 . S
C1632 C1616 1.509 . S
C1632 C1633 1.391 . S
C1632 C1637 1.386 . S
C1633 H1594 0.930 . S
C1633 C1632 1.391 . S
C1633 C1634 1.375 . S
C1634 H1595 0.931 . S
C1634 C1633 1.375 . S
C1634 C1635 1.375 . S
C1635 C1634 1.375 . S
C1635 C1636 1.361 . S
C1636 H1596 0.930 . S
C1636 C1635 1.361 . S
C1636 C1637 1.399 . S
C1637 H1597 0.929 . S
C1637 C1632 1.386 . S
C1637 C1636 1.399 . S
C1638 C1617 1.485 . S
C1638 C1639 1.394 . S
C1638 C1643 1.360 . S
C1639 H1598 0.931 . S
C1639 C1638 1.394 . S
C1639 C1640 1.372 . S
C1640 H1599 0.930 . S
C1640 C1639 1.372 . S
C1640 C1641 1.397 . S
C1641 C1640 1.397 . S
C1641 C1642 1.390 . S
C1641 C1657 1.476 . S
C1642 H1600 0.930 . S
C1642 C1641 1.390 . S
C1642 C1643 1.366 . S
C1643 H1601 0.932 . S
C1643 C1638 1.360 . S
C1643 C1642 1.366 . S
C1644 C1618 1.490 . S
C1644 C1645 1.380 . S
C1644 C1649 1.386 . S
C1645 H1602 0.930 . S
C1645 C1644 1.380 . S
C1645 C1646 1.381 . S
C1646 H1603 0.929 . S
C1646 C1645 1.381 . S
C1646 C1647 1.371 . S
C1647 C1646 1.371 . S
C1647 C1648 1.380 . S
C1648 H1604 0.931 . S
C1648 C1647 1.380 . S
C1648 C1649 1.387 . S
C1649 H1605 0.930 . S
C1649 C1644 1.386 . S
C1649 C1648 1.387 . S
C1650 C1619 1.519 . S
C1650 C1651 1.377 . S
C1650 C1655 1.361 . S
C1651 H1606 0.929 . S
C1651 C1650 1.377 . S
C1651 C1652 1.386 . S
C1652 H1607 0.931 . S
C1652 C1651 1.386 . S
C1652 C1653 1.363 . S
C1653 C1652 1.363 . S
C1653 C1654 1.385 . S
C1654 H1608 0.930 . S
C1654 C1653 1.385 . S
C1654 C1655 1.396 . S
C1655 H1609 0.929 . S
C1655 C1650 1.361 . S
C1655 C1654 1.396 . S
C1656 O1610 1.300 . S
C1656 O1611 1.209 . S
C1656 C1629 1.486 . S
C1657 O1612 1.199 . S
C1657 O1613 1.297 . S
C1657 C1641 1.476 . S
H1658 O1684 0.856 . S
H1659 O1687 0.854 . S
H1660 C1695 0.930 . S
H1661 C1696 0.930 . S
H1662 C1698 0.930 . S
H1663 C1699 0.930 . S
H1664 C1701 0.931 . S
H1665 C1702 0.930 . S
H1666 C1704 0.930 . S
H1667 C1705 0.929 . S
H1668 C1707 0.930 . S
H1669 C1708 0.931 . S
H1670 C1710 0.930 . S
H1671 C1711 0.929 . S
H1672 C1713 0.931 . S
H1673 C1714 0.930 . S
H1674 C1716 0.930 . S
H1675 C1717 0.932 . S
H1676 C1719 0.930 . S
H1677 C1720 0.929 . S
H1678 C1722 0.931 . S
H1679 C1723 0.930 . S
H1680 C1725 0.929 . S
H1681 C1726 0.931 . S
H1682 C1728 0.930 . S
H1683 C1729 0.929 . S
O1684 H1658 0.856 . S
O1684 C1730 1.300 . S
O1685 C1730 1.209 . S
O1686 C1731 1.199 . S
O1687 H1659 0.854 . S
O1687 C1731 1.297 . S
C1688 C1689 1.404 . S
C1688 C1693 1.397 . S
C1688 C1694 1.492 . S
C1689 C1688 1.404 . S
C1689 C1690 1.396 . S
C1689 C1700 1.492 . S
C1690 C1689 1.396 . S
C1690 C1691 1.397 . S
C1690 C1706 1.509 . S
C1691 C1690 1.397 . S
C1691 C1692 1.412 . S
C1691 C1712 1.485 . S
C1692 C1691 1.412 . S
C1692 C1693 1.388 . S
C1692 C1718 1.490 . S
C1693 C1688 1.397 . S
C1693 C1692 1.388 . S
C1693 C1724 1.519 . S
C1694 C1688 1.492 . S
C1694 C1695 1.363 . S
C1694 C1699 1.390 . S
C1695 H1660 0.930 . S
C1695 C1694 1.363 . S
C1695 C1696 1.372 . S
C1696 H1661 0.930 . S
C1696 C1695 1.372 . S
C1696 C1697 1.383 . S
C1697 C1696 1.383 . S
C1697 C1698 1.395 . S
C1698 H1662 0.930 . S
C1698 C1697 1.395 . S
C1698 C1699 1.362 . S
C1699 H1663 0.930 . S
C1699 C1694 1.390 . S
C1699 C1698 1.362 . S
C1700 C1689 1.492 . S
C1700 C1701 1.377 . S
C1700 C1705 1.397 . S
C1701 H1664 0.931 . S
C1701 C1700 1.377 . S
C1701 C1702 1.376 . S
C1702 H1665 0.930 . S
C1702 C1701 1.376 . S
C1702 C1703 1.376 . S
C1703 C1702 1.376 . S
C1703 C1704 1.378 . S
C1703 C1730 1.486 . S
C1704 H1666 0.930 . S
C1704 C1703 1.378 . S
C1704 C1705 1.376 . S
C1705 H1667 0.929 . S
C1705 C1700 1.397 . S
C1705 C1704 1.376 . S
C1706 C1690 1.509 . S
C1706 C1707 1.391 . S
C1706 C1711 1.386 . S
C1707 H1668 0.930 . S
C1707 C1706 1.391 . S
C1707 C1708 1.375 . S
C1708 H1669 0.931 . S
C1708 C1707 1.375 . S
C1708 C1709 1.375 . S
C1709 C1708 1.375 . S
C1709 C1710 1.361 . S
C1710 H1670 0.930 . S
C1710 C1709 1.361 . S
C1710 C1711 1.399 . S
C1711 H1671 0.929 . S
C1711 C1706 1.386 . S
C1711 C1710 1.399 . S
C1712 C1691 1.485 . S
C1712 C1713 1.394 . S
C1712 C1717 1.360 . S
C1713 H1672 0.931 . S
C1713 C1712 1.394 . S
C1713 C1714 1.372 . S
C1714 H1673 0.930 . S
C1714 C1713 1.372 . S
C1714 C1715 1.397 . S
C1715 C1714 1.397 . S
C1715 C1716 1.390 . S
C1715 C1731 1.476 . S
C1716 H1674 0.930 . S
C1716 C1715 1.390 . S
C1716 C1717 1.366 . S
C1717 H1675 0.932 . S
C1717 C1712 1.360 . S
C1717 C1716 1.366 . S
C1718 C1692 1.490 . S
C1718 C1719 1.380 . S
C1718 C1723 1.386 . S
C1719 H1676 0.930 . S
C1719 C1718 1.380 . S
C1719 C1720 1.381 . S
C1720 H1677 0.929 . S
C1720 C1719 1.381 . S
C1720 C1721 1.371 . S
C1721 C1720 1.371 . S
C1721 C1722 1.380 . S
C1722 H1678 0.931 . S
C1722 C1721 1.380 . S
C1722 C1723 1.387 . S
C1723 H1679 0.930 . S
C1723 C1718 1.386 . S
C1723 C1722 1.387 . S
C1724 C1693 1.519 . S
C1724 C1725 1.377 . S
C1724 C1729 1.361 . S
C1725 H1680 0.929 . S
C1725 C1724 1.377 . S
C1725 C1726 1.386 . S
C1726 H1681 0.931 . S
C1726 C1725 1.386 . S
C1726 C1727 1.363 . S
C1727 C1726 1.363 . S
C1727 C1728 1.385 . S
C1728 H1682 0.930 . S
C1728 C1727 1.385 . S
C1728 C1729 1.396 . S
C1729 H1683 0.929 . S
C1729 C1724 1.361 . S
C1729 C1728 1.396 . S
C1730 O1684 1.300 . S
C1730 O1685 1.209 . S
C1730 C1703 1.486 . S
C1731 O1686 1.199 . S
C1731 O1687 1.297 . S
C1731 C1715 1.476 . S
H1732 O1758 0.856 . S
H1733 O1761 0.854 . S
H1734 C1769 0.930 . S
H1735 C1770 0.930 . S
H1736 C1772 0.930 . S
H1737 C1773 0.930 . S
H1738 C1775 0.931 . S
H1739 C1776 0.930 . S
H1740 C1778 0.930 . S
H1741 C1779 0.929 . S
H1742 C1781 0.930 . S
H1743 C1782 0.931 . S
H1744 C1784 0.930 . S
H1745 C1785 0.929 . S
H1746 C1787 0.931 . S
H1747 C1788 0.930 . S
H1748 C1790 0.930 . S
H1749 C1791 0.932 . S
H1750 C1793 0.930 . S
H1751 C1794 0.929 . S
H1752 C1796 0.931 . S
H1753 C1797 0.930 . S
H1754 C1799 0.929 . S
H1755 C1800 0.931 . S
H1756 C1802 0.930 . S
H1757 C1803 0.929 . S
O1758 H1732 0.856 . S
O1758 C1804 1.300 . S
O1759 C1804 1.209 . S
O1760 C1805 1.199 . S
O1761 H1733 0.854 . S
O1761 C1805 1.297 . S
C1762 C1763 1.404 . S
C1762 C1767 1.397 . S
C1762 C1768 1.492 . S
C1763 C1762 1.404 . S
C1763 C1764 1.396 . S
C1763 C1774 1.492 . S
C1764 C1763 1.396 . S
C1764 C1765 1.397 . S
C1764 C1780 1.509 . S
C1765 C1764 1.397 . S
C1765 C1766 1.412 . S
C1765 C1786 1.485 . S
C1766 C1765 1.412 . S
C1766 C1767 1.388 . S
C1766 C1792 1.490 . S
C1767 C1762 1.397 . S
C1767 C1766 1.388 . S
C1767 C1798 1.519 . S
C1768 C1762 1.492 . S
C1768 C1769 1.363 . S
C1768 C1773 1.390 . S
C1769 H1734 0.930 . S
C1769 C1768 1.363 . S
C1769 C1770 1.372 . S
C1770 H1735 0.930 . S
C1770 C1769 1.372 . S
C1770 C1771 1.383 . S
C1771 C1770 1.383 . S
C1771 C1772 1.395 . S
C1772 H1736 0.930 . S
C1772 C1771 1.395 . S
C1772 C1773 1.362 . S
C1773 H1737 0.930 . S
C1773 C1768 1.390 . S
C1773 C1772 1.362 . S
C1774 C1763 1.492 . S
C1774 C1775 1.377 . S
C1774 C1779 1.397 . S
C1775 H1738 0.931 . S
C1775 C1774 1.377 . S
C1775 C1776 1.376 . S
C1776 H1739 0.930 . S
C1776 C1775 1.376 . S
C1776 C1777 1.376 . S
C1777 C1776 1.376 . S
C1777 C1778 1.378 . S
C1777 C1804 1.486 . S
C1778 H1740 0.930 . S
C1778 C1777 1.378 . S
C1778 C1779 1.376 . S
C1779 H1741 0.929 . S
C1779 C1774 1.397 . S
C1779 C1778 1.376 . S
C1780 C1764 1.509 . S
C1780 C1781 1.391 . S
C1780 C1785 1.386 . S
C1781 H1742 0.930 . S
C1781 C1780 1.391 . S
C1781 C1782 1.375 . S
C1782 H1743 0.931 . S
C1782 C1781 1.375 . S
C1782 C1783 1.375 . S
C1783 C1782 1.375 . S
C1783 C1784 1.361 . S
C1784 H1744 0.930 . S
C1784 C1783 1.361 . S
C1784 C1785 1.399 . S
C1785 H1745 0.929 . S
C1785 C1780 1.386 . S
C1785 C1784 1.399 . S
C1786 C1765 1.485 . S
C1786 C1787 1.394 . S
C1786 C1791 1.360 . S
C1787 H1746 0.931 . S
C1787 C1786 1.394 . S
C1787 C1788 1.372 . S
C1788 H1747 0.930 . S
C1788 C1787 1.372 . S
C1788 C1789 1.397 . S
C1789 C1788 1.397 . S
C1789 C1790 1.390 . S
C1789 C1805 1.476 . S
C1790 H1748 0.930 . S
C1790 C1789 1.390 . S
C1790 C1791 1.366 . S
C1791 H1749 0.932 . S
C1791 C1786 1.360 . S
C1791 C1790 1.366 . S
C1792 C1766 1.490 . S
C1792 C1793 1.380 . S
C1792 C1797 1.386 . S
C1793 H1750 0.930 . S
C1793 C1792 1.380 . S
C1793 C1794 1.381 . S
C1794 H1751 0.929 . S
C1794 C1793 1.381 . S
C1794 C1795 1.371 . S
C1795 C1794 1.371 . S
C1795 C1796 1.380 . S
C1796 H1752 0.931 . S
C1796 C1795 1.380 . S
C1796 C1797 1.387 . S
C1797 H1753 0.930 . S
C1797 C1792 1.386 . S
C1797 C1796 1.387 . S
C1798 C1767 1.519 . S
C1798 C1799 1.377 . S
C1798 C1803 1.361 . S
C1799 H1754 0.929 . S
C1799 C1798 1.377 . S
C1799 C1800 1.386 . S
C1800 H1755 0.931 . S
C1800 C1799 1.386 . S
C1800 C1801 1.363 . S
C1801 C1800 1.363 . S
C1801 C1802 1.385 . S
C1802 H1756 0.930 . S
C1802 C1801 1.385 . S
C1802 C1803 1.396 . S
C1803 H1757 0.929 . S
C1803 C1798 1.361 . S
C1803 C1802 1.396 . S
C1804 O1758 1.300 . S
C1804 O1759 1.209 . S
C1804 C1777 1.486 . S
C1805 O1760 1.199 . S
C1805 O1761 1.297 . S
C1805 C1789 1.476 . S
H1806 O1832 0.856 . S
H1807 O1835 0.854 . S
H1808 C1843 0.930 . S
H1809 C1844 0.930 . S
H1810 C1846 0.930 . S
H1811 C1847 0.930 . S
H1812 C1849 0.931 . S
H1813 C1850 0.930 . S
H1814 C1852 0.930 . S
H1815 C1853 0.929 . S
H1816 C1855 0.930 . S
H1817 C1856 0.931 . S
H1818 C1858 0.930 . S
H1819 C1859 0.929 . S
H1820 C1861 0.931 . S
H1821 C1862 0.930 . S
H1822 C1864 0.930 . S
H1823 C1865 0.932 . S
H1824 C1867 0.930 . S
H1825 C1868 0.929 . S
H1826 C1870 0.931 . S
H1827 C1871 0.930 . S
H1828 C1873 0.929 . S
H1829 C1874 0.931 . S
H1830 C1876 0.930 . S
H1831 C1877 0.929 . S
O1832 H1806 0.856 . S
O1832 C1878 1.300 . S
O1833 C1878 1.209 . S
O1834 C1879 1.199 . S
O1835 H1807 0.854 . S
O1835 C1879 1.297 . S
C1836 C1837 1.404 . S
C1836 C1841 1.397 . S
C1836 C1842 1.492 . S
C1837 C1836 1.404 . S
C1837 C1838 1.396 . S
C1837 C1848 1.492 . S
C1838 C1837 1.396 . S
C1838 C1839 1.397 . S
C1838 C1854 1.509 . S
C1839 C1838 1.397 . S
C1839 C1840 1.412 . S
C1839 C1860 1.485 . S
C1840 C1839 1.412 . S
C1840 C1841 1.388 . S
C1840 C1866 1.490 . S
C1841 C1836 1.397 . S
C1841 C1840 1.388 . S
C1841 C1872 1.519 . S
C1842 C1836 1.492 . S
C1842 C1843 1.363 . S
C1842 C1847 1.390 . S
C1843 H1808 0.930 . S
C1843 C1842 1.363 . S
C1843 C1844 1.372 . S
C1844 H1809 0.930 . S
C1844 C1843 1.372 . S
C1844 C1845 1.383 . S
C1845 C1844 1.383 . S
C1845 C1846 1.395 . S
C1846 H1810 0.930 . S
C1846 C1845 1.395 . S
C1846 C1847 1.362 . S
C1847 H1811 0.930 . S
C1847 C1842 1.390 . S
C1847 C1846 1.362 . S
C1848 C1837 1.492 . S
C1848 C1849 1.377 . S
C1848 C1853 1.397 . S
C1849 H1812 0.931 . S
C1849 C1848 1.377 . S
C1849 C1850 1.376 . S
C1850 H1813 0.930 . S
C1850 C1849 1.376 . S
C1850 C1851 1.376 . S
C1851 C1850 1.376 . S
C1851 C1852 1.378 . S
C1851 C1878 1.486 1_556 S
C1852 H1814 0.930 . S
C1852 C1851 1.378 . S
C1852 C1853 1.376 . S
C1853 H1815 0.929 . S
C1853 C1848 1.397 . S
C1853 C1852 1.376 . S
C1854 C1838 1.509 . S
C1854 C1855 1.391 . S
C1854 C1859 1.386 . S
C1855 H1816 0.930 . S
C1855 C1854 1.391 . S
C1855 C1856 1.375 . S
C1856 H1817 0.931 . S
C1856 C1855 1.375 . S
C1856 C1857 1.375 . S
C1857 C1856 1.375 . S
C1857 C1858 1.361 . S
C1858 H1818 0.930 . S
C1858 C1857 1.361 . S
C1858 C1859 1.399 . S
C1859 H1819 0.929 . S
C1859 C1854 1.386 . S
C1859 C1858 1.399 . S
C1860 C1839 1.485 . S
C1860 C1861 1.394 . S
C1860 C1865 1.360 . S
C1861 H1820 0.931 . S
C1861 C1860 1.394 . S
C1861 C1862 1.372 . S
C1862 H1821 0.930 . S
C1862 C1861 1.372 . S
C1862 C1863 1.397 . S
C1863 C1862 1.397 . S
C1863 C1864 1.390 . S
C1863 C1879 1.476 . S
C1864 H1822 0.930 . S
C1864 C1863 1.390 . S
C1864 C1865 1.366 . S
C1865 H1823 0.932 . S
C1865 C1860 1.360 . S
C1865 C1864 1.366 . S
C1866 C1840 1.490 . S
C1866 C1867 1.380 . S
C1866 C1871 1.386 . S
C1867 H1824 0.930 . S
C1867 C1866 1.380 . S
C1867 C1868 1.381 . S
C1868 H1825 0.929 . S
C1868 C1867 1.381 . S
C1868 C1869 1.371 . S
C1869 C1868 1.371 . S
C1869 C1870 1.380 . S
C1870 H1826 0.931 . S
C1870 C1869 1.380 . S
C1870 C1871 1.387 . S
C1871 H1827 0.930 . S
C1871 C1866 1.386 . S
C1871 C1870 1.387 . S
C1872 C1841 1.519 . S
C1872 C1873 1.377 . S
C1872 C1877 1.361 . S
C1873 H1828 0.929 . S
C1873 C1872 1.377 . S
C1873 C1874 1.386 . S
C1874 H1829 0.931 . S
C1874 C1873 1.386 . S
C1874 C1875 1.363 . S
C1875 C1874 1.363 . S
C1875 C1876 1.385 . S
C1876 H1830 0.930 . S
C1876 C1875 1.385 . S
C1876 C1877 1.396 . S
C1877 H1831 0.929 . S
C1877 C1872 1.361 . S
C1877 C1876 1.396 . S
C1878 O1832 1.300 . S
C1878 O1833 1.209 . S
C1878 C1851 1.486 1_554 S
C1879 O1834 1.199 . S
C1879 O1835 1.297 . S
C1879 C1863 1.476 . S
H1880 O1906 0.856 . S
H1881 O1909 0.854 . S
H1882 C1917 0.930 . S
H1883 C1918 0.930 . S
H1884 C1920 0.930 . S
H1885 C1921 0.930 . S
H1886 C1923 0.931 . S
H1887 C1924 0.930 . S
H1888 C1926 0.930 . S
H1889 C1927 0.929 . S
H1890 C1929 0.930 . S
H1891 C1930 0.931 . S
H1892 C1932 0.930 . S
H1893 C1933 0.929 . S
H1894 C1935 0.931 . S
H1895 C1936 0.930 . S
H1896 C1938 0.930 . S
H1897 C1939 0.932 . S
H1898 C1941 0.930 . S
H1899 C1942 0.929 . S
H1900 C1944 0.931 . S
H1901 C1945 0.930 . S
H1902 C1947 0.929 . S
H1903 C1948 0.931 . S
H1904 C1950 0.930 . S
H1905 C1951 0.929 . S
O1906 H1880 0.856 . S
O1906 C1952 1.300 . S
O1907 C1952 1.209 . S
O1908 C1953 1.199 . S
O1909 H1881 0.854 . S
O1909 C1953 1.297 . S
C1910 C1911 1.404 . S
C1910 C1915 1.397 . S
C1910 C1916 1.492 . S
C1911 C1910 1.404 . S
C1911 C1912 1.396 . S
C1911 C1922 1.492 . S
C1912 C1911 1.396 . S
C1912 C1913 1.397 . S
C1912 C1928 1.509 . S
C1913 C1912 1.397 . S
C1913 C1914 1.412 . S
C1913 C1934 1.485 . S
C1914 C1913 1.412 . S
C1914 C1915 1.388 . S
C1914 C1940 1.490 . S
C1915 C1910 1.397 . S
C1915 C1914 1.388 . S
C1915 C1946 1.519 . S
C1916 C1910 1.492 . S
C1916 C1917 1.363 . S
C1916 C1921 1.390 . S
C1917 H1882 0.930 . S
C1917 C1916 1.363 . S
C1917 C1918 1.372 . S
C1918 H1883 0.930 . S
C1918 C1917 1.372 . S
C1918 C1919 1.383 . S
C1919 C1918 1.383 . S
C1919 C1920 1.395 . S
C1920 H1884 0.930 . S
C1920 C1919 1.395 . S
C1920 C1921 1.362 . S
C1921 H1885 0.930 . S
C1921 C1916 1.390 . S
C1921 C1920 1.362 . S
C1922 C1911 1.492 . S
C1922 C1923 1.377 . S
C1922 C1927 1.397 . S
C1923 H1886 0.931 . S
C1923 C1922 1.377 . S
C1923 C1924 1.376 . S
C1924 H1887 0.930 . S
C1924 C1923 1.376 . S
C1924 C1925 1.376 . S
C1925 C1924 1.376 . S
C1925 C1926 1.378 . S
C1925 C1952 1.486 1_556 S
C1926 H1888 0.930 . S
C1926 C1925 1.378 . S
C1926 C1927 1.376 . S
C1927 H1889 0.929 . S
C1927 C1922 1.397 . S
C1927 C1926 1.376 . S
C1928 C1912 1.509 . S
C1928 C1929 1.391 . S
C1928 C1933 1.386 . S
C1929 H1890 0.930 . S
C1929 C1928 1.391 . S
C1929 C1930 1.375 . S
C1930 H1891 0.931 . S
C1930 C1929 1.375 . S
C1930 C1931 1.375 . S
C1931 C1930 1.375 . S
C1931 C1932 1.361 . S
C1932 H1892 0.930 . S
C1932 C1931 1.361 . S
C1932 C1933 1.399 . S
C1933 H1893 0.929 . S
C1933 C1928 1.386 . S
C1933 C1932 1.399 . S
C1934 C1913 1.485 . S
C1934 C1935 1.394 . S
C1934 C1939 1.360 . S
C1935 H1894 0.931 . S
C1935 C1934 1.394 . S
C1935 C1936 1.372 . S
C1936 H1895 0.930 . S
C1936 C1935 1.372 . S
C1936 C1937 1.397 . S
C1937 C1936 1.397 . S
C1937 C1938 1.390 . S
C1937 C1953 1.476 . S
C1938 H1896 0.930 . S
C1938 C1937 1.390 . S
C1938 C1939 1.366 . S
C1939 H1897 0.932 . S
C1939 C1934 1.360 . S
C1939 C1938 1.366 . S
C1940 C1914 1.490 . S
C1940 C1941 1.380 . S
C1940 C1945 1.386 . S
C1941 H1898 0.930 . S
C1941 C1940 1.380 . S
C1941 C1942 1.381 . S
C1942 H1899 0.929 . S
C1942 C1941 1.381 . S
C1942 C1943 1.371 . S
C1943 C1942 1.371 . S
C1943 C1944 1.380 . S
C1944 H1900 0.931 . S
C1944 C1943 1.380 . S
C1944 C1945 1.387 . S
C1945 H1901 0.930 . S
C1945 C1940 1.386 . S
C1945 C1944 1.387 . S
C1946 C1915 1.519 . S
C1946 C1947 1.377 . S
C1946 C1951 1.361 . S
C1947 H1902 0.929 . S
C1947 C1946 1.377 . S
C1947 C1948 1.386 . S
C1948 H1903 0.931 . S
C1948 C1947 1.386 . S
C1948 C1949 1.363 . S
C1949 C1948 1.363 . S
C1949 C1950 1.385 . S
C1950 H1904 0.930 . S
C1950 C1949 1.385 . S
C1950 C1951 1.396 . S
C1951 H1905 0.929 . S
C1951 C1946 1.361 . S
C1951 C1950 1.396 . S
C1952 O1906 1.300 . S
C1952 O1907 1.209 . S
C1952 C1925 1.486 1_554 S
C1953 O1908 1.199 . S
C1953 O1909 1.297 . S
C1953 C1937 1.476 . S
H1954 O1980 0.856 . S
H1955 O1983 0.854 . S
H1956 C1991 0.930 . S
H1957 C1992 0.930 . S
H1958 C1994 0.930 . S
H1959 C1995 0.930 . S
H1960 C1997 0.931 . S
H1961 C1998 0.930 . S
H1962 C2000 0.930 . S
H1963 C2001 0.929 . S
H1964 C2003 0.930 . S
H1965 C2004 0.931 . S
H1966 C2006 0.930 . S
H1967 C2007 0.929 . S
H1968 C2009 0.931 . S
H1969 C2010 0.930 . S
H1970 C2012 0.930 . S
H1971 C2013 0.932 . S
H1972 C2015 0.930 . S
H1973 C2016 0.929 . S
H1974 C2018 0.931 . S
H1975 C2019 0.930 . S
H1976 C2021 0.929 . S
H1977 C2022 0.931 . S
H1978 C2024 0.930 . S
H1979 C2025 0.929 . S
O1980 H1954 0.856 . S
O1980 C2026 1.300 . S
O1981 C2026 1.209 . S
O1982 C2027 1.199 . S
O1983 H1955 0.854 . S
O1983 C2027 1.297 . S
C1984 C1985 1.404 . S
C1984 C1989 1.397 . S
C1984 C1990 1.492 . S
C1985 C1984 1.404 . S
C1985 C1986 1.396 . S
C1985 C1996 1.492 . S
C1986 C1985 1.396 . S
C1986 C1987 1.397 . S
C1986 C2002 1.509 . S
C1987 C1986 1.397 . S
C1987 C1988 1.412 . S
C1987 C2008 1.485 . S
C1988 C1987 1.412 . S
C1988 C1989 1.388 . S
C1988 C2014 1.490 . S
C1989 C1984 1.397 . S
C1989 C1988 1.388 . S
C1989 C2020 1.519 . S
C1990 C1984 1.492 . S
C1990 C1991 1.363 . S
C1990 C1995 1.390 . S
C1991 H1956 0.930 . S
C1991 C1990 1.363 . S
C1991 C1992 1.372 . S
C1992 H1957 0.930 . S
C1992 C1991 1.372 . S
C1992 C1993 1.383 . S
C1993 C1992 1.383 . S
C1993 C1994 1.395 . S
C1994 H1958 0.930 . S
C1994 C1993 1.395 . S
C1994 C1995 1.362 . S
C1995 H1959 0.930 . S
C1995 C1990 1.390 . S
C1995 C1994 1.362 . S
C1996 C1985 1.492 . S
C1996 C1997 1.377 . S
C1996 C2001 1.397 . S
C1997 H1960 0.931 . S
C1997 C1996 1.377 . S
C1997 C1998 1.376 1_556 S
C1998 H1961 0.930 . S
C1998 C1997 1.376 1_554 S
C1998 C1999 1.376 . S
C1999 C1998 1.376 . S
C1999 C2000 1.378 1_554 S
C1999 C2026 1.486 . S
C2000 H1962 0.930 . S
C2000 C1999 1.378 1_556 S
C2000 C2001 1.376 . S
C2001 H1963 0.929 . S
C2001 C1996 1.397 . S
C2001 C2000 1.376 . S
C2002 C1986 1.509 . S
C2002 C2003 1.391 . S
C2002 C2007 1.386 . S
C2003 H1964 0.930 . S
C2003 C2002 1.391 . S
C2003 C2004 1.375 . S
C2004 H1965 0.931 . S
C2004 C2003 1.375 . S
C2004 C2005 1.375 . S
C2005 C2004 1.375 . S
C2005 C2006 1.361 . S
C2006 H1966 0.930 . S
C2006 C2005 1.361 . S
C2006 C2007 1.399 . S
C2007 H1967 0.929 . S
C2007 C2002 1.386 . S
C2007 C2006 1.399 . S
C2008 C1987 1.485 . S
C2008 C2009 1.394 . S
C2008 C2013 1.360 . S
C2009 H1968 0.931 . S
C2009 C2008 1.394 . S
C2009 C2010 1.372 . S
C2010 H1969 0.930 . S
C2010 C2009 1.372 . S
C2010 C2011 1.397 . S
C2011 C2010 1.397 . S
C2011 C2012 1.390 . S
C2011 C2027 1.476 . S
C2012 H1970 0.930 . S
C2012 C2011 1.390 . S
C2012 C2013 1.366 . S
C2013 H1971 0.932 . S
C2013 C2008 1.360 . S
C2013 C2012 1.366 . S
C2014 C1988 1.490 . S
C2014 C2015 1.380 . S
C2014 C2019 1.386 . S
C2015 H1972 0.930 . S
C2015 C2014 1.380 . S
C2015 C2016 1.381 . S
C2016 H1973 0.929 . S
C2016 C2015 1.381 . S
C2016 C2017 1.371 . S
C2017 C2016 1.371 . S
C2017 C2018 1.380 . S
C2018 H1974 0.931 . S
C2018 C2017 1.380 . S
C2018 C2019 1.387 . S
C2019 H1975 0.930 . S
C2019 C2014 1.386 . S
C2019 C2018 1.387 . S
C2020 C1989 1.519 . S
C2020 C2021 1.377 . S
C2020 C2025 1.361 . S
C2021 H1976 0.929 . S
C2021 C2020 1.377 . S
C2021 C2022 1.386 . S
C2022 H1977 0.931 . S
C2022 C2021 1.386 . S
C2022 C2023 1.363 . S
C2023 C2022 1.363 . S
C2023 C2024 1.385 . S
C2024 H1978 0.930 . S
C2024 C2023 1.385 . S
C2024 C2025 1.396 . S
C2025 H1979 0.929 . S
C2025 C2020 1.361 . S
C2025 C2024 1.396 . S
C2026 O1980 1.300 . S
C2026 O1981 1.209 . S
C2026 C1999 1.486 . S
C2027 O1982 1.199 . S
C2027 O1983 1.297 . S
C2027 C2011 1.476 . S
H2028 O2054 0.856 . S
H2029 O2057 0.854 . S
H2030 C2065 0.930 . S
H2031 C2066 0.930 . S
H2032 C2068 0.930 . S
H2033 C2069 0.930 . S
H2034 C2071 0.931 . S
H2035 C2072 0.930 . S
H2036 C2074 0.930 . S
H2037 C2075 0.929 . S
H2038 C2077 0.930 . S
H2039 C2078 0.931 . S
H2040 C2080 0.930 . S
H2041 C2081 0.929 . S
H2042 C2083 0.931 . S
H2043 C2084 0.930 . S
H2044 C2086 0.930 . S
H2045 C2087 0.932 . S
H2046 C2089 0.930 . S
H2047 C2090 0.929 . S
H2048 C2092 0.931 . S
H2049 C2093 0.930 . S
H2050 C2095 0.929 . S
H2051 C2096 0.931 . S
H2052 C2098 0.930 . S
H2053 C2099 0.929 . S
O2054 H2028 0.856 . S
O2054 C2100 1.300 . S
O2055 C2100 1.209 . S
O2056 C2101 1.199 . S
O2057 H2029 0.854 . S
O2057 C2101 1.297 . S
C2058 C2059 1.404 . S
C2058 C2063 1.397 . S
C2058 C2064 1.492 . S
C2059 C2058 1.404 . S
C2059 C2060 1.396 . S
C2059 C2070 1.492 . S
C2060 C2059 1.396 . S
C2060 C2061 1.397 . S
C2060 C2076 1.509 . S
C2061 C2060 1.397 . S
C2061 C2062 1.412 . S
C2061 C2082 1.485 . S
C2062 C2061 1.412 . S
C2062 C2063 1.388 . S
C2062 C2088 1.490 . S
C2063 C2058 1.397 . S
C2063 C2062 1.388 . S
C2063 C2094 1.519 . S
C2064 C2058 1.492 . S
C2064 C2065 1.363 . S
C2064 C2069 1.390 . S
C2065 H2030 0.930 . S
C2065 C2064 1.363 . S
C2065 C2066 1.372 . S
C2066 H2031 0.930 . S
C2066 C2065 1.372 . S
C2066 C2067 1.383 . S
C2067 C2066 1.383 . S
C2067 C2068 1.395 . S
C2068 H2032 0.930 . S
C2068 C2067 1.395 . S
C2068 C2069 1.362 . S
C2069 H2033 0.930 . S
C2069 C2064 1.390 . S
C2069 C2068 1.362 . S
C2070 C2059 1.492 . S
C2070 C2071 1.377 . S
C2070 C2075 1.397 . S
C2071 H2034 0.931 . S
C2071 C2070 1.377 . S
C2071 C2072 1.376 . S
C2072 H2035 0.930 . S
C2072 C2071 1.376 . S
C2072 C2073 1.376 . S
C2073 C2072 1.376 . S
C2073 C2074 1.378 . S
C2073 C2100 1.486 . S
C2074 H2036 0.930 . S
C2074 C2073 1.378 . S
C2074 C2075 1.376 . S
C2075 H2037 0.929 . S
C2075 C2070 1.397 . S
C2075 C2074 1.376 . S
C2076 C2060 1.509 . S
C2076 C2077 1.391 . S
C2076 C2081 1.386 . S
C2077 H2038 0.930 . S
C2077 C2076 1.391 . S
C2077 C2078 1.375 . S
C2078 H2039 0.931 . S
C2078 C2077 1.375 . S
C2078 C2079 1.375 . S
C2079 C2078 1.375 . S
C2079 C2080 1.361 . S
C2080 H2040 0.930 . S
C2080 C2079 1.361 . S
C2080 C2081 1.399 . S
C2081 H2041 0.929 . S
C2081 C2076 1.386 . S
C2081 C2080 1.399 . S
C2082 C2061 1.485 . S
C2082 C2083 1.394 . S
C2082 C2087 1.360 . S
C2083 H2042 0.931 . S
C2083 C2082 1.394 . S
C2083 C2084 1.372 . S
C2084 H2043 0.930 . S
C2084 C2083 1.372 . S
C2084 C2085 1.397 . S
C2085 C2084 1.397 . S
C2085 C2086 1.390 . S
C2085 C2101 1.476 . S
C2086 H2044 0.930 . S
C2086 C2085 1.390 . S
C2086 C2087 1.366 . S
C2087 H2045 0.932 . S
C2087 C2082 1.360 . S
C2087 C2086 1.366 . S
C2088 C2062 1.490 . S
C2088 C2089 1.380 . S
C2088 C2093 1.386 . S
C2089 H2046 0.930 . S
C2089 C2088 1.380 . S
C2089 C2090 1.381 . S
C2090 H2047 0.929 . S
C2090 C2089 1.381 . S
C2090 C2091 1.371 . S
C2091 C2090 1.371 . S
C2091 C2092 1.380 . S
C2092 H2048 0.931 . S
C2092 C2091 1.380 . S
C2092 C2093 1.387 . S
C2093 H2049 0.930 . S
C2093 C2088 1.386 . S
C2093 C2092 1.387 . S
C2094 C2063 1.519 . S
C2094 C2095 1.377 . S
C2094 C2099 1.361 . S
C2095 H2050 0.929 . S
C2095 C2094 1.377 . S
C2095 C2096 1.386 . S
C2096 H2051 0.931 . S
C2096 C2095 1.386 . S
C2096 C2097 1.363 . S
C2097 C2096 1.363 . S
C2097 C2098 1.385 . S
C2098 H2052 0.930 . S
C2098 C2097 1.385 . S
C2098 C2099 1.396 . S
C2099 H2053 0.929 . S
C2099 C2094 1.361 . S
C2099 C2098 1.396 . S
C2100 O2054 1.300 . S
C2100 O2055 1.209 . S
C2100 C2073 1.486 . S
C2101 O2056 1.199 . S
C2101 O2057 1.297 . S
C2101 C2085 1.476 . S
H2102 O2128 0.856 . S
H2103 O2131 0.854 . S
H2104 C2139 0.930 . S
H2105 C2140 0.930 . S
H2106 C2142 0.930 . S
H2107 C2143 0.930 . S
H2108 C2145 0.931 . S
H2109 C2146 0.930 . S
H2110 C2148 0.930 . S
H2111 C2149 0.929 . S
H2112 C2151 0.930 . S
H2113 C2152 0.931 . S
H2114 C2154 0.930 . S
H2115 C2155 0.929 . S
H2116 C2157 0.931 . S
H2117 C2158 0.930 . S
H2118 C2160 0.930 . S
H2119 C2161 0.932 . S
H2120 C2163 0.930 . S
H2121 C2164 0.929 . S
H2122 C2166 0.931 . S
H2123 C2167 0.930 . S
H2124 C2169 0.929 . S
H2125 C2170 0.931 . S
H2126 C2172 0.930 . S
H2127 C2173 0.929 . S
O2128 H2102 0.856 . S
O2128 C2174 1.300 . S
O2129 C2174 1.209 . S
O2130 C2175 1.199 . S
O2131 H2103 0.854 . S
O2131 C2175 1.297 . S
C2132 C2133 1.404 . S
C2132 C2137 1.397 . S
C2132 C2138 1.492 . S
C2133 C2132 1.404 . S
C2133 C2134 1.396 . S
C2133 C2144 1.492 . S
C2134 C2133 1.396 . S
C2134 C2135 1.397 . S
C2134 C2150 1.509 . S
C2135 C2134 1.397 . S
C2135 C2136 1.412 . S
C2135 C2156 1.485 . S
C2136 C2135 1.412 . S
C2136 C2137 1.388 . S
C2136 C2162 1.490 . S
C2137 C2132 1.397 . S
C2137 C2136 1.388 . S
C2137 C2168 1.519 . S
C2138 C2132 1.492 . S
C2138 C2139 1.363 . S
C2138 C2143 1.390 . S
C2139 H2104 0.930 . S
C2139 C2138 1.363 . S
C2139 C2140 1.372 . S
C2140 H2105 0.930 . S
C2140 C2139 1.372 . S
C2140 C2141 1.383 . S
C2141 C2140 1.383 . S
C2141 C2142 1.395 . S
C2142 H2106 0.930 . S
C2142 C2141 1.395 . S
C2142 C2143 1.362 . S
C2143 H2107 0.930 . S
C2143 C2138 1.390 . S
C2143 C2142 1.362 . S
C2144 C2133 1.492 . S
C2144 C2145 1.377 . S
C2144 C2149 1.397 . S
C2145 H2108 0.931 . S
C2145 C2144 1.377 . S
C2145 C2146 1.376 . S
C2146 H2109 0.930 . S
C2146 C2145 1.376 . S
C2146 C2147 1.376 . S
C2147 C2146 1.376 . S
C2147 C2148 1.378 . S
C2147 C2174 1.486 . S
C2148 H2110 0.930 . S
C2148 C2147 1.378 . S
C2148 C2149 1.376 . S
C2149 H2111 0.929 . S
C2149 C2144 1.397 . S
C2149 C2148 1.376 . S
C2150 C2134 1.509 . S
C2150 C2151 1.391 . S
C2150 C2155 1.386 . S
C2151 H2112 0.930 . S
C2151 C2150 1.391 . S
C2151 C2152 1.375 . S
C2152 H2113 0.931 . S
C2152 C2151 1.375 . S
C2152 C2153 1.375 . S
C2153 C2152 1.375 . S
C2153 C2154 1.361 . S
C2154 H2114 0.930 . S
C2154 C2153 1.361 . S
C2154 C2155 1.399 . S
C2155 H2115 0.929 . S
C2155 C2150 1.386 . S
C2155 C2154 1.399 . S
C2156 C2135 1.485 . S
C2156 C2157 1.394 . S
C2156 C2161 1.360 . S
C2157 H2116 0.931 . S
C2157 C2156 1.394 . S
C2157 C2158 1.372 . S
C2158 H2117 0.930 . S
C2158 C2157 1.372 . S
C2158 C2159 1.397 . S
C2159 C2158 1.397 . S
C2159 C2160 1.390 . S
C2159 C2175 1.476 . S
C2160 H2118 0.930 . S
C2160 C2159 1.390 . S
C2160 C2161 1.366 . S
C2161 H2119 0.932 . S
C2161 C2156 1.360 . S
C2161 C2160 1.366 . S
C2162 C2136 1.490 . S
C2162 C2163 1.380 . S
C2162 C2167 1.386 . S
C2163 H2120 0.930 . S
C2163 C2162 1.380 . S
C2163 C2164 1.381 . S
C2164 H2121 0.929 . S
C2164 C2163 1.381 . S
C2164 C2165 1.371 . S
C2165 C2164 1.371 . S
C2165 C2166 1.380 . S
C2166 H2122 0.931 . S
C2166 C2165 1.380 . S
C2166 C2167 1.387 . S
C2167 H2123 0.930 . S
C2167 C2162 1.386 . S
C2167 C2166 1.387 . S
C2168 C2137 1.519 . S
C2168 C2169 1.377 . S
C2168 C2173 1.361 . S
C2169 H2124 0.929 . S
C2169 C2168 1.377 . S
C2169 C2170 1.386 . S
C2170 H2125 0.931 . S
C2170 C2169 1.386 . S
C2170 C2171 1.363 . S
C2171 C2170 1.363 . S
C2171 C2172 1.385 . S
C2172 H2126 0.930 . S
C2172 C2171 1.385 . S
C2172 C2173 1.396 . S
C2173 H2127 0.929 . S
C2173 C2168 1.361 . S
C2173 C2172 1.396 . S
C2174 O2128 1.300 . S
C2174 O2129 1.209 . S
C2174 C2147 1.486 . S
C2175 O2130 1.199 . S
C2175 O2131 1.297 . S
C2175 C2159 1.476 . S
H2176 O2202 0.856 . S
H2177 O2205 0.854 . S
H2178 C2213 0.930 . S
H2179 C2214 0.930 . S
H2180 C2216 0.930 . S
H2181 C2217 0.930 . S
H2182 C2219 0.931 . S
H2183 C2220 0.930 . S
H2184 C2222 0.930 . S
H2185 C2223 0.929 . S
H2186 C2225 0.930 . S
H2187 C2226 0.931 . S
H2188 C2228 0.930 . S
H2189 C2229 0.929 . S
H2190 C2231 0.931 . S
H2191 C2232 0.930 . S
H2192 C2234 0.930 . S
H2193 C2235 0.932 . S
H2194 C2237 0.930 . S
H2195 C2238 0.929 . S
H2196 C2240 0.931 . S
H2197 C2241 0.930 . S
H2198 C2243 0.929 . S
H2199 C2244 0.931 . S
H2200 C2246 0.930 . S
H2201 C2247 0.929 . S
O2202 H2176 0.856 . S
O2202 C2248 1.300 . S
O2203 C2248 1.209 . S
O2204 C2249 1.199 . S
O2205 H2177 0.854 . S
O2205 C2249 1.297 . S
C2206 C2207 1.404 . S
C2206 C2211 1.397 . S
C2206 C2212 1.492 . S
C2207 C2206 1.404 . S
C2207 C2208 1.396 . S
C2207 C2218 1.492 . S
C2208 C2207 1.396 . S
C2208 C2209 1.397 . S
C2208 C2224 1.509 . S
C2209 C2208 1.397 . S
C2209 C2210 1.412 . S
C2209 C2230 1.485 . S
C2210 C2209 1.412 . S
C2210 C2211 1.388 . S
C2210 C2236 1.490 . S
C2211 C2206 1.397 . S
C2211 C2210 1.388 . S
C2211 C2242 1.519 . S
C2212 C2206 1.492 . S
C2212 C2213 1.363 . S
C2212 C2217 1.390 . S
C2213 H2178 0.930 . S
C2213 C2212 1.363 . S
C2213 C2214 1.372 . S
C2214 H2179 0.930 . S
C2214 C2213 1.372 . S
C2214 C2215 1.383 . S
C2215 C2214 1.383 . S
C2215 C2216 1.395 . S
C2216 H2180 0.930 . S
C2216 C2215 1.395 . S
C2216 C2217 1.362 . S
C2217 H2181 0.930 . S
C2217 C2212 1.390 . S
C2217 C2216 1.362 . S
C2218 C2207 1.492 . S
C2218 C2219 1.377 . S
C2218 C2223 1.397 . S
C2219 H2182 0.931 . S
C2219 C2218 1.377 . S
C2219 C2220 1.376 . S
C2220 H2183 0.930 . S
C2220 C2219 1.376 . S
C2220 C2221 1.376 . S
C2221 C2220 1.376 . S
C2221 C2222 1.378 . S
C2221 C2248 1.486 . S
C2222 H2184 0.930 . S
C2222 C2221 1.378 . S
C2222 C2223 1.376 . S
C2223 H2185 0.929 . S
C2223 C2218 1.397 . S
C2223 C2222 1.376 . S
C2224 C2208 1.509 . S
C2224 C2225 1.391 . S
C2224 C2229 1.386 . S
C2225 H2186 0.930 . S
C2225 C2224 1.391 . S
C2225 C2226 1.375 . S
C2226 H2187 0.931 . S
C2226 C2225 1.375 . S
C2226 C2227 1.375 . S
C2227 C2226 1.375 . S
C2227 C2228 1.361 . S
C2228 H2188 0.930 . S
C2228 C2227 1.361 . S
C2228 C2229 1.399 . S
C2229 H2189 0.929 . S
C2229 C2224 1.386 . S
C2229 C2228 1.399 . S
C2230 C2209 1.485 . S
C2230 C2231 1.394 . S
C2230 C2235 1.360 . S
C2231 H2190 0.931 . S
C2231 C2230 1.394 . S
C2231 C2232 1.372 . S
C2232 H2191 0.930 . S
C2232 C2231 1.372 . S
C2232 C2233 1.397 . S
C2233 C2232 1.397 . S
C2233 C2234 1.390 . S
C2233 C2249 1.476 . S
C2234 H2192 0.930 . S
C2234 C2233 1.390 . S
C2234 C2235 1.366 . S
C2235 H2193 0.932 . S
C2235 C2230 1.360 . S
C2235 C2234 1.366 . S
C2236 C2210 1.490 . S
C2236 C2237 1.380 . S
C2236 C2241 1.386 . S
C2237 H2194 0.930 . S
C2237 C2236 1.380 . S
C2237 C2238 1.381 . S
C2238 H2195 0.929 . S
C2238 C2237 1.381 . S
C2238 C2239 1.371 . S
C2239 C2238 1.371 . S
C2239 C2240 1.380 . S
C2240 H2196 0.931 . S
C2240 C2239 1.380 . S
C2240 C2241 1.387 . S
C2241 H2197 0.930 . S
C2241 C2236 1.386 . S
C2241 C2240 1.387 . S
C2242 C2211 1.519 . S
C2242 C2243 1.377 . S
C2242 C2247 1.361 . S
C2243 H2198 0.929 . S
C2243 C2242 1.377 . S
C2243 C2244 1.386 . S
C2244 H2199 0.931 . S
C2244 C2243 1.386 . S
C2244 C2245 1.363 . S
C2245 C2244 1.363 . S
C2245 C2246 1.385 . S
C2246 H2200 0.930 . S
C2246 C2245 1.385 . S
C2246 C2247 1.396 . S
C2247 H2201 0.929 . S
C2247 C2242 1.361 . S
C2247 C2246 1.396 . S
C2248 O2202 1.300 . S
C2248 O2203 1.209 . S
C2248 C2221 1.486 . S
C2249 O2204 1.199 . S
C2249 O2205 1.297 . S
C2249 C2233 1.476 . S
H2250 O2276 0.856 . S
H2251 O2279 0.854 . S
H2252 C2287 0.930 . S
H2253 C2288 0.930 . S
H2254 C2290 0.930 . S
H2255 C2291 0.930 . S
H2256 C2293 0.931 . S
H2257 C2294 0.930 1_655 S
H2258 C2296 0.930 . S
H2259 C2297 0.929 . S
H2260 C2299 0.930 . S
H2261 C2300 0.931 1_655 S
H2262 C2302 0.930 . S
H2263 C2303 0.929 . S
H2264 C2305 0.931 . S
H2265 C2306 0.930 . S
H2266 C2308 0.930 . S
H2267 C2309 0.932 . S
H2268 C2311 0.930 . S
H2269 C2312 0.929 . S
H2270 C2314 0.931 . S
H2271 C2315 0.930 . S
H2272 C2317 0.929 . S
H2273 C2318 0.931 . S
H2274 C2320 0.930 . S
H2275 C2321 0.929 . S
O2276 H2250 0.856 . S
O2276 C2322 1.300 . S
O2277 C2322 1.209 . S
O2278 C2323 1.199 1_655 S
O2279 H2251 0.854 . S
O2279 C2323 1.297 . S
C2280 C2281 1.404 . S
C2280 C2285 1.395 . S
C2280 C2286 1.492 . S
C2281 C2280 1.404 . S
C2281 C2282 1.396 . S
C2281 C2292 1.492 . S
C2282 C2281 1.396 . S
C2282 C2283 1.397 . S
C2282 C2298 1.509 . S
C2283 C2282 1.397 . S
C2283 C2284 1.422 . S
C2283 C2304 1.485 . S
C2284 C2283 1.422 . S
C2284 C2285 1.406 . S
C2284 C2310 1.490 1_455 S
C2285 C2280 1.395 . S
C2285 C2284 1.406 . S
C2285 C2316 1.486 1_455 S
C2286 C2280 1.492 . S
C2286 C2287 1.363 1_455 S
C2286 C2291 1.390 . S
C2287 H2252 0.930 . S
C2287 C2286 1.363 1_655 S
C2287 C2288 1.372 . S
C2288 H2253 0.930 . S
C2288 C2287 1.372 . S
C2288 C2289 1.383 . S
C2289 C2288 1.383 . S
C2289 C2290 1.395 1_655 S
C2290 H2254 0.930 . S
C2290 C2289 1.395 1_455 S
C2290 C2291 1.362 . S
C2291 H2255 0.930 . S
C2291 C2286 1.390 . S
C2291 C2290 1.362 . S
C2292 C2281 1.492 . S
C2292 C2293 1.377 1_455 S
C2292 C2297 1.397 . S
C2293 H2256 0.931 . S
C2293 C2292 1.377 1_655 S
C2293 C2294 1.376 1_655 S
C2294 H2257 0.930 1_455 S
C2294 C2293 1.376 1_455 S
C2294 C2295 1.376 . S
C2295 C2294 1.376 . S
C2295 C2296 1.378 . S
C2295 C2322 1.486 . S
C2296 H2258 0.930 . S
C2296 C2295 1.378 . S
C2296 C2297 1.376 . S
C2297 H2259 0.929 . S
C2297 C2292 1.397 . S
C2297 C2296 1.376 . S
C2298 C2282 1.509 . S
C2298 C2299 1.391 1_455 S
C2298 C2303 1.386 . S
C2299 H2260 0.930 . S
C2299 C2298 1.391 1_655 S
C2299 C2300 1.375 1_655 S
C2300 H2261 0.931 1_455 S
C2300 C2299 1.375 1_455 S
C2300 C2301 1.375 . S
C2301 C2300 1.375 . S
C2301 C2302 1.361 . S
C2302 H2262 0.930 . S
C2302 C2301 1.361 . S
C2302 C2303 1.399 . S
C2303 H2263 0.929 . S
C2303 C2298 1.386 . S
C2303 C2302 1.399 . S
C2304 C2283 1.485 . S
C2304 C2305 1.394 1_455 S
C2304 C2309 1.360 . S
C2305 H2264 0.931 . S
C2305 C2304 1.394 1_655 S
C2305 C2306 1.372 . S
C2306 H2265 0.930 . S
C2306 C2305 1.372 . S
C2306 C2307 1.397 1_655 S
C2307 C2306 1.397 1_455 S
C2307 C2308 1.390 . S
C2307 C2323 1.476 . S
C2308 H2266 0.930 . S
C2308 C2307 1.390 . S
C2308 C2309 1.366 . S
C2309 H2267 0.932 . S
C2309 C2304 1.360 . S
C2309 C2308 1.366 . S
C2310 C2284 1.490 1_655 S
C2310 C2311 1.380 . S
C2310 C2315 1.386 1_655 S
C2311 H2268 0.930 . S
C2311 C2310 1.380 . S
C2311 C2312 1.381 . S
C2312 H2269 0.929 . S
C2312 C2311 1.381 . S
C2312 C2313 1.371 . S
C2313 C2312 1.371 . S
C2313 C2314 1.380 1_655 S
C2314 H2270 0.931 . S
C2314 C2313 1.380 1_455 S
C2314 C2315 1.387 . S
C2315 H2271 0.930 . S
C2315 C2310 1.386 1_455 S
C2315 C2314 1.387 . S
C2316 C2285 1.486 1_655 S
C2316 C2317 1.415 . S
C2316 C2321 1.336 1_655 S
C2317 H2272 0.929 . S
C2317 C2316 1.415 . S
C2317 C2318 1.386 . S
C2318 H2273 0.931 . S
C2318 C2317 1.386 . S
C2318 C2319 1.392 . S
C2319 C2318 1.392 . S
C2319 C2320 1.341 1_655 S
C2320 H2274 0.930 . S
C2320 C2319 1.341 1_455 S
C2320 C2321 1.396 . S
C2321 H2275 0.929 . S
C2321 C2316 1.336 1_455 S
C2321 C2320 1.396 . S
C2322 O2276 1.300 . S
C2322 O2277 1.209 . S
C2322 C2295 1.486 . S
C2323 O2278 1.199 1_455 S
C2323 O2279 1.297 . S
C2323 C2307 1.476 . S
H2324 O2350 0.856 . S
H2325 O2353 0.854 . S
H2326 C2361 0.930 . S
H2327 C2362 0.930 . S
H2328 C2364 0.930 . S
H2329 C2365 0.930 . S
H2330 C2367 0.931 . S
H2331 C2368 0.930 . S
H2332 C2370 0.930 . S
H2333 C2371 0.929 . S
H2334 C2373 0.930 . S
H2335 C2374 0.931 . S
H2336 C2376 0.930 . S
H2337 C2377 0.929 . S
H2338 C2379 0.931 . S
H2339 C2380 0.930 . S
H2340 C2382 0.930 . S
H2341 C2383 0.932 . S
H2342 C2385 0.930 . S
H2343 C2386 0.929 . S
H2344 C2388 0.931 . S
H2345 C2389 0.930 . S
H2346 C2391 0.929 . S
H2347 C2392 0.931 . S
H2348 C2394 0.930 . S
H2349 C2395 0.929 . S
O2350 H2324 0.856 . S
O2350 C2396 1.300 . S
O2351 C2396 1.209 . S
O2352 C2397 1.199 . S
O2353 H2325 0.854 . S
O2353 C2397 1.297 . S
C2354 C2355 1.404 . S
C2354 C2359 1.397 . S
C2354 C2360 1.492 . S
C2355 C2354 1.404 . S
C2355 C2356 1.396 . S
C2355 C2366 1.492 . S
C2356 C2355 1.396 . S
C2356 C2357 1.397 . S
C2356 C2372 1.509 . S
C2357 C2356 1.397 . S
C2357 C2358 1.412 . S
C2357 C2378 1.485 . S
C2358 C2357 1.412 . S
C2358 C2359 1.388 . S
C2358 C2384 1.490 . S
C2359 C2354 1.397 . S
C2359 C2358 1.388 . S
C2359 C2390 1.519 . S
C2360 C2354 1.492 . S
C2360 C2361 1.363 . S
C2360 C2365 1.390 . S
C2361 H2326 0.930 . S
C2361 C2360 1.363 . S
C2361 C2362 1.372 . S
C2362 H2327 0.930 . S
C2362 C2361 1.372 . S
C2362 C2363 1.383 . S
C2363 C2362 1.383 . S
C2363 C2364 1.395 . S
C2364 H2328 0.930 . S
C2364 C2363 1.395 . S
C2364 C2365 1.362 . S
C2365 H2329 0.930 . S
C2365 C2360 1.390 . S
C2365 C2364 1.362 . S
C2366 C2355 1.492 . S
C2366 C2367 1.377 . S
C2366 C2371 1.397 . S
C2367 H2330 0.931 . S
C2367 C2366 1.377 . S
C2367 C2368 1.376 . S
C2368 H2331 0.930 . S
C2368 C2367 1.376 . S
C2368 C2369 1.376 . S
C2369 C2368 1.376 . S
C2369 C2370 1.378 . S
C2369 C2396 1.486 . S
C2370 H2332 0.930 . S
C2370 C2369 1.378 . S
C2370 C2371 1.376 . S
C2371 H2333 0.929 . S
C2371 C2366 1.397 . S
C2371 C2370 1.376 . S
C2372 C2356 1.509 . S
C2372 C2373 1.391 . S
C2372 C2377 1.386 . S
C2373 H2334 0.930 . S
C2373 C2372 1.391 . S
C2373 C2374 1.375 . S
C2374 H2335 0.931 . S
C2374 C2373 1.375 . S
C2374 C2375 1.375 . S
C2375 C2374 1.375 . S
C2375 C2376 1.361 . S
C2376 H2336 0.930 . S
C2376 C2375 1.361 . S
C2376 C2377 1.399 . S
C2377 H2337 0.929 . S
C2377 C2372 1.386 . S
C2377 C2376 1.399 . S
C2378 C2357 1.485 . S
C2378 C2379 1.394 . S
C2378 C2383 1.360 . S
C2379 H2338 0.931 . S
C2379 C2378 1.394 . S
C2379 C2380 1.372 . S
C2380 H2339 0.930 . S
C2380 C2379 1.372 . S
C2380 C2381 1.397 . S
C2381 C2380 1.397 . S
C2381 C2382 1.390 . S
C2381 C2397 1.476 . S
C2382 H2340 0.930 . S
C2382 C2381 1.390 . S
C2382 C2383 1.366 . S
C2383 H2341 0.932 . S
C2383 C2378 1.360 . S
C2383 C2382 1.366 . S
C2384 C2358 1.490 . S
C2384 C2385 1.380 . S
C2384 C2389 1.386 . S
C2385 H2342 0.930 . S
C2385 C2384 1.380 . S
C2385 C2386 1.381 . S
C2386 H2343 0.929 . S
C2386 C2385 1.381 . S
C2386 C2387 1.371 . S
C2387 C2386 1.371 . S
C2387 C2388 1.380 . S
C2388 H2344 0.931 . S
C2388 C2387 1.380 . S
C2388 C2389 1.387 . S
C2389 H2345 0.930 . S
C2389 C2384 1.386 . S
C2389 C2388 1.387 . S
C2390 C2359 1.519 . S
C2390 C2391 1.377 . S
C2390 C2395 1.361 . S
C2391 H2346 0.929 . S
C2391 C2390 1.377 . S
C2391 C2392 1.386 . S
C2392 H2347 0.931 . S
C2392 C2391 1.386 . S
C2392 C2393 1.363 . S
C2393 C2392 1.363 . S
C2393 C2394 1.385 . S
C2394 H2348 0.930 . S
C2394 C2393 1.385 . S
C2394 C2395 1.396 . S
C2395 H2349 0.929 . S
C2395 C2390 1.361 . S
C2395 C2394 1.396 . S
C2396 O2350 1.300 . S
C2396 O2351 1.209 . S
C2396 C2369 1.486 . S
C2397 O2352 1.199 . S
C2397 O2353 1.297 . S
C2397 C2381 1.476 . S
H2398 O2424 0.856 . S
H2399 O2427 0.854 . S
H2400 C2435 0.930 . S
H2401 C2436 0.930 . S
H2402 C2438 0.930 . S
H2403 C2439 0.930 . S
H2404 C2441 0.931 . S
H2405 C2442 0.926 1_545 S
H2406 C2444 0.930 . S
H2407 C2445 0.929 . S
H2408 C2447 0.930 . S
H2409 C2448 0.980 . S
H2410 C2450 0.930 . S
H2411 C2451 0.929 . S
H2412 C2453 0.931 . S
H2413 C2454 0.930 . S
H2414 C2456 0.930 . S
H2415 C2457 0.932 . S
H2416 C2459 0.930 . S
H2417 C2460 0.929 . S
H2418 C2462 0.931 . S
H2419 C2463 0.930 . S
H2420 C2465 0.929 . S
H2421 C2466 0.931 . S
H2422 C2468 0.930 . S
H2423 C2469 0.929 . S
O2424 H2398 0.856 . S
O2424 C2470 1.300 . S
O2425 C2470 1.209 . S
O2426 C2471 1.199 1_545 S
O2427 H2399 0.854 . S
O2427 C2471 1.297 . S
C2428 C2429 1.404 . S
C2428 C2433 1.414 . S
C2428 C2434 1.492 . S
C2429 C2428 1.404 . S
C2429 C2430 1.396 . S
C2429 C2440 1.492 . S
C2430 C2429 1.396 . S
C2430 C2431 1.397 . S
C2430 C2446 1.509 . S
C2431 C2430 1.397 . S
C2431 C2432 1.410 . S
C2431 C2452 1.485 . S
C2432 C2431 1.410 . S
C2432 C2433 1.368 . S
C2432 C2458 1.487 1_565 S
C2433 C2428 1.414 . S
C2433 C2432 1.368 . S
C2433 C2464 1.537 1_565 S
C2434 C2428 1.492 . S
C2434 C2435 1.363 1_565 S
C2434 C2439 1.390 . S
C2435 H2400 0.930 . S
C2435 C2434 1.363 1_545 S
C2435 C2436 1.372 . S
C2436 H2401 0.930 . S
C2436 C2435 1.372 . S
C2436 C2437 1.383 . S
C2437 C2436 1.383 . S
C2437 C2438 1.395 1_545 S
C2438 H2402 0.930 . S
C2438 C2437 1.395 1_565 S
C2438 C2439 1.362 . S
C2439 H2403 0.930 . S
C2439 C2434 1.390 . S
C2439 C2438 1.362 . S
C2440 C2429 1.492 . S
C2440 C2441 1.377 1_565 S
C2440 C2445 1.397 . S
C2441 H2404 0.931 . S
C2441 C2440 1.377 1_545 S
C2441 C2442 1.374 1_545 S
C2442 H2405 0.926 1_565 S
C2442 C2441 1.374 1_565 S
C2442 C2443 1.381 . S
C2443 C2442 1.381 . S
C2443 C2444 1.378 . S
C2443 C2470 1.486 . S
C2444 H2406 0.930 . S
C2444 C2443 1.378 . S
C2444 C2445 1.376 . S
C2445 H2407 0.929 . S
C2445 C2440 1.397 . S
C2445 C2444 1.376 . S
C2446 C2430 1.509 . S
C2446 C2447 1.391 1_565 S
C2446 C2451 1.386 . S
C2447 H2408 0.930 . S
C2447 C2446 1.391 1_545 S
C2447 C2448 1.368 . S
C2448 H2409 0.980 . S
C2448 C2447 1.368 . S
C2448 C2449 1.336 1_545 S
C2449 C2448 1.336 1_565 S
C2449 C2450 1.361 . S
C2450 H2410 0.930 . S
C2450 C2449 1.361 . S
C2450 C2451 1.399 . S
C2451 H2411 0.929 . S
C2451 C2446 1.386 . S
C2451 C2450 1.399 . S
C2452 C2431 1.485 . S
C2452 C2453 1.394 1_565 S
C2452 C2457 1.360 . S
C2453 H2412 0.931 . S
C2453 C2452 1.394 1_545 S
C2453 C2454 1.372 . S
C2454 H2413 0.930 . S
C2454 C2453 1.372 . S
C2454 C2455 1.397 1_545 S
C2455 C2454 1.397 1_565 S
C2455 C2456 1.390 . S
C2455 C2471 1.476 . S
C2456 H2414 0.930 . S
C2456 C2455 1.390 . S
C2456 C2457 1.366 . S
C2457 H2415 0.932 . S
C2457 C2452 1.360 . S
C2457 C2456 1.366 . S
C2458 C2432 1.487 1_545 S
C2458 C2459 1.380 . S
C2458 C2463 1.386 1_545 S
C2459 H2416 0.930 . S
C2459 C2458 1.380 . S
C2459 C2460 1.381 . S
C2460 H2417 0.929 . S
C2460 C2459 1.381 . S
C2460 C2461 1.371 . S
C2461 C2460 1.371 . S
C2461 C2462 1.380 1_545 S
C2462 H2418 0.931 . S
C2462 C2461 1.380 1_565 S
C2462 C2463 1.387 . S
C2463 H2419 0.930 . S
C2463 C2458 1.386 1_565 S
C2463 C2462 1.387 . S
C2464 C2433 1.537 1_545 S
C2464 C2465 1.380 . S
C2464 C2469 1.355 1_545 S
C2465 H2420 0.929 . S
C2465 C2464 1.380 . S
C2465 C2466 1.386 . S
C2466 H2421 0.931 . S
C2466 C2465 1.386 . S
C2466 C2467 1.340 1_545 S
C2467 C2466 1.340 1_565 S
C2467 C2468 1.397 . S
C2468 H2422 0.930 . S
C2468 C2467 1.397 . S
C2468 C2469 1.396 . S
C2469 H2423 0.929 . S
C2469 C2464 1.355 1_565 S
C2469 C2468 1.396 . S
C2470 O2424 1.300 . S
C2470 O2425 1.209 . S
C2470 C2443 1.486 . S
C2471 O2426 1.199 1_565 S
C2471 O2427 1.297 . S
C2471 C2455 1.476 . S
H2472 O2498 0.856 . S
H2473 O2501 0.854 . S
H2474 C2509 0.930 . S
H2475 C2510 0.930 . S
H2476 C2512 0.930 . S
H2477 C2513 0.930 . S
H2478 C2515 0.931 . S
H2479 C2516 0.930 . S
H2480 C2518 0.930 . S
H2481 C2519 0.929 . S
H2482 C2521 0.930 . S
H2483 C2522 0.931 . S
H2484 C2524 0.930 . S
H2485 C2525 0.929 . S
H2486 C2527 0.931 . S
H2487 C2528 0.930 . S
H2488 C2530 0.930 . S
H2489 C2531 0.932 . S
H2490 C2533 0.930 . S
H2491 C2534 0.929 . S
H2492 C2536 0.931 . S
H2493 C2537 0.930 . S
H2494 C2539 0.929 . S
H2495 C2540 0.931 . S
H2496 C2542 0.930 . S
H2497 C2543 0.929 . S
O2498 H2472 0.856 . S
O2498 C2544 1.300 . S
O2499 C2544 1.209 1_565 S
O2500 C2545 1.199 1_545 S
O2501 H2473 0.854 . S
O2501 C2545 1.297 . S
C2502 C2503 1.404 . S
C2502 C2507 1.397 1_545 S
C2502 C2508 1.492 . S
C2503 C2502 1.404 . S
C2503 C2504 1.396 . S
C2503 C2514 1.492 . S
C2504 C2503 1.396 . S
C2504 C2505 1.393 1_545 S
C2504 C2520 1.532 . S
C2505 C2504 1.393 1_565 S
C2505 C2506 1.419 . S
C2505 C2526 1.494 . S
C2506 C2505 1.419 . S
C2506 C2507 1.368 . S
C2506 C2532 1.487 . S
C2507 C2502 1.397 1_565 S
C2507 C2506 1.368 . S
C2507 C2538 1.519 . S
C2508 C2502 1.492 . S
C2508 C2509 1.363 . S
C2508 C2513 1.390 1_545 S
C2509 H2474 0.930 . S
C2509 C2508 1.363 . S
C2509 C2510 1.372 . S
C2510 H2475 0.930 . S
C2510 C2509 1.372 . S
C2510 C2511 1.383 . S
C2511 C2510 1.383 . S
C2511 C2512 1.395 1_545 S
C2512 H2476 0.930 . S
C2512 C2511 1.395 1_565 S
C2512 C2513 1.362 . S
C2513 H2477 0.930 . S
C2513 C2508 1.390 1_565 S
C2513 C2512 1.362 . S
C2514 C2503 1.492 . S
C2514 C2515 1.377 . S
C2514 C2519 1.397 1_545 S
C2515 H2478 0.931 . S
C2515 C2514 1.377 . S
C2515 C2516 1.376 . S
C2516 H2479 0.930 . S
C2516 C2515 1.376 . S
C2516 C2517 1.376 . S
C2517 C2516 1.376 . S
C2517 C2518 1.378 1_545 S
C2517 C2544 1.486 . S
C2518 H2480 0.930 . S
C2518 C2517 1.378 1_565 S
C2518 C2519 1.376 . S
C2519 H2481 0.929 . S
C2519 C2514 1.397 1_565 S
C2519 C2518 1.376 . S
C2520 C2504 1.532 . S
C2520 C2521 1.421 . S
C2520 C2525 1.338 1_545 S
C2521 H2482 0.930 . S
C2521 C2520 1.421 . S
C2521 C2522 1.375 . S
C2522 H2483 0.931 . S
C2522 C2521 1.375 . S
C2522 C2523 1.411 . S
C2523 C2522 1.411 . S
C2523 C2524 1.342 1_545 S
C2524 H2484 0.930 . S
C2524 C2523 1.342 1_565 S
C2524 C2525 1.399 . S
C2525 H2485 0.929 . S
C2525 C2520 1.338 1_565 S
C2525 C2524 1.399 . S
C2526 C2505 1.494 . S
C2526 C2527 1.394 1_565 S
C2526 C2531 1.360 . S
C2527 H2486 0.931 . S
C2527 C2526 1.394 1_545 S
C2527 C2528 1.372 . S
C2528 H2487 0.930 . S
C2528 C2527 1.372 . S
C2528 C2529 1.397 1_545 S
C2529 C2528 1.397 1_565 S
C2529 C2530 1.390 . S
C2529 C2545 1.476 . S
C2530 H2488 0.930 . S
C2530 C2529 1.390 . S
C2530 C2531 1.366 . S
C2531 H2489 0.932 . S
C2531 C2526 1.360 . S
C2531 C2530 1.366 . S
C2532 C2506 1.487 . S
C2532 C2533 1.340 1_565 S
C2532 C2537 1.436 . S
C2533 H2490 0.930 . S
C2533 C2532 1.340 1_545 S
C2533 C2534 1.381 . S
C2534 H2491 0.929 . S
C2534 C2533 1.381 . S
C2534 C2535 1.376 . S
C2535 C2534 1.376 . S
C2535 C2536 1.375 1_545 S
C2536 H2492 0.931 . S
C2536 C2535 1.375 1_565 S
C2536 C2537 1.387 . S
C2537 H2493 0.930 . S
C2537 C2532 1.436 . S
C2537 C2536 1.387 . S
C2538 C2507 1.519 . S
C2538 C2539 1.377 1_565 S
C2538 C2543 1.361 . S
C2539 H2494 0.929 . S
C2539 C2538 1.377 1_545 S
C2539 C2540 1.386 . S
C2540 H2495 0.931 . S
C2540 C2539 1.386 . S
C2540 C2541 1.363 1_545 S
C2541 C2540 1.363 1_565 S
C2541 C2542 1.385 . S
C2542 H2496 0.930 . S
C2542 C2541 1.385 . S
C2542 C2543 1.396 . S
C2543 H2497 0.929 . S
C2543 C2538 1.361 . S
C2543 C2542 1.396 . S
C2544 O2498 1.300 . S
C2544 O2499 1.209 1_545 S
C2544 C2517 1.486 . S
C2545 O2500 1.199 1_565 S
C2545 O2501 1.297 . S
C2545 C2529 1.476 . S
H2546 O2572 0.856 . S
H2547 O2575 0.854 . S
H2548 C2583 0.930 . S
H2549 C2584 0.930 . S
H2550 C2586 0.930 . S
H2551 C2587 0.930 . S
H2552 C2589 0.931 . S
H2553 C2590 0.930 . S
H2554 C2592 0.930 . S
H2555 C2593 0.929 . S
H2556 C2595 0.930 . S
H2557 C2596 0.931 . S
H2558 C2598 0.930 . S
H2559 C2599 0.929 . S
H2560 C2601 0.931 . S
H2561 C2602 0.930 . S
H2562 C2604 0.930 . S
H2563 C2605 0.932 . S
H2564 C2607 0.930 . S
H2565 C2608 0.929 . S
H2566 C2610 0.931 . S
H2567 C2611 0.930 . S
H2568 C2613 0.929 . S
H2569 C2614 0.931 . S
H2570 C2616 0.930 . S
H2571 C2617 0.929 . S
O2572 H2546 0.856 . S
O2572 C2618 1.300 . S
O2573 C2618 1.209 1_455 S
O2574 C2619 1.199 1_655 S
O2575 H2547 0.854 . S
O2575 C2619 1.297 . S
C2576 C2577 1.404 . S
C2576 C2581 1.398 . S
C2576 C2582 1.492 . S
C2577 C2576 1.404 . S
C2577 C2578 1.396 . S
C2577 C2588 1.492 . S
C2578 C2577 1.396 . S
C2578 C2579 1.396 . S
C2578 C2594 1.509 . S
C2579 C2578 1.396 . S
C2579 C2580 1.393 1_655 S
C2579 C2600 1.490 1_655 S
C2580 C2579 1.393 1_455 S
C2580 C2581 1.407 1_455 S
C2580 C2606 1.485 . S
C2581 C2576 1.398 . S
C2581 C2580 1.407 1_655 S
C2581 C2612 1.522 1_655 S
C2582 C2576 1.492 . S
C2582 C2583 1.363 . S
C2582 C2587 1.390 1_655 S
C2583 H2548 0.930 . S
C2583 C2582 1.363 . S
C2583 C2584 1.372 . S
C2584 H2549 0.930 . S
C2584 C2583 1.372 . S
C2584 C2585 1.383 . S
C2585 C2584 1.383 . S
C2585 C2586 1.395 1_655 S
C2586 H2550 0.930 . S
C2586 C2585 1.395 1_455 S
C2586 C2587 1.362 . S
C2587 H2551 0.930 . S
C2587 C2582 1.390 1_455 S
C2587 C2586 1.362 . S
C2588 C2577 1.492 . S
C2588 C2589 1.377 . S
C2588 C2593 1.397 1_655 S
C2589 H2552 0.931 . S
C2589 C2588 1.377 . S
C2589 C2590 1.376 . S
C2590 H2553 0.930 . S
C2590 C2589 1.376 . S
C2590 C2591 1.376 . S
C2591 C2590 1.376 . S
C2591 C2592 1.378 1_655 S
C2591 C2618 1.486 . S
C2592 H2554 0.930 . S
C2592 C2591 1.378 1_455 S
C2592 C2593 1.376 . S
C2593 H2555 0.929 . S
C2593 C2588 1.397 1_455 S
C2593 C2592 1.376 . S
C2594 C2578 1.509 . S
C2594 C2595 1.391 . S
C2594 C2599 1.386 1_655 S
C2595 H2556 0.930 . S
C2595 C2594 1.391 . S
C2595 C2596 1.375 . S
C2596 H2557 0.931 . S
C2596 C2595 1.375 . S
C2596 C2597 1.375 . S
C2597 C2596 1.375 . S
C2597 C2598 1.361 1_655 S
C2598 H2558 0.930 . S
C2598 C2597 1.361 1_455 S
C2598 C2599 1.399 . S
C2599 H2559 0.929 . S
C2599 C2594 1.386 1_455 S
C2599 C2598 1.399 . S
C2600 C2579 1.490 1_455 S
C2600 C2601 1.394 1_455 S
C2600 C2605 1.360 . S
C2601 H2560 0.931 . S
C2601 C2600 1.394 1_655 S
C2601 C2602 1.372 . S
C2602 H2561 0.930 . S
C2602 C2601 1.372 . S
C2602 C2603 1.397 1_655 S
C2603 C2602 1.397 1_455 S
C2603 C2604 1.390 . S
C2603 C2619 1.476 . S
C2604 H2562 0.930 . S
C2604 C2603 1.390 . S
C2604 C2605 1.366 . S
C2605 H2563 0.932 . S
C2605 C2600 1.360 . S
C2605 C2604 1.366 . S
C2606 C2580 1.485 . S
C2606 C2607 1.380 1_455 S
C2606 C2611 1.386 . S
C2607 H2564 0.930 . S
C2607 C2606 1.380 1_655 S
C2607 C2608 1.381 . S
C2608 H2565 0.929 . S
C2608 C2607 1.381 . S
C2608 C2609 1.371 1_655 S
C2609 C2608 1.371 1_455 S
C2609 C2610 1.380 . S
C2610 H2566 0.931 . S
C2610 C2609 1.380 . S
C2610 C2611 1.387 . S
C2611 H2567 0.930 . S
C2611 C2606 1.386 . S
C2611 C2610 1.387 . S
C2612 C2581 1.522 1_455 S
C2612 C2613 1.377 1_455 S
C2612 C2617 1.361 . S
C2613 H2568 0.929 . S
C2613 C2612 1.377 1_655 S
C2613 C2614 1.386 . S
C2614 H2569 0.931 . S
C2614 C2613 1.386 . S
C2614 C2615 1.363 1_655 S
C2615 C2614 1.363 1_455 S
C2615 C2616 1.385 . S
C2616 H2570 0.930 . S
C2616 C2615 1.385 . S
C2616 C2617 1.396 . S
C2617 H2571 0.929 . S
C2617 C2612 1.361 . S
C2617 C2616 1.396 . S
C2618 O2572 1.300 . S
C2618 O2573 1.209 1_655 S
C2618 C2591 1.486 . S
C2619 O2574 1.199 1_455 S
C2619 O2575 1.297 . S
C2619 C2603 1.476 . S
H2620 O2646 0.856 . S
H2621 O2649 0.854 . S
H2622 C2657 0.930 . S
H2623 C2658 0.930 . S
H2624 C2660 0.930 . S
H2625 C2661 0.930 . S
H2626 C2663 0.931 . S
H2627 C2664 0.930 . S
H2628 C2666 0.930 . S
H2629 C2667 0.929 . S
H2630 C2669 0.930 . S
H2631 C2670 0.931 . S
H2632 C2672 0.930 . S
H2633 C2673 0.929 . S
H2634 C2675 0.931 . S
H2635 C2676 0.930 . S
H2636 C2678 0.930 . S
H2637 C2679 0.932 . S
H2638 C2681 0.930 . S
H2639 C2682 0.929 . S
H2640 C2684 0.931 . S
H2641 C2685 0.930 . S
H2642 C2687 0.929 . S
H2643 C2688 0.931 . S
H2644 C2690 0.930 . S
H2645 C2691 0.929 . S
O2646 H2620 0.856 . S
O2646 C2692 1.300 . S
O2647 C2692 1.209 . S
O2648 C2693 1.199 . S
O2649 H2621 0.854 . S
O2649 C2693 1.297 . S
C2650 C2651 1.404 . S
C2650 C2655 1.397 . S
C2650 C2656 1.492 . S
C2651 C2650 1.404 . S
C2651 C2652 1.396 . S
C2651 C2662 1.492 . S
C2652 C2651 1.396 . S
C2652 C2653 1.397 . S
C2652 C2668 1.509 . S
C2653 C2652 1.397 . S
C2653 C2654 1.412 . S
C2653 C2674 1.485 . S
C2654 C2653 1.412 . S
C2654 C2655 1.388 . S
C2654 C2680 1.490 . S
C2655 C2650 1.397 . S
C2655 C2654 1.388 . S
C2655 C2686 1.519 . S
C2656 C2650 1.492 . S
C2656 C2657 1.363 . S
C2656 C2661 1.390 . S
C2657 H2622 0.930 . S
C2657 C2656 1.363 . S
C2657 C2658 1.372 . S
C2658 H2623 0.930 . S
C2658 C2657 1.372 . S
C2658 C2659 1.383 . S
C2659 C2658 1.383 . S
C2659 C2660 1.395 . S
C2660 H2624 0.930 . S
C2660 C2659 1.395 . S
C2660 C2661 1.362 . S
C2661 H2625 0.930 . S
C2661 C2656 1.390 . S
C2661 C2660 1.362 . S
C2662 C2651 1.492 . S
C2662 C2663 1.377 . S
C2662 C2667 1.397 . S
C2663 H2626 0.931 . S
C2663 C2662 1.377 . S
C2663 C2664 1.376 . S
C2664 H2627 0.930 . S
C2664 C2663 1.376 . S
C2664 C2665 1.376 . S
C2665 C2664 1.376 . S
C2665 C2666 1.378 . S
C2665 C2692 1.486 . S
C2666 H2628 0.930 . S
C2666 C2665 1.378 . S
C2666 C2667 1.376 . S
C2667 H2629 0.929 . S
C2667 C2662 1.397 . S
C2667 C2666 1.376 . S
C2668 C2652 1.509 . S
C2668 C2669 1.391 . S
C2668 C2673 1.386 . S
C2669 H2630 0.930 . S
C2669 C2668 1.391 . S
C2669 C2670 1.375 . S
C2670 H2631 0.931 . S
C2670 C2669 1.375 . S
C2670 C2671 1.375 . S
C2671 C2670 1.375 . S
C2671 C2672 1.361 . S
C2672 H2632 0.930 . S
C2672 C2671 1.361 . S
C2672 C2673 1.399 . S
C2673 H2633 0.929 . S
C2673 C2668 1.386 . S
C2673 C2672 1.399 . S
C2674 C2653 1.485 . S
C2674 C2675 1.394 . S
C2674 C2679 1.360 . S
C2675 H2634 0.931 . S
C2675 C2674 1.394 . S
C2675 C2676 1.372 . S
C2676 H2635 0.930 . S
C2676 C2675 1.372 . S
C2676 C2677 1.397 . S
C2677 C2676 1.397 . S
C2677 C2678 1.390 . S
C2677 C2693 1.476 . S
C2678 H2636 0.930 . S
C2678 C2677 1.390 . S
C2678 C2679 1.366 . S
C2679 H2637 0.932 . S
C2679 C2674 1.360 . S
C2679 C2678 1.366 . S
C2680 C2654 1.490 . S
C2680 C2681 1.380 . S
C2680 C2685 1.386 . S
C2681 H2638 0.930 . S
C2681 C2680 1.380 . S
C2681 C2682 1.381 . S
C2682 H2639 0.929 . S
C2682 C2681 1.381 . S
C2682 C2683 1.371 . S
C2683 C2682 1.371 . S
C2683 C2684 1.380 . S
C2684 H2640 0.931 . S
C2684 C2683 1.380 . S
C2684 C2685 1.387 . S
C2685 H2641 0.930 . S
C2685 C2680 1.386 . S
C2685 C2684 1.387 . S
C2686 C2655 1.519 . S
C2686 C2687 1.377 . S
C2686 C2691 1.361 . S
C2687 H2642 0.929 . S
C2687 C2686 1.377 . S
C2687 C2688 1.386 . S
C2688 H2643 0.931 . S
C2688 C2687 1.386 . S
C2688 C2689 1.363 . S
C2689 C2688 1.363 . S
C2689 C2690 1.385 . S
C2690 H2644 0.930 . S
C2690 C2689 1.385 . S
C2690 C2691 1.396 . S
C2691 H2645 0.929 . S
C2691 C2686 1.361 . S
C2691 C2690 1.396 . S
C2692 O2646 1.300 . S
C2692 O2647 1.209 . S
C2692 C2665 1.486 . S
C2693 O2648 1.199 . S
C2693 O2649 1.297 . S
C2693 C2677 1.476 . S
H2694 O2720 0.856 . S
H2695 O2723 0.854 . S
H2696 C2731 0.930 . S
H2697 C2732 0.930 . S
H2698 C2734 0.930 . S
H2699 C2735 0.930 . S
H2700 C2737 0.931 . S
H2701 C2738 0.930 . S
H2702 C2740 0.930 . S
H2703 C2741 0.929 . S
H2704 C2743 0.930 . S
H2705 C2744 0.931 . S
H2706 C2746 0.930 . S
H2707 C2747 0.929 . S
H2708 C2749 0.931 . S
H2709 C2750 0.930 . S
H2710 C2752 0.930 . S
H2711 C2753 0.932 . S
H2712 C2755 0.930 . S
H2713 C2756 0.929 . S
H2714 C2758 0.931 . S
H2715 C2759 0.930 . S
H2716 C2761 0.929 . S
H2717 C2762 0.931 . S
H2718 C2764 0.930 . S
H2719 C2765 0.929 . S
O2720 H2694 0.856 . S
O2720 C2766 1.300 . S
O2721 C2766 1.209 . S
O2722 C2767 1.199 . S
O2723 H2695 0.854 . S
O2723 C2767 1.297 . S
C2724 C2725 1.404 . S
C2724 C2729 1.397 . S
C2724 C2730 1.492 . S
C2725 C2724 1.404 . S
C2725 C2726 1.396 . S
C2725 C2736 1.492 . S
C2726 C2725 1.396 . S
C2726 C2727 1.397 . S
C2726 C2742 1.509 . S
C2727 C2726 1.397 . S
C2727 C2728 1.412 . S
C2727 C2748 1.485 . S
C2728 C2727 1.412 . S
C2728 C2729 1.388 . S
C2728 C2754 1.490 . S
C2729 C2724 1.397 . S
C2729 C2728 1.388 . S
C2729 C2760 1.519 . S
C2730 C2724 1.492 . S
C2730 C2731 1.363 . S
C2730 C2735 1.390 . S
C2731 H2696 0.930 . S
C2731 C2730 1.363 . S
C2731 C2732 1.372 . S
C2732 H2697 0.930 . S
C2732 C2731 1.372 . S
C2732 C2733 1.383 . S
C2733 C2732 1.383 . S
C2733 C2734 1.395 . S
C2734 H2698 0.930 . S
C2734 C2733 1.395 . S
C2734 C2735 1.362 . S
C2735 H2699 0.930 . S
C2735 C2730 1.390 . S
C2735 C2734 1.362 . S
C2736 C2725 1.492 . S
C2736 C2737 1.377 . S
C2736 C2741 1.397 . S
C2737 H2700 0.931 . S
C2737 C2736 1.377 . S
C2737 C2738 1.376 . S
C2738 H2701 0.930 . S
C2738 C2737 1.376 . S
C2738 C2739 1.376 . S
C2739 C2738 1.376 . S
C2739 C2740 1.378 . S
C2739 C2766 1.486 . S
C2740 H2702 0.930 . S
C2740 C2739 1.378 . S
C2740 C2741 1.376 . S
C2741 H2703 0.929 . S
C2741 C2736 1.397 . S
C2741 C2740 1.376 . S
C2742 C2726 1.509 . S
C2742 C2743 1.391 . S
C2742 C2747 1.386 . S
C2743 H2704 0.930 . S
C2743 C2742 1.391 . S
C2743 C2744 1.375 . S
C2744 H2705 0.931 . S
C2744 C2743 1.375 . S
C2744 C2745 1.375 . S
C2745 C2744 1.375 . S
C2745 C2746 1.361 . S
C2746 H2706 0.930 . S
C2746 C2745 1.361 . S
C2746 C2747 1.399 . S
C2747 H2707 0.929 . S
C2747 C2742 1.386 . S
C2747 C2746 1.399 . S
C2748 C2727 1.485 . S
C2748 C2749 1.394 . S
C2748 C2753 1.360 . S
C2749 H2708 0.931 . S
C2749 C2748 1.394 . S
C2749 C2750 1.372 . S
C2750 H2709 0.930 . S
C2750 C2749 1.372 . S
C2750 C2751 1.397 . S
C2751 C2750 1.397 . S
C2751 C2752 1.390 . S
C2751 C2767 1.476 . S
C2752 H2710 0.930 . S
C2752 C2751 1.390 . S
C2752 C2753 1.366 . S
C2753 H2711 0.932 . S
C2753 C2748 1.360 . S
C2753 C2752 1.366 . S
C2754 C2728 1.490 . S
C2754 C2755 1.380 . S
C2754 C2759 1.386 . S
C2755 H2712 0.930 . S
C2755 C2754 1.380 . S
C2755 C2756 1.381 . S
C2756 H2713 0.929 . S
C2756 C2755 1.381 . S
C2756 C2757 1.371 . S
C2757 C2756 1.371 . S
C2757 C2758 1.380 . S
C2758 H2714 0.931 . S
C2758 C2757 1.380 . S
C2758 C2759 1.387 . S
C2759 H2715 0.930 . S
C2759 C2754 1.386 . S
C2759 C2758 1.387 . S
C2760 C2729 1.519 . S
C2760 C2761 1.377 . S
C2760 C2765 1.361 . S
C2761 H2716 0.929 . S
C2761 C2760 1.377 . S
C2761 C2762 1.386 . S
C2762 H2717 0.931 . S
C2762 C2761 1.386 . S
C2762 C2763 1.363 . S
C2763 C2762 1.363 . S
C2763 C2764 1.385 . S
C2764 H2718 0.930 . S
C2764 C2763 1.385 . S
C2764 C2765 1.396 . S
C2765 H2719 0.929 . S
C2765 C2760 1.361 . S
C2765 C2764 1.396 . S
C2766 O2720 1.300 . S
C2766 O2721 1.209 . S
C2766 C2739 1.486 . S
C2767 O2722 1.199 . S
C2767 O2723 1.297 . S
C2767 C2751 1.476 . S
H2768 O2794 0.856 . S
H2769 O2797 0.854 . S
H2770 C2805 0.930 . S
H2771 C2806 0.930 . S
H2772 C2808 0.930 . S
H2773 C2809 0.930 . S
H2774 C2811 0.931 . S
H2775 C2812 0.930 . S
H2776 C2814 0.930 . S
H2777 C2815 0.929 . S
H2778 C2817 0.930 . S
H2779 C2818 0.931 . S
H2780 C2820 0.930 . S
H2781 C2821 0.929 . S
H2782 C2823 0.931 . S
H2783 C2824 0.930 . S
H2784 C2826 0.930 . S
H2785 C2827 0.932 . S
H2786 C2829 0.930 . S
H2787 C2830 0.929 . S
H2788 C2832 0.931 . S
H2789 C2833 0.930 . S
H2790 C2835 0.929 . S
H2791 C2836 0.931 . S
H2792 C2838 0.930 . S
H2793 C2839 0.929 . S
O2794 H2768 0.856 . S
O2794 C2840 1.300 . S
O2795 C2840 1.209 . S
O2796 C2841 1.199 . S
O2797 H2769 0.854 . S
O2797 C2841 1.297 . S
C2798 C2799 1.404 . S
C2798 C2803 1.397 . S
C2798 C2804 1.492 . S
C2799 C2798 1.404 . S
C2799 C2800 1.396 . S
C2799 C2810 1.492 . S
C2800 C2799 1.396 . S
C2800 C2801 1.397 . S
C2800 C2816 1.509 . S
C2801 C2800 1.397 . S
C2801 C2802 1.412 . S
C2801 C2822 1.485 . S
C2802 C2801 1.412 . S
C2802 C2803 1.388 . S
C2802 C2828 1.490 . S
C2803 C2798 1.397 . S
C2803 C2802 1.388 . S
C2803 C2834 1.519 . S
C2804 C2798 1.492 . S
C2804 C2805 1.363 . S
C2804 C2809 1.390 . S
C2805 H2770 0.930 . S
C2805 C2804 1.363 . S
C2805 C2806 1.372 . S
C2806 H2771 0.930 . S
C2806 C2805 1.372 . S
C2806 C2807 1.383 . S
C2807 C2806 1.383 . S
C2807 C2808 1.395 . S
C2808 H2772 0.930 . S
C2808 C2807 1.395 . S
C2808 C2809 1.362 . S
C2809 H2773 0.930 . S
C2809 C2804 1.390 . S
C2809 C2808 1.362 . S
C2810 C2799 1.492 . S
C2810 C2811 1.377 . S
C2810 C2815 1.397 . S
C2811 H2774 0.931 . S
C2811 C2810 1.377 . S
C2811 C2812 1.376 . S
C2812 H2775 0.930 . S
C2812 C2811 1.376 . S
C2812 C2813 1.376 . S
C2813 C2812 1.376 . S
C2813 C2814 1.378 . S
C2813 C2840 1.486 . S
C2814 H2776 0.930 . S
C2814 C2813 1.378 . S
C2814 C2815 1.376 . S
C2815 H2777 0.929 . S
C2815 C2810 1.397 . S
C2815 C2814 1.376 . S
C2816 C2800 1.509 . S
C2816 C2817 1.391 . S
C2816 C2821 1.386 . S
C2817 H2778 0.930 . S
C2817 C2816 1.391 . S
C2817 C2818 1.375 . S
C2818 H2779 0.931 . S
C2818 C2817 1.375 . S
C2818 C2819 1.375 . S
C2819 C2818 1.375 . S
C2819 C2820 1.361 . S
C2820 H2780 0.930 . S
C2820 C2819 1.361 . S
C2820 C2821 1.399 . S
C2821 H2781 0.929 . S
C2821 C2816 1.386 . S
C2821 C2820 1.399 . S
C2822 C2801 1.485 . S
C2822 C2823 1.394 . S
C2822 C2827 1.360 . S
C2823 H2782 0.931 . S
C2823 C2822 1.394 . S
C2823 C2824 1.372 . S
C2824 H2783 0.930 . S
C2824 C2823 1.372 . S
C2824 C2825 1.397 . S
C2825 C2824 1.397 . S
C2825 C2826 1.390 . S
C2825 C2841 1.476 . S
C2826 H2784 0.930 . S
C2826 C2825 1.390 . S
C2826 C2827 1.366 . S
C2827 H2785 0.932 . S
C2827 C2822 1.360 . S
C2827 C2826 1.366 . S
C2828 C2802 1.490 . S
C2828 C2829 1.380 . S
C2828 C2833 1.386 . S
C2829 H2786 0.930 . S
C2829 C2828 1.380 . S
C2829 C2830 1.381 . S
C2830 H2787 0.929 . S
C2830 C2829 1.381 . S
C2830 C2831 1.371 . S
C2831 C2830 1.371 . S
C2831 C2832 1.380 . S
C2832 H2788 0.931 . S
C2832 C2831 1.380 . S
C2832 C2833 1.387 . S
C2833 H2789 0.930 . S
C2833 C2828 1.386 . S
C2833 C2832 1.387 . S
C2834 C2803 1.519 . S
C2834 C2835 1.377 . S
C2834 C2839 1.361 . S
C2835 H2790 0.929 . S
C2835 C2834 1.377 . S
C2835 C2836 1.386 . S
C2836 H2791 0.931 . S
C2836 C2835 1.386 . S
C2836 C2837 1.363 . S
C2837 C2836 1.363 . S
C2837 C2838 1.385 . S
C2838 H2792 0.930 . S
C2838 C2837 1.385 . S
C2838 C2839 1.396 . S
C2839 H2793 0.929 . S
C2839 C2834 1.361 . S
C2839 C2838 1.396 . S
C2840 O2794 1.300 . S
C2840 O2795 1.209 . S
C2840 C2813 1.486 . S
C2841 O2796 1.199 . S
C2841 O2797 1.297 . S
C2841 C2825 1.476 . S
H2842 O2868 0.856 . S
H2843 O2871 0.854 . S
H2844 C2879 0.930 . S
H2845 C2880 0.930 . S
H2846 C2882 0.930 . S
H2847 C2883 0.930 . S
H2848 C2885 0.931 . S
H2849 C2886 0.930 . S
H2850 C2888 0.930 . S
H2851 C2889 0.929 . S
H2852 C2891 0.930 . S
H2853 C2892 0.931 . S
H2854 C2894 0.930 . S
H2855 C2895 0.929 . S
H2856 C2897 0.931 . S
H2857 C2898 0.930 . S
H2858 C2900 0.930 . S
H2859 C2901 0.932 . S
H2860 C2903 0.930 . S
H2861 C2904 0.929 . S
H2862 C2906 0.931 . S
H2863 C2907 0.930 . S
H2864 C2909 0.929 . S
H2865 C2910 0.931 . S
H2866 C2912 0.930 . S
H2867 C2913 0.929 . S
O2868 H2842 0.856 . S
O2868 C2914 1.300 . S
O2869 C2914 1.209 . S
O2870 C2915 1.199 . S
O2871 H2843 0.854 . S
O2871 C2915 1.297 . S
C2872 C2873 1.404 . S
C2872 C2877 1.397 . S
C2872 C2878 1.492 . S
C2873 C2872 1.404 . S
C2873 C2874 1.396 . S
C2873 C2884 1.492 . S
C2874 C2873 1.396 . S
C2874 C2875 1.397 . S
C2874 C2890 1.509 . S
C2875 C2874 1.397 . S
C2875 C2876 1.412 . S
C2875 C2896 1.485 . S
C2876 C2875 1.412 . S
C2876 C2877 1.388 . S
C2876 C2902 1.490 . S
C2877 C2872 1.397 . S
C2877 C2876 1.388 . S
C2877 C2908 1.519 . S
C2878 C2872 1.492 . S
C2878 C2879 1.363 . S
C2878 C2883 1.390 . S
C2879 H2844 0.930 . S
C2879 C2878 1.363 . S
C2879 C2880 1.372 . S
C2880 H2845 0.930 . S
C2880 C2879 1.372 . S
C2880 C2881 1.383 . S
C2881 C2880 1.383 . S
C2881 C2882 1.395 . S
C2882 H2846 0.930 . S
C2882 C2881 1.395 . S
C2882 C2883 1.362 . S
C2883 H2847 0.930 . S
C2883 C2878 1.390 . S
C2883 C2882 1.362 . S
C2884 C2873 1.492 . S
C2884 C2885 1.377 . S
C2884 C2889 1.397 . S
C2885 H2848 0.931 . S
C2885 C2884 1.377 . S
C2885 C2886 1.376 . S
C2886 H2849 0.930 . S
C2886 C2885 1.376 . S
C2886 C2887 1.376 . S
C2887 C2886 1.376 . S
C2887 C2888 1.378 . S
C2887 C2914 1.486 . S
C2888 H2850 0.930 . S
C2888 C2887 1.378 . S
C2888 C2889 1.376 . S
C2889 H2851 0.929 . S
C2889 C2884 1.397 . S
C2889 C2888 1.376 . S
C2890 C2874 1.509 . S
C2890 C2891 1.391 . S
C2890 C2895 1.386 . S
C2891 H2852 0.930 . S
C2891 C2890 1.391 . S
C2891 C2892 1.375 . S
C2892 H2853 0.931 . S
C2892 C2891 1.375 . S
C2892 C2893 1.375 . S
C2893 C2892 1.375 . S
C2893 C2894 1.361 . S
C2894 H2854 0.930 . S
C2894 C2893 1.361 . S
C2894 C2895 1.399 . S
C2895 H2855 0.929 . S
C2895 C2890 1.386 . S
C2895 C2894 1.399 . S
C2896 C2875 1.485 . S
C2896 C2897 1.394 . S
C2896 C2901 1.360 . S
C2897 H2856 0.931 . S
C2897 C2896 1.394 . S
C2897 C2898 1.372 . S
C2898 H2857 0.930 . S
C2898 C2897 1.372 . S
C2898 C2899 1.397 . S
C2899 C2898 1.397 . S
C2899 C2900 1.390 . S
C2899 C2915 1.476 . S
C2900 H2858 0.930 . S
C2900 C2899 1.390 . S
C2900 C2901 1.366 . S
C2901 H2859 0.932 . S
C2901 C2896 1.360 . S
C2901 C2900 1.366 . S
C2902 C2876 1.490 . S
C2902 C2903 1.380 . S
C2902 C2907 1.386 . S
C2903 H2860 0.930 . S
C2903 C2902 1.380 . S
C2903 C2904 1.381 . S
C2904 H2861 0.929 . S
C2904 C2903 1.381 . S
C2904 C2905 1.371 . S
C2905 C2904 1.371 . S
C2905 C2906 1.380 . S
C2906 H2862 0.931 . S
C2906 C2905 1.380 . S
C2906 C2907 1.387 . S
C2907 H2863 0.930 . S
C2907 C2902 1.386 . S
C2907 C2906 1.387 . S
C2908 C2877 1.519 . S
C2908 C2909 1.377 . S
C2908 C2913 1.361 . S
C2909 H2864 0.929 . S
C2909 C2908 1.377 . S
C2909 C2910 1.386 . S
C2910 H2865 0.931 . S
C2910 C2909 1.386 . S
C2910 C2911 1.363 . S
C2911 C2910 1.363 . S
C2911 C2912 1.385 . S
C2912 H2866 0.930 . S
C2912 C2911 1.385 . S
C2912 C2913 1.396 . S
C2913 H2867 0.929 . S
C2913 C2908 1.361 . S
C2913 C2912 1.396 . S
C2914 O2868 1.300 . S
C2914 O2869 1.209 . S
C2914 C2887 1.486 . S
C2915 O2870 1.199 . S
C2915 O2871 1.297 . S
C2915 C2899 1.476 . S
C2916 C2917 1.387 . S
C2916 H2920 0.950 . S
C2916 C2925 1.390 . S
C2917 C2916 1.387 . S
C2917 C2919 1.387 . S
H2918 C2925 0.950 . S
C2919 C2917 1.387 . S
C2919 C2921 1.390 . S
C2919 H2923 0.950 . S
H2920 C2916 0.950 . S
C2921 C2919 1.390 . S
C2921 C2922 1.387 . S
C2921 H2924 0.950 . S
C2922 C2921 1.387 . S
C2922 C2925 1.387 . S
H2923 C2919 0.950 . S
H2924 C2921 0.950 . S
C2925 C2916 1.390 . S
C2925 H2918 0.950 . S
C2925 C2922 1.387 . S
C2926 C2927 1.387 . S
C2926 H2930 0.950 . S
C2926 C2935 1.390 . S
C2927 C2926 1.387 . S
C2927 C2929 1.387 . S
H2928 C2935 0.950 . S
C2929 C2927 1.387 . S
C2929 C2931 1.390 . S
C2929 H2933 0.950 . S
H2930 C2926 0.950 . S
C2931 C2929 1.390 . S
C2931 C2932 1.387 . S
C2931 H2934 0.950 . S
C2932 C2931 1.387 . S
C2932 C2935 1.387 . S
H2933 C2929 0.950 . S
H2934 C2931 0.950 . S
C2935 C2926 1.390 . S
C2935 H2928 0.950 . S
C2935 C2932 1.387 . S
C2936 C2937 1.387 . S
C2936 H2940 0.950 . S
C2936 C2945 1.390 . S
C2937 C2936 1.387 . S
C2937 C2939 1.387 . S
H2938 C2945 0.950 1_565 S
C2939 C2937 1.387 . S
C2939 C2941 1.390 . S
C2939 H2943 0.950 . S
H2940 C2936 0.950 . S
C2941 C2939 1.390 . S
C2941 C2942 1.387 . S
C2941 H2944 0.950 . S
C2942 C2941 1.387 . S
C2942 C2945 1.387 . S
H2943 C2939 0.950 . S
H2944 C2941 0.950 . S
C2945 C2936 1.390 . S
C2945 H2938 0.950 1_545 S
C2945 C2942 1.387 . S
C2946 C2947 1.387 . S
C2946 H2950 0.950 . S
C2946 C2955 1.390 . S
C2947 C2946 1.387 . S
C2947 C2949 1.387 . S
H2948 C2955 0.950 1_545 S
C2949 C2947 1.387 . S
C2949 C2951 1.390 . S
C2949 H2953 0.950 . S
H2950 C2946 0.950 . S
C2951 C2949 1.390 . S
C2951 C2952 1.387 . S
C2951 H2954 0.950 . S
C2952 C2951 1.387 . S
C2952 C2955 1.387 . S
H2953 C2949 0.950 . S
H2954 C2951 0.950 . S
C2955 C2946 1.390 . S
C2955 H2948 0.950 1_565 S
C2955 C2952 1.387 . S
C2956 C2957 1.387 . S
C2956 H2960 0.950 . S
C2956 C2965 1.390 . S
C2957 C2956 1.387 . S
C2957 C2959 1.387 . S
H2958 C2965 0.950 . S
C2959 C2957 1.387 . S
C2959 C2961 1.390 . S
C2959 H2963 0.950 . S
H2960 C2956 0.950 . S
C2961 C2959 1.390 . S
C2961 C2962 1.387 . S
C2961 H2964 0.919 1_455 S
C2962 C2961 1.387 . S
C2962 C2965 1.387 . S
H2963 C2959 0.950 . S
H2964 C2961 0.919 1_655 S
C2965 C2956 1.390 . S
C2965 H2958 0.950 . S
C2965 C2962 1.387 . S
C2966 C2967 1.387 . S
C2966 H2970 0.950 . S
C2966 C2975 1.390 . S
C2967 C2966 1.387 . S
C2967 C2969 1.387 . S
H2968 C2975 0.950 . S
C2969 C2967 1.387 . S
C2969 C2971 1.390 . S
C2969 H2973 0.950 . S
H2970 C2966 0.950 . S
C2971 C2969 1.390 . S
C2971 C2972 1.387 . S
C2971 H2974 0.950 . S
C2972 C2971 1.387 . S
C2972 C2975 1.387 . S
H2973 C2969 0.950 . S
H2974 C2971 0.950 . S
C2975 C2966 1.390 . S
C2975 H2968 0.950 . S
C2975 C2972 1.387 . S
C2976 C2977 1.387 . S
C2976 H2980 0.950 . S
C2976 C2985 1.390 . S
C2977 C2976 1.387 . S
C2977 C2979 1.387 . S
H2978 C2985 0.950 . S
C2979 C2977 1.387 . S
C2979 C2981 1.390 1_455 S
C2979 H2983 0.950 1_455 S
H2980 C2976 0.950 . S
C2981 C2979 1.390 1_655 S
C2981 C2982 1.387 1_655 S
C2981 H2984 0.950 . S
C2982 C2981 1.387 1_455 S
C2982 C2985 1.387 . S
H2983 C2979 0.950 1_655 S
H2984 C2981 0.950 . S
C2985 C2976 1.390 . S
C2985 H2978 0.950 . S
C2985 C2982 1.387 . S
C2986 C2987 1.387 . S
C2986 H2990 0.950 . S
C2986 C2995 1.390 . S
C2987 C2986 1.387 . S
C2987 C2989 1.387 . S
H2988 C2995 0.950 . S
C2989 C2987 1.387 . S
C2989 C2991 1.390 . S
C2989 H2993 0.950 . S
H2990 C2986 0.950 . S
C2991 C2989 1.390 . S
C2991 C2992 1.387 . S
C2991 H2994 0.950 . S
C2992 C2991 1.387 . S
C2992 C2995 1.387 . S
H2993 C2989 0.950 . S
H2994 C2991 0.950 . S
C2995 C2986 1.390 . S
C2995 H2988 0.950 . S
C2995 C2992 1.387 . S
C2996 C2997 1.387 . S
C2996 H3000 0.950 . S
C2996 C3005 1.390 . S
C2997 C2996 1.387 . S
C2997 C2999 1.387 . S
H2998 C3005 0.950 . S
C2999 C2997 1.387 . S
C2999 C3001 1.390 1_565 S
C2999 H3003 0.950 1_565 S
H3000 C2996 0.950 . S
C3001 C2999 1.390 1_545 S
C3001 C3002 1.387 1_545 S
C3001 H3004 0.950 . S
C3002 C3001 1.387 1_565 S
C3002 C3005 1.387 . S
H3003 C2999 0.950 1_545 S
H3004 C3001 0.950 . S
C3005 C2996 1.390 . S
C3005 H2998 0.950 . S
C3005 C3002 1.387 . S
C3006 C3007 1.387 . S
C3006 H3010 0.950 . S
C3006 C3015 1.390 . S
C3007 C3006 1.387 . S
C3007 C3009 1.387 . S
H3008 C3015 0.950 . S
C3009 C3007 1.387 . S
C3009 C3011 1.390 . S
C3009 H3013 0.950 . S
H3010 C3006 0.950 . S
C3011 C3009 1.390 . S
C3011 C3012 1.387 . S
C3011 H3014 0.950 1_545 S
C3012 C3011 1.387 . S
C3012 C3015 1.387 . S
H3013 C3009 0.950 . S
H3014 C3011 0.950 1_565 S
C3015 C3006 1.390 . S
C3015 H3008 0.950 . S
C3015 C3012 1.387 . S
C3016 C3017 1.387 . S
C3016 H3020 0.950 1_655 S
C3016 C3025 1.390 1_655 S
C3017 C3016 1.387 . S
C3017 C3019 1.387 . S
H3018 C3025 0.950 . S
C3019 C3017 1.387 . S
C3019 C3021 1.390 . S
C3019 H3023 0.950 . S
H3020 C3016 0.950 1_455 S
C3021 C3019 1.390 . S
C3021 C3022 1.387 . S
C3021 H3024 0.950 . S
C3022 C3021 1.387 . S
C3022 C3025 1.387 1_655 S
H3023 C3019 0.950 . S
H3024 C3021 0.950 . S
C3025 C3016 1.390 1_455 S
C3025 H3018 0.950 . S
C3025 C3022 1.387 1_455 S
C3026 C3027 1.387 . S
C3026 H3030 0.950 . S
C3026 C3035 1.390 . S
C3027 C3026 1.387 . S
C3027 C3029 1.387 . S
H3028 C3035 0.950 . S
C3029 C3027 1.387 . S
C3029 C3031 1.390 . S
C3029 H3033 0.950 . S
H3030 C3026 0.950 . S
C3031 C3029 1.390 . S
C3031 C3032 1.387 . S
C3031 H3034 0.950 . S
C3032 C3031 1.387 . S
C3032 C3035 1.387 . S
H3033 C3029 0.950 . S
H3034 C3031 0.950 . S
C3035 C3026 1.390 . S
C3035 H3028 0.950 . S
C3035 C3032 1.387 . S
C3036 C3037 1.387 . S
C3036 H3040 0.950 . S
C3036 C3045 1.390 . S
C3037 C3036 1.387 . S
C3037 C3039 1.387 . S
H3038 C3045 0.950 . S
C3039 C3037 1.387 . S
C3039 C3041 1.390 . S
C3039 H3043 0.950 . S
H3040 C3036 0.950 . S
C3041 C3039 1.390 . S
C3041 C3042 1.387 . S
C3041 H3044 0.950 . S
C3042 C3041 1.387 . S
C3042 C3045 1.387 . S
H3043 C3039 0.950 . S
H3044 C3041 0.950 . S
C3045 C3036 1.390 . S
C3045 H3038 0.950 . S
C3045 C3042 1.387 . S
C3046 C3047 1.387 . S
C3046 H3050 0.950 . S
C3046 C3055 1.390 . S
C3047 C3046 1.387 . S
C3047 C3049 1.387 . S
H3048 C3055 0.950 . S
C3049 C3047 1.387 . S
C3049 C3051 1.390 . S
C3049 H3053 0.950 . S
H3050 C3046 0.950 . S
C3051 C3049 1.390 . S
C3051 C3052 1.387 . S
C3051 H3054 0.950 . S
C3052 C3051 1.387 . S
C3052 C3055 1.387 . S
H3053 C3049 0.950 . S
H3054 C3051 0.950 . S
C3055 C3046 1.390 . S
C3055 H3048 0.950 . S
C3055 C3052 1.387 . S
C3056 C3057 1.387 . S
C3056 H3060 0.950 . S
C3056 C3065 1.390 . S
C3057 C3056 1.387 . S
C3057 C3059 1.387 . S
H3058 C3065 0.950 . S
C3059 C3057 1.387 . S
C3059 C3061 1.390 . S
C3059 H3063 0.950 . S
H3060 C3056 0.950 . S
C3061 C3059 1.390 . S
C3061 C3062 1.387 . S
C3061 H3064 0.950 . S
C3062 C3061 1.387 . S
C3062 C3065 1.387 . S
H3063 C3059 0.950 . S
H3064 C3061 0.950 . S
C3065 C3056 1.390 . S
C3065 H3058 0.950 . S
C3065 C3062 1.387 . S
C3066 C3067 1.387 . S
C3066 H3070 0.950 . S
C3066 C3075 1.390 . S
C3067 C3066 1.387 . S
C3067 C3069 1.387 . S
H3068 C3075 0.950 . S
C3069 C3067 1.387 . S
C3069 C3071 1.390 . S
C3069 H3073 0.950 . S
H3070 C3066 0.950 . S
C3071 C3069 1.390 . S
C3071 C3072 1.387 . S
C3071 H3074 0.950 . S
C3072 C3071 1.387 . S
C3072 C3075 1.387 . S
H3073 C3069 0.950 . S
H3074 C3071 0.950 . S
C3075 C3066 1.390 . S
C3075 H3068 0.950 . S
C3075 C3072 1.387 . S
C3076 C3077 1.387 . S
C3076 H3080 0.950 . S
C3076 C3085 1.390 . S
C3077 C3076 1.387 . S
C3077 C3079 1.387 . S
H3078 C3085 0.950 . S
C3079 C3077 1.387 . S
C3079 C3081 1.390 . S
C3079 H3083 0.950 . S
H3080 C3076 0.950 . S
C3081 C3079 1.390 . S
C3081 C3082 1.387 . S
C3081 H3084 0.950 . S
C3082 C3081 1.387 . S
C3082 C3085 1.387 . S
H3083 C3079 0.950 . S
H3084 C3081 0.950 . S
C3085 C3076 1.390 . S
C3085 H3078 0.950 . S
C3085 C3082 1.387 . S
C3086 C3087 1.387 . S
C3086 H3090 0.950 . S
C3086 C3095 1.390 . S
C3087 C3086 1.387 . S
C3087 C3089 1.387 . S
H3088 C3095 0.950 . S
C3089 C3087 1.387 . S
C3089 C3091 1.390 . S
C3089 H3093 0.950 . S
H3090 C3086 0.950 . S
C3091 C3089 1.390 . S
C3091 C3092 1.387 . S
C3091 H3094 0.950 . S
C3092 C3091 1.387 . S
C3092 C3095 1.387 . S
H3093 C3089 0.950 . S
H3094 C3091 0.950 . S
C3095 C3086 1.390 . S
C3095 H3088 0.950 . S
C3095 C3092 1.387 . S
C3096 C3097 1.387 . S
C3096 H3100 0.950 . S
C3096 C3105 1.390 . S
C3097 C3096 1.387 . S
C3097 C3099 1.387 . S
H3098 C3105 0.950 . S
C3099 C3097 1.387 . S
C3099 C3101 1.390 . S
C3099 H3103 0.950 . S
H3100 C3096 0.950 . S
C3101 C3099 1.390 . S
C3101 C3102 1.387 . S
C3101 H3104 0.950 . S
C3102 C3101 1.387 . S
C3102 C3105 1.387 . S
H3103 C3099 0.950 . S
H3104 C3101 0.950 . S
C3105 C3096 1.390 . S
C3105 H3098 0.950 . S
C3105 C3102 1.387 . S
C3106 C3107 1.387 . S
C3106 H3110 0.950 . S
C3106 C3115 1.390 . S
C3107 C3106 1.387 . S
C3107 C3109 1.387 . S
H3108 C3115 0.950 . S
C3109 C3107 1.387 . S
C3109 C3111 1.390 . S
C3109 H3113 0.950 . S
H3110 C3106 0.950 . S
C3111 C3109 1.390 . S
C3111 C3112 1.387 . S
C3111 H3114 0.950 . S
C3112 C3111 1.387 . S
C3112 C3115 1.387 . S
H3113 C3109 0.950 . S
H3114 C3111 0.950 . S
C3115 C3106 1.390 . S
C3115 H3108 0.950 . S
C3115 C3112 1.387 . S
C3116 C3117 1.387 . S
C3116 H3120 0.950 . S
C3116 C3125 1.390 . S
C3117 C3116 1.387 . S
C3117 C3119 1.387 . S
H3118 C3125 0.950 . S
C3119 C3117 1.387 . S
C3119 C3121 1.390 . S
C3119 H3123 0.950 . S
H3120 C3116 0.950 . S
C3121 C3119 1.390 . S
C3121 C3122 1.387 . S
C3121 H3124 0.950 . S
C3122 C3121 1.387 . S
C3122 C3125 1.387 . S
H3123 C3119 0.950 . S
H3124 C3121 0.950 . S
C3125 C3116 1.390 . S
C3125 H3118 0.950 . S
C3125 C3122 1.387 . S
C3126 C3127 1.387 . S
C3126 H3130 0.950 . S
C3126 C3135 1.390 . S
C3127 C3126 1.387 . S
C3127 C3129 1.387 . S
H3128 C3135 0.950 . S
C3129 C3127 1.387 . S
C3129 C3131 1.390 . S
C3129 H3133 0.950 . S
H3130 C3126 0.950 . S
C3131 C3129 1.390 . S
C3131 C3132 1.387 . S
C3131 H3134 0.950 . S
C3132 C3131 1.387 . S
C3132 C3135 1.387 . S
H3133 C3129 0.950 . S
H3134 C3131 0.950 . S
C3135 C3126 1.390 . S
C3135 H3128 0.950 . S
C3135 C3132 1.387 . S
C3136 C3137 1.387 . S
C3136 H3140 0.950 . S
C3136 C3145 1.390 . S
C3137 C3136 1.387 . S
C3137 C3139 1.387 . S
H3138 C3145 0.950 . S
C3139 C3137 1.387 . S
C3139 C3141 1.390 . S
C3139 H3143 0.950 . S
H3140 C3136 0.950 . S
C3141 C3139 1.390 . S
C3141 C3142 1.387 . S
C3141 H3144 0.950 . S
C3142 C3141 1.387 . S
C3142 C3145 1.387 . S
H3143 C3139 0.950 . S
H3144 C3141 0.950 . S
C3145 C3136 1.390 . S
C3145 H3138 0.950 . S
C3145 C3142 1.387 . S
C3146 C3147 1.387 . S
C3146 H3150 0.950 . S
C3146 C3155 1.390 . S
C3147 C3146 1.387 . S
C3147 C3149 1.387 . S
H3148 C3155 0.950 . S
C3149 C3147 1.387 . S
C3149 C3151 1.390 . S
C3149 H3153 0.950 . S
H3150 C3146 0.950 . S
C3151 C3149 1.390 . S
C3151 C3152 1.387 . S
C3151 H3154 0.950 . S
C3152 C3151 1.387 . S
C3152 C3155 1.387 . S
H3153 C3149 0.950 . S
H3154 C3151 0.950 . S
C3155 C3146 1.390 . S
C3155 H3148 0.950 . S
C3155 C3152 1.387 . S
C3156 C3157 1.387 . S
C3156 H3160 0.950 . S
C3156 C3165 1.390 . S
C3157 C3156 1.387 . S
C3157 C3159 1.387 . S
H3158 C3165 0.950 . S
C3159 C3157 1.387 . S
C3159 C3161 1.390 . S
C3159 H3163 0.950 . S
H3160 C3156 0.950 . S
C3161 C3159 1.390 . S
C3161 C3162 1.387 . S
C3161 H3164 0.950 . S
C3162 C3161 1.387 . S
C3162 C3165 1.387 . S
H3163 C3159 0.950 . S
H3164 C3161 0.950 . S
C3165 C3156 1.390 . S
C3165 H3158 0.950 . S
C3165 C3162 1.387 . S
C3166 C3167 1.387 . S
C3166 H3170 0.950 . S
C3166 C3175 1.390 . S
C3167 C3166 1.387 . S
C3167 C3169 1.387 . S
H3168 C3175 0.950 . S
C3169 C3167 1.387 . S
C3169 C3171 1.390 . S
C3169 H3173 0.950 . S
H3170 C3166 0.950 . S
C3171 C3169 1.390 . S
C3171 C3172 1.387 . S
C3171 H3174 0.950 . S
C3172 C3171 1.387 . S
C3172 C3175 1.387 . S
H3173 C3169 0.950 . S
H3174 C3171 0.950 . S
C3175 C3166 1.390 . S
C3175 H3168 0.950 . S
C3175 C3172 1.387 . S
C3176 C3177 1.387 . S
C3176 H3180 0.950 . S
C3176 C3185 1.390 . S
C3177 C3176 1.387 . S
C3177 C3179 1.387 . S
H3178 C3185 0.950 . S
C3179 C3177 1.387 . S
C3179 C3181 1.390 . S
C3179 H3183 0.950 . S
H3180 C3176 0.950 . S
C3181 C3179 1.390 . S
C3181 C3182 1.387 . S
C3181 H3184 0.950 . S
C3182 C3181 1.387 . S
C3182 C3185 1.387 . S
H3183 C3179 0.950 . S
H3184 C3181 0.950 . S
C3185 C3176 1.390 . S
C3185 H3178 0.950 . S
C3185 C3182 1.387 . S
C3186 C3187 1.387 . S
C3186 H3190 0.950 . S
C3186 C3195 1.390 . S
C3187 C3186 1.387 . S
C3187 C3189 1.387 . S
H3188 C3195 0.950 . S
C3189 C3187 1.387 . S
C3189 C3191 1.390 . S
C3189 H3193 0.950 . S
H3190 C3186 0.950 . S
C3191 C3189 1.390 . S
C3191 C3192 1.387 . S
C3191 H3194 0.950 . S
C3192 C3191 1.387 . S
C3192 C3195 1.387 . S
H3193 C3189 0.950 . S
H3194 C3191 0.950 . S
C3195 C3186 1.390 . S
C3195 H3188 0.950 . S
C3195 C3192 1.387 . S
C3196 C3197 1.387 . S
C3196 H3200 0.950 . S
C3196 C3205 1.390 . S
C3197 C3196 1.387 . S
C3197 C3199 1.387 . S
H3198 C3205 0.950 . S
C3199 C3197 1.387 . S
C3199 C3201 1.390 . S
C3199 H3203 0.950 . S
H3200 C3196 0.950 . S
C3201 C3199 1.390 . S
C3201 C3202 1.387 . S
C3201 H3204 0.950 . S
C3202 C3201 1.387 . S
C3202 C3205 1.387 . S
H3203 C3199 0.950 . S
H3204 C3201 0.950 . S
C3205 C3196 1.390 . S
C3205 H3198 0.950 . S
C3205 C3202 1.387 . S
C3206 C3207 1.387 . S
C3206 H3210 0.950 . S
C3206 C3215 1.390 . S
C3207 C3206 1.387 . S
C3207 C3209 1.387 . S
H3208 C3215 0.950 . S
C3209 C3207 1.387 . S
C3209 C3211 1.390 . S
C3209 H3213 0.950 . S
H3210 C3206 0.950 . S
C3211 C3209 1.390 . S
C3211 C3212 1.387 . S
C3211 H3214 0.950 . S
C3212 C3211 1.387 . S
C3212 C3215 1.387 . S
H3213 C3209 0.950 . S
H3214 C3211 0.950 . S
C3215 C3206 1.390 . S
C3215 H3208 0.950 . S
C3215 C3212 1.387 . S
C3216 C3217 1.387 . S
C3216 H3220 0.950 . S
C3216 C3225 1.390 . S
C3217 C3216 1.387 . S
C3217 C3219 1.387 . S
H3218 C3225 0.950 . S
C3219 C3217 1.387 . S
C3219 C3221 1.390 . S
C3219 H3223 0.950 . S
H3220 C3216 0.950 . S
C3221 C3219 1.390 . S
C3221 C3222 1.387 . S
C3221 H3224 0.950 . S
C3222 C3221 1.387 . S
C3222 C3225 1.387 . S
H3223 C3219 0.950 . S
H3224 C3221 0.950 . S
C3225 C3216 1.390 . S
C3225 H3218 0.950 . S
C3225 C3222 1.387 . S
C3226 C3227 1.387 . S
C3226 H3230 0.950 . S
C3226 C3235 1.390 . S
C3227 C3226 1.387 . S
C3227 C3229 1.387 . S
H3228 C3235 0.950 . S
C3229 C3227 1.387 . S
C3229 C3231 1.390 . S
C3229 H3233 0.950 . S
H3230 C3226 0.950 . S
C3231 C3229 1.390 . S
C3231 C3232 1.387 . S
C3231 H3234 0.950 . S
C3232 C3231 1.387 . S
C3232 C3235 1.387 . S
H3233 C3229 0.950 . S
H3234 C3231 0.950 . S
C3235 C3226 1.390 . S
C3235 H3228 0.950 . S
C3235 C3232 1.387 . S
C3236 C3237 1.387 . S
C3236 H3240 0.950 . S
C3236 C3245 1.390 . S
C3237 C3236 1.387 . S
C3237 C3239 1.387 . S
H3238 C3245 0.950 . S
C3239 C3237 1.387 . S
C3239 C3241 1.390 . S
C3239 H3243 0.950 . S
H3240 C3236 0.950 . S
C3241 C3239 1.390 . S
C3241 C3242 1.387 . S
C3241 H3244 0.950 . S
C3242 C3241 1.387 . S
C3242 C3245 1.387 . S
H3243 C3239 0.950 . S
H3244 C3241 0.950 . S
C3245 C3236 1.390 . S
C3245 H3238 0.950 . S
C3245 C3242 1.387 . S
C3246 C3247 1.387 . S
C3246 H3250 0.950 . S
C3246 C3255 1.390 . S
C3247 C3246 1.387 . S
C3247 C3249 1.387 . S
H3248 C3255 0.950 . S
C3249 C3247 1.387 . S
C3249 C3251 1.390 . S
C3249 H3253 0.950 . S
H3250 C3246 0.950 . S
C3251 C3249 1.390 . S
C3251 C3252 1.387 . S
C3251 H3254 0.950 . S
C3252 C3251 1.387 . S
C3252 C3255 1.387 . S
H3253 C3249 0.950 . S
H3254 C3251 0.950 . S
C3255 C3246 1.390 . S
C3255 H3248 0.950 . S
C3255 C3252 1.387 . S
C3256 C3257 1.387 . S
C3256 H3260 0.950 . S
C3256 C3265 1.390 . S
C3257 C3256 1.387 . S
C3257 C3259 1.387 . S
H3258 C3265 0.950 . S
C3259 C3257 1.387 . S
C3259 C3261 1.390 . S
C3259 H3263 0.950 . S
H3260 C3256 0.950 . S
C3261 C3259 1.390 . S
C3261 C3262 1.387 . S
C3261 H3264 0.950 . S
C3262 C3261 1.387 . S
C3262 C3265 1.387 . S
H3263 C3259 0.950 . S
H3264 C3261 0.950 . S
C3265 C3256 1.390 . S
C3265 H3258 0.950 . S
C3265 C3262 1.387 . S
C3266 C3267 1.387 . S
C3266 H3270 0.950 . S
C3266 C3275 1.390 . S
C3267 C3266 1.387 . S
C3267 C3269 1.387 . S
H3268 C3275 0.950 . S
C3269 C3267 1.387 . S
C3269 C3271 1.390 . S
C3269 H3273 0.950 . S
H3270 C3266 0.950 . S
C3271 C3269 1.390 . S
C3271 C3272 1.387 . S
C3271 H3274 0.950 . S
C3272 C3271 1.387 . S
C3272 C3275 1.387 . S
H3273 C3269 0.950 . S
H3274 C3271 0.950 . S
C3275 C3266 1.390 . S
C3275 H3268 0.950 . S
C3275 C3272 1.387 . S
C3276 C3277 1.387 . S
C3276 H3280 0.950 . S
C3276 C3285 1.390 . S
C3277 C3276 1.387 . S
C3277 C3279 1.387 . S
H3278 C3285 0.950 . S
C3279 C3277 1.387 . S
C3279 C3281 1.390 . S
C3279 H3283 0.950 . S
H3280 C3276 0.950 . S
C3281 C3279 1.390 . S
C3281 C3282 1.387 . S
C3281 H3284 0.950 . S
C3282 C3281 1.387 . S
C3282 C3285 1.387 . S
H3283 C3279 0.950 . S
H3284 C3281 0.950 . S
C3285 C3276 1.390 . S
C3285 H3278 0.950 . S
C3285 C3282 1.387 . S
C3286 C3287 1.387 . S
C3286 H3290 0.950 . S
C3286 C3295 1.390 . S
C3287 C3286 1.387 . S
C3287 C3289 1.387 . S
H3288 C3295 0.950 . S
C3289 C3287 1.387 . S
C3289 C3291 1.390 . S
C3289 H3293 0.950 . S
H3290 C3286 0.950 . S
C3291 C3289 1.390 . S
C3291 C3292 1.387 . S
C3291 H3294 0.950 . S
C3292 C3291 1.387 . S
C3292 C3295 1.387 . S
H3293 C3289 0.950 . S
H3294 C3291 0.950 . S
C3295 C3286 1.390 . S
C3295 H3288 0.950 . S
C3295 C3292 1.387 . S
C3296 C3297 1.387 . S
C3296 H3300 0.950 . S
C3296 C3305 1.390 . S
C3297 C3296 1.387 . S
C3297 C3299 1.387 . S
H3298 C3305 0.950 . S
C3299 C3297 1.387 . S
C3299 C3301 1.390 . S
C3299 H3303 0.950 . S
H3300 C3296 0.950 . S
C3301 C3299 1.390 . S
C3301 C3302 1.387 . S
C3301 H3304 0.950 . S
C3302 C3301 1.387 . S
C3302 C3305 1.387 . S
H3303 C3299 0.950 . S
H3304 C3301 0.950 . S
C3305 C3296 1.390 . S
C3305 H3298 0.950 . S
C3305 C3302 1.387 . S
C3306 C3307 1.387 . S
C3306 H3310 0.950 1_556 S
C3306 C3315 1.390 . S
C3307 C3306 1.387 . S
C3307 C3309 1.387 . S
H3308 C3315 0.950 . S
C3309 C3307 1.387 . S
C3309 C3311 1.390 . S
C3309 H3313 0.950 . S
H3310 C3306 0.950 1_554 S
C3311 C3309 1.390 . S
C3311 C3312 1.387 . S
C3311 H3314 0.950 . S
C3312 C3311 1.387 . S
C3312 C3315 1.387 . S
H3313 C3309 0.950 . S
H3314 C3311 0.950 . S
C3315 C3306 1.390 . S
C3315 H3308 0.950 . S
C3315 C3312 1.387 . S
C3316 C3317 1.387 . S
C3316 H3320 0.950 . S
C3316 C3325 1.390 . S
C3317 C3316 1.387 . S
C3317 C3319 1.387 . S
H3318 C3325 0.950 . S
C3319 C3317 1.387 . S
C3319 C3321 1.390 . S
C3319 H3323 0.950 . S
H3320 C3316 0.950 . S
C3321 C3319 1.390 . S
C3321 C3322 1.387 . S
C3321 H3324 0.950 . S
C3322 C3321 1.387 . S
C3322 C3325 1.387 . S
H3323 C3319 0.950 . S
H3324 C3321 0.950 . S
C3325 C3316 1.390 . S
C3325 H3318 0.950 . S
C3325 C3322 1.387 . S
C3326 C3327 1.387 1_556 S
C3326 H3330 0.950 . S
C3326 C3335 1.390 . S
C3327 C3326 1.387 1_554 S
C3327 C3329 1.387 . S
H3328 C3335 0.950 . S
C3329 C3327 1.387 . S
C3329 C3331 1.390 . S
C3329 H3333 0.950 . S
H3330 C3326 0.950 . S
C3331 C3329 1.390 . S
C3331 C3332 1.387 1_554 S
C3331 H3334 0.950 . S
C3332 C3331 1.387 1_556 S
C3332 C3335 1.387 . S
H3333 C3329 0.950 . S
H3334 C3331 0.950 . S
C3335 C3326 1.390 . S
C3335 H3328 0.950 . S
C3335 C3332 1.387 . S
C3336 C3337 1.387 . S
C3336 H3340 0.950 . S
C3336 C3345 1.390 . S
C3337 C3336 1.387 . S
C3337 C3339 1.395 . S
H3338 C3345 0.950 . S
C3339 C3337 1.395 . S
C3339 C3341 1.406 . S
C3339 H3343 0.927 1_556 S
H3340 C3336 0.950 . S
C3341 C3339 1.406 . S
C3341 C3342 1.387 . S
C3341 H3344 0.950 . S
C3342 C3341 1.387 . S
C3342 C3345 1.387 . S
H3343 C3339 0.927 1_554 S
H3344 C3341 0.950 . S
C3345 C3336 1.390 . S
C3345 H3338 0.950 . S
C3345 C3342 1.387 . S
C3346 C3347 1.387 . S
C3346 H3350 0.950 . S
C3346 C3355 1.390 . S
C3347 C3346 1.387 . S
C3347 C3349 1.387 . S
H3348 C3355 0.950 . S
C3349 C3347 1.387 . S
C3349 C3351 1.390 . S
C3349 H3353 0.950 . S
H3350 C3346 0.950 . S
C3351 C3349 1.390 . S
C3351 C3352 1.387 . S
C3351 H3354 0.950 . S
C3352 C3351 1.387 . S
C3352 C3355 1.387 . S
H3353 C3349 0.950 . S
H3354 C3351 0.950 . S
C3355 C3346 1.390 . S
C3355 H3348 0.950 . S
C3355 C3352 1.387 . S
C3356 C3357 1.387 . S
C3356 H3360 0.950 . S
C3356 C3365 1.390 1_554 S
C3357 C3356 1.387 . S
C3357 C3359 1.387 . S
H3358 C3365 0.950 . S
C3359 C3357 1.387 . S
C3359 C3361 1.390 1_554 S
C3359 H3363 0.950 . S
H3360 C3356 0.950 . S
C3361 C3359 1.390 1_556 S
C3361 C3362 1.387 . S
C3361 H3364 0.950 . S
C3362 C3361 1.387 . S
C3362 C3365 1.387 . S
H3363 C3359 0.950 . S
H3364 C3361 0.950 . S
C3365 C3356 1.390 1_556 S
C3365 H3358 0.950 . S
C3365 C3362 1.387 . S
C3366 C3367 1.387 . S
C3366 H3370 0.950 . S
C3366 C3375 1.390 . S
C3367 C3366 1.387 . S
C3367 C3369 1.387 . S
H3368 C3375 0.950 . S
C3369 C3367 1.387 . S
C3369 C3371 1.390 . S
C3369 H3373 0.950 . S
H3370 C3366 0.950 . S
C3371 C3369 1.390 . S
C3371 C3372 1.387 . S
C3371 H3374 0.950 . S
C3372 C3371 1.387 . S
C3372 C3375 1.387 . S
H3373 C3369 0.950 . S
H3374 C3371 0.950 . S
C3375 C3366 1.390 . S
C3375 H3368 0.950 . S
C3375 C3372 1.387 . S
C3376 C3377 1.387 . S
C3376 H3380 0.950 . S
C3376 C3385 1.390 . S
C3377 C3376 1.387 . S
C3377 C3379 1.387 . S
H3378 C3385 0.950 . S
C3379 C3377 1.387 . S
C3379 C3381 1.390 . S
C3379 H3383 0.950 . S
H3380 C3376 0.950 . S
C3381 C3379 1.390 . S
C3381 C3382 1.387 . S
C3381 H3384 0.950 . S
C3382 C3381 1.387 . S
C3382 C3385 1.387 . S
H3383 C3379 0.950 . S
H3384 C3381 0.950 . S
C3385 C3376 1.390 . S
C3385 H3378 0.950 . S
C3385 C3382 1.387 . S
C3386 C3387 1.387 . S
C3386 H3390 0.950 . S
C3386 C3395 1.390 . S
C3387 C3386 1.387 . S
C3387 C3389 1.387 . S
H3388 C3395 0.950 . S
C3389 C3387 1.387 . S
C3389 C3391 1.390 . S
C3389 H3393 0.950 . S
H3390 C3386 0.950 . S
C3391 C3389 1.390 . S
C3391 C3392 1.387 . S
C3391 H3394 0.950 . S
C3392 C3391 1.387 . S
C3392 C3395 1.387 . S
H3393 C3389 0.950 . S
H3394 C3391 0.950 . S
C3395 C3386 1.390 . S
C3395 H3388 0.950 . S
C3395 C3392 1.387 . S
C3396 C3397 1.387 . S
C3396 H3400 0.950 . S
C3396 C3405 1.390 . S
C3397 C3396 1.387 . S
C3397 C3399 1.387 . S
H3398 C3405 0.950 . S
C3399 C3397 1.387 . S
C3399 C3401 1.390 . S
C3399 H3403 0.950 . S
H3400 C3396 0.950 . S
C3401 C3399 1.390 . S
C3401 C3402 1.387 . S
C3401 H3404 0.950 . S
C3402 C3401 1.387 . S
C3402 C3405 1.387 . S
H3403 C3399 0.950 . S
H3404 C3401 0.950 . S
C3405 C3396 1.390 . S
C3405 H3398 0.950 . S
C3405 C3402 1.387 . S
C3406 C3407 1.387 . S
C3406 H3410 0.950 . S
C3406 C3415 1.390 . S
C3407 C3406 1.387 . S
C3407 C3409 1.387 . S
H3408 C3415 0.950 . S
C3409 C3407 1.387 . S
C3409 C3411 1.390 . S
C3409 H3413 0.950 . S
H3410 C3406 0.950 . S
C3411 C3409 1.390 . S
C3411 C3412 1.387 . S
C3411 H3414 0.950 . S
C3412 C3411 1.387 . S
C3412 C3415 1.387 . S
H3413 C3409 0.950 . S
H3414 C3411 0.950 . S
C3415 C3406 1.390 . S
C3415 H3408 0.950 . S
C3415 C3412 1.387 . S
C3416 C3417 1.387 . S
C3416 H3420 0.950 . S
C3416 C3425 1.390 . S
C3417 C3416 1.387 . S
C3417 C3419 1.387 . S
H3418 C3425 0.950 . S
C3419 C3417 1.387 . S
C3419 C3421 1.390 . S
C3419 H3423 0.950 . S
H3420 C3416 0.950 . S
C3421 C3419 1.390 . S
C3421 C3422 1.387 . S
C3421 H3424 0.950 . S
C3422 C3421 1.387 . S
C3422 C3425 1.387 . S
H3423 C3419 0.950 . S
H3424 C3421 0.950 . S
C3425 C3416 1.390 . S
C3425 H3418 0.950 . S
C3425 C3422 1.387 . S
C3426 C3427 1.387 . S
C3426 H3430 0.950 . S
C3426 C3435 1.390 . S
C3427 C3426 1.387 . S
C3427 C3429 1.387 . S
H3428 C3435 0.950 . S
C3429 C3427 1.387 . S
C3429 C3431 1.390 . S
C3429 H3433 0.950 . S
H3430 C3426 0.950 . S
C3431 C3429 1.390 . S
C3431 C3432 1.387 . S
C3431 H3434 0.950 . S
C3432 C3431 1.387 . S
C3432 C3435 1.387 . S
H3433 C3429 0.950 . S
H3434 C3431 0.950 . S
C3435 C3426 1.390 . S
C3435 H3428 0.950 . S
C3435 C3432 1.387 . S
C3436 C3437 1.387 . S
C3436 H3440 0.950 . S
C3436 C3445 1.390 . S
C3437 C3436 1.387 . S
C3437 C3439 1.387 . S
H3438 C3445 0.950 . S
C3439 C3437 1.387 . S
C3439 C3441 1.390 . S
C3439 H3443 0.950 . S
H3440 C3436 0.950 . S
C3441 C3439 1.390 . S
C3441 C3442 1.387 . S
C3441 H3444 0.950 . S
C3442 C3441 1.387 . S
C3442 C3445 1.387 . S
H3443 C3439 0.950 . S
H3444 C3441 0.950 . S
C3445 C3436 1.390 . S
C3445 H3438 0.950 . S
C3445 C3442 1.387 . S
C3446 C3447 1.387 . S
C3446 H3450 0.950 . S
C3446 C3455 1.390 . S
C3447 C3446 1.387 . S
C3447 C3449 1.387 . S
H3448 C3455 0.950 . S
C3449 C3447 1.387 . S
C3449 C3451 1.390 . S
C3449 H3453 0.950 . S
H3450 C3446 0.950 . S
C3451 C3449 1.390 . S
C3451 C3452 1.387 . S
C3451 H3454 0.950 1_565 S
C3452 C3451 1.387 . S
C3452 C3455 1.387 . S
H3453 C3449 0.950 . S
H3454 C3451 0.950 1_545 S
C3455 C3446 1.390 . S
C3455 H3448 0.950 . S
C3455 C3452 1.387 . S
C3456 C3457 1.387 . S
C3456 H3460 0.950 . S
C3456 C3465 1.390 . S
C3457 C3456 1.387 . S
C3457 C3459 1.387 . S
H3458 C3465 0.950 . S
C3459 C3457 1.387 . S
C3459 C3461 1.390 1_565 S
C3459 H3463 0.950 1_565 S
H3460 C3456 0.950 . S
C3461 C3459 1.390 1_545 S
C3461 C3462 1.387 1_545 S
C3461 H3464 0.950 . S
C3462 C3461 1.387 1_565 S
C3462 C3465 1.387 . S
H3463 C3459 0.950 1_545 S
H3464 C3461 0.950 . S
C3465 C3456 1.390 . S
C3465 H3458 0.950 . S
C3465 C3462 1.387 . S
C3466 C3467 1.387 . S
C3466 H3470 0.950 . S
C3466 C3475 1.390 . S
C3467 C3466 1.387 . S
C3467 C3469 1.387 . S
H3468 C3475 0.949 1_655 S
C3469 C3467 1.387 . S
C3469 C3471 1.390 . S
C3469 H3473 0.950 . S
H3470 C3466 0.950 . S
C3471 C3469 1.390 . S
C3471 C3472 1.387 . S
C3471 H3474 0.950 . S
C3472 C3471 1.387 . S
C3472 C3475 1.387 . S
H3473 C3469 0.950 . S
H3474 C3471 0.950 . S
C3475 C3466 1.390 . S
C3475 H3468 0.949 1_455 S
C3475 C3472 1.387 . S
C3476 C3477 1.387 . S
C3476 H3480 0.950 . S
C3476 C3485 1.390 . S
C3477 C3476 1.387 . S
C3477 C3479 1.387 . S
H3478 C3485 0.950 . S
C3479 C3477 1.387 . S
C3479 C3481 1.390 . S
C3479 H3483 0.950 . S
H3480 C3476 0.950 . S
C3481 C3479 1.390 . S
C3481 C3482 1.387 . S
C3481 H3484 0.950 . S
C3482 C3481 1.387 . S
C3482 C3485 1.387 . S
H3483 C3479 0.950 . S
H3484 C3481 0.950 . S
C3485 C3476 1.390 . S
C3485 H3478 0.950 . S
C3485 C3482 1.387 . S
C3486 C3487 1.387 . S
C3486 H3490 0.950 . S
C3486 C3495 1.390 . S
C3487 C3486 1.387 . S
C3487 C3489 1.387 . S
H3488 C3495 0.950 . S
C3489 C3487 1.387 . S
C3489 C3491 1.390 . S
C3489 H3493 0.950 . S
H3490 C3486 0.950 . S
C3491 C3489 1.390 . S
C3491 C3492 1.387 . S
C3491 H3494 0.950 . S
C3492 C3491 1.387 . S
C3492 C3495 1.387 . S
H3493 C3489 0.950 . S
H3494 C3491 0.950 . S
C3495 C3486 1.390 . S
C3495 H3488 0.950 . S
C3495 C3492 1.387 . S
C3496 C3497 1.387 . S
C3496 H3500 0.950 . S
C3496 C3505 1.390 . S
C3497 C3496 1.387 . S
C3497 C3499 1.387 . S
H3498 C3505 0.950 . S
C3499 C3497 1.387 . S
C3499 C3501 1.390 . S
C3499 H3503 0.950 . S
H3500 C3496 0.950 . S
C3501 C3499 1.390 . S
C3501 C3502 1.387 . S
C3501 H3504 0.950 . S
C3502 C3501 1.387 . S
C3502 C3505 1.387 . S
H3503 C3499 0.950 . S
H3504 C3501 0.950 . S
C3505 C3496 1.390 . S
C3505 H3498 0.950 . S
C3505 C3502 1.387 . S
C3506 C3507 1.387 . S
C3506 H3510 0.950 . S
C3506 C3515 1.390 . S
C3507 C3506 1.387 . S
C3507 C3509 1.387 . S
H3508 C3515 0.950 . S
C3509 C3507 1.387 . S
C3509 C3511 1.390 . S
C3509 H3513 0.950 . S
H3510 C3506 0.950 . S
C3511 C3509 1.390 . S
C3511 C3512 1.387 . S
C3511 H3514 0.950 . S
C3512 C3511 1.387 . S
C3512 C3515 1.387 . S
H3513 C3509 0.950 . S
H3514 C3511 0.950 . S
C3515 C3506 1.390 . S
C3515 H3508 0.950 . S
C3515 C3512 1.387 . S
C3516 C3517 1.387 . S
C3516 H3520 0.978 . S
C3516 C3525 1.390 . S
C3517 C3516 1.387 . S
C3517 C3519 1.387 . S
H3518 C3525 0.950 1_565 S
C3519 C3517 1.387 . S
C3519 C3521 1.390 . S
C3519 H3523 0.950 . S
H3520 C3516 0.978 . S
C3521 C3519 1.390 . S
C3521 C3522 1.387 . S
C3521 H3524 0.950 . S
C3522 C3521 1.387 . S
C3522 C3525 1.387 . S
H3523 C3519 0.950 . S
H3524 C3521 0.950 . S
C3525 C3516 1.390 . S
C3525 H3518 0.950 1_545 S
C3525 C3522 1.387 . S
C3526 C3527 1.387 . S
C3526 H3530 0.950 . S
C3526 C3535 1.390 . S
C3527 C3526 1.387 . S
C3527 C3529 1.387 . S
H3528 C3535 0.950 . S
C3529 C3527 1.387 . S
C3529 C3531 1.390 . S
C3529 H3533 0.950 . S
H3530 C3526 0.950 . S
C3531 C3529 1.390 . S
C3531 C3532 1.387 . S
C3531 H3534 0.950 . S
C3532 C3531 1.387 . S
C3532 C3535 1.387 . S
H3533 C3529 0.950 . S
H3534 C3531 0.950 . S
C3535 C3526 1.390 . S
C3535 H3528 0.950 . S
C3535 C3532 1.387 . S
C3536 C3537 1.387 . S
C3536 H3540 0.950 . S
C3536 C3545 1.390 . S
C3537 C3536 1.387 . S
C3537 C3539 1.387 . S
H3538 C3545 0.950 . S
C3539 C3537 1.387 . S
C3539 C3541 1.390 . S
C3539 H3543 0.950 . S
H3540 C3536 0.950 . S
C3541 C3539 1.390 . S
C3541 C3542 1.387 . S
C3541 H3544 0.950 . S
C3542 C3541 1.387 . S
C3542 C3545 1.387 . S
H3543 C3539 0.950 . S
H3544 C3541 0.950 . S
C3545 C3536 1.390 . S
C3545 H3538 0.950 . S
C3545 C3542 1.387 . S
C3546 C3547 1.387 . S
C3546 H3550 0.950 . S
C3546 C3555 1.390 . S
C3547 C3546 1.387 . S
C3547 C3549 1.387 . S
H3548 C3555 0.950 . S
C3549 C3547 1.387 . S
C3549 C3551 1.390 . S
C3549 H3553 0.950 . S
H3550 C3546 0.950 . S
C3551 C3549 1.390 . S
C3551 C3552 1.387 . S
C3551 H3554 0.950 . S
C3552 C3551 1.387 . S
C3552 C3555 1.387 . S
H3553 C3549 0.950 . S
H3554 C3551 0.950 . S
C3555 C3546 1.390 . S
C3555 H3548 0.950 . S
C3555 C3552 1.387 . S
C3556 C3557 1.387 . S
C3556 H3560 0.950 . S
C3556 C3565 1.390 . S
C3557 C3556 1.387 . S
C3557 C3559 1.387 . S
H3558 C3565 0.950 . S
C3559 C3557 1.387 . S
C3559 C3561 1.390 . S
C3559 H3563 0.950 . S
H3560 C3556 0.950 . S
C3561 C3559 1.390 . S
C3561 C3562 1.387 . S
C3561 H3564 0.950 . S
C3562 C3561 1.387 . S
C3562 C3565 1.387 . S
H3563 C3559 0.950 . S
H3564 C3561 0.950 . S
C3565 C3556 1.390 . S
C3565 H3558 0.950 . S
C3565 C3562 1.387 . S
C3566 C3567 1.387 . S
C3566 H3570 0.950 . S
C3566 C3575 1.390 . S
C3567 C3566 1.387 . S
C3567 C3569 1.387 . S
H3568 C3575 0.950 . S
C3569 C3567 1.387 . S
C3569 C3571 1.390 . S
C3569 H3573 0.950 . S
H3570 C3566 0.950 . S
C3571 C3569 1.390 . S
C3571 C3572 1.387 . S
C3571 H3574 0.950 . S
C3572 C3571 1.387 . S
C3572 C3575 1.387 . S
H3573 C3569 0.950 . S
H3574 C3571 0.950 . S
C3575 C3566 1.390 . S
C3575 H3568 0.950 . S
C3575 C3572 1.387 . S
C3576 C3577 1.387 . S
C3576 H3580 0.950 . S
C3576 C3585 1.390 . S
C3577 C3576 1.387 . S
C3577 C3579 1.387 . S
H3578 C3585 0.950 . S
C3579 C3577 1.387 . S
C3579 C3581 1.390 . S
C3579 H3583 0.950 . S
H3580 C3576 0.950 . S
C3581 C3579 1.390 . S
C3581 C3582 1.387 . S
C3581 H3584 0.950 . S
C3582 C3581 1.387 . S
C3582 C3585 1.387 . S
H3583 C3579 0.950 . S
H3584 C3581 0.950 . S
C3585 C3576 1.390 . S
C3585 H3578 0.950 . S
C3585 C3582 1.387 . S
C3586 C3587 1.387 . S
C3586 H3590 0.950 . S
C3586 C3595 1.390 . S
C3587 C3586 1.387 . S
C3587 C3589 1.387 . S
H3588 C3595 0.950 . S
C3589 C3587 1.387 . S
C3589 C3591 1.390 . S
C3589 H3593 0.950 . S
H3590 C3586 0.950 . S
C3591 C3589 1.390 . S
C3591 C3592 1.387 . S
C3591 H3594 0.950 . S
C3592 C3591 1.387 . S
C3592 C3595 1.387 . S
H3593 C3589 0.950 . S
H3594 C3591 0.950 . S
C3595 C3586 1.390 . S
C3595 H3588 0.950 . S
C3595 C3592 1.387 . S
C3596 C3597 1.387 . S
C3596 H3600 0.950 . S
C3596 C3605 1.390 . S
C3597 C3596 1.387 . S
C3597 C3599 1.387 . S
H3598 C3605 0.950 . S
C3599 C3597 1.387 . S
C3599 C3601 1.390 . S
C3599 H3603 0.950 . S
H3600 C3596 0.950 . S
C3601 C3599 1.390 . S
C3601 C3602 1.387 . S
C3601 H3604 0.950 . S
C3602 C3601 1.387 . S
C3602 C3605 1.387 . S
H3603 C3599 0.950 . S
H3604 C3601 0.950 . S
C3605 C3596 1.390 . S
C3605 H3598 0.950 . S
C3605 C3602 1.387 . S
C3606 C3607 1.387 . S
C3606 H3610 0.950 . S
C3606 C3615 1.390 . S
C3607 C3606 1.387 . S
C3607 C3609 1.387 . S
H3608 C3615 0.950 . S
C3609 C3607 1.387 . S
C3609 C3611 1.390 . S
C3609 H3613 0.950 . S
H3610 C3606 0.950 . S
C3611 C3609 1.390 . S
C3611 C3612 1.387 . S
C3611 H3614 0.950 . S
C3612 C3611 1.387 . S
C3612 C3615 1.387 . S
H3613 C3609 0.950 . S
H3614 C3611 0.950 . S
C3615 C3606 1.390 . S
C3615 H3608 0.950 . S
C3615 C3612 1.387 . S
C3616 C3617 1.387 . S
C3616 H3620 0.950 . S
C3616 C3625 1.390 . S
C3617 C3616 1.387 . S
C3617 C3619 1.387 . S
H3618 C3625 0.950 . S
C3619 C3617 1.387 . S
C3619 C3621 1.390 . S
C3619 H3623 0.950 . S
H3620 C3616 0.950 . S
C3621 C3619 1.390 . S
C3621 C3622 1.387 . S
C3621 H3624 0.950 . S
C3622 C3621 1.387 . S
C3622 C3625 1.387 . S
H3623 C3619 0.950 . S
H3624 C3621 0.950 . S
C3625 C3616 1.390 . S
C3625 H3618 0.950 . S
C3625 C3622 1.387 . S
C3626 C3627 1.387 . S
C3626 H3630 0.950 . S
C3626 C3635 1.390 . S
C3627 C3626 1.387 . S
C3627 C3629 1.387 . S
H3628 C3635 0.950 . S
C3629 C3627 1.387 . S
C3629 C3631 1.390 . S
C3629 H3633 0.950 . S
H3630 C3626 0.950 . S
C3631 C3629 1.390 . S
C3631 C3632 1.387 . S
C3631 H3634 0.950 1_545 S
C3632 C3631 1.387 . S
C3632 C3635 1.387 . S
H3633 C3629 0.950 . S
H3634 C3631 0.950 1_565 S
C3635 C3626 1.390 . S
C3635 H3628 0.950 . S
C3635 C3632 1.387 . S
C2917 C49 1.325 . S
C2922 C2313 1.269 . S
C2927 C137 1.641 . S
C2932 C2393 1.610 . S
C2942 C2461 1.473 . S
C2937 C205 1.457 . S
C2947 C196 1.816 . S
C2952 C2541 1.881 . S
C2957 C57 1.627 . S
C2962 C2615 1.693 . S
C2967 C145 1.659 . S
C2972 C2683 1.582 . S
C2977 C313 1.384 . S
C2982 C2609 1.346 . S
C2992 C2689 1.550 . S
C2987 C401 1.522 . S
C3002 C2535 1.538 1_565 S
C2997 C489 1.530 . S
C3007 C469 1.935 . S
C3012 C2467 2.010 1_545 S
C3022 C2319 1.757 . S
C3017 C293 1.677 . S
C3027 C381 1.532 . S
C3032 C2387 1.523 . S
C3037 C577 1.522 . S
C3042 C2757 1.385 . S
C3047 C645 1.671 . S
C3052 C2837 1.602 . S
C3062 C2905 1.505 . S
C3057 C733 1.604 . S
C3067 C724 1.904 . S
C3072 C1653 1.868 . S
C3077 C585 1.745 . S
C3082 C1727 1.705 . S
C3087 C636 1.691 . S
C3092 C1795 1.610 . S
C3097 C841 1.228 . S
C3102 C1721 1.185 . S
C3107 C937 1.575 . S
C3112 C1801 1.592 . S
C3122 C1647 1.484 . S
C3117 C1025 1.487 . S
C3132 C2911 1.904 . S
C3127 C988 1.884 . S
C3142 C2763 1.554 . S
C3137 C821 1.546 . S
C3152 C2831 1.509 . S
C3147 C900 1.522 . S
C3157 C1105 1.423 . S
C3162 C1869 1.298 . S
C3167 C1193 1.714 . S
C3172 C1949 1.660 . S
C3177 C1281 1.647 . S
C3182 C2017 1.562 . S
C3187 C1289 1.982 . S
C3192 C2097 1.940 . S
C3202 C2171 1.645 . S
C3197 C1113 1.699 . S
C3212 C2239 1.610 . S
C3207 C1201 1.710 . S
C3222 C2165 1.290 . S
C3217 C1369 1.340 . S
C3232 C2245 1.516 . S
C3227 C1457 1.512 . S
C3237 C1553 1.395 . S
C3242 C2091 1.383 . S
C3252 C2023 1.825 . S
C3247 C1516 1.800 . S
C3257 C1349 1.629 . S
C3262 C1875 1.650 . S
C3272 C1943 1.540 . S
C3267 C1437 1.535 . S
C3282 C1623 2.206 . S
C3277 C29 2.216 . S
C3287 C117 1.560 . S
C3292 C1697 1.557 . S
C3302 C1783 1.843 . S
C3297 C225 1.788 . S
C3312 C1857 1.427 . S
C3307 C233 1.421 . S
C3322 C1919 1.767 . S
C3317 C20 1.771 . S
C3332 C2005 1.724 . S
C3327 C108 1.701 . S
C3337 C321 2.477 1_556 S
C3342 C1993 2.353 . S
C3347 C409 1.895 . S
C3352 C1845 1.759 . S
C3357 C497 2.185 . S
C3362 C1931 2.161 . S
C3367 C460 1.836 . S
C3372 C1709 1.739 . S
C3382 C1771 1.976 . S
C3377 C284 2.109 . S
C3387 C372 2.050 . S
C3392 C1635 1.996 . S
C3402 C2067 2.020 . S
C3397 C557 2.050 . S
C3407 C665 1.628 . S
C3412 C2141 1.611 . S
C3417 C753 1.705 . S
C3422 C2227 1.705 . S
C3432 C2301 1.002 . S
C3427 C761 1.014 . S
C3437 C548 1.581 . S
C3442 C2363 1.574 . S
C3447 C673 1.375 . S
C3452 C2449 1.400 . S
C3457 C849 1.864 . S
C3462 C2437 1.781 1_565 S
C3467 C929 1.386 . S
C3472 C2289 1.324 1_455 S
C3482 C2375 1.909 . S
C3477 C1017 1.966 . S
C3487 C997 1.792 . S
C3492 C2153 1.668 . S
C3497 C812 1.985 . S
C3502 C2215 1.847 . S
C3512 C2079 1.997 . S
C3507 C909 2.064 . S
C3522 C2511 1.727 . S
C3517 C1085 1.755 . S
C3527 C1173 1.159 . S
C3532 C2585 1.155 . S
C3537 C1261 1.607 . S
C3542 C2671 1.629 . S
C3552 C2745 1.344 . S
C3547 C1252 1.377 . S
C3562 C2807 1.674 . S
C3557 C1076 1.692 . S
C3567 C1164 1.733 . S
C3572 C2893 1.743 . S
C3577 C1377 2.342 . S
C3582 C2881 2.197 . S
C3587 C1465 1.940 . S
C3592 C2733 1.798 . S
C3602 C2819 1.970 . S
C3597 C1545 2.052 . S
C3612 C2597 1.166 . S
C3607 C1525 1.216 . S
C3622 C2659 1.771 . S
C3617 C1340 1.896 . S
C3627 C1428 1.548 . S
C3632 C2523 1.546 . S
