# Generated by pormake.
# Topology rtl, (3,6)-cn, num edge types: 1
# Building blocks:
#     Node 0, Type 0, BuildingBlock: PAMTOO_clean_linker_0, # of connection points: 3
#     Node 1, Type 0, BuildingBlock: PAMTOO_clean_linker_0, # of connection points: 3
#     Node 2, Type 0, BuildingBlock: PAMTOO_clean_linker_0, # of connection points: 3
#     Node 3, Type 0, BuildingBlock: PAMTOO_clean_linker_0, # of connection points: 3
#     Node 4, Type 1, BuildingBlock: KUMJIN_clean_sbu_1, # of connection points: 6
#     Node 5, Type 1, BuildingBlock: KUMJIN_clean_sbu_1, # of connection points: 6
#     Edge 6, Type (0, 1), BuildingBlock: XIVTED_clean_linker_0, # of connection points: 2
#     Edge 7, Type (0, 1), BuildingBlock: XIVTED_clean_linker_0, # of connection points: 2
#     Edge 8, Type (0, 1), BuildingBlock: XIVTED_clean_linker_0, # of connection points: 2
#     Edge 9, Type (0, 1), BuildingBlock: XIVTED_clean_linker_0, # of connection points: 2
#     Edge 10, Type (0, 1), BuildingBlock: XIVTED_clean_linker_0, # of connection points: 2
#     Edge 11, Type (0, 1), BuildingBlock: XIVTED_clean_linker_0, # of connection points: 2
#     Edge 12, Type (0, 1), BuildingBlock: XIVTED_clean_linker_0, # of connection points: 2
#     Edge 13, Type (0, 1), BuildingBlock: XIVTED_clean_linker_0, # of connection points: 2
#     Edge 14, Type (0, 1), BuildingBlock: XIVTED_clean_linker_0, # of connection points: 2
#     Edge 15, Type (0, 1), BuildingBlock: XIVTED_clean_linker_0, # of connection points: 2
#     Edge 16, Type (0, 1), BuildingBlock: XIVTED_clean_linker_0, # of connection points: 2
#     Edge 17, Type (0, 1), BuildingBlock: XIVTED_clean_linker_0, # of connection points: 2
# Relax obj value: 0.052
# Max RMSD: 0.218
# Mean RMSD: 0.163
data_MOF--net-rtl--node1-KUMJIN_clean_sbu_1--node2-PAMTOO_clean_linker_0--edge1-XIVTED_clean_linker_0
_symmetry_space_group_name_H-M    P1
_symmetry_Int_Tables_number       1
_symmetry_cell_setting            triclinic
loop_
_symmetry_equiv_pos_as_xyz
'x, y, z'
_cell_length_a     35.366587
_cell_length_b     35.626568
_cell_length_c     27.310073
_cell_angle_alpha  79.410494
_cell_angle_beta   99.694767
_cell_angle_gamma 91.205928
loop_
_atom_site_label
_atom_site_type_symbol
_atom_site_fract_x
_atom_site_fract_y
_atom_site_fract_z
_atom_type_partial_charge
H0 H 0.17146 0.9002 0.99974 0.0
H1 H 0.24683 0.81942 0.10688 0.0
H2 H 0.24284 0.82482 0.94771 0.0
H3 H 0.23969 0.74796 0.01418 0.0
C4 C 0.2637 0.75244 0.04457 0.0
O5 O 0.27405 0.79038 0.03821 0.0
H6 H 0.25344 0.74408 0.08136 0.0
C7 C 0.19356 0.87824 0.00787 0.0
C8 C 0.20587 0.86523 0.96763 0.0
C9 C 0.20792 0.86205 0.05831 0.0
C10 C 0.2352 0.83227 0.0683 0.0
C11 C 0.24768 0.81892 0.02839 0.0
C12 C 0.23297 0.83532 0.97822 0.0
H13 H 0.6351 0.65526 0.64337 0.0
H14 H 0.71814 0.7247 0.57063 0.0
H15 H 0.71369 0.72346 0.72728 0.0
H16 H 0.7307 0.79918 0.67506 0.0
C17 C 0.74119 0.79149 0.64197 0.0
O18 O 0.74811 0.75259 0.65074 0.0
H19 H 0.71829 0.7997 0.60846 0.0
C20 C 0.65808 0.67588 0.6446 0.0
C21 C 0.67178 0.68817 0.69024 0.0
C22 C 0.67453 0.68856 0.6012 0.0
C23 C 0.70525 0.71424 0.60378 0.0
C24 C 0.71913 0.72709 0.64906 0.0
C25 C 0.70277 0.71357 0.69242 0.0
H26 H 0.85706 0.11488 0.09465 0.0
H27 H 0.78633 0.19981 0.98719 0.0
H28 H 0.78485 0.18995 0.14576 0.0
H29 H 0.70888 0.19626 0.07618 0.0
C30 C 0.71668 0.21964 0.04659 0.0
O31 O 0.75567 0.22592 0.05521 0.0
H32 H 0.70843 0.21052 0.00942 0.0
C33 C 0.8359 0.13774 0.08615 0.0
C34 C 0.82252 0.1501 0.12612 0.0
C35 C 0.82373 0.15572 0.03571 0.0
C36 C 0.79597 0.18513 0.02555 0.0
C37 C 0.7816 0.19698 0.06518 0.0
C38 C 0.79534 0.1799 0.11534 0.0
H39 H 0.39943 0.36187 0.44442 0.0
H40 H 0.31824 0.2912 0.51978 0.0
H41 H 0.32794 0.28464 0.36695 0.0
H42 H 0.24902 0.27293 0.38688 0.0
C43 C 0.25514 0.26483 0.42878 0.0
O44 O 0.29378 0.25658 0.44416 0.0
H45 H 0.24702 0.28963 0.44455 0.0
C46 C 0.37744 0.34022 0.4445 0.0
C47 C 0.36583 0.32484 0.40064 0.0
C48 C 0.36019 0.32898 0.48766 0.0
C49 C 0.33216 0.30033 0.48721 0.0
C50 C 0.32074 0.2842 0.44391 0.0
C51 C 0.33726 0.2968 0.4005 0.0
Eu52 Eu 0.0373 0.96975 0.51434 0.0
C53 C 0.9379 0.11077 0.49253 0.0
N54 N 0.97562 0.10642 0.51347 0.0
C55 C 0.9898 0.16723 0.46644 0.0
C56 C 0.92494 0.14331 0.45605 0.0
C57 C 1.00146 0.13431 0.50195 0.0
C58 C 0.95144 0.17164 0.44311 0.0
C59 C 0.87307 0.08625 0.48577 0.0
C60 C 0.91232 0.08232 0.50719 0.0
C61 C 0.86034 0.11795 0.44813 0.0
C62 C 0.88617 0.14644 0.43344 0.0
Eu63 Eu 0.99239 0.05069 0.57429 0.0
N64 N 0.92535 0.05186 0.54386 0.0
C65 C 0.84746 0.05886 0.50401 0.0
C66 C 0.8998 0.02758 0.56527 0.0
C67 C 0.86078 0.02989 0.54469 0.0
H68 H 0.0311 0.13089 0.52006 0.0
H69 H 0.84089 0.00983 0.56101 0.0
H70 H 0.97825 0.89496 0.51465 0.0
H71 H 0.18614 0.97794 0.60773 0.0
H72 H 0.90899 0.00699 0.59915 0.0
H73 H 0.81712 0.06085 0.48854 0.0
H74 H 0.12576 1.00259 0.55395 0.0
H75 H 0.0104 0.18911 0.45696 0.0
H76 H 0.83037 0.12114 0.43097 0.0
H77 H 0.87579 0.17097 0.40486 0.0
H78 H 0.97907 0.82643 0.55298 0.0
H79 H 0.94255 0.19704 0.41528 0.0
H80 H 0.1922 0.9098 0.64811 0.0
N81 N 0.03549 0.90412 0.54823 0.0
C82 C 0.06844 0.88837 0.57706 0.0
C83 C 1.00432 0.84356 0.56026 0.0
C84 C 0.07036 0.8493 0.59923 0.0
C85 C 1.00376 0.88242 0.53911 0.0
C86 C 0.03773 0.82692 0.59054 0.0
N87 N 0.09686 0.94959 0.56542 0.0
C88 C 0.12751 0.9731 0.57202 0.0
C89 C 0.13436 0.89622 0.61628 0.0
C90 C 0.10011 0.91162 0.58553 0.0
C91 C 0.16544 0.92053 0.62463 0.0
C92 C 0.16206 0.95906 0.60213 0.0
H93 H 0.03807 0.79681 0.60693 0.0
H94 H 0.10648 0.80395 0.64706 0.0
H95 H 0.16245 0.84499 0.66198 0.0
O96 O 0.07145 0.98046 0.45382 0.0
O97 O 0.04419 0.95963 0.59991 0.0
O98 O 0.04402 0.01866 0.6237 0.0
O99 O 0.03365 0.932 0.45905 0.0
O100 O 0.06316 0.02946 0.50156 0.0
O101 O 0.05536 0.0573 0.5694 0.0
O102 O 0.96707 0.05954 0.64089 0.0
O103 O 0.99316 0.05819 0.48953 0.0
O104 O 0.98186 0.99838 0.4722 0.0
O105 O 0.00778 0.09974 0.60913 0.0
O106 O 0.97279 0.98879 0.59481 0.0
O107 O 0.97446 0.96513 0.52196 0.0
C108 C 0.05372 0.98231 0.63273 0.0
C109 C 0.04588 0.95996 0.37813 0.0
C110 C 0.05985 0.95563 0.29486 0.0
C111 C 0.02643 0.97722 0.27267 0.0
C112 C 0.01263 0.9813 0.35545 0.0
C113 C 1.00296 0.98983 0.30288 0.0
C114 C 0.06928 0.94703 0.34785 0.0
C115 C 0.07212 0.05531 0.5305 0.0
C116 C 0.05733 0.95188 0.4332 0.0
C117 C 0.1045 0.8339 0.62967 0.0
C118 C 0.13639 0.85727 0.63816 0.0
C119 C 0.97679 0.03542 0.45975 0.0
C120 C 0.98443 0.11624 0.68038 0.0
C121 C 0.96188 0.13203 0.75397 0.0
C122 C 0.98546 0.16431 0.75133 0.0
C123 C 0.0076 0.14894 0.67854 0.0
C124 C 0.96107 0.10807 0.71805 0.0
C125 C 0.00798 0.17276 0.7137 0.0
C126 C 0.96123 0.96434 0.56443 0.0
C127 C 0.98589 0.09121 0.64306 0.0
H128 H 0.01825 0.98402 0.23197 0.0
H129 H 0.99435 0.99144 0.37834 0.0
H130 H 0.97726 0.00634 0.28551 0.0
H131 H 0.09525 0.93097 0.3656 0.0
H132 H 0.98631 0.18316 0.77844 0.0
H133 H 0.02574 0.15616 0.65 0.0
H134 H 0.9431 0.083 0.72012 0.0
H135 H 0.02598 0.19776 0.71193 0.0
Eu136 Eu 0.47372 0.49108 0.9939 0.0
C137 C 0.63992 0.55161 0.07248 0.0
N138 N 0.62253 0.51925 0.09215 0.0
C139 C 0.68161 0.4842 0.10624 0.0
C140 C 0.67912 0.55124 0.06839 0.0
C141 C 0.64266 0.48589 0.1094 0.0
C142 C 0.69992 0.51699 0.08559 0.0
C143 C 0.63519 0.61859 0.03271 0.0
C144 C 0.6181 0.58495 0.05471 0.0
C145 C 0.67431 0.61835 0.029 0.0
C146 C 0.69619 0.5848 0.04677 0.0
Eu147 Eu 0.55707 0.52512 0.09646 0.0
N148 N 0.57987 0.584 0.05696 0.0
C149 C 0.61234 0.65141 0.01453 0.0
C150 C 0.55783 0.61629 0.04097 0.0
C151 C 0.57358 0.65029 0.019 0.0
H152 H 0.62882 0.46075 0.12651 0.0
H153 H 0.55584 0.67572 0.00584 0.0
H154 H 0.39575 0.5359 0.00999 0.0
H155 H 0.50217 0.3374 0.01651 0.0
H156 H 0.52827 0.61629 0.04551 0.0
H157 H 0.62439 0.67779 0.99731 0.0
H158 H 0.51136 0.40551 0.98527 0.0
H159 H 0.69751 0.45767 0.11993 0.0
H160 H 0.68786 0.64392 0.01211 0.0
H161 H 0.72627 0.58503 0.04329 0.0
H162 H 0.33485 0.5196 0.04189 0.0
H163 H 0.7301 0.51556 0.08308 0.0
H164 H 0.44771 0.31675 0.06078 0.0
N165 N 0.41563 0.47846 0.02506 0.0
C166 C 0.40785 0.44106 0.0409 0.0
C167 C 0.35521 0.49729 0.04208 0.0
C168 C 0.37361 0.4305 0.05968 0.0
C169 C 0.38968 0.50648 0.02429 0.0
C170 C 0.34724 0.45917 0.06018 0.0
N171 N 0.46662 0.42422 0.01871 0.0
C172 C 0.48931 0.39735 0.00783 0.0
C173 C 0.42688 0.37438 0.05503 0.0
C174 C 0.43444 0.41335 0.03879 0.0
C175 C 0.4525 0.34694 0.04879 0.0
C176 C 0.4834 0.35847 0.0241 0.0
H177 H 0.32061 0.45217 0.07427 0.0
H178 H 0.3409 0.38325 0.09263 0.0
H179 H 0.38741 0.33413 0.08839 0.0
O180 O 0.46521 0.47023 0.92063 0.0
O181 O 0.46466 0.48774 0.07574 0.0
O182 O 0.52392 0.47237 0.123 0.0
O183 O 0.42668 0.51255 0.93479 0.0
O184 O 0.53412 0.46584 0.00374 0.0
O185 O 0.55761 0.46293 0.08864 0.0
O186 O 0.55135 0.55941 0.1533 0.0
O187 O 0.56876 0.53241 0.01586 0.0
O188 O 0.50984 0.54082 0.96383 0.0
O189 O 0.59427 0.51455 0.17025 0.0
O190 O 0.4984 0.55426 0.08332 0.0
O191 O 0.47241 0.55325 1.00026 0.0
C192 C 0.48645 0.46955 0.11664 0.0
C193 C 0.41144 0.49536 0.85252 0.0
C194 C 0.39414 0.47574 0.77047 0.0
C195 C 0.36658 0.5053 0.75587 0.0
C196 C 0.38355 0.52464 0.83672 0.0
C197 C 0.3613 0.52944 0.78884 0.0
C198 C 0.41645 0.47056 0.81926 0.0
C199 C 0.55719 0.45082 0.04579 0.0
C200 C 0.43499 0.49206 0.90337 0.0
C201 C 0.36683 0.39185 0.07753 0.0
C202 C 0.39342 0.3639 0.07533 0.0
C203 C 0.54718 0.54564 0.97227 0.0
C204 C 0.56917 0.53076 0.23857 0.0
C205 C 0.57501 0.54509 0.32354 0.0
C206 C 0.55044 0.51447 0.33587 0.0
C207 C 0.54476 0.50038 0.25145 0.0
C208 C 0.58433 0.5529 0.27462 0.0
C209 C 0.53555 0.49225 0.30003 0.0
C210 C 0.47361 0.5668 0.04202 0.0
C211 C 0.57807 0.54083 0.18726 0.0
H212 H 0.34881 0.50958 0.71883 0.0
H213 H 0.37896 0.54417 0.86128 0.0
H214 H 0.33996 0.55208 0.77716 0.0
H215 H 0.43785 0.44793 0.83079 0.0
H216 H 0.54299 0.50751 0.37335 0.0
H217 H 0.53272 0.48321 0.22394 0.0
H218 H 0.60267 0.57677 0.26412 0.0
H219 H 0.51669 0.46875 0.30987 0.0
H220 H 0.2312 0.20546 0.37971 0.0
H221 H 0.10274 0.10987 0.58437 0.0
H222 H 0.22593 0.24656 0.51722 0.0
H223 H 0.11011 0.06606 0.44897 0.0
H224 H 0.14973 0.15838 0.56197 0.0
H225 H 0.18928 0.15239 0.40602 0.0
C226 C 0.22125 0.20314 0.41554 0.0
C227 C 0.2314 0.2307 0.44597 0.0
C228 C 0.14123 0.13807 0.53723 0.0
C229 C 0.1836 0.17012 0.47653 0.0
C230 C 0.11432 0.11027 0.55001 0.0
C231 C 0.10219 0.08377 0.51845 0.0
C232 C 0.15626 0.13964 0.49244 0.0
C233 C 0.11845 0.08584 0.47448 0.0
C234 C 0.19734 0.17292 0.43057 0.0
C235 C 0.21828 0.22617 0.49239 0.0
N236 N 0.14446 0.11335 0.4627 0.0
N237 N 0.19484 0.19668 0.50606 0.0
H238 H 0.28684 0.73225 0.96196 0.0
H239 H 0.45959 0.59668 0.12317 0.0
H240 H 0.31761 0.71787 0.1238 0.0
H241 H 0.42417 0.60671 0.96206 0.0
H242 H 0.41101 0.64442 0.12359 0.0
H243 H 0.34025 0.68988 0.96053 0.0
C244 C 0.30496 0.7201 0.99716 0.0
C245 C 0.29749 0.72782 0.04314 0.0
C246 C 0.41399 0.6363 0.08811 0.0
C247 C 0.35877 0.67965 0.042 0.0
C248 C 0.44182 0.60907 0.08781 0.0
C249 C 0.44592 0.59743 0.04255 0.0
C250 C 0.39007 0.65213 0.04281 0.0
C251 C 0.42199 0.61458 0.99793 0.0
C252 C 0.33541 0.69597 0.99641 0.0
C253 C 0.32215 0.71205 0.08768 0.0
N254 N 0.39505 0.64089 0.99925 0.0
N255 N 0.35153 0.68849 0.08606 0.0
H256 H 0.79415 0.82172 0.70992 0.0
H257 H 0.91307 0.92757 0.49966 0.0
H258 H 0.76979 0.81068 0.55332 0.0
H259 H 0.9392 0.93829 0.65653 0.0
H260 H 0.86237 0.88265 0.51953 0.0
H261 H 0.8494 0.86176 0.69244 0.0
C262 C 0.80065 0.82761 0.6719 0.0
C263 C 0.77713 0.81344 0.63279 0.0
C264 C 0.87924 0.89465 0.54973 0.0
C265 C 0.84021 0.85916 0.61239 0.0
C266 C 0.90834 0.92027 0.53843 0.0
C267 C 0.9306 0.93667 0.57653 0.0
C268 C 0.87203 0.88532 0.59956 0.0
C269 C 0.9227 0.92645 0.62593 0.0
C270 C 0.8321 0.8505 0.66189 0.0
C271 C 0.787 0.82147 0.58434 0.0
N272 N 0.89405 0.90152 0.636 0.0
N273 N 0.81758 0.84401 0.57542 0.0
H274 H 0.69879 0.24559 0.12847 0.0
H275 H 0.58159 0.42992 0.96443 0.0
H276 H 0.68687 0.27545 0.96642 0.0
H277 H 0.59057 0.39759 0.12618 0.0
H278 H 0.62223 0.37512 0.96455 0.0
H279 H 0.66184 0.30301 0.12886 0.0
C280 C 0.6883 0.26434 0.093 0.0
C281 C 0.69516 0.25555 0.04728 0.0
C282 C 0.61543 0.38007 1.00005 0.0
C283 C 0.65318 0.32136 0.04724 0.0
C284 C 0.59217 0.41132 0.99998 0.0
C285 C 0.58262 0.41835 0.04534 0.0
C286 C 0.62932 0.35559 0.04584 0.0
C287 C 0.59735 0.39342 0.09033 0.0
C288 C 0.66725 0.29707 0.09316 0.0
C289 C 0.68163 0.28101 0.00237 0.0
N290 N 0.61985 0.36316 0.08942 0.0
N291 N 0.66108 0.31264 0.00342 0.0
H292 H 0.18723 0.81951 0.1443 0.0
H293 H 0.08371 0.99642 0.21071 0.0
H294 H 0.19358 0.93572 0.06612 0.0
H295 H 0.09349 0.88511 0.30631 0.0
H296 H 0.12418 0.97418 0.15746 0.0
H297 H 0.15458 0.84252 0.20564 0.0
C298 C 0.18232 0.84989 0.14048 0.0
C299 C 0.19276 0.87567 0.09964 0.0
C300 C 0.11766 0.95461 0.19021 0.0
C301 C 0.15483 0.9021 0.16907 0.0
C302 C 0.09431 0.96724 0.22039 0.0
C303 C 0.08504 0.94253 0.26284 0.0
C304 C 0.13166 0.91683 0.20218 0.0
C305 C 0.10011 0.90517 0.27408 0.0
C306 C 0.16344 0.86299 0.1753 0.0
C307 C 0.18534 0.91471 0.09637 0.0
N308 N 0.12246 0.89336 0.24373 0.0
N309 N 0.16656 0.92665 0.13026 0.0
H310 H 0.59541 0.68542 0.69557 0.0
H311 H 0.62376 0.54901 0.96604 0.0
H312 H 0.70646 0.65639 0.7863 0.0
H313 H 0.51354 0.5938 0.88613 0.0
H314 H 0.65458 0.5884 0.90141 0.0
H315 H 0.56501 0.65309 0.7656 0.0
C316 C 0.61339 0.6725 0.73054 0.0
C317 C 0.65352 0.67337 0.73507 0.0
C318 C 0.62368 0.58979 0.89807 0.0
C319 C 0.61888 0.63587 0.81537 0.0
C320 C 0.60599 0.56735 0.93512 0.0
C321 C 0.56594 0.56835 0.93195 0.0
C322 C 0.60117 0.61304 0.85684 0.0
C323 C 0.54446 0.592 0.89019 0.0
C324 C 0.59602 0.65405 0.77051 0.0
C325 C 0.67544 0.6565 0.78133 0.0
N326 N 0.56232 0.6133 0.85425 0.0
N327 N 0.65784 0.63805 0.81951 0.0
H328 H 0.85432 0.18806 0.20102 0.0
H329 H 0.91813 1.00072 0.40672 0.0
H330 H 0.83055 0.07466 0.17035 0.0
H331 H 0.98015 0.10644 0.40237 0.0
H332 H 0.87669 0.02871 0.32754 0.0
H333 H 0.89014 0.16006 0.28435 0.0
C334 C 0.85609 0.15728 0.21226 0.0
C335 C 0.83959 0.13358 0.17887 0.0
C336 C 0.89925 0.0458 0.34418 0.0
C337 C 0.88057 0.1015 0.27356 0.0
C338 C 0.92295 0.02986 0.38916 0.0
C339 C 0.9522 0.05158 0.41147 0.0
C340 C 0.90466 0.08381 0.3217 0.0
C341 C 0.95728 0.0891 0.3871 0.0
C342 C 0.8768 0.14136 0.25947 0.0
C343 C 0.84308 0.09386 0.19497 0.0
N344 N 0.93357 0.10417 0.34371 0.0
N345 N 0.86322 0.07903 0.2412 0.0
H346 H 0.37403 0.40504 0.48535 0.0
H347 H 0.3919 0.39732 0.78274 0.0
H348 H 0.36804 0.29918 0.59001 0.0
H349 H 0.40586 0.49859 0.67387 0.0
H350 H 0.38808 0.35918 0.71543 0.0
H351 H 0.38968 0.4382 0.55594 0.0
C352 C 0.37649 0.38855 0.52325 0.0
C353 C 0.37 0.34903 0.53148 0.0
C354 C 0.39249 0.38967 0.70651 0.0
C355 C 0.38715 0.38746 0.61337 0.0
C356 C 0.39497 0.41133 0.74493 0.0
C357 C 0.39885 0.45113 0.73359 0.0
C358 C 0.39397 0.40811 0.65667 0.0
C359 C 0.40239 0.46802 0.68402 0.0
C360 C 0.38523 0.40766 0.56376 0.0
C361 C 0.3725 0.32968 0.58173 0.0
N362 N 0.39955 0.44652 0.64745 0.0
N363 N 0.38075 0.3491 0.6208 0.0
H364 H 0.59969 0.67984 0.55966 0.0
H365 H 0.64825 0.57193 0.34468 0.0
H366 H 0.71527 0.66328 0.53587 0.0
H367 H 0.53657 0.57352 0.38803 0.0
H368 H 0.67266 0.61142 0.40754 0.0
H369 H 0.57547 0.64774 0.48932 0.0
C370 C 0.62 0.66958 0.53943 0.0
C371 C 0.65963 0.67379 0.55417 0.0
C372 C 0.64281 0.60317 0.4032 0.0
C373 C 0.63199 0.63696 0.47322 0.0
C374 C 0.62882 0.58076 0.36722 0.0
C375 C 0.59033 0.56922 0.36126 0.0
C376 C 0.61807 0.6144 0.43319 0.0
C377 C 0.56655 0.58123 0.39181 0.0
C378 C 0.60614 0.65125 0.49922 0.0
C379 C 0.68451 0.6607 0.52579 0.0
N380 N 0.58079 0.60313 0.42636 0.0
N381 N 0.6703 0.64256 0.48691 0.0
H382 H 0.89942 0.13882 0.04006 0.0
H383 H 0.8836 0.1286 0.74731 0.0
H384 H 0.79136 0.15046 0.93758 0.0
H385 H 0.98891 0.1193 0.85437 0.0
H386 H 0.84749 0.12858 0.81702 0.0
H387 H 0.93075 0.12414 0.97342 0.0
C388 C 0.88204 0.13775 0.0037 0.0
C389 C 0.84248 0.14569 0.99476 0.0
C390 C 0.87845 0.1259 0.8253 0.0
C391 C 0.87882 0.12977 0.91705 0.0
C392 C 0.89895 0.12558 0.78568 0.0
C393 C 0.93916 0.12404 0.79539 0.0
C394 C 0.8985 0.12463 0.87468 0.0
C395 C 0.95789 0.12067 0.84546 0.0
C396 C 0.90012 0.12961 0.96535 0.0
C397 C 0.82195 0.1449 0.94615 0.0
N398 N 0.93746 0.12137 0.88309 0.0
N399 N 0.84038 0.13726 0.90901 0.0
H400 H 0.3283 0.35528 0.30597 0.0
H401 H 0.51954 0.41129 0.19007 0.0
H402 H 0.44164 0.33026 0.39182 0.0
H403 H 0.41329 0.47418 0.13632 0.0
H404 H 0.48979 0.37216 0.25659 0.0
H405 H 0.35721 0.38862 0.23431 0.0
C406 C 0.35925 0.3562 0.30931 0.0
C407 C 0.38267 0.34007 0.35476 0.0
C408 C 0.4729 0.39433 0.22991 0.0
C409 C 0.41582 0.37815 0.27344 0.0
C410 C 0.48986 0.41674 0.19203 0.0
C411 C 0.46864 0.44571 0.15701 0.0
C412 C 0.4343 0.40062 0.2326 0.0
C413 C 0.43033 0.45148 0.16153 0.0
C414 C 0.37569 0.3755 0.26871 0.0
C415 C 0.42262 0.34246 0.35744 0.0
N416 N 0.4143 0.42902 0.1984 0.0
N417 N 0.43794 0.36115 0.31739 0.0
H418 H 0.17804 0.82846 0.88936 0.0
H419 H 0.09767 0.02029 0.70043 0.0
H420 H 0.1944 0.94091 0.92647 0.0
H421 H 0.06415 0.90697 0.67659 0.0
H422 H 0.13872 0.99208 0.77955 0.0
H423 H 0.14318 0.85722 0.80597 0.0
C424 C 0.17478 0.85923 0.87965 0.0
C425 C 0.18884 0.88232 0.91497 0.0
C426 C 0.12246 0.97341 0.75686 0.0
C427 C 0.14863 0.91537 0.82008 0.0
C428 C 0.09887 0.98951 0.71183 0.0
C429 C 0.07762 0.96597 0.68162 0.0
C430 C 0.12483 0.93349 0.77177 0.0
C431 C 0.08048 0.92624 0.69819 0.0
C432 C 0.1546 0.87561 0.83227 0.0
C433 C 0.18352 0.92203 0.90059 0.0
N434 N 0.10368 0.91127 0.74203 0.0
N435 N 0.16371 0.93728 0.85438 0.0
loop_
_geom_bond_atom_site_label_1
_geom_bond_atom_site_label_2
_geom_bond_distance
_geom_bond_site_symmetry_2
_ccdc_geom_bond_type
H0 C7 0.929 . S
H1 C10 0.930 . S
H2 C12 0.929 . S
H3 C4 0.969 . S
C4 H3 0.969 . S
C4 O5 1.550 . S
C4 H6 0.973 . S
O5 C4 1.550 . S
O5 C11 1.412 . S
H6 C4 0.973 . S
C7 H0 0.929 . S
C7 C8 1.400 1_554 S
C7 C9 1.364 . S
C8 C7 1.400 1_556 S
C8 C12 1.377 . S
C9 C7 1.364 . S
C9 C10 1.374 . S
C10 H1 0.930 . S
C10 C9 1.374 . S
C10 C11 1.383 . S
C11 O5 1.412 . S
C11 C10 1.383 . S
C11 C12 1.394 1_554 S
C12 H2 0.929 . S
C12 C8 1.377 . S
C12 C11 1.394 1_556 S
H13 C20 0.929 . S
H14 C23 0.930 . S
H15 C25 0.929 . S
H16 C17 0.969 . S
C17 H16 0.969 . S
C17 O18 1.550 . S
C17 H19 0.973 . S
O18 C17 1.550 . S
O18 C24 1.412 . S
H19 C17 0.973 . S
C20 H13 0.929 . S
C20 C21 1.400 . S
C20 C22 1.364 . S
C21 C20 1.400 . S
C21 C25 1.377 . S
C22 C20 1.364 . S
C22 C23 1.374 . S
C23 H14 0.930 . S
C23 C22 1.374 . S
C23 C24 1.383 . S
C24 O18 1.412 . S
C24 C23 1.383 . S
C24 C25 1.394 . S
C25 H15 0.929 . S
C25 C21 1.377 . S
C25 C24 1.394 . S
H26 C33 0.929 . S
H27 C36 0.930 1_556 S
H28 C38 0.929 . S
H29 C30 0.969 . S
C30 H29 0.969 . S
C30 O31 1.550 . S
C30 H32 0.973 1_554 S
O31 C30 1.550 . S
O31 C37 1.412 . S
H32 C30 0.973 1_556 S
C33 H26 0.929 . S
C33 C34 1.400 . S
C33 C35 1.364 . S
C34 C33 1.400 . S
C34 C38 1.377 . S
C35 C33 1.364 . S
C35 C36 1.374 . S
C36 H27 0.930 1_554 S
C36 C35 1.374 . S
C36 C37 1.383 . S
C37 O31 1.412 . S
C37 C36 1.383 . S
C37 C38 1.394 . S
C38 H28 0.929 . S
C38 C34 1.377 . S
C38 C37 1.394 . S
H39 C46 0.929 . S
H40 C49 0.930 . S
H41 C51 0.929 . S
H42 C43 0.969 . S
C43 H42 0.969 . S
C43 O44 1.550 . S
C43 H45 0.973 . S
O44 C43 1.550 . S
O44 C50 1.412 . S
H45 C43 0.973 . S
C46 H39 0.929 . S
C46 C47 1.400 . S
C46 C48 1.364 . S
C47 C46 1.400 . S
C47 C51 1.377 . S
C48 C46 1.364 . S
C48 C49 1.374 . S
C49 H40 0.930 . S
C49 C48 1.374 . S
C49 C50 1.383 . S
C50 O44 1.412 . S
C50 C49 1.383 . S
C50 C51 1.394 . S
C51 H41 0.929 . S
C51 C47 1.377 . S
C51 C50 1.394 . S
Eu52 N81 2.600 . S
Eu52 N87 2.562 . S
Eu52 O96 2.462 . S
Eu52 O97 2.373 . S
Eu52 O99 2.432 . S
Eu52 O100 2.291 1_565 S
Eu52 O104 2.335 1_465 S
Eu52 O107 2.372 1_455 S
Eu52 C116 2.787 . S
C53 N54 1.365 . S
C53 C56 1.405 . S
C53 C60 1.448 . S
N54 C53 1.365 . S
N54 C57 1.319 1_655 S
N54 Eu63 2.600 . S
C55 C57 1.397 . S
C55 C58 1.367 1_455 S
C55 H75 0.931 . S
C56 C53 1.405 . S
C56 C58 1.403 . S
C56 C62 1.439 . S
C57 N54 1.319 1_455 S
C57 C55 1.397 . S
C57 H68 0.930 . S
C58 C55 1.367 1_655 S
C58 C56 1.403 . S
C58 H79 0.929 . S
C59 C60 1.430 . S
C59 C61 1.387 . S
C59 C65 1.404 . S
C60 C53 1.448 . S
C60 C59 1.430 . S
C60 N64 1.351 . S
C61 C59 1.387 . S
C61 C62 1.374 . S
C61 H76 0.931 . S
C62 C56 1.439 . S
C62 C61 1.374 . S
C62 H77 0.931 . S
Eu63 N54 2.600 . S
Eu63 N64 2.562 . S
Eu63 O98 2.335 1_655 S
Eu63 O101 2.372 1_655 S
Eu63 O102 2.462 . S
Eu63 O103 2.373 . S
Eu63 O105 2.432 . S
Eu63 O106 2.291 1_545 S
Eu63 C127 2.787 . S
N64 C60 1.351 . S
N64 Eu63 2.562 . S
N64 C66 1.325 . S
C65 C59 1.404 . S
C65 C67 1.366 . S
C65 H73 0.930 . S
C66 N64 1.325 . S
C66 C67 1.416 . S
C66 H72 0.929 . S
C67 C65 1.366 . S
C67 C66 1.416 . S
C67 H69 0.930 . S
H68 C57 0.930 . S
H69 C67 0.930 . S
H70 C85 0.930 1_655 S
H71 C92 0.930 . S
H72 C66 0.929 . S
H73 C65 0.930 . S
H74 C88 0.929 . S
H75 C55 0.931 . S
H76 C61 0.931 . S
H77 C62 0.931 . S
H78 C83 0.931 1_655 S
H79 C58 0.929 . S
H80 C91 0.930 . S
N81 Eu52 2.600 . S
N81 C82 1.365 . S
N81 C85 1.319 . S
C82 N81 1.365 . S
C82 C84 1.405 . S
C82 C90 1.448 . S
C83 H78 0.931 1_455 S
C83 C85 1.397 . S
C83 C86 1.367 . S
C84 C82 1.405 . S
C84 C86 1.403 . S
C84 C117 1.439 . S
C85 H70 0.930 1_455 S
C85 N81 1.319 . S
C85 C83 1.397 . S
C86 C83 1.367 . S
C86 C84 1.403 . S
C86 H93 0.929 . S
N87 Eu52 2.562 . S
N87 C88 1.325 . S
N87 C90 1.351 . S
C88 H74 0.929 . S
C88 N87 1.325 . S
C88 C92 1.416 . S
C89 C90 1.430 . S
C89 C91 1.404 . S
C89 C118 1.387 . S
C90 C82 1.448 . S
C90 N87 1.351 . S
C90 C89 1.430 . S
C91 H80 0.930 . S
C91 C89 1.404 . S
C91 C92 1.366 . S
C92 H71 0.930 . S
C92 C88 1.416 . S
C92 C91 1.366 . S
H93 C86 0.929 . S
H94 C117 0.931 . S
H95 C118 0.931 . S
O96 Eu52 2.462 . S
O96 C116 1.252 . S
O97 Eu52 2.373 . S
O97 C108 1.249 . S
O98 Eu63 2.335 1_455 S
O98 C108 1.264 1_545 S
O99 Eu52 2.432 . S
O99 C116 1.268 . S
O100 Eu52 2.291 1_545 S
O100 C115 1.255 . S
O101 Eu63 2.372 1_455 S
O101 C115 1.257 . S
O102 Eu63 2.462 . S
O102 C127 1.252 . S
O103 Eu63 2.373 . S
O103 C119 1.249 . S
O104 Eu52 2.335 1_645 S
O104 C119 1.264 . S
O105 Eu63 2.432 . S
O105 C127 1.268 . S
O106 Eu63 2.291 1_565 S
O106 C126 1.255 . S
O107 Eu52 2.372 1_655 S
O107 C126 1.257 . S
C108 O97 1.249 . S
C108 O98 1.264 1_565 S
C109 C112 1.382 . S
C109 C114 1.390 . S
C109 C116 1.506 . S
C110 C111 1.398 . S
C110 C114 1.392 . S
C111 C110 1.398 . S
C111 C113 1.372 . S
C111 H128 0.931 . S
C112 C109 1.382 . S
C112 C113 1.390 . S
C112 H129 0.931 . S
C113 C111 1.372 . S
C113 C112 1.390 . S
C113 H130 0.929 . S
C114 C109 1.390 . S
C114 C110 1.392 . S
C114 H131 0.930 . S
C115 O100 1.255 . S
C115 O101 1.257 . S
C116 Eu52 2.787 . S
C116 O96 1.252 . S
C116 O99 1.268 . S
C116 C109 1.506 . S
C117 C84 1.439 . S
C117 H94 0.931 . S
C117 C118 1.374 . S
C118 C89 1.387 . S
C118 H95 0.931 . S
C118 C117 1.374 . S
C119 O103 1.249 . S
C119 O104 1.264 . S
C120 C123 1.382 . S
C120 C124 1.390 . S
C120 C127 1.506 . S
C121 C122 1.398 . S
C121 C124 1.392 . S
C122 C121 1.398 . S
C122 C125 1.372 . S
C122 H132 0.931 . S
C123 C120 1.382 . S
C123 C125 1.390 . S
C123 H133 0.931 . S
C124 C120 1.390 . S
C124 C121 1.392 . S
C124 H134 0.930 . S
C125 C122 1.372 . S
C125 C123 1.390 . S
C125 H135 0.929 . S
C126 O106 1.255 . S
C126 O107 1.257 . S
C127 Eu63 2.787 . S
C127 O102 1.252 . S
C127 O105 1.268 . S
C127 C120 1.506 . S
H128 C111 0.931 . S
H129 C112 0.931 . S
H130 C113 0.929 . S
H131 C114 0.930 . S
H132 C122 0.931 . S
H133 C123 0.931 . S
H134 C124 0.930 . S
H135 C125 0.929 . S
Eu136 N165 2.600 . S
Eu136 N171 2.562 1_556 S
Eu136 O180 2.462 . S
Eu136 O181 2.373 1_556 S
Eu136 O183 2.432 . S
Eu136 O184 2.291 1_556 S
Eu136 O188 2.335 . S
Eu136 O191 2.372 1_556 S
Eu136 C200 2.787 . S
C137 N138 1.365 . S
C137 C140 1.405 . S
C137 C144 1.448 . S
N138 C137 1.365 . S
N138 C141 1.319 . S
N138 Eu147 2.600 . S
C139 C141 1.397 . S
C139 C142 1.367 . S
C139 H159 0.931 . S
C140 C137 1.405 . S
C140 C142 1.403 . S
C140 C146 1.439 . S
C141 N138 1.319 . S
C141 C139 1.397 . S
C141 H152 0.930 . S
C142 C139 1.367 . S
C142 C140 1.403 . S
C142 H163 0.929 . S
C143 C144 1.430 . S
C143 C145 1.387 . S
C143 C149 1.404 . S
C144 C137 1.448 . S
C144 C143 1.430 . S
C144 N148 1.351 . S
C145 C143 1.387 . S
C145 C146 1.374 . S
C145 H160 0.931 . S
C146 C140 1.439 . S
C146 C145 1.374 . S
C146 H161 0.931 . S
Eu147 N138 2.600 . S
Eu147 N148 2.562 . S
Eu147 O182 2.335 . S
Eu147 O185 2.372 . S
Eu147 O186 2.462 . S
Eu147 O187 2.373 . S
Eu147 O189 2.432 . S
Eu147 O190 2.291 . S
Eu147 C211 2.787 . S
N148 C144 1.351 . S
N148 Eu147 2.562 . S
N148 C150 1.325 . S
C149 C143 1.404 . S
C149 C151 1.366 . S
C149 H157 0.930 . S
C150 N148 1.325 . S
C150 C151 1.416 . S
C150 H156 0.929 . S
C151 C149 1.366 . S
C151 C150 1.416 . S
C151 H153 0.930 . S
H152 C141 0.930 . S
H153 C151 0.930 . S
H154 C169 0.930 . S
H155 C176 0.930 . S
H156 C150 0.929 . S
H157 C149 0.930 . S
H158 C172 0.929 . S
H159 C139 0.931 . S
H160 C145 0.931 . S
H161 C146 0.931 . S
H162 C167 0.931 . S
H163 C142 0.929 . S
H164 C175 0.930 . S
N165 Eu136 2.600 . S
N165 C166 1.365 1_556 S
N165 C169 1.319 . S
C166 N165 1.365 1_554 S
C166 C168 1.405 . S
C166 C174 1.448 . S
C167 H162 0.931 . S
C167 C169 1.397 . S
C167 C170 1.367 1_556 S
C168 C166 1.405 . S
C168 C170 1.403 . S
C168 C201 1.439 . S
C169 H154 0.930 . S
C169 N165 1.319 . S
C169 C167 1.397 . S
C170 C167 1.367 1_554 S
C170 C168 1.403 . S
C170 H177 0.929 . S
N171 Eu136 2.562 1_554 S
N171 C172 1.325 . S
N171 C174 1.351 . S
C172 H158 0.929 . S
C172 N171 1.325 . S
C172 C176 1.416 . S
C173 C174 1.430 . S
C173 C175 1.404 . S
C173 C202 1.387 . S
C174 C166 1.448 . S
C174 N171 1.351 . S
C174 C173 1.430 . S
C175 H164 0.930 . S
C175 C173 1.404 . S
C175 C176 1.366 . S
C176 H155 0.930 . S
C176 C172 1.416 . S
C176 C175 1.366 . S
H177 C170 0.929 . S
H178 C201 0.931 . S
H179 C202 0.931 . S
O180 Eu136 2.462 . S
O180 C200 1.252 . S
O181 Eu136 2.373 1_554 S
O181 C192 1.249 . S
O182 Eu147 2.335 . S
O182 C192 1.264 . S
O183 Eu136 2.432 . S
O183 C200 1.268 . S
O184 Eu136 2.291 1_554 S
O184 C199 1.255 . S
O185 Eu147 2.372 . S
O185 C199 1.257 . S
O186 Eu147 2.462 . S
O186 C211 1.252 . S
O187 Eu147 2.373 . S
O187 C203 1.249 1_554 S
O188 Eu136 2.335 . S
O188 C203 1.264 . S
O189 Eu147 2.432 . S
O189 C211 1.268 . S
O190 Eu147 2.291 . S
O190 C210 1.255 . S
O191 Eu136 2.372 1_554 S
O191 C210 1.257 . S
C192 O181 1.249 . S
C192 O182 1.264 . S
C193 C196 1.382 . S
C193 C198 1.390 . S
C193 C200 1.506 . S
C194 C195 1.398 . S
C194 C198 1.392 . S
C195 C194 1.398 . S
C195 C197 1.372 . S
C195 H212 0.931 . S
C196 C193 1.382 . S
C196 C197 1.390 . S
C196 H213 0.931 . S
C197 C195 1.372 . S
C197 C196 1.390 . S
C197 H214 0.929 . S
C198 C193 1.390 . S
C198 C194 1.392 . S
C198 H215 0.930 . S
C199 O184 1.255 . S
C199 O185 1.257 . S
C200 Eu136 2.787 . S
C200 O180 1.252 . S
C200 O183 1.268 . S
C200 C193 1.506 . S
C201 C168 1.439 . S
C201 H178 0.931 . S
C201 C202 1.374 . S
C202 C173 1.387 . S
C202 H179 0.931 . S
C202 C201 1.374 . S
C203 O187 1.249 1_556 S
C203 O188 1.264 . S
C204 C207 1.382 . S
C204 C208 1.390 . S
C204 C211 1.506 . S
C205 C206 1.398 . S
C205 C208 1.392 . S
C206 C205 1.398 . S
C206 C209 1.372 . S
C206 H216 0.931 . S
C207 C204 1.382 . S
C207 C209 1.390 . S
C207 H217 0.931 . S
C208 C204 1.390 . S
C208 C205 1.392 . S
C208 H218 0.930 . S
C209 C206 1.372 . S
C209 C207 1.390 . S
C209 H219 0.929 . S
C210 O190 1.255 . S
C210 O191 1.257 . S
C211 Eu147 2.787 . S
C211 O186 1.252 . S
C211 O189 1.268 . S
C211 C204 1.506 . S
H212 C195 0.931 . S
H213 C196 0.931 . S
H214 C197 0.929 . S
H215 C198 0.930 . S
H216 C206 0.931 . S
H217 C207 0.931 . S
H218 C208 0.930 . S
H219 C209 0.929 . S
H220 C226 0.930 . S
H221 C230 0.930 . S
H222 C235 0.929 . S
H223 C233 0.929 . S
H224 C228 0.929 . S
H225 C234 0.929 . S
C226 H220 0.930 . S
C226 C227 1.367 . S
C226 C234 1.378 . S
C227 C226 1.367 . S
C227 C235 1.433 . S
C228 H224 0.929 . S
C228 C230 1.378 . S
C228 C232 1.350 . S
C229 C232 1.463 . S
C229 C234 1.350 . S
C229 N237 1.427 . S
C230 H221 0.930 . S
C230 C228 1.378 . S
C230 C231 1.367 . S
C231 C230 1.367 . S
C231 C233 1.433 . S
C232 C228 1.350 . S
C232 C229 1.463 . S
C232 N236 1.427 . S
C233 H223 0.929 . S
C233 C231 1.433 . S
C233 N236 1.384 . S
C234 H225 0.929 . S
C234 C226 1.378 . S
C234 C229 1.350 . S
C235 H222 0.929 . S
C235 C227 1.433 . S
C235 N237 1.384 . S
N236 C232 1.427 . S
N236 C233 1.384 . S
N237 C229 1.427 . S
N237 C235 1.384 . S
H238 C244 0.930 . S
H239 C248 0.930 . S
H240 C253 0.929 . S
H241 C251 0.929 . S
H242 C246 0.929 . S
H243 C252 0.929 . S
C244 H238 0.930 . S
C244 C245 1.367 . S
C244 C252 1.378 . S
C245 C244 1.367 . S
C245 C253 1.433 . S
C246 H242 0.929 . S
C246 C248 1.378 . S
C246 C250 1.350 . S
C247 C250 1.463 . S
C247 C252 1.350 . S
C247 N255 1.427 . S
C248 H239 0.930 . S
C248 C246 1.378 . S
C248 C249 1.367 . S
C249 C248 1.367 . S
C249 C251 1.433 . S
C250 C246 1.350 . S
C250 C247 1.463 . S
C250 N254 1.427 . S
C251 H241 0.929 . S
C251 C249 1.433 . S
C251 N254 1.384 . S
C252 H243 0.929 . S
C252 C244 1.378 . S
C252 C247 1.350 . S
C253 H240 0.929 . S
C253 C245 1.433 . S
C253 N255 1.384 . S
N254 C250 1.427 . S
N254 C251 1.384 . S
N255 C247 1.427 . S
N255 C253 1.384 . S
H256 C262 0.930 . S
H257 C266 0.930 . S
H258 C271 0.929 . S
H259 C269 0.929 . S
H260 C264 0.929 . S
H261 C270 0.929 . S
C262 H256 0.930 . S
C262 C263 1.367 . S
C262 C270 1.378 . S
C263 C262 1.367 . S
C263 C271 1.433 . S
C264 H260 0.929 . S
C264 C266 1.378 . S
C264 C268 1.350 . S
C265 C268 1.463 . S
C265 C270 1.350 . S
C265 N273 1.427 . S
C266 H257 0.930 . S
C266 C264 1.378 . S
C266 C267 1.367 . S
C267 C266 1.367 . S
C267 C269 1.433 . S
C268 C264 1.350 . S
C268 C265 1.463 . S
C268 N272 1.427 . S
C269 H259 0.929 . S
C269 C267 1.433 . S
C269 N272 1.384 . S
C270 H261 0.929 . S
C270 C262 1.378 . S
C270 C265 1.350 . S
C271 H258 0.929 . S
C271 C263 1.433 . S
C271 N273 1.384 . S
N272 C268 1.427 . S
N272 C269 1.384 . S
N273 C265 1.427 . S
N273 C271 1.384 . S
H274 C280 0.930 . S
H275 C284 0.930 . S
H276 C289 0.929 . S
H277 C287 0.929 . S
H278 C282 0.929 . S
H279 C288 0.929 . S
C280 H274 0.930 . S
C280 C281 1.367 . S
C280 C288 1.378 . S
C281 C280 1.367 . S
C281 C289 1.433 1_554 S
C282 H278 0.929 . S
C282 C284 1.378 . S
C282 C286 1.350 1_556 S
C283 C286 1.463 . S
C283 C288 1.350 . S
C283 N291 1.427 1_554 S
C284 H275 0.930 . S
C284 C282 1.378 . S
C284 C285 1.367 1_556 S
C285 C284 1.367 1_554 S
C285 C287 1.433 . S
C286 C282 1.350 1_554 S
C286 C283 1.463 . S
C286 N290 1.427 . S
C287 H277 0.929 . S
C287 C285 1.433 . S
C287 N290 1.384 . S
C288 H279 0.929 . S
C288 C280 1.378 . S
C288 C283 1.350 . S
C289 H276 0.929 . S
C289 C281 1.433 1_556 S
C289 N291 1.384 . S
N290 C286 1.427 . S
N290 C287 1.384 . S
N291 C283 1.427 1_556 S
N291 C289 1.384 . S
H292 C298 0.930 . S
H293 C302 0.930 . S
H294 C307 0.929 . S
H295 C305 0.929 . S
H296 C300 0.929 . S
H297 C306 0.929 . S
C298 H292 0.930 . S
C298 C299 1.367 . S
C298 C306 1.378 . S
C299 C298 1.367 . S
C299 C307 1.433 . S
C300 H296 0.929 . S
C300 C302 1.378 . S
C300 C304 1.350 . S
C301 C304 1.463 . S
C301 C306 1.350 . S
C301 N309 1.427 . S
C302 H293 0.930 . S
C302 C300 1.378 . S
C302 C303 1.367 . S
C303 C302 1.367 . S
C303 C305 1.433 . S
C304 C300 1.350 . S
C304 C301 1.463 . S
C304 N308 1.427 . S
C305 H295 0.929 . S
C305 C303 1.433 . S
C305 N308 1.384 . S
C306 H297 0.929 . S
C306 C298 1.378 . S
C306 C301 1.350 . S
C307 H294 0.929 . S
C307 C299 1.433 . S
C307 N309 1.384 . S
N308 C304 1.427 . S
N308 C305 1.384 . S
N309 C301 1.427 . S
N309 C307 1.384 . S
H310 C316 0.930 . S
H311 C320 0.930 . S
H312 C325 0.929 . S
H313 C323 0.929 . S
H314 C318 0.929 . S
H315 C324 0.929 . S
C316 H310 0.930 . S
C316 C317 1.367 . S
C316 C324 1.378 . S
C317 C316 1.367 . S
C317 C325 1.433 . S
C318 H314 0.929 . S
C318 C320 1.378 . S
C318 C322 1.350 . S
C319 C322 1.463 . S
C319 C324 1.350 . S
C319 N327 1.427 . S
C320 H311 0.930 . S
C320 C318 1.378 . S
C320 C321 1.367 . S
C321 C320 1.367 . S
C321 C323 1.433 . S
C322 C318 1.350 . S
C322 C319 1.463 . S
C322 N326 1.427 . S
C323 H313 0.929 . S
C323 C321 1.433 . S
C323 N326 1.384 . S
C324 H315 0.929 . S
C324 C316 1.378 . S
C324 C319 1.350 . S
C325 H312 0.929 . S
C325 C317 1.433 . S
C325 N327 1.384 . S
N326 C322 1.427 . S
N326 C323 1.384 . S
N327 C319 1.427 . S
N327 C325 1.384 . S
H328 C334 0.930 . S
H329 C338 0.930 1_565 S
H330 C343 0.929 . S
H331 C341 0.929 . S
H332 C336 0.929 . S
H333 C342 0.929 . S
C334 H328 0.930 . S
C334 C335 1.367 . S
C334 C342 1.378 . S
C335 C334 1.367 . S
C335 C343 1.433 . S
C336 H332 0.929 . S
C336 C338 1.378 . S
C336 C340 1.350 . S
C337 C340 1.463 . S
C337 C342 1.350 . S
C337 N345 1.427 . S
C338 H329 0.930 1_545 S
C338 C336 1.378 . S
C338 C339 1.367 . S
C339 C338 1.367 . S
C339 C341 1.433 . S
C340 C336 1.350 . S
C340 C337 1.463 . S
C340 N344 1.427 . S
C341 H331 0.929 . S
C341 C339 1.433 . S
C341 N344 1.384 . S
C342 H333 0.929 . S
C342 C334 1.378 . S
C342 C337 1.350 . S
C343 H330 0.929 . S
C343 C335 1.433 . S
C343 N345 1.384 . S
N344 C340 1.427 . S
N344 C341 1.384 . S
N345 C337 1.427 . S
N345 C343 1.384 . S
H346 C352 0.930 . S
H347 C356 0.930 . S
H348 C361 0.929 . S
H349 C359 0.929 . S
H350 C354 0.929 . S
H351 C360 0.929 . S
C352 H346 0.930 . S
C352 C353 1.367 . S
C352 C360 1.378 . S
C353 C352 1.367 . S
C353 C361 1.433 . S
C354 H350 0.929 . S
C354 C356 1.378 . S
C354 C358 1.350 . S
C355 C358 1.463 . S
C355 C360 1.350 . S
C355 N363 1.427 . S
C356 H347 0.930 . S
C356 C354 1.378 . S
C356 C357 1.367 . S
C357 C356 1.367 . S
C357 C359 1.433 . S
C358 C354 1.350 . S
C358 C355 1.463 . S
C358 N362 1.427 . S
C359 H349 0.929 . S
C359 C357 1.433 . S
C359 N362 1.384 . S
C360 H351 0.929 . S
C360 C352 1.378 . S
C360 C355 1.350 . S
C361 H348 0.929 . S
C361 C353 1.433 . S
C361 N363 1.384 . S
N362 C358 1.427 . S
N362 C359 1.384 . S
N363 C355 1.427 . S
N363 C361 1.384 . S
H364 C370 0.930 . S
H365 C374 0.930 . S
H366 C379 0.929 . S
H367 C377 0.929 . S
H368 C372 0.929 . S
H369 C378 0.929 . S
C370 H364 0.930 . S
C370 C371 1.367 . S
C370 C378 1.378 . S
C371 C370 1.367 . S
C371 C379 1.433 . S
C372 H368 0.929 . S
C372 C374 1.378 . S
C372 C376 1.350 . S
C373 C376 1.463 . S
C373 C378 1.350 . S
C373 N381 1.427 . S
C374 H365 0.930 . S
C374 C372 1.378 . S
C374 C375 1.367 . S
C375 C374 1.367 . S
C375 C377 1.433 . S
C376 C372 1.350 . S
C376 C373 1.463 . S
C376 N380 1.427 . S
C377 H367 0.929 . S
C377 C375 1.433 . S
C377 N380 1.384 . S
C378 H369 0.929 . S
C378 C370 1.378 . S
C378 C373 1.350 . S
C379 H366 0.929 . S
C379 C371 1.433 . S
C379 N381 1.384 . S
N380 C376 1.427 . S
N380 C377 1.384 . S
N381 C373 1.427 . S
N381 C379 1.384 . S
H382 C388 0.930 1_554 S
H383 C392 0.930 . S
H384 C397 0.929 . S
H385 C395 0.929 . S
H386 C390 0.929 . S
H387 C396 0.929 . S
C388 H382 0.930 1_556 S
C388 C389 1.367 . S
C388 C396 1.378 . S
C389 C388 1.367 . S
C389 C397 1.433 . S
C390 H386 0.929 . S
C390 C392 1.378 . S
C390 C394 1.350 . S
C391 C394 1.463 . S
C391 C396 1.350 . S
C391 N399 1.427 . S
C392 H383 0.930 . S
C392 C390 1.378 . S
C392 C393 1.367 . S
C393 C392 1.367 . S
C393 C395 1.433 . S
C394 C390 1.350 . S
C394 C391 1.463 . S
C394 N398 1.427 . S
C395 H385 0.929 . S
C395 C393 1.433 . S
C395 N398 1.384 . S
C396 H387 0.929 . S
C396 C388 1.378 . S
C396 C391 1.350 . S
C397 H384 0.929 . S
C397 C389 1.433 . S
C397 N399 1.384 . S
N398 C394 1.427 . S
N398 C395 1.384 . S
N399 C391 1.427 . S
N399 C397 1.384 . S
H400 C406 0.930 . S
H401 C410 0.930 . S
H402 C415 0.929 . S
H403 C413 0.929 . S
H404 C408 0.929 . S
H405 C414 0.929 . S
C406 H400 0.930 . S
C406 C407 1.367 . S
C406 C414 1.378 . S
C407 C406 1.367 . S
C407 C415 1.433 . S
C408 H404 0.929 . S
C408 C410 1.378 . S
C408 C412 1.350 . S
C409 C412 1.463 . S
C409 C414 1.350 . S
C409 N417 1.427 . S
C410 H401 0.930 . S
C410 C408 1.378 . S
C410 C411 1.367 . S
C411 C410 1.367 . S
C411 C413 1.433 . S
C412 C408 1.350 . S
C412 C409 1.463 . S
C412 N416 1.427 . S
C413 H403 0.929 . S
C413 C411 1.433 . S
C413 N416 1.384 . S
C414 H405 0.929 . S
C414 C406 1.378 . S
C414 C409 1.350 . S
C415 H402 0.929 . S
C415 C407 1.433 . S
C415 N417 1.384 . S
N416 C412 1.427 . S
N416 C413 1.384 . S
N417 C409 1.427 . S
N417 C415 1.384 . S
H418 C424 0.930 . S
H419 C428 0.930 1_545 S
H420 C433 0.929 . S
H421 C431 0.929 . S
H422 C426 0.929 . S
H423 C432 0.929 . S
C424 H418 0.930 . S
C424 C425 1.367 . S
C424 C432 1.378 . S
C425 C424 1.367 . S
C425 C433 1.433 . S
C426 H422 0.929 . S
C426 C428 1.378 . S
C426 C430 1.350 . S
C427 C430 1.463 . S
C427 C432 1.350 . S
C427 N435 1.427 . S
C428 H419 0.930 1_565 S
C428 C426 1.378 . S
C428 C429 1.367 . S
C429 C428 1.367 . S
C429 C431 1.433 . S
C430 C426 1.350 . S
C430 C427 1.463 . S
C430 N434 1.427 . S
C431 H421 0.929 . S
C431 C429 1.433 . S
C431 N434 1.384 . S
C432 H423 0.929 . S
C432 C424 1.378 . S
C432 C427 1.350 . S
C433 H420 0.929 . S
C433 C425 1.433 . S
C433 N435 1.384 . S
N434 C430 1.427 . S
N434 C431 1.384 . S
N435 C427 1.427 . S
N435 C433 1.384 . S
C231 C115 1.650 . S
C227 C43 1.578 . S
C245 C4 1.608 . S
C249 C210 1.643 . S
C263 C17 1.609 . S
C267 C126 1.650 . S
C281 C30 1.648 . S
C285 C199 1.645 . S
C303 C110 1.421 . S
C299 C9 1.574 . S
C321 C203 1.668 . S
C317 C21 1.666 . S
C335 C34 1.619 . S
C339 C119 1.628 . S
C353 C48 1.580 . S
C357 C194 1.423 . S
C375 C205 1.405 . S
C371 C22 1.580 . S
C393 C121 1.410 . S
C389 C35 1.572 1_556 S
C411 C192 1.671 . S
C407 C47 1.661 . S
C425 C8 1.614 . S
C429 C108 1.628 . S
