# Generated by pormake.
# Topology zzz, (3,6)-cn, num edge types: 1
# Building blocks:
#     Node 0, Type 0, BuildingBlock: INOVEN_clean_linker_0, # of connection points: 3
#     Node 1, Type 0, BuildingBlock: INOVEN_clean_linker_0, # of connection points: 3
#     Node 2, Type 0, BuildingBlock: INOVEN_clean_linker_0, # of connection points: 3
#     Node 3, Type 0, BuildingBlock: INOVEN_clean_linker_0, # of connection points: 3
#     Node 4, Type 0, BuildingBlock: INOVEN_clean_linker_0, # of connection points: 3
#     Node 5, Type 0, BuildingBlock: INOVEN_clean_linker_0, # of connection points: 3
#     Node 6, Type 0, BuildingBlock: INOVEN_clean_linker_0, # of connection points: 3
#     Node 7, Type 0, BuildingBlock: INOVEN_clean_linker_0, # of connection points: 3
#     Node 8, Type 1, BuildingBlock: JUFBIX_clean_sbu_0, # of connection points: 6
#     Node 9, Type 1, BuildingBlock: JUFBIX_clean_sbu_0, # of connection points: 6
#     Node 10, Type 1, BuildingBlock: JUFBIX_clean_sbu_0, # of connection points: 6
#     Node 11, Type 1, BuildingBlock: JUFBIX_clean_sbu_0, # of connection points: 6
#     Edge 12, Type (0, 1), BuildingBlock: AJUNOK_clean_linker_0, # of connection points: 2
#     Edge 13, Type (0, 1), BuildingBlock: AJUNOK_clean_linker_0, # of connection points: 2
#     Edge 14, Type (0, 1), BuildingBlock: AJUNOK_clean_linker_0, # of connection points: 2
#     Edge 15, Type (0, 1), BuildingBlock: AJUNOK_clean_linker_0, # of connection points: 2
#     Edge 16, Type (0, 1), BuildingBlock: AJUNOK_clean_linker_0, # of connection points: 2
#     Edge 17, Type (0, 1), BuildingBlock: AJUNOK_clean_linker_0, # of connection points: 2
#     Edge 18, Type (0, 1), BuildingBlock: AJUNOK_clean_linker_0, # of connection points: 2
#     Edge 19, Type (0, 1), BuildingBlock: AJUNOK_clean_linker_0, # of connection points: 2
#     Edge 20, Type (0, 1), BuildingBlock: AJUNOK_clean_linker_0, # of connection points: 2
#     Edge 21, Type (0, 1), BuildingBlock: AJUNOK_clean_linker_0, # of connection points: 2
#     Edge 22, Type (0, 1), BuildingBlock: AJUNOK_clean_linker_0, # of connection points: 2
#     Edge 23, Type (0, 1), BuildingBlock: AJUNOK_clean_linker_0, # of connection points: 2
#     Edge 24, Type (0, 1), BuildingBlock: AJUNOK_clean_linker_0, # of connection points: 2
#     Edge 25, Type (0, 1), BuildingBlock: AJUNOK_clean_linker_0, # of connection points: 2
#     Edge 26, Type (0, 1), BuildingBlock: AJUNOK_clean_linker_0, # of connection points: 2
#     Edge 27, Type (0, 1), BuildingBlock: AJUNOK_clean_linker_0, # of connection points: 2
#     Edge 28, Type (0, 1), BuildingBlock: AJUNOK_clean_linker_0, # of connection points: 2
#     Edge 29, Type (0, 1), BuildingBlock: AJUNOK_clean_linker_0, # of connection points: 2
#     Edge 30, Type (0, 1), BuildingBlock: AJUNOK_clean_linker_0, # of connection points: 2
#     Edge 31, Type (0, 1), BuildingBlock: AJUNOK_clean_linker_0, # of connection points: 2
#     Edge 32, Type (0, 1), BuildingBlock: AJUNOK_clean_linker_0, # of connection points: 2
#     Edge 33, Type (0, 1), BuildingBlock: AJUNOK_clean_linker_0, # of connection points: 2
#     Edge 34, Type (0, 1), BuildingBlock: AJUNOK_clean_linker_0, # of connection points: 2
#     Edge 35, Type (0, 1), BuildingBlock: AJUNOK_clean_linker_0, # of connection points: 2
# Relax obj value: 0.114
# Max RMSD: 0.174
# Mean RMSD: 0.084
data_MOF--net-zzz--node1-JUFBIX_clean_sbu_0--node2-INOVEN_clean_linker_0--edge1-AJUNOK_clean_linker_0
_symmetry_space_group_name_H-M    P1
_symmetry_Int_Tables_number       1
_symmetry_cell_setting            triclinic
loop_
_symmetry_equiv_pos_as_xyz
'x, y, z'
_cell_length_a     37.538626
_cell_length_b     37.357876
_cell_length_c     13.476357
_cell_angle_alpha  78.791776
_cell_angle_beta   90.27125
_cell_angle_gamma 91.491994
loop_
_atom_site_label
_atom_site_type_symbol
_atom_site_fract_x
_atom_site_fract_y
_atom_site_fract_z
_atom_type_partial_charge
H0 H 0.82441 0.53396 0.4453 0.0
H1 H 0.93272 0.5037 0.40729 0.0
H2 H 0.86065 0.51376 0.15764 0.0
N3 N 0.80311 0.5301 0.25457 0.0
N4 N 0.80017 0.54099 0.16122 0.0
C5 C 0.84502 0.52596 0.39866 0.0
C6 C 0.8797 0.5192 0.43765 0.0
C7 C 0.83771 0.52337 0.29721 0.0
C8 C 0.86546 0.51463 0.23651 0.0
C9 C 0.89972 0.50823 0.27564 0.0
C10 C 0.90612 0.50901 0.37681 0.0
H11 H 0.0481 0.76033 0.43802 0.0
H12 H 0.08938 0.87125 0.38818 0.0
H13 H 0.07522 0.81769 0.13804 0.0
N14 N 0.05438 0.75273 0.24185 0.0
N15 N 0.04537 0.75709 0.15087 0.0
C16 C 0.05939 0.78415 0.38821 0.0
C17 C 0.06845 0.816 0.42628 0.0
C18 C 0.0633 0.78417 0.28379 0.0
C19 C 0.07493 0.81655 0.21887 0.0
C20 C 0.0842 0.84795 0.25622 0.0
C21 C 0.08274 0.8466 0.36007 0.0
H22 H 0.8089 1.02322 0.32308 0.0
H23 H 0.70051 0.04537 0.23483 0.0
H24 H 0.78016 0.04965 0.00624 0.0
N25 N 0.83566 0.03262 0.13526 0.0
N26 N 0.84384 0.02877 0.04822 0.0
C27 C 0.78932 0.03129 0.26424 0.0
C28 C 0.75351 0.03501 0.29013 0.0
C29 C 0.79942 0.03689 0.16137 0.0
C30 C 0.77313 0.04599 0.0855 0.0
C31 C 0.73756 0.05012 0.11207 0.0
C32 C 0.72835 0.04456 0.21392 0.0
H33 H 0.54343 0.75217 0.34159 0.0
H34 H 0.5312 0.64637 0.26295 0.0
H35 H 0.53401 0.74173 0.02815 0.0
N36 N 0.54077 0.79096 0.15188 0.0
N37 N 0.54381 0.80574 0.06073 0.0
C38 C 0.53981 0.73551 0.28469 0.0
C39 C 0.53713 0.69723 0.31367 0.0
C40 C 0.53826 0.75213 0.18133 0.0
C41 C 0.53454 0.72977 0.10808 0.0
C42 C 0.53153 0.69171 0.13795 0.0
C43 C 0.5325 0.67591 0.24023 0.0
H44 H 0.26528 0.51898 0.18124 0.0
H45 H 0.15699 0.5393 0.25589 0.0
H46 H 0.24006 0.54531 0.47045 0.0
N47 N 0.29285 0.52546 0.36492 0.0
N48 N 0.2975 0.51237 0.4566 0.0
C49 C 0.24621 0.52659 0.23303 0.0
C50 C 0.20979 0.52972 0.20628 0.0
C51 C 0.25724 0.53173 0.32979 0.0
C52 C 0.23189 0.54118 0.39613 0.0
C53 C 0.19585 0.54334 0.37046 0.0
C54 C 0.18512 0.53836 0.27506 0.0
H55 H 0.04825 0.28859 0.19117 0.0
H56 H 1.00754 0.17747 0.23948 0.0
H57 H 1.02046 0.23082 0.49034 0.0
N58 N 0.0411 0.29597 0.38766 0.0
N59 N 0.04974 0.29153 0.47897 0.0
C60 C 0.03698 0.26468 0.24063 0.0
C61 C 0.02819 0.23283 0.2021 0.0
C62 C 0.03272 0.26454 0.34509 0.0
C63 C 1.02107 0.23205 0.40949 0.0
C64 C 1.01213 0.20068 0.37169 0.0
C65 C 1.01393 0.20211 0.26788 0.0
H66 H 0.28759 0.0308 0.29661 0.0
H67 H 0.39669 1.01399 0.38538 0.0
H68 H 0.31619 1.00611 0.61361 0.0
N69 N 0.26061 1.02097 0.48412 0.0
N70 N 0.25171 1.02477 0.57068 0.0
C71 C 0.30736 1.02397 0.35562 0.0
C72 C 0.34342 1.02177 0.32998 0.0
C73 C 0.29715 1.01827 0.45843 0.0
C74 C 0.32353 1.01044 0.53448 0.0
C75 C 0.35949 1.00833 0.50817 0.0
C76 C 0.36877 1.01385 0.40633 0.0
H77 H 0.55217 0.303 0.27401 0.0
H78 H 0.56363 0.40931 0.34997 0.0
H79 H 0.56258 0.31448 0.58645 0.0
N80 N 0.55532 0.26475 0.46469 0.0
N81 N 0.55292 0.25034 0.55629 0.0
C82 C 0.55559 0.31988 0.33041 0.0
C83 C 0.55772 0.35818 0.30062 0.0
C84 C 0.55755 0.30356 0.434 0.0
C85 C 0.5615 0.32622 0.50642 0.0
C86 C 0.56414 0.36425 0.4757 0.0
C87 C 0.56241 0.37978 0.37336 0.0
Co88 Co 0.05653 0.04599 0.856 0.0
C89 C 0.98714 1.0223 0.89958 0.0
Co90 Co 0.03956 1.00274 0.77168 0.0
C91 C 0.05622 0.11721 0.91427 0.0
C92 C 0.1017 0.08645 0.97111 0.0
N93 N 0.07183 0.08476 0.91644 0.0
N94 N 0.07515 0.13922 0.96544 0.0
C95 C 0.10361 0.11943 0.00214 0.0
H96 H 0.03114 0.12429 0.87664 0.0
H97 H 0.12059 0.06475 0.98908 0.0
C98 C 0.10867 0.02662 0.72619 0.0
N99 N 1.02429 0.96403 0.71131 0.0
C100 C 0.04001 0.93164 0.71367 0.0
C101 C 0.99444 0.96221 0.65662 0.0
N102 N 1.02119 0.90954 0.66267 0.0
C103 C 0.99266 0.92919 0.62583 0.0
C104 C 1.02431 0.07062 0.66974 0.0
O105 O 0.10198 0.0471 0.789 0.0
O106 O 0.08449 1.00455 0.70646 0.0
O107 O 1.0223 0.03733 0.66172 0.0
O108 O 0.0388 0.07965 0.74668 0.0
O109 O 0.99437 1.00167 0.83777 0.0
H110 H 0.97551 0.98386 0.63841 0.0
H111 H 0.06512 0.92468 0.75129 0.0
O112 O 1.01122 0.04417 0.92128 0.0
O113 O 0.07381 1.01135 0.96603 0.0
O114 O 0.05728 0.96908 0.88099 0.0
C115 C 0.07178 0.97806 0.95797 0.0
H116 H 0.1236 0.12705 0.05269 0.0
H117 H 0.97272 0.92143 0.5753 0.0
Co118 Co 0.53456 0.03428 0.87772 0.0
C119 C 0.54828 0.96095 0.89853 0.0
Co120 Co 0.56294 1.02227 0.74494 0.0
C121 C 0.47268 0.03375 0.00312 0.0
C122 C 0.51159 0.07369 0.02964 0.0
N123 N 0.50627 0.0463 0.97883 0.0
N124 N 0.45641 0.05281 0.06447 0.0
C125 C 0.48112 0.07759 0.08286 0.0
H126 H 0.45974 1.01197 0.97283 0.0
H127 H 0.53556 0.09063 0.02529 0.0
C128 C 0.54923 0.09555 0.72369 0.0
N129 N 0.59108 1.01019 0.64364 0.0
C130 C 0.62479 1.02237 0.61952 0.0
C131 C 0.58525 0.98328 0.59144 0.0
N132 N 0.64061 1.00356 0.55674 0.0
C133 C 0.61551 0.97931 0.53744 0.0
C134 C 0.49124 1.01689 0.7225 0.0
O135 O 0.53511 0.08404 0.81001 0.0
O136 O 0.56338 0.07265 0.67808 0.0
O137 O 0.51999 1.01347 0.67596 0.0
O138 O 0.49277 0.02564 0.8084 0.0
O139 O 0.5622 0.9726 0.81207 0.0
H140 H 0.56102 0.96675 0.5951 0.0
H141 H 0.63808 0.04378 0.65059 0.0
O142 O 0.53433 0.98379 0.94482 0.0
O143 O 0.5772 0.04346 0.94616 0.0
O144 O 0.60499 0.03077 0.81503 0.0
C145 C 0.6061 0.0403 0.90013 0.0
H146 H 0.47763 0.09708 0.13157 0.0
H147 H 0.61857 0.96018 0.48744 0.0
Co148 Co 0.57827 0.5311 0.81098 0.0
C149 C 0.54894 0.47417 0.95597 0.0
Co150 Co 0.51972 0.52471 0.80335 0.0
C151 C 0.64494 0.53759 0.914 0.0
C152 C 0.65245 0.53964 0.75551 0.0
N153 N 0.62708 0.53635 0.82723 0.0
N154 N 0.68053 0.54142 0.89942 0.0
C155 C 0.68525 0.54281 0.79952 0.0
H156 H 0.63188 0.53636 0.98602 0.0
H157 H 0.64739 0.53967 0.6764 0.0
C158 C 0.5493 0.58148 0.65807 0.0
N159 N 0.47093 0.51939 0.78666 0.0
C160 C 0.45324 0.51838 0.69945 0.0
C161 C 0.4455 0.51509 0.85842 0.0
N162 N 0.41772 0.51361 0.71391 0.0
C163 C 0.41283 0.51145 0.81405 0.0
C164 C 0.5403 0.57512 0.91584 0.0
O165 O 0.57886 0.57045 0.69756 0.0
O166 O 0.52078 0.56413 0.69059 0.0
O167 O 0.51282 0.55908 0.88796 0.0
O168 O 0.57099 0.56537 0.89427 0.0
O169 O 0.51922 0.48503 0.91697 0.0
H170 H 0.45044 0.51449 0.93787 0.0
H171 H 0.46635 0.52028 0.62722 0.0
O172 O 0.57726 0.49188 0.92365 0.0
O173 O 0.58513 0.49656 0.72663 0.0
O174 O 0.52695 0.49063 0.71987 0.0
C175 C 0.55758 0.48072 0.69851 0.0
H176 H 0.7107 0.54548 0.761 0.0
H177 H 0.38736 0.50776 0.85251 0.0
Co178 Co 0.04446 0.55326 0.81546 0.0
C179 C 0.10342 0.51895 0.91635 0.0
Co180 Co 0.04534 0.49337 0.82148 0.0
C181 C 0.04212 0.61711 0.90884 0.0
C182 C 0.04295 0.63156 0.74733 0.0
N183 N 0.04311 0.60256 0.82429 0.0
N184 N 0.04072 0.65395 0.8879 0.0
C185 C 0.04183 0.66304 0.78592 0.0
H186 H 0.04222 0.60096 0.98453 0.0
H187 H 0.04382 0.63001 0.66808 0.0
C188 C 0.98615 0.52772 0.72191 0.0
N189 N 0.04692 0.44416 0.81142 0.0
C190 C 0.04935 0.43019 0.72607 0.0
C191 C 0.04594 0.41476 0.88723 0.0
N192 N 0.05049 0.39333 0.74559 0.0
C193 C 0.04782 0.38363 0.84722 0.0
C194 C 1.00919 0.50871 0.97958 0.0
O195 O 1.00058 0.55685 0.74127 0.0
O196 O 1.00234 0.49779 0.74636 0.0
O197 O 1.01811 0.48185 0.94113 0.0
O198 O 1.01831 0.54096 0.93675 0.0
O199 O 0.08879 0.48966 0.89845 0.0
H200 H 0.04384 0.41581 0.96662 0.0
H201 H 0.05067 0.44678 0.65076 0.0
O202 O 0.08775 0.54903 0.88871 0.0
O203 O 0.07144 0.56472 0.69392 0.0
O204 O 0.07248 0.50548 0.70347 0.0
C205 C 0.08242 0.5374 0.66087 0.0
H206 H 0.04266 0.69048 0.74157 0.0
H207 H 0.04649 0.35598 0.89018 0.0
C208 C 0.20895 0.04021 0.68937 0.0
C209 C 0.2156 0.02642 0.60173 0.0
C210 C 0.17428 0.04107 0.72734 0.0
C211 C 0.14479 0.02733 0.68023 0.0
H212 H 0.23098 0.0503 0.72927 0.0
H213 H 0.17075 0.05177 0.79573 0.0
S214 S 0.14776 0.98785 0.44774 0.0
N215 N 0.18974 0.99885 0.4676 0.0
N216 N 0.12466 0.99969 0.53974 0.0
C217 C 0.15105 1.01344 0.59187 0.0
C218 C 0.18641 1.01315 0.55228 0.0
C219 C 0.55711 0.18601 0.53297 0.0
C220 C 0.55131 0.21197 0.59397 0.0
C221 C 0.55654 0.14832 0.57518 0.0
C222 C 0.54978 0.1354 0.6792 0.0
H223 H 0.56246 0.19479 0.45295 0.0
H224 H 0.56125 0.12921 0.52594 0.0
S225 S 0.53369 0.19326 0.8692 0.0
N226 N 0.5393 0.22264 0.76155 0.0
N227 N 0.53775 0.15247 0.84118 0.0
C228 C 0.5439 0.16145 0.73993 0.0
C229 C 0.54481 0.19951 0.6971 0.0
C230 C 0.33151 0.48643 0.60364 0.0
C231 C 0.3309 0.50875 0.50722 0.0
C232 C 0.36057 0.48707 0.66869 0.0
C233 C 0.39029 0.51042 0.64021 0.0
H234 H 0.30841 0.4694 0.63068 0.0
H235 H 0.35932 0.46985 0.74318 0.0
S236 S 0.4025 0.57393 0.39338 0.0
N237 N 0.36305 0.55419 0.38389 0.0
N238 N 0.41787 0.55579 0.50661 0.0
C239 C 0.39081 0.53194 0.54177 0.0
C240 C 0.36102 0.53111 0.47505 0.0
C241 C 0.03858 0.35403 0.50791 0.0
C242 C 0.05443 0.31978 0.5355 0.0
C243 C 0.03826 0.37848 0.57579 0.0
C244 C 0.05357 0.36941 0.67328 0.0
H245 H 1.02503 0.36125 0.43598 0.0
H246 H 1.02464 0.40397 0.55336 0.0
S247 S 0.10131 0.28417 0.77509 0.0
N248 N 0.08729 0.27892 0.66235 0.0
N249 N 0.088 0.32479 0.78798 0.0
C250 C 0.07091 0.33587 0.69861 0.0
C251 C 0.07096 0.31116 0.63013 0.0
C252 C 0.90935 0.03548 0.07015 0.0
C253 C 0.87956 0.02557 0.01642 0.0
C254 C 0.94417 0.03417 0.03238 0.0
C255 C 0.9504 1.0223 0.94088 0.0
H256 H 0.90573 0.04501 0.14024 0.0
H257 H 0.96635 0.04252 0.0751 0.0
S258 S 0.88083 0.99381 0.77308 0.0
N259 N 0.8583 1.00418 0.86817 0.0
N260 N 0.92327 1.00073 0.79811 0.0
C261 C 0.92066 1.01194 0.88786 0.0
C262 C 0.88542 1.01389 0.92546 0.0
C263 C 0.539 0.86978 0.08606 0.0
C264 C 0.54571 0.84419 0.02457 0.0
C265 C 0.53979 0.90759 0.04514 0.0
C266 C 0.54765 0.92099 0.94197 0.0
H267 H 0.53274 0.86064 0.16542 0.0
H268 H 0.53432 0.9264 0.09468 0.0
S269 S 0.56667 0.86413 0.75129 0.0
N270 N 0.5599 0.83433 0.85759 0.0
N271 N 0.56191 0.90467 0.7803 0.0
C272 C 0.55451 0.89526 0.88082 0.0
C273 C 0.55337 0.85711 0.92235 0.0
C274 C 0.76815 0.56551 0.00867 0.0
C275 C 0.76743 0.54479 0.10719 0.0
C276 C 0.73916 0.56537 0.94305 0.0
C277 C 0.70822 0.54403 0.97292 0.0
H278 H 0.79205 0.58106 0.98095 0.0
H279 H 0.74136 0.58151 0.86728 0.0
S280 S 0.69266 0.4847 0.22484 0.0
N281 N 0.73294 0.50276 0.23354 0.0
N282 N 0.67841 0.50186 0.10967 0.0
C283 C 0.70659 0.52391 0.07301 0.0
C284 C 0.73623 0.52434 0.14038 0.0
C285 C 0.05526 0.69421 0.12311 0.0
C286 C 0.0399 0.72869 0.09526 0.0
C287 C 0.05462 0.66943 0.05613 0.0
C288 C 0.03875 0.67837 0.95931 0.0
H289 H 0.06915 0.68702 0.19451 0.0
H290 H 0.06788 0.64375 0.07879 0.0
S291 S 0.99178 0.76416 0.85776 0.0
N292 N 1.00685 0.76966 0.96925 0.0
N293 N 1.00419 0.72318 0.84545 0.0
C294 C 1.02184 0.71217 0.93392 0.0
C295 C 1.02284 0.73723 0.00145 0.0
C296 C 0.02633 0.13467 0.42038 0.0
C297 C 1.0077 0.16478 0.44105 0.0
C298 C 0.02865 0.10241 0.49215 0.0
C299 C 1.01318 0.09955 0.5876 0.0
H300 H 0.0414 0.13674 0.35109 0.0
H301 H 0.04511 0.08084 0.4759 0.0
S302 S 0.95689 0.16724 0.67495 0.0
N303 N 0.96898 0.18702 0.55912 0.0
N304 N 0.97554 0.1269 0.69686 0.0
C305 C 0.99258 0.12812 0.60745 0.0
C306 C 0.98933 0.16066 0.53342 0.0
C307 C 0.41785 0.98214 0.57001 0.0
C308 C 0.38908 1.00446 0.58257 0.0
C309 C 0.45088 0.98608 0.61584 0.0
C310 C 0.45595 1.01165 0.67844 0.0
H311 H 0.41544 0.96305 0.51908 0.0
H312 H 0.47269 0.96944 0.60088 0.0
S313 S 0.38821 0.07357 0.74612 0.0
N314 N 0.3673 0.05122 0.66786 0.0
N315 N 0.4288 0.0573 0.7586 0.0
C316 C 0.42667 0.03206 0.69832 0.0
C317 C 0.39327 0.02862 0.64977 0.0
C318 C 0.59311 0.41573 0.54126 0.0
C319 C 0.56551 0.38912 0.54825 0.0
C320 C 0.59091 0.44494 0.59218 0.0
C321 C 0.56065 0.44885 0.64968 0.0
H322 H 0.61586 0.4147 0.49278 0.0
H323 H 0.61235 0.4653 0.58319 0.0
S324 S 0.48255 0.38465 0.69797 0.0
N325 N 0.50832 0.36707 0.62177 0.0
N326 N 0.50381 0.42193 0.71736 0.0
C327 C 0.5336 0.42146 0.66065 0.0
C328 C 0.53615 0.39154 0.61003 0.0
C329 C 0.1411 0.56981 0.43109 0.0
C330 C 0.16872 0.54451 0.44844 0.0
C331 C 0.1133 0.56838 0.50129 0.0
C332 C 0.11209 0.54102 0.58891 0.0
H333 H 0.14083 0.59043 0.36239 0.0
H334 H 0.09219 0.58792 0.48556 0.0
S335 S 0.17863 0.46936 0.67049 0.0
N336 N 0.19347 0.4921 0.56057 0.0
N337 N 0.14167 0.48949 0.69215 0.0
C338 C 0.14 0.51621 0.60786 0.0
C339 C 0.16823 0.5179 0.53756 0.0
C340 C 0.07039 0.9141 0.20773 0.0
C341 C 0.08861 0.88381 0.18656 0.0
C342 C 0.06802 0.94636 0.13591 0.0
C343 C 0.08302 0.94906 0.03992 0.0
H344 H 0.05565 0.9122 0.27752 0.0
H345 H 0.05187 0.96808 0.15268 0.0
S346 S 0.13826 0.88088 0.95104 0.0
N347 N 0.12655 0.86125 0.06732 0.0
N348 N 0.11988 0.92135 0.9296 0.0
C349 C 0.10326 0.92031 0.01954 0.0
C350 C 0.10656 0.88777 0.09358 0.0
C351 C 0.7031 0.02951 0.97423 0.0
C352 C 0.70806 0.05493 0.03767 0.0
C353 C 0.67019 0.02583 0.92727 0.0
C354 C 0.64107 0.04696 0.94385 0.0
H355 H 0.72385 1.01061 0.96657 0.0
H356 H 0.66698 1.00494 0.88205 0.0
S357 S 0.64249 0.12209 0.08709 0.0
N358 N 0.68298 0.10553 0.10126 0.0
N359 N 0.62068 0.09751 0.01597 0.0
C360 C 0.64645 0.07427 0.00071 0.0
C361 C 0.68015 0.07865 0.04643 0.0
C362 C 0.50323 0.64053 0.06956 0.0
C363 C 0.53089 0.66697 0.06494 0.0
C364 C 0.50602 0.61122 0.01929 0.0
C365 C 0.53693 0.60699 0.96474 0.0
H366 H 0.47993 0.64177 0.11583 0.0
H367 H 0.48444 0.59105 0.02642 0.0
S368 S 0.61563 0.67057 0.92359 0.0
N369 N 0.58897 0.68846 -0.00305 0.0
N370 N 0.59459 0.63341 0.90253 0.0
C371 C 0.56413 0.63417 0.95619 0.0
C372 C 0.56098 0.66422 0.00618 0.0
C373 C 0.92836 0.48024 0.14264 0.0
C374 C 0.92995 0.50514 0.20856 0.0
C375 C 0.95577 0.47942 0.07293 0.0
C376 C 0.9852 0.50378 0.0668 0.0
H377 H 0.90543 0.46197 0.1434 0.0
H378 H 0.9529 0.46116 0.01984 0.0
S379 S 1.00312 0.57238 0.22701 0.0
N380 N 0.96411 0.55361 0.26602 0.0
N381 N 1.01584 0.55125 0.13693 0.0
C382 C 0.98789 0.52747 0.13554 0.0
C383 C 0.96014 0.52841 0.20598 0.0
C384 C 1.01587 0.20767 0.04724 0.0
C385 C 0.03987 0.22625 0.10172 0.0
C386 C 0.02772 0.18119 -0.00516 0.0
C387 C 0.06417 0.17328 -0.00836 0.0
H388 H 0.98744 0.20955 0.05808 0.0
H389 H 1.00778 0.16455 0.96567 0.0
S390 S 0.13827 0.22635 0.08298 0.0
N391 N 0.10189 0.24263 0.1243 0.0
N392 N 0.12447 0.19528 0.01847 0.0
C393 C 0.0886 0.19707 0.02811 0.0
C394 C 0.07638 0.22332 0.08389 0.0
C395 C 0.37532 1.00322 0.1898 0.0
C396 C 0.35795 0.03103 0.22621 0.0
C397 C 0.40625 1.01085 0.1306 0.0
C398 C 0.42072 0.0466 0.10523 0.0
H399 H 0.36772 0.97491 0.21826 0.0
H400 H 0.42061 0.98816 0.11275 0.0
S401 S 0.37927 0.13005 0.15782 0.0
N402 N 0.35323 0.0962 0.21621 0.0
N403 N 0.41061 0.1109 0.10175 0.0
C404 C 0.40068 0.07513 0.12908 0.0
C405 C 0.36924 0.06726 0.18954 0.0
C406 C 0.52188 0.3927 0.1609 0.0
C407 C 0.55485 0.37799 0.1951 0.0
C408 C 0.51999 0.4231 0.08129 0.0
C409 C 0.55111 0.44022 0.03432 0.0
H410 H 0.49764 0.38238 0.20102 0.0
H411 H 0.49411 0.4343 0.06001 0.0
S412 S 0.64376 0.40944 0.09078 0.0
N413 N 0.61884 0.38069 0.17192 0.0
N414 N 0.6158 0.43754 0.02236 0.0
C415 C 0.58409 0.42415 0.06405 0.0
C416 C 0.58582 0.39309 0.14431 0.0
C417 C 0.17527 0.48978 0.11214 0.0
C418 C 0.19485 0.5226 0.11019 0.0
C419 C 0.14728 0.4877 0.0436 0.0
C420 C 0.13767 0.51861 0.97203 0.0
H421 H 0.17927 0.4667 0.17328 0.0
H422 H 0.13127 0.46273 0.05245 0.0
S423 S 0.18502 0.60884 0.92475 0.0
N424 N 0.20599 0.58483 0.02254 0.0
N425 N 0.15375 0.58122 0.89316 0.0
C426 C 0.15948 0.55037 0.96292 0.0
C427 C 0.18805 0.55228 0.0321 0.0
C428 C 0.08082 0.84153 0.58049 0.0
C429 C 0.05687 0.82272 0.52656 0.0
C430 C 0.06887 0.86796 0.63287 0.0
C431 C 0.03236 0.87555 0.6366 0.0
H432 H 0.10926 0.83987 0.56925 0.0
H433 H 0.08874 0.88481 0.66154 0.0
S434 S 0.95847 0.82185 0.54681 0.0
N435 N 0.9949 0.8058 0.50506 0.0
N436 N 0.97216 0.85309 0.61088 0.0
C437 C 1.00803 0.85155 0.60072 0.0
C438 C 1.02034 0.82535 0.54494 0.0
C439 C 0.7219 0.05289 0.43187 0.0
C440 C 0.73883 1.02522 0.39366 0.0
C441 C 0.69105 0.04525 0.49136 0.0
C442 C 0.6762 1.00962 0.51525 0.0
H443 H 0.72979 0.08121 0.40474 0.0
H444 H 0.67703 0.0679 0.51072 0.0
S445 S 0.71637 0.92636 0.45708 0.0
N446 N 0.74269 0.96017 0.39996 0.0
N447 N 0.68545 0.94542 0.51494 0.0
C448 C 0.69578 0.98113 0.48933 0.0
C449 C 0.72715 0.98901 0.42857 0.0
C450 C 0.5105 0.65884 0.46642 0.0
C451 C 0.54078 0.67715 0.41865 0.0
C452 C 0.51365 0.62857 0.54527 0.0
C453 C 0.54729 0.61522 0.57908 0.0
H454 H 0.48417 0.6663 0.43746 0.0
H455 H 0.4894 0.6147 0.57705 0.0
S456 S 0.63486 0.65582 0.48328 0.0
N457 N 0.60531 0.68157 0.41377 0.0
N458 N 0.61161 0.62493 0.56326 0.0
C459 C 0.57784 0.63481 0.53591 0.0
C460 C 0.57449 0.66572 0.45548 0.0
C461 C 0.91078 0.55852 0.53889 0.0
C462 C 0.89206 0.52546 0.53717 0.0
C463 C 0.93984 0.5599 0.6044 0.0
C464 C 0.95115 0.52817 0.66983 0.0
H465 H 0.90576 0.58235 0.48096 0.0
H466 H 0.9553 0.58516 0.59735 0.0
S467 S 0.90558 0.43708 0.71036 0.0
N468 N 0.88287 0.46215 0.61816 0.0
N469 N 0.93697 0.4645 0.74232 0.0
C470 C 0.9298 0.49615 0.67745 0.0
C471 C 0.90019 0.49494 0.6113 0.0
loop_
_geom_bond_atom_site_label_1
_geom_bond_atom_site_label_2
_geom_bond_distance
_geom_bond_site_symmetry_2
_ccdc_geom_bond_type
H0 C5 0.929 . S
H1 C10 0.931 . S
H2 C8 0.930 . S
N3 N4 1.234 . S
N3 C7 1.453 . S
N4 N3 1.234 . S
C5 H0 0.929 . S
C5 C6 1.373 . S
C5 C7 1.368 . S
C6 C5 1.373 . S
C6 C10 1.397 . S
C7 N3 1.453 . S
C7 C5 1.368 . S
C7 C8 1.373 . S
C8 H2 0.930 . S
C8 C7 1.373 . S
C8 C9 1.371 . S
C9 C8 1.371 . S
C9 C10 1.383 . S
C10 H1 0.931 . S
C10 C6 1.397 . S
C10 C9 1.383 . S
H11 C16 0.929 . S
H12 C21 0.931 . S
H13 C19 0.930 1_556 S
N14 N15 1.234 . S
N14 C18 1.453 . S
N15 N14 1.234 . S
C16 H11 0.929 . S
C16 C17 1.373 . S
C16 C18 1.368 . S
C17 C16 1.373 . S
C17 C21 1.397 . S
C18 N14 1.453 . S
C18 C16 1.368 . S
C18 C19 1.373 . S
C19 H13 0.930 1_554 S
C19 C18 1.373 . S
C19 C20 1.371 . S
C20 C19 1.371 . S
C20 C21 1.383 . S
C21 H12 0.931 . S
C21 C17 1.397 . S
C21 C20 1.383 . S
H22 C27 0.929 . S
H23 C32 0.931 . S
H24 C30 0.930 . S
N25 N26 1.218 1_544 S
N25 C29 1.453 . S
N26 N25 1.218 1_566 S
C27 H22 0.929 . S
C27 C28 1.373 . S
C27 C29 1.368 . S
C28 C27 1.373 . S
C28 C32 1.397 1_545 S
C29 N25 1.453 . S
C29 C27 1.368 . S
C29 C30 1.373 1_554 S
C30 H24 0.930 . S
C30 C29 1.373 1_556 S
C30 C31 1.373 1_556 S
C31 C30 1.373 1_554 S
C31 C32 1.386 1_545 S
C32 H23 0.931 . S
C32 C28 1.397 1_565 S
C32 C31 1.386 1_565 S
H33 C38 0.929 . S
H34 C43 0.931 . S
H35 C41 0.930 . S
N36 N37 1.234 . S
N36 C40 1.453 . S
N37 N36 1.234 . S
C38 H33 0.929 . S
C38 C39 1.373 . S
C38 C40 1.368 . S
C39 C38 1.373 . S
C39 C43 1.397 . S
C40 N36 1.453 . S
C40 C38 1.368 . S
C40 C41 1.373 . S
C41 H35 0.930 . S
C41 C40 1.373 . S
C41 C42 1.371 . S
C42 C41 1.371 . S
C42 C43 1.383 . S
C43 H34 0.931 . S
C43 C39 1.397 . S
C43 C42 1.383 . S
H44 C49 0.929 . S
H45 C54 0.931 . S
H46 C52 0.930 . S
N47 N48 1.234 . S
N47 C51 1.453 . S
N48 N47 1.234 . S
C49 H44 0.929 . S
C49 C50 1.373 . S
C49 C51 1.368 . S
C50 C49 1.373 . S
C50 C54 1.397 . S
C51 N47 1.453 . S
C51 C49 1.368 . S
C51 C52 1.373 . S
C52 H46 0.930 . S
C52 C51 1.373 . S
C52 C53 1.371 . S
C53 C52 1.371 . S
C53 C54 1.383 . S
C54 H45 0.931 . S
C54 C50 1.397 . S
C54 C53 1.383 . S
H55 C60 0.929 . S
H56 C65 0.931 . S
H57 C63 0.930 . S
N58 N59 1.234 . S
N58 C62 1.453 . S
N59 N58 1.234 . S
C60 H55 0.929 . S
C60 C61 1.373 . S
C60 C62 1.368 . S
C61 C60 1.373 . S
C61 C65 1.397 . S
C62 N58 1.453 . S
C62 C60 1.368 . S
C62 C63 1.373 . S
C63 H57 0.930 . S
C63 C62 1.373 . S
C63 C64 1.371 . S
C64 C63 1.371 . S
C64 C65 1.383 . S
C65 H56 0.931 . S
C65 C61 1.397 . S
C65 C64 1.383 . S
H66 C71 0.929 . S
H67 C76 0.931 . S
H68 C74 0.930 . S
N69 N70 1.231 1_545 S
N69 C73 1.453 . S
N70 N69 1.231 1_565 S
C71 H66 0.929 . S
C71 C72 1.373 . S
C71 C73 1.368 . S
C72 C71 1.373 . S
C72 C76 1.397 1_545 S
C73 N69 1.453 . S
C73 C71 1.368 . S
C73 C74 1.373 . S
C74 H68 0.930 . S
C74 C73 1.373 . S
C74 C75 1.376 . S
C75 C74 1.376 . S
C75 C76 1.375 1_545 S
C76 H67 0.931 . S
C76 C72 1.397 1_565 S
C76 C75 1.375 1_565 S
H77 C82 0.929 . S
H78 C87 0.931 . S
H79 C85 0.930 . S
N80 N81 1.234 . S
N80 C84 1.453 . S
N81 N80 1.234 . S
C82 H77 0.929 . S
C82 C83 1.373 . S
C82 C84 1.368 . S
C83 C82 1.373 . S
C83 C87 1.397 . S
C84 N80 1.453 . S
C84 C82 1.368 . S
C84 C85 1.373 . S
C85 H79 0.930 . S
C85 C84 1.373 . S
C85 C86 1.371 . S
C86 C85 1.371 . S
C86 C87 1.383 . S
C87 H78 0.931 . S
C87 C83 1.397 . S
C87 C86 1.383 . S
Co88 N93 2.057 1_556 S
Co88 O105 2.021 . S
Co88 O108 2.062 . S
Co88 O112 2.117 1_455 S
Co88 O113 2.020 1_545 S
C89 O109 1.259 1_545 S
C89 O112 1.258 . S
Co90 N99 2.057 . S
Co90 O106 2.117 . S
Co90 O107 2.020 1_565 S
Co90 O109 2.021 1_455 S
Co90 O114 2.062 . S
C91 N93 1.316 . S
C91 N94 1.347 . S
C91 H96 0.931 . S
C92 N93 1.375 . S
C92 C95 1.350 . S
C92 H97 0.930 1_455 S
N93 Co88 2.057 1_554 S
N93 C91 1.316 . S
N93 C92 1.375 . S
N94 C91 1.347 . S
N94 C95 1.373 . S
C95 C92 1.350 . S
C95 N94 1.373 . S
C95 H116 0.931 . S
H96 C91 0.931 . S
H97 C92 0.930 1_655 S
C98 O105 1.259 1_565 S
C98 O106 1.258 . S
N99 Co90 2.057 . S
N99 C100 1.316 1_455 S
N99 C101 1.375 . S
C100 N99 1.316 1_655 S
C100 N102 1.347 . S
C100 H111 0.931 . S
C101 N99 1.375 . S
C101 C103 1.350 . S
C101 H110 0.930 . S
N102 C100 1.347 . S
N102 C103 1.373 1_655 S
C103 C101 1.350 . S
C103 N102 1.373 1_455 S
C103 H117 0.931 . S
C104 O107 1.256 . S
C104 O108 1.255 . S
O105 Co88 2.021 . S
O105 C98 1.259 1_545 S
O106 Co90 2.117 . S
O106 C98 1.258 . S
O107 Co90 2.020 1_545 S
O107 C104 1.256 . S
O108 Co88 2.062 . S
O108 C104 1.255 . S
O109 C89 1.259 1_565 S
O109 Co90 2.021 1_655 S
H110 C101 0.930 . S
H111 C100 0.931 . S
O112 Co88 2.117 1_655 S
O112 C89 1.258 . S
O113 Co88 2.020 1_565 S
O113 C115 1.256 . S
O114 Co90 2.062 . S
O114 C115 1.255 . S
C115 O113 1.256 . S
C115 O114 1.255 . S
H116 C95 0.931 . S
H117 C103 0.931 . S
Co118 N123 2.057 1_546 S
Co118 O135 2.021 . S
Co118 O138 2.062 . S
Co118 O142 2.117 1_545 S
Co118 O143 2.020 . S
C119 O139 1.259 . S
C119 O142 1.258 . S
Co120 N129 2.057 1_565 S
Co120 O136 2.117 1_565 S
Co120 O137 2.020 . S
Co120 O139 2.021 . S
Co120 O144 2.062 . S
C121 N123 1.316 1_545 S
C121 N124 1.347 . S
C121 H126 0.931 . S
C122 N123 1.375 . S
C122 C125 1.350 . S
C122 H127 0.930 . S
N123 Co118 2.057 1_564 S
N123 C121 1.316 1_565 S
N123 C122 1.375 . S
N124 C121 1.347 . S
N124 C125 1.373 1_545 S
C125 C122 1.350 . S
C125 N124 1.373 1_565 S
C125 H146 0.931 . S
H126 C121 0.931 . S
H127 C122 0.930 . S
C128 O135 1.259 . S
C128 O136 1.258 . S
N129 Co120 2.057 1_545 S
N129 C130 1.316 1_545 S
N129 C131 1.375 . S
C130 N129 1.316 1_565 S
C130 N132 1.347 . S
C130 H141 0.931 . S
C131 N129 1.375 . S
C131 C133 1.350 . S
C131 H140 0.930 . S
N132 C130 1.347 . S
N132 C133 1.373 1_565 S
C133 C131 1.350 . S
C133 N132 1.373 1_545 S
C133 H147 0.931 . S
C134 O137 1.256 . S
C134 O138 1.255 1_565 S
O135 Co118 2.021 . S
O135 C128 1.259 . S
O136 Co120 2.117 1_545 S
O136 C128 1.258 . S
O137 Co120 2.020 . S
O137 C134 1.256 . S
O138 Co118 2.062 . S
O138 C134 1.255 1_545 S
O139 C119 1.259 . S
O139 Co120 2.021 . S
H140 C131 0.930 . S
H141 C130 0.931 . S
O142 Co118 2.117 1_565 S
O142 C119 1.258 . S
O143 Co118 2.020 . S
O143 C145 1.256 . S
O144 Co120 2.062 . S
O144 C145 1.255 1_565 S
C145 O143 1.256 . S
C145 O144 1.255 1_545 S
H146 C125 0.931 . S
H147 C133 0.931 . S
Co148 N153 2.057 . S
Co148 O165 2.021 . S
Co148 O168 2.062 . S
Co148 O172 2.117 . S
Co148 O173 2.020 . S
C149 O169 1.259 . S
C149 O172 1.258 . S
Co150 N159 2.057 . S
Co150 O166 2.117 . S
Co150 O167 2.020 . S
Co150 O169 2.021 . S
Co150 O174 2.062 . S
C151 N153 1.316 . S
C151 N154 1.347 . S
C151 H156 0.931 . S
C152 N153 1.375 . S
C152 C155 1.350 1_556 S
C152 H157 0.930 1_556 S
N153 Co148 2.057 . S
N153 C151 1.316 . S
N153 C152 1.375 . S
N154 C151 1.347 . S
N154 C155 1.373 1_556 S
C155 C152 1.350 1_554 S
C155 N154 1.373 1_554 S
C155 H176 0.931 . S
H156 C151 0.931 . S
H157 C152 0.930 1_554 S
C158 O165 1.259 . S
C158 O166 1.258 . S
N159 Co150 2.057 . S
N159 C160 1.316 . S
N159 C161 1.375 . S
C160 N159 1.316 . S
C160 N162 1.347 . S
C160 H171 0.931 . S
C161 N159 1.375 . S
C161 C163 1.350 . S
C161 H170 0.930 . S
N162 C160 1.347 . S
N162 C163 1.373 . S
C163 C161 1.350 . S
C163 N162 1.373 . S
C163 H177 0.931 . S
C164 O167 1.256 . S
C164 O168 1.255 . S
O165 Co148 2.021 . S
O165 C158 1.259 . S
O166 Co150 2.117 . S
O166 C158 1.258 . S
O167 Co150 2.020 . S
O167 C164 1.256 . S
O168 Co148 2.062 . S
O168 C164 1.255 . S
O169 C149 1.259 . S
O169 Co150 2.021 . S
H170 C161 0.930 . S
H171 C160 0.931 . S
O172 Co148 2.117 . S
O172 C149 1.258 . S
O173 Co148 2.020 . S
O173 C175 1.256 . S
O174 Co150 2.062 . S
O174 C175 1.255 . S
C175 O173 1.256 . S
C175 O174 1.255 . S
H176 C155 0.931 . S
H177 C163 0.931 . S
Co178 N183 2.057 . S
Co178 O195 2.021 1_455 S
Co178 O198 2.062 1_455 S
Co178 O202 2.117 . S
Co178 O203 2.020 . S
C179 O199 1.259 . S
C179 O202 1.258 . S
Co180 N189 2.057 . S
Co180 O196 2.117 1_455 S
Co180 O197 2.020 1_455 S
Co180 O199 2.021 . S
Co180 O204 2.062 . S
C181 N183 1.316 . S
C181 N184 1.347 . S
C181 H186 0.931 1_455 S
C182 N183 1.375 . S
C182 C185 1.350 . S
C182 H187 0.930 . S
N183 Co178 2.057 . S
N183 C181 1.316 . S
N183 C182 1.375 . S
N184 C181 1.347 . S
N184 C185 1.373 . S
C185 C182 1.350 . S
C185 N184 1.373 . S
C185 H206 0.931 . S
H186 C181 0.931 1_655 S
H187 C182 0.930 . S
C188 O195 1.259 . S
C188 O196 1.258 . S
N189 Co180 2.057 . S
N189 C190 1.316 . S
N189 C191 1.375 1_455 S
C190 N189 1.316 . S
C190 N192 1.347 . S
C190 H201 0.931 . S
C191 N189 1.375 1_655 S
C191 C193 1.350 1_655 S
C191 H200 0.930 . S
N192 C190 1.347 . S
N192 C193 1.373 . S
C193 C191 1.350 1_455 S
C193 N192 1.373 . S
C193 H207 0.931 1_455 S
C194 O197 1.256 . S
C194 O198 1.255 . S
O195 Co178 2.021 1_655 S
O195 C188 1.259 . S
O196 Co180 2.117 1_655 S
O196 C188 1.258 . S
O197 Co180 2.020 1_655 S
O197 C194 1.256 . S
O198 Co178 2.062 1_655 S
O198 C194 1.255 . S
O199 C179 1.259 . S
O199 Co180 2.021 . S
H200 C191 0.930 . S
H201 C190 0.931 . S
O202 Co178 2.117 . S
O202 C179 1.258 . S
O203 Co178 2.020 . S
O203 C205 1.256 . S
O204 Co180 2.062 . S
O204 C205 1.255 . S
C205 O203 1.256 . S
C205 O204 1.255 . S
H206 C185 0.931 . S
H207 C193 0.931 1_655 S
C208 C209 1.369 1_545 S
C208 C210 1.419 . S
C208 H212 0.930 . S
C209 C208 1.369 1_565 S
C209 C218 1.429 . S
C210 C208 1.419 . S
C210 C211 1.363 1_545 S
C210 H213 0.929 . S
C211 C210 1.363 1_565 S
C211 C217 1.428 . S
H212 C208 0.930 . S
H213 C210 0.929 . S
S214 N215 1.613 . S
S214 N216 1.610 . S
N215 S214 1.613 . S
N215 C218 1.350 . S
N216 S214 1.610 . S
N216 C217 1.351 . S
C217 C211 1.428 . S
C217 N216 1.351 . S
C217 C218 1.434 . S
C218 C209 1.429 . S
C218 N215 1.350 . S
C218 C217 1.434 . S
C219 C220 1.369 . S
C219 C221 1.419 . S
C219 H223 0.930 . S
C220 C219 1.369 . S
C220 C229 1.429 . S
C221 C219 1.419 . S
C221 C222 1.363 . S
C221 H224 0.929 . S
C222 C221 1.363 . S
C222 C228 1.428 . S
H223 C219 0.930 . S
H224 C221 0.929 . S
S225 N226 1.613 . S
S225 N227 1.610 . S
N226 S225 1.613 . S
N226 C229 1.350 . S
N227 S225 1.610 . S
N227 C228 1.351 . S
C228 C222 1.428 . S
C228 N227 1.351 . S
C228 C229 1.434 . S
C229 C220 1.429 . S
C229 N226 1.350 . S
C229 C228 1.434 . S
C230 C231 1.369 . S
C230 C232 1.419 . S
C230 H234 0.930 . S
C231 C230 1.369 . S
C231 C240 1.429 . S
C232 C230 1.419 . S
C232 C233 1.363 . S
C232 H235 0.929 . S
C233 C232 1.363 . S
C233 C239 1.428 . S
H234 C230 0.930 . S
H235 C232 0.929 . S
S236 N237 1.613 . S
S236 N238 1.610 . S
N237 S236 1.613 . S
N237 C240 1.350 . S
N238 S236 1.610 . S
N238 C239 1.351 . S
C239 C233 1.428 . S
C239 N238 1.351 . S
C239 C240 1.434 . S
C240 C231 1.429 . S
C240 N237 1.350 . S
C240 C239 1.434 . S
C241 C242 1.369 . S
C241 C243 1.419 . S
C241 H245 0.930 . S
C242 C241 1.369 . S
C242 C251 1.429 . S
C243 C241 1.419 . S
C243 C244 1.363 . S
C243 H246 0.929 . S
C244 C243 1.363 . S
C244 C250 1.428 . S
H245 C241 0.930 . S
H246 C243 0.929 . S
S247 N248 1.613 . S
S247 N249 1.610 . S
N248 S247 1.613 . S
N248 C251 1.350 . S
N249 S247 1.610 . S
N249 C250 1.351 . S
C250 C244 1.428 . S
C250 N249 1.351 . S
C250 C251 1.434 . S
C251 C242 1.429 . S
C251 N248 1.350 . S
C251 C250 1.434 . S
C252 C253 1.369 1_554 S
C252 C254 1.419 1_554 S
C252 H256 0.930 1_545 S
C253 C252 1.369 1_556 S
C253 C262 1.429 . S
C254 C252 1.419 1_556 S
C254 C255 1.363 . S
C254 H257 0.929 1_556 S
C255 C254 1.363 . S
C255 C261 1.428 . S
H256 C252 0.930 1_565 S
H257 C254 0.929 1_554 S
S258 N259 1.613 . S
S258 N260 1.610 . S
N259 S258 1.613 . S
N259 C262 1.350 . S
N260 S258 1.610 . S
N260 C261 1.351 . S
C261 C255 1.428 . S
C261 N260 1.351 . S
C261 C262 1.434 . S
C262 C253 1.429 . S
C262 N259 1.350 . S
C262 C261 1.434 . S
C263 C264 1.369 . S
C263 C265 1.419 . S
C263 H267 0.930 . S
C264 C263 1.369 . S
C264 C273 1.429 1_554 S
C265 C263 1.419 . S
C265 C266 1.363 1_554 S
C265 H268 0.929 . S
C266 C265 1.363 1_556 S
C266 C272 1.428 . S
H267 C263 0.930 . S
H268 C265 0.929 . S
S269 N270 1.613 . S
S269 N271 1.610 . S
N270 S269 1.613 . S
N270 C273 1.350 . S
N271 S269 1.610 . S
N271 C272 1.351 . S
C272 C266 1.428 . S
C272 N271 1.351 . S
C272 C273 1.434 . S
C273 C264 1.429 1_556 S
C273 N270 1.350 . S
C273 C272 1.434 . S
C274 C275 1.369 . S
C274 C276 1.419 1_554 S
C274 H278 0.930 . S
C275 C274 1.369 . S
C275 C284 1.429 . S
C276 C274 1.419 1_556 S
C276 C277 1.363 . S
C276 H279 0.929 . S
C277 C276 1.363 . S
C277 C283 1.428 1_556 S
H278 C274 0.930 . S
H279 C276 0.929 . S
S280 N281 1.613 . S
S280 N282 1.610 . S
N281 S280 1.613 . S
N281 C284 1.350 . S
N282 S280 1.610 . S
N282 C283 1.351 . S
C283 C277 1.428 1_554 S
C283 N282 1.351 . S
C283 C284 1.434 . S
C284 C275 1.429 . S
C284 N281 1.350 . S
C284 C283 1.434 . S
C285 C286 1.367 1_455 S
C285 C287 1.420 1_554 S
C285 H289 0.932 . S
C286 C285 1.367 1_655 S
C286 C295 1.429 1_554 S
C287 C285 1.420 1_556 S
C287 C288 1.363 1_455 S
C287 H290 0.929 . S
C288 C287 1.363 1_655 S
C288 C294 1.428 . S
H289 C285 0.932 . S
H290 C287 0.929 . S
S291 N292 1.613 . S
S291 N293 1.610 . S
N292 S291 1.613 . S
N292 C295 1.350 . S
N293 S291 1.610 . S
N293 C294 1.351 . S
C294 C288 1.428 . S
C294 N293 1.351 . S
C294 C295 1.434 . S
C295 C286 1.429 1_556 S
C295 N292 1.350 . S
C295 C294 1.434 . S
C296 C297 1.369 . S
C296 C298 1.419 . S
C296 H300 0.930 . S
C297 C296 1.369 . S
C297 C306 1.429 . S
C298 C296 1.419 . S
C298 C299 1.363 . S
C298 H301 0.929 . S
C299 C298 1.363 . S
C299 C305 1.428 . S
H300 C296 0.930 . S
H301 C298 0.929 . S
S302 N303 1.613 1_655 S
S302 N304 1.610 . S
N303 S302 1.613 1_455 S
N303 C306 1.350 . S
N304 S302 1.610 . S
N304 C305 1.351 1_655 S
C305 C299 1.428 . S
C305 N304 1.351 1_455 S
C305 C306 1.434 . S
C306 C297 1.429 . S
C306 N303 1.350 . S
C306 C305 1.434 . S
C307 C308 1.376 . S
C307 C309 1.419 . S
C307 H311 0.930 . S
C308 C307 1.376 . S
C308 C317 1.423 1_565 S
C309 C307 1.419 . S
C309 C310 1.363 . S
C309 H312 0.929 . S
C310 C309 1.363 . S
C310 C316 1.428 1_565 S
H311 C307 0.930 . S
H312 C309 0.929 . S
S313 N314 1.613 . S
S313 N315 1.610 . S
N314 S313 1.613 . S
N314 C317 1.350 . S
N315 S313 1.610 . S
N315 C316 1.351 . S
C316 C310 1.428 1_545 S
C316 N315 1.351 . S
C316 C317 1.434 . S
C317 C308 1.423 1_545 S
C317 N314 1.350 . S
C317 C316 1.434 . S
C318 C319 1.369 . S
C318 C320 1.419 . S
C318 H322 0.930 . S
C319 C318 1.369 . S
C319 C328 1.429 . S
C320 C318 1.419 . S
C320 C321 1.363 . S
C320 H323 0.929 . S
C321 C320 1.363 . S
C321 C327 1.428 . S
H322 C318 0.930 . S
H323 C320 0.929 . S
S324 N325 1.613 . S
S324 N326 1.610 . S
N325 S324 1.613 . S
N325 C328 1.350 . S
N326 S324 1.610 . S
N326 C327 1.351 . S
C327 C321 1.428 . S
C327 N326 1.351 . S
C327 C328 1.434 . S
C328 C319 1.429 . S
C328 N325 1.350 . S
C328 C327 1.434 . S
C329 C330 1.369 . S
C329 C331 1.419 . S
C329 H333 0.930 . S
C330 C329 1.369 . S
C330 C339 1.429 . S
C331 C329 1.419 . S
C331 C332 1.363 . S
C331 H334 0.929 . S
C332 C331 1.363 . S
C332 C338 1.428 . S
H333 C329 0.930 . S
H334 C331 0.929 . S
S335 N336 1.613 . S
S335 N337 1.610 . S
N336 S335 1.613 . S
N336 C339 1.350 . S
N337 S335 1.610 . S
N337 C338 1.351 . S
C338 C332 1.428 . S
C338 N337 1.351 . S
C338 C339 1.434 . S
C339 C330 1.429 . S
C339 N336 1.350 . S
C339 C338 1.434 . S
C340 C341 1.369 . S
C340 C342 1.419 . S
C340 H344 0.930 . S
C341 C340 1.369 . S
C341 C350 1.429 . S
C342 C340 1.419 . S
C342 C343 1.363 1_655 S
C342 H345 0.929 . S
C343 C342 1.363 1_455 S
C343 C349 1.428 . S
H344 C340 0.930 . S
H345 C342 0.929 . S
S346 N347 1.613 . S
S346 N348 1.610 1_554 S
N347 S346 1.613 . S
N347 C350 1.350 1_454 S
N348 S346 1.610 1_556 S
N348 C349 1.351 . S
C349 C343 1.428 . S
C349 N348 1.351 . S
C349 C350 1.434 1_455 S
C350 C341 1.429 . S
C350 N347 1.350 1_656 S
C350 C349 1.434 1_655 S
C351 C352 1.369 1_564 S
C351 C353 1.419 . S
C351 H355 0.930 . S
C352 C351 1.369 1_546 S
C352 C361 1.429 . S
C353 C351 1.419 . S
C353 C354 1.363 1_564 S
C353 H356 0.929 . S
C354 C353 1.363 1_546 S
C354 C360 1.428 . S
H355 C351 0.930 . S
H356 C353 0.929 . S
S357 N358 1.613 . S
S357 N359 1.610 . S
N358 S357 1.613 . S
N358 C361 1.350 . S
N359 S357 1.610 . S
N359 C360 1.351 . S
C360 C354 1.428 . S
C360 N359 1.351 . S
C360 C361 1.434 . S
C361 C352 1.429 . S
C361 N358 1.350 . S
C361 C360 1.434 . S
C362 C363 1.369 . S
C362 C364 1.419 . S
C362 H366 0.930 . S
C363 C362 1.369 . S
C363 C372 1.429 1_554 S
C364 C362 1.419 . S
C364 C365 1.363 1_554 S
C364 H367 0.929 . S
C365 C364 1.363 1_556 S
C365 C371 1.428 . S
H366 C362 0.930 . S
H367 C364 0.929 . S
S368 N369 1.613 . S
S368 N370 1.610 . S
N369 S368 1.613 . S
N369 C372 1.350 . S
N370 S368 1.610 . S
N370 C371 1.351 . S
C371 C365 1.428 . S
C371 N370 1.351 . S
C371 C372 1.434 . S
C372 C363 1.429 1_556 S
C372 N369 1.350 . S
C372 C371 1.434 . S
C373 C374 1.369 . S
C373 C375 1.419 1_554 S
C373 H377 0.930 . S
C374 C373 1.369 . S
C374 C383 1.429 . S
C375 C373 1.419 1_556 S
C375 C376 1.363 . S
C375 H378 0.929 . S
C376 C375 1.363 . S
C376 C382 1.428 1_556 S
H377 C373 0.930 . S
H378 C375 0.929 . S
S379 N380 1.613 . S
S379 N381 1.610 . S
N380 S379 1.613 . S
N380 C383 1.350 . S
N381 S379 1.610 . S
N381 C382 1.351 . S
C382 C376 1.428 1_554 S
C382 N381 1.351 . S
C382 C383 1.434 . S
C383 C374 1.429 . S
C383 N380 1.350 . S
C383 C382 1.434 . S
C384 C385 1.369 . S
C384 C386 1.419 . S
C384 H388 0.930 . S
C385 C384 1.369 . S
C385 C394 1.429 . S
C386 C384 1.419 . S
C386 C387 1.363 . S
C386 H389 0.929 . S
C387 C386 1.363 . S
C387 C393 1.428 . S
H388 C384 0.930 . S
H389 C386 0.929 . S
S390 N391 1.613 . S
S390 N392 1.610 . S
N391 S390 1.613 . S
N391 C394 1.350 . S
N392 S390 1.610 . S
N392 C393 1.351 . S
C393 C387 1.428 . S
C393 N392 1.351 . S
C393 C394 1.434 . S
C394 C385 1.429 . S
C394 N391 1.350 . S
C394 C393 1.434 . S
C395 C396 1.369 . S
C395 C397 1.419 . S
C395 H399 0.930 . S
C396 C395 1.369 . S
C396 C405 1.429 . S
C397 C395 1.419 . S
C397 C398 1.363 . S
C397 H400 0.929 . S
C398 C397 1.363 . S
C398 C404 1.428 . S
H399 C395 0.930 . S
H400 C397 0.929 . S
S401 N402 1.613 1_545 S
S401 N403 1.610 . S
N402 S401 1.613 1_565 S
N402 C405 1.350 1_565 S
N403 S401 1.610 . S
N403 C404 1.351 . S
C404 C398 1.428 . S
C404 N403 1.351 . S
C404 C405 1.434 . S
C405 C396 1.429 . S
C405 N402 1.350 1_545 S
C405 C404 1.434 . S
C406 C407 1.369 . S
C406 C408 1.419 . S
C406 H410 0.930 . S
C407 C406 1.369 . S
C407 C416 1.429 . S
C408 C406 1.419 . S
C408 C409 1.363 . S
C408 H411 0.929 . S
C409 C408 1.363 . S
C409 C415 1.428 . S
H410 C406 0.930 . S
H411 C408 0.929 . S
S412 N413 1.613 . S
S412 N414 1.610 . S
N413 S412 1.613 . S
N413 C416 1.350 . S
N414 S412 1.610 . S
N414 C415 1.351 . S
C415 C409 1.428 . S
C415 N414 1.351 . S
C415 C416 1.434 . S
C416 C407 1.429 . S
C416 N413 1.350 . S
C416 C415 1.434 . S
C417 C418 1.369 . S
C417 C419 1.419 . S
C417 H421 0.930 . S
C418 C417 1.369 . S
C418 C427 1.429 . S
C419 C417 1.419 . S
C419 C420 1.363 . S
C419 H422 0.929 . S
C420 C419 1.363 . S
C420 C426 1.428 . S
H421 C417 0.930 . S
H422 C419 0.929 . S
S423 N424 1.613 1_556 S
S423 N425 1.610 . S
N424 S423 1.613 1_554 S
N424 C427 1.350 . S
N425 S423 1.610 . S
N425 C426 1.351 1_556 S
C426 C420 1.428 . S
C426 N425 1.351 1_554 S
C426 C427 1.434 . S
C427 C418 1.429 . S
C427 N424 1.350 . S
C427 C426 1.434 . S
C428 C429 1.369 . S
C428 C430 1.419 1_655 S
C428 H432 0.930 1_655 S
C429 C428 1.369 . S
C429 C438 1.429 . S
C430 C428 1.419 1_455 S
C430 C431 1.363 1_455 S
C430 H433 0.929 . S
C431 C430 1.363 1_655 S
C431 C437 1.428 . S
H432 C428 0.930 1_455 S
H433 C430 0.929 . S
S434 N435 1.613 . S
S434 N436 1.610 . S
N435 S434 1.613 . S
N435 C438 1.350 . S
N436 S434 1.610 . S
N436 C437 1.351 . S
C437 C431 1.428 . S
C437 N436 1.351 . S
C437 C438 1.434 . S
C438 C429 1.429 . S
C438 N435 1.350 . S
C438 C437 1.434 . S
C439 C440 1.369 1_545 S
C439 C441 1.419 1_545 S
C439 H443 0.930 . S
C440 C439 1.369 1_565 S
C440 C449 1.429 . S
C441 C439 1.419 1_565 S
C441 C442 1.363 . S
C441 H444 0.929 . S
C442 C441 1.363 . S
C442 C448 1.428 . S
H443 C439 0.930 . S
H444 C441 0.929 . S
S445 N446 1.613 . S
S445 N447 1.610 . S
N446 S445 1.613 . S
N446 C449 1.350 . S
N447 S445 1.610 . S
N447 C448 1.351 . S
C448 C442 1.428 . S
C448 N447 1.351 . S
C448 C449 1.434 . S
C449 C440 1.429 . S
C449 N446 1.350 . S
C449 C448 1.434 . S
C450 C451 1.369 . S
C450 C452 1.419 . S
C450 H454 0.930 . S
C451 C450 1.369 . S
C451 C460 1.429 . S
C452 C450 1.419 . S
C452 C453 1.363 . S
C452 H455 0.929 . S
C453 C452 1.363 . S
C453 C459 1.428 . S
H454 C450 0.930 . S
H455 C452 0.929 . S
S456 N457 1.613 . S
S456 N458 1.610 . S
N457 S456 1.613 . S
N457 C460 1.350 . S
N458 S456 1.610 . S
N458 C459 1.351 . S
C459 C453 1.428 . S
C459 N458 1.351 . S
C459 C460 1.434 . S
C460 C451 1.429 . S
C460 N457 1.350 . S
C460 C459 1.434 . S
C461 C462 1.369 . S
C461 C463 1.419 . S
C461 H465 0.930 . S
C462 C461 1.369 . S
C462 C471 1.429 . S
C463 C461 1.419 . S
C463 C464 1.363 . S
C463 H466 0.929 . S
C464 C463 1.363 . S
C464 C470 1.428 . S
H465 C461 0.930 . S
H466 C463 0.929 . S
S467 N468 1.613 . S
S467 N469 1.610 . S
N468 S467 1.613 . S
N468 C471 1.350 . S
N469 S467 1.610 . S
N469 C470 1.351 . S
C470 C464 1.428 . S
C470 N469 1.351 . S
C470 C471 1.434 . S
C471 C462 1.429 . S
C471 N468 1.350 . S
C471 C470 1.434 . S
C209 N70 1.702 . S
C211 C98 1.714 . S
C222 C128 1.796 . S
C220 N81 1.767 . S
C233 N162 1.368 . S
C231 N48 1.386 . S
C244 N192 1.482 . S
C242 N59 1.450 . S
C255 C89 1.714 . S
C253 N26 1.703 1_545 S
C264 N37 1.775 . S
C266 C119 1.800 . S
C275 N4 1.391 . S
C277 N154 1.371 . S
C286 N15 1.468 . S
C288 N184 1.480 1_655 S
C299 C104 0.731 . S
C297 C64 0.732 . S
C310 C134 1.099 . S
C308 C75 1.021 1_565 S
C321 C175 1.356 . S
C319 C86 1.319 . S
C330 C53 0.851 . S
C332 C205 0.841 . S
C341 C20 0.722 1_556 S
C343 C115 0.738 . S
C354 C145 1.097 . S
C352 C31 1.025 1_556 S
C365 C164 1.356 . S
C363 C42 1.317 . S
C374 C9 0.844 . S
C376 C194 0.841 . S
C385 C61 1.475 . S
C387 N94 1.485 . S
C396 C72 1.425 . S
C398 N124 1.437 . S
C409 C149 1.666 1_554 S
C407 C83 1.637 . S
C420 C179 1.592 1_554 S
C418 C50 1.566 . S
C429 C17 1.462 . S
C431 N102 1.492 . S
C442 N132 1.437 . S
C440 C28 1.439 1_565 S
C453 C158 1.665 . S
C451 C39 1.636 . S
C462 C6 1.563 . S
C464 C188 1.592 . S
