# Generated by pormake.
# Topology zzz, (3,6)-cn, num edge types: 1
# Building blocks:
#     Node 0, Type 0, BuildingBlock: MIDCAF_clean_linker_0, # of connection points: 3
#     Node 1, Type 0, BuildingBlock: MIDCAF_clean_linker_0, # of connection points: 3
#     Node 2, Type 0, BuildingBlock: MIDCAF_clean_linker_0, # of connection points: 3
#     Node 3, Type 0, BuildingBlock: MIDCAF_clean_linker_0, # of connection points: 3
#     Node 4, Type 0, BuildingBlock: MIDCAF_clean_linker_0, # of connection points: 3
#     Node 5, Type 0, BuildingBlock: MIDCAF_clean_linker_0, # of connection points: 3
#     Node 6, Type 0, BuildingBlock: MIDCAF_clean_linker_0, # of connection points: 3
#     Node 7, Type 0, BuildingBlock: MIDCAF_clean_linker_0, # of connection points: 3
#     Node 8, Type 1, BuildingBlock: JUFBIX_clean_sbu_0, # of connection points: 6
#     Node 9, Type 1, BuildingBlock: JUFBIX_clean_sbu_0, # of connection points: 6
#     Node 10, Type 1, BuildingBlock: JUFBIX_clean_sbu_0, # of connection points: 6
#     Node 11, Type 1, BuildingBlock: JUFBIX_clean_sbu_0, # of connection points: 6
#     Edge 12, Type (0, 1), BuildingBlock: KIFKEQ_clean_linker_1, # of connection points: 2
#     Edge 13, Type (0, 1), BuildingBlock: KIFKEQ_clean_linker_1, # of connection points: 2
#     Edge 14, Type (0, 1), BuildingBlock: KIFKEQ_clean_linker_1, # of connection points: 2
#     Edge 15, Type (0, 1), BuildingBlock: KIFKEQ_clean_linker_1, # of connection points: 2
#     Edge 16, Type (0, 1), BuildingBlock: KIFKEQ_clean_linker_1, # of connection points: 2
#     Edge 17, Type (0, 1), BuildingBlock: KIFKEQ_clean_linker_1, # of connection points: 2
#     Edge 18, Type (0, 1), BuildingBlock: KIFKEQ_clean_linker_1, # of connection points: 2
#     Edge 19, Type (0, 1), BuildingBlock: KIFKEQ_clean_linker_1, # of connection points: 2
#     Edge 20, Type (0, 1), BuildingBlock: KIFKEQ_clean_linker_1, # of connection points: 2
#     Edge 21, Type (0, 1), BuildingBlock: KIFKEQ_clean_linker_1, # of connection points: 2
#     Edge 22, Type (0, 1), BuildingBlock: KIFKEQ_clean_linker_1, # of connection points: 2
#     Edge 23, Type (0, 1), BuildingBlock: KIFKEQ_clean_linker_1, # of connection points: 2
#     Edge 24, Type (0, 1), BuildingBlock: KIFKEQ_clean_linker_1, # of connection points: 2
#     Edge 25, Type (0, 1), BuildingBlock: KIFKEQ_clean_linker_1, # of connection points: 2
#     Edge 26, Type (0, 1), BuildingBlock: KIFKEQ_clean_linker_1, # of connection points: 2
#     Edge 27, Type (0, 1), BuildingBlock: KIFKEQ_clean_linker_1, # of connection points: 2
#     Edge 28, Type (0, 1), BuildingBlock: KIFKEQ_clean_linker_1, # of connection points: 2
#     Edge 29, Type (0, 1), BuildingBlock: KIFKEQ_clean_linker_1, # of connection points: 2
#     Edge 30, Type (0, 1), BuildingBlock: KIFKEQ_clean_linker_1, # of connection points: 2
#     Edge 31, Type (0, 1), BuildingBlock: KIFKEQ_clean_linker_1, # of connection points: 2
#     Edge 32, Type (0, 1), BuildingBlock: KIFKEQ_clean_linker_1, # of connection points: 2
#     Edge 33, Type (0, 1), BuildingBlock: KIFKEQ_clean_linker_1, # of connection points: 2
#     Edge 34, Type (0, 1), BuildingBlock: KIFKEQ_clean_linker_1, # of connection points: 2
#     Edge 35, Type (0, 1), BuildingBlock: KIFKEQ_clean_linker_1, # of connection points: 2
# Relax obj value: 0.292
# Max RMSD: 0.225
# Mean RMSD: 0.189
data_MOF--net-zzz--node1-JUFBIX_clean_sbu_0--node2-MIDCAF_clean_linker_0--edge1-KIFKEQ_clean_linker_1
_symmetry_space_group_name_H-M    P1
_symmetry_Int_Tables_number       1
_symmetry_cell_setting            triclinic
loop_
_symmetry_equiv_pos_as_xyz
'x, y, z'
_cell_length_a     58.022835
_cell_length_b     59.890059
_cell_length_c     23.094862
_cell_angle_alpha  82.694952
_cell_angle_beta   90.188341
_cell_angle_gamma 86.493576
loop_
_atom_site_label
_atom_site_type_symbol
_atom_site_fract_x
_atom_site_fract_y
_atom_site_fract_z
_atom_type_partial_charge
C0 C 0.82022 0.57134 0.43982 0.0
C1 C 0.81663 0.55627 0.49026 0.0
C2 C 0.79848 0.5417 0.49039 0.0
C3 C 0.78585 0.54053 0.43916 0.0
H4 H 0.71985 0.55836 0.27968 0.0
H5 H 0.68278 0.55621 0.22964 0.0
H6 H 0.71096 0.49874 0.15179 0.0
H7 H 0.74758 0.50085 0.20136 0.0
H8 H 0.80218 0.50126 0.16779 0.0
H9 H 0.83551 0.48981 0.11221 0.0
H10 H 0.8763 0.53666 0.18939 0.0
H11 H 0.84334 0.54733 0.24657 0.0
H12 H 0.81263 0.5801 0.34871 0.0
H13 H 0.83414 0.58265 0.43818 0.0
H14 H 0.79525 0.53001 0.52886 0.0
H15 H 0.77349 0.5277 0.43889 0.0
N16 N 0.76389 0.54234 0.31515 0.0
N17 N 0.77843 0.52775 0.23161 0.0
N18 N 0.80372 0.54101 0.29628 0.0
C19 C 0.76017 0.53326 0.26486 0.0
C20 C 0.80023 0.53164 0.24697 0.0
C21 C 0.78583 0.54628 0.33066 0.0
C22 C 0.73663 0.52987 0.24408 0.0
C23 C 0.71785 0.54496 0.253 0.0
C24 C 0.69673 0.54384 0.22402 0.0
C25 C 0.69397 0.52736 0.18655 0.0
C26 C 0.71238 0.51149 0.18072 0.0
C27 C 0.73346 0.5128 0.20886 0.0
C28 C 0.82013 0.52519 0.21158 0.0
C29 C 0.81828 0.50911 0.17279 0.0
C30 C 0.83739 0.50258 0.14084 0.0
C31 C 0.85868 0.51223 0.14641 0.0
C32 C 0.86038 0.52846 0.18493 0.0
C33 C 0.84139 0.53474 0.2174 0.0
C34 C 0.79146 0.55371 0.38709 0.0
C35 C 0.80788 0.56991 0.38855 0.0
C36 C 0.9817 0.81009 0.40232 0.0
C37 C 0.99609 0.80453 0.45194 0.0
C38 C 0.01384 0.78743 0.45071 0.0
C39 C 0.01834 0.77766 0.39952 0.0
H40 H 0.00179 0.7182 0.25619 0.0
H41 H 0.99352 0.68677 0.20174 0.0
H42 H 0.00937 0.72753 0.0406 0.0
H43 H 0.01733 0.75844 0.09366 0.0
H44 H 0.04273 0.80004 0.08963 0.0
H45 H 0.05509 0.83324 0.02978 0.0
H46 H 0.06046 0.86718 0.18318 0.0
H47 H 0.04727 0.83406 0.24324 0.0
H48 H 0.976 0.80626 0.31246 0.0
H49 H 0.96809 0.82335 0.40097 0.0
H50 H 0.02508 0.78249 0.48827 0.0
H51 H 0.03322 0.76591 0.3982 0.0
N52 N 0.00905 0.762 0.26625 0.0
N53 N 0.0278 0.77695 0.18125 0.0
N54 N 0.02551 0.7972 0.26109 0.0
C55 C 0.01612 0.76013 0.21061 0.0
C56 C 0.03267 0.79546 0.20602 0.0
C57 C 0.01391 0.7806 0.29149 0.0
C58 C 0.01031 0.74087 0.17953 0.0
C59 C 0.00333 0.72041 0.20912 0.0
C60 C 0.9987 0.70242 0.17802 0.0
C61 C 0.00058 0.70473 0.11677 0.0
C62 C 0.00732 0.72526 0.08756 0.0
C63 C 0.01213 0.74299 0.11834 0.0
C64 C 0.04358 0.81446 0.17123 0.0
C65 C 0.04684 0.81441 0.11095 0.0
C66 C 0.05418 0.83347 0.07652 0.0
C67 C 0.05863 0.85303 0.10149 0.0
C68 C 0.05678 0.85257 0.16235 0.0
C69 C 0.04927 0.83353 0.19681 0.0
C70 C 0.00498 0.7846 0.34902 0.0
C71 C 0.98618 0.80028 0.35142 0.0
C72 C 0.71201 0.94455 0.4223 0.0
C73 C 0.71081 0.96314 0.45397 0.0
C74 C 0.72591 0.98048 0.43935 0.0
C75 C 0.73998 0.9804 0.39017 0.0
H76 H 0.78182 0.00584 0.12473 0.0
H77 H 0.81838 0.00711 0.07384 0.0
H78 H 0.84576 0.94939 0.19023 0.0
H79 H 0.80875 0.94822 0.24229 0.0
H80 H 0.72704 0.98464 0.0787 0.0
H81 H 0.6933 0.99525 0.01577 0.0
H82 H 0.65143 0.00216 0.16774 0.0
H83 H 0.68481 0.99079 0.23048 0.0
H84 H 0.7245 0.93134 0.34555 0.0
H85 H 0.70053 0.93101 0.432 0.0
H86 H 0.72557 0.99491 0.46332 0.0
H87 H 0.74961 0.99506 0.37632 0.0
N88 N 0.76601 0.96895 0.27135 0.0
N89 N 0.75053 0.98073 0.17716 0.0
N90 N 0.72582 0.97356 0.25581 0.0
C91 C 0.76918 0.97523 0.21308 0.0
C92 C 0.72882 0.97993 0.19822 0.0
C93 C 0.74411 0.96802 0.29246 0.0
C94 C 0.79244 0.97692 0.18751 0.0
C95 C 0.79568 0.99353 0.14003 0.0
C96 C 0.81666 0.99432 0.11096 0.0
C97 C 0.8349 0.97835 0.12804 0.0
C98 C 0.8319 0.96185 0.1761 0.0
C99 C 0.81087 0.9613 0.20611 0.0
C100 C 0.70858 0.98671 0.15959 0.0
C101 C 0.71062 0.98843 0.09861 0.0
C102 C 0.69131 0.99466 0.06254 0.0
C103 C 0.66963 0.99952 0.0867 0.0
C104 C 0.66775 0.99812 0.14768 0.0
C105 C 0.68695 0.99166 0.18368 0.0
C106 C 0.73907 0.96307 0.35487 0.0
C107 C 0.72588 0.94462 0.37293 0.0
C108 C 0.44738 0.66558 0.11825 0.0
C109 C 0.448 0.6702 0.05716 0.0
C110 C 0.44976 0.69259 0.03142 0.0
C111 C 0.45244 0.70976 0.06613 0.0
H112 H 0.47748 0.77162 0.05772 0.0
H113 H 0.48044 0.80914 0.00686 0.0
H114 H 0.47265 0.83701 0.16992 0.0
H115 H 0.47058 0.79877 0.22175 0.0
H116 H 0.45575 0.73497 0.35891 0.0
H117 H 0.46413 0.70954 0.44941 0.0
H118 H 0.52159 0.67783 0.36523 0.0
H119 H 0.51352 0.70363 0.2767 0.0
H120 H 0.45062 0.67831 0.19992 0.0
H121 H 0.4462 0.64848 0.1394 0.0
H122 H 0.44998 0.69667 0.98437 0.0
H123 H 0.4548 0.72664 0.04487 0.0
N124 N 0.46241 0.74363 0.14051 0.0
N125 N 0.47702 0.75235 0.22969 0.0
N126 N 0.467 0.71552 0.22003 0.0
C127 C 0.47054 0.75899 0.17284 0.0
C128 C 0.47517 0.73046 0.25315 0.0
C129 C 0.46038 0.72194 0.1639 0.0
C130 C 0.47349 0.78219 0.14382 0.0
C131 C 0.47637 0.78569 0.08301 0.0
C132 C 0.47792 0.80734 0.05362 0.0
C133 C 0.47627 0.8263 0.08387 0.0
C134 C 0.47403 0.82282 0.14512 0.0
C135 C 0.47279 0.80094 0.17487 0.0
C136 C 0.48424 0.72141 0.31147 0.0
C137 C 0.47081 0.72326 0.36115 0.0
C138 C 0.4754 0.70839 0.41249 0.0
C139 C 0.49335 0.6913 0.41462 0.0
C140 C 0.50782 0.69082 0.36595 0.0
C141 C 0.50326 0.70567 0.31502 0.0
C142 C 0.45355 0.70481 0.12728 0.0
C143 C 0.45015 0.68269 0.15294 0.0
C144 C 0.1991 0.45078 0.06965 0.0
C145 C 0.19147 0.47041 0.03274 0.0
C146 C 0.19911 0.49128 0.04436 0.0
C147 C 0.2121 0.49273 0.09463 0.0
H148 H 0.28765 0.49559 0.2301 0.0
H149 H 0.32394 0.49787 0.28395 0.0
H150 H 0.29765 0.45562 0.43135 0.0
H151 H 0.26144 0.4539 0.37848 0.0
H152 H 0.20926 0.50871 0.37741 0.0
H153 H 0.1765 0.52137 0.43299 0.0
H154 H 0.13086 0.48712 0.33012 0.0
H155 H 0.16348 0.47565 0.27264 0.0
H156 H 0.21599 0.43721 0.15051 0.0
H157 H 0.19379 0.43442 0.0616 0.0
H158 H 0.19339 0.5068 0.01753 0.0
H159 H 0.21588 0.50923 0.10537 0.0
N160 N 0.24497 0.4739 0.21693 0.0
N161 N 0.23034 0.48207 0.30745 0.0
N162 N 0.2051 0.48136 0.22882 0.0
C163 C 0.24855 0.4767 0.27391 0.0
C164 C 0.20859 0.48449 0.28508 0.0
C165 C 0.22305 0.47607 0.19471 0.0
C166 C 0.27187 0.47458 0.30032 0.0
C167 C 0.28996 0.48637 0.27342 0.0
C168 C 0.31058 0.48778 0.30426 0.0
C169 C 0.31354 0.47691 0.36173 0.0
C170 C 0.29593 0.46397 0.38696 0.0
C171 C 0.27521 0.46304 0.35682 0.0
C172 C 0.18892 0.4912 0.32074 0.0
C173 C 0.19221 0.50388 0.36686 0.0
C174 C 0.17339 0.51108 0.39883 0.0
C175 C 0.15091 0.50535 0.38616 0.0
C176 C 0.14777 0.49237 0.34038 0.0
C177 C 0.16652 0.48558 0.3077 0.0
C178 C 0.21789 0.47338 0.13389 0.0
C179 C 0.21211 0.45229 0.12003 0.0
C180 C 0.99161 0.20586 0.13723 0.0
C181 C 0.01387 0.20525 0.1134 0.0
C182 C 0.03031 0.21885 0.13394 0.0
C183 C 0.02496 0.23166 0.17961 0.0
H184 H 0.00423 0.30673 0.27325 0.0
H185 H 0.01087 0.34139 0.31594 0.0
H186 H 0.03183 0.30125 0.47851 0.0
H187 H 0.02533 0.26711 0.43602 0.0
H188 H 0.98057 0.23426 0.475 0.0
H189 H 0.96652 0.20599 0.54962 0.0
H190 H 0.94642 0.16657 0.41582 0.0
H191 H 0.96015 0.19483 0.34109 0.0
H192 H 0.96941 0.21748 0.20215 0.0
H193 H 0.97853 0.19548 0.12328 0.0
H194 H 0.04755 0.21897 0.11613 0.0
H195 H 0.03831 0.24094 0.19681 0.0
N196 N 0.00818 0.25814 0.27763 0.0
N197 N 0.99291 0.25059 0.37197 0.0
N198 N 0.9866 0.22638 0.30288 0.0
C199 C 0.005 0.26389 0.33257 0.0
C200 C 0.98354 0.2319 0.35747 0.0
C201 C 0.99886 0.2392 0.2628 0.0
C202 C 0.01419 0.2843 0.35145 0.0
C203 C 0.011 0.30543 0.31739 0.0
C204 C 0.01458 0.32522 0.34207 0.0
C205 C 0.02172 0.32412 0.40085 0.0
C206 C 0.02657 0.30282 0.43306 0.0
C207 C 0.02273 0.2832 0.40877 0.0
C208 C 0.97189 0.21663 0.40202 0.0
C209 C 0.97276 0.21979 0.46129 0.0
C210 C 0.96475 0.20359 0.50414 0.0
C211 C 0.95557 0.184 0.48858 0.0
C212 C 0.95324 0.18158 0.42917 0.0
C213 C 0.96134 0.19771 0.38634 0.0
C214 C 0.00317 0.23085 0.20589 0.0
C215 C 0.98637 0.21843 0.18283 0.0
C216 C 0.27685 0.02199 0.11658 0.0
C217 C 0.27834 0.04354 0.08504 0.0
C218 C 0.2638 0.06147 0.10085 0.0
C219 C 0.25002 0.05839 0.15075 0.0
H220 H 0.17724 0.03339 0.29153 0.0
H221 H 0.14163 0.03695 0.34707 0.0
H222 H 0.17728 0.07252 0.46848 0.0
H223 H 0.21284 0.0679 0.41462 0.0
H224 H 0.26169 0.03345 0.46051 0.0
H225 H 0.29524 0.02416 0.52486 0.0
H226 H 0.33191 0.99515 0.38708 0.0
H227 H 0.29872 0.00481 0.32244 0.0
H228 H 0.26417 0.00264 0.19267 0.0
H229 H 0.28783 0.00777 0.10638 0.0
H230 H 0.26419 0.07821 0.07694 0.0
H231 H 0.24072 0.07289 0.16513 0.0
N232 N 0.22383 0.0436 0.26685 0.0
N233 N 0.2377 0.03558 0.36383 0.0
N234 N 0.26158 0.02793 0.2869 0.0
C235 C 0.22031 0.04327 0.32543 0.0
C236 C 0.25834 0.02777 0.34485 0.0
C237 C 0.24467 0.03584 0.24772 0.0
C238 C 0.19777 0.05018 0.34918 0.0
C239 C 0.1772 0.04245 0.32926 0.0
C240 C 0.15682 0.0445 0.36123 0.0
C241 C 0.15665 0.05457 0.41322 0.0
C242 C 0.17688 0.064 0.42987 0.0
C243 C 0.19723 0.0616 0.39865 0.0
C244 C 0.27761 0.02014 0.3861 0.0
C245 C 0.27682 0.02487 0.44414 0.0
C246 C 0.29601 0.01945 0.48113 0.0
C247 C 0.3163 0.00911 0.46084 0.0
C248 C 0.31669 0.00352 0.40362 0.0
C249 C 0.2976 0.00901 0.36664 0.0
C250 C 0.25067 0.03736 0.18548 0.0
C251 C 0.26323 0.01898 0.16624 0.0
C252 C 0.55766 0.35457 0.43243 0.0
C253 C 0.55265 0.35061 0.49216 0.0
C254 C 0.54694 0.3289 0.51617 0.0
C255 C 0.5447 0.31198 0.48043 0.0
H256 H 0.51129 0.2533 0.47463 0.0
H257 H 0.50375 0.21583 0.52168 0.0
H258 H 0.52146 0.18793 0.36311 0.0
H259 H 0.52892 0.22582 0.31527 0.0
H260 H 0.4942 0.29307 0.21554 0.0
H261 H 0.48598 0.31836 0.1245 0.0
H262 H 0.55544 0.34045 0.12769 0.0
H263 H 0.56343 0.31535 0.21755 0.0
H264 H 0.55842 0.34171 0.35042 0.0
H265 H 0.56196 0.37113 0.41245 0.0
H266 H 0.54335 0.32524 0.56229 0.0
H267 H 0.53925 0.29576 0.49992 0.0
N268 N 0.53518 0.27938 0.40178 0.0
N269 N 0.52583 0.27207 0.30692 0.0
N270 N 0.54044 0.30663 0.32211 0.0
C271 C 0.52746 0.26515 0.36558 0.0
C272 C 0.5325 0.29291 0.28521 0.0
C273 C 0.54179 0.30012 0.38034 0.0
C274 C 0.52078 0.24253 0.39122 0.0
C275 C 0.51338 0.23925 0.44943 0.0
C276 C 0.50891 0.21778 0.47638 0.0
C277 C 0.51203 0.19893 0.44614 0.0
C278 C 0.51903 0.20216 0.38752 0.0
C279 C 0.52313 0.22383 0.36007 0.0
C280 C 0.52947 0.30224 0.22323 0.0
C281 C 0.5079 0.30268 0.19523 0.0
C282 C 0.50313 0.31739 0.14365 0.0
C283 C 0.51998 0.33161 0.11904 0.0
C284 C 0.54211 0.32964 0.14487 0.0
C285 C 0.54673 0.31524 0.19647 0.0
C286 C 0.54806 0.31647 0.41991 0.0
C287 C 0.5554 0.3377 0.39673 0.0
Co288 Co 1.00017 0.03125 0.80132 0.0
C289 C 0.96466 1.00015 0.84321 0.0
Co290 Co 0.98803 0.99622 0.73193 0.0
C291 C 0.02235 0.06238 0.8611 0.0
C292 C 0.02018 0.03103 0.916 0.0
N293 N 0.01706 0.04077 0.86048 0.0
N294 N 0.02872 0.06665 0.9149 0.0
C295 C 0.0276 0.04675 0.94929 0.0
H296 H 0.01975 0.07504 0.82351 0.0
H297 H 0.0151 0.01435 0.93248 0.0
C298 C 0.0253 0.02647 0.69375 0.0
N299 N 0.98262 0.97371 0.68542 0.0
C300 C 0.98362 0.95086 0.69592 0.0
C301 C 0.98096 0.97838 0.62677 0.0
N302 N 0.98275 0.94139 0.64582 0.0
C303 C 0.98101 0.95868 0.60251 0.0
C304 C 0.96764 0.03201 0.70803 0.0
O305 O 0.02279 0.03724 0.73971 0.0
O306 O 0.01274 0.00988 0.68353 0.0
O307 O 0.96356 0.01531 0.68398 0.0
O308 O 0.98219 0.02737 0.74783 0.0
O309 O 0.96619 0.98937 0.79684 0.0
H310 H 0.98122 0.99508 0.60271 0.0
H311 H 0.98673 0.94139 0.73865 0.0
O312 O 0.97687 0.01731 0.85114 0.0
O313 O 0.0179 0.00285 0.82211 0.0
O314 O 0.00975 0.97646 0.7712 0.0
C315 C 0.02141 0.98284 0.81081 0.0
H316 H 0.02979 0.04414 0.99625 0.0
H317 H 0.98106 0.95709 0.55632 0.0
Co318 Co 0.48354 0.02216 0.79764 0.0
C319 C 0.48932 0.97631 0.83389 0.0
Co320 Co 0.50517 0.00402 0.73758 0.0
C321 C 0.44221 0.03333 0.85955 0.0
C322 C 0.46841 0.05623 0.86954 0.0
N323 N 0.46418 0.03762 0.84495 0.0
N324 N 0.43249 0.04854 0.892 0.0
C325 C 0.449 0.06292 0.89869 0.0
H326 H 0.43348 0.01927 0.84652 0.0
H327 H 0.4844 0.06464 0.86557 0.0
C328 C 0.49937 0.04986 0.70126 0.0
N329 N 0.52449 0.98846 0.69019 0.0
C330 C 0.54669 0.99214 0.67648 0.0
C331 C 0.51984 0.97013 0.66504 0.0
N332 N 0.55622 0.97673 0.64413 0.0
C333 C 0.5392 0.96293 0.63665 0.0
C334 C 0.45927 0.00642 0.70792 0.0
O335 O 0.48758 0.04956 0.74774 0.0
O336 O 0.50892 0.0315 0.68821 0.0
O337 O 0.479 0.99899 0.69266 0.0
O338 O 0.4577 0.01696 0.7522 0.0
O339 O 0.50112 0.97662 0.78746 0.0
H340 H 0.50353 0.96223 0.66798 0.0
H341 H 0.55582 0.00556 0.69149 0.0
O342 O 0.47978 0.99467 0.847 0.0
O343 O 0.50962 0.0271 0.84277 0.0
O344 O 0.53102 0.00924 0.78309 0.0
C345 C 0.52936 0.01962 0.82765 0.0
H346 H 0.44702 0.07759 0.92161 0.0
H347 H 0.54049 0.94858 0.61252 0.0
Co348 Co 0.51968 0.51404 0.78324 0.0
C349 C 0.5007 0.4771 0.84703 0.0
Co350 Co 0.48361 0.50956 0.75836 0.0
C351 C 0.55752 0.51801 0.86168 0.0
C352 C 0.56774 0.52303 0.77222 0.0
N353 N 0.54954 0.51816 0.80661 0.0
N354 N 0.57996 0.52277 0.8631 0.0
C355 C 0.58644 0.5259 0.80677 0.0
H356 H 0.54685 0.51505 0.89991 0.0
H357 H 0.56735 0.52465 0.72504 0.0
C358 C 0.50267 0.54648 0.69451 0.0
N359 N 0.45369 0.50561 0.73484 0.0
C360 C 0.44627 0.50341 0.68045 0.0
C361 C 0.43452 0.50488 0.76774 0.0
N362 N 0.42326 0.50147 0.67806 0.0
C363 C 0.41576 0.50247 0.73286 0.0
C364 C 0.48668 0.53758 0.8432 0.0
O365 O 0.52039 0.53993 0.72612 0.0
O366 O 0.48476 0.53521 0.70059 0.0
O367 O 0.47233 0.52881 0.8126 0.0
O368 O 0.50813 0.53286 0.83768 0.0
O369 O 0.48273 0.48379 0.81639 0.0
H370 H 0.43418 0.5061 0.81406 0.0
H371 H 0.45747 0.50367 0.643 0.0
O372 O 0.51866 0.48826 0.83998 0.0
O373 O 0.53108 0.49502 0.72842 0.0
O374 O 0.49522 0.49048 0.70467 0.0
C375 C 0.51668 0.48597 0.69855 0.0
H376 H 0.60351 0.52989 0.79153 0.0
H377 H 0.39803 0.50127 0.7468 0.0
Co378 Co 0.00632 0.5305 0.7718 0.0
C379 C 0.04351 0.49954 0.80651 0.0
Co380 Co 0.00186 0.4955 0.75293 0.0
C381 C 0.00066 0.5703 0.83296 0.0
C382 C 0.02763 0.57286 0.76997 0.0
N383 N 0.01114 0.55926 0.79155 0.0
N384 N 0.00995 0.59015 0.83776 0.0
C385 C 0.02684 0.59182 0.79791 0.0
H386 H 0.98666 0.56385 0.85965 0.0
H387 H 0.04005 0.56899 0.73735 0.0
C388 C 0.96461 0.52641 0.71872 0.0
N389 N 0.997 0.46685 0.73292 0.0
C390 C 0.00763 0.45594 0.69152 0.0
C391 C 0.97953 0.45395 0.7513 0.0
N392 N 0.99725 0.43702 0.68274 0.0
C393 C 0.97968 0.43567 0.7208 0.0
C394 C 0.98495 0.50327 0.86012 0.0
O395 O 0.97698 0.54088 0.73745 0.0
O396 O 0.97242 0.50599 0.72123 0.0
O397 O 0.98807 0.48814 0.8266 0.0
O398 O 0.99192 0.5228 0.84456 0.0
O399 O 0.03147 0.48531 0.78559 0.0
H400 H 0.96676 0.45808 0.78286 0.0
H401 H 0.02191 0.4624 0.66591 0.0
O402 O 0.03542 0.51983 0.80541 0.0
O403 O 0.02079 0.53757 0.69874 0.0
O404 O 0.0156 0.50336 0.67948 0.0
C405 C 0.02326 0.52262 0.66457 0.0
H406 H 0.03846 0.60537 0.79107 0.0
H407 H 0.96735 0.42272 0.72533 0.0
H408 H 0.15695 0.04746 0.53265 0.0
H409 H 0.11025 0.05854 0.38409 0.0
H410 H 0.12438 0.04352 0.59793 0.0
H411 H 0.0775 0.05405 0.4501 0.0
H412 H 0.03139 0.01329 0.58537 0.0
H413 H 0.06198 0.02263 0.51634 0.0
H414 H 0.09049 0.06456 0.63401 0.0
H415 H 0.05994 0.05508 0.70373 0.0
C416 C 0.13973 0.04952 0.51376 0.0
C417 C 0.13633 0.05348 0.4528 0.0
C418 C 0.12101 0.04718 0.55142 0.0
C419 C 0.09834 0.04851 0.52929 0.0
C420 C 0.0948 0.05273 0.46847 0.0
C421 C 0.11358 0.05525 0.43065 0.0
C422 C 0.04409 0.02459 0.59662 0.0
C423 C 0.04326 0.03328 0.6505 0.0
C424 C 0.06153 0.0301 0.55668 0.0
C425 C 0.0787 0.0443 0.56968 0.0
C426 C 0.07763 0.05339 0.62296 0.0
C427 C 0.06006 0.04802 0.66282 0.0
H428 H 0.47613 0.1852 0.51512 0.0
H429 H 0.54109 0.16111 0.44822 0.0
H430 H 0.47271 0.14881 0.57396 0.0
H431 H 0.53815 0.12483 0.50844 0.0
H432 H 0.51687 0.05568 0.59069 0.0
H433 H 0.51884 0.09082 0.52525 0.0
H434 H 0.48915 0.12774 0.65889 0.0
H435 H 0.48641 0.09258 0.72323 0.0
C436 C 0.48968 0.17206 0.51302 0.0
C437 C 0.50891 0.17603 0.47721 0.0
C438 C 0.48783 0.15123 0.54708 0.0
C439 C 0.5053 0.13387 0.54678 0.0
C440 C 0.52422 0.13765 0.5095 0.0
C441 C 0.52594 0.15846 0.47492 0.0
C442 C 0.51078 0.07132 0.60606 0.0
C443 C 0.50142 0.0713 0.66216 0.0
C444 C 0.512 0.09152 0.56858 0.0
C445 C 0.50404 0.11223 0.58644 0.0
C446 C 0.49497 0.11215 0.64295 0.0
C447 C 0.49357 0.09196 0.68016 0.0
H448 H 0.32928 0.51724 0.38064 0.0
H449 H 0.34231 0.44545 0.42672 0.0
H450 H 0.35801 0.52406 0.4533 0.0
H451 H 0.37132 0.45227 0.49883 0.0
H452 H 0.43514 0.47715 0.59058 0.0
H453 H 0.41102 0.47159 0.50662 0.0
H454 H 0.35639 0.51461 0.56766 0.0
H455 H 0.38033 0.51986 0.65175 0.0
C456 C 0.33874 0.50295 0.40523 0.0
C457 C 0.33363 0.48082 0.39812 0.0
C458 C 0.35501 0.50684 0.44705 0.0
C459 C 0.36675 0.48868 0.48177 0.0
C460 C 0.36258 0.46655 0.47241 0.0
C461 C 0.34599 0.46266 0.43134 0.0
C462 C 0.41804 0.48553 0.58563 0.0
C463 C 0.40952 0.49888 0.62762 0.0
C464 C 0.40426 0.48228 0.53788 0.0
C465 C 0.38192 0.49276 0.53064 0.0
C466 C 0.37363 0.50651 0.57195 0.0
C467 C 0.38721 0.50936 0.62024 0.0
H468 H 0.05308 0.33483 0.48073 0.0
H469 H 0.98928 0.35953 0.39139 0.0
H470 H 0.04824 0.36418 0.54473 0.0
H471 H 0.98485 0.38931 0.454 0.0
H472 H 0.96692 0.41295 0.6309 0.0
H473 H 0.97488 0.38845 0.5564 0.0
H474 H 0.04641 0.40463 0.55506 0.0
H475 H 0.03851 0.42882 0.63143 0.0
C476 C 0.03826 0.34681 0.47397 0.0
C477 C 0.02144 0.34465 0.43129 0.0
C478 C 0.03557 0.36374 0.51042 0.0
C479 C 0.01597 0.3789 0.50513 0.0
C480 C 0.99994 0.37764 0.45997 0.0
C481 C 0.00265 0.36074 0.42347 0.0
C482 C 0.9844 0.4112 0.61525 0.0
C483 C 0.00211 0.42274 0.63772 0.0
C484 C 0.98891 0.39738 0.57171 0.0
C485 C 0.01126 0.39466 0.54934 0.0
C486 C 0.02901 0.40628 0.57148 0.0
C487 C 0.02446 0.42025 0.61499 0.0
H488 H 0.85989 0.01469 0.09584 0.0
H489 H 0.85834 0.9436 0.08227 0.0
H490 H 0.8926 0.01728 0.03013 0.0
H491 H 0.89152 0.94608 0.01647 0.0
H492 H 0.92884 0.97201 0.83966 0.0
H493 H 0.89931 0.96426 0.91398 0.0
H494 H 0.93345 0.0047 0.02608 0.0
H495 H 0.96257 0.0126 0.95255 0.0
C496 C 0.86678 0.99954 0.07928 0.0
C497 C 0.85658 0.97896 0.09411 0.0
C498 C 0.8856 1.00098 0.04186 0.0
C499 C 0.89467 0.98187 0.01801 0.0
C500 C 0.88481 0.96111 0.03382 0.0
C501 C 0.86602 0.95964 0.07192 0.0
C502 C 0.93015 0.97903 0.88042 0.0
C503 C 0.94787 0.99327 0.88953 0.0
C504 C 0.91331 0.97451 0.9231 0.0
C505 C 0.91389 0.98413 0.97559 0.0
C506 C 0.93224 0.99741 0.98565 0.0
C507 C 0.94896 0.00192 0.9433 0.0
H508 H 0.45672 0.84151 0.97691 0.0
H509 H 0.49634 0.86368 0.11548 0.0
H510 H 0.45995 0.87789 0.91842 0.0
H511 H 0.49872 0.9006 0.05713 0.0
H512 H 0.47511 0.97047 0.94756 0.0
H513 H 0.47144 0.93482 0.01088 0.0
H514 H 0.49428 0.89805 0.87036 0.0
H515 H 0.49823 0.93353 0.80734 0.0
C516 C 0.46621 0.85407 0.99498 0.0
C517 C 0.47665 0.84939 0.05073 0.0
C518 C 0.46793 0.87498 0.96142 0.0
C519 C 0.47978 0.89197 0.98296 0.0
C520 C 0.48942 0.88778 0.03953 0.0
C521 C 0.48798 0.86666 0.07299 0.0
C522 C 0.47934 0.95477 0.93021 0.0
C523 C 0.48691 0.95482 0.87236 0.0
C524 C 0.47737 0.9344 0.96658 0.0
C525 C 0.48251 0.9137 0.94547 0.0
C526 C 0.49001 0.91377 0.88764 0.0
C527 C 0.49235 0.93409 0.85164 0.0
H528 H 0.66974 0.49164 0.16318 0.0
H529 H 0.6713 0.56397 0.1237 0.0
H530 H 0.63989 0.4916 0.0885 0.0
H531 H 0.64103 0.56401 0.04998 0.0
H532 H 0.61623 0.5488 0.86905 0.0
H533 H 0.64088 0.55085 0.95347 0.0
H534 H 0.59982 0.50348 0.05776 0.0
H535 H 0.57543 0.501 0.97258 0.0
C536 C 0.6634 0.50758 0.13924 0.0
C537 C 0.67302 0.52778 0.14905 0.0
C538 C 0.64618 0.50758 0.09672 0.0
C539 C 0.63826 0.52778 0.06283 0.0
C540 C 0.64701 0.54813 0.07478 0.0
C541 C 0.66415 0.54814 0.11753 0.0
C542 C 0.61248 0.53875 0.90987 0.0
C543 C 0.59394 0.52461 0.91388 0.0
C544 C 0.62644 0.54016 0.95854 0.0
C545 C 0.62228 0.52738 0.01246 0.0
C546 C 0.60355 0.51345 0.01677 0.0
C547 C 0.58948 0.51215 0.96808 0.0
H548 H 0.0156 0.66006 0.14058 0.0
H549 H 0.97636 0.70695 0.01452 0.0
H550 H 0.01431 0.63106 0.07492 0.0
H551 H 0.97519 0.67816 0.94913 0.0
H552 H 0.01224 0.63531 0.82029 0.0
H553 H 0.00628 0.66158 0.8919 0.0
H554 H 0.98939 0.60672 0.02169 0.0
H555 H 0.99563 0.58025 0.9495 0.0
C556 C 0.00624 0.66401 0.09954 0.0
C557 C 0.99641 0.68592 0.08236 0.0
C558 C 0.00552 0.64742 0.06189 0.0
C559 C 0.99498 0.65244 0.00638 0.0
C560 C 0.98387 0.6739 0.99103 0.0
C561 C 0.98454 0.69039 0.02854 0.0
C562 C 0.00716 0.62886 0.86399 0.0
C563 C 0.00447 0.60572 0.87925 0.0
C564 C 0.00353 0.64393 0.90496 0.0
C565 C 0.9973 0.63625 0.96252 0.0
C566 C 0.99427 0.61313 0.97775 0.0
C567 C 0.99764 0.59802 0.93635 0.0
H568 H 0.91886 0.15703 0.49662 0.0
H569 H 0.98321 0.16724 0.58101 0.0
H570 H 0.91588 0.12154 0.56057 0.0
H571 H 0.98063 0.13185 0.64353 0.0
H572 H 0.97197 0.06963 0.76094 0.0
H573 H 0.96297 0.10866 0.71893 0.0
H574 H 0.93583 0.0855 0.56393 0.0
H575 H 0.94391 0.04661 0.60717 0.0
C576 C 0.93216 0.15184 0.52943 0.0
C577 C 0.95132 0.16482 0.53362 0.0
C578 C 0.93052 0.13151 0.5659 0.0
C579 C 0.94813 0.12368 0.60684 0.0
C580 C 0.96653 0.13743 0.61326 0.0
C581 C 0.96806 0.15778 0.57722 0.0
C582 C 0.96358 0.07295 0.71846 0.0
C583 C 0.95886 0.05519 0.68692 0.0
C584 C 0.95854 0.09529 0.69423 0.0
C585 C 0.949 0.10028 0.63764 0.0
C586 C 0.94294 0.08236 0.60781 0.0
C587 C 0.94772 0.06003 0.63238 0.0
H588 H 0.31987 0.9936 0.57762 0.0
H589 H 0.36051 0.01662 0.42776 0.0
H590 H 0.35459 0.98989 0.63912 0.0
H591 H 0.39505 0.01282 0.48894 0.0
H592 H 0.45627 0.98774 0.60616 0.0
H593 H 0.42158 0.9852 0.54772 0.0
H594 H 0.38038 0.01638 0.67452 0.0
H595 H 0.4148 0.01862 0.73322 0.0
C596 C 0.3362 0.9978 0.55783 0.0
C597 C 0.33744 0.0054 0.49787 0.0
C598 C 0.35605 0.99565 0.59296 0.0
C599 C 0.37753 1.00105 0.5688 0.0
C600 C 0.37884 0.00815 0.50864 0.0
C601 C 0.35902 0.01033 0.4736 0.0
C602 C 0.43977 0.99386 0.62176 0.0
C603 C 0.4383 0.00352 0.67404 0.0
C604 C 0.41994 0.99248 0.58822 0.0
C605 C 0.39829 1.00065 0.6065 0.0
C606 C 0.39676 0.0097 0.65963 0.0
C607 C 0.41655 0.01113 0.69302 0.0
H608 H 0.51889 0.35931 0.56905 0.0
H609 H 0.5813 0.3855 0.49316 0.0
H610 H 0.51227 0.39292 0.61704 0.0
H611 H 0.57422 0.41965 0.54034 0.0
H612 H 0.56036 0.46657 0.68871 0.0
H613 H 0.57122 0.43353 0.63994 0.0
H614 H 0.50102 0.43276 0.57789 0.0
H615 H 0.49012 0.46543 0.6265 0.0
C616 C 0.53145 0.37206 0.56345 0.0
C617 C 0.55061 0.36974 0.52721 0.0
C618 C 0.52746 0.39147 0.59027 0.0
C619 C 0.54252 0.40905 0.58153 0.0
C620 C 0.56231 0.40637 0.54764 0.0
C621 C 0.56627 0.3869 0.52048 0.0
C622 C 0.54736 0.45954 0.66384 0.0
C623 C 0.52433 0.46845 0.66199 0.0
C624 C 0.55359 0.44064 0.63602 0.0
C625 C 0.53685 0.43035 0.60618 0.0
C626 C 0.51416 0.44003 0.60178 0.0
C627 C 0.50796 0.45886 0.62931 0.0
H628 H 0.15005 0.50918 0.50329 0.0
H629 H 0.10619 0.51737 0.34913 0.0
H630 H 0.117 0.51885 0.56167 0.0
H631 H 0.0729 0.52579 0.40892 0.0
H632 H 0.02418 0.49928 0.57066 0.0
H633 H 0.05394 0.4995 0.496 0.0
H634 H 0.08601 0.55306 0.56841 0.0
H635 H 0.05605 0.5532 0.64255 0.0
C636 C 0.13352 0.51338 0.4815 0.0
C637 C 0.13089 0.51239 0.42131 0.0
C638 C 0.11457 0.51886 0.51512 0.0
C639 C 0.09251 0.52311 0.48959 0.0
C640 C 0.08979 0.52251 0.42948 0.0
C641 C 0.10883 0.51745 0.39552 0.0
C642 C 0.0372 0.51155 0.56958 0.0
C643 C 0.0379 0.52613 0.61257 0.0
C644 C 0.05416 0.5117 0.52683 0.0
C645 C 0.07228 0.52617 0.52701 0.0
C646 C 0.07222 0.54169 0.56773 0.0
C647 C 0.05501 0.54184 0.60984 0.0
H648 H 0.08389 0.85887 1.00063 0.0
H649 H 0.0416 0.89563 0.11491 0.0
H650 H 0.08286 0.89241 0.92819 0.0
H651 H 0.0411 0.92903 0.0434 0.0
H652 H 0.03164 0.93887 0.79683 0.0
H653 H 0.04871 0.90937 0.86872 0.0
H654 H 0.06225 0.95894 0.98293 0.0
H655 H 0.04541 0.9887 0.9102 0.0
C656 C 0.07475 0.87417 0.01083 0.0
C657 C 0.06249 0.87439 0.06325 0.0
C658 C 0.07428 0.89339 0.96946 0.0
C659 C 0.06174 0.91327 0.97991 0.0
C660 C 0.05114 0.91405 0.03428 0.0
C661 C 0.05145 0.89482 0.07541 0.0
C662 C 0.03875 0.94363 0.8366 0.0
C663 C 0.03645 0.9661 0.84859 0.0
C664 C 0.0487 0.92669 0.87772 0.0
C665 C 0.05651 0.93181 0.93185 0.0
C666 C 0.05602 0.95449 0.94189 0.0
C667 C 0.04628 0.97152 0.90033 0.0
H668 H 0.62576 0.98637 0.10662 0.0
H669 H 0.66659 0.02608 0.98064 0.0
H670 H 0.59189 0.9954 0.04374 0.0
H671 H 0.63264 0.03453 0.91692 0.0
H672 H 0.57426 0.01231 0.79756 0.0
H673 H 0.60829 0.01061 0.86047 0.0
H674 H 0.56543 0.02896 0.00163 0.0
H675 H 0.53124 0.0307 0.93867 0.0
C676 C 0.62747 0.99729 0.06594 0.0
C677 C 0.64892 0.00552 0.04873 0.0
C678 C 0.60804 0.00245 0.02994 0.0
C679 C 0.60967 0.01573 0.97569 0.0
C680 C 0.631 0.02414 0.95848 0.0
C681 C 0.65042 0.01917 0.99479 0.0
C682 C 0.57212 0.0163 0.84177 0.0
C683 C 0.55008 0.02144 0.86342 0.0
C684 C 0.59162 0.01545 0.87761 0.0
C685 C 0.58942 0.01952 0.9359 0.0
C686 C 0.56751 0.02556 0.95692 0.0
C687 C 0.54801 0.02665 0.92085 0.0
H688 H 0.4777 0.66526 0.96839 0.0
H689 H 0.42318 0.63229 0.06611 0.0
H690 H 0.48503 0.63223 0.91829 0.0
H691 H 0.43088 0.59887 0.01614 0.0
H692 H 0.44234 0.55367 0.86171 0.0
H693 H 0.43052 0.58597 0.91249 0.0
H694 H 0.50171 0.59301 0.95785 0.0
H695 H 0.51357 0.56098 0.90767 0.0
C696 C 0.46694 0.65114 0.97829 0.0
C697 C 0.44987 0.65136 0.02124 0.0
C698 C 0.47135 0.63212 0.95014 0.0
C699 C 0.45875 0.61292 0.96409 0.0
C700 C 0.44085 0.61347 0.00477 0.0
C701 C 0.43654 0.63251 0.03342 0.0
C702 C 0.45541 0.56193 0.88326 0.0
C703 C 0.47891 0.55491 0.88021 0.0
C704 C 0.44862 0.58037 0.91225 0.0
C705 C 0.46526 0.59215 0.93808 0.0
C706 C 0.48859 0.58448 0.93724 0.0
C707 C 0.49534 0.56603 0.90881 0.0
H708 H 0.90448 0.50747 0.17893 0.0
H709 H 0.8587 0.50306 0.03315 0.0
H710 H 0.93772 0.50123 0.11712 0.0
H711 H 0.8919 0.49594 0.9726 0.0
H712 H 0.95576 0.46956 0.88753 0.0
H713 H 0.92665 0.46754 0.96393 0.0
H714 H 0.95242 0.52623 0.02692 0.0
H715 H 0.98139 0.52845 0.95041 0.0
C716 C 0.90145 0.50504 0.13394 0.0
C717 C 0.87886 0.50603 0.11091 0.0
C718 C 0.92049 0.50129 0.09881 0.0
C719 C 0.91732 0.49806 0.04029 0.0
C720 C 0.8948 0.49804 0.0179 0.0
C721 C 0.87577 0.5021 0.05271 0.0
C722 C 0.95559 0.4817 0.91856 0.0
C723 C 0.9707 0.49929 0.91273 0.0
C724 C 0.93885 0.48059 0.96199 0.0
C725 C 0.93723 0.49683 0.00085 0.0
C726 C 0.9534 0.51343 0.99766 0.0
C727 C 0.96991 0.51475 0.95375 0.0
H728 H 0.05396 0.17861 0.11023 0.0
H729 H 0.98779 0.19388 0.02344 0.0
H730 H 0.06146 0.14727 0.05377 0.0
H731 H 0.99463 0.16187 0.96962 0.0
H732 H 0.04907 0.075 0.01551 0.0
H733 H 0.04834 0.1106 0.05537 0.0
H734 H 0.01479 0.1441 0.89786 0.0
H735 H 0.01427 0.10828 0.8594 0.0
C736 C 0.04117 0.17558 0.07836 0.0
C737 C 0.02014 0.18869 0.07196 0.0
C738 C 0.04532 0.15733 0.04655 0.0
C739 C 0.02852 0.15167 0.00766 0.0
C740 C 0.0081 0.16566 0.99877 0.0
C741 C 0.00402 0.18394 0.03026 0.0
C742 C 0.0415 0.0899 0.98924 0.0
C743 C 0.03133 0.08843 0.93454 0.0
C744 C 0.04138 0.1105 0.01186 0.0
C745 C 0.03129 0.13035 0.98022 0.0
C746 C 0.0223 0.12914 0.9241 0.0
C747 C 0.02226 0.10849 0.90163 0.0
H748 H 0.30525 0.07982 0.06951 0.0
H749 H 0.29556 0.01619 0.00599 0.0
H750 H 0.34096 0.08315 0.0154 0.0
H751 H 0.33207 0.01881 0.95491 0.0
H752 H 0.39428 0.03473 0.84242 0.0
H753 H 0.35495 0.03624 0.87941 0.0
H754 H 0.37871 0.0659 0.02824 0.0
H755 H 0.41778 0.06481 0.99038 0.0
C756 C 0.31043 0.06673 0.04308 0.0
C757 C 0.29752 0.0476 0.04275 0.0
C758 C 0.33122 0.06844 0.01283 0.0
C759 C 0.33979 0.05101 0.98179 0.0
C760 C 0.32611 0.0326 0.97825 0.0
C761 C 0.30521 0.03098 0.00809 0.0
C762 C 0.39107 0.04151 0.8831 0.0
C763 C 0.40918 0.04959 0.91358 0.0
C764 C 0.3685 0.04241 0.90434 0.0
C765 C 0.36351 0.05125 0.95684 0.0
C766 C 0.38168 0.05944 0.98703 0.0
C767 C 0.40418 0.05872 0.96552 0.0
H768 H 0.54613 0.34582 0.02442 0.0
H769 H 0.48095 0.36007 0.10614 0.0
H770 H 0.53995 0.3805 0.95704 0.0
H771 H 0.47469 0.3947 0.03826 0.0
H772 H 0.46596 0.4483 0.87312 0.0
H773 H 0.46877 0.41156 0.9338 0.0
H774 H 0.54027 0.42064 0.97161 0.0
H775 H 0.53758 0.45705 0.91127 0.0
C776 C 0.53035 0.35621 0.02757 0.0
C777 C 0.51417 0.35025 0.07112 0.0
C778 C 0.52684 0.37612 0.98908 0.0
C779 C 0.50702 0.39056 0.99298 0.0
C780 C 0.49011 0.38392 0.03403 0.0
C781 C 0.49367 0.36399 0.07276 0.0
C782 C 0.48222 0.4425 0.89473 0.0
C783 C 0.50155 0.45563 0.88719 0.0
C784 C 0.48382 0.42146 0.92946 0.0
C785 C 0.50483 0.41304 0.95687 0.0
C786 C 0.52397 0.4264 0.95013 0.0
C787 C 0.52234 0.44741 0.9159 0.0
H788 H 0.1536 0.44514 0.04164 0.0
H789 H 0.1868 0.49492 0.92382 0.0
H790 H 0.11954 0.44972 0.97862 0.0
H791 H 0.15243 0.49971 0.86111 0.0
H792 H 0.07602 0.52742 0.83404 0.0
H793 H 0.11371 0.51723 0.8791 0.0
H794 H 0.10195 0.44663 0.88097 0.0
H795 H 0.06386 0.45687 0.83559 0.0
C796 C 0.15398 0.45655 0.00138 0.0
C797 C 0.17294 0.46984 0.98819 0.0
C798 C 0.13435 0.45922 0.96529 0.0
C799 C 0.13316 0.47531 0.91535 0.0
C800 C 0.15268 0.48747 0.89995 0.0
C801 C 0.17237 0.48472 0.93587 0.0
C802 C 0.08145 0.5097 0.84368 0.0
C803 C 0.06684 0.49295 0.83161 0.0
C804 C 0.1032 0.50387 0.869 0.0
C805 C 0.11088 0.48113 0.88334 0.0
C806 C 0.09645 0.46431 0.87054 0.0
C807 C 0.07469 0.47017 0.84452 0.0
H808 H 0.0317 0.81896 0.51289 0.0
H809 H 0.9572 0.82323 0.50021 0.0
H810 H 0.02994 0.84817 0.57697 0.0
H811 H 0.95555 0.85334 0.56226 0.0
H812 H 0.95856 0.90565 0.68759 0.0
H813 H 0.9625 0.86776 0.65627 0.0
H814 H 0.02083 0.88806 0.55065 0.0
H815 H 0.01677 0.92532 0.58223 0.0
C816 C 0.01488 0.82565 0.52487 0.0
C817 C 0.99459 0.81885 0.50047 0.0
C818 C 0.0139 0.84266 0.56118 0.0
C819 C 0.99264 0.85345 0.57388 0.0
C820 C 0.97224 0.84542 0.55347 0.0
C821 C 0.9732 0.82831 0.51726 0.0
C822 C 0.97254 0.90159 0.65904 0.0
C823 C 0.98739 0.91821 0.63721 0.0
C824 C 0.97471 0.88007 0.64068 0.0
C825 C 0.99197 0.87483 0.60085 0.0
C826 C 0.00756 0.89126 0.58196 0.0
C827 C 0.00521 0.91267 0.59972 0.0
H828 H 0.68289 1.00104 0.45958 0.0
H829 H 0.69379 0.93177 0.53774 0.0
H830 H 0.64682 0.00444 0.51156 0.0
H831 H 0.65775 0.93526 0.59121 0.0
H832 H 0.5789 0.94011 0.60661 0.0
H833 H 0.61769 0.93747 0.5687 0.0
H834 H 0.62702 0.00592 0.6004 0.0
H835 H 0.58765 0.00907 0.63517 0.0
C836 C 0.67796 0.98672 0.4894 0.0
C837 C 0.69126 0.96611 0.49446 0.0
C838 C 0.65716 0.98865 0.51925 0.0
C839 C 0.64913 0.97006 0.55529 0.0
C840 C 0.66309 0.94979 0.56284 0.0
C841 C 0.68384 0.94781 0.53257 0.0
C842 C 0.58901 0.95474 0.60513 0.0
C843 C 0.57977 0.9749 0.62367 0.0
C844 C 0.61155 0.95307 0.58417 0.0
C845 C 0.62565 0.97145 0.58148 0.0
C846 C 0.61663 0.99147 0.60111 0.0
C847 C 0.594 0.9932 0.62172 0.0
H848 H 0.53275 0.66831 0.46343 0.0
H849 H 0.45836 0.67074 0.476 0.0
H850 H 0.5354 0.63348 0.53054 0.0
H851 H 0.4611 0.63686 0.54615 0.0
H852 H 0.47063 0.56203 0.60958 0.0
H853 H 0.46888 0.59782 0.54624 0.0
H854 H 0.53144 0.61564 0.62665 0.0
H855 H 0.53363 0.57938 0.68832 0.0
C856 C 0.51695 0.66163 0.4811 0.0
C857 C 0.49532 0.67235 0.46355 0.0
C858 C 0.51849 0.64171 0.52022 0.0
C859 C 0.49845 0.63205 0.54339 0.0
C860 C 0.47691 0.64343 0.52823 0.0
C861 C 0.47535 0.66321 0.4887 0.0
C862 C 0.48409 0.57353 0.61347 0.0
C863 C 0.5023 0.5678 0.65392 0.0
C864 C 0.48298 0.59421 0.57753 0.0
C865 C 0.49989 0.60987 0.58152 0.0
C866 C 0.51823 0.60399 0.62171 0.0
C867 C 0.51947 0.58318 0.65725 0.0
H868 H 0.83687 0.5882 0.5459 0.0
H869 H 0.83776 0.51659 0.53774 0.0
H870 H 0.87074 0.58234 0.61068 0.0
H871 H 0.8719 0.51071 0.5993 0.0
H872 H 0.92765 0.50092 0.73114 0.0
H873 H 0.88931 0.50947 0.68856 0.0
H874 H 0.9105 0.57414 0.60804 0.0
H875 H 0.94847 0.56598 0.65474 0.0
C876 C 0.84414 0.57119 0.55866 0.0
C877 C 0.83452 0.55284 0.53724 0.0
C878 C 0.86371 0.56781 0.59525 0.0
C879 C 0.87434 0.54603 0.61033 0.0
C880 C 0.8641 0.52768 0.59018 0.0
C881 C 0.8444 0.53103 0.55462 0.0
C882 C 0.92398 0.51706 0.70479 0.0
C883 C 0.94105 0.5327 0.69557 0.0
C884 C 0.90201 0.52195 0.67993 0.0
C885 C 0.89672 0.54235 0.64358 0.0
C886 C 0.91369 0.55835 0.63611 0.0
C887 C 0.93556 0.55366 0.66245 0.0
loop_
_geom_bond_atom_site_label_1
_geom_bond_atom_site_label_2
_geom_bond_distance
_geom_bond_site_symmetry_2
_ccdc_geom_bond_type
C0 C1 1.384 . S
C0 H13 0.947 . S
C0 C35 1.382 . S
C1 C0 1.384 . S
C1 C2 1.378 . S
C2 C1 1.378 . S
C2 C3 1.378 . S
C2 H14 0.952 . S
C3 C2 1.378 . S
C3 H15 0.950 . S
C3 C34 1.383 . S
H4 C23 0.947 . S
H5 C24 0.946 . S
H6 C26 0.953 1_556 S
H7 C27 0.945 . S
H8 C29 0.952 . S
H9 C30 0.949 . S
H10 C32 0.950 . S
H11 C33 0.948 . S
H12 C35 0.951 . S
H13 C0 0.947 . S
H14 C2 0.952 . S
H15 C3 0.950 . S
N16 C19 1.382 . S
N16 C21 1.363 . S
N17 C19 1.371 . S
N17 C20 1.372 . S
N18 C20 1.361 . S
N18 C21 1.377 . S
C19 N16 1.382 . S
C19 N17 1.371 . S
C19 C22 1.480 . S
C20 N17 1.372 . S
C20 N18 1.361 . S
C20 C28 1.457 . S
C21 N16 1.363 . S
C21 N18 1.377 . S
C21 C34 1.479 . S
C22 C19 1.480 . S
C22 C23 1.383 . S
C22 C27 1.385 . S
C23 H4 0.947 . S
C23 C22 1.383 . S
C23 C24 1.388 . S
C24 H5 0.946 . S
C24 C23 1.388 . S
C24 C25 1.384 . S
C25 C24 1.384 . S
C25 C26 1.377 . S
C26 H6 0.953 1_554 S
C26 C25 1.377 . S
C26 C27 1.369 . S
C27 H7 0.945 . S
C27 C22 1.385 . S
C27 C26 1.369 . S
C28 C20 1.457 . S
C28 C29 1.372 1_554 S
C28 C33 1.364 . S
C29 H8 0.952 . S
C29 C28 1.372 1_556 S
C29 C30 1.389 . S
C30 H9 0.949 . S
C30 C29 1.389 . S
C30 C31 1.387 . S
C31 C30 1.387 . S
C31 C32 1.372 1_556 S
C32 H10 0.950 . S
C32 C31 1.372 1_554 S
C32 C33 1.379 . S
C33 H11 0.948 . S
C33 C28 1.364 . S
C33 C32 1.379 . S
C34 C3 1.383 . S
C34 C21 1.479 . S
C34 C35 1.398 . S
C35 C0 1.382 . S
C35 H12 0.951 . S
C35 C34 1.398 . S
C36 C37 1.384 1_655 S
C36 H49 0.947 . S
C36 C71 1.382 1_655 S
C37 C36 1.384 1_455 S
C37 C38 1.378 . S
C38 C37 1.378 . S
C38 C39 1.378 . S
C38 H50 0.952 . S
C39 C38 1.378 . S
C39 H51 0.950 . S
C39 C70 1.383 . S
H40 C59 0.947 . S
H41 C60 0.953 . S
H42 C62 0.953 1_556 S
H43 C63 0.945 . S
H44 C65 0.948 1_655 S
H45 C66 0.957 . S
H46 C68 0.950 . S
H47 C69 0.948 . S
H48 C71 0.951 1_655 S
H49 C36 0.947 . S
H50 C38 0.952 . S
H51 C39 0.950 . S
N52 C55 1.382 . S
N52 C57 1.363 . S
N53 C55 1.371 . S
N53 C56 1.372 . S
N54 C56 1.361 . S
N54 C57 1.377 . S
C55 N52 1.382 . S
C55 N53 1.371 . S
C55 C58 1.480 . S
C56 N53 1.372 . S
C56 N54 1.361 . S
C56 C64 1.457 . S
C57 N52 1.363 . S
C57 N54 1.377 . S
C57 C70 1.479 . S
C58 C55 1.480 . S
C58 C59 1.383 . S
C58 C63 1.385 . S
C59 H40 0.947 . S
C59 C58 1.383 . S
C59 C60 1.384 1_455 S
C60 H41 0.953 . S
C60 C59 1.384 1_655 S
C60 C61 1.382 1_655 S
C61 C60 1.382 1_455 S
C61 C62 1.377 . S
C62 H42 0.953 1_554 S
C62 C61 1.377 . S
C62 C63 1.369 . S
C63 H43 0.945 . S
C63 C58 1.385 . S
C63 C62 1.369 . S
C64 C56 1.457 . S
C64 C65 1.376 1_554 S
C64 C69 1.364 . S
C65 H44 0.948 1_455 S
C65 C64 1.376 1_556 S
C65 C66 1.390 1_455 S
C66 H45 0.957 . S
C66 C65 1.390 1_655 S
C66 C67 1.380 1_655 S
C67 C66 1.380 1_455 S
C67 C68 1.372 1_556 S
C68 H46 0.950 . S
C68 C67 1.372 1_554 S
C68 C69 1.379 . S
C69 H47 0.948 . S
C69 C64 1.364 . S
C69 C68 1.379 . S
C70 C39 1.383 . S
C70 C57 1.479 . S
C70 C71 1.398 . S
C71 C36 1.382 1_455 S
C71 H48 0.951 1_455 S
C71 C70 1.398 . S
C72 C73 1.384 . S
C72 H85 0.947 . S
C72 C107 1.382 . S
C73 C72 1.384 . S
C73 C74 1.378 . S
C74 C73 1.378 . S
C74 C75 1.378 . S
C74 H86 0.952 . S
C75 C74 1.378 . S
C75 H87 0.950 . S
C75 C106 1.383 . S
H76 C95 0.947 . S
H77 C96 0.946 . S
H78 C98 0.949 1_556 S
H79 C99 0.945 1_556 S
H80 C101 0.952 . S
H81 C102 0.949 . S
H82 C104 0.950 . S
H83 C105 0.948 . S
H84 C107 0.951 . S
H85 C72 0.947 . S
H86 C74 0.952 . S
H87 C75 0.950 . S
N88 C91 1.382 . S
N88 C93 1.363 . S
N89 C91 1.371 . S
N89 C92 1.372 . S
N90 C92 1.361 . S
N90 C93 1.377 . S
C91 N88 1.382 . S
C91 N89 1.371 . S
C91 C94 1.480 . S
C92 N89 1.372 . S
C92 N90 1.361 . S
C92 C100 1.457 . S
C93 N88 1.363 . S
C93 N90 1.377 . S
C93 C106 1.479 . S
C94 C91 1.480 . S
C94 C95 1.383 . S
C94 C99 1.385 . S
C95 H76 0.947 . S
C95 C94 1.383 . S
C95 C96 1.388 . S
C96 H77 0.946 . S
C96 C95 1.388 . S
C96 C97 1.384 . S
C97 C96 1.384 . S
C97 C98 1.380 . S
C98 H78 0.949 1_554 S
C98 C97 1.380 . S
C98 C99 1.370 . S
C99 H79 0.945 1_554 S
C99 C94 1.385 . S
C99 C98 1.370 . S
C100 C92 1.457 . S
C100 C101 1.372 1_554 S
C100 C105 1.364 . S
C101 H80 0.952 . S
C101 C100 1.372 1_556 S
C101 C102 1.389 . S
C102 H81 0.949 . S
C102 C101 1.389 . S
C102 C103 1.387 . S
C103 C102 1.387 . S
C103 C104 1.372 . S
C104 H82 0.950 . S
C104 C103 1.372 . S
C104 C105 1.379 1_556 S
C105 H83 0.948 . S
C105 C100 1.364 . S
C105 C104 1.379 1_554 S
C106 C75 1.383 . S
C106 C93 1.479 . S
C106 C107 1.398 . S
C107 C72 1.382 . S
C107 H84 0.951 . S
C107 C106 1.398 . S
C108 C109 1.384 1_554 S
C108 H121 0.947 . S
C108 C143 1.382 . S
C109 C108 1.384 1_556 S
C109 C110 1.378 . S
C110 C109 1.378 . S
C110 C111 1.378 . S
C110 H122 0.952 . S
C111 C110 1.378 . S
C111 H123 0.950 . S
C111 C142 1.383 1_556 S
H112 C131 0.947 . S
H113 C132 0.946 1_556 S
H114 C134 0.953 . S
H115 C135 0.945 . S
H116 C137 0.952 . S
H117 C138 0.949 . S
H118 C140 0.950 . S
H119 C141 0.948 . S
H120 C143 0.951 . S
H121 C108 0.947 . S
H122 C110 0.952 . S
H123 C111 0.950 . S
N124 C127 1.382 . S
N124 C129 1.363 . S
N125 C127 1.371 . S
N125 C128 1.372 . S
N126 C128 1.361 . S
N126 C129 1.377 . S
C127 N124 1.382 . S
C127 N125 1.371 . S
C127 C130 1.480 . S
C128 N125 1.372 . S
C128 N126 1.361 . S
C128 C136 1.457 . S
C129 N124 1.363 . S
C129 N126 1.377 . S
C129 C142 1.479 . S
C130 C127 1.480 . S
C130 C131 1.383 . S
C130 C135 1.385 . S
C131 H112 0.947 . S
C131 C130 1.383 . S
C131 C132 1.388 . S
C132 H113 0.946 1_554 S
C132 C131 1.388 . S
C132 C133 1.384 . S
C133 C132 1.384 . S
C133 C134 1.377 . S
C134 H114 0.953 . S
C134 C133 1.377 . S
C134 C135 1.369 . S
C135 H115 0.945 . S
C135 C130 1.385 . S
C135 C134 1.369 . S
C136 C128 1.457 . S
C136 C137 1.372 . S
C136 C141 1.364 . S
C137 H116 0.952 . S
C137 C136 1.372 . S
C137 C138 1.389 . S
C138 H117 0.949 . S
C138 C137 1.389 . S
C138 C139 1.387 . S
C139 C138 1.387 . S
C139 C140 1.372 . S
C140 H118 0.950 . S
C140 C139 1.372 . S
C140 C141 1.379 . S
C141 H119 0.948 . S
C141 C136 1.364 . S
C141 C140 1.379 . S
C142 C111 1.383 1_554 S
C142 C129 1.479 . S
C142 C143 1.398 . S
C143 C108 1.382 . S
C143 H120 0.951 . S
C143 C142 1.398 . S
C144 C145 1.384 . S
C144 H157 0.947 . S
C144 C179 1.382 . S
C145 C144 1.384 . S
C145 C146 1.378 . S
C146 C145 1.378 . S
C146 C147 1.378 . S
C146 H158 0.952 . S
C147 C146 1.378 . S
C147 H159 0.950 . S
C147 C178 1.383 . S
H148 C167 0.947 . S
H149 C168 0.946 . S
H150 C170 0.953 . S
H151 C171 0.945 . S
H152 C173 0.952 . S
H153 C174 0.949 . S
H154 C176 0.950 . S
H155 C177 0.948 . S
H156 C179 0.951 . S
H157 C144 0.947 . S
H158 C146 0.952 . S
H159 C147 0.950 . S
N160 C163 1.382 . S
N160 C165 1.363 . S
N161 C163 1.371 . S
N161 C164 1.372 . S
N162 C164 1.361 . S
N162 C165 1.377 . S
C163 N160 1.382 . S
C163 N161 1.371 . S
C163 C166 1.480 . S
C164 N161 1.372 . S
C164 N162 1.361 . S
C164 C172 1.457 . S
C165 N160 1.363 . S
C165 N162 1.377 . S
C165 C178 1.479 . S
C166 C163 1.480 . S
C166 C167 1.383 . S
C166 C171 1.385 . S
C167 H148 0.947 . S
C167 C166 1.383 . S
C167 C168 1.388 . S
C168 H149 0.946 . S
C168 C167 1.388 . S
C168 C169 1.384 . S
C169 C168 1.384 . S
C169 C170 1.377 . S
C170 H150 0.953 . S
C170 C169 1.377 . S
C170 C171 1.369 . S
C171 H151 0.945 . S
C171 C166 1.385 . S
C171 C170 1.369 . S
C172 C164 1.457 . S
C172 C173 1.372 . S
C172 C177 1.364 . S
C173 H152 0.952 . S
C173 C172 1.372 . S
C173 C174 1.389 . S
C174 H153 0.949 . S
C174 C173 1.389 . S
C174 C175 1.387 . S
C175 C174 1.387 . S
C175 C176 1.372 . S
C176 H154 0.950 . S
C176 C175 1.372 . S
C176 C177 1.379 . S
C177 H155 0.948 . S
C177 C172 1.364 . S
C177 C176 1.379 . S
C178 C147 1.383 . S
C178 C165 1.479 . S
C178 C179 1.398 . S
C179 C144 1.382 . S
C179 H156 0.951 . S
C179 C178 1.398 . S
C180 C181 1.383 . S
C180 H193 0.948 1_455 S
C180 C215 1.382 . S
C181 C180 1.383 . S
C181 C182 1.378 . S
C182 C181 1.378 . S
C182 C183 1.378 . S
C182 H194 0.952 . S
C183 C182 1.378 . S
C183 H195 0.950 . S
C183 C214 1.383 . S
H184 C203 0.947 . S
H185 C204 0.948 . S
H186 C206 0.953 . S
H187 C207 0.945 . S
H188 C209 0.949 1_655 S
H189 C210 0.954 . S
H190 C212 0.950 . S
H191 C213 0.948 . S
H192 C215 0.950 1_655 S
H193 C180 0.948 1_655 S
H194 C182 0.952 . S
H195 C183 0.950 . S
N196 C199 1.382 . S
N196 C201 1.363 . S
N197 C199 1.371 . S
N197 C200 1.372 . S
N198 C200 1.361 . S
N198 C201 1.377 . S
C199 N196 1.382 . S
C199 N197 1.371 . S
C199 C202 1.480 . S
C200 N197 1.372 . S
C200 N198 1.361 . S
C200 C208 1.457 . S
C201 N196 1.363 . S
C201 N198 1.377 . S
C201 C214 1.479 . S
C202 C199 1.480 . S
C202 C203 1.383 . S
C202 C207 1.385 . S
C203 H184 0.947 . S
C203 C202 1.383 . S
C203 C204 1.388 1_455 S
C204 H185 0.948 . S
C204 C203 1.388 1_655 S
C204 C205 1.382 1_655 S
C205 C204 1.382 1_455 S
C205 C206 1.377 . S
C206 H186 0.953 . S
C206 C205 1.377 . S
C206 C207 1.369 . S
C207 H187 0.945 . S
C207 C202 1.385 . S
C207 C206 1.369 . S
C208 C200 1.457 . S
C208 C209 1.378 . S
C208 C213 1.364 . S
C209 H188 0.949 1_455 S
C209 C208 1.378 . S
C209 C210 1.383 1_455 S
C210 H189 0.954 . S
C210 C209 1.383 1_655 S
C210 C211 1.385 1_655 S
C211 C210 1.385 1_455 S
C211 C212 1.372 . S
C212 H190 0.950 . S
C212 C211 1.372 . S
C212 C213 1.379 . S
C213 H191 0.948 . S
C213 C208 1.364 . S
C213 C212 1.379 . S
C214 C183 1.383 . S
C214 C201 1.479 . S
C214 C215 1.400 . S
C215 C180 1.382 . S
C215 H192 0.950 1_455 S
C215 C214 1.400 . S
C216 C217 1.384 . S
C216 H229 0.947 . S
C216 C251 1.382 . S
C217 C216 1.384 . S
C217 C218 1.378 . S
C218 C217 1.378 . S
C218 C219 1.378 . S
C218 H230 0.952 . S
C219 C218 1.378 . S
C219 H231 0.950 . S
C219 C250 1.383 . S
H220 C239 0.947 . S
H221 C240 0.946 . S
H222 C242 0.953 . S
H223 C243 0.945 . S
H224 C245 0.952 . S
H225 C246 0.949 . S
H226 C248 0.950 . S
H227 C249 0.948 . S
H228 C251 0.951 . S
H229 C216 0.947 . S
H230 C218 0.952 . S
H231 C219 0.950 . S
N232 C235 1.382 . S
N232 C237 1.363 . S
N233 C235 1.371 . S
N233 C236 1.372 . S
N234 C236 1.361 . S
N234 C237 1.377 . S
C235 N232 1.382 . S
C235 N233 1.371 . S
C235 C238 1.480 . S
C236 N233 1.372 . S
C236 N234 1.361 . S
C236 C244 1.457 . S
C237 N232 1.363 . S
C237 N234 1.377 . S
C237 C250 1.479 . S
C238 C235 1.480 . S
C238 C239 1.383 . S
C238 C243 1.385 . S
C239 H220 0.947 . S
C239 C238 1.383 . S
C239 C240 1.388 . S
C240 H221 0.946 . S
C240 C239 1.388 . S
C240 C241 1.384 . S
C241 C240 1.384 . S
C241 C242 1.377 . S
C242 H222 0.953 . S
C242 C241 1.377 . S
C242 C243 1.369 . S
C243 H223 0.945 . S
C243 C238 1.385 . S
C243 C242 1.369 . S
C244 C236 1.457 . S
C244 C245 1.372 . S
C244 C249 1.364 . S
C245 H224 0.952 . S
C245 C244 1.372 . S
C245 C246 1.389 . S
C246 H225 0.949 . S
C246 C245 1.389 . S
C246 C247 1.387 . S
C247 C246 1.387 . S
C247 C248 1.372 . S
C248 H226 0.950 . S
C248 C247 1.372 . S
C248 C249 1.379 . S
C249 H227 0.948 . S
C249 C244 1.364 . S
C249 C248 1.379 . S
C250 C219 1.383 . S
C250 C237 1.479 . S
C250 C251 1.398 . S
C251 C216 1.382 . S
C251 H228 0.951 . S
C251 C250 1.398 . S
C252 C253 1.384 . S
C252 H265 0.947 . S
C252 C287 1.382 . S
C253 C252 1.384 . S
C253 C254 1.378 . S
C254 C253 1.378 . S
C254 C255 1.378 . S
C254 H266 0.952 . S
C255 C254 1.378 . S
C255 H267 0.950 . S
C255 C286 1.383 . S
H256 C275 0.947 . S
H257 C276 0.946 . S
H258 C278 0.953 . S
H259 C279 0.945 . S
H260 C281 0.952 . S
H261 C282 0.949 . S
H262 C284 0.950 . S
H263 C285 0.948 . S
H264 C287 0.951 . S
H265 C252 0.947 . S
H266 C254 0.952 . S
H267 C255 0.950 . S
N268 C271 1.382 . S
N268 C273 1.363 . S
N269 C271 1.371 . S
N269 C272 1.372 . S
N270 C272 1.361 . S
N270 C273 1.377 . S
C271 N268 1.382 . S
C271 N269 1.371 . S
C271 C274 1.480 . S
C272 N269 1.372 . S
C272 N270 1.361 . S
C272 C280 1.457 . S
C273 N268 1.363 . S
C273 N270 1.377 . S
C273 C286 1.479 . S
C274 C271 1.480 . S
C274 C275 1.383 . S
C274 C279 1.385 . S
C275 H256 0.947 . S
C275 C274 1.383 . S
C275 C276 1.388 . S
C276 H257 0.946 . S
C276 C275 1.388 . S
C276 C277 1.384 . S
C277 C276 1.384 . S
C277 C278 1.377 . S
C278 H258 0.953 . S
C278 C277 1.377 . S
C278 C279 1.369 . S
C279 H259 0.945 . S
C279 C274 1.385 . S
C279 C278 1.369 . S
C280 C272 1.457 . S
C280 C281 1.372 . S
C280 C285 1.364 . S
C281 H260 0.952 . S
C281 C280 1.372 . S
C281 C282 1.389 . S
C282 H261 0.949 . S
C282 C281 1.389 . S
C282 C283 1.387 . S
C283 C282 1.387 . S
C283 C284 1.372 . S
C284 H262 0.950 . S
C284 C283 1.372 . S
C284 C285 1.379 . S
C285 H263 0.948 . S
C285 C280 1.364 . S
C285 C284 1.379 . S
C286 C255 1.383 . S
C286 C273 1.479 . S
C286 C287 1.398 . S
C287 C252 1.382 . S
C287 H264 0.951 . S
C287 C286 1.398 . S
Co288 N293 2.057 . S
Co288 O305 2.021 . S
Co288 O308 2.062 1_455 S
Co288 O312 2.117 1_455 S
Co288 O313 2.020 1_545 S
C289 O309 1.259 1_545 S
C289 O312 1.258 . S
Co290 N299 2.057 . S
Co290 O306 2.117 1_665 S
Co290 O307 2.020 1_565 S
Co290 O309 2.021 . S
Co290 O314 2.062 1_655 S
C291 N293 1.316 . S
C291 N294 1.347 . S
C291 H296 0.931 . S
C292 N293 1.375 1_655 S
C292 C295 1.350 . S
C292 H297 0.930 . S
N293 Co288 2.057 . S
N293 C291 1.316 . S
N293 C292 1.375 1_455 S
N294 C291 1.347 . S
N294 C295 1.373 1_455 S
C295 C292 1.350 . S
C295 N294 1.373 1_655 S
C295 H316 0.931 . S
H296 C291 0.931 . S
H297 C292 0.930 . S
C298 O305 1.259 . S
C298 O306 1.258 . S
N299 Co290 2.057 . S
N299 C300 1.316 . S
N299 C301 1.375 1_655 S
C300 N299 1.316 . S
C300 N302 1.347 . S
C300 H311 0.931 . S
C301 N299 1.375 1_455 S
C301 C303 1.350 . S
C301 H310 0.930 . S
N302 C300 1.347 . S
N302 C303 1.373 1_655 S
C303 C301 1.350 . S
C303 N302 1.373 1_455 S
C303 H317 0.931 . S
C304 O307 1.256 . S
C304 O308 1.255 . S
O305 Co288 2.021 . S
O305 C298 1.259 . S
O306 Co290 2.117 1_445 S
O306 C298 1.258 . S
O307 Co290 2.020 1_545 S
O307 C304 1.256 . S
O308 Co288 2.062 1_655 S
O308 C304 1.255 . S
O309 C289 1.259 1_565 S
O309 Co290 2.021 . S
H310 C301 0.930 . S
H311 C300 0.931 . S
O312 Co288 2.117 1_655 S
O312 C289 1.258 . S
O313 Co288 2.020 1_565 S
O313 C315 1.256 . S
O314 Co290 2.062 1_455 S
O314 C315 1.255 . S
C315 O313 1.256 . S
C315 O314 1.255 . S
H316 C295 0.931 . S
H317 C303 0.931 . S
Co318 N323 2.057 . S
Co318 O335 2.021 . S
Co318 O338 2.062 . S
Co318 O342 2.117 1_545 S
Co318 O343 2.020 . S
C319 O339 1.259 . S
C319 O342 1.258 . S
Co320 N329 2.056 1_545 S
Co320 O336 2.127 . S
Co320 O337 2.021 . S
Co320 O339 2.011 1_545 S
Co320 O344 2.062 1_545 S
C321 N323 1.316 . S
C321 N324 1.347 . S
C321 H326 0.931 . S
C322 N323 1.375 . S
C322 C325 1.350 . S
C322 H327 0.930 1_545 S
N323 Co318 2.057 . S
N323 C321 1.316 . S
N323 C322 1.375 . S
N324 C321 1.347 . S
N324 C325 1.373 . S
C325 C322 1.350 . S
C325 N324 1.373 . S
C325 H346 0.931 . S
H326 C321 0.931 . S
H327 C322 0.930 1_565 S
C328 O335 1.259 . S
C328 O336 1.258 . S
N329 Co320 2.056 1_565 S
N329 C330 1.316 . S
N329 C331 1.375 1_565 S
C330 N329 1.316 . S
C330 N332 1.347 . S
C330 H341 0.931 . S
C331 N329 1.375 1_545 S
C331 C333 1.350 . S
C331 H340 0.930 . S
N332 C330 1.347 . S
N332 C333 1.373 1_565 S
C333 C331 1.350 . S
C333 N332 1.373 1_545 S
C333 H347 0.931 . S
C334 O337 1.256 . S
C334 O338 1.255 . S
O335 Co318 2.021 . S
O335 C328 1.259 . S
O336 Co320 2.127 . S
O336 C328 1.258 . S
O337 Co320 2.021 . S
O337 C334 1.256 . S
O338 Co318 2.062 . S
O338 C334 1.255 . S
O339 C319 1.259 . S
O339 Co320 2.011 1_565 S
H340 C331 0.930 . S
H341 C330 0.931 . S
O342 Co318 2.117 1_565 S
O342 C319 1.258 . S
O343 Co318 2.020 . S
O343 C345 1.256 . S
O344 Co320 2.062 1_565 S
O344 C345 1.255 1_565 S
C345 O343 1.256 . S
C345 O344 1.255 1_545 S
H346 C325 0.931 . S
H347 C333 0.931 . S
Co348 N353 2.057 . S
Co348 O365 2.021 . S
Co348 O368 2.062 . S
Co348 O372 2.117 . S
Co348 O373 2.020 . S
C349 O369 1.259 . S
C349 O372 1.258 . S
Co350 N359 2.057 . S
Co350 O366 2.117 . S
Co350 O367 2.020 . S
Co350 O369 2.021 . S
Co350 O374 2.062 . S
C351 N353 1.316 . S
C351 N354 1.347 . S
C351 H356 0.931 . S
C352 N353 1.375 . S
C352 C355 1.350 . S
C352 H357 0.930 . S
N353 Co348 2.057 . S
N353 C351 1.316 . S
N353 C352 1.375 . S
N354 C351 1.347 . S
N354 C355 1.373 . S
C355 C352 1.350 . S
C355 N354 1.373 . S
C355 H376 0.931 . S
H356 C351 0.931 . S
H357 C352 0.930 . S
C358 O365 1.259 . S
C358 O366 1.258 . S
N359 Co350 2.057 . S
N359 C360 1.316 . S
N359 C361 1.375 . S
C360 N359 1.316 . S
C360 N362 1.347 . S
C360 H371 0.931 . S
C361 N359 1.375 . S
C361 C363 1.350 . S
C361 H370 0.930 . S
N362 C360 1.347 . S
N362 C363 1.373 . S
C363 C361 1.350 . S
C363 N362 1.373 . S
C363 H377 0.931 . S
C364 O367 1.256 . S
C364 O368 1.255 . S
O365 Co348 2.021 . S
O365 C358 1.259 . S
O366 Co350 2.117 . S
O366 C358 1.258 . S
O367 Co350 2.020 . S
O367 C364 1.256 . S
O368 Co348 2.062 . S
O368 C364 1.255 . S
O369 C349 1.259 . S
O369 Co350 2.021 . S
H370 C361 0.930 . S
H371 C360 0.931 . S
O372 Co348 2.117 . S
O372 C349 1.258 . S
O373 Co348 2.020 . S
O373 C375 1.256 . S
O374 Co350 2.062 . S
O374 C375 1.255 . S
C375 O373 1.256 . S
C375 O374 1.255 . S
H376 C355 0.931 . S
H377 C363 0.931 . S
Co378 N383 2.057 . S
Co378 O395 2.021 1_455 S
Co378 O398 2.062 1_455 S
Co378 O402 2.117 . S
Co378 O403 2.020 . S
C379 O399 1.259 . S
C379 O402 1.258 . S
Co380 N389 2.057 . S
Co380 O396 2.117 . S
Co380 O397 2.020 . S
Co380 O399 2.021 1_655 S
Co380 O404 2.062 1_655 S
C381 N383 1.316 . S
C381 N384 1.347 . S
C381 H386 0.931 1_455 S
C382 N383 1.375 . S
C382 C385 1.350 . S
C382 H387 0.930 . S
N383 Co378 2.057 . S
N383 C381 1.316 . S
N383 C382 1.375 . S
N384 C381 1.347 . S
N384 C385 1.373 . S
C385 C382 1.350 . S
C385 N384 1.373 . S
C385 H406 0.931 . S
H386 C381 0.931 1_655 S
H387 C382 0.930 . S
C388 O395 1.259 . S
C388 O396 1.258 . S
N389 Co380 2.057 . S
N389 C390 1.316 . S
N389 C391 1.375 . S
C390 N389 1.316 . S
C390 N392 1.347 . S
C390 H401 0.931 1_655 S
C391 N389 1.375 . S
C391 C393 1.350 . S
C391 H400 0.930 . S
N392 C390 1.347 . S
N392 C393 1.373 . S
C393 C391 1.350 . S
C393 N392 1.373 . S
C393 H407 0.931 . S
C394 O397 1.256 . S
C394 O398 1.255 . S
O395 Co378 2.021 1_655 S
O395 C388 1.259 . S
O396 Co380 2.117 . S
O396 C388 1.258 . S
O397 Co380 2.020 . S
O397 C394 1.256 . S
O398 Co378 2.062 1_655 S
O398 C394 1.255 . S
O399 C379 1.259 . S
O399 Co380 2.021 1_455 S
H400 C391 0.930 . S
H401 C390 0.931 1_455 S
O402 Co378 2.117 . S
O402 C379 1.258 . S
O403 Co378 2.020 . S
O403 C405 1.256 . S
O404 Co380 2.062 1_455 S
O404 C405 1.255 . S
C405 O403 1.256 . S
C405 O404 1.255 . S
H406 C385 0.931 . S
H407 C393 0.931 . S
H408 C416 0.950 . S
H409 C421 0.950 . S
H410 C418 0.950 . S
H411 C420 0.950 . S
H412 C422 0.950 . S
H413 C424 0.950 . S
H414 C426 0.950 . S
H415 C427 0.950 . S
C416 H408 0.950 . S
C416 C417 1.386 . S
C416 C418 1.391 . S
C417 C416 1.386 . S
C417 C421 1.393 . S
C418 H410 0.950 . S
C418 C416 1.391 . S
C418 C419 1.400 . S
C419 C418 1.400 . S
C419 C420 1.398 . S
C419 C425 1.491 . S
C420 H411 0.950 . S
C420 C419 1.398 . S
C420 C421 1.391 . S
C421 H409 0.950 . S
C421 C417 1.393 . S
C421 C420 1.391 . S
C422 H412 0.950 . S
C422 C423 1.386 . S
C422 C424 1.391 . S
C423 C422 1.386 . S
C423 C427 1.393 . S
C424 H413 0.950 . S
C424 C422 1.391 . S
C424 C425 1.400 . S
C425 C419 1.491 . S
C425 C424 1.400 . S
C425 C426 1.398 . S
C426 H414 0.950 . S
C426 C425 1.398 . S
C426 C427 1.391 . S
C427 H415 0.950 . S
C427 C423 1.393 . S
C427 C426 1.391 . S
H428 C436 0.950 . S
H429 C441 0.950 . S
H430 C438 0.950 . S
H431 C440 0.950 . S
H432 C442 0.950 . S
H433 C444 0.950 . S
H434 C446 0.950 . S
H435 C447 0.950 . S
C436 H428 0.950 . S
C436 C437 1.386 . S
C436 C438 1.391 . S
C437 C436 1.386 . S
C437 C441 1.393 . S
C438 H430 0.950 . S
C438 C436 1.391 . S
C438 C439 1.400 . S
C439 C438 1.400 . S
C439 C440 1.398 . S
C439 C445 1.491 . S
C440 H431 0.950 . S
C440 C439 1.398 . S
C440 C441 1.391 . S
C441 H429 0.950 . S
C441 C437 1.393 . S
C441 C440 1.391 . S
C442 H432 0.950 . S
C442 C443 1.386 . S
C442 C444 1.391 . S
C443 C442 1.386 . S
C443 C447 1.393 . S
C444 H433 0.950 . S
C444 C442 1.391 . S
C444 C445 1.400 . S
C445 C439 1.491 . S
C445 C444 1.400 . S
C445 C446 1.398 . S
C446 H434 0.950 . S
C446 C445 1.398 . S
C446 C447 1.391 . S
C447 H435 0.950 . S
C447 C443 1.393 . S
C447 C446 1.391 . S
H448 C456 0.950 . S
H449 C461 0.950 . S
H450 C458 0.950 . S
H451 C460 0.950 . S
H452 C462 0.950 . S
H453 C464 0.950 . S
H454 C466 0.950 . S
H455 C467 0.950 . S
C456 H448 0.950 . S
C456 C457 1.386 . S
C456 C458 1.391 . S
C457 C456 1.386 . S
C457 C461 1.393 . S
C458 H450 0.950 . S
C458 C456 1.391 . S
C458 C459 1.400 . S
C459 C458 1.400 . S
C459 C460 1.398 . S
C459 C465 1.491 . S
C460 H451 0.950 . S
C460 C459 1.398 . S
C460 C461 1.391 . S
C461 H449 0.950 . S
C461 C457 1.393 . S
C461 C460 1.391 . S
C462 H452 0.950 . S
C462 C463 1.386 . S
C462 C464 1.391 . S
C463 C462 1.386 . S
C463 C467 1.393 . S
C464 H453 0.950 . S
C464 C462 1.391 . S
C464 C465 1.400 . S
C465 C459 1.491 . S
C465 C464 1.400 . S
C465 C466 1.398 . S
C466 H454 0.950 . S
C466 C465 1.398 . S
C466 C467 1.391 . S
C467 H455 0.950 . S
C467 C463 1.393 . S
C467 C466 1.391 . S
H468 C476 0.950 . S
H469 C481 0.950 . S
H470 C478 0.950 . S
H471 C480 0.950 . S
H472 C482 0.950 . S
H473 C484 0.950 . S
H474 C486 0.950 . S
H475 C487 0.950 . S
C476 H468 0.950 . S
C476 C477 1.386 1_455 S
C476 C478 1.391 . S
C477 C476 1.386 1_655 S
C477 C481 1.393 . S
C478 H470 0.950 . S
C478 C476 1.391 . S
C478 C479 1.400 1_455 S
C479 C478 1.400 1_655 S
C479 C480 1.398 . S
C479 C485 1.491 . S
C480 H471 0.950 . S
C480 C479 1.398 . S
C480 C481 1.391 . S
C481 H469 0.950 . S
C481 C477 1.393 . S
C481 C480 1.391 . S
C482 H472 0.950 . S
C482 C483 1.386 . S
C482 C484 1.391 . S
C483 C482 1.386 . S
C483 C487 1.393 1_655 S
C484 H473 0.950 . S
C484 C482 1.391 . S
C484 C485 1.400 . S
C485 C479 1.491 . S
C485 C484 1.400 . S
C485 C486 1.398 1_655 S
C486 H474 0.950 . S
C486 C485 1.398 1_455 S
C486 C487 1.391 . S
C487 H475 0.950 . S
C487 C483 1.393 1_455 S
C487 C486 1.391 . S
H488 C496 0.950 . S
H489 C501 0.950 . S
H490 C498 0.943 1_554 S
H491 C500 0.950 . S
H492 C502 0.950 . S
H493 C504 0.950 . S
H494 C506 0.950 . S
H495 C507 0.950 . S
C496 H488 0.950 . S
C496 C497 1.386 . S
C496 C498 1.383 1_554 S
C497 C496 1.386 . S
C497 C501 1.393 1_554 S
C498 H490 0.943 1_556 S
C498 C496 1.383 1_556 S
C498 C499 1.415 . S
C499 C498 1.415 . S
C499 C500 1.398 . S
C499 C505 1.491 . S
C500 H491 0.950 . S
C500 C499 1.398 . S
C500 C501 1.391 . S
C501 H489 0.950 . S
C501 C497 1.393 1_556 S
C501 C500 1.391 . S
C502 H492 0.950 . S
C502 C503 1.386 . S
C502 C504 1.391 . S
C503 C502 1.386 . S
C503 C507 1.393 . S
C504 H493 0.950 . S
C504 C502 1.391 . S
C504 C505 1.400 . S
C505 C499 1.491 . S
C505 C504 1.400 . S
C505 C506 1.398 . S
C506 H494 0.950 . S
C506 C505 1.398 . S
C506 C507 1.391 . S
C507 H495 0.950 . S
C507 C503 1.393 . S
C507 C506 1.391 . S
H508 C516 0.950 . S
H509 C521 0.950 . S
H510 C518 0.950 . S
H511 C520 0.950 . S
H512 C522 0.950 . S
H513 C524 0.950 . S
H514 C526 0.950 . S
H515 C527 0.950 . S
C516 H508 0.950 . S
C516 C517 1.386 1_556 S
C516 C518 1.391 . S
C517 C516 1.386 1_554 S
C517 C521 1.393 . S
C518 H510 0.950 . S
C518 C516 1.391 . S
C518 C519 1.400 . S
C519 C518 1.400 . S
C519 C520 1.398 1_556 S
C519 C525 1.491 . S
C520 H511 0.950 . S
C520 C519 1.398 1_554 S
C520 C521 1.391 . S
C521 H509 0.950 . S
C521 C517 1.393 . S
C521 C520 1.391 . S
C522 H512 0.950 . S
C522 C523 1.386 . S
C522 C524 1.391 . S
C523 C522 1.386 . S
C523 C527 1.393 . S
C524 H513 0.950 . S
C524 C522 1.391 . S
C524 C525 1.400 . S
C525 C519 1.491 . S
C525 C524 1.400 . S
C525 C526 1.398 . S
C526 H514 0.950 . S
C526 C525 1.398 . S
C526 C527 1.391 . S
C527 H515 0.950 . S
C527 C523 1.393 . S
C527 C526 1.391 . S
H528 C536 0.950 . S
H529 C541 0.950 . S
H530 C538 0.950 . S
H531 C540 0.950 . S
H532 C542 0.950 . S
H533 C544 0.950 . S
H534 C546 0.950 . S
H535 C547 0.950 . S
C536 H528 0.950 . S
C536 C537 1.386 . S
C536 C538 1.391 . S
C537 C536 1.386 . S
C537 C541 1.393 1_554 S
C538 H530 0.950 . S
C538 C536 1.391 . S
C538 C539 1.400 1_554 S
C539 C538 1.400 1_556 S
C539 C540 1.398 . S
C539 C545 1.491 . S
C540 H531 0.950 . S
C540 C539 1.398 . S
C540 C541 1.391 . S
C541 H529 0.950 . S
C541 C537 1.393 1_556 S
C541 C540 1.391 . S
C542 H532 0.950 . S
C542 C543 1.386 . S
C542 C544 1.391 . S
C543 C542 1.386 . S
C543 C547 1.393 . S
C544 H533 0.950 . S
C544 C542 1.391 . S
C544 C545 1.400 . S
C545 C539 1.491 . S
C545 C544 1.400 . S
C545 C546 1.398 . S
C546 H534 0.950 . S
C546 C545 1.398 . S
C546 C547 1.391 . S
C547 H535 0.950 . S
C547 C543 1.393 . S
C547 C546 1.391 . S
H548 C556 0.950 . S
H549 C561 0.950 . S
H550 C558 0.950 . S
H551 C560 0.953 . S
H552 C562 0.950 . S
H553 C564 0.950 . S
H554 C566 0.950 . S
H555 C567 0.950 . S
C556 H548 0.950 . S
C556 C557 1.386 . S
C556 C558 1.391 . S
C557 C556 1.386 . S
C557 C561 1.392 1_454 S
C558 H550 0.950 . S
C558 C556 1.391 . S
C558 C559 1.400 1_554 S
C559 C558 1.400 1_556 S
C559 C560 1.394 1_455 S
C559 C565 1.491 . S
C560 H551 0.953 . S
C560 C559 1.394 1_655 S
C560 C561 1.392 . S
C561 H549 0.950 . S
C561 C557 1.392 1_656 S
C561 C560 1.392 . S
C562 H552 0.950 . S
C562 C563 1.386 . S
C562 C564 1.391 . S
C563 C562 1.386 . S
C563 C567 1.393 . S
C564 H553 0.950 . S
C564 C562 1.391 . S
C564 C565 1.400 . S
C565 C559 1.491 . S
C565 C564 1.400 . S
C565 C566 1.398 . S
C566 H554 0.950 . S
C566 C565 1.398 . S
C566 C567 1.391 . S
C567 H555 0.950 . S
C567 C563 1.393 . S
C567 C566 1.391 . S
H568 C576 0.950 . S
H569 C581 0.950 . S
H570 C578 0.950 . S
H571 C580 0.950 . S
H572 C582 0.950 1_455 S
H573 C584 0.949 . S
H574 C586 0.950 . S
H575 C587 0.950 . S
C576 H568 0.950 . S
C576 C577 1.386 1_655 S
C576 C578 1.391 . S
C577 C576 1.386 1_455 S
C577 C581 1.393 . S
C578 H570 0.950 . S
C578 C576 1.391 . S
C578 C579 1.400 . S
C579 C578 1.400 . S
C579 C580 1.398 1_655 S
C579 C585 1.491 . S
C580 H571 0.950 . S
C580 C579 1.398 1_455 S
C580 C581 1.391 . S
C581 H569 0.950 . S
C581 C577 1.393 . S
C581 C580 1.391 . S
C582 H572 0.950 1_655 S
C582 C583 1.386 . S
C582 C584 1.391 1_655 S
C583 C582 1.386 . S
C583 C587 1.393 . S
C584 H573 0.949 . S
C584 C582 1.391 1_455 S
C584 C585 1.400 1_455 S
C585 C579 1.491 . S
C585 C584 1.400 1_655 S
C585 C586 1.398 . S
C586 H574 0.950 . S
C586 C585 1.398 . S
C586 C587 1.391 . S
C587 H575 0.950 . S
C587 C583 1.393 . S
C587 C586 1.391 . S
H588 C596 0.950 . S
H589 C601 0.950 . S
H590 C598 0.950 . S
H591 C600 0.950 . S
H592 C602 0.950 . S
H593 C604 0.950 . S
H594 C606 0.950 . S
H595 C607 0.950 1_565 S
C596 H588 0.950 . S
C596 C597 1.386 . S
C596 C598 1.391 . S
C597 C596 1.386 . S
C597 C601 1.393 . S
C598 H590 0.950 . S
C598 C596 1.391 . S
C598 C599 1.400 . S
C599 C598 1.400 . S
C599 C600 1.398 . S
C599 C605 1.491 . S
C600 H591 0.950 . S
C600 C599 1.398 . S
C600 C601 1.391 . S
C601 H589 0.950 . S
C601 C597 1.393 . S
C601 C600 1.391 . S
C602 H592 0.950 . S
C602 C603 1.386 . S
C602 C604 1.391 . S
C603 C602 1.386 . S
C603 C607 1.393 . S
C604 H593 0.950 . S
C604 C602 1.391 . S
C604 C605 1.400 . S
C605 C599 1.491 . S
C605 C604 1.400 . S
C605 C606 1.398 . S
C606 H594 0.950 . S
C606 C605 1.398 . S
C606 C607 1.391 . S
C607 H595 0.950 1_545 S
C607 C603 1.393 . S
C607 C606 1.391 . S
H608 C616 0.950 . S
H609 C621 0.950 . S
H610 C618 0.950 . S
H611 C620 0.950 . S
H612 C622 0.950 . S
H613 C624 0.950 . S
H614 C626 0.950 . S
H615 C627 0.950 . S
C616 H608 0.950 . S
C616 C617 1.386 . S
C616 C618 1.391 . S
C617 C616 1.386 . S
C617 C621 1.393 . S
C618 H610 0.950 . S
C618 C616 1.391 . S
C618 C619 1.400 . S
C619 C618 1.400 . S
C619 C620 1.398 . S
C619 C625 1.491 . S
C620 H611 0.950 . S
C620 C619 1.398 . S
C620 C621 1.391 . S
C621 H609 0.950 . S
C621 C617 1.393 . S
C621 C620 1.391 . S
C622 H612 0.950 . S
C622 C623 1.386 . S
C622 C624 1.391 . S
C623 C622 1.386 . S
C623 C627 1.393 . S
C624 H613 0.950 . S
C624 C622 1.391 . S
C624 C625 1.400 . S
C625 C619 1.491 . S
C625 C624 1.400 . S
C625 C626 1.398 . S
C626 H614 0.950 . S
C626 C625 1.398 . S
C626 C627 1.391 . S
C627 H615 0.950 . S
C627 C623 1.393 . S
C627 C626 1.391 . S
H628 C636 0.950 . S
H629 C641 0.950 . S
H630 C638 0.950 . S
H631 C640 0.950 . S
H632 C642 0.950 . S
H633 C644 0.950 . S
H634 C646 0.950 . S
H635 C647 0.950 . S
C636 H628 0.950 . S
C636 C637 1.386 . S
C636 C638 1.391 . S
C637 C636 1.386 . S
C637 C641 1.393 . S
C638 H630 0.950 . S
C638 C636 1.391 . S
C638 C639 1.400 . S
C639 C638 1.400 . S
C639 C640 1.398 . S
C639 C645 1.491 . S
C640 H631 0.950 . S
C640 C639 1.398 . S
C640 C641 1.391 . S
C641 H629 0.950 . S
C641 C637 1.393 . S
C641 C640 1.391 . S
C642 H632 0.950 . S
C642 C643 1.386 . S
C642 C644 1.391 . S
C643 C642 1.386 . S
C643 C647 1.393 . S
C644 H633 0.950 . S
C644 C642 1.391 . S
C644 C645 1.400 . S
C645 C639 1.491 . S
C645 C644 1.400 . S
C645 C646 1.398 . S
C646 H634 0.950 . S
C646 C645 1.398 . S
C646 C647 1.391 . S
C647 H635 0.950 . S
C647 C643 1.393 . S
C647 C646 1.391 . S
H648 C656 0.950 1_554 S
H649 C661 0.950 . S
H650 C658 0.950 . S
H651 C660 0.950 . S
H652 C662 0.950 . S
H653 C664 0.950 1_655 S
H654 C666 0.950 . S
H655 C667 0.950 . S
C656 H648 0.950 1_556 S
C656 C657 1.386 1_455 S
C656 C658 1.391 . S
C657 C656 1.386 1_655 S
C657 C661 1.393 . S
C658 H650 0.950 . S
C658 C656 1.391 . S
C658 C659 1.400 . S
C659 C658 1.400 . S
C659 C660 1.398 1_455 S
C659 C665 1.491 . S
C660 H651 0.950 . S
C660 C659 1.398 1_655 S
C660 C661 1.391 . S
C661 H649 0.950 . S
C661 C657 1.393 . S
C661 C660 1.391 . S
C662 H652 0.950 . S
C662 C663 1.386 . S
C662 C664 1.391 . S
C663 C662 1.386 . S
C663 C667 1.393 . S
C664 H653 0.950 1_455 S
C664 C662 1.391 . S
C664 C665 1.400 . S
C665 C659 1.491 . S
C665 C664 1.400 . S
C665 C666 1.398 . S
C666 H654 0.950 . S
C666 C665 1.398 . S
C666 C667 1.391 . S
C667 H655 0.950 . S
C667 C663 1.393 . S
C667 C666 1.391 . S
H668 C676 0.950 . S
H669 C681 0.950 . S
H670 C678 0.950 . S
H671 C680 0.950 . S
H672 C682 0.950 . S
H673 C684 0.950 1_545 S
H674 C686 0.950 . S
H675 C687 0.950 . S
C676 H668 0.950 . S
C676 C677 1.386 . S
C676 C678 1.391 . S
C677 C676 1.386 . S
C677 C681 1.393 . S
C678 H670 0.950 . S
C678 C676 1.391 . S
C678 C679 1.400 . S
C679 C678 1.400 . S
C679 C680 1.398 . S
C679 C685 1.491 . S
C680 H671 0.950 . S
C680 C679 1.398 . S
C680 C681 1.391 . S
C681 H669 0.950 . S
C681 C677 1.393 . S
C681 C680 1.391 . S
C682 H672 0.950 . S
C682 C683 1.386 . S
C682 C684 1.391 1_545 S
C683 C682 1.386 . S
C683 C687 1.393 1_545 S
C684 H673 0.950 1_565 S
C684 C682 1.391 1_565 S
C684 C685 1.400 . S
C685 C679 1.491 . S
C685 C684 1.400 . S
C685 C686 1.398 . S
C686 H674 0.950 . S
C686 C685 1.398 . S
C686 C687 1.391 . S
C687 H675 0.950 . S
C687 C683 1.393 1_565 S
C687 C686 1.391 . S
H688 C696 0.950 1_554 S
H689 C701 0.950 . S
H690 C698 0.950 . S
H691 C700 0.950 . S
H692 C702 0.950 . S
H693 C704 0.950 . S
H694 C706 0.950 . S
H695 C707 0.950 . S
C696 H688 0.950 1_556 S
C696 C697 1.386 . S
C696 C698 1.391 . S
C697 C696 1.386 . S
C697 C701 1.393 . S
C698 H690 0.950 . S
C698 C696 1.391 . S
C698 C699 1.400 . S
C699 C698 1.400 . S
C699 C700 1.398 . S
C699 C705 1.491 . S
C700 H691 0.950 . S
C700 C699 1.398 . S
C700 C701 1.391 . S
C701 H689 0.950 . S
C701 C697 1.393 . S
C701 C700 1.391 . S
C702 H692 0.950 . S
C702 C703 1.386 . S
C702 C704 1.391 . S
C703 C702 1.386 . S
C703 C707 1.393 . S
C704 H693 0.950 . S
C704 C702 1.391 . S
C704 C705 1.400 . S
C705 C699 1.491 . S
C705 C704 1.400 . S
C705 C706 1.398 . S
C706 H694 0.950 . S
C706 C705 1.398 . S
C706 C707 1.391 . S
C707 H695 0.950 . S
C707 C703 1.393 . S
C707 C706 1.391 . S
H708 C716 0.950 1_554 S
H709 C721 0.950 . S
H710 C718 0.950 . S
H711 C720 0.950 . S
H712 C722 0.950 . S
H713 C724 0.950 . S
H714 C726 0.950 . S
H715 C727 0.950 . S
C716 H708 0.950 1_556 S
C716 C717 1.386 . S
C716 C718 1.391 . S
C717 C716 1.386 . S
C717 C721 1.393 . S
C718 H710 0.950 . S
C718 C716 1.391 . S
C718 C719 1.400 . S
C719 C718 1.400 . S
C719 C720 1.398 . S
C719 C725 1.491 . S
C720 H711 0.950 . S
C720 C719 1.398 . S
C720 C721 1.391 . S
C721 H709 0.950 . S
C721 C717 1.393 . S
C721 C720 1.391 . S
C722 H712 0.950 . S
C722 C723 1.386 . S
C722 C724 1.391 . S
C723 C722 1.386 . S
C723 C727 1.393 . S
C724 H713 0.950 . S
C724 C722 1.391 . S
C724 C725 1.400 . S
C725 C719 1.491 . S
C725 C724 1.400 . S
C725 C726 1.398 . S
C726 H714 0.950 . S
C726 C725 1.398 . S
C726 C727 1.391 . S
C727 H715 0.950 . S
C727 C723 1.393 . S
C727 C726 1.391 . S
H728 C736 0.950 . S
H729 C741 0.950 . S
H730 C738 0.950 . S
H731 C740 0.950 . S
H732 C742 0.952 . S
H733 C744 0.950 . S
H734 C746 0.950 . S
H735 C747 0.950 . S
C736 H728 0.950 . S
C736 C737 1.386 . S
C736 C738 1.391 . S
C737 C736 1.386 . S
C737 C741 1.393 1_455 S
C738 H730 0.950 . S
C738 C736 1.391 . S
C738 C739 1.400 . S
C739 C738 1.400 . S
C739 C740 1.398 1_455 S
C739 C745 1.491 . S
C740 H731 0.950 . S
C740 C739 1.398 1_655 S
C740 C741 1.391 . S
C741 H729 0.950 . S
C741 C737 1.393 1_655 S
C741 C740 1.391 . S
C742 H732 0.952 . S
C742 C743 1.383 1_654 S
C742 C744 1.391 . S
C743 C742 1.383 1_456 S
C743 C747 1.393 . S
C744 H733 0.950 . S
C744 C742 1.391 . S
C744 C745 1.400 1_655 S
C745 C739 1.491 . S
C745 C744 1.400 1_455 S
C745 C746 1.398 1_554 S
C746 H734 0.950 . S
C746 C745 1.398 1_556 S
C746 C747 1.391 . S
C747 H735 0.950 . S
C747 C743 1.393 . S
C747 C746 1.391 . S
H748 C756 0.950 . S
H749 C761 0.950 . S
H750 C758 0.950 . S
H751 C760 0.950 . S
H752 C762 0.950 . S
H753 C764 0.950 1_556 S
H754 C766 0.950 . S
H755 C767 0.950 . S
C756 H748 0.950 . S
C756 C757 1.386 . S
C756 C758 1.391 . S
C757 C756 1.386 . S
C757 C761 1.393 . S
C758 H750 0.950 . S
C758 C756 1.391 . S
C758 C759 1.400 . S
C759 C758 1.400 . S
C759 C760 1.398 . S
C759 C765 1.491 . S
C760 H751 0.950 . S
C760 C759 1.398 . S
C760 C761 1.391 . S
C761 H749 0.950 . S
C761 C757 1.393 . S
C761 C760 1.391 . S
C762 H752 0.950 . S
C762 C763 1.386 . S
C762 C764 1.391 1_556 S
C763 C762 1.386 . S
C763 C767 1.393 1_556 S
C764 H753 0.950 1_554 S
C764 C762 1.391 1_554 S
C764 C765 1.400 . S
C765 C759 1.491 . S
C765 C764 1.400 . S
C765 C766 1.398 . S
C766 H754 0.950 . S
C766 C765 1.398 . S
C766 C767 1.391 . S
C767 H755 0.950 . S
C767 C763 1.393 1_554 S
C767 C766 1.391 . S
H768 C776 0.950 . S
H769 C781 0.950 . S
H770 C778 0.950 1_556 S
H771 C780 0.950 . S
H772 C782 0.950 . S
H773 C784 0.950 . S
H774 C786 0.950 . S
H775 C787 0.950 . S
C776 H768 0.950 . S
C776 C777 1.386 . S
C776 C778 1.391 . S
C777 C776 1.386 . S
C777 C781 1.393 . S
C778 H770 0.950 1_554 S
C778 C776 1.391 . S
C778 C779 1.400 . S
C779 C778 1.400 . S
C779 C780 1.398 . S
C779 C785 1.491 1_554 S
C780 H771 0.950 . S
C780 C779 1.398 . S
C780 C781 1.391 . S
C781 H769 0.950 . S
C781 C777 1.393 . S
C781 C780 1.391 . S
C782 H772 0.950 . S
C782 C783 1.386 . S
C782 C784 1.391 1_556 S
C783 C782 1.386 . S
C783 C787 1.393 . S
C784 H773 0.950 . S
C784 C782 1.391 1_554 S
C784 C785 1.400 1_554 S
C785 C779 1.491 1_556 S
C785 C784 1.400 1_556 S
C785 C786 1.398 . S
C786 H774 0.950 . S
C786 C785 1.398 . S
C786 C787 1.391 . S
C787 H775 0.950 . S
C787 C783 1.393 . S
C787 C786 1.391 . S
H788 C796 0.950 . S
H789 C801 0.950 . S
H790 C798 0.950 . S
H791 C800 0.950 1_556 S
H792 C802 0.950 . S
H793 C804 0.950 . S
H794 C806 0.950 . S
H795 C807 0.950 . S
C796 H788 0.950 . S
C796 C797 1.386 . S
C796 C798 1.391 . S
C797 C796 1.386 . S
C797 C801 1.393 . S
C798 H790 0.950 . S
C798 C796 1.391 . S
C798 C799 1.400 . S
C799 C798 1.400 . S
C799 C800 1.398 . S
C799 C805 1.491 1_554 S
C800 H791 0.950 1_554 S
C800 C799 1.398 . S
C800 C801 1.391 . S
C801 H789 0.950 . S
C801 C797 1.393 . S
C801 C800 1.391 . S
C802 H792 0.950 . S
C802 C803 1.386 . S
C802 C804 1.391 . S
C803 C802 1.386 . S
C803 C807 1.393 . S
C804 H793 0.950 . S
C804 C802 1.391 . S
C804 C805 1.400 . S
C805 C799 1.491 1_556 S
C805 C804 1.400 . S
C805 C806 1.398 1_556 S
C806 H794 0.950 . S
C806 C805 1.398 1_554 S
C806 C807 1.391 1_554 S
C807 H795 0.950 . S
C807 C803 1.393 . S
C807 C806 1.391 1_556 S
H808 C816 0.950 . S
H809 C821 0.950 . S
H810 C818 0.950 . S
H811 C820 0.950 . S
H812 C822 0.950 . S
H813 C824 0.950 . S
H814 C826 0.950 . S
H815 C827 0.935 1_455 S
C816 H808 0.950 . S
C816 C817 1.386 1_455 S
C816 C818 1.391 . S
C817 C816 1.386 1_655 S
C817 C821 1.393 . S
C818 H810 0.950 . S
C818 C816 1.391 . S
C818 C819 1.400 1_455 S
C819 C818 1.400 1_655 S
C819 C820 1.398 . S
C819 C825 1.491 . S
C820 H811 0.950 . S
C820 C819 1.398 . S
C820 C821 1.391 . S
C821 H809 0.950 . S
C821 C817 1.393 . S
C821 C820 1.391 . S
C822 H812 0.950 . S
C822 C823 1.386 . S
C822 C824 1.391 . S
C823 C822 1.386 . S
C823 C827 1.411 . S
C824 H813 0.950 . S
C824 C822 1.391 . S
C824 C825 1.400 . S
C825 C819 1.491 . S
C825 C824 1.400 . S
C825 C826 1.398 1_655 S
C826 H814 0.950 . S
C826 C825 1.398 1_455 S
C826 C827 1.390 1_455 S
C827 H815 0.935 1_655 S
C827 C823 1.411 . S
C827 C826 1.390 1_655 S
H828 C836 0.950 . S
H829 C841 0.950 . S
H830 C838 0.950 . S
H831 C840 0.950 . S
H832 C842 0.950 . S
H833 C844 0.950 . S
H834 C846 0.950 . S
H835 C847 0.950 . S
C836 H828 0.950 . S
C836 C837 1.386 . S
C836 C838 1.391 . S
C837 C836 1.386 . S
C837 C841 1.393 . S
C838 H830 0.950 . S
C838 C836 1.391 . S
C838 C839 1.400 . S
C839 C838 1.400 . S
C839 C840 1.398 . S
C839 C845 1.491 . S
C840 H831 0.950 . S
C840 C839 1.398 . S
C840 C841 1.391 . S
C841 H829 0.950 . S
C841 C837 1.393 . S
C841 C840 1.391 . S
C842 H832 0.950 . S
C842 C843 1.386 . S
C842 C844 1.391 . S
C843 C842 1.386 . S
C843 C847 1.393 . S
C844 H833 0.950 . S
C844 C842 1.391 . S
C844 C845 1.400 . S
C845 C839 1.491 . S
C845 C844 1.400 . S
C845 C846 1.398 . S
C846 H834 0.950 . S
C846 C845 1.398 . S
C846 C847 1.391 . S
C847 H835 0.950 . S
C847 C843 1.393 . S
C847 C846 1.391 . S
H848 C856 0.950 . S
H849 C861 0.950 . S
H850 C858 0.950 . S
H851 C860 0.950 . S
H852 C862 0.950 . S
H853 C864 0.950 . S
H854 C866 0.950 . S
H855 C867 0.950 . S
C856 H848 0.950 . S
C856 C857 1.386 . S
C856 C858 1.391 . S
C857 C856 1.386 . S
C857 C861 1.393 . S
C858 H850 0.950 . S
C858 C856 1.391 . S
C858 C859 1.400 . S
C859 C858 1.400 . S
C859 C860 1.398 . S
C859 C865 1.491 . S
C860 H851 0.950 . S
C860 C859 1.398 . S
C860 C861 1.391 . S
C861 H849 0.950 . S
C861 C857 1.393 . S
C861 C860 1.391 . S
C862 H852 0.950 . S
C862 C863 1.386 . S
C862 C864 1.391 . S
C863 C862 1.386 . S
C863 C867 1.393 . S
C864 H853 0.950 . S
C864 C862 1.391 . S
C864 C865 1.400 . S
C865 C859 1.491 . S
C865 C864 1.400 . S
C865 C866 1.398 . S
C866 H854 0.950 . S
C866 C865 1.398 . S
C866 C867 1.391 . S
C867 H855 0.950 . S
C867 C863 1.393 . S
C867 C866 1.391 . S
H868 C876 0.950 . S
H869 C881 0.950 . S
H870 C878 0.950 . S
H871 C880 0.950 . S
H872 C882 0.950 . S
H873 C884 0.950 . S
H874 C886 0.950 . S
H875 C887 0.950 . S
C876 H868 0.950 . S
C876 C877 1.386 . S
C876 C878 1.391 . S
C877 C876 1.386 . S
C877 C881 1.393 . S
C878 H870 0.950 . S
C878 C876 1.391 . S
C878 C879 1.400 . S
C879 C878 1.400 . S
C879 C880 1.398 . S
C879 C885 1.491 . S
C880 H871 0.950 . S
C880 C879 1.398 . S
C880 C881 1.391 . S
C881 H869 0.950 . S
C881 C877 1.393 . S
C881 C880 1.391 . S
C882 H872 0.950 . S
C882 C883 1.386 . S
C882 C884 1.391 . S
C883 C882 1.386 . S
C883 C887 1.393 . S
C884 H873 0.950 . S
C884 C882 1.391 . S
C884 C885 1.400 . S
C885 C879 1.491 . S
C885 C884 1.400 . S
C885 C886 1.398 . S
C886 H874 0.950 . S
C886 C885 1.398 . S
C886 C887 1.391 . S
C887 H875 0.950 . S
C887 C883 1.393 . S
C887 C886 1.391 . S
C417 C241 1.840 . S
C423 C298 1.858 . S
C443 C328 1.745 . S
C437 C277 1.737 . S
C463 N362 1.739 . S
C457 C169 1.723 . S
C483 N392 1.370 . S
C477 C205 1.399 1_655 S
C503 C289 1.861 1_565 S
C497 C97 1.791 . S
C517 C133 1.725 . S
C523 C319 1.742 . S
C537 C25 1.690 . S
C543 N354 1.739 . S
C557 C61 1.380 . S
C563 N384 1.349 . S
C583 C304 0.490 . S
C577 C211 0.535 . S
C603 C334 0.649 . S
C597 C247 0.654 . S
C623 C375 0.544 . S
C617 C253 0.548 . S
C637 C175 0.584 . S
C643 C405 0.570 . S
C657 C67 0.597 1_655 S
C663 C315 0.444 . S
C683 C345 0.628 . S
C677 C103 0.659 . S
C703 C364 0.510 . S
C697 C109 0.544 . S
C717 C31 0.627 . S
C723 C394 0.581 . S
C737 C181 1.633 . S
C743 N294 1.684 . S
C757 C217 1.785 . S
C763 N324 1.840 . S
C783 C349 1.894 . S
C777 C283 1.810 . S
C803 C379 2.134 . S
C797 C145 2.053 . S
C817 C37 1.648 1_655 S
C823 N302 1.684 . S
C843 N332 1.837 . S
C837 C73 1.749 . S
C863 C358 1.895 . S
C857 C139 1.791 . S
C877 C1 2.007 . S
C883 C388 2.137 . S
