# Generated by pormake.
# Topology zzz, (3,6)-cn, num edge types: 1
# Building blocks:
#     Node 0, Type 0, BuildingBlock: VETTIZ_charged_linker_0, # of connection points: 3
#     Node 1, Type 0, BuildingBlock: VETTIZ_charged_linker_0, # of connection points: 3
#     Node 2, Type 0, BuildingBlock: VETTIZ_charged_linker_0, # of connection points: 3
#     Node 3, Type 0, BuildingBlock: VETTIZ_charged_linker_0, # of connection points: 3
#     Node 4, Type 0, BuildingBlock: VETTIZ_charged_linker_0, # of connection points: 3
#     Node 5, Type 0, BuildingBlock: VETTIZ_charged_linker_0, # of connection points: 3
#     Node 6, Type 0, BuildingBlock: VETTIZ_charged_linker_0, # of connection points: 3
#     Node 7, Type 0, BuildingBlock: VETTIZ_charged_linker_0, # of connection points: 3
#     Node 8, Type 1, BuildingBlock: INOVEN_clean_sbu_0, # of connection points: 6
#     Node 9, Type 1, BuildingBlock: INOVEN_clean_sbu_0, # of connection points: 6
#     Node 10, Type 1, BuildingBlock: INOVEN_clean_sbu_0, # of connection points: 6
#     Node 11, Type 1, BuildingBlock: INOVEN_clean_sbu_0, # of connection points: 6
#     Edge 12, Type (0, 1), BuildingBlock: AJUNOK_clean_linker_0, # of connection points: 2
#     Edge 13, Type (0, 1), BuildingBlock: AJUNOK_clean_linker_0, # of connection points: 2
#     Edge 14, Type (0, 1), BuildingBlock: AJUNOK_clean_linker_0, # of connection points: 2
#     Edge 15, Type (0, 1), BuildingBlock: AJUNOK_clean_linker_0, # of connection points: 2
#     Edge 16, Type (0, 1), BuildingBlock: AJUNOK_clean_linker_0, # of connection points: 2
#     Edge 17, Type (0, 1), BuildingBlock: AJUNOK_clean_linker_0, # of connection points: 2
#     Edge 18, Type (0, 1), BuildingBlock: AJUNOK_clean_linker_0, # of connection points: 2
#     Edge 19, Type (0, 1), BuildingBlock: AJUNOK_clean_linker_0, # of connection points: 2
#     Edge 20, Type (0, 1), BuildingBlock: AJUNOK_clean_linker_0, # of connection points: 2
#     Edge 21, Type (0, 1), BuildingBlock: AJUNOK_clean_linker_0, # of connection points: 2
#     Edge 22, Type (0, 1), BuildingBlock: AJUNOK_clean_linker_0, # of connection points: 2
#     Edge 23, Type (0, 1), BuildingBlock: AJUNOK_clean_linker_0, # of connection points: 2
#     Edge 24, Type (0, 1), BuildingBlock: AJUNOK_clean_linker_0, # of connection points: 2
#     Edge 25, Type (0, 1), BuildingBlock: AJUNOK_clean_linker_0, # of connection points: 2
#     Edge 26, Type (0, 1), BuildingBlock: AJUNOK_clean_linker_0, # of connection points: 2
#     Edge 27, Type (0, 1), BuildingBlock: AJUNOK_clean_linker_0, # of connection points: 2
#     Edge 28, Type (0, 1), BuildingBlock: AJUNOK_clean_linker_0, # of connection points: 2
#     Edge 29, Type (0, 1), BuildingBlock: AJUNOK_clean_linker_0, # of connection points: 2
#     Edge 30, Type (0, 1), BuildingBlock: AJUNOK_clean_linker_0, # of connection points: 2
#     Edge 31, Type (0, 1), BuildingBlock: AJUNOK_clean_linker_0, # of connection points: 2
#     Edge 32, Type (0, 1), BuildingBlock: AJUNOK_clean_linker_0, # of connection points: 2
#     Edge 33, Type (0, 1), BuildingBlock: AJUNOK_clean_linker_0, # of connection points: 2
#     Edge 34, Type (0, 1), BuildingBlock: AJUNOK_clean_linker_0, # of connection points: 2
#     Edge 35, Type (0, 1), BuildingBlock: AJUNOK_clean_linker_0, # of connection points: 2
# Relax obj value: 0.491
# Max RMSD: 0.266
# Mean RMSD: 0.256
data_MOF--net-zzz--node1-INOVEN_clean_sbu_0--node2-VETTIZ_charged_linker_0--edge1-AJUNOK_clean_linker_0
_symmetry_space_group_name_H-M    P1
_symmetry_Int_Tables_number       1
_symmetry_cell_setting            triclinic
loop_
_symmetry_equiv_pos_as_xyz
'x, y, z'
_cell_length_a     46.281262
_cell_length_b     46.151803
_cell_length_c     14.608955
_cell_angle_alpha  89.792826
_cell_angle_beta   89.909652
_cell_angle_gamma 89.874574
loop_
_atom_site_label
_atom_site_type_symbol
_atom_site_fract_x
_atom_site_fract_y
_atom_site_fract_z
_atom_type_partial_charge
C0 C 0.83318 0.51048 0.46751 0.0
C1 C 0.85219 0.49309 0.52329 0.0
C2 C 0.84601 0.46326 0.53079 0.0
C3 C 0.80964 0.46698 0.41337 0.0
C4 C 0.8109 0.49664 0.41516 0.0
C5 C 0.78514 0.50882 0.35954 0.0
H6 H 0.67558 0.46929 0.05038 0.0
C7 C 0.78914 0.45753 0.34366 0.0
C8 C 0.77237 0.48129 0.31437 0.0
H9 H 0.68217 0.5534 0.1748 0.0
H10 H 0.72634 0.53766 0.25688 0.0
H11 H 0.73733 0.46982 0.99676 0.0
H12 H 0.69267 0.42703 0.21354 0.0
H13 H 0.71646 0.4017 0.1627 0.0
H14 H 0.68954 0.41938 0.0934 0.0
H15 H 0.72547 0.43334 0.98369 0.0
H16 H 0.76125 0.44176 0.02522 0.0
C17 C 0.79572 0.53064 0.28738 0.0
C18 C 0.7636 0.52264 0.42681 0.0
C19 C 0.82415 0.37396 0.15466 0.0
C20 C 0.81627 0.36504 0.06634 0.0
C21 C 0.78821 0.37136 0.0349 0.0
C22 C 0.76983 0.3893 0.08625 0.0
C23 C 0.78018 0.40203 0.16731 0.0
C24 C 0.80635 0.3931 0.20258 0.0
C25 C 0.81488 0.40957 0.2868 0.0
C26 C 0.7902 0.43167 0.29201 0.0
C27 C 0.77052 0.42751 0.22075 0.0
C28 C 0.8445 0.42434 0.26968 0.0
C29 C 0.81575 0.38803 0.36848 0.0
C30 C 0.68577 0.48421 0.09741 0.0
C31 C 0.67447 0.51212 0.10845 0.0
C32 C 0.68984 0.53139 0.16649 0.0
C33 C 0.7152 0.52225 0.21476 0.0
C34 C 0.72565 0.49368 0.20407 0.0
C35 C 0.71098 0.47571 0.14389 0.0
C36 C 0.72626 0.44766 0.12867 0.0
C37 C 0.75009 0.44945 0.19924 0.0
C38 C 0.75072 0.47667 0.24389 0.0
C39 C 0.73812 0.4479 0.02872 0.0
C40 C 0.70519 0.42247 0.1501 0.0
H41 H 0.81936 0.42812 0.48974 0.0
H42 H 0.83556 0.53379 0.46524 0.0
H43 H 0.75709 0.50673 0.4803 0.0
H44 H 0.74376 0.53007 0.39211 0.0
H45 H 0.77353 0.54158 0.46135 0.0
H46 H 0.81192 0.52035 0.24149 0.0
H47 H 0.80594 0.54964 0.32067 0.0
H48 H 0.7775 0.53849 0.24472 0.0
H49 H 0.84551 0.36935 0.18099 0.0
H50 H 0.78147 0.36442 0.96749 0.0
H51 H 0.749 0.39401 0.05796 0.0
H52 H 0.84357 0.43847 0.20791 0.0
H53 H 0.86189 0.40806 0.25967 0.0
H54 H 0.85147 0.43778 0.32783 0.0
H55 H 0.796 0.38986 0.41149 0.0
H56 H 0.83517 0.39135 0.41162 0.0
H57 H 0.8172 0.36508 0.34593 0.0
H58 H 0.85856 0.4494 0.5757 0.0
C59 C 0.82441 0.45046 0.47829 0.0
C60 C 0.99549 0.79898 0.85007 0.0
C61 C 1.00021 0.82878 0.83926 0.0
C62 C 0.9837 0.84837 0.89209 0.0
C63 C 0.97015 0.80909 0.99099 0.0
C64 C 0.98025 0.78947 0.9275 0.0
C65 C 0.97779 0.75896 0.96209 0.0
H66 H 0.02034 0.66499 0.21889 0.0
C67 C 0.96732 0.79426 0.07963 0.0
C68 C 0.96881 0.76465 0.06186 0.0
H69 H 0.95355 0.65488 0.01225 0.0
H70 H 0.93905 0.7051 0.03593 0.0
H71 H 0.04313 0.73696 0.18981 0.0
H72 H 0.96595 0.71595 0.34716 0.0
H73 H 0.99353 0.73681 0.40174 0.0
H74 H 0.9999 0.69927 0.37698 0.0
H75 H 0.0457 0.712 0.28472 0.0
H76 H 0.04043 0.75011 0.30532 0.0
C77 C 1.00743 0.74342 0.95504 0.0
C78 C 0.95457 0.74338 0.9047 0.0
C79 C 0.99142 0.85632 0.35408 0.0
C80 C 1.00462 0.85201 0.43908 0.0
C81 C 0.01353 0.82331 0.46144 0.0
C82 C 1.0086 0.79961 0.40023 0.0
C83 C 0.995 0.80462 0.31509 0.0
C84 C 0.98744 0.833 0.29356 0.0
C85 C 0.97653 0.83618 0.19787 0.0
C86 C 0.97553 0.80473 0.1675 0.0
C87 C 0.98645 0.78551 0.23548 0.0
C88 C 0.99882 0.85478 0.14313 0.0
C89 C 0.94588 0.84958 0.20074 0.0
C90 C 1.00312 0.67369 0.17696 0.0
C91 C 0.9893 0.6559 0.10878 0.0
C92 C 0.96547 0.66771 0.06127 0.0
C93 C 0.95765 0.69662 0.07167 0.0
C94 C 0.97422 0.71428 0.12752 0.0
C95 C 0.99392 0.70324 0.18782 0.0
C96 C 1.00187 0.72756 0.25661 0.0
C97 C 0.98632 0.75459 0.21583 0.0
C98 C 0.97285 0.74539 0.1352 0.0
C99 C 0.03473 0.73191 0.2594 0.0
C100 C 0.98967 0.71952 0.3512 0.0
H101 H 0.95704 0.85384 0.01 0.0
H102 H 1.0067 0.78372 0.80652 0.0
H103 H 0.95574 0.75007 0.83156 0.0
H104 H 0.93248 0.74846 0.93011 0.0
H105 H 0.95789 0.71962 0.90418 0.0
H106 H 0.02416 0.75532 0.9944 0.0
H107 H 0.01466 0.74167 0.88281 0.0
H108 H 1.00643 0.72093 0.98138 0.0
H109 H 0.98507 0.87798 0.33328 0.0
H110 H 0.02417 0.81921 0.52618 0.0
H111 H 0.01596 0.77829 0.41934 0.0
H112 H 0.01531 0.86513 0.18751 0.0
H113 H 0.98835 0.87308 0.10653 0.0
H114 H 0.01132 0.84148 0.09368 0.0
H115 H 0.93267 0.83932 0.25565 0.0
H116 H 0.93394 0.84612 0.13621 0.0
H117 H 0.94687 0.87322 0.21436 0.0
H118 H 0.98582 0.87155 0.88252 0.0
C119 C 0.96814 0.8384 0.96786 0.0
C120 C 0.86129 1.01177 0.13814 0.0
C121 C 0.8799 0.02959 0.08321 0.0
C122 C 0.87076 0.05811 0.06357 0.0
C123 C 0.82372 0.0481 0.12688 0.0
C124 C 0.83338 0.02247 0.1637 0.0
C125 C 0.80896 1.00891 0.22106 0.0
H126 H 0.66158 1.00174 0.28056 0.0
C127 C 0.79221 0.04955 0.1349 0.0
C128 C 0.78328 0.02961 0.2026 0.0
H129 H 0.71555 0.02146 0.51401 0.0
H130 H 0.7578 0.0243 0.41152 0.0
H131 H 0.68617 0.06025 0.18922 0.0
H132 H 0.7036 0.96979 0.14061 0.0
H133 H 0.7089 0.98787 0.03568 0.0
H134 H 0.67348 0.98776 0.08805 0.0
H135 H 0.65956 0.0342 0.15438 0.0
H136 H 0.68166 0.05185 0.07221 0.0
C137 C 0.81717 1.00872 0.32282 0.0
C138 C 0.80243 0.97804 0.18746 0.0
C139 C 0.74227 0.08352 0.84304 0.0
C140 C 0.71553 0.0762 0.8044 0.0
C141 C 0.69924 0.05356 0.84434 0.0
C142 C 0.70809 0.04038 0.9257 0.0
C143 C 0.733 0.05047 0.96912 0.0
C144 C 0.75075 0.07005 0.92497 0.0
C145 C 0.77824 0.0753 0.97697 0.0
C146 C 0.77314 0.05636 0.06175 0.0
C147 C 0.74598 0.04306 0.05778 0.0
C148 C 0.77975 0.1077 1.00252 0.0
C149 C 0.804 0.06532 0.91643 0.0
C150 C 0.68206 1.00654 0.31236 0.0
C151 C 0.68409 1.01077 0.40799 0.0
C152 C 0.7124 0.01659 0.44248 0.0
C153 C 0.73708 0.0182 0.38357 0.0
C154 C 0.73376 0.01469 0.28851 0.0
C155 C 0.70612 1.01068 0.2547 0.0
C156 C 0.70436 0.01757 0.15389 0.0
C157 C 0.73505 0.02773 0.13459 0.0
C158 C 0.75304 0.02298 0.21019 0.0
C159 C 0.68179 0.04219 0.14096 0.0
C160 C 0.69704 0.98943 0.10139 0.0
H161 H 0.83655 0.08916 0.06808 0.0
H162 H 0.86798 0.99019 0.15817 0.0
H163 H 0.79675 0.97829 0.11352 0.0
H164 H 0.78398 0.96864 0.22614 0.0
H165 H 0.82147 0.96367 0.19721 0.0
H166 H 0.8206 0.03117 0.34792 0.0
H167 H 0.83743 0.9962 0.33366 0.0
H168 H 0.79986 0.99848 0.36438 0.0
H169 H 0.75555 0.10031 0.81268 0.0
H170 H 0.67842 0.04753 0.81666 0.0
H171 H 0.69443 0.02398 0.95452 0.0
H172 H 0.75867 0.11531 0.03032 0.0
H173 H 0.78511 0.12114 0.94157 0.0
H174 H 0.79602 0.11187 0.05613 0.0
H175 H 0.79882 0.06621 0.84221 0.0
H176 H 0.81031 0.04259 0.93207 0.0
H177 H 0.823 0.07963 0.92373 0.0
H178 H 0.8845 0.0727 0.02496 0.0
C179 C 0.84292 0.06748 0.08607 0.0
C180 C 0.53304 0.70744 0.43023 0.0
C181 C 0.5193 0.69622 0.51097 0.0
C182 C 0.50009 0.71505 0.55786 0.0
C183 C 0.49861 0.74674 0.42727 0.0
C184 C 0.52301 0.73419 0.39225 0.0
C185 C 0.53243 0.75158 0.30794 0.0
H186 H 0.48381 0.85326 0.98984 0.0
C187 C 0.4857 0.76589 0.35854 0.0
C188 C 0.50808 0.77449 0.29858 0.0
H189 H 0.55848 0.87242 0.15509 0.0
H190 H 0.54972 0.82771 0.24734 0.0
H191 H 0.48777 0.79501 0.95196 0.0
H192 H 0.43834 0.83223 0.15631 0.0
H193 H 0.4212 0.80406 0.09135 0.0
H194 H 0.43794 0.83369 0.03291 0.0
H195 H 0.45179 0.78291 0.96214 0.0
H196 H 0.48078 0.76241 0.01434 0.0
C197 C 0.53394 0.73169 0.22353 0.0
C198 C 0.56173 0.76609 0.32508 0.0
C199 C 0.39369 0.71755 0.26357 0.0
C200 C 0.39166 0.70384 0.17777 0.0
C201 C 0.40311 0.71854 0.10085 0.0
C202 C 0.42005 0.74331 0.1116 0.0
C203 C 0.42642 0.7532 0.19951 0.0
C204 C 0.41376 0.74017 0.27505 0.0
C205 C 0.43075 0.74649 0.36163 0.0
C206 C 0.45741 0.76188 0.32139 0.0
C207 C 0.45249 0.76843 0.2288 0.0
C208 C 0.43712 0.71797 0.41445 0.0
C209 C 0.41349 0.7676 0.42195 0.0
C210 C 0.49845 0.84793 0.04521 0.0
C211 C 0.52184 0.86633 0.06462 0.0
C212 C 0.54041 0.85859 0.13816 0.0
C213 C 0.53576 0.83285 0.19022 0.0
C214 C 0.51253 0.81464 0.16795 0.0
C215 C 0.49384 0.82277 0.09828 0.0
C216 C 0.46873 0.80214 0.09036 0.0
C217 C 0.47325 0.78373 0.17653 0.0
C218 C 0.5004 0.78866 0.21488 0.0
C219 C 0.4724 0.78459 1.0005 0.0
C220 C 0.4399 0.81901 0.093 0.0
H221 H 0.47327 0.7534 0.54932 0.0
H222 H 0.54965 0.69513 0.39548 0.0
H223 H 0.56038 0.78109 0.38433 0.0
H224 H 0.56864 0.77863 0.26385 0.0
H225 H 0.57855 0.7495 0.33994 0.0
H226 H 0.51271 0.72112 0.21154 0.0
H227 H 0.55052 0.71451 0.23318 0.0
H228 H 0.53973 0.74435 0.16132 0.0
H229 H 0.38305 0.70817 0.32241 0.0
H230 H 0.40209 0.70919 0.03311 0.0
H231 H 0.43073 0.75171 0.05247 0.0
H232 H 0.45506 0.70556 0.38243 0.0
H233 H 0.41809 0.70375 0.4192 0.0
H234 H 0.44113 0.72189 0.48757 0.0
H235 H 0.39319 0.75729 0.44639 0.0
H236 H 0.40772 0.78758 0.38322 0.0
H237 H 0.42644 0.77405 0.48248 0.0
H238 H 0.49149 0.70915 0.6243 0.0
C239 C 0.48973 0.74045 0.51611 0.0
C240 C 0.37987 0.49776 0.30027 0.0
C241 C 0.39815 0.51786 0.34826 0.0
C242 C 0.38961 0.54729 0.34795 0.0
C243 C 0.34383 0.53519 0.28053 0.0
C244 C 0.35287 0.50757 0.26287 0.0
C245 C 0.32791 0.49145 0.21543 0.0
H246 H 0.1754 0.50089 0.18588 0.0
C247 C 0.31229 0.5362 0.27656 0.0
C248 C 0.30231 0.51331 0.22003 0.0
H249 H 0.22372 0.49735 0.93429 0.0
H250 H 0.26993 0.49949 0.02251 0.0
H251 H 0.1985 0.46625 0.3088 0.0
H252 H 0.2157 0.55334 0.28599 0.0
H253 H 0.20739 0.53894 0.39714 0.0
H254 H 0.1839 0.53172 0.30541 0.0
H255 H 0.20097 0.48536 0.41273 0.0
H256 H 0.23169 0.46497 0.37135 0.0
C257 C 0.32102 0.46311 0.26692 0.0
C258 C 0.33579 0.48524 0.11527 0.0
C259 C 0.26589 0.57485 0.56895 0.0
C260 C 0.24176 0.56428 0.61738 0.0
C261 C 0.23134 0.53605 0.5972 0.0
C262 C 0.242 0.52082 0.52267 0.0
C263 C 0.26135 0.53479 0.46534 0.0
C264 C 0.27561 0.55924 0.49289 0.0
C265 C 0.30088 0.56566 0.43114 0.0
C266 C 0.29593 0.54293 0.35596 0.0
C267 C 0.27152 0.5265 0.37623 0.0
C268 C 0.32878 0.56109 0.48822 0.0
C269 C 0.29826 0.59671 0.39296 0.0
C270 C 0.19573 0.50018 0.14915 0.0
C271 C 0.19552 0.49894 0.05331 0.0
C272 C 0.22289 0.49803 1.00829 0.0
C273 C 0.24949 0.49917 0.05854 0.0
C274 C 0.24885 0.50072 0.15488 0.0
C275 C 0.22203 0.50141 0.19783 0.0
C276 C 0.22457 0.50654 0.29875 0.0
C277 C 0.25723 0.51089 0.30756 0.0
C278 C 0.27208 0.50529 0.22591 0.0
C279 C 0.21353 0.4794 0.35088 0.0
C280 C 0.20706 0.53417 0.32325 0.0
H281 H 0.35655 0.57848 0.3173 0.0
H282 H 0.38594 0.47518 0.29502 0.0
H283 H 0.34077 0.50573 0.07821 0.0
H284 H 0.31754 0.47444 0.07989 0.0
H285 H 0.35507 0.47089 0.1114 0.0
H286 H 0.31542 0.46769 0.33949 0.0
H287 H 0.33989 0.44819 0.26571 0.0
H288 H 0.30247 0.45184 0.23466 0.0
H289 H 0.27537 0.59559 0.58564 0.0
H290 H 0.21303 0.52664 0.63228 0.0
H291 H 0.23412 0.49945 0.50821 0.0
H292 H 0.32521 0.56541 0.56222 0.0
H293 H 0.34605 0.57645 0.46847 0.0
H294 H 0.33679 0.53844 0.48266 0.0
H295 H 0.27648 0.60035 0.36289 0.0
H296 H 0.31436 0.60076 0.33832 0.0
H297 H 0.30166 0.61291 0.44797 0.0
H298 H 0.40246 0.56339 0.38265 0.0
C299 C 0.36291 0.55605 0.31257 0.0
C300 C 0.87959 0.23593 0.39659 0.0
C301 C 0.86311 0.21631 0.34394 0.0
C302 C 0.86066 0.22196 0.24908 0.0
C303 C 0.90294 0.25197 0.25864 0.0
C304 C 0.89905 0.25424 0.35137 0.0
C305 C 0.9201 0.27535 0.39215 0.0
H306 H 0.04242 0.3544 0.34007 0.0
C307 C 0.93169 0.26333 0.23616 0.0
C308 C 0.94138 0.27854 0.31268 0.0
H309 H 0.97269 0.3641 0.53549 0.0
H310 H 0.9501 0.32162 0.47685 0.0
H311 H 0.03908 0.26683 0.3314 0.0
H312 H 1.00202 0.33126 0.14796 0.0
H313 H 0.02656 0.30356 0.10898 0.0
H314 H 0.04004 0.33383 0.17369 0.0
H315 H 0.05946 0.29982 0.32094 0.0
H316 H 0.05648 0.27698 0.22494 0.0
C317 C 0.93458 0.26182 0.47773 0.0
C318 C 0.90323 0.30387 0.41196 0.0
C319 C 0.98408 0.20085 1.00754 0.0
C320 C 0.0126 0.19073 1.00182 0.0
C321 C 0.03374 0.20596 0.05341 0.0
C322 C 0.02619 0.23021 0.10931 0.0
C323 C 0.99719 0.23948 0.11524 0.0
C324 C 0.97672 0.22363 0.06727 0.0
C325 C 0.94647 0.23097 0.09519 0.0
C326 C 0.95192 0.25301 0.17075 0.0
C327 C 0.9816 0.25995 0.17923 0.0
C328 C 0.9309 0.203 0.12975 0.0
C329 C 0.93141 0.24504 0.01188 0.0
C330 C 0.02205 0.34738 0.36891 0.0
C331 C 1.0089 0.36347 0.44179 0.0
C332 C 0.98283 0.35306 0.47841 0.0
C333 C 0.96939 0.32851 0.44331 0.0
C334 C 0.9815 0.31372 0.36895 0.0
C335 C 1.00776 0.32225 0.33315 0.0
C336 C 0.01676 0.3015 0.25542 0.0
C337 C 0.9901 0.28138 0.24684 0.0
C338 C 0.9698 0.28976 0.31379 0.0
C339 C 0.04433 0.28515 0.2847 0.0
C340 C 0.02165 0.31858 0.16625 0.0
H341 H 0.88085 0.2413 0.13214 0.0
H342 H 0.88028 0.23454 0.4704 0.0
H343 H 0.8805 0.30325 0.38722 0.0
H344 H 0.91312 0.32277 0.37672 0.0
H345 H 0.90205 0.30837 0.48654 0.0
H346 H 0.94233 0.23951 0.46262 0.0
H347 H 0.91911 0.26063 0.53582 0.0
H348 H 0.95358 0.27428 0.50078 0.0
H349 H 0.96706 0.18949 0.97171 0.0
H350 H 0.05604 0.19887 0.05176 0.0
H351 H 0.04268 0.24007 0.15001 0.0
H352 H 0.94134 0.18263 0.10676 0.0
H353 H 0.90852 0.20154 0.10347 0.0
H354 H 0.93066 0.20162 0.20567 0.0
H355 H 0.94504 0.26252 0.98196 0.0
H356 H 0.91062 0.25515 0.03013 0.0
H357 H 0.92734 0.22866 0.95786 0.0
H358 H 0.84539 0.21017 0.20745 0.0
C359 C 0.88129 0.2394 0.20535 0.0
C360 C 0.33206 0.01609 0.05764 0.0
C361 C 0.36303 0.01316 0.05788 0.0
C362 C 0.37691 0.01319 0.14343 0.0
C363 C 0.33114 0.01302 0.22468 0.0
C364 C 0.31643 0.01637 0.14319 0.0
C365 C 0.28386 0.02032 0.16364 0.0
H366 H 0.17876 0.01502 0.51194 0.0
C367 C 0.31034 1.011 0.30164 0.0
C368 C 0.28203 0.01624 0.26882 0.0
H369 H 0.16021 0.04001 0.23432 0.0
H370 H 0.21194 0.03305 0.19293 0.0
H371 H 0.21447 0.9638 0.46343 0.0
H372 H 0.2342 0.05097 0.53655 0.0
H373 H 0.25991 0.02988 0.59478 0.0
H374 H 0.22199 0.02396 0.61625 0.0
H375 H 0.21748 0.97444 0.58056 0.0
H376 H 0.2479 0.96008 0.51743 0.0
C377 C 0.26626 0.99712 0.1134 0.0
C378 C 0.27475 0.05112 0.13523 0.0
C379 C 0.34548 0.96421 0.59605 0.0
C380 C 0.33058 0.95389 0.6734 0.0
C381 C 0.30197 0.96234 0.68868 0.0
C382 C 0.28772 0.97964 0.62395 0.0
C383 C 0.30198 0.98745 0.54179 0.0
C384 C 0.3307 0.98058 0.53056 0.0
C385 C 0.34239 0.99026 0.43927 0.0
C386 C 0.31503 1.00198 0.39376 0.0
C387 C 0.29177 1.00029 0.45451 0.0
C388 C 0.35457 0.96317 0.38974 0.0
C389 C 0.36512 0.01436 0.45682 0.0
C390 C 0.18553 0.01923 0.44203 0.0
C391 C 0.16532 0.028 0.37731 0.0
C392 C 0.17536 0.03313 0.28645 0.0
C393 C 0.20528 0.02931 0.26261 0.0
C394 C 0.22537 0.02063 0.33043 0.0
C395 C 0.2146 0.01589 0.41805 0.0
C396 C 0.23688 1.0061 0.48372 0.0
C397 C 0.26358 1.00704 0.42478 0.0
C398 C 0.25782 0.01514 0.33293 0.0
C399 C 0.2289 0.97463 0.51364 0.0
C400 C 0.23835 0.02864 0.56253 0.0
H401 H 0.37379 0.01276 0.2867 0.0
H402 H 0.32048 0.01747 0.99347 0.0
H403 H 0.28861 0.06748 0.16938 0.0
H404 H 0.25212 0.05571 0.15456 0.0
H405 H 0.2769 0.05402 0.05997 0.0
H406 H 0.27391 0.97509 0.13278 0.0
H407 H 0.26854 0.99964 0.03805 0.0
H408 H 0.24302 0.99871 0.13099 0.0
H409 H 0.36774 0.95791 0.58405 0.0
H410 H 0.2904 0.95468 0.74855 0.0
H411 H 0.26578 0.98515 0.63925 0.0
H412 H 0.33869 0.94512 0.3924 0.0
H413 H 0.37485 0.95555 0.42269 0.0
H414 H 0.35935 0.96677 0.31684 0.0
H415 H 0.3648 0.02224 0.52873 0.0
H416 H 0.36095 0.03393 0.41438 0.0
H417 H 0.38742 1.00649 0.44314 0.0
H418 H 0.40029 0.01249 0.14724 0.0
C419 C 0.3614 0.01329 0.22525 0.0
C420 C 0.51341 0.31736 0.9669 0.0
C421 C 0.53607 0.33875 0.96019 0.0
C422 C 0.56247 0.33151 1.00485 0.0
C423 C 0.54 0.29156 0.08411 0.0
C424 C 0.51695 0.29273 0.02629 0.0
C425 C 0.49724 0.26697 0.04949 0.0
H426 H 0.47399 0.17362 0.42807 0.0
C427 C 0.53308 0.27261 0.16209 0.0
C428 C 0.51223 0.25225 0.13331 0.0
H429 H 0.52023 0.13532 0.20236 0.0
H430 H 0.52003 0.18302 0.12133 0.0
H431 H 0.51285 0.23381 0.45191 0.0
H432 H 0.43353 0.21566 0.39944 0.0
H433 H 0.43431 0.23072 0.28554 0.0
H434 H 0.4357 0.254 0.38334 0.0
H435 H 0.482 0.21525 0.49845 0.0
H436 H 0.48081 0.25296 0.4887 0.0
C437 C 0.49616 0.2458 0.96879 0.0
C438 C 0.46664 0.27797 0.07309 0.0
C439 C 0.52956 0.33534 0.44381 0.0
C440 C 0.50414 0.3462 0.48405 0.0
C441 C 0.4783 0.3304 0.47724 0.0
C442 C 0.4777 0.30485 0.42592 0.0
C443 C 0.50294 0.2957 0.38123 0.0
C444 C 0.52766 0.31215 0.38426 0.0
C445 C 0.54598 0.30845 0.29931 0.0
C446 C 0.52937 0.28439 0.25122 0.0
C447 C 0.50543 0.27627 0.30419 0.0
C448 C 0.57651 0.29832 0.32593 0.0
C449 C 0.54658 0.33756 0.24507 0.0
C450 C 0.48372 0.17502 0.36087 0.0
C451 C 0.4969 0.15039 0.32267 0.0
C452 C 0.50985 0.15368 0.23457 0.0
C453 C 0.50955 0.18088 0.18728 0.0
C454 C 0.4965 0.20512 0.22856 0.0
C455 C 0.48461 0.20191 0.31528 0.0
C456 C 0.47632 0.23058 0.35562 0.0
C457 C 0.4899 0.25094 0.28499 0.0
C458 C 0.49645 0.23669 0.20304 0.0
C459 C 0.48884 0.2334 0.45361 0.0
C460 C 0.44311 0.23298 0.35597 0.0
H461 H 0.58395 0.30502 0.1063 0.0
H462 H 0.49315 0.32015 0.9315 0.0
H463 H 0.46742 0.29343 0.13123 0.0
H464 H 0.45234 0.25963 0.09253 0.0
H465 H 0.45677 0.28921 0.01342 0.0
H466 H 0.51825 0.23813 0.95099 0.0
H467 H 0.48667 0.25646 0.90744 0.0
H468 H 0.48279 0.22661 0.98668 0.0
H469 H 0.54915 0.34818 0.44287 0.0
H470 H 0.45829 0.33924 0.50388 0.0
H471 H 0.45729 0.29448 0.41383 0.0
H472 H 0.58789 0.31547 0.36494 0.0
H473 H 0.58943 0.29325 0.26397 0.0
H474 H 0.57553 0.27845 0.36913 0.0
H475 H 0.5279 0.33936 0.19768 0.0
H476 H 0.5671 0.34039 0.20726 0.0
H477 H 0.5457 0.35694 0.28954 0.0
H478 H 0.5816 0.3446 0.99552 0.0
C479 C 0.56434 0.30841 0.06752 0.0
Gd480 Gd 0.04198 0.01287 0.77472 0.0
Gd481 Gd 0.99815 0.02872 0.66464 0.0
C482 C 0.0168 0.96375 0.63439 0.0
C483 C 0.07834 0.98699 0.88198 0.0
C484 C 0.09353 0.95931 0.8696 0.0
C485 C 0.10202 0.95076 0.78126 0.0
C486 C 0.09155 0.93841 0.93908 0.0
C487 C 0.09479 0.90066 0.82455 0.0
C488 C 0.09234 0.90905 0.91668 0.0
C489 C 0.10314 0.92139 0.75928 0.0
C490 C 0.06377 0.03423 0.6127 0.0
C491 C 0.02283 0.07787 0.80661 0.0
C492 C 0.96169 0.05173 0.55143 0.0
C493 C 0.93687 0.0717 0.54893 0.0
C494 C 0.911 0.06225 0.50897 0.0
C495 C 0.93915 0.10051 0.57852 0.0
C496 C 0.89193 0.11121 0.51353 0.0
C497 C 0.91679 0.12012 0.56094 0.0
C498 C 0.8886 0.08182 0.49184 0.0
C499 C 0.97564 1.00896 0.8281 0.0
O500 O 0.03 0.96818 0.71354 0.0
O501 O 1.00532 0.98613 0.59233 0.0
O502 O 0.08565 1.00808 0.82705 0.0
O503 O 0.05033 0.98441 0.88979 0.0
O504 O 0.07148 0.04247 0.69358 0.0
O505 O 0.04297 0.01654 0.62119 0.0
O506 O 1.0092 0.07338 0.72795 0.0
O507 O 0.03532 0.05554 0.84652 0.0
O508 O 0.95743 0.02702 0.5925 0.0
O509 O 0.98738 0.06248 0.56675 0.0
O510 O 0.96727 1.00111 0.74773 0.0
O511 O 0.99724 0.02555 0.81816 0.0
H512 H 0.10397 0.96649 0.72636 0.0
H513 H 0.08525 0.9446 1.00778 0.0
H514 H 0.08607 0.89348 0.9687 0.0
H515 H 0.10569 0.91527 0.68831 0.0
H516 H 0.90872 0.04003 0.48639 0.0
H517 H 0.95874 0.10826 0.61059 0.0
H518 H 0.91997 0.14274 0.57771 0.0
H519 H 0.86959 0.07444 0.45562 0.0
Gd520 Gd 0.52253 0.03123 0.75213 0.0
Gd521 Gd 0.50865 0.98879 0.64857 0.0
C522 C 0.572 1.00933 0.61375 0.0
C523 C 0.54646 0.07225 0.84377 0.0
C524 C 0.56673 0.09372 0.80756 0.0
C525 C 0.56911 0.09752 0.71228 0.0
C526 C 0.58746 0.10574 0.86515 0.0
C527 C 0.61641 0.11904 0.7319 0.0
C528 C 0.61209 0.11846 0.82769 0.0
C529 C 0.59374 0.11028 0.67463 0.0
C530 C 0.50068 0.05329 0.58961 0.0
C531 C 0.45998 1.01104 0.79552 0.0
C532 C 0.48616 0.94838 0.55026 0.0
C533 C 0.46837 0.92413 0.58261 0.0
C534 C 0.47202 0.9136 0.67241 0.0
C535 C 0.44378 0.91635 0.53327 0.0
C536 C 0.42281 0.89594 0.67214 0.0
C537 C 0.42118 0.90206 0.5775 0.0
C538 C 0.44945 0.89924 0.71664 0.0
C539 C 0.53097 0.96518 0.80662 0.0
O540 O 0.56778 0.01835 0.69833 0.0
O541 O 0.54894 1.00094 0.56866 0.0
O542 O 0.52023 0.07405 0.8122 0.0
O543 O 0.55634 0.04572 0.84359 0.0
O544 O 0.4914 0.05955 0.67041 0.0
O545 O 0.51901 0.03315 0.59775 0.0
O546 O 0.46379 0.99968 0.71302 0.0
O547 O 0.48284 0.02157 0.83635 0.0
O548 O 0.51298 0.94798 0.57695 0.0
O549 O 0.47423 0.97391 0.55967 0.0
O550 O 0.53948 0.95958 0.72457 0.0
O551 O 0.51312 0.98609 0.80255 0.0
H552 H 0.55324 0.0882 0.66665 0.0
H553 H 0.586 0.10282 0.93865 0.0
H554 H 0.62918 0.12447 0.8744 0.0
H555 H 0.59642 0.11038 0.60094 0.0
H556 H 0.49094 0.91928 0.71191 0.0
H557 H 0.44062 0.92423 0.46401 0.0
H558 H 0.40098 0.89999 0.54075 0.0
H559 H 0.45137 0.89467 0.78921 0.0
Gd560 Gd 0.51257 0.52302 0.79143 0.0
Gd561 Gd 0.55653 0.51361 0.67913 0.0
C562 C 0.53216 0.57703 0.66187 0.0
C563 C 0.47683 0.54361 0.90962 0.0
C564 C 0.45665 0.55551 0.9778 0.0
C565 C 0.42661 0.55356 0.96479 0.0
C566 C 0.46736 0.57303 0.04793 0.0
C567 C 0.41875 0.59015 0.08172 0.0
C568 C 0.44868 0.59025 0.09893 0.0
C569 C 0.40776 0.57086 0.0163 0.0
C570 C 0.4905 0.50462 0.62595 0.0
C571 C 0.53182 0.4584 0.79654 0.0
C572 C 0.59206 0.49938 0.55005 0.0
C573 C 0.58356 0.49456 0.45484 0.0
C574 C 0.595 0.46983 0.41296 0.0
C575 C 0.55497 0.5027 0.43386 0.0
C576 C 0.54603 0.45312 0.39415 0.0
C577 C 0.5357 0.48133 0.40589 0.0
C578 C 0.57587 0.44884 0.38105 0.0
C579 C 0.57877 0.52996 0.84665 0.0
O580 O 0.51986 0.56962 0.74 0.0
O581 O 0.54526 0.55677 0.6151 0.0
O582 O 0.50355 0.55251 0.90296 0.0
O583 O 0.46983 0.52266 0.85425 0.0
O584 O 0.48295 0.49505 0.70574 0.0
O585 O 0.51089 0.52272 0.63672 0.0
O586 O 0.5429 0.46632 0.7161 0.0
O587 O 0.52223 0.47894 0.85068 0.0
O588 O 0.58077 0.48071 0.60702 0.0
O589 O 0.58943 0.52579 0.57944 0.0
O590 O 0.58603 0.54049 0.76832 0.0
O591 O 0.55821 0.51234 0.83337 0.0
H592 H 0.41784 0.54023 0.91067 0.0
H593 H 0.49041 0.57498 0.05931 0.0
H594 H 0.45812 0.60538 0.14678 0.0
H595 H 0.38484 0.57035 1.00153 0.0
H596 H 0.61736 0.46377 0.42396 0.0
H597 H 0.54602 0.5227 0.46026 0.0
H598 H 0.51274 0.48544 0.41107 0.0
H599 H 0.58422 0.42736 0.36693 0.0
Gd600 Gd 0.01518 0.48712 0.84545 0.0
Gd601 Gd 0.03061 0.52839 0.72788 0.0
C602 C 0.96549 0.51042 0.70351 0.0
C603 C 0.99058 0.45256 0.96147 0.0
C604 C 0.96877 0.42982 0.95391 0.0
C605 C 0.95732 0.42218 0.86838 0.0
C606 C 0.95868 0.41619 0.03319 0.0
C607 C 0.92406 0.38883 0.9428 0.0
C608 C 0.93645 0.39596 0.02784 0.0
C609 C 0.93506 0.40182 0.86285 0.0
C610 C 0.03333 0.46124 0.68507 0.0
C611 C 0.08042 0.50472 0.8695 0.0
C612 C 0.05515 0.56296 0.61194 0.0
C613 C 0.0795 0.58277 0.62347 0.0
C614 C 0.08584 0.59363 0.71074 0.0
C615 C 0.09948 0.58617 0.55243 0.0
C616 C 0.13444 0.60483 0.66116 0.0
C617 C 0.12684 0.59729 0.57108 0.0
C618 C 0.11314 0.60481 0.7295 0.0
C619 C 1.01036 0.55355 0.88678 0.0
O620 O 0.97036 0.49926 0.78585 0.0
O621 O 0.98792 0.52019 0.65764 0.0
O622 O 0.01521 0.44695 0.92208 0.0
O623 O 0.98158 0.47896 0.94582 0.0
O624 O 0.04178 0.45431 0.76642 0.0
O625 O 0.01707 0.48329 0.69172 0.0
O626 O 0.07557 0.51653 0.78806 0.0
O627 O 0.05813 0.49472 0.9154 0.0
O628 O 0.03166 0.56962 0.65661 0.0
O629 O 0.06187 0.53555 0.61969 0.0
O630 O 1.00279 0.56065 0.8047 0.0
O631 O 0.02783 0.53239 0.88171 0.0
H632 H 0.96506 0.43257 0.80638 0.0
H633 H 0.9673 0.42193 0.09961 0.0
H634 H 0.92785 0.38723 0.09114 0.0
H635 H 0.92572 0.39701 0.79669 0.0
H636 H 0.07059 0.59103 0.76615 0.0
H637 H 0.09493 0.57781 0.48477 0.0
H638 H 0.14298 0.59686 0.51727 0.0
H639 H 0.11851 0.61051 0.79931 0.0
C640 C 0.1171 1.00752 0.42852 0.0
C641 C 0.1347 0.03198 0.41137 0.0
C642 C 0.09274 1.00882 0.48768 0.0
C643 C 0.0853 0.03447 0.53472 0.0
H644 H 0.1233 0.9867 0.40062 0.0
H645 H 0.08094 0.98907 0.50164 0.0
S646 S 0.12306 0.10496 0.51054 0.0
N647 N 0.14154 0.08299 0.44314 0.0
N648 N 0.09671 0.0853 0.55502 0.0
C649 C 0.10194 0.05928 0.51506 0.0
C650 C 0.12632 0.05807 0.4536 0.0
C651 C 0.47324 0.11413 0.43147 0.0
C652 C 0.49769 0.12254 0.37933 0.0
C653 C 0.47427 0.09133 0.49641 0.0
C654 C 0.49963 0.07512 0.51204 0.0
H655 H 0.45309 0.12586 0.42388 0.0
H656 H 0.45503 0.08667 0.53607 0.0
S657 S 0.57004 0.08784 0.3963 0.0
N658 N 0.54839 0.11233 0.35006 0.0
N659 N 0.55003 0.06931 0.46959 0.0
C660 C 0.52404 0.08254 0.45874 0.0
C661 C 0.52312 0.1061 0.39314 0.0
C662 C 0.44887 0.52857 0.40922 0.0
C663 C 0.42459 0.50982 0.40593 0.0
C664 C 0.47062 0.52606 0.47712 0.0
C665 C 0.46959 0.50449 0.54566 0.0
H666 H 0.45054 0.54631 0.36076 0.0
H667 H 0.48783 0.54193 0.47783 0.0
S668 S 0.41321 0.4474 0.56312 0.0
N669 N 0.40269 0.46726 0.47492 0.0
N670 N 0.44357 0.46208 0.59981 0.0
C671 C 0.4466 0.4844 0.53973 0.0
C672 C 0.42431 0.48706 0.47075 0.0
C673 C 1.00382 0.41648 0.48354 0.0
C674 C 0.02071 0.39085 0.4847 0.0
C675 C 1.0091 0.43987 0.54389 0.0
C676 C 0.03128 0.4387 0.61 0.0
H677 H 0.9852 0.41777 0.43885 0.0
H678 H 0.99456 0.45828 0.54215 0.0
S679 S 0.08313 0.37764 0.63818 0.0
N680 N 0.06171 0.36681 0.5547 0.0
N681 N 0.07164 0.41023 0.66767 0.0
C682 C 0.04925 0.41384 0.60869 0.0
C683 C 0.044 0.39016 0.54652 0.0
C684 C 0.90615 0.99756 0.96931 0.0
C685 C 0.90735 0.01928 0.03683 0.0
C686 C 0.92897 0.99335 0.90582 0.0
C687 C 0.95428 1.01052 0.90672 0.0
H688 H 0.88655 0.98504 0.96124 0.0
H689 H 0.92613 0.97731 0.85267 0.0
S690 S 0.96964 0.06845 0.07559 0.0
N691 N 0.93719 0.05671 0.10466 0.0
N692 N 0.97979 0.04865 0.98719 0.0
C693 C 0.95654 0.03102 0.97773 0.0
C694 C 0.93323 0.03543 0.04192 0.0
C695 C 0.53732 0.88937 0.91539 0.0
C696 C 0.5268 0.89274 1.00515 0.0
C697 C 0.53951 0.91303 0.85417 0.0
C698 C 0.53066 0.94137 0.87842 0.0
H699 H 0.54353 0.86803 0.8916 0.0
H700 H 0.54745 0.90873 0.78578 0.0
S701 S 0.50212 0.96218 0.10665 0.0
N702 N 0.50812 0.92697 0.1164 0.0
N703 N 0.5116 0.97122 1.00118 0.0
C704 C 0.52041 0.94513 0.96863 0.0
C705 C 0.5186 0.92097 0.03171 0.0
C706 C 0.64898 0.5414 0.98418 0.0
C707 C 0.64773 0.52035 0.05418 0.0
C708 C 0.6261 0.54512 0.92068 0.0
C709 C 0.60065 0.52811 0.9239 0.0
H710 H 0.66845 0.55409 0.97535 0.0
H711 H 0.6289 0.56088 0.8663 0.0
S712 S 0.58503 0.47228 0.1009 0.0
N713 N 0.61778 0.48377 0.12701 0.0
N714 N 0.57494 0.4911 0.0099 0.0
C715 C 0.59848 0.50814 0.99691 0.0
C716 C 0.6219 0.50416 0.061 0.0
C717 C 0.97789 0.60378 0.06813 0.0
C718 C 0.99883 0.62589 0.07868 0.0
C719 C 0.98259 0.5794 0.01136 0.0
C720 C 1.00873 0.57536 0.96359 0.0
H721 H 0.9567 0.60649 0.09853 0.0
H722 H 0.96496 0.56438 1.00093 0.0
S723 S 0.07158 0.62515 0.97185 0.0
N724 N 0.04743 0.64086 0.03883 0.0
N725 N 0.0566 0.59478 0.93593 0.0
C726 C 0.0306 0.59609 0.97858 0.0
C727 C 0.02566 0.62122 0.0354 0.0
C728 C 0.85416 0.18263 0.47667 0.0
C729 C 0.85785 0.18652 0.38144 0.0
C730 C 0.86254 0.15677 0.52002 0.0
C731 C 0.87362 0.13349 0.46916 0.0
H732 H 0.8476 0.20062 0.51932 0.0
H733 H 0.86251 0.15581 0.59413 0.0
S734 S 0.88022 0.12903 0.21674 0.0
N735 N 0.86834 0.16211 0.23656 0.0
N736 N 0.88259 0.11357 0.31828 0.0
C737 C 0.87303 0.13532 0.37333 0.0
C738 C 0.86526 0.16178 0.32916 0.0
C739 C 0.36805 0.93956 0.78223 0.0
C740 C 0.34458 0.9312 0.72816 0.0
C741 C 0.39335 0.92298 0.7821 0.0
C742 C 0.39573 0.89829 0.72593 0.0
H743 H 0.36878 0.96118 0.81081 0.0
H744 H 0.41245 0.93277 0.81055 0.0
S745 S 0.33572 0.86156 0.60746 0.0
N746 N 0.32153 0.89215 0.64524 0.0
N747 N 0.36948 0.86108 0.64411 0.0
C748 C 0.37014 0.88629 0.69175 0.0
C749 C 0.34428 0.903 0.69264 0.0
C750 C 0.49033 0.39447 0.43014 0.0
C751 C 0.50381 0.3776 0.49867 0.0
C752 C 0.50315 0.42013 0.39862 0.0
C753 C 0.52936 0.42941 0.43606 0.0
H754 H 0.47236 0.38577 0.39164 0.0
H755 H 0.49391 0.43129 0.3402 0.0
S756 S 0.56789 0.39733 0.63504 0.0
N757 N 0.54055 0.37528 0.61618 0.0
N758 N 0.56439 0.42369 0.55932 0.0
C759 C 0.54004 0.41532 0.51487 0.0
C760 C 0.52693 0.38953 0.54689 0.0
C761 C 0.21392 0.60997 0.6251 0.0
C762 C 0.22283 0.58427 0.66928 0.0
C763 C 0.18539 0.6198 0.63343 0.0
C764 C 0.16532 0.60418 0.68613 0.0
H765 H 0.22734 0.6199 0.57298 0.0
H766 H 0.17813 0.63727 0.58935 0.0
S767 S 0.18112 0.54032 0.83083 0.0
N768 N 0.21259 0.54899 0.78679 0.0
N769 N 0.15784 0.5647 0.79381 0.0
C770 C 0.17554 0.58164 0.74247 0.0
C771 C 0.20494 0.57275 0.73734 0.0
C772 C 0.02713 0.86511 0.74829 0.0
C773 C 0.02758 0.83938 0.79925 0.0
C774 C 0.05109 0.88337 0.7474 0.0
C775 C 0.07658 0.87623 0.79471 0.0
H776 H 1.00699 0.87303 0.71991 0.0
H777 H 0.04817 0.90503 0.72123 0.0
S778 S 0.09078 0.80845 0.92238 0.0
N779 N 0.05708 0.80535 0.88681 0.0
N780 N 0.10244 0.83976 0.88181 0.0
C781 C 0.07865 0.84882 0.83533 0.0
C782 C 0.0541 0.8302 0.83751 0.0
C783 C 0.68334 0.08252 0.67055 0.0
C784 C 0.70102 0.09538 0.73716 0.0
C785 C 0.65619 0.09436 0.65086 0.0
C786 C 0.64655 0.11938 0.69702 0.0
H787 H 0.68807 0.06081 0.64668 0.0
H788 H 0.64118 0.081 0.61298 0.0
S789 S 0.69146 0.16872 0.83529 0.0
N790 N 0.71199 0.13989 0.81893 0.0
N791 N 0.66126 0.16259 0.77853 0.0
C792 C 0.66735 0.1363 0.74152 0.0
C793 C 0.69478 0.12406 0.76293 0.0
C794 C 0.37701 0.66 0.08684 0.0
C795 C 0.38632 0.67179 0.17077 0.0
C796 C 0.38441 0.6316 0.0616 0.0
C797 C 0.40069 0.61378 0.12054 0.0
H798 H 0.36671 0.67371 0.03613 0.0
H799 H 0.38009 0.62487 0.99202 0.0
S800 S 0.42068 0.6297 0.36023 0.0
N801 N 0.406 0.65993 0.32171 0.0
N802 N 0.41861 0.60669 0.27455 0.0
C803 C 0.40517 0.62327 0.21031 0.0
C804 C 0.39817 0.65224 0.23569 0.0
C805 C 0.84435 0.37797 0.9286 0.0
C806 C 0.84002 0.35838 1.00146 0.0
C807 C 0.8723 0.38498 0.8993 0.0
C808 C 0.89659 0.37234 0.94139 0.0
H809 H 0.82666 0.39124 0.90381 0.0
H810 H 0.87481 0.40308 0.85254 0.0
S811 S 0.89583 0.31229 0.10966 0.0
N812 N 0.86142 0.32063 0.09547 0.0
N813 N 0.91414 0.33363 0.03981 0.0
C814 C 0.89213 0.34873 1.00068 0.0
C815 C 0.86367 0.34159 0.03037 0.0
C816 C 1.0057 0.15818 0.86196 0.0
C817 C 0.01861 0.16296 0.94852 0.0
C818 C 1.00765 0.1312 0.81597 0.0
C819 C 0.02248 0.10725 0.85402 0.0
H820 H 0.99348 0.17544 0.8297 0.0
H821 H 0.9969 0.129 0.75059 0.0
S822 S 0.05988 0.10765 0.07977 0.0
N823 N 0.04667 0.14077 0.07018 0.0
N824 N 0.05057 0.09067 0.98505 0.0
C825 C 0.03587 0.11187 0.94002 0.0
C826 C 0.03394 0.1394 0.98659 0.0
C827 C 0.38684 0.03149 0.9088 0.0
C828 C 0.38268 1.0093 0.97457 0.0
C829 C 0.41079 0.03122 0.84698 0.0
C830 C 0.43175 1.00879 0.848 0.0
H831 H 0.37257 0.05011 0.90886 0.0
H832 H 0.41368 0.04946 0.80107 0.0
S833 S 0.43068 0.94508 1.00334 0.0
N834 N 0.40135 0.96342 0.03178 0.0
N835 N 0.44611 0.96371 0.91988 0.0
C836 C 0.42726 0.98616 0.91104 0.0
C837 C 0.40287 0.98616 0.97258 0.0
C838 C 0.55119 0.39216 0.94487 0.0
C839 C 0.53349 0.36896 0.91388 0.0
C840 C 0.55093 0.42009 0.90466 0.0
C841 C 0.5326 0.42735 0.83159 0.0
H842 H 0.56532 0.38928 1.00304 0.0
H843 H 0.56523 0.43639 0.93216 0.0
S844 S 0.47801 0.37795 0.73092 0.0
N845 N 0.49486 0.35736 0.80681 0.0
N846 N 0.49347 0.41016 0.73609 0.0
C847 C 0.5136 0.40536 0.80196 0.0
C848 C 0.51418 0.37638 0.84184 0.0
C849 C 0.156 0.47783 0.94877 0.0
C850 C 0.16654 0.50069 1.00359 0.0
C851 C 0.12847 0.4793 0.90517 0.0
C852 C 0.11035 0.50395 0.91226 0.0
H853 H 0.16891 0.45841 0.94081 0.0
H854 H 0.12125 0.46086 0.86574 0.0
S855 S 0.12821 0.57048 0.04206 0.0
N856 N 0.15621 0.549 0.06056 0.0
N857 N 0.10583 0.55207 0.97628 0.0
C858 C 0.12074 0.52694 0.96608 0.0
C859 C 0.14827 0.52517 0.01249 0.0
C860 C 0.98515 0.89275 0.53879 0.0
C861 C 1.00912 0.87823 0.49994 0.0
C862 C 0.98794 0.91984 0.5836 0.0
C863 C 0.01482 0.93403 0.59126 0.0
H864 H 0.96383 0.88332 0.53278 0.0
H865 H 0.96874 0.92999 0.61147 0.0
S866 S 0.08392 0.90697 0.49419 0.0
N867 N 0.0605 0.88125 0.46875 0.0
N868 N 0.0656 0.93202 0.5505 0.0
C869 C 0.03883 0.92009 0.55103 0.0
C870 C 0.03605 0.8923 0.50656 0.0
C871 C 0.62932 0.01838 0.42504 0.0
C872 C 0.65624 1.01135 0.46636 0.0
C873 C 0.6028 0.01716 0.47273 0.0
C874 C 0.60123 1.01066 0.5667 0.0
H875 H 0.62825 0.02515 0.35426 0.0
H876 H 0.58318 0.02174 0.43508 0.0
S877 S 0.66401 0.99144 0.71284 0.0
N878 N 0.6785 0.99696 0.61086 0.0
N879 N 0.62904 0.99767 0.70123 0.0
C880 C 0.62769 1.00479 0.61108 0.0
C881 C 0.65489 1.00461 0.56131 0.0
C882 C 0.54965 0.65064 0.54687 0.0
C883 C 0.52271 0.66515 0.54539 0.0
C884 C 0.55263 0.62223 0.58387 0.0
C885 C 0.52896 0.60717 0.62267 0.0
H886 H 0.5687 0.66146 0.52074 0.0
H887 H 0.57379 0.61217 0.58368 0.0
S888 S 0.45297 0.63262 0.62179 0.0
N889 N 0.47112 0.6596 0.57479 0.0
N890 N 0.47729 0.60777 0.64813 0.0
C891 C 0.50189 0.62092 0.61882 0.0
C892 C 0.49865 0.64935 0.57929 0.0
C893 C 0.88438 0.49466 0.66466 0.0
C894 C 0.87891 0.50383 0.57357 0.0
C895 C 0.9118 0.49765 0.70661 0.0
C896 C 0.93555 0.51 0.66008 0.0
H897 H 0.86748 0.48385 0.70303 0.0
H898 H 0.91457 0.48928 0.7754 0.0
S899 S 0.93276 0.53948 0.42243 0.0
N900 N 0.89972 0.52719 0.4402 0.0
N901 N 0.95078 0.53324 0.51805 0.0
C902 C 0.93004 0.52058 0.57042 0.0
C903 C 0.902 0.51749 0.52776 0.0
loop_
_geom_bond_atom_site_label_1
_geom_bond_atom_site_label_2
_geom_bond_distance
_geom_bond_site_symmetry_2
_ccdc_geom_bond_type
C0 C1 1.391 . S
C0 C4 1.391 . S
C0 H42 0.948 . S
C1 C0 1.391 . S
C1 C2 1.391 . S
C2 C1 1.391 . S
C2 H58 0.947 . S
C2 C59 1.392 . S
C3 C4 1.391 . S
C3 C7 1.397 . S
C3 C59 1.419 . S
C4 C0 1.391 . S
C4 C3 1.391 . S
C4 C5 1.399 . S
C5 C4 1.399 . S
C5 C8 1.396 . S
C5 C17 1.453 . S
C5 C18 1.684 . S
H6 C30 0.948 . S
C7 C3 1.397 . S
C7 C8 1.394 . S
C7 C26 1.723 . S
C8 C5 1.396 . S
C8 C7 1.394 . S
C8 C38 1.723 . S
H9 C32 0.947 . S
H10 C33 0.948 . S
H11 C39 0.982 . S
H12 C40 0.979 . S
H13 C40 0.980 . S
H14 C40 0.983 . S
H15 C39 0.979 . S
H16 C39 0.977 . S
C17 C5 1.453 . S
C17 H46 0.982 . S
C17 H47 0.979 . S
C17 H48 0.977 . S
C18 C5 1.684 . S
C18 H43 0.979 . S
C18 H44 0.980 . S
C18 H45 0.983 . S
C19 C20 1.391 . S
C19 C24 1.391 . S
C19 H49 0.948 . S
C20 C19 1.391 . S
C20 C21 1.391 . S
C21 C20 1.391 . S
C21 C22 1.392 . S
C21 H50 0.947 . S
C22 C21 1.392 . S
C22 C23 1.419 . S
C22 H51 0.948 . S
C23 C22 1.419 . S
C23 C24 1.391 . S
C23 C27 1.397 . S
C24 C19 1.391 . S
C24 C23 1.391 . S
C24 C25 1.399 . S
C25 C24 1.399 . S
C25 C26 1.396 . S
C25 C28 1.453 . S
C25 C29 1.684 . S
C26 C7 1.723 . S
C26 C25 1.396 . S
C26 C27 1.394 . S
C27 C23 1.397 . S
C27 C26 1.394 . S
C27 C37 1.723 . S
C28 C25 1.453 . S
C28 H52 0.982 . S
C28 H53 0.979 . S
C28 H54 0.977 . S
C29 C25 1.684 . S
C29 H55 0.979 . S
C29 H56 0.980 . S
C29 H57 0.983 . S
C30 H6 0.948 . S
C30 C31 1.391 . S
C30 C35 1.391 . S
C31 C30 1.391 . S
C31 C32 1.391 . S
C32 H9 0.947 . S
C32 C31 1.391 . S
C32 C33 1.392 . S
C33 H10 0.948 . S
C33 C32 1.392 . S
C33 C34 1.419 . S
C34 C33 1.419 . S
C34 C35 1.391 . S
C34 C38 1.397 . S
C35 C30 1.391 . S
C35 C34 1.391 . S
C35 C36 1.399 . S
C36 C35 1.399 . S
C36 C37 1.396 . S
C36 C39 1.453 . S
C36 C40 1.684 . S
C37 C27 1.723 . S
C37 C36 1.396 . S
C37 C38 1.394 . S
C38 C8 1.723 . S
C38 C34 1.397 . S
C38 C37 1.394 . S
C39 H11 0.982 . S
C39 H15 0.979 . S
C39 H16 0.977 . S
C39 C36 1.453 . S
C40 H12 0.979 . S
C40 H13 0.980 . S
C40 H14 0.983 . S
C40 C36 1.684 . S
H41 C59 0.948 . S
H42 C0 0.948 . S
H43 C18 0.979 . S
H44 C18 0.980 . S
H45 C18 0.983 . S
H46 C17 0.982 . S
H47 C17 0.979 . S
H48 C17 0.977 . S
H49 C19 0.948 . S
H50 C21 0.947 . S
H51 C22 0.948 . S
H52 C28 0.982 . S
H53 C28 0.979 . S
H54 C28 0.977 . S
H55 C29 0.979 . S
H56 C29 0.980 . S
H57 C29 0.983 . S
H58 C2 0.947 . S
C59 C2 1.392 . S
C59 C3 1.419 . S
C59 H41 0.948 . S
C60 C61 1.391 . S
C60 C64 1.391 . S
C60 H102 0.948 . S
C61 C60 1.391 . S
C61 C62 1.391 . S
C62 C61 1.391 . S
C62 H118 0.947 . S
C62 C119 1.392 . S
C63 C64 1.391 . S
C63 C67 1.397 1_655 S
C63 C119 1.419 . S
C64 C60 1.391 . S
C64 C63 1.391 . S
C64 C65 1.399 . S
C65 C64 1.399 . S
C65 C68 1.396 1_655 S
C65 C77 1.453 1_655 S
C65 C78 1.684 . S
H66 C90 0.948 . S
C67 C63 1.397 1_455 S
C67 C68 1.394 . S
C67 C86 1.723 . S
C68 C65 1.396 1_455 S
C68 C67 1.394 . S
C68 C98 1.723 . S
H69 C92 0.947 . S
H70 C93 0.948 . S
H71 C99 0.982 . S
H72 C100 0.979 . S
H73 C100 0.980 . S
H74 C100 0.983 . S
H75 C99 0.979 . S
H76 C99 0.977 . S
C77 C65 1.453 1_455 S
C77 H106 0.982 . S
C77 H107 0.979 . S
C77 H108 0.977 . S
C78 C65 1.684 . S
C78 H103 0.979 . S
C78 H104 0.980 . S
C78 H105 0.983 . S
C79 C80 1.391 . S
C79 C84 1.391 . S
C79 H109 0.948 . S
C80 C79 1.391 . S
C80 C81 1.391 . S
C81 C80 1.391 . S
C81 C82 1.392 . S
C81 H110 0.947 . S
C82 C81 1.392 . S
C82 C83 1.419 . S
C82 H111 0.948 . S
C83 C82 1.419 . S
C83 C84 1.391 . S
C83 C87 1.397 1_655 S
C84 C79 1.391 . S
C84 C83 1.391 . S
C84 C85 1.399 . S
C85 C84 1.399 . S
C85 C86 1.396 1_655 S
C85 C88 1.453 1_655 S
C85 C89 1.684 . S
C86 C67 1.723 . S
C86 C85 1.396 1_455 S
C86 C87 1.394 . S
C87 C83 1.397 1_455 S
C87 C86 1.394 . S
C87 C97 1.723 . S
C88 C85 1.453 1_455 S
C88 H112 0.982 . S
C88 H113 0.979 . S
C88 H114 0.977 . S
C89 C85 1.684 . S
C89 H115 0.979 . S
C89 H116 0.980 . S
C89 H117 0.983 . S
C90 H66 0.948 . S
C90 C91 1.391 . S
C90 C95 1.391 . S
C91 C90 1.391 . S
C91 C92 1.391 . S
C92 H69 0.947 . S
C92 C91 1.391 . S
C92 C93 1.392 . S
C93 H70 0.948 . S
C93 C92 1.392 . S
C93 C94 1.419 . S
C94 C93 1.419 . S
C94 C95 1.391 . S
C94 C98 1.397 1_655 S
C95 C90 1.391 . S
C95 C94 1.391 . S
C95 C96 1.399 . S
C96 C95 1.399 . S
C96 C97 1.396 1_655 S
C96 C99 1.453 1_655 S
C96 C100 1.684 . S
C97 C87 1.723 . S
C97 C96 1.396 1_455 S
C97 C98 1.394 . S
C98 C68 1.723 . S
C98 C94 1.397 1_455 S
C98 C97 1.394 . S
C99 H71 0.982 . S
C99 H75 0.979 . S
C99 H76 0.977 . S
C99 C96 1.453 1_455 S
C100 H72 0.979 . S
C100 H73 0.980 . S
C100 H74 0.983 . S
C100 C96 1.684 . S
H101 C119 0.948 . S
H102 C60 0.948 . S
H103 C78 0.979 . S
H104 C78 0.980 . S
H105 C78 0.983 . S
H106 C77 0.982 . S
H107 C77 0.979 . S
H108 C77 0.977 . S
H109 C79 0.948 . S
H110 C81 0.947 . S
H111 C82 0.948 . S
H112 C88 0.982 . S
H113 C88 0.979 . S
H114 C88 0.977 . S
H115 C89 0.979 . S
H116 C89 0.980 . S
H117 C89 0.983 . S
H118 C62 0.947 . S
C119 C62 1.392 . S
C119 C63 1.419 . S
C119 H101 0.948 . S
C120 C121 1.391 . S
C120 C124 1.391 . S
C120 H162 0.948 . S
C121 C120 1.391 . S
C121 C122 1.391 . S
C122 C121 1.391 . S
C122 H178 0.947 . S
C122 C179 1.392 . S
C123 C124 1.391 . S
C123 C127 1.397 1_565 S
C123 C179 1.419 . S
C124 C120 1.391 . S
C124 C123 1.391 . S
C124 C125 1.399 . S
C125 C124 1.399 . S
C125 C128 1.396 1_565 S
C125 C137 1.453 1_565 S
C125 C138 1.684 . S
H126 C150 0.948 . S
C127 C123 1.397 1_545 S
C127 C128 1.394 . S
C127 C146 1.723 . S
C128 C125 1.396 1_545 S
C128 C127 1.394 . S
C128 C158 1.723 . S
H129 C152 0.947 . S
H130 C153 0.948 . S
H131 C159 0.982 . S
H132 C160 0.979 . S
H133 C160 0.980 . S
H134 C160 0.983 . S
H135 C159 0.979 . S
H136 C159 0.977 . S
C137 C125 1.453 1_545 S
C137 H166 0.982 . S
C137 H167 0.979 . S
C137 H168 0.977 . S
C138 C125 1.684 . S
C138 H163 0.979 . S
C138 H164 0.980 . S
C138 H165 0.983 . S
C139 C140 1.391 . S
C139 C144 1.391 . S
C139 H169 0.948 . S
C140 C139 1.391 . S
C140 C141 1.391 . S
C141 C140 1.391 . S
C141 C142 1.392 . S
C141 H170 0.947 . S
C142 C141 1.392 . S
C142 C143 1.419 . S
C142 H171 0.948 . S
C143 C142 1.419 . S
C143 C144 1.391 . S
C143 C147 1.397 1_565 S
C144 C139 1.391 . S
C144 C143 1.391 . S
C144 C145 1.399 . S
C145 C144 1.399 . S
C145 C146 1.396 1_565 S
C145 C148 1.453 1_565 S
C145 C149 1.684 . S
C146 C127 1.723 . S
C146 C145 1.396 1_545 S
C146 C147 1.394 . S
C147 C143 1.397 1_545 S
C147 C146 1.394 . S
C147 C157 1.723 . S
C148 C145 1.453 1_545 S
C148 H172 0.982 . S
C148 H173 0.979 . S
C148 H174 0.977 . S
C149 C145 1.684 . S
C149 H175 0.979 . S
C149 H176 0.980 . S
C149 H177 0.983 . S
C150 H126 0.948 . S
C150 C151 1.391 . S
C150 C155 1.391 . S
C151 C150 1.391 . S
C151 C152 1.391 . S
C152 H129 0.947 . S
C152 C151 1.391 . S
C152 C153 1.392 . S
C153 H130 0.948 . S
C153 C152 1.392 . S
C153 C154 1.419 . S
C154 C153 1.419 . S
C154 C155 1.391 . S
C154 C158 1.397 1_565 S
C155 C150 1.391 . S
C155 C154 1.391 . S
C155 C156 1.399 . S
C156 C155 1.399 . S
C156 C157 1.396 1_565 S
C156 C159 1.453 1_565 S
C156 C160 1.684 . S
C157 C147 1.723 . S
C157 C156 1.396 1_545 S
C157 C158 1.394 . S
C158 C128 1.723 . S
C158 C154 1.397 1_545 S
C158 C157 1.394 . S
C159 H131 0.982 . S
C159 H135 0.979 . S
C159 H136 0.977 . S
C159 C156 1.453 1_545 S
C160 H132 0.979 . S
C160 H133 0.980 . S
C160 H134 0.983 . S
C160 C156 1.684 . S
H161 C179 0.948 . S
H162 C120 0.948 . S
H163 C138 0.979 . S
H164 C138 0.980 . S
H165 C138 0.983 . S
H166 C137 0.982 . S
H167 C137 0.979 . S
H168 C137 0.977 . S
H169 C139 0.948 . S
H170 C141 0.947 . S
H171 C142 0.948 . S
H172 C148 0.982 . S
H173 C148 0.979 . S
H174 C148 0.977 . S
H175 C149 0.979 . S
H176 C149 0.980 . S
H177 C149 0.983 . S
H178 C122 0.947 . S
C179 C122 1.392 . S
C179 C123 1.419 . S
C179 H161 0.948 . S
C180 C181 1.391 . S
C180 C184 1.391 . S
C180 H222 0.948 . S
C181 C180 1.391 . S
C181 C182 1.391 . S
C182 C181 1.391 . S
C182 H238 0.947 . S
C182 C239 1.392 . S
C183 C184 1.391 . S
C183 C187 1.397 . S
C183 C239 1.419 . S
C184 C180 1.391 . S
C184 C183 1.391 . S
C184 C185 1.399 . S
C185 C184 1.399 . S
C185 C188 1.396 . S
C185 C197 1.453 . S
C185 C198 1.684 . S
H186 C210 0.948 . S
C187 C183 1.397 . S
C187 C188 1.394 . S
C187 C206 1.723 . S
C188 C185 1.396 . S
C188 C187 1.394 . S
C188 C218 1.723 . S
H189 C212 0.947 . S
H190 C213 0.948 . S
H191 C219 0.982 . S
H192 C220 0.979 . S
H193 C220 0.980 . S
H194 C220 0.983 . S
H195 C219 0.979 . S
H196 C219 0.977 . S
C197 C185 1.453 . S
C197 H226 0.982 . S
C197 H227 0.979 . S
C197 H228 0.977 . S
C198 C185 1.684 . S
C198 H223 0.979 . S
C198 H224 0.980 . S
C198 H225 0.983 . S
C199 C200 1.391 . S
C199 C204 1.391 . S
C199 H229 0.948 . S
C200 C199 1.391 . S
C200 C201 1.391 . S
C201 C200 1.391 . S
C201 C202 1.392 . S
C201 H230 0.947 . S
C202 C201 1.392 . S
C202 C203 1.419 . S
C202 H231 0.948 . S
C203 C202 1.419 . S
C203 C204 1.391 . S
C203 C207 1.397 . S
C204 C199 1.391 . S
C204 C203 1.391 . S
C204 C205 1.399 . S
C205 C204 1.399 . S
C205 C206 1.396 . S
C205 C208 1.453 . S
C205 C209 1.684 . S
C206 C187 1.723 . S
C206 C205 1.396 . S
C206 C207 1.394 . S
C207 C203 1.397 . S
C207 C206 1.394 . S
C207 C217 1.723 . S
C208 C205 1.453 . S
C208 H232 0.982 . S
C208 H233 0.979 . S
C208 H234 0.977 . S
C209 C205 1.684 . S
C209 H235 0.979 . S
C209 H236 0.980 . S
C209 H237 0.983 . S
C210 H186 0.948 . S
C210 C211 1.391 . S
C210 C215 1.391 . S
C211 C210 1.391 . S
C211 C212 1.391 . S
C212 H189 0.947 . S
C212 C211 1.391 . S
C212 C213 1.392 . S
C213 H190 0.948 . S
C213 C212 1.392 . S
C213 C214 1.419 . S
C214 C213 1.419 . S
C214 C215 1.391 . S
C214 C218 1.397 . S
C215 C210 1.391 . S
C215 C214 1.391 . S
C215 C216 1.399 . S
C216 C215 1.399 . S
C216 C217 1.396 . S
C216 C219 1.453 . S
C216 C220 1.684 . S
C217 C207 1.723 . S
C217 C216 1.396 . S
C217 C218 1.394 . S
C218 C188 1.723 . S
C218 C214 1.397 . S
C218 C217 1.394 . S
C219 H191 0.982 . S
C219 H195 0.979 . S
C219 H196 0.977 . S
C219 C216 1.453 . S
C220 H192 0.979 . S
C220 H193 0.980 . S
C220 H194 0.983 . S
C220 C216 1.684 . S
H221 C239 0.948 . S
H222 C180 0.948 . S
H223 C198 0.979 . S
H224 C198 0.980 . S
H225 C198 0.983 . S
H226 C197 0.982 . S
H227 C197 0.979 . S
H228 C197 0.977 . S
H229 C199 0.948 . S
H230 C201 0.947 . S
H231 C202 0.948 . S
H232 C208 0.982 . S
H233 C208 0.979 . S
H234 C208 0.977 . S
H235 C209 0.979 . S
H236 C209 0.980 . S
H237 C209 0.983 . S
H238 C182 0.947 . S
C239 C182 1.392 . S
C239 C183 1.419 . S
C239 H221 0.948 . S
C240 C241 1.391 . S
C240 C244 1.391 . S
C240 H282 0.948 1_554 S
C241 C240 1.391 . S
C241 C242 1.391 . S
C242 C241 1.391 . S
C242 H298 0.947 . S
C242 C299 1.392 . S
C243 C244 1.391 . S
C243 C247 1.397 . S
C243 C299 1.419 . S
C244 C240 1.391 . S
C244 C243 1.391 . S
C244 C245 1.399 1_554 S
C245 C244 1.399 1_556 S
C245 C248 1.396 . S
C245 C257 1.453 . S
C245 C258 1.684 . S
H246 C270 0.948 . S
C247 C243 1.397 . S
C247 C248 1.394 1_554 S
C247 C266 1.723 . S
C248 C245 1.396 . S
C248 C247 1.394 1_556 S
C248 C278 1.723 . S
H249 C272 0.947 . S
H250 C273 0.948 . S
H251 C279 0.982 . S
H252 C280 0.979 . S
H253 C280 0.980 . S
H254 C280 0.983 . S
H255 C279 0.979 . S
H256 C279 0.977 . S
C257 C245 1.453 . S
C257 H286 0.982 . S
C257 H287 0.979 . S
C257 H288 0.977 . S
C258 C245 1.684 . S
C258 H283 0.979 . S
C258 H284 0.980 . S
C258 H285 0.983 . S
C259 C260 1.391 . S
C259 C264 1.391 . S
C259 H289 0.948 . S
C260 C259 1.391 . S
C260 C261 1.391 . S
C261 C260 1.391 . S
C261 C262 1.392 . S
C261 H290 0.947 . S
C262 C261 1.392 . S
C262 C263 1.419 . S
C262 H291 0.948 . S
C263 C262 1.419 . S
C263 C264 1.391 . S
C263 C267 1.397 . S
C264 C259 1.391 . S
C264 C263 1.391 . S
C264 C265 1.399 . S
C265 C264 1.399 . S
C265 C266 1.396 . S
C265 C268 1.453 . S
C265 C269 1.684 . S
C266 C247 1.723 . S
C266 C265 1.396 . S
C266 C267 1.394 . S
C267 C263 1.397 . S
C267 C266 1.394 . S
C267 C277 1.723 1_554 S
C268 C265 1.453 . S
C268 H292 0.982 . S
C268 H293 0.979 . S
C268 H294 0.977 . S
C269 C265 1.684 . S
C269 H295 0.979 . S
C269 H296 0.980 . S
C269 H297 0.983 . S
C270 H246 0.948 . S
C270 C271 1.391 . S
C270 C275 1.391 . S
C271 C270 1.391 . S
C271 C272 1.391 . S
C272 H249 0.947 . S
C272 C271 1.391 . S
C272 C273 1.392 . S
C273 H250 0.948 . S
C273 C272 1.392 . S
C273 C274 1.419 . S
C274 C273 1.419 . S
C274 C275 1.391 . S
C274 C278 1.397 . S
C275 C270 1.391 . S
C275 C274 1.391 . S
C275 C276 1.399 . S
C276 C275 1.399 . S
C276 C277 1.396 . S
C276 C279 1.453 . S
C276 C280 1.684 . S
C277 C267 1.723 1_556 S
C277 C276 1.396 . S
C277 C278 1.394 . S
C278 C248 1.723 . S
C278 C274 1.397 . S
C278 C277 1.394 . S
C279 H251 0.982 . S
C279 H255 0.979 . S
C279 H256 0.977 . S
C279 C276 1.453 . S
C280 H252 0.979 . S
C280 H253 0.980 . S
C280 H254 0.983 . S
C280 C276 1.684 . S
H281 C299 0.948 . S
H282 C240 0.948 1_556 S
H283 C258 0.979 . S
H284 C258 0.980 . S
H285 C258 0.983 . S
H286 C257 0.982 . S
H287 C257 0.979 . S
H288 C257 0.977 . S
H289 C259 0.948 . S
H290 C261 0.947 . S
H291 C262 0.948 . S
H292 C268 0.982 . S
H293 C268 0.979 . S
H294 C268 0.977 . S
H295 C269 0.979 . S
H296 C269 0.980 . S
H297 C269 0.983 . S
H298 C242 0.947 . S
C299 C242 1.392 . S
C299 C243 1.419 . S
C299 H281 0.948 . S
C300 C301 1.391 . S
C300 C304 1.391 . S
C300 H342 0.948 . S
C301 C300 1.391 . S
C301 C302 1.391 . S
C302 C301 1.391 . S
C302 H358 0.947 . S
C302 C359 1.392 . S
C303 C304 1.391 . S
C303 C307 1.396 1_655 S
C303 C359 1.419 . S
C304 C300 1.391 . S
C304 C303 1.391 . S
C304 C305 1.399 . S
C305 C304 1.399 . S
C305 C308 1.396 1_655 S
C305 C317 1.453 1_655 S
C305 C318 1.684 . S
H306 C330 0.948 1_556 S
C307 C303 1.396 1_455 S
C307 C308 1.395 . S
C307 C326 1.723 1_554 S
C308 C305 1.396 1_455 S
C308 C307 1.395 . S
C308 C338 1.723 . S
H309 C332 0.947 . S
H310 C333 0.948 . S
H311 C339 0.982 . S
H312 C340 0.979 . S
H313 C340 0.980 . S
H314 C340 0.983 . S
H315 C339 0.979 . S
H316 C339 0.977 . S
C317 C305 1.453 1_455 S
C317 H346 0.982 . S
C317 H347 0.979 . S
C317 H348 0.977 . S
C318 C305 1.684 . S
C318 H343 0.979 . S
C318 H344 0.980 . S
C318 H345 0.983 . S
C319 C320 1.391 . S
C319 C324 1.391 . S
C319 H349 0.948 . S
C320 C319 1.391 . S
C320 C321 1.391 . S
C321 C320 1.391 . S
C321 C322 1.392 . S
C321 H350 0.947 . S
C322 C321 1.392 . S
C322 C323 1.419 . S
C322 H351 0.948 . S
C323 C322 1.419 . S
C323 C324 1.391 . S
C323 C327 1.396 1_655 S
C324 C319 1.391 . S
C324 C323 1.391 . S
C324 C325 1.399 . S
C325 C324 1.399 . S
C325 C326 1.396 1_655 S
C325 C328 1.453 1_655 S
C325 C329 1.684 . S
C326 C307 1.723 1_556 S
C326 C325 1.396 1_455 S
C326 C327 1.395 . S
C327 C323 1.396 1_455 S
C327 C326 1.395 . S
C327 C337 1.723 . S
C328 C325 1.453 1_455 S
C328 H352 0.982 . S
C328 H353 0.979 . S
C328 H354 0.985 . S
C329 C325 1.684 . S
C329 H355 0.979 . S
C329 H356 0.980 . S
C329 H357 0.983 . S
C330 H306 0.948 1_554 S
C330 C331 1.391 . S
C330 C335 1.391 . S
C331 C330 1.391 . S
C331 C332 1.391 . S
C332 H309 0.947 . S
C332 C331 1.391 . S
C332 C333 1.392 . S
C333 H310 0.948 . S
C333 C332 1.392 . S
C333 C334 1.419 . S
C334 C333 1.419 . S
C334 C335 1.391 . S
C334 C338 1.396 1_655 S
C335 C330 1.391 . S
C335 C334 1.391 . S
C335 C336 1.399 1_554 S
C336 C335 1.399 1_556 S
C336 C337 1.396 1_655 S
C336 C339 1.453 1_655 S
C336 C340 1.684 . S
C337 C327 1.723 . S
C337 C336 1.396 1_455 S
C337 C338 1.395 1_556 S
C338 C308 1.723 . S
C338 C334 1.396 1_455 S
C338 C337 1.395 1_554 S
C339 H311 0.982 . S
C339 H315 0.979 . S
C339 H316 0.977 . S
C339 C336 1.453 1_455 S
C340 H312 0.979 . S
C340 H313 0.980 . S
C340 H314 0.983 . S
C340 C336 1.684 . S
H341 C359 0.948 . S
H342 C300 0.948 . S
H343 C318 0.979 . S
H344 C318 0.980 . S
H345 C318 0.983 . S
H346 C317 0.982 . S
H347 C317 0.979 . S
H348 C317 0.977 . S
H349 C319 0.948 . S
H350 C321 0.947 . S
H351 C322 0.948 . S
H352 C328 0.982 . S
H353 C328 0.979 . S
H354 C328 0.985 . S
H355 C329 0.979 . S
H356 C329 0.980 . S
H357 C329 0.983 . S
H358 C302 0.947 . S
C359 C302 1.392 . S
C359 C303 1.419 . S
C359 H341 0.948 . S
C360 C361 1.391 . S
C360 C364 1.391 . S
C360 H402 0.948 . S
C361 C360 1.391 . S
C361 C362 1.391 . S
C362 C361 1.391 . S
C362 H418 0.947 . S
C362 C419 1.392 . S
C363 C364 1.391 . S
C363 C367 1.397 1_545 S
C363 C419 1.419 . S
C364 C360 1.391 . S
C364 C363 1.391 . S
C364 C365 1.399 . S
C365 C364 1.399 . S
C365 C368 1.396 1_545 S
C365 C377 1.453 1_545 S
C365 C378 1.684 . S
H366 C390 0.948 . S
C367 C363 1.397 1_565 S
C367 C368 1.394 . S
C367 C386 1.723 1_556 S
C368 C365 1.396 1_565 S
C368 C367 1.394 . S
C368 C398 1.723 1_556 S
H369 C392 0.947 1_556 S
H370 C393 0.948 . S
H371 C399 0.982 . S
H372 C400 0.979 . S
H373 C400 0.980 . S
H374 C400 0.983 . S
H375 C399 0.979 . S
H376 C399 0.977 . S
C377 C365 1.453 1_565 S
C377 H406 0.982 . S
C377 H407 0.979 . S
C377 H408 0.977 . S
C378 C365 1.684 . S
C378 H403 0.979 . S
C378 H404 0.980 . S
C378 H405 0.983 . S
C379 C380 1.391 . S
C379 C384 1.391 . S
C379 H409 0.948 . S
C380 C379 1.391 . S
C380 C381 1.391 . S
C381 C380 1.391 . S
C381 C382 1.392 . S
C381 H410 0.947 . S
C382 C381 1.392 . S
C382 C383 1.419 . S
C382 H411 0.948 . S
C383 C382 1.419 . S
C383 C384 1.391 . S
C383 C387 1.397 1_545 S
C384 C379 1.391 . S
C384 C383 1.391 . S
C384 C385 1.399 . S
C385 C384 1.399 . S
C385 C386 1.396 1_545 S
C385 C388 1.453 1_545 S
C385 C389 1.684 . S
C386 C367 1.723 1_554 S
C386 C385 1.396 1_565 S
C386 C387 1.394 . S
C387 C383 1.397 1_565 S
C387 C386 1.394 . S
C387 C397 1.723 . S
C388 C385 1.453 1_565 S
C388 H412 0.982 . S
C388 H413 0.979 . S
C388 H414 0.977 1_554 S
C389 C385 1.684 . S
C389 H415 0.979 . S
C389 H416 0.980 1_554 S
C389 H417 0.983 . S
C390 H366 0.948 . S
C390 C391 1.391 . S
C390 C395 1.391 . S
C391 C390 1.391 . S
C391 C392 1.391 . S
C392 H369 0.947 1_554 S
C392 C391 1.391 . S
C392 C393 1.392 1_554 S
C393 H370 0.948 . S
C393 C392 1.392 1_556 S
C393 C394 1.419 1_556 S
C394 C393 1.419 1_554 S
C394 C395 1.391 . S
C394 C398 1.397 1_545 S
C395 C390 1.391 . S
C395 C394 1.391 . S
C395 C396 1.399 . S
C396 C395 1.399 . S
C396 C397 1.396 1_545 S
C396 C399 1.453 1_545 S
C396 C400 1.684 . S
C397 C387 1.723 . S
C397 C396 1.396 1_565 S
C397 C398 1.394 . S
C398 C368 1.723 1_554 S
C398 C394 1.397 1_565 S
C398 C397 1.394 . S
C399 H371 0.982 . S
C399 H375 0.979 . S
C399 H376 0.977 . S
C399 C396 1.453 1_565 S
C400 H372 0.979 . S
C400 H373 0.980 . S
C400 H374 0.983 . S
C400 C396 1.684 . S
H401 C419 0.948 . S
H402 C360 0.948 . S
H403 C378 0.979 . S
H404 C378 0.980 . S
H405 C378 0.983 . S
H406 C377 0.982 . S
H407 C377 0.979 . S
H408 C377 0.977 . S
H409 C379 0.948 . S
H410 C381 0.947 . S
H411 C382 0.948 . S
H412 C388 0.982 . S
H413 C388 0.979 . S
H414 C388 0.977 1_556 S
H415 C389 0.979 . S
H416 C389 0.980 1_556 S
H417 C389 0.983 . S
H418 C362 0.947 . S
C419 C362 1.392 . S
C419 C363 1.419 . S
C419 H401 0.948 . S
C420 C421 1.391 . S
C420 C424 1.391 . S
C420 H462 0.948 . S
C421 C420 1.391 . S
C421 C422 1.391 . S
C422 C421 1.391 . S
C422 H478 0.947 . S
C422 C479 1.392 . S
C423 C424 1.391 . S
C423 C427 1.397 . S
C423 C479 1.419 . S
C424 C420 1.391 . S
C424 C423 1.391 . S
C424 C425 1.399 . S
C425 C424 1.399 . S
C425 C428 1.396 . S
C425 C437 1.453 . S
C425 C438 1.684 . S
H426 C450 0.948 . S
C427 C423 1.397 . S
C427 C428 1.394 . S
C427 C446 1.723 1_556 S
C428 C425 1.396 . S
C428 C427 1.394 . S
C428 C458 1.723 1_556 S
H429 C452 0.947 1_556 S
H430 C453 0.948 . S
H431 C459 0.982 . S
H432 C460 0.979 . S
H433 C460 0.980 . S
H434 C460 0.983 . S
H435 C459 0.979 . S
H436 C459 0.977 . S
C437 C425 1.453 . S
C437 H466 0.982 . S
C437 H467 0.979 . S
C437 H468 0.977 . S
C438 C425 1.684 . S
C438 H463 0.979 . S
C438 H464 0.980 . S
C438 H465 0.983 . S
C439 C440 1.391 . S
C439 C444 1.391 . S
C439 H469 0.948 . S
C440 C439 1.391 . S
C440 C441 1.391 . S
C441 C440 1.391 . S
C441 C442 1.392 . S
C441 H470 0.947 . S
C442 C441 1.392 . S
C442 C443 1.419 . S
C442 H471 0.948 . S
C443 C442 1.419 . S
C443 C444 1.391 . S
C443 C447 1.397 . S
C444 C439 1.391 . S
C444 C443 1.391 . S
C444 C445 1.399 . S
C445 C444 1.399 . S
C445 C446 1.396 . S
C445 C448 1.453 . S
C445 C449 1.684 . S
C446 C427 1.723 1_554 S
C446 C445 1.396 . S
C446 C447 1.394 . S
C447 C443 1.397 . S
C447 C446 1.394 . S
C447 C457 1.723 . S
C448 C445 1.453 . S
C448 H472 0.982 . S
C448 H473 0.979 . S
C448 H474 0.977 1_554 S
C449 C445 1.684 . S
C449 H475 0.979 . S
C449 H476 0.980 1_554 S
C449 H477 0.983 . S
C450 H426 0.948 . S
C450 C451 1.391 . S
C450 C455 1.391 . S
C451 C450 1.391 . S
C451 C452 1.391 . S
C452 H429 0.947 1_554 S
C452 C451 1.391 . S
C452 C453 1.392 1_554 S
C453 H430 0.948 . S
C453 C452 1.392 1_556 S
C453 C454 1.419 1_556 S
C454 C453 1.419 1_554 S
C454 C455 1.391 . S
C454 C458 1.397 . S
C455 C450 1.391 . S
C455 C454 1.391 . S
C455 C456 1.399 . S
C456 C455 1.399 . S
C456 C457 1.396 . S
C456 C459 1.453 . S
C456 C460 1.684 . S
C457 C447 1.723 . S
C457 C456 1.396 . S
C457 C458 1.394 . S
C458 C428 1.723 1_554 S
C458 C454 1.397 . S
C458 C457 1.394 . S
C459 H431 0.982 . S
C459 H435 0.979 . S
C459 H436 0.977 . S
C459 C456 1.453 . S
C460 H432 0.979 . S
C460 H433 0.980 . S
C460 H434 0.983 . S
C460 C456 1.684 . S
H461 C479 0.948 . S
H462 C420 0.948 . S
H463 C438 0.979 . S
H464 C438 0.980 . S
H465 C438 0.983 . S
H466 C437 0.982 . S
H467 C437 0.979 . S
H468 C437 0.977 . S
H469 C439 0.948 . S
H470 C441 0.947 . S
H471 C442 0.948 . S
H472 C448 0.982 . S
H473 C448 0.979 . S
H474 C448 0.977 1_556 S
H475 C449 0.979 . S
H476 C449 0.980 1_556 S
H477 C449 0.983 . S
H478 C422 0.947 . S
C479 C422 1.392 . S
C479 C423 1.419 . S
C479 H461 0.948 . S
Gd480 C483 2.818 . S
Gd480 O500 2.377 . S
Gd480 O502 2.448 . S
Gd480 O503 2.506 . S
Gd480 O504 2.435 . S
Gd480 O505 2.717 1_565 S
Gd480 O507 2.395 1_565 S
Gd480 O511 2.327 1_455 S
Gd481 C492 2.818 . S
Gd481 O501 2.395 1_545 S
Gd481 O505 2.327 1_655 S
Gd481 O506 2.377 . S
Gd481 O508 2.448 . S
Gd481 O509 2.506 . S
Gd481 O510 2.435 . S
Gd481 O511 2.717 1_545 S
C482 O500 1.240 1_655 S
C482 O501 1.240 . S
C483 Gd480 2.818 . S
C483 C484 1.510 . S
C483 O502 1.249 . S
C483 O503 1.252 . S
C484 C483 1.510 . S
C484 C485 1.404 . S
C484 C486 1.352 . S
C485 C484 1.404 . S
C485 C489 1.389 1_556 S
C485 H512 0.930 . S
C486 C484 1.352 . S
C486 C488 1.374 1_556 S
C486 H513 0.931 1_455 S
C487 C488 1.359 . S
C487 C489 1.364 . S
C488 C486 1.374 1_554 S
C488 C487 1.359 . S
C488 H514 0.931 . S
C489 C485 1.389 1_554 S
C489 C487 1.364 . S
C489 H515 0.931 . S
C490 O504 1.256 . S
C490 O505 1.257 1_565 S
C491 O506 1.240 1_455 S
C491 O507 1.240 . S
C492 Gd481 2.818 . S
C492 C493 1.510 . S
C492 O508 1.249 . S
C492 O509 1.252 . S
C493 C492 1.510 . S
C493 C494 1.404 . S
C493 C495 1.352 . S
C494 C493 1.404 . S
C494 C498 1.389 . S
C494 H516 0.930 . S
C495 C493 1.352 . S
C495 C497 1.374 . S
C495 H517 0.931 1_655 S
C496 C497 1.359 . S
C496 C498 1.364 . S
C497 C495 1.374 . S
C497 C496 1.359 . S
C497 H518 0.931 . S
C498 C494 1.389 . S
C498 C496 1.364 . S
C498 H519 0.931 . S
C499 O510 1.256 . S
C499 O511 1.257 1_545 S
O500 Gd480 2.377 . S
O500 C482 1.240 1_455 S
O501 Gd481 2.395 1_565 S
O501 C482 1.240 . S
O502 Gd480 2.448 . S
O502 C483 1.249 . S
O503 Gd480 2.506 . S
O503 C483 1.252 . S
O504 Gd480 2.435 . S
O504 C490 1.256 . S
O505 Gd480 2.717 1_545 S
O505 Gd481 2.327 1_455 S
O505 C490 1.257 1_545 S
O506 Gd481 2.377 . S
O506 C491 1.240 1_655 S
O507 Gd480 2.395 1_545 S
O507 C491 1.240 . S
O508 Gd481 2.448 . S
O508 C492 1.249 . S
O509 Gd481 2.506 . S
O509 C492 1.252 . S
O510 Gd481 2.435 . S
O510 C499 1.256 . S
O511 Gd480 2.327 1_655 S
O511 Gd481 2.717 1_565 S
O511 C499 1.257 1_565 S
H512 C485 0.930 . S
H513 C486 0.931 1_655 S
H514 C488 0.931 . S
H515 C489 0.931 . S
H516 C494 0.930 . S
H517 C495 0.931 1_455 S
H518 C497 0.931 . S
H519 C498 0.931 . S
Gd520 C523 2.818 . S
Gd520 O540 2.377 . S
Gd520 O542 2.448 . S
Gd520 O543 2.506 . S
Gd520 O544 2.435 . S
Gd520 O545 2.717 . S
Gd520 O547 2.395 . S
Gd520 O551 2.327 1_545 S
Gd521 C532 2.818 . S
Gd521 O541 2.395 . S
Gd521 O545 2.327 1_565 S
Gd521 O546 2.377 . S
Gd521 O548 2.448 . S
Gd521 O549 2.506 . S
Gd521 O550 2.435 . S
Gd521 O551 2.717 . S
C522 O540 1.240 1_565 S
C522 O541 1.240 . S
C523 Gd520 2.818 . S
C523 C524 1.510 . S
C523 O542 1.249 . S
C523 O543 1.252 . S
C524 C523 1.510 . S
C524 C525 1.404 . S
C524 C526 1.352 . S
C525 C524 1.404 . S
C525 C529 1.389 1_556 S
C525 H552 0.930 . S
C526 C524 1.352 . S
C526 C528 1.374 1_556 S
C526 H553 0.931 1_545 S
C527 C528 1.359 . S
C527 C529 1.364 . S
C528 C526 1.374 1_554 S
C528 C527 1.359 . S
C528 H554 0.963 . S
C529 C525 1.389 1_554 S
C529 C527 1.364 . S
C529 H555 0.931 . S
C530 O544 1.256 . S
C530 O545 1.257 . S
C531 O546 1.240 1_545 S
C531 O547 1.240 . S
C532 Gd521 2.818 . S
C532 C533 1.510 . S
C532 O548 1.249 . S
C532 O549 1.252 . S
C533 C532 1.510 . S
C533 C534 1.404 . S
C533 C535 1.352 . S
C534 C533 1.404 . S
C534 C538 1.389 . S
C534 H556 0.930 . S
C535 C533 1.352 . S
C535 C537 1.374 . S
C535 H557 0.931 1_565 S
C536 C537 1.359 . S
C536 C538 1.364 . S
C537 C535 1.374 . S
C537 C536 1.359 . S
C537 H558 0.956 . S
C538 C534 1.389 . S
C538 C536 1.364 . S
C538 H559 0.931 . S
C539 O550 1.256 . S
C539 O551 1.257 . S
O540 Gd520 2.377 . S
O540 C522 1.240 1_545 S
O541 Gd521 2.395 . S
O541 C522 1.240 . S
O542 Gd520 2.448 . S
O542 C523 1.249 . S
O543 Gd520 2.506 . S
O543 C523 1.252 . S
O544 Gd520 2.435 . S
O544 C530 1.256 . S
O545 Gd520 2.717 . S
O545 Gd521 2.327 1_545 S
O545 C530 1.257 . S
O546 Gd521 2.377 . S
O546 C531 1.240 1_565 S
O547 Gd520 2.395 . S
O547 C531 1.240 . S
O548 Gd521 2.448 . S
O548 C532 1.249 . S
O549 Gd521 2.506 . S
O549 C532 1.252 . S
O550 Gd521 2.435 . S
O550 C539 1.256 . S
O551 Gd520 2.327 1_565 S
O551 Gd521 2.717 . S
O551 C539 1.257 . S
H552 C525 0.930 . S
H553 C526 0.931 1_565 S
H554 C528 0.963 . S
H555 C529 0.931 . S
H556 C534 0.930 . S
H557 C535 0.931 1_545 S
H558 C537 0.956 . S
H559 C538 0.931 . S
Gd560 C563 2.818 . S
Gd560 O580 2.377 . S
Gd560 O582 2.448 . S
Gd560 O583 2.506 . S
Gd560 O584 2.435 . S
Gd560 O585 2.717 . S
Gd560 O587 2.395 . S
Gd560 O591 2.327 . S
Gd561 C572 2.818 . S
Gd561 O581 2.395 . S
Gd561 O585 2.327 . S
Gd561 O586 2.377 . S
Gd561 O588 2.448 . S
Gd561 O589 2.506 . S
Gd561 O590 2.435 . S
Gd561 O591 2.717 . S
C562 O580 1.240 . S
C562 O581 1.240 . S
C563 Gd560 2.818 . S
C563 C564 1.510 . S
C563 O582 1.249 . S
C563 O583 1.252 . S
C564 C563 1.510 . S
C564 C565 1.404 . S
C564 C566 1.352 . S
C565 C564 1.404 . S
C565 C569 1.389 1_556 S
C565 H592 0.930 . S
C566 C564 1.352 . S
C566 C568 1.374 1_556 S
C566 H593 0.931 . S
C567 C568 1.359 . S
C567 C569 1.364 . S
C568 C566 1.374 1_554 S
C568 C567 1.359 . S
C568 H594 0.931 . S
C569 C565 1.389 1_554 S
C569 C567 1.364 . S
C569 H595 0.931 . S
C570 O584 1.256 . S
C570 O585 1.257 . S
C571 O586 1.240 . S
C571 O587 1.240 . S
C572 Gd561 2.818 . S
C572 C573 1.510 . S
C572 O588 1.249 . S
C572 O589 1.252 . S
C573 C572 1.510 . S
C573 C574 1.404 . S
C573 C575 1.352 . S
C574 C573 1.404 . S
C574 C578 1.389 . S
C574 H596 0.930 . S
C575 C573 1.352 . S
C575 C577 1.374 . S
C575 H597 0.931 . S
C576 C577 1.359 . S
C576 C578 1.364 . S
C577 C575 1.374 . S
C577 C576 1.359 . S
C577 H598 0.931 . S
C578 C574 1.389 . S
C578 C576 1.364 . S
C578 H599 0.931 . S
C579 O590 1.256 . S
C579 O591 1.257 . S
O580 Gd560 2.377 . S
O580 C562 1.240 . S
O581 Gd561 2.395 . S
O581 C562 1.240 . S
O582 Gd560 2.448 . S
O582 C563 1.249 . S
O583 Gd560 2.506 . S
O583 C563 1.252 . S
O584 Gd560 2.435 . S
O584 C570 1.256 . S
O585 Gd560 2.717 . S
O585 Gd561 2.327 . S
O585 C570 1.257 . S
O586 Gd561 2.377 . S
O586 C571 1.240 . S
O587 Gd560 2.395 . S
O587 C571 1.240 . S
O588 Gd561 2.448 . S
O588 C572 1.249 . S
O589 Gd561 2.506 . S
O589 C572 1.252 . S
O590 Gd561 2.435 . S
O590 C579 1.256 . S
O591 Gd560 2.327 . S
O591 Gd561 2.717 . S
O591 C579 1.257 . S
H592 C565 0.930 . S
H593 C566 0.931 . S
H594 C568 0.931 . S
H595 C569 0.931 . S
H596 C574 0.930 . S
H597 C575 0.931 . S
H598 C577 0.931 . S
H599 C578 0.931 . S
Gd600 C603 2.818 . S
Gd600 O620 2.377 . S
Gd600 O622 2.448 . S
Gd600 O623 2.506 . S
Gd600 O624 2.435 . S
Gd600 O625 2.717 1_655 S
Gd600 O627 2.395 1_655 S
Gd600 O631 2.327 . S
Gd601 C612 2.818 . S
Gd601 O621 2.395 1_455 S
Gd601 O625 2.327 . S
Gd601 O626 2.377 . S
Gd601 O628 2.448 . S
Gd601 O629 2.506 . S
Gd601 O630 2.435 . S
Gd601 O631 2.717 1_455 S
C602 O620 1.240 . S
C602 O621 1.240 . S
C603 Gd600 2.818 . S
C603 C604 1.510 . S
C603 O622 1.249 . S
C603 O623 1.252 . S
C604 C603 1.510 . S
C604 C605 1.404 . S
C604 C606 1.352 . S
C605 C604 1.404 . S
C605 C609 1.389 1_556 S
C605 H632 0.930 . S
C606 C604 1.352 . S
C606 C608 1.374 1_556 S
C606 H633 0.931 . S
C607 C608 1.359 . S
C607 C609 1.364 . S
C608 C606 1.374 1_554 S
C608 C607 1.359 . S
C608 H634 0.931 . S
C609 C605 1.389 1_554 S
C609 C607 1.364 . S
C609 H635 0.931 . S
C610 O624 1.273 . S
C610 O625 1.249 1_655 S
C611 O626 1.240 . S
C611 O627 1.240 . S
C612 Gd601 2.818 . S
C612 C613 1.510 . S
C612 O628 1.249 . S
C612 O629 1.252 . S
C613 C612 1.510 . S
C613 C614 1.404 . S
C613 C615 1.352 . S
C614 C613 1.404 . S
C614 C618 1.389 . S
C614 H636 0.930 . S
C615 C613 1.352 . S
C615 C617 1.374 . S
C615 H637 0.931 . S
C616 C617 1.359 . S
C616 C618 1.364 . S
C617 C615 1.374 . S
C617 C616 1.359 . S
C617 H638 0.931 . S
C618 C614 1.389 . S
C618 C616 1.364 . S
C618 H639 0.931 . S
C619 O630 1.256 . S
C619 O631 1.257 1_455 S
O620 Gd600 2.377 . S
O620 C602 1.240 . S
O621 Gd601 2.395 1_655 S
O621 C602 1.240 . S
O622 Gd600 2.448 . S
O622 C603 1.249 . S
O623 Gd600 2.506 . S
O623 C603 1.252 . S
O624 Gd600 2.435 . S
O624 C610 1.273 . S
O625 Gd600 2.717 1_455 S
O625 Gd601 2.327 . S
O625 C610 1.249 1_455 S
O626 Gd601 2.377 . S
O626 C611 1.240 . S
O627 Gd600 2.395 1_455 S
O627 C611 1.240 . S
O628 Gd601 2.448 . S
O628 C612 1.249 . S
O629 Gd601 2.506 . S
O629 C612 1.252 . S
O630 Gd601 2.435 . S
O630 C619 1.256 . S
O631 Gd600 2.327 . S
O631 Gd601 2.717 1_655 S
O631 C619 1.257 1_655 S
H632 C605 0.930 . S
H633 C606 0.931 . S
H634 C608 0.931 . S
H635 C609 0.931 . S
H636 C614 0.930 . S
H637 C615 0.931 . S
H638 C617 0.931 . S
H639 C618 0.931 . S
C640 C641 1.361 1_565 S
C640 C642 1.419 . S
C640 H644 0.930 . S
C641 C640 1.361 1_545 S
C641 C650 1.439 . S
C642 C640 1.419 . S
C642 C643 1.363 1_565 S
C642 H645 0.929 . S
C643 C642 1.363 1_545 S
C643 C649 1.428 . S
H644 C640 0.930 . S
H645 C642 0.929 . S
S646 N647 1.613 1_655 S
S646 N648 1.610 1_655 S
N647 S646 1.613 1_455 S
N647 C650 1.350 . S
N648 S646 1.610 1_455 S
N648 C649 1.351 . S
C649 C643 1.428 . S
C649 N648 1.351 . S
C649 C650 1.434 . S
C650 C641 1.439 . S
C650 N647 1.350 . S
C650 C649 1.434 . S
C651 C652 1.369 . S
C651 C653 1.419 . S
C651 H655 0.930 . S
C652 C651 1.369 . S
C652 C661 1.429 . S
C653 C651 1.419 . S
C653 C654 1.363 . S
C653 H656 0.929 . S
C654 C653 1.363 . S
C654 C660 1.428 . S
H655 C651 0.930 . S
H656 C653 0.929 . S
S657 N658 1.613 . S
S657 N659 1.610 . S
N658 S657 1.613 . S
N658 C661 1.350 . S
N659 S657 1.610 . S
N659 C660 1.351 . S
C660 C654 1.428 . S
C660 N659 1.351 . S
C660 C661 1.434 . S
C661 C652 1.429 . S
C661 N658 1.350 . S
C661 C660 1.434 . S
C662 C663 1.369 . S
C662 C664 1.419 . S
C662 H666 0.930 . S
C663 C662 1.369 . S
C663 C672 1.429 . S
C664 C662 1.419 . S
C664 C665 1.363 . S
C664 H667 0.929 . S
C665 C664 1.363 . S
C665 C671 1.428 . S
H666 C662 0.930 . S
H667 C664 0.929 . S
S668 N669 1.613 . S
S668 N670 1.610 . S
N669 S668 1.613 . S
N669 C672 1.350 . S
N670 S668 1.610 . S
N670 C671 1.351 . S
C671 C665 1.428 . S
C671 N670 1.351 . S
C671 C672 1.434 . S
C672 C663 1.429 . S
C672 N669 1.350 . S
C672 C671 1.434 . S
C673 C674 1.369 1_655 S
C673 C675 1.419 . S
C673 H677 0.930 . S
C674 C673 1.369 1_455 S
C674 C683 1.429 . S
C675 C673 1.419 . S
C675 C676 1.363 1_655 S
C675 H678 0.929 . S
C676 C675 1.363 1_455 S
C676 C682 1.428 . S
H677 C673 0.930 . S
H678 C675 0.929 . S
S679 N680 1.613 . S
S679 N681 1.610 . S
N680 S679 1.613 . S
N680 C683 1.350 . S
N681 S679 1.610 . S
N681 C682 1.351 . S
C682 C676 1.428 . S
C682 N681 1.351 . S
C682 C683 1.434 . S
C683 C674 1.429 . S
C683 N680 1.350 . S
C683 C682 1.434 . S
C684 C685 1.375 . S
C684 C686 1.419 . S
C684 H688 0.930 . S
C685 C684 1.375 . S
C685 C694 1.423 1_565 S
C686 C684 1.419 . S
C686 C687 1.363 1_554 S
C686 H689 0.929 . S
C687 C686 1.363 1_556 S
C687 C693 1.428 1_566 S
H688 C684 0.930 . S
H689 C686 0.929 . S
S690 N691 1.613 . S
S690 N692 1.610 . S
N691 S690 1.613 . S
N691 C694 1.350 . S
N692 S690 1.610 . S
N692 C693 1.351 . S
C693 C687 1.428 1_544 S
C693 N692 1.351 . S
C693 C694 1.434 . S
C694 C685 1.423 1_545 S
C694 N691 1.350 . S
C694 C693 1.434 . S
C695 C696 1.369 . S
C695 C697 1.419 . S
C695 H699 0.930 . S
C696 C695 1.369 . S
C696 C705 1.429 . S
C697 C695 1.419 . S
C697 C698 1.357 1_554 S
C697 H700 0.929 . S
C698 C697 1.357 1_556 S
C698 C704 1.423 1_556 S
H699 C695 0.930 . S
H700 C697 0.929 . S
S701 N702 1.613 . S
S701 N703 1.610 . S
N702 S701 1.613 . S
N702 C705 1.350 . S
N703 S701 1.610 . S
N703 C704 1.351 . S
C704 C698 1.423 1_554 S
C704 N703 1.351 . S
C704 C705 1.434 . S
C705 C696 1.429 . S
C705 N702 1.350 . S
C705 C704 1.434 . S
C706 C707 1.369 . S
C706 C708 1.419 . S
C706 H710 0.930 . S
C707 C706 1.369 . S
C707 C716 1.429 . S
C708 C706 1.419 . S
C708 C709 1.357 1_554 S
C708 H711 0.929 . S
C709 C708 1.357 1_556 S
C709 C715 1.421 1_556 S
H710 C706 0.930 . S
H711 C708 0.929 . S
S712 N713 1.613 . S
S712 N714 1.610 . S
N713 S712 1.613 . S
N713 C716 1.350 . S
N714 S712 1.610 . S
N714 C715 1.351 . S
C715 C709 1.421 1_554 S
C715 N714 1.351 . S
C715 C716 1.434 . S
C716 C707 1.429 . S
C716 N713 1.350 . S
C716 C715 1.434 . S
C717 C718 1.386 . S
C717 C719 1.419 . S
C717 H721 0.930 . S
C718 C717 1.386 . S
C718 C727 1.413 1_655 S
C719 C717 1.419 . S
C719 C720 1.363 1_554 S
C719 H722 0.929 . S
C720 C719 1.363 1_556 S
C720 C726 1.428 1_656 S
H721 C717 0.930 . S
H722 C719 0.929 . S
S723 N724 1.613 . S
S723 N725 1.610 1_554 S
N724 S723 1.613 . S
N724 C727 1.350 . S
N725 S723 1.610 1_556 S
N725 C726 1.351 1_556 S
C726 C720 1.428 1_454 S
C726 N725 1.351 1_554 S
C726 C727 1.434 . S
C727 C718 1.413 1_455 S
C727 N724 1.350 . S
C727 C726 1.434 . S
C728 C729 1.369 . S
C728 C730 1.419 . S
C728 H732 0.930 . S
C729 C728 1.369 . S
C729 C738 1.429 . S
C730 C728 1.419 . S
C730 C731 1.363 . S
C730 H733 0.929 . S
C731 C730 1.363 . S
C731 C737 1.428 . S
H732 C728 0.930 . S
H733 C730 0.929 . S
S734 N735 1.613 1_655 S
S734 N736 1.610 . S
N735 S734 1.613 1_455 S
N735 C738 1.350 1_455 S
N736 S734 1.610 . S
N736 C737 1.351 . S
C737 C731 1.428 . S
C737 N736 1.351 . S
C737 C738 1.434 . S
C738 C729 1.429 . S
C738 N735 1.350 1_655 S
C738 C737 1.434 . S
C739 C740 1.369 1_545 S
C739 C741 1.419 1_545 S
C739 H743 0.930 . S
C740 C739 1.369 1_565 S
C740 C749 1.429 . S
C741 C739 1.419 1_565 S
C741 C742 1.363 . S
C741 H744 0.929 . S
C742 C741 1.363 . S
C742 C748 1.428 . S
H743 C739 0.930 . S
H744 C741 0.929 . S
S745 N746 1.613 . S
S745 N747 1.610 . S
N746 S745 1.613 . S
N746 C749 1.350 . S
N747 S745 1.610 . S
N747 C748 1.351 . S
C748 C742 1.428 . S
C748 N747 1.351 . S
C748 C749 1.434 . S
C749 C740 1.429 . S
C749 N746 1.350 . S
C749 C748 1.434 . S
C750 C751 1.369 . S
C750 C752 1.419 . S
C750 H754 0.930 . S
C751 C750 1.369 . S
C751 C760 1.429 . S
C752 C750 1.419 . S
C752 C753 1.363 . S
C752 H755 0.929 . S
C753 C752 1.363 . S
C753 C759 1.428 . S
H754 C750 0.930 . S
H755 C752 0.929 . S
S756 N757 1.613 . S
S756 N758 1.610 . S
N757 S756 1.613 . S
N757 C760 1.350 . S
N758 S756 1.610 . S
N758 C759 1.351 . S
C759 C753 1.428 . S
C759 N758 1.351 . S
C759 C760 1.434 . S
C760 C751 1.429 . S
C760 N757 1.350 . S
C760 C759 1.434 . S
C761 C762 1.369 . S
C761 C763 1.419 . S
C761 H765 0.930 . S
C762 C761 1.369 . S
C762 C771 1.429 . S
C763 C761 1.419 . S
C763 C764 1.363 . S
C763 H766 0.929 . S
C764 C763 1.363 . S
C764 C770 1.428 . S
H765 C761 0.930 . S
H766 C763 0.929 . S
S767 N768 1.613 . S
S767 N769 1.610 . S
N768 S767 1.613 . S
N768 C771 1.350 . S
N769 S767 1.610 . S
N769 C770 1.351 . S
C770 C764 1.428 . S
C770 N769 1.351 . S
C770 C771 1.434 . S
C771 C762 1.429 . S
C771 N768 1.350 . S
C771 C770 1.434 . S
C772 C773 1.369 1_655 S
C772 C774 1.419 1_655 S
C772 H776 0.930 . S
C773 C772 1.369 1_455 S
C773 C782 1.429 . S
C774 C772 1.419 1_455 S
C774 C775 1.363 . S
C774 H777 0.929 . S
C775 C774 1.363 . S
C775 C781 1.428 . S
H776 C772 0.930 . S
H777 C774 0.929 . S
S778 N779 1.613 . S
S778 N780 1.610 . S
N779 S778 1.613 . S
N779 C782 1.350 . S
N780 S778 1.610 . S
N780 C781 1.351 . S
C781 C775 1.428 . S
C781 N780 1.351 . S
C781 C782 1.434 . S
C782 C773 1.429 . S
C782 N779 1.350 . S
C782 C781 1.434 . S
C783 C784 1.369 1_565 S
C783 C785 1.419 1_565 S
C783 H787 0.930 . S
C784 C783 1.369 1_545 S
C784 C793 1.429 . S
C785 C783 1.419 1_545 S
C785 C786 1.363 . S
C785 H788 0.929 . S
C786 C785 1.363 . S
C786 C792 1.428 . S
H787 C783 0.930 . S
H788 C785 0.929 . S
S789 N790 1.613 . S
S789 N791 1.610 . S
N790 S789 1.613 . S
N790 C793 1.350 . S
N791 S789 1.610 . S
N791 C792 1.351 . S
C792 C786 1.428 . S
C792 N791 1.351 . S
C792 C793 1.434 . S
C793 C784 1.429 . S
C793 N790 1.350 . S
C793 C792 1.434 . S
C794 C795 1.369 . S
C794 C796 1.419 . S
C794 H798 0.930 . S
C795 C794 1.369 . S
C795 C804 1.429 . S
C796 C794 1.419 . S
C796 C797 1.363 . S
C796 H799 0.929 . S
C797 C796 1.363 . S
C797 C803 1.428 . S
H798 C794 0.930 . S
H799 C796 0.929 . S
S800 N801 1.613 . S
S800 N802 1.610 . S
N801 S800 1.613 . S
N801 C804 1.350 . S
N802 S800 1.610 . S
N802 C803 1.351 . S
C803 C797 1.428 . S
C803 N802 1.351 . S
C803 C804 1.434 . S
C804 C795 1.429 . S
C804 N801 1.350 . S
C804 C803 1.434 . S
C805 C806 1.369 . S
C805 C807 1.419 . S
C805 H809 0.930 . S
C806 C805 1.369 . S
C806 C815 1.429 . S
C807 C805 1.419 . S
C807 C808 1.363 . S
C807 H810 0.929 . S
C808 C807 1.363 . S
C808 C814 1.428 . S
H809 C805 0.930 . S
H810 C807 0.929 . S
S811 N812 1.613 . S
S811 N813 1.610 . S
N812 S811 1.613 . S
N812 C815 1.350 . S
N813 S811 1.610 . S
N813 C814 1.351 . S
C814 C808 1.428 . S
C814 N813 1.351 . S
C814 C815 1.434 . S
C815 C806 1.429 . S
C815 N812 1.350 . S
C815 C814 1.434 . S
C816 C817 1.369 1_655 S
C816 C818 1.419 . S
C816 H820 0.930 . S
C817 C816 1.369 1_455 S
C817 C826 1.429 . S
C818 C816 1.419 . S
C818 C819 1.363 1_655 S
C818 H821 0.929 . S
C819 C818 1.363 1_455 S
C819 C825 1.428 . S
H820 C816 0.930 . S
H821 C818 0.929 . S
S822 N823 1.613 . S
S822 N824 1.610 . S
N823 S822 1.613 . S
N823 C826 1.350 . S
N824 S822 1.610 . S
N824 C825 1.351 . S
C825 C819 1.428 . S
C825 N824 1.351 . S
C825 C826 1.434 . S
C826 C817 1.429 . S
C826 N823 1.350 . S
C826 C825 1.434 . S
C827 C828 1.369 . S
C827 C829 1.419 . S
C827 H831 0.930 . S
C828 C827 1.369 . S
C828 C837 1.429 1_545 S
C829 C827 1.419 . S
C829 C830 1.363 . S
C829 H832 0.929 . S
C830 C829 1.363 . S
C830 C836 1.428 1_545 S
H831 C827 0.930 . S
H832 C829 0.929 . S
S833 N834 1.613 . S
S833 N835 1.610 . S
N834 S833 1.613 . S
N834 C837 1.350 . S
N835 S833 1.610 . S
N835 C836 1.351 . S
C836 C830 1.428 1_565 S
C836 N835 1.351 . S
C836 C837 1.434 . S
C837 C828 1.429 1_565 S
C837 N834 1.350 . S
C837 C836 1.434 . S
C838 C839 1.369 . S
C838 C840 1.419 . S
C838 H842 0.930 . S
C839 C838 1.369 . S
C839 C848 1.429 . S
C840 C838 1.419 . S
C840 C841 1.363 . S
C840 H843 0.929 . S
C841 C840 1.363 . S
C841 C847 1.428 . S
H842 C838 0.930 . S
H843 C840 0.929 . S
S844 N845 1.613 . S
S844 N846 1.610 . S
N845 S844 1.613 . S
N845 C848 1.350 . S
N846 S844 1.610 . S
N846 C847 1.351 . S
C847 C841 1.428 . S
C847 N846 1.351 . S
C847 C848 1.434 . S
C848 C839 1.429 . S
C848 N845 1.350 . S
C848 C847 1.434 . S
C849 C850 1.369 . S
C849 C851 1.419 . S
C849 H853 0.930 . S
C850 C849 1.369 . S
C850 C859 1.429 . S
C851 C849 1.419 . S
C851 C852 1.363 . S
C851 H854 0.929 . S
C852 C851 1.363 . S
C852 C858 1.428 . S
H853 C849 0.930 . S
H854 C851 0.929 . S
S855 N856 1.613 . S
S855 N857 1.610 . S
N856 S855 1.613 . S
N856 C859 1.350 . S
N857 S855 1.610 . S
N857 C858 1.351 . S
C858 C852 1.428 . S
C858 N857 1.351 . S
C858 C859 1.434 . S
C859 C850 1.429 . S
C859 N856 1.350 . S
C859 C858 1.434 . S
C860 C861 1.369 . S
C860 C862 1.419 . S
C860 H864 0.930 . S
C861 C860 1.369 . S
C861 C870 1.429 1_655 S
C862 C860 1.419 . S
C862 C863 1.363 . S
C862 H865 0.929 . S
C863 C862 1.363 . S
C863 C869 1.428 1_655 S
H864 C860 0.930 . S
H865 C862 0.929 . S
S866 N867 1.613 . S
S866 N868 1.610 . S
N867 S866 1.613 . S
N867 C870 1.350 . S
N868 S866 1.610 . S
N868 C869 1.351 . S
C869 C863 1.428 1_455 S
C869 N868 1.351 . S
C869 C870 1.434 . S
C870 C861 1.429 1_455 S
C870 N867 1.350 . S
C870 C869 1.434 . S
C871 C872 1.369 1_545 S
C871 C873 1.419 . S
C871 H875 0.930 . S
C872 C871 1.369 1_565 S
C872 C881 1.429 . S
C873 C871 1.419 . S
C873 C874 1.363 1_545 S
C873 H876 0.929 . S
C874 C873 1.363 1_565 S
C874 C880 1.428 . S
H875 C871 0.930 . S
H876 C873 0.929 . S
S877 N878 1.613 . S
S877 N879 1.610 . S
N878 S877 1.613 . S
N878 C881 1.350 . S
N879 S877 1.610 . S
N879 C880 1.351 . S
C880 C874 1.428 . S
C880 N879 1.351 . S
C880 C881 1.434 . S
C881 C872 1.429 . S
C881 N878 1.350 . S
C881 C880 1.434 . S
C882 C883 1.369 . S
C882 C884 1.419 . S
C882 H886 0.930 . S
C883 C882 1.369 . S
C883 C892 1.429 . S
C884 C882 1.419 . S
C884 C885 1.363 . S
C884 H887 0.929 . S
C885 C884 1.363 . S
C885 C891 1.428 . S
H886 C882 0.930 . S
H887 C884 0.929 . S
S888 N889 1.613 . S
S888 N890 1.610 . S
N889 S888 1.613 . S
N889 C892 1.350 . S
N890 S888 1.610 . S
N890 C891 1.351 . S
C891 C885 1.428 . S
C891 N890 1.351 . S
C891 C892 1.434 . S
C892 C883 1.429 . S
C892 N889 1.350 . S
C892 C891 1.434 . S
C893 C894 1.369 . S
C893 C895 1.419 . S
C893 H897 0.930 . S
C894 C893 1.369 . S
C894 C903 1.429 . S
C895 C893 1.419 . S
C895 C896 1.363 . S
C895 H898 0.929 . S
C896 C895 1.363 . S
C896 C902 1.428 . S
H897 C893 0.930 . S
H898 C895 0.929 . S
S899 N900 1.613 . S
S899 N901 1.610 . S
N900 S899 1.613 . S
N900 C903 1.350 . S
N901 S899 1.610 . S
N901 C902 1.351 . S
C902 C896 1.428 . S
C902 N901 1.351 . S
C902 C903 1.434 . S
C903 C894 1.429 . S
C903 N900 1.350 . S
C903 C902 1.434 . S
C641 C391 2.673 . S
C643 C490 2.838 1_545 S
C654 C530 2.843 . S
C652 C451 2.674 . S
C665 C570 2.847 . S
C663 C241 2.317 . S
C676 C610 2.841 1_455 S
C674 C331 2.305 1_455 S
C687 C499 2.839 1_565 S
C685 C121 2.303 . S
C696 C211 2.677 . S
C698 C539 2.856 . S
C707 C31 2.683 . S
C709 C579 2.856 . S
C718 C91 2.300 . S
C720 C619 2.843 1_655 S
C731 C496 0.794 . S
C729 C301 0.766 . S
C742 C536 0.802 . S
C740 C380 0.808 1_565 S
C753 C576 0.782 . S
C751 C440 0.804 . S
C762 C260 0.784 . S
C764 C616 0.768 . S
C773 C61 0.790 1_455 S
C775 C487 0.806 . S
C786 C527 0.803 . S
C784 C140 0.791 1_545 S
C797 C567 0.774 . S
C795 C200 0.797 . S
C806 C20 0.775 . S
C808 C607 0.797 . S
C817 C320 3.392 1_455 S
C819 C491 3.712 . S
C828 C361 2.932 . S
C830 C531 3.705 . S
C841 C571 3.703 . S
C839 C421 2.929 . S
C852 C611 3.712 . S
C850 C271 3.390 . S
C861 C80 3.372 . S
C863 C482 3.720 . S
C874 C522 3.707 . S
C872 C151 3.358 . S
C885 C562 3.703 . S
C883 C181 2.952 . S
C894 C1 2.960 . S
C896 C602 3.718 . S
