# Generated by pormake.
# Topology pyr, (3,6)-cn, num edge types: 1
# Building blocks:
#     Node 0, Type 0, BuildingBlock: CUQRIR_clean_linker_1, # of connection points: 3
#     Node 1, Type 0, BuildingBlock: CUQRIR_clean_linker_1, # of connection points: 3
#     Node 2, Type 0, BuildingBlock: CUQRIR_clean_linker_1, # of connection points: 3
#     Node 3, Type 0, BuildingBlock: CUQRIR_clean_linker_1, # of connection points: 3
#     Node 4, Type 0, BuildingBlock: CUQRIR_clean_linker_1, # of connection points: 3
#     Node 5, Type 0, BuildingBlock: CUQRIR_clean_linker_1, # of connection points: 3
#     Node 6, Type 0, BuildingBlock: CUQRIR_clean_linker_1, # of connection points: 3
#     Node 7, Type 0, BuildingBlock: CUQRIR_clean_linker_1, # of connection points: 3
#     Node 8, Type 1, BuildingBlock: JUFBIX_clean_sbu_0, # of connection points: 6
#     Node 9, Type 1, BuildingBlock: JUFBIX_clean_sbu_0, # of connection points: 6
#     Node 10, Type 1, BuildingBlock: JUFBIX_clean_sbu_0, # of connection points: 6
#     Node 11, Type 1, BuildingBlock: JUFBIX_clean_sbu_0, # of connection points: 6
#     Edge 12, Type (0, 1), BuildingBlock: XIVTED_clean_linker_0, # of connection points: 2
#     Edge 13, Type (0, 1), BuildingBlock: XIVTED_clean_linker_0, # of connection points: 2
#     Edge 14, Type (0, 1), BuildingBlock: XIVTED_clean_linker_0, # of connection points: 2
#     Edge 15, Type (0, 1), BuildingBlock: XIVTED_clean_linker_0, # of connection points: 2
#     Edge 16, Type (0, 1), BuildingBlock: XIVTED_clean_linker_0, # of connection points: 2
#     Edge 17, Type (0, 1), BuildingBlock: XIVTED_clean_linker_0, # of connection points: 2
#     Edge 18, Type (0, 1), BuildingBlock: XIVTED_clean_linker_0, # of connection points: 2
#     Edge 19, Type (0, 1), BuildingBlock: XIVTED_clean_linker_0, # of connection points: 2
#     Edge 20, Type (0, 1), BuildingBlock: XIVTED_clean_linker_0, # of connection points: 2
#     Edge 21, Type (0, 1), BuildingBlock: XIVTED_clean_linker_0, # of connection points: 2
#     Edge 22, Type (0, 1), BuildingBlock: XIVTED_clean_linker_0, # of connection points: 2
#     Edge 23, Type (0, 1), BuildingBlock: XIVTED_clean_linker_0, # of connection points: 2
#     Edge 24, Type (0, 1), BuildingBlock: XIVTED_clean_linker_0, # of connection points: 2
#     Edge 25, Type (0, 1), BuildingBlock: XIVTED_clean_linker_0, # of connection points: 2
#     Edge 26, Type (0, 1), BuildingBlock: XIVTED_clean_linker_0, # of connection points: 2
#     Edge 27, Type (0, 1), BuildingBlock: XIVTED_clean_linker_0, # of connection points: 2
#     Edge 28, Type (0, 1), BuildingBlock: XIVTED_clean_linker_0, # of connection points: 2
#     Edge 29, Type (0, 1), BuildingBlock: XIVTED_clean_linker_0, # of connection points: 2
#     Edge 30, Type (0, 1), BuildingBlock: XIVTED_clean_linker_0, # of connection points: 2
#     Edge 31, Type (0, 1), BuildingBlock: XIVTED_clean_linker_0, # of connection points: 2
#     Edge 32, Type (0, 1), BuildingBlock: XIVTED_clean_linker_0, # of connection points: 2
#     Edge 33, Type (0, 1), BuildingBlock: XIVTED_clean_linker_0, # of connection points: 2
#     Edge 34, Type (0, 1), BuildingBlock: XIVTED_clean_linker_0, # of connection points: 2
#     Edge 35, Type (0, 1), BuildingBlock: XIVTED_clean_linker_0, # of connection points: 2
# Relax obj value: 0.142
# Max RMSD: 0.221
# Mean RMSD: 0.152
data_MOF--net-pry--node1-JUFBIX_clean_sbu_0--node2-CUQRIR_clean_linker_1--edge1-XIVTED_clean_linker_0
_symmetry_space_group_name_H-M    P1
_symmetry_Int_Tables_number       1
_symmetry_cell_setting            triclinic
loop_
_symmetry_equiv_pos_as_xyz
'x, y, z'
_cell_length_a     34.794255
_cell_length_b     33.257903
_cell_length_c     33.87899
_cell_angle_alpha  79.700136
_cell_angle_beta   89.289671
_cell_angle_gamma 93.486467
loop_
_atom_site_label
_atom_site_type_symbol
_atom_site_fract_x
_atom_site_fract_y
_atom_site_fract_z
_atom_type_partial_charge
C0 C 0.18676 0.20344 0.21101 0.0
N1 N 0.21189 0.17358 0.21965 0.0
N2 N 0.19593 0.22798 0.17524 0.0
C3 C 0.15201 0.20749 0.23668 0.0
C4 C 0.22761 0.21167 0.16236 0.0
N5 N 0.2373 0.17849 0.18916 0.0
C6 C 0.25027 0.22939 0.1245 0.0
H7 H 0.12802 0.2197 0.21785 0.0
H8 H 0.15988 0.22914 0.2571 0.0
H9 H 0.14188 0.17783 0.25539 0.0
H10 H 0.24685 0.26274 0.11592 0.0
H11 H 0.2396 0.2141 0.09984 0.0
H12 H 0.2813 0.22408 0.12825 0.0
C13 C 0.45816 0.88769 0.61827 0.0
N14 N 0.44899 0.9137 0.64298 0.0
N15 N 0.48679 0.86426 0.63362 0.0
C16 C 0.43446 0.88011 0.58301 0.0
C17 C 0.49463 0.87673 0.66868 0.0
N18 N 0.47182 0.90682 0.67434 0.0
C19 C 0.52268 0.85738 0.6985 0.0
H20 H 0.44531 0.8556 0.56844 0.0
H21 H 0.43476 0.90868 0.56036 0.0
H22 H 0.40411 0.87155 0.59305 0.0
H23 H 0.54593 0.84428 0.68306 0.0
H24 H 0.50728 0.83217 0.71984 0.0
H25 H 0.53535 0.88011 0.71576 0.0
C26 C 0.65144 0.3866 0.87057 0.0
N27 N 0.67659 0.3742 0.89964 0.0
N28 N 0.66794 0.41662 0.84209 0.0
C29 C 0.61108 0.36783 0.86926 0.0
C30 C 0.70417 0.42237 0.85504 0.0
N31 N 0.70957 0.39614 0.8898 0.0
C32 C 0.73418 0.45298 0.83291 0.0
H33 H 0.612 0.33931 0.85666 0.0
H34 H 0.59256 0.38917 0.85039 0.0
H35 H 0.59824 0.35957 0.89999 0.0
H36 H 0.72518 0.48434 0.83321 0.0
H37 H 0.73623 0.44912 0.8011 0.0
H38 H 0.76293 0.45045 0.84635 0.0
C39 C 0.95465 0.60109 0.43106 0.0
N40 N 0.98679 0.62509 0.41836 0.0
N41 N 0.94195 0.60791 0.46704 0.0
C42 C 0.93179 0.57625 0.40526 0.0
C43 C 0.96863 0.63595 0.47632 0.0
N44 N 0.99578 0.64686 0.44663 0.0
C45 C 0.96472 0.65736 0.51165 0.0
H46 H 0.90803 0.5943 0.39147 0.0
H47 H 0.91891 0.54763 0.42378 0.0
H48 H 0.94986 0.56814 0.38102 0.0
H49 H 0.94181 0.64187 0.53312 0.0
H50 H 0.95788 0.6896 0.5009 0.0
H51 H 0.99237 0.65779 0.52754 0.0
C52 C 0.82221 0.8582 0.90782 0.0
N53 N 0.84843 0.84876 0.88148 0.0
N54 N 0.8017 0.88994 0.89069 0.0
C55 C 0.81882 0.83816 0.95137 0.0
C56 C 0.81694 0.89981 0.85274 0.0
N57 N 0.84534 0.87484 0.84709 0.0
C58 C 0.80381 0.93361 0.8211 0.0
H59 H 0.79746 0.81154 0.95482 0.0
H60 H 0.80922 0.85991 0.9702 0.0
H61 H 0.84684 0.82688 0.96226 0.0
H62 H 0.81997 0.96269 0.82401 0.0
H63 H 0.77261 0.93742 0.82496 0.0
H64 H 0.80927 0.92775 0.79044 0.0
C65 C 0.65923 0.17916 0.47925 0.0
N66 N 0.66684 0.1475 0.46076 0.0
N67 N 0.62525 0.19446 0.46738 0.0
C68 C 0.68436 0.1948 0.50977 0.0
C69 C 0.61214 0.17082 0.44117 0.0
N70 N 0.63712 0.14187 0.43752 0.0
C71 C 0.57784 0.17971 0.41496 0.0
H72 H 0.66657 0.20744 0.53148 0.0
H73 H 0.70475 0.21979 0.49438 0.0
H74 H 0.70113 0.17002 0.52617 0.0
H75 H 0.58318 0.17287 0.38457 0.0
H76 H 0.57068 0.21213 0.41182 0.0
H77 H 0.55257 0.16002 0.42875 0.0
C78 C 0.33896 0.63264 0.1721 0.0
N79 N 0.36826 0.65629 0.18348 0.0
N80 N 0.32504 0.65063 0.13667 0.0
C81 C 0.32286 0.59263 0.19618 0.0
C82 C 0.34691 0.68612 0.12688 0.0
N83 N 0.37329 0.68959 0.15531 0.0
C84 C 0.33933 0.7195 0.09212 0.0
H85 H 0.30901 0.57311 0.17632 0.0
H86 H 0.30075 0.59874 0.21787 0.0
H87 H 0.34589 0.57608 0.21328 0.0
H88 H 0.31533 0.73703 0.10053 0.0
H89 H 0.33061 0.70627 0.06554 0.0
H90 H 0.36517 0.74078 0.08409 0.0
C91 C 0.07212 0.35278 0.62452 0.0
N92 N 0.09776 0.3419 0.59868 0.0
N93 N 0.08402 0.38874 0.63516 0.0
C94 C 0.03697 0.32669 0.64167 0.0
C95 C 0.11795 0.39928 0.61484 0.0
N96 N 0.12634 0.37081 0.59253 0.0
C97 C 0.14511 0.4345 0.62131 0.0
H98 H 1.01608 0.34508 0.65445 0.0
H99 H 0.04581 0.30198 0.66572 0.0
H100 H 0.02291 0.31203 0.61815 0.0
H101 H 0.17427 0.43327 0.60825 0.0
H102 H 0.14759 0.4348 0.65388 0.0
H103 H 0.13308 0.46365 0.60728 0.0
Co104 Co 0.02094 0.99357 0.51377 0.0
C105 C 0.04913 0.91612 0.51256 0.0
Co106 Co 0.07383 0.98043 0.54777 0.0
C107 C 0.94598 0.02123 0.49181 0.0
C108 C 0.96861 0.98773 0.44938 0.0
N109 N 0.97727 0.00196 0.4833 0.0
N110 N 0.91803 0.01922 0.46484 0.0
C111 C 0.93209 0.99809 0.43809 0.0
H112 H 0.9433 0.03548 0.51797 0.0
H113 H 0.98744 0.97043 0.43414 0.0
C114 C 0.04739 0.0586 0.54716 0.0
N115 N 0.11624 0.973 0.58048 0.0
C116 C 0.15322 0.96542 0.57342 0.0
C117 C 0.11522 0.9783 0.61909 0.0
N118 N 0.17479 0.9653 0.60643 0.0
C119 C 0.15083 0.97335 0.63506 0.0
C120 C 0.08992 0.01586 0.46831 0.0
O121 O 0.02085 0.04787 0.52505 0.0
O122 O 0.07183 0.03317 0.5606 0.0
O123 O 0.10602 0.00335 0.5015 0.0
O124 O 0.05324 0.01383 0.4672 0.0
O125 O 0.07603 0.92736 0.53414 0.0
H126 H 0.09039 0.98675 0.63449 0.0
H127 H 0.16415 0.96055 0.54471 0.0
O128 O 0.02223 0.93985 0.50223 0.0
O129 O 0.98861 0.97287 0.56078 0.0
O130 O 0.04098 0.95771 0.59344 0.0
C131 C 1.00451 0.95796 0.59328 0.0
H132 H 0.91713 0.99092 0.41214 0.0
H133 H 0.15885 0.97696 0.66507 0.0
Co134 Co 0.51226 0.03528 0.02934 0.0
C135 C 0.50314 0.96366 0.08854 0.0
Co136 Co 0.54573 0.03504 0.08456 0.0
C137 C 0.48988 0.02782 0.94807 0.0
C138 C 0.44172 0.02423 0.98871 0.0
N139 N 0.48034 0.03163 0.98603 0.0
N140 N 0.45886 0.01759 0.92749 0.0
C141 C 0.42852 0.01559 0.95293 0.0
H142 H 0.51924 0.02926 0.93671 0.0
H143 H 0.42444 0.02225 1.01581 0.0
C144 C 0.55542 0.10681 0.02591 0.0
N145 N 0.57834 0.03833 0.12692 0.0
C146 C 0.57187 0.03297 0.16701 0.0
C147 C 0.61623 0.04943 0.12168 0.0
N148 N 0.60446 0.04018 0.18684 0.0
C149 C 0.63226 0.05055 0.15814 0.0
C150 C 0.58363 0.0052 1.02192 0.0
O151 O 0.53224 0.08868 1.00506 0.0
O152 O 0.56385 0.08891 0.06073 0.0
O153 O 0.58658 0.01245 0.05741 0.0
O154 O 0.5526 0.01258 1.00355 0.0
O155 O 0.52766 0.98151 0.10808 0.0
H156 H 0.63118 0.05753 0.0929 0.0
H157 H 0.54377 0.0246 0.18116 0.0
O158 O 0.49278 0.98174 0.05436 0.0
O159 O 0.47226 0.05825 0.05559 0.0
O160 O 0.5039 0.05704 0.11127 0.0
C161 C 0.47336 0.06463 0.0915 0.0
H162 H 0.39914 0.00637 0.94679 0.0
H163 H 0.66184 0.06026 0.16277 0.0
Co164 Co 0.54949 0.54941 0.49786 0.0
C165 C 0.48923 0.55858 0.44461 0.0
Co166 Co 0.49328 0.52322 0.5243 0.0
C167 C 0.63175 0.56246 0.48534 0.0
C168 C 0.60084 0.60661 0.44644 0.0
N169 N 0.59584 0.57254 0.47479 0.0
N170 N 0.65891 0.58928 0.46517 0.0
C171 C 0.63954 0.61694 0.44045 0.0
H172 H 0.6378 0.53719 0.50885 0.0
H173 H 0.5778 0.6238 0.43218 0.0
C174 C 0.55375 0.51476 0.57745 0.0
N175 N 0.4468 0.50037 0.548 0.0
C176 C 0.41852 0.47796 0.53325 0.0
C177 C 0.43566 0.50044 0.58626 0.0
N178 N 0.39063 0.46357 0.56116 0.0
C179 C 0.40131 0.47768 0.59448 0.0
C180 C 0.53549 0.46817 0.49211 0.0
O181 O 0.57324 0.53532 0.54799 0.0
O182 O 0.51838 0.50522 0.57318 0.0
O183 O 0.50305 0.4727 0.50798 0.0
O184 O 0.56031 0.49837 0.48503 0.0
O185 O 0.46858 0.54152 0.47495 0.0
H186 H 0.45184 0.51553 0.60711 0.0
H187 H 0.41892 0.47131 0.50312 0.0
O188 O 0.52537 0.56353 0.44818 0.0
O189 O 0.53884 0.60006 0.51098 0.0
O190 O 0.48446 0.57405 0.54105 0.0
C191 C 0.50898 0.60431 0.53125 0.0
H192 H 0.65236 0.64331 0.42011 0.0
H193 H 0.38527 0.47205 0.62273 0.0
Co194 Co 0.02434 0.52705 0.98824 0.0
C195 C 0.9511 0.48757 1.00214 0.0
Co196 Co 0.99872 0.52987 0.04756 0.0
C197 C 0.03863 0.50028 0.91267 0.0
C198 C 0.06378 0.56028 0.91445 0.0
N199 N 0.04383 0.52803 0.93704 0.0
N200 N 0.05418 0.51424 0.87565 0.0
C201 C 0.07021 0.55189 0.87682 0.0
H202 H 0.02236 0.47117 0.92139 0.0
H203 H 0.07209 0.58868 0.92434 0.0
C204 C 0.07205 0.56832 0.03368 0.0
N205 N 0.98025 0.52995 0.09929 0.0
C206 C 0.98894 0.55773 0.12305 0.0
C207 C 0.96253 0.49768 0.12403 0.0
N208 N 0.97832 0.54355 0.1617 0.0
C209 C 0.96149 0.50587 0.16242 0.0
C210 C 0.04407 0.46223 0.04537 0.0
O211 O 0.06967 0.55617 1.00038 0.0
O212 O 0.04371 0.56079 0.05833 0.0
O213 O 0.02378 0.48056 0.06728 0.0
O214 O 0.0476 0.47667 1.00796 0.0
O215 O 0.95377 0.4986 0.03613 0.0
H216 H 0.95355 0.46886 0.11533 0.0
H217 H 1.00559 0.58638 0.11295 0.0
O218 O 0.9787 0.49732 0.97659 0.0
O219 O 1.00137 0.57769 0.96896 0.0
O220 O 0.97415 0.5793 0.02735 0.0
C221 C 0.98023 0.59537 0.9906 0.0
H222 H 0.0852 0.57216 0.85211 0.0
H223 H 0.95095 0.48497 0.18912 0.0
H224 H 0.24111 0.1723 0.29312 0.0
H225 H 0.06774 0.02169 0.39047 0.0
H226 H 0.1695 0.10251 0.22411 0.0
H227 H 0.16498 0.04896 0.46108 0.0
H228 H 0.10462 0.05234 0.32946 0.0
H229 H 0.21585 0.12772 0.35516 0.0
C230 C 0.2213 0.14639 0.2911 0.0
C231 C 0.20795 0.14039 0.25357 0.0
C232 C 0.1181 0.05133 0.35823 0.0
C233 C 0.17723 0.09074 0.32418 0.0
C234 C 0.09693 0.03403 0.39317 0.0
C235 C 0.11316 0.03284 0.4311 0.0
C236 C 0.15567 0.06854 0.36095 0.0
C237 C 0.15129 0.04916 0.43254 0.0
C238 C 0.20648 0.12131 0.32644 0.0
C239 C 0.18112 0.10741 0.25247 0.0
N240 N 0.17103 0.06684 0.39806 0.0
N241 N 0.16609 0.08436 0.28719 0.0
H242 H 0.48434 0.98638 0.67977 0.0
H243 H 0.41619 0.95333 0.90884 0.0
H244 H 0.45218 0.8674 0.74913 0.0
H245 H 0.50226 0.04876 0.86064 0.0
H246 H 0.41827 0.92746 0.84573 0.0
H247 H 0.48081 0.01593 0.74155 0.0
C248 C 0.47648 0.96669 0.70812 0.0
C249 C 0.46893 0.92458 0.7099 0.0
C250 C 0.43659 0.95416 0.8489 0.0
C251 C 0.46412 0.95768 0.77976 0.0
C252 C 0.43519 0.96913 0.88472 0.0
C253 C 0.459 0.00332 0.8898 0.0
C254 C 0.46149 0.9739 0.81758 0.0
C255 C 0.4836 0.02224 0.85782 0.0
C256 C 0.47461 0.98336 0.74315 0.0
C257 C 0.45868 0.89996 0.74696 0.0
N258 N 0.48407 0.00742 0.82284 0.0
N259 N 0.45631 0.91691 0.78046 0.0
H260 H 0.64071 0.3709 0.7894 0.0
H261 H 0.61598 0.55161 0.60829 0.0
H262 H 0.6629 0.49567 0.80569 0.0
H263 H 0.53291 0.44808 0.63427 0.0
H264 H 0.64553 0.5287 0.67341 0.0
H265 H 0.61292 0.39574 0.72416 0.0
C266 C 0.63954 0.40355 0.77917 0.0
C267 C 0.65342 0.43137 0.80299 0.0
C268 C 0.6208 0.5112 0.66467 0.0
C269 C 0.62322 0.45986 0.72822 0.0
C270 C 0.60411 0.52404 0.62765 0.0
C271 C 0.57199 0.50165 0.61614 0.0
C272 C 0.60585 0.47521 0.68951 0.0
C273 C 0.55752 0.46627 0.64222 0.0
C274 C 0.62394 0.41763 0.74205 0.0
C275 C 0.65258 0.4734 0.78798 0.0
N276 N 0.57484 0.45386 0.67759 0.0
N277 N 0.63776 0.48653 0.75129 0.0
H278 H 0.96193 0.67336 0.35257 0.0
H279 H 1.00636 0.50505 0.23126 0.0
H280 H 0.04352 0.58403 0.39348 0.0
H281 H 0.9752 0.62295 0.16972 0.0
H282 H 0.02168 0.53495 0.29054 0.0
H283 H 0.96998 0.66038 0.28427 0.0
C284 C 0.9834 0.65288 0.34661 0.0
C285 C 1.00292 0.63048 0.37838 0.0
C286 C 1.01197 0.5545 0.26395 0.0
C287 C 1.01006 0.61305 0.30106 0.0
C288 C 1.00278 0.53731 0.23035 0.0
C289 C 0.98896 0.56152 0.19593 0.0
C290 C 1.00646 0.59605 0.26353 0.0
C291 C 0.98557 0.60334 0.19589 0.0
C292 C 0.98741 0.64479 0.30776 0.0
C293 C 0.02866 0.60241 0.36952 0.0
N294 N 0.99355 0.61921 0.2295 0.0
N295 N 0.03075 0.59363 0.33187 0.0
H296 H 0.30245 0.16787 0.23238 0.0
H297 H 0.40293 0.07426 0.05797 0.0
H298 H 0.24382 0.13325 0.13147 0.0
H299 H 0.46275 0.08721 0.16624 0.0
H300 H 0.34492 0.09582 0.08618 0.0
H301 H 0.36085 0.13709 0.212 0.0
C302 C 0.30162 0.15268 0.20665 0.0
C303 C 0.26828 0.15268 0.18371 0.0
C304 C 0.37056 0.09395 0.10404 0.0
C305 C 0.33498 0.11867 0.15943 0.0
C306 C 0.40404 0.08171 0.08778 0.0
C307 C 0.43822 0.07889 0.10955 0.0
C308 C 0.37066 0.10405 0.14257 0.0
C309 C 0.43723 0.08898 0.14821 0.0
C310 C 0.335 0.13555 0.19474 0.0
C311 C 0.26887 0.13356 0.15006 0.0
N312 N 0.40411 0.10132 0.16339 0.0
N313 N 0.3016 0.11777 0.1388 0.0
H314 H 0.3922 0.89214 0.69837 0.0
H315 H 0.23243 0.98853 0.55048 0.0
H316 H 0.42147 0.97206 0.58617 0.0
H317 H 0.20937 0.93031 0.67344 0.0
H318 H 0.30178 0.98299 0.56177 0.0
H319 H 0.32521 0.90877 0.69059 0.0
C320 C 0.38462 0.91446 0.67281 0.0
C321 C 0.41225 0.93124 0.64313 0.0
C322 C 0.28145 0.97163 0.58626 0.0
C323 C 0.33528 0.9487 0.6326 0.0
C324 C 0.24198 0.97433 0.57967 0.0
C325 C 0.21526 0.95989 0.6111 0.0
C326 C 0.294 0.954 0.62441 0.0
C327 C 0.22904 0.94223 0.64854 0.0
C328 C 0.34625 0.92343 0.66792 0.0
C329 C 0.40075 0.9587 0.60966 0.0
N330 N 0.26736 0.9397 0.6541 0.0
N331 N 0.36292 0.96617 0.60491 0.0
H332 H 0.7791 0.37251 0.87057 0.0
H333 H 0.88169 0.47281 0.04333 0.0
H334 H 0.71689 0.41786 0.96208 0.0
H335 H 0.94021 0.45037 0.93703 0.0
H336 H 0.82251 0.43972 1.02221 0.0
H337 H 0.83972 0.38618 0.90367 0.0
C338 C 0.77839 0.38438 0.89831 0.0
C339 C 0.74349 0.39463 0.91361 0.0
C340 C 0.84842 0.44173 1.00374 0.0
C341 C 0.81211 0.41095 0.95125 0.0
C342 C 0.88222 0.46059 1.01577 0.0
C343 C 0.91586 0.46482 0.99167 0.0
C344 C 0.84834 0.42672 0.96751 0.0
C345 C 0.91486 0.44825 0.95634 0.0
C346 C 0.81281 0.39252 0.917 0.0
C347 C 0.74353 0.40985 0.94954 0.0
N348 N 0.88164 0.43016 0.94525 0.0
N349 N 0.77744 0.41816 0.96693 0.0
H350 H 0.89618 0.67038 0.46228 0.0
H351 H 0.70298 0.52524 0.49021 0.0
H352 H 0.8965 0.53925 0.49513 0.0
H353 H 0.70782 0.65682 0.45605 0.0
H354 H 0.77278 0.52899 0.49994 0.0
H355 H 0.82632 0.66563 0.46936 0.0
C356 C 0.88136 0.64061 0.4721 0.0
C357 C 0.90184 0.60516 0.47849 0.0
C358 C 0.75845 0.557 0.49051 0.0
C359 C 0.82169 0.59907 0.48492 0.0
C360 C 0.71868 0.55489 0.48499 0.0
C361 C 0.69968 0.59074 0.47175 0.0
C362 C 0.77917 0.59527 0.48289 0.0
C363 C 0.72136 0.62834 0.46533 0.0
C364 C 0.84146 0.63778 0.47566 0.0
C365 C 0.88143 0.56717 0.49004 0.0
N366 N 0.75988 0.62958 0.47083 0.0
N367 N 0.84226 0.56499 0.49244 0.0
H368 H 0.17148 0.24075 0.09836 0.0
H369 H 0.05382 0.43393 0.12533 0.0
H370 H 0.17315 0.29296 0.20585 0.0
H371 H 0.08327 0.40864 1.0085 0.0
H372 H 0.09139 0.3774 0.15615 0.0
H373 H 0.13451 0.29763 0.06543 0.0
C374 C 0.16433 0.26439 0.11489 0.0
C375 C 0.17539 0.26211 0.15493 0.0
C376 C 0.08964 0.38413 0.12377 0.0
C377 C 0.13227 0.32673 0.11785 0.0
C378 C 0.06795 0.41633 0.10607 0.0
C379 C 0.06525 0.42623 0.06413 0.0
C380 C 0.1086 0.36101 0.09955 0.0
C381 C 0.0845 0.40224 0.04091 0.0
C382 C 0.14306 0.2967 0.09619 0.0
C383 C 0.16476 0.29321 0.17518 0.0
N384 N 0.10522 0.3707 0.05891 0.0
N385 N 0.14366 0.32398 0.15658 0.0
H386 H 0.69376 0.30287 0.88077 0.0
H387 H 0.58108 0.16534 0.06788 0.0
H388 H 0.64585 0.35716 0.97475 0.0
H389 H 0.57471 0.13948 0.94772 0.0
H390 H 0.61789 0.23011 0.04156 0.0
H391 H 0.66606 0.23546 0.91409 0.0
C392 C 0.67878 0.30003 0.90945 0.0
C393 C 0.67232 0.33503 0.92555 0.0
C394 C 0.60833 0.21022 1.02106 0.0
C395 C 0.63984 0.25897 0.96307 0.0
C396 C 0.58729 0.17344 0.03592 0.0
C397 C 0.5746 0.14729 1.00979 0.0
C398 C 0.61763 0.22031 0.97999 0.0
C399 C 0.58355 0.15905 0.96875 0.0
C400 C 0.66242 0.26195 0.92797 0.0
C401 C 0.6518 0.3305 0.96203 0.0
N402 N 0.60487 0.19459 0.95512 0.0
N403 N 0.63595 0.29305 0.9796 0.0
H404 H 0.98059 0.71617 0.39732 0.0
H405 H 0.09483 0.8512 0.53534 0.0
H406 H 0.05882 0.66528 0.48716 0.0
H407 H 1.00461 0.89227 0.45439 0.0
H408 H 0.0927 0.78645 0.50961 0.0
H409 H 1.0025 0.78476 0.40635 0.0
C410 C 1.00396 0.71961 0.4174 0.0
C411 C 1.01841 0.68517 0.44101 0.0
C412 C 0.07365 0.80988 0.49734 0.0
C413 C 0.04181 0.76354 0.45393 0.0
C414 C 0.07473 0.84671 0.51212 0.0
C415 C 0.04944 0.87697 0.49748 0.0
C416 C 0.04738 0.80358 0.46747 0.0
C417 C 0.02426 0.86967 0.4671 0.0
C418 C 1.01584 0.75878 0.4234 0.0
C419 C 0.04739 0.6913 0.46815 0.0
N420 N 0.0238 0.83381 0.45331 0.0
N421 N 0.05762 0.72974 0.47457 0.0
H422 H 0.45992 0.78975 0.67106 0.0
H423 H 0.54938 0.67708 0.50492 0.0
H424 H 0.53025 0.85248 0.57096 0.0
H425 H 0.46021 0.6203 0.59013 0.0
H426 H 0.54694 0.73999 0.53204 0.0
H427 H 0.4653 0.72513 0.64644 0.0
C428 C 0.47722 0.78943 0.64434 0.0
C429 C 0.49511 0.82583 0.62305 0.0
C430 C 0.52777 0.71388 0.54472 0.0
C431 C 0.50072 0.75299 0.59421 0.0
C432 C 0.52907 0.67793 0.52921 0.0
C433 C 0.50488 0.64339 0.54528 0.0
C434 C 0.50235 0.71531 0.57681 0.0
C435 C 0.47918 0.6463 0.57671 0.0
C436 C 0.47993 0.75289 0.63004 0.0
C437 C 0.51655 0.82464 0.58818 0.0
N438 N 0.47873 0.68162 0.59163 0.0
N439 N 0.51871 0.78874 0.57469 0.0
H440 H 0.82631 0.85613 0.77488 0.0
H441 H 0.03047 0.9409 0.67009 0.0
H442 H 0.91913 0.90543 0.838 0.0
H443 H 0.92607 0.93849 0.60296 0.0
H444 H 0.9929 0.91631 0.73211 0.0
H445 H 0.86522 0.87394 0.71206 0.0
C446 C 0.8553 0.86979 0.77554 0.0
C447 C 0.86992 0.87868 0.81166 0.0
C448 C 0.97819 0.92104 0.70383 0.0
C449 C 0.91446 0.89945 0.74019 0.0
C450 C 0.99965 0.93503 0.66827 0.0
C451 C 0.9815 0.94201 0.63101 0.0
C452 C 0.93815 0.91319 0.70245 0.0
C453 C 0.94135 0.93379 0.63089 0.0
C454 C 0.87732 0.8803 0.73976 0.0
C455 C 0.9073 0.89713 0.81097 0.0
N456 N 0.92109 0.91969 0.66596 0.0
N457 N 0.92828 0.90684 0.77592 0.0
H458 H 0.57829 0.08815 0.42797 0.0
H459 H 0.67047 0.03432 0.22891 0.0
H460 H 0.68998 0.13689 0.37956 0.0
H461 H 0.5488 0.04962 0.24148 0.0
H462 H 0.67986 0.04999 0.29581 0.0
H463 H 0.56959 0.05263 0.37057 0.0
C464 C 0.60127 0.09048 0.40568 0.0
C465 C 0.63488 0.11527 0.40832 0.0
C466 C 0.65108 0.04939 0.284 0.0
C467 C 0.62552 0.07463 0.34354 0.0
C468 C 0.64562 0.04071 0.2457 0.0
C469 C 0.6089 0.0419 0.22882 0.0
C470 C 0.61954 0.05862 0.30603 0.0
C471 C 0.57765 0.0487 0.25294 0.0
C472 C 0.59629 0.07041 0.3731 0.0
C473 C 0.66396 0.11751 0.37892 0.0
N474 N 0.58374 0.05726 0.29026 0.0
N475 N 0.65857 0.09753 0.34761 0.0
H476 H 0.33444 0.65063 0.25627 0.0
H477 H 0.52636 0.58828 0.37299 0.0
H478 H 0.44322 0.64458 0.19664 0.0
H479 H 0.41262 0.56537 0.42793 0.0
H480 H 0.49775 0.6168 0.30957 0.0
H481 H 0.36417 0.62839 0.32123 0.0
C482 C 0.3648 0.64513 0.25717 0.0
C483 C 0.38667 0.6494 0.22153 0.0
C484 C 0.47904 0.60549 0.33547 0.0
C485 C 0.42076 0.62387 0.29501 0.0
C486 C 0.49532 0.58913 0.37171 0.0
C487 C 0.4718 0.57426 0.40581 0.0
C488 C 0.43895 0.60733 0.33328 0.0
C489 C 0.4318 0.57628 0.40235 0.0
C490 C 0.38169 0.6323 0.294 0.0
C491 C 0.4258 0.64214 0.22371 0.0
N492 N 0.41662 0.59263 0.3667 0.0
N493 N 0.44166 0.62949 0.25992 0.0
H494 H 0.06402 0.46571 0.63502 0.0
H495 H 0.0509 0.43258 0.87511 0.0
H496 H 0.07625 0.34958 0.71194 0.0
H497 H 0.05311 0.55069 0.79755 0.0
H498 H 0.05119 0.39998 0.81573 0.0
H499 H 0.05083 0.49604 0.69434 0.0
C500 C 0.06323 0.44661 0.6645 0.0
C501 C 0.07087 0.40527 0.66891 0.0
C502 C 0.05144 0.43304 0.81176 0.0
C503 C 0.05642 0.43932 0.73668 0.0
C504 C 0.05112 0.4516 0.84562 0.0
C505 C 0.05247 0.4944 0.84124 0.0
C506 C 0.05288 0.4575 0.77331 0.0
C507 C 0.05291 0.51765 0.80232 0.0
C508 C 0.05587 0.46377 0.69828 0.0
C509 C 0.06982 0.38148 0.70752 0.0
N510 N 0.05326 0.49892 0.76989 0.0
N511 N 0.06299 0.3989 0.74003 0.0
H512 H 0.74097 0.84826 0.93394 0.0
H513 H 0.6074 0.02543 0.94325 0.0
H514 H 0.78857 0.97063 0.88809 0.0
H515 H 0.63367 0.94855 0.05485 0.0
H516 H 0.66161 0.99877 0.91048 0.0
H517 H 0.68891 0.87708 0.96735 0.0
C518 C 0.74062 0.88116 0.93099 0.0
C519 C 0.7696 0.90699 0.90848 0.0
C520 C 0.65538 0.98787 0.94212 0.0
C521 C 0.70893 0.94005 0.94502 0.0
C522 C 0.62446 0.00282 0.96078 0.0
C523 C 0.61612 0.98919 1.00185 0.0
C524 C 0.67719 0.958 0.96434 0.0
C525 C 0.63926 0.95999 1.0232 0.0
C526 C 0.71078 0.8975 0.94985 0.0
C527 C 0.76672 0.94953 0.90462 0.0
N528 N 0.66838 0.94486 1.00407 0.0
N529 N 0.73673 0.96477 0.92237 0.0
H530 H 0.73792 0.18517 0.44863 0.0
H531 H 0.85003 0.98584 0.44369 0.0
H532 H 0.67767 0.06603 0.47155 0.0
H533 H 0.90163 0.0911 0.48562 0.0
H534 H 0.78714 0.01604 0.44296 0.0
H535 H 0.7992 0.15271 0.45103 0.0
C536 C 0.73772 0.1521 0.45475 0.0
C537 C 0.70287 0.12815 0.46105 0.0
C538 C 0.81226 0.03235 0.45243 0.0
C539 C 0.77273 0.09081 0.46216 0.0
C540 C 0.84806 0.01534 0.45261 0.0
C541 C 0.88093 0.03612 0.46472 0.0
C542 C 0.80965 0.07079 0.46353 0.0
C543 C 0.8769 0.07404 0.47638 0.0
C544 C 0.77261 0.13362 0.45581 0.0
C545 C 0.70405 0.08541 0.46692 0.0
N546 N 0.84198 0.09036 0.47512 0.0
N547 N 0.73852 0.06797 0.46722 0.0
H548 H 0.25626 0.65038 0.17313 0.0
H549 H 0.14012 0.58319 0.99069 0.0
H550 H 0.31095 0.63097 0.06412 0.0
H551 H 0.08722 0.59607 0.1034 0.0
H552 H 0.20216 0.60679 1.01417 0.0
H553 H 0.19323 0.63541 0.14583 0.0
C554 C 0.25468 0.64269 0.14342 0.0
C555 C 0.28829 0.6414 0.12076 0.0
C556 C 0.17691 0.60474 0.03362 0.0
C557 C 0.21689 0.62478 0.08906 0.0
C558 C 0.14146 0.59143 1.02019 0.0
C559 C 0.10854 0.58734 0.04528 0.0
C560 C 0.17938 0.61398 0.07238 0.0
C561 C 0.11191 0.59853 0.08315 0.0
C562 C 0.21891 0.63441 0.12774 0.0
C563 C 0.28534 0.63206 0.08225 0.0
N564 N 0.14678 0.61107 0.09564 0.0
N565 N 0.25012 0.62393 0.06753 0.0
H566 H 0.15547 0.41315 0.52238 0.0
H567 H 0.36117 0.3992 0.61484 0.0
H568 H 0.1824 0.32492 0.62556 0.0
H569 H 0.3418 0.47123 0.49885 0.0
H570 H 0.29796 0.36353 0.61314 0.0
H571 H 0.22454 0.42619 0.5057 0.0
C572 C 0.17603 0.39515 0.54033 0.0
C573 C 0.16357 0.36762 0.57501 0.0
C574 C 0.30758 0.38663 0.58765 0.0
C575 C 0.24227 0.38336 0.5575 0.0
C576 C 0.3436 0.40707 0.58877 0.0
C577 C 0.35627 0.43847 0.55722 0.0
C578 C 0.28354 0.39835 0.55512 0.0
C579 C 0.33283 0.44722 0.52379 0.0
C580 C 0.2154 0.40285 0.53118 0.0
C581 C 0.19103 0.34576 0.59818 0.0
N582 N 0.29716 0.42786 0.52395 0.0
N583 N 0.22914 0.35466 0.58948 0.0
H584 H 0.81692 0.77188 0.89807 0.0
H585 H 1.009 0.65492 0.92907 0.0
H586 H 0.92625 0.8412 0.88254 0.0
H587 H 0.91117 0.62305 1.01043 0.0
H588 H 0.97837 0.71729 0.89791 0.0
H589 H 0.85008 0.70985 0.92395 0.0
C590 C 0.84806 0.77372 0.89914 0.0
C591 C 0.86889 0.81162 0.88783 0.0
C592 C 0.96376 0.69661 0.92262 0.0
C593 C 0.90704 0.74086 0.91733 0.0
C594 C 0.98108 0.66104 0.94036 0.0
C595 C 0.96263 0.63382 0.97253 0.0
C596 C 0.92716 0.70431 0.93624 0.0
C597 C 0.92653 0.6433 0.98595 0.0
C598 C 0.86687 0.73851 0.91423 0.0
C599 C 0.90919 0.81253 0.89007 0.0
N600 N 0.90977 0.67744 0.96743 0.0
N601 N 0.92705 0.7776 0.90457 0.0
H602 H 0.34385 0.75738 0.17172 0.0
H603 H 0.53721 0.90017 0.13491 0.0
H604 H 0.45009 0.70671 0.14559 0.0
H605 H 0.4296 0.93469 0.08108 0.0
H606 H 0.50723 0.83116 0.16076 0.0
H607 H 0.37738 0.82572 0.16239 0.0
C608 C 0.37457 0.76071 0.16531 0.0
C609 C 0.39451 0.72688 0.15949 0.0
C610 C 0.49032 0.85413 0.14357 0.0
C611 C 0.43275 0.80406 0.14884 0.0
C612 C 0.50724 0.89327 0.12893 0.0
C613 C 0.48578 0.92276 0.10565 0.0
C614 C 0.4515 0.84528 0.13589 0.0
C615 C 0.44714 0.91256 0.09857 0.0
C616 C 0.39352 0.79944 0.15974 0.0
C617 C 0.43412 0.73224 0.15079 0.0
N618 N 0.43112 0.87469 0.11388 0.0
N619 N 0.45211 0.77039 0.14541 0.0
H620 H 0.12755 0.27427 0.63825 0.0
H621 H 1.01424 0.12779 0.50906 0.0
H622 H 0.0631 0.32054 0.53436 0.0
H623 H 0.09341 0.08583 0.60239 0.0
H624 H 0.0296 0.19844 0.51862 0.0
H625 H 0.11536 0.20464 0.62507 0.0
C626 C 0.11189 0.26958 0.61187 0.0
C627 C 0.09721 0.30274 0.58659 0.0
C628 C 0.0435 0.17368 0.53701 0.0
C629 C 0.08133 0.22349 0.57222 0.0
C630 C 0.03447 0.13338 0.53182 0.0
C631 C 0.05257 0.1009 0.55495 0.0
C632 C 0.07059 0.18136 0.56567 0.0
C633 C 0.07883 0.1099 0.58378 0.0
C634 C 0.10439 0.22996 0.6046 0.0
C635 C 0.07553 0.29544 0.55379 0.0
N636 N 0.08702 0.14918 0.58827 0.0
N637 N 0.06796 0.25646 0.5476 0.0
H638 H 0.66477 0.26733 0.4477 0.0
H639 H 0.49285 0.39464 0.51031 0.0
H640 H 0.55576 0.21017 0.49576 0.0
H641 H 0.60212 0.44897 0.45866 0.0
H642 H 0.51391 0.32698 0.50423 0.0
H643 H 0.64161 0.33437 0.45188 0.0
C644 C 0.63607 0.26912 0.45972 0.0
C645 C 0.61223 0.23355 0.47202 0.0
C646 C 0.53313 0.35377 0.49404 0.0
C647 C 0.58499 0.30993 0.47611 0.0
C648 C 0.52108 0.39241 0.49733 0.0
C649 C 0.5458 0.42753 0.48508 0.0
C650 C 0.57015 0.35032 0.47846 0.0
C651 C 0.58209 0.4228 0.4686 0.0
C652 C 0.62266 0.30728 0.46175 0.0
C653 C 0.5749 0.23718 0.48635 0.0
N654 N 0.59319 0.38495 0.46597 0.0
N655 N 0.56233 0.2748 0.48806 0.0
loop_
_geom_bond_atom_site_label_1
_geom_bond_atom_site_label_2
_geom_bond_distance
_geom_bond_site_symmetry_2
_ccdc_geom_bond_type
C0 N1 1.317 . S
C0 N2 1.348 . S
C0 C3 1.485 . S
N1 C0 1.317 . S
N1 N5 1.370 . S
N2 C0 1.348 . S
N2 C4 1.346 . S
C3 C0 1.485 . S
C3 H7 0.960 . S
C3 H8 0.961 . S
C3 H9 0.960 . S
C4 N2 1.346 . S
C4 N5 1.307 . S
C4 C6 1.486 . S
N5 N1 1.370 . S
N5 C4 1.307 . S
C6 C4 1.486 . S
C6 H10 0.960 . S
C6 H11 0.960 . S
C6 H12 0.959 . S
H7 C3 0.960 . S
H8 C3 0.961 . S
H9 C3 0.960 . S
H10 C6 0.960 . S
H11 C6 0.960 . S
H12 C6 0.959 . S
C13 N14 1.317 . S
C13 N15 1.348 . S
C13 C16 1.485 . S
N14 C13 1.317 . S
N14 N18 1.370 . S
N15 C13 1.348 . S
N15 C17 1.346 . S
C16 C13 1.485 . S
C16 H20 0.960 . S
C16 H21 0.961 . S
C16 H22 0.960 . S
C17 N15 1.346 . S
C17 N18 1.307 . S
C17 C19 1.486 . S
N18 N14 1.370 . S
N18 C17 1.307 . S
C19 C17 1.486 . S
C19 H23 0.960 . S
C19 H24 0.960 . S
C19 H25 0.959 . S
H20 C16 0.960 . S
H21 C16 0.961 . S
H22 C16 0.960 . S
H23 C19 0.960 . S
H24 C19 0.960 . S
H25 C19 0.959 . S
C26 N27 1.317 . S
C26 N28 1.348 . S
C26 C29 1.485 . S
N27 C26 1.317 . S
N27 N31 1.370 . S
N28 C26 1.348 . S
N28 C30 1.346 . S
C29 C26 1.485 . S
C29 H33 0.960 . S
C29 H34 0.961 . S
C29 H35 0.960 . S
C30 N28 1.346 . S
C30 N31 1.307 . S
C30 C32 1.486 . S
N31 N27 1.370 . S
N31 C30 1.307 . S
C32 C30 1.486 . S
C32 H36 0.960 . S
C32 H37 0.960 . S
C32 H38 0.959 . S
H33 C29 0.960 . S
H34 C29 0.961 . S
H35 C29 0.960 . S
H36 C32 0.960 . S
H37 C32 0.960 . S
H38 C32 0.959 . S
C39 N40 1.317 . S
C39 N41 1.348 . S
C39 C42 1.485 . S
N40 C39 1.317 . S
N40 N44 1.370 . S
N41 C39 1.348 . S
N41 C43 1.346 . S
C42 C39 1.485 . S
C42 H46 0.960 . S
C42 H47 0.961 . S
C42 H48 0.960 . S
C43 N41 1.346 . S
C43 N44 1.307 . S
C43 C45 1.486 . S
N44 N40 1.370 . S
N44 C43 1.307 . S
C45 C43 1.486 . S
C45 H49 0.960 . S
C45 H50 0.960 . S
C45 H51 0.959 . S
H46 C42 0.960 . S
H47 C42 0.961 . S
H48 C42 0.960 . S
H49 C45 0.960 . S
H50 C45 0.960 . S
H51 C45 0.959 . S
C52 N53 1.317 . S
C52 N54 1.348 . S
C52 C55 1.485 . S
N53 C52 1.317 . S
N53 N57 1.370 . S
N54 C52 1.348 . S
N54 C56 1.346 . S
C55 C52 1.485 . S
C55 H59 0.960 . S
C55 H60 0.961 . S
C55 H61 0.960 . S
C56 N54 1.346 . S
C56 N57 1.307 . S
C56 C58 1.486 . S
N57 N53 1.370 . S
N57 C56 1.307 . S
C58 C56 1.486 . S
C58 H62 0.960 1_565 S
C58 H63 0.960 . S
C58 H64 0.959 . S
H59 C55 0.960 . S
H60 C55 0.961 . S
H61 C55 0.960 . S
H62 C58 0.960 1_545 S
H63 C58 0.960 . S
H64 C58 0.959 . S
C65 N66 1.317 . S
C65 N67 1.348 . S
C65 C68 1.485 . S
N66 C65 1.317 . S
N66 N70 1.370 . S
N67 C65 1.348 . S
N67 C69 1.346 . S
C68 C65 1.485 . S
C68 H72 0.960 . S
C68 H73 0.961 . S
C68 H74 0.960 . S
C69 N67 1.346 . S
C69 N70 1.307 . S
C69 C71 1.486 . S
N70 N66 1.370 . S
N70 C69 1.307 . S
C71 C69 1.486 . S
C71 H75 0.960 . S
C71 H76 0.960 . S
C71 H77 0.959 . S
H72 C68 0.960 . S
H73 C68 0.961 . S
H74 C68 0.960 . S
H75 C71 0.960 . S
H76 C71 0.960 . S
H77 C71 0.959 . S
C78 N79 1.317 . S
C78 N80 1.348 . S
C78 C81 1.485 . S
N79 C78 1.317 . S
N79 N83 1.370 . S
N80 C78 1.348 . S
N80 C82 1.346 . S
C81 C78 1.485 . S
C81 H85 0.960 . S
C81 H86 0.961 . S
C81 H87 0.960 . S
C82 N80 1.346 . S
C82 N83 1.307 . S
C82 C84 1.486 . S
N83 N79 1.370 . S
N83 C82 1.307 . S
C84 C82 1.486 . S
C84 H88 0.960 . S
C84 H89 0.960 . S
C84 H90 0.959 . S
H85 C81 0.960 . S
H86 C81 0.961 . S
H87 C81 0.960 . S
H88 C84 0.960 . S
H89 C84 0.960 . S
H90 C84 0.959 . S
C91 N92 1.317 . S
C91 N93 1.348 . S
C91 C94 1.485 . S
N92 C91 1.317 . S
N92 N96 1.370 . S
N93 C91 1.348 . S
N93 C95 1.346 . S
C94 C91 1.485 . S
C94 H98 0.960 . S
C94 H99 0.961 . S
C94 H100 0.960 . S
C95 N93 1.346 . S
C95 N96 1.307 . S
C95 C97 1.486 . S
N96 N92 1.370 . S
N96 C95 1.307 . S
C97 C95 1.486 . S
C97 H101 0.960 . S
C97 H102 0.960 . S
C97 H103 0.959 . S
H98 C94 0.960 . S
H99 C94 0.961 . S
H100 C94 0.960 . S
H101 C97 0.960 . S
H102 C97 0.960 . S
H103 C97 0.959 . S
Co104 N109 2.057 1_455 S
Co104 O121 2.021 . S
Co104 O124 2.062 . S
Co104 O128 2.117 1_445 S
Co104 O129 2.020 1_455 S
C105 O125 1.259 . S
C105 O128 1.258 1_455 S
Co106 N115 2.057 . S
Co106 O122 2.117 1_565 S
Co106 O123 2.020 1_565 S
Co106 O125 2.021 . S
Co106 O130 2.062 . S
C107 N109 1.316 . S
C107 N110 1.347 . S
C107 H112 0.931 . S
C108 N109 1.375 . S
C108 C111 1.350 . S
C108 H113 0.930 1_545 S
N109 Co104 2.057 1_655 S
N109 C107 1.316 . S
N109 C108 1.375 . S
N110 C107 1.347 . S
N110 C111 1.373 . S
C111 C108 1.350 . S
C111 N110 1.373 . S
C111 H132 0.931 . S
H112 C107 0.931 . S
H113 C108 0.930 1_565 S
C114 O121 1.259 . S
C114 O122 1.258 . S
N115 Co106 2.057 . S
N115 C116 1.316 . S
N115 C117 1.375 1_565 S
C116 N115 1.316 . S
C116 N118 1.347 . S
C116 H127 0.931 . S
C117 N115 1.375 1_545 S
C117 C119 1.350 . S
C117 H126 0.930 . S
N118 C116 1.347 . S
N118 C119 1.373 1_565 S
C119 C117 1.350 . S
C119 N118 1.373 1_545 S
C119 H133 0.931 . S
C120 O123 1.256 . S
C120 O124 1.255 . S
O121 Co104 2.021 . S
O121 C114 1.259 . S
O122 Co106 2.117 1_545 S
O122 C114 1.258 . S
O123 Co106 2.020 1_545 S
O123 C120 1.256 . S
O124 Co104 2.062 . S
O124 C120 1.255 . S
O125 C105 1.259 . S
O125 Co106 2.021 . S
H126 C117 0.930 . S
H127 C116 0.931 . S
O128 Co104 2.117 1_665 S
O128 C105 1.258 1_655 S
O129 Co104 2.020 1_655 S
O129 C131 1.256 1_645 S
O130 Co106 2.062 . S
O130 C131 1.255 . S
C131 O129 1.256 1_465 S
C131 O130 1.255 . S
H132 C111 0.931 . S
H133 C119 0.931 . S
Co134 N139 2.057 1_545 S
Co134 O151 2.021 . S
Co134 O154 2.062 . S
Co134 O158 2.117 1_546 S
Co134 O159 2.020 1_556 S
C135 O155 1.259 . S
C135 O158 1.258 . S
Co136 N145 2.057 . S
Co136 O152 2.117 . S
Co136 O153 2.020 . S
Co136 O155 2.021 1_545 S
Co136 O160 2.062 . S
C137 N139 1.317 . S
C137 N140 1.348 . S
C137 H142 0.929 1_565 S
C138 N139 1.375 . S
C138 C141 1.350 . S
C138 H143 0.930 . S
N139 Co134 2.057 1_565 S
N139 C137 1.317 . S
N139 C138 1.375 . S
N140 C137 1.348 . S
N140 C141 1.373 . S
C141 C138 1.350 . S
C141 N140 1.373 . S
C141 H162 0.931 . S
H142 C137 0.929 1_545 S
H143 C138 0.930 . S
C144 O151 1.259 . S
C144 O152 1.258 1_556 S
N145 Co136 2.057 . S
N145 C146 1.316 . S
N145 C147 1.375 . S
C146 N145 1.316 . S
C146 N148 1.347 . S
C146 H157 0.931 . S
C147 N145 1.375 . S
C147 C149 1.350 . S
C147 H156 0.930 . S
N148 C146 1.347 . S
N148 C149 1.373 . S
C149 C147 1.350 . S
C149 N148 1.373 . S
C149 H163 0.931 . S
C150 O153 1.251 1_565 S
C150 O154 1.254 1_564 S
O151 Co134 2.021 . S
O151 C144 1.259 . S
O152 Co136 2.117 . S
O152 C144 1.258 1_554 S
O153 Co136 2.020 . S
O153 C150 1.251 1_545 S
O154 Co134 2.062 . S
O154 C150 1.254 1_546 S
O155 C135 1.259 . S
O155 Co136 2.021 1_565 S
H156 C147 0.930 . S
H157 C146 0.931 . S
O158 Co134 2.117 1_564 S
O158 C135 1.258 . S
O159 Co134 2.020 1_554 S
O159 C161 1.256 . S
O160 Co136 2.062 . S
O160 C161 1.255 . S
C161 O159 1.256 . S
C161 O160 1.255 . S
H162 C141 0.931 . S
H163 C149 0.931 . S
Co164 N169 2.057 . S
Co164 O181 2.021 . S
Co164 O184 2.062 . S
Co164 O188 2.117 . S
Co164 O189 2.020 . S
C165 O185 1.259 . S
C165 O188 1.258 . S
Co166 N175 2.057 . S
Co166 O182 2.117 . S
Co166 O183 2.020 . S
Co166 O185 2.021 . S
Co166 O190 2.062 . S
C167 N169 1.316 . S
C167 N170 1.347 . S
C167 H172 0.931 . S
C168 N169 1.375 . S
C168 C171 1.350 . S
C168 H173 0.930 . S
N169 Co164 2.057 . S
N169 C167 1.316 . S
N169 C168 1.375 . S
N170 C167 1.347 . S
N170 C171 1.373 . S
C171 C168 1.350 . S
C171 N170 1.373 . S
C171 H192 0.931 . S
H172 C167 0.931 . S
H173 C168 0.930 . S
C174 O181 1.259 . S
C174 O182 1.258 . S
N175 Co166 2.057 . S
N175 C176 1.316 . S
N175 C177 1.375 . S
C176 N175 1.316 . S
C176 N178 1.347 . S
C176 H187 0.931 . S
C177 N175 1.375 . S
C177 C179 1.350 . S
C177 H186 0.930 . S
N178 C176 1.347 . S
N178 C179 1.373 . S
C179 C177 1.350 . S
C179 N178 1.373 . S
C179 H193 0.931 . S
C180 O183 1.256 . S
C180 O184 1.255 . S
O181 Co164 2.021 . S
O181 C174 1.259 . S
O182 Co166 2.117 . S
O182 C174 1.258 . S
O183 Co166 2.020 . S
O183 C180 1.256 . S
O184 Co164 2.062 . S
O184 C180 1.255 . S
O185 C165 1.259 . S
O185 Co166 2.021 . S
H186 C177 0.930 . S
H187 C176 0.931 . S
O188 Co164 2.117 . S
O188 C165 1.258 . S
O189 Co164 2.020 . S
O189 C191 1.256 . S
O190 Co166 2.062 . S
O190 C191 1.255 . S
C191 O189 1.256 . S
C191 O190 1.255 . S
H192 C171 0.931 . S
H193 C179 0.931 . S
Co194 N199 2.057 . S
Co194 O211 2.021 . S
Co194 O214 2.062 . S
Co194 O218 2.117 1_455 S
Co194 O219 2.020 1_455 S
C195 O215 1.259 1_556 S
C195 O218 1.258 . S
Co196 N205 2.057 . S
Co196 O212 2.117 1_655 S
Co196 O213 2.020 1_655 S
Co196 O215 2.021 . S
Co196 O220 2.062 . S
C197 N199 1.316 . S
C197 N200 1.347 . S
C197 H202 0.931 . S
C198 N199 1.375 1_655 S
C198 C201 1.350 1_655 S
C198 H203 0.930 . S
N199 Co194 2.057 . S
N199 C197 1.316 . S
N199 C198 1.375 1_455 S
N200 C197 1.347 . S
N200 C201 1.373 . S
C201 C198 1.350 1_455 S
C201 N200 1.373 . S
C201 H222 0.931 1_455 S
H202 C197 0.931 . S
H203 C198 0.930 . S
C204 O211 1.259 1_554 S
C204 O212 1.258 . S
N205 Co196 2.057 . S
N205 C206 1.316 . S
N205 C207 1.375 1_655 S
C206 N205 1.316 . S
C206 N208 1.347 . S
C206 H217 0.931 . S
C207 N205 1.375 1_455 S
C207 C209 1.350 . S
C207 H216 0.930 . S
N208 C206 1.347 . S
N208 C209 1.373 1_655 S
C209 C207 1.350 . S
C209 N208 1.373 1_455 S
C209 H223 0.931 . S
C210 O213 1.256 . S
C210 O214 1.255 1_554 S
O211 Co194 2.021 . S
O211 C204 1.259 1_556 S
O212 Co196 2.117 1_455 S
O212 C204 1.258 . S
O213 Co196 2.020 1_455 S
O213 C210 1.256 . S
O214 Co194 2.062 . S
O214 C210 1.255 1_556 S
O215 C195 1.259 1_554 S
O215 Co196 2.021 . S
H216 C207 0.930 . S
H217 C206 0.931 . S
O218 Co194 2.117 1_655 S
O218 C195 1.258 . S
O219 Co194 2.020 1_655 S
O219 C221 1.256 . S
O220 Co196 2.062 . S
O220 C221 1.255 1_554 S
C221 O219 1.256 . S
C221 O220 1.255 1_556 S
H222 C201 0.931 1_655 S
H223 C209 0.931 . S
H224 C230 0.930 . S
H225 C234 0.930 . S
H226 C239 0.929 . S
H227 C237 0.929 . S
H228 C232 0.929 . S
H229 C238 0.929 . S
C230 H224 0.930 . S
C230 C231 1.367 . S
C230 C238 1.378 . S
C231 C230 1.367 . S
C231 C239 1.433 . S
C232 H228 0.929 . S
C232 C234 1.378 . S
C232 C236 1.350 . S
C233 C236 1.463 . S
C233 C238 1.350 . S
C233 N241 1.427 . S
C234 H225 0.930 . S
C234 C232 1.378 . S
C234 C235 1.367 . S
C235 C234 1.367 . S
C235 C237 1.433 . S
C236 C232 1.350 . S
C236 C233 1.463 . S
C236 N240 1.427 . S
C237 H227 0.929 . S
C237 C235 1.433 . S
C237 N240 1.384 . S
C238 H229 0.929 . S
C238 C230 1.378 . S
C238 C233 1.350 . S
C239 H226 0.929 . S
C239 C231 1.433 . S
C239 N241 1.384 . S
N240 C236 1.427 . S
N240 C237 1.384 . S
N241 C233 1.427 . S
N241 C239 1.384 . S
H242 C248 0.930 . S
H243 C252 0.930 . S
H244 C257 0.929 . S
H245 C255 0.929 1_545 S
H246 C250 0.929 . S
H247 C256 0.929 . S
C248 H242 0.930 . S
C248 C249 1.367 . S
C248 C256 1.378 . S
C249 C248 1.367 . S
C249 C257 1.433 . S
C250 H246 0.929 . S
C250 C252 1.378 . S
C250 C254 1.350 . S
C251 C254 1.463 . S
C251 C256 1.350 . S
C251 N259 1.427 . S
C252 H243 0.930 . S
C252 C250 1.378 . S
C252 C253 1.367 . S
C253 C252 1.367 . S
C253 C255 1.433 . S
C254 C250 1.350 . S
C254 C251 1.463 . S
C254 N258 1.427 . S
C255 H245 0.929 1_565 S
C255 C253 1.433 . S
C255 N258 1.384 . S
C256 H247 0.929 . S
C256 C248 1.378 . S
C256 C251 1.350 . S
C257 H244 0.929 . S
C257 C249 1.433 . S
C257 N259 1.384 . S
N258 C254 1.427 . S
N258 C255 1.384 . S
N259 C251 1.427 . S
N259 C257 1.384 . S
H260 C266 0.930 . S
H261 C270 0.930 . S
H262 C275 0.929 . S
H263 C273 0.929 . S
H264 C268 0.929 . S
H265 C274 0.929 . S
C266 H260 0.930 . S
C266 C267 1.367 . S
C266 C274 1.378 . S
C267 C266 1.367 . S
C267 C275 1.433 . S
C268 H264 0.929 . S
C268 C270 1.378 . S
C268 C272 1.350 . S
C269 C272 1.463 . S
C269 C274 1.350 . S
C269 N277 1.427 . S
C270 H261 0.930 . S
C270 C268 1.378 . S
C270 C271 1.367 . S
C271 C270 1.367 . S
C271 C273 1.433 . S
C272 C268 1.350 . S
C272 C269 1.463 . S
C272 N276 1.427 . S
C273 H263 0.929 . S
C273 C271 1.433 . S
C273 N276 1.384 . S
C274 H265 0.929 . S
C274 C266 1.378 . S
C274 C269 1.350 . S
C275 H262 0.929 . S
C275 C267 1.433 . S
C275 N277 1.384 . S
N276 C272 1.427 . S
N276 C273 1.384 . S
N277 C269 1.427 . S
N277 C275 1.384 . S
H278 C284 0.930 . S
H279 C288 0.930 . S
H280 C293 0.929 . S
H281 C291 0.929 . S
H282 C286 0.929 . S
H283 C292 0.929 . S
C284 H278 0.930 . S
C284 C285 1.367 . S
C284 C292 1.378 . S
C285 C284 1.367 . S
C285 C293 1.433 . S
C286 H282 0.929 . S
C286 C288 1.378 . S
C286 C290 1.350 . S
C287 C290 1.463 . S
C287 C292 1.350 . S
C287 N295 1.427 . S
C288 H279 0.930 . S
C288 C286 1.378 . S
C288 C289 1.367 . S
C289 C288 1.367 . S
C289 C291 1.433 . S
C290 C286 1.350 . S
C290 C287 1.463 . S
C290 N294 1.427 . S
C291 H281 0.929 . S
C291 C289 1.433 . S
C291 N294 1.384 . S
C292 H283 0.929 . S
C292 C284 1.378 . S
C292 C287 1.350 . S
C293 H280 0.929 . S
C293 C285 1.433 . S
C293 N295 1.384 . S
N294 C290 1.427 . S
N294 C291 1.384 . S
N295 C287 1.427 . S
N295 C293 1.384 . S
H296 C302 0.930 . S
H297 C306 0.930 . S
H298 C311 0.929 . S
H299 C309 0.929 . S
H300 C304 0.929 . S
H301 C310 0.929 . S
C302 H296 0.930 . S
C302 C303 1.367 . S
C302 C310 1.378 . S
C303 C302 1.367 . S
C303 C311 1.433 . S
C304 H300 0.929 . S
C304 C306 1.378 . S
C304 C308 1.350 . S
C305 C308 1.463 . S
C305 C310 1.350 . S
C305 N313 1.427 . S
C306 H297 0.930 . S
C306 C304 1.378 . S
C306 C307 1.367 . S
C307 C306 1.367 . S
C307 C309 1.433 . S
C308 C304 1.350 . S
C308 C305 1.463 . S
C308 N312 1.427 . S
C309 H299 0.929 . S
C309 C307 1.433 . S
C309 N312 1.384 . S
C310 H301 0.929 . S
C310 C302 1.378 . S
C310 C305 1.350 . S
C311 H298 0.929 . S
C311 C303 1.433 . S
C311 N313 1.384 . S
N312 C308 1.427 . S
N312 C309 1.384 . S
N313 C305 1.427 . S
N313 C311 1.384 . S
H314 C320 0.930 . S
H315 C324 0.930 . S
H316 C329 0.929 . S
H317 C327 0.929 . S
H318 C322 0.929 . S
H319 C328 0.929 . S
C320 H314 0.930 . S
C320 C321 1.367 . S
C320 C328 1.378 . S
C321 C320 1.367 . S
C321 C329 1.433 . S
C322 H318 0.929 . S
C322 C324 1.378 . S
C322 C326 1.350 . S
C323 C326 1.463 . S
C323 C328 1.350 . S
C323 N331 1.427 . S
C324 H315 0.930 . S
C324 C322 1.378 . S
C324 C325 1.367 . S
C325 C324 1.367 . S
C325 C327 1.433 . S
C326 C322 1.350 . S
C326 C323 1.463 . S
C326 N330 1.427 . S
C327 H317 0.929 . S
C327 C325 1.433 . S
C327 N330 1.384 . S
C328 H319 0.929 . S
C328 C320 1.378 . S
C328 C323 1.350 . S
C329 H316 0.929 . S
C329 C321 1.433 . S
C329 N331 1.384 . S
N330 C326 1.427 . S
N330 C327 1.384 . S
N331 C323 1.427 . S
N331 C329 1.384 . S
H332 C338 0.930 . S
H333 C342 0.930 . S
H334 C347 0.929 . S
H335 C345 0.929 1_554 S
H336 C340 0.929 . S
H337 C346 0.929 . S
C338 H332 0.930 . S
C338 C339 1.367 . S
C338 C346 1.378 . S
C339 C338 1.367 . S
C339 C347 1.433 . S
C340 H336 0.929 . S
C340 C342 1.378 . S
C340 C344 1.350 . S
C341 C344 1.463 . S
C341 C346 1.350 . S
C341 N349 1.427 . S
C342 H333 0.930 . S
C342 C340 1.378 . S
C342 C343 1.367 . S
C343 C342 1.367 . S
C343 C345 1.433 . S
C344 C340 1.350 . S
C344 C341 1.463 . S
C344 N348 1.427 . S
C345 H335 0.929 1_556 S
C345 C343 1.433 . S
C345 N348 1.384 . S
C346 H337 0.929 . S
C346 C338 1.378 . S
C346 C341 1.350 . S
C347 H334 0.929 . S
C347 C339 1.433 . S
C347 N349 1.384 . S
N348 C344 1.427 . S
N348 C345 1.384 . S
N349 C341 1.427 . S
N349 C347 1.384 . S
H350 C356 0.930 . S
H351 C360 0.930 . S
H352 C365 0.929 . S
H353 C363 0.929 . S
H354 C358 0.929 . S
H355 C364 0.929 . S
C356 H350 0.930 . S
C356 C357 1.367 . S
C356 C364 1.378 . S
C357 C356 1.367 . S
C357 C365 1.433 . S
C358 H354 0.929 . S
C358 C360 1.378 . S
C358 C362 1.350 . S
C359 C362 1.463 . S
C359 C364 1.350 . S
C359 N367 1.427 . S
C360 H351 0.930 . S
C360 C358 1.378 . S
C360 C361 1.367 . S
C361 C360 1.367 . S
C361 C363 1.433 . S
C362 C358 1.350 . S
C362 C359 1.463 . S
C362 N366 1.427 . S
C363 H353 0.929 . S
C363 C361 1.433 . S
C363 N366 1.384 . S
C364 H355 0.929 . S
C364 C356 1.378 . S
C364 C359 1.350 . S
C365 H352 0.929 . S
C365 C357 1.433 . S
C365 N367 1.384 . S
N366 C362 1.427 . S
N366 C363 1.384 . S
N367 C359 1.427 . S
N367 C365 1.384 . S
H368 C374 0.930 . S
H369 C378 0.930 . S
H370 C383 0.929 . S
H371 C381 0.929 1_556 S
H372 C376 0.929 . S
H373 C382 0.929 . S
C374 H368 0.930 . S
C374 C375 1.367 . S
C374 C382 1.378 . S
C375 C374 1.367 . S
C375 C383 1.433 . S
C376 H372 0.929 . S
C376 C378 1.378 . S
C376 C380 1.350 . S
C377 C380 1.463 . S
C377 C382 1.350 . S
C377 N385 1.427 . S
C378 H369 0.930 . S
C378 C376 1.378 . S
C378 C379 1.367 . S
C379 C378 1.367 . S
C379 C381 1.433 . S
C380 C376 1.350 . S
C380 C377 1.463 . S
C380 N384 1.427 . S
C381 H371 0.929 1_554 S
C381 C379 1.433 . S
C381 N384 1.384 . S
C382 H373 0.929 . S
C382 C374 1.378 . S
C382 C377 1.350 . S
C383 H370 0.929 . S
C383 C375 1.433 . S
C383 N385 1.384 . S
N384 C380 1.427 . S
N384 C381 1.384 . S
N385 C377 1.427 . S
N385 C383 1.384 . S
H386 C392 0.930 . S
H387 C396 0.930 1_554 S
H388 C401 0.929 . S
H389 C399 0.929 . S
H390 C394 0.929 . S
H391 C400 0.929 . S
C392 H386 0.930 . S
C392 C393 1.367 . S
C392 C400 1.378 . S
C393 C392 1.367 . S
C393 C401 1.433 . S
C394 H390 0.929 . S
C394 C396 1.378 . S
C394 C398 1.350 . S
C395 C398 1.463 . S
C395 C400 1.350 . S
C395 N403 1.427 . S
C396 H387 0.930 1_556 S
C396 C394 1.378 . S
C396 C397 1.367 . S
C397 C396 1.367 . S
C397 C399 1.433 . S
C398 C394 1.350 . S
C398 C395 1.463 . S
C398 N402 1.427 . S
C399 H389 0.929 . S
C399 C397 1.433 . S
C399 N402 1.384 . S
C400 H391 0.929 . S
C400 C392 1.378 . S
C400 C395 1.350 . S
C401 H388 0.929 . S
C401 C393 1.433 . S
C401 N403 1.384 . S
N402 C398 1.427 . S
N402 C399 1.384 . S
N403 C395 1.427 . S
N403 C401 1.384 . S
H404 C410 0.930 . S
H405 C414 0.930 . S
H406 C419 0.929 . S
H407 C417 0.931 . S
H408 C412 0.929 . S
H409 C418 0.929 . S
C410 H404 0.930 . S
C410 C411 1.367 . S
C410 C418 1.378 . S
C411 C410 1.367 . S
C411 C419 1.433 . S
C412 H408 0.929 . S
C412 C414 1.378 . S
C412 C416 1.350 . S
C413 C416 1.463 . S
C413 C418 1.350 . S
C413 N421 1.427 . S
C414 H405 0.930 . S
C414 C412 1.378 . S
C414 C415 1.367 1_655 S
C415 C414 1.367 1_455 S
C415 C417 1.433 . S
C416 C412 1.350 . S
C416 C413 1.463 . S
C416 N420 1.427 . S
C417 H407 0.931 . S
C417 C415 1.433 . S
C417 N420 1.382 1_455 S
C418 H409 0.929 . S
C418 C410 1.378 . S
C418 C413 1.350 . S
C419 H406 0.929 . S
C419 C411 1.433 . S
C419 N421 1.384 . S
N420 C416 1.427 . S
N420 C417 1.382 1_655 S
N421 C413 1.427 . S
N421 C419 1.384 . S
H422 C428 0.930 . S
H423 C432 0.930 . S
H424 C437 0.929 . S
H425 C435 0.929 . S
H426 C430 0.929 . S
H427 C436 0.929 . S
C428 H422 0.930 . S
C428 C429 1.367 . S
C428 C436 1.378 . S
C429 C428 1.367 . S
C429 C437 1.433 . S
C430 H426 0.929 . S
C430 C432 1.378 . S
C430 C434 1.350 . S
C431 C434 1.463 . S
C431 C436 1.350 . S
C431 N439 1.427 . S
C432 H423 0.930 . S
C432 C430 1.378 . S
C432 C433 1.367 . S
C433 C432 1.367 . S
C433 C435 1.433 . S
C434 C430 1.350 . S
C434 C431 1.463 . S
C434 N438 1.427 . S
C435 H425 0.929 . S
C435 C433 1.433 . S
C435 N438 1.384 . S
C436 H427 0.929 . S
C436 C428 1.378 . S
C436 C431 1.350 . S
C437 H424 0.929 . S
C437 C429 1.433 . S
C437 N439 1.384 . S
N438 C434 1.427 . S
N438 C435 1.384 . S
N439 C431 1.427 . S
N439 C437 1.384 . S
H440 C446 0.930 . S
H441 C450 0.930 1_545 S
H442 C455 0.929 . S
H443 C453 0.929 . S
H444 C448 0.929 1_445 S
H445 C454 0.929 . S
C446 H440 0.930 . S
C446 C447 1.367 . S
C446 C454 1.378 . S
C447 C446 1.367 . S
C447 C455 1.433 . S
C448 H444 0.929 1_665 S
C448 C450 1.378 1_655 S
C448 C452 1.350 . S
C449 C452 1.463 . S
C449 C454 1.350 . S
C449 N457 1.427 . S
C450 H441 0.930 1_565 S
C450 C448 1.378 1_455 S
C450 C451 1.367 . S
C451 C450 1.367 . S
C451 C453 1.433 1_455 S
C452 C448 1.350 . S
C452 C449 1.463 . S
C452 N456 1.427 . S
C453 H443 0.929 . S
C453 C451 1.433 1_655 S
C453 N456 1.384 . S
C454 H445 0.929 . S
C454 C446 1.378 . S
C454 C449 1.350 . S
C455 H442 0.929 . S
C455 C447 1.433 . S
C455 N457 1.384 . S
N456 C452 1.427 . S
N456 C453 1.384 . S
N457 C449 1.427 . S
N457 C455 1.384 . S
H458 C464 0.930 . S
H459 C468 0.930 . S
H460 C473 0.929 . S
H461 C471 0.929 . S
H462 C466 0.929 . S
H463 C472 0.929 . S
C464 H458 0.930 . S
C464 C465 1.367 . S
C464 C472 1.378 . S
C465 C464 1.367 . S
C465 C473 1.433 . S
C466 H462 0.929 . S
C466 C468 1.378 . S
C466 C470 1.350 . S
C467 C470 1.463 . S
C467 C472 1.350 . S
C467 N475 1.427 . S
C468 H459 0.930 . S
C468 C466 1.378 . S
C468 C469 1.367 . S
C469 C468 1.367 . S
C469 C471 1.433 . S
C470 C466 1.350 . S
C470 C467 1.463 . S
C470 N474 1.427 . S
C471 H461 0.929 . S
C471 C469 1.433 . S
C471 N474 1.384 . S
C472 H463 0.929 . S
C472 C464 1.378 . S
C472 C467 1.350 . S
C473 H460 0.929 . S
C473 C465 1.433 . S
C473 N475 1.384 . S
N474 C470 1.427 . S
N474 C471 1.384 . S
N475 C467 1.427 . S
N475 C473 1.384 . S
H476 C482 0.930 . S
H477 C486 0.930 . S
H478 C491 0.929 . S
H479 C489 0.929 . S
H480 C484 0.929 . S
H481 C490 0.929 . S
C482 H476 0.930 . S
C482 C483 1.367 . S
C482 C490 1.378 . S
C483 C482 1.367 . S
C483 C491 1.433 . S
C484 H480 0.929 . S
C484 C486 1.378 . S
C484 C488 1.350 . S
C485 C488 1.463 . S
C485 C490 1.350 . S
C485 N493 1.427 . S
C486 H477 0.930 . S
C486 C484 1.378 . S
C486 C487 1.367 . S
C487 C486 1.367 . S
C487 C489 1.433 . S
C488 C484 1.350 . S
C488 C485 1.463 . S
C488 N492 1.427 . S
C489 H479 0.929 . S
C489 C487 1.433 . S
C489 N492 1.384 . S
C490 H481 0.929 . S
C490 C482 1.378 . S
C490 C485 1.350 . S
C491 H478 0.929 . S
C491 C483 1.433 . S
C491 N493 1.384 . S
N492 C488 1.427 . S
N492 C489 1.384 . S
N493 C485 1.427 . S
N493 C491 1.384 . S
H494 C500 0.930 . S
H495 C504 0.930 . S
H496 C509 0.929 . S
H497 C507 0.929 . S
H498 C502 0.929 . S
H499 C508 0.929 . S
C500 H494 0.930 . S
C500 C501 1.367 . S
C500 C508 1.378 . S
C501 C500 1.367 . S
C501 C509 1.433 . S
C502 H498 0.929 . S
C502 C504 1.378 . S
C502 C506 1.350 . S
C503 C506 1.463 . S
C503 C508 1.350 . S
C503 N511 1.427 . S
C504 H495 0.930 . S
C504 C502 1.378 . S
C504 C505 1.367 . S
C505 C504 1.367 . S
C505 C507 1.433 . S
C506 C502 1.350 . S
C506 C503 1.463 . S
C506 N510 1.427 . S
C507 H497 0.929 . S
C507 C505 1.433 . S
C507 N510 1.384 . S
C508 H499 0.929 . S
C508 C500 1.378 . S
C508 C503 1.350 . S
C509 H496 0.929 . S
C509 C501 1.433 . S
C509 N511 1.384 . S
N510 C506 1.427 . S
N510 C507 1.384 . S
N511 C503 1.427 . S
N511 C509 1.384 . S
H512 C518 0.930 . S
H513 C522 0.930 . S
H514 C527 0.929 . S
H515 C525 0.929 . S
H516 C520 0.929 . S
H517 C526 0.929 . S
C518 H512 0.930 . S
C518 C519 1.367 . S
C518 C526 1.378 . S
C519 C518 1.367 . S
C519 C527 1.433 . S
C520 H516 0.929 . S
C520 C522 1.378 . S
C520 C524 1.350 1_545 S
C521 C524 1.463 . S
C521 C526 1.350 . S
C521 N529 1.427 . S
C522 H513 0.930 . S
C522 C520 1.378 . S
C522 C523 1.367 1_545 S
C523 C522 1.367 1_565 S
C523 C525 1.433 1_556 S
C524 C520 1.350 1_565 S
C524 C521 1.463 . S
C524 N528 1.427 . S
C525 H515 0.929 . S
C525 C523 1.433 1_554 S
C525 N528 1.384 1_554 S
C526 H517 0.929 . S
C526 C518 1.378 . S
C526 C521 1.350 . S
C527 H514 0.929 . S
C527 C519 1.433 . S
C527 N529 1.384 . S
N528 C524 1.427 . S
N528 C525 1.384 1_556 S
N529 C521 1.427 . S
N529 C527 1.384 . S
H530 C536 0.930 . S
H531 C540 0.930 . S
H532 C545 0.929 . S
H533 C543 0.929 . S
H534 C538 0.929 . S
H535 C544 0.929 . S
C536 H530 0.930 . S
C536 C537 1.367 . S
C536 C544 1.378 . S
C537 C536 1.367 . S
C537 C545 1.433 . S
C538 H534 0.929 . S
C538 C540 1.378 . S
C538 C542 1.350 . S
C539 C542 1.463 . S
C539 C544 1.350 . S
C539 N547 1.427 . S
C540 H531 0.930 . S
C540 C538 1.378 . S
C540 C541 1.367 . S
C541 C540 1.367 . S
C541 C543 1.433 . S
C542 C538 1.350 . S
C542 C539 1.463 . S
C542 N546 1.427 . S
C543 H533 0.929 . S
C543 C541 1.433 . S
C543 N546 1.384 . S
C544 H535 0.929 . S
C544 C536 1.378 . S
C544 C539 1.350 . S
C545 H532 0.929 . S
C545 C537 1.433 . S
C545 N547 1.384 . S
N546 C542 1.427 . S
N546 C543 1.384 . S
N547 C539 1.427 . S
N547 C545 1.384 . S
H548 C554 0.930 . S
H549 C558 0.930 . S
H550 C563 0.929 . S
H551 C561 0.929 1_556 S
H552 C556 0.929 . S
H553 C562 0.929 . S
C554 H548 0.930 . S
C554 C555 1.367 . S
C554 C562 1.378 . S
C555 C554 1.367 . S
C555 C563 1.433 . S
C556 H552 0.929 . S
C556 C558 1.378 . S
C556 C560 1.350 . S
C557 C560 1.463 . S
C557 C562 1.350 . S
C557 N565 1.427 . S
C558 H549 0.930 . S
C558 C556 1.378 . S
C558 C559 1.367 . S
C559 C558 1.367 . S
C559 C561 1.433 . S
C560 C556 1.350 . S
C560 C557 1.463 . S
C560 N564 1.427 . S
C561 H551 0.929 1_554 S
C561 C559 1.433 . S
C561 N564 1.384 . S
C562 H553 0.929 . S
C562 C554 1.378 . S
C562 C557 1.350 . S
C563 H550 0.929 . S
C563 C555 1.433 . S
C563 N565 1.384 . S
N564 C560 1.427 . S
N564 C561 1.384 . S
N565 C557 1.427 . S
N565 C563 1.384 . S
H566 C572 0.930 . S
H567 C576 0.930 . S
H568 C581 0.929 . S
H569 C579 0.929 . S
H570 C574 0.929 . S
H571 C580 0.929 . S
C572 H566 0.930 . S
C572 C573 1.367 . S
C572 C580 1.378 . S
C573 C572 1.367 . S
C573 C581 1.433 . S
C574 H570 0.929 . S
C574 C576 1.378 . S
C574 C578 1.350 . S
C575 C578 1.463 . S
C575 C580 1.350 . S
C575 N583 1.427 . S
C576 H567 0.930 . S
C576 C574 1.378 . S
C576 C577 1.367 . S
C577 C576 1.367 . S
C577 C579 1.433 . S
C578 C574 1.350 . S
C578 C575 1.463 . S
C578 N582 1.427 . S
C579 H569 0.929 . S
C579 C577 1.433 . S
C579 N582 1.384 . S
C580 H571 0.929 . S
C580 C572 1.378 . S
C580 C575 1.350 . S
C581 H568 0.929 . S
C581 C573 1.433 . S
C581 N583 1.384 . S
N582 C578 1.427 . S
N582 C579 1.384 . S
N583 C575 1.427 . S
N583 C581 1.384 . S
H584 C590 0.930 . S
H585 C594 0.930 . S
H586 C599 0.929 . S
H587 C597 0.929 1_554 S
H588 C592 0.929 . S
H589 C598 0.929 . S
C590 H584 0.930 . S
C590 C591 1.367 . S
C590 C598 1.378 . S
C591 C590 1.367 . S
C591 C599 1.433 . S
C592 H588 0.929 . S
C592 C594 1.378 . S
C592 C596 1.350 . S
C593 C596 1.463 . S
C593 C598 1.350 . S
C593 N601 1.427 . S
C594 H585 0.930 . S
C594 C592 1.378 . S
C594 C595 1.367 . S
C595 C594 1.367 . S
C595 C597 1.433 . S
C596 C592 1.350 . S
C596 C593 1.463 . S
C596 N600 1.427 . S
C597 H587 0.929 1_556 S
C597 C595 1.433 . S
C597 N600 1.384 . S
C598 H589 0.929 . S
C598 C590 1.378 . S
C598 C593 1.350 . S
C599 H586 0.929 . S
C599 C591 1.433 . S
C599 N601 1.384 . S
N600 C596 1.427 . S
N600 C597 1.384 . S
N601 C593 1.427 . S
N601 C599 1.384 . S
H602 C608 0.930 . S
H603 C612 0.930 . S
H604 C617 0.929 . S
H605 C615 0.929 . S
H606 C610 0.929 . S
H607 C616 0.929 . S
C608 H602 0.930 . S
C608 C609 1.367 . S
C608 C616 1.378 . S
C609 C608 1.367 . S
C609 C617 1.433 . S
C610 H606 0.929 . S
C610 C612 1.378 . S
C610 C614 1.350 . S
C611 C614 1.463 . S
C611 C616 1.350 . S
C611 N619 1.427 . S
C612 H603 0.930 . S
C612 C610 1.378 . S
C612 C613 1.367 . S
C613 C612 1.367 . S
C613 C615 1.433 . S
C614 C610 1.350 . S
C614 C611 1.463 . S
C614 N618 1.427 . S
C615 H605 0.929 . S
C615 C613 1.433 . S
C615 N618 1.384 . S
C616 H607 0.929 . S
C616 C608 1.378 . S
C616 C611 1.350 . S
C617 H604 0.929 . S
C617 C609 1.433 . S
C617 N619 1.384 . S
N618 C614 1.427 . S
N618 C615 1.384 . S
N619 C611 1.427 . S
N619 C617 1.384 . S
H620 C626 0.930 . S
H621 C630 0.930 . S
H622 C635 0.929 . S
H623 C633 0.929 . S
H624 C628 0.929 . S
H625 C634 0.929 . S
C626 H620 0.930 . S
C626 C627 1.367 . S
C626 C634 1.378 . S
C627 C626 1.367 . S
C627 C635 1.433 . S
C628 H624 0.929 . S
C628 C630 1.378 . S
C628 C632 1.350 . S
C629 C632 1.463 . S
C629 C634 1.350 . S
C629 N637 1.427 . S
C630 H621 0.930 . S
C630 C628 1.378 . S
C630 C631 1.367 . S
C631 C630 1.367 . S
C631 C633 1.433 . S
C632 C628 1.350 . S
C632 C629 1.463 . S
C632 N636 1.427 . S
C633 H623 0.929 . S
C633 C631 1.433 . S
C633 N636 1.384 . S
C634 H625 0.929 . S
C634 C626 1.378 . S
C634 C629 1.350 . S
C635 H622 0.929 . S
C635 C627 1.433 . S
C635 N637 1.384 . S
N636 C632 1.427 . S
N636 C633 1.384 . S
N637 C629 1.427 . S
N637 C635 1.384 . S
H638 C644 0.930 . S
H639 C648 0.930 . S
H640 C653 0.929 . S
H641 C651 0.929 . S
H642 C646 0.929 . S
H643 C652 0.929 . S
C644 H638 0.930 . S
C644 C645 1.367 . S
C644 C652 1.378 . S
C645 C644 1.367 . S
C645 C653 1.433 . S
C646 H642 0.929 . S
C646 C648 1.378 . S
C646 C650 1.350 . S
C647 C650 1.463 . S
C647 C652 1.350 . S
C647 N655 1.427 . S
C648 H639 0.930 . S
C648 C646 1.378 . S
C648 C649 1.367 . S
C649 C648 1.367 . S
C649 C651 1.433 . S
C650 C646 1.350 . S
C650 C647 1.463 . S
C650 N654 1.427 . S
C651 H641 0.929 . S
C651 C649 1.433 . S
C651 N654 1.384 . S
C652 H643 0.929 . S
C652 C644 1.378 . S
C652 C647 1.350 . S
C653 H640 0.929 . S
C653 C645 1.433 . S
C653 N655 1.384 . S
N654 C650 1.427 . S
N654 C651 1.384 . S
N655 C647 1.427 . S
N655 C653 1.384 . S
C231 N1 2.027 . S
C235 C120 2.106 . S
C249 N18 1.395 . S
C253 N140 1.357 . S
C271 C174 1.509 . S
C267 N28 1.509 . S
C285 N40 1.374 . S
C289 N208 1.351 . S
C307 C161 2.625 . S
C303 N5 2.580 . S
C325 N118 1.164 . S
C321 N14 1.193 . S
C343 C195 1.938 . S
C339 N31 1.905 . S
C361 N170 0.714 . S
C357 N41 0.695 . S
C375 N2 1.705 . S
C379 C210 1.719 . S
C397 C144 1.741 . S
C393 N27 1.704 . S
C411 N44 1.510 . S
C415 C105 1.557 . S
C429 N15 1.211 . S
C433 C191 1.219 . S
C451 C131 2.424 . S
C447 N57 2.411 . S
C465 N70 0.983 . S
C469 N148 0.955 . S
C483 N79 1.769 . S
C487 C165 1.826 . S
C501 N93 1.110 . S
C505 N200 1.083 . S
C519 N54 2.230 . S
C523 C150 2.239 1_556 S
C541 N110 1.519 . S
C537 N66 1.554 . S
C559 C204 1.452 . S
C555 N80 1.441 . S
C577 N178 0.970 . S
C573 N96 0.979 . S
C591 N53 1.740 . S
C595 C221 1.772 . S
C613 C135 1.632 . S
C609 N83 1.591 . S
C631 C114 1.565 . S
C627 N92 1.535 . S
C645 N67 1.218 . S
C649 C180 1.228 . S
