# Generated by pormake.
# Topology bpr, (3,3)-cn, num edge types: 1
# Building blocks:
#     Node 0, Type 0, BuildingBlock: WUSLED_clean_sbu_0, # of connection points: 3
#     Node 1, Type 0, BuildingBlock: WUSLED_clean_sbu_0, # of connection points: 3
#     Node 2, Type 0, BuildingBlock: WUSLED_clean_sbu_0, # of connection points: 3
#     Node 3, Type 0, BuildingBlock: WUSLED_clean_sbu_0, # of connection points: 3
#     Node 4, Type 0, BuildingBlock: WUSLED_clean_sbu_0, # of connection points: 3
#     Node 5, Type 0, BuildingBlock: WUSLED_clean_sbu_0, # of connection points: 3
#     Node 6, Type 0, BuildingBlock: WUSLED_clean_sbu_0, # of connection points: 3
#     Node 7, Type 0, BuildingBlock: WUSLED_clean_sbu_0, # of connection points: 3
#     Node 8, Type 0, BuildingBlock: WUSLED_clean_sbu_0, # of connection points: 3
#     Node 9, Type 0, BuildingBlock: WUSLED_clean_sbu_0, # of connection points: 3
#     Node 10, Type 0, BuildingBlock: WUSLED_clean_sbu_0, # of connection points: 3
#     Node 11, Type 0, BuildingBlock: WUSLED_clean_sbu_0, # of connection points: 3
#     Node 12, Type 0, BuildingBlock: WUSLED_clean_sbu_0, # of connection points: 3
#     Node 13, Type 0, BuildingBlock: WUSLED_clean_sbu_0, # of connection points: 3
#     Node 14, Type 0, BuildingBlock: WUSLED_clean_sbu_0, # of connection points: 3
#     Node 15, Type 0, BuildingBlock: WUSLED_clean_sbu_0, # of connection points: 3
#     Node 16, Type 0, BuildingBlock: WUSLED_clean_sbu_0, # of connection points: 3
#     Node 17, Type 0, BuildingBlock: WUSLED_clean_sbu_0, # of connection points: 3
#     Node 18, Type 0, BuildingBlock: WUSLED_clean_sbu_0, # of connection points: 3
#     Node 19, Type 0, BuildingBlock: WUSLED_clean_sbu_0, # of connection points: 3
#     Node 20, Type 0, BuildingBlock: WUSLED_clean_sbu_0, # of connection points: 3
#     Node 21, Type 0, BuildingBlock: WUSLED_clean_sbu_0, # of connection points: 3
#     Node 22, Type 0, BuildingBlock: WUSLED_clean_sbu_0, # of connection points: 3
#     Node 23, Type 0, BuildingBlock: WUSLED_clean_sbu_0, # of connection points: 3
#     Node 24, Type 0, BuildingBlock: WUSLED_clean_sbu_0, # of connection points: 3
#     Node 25, Type 0, BuildingBlock: WUSLED_clean_sbu_0, # of connection points: 3
#     Node 26, Type 0, BuildingBlock: WUSLED_clean_sbu_0, # of connection points: 3
#     Node 27, Type 0, BuildingBlock: WUSLED_clean_sbu_0, # of connection points: 3
#     Node 28, Type 0, BuildingBlock: WUSLED_clean_sbu_0, # of connection points: 3
#     Node 29, Type 0, BuildingBlock: WUSLED_clean_sbu_0, # of connection points: 3
#     Node 30, Type 0, BuildingBlock: WUSLED_clean_sbu_0, # of connection points: 3
#     Node 31, Type 0, BuildingBlock: WUSLED_clean_sbu_0, # of connection points: 3
#     Node 32, Type 0, BuildingBlock: WUSLED_clean_sbu_0, # of connection points: 3
#     Node 33, Type 0, BuildingBlock: WUSLED_clean_sbu_0, # of connection points: 3
#     Node 34, Type 0, BuildingBlock: WUSLED_clean_sbu_0, # of connection points: 3
#     Node 35, Type 0, BuildingBlock: WUSLED_clean_sbu_0, # of connection points: 3
#     Node 36, Type 0, BuildingBlock: WUSLED_clean_sbu_0, # of connection points: 3
#     Node 37, Type 0, BuildingBlock: WUSLED_clean_sbu_0, # of connection points: 3
#     Node 38, Type 0, BuildingBlock: WUSLED_clean_sbu_0, # of connection points: 3
#     Node 39, Type 0, BuildingBlock: WUSLED_clean_sbu_0, # of connection points: 3
#     Node 40, Type 0, BuildingBlock: WUSLED_clean_sbu_0, # of connection points: 3
#     Node 41, Type 0, BuildingBlock: WUSLED_clean_sbu_0, # of connection points: 3
#     Node 42, Type 0, BuildingBlock: WUSLED_clean_sbu_0, # of connection points: 3
#     Node 43, Type 0, BuildingBlock: WUSLED_clean_sbu_0, # of connection points: 3
#     Node 44, Type 0, BuildingBlock: WUSLED_clean_sbu_0, # of connection points: 3
#     Node 45, Type 0, BuildingBlock: WUSLED_clean_sbu_0, # of connection points: 3
#     Node 46, Type 0, BuildingBlock: WUSLED_clean_sbu_0, # of connection points: 3
#     Node 47, Type 0, BuildingBlock: WUSLED_clean_sbu_0, # of connection points: 3
#     Node 48, Type 1, BuildingBlock: VETTIZ_charged_linker_0, # of connection points: 3
#     Node 49, Type 1, BuildingBlock: VETTIZ_charged_linker_0, # of connection points: 3
#     Node 50, Type 1, BuildingBlock: VETTIZ_charged_linker_0, # of connection points: 3
#     Node 51, Type 1, BuildingBlock: VETTIZ_charged_linker_0, # of connection points: 3
#     Node 52, Type 1, BuildingBlock: VETTIZ_charged_linker_0, # of connection points: 3
#     Node 53, Type 1, BuildingBlock: VETTIZ_charged_linker_0, # of connection points: 3
#     Node 54, Type 1, BuildingBlock: VETTIZ_charged_linker_0, # of connection points: 3
#     Node 55, Type 1, BuildingBlock: VETTIZ_charged_linker_0, # of connection points: 3
#     Node 56, Type 1, BuildingBlock: VETTIZ_charged_linker_0, # of connection points: 3
#     Node 57, Type 1, BuildingBlock: VETTIZ_charged_linker_0, # of connection points: 3
#     Node 58, Type 1, BuildingBlock: VETTIZ_charged_linker_0, # of connection points: 3
#     Node 59, Type 1, BuildingBlock: VETTIZ_charged_linker_0, # of connection points: 3
#     Node 60, Type 1, BuildingBlock: VETTIZ_charged_linker_0, # of connection points: 3
#     Node 61, Type 1, BuildingBlock: VETTIZ_charged_linker_0, # of connection points: 3
#     Node 62, Type 1, BuildingBlock: VETTIZ_charged_linker_0, # of connection points: 3
#     Node 63, Type 1, BuildingBlock: VETTIZ_charged_linker_0, # of connection points: 3
#     Node 64, Type 1, BuildingBlock: VETTIZ_charged_linker_0, # of connection points: 3
#     Node 65, Type 1, BuildingBlock: VETTIZ_charged_linker_0, # of connection points: 3
#     Node 66, Type 1, BuildingBlock: VETTIZ_charged_linker_0, # of connection points: 3
#     Node 67, Type 1, BuildingBlock: VETTIZ_charged_linker_0, # of connection points: 3
#     Node 68, Type 1, BuildingBlock: VETTIZ_charged_linker_0, # of connection points: 3
#     Node 69, Type 1, BuildingBlock: VETTIZ_charged_linker_0, # of connection points: 3
#     Node 70, Type 1, BuildingBlock: VETTIZ_charged_linker_0, # of connection points: 3
#     Node 71, Type 1, BuildingBlock: VETTIZ_charged_linker_0, # of connection points: 3
#     Node 72, Type 1, BuildingBlock: VETTIZ_charged_linker_0, # of connection points: 3
#     Node 73, Type 1, BuildingBlock: VETTIZ_charged_linker_0, # of connection points: 3
#     Node 74, Type 1, BuildingBlock: VETTIZ_charged_linker_0, # of connection points: 3
#     Node 75, Type 1, BuildingBlock: VETTIZ_charged_linker_0, # of connection points: 3
#     Node 76, Type 1, BuildingBlock: VETTIZ_charged_linker_0, # of connection points: 3
#     Node 77, Type 1, BuildingBlock: VETTIZ_charged_linker_0, # of connection points: 3
#     Node 78, Type 1, BuildingBlock: VETTIZ_charged_linker_0, # of connection points: 3
#     Node 79, Type 1, BuildingBlock: VETTIZ_charged_linker_0, # of connection points: 3
#     Node 80, Type 1, BuildingBlock: VETTIZ_charged_linker_0, # of connection points: 3
#     Node 81, Type 1, BuildingBlock: VETTIZ_charged_linker_0, # of connection points: 3
#     Node 82, Type 1, BuildingBlock: VETTIZ_charged_linker_0, # of connection points: 3
#     Node 83, Type 1, BuildingBlock: VETTIZ_charged_linker_0, # of connection points: 3
#     Node 84, Type 1, BuildingBlock: VETTIZ_charged_linker_0, # of connection points: 3
#     Node 85, Type 1, BuildingBlock: VETTIZ_charged_linker_0, # of connection points: 3
#     Node 86, Type 1, BuildingBlock: VETTIZ_charged_linker_0, # of connection points: 3
#     Node 87, Type 1, BuildingBlock: VETTIZ_charged_linker_0, # of connection points: 3
#     Node 88, Type 1, BuildingBlock: VETTIZ_charged_linker_0, # of connection points: 3
#     Node 89, Type 1, BuildingBlock: VETTIZ_charged_linker_0, # of connection points: 3
#     Node 90, Type 1, BuildingBlock: VETTIZ_charged_linker_0, # of connection points: 3
#     Node 91, Type 1, BuildingBlock: VETTIZ_charged_linker_0, # of connection points: 3
#     Node 92, Type 1, BuildingBlock: VETTIZ_charged_linker_0, # of connection points: 3
#     Node 93, Type 1, BuildingBlock: VETTIZ_charged_linker_0, # of connection points: 3
#     Node 94, Type 1, BuildingBlock: VETTIZ_charged_linker_0, # of connection points: 3
#     Node 95, Type 1, BuildingBlock: VETTIZ_charged_linker_0, # of connection points: 3
#     Edge 96, Type (0, 1), BuildingBlock: ZUJKAS_clean_linker_0, # of connection points: 2
#     Edge 97, Type (0, 1), BuildingBlock: ZUJKAS_clean_linker_0, # of connection points: 2
#     Edge 98, Type (0, 1), BuildingBlock: ZUJKAS_clean_linker_0, # of connection points: 2
#     Edge 99, Type (0, 1), BuildingBlock: ZUJKAS_clean_linker_0, # of connection points: 2
#     Edge 100, Type (0, 1), BuildingBlock: ZUJKAS_clean_linker_0, # of connection points: 2
#     Edge 101, Type (0, 1), BuildingBlock: ZUJKAS_clean_linker_0, # of connection points: 2
#     Edge 102, Type (0, 1), BuildingBlock: ZUJKAS_clean_linker_0, # of connection points: 2
#     Edge 103, Type (0, 1), BuildingBlock: ZUJKAS_clean_linker_0, # of connection points: 2
#     Edge 104, Type (0, 1), BuildingBlock: ZUJKAS_clean_linker_0, # of connection points: 2
#     Edge 105, Type (0, 1), BuildingBlock: ZUJKAS_clean_linker_0, # of connection points: 2
#     Edge 106, Type (0, 1), BuildingBlock: ZUJKAS_clean_linker_0, # of connection points: 2
#     Edge 107, Type (0, 1), BuildingBlock: ZUJKAS_clean_linker_0, # of connection points: 2
#     Edge 108, Type (0, 1), BuildingBlock: ZUJKAS_clean_linker_0, # of connection points: 2
#     Edge 109, Type (0, 1), BuildingBlock: ZUJKAS_clean_linker_0, # of connection points: 2
#     Edge 110, Type (0, 1), BuildingBlock: ZUJKAS_clean_linker_0, # of connection points: 2
#     Edge 111, Type (0, 1), BuildingBlock: ZUJKAS_clean_linker_0, # of connection points: 2
#     Edge 112, Type (0, 1), BuildingBlock: ZUJKAS_clean_linker_0, # of connection points: 2
#     Edge 113, Type (0, 1), BuildingBlock: ZUJKAS_clean_linker_0, # of connection points: 2
#     Edge 114, Type (0, 1), BuildingBlock: ZUJKAS_clean_linker_0, # of connection points: 2
#     Edge 115, Type (0, 1), BuildingBlock: ZUJKAS_clean_linker_0, # of connection points: 2
#     Edge 116, Type (0, 1), BuildingBlock: ZUJKAS_clean_linker_0, # of connection points: 2
#     Edge 117, Type (0, 1), BuildingBlock: ZUJKAS_clean_linker_0, # of connection points: 2
#     Edge 118, Type (0, 1), BuildingBlock: ZUJKAS_clean_linker_0, # of connection points: 2
#     Edge 119, Type (0, 1), BuildingBlock: ZUJKAS_clean_linker_0, # of connection points: 2
#     Edge 120, Type (0, 1), BuildingBlock: ZUJKAS_clean_linker_0, # of connection points: 2
#     Edge 121, Type (0, 1), BuildingBlock: ZUJKAS_clean_linker_0, # of connection points: 2
#     Edge 122, Type (0, 1), BuildingBlock: ZUJKAS_clean_linker_0, # of connection points: 2
#     Edge 123, Type (0, 1), BuildingBlock: ZUJKAS_clean_linker_0, # of connection points: 2
#     Edge 124, Type (0, 1), BuildingBlock: ZUJKAS_clean_linker_0, # of connection points: 2
#     Edge 125, Type (0, 1), BuildingBlock: ZUJKAS_clean_linker_0, # of connection points: 2
#     Edge 126, Type (0, 1), BuildingBlock: ZUJKAS_clean_linker_0, # of connection points: 2
#     Edge 127, Type (0, 1), BuildingBlock: ZUJKAS_clean_linker_0, # of connection points: 2
#     Edge 128, Type (0, 1), BuildingBlock: ZUJKAS_clean_linker_0, # of connection points: 2
#     Edge 129, Type (0, 1), BuildingBlock: ZUJKAS_clean_linker_0, # of connection points: 2
#     Edge 130, Type (0, 1), BuildingBlock: ZUJKAS_clean_linker_0, # of connection points: 2
#     Edge 131, Type (0, 1), BuildingBlock: ZUJKAS_clean_linker_0, # of connection points: 2
#     Edge 132, Type (0, 1), BuildingBlock: ZUJKAS_clean_linker_0, # of connection points: 2
#     Edge 133, Type (0, 1), BuildingBlock: ZUJKAS_clean_linker_0, # of connection points: 2
#     Edge 134, Type (0, 1), BuildingBlock: ZUJKAS_clean_linker_0, # of connection points: 2
#     Edge 135, Type (0, 1), BuildingBlock: ZUJKAS_clean_linker_0, # of connection points: 2
#     Edge 136, Type (0, 1), BuildingBlock: ZUJKAS_clean_linker_0, # of connection points: 2
#     Edge 137, Type (0, 1), BuildingBlock: ZUJKAS_clean_linker_0, # of connection points: 2
#     Edge 138, Type (0, 1), BuildingBlock: ZUJKAS_clean_linker_0, # of connection points: 2
#     Edge 139, Type (0, 1), BuildingBlock: ZUJKAS_clean_linker_0, # of connection points: 2
#     Edge 140, Type (0, 1), BuildingBlock: ZUJKAS_clean_linker_0, # of connection points: 2
#     Edge 141, Type (0, 1), BuildingBlock: ZUJKAS_clean_linker_0, # of connection points: 2
#     Edge 142, Type (0, 1), BuildingBlock: ZUJKAS_clean_linker_0, # of connection points: 2
#     Edge 143, Type (0, 1), BuildingBlock: ZUJKAS_clean_linker_0, # of connection points: 2
#     Edge 144, Type (0, 1), BuildingBlock: ZUJKAS_clean_linker_0, # of connection points: 2
#     Edge 145, Type (0, 1), BuildingBlock: ZUJKAS_clean_linker_0, # of connection points: 2
#     Edge 146, Type (0, 1), BuildingBlock: ZUJKAS_clean_linker_0, # of connection points: 2
#     Edge 147, Type (0, 1), BuildingBlock: ZUJKAS_clean_linker_0, # of connection points: 2
#     Edge 148, Type (0, 1), BuildingBlock: ZUJKAS_clean_linker_0, # of connection points: 2
#     Edge 149, Type (0, 1), BuildingBlock: ZUJKAS_clean_linker_0, # of connection points: 2
#     Edge 150, Type (0, 1), BuildingBlock: ZUJKAS_clean_linker_0, # of connection points: 2
#     Edge 151, Type (0, 1), BuildingBlock: ZUJKAS_clean_linker_0, # of connection points: 2
#     Edge 152, Type (0, 1), BuildingBlock: ZUJKAS_clean_linker_0, # of connection points: 2
#     Edge 153, Type (0, 1), BuildingBlock: ZUJKAS_clean_linker_0, # of connection points: 2
#     Edge 154, Type (0, 1), BuildingBlock: ZUJKAS_clean_linker_0, # of connection points: 2
#     Edge 155, Type (0, 1), BuildingBlock: ZUJKAS_clean_linker_0, # of connection points: 2
#     Edge 156, Type (0, 1), BuildingBlock: ZUJKAS_clean_linker_0, # of connection points: 2
#     Edge 157, Type (0, 1), BuildingBlock: ZUJKAS_clean_linker_0, # of connection points: 2
#     Edge 158, Type (0, 1), BuildingBlock: ZUJKAS_clean_linker_0, # of connection points: 2
#     Edge 159, Type (0, 1), BuildingBlock: ZUJKAS_clean_linker_0, # of connection points: 2
#     Edge 160, Type (0, 1), BuildingBlock: ZUJKAS_clean_linker_0, # of connection points: 2
#     Edge 161, Type (0, 1), BuildingBlock: ZUJKAS_clean_linker_0, # of connection points: 2
#     Edge 162, Type (0, 1), BuildingBlock: ZUJKAS_clean_linker_0, # of connection points: 2
#     Edge 163, Type (0, 1), BuildingBlock: ZUJKAS_clean_linker_0, # of connection points: 2
#     Edge 164, Type (0, 1), BuildingBlock: ZUJKAS_clean_linker_0, # of connection points: 2
#     Edge 165, Type (0, 1), BuildingBlock: ZUJKAS_clean_linker_0, # of connection points: 2
#     Edge 166, Type (0, 1), BuildingBlock: ZUJKAS_clean_linker_0, # of connection points: 2
#     Edge 167, Type (0, 1), BuildingBlock: ZUJKAS_clean_linker_0, # of connection points: 2
#     Edge 168, Type (0, 1), BuildingBlock: ZUJKAS_clean_linker_0, # of connection points: 2
#     Edge 169, Type (0, 1), BuildingBlock: ZUJKAS_clean_linker_0, # of connection points: 2
#     Edge 170, Type (0, 1), BuildingBlock: ZUJKAS_clean_linker_0, # of connection points: 2
#     Edge 171, Type (0, 1), BuildingBlock: ZUJKAS_clean_linker_0, # of connection points: 2
#     Edge 172, Type (0, 1), BuildingBlock: ZUJKAS_clean_linker_0, # of connection points: 2
#     Edge 173, Type (0, 1), BuildingBlock: ZUJKAS_clean_linker_0, # of connection points: 2
#     Edge 174, Type (0, 1), BuildingBlock: ZUJKAS_clean_linker_0, # of connection points: 2
#     Edge 175, Type (0, 1), BuildingBlock: ZUJKAS_clean_linker_0, # of connection points: 2
#     Edge 176, Type (0, 1), BuildingBlock: ZUJKAS_clean_linker_0, # of connection points: 2
#     Edge 177, Type (0, 1), BuildingBlock: ZUJKAS_clean_linker_0, # of connection points: 2
#     Edge 178, Type (0, 1), BuildingBlock: ZUJKAS_clean_linker_0, # of connection points: 2
#     Edge 179, Type (0, 1), BuildingBlock: ZUJKAS_clean_linker_0, # of connection points: 2
#     Edge 180, Type (0, 1), BuildingBlock: ZUJKAS_clean_linker_0, # of connection points: 2
#     Edge 181, Type (0, 1), BuildingBlock: ZUJKAS_clean_linker_0, # of connection points: 2
#     Edge 182, Type (0, 1), BuildingBlock: ZUJKAS_clean_linker_0, # of connection points: 2
#     Edge 183, Type (0, 1), BuildingBlock: ZUJKAS_clean_linker_0, # of connection points: 2
#     Edge 184, Type (0, 1), BuildingBlock: ZUJKAS_clean_linker_0, # of connection points: 2
#     Edge 185, Type (0, 1), BuildingBlock: ZUJKAS_clean_linker_0, # of connection points: 2
#     Edge 186, Type (0, 1), BuildingBlock: ZUJKAS_clean_linker_0, # of connection points: 2
#     Edge 187, Type (0, 1), BuildingBlock: ZUJKAS_clean_linker_0, # of connection points: 2
#     Edge 188, Type (0, 1), BuildingBlock: ZUJKAS_clean_linker_0, # of connection points: 2
#     Edge 189, Type (0, 1), BuildingBlock: ZUJKAS_clean_linker_0, # of connection points: 2
#     Edge 190, Type (0, 1), BuildingBlock: ZUJKAS_clean_linker_0, # of connection points: 2
#     Edge 191, Type (0, 1), BuildingBlock: ZUJKAS_clean_linker_0, # of connection points: 2
#     Edge 192, Type (0, 1), BuildingBlock: ZUJKAS_clean_linker_0, # of connection points: 2
#     Edge 193, Type (0, 1), BuildingBlock: ZUJKAS_clean_linker_0, # of connection points: 2
#     Edge 194, Type (0, 1), BuildingBlock: ZUJKAS_clean_linker_0, # of connection points: 2
#     Edge 195, Type (0, 1), BuildingBlock: ZUJKAS_clean_linker_0, # of connection points: 2
#     Edge 196, Type (0, 1), BuildingBlock: ZUJKAS_clean_linker_0, # of connection points: 2
#     Edge 197, Type (0, 1), BuildingBlock: ZUJKAS_clean_linker_0, # of connection points: 2
#     Edge 198, Type (0, 1), BuildingBlock: ZUJKAS_clean_linker_0, # of connection points: 2
#     Edge 199, Type (0, 1), BuildingBlock: ZUJKAS_clean_linker_0, # of connection points: 2
#     Edge 200, Type (0, 1), BuildingBlock: ZUJKAS_clean_linker_0, # of connection points: 2
#     Edge 201, Type (0, 1), BuildingBlock: ZUJKAS_clean_linker_0, # of connection points: 2
#     Edge 202, Type (0, 1), BuildingBlock: ZUJKAS_clean_linker_0, # of connection points: 2
#     Edge 203, Type (0, 1), BuildingBlock: ZUJKAS_clean_linker_0, # of connection points: 2
#     Edge 204, Type (0, 1), BuildingBlock: ZUJKAS_clean_linker_0, # of connection points: 2
#     Edge 205, Type (0, 1), BuildingBlock: ZUJKAS_clean_linker_0, # of connection points: 2
#     Edge 206, Type (0, 1), BuildingBlock: ZUJKAS_clean_linker_0, # of connection points: 2
#     Edge 207, Type (0, 1), BuildingBlock: ZUJKAS_clean_linker_0, # of connection points: 2
#     Edge 208, Type (0, 1), BuildingBlock: ZUJKAS_clean_linker_0, # of connection points: 2
#     Edge 209, Type (0, 1), BuildingBlock: ZUJKAS_clean_linker_0, # of connection points: 2
#     Edge 210, Type (0, 1), BuildingBlock: ZUJKAS_clean_linker_0, # of connection points: 2
#     Edge 211, Type (0, 1), BuildingBlock: ZUJKAS_clean_linker_0, # of connection points: 2
#     Edge 212, Type (0, 1), BuildingBlock: ZUJKAS_clean_linker_0, # of connection points: 2
#     Edge 213, Type (0, 1), BuildingBlock: ZUJKAS_clean_linker_0, # of connection points: 2
#     Edge 214, Type (0, 1), BuildingBlock: ZUJKAS_clean_linker_0, # of connection points: 2
#     Edge 215, Type (0, 1), BuildingBlock: ZUJKAS_clean_linker_0, # of connection points: 2
#     Edge 216, Type (0, 1), BuildingBlock: ZUJKAS_clean_linker_0, # of connection points: 2
#     Edge 217, Type (0, 1), BuildingBlock: ZUJKAS_clean_linker_0, # of connection points: 2
#     Edge 218, Type (0, 1), BuildingBlock: ZUJKAS_clean_linker_0, # of connection points: 2
#     Edge 219, Type (0, 1), BuildingBlock: ZUJKAS_clean_linker_0, # of connection points: 2
#     Edge 220, Type (0, 1), BuildingBlock: ZUJKAS_clean_linker_0, # of connection points: 2
#     Edge 221, Type (0, 1), BuildingBlock: ZUJKAS_clean_linker_0, # of connection points: 2
#     Edge 222, Type (0, 1), BuildingBlock: ZUJKAS_clean_linker_0, # of connection points: 2
#     Edge 223, Type (0, 1), BuildingBlock: ZUJKAS_clean_linker_0, # of connection points: 2
#     Edge 224, Type (0, 1), BuildingBlock: ZUJKAS_clean_linker_0, # of connection points: 2
#     Edge 225, Type (0, 1), BuildingBlock: ZUJKAS_clean_linker_0, # of connection points: 2
#     Edge 226, Type (0, 1), BuildingBlock: ZUJKAS_clean_linker_0, # of connection points: 2
#     Edge 227, Type (0, 1), BuildingBlock: ZUJKAS_clean_linker_0, # of connection points: 2
#     Edge 228, Type (0, 1), BuildingBlock: ZUJKAS_clean_linker_0, # of connection points: 2
#     Edge 229, Type (0, 1), BuildingBlock: ZUJKAS_clean_linker_0, # of connection points: 2
#     Edge 230, Type (0, 1), BuildingBlock: ZUJKAS_clean_linker_0, # of connection points: 2
#     Edge 231, Type (0, 1), BuildingBlock: ZUJKAS_clean_linker_0, # of connection points: 2
#     Edge 232, Type (0, 1), BuildingBlock: ZUJKAS_clean_linker_0, # of connection points: 2
#     Edge 233, Type (0, 1), BuildingBlock: ZUJKAS_clean_linker_0, # of connection points: 2
#     Edge 234, Type (0, 1), BuildingBlock: ZUJKAS_clean_linker_0, # of connection points: 2
#     Edge 235, Type (0, 1), BuildingBlock: ZUJKAS_clean_linker_0, # of connection points: 2
#     Edge 236, Type (0, 1), BuildingBlock: ZUJKAS_clean_linker_0, # of connection points: 2
#     Edge 237, Type (0, 1), BuildingBlock: ZUJKAS_clean_linker_0, # of connection points: 2
#     Edge 238, Type (0, 1), BuildingBlock: ZUJKAS_clean_linker_0, # of connection points: 2
#     Edge 239, Type (0, 1), BuildingBlock: ZUJKAS_clean_linker_0, # of connection points: 2
# Relax obj value: 0.094
# Max RMSD: 0.079
# Mean RMSD: 0.075
data_MOF--net-bpr--node1-WUSLED_clean_sbu_0--node2-VETTIZ_charged_linker_0--edge1-ZUJKAS_clean_linker_0
_symmetry_space_group_name_H-M    P1
_symmetry_Int_Tables_number       1
_symmetry_cell_setting            triclinic
loop_
_symmetry_equiv_pos_as_xyz
'x, y, z'
_cell_length_a     148.94044
_cell_length_b     148.95558
_cell_length_c     149.83133
_cell_angle_alpha  90.066255
_cell_angle_beta   89.995338
_cell_angle_gamma 90.084812
loop_
_atom_site_label
_atom_site_type_symbol
_atom_site_fract_x
_atom_site_fract_y
_atom_site_fract_z
_atom_type_partial_charge
C0 C 0.00813 0.37059 0.2721 0.0
C1 C 0.00985 0.36878 0.28113 0.0
C2 C 0.99585 0.37617 0.2854 0.0
C3 C 0.00375 0.37153 0.28773 0.0
C4 C 0.9942 0.37791 0.27631 0.0
C5 C 1.00027 0.37514 0.26975 0.0
U6 U 0.03102 0.36182 0.26457 0.0
O7 O 0.03477 0.35274 0.25354 0.0
O8 O 0.03997 0.36657 0.2539 0.0
C9 C 0.03966 0.3589 0.24955 0.0
C10 C 0.01455 0.36805 0.26504 0.0
C11 C 0.03931 0.3593 0.23972 0.0
C12 C 0.03544 0.36667 0.22573 0.0
C13 C 0.03454 0.36593 0.23504 0.0
C14 C 0.04564 0.35403 0.22573 0.0
C15 C 0.0412 0.36086 0.22101 0.0
C16 C 0.04469 0.35326 0.23496 0.0
C17 C 0.04806 0.35544 0.28293 0.0
C18 C 0.06437 0.35538 0.28228 0.0
C19 C 0.05671 0.34858 0.29484 0.0
C20 C 0.04844 0.35077 0.29103 0.0
C21 C 0.06477 0.35101 0.2906 0.0
C22 C 0.05607 0.35756 0.27846 0.0
C23 C 0.03926 0.35855 0.2797 0.0
O24 O 0.02167 0.37323 0.26437 0.0
O25 O 0.01642 0.35945 0.26441 0.0
O26 O 0.03425 0.35258 0.2756 0.0
O27 O 0.03913 0.3665 0.27589 0.0
H28 H 0.01592 0.36529 0.28308 0.0
H29 H 0.00521 0.36996 0.29463 0.0
H30 H 0.9883 0.3816 0.27424 0.0
H31 H 0.99886 0.37664 0.26282 0.0
H32 H 0.03194 0.37201 0.22228 0.0
H33 H 0.03035 0.37068 0.2386 0.0
H34 H 0.04999 0.34934 0.22229 0.0
H35 H 0.04843 0.3481 0.23843 0.0
H36 H 0.07046 0.35724 0.27879 0.0
H37 H 0.05676 0.34531 0.30129 0.0
H38 H 0.04233 0.34909 0.29458 0.0
H39 H 0.05593 0.36111 0.27216 0.0
C40 C 0.867 0.74002 0.52824 0.0
C41 C 0.8628 0.73812 0.53642 0.0
C42 C 0.86597 0.72213 0.53454 0.0
C43 C 0.86227 0.72925 0.53952 0.0
C44 C 0.87016 0.72412 0.52635 0.0
C45 C 0.87065 0.73297 0.52324 0.0
U46 U 0.86595 0.76539 0.53184 0.0
O47 O 0.87502 0.77611 0.52732 0.0
O48 O 0.86083 0.77628 0.52326 0.0
C49 C 0.86873 0.78019 0.52269 0.0
C50 C 0.86781 0.7493 0.5249 0.0
C51 C 0.87133 0.78402 0.51398 0.0
C52 C 0.88092 0.78465 0.50083 0.0
C53 C 0.87782 0.78007 0.50843 0.0
C54 C 0.87089 0.79698 0.50416 0.0
C55 C 0.87764 0.79326 0.49874 0.0
C56 C 0.86778 0.79241 0.51167 0.0
C57 C 0.85975 0.77356 0.55552 0.0
C58 C 0.85818 0.78911 0.5602 0.0
C59 C 0.85728 0.77714 0.57111 0.0
C60 C 0.85859 0.77082 0.56437 0.0
C61 C 0.85714 0.78637 0.56914 0.0
C62 C 0.8595 0.78274 0.55343 0.0
C63 C 0.86136 0.76665 0.54871 0.0
O64 O 0.86031 0.75392 0.52444 0.0
O65 O 0.87455 0.75395 0.52819 0.0
O66 O 0.86971 0.76582 0.54602 0.0
O67 O 0.85549 0.76618 0.54218 0.0
H68 H 0.85995 0.74348 0.5404 0.0
H69 H 0.85889 0.72798 0.5458 0.0
H70 H 0.87323 0.71888 0.52239 0.0
H71 H 0.87397 0.73431 0.51695 0.0
H72 H 0.88614 0.78161 0.49681 0.0
H73 H 0.88068 0.77361 0.5101 0.0
H74 H 0.8681 0.80352 0.50266 0.0
H75 H 0.86278 0.79558 0.51587 0.0
H76 H 0.85817 0.79617 0.55847 0.0
H77 H 0.85633 0.77478 0.57788 0.0
H78 H 0.85873 0.76376 0.56609 0.0
H79 H 0.86041 0.78497 0.54661 0.0
C80 C 0.47754 0.63793 0.73759 0.0
C81 C 0.46929 0.642 0.7355 0.0
C82 C 0.47148 0.63856 0.7197 0.0
C83 C 0.4663 0.64233 0.72662 0.0
C84 C 0.47978 0.6346 0.72187 0.0
C85 C 0.48275 0.63429 0.73071 0.0
U86 U 0.47408 0.63955 0.76292 0.0
O87 O 0.47852 0.6305 0.77361 0.0
O88 O 0.48312 0.64454 0.7735 0.0
C89 C 0.48356 0.63666 0.77743 0.0
C90 C 0.48078 0.63722 0.74686 0.0
C91 C 0.49239 0.63381 0.78095 0.0
C92 C 0.50427 0.6227 0.78262 0.0
C93 C 0.4967 0.62593 0.77806 0.0
C94 C 0.5035 0.63536 0.79275 0.0
C95 C 0.50761 0.62726 0.79017 0.0
C96 C 0.49599 0.63858 0.78819 0.0
C97 C 0.45075 0.64672 0.77152 0.0
C98 C 0.44593 0.6466 0.78702 0.0
C99 C 0.43583 0.65186 0.77548 0.0
C100 C 0.44241 0.65023 0.76905 0.0
C101 C 0.43748 0.65003 0.78454 0.0
C102 C 0.45253 0.64496 0.78055 0.0
C103 C 0.45731 0.64475 0.76447 0.0
O104 O 0.48148 0.6448 0.75132 0.0
O105 O 0.47725 0.63069 0.75159 0.0
O106 O 0.45971 0.6363 0.7637 0.0
O107 O 0.46407 0.65038 0.76375 0.0
H108 H 0.46514 0.64482 0.74073 0.0
H109 H 0.45985 0.64535 0.72521 0.0
H110 H 0.48401 0.63176 0.71672 0.0
H111 H 0.48913 0.63115 0.73219 0.0
H112 H 0.50725 0.61643 0.78049 0.0
H113 H 0.49404 0.62209 0.77251 0.0
H114 H 0.50599 0.63912 0.79842 0.0
H115 H 0.49277 0.64465 0.79055 0.0
H116 H 0.44745 0.64521 0.79395 0.0
H117 H 0.42937 0.65435 0.7733 0.0
H118 H 0.44092 0.65159 0.76211 0.0
H119 H 0.45897 0.64226 0.78257 0.0
C120 C 0.63784 0.26806 0.0303 0.0
C121 C 0.63833 0.26989 0.03949 0.0
C122 C 0.63861 0.28601 0.03647 0.0
C123 C 0.63871 0.27879 0.04254 0.0
C124 C 0.63832 0.28408 0.02727 0.0
C125 C 0.63793 0.2752 0.02424 0.0
U126 U 0.63946 0.24253 0.0332 0.0
O127 O 0.6303 0.23182 0.02882 0.0
O128 O 0.64423 0.23204 0.02394 0.0
C129 C 0.63634 0.22806 0.02362 0.0
C130 C 0.63697 0.25879 0.02689 0.0
C131 C 0.63332 0.22461 0.01486 0.0
C132 C 0.62212 0.22318 0.00309 0.0
C133 C 0.62539 0.22757 0.01072 0.0
C134 C 0.63475 0.21299 0.00353 0.0
C135 C 0.62668 0.21571 0.99948 0.0
C136 C 0.63802 0.2174 0.01109 0.0
C137 C 0.64743 0.23354 0.056 0.0
C138 C 0.64648 0.21807 0.06108 0.0
C139 C 0.65393 0.22926 0.07022 0.0
C140 C 0.65214 0.23577 0.06378 0.0
C141 C 0.65106 0.22034 0.069 0.0
C142 C 0.64468 0.22463 0.05462 0.0
C143 C 0.64521 0.24073 0.04967 0.0
O144 O 0.6445 0.25433 0.02586 0.0
O145 O 0.63053 0.25395 0.03049 0.0
O146 O 0.63668 0.2415 0.04756 0.0
O147 O 0.65062 0.24161 0.0428 0.0
H148 H 0.63829 0.26446 0.04429 0.0
H149 H 0.63886 0.28001 0.04967 0.0
H150 H 0.6384 0.28943 0.02239 0.0
H151 H 0.63761 0.27392 0.01712 0.0
H152 H 0.61596 0.22556 1.00008 0.0
H153 H 0.62161 0.23312 0.01349 0.0
H154 H 0.6384 0.2072 1.0011 0.0
H155 H 0.64409 0.21492 0.01423 0.0
H156 H 0.64427 0.21125 0.05988 0.0
H157 H 0.65735 0.23128 0.07627 0.0
H158 H 0.65429 0.24262 0.06495 0.0
H159 H 0.64106 0.22278 0.04862 0.0
C160 C 0.00901 0.6344 0.23327 0.0
C161 C 0.01032 0.63689 0.22432 0.0
C162 C 0.99665 0.62889 0.21999 0.0
C163 C 0.00418 0.63417 0.21774 0.0
C164 C 0.99544 0.62642 0.22899 0.0
C165 C 1.00155 0.62916 0.23553 0.0
U166 U 0.03185 0.64333 0.24104 0.0
O167 O 0.03538 0.65246 0.25211 0.0
O168 O 0.04063 0.63867 0.25186 0.0
C169 C 0.04016 0.64632 0.25624 0.0
C170 C 0.01539 0.63702 0.24034 0.0
C171 C 0.03936 0.64584 0.26605 0.0
C172 C 0.03535 0.63804 0.27976 0.0
C173 C 0.03489 0.6388 0.27043 0.0
C174 C 0.04452 0.65145 0.2804 0.0
C175 C 0.04032 0.64428 0.28486 0.0
C176 C 0.04402 0.65222 0.27113 0.0
C177 C 0.04923 0.64966 0.22293 0.0
C178 C 0.06554 0.64934 0.22349 0.0
C179 C 0.05799 0.65681 0.21126 0.0
C180 C 0.04969 0.65464 0.21502 0.0
C181 C 0.06602 0.65402 0.21535 0.0
C182 C 0.05721 0.64719 0.22727 0.0
C183 C 0.04037 0.64654 0.22604 0.0
O184 O 0.02251 0.63187 0.24112 0.0
O185 O 0.01726 0.64563 0.24094 0.0
O186 O 0.03529 0.65253 0.23003 0.0
O187 O 0.04015 0.63862 0.22988 0.0
H188 H 0.01608 0.64091 0.22243 0.0
H189 H 0.0053 0.63628 0.21092 0.0
H190 H 0.98986 0.62222 0.23097 0.0
H191 H 1.00047 0.62712 0.24239 0.0
H192 H 0.0319 0.6325 0.28295 0.0
H193 H 0.03125 0.63378 0.26664 0.0
H194 H 0.04854 0.6563 0.28402 0.0
H195 H 0.04758 0.65766 0.26788 0.0
H196 H 0.0716 0.64721 0.22687 0.0
H197 H 0.0581 0.66033 0.20494 0.0
H198 H 0.04361 0.65659 0.21157 0.0
H199 H 0.05701 0.64338 0.23342 0.0
C200 C 0.63812 0.73795 0.47572 0.0
C201 C 0.63887 0.73608 0.46656 0.0
C202 C 0.6388 0.71997 0.46963 0.0
C203 C 0.63921 0.72717 0.46354 0.0
C204 C 0.63825 0.72193 0.4788 0.0
C205 C 0.63791 0.73082 0.4818 0.0
U206 U 0.63978 0.76344 0.47261 0.0
O207 O 0.63061 0.77419 0.47689 0.0
O208 O 0.64456 0.77406 0.48172 0.0
C209 C 0.63675 0.77816 0.48182 0.0
C210 C 0.63728 0.74724 0.47908 0.0
C211 C 0.6338 0.78221 0.4903 0.0
C212 C 0.62657 0.78176 0.50487 0.0
C213 C 0.62962 0.77732 0.49715 0.0
C214 C 0.63187 0.7959 0.4989 0.0
C215 C 0.62764 0.79113 0.50583 0.0
C216 C 0.63494 0.79149 0.49128 0.0
C217 C 0.64758 0.77227 0.44967 0.0
C218 C 0.64535 0.78723 0.44359 0.0
C219 C 0.65491 0.77661 0.43587 0.0
C220 C 0.65329 0.77026 0.44252 0.0
C221 C 0.65084 0.78511 0.43622 0.0
C222 C 0.64374 0.78085 0.45027 0.0
C223 C 0.64543 0.76512 0.45609 0.0
O224 O 0.64483 0.75173 0.48004 0.0
O225 O 0.63084 0.75205 0.47548 0.0
O226 O 0.63692 0.76426 0.45825 0.0
O227 O 0.65089 0.76431 0.46293 0.0
H228 H 0.63906 0.7415 0.46175 0.0
H229 H 0.63956 0.72592 0.45643 0.0
H230 H 0.63809 0.71659 0.4837 0.0
H231 H 0.63739 0.73213 0.4889 0.0
H232 H 0.62341 0.77784 0.51009 0.0
H233 H 0.62866 0.77014 0.4965 0.0
H234 H 0.63265 0.80312 0.49923 0.0
H235 H 0.63808 0.79539 0.48603 0.0
H236 H 0.64207 0.7937 0.44403 0.0
H237 H 0.65931 0.77481 0.43039 0.0
H238 H 0.65635 0.76369 0.44198 0.0
H239 H 0.63932 0.78254 0.45577 0.0
C240 C 0.49778 0.37322 0.73302 0.0
C241 C 0.49471 0.37594 0.72458 0.0
C242 C 0.5101 0.37893 0.71979 0.0
C243 C 0.5008 0.3788 0.71805 0.0
C244 C 0.51312 0.37592 0.72818 0.0
C245 C 0.50702 0.37313 0.73472 0.0
U246 U 0.47468 0.36535 0.74069 0.0
O247 O 0.47057 0.35607 0.75142 0.0
O248 O 0.46607 0.37012 0.7516 0.0
C249 C 0.46615 0.36234 0.75575 0.0
C250 C 0.49146 0.37071 0.74018 0.0
C251 C 0.46707 0.36256 0.76556 0.0
C252 C 0.47149 0.36997 0.77937 0.0
C253 C 0.47185 0.36934 0.77003 0.0
C254 C 0.4618 0.35691 0.77984 0.0
C255 C 0.46629 0.36386 0.7844 0.0
C256 C 0.46221 0.35627 0.77055 0.0
C257 C 0.45746 0.36091 0.72171 0.0
C258 C 0.44273 0.35391 0.72264 0.0
C259 C 0.44748 0.36113 0.70894 0.0
C260 C 0.45564 0.36338 0.7129 0.0
C261 C 0.44095 0.35631 0.71372 0.0
C262 C 0.45095 0.35619 0.72662 0.0
C263 C 0.46627 0.3633 0.72542 0.0
O264 O 0.48465 0.3762 0.74133 0.0
O265 O 0.48914 0.3622 0.74049 0.0
O266 O 0.47082 0.35684 0.72931 0.0
O267 O 0.46672 0.371 0.72969 0.0
H268 H 0.48758 0.37602 0.72311 0.0
H269 H 0.49818 0.38113 0.71172 0.0
H270 H 0.52022 0.37572 0.72973 0.0
H271 H 0.50953 0.37099 0.74116 0.0
H272 H 0.47516 0.37532 0.78264 0.0
H273 H 0.47567 0.37427 0.76632 0.0
H274 H 0.45761 0.35217 0.7834 0.0
H275 H 0.45841 0.35103 0.76723 0.0
H276 H 0.43784 0.35016 0.72648 0.0
H277 H 0.44628 0.36326 0.70214 0.0
H278 H 0.46058 0.36707 0.70904 0.0
H279 H 0.45225 0.35424 0.73346 0.0
C280 C 0.87469 0.23268 0.99794 0.0
C281 C 0.87514 0.22361 0.99541 0.0
C282 C 0.88036 0.21953 0.01031 0.0
C283 C 0.87795 0.21708 1.00155 0.0
C284 C 0.87968 0.22861 0.01283 0.0
C285 C 0.87688 0.23511 0.0067 0.0
U286 U 0.86631 0.24001 0.975 0.0
O287 O 0.85731 0.25102 0.97099 0.0
O288 O 0.87119 0.25062 0.966 0.0
C289 C 0.86349 0.25491 0.96605 0.0
C290 C 0.87224 0.23974 0.9915 0.0
C291 C 0.86384 0.26479 0.96607 0.0
C292 C 0.86689 0.27929 0.97297 0.0
C293 C 0.86655 0.26986 0.97351 0.0
C294 C 0.86182 0.27853 0.95762 0.0
C295 C 0.86451 0.28373 0.96499 0.0
C296 C 0.86148 0.2692 0.95818 0.0
C297 C 0.86044 0.22134 0.95811 0.0
C298 C 0.86047 0.2221 0.94191 0.0
C299 C 0.85394 0.20924 0.94938 0.0
C300 C 0.856 0.21306 0.95764 0.0
C301 C 0.85629 0.21363 0.9414 0.0
C302 C 0.86253 0.22594 0.9502 0.0
C303 C 0.86333 0.22466 0.96691 0.0
O304 O 0.87753 0.24044 0.98452 0.0
O305 O 0.86367 0.2403 0.98947 0.0
O306 O 0.85721 0.2288 0.9717 0.0
O307 O 0.87124 0.22856 0.9672 0.0
H308 H 0.87347 0.2216 0.98866 0.0
H309 H 0.87845 0.21017 0.99935 0.0
H310 H 0.8813 0.23073 0.01955 0.0
H311 H 0.87653 0.24207 0.00879 0.0
H312 H 0.86895 0.28308 0.97878 0.0
H313 H 0.86842 0.26656 0.97967 0.0
H314 H 0.86014 0.28165 0.95132 0.0
H315 H 0.85943 0.26539 0.95235 0.0
H316 H 0.86225 0.22573 0.93589 0.0
H317 H 0.85083 0.20267 0.94926 0.0
H318 H 0.85435 0.20942 0.96367 0.0
H319 H 0.86591 0.23238 0.95042 0.0
C320 C 0.23742 0.0304 0.36711 0.0
C321 C 0.23585 0.03962 0.366 0.0
C322 C 0.21967 0.0369 0.36593 0.0
C323 C 0.22702 0.04285 0.3654 0.0
C324 C 0.22136 0.02767 0.36697 0.0
C325 C 0.23014 0.02448 0.36754 0.0
U326 U 0.26352 0.03087 0.36617 0.0
O327 O 0.27282 0.02501 0.3761 0.0
O328 O 0.27223 0.01958 0.36225 0.0
C329 C 0.27567 0.01903 0.37032 0.0
C330 C 0.24649 0.02667 0.36813 0.0
C331 C 0.28241 0.01217 0.37255 0.0
C332 C 0.28691 0.99651 0.37308 0.0
C333 C 0.28109 0.00319 0.37001 0.0
C334 C 0.29567 0.00776 0.3809 0.0
C335 C 0.29421 0.99872 0.37862 0.0
C336 C 0.28976 0.01441 0.37796 0.0
C337 C 0.27552 0.05299 0.3586 0.0
C338 C 0.28999 0.05966 0.36218 0.0
C339 C 0.28073 0.06616 0.35059 0.0
C340 C 0.27429 0.05951 0.35199 0.0
C341 C 0.28861 0.06643 0.35576 0.0
C342 C 0.28349 0.053 0.36361 0.0
C343 C 0.26792 0.04699 0.36062 0.0
O344 O 0.251 0.02519 0.36073 0.0
O345 O 0.25144 0.03006 0.37456 0.0
O346 O 0.26658 0.04499 0.36905 0.0
O347 O 0.26653 0.04021 0.35515 0.0
H348 H 0.24142 0.0443 0.36564 0.0
H349 H 0.22597 0.04998 0.3645 0.0
H350 H 0.2159 0.0229 0.36757 0.0
H351 H 0.23124 0.01735 0.36844 0.0
H352 H 0.28566 0.98959 0.37119 0.0
H353 H 0.27539 1.00131 0.36592 0.0
H354 H 0.3012 0.00964 0.38521 0.0
H355 H 0.29085 0.0213 0.38003 0.0
H356 H 0.29604 0.05958 0.36619 0.0
H357 H 0.27933 0.07131 0.34569 0.0
H358 H 0.26815 0.05965 0.34811 0.0
H359 H 0.28458 0.04802 0.36876 0.0
C360 C 0.23455 0.00826 0.63295 0.0
C361 C 0.22545 0.01055 0.63381 0.0
C362 C 0.22102 0.99601 0.62764 0.0
C363 C 0.21874 0.00447 0.6312 0.0
C364 C 0.23017 0.99377 0.62688 0.0
C365 C 0.23685 0.99983 0.62951 0.0
U366 U 0.24208 0.03113 0.64156 0.0
O367 O 0.25312 0.03506 0.65058 0.0
O368 O 0.25269 0.04025 0.63685 0.0
C369 C 0.25701 0.04009 0.64449 0.0
C370 C 0.24173 0.01464 0.63537 0.0
C371 C 0.2669 0.0401 0.64414 0.0
C372 C 0.28131 0.03462 0.63867 0.0
C373 C 0.27192 0.03373 0.63934 0.0
C374 C 0.28065 0.04811 0.64769 0.0
C375 C 0.28574 0.04196 0.6427 0.0
C376 C 0.27137 0.04718 0.6484 0.0
C377 C 0.22286 0.04757 0.64783 0.0
C378 C 0.22326 0.06384 0.64918 0.0
C379 C 0.20978 0.05562 0.65317 0.0
C380 C 0.21405 0.04757 0.65106 0.0
C381 C 0.21425 0.06386 0.65206 0.0
C382 C 0.22753 0.05573 0.64705 0.0
C383 C 0.22664 0.039 0.64475 0.0
O384 O 0.24238 0.02175 0.63022 0.0
O385 O 0.24244 0.01655 0.64391 0.0
O386 O 0.2309 0.03416 0.65072 0.0
O387 O 0.2306 0.03909 0.63691 0.0
H388 H 0.22354 0.01704 0.63647 0.0
H389 H 0.21178 0.0064 0.63201 0.0
H390 H 0.23222 0.98741 0.62404 0.0
H391 H 0.24384 0.99797 0.62876 0.0
H392 H 0.28505 0.02978 0.63477 0.0
H393 H 0.26858 0.02821 0.63598 0.0
H394 H 0.28386 0.05373 0.65101 0.0
H395 H 0.26762 0.05215 0.65215 0.0
H396 H 0.22686 0.07008 0.64824 0.0
H397 H 0.20291 0.0554 0.65553 0.0
H398 H 0.21036 0.04133 0.65174 0.0
H399 H 0.23436 0.05585 0.64457 0.0
C400 C 0.23437 0.99738 0.87409 0.0
C401 C 0.22567 0.997 0.87046 0.0
C402 C 0.22101 0.00957 0.87986 0.0
C403 C 0.21906 0.00307 0.87329 0.0
C404 C 0.22974 0.00989 0.88344 0.0
C405 C 0.23633 0.00386 0.88058 0.0
U406 U 0.24186 0.97462 0.86498 0.0
O407 O 0.2527 0.97095 0.85562 0.0
O408 O 0.25272 0.96566 0.86932 0.0
C409 C 0.2569 0.96606 0.8616 0.0
C410 C 0.24146 0.99104 0.87135 0.0
C411 C 0.26681 0.96654 0.86175 0.0
C412 C 0.28102 0.96983 0.86914 0.0
C413 C 0.27163 0.97071 0.86868 0.0
C414 C 0.28082 0.96091 0.85563 0.0
C415 C 0.28568 0.96471 0.86273 0.0
C416 C 0.27151 0.96182 0.85516 0.0
C417 C 0.22286 0.95782 0.85899 0.0
C418 C 0.22293 0.9415 0.85858 0.0
C419 C 0.21021 0.94971 0.85271 0.0
C420 C 0.21445 0.95779 0.85482 0.0
C421 C 0.21429 0.94147 0.85477 0.0
C422 C 0.22719 0.94963 0.86069 0.0
C423 C 0.2265 0.96646 0.8621 0.0
O424 O 0.24233 0.9839 0.87642 0.0
O425 O 0.24197 0.98922 0.86277 0.0
O426 O 0.23048 0.97149 0.85608 0.0
O427 O 0.23063 0.96641 0.86985 0.0
H428 H 0.22398 0.99199 0.86549 0.0
H429 H 0.21239 1.00257 0.87047 0.0
H430 H 0.23153 0.01488 0.88839 0.0
H431 H 0.24299 0.00426 0.88346 0.0
H432 H 0.28456 0.97283 0.87471 0.0
H433 H 0.26814 0.97438 0.87387 0.0
H434 H 0.2842 0.95708 0.85048 0.0
H435 H 0.26792 0.95854 0.84976 0.0
H436 H 0.22624 0.93526 0.86028 0.0
H437 H 0.20365 0.94993 0.84961 0.0
H438 H 0.21103 0.96405 0.85342 0.0
H439 H 0.23371 0.9495 0.86389 0.0
C440 C 0.23734 0.97707 0.13699 0.0
C441 C 0.23543 0.96832 0.13992 0.0
C442 C 0.21936 0.97093 0.13787 0.0
C443 C 0.22652 0.96528 0.14037 0.0
C444 C 0.22137 0.9797 0.13498 0.0
C445 C 0.23025 0.98272 0.13456 0.0
U446 U 0.26279 0.97355 0.13818 0.0
O447 O 0.2735 0.97829 0.12926 0.0
O448 O 0.27356 0.9823 0.14339 0.0
C449 C 0.27749 0.98297 0.13557 0.0
C450 C 0.24665 0.9804 0.13627 0.0
C451 C 0.28125 0.9918 0.13308 0.0
C452 C 0.28201 0.00496 0.12344 0.0
C453 C 0.27744 0.99726 0.12643 0.0
C454 C 0.29404 1.00194 0.13388 0.0
C455 C 0.29047 0.00724 0.12699 0.0
C456 C 0.28947 0.99433 0.13688 0.0
C457 C 0.27114 0.94979 0.14438 0.0
C458 C 0.28671 0.94496 0.14513 0.0
C459 C 0.27472 0.93429 0.14779 0.0
C460 C 0.26839 0.94105 0.14645 0.0
C461 C 0.28395 0.93612 0.14706 0.0
C462 C 0.28034 0.95176 0.14379 0.0
C463 C 0.2642 0.95658 0.14271 0.0
O464 O 0.25122 0.98083 0.14376 0.0
O465 O 0.25135 0.9771 0.1296 0.0
O466 O 0.26343 0.9593 0.13441 0.0
O467 O 0.26362 0.96313 0.14856 0.0
H468 H 0.24083 0.96385 0.14184 0.0
H469 H 0.22525 0.95854 0.14273 0.0
H470 H 0.21608 0.9842 0.13285 0.0
H471 H 0.2316 0.98948 0.13224 0.0
H472 H 0.27909 0.00889 0.11811 0.0
H473 H 0.27111 0.99543 0.12337 0.0
H474 H 0.30045 0.00359 0.13686 0.0
H475 H 0.29254 0.99021 0.142 0.0
H476 H 0.29377 0.94659 0.14447 0.0
H477 H 0.27235 0.92761 0.14943 0.0
H478 H 0.26132 0.93943 0.14697 0.0
H479 H 0.28257 0.95849 0.14218 0.0
C480 C 0.36798 0.24034 0.02893 0.0
C481 C 0.36874 0.23864 0.03812 0.0
C482 C 0.36688 0.22256 0.0355 0.0
C483 C 0.36822 0.22984 0.04137 0.0
C484 C 0.36591 0.22435 0.02633 0.0
C485 C 0.36646 0.23314 0.02309 0.0
U486 U 0.36688 0.26576 0.03175 0.0
O487 O 0.37608 0.2764 0.02727 0.0
O488 O 0.36202 0.27643 0.02278 0.0
C489 C 0.3699 0.2804 0.02244 0.0
C490 C 0.36895 0.2495 0.0253 0.0
C491 C 0.37273 0.28421 0.01381 0.0
C492 C 0.38119 0.28385 0.99991 0.0
C493 C 0.37808 0.27953 0.00766 0.0
C494 C 0.37355 0.29746 0.00442 0.0
C495 C 0.37902 0.29292 0.99824 0.0
C496 C 0.37042 0.29314 0.01207 0.0
C497 C 0.3596 0.27461 0.05482 0.0
C498 C 0.36093 0.28998 0.0601 0.0
C499 C 0.3532 0.27888 0.06909 0.0
C500 C 0.35484 0.2724 0.06257 0.0
C501 C 0.35628 0.28774 0.06798 0.0
C502 C 0.36257 0.28346 0.05355 0.0
C503 C 0.36159 0.26745 0.04838 0.0
O504 O 0.36148 0.25409 0.02442 0.0
O505 O 0.37559 0.25428 0.02864 0.0
O506 O 0.37005 0.2666 0.04605 0.0
O507 O 0.35599 0.26669 0.04164 0.0
H508 H 0.36982 0.24411 0.04277 0.0
H509 H 0.36884 0.22874 0.04849 0.0
H510 H 0.36496 0.21892 0.0216 0.0
H511 H 0.36583 0.23431 0.01598 0.0
H512 H 0.38531 0.28011 0.99527 0.0
H513 H 0.37996 0.27262 0.0089 0.0
H514 H 0.37188 0.30447 0.00354 0.0
H515 H 0.36637 0.29689 0.01678 0.0
H516 H 0.36329 0.29677 0.05899 0.0
H517 H 0.34973 0.27687 0.07512 0.0
H518 H 0.35252 0.26559 0.06365 0.0
H519 H 0.36623 0.28529 0.04757 0.0
C520 C 0.99761 0.87349 0.23253 0.0
C521 C 0.99637 0.87083 0.22361 0.0
C522 C 0.00987 0.87904 0.21918 0.0
C523 C 1.00246 0.87356 0.21701 0.0
C524 C 0.01103 0.88167 0.22814 0.0
C525 C 0.00497 0.87891 0.23473 0.0
U526 U 0.97466 0.86477 0.23973 0.0
O527 O 0.97062 0.85576 0.2507 0.0
O528 O 0.96538 0.86955 0.25012 0.0
C529 C 0.9655 0.86189 0.25445 0.0
C530 C 0.99118 0.87094 0.23958 0.0
C531 C 0.96533 0.86235 0.26427 0.0
C532 C 0.97203 0.86526 0.27882 0.0
C533 C 0.97284 0.86463 0.26948 0.0
C534 C 0.95631 0.86122 0.2777 0.0
C535 C 0.96369 0.8637 0.28301 0.0
C536 C 0.95713 0.86058 0.26846 0.0
C537 C 0.95816 0.85909 0.22054 0.0
C538 C 0.94224 0.85566 0.2219 0.0
C539 C 0.94915 0.85669 0.20729 0.0
C540 C 0.95741 0.85851 0.21126 0.0
C541 C 0.94144 0.85541 0.21254 0.0
C542 C 0.95056 0.85754 0.22589 0.0
C543 C 0.96683 0.86186 0.2243 0.0
O544 O 0.98409 0.87614 0.24027 0.0
O545 O 0.98923 0.86234 0.24015 0.0
O546 O 0.97146 0.85569 0.22855 0.0
O547 O 0.96693 0.86972 0.22829 0.0
H548 H 0.99069 0.86667 0.22176 0.0
H549 H 1.0014 0.87131 0.21021 0.0
H550 H 0.01652 0.88602 0.23008 0.0
H551 H 0.00599 0.88109 0.24155 0.0
H552 H 0.97784 0.86718 0.28274 0.0
H553 H 0.97924 0.86601 0.26634 0.0
H554 H 0.94984 0.85978 0.28069 0.0
H555 H 0.95127 0.85876 0.26456 0.0
H556 H 0.9364 0.85472 0.2261 0.0
H557 H 0.94878 0.85637 0.20007 0.0
H558 H 0.96321 0.85967 0.20704 0.0
H559 H 0.95103 0.85799 0.23309 0.0
C560 C 0.13852 0.76841 0.53039 0.0
C561 C 0.1362 0.77058 0.53922 0.0
C562 C 0.13942 0.78642 0.53643 0.0
C563 C 0.13661 0.77949 0.5422 0.0
C564 C 0.14197 0.78414 0.52767 0.0
C565 C 0.1415 0.77524 0.52468 0.0
U566 U 0.14013 0.74286 0.53306 0.0
O567 O 0.13096 0.73213 0.52875 0.0
O568 O 0.14481 0.73241 0.5237 0.0
C569 C 0.13691 0.72846 0.52339 0.0
C570 C 0.13763 0.75916 0.52688 0.0
C571 C 0.13375 0.72521 0.51459 0.0
C572 C 0.12171 0.72244 0.50391 0.0
C573 C 0.12499 0.72689 0.51149 0.0
C574 C 0.13595 0.71484 0.50221 0.0
C575 C 0.12708 0.7162 0.49929 0.0
C576 C 0.13923 0.71928 0.50976 0.0
C577 C 0.14809 0.73391 0.5559 0.0
C578 C 0.14822 0.71827 0.56051 0.0
C579 C 0.15358 0.72983 0.57059 0.0
C580 C 0.15176 0.73634 0.56415 0.0
C581 C 0.15179 0.72072 0.56888 0.0
C582 C 0.14638 0.72482 0.55406 0.0
C583 C 0.14589 0.74104 0.54952 0.0
O584 O 0.14517 0.7547 0.52576 0.0
O585 O 0.13118 0.75425 0.53036 0.0
O586 O 0.13736 0.74182 0.54742 0.0
O587 O 0.15129 0.74186 0.54263 0.0
H588 H 0.13392 0.76541 0.54378 0.0
H589 H 0.1345 0.78096 0.54896 0.0
H590 H 0.14435 0.78923 0.52308 0.0
H591 H 0.14339 0.77371 0.51787 0.0
H592 H 0.11489 0.72376 0.50177 0.0
H593 H 0.12058 0.7314 0.51507 0.0
H594 H 0.14026 0.71001 0.49891 0.0
H595 H 0.14595 0.71777 0.51207 0.0
H596 H 0.14686 0.7113 0.55894 0.0
H597 H 0.15617 0.732 0.57699 0.0
H598 H 0.15308 0.74333 0.56569 0.0
H599 H 0.14357 0.72283 0.54769 0.0
C600 C 0.98276 0.62649 0.74709 0.0
C601 C 0.97432 0.62938 0.74407 0.0
C602 C 0.96938 0.63185 0.75942 0.0
C603 C 0.96771 0.63206 0.75017 0.0
C604 C 0.97778 0.62868 0.76239 0.0
C605 C 0.98439 0.62606 0.75629 0.0
U606 U 0.99056 0.6184 0.72422 0.0
O607 O 1.0015 0.62311 0.71554 0.0
O608 O 1.00141 0.60913 0.72028 0.0
C609 C 0.00559 0.61529 0.71556 0.0
C610 C 0.99 0.62408 0.7408 0.0
C611 C 0.01548 0.61538 0.7158 0.0
C612 C 0.02986 0.62065 0.72154 0.0
C613 C 0.02045 0.62016 0.72222 0.0
C614 C 0.02933 0.61147 0.70819 0.0
C615 C 0.03437 0.61645 0.71439 0.0
C616 C 0.02001 0.61094 0.70891 0.0
C617 C 0.97169 0.61297 0.70724 0.0
C618 C 0.973 0.61104 0.69118 0.0
C619 C 0.95885 0.60804 0.69859 0.0
C620 C 0.96272 0.61025 0.70677 0.0
C621 C 0.9639 0.60845 0.69067 0.0
C622 C 0.97687 0.61327 0.69942 0.0
C623 C 0.97524 0.61581 0.71595 0.0
O624 O 0.99054 0.61554 0.73866 0.0
O625 O 0.991 0.62947 0.73392 0.0
O626 O 0.97941 0.62359 0.71616 0.0
O627 O 0.9792 0.60959 0.72074 0.0
H628 H 0.97289 0.62971 0.73698 0.0
H629 H 0.96138 0.63453 0.74761 0.0
H630 H 0.97927 0.62822 0.76944 0.0
H631 H 0.99082 0.62377 0.75876 0.0
H632 H 0.03357 0.62455 0.7264 0.0
H633 H 0.01707 0.62366 0.72759 0.0
H634 H 0.03259 0.60804 0.7027 0.0
H635 H 0.01629 0.60722 0.7039 0.0
H636 H 0.97711 0.61134 0.68522 0.0
H637 H 0.9518 0.60626 0.69846 0.0
H638 H 0.95862 0.61001 0.71274 0.0
H639 H 0.98385 0.61535 0.69967 0.0
C640 C 0.12384 0.24536 0.48435 0.0
C641 C 0.12288 0.2433 0.47525 0.0
C642 C 0.12957 0.25771 0.47122 0.0
C643 C 0.12571 0.24944 0.46874 0.0
C644 C 0.1304 0.25974 0.48036 0.0
C645 C 0.12757 0.25362 0.48685 0.0
U646 U 0.11514 0.22237 0.49163 0.0
O647 O 0.1197 0.2135 0.50243 0.0
O648 O 0.10581 0.2185 0.5024 0.0
C649 C 0.11191 0.21372 0.50657 0.0
C650 C 0.12121 0.23892 0.49134 0.0
C651 C 0.11207 0.21427 0.51639 0.0
C652 C 0.11859 0.21924 0.53046 0.0
C653 C 0.11818 0.21969 0.52111 0.0
C654 C 0.10674 0.2081 0.53042 0.0
C655 C 0.11293 0.21335 0.53524 0.0
C656 C 0.10631 0.20859 0.52113 0.0
C657 C 0.1093 0.20516 0.47326 0.0
C658 C 0.11043 0.18888 0.47306 0.0
C659 C 0.10115 0.19649 0.46216 0.0
C660 C 0.10341 0.20474 0.46598 0.0
C661 C 0.10477 0.18848 0.46555 0.0
C662 C 0.11265 0.19715 0.47691 0.0
C663 C 0.11231 0.21403 0.47646 0.0
O664 O 0.11262 0.23693 0.49175 0.0
O665 O 0.12644 0.23187 0.49214 0.0
O666 O 0.12018 0.21433 0.48043 0.0
O667 O 0.10621 0.21904 0.48037 0.0
H668 H 0.12004 0.23692 0.4732 0.0
H669 H 0.12504 0.24762 0.46176 0.0
H670 H 0.13319 0.26609 0.48252 0.0
H671 H 0.12834 0.25532 0.49384 0.0
H672 H 0.12337 0.22346 0.53395 0.0
H673 H 0.12271 0.22413 0.51756 0.0
H674 H 0.10239 0.20335 0.53378 0.0
H675 H 0.10161 0.20429 0.51761 0.0
H676 H 0.11322 0.18281 0.4759 0.0
H677 H 0.09685 0.19642 0.45634 0.0
H678 H 0.10077 0.21085 0.46307 0.0
H679 H 0.11716 0.19728 0.48258 0.0
C680 C 0.48798 0.39156 0.22748 0.0
C681 C 0.48618 0.39439 0.21873 0.0
C682 C 0.47008 0.39248 0.22122 0.0
C683 C 0.47731 0.39486 0.21563 0.0
C684 C 0.47196 0.38977 0.23003 0.0
C685 C 0.48082 0.38933 0.23311 0.0
U686 U 0.51333 0.39279 0.22385 0.0
O687 O 0.52427 0.3972 0.23274 0.0
O688 O 0.52401 0.38336 0.22762 0.0
C689 C 0.52822 0.38931 0.23257 0.0
C690 C 0.49726 0.3906 0.23076 0.0
C691 C 0.53238 0.38605 0.24086 0.0
C692 C 0.53188 0.38032 0.25607 0.0
C693 C 0.52744 0.38375 0.24852 0.0
C694 C 0.54611 0.38161 0.24833 0.0
C695 C 0.54127 0.37908 0.25598 0.0
C696 C 0.54171 0.38503 0.24088 0.0
C697 C 0.52167 0.39998 0.20059 0.0
C698 C 0.53732 0.40158 0.19624 0.0
C699 C 0.52558 0.40236 0.18507 0.0
C700 C 0.51912 0.40108 0.19168 0.0
C701 C 0.53477 0.40253 0.18723 0.0
C702 C 0.53081 0.40028 0.20288 0.0
C703 C 0.51463 0.39825 0.20724 0.0
O704 O 0.50189 0.38404 0.2271 0.0
O705 O 0.5019 0.39807 0.23156 0.0
O706 O 0.5143 0.40378 0.21408 0.0
O707 O 0.51354 0.3898 0.20948 0.0
H708 H 0.49164 0.39615 0.21427 0.0
H709 H 0.47613 0.39709 0.20886 0.0
H710 H 0.46661 0.38776 0.23449 0.0
H711 H 0.48208 0.38709 0.23987 0.0
H712 H 0.52797 0.37843 0.26186 0.0
H713 H 0.52021 0.3845 0.24861 0.0
H714 H 0.55335 0.38094 0.2481 0.0
H715 H 0.54563 0.38681 0.23505 0.0
H716 H 0.54434 0.40161 0.19812 0.0
H717 H 0.52337 0.40323 0.17824 0.0
H718 H 0.51209 0.40088 0.18981 0.0
H719 H 0.5329 0.3994 0.20975 0.0
C720 C 0.38035 0.75831 0.98122 0.0
C721 C 0.37535 0.76135 0.97386 0.0
C722 C 0.37495 0.74622 0.96765 0.0
C723 C 0.37263 0.75536 0.96718 0.0
C724 C 0.3802 0.74326 0.97487 0.0
C725 C 0.38284 0.74924 0.9816 0.0
U726 U 0.38899 0.78093 0.98936 0.0
O727 O 0.38408 0.79001 0.99988 0.0
O728 O 0.39787 0.78476 1.0005 0.0
C729 C 0.3917 0.78981 0.00429 0.0
C730 C 0.38286 0.76443 0.98861 0.0
C731 C 0.39118 0.78984 0.01411 0.0
C732 C 0.38945 0.78268 0.02862 0.0
C733 C 0.38975 0.78208 0.01924 0.0
C734 C 0.39195 0.79871 0.02769 0.0
C735 C 0.39063 0.79102 0.03295 0.0
C736 C 0.39224 0.79812 0.01841 0.0
C737 C 0.39479 0.79762 0.97026 0.0
C738 C 0.4009 0.81272 0.97144 0.0
C739 C 0.39546 0.80719 0.95721 0.0
C740 C 0.39328 0.79901 0.96115 0.0
C741 C 0.39919 0.81418 0.96231 0.0
C742 C 0.39867 0.80448 0.97542 0.0
C743 C 0.39201 0.78897 0.97406 0.0
O744 O 0.39146 0.76631 0.98937 0.0
O745 O 0.37766 0.77148 0.98972 0.0
O746 O 0.38413 0.78885 0.97798 0.0
O747 O 0.39816 0.78434 0.97834 0.0
H748 H 0.37344 0.76834 0.9733 0.0
H749 H 0.36871 0.75787 0.96163 0.0
H750 H 0.38206 0.73625 0.97545 0.0
H751 H 0.38673 0.74675 0.98718 0.0
H752 H 0.38843 0.77661 0.03248 0.0
H753 H 0.3889 0.77562 0.01603 0.0
H754 H 0.39268 0.80527 0.03073 0.0
H755 H 0.39329 0.80419 0.01456 0.0
H756 H 0.40373 0.81801 0.97554 0.0
H757 H 0.3942 0.80805 0.95014 0.0
H758 H 0.39033 0.79376 0.95708 0.0
H759 H 0.39986 0.80351 0.98248 0.0
C760 C 0.01651 0.38779 0.77683 0.0
C761 C 0.01877 0.3933 0.7841 0.0
C762 C 0.03446 0.38859 0.78303 0.0
C763 C 0.02767 0.39372 0.78716 0.0
C764 C 0.0321 0.38309 0.77575 0.0
C765 C 0.02323 0.38271 0.77269 0.0
U766 U 0.99108 0.3894 0.78028 0.0
O767 O 0.98032 0.39432 0.77141 0.0
O768 O 0.98027 0.38031 0.77602 0.0
C769 C 0.97636 0.38644 0.77105 0.0
C770 C 0.00719 0.38707 0.77352 0.0
C771 C 0.97276 0.38352 0.76231 0.0
C772 C 0.97154 0.37265 0.75021 0.0
C773 C 0.97603 0.37593 0.75779 0.0
C774 C 0.96067 0.38465 0.75147 0.0
C775 C 0.96369 0.37687 0.74705 0.0
C776 C 0.96516 0.38792 0.75898 0.0
C777 C 0.98291 0.39643 0.80375 0.0
C778 C 0.96736 0.39743 0.80859 0.0
C779 C 0.97943 0.3998 0.8192 0.0
C780 C 0.98571 0.3984 0.81244 0.0
C781 C 0.97018 0.39922 0.8174 0.0
C782 C 0.97369 0.39602 0.80181 0.0
C783 C 0.9898 0.39456 0.79699 0.0
O784 O 1.00241 0.38051 0.77698 0.0
O785 O 1.00269 0.39463 0.77281 0.0
O786 O 0.99032 0.40021 0.79028 0.0
O787 O 0.99055 0.38612 0.79456 0.0
H788 H 0.01367 0.39726 0.78743 0.0
H789 H 0.02923 0.39811 0.79271 0.0
H790 H 0.03706 0.37891 0.7725 0.0
H791 H 0.02161 0.37836 0.76711 0.0
H792 H 0.97417 0.36675 0.74691 0.0
H793 H 0.98188 0.3724 0.76022 0.0
H794 H 0.95459 0.38802 0.74936 0.0
H795 H 0.96247 0.39373 0.76241 0.0
H796 H 0.96029 0.39689 0.80701 0.0
H797 H 0.98183 0.40133 0.82585 0.0
H798 H 0.9928 0.39877 0.81404 0.0
H799 H 0.97142 0.39448 0.79511 0.0
C800 C 0.38215 0.24791 0.52276 0.0
C801 C 0.3797 0.24491 0.53131 0.0
C802 C 0.3766 0.26033 0.53598 0.0
C803 C 0.37692 0.25106 0.53785 0.0
C804 C 0.37932 0.26327 0.52746 0.0
C805 C 0.38204 0.25712 0.52094 0.0
U806 U 0.39079 0.22507 0.51498 0.0
O807 O 0.38596 0.21606 0.50437 0.0
O808 O 0.39973 0.22138 0.50384 0.0
C809 C 0.39361 0.21631 0.5 0.0
C810 C 0.38461 0.24156 0.5156 0.0
C811 C 0.39314 0.21634 0.49018 0.0
C812 C 0.38968 0.22315 0.47581 0.0
C813 C 0.39031 0.22379 0.48517 0.0
C814 C 0.39481 0.20775 0.47651 0.0
C815 C 0.3918 0.21505 0.4714 0.0
C816 C 0.39546 0.20839 0.48577 0.0
C817 C 0.39714 0.20796 0.53328 0.0
C818 C 0.3968 0.19164 0.53284 0.0
C819 C 0.40442 0.19931 0.54494 0.0
C820 C 0.4022 0.20757 0.54115 0.0
C821 C 0.40161 0.19124 0.54092 0.0
C822 C 0.39459 0.19993 0.52904 0.0
C823 C 0.39408 0.21678 0.53008 0.0
O824 O 0.3932 0.23969 0.51488 0.0
O825 O 0.37942 0.23445 0.51483 0.0
O826 O 0.38611 0.217 0.52631 0.0
O827 O 0.40007 0.22176 0.52596 0.0
H828 H 0.37978 0.23782 0.53289 0.0
H829 H 0.3748 0.24851 0.54428 0.0
H830 H 0.37937 0.27034 0.52581 0.0
H831 H 0.38398 0.25958 0.51441 0.0
H832 H 0.38732 0.22889 0.47206 0.0
H833 H 0.3885 0.22999 0.48848 0.0
H834 H 0.39666 0.20148 0.47335 0.0
H835 H 0.3977 0.20259 0.48951 0.0
H836 H 0.39465 0.18555 0.52952 0.0
H837 H 0.40804 0.19927 0.55121 0.0
H838 H 0.4042 0.21369 0.54453 0.0
H839 H 0.39072 0.20007 0.52292 0.0
C840 C 0.48764 0.61337 0.27992 0.0
C841 C 0.48574 0.60985 0.28841 0.0
C842 C 0.46975 0.61281 0.28626 0.0
C843 C 0.47686 0.60955 0.29154 0.0
C844 C 0.47173 0.6162 0.27772 0.0
C845 C 0.48057 0.61648 0.2746 0.0
U846 U 0.5131 0.61211 0.28328 0.0
O847 O 0.5239 0.6073 0.27439 0.0
O848 O 0.52372 0.62137 0.27889 0.0
C849 C 0.52782 0.61521 0.27411 0.0
C850 C 0.49693 0.61413 0.27657 0.0
C851 C 0.5318 0.61809 0.26556 0.0
C852 C 0.5316 0.62653 0.25164 0.0
C853 C 0.5271 0.62315 0.25919 0.0
C854 C 0.54539 0.61963 0.25674 0.0
C855 C 0.54086 0.62496 0.25047 0.0
C856 C 0.54091 0.61623 0.26418 0.0
C857 C 0.52173 0.6056 0.3067 0.0
C858 C 0.53702 0.60177 0.31096 0.0
C859 C 0.52599 0.60529 0.32232 0.0
C860 C 0.51953 0.60663 0.31572 0.0
C861 C 0.53483 0.60291 0.32003 0.0
C862 C 0.53052 0.60314 0.30432 0.0
C863 C 0.51467 0.60719 0.30003 0.0
O864 O 0.50164 0.62079 0.27994 0.0
O865 O 0.5015 0.60661 0.27597 0.0
O866 O 0.51415 0.60145 0.29338 0.0
O867 O 0.51363 0.61558 0.29754 0.0
H868 H 0.49112 0.60746 0.29265 0.0
H869 H 0.4756 0.60697 0.29818 0.0
H870 H 0.46643 0.61863 0.27341 0.0
H871 H 0.48191 0.6192 0.26803 0.0
H872 H 0.52794 0.63062 0.24692 0.0
H873 H 0.52006 0.62468 0.26016 0.0
H874 H 0.55247 0.61817 0.25596 0.0
H875 H 0.54465 0.61234 0.26902 0.0
H876 H 0.54379 0.6 0.30898 0.0
H877 H 0.52404 0.60608 0.32924 0.0
H878 H 0.51278 0.60849 0.31768 0.0
H879 H 0.53235 0.60234 0.29737 0.0
C880 C 0.1143 0.77974 0.98841 0.0
C881 C 0.11523 0.78895 0.98662 0.0
C882 C 0.11368 0.78614 0.97064 0.0
C883 C 0.11495 0.79212 0.97783 0.0
C884 C 0.11251 0.77695 0.97251 0.0
C885 C 0.11283 0.7738 0.9813 0.0
U886 U 0.11248 0.78263 0.01366 0.0
O887 O 0.10776 0.77342 0.0242 0.0
O888 O 0.12162 0.77854 0.02442 0.0
C889 C 0.11556 0.77345 0.0283 0.0
C890 C 0.11512 0.77618 0.99757 0.0
C891 C 0.11867 0.76495 0.03225 0.0
C892 C 0.12768 0.75132 0.03216 0.0
C893 C 0.12415 0.75881 0.02767 0.0
C894 C 0.12012 0.75601 0.0457 0.0
C895 C 0.12586 0.74997 0.04129 0.0
C896 C 0.11658 0.76339 0.04122 0.0
C897 C 0.10451 0.80553 0.02247 0.0
C898 C 0.10538 0.81036 0.03793 0.0
C899 C 0.09849 0.81999 0.02686 0.0
C900 C 0.10014 0.81354 0.0203 0.0
C901 C 0.10117 0.81853 0.03574 0.0
C902 C 0.10703 0.80389 0.03134 0.0
C903 C 0.10667 0.79919 0.01527 0.0
O904 O 0.12153 0.77974 1.00246 0.0
O905 O 0.10755 0.7751 1.00196 0.0
O906 O 0.10128 0.79224 0.01447 0.0
O907 O 0.1152 0.79711 0.01444 0.0
H908 H 0.11629 0.79369 0.99202 0.0
H909 H 0.11571 0.79925 0.97665 0.0
H910 H 0.11161 0.77214 0.96716 0.0
H911 H 0.11207 0.76667 0.98254 0.0
H912 H 0.13208 0.74678 0.0286 0.0
H913 H 0.12586 0.75992 0.02073 0.0
H914 H 0.11845 0.75508 0.05268 0.0
H915 H 0.11236 0.76805 0.04487 0.0
H916 H 0.10743 0.80898 0.04473 0.0
H917 H 0.09537 0.82624 0.0249 0.0
H918 H 0.09817 0.8149 0.01347 0.0
H919 H 0.11039 0.7977 0.03313 0.0
C920 C 0.74698 0.98389 0.62495 0.0
C921 C 0.74391 0.97541 0.62771 0.0
C922 C 0.75932 0.97052 0.63035 0.0
C923 C 0.75002 0.9688 0.63041 0.0
C924 C 0.76234 0.97897 0.62738 0.0
C925 C 0.75623 0.98557 0.62471 0.0
U926 U 0.72414 0.9914 0.61638 0.0
O927 O 0.71497 1.00198 0.62103 0.0
O928 O 0.72025 1.00239 0.60733 0.0
C929 C 0.71517 0.00627 0.61338 0.0
C930 C 0.74065 0.99108 0.62246 0.0
C931 C 0.71518 0.01615 0.61378 0.0
C932 C 0.72218 0.03066 0.61663 0.0
C933 C 0.72279 0.02125 0.61605 0.0
C934 C 0.70646 0.02984 0.61258 0.0
C935 C 0.71395 0.03503 0.61503 0.0
C936 C 0.70708 0.02053 0.61197 0.0
C937 C 0.70748 0.97232 0.61055 0.0
C938 C 0.69154 0.97383 0.6074 0.0
C939 C 0.69863 0.95922 0.60667 0.0
C940 C 0.70684 0.96309 0.60894 0.0
C941 C 0.69085 0.96451 0.60591 0.0
C942 C 0.6998 0.97772 0.60971 0.0
C943 C 0.71616 0.97595 0.61348 0.0
O944 O 0.73873 0.99169 0.61392 0.0
O945 O 0.73357 0.99193 0.62764 0.0
O946 O 0.7162 0.97999 0.62127 0.0
O947 O 0.72096 0.98012 0.6074 0.0
H948 H 0.73679 0.97392 0.62785 0.0
H949 H 0.74745 0.96233 0.63251 0.0
H950 H 0.76944 0.98058 0.62732 0.0
H951 H 0.75874 0.99205 0.62258 0.0
H952 H 0.72806 0.03449 0.61856 0.0
H953 H 0.72912 0.01797 0.61747 0.0
H954 H 0.70007 0.03298 0.61112 0.0
H955 H 0.70116 0.01671 0.61016 0.0
H956 H 0.6857 0.97811 0.6068 0.0
H957 H 0.69835 0.95201 0.60576 0.0
H958 H 0.71269 0.95883 0.60962 0.0
H959 H 0.70019 0.98488 0.61093 0.0
C960 C 0.75746 0.98393 0.37866 0.0
C961 C 0.7599 0.97484 0.37912 0.0
C962 C 0.74519 0.97041 0.37335 0.0
C963 C 0.75382 0.96814 0.37649 0.0
C964 C 0.74282 0.97955 0.37297 0.0
C965 C 0.74889 0.98622 0.37561 0.0
U966 U 0.78043 0.99166 0.387 0.0
O967 O 0.78913 1.00268 0.38247 0.0
O968 O 0.78429 1.00248 0.39633 0.0
C969 C 0.78894 0.0068 0.39023 0.0
C970 C 0.76381 0.99112 0.38117 0.0
C971 C 0.78827 0.01669 0.39016 0.0
C972 C 0.78364 0.03085 0.38348 0.0
C973 C 0.7832 0.02143 0.38382 0.0
C974 C 0.79406 0.03084 0.39587 0.0
C975 C 0.78918 0.03568 0.38944 0.0
C976 C 0.79358 0.02149 0.39624 0.0
C977 C 0.79736 0.97258 0.39236 0.0
C978 C 0.81334 0.97386 0.39545 0.0
C979 C 0.80609 0.95929 0.39573 0.0
C980 C 0.7979 0.9633 0.39369 0.0
C981 C 0.81393 0.96449 0.39649 0.0
C982 C 0.80509 0.97789 0.39336 0.0
C983 C 0.78869 0.97631 0.38954 0.0
O984 O 0.76589 0.9916 0.38968 0.0
O985 O 0.77079 0.99204 0.37588 0.0
O986 O 0.78861 0.98055 0.38185 0.0
O987 O 0.78387 0.98029 0.39574 0.0
H988 H 0.7665 0.97293 0.38148 0.0
H989 H 0.75585 0.96118 0.377 0.0
H990 H 0.73633 0.9816 0.37045 0.0
H991 H 0.7469 0.9932 0.37518 0.0
H992 H 0.77968 0.03433 0.37851 0.0
H993 H 0.77906 0.01785 0.37905 0.0
H994 H 0.79855 0.03422 0.40046 0.0
H995 H 0.79761 0.01796 0.40113 0.0
H996 H 0.81928 0.97803 0.39596 0.0
H997 H 0.80629 0.95208 0.39665 0.0
H998 H 0.79199 0.95911 0.39299 0.0
H999 H 0.80477 0.98509 0.39236 0.0
C1000 C 0.77827 0.98839 0.11494 0.0
C1001 C 0.78753 0.98671 0.11449 0.0
C1002 C 0.78473 0.97055 0.11389 0.0
C1003 C 0.79073 0.97788 0.11398 0.0
C1004 C 0.77545 0.97232 0.11409 0.0
C1005 C 0.77226 0.98115 0.11461 0.0
U1006 U 0.78171 0.01371 0.11423 0.0
O1007 O 0.77282 0.02476 0.11004 0.0
O1008 O 0.77796 0.02427 0.1238 0.0
C1009 C 0.77306 0.02862 0.11793 0.0
C1010 C 0.77479 0.99759 0.11609 0.0
C1011 C 0.76484 0.03297 0.12123 0.0
C1012 C 0.74958 0.03288 0.12708 0.0
C1013 C 0.75703 0.02824 0.12361 0.0
C1014 C 0.75769 0.04691 0.12567 0.0
C1015 C 0.7499 0.04227 0.12827 0.0
C1016 C 0.76505 0.04231 0.12221 0.0
C1017 C 0.8052 0.02194 0.10715 0.0
C1018 C 0.80994 0.03754 0.1064 0.0
C1019 C 0.82076 0.02562 0.1041 0.0
C1020 C 0.814 0.01925 0.10532 0.0
C1021 C 0.81884 0.03484 0.10473 0.0
C1022 C 0.80315 0.03113 0.10764 0.0
C1023 C 0.79842 0.01497 0.1088 0.0
O1024 O 0.77835 1.00217 0.12272 0.0
O1025 O 0.77394 1.00235 0.10875 0.0
O1026 O 0.79154 0.01478 0.10331 0.0
O1027 O 0.79616 0.01382 0.11719 0.0
H1028 H 0.79229 0.99221 0.11467 0.0
H1029 H 0.79792 0.9768 0.11369 0.0
H1030 H 0.77063 0.96688 0.11413 0.0
H1031 H 0.76509 0.98231 0.11494 0.0
H1032 H 0.74367 0.02911 0.12904 0.0
H1033 H 0.75675 0.02101 0.1229 0.0
H1034 H 0.75811 0.05415 0.1263 0.0
H1035 H 0.77099 0.04609 0.12037 0.0
H1036 H 0.80826 0.04459 0.10698 0.0
H1037 H 0.8275 0.02332 0.10267 0.0
H1038 H 0.81568 0.01219 0.1049 0.0
H1039 H 0.79637 0.03331 0.10908 0.0
C1040 C 0.72587 0.98721 0.89129 0.0
C1041 C 0.71824 0.98495 0.89632 0.0
C1042 C 0.71952 0.9693 0.8916 0.0
C1043 C 0.71511 0.97606 0.8965 0.0
C1044 C 0.72718 0.97164 0.88662 0.0
C1045 C 0.73031 0.98049 0.88647 0.0
U1046 U 0.72253 0.01266 0.89309 0.0
O1047 O 0.73147 0.02335 0.89815 0.0
O1048 O 0.72703 0.02345 0.88415 0.0
C1049 C 0.7319 0.02737 0.89036 0.0
C1050 C 0.72924 0.99653 0.89076 0.0
C1051 C 0.74068 0.03104 0.8876 0.0
C1052 C 0.75422 0.03081 0.8785 0.0
C1053 C 0.74643 0.02655 0.88167 0.0
C1054 C 0.75062 0.04398 0.88729 0.0
C1055 C 0.75635 0.03965 0.88118 0.0
C1056 C 0.74292 0.0397 0.89047 0.0
C1057 C 0.69895 0.02116 0.89967 0.0
C1058 C 0.69469 0.03652 0.90317 0.0
C1059 C 0.68323 0.02525 0.90059 0.0
C1060 C 0.68987 0.01882 0.89916 0.0
C1061 C 0.68554 0.0342 0.90254 0.0
C1062 C 0.70137 0.03005 0.90171 0.0
C1063 C 0.70566 0.01414 0.89794 0.0
O1064 O 0.72591 1.00137 0.88423 0.0
O1065 O 0.72983 1.00096 0.89834 0.0
O1066 O 0.71232 0.01351 0.90367 0.0
O1067 O 0.70821 0.01329 0.88959 0.0
H1068 H 0.71466 0.99006 0.90004 0.0
H1069 H 0.70913 0.97452 0.90033 0.0
H1070 H 0.73083 0.9666 0.88287 0.0
H1071 H 0.73621 0.9821 0.88255 0.0
H1072 H 0.75852 0.02721 0.87391 0.0
H1073 H 0.74481 0.01984 0.87935 0.0
H1074 H 0.75188 0.05082 0.8894 0.0
H1075 H 0.73852 0.04331 0.89498 0.0
H1076 H 0.69669 0.04337 0.9046 0.0
H1077 H 0.67627 0.02319 0.90021 0.0
H1078 H 0.6879 0.01199 0.89762 0.0
H1079 H 0.70837 0.03198 0.90211 0.0
C1080 C 0.62351 0.74581 0.98386 0.0
C1081 C 0.62579 0.74272 0.97529 0.0
C1082 C 0.62869 0.75808 0.9704 0.0
C1083 C 0.62838 0.7488 0.96863 0.0
C1084 C 0.62622 0.76113 0.97895 0.0
C1085 C 0.62366 0.75505 0.9856 0.0
U1086 U 0.61537 0.72286 0.99163 0.0
O1087 O 0.62001 0.71416 1.00254 0.0
O1088 O 0.60603 0.71889 1.00237 0.0
C1089 C 0.6122 0.71427 0.00663 0.0
C1090 C 0.6211 0.73952 0.99108 0.0
C1091 C 0.61227 0.71484 0.01646 0.0
C1092 C 0.61884 0.71958 0.03059 0.0
C1093 C 0.61849 0.72008 0.02123 0.0
C1094 C 0.6067 0.70875 0.03045 0.0
C1095 C 0.61301 0.71381 0.03532 0.0
C1096 C 0.60633 0.7093 0.02116 0.0
C1097 C 0.60989 0.70593 0.9727 0.0
C1098 C 0.60658 0.69001 0.97411 0.0
C1099 C 0.60601 0.69718 0.95961 0.0
C1100 C 0.60834 0.70535 0.96352 0.0
C1101 C 0.60513 0.68939 0.96483 0.0
C1102 C 0.60895 0.69824 0.97803 0.0
C1103 C 0.61278 0.71461 0.97636 0.0
O1104 O 0.61255 0.73738 0.99164 0.0
O1105 O 0.62647 0.73259 0.99205 0.0
O1106 O 0.62053 0.71471 0.98054 0.0
O1107 O 0.60657 0.71942 0.98033 0.0
H1108 H 0.62563 0.73561 0.97378 0.0
H1109 H 0.63009 0.74622 0.96209 0.0
H1110 H 0.62648 0.7682 0.9806 0.0
H1111 H 0.62191 0.75757 0.99216 0.0
H1112 H 0.62372 0.72366 0.03411 0.0
H1113 H 0.62316 0.7244 0.01773 0.0
H1114 H 0.60223 0.7041 0.03376 0.0
H1115 H 0.60155 0.70513 0.0176 0.0
H1116 H 0.60588 0.68416 0.97833 0.0
H1117 H 0.60515 0.69695 0.95244 0.0
H1118 H 0.60908 0.71122 0.95931 0.0
H1119 H 0.61011 0.69859 0.98515 0.0
C1120 C 0.98825 0.11302 0.77982 0.0
C1121 C 0.98655 0.11236 0.78902 0.0
C1122 C 0.97039 0.11219 0.78622 0.0
C1123 C 0.9777 0.11196 0.79219 0.0
C1124 C 0.97218 0.11263 0.777 0.0
C1125 C 0.98102 0.11305 0.77385 0.0
U1126 U 0.01367 0.11135 0.78273 0.0
O1127 O 0.02428 0.10692 0.77346 0.0
O1128 O 0.02443 0.12067 0.77883 0.0
C1129 C 0.0284 0.11473 0.77369 0.0
C1130 C 0.99747 0.11396 0.77634 0.0
C1131 C 0.03249 0.11803 0.76537 0.0
C1132 C 0.03193 0.12516 0.75076 0.0
C1133 C 0.02749 0.12163 0.75827 0.0
C1134 C 0.04627 0.12138 0.75739 0.0
C1135 C 0.0414 0.12521 0.75033 0.0
C1136 C 0.04186 0.11785 0.76481 0.0
C1137 C 0.02267 0.10327 0.80537 0.0
C1138 C 0.03821 0.1045 0.81016 0.0
C1139 C 0.02723 0.09728 0.81971 0.0
C1140 C 0.0206 0.0988 0.81332 0.0
C1141 C 0.0361 0.1002 0.81827 0.0
C1142 C 0.03153 0.10602 0.80375 0.0
C1143 C 0.01537 0.10536 0.79912 0.0
O1144 O 1.00232 0.12035 0.78002 0.0
O1145 O 1.00194 0.10644 0.77518 0.0
O1146 O 0.01463 0.10004 0.79215 0.0
O1147 O 0.01439 0.11389 0.79715 0.0
H1148 H 0.99205 0.11231 0.79375 0.0
H1149 H 0.97659 0.11172 0.79933 0.0
H1150 H 0.96676 0.11264 0.77219 0.0
H1151 H 0.9822 0.1135 0.76673 0.0
H1152 H 0.028 0.12807 0.74542 0.0
H1153 H 0.02023 0.12183 0.7586 0.0
H1154 H 0.05353 0.12112 0.75721 0.0
H1155 H 0.04582 0.11507 0.7702 0.0
H1156 H 0.04499 0.10674 0.80879 0.0
H1157 H 0.02533 0.09408 0.82592 0.0
H1158 H 0.01378 0.09666 0.81467 0.0
H1159 H 0.03325 0.10947 0.79762 0.0
C1160 C 0.88065 0.25876 0.48136 0.0
C1161 C 0.87729 0.26192 0.47318 0.0
C1162 C 0.8753 0.24653 0.46787 0.0
C1163 C 0.8746 0.25587 0.46652 0.0
C1164 C 0.87894 0.24344 0.47598 0.0
C1165 C 0.88156 0.24949 0.48264 0.0
U1166 U 0.88924 0.28146 0.48952 0.0
O1167 O 0.88444 0.29039 0.50021 0.0
O1168 O 0.89822 0.28509 0.50067 0.0
C1169 C 0.89211 0.29012 0.50455 0.0
C1170 C 0.88305 0.26498 0.48868 0.0
C1171 C 0.89167 0.29007 0.51437 0.0
C1172 C 0.88798 0.28333 0.52872 0.0
C1173 C 0.88861 0.28269 0.51937 0.0
C1174 C 0.89356 0.29859 0.52806 0.0
C1175 C 0.89031 0.29137 0.53315 0.0
C1176 C 0.89422 0.29794 0.51881 0.0
C1177 C 0.89559 0.29846 0.47101 0.0
C1178 C 0.89789 0.31455 0.47254 0.0
C1179 C 0.90068 0.30723 0.45836 0.0
C1180 C 0.8983 0.29899 0.4621 0.0
C1181 C 0.90044 0.31514 0.4635 0.0
C1182 C 0.89548 0.30627 0.47628 0.0
C1183 C 0.89248 0.28974 0.4744 0.0
O1184 O 0.89165 0.26685 0.4895 0.0
O1185 O 0.87786 0.27205 0.4896 0.0
O1186 O 0.88458 0.28968 0.47829 0.0
O1187 O 0.89848 0.2848 0.47853 0.0
H1188 H 0.87659 0.26906 0.472 0.0
H1189 H 0.87176 0.25852 0.46042 0.0
H1190 H 0.87979 0.23634 0.47721 0.0
H1191 H 0.88422 0.24692 0.48886 0.0
H1192 H 0.88543 0.27765 0.53246 0.0
H1193 H 0.88661 0.27655 0.51605 0.0
H1194 H 0.89558 0.30481 0.53124 0.0
H1195 H 0.89664 0.30369 0.51507 0.0
H1196 H 0.89772 0.3205 0.47671 0.0
H1197 H 0.90242 0.30741 0.45135 0.0
H1198 H 0.89838 0.29304 0.45793 0.0
H1199 H 0.89341 0.30597 0.4832 0.0
C1200 C 0.50809 0.87069 0.77204 0.0
C1201 C 0.5107 0.87085 0.78105 0.0
C1202 C 0.49586 0.87629 0.7854 0.0
C1203 C 0.50464 0.87361 0.78767 0.0
C1204 C 0.49329 0.876 0.77636 0.0
C1205 C 0.49933 0.87322 0.76977 0.0
U1206 U 0.53121 0.86272 0.76469 0.0
O1207 O 0.53554 0.85368 0.75383 0.0
O1208 O 0.54014 0.86772 0.75411 0.0
C1209 C 0.54031 0.85997 0.74991 0.0
C1210 C 0.51448 0.86825 0.76493 0.0
C1211 C 0.54032 0.86023 0.74008 0.0
C1212 C 0.5345 0.86517 0.7257 0.0
C1213 C 0.53362 0.86451 0.73503 0.0
C1214 C 0.54863 0.85718 0.72647 0.0
C1215 C 0.54214 0.86167 0.72136 0.0
C1216 C 0.54772 0.85647 0.7357 0.0
C1217 C 0.54799 0.85803 0.784 0.0
C1218 C 0.56269 0.85091 0.78354 0.0
C1219 C 0.55808 0.8593 0.79662 0.0
C1220 C 0.54988 0.86118 0.79259 0.0
C1221 C 0.56462 0.85422 0.79214 0.0
C1222 C 0.55442 0.85284 0.77946 0.0
C1223 C 0.53924 0.86036 0.7801 0.0
O1224 O 0.52138 0.87369 0.76405 0.0
O1225 O 0.51672 0.85972 0.76449 0.0
O1226 O 0.53483 0.85395 0.77594 0.0
O1227 O 0.53883 0.86816 0.77604 0.0
H1228 H 0.51745 0.8689 0.78295 0.0
H1229 H 0.50684 0.87361 0.79456 0.0
H1230 H 0.48666 0.87813 0.77431 0.0
H1231 H 0.49721 0.87318 0.76285 0.0
H1232 H 0.52939 0.86868 0.72193 0.0
H1233 H 0.52786 0.86747 0.73831 0.0
H1234 H 0.5545 0.85426 0.72333 0.0
H1235 H 0.55295 0.85313 0.73947 0.0
H1236 H 0.56762 0.847 0.77992 0.0
H1237 H 0.55928 0.8618 0.80331 0.0
H1238 H 0.54498 0.86514 0.7962 0.0
H1239 H 0.55308 0.85035 0.7728 0.0
C1240 C 0.97746 0.13809 0.23741 0.0
C1241 C 0.96924 0.14218 0.23531 0.0
C1242 C 0.97145 0.13873 0.21952 0.0
C1243 C 0.96627 0.14252 0.22643 0.0
C1244 C 0.97972 0.13474 0.2217 0.0
C1245 C 0.98268 0.13442 0.23055 0.0
U1246 U 0.97371 0.13986 0.26263 0.0
O1247 O 0.97789 0.13082 0.27344 0.0
O1248 O 0.98257 0.14483 0.27335 0.0
C1249 C 0.98278 0.137 0.27739 0.0
C1250 C 0.98065 0.13737 0.2467 0.0
C1251 C 0.99143 0.13413 0.28119 0.0
C1252 C 0.00542 0.1257 0.28072 0.0
C1253 C 0.99764 0.12886 0.27645 0.0
C1254 C 1.00084 0.13312 0.29437 0.0
C1255 C 0.00708 0.12773 0.28978 0.0
C1256 C 0.99316 0.13629 0.29011 0.0
C1257 C 0.95042 0.1473 0.27091 0.0
C1258 C 0.94592 0.14809 0.28648 0.0
C1259 C 0.93531 0.15189 0.27482 0.0
C1260 C 0.94184 0.15013 0.26838 0.0
C1261 C 0.93724 0.15087 0.28395 0.0
C1262 C 0.95247 0.14632 0.28 0.0
C1263 C 0.95698 0.14524 0.26389 0.0
O1264 O 0.98139 0.14496 0.25114 0.0
O1265 O 0.977 0.13089 0.25142 0.0
O1266 O 0.95929 0.13676 0.26318 0.0
O1267 O 0.9638 0.15079 0.2632 0.0
H1268 H 0.96509 0.14502 0.24054 0.0
H1269 H 0.95983 0.14556 0.22501 0.0
H1270 H 0.98395 0.13187 0.21656 0.0
H1271 H 0.98904 0.13124 0.23205 0.0
H1272 H 0.0101 0.12164 0.27695 0.0
H1273 H 0.99641 0.1271 0.26955 0.0
H1274 H 1.00173 0.13468 0.30137 0.0
H1275 H 0.98841 0.14028 0.29389 0.0
H1276 H 0.94765 0.14733 0.29346 0.0
H1277 H 0.92868 0.15385 0.27261 0.0
H1278 H 0.94015 0.15088 0.26138 0.0
H1279 H 0.95909 0.14414 0.28206 0.0
C1280 C 0.50848 0.13322 0.73443 0.0
C1281 C 0.5102 0.13504 0.72539 0.0
C1282 C 0.49626 0.12752 0.72112 0.0
C1283 C 0.50413 0.13224 0.71879 0.0
C1284 C 0.49457 0.12582 0.73021 0.0
C1285 C 0.50062 0.12863 0.73677 0.0
U1286 U 0.53136 0.14209 0.74191 0.0
O1287 O 0.53514 0.15123 0.75289 0.0
O1288 O 0.54036 0.13743 0.75257 0.0
C1289 C 0.5401 0.14513 0.75686 0.0
C1290 C 0.51488 0.1358 0.7415 0.0
C1291 C 0.53988 0.14478 0.76669 0.0
C1292 C 0.53469 0.13859 0.78083 0.0
C1293 C 0.53389 0.13932 0.7715 0.0
C1294 C 0.54728 0.14889 0.78055 0.0
C1295 C 0.54154 0.14322 0.78542 0.0
C1296 C 0.54644 0.14966 0.77132 0.0
C1297 C 0.54815 0.14827 0.72317 0.0
C1298 C 0.56418 0.15089 0.72473 0.0
C1299 C 0.557 0.15272 0.71033 0.0
C1300 C 0.54875 0.15047 0.71412 0.0
C1301 C 0.56486 0.15287 0.71555 0.0
C1302 C 0.55589 0.14859 0.72851 0.0
C1303 C 0.53945 0.14519 0.72665 0.0
O1304 O 0.522 0.13065 0.74222 0.0
O1305 O 0.51676 0.14441 0.74209 0.0
O1306 O 0.53454 0.15121 0.73079 0.0
O1307 O 0.53945 0.13732 0.73062 0.0
H1308 H 0.51627 0.13855 0.72344 0.0
H1309 H 0.50569 0.1336 0.71186 0.0
H1310 H 0.48853 0.12234 0.73227 0.0
H1311 H 0.49918 0.12717 0.74371 0.0
H1312 H 0.53017 0.13416 0.78441 0.0
H1313 H 0.52879 0.13548 0.76804 0.0
H1314 H 0.55251 0.15267 0.78388 0.0
H1315 H 0.55112 0.15391 0.76773 0.0
H1316 H 0.57007 0.15105 0.72897 0.0
H1317 H 0.55724 0.15403 0.70323 0.0
H1318 H 0.54284 0.15021 0.7099 0.0
H1319 H 0.55553 0.14692 0.73554 0.0
C1320 C 0.13791 0.23811 0.97566 0.0
C1321 C 0.13815 0.2363 0.96646 0.0
C1322 C 0.13886 0.22018 0.96941 0.0
C1323 C 0.13861 0.22743 0.96337 0.0
C1324 C 0.13878 0.22209 0.97862 0.0
C1325 C 0.13832 0.23095 0.98169 0.0
U1326 U 0.13926 0.26354 0.97245 0.0
O1327 O 0.13 0.27426 0.97659 0.0
O1328 O 0.14394 0.27432 0.98143 0.0
C1329 C 0.1361 0.27835 0.98147 0.0
C1330 C 0.13699 0.24737 0.97909 0.0
C1331 C 0.13307 0.28248 0.98989 0.0
C1332 C 0.12607 0.28203 0.00457 0.0
C1333 C 0.12935 0.27755 0.99697 0.0
C1334 C 0.13035 0.29629 0.99807 0.0
C1335 C 0.1264 0.29149 0.00512 0.0
C1336 C 0.13363 0.29184 0.99056 0.0
C1337 C 0.14667 0.27192 0.94919 0.0
C1338 C 0.14682 0.28746 0.94423 0.0
C1339 C 0.15106 0.27556 0.93403 0.0
C1340 C 0.14961 0.26923 0.94073 0.0
C1341 C 0.14955 0.28474 0.93564 0.0
C1342 C 0.14536 0.28109 0.95096 0.0
C1343 C 0.14471 0.26495 0.95584 0.0
O1344 O 0.1445 0.25195 0.97997 0.0
O1345 O 0.13045 0.25211 0.97557 0.0
O1346 O 0.13624 0.26408 0.95811 0.0
O1347 O 0.15024 0.26444 0.96265 0.0
H1348 H 0.13791 0.24175 0.96168 0.0
H1349 H 0.13881 0.22625 0.95624 0.0
H1350 H 0.13885 0.21671 0.98348 0.0
H1351 H 0.13814 0.23221 0.98882 0.0
H1352 H 0.12305 0.27814 0.00989 0.0
H1353 H 0.12885 0.27031 0.99656 0.0
H1354 H 0.13088 0.30354 0.99833 0.0
H1355 H 0.1365 0.29575 0.98518 0.0
H1356 H 0.14555 0.29447 0.94567 0.0
H1357 H 0.15332 0.27325 0.92756 0.0
H1358 H 0.15069 0.26219 0.93927 0.0
H1359 H 0.14307 0.28327 0.95748 0.0
C1360 C 0.37341 0.73221 0.4983 0.0
C1361 C 0.37573 0.72353 0.49545 0.0
C1362 C 0.37888 0.71911 0.51082 0.0
C1363 C 0.37847 0.71706 0.50165 0.0
C1364 C 0.37625 0.72774 0.51363 0.0
C1365 C 0.37357 0.73422 0.50743 0.0
U1366 U 0.36521 0.73948 0.47534 0.0
O1367 O 0.35675 0.75084 0.47112 0.0
O1368 O 0.37052 0.74954 0.46599 0.0
C1369 C 0.36315 0.75437 0.46618 0.0
C1370 C 0.37111 0.73932 0.49184 0.0
C1371 C 0.36434 0.76421 0.46634 0.0
C1372 C 0.36233 0.77904 0.47293 0.0
C1373 C 0.3616 0.76965 0.47351 0.0
C1374 C 0.36858 0.77758 0.45808 0.0
C1375 C 0.36583 0.78312 0.46518 0.0
C1376 C 0.36787 0.76827 0.45868 0.0
C1377 C 0.35931 0.72017 0.45903 0.0
C1378 C 0.35427 0.7216 0.44367 0.0
C1379 C 0.35791 0.70696 0.4497 0.0
C1380 C 0.36 0.71089 0.45788 0.0
C1381 C 0.35501 0.71224 0.44248 0.0
C1382 C 0.35642 0.72555 0.4519 0.0
C1383 C 0.36198 0.72396 0.46768 0.0
O1384 O 0.37642 0.73988 0.48485 0.0
O1385 O 0.36256 0.74008 0.48982 0.0
O1386 O 0.35585 0.7285 0.47208 0.0
O1387 O 0.36997 0.7277 0.46791 0.0
H1388 H 0.3756 0.72182 0.48842 0.0
H1389 H 0.38051 0.71053 0.4992 0.0
H1390 H 0.37627 0.72953 0.52063 0.0
H1391 H 0.37174 0.74086 0.50976 0.0
H1392 H 0.36019 0.78309 0.47854 0.0
H1393 H 0.35881 0.76667 0.4795 0.0
H1394 H 0.37109 0.78043 0.45193 0.0
H1395 H 0.36992 0.76422 0.45302 0.0
H1396 H 0.352 0.72586 0.43827 0.0
H1397 H 0.35876 0.69977 0.449 0.0
H1398 H 0.3623 0.70666 0.46329 0.0
H1399 H 0.35589 0.73276 0.45269 0.0
C1400 C 0.7392 0.52896 0.86851 0.0
C1401 C 0.73722 0.53759 0.86529 0.0
C1402 C 0.72122 0.53503 0.86788 0.0
C1403 C 0.7283 0.54059 0.86496 0.0
C1404 C 0.72329 0.52636 0.871 0.0
C1405 C 0.73218 0.52338 0.87131 0.0
U1406 U 0.76463 0.53247 0.86668 0.0
O1407 O 0.7755 0.52814 0.87562 0.0
O1408 O 0.77528 0.5235 0.86168 0.0
C1409 C 0.7794 0.52325 0.86943 0.0
C1410 C 0.74852 0.5257 0.86919 0.0
C1411 C 0.78325 0.51458 0.87223 0.0
C1412 C 0.7829 0.50063 0.88066 0.0
C1413 C 0.77857 0.5084 0.87756 0.0
C1414 C 0.7965 0.50513 0.87301 0.0
C1415 C 0.79197 0.49894 0.87849 0.0
C1416 C 0.79218 0.51282 0.86991 0.0
C1417 C 0.77337 0.55563 0.85933 0.0
C1418 C 0.78828 0.56177 0.86191 0.0
C1419 C 0.77804 0.56929 0.85183 0.0
C1420 C 0.77159 0.56267 0.85341 0.0
C1421 C 0.78642 0.569 0.85615 0.0
C1422 C 0.78181 0.55512 0.86348 0.0
C1423 C 0.76616 0.54918 0.86136 0.0
O1424 O 0.75294 0.52494 0.86163 0.0
O1425 O 0.75334 0.5293 0.87562 0.0
O1426 O 0.76533 0.54686 0.86978 0.0
O1427 O 0.76532 0.5424 0.85581 0.0
H1428 H 0.74257 0.54202 0.86312 0.0
H1429 H 0.72697 0.54733 0.8626 0.0
H1430 H 0.71802 0.52184 0.87316 0.0
H1431 H 0.73358 0.5167 0.8738 0.0
H1432 H 0.77917 0.49597 0.88479 0.0
H1433 H 0.77166 0.50965 0.87944 0.0
H1434 H 0.80351 0.5042 0.87132 0.0
H1435 H 0.79593 0.51756 0.86587 0.0
H1436 H 0.79472 0.56127 0.86523 0.0
H1437 H 0.77633 0.5748 0.84744 0.0
H1438 H 0.76512 0.56316 0.85016 0.0
H1439 H 0.78334 0.54969 0.86803 0.0
C1440 C 0.73444 0.50846 0.1332 0.0
C1441 C 0.72533 0.5107 0.13413 0.0
C1442 C 0.72093 0.49615 0.12796 0.0
C1443 C 0.71863 0.5046 0.13155 0.0
C1444 C 0.73009 0.49396 0.12714 0.0
C1445 C 0.73675 0.50005 0.12974 0.0
U1446 U 0.74198 0.53146 0.14152 0.0
O1447 O 0.75294 0.53549 0.15058 0.0
O1448 O 0.75268 0.54044 0.13675 0.0
C1449 C 0.75696 0.54034 0.14443 0.0
C1450 C 0.74161 0.51487 0.13557 0.0
C1451 C 0.76685 0.54007 0.14413 0.0
C1452 C 0.78107 0.53485 0.13801 0.0
C1453 C 0.77166 0.53423 0.13854 0.0
C1454 C 0.78087 0.54706 0.14868 0.0
C1455 C 0.7858 0.54135 0.14302 0.0
C1456 C 0.77155 0.54639 0.14925 0.0
C1457 C 0.7229 0.54811 0.14756 0.0
C1458 C 0.7229 0.56443 0.14783 0.0
C1459 C 0.71028 0.55617 0.15389 0.0
C1460 C 0.71453 0.5481 0.1518 0.0
C1461 C 0.7143 0.56443 0.15173 0.0
C1462 C 0.72718 0.55632 0.14575 0.0
C1463 C 0.72659 0.53946 0.14454 0.0
O1464 O 0.74229 0.5219 0.13032 0.0
O1465 O 0.74227 0.51691 0.14409 0.0
O1466 O 0.73075 0.53462 0.15058 0.0
O1467 O 0.73056 0.53941 0.13671 0.0
H1468 H 0.72341 0.51718 0.13681 0.0
H1469 H 0.71167 0.50649 0.13241 0.0
H1470 H 0.73214 0.48761 0.12428 0.0
H1471 H 0.74374 0.49822 0.12894 0.0
H1472 H 0.78463 0.53027 0.13365 0.0
H1473 H 0.76816 0.5293 0.13451 0.0
H1474 H 0.78417 0.55228 0.1525 0.0
H1475 H 0.76795 0.55101 0.15354 0.0
H1476 H 0.72617 0.57068 0.14606 0.0
H1477 H 0.70375 0.55592 0.15706 0.0
H1478 H 0.71116 0.54183 0.15329 0.0
H1479 H 0.73367 0.55646 0.14249 0.0
C1480 C 0.73476 0.49755 0.37408 0.0
C1481 C 0.72662 0.49816 0.36935 0.0
C1482 C 0.72127 0.50967 0.37966 0.0
C1483 C 0.71996 0.50421 0.37209 0.0
C1484 C 0.72943 0.50901 0.38434 0.0
C1485 C 0.73608 0.50302 0.38157 0.0
U1486 U 0.74208 0.47481 0.36487 0.0
O1487 O 0.75353 0.47092 0.35639 0.0
O1488 O 0.75208 0.46517 0.36984 0.0
C1489 C 0.75698 0.46567 0.36256 0.0
C1490 C 0.74185 0.49111 0.37152 0.0
C1491 C 0.76682 0.46574 0.36382 0.0
C1492 C 0.78169 0.4724 0.3622 0.0
C1493 C 0.7723 0.47306 0.36147 0.0
C1494 C 0.78014 0.45719 0.36767 0.0
C1495 C 0.78573 0.46443 0.3653 0.0
C1496 C 0.77084 0.45786 0.36696 0.0
C1497 C 0.72262 0.45878 0.35825 0.0
C1498 C 0.7236 0.44285 0.3548 0.0
C1499 C 0.70908 0.45014 0.35565 0.0
C1500 C 0.71327 0.45828 0.35754 0.0
C1501 C 0.71417 0.4423 0.35444 0.0
C1502 C 0.72781 0.45106 0.35675 0.0
C1503 C 0.72656 0.4673 0.36123 0.0
O1504 O 0.74232 0.48387 0.37649 0.0
O1505 O 0.74276 0.48945 0.36294 0.0
O1506 O 0.73118 0.47191 0.35533 0.0
O1507 O 0.73025 0.46719 0.36918 0.0
H1508 H 0.72539 0.49393 0.36359 0.0
H1509 H 0.71372 0.50449 0.36839 0.0
H1510 H 0.73071 0.51319 0.39012 0.0
H1511 H 0.74229 0.50264 0.38532 0.0
H1512 H 0.78578 0.47813 0.36037 0.0
H1513 H 0.76936 0.47921 0.35899 0.0
H1514 H 0.78296 0.45087 0.36986 0.0
H1515 H 0.76675 0.45209 0.3687 0.0
H1516 H 0.72767 0.4369 0.35391 0.0
H1517 H 0.70182 0.44995 0.35526 0.0
H1518 H 0.70917 0.46418 0.35868 0.0
H1519 H 0.73506 0.45134 0.35731 0.0
C1520 C 0.73715 0.47725 0.63629 0.0
C1521 C 0.73492 0.46944 0.64104 0.0
C1522 C 0.71915 0.47115 0.63688 0.0
C1523 C 0.72599 0.46643 0.64137 0.0
C1524 C 0.72146 0.47899 0.63217 0.0
C1525 C 0.73036 0.48199 0.63188 0.0
U1526 U 0.76261 0.47381 0.63802 0.0
O1527 O 0.77344 0.47839 0.62915 0.0
O1528 O 0.77327 0.48271 0.64319 0.0
C1529 C 0.77734 0.48319 0.63542 0.0
C1530 C 0.74648 0.48055 0.63568 0.0
C1531 C 0.78111 0.49196 0.63278 0.0
C1532 C 0.78105 0.50568 0.62395 0.0
C1533 C 0.7767 0.49786 0.62694 0.0
C1534 C 0.79413 0.50179 0.63271 0.0
C1535 C 0.78989 0.50769 0.62672 0.0
C1536 C 0.78978 0.49407 0.63572 0.0
C1537 C 0.77105 0.45032 0.6449 0.0
C1538 C 0.78667 0.44597 0.64674 0.0
C1539 C 0.77486 0.43489 0.64835 0.0
C1540 C 0.76844 0.44147 0.64661 0.0
C1541 C 0.78405 0.43704 0.64844 0.0
C1542 C 0.7802 0.45258 0.64498 0.0
C1543 C 0.76404 0.45696 0.64296 0.0
O1544 O 0.75092 0.48117 0.64325 0.0
O1545 O 0.7513 0.47714 0.62916 0.0
O1546 O 0.76337 0.45948 0.63458 0.0
O1547 O 0.76329 0.46365 0.64864 0.0
H1548 H 0.74008 0.46564 0.64445 0.0
H1549 H 0.72447 0.46032 0.64498 0.0
H1550 H 0.71637 0.48286 0.62875 0.0
H1551 H 0.73194 0.48804 0.62819 0.0
H1552 H 0.77751 0.5101 0.61943 0.0
H1553 H 0.76999 0.49635 0.62457 0.0
H1554 H 0.80097 0.50295 0.63487 0.0
H1555 H 0.79333 0.48956 0.64015 0.0
H1556 H 0.79369 0.44787 0.64684 0.0
H1557 H 0.77259 0.42807 0.64944 0.0
H1558 H 0.7614 0.43961 0.64653 0.0
H1559 H 0.78233 0.45941 0.64367 0.0
C1560 C 0.48232 0.12724 0.24729 0.0
C1561 C 0.47459 0.13173 0.24429 0.0
C1562 C 0.46886 0.13259 0.25952 0.0
C1563 C 0.46795 0.13442 0.25035 0.0
C1564 C 0.47649 0.12788 0.26245 0.0
C1565 C 0.48315 0.12525 0.2564 0.0
U1566 U 0.4904 0.11887 0.22461 0.0
O1567 O 0.50134 0.12356 0.21591 0.0
O1568 O 0.50133 0.10965 0.22084 0.0
C1569 C 0.50546 0.11576 0.21601 0.0
C1570 C 0.48965 0.12477 0.24109 0.0
C1571 C 0.51534 0.11585 0.21615 0.0
C1572 C 0.52983 0.11995 0.22251 0.0
C1573 C 0.5204 0.11975 0.22306 0.0
C1574 C 0.52911 0.11238 0.20822 0.0
C1575 C 0.5343 0.11626 0.21506 0.0
C1576 C 0.51978 0.11215 0.20879 0.0
C1577 C 0.47191 0.11304 0.20742 0.0
C1578 C 0.47257 0.11291 0.19121 0.0
C1579 C 0.45996 0.10607 0.19884 0.0
C1580 C 0.46376 0.10835 0.20704 0.0
C1581 C 0.46425 0.10843 0.19081 0.0
C1582 C 0.47638 0.11519 0.19946 0.0
C1583 C 0.4752 0.11603 0.2162 0.0
O1584 O 0.49027 0.1162 0.23909 0.0
O1585 O 0.49076 0.13006 0.23416 0.0
O1586 O 0.47924 0.12388 0.21645 0.0
O1587 O 0.47913 0.10992 0.22114 0.0
H1588 H 0.47372 0.13325 0.23727 0.0
H1589 H 0.46209 0.13791 0.24785 0.0
H1590 H 0.47743 0.12642 0.26947 0.0
H1591 H 0.48903 0.12177 0.25885 0.0
H1592 H 0.53361 0.12294 0.22793 0.0
H1593 H 0.51707 0.12267 0.2288 0.0
H1594 H 0.53224 0.10967 0.20227 0.0
H1595 H 0.51599 0.10919 0.20336 0.0
H1596 H 0.47611 0.11472 0.18515 0.0
H1597 H 0.45349 0.10275 0.1988 0.0
H1598 H 0.4602 0.10665 0.21312 0.0
H1599 H 0.48272 0.11877 0.1996 0.0
C1600 C 0.98806 0.89093 0.72732 0.0
C1601 C 0.98629 0.89254 0.71825 0.0
C1602 C 0.97016 0.89157 0.72106 0.0
C1603 C 0.97741 0.89287 0.71515 0.0
C1604 C 0.97202 0.89014 0.73016 0.0
C1605 C 0.98087 0.88982 0.73324 0.0
U1606 U 0.01351 0.8922 0.72403 0.0
O1607 O 0.02425 0.89709 0.73295 0.0
O1608 O 0.02414 0.88302 0.72847 0.0
C1609 C 0.02811 0.88917 0.73339 0.0
C1610 C 0.99732 0.8901 0.73069 0.0
C1611 C 0.0317 0.88634 0.74213 0.0
C1612 C 0.03251 0.8759 0.75462 0.0
C1613 C 0.02803 0.87918 0.74705 0.0
C1614 C 0.04416 0.88706 0.75257 0.0
C1615 C 0.04076 0.87967 0.75731 0.0
C1616 C 0.03968 0.89035 0.74508 0.0
C1617 C 0.02211 0.89913 0.70072 0.0
C1618 C 0.03777 0.90031 0.69628 0.0
C1619 C 0.02596 0.90248 0.68536 0.0
C1620 C 0.01952 0.90102 0.69195 0.0
C1621 C 0.03516 0.90204 0.6874 0.0
C1622 C 0.03127 0.89884 0.7029 0.0
C1623 C 0.01507 0.8973 0.70733 0.0
O1624 O 1.00203 0.88349 0.72726 0.0
O1625 O 1.0019 0.89763 0.73138 0.0
O1626 O 0.01448 0.90297 0.71403 0.0
O1627 O 0.01418 0.88887 0.70975 0.0
H1628 H 0.99176 0.89341 0.71357 0.0
H1629 H 0.97624 0.8939 0.70809 0.0
H1630 H 0.96662 0.88927 0.73492 0.0
H1631 H 0.98211 0.88861 0.74026 0.0
H1632 H 0.02973 0.87018 0.75813 0.0
H1633 H 0.02188 0.87595 0.74488 0.0
H1634 H 0.05041 0.89022 0.75456 0.0
H1635 H 0.04264 0.89586 0.74138 0.0
H1636 H 0.0448 0.89988 0.69805 0.0
H1637 H 0.02371 0.90397 0.67865 0.0
H1638 H 0.01247 0.9013 0.69018 0.0
H1639 H 0.03339 0.89737 0.70966 0.0
C1640 C 0.51695 0.88741 0.27706 0.0
C1641 C 0.51906 0.8925 0.28467 0.0
C1642 C 0.53486 0.88823 0.28339 0.0
C1643 C 0.52794 0.89293 0.28779 0.0
C1644 C 0.53265 0.88314 0.27577 0.0
C1645 C 0.52381 0.88275 0.27265 0.0
U1646 U 0.49157 0.88925 0.2804 0.0
O1647 O 0.48085 0.89428 0.27155 0.0
O1648 O 0.48064 0.88027 0.27617 0.0
C1649 C 0.47668 0.88649 0.27137 0.0
C1650 C 0.50766 0.8867 0.27369 0.0
C1651 C 0.47252 0.88367 0.26288 0.0
C1652 C 0.47195 0.8745 0.24942 0.0
C1653 C 0.4767 0.87777 0.25685 0.0
C1654 C 0.45895 0.88315 0.25391 0.0
C1655 C 0.46293 0.87701 0.24799 0.0
C1656 C 0.4637 0.88644 0.26124 0.0
C1657 C 0.48322 0.8966 0.3036 0.0
C1658 C 0.46755 0.89732 0.30808 0.0
C1659 C 0.4793 0.90081 0.31874 0.0
C1660 C 0.48577 0.89922 0.3122 0.0
C1661 C 0.47011 0.89984 0.31679 0.0
C1662 C 0.47407 0.89571 0.30153 0.0
C1663 C 0.49027 0.89457 0.29706 0.0
O1664 O 0.50281 0.88022 0.27719 0.0
O1665 O 0.50322 0.89429 0.27288 0.0
O1666 O 0.49098 0.90015 0.29031 0.0
O1667 O 0.49095 0.88611 0.29471 0.0
H1668 H 0.51386 0.89613 0.28821 0.0
H1669 H 0.52937 0.897 0.29362 0.0
H1670 H 0.53773 0.8793 0.27229 0.0
H1671 H 0.5223 0.87873 0.26681 0.0
H1672 H 0.47519 0.86976 0.24499 0.0
H1673 H 0.48351 0.87552 0.25802 0.0
H1674 H 0.45209 0.88535 0.25292 0.0
H1675 H 0.46035 0.89098 0.26582 0.0
H1676 H 0.46053 0.8966 0.30634 0.0
H1677 H 0.48153 0.90258 0.32539 0.0
H1678 H 0.49281 0.89989 0.31391 0.0
H1679 H 0.47199 0.89369 0.29489 0.0
C1680 C 0.88262 0.74808 0.02252 0.0
C1681 C 0.87909 0.74501 0.03067 0.0
C1682 C 0.87709 0.76045 0.03579 0.0
C1683 C 0.87633 0.75113 0.03722 0.0
C1684 C 0.8809 0.76345 0.02771 0.0
C1685 C 0.8836 0.75733 0.02116 0.0
U1686 U 0.89112 0.72528 0.0144 0.0
O1687 O 0.88647 0.71663 0.00343 0.0
O1688 O 0.90035 0.72172 0.00343 0.0
C1689 C 0.89418 0.71706 0.99917 0.0
C1690 C 0.88509 0.74181 0.01528 0.0
C1691 C 0.89389 0.71788 0.98934 0.0
C1692 C 0.8859 0.72072 0.97543 0.0
C1693 C 0.88646 0.72144 0.98476 0.0
C1694 C 0.90032 0.71325 0.97515 0.0
C1695 C 0.89272 0.71639 0.97054 0.0
C1696 C 0.90088 0.71399 0.98442 0.0
C1697 C 0.89714 0.70815 0.03302 0.0
C1698 C 0.89795 0.69185 0.03252 0.0
C1699 C 0.90295 0.69987 0.04569 0.0
C1700 C 0.90088 0.708 0.04159 0.0
C1701 C 0.90132 0.69169 0.0413 0.0
C1702 C 0.89585 0.70004 0.0284 0.0
C1703 C 0.89409 0.71683 0.02948 0.0
O1704 O 0.89367 0.73987 0.01462 0.0
O1705 O 0.87984 0.73477 0.01428 0.0
O1706 O 0.88626 0.71689 0.02544 0.0
O1707 O 0.90017 0.72182 0.02551 0.0
H1708 H 0.87833 0.73788 0.0319 0.0
H1709 H 0.87337 0.74855 0.0433 0.0
H1710 H 0.8818 0.77054 0.02643 0.0
H1711 H 0.88638 0.75983 0.01496 0.0
H1712 H 0.87994 0.72318 0.97209 0.0
H1713 H 0.88095 0.72445 0.98841 0.0
H1714 H 0.90577 0.71003 0.97159 0.0
H1715 H 0.90667 0.71119 0.9878 0.0
H1716 H 0.89659 0.68565 0.02898 0.0
H1717 H 0.90569 0.69999 0.05239 0.0
H1718 H 0.90195 0.7142 0.04524 0.0
H1719 H 0.89299 0.70002 0.02176 0.0
C1720 C 0.61338 0.28134 0.48709 0.0
C1721 C 0.60929 0.28965 0.48539 0.0
C1722 C 0.61226 0.28783 0.46945 0.0
C1723 C 0.60874 0.29287 0.47661 0.0
C1724 C 0.61634 0.27953 0.47128 0.0
C1725 C 0.61687 0.27633 0.48 0.0
U1726 U 0.61188 0.28142 0.51305 0.0
O1727 O 0.62186 0.27558 0.52224 0.0
O1728 O 0.6081 0.26974 0.52135 0.0
C1729 C 0.61621 0.26932 0.52481 0.0
C1730 C 0.61419 0.27759 0.4961 0.0
C1731 C 0.61866 0.2625 0.53145 0.0
C1732 C 0.62078 0.2468 0.5352 0.0
C1733 C 0.6174 0.25339 0.52949 0.0
C1734 C 0.62627 0.25837 0.54519 0.0
C1735 C 0.62531 0.24923 0.54306 0.0
C1736 C 0.62307 0.26497 0.53936 0.0
C1737 C 0.60374 0.30309 0.52543 0.0
C1738 C 0.60748 0.30967 0.53982 0.0
C1739 C 0.59554 0.31606 0.53089 0.0
C1740 C 0.59694 0.30949 0.5244 0.0
C1741 C 0.60092 0.31637 0.5386 0.0
C1742 C 0.6089 0.30309 0.53328 0.0
C1743 C 0.60588 0.29731 0.51775 0.0
O1744 O 0.62053 0.28101 0.50117 0.0
O1745 O 0.60667 0.27601 0.50041 0.0
O1746 O 0.60056 0.29042 0.51623 0.0
O1747 O 0.61442 0.29555 0.51636 0.0
H1748 H 0.60655 0.2936 0.49081 0.0
H1749 H 0.6055 0.29927 0.47542 0.0
H1750 H 0.61929 0.27555 0.46599 0.0
H1751 H 0.62009 0.26992 0.48121 0.0
H1752 H 0.6199 0.2398 0.53344 0.0
H1753 H 0.61411 0.25136 0.52336 0.0
H1754 H 0.62977 0.26041 0.5512 0.0
H1755 H 0.62416 0.27199 0.54095 0.0
H1756 H 0.61164 0.30961 0.54574 0.0
H1757 H 0.59052 0.32116 0.52964 0.0
H1758 H 0.59293 0.30964 0.51836 0.0
H1759 H 0.61419 0.2982 0.53422 0.0
C1760 C 0.24666 0.48394 0.12574 0.0
C1761 C 0.24582 0.47504 0.12273 0.0
C1762 C 0.25899 0.47068 0.13141 0.0
C1763 C 0.25196 0.46847 0.1255 0.0
C1764 C 0.25978 0.47963 0.13436 0.0
C1765 C 0.25368 0.48616 0.13155 0.0
U1766 U 0.22373 0.49103 0.11681 0.0
O1767 O 0.21429 0.50134 0.12156 0.0
O1768 O 0.2198 0.50216 0.10796 0.0
C1769 C 0.21461 0.50586 0.11404 0.0
C1770 C 0.24017 0.49095 0.12314 0.0
C1771 C 0.21461 0.51573 0.11478 0.0
C1772 C 0.22189 0.5304 0.11495 0.0
C1773 C 0.22245 0.52098 0.1144 0.0
C1774 C 0.20571 0.5293 0.11621 0.0
C1775 C 0.21349 0.53466 0.11592 0.0
C1776 C 0.20629 0.51998 0.11567 0.0
C1777 C 0.20739 0.47161 0.11095 0.0
C1778 C 0.19223 0.4728 0.10505 0.0
C1779 C 0.19801 0.45836 0.10974 0.0
C1780 C 0.20613 0.46238 0.11207 0.0
C1781 C 0.19096 0.46349 0.10617 0.0
C1782 C 0.2004 0.47684 0.10743 0.0
C1783 C 0.216 0.47548 0.11379 0.0
O1784 O 0.23833 0.49154 0.11457 0.0
O1785 O 0.23302 0.49156 0.12823 0.0
O1786 O 0.216 0.47943 0.12162 0.0
O1787 O 0.22066 0.47982 0.10771 0.0
H1788 H 0.24039 0.47315 0.11829 0.0
H1789 H 0.2511 0.46164 0.12317 0.0
H1790 H 0.26518 0.4816 0.13879 0.0
H1791 H 0.25443 0.49299 0.13396 0.0
H1792 H 0.22801 0.53432 0.11474 0.0
H1793 H 0.22896 0.51783 0.11369 0.0
H1794 H 0.19912 0.53232 0.11674 0.0
H1795 H 0.20016 0.51606 0.11589 0.0
H1796 H 0.18694 0.47694 0.10229 0.0
H1797 H 0.19723 0.45123 0.1109 0.0
H1798 H 0.21142 0.45826 0.11486 0.0
H1799 H 0.20126 0.48401 0.10657 0.0
C1800 C 0.27737 0.51811 0.88872 0.0
C1801 C 0.28604 0.51996 0.89191 0.0
C1802 C 0.28373 0.53601 0.88944 0.0
C1803 C 0.28918 0.52883 0.89229 0.0
C1804 C 0.27501 0.53407 0.88634 0.0
C1805 C 0.27188 0.52522 0.886 0.0
U1806 U 0.28081 0.49266 0.8897 0.0
O1807 O 0.27194 0.4818 0.8945 0.0
O1808 O 0.27628 0.48212 0.88047 0.0
C1809 C 0.27144 0.47803 0.88657 0.0
C1810 C 0.27401 0.50882 0.88789 0.0
C1811 C 0.26266 0.47432 0.8838 0.0
C1812 C 0.25036 0.47295 0.87315 0.0
C1813 C 0.25787 0.47762 0.87641 0.0
C1814 C 0.25216 0.46186 0.88481 0.0
C1815 C 0.24758 0.46487 0.87718 0.0
C1816 C 0.2596 0.46653 0.88807 0.0
C1817 C 0.30445 0.48397 0.89587 0.0
C1818 C 0.30917 0.46943 0.9016 0.0
C1819 C 0.31994 0.47918 0.89433 0.0
C1820 C 0.31325 0.48557 0.89297 0.0
C1821 C 0.31799 0.47104 0.89864 0.0
C1822 C 0.30242 0.47584 0.90018 0.0
C1823 C 0.2977 0.49104 0.89441 0.0
O1824 O 0.27735 0.50419 0.88121 0.0
O1825 O 0.2735 0.50419 0.89534 0.0
O1826 O 0.29108 0.49156 0.90019 0.0
O1827 O 0.29513 0.49218 0.8861 0.0
H1828 H 0.29039 0.51454 0.89404 0.0
H1829 H 0.29588 0.53006 0.89482 0.0
H1830 H 0.27066 0.53936 0.88395 0.0
H1831 H 0.26519 0.52391 0.88347 0.0
H1832 H 0.24698 0.47543 0.86725 0.0
H1833 H 0.26012 0.48361 0.87296 0.0
H1834 H 0.25011 0.45575 0.88817 0.0
H1835 H 0.2632 0.46385 0.89375 0.0
H1836 H 0.30746 0.46318 0.90489 0.0
H1837 H 0.3267 0.48069 0.89209 0.0
H1838 H 0.31496 0.49181 0.88968 0.0
H1839 H 0.29566 0.47444 0.90246 0.0
C1840 C 0.27812 0.48809 0.61622 0.0
C1841 C 0.28656 0.48612 0.61251 0.0
C1842 C 0.28437 0.47017 0.61563 0.0
C1843 C 0.28965 0.47723 0.61219 0.0
C1844 C 0.27589 0.47222 0.61922 0.0
C1845 C 0.27281 0.48107 0.61952 0.0
U1846 U 0.2817 0.51351 0.61497 0.0
O1847 O 0.27283 0.52434 0.61013 0.0
O1848 O 0.27732 0.52418 0.62411 0.0
C1849 C 0.27238 0.52818 0.61802 0.0
C1850 C 0.27482 0.49739 0.61698 0.0
C1851 C 0.26357 0.53169 0.62088 0.0
C1852 C 0.25118 0.53251 0.63147 0.0
C1853 C 0.25883 0.52813 0.62818 0.0
C1854 C 0.25277 0.54389 0.62005 0.0
C1855 C 0.24815 0.54056 0.62755 0.0
C1856 C 0.26036 0.53949 0.61676 0.0
C1857 C 0.30536 0.52189 0.60849 0.0
C1858 C 0.30983 0.53736 0.60579 0.0
C1859 C 0.32111 0.52572 0.60704 0.0
C1860 C 0.31439 0.51934 0.60839 0.0
C1861 C 0.31893 0.53481 0.6058 0.0
C1862 C 0.30307 0.53093 0.60716 0.0
C1863 C 0.29857 0.51492 0.61012 0.0
O1864 O 0.27823 0.50208 0.6236 0.0
O1865 O 0.27428 0.50196 0.60949 0.0
O1866 O 0.2919 0.51446 0.6044 0.0
O1867 O 0.29603 0.51398 0.61846 0.0
H1868 H 0.29079 0.49146 0.60997 0.0
H1869 H 0.29625 0.47592 0.60946 0.0
H1870 H 0.27158 0.46696 0.6218 0.0
H1871 H 0.26628 0.48246 0.62239 0.0
H1872 H 0.24772 0.52966 0.63715 0.0
H1873 H 0.26117 0.52211 0.63149 0.0
H1874 H 0.25077 0.55012 0.61692 0.0
H1875 H 0.26395 0.54241 0.61119 0.0
H1876 H 0.30794 0.54432 0.60491 0.0
H1877 H 0.32804 0.5235 0.60692 0.0
H1878 H 0.31627 0.51239 0.60937 0.0
H1879 H 0.29611 0.53302 0.60725 0.0
C1880 C 0.24597 0.52045 0.38195 0.0
C1881 C 0.24507 0.52938 0.38486 0.0
C1882 C 0.25834 0.5337 0.37628 0.0
C1883 C 0.25123 0.53594 0.38207 0.0
C1884 C 0.25917 0.52474 0.37343 0.0
C1885 C 0.25305 0.5182 0.37623 0.0
U1886 U 0.22307 0.51311 0.39088 0.0
O1887 O 0.2141 0.50221 0.38657 0.0
O1888 O 0.21931 0.50237 0.4003 0.0
C1889 C 0.2144 0.49813 0.39434 0.0
C1890 C 0.23955 0.5134 0.38466 0.0
C1891 C 0.21477 0.48824 0.39426 0.0
C1892 C 0.21954 0.47395 0.3879 0.0
C1893 C 0.22029 0.48335 0.3884 0.0
C1894 C 0.20797 0.47429 0.39925 0.0
C1895 C 0.2132 0.46935 0.39318 0.0
C1896 C 0.20876 0.48361 0.39978 0.0
C1897 C 0.20636 0.53223 0.39656 0.0
C1898 C 0.19025 0.53114 0.39896 0.0
C1899 C 0.19792 0.5453 0.40129 0.0
C1900 C 0.20605 0.54128 0.39901 0.0
C1901 C 0.18989 0.54032 0.40123 0.0
C1902 C 0.19843 0.52712 0.39664 0.0
C1903 C 0.21498 0.52854 0.39354 0.0
O1904 O 0.23765 0.51299 0.39322 0.0
O1905 O 0.23244 0.51253 0.37953 0.0
O1906 O 0.21491 0.52428 0.38585 0.0
O1907 O 0.21994 0.52459 0.39963 0.0
H1908 H 0.2396 0.53128 0.38923 0.0
H1909 H 0.25033 0.54279 0.38433 0.0
H1910 H 0.26463 0.52274 0.36908 0.0
H1911 H 0.25385 0.51135 0.37392 0.0
H1912 H 0.22365 0.47033 0.38315 0.0
H1913 H 0.22497 0.48681 0.38405 0.0
H1914 H 0.20313 0.47095 0.40351 0.0
H1915 H 0.20445 0.48725 0.40434 0.0
H1916 H 0.18421 0.52708 0.39894 0.0
H1917 H 0.19792 0.55241 0.40282 0.0
H1918 H 0.2121 0.54533 0.39894 0.0
H1919 H 0.19855 0.52009 0.39478 0.0
C1920 C 0.09079 0.35138 0.08057 0.0
C1921 C 0.09587 0.35208 0.07266 0.0
C1922 C 0.1001 0.36028 0.07063 0.0
C1923 C 0.09472 0.36673 0.08444 0.0
C1924 C 0.0902 0.35885 0.0863 0.0
C1925 C 0.08491 0.35955 0.09488 0.0
H1926 H 0.07565 0.38342 0.13252 0.0
C1927 C 0.09325 0.37304 0.09188 0.0
C1928 C 0.0874 0.36896 0.09801 0.0
H1929 H 0.06529 0.3573 0.12519 0.0
H1930 H 0.07304 0.35815 0.11104 0.0
H1931 H 0.09536 0.3798 0.12613 0.0
H1932 H 0.07303 0.39259 0.11311 0.0
H1933 H 0.08264 0.39902 0.11073 0.0
H1934 H 0.07902 0.39776 0.12216 0.0
H1935 H 0.09154 0.39079 0.12923 0.0
H1936 H 0.09968 0.38914 0.12049 0.0
C1937 C 0.08832 0.35224 0.10135 0.0
C1938 C 0.07482 0.35881 0.09257 0.0
C1939 C 0.11185 0.40152 0.09322 0.0
C1940 C 0.11272 0.40833 0.09966 0.0
C1941 C 0.10686 0.40837 0.10705 0.0
C1942 C 0.10051 0.40152 0.10821 0.0
C1943 C 0.10004 0.39451 0.10194 0.0
C1944 C 0.10551 0.39471 0.0945 0.0
C1945 C 0.10407 0.38675 0.08851 0.0
C1946 C 0.09706 0.38156 0.09374 0.0
C1947 C 0.09475 0.38611 0.1016 0.0
C1948 C 0.11309 0.3816 0.08784 0.0
C1949 C 0.10032 0.39019 0.07948 0.0
C1950 C 0.07506 0.37785 0.12791 0.0
C1951 C 0.0699 0.37025 0.13006 0.0
C1952 C 0.06918 0.36326 0.12372 0.0
C1953 C 0.07375 0.36373 0.11552 0.0
C1954 C 0.07914 0.37125 0.11362 0.0
C1955 C 0.07959 0.3782 0.11974 0.0
C1956 C 0.08561 0.38567 0.1167 0.0
C1957 C 0.08871 0.38212 0.10775 0.0
C1958 C 0.08498 0.37362 0.10596 0.0
C1959 C 0.09345 0.3865 0.12347 0.0
C1960 C 0.07985 0.39426 0.11566 0.0
H1961 H 0.10306 0.37356 0.07454 0.0
H1962 H 0.08733 0.34519 0.08222 0.0
H1963 H 0.07331 0.36233 0.0862 0.0
H1964 H 0.07046 0.36206 0.09758 0.0
H1965 H 0.07276 0.35168 0.09179 0.0
H1966 H 0.09579 0.35194 0.10125 0.0
H1967 H 0.08572 0.34552 0.09941 0.0
H1968 H 0.0865 0.35353 0.10836 0.0
H1969 H 0.11613 0.40139 0.08738 0.0
H1970 H 0.10742 0.41352 0.11213 0.0
H1971 H 0.09638 0.40184 0.11406 0.0
H1972 H 0.11648 0.38136 0.09446 0.0
H1973 H 0.11773 0.38495 0.08309 0.0
H1974 H 0.11232 0.37453 0.08584 0.0
H1975 H 0.09665 0.39664 0.0803 0.0
H1976 H 0.09528 0.38557 0.07656 0.0
H1977 H 0.10579 0.39133 0.07458 0.0
H1978 H 0.10406 0.36098 0.0646 0.0
C1979 C 0.09955 0.36758 0.07644 0.0
C1980 C 0.90752 0.85953 0.42935 0.0
C1981 C 0.91137 0.85093 0.42925 0.0
C1982 C 0.91725 0.84866 0.42221 0.0
C1983 C 0.91508 0.86332 0.41547 0.0
C1984 C 0.90943 0.86555 0.42246 0.0
C1985 C 0.90543 0.87471 0.42145 0.0
H1986 H 0.89679 0.91045 0.39547 0.0
C1987 C 0.91523 0.87101 0.40918 0.0
C1988 C 0.90954 0.87766 0.41269 0.0
H1989 H 0.88631 0.90461 0.42172 0.0
H1990 H 0.89607 0.89176 0.42287 0.0
H1991 H 0.91699 0.90705 0.40076 0.0
H1992 H 0.89737 0.89029 0.38795 0.0
H1993 H 0.90745 0.8896 0.38185 0.0
H1994 H 0.90207 0.90029 0.38315 0.0
H1995 H 0.9153 0.90747 0.38892 0.0
H1996 H 0.92323 0.89979 0.39393 0.0
C1997 C 0.90873 0.88061 0.42932 0.0
C1998 C 0.89508 0.87362 0.42082 0.0
C1999 C 0.93261 0.86952 0.37975 0.0
C2000 C 0.93342 0.87565 0.37262 0.0
C2001 C 0.92957 0.88425 0.37352 0.0
C2002 C 0.9246 0.88655 0.38107 0.0
C2003 C 0.9234 0.88022 0.38788 0.0
C2004 C 0.92759 0.87197 0.38733 0.0
C2005 C 0.92568 0.86628 0.39546 0.0
C2006 C 0.91958 0.87245 0.40083 0.0
C2007 C 0.9182 0.88055 0.39624 0.0
C2008 C 0.93466 0.86456 0.40033 0.0
C2009 C 0.92077 0.85766 0.39238 0.0
C2010 C 0.89663 0.90638 0.40145 0.0
C2011 C 0.8907 0.90843 0.40845 0.0
C2012 C 0.89083 0.90315 0.41624 0.0
C2013 C 0.89646 0.89565 0.41686 0.0
C2014 C 0.90202 0.89341 0.40962 0.0
C2015 C 0.90227 0.89891 0.40222 0.0
C2016 C 0.90892 0.89573 0.39537 0.0
C2017 C 0.91223 0.88711 0.39967 0.0
C2018 C 0.90808 0.88575 0.40794 0.0
C2019 C 0.91649 0.90286 0.39462 0.0
C2020 C 0.90376 0.8939 0.38657 0.0
H2021 H 0.92365 0.85268 0.41017 0.0
H2022 H 0.90285 0.86147 0.43454 0.0
H2023 H 0.89326 0.86731 0.41727 0.0
H2024 H 0.8918 0.87896 0.41691 0.0
H2025 H 0.89199 0.87336 0.42756 0.0
H2026 H 0.91572 0.87882 0.43124 0.0
H2027 H 0.90441 0.87969 0.4353 0.0
H2028 H 0.90905 0.88782 0.42763 0.0
H2029 H 0.93552 0.86288 0.3793 0.0
H2030 H 0.9303 0.8892 0.36828 0.0
H2031 H 0.92171 0.89312 0.38119 0.0
H2032 H 0.93875 0.87081 0.40059 0.0
H2033 H 0.93866 0.85936 0.3968 0.0
H2034 H 0.93375 0.8625 0.40734 0.0
H2035 H 0.91591 0.8592 0.38697 0.0
H2036 H 0.91673 0.85454 0.39771 0.0
H2037 H 0.92561 0.85263 0.38977 0.0
H2038 H 0.9204 0.84211 0.42201 0.0
C2039 C 0.91915 0.85481 0.41535 0.0
C2040 C 0.40825 0.647 0.57537 0.0
C2041 C 0.41272 0.6553 0.57502 0.0
C2042 C 0.4193 0.65718 0.58158 0.0
C2043 C 0.41643 0.64283 0.58876 0.0
C2044 C 0.41025 0.64092 0.58216 0.0
C2045 C 0.40589 0.63194 0.58335 0.0
H2046 H 0.39763 0.59582 0.60887 0.0
C2047 C 0.41647 0.63519 0.59511 0.0
C2048 C 0.4103 0.62881 0.59189 0.0
H2049 H 0.38584 0.6029 0.58345 0.0
H2050 H 0.39574 0.61556 0.58228 0.0
H2051 H 0.41815 0.60006 0.6028 0.0
H2052 H 0.39813 0.61527 0.61684 0.0
H2053 H 0.40834 0.61713 0.62235 0.0
H2054 H 0.40389 0.60591 0.62172 0.0
H2055 H 0.41564 0.59807 0.61433 0.0
H2056 H 0.42393 0.60626 0.61093 0.0
C2057 C 0.40857 0.62594 0.57531 0.0
C2058 C 0.39564 0.63344 0.58449 0.0
C2059 C 0.43478 0.63613 0.62398 0.0
C2060 C 0.43563 0.63 0.63111 0.0
C2061 C 0.43106 0.62172 0.63059 0.0
C2062 C 0.42569 0.6196 0.62325 0.0
C2063 C 0.42473 0.62583 0.61631 0.0
C2064 C 0.42934 0.63387 0.61663 0.0
C2065 C 0.42757 0.63952 0.60845 0.0
C2066 C 0.42099 0.6336 0.60334 0.0
C2067 C 0.41935 0.62562 0.60806 0.0
C2068 C 0.43651 0.64068 0.60333 0.0
C2069 C 0.42324 0.64844 0.61149 0.0
C2070 C 0.3972 0.6001 0.60305 0.0
C2071 C 0.3909 0.59838 0.59627 0.0
C2072 C 0.39068 0.60402 0.58873 0.0
C2073 C 0.3964 0.61143 0.5881 0.0
C2074 C 0.40239 0.6133 0.59509 0.0
C2075 C 0.40289 0.60757 0.6023 0.0
C2076 C 0.40976 0.61058 0.60902 0.0
C2077 C 0.41307 0.61924 0.60479 0.0
C2078 C 0.40868 0.6208 0.59668 0.0
C2079 C 0.41726 0.60338 0.60939 0.0
C2080 C 0.40487 0.61227 0.618 0.0
H2081 H 0.42616 0.65285 0.59327 0.0
H2082 H 0.40305 0.6453 0.57061 0.0
H2083 H 0.39424 0.63994 0.58788 0.0
H2084 H 0.39239 0.62838 0.58879 0.0
H2085 H 0.39218 0.63355 0.57792 0.0
H2086 H 0.4155 0.62752 0.573 0.0
H2087 H 0.40397 0.62698 0.56958 0.0
H2088 H 0.40877 0.61872 0.57699 0.0
H2089 H 0.43827 0.64252 0.62412 0.0
H2090 H 0.43143 0.61692 0.636 0.0
H2091 H 0.42234 0.61323 0.62337 0.0
H2092 H 0.44034 0.63428 0.60326 0.0
H2093 H 0.44079 0.64588 0.60653 0.0
H2094 H 0.43552 0.64243 0.59625 0.0
H2095 H 0.41812 0.64719 0.61674 0.0
H2096 H 0.41965 0.65193 0.60609 0.0
H2097 H 0.42838 0.65306 0.61431 0.0
H2098 H 0.42302 0.66342 0.58144 0.0
C2099 C 0.42116 0.651 0.58844 0.0
C2100 C 0.59061 0.15321 0.92599 0.0
C2101 C 0.59667 0.15285 0.93321 0.0
C2102 C 0.60123 0.1448 0.93499 0.0
C2103 C 0.59456 0.1379 0.92199 0.0
C2104 C 0.5897 0.14563 0.92042 0.0
C2105 C 0.58407 0.14482 0.91205 0.0
H2106 H 0.57484 0.12119 0.87417 0.0
C2107 C 0.59285 0.13155 0.91464 0.0
C2108 C 0.58668 0.13549 0.90875 0.0
H2109 H 0.56378 0.14682 0.88201 0.0
H2110 H 0.57159 0.14593 0.89617 0.0
H2111 H 0.59421 0.12498 0.88021 0.0
H2112 H 0.57251 0.11171 0.89384 0.0
H2113 H 0.58227 0.10539 0.89576 0.0
H2114 H 0.57824 0.10681 0.88449 0.0
H2115 H 0.59076 0.11378 0.8774 0.0
H2116 H 0.59898 0.11595 0.88597 0.0
C2117 C 0.587 0.15227 0.9055 0.0
C2118 C 0.57407 0.14523 0.91477 0.0
C2119 C 0.61161 0.10323 0.91292 0.0
C2120 C 0.61251 0.09653 0.90638 0.0
C2121 C 0.60663 0.09654 0.89901 0.0
C2122 C 0.60019 0.10331 0.89799 0.0
C2123 C 0.59966 0.11021 0.90437 0.0
C2124 C 0.60519 0.10998 0.91177 0.0
C2125 C 0.60385 0.11795 0.91775 0.0
C2126 C 0.59674 0.1231 0.91264 0.0
C2127 C 0.5943 0.11855 0.90484 0.0
C2128 C 0.6129 0.12314 0.91829 0.0
C2129 C 0.60022 0.11449 0.92681 0.0
C2130 C 0.57411 0.12664 0.87891 0.0
C2131 C 0.56878 0.13414 0.8769 0.0
C2132 C 0.56784 0.14096 0.88339 0.0
C2133 C 0.57245 0.14047 0.89157 0.0
C2134 C 0.57809 0.1331 0.89329 0.0
C2135 C 0.57865 0.12626 0.88707 0.0
C2136 C 0.58485 0.11889 0.88995 0.0
C2137 C 0.58804 0.12245 0.89887 0.0
C2138 C 0.58413 0.13082 0.90083 0.0
C2139 C 0.59259 0.11826 0.88304 0.0
C2140 C 0.57925 0.11019 0.89102 0.0
H2141 H 0.60401 0.13149 0.93114 0.0
H2142 H 0.58699 0.15933 0.92451 0.0
H2143 H 0.57289 0.14135 0.921 0.0
H2144 H 0.56958 0.14219 0.90975 0.0
H2145 H 0.57195 0.15227 0.91601 0.0
H2146 H 0.59444 0.15287 0.90535 0.0
H2147 H 0.58422 0.15888 0.90755 0.0
H2148 H 0.58499 0.15093 0.89855 0.0
H2149 H 0.61608 0.10348 0.91862 0.0
H2150 H 0.60709 0.09137 0.89395 0.0
H2151 H 0.59603 0.10301 0.89216 0.0
H2152 H 0.61695 0.12221 0.91212 0.0
H2153 H 0.61703 0.12078 0.92399 0.0
H2154 H 0.61204 0.13049 0.91879 0.0
H2155 H 0.59564 0.10866 0.92583 0.0
H2156 H 0.59609 0.11952 0.93036 0.0
H2157 H 0.60577 0.11228 0.93123 0.0
H2158 H 0.60579 0.14433 0.94061 0.0
C2159 C 0.60018 0.13733 0.92948 0.0
C2160 C 0.09053 0.65417 0.42557 0.0
C2161 C 0.09637 0.65372 0.43295 0.0
C2162 C 0.10095 0.6457 0.43475 0.0
C2163 C 0.09458 0.6389 0.42153 0.0
C2164 C 0.08976 0.64665 0.41992 0.0
C2165 C 0.08434 0.64595 0.41142 0.0
H2166 H 0.07625 0.6232 0.3729 0.0
C2167 C 0.09307 0.63266 0.41404 0.0
C2168 C 0.08709 0.63671 0.40804 0.0
H2169 H 0.06402 0.64807 0.38158 0.0
H2170 H 0.07212 0.64721 0.39551 0.0
H2171 H 0.09521 0.62702 0.37916 0.0
H2172 H 0.07377 0.61307 0.39252 0.0
H2173 H 0.08364 0.60674 0.39387 0.0
H2174 H 0.07936 0.60877 0.3828 0.0
H2175 H 0.09236 0.61564 0.37643 0.0
H2176 H 0.10027 0.61832 0.38517 0.0
C2177 C 0.08738 0.65354 0.40505 0.0
C2178 C 0.07428 0.64626 0.41393 0.0
C2179 C 0.11143 0.60407 0.41263 0.0
C2180 C 0.11287 0.59766 0.40587 0.0
C2181 C 0.10763 0.59816 0.39803 0.0
C2182 C 0.1013 0.60501 0.39686 0.0
C2183 C 0.10027 0.61158 0.40352 0.0
C2184 C 0.10525 0.61099 0.41126 0.0
C2185 C 0.10373 0.61883 0.41736 0.0
C2186 C 0.09702 0.62425 0.412 0.0
C2187 C 0.09495 0.61993 0.40395 0.0
C2188 C 0.11282 0.62384 0.4186 0.0
C2189 C 0.09949 0.61524 0.4261 0.0
C2190 C 0.07514 0.62841 0.37782 0.0
C2191 C 0.06948 0.63575 0.37601 0.0
C2192 C 0.06846 0.64242 0.38265 0.0
C2193 C 0.07313 0.6419 0.39078 0.0
C2194 C 0.07891 0.63462 0.39236 0.0
C2195 C 0.07967 0.62795 0.38598 0.0
C2196 C 0.08594 0.6206 0.38879 0.0
C2197 C 0.08888 0.62395 0.39787 0.0
C2198 C 0.08483 0.63223 0.39994 0.0
C2199 C 0.09385 0.62028 0.38205 0.0
C2200 C 0.08047 0.61178 0.38949 0.0
H2201 H 0.10381 0.63241 0.43085 0.0
H2202 H 0.08694 0.6603 0.42408 0.0
H2203 H 0.07302 0.64253 0.42023 0.0
H2204 H 0.06995 0.64298 0.40891 0.0
H2205 H 0.072 0.65329 0.41493 0.0
H2206 H 0.09483 0.65412 0.40503 0.0
H2207 H 0.08458 0.66011 0.40718 0.0
H2208 H 0.08547 0.65234 0.39805 0.0
H2209 H 0.11519 0.60389 0.41881 0.0
H2210 H 0.10862 0.59345 0.39261 0.0
H2211 H 0.09765 0.60507 0.39069 0.0
H2212 H 0.11756 0.62242 0.41304 0.0
H2213 H 0.11618 0.62182 0.4249 0.0
H2214 H 0.11208 0.63123 0.4185 0.0
H2215 H 0.09441 0.60996 0.42462 0.0
H2216 H 0.09582 0.62045 0.42987 0.0
H2217 H 0.10468 0.61222 0.43049 0.0
H2218 H 0.10542 0.64525 0.44045 0.0
C2219 C 0.10003 0.63827 0.42915 0.0
C2220 C 0.59203 0.85217 0.58019 0.0
C2221 C 0.59723 0.85315 0.57236 0.0
C2222 C 0.60055 0.86174 0.57016 0.0
C2223 C 0.59483 0.86779 0.58399 0.0
C2224 C 0.59087 0.85962 0.58588 0.0
C2225 C 0.58565 0.85998 0.59453 0.0
H2226 H 0.57621 0.88303 0.63271 0.0
C2227 C 0.59323 0.87391 0.59154 0.0
C2228 C 0.58773 0.86948 0.59775 0.0
H2229 H 0.56628 0.85683 0.62511 0.0
H2230 H 0.57389 0.85803 0.61088 0.0
H2231 H 0.59543 0.88001 0.62669 0.0
H2232 H 0.57339 0.89255 0.61305 0.0
H2233 H 0.58293 0.89938 0.61161 0.0
H2234 H 0.57877 0.89726 0.62271 0.0
H2235 H 0.59228 0.8914 0.62895 0.0
H2236 H 0.60022 0.88858 0.62028 0.0
C2237 C 0.58944 0.85278 0.60091 0.0
C2238 C 0.57558 0.8588 0.59232 0.0
C2239 C 0.61121 0.90277 0.5932 0.0
C2240 C 0.61244 0.9092 0.59997 0.0
C2241 C 0.60697 0.90875 0.60765 0.0
C2242 C 0.60067 0.90183 0.6087 0.0
C2243 C 0.5999 0.89518 0.60208 0.0
C2244 C 0.60503 0.89582 0.59443 0.0
C2245 C 0.60357 0.88802 0.58824 0.0
C2246 C 0.59688 0.88248 0.59353 0.0
C2247 C 0.59474 0.88671 0.6016 0.0
C2248 C 0.61272 0.88317 0.58711 0.0
C2249 C 0.59943 0.89164 0.57945 0.0
C2250 C 0.57566 0.87752 0.62801 0.0
C2251 C 0.57068 0.86979 0.63011 0.0
C2252 C 0.57003 0.86289 0.62367 0.0
C2253 C 0.57451 0.86357 0.61542 0.0
C2254 C 0.57971 0.87124 0.61358 0.0
C2255 C 0.58008 0.87809 0.61979 0.0
C2256 C 0.58594 0.88573 0.61684 0.0
C2257 C 0.58896 0.88242 0.60778 0.0
C2258 C 0.58538 0.87388 0.60587 0.0
C2259 C 0.59386 0.88657 0.62352 0.0
C2260 C 0.58002 0.89423 0.61605 0.0
H2261 H 0.60227 0.87528 0.57389 0.0
H2262 H 0.58919 0.84573 0.58199 0.0
H2263 H 0.57384 0.86236 0.58603 0.0
H2264 H 0.57114 0.86175 0.59743 0.0
H2265 H 0.57386 0.8516 0.59143 0.0
H2266 H 0.59691 0.85293 0.60086 0.0
H2267 H 0.58726 0.84595 0.59883 0.0
H2268 H 0.58746 0.85383 0.60791 0.0
H2269 H 0.61515 0.903 0.58712 0.0
H2270 H 0.60779 0.91353 0.61304 0.0
H2271 H 0.59684 0.90178 0.61476 0.0
H2272 H 0.61628 0.88273 0.59362 0.0
H2273 H 0.61713 0.88686 0.5824 0.0
H2274 H 0.61212 0.87617 0.58481 0.0
H2275 H 0.59573 0.89803 0.58056 0.0
H2276 H 0.59434 0.88702 0.57661 0.0
H2277 H 0.6047 0.89296 0.57437 0.0
H2278 H 0.6042 0.86284 0.56401 0.0
C2279 C 0.59938 0.86902 0.5759 0.0
C2280 C 0.4314 0.38011 0.87715 0.0
C2281 C 0.43684 0.37261 0.87536 0.0
C2282 C 0.43753 0.36585 0.88194 0.0
C2283 C 0.42719 0.37392 0.89156 0.0
C2284 C 0.42674 0.38065 0.88523 0.0
C2285 C 0.42061 0.38815 0.88798 0.0
H2286 H 0.38909 0.40394 0.91609 0.0
C2287 C 0.42123 0.37645 0.89907 0.0
C2288 C 0.41744 0.38484 0.89699 0.0
H2289 H 0.39868 0.41596 0.89158 0.0
H2290 H 0.40973 0.40429 0.89009 0.0
H2291 H 0.3896 0.38373 0.90973 0.0
H2292 H 0.40839 0.40027 0.92396 0.0
H2293 H 0.41044 0.38934 0.9278 0.0
H2294 H 0.39958 0.39443 0.92969 0.0
H2295 H 0.38784 0.38797 0.92083 0.0
H2296 H 0.39353 0.37755 0.91892 0.0
C2297 C 0.41286 0.38866 0.88109 0.0
C2298 C 0.42628 0.39684 0.88883 0.0
C2299 C 0.41453 0.35462 0.92457 0.0
C2300 C 0.409 0.3554 0.93219 0.0
C2301 C 0.40519 0.36383 0.93419 0.0
C2302 C 0.40622 0.3711 0.92844 0.0
C2303 C 0.41114 0.37004 0.92055 0.0
C2304 C 0.41556 0.36207 0.91887 0.0
C2305 C 0.42107 0.36261 0.91042 0.0
C2306 C 0.41872 0.37199 0.9071 0.0
C2307 C 0.41279 0.3762 0.91305 0.0
C2308 C 0.41779 0.35521 0.90396 0.0
C2309 C 0.43109 0.36188 0.913 0.0
C2310 C 0.39365 0.40419 0.91047 0.0
C2311 C 0.39284 0.41083 0.90386 0.0
C2312 C 0.39895 0.41079 0.89665 0.0
C2313 C 0.40542 0.40403 0.89582 0.0
C2314 C 0.40584 0.3972 0.90226 0.0
C2315 C 0.40018 0.39751 0.90955 0.0
C2316 C 0.40166 0.38978 0.91581 0.0
C2317 C 0.40889 0.38459 0.91088 0.0
C2318 C 0.41127 0.38893 0.90294 0.0
C2319 C 0.39272 0.38446 0.91645 0.0
C2320 C 0.40514 0.39359 0.92481 0.0
H2321 H 0.43348 0.36107 0.89468 0.0
H2322 H 0.43053 0.38539 0.87226 0.0
H2323 H 0.4331 0.39533 0.89148 0.0
H2324 H 0.42342 0.40169 0.89363 0.0
H2325 H 0.42713 0.40015 0.88225 0.0
H2326 H 0.411 0.38185 0.87864 0.0
H2327 H 0.41482 0.39275 0.87521 0.0
H2328 H 0.40658 0.39137 0.8839 0.0
H2329 H 0.41773 0.34832 0.92292 0.0
H2330 H 0.40126 0.36479 0.9402 0.0
H2331 H 0.40294 0.37722 0.93029 0.0
H2332 H 0.41032 0.35502 0.90376 0.0
H2333 H 0.42019 0.3485 0.90613 0.0
H2334 H 0.41995 0.3563 0.89701 0.0
H2335 H 0.43243 0.36537 0.91944 0.0
H2336 H 0.43558 0.36517 0.90814 0.0
H2337 H 0.43313 0.35475 0.91379 0.0
H2338 H 0.4418 0.36007 0.88088 0.0
C2339 C 0.43274 0.36646 0.89 0.0
C2340 C 0.90937 0.14613 0.07412 0.0
C2341 C 0.91258 0.15499 0.07449 0.0
C2342 C 0.91824 0.15746 0.08167 0.0
C2343 C 0.91659 0.14263 0.08824 0.0
C2344 C 0.9113 0.14019 0.08106 0.0
C2345 C 0.90741 0.13097 0.08202 0.0
H2346 H 0.89659 0.09653 0.10862 0.0
C2347 C 0.91661 0.13503 0.09464 0.0
C2348 C 0.9111 0.12827 0.09102 0.0
H2349 H 0.88778 0.10182 0.0816 0.0
H2350 H 0.89807 0.11416 0.08058 0.0
H2351 H 0.91741 0.09894 0.10382 0.0
H2352 H 0.89801 0.11658 0.11567 0.0
H2353 H 0.90795 0.11696 0.12207 0.0
H2354 H 0.90216 0.10648 0.12075 0.0
H2355 H 0.91546 0.09893 0.11562 0.0
H2356 H 0.92369 0.10627 0.11055 0.0
C2357 C 0.91131 0.12502 0.07447 0.0
C2358 C 0.89699 0.13179 0.08201 0.0
C2359 C 0.93388 0.13655 0.12412 0.0
C2360 C 0.93489 0.13033 0.13115 0.0
C2361 C 0.93055 0.12194 0.1305 0.0
C2362 C 0.92528 0.11977 0.12311 0.0
C2363 C 0.92421 0.12605 0.11624 0.0
C2364 C 0.92859 0.13422 0.11668 0.0
C2365 C 0.92676 0.13989 0.10853 0.0
C2366 C 0.92067 0.13371 0.10315 0.0
C2367 C 0.9191 0.12569 0.10783 0.0
C2368 C 0.93576 0.14163 0.1037 0.0
C2369 C 0.92186 0.14851 0.11157 0.0
C2370 C 0.89695 0.10027 0.10244 0.0
C2371 C 0.8911 0.09836 0.0953 0.0
C2372 C 0.89194 0.10334 0.08734 0.0
C2373 C 0.89797 0.11049 0.08673 0.0
C2374 C 0.90328 0.11273 0.09413 0.0
C2375 C 0.90302 0.10744 0.10168 0.0
C2376 C 0.90955 0.11062 0.10868 0.0
C2377 C 0.91321 0.11908 0.10431 0.0
C2378 C 0.90943 0.12029 0.09586 0.0
C2379 C 0.9169 0.10333 0.10981 0.0
C2380 C 0.90421 0.11275 0.11729 0.0
H2381 H 0.92452 0.15363 0.09384 0.0
H2382 H 0.90518 0.14387 0.06866 0.0
H2383 H 0.89476 0.1386 0.0841 0.0
H2384 H 0.89371 0.12727 0.08686 0.0
H2385 H 0.89417 0.13051 0.07527 0.0
H2386 H 0.91851 0.12663 0.07329 0.0
H2387 H 0.90766 0.1261 0.0681 0.0
H2388 H 0.91121 0.11779 0.07611 0.0
H2389 H 0.93717 0.14304 0.12438 0.0
H2390 H 0.93108 0.11707 0.13584 0.0
H2391 H 0.9221 0.11331 0.12312 0.0
H2392 H 0.93971 0.13531 0.10319 0.0
H2393 H 0.93987 0.14662 0.10739 0.0
H2394 H 0.93486 0.144 0.09678 0.0
H2395 H 0.91709 0.14702 0.11709 0.0
H2396 H 0.91768 0.15149 0.10626 0.0
H2397 H 0.92671 0.15363 0.11401 0.0
H2398 H 0.92082 0.16424 0.08218 0.0
C2399 C 0.9203 0.15132 0.08851 0.0
C2400 C 0.09206 0.11053 0.40268 0.0
C2401 C 0.09847 0.11098 0.40956 0.0
C2402 C 0.10554 0.10469 0.40964 0.0
C2403 C 0.10033 0.09841 0.39566 0.0
C2404 C 0.0931 0.10419 0.39586 0.0
C2405 C 0.08711 0.10308 0.38786 0.0
H2406 H 0.0816 0.08845 0.34576 0.0
C2407 C 0.09995 0.09334 0.3872 0.0
C2408 C 0.0922 0.09599 0.38262 0.0
H2409 H 0.06348 0.10423 0.36202 0.0
H2410 H 0.07303 0.10225 0.37469 0.0
H2411 H 0.10024 0.09607 0.35328 0.0
H2412 H 0.08489 0.07315 0.3623 0.0
H2413 H 0.09633 0.07026 0.36189 0.0
H2414 H 0.09056 0.0732 0.35172 0.0
H2415 H 0.09876 0.08622 0.3465 0.0
H2416 H 0.10746 0.08685 0.35481 0.0
C2417 C 0.08679 0.1122 0.38289 0.0
C2418 C 0.07786 0.09958 0.39111 0.0
C2419 C 0.12641 0.07396 0.37862 0.0
C2420 C 0.12886 0.06944 0.37076 0.0
C2421 C 0.12266 0.06908 0.36364 0.0
C2422 C 0.11433 0.07347 0.36422 0.0
C2423 C 0.11219 0.07833 0.37199 0.0
C2424 C 0.11815 0.07837 0.37906 0.0
C2425 C 0.11498 0.08401 0.38671 0.0
C2426 C 0.10611 0.08738 0.38312 0.0
C2427 C 0.10447 0.08407 0.37448 0.0
C2428 C 0.12188 0.09171 0.38814 0.0
C2429 C 0.11361 0.0778 0.39489 0.0
C2430 C 0.07967 0.09142 0.35207 0.0
C2431 C 0.07193 0.09683 0.35275 0.0
C2432 C 0.06959 0.10038 0.36116 0.0
C2433 C 0.07512 0.09917 0.36857 0.0
C2434 C 0.08312 0.09434 0.36765 0.0
C2435 C 0.08513 0.09022 0.35964 0.0
C2436 C 0.0937 0.08484 0.36025 0.0
C2437 C 0.09662 0.08679 0.3698 0.0
C2438 C 0.09042 0.09251 0.37399 0.0
C2439 C 0.10043 0.08861 0.35333 0.0
C2440 C 0.09133 0.07482 0.35891 0.0
H2441 H 0.11215 0.09398 0.4031 0.0
H2442 H 0.08653 0.11523 0.40238 0.0
H2443 H 0.07836 0.0962 0.39771 0.0
H2444 H 0.07504 0.09438 0.38661 0.0
H2445 H 0.07295 0.10515 0.39182 0.0
H2446 H 0.09363 0.11517 0.3824 0.0
H2447 H 0.08245 0.11706 0.38649 0.0
H2448 H 0.08437 0.11168 0.37597 0.0
H2449 H 0.1309 0.07425 0.38429 0.0
H2450 H 0.12437 0.06567 0.35748 0.0
H2451 H 0.10997 0.0731 0.35853 0.0
H2452 H 0.12515 0.09364 0.38174 0.0
H2453 H 0.12726 0.08966 0.39283 0.0
H2454 H 0.1188 0.09799 0.39055 0.0
H2455 H 0.11086 0.07117 0.3928 0.0
H2456 H 0.10866 0.08045 0.39971 0.0
H2457 H 0.12006 0.07657 0.39839 0.0
H2458 H 0.11044 0.10469 0.41498 0.0
C2459 C 0.1065 0.09843 0.40274 0.0
C2460 C 0.15378 0.92685 0.59137 0.0
C2461 C 0.15304 0.93481 0.59642 0.0
C2462 C 0.14481 0.93684 0.60058 0.0
C2463 C 0.13848 0.92285 0.59533 0.0
C2464 C 0.14635 0.92102 0.59082 0.0
C2465 C 0.14574 0.91229 0.5857 0.0
H2466 H 0.12229 0.87391 0.57738 0.0
C2467 C 0.13233 0.9152 0.59412 0.0
C2468 C 0.13645 0.90898 0.58839 0.0
H2469 H 0.14804 0.88157 0.5664 0.0
H2470 H 0.1472 0.89583 0.57408 0.0
H2471 H 0.12638 0.87967 0.59637 0.0
H2472 H 0.11265 0.89374 0.57539 0.0
H2473 H 0.10632 0.89489 0.58525 0.0
H2474 H 0.10833 0.88385 0.58075 0.0
H2475 H 0.11477 0.87758 0.59397 0.0
H2476 H 0.11824 0.88621 0.60172 0.0
C2477 C 0.15326 0.90599 0.58902 0.0
C2478 C 0.14622 0.91449 0.57562 0.0
C2479 C 0.10428 0.91363 0.6132 0.0
C2480 C 0.09795 0.9068 0.61477 0.0
C2481 C 0.09826 0.89897 0.60945 0.0
C2482 C 0.10491 0.89786 0.60294 0.0
C2483 C 0.11144 0.90457 0.60178 0.0
C2484 C 0.11097 0.91233 0.60679 0.0
C2485 C 0.11867 0.91858 0.60494 0.0
C2486 C 0.12396 0.91318 0.59816 0.0
C2487 C 0.11966 0.90503 0.59627 0.0
C2488 C 0.1239 0.91995 0.6138 0.0
C2489 C 0.11481 0.92728 0.60078 0.0
C2490 C 0.1278 0.8786 0.57664 0.0
C2491 C 0.13527 0.87651 0.5713 0.0
C2492 C 0.14216 0.88299 0.57041 0.0
C2493 C 0.1417 0.89125 0.57494 0.0
C2494 C 0.13431 0.89308 0.58048 0.0
C2495 C 0.12748 0.88682 0.58115 0.0
C2496 C 0.12017 0.88974 0.58739 0.0
C2497 C 0.12364 0.89883 0.59029 0.0
C2498 C 0.13196 0.90079 0.58629 0.0
C2499 C 0.11977 0.88296 0.59526 0.0
C2500 C 0.11135 0.89056 0.58199 0.0
H2501 H 0.13157 0.93282 0.60354 0.0
H2502 H 0.15998 0.9252 0.58797 0.0
H2503 H 0.14245 0.92075 0.57411 0.0
H2504 H 0.14308 0.90927 0.57142 0.0
H2505 H 0.15328 0.9155 0.57345 0.0
H2506 H 0.15371 0.90619 0.59643 0.0
H2507 H 0.15988 0.90806 0.58629 0.0
H2508 H 0.15209 0.89889 0.58729 0.0
H2509 H 0.10418 0.91981 0.61701 0.0
H2510 H 0.09357 0.89352 0.61053 0.0
H2511 H 0.10484 0.8917 0.59922 0.0
H2512 H 0.12382 0.91373 0.6179 0.0
H2513 H 0.12087 0.9254 0.61787 0.0
H2514 H 0.1311 0.92141 0.61283 0.0
H2515 H 0.10875 0.92581 0.59667 0.0
H2516 H 0.11953 0.93054 0.59609 0.0
H2517 H 0.11282 0.93216 0.60602 0.0
H2518 H 0.14407 0.94288 0.60454 0.0
C2519 C 0.13755 0.93094 0.60004 0.0
C2520 C 0.4268 0.91394 0.85158 0.0
C2521 C 0.4347 0.90878 0.85234 0.0
C2522 C 0.43671 0.90466 0.86055 0.0
C2523 C 0.42285 0.91022 0.86686 0.0
C2524 C 0.42104 0.91468 0.85899 0.0
C2525 C 0.41245 0.92002 0.8596 0.0
H2526 H 0.37475 0.92992 0.88334 0.0
C2527 C 0.41533 0.91175 0.87306 0.0
C2528 C 0.40922 0.9176 0.86894 0.0
H2529 H 0.38199 0.9398 0.85716 0.0
H2530 H 0.39614 0.93192 0.85802 0.0
H2531 H 0.38022 0.91042 0.87964 0.0
H2532 H 0.39444 0.93202 0.8924 0.0
H2533 H 0.39623 0.92234 0.89885 0.0
H2534 H 0.38495 0.92648 0.89734 0.0
H2535 H 0.37795 0.91364 0.89095 0.0
H2536 H 0.38643 0.90544 0.88821 0.0
C2537 C 0.40596 0.91662 0.85228 0.0
C2538 C 0.41485 0.9301 0.85886 0.0
C2539 C 0.41342 0.89308 0.90132 0.0
C2540 C 0.40672 0.89217 0.90787 0.0
C2541 C 0.3993 0.89803 0.90773 0.0
C2542 C 0.39837 0.90444 0.90097 0.0
C2543 C 0.40488 0.90497 0.89422 0.0
C2544 C 0.41234 0.89948 0.89456 0.0
C2545 C 0.41849 0.90092 0.88675 0.0
C2546 C 0.41334 0.90794 0.88151 0.0
C2547 C 0.4054 0.91029 0.88592 0.0
C2548 C 0.41923 0.8919 0.88163 0.0
C2549 C 0.42753 0.90466 0.89033 0.0
C2550 C 0.37931 0.93038 0.87773 0.0
C2551 C 0.37713 0.93546 0.87014 0.0
C2552 C 0.38347 0.93599 0.86314 0.0
C2553 C 0.39167 0.93134 0.8636 0.0
C2554 C 0.39357 0.92602 0.87112 0.0
C2555 C 0.38745 0.92571 0.87804 0.0
C2556 C 0.39037 0.91962 0.88544 0.0
C2557 C 0.39931 0.91638 0.88191 0.0
C2558 C 0.40119 0.92008 0.87349 0.0
C2559 C 0.3834 0.91189 0.8862 0.0
C2560 C 0.39151 0.92534 0.89401 0.0
H2561 H 0.43273 0.90192 0.87378 0.0
H2562 H 0.42517 0.91731 0.84539 0.0
H2563 H 0.42114 0.93161 0.86258 0.0
H2564 H 0.40972 0.93451 0.86185 0.0
H2565 H 0.41591 0.93206 0.85179 0.0
H2566 H 0.40605 0.90916 0.85195 0.0
H2567 H 0.40794 0.91923 0.84563 0.0
H2568 H 0.39891 0.91845 0.85355 0.0
H2569 H 0.41917 0.88865 0.90121 0.0
H2570 H 0.39414 0.89758 0.9128 0.0
H2571 H 0.39249 0.90859 0.90118 0.0
H2572 H 0.41259 0.88849 0.8813 0.0
H2573 H 0.42399 0.88727 0.885 0.0
H2574 H 0.42132 0.89266 0.87462 0.0
H2575 H 0.42658 0.90843 0.89667 0.0
H2576 H 0.43062 0.9096 0.88574 0.0
H2577 H 0.43238 0.89917 0.89165 0.0
H2578 H 0.44271 0.90064 0.86129 0.0
C2579 C 0.43086 0.90537 0.86779 0.0
C2580 C 0.368 0.1266 0.07287 0.0
C2581 C 0.37429 0.13362 0.0718 0.0
C2582 C 0.38268 0.13295 0.0761 0.0
C2583 C 0.37839 0.11873 0.08261 0.0
C2584 C 0.37023 0.11919 0.07825 0.0
C2585 C 0.36443 0.11111 0.08023 0.0
H2586 H 0.35894 0.07224 0.10348 0.0
C2587 C 0.37854 0.11044 0.08797 0.0
C2588 C 0.37041 0.10585 0.08657 0.0
H2589 H 0.33994 0.08463 0.08552 0.0
H2590 H 0.35062 0.09649 0.08235 0.0
H2591 H 0.37675 0.07562 0.09081 0.0
H2592 H 0.36449 0.0892 0.11299 0.0
H2593 H 0.37606 0.09057 0.11445 0.0
H2594 H 0.37133 0.07942 0.11449 0.0
H2595 H 0.37689 0.0713 0.10199 0.0
H2596 H 0.38545 0.07891 0.09804 0.0
C2597 C 0.36284 0.10598 0.0714 0.0
C2598 C 0.35573 0.1144 0.08483 0.0
C2599 C 0.40445 0.10504 0.10931 0.0
C2600 C 0.40625 0.0982 0.11551 0.0
C2601 C 0.40058 0.09062 0.11579 0.0
C2602 C 0.39304 0.09003 0.11025 0.0
C2603 C 0.3911 0.09711 0.10438 0.0
C2604 C 0.39688 0.10435 0.10382 0.0
C2605 C 0.3938 0.11116 0.09709 0.0
C2606 C 0.38502 0.107 0.094 0.0
C2607 C 0.38347 0.09882 0.09832 0.0
C2608 C 0.40084 0.1115 0.08947 0.0
C2609 C 0.39233 0.12018 0.10204 0.0
C2610 C 0.35711 0.0774 0.09873 0.0
C2611 C 0.34858 0.07745 0.09474 0.0
C2612 C 0.34643 0.08446 0.08877 0.0
C2613 C 0.35265 0.09133 0.08692 0.0
C2614 C 0.36109 0.09125 0.09113 0.0
C2615 C 0.36319 0.0843 0.09686 0.0
C2616 C 0.37229 0.08535 0.101 0.0
C2617 C 0.37535 0.09409 0.09685 0.0
C2618 C 0.36882 0.09755 0.09103 0.0
C2619 C 0.37819 0.07737 0.09789 0.0
C2620 C 0.37107 0.08612 0.11127 0.0
H2621 H 0.39122 0.12557 0.08458 0.0
H2622 H 0.36153 0.12686 0.06961 0.0
H2623 H 0.35723 0.11998 0.08955 0.0
H2624 H 0.35249 0.10918 0.08893 0.0
H2625 H 0.35083 0.11692 0.07984 0.0
H2626 H 0.36918 0.10555 0.06748 0.0
H2627 H 0.35777 0.10945 0.06721 0.0
H2628 H 0.36069 0.09897 0.07244 0.0
H2629 H 0.40877 0.11088 0.10884 0.0
H2630 H 0.40177 0.08528 0.12054 0.0
H2631 H 0.3889 0.08418 0.11093 0.0
H2632 H 0.40428 0.10492 0.08865 0.0
H2633 H 0.4061 0.11662 0.09085 0.0
H2634 H 0.39779 0.11283 0.08288 0.0
H2635 H 0.38927 0.11902 0.10872 0.0
H2636 H 0.38762 0.12471 0.09861 0.0
H2637 H 0.39879 0.12377 0.10307 0.0
H2638 H 0.3876 0.13828 0.07554 0.0
C2639 C 0.38476 0.12556 0.08144 0.0
C2640 C 0.0924 0.89442 0.10256 0.0
C2641 C 0.0993 0.8932 0.09629 0.0
C2642 C 0.10691 0.89882 0.09662 0.0
C2643 C 0.10108 0.90614 0.10983 0.0
C2644 C 0.09347 0.90086 0.10929 0.0
C2645 C 0.08718 0.90245 0.11696 0.0
H2646 H 0.07975 0.91943 0.15799 0.0
C2647 C 0.10049 0.91151 0.1181 0.0
C2648 C 0.09241 0.90934 0.12234 0.0
H2649 H 0.06295 0.90181 0.14216 0.0
H2650 H 0.07309 0.90306 0.12988 0.0
H2651 H 0.09904 0.91105 0.15208 0.0
H2652 H 0.08446 0.93333 0.14053 0.0
H2653 H 0.09587 0.93618 0.14179 0.0
H2654 H 0.08917 0.93394 0.15156 0.0
H2655 H 0.09697 0.92122 0.1582 0.0
H2656 H 0.10623 0.92034 0.15057 0.0
C2657 C 0.08601 0.89344 0.12205 0.0
C2658 C 0.07839 0.90647 0.11316 0.0
C2659 C 0.12682 0.93111 0.12677 0.0
C2660 C 0.12888 0.93632 0.1343 0.0
C2661 C 0.12232 0.93727 0.14105 0.0
C2662 C 0.11401 0.93279 0.14043 0.0
C2663 C 0.11223 0.9273 0.13299 0.0
C2664 C 0.11856 0.92669 0.12626 0.0
C2665 C 0.11568 0.92058 0.11884 0.0
C2666 C 0.10659 0.91755 0.12219 0.0
C2667 C 0.10454 0.92145 0.1305 0.0
C2668 C 0.12249 0.9127 0.11826 0.0
C2669 C 0.11484 0.92624 0.11022 0.0
C2670 C 0.0783 0.91585 0.15186 0.0
C2671 C 0.0705 0.91049 0.15109 0.0
C2672 C 0.06879 0.90607 0.14295 0.0
C2673 C 0.07476 0.90674 0.1358 0.0
C2674 C 0.08263 0.91181 0.13676 0.0
C2675 C 0.08423 0.91647 0.14457 0.0
C2676 C 0.09289 0.92176 0.14409 0.0
C2677 C 0.09636 0.91913 0.13489 0.0
C2678 C 0.0903 0.91324 0.13071 0.0
C2679 C 0.09915 0.9185 0.15165 0.0
C2680 C 0.09055 0.93186 0.14457 0.0
H2681 H 0.11384 0.90925 0.10328 0.0
H2682 H 0.08651 0.89014 0.10253 0.0
H2683 H 0.07981 0.91096 0.10739 0.0
H2684 H 0.07483 0.9108 0.11801 0.0
H2685 H 0.07377 0.90111 0.1108 0.0
H2686 H 0.09218 0.88925 0.12158 0.0
H2687 H 0.08037 0.88944 0.11925 0.0
H2688 H 0.08497 0.89431 0.12929 0.0
H2689 H 0.13161 0.93036 0.12137 0.0
H2690 H 0.12372 0.94124 0.14694 0.0
H2691 H 0.10936 0.93364 0.14583 0.0
H2692 H 0.12583 0.91148 0.12479 0.0
H2693 H 0.12784 0.91412 0.1133 0.0
H2694 H 0.11927 0.90622 0.11662 0.0
H2695 H 0.11177 0.93289 0.1117 0.0
H2696 H 0.1104 0.92315 0.10518 0.0
H2697 H 0.12153 0.92747 0.10719 0.0
H2698 H 0.11224 0.89808 0.09176 0.0
C2699 C 0.10781 0.9053 0.10332 0.0
C2700 C 0.37055 0.88065 0.4349 0.0
C2701 C 0.37638 0.87327 0.43584 0.0
C2702 C 0.38464 0.87334 0.43124 0.0
C2703 C 0.38102 0.88769 0.42463 0.0
C2704 C 0.37304 0.88782 0.42933 0.0
C2705 C 0.36774 0.89625 0.42754 0.0
H2706 H 0.36318 0.93421 0.40294 0.0
C2707 C 0.38151 0.8959 0.41916 0.0
C2708 C 0.37379 0.90103 0.42089 0.0
H2709 H 0.34498 0.92428 0.42318 0.0
H2710 H 0.35507 0.91196 0.42621 0.0
H2711 H 0.38054 0.93186 0.41464 0.0
H2712 H 0.3681 0.91568 0.39437 0.0
H2713 H 0.37965 0.91584 0.39209 0.0
H2714 H 0.37352 0.92622 0.39216 0.0
H2715 H 0.38211 0.93418 0.403 0.0
H2716 H 0.38944 0.92665 0.40901 0.0
C2717 C 0.36692 0.90155 0.43638 0.0
C2718 C 0.35864 0.89351 0.42337 0.0
C2719 C 0.40654 0.89946 0.39633 0.0
C2720 C 0.40865 0.90638 0.39032 0.0
C2721 C 0.40366 0.91439 0.3905 0.0
C2722 C 0.39639 0.91535 0.39631 0.0
C2723 C 0.39409 0.90825 0.40203 0.0
C2724 C 0.39931 0.9006 0.40221 0.0
C2725 C 0.39614 0.89403 0.40916 0.0
C2726 C 0.38789 0.89882 0.41276 0.0
C2727 C 0.38669 0.90706 0.40844 0.0
C2728 C 0.40359 0.89315 0.41634 0.0
C2729 C 0.39368 0.88514 0.40437 0.0
C2730 C 0.36136 0.92953 0.40816 0.0
C2731 C 0.35319 0.93029 0.41277 0.0
C2732 C 0.35113 0.92382 0.41937 0.0
C2733 C 0.35703 0.91668 0.42116 0.0
C2734 C 0.3651 0.91598 0.41634 0.0
C2735 C 0.36718 0.92246 0.41009 0.0
C2736 C 0.37605 0.92088 0.40568 0.0
C2737 C 0.37892 0.91225 0.41013 0.0
C2738 C 0.3725 0.90932 0.41635 0.0
C2739 C 0.38239 0.9288 0.40811 0.0
C2740 C 0.37434 0.91964 0.39554 0.0
H2741 H 0.3933 0.88004 0.42229 0.0
H2742 H 0.3642 0.88084 0.43843 0.0
H2743 H 0.35959 0.88807 0.41837 0.0
H2744 H 0.35536 0.89902 0.41971 0.0
H2745 H 0.35394 0.891 0.42857 0.0
H2746 H 0.37333 0.90129 0.44018 0.0
H2747 H 0.36156 0.89869 0.44068 0.0
H2748 H 0.3656 0.90876 0.43534 0.0
H2749 H 0.4104 0.89331 0.39642 0.0
H2750 H 0.40519 0.91979 0.3859 0.0
H2751 H 0.39272 0.92153 0.39595 0.0
H2752 H 0.4078 0.89931 0.41671 0.0
H2753 H 0.40812 0.88742 0.41486 0.0
H2754 H 0.40083 0.89239 0.42316 0.0
H2755 H 0.38988 0.88652 0.39813 0.0
H2756 H 0.38928 0.88074 0.40836 0.0
H2757 H 0.39981 0.88133 0.40254 0.0
H2758 H 0.38921 0.86772 0.43174 0.0
C2759 C 0.38698 0.88049 0.42568 0.0
C2760 C 0.42685 0.09349 0.65335 0.0
C2761 C 0.43443 0.09915 0.65255 0.0
C2762 C 0.43643 0.10288 0.64414 0.0
C2763 C 0.42289 0.09654 0.63792 0.0
C2764 C 0.42119 0.09224 0.64591 0.0
C2765 C 0.41274 0.08662 0.64539 0.0
H2766 H 0.37481 0.07607 0.62213 0.0
C2767 C 0.41543 0.09465 0.63175 0.0
C2768 C 0.40945 0.08872 0.63598 0.0
H2769 H 0.38256 0.06613 0.64809 0.0
H2770 H 0.3967 0.07414 0.64703 0.0
H2771 H 0.38072 0.09571 0.62534 0.0
H2772 H 0.39441 0.0736 0.61288 0.0
H2773 H 0.39651 0.08313 0.60631 0.0
H2774 H 0.38511 0.07924 0.60774 0.0
H2775 H 0.37786 0.09181 0.61436 0.0
H2776 H 0.38643 0.10018 0.61615 0.0
C2777 C 0.40613 0.08996 0.65262 0.0
C2778 C 0.41542 0.07665 0.64636 0.0
C2779 C 0.41311 0.11296 0.60334 0.0
C2780 C 0.40654 0.11353 0.59662 0.0
C2781 C 0.39933 0.10738 0.59673 0.0
C2782 C 0.39846 0.10107 0.60361 0.0
C2783 C 0.40486 0.1009 0.61049 0.0
C2784 C 0.41214 0.10662 0.61015 0.0
C2785 C 0.41831 0.10545 0.61798 0.0
C2786 C 0.41335 0.0983 0.62327 0.0
C2787 C 0.40547 0.0957 0.61887 0.0
C2788 C 0.41875 0.11454 0.62303 0.0
C2789 C 0.42748 0.10198 0.61446 0.0
C2790 C 0.37953 0.07561 0.62762 0.0
C2791 C 0.37749 0.07054 0.63525 0.0
C2792 C 0.38395 0.06998 0.64212 0.0
C2793 C 0.39214 0.07469 0.64153 0.0
C2794 C 0.39389 0.08002 0.63398 0.0
C2795 C 0.38768 0.08025 0.62713 0.0
C2796 C 0.39054 0.0862 0.61959 0.0
C2797 C 0.39949 0.08956 0.623 0.0
C2798 C 0.40146 0.086 0.63147 0.0
C2799 C 0.38354 0.09387 0.61871 0.0
C2800 C 0.39166 0.08031 0.61113 0.0
H2801 H 0.43259 0.10484 0.63076 0.0
H2802 H 0.4252 0.09037 0.65966 0.0
H2803 H 0.42173 0.07524 0.64264 0.0
H2804 H 0.41039 0.07202 0.64351 0.0
H2805 H 0.41656 0.07489 0.65347 0.0
H2806 H 0.40588 0.09742 0.65267 0.0
H2807 H 0.40826 0.08769 0.65935 0.0
H2808 H 0.39918 0.08772 0.65147 0.0
H2809 H 0.41872 0.11759 0.60352 0.0
H2810 H 0.39428 0.10749 0.59153 0.0
H2811 H 0.39273 0.09671 0.60338 0.0
H2812 H 0.41197 0.11765 0.62341 0.0
H2813 H 0.42327 0.11933 0.61955 0.0
H2814 H 0.42097 0.11394 0.63001 0.0
H2815 H 0.42676 0.09848 0.60793 0.0
H2816 H 0.4305 0.09688 0.61892 0.0
H2817 H 0.43231 0.10758 0.6135 0.0
H2818 H 0.4424 0.10694 0.64319 0.0
C2819 C 0.43074 0.10161 0.63687 0.0
C2820 C 0.15351 0.07968 0.91345 0.0
C2821 C 0.15279 0.07212 0.90781 0.0
C2822 C 0.14443 0.07007 0.90394 0.0
C2823 C 0.13799 0.0835 0.91028 0.0
C2824 C 0.14599 0.0853 0.91459 0.0
C2825 C 0.14548 0.09393 0.9199 0.0
H2826 H 0.12151 0.13157 0.93004 0.0
C2827 C 0.13176 0.09097 0.91198 0.0
C2828 C 0.13601 0.09714 0.91769 0.0
H2829 H 0.14833 0.12496 0.93891 0.0
H2830 H 0.14732 0.11059 0.93145 0.0
H2831 H 0.12443 0.12665 0.91117 0.0
H2832 H 0.11265 0.11119 0.93231 0.0
H2833 H 0.10573 0.11018 0.92281 0.0
H2834 H 0.10773 0.12111 0.92759 0.0
H2835 H 0.11276 0.12768 0.9139 0.0
H2836 H 0.11671 0.11957 0.90584 0.0
C2837 C 0.15275 0.10043 0.91635 0.0
C2838 C 0.14646 0.09159 0.92989 0.0
C2839 C 0.10303 0.09256 0.89393 0.0
C2840 C 0.09656 0.09932 0.89289 0.0
C2841 C 0.09677 0.10684 0.89861 0.0
C2842 C 0.10355 0.10779 0.90501 0.0
C2843 C 0.11028 0.10122 0.90563 0.0
C2844 C 0.10983 0.09368 0.90027 0.0
C2845 C 0.11774 0.08759 0.9016 0.0
C2846 C 0.12317 0.09288 0.90838 0.0
C2847 C 0.11874 0.1008 0.91076 0.0
C2848 C 0.12267 0.08665 0.8925 0.0
C2849 C 0.11422 0.07865 0.9056 0.0
C2850 C 0.12723 0.1271 0.93037 0.0
C2851 C 0.13505 0.12955 0.93503 0.0
C2852 C 0.14219 0.12331 0.93542 0.0
C2853 C 0.14163 0.11498 0.931 0.0
C2854 C 0.1339 0.11287 0.92602 0.0
C2855 C 0.12685 0.11889 0.92588 0.0
C2856 C 0.11928 0.11584 0.92002 0.0
C2857 C 0.12286 0.10694 0.91671 0.0
C2858 C 0.13144 0.10516 0.92022 0.0
C2859 C 0.11815 0.12277 0.91235 0.0
C2860 C 0.11085 0.11455 0.92593 0.0
H2861 H 0.13097 0.0738 0.90183 0.0
H2862 H 0.15985 0.08137 0.91659 0.0
H2863 H 0.14242 0.08554 0.93156 0.0
H2864 H 0.14397 0.09695 0.93432 0.0
H2865 H 0.15358 0.09015 0.93157 0.0
H2866 H 0.15303 0.10019 0.90893 0.0
H2867 H 0.15948 0.0986 0.91894 0.0
H2868 H 0.1514 0.10751 0.91802 0.0
H2869 H 0.10309 0.08675 0.88957 0.0
H2870 H 0.09176 0.11207 0.89801 0.0
H2871 H 0.10341 0.11373 0.90906 0.0
H2872 H 0.12195 0.09285 0.88843 0.0
H2873 H 0.11991 0.08098 0.88854 0.0
H2874 H 0.12999 0.08579 0.89317 0.0
H2875 H 0.10839 0.07986 0.91009 0.0
H2876 H 0.11923 0.07526 0.90987 0.0
H2877 H 0.11198 0.07397 0.90027 0.0
H2878 H 0.14363 0.06416 0.89978 0.0
C2879 C 0.13705 0.07567 0.90517 0.0
C2880 C 0.87028 0.38085 0.93378 0.0
C2881 C 0.87661 0.37393 0.93488 0.0
C2882 C 0.885 0.37464 0.9306 0.0
C2883 C 0.88055 0.38872 0.9239 0.0
C2884 C 0.87244 0.38825 0.92837 0.0
C2885 C 0.86668 0.39638 0.92659 0.0
H2886 H 0.86061 0.43479 0.90292 0.0
C2887 C 0.88065 0.39702 0.91855 0.0
C2888 C 0.8726 0.40167 0.92019 0.0
H2889 H 0.84238 0.42313 0.92219 0.0
H2890 H 0.85309 0.41132 0.92519 0.0
H2891 H 0.87798 0.43284 0.91483 0.0
H2892 H 0.86644 0.4168 0.89394 0.0
H2893 H 0.878 0.41737 0.89182 0.0
H2894 H 0.87155 0.42755 0.89206 0.0
H2895 H 0.87942 0.43566 0.90329 0.0
H2896 H 0.88715 0.4283 0.90904 0.0
C2897 C 0.86531 0.40144 0.93551 0.0
C2898 C 0.85788 0.39319 0.92212 0.0
C2899 C 0.90531 0.402 0.89557 0.0
C2900 C 0.90694 0.40899 0.88944 0.0
C2901 C 0.90173 0.41687 0.89002 0.0
C2902 C 0.89463 0.41752 0.89607 0.0
C2903 C 0.89268 0.41024 0.90168 0.0
C2904 C 0.8982 0.40281 0.90166 0.0
C2905 C 0.8954 0.39603 0.90858 0.0
C2906 C 0.88695 0.40039 0.91228 0.0
C2907 C 0.88536 0.40863 0.9081 0.0
C2908 C 0.90293 0.39543 0.91571 0.0
C2909 C 0.89334 0.38706 0.90376 0.0
C2910 C 0.85892 0.42983 0.90793 0.0
C2911 C 0.85056 0.42996 0.91228 0.0
C2912 C 0.84869 0.42316 0.91859 0.0
C2913 C 0.85494 0.41632 0.92037 0.0
C2914 C 0.86319 0.41623 0.9158 0.0
C2915 C 0.86507 0.42302 0.90981 0.0
C2916 C 0.87407 0.42198 0.90548 0.0
C2917 C 0.8773 0.41338 0.90976 0.0
C2918 C 0.87093 0.40997 0.91579 0.0
C2919 C 0.87999 0.43012 0.9082 0.0
C2920 C 0.87253 0.42092 0.89529 0.0
H2921 H 0.89344 0.38203 0.92196 0.0
H2922 H 0.86382 0.38054 0.9371 0.0
H2923 H 0.8593 0.38793 0.91704 0.0
H2924 H 0.85438 0.39857 0.91848 0.0
H2925 H 0.85321 0.39029 0.92713 0.0
H2926 H 0.87163 0.40151 0.93946 0.0
H2927 H 0.86004 0.39815 0.93961 0.0
H2928 H 0.86355 0.40856 0.93456 0.0
H2929 H 0.90924 0.39589 0.89543 0.0
H2930 H 0.90304 0.42253 0.88568 0.0
H2931 H 0.89079 0.42359 0.89597 0.0
H2932 H 0.90712 0.40162 0.91587 0.0
H2933 H 0.90749 0.38969 0.91438 0.0
H2934 H 0.90022 0.39486 0.92257 0.0
H2935 H 0.88916 0.38827 0.89773 0.0
H2936 H 0.8895 0.38229 0.90788 0.0
H2937 H 0.89963 0.38372 0.90159 0.0
H2938 H 0.88997 0.36938 0.9313 0.0
C2939 C 0.88699 0.38198 0.92513 0.0
C2940 C 0.92723 0.59291 0.15318 0.0
C2941 C 0.93505 0.59822 0.15238 0.0
C2942 C 0.93678 0.60257 0.14421 0.0
C2943 C 0.92296 0.59676 0.13802 0.0
C2944 C 0.92132 0.59221 0.14588 0.0
C2945 C 0.91269 0.58689 0.14543 0.0
H2946 H 0.87466 0.57672 0.12223 0.0
C2947 C 0.91537 0.59515 0.13191 0.0
C2948 C 0.90931 0.58929 0.13614 0.0
H2949 H 0.8823 0.567 0.14832 0.0
H2950 H 0.89629 0.57522 0.14739 0.0
H2951 H 0.87995 0.59593 0.12522 0.0
H2952 H 0.89489 0.57454 0.113 0.0
H2953 H 0.896 0.58413 0.10622 0.0
H2954 H 0.88501 0.57944 0.10818 0.0
H2955 H 0.87814 0.59277 0.11381 0.0
H2956 H 0.88645 0.60104 0.11692 0.0
C2957 C 0.90634 0.59035 0.15284 0.0
C2958 C 0.91504 0.57682 0.14617 0.0
C2959 C 0.91355 0.61311 0.10324 0.0
C2960 C 0.90682 0.61394 0.09677 0.0
C2961 C 0.89928 0.60827 0.09706 0.0
C2962 C 0.89831 0.60196 0.10392 0.0
C2963 C 0.9049 0.60144 0.11062 0.0
C2964 C 0.91243 0.60685 0.11012 0.0
C2965 C 0.91856 0.60561 0.11797 0.0
C2966 C 0.91335 0.59877 0.1234 0.0
C2967 C 0.9054 0.59633 0.11905 0.0
C2968 C 0.91939 0.61478 0.12285 0.0
C2969 C 0.92755 0.6017 0.11449 0.0
C2970 C 0.8794 0.5762 0.12769 0.0
C2971 C 0.87734 0.57117 0.13535 0.0
C2972 C 0.88365 0.5709 0.14237 0.0
C2973 C 0.8918 0.57565 0.14181 0.0
C2974 C 0.89366 0.58079 0.13417 0.0
C2975 C 0.88752 0.58091 0.12725 0.0
C2976 C 0.8904 0.58689 0.11973 0.0
C2977 C 0.89933 0.59029 0.12319 0.0
C2978 C 0.90125 0.58674 0.13167 0.0
C2979 C 0.88339 0.59454 0.11877 0.0
C2980 C 0.8916 0.58101 0.11128 0.0
H2981 H 0.93253 0.60544 0.13111 0.0
H2982 H 0.92576 0.58939 0.15933 0.0
H2983 H 0.92118 0.57526 0.14223 0.0
H2984 H 0.90977 0.5724 0.14342 0.0
H2985 H 0.91635 0.57491 0.15321 0.0
H2986 H 0.90663 0.5978 0.15328 0.0
H2987 H 0.90828 0.58759 0.15944 0.0
H2988 H 0.89923 0.58873 0.15158 0.0
H2989 H 0.91934 0.61752 0.10317 0.0
H2990 H 0.89402 0.6089 0.0921 0.0
H2991 H 0.89235 0.59791 0.10386 0.0
H2992 H 0.91296 0.61856 0.12252 0.0
H2993 H 0.92468 0.61902 0.11977 0.0
H2994 H 0.92076 0.61414 0.13006 0.0
H2995 H 0.92644 0.59731 0.10857 0.0
H2996 H 0.93088 0.59729 0.11941 0.0
H2997 H 0.93225 0.60712 0.11247 0.0
H2998 H 0.94265 0.6068 0.14341 0.0
C2999 C 0.93083 0.60183 0.13706 0.0
C3000 C 0.65408 0.57997 0.41356 0.0
C3001 C 0.65354 0.57257 0.40772 0.0
C3002 C 0.64538 0.57071 0.40336 0.0
C3003 C 0.6387 0.58395 0.40988 0.0
C3004 C 0.64655 0.58561 0.41451 0.0
C3005 C 0.64597 0.59419 0.41988 0.0
H3006 H 0.62199 0.63159 0.4307 0.0
C3007 C 0.63241 0.59137 0.41164 0.0
C3008 C 0.63655 0.59741 0.41755 0.0
H3009 H 0.64894 0.62494 0.43894 0.0
H3010 H 0.64795 0.61071 0.43113 0.0
H3011 H 0.62467 0.6263 0.41131 0.0
H3012 H 0.61323 0.61099 0.43285 0.0
H3013 H 0.60627 0.60969 0.42343 0.0
H3014 H 0.60794 0.62072 0.42814 0.0
H3015 H 0.6134 0.62816 0.4151 0.0
H3016 H 0.61599 0.61995 0.40662 0.0
C3017 C 0.6533 0.60071 0.41648 0.0
C3018 C 0.64678 0.59176 0.42987 0.0
C3019 C 0.60357 0.59285 0.39381 0.0
C3020 C 0.59673 0.5993 0.3932 0.0
C3021 C 0.5967 0.60654 0.39927 0.0
C3022 C 0.6036 0.60756 0.40556 0.0
C3023 C 0.61066 0.60132 0.40574 0.0
C3024 C 0.61043 0.594 0.40008 0.0
C3025 C 0.61851 0.58809 0.40113 0.0
C3026 C 0.62379 0.59324 0.40811 0.0
C3027 C 0.61918 0.60097 0.41079 0.0
C3028 C 0.62346 0.58773 0.39201 0.0
C3029 C 0.61527 0.57887 0.40472 0.0
C3030 C 0.62762 0.627 0.43094 0.0
C3031 C 0.63553 0.62934 0.43547 0.0
C3032 C 0.64279 0.62327 0.43545 0.0
C3033 C 0.6422 0.61504 0.43091 0.0
C3034 C 0.63433 0.61291 0.42616 0.0
C3035 C 0.6272 0.61885 0.42629 0.0
C3036 C 0.61958 0.61581 0.42047 0.0
C3037 C 0.62324 0.60704 0.41688 0.0
C3038 C 0.63188 0.6053 0.42026 0.0
C3039 C 0.61824 0.6229 0.413 0.0
C3040 C 0.61126 0.61426 0.42647 0.0
H3041 H 0.63204 0.57458 0.40078 0.0
H3042 H 0.66029 0.58153 0.41698 0.0
H3043 H 0.64258 0.58579 0.43145 0.0
H3044 H 0.64437 0.59714 0.43432 0.0
H3045 H 0.65384 0.59013 0.43163 0.0
H3046 H 0.65421 0.60004 0.40914 0.0
H3047 H 0.65987 0.5993 0.41969 0.0
H3048 H 0.65158 0.60783 0.41753 0.0
H3049 H 0.60385 0.58724 0.38921 0.0
H3050 H 0.5914 0.6115 0.39908 0.0
H3051 H 0.60327 0.6133 0.40988 0.0
H3052 H 0.6228 0.59421 0.38838 0.0
H3053 H 0.62064 0.58238 0.38766 0.0
H3054 H 0.63077 0.58674 0.39264 0.0
H3055 H 0.60926 0.57964 0.40907 0.0
H3056 H 0.6203 0.57556 0.40903 0.0
H3057 H 0.61341 0.57428 0.39917 0.0
H3058 H 0.6448 0.56497 0.39894 0.0
C3059 C 0.63797 0.57631 0.40445 0.0
C3060 C 0.92722 0.41413 0.35185 0.0
C3061 C 0.93493 0.4087 0.35267 0.0
C3062 C 0.93669 0.40449 0.36091 0.0
C3063 C 0.923 0.41057 0.3671 0.0
C3064 C 0.92139 0.41503 0.35918 0.0
C3065 C 0.91286 0.42049 0.35962 0.0
H3066 H 0.8746 0.43063 0.38231 0.0
C3067 C 0.91541 0.41226 0.37317 0.0
C3068 C 0.90942 0.41812 0.3689 0.0
H3069 H 0.88304 0.44096 0.35668 0.0
H3070 H 0.8969 0.43259 0.35775 0.0
H3071 H 0.88004 0.41128 0.37897 0.0
H3072 H 0.8946 0.43247 0.39213 0.0
H3073 H 0.89538 0.42272 0.39872 0.0
H3074 H 0.88452 0.42753 0.39651 0.0
H3075 H 0.8777 0.41437 0.39031 0.0
H3076 H 0.88615 0.40614 0.38754 0.0
C3077 C 0.90646 0.41715 0.3522 0.0
C3078 C 0.91541 0.43053 0.35891 0.0
C3079 C 0.91345 0.39439 0.40183 0.0
C3080 C 0.90659 0.39318 0.40817 0.0
C3081 C 0.89887 0.39866 0.40764 0.0
C3082 C 0.8979 0.40496 0.40077 0.0
C3083 C 0.90463 0.40573 0.39425 0.0
C3084 C 0.91227 0.40056 0.39491 0.0
C3085 C 0.91852 0.40189 0.38717 0.0
C3086 C 0.91328 0.40859 0.38163 0.0
C3087 C 0.90521 0.4109 0.38585 0.0
C3088 C 0.91964 0.39272 0.38234 0.0
C3089 C 0.92734 0.40605 0.39079 0.0
C3090 C 0.87948 0.43125 0.37699 0.0
C3091 C 0.87768 0.43649 0.3694 0.0
C3092 C 0.88419 0.43689 0.36256 0.0
C3093 C 0.89226 0.43205 0.3632 0.0
C3094 C 0.89384 0.42669 0.37075 0.0
C3095 C 0.88754 0.42646 0.37752 0.0
C3096 C 0.89021 0.4203 0.38499 0.0
C3097 C 0.89922 0.41698 0.38167 0.0
C3098 C 0.90133 0.42066 0.37329 0.0
C3099 C 0.88317 0.41264 0.38558 0.0
C3100 C 0.89119 0.42598 0.39359 0.0
H3101 H 0.93249 0.4019 0.37409 0.0
H3102 H 0.92575 0.41755 0.34564 0.0
H3103 H 0.92175 0.43193 0.36261 0.0
H3104 H 0.91037 0.435 0.36196 0.0
H3105 H 0.91647 0.43251 0.35184 0.0
H3106 H 0.90648 0.40969 0.35186 0.0
H3107 H 0.90858 0.41974 0.34557 0.0
H3108 H 0.8994 0.41904 0.35334 0.0
H3109 H 0.91955 0.39045 0.40207 0.0
H3110 H 0.8934 0.39786 0.41233 0.0
H3111 H 0.89182 0.40881 0.40068 0.0
H3112 H 0.91358 0.38842 0.38318 0.0
H3113 H 0.92546 0.38893 0.38504 0.0
H3114 H 0.92038 0.39336 0.37504 0.0
H3115 H 0.92594 0.41085 0.39631 0.0
H3116 H 0.93097 0.41006 0.38574 0.0
H3117 H 0.93188 0.40078 0.39344 0.0
H3118 H 0.9425 0.40021 0.36172 0.0
C3119 C 0.93081 0.40542 0.36809 0.0
C3120 C 0.59342 0.61053 0.90221 0.0
C3121 C 0.60012 0.61177 0.90872 0.0
C3122 C 0.60786 0.60631 0.90838 0.0
C3123 C 0.6025 0.59924 0.89481 0.0
C3124 C 0.59481 0.60438 0.8953 0.0
C3125 C 0.58877 0.60301 0.8874 0.0
H3126 H 0.58188 0.58622 0.84617 0.0
C3127 C 0.60217 0.59412 0.88636 0.0
C3128 C 0.59421 0.59637 0.88196 0.0
H3129 H 0.56522 0.60426 0.86167 0.0
H3130 H 0.57525 0.60309 0.87398 0.0
H3131 H 0.60086 0.59509 0.85191 0.0
H3132 H 0.58686 0.57251 0.86362 0.0
H3133 H 0.59828 0.56984 0.86207 0.0
H3134 H 0.59134 0.57213 0.85249 0.0
H3135 H 0.59953 0.58465 0.84604 0.0
H3136 H 0.6085 0.58634 0.85392 0.0
C3137 C 0.58768 0.61218 0.88257 0.0
C3138 C 0.5799 0.59877 0.8908 0.0
C3139 C 0.62841 0.57422 0.87807 0.0
C3140 C 0.63061 0.56924 0.87042 0.0
C3141 C 0.6244 0.56888 0.86331 0.0
C3142 C 0.61618 0.57348 0.8638 0.0
C3143 C 0.61417 0.5786 0.87143 0.0
C3144 C 0.62024 0.57884 0.87841 0.0
C3145 C 0.61725 0.58486 0.88587 0.0
C3146 C 0.60834 0.58813 0.8823 0.0
C3147 C 0.6065 0.58447 0.87383 0.0
C3148 C 0.6242 0.59259 0.88683 0.0
C3149 C 0.61603 0.57906 0.89435 0.0
C3150 C 0.58043 0.58993 0.85222 0.0
C3151 C 0.57263 0.59529 0.8529 0.0
C3152 C 0.571 0.59992 0.86095 0.0
C3153 C 0.57692 0.59932 0.86812 0.0
C3154 C 0.58473 0.59414 0.8673 0.0
C3155 C 0.58636 0.58943 0.85953 0.0
C3156 C 0.59507 0.58425 0.86005 0.0
C3157 C 0.59844 0.58687 0.8693 0.0
C3158 C 0.59231 0.59269 0.87344 0.0
C3159 C 0.60136 0.58767 0.85257 0.0
C3160 C 0.59285 0.57413 0.85947 0.0
H3161 H 0.61513 0.5962 0.90157 0.0
H3162 H 0.5873 0.61444 0.9023 0.0
H3163 H 0.58123 0.59389 0.89626 0.0
H3164 H 0.57636 0.59483 0.88563 0.0
H3165 H 0.5753 0.60399 0.89347 0.0
H3166 H 0.59359 0.61662 0.88373 0.0
H3167 H 0.58165 0.61582 0.88498 0.0
H3168 H 0.58734 0.61154 0.87523 0.0
H3169 H 0.63308 0.5748 0.88358 0.0
H3170 H 0.62591 0.56503 0.85736 0.0
H3171 H 0.61175 0.57297 0.85817 0.0
H3172 H 0.62777 0.59389 0.88044 0.0
H3173 H 0.62935 0.59098 0.89194 0.0
H3174 H 0.62105 0.5991 0.8885 0.0
H3175 H 0.61263 0.57261 0.89268 0.0
H3176 H 0.61173 0.58227 0.89943 0.0
H3177 H 0.62262 0.57743 0.89741 0.0
H3178 H 0.6132 0.60713 0.9132 0.0
C3179 C 0.60904 0.60002 0.90151 0.0
C3180 C 0.84964 0.64921 0.85266 0.0
C3181 C 0.84781 0.64277 0.84602 0.0
C3182 C 0.8534 0.64237 0.83843 0.0
C3183 C 0.86282 0.65413 0.8445 0.0
C3184 C 0.85716 0.65479 0.85176 0.0
C3185 C 0.86036 0.66166 0.8584 0.0
H3186 H 0.89323 0.68918 0.87331 0.0
C3187 C 0.87042 0.66033 0.84595 0.0
C3188 C 0.86902 0.6648 0.85405 0.0
H3189 H 0.86773 0.68302 0.88558 0.0
H3190 H 0.86339 0.67427 0.87276 0.0
H3191 H 0.89721 0.66943 0.86577 0.0
H3192 H 0.88456 0.69178 0.85231 0.0
H3193 H 0.89256 0.6868 0.84521 0.0
H3194 H 0.8962 0.692 0.85547 0.0
H3195 H 0.90332 0.67944 0.86294 0.0
H3196 H 0.90172 0.67053 0.85498 0.0
C3197 C 0.86207 0.65679 0.86739 0.0
C3198 C 0.85329 0.66928 0.85883 0.0
C3199 C 0.8964 0.65951 0.82427 0.0
C3200 C 0.9048 0.66381 0.8239 0.0
C3201 C 0.90686 0.67029 0.83049 0.0
C3202 C 0.90077 0.67226 0.8374 0.0
C3203 C 0.8925 0.6677 0.83776 0.0
C3204 C 0.89041 0.66158 0.83114 0.0
C3205 C 0.88139 0.65734 0.83247 0.0
C3206 C 0.87842 0.66179 0.84105 0.0
C3207 C 0.88492 0.66787 0.84418 0.0
C3208 C 0.88276 0.64706 0.83359 0.0
C3209 C 0.87533 0.66008 0.82452 0.0
C3210 C 0.88668 0.68601 0.87311 0.0
C3211 C 0.88077 0.68672 0.88039 0.0
C3212 C 0.87233 0.68252 0.88 0.0
C3213 C 0.86986 0.67742 0.87257 0.0
C3214 C 0.87593 0.6764 0.86547 0.0
C3215 C 0.8841 0.68081 0.86568 0.0
C3216 C 0.88961 0.67891 0.85744 0.0
C3217 C 0.8835 0.67246 0.85241 0.0
C3218 C 0.87552 0.67101 0.85722 0.0
C3219 C 0.89848 0.67439 0.86037 0.0
C3220 C 0.8909 0.68782 0.85232 0.0
H3221 H 0.86492 0.64723 0.83178 0.0
H3222 H 0.84541 0.64979 0.85851 0.0
H3223 H 0.85001 0.67026 0.85223 0.0
H3224 H 0.85627 0.67588 0.86043 0.0
H3225 H 0.84793 0.66771 0.86374 0.0
H3226 H 0.86488 0.64997 0.86623 0.0
H3227 H 0.85574 0.656 0.87123 0.0
H3228 H 0.86708 0.66018 0.87163 0.0
H3229 H 0.89458 0.65438 0.81946 0.0
H3230 H 0.91319 0.67386 0.83032 0.0
H3231 H 0.90277 0.67719 0.84224 0.0
H3232 H 0.88937 0.64556 0.83671 0.0
H3233 H 0.88255 0.64357 0.82704 0.0
H3234 H 0.87782 0.64393 0.83811 0.0
H3235 H 0.87681 0.66707 0.82235 0.0
H3236 H 0.86811 0.66014 0.82623 0.0
H3237 H 0.87641 0.6556 0.81869 0.0
H3238 H 0.85223 0.63743 0.83325 0.0
C3239 C 0.86085 0.64803 0.83762 0.0
C3240 C 0.1515 0.14239 0.66237 0.0
C3241 C 0.15809 0.14149 0.65572 0.0
C3242 C 0.1578 0.14721 0.64823 0.0
C3243 C 0.14412 0.15402 0.65373 0.0
C3244 C 0.1446 0.14866 0.66123 0.0
C3245 C 0.13674 0.15002 0.66735 0.0
H3246 H 0.09492 0.16596 0.674 0.0
C3247 C 0.13569 0.15921 0.65422 0.0
C3248 C 0.13131 0.15685 0.66215 0.0
H3249 H 0.11103 0.14931 0.69136 0.0
H3250 H 0.12355 0.15061 0.68138 0.0
H3251 H 0.11188 0.18027 0.6701 0.0
H3252 H 0.10153 0.15781 0.65494 0.0
H3253 H 0.10307 0.16711 0.64785 0.0
H3254 H 0.0951 0.16783 0.65683 0.0
H3255 H 0.10121 0.18077 0.66453 0.0
H3256 H 0.11156 0.18322 0.65875 0.0
C3257 C 0.14031 0.15401 0.67624 0.0
C3258 C 0.13177 0.1409 0.66829 0.0
C3259 C 0.12716 0.17938 0.6284 0.0
C3260 C 0.11954 0.18457 0.62644 0.0
C3261 C 0.11253 0.18497 0.63278 0.0
C3262 C 0.11305 0.18016 0.64083 0.0
C3263 C 0.12064 0.17487 0.64258 0.0
C3264 C 0.12758 0.17465 0.63645 0.0
C3265 C 0.13509 0.16861 0.6393 0.0
C3266 C 0.13159 0.16527 0.64818 0.0
C3267 C 0.1231 0.1689 0.6501 0.0
C3268 C 0.14364 0.17442 0.64047 0.0
C3269 C 0.13597 0.16093 0.63233 0.0
C3270 C 0.10117 0.1626 0.67558 0.0
C3271 C 0.10198 0.15745 0.68343 0.0
C3272 C 0.11025 0.15333 0.68539 0.0
C3273 C 0.11751 0.15406 0.67955 0.0
C3274 C 0.11655 0.15894 0.67161 0.0
C3275 C 0.1086 0.16336 0.66983 0.0
C3276 C 0.10916 0.16872 0.6613 0.0
C3277 C 0.11856 0.16637 0.65808 0.0
C3278 C 0.12276 0.16054 0.66413 0.0
C3279 C 0.10835 0.17879 0.66372 0.0
C3280 C 0.10181 0.16527 0.65486 0.0
H3281 H 0.15096 0.1575 0.64129 0.0
H3282 H 0.15145 0.13805 0.66816 0.0
H3283 H 0.13191 0.13712 0.66188 0.0
H3284 H 0.12458 0.14159 0.66986 0.0
H3285 H 0.13498 0.13663 0.67345 0.0
H3286 H 0.1463 0.15833 0.67507 0.0
H3287 H 0.14232 0.14863 0.68095 0.0
H3288 H 0.13541 0.1585 0.67953 0.0
H3289 H 0.13261 0.17875 0.62366 0.0
H3290 H 0.10663 0.189 0.63152 0.0
H3291 H 0.10747 0.18068 0.64532 0.0
H3292 H 0.14198 0.18093 0.64372 0.0
H3293 H 0.14678 0.17592 0.63391 0.0
H3294 H 0.1487 0.17129 0.64486 0.0
H3295 H 0.12945 0.15957 0.62895 0.0
H3296 H 0.13781 0.15443 0.63537 0.0
H3297 H 0.14094 0.16265 0.62708 0.0
H3298 H 0.16289 0.14679 0.64309 0.0
C3299 C 0.15087 0.15346 0.64721 0.0
C3300 C 0.65227 0.36329 0.34353 0.0
C3301 C 0.65893 0.36414 0.35014 0.0
C3302 C 0.65867 0.35838 0.35759 0.0
C3303 C 0.64485 0.35171 0.35221 0.0
C3304 C 0.64533 0.35707 0.34472 0.0
C3305 C 0.63745 0.35568 0.3386 0.0
H3306 H 0.5955 0.33981 0.3323 0.0
C3307 C 0.6364 0.34655 0.35177 0.0
C3308 C 0.63203 0.34883 0.34381 0.0
H3309 H 0.61164 0.35592 0.31448 0.0
H3310 H 0.62426 0.35473 0.32442 0.0
H3311 H 0.61211 0.32543 0.33602 0.0
H3312 H 0.60241 0.34807 0.35125 0.0
H3313 H 0.60371 0.3387 0.35832 0.0
H3314 H 0.59576 0.33817 0.34932 0.0
H3315 H 0.60175 0.32492 0.34212 0.0
H3316 H 0.61241 0.32259 0.34739 0.0
C3317 C 0.64098 0.35175 0.32968 0.0
C3318 C 0.63247 0.36478 0.33772 0.0
C3319 C 0.62732 0.32743 0.37817 0.0
C3320 C 0.61967 0.3223 0.38014 0.0
C3321 C 0.61289 0.32141 0.37363 0.0
C3322 C 0.61359 0.32586 0.3654 0.0
C3323 C 0.62116 0.33125 0.36366 0.0
C3324 C 0.62794 0.33178 0.36994 0.0
C3325 C 0.63556 0.33765 0.36698 0.0
C3326 C 0.63223 0.34064 0.35791 0.0
C3327 C 0.62375 0.33697 0.35601 0.0
C3328 C 0.64408 0.33174 0.36619 0.0
C3329 C 0.63635 0.34558 0.37366 0.0
C3330 C 0.60178 0.34307 0.33061 0.0
C3331 C 0.6026 0.34808 0.3227 0.0
C3332 C 0.61089 0.35206 0.32056 0.0
C3333 C 0.6182 0.35139 0.32636 0.0
C3334 C 0.61723 0.34666 0.3344 0.0
C3335 C 0.60925 0.34233 0.3363 0.0
C3336 C 0.60981 0.33705 0.34486 0.0
C3337 C 0.61924 0.33939 0.348 0.0
C3338 C 0.62347 0.34512 0.34187 0.0
C3339 C 0.60891 0.32696 0.34256 0.0
C3340 C 0.60253 0.34061 0.35131 0.0
H3341 H 0.65179 0.34813 0.36457 0.0
H3342 H 0.65223 0.36765 0.33775 0.0
H3343 H 0.6322 0.36828 0.34427 0.0
H3344 H 0.62541 0.36409 0.33564 0.0
H3345 H 0.63596 0.36927 0.33293 0.0
H3346 H 0.64718 0.34772 0.33073 0.0
H3347 H 0.64262 0.35716 0.32485 0.0
H3348 H 0.63619 0.347 0.32657 0.0
H3349 H 0.63272 0.32811 0.38297 0.0
H3350 H 0.60692 0.31748 0.37501 0.0
H3351 H 0.60815 0.32508 0.36077 0.0
H3352 H 0.64235 0.32492 0.36366 0.0
H3353 H 0.6474 0.33092 0.37277 0.0
H3354 H 0.649 0.33438 0.36134 0.0
H3355 H 0.62966 0.34748 0.37636 0.0
H3356 H 0.63891 0.3518 0.37057 0.0
H3357 H 0.6407 0.34379 0.37941 0.0
H3358 H 0.66381 0.35875 0.36269 0.0
C3359 C 0.65169 0.35218 0.35866 0.0
C3360 C 0.34929 0.85799 0.15118 0.0
C3361 C 0.34759 0.86427 0.15802 0.0
C3362 C 0.35287 0.864 0.16582 0.0
C3363 C 0.36205 0.85224 0.15945 0.0
C3364 C 0.35652 0.85204 0.15206 0.0
C3365 C 0.35952 0.84514 0.14535 0.0
H3366 H 0.39201 0.8176 0.12987 0.0
C3367 C 0.36954 0.84597 0.15789 0.0
C3368 C 0.3681 0.84174 0.14967 0.0
H3369 H 0.36565 0.82253 0.11881 0.0
H3370 H 0.36188 0.83174 0.13144 0.0
H3371 H 0.39588 0.83764 0.13676 0.0
H3372 H 0.38438 0.8152 0.15111 0.0
H3373 H 0.39284 0.82033 0.15759 0.0
H3374 H 0.39577 0.81516 0.14713 0.0
H3375 H 0.40251 0.82809 0.13991 0.0
H3376 H 0.40053 0.83725 0.14753 0.0
C3377 C 0.36138 0.85 0.1364 0.0
C3378 C 0.35223 0.83771 0.1448 0.0
C3379 C 0.39566 0.84638 0.17944 0.0
C3380 C 0.40432 0.84269 0.17925 0.0
C3381 C 0.40667 0.83693 0.17214 0.0
C3382 C 0.4005 0.83497 0.16529 0.0
C3383 C 0.39192 0.8389 0.16549 0.0
C3384 C 0.38965 0.84447 0.17253 0.0
C3385 C 0.38051 0.84851 0.17148 0.0
C3386 C 0.37761 0.84449 0.16267 0.0
C3387 C 0.38424 0.83876 0.15918 0.0
C3388 C 0.38158 0.85889 0.17102 0.0
C3389 C 0.37455 0.8451 0.17925 0.0
C3390 C 0.38543 0.82067 0.1302 0.0
C3391 C 0.37913 0.81936 0.1233 0.0
C3392 C 0.37059 0.82336 0.12405 0.0
C3393 C 0.36843 0.82877 0.13137 0.0
C3394 C 0.37485 0.83025 0.13806 0.0
C3395 C 0.3831 0.82604 0.13757 0.0
C3396 C 0.38886 0.82813 0.1456 0.0
C3397 C 0.38274 0.83434 0.15088 0.0
C3398 C 0.37461 0.83567 0.14629 0.0
C3399 C 0.39745 0.83298 0.14235 0.0
C3400 C 0.39065 0.81926 0.15064 0.0
H3401 H 0.36394 0.85835 0.17259 0.0
H3402 H 0.34533 0.85794 0.14513 0.0
H3403 H 0.34813 0.8374 0.15101 0.0
H3404 H 0.35515 0.83091 0.14417 0.0
H3405 H 0.34755 0.83891 0.13916 0.0
H3406 H 0.3653 0.85626 0.13758 0.0
H3407 H 0.35501 0.85188 0.13305 0.0
H3408 H 0.36541 0.846 0.13169 0.0
H3409 H 0.39369 0.851 0.18467 0.0
H3410 H 0.41329 0.83394 0.17188 0.0
H3411 H 0.40269 0.83058 0.16005 0.0
H3412 H 0.3884 0.86087 0.16869 0.0
H3413 H 0.38053 0.86203 0.17766 0.0
H3414 H 0.37701 0.86204 0.16613 0.0
H3415 H 0.37594 0.8379 0.18068 0.0
H3416 H 0.3673 0.84537 0.17771 0.0
H3417 H 0.37586 0.84896 0.18546 0.0
H3418 H 0.35154 0.86851 0.17133 0.0
C3419 C 0.36007 0.85804 0.16657 0.0
C3420 C 0.84836 0.3582 0.65158 0.0
C3421 C 0.84655 0.36441 0.65842 0.0
C3422 C 0.85195 0.36435 0.66615 0.0
C3423 C 0.86127 0.35268 0.65977 0.0
C3424 C 0.85571 0.3524 0.65241 0.0
C3425 C 0.85876 0.34559 0.64565 0.0
H3426 H 0.89118 0.31833 0.62979 0.0
C3427 C 0.86876 0.3464 0.6582 0.0
C3428 C 0.8673 0.34214 0.65 0.0
H3429 H 0.86504 0.32414 0.61861 0.0
H3430 H 0.86117 0.33268 0.63158 0.0
H3431 H 0.8952 0.33801 0.63788 0.0
H3432 H 0.88296 0.31519 0.65102 0.0
H3433 H 0.89122 0.32003 0.65795 0.0
H3434 H 0.89449 0.31506 0.64747 0.0
H3435 H 0.9014 0.32792 0.64015 0.0
H3436 H 0.90001 0.33648 0.6485 0.0
C3437 C 0.8607 0.35062 0.6368 0.0
C3438 C 0.85147 0.33817 0.64495 0.0
C3439 C 0.89502 0.34704 0.6795 0.0
C3440 C 0.90354 0.34304 0.67951 0.0
C3441 C 0.90556 0.33661 0.67287 0.0
C3442 C 0.89932 0.33455 0.66611 0.0
C3443 C 0.89097 0.33897 0.66597 0.0
C3444 C 0.88892 0.34496 0.67273 0.0
C3445 C 0.87986 0.34914 0.67161 0.0
C3446 C 0.8768 0.34483 0.66299 0.0
C3447 C 0.8833 0.33885 0.65965 0.0
C3448 C 0.88119 0.35944 0.67068 0.0
C3449 C 0.87391 0.34621 0.67959 0.0
C3450 C 0.8846 0.32139 0.63021 0.0
C3451 C 0.8785 0.32076 0.62302 0.0
C3452 C 0.86997 0.32475 0.6239 0.0
C3453 C 0.8677 0.32969 0.63147 0.0
C3454 C 0.87401 0.33075 0.63832 0.0
C3455 C 0.88219 0.32642 0.63782 0.0
C3456 C 0.88785 0.32817 0.64602 0.0
C3457 C 0.88178 0.33444 0.65133 0.0
C3458 C 0.87374 0.33597 0.64667 0.0
C3459 C 0.89662 0.33284 0.64304 0.0
C3460 C 0.88929 0.31916 0.65089 0.0
H3461 H 0.8632 0.35895 0.67284 0.0
H3462 H 0.84421 0.35793 0.64564 0.0
H3463 H 0.84733 0.33778 0.65112 0.0
H3464 H 0.85439 0.33138 0.64425 0.0
H3465 H 0.84683 0.33945 0.63929 0.0
H3466 H 0.86439 0.35699 0.63814 0.0
H3467 H 0.85436 0.35235 0.63331 0.0
H3468 H 0.86501 0.34684 0.63216 0.0
H3469 H 0.89316 0.35186 0.6846 0.0
H3470 H 0.91207 0.3334 0.67274 0.0
H3471 H 0.90129 0.32974 0.66115 0.0
H3472 H 0.88763 0.36102 0.66724 0.0
H3473 H 0.88136 0.36276 0.67732 0.0
H3474 H 0.87604 0.3627 0.66652 0.0
H3475 H 0.87558 0.33926 0.68175 0.0
H3476 H 0.86669 0.34593 0.67789 0.0
H3477 H 0.87489 0.35071 0.68542 0.0
H3478 H 0.85075 0.36908 0.67151 0.0
C3479 C 0.85925 0.3585 0.66688 0.0
C3480 C 0.34955 0.14863 0.35298 0.0
C3481 C 0.34793 0.1421 0.34638 0.0
C3482 C 0.35356 0.14182 0.33882 0.0
C3483 C 0.3627 0.1538 0.34491 0.0
C3484 C 0.35696 0.15437 0.35212 0.0
C3485 C 0.35997 0.16132 0.35877 0.0
H3486 H 0.39267 0.18822 0.37478 0.0
C3487 C 0.37022 0.16008 0.34645 0.0
C3488 C 0.36866 0.16454 0.35452 0.0
H3489 H 0.36628 0.18295 0.38567 0.0
H3490 H 0.36238 0.17442 0.37269 0.0
H3491 H 0.3965 0.1685 0.36678 0.0
H3492 H 0.38464 0.19139 0.35346 0.0
H3493 H 0.3928 0.18638 0.34655 0.0
H3494 H 0.39617 0.19138 0.357 0.0
H3495 H 0.4028 0.17857 0.36461 0.0
H3496 H 0.40146 0.17003 0.35622 0.0
C3497 C 0.36161 0.15649 0.36779 0.0
C3498 C 0.35279 0.16884 0.35908 0.0
C3499 C 0.39658 0.15915 0.3253 0.0
C3500 C 0.40508 0.16321 0.32523 0.0
C3501 C 0.4071 0.16969 0.33182 0.0
C3502 C 0.40086 0.17178 0.33858 0.0
C3503 C 0.39252 0.16734 0.33875 0.0
C3504 C 0.39048 0.16127 0.33205 0.0
C3505 C 0.38141 0.15709 0.33318 0.0
C3506 C 0.37832 0.16153 0.34172 0.0
C3507 C 0.38481 0.16754 0.34503 0.0
C3508 C 0.38268 0.1468 0.33425 0.0
C3509 C 0.37551 0.15994 0.32515 0.0
C3510 C 0.38604 0.18528 0.37429 0.0
C3511 C 0.37987 0.18604 0.38141 0.0
C3512 C 0.37126 0.18222 0.38045 0.0
C3513 C 0.36898 0.17728 0.37287 0.0
C3514 C 0.37536 0.17605 0.36611 0.0
C3515 C 0.38362 0.18025 0.36669 0.0
C3516 C 0.38933 0.17837 0.35855 0.0
C3517 C 0.38324 0.1721 0.35325 0.0
C3518 C 0.37511 0.17073 0.35782 0.0
C3519 C 0.39803 0.17366 0.36164 0.0
C3520 C 0.39091 0.18733 0.35361 0.0
H3521 H 0.365 0.14694 0.3322 0.0
H3522 H 0.34527 0.14914 0.3588 0.0
H3523 H 0.34905 0.16932 0.35267 0.0
H3524 H 0.35578 0.17559 0.35999 0.0
H3525 H 0.3478 0.1676 0.36445 0.0
H3526 H 0.36501 0.14993 0.36669 0.0
H3527 H 0.35517 0.15515 0.37128 0.0
H3528 H 0.36607 0.16022 0.37234 0.0
H3529 H 0.39473 0.15428 0.32025 0.0
H3530 H 0.41361 0.17295 0.33192 0.0
H3531 H 0.40283 0.17664 0.3435 0.0
H3532 H 0.38936 0.14517 0.33716 0.0
H3533 H 0.38221 0.14331 0.32771 0.0
H3534 H 0.37784 0.14374 0.33894 0.0
H3535 H 0.37695 0.167 0.3232 0.0
H3536 H 0.36825 0.15983 0.32667 0.0
H3537 H 0.37682 0.15562 0.31924 0.0
H3538 H 0.35255 0.13683 0.33365 0.0
C3539 C 0.36088 0.14766 0.33803 0.0
C3540 C 0.65066 0.64213 0.16236 0.0
C3541 C 0.65759 0.64167 0.15607 0.0
C3542 C 0.65785 0.64788 0.14901 0.0
C3543 C 0.64382 0.65435 0.15413 0.0
C3544 C 0.64391 0.64855 0.16131 0.0
C3545 C 0.63596 0.6498 0.16733 0.0
H3546 H 0.59449 0.6663 0.17428 0.0
C3547 C 0.63539 0.65957 0.15458 0.0
C3548 C 0.6308 0.65697 0.16232 0.0
H3549 H 0.61048 0.64928 0.1914 0.0
H3550 H 0.62291 0.65045 0.18134 0.0
H3551 H 0.61161 0.68047 0.17026 0.0
H3552 H 0.60105 0.6581 0.15509 0.0
H3553 H 0.60272 0.66737 0.14799 0.0
H3554 H 0.59469 0.66818 0.15693 0.0
H3555 H 0.6008 0.68093 0.16497 0.0
H3556 H 0.61097 0.68347 0.15893 0.0
C3557 C 0.63943 0.65329 0.17647 0.0
C3558 C 0.63078 0.64077 0.16774 0.0
C3559 C 0.627 0.67978 0.12872 0.0
C3560 C 0.61933 0.68485 0.12664 0.0
C3561 C 0.61225 0.68519 0.13292 0.0
C3562 C 0.61275 0.68043 0.141 0.0
C3563 C 0.62038 0.67523 0.14285 0.0
C3564 C 0.62739 0.67508 0.1368 0.0
C3565 C 0.63495 0.66914 0.13975 0.0
C3566 C 0.63136 0.66572 0.14857 0.0
C3567 C 0.6228 0.66926 0.15039 0.0
C3568 C 0.64341 0.67505 0.14106 0.0
C3569 C 0.63601 0.66152 0.13277 0.0
C3570 C 0.60069 0.66284 0.17579 0.0
C3571 C 0.6015 0.65764 0.18361 0.0
C3572 C 0.60971 0.65336 0.18546 0.0
C3573 C 0.61693 0.65402 0.17958 0.0
C3574 C 0.616 0.65899 0.1717 0.0
C3575 C 0.60811 0.66353 0.16999 0.0
C3576 C 0.60872 0.66895 0.16149 0.0
C3577 C 0.61814 0.6666 0.15827 0.0
C3578 C 0.62225 0.66065 0.16426 0.0
C3579 C 0.60793 0.679 0.16396 0.0
C3580 C 0.6014 0.66556 0.155 0.0
H3581 H 0.65138 0.65863 0.14235 0.0
H3582 H 0.65041 0.63745 0.1679 0.0
H3583 H 0.63053 0.63757 0.16103 0.0
H3584 H 0.62371 0.64149 0.16975 0.0
H3585 H 0.63411 0.636 0.17236 0.0
H3586 H 0.64597 0.65685 0.17579 0.0
H3587 H 0.64043 0.64769 0.18126 0.0
H3588 H 0.6349 0.65835 0.17948 0.0
H3589 H 0.63251 0.67921 0.12404 0.0
H3590 H 0.60631 0.68915 0.13159 0.0
H3591 H 0.60712 0.6809 0.14544 0.0
H3592 H 0.64158 0.68173 0.14386 0.0
H3593 H 0.64691 0.6762 0.13462 0.0
H3594 H 0.6482 0.6722 0.14591 0.0
H3595 H 0.62937 0.6595 0.13001 0.0
H3596 H 0.63879 0.65528 0.1356 0.0
H3597 H 0.64029 0.6637 0.1271 0.0
H3598 H 0.66319 0.6476 0.14411 0.0
C3599 C 0.65097 0.65423 0.14799 0.0
C3600 C 0.15082 0.86341 0.84484 0.0
C3601 C 0.15785 0.86384 0.85104 0.0
C3602 C 0.15821 0.85758 0.85804 0.0
C3603 C 0.14409 0.85114 0.85311 0.0
C3604 C 0.14409 0.85698 0.84596 0.0
C3605 C 0.13606 0.85575 0.84005 0.0
H3606 H 0.09485 0.83845 0.83305 0.0
C3607 C 0.13563 0.84593 0.85277 0.0
C3608 C 0.13094 0.84858 0.84512 0.0
H3609 H 0.11038 0.85637 0.81633 0.0
H3610 H 0.12276 0.85541 0.82637 0.0
H3611 H 0.11232 0.82472 0.83769 0.0
H3612 H 0.1008 0.8472 0.85192 0.0
H3613 H 0.10309 0.83852 0.85952 0.0
H3614 H 0.09495 0.8367 0.8508 0.0
H3615 H 0.1012 0.82434 0.84232 0.0
H3616 H 0.11094 0.82192 0.84903 0.0
C3617 C 0.1394 0.85227 0.83086 0.0
C3618 C 0.13089 0.86478 0.83974 0.0
C3619 C 0.12744 0.82578 0.87873 0.0
C3620 C 0.11961 0.82106 0.88112 0.0
C3621 C 0.1124 0.82083 0.87498 0.0
C3622 C 0.11291 0.8254 0.86679 0.0
C3623 C 0.12066 0.83036 0.86471 0.0
C3624 C 0.12777 0.83042 0.87062 0.0
C3625 C 0.13536 0.83629 0.86755 0.0
C3626 C 0.13165 0.83978 0.85882 0.0
C3627 C 0.12304 0.83628 0.85711 0.0
C3628 C 0.14372 0.8303 0.86606 0.0
C3629 C 0.13665 0.84387 0.87454 0.0
C3630 C 0.10094 0.84215 0.83159 0.0
C3631 C 0.10162 0.84746 0.82382 0.0
C3632 C 0.10969 0.8521 0.82214 0.0
C3633 C 0.1169 0.85159 0.82804 0.0
C3634 C 0.1161 0.84644 0.83582 0.0
C3635 C 0.10832 0.84167 0.83745 0.0
C3636 C 0.10894 0.83638 0.84604 0.0
C3637 C 0.11832 0.8389 0.84927 0.0
C3638 C 0.12237 0.84489 0.84326 0.0
C3639 C 0.10826 0.82629 0.84372 0.0
C3640 C 0.10154 0.83978 0.85244 0.0
H3641 H 0.15184 0.84676 0.86473 0.0
H3642 H 0.15049 0.86812 0.83935 0.0
H3643 H 0.131 0.86813 0.84638 0.0
H3644 H 0.1237 0.86402 0.83815 0.0
H3645 H 0.13397 0.86945 0.83484 0.0
H3646 H 0.14581 0.84849 0.83151 0.0
H3647 H 0.1406 0.85789 0.82615 0.0
H3648 H 0.13471 0.84739 0.82779 0.0
H3649 H 0.13321 0.82599 0.88312 0.0
H3650 H 0.10623 0.81735 0.87661 0.0
H3651 H 0.10717 0.82504 0.86248 0.0
H3652 H 0.14176 0.82371 0.86315 0.0
H3653 H 0.14725 0.82898 0.87245 0.0
H3654 H 0.14852 0.8332 0.86124 0.0
H3655 H 0.13011 0.84588 0.87753 0.0
H3656 H 0.13935 0.85013 0.87167 0.0
H3657 H 0.1411 0.84166 0.88007 0.0
H3658 H 0.16363 0.85784 0.86286 0.0
C3659 C 0.15135 0.85122 0.85913 0.0
C3660 C 0.87429 0.88822 0.68378 0.0
C3661 C 0.88132 0.88201 0.68498 0.0
C3662 C 0.88065 0.87348 0.68097 0.0
C3663 C 0.86644 0.87754 0.6743 0.0
C3664 C 0.86686 0.88579 0.6785 0.0
C3665 C 0.85869 0.89143 0.67654 0.0
H3666 H 0.81966 0.89603 0.65343 0.0
C3667 C 0.85811 0.87718 0.669 0.0
C3668 C 0.85341 0.88524 0.67039 0.0
H3669 H 0.83222 0.91569 0.67065 0.0
H3670 H 0.84381 0.90499 0.67446 0.0
H3671 H 0.83759 0.89036 0.64412 0.0
H3672 H 0.82244 0.8791 0.66579 0.0
H3673 H 0.82677 0.86989 0.65988 0.0
H3674 H 0.81917 0.87755 0.65437 0.0
H3675 H 0.82705 0.88471 0.64258 0.0
H3676 H 0.83753 0.87874 0.64245 0.0
C3677 C 0.86181 0.90008 0.67174 0.0
C3678 C 0.85366 0.89312 0.68541 0.0
C3679 C 0.85331 0.85179 0.64679 0.0
C3680 C 0.84633 0.84992 0.64071 0.0
C3681 C 0.83838 0.85502 0.64118 0.0
C3682 C 0.83763 0.86224 0.64708 0.0
C3683 C 0.8449 0.86443 0.65262 0.0
C3684 C 0.85241 0.85903 0.65271 0.0
C3685 C 0.8592 0.86213 0.65951 0.0
C3686 C 0.85476 0.87064 0.66297 0.0
C3687 C 0.84645 0.87197 0.65882 0.0
C3688 C 0.86811 0.86414 0.65458 0.0
C3689 C 0.85992 0.85484 0.66686 0.0
C3690 C 0.82492 0.89812 0.65797 0.0
C3691 C 0.82504 0.9068 0.66161 0.0
C3692 C 0.83192 0.90905 0.66773 0.0
C3693 C 0.83871 0.90285 0.66987 0.0
C3694 C 0.8387 0.89434 0.66579 0.0
C3695 C 0.83179 0.8921 0.66004 0.0
C3696 C 0.8329 0.88297 0.65602 0.0
C3697 C 0.84162 0.88002 0.66027 0.0
C3698 C 0.84504 0.88666 0.66601 0.0
C3699 C 0.83376 0.88416 0.64576 0.0
C3700 C 0.8249 0.87703 0.65908 0.0
H3701 H 0.87327 0.86468 0.67268 0.0
H3702 H 0.87456 0.89479 0.68687 0.0
H3703 H 0.85344 0.88688 0.68949 0.0
H3704 H 0.84658 0.89505 0.68442 0.0
H3705 H 0.85707 0.89839 0.68942 0.0
H3706 H 0.86725 0.89855 0.66689 0.0
H3707 H 0.86445 0.90506 0.6766 0.0
H3708 H 0.85646 0.90324 0.66776 0.0
H3709 H 0.85948 0.84796 0.64672 0.0
H3710 H 0.83274 0.85352 0.63686 0.0
H3711 H 0.83149 0.86597 0.64692 0.0
H3712 H 0.86681 0.86805 0.64839 0.0
H3713 H 0.87156 0.85782 0.65264 0.0
H3714 H 0.87283 0.86824 0.65852 0.0
H3715 H 0.85376 0.85061 0.6672 0.0
H3716 H 0.86055 0.85777 0.67363 0.0
H3717 H 0.86568 0.85028 0.66561 0.0
H3718 H 0.88599 0.86861 0.68173 0.0
C3719 C 0.87327 0.87122 0.67566 0.0
C3720 C 0.82058 0.1334 0.38378 0.0
C3721 C 0.81977 0.12613 0.37777 0.0
C3722 C 0.82447 0.12653 0.3696 0.0
C3723 C 0.83079 0.14094 0.37359 0.0
C3724 C 0.8261 0.14074 0.38154 0.0
C3725 C 0.82796 0.14897 0.38714 0.0
H3726 H 0.85235 0.18725 0.39265 0.0
C3727 C 0.83622 0.14922 0.37336 0.0
C3728 C 0.83457 0.15405 0.38125 0.0
H3729 H 0.83301 0.17594 0.41103 0.0
H3730 H 0.82971 0.16409 0.40048 0.0
H3731 H 0.86127 0.16967 0.38718 0.0
H3732 H 0.83984 0.18459 0.37505 0.0
H3733 H 0.84643 0.18048 0.36625 0.0
H3734 H 0.85135 0.18806 0.3743 0.0
H3735 H 0.86316 0.17991 0.38116 0.0
H3736 H 0.86312 0.16916 0.37565 0.0
C3737 C 0.83229 0.14589 0.396 0.0
C3738 C 0.81908 0.15418 0.38831 0.0
C3739 C 0.85852 0.1539 0.34813 0.0
C3740 C 0.86471 0.16077 0.34627 0.0
C3741 C 0.86472 0.16856 0.35161 0.0
C3742 C 0.85894 0.16932 0.35892 0.0
C3743 C 0.8531 0.16221 0.36097 0.0
C3744 C 0.85276 0.15478 0.35546 0.0
C3745 C 0.84591 0.14804 0.35852 0.0
C3746 C 0.8425 0.15246 0.367 0.0
C3747 C 0.8468 0.1607 0.36843 0.0
C3748 C 0.85086 0.1391 0.36047 0.0
C3749 C 0.83848 0.1474 0.35129 0.0
C3750 C 0.84727 0.18236 0.3944 0.0
C3751 C 0.843 0.18258 0.40276 0.0
C3752 C 0.83656 0.17588 0.40472 0.0
C3753 C 0.83462 0.169 0.39857 0.0
C3754 C 0.83916 0.16877 0.39035 0.0
C3755 C 0.84525 0.17549 0.38836 0.0
C3756 C 0.84954 0.17426 0.3794 0.0
C3757 C 0.84519 0.1656 0.37637 0.0
C3758 C 0.83909 0.16235 0.38277 0.0
C3759 C 0.85981 0.17325 0.38083 0.0
C3760 C 0.84674 0.18227 0.3734 0.0
H3761 H 0.8333 0.13365 0.36118 0.0
H3762 H 0.81703 0.13339 0.39008 0.0
H3763 H 0.8153 0.1544 0.3819 0.0
H3764 H 0.82013 0.16126 0.39022 0.0
H3765 H 0.81472 0.15091 0.39337 0.0
H3766 H 0.83718 0.14039 0.39479 0.0
H3767 H 0.82712 0.14335 0.40071 0.0
H3768 H 0.83618 0.15123 0.39933 0.0
H3769 H 0.85824 0.1479 0.34404 0.0
H3770 H 0.86945 0.17394 0.35033 0.0
H3771 H 0.85944 0.17533 0.36284 0.0
H3772 H 0.85747 0.14041 0.36369 0.0
H3773 H 0.85213 0.13531 0.3542 0.0
H3774 H 0.84726 0.13471 0.36518 0.0
H3775 H 0.83776 0.15384 0.3476 0.0
H3776 H 0.83174 0.14616 0.35415 0.0
H3777 H 0.84003 0.14209 0.34632 0.0
H3778 H 0.82419 0.12101 0.36489 0.0
C3779 C 0.82988 0.13388 0.36746 0.0
C3780 C 0.67543 0.10338 0.16485 0.0
C3781 C 0.68341 0.10421 0.15987 0.0
C3782 C 0.68558 0.11251 0.15596 0.0
C3783 C 0.67165 0.11884 0.16133 0.0
C3784 C 0.66973 0.11086 0.16563 0.0
C3785 C 0.66112 0.11146 0.17093 0.0
H3786 H 0.62361 0.13533 0.18125 0.0
C3787 C 0.66416 0.1251 0.16291 0.0
C3788 C 0.65801 0.12092 0.16866 0.0
H3789 H 0.631 0.10902 0.19092 0.0
H3790 H 0.64494 0.10979 0.18269 0.0
H3791 H 0.64402 0.14448 0.18319 0.0
H3792 H 0.62863 0.13219 0.16222 0.0
H3793 H 0.63532 0.14024 0.15692 0.0
H3794 H 0.62717 0.14378 0.16512 0.0
H3795 H 0.6341 0.14933 0.17841 0.0
H3796 H 0.64503 0.15122 0.17359 0.0
C3797 C 0.66349 0.11053 0.18094 0.0
C3798 C 0.65457 0.10423 0.1674 0.0
C3799 C 0.66228 0.15353 0.14439 0.0
C3800 C 0.65555 0.16007 0.14343 0.0
C3801 C 0.64815 0.15995 0.14929 0.0
C3802 C 0.64725 0.15321 0.15573 0.0
C3803 C 0.65379 0.14644 0.15629 0.0
C3804 C 0.66123 0.14678 0.15081 0.0
C3805 C 0.6674 0.13894 0.15224 0.0
C3806 C 0.66222 0.13364 0.1592 0.0
C3807 C 0.65429 0.13809 0.16157 0.0
C3808 C 0.67642 0.14254 0.15598 0.0
C3809 C 0.66818 0.1338 0.14326 0.0
C3810 C 0.6283 0.1298 0.18177 0.0
C3811 C 0.62617 0.12212 0.18678 0.0
C3812 C 0.63241 0.11499 0.18704 0.0
C3813 C 0.64053 0.11546 0.18228 0.0
C3814 C 0.64244 0.12312 0.17715 0.0
C3815 C 0.63639 0.13015 0.17704 0.0
C3816 C 0.63932 0.13764 0.17102 0.0
C3817 C 0.64819 0.13405 0.16763 0.0
C3818 C 0.65003 0.12552 0.1712 0.0
C3819 C 0.64065 0.14617 0.17679 0.0
C3820 C 0.63227 0.13861 0.16344 0.0
H3821 H 0.68172 0.12589 0.15337 0.0
H3822 H 0.67372 0.09711 0.16807 0.0
H3823 H 0.65474 0.10397 0.15998 0.0
H3824 H 0.64751 0.10558 0.16915 0.0
H3825 H 0.65641 0.09748 0.16995 0.0
H3826 H 0.66991 0.11403 0.18248 0.0
H3827 H 0.66428 0.10337 0.18282 0.0
H3828 H 0.65848 0.1137 0.18536 0.0
H3829 H 0.66803 0.1534 0.13996 0.0
H3830 H 0.64296 0.16501 0.1488 0.0
H3831 H 0.64139 0.15342 0.15988 0.0
H3832 H 0.67546 0.14894 0.15971 0.0
H3833 H 0.68131 0.14385 0.15054 0.0
H3834 H 0.67946 0.13794 0.16092 0.0
H3835 H 0.66152 0.13333 0.13993 0.0
H3836 H 0.67044 0.1268 0.144 0.0
H3837 H 0.67284 0.1373 0.13863 0.0
H3838 H 0.6917 0.11328 0.15212 0.0
C3839 C 0.67975 0.11981 0.15666 0.0
C3840 C 0.66293 0.82925 0.90458 0.0
C3841 C 0.65779 0.82136 0.90377 0.0
C3842 C 0.65371 0.81928 0.89557 0.0
C3843 C 0.65931 0.83314 0.88925 0.0
C3844 C 0.66371 0.83499 0.89717 0.0
C3845 C 0.66899 0.84363 0.89665 0.0
H3846 H 0.67852 0.88179 0.87367 0.0
C3847 C 0.66091 0.84067 0.88307 0.0
C3848 C 0.66666 0.84683 0.88729 0.0
H3849 H 0.68874 0.8739 0.89952 0.0
H3850 H 0.68072 0.85985 0.89848 0.0
H3851 H 0.68151 0.86206 0.86431 0.0
H3852 H 0.65905 0.87539 0.87657 0.0
H3853 H 0.65478 0.86954 0.86735 0.0
H3854 H 0.66296 0.8783 0.86562 0.0
H3855 H 0.67585 0.87136 0.8592 0.0
H3856 H 0.67206 0.85996 0.85761 0.0
C3857 C 0.67907 0.84132 0.8975 0.0
C3858 C 0.66544 0.85007 0.90393 0.0
C3859 C 0.64304 0.84216 0.85429 0.0
C3860 C 0.64229 0.84873 0.8476 0.0
C3861 C 0.64811 0.85621 0.84783 0.0
C3862 C 0.65426 0.85733 0.85481 0.0
C3863 C 0.65461 0.85093 0.86168 0.0
C3864 C 0.64921 0.8434 0.86123 0.0
C3865 C 0.65047 0.83733 0.86912 0.0
C3866 C 0.65729 0.8426 0.87453 0.0
C3867 C 0.65969 0.85056 0.87014 0.0
C3868 C 0.6544 0.82832 0.86572 0.0
C3869 C 0.64132 0.83652 0.874 0.0
C3870 C 0.67919 0.877 0.87906 0.0
C3871 C 0.68427 0.87906 0.88671 0.0
C3872 C 0.68476 0.87261 0.89361 0.0
C3873 C 0.68013 0.86441 0.89297 0.0
C3874 C 0.67493 0.86257 0.88536 0.0
C3875 C 0.67466 0.86878 0.87852 0.0
C3876 C 0.66881 0.86577 0.87092 0.0
C3877 C 0.66561 0.85674 0.8743 0.0
C3878 C 0.66915 0.85488 0.8828 0.0
C3879 C 0.67479 0.86478 0.86252 0.0
C3880 C 0.66101 0.87259 0.86996 0.0
H3881 H 0.651 0.82323 0.88232 0.0
H3882 H 0.66622 0.83091 0.91081 0.0
H3883 H 0.65798 0.84981 0.90426 0.0
H3884 H 0.6671 0.85717 0.90264 0.0
H3885 H 0.66809 0.8482 0.9106 0.0
H3886 H 0.68064 0.83495 0.89394 0.0
H3887 H 0.68101 0.84044 0.90461 0.0
H3888 H 0.68348 0.8464 0.89441 0.0
H3889 H 0.63864 0.83637 0.85436 0.0
H3890 H 0.64781 0.86128 0.84267 0.0
H3891 H 0.65836 0.86326 0.85468 0.0
H3892 H 0.65857 0.82933 0.85964 0.0
H3893 H 0.64898 0.82349 0.86398 0.0
H3894 H 0.65901 0.82518 0.87058 0.0
H3895 H 0.63773 0.84307 0.874 0.0
H3896 H 0.64194 0.83473 0.88111 0.0
H3897 H 0.63691 0.83152 0.87066 0.0
H3898 H 0.64975 0.81321 0.89486 0.0
C3899 C 0.65443 0.82512 0.88832 0.0
C3900 C 0.87503 0.11592 0.82462 0.0
C3901 C 0.88213 0.12209 0.82344 0.0
C3902 C 0.88152 0.13062 0.82746 0.0
C3903 C 0.86716 0.12671 0.83394 0.0
C3904 C 0.86757 0.11842 0.8298 0.0
C3905 C 0.85934 0.11282 0.83174 0.0
H3906 H 0.81973 0.10885 0.85403 0.0
C3907 C 0.85873 0.12719 0.83906 0.0
C3908 C 0.85399 0.11913 0.83771 0.0
H3909 H 0.83276 0.08867 0.83783 0.0
H3910 H 0.84446 0.09927 0.83398 0.0
H3911 H 0.83696 0.11473 0.86372 0.0
H3912 H 0.82326 0.12562 0.84096 0.0
H3913 H 0.82711 0.13488 0.84712 0.0
H3914 H 0.81923 0.12715 0.85214 0.0
H3915 H 0.82667 0.1209 0.86466 0.0
H3916 H 0.83744 0.12639 0.86494 0.0
C3917 C 0.86235 0.10427 0.83675 0.0
C3918 C 0.85444 0.11098 0.82284 0.0
C3919 C 0.85347 0.15319 0.86042 0.0
C3920 C 0.84632 0.15529 0.86621 0.0
C3921 C 0.83834 0.15021 0.86566 0.0
C3922 C 0.83772 0.14281 0.85996 0.0
C3923 C 0.84514 0.14042 0.85471 0.0
C3924 C 0.8527 0.14578 0.8547 0.0
C3925 C 0.85967 0.14246 0.84822 0.0
C3926 C 0.85526 0.13389 0.84484 0.0
C3927 C 0.84682 0.13271 0.84877 0.0
C3928 C 0.86839 0.1405 0.85349 0.0
C3929 C 0.86073 0.14955 0.84071 0.0
C3930 C 0.82511 0.10664 0.84969 0.0
C3931 C 0.82534 0.09783 0.84636 0.0
C3932 C 0.83238 0.09541 0.84051 0.0
C3933 C 0.83923 0.10155 0.83835 0.0
C3934 C 0.83911 0.1102 0.84213 0.0
C3935 C 0.83204 0.11261 0.8476 0.0
C3936 C 0.83306 0.12187 0.85138 0.0
C3937 C 0.84196 0.12465 0.84737 0.0
C3938 C 0.8455 0.11785 0.8419 0.0
C3939 C 0.8335 0.12103 0.8617 0.0
C3940 C 0.82525 0.12772 0.84781 0.0
H3941 H 0.87413 0.1395 0.83563 0.0
H3942 H 0.87526 0.10935 0.82154 0.0
H3943 H 0.8542 0.11717 0.8187 0.0
H3944 H 0.84738 0.10894 0.82377 0.0
H3945 H 0.85796 0.10572 0.81892 0.0
H3946 H 0.86784 0.10584 0.84154 0.0
H3947 H 0.86489 0.09912 0.83202 0.0
H3948 H 0.85698 0.10129 0.84086 0.0
H3949 H 0.85967 0.157 0.86057 0.0
H3950 H 0.83259 0.15186 0.86976 0.0
H3951 H 0.83155 0.1391 0.86006 0.0
H3952 H 0.86683 0.13678 0.85974 0.0
H3953 H 0.87186 0.14683 0.85537 0.0
H3954 H 0.87318 0.13624 0.84981 0.0
H3955 H 0.85468 0.15388 0.84012 0.0
H3956 H 0.86145 0.14644 0.83403 0.0
H3957 H 0.86656 0.15403 0.84198 0.0
H3958 H 0.88691 0.13545 0.82677 0.0
C3959 C 0.87409 0.13296 0.83267 0.0
C3960 C 0.66351 0.17651 0.6042 0.0
C3961 C 0.65862 0.18454 0.60546 0.0
C3962 C 0.65607 0.18697 0.6142 0.0
C3963 C 0.66145 0.17282 0.61983 0.0
C3964 C 0.66495 0.1708 0.61155 0.0
C3965 C 0.67005 0.16204 0.61172 0.0
H3966 H 0.68 0.12376 0.63447 0.0
C3967 C 0.66298 0.16516 0.62579 0.0
C3968 C 0.66821 0.15883 0.62121 0.0
H3969 H 0.68948 0.13142 0.60828 0.0
H3970 H 0.68164 0.14558 0.60951 0.0
H3971 H 0.68232 0.14354 0.64409 0.0
H3972 H 0.66067 0.12933 0.63139 0.0
H3973 H 0.65559 0.13602 0.63956 0.0
H3974 H 0.66345 0.12742 0.64286 0.0
H3975 H 0.67727 0.13349 0.64844 0.0
H3976 H 0.6727 0.1444 0.6509 0.0
C3977 C 0.68011 0.16416 0.61025 0.0
C3978 C 0.66597 0.15566 0.60465 0.0
C3979 C 0.64464 0.16321 0.65419 0.0
C3980 C 0.64321 0.15629 0.6604 0.0
C3981 C 0.64854 0.14848 0.65984 0.0
C3982 C 0.65492 0.14747 0.65304 0.0
C3983 C 0.65591 0.15426 0.64661 0.0
C3984 C 0.65089 0.16201 0.64734 0.0
C3985 C 0.65259 0.16841 0.63979 0.0
C3986 C 0.65927 0.16309 0.63426 0.0
C3987 C 0.66121 0.15485 0.6383 0.0
C3988 C 0.65681 0.17711 0.64368 0.0
C3989 C 0.64356 0.16982 0.63485 0.0
C3990 C 0.68039 0.12844 0.62896 0.0
C3991 C 0.68535 0.12639 0.62125 0.0
C3992 C 0.68579 0.13283 0.61434 0.0
C3993 C 0.68119 0.14104 0.61505 0.0
C3994 C 0.67609 0.14286 0.62273 0.0
C3995 C 0.67583 0.13661 0.62954 0.0
C3996 C 0.66994 0.13949 0.63714 0.0
C3997 C 0.66691 0.14862 0.63394 0.0
C3998 C 0.67046 0.15059 0.62545 0.0
C3999 C 0.6758 0.14023 0.64564 0.0
C4000 C 0.66202 0.13273 0.63787 0.0
H4001 H 0.65508 0.18332 0.62774 0.0
H4002 H 0.66586 0.17456 0.59764 0.0
H4003 H 0.65851 0.15572 0.60508 0.0
H4004 H 0.66799 0.14861 0.60557 0.0
H4005 H 0.66791 0.15778 0.59781 0.0
H4006 H 0.68201 0.17057 0.61358 0.0
H4007 H 0.68167 0.16484 0.60304 0.0
H4008 H 0.68459 0.15908 0.61323 0.0
H4009 H 0.64083 0.16939 0.65452 0.0
H4010 H 0.64757 0.14299 0.66447 0.0
H4011 H 0.65867 0.14133 0.65292 0.0
H4012 H 0.65977 0.176 0.65041 0.0
H4013 H 0.65173 0.18252 0.64434 0.0
H4014 H 0.66249 0.17958 0.63957 0.0
H4015 H 0.64019 0.16326 0.63361 0.0
H4016 H 0.64425 0.17299 0.62826 0.0
H4017 H 0.63893 0.17403 0.63888 0.0
H4018 H 0.65279 0.19332 0.61551 0.0
C4019 C 0.65744 0.18117 0.62135 0.0
C4020 C 0.67504 0.90289 0.33928 0.0
C4021 C 0.68303 0.90218 0.34428 0.0
C4022 C 0.68505 0.89402 0.34854 0.0
C4023 C 0.67101 0.88766 0.34346 0.0
C4024 C 0.66919 0.89547 0.33885 0.0
C4025 C 0.66052 0.89475 0.33365 0.0
H4026 H 0.62169 0.87171 0.32626 0.0
C4027 C 0.6634 0.88145 0.34224 0.0
C4028 C 0.65723 0.88546 0.3364 0.0
H4029 H 0.62987 0.89667 0.31407 0.0
H4030 H 0.64424 0.89586 0.32166 0.0
H4031 H 0.64093 0.86181 0.32323 0.0
H4032 H 0.62893 0.87569 0.34544 0.0
H4033 H 0.63441 0.86628 0.34981 0.0
H4034 H 0.62534 0.86471 0.34201 0.0
H4035 H 0.63196 0.85705 0.32968 0.0
H4036 H 0.64357 0.85567 0.33287 0.0
C4037 C 0.6628 0.89515 0.32359 0.0
C4038 C 0.65414 0.90227 0.33685 0.0
C4039 C 0.66167 0.8537 0.36173 0.0
C4040 C 0.6551 0.84702 0.36285 0.0
C4041 C 0.64758 0.84695 0.35714 0.0
C4042 C 0.64644 0.85364 0.35067 0.0
C4043 C 0.65288 0.86051 0.34991 0.0
C4044 C 0.66043 0.86033 0.35525 0.0
C4045 C 0.66663 0.86807 0.35344 0.0
C4046 C 0.66138 0.87313 0.34636 0.0
C4047 C 0.65333 0.8687 0.34436 0.0
C4048 C 0.67557 0.86427 0.34969 0.0
C4049 C 0.66757 0.87353 0.36221 0.0
C4050 C 0.62658 0.87701 0.32524 0.0
C4051 C 0.62462 0.88432 0.31968 0.0
C4052 C 0.63123 0.89098 0.31835 0.0
C4053 C 0.63955 0.89051 0.32279 0.0
C4054 C 0.64129 0.88327 0.32856 0.0
C4055 C 0.63492 0.87658 0.32951 0.0
C4056 C 0.63794 0.86923 0.33564 0.0
C4057 C 0.64712 0.87263 0.33836 0.0
C4058 C 0.64907 0.88092 0.33428 0.0
C4059 C 0.63859 0.86043 0.33015 0.0
C4060 C 0.63133 0.86885 0.34364 0.0
H4061 H 0.681 0.88083 0.35168 0.0
H4062 H 0.67342 0.90904 0.3358 0.0
H4063 H 0.65407 0.90261 0.34427 0.0
H4064 H 0.64712 0.90118 0.33482 0.0
H4065 H 0.65635 0.9089 0.33428 0.0
H4066 H 0.6692 0.89157 0.32217 0.0
H4067 H 0.66358 0.9022 0.32132 0.0
H4068 H 0.65774 0.89174 0.3194 0.0
H4069 H 0.66761 0.85383 0.36591 0.0
H4070 H 0.64241 0.84189 0.35788 0.0
H4071 H 0.64048 0.85331 0.34667 0.0
H4072 H 0.67455 0.85767 0.34636 0.0
H4073 H 0.68058 0.86329 0.35508 0.0
H4074 H 0.67849 0.86859 0.34443 0.0
H4075 H 0.66097 0.87411 0.36564 0.0
H4076 H 0.66981 0.8805 0.36119 0.0
H4077 H 0.6723 0.8702 0.36688 0.0
H4078 H 0.69114 0.89331 0.35243 0.0
C4079 C 0.67912 0.88678 0.34814 0.0
C4080 C 0.82307 0.87513 0.11808 0.0
C4081 C 0.82207 0.88224 0.12425 0.0
C4082 C 0.8256 0.8812 0.13292 0.0
C4083 C 0.83185 0.86679 0.12893 0.0
C4084 C 0.82795 0.86745 0.12059 0.0
C4085 C 0.8299 0.85927 0.11494 0.0
H4086 H 0.8534 0.82043 0.11014 0.0
C4087 C 0.83698 0.85835 0.12933 0.0
C4088 C 0.83582 0.8538 0.12119 0.0
H4089 H 0.83525 0.8324 0.09103 0.0
H4090 H 0.83183 0.84425 0.10152 0.0
H4091 H 0.86242 0.83793 0.11639 0.0
H4092 H 0.84019 0.82295 0.12701 0.0
H4093 H 0.8463 0.82683 0.13626 0.0
H4094 H 0.85161 0.81936 0.12834 0.0
H4095 H 0.86384 0.82751 0.12222 0.0
H4096 H 0.86367 0.83812 0.128 0.0
C4097 C 0.83502 0.86235 0.1065 0.0
C4098 C 0.82091 0.85446 0.113 0.0
C4099 C 0.85771 0.85273 0.15567 0.0
C4100 C 0.86374 0.84575 0.15767 0.0
C4101 C 0.86396 0.83812 0.15211 0.0
C4102 C 0.85856 0.8376 0.14449 0.0
C4103 C 0.85291 0.84482 0.14233 0.0
C4104 C 0.85235 0.8521 0.14802 0.0
C4105 C 0.84577 0.859 0.14476 0.0
C4106 C 0.84279 0.85484 0.13598 0.0
C4107 C 0.84707 0.8466 0.13458 0.0
C4108 C 0.85096 0.86792 0.14333 0.0
C4109 C 0.83796 0.85957 0.15158 0.0
C4110 C 0.84855 0.82547 0.10821 0.0
C4111 C 0.84464 0.82542 0.09967 0.0
C4112 C 0.83851 0.83231 0.09748 0.0
C4113 C 0.83648 0.83918 0.10361 0.0
C4114 C 0.84061 0.83919 0.11205 0.0
C4115 C 0.84642 0.83231 0.11423 0.0
C4116 C 0.85023 0.83328 0.12343 0.0
C4117 C 0.84586 0.84193 0.12642 0.0
C4118 C 0.84024 0.84545 0.11975 0.0
C4119 C 0.86058 0.8342 0.12256 0.0
C4120 C 0.84702 0.82518 0.12909 0.0
H4121 H 0.83309 0.87332 0.14192 0.0
H4122 H 0.82036 0.87565 0.1114 0.0
H4123 H 0.81657 0.85443 0.11904 0.0
H4124 H 0.82178 0.84733 0.1112 0.0
H4125 H 0.81718 0.8579 0.10758 0.0
H4126 H 0.84018 0.86747 0.10825 0.0
H4127 H 0.83035 0.8654 0.10158 0.0
H4128 H 0.83873 0.85687 0.10321 0.0
H4129 H 0.85729 0.85861 0.1599 0.0
H4130 H 0.86858 0.83267 0.15346 0.0
H4131 H 0.85922 0.8317 0.14044 0.0
H4132 H 0.85751 0.86663 0.14001 0.0
H4133 H 0.85234 0.87128 0.14981 0.0
H4134 H 0.84744 0.8727 0.13896 0.0
H4135 H 0.83724 0.85324 0.15545 0.0
H4136 H 0.83135 0.86046 0.1483 0.0
H4137 H 0.83904 0.8651 0.15644 0.0
H4138 H 0.82468 0.88637 0.13792 0.0
C4139 C 0.83046 0.87356 0.13527 0.0
C4140 C 0.16385 0.67568 0.10133 0.0
C4141 C 0.15859 0.68352 0.102 0.0
C4142 C 0.15422 0.68543 0.11011 0.0
C4143 C 0.15998 0.67177 0.1166 0.0
C4144 C 0.16454 0.66996 0.10877 0.0
C4145 C 0.16993 0.6614 0.10947 0.0
H4146 H 0.18112 0.62469 0.13408 0.0
C4147 C 0.16174 0.66445 0.12295 0.0
C4148 C 0.16767 0.65836 0.11891 0.0
H4149 H 0.18938 0.63085 0.10708 0.0
H4150 H 0.18153 0.645 0.10785 0.0
H4151 H 0.18355 0.64464 0.14219 0.0
H4152 H 0.16101 0.6303 0.13116 0.0
H4153 H 0.15708 0.6361 0.14054 0.0
H4154 H 0.16563 0.62768 0.14191 0.0
H4155 H 0.17807 0.63567 0.14806 0.0
H4156 H 0.1742 0.64713 0.14889 0.0
C4157 C 0.17998 0.66381 0.10849 0.0
C4158 C 0.16641 0.65475 0.10235 0.0
C4159 C 0.14383 0.66319 0.15168 0.0
C4160 C 0.14361 0.65708 0.15884 0.0
C4161 C 0.15006 0.65014 0.15908 0.0
C4162 C 0.15622 0.64901 0.15212 0.0
C4163 C 0.15602 0.65489 0.14481 0.0
C4164 C 0.1501 0.66201 0.14483 0.0
C4165 C 0.1511 0.66782 0.13671 0.0
C4166 C 0.15823 0.66272 0.13157 0.0
C4167 C 0.16104 0.65513 0.13631 0.0
C4168 C 0.15451 0.67718 0.13979 0.0
C4169 C 0.14197 0.66792 0.13174 0.0
C4170 C 0.18121 0.62901 0.12827 0.0
C4171 C 0.18585 0.62652 0.12048 0.0
C4172 C 0.18594 0.63256 0.11321 0.0
C4173 C 0.18128 0.64076 0.11363 0.0
C4174 C 0.1764 0.64295 0.12135 0.0
C4175 C 0.17651 0.63713 0.12853 0.0
C4176 C 0.17076 0.64032 0.13611 0.0
C4177 C 0.16716 0.64902 0.13235 0.0
C4178 C 0.17047 0.65059 0.12369 0.0
C4179 C 0.17689 0.64198 0.1443 0.0
C4180 C 0.16324 0.63326 0.13761 0.0
H4181 H 0.15128 0.68147 0.12328 0.0
H4182 H 0.16737 0.67408 0.0952 0.0
H4183 H 0.15896 0.65508 0.10188 0.0
H4184 H 0.16792 0.64768 0.10393 0.0
H4185 H 0.16919 0.65635 0.09566 0.0
H4186 H 0.18157 0.67006 0.11225 0.0
H4187 H 0.18176 0.66494 0.10139 0.0
H4188 H 0.18447 0.65864 0.11129 0.0
H4189 H 0.13902 0.66861 0.1512 0.0
H4190 H 0.1503 0.6455 0.16463 0.0
H4191 H 0.1608 0.64348 0.15263 0.0
H4192 H 0.15816 0.67679 0.14626 0.0
H4193 H 0.14886 0.68195 0.14069 0.0
H4194 H 0.15946 0.68011 0.13511 0.0
H4195 H 0.13888 0.66111 0.13174 0.0
H4196 H 0.14253 0.66975 0.12464 0.0
H4197 H 0.13718 0.67259 0.13501 0.0
H4198 H 0.15005 0.69135 0.11077 0.0
C4199 C 0.1549 0.67964 0.11738 0.0
C4200 C 0.17464 0.40267 0.83917 0.0
C4201 C 0.18238 0.40204 0.84457 0.0
C4202 C 0.18405 0.39398 0.84919 0.0
C4203 C 0.17029 0.38756 0.84349 0.0
C4204 C 0.16872 0.3953 0.83867 0.0
C4205 C 0.16016 0.39462 0.8333 0.0
H4206 H 0.12101 0.37217 0.82576 0.0
C4207 C 0.16266 0.38141 0.84215 0.0
C4208 C 0.15666 0.38544 0.83615 0.0
H4209 H 0.12991 0.39663 0.81309 0.0
H4210 H 0.14415 0.39571 0.82093 0.0
H4211 H 0.14048 0.36184 0.82327 0.0
H4212 H 0.12772 0.37622 0.8447 0.0
H4213 H 0.13349 0.36728 0.84965 0.0
H4214 H 0.12456 0.36495 0.84184 0.0
H4215 H 0.13092 0.35756 0.82921 0.0
H4216 H 0.14222 0.35568 0.83311 0.0
C4217 C 0.16267 0.39478 0.82329 0.0
C4218 C 0.15384 0.4023 0.8362 0.0
C4219 C 0.16079 0.35337 0.8612 0.0
C4220 C 0.15399 0.34696 0.86257 0.0
C4221 C 0.14623 0.34729 0.85718 0.0
C4222 C 0.14514 0.35404 0.85077 0.0
C4223 C 0.15183 0.36061 0.84976 0.0
C4224 C 0.15953 0.36013 0.85485 0.0
C4225 C 0.16581 0.36782 0.8531 0.0
C4226 C 0.16051 0.37311 0.84625 0.0
C4227 C 0.15238 0.36884 0.84426 0.0
C4228 C 0.17454 0.36394 0.84902 0.0
C4229 C 0.1671 0.37307 0.86198 0.0
C4230 C 0.12604 0.37732 0.82468 0.0
C4231 C 0.12433 0.38454 0.81892 0.0
C4232 C 0.13109 0.39102 0.81753 0.0
C4233 C 0.13932 0.3905 0.82212 0.0
C4234 C 0.14082 0.38337 0.82809 0.0
C4235 C 0.1343 0.37682 0.82908 0.0
C4236 C 0.13709 0.36953 0.83538 0.0
C4237 C 0.14629 0.37282 0.83817 0.0
C4238 C 0.14846 0.381 0.83398 0.0
C4239 C 0.13767 0.36064 0.83004 0.0
C4240 C 0.13038 0.36939 0.8433 0.0
H4241 H 0.17974 0.38092 0.85246 0.0
H4242 H 0.17324 0.40873 0.83544 0.0
H4243 H 0.15359 0.40279 0.84361 0.0
H4244 H 0.14685 0.4013 0.83402 0.0
H4245 H 0.15623 0.40885 0.83357 0.0
H4246 H 0.16903 0.39104 0.82208 0.0
H4247 H 0.16366 0.40177 0.8209 0.0
H4248 H 0.15764 0.39141 0.81904 0.0
H4249 H 0.1669 0.35328 0.86511 0.0
H4250 H 0.14082 0.34252 0.85812 0.0
H4251 H 0.13901 0.354 0.84701 0.0
H4252 H 0.17301 0.35827 0.84441 0.0
H4253 H 0.17908 0.36136 0.8543 0.0
H4254 H 0.17822 0.36885 0.84486 0.0
H4255 H 0.16123 0.37225 0.8665 0.0
H4256 H 0.1676 0.38041 0.861 0.0
H4257 H 0.17313 0.3707 0.86564 0.0
H4258 H 0.18985 0.39332 0.85349 0.0
C4259 C 0.1781 0.38677 0.84865 0.0
C4260 C 0.32168 0.37426 0.61889 0.0
C4261 C 0.32059 0.38133 0.62506 0.0
C4262 C 0.32477 0.38067 0.63348 0.0
C4263 C 0.33133 0.36641 0.62937 0.0
C4264 C 0.32702 0.36684 0.62122 0.0
C4265 C 0.32895 0.35869 0.61553 0.0
H4266 H 0.35332 0.32055 0.60988 0.0
C4267 C 0.33675 0.35813 0.62959 0.0
C4268 C 0.33535 0.3535 0.62152 0.0
H4269 H 0.3339 0.33177 0.59156 0.0
H4270 H 0.33068 0.34366 0.60209 0.0
H4271 H 0.36228 0.33758 0.61518 0.0
H4272 H 0.34067 0.32317 0.62754 0.0
H4273 H 0.34764 0.32687 0.63624 0.0
H4274 H 0.35212 0.31945 0.62781 0.0
H4275 H 0.36425 0.32804 0.62219 0.0
H4276 H 0.3638 0.3393 0.62663 0.0
C4277 C 0.33354 0.36187 0.60683 0.0
C4278 C 0.32005 0.35356 0.61407 0.0
C4279 C 0.35858 0.35291 0.65522 0.0
C4280 C 0.36513 0.34627 0.65665 0.0
C4281 C 0.36552 0.33883 0.65087 0.0
C4282 C 0.3598 0.33818 0.64353 0.0
C4283 C 0.35362 0.34509 0.64187 0.0
C4284 C 0.35293 0.35219 0.64775 0.0
C4285 C 0.34601 0.35891 0.64477 0.0
C4286 C 0.34292 0.35479 0.636 0.0
C4287 C 0.34742 0.34672 0.63437 0.0
C4288 C 0.35081 0.36805 0.64338 0.0
C4289 C 0.33837 0.35906 0.65179 0.0
C4290 C 0.34822 0.32542 0.60814 0.0
C4291 C 0.3439 0.32515 0.59981 0.0
C4292 C 0.33748 0.33185 0.59785 0.0
C4293 C 0.33557 0.33874 0.604 0.0
C4294 C 0.34011 0.33896 0.61222 0.0
C4295 C 0.3462 0.33226 0.61418 0.0
C4296 C 0.35044 0.33343 0.62317 0.0
C4297 C 0.346 0.34199 0.6263 0.0
C4298 C 0.33996 0.34528 0.61989 0.0
C4299 C 0.36072 0.33459 0.62181 0.0
C4300 C 0.34767 0.32531 0.62903 0.0
H4301 H 0.33314 0.37327 0.64213 0.0
H4302 H 0.31845 0.37449 0.61242 0.0
H4303 H 0.316 0.35346 0.6203 0.0
H4304 H 0.32109 0.34643 0.61232 0.0
H4305 H 0.31595 0.35679 0.60878 0.0
H4306 H 0.3386 0.36718 0.60829 0.0
H4307 H 0.32854 0.36472 0.60213 0.0
H4308 H 0.33727 0.3565 0.6034 0.0
H4309 H 0.35814 0.35872 0.65955 0.0
H4310 H 0.3704 0.33355 0.65196 0.0
H4311 H 0.3606 0.33243 0.63931 0.0
H4312 H 0.35756 0.36704 0.64036 0.0
H4313 H 0.35175 0.3716 0.64983 0.0
H4314 H 0.34729 0.37254 0.63871 0.0
H4315 H 0.33744 0.35232 0.65486 0.0
H4316 H 0.33176 0.36067 0.64886 0.0
H4317 H 0.33987 0.36387 0.65725 0.0
H4318 H 0.32415 0.38603 0.63833 0.0
C4319 C 0.33008 0.37327 0.63566 0.0
C4320 C 0.1755 0.60346 0.66439 0.0
C4321 C 0.18288 0.60393 0.65849 0.0
C4322 C 0.18481 0.61212 0.65423 0.0
C4323 C 0.17163 0.61887 0.66077 0.0
C4324 C 0.16994 0.61104 0.66541 0.0
C4325 C 0.16148 0.61176 0.67094 0.0
H4326 H 0.12361 0.63555 0.68044 0.0
C4327 C 0.16423 0.62519 0.66249 0.0
C4328 C 0.15823 0.62114 0.66849 0.0
H4329 H 0.13109 0.60966 0.69105 0.0
H4330 H 0.14533 0.61047 0.68323 0.0
H4331 H 0.14361 0.64481 0.68268 0.0
H4332 H 0.12911 0.63196 0.66142 0.0
H4333 H 0.1355 0.64035 0.65629 0.0
H4334 H 0.12709 0.64344 0.66441 0.0
H4335 H 0.134 0.64968 0.67734 0.0
H4336 H 0.14518 0.65131 0.67302 0.0
C4337 C 0.16413 0.61115 0.68089 0.0
C4338 C 0.15487 0.60438 0.66785 0.0
C4339 C 0.16245 0.6536 0.64395 0.0
C4340 C 0.15575 0.66017 0.64298 0.0
C4341 C 0.14832 0.66006 0.6488 0.0
C4342 C 0.14737 0.65331 0.65522 0.0
C4343 C 0.15388 0.64652 0.65581 0.0
C4344 C 0.16135 0.64686 0.65036 0.0
C4345 C 0.16744 0.63895 0.65172 0.0
C4346 C 0.16225 0.63367 0.65869 0.0
C4347 C 0.15437 0.63816 0.66109 0.0
C4348 C 0.17645 0.64251 0.65552 0.0
C4349 C 0.16821 0.63383 0.64271 0.0
C4350 C 0.12828 0.63002 0.68108 0.0
C4351 C 0.12614 0.62248 0.68627 0.0
C4352 C 0.13256 0.61555 0.68708 0.0
C4353 C 0.14079 0.616 0.68248 0.0
C4354 C 0.14263 0.62344 0.67699 0.0
C4355 C 0.13646 0.63035 0.67653 0.0
C4356 C 0.13939 0.63776 0.67044 0.0
C4357 C 0.14833 0.63419 0.66723 0.0
C4358 C 0.15024 0.62577 0.67102 0.0
C4359 C 0.14057 0.6464 0.67609 0.0
C4360 C 0.13243 0.63852 0.66275 0.0
H4361 H 0.18104 0.6255 0.65173 0.0
H4362 H 0.1739 0.59726 0.66781 0.0
H4363 H 0.15474 0.60395 0.66044 0.0
H4364 H 0.14788 0.60568 0.66987 0.0
H4365 H 0.1569 0.59771 0.67048 0.0
H4366 H 0.17037 0.61506 0.6822 0.0
H4367 H 0.1654 0.60408 0.68286 0.0
H4368 H 0.15902 0.61405 0.68537 0.0
H4369 H 0.1682 0.65344 0.63953 0.0
H4370 H 0.14315 0.66514 0.64829 0.0
H4371 H 0.14147 0.65352 0.65932 0.0
H4372 H 0.17529 0.6482 0.66019 0.0
H4373 H 0.1809 0.64495 0.65009 0.0
H4374 H 0.18007 0.63746 0.65953 0.0
H4375 H 0.16211 0.63478 0.63853 0.0
H4376 H 0.16868 0.62648 0.64352 0.0
H4377 H 0.17406 0.63622 0.63877 0.0
H4378 H 0.19057 0.61272 0.64984 0.0
C4379 C 0.17927 0.61957 0.65535 0.0
C4380 C 0.37434 0.38819 0.18341 0.0
C4381 C 0.3817 0.38226 0.18391 0.0
C4382 C 0.38103 0.37375 0.17986 0.0
C4383 C 0.36633 0.37745 0.17412 0.0
C4384 C 0.36671 0.38563 0.17845 0.0
C4385 C 0.35839 0.39116 0.17671 0.0
H4386 H 0.31933 0.39563 0.15347 0.0
C4387 C 0.35791 0.37701 0.16899 0.0
C4388 C 0.35312 0.38499 0.17051 0.0
H4389 H 0.33132 0.41505 0.17132 0.0
H4390 H 0.34308 0.40445 0.17501 0.0
H4391 H 0.33652 0.39038 0.14413 0.0
H4392 H 0.32273 0.37819 0.16618 0.0
H4393 H 0.32647 0.36937 0.15935 0.0
H4394 H 0.31872 0.37754 0.1549 0.0
H4395 H 0.32671 0.38357 0.1426 0.0
H4396 H 0.33784 0.37882 0.14265 0.0
C4397 C 0.36128 0.39995 0.17202 0.0
C4398 C 0.35348 0.3926 0.18567 0.0
C4399 C 0.35309 0.35129 0.14724 0.0
C4400 C 0.34622 0.34937 0.14108 0.0
C4401 C 0.3384 0.35467 0.14112 0.0
C4402 C 0.3376 0.36202 0.14688 0.0
C4403 C 0.34473 0.36415 0.15264 0.0
C4404 C 0.35219 0.35868 0.15295 0.0
C4405 C 0.35901 0.36191 0.15961 0.0
C4406 C 0.35458 0.37046 0.16295 0.0
C4407 C 0.34628 0.37176 0.15878 0.0
C4408 C 0.36787 0.36384 0.15451 0.0
C4409 C 0.35978 0.35476 0.16709 0.0
C4410 C 0.32449 0.39767 0.15814 0.0
C4411 C 0.32444 0.40626 0.16198 0.0
C4412 C 0.33119 0.40848 0.16824 0.0
C4413 C 0.33807 0.40234 0.17031 0.0
C4414 C 0.33824 0.39393 0.16604 0.0
C4415 C 0.33141 0.3917 0.1602 0.0
C4416 C 0.33261 0.38261 0.15611 0.0
C4417 C 0.34137 0.37974 0.16032 0.0
C4418 C 0.34471 0.38635 0.16617 0.0
C4419 C 0.33341 0.38381 0.14584 0.0
C4420 C 0.32471 0.37657 0.1592 0.0
H4421 H 0.37344 0.3648 0.17198 0.0
H4422 H 0.37466 0.39475 0.1865 0.0
H4423 H 0.35332 0.38626 0.18958 0.0
H4424 H 0.34639 0.39456 0.1848 0.0
H4425 H 0.35694 0.39777 0.18977 0.0
H4426 H 0.36659 0.39859 0.16698 0.0
H4427 H 0.36402 0.40485 0.17692 0.0
H4428 H 0.35578 0.40316 0.16829 0.0
H4429 H 0.35912 0.34723 0.14749 0.0
H4430 H 0.33302 0.35337 0.13642 0.0
H4431 H 0.33157 0.36591 0.14641 0.0
H4432 H 0.36645 0.36702 0.14794 0.0
H4433 H 0.37163 0.35754 0.15323 0.0
H4434 H 0.37233 0.36861 0.15797 0.0
H4435 H 0.35342 0.35091 0.16786 0.0
H4436 H 0.36094 0.35777 0.17375 0.0
H4437 H 0.3652 0.34986 0.16562 0.0
H4438 H 0.3865 0.36899 0.18033 0.0
C4439 C 0.3734 0.37131 0.17502 0.0
C4440 C 0.65401 0.4263 0.09242 0.0
C4441 C 0.65312 0.43435 0.09732 0.0
C4442 C 0.64476 0.43643 0.10119 0.0
C4443 C 0.6386 0.42235 0.09598 0.0
C4444 C 0.64661 0.42045 0.09174 0.0
C4445 C 0.6462 0.41161 0.08681 0.0
H4446 H 0.62255 0.37364 0.07702 0.0
C4447 C 0.63249 0.41467 0.09468 0.0
C4448 C 0.63681 0.40836 0.08921 0.0
H4449 H 0.64925 0.38057 0.06818 0.0
H4450 H 0.64835 0.39478 0.07604 0.0
H4451 H 0.62565 0.37859 0.09601 0.0
H4452 H 0.61324 0.39423 0.07534 0.0
H4453 H 0.60643 0.39451 0.085 0.0
H4454 H 0.60882 0.38392 0.07975 0.0
H4455 H 0.6139 0.37758 0.09366 0.0
H4456 H 0.61815 0.38571 0.10157 0.0
C4457 C 0.65357 0.40538 0.09059 0.0
C4458 C 0.64709 0.41358 0.07672 0.0
C4459 C 0.60392 0.4133 0.11294 0.0
C4460 C 0.59762 0.40643 0.1145 0.0
C4461 C 0.59803 0.39859 0.1092 0.0
C4462 C 0.60475 0.3975 0.10275 0.0
C4463 C 0.61128 0.40421 0.10167 0.0
C4464 C 0.61072 0.41199 0.10664 0.0
C4465 C 0.61847 0.41821 0.10498 0.0
C4466 C 0.62396 0.41273 0.09842 0.0
C4467 C 0.61966 0.40462 0.0964 0.0
C4468 C 0.62344 0.41967 0.11398 0.0
C4469 C 0.61476 0.42687 0.10061 0.0
C4470 C 0.62813 0.3783 0.07665 0.0
C4471 C 0.63594 0.37608 0.07191 0.0
C4472 C 0.64317 0.38219 0.0718 0.0
C4473 C 0.64262 0.39042 0.07635 0.0
C4474 C 0.63482 0.39249 0.08122 0.0
C4475 C 0.62775 0.38645 0.08131 0.0
C4476 C 0.62026 0.3894 0.08732 0.0
C4477 C 0.6238 0.39837 0.09056 0.0
C4478 C 0.63233 0.4002 0.08697 0.0
C4479 C 0.61935 0.38248 0.09502 0.0
C4480 C 0.61168 0.39055 0.08161 0.0
H4481 H 0.63143 0.43244 0.1038 0.0
H4482 H 0.66031 0.42458 0.08925 0.0
H4483 H 0.64312 0.41962 0.07487 0.0
H4484 H 0.64444 0.40812 0.07249 0.0
H4485 H 0.6542 0.41487 0.07488 0.0
H4486 H 0.65405 0.40611 0.09797 0.0
H4487 H 0.66024 0.40706 0.08771 0.0
H4488 H 0.65218 0.3982 0.08944 0.0
H4489 H 0.60375 0.4195 0.1167 0.0
H4490 H 0.59336 0.39311 0.11024 0.0
H4491 H 0.60474 0.39135 0.09902 0.0
H4492 H 0.62325 0.41348 0.11812 0.0
H4493 H 0.62028 0.42515 0.1179 0.0
H4494 H 0.63066 0.42114 0.11321 0.0
H4495 H 0.60882 0.42537 0.09634 0.0
H4496 H 0.61962 0.43008 0.09603 0.0
H4497 H 0.61262 0.43181 0.10574 0.0
H4498 H 0.64389 0.44253 0.10504 0.0
C4499 C 0.63752 0.43051 0.10052 0.0
C4500 C 0.86786 0.62682 0.57304 0.0
C4501 C 0.87386 0.63415 0.57264 0.0
C4502 C 0.8822 0.63351 0.57702 0.0
C4503 C 0.8783 0.6188 0.58262 0.0
C4504 C 0.87022 0.61922 0.5781 0.0
C4505 C 0.86453 0.61099 0.5798 0.0
H4506 H 0.85964 0.57137 0.6019 0.0
C4507 C 0.87862 0.61028 0.5876 0.0
C4508 C 0.8706 0.60558 0.58595 0.0
H4509 H 0.83988 0.58472 0.58547 0.0
H4510 H 0.85074 0.59624 0.58176 0.0
H4511 H 0.87649 0.57452 0.58916 0.0
H4512 H 0.86585 0.58881 0.61173 0.0
H4513 H 0.8775 0.58835 0.61317 0.0
H4514 H 0.87121 0.57806 0.61265 0.0
H4515 H 0.87818 0.57069 0.60038 0.0
H4516 H 0.88583 0.5785 0.59511 0.0
C4517 C 0.86296 0.60614 0.57082 0.0
C4518 C 0.8558 0.61401 0.58454 0.0
C4519 C 0.90427 0.60452 0.60921 0.0
C4520 C 0.90632 0.59723 0.61483 0.0
C4521 C 0.90127 0.58925 0.61398 0.0
C4522 C 0.89391 0.58878 0.60822 0.0
C4523 C 0.89155 0.59634 0.60316 0.0
C4524 C 0.89693 0.60388 0.60339 0.0
C4525 C 0.8937 0.61101 0.59706 0.0
C4526 C 0.88518 0.60669 0.59346 0.0
C4527 C 0.8839 0.59818 0.59718 0.0
C4528 C 0.9009 0.61221 0.58967 0.0
C4529 C 0.89167 0.6196 0.60254 0.0
C4530 C 0.85756 0.5768 0.59757 0.0
C4531 C 0.8488 0.57716 0.59413 0.0
C4532 C 0.84657 0.58423 0.58825 0.0
C4533 C 0.85286 0.59099 0.58618 0.0
C4534 C 0.86144 0.59075 0.5901 0.0
C4535 C 0.86366 0.58364 0.59559 0.0
C4536 C 0.87288 0.58451 0.59948 0.0
C4537 C 0.87584 0.5934 0.59557 0.0
C4538 C 0.86917 0.59705 0.59001 0.0
C4539 C 0.87868 0.57664 0.59594 0.0
C4540 C 0.87191 0.58491 0.60979 0.0
H4541 H 0.89085 0.62595 0.58521 0.0
H4542 H 0.86138 0.62713 0.56978 0.0
H4543 H 0.85717 0.61964 0.58924 0.0
H4544 H 0.85281 0.6087 0.58873 0.0
H4545 H 0.85073 0.61635 0.57964 0.0
H4546 H 0.86936 0.60565 0.56701 0.0
H4547 H 0.85805 0.60986 0.56665 0.0
H4548 H 0.86057 0.59918 0.57166 0.0
H4549 H 0.90802 0.61074 0.60957 0.0
H4550 H 0.90289 0.58338 0.61791 0.0
H4551 H 0.8902 0.58261 0.60811 0.0
H4552 H 0.90493 0.606 0.58872 0.0
H4553 H 0.90563 0.61772 0.59134 0.0
H4554 H 0.89791 0.61349 0.58302 0.0
H4555 H 0.88826 0.61785 0.60892 0.0
H4556 H 0.88708 0.62427 0.59915 0.0
H4557 H 0.89796 0.62325 0.60421 0.0
H4558 H 0.88698 0.63899 0.57669 0.0
C4559 C 0.88446 0.6259 0.58195 0.0
C4560 C 0.59249 0.39424 0.60298 0.0
C4561 C 0.59908 0.39342 0.59631 0.0
C4562 C 0.60643 0.3994 0.59636 0.0
C4563 C 0.60099 0.40624 0.61 0.0
C4564 C 0.59358 0.40066 0.60971 0.0
C4565 C 0.58749 0.40198 0.61757 0.0
H4566 H 0.57973 0.41975 0.6582 0.0
C4567 C 0.60048 0.41154 0.61833 0.0
C4568 C 0.59261 0.40906 0.62279 0.0
H4569 H 0.56402 0.40038 0.64325 0.0
H4570 H 0.57398 0.4017 0.63094 0.0
H4571 H 0.59917 0.41144 0.65268 0.0
H4572 H 0.58428 0.43314 0.64048 0.0
H4573 H 0.59561 0.43628 0.64187 0.0
H4574 H 0.5888 0.43403 0.65157 0.0
H4575 H 0.59718 0.42185 0.65842 0.0
H4576 H 0.60635 0.42061 0.6507 0.0
C4577 C 0.58684 0.39293 0.62269 0.0
C4578 C 0.57844 0.40566 0.61404 0.0
C4579 C 0.62642 0.43186 0.6266 0.0
C4580 C 0.62842 0.43721 0.63408 0.0
C4581 C 0.62195 0.43788 0.64096 0.0
C4582 C 0.61377 0.43317 0.64045 0.0
C4583 C 0.61202 0.42767 0.63301 0.0
C4584 C 0.61826 0.42724 0.62619 0.0
C4585 C 0.6154 0.42108 0.6188 0.0
C4586 C 0.60646 0.41779 0.62229 0.0
C4587 C 0.60445 0.42163 0.63064 0.0
C4588 C 0.6224 0.4134 0.61807 0.0
C4589 C 0.61427 0.42675 0.61021 0.0
C4590 C 0.57846 0.41579 0.65227 0.0
C4591 C 0.57093 0.41002 0.65175 0.0
C4592 C 0.56955 0.40506 0.64384 0.0
C4593 C 0.57545 0.40575 0.63667 0.0
C4594 C 0.583 0.41132 0.63734 0.0
C4595 C 0.5844 0.41634 0.64497 0.0
C4596 C 0.59292 0.42184 0.64435 0.0
C4597 C 0.59643 0.41909 0.63519 0.0
C4598 C 0.59054 0.41292 0.63119 0.0
C4599 C 0.59927 0.41887 0.65195 0.0
C4600 C 0.59034 0.43188 0.64464 0.0
H4601 H 0.61325 0.41002 0.60289 0.0
H4602 H 0.5868 0.38971 0.60322 0.0
H4603 H 0.57953 0.41036 0.60837 0.0
H4604 H 0.57475 0.40966 0.61906 0.0
H4605 H 0.57406 0.40013 0.61161 0.0
H4606 H 0.59296 0.38877 0.6217 0.0
H4607 H 0.58099 0.38891 0.62039 0.0
H4608 H 0.58643 0.3938 0.63001 0.0
H4609 H 0.63123 0.43103 0.62125 0.0
H4610 H 0.62321 0.44205 0.64674 0.0
H4611 H 0.60916 0.43392 0.64589 0.0
H4612 H 0.62533 0.41179 0.62471 0.0
H4613 H 0.62801 0.4153 0.61357 0.0
H4614 H 0.61947 0.40699 0.61576 0.0
H4615 H 0.61134 0.43344 0.6118 0.0
H4616 H 0.60955 0.42372 0.60538 0.0
H4617 H 0.62083 0.4279 0.60689 0.0
H4618 H 0.61151 0.39905 0.5912 0.0
C4619 C 0.60741 0.4058 0.60315 0.0
C4620 C 0.32159 0.63191 0.88498 0.0
C4621 C 0.32118 0.62445 0.87918 0.0
C4622 C 0.32543 0.62497 0.87081 0.0
C4623 C 0.33115 0.63973 0.87437 0.0
C4624 C 0.32665 0.63948 0.88244 0.0
C4625 C 0.32836 0.64787 0.88787 0.0
H4626 H 0.35228 0.68656 0.89272 0.0
C4627 C 0.33633 0.64816 0.87392 0.0
C4628 C 0.33471 0.65304 0.88179 0.0
H4629 H 0.33353 0.67507 0.91152 0.0
H4630 H 0.32982 0.66332 0.90091 0.0
H4631 H 0.36129 0.66878 0.88717 0.0
H4632 H 0.33968 0.68371 0.87536 0.0
H4633 H 0.34604 0.67949 0.86645 0.0
H4634 H 0.35118 0.68714 0.87431 0.0
H4635 H 0.36303 0.67912 0.88127 0.0
H4636 H 0.36304 0.66844 0.87563 0.0
C4637 C 0.33291 0.64507 0.89672 0.0
C4638 C 0.31934 0.65282 0.8891 0.0
C4639 C 0.35842 0.65276 0.8485 0.0
C4640 C 0.36452 0.65969 0.84651 0.0
C4641 C 0.36441 0.66758 0.8517 0.0
C4642 C 0.35862 0.66839 0.85901 0.0
C4643 C 0.35291 0.66122 0.86121 0.0
C4644 C 0.35266 0.6537 0.85583 0.0
C4645 C 0.34594 0.64689 0.85904 0.0
C4646 C 0.3425 0.65141 0.86747 0.0
C4647 C 0.34669 0.65972 0.86874 0.0
C4648 C 0.35107 0.63808 0.86109 0.0
C4649 C 0.33848 0.64601 0.85187 0.0
C4650 C 0.3474 0.6815 0.89459 0.0
C4651 C 0.34332 0.68166 0.90302 0.0
C4652 C 0.3368 0.67508 0.90507 0.0
C4653 C 0.33472 0.66822 0.89893 0.0
C4654 C 0.33921 0.66792 0.89068 0.0
C4655 C 0.34527 0.67464 0.88858 0.0
C4656 C 0.34944 0.67339 0.87957 0.0
C4657 C 0.3451 0.66469 0.87664 0.0
C4658 C 0.3391 0.66144 0.88314 0.0
C4659 C 0.35974 0.67244 0.88088 0.0
C4660 C 0.34653 0.68135 0.87358 0.0
H4661 H 0.33354 0.63241 0.86196 0.0
H4662 H 0.31836 0.6317 0.89145 0.0
H4663 H 0.31545 0.65281 0.88276 0.0
H4664 H 0.32021 0.65996 0.89087 0.0
H4665 H 0.31516 0.64951 0.89429 0.0
H4666 H 0.338 0.63975 0.8955 0.0
H4667 H 0.3279 0.64239 0.90152 0.0
H4668 H 0.33663 0.6506 0.89994 0.0
H4669 H 0.35823 0.64669 0.84452 0.0
H4670 H 0.36906 0.67301 0.85032 0.0
H4671 H 0.35904 0.67447 0.86282 0.0
H4672 H 0.35766 0.63956 0.86426 0.0
H4673 H 0.35237 0.63422 0.85488 0.0
H4674 H 0.34757 0.63368 0.86588 0.0
H4675 H 0.33767 0.65236 0.84804 0.0
H4676 H 0.33177 0.64478 0.8548 0.0
H4677 H 0.34006 0.64061 0.84701 0.0
H4678 H 0.32504 0.61941 0.86616 0.0
C4679 C 0.33035 0.63255 0.86836 0.0
C4680 C 0.16285 0.32778 0.40386 0.0
C4681 C 0.1575 0.31998 0.403 0.0
C4682 C 0.15397 0.31782 0.39453 0.0
C4683 C 0.15979 0.33162 0.38842 0.0
C4684 C 0.16398 0.33346 0.39643 0.0
C4685 C 0.1694 0.34204 0.39594 0.0
H4686 H 0.17897 0.38028 0.37292 0.0
C4687 C 0.16152 0.3391 0.38225 0.0
C4688 C 0.16729 0.34522 0.3865 0.0
H4689 H 0.18932 0.37252 0.3987 0.0
H4690 H 0.1816 0.35821 0.39758 0.0
H4691 H 0.18234 0.36153 0.36353 0.0
H4692 H 0.15892 0.37291 0.37599 0.0
H4693 H 0.15559 0.36814 0.36579 0.0
H4694 H 0.16364 0.37713 0.36579 0.0
H4695 H 0.1756 0.36981 0.358 0.0
H4696 H 0.1731 0.35796 0.3572 0.0
C4697 C 0.17943 0.33959 0.39701 0.0
C4698 C 0.16584 0.34859 0.40311 0.0
C4699 C 0.14293 0.34122 0.35399 0.0
C4700 C 0.1425 0.34756 0.34704 0.0
C4701 C 0.14886 0.35461 0.34695 0.0
C4702 C 0.1551 0.35563 0.35387 0.0
C4703 C 0.15509 0.34949 0.36098 0.0
C4704 C 0.1493 0.34226 0.36077 0.0
C4705 C 0.15062 0.33609 0.36858 0.0
C4706 C 0.15781 0.3411 0.37377 0.0
C4707 C 0.16032 0.34898 0.36934 0.0
C4708 C 0.15407 0.32693 0.365 0.0
C4709 C 0.14162 0.33558 0.37375 0.0
C4710 C 0.17955 0.37552 0.37835 0.0
C4711 C 0.18465 0.37758 0.38596 0.0
C4712 C 0.18542 0.37109 0.39277 0.0
C4713 C 0.18089 0.36281 0.39213 0.0
C4714 C 0.17556 0.36099 0.38458 0.0
C4715 C 0.17513 0.36725 0.37779 0.0
C4716 C 0.16936 0.36421 0.37017 0.0
C4717 C 0.16629 0.35512 0.37349 0.0
C4718 C 0.16984 0.35325 0.382 0.0
C4719 C 0.17533 0.36338 0.36173 0.0
C4720 C 0.16147 0.37093 0.36929 0.0
H4721 H 0.15198 0.32161 0.38115 0.0
H4722 H 0.16585 0.32957 0.4102 0.0
H4723 H 0.15838 0.34874 0.40302 0.0
H4724 H 0.16802 0.35558 0.40202 0.0
H4725 H 0.16802 0.34649 0.40988 0.0
H4726 H 0.18097 0.33318 0.39351 0.0
H4727 H 0.18121 0.33874 0.40416 0.0
H4728 H 0.18396 0.3446 0.39397 0.0
H4729 H 0.13823 0.33568 0.35436 0.0
H4730 H 0.14901 0.35943 0.34155 0.0
H4731 H 0.15959 0.36125 0.35349 0.0
H4732 H 0.157 0.32753 0.35819 0.0
H4733 H 0.14857 0.32191 0.36462 0.0
H4734 H 0.15961 0.3242 0.36912 0.0
H4735 H 0.1387 0.3424 0.37458 0.0
H4736 H 0.14229 0.33287 0.38055 0.0
H4737 H 0.13666 0.33139 0.37011 0.0
H4738 H 0.15022 0.31167 0.39349 0.0
C4739 C 0.15506 0.32358 0.3873 0.0
C4740 C 0.37396 0.61632 0.32399 0.0
C4741 C 0.38106 0.6225 0.32286 0.0
C4742 C 0.38045 0.63098 0.327 0.0
C4743 C 0.36615 0.62696 0.33353 0.0
C4744 C 0.36654 0.61874 0.32928 0.0
C4745 C 0.35834 0.61309 0.33123 0.0
H4746 H 0.31934 0.60843 0.3545 0.0
C4747 C 0.35781 0.62731 0.33883 0.0
C4748 C 0.3531 0.61923 0.33745 0.0
H4749 H 0.33156 0.58888 0.33698 0.0
H4750 H 0.34333 0.59951 0.33327 0.0
H4751 H 0.33601 0.6137 0.36398 0.0
H4752 H 0.32283 0.62577 0.34161 0.0
H4753 H 0.32634 0.63465 0.34849 0.0
H4754 H 0.31863 0.62636 0.35282 0.0
H4755 H 0.3267 0.62117 0.36539 0.0
H4756 H 0.33813 0.62517 0.3652 0.0
C4757 C 0.36144 0.60441 0.33596 0.0
C4758 C 0.35328 0.61146 0.32237 0.0
C4759 C 0.3527 0.65313 0.36053 0.0
C4760 C 0.34583 0.65482 0.36677 0.0
C4761 C 0.3381 0.64935 0.36671 0.0
C4762 C 0.33743 0.64201 0.36096 0.0
C4763 C 0.34457 0.64006 0.35517 0.0
C4764 C 0.35191 0.64571 0.3548 0.0
C4765 C 0.35873 0.64257 0.34806 0.0
C4766 C 0.35444 0.63388 0.34483 0.0
C4767 C 0.34619 0.63247 0.34906 0.0
C4768 C 0.36769 0.64088 0.35303 0.0
C4769 C 0.35928 0.64968 0.34053 0.0
C4770 C 0.32456 0.60637 0.34989 0.0
C4771 C 0.32456 0.59774 0.34615 0.0
C4772 C 0.33138 0.59549 0.33998 0.0
C4773 C 0.33826 0.60165 0.3379 0.0
C4774 C 0.33835 0.61013 0.34204 0.0
C4775 C 0.33147 0.61236 0.34782 0.0
C4776 C 0.3326 0.6215 0.35182 0.0
C4777 C 0.34136 0.6244 0.34762 0.0
C4778 C 0.34475 0.61778 0.34185 0.0
C4779 C 0.33335 0.62042 0.36212 0.0
C4780 C 0.32468 0.62742 0.34862 0.0
H4781 H 0.3731 0.63976 0.3353 0.0
H4782 H 0.37416 0.60979 0.32082 0.0
H4783 H 0.35304 0.61774 0.31835 0.0
H4784 H 0.34622 0.60948 0.32338 0.0
H4785 H 0.35669 0.60624 0.3183 0.0
H4786 H 0.36683 0.60591 0.34088 0.0
H4787 H 0.36414 0.59949 0.33107 0.0
H4788 H 0.35606 0.60116 0.33985 0.0
H4789 H 0.3587 0.65724 0.36038 0.0
H4790 H 0.3326 0.65066 0.37126 0.0
H4791 H 0.33147 0.63802 0.36143 0.0
H4792 H 0.36644 0.63747 0.35952 0.0
H4793 H 0.37122 0.6473 0.35445 0.0
H4794 H 0.37231 0.63641 0.34939 0.0
H4795 H 0.35281 0.65331 0.33976 0.0
H4796 H 0.36052 0.64665 0.3339 0.0
H4797 H 0.36456 0.65476 0.34196 0.0
H4798 H 0.38584 0.63583 0.32636 0.0
C4799 C 0.37306 0.63324 0.33227 0.0
H4800 H 0.1738 0.46975 0.10891 0.0
H4801 H 0.15969 0.46153 0.10669 0.0
H4802 H 0.17442 0.43893 0.09633 0.0
H4803 H 0.18849 0.44711 0.09827 0.0
H4804 H 0.15214 0.45188 0.09039 0.0
H4805 H 0.1604 0.43 0.11927 0.0
H4806 H 0.16566 0.44079 0.11753 0.0
H4807 H 0.16914 0.43124 0.11107 0.0
C4808 C 0.17403 0.46311 0.10598 0.0
C4809 C 0.1823 0.45904 0.1039 0.0
C4810 C 0.16597 0.45842 0.10475 0.0
C4811 C 0.16607 0.4496 0.10147 0.0
C4812 C 0.17424 0.44569 0.09898 0.0
H4813 H 0.13011 0.40521 0.09492 0.0
H4814 H 0.14258 0.41586 0.09481 0.0
C4815 C 0.18227 0.45037 0.10015 0.0
C4816 C 0.15775 0.44419 0.10117 0.0
H4817 H 0.14792 0.42573 0.11046 0.0
C4818 C 0.15115 0.44621 0.09481 0.0
C4819 C 0.15652 0.43682 0.10698 0.0
C4820 C 0.16326 0.43459 0.11416 0.0
C4821 C 0.14343 0.44083 0.09393 0.0
C4822 C 0.14231 0.43335 0.09962 0.0
C4823 C 0.14884 0.43146 0.10609 0.0
C4824 C 0.13454 0.42722 0.0989 0.0
C4825 C 0.13668 0.44298 0.08675 0.0
C4826 C 0.12588 0.43012 0.10119 0.0
C4827 C 0.11872 0.42404 0.10124 0.0
C4828 C 0.12011 0.41498 0.09899 0.0
C4829 C 0.12878 0.41217 0.09654 0.0
C4830 C 0.13592 0.41823 0.09652 0.0
H4831 H 0.13929 0.44801 0.08193 0.0
H4832 H 0.13478 0.4368 0.08305 0.0
H4833 H 0.13051 0.44573 0.08988 0.0
H4834 H 0.12472 0.43702 0.10317 0.0
H4835 H 0.11211 0.42641 0.10311 0.0
H4836 H 0.82741 0.96932 0.40808 0.0
H4837 H 0.84165 0.96139 0.41072 0.0
H4838 H 0.83434 0.9416 0.39099 0.0
H4839 H 0.82022 0.94945 0.38827 0.0
H4840 H 0.84304 0.94147 0.41551 0.0
H4841 H 0.86025 0.95124 0.38408 0.0
H4842 H 0.85122 0.95775 0.38887 0.0
H4843 H 0.84881 0.94752 0.38298 0.0
C4844 C 0.82889 0.96332 0.40425 0.0
C4845 C 0.82269 0.95999 0.39799 0.0
C4846 C 0.83699 0.9588 0.4058 0.0
C4847 C 0.83903 0.95097 0.401 0.0
C4848 C 0.83289 0.94768 0.39471 0.0
H4849 H 0.87941 0.91102 0.39447 0.0
H4850 H 0.86732 0.92203 0.39325 0.0
C4851 C 0.82481 0.95214 0.39321 0.0
C4852 C 0.84746 0.94602 0.40263 0.0
H4853 H 0.86684 0.93948 0.39244 0.0
C4854 C 0.84833 0.9411 0.41055 0.0
C4855 C 0.85426 0.94554 0.39609 0.0
C4856 C 0.85367 0.95084 0.38754 0.0
C4857 C 0.85566 0.93535 0.41193 0.0
C4858 C 0.86243 0.93473 0.4053 0.0
C4859 C 0.86167 0.93992 0.39751 0.0
C4860 C 0.87005 0.92835 0.406 0.0
C4861 C 0.8558 0.92966 0.42026 0.0
C4862 C 0.87575 0.92835 0.41347 0.0
C4863 C 0.88257 0.92195 0.41424 0.0
C4864 C 0.88396 0.91562 0.40743 0.0
C4865 C 0.87851 0.91588 0.39979 0.0
C4866 C 0.8716 0.92215 0.3991 0.0
H4867 H 0.84903 0.9291 0.42333 0.0
H4868 H 0.85829 0.92279 0.41881 0.0
H4869 H 0.86032 0.93281 0.42525 0.0
H4870 H 0.8749 0.93325 0.41875 0.0
H4871 H 0.88676 0.92194 0.42015 0.0
H4872 H 0.31956 0.54902 0.59414 0.0
H4873 H 0.33195 0.55966 0.59195 0.0
H4874 H 0.34705 0.54647 0.61268 0.0
H4875 H 0.33475 0.53588 0.61493 0.0
H4876 H 0.33989 0.57153 0.60368 0.0
H4877 H 0.36471 0.54647 0.59198 0.0
H4878 H 0.35285 0.54406 0.59267 0.0
H4879 H 0.35976 0.54361 0.60252 0.0
C4880 C 0.3255 0.54843 0.59826 0.0
C4881 C 0.32622 0.54154 0.60464 0.0
C4882 C 0.33258 0.55447 0.59697 0.0
C4883 C 0.34049 0.55371 0.60201 0.0
C4884 C 0.34112 0.54701 0.60854 0.0
H4885 H 0.38145 0.59377 0.61121 0.0
H4886 H 0.36935 0.58272 0.61241 0.0
C4887 C 0.33407 0.54097 0.60982 0.0
C4888 C 0.34805 0.56002 0.60061 0.0
H4889 H 0.37047 0.5609 0.59589 0.0
C4890 C 0.34656 0.56922 0.60192 0.0
C4891 C 0.35672 0.55699 0.59819 0.0
C4892 C 0.35861 0.54725 0.59617 0.0
C4893 C 0.35358 0.57546 0.60113 0.0
C4894 C 0.36233 0.57237 0.59914 0.0
C4895 C 0.36377 0.56321 0.59756 0.0
C4896 C 0.37006 0.57859 0.59858 0.0
C4897 C 0.35156 0.58531 0.60234 0.0
C4898 C 0.37469 0.57963 0.5905 0.0
C4899 C 0.38168 0.58585 0.58982 0.0
C4900 C 0.38417 0.59111 0.59722 0.0
C4901 C 0.37973 0.58978 0.6054 0.0
C4902 C 0.37275 0.58356 0.60607 0.0
H4903 H 0.34428 0.58674 0.60159 0.0
H4904 H 0.35362 0.58741 0.60915 0.0
H4905 H 0.35534 0.58943 0.59744 0.0
H4906 H 0.37276 0.57578 0.58467 0.0
H4907 H 0.38506 0.58663 0.58347 0.0
H4908 H 0.68457 0.0477 0.91503 0.0
H4909 H 0.67226 0.05843 0.91724 0.0
H4910 H 0.65807 0.04679 0.89496 0.0
H4911 H 0.67028 0.03615 0.89267 0.0
H4912 H 0.66507 0.07115 0.90567 0.0
H4913 H 0.63937 0.04586 0.91483 0.0
H4914 H 0.65124 0.04337 0.91469 0.0
H4915 H 0.64489 0.04335 0.90447 0.0
C4916 C 0.67885 0.04748 0.91057 0.0
C4917 C 0.67835 0.041 0.90374 0.0
C4918 C 0.67181 0.05357 0.91188 0.0
C4919 C 0.66417 0.05325 0.9064 0.0
C4920 C 0.66379 0.04698 0.89943 0.0
H4921 H 0.62351 0.09098 0.89294 0.0
H4922 H 0.63613 0.08056 0.89387 0.0
C4923 C 0.67078 0.04091 0.89813 0.0
C4924 C 0.65664 0.05958 0.90777 0.0
H4925 H 0.63392 0.06043 0.9108 0.0
C4926 C 0.65828 0.06882 0.9069 0.0
C4927 C 0.6478 0.05653 0.9095 0.0
C4928 C 0.64571 0.04674 0.91102 0.0
C4929 C 0.65123 0.07505 0.90729 0.0
C4930 C 0.64235 0.07194 0.9085 0.0
C4931 C 0.64075 0.06276 0.90978 0.0
C4932 C 0.6346 0.07809 0.90801 0.0
C4933 C 0.65329 0.08491 0.90633 0.0
C4934 C 0.62948 0.07998 0.91563 0.0
C4935 C 0.62222 0.0859 0.91512 0.0
C4936 C 0.61993 0.08993 0.90694 0.0
C4937 C 0.62502 0.08789 0.8993 0.0
C4938 C 0.63229 0.08202 0.89984 0.0
H4939 H 0.66055 0.08636 0.90725 0.0
H4940 H 0.65132 0.08717 0.89955 0.0
H4941 H 0.64938 0.0889 0.91125 0.0
H4942 H 0.63115 0.07694 0.92198 0.0
H4943 H 0.61839 0.08731 0.9211 0.0
H4944 H 0.18651 0.55345 0.41364 0.0
H4945 H 0.17279 0.56221 0.41546 0.0
H4946 H 0.15979 0.5463 0.39517 0.0
H4947 H 0.17358 0.53765 0.39307 0.0
H4948 H 0.16475 0.57193 0.40058 0.0
H4949 H 0.14134 0.54752 0.41634 0.0
H4950 H 0.1534 0.54628 0.41683 0.0
H4951 H 0.14747 0.54366 0.40673 0.0
C4952 C 0.18074 0.55178 0.40956 0.0
C4953 C 0.1812 0.54487 0.40315 0.0
C4954 C 0.17289 0.55676 0.41067 0.0
C4955 C 0.16528 0.55485 0.4055 0.0
C4956 C 0.16556 0.54777 0.39933 0.0
H4957 H 0.11333 0.58036 0.39934 0.0
H4958 H 0.12601 0.57001 0.39937 0.0
C4959 C 0.17345 0.54282 0.39816 0.0
C4960 C 0.15735 0.56079 0.40601 0.0
H4961 H 0.13525 0.56149 0.41195 0.0
C4962 C 0.1583 0.56968 0.4031 0.0
C4963 C 0.14896 0.55777 0.40921 0.0
C4964 C 0.14768 0.5483 0.41252 0.0
C4965 C 0.15102 0.57563 0.40317 0.0
C4966 C 0.14263 0.57268 0.40653 0.0
C4967 C 0.14168 0.56376 0.40942 0.0
C4968 C 0.13475 0.57875 0.40699 0.0
C4969 C 0.15236 0.58492 0.39937 0.0
C4970 C 0.13534 0.587 0.41147 0.0
C4971 C 0.12822 0.59307 0.41122 0.0
C4972 C 0.1202 0.5909 0.40671 0.0
C4973 C 0.11945 0.58239 0.40267 0.0
C4974 C 0.12667 0.5764 0.40277 0.0
H4975 H 0.15812 0.58513 0.39465 0.0
H4976 H 0.14627 0.58728 0.39581 0.0
H4977 H 0.15385 0.58967 0.40488 0.0
H4978 H 0.14141 0.58886 0.41501 0.0
H4979 H 0.12915 0.59956 0.41433 0.0
H4980 H 0.67433 0.96838 0.61309 0.0
H4981 H 0.66029 0.96005 0.61099 0.0
H4982 H 0.67351 0.94234 0.59241 0.0
H4983 H 0.68748 0.95073 0.59426 0.0
H4984 H 0.65019 0.95492 0.59425 0.0
H4985 H 0.66405 0.92626 0.6136 0.0
H4986 H 0.66882 0.9374 0.61411 0.0
H4987 H 0.67094 0.93035 0.60462 0.0
C4988 C 0.67421 0.96284 0.6084 0.0
C4989 C 0.68208 0.96016 0.60393 0.0
C4990 C 0.66619 0.95807 0.60725 0.0
C4991 C 0.66594 0.95053 0.60165 0.0
C4992 C 0.67363 0.94808 0.59686 0.0
H4993 H 0.62922 0.90678 0.59293 0.0
H4994 H 0.64164 0.9174 0.59264 0.0
C4995 C 0.68162 0.95286 0.59797 0.0
C4996 C 0.6578 0.94485 0.60121 0.0
H4997 H 0.64992 0.92413 0.60685 0.0
C4998 C 0.65008 0.9482 0.59702 0.0
C4999 C 0.65774 0.93611 0.60483 0.0
C5000 C 0.66579 0.9323 0.60961 0.0
C5001 C 0.64232 0.94288 0.59615 0.0
C5002 C 0.64226 0.93411 0.59977 0.0
C5003 C 0.64998 0.93084 0.60405 0.0
C5004 C 0.63435 0.9281 0.59918 0.0
C5005 C 0.63438 0.94662 0.59115 0.0
C5006 C 0.62606 0.93061 0.60288 0.0
C5007 C 0.61884 0.92459 0.60289 0.0
C5008 C 0.61982 0.9159 0.59933 0.0
C5009 C 0.62813 0.91347 0.59556 0.0
C5010 C 0.63529 0.9195 0.59546 0.0
H5011 H 0.63638 0.95222 0.58667 0.0
H5012 H 0.63104 0.94134 0.5871 0.0
H5013 H 0.62943 0.94928 0.59601 0.0
H5014 H 0.62523 0.93713 0.60597 0.0
H5015 H 0.61254 0.92673 0.60578 0.0
H5016 H 0.33055 0.46567 0.88655 0.0
H5017 H 0.34302 0.45534 0.88884 0.0
H5018 H 0.33446 0.45102 0.91601 0.0
H5019 H 0.32183 0.46129 0.9137 0.0
H5020 H 0.35676 0.45692 0.90014 0.0
H5021 H 0.33799 0.42559 0.90777 0.0
H5022 H 0.33256 0.43546 0.90339 0.0
H5023 H 0.33542 0.43482 0.91504 0.0
C5024 C 0.3313 0.4625 0.89301 0.0
C5025 C 0.32521 0.46431 0.89995 0.0
C5026 C 0.33842 0.45658 0.8943 0.0
C5027 C 0.33964 0.45233 0.90256 0.0
C5028 C 0.33354 0.45406 0.90951 0.0
H5029 H 0.38541 0.41895 0.91865 0.0
H5030 H 0.37253 0.42914 0.9191 0.0
C5031 C 0.32634 0.45994 0.90819 0.0
C5032 C 0.34753 0.44641 0.9039 0.0
H5033 H 0.35383 0.42494 0.9089 0.0
C5034 C 0.3561 0.44994 0.90208 0.0
C5035 C 0.34669 0.4373 0.90646 0.0
C5036 C 0.33767 0.43303 0.90821 0.0
C5037 C 0.3638 0.44457 0.9026 0.0
C5038 C 0.36292 0.43546 0.90501 0.0
C5039 C 0.35443 0.43196 0.90708 0.0
C5040 C 0.37068 0.42934 0.9048 0.0
C5041 C 0.37284 0.44859 0.90047 0.0
C5042 C 0.37383 0.42611 0.89661 0.0
C5043 C 0.38107 0.42019 0.89631 0.0
C5044 C 0.38537 0.41745 0.90422 0.0
C5045 C 0.38221 0.42081 0.91244 0.0
C5046 C 0.37489 0.42666 0.91272 0.0
H5047 H 0.37256 0.45602 0.89994 0.0
H5048 H 0.3778 0.44674 0.90569 0.0
H5049 H 0.37528 0.44584 0.89402 0.0
H5050 H 0.3706 0.42808 0.89043 0.0
H5051 H 0.38315 0.4176 0.88988 0.0
H5052 H 0.81859 0.05091 0.09575 0.0
H5053 H 0.83098 0.06162 0.09403 0.0
H5054 H 0.84801 0.04462 0.10999 0.0
H5055 H 0.83572 0.03393 0.11176 0.0
H5056 H 0.84056 0.07093 0.10689 0.0
H5057 H 0.86321 0.04845 0.08782 0.0
H5058 H 0.85146 0.04598 0.08946 0.0
H5059 H 0.85944 0.04377 0.09819 0.0
C5060 C 0.82497 0.04948 0.09893 0.0
C5061 C 0.8262 0.04152 0.10381 0.0
C5062 C 0.83204 0.05558 0.0979 0.0
C5063 C 0.84046 0.05381 0.10172 0.0
C5064 C 0.84164 0.04599 0.10677 0.0
H5065 H 0.89154 0.08209 0.10401 0.0
H5066 H 0.87916 0.0714 0.10584 0.0
C5067 C 0.8346 0.03989 0.10778 0.0
C5068 C 0.84797 0.06024 0.10063 0.0
H5069 H 0.86953 0.06212 0.09309 0.0
C5070 C 0.84687 0.06903 0.10383 0.0
C5071 C 0.85622 0.05772 0.09667 0.0
C5072 C 0.85765 0.04849 0.09276 0.0
C5073 C 0.85387 0.07532 0.10332 0.0
C5074 C 0.86212 0.07279 0.09936 0.0
C5075 C 0.86321 0.06402 0.09616 0.0
C5076 C 0.86961 0.07924 0.09828 0.0
C5077 C 0.85241 0.08455 0.10721 0.0
C5078 C 0.86836 0.08711 0.09333 0.0
C5079 C 0.87533 0.09328 0.0924 0.0
C5080 C 0.88379 0.09162 0.09623 0.0
C5081 C 0.88508 0.08363 0.10106 0.0
C5082 C 0.87805 0.07749 0.10206 0.0
H5083 H 0.8469 0.08457 0.11221 0.0
H5084 H 0.85861 0.08713 0.11045 0.0
H5085 H 0.85052 0.08925 0.10179 0.0
H5086 H 0.86196 0.0885 0.09019 0.0
H5087 H 0.87402 0.09941 0.08876 0.0
H5088 H 0.08888 0.18221 0.45868 0.0
H5089 H 0.08639 0.1683 0.45031 0.0
H5090 H 0.11438 0.16151 0.45329 0.0
H5091 H 0.11688 0.1753 0.46173 0.0
H5092 H 0.09346 0.16319 0.43482 0.0
H5093 H 0.10292 0.13833 0.46051 0.0
H5094 H 0.10103 0.15 0.46314 0.0
H5095 H 0.11169 0.14638 0.45874 0.0
C5096 C 0.09448 0.17771 0.45761 0.0
C5097 C 0.10306 0.17982 0.46094 0.0
C5098 C 0.09305 0.16976 0.45284 0.0
C5099 C 0.10016 0.16377 0.45133 0.0
C5100 C 0.10873 0.16588 0.45463 0.0
H5101 H 0.11258 0.1202 0.41683 0.0
H5102 H 0.11207 0.13262 0.42742 0.0
C5103 C 0.11015 0.17378 0.45944 0.0
C5104 C 0.09878 0.15559 0.44585 0.0
H5105 H 0.10272 0.13302 0.44534 0.0
C5106 C 0.09534 0.15657 0.43718 0.0
C5107 C 0.1012 0.14695 0.44894 0.0
C5108 C 0.10432 0.14534 0.45838 0.0
C5109 C 0.09464 0.1492 0.43139 0.0
C5110 C 0.09744 0.14066 0.43437 0.0
C5111 C 0.10064 0.13961 0.44309 0.0
C5112 C 0.09759 0.13283 0.42833 0.0
C5113 C 0.09124 0.15061 0.42201 0.0
C5114 C 0.0896 0.12877 0.42547 0.0
C5115 C 0.08985 0.12155 0.41952 0.0
C5116 C 0.09812 0.1183 0.4163 0.0
C5117 C 0.10611 0.12237 0.4193 0.0
C5118 C 0.10584 0.12952 0.4253 0.0
H5119 H 0.09037 0.15783 0.4204 0.0
H5120 H 0.09595 0.14759 0.41711 0.0
H5121 H 0.08465 0.14721 0.42123 0.0
H5122 H 0.08317 0.13121 0.42784 0.0
H5123 H 0.08358 0.11851 0.41746 0.0
H5124 H 0.05116 0.91127 0.68802 0.0
H5125 H 0.06202 0.91333 0.67588 0.0
H5126 H 0.04533 0.89743 0.65843 0.0
H5127 H 0.03453 0.89529 0.67047 0.0
H5128 H 0.07144 0.9004 0.66617 0.0
H5129 H 0.04938 0.92017 0.64385 0.0
H5130 H 0.04685 0.91841 0.6555 0.0
H5131 H 0.04445 0.90978 0.64743 0.0
C5132 C 0.04983 0.90818 0.68161 0.0
C5133 C 0.04193 0.90319 0.68019 0.0
C5134 C 0.05601 0.90941 0.67468 0.0
C5135 C 0.05437 0.90571 0.66621 0.0
C5136 C 0.0466 0.90057 0.66484 0.0
H5137 H 0.08053 0.90071 0.61536 0.0
H5138 H 0.07032 0.90085 0.62809 0.0
C5139 C 0.04043 0.89935 0.67174 0.0
C5140 C 0.06088 0.90692 0.65884 0.0
H5141 H 0.06275 0.91432 0.63737 0.0
C5142 C 0.06959 0.90353 0.6599 0.0
C5143 C 0.05843 0.911 0.65068 0.0
C5144 C 0.04929 0.91513 0.6493 0.0
C5145 C 0.07582 0.90377 0.65287 0.0
C5146 C 0.07331 0.9077 0.64464 0.0
C5147 C 0.06466 0.91127 0.64366 0.0
C5148 C 0.07946 0.90793 0.63686 0.0
C5149 C 0.0849 0.89949 0.65424 0.0
C5150 C 0.08791 0.91204 0.63749 0.0
C5151 C 0.09386 0.91178 0.63029 0.0
C5152 C 0.09139 0.90757 0.62223 0.0
C5153 C 0.08275 0.90382 0.62151 0.0
C5154 C 0.07686 0.90397 0.62876 0.0
H5155 H 0.08485 0.89471 0.65992 0.0
H5156 H 0.08712 0.89586 0.64816 0.0
H5157 H 0.08991 0.9048 0.65577 0.0
H5158 H 0.08997 0.91535 0.6436 0.0
H5159 H 0.10047 0.91467 0.63117 0.0
H5160 H 0.41418 0.82486 0.96385 0.0
H5161 H 0.41715 0.83911 0.95608 0.0
H5162 H 0.39125 0.83744 0.94335 0.0
H5163 H 0.3882 0.82336 0.95109 0.0
H5164 H 0.41642 0.84171 0.93624 0.0
H5165 H 0.39242 0.86301 0.95507 0.0
H5166 H 0.39691 0.85265 0.95947 0.0
H5167 H 0.38799 0.85239 0.95141 0.0
C5168 C 0.40909 0.8276 0.95947 0.0
C5169 C 0.40097 0.82299 0.95806 0.0
C5170 C 0.41082 0.83569 0.95502 0.0
C5171 C 0.40438 0.83932 0.94922 0.0
C5172 C 0.39625 0.83477 0.94787 0.0
H5173 H 0.39306 0.88123 0.91308 0.0
H5174 H 0.39362 0.86883 0.92366 0.0
C5175 C 0.39455 0.82671 0.95225 0.0
C5176 C 0.40611 0.84775 0.94431 0.0
H5177 H 0.39768 0.86877 0.94121 0.0
C5178 C 0.41245 0.84771 0.93739 0.0
C5179 C 0.40091 0.8555 0.94586 0.0
C5180 C 0.39422 0.85596 0.9534 0.0
C5181 C 0.41336 0.85509 0.93163 0.0
C5182 C 0.40789 0.86274 0.93297 0.0
C5183 C 0.40184 0.86289 0.94016 0.0
C5184 C 0.40776 0.87037 0.92663 0.0
C5185 C 0.4198 0.85442 0.92388 0.0
C5186 C 0.41552 0.87542 0.92483 0.0
C5187 C 0.41523 0.88253 0.91874 0.0
C5188 C 0.40713 0.88478 0.91447 0.0
C5189 C 0.39937 0.87976 0.91637 0.0
C5190 C 0.39968 0.87264 0.92239 0.0
H5191 H 0.42194 0.84739 0.92263 0.0
H5192 H 0.41672 0.85711 0.91769 0.0
H5193 H 0.42589 0.85845 0.92538 0.0
H5194 H 0.42178 0.87391 0.92818 0.0
H5195 H 0.42129 0.88633 0.91746 0.0
H5196 H 0.45475 0.09345 0.18588 0.0
H5197 H 0.44615 0.09113 0.17217 0.0
H5198 H 0.45492 0.1169 0.1624 0.0
H5199 H 0.46344 0.11935 0.17612 0.0
H5200 H 0.43223 0.10193 0.16639 0.0
H5201 H 0.45928 0.10042 0.14096 0.0
H5202 H 0.46141 0.09909 0.15275 0.0
H5203 H 0.45981 0.11009 0.1481 0.0
C5204 C 0.45489 0.09862 0.1808 0.0
C5205 C 0.45978 0.1066 0.18212 0.0
C5206 C 0.45001 0.09725 0.17295 0.0
C5207 C 0.44998 0.10379 0.16623 0.0
C5208 C 0.45501 0.11168 0.16742 0.0
H5209 H 0.41083 0.11318 0.12499 0.0
H5210 H 0.42198 0.11441 0.13692 0.0
C5211 C 0.45988 0.11306 0.17527 0.0
C5212 C 0.44416 0.10266 0.1583 0.0
H5213 H 0.44429 0.10178 0.13551 0.0
C5214 C 0.43487 0.10184 0.15964 0.0
C5215 C 0.44764 0.10251 0.14951 0.0
C5216 C 0.45759 0.10299 0.14771 0.0
C5217 C 0.42895 0.10106 0.15242 0.0
C5218 C 0.43241 0.10116 0.14365 0.0
C5219 C 0.44169 0.10179 0.14227 0.0
C5220 C 0.42638 0.10063 0.13586 0.0
C5221 C 0.41902 0.10013 0.15417 0.0
C5222 C 0.42535 0.09251 0.13124 0.0
C5223 C 0.419 0.09178 0.12441 0.0
C5224 C 0.41363 0.09918 0.12209 0.0
C5225 C 0.41493 0.10739 0.12654 0.0
C5226 C 0.42125 0.1081 0.13339 0.0
H5227 H 0.41753 0.09903 0.16135 0.0
H5228 H 0.41554 0.10634 0.15199 0.0
H5229 H 0.41622 0.09445 0.15025 0.0
H5230 H 0.42928 0.08669 0.13308 0.0
H5231 H 0.4182 0.0854 0.12103 0.0
H5232 H 0.11297 0.8237 0.04877 0.0
H5233 H 0.11151 0.83625 0.05918 0.0
H5234 H 0.08552 0.84252 0.04818 0.0
H5235 H 0.08677 0.82978 0.03795 0.0
H5236 H 0.10945 0.85422 0.05393 0.0
H5237 H 0.08092 0.84309 0.07517 0.0
H5238 H 0.08713 0.83543 0.06815 0.0
H5239 H 0.07895 0.84282 0.06334 0.0
C5240 C 0.10684 0.8276 0.0487 0.0
C5241 C 0.09998 0.82572 0.04253 0.0
C5242 C 0.10605 0.83481 0.05461 0.0
C5243 C 0.09837 0.84025 0.0545 0.0
C5244 C 0.09143 0.83832 0.04847 0.0
H5245 H 0.08509 0.88804 0.08583 0.0
H5246 H 0.0846 0.87547 0.07523 0.0
C5247 C 0.09221 0.83109 0.04256 0.0
C5248 C 0.09793 0.84828 0.0603 0.0
H5249 H 0.08645 0.85776 0.07762 0.0
C5250 C 0.10443 0.855 0.05912 0.0
C5251 C 0.09128 0.84933 0.06696 0.0
C5252 C 0.0842 0.84226 0.06856 0.0
C5253 C 0.1045 0.86274 0.06444 0.0
C5254 C 0.09804 0.86366 0.07131 0.0
C5255 C 0.09141 0.85703 0.07237 0.0
C5256 C 0.09829 0.87127 0.07768 0.0
C5257 C 0.11141 0.8699 0.06252 0.0
C5258 C 0.10608 0.87296 0.08268 0.0
C5259 C 0.1064 0.88016 0.08862 0.0
C5260 C 0.09889 0.88571 0.08981 0.0
C5261 C 0.09099 0.88388 0.085 0.0
C5262 C 0.09071 0.87672 0.07896 0.0
H5263 H 0.11369 0.86963 0.05547 0.0
H5264 H 0.10872 0.87672 0.06389 0.0
H5265 H 0.11736 0.8688 0.06683 0.0
H5266 H 0.1119 0.86866 0.08204 0.0
H5267 H 0.1125 0.88127 0.09241 0.0
H5268 H 0.45497 0.88986 0.31996 0.0
H5269 H 0.44442 0.89135 0.33239 0.0
H5270 H 0.45959 0.91383 0.34254 0.0
H5271 H 0.46996 0.91263 0.32997 0.0
H5272 H 0.44889 0.88989 0.35042 0.0
H5273 H 0.43391 0.92322 0.34322 0.0
H5274 H 0.44017 0.91696 0.33498 0.0
H5275 H 0.44595 0.92311 0.34357 0.0
C5276 C 0.45595 0.89526 0.32472 0.0
C5277 C 0.46332 0.90113 0.32396 0.0
C5278 C 0.44996 0.89605 0.33185 0.0
C5279 C 0.45118 0.90275 0.33833 0.0
C5280 C 0.45844 0.9087 0.33753 0.0
H5281 H 0.42258 0.91762 0.38659 0.0
H5282 H 0.43337 0.91635 0.37431 0.0
C5283 C 0.46442 0.90794 0.33039 0.0
C5284 C 0.44517 0.90318 0.34618 0.0
H5285 H 0.4304 0.91671 0.3572 0.0
C5286 C 0.44481 0.89573 0.3519 0.0
C5287 C 0.43995 0.91085 0.34812 0.0
C5288 C 0.43993 0.91897 0.34212 0.0
C5289 C 0.43946 0.89579 0.3596 0.0
C5290 C 0.43411 0.90341 0.36149 0.0
C5291 C 0.4345 0.91087 0.35576 0.0
C5292 C 0.42799 0.9038 0.36929 0.0
C5293 C 0.4398 0.88777 0.36574 0.0
C5294 C 0.42142 0.89715 0.3706 0.0
C5295 C 0.4154 0.89777 0.37772 0.0
C5296 C 0.4157 0.90519 0.3835 0.0
C5297 C 0.42226 0.91183 0.38222 0.0
C5298 C 0.42839 0.91112 0.3752 0.0
H5299 H 0.44622 0.88404 0.36499 0.0
H5300 H 0.43906 0.88979 0.37283 0.0
H5301 H 0.43427 0.88309 0.36401 0.0
H5302 H 0.42078 0.8916 0.36597 0.0
H5303 H 0.41027 0.89266 0.37848 0.0
H5304 H 0.41683 0.18577 0.54969 0.0
H5305 H 0.41904 0.17187 0.55808 0.0
H5306 H 0.39233 0.16322 0.55099 0.0
H5307 H 0.39006 0.17706 0.54261 0.0
H5308 H 0.4098 0.16608 0.57241 0.0
H5309 H 0.40667 0.14102 0.54529 0.0
H5310 H 0.4082 0.15284 0.54313 0.0
H5311 H 0.39722 0.14846 0.54572 0.0
C5312 C 0.41145 0.18088 0.54987 0.0
C5313 C 0.40328 0.18251 0.54544 0.0
C5314 C 0.41274 0.17293 0.55464 0.0
C5315 C 0.40591 0.16643 0.55504 0.0
C5316 C 0.39779 0.16801 0.55057 0.0
H5317 H 0.39252 0.12315 0.58975 0.0
H5318 H 0.39316 0.13563 0.57923 0.0
C5319 C 0.3965 0.17594 0.54578 0.0
C5320 C 0.40704 0.15828 0.5606 0.0
H5321 H 0.40518 0.13541 0.56026 0.0
C5322 C 0.40892 0.15937 0.56972 0.0
C5323 C 0.40593 0.14952 0.55708 0.0
C5324 C 0.40449 0.14787 0.54725 0.0
C5325 C 0.40938 0.15196 0.57546 0.0
C5326 C 0.40789 0.14328 0.572 0.0
C5327 C 0.40625 0.14213 0.56286 0.0
C5328 C 0.4076 0.13537 0.57789 0.0
C5329 C 0.4112 0.15341 0.58526 0.0
C5330 C 0.41553 0.13106 0.58049 0.0
C5331 C 0.4152 0.12382 0.58641 0.0
C5332 C 0.40692 0.12082 0.58986 0.0
C5333 C 0.39899 0.12514 0.58711 0.0
C5334 C 0.39933 0.13232 0.58115 0.0
H5335 H 0.41209 0.16062 0.58694 0.0
H5336 H 0.40555 0.15067 0.58926 0.0
H5337 H 0.41736 0.14972 0.58722 0.0
H5338 H 0.42196 0.13335 0.578 0.0
H5339 H 0.42143 0.1206 0.5883 0.0
H5340 H 0.04891 0.11233 0.82344 0.0
H5341 H 0.05938 0.11113 0.83593 0.0
H5342 H 0.04896 0.08484 0.84212 0.0
H5343 H 0.03868 0.08584 0.82944 0.0
H5344 H 0.05412 0.10894 0.85376 0.0
H5345 H 0.07619 0.08096 0.84279 0.0
H5346 H 0.06901 0.08698 0.83516 0.0
H5347 H 0.06435 0.07865 0.84249 0.0
C5348 C 0.04899 0.1062 0.82731 0.0
C5349 C 0.04295 0.09917 0.82541 0.0
C5350 C 0.05493 0.10555 0.83449 0.0
C5351 C 0.055 0.09787 0.83988 0.0
C5352 C 0.04912 0.09077 0.83794 0.0
H5353 H 0.08631 0.085 0.88755 0.0
H5354 H 0.07579 0.08442 0.87496 0.0
C5355 C 0.04317 0.0914 0.83075 0.0
C5356 C 0.06081 0.09758 0.84789 0.0
H5357 H 0.07837 0.08646 0.85745 0.0
C5358 C 0.05944 0.10404 0.85456 0.0
C5359 C 0.06764 0.09108 0.84897 0.0
C5360 C 0.06946 0.08406 0.84195 0.0
C5361 C 0.06471 0.1042 0.86231 0.0
C5362 C 0.07174 0.09789 0.86328 0.0
C5363 C 0.07301 0.09131 0.85668 0.0
C5364 C 0.07803 0.09821 0.87094 0.0
C5365 C 0.06257 0.11105 0.86942 0.0
C5366 C 0.08287 0.10609 0.87277 0.0
C5367 C 0.08875 0.10646 0.88 0.0
C5368 C 0.09005 0.09891 0.88544 0.0
C5369 C 0.08539 0.09094 0.88348 0.0
C5370 C 0.0794 0.0906 0.8763 0.0
H5371 H 0.05544 0.1132 0.86908 0.0
H5372 H 0.06391 0.10838 0.87621 0.0
H5373 H 0.0668 0.1171 0.86838 0.0
H5374 H 0.08217 0.11194 0.86855 0.0
H5375 H 0.09244 0.11262 0.88121 0.0
H5376 H 0.95413 0.40829 0.81722 0.0
H5377 H 0.94353 0.41014 0.82961 0.0
H5378 H 0.96071 0.3943 0.84655 0.0
H5379 H 0.97129 0.3924 0.83426 0.0
H5380 H 0.93437 0.39718 0.83921 0.0
H5381 H 0.95679 0.41664 0.86161 0.0
H5382 H 0.95923 0.41496 0.84992 0.0
H5383 H 0.96153 0.40622 0.85787 0.0
C5384 C 0.95563 0.40518 0.82358 0.0
C5385 C 0.9636 0.40027 0.82478 0.0
C5386 C 0.94959 0.40628 0.83065 0.0
C5387 C 0.95144 0.40252 0.83905 0.0
C5388 C 0.95929 0.39748 0.84021 0.0
H5389 H 0.92341 0.40057 0.88999 0.0
H5390 H 0.9341 0.39872 0.87771 0.0
C5391 C 0.96532 0.39639 0.83316 0.0
C5392 C 0.94503 0.40361 0.84653 0.0
H5393 H 0.94317 0.4113 0.86793 0.0
C5394 C 0.93627 0.40032 0.84547 0.0
C5395 C 0.94755 0.40766 0.8547 0.0
C5396 C 0.95676 0.41165 0.85609 0.0
C5397 C 0.93 0.4008 0.85244 0.0
C5398 C 0.93251 0.40486 0.86062 0.0
C5399 C 0.94127 0.40816 0.86167 0.0
C5400 C 0.92607 0.40595 0.86807 0.0
C5401 C 0.9208 0.39676 0.85103 0.0
C5402 C 0.91809 0.41073 0.86676 0.0
C5403 C 0.91191 0.41164 0.87368 0.0
C5404 C 0.91366 0.408 0.88217 0.0
C5405 C 0.92177 0.40336 0.88352 0.0
C5406 C 0.92793 0.40236 0.87653 0.0
H5407 H 0.92086 0.39163 0.84564 0.0
H5408 H 0.91824 0.3936 0.85723 0.0
H5409 H 0.91607 0.40214 0.84901 0.0
H5410 H 0.91661 0.41374 0.86035 0.0
H5411 H 0.90568 0.41512 0.8723 0.0
H5412 H 0.90891 0.67603 0.03514 0.0
H5413 H 0.91065 0.66183 0.04331 0.0
H5414 H 0.89842 0.67382 0.06651 0.0
H5415 H 0.89653 0.68789 0.05842 0.0
H5416 H 0.91973 0.65896 0.06105 0.0
H5417 H 0.88338 0.65066 0.06072 0.0
H5418 H 0.88839 0.65849 0.05297 0.0
H5419 H 0.88601 0.66191 0.06423 0.0
C5420 C 0.90657 0.67561 0.04197 0.0
C5421 C 0.9026 0.68309 0.04614 0.0
C5422 C 0.90761 0.66753 0.04663 0.0
C5423 C 0.9046 0.66679 0.05547 0.0
C5424 C 0.90073 0.67426 0.05966 0.0
H5425 H 0.89844 0.62984 0.09823 0.0
H5426 H 0.89859 0.6423 0.08757 0.0
C5427 C 0.89972 0.68231 0.05505 0.0
C5428 C 0.90532 0.65823 0.06039 0.0
H5429 H 0.89252 0.64234 0.07071 0.0
C5430 C 0.91381 0.65522 0.06308 0.0
C5431 C 0.89757 0.65342 0.063 0.0
C5432 C 0.88831 0.65622 0.06003 0.0
C5433 C 0.91473 0.64774 0.06872 0.0
C5434 C 0.90694 0.6431 0.07156 0.0
C5435 C 0.89848 0.64594 0.06857 0.0
C5436 C 0.90728 0.63561 0.07807 0.0
C5437 C 0.92398 0.64516 0.07191 0.0
C5438 C 0.91211 0.62772 0.07627 0.0
C5439 C 0.9121 0.62064 0.08242 0.0
C5440 C 0.90713 0.62136 0.09033 0.0
C5441 C 0.90229 0.62921 0.09213 0.0
C5442 C 0.90238 0.63629 0.08605 0.0
H5443 H 0.92893 0.65064 0.07087 0.0
H5444 H 0.92389 0.64338 0.0791 0.0
H5445 H 0.92631 0.63921 0.0681 0.0
H5446 H 0.91577 0.62696 0.07007 0.0
H5447 H 0.91583 0.61458 0.08095 0.0
H5448 H 0.53742 0.61353 0.33464 0.0
H5449 H 0.54814 0.61145 0.34677 0.0
H5450 H 0.55842 0.58772 0.33382 0.0
H5451 H 0.54768 0.58978 0.32159 0.0
H5452 H 0.54967 0.59719 0.35824 0.0
H5453 H 0.58122 0.60191 0.33892 0.0
H5454 H 0.57034 0.60479 0.33445 0.0
H5455 H 0.57385 0.59326 0.33485 0.0
C5456 C 0.54195 0.60785 0.33437 0.0
C5457 C 0.54168 0.6018 0.32716 0.0
C5458 C 0.54808 0.60669 0.3413 0.0
C5459 C 0.55412 0.59948 0.34117 0.0
C5460 C 0.55393 0.59343 0.33397 0.0
H5461 H 0.58808 0.58436 0.38668 0.0
H5462 H 0.57768 0.5836 0.374 0.0
C5463 C 0.54779 0.59461 0.32699 0.0
C5464 C 0.56045 0.5983 0.34871 0.0
H5465 H 0.5827 0.59858 0.35424 0.0
C5466 C 0.55689 0.59742 0.35735 0.0
C5467 C 0.56987 0.59863 0.34754 0.0
C5468 C 0.57408 0.59977 0.33846 0.0
C5469 C 0.5625 0.597 0.36486 0.0
C5470 C 0.57188 0.59748 0.36368 0.0
C5471 C 0.57548 0.59819 0.35507 0.0
C5472 C 0.57804 0.59787 0.37138 0.0
C5473 C 0.55841 0.59635 0.37404 0.0
C5474 C 0.58162 0.60614 0.37405 0.0
C5475 C 0.58754 0.60661 0.38125 0.0
C5476 C 0.59001 0.59879 0.38589 0.0
C5477 C 0.58636 0.5905 0.38321 0.0
C5478 C 0.5804 0.59004 0.376 0.0
H5479 H 0.55096 0.59634 0.37385 0.0
H5480 H 0.56071 0.59008 0.37732 0.0
H5481 H 0.56072 0.60207 0.37821 0.0
H5482 H 0.57986 0.61223 0.37052 0.0
H5483 H 0.59036 0.61307 0.38303 0.0
H5484 H 0.89197 0.33129 0.46619 0.0
H5485 H 0.89421 0.34526 0.45789 0.0
H5486 H 0.91536 0.33284 0.44265 0.0
H5487 H 0.91339 0.31893 0.45105 0.0
H5488 H 0.91137 0.35611 0.45423 0.0
H5489 H 0.89491 0.34083 0.42451 0.0
H5490 H 0.89348 0.33636 0.43562 0.0
H5491 H 0.90375 0.33446 0.42965 0.0
C5492 C 0.89725 0.33158 0.46122 0.0
C5493 C 0.90243 0.32394 0.45923 0.0
C5494 C 0.89848 0.33956 0.45646 0.0
C5495 C 0.90487 0.34001 0.44961 0.0
C5496 C 0.91033 0.33256 0.44786 0.0
H5497 H 0.91414 0.37653 0.40607 0.0
H5498 H 0.91453 0.36425 0.4167 0.0
C5499 C 0.90914 0.32461 0.45264 0.0
C5500 C 0.90544 0.34804 0.44387 0.0
H5501 H 0.90081 0.35537 0.42283 0.0
C5502 C 0.90906 0.356 0.44736 0.0
C5503 C 0.90244 0.3478 0.43493 0.0
C5504 C 0.89837 0.33944 0.43093 0.0
C5505 C 0.90994 0.36372 0.44205 0.0
C5506 C 0.90687 0.36351 0.4331 0.0
C5507 C 0.90319 0.35553 0.42967 0.0
C5508 C 0.9074 0.3714 0.42709 0.0
C5509 C 0.91439 0.37191 0.446 0.0
C5510 C 0.90335 0.37958 0.42941 0.0
C5511 C 0.90334 0.38676 0.42341 0.0
C5512 C 0.90719 0.38584 0.41488 0.0
C5513 C 0.91128 0.37762 0.41262 0.0
C5514 C 0.91143 0.37052 0.41867 0.0
H5515 H 0.91877 0.37013 0.45173 0.0
H5516 H 0.91849 0.37551 0.44095 0.0
H5517 H 0.90914 0.37656 0.4485 0.0
H5518 H 0.9 0.38036 0.43577 0.0
H5519 H 0.90021 0.39299 0.42543 0.0
H5520 H 0.59357 0.68622 0.95095 0.0
H5521 H 0.59171 0.67233 0.94248 0.0
H5522 H 0.60996 0.65882 0.96027 0.0
H5523 H 0.61211 0.67277 0.96867 0.0
H5524 H 0.60702 0.66336 0.93433 0.0
H5525 H 0.58793 0.64137 0.95759 0.0
H5526 H 0.58791 0.65347 0.95853 0.0
H5527 H 0.59752 0.64718 0.96211 0.0
C5528 C 0.59718 0.6803 0.9531 0.0
C5529 C 0.60307 0.68065 0.96045 0.0
C5530 C 0.59605 0.67236 0.94829 0.0
C5531 C 0.60065 0.66457 0.9508 0.0
C5532 C 0.60625 0.66475 0.95833 0.0
H5533 H 0.60599 0.61199 0.92615 0.0
H5534 H 0.60605 0.62472 0.93645 0.0
C5535 C 0.60744 0.67273 0.96312 0.0
C5536 C 0.60024 0.65652 0.94503 0.0
H5537 H 0.59304 0.63478 0.94416 0.0
C5538 C 0.60394 0.65711 0.93646 0.0
C5539 C 0.5963 0.64839 0.94789 0.0
C5540 C 0.59212 0.64752 0.95701 0.0
C5541 C 0.6039 0.64974 0.93065 0.0
C5542 C 0.59979 0.64162 0.93341 0.0
C5543 C 0.59614 0.64101 0.94204 0.0
C5544 C 0.59922 0.63374 0.92741 0.0
C5545 C 0.60847 0.65067 0.9217 0.0
C5546 C 0.59515 0.63451 0.91901 0.0
C5547 C 0.59531 0.62734 0.91302 0.0
C5548 C 0.59935 0.61914 0.91539 0.0
C5549 C 0.60301 0.61825 0.92401 0.0
C5550 C 0.60297 0.62549 0.92995 0.0
H5551 H 0.61353 0.65615 0.92175 0.0
H5552 H 0.61186 0.64434 0.91973 0.0
H5553 H 0.60338 0.65233 0.91656 0.0
H5554 H 0.592 0.64074 0.917 0.0
H5555 H 0.59252 0.62837 0.90644 0.0
H5556 H 0.79063 0.57792 0.84069 0.0
H5557 H 0.80087 0.59064 0.83888 0.0
H5558 H 0.80723 0.58965 0.86693 0.0
H5559 H 0.79698 0.57699 0.86883 0.0
H5560 H 0.80016 0.60729 0.84707 0.0
H5561 H 0.83196 0.5899 0.85544 0.0
H5562 H 0.82173 0.58391 0.85292 0.0
H5563 H 0.82342 0.58871 0.86381 0.0
C5564 C 0.79421 0.5804 0.84648 0.0
C5565 C 0.79301 0.5764 0.8549 0.0
C5566 C 0.80008 0.58765 0.84542 0.0
C5567 C 0.8049 0.591 0.85274 0.0
C5568 C 0.80373 0.58703 0.86115 0.0
H5569 H 0.84295 0.63403 0.86132 0.0
H5570 H 0.83191 0.62201 0.86294 0.0
C5571 C 0.79788 0.57978 0.86222 0.0
C5572 C 0.81093 0.59884 0.85166 0.0
H5573 H 0.83258 0.60579 0.85447 0.0
C5574 C 0.80726 0.60696 0.84864 0.0
C5575 C 0.82018 0.59838 0.85371 0.0
C5576 C 0.82459 0.58974 0.85657 0.0
C5577 C 0.81257 0.61471 0.84782 0.0
C5578 C 0.82181 0.61427 0.84995 0.0
C5579 C 0.82548 0.60613 0.85291 0.0
C5580 C 0.82786 0.62211 0.84908 0.0
C5581 C 0.80819 0.62335 0.84488 0.0
C5582 C 0.82917 0.62622 0.84076 0.0
C5583 C 0.83538 0.63319 0.83983 0.0
C5584 C 0.8405 0.63609 0.84719 0.0
C5585 C 0.83903 0.63207 0.85555 0.0
C5586 C 0.83278 0.62514 0.85648 0.0
H5587 H 0.80081 0.62319 0.84596 0.0
H5588 H 0.81103 0.6292 0.84852 0.0
H5589 H 0.80941 0.62433 0.83764 0.0
H5590 H 0.82557 0.62389 0.83492 0.0
H5591 H 0.83629 0.6362 0.83332 0.0
H5592 H 0.19729 0.06784 0.6466 0.0
H5593 H 0.18898 0.08175 0.64878 0.0
H5594 H 0.21158 0.09316 0.66281 0.0
H5595 H 0.22001 0.07919 0.66058 0.0
H5596 H 0.18393 0.09011 0.66412 0.0
H5597 H 0.20644 0.11224 0.64425 0.0
H5598 H 0.20733 0.10016 0.64398 0.0
H5599 H 0.2117 0.10638 0.65331 0.0
C5600 C 0.20049 0.07328 0.6502 0.0
C5601 C 0.20931 0.0724 0.65344 0.0
C5602 C 0.19574 0.08124 0.65142 0.0
C5603 C 0.19969 0.08853 0.65587 0.0
C5604 C 0.20847 0.08768 0.65919 0.0
H5605 H 0.16731 0.13571 0.67052 0.0
H5606 H 0.17793 0.12317 0.67143 0.0
C5607 C 0.21327 0.0797 0.65793 0.0
C5608 C 0.19449 0.09693 0.657 0.0
H5609 H 0.19373 0.11898 0.65079 0.0
C5610 C 0.18612 0.09645 0.66129 0.0
C5611 C 0.19734 0.10517 0.65326 0.0
C5612 C 0.20616 0.10605 0.64838 0.0
C5613 C 0.18043 0.10393 0.66176 0.0
C5614 C 0.18323 0.11211 0.65789 0.0
C5615 C 0.19167 0.11268 0.65379 0.0
C5616 C 0.17715 0.11991 0.65739 0.0
C5617 C 0.17131 0.10298 0.66603 0.0
C5618 C 0.17333 0.12224 0.64917 0.0
C5619 C 0.16724 0.12932 0.64863 0.0
C5620 C 0.16491 0.13426 0.6563 0.0
C5621 C 0.16889 0.13198 0.66451 0.0
C5622 C 0.17497 0.12486 0.66505 0.0
H5623 H 0.16985 0.09595 0.66803 0.0
H5624 H 0.17095 0.1073 0.67205 0.0
H5625 H 0.16601 0.10526 0.66133 0.0
H5626 H 0.17492 0.11844 0.6432 0.0
H5627 H 0.16418 0.13077 0.64224 0.0
H5628 H 0.71786 0.42892 0.34232 0.0
H5629 H 0.70933 0.41497 0.33994 0.0
H5630 H 0.69164 0.42207 0.36162 0.0
H5631 H 0.70001 0.43594 0.36395 0.0
H5632 H 0.70547 0.4006 0.3511 0.0
H5633 H 0.67412 0.41794 0.34135 0.0
H5634 H 0.68479 0.42366 0.34197 0.0
H5635 H 0.67828 0.42177 0.35192 0.0
C5636 C 0.71217 0.42746 0.34659 0.0
C5637 C 0.7095 0.43358 0.35322 0.0
C5638 C 0.7073 0.41952 0.34521 0.0
C5639 C 0.69971 0.41762 0.35045 0.0
C5640 C 0.6973 0.42354 0.35731 0.0
H5641 H 0.66511 0.37476 0.36366 0.0
H5642 H 0.6758 0.38716 0.3627 0.0
C5643 C 0.7021 0.43146 0.35865 0.0
C5644 C 0.69426 0.40945 0.34886 0.0
H5645 H 0.67265 0.40247 0.34563 0.0
C5646 C 0.69833 0.401 0.34975 0.0
C5647 C 0.68495 0.40998 0.34702 0.0
C5648 C 0.6803 0.41883 0.34542 0.0
C5649 C 0.69321 0.39309 0.34931 0.0
C5650 C 0.68385 0.39369 0.34798 0.0
C5651 C 0.67985 0.40208 0.34671 0.0
C5652 C 0.67799 0.38574 0.34851 0.0
C5653 C 0.6977 0.38412 0.35054 0.0
C5654 C 0.67576 0.38087 0.34082 0.0
C5655 C 0.6697 0.37371 0.34134 0.0
C5656 C 0.66578 0.37136 0.34957 0.0
C5657 C 0.66814 0.37625 0.35726 0.0
C5658 C 0.6742 0.38337 0.35672 0.0
H5659 H 0.70512 0.38474 0.35108 0.0
H5660 H 0.6951 0.38086 0.35668 0.0
H5661 H 0.69605 0.37965 0.34482 0.0
H5662 H 0.67863 0.38268 0.33442 0.0
H5663 H 0.66807 0.37003 0.33532 0.0
H5664 H 0.28275 0.91893 0.14077 0.0
H5665 H 0.2933 0.90661 0.14298 0.0
H5666 H 0.31091 0.92428 0.15763 0.0
H5667 H 0.3002 0.9366 0.15574 0.0
H5668 H 0.31081 0.90519 0.13763 0.0
H5669 H 0.30841 0.90304 0.17453 0.0
H5670 H 0.30051 0.90934 0.1679 0.0
H5671 H 0.31136 0.91399 0.17046 0.0
C5672 C 0.28881 0.92018 0.14457 0.0
C5673 C 0.29058 0.92874 0.14816 0.0
C5674 C 0.29486 0.91314 0.14577 0.0
C5675 C 0.30281 0.91448 0.15059 0.0
C5676 C 0.30472 0.92305 0.15405 0.0
H5677 H 0.34868 0.88179 0.16332 0.0
H5678 H 0.33754 0.8936 0.16151 0.0
C5679 C 0.29864 0.93011 0.15286 0.0
C5680 C 0.30918 0.90694 0.15181 0.0
H5681 H 0.31973 0.89426 0.1676 0.0
C5682 C 0.31273 0.90276 0.14418 0.0
C5683 C 0.31164 0.90378 0.16036 0.0
C5684 C 0.30773 0.9077 0.16879 0.0
C5685 C 0.31884 0.89564 0.14488 0.0
C5686 C 0.32135 0.89252 0.15343 0.0
C5687 C 0.31778 0.89666 0.16106 0.0
C5688 C 0.32794 0.88519 0.15462 0.0
C5689 C 0.32274 0.89166 0.13647 0.0
C5690 C 0.32617 0.87649 0.15144 0.0
C5691 C 0.33251 0.86965 0.15255 0.0
C5692 C 0.3407 0.8714 0.1569 0.0
C5693 C 0.34238 0.88013 0.1601 0.0
C5694 C 0.33605 0.88693 0.15902 0.0
H5695 H 0.32173 0.89611 0.13061 0.0
H5696 H 0.33004 0.89038 0.13726 0.0
H5697 H 0.31939 0.88515 0.13505 0.0
H5698 H 0.31987 0.87498 0.14816 0.0
H5699 H 0.33094 0.86299 0.1501 0.0
H5700 H 0.8004 0.43465 0.64029 0.0
H5701 H 0.81093 0.42221 0.64236 0.0
H5702 H 0.79351 0.41074 0.66231 0.0
H5703 H 0.78304 0.42319 0.66043 0.0
H5704 H 0.81994 0.41587 0.65789 0.0
H5705 H 0.79653 0.39038 0.64391 0.0
H5706 H 0.79482 0.4023 0.64251 0.0
H5707 H 0.79203 0.39697 0.65291 0.0
C5708 C 0.79886 0.42955 0.64521 0.0
C5709 C 0.79081 0.42988 0.65012 0.0
C5710 C 0.80486 0.42243 0.64635 0.0
C5711 C 0.8029 0.41548 0.65235 0.0
C5712 C 0.79505 0.41594 0.65749 0.0
H5713 H 0.83456 0.37036 0.67096 0.0
H5714 H 0.82384 0.38274 0.66949 0.0
C5715 C 0.78906 0.42305 0.65638 0.0
C5716 C 0.80899 0.40768 0.65317 0.0
H5717 H 0.81009 0.38496 0.65018 0.0
C5718 C 0.81779 0.40911 0.65619 0.0
C5719 C 0.80617 0.39889 0.6509 0.0
C5720 C 0.7969 0.39701 0.6473 0.0
C5721 C 0.82381 0.40194 0.65714 0.0
C5722 C 0.82096 0.39317 0.65495 0.0
C5723 C 0.8122 0.39172 0.65188 0.0
C5724 C 0.82708 0.38545 0.65569 0.0
C5725 C 0.83321 0.40371 0.66045 0.0
C5726 C 0.8323 0.38285 0.64836 0.0
C5727 C 0.83845 0.37583 0.64917 0.0
C5728 C 0.83946 0.3713 0.65734 0.0
C5729 C 0.83402 0.37379 0.66461 0.0
C5730 C 0.82788 0.38082 0.66379 0.0
H5731 H 0.83441 0.41093 0.66187 0.0
H5732 H 0.83444 0.39979 0.66663 0.0
H5733 H 0.83814 0.40142 0.65537 0.0
H5734 H 0.83176 0.38639 0.64207 0.0
H5735 H 0.84262 0.37416 0.64349 0.0
H5736 H 0.29806 0.07525 0.36885 0.0
H5737 H 0.30785 0.08833 0.36719 0.0
H5738 H 0.30334 0.08814 0.33878 0.0
H5739 H 0.29373 0.07494 0.3403 0.0
H5740 H 0.32361 0.09042 0.3566 0.0
H5741 H 0.29657 0.11393 0.34641 0.0
H5742 H 0.29426 0.10319 0.35152 0.0
H5743 H 0.29731 0.1038 0.33993 0.0
C5744 C 0.29925 0.07788 0.36222 0.0
C5745 C 0.29505 0.07403 0.35471 0.0
C5746 C 0.30479 0.08541 0.3613 0.0
C5747 C 0.30617 0.08929 0.35289 0.0
C5748 C 0.30219 0.08536 0.34536 0.0
H5749 H 0.33669 0.13493 0.33373 0.0
H5750 H 0.32646 0.1222 0.33546 0.0
C5751 C 0.29669 0.07781 0.34625 0.0
C5752 C 0.31186 0.09739 0.35199 0.0
H5753 H 0.31147 0.11945 0.34582 0.0
C5754 C 0.32096 0.09678 0.35429 0.0
C5755 C 0.30837 0.10566 0.34892 0.0
C5756 C 0.29858 0.10675 0.34662 0.0
C5757 C 0.32673 0.10419 0.35345 0.0
C5758 C 0.32323 0.11249 0.35046 0.0
C5759 C 0.31412 0.11309 0.34815 0.0
C5760 C 0.32896 0.12057 0.34959 0.0
C5761 C 0.33656 0.10298 0.35555 0.0
C5762 C 0.33353 0.12405 0.35702 0.0
C5763 C 0.33947 0.13124 0.35603 0.0
C5764 C 0.34086 0.13516 0.34761 0.0
C5765 C 0.33591 0.13195 0.34027 0.0
C5766 C 0.33001 0.12472 0.34126 0.0
H5767 H 0.33855 0.0958 0.35536 0.0
H5768 H 0.34083 0.10676 0.35076 0.0
H5769 H 0.33794 0.10556 0.36236 0.0
H5770 H 0.33264 0.12108 0.36355 0.0
H5771 H 0.34321 0.13349 0.36182 0.0
H5772 H 0.69656 0.56751 0.14846 0.0
H5773 H 0.68818 0.58138 0.15059 0.0
H5774 H 0.71214 0.59453 0.16015 0.0
H5775 H 0.72063 0.58059 0.15806 0.0
H5776 H 0.68562 0.59128 0.1663 0.0
H5777 H 0.70337 0.61142 0.14045 0.0
H5778 H 0.70442 0.59937 0.14111 0.0
H5779 H 0.71025 0.60641 0.14894 0.0
C5780 C 0.70006 0.57331 0.1511 0.0
C5781 C 0.70927 0.57293 0.15312 0.0
C5782 C 0.69526 0.58125 0.15227 0.0
C5783 C 0.69956 0.589 0.15543 0.0
C5784 C 0.70873 0.58866 0.15753 0.0
H5785 H 0.67566 0.64278 0.15886 0.0
H5786 H 0.68634 0.63023 0.15978 0.0
C5787 C 0.71357 0.5807 0.15634 0.0
C5788 C 0.6943 0.59736 0.15654 0.0
H5789 H 0.69152 0.61843 0.14808 0.0
C5790 C 0.68694 0.59725 0.16237 0.0
C5791 C 0.69612 0.60517 0.15149 0.0
C5792 C 0.70393 0.60564 0.14509 0.0
C5793 C 0.68122 0.60467 0.16317 0.0
C5794 C 0.68274 0.61232 0.15776 0.0
C5795 C 0.69032 0.61256 0.15218 0.0
C5796 C 0.67632 0.61992 0.15744 0.0
C5797 C 0.67366 0.60423 0.16986 0.0
C5798 C 0.66719 0.61832 0.15568 0.0
C5799 C 0.66112 0.62543 0.15536 0.0
C5800 C 0.66411 0.63428 0.1565 0.0
C5801 C 0.67325 0.63596 0.15799 0.0
C5802 C 0.67932 0.62882 0.15851 0.0
H5803 H 0.67536 0.59968 0.17549 0.0
H5804 H 0.67205 0.61096 0.17262 0.0
H5805 H 0.66758 0.60147 0.16657 0.0
H5806 H 0.66476 0.61158 0.15447 0.0
H5807 H 0.65409 0.62403 0.15408 0.0
H5808 H 0.1966 0.93826 0.85823 0.0
H5809 H 0.18825 0.92433 0.85617 0.0
H5810 H 0.21215 0.91136 0.84631 0.0
H5811 H 0.22061 0.92537 0.84832 0.0
H5812 H 0.18554 0.91441 0.8405 0.0
H5813 H 0.20371 0.89441 0.86612 0.0
H5814 H 0.2047 0.90647 0.86545 0.0
H5815 H 0.21046 0.89948 0.85755 0.0
C5816 C 0.20009 0.93248 0.85553 0.0
C5817 C 0.20928 0.93294 0.85341 0.0
C5818 C 0.19531 0.92451 0.85441 0.0
C5819 C 0.1996 0.9168 0.85119 0.0
C5820 C 0.20875 0.91721 0.84897 0.0
H5821 H 0.17589 0.86285 0.84807 0.0
H5822 H 0.18652 0.87547 0.84702 0.0
C5823 C 0.21357 0.92521 0.85012 0.0
C5824 C 0.19438 0.9084 0.85015 0.0
H5825 H 0.1918 0.88731 0.85865 0.0
C5826 C 0.18694 0.90846 0.84441 0.0
C5827 C 0.1963 0.90061 0.85518 0.0
C5828 C 0.20418 0.9002 0.86148 0.0
C5829 C 0.18125 0.90099 0.84369 0.0
C5830 C 0.18287 0.89336 0.84908 0.0
C5831 C 0.19052 0.89318 0.85456 0.0
C5832 C 0.17649 0.88571 0.84948 0.0
C5833 C 0.1736 0.90138 0.83709 0.0
C5834 C 0.16738 0.88725 0.85136 0.0
C5835 C 0.16133 0.88011 0.85175 0.0
C5836 C 0.16434 0.87127 0.85057 0.0
C5837 C 0.17347 0.86965 0.84897 0.0
C5838 C 0.17951 0.87683 0.84838 0.0
H5839 H 0.17521 0.90593 0.83144 0.0
H5840 H 0.17199 0.89463 0.83436 0.0
H5841 H 0.16755 0.90409 0.84046 0.0
H5842 H 0.16493 0.89398 0.8526 0.0
H5843 H 0.15432 0.88146 0.85311 0.0
H5844 H 0.86481 0.78602 0.5857 0.0
H5845 H 0.86261 0.79655 0.59799 0.0
H5846 H 0.84521 0.81255 0.58141 0.0
H5847 H 0.84709 0.80182 0.56915 0.0
H5848 H 0.86661 0.81439 0.5989 0.0
H5849 H 0.83004 0.80905 0.60367 0.0
H5850 H 0.83686 0.80164 0.59698 0.0
H5851 H 0.83308 0.81218 0.59251 0.0
C5852 C 0.86041 0.79171 0.58469 0.0
C5853 C 0.85605 0.79302 0.57646 0.0
C5854 C 0.85921 0.79775 0.59171 0.0
C5855 C 0.85363 0.80524 0.59066 0.0
C5856 C 0.8494 0.80671 0.58241 0.0
H5857 H 0.84036 0.85076 0.62349 0.0
H5858 H 0.84211 0.83962 0.61172 0.0
C5859 C 0.85057 0.80063 0.57538 0.0
C5860 C 0.85243 0.8116 0.59818 0.0
H5861 H 0.83667 0.82104 0.61181 0.0
C5862 C 0.86007 0.81581 0.60176 0.0
C5863 C 0.84389 0.81342 0.6019 0.0
C5864 C 0.8355 0.80878 0.59864 0.0
C5865 C 0.85938 0.82191 0.60885 0.0
C5866 C 0.85084 0.82377 0.61252 0.0
C5867 C 0.84321 0.81957 0.60897 0.0
C5868 C 0.84966 0.83032 0.61984 0.0
C5869 C 0.86775 0.82651 0.61224 0.0
C5870 C 0.85325 0.82871 0.62835 0.0
C5871 C 0.85215 0.83502 0.63518 0.0
C5872 C 0.84743 0.84304 0.6336 0.0
C5873 C 0.84385 0.84458 0.62504 0.0
C5874 C 0.8449 0.83825 0.61826 0.0
H5875 H 0.87348 0.8257 0.60757 0.0
H5876 H 0.86652 0.83379 0.61328 0.0
H5877 H 0.86967 0.82355 0.61876 0.0
H5878 H 0.85685 0.82255 0.62971 0.0
H5879 H 0.8549 0.83356 0.64171 0.0
H5880 H 0.93372 0.1412 0.29914 0.0
H5881 H 0.92128 0.14326 0.3096 0.0
H5882 H 0.91213 0.16611 0.29452 0.0
H5883 H 0.92458 0.16419 0.28409 0.0
H5884 H 0.91629 0.1579 0.32023 0.0
H5885 H 0.88997 0.14985 0.29519 0.0
H5886 H 0.90171 0.14755 0.29332 0.0
H5887 H 0.89744 0.15875 0.29196 0.0
C5888 C 0.92914 0.14674 0.29811 0.0
C5889 C 0.9301 0.15247 0.29071 0.0
C5890 C 0.922 0.14787 0.30407 0.0
C5891 C 0.91568 0.15471 0.30271 0.0
C5892 C 0.9168 0.16064 0.29554 0.0
H5893 H 0.87009 0.17311 0.33385 0.0
H5894 H 0.88241 0.17164 0.32308 0.0
C5895 C 0.92393 0.15953 0.28959 0.0
C5896 C 0.90788 0.15559 0.30877 0.0
H5897 H 0.88494 0.15504 0.30931 0.0
C5898 C 0.90944 0.15725 0.31786 0.0
C5899 C 0.89895 0.15472 0.30563 0.0
C5900 C 0.89688 0.15254 0.29601 0.0
C5901 C 0.90228 0.15816 0.32388 0.0
C5902 C 0.89339 0.15733 0.32072 0.0
C5903 C 0.8918 0.15569 0.31166 0.0
C5904 C 0.88567 0.15802 0.32683 0.0
C5905 C 0.90422 0.16008 0.33357 0.0
C5906 C 0.88338 0.15077 0.33233 0.0
C5907 C 0.87635 0.15157 0.33845 0.0
C5908 C 0.87155 0.15966 0.33917 0.0
C5909 C 0.87373 0.16683 0.33348 0.0
C5910 C 0.88073 0.166 0.32732 0.0
H5911 H 0.91145 0.16143 0.3348 0.0
H5912 H 0.90025 0.16596 0.33585 0.0
H5913 H 0.90214 0.15423 0.33767 0.0
H5914 H 0.88714 0.14456 0.33199 0.0
H5915 H 0.87488 0.14597 0.34282 0.0
H5916 H 0.66597 0.21817 0.07954 0.0
H5917 H 0.66797 0.2077 0.09194 0.0
H5918 H 0.64154 0.19685 0.08715 0.0
H5919 H 0.63946 0.20731 0.0748 0.0
H5920 H 0.65817 0.20633 0.10723 0.0
H5921 H 0.65657 0.1743 0.08853 0.0
H5922 H 0.65806 0.18499 0.08308 0.0
H5923 H 0.64704 0.18133 0.08642 0.0
C5924 C 0.66059 0.21354 0.08111 0.0
C5925 C 0.65256 0.21357 0.07614 0.0
C5926 C 0.66176 0.20754 0.08818 0.0
C5927 C 0.65496 0.2014 0.09039 0.0
C5928 C 0.64697 0.20137 0.08542 0.0
H5929 H 0.64186 0.16505 0.13247 0.0
H5930 H 0.64245 0.17535 0.11981 0.0
C5931 C 0.64579 0.20736 0.07835 0.0
C5932 C 0.65603 0.19532 0.09814 0.0
H5933 H 0.65476 0.17332 0.10438 0.0
C5934 C 0.65755 0.1991 0.1066 0.0
C5935 C 0.65527 0.18589 0.09729 0.0
C5936 C 0.65424 0.18138 0.08833 0.0
C5937 C 0.65794 0.19372 0.11428 0.0
C5938 C 0.65683 0.18434 0.11344 0.0
C5939 C 0.65555 0.18053 0.10498 0.0
C5940 C 0.65657 0.17839 0.12131 0.0
C5941 C 0.65923 0.1981 0.12327 0.0
C5942 C 0.66434 0.17671 0.12633 0.0
C5943 C 0.66402 0.17083 0.1336 0.0
C5944 C 0.65592 0.16659 0.13597 0.0
C5945 C 0.64816 0.16834 0.13093 0.0
C5946 C 0.64849 0.17416 0.12365 0.0
H5947 H 0.65873 0.20553 0.1229 0.0
H5948 H 0.65415 0.19558 0.12808 0.0
H5949 H 0.66596 0.19634 0.12591 0.0
H5950 H 0.67065 0.17985 0.12455 0.0
H5951 H 0.6701 0.16962 0.13738 0.0
H5952 H 0.57423 0.83847 0.79305 0.0
H5953 H 0.58798 0.83571 0.80171 0.0
H5954 H 0.58853 0.86354 0.80966 0.0
H5955 H 0.57491 0.86633 0.80109 0.0
H5956 H 0.60549 0.84379 0.8015 0.0
H5957 H 0.5878 0.84987 0.83344 0.0
H5958 H 0.58192 0.84792 0.82308 0.0
H5959 H 0.58636 0.85887 0.82561 0.0
C5960 C 0.57736 0.84401 0.79655 0.0
C5961 C 0.57341 0.85259 0.79652 0.0
C5962 C 0.58518 0.84242 0.80151 0.0
C5963 C 0.58913 0.84938 0.80649 0.0
C5964 C 0.58545 0.85803 0.80606 0.0
H5965 H 0.63178 0.86234 0.84142 0.0
H5966 H 0.61931 0.86139 0.83093 0.0
C5967 C 0.57767 0.85961 0.80115 0.0
C5968 C 0.59691 0.8477 0.81239 0.0
H5969 H 0.60384 0.85034 0.83394 0.0
C5970 C 0.60513 0.84508 0.80861 0.0
C5971 C 0.59638 0.8493 0.82168 0.0
C5972 C 0.58762 0.85156 0.82622 0.0
C5973 C 0.61295 0.84452 0.81384 0.0
C5974 C 0.61248 0.84661 0.82304 0.0
C5975 C 0.60419 0.84884 0.82686 0.0
C5976 C 0.62054 0.84709 0.82877 0.0
C5977 C 0.62173 0.8421 0.80946 0.0
C5978 C 0.6254 0.83934 0.83099 0.0
C5979 C 0.63261 0.83987 0.83696 0.0
C5980 C 0.63506 0.84815 0.8408 0.0
C5981 C 0.63021 0.85589 0.83845 0.0
C5982 C 0.62303 0.85535 0.83251 0.0
H5983 H 0.62121 0.84202 0.80206 0.0
H5984 H 0.62707 0.84691 0.81145 0.0
H5985 H 0.62382 0.83532 0.81171 0.0
H5986 H 0.62349 0.83288 0.82827 0.0
H5987 H 0.63623 0.83379 0.8386 0.0
H5988 H 0.86753 0.2133 0.92695 0.0
H5989 H 0.86558 0.205 0.91301 0.0
H5990 H 0.84007 0.19499 0.92234 0.0
H5991 H 0.84177 0.20359 0.93613 0.0
H5992 H 0.86429 0.187 0.91134 0.0
H5993 H 0.83375 0.20282 0.89734 0.0
H5994 H 0.84005 0.2078 0.90638 0.0
H5995 H 0.83217 0.19888 0.90855 0.0
C5996 C 0.86139 0.20953 0.92595 0.0
C5997 C 0.85479 0.20914 0.93266 0.0
C5998 C 0.86032 0.20473 0.918 0.0
C5999 C 0.85263 0.19948 0.91658 0.0
C6000 C 0.84597 0.19916 0.92321 0.0
H6001 H 0.83986 0.15497 0.88327 0.0
H6002 H 0.84147 0.16639 0.89481 0.0
C6003 C 0.84701 0.20399 0.93114 0.0
C6004 C 0.85187 0.19382 0.90847 0.0
H6005 H 0.83812 0.18872 0.89093 0.0
C6006 C 0.85863 0.18747 0.90681 0.0
C6007 C 0.84448 0.19444 0.90257 0.0
C6008 C 0.83724 0.20142 0.90374 0.0
C6009 C 0.85805 0.18155 0.89956 0.0
C6010 C 0.85054 0.182 0.89385 0.0
C6011 C 0.84387 0.18844 0.89536 0.0
C6012 C 0.84928 0.17541 0.88662 0.0
C6013 C 0.86532 0.17465 0.89814 0.0
C6014 C 0.85312 0.17679 0.87819 0.0
C6015 C 0.85211 0.17032 0.87149 0.0
C6016 C 0.84726 0.16237 0.87315 0.0
C6017 C 0.84344 0.16108 0.88166 0.0
C6018 C 0.8444 0.16757 0.8883 0.0
H6019 H 0.87078 0.17522 0.90315 0.0
H6020 H 0.86238 0.16781 0.89852 0.0
H6021 H 0.86823 0.17546 0.89137 0.0
H6022 H 0.85692 0.18284 0.87683 0.0
H6023 H 0.85507 0.17157 0.86501 0.0
H6024 H 0.58102 0.14483 0.71914 0.0
H6025 H 0.5952 0.14677 0.7112 0.0
H6026 H 0.58278 0.16619 0.69383 0.0
H6027 H 0.56876 0.16474 0.70207 0.0
H6028 H 0.59824 0.14279 0.69433 0.0
H6029 H 0.60578 0.17886 0.69915 0.0
H6030 H 0.59728 0.1731 0.70555 0.0
H6031 H 0.59483 0.17711 0.69448 0.0
C6032 C 0.58136 0.14973 0.71381 0.0
C6033 C 0.57371 0.15463 0.71126 0.0
C6034 C 0.58947 0.15077 0.70923 0.0
C6035 C 0.5901 0.15671 0.70198 0.0
C6036 C 0.58254 0.16172 0.69952 0.0
H6037 H 0.62659 0.16384 0.65816 0.0
H6038 H 0.61423 0.16433 0.66882 0.0
C6039 C 0.57446 0.16077 0.70416 0.0
C6040 C 0.59844 0.15708 0.69656 0.0
H6041 H 0.61388 0.17138 0.68747 0.0
C6042 C 0.60173 0.14903 0.69294 0.0
C6043 C 0.60296 0.16523 0.6947 0.0
C6044 C 0.60008 0.17405 0.69875 0.0
C6045 C 0.60927 0.14893 0.68735 0.0
C6046 C 0.61367 0.15709 0.68537 0.0
C6047 C 0.61046 0.16514 0.68902 0.0
C6048 C 0.62144 0.15739 0.67925 0.0
C6049 C 0.61233 0.14014 0.68337 0.0
C6050 C 0.62964 0.15349 0.68169 0.0
C6051 C 0.63679 0.1533 0.67566 0.0
C6052 C 0.63585 0.15699 0.66707 0.0
C6053 C 0.62764 0.16107 0.66475 0.0
C6054 C 0.62053 0.16131 0.67081 0.0
H6055 H 0.60731 0.13471 0.68433 0.0
H6056 H 0.61367 0.14091 0.67612 0.0
H6057 H 0.61869 0.13806 0.68662 0.0
H6058 H 0.63047 0.15052 0.68823 0.0
H6059 H 0.64305 0.15025 0.67773 0.0
H6060 H 0.65339 0.80338 0.43705 0.0
H6061 H 0.65482 0.81388 0.42452 0.0
H6062 H 0.65252 0.79186 0.40596 0.0
H6063 H 0.65087 0.78138 0.41836 0.0
H6064 H 0.66792 0.81353 0.40974 0.0
H6065 H 0.63252 0.80985 0.39854 0.0
H6066 H 0.63619 0.80661 0.40956 0.0
H6067 H 0.63858 0.79955 0.40013 0.0
C6068 C 0.65314 0.80078 0.4303 0.0
C6069 C 0.652 0.79154 0.42871 0.0
C6070 C 0.65402 0.80678 0.42316 0.0
C6071 C 0.65369 0.80363 0.41434 0.0
C6072 C 0.6527 0.79442 0.41273 0.0
H6073 H 0.65183 0.82895 0.36228 0.0
H6074 H 0.6522 0.81833 0.37473 0.0
C6075 C 0.65184 0.78843 0.41984 0.0
C6076 C 0.65424 0.80998 0.40677 0.0
H6077 H 0.64217 0.81829 0.3893 0.0
C6078 C 0.66229 0.81462 0.40528 0.0
C6079 C 0.6469 0.8113 0.40094 0.0
C6080 C 0.63802 0.80663 0.40238 0.0
C6081 C 0.66327 0.82046 0.39798 0.0
C6082 C 0.65589 0.82185 0.39218 0.0
C6083 C 0.64783 0.81721 0.39372 0.0
C6084 C 0.65627 0.82819 0.38456 0.0
C6085 C 0.67226 0.82486 0.39643 0.0
C6086 C 0.65843 0.83727 0.38594 0.0
C6087 C 0.65829 0.84332 0.37883 0.0
C6088 C 0.65584 0.84044 0.37023 0.0
C6089 C 0.6537 0.83136 0.36885 0.0
C6090 C 0.65393 0.82529 0.37595 0.0
H6091 H 0.67778 0.82099 0.39959 0.0
H6092 H 0.67372 0.82554 0.3892 0.0
H6093 H 0.67222 0.83166 0.39947 0.0
H6094 H 0.65999 0.83973 0.39256 0.0
H6095 H 0.65981 0.85031 0.38013 0.0
H6096 H 0.92818 0.84316 0.21647 0.0
H6097 H 0.91407 0.84071 0.20829 0.0
H6098 H 0.92065 0.86265 0.19069 0.0
H6099 H 0.93469 0.86504 0.1987 0.0
H6100 H 0.89945 0.85156 0.20469 0.0
H6101 H 0.91666 0.8423 0.17327 0.0
H6102 H 0.92249 0.84304 0.18379 0.0
H6103 H 0.92029 0.85301 0.17737 0.0
C6104 C 0.92657 0.84748 0.21088 0.0
C6105 C 0.9326 0.85419 0.20812 0.0
C6106 C 0.91853 0.84606 0.20621 0.0
C6107 C 0.91644 0.85135 0.19874 0.0
C6108 C 0.92227 0.85831 0.19626 0.0
H6109 H 0.87374 0.86049 0.16196 0.0
H6110 H 0.88591 0.86145 0.17289 0.0
C6111 C 0.93028 0.85968 0.20085 0.0
C6112 C 0.90823 0.84962 0.19342 0.0
H6113 H 0.90108 0.84606 0.17205 0.0
C6114 C 0.8998 0.85024 0.19758 0.0
C6115 C 0.9087 0.84781 0.18415 0.0
C6116 C 0.91753 0.8464 0.1794 0.0
C6117 C 0.89183 0.84948 0.19261 0.0
C6118 C 0.89236 0.84813 0.1833 0.0
C6119 C 0.90075 0.84723 0.17919 0.0
C6120 C 0.8843 0.84783 0.1776 0.0
C6121 C 0.88289 0.85036 0.19722 0.0
C6122 C 0.87933 0.83988 0.17677 0.0
C6123 C 0.87238 0.8393 0.17053 0.0
C6124 C 0.8703 0.84667 0.16505 0.0
C6125 C 0.87509 0.85473 0.16617 0.0
C6126 C 0.88207 0.85529 0.17236 0.0
H6127 H 0.88361 0.85177 0.20446 0.0
H6128 H 0.87894 0.85584 0.19409 0.0
H6129 H 0.87901 0.84405 0.19637 0.0
H6130 H 0.88103 0.83405 0.18073 0.0
H6131 H 0.86875 0.83302 0.16986 0.0
H6132 H 0.07184 0.66898 0.20631 0.0
H6133 H 0.08559 0.67053 0.19743 0.0
H6134 H 0.09366 0.64386 0.20511 0.0
H6135 H 0.07991 0.64216 0.21384 0.0
H6136 H 0.10534 0.66721 0.2031 0.0
H6137 H 0.09168 0.64478 0.17664 0.0
H6138 H 0.08455 0.65066 0.18445 0.0
H6139 H 0.09068 0.64094 0.18798 0.0
C6140 C 0.07656 0.66346 0.20615 0.0
C6141 C 0.07476 0.65543 0.21076 0.0
C6142 C 0.08443 0.66439 0.20112 0.0
C6143 C 0.09057 0.65729 0.2006 0.0
C6144 C 0.08896 0.6494 0.20543 0.0
H6145 H 0.13527 0.64317 0.16747 0.0
H6146 H 0.12303 0.64388 0.17815 0.0
C6147 C 0.08113 0.64847 0.21047 0.0
C6148 C 0.09841 0.65787 0.19459 0.0
H6149 H 0.10673 0.64933 0.17518 0.0
C6150 C 0.10568 0.66335 0.19697 0.0
C6151 C 0.09875 0.65281 0.18662 0.0
C6152 C 0.09099 0.647 0.18369 0.0
C6153 C 0.11348 0.66368 0.1917 0.0
C6154 C 0.11387 0.65855 0.18373 0.0
C6155 C 0.10647 0.65322 0.1813 0.0
C6156 C 0.1219 0.65837 0.17787 0.0
C6157 C 0.12131 0.66927 0.19488 0.0
C6158 C 0.12544 0.66628 0.17421 0.0
C6159 C 0.13268 0.66592 0.16828 0.0
C6160 C 0.13639 0.65761 0.16571 0.0
C6161 C 0.1328 0.64971 0.16942 0.0
C6162 C 0.12569 0.6501 0.17547 0.0
H6163 H 0.12095 0.67054 0.20217 0.0
H6164 H 0.1278 0.66595 0.19335 0.0
H6165 H 0.12117 0.67586 0.19145 0.0
H6166 H 0.1225 0.67273 0.17577 0.0
H6167 H 0.13531 0.67217 0.16566 0.0
H6168 H 0.15717 0.30156 0.93617 0.0
H6169 H 0.15857 0.31231 0.92384 0.0
H6170 H 0.14579 0.29342 0.90609 0.0
H6171 H 0.14413 0.28278 0.91835 0.0
H6172 H 0.1673 0.3101 0.90686 0.0
H6173 H 0.13075 0.31639 0.90332 0.0
H6174 H 0.13556 0.31123 0.91312 0.0
H6175 H 0.13378 0.30472 0.90315 0.0
C6176 C 0.15459 0.29974 0.92966 0.0
C6177 C 0.15053 0.29132 0.92825 0.0
C6178 C 0.15545 0.30586 0.92262 0.0
C6179 C 0.15219 0.30369 0.9141 0.0
C6180 C 0.14824 0.29527 0.91265 0.0
H6181 H 0.14843 0.32938 0.86258 0.0
H6182 H 0.14857 0.31886 0.87509 0.0
C6183 C 0.14738 0.28916 0.91965 0.0
C6184 C 0.15285 0.3102 0.90667 0.0
H6185 H 0.14014 0.32198 0.8918 0.0
C6186 C 0.16138 0.31276 0.9036 0.0
C6187 C 0.1451 0.31363 0.90244 0.0
C6188 C 0.13577 0.31143 0.90571 0.0
C6189 C 0.16235 0.31851 0.89623 0.0
C6190 C 0.15459 0.32184 0.89194 0.0
C6191 C 0.14607 0.31935 0.89507 0.0
C6192 C 0.1551 0.32803 0.88424 0.0
C6193 C 0.17165 0.32079 0.89294 0.0
C6194 C 0.15871 0.33666 0.88526 0.0
C6195 C 0.15854 0.34273 0.87816 0.0
C6196 C 0.15474 0.34028 0.8699 0.0
C6197 C 0.15129 0.33154 0.86887 0.0
C6198 C 0.15142 0.3255 0.87599 0.0
H6199 H 0.17677 0.31609 0.89561 0.0
H6200 H 0.17191 0.32063 0.88554 0.0
H6201 H 0.17343 0.32767 0.89516 0.0
H6202 H 0.16141 0.3388 0.89163 0.0
H6203 H 0.1611 0.34945 0.87927 0.0
H6204 H 0.42389 0.35695 0.72069 0.0
H6205 H 0.40972 0.35403 0.71286 0.0
H6206 H 0.42442 0.34776 0.68885 0.0
H6207 H 0.43853 0.35029 0.69667 0.0
H6208 H 0.40335 0.36302 0.6982 0.0
H6209 H 0.40704 0.327 0.69014 0.0
H6210 H 0.41402 0.33257 0.6983 0.0
H6211 H 0.4166 0.3334 0.68659 0.0
C6212 C 0.4241 0.35475 0.7138 0.0
C6213 C 0.43234 0.35388 0.7093 0.0
C6214 C 0.416 0.35314 0.70933 0.0
C6215 C 0.41602 0.35056 0.70031 0.0
C6216 C 0.42424 0.34956 0.69586 0.0
H6217 H 0.3831 0.34424 0.65488 0.0
H6218 H 0.39457 0.34529 0.66644 0.0
C6219 C 0.4323 0.35113 0.70031 0.0
C6220 C 0.4075 0.34949 0.69531 0.0
H6221 H 0.39646 0.33525 0.68124 0.0
C6222 C 0.40174 0.35691 0.69461 0.0
C6223 C 0.40541 0.34149 0.69067 0.0
C6224 C 0.41105 0.33314 0.69153 0.0
C6225 C 0.39423 0.35673 0.68893 0.0
C6226 C 0.39239 0.34886 0.68395 0.0
C6227 C 0.39792 0.34131 0.68501 0.0
C6228 C 0.38526 0.34849 0.67706 0.0
C6229 C 0.38864 0.36511 0.68797 0.0
C6230 C 0.37619 0.34999 0.67918 0.0
C6231 C 0.3696 0.34947 0.67253 0.0
C6232 C 0.37199 0.34728 0.66373 0.0
C6233 C 0.38106 0.34582 0.66165 0.0
C6234 C 0.38762 0.34643 0.66824 0.0
H6235 H 0.39212 0.37112 0.69069 0.0
H6236 H 0.38697 0.36637 0.68086 0.0
H6237 H 0.38227 0.36424 0.6917 0.0
H6238 H 0.37419 0.35141 0.68599 0.0
H6239 H 0.36263 0.35056 0.6743 0.0
H6240 H 0.16585 0.71981 0.58068 0.0
H6241 H 0.1678 0.7093 0.59304 0.0
H6242 H 0.14331 0.69578 0.58558 0.0
H6243 H 0.14124 0.7063 0.57326 0.0
H6244 H 0.15667 0.70665 0.60725 0.0
H6245 H 0.16059 0.67496 0.58829 0.0
H6246 H 0.16145 0.68585 0.58309 0.0
H6247 H 0.15061 0.68097 0.58529 0.0
C6248 C 0.16087 0.71459 0.58165 0.0
C6249 C 0.15338 0.7139 0.57596 0.0
C6250 C 0.16203 0.70857 0.58869 0.0
C6251 C 0.15577 0.70169 0.59015 0.0
C6252 C 0.14834 0.70091 0.58444 0.0
H6253 H 0.14216 0.66519 0.63192 0.0
H6254 H 0.14288 0.67553 0.61928 0.0
C6255 C 0.14717 0.70693 0.57739 0.0
C6256 C 0.15674 0.69562 0.59793 0.0
H6257 H 0.15744 0.67352 0.6039 0.0
C6258 C 0.15696 0.69941 0.60652 0.0
C6259 C 0.15716 0.68618 0.59695 0.0
C6260 C 0.15754 0.68175 0.5879 0.0
C6261 C 0.15725 0.69398 0.61416 0.0
C6262 C 0.15733 0.68457 0.61316 0.0
C6263 C 0.15733 0.68077 0.6046 0.0
C6264 C 0.15698 0.67854 0.62095 0.0
C6265 C 0.15721 0.69828 0.62327 0.0
C6266 C 0.1647 0.67685 0.62603 0.0
C6267 C 0.16432 0.67095 0.63327 0.0
C6268 C 0.15619 0.66671 0.63555 0.0
C6269 C 0.14848 0.66848 0.63044 0.0
C6270 C 0.14888 0.67432 0.62318 0.0
H6271 H 0.1566 0.70571 0.62292 0.0
H6272 H 0.15155 0.69558 0.62728 0.0
H6273 H 0.16352 0.69659 0.62682 0.0
H6274 H 0.17101 0.68005 0.62435 0.0
H6275 H 0.17036 0.66973 0.63711 0.0
H6276 H 0.36809 0.30051 0.074 0.0
H6277 H 0.36612 0.31084 0.08654 0.0
H6278 H 0.33943 0.30048 0.09088 0.0
H6279 H 0.3413 0.29018 0.07831 0.0
H6280 H 0.35341 0.32415 0.08959 0.0
H6281 H 0.35115 0.29741 0.1153 0.0
H6282 H 0.355 0.29525 0.10408 0.0
H6283 H 0.34319 0.2963 0.10636 0.0
C6284 C 0.36176 0.3005 0.07754 0.0
C6285 C 0.35488 0.29446 0.07519 0.0
C6286 C 0.36066 0.30637 0.08474 0.0
C6287 C 0.3527 0.30627 0.08975 0.0
C6288 C 0.34572 0.30048 0.08725 0.0
H6289 H 0.33387 0.33707 0.13523 0.0
H6290 H 0.33547 0.32651 0.12279 0.0
C6291 C 0.3468 0.29461 0.08005 0.0
C6292 C 0.35172 0.31226 0.09758 0.0
H6293 H 0.34827 0.3123 0.12012 0.0
C6294 C 0.35232 0.32156 0.09627 0.0
C6295 C 0.35028 0.30885 0.10628 0.0
C6296 C 0.34994 0.29891 0.10813 0.0
C6297 C 0.35141 0.32757 0.10343 0.0
C6298 C 0.35001 0.32416 0.11212 0.0
C6299 C 0.34935 0.31487 0.11343 0.0
C6300 C 0.34923 0.33016 0.11993 0.0
C6301 C 0.35178 0.33753 0.10162 0.0
C6302 C 0.35653 0.33551 0.12256 0.0
C6303 C 0.35563 0.34154 0.12963 0.0
C6304 C 0.34743 0.34231 0.13421 0.0
C6305 C 0.34023 0.33671 0.13176 0.0
C6306 C 0.34114 0.33066 0.12469 0.0
H6307 H 0.3508 0.33906 0.09443 0.0
H6308 H 0.34659 0.34113 0.10554 0.0
H6309 H 0.35846 0.34015 0.10364 0.0
H6310 H 0.36287 0.3351 0.11904 0.0
H6311 H 0.36127 0.34582 0.13131 0.0
H6312 H 0.55027 0.41259 0.18735 0.0
H6313 H 0.56114 0.41438 0.17518 0.0
H6314 H 0.54554 0.3964 0.15876 0.0
H6315 H 0.53473 0.39451 0.17085 0.0
H6316 H 0.57133 0.4012 0.16627 0.0
H6317 H 0.54835 0.41852 0.14285 0.0
H6318 H 0.54594 0.4174 0.15461 0.0
H6319 H 0.54396 0.40815 0.14712 0.0
C6320 C 0.54918 0.40898 0.18117 0.0
C6321 C 0.54157 0.40349 0.18004 0.0
C6322 C 0.55537 0.41005 0.17421 0.0
C6323 C 0.55402 0.40568 0.16601 0.0
C6324 C 0.54656 0.40003 0.16495 0.0
H6325 H 0.58036 0.39984 0.11528 0.0
H6326 H 0.57018 0.39998 0.12802 0.0
C6327 C 0.5404 0.39896 0.17187 0.0
C6328 C 0.5605 0.40679 0.1586 0.0
H6329 H 0.56208 0.41312 0.13677 0.0
C6330 C 0.56936 0.40389 0.15984 0.0
C6331 C 0.55787 0.41028 0.15022 0.0
C6332 C 0.54854 0.41385 0.14862 0.0
C6333 C 0.57559 0.40405 0.15281 0.0
C6334 C 0.57293 0.40742 0.14438 0.0
C6335 C 0.56411 0.4105 0.14321 0.0
C6336 C 0.57909 0.40758 0.1366 0.0
C6337 C 0.58484 0.40026 0.15443 0.0
C6338 C 0.58741 0.41196 0.1371 0.0
C6339 C 0.59337 0.41166 0.12992 0.0
C6340 C 0.59104 0.40719 0.12195 0.0
C6341 C 0.58251 0.40316 0.12135 0.0
C6342 C 0.57662 0.40331 0.12861 0.0
H6343 H 0.58494 0.39568 0.16027 0.0
H6344 H 0.58732 0.39652 0.1485 0.0
H6345 H 0.58957 0.40585 0.15583 0.0
H6346 H 0.58936 0.41553 0.14309 0.0
H6347 H 0.5999 0.41476 0.13073 0.0
H6348 H 0.9514 0.59548 0.6869 0.0
H6349 H 0.94283 0.59355 0.67314 0.0
H6350 H 0.95785 0.61498 0.66085 0.0
H6351 H 0.96632 0.61717 0.67469 0.0
H6352 H 0.93251 0.60838 0.66538 0.0
H6353 H 0.95775 0.5939 0.64206 0.0
H6354 H 0.95889 0.59313 0.65405 0.0
H6355 H 0.96105 0.60357 0.64849 0.0
C6356 C 0.95292 0.59979 0.68128 0.0
C6357 C 0.95951 0.60654 0.68194 0.0
C6358 C 0.94805 0.59862 0.6734 0.0
C6359 C 0.94976 0.60409 0.66599 0.0
C6360 C 0.95654 0.61061 0.66647 0.0
H6361 H 0.92236 0.60657 0.61438 0.0
H6362 H 0.93305 0.60867 0.62662 0.0
C6363 C 0.96138 0.61183 0.67438 0.0
C6364 C 0.9439 0.60343 0.65805 0.0
H6365 H 0.94339 0.59701 0.63618 0.0
C6366 C 0.93487 0.6059 0.65898 0.0
C6367 C 0.94707 0.60031 0.64972 0.0
C6368 C 0.95671 0.59752 0.64847 0.0
C6369 C 0.92889 0.6053 0.6518 0.0
C6370 C 0.93195 0.60188 0.64353 0.0
C6371 C 0.94104 0.59958 0.64254 0.0
C6372 C 0.92572 0.60036 0.63596 0.0
C6373 C 0.91936 0.60848 0.65314 0.0
C6374 C 0.91818 0.59485 0.6371 0.0
C6375 C 0.91196 0.59381 0.63023 0.0
C6376 C 0.91327 0.59806 0.62194 0.0
C6377 C 0.92103 0.60332 0.6207 0.0
C6378 C 0.9272 0.60446 0.62766 0.0
H6379 H 0.9189 0.61346 0.65864 0.0
H6380 H 0.91663 0.61157 0.64697 0.0
H6381 H 0.91507 0.60267 0.65496 0.0
H6382 H 0.91701 0.59144 0.64337 0.0
H6383 H 0.90602 0.58984 0.63154 0.0
H6384 H 0.58553 0.32488 0.54419 0.0
H6385 H 0.58438 0.33836 0.55345 0.0
H6386 H 0.61311 0.33846 0.55697 0.0
H6387 H 0.61439 0.32529 0.54738 0.0
H6388 H 0.58934 0.34168 0.57081 0.0
H6389 H 0.60846 0.36362 0.5478 0.0
H6390 H 0.60432 0.35271 0.54453 0.0
H6391 H 0.61453 0.35371 0.55089 0.0
C6392 C 0.59162 0.32781 0.54687 0.0
C6393 C 0.60007 0.32402 0.54496 0.0
C6394 C 0.59094 0.33548 0.55221 0.0
C6395 C 0.59868 0.33952 0.55574 0.0
C6396 C 0.60707 0.33557 0.55414 0.0
H6397 H 0.61287 0.38308 0.59013 0.0
H6398 H 0.61205 0.37033 0.57995 0.0
C6399 C 0.60777 0.32794 0.54876 0.0
C6400 C 0.59801 0.34786 0.56109 0.0
H6401 H 0.60586 0.36936 0.56242 0.0
C6402 C 0.59287 0.34776 0.56895 0.0
C6403 C 0.60256 0.35581 0.55859 0.0
C6404 C 0.6077 0.35653 0.54994 0.0
C6405 C 0.5925 0.3553 0.57457 0.0
C6406 C 0.59729 0.36315 0.57221 0.0
C6407 C 0.60223 0.36331 0.56424 0.0
C6408 C 0.59766 0.37111 0.57811 0.0
C6409 C 0.58723 0.35469 0.58316 0.0
C6410 C 0.58986 0.3759 0.58029 0.0
C6411 C 0.59031 0.38326 0.58607 0.0
C6412 C 0.59859 0.38598 0.58972 0.0
C6413 C 0.60641 0.38127 0.58734 0.0
C6414 C 0.60595 0.37393 0.58157 0.0
H6415 H 0.5856 0.34763 0.58492 0.0
H6416 H 0.59102 0.35777 0.58876 0.0
H6417 H 0.58082 0.35839 0.58239 0.0
H6418 H 0.58343 0.37395 0.57752 0.0
H6419 H 0.58418 0.38682 0.58767 0.0
H6420 H 0.43308 0.63939 0.79883 0.0
H6421 H 0.42055 0.64129 0.80921 0.0
H6422 H 0.41297 0.66574 0.79583 0.0
H6423 H 0.42551 0.66396 0.78548 0.0
H6424 H 0.41626 0.65512 0.82089 0.0
H6425 H 0.38984 0.65109 0.79504 0.0
H6426 H 0.40145 0.64828 0.79303 0.0
H6427 H 0.39784 0.65979 0.79266 0.0
C6428 C 0.42882 0.64523 0.79815 0.0
C6429 C 0.43026 0.65148 0.79126 0.0
C6430 C 0.42163 0.64628 0.80406 0.0
C6431 C 0.41572 0.65355 0.80316 0.0
C6432 C 0.41731 0.65995 0.79649 0.0
H6433 H 0.36977 0.67183 0.83385 0.0
H6434 H 0.38216 0.67031 0.82316 0.0
C6435 C 0.42449 0.65892 0.79059 0.0
C6436 C 0.40789 0.65442 0.80919 0.0
H6437 H 0.38497 0.65546 0.80949 0.0
C6438 C 0.40942 0.65515 0.8184 0.0
C6439 C 0.39897 0.65446 0.80592 0.0
C6440 C 0.39689 0.65328 0.79613 0.0
C6441 C 0.40226 0.65604 0.82442 0.0
C6442 C 0.39337 0.65611 0.82114 0.0
C6443 C 0.39182 0.65541 0.81195 0.0
C6444 C 0.3856 0.65682 0.82721 0.0
C6445 C 0.40423 0.65705 0.83425 0.0
C6446 C 0.38336 0.64965 0.83284 0.0
C6447 C 0.3763 0.65048 0.83891 0.0
C6448 C 0.37139 0.65852 0.83946 0.0
C6449 C 0.3735 0.6656 0.83362 0.0
C6450 C 0.38053 0.66473 0.82751 0.0
H6451 H 0.41145 0.6584 0.83554 0.0
H6452 H 0.40019 0.66259 0.83715 0.0
H6453 H 0.40234 0.65076 0.83775 0.0
H6454 H 0.38718 0.64346 0.83264 0.0
H6455 H 0.37488 0.64495 0.84339 0.0
H6456 H 0.07023 0.33629 0.30019 0.0
H6457 H 0.08397 0.33473 0.30906 0.0
H6458 H 0.09279 0.36083 0.30026 0.0
H6459 H 0.07903 0.36255 0.29154 0.0
H6460 H 0.10371 0.33719 0.3032 0.0
H6461 H 0.09105 0.36126 0.32868 0.0
H6462 H 0.08366 0.35534 0.32113 0.0
H6463 H 0.09021 0.36465 0.31719 0.0
C6464 C 0.07511 0.34168 0.30011 0.0
C6465 C 0.07351 0.34957 0.29519 0.0
C6466 C 0.08297 0.34075 0.30513 0.0
C6467 C 0.08932 0.3477 0.30533 0.0
C6468 C 0.08792 0.35542 0.30019 0.0
H6469 H 0.13428 0.36155 0.33836 0.0
H6470 H 0.1221 0.36093 0.32767 0.0
C6471 C 0.08009 0.35635 0.29516 0.0
C6472 C 0.09718 0.34714 0.31132 0.0
H6473 H 0.10588 0.35617 0.33035 0.0
C6474 C 0.10422 0.3413 0.30916 0.0
C6475 C 0.09776 0.35253 0.31905 0.0
C6476 C 0.09026 0.35877 0.32173 0.0
C6477 C 0.11203 0.34093 0.31442 0.0
C6478 C 0.11264 0.34636 0.32218 0.0
C6479 C 0.10546 0.35205 0.32439 0.0
C6480 C 0.12068 0.34647 0.32805 0.0
C6481 C 0.11963 0.33496 0.31141 0.0
C6482 C 0.12409 0.33853 0.33179 0.0
C6483 C 0.13137 0.33882 0.33767 0.0
C6484 C 0.13522 0.3471 0.3402 0.0
C6485 C 0.13173 0.35502 0.33645 0.0
C6486 C 0.12463 0.35469 0.3304 0.0
H6487 H 0.11926 0.33356 0.30413 0.0
H6488 H 0.12626 0.33802 0.3129 0.0
H6489 H 0.11916 0.32843 0.31494 0.0
H6490 H 0.12102 0.33211 0.33031 0.0
H6491 H 0.1339 0.33254 0.34026 0.0
H6492 H 0.34661 0.69616 0.4395 0.0
H6493 H 0.34489 0.68823 0.42537 0.0
H6494 H 0.35665 0.71067 0.41143 0.0
H6495 H 0.35888 0.71849 0.42564 0.0
H6496 H 0.33579 0.69226 0.41021 0.0
H6497 H 0.3724 0.69024 0.4031 0.0
H6498 H 0.36809 0.69373 0.41381 0.0
H6499 H 0.36804 0.70138 0.40453 0.0
C6500 C 0.34892 0.6994 0.43345 0.0
C6501 C 0.35304 0.70791 0.43374 0.0
C6502 C 0.34786 0.69488 0.42536 0.0
C6503 C 0.35082 0.69878 0.41737 0.0
C6504 C 0.35452 0.70745 0.41755 0.0
H6505 H 0.3523 0.67202 0.3649 0.0
H6506 H 0.35333 0.68363 0.37653 0.0
C6507 C 0.35567 0.71196 0.42567 0.0
C6508 C 0.35013 0.69361 0.40894 0.0
H6509 H 0.36267 0.68356 0.39267 0.0
C6510 C 0.34166 0.69042 0.40634 0.0
C6511 C 0.3578 0.69125 0.40387 0.0
C6512 C 0.36711 0.69426 0.40648 0.0
C6513 C 0.34066 0.68477 0.39891 0.0
C6514 C 0.34837 0.68213 0.39405 0.0
C6515 C 0.35679 0.6856 0.39642 0.0
C6516 C 0.34789 0.67521 0.38698 0.0
C6517 C 0.33137 0.68162 0.39639 0.0
C6518 C 0.34475 0.66659 0.38909 0.0
C6519 C 0.34419 0.66 0.38252 0.0
C6520 C 0.34679 0.66186 0.37369 0.0
C6521 C 0.35023 0.67041 0.37163 0.0
C6522 C 0.35078 0.67704 0.37825 0.0
H6523 H 0.32614 0.68634 0.39882 0.0
H6524 H 0.33068 0.68088 0.38905 0.0
H6525 H 0.33008 0.67499 0.39952 0.0
H6526 H 0.34278 0.66494 0.39585 0.0
H6527 H 0.34176 0.65341 0.38438 0.0
H6528 H 0.11621 0.3067 0.00464 0.0
H6529 H 0.11046 0.31546 0.01715 0.0
H6530 H 0.12162 0.29629 0.0356 0.0
H6531 H 0.12764 0.28756 0.02304 0.0
H6532 H 0.09855 0.31062 0.03059 0.0
H6533 H 0.13176 0.32028 0.04462 0.0
H6534 H 0.13051 0.31559 0.03358 0.0
H6535 H 0.12995 0.30843 0.0432 0.0
C6536 C 0.11752 0.30436 0.01135 0.0
C6537 C 0.12248 0.29647 0.01283 0.0
C6538 C 0.11417 0.30936 0.01851 0.0
C6539 C 0.11572 0.30662 0.02732 0.0
C6540 C 0.12048 0.29863 0.02886 0.0
H6541 H 0.1014 0.33509 0.07681 0.0
H6542 H 0.10563 0.32311 0.06631 0.0
C6543 C 0.12384 0.29359 0.02167 0.0
C6544 C 0.11228 0.31218 0.03483 0.0
H6545 H 0.11894 0.32533 0.05235 0.0
C6546 C 0.10301 0.31378 0.03539 0.0
C6547 C 0.1181 0.31632 0.04108 0.0
C6548 C 0.12814 0.31515 0.04059 0.0
C6549 C 0.09941 0.31947 0.04196 0.0
C6550 C 0.10524 0.32376 0.04807 0.0
C6551 C 0.11448 0.32199 0.04767 0.0
C6552 C 0.10196 0.3306 0.0545 0.0
C6553 C 0.08939 0.32089 0.04229 0.0
C6554 C 0.09841 0.33872 0.05134 0.0
C6555 C 0.09603 0.34553 0.05729 0.0
C6556 C 0.09711 0.34435 0.06654 0.0
C6557 C 0.10038 0.33611 0.06973 0.0
C6558 C 0.10286 0.32931 0.06374 0.0
H6559 H 0.08571 0.31543 0.0388 0.0
H6560 H 0.08699 0.32127 0.0493 0.0
H6561 H 0.08773 0.32732 0.03895 0.0
H6562 H 0.09778 0.33991 0.04424 0.0
H6563 H 0.09354 0.35182 0.05466 0.0
H6564 H 0.94973 0.8718 0.29154 0.0
H6565 H 0.94671 0.87245 0.30751 0.0
H6566 H 0.97164 0.85878 0.31282 0.0
H6567 H 0.97472 0.85806 0.2967 0.0
H6568 H 0.94482 0.85752 0.31855 0.0
H6569 H 0.97226 0.87992 0.33055 0.0
H6570 H 0.96923 0.87915 0.3189 0.0
H6571 H 0.97549 0.87028 0.32406 0.0
C6572 C 0.9546 0.86894 0.29609 0.0
C6573 C 0.96243 0.86479 0.29283 0.0
C6574 C 0.95288 0.86935 0.30522 0.0
C6575 C 0.95895 0.8657 0.31137 0.0
C6576 C 0.96692 0.86176 0.3082 0.0
H6577 H 0.94916 0.86628 0.36984 0.0
H6578 H 0.95625 0.86274 0.35539 0.0
C6579 C 0.96867 0.86136 0.299 0.0
C6580 C 0.95654 0.86564 0.321 0.0
H6581 H 0.96176 0.87495 0.34123 0.0
C6582 C 0.94859 0.86125 0.32352 0.0
C6583 C 0.96151 0.87041 0.32752 0.0
C6584 C 0.97007 0.87527 0.32517 0.0
C6585 C 0.94529 0.86179 0.33227 0.0
C6586 C 0.94997 0.86698 0.33866 0.0
C6587 C 0.95817 0.87099 0.3363 0.0
C6588 C 0.9459 0.86907 0.34747 0.0
C6589 C 0.93671 0.85691 0.33455 0.0
C6590 C 0.9378 0.87383 0.34779 0.0
C6591 C 0.93375 0.87579 0.35594 0.0
C6592 C 0.93775 0.87314 0.36402 0.0
C6593 C 0.94589 0.86836 0.36373 0.0
C6594 C 0.94997 0.86639 0.3555 0.0
H6595 H 0.93552 0.85116 0.32997 0.0
H6596 H 0.93684 0.85439 0.34152 0.0
H6597 H 0.93097 0.8616 0.33387 0.0
H6598 H 0.9346 0.87606 0.34169 0.0
H6599 H 0.92742 0.87937 0.35589 0.0
H6600 H 0.38926 0.72218 0.52567 0.0
H6601 H 0.39499 0.71123 0.53634 0.0
H6602 H 0.38231 0.68986 0.52156 0.0
H6603 H 0.37629 0.70078 0.51095 0.0
H6604 H 0.38466 0.69818 0.54682 0.0
H6605 H 0.40928 0.68233 0.52377 0.0
H6606 H 0.40447 0.69325 0.52166 0.0
H6607 H 0.39792 0.6833 0.51981 0.0
C6608 C 0.38756 0.71517 0.52472 0.0
C6609 C 0.38229 0.7124 0.5174 0.0
C6610 C 0.39091 0.70892 0.53081 0.0
C6611 C 0.38917 0.69974 0.52968 0.0
C6612 C 0.38386 0.69691 0.52246 0.0
H6613 H 0.40723 0.65217 0.55772 0.0
H6614 H 0.40134 0.66295 0.54706 0.0
C6615 C 0.38045 0.70317 0.51639 0.0
C6616 C 0.39286 0.69315 0.53612 0.0
H6617 H 0.408 0.6761 0.53816 0.0
C6618 C 0.38978 0.69335 0.54495 0.0
C6619 C 0.39946 0.68683 0.53362 0.0
C6620 C 0.40305 0.6864 0.52422 0.0
C6621 C 0.39302 0.68728 0.55136 0.0
C6622 C 0.39981 0.68107 0.54894 0.0
C6623 C 0.40286 0.68088 0.54006 0.0
C6624 C 0.40368 0.67458 0.55544 0.0
C6625 C 0.38888 0.68742 0.56055 0.0
C6626 C 0.4072 0.67749 0.56365 0.0
C6627 C 0.4103 0.67128 0.56993 0.0
C6628 C 0.4102 0.66202 0.56805 0.0
C6629 C 0.40717 0.65919 0.55959 0.0
C6630 C 0.40388 0.66538 0.5534 0.0
H6631 H 0.38204 0.6904 0.56045 0.0
H6632 H 0.3884 0.68056 0.5634 0.0
H6633 H 0.39309 0.69161 0.56503 0.0
H6634 H 0.40744 0.68456 0.56527 0.0
H6635 H 0.41253 0.67376 0.57635 0.0
H6636 H 0.52914 0.14305 0.79909 0.0
H6637 H 0.53216 0.14193 0.81519 0.0
H6638 H 0.56043 0.13908 0.80971 0.0
H6639 H 0.5575 0.14035 0.79377 0.0
H6640 H 0.53977 0.12915 0.82573 0.0
H6641 H 0.56076 0.15973 0.82692 0.0
H6642 H 0.55395 0.15693 0.81736 0.0
H6643 H 0.56488 0.15195 0.81877 0.0
C6644 C 0.53598 0.14216 0.80134 0.0
C6645 C 0.5431 0.14195 0.79516 0.0
C6646 C 0.53771 0.14154 0.81054 0.0
C6647 C 0.54656 0.14068 0.81369 0.0
C6648 C 0.55359 0.14006 0.80749 0.0
H6649 H 0.57647 0.13026 0.86082 0.0
H6650 H 0.56998 0.13189 0.84595 0.0
C6651 C 0.55189 0.14076 0.79836 0.0
C6652 C 0.54857 0.1404 0.82343 0.0
H6653 H 0.56233 0.14958 0.83927 0.0
C6654 C 0.54459 0.13371 0.82873 0.0
C6655 C 0.55478 0.14642 0.8274 0.0
C6656 C 0.55876 0.15422 0.82233 0.0
C6657 C 0.54704 0.13259 0.83774 0.0
C6658 C 0.55363 0.13828 0.84151 0.0
C6659 C 0.55734 0.14517 0.83632 0.0
C6660 C 0.55721 0.13688 0.85064 0.0
C6661 C 0.54285 0.12513 0.84311 0.0
C6662 C 0.55216 0.13918 0.85822 0.0
C6663 C 0.55587 0.13828 0.86677 0.0
C6664 C 0.56466 0.13501 0.86788 0.0
C6665 C 0.56964 0.13266 0.86024 0.0
C6666 C 0.56596 0.13363 0.85172 0.0
H6667 H 0.53837 0.12081 0.839 0.0
H6668 H 0.54817 0.12088 0.84612 0.0
H6669 H 0.53885 0.12805 0.84865 0.0
H6670 H 0.54542 0.14179 0.8575 0.0
H6671 H 0.55185 0.14009 0.87252 0.0
H6672 H 0.11025 0.70881 0.49783 0.0
H6673 H 0.1045 0.69906 0.486 0.0
H6674 H 0.12965 0.7014 0.47195 0.0
H6675 H 0.13546 0.71119 0.48372 0.0
H6676 H 0.10216 0.7015 0.46789 0.0
H6677 H 0.12685 0.67441 0.47422 0.0
H6678 H 0.12529 0.68369 0.48181 0.0
H6679 H 0.13192 0.68509 0.47187 0.0
C6680 C 0.11453 0.70736 0.49217 0.0
C6681 C 0.12335 0.71076 0.49177 0.0
C6682 C 0.11124 0.70174 0.48543 0.0
C6683 C 0.1167 0.69935 0.47817 0.0
C6684 C 0.12539 0.70296 0.4776 0.0
H6685 H 0.11178 0.6632 0.43326 0.0
H6686 H 0.11617 0.67489 0.44391 0.0
C6687 C 0.1287 0.70857 0.48434 0.0
C6688 C 0.11333 0.693 0.47127 0.0
H6689 H 0.1177 0.67281 0.4614 0.0
C6690 C 0.10553 0.69521 0.46648 0.0
C6691 C 0.11771 0.68478 0.46947 0.0
C6692 C 0.12586 0.68179 0.47466 0.0
C6693 C 0.10214 0.68953 0.45977 0.0
C6694 C 0.10658 0.68134 0.45791 0.0
C6695 C 0.11432 0.67911 0.46277 0.0
C6696 C 0.10344 0.67498 0.4509 0.0
C6697 C 0.094 0.69248 0.45457 0.0
C6698 C 0.09477 0.67122 0.45117 0.0
C6699 C 0.09221 0.66464 0.44497 0.0
C6700 C 0.09834 0.66165 0.43851 0.0
C6701 C 0.10693 0.66551 0.43814 0.0
C6702 C 0.10944 0.67214 0.44424 0.0
H6703 H 0.09299 0.69986 0.455 0.0
H6704 H 0.09455 0.69056 0.44743 0.0
H6705 H 0.08794 0.68919 0.45739 0.0
H6706 H 0.0901 0.6731 0.45638 0.0
H6707 H 0.08563 0.66159 0.44547 0.0
H6708 H 0.55758 0.86691 0.71317 0.0
H6709 H 0.56065 0.86804 0.69724 0.0
H6710 H 0.53337 0.86021 0.69143 0.0
H6711 H 0.53021 0.85922 0.7075 0.0
H6712 H 0.56018 0.85488 0.68517 0.0
H6713 H 0.53611 0.88148 0.67507 0.0
H6714 H 0.53862 0.87912 0.68662 0.0
H6715 H 0.53114 0.87193 0.68046 0.0
C6716 C 0.55221 0.86547 0.70852 0.0
C6717 C 0.54366 0.86293 0.71161 0.0
C6718 C 0.55397 0.86613 0.69939 0.0
C6719 C 0.54724 0.86428 0.6931 0.0
C6720 C 0.53863 0.86187 0.69614 0.0
H6721 H 0.55411 0.86289 0.63454 0.0
H6722 H 0.5477 0.86111 0.64955 0.0
C6723 C 0.53684 0.86127 0.70532 0.0
C6724 C 0.54952 0.86448 0.68341 0.0
H6725 H 0.5448 0.87488 0.6636 0.0
C6726 C 0.55678 0.85924 0.68047 0.0
C6727 C 0.54504 0.87009 0.67722 0.0
C6728 C 0.53734 0.87604 0.67999 0.0
C6729 C 0.55981 0.85961 0.67161 0.0
C6730 C 0.55554 0.86544 0.66551 0.0
C6731 C 0.54807 0.87044 0.66832 0.0
C6732 C 0.55916 0.86681 0.65638 0.0
C6733 C 0.56763 0.8538 0.66885 0.0
C6734 C 0.56766 0.8707 0.65525 0.0
C6735 C 0.57134 0.87168 0.64674 0.0
C6736 C 0.56659 0.86883 0.63913 0.0
C6737 C 0.55799 0.86505 0.64026 0.0
C6738 C 0.55429 0.86409 0.64882 0.0
H6739 H 0.56864 0.84812 0.67354 0.0
H6740 H 0.56661 0.85107 0.66203 0.0
H6741 H 0.57384 0.85792 0.66882 0.0
H6742 H 0.5715 0.87291 0.66099 0.0
H6743 H 0.57801 0.87452 0.64615 0.0
H6744 H 0.39569 0.29135 0.99037 0.0
H6745 H 0.40199 0.30056 0.97835 0.0
H6746 H 0.37707 0.31508 0.97639 0.0
H6747 H 0.37059 0.30573 0.9881 0.0
H6748 H 0.39394 0.30491 0.95947 0.0
H6749 H 0.39836 0.33368 0.98277 0.0
H6750 H 0.39753 0.32221 0.98658 0.0
H6751 H 0.38763 0.3281 0.98308 0.0
C6752 C 0.39146 0.29635 0.98726 0.0
C6753 C 0.38264 0.29784 0.99032 0.0
C6754 C 0.3951 0.30165 0.98042 0.0
C6755 C 0.39002 0.30855 0.97658 0.0
C6756 C 0.38113 0.30983 0.97935 0.0
H6757 H 0.39284 0.35142 0.93976 0.0
H6758 H 0.38932 0.33955 0.95034 0.0
C6759 C 0.37746 0.30451 0.98611 0.0
C6760 C 0.39406 0.31477 0.96999 0.0
H6761 H 0.4004 0.33664 0.96736 0.0
C6762 C 0.39549 0.31181 0.9612 0.0
C6763 C 0.39606 0.32375 0.97229 0.0
C6764 C 0.39489 0.32716 0.9817 0.0
C6765 C 0.39856 0.31776 0.95457 0.0
C6766 C 0.40029 0.32681 0.95683 0.0
C6767 C 0.39909 0.32968 0.96567 0.0
C6768 C 0.40255 0.33362 0.95001 0.0
C6769 C 0.39956 0.31449 0.9451 0.0
C6770 C 0.41117 0.33418 0.94625 0.0
C6771 C 0.41329 0.34111 0.94026 0.0
C6772 C 0.4068 0.34757 0.93797 0.0
C6773 C 0.39809 0.34673 0.94154 0.0
C6774 C 0.39603 0.3399 0.94755 0.0
H6775 H 0.39742 0.30739 0.94431 0.0
H6776 H 0.39551 0.31875 0.94055 0.0
H6777 H 0.40669 0.3151 0.94302 0.0
H6778 H 0.41631 0.32939 0.94812 0.0
H6779 H 0.42006 0.34156 0.93766 0.0
H6780 H 0.97264 0.12512 0.20729 0.0
H6781 H 0.96728 0.12495 0.19189 0.0
H6782 H 0.95717 0.15188 0.19504 0.0
H6783 H 0.96277 0.15221 0.21042 0.0
H6784 H 0.94966 0.12693 0.18629 0.0
H6785 H 0.97127 0.15348 0.17156 0.0
H6786 H 0.97375 0.14826 0.18215 0.0
H6787 H 0.96521 0.15674 0.18141 0.0
C6788 C 0.96942 0.13108 0.20468 0.0
C6789 C 0.96819 0.1387 0.2101 0.0
C6790 C 0.96631 0.13095 0.19588 0.0
C6791 C 0.96194 0.13845 0.19226 0.0
C6792 C 0.96068 0.14607 0.19763 0.0
H6793 H 0.93495 0.14598 0.14089 0.0
H6794 H 0.94186 0.14846 0.15557 0.0
C6795 C 0.96378 0.14621 0.20646 0.0
C6796 C 0.95831 0.13803 0.18303 0.0
H6797 H 0.95985 0.14748 0.16228 0.0
C6798 C 0.95191 0.13141 0.18104 0.0
C6799 C 0.96121 0.14392 0.17619 0.0
C6800 C 0.96829 0.15096 0.17787 0.0
C6801 C 0.94828 0.13054 0.17244 0.0
C6802 C 0.95127 0.13633 0.16556 0.0
C6803 C 0.95759 0.14304 0.16756 0.0
C6804 C 0.948 0.13532 0.15625 0.0
C6805 C 0.94119 0.12348 0.17083 0.0
C6806 C 0.9495 0.12728 0.1516 0.0
C6807 C 0.9456 0.12587 0.14325 0.0
C6808 C 0.94014 0.13248 0.13932 0.0
C6809 C 0.93912 0.14076 0.14373 0.0
C6810 C 0.94303 0.14217 0.15213 0.0
H6811 H 0.93793 0.12133 0.17714 0.0
H6812 H 0.93593 0.12597 0.1662 0.0
H6813 H 0.94436 0.11748 0.16776 0.0
H6814 H 0.9535 0.12199 0.15455 0.0
H6815 H 0.94668 0.11949 0.13995 0.0
H6816 H 0.01484 0.11104 0.28804 0.0
H6817 H 0.02684 0.10456 0.2972 0.0
H6818 H 0.02901 0.12934 0.31189 0.0
H6819 H 0.01732 0.13601 0.30261 0.0
H6820 H 0.04618 0.11329 0.30218 0.0
H6821 H 0.02173 0.10692 0.32956 0.0
H6822 H 0.01836 0.10773 0.318 0.0
H6823 H 0.02122 0.11769 0.32412 0.0
C6824 C 0.01801 0.1152 0.29306 0.0
C6825 C 0.01501 0.12403 0.29463 0.0
C6826 C 0.02483 0.11146 0.29832 0.0
C6827 C 0.02873 0.11646 0.30524 0.0
C6828 C 0.02602 0.12536 0.3066 0.0
H6829 H 0.06429 0.11299 0.34894 0.0
H6830 H 0.05406 0.11666 0.33682 0.0
C6831 C 0.01928 0.12913 0.30133 0.0
C6832 C 0.03521 0.1123 0.31146 0.0
H6833 H 0.03712 0.10494 0.33295 0.0
C6834 C 0.04421 0.11132 0.30886 0.0
C6835 C 0.03257 0.10976 0.32016 0.0
C6836 C 0.02294 0.1105 0.32317 0.0
C6837 C 0.05071 0.10817 0.3149 0.0
C6838 C 0.0481 0.1059 0.32368 0.0
C6839 C 0.03907 0.10665 0.32618 0.0
C6840 C 0.05475 0.10358 0.33063 0.0
C6841 C 0.06039 0.10762 0.31204 0.0
C6842 C 0.05857 0.09498 0.33111 0.0
C6843 C 0.06436 0.09277 0.33817 0.0
C6844 C 0.06636 0.09914 0.34483 0.0
C6845 C 0.06272 0.10783 0.34408 0.0
C6846 C 0.05692 0.10999 0.33711 0.0
H6847 H 0.0614 0.10996 0.30507 0.0
H6848 H 0.06462 0.11175 0.31657 0.0
H6849 H 0.06274 0.10057 0.31256 0.0
H6850 H 0.05692 0.08994 0.32616 0.0
H6851 H 0.06702 0.08602 0.33855 0.0
H6852 H 0.13509 0.80152 0.52682 0.0
H6853 H 0.13522 0.81712 0.53182 0.0
H6854 H 0.14351 0.80865 0.55805 0.0
H6855 H 0.14388 0.79307 0.553 0.0
H6856 H 0.1254 0.82515 0.54452 0.0
H6857 H 0.16139 0.82831 0.55327 0.0
H6858 H 0.15705 0.81895 0.54694 0.0
H6859 H 0.15603 0.81914 0.55892 0.0
C6860 C 0.13713 0.80296 0.53361 0.0
C6861 C 0.13954 0.79598 0.53948 0.0
C6862 C 0.13712 0.81191 0.53648 0.0
C6863 C 0.13952 0.8141 0.54527 0.0
C6864 C 0.14184 0.80717 0.55117 0.0
H6865 H 0.13009 0.86024 0.57812 0.0
H6866 H 0.13101 0.8455 0.57105 0.0
C6867 C 0.14191 0.79822 0.5483 0.0
C6868 C 0.13926 0.8236 0.54836 0.0
H6869 H 0.1517 0.83995 0.55861 0.0
C6870 C 0.13118 0.8284 0.54752 0.0
C6871 C 0.14682 0.8279 0.5522 0.0
C6872 C 0.15584 0.82334 0.55281 0.0
C6873 C 0.1304 0.83724 0.5507 0.0
C6874 C 0.13785 0.84137 0.55485 0.0
C6875 C 0.14599 0.83671 0.55547 0.0
C6876 C 0.13717 0.85039 0.55893 0.0
C6877 C 0.12161 0.84215 0.5497 0.0
C6878 C 0.14034 0.85801 0.55444 0.0
C6879 C 0.13971 0.86651 0.55841 0.0
C6880 C 0.13596 0.86751 0.56698 0.0
C6881 C 0.13285 0.85979 0.57145 0.0
C6882 C 0.13343 0.85134 0.56746 0.0
H6883 H 0.11669 0.83831 0.54564 0.0
H6884 H 0.11868 0.84338 0.5564 0.0
H6885 H 0.12277 0.84878 0.54652 0.0
H6886 H 0.14325 0.85739 0.54784 0.0
H6887 H 0.14208 0.8723 0.55472 0.0
H6888 H 0.49951 0.88667 0.80015 0.0
H6889 H 0.48896 0.89233 0.8113 0.0
H6890 H 0.46709 0.8796 0.79728 0.0
H6891 H 0.47763 0.8735 0.78639 0.0
H6892 H 0.47518 0.90364 0.80941 0.0
H6893 H 0.46222 0.87125 0.82221 0.0
H6894 H 0.472 0.87195 0.81514 0.0
H6895 H 0.46091 0.8723 0.81036 0.0
C6896 C 0.49249 0.8849 0.79953 0.0
C6897 C 0.48946 0.87957 0.79236 0.0
C6898 C 0.48644 0.88822 0.80588 0.0
C6899 C 0.47723 0.8863 0.80522 0.0
C6900 C 0.47418 0.88102 0.79806 0.0
H6901 H 0.43011 0.90319 0.83557 0.0
H6902 H 0.44034 0.89831 0.82364 0.0
C6903 C 0.48022 0.87764 0.79175 0.0
C6904 C 0.4708 0.89007 0.81185 0.0
H6905 H 0.45423 0.88436 0.8266 0.0
C6906 C 0.47063 0.89941 0.81319 0.0
C6907 C 0.46486 0.88456 0.81681 0.0
C6908 C 0.46505 0.87446 0.81614 0.0
C6909 C 0.46463 0.90338 0.81925 0.0
C6910 C 0.45864 0.89788 0.82411 0.0
C6911 C 0.45877 0.88856 0.82278 0.0
C6912 C 0.45245 0.90162 0.83092 0.0
C6913 C 0.46466 0.91344 0.82038 0.0
C6914 C 0.45589 0.90519 0.83888 0.0
C6915 C 0.45008 0.90794 0.84567 0.0
C6916 C 0.44073 0.9072 0.84462 0.0
C6917 C 0.43729 0.90394 0.83651 0.0
C6918 C 0.44311 0.9011 0.82973 0.0
H6919 H 0.4683 0.91685 0.81486 0.0
H6920 H 0.45769 0.91606 0.82067 0.0
H6921 H 0.46803 0.91519 0.82675 0.0
H6922 H 0.46307 0.90556 0.83997 0.0
H6923 H 0.45291 0.91043 0.85186 0.0
H6924 H 0.37755 0.21508 0.0484 0.0
H6925 H 0.37756 0.19959 0.05372 0.0
H6926 H 0.35595 0.19317 0.03565 0.0
H6927 H 0.35589 0.20867 0.03028 0.0
H6928 H 0.3646 0.18976 0.06181 0.0
H6929 H 0.37396 0.17377 0.02966 0.0
H6930 H 0.37467 0.18573 0.03144 0.0
H6931 H 0.36402 0.18054 0.02913 0.0
C6932 C 0.37274 0.21041 0.0456 0.0
C6933 C 0.36673 0.21315 0.03889 0.0
C6934 C 0.37279 0.20152 0.04862 0.0
C6935 C 0.36686 0.19516 0.04499 0.0
C6936 C 0.36074 0.19789 0.0384 0.0
H6937 H 0.3585 0.14313 0.07144 0.0
H6938 H 0.3558 0.1577 0.06434 0.0
C6939 C 0.36071 0.20677 0.03535 0.0
C6940 C 0.36704 0.18572 0.04823 0.0
H6941 H 0.37046 0.16401 0.04163 0.0
C6942 C 0.36585 0.18413 0.05739 0.0
C6943 C 0.36876 0.17837 0.04248 0.0
C6944 C 0.37051 0.17966 0.03264 0.0
C6945 C 0.36639 0.17543 0.06096 0.0
C6946 C 0.36798 0.16807 0.05519 0.0
C6947 C 0.36913 0.16965 0.04603 0.0
C6948 C 0.36912 0.15879 0.05865 0.0
C6949 C 0.36558 0.17425 0.07093 0.0
C6950 C 0.37732 0.15433 0.05741 0.0
C6951 C 0.37882 0.14596 0.06132 0.0
C6952 C 0.37216 0.14185 0.06659 0.0
C6953 C 0.36377 0.1461 0.06742 0.0
C6954 C 0.36226 0.15448 0.06346 0.0
H6955 H 0.36644 0.1807 0.07456 0.0
H6956 H 0.35881 0.17158 0.07254 0.0
H6957 H 0.37064 0.16941 0.07344 0.0
H6958 H 0.38268 0.15748 0.05365 0.0
H6959 H 0.38529 0.1428 0.06039 0.0
H6960 H 0.0062 0.88409 0.2019 0.0
H6961 H 0.01671 0.88961 0.19063 0.0
H6962 H 0.0385 0.88715 0.20941 0.0
H6963 H 0.02815 0.8812 0.22056 0.0
H6964 H 0.02707 0.9046 0.19104 0.0
H6965 H 0.04895 0.8747 0.18795 0.0
H6966 H 0.03825 0.87434 0.19358 0.0
H6967 H 0.048 0.87874 0.19919 0.0
C6968 C 0.01325 0.88454 0.2036 0.0
C6969 C 0.0163 0.88216 0.21217 0.0
C6970 C 0.01925 0.88777 0.19715 0.0
C6971 C 0.02842 0.88869 0.19912 0.0
C6972 C 0.03149 0.88633 0.20766 0.0
H6973 H 0.07478 0.90745 0.16865 0.0
H6974 H 0.06455 0.90299 0.18069 0.0
C6975 C 0.02552 0.88305 0.21408 0.0
C6976 C 0.03472 0.89242 0.19235 0.0
H6977 H 0.05408 0.88803 0.18092 0.0
C6978 C 0.03295 0.90096 0.1888 0.0
C6979 C 0.04243 0.88769 0.18945 0.0
C6980 C 0.04449 0.87833 0.19267 0.0
C6981 C 0.03874 0.90495 0.18253 0.0
C6982 C 0.04644 0.90021 0.17963 0.0
C6983 C 0.04822 0.89169 0.1832 0.0
C6984 C 0.05253 0.90378 0.17261 0.0
C6985 C 0.0366 0.91426 0.17922 0.0
C6986 C 0.04918 0.90582 0.1641 0.0
C6987 C 0.05497 0.9085 0.15727 0.0
C6988 C 0.06429 0.90903 0.15873 0.0
C6989 C 0.06763 0.90722 0.16732 0.0
C6990 C 0.0618 0.90459 0.17419 0.0
H6991 H 0.03233 0.91799 0.18404 0.0
H6992 H 0.04282 0.9182 0.178 0.0
H6993 H 0.03284 0.91375 0.17285 0.0
H6994 H 0.04209 0.90508 0.16264 0.0
H6995 H 0.05216 0.90991 0.15076 0.0
H6996 H 0.35384 0.79601 0.47086 0.0
H6997 H 0.35433 0.8122 0.4678 0.0
H6998 H 0.37957 0.80888 0.45414 0.0
H6999 H 0.3793 0.79284 0.45737 0.0
H7000 H 0.36914 0.82605 0.47123 0.0
H7001 H 0.36103 0.81985 0.43555 0.0
H7002 H 0.35877 0.81171 0.4442 0.0
H7003 H 0.36999 0.81315 0.44005 0.0
C7004 C 0.35959 0.79875 0.46737 0.0
C7005 C 0.36647 0.79307 0.46425 0.0
C7006 C 0.35983 0.80799 0.46559 0.0
C7007 C 0.36692 0.81168 0.46063 0.0
C7008 C 0.37397 0.80613 0.45787 0.0
H7009 H 0.38692 0.86379 0.4474 0.0
H7010 H 0.38355 0.84934 0.45433 0.0
C7011 C 0.37377 0.79694 0.45968 0.0
C7012 C 0.36682 0.82123 0.45788 0.0
H7013 H 0.36584 0.83453 0.43938 0.0
C7014 C 0.36832 0.82794 0.46429 0.0
C7015 C 0.36565 0.82367 0.44884 0.0
C7016 C 0.36369 0.81674 0.44175 0.0
C7017 C 0.36903 0.83703 0.46181 0.0
C7018 C 0.36829 0.83941 0.45269 0.0
C7019 C 0.36644 0.83271 0.44636 0.0
C7020 C 0.36989 0.84869 0.44945 0.0
C7021 C 0.37061 0.84399 0.46895 0.0
C7022 C 0.36334 0.85315 0.44438 0.0
C7023 C 0.36528 0.8614 0.44034 0.0
C7024 C 0.37385 0.86527 0.4412 0.0
C7025 C 0.38028 0.86094 0.44655 0.0
C7026 C 0.37833 0.85272 0.4506 0.0
H7027 H 0.36836 0.84156 0.4756 0.0
H7028 H 0.3779 0.84546 0.46938 0.0
H7029 H 0.36704 0.85033 0.46738 0.0
H7030 H 0.35681 0.85012 0.44335 0.0
H7031 H 0.36021 0.86452 0.43619 0.0
H7032 H 0.49068 0.13617 0.70589 0.0
H7033 H 0.47998 0.13079 0.69467 0.0
H7034 H 0.47683 0.10605 0.70927 0.0
H7035 H 0.48745 0.11137 0.72049 0.0
H7036 H 0.48044 0.11634 0.68372 0.0
H7037 H 0.45102 0.11339 0.7062 0.0
H7038 H 0.46116 0.11918 0.70943 0.0
H7039 H 0.46057 0.10712 0.70996 0.0
C7040 C 0.48773 0.12957 0.7067 0.0
C7041 C 0.48988 0.12425 0.71416 0.0
C7042 C 0.48159 0.12652 0.7003 0.0
C7043 C 0.47744 0.11809 0.70122 0.0
C7044 C 0.47972 0.11268 0.70854 0.0
H7045 H 0.44034 0.08834 0.66632 0.0
H7046 H 0.4508 0.09249 0.67837 0.0
C7047 C 0.48582 0.11574 0.71496 0.0
C7048 C 0.4709 0.11486 0.69441 0.0
H7049 H 0.44938 0.10728 0.69165 0.0
C7050 C 0.47365 0.11439 0.68546 0.0
C7051 C 0.46202 0.11228 0.69667 0.0
C7052 C 0.45847 0.1131 0.70607 0.0
C7053 C 0.4678 0.11136 0.67874 0.0
C7054 C 0.45895 0.10879 0.68101 0.0
C7055 C 0.4562 0.10917 0.68995 0.0
C7056 C 0.45229 0.10628 0.67408 0.0
C7057 C 0.47116 0.11088 0.66925 0.0
C7058 C 0.44946 0.11272 0.6679 0.0
C7059 C 0.44346 0.11042 0.66113 0.0
C7060 C 0.44018 0.10158 0.66032 0.0
C7061 C 0.44275 0.09519 0.66674 0.0
C7062 C 0.44875 0.09754 0.67359 0.0
H7063 H 0.47861 0.11099 0.66893 0.0
H7064 H 0.46868 0.10471 0.66589 0.0
H7065 H 0.46861 0.11676 0.66549 0.0
H7066 H 0.45194 0.11955 0.66829 0.0
H7067 H 0.44143 0.11559 0.65648 0.0
H7068 H 0.1299 0.21296 0.95506 0.0
H7069 H 0.12994 0.1974 0.94989 0.0
H7070 H 0.14803 0.19024 0.97117 0.0
H7071 H 0.14813 0.20582 0.97635 0.0
H7072 H 0.14432 0.1869 0.94426 0.0
H7073 H 0.128 0.17171 0.97398 0.0
H7074 H 0.128 0.18365 0.97196 0.0
H7075 H 0.13787 0.17825 0.97627 0.0
C7076 C 0.13396 0.20811 0.95862 0.0
C7077 C 0.13899 0.21069 0.96615 0.0
C7078 C 0.13392 0.19919 0.95568 0.0
C7079 C 0.13886 0.19261 0.96023 0.0
C7080 C 0.14399 0.19515 0.96768 0.0
H7081 H 0.14365 0.13464 0.95058 0.0
H7082 H 0.14514 0.14981 0.95675 0.0
C7083 C 0.14403 0.20408 0.97063 0.0
C7084 C 0.1388 0.18316 0.95699 0.0
H7085 H 0.13293 0.16173 0.96274 0.0
C7086 C 0.14183 0.1814 0.9483 0.0
C7087 C 0.13564 0.17596 0.9623 0.0
C7088 C 0.13212 0.17746 0.97163 0.0
C7089 C 0.14179 0.17266 0.94476 0.0
C7090 C 0.13838 0.16548 0.94997 0.0
C7091 C 0.13552 0.16721 0.95874 0.0
C7092 C 0.13745 0.15623 0.9463 0.0
C7093 C 0.14555 0.17121 0.93552 0.0
C7094 C 0.13251 0.15474 0.93847 0.0
C7095 C 0.13181 0.14614 0.93483 0.0
C7096 C 0.13583 0.13871 0.93905 0.0
C7097 C 0.14059 0.14018 0.94704 0.0
C7098 C 0.14138 0.14885 0.95063 0.0
H7099 H 0.15047 0.17652 0.93373 0.0
H7100 H 0.1489 0.16458 0.93494 0.0
H7101 H 0.14 0.17149 0.93059 0.0
H7102 H 0.12921 0.16026 0.93512 0.0
H7103 H 0.12821 0.14537 0.9286 0.0
H7104 H 0.28478 0.02421 0.12247 0.0
H7105 H 0.29386 0.03656 0.11634 0.0
H7106 H 0.31734 0.0197 0.11705 0.0
H7107 H 0.30836 0.00737 0.12304 0.0
H7108 H 0.31023 0.04453 0.12422 0.0
H7109 H 0.31605 0.02925 0.09089 0.0
H7110 H 0.307 0.02577 0.09814 0.0
H7111 H 0.31826 0.02203 0.10024 0.0
C7112 C 0.29187 0.02313 0.12126 0.0
C7113 C 0.29585 0.01481 0.12326 0.0
C7114 C 0.29705 0.03019 0.1178 0.0
C7115 C 0.30625 0.029 0.11616 0.0
C7116 C 0.31023 0.02073 0.11817 0.0
H7117 H 0.35152 0.05944 0.097 0.0
H7118 H 0.34085 0.04806 0.10208 0.0
C7119 C 0.3051 0.01371 0.12167 0.0
C7120 C 0.31179 0.0364 0.11244 0.0
H7121 H 0.32477 0.04209 0.09451 0.0
C7122 C 0.31334 0.04406 0.11769 0.0
C7123 C 0.31586 0.03574 0.10394 0.0
C7124 C 0.31418 0.02779 0.09792 0.0
C7125 C 0.31909 0.05095 0.11476 0.0
C7126 C 0.32325 0.05024 0.10629 0.0
C7127 C 0.32158 0.04263 0.101 0.0
C7128 C 0.32958 0.05717 0.10292 0.0
C7129 C 0.32095 0.05876 0.12091 0.0
C7130 C 0.32676 0.06605 0.10152 0.0
C7131 C 0.33286 0.0726 0.09866 0.0
C7132 C 0.34191 0.07038 0.0971 0.0
C7133 C 0.34464 0.06141 0.09827 0.0
C7134 C 0.33854 0.05488 0.10112 0.0
H7135 H 0.31893 0.0573 0.12789 0.0
H7136 H 0.32819 0.06055 0.12083 0.0
H7137 H 0.31709 0.06469 0.11861 0.0
H7138 H 0.31984 0.06793 0.10271 0.0
H7139 H 0.33055 0.07944 0.0979 0.0
H7140 H 0.79062 0.49148 0.89522 0.0
H7141 H 0.79955 0.47924 0.90148 0.0
H7142 H 0.81364 0.47647 0.8765 0.0
H7143 H 0.8045 0.48841 0.87006 0.0
H7144 H 0.80912 0.46008 0.88401 0.0
H7145 H 0.82583 0.48218 0.90885 0.0
H7146 H 0.81377 0.48239 0.90918 0.0
H7147 H 0.81957 0.48652 0.8995 0.0
C7148 C 0.7955 0.48817 0.891 0.0
C7149 C 0.79687 0.49102 0.88214 0.0
C7150 C 0.80069 0.48125 0.89463 0.0
C7151 C 0.80739 0.47706 0.88952 0.0
C7152 C 0.80856 0.47965 0.8806 0.0
H7153 H 0.85362 0.44763 0.9079 0.0
H7154 H 0.84285 0.4586 0.90247 0.0
C7155 C 0.80337 0.48654 0.87695 0.0
C7156 C 0.81332 0.47011 0.89348 0.0
H7157 H 0.82906 0.46671 0.90971 0.0
C7158 C 0.81347 0.46151 0.88965 0.0
C7159 C 0.8191 0.47203 0.90073 0.0
C7160 C 0.81966 0.4813 0.90478 0.0
C7161 C 0.81922 0.45477 0.89287 0.0
C7162 C 0.82484 0.45662 0.90028 0.0
C7163 C 0.82469 0.46524 0.9041 0.0
C7164 C 0.83128 0.4499 0.90388 0.0
C7165 C 0.81942 0.44586 0.88808 0.0
C7166 C 0.82839 0.44138 0.90669 0.0
C7167 C 0.83459 0.43496 0.9096 0.0
C7168 C 0.84382 0.43699 0.90993 0.0
C7169 C 0.84662 0.4457 0.90752 0.0
C7170 C 0.84044 0.45204 0.90449 0.0
H7171 H 0.81668 0.44638 0.88121 0.0
H7172 H 0.82636 0.44318 0.88768 0.0
H7173 H 0.81522 0.44096 0.89179 0.0
H7174 H 0.82133 0.43964 0.90655 0.0
H7175 H 0.83216 0.42834 0.91135 0.0
H7176 H 0.79632 0.53962 0.12799 0.0
H7177 H 0.81238 0.54271 0.1265 0.0
H7178 H 0.81374 0.54951 0.15445 0.0
H7179 H 0.7979 0.54589 0.15614 0.0
H7180 H 0.82072 0.55819 0.12873 0.0
H7181 H 0.83543 0.53408 0.1526 0.0
H7182 H 0.82387 0.53338 0.14904 0.0
H7183 H 0.82712 0.54101 0.15782 0.0
C7184 C 0.80007 0.54152 0.13389 0.0
C7185 C 0.79574 0.5425 0.14219 0.0
C7186 C 0.80926 0.54337 0.13301 0.0
C7187 C 0.81434 0.54623 0.14039 0.0
C7188 C 0.81007 0.54711 0.14869 0.0
H7189 H 0.86634 0.57001 0.14998 0.0
H7190 H 0.85133 0.5634 0.15084 0.0
C7191 C 0.80093 0.54517 0.1496 0.0
C7192 C 0.82392 0.54894 0.13929 0.0
H7193 H 0.84494 0.54625 0.14806 0.0
C7194 C 0.82603 0.55549 0.13288 0.0
C7195 C 0.83088 0.54544 0.14471 0.0
C7196 C 0.82922 0.53803 0.15136 0.0
C7197 C 0.8348 0.55885 0.13196 0.0
C7198 C 0.84171 0.55551 0.13752 0.0
C7199 C 0.83964 0.54885 0.14383 0.0
C7200 C 0.85106 0.55901 0.13707 0.0
C7201 C 0.8365 0.5662 0.12523 0.0
C7202 C 0.85602 0.55852 0.12912 0.0
C7203 C 0.86461 0.56229 0.12861 0.0
C7204 C 0.86848 0.56655 0.13608 0.0
C7205 C 0.86362 0.56672 0.14413 0.0
C7206 C 0.85501 0.56298 0.14462 0.0
H7207 H 0.83018 0.56959 0.1232 0.0
H7208 H 0.84118 0.57133 0.12794 0.0
H7209 H 0.83957 0.56323 0.11916 0.0
H7210 H 0.85322 0.55528 0.12328 0.0
H7211 H 0.86823 0.56188 0.12235 0.0
H7212 H 0.71579 0.5129 0.3968 0.0
H7213 H 0.7044 0.5235 0.40195 0.0
H7214 H 0.69942 0.53151 0.37475 0.0
H7215 H 0.71074 0.52083 0.36954 0.0
H7216 H 0.70363 0.54136 0.4006 0.0
H7217 H 0.67431 0.52672 0.38309 0.0
H7218 H 0.68493 0.52096 0.38383 0.0
H7219 H 0.68327 0.52962 0.37562 0.0
C7220 C 0.71227 0.51692 0.39191 0.0
C7221 C 0.71417 0.51599 0.38275 0.0
C7222 C 0.70574 0.52296 0.39486 0.0
C7223 C 0.70093 0.52821 0.38874 0.0
C7224 C 0.70285 0.52736 0.37959 0.0
H7225 H 0.66042 0.5693 0.39136 0.0
H7226 H 0.67229 0.55876 0.38732 0.0
C7227 C 0.70935 0.52126 0.37662 0.0
C7228 C 0.69412 0.53476 0.39197 0.0
H7229 H 0.67224 0.54112 0.38963 0.0
C7230 C 0.69675 0.54127 0.39825 0.0
C7231 C 0.68513 0.53463 0.38893 0.0
C7232 C 0.68171 0.52755 0.38257 0.0
C7233 C 0.69072 0.54783 0.40135 0.0
C7234 C 0.68176 0.54779 0.39819 0.0
C7235 C 0.67911 0.54119 0.39202 0.0
C7236 C 0.67508 0.55468 0.4009 0.0
C7237 C 0.69409 0.55489 0.40775 0.0
C7238 C 0.67275 0.55603 0.40991 0.0
C7239 C 0.66604 0.5622 0.41225 0.0
C7240 C 0.66144 0.56696 0.40558 0.0
C7241 C 0.66388 0.5657 0.39661 0.0
C7242 C 0.67063 0.55966 0.3943 0.0
H7243 H 0.70153 0.55545 0.40759 0.0
H7244 H 0.69117 0.56156 0.40622 0.0
H7245 H 0.6921 0.55301 0.41464 0.0
H7246 H 0.67592 0.55213 0.41512 0.0
H7247 H 0.66417 0.56297 0.41919 0.0
H7248 H 0.21285 0.95419 0.13358 0.0
H7249 H 0.19725 0.94907 0.13362 0.0
H7250 H 0.18866 0.97516 0.14267 0.0
H7251 H 0.20424 0.98032 0.14275 0.0
H7252 H 0.18495 0.94813 0.14733 0.0
H7253 H 0.17273 0.97126 0.12098 0.0
H7254 H 0.18452 0.9695 0.12311 0.0
H7255 H 0.17805 0.97672 0.13026 0.0
C7256 C 0.20767 0.95883 0.13566 0.0
C7257 C 0.20985 0.9677 0.13811 0.0
C7258 C 0.19874 0.9559 0.13562 0.0
C7259 C 0.19176 0.96177 0.13798 0.0
C7260 C 0.1939 0.97057 0.14059 0.0
H7261 H 0.1334 0.95316 0.14046 0.0
H7262 H 0.14851 0.95966 0.14182 0.0
C7263 C 0.20283 0.97351 0.14064 0.0
C7264 C 0.18227 0.95861 0.13783 0.0
H7265 H 0.1618 0.96226 0.12815 0.0
C7266 C 0.1799 0.95122 0.14314 0.0
C7267 C 0.17565 0.96268 0.13239 0.0
C7268 C 0.17785 0.97043 0.1263 0.0
C7269 C 0.1711 0.94779 0.14315 0.0
C7270 C 0.16453 0.95175 0.1376 0.0
C7271 C 0.16685 0.95924 0.13241 0.0
C7272 C 0.15536 0.9479 0.13677 0.0
C7273 C 0.1689 0.93999 0.14918 0.0
C7274 C 0.1542 0.9392 0.13339 0.0
C7275 C 0.14563 0.93547 0.13265 0.0
C7276 C 0.13798 0.94039 0.13521 0.0
C7277 C 0.13915 0.94916 0.13853 0.0
C7278 C 0.14776 0.9529 0.13925 0.0
H7279 H 0.17385 0.93933 0.15468 0.0
H7280 H 0.16209 0.94072 0.15211 0.0
H7281 H 0.16903 0.93368 0.14523 0.0
H7282 H 0.15995 0.93527 0.13131 0.0
H7283 H 0.145 0.92868 0.13015 0.0
H7284 H 0.20512 0.99979 0.61909 0.0
H7285 H 0.1938 0.98921 0.6137 0.0
H7286 H 0.20976 0.96709 0.62325 0.0
H7287 H 0.22087 0.97761 0.62909 0.0
H7288 H 0.19527 0.97639 0.60123 0.0
H7289 H 0.1857 0.9605 0.63326 0.0
H7290 H 0.19235 0.97062 0.63275 0.0
H7291 H 0.19752 0.95982 0.6311 0.0
C7292 C 0.20615 0.99269 0.62023 0.0
C7293 C 0.21394 0.98959 0.62457 0.0
C7294 C 0.19969 0.98663 0.61706 0.0
C7295 C 0.20085 0.97735 0.61816 0.0
C7296 C 0.2086 0.97422 0.62248 0.0
H7297 H 0.17015 0.93031 0.60129 0.0
H7298 H 0.18222 0.94055 0.60592 0.0
C7299 C 0.21503 0.98027 0.62571 0.0
C7300 C 0.19412 0.97093 0.61449 0.0
H7301 H 0.18043 0.95336 0.62005 0.0
C7302 C 0.192 0.97139 0.60537 0.0
C7303 C 0.18984 0.96438 0.61987 0.0
C7304 C 0.19139 0.96384 0.6298 0.0
C7305 C 0.18583 0.96542 0.60146 0.0
C7306 C 0.18162 0.95884 0.60682 0.0
C7307 C 0.18374 0.95835 0.61593 0.0
C7308 C 0.17468 0.95266 0.60321 0.0
C7309 C 0.18394 0.96612 0.59159 0.0
C7310 C 0.16651 0.95607 0.60005 0.0
C7311 C 0.15965 0.95025 0.59739 0.0
C7312 C 0.16081 0.9409 0.59786 0.0
C7313 C 0.16911 0.93748 0.60073 0.0
C7314 C 0.17597 0.94332 0.60345 0.0
H7315 H 0.18932 0.96986 0.58804 0.0
H7316 H 0.18326 0.95936 0.58853 0.0
H7317 H 0.17753 0.96977 0.59059 0.0
H7318 H 0.16532 0.96324 0.59993 0.0
H7319 H 0.15333 0.95308 0.59519 0.0
H7320 H 0.79869 0.47079 0.35376 0.0
H7321 H 0.81486 0.46769 0.3541 0.0
H7322 H 0.81146 0.45249 0.37831 0.0
H7323 H 0.79542 0.45575 0.37821 0.0
H7324 H 0.82866 0.4703 0.36904 0.0
H7325 H 0.82252 0.43492 0.35886 0.0
H7326 H 0.81436 0.44371 0.35712 0.0
H7327 H 0.81587 0.43898 0.36803 0.0
C7328 C 0.8014 0.46695 0.35926 0.0
C7329 C 0.79569 0.46342 0.36589 0.0
C7330 C 0.81064 0.46515 0.35941 0.0
C7331 C 0.81431 0.45977 0.36616 0.0
C7332 C 0.80873 0.45657 0.37298 0.0
H7333 H 0.86815 0.44545 0.38231 0.0
H7334 H 0.85307 0.45183 0.38108 0.0
C7335 C 0.79954 0.4584 0.37287 0.0
C7336 C 0.82388 0.45703 0.3659 0.0
H7337 H 0.83731 0.43867 0.36322 0.0
C7338 C 0.83058 0.46341 0.36771 0.0
C7339 C 0.82635 0.44805 0.36409 0.0
C7340 C 0.81942 0.441 0.36184 0.0
C7341 C 0.8397 0.46096 0.368 0.0
C7342 C 0.84213 0.4519 0.36646 0.0
C7343 C 0.83543 0.4456 0.36443 0.0
C7344 C 0.85156 0.44873 0.36705 0.0
C7345 C 0.84667 0.46806 0.36988 0.0
C7346 C 0.8557 0.4448 0.35959 0.0
C7347 C 0.86428 0.44108 0.36029 0.0
C7348 C 0.86888 0.44113 0.36849 0.0
C7349 C 0.86477 0.44523 0.37591 0.0
C7350 C 0.85619 0.44897 0.3752 0.0
H7351 H 0.84398 0.47493 0.36883 0.0
H7352 H 0.84887 0.46751 0.37693 0.0
H7353 H 0.85266 0.46712 0.36556 0.0
H7354 H 0.85221 0.44448 0.35326 0.0
H7355 H 0.86717 0.43787 0.35448 0.0
H7356 H 0.7083 0.53233 0.88063 0.0
H7357 H 0.69273 0.53748 0.88056 0.0
H7358 H 0.69707 0.55042 0.85521 0.0
H7359 H 0.71262 0.54509 0.85509 0.0
H7360 H 0.68665 0.55539 0.87984 0.0
H7361 H 0.67407 0.53558 0.851 0.0
H7362 H 0.68443 0.53293 0.85669 0.0
H7363 H 0.68403 0.54207 0.84889 0.0
C7364 C 0.70593 0.53616 0.87496 0.0
C7365 C 0.71173 0.53824 0.86783 0.0
C7366 C 0.69703 0.53915 0.87497 0.0
C7367 C 0.69369 0.54423 0.86783 0.0
C7368 C 0.69945 0.54637 0.86072 0.0
H7369 H 0.64217 0.56904 0.85621 0.0
H7370 H 0.65736 0.5628 0.85565 0.0
C7371 C 0.70838 0.54341 0.86071 0.0
C7372 C 0.68429 0.54755 0.86801 0.0
H7373 H 0.66418 0.54639 0.85709 0.0
C7374 C 0.68172 0.5534 0.87489 0.0
C7375 C 0.67788 0.54497 0.86152 0.0
C7376 C 0.68018 0.53848 0.85414 0.0
C7377 C 0.67298 0.5569 0.87537 0.0
C7378 C 0.66652 0.55427 0.86893 0.0
C7379 C 0.6691 0.5484 0.86204 0.0
C7380 C 0.6571 0.55762 0.86915 0.0
C7381 C 0.67087 0.56359 0.88264 0.0
C7382 C 0.65177 0.55656 0.87681 0.0
C7383 C 0.64312 0.56018 0.87716 0.0
C7384 C 0.63953 0.56478 0.86979 0.0
C7385 C 0.64472 0.56549 0.86198 0.0
C7386 C 0.65342 0.56195 0.86167 0.0
H7387 H 0.67704 0.5669 0.88519 0.0
H7388 H 0.66619 0.56886 0.88024 0.0
H7389 H 0.66767 0.56004 0.88832 0.0
H7390 H 0.65432 0.55299 0.88256 0.0
H7391 H 0.63923 0.55939 0.88322 0.0
H7392 H 0.88645 0.72765 0.95736 0.0
H7393 H 0.8845 0.72418 0.94141 0.0
H7394 H 0.89481 0.69755 0.94586 0.0
H7395 H 0.89665 0.70087 0.9617 0.0
H7396 H 0.89806 0.71741 0.92828 0.0
H7397 H 0.86957 0.69409 0.93404 0.0
H7398 H 0.87306 0.70235 0.94217 0.0
H7399 H 0.87921 0.69205 0.94097 0.0
C7400 C 0.88827 0.72105 0.95493 0.0
C7401 C 0.89172 0.71455 0.96081 0.0
C7402 C 0.88721 0.71911 0.94582 0.0
C7403 C 0.88946 0.71059 0.94248 0.0
C7404 C 0.89299 0.70414 0.94831 0.0
H7405 H 0.88692 0.67861 0.89523 0.0
H7406 H 0.88932 0.68534 0.90996 0.0
C7407 C 0.89409 0.70608 0.95736 0.0
C7408 C 0.88794 0.70824 0.93297 0.0
H7409 H 0.87638 0.69359 0.91972 0.0
C7410 C 0.89325 0.71228 0.92636 0.0
C7411 C 0.88164 0.70158 0.9305 0.0
C7412 C 0.87547 0.69731 0.93727 0.0
C7413 C 0.89273 0.70951 0.91738 0.0
C7414 C 0.88664 0.7026 0.91497 0.0
C7415 C 0.88111 0.69881 0.92157 0.0
C7416 C 0.88609 0.69887 0.90578 0.0
C7417 C 0.89893 0.71373 0.91062 0.0
C7418 C 0.88361 0.70424 0.89847 0.0
C7419 C 0.88234 0.70039 0.89002 0.0
C7420 C 0.88349 0.69112 0.88879 0.0
C7421 C 0.88614 0.6858 0.89603 0.0
C7422 C 0.88745 0.68963 0.90443 0.0
H7423 H 0.90459 0.71734 0.91387 0.0
H7424 H 0.90172 0.70858 0.90604 0.0
H7425 H 0.89511 0.71864 0.90657 0.0
H7426 H 0.88232 0.71134 0.89937 0.0
H7427 H 0.88011 0.70457 0.88453 0.0
H7428 H 0.03788 0.12387 0.73231 0.0
H7429 H 0.04699 0.12985 0.71997 0.0
H7430 H 0.06509 0.14196 0.73894 0.0
H7431 H 0.05609 0.13608 0.75121 0.0
H7432 H 0.05257 0.14771 0.71546 0.0
H7433 H 0.08158 0.12603 0.72384 0.0
H7434 H 0.07048 0.12408 0.72828 0.0
H7435 H 0.07761 0.13255 0.73312 0.0
C7436 C 0.04375 0.12789 0.73383 0.0
C7437 C 0.04634 0.12938 0.74275 0.0
C7438 C 0.04895 0.13127 0.72678 0.0
C7439 C 0.05682 0.13618 0.72855 0.0
C7440 C 0.05917 0.138 0.73743 0.0
H7441 H 0.10176 0.15953 0.70145 0.0
H7442 H 0.09003 0.1548 0.71183 0.0
C7443 C 0.05402 0.13463 0.74444 0.0
C7444 C 0.06276 0.13927 0.7212 0.0
H7445 H 0.08434 0.13794 0.71367 0.0
C7446 C 0.0595 0.14552 0.715 0.0
C7447 C 0.07178 0.13637 0.72058 0.0
C7448 C 0.07556 0.12932 0.72675 0.0
C7449 C 0.06515 0.14927 0.70844 0.0
C7450 C 0.07425 0.14657 0.70801 0.0
C7451 C 0.0774 0.1401 0.71406 0.0
C7452 C 0.08077 0.15045 0.70155 0.0
C7453 C 0.06141 0.15633 0.70228 0.0
C7454 C 0.07941 0.14978 0.69229 0.0
C7455 C 0.08609 0.15261 0.68632 0.0
C7456 C 0.09429 0.15599 0.68954 0.0
C7457 C 0.0955 0.15693 0.69879 0.0
C7458 C 0.08882 0.15421 0.70472 0.0
H7459 H 0.05515 0.15934 0.70497 0.0
H7460 H 0.06637 0.16177 0.70111 0.0
H7461 H 0.05978 0.1532 0.69575 0.0
H7462 H 0.07337 0.14672 0.68966 0.0
H7463 H 0.08505 0.15169 0.67922 0.0
H7464 H 0.61502 0.30503 0.46354 0.0
H7465 H 0.61556 0.31029 0.44808 0.0
H7466 H 0.60986 0.28348 0.43877 0.0
H7467 H 0.60894 0.27823 0.45418 0.0
H7468 H 0.62748 0.30411 0.43506 0.0
H7469 H 0.59217 0.29848 0.42442 0.0
H7470 H 0.59549 0.29856 0.43601 0.0
H7471 H 0.59766 0.28888 0.42917 0.0
C7472 C 0.61368 0.30029 0.45822 0.0
C7473 C 0.61194 0.29121 0.46011 0.0
C7474 C 0.61406 0.30329 0.44939 0.0
C7475 C 0.61266 0.29729 0.44229 0.0
C7476 C 0.6108 0.28826 0.44415 0.0
H7477 H 0.61416 0.30526 0.3844 0.0
H7478 H 0.61279 0.29869 0.39935 0.0
C7479 C 0.61039 0.28525 0.45297 0.0
C7480 C 0.61367 0.3004 0.43295 0.0
H7481 H 0.60245 0.30296 0.41324 0.0
C7482 C 0.622 0.30389 0.43029 0.0
C7483 C 0.60656 0.29994 0.4267 0.0
C7484 C 0.59744 0.29633 0.42921 0.0
C7485 C 0.62342 0.30696 0.42156 0.0
C7486 C 0.61623 0.30679 0.41538 0.0
C7487 C 0.60794 0.30313 0.41799 0.0
C7488 C 0.61707 0.3107 0.40631 0.0
C7489 C 0.63269 0.31017 0.41902 0.0
C7490 C 0.61977 0.31967 0.40526 0.0
C7491 C 0.62063 0.32339 0.39676 0.0
C7492 C 0.61865 0.31826 0.38912 0.0
C7493 C 0.61572 0.30936 0.39017 0.0
C7494 C 0.61495 0.3056 0.3987 0.0
H7495 H 0.63793 0.30707 0.4233 0.0
H7496 H 0.63425 0.30861 0.41194 0.0
H7497 H 0.63309 0.31755 0.41998 0.0
H7498 H 0.62114 0.32385 0.41102 0.0
H7499 H 0.62273 0.33033 0.39617 0.0
H7500 H 0.44576 0.87067 0.24889 0.0
H7501 H 0.43657 0.86451 0.23688 0.0
H7502 H 0.45842 0.86833 0.21837 0.0
H7503 H 0.46775 0.87438 0.23046 0.0
H7504 H 0.43082 0.87221 0.22192 0.0
H7505 H 0.45179 0.8428 0.21294 0.0
H7506 H 0.45375 0.84933 0.22291 0.0
H7507 H 0.4576 0.85334 0.21225 0.0
C7508 C 0.44863 0.8702 0.24227 0.0
C7509 C 0.4575 0.87302 0.24064 0.0
C7510 C 0.44336 0.86664 0.2354 0.0
C7511 C 0.44682 0.86582 0.22672 0.0
C7512 C 0.45567 0.86867 0.22505 0.0
H7513 H 0.42201 0.8473 0.17711 0.0
H7514 H 0.43241 0.85288 0.18851 0.0
C7515 C 0.46099 0.87216 0.23195 0.0
C7516 C 0.44099 0.86225 0.21945 0.0
H7517 H 0.43927 0.84574 0.20367 0.0
C7518 C 0.43267 0.86641 0.21795 0.0
C7519 C 0.4434 0.85471 0.21422 0.0
C7520 C 0.45208 0.84972 0.21569 0.0
C7521 C 0.42672 0.86327 0.21136 0.0
C7522 C 0.42908 0.85565 0.20622 0.0
C7523 C 0.43745 0.85156 0.20762 0.0
C7524 C 0.42291 0.85179 0.1994 0.0
C7525 C 0.41806 0.86829 0.20988 0.0
C7526 C 0.41421 0.84904 0.20175 0.0
C7527 C 0.40825 0.84588 0.19525 0.0
C7528 C 0.41092 0.84526 0.18627 0.0
C7529 C 0.41977 0.84764 0.18398 0.0
C7530 C 0.4257 0.85087 0.19048 0.0
H7531 H 0.41851 0.87532 0.21233 0.0
H7532 H 0.4162 0.86841 0.2027 0.0
H7533 H 0.41259 0.86492 0.21363 0.0
H7534 H 0.41198 0.84941 0.20862 0.0
H7535 H 0.40153 0.84396 0.19726 0.0
H7536 H 0.88325 0.30577 0.54188 0.0
H7537 H 0.88204 0.30824 0.55792 0.0
H7538 H 0.89323 0.28203 0.56283 0.0
H7539 H 0.89465 0.27956 0.54665 0.0
H7540 H 0.87241 0.29752 0.57061 0.0
H7541 H 0.909 0.29936 0.57816 0.0
H7542 H 0.90472 0.30062 0.56695 0.0
H7543 H 0.90493 0.28975 0.57208 0.0
C7544 C 0.88553 0.30054 0.54635 0.0
C7545 C 0.88914 0.2925 0.54297 0.0
C7546 C 0.88479 0.30195 0.55553 0.0
C7547 C 0.88766 0.29538 0.56158 0.0
C7548 C 0.89111 0.28725 0.55828 0.0
H7549 H 0.88722 0.30465 0.62015 0.0
H7550 H 0.88973 0.29714 0.60569 0.0
C7551 C 0.89182 0.28581 0.54904 0.0
C7552 C 0.88684 0.29716 0.5713 0.0
H7553 H 0.89903 0.30265 0.58988 0.0
C7554 C 0.87823 0.29852 0.57485 0.0
C7555 C 0.89443 0.29837 0.57686 0.0
C7556 C 0.90382 0.297 0.57337 0.0
C7557 C 0.87702 0.30138 0.58369 0.0
C7558 C 0.88462 0.30315 0.58909 0.0
C7559 C 0.89322 0.30133 0.58571 0.0
C7560 C 0.88372 0.30774 0.59785 0.0
C7561 C 0.86758 0.30261 0.58713 0.0
C7562 C 0.87984 0.3163 0.5982 0.0
C7563 C 0.87844 0.32057 0.60635 0.0
C7564 C 0.88091 0.31641 0.61441 0.0
C7565 C 0.88522 0.30801 0.61406 0.0
C7566 C 0.88662 0.30371 0.60583 0.0
H7567 H 0.86273 0.29834 0.58342 0.0
H7568 H 0.86712 0.30097 0.59435 0.0
H7569 H 0.86555 0.30971 0.58621 0.0
H7570 H 0.87779 0.31966 0.59212 0.0
H7571 H 0.87533 0.32714 0.60636 0.0
H7572 H 0.46185 0.12356 0.27388 0.0
H7573 H 0.45083 0.12898 0.28472 0.0
H7574 H 0.44956 0.15435 0.27093 0.0
H7575 H 0.46045 0.14892 0.26 0.0
H7576 H 0.4516 0.14243 0.29625 0.0
H7577 H 0.4234 0.14887 0.27305 0.0
H7578 H 0.43328 0.14274 0.26972 0.0
H7579 H 0.43339 0.15483 0.26995 0.0
C7580 C 0.4592 0.13028 0.27314 0.0
C7581 C 0.46199 0.13578 0.26603 0.0
C7582 C 0.45288 0.13337 0.27934 0.0
C7583 C 0.44921 0.14202 0.27857 0.0
C7584 C 0.45206 0.14755 0.27153 0.0
H7585 H 0.41656 0.17379 0.31544 0.0
H7586 H 0.42744 0.16887 0.3041 0.0
C7587 C 0.45832 0.14445 0.26529 0.0
C7588 C 0.44267 0.14535 0.28532 0.0
H7589 H 0.42182 0.15466 0.28781 0.0
C7590 C 0.44508 0.14506 0.29439 0.0
C7591 C 0.43412 0.14877 0.28292 0.0
C7592 C 0.43085 0.14874 0.27339 0.0
C7593 C 0.43925 0.14818 0.30107 0.0
C7594 C 0.43082 0.15174 0.29863 0.0
C7595 C 0.42836 0.15203 0.28961 0.0
C7596 C 0.4243 0.15476 0.30545 0.0
C7597 C 0.44208 0.14768 0.31071 0.0
C7598 C 0.41899 0.14844 0.30992 0.0
C7599 C 0.41282 0.15121 0.31637 0.0
C7600 C 0.41184 0.16037 0.31849 0.0
C7601 C 0.41722 0.16669 0.31402 0.0
C7602 C 0.42338 0.16391 0.30751 0.0
H7603 H 0.44915 0.14547 0.31147 0.0
H7604 H 0.44127 0.15435 0.31394 0.0
H7605 H 0.43767 0.14288 0.3143 0.0
H7606 H 0.41964 0.14135 0.30842 0.0
H7607 H 0.40887 0.14615 0.31977 0.0
H7608 H 0.62821 0.71377 0.04583 0.0
H7609 H 0.62928 0.71032 0.06177 0.0
H7610 H 0.60052 0.70753 0.06317 0.0
H7611 H 0.59932 0.71123 0.04735 0.0
H7612 H 0.62053 0.71829 0.07761 0.0
H7613 H 0.61082 0.68281 0.07137 0.0
H7614 H 0.61455 0.69021 0.06258 0.0
H7615 H 0.60331 0.69107 0.06684 0.0
C7616 C 0.62208 0.71261 0.04954 0.0
C7617 C 0.61368 0.71267 0.04522 0.0
C7618 C 0.62272 0.71059 0.05865 0.0
C7619 C 0.615 0.70852 0.0636 0.0
C7620 C 0.60658 0.70895 0.05943 0.0
H7621 H 0.60443 0.68638 0.116 0.0
H7622 H 0.60341 0.69296 0.10112 0.0
C7623 C 0.60593 0.71103 0.05036 0.0
C7624 C 0.61572 0.70547 0.07301 0.0
H7625 H 0.61212 0.6873 0.08642 0.0
C7626 C 0.61872 0.71152 0.07956 0.0
C7627 C 0.61336 0.69663 0.07552 0.0
C7628 C 0.61039 0.68976 0.06872 0.0
C7629 C 0.61923 0.70899 0.0886 0.0
C7630 C 0.61685 0.70014 0.0911 0.0
C7631 C 0.6139 0.6941 0.08452 0.0
C7632 C 0.61738 0.6969 0.10048 0.0
C7633 C 0.62208 0.71591 0.09539 0.0
C7634 C 0.62557 0.69696 0.10513 0.0
C7635 C 0.62615 0.6933 0.11371 0.0
C7636 C 0.61857 0.6894 0.1178 0.0
C7637 C 0.61036 0.68945 0.11316 0.0
C7638 C 0.60978 0.69315 0.1046 0.0
H7639 H 0.62114 0.72285 0.09286 0.0
H7640 H 0.61824 0.71515 0.1017 0.0
H7641 H 0.62931 0.71501 0.09691 0.0
H7642 H 0.63157 0.69963 0.10204 0.0
H7643 H 0.63257 0.69346 0.1171 0.0
H7644 H 0.03491 0.87385 0.77376 0.0
H7645 H 0.04407 0.86778 0.78599 0.0
H7646 H 0.06775 0.87011 0.76958 0.0
H7647 H 0.05873 0.87627 0.75749 0.0
H7648 H 0.05466 0.85305 0.78747 0.0
H7649 H 0.07569 0.88342 0.79146 0.0
H7650 H 0.06559 0.88338 0.78482 0.0
H7651 H 0.076 0.87929 0.78023 0.0
C7652 C 0.04207 0.87305 0.77278 0.0
C7653 C 0.04612 0.87569 0.76471 0.0
C7654 C 0.04729 0.8696 0.77977 0.0
C7655 C 0.05664 0.8687 0.7788 0.0
C7656 C 0.06061 0.87102 0.77062 0.0
H7657 H 0.10224 0.84742 0.80563 0.0
H7658 H 0.09048 0.85208 0.79531 0.0
C7659 C 0.05543 0.87453 0.7637 0.0
C7660 C 0.0623 0.86529 0.78624 0.0
H7661 H 0.08133 0.86994 0.79812 0.0
C7662 C 0.06042 0.8568 0.7899 0.0
C7663 C 0.06978 0.8702 0.78947 0.0
C7664 C 0.07183 0.87961 0.78635 0.0
C7665 C 0.06605 0.85295 0.79639 0.0
C7666 C 0.07373 0.8577 0.79926 0.0
C7667 C 0.07546 0.86628 0.79583 0.0
C7668 C 0.08036 0.85378 0.80551 0.0
C7669 C 0.06399 0.8437 0.79991 0.0
C7670 C 0.0785 0.85301 0.81467 0.0
C7671 C 0.08527 0.85042 0.82064 0.0
C7672 C 0.09399 0.8486 0.81752 0.0
C7673 C 0.09564 0.84891 0.80827 0.0
C7674 C 0.08892 0.85154 0.80235 0.0
H7675 H 0.05821 0.84055 0.79641 0.0
H7676 H 0.06996 0.83931 0.79918 0.0
H7677 H 0.06239 0.84415 0.80713 0.0
H7678 H 0.07194 0.85479 0.81724 0.0
H7679 H 0.08381 0.85031 0.82772 0.0
H7680 H 0.95647 0.88035 0.7261 0.0
H7681 H 0.94108 0.87996 0.7205 0.0
H7682 H 0.94693 0.90221 0.70304 0.0
H7683 H 0.96238 0.9026 0.70856 0.0
H7684 H 0.92766 0.89192 0.72072 0.0
H7685 H 0.93674 0.88447 0.6856 0.0
H7686 H 0.94482 0.88401 0.69454 0.0
H7687 H 0.94174 0.89462 0.6897 0.0
C7688 C 0.95448 0.88521 0.72111 0.0
C7689 C 0.96071 0.89148 0.71775 0.0
C7690 C 0.94567 0.88495 0.71789 0.0
C7691 C 0.94287 0.89094 0.71122 0.0
C7692 C 0.94899 0.89735 0.708 0.0
H7693 H 0.89148 0.89726 0.68364 0.0
H7694 H 0.90614 0.90018 0.69058 0.0
C7695 C 0.95783 0.89758 0.71118 0.0
C7696 C 0.93354 0.89042 0.70766 0.0
H7697 H 0.92141 0.88759 0.68848 0.0
C7698 C 0.92631 0.89097 0.71367 0.0
C7699 C 0.93174 0.88914 0.69846 0.0
C7700 C 0.93917 0.88793 0.69171 0.0
C7701 C 0.91737 0.89032 0.71072 0.0
C7702 C 0.91561 0.88909 0.70154 0.0
C7703 C 0.9228 0.88863 0.69552 0.0
C7704 C 0.90637 0.88778 0.69807 0.0
C7705 C 0.90985 0.891 0.71743 0.0
C7706 C 0.90163 0.87989 0.70006 0.0
C7707 C 0.89331 0.8782 0.6961 0.0
C7708 C 0.88955 0.88438 0.69007 0.0
C7709 C 0.89416 0.89243 0.68833 0.0
C7710 C 0.90255 0.89408 0.69224 0.0
H7711 H 0.9122 0.89379 0.7239 0.0
H7712 H 0.90436 0.8953 0.71482 0.0
H7713 H 0.90704 0.88421 0.71865 0.0
H7714 H 0.90451 0.8749 0.70446 0.0
H7715 H 0.88989 0.87196 0.69759 0.0
H7716 H 0.87621 0.24792 0.44953 0.0
H7717 H 0.87024 0.2375 0.43839 0.0
H7718 H 0.86148 0.21973 0.45936 0.0
H7719 H 0.86691 0.23031 0.47053 0.0
H7720 H 0.8743 0.22039 0.43453 0.0
H7721 H 0.83877 0.22197 0.44523 0.0
H7722 H 0.84713 0.22975 0.44926 0.0
H7723 H 0.84611 0.21875 0.45414 0.0
C7724 C 0.87288 0.24187 0.4518 0.0
C7725 C 0.872 0.24003 0.46098 0.0
C7726 C 0.86954 0.23587 0.4454 0.0
C7727 C 0.86523 0.2279 0.44802 0.0
C7728 C 0.86456 0.22593 0.45715 0.0
H7729 H 0.84439 0.18083 0.42098 0.0
H7730 H 0.84955 0.19205 0.43175 0.0
C7731 C 0.86782 0.23195 0.46355 0.0
C7732 C 0.86157 0.22158 0.44122 0.0
H7733 H 0.84257 0.21023 0.43507 0.0
C7734 C 0.86735 0.21823 0.43461 0.0
C7735 C 0.85247 0.21878 0.44128 0.0
C7736 C 0.84574 0.22257 0.4478 0.0
C7737 C 0.86434 0.21198 0.42823 0.0
C7738 C 0.85531 0.20905 0.42843 0.0
C7739 C 0.84951 0.21245 0.43498 0.0
C7740 C 0.85177 0.20243 0.42192 0.0
C7741 C 0.87089 0.20841 0.42142 0.0
C7742 C 0.85108 0.20463 0.41285 0.0
C7743 C 0.84798 0.19829 0.40668 0.0
C7744 C 0.84556 0.18957 0.40944 0.0
C7745 C 0.84607 0.18748 0.41859 0.0
C7746 C 0.84909 0.19387 0.42477 0.0
H7747 H 0.87796 0.20995 0.42323 0.0
H7748 H 0.87014 0.20103 0.42067 0.0
H7749 H 0.86947 0.21153 0.41484 0.0
H7750 H 0.85295 0.21127 0.41054 0.0
H7751 H 0.8475 0.20025 0.39974 0.0
H7752 H 0.54543 0.10339 0.20809 0.0
H7753 H 0.56141 0.10462 0.2048 0.0
H7754 H 0.56198 0.13099 0.21666 0.0
H7755 H 0.54587 0.12992 0.2198 0.0
H7756 H 0.56886 0.118 0.19379 0.0
H7757 H 0.58415 0.11841 0.22764 0.0
H7758 H 0.57289 0.11438 0.22559 0.0
H7759 H 0.57513 0.12622 0.22585 0.0
C7760 C 0.54892 0.10947 0.21002 0.0
C7761 C 0.54429 0.1166 0.21413 0.0
C7762 C 0.55809 0.11013 0.20818 0.0
C7763 C 0.5629 0.11787 0.21052 0.0
C7764 C 0.55842 0.12489 0.21492 0.0
H7765 H 0.61705 0.13515 0.19606 0.0
H7766 H 0.60184 0.13424 0.20226 0.0
C7767 C 0.5492 0.12426 0.21673 0.0
C7768 C 0.57242 0.11881 0.20769 0.0
H7769 H 0.59393 0.12095 0.21541 0.0
C7770 C 0.57434 0.11863 0.19852 0.0
C7771 C 0.57955 0.11967 0.21388 0.0
C7772 C 0.57788 0.11962 0.2238 0.0
C7773 C 0.58318 0.1193 0.19536 0.0
C7774 C 0.59032 0.12004 0.20153 0.0
C7775 C 0.58843 0.12035 0.21071 0.0
C7776 C 0.59979 0.12038 0.19848 0.0
C7777 C 0.58484 0.11932 0.18543 0.0
C7778 C 0.60371 0.11283 0.19447 0.0
C7779 C 0.61237 0.11332 0.1909 0.0
C7780 C 0.61729 0.12139 0.19128 0.0
C7781 C 0.61342 0.12887 0.19556 0.0
C7782 C 0.60476 0.12835 0.19916 0.0
H7783 H 0.57856 0.12043 0.18158 0.0
H7784 H 0.58977 0.12461 0.18362 0.0
H7785 H 0.58769 0.11274 0.1834 0.0
H7786 H 0.59999 0.1066 0.19392 0.0
H7787 H 0.61509 0.10747 0.18757 0.0
H7788 H 0.64237 0.75607 0.95827 0.0
H7789 H 0.64768 0.76694 0.94723 0.0
H7790 H 0.62732 0.78564 0.95569 0.0
H7791 H 0.62193 0.77482 0.9667 0.0
H7792 H 0.63884 0.77499 0.93308 0.0
H7793 H 0.65003 0.80072 0.95749 0.0
H7794 H 0.64726 0.78938 0.96073 0.0
H7795 H 0.6385 0.79742 0.95868 0.0
C7796 C 0.63896 0.76246 0.95774 0.0
C7797 C 0.63175 0.76457 0.96344 0.0
C7798 C 0.64205 0.76869 0.95145 0.0
C7799 C 0.63802 0.77718 0.95075 0.0
C7800 C 0.63069 0.77923 0.95627 0.0
H7801 H 0.64675 0.82434 0.91783 0.0
H7802 H 0.64214 0.81346 0.92925 0.0
C7803 C 0.62761 0.77302 0.96257 0.0
C7804 C 0.64143 0.78382 0.94417 0.0
H7805 H 0.65026 0.80491 0.94225 0.0
C7806 C 0.64138 0.78152 0.93508 0.0
C7807 C 0.64471 0.79235 0.94678 0.0
C7808 C 0.64522 0.79511 0.95646 0.0
C7809 C 0.64431 0.78759 0.92852 0.0
C7810 C 0.64765 0.79612 0.93113 0.0
C7811 C 0.64773 0.79839 0.94023 0.0
C7812 C 0.6509 0.80286 0.92453 0.0
C7813 C 0.6435 0.78487 0.91884 0.0
C7814 C 0.65756 0.80066 0.91825 0.0
C7815 C 0.66008 0.80682 0.91168 0.0
C7816 C 0.6562 0.81539 0.91145 0.0
C7817 C 0.6499 0.81779 0.91798 0.0
C7818 C 0.64725 0.81157 0.92446 0.0
H7819 H 0.63841 0.7795 0.91791 0.0
H7820 H 0.64163 0.79067 0.91458 0.0
H7821 H 0.65005 0.78221 0.9165 0.0
H7822 H 0.6607 0.79411 0.91833 0.0
H7823 H 0.66493 0.80485 0.90665 0.0
H7824 H 0.96324 0.10271 0.8003 0.0
H7825 H 0.94782 0.10308 0.8059 0.0
H7826 H 0.94073 0.12212 0.78543 0.0
H7827 H 0.95609 0.12182 0.77982 0.0
H7828 H 0.9384 0.11695 0.81262 0.0
H7829 H 0.92081 0.10401 0.78268 0.0
H7830 H 0.93283 0.1033 0.78398 0.0
H7831 H 0.92772 0.11359 0.78029 0.0
C7832 C 0.95841 0.10698 0.79698 0.0
C7833 C 0.96094 0.1122 0.78956 0.0
C7834 C 0.94957 0.10715 0.80017 0.0
C7835 C 0.94305 0.11249 0.79598 0.0
C7836 C 0.94555 0.11774 0.78862 0.0
H7837 H 0.89105 0.13232 0.81119 0.0
H7838 H 0.90564 0.12925 0.8043 0.0
C7839 C 0.95438 0.11757 0.78542 0.0
C7840 C 0.93375 0.11293 0.7996 0.0
H7841 H 0.9116 0.11083 0.79389 0.0
C7842 C 0.93255 0.1155 0.80854 0.0
C7843 C 0.9261 0.11103 0.79429 0.0
C7844 C 0.92691 0.10774 0.7848 0.0
C7845 C 0.92394 0.11647 0.81223 0.0
C7846 C 0.91633 0.1148 0.80686 0.0
C7847 C 0.91747 0.11211 0.79797 0.0
C7848 C 0.90713 0.11618 0.81035 0.0
C7849 C 0.92297 0.11949 0.82179 0.0
C7850 C 0.90308 0.10974 0.81588 0.0
C7851 C 0.89473 0.11146 0.81982 0.0
C7852 C 0.89035 0.11969 0.81835 0.0
C7853 C 0.89431 0.12596 0.81253 0.0
C7854 C 0.90261 0.12421 0.80856 0.0
H7855 H 0.92956 0.12096 0.82496 0.0
H7856 H 0.91873 0.12561 0.82211 0.0
H7857 H 0.91954 0.11418 0.82571 0.0
H7858 H 0.9065 0.10349 0.81733 0.0
H7859 H 0.89189 0.10653 0.82432 0.0
H7860 H 0.62342 0.24726 0.56109 0.0
H7861 H 0.62986 0.23543 0.57056 0.0
H7862 H 0.64263 0.22367 0.54754 0.0
H7863 H 0.63616 0.23541 0.53803 0.0
H7864 H 0.62854 0.21351 0.56424 0.0
H7865 H 0.66162 0.22983 0.57069 0.0
H7866 H 0.65163 0.23647 0.56889 0.0
H7867 H 0.65649 0.23039 0.55978 0.0
C7868 C 0.62764 0.24217 0.55808 0.0
C7869 C 0.62928 0.24221 0.54884 0.0
C7870 C 0.63128 0.23543 0.56347 0.0
C7871 C 0.63672 0.22873 0.55971 0.0
C7872 C 0.63844 0.2288 0.55052 0.0
H7873 H 0.66773 0.18872 0.5899 0.0
H7874 H 0.66263 0.19862 0.57781 0.0
C7875 C 0.63472 0.23547 0.54512 0.0
C7876 C 0.64047 0.22157 0.5654 0.0
H7877 H 0.65876 0.21612 0.57797 0.0
C7878 C 0.63516 0.21403 0.56722 0.0
C7879 C 0.64916 0.22223 0.56908 0.0
C7880 C 0.65512 0.23015 0.56706 0.0
C7881 C 0.63826 0.20717 0.57283 0.0
C7882 C 0.64679 0.20804 0.57696 0.0
C7883 C 0.65222 0.21546 0.57486 0.0
C7884 C 0.64985 0.20171 0.58398 0.0
C7885 C 0.63236 0.19904 0.57422 0.0
C7886 C 0.64441 0.2002 0.59146 0.0
C7887 C 0.6472 0.19443 0.59821 0.0
C7888 C 0.65567 0.19025 0.59786 0.0
C7889 C 0.66116 0.19177 0.59037 0.0
C7890 C 0.65828 0.19748 0.58349 0.0
H7891 H 0.62801 0.19782 0.56832 0.0
H7892 H 0.6364 0.19291 0.5755 0.0
H7893 H 0.6279 0.20023 0.58003 0.0
H7894 H 0.638 0.20355 0.59214 0.0
H7895 H 0.64267 0.19329 0.60375 0.0
H7896 H 0.54066 0.88821 0.30081 0.0
H7897 H 0.55611 0.8881 0.30631 0.0
H7898 H 0.56595 0.88817 0.27926 0.0
H7899 H 0.55054 0.88866 0.27368 0.0
H7900 H 0.56902 0.87502 0.30304 0.0
H7901 H 0.58078 0.90813 0.29062 0.0
H7902 H 0.56903 0.90516 0.29111 0.0
H7903 H 0.57599 0.90088 0.28229 0.0
C7904 C 0.54609 0.88839 0.29601 0.0
C7905 C 0.5443 0.88847 0.28678 0.0
C7906 C 0.55493 0.88826 0.29918 0.0
C7907 C 0.5622 0.88824 0.29321 0.0
C7908 C 0.56046 0.88835 0.284 0.0
H7909 H 0.62041 0.8875 0.30215 0.0
H7910 H 0.60538 0.8881 0.29543 0.0
C7911 C 0.55162 0.88851 0.28082 0.0
C7912 C 0.57156 0.88769 0.29664 0.0
H7913 H 0.59166 0.89877 0.29731 0.0
C7914 C 0.57397 0.88022 0.30181 0.0
C7915 C 0.57806 0.89441 0.29491 0.0
C7916 C 0.57585 0.90264 0.28949 0.0
C7917 C 0.58268 0.87926 0.30527 0.0
C7918 C 0.58912 0.88612 0.30379 0.0
C7919 C 0.58674 0.89353 0.2985 0.0
C7920 C 0.59827 0.88583 0.30785 0.0
C7921 C 0.58491 0.87076 0.31026 0.0
C7922 C 0.59932 0.88456 0.31708 0.0
C7923 C 0.60788 0.88405 0.32087 0.0
C7924 C 0.61559 0.88508 0.31557 0.0
C7925 C 0.61457 0.88669 0.30639 0.0
C7926 C 0.60599 0.88702 0.30255 0.0
H7927 H 0.58053 0.86511 0.30813 0.0
H7928 H 0.59201 0.86876 0.30924 0.0
H7929 H 0.58376 0.87184 0.3175 0.0
H7930 H 0.59352 0.88398 0.32139 0.0
H7931 H 0.60846 0.88296 0.32799 0.0
H7932 H 0.87775 0.7593 0.05414 0.0
H7933 H 0.87172 0.76991 0.06507 0.0
H7934 H 0.86327 0.78736 0.04374 0.0
H7935 H 0.86877 0.77661 0.03279 0.0
H7936 H 0.8759 0.78707 0.06866 0.0
H7937 H 0.84043 0.78545 0.05774 0.0
H7938 H 0.84876 0.77757 0.0539 0.0
H7939 H 0.84785 0.78849 0.04882 0.0
C7940 C 0.87448 0.76532 0.05176 0.0
C7941 C 0.87371 0.76703 0.04254 0.0
C7942 C 0.8711 0.77143 0.05803 0.0
C7943 C 0.86686 0.77936 0.05524 0.0
C7944 C 0.86629 0.78119 0.04607 0.0
H7945 H 0.84671 0.82713 0.0815 0.0
H7946 H 0.85184 0.81575 0.07089 0.0
C7947 C 0.86959 0.77507 0.0398 0.0
C7948 C 0.8632 0.78581 0.0619 0.0
H7949 H 0.84424 0.79737 0.06771 0.0
C7950 C 0.86896 0.78926 0.06849 0.0
C7951 C 0.85412 0.78866 0.06172 0.0
C7952 C 0.84741 0.78478 0.05522 0.0
C7953 C 0.86595 0.79563 0.07474 0.0
C7954 C 0.85695 0.7986 0.0744 0.0
C7955 C 0.85116 0.79512 0.06788 0.0
C7956 C 0.85343 0.80533 0.0808 0.0
C7957 C 0.87246 0.79928 0.08155 0.0
C7958 C 0.8524 0.80316 0.08983 0.0
C7959 C 0.8493 0.80958 0.0959 0.0
C7960 C 0.84724 0.81837 0.09307 0.0
C7961 C 0.8481 0.82044 0.08394 0.0
C7962 C 0.85111 0.81396 0.07786 0.0
H7963 H 0.87952 0.79754 0.07992 0.0
H7964 H 0.87186 0.80669 0.08205 0.0
H7965 H 0.87084 0.7964 0.08819 0.0
H7966 H 0.854 0.79648 0.0922 0.0
H7967 H 0.84853 0.80764 0.10282 0.0
H7968 H 0.71844 0.95779 0.87736 0.0
H7969 H 0.71293 0.94234 0.87717 0.0
H7970 H 0.70745 0.9439 0.90539 0.0
H7971 H 0.71292 0.95941 0.90563 0.0
H7972 H 0.71867 0.92749 0.88576 0.0
H7973 H 0.68371 0.93499 0.89612 0.0
H7974 H 0.69151 0.94367 0.89288 0.0
H7975 H 0.69203 0.93886 0.90388 0.0
C7976 C 0.7161 0.95485 0.88355 0.0
C7977 C 0.7161 0.95988 0.89151 0.0
C7978 C 0.71292 0.94601 0.88341 0.0
C7979 C 0.70962 0.94199 0.89122 0.0
C7980 C 0.70973 0.94693 0.89922 0.0
H7981 H 0.68606 0.88945 0.90175 0.0
H7982 H 0.69288 0.90431 0.90305 0.0
C7983 C 0.71287 0.9558 0.89935 0.0
C7984 C 0.7062 0.93259 0.89096 0.0
H7985 H 0.68769 0.91965 0.89507 0.0
C7986 C 0.71189 0.92578 0.88778 0.0
C7987 C 0.69735 0.93034 0.89362 0.0
C7988 C 0.69076 0.93735 0.89674 0.0
C7989 C 0.70902 0.9168 0.88726 0.0
C7990 C 0.70015 0.91457 0.88985 0.0
C7991 C 0.69449 0.92136 0.8931 0.0
C7992 C 0.69652 0.90528 0.8891 0.0
C7993 C 0.71558 0.90978 0.8841 0.0
C7994 C 0.69629 0.90085 0.88083 0.0
C7995 C 0.69252 0.89227 0.88009 0.0
C7996 C 0.68877 0.88798 0.88759 0.0
C7997 C 0.68903 0.89245 0.89586 0.0
C7998 C 0.69286 0.901 0.89661 0.0
H7999 H 0.72264 0.91202 0.885 0.0
H8000 H 0.71463 0.90335 0.88772 0.0
H8001 H 0.7145 0.90853 0.87688 0.0
H8002 H 0.69889 0.90408 0.8749 0.0
H8003 H 0.69253 0.88903 0.87362 0.0
H8004 H 0.22262 0.54777 0.1066 0.0
H8005 H 0.22033 0.56408 0.10736 0.0
H8006 H 0.19987 0.56025 0.12737 0.0
H8007 H 0.20236 0.54412 0.12694 0.0
H8008 H 0.20517 0.57363 0.10364 0.0
H8009 H 0.21474 0.57967 0.13875 0.0
H8010 H 0.21748 0.56939 0.13297 0.0
H8011 H 0.20653 0.5709 0.13787 0.0
C8012 C 0.21777 0.55043 0.1113 0.0
C8013 C 0.21266 0.54461 0.11669 0.0
C8014 C 0.21643 0.55974 0.11167 0.0
C8015 C 0.21002 0.56342 0.11752 0.0
C8016 C 0.20499 0.55763 0.12295 0.0
H8017 H 0.17998 0.6106 0.12759 0.0
H8018 H 0.18704 0.59589 0.12667 0.0
C8019 C 0.20635 0.54836 0.1226 0.0
C8020 C 0.20818 0.57323 0.11769 0.0
H8021 H 0.20532 0.59091 0.13197 0.0
C8022 C 0.20537 0.57747 0.1098 0.0
C8023 C 0.20849 0.57826 0.12571 0.0
C8024 C 0.21207 0.57434 0.13428 0.0
C8025 C 0.20238 0.58642 0.10983 0.0
C8026 C 0.20222 0.59126 0.11795 0.0
C8027 C 0.20537 0.58715 0.12576 0.0
C8028 C 0.19822 0.60035 0.11861 0.0
C8029 C 0.19901 0.59052 0.10126 0.0
C8030 C 0.20224 0.60779 0.11447 0.0
C8031 C 0.19828 0.6163 0.1151 0.0
C8032 C 0.19022 0.61753 0.11987 0.0
C8033 C 0.18627 0.61001 0.12402 0.0
C8034 C 0.19026 0.60155 0.12344 0.0
H8035 H 0.19837 0.58548 0.09583 0.0
H8036 H 0.19237 0.59374 0.10234 0.0
H8037 H 0.20377 0.59581 0.09905 0.0
H8038 H 0.20846 0.60702 0.1108 0.0
H8039 H 0.2016 0.62193 0.11193 0.0
H8040 H 0.24752 0.44673 0.87471 0.0
H8041 H 0.23569 0.4374 0.86832 0.0
H8042 H 0.21923 0.46088 0.86444 0.0
H8043 H 0.2312 0.47032 0.87068 0.0
H8044 H 0.21921 0.43432 0.87388 0.0
H8045 H 0.21731 0.44973 0.84022 0.0
H8046 H 0.22623 0.45228 0.84795 0.0
H8047 H 0.21541 0.45749 0.84918 0.0
C8048 C 0.24138 0.44993 0.87251 0.0
C8049 C 0.2403 0.45928 0.87322 0.0
C8050 C 0.23462 0.44458 0.86882 0.0
C8051 C 0.2266 0.44842 0.86576 0.0
C8052 C 0.22545 0.45776 0.86652 0.0
H8053 H 0.17824 0.41979 0.8474 0.0
H8054 H 0.18858 0.43179 0.85208 0.0
C8055 C 0.23227 0.46315 0.87013 0.0
C8056 C 0.2194 0.44253 0.86206 0.0
H8057 H 0.20659 0.43843 0.84352 0.0
C8058 C 0.21646 0.43525 0.86725 0.0
C8059 C 0.21576 0.44374 0.8534 0.0
C8060 C 0.21889 0.45118 0.84732 0.0
C8061 C 0.21011 0.42911 0.864 0.0
C8062 C 0.20658 0.43024 0.85532 0.0
C8063 C 0.20931 0.43762 0.85019 0.0
C8064 C 0.20046 0.42348 0.85136 0.0
C8065 C 0.20724 0.42137 0.86983 0.0
C8066 C 0.20378 0.41499 0.84908 0.0
C8067 C 0.19794 0.4082 0.84633 0.0
C8068 C 0.18863 0.40973 0.84586 0.0
C8069 C 0.18537 0.41841 0.84765 0.0
C8070 C 0.19125 0.42525 0.85037 0.0
H8071 H 0.2092 0.42241 0.87692 0.0
H8072 H 0.19986 0.42038 0.86948 0.0
H8073 H 0.2105 0.41512 0.86742 0.0
H8074 H 0.21088 0.41354 0.84971 0.0
H8075 H 0.20069 0.40164 0.84485 0.0
H8076 H 0.28267 0.45767 0.62891 0.0
H8077 H 0.28817 0.44224 0.62908 0.0
H8078 H 0.29911 0.44576 0.60267 0.0
H8079 H 0.29366 0.46126 0.60246 0.0
H8080 H 0.28444 0.42799 0.61852 0.0
H8081 H 0.32068 0.43635 0.61583 0.0
H8082 H 0.31225 0.44475 0.61805 0.0
H8083 H 0.31397 0.44067 0.60687 0.0
C8084 C 0.2862 0.45516 0.6231 0.0
C8085 C 0.28774 0.46074 0.61568 0.0
C8086 C 0.28937 0.44633 0.62323 0.0
C8087 C 0.29419 0.44286 0.61596 0.0
C8088 C 0.29562 0.44835 0.60846 0.0
H8089 H 0.32078 0.3908 0.60936 0.0
H8090 H 0.31364 0.4053 0.60633 0.0
C8091 C 0.29248 0.45721 0.60835 0.0
C8092 C 0.29763 0.43348 0.61626 0.0
H8093 H 0.31684 0.42097 0.61547 0.0
C8094 C 0.29153 0.42646 0.61784 0.0
C8095 C 0.30688 0.43146 0.61534 0.0
C8096 C 0.31384 0.4387 0.61401 0.0
C8097 C 0.2944 0.41751 0.61854 0.0
C8098 C 0.30365 0.41551 0.61777 0.0
C8099 C 0.30974 0.4225 0.61602 0.0
C8100 C 0.30725 0.40633 0.61926 0.0
C8101 C 0.28748 0.41026 0.62003 0.0
C8102 C 0.30597 0.40204 0.62749 0.0
C8103 C 0.30997 0.39374 0.62921 0.0
C8104 C 0.31544 0.38958 0.62277 0.0
C8105 C 0.31653 0.39376 0.61443 0.0
C8106 C 0.31251 0.40208 0.61271 0.0
H8107 H 0.28073 0.41239 0.61767 0.0
H8108 H 0.28935 0.40395 0.61655 0.0
H8109 H 0.28698 0.40884 0.62728 0.0
H8110 H 0.30209 0.40523 0.63272 0.0
H8111 H 0.30892 0.39067 0.63568 0.0
H8112 H 0.76315 0.03887 0.86411 0.0
H8113 H 0.77554 0.04758 0.85781 0.0
H8114 H 0.77938 0.06078 0.88315 0.0
H8115 H 0.76745 0.05173 0.88965 0.0
H8116 H 0.77689 0.0653 0.8557 0.0
H8117 H 0.80469 0.0542 0.87751 0.0
H8118 H 0.79399 0.04853 0.87728 0.0
H8119 H 0.79545 0.0586 0.8838 0.0
C8120 C 0.76678 0.04345 0.86843 0.0
C8121 C 0.76426 0.04454 0.87742 0.0
C8122 C 0.77381 0.0485 0.86478 0.0
C8123 C 0.77851 0.05475 0.87003 0.0
C8124 C 0.77604 0.05585 0.879 0.0
H8125 H 0.81806 0.09611 0.86304 0.0
H8126 H 0.80663 0.08557 0.86804 0.0
C8127 C 0.76908 0.05074 0.88268 0.0
C8128 C 0.78567 0.06045 0.86603 0.0
H8129 H 0.80734 0.06744 0.86891 0.0
C8130 C 0.78358 0.06569 0.85852 0.0
C8131 C 0.79442 0.06098 0.86971 0.0
C8132 C 0.7973 0.0552 0.87746 0.0
C8133 C 0.78986 0.07167 0.8548 0.0
C8134 C 0.79853 0.07232 0.85861 0.0
C8135 C 0.80068 0.06696 0.86601 0.0
C8136 C 0.80537 0.07881 0.85532 0.0
C8137 C 0.78704 0.07746 0.84704 0.0
C8138 C 0.80854 0.0785 0.84649 0.0
C8139 C 0.81501 0.08465 0.84353 0.0
C8140 C 0.8185 0.09119 0.84938 0.0
C8141 C 0.8154 0.09134 0.85826 0.0
C8142 C 0.80891 0.08524 0.86118 0.0
H8143 H 0.77962 0.07776 0.84636 0.0
H8144 H 0.78966 0.0844 0.84779 0.0
H8145 H 0.7898 0.0746 0.84078 0.0
H8146 H 0.80606 0.07346 0.84189 0.0
H8147 H 0.81721 0.08435 0.83665 0.0
H8148 H 0.79156 0.0479 0.40304 0.0
H8149 H 0.79509 0.06385 0.40181 0.0
H8150 H 0.79269 0.06222 0.3732 0.0
H8151 H 0.78946 0.04617 0.37429 0.0
H8152 H 0.81005 0.07081 0.39199 0.0
H8153 H 0.77767 0.08472 0.37999 0.0
H8154 H 0.77851 0.0739 0.38537 0.0
H8155 H 0.78179 0.07517 0.37391 0.0
C8156 C 0.79179 0.05089 0.39646 0.0
C8157 C 0.79028 0.04565 0.38876 0.0
C8158 C 0.79374 0.06005 0.39579 0.0
C8159 C 0.79408 0.06425 0.38743 0.0
C8160 C 0.79231 0.05915 0.37974 0.0
H8161 H 0.80956 0.11576 0.36651 0.0
H8162 H 0.80306 0.10106 0.36951 0.0
C8163 C 0.79043 0.04995 0.38039 0.0
C8164 C 0.79696 0.07377 0.38672 0.0
H8165 H 0.79023 0.09453 0.37975 0.0
C8166 C 0.8057 0.07603 0.38939 0.0
C8167 C 0.79129 0.08053 0.38327 0.0
C8168 C 0.78176 0.07852 0.38053 0.0
C8169 C 0.80904 0.0848 0.38845 0.0
C8170 C 0.80338 0.09161 0.38501 0.0
C8171 C 0.79457 0.08935 0.38244 0.0
C8172 C 0.80664 0.10095 0.38351 0.0
C8173 C 0.81874 0.08657 0.39081 0.0
C8174 C 0.81054 0.10599 0.39044 0.0
C8175 C 0.81449 0.11435 0.3887 0.0
C8176 C 0.81448 0.11791 0.38 0.0
C8177 C 0.80996 0.11313 0.37323 0.0
C8178 C 0.80615 0.10473 0.37496 0.0
H8179 H 0.82272 0.08027 0.39097 0.0
H8180 H 0.82191 0.09122 0.38595 0.0
H8181 H 0.8191 0.08965 0.39754 0.0
H8182 H 0.81074 0.10336 0.39717 0.0
H8183 H 0.81788 0.11782 0.39409 0.0
H8184 H 0.23511 0.55018 0.61876 0.0
H8185 H 0.22355 0.55979 0.62524 0.0
H8186 H 0.23195 0.55204 0.65166 0.0
H8187 H 0.24386 0.5428 0.64527 0.0
H8188 H 0.20931 0.55625 0.63593 0.0
H8189 H 0.23296 0.57902 0.65357 0.0
H8190 H 0.23665 0.57098 0.64535 0.0
H8191 H 0.23411 0.56741 0.65653 0.0
C8192 C 0.23458 0.55057 0.62596 0.0
C8193 C 0.24053 0.54576 0.63147 0.0
C8194 C 0.22791 0.55603 0.62965 0.0
C8195 C 0.22699 0.5568 0.63895 0.0
C8196 C 0.23266 0.55174 0.64448 0.0
H8197 H 0.1908 0.59183 0.6699 0.0
H8198 H 0.20109 0.57954 0.66585 0.0
C8199 C 0.2394 0.54633 0.64079 0.0
C8200 C 0.22013 0.56294 0.64279 0.0
H8201 H 0.2175 0.58153 0.65595 0.0
C8202 C 0.21111 0.56175 0.64034 0.0
C8203 C 0.22246 0.57013 0.64855 0.0
C8204 C 0.23208 0.57204 0.6511 0.0
C8205 C 0.20438 0.56757 0.64343 0.0
C8206 C 0.20673 0.57483 0.64906 0.0
C8207 C 0.2157 0.57591 0.65169 0.0
C8208 C 0.20012 0.58183 0.65162 0.0
C8209 C 0.19479 0.56592 0.64062 0.0
C8210 C 0.19619 0.58715 0.64498 0.0
C8211 C 0.19037 0.5941 0.64726 0.0
C8212 C 0.18838 0.59594 0.65626 0.0
C8213 C 0.19216 0.5905 0.66293 0.0
C8214 C 0.19806 0.58354 0.66062 0.0
H8215 H 0.19371 0.55884 0.63856 0.0
H8216 H 0.19005 0.56756 0.64611 0.0
H8217 H 0.19318 0.57028 0.63484 0.0
H8218 H 0.19779 0.58606 0.63801 0.0
H8219 H 0.18751 0.59814 0.64197 0.0
H8220 H 0.2657 0.46847 0.14828 0.0
H8221 H 0.27668 0.45744 0.15341 0.0
H8222 H 0.27771 0.44594 0.12702 0.0
H8223 H 0.26687 0.4571 0.12176 0.0
H8224 H 0.27567 0.43832 0.15301 0.0
H8225 H 0.30426 0.45127 0.13295 0.0
H8226 H 0.2942 0.45774 0.13487 0.0
H8227 H 0.2942 0.44884 0.12677 0.0
C8228 C 0.26832 0.46365 0.14353 0.0
C8229 C 0.26545 0.46374 0.13458 0.0
C8230 C 0.27455 0.45731 0.1465 0.0
C8231 C 0.2781 0.45095 0.14058 0.0
C8232 C 0.27515 0.45088 0.13168 0.0
H8233 H 0.31815 0.40916 0.14509 0.0
H8234 H 0.30666 0.41973 0.14027 0.0
C8235 C 0.26889 0.45721 0.1287 0.0
C8236 C 0.28489 0.44439 0.14375 0.0
H8237 H 0.30671 0.43789 0.14103 0.0
C8238 C 0.28246 0.43823 0.15042 0.0
C8239 C 0.29375 0.44428 0.14034 0.0
C8240 C 0.29682 0.45092 0.13339 0.0
C8241 C 0.28861 0.43186 0.15366 0.0
C8242 C 0.29749 0.4318 0.15029 0.0
C8243 C 0.29991 0.43796 0.14362 0.0
C8244 C 0.30434 0.42526 0.15342 0.0
C8245 C 0.28546 0.4251 0.16046 0.0
C8246 C 0.30695 0.4249 0.16243 0.0
C8247 C 0.31349 0.41877 0.16524 0.0
C8248 C 0.31758 0.41292 0.15909 0.0
C8249 C 0.31503 0.41342 0.15006 0.0
C8250 C 0.30849 0.41952 0.14726 0.0
H8251 H 0.27802 0.42451 0.16055 0.0
H8252 H 0.28836 0.41837 0.15911 0.0
H8253 H 0.28766 0.42728 0.1672 0.0
H8254 H 0.30398 0.4294 0.16727 0.0
H8255 H 0.31527 0.41854 0.17225 0.0
H8256 H 0.63527 0.80561 0.51433 0.0
H8257 H 0.6289 0.81474 0.52626 0.0
H8258 H 0.60604 0.79705 0.52773 0.0
H8259 H 0.61217 0.788 0.5155 0.0
H8260 H 0.61055 0.82298 0.5251 0.0
H8261 H 0.61572 0.80053 0.55437 0.0
H8262 H 0.62262 0.79981 0.54447 0.0
H8263 H 0.61131 0.79571 0.54423 0.0
C8264 C 0.62886 0.80364 0.51712 0.0
C8265 C 0.6242 0.79608 0.51382 0.0
C8266 C 0.62526 0.80885 0.524 0.0
C8267 C 0.61701 0.80656 0.52788 0.0
C8268 C 0.61246 0.79888 0.52487 0.0
H8269 H 0.58665 0.83876 0.56727 0.0
H8270 H 0.59061 0.82673 0.55669 0.0
C8271 C 0.61601 0.79369 0.5179 0.0
C8272 C 0.61301 0.81255 0.53472 0.0
H8273 H 0.6089 0.81453 0.55709 0.0
C8274 C 0.6101 0.8211 0.53208 0.0
C8275 C 0.61245 0.81008 0.54381 0.0
C8276 C 0.61572 0.80105 0.54697 0.0
C8277 C 0.60676 0.82729 0.53832 0.0
C8278 C 0.6064 0.8249 0.54743 0.0
C8279 C 0.60911 0.81629 0.55007 0.0
C8280 C 0.60408 0.83163 0.55434 0.0
C8281 C 0.60378 0.83642 0.53517 0.0
C8282 C 0.61041 0.83818 0.55664 0.0
C8283 C 0.60823 0.84494 0.5627 0.0
C8284 C 0.5996 0.84539 0.56654 0.0
C8285 C 0.59334 0.83861 0.56445 0.0
C8286 C 0.59557 0.83177 0.55839 0.0
H8287 H 0.60307 0.83672 0.5278 0.0
H8288 H 0.59727 0.83825 0.53829 0.0
H8289 H 0.60882 0.84151 0.53725 0.0
H8290 H 0.61703 0.83813 0.55365 0.0
H8291 H 0.61332 0.84988 0.56432 0.0
H8292 H 0.46483 0.35072 0.79723 0.0
H8293 H 0.461 0.3526 0.81297 0.0
H8294 H 0.46163 0.38135 0.80982 0.0
H8295 H 0.46492 0.37957 0.79397 0.0
H8296 H 0.46914 0.36075 0.82708 0.0
H8297 H 0.43679 0.37767 0.8198 0.0
H8298 H 0.44332 0.37216 0.81126 0.0
H8299 H 0.44634 0.38323 0.81503 0.0
C8300 C 0.46409 0.35746 0.79984 0.0
C8301 C 0.46506 0.36499 0.79424 0.0
C8302 C 0.46197 0.35851 0.80888 0.0
C8303 C 0.46082 0.36711 0.81254 0.0
C8304 C 0.46226 0.37464 0.8071 0.0
H8305 H 0.44421 0.38601 0.865 0.0
H8306 H 0.45054 0.38469 0.85003 0.0
C8307 C 0.46428 0.3736 0.79804 0.0
C8308 C 0.45785 0.36816 0.82197 0.0
H8309 H 0.44117 0.37699 0.83495 0.0
C8310 C 0.46302 0.36429 0.8288 0.0
C8311 C 0.44984 0.37275 0.82422 0.0
C8312 C 0.4437 0.37662 0.8172 0.0
C8313 C 0.46044 0.36498 0.83781 0.0
C8314 C 0.45245 0.36959 0.84002 0.0
C8315 C 0.44732 0.37351 0.83322 0.0
C8316 C 0.44914 0.37026 0.84934 0.0
C8317 C 0.46632 0.36089 0.8449 0.0
C8318 C 0.44623 0.36257 0.85391 0.0
C8319 C 0.44243 0.3633 0.86242 0.0
C8320 C 0.44149 0.37175 0.86656 0.0
C8321 C 0.44464 0.37941 0.862 0.0
C8322 C 0.44834 0.37867 0.85346 0.0
H8323 H 0.47314 0.35933 0.84234 0.0
H8324 H 0.46694 0.36547 0.85072 0.0
H8325 H 0.46322 0.35454 0.84726 0.0
H8326 H 0.44664 0.35603 0.85078 0.0
H8327 H 0.43995 0.35727 0.8656 0.0
H8328 H 0.8745 0.20218 0.01291 0.0
H8329 H 0.88013 0.1912 0.0237 0.0
H8330 H 0.89966 0.21043 0.03302 0.0
H8331 H 0.89411 0.2214 0.0223 0.0
H8332 H 0.89666 0.18364 0.02583 0.0
H8333 H 0.88784 0.20308 0.05613 0.0
H8334 H 0.88367 0.20597 0.04521 0.0
H8335 H 0.8948 0.20928 0.04855 0.0
C8336 C 0.88002 0.20406 0.01723 0.0
C8337 C 0.88378 0.21273 0.01678 0.0
C8338 C 0.8832 0.19779 0.02342 0.0
C8339 C 0.8902 0.20004 0.02931 0.0
C8340 C 0.89409 0.20861 0.02874 0.0
H8341 H 0.92217 0.16898 0.06708 0.0
H8342 H 0.91695 0.1799 0.05598 0.0
C8343 C 0.8909 0.21489 0.02259 0.0
C8344 C 0.89353 0.19343 0.03596 0.0
H8345 H 0.89729 0.19038 0.05827 0.0
C8346 C 0.89676 0.18511 0.03292 0.0
C8347 C 0.89361 0.19531 0.04523 0.0
C8348 C 0.88971 0.20386 0.04899 0.0
C8349 C 0.90021 0.17871 0.0389 0.0
C8350 C 0.90047 0.18071 0.04811 0.0
C8351 C 0.8972 0.18896 0.05117 0.0
C8352 C 0.9037 0.17409 0.05472 0.0
C8353 C 0.90359 0.16986 0.03539 0.0
C8354 C 0.89793 0.16732 0.05772 0.0
C8355 C 0.90081 0.16119 0.06415 0.0
C8356 C 0.90959 0.16163 0.06766 0.0
C8357 C 0.91536 0.16847 0.06461 0.0
C8358 C 0.91242 0.17467 0.05822 0.0
H8359 H 0.90359 0.16959 0.02798 0.0
H8360 H 0.91052 0.16863 0.03784 0.0
H8361 H 0.89928 0.16435 0.03795 0.0
H8362 H 0.89114 0.16685 0.05516 0.0
H8363 H 0.89607 0.1562 0.06646 0.0
H8364 H 0.04134 0.65734 0.29785 0.0
H8365 H 0.04521 0.65546 0.31357 0.0
H8366 H 0.04556 0.62673 0.31011 0.0
H8367 H 0.04224 0.62854 0.29427 0.0
H8368 H 0.03732 0.64701 0.32754 0.0
H8369 H 0.07018 0.63107 0.32031 0.0
H8370 H 0.06354 0.63642 0.31178 0.0
H8371 H 0.06083 0.62524 0.31546 0.0
C8372 C 0.04232 0.65061 0.30039 0.0
C8373 C 0.0416 0.6431 0.29469 0.0
C8374 C 0.04446 0.64955 0.30942 0.0
C8375 C 0.04589 0.64097 0.31299 0.0
C8376 C 0.04472 0.63344 0.30746 0.0
H8377 H 0.06272 0.62221 0.36541 0.0
H8378 H 0.05651 0.62345 0.35038 0.0
C8379 C 0.04267 0.63449 0.29841 0.0
C8380 C 0.04884 0.63994 0.32243 0.0
H8381 H 0.06568 0.63151 0.33544 0.0
C8382 C 0.04353 0.64363 0.32926 0.0
C8383 C 0.05697 0.63557 0.32469 0.0
C8384 C 0.06326 0.63192 0.31768 0.0
C8385 C 0.04608 0.64296 0.33828 0.0
C8386 C 0.05417 0.63856 0.34051 0.0
C8387 C 0.05945 0.63483 0.33371 0.0
C8388 C 0.05744 0.63792 0.34985 0.0
C8389 C 0.04004 0.64685 0.34537 0.0
C8390 C 0.06005 0.64565 0.35453 0.0
C8391 C 0.06378 0.64497 0.36308 0.0
C8392 C 0.06495 0.63653 0.36715 0.0
C8393 C 0.06211 0.62881 0.36247 0.0
C8394 C 0.05847 0.6295 0.35389 0.0
H8395 H 0.03318 0.6482 0.34278 0.0
H8396 H 0.03953 0.64224 0.35117 0.0
H8397 H 0.04292 0.65329 0.34777 0.0
H8398 H 0.05947 0.65221 0.35146 0.0
H8399 H 0.06602 0.65106 0.36635 0.0
H8400 H 0.63578 0.20759 0.9857 0.0
H8401 H 0.6297 0.19789 0.97402 0.0
H8402 H 0.60294 0.20224 0.98408 0.0
H8403 H 0.60897 0.21178 0.99595 0.0
H8404 H 0.61972 0.18202 0.97698 0.0
H8405 H 0.60023 0.20667 0.95704 0.0
H8406 H 0.60883 0.21002 0.96486 0.0
H8407 H 0.59797 0.20661 0.96882 0.0
C8408 C 0.6286 0.2065 0.98546 0.0
C8409 C 0.62289 0.21048 0.99183 0.0
C8410 C 0.62513 0.20099 0.97873 0.0
C8411 C 0.61586 0.19941 0.97812 0.0
C8412 C 0.6101 0.2035 0.98431 0.0
H8413 H 0.58512 0.16357 0.94277 0.0
H8414 H 0.58931 0.1752 0.95373 0.0
C8415 C 0.61357 0.20898 0.9911 0.0
C8416 C 0.61233 0.19304 0.97133 0.0
H8417 H 0.59885 0.19138 0.95292 0.0
C8418 C 0.61517 0.18407 0.97171 0.0
C8419 C 0.6063 0.1957 0.96453 0.0
C8420 C 0.60319 0.20529 0.9637 0.0
C8421 C 0.61217 0.1777 0.96548 0.0
C8422 C 0.60633 0.1804 0.95852 0.0
C8423 C 0.60334 0.18933 0.95823 0.0
C8424 C 0.60361 0.17408 0.95132 0.0
C8425 C 0.6152 0.16809 0.96651 0.0
C8426 C 0.61019 0.16991 0.94608 0.0
C8427 C 0.60783 0.1633 0.93992 0.0
C8428 C 0.5988 0.16082 0.93874 0.0
C8429 C 0.59212 0.16539 0.94355 0.0
C8430 C 0.59452 0.17199 0.94982 0.0
H8431 H 0.61726 0.16662 0.97349 0.0
H8432 H 0.6098 0.16332 0.96458 0.0
H8433 H 0.62109 0.16689 0.96214 0.0
H8434 H 0.61722 0.1716 0.94693 0.0
H8435 H 0.61309 0.15995 0.93621 0.0
H8436 H 0.02916 0.36416 0.20744 0.0
H8437 H 0.03242 0.36548 0.19141 0.0
H8438 H 0.06064 0.36196 0.1968 0.0
H8439 H 0.05744 0.36051 0.21268 0.0
H8440 H 0.04263 0.37711 0.18179 0.0
H8441 H 0.0567 0.34297 0.17817 0.0
H8442 H 0.0506 0.34644 0.18799 0.0
H8443 H 0.06232 0.34918 0.18677 0.0
C8444 C 0.03605 0.36368 0.20519 0.0
C8445 C 0.04302 0.36208 0.21132 0.0
C8446 C 0.03791 0.36441 0.19603 0.0
C8447 C 0.04675 0.36357 0.19286 0.0
C8448 C 0.05373 0.36231 0.19902 0.0
H8449 H 0.07696 0.37525 0.14618 0.0
H8450 H 0.07018 0.37378 0.16095 0.0
C8451 C 0.05189 0.36151 0.20812 0.0
C8452 C 0.04881 0.36412 0.18315 0.0
H8453 H 0.06023 0.35341 0.16645 0.0
C8454 C 0.04636 0.37187 0.1784 0.0
C8455 C 0.05359 0.35723 0.17867 0.0
C8456 C 0.05587 0.34845 0.18314 0.0
C8457 C 0.04896 0.37308 0.16946 0.0
C8458 C 0.05416 0.36642 0.1652 0.0
C8459 C 0.05631 0.35854 0.1698 0.0
C8460 C 0.05789 0.36774 0.15615 0.0
C8461 C 0.04636 0.38156 0.16463 0.0
C8462 C 0.0532 0.36483 0.14856 0.0
C8463 C 0.05703 0.3657 0.14007 0.0
C8464 C 0.06564 0.36949 0.13903 0.0
C8465 C 0.07026 0.37244 0.14669 0.0
C8466 C 0.06643 0.37157 0.15515 0.0
H8467 H 0.04198 0.38595 0.16874 0.0
H8468 H 0.05251 0.38534 0.16277 0.0
H8469 H 0.04279 0.37983 0.15835 0.0
H8470 H 0.0466 0.36183 0.14923 0.0
H8471 H 0.05325 0.36345 0.13431 0.0
H8472 H 0.88214 0.81104 0.49877 0.0
H8473 H 0.88825 0.81997 0.48652 0.0
H8474 H 0.88823 0.79657 0.46956 0.0
H8475 H 0.88194 0.78758 0.48179 0.0
H8476 H 0.90456 0.81711 0.47709 0.0
H8477 H 0.87481 0.81579 0.4547 0.0
H8478 H 0.87418 0.81304 0.46642 0.0
H8479 H 0.87888 0.80515 0.45865 0.0
C8480 C 0.88333 0.8078 0.49241 0.0
C8481 C 0.88147 0.7986 0.49124 0.0
C8482 C 0.88688 0.81291 0.48543 0.0
C8483 C 0.8886 0.80897 0.4771 0.0
C8484 C 0.88683 0.79978 0.4759 0.0
H8485 H 0.90784 0.83295 0.42736 0.0
H8486 H 0.90297 0.82236 0.43889 0.0
C8487 C 0.88331 0.79463 0.48291 0.0
C8488 C 0.8924 0.8145 0.46977 0.0
H8489 H 0.88769 0.82317 0.4492 0.0
C8490 C 0.90089 0.81842 0.47098 0.0
C8491 C 0.8876 0.81619 0.46181 0.0
C8492 C 0.87833 0.81239 0.46029 0.0
C8493 C 0.90472 0.82396 0.46442 0.0
C8494 C 0.89986 0.82579 0.45651 0.0
C8495 C 0.89142 0.82176 0.45525 0.0
C8496 C 0.90326 0.8321 0.44961 0.0
C8497 C 0.91401 0.82772 0.46597 0.0
C8498 C 0.90503 0.8411 0.45179 0.0
C8499 C 0.9079 0.84713 0.44524 0.0
C8500 C 0.90897 0.84433 0.43633 0.0
C8501 C 0.90723 0.8353 0.43417 0.0
C8502 C 0.90437 0.82926 0.44074 0.0
H8503 H 0.91781 0.82363 0.47088 0.0
H8504 H 0.9179 0.82803 0.45966 0.0
H8505 H 0.91343 0.83462 0.4687 0.0
H8506 H 0.90405 0.8435 0.45855 0.0
H8507 H 0.90923 0.85402 0.44716 0.0
H8508 H 0.46283 0.65202 0.71052 0.0
H8509 H 0.45727 0.65162 0.6951 0.0
H8510 H 0.46734 0.62467 0.69212 0.0
H8511 H 0.47271 0.62491 0.70751 0.0
H8512 H 0.46709 0.64797 0.67847 0.0
H8513 H 0.44035 0.62292 0.68547 0.0
H8514 H 0.44573 0.62938 0.69417 0.0
H8515 H 0.45134 0.61986 0.68935 0.0
C8516 C 0.4638 0.64598 0.7066 0.0
C8517 C 0.4682 0.63848 0.71028 0.0
C8518 C 0.46069 0.6458 0.69777 0.0
C8519 C 0.46182 0.63809 0.6925 0.0
C8520 C 0.46631 0.63066 0.6961 0.0
H8521 H 0.44662 0.61883 0.64057 0.0
H8522 H 0.45334 0.62153 0.65518 0.0
C8523 C 0.46944 0.63084 0.70489 0.0
C8524 C 0.45817 0.63767 0.68328 0.0
H8525 H 0.4432 0.62622 0.67028 0.0
C8526 C 0.46182 0.64327 0.67667 0.0
C8527 C 0.4513 0.63154 0.68097 0.0
C8528 C 0.44687 0.62563 0.68786 0.0
C8529 C 0.45894 0.6427 0.66774 0.0
C8530 C 0.45216 0.63647 0.66541 0.0
C8531 C 0.44843 0.63097 0.67206 0.0
C8532 C 0.44891 0.63531 0.65611 0.0
C8533 C 0.46336 0.64854 0.6608 0.0
C8534 C 0.4443 0.64223 0.65169 0.0
C8535 C 0.44036 0.64068 0.64332 0.0
C8536 C 0.44092 0.63217 0.63927 0.0
C8537 C 0.44591 0.62541 0.64356 0.0
C8538 C 0.44979 0.62695 0.6519 0.0
H8539 H 0.4697 0.65158 0.6633 0.0
H8540 H 0.46484 0.64461 0.65467 0.0
H8541 H 0.45872 0.65406 0.65895 0.0
H8542 H 0.44342 0.6487 0.65486 0.0
H8543 H 0.4365 0.646 0.64025 0.0
H8544 H 0.50853 0.6264 0.80836 0.0
H8545 H 0.52037 0.61986 0.81755 0.0
H8546 H 0.53506 0.61253 0.79387 0.0
H8547 H 0.52323 0.61917 0.78455 0.0
H8548 H 0.52703 0.60053 0.81555 0.0
H8549 H 0.55304 0.62708 0.81108 0.0
H8550 H 0.54121 0.62939 0.80966 0.0
H8551 H 0.5471 0.62297 0.80142 0.0
C8552 C 0.51432 0.62351 0.80508 0.0
C8553 C 0.51495 0.62337 0.7957 0.0
C8554 C 0.52106 0.61972 0.81036 0.0
C8555 C 0.52861 0.61577 0.80639 0.0
C8556 C 0.52931 0.61561 0.79705 0.0
H8557 H 0.57648 0.59693 0.83499 0.0
H8558 H 0.56603 0.60063 0.82291 0.0
C8559 C 0.52252 0.61935 0.79174 0.0
C8560 C 0.53559 0.61164 0.81211 0.0
H8561 H 0.5565 0.61519 0.82075 0.0
C8562 C 0.53351 0.60368 0.81665 0.0
C8563 C 0.54405 0.61571 0.81342 0.0
C8564 C 0.54655 0.62428 0.80869 0.0
C8565 C 0.53964 0.59973 0.82258 0.0
C8566 C 0.54797 0.60404 0.82427 0.0
C8567 C 0.55013 0.61188 0.8195 0.0
C8568 C 0.55424 0.6009 0.83136 0.0
C8569 C 0.53712 0.59094 0.8269 0.0
C8570 C 0.55112 0.59971 0.84012 0.0
C8571 C 0.55702 0.59736 0.84695 0.0
C8572 C 0.56628 0.59645 0.8453 0.0
C8573 C 0.5694 0.59747 0.8365 0.0
C8574 C 0.56343 0.59969 0.8296 0.0
H8575 H 0.53253 0.58699 0.82255 0.0
H8576 H 0.54312 0.58679 0.82839 0.0
H8577 H 0.5335 0.5923 0.83323 0.0
H8578 H 0.54413 0.60083 0.84175 0.0
H8579 H 0.55432 0.59649 0.85361 0.0
H8580 H 0.64811 0.29337 0.05043 0.0
H8581 H 0.64776 0.30891 0.0558 0.0
H8582 H 0.629 0.31577 0.03501 0.0
H8583 H 0.6291 0.30024 0.02974 0.0
H8584 H 0.65173 0.32535 0.04573 0.0
H8585 H 0.61666 0.32422 0.05842 0.0
H8586 H 0.62305 0.31418 0.05617 0.0
H8587 H 0.61836 0.32053 0.04713 0.0
C8588 C 0.64384 0.29816 0.04705 0.0
C8589 C 0.6386 0.29551 0.03967 0.0
C8590 C 0.6437 0.30705 0.05009 0.0
C8591 C 0.63828 0.31347 0.04586 0.0
C8592 C 0.63315 0.31091 0.03844 0.0
H8593 H 0.62442 0.36865 0.0598 0.0
H8594 H 0.62538 0.35378 0.05284 0.0
C8595 C 0.63329 0.30203 0.03538 0.0
C8596 C 0.63796 0.32284 0.04925 0.0
H8597 H 0.62416 0.3381 0.05926 0.0
C8598 C 0.64572 0.32816 0.0487 0.0
C8599 C 0.63007 0.32651 0.053 0.0
C8600 C 0.62156 0.32107 0.05379 0.0
C8601 C 0.64577 0.33711 0.05171 0.0
C8602 C 0.63795 0.34073 0.05573 0.0
C8603 C 0.63017 0.33538 0.05621 0.0
C8604 C 0.63766 0.34997 0.0596 0.0
C8605 C 0.65415 0.34262 0.05027 0.0
C8606 C 0.6442 0.35284 0.06575 0.0
C8607 C 0.64378 0.36143 0.06953 0.0
C8608 C 0.63665 0.36721 0.06746 0.0
C8609 C 0.63001 0.36432 0.06146 0.0
C8610 C 0.63055 0.35581 0.05751 0.0
H8611 H 0.65808 0.34009 0.04448 0.0
H8612 H 0.65255 0.3498 0.04908 0.0
H8613 H 0.6585 0.34211 0.05625 0.0
H8614 H 0.64955 0.34839 0.06779 0.0
H8615 H 0.64888 0.36344 0.07428 0.0
H8616 H 0.97742 0.37669 0.2846 0.0
H8617 H 0.96703 0.38293 0.29557 0.0
H8618 H 0.98918 0.3887 0.31319 0.0
H8619 H 0.99969 0.38293 0.30207 0.0
H8620 H 0.96326 0.37819 0.31254 0.0
H8621 H 0.97702 0.41279 0.31223 0.0
H8622 H 0.98014 0.40449 0.30402 0.0
H8623 H 0.98525 0.40443 0.31491 0.0
C8624 C 0.98012 0.3794 0.29075 0.0
C8625 C 0.98944 0.3794 0.29236 0.0
C8626 C 0.97414 0.3829 0.29706 0.0
C8627 C 0.97733 0.38647 0.30513 0.0
C8628 C 0.98658 0.3862 0.30691 0.0
H8629 H 0.95326 0.40848 0.35269 0.0
H8630 H 0.96321 0.40332 0.34079 0.0
C8631 C 0.99258 0.38276 0.30058 0.0
C8632 C 0.97095 0.39041 0.31169 0.0
H8633 H 0.9663 0.40948 0.32352 0.0
C8634 C 0.96388 0.38505 0.31489 0.0
C8635 C 0.97175 0.39937 0.31475 0.0
C8636 C 0.97889 0.40564 0.31124 0.0
C8637 C 0.95775 0.38834 0.32123 0.0
C8638 C 0.95861 0.39727 0.32434 0.0
C8639 C 0.96564 0.40264 0.32111 0.0
C8640 C 0.95254 0.40103 0.33125 0.0
C8641 C 0.95057 0.38212 0.32474 0.0
C8642 C 0.94325 0.40175 0.32975 0.0
C8643 C 0.93753 0.40468 0.33657 0.0
C8644 C 0.94101 0.40695 0.34501 0.0
C8645 C 0.95036 0.40665 0.34631 0.0
C8646 C 0.95606 0.40373 0.33951 0.0
H8647 H 0.95208 0.37498 0.32324 0.0
H8648 H 0.94979 0.3829 0.33208 0.0
H8649 H 0.94406 0.38382 0.32156 0.0
H8650 H 0.94042 0.39988 0.32336 0.0
H8651 H 0.93036 0.4048 0.33537 0.0
H8652 H 0.86349 0.70655 0.52492 0.0
H8653 H 0.86346 0.69111 0.53044 0.0
H8654 H 0.8677 0.70078 0.55724 0.0
H8655 H 0.86786 0.71622 0.5518 0.0
H8656 H 0.87662 0.68172 0.53912 0.0
H8657 H 0.84648 0.68407 0.56058 0.0
H8658 H 0.84923 0.69248 0.55235 0.0
H8659 H 0.85462 0.69258 0.56311 0.0
C8660 C 0.86445 0.70542 0.53199 0.0
C8661 C 0.86564 0.71269 0.53791 0.0
C8662 C 0.86438 0.69657 0.53514 0.0
C8663 C 0.86542 0.69478 0.54427 0.0
C8664 C 0.86665 0.702 0.55019 0.0
H8665 H 0.87531 0.65103 0.57929 0.0
H8666 H 0.87265 0.66523 0.57161 0.0
C8667 C 0.86673 0.71084 0.54706 0.0
C8668 C 0.86554 0.68537 0.54761 0.0
H8669 H 0.85608 0.67144 0.5631 0.0
C8670 C 0.87204 0.67943 0.54427 0.0
C8671 C 0.85953 0.68235 0.55428 0.0
C8672 C 0.85201 0.68817 0.55773 0.0
C8673 C 0.87296 0.6707 0.54772 0.0
C8674 C 0.86718 0.66783 0.55465 0.0
C8675 C 0.86052 0.67367 0.5578 0.0
C8676 C 0.86843 0.65909 0.55922 0.0
C8677 C 0.88033 0.66472 0.54421 0.0
C8678 C 0.86676 0.6509 0.55485 0.0
C8679 C 0.86823 0.64272 0.55927 0.0
C8680 C 0.87147 0.64266 0.56808 0.0
C8681 C 0.87292 0.65088 0.57247 0.0
C8682 C 0.87138 0.659 0.5681 0.0
H8683 H 0.88499 0.66838 0.5397 0.0
H8684 H 0.88424 0.66184 0.54983 0.0
H8685 H 0.87731 0.65906 0.54044 0.0
H8686 H 0.86438 0.65083 0.54802 0.0
H8687 H 0.86708 0.63648 0.55573 0.0
H8688 H 0.52549 0.38874 0.72264 0.0
H8689 H 0.536 0.39456 0.71155 0.0
H8690 H 0.51992 0.3832 0.69047 0.0
H8691 H 0.5095 0.37703 0.70151 0.0
H8692 H 0.54541 0.38392 0.69698 0.0
H8693 H 0.52287 0.41108 0.68491 0.0
H8694 H 0.52151 0.40592 0.69573 0.0
H8695 H 0.51818 0.39998 0.68585 0.0
C8696 C 0.52422 0.38733 0.71567 0.0
C8697 C 0.5166 0.38239 0.71301 0.0
C8698 C 0.53022 0.39073 0.70933 0.0
C8699 C 0.52868 0.38938 0.70021 0.0
C8700 C 0.52115 0.38441 0.69749 0.0
H8701 H 0.55274 0.40723 0.65119 0.0
H8702 H 0.543 0.40239 0.66326 0.0
C8703 C 0.51518 0.38093 0.70382 0.0
C8704 C 0.53494 0.39319 0.69352 0.0
H8705 H 0.53665 0.40927 0.67741 0.0
C8706 C 0.54354 0.38948 0.6927 0.0
C8707 C 0.53243 0.40041 0.68795 0.0
C8708 C 0.52327 0.40465 0.68864 0.0
C8709 C 0.54964 0.39262 0.68626 0.0
C8710 C 0.54719 0.39994 0.68072 0.0
C8711 C 0.53858 0.40371 0.68166 0.0
C8712 C 0.55317 0.40343 0.67354 0.0
C8713 C 0.55848 0.38778 0.68523 0.0
C8714 C 0.56211 0.40596 0.67527 0.0
C8715 C 0.56784 0.40844 0.66827 0.0
C8716 C 0.56468 0.40868 0.65942 0.0
C8717 C 0.55553 0.40683 0.65785 0.0
C8718 C 0.5499 0.40415 0.66479 0.0
H8719 H 0.55817 0.38089 0.68804 0.0
H8720 H 0.56047 0.38729 0.67811 0.0
H8721 H 0.56376 0.39151 0.6889 0.0
H8722 H 0.56473 0.40582 0.682 0.0
H8723 H 0.57482 0.40984 0.66977 0.0
H8724 H 0.87733 0.29525 0.97167 0.0
H8725 H 0.87878 0.31139 0.96889 0.0
H8726 H 0.85456 0.31081 0.95314 0.0
H8727 H 0.85283 0.29485 0.95621 0.0
H8728 H 0.88114 0.31911 0.95279 0.0
H8729 H 0.85022 0.33288 0.96793 0.0
H8730 H 0.85414 0.32166 0.97023 0.0
H8731 H 0.8479 0.32398 0.9602 0.0
C8732 C 0.87218 0.2986 0.96782 0.0
C8733 C 0.86498 0.29371 0.96414 0.0
C8734 C 0.87305 0.30783 0.96618 0.0
C8735 C 0.86672 0.31236 0.9609 0.0
C8736 C 0.85943 0.30754 0.9574 0.0
H8737 H 0.86175 0.36321 0.93373 0.0
H8738 H 0.85944 0.34855 0.94081 0.0
C8739 C 0.85853 0.29835 0.95906 0.0
C8740 C 0.86813 0.32193 0.95837 0.0
H8741 H 0.85787 0.34242 0.95754 0.0
C8742 C 0.8761 0.32424 0.95393 0.0
C8743 C 0.86154 0.32861 0.95981 0.0
C8744 C 0.85301 0.32668 0.96488 0.0
C8745 C 0.87753 0.33294 0.9506 0.0
C8746 C 0.87087 0.33961 0.95191 0.0
C8747 C 0.86296 0.33733 0.9565 0.0
C8748 C 0.87187 0.34887 0.94831 0.0
C8749 C 0.886 0.33475 0.94537 0.0
C8750 C 0.87943 0.35411 0.95043 0.0
C8751 C 0.8808 0.36241 0.94631 0.0
C8752 C 0.87453 0.36575 0.94014 0.0
C8753 C 0.86667 0.3608 0.93847 0.0
C8754 C 0.86537 0.35242 0.9425 0.0
H8755 H 0.88906 0.32845 0.94283 0.0
H8756 H 0.88469 0.33924 0.93962 0.0
H8757 H 0.891 0.33803 0.9498 0.0
H8758 H 0.88438 0.35169 0.95514 0.0
H8759 H 0.88686 0.36615 0.94782 0.0
H8760 H 1.00013 0.62345 0.20278 0.0
H8761 H 0.98943 0.61805 0.19162 0.0
H8762 H 0.96779 0.62144 0.21042 0.0
H8763 H 0.97833 0.62727 0.22145 0.0
H8764 H 0.97862 0.60337 0.19226 0.0
H8765 H 0.95765 0.63388 0.18884 0.0
H8766 H 0.96838 0.63399 0.19444 0.0
H8767 H 0.95851 0.62998 0.20013 0.0
C8768 C 0.99308 0.62323 0.2045 0.0
C8769 C 0.99013 0.62583 0.21305 0.0
C8770 C 0.98697 0.62006 0.19812 0.0
C8771 C 0.97778 0.61944 0.20012 0.0
C8772 C 0.97481 0.62202 0.20864 0.0
H8773 H 0.93087 0.6015 0.16992 0.0
H8774 H 0.94121 0.60583 0.18193 0.0
C8775 C 0.98089 0.62524 0.215 0.0
C8776 C 0.97135 0.6158 0.19343 0.0
H8777 H 0.95212 0.62062 0.18198 0.0
C8778 C 0.97284 0.60715 0.18998 0.0
C8779 C 0.96379 0.62072 0.19049 0.0
C8780 C 0.96202 0.63019 0.19359 0.0
C8781 C 0.96693 0.60326 0.18378 0.0
C8782 C 0.95938 0.60819 0.18082 0.0
C8783 C 0.95786 0.61681 0.1843 0.0
C8784 C 0.95319 0.60472 0.17383 0.0
C8785 C 0.96876 0.59384 0.18056 0.0
C8786 C 0.95649 0.60256 0.16532 0.0
C8787 C 0.95062 0.59999 0.15851 0.0
C8788 C 0.9413 0.59965 0.16 0.0
C8789 C 0.93801 0.60158 0.16859 0.0
C8790 C 0.94391 0.60413 0.17543 0.0
H8791 H 0.97295 0.59006 0.1854 0.0
H8792 H 0.96243 0.59007 0.17943 0.0
H8793 H 0.9725 0.59415 0.17416 0.0
H8794 H 0.96359 0.60313 0.16386 0.0
H8795 H 0.95339 0.59847 0.152 0.0
H8796 H 0.64864 0.7124 0.456 0.0
H8797 H 0.64823 0.69682 0.45072 0.0
H8798 H 0.62862 0.69035 0.47087 0.0
H8799 H 0.62881 0.70591 0.47606 0.0
H8800 H 0.65152 0.68034 0.46121 0.0
H8801 H 0.6171 0.68193 0.44692 0.0
H8802 H 0.62364 0.69189 0.44925 0.0
H8803 H 0.61839 0.68585 0.4582 0.0
C8804 C 0.64418 0.70769 0.45927 0.0
C8805 C 0.63874 0.71045 0.46645 0.0
C8806 C 0.644 0.69877 0.45628 0.0
C8807 C 0.63833 0.69246 0.46035 0.0
C8808 C 0.63297 0.69514 0.46757 0.0
H8809 H 0.62383 0.63729 0.44709 0.0
H8810 H 0.62489 0.65231 0.45368 0.0
C8811 C 0.63316 0.70404 0.47058 0.0
C8812 C 0.63799 0.68306 0.45704 0.0
H8813 H 0.62429 0.66788 0.4467 0.0
C8814 C 0.64558 0.6776 0.45802 0.0
C8815 C 0.63019 0.67947 0.45299 0.0
C8816 C 0.62187 0.68508 0.4517 0.0
C8817 C 0.64556 0.66859 0.45517 0.0
C8818 C 0.63783 0.66504 0.45089 0.0
C8819 C 0.63022 0.67054 0.44995 0.0
C8820 C 0.63747 0.65571 0.44725 0.0
C8821 C 0.65374 0.66294 0.45706 0.0
C8822 C 0.64415 0.65256 0.4414 0.0
C8823 C 0.64366 0.64389 0.43781 0.0
C8824 C 0.63633 0.63829 0.43977 0.0
C8825 C 0.62957 0.64147 0.4455 0.0
C8826 C 0.63017 0.65006 0.44924 0.0
H8827 H 0.65752 0.66554 0.46292 0.0
H8828 H 0.65191 0.65584 0.45836 0.0
H8829 H 0.65832 0.66319 0.45122 0.0
H8830 H 0.64967 0.65685 0.43944 0.0
H8831 H 0.64886 0.64168 0.43326 0.0
H8832 H 0.78926 0.51496 0.60981 0.0
H8833 H 0.79847 0.52716 0.60378 0.0
H8834 H 0.81125 0.53047 0.62937 0.0
H8835 H 0.80191 0.51854 0.63556 0.0
H8836 H 0.801 0.54577 0.6098 0.0
H8837 H 0.83213 0.52537 0.6115 0.0
H8838 H 0.82106 0.52046 0.61211 0.0
H8839 H 0.82582 0.52592 0.62171 0.0
C8840 C 0.7939 0.51838 0.61423 0.0
C8841 C 0.79488 0.51565 0.62317 0.0
C8842 C 0.7992 0.52532 0.61073 0.0
C8843 C 0.80565 0.5296 0.61608 0.0
C8844 C 0.80643 0.52714 0.62508 0.0
H8845 H 0.84688 0.56957 0.61067 0.0
H8846 H 0.83623 0.5581 0.61537 0.0
C8847 C 0.8011 0.52027 0.62859 0.0
C8848 C 0.81176 0.53647 0.61225 0.0
H8849 H 0.83389 0.5408 0.60804 0.0
C8850 C 0.80818 0.54468 0.60934 0.0
C8851 C 0.82112 0.53501 0.61164 0.0
C8852 C 0.82529 0.52619 0.61433 0.0
C8853 C 0.81377 0.55157 0.60611 0.0
C8854 C 0.82315 0.55014 0.60563 0.0
C8855 C 0.8267 0.54188 0.60841 0.0
C8856 C 0.82948 0.55724 0.60263 0.0
C8857 C 0.80966 0.56044 0.60352 0.0
C8858 C 0.82927 0.56055 0.59385 0.0
C8859 C 0.83547 0.56706 0.59107 0.0
C8860 C 0.84201 0.57037 0.59701 0.0
C8861 C 0.8421 0.56706 0.60582 0.0
C8862 C 0.83596 0.56054 0.60856 0.0
H8863 H 0.80266 0.56109 0.606 0.0
H8864 H 0.8137 0.56611 0.60618 0.0
H8865 H 0.80954 0.561 0.59614 0.0
H8866 H 0.82441 0.55798 0.58912 0.0
H8867 H 0.83525 0.56935 0.58422 0.0
H8868 H 0.31256 0.99833 0.37904 0.0
H8869 H 0.3222 0.98656 0.38524 0.0
H8870 H 0.29872 0.97152 0.39309 0.0
H8871 H 0.28909 0.98314 0.38669 0.0
H8872 H 0.32345 0.98049 0.4022 0.0
H8873 H 0.31268 0.95242 0.38029 0.0
H8874 H 0.30984 0.96395 0.37795 0.0
H8875 H 0.30363 0.95771 0.38617 0.0
C8876 C 0.30947 0.99248 0.38205 0.0
C8877 C 0.30008 0.99159 0.38229 0.0
C8878 C 0.31498 0.98576 0.38558 0.0
C8879 C 0.31119 0.97805 0.38947 0.0
C8880 C 0.30181 0.97725 0.38987 0.0
H8881 H 0.33469 0.92988 0.41277 0.0
H8882 H 0.3244 0.9417 0.40807 0.0
C8883 C 0.29631 0.98391 0.38625 0.0
C8884 C 0.31706 0.97103 0.39337 0.0
H8885 H 0.32219 0.94872 0.39236 0.0
C8886 C 0.3232 0.97354 0.40004 0.0
C8887 C 0.31666 0.96195 0.39061 0.0
C8888 C 0.3104 0.95884 0.38331 0.0
C8889 C 0.32888 0.96723 0.40407 0.0
C8890 C 0.3286 0.95817 0.4012 0.0
C8891 C 0.3224 0.95564 0.39459 0.0
C8892 C 0.33485 0.95124 0.40473 0.0
C8893 C 0.33497 0.97035 0.41151 0.0
C8894 C 0.34416 0.95265 0.40449 0.0
C8895 C 0.35006 0.94603 0.40746 0.0
C8896 C 0.34682 0.93766 0.41045 0.0
C8897 C 0.33747 0.93626 0.41068 0.0
C8898 C 0.33156 0.94299 0.40789 0.0
H8899 H 0.33218 0.97635 0.41494 0.0
H8900 H 0.33604 0.965 0.41655 0.0
H8901 H 0.34157 0.9723 0.40867 0.0
H8902 H 0.34692 0.95883 0.40185 0.0
H8903 H 0.35718 0.94748 0.40732 0.0
H8904 H 0.29963 0.0298 0.64397 0.0
H8905 H 0.31583 0.033 0.64318 0.0
H8906 H 0.31007 0.06082 0.63774 0.0
H8907 H 0.29403 0.05772 0.63863 0.0
H8908 H 0.32694 0.03998 0.63018 0.0
H8909 H 0.32628 0.06292 0.65919 0.0
H8910 H 0.31699 0.05563 0.65648 0.0
H8911 H 0.31833 0.06623 0.65084 0.0
C8912 C 0.30185 0.03658 0.64255 0.0
C8913 C 0.29555 0.04353 0.64152 0.0
C8914 C 0.31109 0.0384 0.64213 0.0
C8915 C 0.31418 0.04721 0.64065 0.0
C8916 C 0.30788 0.05404 0.63919 0.0
H8917 H 0.36127 0.07781 0.63096 0.0
H8918 H 0.34641 0.07104 0.63242 0.0
C8919 C 0.29869 0.05225 0.63967 0.0
C8920 C 0.32394 0.04939 0.64068 0.0
H8921 H 0.33915 0.06407 0.64962 0.0
C8922 C 0.32965 0.04514 0.63453 0.0
C8923 C 0.32752 0.05606 0.64643 0.0
C8924 C 0.32198 0.0604 0.65367 0.0
C8925 C 0.3387 0.04774 0.63364 0.0
C8926 C 0.3421 0.05476 0.63905 0.0
C8927 C 0.3365 0.05875 0.64543 0.0
C8928 C 0.35125 0.0585 0.63782 0.0
C8929 C 0.3445 0.04326 0.62671 0.0
C8930 C 0.35892 0.0537 0.64043 0.0
C8931 C 0.36747 0.05757 0.63961 0.0
C8932 C 0.36848 0.06629 0.63614 0.0
C8933 C 0.36076 0.07103 0.63353 0.0
C8934 C 0.35225 0.0672 0.63439 0.0
H8935 H 0.34062 0.03857 0.62242 0.0
H8936 H 0.34776 0.04839 0.62242 0.0
H8937 H 0.34991 0.03942 0.63008 0.0
H8938 H 0.35827 0.04701 0.64319 0.0
H8939 H 0.37329 0.05372 0.64164 0.0
H8940 H 0.20826 0.01843 0.86996 0.0
H8941 H 0.19705 0.02921 0.87526 0.0
H8942 H 0.20661 0.02588 0.90221 0.0
H8943 H 0.21782 0.01514 0.89699 0.0
H8944 H 0.18334 0.02728 0.88717 0.0
H8945 H 0.20731 0.05285 0.89976 0.0
H8946 H 0.21076 0.04364 0.89272 0.0
H8947 H 0.20895 0.04191 0.90447 0.0
C8948 C 0.20795 0.01996 0.87702 0.0
C8949 C 0.21401 0.01597 0.88304 0.0
C8950 C 0.20157 0.02616 0.88003 0.0
C8951 C 0.20111 0.02852 0.88911 0.0
C8952 C 0.207 0.02439 0.89515 0.0
H8953 H 0.1654 0.06458 0.91895 0.0
H8954 H 0.17727 0.05388 0.91475 0.0
C8955 C 0.2134 0.01823 0.89214 0.0
C8956 C 0.19434 0.03513 0.89228 0.0
H8957 H 0.19195 0.05517 0.90319 0.0
C8958 C 0.18523 0.03339 0.89064 0.0
C8959 C 0.1968 0.04309 0.89686 0.0
C8960 C 0.20649 0.04555 0.89849 0.0
C8961 C 0.17851 0.03933 0.89352 0.0
C8962 C 0.18097 0.04733 0.89803 0.0
C8963 C 0.19007 0.04903 0.89976 0.0
C8964 C 0.1742 0.05417 0.90062 0.0
C8965 C 0.16882 0.0369 0.89182 0.0
C8966 C 0.1688 0.05813 0.89406 0.0
C8967 C 0.16208 0.06418 0.89644 0.0
C8968 C 0.16065 0.06649 0.90543 0.0
C8969 C 0.16636 0.06291 0.91198 0.0
C8970 C 0.1731 0.05678 0.90959 0.0
H8971 H 0.16796 0.02956 0.89079 0.0
H8972 H 0.16446 0.03904 0.89745 0.0
H8973 H 0.16649 0.04034 0.88568 0.0
H8974 H 0.16972 0.05646 0.88708 0.0
H8975 H 0.1579 0.06698 0.89122 0.0
H8976 H 0.70729 0.47061 0.62294 0.0
H8977 H 0.69169 0.46547 0.62304 0.0
H8978 H 0.69394 0.45899 0.65098 0.0
H8979 H 0.70954 0.46427 0.65098 0.0
H8980 H 0.68539 0.44792 0.62788 0.0
H8981 H 0.67087 0.47468 0.64935 0.0
H8982 H 0.68153 0.47592 0.64373 0.0
H8983 H 0.68071 0.46918 0.65363 0.0
C8984 C 0.70445 0.46819 0.62914 0.0
C8985 C 0.70967 0.4679 0.63697 0.0
C8986 C 0.69554 0.46521 0.62917 0.0
C8987 C 0.69162 0.46196 0.63704 0.0
C8988 C 0.6968 0.4616 0.64486 0.0
H8989 H 0.63891 0.4395 0.64901 0.0
H8990 H 0.65407 0.4458 0.64984 0.0
C8991 C 0.70574 0.46454 0.64483 0.0
C8992 C 0.6822 0.45866 0.63694 0.0
H8993 H 0.66121 0.46276 0.64523 0.0
C8994 C 0.6801 0.45117 0.63166 0.0
C8995 C 0.67531 0.46291 0.64189 0.0
C8996 C 0.67716 0.47116 0.64743 0.0
C8997 C 0.67132 0.44773 0.63127 0.0
C8998 C 0.6644 0.45202 0.63615 0.0
C8999 C 0.66651 0.45949 0.64148 0.0
C9000 C 0.65495 0.44884 0.63575 0.0
C9001 C 0.66956 0.43942 0.62577 0.0
C9002 C 0.65029 0.44872 0.62762 0.0
C9003 C 0.64159 0.44521 0.62713 0.0
C9004 C 0.63734 0.44173 0.63478 0.0
C9005 C 0.64191 0.44218 0.643 0.0
C9006 C 0.65061 0.44573 0.64348 0.0
H9007 H 0.67584 0.43564 0.62442 0.0
H9008 H 0.66474 0.43488 0.62919 0.0
H9009 H 0.66662 0.4414 0.61927 0.0
H9010 H 0.65341 0.45129 0.62161 0.0
H9011 H 0.63822 0.44518 0.62073 0.0
H9012 H 0.72082 0.47775 0.12941 0.0
H9013 H 0.70973 0.46721 0.12351 0.0
H9014 H 0.69366 0.48932 0.11415 0.0
H9015 H 0.70493 0.49991 0.11958 0.0
H9016 H 0.69222 0.46469 0.12727 0.0
H9017 H 0.69565 0.47453 0.09176 0.0
H9018 H 0.70345 0.47821 0.10023 0.0
H9019 H 0.69279 0.48375 0.09893 0.0
C9020 C 0.71499 0.4804 0.12598 0.0
C9021 C 0.71386 0.48972 0.12489 0.0
C9022 C 0.70862 0.47434 0.12267 0.0
C9023 C 0.70095 0.47745 0.1182 0.0
C9024 C 0.69963 0.48674 0.11736 0.0
H9025 H 0.6534 0.45264 0.09613 0.0
H9026 H 0.66536 0.46281 0.10097 0.0
C9027 C 0.70604 0.49281 0.12061 0.0
C9028 C 0.69432 0.47096 0.11449 0.0
H9029 H 0.68355 0.46473 0.0953 0.0
C9030 C 0.69038 0.46466 0.12027 0.0
C9031 C 0.69192 0.4709 0.10534 0.0
C9032 C 0.69623 0.47715 0.09869 0.0
C9033 C 0.68397 0.45846 0.11719 0.0
C9034 C 0.68152 0.45846 0.10806 0.0
C9035 C 0.68546 0.46473 0.10228 0.0
C9036 C 0.67462 0.45222 0.10448 0.0
C9037 C 0.67967 0.45211 0.12377 0.0
C9038 C 0.67599 0.44289 0.10456 0.0
C9039 C 0.66916 0.43705 0.10178 0.0
C9040 C 0.66086 0.44045 0.09889 0.0
C9041 C 0.65969 0.44981 0.09842 0.0
C9042 C 0.66652 0.45564 0.10117 0.0
H9043 H 0.68088 0.45421 0.13079 0.0
H9044 H 0.67231 0.45167 0.12263 0.0
H9045 H 0.68254 0.4453 0.12285 0.0
H9046 H 0.68226 0.44013 0.10695 0.0
H9047 H 0.67023 0.42988 0.10227 0.0
H9048 H 0.29923 0.97641 0.86749 0.0
H9049 H 0.31538 0.97321 0.86849 0.0
H9050 H 0.31033 0.94566 0.86117 0.0
H9051 H 0.29432 0.94878 0.86013 0.0
H9052 H 0.32479 0.96123 0.87895 0.0
H9053 H 0.32945 0.95267 0.84329 0.0
H9054 H 0.31951 0.95825 0.84738 0.0
H9055 H 0.32064 0.94625 0.84838 0.0
C9056 C 0.30158 0.96967 0.86611 0.0
C9057 C 0.29549 0.96289 0.8636 0.0
C9058 C 0.3108 0.96786 0.86665 0.0
C9059 C 0.3141 0.95924 0.86468 0.0
C9060 C 0.308 0.95242 0.86243 0.0
H9061 H 0.36094 0.92905 0.87612 0.0
H9062 H 0.34623 0.93611 0.87506 0.0
C9063 C 0.29882 0.95423 0.86185 0.0
C9064 C 0.32387 0.95723 0.86516 0.0
H9065 H 0.34112 0.94793 0.85327 0.0
C9066 C 0.32839 0.95844 0.8733 0.0
C9067 C 0.32862 0.95369 0.85775 0.0
C9068 C 0.32433 0.95272 0.84868 0.0
C9069 C 0.33738 0.95577 0.87434 0.0
C9070 C 0.34193 0.95178 0.86708 0.0
C9071 C 0.33757 0.95094 0.85884 0.0
C9072 C 0.35101 0.94787 0.86809 0.0
C9073 C 0.34197 0.95709 0.88321 0.0
C9074 C 0.35858 0.95216 0.86449 0.0
C9075 C 0.36708 0.94821 0.86521 0.0
C9076 C 0.36814 0.93984 0.86945 0.0
C9077 C 0.36048 0.93558 0.87299 0.0
C9078 C 0.35203 0.93957 0.87235 0.0
H9079 H 0.33796 0.96136 0.8878 0.0
H9080 H 0.34302 0.95045 0.88641 0.0
H9081 H 0.34867 0.96022 0.88222 0.0
H9082 H 0.3579 0.95856 0.86114 0.0
H9083 H 0.37282 0.95174 0.86249 0.0
H9084 H 0.21276 0.05221 0.37347 0.0
H9085 H 0.19712 0.05718 0.37359 0.0
H9086 H 0.18953 0.03403 0.35802 0.0
H9087 H 0.20515 0.02909 0.35771 0.0
H9088 H 0.18558 0.06096 0.35903 0.0
H9089 H 0.17259 0.03282 0.3797 0.0
H9090 H 0.18441 0.03536 0.37883 0.0
H9091 H 0.17877 0.02957 0.36992 0.0
C9092 C 0.2078 0.04823 0.36997 0.0
C9093 C 0.21024 0.04021 0.36563 0.0
C9094 C 0.19885 0.05104 0.37011 0.0
C9095 C 0.19215 0.04588 0.36596 0.0
C9096 C 0.19456 0.038 0.36145 0.0
H9097 H 0.13391 0.05356 0.36282 0.0
H9098 H 0.14918 0.04762 0.36116 0.0
C9099 C 0.20351 0.03519 0.36128 0.0
C9100 C 0.18266 0.04883 0.36627 0.0
H9101 H 0.16189 0.04309 0.37413 0.0
C9102 C 0.1804 0.05706 0.36233 0.0
C9103 C 0.1759 0.04368 0.37051 0.0
C9104 C 0.17801 0.0349 0.37505 0.0
C9105 C 0.17156 0.06028 0.36251 0.0
C9106 C 0.16484 0.05525 0.36694 0.0
C9107 C 0.16706 0.04694 0.37075 0.0
C9108 C 0.15558 0.05871 0.36802 0.0
C9109 C 0.16947 0.06902 0.35787 0.0
C9110 C 0.15411 0.06682 0.37255 0.0
C9111 C 0.14546 0.07026 0.37341 0.0
C9112 C 0.13803 0.0656 0.36989 0.0
C9113 C 0.13949 0.05737 0.3655 0.0
C9114 C 0.14819 0.05394 0.36461 0.0
H9115 H 0.17454 0.07059 0.35265 0.0
H9116 H 0.16273 0.06883 0.35472 0.0
H9117 H 0.16958 0.07455 0.36283 0.0
H9118 H 0.15969 0.07052 0.37539 0.0
H9119 H 0.14462 0.07666 0.37674 0.0
H9120 H 0.38444 0.20081 0.46263 0.0
H9121 H 0.38325 0.19838 0.44658 0.0
H9122 H 0.39509 0.22435 0.44175 0.0
H9123 H 0.39648 0.22678 0.45794 0.0
H9124 H 0.37395 0.20923 0.43387 0.0
H9125 H 0.41053 0.2068 0.42646 0.0
H9126 H 0.40618 0.20564 0.43765 0.0
H9127 H 0.40662 0.21649 0.4325 0.0
C9128 C 0.38686 0.20599 0.45817 0.0
C9129 C 0.39065 0.21395 0.46158 0.0
C9130 C 0.38614 0.20461 0.44899 0.0
C9131 C 0.38919 0.21112 0.44296 0.0
C9132 C 0.39282 0.21917 0.44629 0.0
H9133 H 0.38891 0.20198 0.38438 0.0
H9134 H 0.39148 0.2094 0.39887 0.0
C9135 C 0.39352 0.22059 0.45553 0.0
C9136 C 0.38838 0.20937 0.43323 0.0
H9137 H 0.40054 0.20373 0.41469 0.0
C9138 C 0.37976 0.20815 0.42965 0.0
C9139 C 0.39597 0.20805 0.4277 0.0
C9140 C 0.40537 0.20925 0.43123 0.0
C9141 C 0.37853 0.20533 0.4208 0.0
C9142 C 0.38612 0.20345 0.41543 0.0
C9143 C 0.39474 0.20512 0.41884 0.0
C9144 C 0.38517 0.1989 0.40664 0.0
C9145 C 0.36908 0.20426 0.41732 0.0
C9146 C 0.3811 0.19043 0.40625 0.0
C9147 C 0.37966 0.18621 0.39807 0.0
C9148 C 0.38229 0.19034 0.39005 0.0
C9149 C 0.38679 0.19865 0.39044 0.0
C9150 C 0.38822 0.2029 0.3987 0.0
H9151 H 0.36431 0.20861 0.42102 0.0
H9152 H 0.36868 0.2059 0.41011 0.0
H9153 H 0.3669 0.19719 0.41824 0.0
H9154 H 0.37893 0.18709 0.4123 0.0
H9155 H 0.3764 0.1797 0.39803 0.0
H9156 H 0.55702 0.63346 0.25142 0.0
H9157 H 0.56596 0.63966 0.23926 0.0
H9158 H 0.54545 0.63192 0.22042 0.0
H9159 H 0.53635 0.62583 0.23267 0.0
H9160 H 0.57304 0.63103 0.22542 0.0
H9161 H 0.55001 0.65732 0.21263 0.0
H9162 H 0.54813 0.65168 0.22311 0.0
H9163 H 0.54533 0.64622 0.21276 0.0
C9164 C 0.55439 0.63311 0.24469 0.0
C9165 C 0.54598 0.62913 0.24301 0.0
C9166 C 0.5595 0.63668 0.23774 0.0
C9167 C 0.55636 0.63638 0.22891 0.0
C9168 C 0.54794 0.63246 0.22719 0.0
H9169 H 0.58437 0.65218 0.1797 0.0
H9170 H 0.57288 0.64716 0.19039 0.0
C9171 C 0.54275 0.62894 0.23419 0.0
C9172 C 0.5622 0.63976 0.22157 0.0
H9173 H 0.56349 0.65502 0.20456 0.0
C9174 C 0.57093 0.63628 0.22088 0.0
C9175 C 0.55945 0.64655 0.21555 0.0
C9176 C 0.55025 0.65073 0.21607 0.0
C9177 C 0.577 0.63944 0.21444 0.0
C9178 C 0.57434 0.64641 0.20859 0.0
C9179 C 0.56553 0.64973 0.20909 0.0
C9180 C 0.58073 0.65044 0.2021 0.0
C9181 C 0.58618 0.63521 0.21392 0.0
C9182 C 0.58875 0.65434 0.20514 0.0
C9183 C 0.59529 0.65716 0.19909 0.0
C9184 C 0.59389 0.65627 0.18985 0.0
C9185 C 0.5856 0.65297 0.18678 0.0
C9186 C 0.57906 0.65007 0.19288 0.0
H9187 H 0.58622 0.62838 0.2169 0.0
H9188 H 0.58855 0.63472 0.20691 0.0
H9189 H 0.59103 0.63939 0.21772 0.0
H9190 H 0.59009 0.65493 0.21223 0.0
H9191 H 0.60158 0.65977 0.20163 0.0
H9192 H 0.12476 0.79883 0.96328 0.0
H9193 H 0.12515 0.80407 0.94783 0.0
H9194 H 0.1037 0.78582 0.9411 0.0
H9195 H 0.10302 0.78077 0.95662 0.0
H9196 H 0.12864 0.79445 0.93256 0.0
H9197 H 0.09452 0.80936 0.93093 0.0
H9198 H 0.09977 0.8063 0.94135 0.0
H9199 H 0.09475 0.79783 0.93439 0.0
C9200 C 0.12001 0.79603 0.95856 0.0
C9201 C 0.11381 0.78942 0.96123 0.0
C9202 C 0.1203 0.79899 0.94971 0.0
C9203 C 0.11438 0.79543 0.94332 0.0
C9204 C 0.10822 0.78879 0.94593 0.0
H9205 H 0.11076 0.80543 0.88572 0.0
H9206 H 0.10934 0.79874 0.90058 0.0
C9207 C 0.10792 0.78584 0.9548 0.0
C9208 C 0.11484 0.79855 0.93391 0.0
H9209 H 0.10278 0.80887 0.91744 0.0
C9210 C 0.12298 0.7976 0.92926 0.0
C9211 C 0.10745 0.80264 0.92959 0.0
C9212 C 0.09865 0.80418 0.93433 0.0
C9213 C 0.12392 0.80065 0.92045 0.0
C9214 C 0.11657 0.80482 0.91618 0.0
C9215 C 0.10839 0.80564 0.92074 0.0
C9216 C 0.11742 0.80881 0.90717 0.0
C9217 C 0.13276 0.79941 0.91571 0.0
C9218 C 0.12235 0.81674 0.90601 0.0
C9219 C 0.12304 0.82069 0.89759 0.0
C9220 C 0.11888 0.81674 0.89009 0.0
C9221 C 0.11396 0.80875 0.89131 0.0
C9222 C 0.11319 0.80486 0.89979 0.0
H9223 H 0.13727 0.79472 0.91933 0.0
H9224 H 0.13165 0.79682 0.90884 0.0
H9225 H 0.1362 0.806 0.91514 0.0
H9226 H 0.12557 0.81994 0.91167 0.0
H9227 H 0.1267 0.82695 0.89703 0.0
H9228 H 0.9607 0.35908 0.7431 0.0
H9229 H 0.95147 0.35281 0.73114 0.0
H9230 H 0.94484 0.37954 0.72233 0.0
H9231 H 0.95446 0.38586 0.7339 0.0
H9232 H 0.93387 0.35436 0.72841 0.0
H9233 H 0.95157 0.36832 0.69905 0.0
H9234 H 0.95633 0.36867 0.71012 0.0
H9235 H 0.94816 0.3769 0.70673 0.0
C9236 C 0.95748 0.36364 0.73848 0.0
C9237 C 0.95841 0.373 0.73947 0.0
C9238 C 0.95212 0.36003 0.73169 0.0
C9239 C 0.94756 0.36568 0.72572 0.0
C9240 C 0.94845 0.37502 0.7267 0.0
H9241 H 0.90723 0.36011 0.68499 0.0
H9242 H 0.91799 0.365 0.69629 0.0
C9243 C 0.95387 0.37863 0.73342 0.0
C9244 C 0.94156 0.36182 0.71875 0.0
H9245 H 0.93695 0.36224 0.6964 0.0
C9246 C 0.93461 0.356 0.7214 0.0
C9247 C 0.94251 0.36395 0.70958 0.0
C9248 C 0.9501 0.36973 0.70619 0.0
C9249 C 0.92846 0.35249 0.71519 0.0
C9250 C 0.92932 0.35479 0.70607 0.0
C9251 C 0.93631 0.3605 0.7034 0.0
C9252 C 0.9228 0.35165 0.69925 0.0
C9253 C 0.92091 0.34659 0.71846 0.0
C9254 C 0.922 0.3425 0.69709 0.0
C9255 C 0.91581 0.33966 0.69061 0.0
C9256 C 0.91032 0.34592 0.68622 0.0
C9257 C 0.91125 0.35509 0.68835 0.0
C9258 C 0.91744 0.35791 0.69477 0.0
H9259 H 0.92016 0.34688 0.72583 0.0
H9260 H 0.91445 0.34858 0.71533 0.0
H9261 H 0.9223 0.33953 0.71654 0.0
H9262 H 0.92617 0.33756 0.70038 0.0
H9263 H 0.91524 0.33256 0.68914 0.0
H9264 H 0.37933 0.78271 0.04497 0.0
H9265 H 0.378 0.78576 0.06104 0.0
H9266 H 0.40006 0.80443 0.05938 0.0
H9267 H 0.40152 0.80136 0.04346 0.0
H9268 H 0.3908 0.78514 0.07595 0.0
H9269 H 0.37857 0.81954 0.06864 0.0
H9270 H 0.37888 0.81077 0.06031 0.0
H9271 H 0.38897 0.81672 0.06324 0.0
C9272 C 0.384 0.78734 0.04806 0.0
C9273 C 0.39043 0.79191 0.04287 0.0
C9274 C 0.38321 0.78909 0.05724 0.0
C9275 C 0.38882 0.79546 0.06136 0.0
C9276 C 0.39555 0.79964 0.0563 0.0
H9277 H 0.39433 0.82068 0.11315 0.0
H9278 H 0.39704 0.81391 0.09845 0.0
C9279 C 0.39635 0.79789 0.04718 0.0
C9280 C 0.38738 0.79818 0.07079 0.0
H9281 H 0.38214 0.81635 0.08373 0.0
C9282 C 0.38885 0.79193 0.07766 0.0
C9283 C 0.38478 0.80704 0.07301 0.0
C9284 C 0.38262 0.8139 0.06592 0.0
C9285 C 0.38802 0.79443 0.08669 0.0
C9286 C 0.38566 0.80335 0.08887 0.0
C9287 C 0.38406 0.80954 0.08202 0.0
C9288 C 0.38459 0.80642 0.09822 0.0
C9289 C 0.38981 0.78761 0.09389 0.0
C9290 C 0.37676 0.80434 0.10297 0.0
C9291 C 0.37518 0.80822 0.11133 0.0
C9292 C 0.38142 0.81424 0.11509 0.0
C9293 C 0.38945 0.816 0.11047 0.0
C9294 C 0.39099 0.81217 0.10207 0.0
H9295 H 0.3924 0.78119 0.09115 0.0
H9296 H 0.39475 0.79033 0.09875 0.0
H9297 H 0.38349 0.78623 0.09759 0.0
H9298 H 0.37172 0.79998 0.10007 0.0
H9299 H 0.36896 0.8067 0.11475 0.0
H9300 H 0.95097 0.63002 0.75874 0.0
H9301 H 0.93986 0.63593 0.76924 0.0
H9302 H 0.96114 0.64655 0.78566 0.0
H9303 H 0.97224 0.64116 0.775 0.0
H9304 H 0.93687 0.63247 0.78659 0.0
H9305 H 0.94568 0.66839 0.7829 0.0
H9306 H 0.94985 0.65987 0.7754 0.0
H9307 H 0.95515 0.66169 0.78606 0.0
C9308 C 0.9533 0.63374 0.76451 0.0
C9309 C 0.96254 0.63514 0.76595 0.0
C9310 C 0.94693 0.63705 0.77055 0.0
C9311 C 0.94964 0.64185 0.77816 0.0
C9312 C 0.95885 0.64308 0.77973 0.0
H9313 H 0.92318 0.66266 0.82531 0.0
H9314 H 0.93386 0.65759 0.81399 0.0
C9315 C 0.96522 0.63984 0.77368 0.0
C9316 C 0.94288 0.64546 0.78453 0.0
H9317 H 0.93618 0.66465 0.79517 0.0
C9318 C 0.93668 0.63952 0.78841 0.0
C9319 C 0.94258 0.65468 0.78687 0.0
C9320 C 0.94861 0.66154 0.78252 0.0
C9321 C 0.93037 0.64249 0.79472 0.0
C9322 C 0.93024 0.65165 0.79721 0.0
C9323 C 0.93636 0.65762 0.79329 0.0
C9324 C 0.92378 0.65514 0.80389 0.0
C9325 C 0.92398 0.63581 0.79884 0.0
C9326 C 0.91462 0.65566 0.80186 0.0
C9327 C 0.9085 0.65872 0.80826 0.0
C9328 C 0.91142 0.66125 0.81685 0.0
C9329 C 0.92067 0.66089 0.81876 0.0
C9330 C 0.92679 0.65792 0.81232 0.0
H9331 H 0.92592 0.62877 0.79734 0.0
H9332 H 0.92372 0.63671 0.8062 0.0
H9333 H 0.91713 0.63697 0.79618 0.0
H9334 H 0.91219 0.65367 0.79534 0.0
H9335 H 0.90148 0.65908 0.80644 0.0
H9336 H 0.12816 0.2136 0.54567 0.0
H9337 H 0.12933 0.21021 0.56162 0.0
H9338 H 0.10061 0.20704 0.56312 0.0
H9339 H 0.09931 0.21066 0.5473 0.0
H9340 H 0.12053 0.21808 0.57748 0.0
H9341 H 0.1113 0.18246 0.57127 0.0
H9342 H 0.11489 0.18992 0.56247 0.0
H9343 H 0.10365 0.1906 0.56675 0.0
C9344 C 0.12206 0.21237 0.54941 0.0
C9345 C 0.11364 0.21229 0.54512 0.0
C9346 C 0.12276 0.21039 0.55853 0.0
C9347 C 0.11507 0.20822 0.5635 0.0
C9348 C 0.10664 0.20854 0.55936 0.0
H9349 H 0.10461 0.18622 0.61589 0.0
H9350 H 0.10358 0.19282 0.60102 0.0
C9351 C 0.10593 0.21057 0.55029 0.0
C9352 C 0.11586 0.2052 0.5729 0.0
H9353 H 0.11246 0.18701 0.58632 0.0
C9354 C 0.1188 0.21128 0.57943 0.0
C9355 C 0.11361 0.19633 0.57541 0.0
C9356 C 0.11075 0.1894 0.56861 0.0
C9357 C 0.11933 0.20878 0.58847 0.0
C9358 C 0.11703 0.19991 0.59098 0.0
C9359 C 0.11417 0.19382 0.58441 0.0
C9360 C 0.11757 0.1967 0.60036 0.0
C9361 C 0.12213 0.21572 0.59527 0.0
C9362 C 0.12577 0.19673 0.60498 0.0
C9363 C 0.12635 0.19305 0.61354 0.0
C9364 C 0.11877 0.18917 0.61764 0.0
C9365 C 0.11055 0.18927 0.61303 0.0
C9366 C 0.10996 0.19299 0.60449 0.0
H9367 H 0.12121 0.22265 0.5927 0.0
H9368 H 0.11824 0.21498 0.60154 0.0
H9369 H 0.12935 0.21482 0.59685 0.0
H9370 H 0.13177 0.19939 0.60187 0.0
H9371 H 0.13278 0.19317 0.61692 0.0
H9372 H 0.55449 0.36647 0.25541 0.0
H9373 H 0.56356 0.36078 0.2677 0.0
H9374 H 0.54833 0.3768 0.28628 0.0
H9375 H 0.53917 0.38258 0.27392 0.0
H9376 H 0.57417 0.37121 0.27869 0.0
H9377 H 0.54899 0.35231 0.29863 0.0
H9378 H 0.54687 0.35583 0.28729 0.0
H9379 H 0.54625 0.36381 0.29626 0.0
C9380 C 0.55303 0.36877 0.26211 0.0
C9381 C 0.54614 0.37504 0.26367 0.0
C9382 C 0.5582 0.36548 0.26914 0.0
C9383 C 0.55659 0.3683 0.27792 0.0
C9384 C 0.54958 0.37439 0.27957 0.0
H9385 H 0.58659 0.35596 0.3267 0.0
H9386 H 0.57503 0.36086 0.31607 0.0
C9387 C 0.54436 0.3777 0.27251 0.0
C9388 C 0.5627 0.36528 0.28515 0.0
H9389 H 0.56371 0.35315 0.30447 0.0
C9390 C 0.57188 0.36726 0.28433 0.0
C9391 C 0.55969 0.36024 0.29257 0.0
C9392 C 0.54993 0.35785 0.29375 0.0
C9393 C 0.57814 0.3643 0.29066 0.0
C9394 C 0.57519 0.35895 0.29791 0.0
C9395 C 0.56598 0.35716 0.29887 0.0
C9396 C 0.58162 0.35516 0.3045 0.0
C9397 C 0.58782 0.36711 0.28957 0.0
C9398 C 0.58895 0.34998 0.3016 0.0
C9399 C 0.59558 0.34732 0.30762 0.0
C9400 C 0.59487 0.34954 0.31669 0.0
C9401 C 0.58723 0.35413 0.31973 0.0
C9402 C 0.58066 0.35696 0.31366 0.0
H9403 H 0.58842 0.37335 0.28556 0.0
H9404 H 0.59109 0.36825 0.29613 0.0
H9405 H 0.59153 0.36175 0.28598 0.0
H9406 H 0.58968 0.34824 0.29462 0.0
H9407 H 0.6014 0.34373 0.30515 0.0
H9408 H 0.464 0.38749 0.20465 0.0
H9409 H 0.44853 0.387 0.19929 0.0
H9410 H 0.43918 0.39649 0.22483 0.0
H9411 H 0.45467 0.39739 0.23015 0.0
H9412 H 0.43484 0.37672 0.20614 0.0
H9413 H 0.42565 0.41283 0.20781 0.0
H9414 H 0.43714 0.40903 0.20847 0.0
H9415 H 0.42987 0.40813 0.21801 0.0
C9416 C 0.45869 0.38968 0.20908 0.0
C9417 C 0.46064 0.39252 0.21783 0.0
C9418 C 0.44983 0.38932 0.20602 0.0
C9419 C 0.44269 0.39181 0.21161 0.0
C9420 C 0.44458 0.39469 0.22033 0.0
H9421 H 0.38447 0.38985 0.20047 0.0
H9422 H 0.39902 0.39237 0.20791 0.0
C9423 C 0.45345 0.39509 0.2234 0.0
C9424 C 0.43328 0.3909 0.2084 0.0
H9425 H 0.41414 0.40267 0.20372 0.0
C9426 C 0.43032 0.3824 0.20562 0.0
C9427 C 0.42732 0.39829 0.20786 0.0
C9428 C 0.43015 0.40761 0.21063 0.0
C9429 C 0.42165 0.38109 0.2022 0.0
C9430 C 0.41581 0.38853 0.20132 0.0
C9431 C 0.41864 0.39699 0.20436 0.0
C9432 C 0.40698 0.38769 0.19675 0.0
C9433 C 0.41881 0.37171 0.19963 0.0
C9434 C 0.40665 0.38457 0.18792 0.0
C9435 C 0.39843 0.38311 0.18372 0.0
C9436 C 0.39032 0.38484 0.1882 0.0
C9437 C 0.39062 0.38845 0.19687 0.0
C9438 C 0.39891 0.38985 0.20112 0.0
H9439 H 0.42275 0.36656 0.20329 0.0
H9440 H 0.41157 0.37058 0.20098 0.0
H9441 H 0.42003 0.3707 0.19239 0.0
H9442 H 0.41278 0.38312 0.1843 0.0
H9443 H 0.39841 0.38051 0.17696 0.0
H9444 H 0.35809 0.74486 0.96056 0.0
H9445 H 0.35258 0.73392 0.94968 0.0
H9446 H 0.37905 0.72229 0.94802 0.0
H9447 H 0.3845 0.73304 0.95913 0.0
H9448 H 0.35636 0.73056 0.93306 0.0
H9449 H 0.36499 0.70018 0.95249 0.0
H9450 H 0.36574 0.7113 0.95719 0.0
H9451 H 0.37466 0.70699 0.95027 0.0
C9452 C 0.36274 0.73998 0.95787 0.0
C9453 C 0.37171 0.73977 0.96077 0.0
C9454 C 0.35958 0.7337 0.95166 0.0
C9455 C 0.36533 0.72711 0.94816 0.0
C9456 C 0.37438 0.72708 0.95083 0.0
H9457 H 0.36044 0.68679 0.90695 0.0
H9458 H 0.3654 0.69803 0.91779 0.0
C9459 C 0.37751 0.73327 0.95715 0.0
C9460 C 0.36186 0.72036 0.94166 0.0
H9461 H 0.36066 0.69783 0.93735 0.0
C9462 C 0.35724 0.72341 0.93405 0.0
C9463 C 0.36295 0.71099 0.94294 0.0
C9464 C 0.36727 0.70717 0.95121 0.0
C9465 C 0.35387 0.71737 0.92765 0.0
C9466 C 0.35515 0.70807 0.92887 0.0
C9467 C 0.35972 0.705 0.93645 0.0
C9468 C 0.35201 0.70139 0.92222 0.0
C9469 C 0.34912 0.72097 0.91952 0.0
C9470 C 0.34282 0.69952 0.92119 0.0
C9471 C 0.33995 0.69306 0.915 0.0
C9472 C 0.34623 0.68843 0.90972 0.0
C9473 C 0.35543 0.69033 0.91083 0.0
C9474 C 0.35828 0.69672 0.91704 0.0
H9475 H 0.34977 0.72838 0.91894 0.0
H9476 H 0.35185 0.71781 0.91338 0.0
H9477 H 0.34188 0.71925 0.91993 0.0
H9478 H 0.33789 0.70302 0.9252 0.0
H9479 H 0.33283 0.69177 0.91427 0.0
H9480 H 0.04307 0.62025 0.69886 0.0
H9481 H 0.05921 0.62136 0.69625 0.0
H9482 H 0.06422 0.61633 0.72413 0.0
H9483 H 0.04795 0.61511 0.7268 0.0
H9484 H 0.07184 0.6336 0.70529 0.0
H9485 H 0.07984 0.59738 0.71005 0.0
H9486 H 0.06858 0.60118 0.70766 0.0
H9487 H 0.07334 0.60301 0.7185 0.0
C9488 C 0.04759 0.61932 0.70444 0.0
C9489 C 0.04423 0.61751 0.71303 0.0
C9490 C 0.05682 0.62 0.70294 0.0
C9491 C 0.06291 0.61882 0.70997 0.0
C9492 C 0.05962 0.61715 0.7186 0.0
H9493 H 0.12173 0.61639 0.70307 0.0
H9494 H 0.10673 0.61579 0.70988 0.0
C9495 C 0.05034 0.61653 0.72013 0.0
C9496 C 0.07268 0.61947 0.70813 0.0
H9497 H 0.09159 0.6068 0.70536 0.0
C9498 C 0.07619 0.62776 0.70539 0.0
C9499 C 0.07836 0.61188 0.70837 0.0
C9500 C 0.07489 0.60282 0.71126 0.0
C9501 C 0.08517 0.62862 0.70267 0.0
C9502 C 0.09073 0.62092 0.70239 0.0
C9503 C 0.08732 0.61269 0.7055 0.0
C9504 C 0.09985 0.62116 0.69834 0.0
C9505 C 0.0886 0.63781 0.70014 0.0
C9506 C 0.10095 0.62415 0.68953 0.0
C9507 C 0.10946 0.62451 0.68566 0.0
C9508 C 0.1171 0.62178 0.69045 0.0
C9509 C 0.11598 0.61852 0.69919 0.0
C9510 C 0.10742 0.61821 0.7031 0.0
H9511 H 0.08477 0.64318 0.7036 0.0
H9512 H 0.09583 0.63859 0.70178 0.0
H9513 H 0.08772 0.6388 0.69285 0.0
H9514 H 0.09519 0.62616 0.6856 0.0
H9515 H 0.11003 0.62684 0.67883 0.0
H9516 H 0.14493 0.26785 0.47156 0.0
H9517 H 0.15006 0.27882 0.46054 0.0
H9518 H 0.12692 0.27306 0.44421 0.0
H9519 H 0.1216 0.26224 0.45531 0.0
H9520 H 0.1539 0.2761 0.442 0.0
H9521 H 0.12635 0.30063 0.44727 0.0
H9522 H 0.1288 0.29179 0.45514 0.0
H9523 H 0.12278 0.28932 0.44503 0.0
C9524 C 0.14087 0.26898 0.46567 0.0
C9525 C 0.1328 0.2642 0.46437 0.0
C9526 C 0.14385 0.2752 0.45935 0.0
C9527 C 0.13882 0.27684 0.45162 0.0
C9528 C 0.13084 0.272 0.4502 0.0
H9529 H 0.14151 0.31168 0.40632 0.0
H9530 H 0.13781 0.30125 0.41817 0.0
C9531 C 0.12786 0.26575 0.45651 0.0
C9532 C 0.14193 0.28358 0.44502 0.0
H9533 H 0.13618 0.3034 0.4352 0.0
C9534 C 0.15007 0.2821 0.44053 0.0
C9535 C 0.13692 0.29139 0.44313 0.0
C9536 C 0.12826 0.29345 0.44794 0.0
C9537 C 0.15317 0.28808 0.43395 0.0
C9538 C 0.14812 0.2959 0.43202 0.0
C9539 C 0.14007 0.29743 0.43667 0.0
C9540 C 0.15068 0.30229 0.42481 0.0
C9541 C 0.16162 0.28576 0.4289 0.0
C9542 C 0.15914 0.3065 0.42459 0.0
C9543 C 0.1614 0.31235 0.4176 0.0
C9544 C 0.15518 0.31418 0.41077 0.0
C9545 C 0.1466 0.31022 0.41127 0.0
C9546 C 0.14442 0.30431 0.41813 0.0
H9547 H 0.16327 0.27851 0.42947 0.0
H9548 H 0.16098 0.28747 0.42172 0.0
H9549 H 0.16732 0.28963 0.43172 0.0
H9550 H 0.164 0.30527 0.42982 0.0
H9551 H 0.16805 0.31529 0.41747 0.0
H9552 H 0.45711 0.62601 0.28427 0.0
H9553 H 0.44172 0.62623 0.28986 0.0
H9554 H 0.44551 0.60003 0.30146 0.0
H9555 H 0.46097 0.59978 0.29593 0.0
H9556 H 0.42751 0.61552 0.28663 0.0
H9557 H 0.43616 0.61373 0.32261 0.0
H9558 H 0.44449 0.61576 0.31411 0.0
H9559 H 0.44046 0.60455 0.31614 0.0
C9560 C 0.45468 0.62026 0.28797 0.0
C9561 C 0.46032 0.61288 0.28967 0.0
C9562 C 0.44587 0.62041 0.29119 0.0
C9563 C 0.44248 0.61322 0.29622 0.0
C9564 C 0.44803 0.60577 0.29781 0.0
H9565 H 0.39057 0.60673 0.32314 0.0
H9566 H 0.40506 0.60365 0.31598 0.0
C9567 C 0.45688 0.60563 0.29462 0.0
C9568 C 0.43312 0.61357 0.29973 0.0
H9569 H 0.42075 0.61309 0.31895 0.0
C9570 C 0.42604 0.61498 0.2937 0.0
C9571 C 0.43117 0.61283 0.30895 0.0
C9572 C 0.43847 0.61172 0.31584 0.0
C9573 C 0.4171 0.61569 0.29662 0.0
C9574 C 0.41517 0.61509 0.30585 0.0
C9575 C 0.42222 0.61351 0.31187 0.0
C9576 C 0.406 0.61659 0.30948 0.0
C9577 C 0.40978 0.61702 0.28979 0.0
C9578 C 0.40167 0.62484 0.30815 0.0
C9579 C 0.39339 0.62658 0.31217 0.0
C9580 C 0.38928 0.62015 0.31771 0.0
C9581 C 0.3935 0.61179 0.31884 0.0
C9582 C 0.40181 0.61005 0.31481 0.0
H9583 H 0.41189 0.61458 0.28309 0.0
H9584 H 0.40353 0.61347 0.29176 0.0
H9585 H 0.40828 0.62429 0.28922 0.0
H9586 H 0.40483 0.63006 0.30421 0.0
H9587 H 0.39029 0.63307 0.3111 0.0
H9588 H 0.1277 0.73219 0.03658 0.0
H9589 H 0.13385 0.71998 0.04576 0.0
H9590 H 0.13999 0.73898 0.06663 0.0
H9591 H 0.13379 0.75109 0.05762 0.0
H9592 H 0.15055 0.71699 0.05341 0.0
H9593 H 0.12483 0.72081 0.07981 0.0
H9594 H 0.1238 0.72611 0.06904 0.0
H9595 H 0.13066 0.73111 0.07761 0.0
C9596 C 0.13041 0.73374 0.04311 0.0
C9597 C 0.13012 0.74257 0.04644 0.0
C9598 C 0.13391 0.72677 0.04835 0.0
C9599 C 0.13718 0.72853 0.05698 0.0
C9600 C 0.13726 0.7374 0.06012 0.0
H9601 H 0.1597 0.70175 0.10212 0.0
H9602 H 0.15498 0.7121 0.09041 0.0
C9603 C 0.13372 0.74433 0.05494 0.0
C9604 C 0.14044 0.72115 0.06281 0.0
H9605 H 0.13772 0.71212 0.08357 0.0
C9606 C 0.14769 0.71585 0.05997 0.0
C9607 C 0.13666 0.71961 0.07135 0.0
C9608 C 0.1285 0.72465 0.0746 0.0
C9609 C 0.15152 0.70933 0.06561 0.0
C9610 C 0.14794 0.70805 0.07426 0.0
C9611 C 0.14052 0.71317 0.07697 0.0
C9612 C 0.15189 0.70169 0.08079 0.0
C9613 C 0.15955 0.7041 0.06239 0.0
C9614 C 0.15194 0.69239 0.07921 0.0
C9615 C 0.15467 0.68643 0.08593 0.0
C9616 C 0.1573 0.6897 0.09434 0.0
C9617 C 0.15763 0.69903 0.09573 0.0
C9618 C 0.15494 0.70495 0.08904 0.0
H9619 H 0.16267 0.70721 0.0564 0.0
H9620 H 0.1647 0.70359 0.06773 0.0
H9621 H 0.15741 0.69719 0.0606 0.0
H9622 H 0.14947 0.68971 0.07296 0.0
H9623 H 0.15425 0.67927 0.08471 0.0
H9624 H 0.05011 0.38799 0.77328 0.0
H9625 H 0.06552 0.38738 0.77885 0.0
H9626 H 0.05578 0.38948 0.80586 0.0
H9627 H 0.04033 0.38969 0.8004 0.0
H9628 H 0.07536 0.39945 0.78914 0.0
H9629 H 0.07132 0.36708 0.80693 0.0
H9630 H 0.0632 0.37111 0.79895 0.0
H9631 H 0.06329 0.37545 0.81016 0.0
C9632 C 0.05121 0.38822 0.78042 0.0
C9633 C 0.04391 0.38879 0.78638 0.0
C9634 C 0.06005 0.38795 0.78359 0.0
C9635 C 0.06181 0.38822 0.79278 0.0
C9636 C 0.05458 0.38907 0.79874 0.0
H9637 H 0.1081 0.38426 0.82715 0.0
H9638 H 0.09324 0.38549 0.82036 0.0
C9639 C 0.04574 0.38931 0.79559 0.0
C9640 C 0.07118 0.38756 0.79615 0.0
H9641 H 0.0848 0.37507 0.8096 0.0
C9642 C 0.07746 0.3941 0.79359 0.0
C9643 C 0.07391 0.38056 0.80191 0.0
C9644 C 0.06761 0.3731 0.80459 0.0
C9645 C 0.0863 0.39404 0.79691 0.0
C9646 C 0.08901 0.38709 0.80278 0.0
C9647 C 0.08275 0.38045 0.80516 0.0
C9648 C 0.09817 0.38668 0.8068 0.0
C9649 C 0.09251 0.40162 0.79431 0.0
C9650 C 0.10597 0.3869 0.80149 0.0
C9651 C 0.1145 0.38642 0.80541 0.0
C9652 C 0.11538 0.38541 0.81469 0.0
C9653 C 0.1076 0.38502 0.81998 0.0
C9654 C 0.09911 0.38571 0.81609 0.0
H9655 H 0.08871 0.40763 0.7921 0.0
H9656 H 0.09694 0.40358 0.79994 0.0
H9657 H 0.09677 0.39942 0.78864 0.0
H9658 H 0.10547 0.38732 0.7943 0.0
H9659 H 0.1204 0.38659 0.80119 0.0
H9660 H 0.36634 0.27535 0.53317 0.0
H9661 H 0.36096 0.28616 0.54416 0.0
H9662 H 0.37321 0.27074 0.56521 0.0
H9663 H 0.37908 0.26015 0.55421 0.0
H9664 H 0.34962 0.28406 0.55773 0.0
H9665 H 0.38248 0.29532 0.57109 0.0
H9666 H 0.38154 0.28861 0.56111 0.0
H9667 H 0.38083 0.28342 0.57193 0.0
C9668 C 0.36807 0.27433 0.54011 0.0
C9669 C 0.37325 0.26689 0.54275 0.0
C9670 C 0.3649 0.28049 0.54641 0.0
C9671 C 0.36679 0.27937 0.55551 0.0
C9672 C 0.37183 0.27189 0.55821 0.0
H9673 H 0.34857 0.30756 0.60299 0.0
H9674 H 0.35399 0.29647 0.59227 0.0
C9675 C 0.37508 0.26575 0.5519 0.0
C9676 C 0.36326 0.28592 0.56215 0.0
H9677 H 0.36949 0.30026 0.5789 0.0
C9678 C 0.35398 0.28762 0.56232 0.0
C9679 C 0.36895 0.2906 0.56816 0.0
C9680 C 0.37901 0.28947 0.56803 0.0
C9681 C 0.35025 0.29379 0.56836 0.0
C9682 C 0.35592 0.29839 0.57437 0.0
C9683 C 0.36517 0.29668 0.57427 0.0
C9684 C 0.35237 0.30507 0.58078 0.0
C9685 C 0.34024 0.29531 0.56839 0.0
C9686 C 0.34965 0.31359 0.57785 0.0
C9687 C 0.34671 0.32004 0.58398 0.0
C9688 C 0.34637 0.31808 0.59317 0.0
C9689 C 0.3489 0.30942 0.59601 0.0
C9690 C 0.35195 0.30303 0.58989 0.0
H9691 H 0.33663 0.29038 0.56413 0.0
H9692 H 0.33759 0.29485 0.57531 0.0
H9693 H 0.33878 0.30216 0.56588 0.0
H9694 H 0.35 0.3153 0.57084 0.0
H9695 H 0.34497 0.32665 0.58153 0.0
H9696 H 0.22562 0.45572 0.39197 0.0
H9697 H 0.22263 0.43951 0.39049 0.0
H9698 H 0.19417 0.44472 0.39051 0.0
H9699 H 0.19707 0.4608 0.39195 0.0
H9700 H 0.21012 0.42835 0.40292 0.0
H9701 H 0.20032 0.42934 0.36716 0.0
H9702 H 0.20748 0.43774 0.37222 0.0
H9703 H 0.19559 0.43794 0.37416 0.0
C9704 C 0.21874 0.45339 0.39161 0.0
C9705 C 0.21159 0.45954 0.39211 0.0
C9706 C 0.21704 0.44415 0.39081 0.0
C9707 C 0.20818 0.44095 0.39036 0.0
C9708 C 0.20106 0.44707 0.39082 0.0
H9709 H 0.17685 0.39374 0.38263 0.0
H9710 H 0.18353 0.40865 0.38383 0.0
C9711 C 0.20273 0.45625 0.39169 0.0
C9712 C 0.20623 0.43123 0.38941 0.0
H9713 H 0.1968 0.41607 0.37512 0.0
C9714 C 0.20732 0.42559 0.39682 0.0
C9715 C 0.20256 0.42771 0.38146 0.0
C9716 C 0.20146 0.43345 0.37325 0.0
C9717 C 0.20441 0.41659 0.39662 0.0
C9718 C 0.20049 0.41311 0.38871 0.0
C9719 C 0.19974 0.41871 0.38121 0.0
C9720 C 0.19655 0.40392 0.38819 0.0
C9721 C 0.20517 0.41108 0.40503 0.0
C9722 C 0.20162 0.39622 0.39021 0.0
C9723 C 0.19775 0.38765 0.38965 0.0
C9724 C 0.1888 0.38661 0.38685 0.0
C9725 C 0.18378 0.39431 0.38474 0.0
C9726 C 0.1876 0.40285 0.38542 0.0
H9727 H 0.20608 0.41537 0.41103 0.0
H9728 H 0.19912 0.40683 0.40601 0.0
H9729 H 0.21111 0.40662 0.4045 0.0
H9730 H 0.20861 0.39682 0.39211 0.0
H9731 H 0.20181 0.38183 0.3912 0.0
H9732 H 0.72522 0.04853 0.60928 0.0
H9733 H 0.72276 0.06483 0.61045 0.0
H9734 H 0.69775 0.06003 0.62413 0.0
H9735 H 0.70023 0.0439 0.62319 0.0
H9736 H 0.70809 0.07485 0.60367 0.0
H9737 H 0.71029 0.07816 0.64037 0.0
H9738 H 0.71455 0.0685 0.63444 0.0
H9739 H 0.70277 0.06937 0.63699 0.0
C9740 C 0.71928 0.05098 0.61266 0.0
C9741 C 0.71291 0.04492 0.61613 0.0
C9742 C 0.71786 0.06028 0.61328 0.0
C9743 C 0.71013 0.06364 0.61748 0.0
C9744 C 0.70383 0.0576 0.621 0.0
H9745 H 0.6789 0.11008 0.62668 0.0
H9746 H 0.68614 0.09547 0.62558 0.0
C9747 C 0.70523 0.04836 0.62037 0.0
C9748 C 0.70832 0.07344 0.61796 0.0
H9749 H 0.70266 0.09003 0.63265 0.0
C9750 C 0.70707 0.07824 0.60999 0.0
C9751 C 0.70703 0.07785 0.62622 0.0
C9752 C 0.70882 0.07323 0.63499 0.0
C9753 C 0.70401 0.08717 0.61008 0.0
C9754 C 0.70226 0.09142 0.61836 0.0
C9755 C 0.70392 0.08674 0.62631 0.0
C9756 C 0.69805 0.10044 0.61895 0.0
C9757 C 0.70224 0.09184 0.60133 0.0
C9758 C 0.70237 0.10813 0.61564 0.0
C9759 C 0.69826 0.11657 0.61632 0.0
C9760 C 0.68977 0.11746 0.62036 0.0
C9761 C 0.6855 0.10971 0.62366 0.0
C9762 C 0.68961 0.10132 0.623 0.0
H9763 H 0.7023 0.0871 0.59561 0.0
H9764 H 0.69566 0.09533 0.60148 0.0
H9765 H 0.70754 0.09696 0.60018 0.0
H9766 H 0.70896 0.10763 0.61264 0.0
H9767 H 0.7018 0.1224 0.61382 0.0
H9768 H 0.74879 0.9548 0.36417 0.0
H9769 H 0.73809 0.94354 0.35884 0.0
H9770 H 0.71627 0.9587 0.37019 0.0
H9771 H 0.72689 0.96992 0.37569 0.0
H9772 H 0.72561 0.93307 0.36849 0.0
H9773 H 0.70838 0.95524 0.34417 0.0
H9774 H 0.71908 0.95809 0.3491 0.0
H9775 H 0.70889 0.95953 0.35537 0.0
C9776 C 0.74173 0.95572 0.36563 0.0
C9777 C 0.73873 0.96335 0.37032 0.0
C9778 C 0.73561 0.94929 0.36252 0.0
C9779 C 0.72637 0.95037 0.36396 0.0
C9780 C 0.72335 0.95785 0.3688 0.0
H9781 H 0.67887 0.91917 0.3498 0.0
H9782 H 0.68943 0.93098 0.35439 0.0
C9783 C 0.72946 0.96427 0.37194 0.0
C9784 C 0.71989 0.9436 0.36051 0.0
H9785 H 0.70206 0.94084 0.34641 0.0
C9786 C 0.72049 0.93475 0.36363 0.0
C9787 C 0.71316 0.94582 0.35423 0.0
C9788 C 0.71235 0.95517 0.35045 0.0
C9789 C 0.71445 0.92809 0.36077 0.0
C9790 C 0.70778 0.93027 0.35437 0.0
C9791 C 0.70717 0.93915 0.35128 0.0
C9792 C 0.70135 0.92346 0.35087 0.0
C9793 C 0.71513 0.91885 0.36484 0.0
C9794 C 0.70451 0.91547 0.34699 0.0
C9795 C 0.6985 0.90873 0.34444 0.0
C9796 C 0.68921 0.9099 0.34553 0.0
C9797 C 0.68601 0.91812 0.34884 0.0
C9798 C 0.69204 0.92484 0.35151 0.0
H9799 H 0.71857 0.91905 0.37142 0.0
H9800 H 0.7084 0.91577 0.36574 0.0
H9801 H 0.71915 0.91447 0.36036 0.0
H9802 H 0.71163 0.91437 0.34611 0.0
H9803 H 0.70114 0.90249 0.34181 0.0
H9804 H 0.77798 0.95582 0.10499 0.0
H9805 H 0.78315 0.94023 0.10588 0.0
H9806 H 0.80448 0.94837 0.12359 0.0
H9807 H 0.79919 0.96384 0.12302 0.0
H9808 H 0.79956 0.93231 0.10164 0.0
H9809 H 0.79221 0.92849 0.13765 0.0
H9810 H 0.78792 0.93771 0.13112 0.0
H9811 H 0.79922 0.93801 0.13536 0.0
C9812 C 0.78373 0.95429 0.10914 0.0
C9813 C 0.78813 0.96112 0.11398 0.0
C9814 C 0.78671 0.94538 0.10959 0.0
C9815 C 0.7941 0.9431 0.11493 0.0
C9816 C 0.79865 0.94993 0.11957 0.0
H9817 H 0.82736 0.89913 0.12892 0.0
H9818 H 0.81975 0.91328 0.12608 0.0
C9819 C 0.79568 0.95881 0.11913 0.0
C9820 C 0.79709 0.93361 0.11574 0.0
H9821 H 0.80174 0.91737 0.13114 0.0
C9822 C 0.79993 0.92899 0.10807 0.0
C9823 C 0.79748 0.92924 0.12412 0.0
C9824 C 0.79396 0.93358 0.13252 0.0
C9825 C 0.80359 0.92029 0.10863 0.0
C9826 C 0.80436 0.91612 0.11706 0.0
C9827 C 0.80121 0.92061 0.12468 0.0
C9828 C 0.80902 0.9074 0.1183 0.0
C9829 C 0.80695 0.91578 0.10026 0.0
C9830 C 0.80554 0.89934 0.11482 0.0
C9831 C 0.80986 0.89114 0.11652 0.0
C9832 C 0.81769 0.89088 0.12178 0.0
C9833 C 0.82123 0.89903 0.12503 0.0
C9834 C 0.81692 0.90715 0.12336 0.0
H9835 H 0.80719 0.92046 0.0945 0.0
H9836 H 0.81377 0.91297 0.10135 0.0
H9837 H 0.80241 0.91013 0.09853 0.0
H9838 H 0.79938 0.89937 0.11097 0.0
H9839 H 0.80692 0.88501 0.11396 0.0
H9840 H 0.26538 0.53575 0.35951 0.0
H9841 H 0.2765 0.54673 0.35449 0.0
H9842 H 0.27699 0.55853 0.38076 0.0
H9843 H 0.26603 0.54742 0.38593 0.0
H9844 H 0.27557 0.56575 0.35456 0.0
H9845 H 0.30362 0.55325 0.37558 0.0
H9846 H 0.29357 0.54675 0.37358 0.0
H9847 H 0.29344 0.55583 0.38148 0.0
C9848 C 0.26791 0.54062 0.36426 0.0
C9849 C 0.26485 0.54064 0.37316 0.0
C9850 C 0.27422 0.54693 0.36135 0.0
C9851 C 0.27767 0.55337 0.36728 0.0
C9852 C 0.27453 0.55353 0.37611 0.0
H9853 H 0.31799 0.59504 0.36297 0.0
H9854 H 0.30637 0.58457 0.36773 0.0
C9855 C 0.26819 0.54723 0.37903 0.0
C9856 C 0.28454 0.55989 0.36417 0.0
H9857 H 0.30629 0.56648 0.36733 0.0
C9858 C 0.2823 0.56591 0.35733 0.0
C9859 C 0.29331 0.56008 0.3678 0.0
C9860 C 0.29619 0.55359 0.37497 0.0
C9861 C 0.28853 0.57223 0.35413 0.0
C9862 C 0.29732 0.57237 0.35771 0.0
C9863 C 0.29956 0.56635 0.36456 0.0
C9864 C 0.30427 0.57884 0.35462 0.0
C9865 C 0.28556 0.57885 0.34712 0.0
C9866 C 0.30705 0.57907 0.34566 0.0
C9867 C 0.31367 0.58516 0.34287 0.0
C9868 C 0.31766 0.59109 0.34901 0.0
C9869 C 0.31494 0.59071 0.35801 0.0
C9870 C 0.30833 0.58467 0.36077 0.0
H9871 H 0.27813 0.57946 0.34688 0.0
H9872 H 0.28847 0.5856 0.34838 0.0
H9873 H 0.28787 0.57652 0.34047 0.0
H9874 H 0.30416 0.5745 0.34082 0.0
H9875 H 0.31557 0.58529 0.3359 0.0
H9876 H 0.27455 0.55157 0.89336 0.0
H9877 H 0.27997 0.56704 0.89223 0.0
H9878 H 0.30617 0.55737 0.88473 0.0
H9879 H 0.30074 0.54192 0.88543 0.0
H9880 H 0.29368 0.5762 0.90083 0.0
H9881 H 0.30029 0.57444 0.8645 0.0
H9882 H 0.29384 0.56601 0.87031 0.0
H9883 H 0.30592 0.56579 0.87064 0.0
C9884 C 0.28145 0.55271 0.89138 0.0
C9885 C 0.28717 0.54545 0.8894 0.0
C9886 C 0.28455 0.56158 0.89082 0.0
C9887 C 0.29343 0.56338 0.88823 0.0
C9888 C 0.29924 0.55615 0.88655 0.0
H9889 H 0.32822 0.60775 0.87802 0.0
H9890 H 0.32081 0.59342 0.88078 0.0
C9891 C 0.29614 0.5473 0.88707 0.0
C9892 C 0.29662 0.57278 0.88718 0.0
H9893 H 0.3064 0.58702 0.8722 0.0
C9894 C 0.2964 0.57861 0.89456 0.0
C9895 C 0.30006 0.57596 0.87896 0.0
C9896 C 0.29997 0.57026 0.87063 0.0
C9897 C 0.29994 0.58736 0.89406 0.0
C9898 C 0.30369 0.59041 0.88592 0.0
C9899 C 0.30361 0.58467 0.87847 0.0
C9900 C 0.30821 0.59928 0.88501 0.0
C9901 C 0.29993 0.59314 0.90233 0.0
C9902 C 0.30366 0.6074 0.88658 0.0
C9903 C 0.30795 0.61566 0.88507 0.0
C9904 C 0.3168 0.6159 0.88181 0.0
C9905 C 0.32137 0.60777 0.88044 0.0
C9906 C 0.31714 0.59957 0.88202 0.0
H9907 H 0.29883 0.58911 0.90847 0.0
H9908 H 0.30636 0.59686 0.90301 0.0
H9909 H 0.29442 0.59812 0.90184 0.0
H9910 H 0.29671 0.60736 0.88871 0.0
H9911 H 0.30425 0.62183 0.8861 0.0
H9912 H 0.75087 0.05569 0.14065 0.0
H9913 H 0.73874 0.06498 0.14644 0.0
H9914 H 0.71957 0.04984 0.13094 0.0
H9915 H 0.73176 0.04046 0.12507 0.0
H9916 H 0.72761 0.0757 0.13647 0.0
H9917 H 0.70757 0.05065 0.15541 0.0
H9918 H 0.71887 0.04842 0.15165 0.0
H9919 H 0.70966 0.0479 0.14392 0.0
C9920 C 0.74408 0.0543 0.13847 0.0
C9921 C 0.74231 0.04735 0.13234 0.0
C9922 C 0.73714 0.0596 0.14183 0.0
C9923 C 0.72823 0.05808 0.1392 0.0
C9924 C 0.72637 0.05104 0.13321 0.0
H9925 H 0.67937 0.08815 0.15206 0.0
H9926 H 0.69005 0.07663 0.14706 0.0
C9927 C 0.73335 0.04568 0.12985 0.0
C9928 C 0.72106 0.06426 0.14235 0.0
H9929 H 0.70171 0.06537 0.15457 0.0
C9930 C 0.72195 0.07344 0.14044 0.0
C9931 C 0.71362 0.06129 0.14743 0.0
C9932 C 0.71237 0.05154 0.1498 0.0
C9933 C 0.71564 0.07973 0.14346 0.0
C9934 C 0.70834 0.07683 0.1488 0.0
C9935 C 0.70734 0.06762 0.15056 0.0
C9936 C 0.70174 0.08328 0.15261 0.0
C9937 C 0.71681 0.08941 0.1407 0.0
C9938 C 0.70467 0.09063 0.15772 0.0
C9939 C 0.69862 0.09724 0.16045 0.0
C9940 C 0.68946 0.09649 0.15836 0.0
C9941 C 0.6864 0.08883 0.1538 0.0
C9942 C 0.6925 0.08228 0.15092 0.0
H9943 H 0.72081 0.08999 0.13447 0.0
H9944 H 0.71023 0.09273 0.13962 0.0
H9945 H 0.72047 0.09308 0.14602 0.0
H9946 H 0.7117 0.0914 0.1594 0.0
H9947 H 0.70112 0.10307 0.164 0.0
H9948 H 0.77582 0.96631 0.62333 0.0
H9949 H 0.78669 0.95538 0.6289 0.0
H9950 H 0.76856 0.94827 0.65019 0.0
H9951 H 0.75767 0.95921 0.6447 0.0
H9952 H 0.79509 0.95469 0.64524 0.0
H9953 H 0.77483 0.92386 0.63981 0.0
H9954 H 0.77191 0.93452 0.63489 0.0
H9955 H 0.7693 0.93227 0.64639 0.0
C9956 C 0.77414 0.96244 0.62921 0.0
C9957 C 0.76584 0.96364 0.63354 0.0
C9958 C 0.78035 0.95616 0.63236 0.0
C9959 C 0.77839 0.95091 0.63989 0.0
C9960 C 0.77014 0.95209 0.64425 0.0
H9961 H 0.81671 0.91989 0.67164 0.0
H9962 H 0.80544 0.93077 0.66664 0.0
C9963 C 0.76391 0.95836 0.64109 0.0
C9964 C 0.78511 0.94439 0.64332 0.0
H9965 H 0.78843 0.92216 0.64789 0.0
C9966 C 0.79362 0.94758 0.64582 0.0
C9967 C 0.78323 0.9351 0.64401 0.0
C9968 C 0.77435 0.9312 0.64106 0.0
C9969 C 0.80027 0.94175 0.64907 0.0
C9970 C 0.79832 0.9325 0.6499 0.0
C9971 C 0.78985 0.92928 0.64734 0.0
C9972 C 0.80516 0.926 0.653 0.0
C9973 C 0.8094 0.94545 0.6514 0.0
C9974 C 0.80868 0.91971 0.647 0.0
C9975 C 0.81518 0.91359 0.64979 0.0
C9976 C 0.81821 0.9135 0.6587 0.0
C9977 C 0.81463 0.91982 0.66472 0.0
C9978 C 0.80816 0.92601 0.66189 0.0
H9979 H 0.81025 0.9525 0.64913 0.0
H9980 H 0.81031 0.94526 0.65875 0.0
H9981 H 0.81475 0.94127 0.64836 0.0
H9982 H 0.80648 0.91963 0.64011 0.0
H9983 H 0.81791 0.90898 0.6449 0.0
loop_
_geom_bond_atom_site_label_1
_geom_bond_atom_site_label_2
_geom_bond_distance
_geom_bond_site_symmetry_2
_ccdc_geom_bond_type
C0 C1 1.276 . S
C0 C5 1.479 1_455 S
C0 C10 1.465 . S
C1 C0 1.276 . S
C1 C3 1.252 1_455 S
C1 H28 1.016 . S
C2 C3 1.395 . S
C2 C4 1.320 . S
C3 C1 1.252 1_655 S
C3 C2 1.395 . S
C3 H29 0.929 . S
C4 C2 1.320 . S
C4 C5 1.405 . S
C4 H30 0.930 . S
C5 C0 1.479 1_655 S
C5 C4 1.405 . S
C5 H31 0.931 . S
U6 O7 2.454 . S
U6 O8 2.458 . S
U6 C9 2.984 . S
U6 C10 2.847 . S
U6 C23 2.882 . S
U6 O24 2.441 . S
U6 O25 2.420 . S
U6 O26 2.455 . S
U6 O27 2.449 . S
O7 U6 2.454 . S
O7 C9 1.353 . S
O8 U6 2.458 . S
O8 C9 1.286 . S
C9 U6 2.984 . S
C9 O7 1.353 . S
C9 O8 1.286 . S
C9 C11 1.363 . S
C10 C0 1.465 . S
C10 U6 2.847 . S
C10 O24 1.249 . S
C10 O25 1.202 . S
C11 C9 1.363 . S
C11 C13 1.408 . S
C11 C16 1.342 . S
C12 C13 1.310 . S
C12 C15 1.461 . S
C12 H32 0.932 . S
C13 C11 1.408 . S
C13 C12 1.310 . S
C13 H33 0.930 . S
C14 C15 1.474 . S
C14 C16 1.285 . S
C14 H34 0.929 . S
C15 C12 1.461 . S
C15 C14 1.474 . S
C16 C11 1.342 . S
C16 C14 1.285 . S
C16 H35 0.930 . S
C17 C20 1.424 . S
C17 C22 1.245 . S
C17 C23 1.428 . S
C18 C21 1.260 . S
C18 C22 1.477 . S
C18 H36 0.932 . S
C19 C20 1.384 . S
C19 C21 1.479 . S
C19 H37 0.929 . S
C20 C17 1.424 . S
C20 C19 1.384 . S
C20 H38 0.928 . S
C21 C18 1.260 . S
C21 C19 1.479 . S
C22 C17 1.245 . S
C22 C18 1.477 . S
C22 H39 0.932 . S
C23 U6 2.882 . S
C23 C17 1.428 . S
C23 O26 1.301 . S
C23 O27 1.282 . S
O24 U6 2.441 . S
O24 C10 1.249 . S
O25 U6 2.420 . S
O25 C10 1.202 . S
O26 U6 2.455 . S
O26 C23 1.301 . S
O27 U6 2.449 . S
O27 C23 1.282 . S
H28 C1 1.016 . S
H29 C3 0.929 . S
H30 C4 0.930 . S
H31 C5 0.931 . S
H32 C12 0.932 . S
H33 C13 0.930 . S
H34 C14 0.929 . S
H35 C16 0.930 . S
H36 C18 0.932 . S
H37 C19 0.929 . S
H38 C20 0.928 . S
H39 C22 0.932 . S
C40 C41 1.264 . S
C40 C45 1.479 . S
C40 C50 1.465 . S
C41 C40 1.264 . S
C41 C43 1.339 . S
C41 H68 0.931 . S
C42 C43 1.395 . S
C42 C44 1.320 . S
C43 C41 1.339 . S
C43 C42 1.395 . S
C43 H69 0.929 . S
C44 C42 1.320 . S
C44 C45 1.405 . S
C44 H70 0.930 . S
C45 C40 1.479 . S
C45 C44 1.405 . S
C45 H71 0.931 . S
U46 O47 2.454 . S
U46 O48 2.458 . S
U46 C49 2.984 . S
U46 C50 2.847 . S
U46 C63 2.882 . S
U46 O64 2.441 . S
U46 O65 2.420 . S
U46 O66 2.455 . S
U46 O67 2.449 . S
O47 U46 2.454 . S
O47 C49 1.353 . S
O48 U46 2.458 . S
O48 C49 1.286 . S
C49 U46 2.984 . S
C49 O47 1.353 . S
C49 O48 1.286 . S
C49 C51 1.363 . S
C50 C40 1.465 . S
C50 U46 2.847 . S
C50 O64 1.249 . S
C50 O65 1.202 . S
C51 C49 1.363 . S
C51 C53 1.408 . S
C51 C56 1.342 . S
C52 C53 1.310 . S
C52 C55 1.461 . S
C52 H72 0.932 . S
C53 C51 1.408 . S
C53 C52 1.310 . S
C53 H73 0.930 . S
C54 C55 1.474 . S
C54 C56 1.285 . S
C54 H74 0.929 . S
C55 C52 1.461 . S
C55 C54 1.474 . S
C56 C51 1.342 . S
C56 C54 1.285 . S
C56 H75 0.930 . S
C57 C60 1.424 . S
C57 C62 1.245 . S
C57 C63 1.428 . S
C58 C61 1.260 . S
C58 C62 1.477 . S
C58 H76 0.932 . S
C59 C60 1.384 . S
C59 C61 1.479 . S
C59 H77 0.929 . S
C60 C57 1.424 . S
C60 C59 1.384 . S
C60 H78 0.928 . S
C61 C58 1.260 . S
C61 C59 1.479 . S
C62 C57 1.245 . S
C62 C58 1.477 . S
C62 H79 0.932 . S
C63 U46 2.882 . S
C63 C57 1.428 . S
C63 O66 1.301 . S
C63 O67 1.282 . S
O64 U46 2.441 . S
O64 C50 1.249 . S
O65 U46 2.420 . S
O65 C50 1.202 . S
O66 U46 2.455 . S
O66 C63 1.301 . S
O67 U46 2.449 . S
O67 C63 1.282 . S
H68 C41 0.931 . S
H69 C43 0.929 . S
H70 C44 0.930 . S
H71 C45 0.931 . S
H72 C52 0.932 . S
H73 C53 0.930 . S
H74 C54 0.929 . S
H75 C56 0.930 . S
H76 C58 0.932 . S
H77 C59 0.929 . S
H78 C60 0.928 . S
H79 C62 0.932 . S
C80 C81 1.264 . S
C80 C85 1.479 . S
C80 C90 1.465 . S
C81 C80 1.264 . S
C81 C83 1.339 . S
C81 H108 0.931 . S
C82 C83 1.395 . S
C82 C84 1.320 . S
C83 C81 1.339 . S
C83 C82 1.395 . S
C83 H109 0.929 . S
C84 C82 1.320 . S
C84 C85 1.405 . S
C84 H110 0.930 . S
C85 C80 1.479 . S
C85 C84 1.405 . S
C85 H111 0.931 . S
U86 O87 2.454 . S
U86 O88 2.458 . S
U86 C89 2.984 . S
U86 C90 2.847 . S
U86 C103 2.882 . S
U86 O104 2.441 . S
U86 O105 2.420 . S
U86 O106 2.455 . S
U86 O107 2.449 . S
O87 U86 2.454 . S
O87 C89 1.353 . S
O88 U86 2.458 . S
O88 C89 1.286 . S
C89 U86 2.984 . S
C89 O87 1.353 . S
C89 O88 1.286 . S
C89 C91 1.363 . S
C90 C80 1.465 . S
C90 U86 2.847 . S
C90 O104 1.249 . S
C90 O105 1.202 . S
C91 C89 1.363 . S
C91 C93 1.408 . S
C91 C96 1.342 . S
C92 C93 1.310 . S
C92 C95 1.461 . S
C92 H112 0.932 . S
C93 C91 1.408 . S
C93 C92 1.310 . S
C93 H113 0.930 . S
C94 C95 1.474 . S
C94 C96 1.285 . S
C94 H114 0.929 . S
C95 C92 1.461 . S
C95 C94 1.474 . S
C96 C91 1.342 . S
C96 C94 1.285 . S
C96 H115 0.930 . S
C97 C100 1.424 . S
C97 C102 1.245 . S
C97 C103 1.428 . S
C98 C101 1.260 . S
C98 C102 1.477 . S
C98 H116 0.932 . S
C99 C100 1.384 . S
C99 C101 1.479 . S
C99 H117 0.929 . S
C100 C97 1.424 . S
C100 C99 1.384 . S
C100 H118 0.928 . S
C101 C98 1.260 . S
C101 C99 1.479 . S
C102 C97 1.245 . S
C102 C98 1.477 . S
C102 H119 0.932 . S
C103 U86 2.882 . S
C103 C97 1.428 . S
C103 O106 1.301 . S
C103 O107 1.282 . S
O104 U86 2.441 . S
O104 C90 1.249 . S
O105 U86 2.420 . S
O105 C90 1.202 . S
O106 U86 2.455 . S
O106 C103 1.301 . S
O107 U86 2.449 . S
O107 C103 1.282 . S
H108 C81 0.931 . S
H109 C83 0.929 . S
H110 C84 0.930 . S
H111 C85 0.931 . S
H112 C92 0.932 . S
H113 C93 0.930 . S
H114 C94 0.929 . S
H115 C96 0.930 . S
H116 C98 0.932 . S
H117 C99 0.929 . S
H118 C100 0.928 . S
H119 C102 0.932 . S
C120 C121 1.264 . S
C120 C125 1.479 . S
C120 C130 1.465 . S
C121 C120 1.264 . S
C121 C123 1.339 . S
C121 H148 0.931 . S
C122 C123 1.395 . S
C122 C124 1.320 . S
C123 C121 1.339 . S
C123 C122 1.395 . S
C123 H149 0.929 . S
C124 C122 1.320 . S
C124 C125 1.405 . S
C124 H150 0.930 . S
C125 C120 1.479 . S
C125 C124 1.405 . S
C125 H151 0.931 . S
U126 O127 2.454 . S
U126 O128 2.458 . S
U126 C129 2.984 . S
U126 C130 2.847 . S
U126 C143 2.882 . S
U126 O144 2.441 . S
U126 O145 2.420 . S
U126 O146 2.455 . S
U126 O147 2.449 . S
O127 U126 2.454 . S
O127 C129 1.353 . S
O128 U126 2.458 . S
O128 C129 1.286 . S
C129 U126 2.984 . S
C129 O127 1.353 . S
C129 O128 1.286 . S
C129 C131 1.363 . S
C130 C120 1.465 . S
C130 U126 2.847 . S
C130 O144 1.249 . S
C130 O145 1.202 . S
C131 C129 1.363 . S
C131 C133 1.408 1_554 S
C131 C136 1.342 . S
C132 C133 1.310 . S
C132 C135 1.461 . S
C132 H152 0.932 . S
C133 C131 1.408 1_556 S
C133 C132 1.310 . S
C133 H153 0.930 . S
C134 C135 1.474 . S
C134 C136 1.285 1_556 S
C134 H154 0.929 . S
C135 C132 1.461 . S
C135 C134 1.474 . S
C136 C131 1.342 . S
C136 C134 1.285 1_554 S
C136 H155 0.930 . S
C137 C140 1.424 . S
C137 C142 1.245 . S
C137 C143 1.428 . S
C138 C141 1.260 . S
C138 C142 1.477 . S
C138 H156 0.932 . S
C139 C140 1.384 . S
C139 C141 1.479 . S
C139 H157 0.929 . S
C140 C137 1.424 . S
C140 C139 1.384 . S
C140 H158 0.928 . S
C141 C138 1.260 . S
C141 C139 1.479 . S
C142 C137 1.245 . S
C142 C138 1.477 . S
C142 H159 0.932 . S
C143 U126 2.882 . S
C143 C137 1.428 . S
C143 O146 1.301 . S
C143 O147 1.282 . S
O144 U126 2.441 . S
O144 C130 1.249 . S
O145 U126 2.420 . S
O145 C130 1.202 . S
O146 U126 2.455 . S
O146 C143 1.301 . S
O147 U126 2.449 . S
O147 C143 1.282 . S
H148 C121 0.931 . S
H149 C123 0.929 . S
H150 C124 0.930 . S
H151 C125 0.931 . S
H152 C132 0.932 . S
H153 C133 0.930 . S
H154 C134 0.929 . S
H155 C136 0.930 . S
H156 C138 0.932 . S
H157 C139 0.929 . S
H158 C140 0.928 . S
H159 C142 0.932 . S
C160 C161 1.264 . S
C160 C165 1.479 1_455 S
C160 C170 1.465 . S
C161 C160 1.264 . S
C161 C163 1.339 1_455 S
C161 H188 0.931 . S
C162 C163 1.395 . S
C162 C164 1.320 . S
C163 C161 1.339 1_655 S
C163 C162 1.395 . S
C163 H189 0.929 . S
C164 C162 1.320 . S
C164 C165 1.405 . S
C164 H190 0.930 . S
C165 C160 1.479 1_655 S
C165 C164 1.405 . S
C165 H191 0.931 . S
U166 O167 2.454 . S
U166 O168 2.458 . S
U166 C169 2.984 . S
U166 C170 2.847 . S
U166 C183 2.882 . S
U166 O184 2.441 . S
U166 O185 2.420 . S
U166 O186 2.455 . S
U166 O187 2.449 . S
O167 U166 2.454 . S
O167 C169 1.353 . S
O168 U166 2.458 . S
O168 C169 1.286 . S
C169 U166 2.984 . S
C169 O167 1.353 . S
C169 O168 1.286 . S
C169 C171 1.363 . S
C170 C160 1.465 . S
C170 U166 2.847 . S
C170 O184 1.249 . S
C170 O185 1.202 . S
C171 C169 1.363 . S
C171 C173 1.408 . S
C171 C176 1.342 . S
C172 C173 1.310 . S
C172 C175 1.461 . S
C172 H192 0.932 . S
C173 C171 1.408 . S
C173 C172 1.310 . S
C173 H193 0.930 . S
C174 C175 1.474 . S
C174 C176 1.285 . S
C174 H194 0.929 . S
C175 C172 1.461 . S
C175 C174 1.474 . S
C176 C171 1.342 . S
C176 C174 1.285 . S
C176 H195 0.930 . S
C177 C180 1.424 . S
C177 C182 1.245 . S
C177 C183 1.428 . S
C178 C181 1.260 . S
C178 C182 1.477 . S
C178 H196 0.932 . S
C179 C180 1.384 . S
C179 C181 1.479 . S
C179 H197 0.929 . S
C180 C177 1.424 . S
C180 C179 1.384 . S
C180 H198 0.928 . S
C181 C178 1.260 . S
C181 C179 1.479 . S
C182 C177 1.245 . S
C182 C178 1.477 . S
C182 H199 0.932 . S
C183 U166 2.882 . S
C183 C177 1.428 . S
C183 O186 1.301 . S
C183 O187 1.282 . S
O184 U166 2.441 . S
O184 C170 1.249 . S
O185 U166 2.420 . S
O185 C170 1.202 . S
O186 U166 2.455 . S
O186 C183 1.301 . S
O187 U166 2.449 . S
O187 C183 1.282 . S
H188 C161 0.931 . S
H189 C163 0.929 . S
H190 C164 0.930 . S
H191 C165 0.931 . S
H192 C172 0.932 . S
H193 C173 0.930 . S
H194 C174 0.929 . S
H195 C176 0.930 . S
H196 C178 0.932 . S
H197 C179 0.929 . S
H198 C180 0.928 . S
H199 C182 0.932 . S
C200 C201 1.264 . S
C200 C205 1.479 . S
C200 C210 1.465 . S
C201 C200 1.264 . S
C201 C203 1.339 . S
C201 H228 0.931 . S
C202 C203 1.395 . S
C202 C204 1.320 . S
C203 C201 1.339 . S
C203 C202 1.395 . S
C203 H229 0.929 . S
C204 C202 1.320 . S
C204 C205 1.405 . S
C204 H230 0.930 . S
C205 C200 1.479 . S
C205 C204 1.405 . S
C205 H231 0.931 . S
U206 O207 2.454 . S
U206 O208 2.458 . S
U206 C209 2.984 . S
U206 C210 2.847 . S
U206 C223 2.882 . S
U206 O224 2.441 . S
U206 O225 2.420 . S
U206 O226 2.455 . S
U206 O227 2.449 . S
O207 U206 2.454 . S
O207 C209 1.353 . S
O208 U206 2.458 . S
O208 C209 1.286 . S
C209 U206 2.984 . S
C209 O207 1.353 . S
C209 O208 1.286 . S
C209 C211 1.363 . S
C210 C200 1.465 . S
C210 U206 2.847 . S
C210 O224 1.249 . S
C210 O225 1.202 . S
C211 C209 1.363 . S
C211 C213 1.408 . S
C211 C216 1.342 . S
C212 C213 1.310 . S
C212 C215 1.461 . S
C212 H232 0.932 . S
C213 C211 1.408 . S
C213 C212 1.310 . S
C213 H233 0.930 . S
C214 C215 1.474 . S
C214 C216 1.285 . S
C214 H234 0.929 . S
C215 C212 1.461 . S
C215 C214 1.474 . S
C216 C211 1.342 . S
C216 C214 1.285 . S
C216 H235 0.930 . S
C217 C220 1.424 . S
C217 C222 1.245 . S
C217 C223 1.428 . S
C218 C221 1.260 . S
C218 C222 1.477 . S
C218 H236 0.932 . S
C219 C220 1.384 . S
C219 C221 1.479 . S
C219 H237 0.929 . S
C220 C217 1.424 . S
C220 C219 1.384 . S
C220 H238 0.928 . S
C221 C218 1.260 . S
C221 C219 1.479 . S
C222 C217 1.245 . S
C222 C218 1.477 . S
C222 H239 0.932 . S
C223 U206 2.882 . S
C223 C217 1.428 . S
C223 O226 1.301 . S
C223 O227 1.282 . S
O224 U206 2.441 . S
O224 C210 1.249 . S
O225 U206 2.420 . S
O225 C210 1.202 . S
O226 U206 2.455 . S
O226 C223 1.301 . S
O227 U206 2.449 . S
O227 C223 1.282 . S
H228 C201 0.931 . S
H229 C203 0.929 . S
H230 C204 0.930 . S
H231 C205 0.931 . S
H232 C212 0.932 . S
H233 C213 0.930 . S
H234 C214 0.929 . S
H235 C216 0.930 . S
H236 C218 0.932 . S
H237 C219 0.929 . S
H238 C220 0.928 . S
H239 C222 0.932 . S
C240 C241 1.264 . S
C240 C245 1.479 . S
C240 C250 1.465 . S
C241 C240 1.264 . S
C241 C243 1.339 . S
C241 H268 0.931 . S
C242 C243 1.395 . S
C242 C244 1.320 . S
C243 C241 1.339 . S
C243 C242 1.395 . S
C243 H269 0.929 . S
C244 C242 1.320 . S
C244 C245 1.405 . S
C244 H270 0.930 . S
C245 C240 1.479 . S
C245 C244 1.405 . S
C245 H271 0.931 . S
U246 O247 2.454 . S
U246 O248 2.458 . S
U246 C249 2.984 . S
U246 C250 2.847 . S
U246 C263 2.882 . S
U246 O264 2.441 . S
U246 O265 2.420 . S
U246 O266 2.455 . S
U246 O267 2.449 . S
O247 U246 2.454 . S
O247 C249 1.353 . S
O248 U246 2.458 . S
O248 C249 1.286 . S
C249 U246 2.984 . S
C249 O247 1.353 . S
C249 O248 1.286 . S
C249 C251 1.363 . S
C250 C240 1.465 . S
C250 U246 2.847 . S
C250 O264 1.249 . S
C250 O265 1.202 . S
C251 C249 1.363 . S
C251 C253 1.408 . S
C251 C256 1.342 . S
C252 C253 1.310 . S
C252 C255 1.461 . S
C252 H272 0.932 . S
C253 C251 1.408 . S
C253 C252 1.310 . S
C253 H273 0.930 . S
C254 C255 1.474 . S
C254 C256 1.285 . S
C254 H274 0.929 . S
C255 C252 1.461 . S
C255 C254 1.474 . S
C256 C251 1.342 . S
C256 C254 1.285 . S
C256 H275 0.930 . S
C257 C260 1.424 . S
C257 C262 1.245 . S
C257 C263 1.428 . S
C258 C261 1.260 . S
C258 C262 1.477 . S
C258 H276 0.932 . S
C259 C260 1.384 . S
C259 C261 1.479 . S
C259 H277 0.929 . S
C260 C257 1.424 . S
C260 C259 1.384 . S
C260 H278 0.928 . S
C261 C258 1.260 . S
C261 C259 1.479 . S
C262 C257 1.245 . S
C262 C258 1.477 . S
C262 H279 0.932 . S
C263 U246 2.882 . S
C263 C257 1.428 . S
C263 O266 1.301 . S
C263 O267 1.282 . S
O264 U246 2.441 . S
O264 C250 1.249 . S
O265 U246 2.420 . S
O265 C250 1.202 . S
O266 U246 2.455 . S
O266 C263 1.301 . S
O267 U246 2.449 . S
O267 C263 1.282 . S
H268 C241 0.931 . S
H269 C243 0.929 . S
H270 C244 0.930 . S
H271 C245 0.931 . S
H272 C252 0.932 . S
H273 C253 0.930 . S
H274 C254 0.929 . S
H275 C256 0.930 . S
H276 C258 0.932 . S
H277 C259 0.929 . S
H278 C260 0.928 . S
H279 C262 0.932 . S
C280 C281 1.261 . S
C280 C285 1.426 1_556 S
C280 C290 1.520 . S
C281 C280 1.261 . S
C281 C283 1.346 1_556 S
C281 H308 0.924 . S
C282 C283 1.395 . S
C282 C284 1.320 . S
C283 C281 1.346 1_554 S
C283 C282 1.395 . S
C283 H309 0.929 . S
C284 C282 1.320 . S
C284 C285 1.405 . S
C284 H310 0.930 . S
C285 C280 1.426 1_554 S
C285 C284 1.405 . S
C285 H311 0.931 . S
U286 O287 2.454 . S
U286 O288 2.458 . S
U286 C289 2.984 . S
U286 C290 2.847 . S
U286 C303 2.882 . S
U286 O304 2.441 . S
U286 O305 2.420 . S
U286 O306 2.455 . S
U286 O307 2.449 . S
O287 U286 2.454 . S
O287 C289 1.353 . S
O288 U286 2.458 . S
O288 C289 1.286 . S
C289 U286 2.984 . S
C289 O287 1.353 . S
C289 O288 1.286 . S
C289 C291 1.363 . S
C290 C280 1.520 . S
C290 U286 2.847 . S
C290 O304 1.249 . S
C290 O305 1.202 . S
C291 C289 1.363 . S
C291 C293 1.408 . S
C291 C296 1.342 . S
C292 C293 1.310 . S
C292 C295 1.461 . S
C292 H312 0.932 . S
C293 C291 1.408 . S
C293 C292 1.310 . S
C293 H313 0.930 . S
C294 C295 1.474 . S
C294 C296 1.285 . S
C294 H314 0.929 . S
C295 C292 1.461 . S
C295 C294 1.474 . S
C296 C291 1.342 . S
C296 C294 1.285 . S
C296 H315 0.930 . S
C297 C300 1.424 . S
C297 C302 1.245 . S
C297 C303 1.428 . S
C298 C301 1.260 . S
C298 C302 1.477 . S
C298 H316 0.932 . S
C299 C300 1.384 . S
C299 C301 1.479 . S
C299 H317 0.929 . S
C300 C297 1.424 . S
C300 C299 1.384 . S
C300 H318 0.928 . S
C301 C298 1.260 . S
C301 C299 1.479 . S
C302 C297 1.245 . S
C302 C298 1.477 . S
C302 H319 0.932 . S
C303 U286 2.882 . S
C303 C297 1.428 . S
C303 O306 1.301 . S
C303 O307 1.282 . S
O304 U286 2.441 . S
O304 C290 1.249 . S
O305 U286 2.420 . S
O305 C290 1.202 . S
O306 U286 2.455 . S
O306 C303 1.301 . S
O307 U286 2.449 . S
O307 C303 1.282 . S
H308 C281 0.924 . S
H309 C283 0.929 . S
H310 C284 0.930 . S
H311 C285 0.931 . S
H312 C292 0.932 . S
H313 C293 0.930 . S
H314 C294 0.929 . S
H315 C296 0.930 . S
H316 C298 0.932 . S
H317 C299 0.929 . S
H318 C300 0.928 . S
H319 C302 0.932 . S
C320 C321 1.264 . S
C320 C325 1.479 . S
C320 C330 1.465 . S
C321 C320 1.264 . S
C321 C323 1.339 . S
C321 H348 0.931 . S
C322 C323 1.395 . S
C322 C324 1.320 . S
C323 C321 1.339 . S
C323 C322 1.395 . S
C323 H349 0.929 . S
C324 C322 1.320 . S
C324 C325 1.405 . S
C324 H350 0.930 . S
C325 C320 1.479 . S
C325 C324 1.405 . S
C325 H351 0.931 . S
U326 O327 2.454 . S
U326 O328 2.458 . S
U326 C329 2.984 . S
U326 C330 2.847 . S
U326 C343 2.882 . S
U326 O344 2.441 . S
U326 O345 2.420 . S
U326 O346 2.455 . S
U326 O347 2.449 . S
O327 U326 2.454 . S
O327 C329 1.353 . S
O328 U326 2.458 . S
O328 C329 1.286 . S
C329 U326 2.984 . S
C329 O327 1.353 . S
C329 O328 1.286 . S
C329 C331 1.363 . S
C330 C320 1.465 . S
C330 U326 2.847 . S
C330 O344 1.249 . S
C330 O345 1.202 . S
C331 C329 1.363 . S
C331 C333 1.408 1_545 S
C331 C336 1.342 . S
C332 C333 1.310 . S
C332 C335 1.461 . S
C332 H352 0.932 . S
C333 C331 1.408 1_565 S
C333 C332 1.310 . S
C333 H353 0.930 . S
C334 C335 1.474 . S
C334 C336 1.285 1_565 S
C334 H354 0.929 . S
C335 C332 1.461 . S
C335 C334 1.474 . S
C336 C331 1.342 . S
C336 C334 1.285 1_545 S
C336 H355 0.930 . S
C337 C340 1.424 . S
C337 C342 1.245 . S
C337 C343 1.428 . S
C338 C341 1.260 . S
C338 C342 1.477 . S
C338 H356 0.932 . S
C339 C340 1.384 . S
C339 C341 1.479 . S
C339 H357 0.929 . S
C340 C337 1.424 . S
C340 C339 1.384 . S
C340 H358 0.928 . S
C341 C338 1.260 . S
C341 C339 1.479 . S
C342 C337 1.245 . S
C342 C338 1.477 . S
C342 H359 0.932 . S
C343 U326 2.882 . S
C343 C337 1.428 . S
C343 O346 1.301 . S
C343 O347 1.282 . S
O344 U326 2.441 . S
O344 C330 1.249 . S
O345 U326 2.420 . S
O345 C330 1.202 . S
O346 U326 2.455 . S
O346 C343 1.301 . S
O347 U326 2.449 . S
O347 C343 1.282 . S
H348 C321 0.931 . S
H349 C323 0.929 . S
H350 C324 0.930 . S
H351 C325 0.931 . S
H352 C332 0.932 . S
H353 C333 0.930 . S
H354 C334 0.929 . S
H355 C336 0.930 . S
H356 C338 0.932 . S
H357 C339 0.929 . S
H358 C340 0.928 . S
H359 C342 0.932 . S
C360 C361 1.275 . S
C360 C365 1.479 1_545 S
C360 C370 1.465 . S
C361 C360 1.275 . S
C361 C363 1.253 1_545 S
C361 H388 1.014 . S
C362 C363 1.395 . S
C362 C364 1.320 . S
C363 C361 1.253 1_565 S
C363 C362 1.395 . S
C363 H389 0.929 . S
C364 C362 1.320 . S
C364 C365 1.405 . S
C364 H390 0.930 . S
C365 C360 1.479 1_565 S
C365 C364 1.405 . S
C365 H391 0.931 . S
U366 O367 2.454 . S
U366 O368 2.458 . S
U366 C369 2.984 . S
U366 C370 2.847 . S
U366 C383 2.882 . S
U366 O384 2.441 . S
U366 O385 2.420 . S
U366 O386 2.455 . S
U366 O387 2.449 . S
O367 U366 2.454 . S
O367 C369 1.353 . S
O368 U366 2.458 . S
O368 C369 1.286 . S
C369 U366 2.984 . S
C369 O367 1.353 . S
C369 O368 1.286 . S
C369 C371 1.363 . S
C370 C360 1.465 . S
C370 U366 2.847 . S
C370 O384 1.249 . S
C370 O385 1.202 . S
C371 C369 1.363 . S
C371 C373 1.408 . S
C371 C376 1.342 . S
C372 C373 1.310 . S
C372 C375 1.461 . S
C372 H392 0.932 . S
C373 C371 1.408 . S
C373 C372 1.310 . S
C373 H393 0.930 . S
C374 C375 1.474 . S
C374 C376 1.285 . S
C374 H394 0.929 . S
C375 C372 1.461 . S
C375 C374 1.474 . S
C376 C371 1.342 . S
C376 C374 1.285 . S
C376 H395 0.930 . S
C377 C380 1.424 . S
C377 C382 1.245 . S
C377 C383 1.428 . S
C378 C381 1.260 . S
C378 C382 1.477 . S
C378 H396 0.932 . S
C379 C380 1.384 . S
C379 C381 1.479 . S
C379 H397 0.929 . S
C380 C377 1.424 . S
C380 C379 1.384 . S
C380 H398 0.928 . S
C381 C378 1.260 . S
C381 C379 1.479 . S
C382 C377 1.245 . S
C382 C378 1.477 . S
C382 H399 0.932 . S
C383 U366 2.882 . S
C383 C377 1.428 . S
C383 O386 1.301 . S
C383 O387 1.282 . S
O384 U366 2.441 . S
O384 C370 1.249 . S
O385 U366 2.420 . S
O385 C370 1.202 . S
O386 U366 2.455 . S
O386 C383 1.301 . S
O387 U366 2.449 . S
O387 C383 1.282 . S
H388 C361 1.014 . S
H389 C363 0.929 . S
H390 C364 0.930 . S
H391 C365 0.931 . S
H392 C372 0.932 . S
H393 C373 0.930 . S
H394 C374 0.929 . S
H395 C376 0.930 . S
H396 C378 0.932 . S
H397 C379 0.929 . S
H398 C380 0.928 . S
H399 C382 0.932 . S
C400 C401 1.275 . S
C400 C405 1.479 1_565 S
C400 C410 1.465 . S
C401 C400 1.275 . S
C401 C403 1.256 1_565 S
C401 H428 1.012 . S
C402 C403 1.395 . S
C402 C404 1.320 . S
C403 C401 1.256 1_545 S
C403 C402 1.395 . S
C403 H429 0.929 . S
C404 C402 1.320 . S
C404 C405 1.405 . S
C404 H430 0.930 . S
C405 C400 1.479 1_545 S
C405 C404 1.405 . S
C405 H431 0.931 . S
U406 O407 2.454 . S
U406 O408 2.458 . S
U406 C409 2.984 . S
U406 C410 2.847 . S
U406 C423 2.882 . S
U406 O424 2.441 . S
U406 O425 2.420 . S
U406 O426 2.455 . S
U406 O427 2.449 . S
O407 U406 2.454 . S
O407 C409 1.353 . S
O408 U406 2.458 . S
O408 C409 1.286 . S
C409 U406 2.984 . S
C409 O407 1.353 . S
C409 O408 1.286 . S
C409 C411 1.363 . S
C410 C400 1.465 . S
C410 U406 2.847 . S
C410 O424 1.249 . S
C410 O425 1.202 . S
C411 C409 1.363 . S
C411 C413 1.408 . S
C411 C416 1.342 . S
C412 C413 1.310 . S
C412 C415 1.461 . S
C412 H432 0.932 . S
C413 C411 1.408 . S
C413 C412 1.310 . S
C413 H433 0.930 . S
C414 C415 1.474 . S
C414 C416 1.285 . S
C414 H434 0.929 . S
C415 C412 1.461 . S
C415 C414 1.474 . S
C416 C411 1.342 . S
C416 C414 1.285 . S
C416 H435 0.930 . S
C417 C420 1.424 . S
C417 C422 1.245 . S
C417 C423 1.428 . S
C418 C421 1.260 . S
C418 C422 1.477 . S
C418 H436 0.932 . S
C419 C420 1.384 . S
C419 C421 1.479 . S
C419 H437 0.929 . S
C420 C417 1.424 . S
C420 C419 1.384 . S
C420 H438 0.928 . S
C421 C418 1.260 . S
C421 C419 1.479 . S
C422 C417 1.245 . S
C422 C418 1.477 . S
C422 H439 0.932 . S
C423 U406 2.882 . S
C423 C417 1.428 . S
C423 O426 1.301 . S
C423 O427 1.282 . S
O424 U406 2.441 . S
O424 C410 1.249 . S
O425 U406 2.420 . S
O425 C410 1.202 . S
O426 U406 2.455 . S
O426 C423 1.301 . S
O427 U406 2.449 . S
O427 C423 1.282 . S
H428 C401 1.012 . S
H429 C403 0.929 . S
H430 C404 0.930 . S
H431 C405 0.931 . S
H432 C412 0.932 . S
H433 C413 0.930 . S
H434 C414 0.929 . S
H435 C416 0.930 . S
H436 C418 0.932 . S
H437 C419 0.929 . S
H438 C420 0.928 . S
H439 C422 0.932 . S
C440 C441 1.264 . S
C440 C445 1.479 . S
C440 C450 1.465 . S
C441 C440 1.264 . S
C441 C443 1.339 . S
C441 H468 0.931 . S
C442 C443 1.395 . S
C442 C444 1.320 . S
C443 C441 1.339 . S
C443 C442 1.395 . S
C443 H469 0.929 . S
C444 C442 1.320 . S
C444 C445 1.405 . S
C444 H470 0.930 . S
C445 C440 1.479 . S
C445 C444 1.405 . S
C445 H471 0.931 . S
U446 O447 2.454 . S
U446 O448 2.458 . S
U446 C449 2.984 . S
U446 C450 2.847 . S
U446 C463 2.882 . S
U446 O464 2.441 . S
U446 O465 2.420 . S
U446 O466 2.455 . S
U446 O467 2.449 . S
O447 U446 2.454 . S
O447 C449 1.353 . S
O448 U446 2.458 . S
O448 C449 1.286 . S
C449 U446 2.984 . S
C449 O447 1.353 . S
C449 O448 1.286 . S
C449 C451 1.363 . S
C450 C440 1.465 . S
C450 U446 2.847 . S
C450 O464 1.249 . S
C450 O465 1.202 . S
C451 C449 1.363 . S
C451 C453 1.408 1_565 S
C451 C456 1.342 . S
C452 C453 1.310 . S
C452 C455 1.461 . S
C452 H472 0.932 . S
C453 C451 1.408 1_545 S
C453 C452 1.310 . S
C453 H473 0.930 . S
C454 C455 1.474 . S
C454 C456 1.285 1_545 S
C454 H474 0.929 . S
C455 C452 1.461 . S
C455 C454 1.474 . S
C456 C451 1.342 . S
C456 C454 1.285 1_565 S
C456 H475 0.930 . S
C457 C460 1.424 . S
C457 C462 1.245 . S
C457 C463 1.428 . S
C458 C461 1.260 . S
C458 C462 1.477 . S
C458 H476 0.932 . S
C459 C460 1.384 . S
C459 C461 1.479 . S
C459 H477 0.929 . S
C460 C457 1.424 . S
C460 C459 1.384 . S
C460 H478 0.928 . S
C461 C458 1.260 . S
C461 C459 1.479 . S
C462 C457 1.245 . S
C462 C458 1.477 . S
C462 H479 0.932 . S
C463 U446 2.882 . S
C463 C457 1.428 . S
C463 O466 1.301 . S
C463 O467 1.282 . S
O464 U446 2.441 . S
O464 C450 1.249 . S
O465 U446 2.420 . S
O465 C450 1.202 . S
O466 U446 2.455 . S
O466 C463 1.301 . S
O467 U446 2.449 . S
O467 C463 1.282 . S
H468 C441 0.931 . S
H469 C443 0.929 . S
H470 C444 0.930 . S
H471 C445 0.931 . S
H472 C452 0.932 . S
H473 C453 0.930 . S
H474 C454 0.929 . S
H475 C456 0.930 . S
H476 C458 0.932 . S
H477 C459 0.929 . S
H478 C460 0.928 . S
H479 C462 0.932 . S
C480 C481 1.264 . S
C480 C485 1.479 . S
C480 C490 1.465 . S
C481 C480 1.264 . S
C481 C483 1.339 . S
C481 H508 0.931 . S
C482 C483 1.395 . S
C482 C484 1.320 . S
C483 C481 1.339 . S
C483 C482 1.395 . S
C483 H509 0.929 . S
C484 C482 1.320 . S
C484 C485 1.405 . S
C484 H510 0.930 . S
C485 C480 1.479 . S
C485 C484 1.405 . S
C485 H511 0.931 . S
U486 O487 2.454 . S
U486 O488 2.458 . S
U486 C489 2.984 . S
U486 C490 2.847 . S
U486 C503 2.882 . S
U486 O504 2.441 . S
U486 O505 2.420 . S
U486 O506 2.455 . S
U486 O507 2.449 . S
O487 U486 2.454 . S
O487 C489 1.353 . S
O488 U486 2.458 . S
O488 C489 1.286 . S
C489 U486 2.984 . S
C489 O487 1.353 . S
C489 O488 1.286 . S
C489 C491 1.363 . S
C490 C480 1.465 . S
C490 U486 2.847 . S
C490 O504 1.249 . S
C490 O505 1.202 . S
C491 C489 1.363 . S
C491 C493 1.408 1_554 S
C491 C496 1.342 . S
C492 C493 1.310 . S
C492 C495 1.461 . S
C492 H512 0.932 . S
C493 C491 1.408 1_556 S
C493 C492 1.310 . S
C493 H513 0.930 . S
C494 C495 1.474 . S
C494 C496 1.285 1_556 S
C494 H514 0.929 . S
C495 C492 1.461 . S
C495 C494 1.474 . S
C496 C491 1.342 . S
C496 C494 1.285 1_554 S
C496 H515 0.930 . S
C497 C500 1.424 . S
C497 C502 1.245 . S
C497 C503 1.428 . S
C498 C501 1.260 . S
C498 C502 1.477 . S
C498 H516 0.932 . S
C499 C500 1.384 . S
C499 C501 1.479 . S
C499 H517 0.929 . S
C500 C497 1.424 . S
C500 C499 1.384 . S
C500 H518 0.928 . S
C501 C498 1.260 . S
C501 C499 1.479 . S
C502 C497 1.245 . S
C502 C498 1.477 . S
C502 H519 0.932 . S
C503 U486 2.882 . S
C503 C497 1.428 . S
C503 O506 1.301 . S
C503 O507 1.282 . S
O504 U486 2.441 . S
O504 C490 1.249 . S
O505 U486 2.420 . S
O505 C490 1.202 . S
O506 U486 2.455 . S
O506 C503 1.301 . S
O507 U486 2.449 . S
O507 C503 1.282 . S
H508 C481 0.931 . S
H509 C483 0.929 . S
H510 C484 0.930 . S
H511 C485 0.931 . S
H512 C492 0.932 . S
H513 C493 0.930 . S
H514 C494 0.929 . S
H515 C496 0.930 . S
H516 C498 0.932 . S
H517 C499 0.929 . S
H518 C500 0.928 . S
H519 C502 0.932 . S
C520 C521 1.276 . S
C520 C525 1.479 1_655 S
C520 C530 1.465 . S
C521 C520 1.276 . S
C521 C523 1.247 1_655 S
C521 H548 1.021 . S
C522 C523 1.395 . S
C522 C524 1.320 . S
C523 C521 1.247 1_455 S
C523 C522 1.395 . S
C523 H549 0.929 . S
C524 C522 1.320 . S
C524 C525 1.405 . S
C524 H550 0.930 . S
C525 C520 1.479 1_455 S
C525 C524 1.405 . S
C525 H551 0.931 . S
U526 O527 2.454 . S
U526 O528 2.458 . S
U526 C529 2.984 . S
U526 C530 2.847 . S
U526 C543 2.882 . S
U526 O544 2.441 . S
U526 O545 2.420 . S
U526 O546 2.455 . S
U526 O547 2.449 . S
O527 U526 2.454 . S
O527 C529 1.353 . S
O528 U526 2.458 . S
O528 C529 1.286 . S
C529 U526 2.984 . S
C529 O527 1.353 . S
C529 O528 1.286 . S
C529 C531 1.363 . S
C530 C520 1.465 . S
C530 U526 2.847 . S
C530 O544 1.249 . S
C530 O545 1.202 . S
C531 C529 1.363 . S
C531 C533 1.408 . S
C531 C536 1.342 . S
C532 C533 1.310 . S
C532 C535 1.461 . S
C532 H552 0.932 . S
C533 C531 1.408 . S
C533 C532 1.310 . S
C533 H553 0.930 . S
C534 C535 1.474 . S
C534 C536 1.285 . S
C534 H554 0.929 . S
C535 C532 1.461 . S
C535 C534 1.474 . S
C536 C531 1.342 . S
C536 C534 1.285 . S
C536 H555 0.930 . S
C537 C540 1.424 . S
C537 C542 1.245 . S
C537 C543 1.428 . S
C538 C541 1.260 . S
C538 C542 1.477 . S
C538 H556 0.932 . S
C539 C540 1.384 . S
C539 C541 1.479 . S
C539 H557 0.929 . S
C540 C537 1.424 . S
C540 C539 1.384 . S
C540 H558 0.928 . S
C541 C538 1.260 . S
C541 C539 1.479 . S
C542 C537 1.245 . S
C542 C538 1.477 . S
C542 H559 0.932 . S
C543 U526 2.882 . S
C543 C537 1.428 . S
C543 O546 1.301 . S
C543 O547 1.282 . S
O544 U526 2.441 . S
O544 C530 1.249 . S
O545 U526 2.420 . S
O545 C530 1.202 . S
O546 U526 2.455 . S
O546 C543 1.301 . S
O547 U526 2.449 . S
O547 C543 1.282 . S
H548 C521 1.021 . S
H549 C523 0.929 . S
H550 C524 0.930 . S
H551 C525 0.931 . S
H552 C532 0.932 . S
H553 C533 0.930 . S
H554 C534 0.929 . S
H555 C536 0.930 . S
H556 C538 0.932 . S
H557 C539 0.929 . S
H558 C540 0.928 . S
H559 C542 0.932 . S
C560 C561 1.264 . S
C560 C565 1.479 . S
C560 C570 1.465 . S
C561 C560 1.264 . S
C561 C563 1.339 . S
C561 H588 0.931 . S
C562 C563 1.395 . S
C562 C564 1.320 . S
C563 C561 1.339 . S
C563 C562 1.395 . S
C563 H589 0.929 . S
C564 C562 1.320 . S
C564 C565 1.405 . S
C564 H590 0.930 . S
C565 C560 1.479 . S
C565 C564 1.405 . S
C565 H591 0.931 . S
U566 O567 2.454 . S
U566 O568 2.458 . S
U566 C569 2.984 . S
U566 C570 2.847 . S
U566 C583 2.882 . S
U566 O584 2.441 . S
U566 O585 2.420 . S
U566 O586 2.455 . S
U566 O587 2.449 . S
O567 U566 2.454 . S
O567 C569 1.353 . S
O568 U566 2.458 . S
O568 C569 1.286 . S
C569 U566 2.984 . S
C569 O567 1.353 . S
C569 O568 1.286 . S
C569 C571 1.363 . S
C570 C560 1.465 . S
C570 U566 2.847 . S
C570 O584 1.249 . S
C570 O585 1.202 . S
C571 C569 1.363 . S
C571 C573 1.408 . S
C571 C576 1.342 . S
C572 C573 1.310 . S
C572 C575 1.461 . S
C572 H592 0.932 . S
C573 C571 1.408 . S
C573 C572 1.310 . S
C573 H593 0.930 . S
C574 C575 1.474 . S
C574 C576 1.285 . S
C574 H594 0.929 . S
C575 C572 1.461 . S
C575 C574 1.474 . S
C576 C571 1.342 . S
C576 C574 1.285 . S
C576 H595 0.930 . S
C577 C580 1.424 . S
C577 C582 1.245 . S
C577 C583 1.428 . S
C578 C581 1.260 . S
C578 C582 1.477 . S
C578 H596 0.932 . S
C579 C580 1.384 . S
C579 C581 1.479 . S
C579 H597 0.929 . S
C580 C577 1.424 . S
C580 C579 1.384 . S
C580 H598 0.928 . S
C581 C578 1.260 . S
C581 C579 1.479 . S
C582 C577 1.245 . S
C582 C578 1.477 . S
C582 H599 0.932 . S
C583 U566 2.882 . S
C583 C577 1.428 . S
C583 O586 1.301 . S
C583 O587 1.282 . S
O584 U566 2.441 . S
O584 C570 1.249 . S
O585 U566 2.420 . S
O585 C570 1.202 . S
O586 U566 2.455 . S
O586 C583 1.301 . S
O587 U566 2.449 . S
O587 C583 1.282 . S
H588 C561 0.931 . S
H589 C563 0.929 . S
H590 C564 0.930 . S
H591 C565 0.931 . S
H592 C572 0.932 . S
H593 C573 0.930 . S
H594 C574 0.929 . S
H595 C576 0.930 . S
H596 C578 0.932 . S
H597 C579 0.929 . S
H598 C580 0.928 . S
H599 C582 0.932 . S
C600 C601 1.264 . S
C600 C605 1.479 . S
C600 C610 1.465 . S
C601 C600 1.264 . S
C601 C603 1.339 . S
C601 H628 0.931 . S
C602 C603 1.395 . S
C602 C604 1.320 . S
C603 C601 1.339 . S
C603 C602 1.395 . S
C603 H629 0.929 . S
C604 C602 1.320 . S
C604 C605 1.405 . S
C604 H630 0.930 . S
C605 C600 1.479 . S
C605 C604 1.405 . S
C605 H631 0.931 . S
U606 O607 2.454 1_655 S
U606 O608 2.458 1_655 S
U606 C609 2.984 1_655 S
U606 C610 2.847 . S
U606 C623 2.882 . S
U606 O624 2.441 . S
U606 O625 2.420 . S
U606 O626 2.455 . S
U606 O627 2.449 . S
O607 U606 2.454 1_455 S
O607 C609 1.353 . S
O608 U606 2.458 1_455 S
O608 C609 1.286 . S
C609 U606 2.984 1_455 S
C609 O607 1.353 . S
C609 O608 1.286 . S
C609 C611 1.363 . S
C610 C600 1.465 . S
C610 U606 2.847 . S
C610 O624 1.249 . S
C610 O625 1.202 . S
C611 C609 1.363 . S
C611 C613 1.408 . S
C611 C616 1.342 . S
C612 C613 1.310 . S
C612 C615 1.461 . S
C612 H632 0.932 . S
C613 C611 1.408 . S
C613 C612 1.310 . S
C613 H633 0.930 . S
C614 C615 1.474 . S
C614 C616 1.285 . S
C614 H634 0.929 . S
C615 C612 1.461 . S
C615 C614 1.474 . S
C616 C611 1.342 . S
C616 C614 1.285 . S
C616 H635 0.930 . S
C617 C620 1.424 . S
C617 C622 1.245 . S
C617 C623 1.428 . S
C618 C621 1.260 . S
C618 C622 1.477 . S
C618 H636 0.932 . S
C619 C620 1.384 . S
C619 C621 1.479 . S
C619 H637 0.929 . S
C620 C617 1.424 . S
C620 C619 1.384 . S
C620 H638 0.928 . S
C621 C618 1.260 . S
C621 C619 1.479 . S
C622 C617 1.245 . S
C622 C618 1.477 . S
C622 H639 0.932 . S
C623 U606 2.882 . S
C623 C617 1.428 . S
C623 O626 1.301 . S
C623 O627 1.282 . S
O624 U606 2.441 . S
O624 C610 1.249 . S
O625 U606 2.420 . S
O625 C610 1.202 . S
O626 U606 2.455 . S
O626 C623 1.301 . S
O627 U606 2.449 . S
O627 C623 1.282 . S
H628 C601 0.931 . S
H629 C603 0.929 . S
H630 C604 0.930 . S
H631 C605 0.931 . S
H632 C612 0.932 . S
H633 C613 0.930 . S
H634 C614 0.929 . S
H635 C616 0.930 . S
H636 C618 0.932 . S
H637 C619 0.929 . S
H638 C620 0.928 . S
H639 C622 0.932 . S
C640 C641 1.264 . S
C640 C645 1.479 . S
C640 C650 1.465 . S
C641 C640 1.264 . S
C641 C643 1.339 . S
C641 H668 0.931 . S
C642 C643 1.395 . S
C642 C644 1.320 . S
C643 C641 1.339 . S
C643 C642 1.395 . S
C643 H669 0.929 . S
C644 C642 1.320 . S
C644 C645 1.405 . S
C644 H670 0.930 . S
C645 C640 1.479 . S
C645 C644 1.405 . S
C645 H671 0.931 . S
U646 O647 2.454 . S
U646 O648 2.458 . S
U646 C649 2.984 . S
U646 C650 2.847 . S
U646 C663 2.882 . S
U646 O664 2.441 . S
U646 O665 2.420 . S
U646 O666 2.455 . S
U646 O667 2.449 . S
O647 U646 2.454 . S
O647 C649 1.353 . S
O648 U646 2.458 . S
O648 C649 1.286 . S
C649 U646 2.984 . S
C649 O647 1.353 . S
C649 O648 1.286 . S
C649 C651 1.363 . S
C650 C640 1.465 . S
C650 U646 2.847 . S
C650 O664 1.249 . S
C650 O665 1.202 . S
C651 C649 1.363 . S
C651 C653 1.408 . S
C651 C656 1.342 . S
C652 C653 1.310 . S
C652 C655 1.461 . S
C652 H672 0.932 . S
C653 C651 1.408 . S
C653 C652 1.310 . S
C653 H673 0.930 . S
C654 C655 1.474 . S
C654 C656 1.285 . S
C654 H674 0.929 . S
C655 C652 1.461 . S
C655 C654 1.474 . S
C656 C651 1.342 . S
C656 C654 1.285 . S
C656 H675 0.930 . S
C657 C660 1.424 . S
C657 C662 1.245 . S
C657 C663 1.428 . S
C658 C661 1.260 . S
C658 C662 1.477 . S
C658 H676 0.932 . S
C659 C660 1.384 . S
C659 C661 1.479 . S
C659 H677 0.929 . S
C660 C657 1.424 . S
C660 C659 1.384 . S
C660 H678 0.928 . S
C661 C658 1.260 . S
C661 C659 1.479 . S
C662 C657 1.245 . S
C662 C658 1.477 . S
C662 H679 0.932 . S
C663 U646 2.882 . S
C663 C657 1.428 . S
C663 O666 1.301 . S
C663 O667 1.282 . S
O664 U646 2.441 . S
O664 C650 1.249 . S
O665 U646 2.420 . S
O665 C650 1.202 . S
O666 U646 2.455 . S
O666 C663 1.301 . S
O667 U646 2.449 . S
O667 C663 1.282 . S
H668 C641 0.931 . S
H669 C643 0.929 . S
H670 C644 0.930 . S
H671 C645 0.931 . S
H672 C652 0.932 . S
H673 C653 0.930 . S
H674 C654 0.929 . S
H675 C656 0.930 . S
H676 C658 0.932 . S
H677 C659 0.929 . S
H678 C660 0.928 . S
H679 C662 0.932 . S
C680 C681 1.264 . S
C680 C685 1.479 . S
C680 C690 1.465 . S
C681 C680 1.264 . S
C681 C683 1.339 . S
C681 H708 0.931 . S
C682 C683 1.395 . S
C682 C684 1.320 . S
C683 C681 1.339 . S
C683 C682 1.395 . S
C683 H709 0.929 . S
C684 C682 1.320 . S
C684 C685 1.405 . S
C684 H710 0.930 . S
C685 C680 1.479 . S
C685 C684 1.405 . S
C685 H711 0.931 . S
U686 O687 2.454 . S
U686 O688 2.458 . S
U686 C689 2.984 . S
U686 C690 2.847 . S
U686 C703 2.882 . S
U686 O704 2.441 . S
U686 O705 2.420 . S
U686 O706 2.455 . S
U686 O707 2.449 . S
O687 U686 2.454 . S
O687 C689 1.353 . S
O688 U686 2.458 . S
O688 C689 1.286 . S
C689 U686 2.984 . S
C689 O687 1.353 . S
C689 O688 1.286 . S
C689 C691 1.363 . S
C690 C680 1.465 . S
C690 U686 2.847 . S
C690 O704 1.249 . S
C690 O705 1.202 . S
C691 C689 1.363 . S
C691 C693 1.408 . S
C691 C696 1.342 . S
C692 C693 1.310 . S
C692 C695 1.461 . S
C692 H712 0.932 . S
C693 C691 1.408 . S
C693 C692 1.310 . S
C693 H713 0.930 . S
C694 C695 1.474 . S
C694 C696 1.285 . S
C694 H714 0.929 . S
C695 C692 1.461 . S
C695 C694 1.474 . S
C696 C691 1.342 . S
C696 C694 1.285 . S
C696 H715 0.930 . S
C697 C700 1.424 . S
C697 C702 1.245 . S
C697 C703 1.428 . S
C698 C701 1.260 . S
C698 C702 1.477 . S
C698 H716 0.932 . S
C699 C700 1.384 . S
C699 C701 1.479 . S
C699 H717 0.929 . S
C700 C697 1.424 . S
C700 C699 1.384 . S
C700 H718 0.928 . S
C701 C698 1.260 . S
C701 C699 1.479 . S
C702 C697 1.245 . S
C702 C698 1.477 . S
C702 H719 0.932 . S
C703 U686 2.882 . S
C703 C697 1.428 . S
C703 O706 1.301 . S
C703 O707 1.282 . S
O704 U686 2.441 . S
O704 C690 1.249 . S
O705 U686 2.420 . S
O705 C690 1.202 . S
O706 U686 2.455 . S
O706 C703 1.301 . S
O707 U686 2.449 . S
O707 C703 1.282 . S
H708 C681 0.931 . S
H709 C683 0.929 . S
H710 C684 0.930 . S
H711 C685 0.931 . S
H712 C692 0.932 . S
H713 C693 0.930 . S
H714 C694 0.929 . S
H715 C696 0.930 . S
H716 C698 0.932 . S
H717 C699 0.929 . S
H718 C700 0.928 . S
H719 C702 0.932 . S
C720 C721 1.264 . S
C720 C725 1.479 . S
C720 C730 1.465 . S
C721 C720 1.264 . S
C721 C723 1.339 . S
C721 H748 0.931 . S
C722 C723 1.395 . S
C722 C724 1.320 . S
C723 C721 1.339 . S
C723 C722 1.395 . S
C723 H749 0.929 . S
C724 C722 1.320 . S
C724 C725 1.405 . S
C724 H750 0.930 . S
C725 C720 1.479 . S
C725 C724 1.405 . S
C725 H751 0.931 . S
U726 O727 2.454 1_556 S
U726 O728 2.458 1_556 S
U726 C729 2.984 1_556 S
U726 C730 2.847 . S
U726 C743 2.882 . S
U726 O744 2.441 . S
U726 O745 2.420 . S
U726 O746 2.455 . S
U726 O747 2.449 . S
O727 U726 2.454 1_554 S
O727 C729 1.353 . S
O728 U726 2.458 1_554 S
O728 C729 1.286 . S
C729 U726 2.984 1_554 S
C729 O727 1.353 . S
C729 O728 1.286 . S
C729 C731 1.363 . S
C730 C720 1.465 . S
C730 U726 2.847 . S
C730 O744 1.249 . S
C730 O745 1.202 . S
C731 C729 1.363 . S
C731 C733 1.408 . S
C731 C736 1.342 . S
C732 C733 1.310 . S
C732 C735 1.461 . S
C732 H752 0.932 . S
C733 C731 1.408 . S
C733 C732 1.310 . S
C733 H753 0.930 . S
C734 C735 1.474 . S
C734 C736 1.285 . S
C734 H754 0.929 . S
C735 C732 1.461 . S
C735 C734 1.474 . S
C736 C731 1.342 . S
C736 C734 1.285 . S
C736 H755 0.930 . S
C737 C740 1.424 . S
C737 C742 1.245 . S
C737 C743 1.428 . S
C738 C741 1.260 . S
C738 C742 1.477 . S
C738 H756 0.932 . S
C739 C740 1.384 . S
C739 C741 1.479 . S
C739 H757 0.929 . S
C740 C737 1.424 . S
C740 C739 1.384 . S
C740 H758 0.928 . S
C741 C738 1.260 . S
C741 C739 1.479 . S
C742 C737 1.245 . S
C742 C738 1.477 . S
C742 H759 0.932 . S
C743 U726 2.882 . S
C743 C737 1.428 . S
C743 O746 1.301 . S
C743 O747 1.282 . S
O744 U726 2.441 . S
O744 C730 1.249 . S
O745 U726 2.420 . S
O745 C730 1.202 . S
O746 U726 2.455 . S
O746 C743 1.301 . S
O747 U726 2.449 . S
O747 C743 1.282 . S
H748 C721 0.931 . S
H749 C723 0.929 . S
H750 C724 0.930 . S
H751 C725 0.931 . S
H752 C732 0.932 . S
H753 C733 0.930 . S
H754 C734 0.929 . S
H755 C736 0.930 . S
H756 C738 0.932 . S
H757 C739 0.929 . S
H758 C740 0.928 . S
H759 C742 0.932 . S
C760 C761 1.264 . S
C760 C765 1.479 . S
C760 C770 1.465 . S
C761 C760 1.264 . S
C761 C763 1.339 . S
C761 H788 0.931 . S
C762 C763 1.395 . S
C762 C764 1.320 . S
C763 C761 1.339 . S
C763 C762 1.395 . S
C763 H789 0.929 . S
C764 C762 1.320 . S
C764 C765 1.405 . S
C764 H790 0.930 . S
C765 C760 1.479 . S
C765 C764 1.405 . S
C765 H791 0.931 . S
U766 O767 2.454 . S
U766 O768 2.458 . S
U766 C769 2.984 . S
U766 C770 2.847 1_655 S
U766 C783 2.882 . S
U766 O784 2.441 1_655 S
U766 O785 2.420 1_655 S
U766 O786 2.455 . S
U766 O787 2.449 . S
O767 U766 2.454 . S
O767 C769 1.353 . S
O768 U766 2.458 . S
O768 C769 1.286 . S
C769 U766 2.984 . S
C769 O767 1.353 . S
C769 O768 1.286 . S
C769 C771 1.363 . S
C770 C760 1.465 . S
C770 U766 2.847 1_455 S
C770 O784 1.249 . S
C770 O785 1.202 . S
C771 C769 1.363 . S
C771 C773 1.408 . S
C771 C776 1.342 . S
C772 C773 1.310 . S
C772 C775 1.461 . S
C772 H792 0.932 . S
C773 C771 1.408 . S
C773 C772 1.310 . S
C773 H793 0.930 . S
C774 C775 1.474 . S
C774 C776 1.285 . S
C774 H794 0.929 . S
C775 C772 1.461 . S
C775 C774 1.474 . S
C776 C771 1.342 . S
C776 C774 1.285 . S
C776 H795 0.930 . S
C777 C780 1.424 . S
C777 C782 1.245 . S
C777 C783 1.428 . S
C778 C781 1.260 . S
C778 C782 1.477 . S
C778 H796 0.932 . S
C779 C780 1.384 . S
C779 C781 1.479 . S
C779 H797 0.929 . S
C780 C777 1.424 . S
C780 C779 1.384 . S
C780 H798 0.928 . S
C781 C778 1.260 . S
C781 C779 1.479 . S
C782 C777 1.245 . S
C782 C778 1.477 . S
C782 H799 0.932 . S
C783 U766 2.882 . S
C783 C777 1.428 . S
C783 O786 1.301 . S
C783 O787 1.282 . S
O784 U766 2.441 1_455 S
O784 C770 1.249 . S
O785 U766 2.420 1_455 S
O785 C770 1.202 . S
O786 U766 2.455 . S
O786 C783 1.301 . S
O787 U766 2.449 . S
O787 C783 1.282 . S
H788 C761 0.931 . S
H789 C763 0.929 . S
H790 C764 0.930 . S
H791 C765 0.931 . S
H792 C772 0.932 . S
H793 C773 0.930 . S
H794 C774 0.929 . S
H795 C776 0.930 . S
H796 C778 0.932 . S
H797 C779 0.929 . S
H798 C780 0.928 . S
H799 C782 0.932 . S
C800 C801 1.264 . S
C800 C805 1.479 . S
C800 C810 1.465 . S
C801 C800 1.264 . S
C801 C803 1.339 . S
C801 H828 0.931 . S
C802 C803 1.395 . S
C802 C804 1.320 . S
C803 C801 1.339 . S
C803 C802 1.395 . S
C803 H829 0.929 . S
C804 C802 1.320 . S
C804 C805 1.405 . S
C804 H830 0.930 . S
C805 C800 1.479 . S
C805 C804 1.405 . S
C805 H831 0.931 . S
U806 O807 2.454 . S
U806 O808 2.458 . S
U806 C809 2.984 . S
U806 C810 2.847 . S
U806 C823 2.882 . S
U806 O824 2.441 . S
U806 O825 2.420 . S
U806 O826 2.455 . S
U806 O827 2.449 . S
O807 U806 2.454 . S
O807 C809 1.353 . S
O808 U806 2.458 . S
O808 C809 1.286 . S
C809 U806 2.984 . S
C809 O807 1.353 . S
C809 O808 1.286 . S
C809 C811 1.363 . S
C810 C800 1.465 . S
C810 U806 2.847 . S
C810 O824 1.249 . S
C810 O825 1.202 . S
C811 C809 1.363 . S
C811 C813 1.408 . S
C811 C816 1.342 . S
C812 C813 1.310 . S
C812 C815 1.461 . S
C812 H832 0.932 . S
C813 C811 1.408 . S
C813 C812 1.310 . S
C813 H833 0.930 . S
C814 C815 1.474 . S
C814 C816 1.285 . S
C814 H834 0.929 . S
C815 C812 1.461 . S
C815 C814 1.474 . S
C816 C811 1.342 . S
C816 C814 1.285 . S
C816 H835 0.930 . S
C817 C820 1.424 . S
C817 C822 1.245 . S
C817 C823 1.428 . S
C818 C821 1.260 . S
C818 C822 1.477 . S
C818 H836 0.932 . S
C819 C820 1.384 . S
C819 C821 1.479 . S
C819 H837 0.929 . S
C820 C817 1.424 . S
C820 C819 1.384 . S
C820 H838 0.928 . S
C821 C818 1.260 . S
C821 C819 1.479 . S
C822 C817 1.245 . S
C822 C818 1.477 . S
C822 H839 0.932 . S
C823 U806 2.882 . S
C823 C817 1.428 . S
C823 O826 1.301 . S
C823 O827 1.282 . S
O824 U806 2.441 . S
O824 C810 1.249 . S
O825 U806 2.420 . S
O825 C810 1.202 . S
O826 U806 2.455 . S
O826 C823 1.301 . S
O827 U806 2.449 . S
O827 C823 1.282 . S
H828 C801 0.931 . S
H829 C803 0.929 . S
H830 C804 0.930 . S
H831 C805 0.931 . S
H832 C812 0.932 . S
H833 C813 0.930 . S
H834 C814 0.929 . S
H835 C816 0.930 . S
H836 C818 0.932 . S
H837 C819 0.929 . S
H838 C820 0.928 . S
H839 C822 0.932 . S
C840 C841 1.264 . S
C840 C845 1.479 . S
C840 C850 1.465 . S
C841 C840 1.264 . S
C841 C843 1.339 . S
C841 H868 0.931 . S
C842 C843 1.395 . S
C842 C844 1.320 . S
C843 C841 1.339 . S
C843 C842 1.395 . S
C843 H869 0.929 . S
C844 C842 1.320 . S
C844 C845 1.405 . S
C844 H870 0.930 . S
C845 C840 1.479 . S
C845 C844 1.405 . S
C845 H871 0.931 . S
U846 O847 2.454 . S
U846 O848 2.458 . S
U846 C849 2.984 . S
U846 C850 2.847 . S
U846 C863 2.882 . S
U846 O864 2.441 . S
U846 O865 2.420 . S
U846 O866 2.455 . S
U846 O867 2.449 . S
O847 U846 2.454 . S
O847 C849 1.353 . S
O848 U846 2.458 . S
O848 C849 1.286 . S
C849 U846 2.984 . S
C849 O847 1.353 . S
C849 O848 1.286 . S
C849 C851 1.363 . S
C850 C840 1.465 . S
C850 U846 2.847 . S
C850 O864 1.249 . S
C850 O865 1.202 . S
C851 C849 1.363 . S
C851 C853 1.408 . S
C851 C856 1.342 . S
C852 C853 1.310 . S
C852 C855 1.461 . S
C852 H872 0.932 . S
C853 C851 1.408 . S
C853 C852 1.310 . S
C853 H873 0.930 . S
C854 C855 1.474 . S
C854 C856 1.285 . S
C854 H874 0.929 . S
C855 C852 1.461 . S
C855 C854 1.474 . S
C856 C851 1.342 . S
C856 C854 1.285 . S
C856 H875 0.930 . S
C857 C860 1.424 . S
C857 C862 1.245 . S
C857 C863 1.428 . S
C858 C861 1.260 . S
C858 C862 1.477 . S
C858 H876 0.932 . S
C859 C860 1.384 . S
C859 C861 1.479 . S
C859 H877 0.929 . S
C860 C857 1.424 . S
C860 C859 1.384 . S
C860 H878 0.928 . S
C861 C858 1.260 . S
C861 C859 1.479 . S
C862 C857 1.245 . S
C862 C858 1.477 . S
C862 H879 0.932 . S
C863 U846 2.882 . S
C863 C857 1.428 . S
C863 O866 1.301 . S
C863 O867 1.282 . S
O864 U846 2.441 . S
O864 C850 1.249 . S
O865 U846 2.420 . S
O865 C850 1.202 . S
O866 U846 2.455 . S
O866 C863 1.301 . S
O867 U846 2.449 . S
O867 C863 1.282 . S
H868 C841 0.931 . S
H869 C843 0.929 . S
H870 C844 0.930 . S
H871 C845 0.931 . S
H872 C852 0.932 . S
H873 C853 0.930 . S
H874 C854 0.929 . S
H875 C856 0.930 . S
H876 C858 0.932 . S
H877 C859 0.929 . S
H878 C860 0.928 . S
H879 C862 0.932 . S
C880 C881 1.264 . S
C880 C885 1.479 . S
C880 C890 1.465 . S
C881 C880 1.264 . S
C881 C883 1.339 . S
C881 H908 0.931 . S
C882 C883 1.395 . S
C882 C884 1.320 . S
C883 C881 1.339 . S
C883 C882 1.395 . S
C883 H909 0.929 . S
C884 C882 1.320 . S
C884 C885 1.405 . S
C884 H910 0.930 . S
C885 C880 1.479 . S
C885 C884 1.405 . S
C885 H911 0.931 . S
U886 O887 2.454 . S
U886 O888 2.458 . S
U886 C889 2.984 . S
U886 C890 2.847 1_554 S
U886 C903 2.882 . S
U886 O904 2.441 1_554 S
U886 O905 2.420 1_554 S
U886 O906 2.455 . S
U886 O907 2.449 . S
O887 U886 2.454 . S
O887 C889 1.353 . S
O888 U886 2.458 . S
O888 C889 1.286 . S
C889 U886 2.984 . S
C889 O887 1.353 . S
C889 O888 1.286 . S
C889 C891 1.363 . S
C890 C880 1.465 . S
C890 U886 2.847 1_556 S
C890 O904 1.249 . S
C890 O905 1.202 . S
C891 C889 1.363 . S
C891 C893 1.408 . S
C891 C896 1.342 . S
C892 C893 1.310 . S
C892 C895 1.461 . S
C892 H912 0.932 . S
C893 C891 1.408 . S
C893 C892 1.310 . S
C893 H913 0.930 . S
C894 C895 1.474 . S
C894 C896 1.285 . S
C894 H914 0.929 . S
C895 C892 1.461 . S
C895 C894 1.474 . S
C896 C891 1.342 . S
C896 C894 1.285 . S
C896 H915 0.930 . S
C897 C900 1.424 . S
C897 C902 1.245 . S
C897 C903 1.428 . S
C898 C901 1.260 . S
C898 C902 1.477 . S
C898 H916 0.932 . S
C899 C900 1.384 . S
C899 C901 1.479 . S
C899 H917 0.929 . S
C900 C897 1.424 . S
C900 C899 1.384 . S
C900 H918 0.928 . S
C901 C898 1.260 . S
C901 C899 1.479 . S
C902 C897 1.245 . S
C902 C898 1.477 . S
C902 H919 0.932 . S
C903 U886 2.882 . S
C903 C897 1.428 . S
C903 O906 1.301 . S
C903 O907 1.282 . S
O904 U886 2.441 1_556 S
O904 C890 1.249 . S
O905 U886 2.420 1_556 S
O905 C890 1.202 . S
O906 U886 2.455 . S
O906 C903 1.301 . S
O907 U886 2.449 . S
O907 C903 1.282 . S
H908 C881 0.931 . S
H909 C883 0.929 . S
H910 C884 0.930 . S
H911 C885 0.931 . S
H912 C892 0.932 . S
H913 C893 0.930 . S
H914 C894 0.929 . S
H915 C896 0.930 . S
H916 C898 0.932 . S
H917 C899 0.929 . S
H918 C900 0.928 . S
H919 C902 0.932 . S
C920 C921 1.264 . S
C920 C925 1.479 . S
C920 C930 1.465 . S
C921 C920 1.264 . S
C921 C923 1.339 . S
C921 H948 0.931 . S
C922 C923 1.395 . S
C922 C924 1.320 . S
C923 C921 1.339 . S
C923 C922 1.395 . S
C923 H949 0.929 . S
C924 C922 1.320 . S
C924 C925 1.405 . S
C924 H950 0.930 . S
C925 C920 1.479 . S
C925 C924 1.405 . S
C925 H951 0.931 . S
U926 O927 2.454 1_565 S
U926 O928 2.458 1_565 S
U926 C929 2.984 1_565 S
U926 C930 2.847 . S
U926 C943 2.882 . S
U926 O944 2.441 . S
U926 O945 2.420 . S
U926 O946 2.455 . S
U926 O947 2.449 . S
O927 U926 2.454 1_545 S
O927 C929 1.353 . S
O928 U926 2.458 1_545 S
O928 C929 1.286 . S
C929 U926 2.984 1_545 S
C929 O927 1.353 . S
C929 O928 1.286 . S
C929 C931 1.363 . S
C930 C920 1.465 . S
C930 U926 2.847 . S
C930 O944 1.249 . S
C930 O945 1.202 . S
C931 C929 1.363 . S
C931 C933 1.408 . S
C931 C936 1.342 . S
C932 C933 1.310 . S
C932 C935 1.461 . S
C932 H952 0.932 . S
C933 C931 1.408 . S
C933 C932 1.310 . S
C933 H953 0.930 . S
C934 C935 1.474 . S
C934 C936 1.285 . S
C934 H954 0.929 . S
C935 C932 1.461 . S
C935 C934 1.474 . S
C936 C931 1.342 . S
C936 C934 1.285 . S
C936 H955 0.930 . S
C937 C940 1.424 . S
C937 C942 1.245 . S
C937 C943 1.428 . S
C938 C941 1.260 . S
C938 C942 1.477 . S
C938 H956 0.932 . S
C939 C940 1.384 . S
C939 C941 1.479 . S
C939 H957 0.929 . S
C940 C937 1.424 . S
C940 C939 1.384 . S
C940 H958 0.928 . S
C941 C938 1.260 . S
C941 C939 1.479 . S
C942 C937 1.245 . S
C942 C938 1.477 . S
C942 H959 0.932 . S
C943 U926 2.882 . S
C943 C937 1.428 . S
C943 O946 1.301 . S
C943 O947 1.282 . S
O944 U926 2.441 . S
O944 C930 1.249 . S
O945 U926 2.420 . S
O945 C930 1.202 . S
O946 U926 2.455 . S
O946 C943 1.301 . S
O947 U926 2.449 . S
O947 C943 1.282 . S
H948 C921 0.931 . S
H949 C923 0.929 . S
H950 C924 0.930 . S
H951 C925 0.931 . S
H952 C932 0.932 . S
H953 C933 0.930 . S
H954 C934 0.929 . S
H955 C936 0.930 . S
H956 C938 0.932 . S
H957 C939 0.929 . S
H958 C940 0.928 . S
H959 C942 0.932 . S
C960 C961 1.264 . S
C960 C965 1.479 . S
C960 C970 1.465 . S
C961 C960 1.264 . S
C961 C963 1.339 . S
C961 H988 0.931 . S
C962 C963 1.395 . S
C962 C964 1.320 . S
C963 C961 1.339 . S
C963 C962 1.395 . S
C963 H989 0.929 . S
C964 C962 1.320 . S
C964 C965 1.405 . S
C964 H990 0.930 . S
C965 C960 1.479 . S
C965 C964 1.405 . S
C965 H991 0.931 . S
U966 O967 2.454 1_565 S
U966 O968 2.458 1_565 S
U966 C969 2.984 1_565 S
U966 C970 2.847 . S
U966 C983 2.882 . S
U966 O984 2.441 . S
U966 O985 2.420 . S
U966 O986 2.455 . S
U966 O987 2.449 . S
O967 U966 2.454 1_545 S
O967 C969 1.353 . S
O968 U966 2.458 1_545 S
O968 C969 1.286 . S
C969 U966 2.984 1_545 S
C969 O967 1.353 . S
C969 O968 1.286 . S
C969 C971 1.363 . S
C970 C960 1.465 . S
C970 U966 2.847 . S
C970 O984 1.249 . S
C970 O985 1.202 . S
C971 C969 1.363 . S
C971 C973 1.408 . S
C971 C976 1.342 . S
C972 C973 1.310 . S
C972 C975 1.461 . S
C972 H992 0.932 . S
C973 C971 1.408 . S
C973 C972 1.310 . S
C973 H993 0.930 . S
C974 C975 1.474 . S
C974 C976 1.285 . S
C974 H994 0.929 . S
C975 C972 1.461 . S
C975 C974 1.474 . S
C976 C971 1.342 . S
C976 C974 1.285 . S
C976 H995 0.930 . S
C977 C980 1.424 . S
C977 C982 1.245 . S
C977 C983 1.428 . S
C978 C981 1.260 . S
C978 C982 1.477 . S
C978 H996 0.932 . S
C979 C980 1.384 . S
C979 C981 1.479 . S
C979 H997 0.929 . S
C980 C977 1.424 . S
C980 C979 1.384 . S
C980 H998 0.928 . S
C981 C978 1.260 . S
C981 C979 1.479 . S
C982 C977 1.245 . S
C982 C978 1.477 . S
C982 H999 0.932 . S
C983 U966 2.882 . S
C983 C977 1.428 . S
C983 O986 1.301 . S
C983 O987 1.282 . S
O984 U966 2.441 . S
O984 C970 1.249 . S
O985 U966 2.420 . S
O985 C970 1.202 . S
O986 U966 2.455 . S
O986 C983 1.301 . S
O987 U966 2.449 . S
O987 C983 1.282 . S
H988 C961 0.931 . S
H989 C963 0.929 . S
H990 C964 0.930 . S
H991 C965 0.931 . S
H992 C972 0.932 . S
H993 C973 0.930 . S
H994 C974 0.929 . S
H995 C976 0.930 . S
H996 C978 0.932 . S
H997 C979 0.929 . S
H998 C980 0.928 . S
H999 C982 0.932 . S
C1000 C1001 1.264 . S
C1000 C1005 1.479 . S
C1000 C1010 1.465 . S
C1001 C1000 1.264 . S
C1001 C1003 1.339 . S
C1001 H1028 0.931 . S
C1002 C1003 1.395 . S
C1002 C1004 1.320 . S
C1003 C1001 1.339 . S
C1003 C1002 1.395 . S
C1003 H1029 0.929 . S
C1004 C1002 1.320 . S
C1004 C1005 1.405 . S
C1004 H1030 0.930 . S
C1005 C1000 1.479 . S
C1005 C1004 1.405 . S
C1005 H1031 0.931 . S
U1006 O1007 2.454 . S
U1006 O1008 2.458 . S
U1006 C1009 2.984 . S
U1006 C1010 2.847 1_545 S
U1006 C1023 2.882 . S
U1006 O1024 2.441 1_545 S
U1006 O1025 2.420 1_545 S
U1006 O1026 2.455 . S
U1006 O1027 2.449 . S
O1007 U1006 2.454 . S
O1007 C1009 1.353 . S
O1008 U1006 2.458 . S
O1008 C1009 1.286 . S
C1009 U1006 2.984 . S
C1009 O1007 1.353 . S
C1009 O1008 1.286 . S
C1009 C1011 1.363 . S
C1010 C1000 1.465 . S
C1010 U1006 2.847 1_565 S
C1010 O1024 1.249 . S
C1010 O1025 1.202 . S
C1011 C1009 1.363 . S
C1011 C1013 1.408 . S
C1011 C1016 1.342 . S
C1012 C1013 1.310 . S
C1012 C1015 1.461 . S
C1012 H1032 0.932 . S
C1013 C1011 1.408 . S
C1013 C1012 1.310 . S
C1013 H1033 0.930 . S
C1014 C1015 1.474 . S
C1014 C1016 1.285 . S
C1014 H1034 0.929 . S
C1015 C1012 1.461 . S
C1015 C1014 1.474 . S
C1016 C1011 1.342 . S
C1016 C1014 1.285 . S
C1016 H1035 0.930 . S
C1017 C1020 1.424 . S
C1017 C1022 1.245 . S
C1017 C1023 1.428 . S
C1018 C1021 1.260 . S
C1018 C1022 1.477 . S
C1018 H1036 0.932 . S
C1019 C1020 1.384 . S
C1019 C1021 1.479 . S
C1019 H1037 0.929 . S
C1020 C1017 1.424 . S
C1020 C1019 1.384 . S
C1020 H1038 0.928 . S
C1021 C1018 1.260 . S
C1021 C1019 1.479 . S
C1022 C1017 1.245 . S
C1022 C1018 1.477 . S
C1022 H1039 0.932 . S
C1023 U1006 2.882 . S
C1023 C1017 1.428 . S
C1023 O1026 1.301 . S
C1023 O1027 1.282 . S
O1024 U1006 2.441 1_565 S
O1024 C1010 1.249 . S
O1025 U1006 2.420 1_565 S
O1025 C1010 1.202 . S
O1026 U1006 2.455 . S
O1026 C1023 1.301 . S
O1027 U1006 2.449 . S
O1027 C1023 1.282 . S
H1028 C1001 0.931 . S
H1029 C1003 0.929 . S
H1030 C1004 0.930 . S
H1031 C1005 0.931 . S
H1032 C1012 0.932 . S
H1033 C1013 0.930 . S
H1034 C1014 0.929 . S
H1035 C1016 0.930 . S
H1036 C1018 0.932 . S
H1037 C1019 0.929 . S
H1038 C1020 0.928 . S
H1039 C1022 0.932 . S
C1040 C1041 1.264 . S
C1040 C1045 1.479 . S
C1040 C1050 1.465 . S
C1041 C1040 1.264 . S
C1041 C1043 1.339 . S
C1041 H1068 0.931 . S
C1042 C1043 1.395 . S
C1042 C1044 1.320 . S
C1043 C1041 1.339 . S
C1043 C1042 1.395 . S
C1043 H1069 0.929 . S
C1044 C1042 1.320 . S
C1044 C1045 1.405 . S
C1044 H1070 0.930 . S
C1045 C1040 1.479 . S
C1045 C1044 1.405 . S
C1045 H1071 0.931 . S
U1046 O1047 2.454 . S
U1046 O1048 2.458 . S
U1046 C1049 2.984 . S
U1046 C1050 2.847 1_545 S
U1046 C1063 2.882 . S
U1046 O1064 2.441 1_545 S
U1046 O1065 2.420 1_545 S
U1046 O1066 2.455 . S
U1046 O1067 2.449 . S
O1047 U1046 2.454 . S
O1047 C1049 1.353 . S
O1048 U1046 2.458 . S
O1048 C1049 1.286 . S
C1049 U1046 2.984 . S
C1049 O1047 1.353 . S
C1049 O1048 1.286 . S
C1049 C1051 1.363 . S
C1050 C1040 1.465 . S
C1050 U1046 2.847 1_565 S
C1050 O1064 1.249 . S
C1050 O1065 1.202 . S
C1051 C1049 1.363 . S
C1051 C1053 1.408 . S
C1051 C1056 1.342 . S
C1052 C1053 1.310 . S
C1052 C1055 1.461 . S
C1052 H1072 0.932 . S
C1053 C1051 1.408 . S
C1053 C1052 1.310 . S
C1053 H1073 0.930 . S
C1054 C1055 1.474 . S
C1054 C1056 1.285 . S
C1054 H1074 0.929 . S
C1055 C1052 1.461 . S
C1055 C1054 1.474 . S
C1056 C1051 1.342 . S
C1056 C1054 1.285 . S
C1056 H1075 0.930 . S
C1057 C1060 1.424 . S
C1057 C1062 1.245 . S
C1057 C1063 1.428 . S
C1058 C1061 1.260 . S
C1058 C1062 1.477 . S
C1058 H1076 0.932 . S
C1059 C1060 1.384 . S
C1059 C1061 1.479 . S
C1059 H1077 0.929 . S
C1060 C1057 1.424 . S
C1060 C1059 1.384 . S
C1060 H1078 0.928 . S
C1061 C1058 1.260 . S
C1061 C1059 1.479 . S
C1062 C1057 1.245 . S
C1062 C1058 1.477 . S
C1062 H1079 0.932 . S
C1063 U1046 2.882 . S
C1063 C1057 1.428 . S
C1063 O1066 1.301 . S
C1063 O1067 1.282 . S
O1064 U1046 2.441 1_565 S
O1064 C1050 1.249 . S
O1065 U1046 2.420 1_565 S
O1065 C1050 1.202 . S
O1066 U1046 2.455 . S
O1066 C1063 1.301 . S
O1067 U1046 2.449 . S
O1067 C1063 1.282 . S
H1068 C1041 0.931 . S
H1069 C1043 0.929 . S
H1070 C1044 0.930 . S
H1071 C1045 0.931 . S
H1072 C1052 0.932 . S
H1073 C1053 0.930 . S
H1074 C1054 0.929 . S
H1075 C1056 0.930 . S
H1076 C1058 0.932 . S
H1077 C1059 0.929 . S
H1078 C1060 0.928 . S
H1079 C1062 0.932 . S
C1080 C1081 1.264 . S
C1080 C1085 1.479 . S
C1080 C1090 1.465 . S
C1081 C1080 1.264 . S
C1081 C1083 1.339 . S
C1081 H1108 0.931 . S
C1082 C1083 1.395 . S
C1082 C1084 1.320 . S
C1083 C1081 1.339 . S
C1083 C1082 1.395 . S
C1083 H1109 0.929 . S
C1084 C1082 1.320 . S
C1084 C1085 1.405 . S
C1084 H1110 0.930 . S
C1085 C1080 1.479 . S
C1085 C1084 1.405 . S
C1085 H1111 0.931 . S
U1086 O1087 2.454 1_556 S
U1086 O1088 2.458 1_556 S
U1086 C1089 2.984 1_556 S
U1086 C1090 2.847 . S
U1086 C1103 2.882 . S
U1086 O1104 2.441 . S
U1086 O1105 2.420 . S
U1086 O1106 2.455 . S
U1086 O1107 2.449 . S
O1087 U1086 2.454 1_554 S
O1087 C1089 1.353 . S
O1088 U1086 2.458 1_554 S
O1088 C1089 1.286 . S
C1089 U1086 2.984 1_554 S
C1089 O1087 1.353 . S
C1089 O1088 1.286 . S
C1089 C1091 1.363 . S
C1090 C1080 1.465 . S
C1090 U1086 2.847 . S
C1090 O1104 1.249 . S
C1090 O1105 1.202 . S
C1091 C1089 1.363 . S
C1091 C1093 1.408 . S
C1091 C1096 1.342 . S
C1092 C1093 1.310 . S
C1092 C1095 1.461 . S
C1092 H1112 0.932 . S
C1093 C1091 1.408 . S
C1093 C1092 1.310 . S
C1093 H1113 0.930 . S
C1094 C1095 1.474 . S
C1094 C1096 1.285 . S
C1094 H1114 0.929 . S
C1095 C1092 1.461 . S
C1095 C1094 1.474 . S
C1096 C1091 1.342 . S
C1096 C1094 1.285 . S
C1096 H1115 0.930 . S
C1097 C1100 1.424 . S
C1097 C1102 1.245 . S
C1097 C1103 1.428 . S
C1098 C1101 1.260 . S
C1098 C1102 1.477 . S
C1098 H1116 0.932 . S
C1099 C1100 1.384 . S
C1099 C1101 1.479 . S
C1099 H1117 0.929 . S
C1100 C1097 1.424 . S
C1100 C1099 1.384 . S
C1100 H1118 0.928 . S
C1101 C1098 1.260 . S
C1101 C1099 1.479 . S
C1102 C1097 1.245 . S
C1102 C1098 1.477 . S
C1102 H1119 0.932 . S
C1103 U1086 2.882 . S
C1103 C1097 1.428 . S
C1103 O1106 1.301 . S
C1103 O1107 1.282 . S
O1104 U1086 2.441 . S
O1104 C1090 1.249 . S
O1105 U1086 2.420 . S
O1105 C1090 1.202 . S
O1106 U1086 2.455 . S
O1106 C1103 1.301 . S
O1107 U1086 2.449 . S
O1107 C1103 1.282 . S
H1108 C1081 0.931 . S
H1109 C1083 0.929 . S
H1110 C1084 0.930 . S
H1111 C1085 0.931 . S
H1112 C1092 0.932 . S
H1113 C1093 0.930 . S
H1114 C1094 0.929 . S
H1115 C1096 0.930 . S
H1116 C1098 0.932 . S
H1117 C1099 0.929 . S
H1118 C1100 0.928 . S
H1119 C1102 0.932 . S
C1120 C1121 1.264 . S
C1120 C1125 1.479 . S
C1120 C1130 1.465 . S
C1121 C1120 1.264 . S
C1121 C1123 1.339 . S
C1121 H1148 0.931 . S
C1122 C1123 1.395 . S
C1122 C1124 1.320 . S
C1123 C1121 1.339 . S
C1123 C1122 1.395 . S
C1123 H1149 0.929 . S
C1124 C1122 1.320 . S
C1124 C1125 1.405 . S
C1124 H1150 0.930 . S
C1125 C1120 1.479 . S
C1125 C1124 1.405 . S
C1125 H1151 0.931 . S
U1126 O1127 2.454 . S
U1126 O1128 2.458 . S
U1126 C1129 2.984 . S
U1126 C1130 2.847 1_455 S
U1126 C1143 2.882 . S
U1126 O1144 2.441 1_455 S
U1126 O1145 2.420 1_455 S
U1126 O1146 2.455 . S
U1126 O1147 2.449 . S
O1127 U1126 2.454 . S
O1127 C1129 1.353 . S
O1128 U1126 2.458 . S
O1128 C1129 1.286 . S
C1129 U1126 2.984 . S
C1129 O1127 1.353 . S
C1129 O1128 1.286 . S
C1129 C1131 1.363 . S
C1130 C1120 1.465 . S
C1130 U1126 2.847 1_655 S
C1130 O1144 1.249 . S
C1130 O1145 1.202 . S
C1131 C1129 1.363 . S
C1131 C1133 1.408 . S
C1131 C1136 1.342 . S
C1132 C1133 1.310 . S
C1132 C1135 1.461 . S
C1132 H1152 0.932 . S
C1133 C1131 1.408 . S
C1133 C1132 1.310 . S
C1133 H1153 0.930 . S
C1134 C1135 1.474 . S
C1134 C1136 1.285 . S
C1134 H1154 0.929 . S
C1135 C1132 1.461 . S
C1135 C1134 1.474 . S
C1136 C1131 1.342 . S
C1136 C1134 1.285 . S
C1136 H1155 0.930 . S
C1137 C1140 1.424 . S
C1137 C1142 1.245 . S
C1137 C1143 1.428 . S
C1138 C1141 1.260 . S
C1138 C1142 1.477 . S
C1138 H1156 0.932 . S
C1139 C1140 1.384 . S
C1139 C1141 1.479 . S
C1139 H1157 0.929 . S
C1140 C1137 1.424 . S
C1140 C1139 1.384 . S
C1140 H1158 0.928 . S
C1141 C1138 1.260 . S
C1141 C1139 1.479 . S
C1142 C1137 1.245 . S
C1142 C1138 1.477 . S
C1142 H1159 0.932 . S
C1143 U1126 2.882 . S
C1143 C1137 1.428 . S
C1143 O1146 1.301 . S
C1143 O1147 1.282 . S
O1144 U1126 2.441 1_655 S
O1144 C1130 1.249 . S
O1145 U1126 2.420 1_655 S
O1145 C1130 1.202 . S
O1146 U1126 2.455 . S
O1146 C1143 1.301 . S
O1147 U1126 2.449 . S
O1147 C1143 1.282 . S
H1148 C1121 0.931 . S
H1149 C1123 0.929 . S
H1150 C1124 0.930 . S
H1151 C1125 0.931 . S
H1152 C1132 0.932 . S
H1153 C1133 0.930 . S
H1154 C1134 0.929 . S
H1155 C1136 0.930 . S
H1156 C1138 0.932 . S
H1157 C1139 0.929 . S
H1158 C1140 0.928 . S
H1159 C1142 0.932 . S
C1160 C1161 1.264 . S
C1160 C1165 1.479 . S
C1160 C1170 1.465 . S
C1161 C1160 1.264 . S
C1161 C1163 1.339 . S
C1161 H1188 0.931 . S
C1162 C1163 1.395 . S
C1162 C1164 1.320 . S
C1163 C1161 1.339 . S
C1163 C1162 1.395 . S
C1163 H1189 0.929 . S
C1164 C1162 1.320 . S
C1164 C1165 1.405 . S
C1164 H1190 0.930 . S
C1165 C1160 1.479 . S
C1165 C1164 1.405 . S
C1165 H1191 0.931 . S
U1166 O1167 2.454 . S
U1166 O1168 2.458 . S
U1166 C1169 2.984 . S
U1166 C1170 2.847 . S
U1166 C1183 2.882 . S
U1166 O1184 2.441 . S
U1166 O1185 2.420 . S
U1166 O1186 2.455 . S
U1166 O1187 2.449 . S
O1167 U1166 2.454 . S
O1167 C1169 1.353 . S
O1168 U1166 2.458 . S
O1168 C1169 1.286 . S
C1169 U1166 2.984 . S
C1169 O1167 1.353 . S
C1169 O1168 1.286 . S
C1169 C1171 1.363 . S
C1170 C1160 1.465 . S
C1170 U1166 2.847 . S
C1170 O1184 1.249 . S
C1170 O1185 1.202 . S
C1171 C1169 1.363 . S
C1171 C1173 1.408 . S
C1171 C1176 1.342 . S
C1172 C1173 1.310 . S
C1172 C1175 1.461 . S
C1172 H1192 0.932 . S
C1173 C1171 1.408 . S
C1173 C1172 1.310 . S
C1173 H1193 0.930 . S
C1174 C1175 1.474 . S
C1174 C1176 1.285 . S
C1174 H1194 0.929 . S
C1175 C1172 1.461 . S
C1175 C1174 1.474 . S
C1176 C1171 1.342 . S
C1176 C1174 1.285 . S
C1176 H1195 0.930 . S
C1177 C1180 1.424 . S
C1177 C1182 1.245 . S
C1177 C1183 1.428 . S
C1178 C1181 1.260 . S
C1178 C1182 1.477 . S
C1178 H1196 0.932 . S
C1179 C1180 1.384 . S
C1179 C1181 1.479 . S
C1179 H1197 0.929 . S
C1180 C1177 1.424 . S
C1180 C1179 1.384 . S
C1180 H1198 0.928 . S
C1181 C1178 1.260 . S
C1181 C1179 1.479 . S
C1182 C1177 1.245 . S
C1182 C1178 1.477 . S
C1182 H1199 0.932 . S
C1183 U1166 2.882 . S
C1183 C1177 1.428 . S
C1183 O1186 1.301 . S
C1183 O1187 1.282 . S
O1184 U1166 2.441 . S
O1184 C1170 1.249 . S
O1185 U1166 2.420 . S
O1185 C1170 1.202 . S
O1186 U1166 2.455 . S
O1186 C1183 1.301 . S
O1187 U1166 2.449 . S
O1187 C1183 1.282 . S
H1188 C1161 0.931 . S
H1189 C1163 0.929 . S
H1190 C1164 0.930 . S
H1191 C1165 0.931 . S
H1192 C1172 0.932 . S
H1193 C1173 0.930 . S
H1194 C1174 0.929 . S
H1195 C1176 0.930 . S
H1196 C1178 0.932 . S
H1197 C1179 0.929 . S
H1198 C1180 0.928 . S
H1199 C1182 0.932 . S
C1200 C1201 1.264 . S
C1200 C1205 1.479 . S
C1200 C1210 1.465 . S
C1201 C1200 1.264 . S
C1201 C1203 1.339 . S
C1201 H1228 0.931 . S
C1202 C1203 1.395 . S
C1202 C1204 1.320 . S
C1203 C1201 1.339 . S
C1203 C1202 1.395 . S
C1203 H1229 0.929 . S
C1204 C1202 1.320 . S
C1204 C1205 1.405 . S
C1204 H1230 0.930 . S
C1205 C1200 1.479 . S
C1205 C1204 1.405 . S
C1205 H1231 0.931 . S
U1206 O1207 2.454 . S
U1206 O1208 2.458 . S
U1206 C1209 2.984 . S
U1206 C1210 2.847 . S
U1206 C1223 2.882 . S
U1206 O1224 2.441 . S
U1206 O1225 2.420 . S
U1206 O1226 2.455 . S
U1206 O1227 2.449 . S
O1207 U1206 2.454 . S
O1207 C1209 1.353 . S
O1208 U1206 2.458 . S
O1208 C1209 1.286 . S
C1209 U1206 2.984 . S
C1209 O1207 1.353 . S
C1209 O1208 1.286 . S
C1209 C1211 1.363 . S
C1210 C1200 1.465 . S
C1210 U1206 2.847 . S
C1210 O1224 1.249 . S
C1210 O1225 1.202 . S
C1211 C1209 1.363 . S
C1211 C1213 1.408 . S
C1211 C1216 1.342 . S
C1212 C1213 1.310 . S
C1212 C1215 1.461 . S
C1212 H1232 0.932 . S
C1213 C1211 1.408 . S
C1213 C1212 1.310 . S
C1213 H1233 0.930 . S
C1214 C1215 1.474 . S
C1214 C1216 1.285 . S
C1214 H1234 0.929 . S
C1215 C1212 1.461 . S
C1215 C1214 1.474 . S
C1216 C1211 1.342 . S
C1216 C1214 1.285 . S
C1216 H1235 0.930 . S
C1217 C1220 1.424 . S
C1217 C1222 1.245 . S
C1217 C1223 1.428 . S
C1218 C1221 1.260 . S
C1218 C1222 1.477 . S
C1218 H1236 0.932 . S
C1219 C1220 1.384 . S
C1219 C1221 1.479 . S
C1219 H1237 0.929 . S
C1220 C1217 1.424 . S
C1220 C1219 1.384 . S
C1220 H1238 0.928 . S
C1221 C1218 1.260 . S
C1221 C1219 1.479 . S
C1222 C1217 1.245 . S
C1222 C1218 1.477 . S
C1222 H1239 0.932 . S
C1223 U1206 2.882 . S
C1223 C1217 1.428 . S
C1223 O1226 1.301 . S
C1223 O1227 1.282 . S
O1224 U1206 2.441 . S
O1224 C1210 1.249 . S
O1225 U1206 2.420 . S
O1225 C1210 1.202 . S
O1226 U1206 2.455 . S
O1226 C1223 1.301 . S
O1227 U1206 2.449 . S
O1227 C1223 1.282 . S
H1228 C1201 0.931 . S
H1229 C1203 0.929 . S
H1230 C1204 0.930 . S
H1231 C1205 0.931 . S
H1232 C1212 0.932 . S
H1233 C1213 0.930 . S
H1234 C1214 0.929 . S
H1235 C1216 0.930 . S
H1236 C1218 0.932 . S
H1237 C1219 0.929 . S
H1238 C1220 0.928 . S
H1239 C1222 0.932 . S
C1240 C1241 1.264 . S
C1240 C1245 1.479 . S
C1240 C1250 1.465 . S
C1241 C1240 1.264 . S
C1241 C1243 1.339 . S
C1241 H1268 0.931 . S
C1242 C1243 1.395 . S
C1242 C1244 1.320 . S
C1243 C1241 1.339 . S
C1243 C1242 1.395 . S
C1243 H1269 0.929 . S
C1244 C1242 1.320 . S
C1244 C1245 1.405 . S
C1244 H1270 0.930 . S
C1245 C1240 1.479 . S
C1245 C1244 1.405 . S
C1245 H1271 0.931 . S
U1246 O1247 2.454 . S
U1246 O1248 2.458 . S
U1246 C1249 2.984 . S
U1246 C1250 2.847 . S
U1246 C1263 2.882 . S
U1246 O1264 2.441 . S
U1246 O1265 2.420 . S
U1246 O1266 2.455 . S
U1246 O1267 2.449 . S
O1247 U1246 2.454 . S
O1247 C1249 1.353 . S
O1248 U1246 2.458 . S
O1248 C1249 1.286 . S
C1249 U1246 2.984 . S
C1249 O1247 1.353 . S
C1249 O1248 1.286 . S
C1249 C1251 1.363 . S
C1250 C1240 1.465 . S
C1250 U1246 2.847 . S
C1250 O1264 1.249 . S
C1250 O1265 1.202 . S
C1251 C1249 1.363 . S
C1251 C1253 1.408 1_655 S
C1251 C1256 1.342 . S
C1252 C1253 1.310 . S
C1252 C1255 1.461 . S
C1252 H1272 0.932 . S
C1253 C1251 1.408 1_455 S
C1253 C1252 1.310 . S
C1253 H1273 0.930 . S
C1254 C1255 1.474 . S
C1254 C1256 1.285 1_455 S
C1254 H1274 0.929 . S
C1255 C1252 1.461 . S
C1255 C1254 1.474 . S
C1256 C1251 1.342 . S
C1256 C1254 1.285 1_655 S
C1256 H1275 0.930 . S
C1257 C1260 1.424 . S
C1257 C1262 1.245 . S
C1257 C1263 1.428 . S
C1258 C1261 1.260 . S
C1258 C1262 1.477 . S
C1258 H1276 0.932 . S
C1259 C1260 1.384 . S
C1259 C1261 1.479 . S
C1259 H1277 0.929 . S
C1260 C1257 1.424 . S
C1260 C1259 1.384 . S
C1260 H1278 0.928 . S
C1261 C1258 1.260 . S
C1261 C1259 1.479 . S
C1262 C1257 1.245 . S
C1262 C1258 1.477 . S
C1262 H1279 0.932 . S
C1263 U1246 2.882 . S
C1263 C1257 1.428 . S
C1263 O1266 1.301 . S
C1263 O1267 1.282 . S
O1264 U1246 2.441 . S
O1264 C1250 1.249 . S
O1265 U1246 2.420 . S
O1265 C1250 1.202 . S
O1266 U1246 2.455 . S
O1266 C1263 1.301 . S
O1267 U1246 2.449 . S
O1267 C1263 1.282 . S
H1268 C1241 0.931 . S
H1269 C1243 0.929 . S
H1270 C1244 0.930 . S
H1271 C1245 0.931 . S
H1272 C1252 0.932 . S
H1273 C1253 0.930 . S
H1274 C1254 0.929 . S
H1275 C1256 0.930 . S
H1276 C1258 0.932 . S
H1277 C1259 0.929 . S
H1278 C1260 0.928 . S
H1279 C1262 0.932 . S
C1280 C1281 1.264 . S
C1280 C1285 1.479 . S
C1280 C1290 1.465 . S
C1281 C1280 1.264 . S
C1281 C1283 1.339 . S
C1281 H1308 0.931 . S
C1282 C1283 1.395 . S
C1282 C1284 1.320 . S
C1283 C1281 1.339 . S
C1283 C1282 1.395 . S
C1283 H1309 0.929 . S
C1284 C1282 1.320 . S
C1284 C1285 1.405 . S
C1284 H1310 0.930 . S
C1285 C1280 1.479 . S
C1285 C1284 1.405 . S
C1285 H1311 0.931 . S
U1286 O1287 2.454 . S
U1286 O1288 2.458 . S
U1286 C1289 2.984 . S
U1286 C1290 2.847 . S
U1286 C1303 2.882 . S
U1286 O1304 2.441 . S
U1286 O1305 2.420 . S
U1286 O1306 2.455 . S
U1286 O1307 2.449 . S
O1287 U1286 2.454 . S
O1287 C1289 1.353 . S
O1288 U1286 2.458 . S
O1288 C1289 1.286 . S
C1289 U1286 2.984 . S
C1289 O1287 1.353 . S
C1289 O1288 1.286 . S
C1289 C1291 1.363 . S
C1290 C1280 1.465 . S
C1290 U1286 2.847 . S
C1290 O1304 1.249 . S
C1290 O1305 1.202 . S
C1291 C1289 1.363 . S
C1291 C1293 1.408 . S
C1291 C1296 1.342 . S
C1292 C1293 1.310 . S
C1292 C1295 1.461 . S
C1292 H1312 0.932 . S
C1293 C1291 1.408 . S
C1293 C1292 1.310 . S
C1293 H1313 0.930 . S
C1294 C1295 1.474 . S
C1294 C1296 1.285 . S
C1294 H1314 0.929 . S
C1295 C1292 1.461 . S
C1295 C1294 1.474 . S
C1296 C1291 1.342 . S
C1296 C1294 1.285 . S
C1296 H1315 0.930 . S
C1297 C1300 1.424 . S
C1297 C1302 1.245 . S
C1297 C1303 1.428 . S
C1298 C1301 1.260 . S
C1298 C1302 1.477 . S
C1298 H1316 0.932 . S
C1299 C1300 1.384 . S
C1299 C1301 1.479 . S
C1299 H1317 0.929 . S
C1300 C1297 1.424 . S
C1300 C1299 1.384 . S
C1300 H1318 0.928 . S
C1301 C1298 1.260 . S
C1301 C1299 1.479 . S
C1302 C1297 1.245 . S
C1302 C1298 1.477 . S
C1302 H1319 0.932 . S
C1303 U1286 2.882 . S
C1303 C1297 1.428 . S
C1303 O1306 1.301 . S
C1303 O1307 1.282 . S
O1304 U1286 2.441 . S
O1304 C1290 1.249 . S
O1305 U1286 2.420 . S
O1305 C1290 1.202 . S
O1306 U1286 2.455 . S
O1306 C1303 1.301 . S
O1307 U1286 2.449 . S
O1307 C1303 1.282 . S
H1308 C1281 0.931 . S
H1309 C1283 0.929 . S
H1310 C1284 0.930 . S
H1311 C1285 0.931 . S
H1312 C1292 0.932 . S
H1313 C1293 0.930 . S
H1314 C1294 0.929 . S
H1315 C1296 0.930 . S
H1316 C1298 0.932 . S
H1317 C1299 0.929 . S
H1318 C1300 0.928 . S
H1319 C1302 0.932 . S
C1320 C1321 1.264 . S
C1320 C1325 1.479 . S
C1320 C1330 1.465 . S
C1321 C1320 1.264 . S
C1321 C1323 1.339 . S
C1321 H1348 0.931 . S
C1322 C1323 1.395 . S
C1322 C1324 1.320 . S
C1323 C1321 1.339 . S
C1323 C1322 1.395 . S
C1323 H1349 0.929 . S
C1324 C1322 1.320 . S
C1324 C1325 1.405 . S
C1324 H1350 0.930 . S
C1325 C1320 1.479 . S
C1325 C1324 1.405 . S
C1325 H1351 0.931 . S
U1326 O1327 2.454 . S
U1326 O1328 2.458 . S
U1326 C1329 2.984 . S
U1326 C1330 2.847 . S
U1326 C1343 2.882 . S
U1326 O1344 2.441 . S
U1326 O1345 2.420 . S
U1326 O1346 2.455 . S
U1326 O1347 2.449 . S
O1327 U1326 2.454 . S
O1327 C1329 1.353 . S
O1328 U1326 2.458 . S
O1328 C1329 1.286 . S
C1329 U1326 2.984 . S
C1329 O1327 1.353 . S
C1329 O1328 1.286 . S
C1329 C1331 1.363 . S
C1330 C1320 1.465 . S
C1330 U1326 2.847 . S
C1330 O1344 1.249 . S
C1330 O1345 1.202 . S
C1331 C1329 1.363 . S
C1331 C1333 1.408 1_556 S
C1331 C1336 1.342 . S
C1332 C1333 1.310 . S
C1332 C1335 1.461 . S
C1332 H1352 0.932 . S
C1333 C1331 1.408 1_554 S
C1333 C1332 1.310 . S
C1333 H1353 0.930 . S
C1334 C1335 1.474 . S
C1334 C1336 1.285 1_554 S
C1334 H1354 0.929 . S
C1335 C1332 1.461 . S
C1335 C1334 1.474 . S
C1336 C1331 1.342 . S
C1336 C1334 1.285 1_556 S
C1336 H1355 0.930 . S
C1337 C1340 1.424 . S
C1337 C1342 1.245 . S
C1337 C1343 1.428 . S
C1338 C1341 1.260 . S
C1338 C1342 1.477 . S
C1338 H1356 0.932 . S
C1339 C1340 1.384 . S
C1339 C1341 1.479 . S
C1339 H1357 0.929 . S
C1340 C1337 1.424 . S
C1340 C1339 1.384 . S
C1340 H1358 0.928 . S
C1341 C1338 1.260 . S
C1341 C1339 1.479 . S
C1342 C1337 1.245 . S
C1342 C1338 1.477 . S
C1342 H1359 0.932 . S
C1343 U1326 2.882 . S
C1343 C1337 1.428 . S
C1343 O1346 1.301 . S
C1343 O1347 1.282 . S
O1344 U1326 2.441 . S
O1344 C1330 1.249 . S
O1345 U1326 2.420 . S
O1345 C1330 1.202 . S
O1346 U1326 2.455 . S
O1346 C1343 1.301 . S
O1347 U1326 2.449 . S
O1347 C1343 1.282 . S
H1348 C1321 0.931 . S
H1349 C1323 0.929 . S
H1350 C1324 0.930 . S
H1351 C1325 0.931 . S
H1352 C1332 0.932 . S
H1353 C1333 0.930 . S
H1354 C1334 0.929 . S
H1355 C1336 0.930 . S
H1356 C1338 0.932 . S
H1357 C1339 0.929 . S
H1358 C1340 0.928 . S
H1359 C1342 0.932 . S
C1360 C1361 1.264 . S
C1360 C1365 1.479 . S
C1360 C1370 1.465 . S
C1361 C1360 1.264 . S
C1361 C1363 1.339 . S
C1361 H1388 0.931 . S
C1362 C1363 1.395 . S
C1362 C1364 1.320 . S
C1363 C1361 1.339 . S
C1363 C1362 1.395 . S
C1363 H1389 0.929 . S
C1364 C1362 1.320 . S
C1364 C1365 1.405 . S
C1364 H1390 0.930 . S
C1365 C1360 1.479 . S
C1365 C1364 1.405 . S
C1365 H1391 0.931 . S
U1366 O1367 2.454 . S
U1366 O1368 2.458 . S
U1366 C1369 2.984 . S
U1366 C1370 2.847 . S
U1366 C1383 2.882 . S
U1366 O1384 2.441 . S
U1366 O1385 2.420 . S
U1366 O1386 2.455 . S
U1366 O1387 2.449 . S
O1367 U1366 2.454 . S
O1367 C1369 1.353 . S
O1368 U1366 2.458 . S
O1368 C1369 1.286 . S
C1369 U1366 2.984 . S
C1369 O1367 1.353 . S
C1369 O1368 1.286 . S
C1369 C1371 1.363 . S
C1370 C1360 1.465 . S
C1370 U1366 2.847 . S
C1370 O1384 1.249 . S
C1370 O1385 1.202 . S
C1371 C1369 1.363 . S
C1371 C1373 1.408 . S
C1371 C1376 1.342 . S
C1372 C1373 1.310 . S
C1372 C1375 1.461 . S
C1372 H1392 0.932 . S
C1373 C1371 1.408 . S
C1373 C1372 1.310 . S
C1373 H1393 0.930 . S
C1374 C1375 1.474 . S
C1374 C1376 1.285 . S
C1374 H1394 0.929 . S
C1375 C1372 1.461 . S
C1375 C1374 1.474 . S
C1376 C1371 1.342 . S
C1376 C1374 1.285 . S
C1376 H1395 0.930 . S
C1377 C1380 1.424 . S
C1377 C1382 1.245 . S
C1377 C1383 1.428 . S
C1378 C1381 1.260 . S
C1378 C1382 1.477 . S
C1378 H1396 0.932 . S
C1379 C1380 1.384 . S
C1379 C1381 1.479 . S
C1379 H1397 0.929 . S
C1380 C1377 1.424 . S
C1380 C1379 1.384 . S
C1380 H1398 0.928 . S
C1381 C1378 1.260 . S
C1381 C1379 1.479 . S
C1382 C1377 1.245 . S
C1382 C1378 1.477 . S
C1382 H1399 0.932 . S
C1383 U1366 2.882 . S
C1383 C1377 1.428 . S
C1383 O1386 1.301 . S
C1383 O1387 1.282 . S
O1384 U1366 2.441 . S
O1384 C1370 1.249 . S
O1385 U1366 2.420 . S
O1385 C1370 1.202 . S
O1386 U1366 2.455 . S
O1386 C1383 1.301 . S
O1387 U1366 2.449 . S
O1387 C1383 1.282 . S
H1388 C1361 0.931 . S
H1389 C1363 0.929 . S
H1390 C1364 0.930 . S
H1391 C1365 0.931 . S
H1392 C1372 0.932 . S
H1393 C1373 0.930 . S
H1394 C1374 0.929 . S
H1395 C1376 0.930 . S
H1396 C1378 0.932 . S
H1397 C1379 0.929 . S
H1398 C1380 0.928 . S
H1399 C1382 0.932 . S
C1400 C1401 1.264 . S
C1400 C1405 1.479 . S
C1400 C1410 1.465 . S
C1401 C1400 1.264 . S
C1401 C1403 1.339 . S
C1401 H1428 0.931 . S
C1402 C1403 1.395 . S
C1402 C1404 1.320 . S
C1403 C1401 1.339 . S
C1403 C1402 1.395 . S
C1403 H1429 0.929 . S
C1404 C1402 1.320 . S
C1404 C1405 1.405 . S
C1404 H1430 0.930 . S
C1405 C1400 1.479 . S
C1405 C1404 1.405 . S
C1405 H1431 0.931 . S
U1406 O1407 2.454 . S
U1406 O1408 2.458 . S
U1406 C1409 2.984 . S
U1406 C1410 2.847 . S
U1406 C1423 2.882 . S
U1406 O1424 2.441 . S
U1406 O1425 2.420 . S
U1406 O1426 2.455 . S
U1406 O1427 2.449 . S
O1407 U1406 2.454 . S
O1407 C1409 1.353 . S
O1408 U1406 2.458 . S
O1408 C1409 1.286 . S
C1409 U1406 2.984 . S
C1409 O1407 1.353 . S
C1409 O1408 1.286 . S
C1409 C1411 1.363 . S
C1410 C1400 1.465 . S
C1410 U1406 2.847 . S
C1410 O1424 1.249 . S
C1410 O1425 1.202 . S
C1411 C1409 1.363 . S
C1411 C1413 1.408 . S
C1411 C1416 1.342 . S
C1412 C1413 1.310 . S
C1412 C1415 1.461 . S
C1412 H1432 0.932 . S
C1413 C1411 1.408 . S
C1413 C1412 1.310 . S
C1413 H1433 0.930 . S
C1414 C1415 1.474 . S
C1414 C1416 1.285 . S
C1414 H1434 0.929 . S
C1415 C1412 1.461 . S
C1415 C1414 1.474 . S
C1416 C1411 1.342 . S
C1416 C1414 1.285 . S
C1416 H1435 0.930 . S
C1417 C1420 1.424 . S
C1417 C1422 1.245 . S
C1417 C1423 1.428 . S
C1418 C1421 1.260 . S
C1418 C1422 1.477 . S
C1418 H1436 0.932 . S
C1419 C1420 1.384 . S
C1419 C1421 1.479 . S
C1419 H1437 0.929 . S
C1420 C1417 1.424 . S
C1420 C1419 1.384 . S
C1420 H1438 0.928 . S
C1421 C1418 1.260 . S
C1421 C1419 1.479 . S
C1422 C1417 1.245 . S
C1422 C1418 1.477 . S
C1422 H1439 0.932 . S
C1423 U1406 2.882 . S
C1423 C1417 1.428 . S
C1423 O1426 1.301 . S
C1423 O1427 1.282 . S
O1424 U1406 2.441 . S
O1424 C1410 1.249 . S
O1425 U1406 2.420 . S
O1425 C1410 1.202 . S
O1426 U1406 2.455 . S
O1426 C1423 1.301 . S
O1427 U1406 2.449 . S
O1427 C1423 1.282 . S
H1428 C1401 0.931 . S
H1429 C1403 0.929 . S
H1430 C1404 0.930 . S
H1431 C1405 0.931 . S
H1432 C1412 0.932 . S
H1433 C1413 0.930 . S
H1434 C1414 0.929 . S
H1435 C1416 0.930 . S
H1436 C1418 0.932 . S
H1437 C1419 0.929 . S
H1438 C1420 0.928 . S
H1439 C1422 0.932 . S
C1440 C1441 1.264 . S
C1440 C1445 1.479 . S
C1440 C1450 1.465 . S
C1441 C1440 1.264 . S
C1441 C1443 1.339 . S
C1441 H1468 0.931 . S
C1442 C1443 1.395 . S
C1442 C1444 1.320 . S
C1443 C1441 1.339 . S
C1443 C1442 1.395 . S
C1443 H1469 0.929 . S
C1444 C1442 1.320 . S
C1444 C1445 1.405 . S
C1444 H1470 0.930 . S
C1445 C1440 1.479 . S
C1445 C1444 1.405 . S
C1445 H1471 0.931 . S
U1446 O1447 2.454 . S
U1446 O1448 2.458 . S
U1446 C1449 2.984 . S
U1446 C1450 2.847 . S
U1446 C1463 2.882 . S
U1446 O1464 2.441 . S
U1446 O1465 2.420 . S
U1446 O1466 2.455 . S
U1446 O1467 2.449 . S
O1447 U1446 2.454 . S
O1447 C1449 1.353 . S
O1448 U1446 2.458 . S
O1448 C1449 1.286 . S
C1449 U1446 2.984 . S
C1449 O1447 1.353 . S
C1449 O1448 1.286 . S
C1449 C1451 1.363 . S
C1450 C1440 1.465 . S
C1450 U1446 2.847 . S
C1450 O1464 1.249 . S
C1450 O1465 1.202 . S
C1451 C1449 1.363 . S
C1451 C1453 1.408 . S
C1451 C1456 1.342 . S
C1452 C1453 1.310 . S
C1452 C1455 1.461 . S
C1452 H1472 0.932 . S
C1453 C1451 1.408 . S
C1453 C1452 1.310 . S
C1453 H1473 0.930 . S
C1454 C1455 1.474 . S
C1454 C1456 1.285 . S
C1454 H1474 0.929 . S
C1455 C1452 1.461 . S
C1455 C1454 1.474 . S
C1456 C1451 1.342 . S
C1456 C1454 1.285 . S
C1456 H1475 0.930 . S
C1457 C1460 1.424 . S
C1457 C1462 1.245 . S
C1457 C1463 1.428 . S
C1458 C1461 1.260 . S
C1458 C1462 1.477 . S
C1458 H1476 0.932 . S
C1459 C1460 1.384 . S
C1459 C1461 1.479 . S
C1459 H1477 0.929 . S
C1460 C1457 1.424 . S
C1460 C1459 1.384 . S
C1460 H1478 0.928 . S
C1461 C1458 1.260 . S
C1461 C1459 1.479 . S
C1462 C1457 1.245 . S
C1462 C1458 1.477 . S
C1462 H1479 0.932 . S
C1463 U1446 2.882 . S
C1463 C1457 1.428 . S
C1463 O1466 1.301 . S
C1463 O1467 1.282 . S
O1464 U1446 2.441 . S
O1464 C1450 1.249 . S
O1465 U1446 2.420 . S
O1465 C1450 1.202 . S
O1466 U1446 2.455 . S
O1466 C1463 1.301 . S
O1467 U1446 2.449 . S
O1467 C1463 1.282 . S
H1468 C1441 0.931 . S
H1469 C1443 0.929 . S
H1470 C1444 0.930 . S
H1471 C1445 0.931 . S
H1472 C1452 0.932 . S
H1473 C1453 0.930 . S
H1474 C1454 0.929 . S
H1475 C1456 0.930 . S
H1476 C1458 0.932 . S
H1477 C1459 0.929 . S
H1478 C1460 0.928 . S
H1479 C1462 0.932 . S
C1480 C1481 1.264 . S
C1480 C1485 1.479 . S
C1480 C1490 1.465 . S
C1481 C1480 1.264 . S
C1481 C1483 1.339 . S
C1481 H1508 0.931 . S
C1482 C1483 1.395 . S
C1482 C1484 1.320 . S
C1483 C1481 1.339 . S
C1483 C1482 1.395 . S
C1483 H1509 0.929 . S
C1484 C1482 1.320 . S
C1484 C1485 1.405 . S
C1484 H1510 0.930 . S
C1485 C1480 1.479 . S
C1485 C1484 1.405 . S
C1485 H1511 0.931 . S
U1486 O1487 2.454 . S
U1486 O1488 2.458 . S
U1486 C1489 2.984 . S
U1486 C1490 2.847 . S
U1486 C1503 2.882 . S
U1486 O1504 2.441 . S
U1486 O1505 2.420 . S
U1486 O1506 2.455 . S
U1486 O1507 2.449 . S
O1487 U1486 2.454 . S
O1487 C1489 1.353 . S
O1488 U1486 2.458 . S
O1488 C1489 1.286 . S
C1489 U1486 2.984 . S
C1489 O1487 1.353 . S
C1489 O1488 1.286 . S
C1489 C1491 1.363 . S
C1490 C1480 1.465 . S
C1490 U1486 2.847 . S
C1490 O1504 1.249 . S
C1490 O1505 1.202 . S
C1491 C1489 1.363 . S
C1491 C1493 1.408 . S
C1491 C1496 1.342 . S
C1492 C1493 1.310 . S
C1492 C1495 1.461 . S
C1492 H1512 0.932 . S
C1493 C1491 1.408 . S
C1493 C1492 1.310 . S
C1493 H1513 0.930 . S
C1494 C1495 1.474 . S
C1494 C1496 1.285 . S
C1494 H1514 0.929 . S
C1495 C1492 1.461 . S
C1495 C1494 1.474 . S
C1496 C1491 1.342 . S
C1496 C1494 1.285 . S
C1496 H1515 0.930 . S
C1497 C1500 1.424 . S
C1497 C1502 1.245 . S
C1497 C1503 1.428 . S
C1498 C1501 1.260 . S
C1498 C1502 1.477 . S
C1498 H1516 0.932 . S
C1499 C1500 1.384 . S
C1499 C1501 1.479 . S
C1499 H1517 0.929 . S
C1500 C1497 1.424 . S
C1500 C1499 1.384 . S
C1500 H1518 0.928 . S
C1501 C1498 1.260 . S
C1501 C1499 1.479 . S
C1502 C1497 1.245 . S
C1502 C1498 1.477 . S
C1502 H1519 0.932 . S
C1503 U1486 2.882 . S
C1503 C1497 1.428 . S
C1503 O1506 1.301 . S
C1503 O1507 1.282 . S
O1504 U1486 2.441 . S
O1504 C1490 1.249 . S
O1505 U1486 2.420 . S
O1505 C1490 1.202 . S
O1506 U1486 2.455 . S
O1506 C1503 1.301 . S
O1507 U1486 2.449 . S
O1507 C1503 1.282 . S
H1508 C1481 0.931 . S
H1509 C1483 0.929 . S
H1510 C1484 0.930 . S
H1511 C1485 0.931 . S
H1512 C1492 0.932 . S
H1513 C1493 0.930 . S
H1514 C1494 0.929 . S
H1515 C1496 0.930 . S
H1516 C1498 0.932 . S
H1517 C1499 0.929 . S
H1518 C1500 0.928 . S
H1519 C1502 0.932 . S
C1520 C1521 1.264 . S
C1520 C1525 1.479 . S
C1520 C1530 1.465 . S
C1521 C1520 1.264 . S
C1521 C1523 1.339 . S
C1521 H1548 0.931 . S
C1522 C1523 1.395 . S
C1522 C1524 1.320 . S
C1523 C1521 1.339 . S
C1523 C1522 1.395 . S
C1523 H1549 0.929 . S
C1524 C1522 1.320 . S
C1524 C1525 1.405 . S
C1524 H1550 0.930 . S
C1525 C1520 1.479 . S
C1525 C1524 1.405 . S
C1525 H1551 0.931 . S
U1526 O1527 2.454 . S
U1526 O1528 2.458 . S
U1526 C1529 2.984 . S
U1526 C1530 2.847 . S
U1526 C1543 2.882 . S
U1526 O1544 2.441 . S
U1526 O1545 2.420 . S
U1526 O1546 2.455 . S
U1526 O1547 2.449 . S
O1527 U1526 2.454 . S
O1527 C1529 1.353 . S
O1528 U1526 2.458 . S
O1528 C1529 1.286 . S
C1529 U1526 2.984 . S
C1529 O1527 1.353 . S
C1529 O1528 1.286 . S
C1529 C1531 1.363 . S
C1530 C1520 1.465 . S
C1530 U1526 2.847 . S
C1530 O1544 1.249 . S
C1530 O1545 1.202 . S
C1531 C1529 1.363 . S
C1531 C1533 1.408 . S
C1531 C1536 1.342 . S
C1532 C1533 1.310 . S
C1532 C1535 1.461 . S
C1532 H1552 0.932 . S
C1533 C1531 1.408 . S
C1533 C1532 1.310 . S
C1533 H1553 0.930 . S
C1534 C1535 1.474 . S
C1534 C1536 1.285 . S
C1534 H1554 0.929 . S
C1535 C1532 1.461 . S
C1535 C1534 1.474 . S
C1536 C1531 1.342 . S
C1536 C1534 1.285 . S
C1536 H1555 0.930 . S
C1537 C1540 1.424 . S
C1537 C1542 1.245 . S
C1537 C1543 1.428 . S
C1538 C1541 1.260 . S
C1538 C1542 1.477 . S
C1538 H1556 0.932 . S
C1539 C1540 1.384 . S
C1539 C1541 1.479 . S
C1539 H1557 0.929 . S
C1540 C1537 1.424 . S
C1540 C1539 1.384 . S
C1540 H1558 0.928 . S
C1541 C1538 1.260 . S
C1541 C1539 1.479 . S
C1542 C1537 1.245 . S
C1542 C1538 1.477 . S
C1542 H1559 0.932 . S
C1543 U1526 2.882 . S
C1543 C1537 1.428 . S
C1543 O1546 1.301 . S
C1543 O1547 1.282 . S
O1544 U1526 2.441 . S
O1544 C1530 1.249 . S
O1545 U1526 2.420 . S
O1545 C1530 1.202 . S
O1546 U1526 2.455 . S
O1546 C1543 1.301 . S
O1547 U1526 2.449 . S
O1547 C1543 1.282 . S
H1548 C1521 0.931 . S
H1549 C1523 0.929 . S
H1550 C1524 0.930 . S
H1551 C1525 0.931 . S
H1552 C1532 0.932 . S
H1553 C1533 0.930 . S
H1554 C1534 0.929 . S
H1555 C1536 0.930 . S
H1556 C1538 0.932 . S
H1557 C1539 0.929 . S
H1558 C1540 0.928 . S
H1559 C1542 0.932 . S
C1560 C1561 1.264 . S
C1560 C1565 1.479 . S
C1560 C1570 1.465 . S
C1561 C1560 1.264 . S
C1561 C1563 1.339 . S
C1561 H1588 0.931 . S
C1562 C1563 1.395 . S
C1562 C1564 1.320 . S
C1563 C1561 1.339 . S
C1563 C1562 1.395 . S
C1563 H1589 0.929 . S
C1564 C1562 1.320 . S
C1564 C1565 1.405 . S
C1564 H1590 0.930 . S
C1565 C1560 1.479 . S
C1565 C1564 1.405 . S
C1565 H1591 0.931 . S
U1566 O1567 2.454 . S
U1566 O1568 2.458 . S
U1566 C1569 2.984 . S
U1566 C1570 2.847 . S
U1566 C1583 2.882 . S
U1566 O1584 2.441 . S
U1566 O1585 2.420 . S
U1566 O1586 2.455 . S
U1566 O1587 2.449 . S
O1567 U1566 2.454 . S
O1567 C1569 1.353 . S
O1568 U1566 2.458 . S
O1568 C1569 1.286 . S
C1569 U1566 2.984 . S
C1569 O1567 1.353 . S
C1569 O1568 1.286 . S
C1569 C1571 1.363 . S
C1570 C1560 1.465 . S
C1570 U1566 2.847 . S
C1570 O1584 1.249 . S
C1570 O1585 1.202 . S
C1571 C1569 1.363 . S
C1571 C1573 1.408 . S
C1571 C1576 1.342 . S
C1572 C1573 1.310 . S
C1572 C1575 1.461 . S
C1572 H1592 0.932 . S
C1573 C1571 1.408 . S
C1573 C1572 1.310 . S
C1573 H1593 0.930 . S
C1574 C1575 1.474 . S
C1574 C1576 1.285 . S
C1574 H1594 0.929 . S
C1575 C1572 1.461 . S
C1575 C1574 1.474 . S
C1576 C1571 1.342 . S
C1576 C1574 1.285 . S
C1576 H1595 0.930 . S
C1577 C1580 1.424 . S
C1577 C1582 1.245 . S
C1577 C1583 1.428 . S
C1578 C1581 1.260 . S
C1578 C1582 1.477 . S
C1578 H1596 0.932 . S
C1579 C1580 1.384 . S
C1579 C1581 1.479 . S
C1579 H1597 0.929 . S
C1580 C1577 1.424 . S
C1580 C1579 1.384 . S
C1580 H1598 0.928 . S
C1581 C1578 1.260 . S
C1581 C1579 1.479 . S
C1582 C1577 1.245 . S
C1582 C1578 1.477 . S
C1582 H1599 0.932 . S
C1583 U1566 2.882 . S
C1583 C1577 1.428 . S
C1583 O1586 1.301 . S
C1583 O1587 1.282 . S
O1584 U1566 2.441 . S
O1584 C1570 1.249 . S
O1585 U1566 2.420 . S
O1585 C1570 1.202 . S
O1586 U1566 2.455 . S
O1586 C1583 1.301 . S
O1587 U1566 2.449 . S
O1587 C1583 1.282 . S
H1588 C1561 0.931 . S
H1589 C1563 0.929 . S
H1590 C1564 0.930 . S
H1591 C1565 0.931 . S
H1592 C1572 0.932 . S
H1593 C1573 0.930 . S
H1594 C1574 0.929 . S
H1595 C1576 0.930 . S
H1596 C1578 0.932 . S
H1597 C1579 0.929 . S
H1598 C1580 0.928 . S
H1599 C1582 0.932 . S
C1600 C1601 1.264 . S
C1600 C1605 1.479 . S
C1600 C1610 1.465 . S
C1601 C1600 1.264 . S
C1601 C1603 1.339 . S
C1601 H1628 0.931 . S
C1602 C1603 1.395 . S
C1602 C1604 1.320 . S
C1603 C1601 1.339 . S
C1603 C1602 1.395 . S
C1603 H1629 0.929 . S
C1604 C1602 1.320 . S
C1604 C1605 1.405 . S
C1604 H1630 0.930 . S
C1605 C1600 1.479 . S
C1605 C1604 1.405 . S
C1605 H1631 0.931 . S
U1606 O1607 2.454 . S
U1606 O1608 2.458 . S
U1606 C1609 2.984 . S
U1606 C1610 2.847 1_455 S
U1606 C1623 2.882 . S
U1606 O1624 2.441 1_455 S
U1606 O1625 2.420 1_455 S
U1606 O1626 2.455 . S
U1606 O1627 2.449 . S
O1607 U1606 2.454 . S
O1607 C1609 1.353 . S
O1608 U1606 2.458 . S
O1608 C1609 1.286 . S
C1609 U1606 2.984 . S
C1609 O1607 1.353 . S
C1609 O1608 1.286 . S
C1609 C1611 1.363 . S
C1610 C1600 1.465 . S
C1610 U1606 2.847 1_655 S
C1610 O1624 1.249 . S
C1610 O1625 1.202 . S
C1611 C1609 1.363 . S
C1611 C1613 1.408 . S
C1611 C1616 1.342 . S
C1612 C1613 1.310 . S
C1612 C1615 1.461 . S
C1612 H1632 0.932 . S
C1613 C1611 1.408 . S
C1613 C1612 1.310 . S
C1613 H1633 0.930 . S
C1614 C1615 1.474 . S
C1614 C1616 1.285 . S
C1614 H1634 0.929 . S
C1615 C1612 1.461 . S
C1615 C1614 1.474 . S
C1616 C1611 1.342 . S
C1616 C1614 1.285 . S
C1616 H1635 0.930 . S
C1617 C1620 1.424 . S
C1617 C1622 1.245 . S
C1617 C1623 1.428 . S
C1618 C1621 1.260 . S
C1618 C1622 1.477 . S
C1618 H1636 0.932 . S
C1619 C1620 1.384 . S
C1619 C1621 1.479 . S
C1619 H1637 0.929 . S
C1620 C1617 1.424 . S
C1620 C1619 1.384 . S
C1620 H1638 0.928 . S
C1621 C1618 1.260 . S
C1621 C1619 1.479 . S
C1622 C1617 1.245 . S
C1622 C1618 1.477 . S
C1622 H1639 0.932 . S
C1623 U1606 2.882 . S
C1623 C1617 1.428 . S
C1623 O1626 1.301 . S
C1623 O1627 1.282 . S
O1624 U1606 2.441 1_655 S
O1624 C1610 1.249 . S
O1625 U1606 2.420 1_655 S
O1625 C1610 1.202 . S
O1626 U1606 2.455 . S
O1626 C1623 1.301 . S
O1627 U1606 2.449 . S
O1627 C1623 1.282 . S
H1628 C1601 0.931 . S
H1629 C1603 0.929 . S
H1630 C1604 0.930 . S
H1631 C1605 0.931 . S
H1632 C1612 0.932 . S
H1633 C1613 0.930 . S
H1634 C1614 0.929 . S
H1635 C1616 0.930 . S
H1636 C1618 0.932 . S
H1637 C1619 0.929 . S
H1638 C1620 0.928 . S
H1639 C1622 0.932 . S
C1640 C1641 1.264 . S
C1640 C1645 1.479 . S
C1640 C1650 1.465 . S
C1641 C1640 1.264 . S
C1641 C1643 1.339 . S
C1641 H1668 0.931 . S
C1642 C1643 1.395 . S
C1642 C1644 1.320 . S
C1643 C1641 1.339 . S
C1643 C1642 1.395 . S
C1643 H1669 0.929 . S
C1644 C1642 1.320 . S
C1644 C1645 1.405 . S
C1644 H1670 0.930 . S
C1645 C1640 1.479 . S
C1645 C1644 1.405 . S
C1645 H1671 0.931 . S
U1646 O1647 2.454 . S
U1646 O1648 2.458 . S
U1646 C1649 2.984 . S
U1646 C1650 2.847 . S
U1646 C1663 2.882 . S
U1646 O1664 2.441 . S
U1646 O1665 2.420 . S
U1646 O1666 2.455 . S
U1646 O1667 2.449 . S
O1647 U1646 2.454 . S
O1647 C1649 1.353 . S
O1648 U1646 2.458 . S
O1648 C1649 1.286 . S
C1649 U1646 2.984 . S
C1649 O1647 1.353 . S
C1649 O1648 1.286 . S
C1649 C1651 1.363 . S
C1650 C1640 1.465 . S
C1650 U1646 2.847 . S
C1650 O1664 1.249 . S
C1650 O1665 1.202 . S
C1651 C1649 1.363 . S
C1651 C1653 1.408 . S
C1651 C1656 1.342 . S
C1652 C1653 1.310 . S
C1652 C1655 1.461 . S
C1652 H1672 0.932 . S
C1653 C1651 1.408 . S
C1653 C1652 1.310 . S
C1653 H1673 0.930 . S
C1654 C1655 1.474 . S
C1654 C1656 1.285 . S
C1654 H1674 0.929 . S
C1655 C1652 1.461 . S
C1655 C1654 1.474 . S
C1656 C1651 1.342 . S
C1656 C1654 1.285 . S
C1656 H1675 0.930 . S
C1657 C1660 1.424 . S
C1657 C1662 1.245 . S
C1657 C1663 1.428 . S
C1658 C1661 1.260 . S
C1658 C1662 1.477 . S
C1658 H1676 0.932 . S
C1659 C1660 1.384 . S
C1659 C1661 1.479 . S
C1659 H1677 0.929 . S
C1660 C1657 1.424 . S
C1660 C1659 1.384 . S
C1660 H1678 0.928 . S
C1661 C1658 1.260 . S
C1661 C1659 1.479 . S
C1662 C1657 1.245 . S
C1662 C1658 1.477 . S
C1662 H1679 0.932 . S
C1663 U1646 2.882 . S
C1663 C1657 1.428 . S
C1663 O1666 1.301 . S
C1663 O1667 1.282 . S
O1664 U1646 2.441 . S
O1664 C1650 1.249 . S
O1665 U1646 2.420 . S
O1665 C1650 1.202 . S
O1666 U1646 2.455 . S
O1666 C1663 1.301 . S
O1667 U1646 2.449 . S
O1667 C1663 1.282 . S
H1668 C1641 0.931 . S
H1669 C1643 0.929 . S
H1670 C1644 0.930 . S
H1671 C1645 0.931 . S
H1672 C1652 0.932 . S
H1673 C1653 0.930 . S
H1674 C1654 0.929 . S
H1675 C1656 0.930 . S
H1676 C1658 0.932 . S
H1677 C1659 0.929 . S
H1678 C1660 0.928 . S
H1679 C1662 0.932 . S
C1680 C1681 1.264 . S
C1680 C1685 1.479 . S
C1680 C1690 1.465 . S
C1681 C1680 1.264 . S
C1681 C1683 1.339 . S
C1681 H1708 0.931 . S
C1682 C1683 1.395 . S
C1682 C1684 1.320 . S
C1683 C1681 1.339 . S
C1683 C1682 1.395 . S
C1683 H1709 0.929 . S
C1684 C1682 1.320 . S
C1684 C1685 1.405 . S
C1684 H1710 0.930 . S
C1685 C1680 1.479 . S
C1685 C1684 1.405 . S
C1685 H1711 0.931 . S
U1686 O1687 2.454 1_554 S
U1686 O1688 2.458 1_554 S
U1686 C1689 2.984 1_554 S
U1686 C1690 2.847 . S
U1686 C1703 2.882 . S
U1686 O1704 2.441 . S
U1686 O1705 2.420 . S
U1686 O1706 2.455 . S
U1686 O1707 2.449 . S
O1687 U1686 2.454 1_556 S
O1687 C1689 1.353 . S
O1688 U1686 2.458 1_556 S
O1688 C1689 1.286 . S
C1689 U1686 2.984 1_556 S
C1689 O1687 1.353 . S
C1689 O1688 1.286 . S
C1689 C1691 1.363 . S
C1690 C1680 1.465 . S
C1690 U1686 2.847 . S
C1690 O1704 1.249 . S
C1690 O1705 1.202 . S
C1691 C1689 1.363 . S
C1691 C1693 1.408 . S
C1691 C1696 1.342 . S
C1692 C1693 1.310 . S
C1692 C1695 1.461 . S
C1692 H1712 0.932 . S
C1693 C1691 1.408 . S
C1693 C1692 1.310 . S
C1693 H1713 0.930 . S
C1694 C1695 1.474 . S
C1694 C1696 1.285 . S
C1694 H1714 0.929 . S
C1695 C1692 1.461 . S
C1695 C1694 1.474 . S
C1696 C1691 1.342 . S
C1696 C1694 1.285 . S
C1696 H1715 0.930 . S
C1697 C1700 1.424 . S
C1697 C1702 1.245 . S
C1697 C1703 1.428 . S
C1698 C1701 1.260 . S
C1698 C1702 1.477 . S
C1698 H1716 0.932 . S
C1699 C1700 1.384 . S
C1699 C1701 1.479 . S
C1699 H1717 0.929 . S
C1700 C1697 1.424 . S
C1700 C1699 1.384 . S
C1700 H1718 0.928 . S
C1701 C1698 1.260 . S
C1701 C1699 1.479 . S
C1702 C1697 1.245 . S
C1702 C1698 1.477 . S
C1702 H1719 0.932 . S
C1703 U1686 2.882 . S
C1703 C1697 1.428 . S
C1703 O1706 1.301 . S
C1703 O1707 1.282 . S
O1704 U1686 2.441 . S
O1704 C1690 1.249 . S
O1705 U1686 2.420 . S
O1705 C1690 1.202 . S
O1706 U1686 2.455 . S
O1706 C1703 1.301 . S
O1707 U1686 2.449 . S
O1707 C1703 1.282 . S
H1708 C1681 0.931 . S
H1709 C1683 0.929 . S
H1710 C1684 0.930 . S
H1711 C1685 0.931 . S
H1712 C1692 0.932 . S
H1713 C1693 0.930 . S
H1714 C1694 0.929 . S
H1715 C1696 0.930 . S
H1716 C1698 0.932 . S
H1717 C1699 0.929 . S
H1718 C1700 0.928 . S
H1719 C1702 0.932 . S
C1720 C1721 1.264 . S
C1720 C1725 1.479 . S
C1720 C1730 1.465 . S
C1721 C1720 1.264 . S
C1721 C1723 1.339 . S
C1721 H1748 0.931 . S
C1722 C1723 1.395 . S
C1722 C1724 1.320 . S
C1723 C1721 1.339 . S
C1723 C1722 1.395 . S
C1723 H1749 0.929 . S
C1724 C1722 1.320 . S
C1724 C1725 1.405 . S
C1724 H1750 0.930 . S
C1725 C1720 1.479 . S
C1725 C1724 1.405 . S
C1725 H1751 0.931 . S
U1726 O1727 2.454 . S
U1726 O1728 2.458 . S
U1726 C1729 2.984 . S
U1726 C1730 2.847 . S
U1726 C1743 2.882 . S
U1726 O1744 2.441 . S
U1726 O1745 2.420 . S
U1726 O1746 2.455 . S
U1726 O1747 2.449 . S
O1727 U1726 2.454 . S
O1727 C1729 1.353 . S
O1728 U1726 2.458 . S
O1728 C1729 1.286 . S
C1729 U1726 2.984 . S
C1729 O1727 1.353 . S
C1729 O1728 1.286 . S
C1729 C1731 1.363 . S
C1730 C1720 1.465 . S
C1730 U1726 2.847 . S
C1730 O1744 1.249 . S
C1730 O1745 1.202 . S
C1731 C1729 1.363 . S
C1731 C1733 1.408 . S
C1731 C1736 1.342 . S
C1732 C1733 1.310 . S
C1732 C1735 1.461 . S
C1732 H1752 0.932 . S
C1733 C1731 1.408 . S
C1733 C1732 1.310 . S
C1733 H1753 0.930 . S
C1734 C1735 1.474 . S
C1734 C1736 1.285 . S
C1734 H1754 0.929 . S
C1735 C1732 1.461 . S
C1735 C1734 1.474 . S
C1736 C1731 1.342 . S
C1736 C1734 1.285 . S
C1736 H1755 0.930 . S
C1737 C1740 1.424 . S
C1737 C1742 1.245 . S
C1737 C1743 1.428 . S
C1738 C1741 1.260 . S
C1738 C1742 1.477 . S
C1738 H1756 0.932 . S
C1739 C1740 1.384 . S
C1739 C1741 1.479 . S
C1739 H1757 0.929 . S
C1740 C1737 1.424 . S
C1740 C1739 1.384 . S
C1740 H1758 0.928 . S
C1741 C1738 1.260 . S
C1741 C1739 1.479 . S
C1742 C1737 1.245 . S
C1742 C1738 1.477 . S
C1742 H1759 0.932 . S
C1743 U1726 2.882 . S
C1743 C1737 1.428 . S
C1743 O1746 1.301 . S
C1743 O1747 1.282 . S
O1744 U1726 2.441 . S
O1744 C1730 1.249 . S
O1745 U1726 2.420 . S
O1745 C1730 1.202 . S
O1746 U1726 2.455 . S
O1746 C1743 1.301 . S
O1747 U1726 2.449 . S
O1747 C1743 1.282 . S
H1748 C1721 0.931 . S
H1749 C1723 0.929 . S
H1750 C1724 0.930 . S
H1751 C1725 0.931 . S
H1752 C1732 0.932 . S
H1753 C1733 0.930 . S
H1754 C1734 0.929 . S
H1755 C1736 0.930 . S
H1756 C1738 0.932 . S
H1757 C1739 0.929 . S
H1758 C1740 0.928 . S
H1759 C1742 0.932 . S
C1760 C1761 1.264 . S
C1760 C1765 1.479 . S
C1760 C1770 1.465 . S
C1761 C1760 1.264 . S
C1761 C1763 1.339 . S
C1761 H1788 0.931 . S
C1762 C1763 1.395 . S
C1762 C1764 1.320 . S
C1763 C1761 1.339 . S
C1763 C1762 1.395 . S
C1763 H1789 0.929 . S
C1764 C1762 1.320 . S
C1764 C1765 1.405 . S
C1764 H1790 0.930 . S
C1765 C1760 1.479 . S
C1765 C1764 1.405 . S
C1765 H1791 0.931 . S
U1766 O1767 2.454 . S
U1766 O1768 2.458 . S
U1766 C1769 2.984 . S
U1766 C1770 2.847 . S
U1766 C1783 2.882 . S
U1766 O1784 2.441 . S
U1766 O1785 2.420 . S
U1766 O1786 2.455 . S
U1766 O1787 2.449 . S
O1767 U1766 2.454 . S
O1767 C1769 1.353 . S
O1768 U1766 2.458 . S
O1768 C1769 1.286 . S
C1769 U1766 2.984 . S
C1769 O1767 1.353 . S
C1769 O1768 1.286 . S
C1769 C1771 1.363 . S
C1770 C1760 1.465 . S
C1770 U1766 2.847 . S
C1770 O1784 1.249 . S
C1770 O1785 1.202 . S
C1771 C1769 1.363 . S
C1771 C1773 1.408 . S
C1771 C1776 1.342 . S
C1772 C1773 1.310 . S
C1772 C1775 1.461 . S
C1772 H1792 0.932 . S
C1773 C1771 1.408 . S
C1773 C1772 1.310 . S
C1773 H1793 0.930 . S
C1774 C1775 1.474 . S
C1774 C1776 1.285 . S
C1774 H1794 0.929 . S
C1775 C1772 1.461 . S
C1775 C1774 1.474 . S
C1776 C1771 1.342 . S
C1776 C1774 1.285 . S
C1776 H1795 0.930 . S
C1777 C1780 1.424 . S
C1777 C1782 1.245 . S
C1777 C1783 1.428 . S
C1778 C1781 1.260 . S
C1778 C1782 1.477 . S
C1778 H1796 0.932 . S
C1779 C1780 1.384 . S
C1779 C1781 1.479 . S
C1779 H1797 0.929 . S
C1780 C1777 1.424 . S
C1780 C1779 1.384 . S
C1780 H1798 0.928 . S
C1781 C1778 1.260 . S
C1781 C1779 1.479 . S
C1782 C1777 1.245 . S
C1782 C1778 1.477 . S
C1782 H1799 0.932 . S
C1783 U1766 2.882 . S
C1783 C1777 1.428 . S
C1783 O1786 1.301 . S
C1783 O1787 1.282 . S
O1784 U1766 2.441 . S
O1784 C1770 1.249 . S
O1785 U1766 2.420 . S
O1785 C1770 1.202 . S
O1786 U1766 2.455 . S
O1786 C1783 1.301 . S
O1787 U1766 2.449 . S
O1787 C1783 1.282 . S
H1788 C1761 0.931 . S
H1789 C1763 0.929 . S
H1790 C1764 0.930 . S
H1791 C1765 0.931 . S
H1792 C1772 0.932 . S
H1793 C1773 0.930 . S
H1794 C1774 0.929 . S
H1795 C1776 0.930 . S
H1796 C1778 0.932 . S
H1797 C1779 0.929 . S
H1798 C1780 0.928 . S
H1799 C1782 0.932 . S
C1800 C1801 1.264 . S
C1800 C1805 1.479 . S
C1800 C1810 1.465 . S
C1801 C1800 1.264 . S
C1801 C1803 1.339 . S
C1801 H1828 0.931 . S
C1802 C1803 1.395 . S
C1802 C1804 1.320 . S
C1803 C1801 1.339 . S
C1803 C1802 1.395 . S
C1803 H1829 0.929 . S
C1804 C1802 1.320 . S
C1804 C1805 1.405 . S
C1804 H1830 0.930 . S
C1805 C1800 1.479 . S
C1805 C1804 1.405 . S
C1805 H1831 0.931 . S
U1806 O1807 2.454 . S
U1806 O1808 2.458 . S
U1806 C1809 2.984 . S
U1806 C1810 2.847 . S
U1806 C1823 2.882 . S
U1806 O1824 2.441 . S
U1806 O1825 2.420 . S
U1806 O1826 2.455 . S
U1806 O1827 2.449 . S
O1807 U1806 2.454 . S
O1807 C1809 1.353 . S
O1808 U1806 2.458 . S
O1808 C1809 1.286 . S
C1809 U1806 2.984 . S
C1809 O1807 1.353 . S
C1809 O1808 1.286 . S
C1809 C1811 1.363 . S
C1810 C1800 1.465 . S
C1810 U1806 2.847 . S
C1810 O1824 1.249 . S
C1810 O1825 1.202 . S
C1811 C1809 1.363 . S
C1811 C1813 1.408 . S
C1811 C1816 1.342 . S
C1812 C1813 1.310 . S
C1812 C1815 1.461 . S
C1812 H1832 0.932 . S
C1813 C1811 1.408 . S
C1813 C1812 1.310 . S
C1813 H1833 0.930 . S
C1814 C1815 1.474 . S
C1814 C1816 1.285 . S
C1814 H1834 0.929 . S
C1815 C1812 1.461 . S
C1815 C1814 1.474 . S
C1816 C1811 1.342 . S
C1816 C1814 1.285 . S
C1816 H1835 0.930 . S
C1817 C1820 1.424 . S
C1817 C1822 1.245 . S
C1817 C1823 1.428 . S
C1818 C1821 1.260 . S
C1818 C1822 1.477 . S
C1818 H1836 0.932 . S
C1819 C1820 1.384 . S
C1819 C1821 1.479 . S
C1819 H1837 0.929 . S
C1820 C1817 1.424 . S
C1820 C1819 1.384 . S
C1820 H1838 0.928 . S
C1821 C1818 1.260 . S
C1821 C1819 1.479 . S
C1822 C1817 1.245 . S
C1822 C1818 1.477 . S
C1822 H1839 0.932 . S
C1823 U1806 2.882 . S
C1823 C1817 1.428 . S
C1823 O1826 1.301 . S
C1823 O1827 1.282 . S
O1824 U1806 2.441 . S
O1824 C1810 1.249 . S
O1825 U1806 2.420 . S
O1825 C1810 1.202 . S
O1826 U1806 2.455 . S
O1826 C1823 1.301 . S
O1827 U1806 2.449 . S
O1827 C1823 1.282 . S
H1828 C1801 0.931 . S
H1829 C1803 0.929 . S
H1830 C1804 0.930 . S
H1831 C1805 0.931 . S
H1832 C1812 0.932 . S
H1833 C1813 0.930 . S
H1834 C1814 0.929 . S
H1835 C1816 0.930 . S
H1836 C1818 0.932 . S
H1837 C1819 0.929 . S
H1838 C1820 0.928 . S
H1839 C1822 0.932 . S
C1840 C1841 1.264 . S
C1840 C1845 1.479 . S
C1840 C1850 1.465 . S
C1841 C1840 1.264 . S
C1841 C1843 1.339 . S
C1841 H1868 0.931 . S
C1842 C1843 1.395 . S
C1842 C1844 1.320 . S
C1843 C1841 1.339 . S
C1843 C1842 1.395 . S
C1843 H1869 0.929 . S
C1844 C1842 1.320 . S
C1844 C1845 1.405 . S
C1844 H1870 0.930 . S
C1845 C1840 1.479 . S
C1845 C1844 1.405 . S
C1845 H1871 0.931 . S
U1846 O1847 2.454 . S
U1846 O1848 2.458 . S
U1846 C1849 2.984 . S
U1846 C1850 2.847 . S
U1846 C1863 2.882 . S
U1846 O1864 2.441 . S
U1846 O1865 2.420 . S
U1846 O1866 2.455 . S
U1846 O1867 2.449 . S
O1847 U1846 2.454 . S
O1847 C1849 1.353 . S
O1848 U1846 2.458 . S
O1848 C1849 1.286 . S
C1849 U1846 2.984 . S
C1849 O1847 1.353 . S
C1849 O1848 1.286 . S
C1849 C1851 1.363 . S
C1850 C1840 1.465 . S
C1850 U1846 2.847 . S
C1850 O1864 1.249 . S
C1850 O1865 1.202 . S
C1851 C1849 1.363 . S
C1851 C1853 1.408 . S
C1851 C1856 1.342 . S
C1852 C1853 1.310 . S
C1852 C1855 1.461 . S
C1852 H1872 0.932 . S
C1853 C1851 1.408 . S
C1853 C1852 1.310 . S
C1853 H1873 0.930 . S
C1854 C1855 1.474 . S
C1854 C1856 1.285 . S
C1854 H1874 0.929 . S
C1855 C1852 1.461 . S
C1855 C1854 1.474 . S
C1856 C1851 1.342 . S
C1856 C1854 1.285 . S
C1856 H1875 0.930 . S
C1857 C1860 1.424 . S
C1857 C1862 1.245 . S
C1857 C1863 1.428 . S
C1858 C1861 1.260 . S
C1858 C1862 1.477 . S
C1858 H1876 0.932 . S
C1859 C1860 1.384 . S
C1859 C1861 1.479 . S
C1859 H1877 0.929 . S
C1860 C1857 1.424 . S
C1860 C1859 1.384 . S
C1860 H1878 0.928 . S
C1861 C1858 1.260 . S
C1861 C1859 1.479 . S
C1862 C1857 1.245 . S
C1862 C1858 1.477 . S
C1862 H1879 0.932 . S
C1863 U1846 2.882 . S
C1863 C1857 1.428 . S
C1863 O1866 1.301 . S
C1863 O1867 1.282 . S
O1864 U1846 2.441 . S
O1864 C1850 1.249 . S
O1865 U1846 2.420 . S
O1865 C1850 1.202 . S
O1866 U1846 2.455 . S
O1866 C1863 1.301 . S
O1867 U1846 2.449 . S
O1867 C1863 1.282 . S
H1868 C1841 0.931 . S
H1869 C1843 0.929 . S
H1870 C1844 0.930 . S
H1871 C1845 0.931 . S
H1872 C1852 0.932 . S
H1873 C1853 0.930 . S
H1874 C1854 0.929 . S
H1875 C1856 0.930 . S
H1876 C1858 0.932 . S
H1877 C1859 0.929 . S
H1878 C1860 0.928 . S
H1879 C1862 0.932 . S
C1880 C1881 1.264 . S
C1880 C1885 1.479 . S
C1880 C1890 1.465 . S
C1881 C1880 1.264 . S
C1881 C1883 1.339 . S
C1881 H1908 0.931 . S
C1882 C1883 1.395 . S
C1882 C1884 1.320 . S
C1883 C1881 1.339 . S
C1883 C1882 1.395 . S
C1883 H1909 0.929 . S
C1884 C1882 1.320 . S
C1884 C1885 1.405 . S
C1884 H1910 0.930 . S
C1885 C1880 1.479 . S
C1885 C1884 1.405 . S
C1885 H1911 0.931 . S
U1886 O1887 2.454 . S
U1886 O1888 2.458 . S
U1886 C1889 2.984 . S
U1886 C1890 2.847 . S
U1886 C1903 2.882 . S
U1886 O1904 2.441 . S
U1886 O1905 2.420 . S
U1886 O1906 2.455 . S
U1886 O1907 2.449 . S
O1887 U1886 2.454 . S
O1887 C1889 1.353 . S
O1888 U1886 2.458 . S
O1888 C1889 1.286 . S
C1889 U1886 2.984 . S
C1889 O1887 1.353 . S
C1889 O1888 1.286 . S
C1889 C1891 1.363 . S
C1890 C1880 1.465 . S
C1890 U1886 2.847 . S
C1890 O1904 1.249 . S
C1890 O1905 1.202 . S
C1891 C1889 1.363 . S
C1891 C1893 1.408 . S
C1891 C1896 1.342 . S
C1892 C1893 1.310 . S
C1892 C1895 1.461 . S
C1892 H1912 0.932 . S
C1893 C1891 1.408 . S
C1893 C1892 1.310 . S
C1893 H1913 0.930 . S
C1894 C1895 1.474 . S
C1894 C1896 1.285 . S
C1894 H1914 0.929 . S
C1895 C1892 1.461 . S
C1895 C1894 1.474 . S
C1896 C1891 1.342 . S
C1896 C1894 1.285 . S
C1896 H1915 0.930 . S
C1897 C1900 1.424 . S
C1897 C1902 1.245 . S
C1897 C1903 1.428 . S
C1898 C1901 1.260 . S
C1898 C1902 1.477 . S
C1898 H1916 0.932 . S
C1899 C1900 1.384 . S
C1899 C1901 1.479 . S
C1899 H1917 0.929 . S
C1900 C1897 1.424 . S
C1900 C1899 1.384 . S
C1900 H1918 0.928 . S
C1901 C1898 1.260 . S
C1901 C1899 1.479 . S
C1902 C1897 1.245 . S
C1902 C1898 1.477 . S
C1902 H1919 0.932 . S
C1903 U1886 2.882 . S
C1903 C1897 1.428 . S
C1903 O1906 1.301 . S
C1903 O1907 1.282 . S
O1904 U1886 2.441 . S
O1904 C1890 1.249 . S
O1905 U1886 2.420 . S
O1905 C1890 1.202 . S
O1906 U1886 2.455 . S
O1906 C1903 1.301 . S
O1907 U1886 2.449 . S
O1907 C1903 1.282 . S
H1908 C1881 0.931 . S
H1909 C1883 0.929 . S
H1910 C1884 0.930 . S
H1911 C1885 0.931 . S
H1912 C1892 0.932 . S
H1913 C1893 0.930 . S
H1914 C1894 0.929 . S
H1915 C1896 0.930 . S
H1916 C1898 0.932 . S
H1917 C1899 0.929 . S
H1918 C1900 0.928 . S
H1919 C1902 0.932 . S
C1920 C1921 1.391 . S
C1920 C1924 1.391 . S
C1920 H1962 0.948 . S
C1921 C1920 1.391 . S
C1921 C1922 1.391 . S
C1922 C1921 1.391 . S
C1922 H1978 0.947 . S
C1922 C1979 1.392 . S
C1923 C1924 1.391 . S
C1923 C1927 1.397 . S
C1923 C1979 1.419 . S
C1924 C1920 1.391 . S
C1924 C1923 1.391 . S
C1924 C1925 1.399 . S
C1925 C1924 1.399 . S
C1925 C1928 1.396 . S
C1925 C1937 1.453 . S
C1925 C1938 1.684 . S
H1926 C1950 0.948 . S
C1927 C1923 1.397 . S
C1927 C1928 1.394 . S
C1927 C1946 1.723 . S
C1928 C1925 1.396 . S
C1928 C1927 1.394 . S
C1928 C1958 1.723 . S
H1929 C1952 0.947 . S
H1930 C1953 0.948 . S
H1931 C1959 0.982 . S
H1932 C1960 0.979 . S
H1933 C1960 0.980 . S
H1934 C1960 0.983 . S
H1935 C1959 0.979 . S
H1936 C1959 0.977 . S
C1937 C1925 1.453 . S
C1937 H1966 0.982 . S
C1937 H1967 0.979 . S
C1937 H1968 0.977 . S
C1938 C1925 1.684 . S
C1938 H1963 0.979 . S
C1938 H1964 0.980 . S
C1938 H1965 0.983 . S
C1939 C1940 1.391 . S
C1939 C1944 1.391 . S
C1939 H1969 0.948 . S
C1940 C1939 1.391 . S
C1940 C1941 1.391 . S
C1941 C1940 1.391 . S
C1941 C1942 1.392 . S
C1941 H1970 0.947 . S
C1942 C1941 1.392 . S
C1942 C1943 1.419 . S
C1942 H1971 0.948 . S
C1943 C1942 1.419 . S
C1943 C1944 1.391 . S
C1943 C1947 1.397 . S
C1944 C1939 1.391 . S
C1944 C1943 1.391 . S
C1944 C1945 1.399 . S
C1945 C1944 1.399 . S
C1945 C1946 1.396 . S
C1945 C1948 1.453 . S
C1945 C1949 1.684 . S
C1946 C1927 1.723 . S
C1946 C1945 1.396 . S
C1946 C1947 1.394 . S
C1947 C1943 1.397 . S
C1947 C1946 1.394 . S
C1947 C1957 1.723 . S
C1948 C1945 1.453 . S
C1948 H1972 0.982 . S
C1948 H1973 0.979 . S
C1948 H1974 0.977 . S
C1949 C1945 1.684 . S
C1949 H1975 0.979 . S
C1949 H1976 0.980 . S
C1949 H1977 0.983 . S
C1950 H1926 0.948 . S
C1950 C1951 1.391 . S
C1950 C1955 1.391 . S
C1951 C1950 1.391 . S
C1951 C1952 1.391 . S
C1952 H1929 0.947 . S
C1952 C1951 1.391 . S
C1952 C1953 1.392 . S
C1953 H1930 0.948 . S
C1953 C1952 1.392 . S
C1953 C1954 1.419 . S
C1954 C1953 1.419 . S
C1954 C1955 1.391 . S
C1954 C1958 1.397 . S
C1955 C1950 1.391 . S
C1955 C1954 1.391 . S
C1955 C1956 1.399 . S
C1956 C1955 1.399 . S
C1956 C1957 1.396 . S
C1956 C1959 1.453 . S
C1956 C1960 1.684 . S
C1957 C1947 1.723 . S
C1957 C1956 1.396 . S
C1957 C1958 1.394 . S
C1958 C1928 1.723 . S
C1958 C1954 1.397 . S
C1958 C1957 1.394 . S
C1959 H1931 0.982 . S
C1959 H1935 0.979 . S
C1959 H1936 0.977 . S
C1959 C1956 1.453 . S
C1960 H1932 0.979 . S
C1960 H1933 0.980 . S
C1960 H1934 0.983 . S
C1960 C1956 1.684 . S
H1961 C1979 0.948 . S
H1962 C1920 0.948 . S
H1963 C1938 0.979 . S
H1964 C1938 0.980 . S
H1965 C1938 0.983 . S
H1966 C1937 0.982 . S
H1967 C1937 0.979 . S
H1968 C1937 0.977 . S
H1969 C1939 0.948 . S
H1970 C1941 0.947 . S
H1971 C1942 0.948 . S
H1972 C1948 0.982 . S
H1973 C1948 0.979 . S
H1974 C1948 0.977 . S
H1975 C1949 0.979 . S
H1976 C1949 0.980 . S
H1977 C1949 0.983 . S
H1978 C1922 0.947 . S
C1979 C1922 1.392 . S
C1979 C1923 1.419 . S
C1979 H1961 0.948 . S
C1980 C1981 1.391 . S
C1980 C1984 1.391 . S
C1980 H2022 0.948 . S
C1981 C1980 1.391 . S
C1981 C1982 1.391 . S
C1982 C1981 1.391 . S
C1982 H2038 0.947 . S
C1982 C2039 1.392 . S
C1983 C1984 1.391 . S
C1983 C1987 1.397 . S
C1983 C2039 1.419 . S
C1984 C1980 1.391 . S
C1984 C1983 1.391 . S
C1984 C1985 1.399 . S
C1985 C1984 1.399 . S
C1985 C1988 1.396 . S
C1985 C1997 1.453 . S
C1985 C1998 1.684 . S
H1986 C2010 0.948 . S
C1987 C1983 1.397 . S
C1987 C1988 1.394 . S
C1987 C2006 1.723 . S
C1988 C1985 1.396 . S
C1988 C1987 1.394 . S
C1988 C2018 1.723 . S
H1989 C2012 0.947 . S
H1990 C2013 0.948 . S
H1991 C2019 0.982 . S
H1992 C2020 0.979 . S
H1993 C2020 0.980 . S
H1994 C2020 0.983 . S
H1995 C2019 0.979 . S
H1996 C2019 0.977 . S
C1997 C1985 1.453 . S
C1997 H2026 0.982 . S
C1997 H2027 0.979 . S
C1997 H2028 0.977 . S
C1998 C1985 1.684 . S
C1998 H2023 0.979 . S
C1998 H2024 0.980 . S
C1998 H2025 0.983 . S
C1999 C2000 1.391 . S
C1999 C2004 1.391 . S
C1999 H2029 0.948 . S
C2000 C1999 1.391 . S
C2000 C2001 1.391 . S
C2001 C2000 1.391 . S
C2001 C2002 1.392 . S
C2001 H2030 0.947 . S
C2002 C2001 1.392 . S
C2002 C2003 1.419 . S
C2002 H2031 0.948 . S
C2003 C2002 1.419 . S
C2003 C2004 1.391 . S
C2003 C2007 1.397 . S
C2004 C1999 1.391 . S
C2004 C2003 1.391 . S
C2004 C2005 1.399 . S
C2005 C2004 1.399 . S
C2005 C2006 1.396 . S
C2005 C2008 1.453 . S
C2005 C2009 1.684 . S
C2006 C1987 1.723 . S
C2006 C2005 1.396 . S
C2006 C2007 1.394 . S
C2007 C2003 1.397 . S
C2007 C2006 1.394 . S
C2007 C2017 1.723 . S
C2008 C2005 1.453 . S
C2008 H2032 0.982 . S
C2008 H2033 0.979 . S
C2008 H2034 0.977 . S
C2009 C2005 1.684 . S
C2009 H2035 0.979 . S
C2009 H2036 0.980 . S
C2009 H2037 0.983 . S
C2010 H1986 0.948 . S
C2010 C2011 1.391 . S
C2010 C2015 1.391 . S
C2011 C2010 1.391 . S
C2011 C2012 1.391 . S
C2012 H1989 0.947 . S
C2012 C2011 1.391 . S
C2012 C2013 1.392 . S
C2013 H1990 0.948 . S
C2013 C2012 1.392 . S
C2013 C2014 1.419 . S
C2014 C2013 1.419 . S
C2014 C2015 1.391 . S
C2014 C2018 1.397 . S
C2015 C2010 1.391 . S
C2015 C2014 1.391 . S
C2015 C2016 1.399 . S
C2016 C2015 1.399 . S
C2016 C2017 1.396 . S
C2016 C2019 1.453 . S
C2016 C2020 1.684 . S
C2017 C2007 1.723 . S
C2017 C2016 1.396 . S
C2017 C2018 1.394 . S
C2018 C1988 1.723 . S
C2018 C2014 1.397 . S
C2018 C2017 1.394 . S
C2019 H1991 0.982 . S
C2019 H1995 0.979 . S
C2019 H1996 0.977 . S
C2019 C2016 1.453 . S
C2020 H1992 0.979 . S
C2020 H1993 0.980 . S
C2020 H1994 0.983 . S
C2020 C2016 1.684 . S
H2021 C2039 0.948 . S
H2022 C1980 0.948 . S
H2023 C1998 0.979 . S
H2024 C1998 0.980 . S
H2025 C1998 0.983 . S
H2026 C1997 0.982 . S
H2027 C1997 0.979 . S
H2028 C1997 0.977 . S
H2029 C1999 0.948 . S
H2030 C2001 0.947 . S
H2031 C2002 0.948 . S
H2032 C2008 0.982 . S
H2033 C2008 0.979 . S
H2034 C2008 0.977 . S
H2035 C2009 0.979 . S
H2036 C2009 0.980 . S
H2037 C2009 0.983 . S
H2038 C1982 0.947 . S
C2039 C1982 1.392 . S
C2039 C1983 1.419 . S
C2039 H2021 0.948 . S
C2040 C2041 1.391 . S
C2040 C2044 1.391 . S
C2040 H2082 0.948 . S
C2041 C2040 1.391 . S
C2041 C2042 1.391 . S
C2042 C2041 1.391 . S
C2042 H2098 0.947 . S
C2042 C2099 1.392 . S
C2043 C2044 1.391 . S
C2043 C2047 1.397 . S
C2043 C2099 1.419 . S
C2044 C2040 1.391 . S
C2044 C2043 1.391 . S
C2044 C2045 1.399 . S
C2045 C2044 1.399 . S
C2045 C2048 1.396 . S
C2045 C2057 1.453 . S
C2045 C2058 1.684 . S
H2046 C2070 0.948 . S
C2047 C2043 1.397 . S
C2047 C2048 1.394 . S
C2047 C2066 1.723 . S
C2048 C2045 1.396 . S
C2048 C2047 1.394 . S
C2048 C2078 1.723 . S
H2049 C2072 0.947 . S
H2050 C2073 0.948 . S
H2051 C2079 0.982 . S
H2052 C2080 0.979 . S
H2053 C2080 0.980 . S
H2054 C2080 0.983 . S
H2055 C2079 0.979 . S
H2056 C2079 0.977 . S
C2057 C2045 1.453 . S
C2057 H2086 0.982 . S
C2057 H2087 0.979 . S
C2057 H2088 0.977 . S
C2058 C2045 1.684 . S
C2058 H2083 0.979 . S
C2058 H2084 0.980 . S
C2058 H2085 0.983 . S
C2059 C2060 1.391 . S
C2059 C2064 1.391 . S
C2059 H2089 0.948 . S
C2060 C2059 1.391 . S
C2060 C2061 1.391 . S
C2061 C2060 1.391 . S
C2061 C2062 1.392 . S
C2061 H2090 0.947 . S
C2062 C2061 1.392 . S
C2062 C2063 1.419 . S
C2062 H2091 0.948 . S
C2063 C2062 1.419 . S
C2063 C2064 1.391 . S
C2063 C2067 1.397 . S
C2064 C2059 1.391 . S
C2064 C2063 1.391 . S
C2064 C2065 1.399 . S
C2065 C2064 1.399 . S
C2065 C2066 1.396 . S
C2065 C2068 1.453 . S
C2065 C2069 1.684 . S
C2066 C2047 1.723 . S
C2066 C2065 1.396 . S
C2066 C2067 1.394 . S
C2067 C2063 1.397 . S
C2067 C2066 1.394 . S
C2067 C2077 1.723 . S
C2068 C2065 1.453 . S
C2068 H2092 0.982 . S
C2068 H2093 0.979 . S
C2068 H2094 0.977 . S
C2069 C2065 1.684 . S
C2069 H2095 0.979 . S
C2069 H2096 0.980 . S
C2069 H2097 0.983 . S
C2070 H2046 0.948 . S
C2070 C2071 1.391 . S
C2070 C2075 1.391 . S
C2071 C2070 1.391 . S
C2071 C2072 1.391 . S
C2072 H2049 0.947 . S
C2072 C2071 1.391 . S
C2072 C2073 1.392 . S
C2073 H2050 0.948 . S
C2073 C2072 1.392 . S
C2073 C2074 1.419 . S
C2074 C2073 1.419 . S
C2074 C2075 1.391 . S
C2074 C2078 1.397 . S
C2075 C2070 1.391 . S
C2075 C2074 1.391 . S
C2075 C2076 1.399 . S
C2076 C2075 1.399 . S
C2076 C2077 1.396 . S
C2076 C2079 1.453 . S
C2076 C2080 1.684 . S
C2077 C2067 1.723 . S
C2077 C2076 1.396 . S
C2077 C2078 1.394 . S
C2078 C2048 1.723 . S
C2078 C2074 1.397 . S
C2078 C2077 1.394 . S
C2079 H2051 0.982 . S
C2079 H2055 0.979 . S
C2079 H2056 0.977 . S
C2079 C2076 1.453 . S
C2080 H2052 0.979 . S
C2080 H2053 0.980 . S
C2080 H2054 0.983 . S
C2080 C2076 1.684 . S
H2081 C2099 0.948 . S
H2082 C2040 0.948 . S
H2083 C2058 0.979 . S
H2084 C2058 0.980 . S
H2085 C2058 0.983 . S
H2086 C2057 0.982 . S
H2087 C2057 0.979 . S
H2088 C2057 0.977 . S
H2089 C2059 0.948 . S
H2090 C2061 0.947 . S
H2091 C2062 0.948 . S
H2092 C2068 0.982 . S
H2093 C2068 0.979 . S
H2094 C2068 0.977 . S
H2095 C2069 0.979 . S
H2096 C2069 0.980 . S
H2097 C2069 0.983 . S
H2098 C2042 0.947 . S
C2099 C2042 1.392 . S
C2099 C2043 1.419 . S
C2099 H2081 0.948 . S
C2100 C2101 1.391 . S
C2100 C2104 1.391 . S
C2100 H2142 0.948 . S
C2101 C2100 1.391 . S
C2101 C2102 1.391 . S
C2102 C2101 1.391 . S
C2102 H2158 0.947 . S
C2102 C2159 1.392 . S
C2103 C2104 1.391 . S
C2103 C2107 1.397 . S
C2103 C2159 1.419 . S
C2104 C2100 1.391 . S
C2104 C2103 1.391 . S
C2104 C2105 1.399 . S
C2105 C2104 1.399 . S
C2105 C2108 1.396 . S
C2105 C2117 1.453 . S
C2105 C2118 1.684 . S
H2106 C2130 0.948 . S
C2107 C2103 1.397 . S
C2107 C2108 1.394 . S
C2107 C2126 1.723 . S
C2108 C2105 1.396 . S
C2108 C2107 1.394 . S
C2108 C2138 1.723 . S
H2109 C2132 0.947 . S
H2110 C2133 0.948 . S
H2111 C2139 0.982 . S
H2112 C2140 0.979 . S
H2113 C2140 0.980 . S
H2114 C2140 0.983 . S
H2115 C2139 0.979 . S
H2116 C2139 0.977 . S
C2117 C2105 1.453 . S
C2117 H2146 0.982 . S
C2117 H2147 0.979 . S
C2117 H2148 0.977 . S
C2118 C2105 1.684 . S
C2118 H2143 0.979 . S
C2118 H2144 0.980 . S
C2118 H2145 0.983 . S
C2119 C2120 1.391 . S
C2119 C2124 1.391 . S
C2119 H2149 0.948 . S
C2120 C2119 1.391 . S
C2120 C2121 1.391 . S
C2121 C2120 1.391 . S
C2121 C2122 1.392 . S
C2121 H2150 0.947 . S
C2122 C2121 1.392 . S
C2122 C2123 1.419 . S
C2122 H2151 0.948 . S
C2123 C2122 1.419 . S
C2123 C2124 1.391 . S
C2123 C2127 1.397 . S
C2124 C2119 1.391 . S
C2124 C2123 1.391 . S
C2124 C2125 1.399 . S
C2125 C2124 1.399 . S
C2125 C2126 1.396 . S
C2125 C2128 1.453 . S
C2125 C2129 1.684 . S
C2126 C2107 1.723 . S
C2126 C2125 1.396 . S
C2126 C2127 1.394 . S
C2127 C2123 1.397 . S
C2127 C2126 1.394 . S
C2127 C2137 1.723 . S
C2128 C2125 1.453 . S
C2128 H2152 0.982 . S
C2128 H2153 0.979 . S
C2128 H2154 0.977 . S
C2129 C2125 1.684 . S
C2129 H2155 0.979 . S
C2129 H2156 0.980 . S
C2129 H2157 0.983 . S
C2130 H2106 0.948 . S
C2130 C2131 1.391 . S
C2130 C2135 1.391 . S
C2131 C2130 1.391 . S
C2131 C2132 1.391 . S
C2132 H2109 0.947 . S
C2132 C2131 1.391 . S
C2132 C2133 1.392 . S
C2133 H2110 0.948 . S
C2133 C2132 1.392 . S
C2133 C2134 1.419 . S
C2134 C2133 1.419 . S
C2134 C2135 1.391 . S
C2134 C2138 1.397 . S
C2135 C2130 1.391 . S
C2135 C2134 1.391 . S
C2135 C2136 1.399 . S
C2136 C2135 1.399 . S
C2136 C2137 1.396 . S
C2136 C2139 1.453 . S
C2136 C2140 1.684 . S
C2137 C2127 1.723 . S
C2137 C2136 1.396 . S
C2137 C2138 1.394 . S
C2138 C2108 1.723 . S
C2138 C2134 1.397 . S
C2138 C2137 1.394 . S
C2139 H2111 0.982 . S
C2139 H2115 0.979 . S
C2139 H2116 0.977 . S
C2139 C2136 1.453 . S
C2140 H2112 0.979 . S
C2140 H2113 0.980 . S
C2140 H2114 0.983 . S
C2140 C2136 1.684 . S
H2141 C2159 0.948 . S
H2142 C2100 0.948 . S
H2143 C2118 0.979 . S
H2144 C2118 0.980 . S
H2145 C2118 0.983 . S
H2146 C2117 0.982 . S
H2147 C2117 0.979 . S
H2148 C2117 0.977 . S
H2149 C2119 0.948 . S
H2150 C2121 0.947 . S
H2151 C2122 0.948 . S
H2152 C2128 0.982 . S
H2153 C2128 0.979 . S
H2154 C2128 0.977 . S
H2155 C2129 0.979 . S
H2156 C2129 0.980 . S
H2157 C2129 0.983 . S
H2158 C2102 0.947 . S
C2159 C2102 1.392 . S
C2159 C2103 1.419 . S
C2159 H2141 0.948 . S
C2160 C2161 1.391 . S
C2160 C2164 1.391 . S
C2160 H2202 0.948 . S
C2161 C2160 1.391 . S
C2161 C2162 1.391 . S
C2162 C2161 1.391 . S
C2162 H2218 0.947 . S
C2162 C2219 1.392 . S
C2163 C2164 1.391 . S
C2163 C2167 1.397 . S
C2163 C2219 1.419 . S
C2164 C2160 1.391 . S
C2164 C2163 1.391 . S
C2164 C2165 1.399 . S
C2165 C2164 1.399 . S
C2165 C2168 1.396 . S
C2165 C2177 1.453 . S
C2165 C2178 1.684 . S
H2166 C2190 0.948 . S
C2167 C2163 1.397 . S
C2167 C2168 1.394 . S
C2167 C2186 1.723 . S
C2168 C2165 1.396 . S
C2168 C2167 1.394 . S
C2168 C2198 1.723 . S
H2169 C2192 0.947 . S
H2170 C2193 0.948 . S
H2171 C2199 0.982 . S
H2172 C2200 0.979 . S
H2173 C2200 0.980 . S
H2174 C2200 0.983 . S
H2175 C2199 0.979 . S
H2176 C2199 0.977 . S
C2177 C2165 1.453 . S
C2177 H2206 0.982 . S
C2177 H2207 0.979 . S
C2177 H2208 0.977 . S
C2178 C2165 1.684 . S
C2178 H2203 0.979 . S
C2178 H2204 0.980 . S
C2178 H2205 0.983 . S
C2179 C2180 1.391 . S
C2179 C2184 1.391 . S
C2179 H2209 0.948 . S
C2180 C2179 1.391 . S
C2180 C2181 1.391 . S
C2181 C2180 1.391 . S
C2181 C2182 1.392 . S
C2181 H2210 0.947 . S
C2182 C2181 1.392 . S
C2182 C2183 1.419 . S
C2182 H2211 0.948 . S
C2183 C2182 1.419 . S
C2183 C2184 1.391 . S
C2183 C2187 1.397 . S
C2184 C2179 1.391 . S
C2184 C2183 1.391 . S
C2184 C2185 1.399 . S
C2185 C2184 1.399 . S
C2185 C2186 1.396 . S
C2185 C2188 1.453 . S
C2185 C2189 1.684 . S
C2186 C2167 1.723 . S
C2186 C2185 1.396 . S
C2186 C2187 1.394 . S
C2187 C2183 1.397 . S
C2187 C2186 1.394 . S
C2187 C2197 1.723 . S
C2188 C2185 1.453 . S
C2188 H2212 0.982 . S
C2188 H2213 0.979 . S
C2188 H2214 0.977 . S
C2189 C2185 1.684 . S
C2189 H2215 0.979 . S
C2189 H2216 0.980 . S
C2189 H2217 0.983 . S
C2190 H2166 0.948 . S
C2190 C2191 1.391 . S
C2190 C2195 1.391 . S
C2191 C2190 1.391 . S
C2191 C2192 1.391 . S
C2192 H2169 0.947 . S
C2192 C2191 1.391 . S
C2192 C2193 1.392 . S
C2193 H2170 0.948 . S
C2193 C2192 1.392 . S
C2193 C2194 1.419 . S
C2194 C2193 1.419 . S
C2194 C2195 1.391 . S
C2194 C2198 1.397 . S
C2195 C2190 1.391 . S
C2195 C2194 1.391 . S
C2195 C2196 1.399 . S
C2196 C2195 1.399 . S
C2196 C2197 1.396 . S
C2196 C2199 1.453 . S
C2196 C2200 1.684 . S
C2197 C2187 1.723 . S
C2197 C2196 1.396 . S
C2197 C2198 1.394 . S
C2198 C2168 1.723 . S
C2198 C2194 1.397 . S
C2198 C2197 1.394 . S
C2199 H2171 0.982 . S
C2199 H2175 0.979 . S
C2199 H2176 0.977 . S
C2199 C2196 1.453 . S
C2200 H2172 0.979 . S
C2200 H2173 0.980 . S
C2200 H2174 0.983 . S
C2200 C2196 1.684 . S
H2201 C2219 0.948 . S
H2202 C2160 0.948 . S
H2203 C2178 0.979 . S
H2204 C2178 0.980 . S
H2205 C2178 0.983 . S
H2206 C2177 0.982 . S
H2207 C2177 0.979 . S
H2208 C2177 0.977 . S
H2209 C2179 0.948 . S
H2210 C2181 0.947 . S
H2211 C2182 0.948 . S
H2212 C2188 0.982 . S
H2213 C2188 0.979 . S
H2214 C2188 0.977 . S
H2215 C2189 0.979 . S
H2216 C2189 0.980 . S
H2217 C2189 0.983 . S
H2218 C2162 0.947 . S
C2219 C2162 1.392 . S
C2219 C2163 1.419 . S
C2219 H2201 0.948 . S
C2220 C2221 1.391 . S
C2220 C2224 1.391 . S
C2220 H2262 0.948 . S
C2221 C2220 1.391 . S
C2221 C2222 1.391 . S
C2222 C2221 1.391 . S
C2222 H2278 0.947 . S
C2222 C2279 1.392 . S
C2223 C2224 1.391 . S
C2223 C2227 1.397 . S
C2223 C2279 1.419 . S
C2224 C2220 1.391 . S
C2224 C2223 1.391 . S
C2224 C2225 1.399 . S
C2225 C2224 1.399 . S
C2225 C2228 1.396 . S
C2225 C2237 1.453 . S
C2225 C2238 1.684 . S
H2226 C2250 0.948 . S
C2227 C2223 1.397 . S
C2227 C2228 1.394 . S
C2227 C2246 1.723 . S
C2228 C2225 1.396 . S
C2228 C2227 1.394 . S
C2228 C2258 1.723 . S
H2229 C2252 0.947 . S
H2230 C2253 0.948 . S
H2231 C2259 0.982 . S
H2232 C2260 0.979 . S
H2233 C2260 0.980 . S
H2234 C2260 0.983 . S
H2235 C2259 0.979 . S
H2236 C2259 0.977 . S
C2237 C2225 1.453 . S
C2237 H2266 0.982 . S
C2237 H2267 0.979 . S
C2237 H2268 0.977 . S
C2238 C2225 1.684 . S
C2238 H2263 0.979 . S
C2238 H2264 0.980 . S
C2238 H2265 0.983 . S
C2239 C2240 1.391 . S
C2239 C2244 1.391 . S
C2239 H2269 0.948 . S
C2240 C2239 1.391 . S
C2240 C2241 1.391 . S
C2241 C2240 1.391 . S
C2241 C2242 1.392 . S
C2241 H2270 0.947 . S
C2242 C2241 1.392 . S
C2242 C2243 1.419 . S
C2242 H2271 0.948 . S
C2243 C2242 1.419 . S
C2243 C2244 1.391 . S
C2243 C2247 1.397 . S
C2244 C2239 1.391 . S
C2244 C2243 1.391 . S
C2244 C2245 1.399 . S
C2245 C2244 1.399 . S
C2245 C2246 1.396 . S
C2245 C2248 1.453 . S
C2245 C2249 1.684 . S
C2246 C2227 1.723 . S
C2246 C2245 1.396 . S
C2246 C2247 1.394 . S
C2247 C2243 1.397 . S
C2247 C2246 1.394 . S
C2247 C2257 1.723 . S
C2248 C2245 1.453 . S
C2248 H2272 0.982 . S
C2248 H2273 0.979 . S
C2248 H2274 0.977 . S
C2249 C2245 1.684 . S
C2249 H2275 0.979 . S
C2249 H2276 0.980 . S
C2249 H2277 0.983 . S
C2250 H2226 0.948 . S
C2250 C2251 1.391 . S
C2250 C2255 1.391 . S
C2251 C2250 1.391 . S
C2251 C2252 1.391 . S
C2252 H2229 0.947 . S
C2252 C2251 1.391 . S
C2252 C2253 1.392 . S
C2253 H2230 0.948 . S
C2253 C2252 1.392 . S
C2253 C2254 1.419 . S
C2254 C2253 1.419 . S
C2254 C2255 1.391 . S
C2254 C2258 1.397 . S
C2255 C2250 1.391 . S
C2255 C2254 1.391 . S
C2255 C2256 1.399 . S
C2256 C2255 1.399 . S
C2256 C2257 1.396 . S
C2256 C2259 1.453 . S
C2256 C2260 1.684 . S
C2257 C2247 1.723 . S
C2257 C2256 1.396 . S
C2257 C2258 1.394 . S
C2258 C2228 1.723 . S
C2258 C2254 1.397 . S
C2258 C2257 1.394 . S
C2259 H2231 0.982 . S
C2259 H2235 0.979 . S
C2259 H2236 0.977 . S
C2259 C2256 1.453 . S
C2260 H2232 0.979 . S
C2260 H2233 0.980 . S
C2260 H2234 0.983 . S
C2260 C2256 1.684 . S
H2261 C2279 0.948 . S
H2262 C2220 0.948 . S
H2263 C2238 0.979 . S
H2264 C2238 0.980 . S
H2265 C2238 0.983 . S
H2266 C2237 0.982 . S
H2267 C2237 0.979 . S
H2268 C2237 0.977 . S
H2269 C2239 0.948 . S
H2270 C2241 0.947 . S
H2271 C2242 0.948 . S
H2272 C2248 0.982 . S
H2273 C2248 0.979 . S
H2274 C2248 0.977 . S
H2275 C2249 0.979 . S
H2276 C2249 0.980 . S
H2277 C2249 0.983 . S
H2278 C2222 0.947 . S
C2279 C2222 1.392 . S
C2279 C2223 1.419 . S
C2279 H2261 0.948 . S
C2280 C2281 1.391 . S
C2280 C2284 1.391 . S
C2280 H2322 0.948 . S
C2281 C2280 1.391 . S
C2281 C2282 1.391 . S
C2282 C2281 1.391 . S
C2282 H2338 0.947 . S
C2282 C2339 1.392 . S
C2283 C2284 1.391 . S
C2283 C2287 1.397 . S
C2283 C2339 1.419 . S
C2284 C2280 1.391 . S
C2284 C2283 1.391 . S
C2284 C2285 1.399 . S
C2285 C2284 1.399 . S
C2285 C2288 1.396 . S
C2285 C2297 1.453 . S
C2285 C2298 1.684 . S
H2286 C2310 0.948 . S
C2287 C2283 1.397 . S
C2287 C2288 1.394 . S
C2287 C2306 1.723 . S
C2288 C2285 1.396 . S
C2288 C2287 1.394 . S
C2288 C2318 1.723 . S
H2289 C2312 0.947 . S
H2290 C2313 0.948 . S
H2291 C2319 0.982 . S
H2292 C2320 0.979 . S
H2293 C2320 0.980 . S
H2294 C2320 0.983 . S
H2295 C2319 0.979 . S
H2296 C2319 0.977 . S
C2297 C2285 1.453 . S
C2297 H2326 0.982 . S
C2297 H2327 0.979 . S
C2297 H2328 0.977 . S
C2298 C2285 1.684 . S
C2298 H2323 0.979 . S
C2298 H2324 0.980 . S
C2298 H2325 0.983 . S
C2299 C2300 1.391 . S
C2299 C2304 1.391 . S
C2299 H2329 0.948 . S
C2300 C2299 1.391 . S
C2300 C2301 1.391 . S
C2301 C2300 1.391 . S
C2301 C2302 1.392 . S
C2301 H2330 0.947 . S
C2302 C2301 1.392 . S
C2302 C2303 1.419 . S
C2302 H2331 0.948 . S
C2303 C2302 1.419 . S
C2303 C2304 1.391 . S
C2303 C2307 1.397 . S
C2304 C2299 1.391 . S
C2304 C2303 1.391 . S
C2304 C2305 1.399 . S
C2305 C2304 1.399 . S
C2305 C2306 1.396 . S
C2305 C2308 1.453 . S
C2305 C2309 1.684 . S
C2306 C2287 1.723 . S
C2306 C2305 1.396 . S
C2306 C2307 1.394 . S
C2307 C2303 1.397 . S
C2307 C2306 1.394 . S
C2307 C2317 1.723 . S
C2308 C2305 1.453 . S
C2308 H2332 0.982 . S
C2308 H2333 0.979 . S
C2308 H2334 0.977 . S
C2309 C2305 1.684 . S
C2309 H2335 0.979 . S
C2309 H2336 0.980 . S
C2309 H2337 0.983 . S
C2310 H2286 0.948 . S
C2310 C2311 1.391 . S
C2310 C2315 1.391 . S
C2311 C2310 1.391 . S
C2311 C2312 1.391 . S
C2312 H2289 0.947 . S
C2312 C2311 1.391 . S
C2312 C2313 1.392 . S
C2313 H2290 0.948 . S
C2313 C2312 1.392 . S
C2313 C2314 1.419 . S
C2314 C2313 1.419 . S
C2314 C2315 1.391 . S
C2314 C2318 1.397 . S
C2315 C2310 1.391 . S
C2315 C2314 1.391 . S
C2315 C2316 1.399 . S
C2316 C2315 1.399 . S
C2316 C2317 1.396 . S
C2316 C2319 1.453 . S
C2316 C2320 1.684 . S
C2317 C2307 1.723 . S
C2317 C2316 1.396 . S
C2317 C2318 1.394 . S
C2318 C2288 1.723 . S
C2318 C2314 1.397 . S
C2318 C2317 1.394 . S
C2319 H2291 0.982 . S
C2319 H2295 0.979 . S
C2319 H2296 0.977 . S
C2319 C2316 1.453 . S
C2320 H2292 0.979 . S
C2320 H2293 0.980 . S
C2320 H2294 0.983 . S
C2320 C2316 1.684 . S
H2321 C2339 0.948 . S
H2322 C2280 0.948 . S
H2323 C2298 0.979 . S
H2324 C2298 0.980 . S
H2325 C2298 0.983 . S
H2326 C2297 0.982 . S
H2327 C2297 0.979 . S
H2328 C2297 0.977 . S
H2329 C2299 0.948 . S
H2330 C2301 0.947 . S
H2331 C2302 0.948 . S
H2332 C2308 0.982 . S
H2333 C2308 0.979 . S
H2334 C2308 0.977 . S
H2335 C2309 0.979 . S
H2336 C2309 0.980 . S
H2337 C2309 0.983 . S
H2338 C2282 0.947 . S
C2339 C2282 1.392 . S
C2339 C2283 1.419 . S
C2339 H2321 0.948 . S
C2340 C2341 1.391 . S
C2340 C2344 1.391 . S
C2340 H2382 0.948 . S
C2341 C2340 1.391 . S
C2341 C2342 1.391 . S
C2342 C2341 1.391 . S
C2342 H2398 0.947 . S
C2342 C2399 1.392 . S
C2343 C2344 1.391 . S
C2343 C2347 1.397 . S
C2343 C2399 1.419 . S
C2344 C2340 1.391 . S
C2344 C2343 1.391 . S
C2344 C2345 1.399 . S
C2345 C2344 1.399 . S
C2345 C2348 1.396 . S
C2345 C2357 1.453 . S
C2345 C2358 1.684 . S
H2346 C2370 0.948 . S
C2347 C2343 1.397 . S
C2347 C2348 1.394 . S
C2347 C2366 1.723 . S
C2348 C2345 1.396 . S
C2348 C2347 1.394 . S
C2348 C2378 1.723 . S
H2349 C2372 0.947 . S
H2350 C2373 0.948 . S
H2351 C2379 0.982 . S
H2352 C2380 0.979 . S
H2353 C2380 0.980 . S
H2354 C2380 0.983 . S
H2355 C2379 0.979 . S
H2356 C2379 0.977 . S
C2357 C2345 1.453 . S
C2357 H2386 0.982 . S
C2357 H2387 0.979 . S
C2357 H2388 0.977 . S
C2358 C2345 1.684 . S
C2358 H2383 0.979 . S
C2358 H2384 0.980 . S
C2358 H2385 0.983 . S
C2359 C2360 1.391 . S
C2359 C2364 1.391 . S
C2359 H2389 0.948 . S
C2360 C2359 1.391 . S
C2360 C2361 1.391 . S
C2361 C2360 1.391 . S
C2361 C2362 1.392 . S
C2361 H2390 0.947 . S
C2362 C2361 1.392 . S
C2362 C2363 1.419 . S
C2362 H2391 0.948 . S
C2363 C2362 1.419 . S
C2363 C2364 1.391 . S
C2363 C2367 1.397 . S
C2364 C2359 1.391 . S
C2364 C2363 1.391 . S
C2364 C2365 1.399 . S
C2365 C2364 1.399 . S
C2365 C2366 1.396 . S
C2365 C2368 1.453 . S
C2365 C2369 1.684 . S
C2366 C2347 1.723 . S
C2366 C2365 1.396 . S
C2366 C2367 1.394 . S
C2367 C2363 1.397 . S
C2367 C2366 1.394 . S
C2367 C2377 1.723 . S
C2368 C2365 1.453 . S
C2368 H2392 0.982 . S
C2368 H2393 0.979 . S
C2368 H2394 0.977 . S
C2369 C2365 1.684 . S
C2369 H2395 0.979 . S
C2369 H2396 0.980 . S
C2369 H2397 0.983 . S
C2370 H2346 0.948 . S
C2370 C2371 1.391 . S
C2370 C2375 1.391 . S
C2371 C2370 1.391 . S
C2371 C2372 1.391 . S
C2372 H2349 0.947 . S
C2372 C2371 1.391 . S
C2372 C2373 1.392 . S
C2373 H2350 0.948 . S
C2373 C2372 1.392 . S
C2373 C2374 1.419 . S
C2374 C2373 1.419 . S
C2374 C2375 1.391 . S
C2374 C2378 1.397 . S
C2375 C2370 1.391 . S
C2375 C2374 1.391 . S
C2375 C2376 1.399 . S
C2376 C2375 1.399 . S
C2376 C2377 1.396 . S
C2376 C2379 1.453 . S
C2376 C2380 1.684 . S
C2377 C2367 1.723 . S
C2377 C2376 1.396 . S
C2377 C2378 1.394 . S
C2378 C2348 1.723 . S
C2378 C2374 1.397 . S
C2378 C2377 1.394 . S
C2379 H2351 0.982 . S
C2379 H2355 0.979 . S
C2379 H2356 0.977 . S
C2379 C2376 1.453 . S
C2380 H2352 0.979 . S
C2380 H2353 0.980 . S
C2380 H2354 0.983 . S
C2380 C2376 1.684 . S
H2381 C2399 0.948 . S
H2382 C2340 0.948 . S
H2383 C2358 0.979 . S
H2384 C2358 0.980 . S
H2385 C2358 0.983 . S
H2386 C2357 0.982 . S
H2387 C2357 0.979 . S
H2388 C2357 0.977 . S
H2389 C2359 0.948 . S
H2390 C2361 0.947 . S
H2391 C2362 0.948 . S
H2392 C2368 0.982 . S
H2393 C2368 0.979 . S
H2394 C2368 0.977 . S
H2395 C2369 0.979 . S
H2396 C2369 0.980 . S
H2397 C2369 0.983 . S
H2398 C2342 0.947 . S
C2399 C2342 1.392 . S
C2399 C2343 1.419 . S
C2399 H2381 0.948 . S
C2400 C2401 1.391 . S
C2400 C2404 1.391 . S
C2400 H2442 0.948 . S
C2401 C2400 1.391 . S
C2401 C2402 1.391 . S
C2402 C2401 1.391 . S
C2402 H2458 0.947 . S
C2402 C2459 1.392 . S
C2403 C2404 1.391 . S
C2403 C2407 1.397 . S
C2403 C2459 1.419 . S
C2404 C2400 1.391 . S
C2404 C2403 1.391 . S
C2404 C2405 1.399 . S
C2405 C2404 1.399 . S
C2405 C2408 1.396 . S
C2405 C2417 1.453 . S
C2405 C2418 1.684 . S
H2406 C2430 0.948 . S
C2407 C2403 1.397 . S
C2407 C2408 1.394 . S
C2407 C2426 1.723 . S
C2408 C2405 1.396 . S
C2408 C2407 1.394 . S
C2408 C2438 1.723 . S
H2409 C2432 0.947 . S
H2410 C2433 0.948 . S
H2411 C2439 0.982 . S
H2412 C2440 0.979 . S
H2413 C2440 0.980 . S
H2414 C2440 0.983 . S
H2415 C2439 0.979 . S
H2416 C2439 0.977 . S
C2417 C2405 1.453 . S
C2417 H2446 0.982 . S
C2417 H2447 0.979 . S
C2417 H2448 0.977 . S
C2418 C2405 1.684 . S
C2418 H2443 0.979 . S
C2418 H2444 0.980 . S
C2418 H2445 0.983 . S
C2419 C2420 1.391 . S
C2419 C2424 1.391 . S
C2419 H2449 0.948 . S
C2420 C2419 1.391 . S
C2420 C2421 1.391 . S
C2421 C2420 1.391 . S
C2421 C2422 1.392 . S
C2421 H2450 0.947 . S
C2422 C2421 1.392 . S
C2422 C2423 1.419 . S
C2422 H2451 0.948 . S
C2423 C2422 1.419 . S
C2423 C2424 1.391 . S
C2423 C2427 1.397 . S
C2424 C2419 1.391 . S
C2424 C2423 1.391 . S
C2424 C2425 1.399 . S
C2425 C2424 1.399 . S
C2425 C2426 1.396 . S
C2425 C2428 1.453 . S
C2425 C2429 1.684 . S
C2426 C2407 1.723 . S
C2426 C2425 1.396 . S
C2426 C2427 1.394 . S
C2427 C2423 1.397 . S
C2427 C2426 1.394 . S
C2427 C2437 1.723 . S
C2428 C2425 1.453 . S
C2428 H2452 0.982 . S
C2428 H2453 0.979 . S
C2428 H2454 0.977 . S
C2429 C2425 1.684 . S
C2429 H2455 0.979 . S
C2429 H2456 0.980 . S
C2429 H2457 0.983 . S
C2430 H2406 0.948 . S
C2430 C2431 1.391 . S
C2430 C2435 1.391 . S
C2431 C2430 1.391 . S
C2431 C2432 1.391 . S
C2432 H2409 0.947 . S
C2432 C2431 1.391 . S
C2432 C2433 1.392 . S
C2433 H2410 0.948 . S
C2433 C2432 1.392 . S
C2433 C2434 1.419 . S
C2434 C2433 1.419 . S
C2434 C2435 1.391 . S
C2434 C2438 1.397 . S
C2435 C2430 1.391 . S
C2435 C2434 1.391 . S
C2435 C2436 1.399 . S
C2436 C2435 1.399 . S
C2436 C2437 1.396 . S
C2436 C2439 1.453 . S
C2436 C2440 1.684 . S
C2437 C2427 1.723 . S
C2437 C2436 1.396 . S
C2437 C2438 1.394 . S
C2438 C2408 1.723 . S
C2438 C2434 1.397 . S
C2438 C2437 1.394 . S
C2439 H2411 0.982 . S
C2439 H2415 0.979 . S
C2439 H2416 0.977 . S
C2439 C2436 1.453 . S
C2440 H2412 0.979 . S
C2440 H2413 0.980 . S
C2440 H2414 0.983 . S
C2440 C2436 1.684 . S
H2441 C2459 0.948 . S
H2442 C2400 0.948 . S
H2443 C2418 0.979 . S
H2444 C2418 0.980 . S
H2445 C2418 0.983 . S
H2446 C2417 0.982 . S
H2447 C2417 0.979 . S
H2448 C2417 0.977 . S
H2449 C2419 0.948 . S
H2450 C2421 0.947 . S
H2451 C2422 0.948 . S
H2452 C2428 0.982 . S
H2453 C2428 0.979 . S
H2454 C2428 0.977 . S
H2455 C2429 0.979 . S
H2456 C2429 0.980 . S
H2457 C2429 0.983 . S
H2458 C2402 0.947 . S
C2459 C2402 1.392 . S
C2459 C2403 1.419 . S
C2459 H2441 0.948 . S
C2460 C2461 1.391 . S
C2460 C2464 1.391 . S
C2460 H2502 0.948 . S
C2461 C2460 1.391 . S
C2461 C2462 1.391 . S
C2462 C2461 1.391 . S
C2462 H2518 0.947 . S
C2462 C2519 1.392 . S
C2463 C2464 1.391 . S
C2463 C2467 1.397 . S
C2463 C2519 1.419 . S
C2464 C2460 1.391 . S
C2464 C2463 1.391 . S
C2464 C2465 1.399 . S
C2465 C2464 1.399 . S
C2465 C2468 1.396 . S
C2465 C2477 1.453 . S
C2465 C2478 1.684 . S
H2466 C2490 0.948 . S
C2467 C2463 1.397 . S
C2467 C2468 1.394 . S
C2467 C2486 1.723 . S
C2468 C2465 1.396 . S
C2468 C2467 1.394 . S
C2468 C2498 1.723 . S
H2469 C2492 0.947 . S
H2470 C2493 0.948 . S
H2471 C2499 0.982 . S
H2472 C2500 0.979 . S
H2473 C2500 0.980 . S
H2474 C2500 0.983 . S
H2475 C2499 0.979 . S
H2476 C2499 0.977 . S
C2477 C2465 1.453 . S
C2477 H2506 0.982 . S
C2477 H2507 0.979 . S
C2477 H2508 0.977 . S
C2478 C2465 1.684 . S
C2478 H2503 0.979 . S
C2478 H2504 0.980 . S
C2478 H2505 0.983 . S
C2479 C2480 1.391 . S
C2479 C2484 1.391 . S
C2479 H2509 0.948 . S
C2480 C2479 1.391 . S
C2480 C2481 1.391 . S
C2481 C2480 1.391 . S
C2481 C2482 1.392 . S
C2481 H2510 0.947 . S
C2482 C2481 1.392 . S
C2482 C2483 1.419 . S
C2482 H2511 0.948 . S
C2483 C2482 1.419 . S
C2483 C2484 1.391 . S
C2483 C2487 1.397 . S
C2484 C2479 1.391 . S
C2484 C2483 1.391 . S
C2484 C2485 1.399 . S
C2485 C2484 1.399 . S
C2485 C2486 1.396 . S
C2485 C2488 1.453 . S
C2485 C2489 1.684 . S
C2486 C2467 1.723 . S
C2486 C2485 1.396 . S
C2486 C2487 1.394 . S
C2487 C2483 1.397 . S
C2487 C2486 1.394 . S
C2487 C2497 1.723 . S
C2488 C2485 1.453 . S
C2488 H2512 0.982 . S
C2488 H2513 0.979 . S
C2488 H2514 0.977 . S
C2489 C2485 1.684 . S
C2489 H2515 0.979 . S
C2489 H2516 0.980 . S
C2489 H2517 0.983 . S
C2490 H2466 0.948 . S
C2490 C2491 1.391 . S
C2490 C2495 1.391 . S
C2491 C2490 1.391 . S
C2491 C2492 1.391 . S
C2492 H2469 0.947 . S
C2492 C2491 1.391 . S
C2492 C2493 1.392 . S
C2493 H2470 0.948 . S
C2493 C2492 1.392 . S
C2493 C2494 1.419 . S
C2494 C2493 1.419 . S
C2494 C2495 1.391 . S
C2494 C2498 1.397 . S
C2495 C2490 1.391 . S
C2495 C2494 1.391 . S
C2495 C2496 1.399 . S
C2496 C2495 1.399 . S
C2496 C2497 1.396 . S
C2496 C2499 1.453 . S
C2496 C2500 1.684 . S
C2497 C2487 1.723 . S
C2497 C2496 1.396 . S
C2497 C2498 1.394 . S
C2498 C2468 1.723 . S
C2498 C2494 1.397 . S
C2498 C2497 1.394 . S
C2499 H2471 0.982 . S
C2499 H2475 0.979 . S
C2499 H2476 0.977 . S
C2499 C2496 1.453 . S
C2500 H2472 0.979 . S
C2500 H2473 0.980 . S
C2500 H2474 0.983 . S
C2500 C2496 1.684 . S
H2501 C2519 0.948 . S
H2502 C2460 0.948 . S
H2503 C2478 0.979 . S
H2504 C2478 0.980 . S
H2505 C2478 0.983 . S
H2506 C2477 0.982 . S
H2507 C2477 0.979 . S
H2508 C2477 0.977 . S
H2509 C2479 0.948 . S
H2510 C2481 0.947 . S
H2511 C2482 0.948 . S
H2512 C2488 0.982 . S
H2513 C2488 0.979 . S
H2514 C2488 0.977 . S
H2515 C2489 0.979 . S
H2516 C2489 0.980 . S
H2517 C2489 0.983 . S
H2518 C2462 0.947 . S
C2519 C2462 1.392 . S
C2519 C2463 1.419 . S
C2519 H2501 0.948 . S
C2520 C2521 1.391 . S
C2520 C2524 1.391 . S
C2520 H2562 0.948 . S
C2521 C2520 1.391 . S
C2521 C2522 1.391 . S
C2522 C2521 1.391 . S
C2522 H2578 0.947 . S
C2522 C2579 1.392 . S
C2523 C2524 1.391 . S
C2523 C2527 1.397 . S
C2523 C2579 1.419 . S
C2524 C2520 1.391 . S
C2524 C2523 1.391 . S
C2524 C2525 1.399 . S
C2525 C2524 1.399 . S
C2525 C2528 1.396 . S
C2525 C2537 1.453 . S
C2525 C2538 1.684 . S
H2526 C2550 0.948 . S
C2527 C2523 1.397 . S
C2527 C2528 1.394 . S
C2527 C2546 1.723 . S
C2528 C2525 1.396 . S
C2528 C2527 1.394 . S
C2528 C2558 1.723 . S
H2529 C2552 0.947 . S
H2530 C2553 0.948 . S
H2531 C2559 0.982 . S
H2532 C2560 0.979 . S
H2533 C2560 0.980 . S
H2534 C2560 0.983 . S
H2535 C2559 0.979 . S
H2536 C2559 0.977 . S
C2537 C2525 1.453 . S
C2537 H2566 0.982 . S
C2537 H2567 0.979 . S
C2537 H2568 0.977 . S
C2538 C2525 1.684 . S
C2538 H2563 0.979 . S
C2538 H2564 0.980 . S
C2538 H2565 0.983 . S
C2539 C2540 1.391 . S
C2539 C2544 1.391 . S
C2539 H2569 0.948 . S
C2540 C2539 1.391 . S
C2540 C2541 1.391 . S
C2541 C2540 1.391 . S
C2541 C2542 1.392 . S
C2541 H2570 0.947 . S
C2542 C2541 1.392 . S
C2542 C2543 1.419 . S
C2542 H2571 0.948 . S
C2543 C2542 1.419 . S
C2543 C2544 1.391 . S
C2543 C2547 1.397 . S
C2544 C2539 1.391 . S
C2544 C2543 1.391 . S
C2544 C2545 1.399 . S
C2545 C2544 1.399 . S
C2545 C2546 1.396 . S
C2545 C2548 1.453 . S
C2545 C2549 1.684 . S
C2546 C2527 1.723 . S
C2546 C2545 1.396 . S
C2546 C2547 1.394 . S
C2547 C2543 1.397 . S
C2547 C2546 1.394 . S
C2547 C2557 1.723 . S
C2548 C2545 1.453 . S
C2548 H2572 0.982 . S
C2548 H2573 0.979 . S
C2548 H2574 0.977 . S
C2549 C2545 1.684 . S
C2549 H2575 0.979 . S
C2549 H2576 0.980 . S
C2549 H2577 0.983 . S
C2550 H2526 0.948 . S
C2550 C2551 1.391 . S
C2550 C2555 1.391 . S
C2551 C2550 1.391 . S
C2551 C2552 1.391 . S
C2552 H2529 0.947 . S
C2552 C2551 1.391 . S
C2552 C2553 1.392 . S
C2553 H2530 0.948 . S
C2553 C2552 1.392 . S
C2553 C2554 1.419 . S
C2554 C2553 1.419 . S
C2554 C2555 1.391 . S
C2554 C2558 1.397 . S
C2555 C2550 1.391 . S
C2555 C2554 1.391 . S
C2555 C2556 1.399 . S
C2556 C2555 1.399 . S
C2556 C2557 1.396 . S
C2556 C2559 1.453 . S
C2556 C2560 1.684 . S
C2557 C2547 1.723 . S
C2557 C2556 1.396 . S
C2557 C2558 1.394 . S
C2558 C2528 1.723 . S
C2558 C2554 1.397 . S
C2558 C2557 1.394 . S
C2559 H2531 0.982 . S
C2559 H2535 0.979 . S
C2559 H2536 0.977 . S
C2559 C2556 1.453 . S
C2560 H2532 0.979 . S
C2560 H2533 0.980 . S
C2560 H2534 0.983 . S
C2560 C2556 1.684 . S
H2561 C2579 0.948 . S
H2562 C2520 0.948 . S
H2563 C2538 0.979 . S
H2564 C2538 0.980 . S
H2565 C2538 0.983 . S
H2566 C2537 0.982 . S
H2567 C2537 0.979 . S
H2568 C2537 0.977 . S
H2569 C2539 0.948 . S
H2570 C2541 0.947 . S
H2571 C2542 0.948 . S
H2572 C2548 0.982 . S
H2573 C2548 0.979 . S
H2574 C2548 0.977 . S
H2575 C2549 0.979 . S
H2576 C2549 0.980 . S
H2577 C2549 0.983 . S
H2578 C2522 0.947 . S
C2579 C2522 1.392 . S
C2579 C2523 1.419 . S
C2579 H2561 0.948 . S
C2580 C2581 1.391 . S
C2580 C2584 1.391 . S
C2580 H2622 0.948 . S
C2581 C2580 1.391 . S
C2581 C2582 1.391 . S
C2582 C2581 1.391 . S
C2582 H2638 0.947 . S
C2582 C2639 1.392 . S
C2583 C2584 1.391 . S
C2583 C2587 1.397 . S
C2583 C2639 1.419 . S
C2584 C2580 1.391 . S
C2584 C2583 1.391 . S
C2584 C2585 1.399 . S
C2585 C2584 1.399 . S
C2585 C2588 1.396 . S
C2585 C2597 1.453 . S
C2585 C2598 1.684 . S
H2586 C2610 0.948 . S
C2587 C2583 1.397 . S
C2587 C2588 1.394 . S
C2587 C2606 1.723 . S
C2588 C2585 1.396 . S
C2588 C2587 1.394 . S
C2588 C2618 1.723 . S
H2589 C2612 0.947 . S
H2590 C2613 0.948 . S
H2591 C2619 0.982 . S
H2592 C2620 0.979 . S
H2593 C2620 0.980 . S
H2594 C2620 0.983 . S
H2595 C2619 0.979 . S
H2596 C2619 0.977 . S
C2597 C2585 1.453 . S
C2597 H2626 0.982 . S
C2597 H2627 0.979 . S
C2597 H2628 0.977 . S
C2598 C2585 1.684 . S
C2598 H2623 0.979 . S
C2598 H2624 0.980 . S
C2598 H2625 0.983 . S
C2599 C2600 1.391 . S
C2599 C2604 1.391 . S
C2599 H2629 0.948 . S
C2600 C2599 1.391 . S
C2600 C2601 1.391 . S
C2601 C2600 1.391 . S
C2601 C2602 1.392 . S
C2601 H2630 0.947 . S
C2602 C2601 1.392 . S
C2602 C2603 1.419 . S
C2602 H2631 0.948 . S
C2603 C2602 1.419 . S
C2603 C2604 1.391 . S
C2603 C2607 1.397 . S
C2604 C2599 1.391 . S
C2604 C2603 1.391 . S
C2604 C2605 1.399 . S
C2605 C2604 1.399 . S
C2605 C2606 1.396 . S
C2605 C2608 1.453 . S
C2605 C2609 1.684 . S
C2606 C2587 1.723 . S
C2606 C2605 1.396 . S
C2606 C2607 1.394 . S
C2607 C2603 1.397 . S
C2607 C2606 1.394 . S
C2607 C2617 1.723 . S
C2608 C2605 1.453 . S
C2608 H2632 0.982 . S
C2608 H2633 0.979 . S
C2608 H2634 0.977 . S
C2609 C2605 1.684 . S
C2609 H2635 0.979 . S
C2609 H2636 0.980 . S
C2609 H2637 0.983 . S
C2610 H2586 0.948 . S
C2610 C2611 1.391 . S
C2610 C2615 1.391 . S
C2611 C2610 1.391 . S
C2611 C2612 1.391 . S
C2612 H2589 0.947 . S
C2612 C2611 1.391 . S
C2612 C2613 1.392 . S
C2613 H2590 0.948 . S
C2613 C2612 1.392 . S
C2613 C2614 1.419 . S
C2614 C2613 1.419 . S
C2614 C2615 1.391 . S
C2614 C2618 1.397 . S
C2615 C2610 1.391 . S
C2615 C2614 1.391 . S
C2615 C2616 1.399 . S
C2616 C2615 1.399 . S
C2616 C2617 1.396 . S
C2616 C2619 1.453 . S
C2616 C2620 1.684 . S
C2617 C2607 1.723 . S
C2617 C2616 1.396 . S
C2617 C2618 1.394 . S
C2618 C2588 1.723 . S
C2618 C2614 1.397 . S
C2618 C2617 1.394 . S
C2619 H2591 0.982 . S
C2619 H2595 0.979 . S
C2619 H2596 0.977 . S
C2619 C2616 1.453 . S
C2620 H2592 0.979 . S
C2620 H2593 0.980 . S
C2620 H2594 0.983 . S
C2620 C2616 1.684 . S
H2621 C2639 0.948 . S
H2622 C2580 0.948 . S
H2623 C2598 0.979 . S
H2624 C2598 0.980 . S
H2625 C2598 0.983 . S
H2626 C2597 0.982 . S
H2627 C2597 0.979 . S
H2628 C2597 0.977 . S
H2629 C2599 0.948 . S
H2630 C2601 0.947 . S
H2631 C2602 0.948 . S
H2632 C2608 0.982 . S
H2633 C2608 0.979 . S
H2634 C2608 0.977 . S
H2635 C2609 0.979 . S
H2636 C2609 0.980 . S
H2637 C2609 0.983 . S
H2638 C2582 0.947 . S
C2639 C2582 1.392 . S
C2639 C2583 1.419 . S
C2639 H2621 0.948 . S
C2640 C2641 1.391 . S
C2640 C2644 1.391 . S
C2640 H2682 0.948 . S
C2641 C2640 1.391 . S
C2641 C2642 1.391 . S
C2642 C2641 1.391 . S
C2642 H2698 0.947 . S
C2642 C2699 1.392 . S
C2643 C2644 1.391 . S
C2643 C2647 1.397 . S
C2643 C2699 1.419 . S
C2644 C2640 1.391 . S
C2644 C2643 1.391 . S
C2644 C2645 1.399 . S
C2645 C2644 1.399 . S
C2645 C2648 1.396 . S
C2645 C2657 1.453 . S
C2645 C2658 1.684 . S
H2646 C2670 0.948 . S
C2647 C2643 1.397 . S
C2647 C2648 1.394 . S
C2647 C2666 1.723 . S
C2648 C2645 1.396 . S
C2648 C2647 1.394 . S
C2648 C2678 1.723 . S
H2649 C2672 0.947 . S
H2650 C2673 0.948 . S
H2651 C2679 0.982 . S
H2652 C2680 0.979 . S
H2653 C2680 0.980 . S
H2654 C2680 0.983 . S
H2655 C2679 0.979 . S
H2656 C2679 0.977 . S
C2657 C2645 1.453 . S
C2657 H2686 0.982 . S
C2657 H2687 0.979 . S
C2657 H2688 0.977 . S
C2658 C2645 1.684 . S
C2658 H2683 0.979 . S
C2658 H2684 0.980 . S
C2658 H2685 0.983 . S
C2659 C2660 1.391 . S
C2659 C2664 1.391 . S
C2659 H2689 0.948 . S
C2660 C2659 1.391 . S
C2660 C2661 1.391 . S
C2661 C2660 1.391 . S
C2661 C2662 1.392 . S
C2661 H2690 0.947 . S
C2662 C2661 1.392 . S
C2662 C2663 1.419 . S
C2662 H2691 0.948 . S
C2663 C2662 1.419 . S
C2663 C2664 1.391 . S
C2663 C2667 1.397 . S
C2664 C2659 1.391 . S
C2664 C2663 1.391 . S
C2664 C2665 1.399 . S
C2665 C2664 1.399 . S
C2665 C2666 1.396 . S
C2665 C2668 1.453 . S
C2665 C2669 1.684 . S
C2666 C2647 1.723 . S
C2666 C2665 1.396 . S
C2666 C2667 1.394 . S
C2667 C2663 1.397 . S
C2667 C2666 1.394 . S
C2667 C2677 1.723 . S
C2668 C2665 1.453 . S
C2668 H2692 0.982 . S
C2668 H2693 0.979 . S
C2668 H2694 0.977 . S
C2669 C2665 1.684 . S
C2669 H2695 0.979 . S
C2669 H2696 0.980 . S
C2669 H2697 0.983 . S
C2670 H2646 0.948 . S
C2670 C2671 1.391 . S
C2670 C2675 1.391 . S
C2671 C2670 1.391 . S
C2671 C2672 1.391 . S
C2672 H2649 0.947 . S
C2672 C2671 1.391 . S
C2672 C2673 1.392 . S
C2673 H2650 0.948 . S
C2673 C2672 1.392 . S
C2673 C2674 1.419 . S
C2674 C2673 1.419 . S
C2674 C2675 1.391 . S
C2674 C2678 1.397 . S
C2675 C2670 1.391 . S
C2675 C2674 1.391 . S
C2675 C2676 1.399 . S
C2676 C2675 1.399 . S
C2676 C2677 1.396 . S
C2676 C2679 1.453 . S
C2676 C2680 1.684 . S
C2677 C2667 1.723 . S
C2677 C2676 1.396 . S
C2677 C2678 1.394 . S
C2678 C2648 1.723 . S
C2678 C2674 1.397 . S
C2678 C2677 1.394 . S
C2679 H2651 0.982 . S
C2679 H2655 0.979 . S
C2679 H2656 0.977 . S
C2679 C2676 1.453 . S
C2680 H2652 0.979 . S
C2680 H2653 0.980 . S
C2680 H2654 0.983 . S
C2680 C2676 1.684 . S
H2681 C2699 0.948 . S
H2682 C2640 0.948 . S
H2683 C2658 0.979 . S
H2684 C2658 0.980 . S
H2685 C2658 0.983 . S
H2686 C2657 0.982 . S
H2687 C2657 0.979 . S
H2688 C2657 0.977 . S
H2689 C2659 0.948 . S
H2690 C2661 0.947 . S
H2691 C2662 0.948 . S
H2692 C2668 0.982 . S
H2693 C2668 0.979 . S
H2694 C2668 0.977 . S
H2695 C2669 0.979 . S
H2696 C2669 0.980 . S
H2697 C2669 0.983 . S
H2698 C2642 0.947 . S
C2699 C2642 1.392 . S
C2699 C2643 1.419 . S
C2699 H2681 0.948 . S
C2700 C2701 1.391 . S
C2700 C2704 1.391 . S
C2700 H2742 0.948 . S
C2701 C2700 1.391 . S
C2701 C2702 1.391 . S
C2702 C2701 1.391 . S
C2702 H2758 0.947 . S
C2702 C2759 1.392 . S
C2703 C2704 1.391 . S
C2703 C2707 1.397 . S
C2703 C2759 1.419 . S
C2704 C2700 1.391 . S
C2704 C2703 1.391 . S
C2704 C2705 1.399 . S
C2705 C2704 1.399 . S
C2705 C2708 1.396 . S
C2705 C2717 1.453 . S
C2705 C2718 1.684 . S
H2706 C2730 0.948 . S
C2707 C2703 1.397 . S
C2707 C2708 1.394 . S
C2707 C2726 1.723 . S
C2708 C2705 1.396 . S
C2708 C2707 1.394 . S
C2708 C2738 1.723 . S
H2709 C2732 0.947 . S
H2710 C2733 0.948 . S
H2711 C2739 0.982 . S
H2712 C2740 0.979 . S
H2713 C2740 0.980 . S
H2714 C2740 0.983 . S
H2715 C2739 0.979 . S
H2716 C2739 0.977 . S
C2717 C2705 1.453 . S
C2717 H2746 0.982 . S
C2717 H2747 0.979 . S
C2717 H2748 0.977 . S
C2718 C2705 1.684 . S
C2718 H2743 0.979 . S
C2718 H2744 0.980 . S
C2718 H2745 0.983 . S
C2719 C2720 1.391 . S
C2719 C2724 1.391 . S
C2719 H2749 0.948 . S
C2720 C2719 1.391 . S
C2720 C2721 1.391 . S
C2721 C2720 1.391 . S
C2721 C2722 1.392 . S
C2721 H2750 0.947 . S
C2722 C2721 1.392 . S
C2722 C2723 1.419 . S
C2722 H2751 0.948 . S
C2723 C2722 1.419 . S
C2723 C2724 1.391 . S
C2723 C2727 1.397 . S
C2724 C2719 1.391 . S
C2724 C2723 1.391 . S
C2724 C2725 1.399 . S
C2725 C2724 1.399 . S
C2725 C2726 1.396 . S
C2725 C2728 1.453 . S
C2725 C2729 1.684 . S
C2726 C2707 1.723 . S
C2726 C2725 1.396 . S
C2726 C2727 1.394 . S
C2727 C2723 1.397 . S
C2727 C2726 1.394 . S
C2727 C2737 1.723 . S
C2728 C2725 1.453 . S
C2728 H2752 0.982 . S
C2728 H2753 0.979 . S
C2728 H2754 0.977 . S
C2729 C2725 1.684 . S
C2729 H2755 0.979 . S
C2729 H2756 0.980 . S
C2729 H2757 0.983 . S
C2730 H2706 0.948 . S
C2730 C2731 1.391 . S
C2730 C2735 1.391 . S
C2731 C2730 1.391 . S
C2731 C2732 1.391 . S
C2732 H2709 0.947 . S
C2732 C2731 1.391 . S
C2732 C2733 1.392 . S
C2733 H2710 0.948 . S
C2733 C2732 1.392 . S
C2733 C2734 1.419 . S
C2734 C2733 1.419 . S
C2734 C2735 1.391 . S
C2734 C2738 1.397 . S
C2735 C2730 1.391 . S
C2735 C2734 1.391 . S
C2735 C2736 1.399 . S
C2736 C2735 1.399 . S
C2736 C2737 1.396 . S
C2736 C2739 1.453 . S
C2736 C2740 1.684 . S
C2737 C2727 1.723 . S
C2737 C2736 1.396 . S
C2737 C2738 1.394 . S
C2738 C2708 1.723 . S
C2738 C2734 1.397 . S
C2738 C2737 1.394 . S
C2739 H2711 0.982 . S
C2739 H2715 0.979 . S
C2739 H2716 0.977 . S
C2739 C2736 1.453 . S
C2740 H2712 0.979 . S
C2740 H2713 0.980 . S
C2740 H2714 0.983 . S
C2740 C2736 1.684 . S
H2741 C2759 0.948 . S
H2742 C2700 0.948 . S
H2743 C2718 0.979 . S
H2744 C2718 0.980 . S
H2745 C2718 0.983 . S
H2746 C2717 0.982 . S
H2747 C2717 0.979 . S
H2748 C2717 0.977 . S
H2749 C2719 0.948 . S
H2750 C2721 0.947 . S
H2751 C2722 0.948 . S
H2752 C2728 0.982 . S
H2753 C2728 0.979 . S
H2754 C2728 0.977 . S
H2755 C2729 0.979 . S
H2756 C2729 0.980 . S
H2757 C2729 0.983 . S
H2758 C2702 0.947 . S
C2759 C2702 1.392 . S
C2759 C2703 1.419 . S
C2759 H2741 0.948 . S
C2760 C2761 1.391 . S
C2760 C2764 1.391 . S
C2760 H2802 0.948 . S
C2761 C2760 1.391 . S
C2761 C2762 1.391 . S
C2762 C2761 1.391 . S
C2762 H2818 0.947 . S
C2762 C2819 1.392 . S
C2763 C2764 1.391 . S
C2763 C2767 1.397 . S
C2763 C2819 1.419 . S
C2764 C2760 1.391 . S
C2764 C2763 1.391 . S
C2764 C2765 1.399 . S
C2765 C2764 1.399 . S
C2765 C2768 1.396 . S
C2765 C2777 1.453 . S
C2765 C2778 1.684 . S
H2766 C2790 0.948 . S
C2767 C2763 1.397 . S
C2767 C2768 1.394 . S
C2767 C2786 1.723 . S
C2768 C2765 1.396 . S
C2768 C2767 1.394 . S
C2768 C2798 1.723 . S
H2769 C2792 0.947 . S
H2770 C2793 0.948 . S
H2771 C2799 0.982 . S
H2772 C2800 0.979 . S
H2773 C2800 0.980 . S
H2774 C2800 0.983 . S
H2775 C2799 0.979 . S
H2776 C2799 0.977 . S
C2777 C2765 1.453 . S
C2777 H2806 0.982 . S
C2777 H2807 0.979 . S
C2777 H2808 0.977 . S
C2778 C2765 1.684 . S
C2778 H2803 0.979 . S
C2778 H2804 0.980 . S
C2778 H2805 0.983 . S
C2779 C2780 1.391 . S
C2779 C2784 1.391 . S
C2779 H2809 0.948 . S
C2780 C2779 1.391 . S
C2780 C2781 1.391 . S
C2781 C2780 1.391 . S
C2781 C2782 1.392 . S
C2781 H2810 0.947 . S
C2782 C2781 1.392 . S
C2782 C2783 1.419 . S
C2782 H2811 0.948 . S
C2783 C2782 1.419 . S
C2783 C2784 1.391 . S
C2783 C2787 1.397 . S
C2784 C2779 1.391 . S
C2784 C2783 1.391 . S
C2784 C2785 1.399 . S
C2785 C2784 1.399 . S
C2785 C2786 1.396 . S
C2785 C2788 1.453 . S
C2785 C2789 1.684 . S
C2786 C2767 1.723 . S
C2786 C2785 1.396 . S
C2786 C2787 1.394 . S
C2787 C2783 1.397 . S
C2787 C2786 1.394 . S
C2787 C2797 1.723 . S
C2788 C2785 1.453 . S
C2788 H2812 0.982 . S
C2788 H2813 0.979 . S
C2788 H2814 0.977 . S
C2789 C2785 1.684 . S
C2789 H2815 0.979 . S
C2789 H2816 0.980 . S
C2789 H2817 0.983 . S
C2790 H2766 0.948 . S
C2790 C2791 1.391 . S
C2790 C2795 1.391 . S
C2791 C2790 1.391 . S
C2791 C2792 1.391 . S
C2792 H2769 0.947 . S
C2792 C2791 1.391 . S
C2792 C2793 1.392 . S
C2793 H2770 0.948 . S
C2793 C2792 1.392 . S
C2793 C2794 1.419 . S
C2794 C2793 1.419 . S
C2794 C2795 1.391 . S
C2794 C2798 1.397 . S
C2795 C2790 1.391 . S
C2795 C2794 1.391 . S
C2795 C2796 1.399 . S
C2796 C2795 1.399 . S
C2796 C2797 1.396 . S
C2796 C2799 1.453 . S
C2796 C2800 1.684 . S
C2797 C2787 1.723 . S
C2797 C2796 1.396 . S
C2797 C2798 1.394 . S
C2798 C2768 1.723 . S
C2798 C2794 1.397 . S
C2798 C2797 1.394 . S
C2799 H2771 0.982 . S
C2799 H2775 0.979 . S
C2799 H2776 0.977 . S
C2799 C2796 1.453 . S
C2800 H2772 0.979 . S
C2800 H2773 0.980 . S
C2800 H2774 0.983 . S
C2800 C2796 1.684 . S
H2801 C2819 0.948 . S
H2802 C2760 0.948 . S
H2803 C2778 0.979 . S
H2804 C2778 0.980 . S
H2805 C2778 0.983 . S
H2806 C2777 0.982 . S
H2807 C2777 0.979 . S
H2808 C2777 0.977 . S
H2809 C2779 0.948 . S
H2810 C2781 0.947 . S
H2811 C2782 0.948 . S
H2812 C2788 0.982 . S
H2813 C2788 0.979 . S
H2814 C2788 0.977 . S
H2815 C2789 0.979 . S
H2816 C2789 0.980 . S
H2817 C2789 0.983 . S
H2818 C2762 0.947 . S
C2819 C2762 1.392 . S
C2819 C2763 1.419 . S
C2819 H2801 0.948 . S
C2820 C2821 1.391 . S
C2820 C2824 1.391 . S
C2820 H2862 0.948 . S
C2821 C2820 1.391 . S
C2821 C2822 1.391 . S
C2822 C2821 1.391 . S
C2822 H2878 0.947 . S
C2822 C2879 1.392 . S
C2823 C2824 1.391 . S
C2823 C2827 1.397 . S
C2823 C2879 1.419 . S
C2824 C2820 1.391 . S
C2824 C2823 1.391 . S
C2824 C2825 1.399 . S
C2825 C2824 1.399 . S
C2825 C2828 1.396 . S
C2825 C2837 1.453 . S
C2825 C2838 1.684 . S
H2826 C2850 0.948 . S
C2827 C2823 1.397 . S
C2827 C2828 1.394 . S
C2827 C2846 1.723 . S
C2828 C2825 1.396 . S
C2828 C2827 1.394 . S
C2828 C2858 1.723 . S
H2829 C2852 0.947 . S
H2830 C2853 0.948 . S
H2831 C2859 0.982 . S
H2832 C2860 0.979 . S
H2833 C2860 0.980 . S
H2834 C2860 0.983 . S
H2835 C2859 0.979 . S
H2836 C2859 0.977 . S
C2837 C2825 1.453 . S
C2837 H2866 0.982 . S
C2837 H2867 0.979 . S
C2837 H2868 0.977 . S
C2838 C2825 1.684 . S
C2838 H2863 0.979 . S
C2838 H2864 0.980 . S
C2838 H2865 0.983 . S
C2839 C2840 1.391 . S
C2839 C2844 1.391 . S
C2839 H2869 0.948 . S
C2840 C2839 1.391 . S
C2840 C2841 1.391 . S
C2841 C2840 1.391 . S
C2841 C2842 1.392 . S
C2841 H2870 0.947 . S
C2842 C2841 1.392 . S
C2842 C2843 1.419 . S
C2842 H2871 0.948 . S
C2843 C2842 1.419 . S
C2843 C2844 1.391 . S
C2843 C2847 1.397 . S
C2844 C2839 1.391 . S
C2844 C2843 1.391 . S
C2844 C2845 1.399 . S
C2845 C2844 1.399 . S
C2845 C2846 1.396 . S
C2845 C2848 1.453 . S
C2845 C2849 1.684 . S
C2846 C2827 1.723 . S
C2846 C2845 1.396 . S
C2846 C2847 1.394 . S
C2847 C2843 1.397 . S
C2847 C2846 1.394 . S
C2847 C2857 1.723 . S
C2848 C2845 1.453 . S
C2848 H2872 0.982 . S
C2848 H2873 0.979 . S
C2848 H2874 0.977 . S
C2849 C2845 1.684 . S
C2849 H2875 0.979 . S
C2849 H2876 0.980 . S
C2849 H2877 0.983 . S
C2850 H2826 0.948 . S
C2850 C2851 1.391 . S
C2850 C2855 1.391 . S
C2851 C2850 1.391 . S
C2851 C2852 1.391 . S
C2852 H2829 0.947 . S
C2852 C2851 1.391 . S
C2852 C2853 1.392 . S
C2853 H2830 0.948 . S
C2853 C2852 1.392 . S
C2853 C2854 1.419 . S
C2854 C2853 1.419 . S
C2854 C2855 1.391 . S
C2854 C2858 1.397 . S
C2855 C2850 1.391 . S
C2855 C2854 1.391 . S
C2855 C2856 1.399 . S
C2856 C2855 1.399 . S
C2856 C2857 1.396 . S
C2856 C2859 1.453 . S
C2856 C2860 1.684 . S
C2857 C2847 1.723 . S
C2857 C2856 1.396 . S
C2857 C2858 1.394 . S
C2858 C2828 1.723 . S
C2858 C2854 1.397 . S
C2858 C2857 1.394 . S
C2859 H2831 0.982 . S
C2859 H2835 0.979 . S
C2859 H2836 0.977 . S
C2859 C2856 1.453 . S
C2860 H2832 0.979 . S
C2860 H2833 0.980 . S
C2860 H2834 0.983 . S
C2860 C2856 1.684 . S
H2861 C2879 0.948 . S
H2862 C2820 0.948 . S
H2863 C2838 0.979 . S
H2864 C2838 0.980 . S
H2865 C2838 0.983 . S
H2866 C2837 0.982 . S
H2867 C2837 0.979 . S
H2868 C2837 0.977 . S
H2869 C2839 0.948 . S
H2870 C2841 0.947 . S
H2871 C2842 0.948 . S
H2872 C2848 0.982 . S
H2873 C2848 0.979 . S
H2874 C2848 0.977 . S
H2875 C2849 0.979 . S
H2876 C2849 0.980 . S
H2877 C2849 0.983 . S
H2878 C2822 0.947 . S
C2879 C2822 1.392 . S
C2879 C2823 1.419 . S
C2879 H2861 0.948 . S
C2880 C2881 1.391 . S
C2880 C2884 1.391 . S
C2880 H2922 0.948 . S
C2881 C2880 1.391 . S
C2881 C2882 1.391 . S
C2882 C2881 1.391 . S
C2882 H2938 0.947 . S
C2882 C2939 1.392 . S
C2883 C2884 1.391 . S
C2883 C2887 1.397 . S
C2883 C2939 1.419 . S
C2884 C2880 1.391 . S
C2884 C2883 1.391 . S
C2884 C2885 1.399 . S
C2885 C2884 1.399 . S
C2885 C2888 1.396 . S
C2885 C2897 1.453 . S
C2885 C2898 1.684 . S
H2886 C2910 0.948 . S
C2887 C2883 1.397 . S
C2887 C2888 1.394 . S
C2887 C2906 1.723 . S
C2888 C2885 1.396 . S
C2888 C2887 1.394 . S
C2888 C2918 1.723 . S
H2889 C2912 0.947 . S
H2890 C2913 0.948 . S
H2891 C2919 0.982 . S
H2892 C2920 0.979 . S
H2893 C2920 0.980 . S
H2894 C2920 0.983 . S
H2895 C2919 0.979 . S
H2896 C2919 0.977 . S
C2897 C2885 1.453 . S
C2897 H2926 0.982 . S
C2897 H2927 0.979 . S
C2897 H2928 0.977 . S
C2898 C2885 1.684 . S
C2898 H2923 0.979 . S
C2898 H2924 0.980 . S
C2898 H2925 0.983 . S
C2899 C2900 1.391 . S
C2899 C2904 1.391 . S
C2899 H2929 0.948 . S
C2900 C2899 1.391 . S
C2900 C2901 1.391 . S
C2901 C2900 1.391 . S
C2901 C2902 1.392 . S
C2901 H2930 0.947 . S
C2902 C2901 1.392 . S
C2902 C2903 1.419 . S
C2902 H2931 0.948 . S
C2903 C2902 1.419 . S
C2903 C2904 1.391 . S
C2903 C2907 1.397 . S
C2904 C2899 1.391 . S
C2904 C2903 1.391 . S
C2904 C2905 1.399 . S
C2905 C2904 1.399 . S
C2905 C2906 1.396 . S
C2905 C2908 1.453 . S
C2905 C2909 1.684 . S
C2906 C2887 1.723 . S
C2906 C2905 1.396 . S
C2906 C2907 1.394 . S
C2907 C2903 1.397 . S
C2907 C2906 1.394 . S
C2907 C2917 1.723 . S
C2908 C2905 1.453 . S
C2908 H2932 0.982 . S
C2908 H2933 0.979 . S
C2908 H2934 0.977 . S
C2909 C2905 1.684 . S
C2909 H2935 0.979 . S
C2909 H2936 0.980 . S
C2909 H2937 0.983 . S
C2910 H2886 0.948 . S
C2910 C2911 1.391 . S
C2910 C2915 1.391 . S
C2911 C2910 1.391 . S
C2911 C2912 1.391 . S
C2912 H2889 0.947 . S
C2912 C2911 1.391 . S
C2912 C2913 1.392 . S
C2913 H2890 0.948 . S
C2913 C2912 1.392 . S
C2913 C2914 1.419 . S
C2914 C2913 1.419 . S
C2914 C2915 1.391 . S
C2914 C2918 1.397 . S
C2915 C2910 1.391 . S
C2915 C2914 1.391 . S
C2915 C2916 1.399 . S
C2916 C2915 1.399 . S
C2916 C2917 1.396 . S
C2916 C2919 1.453 . S
C2916 C2920 1.684 . S
C2917 C2907 1.723 . S
C2917 C2916 1.396 . S
C2917 C2918 1.394 . S
C2918 C2888 1.723 . S
C2918 C2914 1.397 . S
C2918 C2917 1.394 . S
C2919 H2891 0.982 . S
C2919 H2895 0.979 . S
C2919 H2896 0.977 . S
C2919 C2916 1.453 . S
C2920 H2892 0.979 . S
C2920 H2893 0.980 . S
C2920 H2894 0.983 . S
C2920 C2916 1.684 . S
H2921 C2939 0.948 . S
H2922 C2880 0.948 . S
H2923 C2898 0.979 . S
H2924 C2898 0.980 . S
H2925 C2898 0.983 . S
H2926 C2897 0.982 . S
H2927 C2897 0.979 . S
H2928 C2897 0.977 . S
H2929 C2899 0.948 . S
H2930 C2901 0.947 . S
H2931 C2902 0.948 . S
H2932 C2908 0.982 . S
H2933 C2908 0.979 . S
H2934 C2908 0.977 . S
H2935 C2909 0.979 . S
H2936 C2909 0.980 . S
H2937 C2909 0.983 . S
H2938 C2882 0.947 . S
C2939 C2882 1.392 . S
C2939 C2883 1.419 . S
C2939 H2921 0.948 . S
C2940 C2941 1.391 . S
C2940 C2944 1.391 . S
C2940 H2982 0.948 . S
C2941 C2940 1.391 . S
C2941 C2942 1.391 . S
C2942 C2941 1.391 . S
C2942 H2998 0.947 . S
C2942 C2999 1.392 . S
C2943 C2944 1.391 . S
C2943 C2947 1.397 . S
C2943 C2999 1.419 . S
C2944 C2940 1.391 . S
C2944 C2943 1.391 . S
C2944 C2945 1.399 . S
C2945 C2944 1.399 . S
C2945 C2948 1.396 . S
C2945 C2957 1.453 . S
C2945 C2958 1.684 . S
H2946 C2970 0.948 . S
C2947 C2943 1.397 . S
C2947 C2948 1.394 . S
C2947 C2966 1.723 . S
C2948 C2945 1.396 . S
C2948 C2947 1.394 . S
C2948 C2978 1.723 . S
H2949 C2972 0.947 . S
H2950 C2973 0.948 . S
H2951 C2979 0.982 . S
H2952 C2980 0.979 . S
H2953 C2980 0.980 . S
H2954 C2980 0.983 . S
H2955 C2979 0.979 . S
H2956 C2979 0.977 . S
C2957 C2945 1.453 . S
C2957 H2986 0.982 . S
C2957 H2987 0.979 . S
C2957 H2988 0.977 . S
C2958 C2945 1.684 . S
C2958 H2983 0.979 . S
C2958 H2984 0.980 . S
C2958 H2985 0.983 . S
C2959 C2960 1.391 . S
C2959 C2964 1.391 . S
C2959 H2989 0.948 . S
C2960 C2959 1.391 . S
C2960 C2961 1.391 . S
C2961 C2960 1.391 . S
C2961 C2962 1.392 . S
C2961 H2990 0.947 . S
C2962 C2961 1.392 . S
C2962 C2963 1.419 . S
C2962 H2991 0.948 . S
C2963 C2962 1.419 . S
C2963 C2964 1.391 . S
C2963 C2967 1.397 . S
C2964 C2959 1.391 . S
C2964 C2963 1.391 . S
C2964 C2965 1.399 . S
C2965 C2964 1.399 . S
C2965 C2966 1.396 . S
C2965 C2968 1.453 . S
C2965 C2969 1.684 . S
C2966 C2947 1.723 . S
C2966 C2965 1.396 . S
C2966 C2967 1.394 . S
C2967 C2963 1.397 . S
C2967 C2966 1.394 . S
C2967 C2977 1.723 . S
C2968 C2965 1.453 . S
C2968 H2992 0.982 . S
C2968 H2993 0.979 . S
C2968 H2994 0.977 . S
C2969 C2965 1.684 . S
C2969 H2995 0.979 . S
C2969 H2996 0.980 . S
C2969 H2997 0.983 . S
C2970 H2946 0.948 . S
C2970 C2971 1.391 . S
C2970 C2975 1.391 . S
C2971 C2970 1.391 . S
C2971 C2972 1.391 . S
C2972 H2949 0.947 . S
C2972 C2971 1.391 . S
C2972 C2973 1.392 . S
C2973 H2950 0.948 . S
C2973 C2972 1.392 . S
C2973 C2974 1.419 . S
C2974 C2973 1.419 . S
C2974 C2975 1.391 . S
C2974 C2978 1.397 . S
C2975 C2970 1.391 . S
C2975 C2974 1.391 . S
C2975 C2976 1.399 . S
C2976 C2975 1.399 . S
C2976 C2977 1.396 . S
C2976 C2979 1.453 . S
C2976 C2980 1.684 . S
C2977 C2967 1.723 . S
C2977 C2976 1.396 . S
C2977 C2978 1.394 . S
C2978 C2948 1.723 . S
C2978 C2974 1.397 . S
C2978 C2977 1.394 . S
C2979 H2951 0.982 . S
C2979 H2955 0.979 . S
C2979 H2956 0.977 . S
C2979 C2976 1.453 . S
C2980 H2952 0.979 . S
C2980 H2953 0.980 . S
C2980 H2954 0.983 . S
C2980 C2976 1.684 . S
H2981 C2999 0.948 . S
H2982 C2940 0.948 . S
H2983 C2958 0.979 . S
H2984 C2958 0.980 . S
H2985 C2958 0.983 . S
H2986 C2957 0.982 . S
H2987 C2957 0.979 . S
H2988 C2957 0.977 . S
H2989 C2959 0.948 . S
H2990 C2961 0.947 . S
H2991 C2962 0.948 . S
H2992 C2968 0.982 . S
H2993 C2968 0.979 . S
H2994 C2968 0.977 . S
H2995 C2969 0.979 . S
H2996 C2969 0.980 . S
H2997 C2969 0.983 . S
H2998 C2942 0.947 . S
C2999 C2942 1.392 . S
C2999 C2943 1.419 . S
C2999 H2981 0.948 . S
C3000 C3001 1.391 . S
C3000 C3004 1.391 . S
C3000 H3042 0.948 . S
C3001 C3000 1.391 . S
C3001 C3002 1.391 . S
C3002 C3001 1.391 . S
C3002 H3058 0.947 . S
C3002 C3059 1.392 . S
C3003 C3004 1.391 . S
C3003 C3007 1.397 . S
C3003 C3059 1.419 . S
C3004 C3000 1.391 . S
C3004 C3003 1.391 . S
C3004 C3005 1.399 . S
C3005 C3004 1.399 . S
C3005 C3008 1.396 . S
C3005 C3017 1.453 . S
C3005 C3018 1.684 . S
H3006 C3030 0.948 . S
C3007 C3003 1.397 . S
C3007 C3008 1.394 . S
C3007 C3026 1.723 . S
C3008 C3005 1.396 . S
C3008 C3007 1.394 . S
C3008 C3038 1.723 . S
H3009 C3032 0.947 . S
H3010 C3033 0.948 . S
H3011 C3039 0.982 . S
H3012 C3040 0.979 . S
H3013 C3040 0.980 . S
H3014 C3040 0.983 . S
H3015 C3039 0.979 . S
H3016 C3039 0.977 . S
C3017 C3005 1.453 . S
C3017 H3046 0.982 . S
C3017 H3047 0.979 . S
C3017 H3048 0.977 . S
C3018 C3005 1.684 . S
C3018 H3043 0.979 . S
C3018 H3044 0.980 . S
C3018 H3045 0.983 . S
C3019 C3020 1.391 . S
C3019 C3024 1.391 . S
C3019 H3049 0.948 . S
C3020 C3019 1.391 . S
C3020 C3021 1.391 . S
C3021 C3020 1.391 . S
C3021 C3022 1.392 . S
C3021 H3050 0.947 . S
C3022 C3021 1.392 . S
C3022 C3023 1.419 . S
C3022 H3051 0.948 . S
C3023 C3022 1.419 . S
C3023 C3024 1.391 . S
C3023 C3027 1.397 . S
C3024 C3019 1.391 . S
C3024 C3023 1.391 . S
C3024 C3025 1.399 . S
C3025 C3024 1.399 . S
C3025 C3026 1.396 . S
C3025 C3028 1.453 . S
C3025 C3029 1.684 . S
C3026 C3007 1.723 . S
C3026 C3025 1.396 . S
C3026 C3027 1.394 . S
C3027 C3023 1.397 . S
C3027 C3026 1.394 . S
C3027 C3037 1.723 . S
C3028 C3025 1.453 . S
C3028 H3052 0.982 . S
C3028 H3053 0.979 . S
C3028 H3054 0.977 . S
C3029 C3025 1.684 . S
C3029 H3055 0.979 . S
C3029 H3056 0.980 . S
C3029 H3057 0.983 . S
C3030 H3006 0.948 . S
C3030 C3031 1.391 . S
C3030 C3035 1.391 . S
C3031 C3030 1.391 . S
C3031 C3032 1.391 . S
C3032 H3009 0.947 . S
C3032 C3031 1.391 . S
C3032 C3033 1.392 . S
C3033 H3010 0.948 . S
C3033 C3032 1.392 . S
C3033 C3034 1.419 . S
C3034 C3033 1.419 . S
C3034 C3035 1.391 . S
C3034 C3038 1.397 . S
C3035 C3030 1.391 . S
C3035 C3034 1.391 . S
C3035 C3036 1.399 . S
C3036 C3035 1.399 . S
C3036 C3037 1.396 . S
C3036 C3039 1.453 . S
C3036 C3040 1.684 . S
C3037 C3027 1.723 . S
C3037 C3036 1.396 . S
C3037 C3038 1.394 . S
C3038 C3008 1.723 . S
C3038 C3034 1.397 . S
C3038 C3037 1.394 . S
C3039 H3011 0.982 . S
C3039 H3015 0.979 . S
C3039 H3016 0.977 . S
C3039 C3036 1.453 . S
C3040 H3012 0.979 . S
C3040 H3013 0.980 . S
C3040 H3014 0.983 . S
C3040 C3036 1.684 . S
H3041 C3059 0.948 . S
H3042 C3000 0.948 . S
H3043 C3018 0.979 . S
H3044 C3018 0.980 . S
H3045 C3018 0.983 . S
H3046 C3017 0.982 . S
H3047 C3017 0.979 . S
H3048 C3017 0.977 . S
H3049 C3019 0.948 . S
H3050 C3021 0.947 . S
H3051 C3022 0.948 . S
H3052 C3028 0.982 . S
H3053 C3028 0.979 . S
H3054 C3028 0.977 . S
H3055 C3029 0.979 . S
H3056 C3029 0.980 . S
H3057 C3029 0.983 . S
H3058 C3002 0.947 . S
C3059 C3002 1.392 . S
C3059 C3003 1.419 . S
C3059 H3041 0.948 . S
C3060 C3061 1.391 . S
C3060 C3064 1.391 . S
C3060 H3102 0.948 . S
C3061 C3060 1.391 . S
C3061 C3062 1.391 . S
C3062 C3061 1.391 . S
C3062 H3118 0.947 . S
C3062 C3119 1.392 . S
C3063 C3064 1.391 . S
C3063 C3067 1.397 . S
C3063 C3119 1.419 . S
C3064 C3060 1.391 . S
C3064 C3063 1.391 . S
C3064 C3065 1.399 . S
C3065 C3064 1.399 . S
C3065 C3068 1.396 . S
C3065 C3077 1.453 . S
C3065 C3078 1.684 . S
H3066 C3090 0.948 . S
C3067 C3063 1.397 . S
C3067 C3068 1.394 . S
C3067 C3086 1.723 . S
C3068 C3065 1.396 . S
C3068 C3067 1.394 . S
C3068 C3098 1.723 . S
H3069 C3092 0.947 . S
H3070 C3093 0.948 . S
H3071 C3099 0.982 . S
H3072 C3100 0.979 . S
H3073 C3100 0.980 . S
H3074 C3100 0.983 . S
H3075 C3099 0.979 . S
H3076 C3099 0.977 . S
C3077 C3065 1.453 . S
C3077 H3106 0.982 . S
C3077 H3107 0.979 . S
C3077 H3108 0.977 . S
C3078 C3065 1.684 . S
C3078 H3103 0.979 . S
C3078 H3104 0.980 . S
C3078 H3105 0.983 . S
C3079 C3080 1.391 . S
C3079 C3084 1.391 . S
C3079 H3109 0.948 . S
C3080 C3079 1.391 . S
C3080 C3081 1.391 . S
C3081 C3080 1.391 . S
C3081 C3082 1.392 . S
C3081 H3110 0.947 . S
C3082 C3081 1.392 . S
C3082 C3083 1.419 . S
C3082 H3111 0.948 . S
C3083 C3082 1.419 . S
C3083 C3084 1.391 . S
C3083 C3087 1.397 . S
C3084 C3079 1.391 . S
C3084 C3083 1.391 . S
C3084 C3085 1.399 . S
C3085 C3084 1.399 . S
C3085 C3086 1.396 . S
C3085 C3088 1.453 . S
C3085 C3089 1.684 . S
C3086 C3067 1.723 . S
C3086 C3085 1.396 . S
C3086 C3087 1.394 . S
C3087 C3083 1.397 . S
C3087 C3086 1.394 . S
C3087 C3097 1.723 . S
C3088 C3085 1.453 . S
C3088 H3112 0.982 . S
C3088 H3113 0.979 . S
C3088 H3114 0.977 . S
C3089 C3085 1.684 . S
C3089 H3115 0.979 . S
C3089 H3116 0.980 . S
C3089 H3117 0.983 . S
C3090 H3066 0.948 . S
C3090 C3091 1.391 . S
C3090 C3095 1.391 . S
C3091 C3090 1.391 . S
C3091 C3092 1.391 . S
C3092 H3069 0.947 . S
C3092 C3091 1.391 . S
C3092 C3093 1.392 . S
C3093 H3070 0.948 . S
C3093 C3092 1.392 . S
C3093 C3094 1.419 . S
C3094 C3093 1.419 . S
C3094 C3095 1.391 . S
C3094 C3098 1.397 . S
C3095 C3090 1.391 . S
C3095 C3094 1.391 . S
C3095 C3096 1.399 . S
C3096 C3095 1.399 . S
C3096 C3097 1.396 . S
C3096 C3099 1.453 . S
C3096 C3100 1.684 . S
C3097 C3087 1.723 . S
C3097 C3096 1.396 . S
C3097 C3098 1.394 . S
C3098 C3068 1.723 . S
C3098 C3094 1.397 . S
C3098 C3097 1.394 . S
C3099 H3071 0.982 . S
C3099 H3075 0.979 . S
C3099 H3076 0.977 . S
C3099 C3096 1.453 . S
C3100 H3072 0.979 . S
C3100 H3073 0.980 . S
C3100 H3074 0.983 . S
C3100 C3096 1.684 . S
H3101 C3119 0.948 . S
H3102 C3060 0.948 . S
H3103 C3078 0.979 . S
H3104 C3078 0.980 . S
H3105 C3078 0.983 . S
H3106 C3077 0.982 . S
H3107 C3077 0.979 . S
H3108 C3077 0.977 . S
H3109 C3079 0.948 . S
H3110 C3081 0.947 . S
H3111 C3082 0.948 . S
H3112 C3088 0.982 . S
H3113 C3088 0.979 . S
H3114 C3088 0.977 . S
H3115 C3089 0.979 . S
H3116 C3089 0.980 . S
H3117 C3089 0.983 . S
H3118 C3062 0.947 . S
C3119 C3062 1.392 . S
C3119 C3063 1.419 . S
C3119 H3101 0.948 . S
C3120 C3121 1.391 . S
C3120 C3124 1.391 . S
C3120 H3162 0.948 . S
C3121 C3120 1.391 . S
C3121 C3122 1.391 . S
C3122 C3121 1.391 . S
C3122 H3178 0.947 . S
C3122 C3179 1.392 . S
C3123 C3124 1.391 . S
C3123 C3127 1.397 . S
C3123 C3179 1.419 . S
C3124 C3120 1.391 . S
C3124 C3123 1.391 . S
C3124 C3125 1.399 . S
C3125 C3124 1.399 . S
C3125 C3128 1.396 . S
C3125 C3137 1.453 . S
C3125 C3138 1.684 . S
H3126 C3150 0.948 . S
C3127 C3123 1.397 . S
C3127 C3128 1.394 . S
C3127 C3146 1.723 . S
C3128 C3125 1.396 . S
C3128 C3127 1.394 . S
C3128 C3158 1.723 . S
H3129 C3152 0.947 . S
H3130 C3153 0.948 . S
H3131 C3159 0.982 . S
H3132 C3160 0.979 . S
H3133 C3160 0.980 . S
H3134 C3160 0.983 . S
H3135 C3159 0.979 . S
H3136 C3159 0.977 . S
C3137 C3125 1.453 . S
C3137 H3166 0.982 . S
C3137 H3167 0.979 . S
C3137 H3168 0.977 . S
C3138 C3125 1.684 . S
C3138 H3163 0.979 . S
C3138 H3164 0.980 . S
C3138 H3165 0.983 . S
C3139 C3140 1.391 . S
C3139 C3144 1.391 . S
C3139 H3169 0.948 . S
C3140 C3139 1.391 . S
C3140 C3141 1.391 . S
C3141 C3140 1.391 . S
C3141 C3142 1.392 . S
C3141 H3170 0.947 . S
C3142 C3141 1.392 . S
C3142 C3143 1.419 . S
C3142 H3171 0.948 . S
C3143 C3142 1.419 . S
C3143 C3144 1.391 . S
C3143 C3147 1.397 . S
C3144 C3139 1.391 . S
C3144 C3143 1.391 . S
C3144 C3145 1.399 . S
C3145 C3144 1.399 . S
C3145 C3146 1.396 . S
C3145 C3148 1.453 . S
C3145 C3149 1.684 . S
C3146 C3127 1.723 . S
C3146 C3145 1.396 . S
C3146 C3147 1.394 . S
C3147 C3143 1.397 . S
C3147 C3146 1.394 . S
C3147 C3157 1.723 . S
C3148 C3145 1.453 . S
C3148 H3172 0.982 . S
C3148 H3173 0.979 . S
C3148 H3174 0.977 . S
C3149 C3145 1.684 . S
C3149 H3175 0.979 . S
C3149 H3176 0.980 . S
C3149 H3177 0.983 . S
C3150 H3126 0.948 . S
C3150 C3151 1.391 . S
C3150 C3155 1.391 . S
C3151 C3150 1.391 . S
C3151 C3152 1.391 . S
C3152 H3129 0.947 . S
C3152 C3151 1.391 . S
C3152 C3153 1.392 . S
C3153 H3130 0.948 . S
C3153 C3152 1.392 . S
C3153 C3154 1.419 . S
C3154 C3153 1.419 . S
C3154 C3155 1.391 . S
C3154 C3158 1.397 . S
C3155 C3150 1.391 . S
C3155 C3154 1.391 . S
C3155 C3156 1.399 . S
C3156 C3155 1.399 . S
C3156 C3157 1.396 . S
C3156 C3159 1.453 . S
C3156 C3160 1.684 . S
C3157 C3147 1.723 . S
C3157 C3156 1.396 . S
C3157 C3158 1.394 . S
C3158 C3128 1.723 . S
C3158 C3154 1.397 . S
C3158 C3157 1.394 . S
C3159 H3131 0.982 . S
C3159 H3135 0.979 . S
C3159 H3136 0.977 . S
C3159 C3156 1.453 . S
C3160 H3132 0.979 . S
C3160 H3133 0.980 . S
C3160 H3134 0.983 . S
C3160 C3156 1.684 . S
H3161 C3179 0.948 . S
H3162 C3120 0.948 . S
H3163 C3138 0.979 . S
H3164 C3138 0.980 . S
H3165 C3138 0.983 . S
H3166 C3137 0.982 . S
H3167 C3137 0.979 . S
H3168 C3137 0.977 . S
H3169 C3139 0.948 . S
H3170 C3141 0.947 . S
H3171 C3142 0.948 . S
H3172 C3148 0.982 . S
H3173 C3148 0.979 . S
H3174 C3148 0.977 . S
H3175 C3149 0.979 . S
H3176 C3149 0.980 . S
H3177 C3149 0.983 . S
H3178 C3122 0.947 . S
C3179 C3122 1.392 . S
C3179 C3123 1.419 . S
C3179 H3161 0.948 . S
C3180 C3181 1.391 . S
C3180 C3184 1.391 . S
C3180 H3222 0.948 . S
C3181 C3180 1.391 . S
C3181 C3182 1.391 . S
C3182 C3181 1.391 . S
C3182 H3238 0.947 . S
C3182 C3239 1.392 . S
C3183 C3184 1.391 . S
C3183 C3187 1.397 . S
C3183 C3239 1.419 . S
C3184 C3180 1.391 . S
C3184 C3183 1.391 . S
C3184 C3185 1.399 . S
C3185 C3184 1.399 . S
C3185 C3188 1.396 . S
C3185 C3197 1.453 . S
C3185 C3198 1.684 . S
H3186 C3210 0.948 . S
C3187 C3183 1.397 . S
C3187 C3188 1.394 . S
C3187 C3206 1.723 . S
C3188 C3185 1.396 . S
C3188 C3187 1.394 . S
C3188 C3218 1.723 . S
H3189 C3212 0.947 . S
H3190 C3213 0.948 . S
H3191 C3219 0.982 . S
H3192 C3220 0.979 . S
H3193 C3220 0.980 . S
H3194 C3220 0.983 . S
H3195 C3219 0.979 . S
H3196 C3219 0.977 . S
C3197 C3185 1.453 . S
C3197 H3226 0.982 . S
C3197 H3227 0.979 . S
C3197 H3228 0.977 . S
C3198 C3185 1.684 . S
C3198 H3223 0.979 . S
C3198 H3224 0.980 . S
C3198 H3225 0.983 . S
C3199 C3200 1.391 . S
C3199 C3204 1.391 . S
C3199 H3229 0.948 . S
C3200 C3199 1.391 . S
C3200 C3201 1.391 . S
C3201 C3200 1.391 . S
C3201 C3202 1.392 . S
C3201 H3230 0.947 . S
C3202 C3201 1.392 . S
C3202 C3203 1.419 . S
C3202 H3231 0.948 . S
C3203 C3202 1.419 . S
C3203 C3204 1.391 . S
C3203 C3207 1.397 . S
C3204 C3199 1.391 . S
C3204 C3203 1.391 . S
C3204 C3205 1.399 . S
C3205 C3204 1.399 . S
C3205 C3206 1.396 . S
C3205 C3208 1.453 . S
C3205 C3209 1.684 . S
C3206 C3187 1.723 . S
C3206 C3205 1.396 . S
C3206 C3207 1.394 . S
C3207 C3203 1.397 . S
C3207 C3206 1.394 . S
C3207 C3217 1.723 . S
C3208 C3205 1.453 . S
C3208 H3232 0.982 . S
C3208 H3233 0.979 . S
C3208 H3234 0.977 . S
C3209 C3205 1.684 . S
C3209 H3235 0.979 . S
C3209 H3236 0.980 . S
C3209 H3237 0.983 . S
C3210 H3186 0.948 . S
C3210 C3211 1.391 . S
C3210 C3215 1.391 . S
C3211 C3210 1.391 . S
C3211 C3212 1.391 . S
C3212 H3189 0.947 . S
C3212 C3211 1.391 . S
C3212 C3213 1.392 . S
C3213 H3190 0.948 . S
C3213 C3212 1.392 . S
C3213 C3214 1.419 . S
C3214 C3213 1.419 . S
C3214 C3215 1.391 . S
C3214 C3218 1.397 . S
C3215 C3210 1.391 . S
C3215 C3214 1.391 . S
C3215 C3216 1.399 . S
C3216 C3215 1.399 . S
C3216 C3217 1.396 . S
C3216 C3219 1.453 . S
C3216 C3220 1.684 . S
C3217 C3207 1.723 . S
C3217 C3216 1.396 . S
C3217 C3218 1.394 . S
C3218 C3188 1.723 . S
C3218 C3214 1.397 . S
C3218 C3217 1.394 . S
C3219 H3191 0.982 . S
C3219 H3195 0.979 . S
C3219 H3196 0.977 . S
C3219 C3216 1.453 . S
C3220 H3192 0.979 . S
C3220 H3193 0.980 . S
C3220 H3194 0.983 . S
C3220 C3216 1.684 . S
H3221 C3239 0.948 . S
H3222 C3180 0.948 . S
H3223 C3198 0.979 . S
H3224 C3198 0.980 . S
H3225 C3198 0.983 . S
H3226 C3197 0.982 . S
H3227 C3197 0.979 . S
H3228 C3197 0.977 . S
H3229 C3199 0.948 . S
H3230 C3201 0.947 . S
H3231 C3202 0.948 . S
H3232 C3208 0.982 . S
H3233 C3208 0.979 . S
H3234 C3208 0.977 . S
H3235 C3209 0.979 . S
H3236 C3209 0.980 . S
H3237 C3209 0.983 . S
H3238 C3182 0.947 . S
C3239 C3182 1.392 . S
C3239 C3183 1.419 . S
C3239 H3221 0.948 . S
C3240 C3241 1.391 . S
C3240 C3244 1.391 . S
C3240 H3282 0.948 . S
C3241 C3240 1.391 . S
C3241 C3242 1.391 . S
C3242 C3241 1.391 . S
C3242 H3298 0.947 . S
C3242 C3299 1.392 . S
C3243 C3244 1.391 . S
C3243 C3247 1.397 . S
C3243 C3299 1.419 . S
C3244 C3240 1.391 . S
C3244 C3243 1.391 . S
C3244 C3245 1.399 . S
C3245 C3244 1.399 . S
C3245 C3248 1.396 . S
C3245 C3257 1.453 . S
C3245 C3258 1.684 . S
H3246 C3270 0.948 . S
C3247 C3243 1.397 . S
C3247 C3248 1.394 . S
C3247 C3266 1.723 . S
C3248 C3245 1.396 . S
C3248 C3247 1.394 . S
C3248 C3278 1.723 . S
H3249 C3272 0.947 . S
H3250 C3273 0.948 . S
H3251 C3279 0.982 . S
H3252 C3280 0.979 . S
H3253 C3280 0.980 . S
H3254 C3280 0.983 . S
H3255 C3279 0.979 . S
H3256 C3279 0.977 . S
C3257 C3245 1.453 . S
C3257 H3286 0.982 . S
C3257 H3287 0.979 . S
C3257 H3288 0.977 . S
C3258 C3245 1.684 . S
C3258 H3283 0.979 . S
C3258 H3284 0.980 . S
C3258 H3285 0.983 . S
C3259 C3260 1.391 . S
C3259 C3264 1.391 . S
C3259 H3289 0.948 . S
C3260 C3259 1.391 . S
C3260 C3261 1.391 . S
C3261 C3260 1.391 . S
C3261 C3262 1.392 . S
C3261 H3290 0.947 . S
C3262 C3261 1.392 . S
C3262 C3263 1.419 . S
C3262 H3291 0.948 . S
C3263 C3262 1.419 . S
C3263 C3264 1.391 . S
C3263 C3267 1.397 . S
C3264 C3259 1.391 . S
C3264 C3263 1.391 . S
C3264 C3265 1.399 . S
C3265 C3264 1.399 . S
C3265 C3266 1.396 . S
C3265 C3268 1.453 . S
C3265 C3269 1.684 . S
C3266 C3247 1.723 . S
C3266 C3265 1.396 . S
C3266 C3267 1.394 . S
C3267 C3263 1.397 . S
C3267 C3266 1.394 . S
C3267 C3277 1.723 . S
C3268 C3265 1.453 . S
C3268 H3292 0.982 . S
C3268 H3293 0.979 . S
C3268 H3294 0.977 . S
C3269 C3265 1.684 . S
C3269 H3295 0.979 . S
C3269 H3296 0.980 . S
C3269 H3297 0.983 . S
C3270 H3246 0.948 . S
C3270 C3271 1.391 . S
C3270 C3275 1.391 . S
C3271 C3270 1.391 . S
C3271 C3272 1.391 . S
C3272 H3249 0.947 . S
C3272 C3271 1.391 . S
C3272 C3273 1.392 . S
C3273 H3250 0.948 . S
C3273 C3272 1.392 . S
C3273 C3274 1.419 . S
C3274 C3273 1.419 . S
C3274 C3275 1.391 . S
C3274 C3278 1.397 . S
C3275 C3270 1.391 . S
C3275 C3274 1.391 . S
C3275 C3276 1.399 . S
C3276 C3275 1.399 . S
C3276 C3277 1.396 . S
C3276 C3279 1.453 . S
C3276 C3280 1.684 . S
C3277 C3267 1.723 . S
C3277 C3276 1.396 . S
C3277 C3278 1.394 . S
C3278 C3248 1.723 . S
C3278 C3274 1.397 . S
C3278 C3277 1.394 . S
C3279 H3251 0.982 . S
C3279 H3255 0.979 . S
C3279 H3256 0.977 . S
C3279 C3276 1.453 . S
C3280 H3252 0.979 . S
C3280 H3253 0.980 . S
C3280 H3254 0.983 . S
C3280 C3276 1.684 . S
H3281 C3299 0.948 . S
H3282 C3240 0.948 . S
H3283 C3258 0.979 . S
H3284 C3258 0.980 . S
H3285 C3258 0.983 . S
H3286 C3257 0.982 . S
H3287 C3257 0.979 . S
H3288 C3257 0.977 . S
H3289 C3259 0.948 . S
H3290 C3261 0.947 . S
H3291 C3262 0.948 . S
H3292 C3268 0.982 . S
H3293 C3268 0.979 . S
H3294 C3268 0.977 . S
H3295 C3269 0.979 . S
H3296 C3269 0.980 . S
H3297 C3269 0.983 . S
H3298 C3242 0.947 . S
C3299 C3242 1.392 . S
C3299 C3243 1.419 . S
C3299 H3281 0.948 . S
C3300 C3301 1.391 . S
C3300 C3304 1.391 . S
C3300 H3342 0.948 . S
C3301 C3300 1.391 . S
C3301 C3302 1.391 . S
C3302 C3301 1.391 . S
C3302 H3358 0.947 . S
C3302 C3359 1.392 . S
C3303 C3304 1.391 . S
C3303 C3307 1.397 . S
C3303 C3359 1.419 . S
C3304 C3300 1.391 . S
C3304 C3303 1.391 . S
C3304 C3305 1.399 . S
C3305 C3304 1.399 . S
C3305 C3308 1.396 . S
C3305 C3317 1.453 . S
C3305 C3318 1.684 . S
H3306 C3330 0.948 . S
C3307 C3303 1.397 . S
C3307 C3308 1.394 . S
C3307 C3326 1.723 . S
C3308 C3305 1.396 . S
C3308 C3307 1.394 . S
C3308 C3338 1.723 . S
H3309 C3332 0.947 . S
H3310 C3333 0.948 . S
H3311 C3339 0.982 . S
H3312 C3340 0.979 . S
H3313 C3340 0.980 . S
H3314 C3340 0.983 . S
H3315 C3339 0.979 . S
H3316 C3339 0.977 . S
C3317 C3305 1.453 . S
C3317 H3346 0.982 . S
C3317 H3347 0.979 . S
C3317 H3348 0.977 . S
C3318 C3305 1.684 . S
C3318 H3343 0.979 . S
C3318 H3344 0.980 . S
C3318 H3345 0.983 . S
C3319 C3320 1.391 . S
C3319 C3324 1.391 . S
C3319 H3349 0.948 . S
C3320 C3319 1.391 . S
C3320 C3321 1.391 . S
C3321 C3320 1.391 . S
C3321 C3322 1.392 . S
C3321 H3350 0.947 . S
C3322 C3321 1.392 . S
C3322 C3323 1.419 . S
C3322 H3351 0.948 . S
C3323 C3322 1.419 . S
C3323 C3324 1.391 . S
C3323 C3327 1.397 . S
C3324 C3319 1.391 . S
C3324 C3323 1.391 . S
C3324 C3325 1.399 . S
C3325 C3324 1.399 . S
C3325 C3326 1.396 . S
C3325 C3328 1.453 . S
C3325 C3329 1.684 . S
C3326 C3307 1.723 . S
C3326 C3325 1.396 . S
C3326 C3327 1.394 . S
C3327 C3323 1.397 . S
C3327 C3326 1.394 . S
C3327 C3337 1.723 . S
C3328 C3325 1.453 . S
C3328 H3352 0.982 . S
C3328 H3353 0.979 . S
C3328 H3354 0.977 . S
C3329 C3325 1.684 . S
C3329 H3355 0.979 . S
C3329 H3356 0.980 . S
C3329 H3357 0.983 . S
C3330 H3306 0.948 . S
C3330 C3331 1.391 . S
C3330 C3335 1.391 . S
C3331 C3330 1.391 . S
C3331 C3332 1.391 . S
C3332 H3309 0.947 . S
C3332 C3331 1.391 . S
C3332 C3333 1.392 . S
C3333 H3310 0.948 . S
C3333 C3332 1.392 . S
C3333 C3334 1.419 . S
C3334 C3333 1.419 . S
C3334 C3335 1.391 . S
C3334 C3338 1.397 . S
C3335 C3330 1.391 . S
C3335 C3334 1.391 . S
C3335 C3336 1.399 . S
C3336 C3335 1.399 . S
C3336 C3337 1.396 . S
C3336 C3339 1.453 . S
C3336 C3340 1.684 . S
C3337 C3327 1.723 . S
C3337 C3336 1.396 . S
C3337 C3338 1.394 . S
C3338 C3308 1.723 . S
C3338 C3334 1.397 . S
C3338 C3337 1.394 . S
C3339 H3311 0.982 . S
C3339 H3315 0.979 . S
C3339 H3316 0.977 . S
C3339 C3336 1.453 . S
C3340 H3312 0.979 . S
C3340 H3313 0.980 . S
C3340 H3314 0.983 . S
C3340 C3336 1.684 . S
H3341 C3359 0.948 . S
H3342 C3300 0.948 . S
H3343 C3318 0.979 . S
H3344 C3318 0.980 . S
H3345 C3318 0.983 . S
H3346 C3317 0.982 . S
H3347 C3317 0.979 . S
H3348 C3317 0.977 . S
H3349 C3319 0.948 . S
H3350 C3321 0.947 . S
H3351 C3322 0.948 . S
H3352 C3328 0.982 . S
H3353 C3328 0.979 . S
H3354 C3328 0.977 . S
H3355 C3329 0.979 . S
H3356 C3329 0.980 . S
H3357 C3329 0.983 . S
H3358 C3302 0.947 . S
C3359 C3302 1.392 . S
C3359 C3303 1.419 . S
C3359 H3341 0.948 . S
C3360 C3361 1.391 . S
C3360 C3364 1.391 . S
C3360 H3402 0.948 . S
C3361 C3360 1.391 . S
C3361 C3362 1.391 . S
C3362 C3361 1.391 . S
C3362 H3418 0.947 . S
C3362 C3419 1.392 . S
C3363 C3364 1.391 . S
C3363 C3367 1.397 . S
C3363 C3419 1.419 . S
C3364 C3360 1.391 . S
C3364 C3363 1.391 . S
C3364 C3365 1.399 . S
C3365 C3364 1.399 . S
C3365 C3368 1.396 . S
C3365 C3377 1.453 . S
C3365 C3378 1.684 . S
H3366 C3390 0.948 . S
C3367 C3363 1.397 . S
C3367 C3368 1.394 . S
C3367 C3386 1.723 . S
C3368 C3365 1.396 . S
C3368 C3367 1.394 . S
C3368 C3398 1.723 . S
H3369 C3392 0.947 . S
H3370 C3393 0.948 . S
H3371 C3399 0.982 . S
H3372 C3400 0.979 . S
H3373 C3400 0.980 . S
H3374 C3400 0.983 . S
H3375 C3399 0.979 . S
H3376 C3399 0.977 . S
C3377 C3365 1.453 . S
C3377 H3406 0.982 . S
C3377 H3407 0.979 . S
C3377 H3408 0.977 . S
C3378 C3365 1.684 . S
C3378 H3403 0.979 . S
C3378 H3404 0.980 . S
C3378 H3405 0.983 . S
C3379 C3380 1.391 . S
C3379 C3384 1.391 . S
C3379 H3409 0.948 . S
C3380 C3379 1.391 . S
C3380 C3381 1.391 . S
C3381 C3380 1.391 . S
C3381 C3382 1.392 . S
C3381 H3410 0.947 . S
C3382 C3381 1.392 . S
C3382 C3383 1.419 . S
C3382 H3411 0.948 . S
C3383 C3382 1.419 . S
C3383 C3384 1.391 . S
C3383 C3387 1.397 . S
C3384 C3379 1.391 . S
C3384 C3383 1.391 . S
C3384 C3385 1.399 . S
C3385 C3384 1.399 . S
C3385 C3386 1.396 . S
C3385 C3388 1.453 . S
C3385 C3389 1.684 . S
C3386 C3367 1.723 . S
C3386 C3385 1.396 . S
C3386 C3387 1.394 . S
C3387 C3383 1.397 . S
C3387 C3386 1.394 . S
C3387 C3397 1.723 . S
C3388 C3385 1.453 . S
C3388 H3412 0.982 . S
C3388 H3413 0.979 . S
C3388 H3414 0.977 . S
C3389 C3385 1.684 . S
C3389 H3415 0.979 . S
C3389 H3416 0.980 . S
C3389 H3417 0.983 . S
C3390 H3366 0.948 . S
C3390 C3391 1.391 . S
C3390 C3395 1.391 . S
C3391 C3390 1.391 . S
C3391 C3392 1.391 . S
C3392 H3369 0.947 . S
C3392 C3391 1.391 . S
C3392 C3393 1.392 . S
C3393 H3370 0.948 . S
C3393 C3392 1.392 . S
C3393 C3394 1.419 . S
C3394 C3393 1.419 . S
C3394 C3395 1.391 . S
C3394 C3398 1.397 . S
C3395 C3390 1.391 . S
C3395 C3394 1.391 . S
C3395 C3396 1.399 . S
C3396 C3395 1.399 . S
C3396 C3397 1.396 . S
C3396 C3399 1.453 . S
C3396 C3400 1.684 . S
C3397 C3387 1.723 . S
C3397 C3396 1.396 . S
C3397 C3398 1.394 . S
C3398 C3368 1.723 . S
C3398 C3394 1.397 . S
C3398 C3397 1.394 . S
C3399 H3371 0.982 . S
C3399 H3375 0.979 . S
C3399 H3376 0.977 . S
C3399 C3396 1.453 . S
C3400 H3372 0.979 . S
C3400 H3373 0.980 . S
C3400 H3374 0.983 . S
C3400 C3396 1.684 . S
H3401 C3419 0.948 . S
H3402 C3360 0.948 . S
H3403 C3378 0.979 . S
H3404 C3378 0.980 . S
H3405 C3378 0.983 . S
H3406 C3377 0.982 . S
H3407 C3377 0.979 . S
H3408 C3377 0.977 . S
H3409 C3379 0.948 . S
H3410 C3381 0.947 . S
H3411 C3382 0.948 . S
H3412 C3388 0.982 . S
H3413 C3388 0.979 . S
H3414 C3388 0.977 . S
H3415 C3389 0.979 . S
H3416 C3389 0.980 . S
H3417 C3389 0.983 . S
H3418 C3362 0.947 . S
C3419 C3362 1.392 . S
C3419 C3363 1.419 . S
C3419 H3401 0.948 . S
C3420 C3421 1.391 . S
C3420 C3424 1.391 . S
C3420 H3462 0.948 . S
C3421 C3420 1.391 . S
C3421 C3422 1.391 . S
C3422 C3421 1.391 . S
C3422 H3478 0.947 . S
C3422 C3479 1.392 . S
C3423 C3424 1.391 . S
C3423 C3427 1.397 . S
C3423 C3479 1.419 . S
C3424 C3420 1.391 . S
C3424 C3423 1.391 . S
C3424 C3425 1.399 . S
C3425 C3424 1.399 . S
C3425 C3428 1.396 . S
C3425 C3437 1.453 . S
C3425 C3438 1.684 . S
H3426 C3450 0.948 . S
C3427 C3423 1.397 . S
C3427 C3428 1.394 . S
C3427 C3446 1.723 . S
C3428 C3425 1.396 . S
C3428 C3427 1.394 . S
C3428 C3458 1.723 . S
H3429 C3452 0.947 . S
H3430 C3453 0.948 . S
H3431 C3459 0.982 . S
H3432 C3460 0.979 . S
H3433 C3460 0.980 . S
H3434 C3460 0.983 . S
H3435 C3459 0.979 . S
H3436 C3459 0.977 . S
C3437 C3425 1.453 . S
C3437 H3466 0.982 . S
C3437 H3467 0.979 . S
C3437 H3468 0.977 . S
C3438 C3425 1.684 . S
C3438 H3463 0.979 . S
C3438 H3464 0.980 . S
C3438 H3465 0.983 . S
C3439 C3440 1.391 . S
C3439 C3444 1.391 . S
C3439 H3469 0.948 . S
C3440 C3439 1.391 . S
C3440 C3441 1.391 . S
C3441 C3440 1.391 . S
C3441 C3442 1.392 . S
C3441 H3470 0.947 . S
C3442 C3441 1.392 . S
C3442 C3443 1.419 . S
C3442 H3471 0.948 . S
C3443 C3442 1.419 . S
C3443 C3444 1.391 . S
C3443 C3447 1.397 . S
C3444 C3439 1.391 . S
C3444 C3443 1.391 . S
C3444 C3445 1.399 . S
C3445 C3444 1.399 . S
C3445 C3446 1.396 . S
C3445 C3448 1.453 . S
C3445 C3449 1.684 . S
C3446 C3427 1.723 . S
C3446 C3445 1.396 . S
C3446 C3447 1.394 . S
C3447 C3443 1.397 . S
C3447 C3446 1.394 . S
C3447 C3457 1.723 . S
C3448 C3445 1.453 . S
C3448 H3472 0.982 . S
C3448 H3473 0.979 . S
C3448 H3474 0.977 . S
C3449 C3445 1.684 . S
C3449 H3475 0.979 . S
C3449 H3476 0.980 . S
C3449 H3477 0.983 . S
C3450 H3426 0.948 . S
C3450 C3451 1.391 . S
C3450 C3455 1.391 . S
C3451 C3450 1.391 . S
C3451 C3452 1.391 . S
C3452 H3429 0.947 . S
C3452 C3451 1.391 . S
C3452 C3453 1.392 . S
C3453 H3430 0.948 . S
C3453 C3452 1.392 . S
C3453 C3454 1.419 . S
C3454 C3453 1.419 . S
C3454 C3455 1.391 . S
C3454 C3458 1.397 . S
C3455 C3450 1.391 . S
C3455 C3454 1.391 . S
C3455 C3456 1.399 . S
C3456 C3455 1.399 . S
C3456 C3457 1.396 . S
C3456 C3459 1.453 . S
C3456 C3460 1.684 . S
C3457 C3447 1.723 . S
C3457 C3456 1.396 . S
C3457 C3458 1.394 . S
C3458 C3428 1.723 . S
C3458 C3454 1.397 . S
C3458 C3457 1.394 . S
C3459 H3431 0.982 . S
C3459 H3435 0.979 . S
C3459 H3436 0.977 . S
C3459 C3456 1.453 . S
C3460 H3432 0.979 . S
C3460 H3433 0.980 . S
C3460 H3434 0.983 . S
C3460 C3456 1.684 . S
H3461 C3479 0.948 . S
H3462 C3420 0.948 . S
H3463 C3438 0.979 . S
H3464 C3438 0.980 . S
H3465 C3438 0.983 . S
H3466 C3437 0.982 . S
H3467 C3437 0.979 . S
H3468 C3437 0.977 . S
H3469 C3439 0.948 . S
H3470 C3441 0.947 . S
H3471 C3442 0.948 . S
H3472 C3448 0.982 . S
H3473 C3448 0.979 . S
H3474 C3448 0.977 . S
H3475 C3449 0.979 . S
H3476 C3449 0.980 . S
H3477 C3449 0.983 . S
H3478 C3422 0.947 . S
C3479 C3422 1.392 . S
C3479 C3423 1.419 . S
C3479 H3461 0.948 . S
C3480 C3481 1.391 . S
C3480 C3484 1.391 . S
C3480 H3522 0.948 . S
C3481 C3480 1.391 . S
C3481 C3482 1.391 . S
C3482 C3481 1.391 . S
C3482 H3538 0.947 . S
C3482 C3539 1.392 . S
C3483 C3484 1.391 . S
C3483 C3487 1.397 . S
C3483 C3539 1.419 . S
C3484 C3480 1.391 . S
C3484 C3483 1.391 . S
C3484 C3485 1.399 . S
C3485 C3484 1.399 . S
C3485 C3488 1.396 . S
C3485 C3497 1.453 . S
C3485 C3498 1.684 . S
H3486 C3510 0.948 . S
C3487 C3483 1.397 . S
C3487 C3488 1.394 . S
C3487 C3506 1.723 . S
C3488 C3485 1.396 . S
C3488 C3487 1.394 . S
C3488 C3518 1.723 . S
H3489 C3512 0.947 . S
H3490 C3513 0.948 . S
H3491 C3519 0.982 . S
H3492 C3520 0.979 . S
H3493 C3520 0.980 . S
H3494 C3520 0.983 . S
H3495 C3519 0.979 . S
H3496 C3519 0.977 . S
C3497 C3485 1.453 . S
C3497 H3526 0.982 . S
C3497 H3527 0.979 . S
C3497 H3528 0.977 . S
C3498 C3485 1.684 . S
C3498 H3523 0.979 . S
C3498 H3524 0.980 . S
C3498 H3525 0.983 . S
C3499 C3500 1.391 . S
C3499 C3504 1.391 . S
C3499 H3529 0.948 . S
C3500 C3499 1.391 . S
C3500 C3501 1.391 . S
C3501 C3500 1.391 . S
C3501 C3502 1.392 . S
C3501 H3530 0.947 . S
C3502 C3501 1.392 . S
C3502 C3503 1.419 . S
C3502 H3531 0.948 . S
C3503 C3502 1.419 . S
C3503 C3504 1.391 . S
C3503 C3507 1.397 . S
C3504 C3499 1.391 . S
C3504 C3503 1.391 . S
C3504 C3505 1.399 . S
C3505 C3504 1.399 . S
C3505 C3506 1.396 . S
C3505 C3508 1.453 . S
C3505 C3509 1.684 . S
C3506 C3487 1.723 . S
C3506 C3505 1.396 . S
C3506 C3507 1.394 . S
C3507 C3503 1.397 . S
C3507 C3506 1.394 . S
C3507 C3517 1.723 . S
C3508 C3505 1.453 . S
C3508 H3532 0.982 . S
C3508 H3533 0.979 . S
C3508 H3534 0.977 . S
C3509 C3505 1.684 . S
C3509 H3535 0.979 . S
C3509 H3536 0.980 . S
C3509 H3537 0.983 . S
C3510 H3486 0.948 . S
C3510 C3511 1.391 . S
C3510 C3515 1.391 . S
C3511 C3510 1.391 . S
C3511 C3512 1.391 . S
C3512 H3489 0.947 . S
C3512 C3511 1.391 . S
C3512 C3513 1.392 . S
C3513 H3490 0.948 . S
C3513 C3512 1.392 . S
C3513 C3514 1.419 . S
C3514 C3513 1.419 . S
C3514 C3515 1.391 . S
C3514 C3518 1.397 . S
C3515 C3510 1.391 . S
C3515 C3514 1.391 . S
C3515 C3516 1.399 . S
C3516 C3515 1.399 . S
C3516 C3517 1.396 . S
C3516 C3519 1.453 . S
C3516 C3520 1.684 . S
C3517 C3507 1.723 . S
C3517 C3516 1.396 . S
C3517 C3518 1.394 . S
C3518 C3488 1.723 . S
C3518 C3514 1.397 . S
C3518 C3517 1.394 . S
C3519 H3491 0.982 . S
C3519 H3495 0.979 . S
C3519 H3496 0.977 . S
C3519 C3516 1.453 . S
C3520 H3492 0.979 . S
C3520 H3493 0.980 . S
C3520 H3494 0.983 . S
C3520 C3516 1.684 . S
H3521 C3539 0.948 . S
H3522 C3480 0.948 . S
H3523 C3498 0.979 . S
H3524 C3498 0.980 . S
H3525 C3498 0.983 . S
H3526 C3497 0.982 . S
H3527 C3497 0.979 . S
H3528 C3497 0.977 . S
H3529 C3499 0.948 . S
H3530 C3501 0.947 . S
H3531 C3502 0.948 . S
H3532 C3508 0.982 . S
H3533 C3508 0.979 . S
H3534 C3508 0.977 . S
H3535 C3509 0.979 . S
H3536 C3509 0.980 . S
H3537 C3509 0.983 . S
H3538 C3482 0.947 . S
C3539 C3482 1.392 . S
C3539 C3483 1.419 . S
C3539 H3521 0.948 . S
C3540 C3541 1.391 . S
C3540 C3544 1.391 . S
C3540 H3582 0.948 . S
C3541 C3540 1.391 . S
C3541 C3542 1.391 . S
C3542 C3541 1.391 . S
C3542 H3598 0.947 . S
C3542 C3599 1.392 . S
C3543 C3544 1.391 . S
C3543 C3547 1.397 . S
C3543 C3599 1.419 . S
C3544 C3540 1.391 . S
C3544 C3543 1.391 . S
C3544 C3545 1.399 . S
C3545 C3544 1.399 . S
C3545 C3548 1.396 . S
C3545 C3557 1.453 . S
C3545 C3558 1.684 . S
H3546 C3570 0.948 . S
C3547 C3543 1.397 . S
C3547 C3548 1.394 . S
C3547 C3566 1.723 . S
C3548 C3545 1.396 . S
C3548 C3547 1.394 . S
C3548 C3578 1.723 . S
H3549 C3572 0.947 . S
H3550 C3573 0.948 . S
H3551 C3579 0.982 . S
H3552 C3580 0.979 . S
H3553 C3580 0.980 . S
H3554 C3580 0.983 . S
H3555 C3579 0.979 . S
H3556 C3579 0.977 . S
C3557 C3545 1.453 . S
C3557 H3586 0.982 . S
C3557 H3587 0.979 . S
C3557 H3588 0.977 . S
C3558 C3545 1.684 . S
C3558 H3583 0.979 . S
C3558 H3584 0.980 . S
C3558 H3585 0.983 . S
C3559 C3560 1.391 . S
C3559 C3564 1.391 . S
C3559 H3589 0.948 . S
C3560 C3559 1.391 . S
C3560 C3561 1.391 . S
C3561 C3560 1.391 . S
C3561 C3562 1.392 . S
C3561 H3590 0.947 . S
C3562 C3561 1.392 . S
C3562 C3563 1.419 . S
C3562 H3591 0.948 . S
C3563 C3562 1.419 . S
C3563 C3564 1.391 . S
C3563 C3567 1.397 . S
C3564 C3559 1.391 . S
C3564 C3563 1.391 . S
C3564 C3565 1.399 . S
C3565 C3564 1.399 . S
C3565 C3566 1.396 . S
C3565 C3568 1.453 . S
C3565 C3569 1.684 . S
C3566 C3547 1.723 . S
C3566 C3565 1.396 . S
C3566 C3567 1.394 . S
C3567 C3563 1.397 . S
C3567 C3566 1.394 . S
C3567 C3577 1.723 . S
C3568 C3565 1.453 . S
C3568 H3592 0.982 . S
C3568 H3593 0.979 . S
C3568 H3594 0.977 . S
C3569 C3565 1.684 . S
C3569 H3595 0.979 . S
C3569 H3596 0.980 . S
C3569 H3597 0.983 . S
C3570 H3546 0.948 . S
C3570 C3571 1.391 . S
C3570 C3575 1.391 . S
C3571 C3570 1.391 . S
C3571 C3572 1.391 . S
C3572 H3549 0.947 . S
C3572 C3571 1.391 . S
C3572 C3573 1.392 . S
C3573 H3550 0.948 . S
C3573 C3572 1.392 . S
C3573 C3574 1.419 . S
C3574 C3573 1.419 . S
C3574 C3575 1.391 . S
C3574 C3578 1.397 . S
C3575 C3570 1.391 . S
C3575 C3574 1.391 . S
C3575 C3576 1.399 . S
C3576 C3575 1.399 . S
C3576 C3577 1.396 . S
C3576 C3579 1.453 . S
C3576 C3580 1.684 . S
C3577 C3567 1.723 . S
C3577 C3576 1.396 . S
C3577 C3578 1.394 . S
C3578 C3548 1.723 . S
C3578 C3574 1.397 . S
C3578 C3577 1.394 . S
C3579 H3551 0.982 . S
C3579 H3555 0.979 . S
C3579 H3556 0.977 . S
C3579 C3576 1.453 . S
C3580 H3552 0.979 . S
C3580 H3553 0.980 . S
C3580 H3554 0.983 . S
C3580 C3576 1.684 . S
H3581 C3599 0.948 . S
H3582 C3540 0.948 . S
H3583 C3558 0.979 . S
H3584 C3558 0.980 . S
H3585 C3558 0.983 . S
H3586 C3557 0.982 . S
H3587 C3557 0.979 . S
H3588 C3557 0.977 . S
H3589 C3559 0.948 . S
H3590 C3561 0.947 . S
H3591 C3562 0.948 . S
H3592 C3568 0.982 . S
H3593 C3568 0.979 . S
H3594 C3568 0.977 . S
H3595 C3569 0.979 . S
H3596 C3569 0.980 . S
H3597 C3569 0.983 . S
H3598 C3542 0.947 . S
C3599 C3542 1.392 . S
C3599 C3543 1.419 . S
C3599 H3581 0.948 . S
C3600 C3601 1.391 . S
C3600 C3604 1.391 . S
C3600 H3642 0.948 . S
C3601 C3600 1.391 . S
C3601 C3602 1.391 . S
C3602 C3601 1.391 . S
C3602 H3658 0.947 . S
C3602 C3659 1.392 . S
C3603 C3604 1.391 . S
C3603 C3607 1.397 . S
C3603 C3659 1.419 . S
C3604 C3600 1.391 . S
C3604 C3603 1.391 . S
C3604 C3605 1.399 . S
C3605 C3604 1.399 . S
C3605 C3608 1.396 . S
C3605 C3617 1.453 . S
C3605 C3618 1.684 . S
H3606 C3630 0.948 . S
C3607 C3603 1.397 . S
C3607 C3608 1.394 . S
C3607 C3626 1.723 . S
C3608 C3605 1.396 . S
C3608 C3607 1.394 . S
C3608 C3638 1.723 . S
H3609 C3632 0.947 . S
H3610 C3633 0.948 . S
H3611 C3639 0.982 . S
H3612 C3640 0.979 . S
H3613 C3640 0.980 . S
H3614 C3640 0.983 . S
H3615 C3639 0.979 . S
H3616 C3639 0.977 . S
C3617 C3605 1.453 . S
C3617 H3646 0.982 . S
C3617 H3647 0.979 . S
C3617 H3648 0.977 . S
C3618 C3605 1.684 . S
C3618 H3643 0.979 . S
C3618 H3644 0.980 . S
C3618 H3645 0.983 . S
C3619 C3620 1.391 . S
C3619 C3624 1.391 . S
C3619 H3649 0.948 . S
C3620 C3619 1.391 . S
C3620 C3621 1.391 . S
C3621 C3620 1.391 . S
C3621 C3622 1.392 . S
C3621 H3650 0.947 . S
C3622 C3621 1.392 . S
C3622 C3623 1.419 . S
C3622 H3651 0.948 . S
C3623 C3622 1.419 . S
C3623 C3624 1.391 . S
C3623 C3627 1.397 . S
C3624 C3619 1.391 . S
C3624 C3623 1.391 . S
C3624 C3625 1.399 . S
C3625 C3624 1.399 . S
C3625 C3626 1.396 . S
C3625 C3628 1.453 . S
C3625 C3629 1.684 . S
C3626 C3607 1.723 . S
C3626 C3625 1.396 . S
C3626 C3627 1.394 . S
C3627 C3623 1.397 . S
C3627 C3626 1.394 . S
C3627 C3637 1.723 . S
C3628 C3625 1.453 . S
C3628 H3652 0.982 . S
C3628 H3653 0.979 . S
C3628 H3654 0.977 . S
C3629 C3625 1.684 . S
C3629 H3655 0.979 . S
C3629 H3656 0.980 . S
C3629 H3657 0.983 . S
C3630 H3606 0.948 . S
C3630 C3631 1.391 . S
C3630 C3635 1.391 . S
C3631 C3630 1.391 . S
C3631 C3632 1.391 . S
C3632 H3609 0.947 . S
C3632 C3631 1.391 . S
C3632 C3633 1.392 . S
C3633 H3610 0.948 . S
C3633 C3632 1.392 . S
C3633 C3634 1.419 . S
C3634 C3633 1.419 . S
C3634 C3635 1.391 . S
C3634 C3638 1.397 . S
C3635 C3630 1.391 . S
C3635 C3634 1.391 . S
C3635 C3636 1.399 . S
C3636 C3635 1.399 . S
C3636 C3637 1.396 . S
C3636 C3639 1.453 . S
C3636 C3640 1.684 . S
C3637 C3627 1.723 . S
C3637 C3636 1.396 . S
C3637 C3638 1.394 . S
C3638 C3608 1.723 . S
C3638 C3634 1.397 . S
C3638 C3637 1.394 . S
C3639 H3611 0.982 . S
C3639 H3615 0.979 . S
C3639 H3616 0.977 . S
C3639 C3636 1.453 . S
C3640 H3612 0.979 . S
C3640 H3613 0.980 . S
C3640 H3614 0.983 . S
C3640 C3636 1.684 . S
H3641 C3659 0.948 . S
H3642 C3600 0.948 . S
H3643 C3618 0.979 . S
H3644 C3618 0.980 . S
H3645 C3618 0.983 . S
H3646 C3617 0.982 . S
H3647 C3617 0.979 . S
H3648 C3617 0.977 . S
H3649 C3619 0.948 . S
H3650 C3621 0.947 . S
H3651 C3622 0.948 . S
H3652 C3628 0.982 . S
H3653 C3628 0.979 . S
H3654 C3628 0.977 . S
H3655 C3629 0.979 . S
H3656 C3629 0.980 . S
H3657 C3629 0.983 . S
H3658 C3602 0.947 . S
C3659 C3602 1.392 . S
C3659 C3603 1.419 . S
C3659 H3641 0.948 . S
C3660 C3661 1.391 . S
C3660 C3664 1.391 . S
C3660 H3702 0.948 . S
C3661 C3660 1.391 . S
C3661 C3662 1.391 . S
C3662 C3661 1.391 . S
C3662 H3718 0.947 . S
C3662 C3719 1.392 . S
C3663 C3664 1.391 . S
C3663 C3667 1.397 . S
C3663 C3719 1.419 . S
C3664 C3660 1.391 . S
C3664 C3663 1.391 . S
C3664 C3665 1.399 . S
C3665 C3664 1.399 . S
C3665 C3668 1.396 . S
C3665 C3677 1.453 . S
C3665 C3678 1.684 . S
H3666 C3690 0.948 . S
C3667 C3663 1.397 . S
C3667 C3668 1.394 . S
C3667 C3686 1.723 . S
C3668 C3665 1.396 . S
C3668 C3667 1.394 . S
C3668 C3698 1.723 . S
H3669 C3692 0.947 . S
H3670 C3693 0.948 . S
H3671 C3699 0.982 . S
H3672 C3700 0.979 . S
H3673 C3700 0.980 . S
H3674 C3700 0.983 . S
H3675 C3699 0.979 . S
H3676 C3699 0.977 . S
C3677 C3665 1.453 . S
C3677 H3706 0.982 . S
C3677 H3707 0.979 . S
C3677 H3708 0.977 . S
C3678 C3665 1.684 . S
C3678 H3703 0.979 . S
C3678 H3704 0.980 . S
C3678 H3705 0.983 . S
C3679 C3680 1.391 . S
C3679 C3684 1.391 . S
C3679 H3709 0.948 . S
C3680 C3679 1.391 . S
C3680 C3681 1.391 . S
C3681 C3680 1.391 . S
C3681 C3682 1.392 . S
C3681 H3710 0.947 . S
C3682 C3681 1.392 . S
C3682 C3683 1.419 . S
C3682 H3711 0.948 . S
C3683 C3682 1.419 . S
C3683 C3684 1.391 . S
C3683 C3687 1.397 . S
C3684 C3679 1.391 . S
C3684 C3683 1.391 . S
C3684 C3685 1.399 . S
C3685 C3684 1.399 . S
C3685 C3686 1.396 . S
C3685 C3688 1.453 . S
C3685 C3689 1.684 . S
C3686 C3667 1.723 . S
C3686 C3685 1.396 . S
C3686 C3687 1.394 . S
C3687 C3683 1.397 . S
C3687 C3686 1.394 . S
C3687 C3697 1.723 . S
C3688 C3685 1.453 . S
C3688 H3712 0.982 . S
C3688 H3713 0.979 . S
C3688 H3714 0.977 . S
C3689 C3685 1.684 . S
C3689 H3715 0.979 . S
C3689 H3716 0.980 . S
C3689 H3717 0.983 . S
C3690 H3666 0.948 . S
C3690 C3691 1.391 . S
C3690 C3695 1.391 . S
C3691 C3690 1.391 . S
C3691 C3692 1.391 . S
C3692 H3669 0.947 . S
C3692 C3691 1.391 . S
C3692 C3693 1.392 . S
C3693 H3670 0.948 . S
C3693 C3692 1.392 . S
C3693 C3694 1.419 . S
C3694 C3693 1.419 . S
C3694 C3695 1.391 . S
C3694 C3698 1.397 . S
C3695 C3690 1.391 . S
C3695 C3694 1.391 . S
C3695 C3696 1.399 . S
C3696 C3695 1.399 . S
C3696 C3697 1.396 . S
C3696 C3699 1.453 . S
C3696 C3700 1.684 . S
C3697 C3687 1.723 . S
C3697 C3696 1.396 . S
C3697 C3698 1.394 . S
C3698 C3668 1.723 . S
C3698 C3694 1.397 . S
C3698 C3697 1.394 . S
C3699 H3671 0.982 . S
C3699 H3675 0.979 . S
C3699 H3676 0.977 . S
C3699 C3696 1.453 . S
C3700 H3672 0.979 . S
C3700 H3673 0.980 . S
C3700 H3674 0.983 . S
C3700 C3696 1.684 . S
H3701 C3719 0.948 . S
H3702 C3660 0.948 . S
H3703 C3678 0.979 . S
H3704 C3678 0.980 . S
H3705 C3678 0.983 . S
H3706 C3677 0.982 . S
H3707 C3677 0.979 . S
H3708 C3677 0.977 . S
H3709 C3679 0.948 . S
H3710 C3681 0.947 . S
H3711 C3682 0.948 . S
H3712 C3688 0.982 . S
H3713 C3688 0.979 . S
H3714 C3688 0.977 . S
H3715 C3689 0.979 . S
H3716 C3689 0.980 . S
H3717 C3689 0.983 . S
H3718 C3662 0.947 . S
C3719 C3662 1.392 . S
C3719 C3663 1.419 . S
C3719 H3701 0.948 . S
C3720 C3721 1.391 . S
C3720 C3724 1.391 . S
C3720 H3762 0.948 . S
C3721 C3720 1.391 . S
C3721 C3722 1.391 . S
C3722 C3721 1.391 . S
C3722 H3778 0.947 . S
C3722 C3779 1.392 . S
C3723 C3724 1.391 . S
C3723 C3727 1.397 . S
C3723 C3779 1.419 . S
C3724 C3720 1.391 . S
C3724 C3723 1.391 . S
C3724 C3725 1.399 . S
C3725 C3724 1.399 . S
C3725 C3728 1.396 . S
C3725 C3737 1.453 . S
C3725 C3738 1.684 . S
H3726 C3750 0.948 . S
C3727 C3723 1.397 . S
C3727 C3728 1.394 . S
C3727 C3746 1.723 . S
C3728 C3725 1.396 . S
C3728 C3727 1.394 . S
C3728 C3758 1.723 . S
H3729 C3752 0.947 . S
H3730 C3753 0.948 . S
H3731 C3759 0.982 . S
H3732 C3760 0.979 . S
H3733 C3760 0.980 . S
H3734 C3760 0.983 . S
H3735 C3759 0.979 . S
H3736 C3759 0.977 . S
C3737 C3725 1.453 . S
C3737 H3766 0.982 . S
C3737 H3767 0.979 . S
C3737 H3768 0.977 . S
C3738 C3725 1.684 . S
C3738 H3763 0.979 . S
C3738 H3764 0.980 . S
C3738 H3765 0.983 . S
C3739 C3740 1.391 . S
C3739 C3744 1.391 . S
C3739 H3769 0.948 . S
C3740 C3739 1.391 . S
C3740 C3741 1.391 . S
C3741 C3740 1.391 . S
C3741 C3742 1.392 . S
C3741 H3770 0.947 . S
C3742 C3741 1.392 . S
C3742 C3743 1.419 . S
C3742 H3771 0.948 . S
C3743 C3742 1.419 . S
C3743 C3744 1.391 . S
C3743 C3747 1.397 . S
C3744 C3739 1.391 . S
C3744 C3743 1.391 . S
C3744 C3745 1.399 . S
C3745 C3744 1.399 . S
C3745 C3746 1.396 . S
C3745 C3748 1.453 . S
C3745 C3749 1.684 . S
C3746 C3727 1.723 . S
C3746 C3745 1.396 . S
C3746 C3747 1.394 . S
C3747 C3743 1.397 . S
C3747 C3746 1.394 . S
C3747 C3757 1.723 . S
C3748 C3745 1.453 . S
C3748 H3772 0.982 . S
C3748 H3773 0.979 . S
C3748 H3774 0.977 . S
C3749 C3745 1.684 . S
C3749 H3775 0.979 . S
C3749 H3776 0.980 . S
C3749 H3777 0.983 . S
C3750 H3726 0.948 . S
C3750 C3751 1.391 . S
C3750 C3755 1.391 . S
C3751 C3750 1.391 . S
C3751 C3752 1.391 . S
C3752 H3729 0.947 . S
C3752 C3751 1.391 . S
C3752 C3753 1.392 . S
C3753 H3730 0.948 . S
C3753 C3752 1.392 . S
C3753 C3754 1.419 . S
C3754 C3753 1.419 . S
C3754 C3755 1.391 . S
C3754 C3758 1.397 . S
C3755 C3750 1.391 . S
C3755 C3754 1.391 . S
C3755 C3756 1.399 . S
C3756 C3755 1.399 . S
C3756 C3757 1.396 . S
C3756 C3759 1.453 . S
C3756 C3760 1.684 . S
C3757 C3747 1.723 . S
C3757 C3756 1.396 . S
C3757 C3758 1.394 . S
C3758 C3728 1.723 . S
C3758 C3754 1.397 . S
C3758 C3757 1.394 . S
C3759 H3731 0.982 . S
C3759 H3735 0.979 . S
C3759 H3736 0.977 . S
C3759 C3756 1.453 . S
C3760 H3732 0.979 . S
C3760 H3733 0.980 . S
C3760 H3734 0.983 . S
C3760 C3756 1.684 . S
H3761 C3779 0.948 . S
H3762 C3720 0.948 . S
H3763 C3738 0.979 . S
H3764 C3738 0.980 . S
H3765 C3738 0.983 . S
H3766 C3737 0.982 . S
H3767 C3737 0.979 . S
H3768 C3737 0.977 . S
H3769 C3739 0.948 . S
H3770 C3741 0.947 . S
H3771 C3742 0.948 . S
H3772 C3748 0.982 . S
H3773 C3748 0.979 . S
H3774 C3748 0.977 . S
H3775 C3749 0.979 . S
H3776 C3749 0.980 . S
H3777 C3749 0.983 . S
H3778 C3722 0.947 . S
C3779 C3722 1.392 . S
C3779 C3723 1.419 . S
C3779 H3761 0.948 . S
C3780 C3781 1.391 . S
C3780 C3784 1.391 . S
C3780 H3822 0.948 . S
C3781 C3780 1.391 . S
C3781 C3782 1.391 . S
C3782 C3781 1.391 . S
C3782 H3838 0.947 . S
C3782 C3839 1.392 . S
C3783 C3784 1.391 . S
C3783 C3787 1.397 . S
C3783 C3839 1.419 . S
C3784 C3780 1.391 . S
C3784 C3783 1.391 . S
C3784 C3785 1.399 . S
C3785 C3784 1.399 . S
C3785 C3788 1.396 . S
C3785 C3797 1.453 . S
C3785 C3798 1.684 . S
H3786 C3810 0.948 . S
C3787 C3783 1.397 . S
C3787 C3788 1.394 . S
C3787 C3806 1.723 . S
C3788 C3785 1.396 . S
C3788 C3787 1.394 . S
C3788 C3818 1.723 . S
H3789 C3812 0.947 . S
H3790 C3813 0.948 . S
H3791 C3819 0.982 . S
H3792 C3820 0.979 . S
H3793 C3820 0.980 . S
H3794 C3820 0.983 . S
H3795 C3819 0.979 . S
H3796 C3819 0.977 . S
C3797 C3785 1.453 . S
C3797 H3826 0.982 . S
C3797 H3827 0.979 . S
C3797 H3828 0.977 . S
C3798 C3785 1.684 . S
C3798 H3823 0.979 . S
C3798 H3824 0.980 . S
C3798 H3825 0.983 . S
C3799 C3800 1.391 . S
C3799 C3804 1.391 . S
C3799 H3829 0.948 . S
C3800 C3799 1.391 . S
C3800 C3801 1.391 . S
C3801 C3800 1.391 . S
C3801 C3802 1.392 . S
C3801 H3830 0.947 . S
C3802 C3801 1.392 . S
C3802 C3803 1.419 . S
C3802 H3831 0.948 . S
C3803 C3802 1.419 . S
C3803 C3804 1.391 . S
C3803 C3807 1.397 . S
C3804 C3799 1.391 . S
C3804 C3803 1.391 . S
C3804 C3805 1.399 . S
C3805 C3804 1.399 . S
C3805 C3806 1.396 . S
C3805 C3808 1.453 . S
C3805 C3809 1.684 . S
C3806 C3787 1.723 . S
C3806 C3805 1.396 . S
C3806 C3807 1.394 . S
C3807 C3803 1.397 . S
C3807 C3806 1.394 . S
C3807 C3817 1.723 . S
C3808 C3805 1.453 . S
C3808 H3832 0.982 . S
C3808 H3833 0.979 . S
C3808 H3834 0.977 . S
C3809 C3805 1.684 . S
C3809 H3835 0.979 . S
C3809 H3836 0.980 . S
C3809 H3837 0.983 . S
C3810 H3786 0.948 . S
C3810 C3811 1.391 . S
C3810 C3815 1.391 . S
C3811 C3810 1.391 . S
C3811 C3812 1.391 . S
C3812 H3789 0.947 . S
C3812 C3811 1.391 . S
C3812 C3813 1.392 . S
C3813 H3790 0.948 . S
C3813 C3812 1.392 . S
C3813 C3814 1.419 . S
C3814 C3813 1.419 . S
C3814 C3815 1.391 . S
C3814 C3818 1.397 . S
C3815 C3810 1.391 . S
C3815 C3814 1.391 . S
C3815 C3816 1.399 . S
C3816 C3815 1.399 . S
C3816 C3817 1.396 . S
C3816 C3819 1.453 . S
C3816 C3820 1.684 . S
C3817 C3807 1.723 . S
C3817 C3816 1.396 . S
C3817 C3818 1.394 . S
C3818 C3788 1.723 . S
C3818 C3814 1.397 . S
C3818 C3817 1.394 . S
C3819 H3791 0.982 . S
C3819 H3795 0.979 . S
C3819 H3796 0.977 . S
C3819 C3816 1.453 . S
C3820 H3792 0.979 . S
C3820 H3793 0.980 . S
C3820 H3794 0.983 . S
C3820 C3816 1.684 . S
H3821 C3839 0.948 . S
H3822 C3780 0.948 . S
H3823 C3798 0.979 . S
H3824 C3798 0.980 . S
H3825 C3798 0.983 . S
H3826 C3797 0.982 . S
H3827 C3797 0.979 . S
H3828 C3797 0.977 . S
H3829 C3799 0.948 . S
H3830 C3801 0.947 . S
H3831 C3802 0.948 . S
H3832 C3808 0.982 . S
H3833 C3808 0.979 . S
H3834 C3808 0.977 . S
H3835 C3809 0.979 . S
H3836 C3809 0.980 . S
H3837 C3809 0.983 . S
H3838 C3782 0.947 . S
C3839 C3782 1.392 . S
C3839 C3783 1.419 . S
C3839 H3821 0.948 . S
C3840 C3841 1.391 . S
C3840 C3844 1.391 . S
C3840 H3882 0.948 . S
C3841 C3840 1.391 . S
C3841 C3842 1.391 . S
C3842 C3841 1.391 . S
C3842 H3898 0.947 . S
C3842 C3899 1.392 . S
C3843 C3844 1.391 . S
C3843 C3847 1.397 . S
C3843 C3899 1.419 . S
C3844 C3840 1.391 . S
C3844 C3843 1.391 . S
C3844 C3845 1.399 . S
C3845 C3844 1.399 . S
C3845 C3848 1.396 . S
C3845 C3857 1.453 . S
C3845 C3858 1.684 . S
H3846 C3870 0.948 . S
C3847 C3843 1.397 . S
C3847 C3848 1.394 . S
C3847 C3866 1.723 . S
C3848 C3845 1.396 . S
C3848 C3847 1.394 . S
C3848 C3878 1.723 . S
H3849 C3872 0.947 . S
H3850 C3873 0.948 . S
H3851 C3879 0.982 . S
H3852 C3880 0.979 . S
H3853 C3880 0.980 . S
H3854 C3880 0.983 . S
H3855 C3879 0.979 . S
H3856 C3879 0.977 . S
C3857 C3845 1.453 . S
C3857 H3886 0.982 . S
C3857 H3887 0.979 . S
C3857 H3888 0.977 . S
C3858 C3845 1.684 . S
C3858 H3883 0.979 . S
C3858 H3884 0.980 . S
C3858 H3885 0.983 . S
C3859 C3860 1.391 . S
C3859 C3864 1.391 . S
C3859 H3889 0.948 . S
C3860 C3859 1.391 . S
C3860 C3861 1.391 . S
C3861 C3860 1.391 . S
C3861 C3862 1.392 . S
C3861 H3890 0.947 . S
C3862 C3861 1.392 . S
C3862 C3863 1.419 . S
C3862 H3891 0.948 . S
C3863 C3862 1.419 . S
C3863 C3864 1.391 . S
C3863 C3867 1.397 . S
C3864 C3859 1.391 . S
C3864 C3863 1.391 . S
C3864 C3865 1.399 . S
C3865 C3864 1.399 . S
C3865 C3866 1.396 . S
C3865 C3868 1.453 . S
C3865 C3869 1.684 . S
C3866 C3847 1.723 . S
C3866 C3865 1.396 . S
C3866 C3867 1.394 . S
C3867 C3863 1.397 . S
C3867 C3866 1.394 . S
C3867 C3877 1.723 . S
C3868 C3865 1.453 . S
C3868 H3892 0.982 . S
C3868 H3893 0.979 . S
C3868 H3894 0.977 . S
C3869 C3865 1.684 . S
C3869 H3895 0.979 . S
C3869 H3896 0.980 . S
C3869 H3897 0.983 . S
C3870 H3846 0.948 . S
C3870 C3871 1.391 . S
C3870 C3875 1.391 . S
C3871 C3870 1.391 . S
C3871 C3872 1.391 . S
C3872 H3849 0.947 . S
C3872 C3871 1.391 . S
C3872 C3873 1.392 . S
C3873 H3850 0.948 . S
C3873 C3872 1.392 . S
C3873 C3874 1.419 . S
C3874 C3873 1.419 . S
C3874 C3875 1.391 . S
C3874 C3878 1.397 . S
C3875 C3870 1.391 . S
C3875 C3874 1.391 . S
C3875 C3876 1.399 . S
C3876 C3875 1.399 . S
C3876 C3877 1.396 . S
C3876 C3879 1.453 . S
C3876 C3880 1.684 . S
C3877 C3867 1.723 . S
C3877 C3876 1.396 . S
C3877 C3878 1.394 . S
C3878 C3848 1.723 . S
C3878 C3874 1.397 . S
C3878 C3877 1.394 . S
C3879 H3851 0.982 . S
C3879 H3855 0.979 . S
C3879 H3856 0.977 . S
C3879 C3876 1.453 . S
C3880 H3852 0.979 . S
C3880 H3853 0.980 . S
C3880 H3854 0.983 . S
C3880 C3876 1.684 . S
H3881 C3899 0.948 . S
H3882 C3840 0.948 . S
H3883 C3858 0.979 . S
H3884 C3858 0.980 . S
H3885 C3858 0.983 . S
H3886 C3857 0.982 . S
H3887 C3857 0.979 . S
H3888 C3857 0.977 . S
H3889 C3859 0.948 . S
H3890 C3861 0.947 . S
H3891 C3862 0.948 . S
H3892 C3868 0.982 . S
H3893 C3868 0.979 . S
H3894 C3868 0.977 . S
H3895 C3869 0.979 . S
H3896 C3869 0.980 . S
H3897 C3869 0.983 . S
H3898 C3842 0.947 . S
C3899 C3842 1.392 . S
C3899 C3843 1.419 . S
C3899 H3881 0.948 . S
C3900 C3901 1.391 . S
C3900 C3904 1.391 . S
C3900 H3942 0.948 . S
C3901 C3900 1.391 . S
C3901 C3902 1.391 . S
C3902 C3901 1.391 . S
C3902 H3958 0.947 . S
C3902 C3959 1.392 . S
C3903 C3904 1.391 . S
C3903 C3907 1.397 . S
C3903 C3959 1.419 . S
C3904 C3900 1.391 . S
C3904 C3903 1.391 . S
C3904 C3905 1.399 . S
C3905 C3904 1.399 . S
C3905 C3908 1.396 . S
C3905 C3917 1.453 . S
C3905 C3918 1.684 . S
H3906 C3930 0.948 . S
C3907 C3903 1.397 . S
C3907 C3908 1.394 . S
C3907 C3926 1.723 . S
C3908 C3905 1.396 . S
C3908 C3907 1.394 . S
C3908 C3938 1.723 . S
H3909 C3932 0.947 . S
H3910 C3933 0.948 . S
H3911 C3939 0.982 . S
H3912 C3940 0.979 . S
H3913 C3940 0.980 . S
H3914 C3940 0.983 . S
H3915 C3939 0.979 . S
H3916 C3939 0.977 . S
C3917 C3905 1.453 . S
C3917 H3946 0.982 . S
C3917 H3947 0.979 . S
C3917 H3948 0.977 . S
C3918 C3905 1.684 . S
C3918 H3943 0.979 . S
C3918 H3944 0.980 . S
C3918 H3945 0.983 . S
C3919 C3920 1.391 . S
C3919 C3924 1.391 . S
C3919 H3949 0.948 . S
C3920 C3919 1.391 . S
C3920 C3921 1.391 . S
C3921 C3920 1.391 . S
C3921 C3922 1.392 . S
C3921 H3950 0.947 . S
C3922 C3921 1.392 . S
C3922 C3923 1.419 . S
C3922 H3951 0.948 . S
C3923 C3922 1.419 . S
C3923 C3924 1.391 . S
C3923 C3927 1.397 . S
C3924 C3919 1.391 . S
C3924 C3923 1.391 . S
C3924 C3925 1.399 . S
C3925 C3924 1.399 . S
C3925 C3926 1.396 . S
C3925 C3928 1.453 . S
C3925 C3929 1.684 . S
C3926 C3907 1.723 . S
C3926 C3925 1.396 . S
C3926 C3927 1.394 . S
C3927 C3923 1.397 . S
C3927 C3926 1.394 . S
C3927 C3937 1.723 . S
C3928 C3925 1.453 . S
C3928 H3952 0.982 . S
C3928 H3953 0.979 . S
C3928 H3954 0.977 . S
C3929 C3925 1.684 . S
C3929 H3955 0.979 . S
C3929 H3956 0.980 . S
C3929 H3957 0.983 . S
C3930 H3906 0.948 . S
C3930 C3931 1.391 . S
C3930 C3935 1.391 . S
C3931 C3930 1.391 . S
C3931 C3932 1.391 . S
C3932 H3909 0.947 . S
C3932 C3931 1.391 . S
C3932 C3933 1.392 . S
C3933 H3910 0.948 . S
C3933 C3932 1.392 . S
C3933 C3934 1.419 . S
C3934 C3933 1.419 . S
C3934 C3935 1.391 . S
C3934 C3938 1.397 . S
C3935 C3930 1.391 . S
C3935 C3934 1.391 . S
C3935 C3936 1.399 . S
C3936 C3935 1.399 . S
C3936 C3937 1.396 . S
C3936 C3939 1.453 . S
C3936 C3940 1.684 . S
C3937 C3927 1.723 . S
C3937 C3936 1.396 . S
C3937 C3938 1.394 . S
C3938 C3908 1.723 . S
C3938 C3934 1.397 . S
C3938 C3937 1.394 . S
C3939 H3911 0.982 . S
C3939 H3915 0.979 . S
C3939 H3916 0.977 . S
C3939 C3936 1.453 . S
C3940 H3912 0.979 . S
C3940 H3913 0.980 . S
C3940 H3914 0.983 . S
C3940 C3936 1.684 . S
H3941 C3959 0.948 . S
H3942 C3900 0.948 . S
H3943 C3918 0.979 . S
H3944 C3918 0.980 . S
H3945 C3918 0.983 . S
H3946 C3917 0.982 . S
H3947 C3917 0.979 . S
H3948 C3917 0.977 . S
H3949 C3919 0.948 . S
H3950 C3921 0.947 . S
H3951 C3922 0.948 . S
H3952 C3928 0.982 . S
H3953 C3928 0.979 . S
H3954 C3928 0.977 . S
H3955 C3929 0.979 . S
H3956 C3929 0.980 . S
H3957 C3929 0.983 . S
H3958 C3902 0.947 . S
C3959 C3902 1.392 . S
C3959 C3903 1.419 . S
C3959 H3941 0.948 . S
C3960 C3961 1.391 . S
C3960 C3964 1.391 . S
C3960 H4002 0.948 . S
C3961 C3960 1.391 . S
C3961 C3962 1.391 . S
C3962 C3961 1.391 . S
C3962 H4018 0.947 . S
C3962 C4019 1.392 . S
C3963 C3964 1.391 . S
C3963 C3967 1.397 . S
C3963 C4019 1.419 . S
C3964 C3960 1.391 . S
C3964 C3963 1.391 . S
C3964 C3965 1.399 . S
C3965 C3964 1.399 . S
C3965 C3968 1.396 . S
C3965 C3977 1.453 . S
C3965 C3978 1.684 . S
H3966 C3990 0.948 . S
C3967 C3963 1.397 . S
C3967 C3968 1.394 . S
C3967 C3986 1.723 . S
C3968 C3965 1.396 . S
C3968 C3967 1.394 . S
C3968 C3998 1.723 . S
H3969 C3992 0.947 . S
H3970 C3993 0.948 . S
H3971 C3999 0.982 . S
H3972 C4000 0.979 . S
H3973 C4000 0.980 . S
H3974 C4000 0.983 . S
H3975 C3999 0.979 . S
H3976 C3999 0.977 . S
C3977 C3965 1.453 . S
C3977 H4006 0.982 . S
C3977 H4007 0.979 . S
C3977 H4008 0.977 . S
C3978 C3965 1.684 . S
C3978 H4003 0.979 . S
C3978 H4004 0.980 . S
C3978 H4005 0.983 . S
C3979 C3980 1.391 . S
C3979 C3984 1.391 . S
C3979 H4009 0.948 . S
C3980 C3979 1.391 . S
C3980 C3981 1.391 . S
C3981 C3980 1.391 . S
C3981 C3982 1.392 . S
C3981 H4010 0.947 . S
C3982 C3981 1.392 . S
C3982 C3983 1.419 . S
C3982 H4011 0.948 . S
C3983 C3982 1.419 . S
C3983 C3984 1.391 . S
C3983 C3987 1.397 . S
C3984 C3979 1.391 . S
C3984 C3983 1.391 . S
C3984 C3985 1.399 . S
C3985 C3984 1.399 . S
C3985 C3986 1.396 . S
C3985 C3988 1.453 . S
C3985 C3989 1.684 . S
C3986 C3967 1.723 . S
C3986 C3985 1.396 . S
C3986 C3987 1.394 . S
C3987 C3983 1.397 . S
C3987 C3986 1.394 . S
C3987 C3997 1.723 . S
C3988 C3985 1.453 . S
C3988 H4012 0.982 . S
C3988 H4013 0.979 . S
C3988 H4014 0.977 . S
C3989 C3985 1.684 . S
C3989 H4015 0.979 . S
C3989 H4016 0.980 . S
C3989 H4017 0.983 . S
C3990 H3966 0.948 . S
C3990 C3991 1.391 . S
C3990 C3995 1.391 . S
C3991 C3990 1.391 . S
C3991 C3992 1.391 . S
C3992 H3969 0.947 . S
C3992 C3991 1.391 . S
C3992 C3993 1.392 . S
C3993 H3970 0.948 . S
C3993 C3992 1.392 . S
C3993 C3994 1.419 . S
C3994 C3993 1.419 . S
C3994 C3995 1.391 . S
C3994 C3998 1.397 . S
C3995 C3990 1.391 . S
C3995 C3994 1.391 . S
C3995 C3996 1.399 . S
C3996 C3995 1.399 . S
C3996 C3997 1.396 . S
C3996 C3999 1.453 . S
C3996 C4000 1.684 . S
C3997 C3987 1.723 . S
C3997 C3996 1.396 . S
C3997 C3998 1.394 . S
C3998 C3968 1.723 . S
C3998 C3994 1.397 . S
C3998 C3997 1.394 . S
C3999 H3971 0.982 . S
C3999 H3975 0.979 . S
C3999 H3976 0.977 . S
C3999 C3996 1.453 . S
C4000 H3972 0.979 . S
C4000 H3973 0.980 . S
C4000 H3974 0.983 . S
C4000 C3996 1.684 . S
H4001 C4019 0.948 . S
H4002 C3960 0.948 . S
H4003 C3978 0.979 . S
H4004 C3978 0.980 . S
H4005 C3978 0.983 . S
H4006 C3977 0.982 . S
H4007 C3977 0.979 . S
H4008 C3977 0.977 . S
H4009 C3979 0.948 . S
H4010 C3981 0.947 . S
H4011 C3982 0.948 . S
H4012 C3988 0.982 . S
H4013 C3988 0.979 . S
H4014 C3988 0.977 . S
H4015 C3989 0.979 . S
H4016 C3989 0.980 . S
H4017 C3989 0.983 . S
H4018 C3962 0.947 . S
C4019 C3962 1.392 . S
C4019 C3963 1.419 . S
C4019 H4001 0.948 . S
C4020 C4021 1.391 . S
C4020 C4024 1.391 . S
C4020 H4062 0.948 . S
C4021 C4020 1.391 . S
C4021 C4022 1.391 . S
C4022 C4021 1.391 . S
C4022 H4078 0.947 . S
C4022 C4079 1.392 . S
C4023 C4024 1.391 . S
C4023 C4027 1.397 . S
C4023 C4079 1.419 . S
C4024 C4020 1.391 . S
C4024 C4023 1.391 . S
C4024 C4025 1.399 . S
C4025 C4024 1.399 . S
C4025 C4028 1.396 . S
C4025 C4037 1.453 . S
C4025 C4038 1.684 . S
H4026 C4050 0.948 . S
C4027 C4023 1.397 . S
C4027 C4028 1.394 . S
C4027 C4046 1.723 . S
C4028 C4025 1.396 . S
C4028 C4027 1.394 . S
C4028 C4058 1.723 . S
H4029 C4052 0.947 . S
H4030 C4053 0.948 . S
H4031 C4059 0.982 . S
H4032 C4060 0.979 . S
H4033 C4060 0.980 . S
H4034 C4060 0.983 . S
H4035 C4059 0.979 . S
H4036 C4059 0.977 . S
C4037 C4025 1.453 . S
C4037 H4066 0.982 . S
C4037 H4067 0.979 . S
C4037 H4068 0.977 . S
C4038 C4025 1.684 . S
C4038 H4063 0.979 . S
C4038 H4064 0.980 . S
C4038 H4065 0.983 . S
C4039 C4040 1.391 . S
C4039 C4044 1.391 . S
C4039 H4069 0.948 . S
C4040 C4039 1.391 . S
C4040 C4041 1.391 . S
C4041 C4040 1.391 . S
C4041 C4042 1.392 . S
C4041 H4070 0.947 . S
C4042 C4041 1.392 . S
C4042 C4043 1.419 . S
C4042 H4071 0.948 . S
C4043 C4042 1.419 . S
C4043 C4044 1.391 . S
C4043 C4047 1.397 . S
C4044 C4039 1.391 . S
C4044 C4043 1.391 . S
C4044 C4045 1.399 . S
C4045 C4044 1.399 . S
C4045 C4046 1.396 . S
C4045 C4048 1.453 . S
C4045 C4049 1.684 . S
C4046 C4027 1.723 . S
C4046 C4045 1.396 . S
C4046 C4047 1.394 . S
C4047 C4043 1.397 . S
C4047 C4046 1.394 . S
C4047 C4057 1.723 . S
C4048 C4045 1.453 . S
C4048 H4072 0.982 . S
C4048 H4073 0.979 . S
C4048 H4074 0.977 . S
C4049 C4045 1.684 . S
C4049 H4075 0.979 . S
C4049 H4076 0.980 . S
C4049 H4077 0.983 . S
C4050 H4026 0.948 . S
C4050 C4051 1.391 . S
C4050 C4055 1.391 . S
C4051 C4050 1.391 . S
C4051 C4052 1.391 . S
C4052 H4029 0.947 . S
C4052 C4051 1.391 . S
C4052 C4053 1.392 . S
C4053 H4030 0.948 . S
C4053 C4052 1.392 . S
C4053 C4054 1.419 . S
C4054 C4053 1.419 . S
C4054 C4055 1.391 . S
C4054 C4058 1.397 . S
C4055 C4050 1.391 . S
C4055 C4054 1.391 . S
C4055 C4056 1.399 . S
C4056 C4055 1.399 . S
C4056 C4057 1.396 . S
C4056 C4059 1.453 . S
C4056 C4060 1.684 . S
C4057 C4047 1.723 . S
C4057 C4056 1.396 . S
C4057 C4058 1.394 . S
C4058 C4028 1.723 . S
C4058 C4054 1.397 . S
C4058 C4057 1.394 . S
C4059 H4031 0.982 . S
C4059 H4035 0.979 . S
C4059 H4036 0.977 . S
C4059 C4056 1.453 . S
C4060 H4032 0.979 . S
C4060 H4033 0.980 . S
C4060 H4034 0.983 . S
C4060 C4056 1.684 . S
H4061 C4079 0.948 . S
H4062 C4020 0.948 . S
H4063 C4038 0.979 . S
H4064 C4038 0.980 . S
H4065 C4038 0.983 . S
H4066 C4037 0.982 . S
H4067 C4037 0.979 . S
H4068 C4037 0.977 . S
H4069 C4039 0.948 . S
H4070 C4041 0.947 . S
H4071 C4042 0.948 . S
H4072 C4048 0.982 . S
H4073 C4048 0.979 . S
H4074 C4048 0.977 . S
H4075 C4049 0.979 . S
H4076 C4049 0.980 . S
H4077 C4049 0.983 . S
H4078 C4022 0.947 . S
C4079 C4022 1.392 . S
C4079 C4023 1.419 . S
C4079 H4061 0.948 . S
C4080 C4081 1.391 . S
C4080 C4084 1.391 . S
C4080 H4122 0.948 . S
C4081 C4080 1.391 . S
C4081 C4082 1.391 . S
C4082 C4081 1.391 . S
C4082 H4138 0.947 . S
C4082 C4139 1.392 . S
C4083 C4084 1.391 . S
C4083 C4087 1.397 . S
C4083 C4139 1.419 . S
C4084 C4080 1.391 . S
C4084 C4083 1.391 . S
C4084 C4085 1.399 . S
C4085 C4084 1.399 . S
C4085 C4088 1.396 . S
C4085 C4097 1.453 . S
C4085 C4098 1.684 . S
H4086 C4110 0.948 . S
C4087 C4083 1.397 . S
C4087 C4088 1.394 . S
C4087 C4106 1.723 . S
C4088 C4085 1.396 . S
C4088 C4087 1.394 . S
C4088 C4118 1.723 . S
H4089 C4112 0.947 . S
H4090 C4113 0.948 . S
H4091 C4119 0.982 . S
H4092 C4120 0.979 . S
H4093 C4120 0.980 . S
H4094 C4120 0.983 . S
H4095 C4119 0.979 . S
H4096 C4119 0.977 . S
C4097 C4085 1.453 . S
C4097 H4126 0.982 . S
C4097 H4127 0.979 . S
C4097 H4128 0.977 . S
C4098 C4085 1.684 . S
C4098 H4123 0.979 . S
C4098 H4124 0.980 . S
C4098 H4125 0.983 . S
C4099 C4100 1.391 . S
C4099 C4104 1.391 . S
C4099 H4129 0.948 . S
C4100 C4099 1.391 . S
C4100 C4101 1.391 . S
C4101 C4100 1.391 . S
C4101 C4102 1.392 . S
C4101 H4130 0.947 . S
C4102 C4101 1.392 . S
C4102 C4103 1.419 . S
C4102 H4131 0.948 . S
C4103 C4102 1.419 . S
C4103 C4104 1.391 . S
C4103 C4107 1.397 . S
C4104 C4099 1.391 . S
C4104 C4103 1.391 . S
C4104 C4105 1.399 . S
C4105 C4104 1.399 . S
C4105 C4106 1.396 . S
C4105 C4108 1.453 . S
C4105 C4109 1.684 . S
C4106 C4087 1.723 . S
C4106 C4105 1.396 . S
C4106 C4107 1.394 . S
C4107 C4103 1.397 . S
C4107 C4106 1.394 . S
C4107 C4117 1.723 . S
C4108 C4105 1.453 . S
C4108 H4132 0.982 . S
C4108 H4133 0.979 . S
C4108 H4134 0.977 . S
C4109 C4105 1.684 . S
C4109 H4135 0.979 . S
C4109 H4136 0.980 . S
C4109 H4137 0.983 . S
C4110 H4086 0.948 . S
C4110 C4111 1.391 . S
C4110 C4115 1.391 . S
C4111 C4110 1.391 . S
C4111 C4112 1.391 . S
C4112 H4089 0.947 . S
C4112 C4111 1.391 . S
C4112 C4113 1.392 . S
C4113 H4090 0.948 . S
C4113 C4112 1.392 . S
C4113 C4114 1.419 . S
C4114 C4113 1.419 . S
C4114 C4115 1.391 . S
C4114 C4118 1.397 . S
C4115 C4110 1.391 . S
C4115 C4114 1.391 . S
C4115 C4116 1.399 . S
C4116 C4115 1.399 . S
C4116 C4117 1.396 . S
C4116 C4119 1.453 . S
C4116 C4120 1.684 . S
C4117 C4107 1.723 . S
C4117 C4116 1.396 . S
C4117 C4118 1.394 . S
C4118 C4088 1.723 . S
C4118 C4114 1.397 . S
C4118 C4117 1.394 . S
C4119 H4091 0.982 . S
C4119 H4095 0.979 . S
C4119 H4096 0.977 . S
C4119 C4116 1.453 . S
C4120 H4092 0.979 . S
C4120 H4093 0.980 . S
C4120 H4094 0.983 . S
C4120 C4116 1.684 . S
H4121 C4139 0.948 . S
H4122 C4080 0.948 . S
H4123 C4098 0.979 . S
H4124 C4098 0.980 . S
H4125 C4098 0.983 . S
H4126 C4097 0.982 . S
H4127 C4097 0.979 . S
H4128 C4097 0.977 . S
H4129 C4099 0.948 . S
H4130 C4101 0.947 . S
H4131 C4102 0.948 . S
H4132 C4108 0.982 . S
H4133 C4108 0.979 . S
H4134 C4108 0.977 . S
H4135 C4109 0.979 . S
H4136 C4109 0.980 . S
H4137 C4109 0.983 . S
H4138 C4082 0.947 . S
C4139 C4082 1.392 . S
C4139 C4083 1.419 . S
C4139 H4121 0.948 . S
C4140 C4141 1.391 . S
C4140 C4144 1.391 . S
C4140 H4182 0.948 . S
C4141 C4140 1.391 . S
C4141 C4142 1.391 . S
C4142 C4141 1.391 . S
C4142 H4198 0.947 . S
C4142 C4199 1.392 . S
C4143 C4144 1.391 . S
C4143 C4147 1.397 . S
C4143 C4199 1.419 . S
C4144 C4140 1.391 . S
C4144 C4143 1.391 . S
C4144 C4145 1.399 . S
C4145 C4144 1.399 . S
C4145 C4148 1.396 . S
C4145 C4157 1.453 . S
C4145 C4158 1.684 . S
H4146 C4170 0.948 . S
C4147 C4143 1.397 . S
C4147 C4148 1.394 . S
C4147 C4166 1.723 . S
C4148 C4145 1.396 . S
C4148 C4147 1.394 . S
C4148 C4178 1.723 . S
H4149 C4172 0.947 . S
H4150 C4173 0.948 . S
H4151 C4179 0.982 . S
H4152 C4180 0.979 . S
H4153 C4180 0.980 . S
H4154 C4180 0.983 . S
H4155 C4179 0.979 . S
H4156 C4179 0.977 . S
C4157 C4145 1.453 . S
C4157 H4186 0.982 . S
C4157 H4187 0.979 . S
C4157 H4188 0.977 . S
C4158 C4145 1.684 . S
C4158 H4183 0.979 . S
C4158 H4184 0.980 . S
C4158 H4185 0.983 . S
C4159 C4160 1.391 . S
C4159 C4164 1.391 . S
C4159 H4189 0.948 . S
C4160 C4159 1.391 . S
C4160 C4161 1.391 . S
C4161 C4160 1.391 . S
C4161 C4162 1.392 . S
C4161 H4190 0.947 . S
C4162 C4161 1.392 . S
C4162 C4163 1.419 . S
C4162 H4191 0.948 . S
C4163 C4162 1.419 . S
C4163 C4164 1.391 . S
C4163 C4167 1.397 . S
C4164 C4159 1.391 . S
C4164 C4163 1.391 . S
C4164 C4165 1.399 . S
C4165 C4164 1.399 . S
C4165 C4166 1.396 . S
C4165 C4168 1.453 . S
C4165 C4169 1.684 . S
C4166 C4147 1.723 . S
C4166 C4165 1.396 . S
C4166 C4167 1.394 . S
C4167 C4163 1.397 . S
C4167 C4166 1.394 . S
C4167 C4177 1.723 . S
C4168 C4165 1.453 . S
C4168 H4192 0.982 . S
C4168 H4193 0.979 . S
C4168 H4194 0.977 . S
C4169 C4165 1.684 . S
C4169 H4195 0.979 . S
C4169 H4196 0.980 . S
C4169 H4197 0.983 . S
C4170 H4146 0.948 . S
C4170 C4171 1.391 . S
C4170 C4175 1.391 . S
C4171 C4170 1.391 . S
C4171 C4172 1.391 . S
C4172 H4149 0.947 . S
C4172 C4171 1.391 . S
C4172 C4173 1.392 . S
C4173 H4150 0.948 . S
C4173 C4172 1.392 . S
C4173 C4174 1.419 . S
C4174 C4173 1.419 . S
C4174 C4175 1.391 . S
C4174 C4178 1.397 . S
C4175 C4170 1.391 . S
C4175 C4174 1.391 . S
C4175 C4176 1.399 . S
C4176 C4175 1.399 . S
C4176 C4177 1.396 . S
C4176 C4179 1.453 . S
C4176 C4180 1.684 . S
C4177 C4167 1.723 . S
C4177 C4176 1.396 . S
C4177 C4178 1.394 . S
C4178 C4148 1.723 . S
C4178 C4174 1.397 . S
C4178 C4177 1.394 . S
C4179 H4151 0.982 . S
C4179 H4155 0.979 . S
C4179 H4156 0.977 . S
C4179 C4176 1.453 . S
C4180 H4152 0.979 . S
C4180 H4153 0.980 . S
C4180 H4154 0.983 . S
C4180 C4176 1.684 . S
H4181 C4199 0.948 . S
H4182 C4140 0.948 . S
H4183 C4158 0.979 . S
H4184 C4158 0.980 . S
H4185 C4158 0.983 . S
H4186 C4157 0.982 . S
H4187 C4157 0.979 . S
H4188 C4157 0.977 . S
H4189 C4159 0.948 . S
H4190 C4161 0.947 . S
H4191 C4162 0.948 . S
H4192 C4168 0.982 . S
H4193 C4168 0.979 . S
H4194 C4168 0.977 . S
H4195 C4169 0.979 . S
H4196 C4169 0.980 . S
H4197 C4169 0.983 . S
H4198 C4142 0.947 . S
C4199 C4142 1.392 . S
C4199 C4143 1.419 . S
C4199 H4181 0.948 . S
C4200 C4201 1.391 . S
C4200 C4204 1.391 . S
C4200 H4242 0.948 . S
C4201 C4200 1.391 . S
C4201 C4202 1.391 . S
C4202 C4201 1.391 . S
C4202 H4258 0.947 . S
C4202 C4259 1.392 . S
C4203 C4204 1.391 . S
C4203 C4207 1.397 . S
C4203 C4259 1.419 . S
C4204 C4200 1.391 . S
C4204 C4203 1.391 . S
C4204 C4205 1.399 . S
C4205 C4204 1.399 . S
C4205 C4208 1.396 . S
C4205 C4217 1.453 . S
C4205 C4218 1.684 . S
H4206 C4230 0.948 . S
C4207 C4203 1.397 . S
C4207 C4208 1.394 . S
C4207 C4226 1.723 . S
C4208 C4205 1.396 . S
C4208 C4207 1.394 . S
C4208 C4238 1.723 . S
H4209 C4232 0.947 . S
H4210 C4233 0.948 . S
H4211 C4239 0.982 . S
H4212 C4240 0.979 . S
H4213 C4240 0.980 . S
H4214 C4240 0.983 . S
H4215 C4239 0.979 . S
H4216 C4239 0.977 . S
C4217 C4205 1.453 . S
C4217 H4246 0.982 . S
C4217 H4247 0.979 . S
C4217 H4248 0.977 . S
C4218 C4205 1.684 . S
C4218 H4243 0.979 . S
C4218 H4244 0.980 . S
C4218 H4245 0.983 . S
C4219 C4220 1.391 . S
C4219 C4224 1.391 . S
C4219 H4249 0.948 . S
C4220 C4219 1.391 . S
C4220 C4221 1.391 . S
C4221 C4220 1.391 . S
C4221 C4222 1.392 . S
C4221 H4250 0.947 . S
C4222 C4221 1.392 . S
C4222 C4223 1.419 . S
C4222 H4251 0.948 . S
C4223 C4222 1.419 . S
C4223 C4224 1.391 . S
C4223 C4227 1.397 . S
C4224 C4219 1.391 . S
C4224 C4223 1.391 . S
C4224 C4225 1.399 . S
C4225 C4224 1.399 . S
C4225 C4226 1.396 . S
C4225 C4228 1.453 . S
C4225 C4229 1.684 . S
C4226 C4207 1.723 . S
C4226 C4225 1.396 . S
C4226 C4227 1.394 . S
C4227 C4223 1.397 . S
C4227 C4226 1.394 . S
C4227 C4237 1.723 . S
C4228 C4225 1.453 . S
C4228 H4252 0.982 . S
C4228 H4253 0.979 . S
C4228 H4254 0.977 . S
C4229 C4225 1.684 . S
C4229 H4255 0.979 . S
C4229 H4256 0.980 . S
C4229 H4257 0.983 . S
C4230 H4206 0.948 . S
C4230 C4231 1.391 . S
C4230 C4235 1.391 . S
C4231 C4230 1.391 . S
C4231 C4232 1.391 . S
C4232 H4209 0.947 . S
C4232 C4231 1.391 . S
C4232 C4233 1.392 . S
C4233 H4210 0.948 . S
C4233 C4232 1.392 . S
C4233 C4234 1.419 . S
C4234 C4233 1.419 . S
C4234 C4235 1.391 . S
C4234 C4238 1.397 . S
C4235 C4230 1.391 . S
C4235 C4234 1.391 . S
C4235 C4236 1.399 . S
C4236 C4235 1.399 . S
C4236 C4237 1.396 . S
C4236 C4239 1.453 . S
C4236 C4240 1.684 . S
C4237 C4227 1.723 . S
C4237 C4236 1.396 . S
C4237 C4238 1.394 . S
C4238 C4208 1.723 . S
C4238 C4234 1.397 . S
C4238 C4237 1.394 . S
C4239 H4211 0.982 . S
C4239 H4215 0.979 . S
C4239 H4216 0.977 . S
C4239 C4236 1.453 . S
C4240 H4212 0.979 . S
C4240 H4213 0.980 . S
C4240 H4214 0.983 . S
C4240 C4236 1.684 . S
H4241 C4259 0.948 . S
H4242 C4200 0.948 . S
H4243 C4218 0.979 . S
H4244 C4218 0.980 . S
H4245 C4218 0.983 . S
H4246 C4217 0.982 . S
H4247 C4217 0.979 . S
H4248 C4217 0.977 . S
H4249 C4219 0.948 . S
H4250 C4221 0.947 . S
H4251 C4222 0.948 . S
H4252 C4228 0.982 . S
H4253 C4228 0.979 . S
H4254 C4228 0.977 . S
H4255 C4229 0.979 . S
H4256 C4229 0.980 . S
H4257 C4229 0.983 . S
H4258 C4202 0.947 . S
C4259 C4202 1.392 . S
C4259 C4203 1.419 . S
C4259 H4241 0.948 . S
C4260 C4261 1.391 . S
C4260 C4264 1.391 . S
C4260 H4302 0.948 . S
C4261 C4260 1.391 . S
C4261 C4262 1.391 . S
C4262 C4261 1.391 . S
C4262 H4318 0.947 . S
C4262 C4319 1.392 . S
C4263 C4264 1.391 . S
C4263 C4267 1.397 . S
C4263 C4319 1.419 . S
C4264 C4260 1.391 . S
C4264 C4263 1.391 . S
C4264 C4265 1.399 . S
C4265 C4264 1.399 . S
C4265 C4268 1.396 . S
C4265 C4277 1.453 . S
C4265 C4278 1.684 . S
H4266 C4290 0.948 . S
C4267 C4263 1.397 . S
C4267 C4268 1.394 . S
C4267 C4286 1.723 . S
C4268 C4265 1.396 . S
C4268 C4267 1.394 . S
C4268 C4298 1.723 . S
H4269 C4292 0.947 . S
H4270 C4293 0.948 . S
H4271 C4299 0.982 . S
H4272 C4300 0.979 . S
H4273 C4300 0.980 . S
H4274 C4300 0.983 . S
H4275 C4299 0.979 . S
H4276 C4299 0.977 . S
C4277 C4265 1.453 . S
C4277 H4306 0.982 . S
C4277 H4307 0.979 . S
C4277 H4308 0.977 . S
C4278 C4265 1.684 . S
C4278 H4303 0.979 . S
C4278 H4304 0.980 . S
C4278 H4305 0.983 . S
C4279 C4280 1.391 . S
C4279 C4284 1.391 . S
C4279 H4309 0.948 . S
C4280 C4279 1.391 . S
C4280 C4281 1.391 . S
C4281 C4280 1.391 . S
C4281 C4282 1.392 . S
C4281 H4310 0.947 . S
C4282 C4281 1.392 . S
C4282 C4283 1.419 . S
C4282 H4311 0.948 . S
C4283 C4282 1.419 . S
C4283 C4284 1.391 . S
C4283 C4287 1.397 . S
C4284 C4279 1.391 . S
C4284 C4283 1.391 . S
C4284 C4285 1.399 . S
C4285 C4284 1.399 . S
C4285 C4286 1.396 . S
C4285 C4288 1.453 . S
C4285 C4289 1.684 . S
C4286 C4267 1.723 . S
C4286 C4285 1.396 . S
C4286 C4287 1.394 . S
C4287 C4283 1.397 . S
C4287 C4286 1.394 . S
C4287 C4297 1.723 . S
C4288 C4285 1.453 . S
C4288 H4312 0.982 . S
C4288 H4313 0.979 . S
C4288 H4314 0.977 . S
C4289 C4285 1.684 . S
C4289 H4315 0.979 . S
C4289 H4316 0.980 . S
C4289 H4317 0.983 . S
C4290 H4266 0.948 . S
C4290 C4291 1.391 . S
C4290 C4295 1.391 . S
C4291 C4290 1.391 . S
C4291 C4292 1.391 . S
C4292 H4269 0.947 . S
C4292 C4291 1.391 . S
C4292 C4293 1.392 . S
C4293 H4270 0.948 . S
C4293 C4292 1.392 . S
C4293 C4294 1.419 . S
C4294 C4293 1.419 . S
C4294 C4295 1.391 . S
C4294 C4298 1.397 . S
C4295 C4290 1.391 . S
C4295 C4294 1.391 . S
C4295 C4296 1.399 . S
C4296 C4295 1.399 . S
C4296 C4297 1.396 . S
C4296 C4299 1.453 . S
C4296 C4300 1.684 . S
C4297 C4287 1.723 . S
C4297 C4296 1.396 . S
C4297 C4298 1.394 . S
C4298 C4268 1.723 . S
C4298 C4294 1.397 . S
C4298 C4297 1.394 . S
C4299 H4271 0.982 . S
C4299 H4275 0.979 . S
C4299 H4276 0.977 . S
C4299 C4296 1.453 . S
C4300 H4272 0.979 . S
C4300 H4273 0.980 . S
C4300 H4274 0.983 . S
C4300 C4296 1.684 . S
H4301 C4319 0.948 . S
H4302 C4260 0.948 . S
H4303 C4278 0.979 . S
H4304 C4278 0.980 . S
H4305 C4278 0.983 . S
H4306 C4277 0.982 . S
H4307 C4277 0.979 . S
H4308 C4277 0.977 . S
H4309 C4279 0.948 . S
H4310 C4281 0.947 . S
H4311 C4282 0.948 . S
H4312 C4288 0.982 . S
H4313 C4288 0.979 . S
H4314 C4288 0.977 . S
H4315 C4289 0.979 . S
H4316 C4289 0.980 . S
H4317 C4289 0.983 . S
H4318 C4262 0.947 . S
C4319 C4262 1.392 . S
C4319 C4263 1.419 . S
C4319 H4301 0.948 . S
C4320 C4321 1.391 . S
C4320 C4324 1.391 . S
C4320 H4362 0.948 . S
C4321 C4320 1.391 . S
C4321 C4322 1.391 . S
C4322 C4321 1.391 . S
C4322 H4378 0.947 . S
C4322 C4379 1.392 . S
C4323 C4324 1.391 . S
C4323 C4327 1.397 . S
C4323 C4379 1.419 . S
C4324 C4320 1.391 . S
C4324 C4323 1.391 . S
C4324 C4325 1.399 . S
C4325 C4324 1.399 . S
C4325 C4328 1.396 . S
C4325 C4337 1.453 . S
C4325 C4338 1.684 . S
H4326 C4350 0.948 . S
C4327 C4323 1.397 . S
C4327 C4328 1.394 . S
C4327 C4346 1.723 . S
C4328 C4325 1.396 . S
C4328 C4327 1.394 . S
C4328 C4358 1.723 . S
H4329 C4352 0.947 . S
H4330 C4353 0.948 . S
H4331 C4359 0.982 . S
H4332 C4360 0.979 . S
H4333 C4360 0.980 . S
H4334 C4360 0.983 . S
H4335 C4359 0.979 . S
H4336 C4359 0.977 . S
C4337 C4325 1.453 . S
C4337 H4366 0.982 . S
C4337 H4367 0.979 . S
C4337 H4368 0.977 . S
C4338 C4325 1.684 . S
C4338 H4363 0.979 . S
C4338 H4364 0.980 . S
C4338 H4365 0.983 . S
C4339 C4340 1.391 . S
C4339 C4344 1.391 . S
C4339 H4369 0.948 . S
C4340 C4339 1.391 . S
C4340 C4341 1.391 . S
C4341 C4340 1.391 . S
C4341 C4342 1.392 . S
C4341 H4370 0.947 . S
C4342 C4341 1.392 . S
C4342 C4343 1.419 . S
C4342 H4371 0.948 . S
C4343 C4342 1.419 . S
C4343 C4344 1.391 . S
C4343 C4347 1.397 . S
C4344 C4339 1.391 . S
C4344 C4343 1.391 . S
C4344 C4345 1.399 . S
C4345 C4344 1.399 . S
C4345 C4346 1.396 . S
C4345 C4348 1.453 . S
C4345 C4349 1.684 . S
C4346 C4327 1.723 . S
C4346 C4345 1.396 . S
C4346 C4347 1.394 . S
C4347 C4343 1.397 . S
C4347 C4346 1.394 . S
C4347 C4357 1.723 . S
C4348 C4345 1.453 . S
C4348 H4372 0.982 . S
C4348 H4373 0.979 . S
C4348 H4374 0.977 . S
C4349 C4345 1.684 . S
C4349 H4375 0.979 . S
C4349 H4376 0.980 . S
C4349 H4377 0.983 . S
C4350 H4326 0.948 . S
C4350 C4351 1.391 . S
C4350 C4355 1.391 . S
C4351 C4350 1.391 . S
C4351 C4352 1.391 . S
C4352 H4329 0.947 . S
C4352 C4351 1.391 . S
C4352 C4353 1.392 . S
C4353 H4330 0.948 . S
C4353 C4352 1.392 . S
C4353 C4354 1.419 . S
C4354 C4353 1.419 . S
C4354 C4355 1.391 . S
C4354 C4358 1.397 . S
C4355 C4350 1.391 . S
C4355 C4354 1.391 . S
C4355 C4356 1.399 . S
C4356 C4355 1.399 . S
C4356 C4357 1.396 . S
C4356 C4359 1.453 . S
C4356 C4360 1.684 . S
C4357 C4347 1.723 . S
C4357 C4356 1.396 . S
C4357 C4358 1.394 . S
C4358 C4328 1.723 . S
C4358 C4354 1.397 . S
C4358 C4357 1.394 . S
C4359 H4331 0.982 . S
C4359 H4335 0.979 . S
C4359 H4336 0.977 . S
C4359 C4356 1.453 . S
C4360 H4332 0.979 . S
C4360 H4333 0.980 . S
C4360 H4334 0.983 . S
C4360 C4356 1.684 . S
H4361 C4379 0.948 . S
H4362 C4320 0.948 . S
H4363 C4338 0.979 . S
H4364 C4338 0.980 . S
H4365 C4338 0.983 . S
H4366 C4337 0.982 . S
H4367 C4337 0.979 . S
H4368 C4337 0.977 . S
H4369 C4339 0.948 . S
H4370 C4341 0.947 . S
H4371 C4342 0.948 . S
H4372 C4348 0.982 . S
H4373 C4348 0.979 . S
H4374 C4348 0.977 . S
H4375 C4349 0.979 . S
H4376 C4349 0.980 . S
H4377 C4349 0.983 . S
H4378 C4322 0.947 . S
C4379 C4322 1.392 . S
C4379 C4323 1.419 . S
C4379 H4361 0.948 . S
C4380 C4381 1.391 . S
C4380 C4384 1.391 . S
C4380 H4422 0.948 . S
C4381 C4380 1.391 . S
C4381 C4382 1.391 . S
C4382 C4381 1.391 . S
C4382 H4438 0.947 . S
C4382 C4439 1.392 . S
C4383 C4384 1.391 . S
C4383 C4387 1.397 . S
C4383 C4439 1.419 . S
C4384 C4380 1.391 . S
C4384 C4383 1.391 . S
C4384 C4385 1.399 . S
C4385 C4384 1.399 . S
C4385 C4388 1.396 . S
C4385 C4397 1.453 . S
C4385 C4398 1.684 . S
H4386 C4410 0.948 . S
C4387 C4383 1.397 . S
C4387 C4388 1.394 . S
C4387 C4406 1.723 . S
C4388 C4385 1.396 . S
C4388 C4387 1.394 . S
C4388 C4418 1.723 . S
H4389 C4412 0.947 . S
H4390 C4413 0.948 . S
H4391 C4419 0.982 . S
H4392 C4420 0.979 . S
H4393 C4420 0.980 . S
H4394 C4420 0.983 . S
H4395 C4419 0.979 . S
H4396 C4419 0.977 . S
C4397 C4385 1.453 . S
C4397 H4426 0.982 . S
C4397 H4427 0.979 . S
C4397 H4428 0.977 . S
C4398 C4385 1.684 . S
C4398 H4423 0.979 . S
C4398 H4424 0.980 . S
C4398 H4425 0.983 . S
C4399 C4400 1.391 . S
C4399 C4404 1.391 . S
C4399 H4429 0.948 . S
C4400 C4399 1.391 . S
C4400 C4401 1.391 . S
C4401 C4400 1.391 . S
C4401 C4402 1.392 . S
C4401 H4430 0.947 . S
C4402 C4401 1.392 . S
C4402 C4403 1.419 . S
C4402 H4431 0.948 . S
C4403 C4402 1.419 . S
C4403 C4404 1.391 . S
C4403 C4407 1.397 . S
C4404 C4399 1.391 . S
C4404 C4403 1.391 . S
C4404 C4405 1.399 . S
C4405 C4404 1.399 . S
C4405 C4406 1.396 . S
C4405 C4408 1.453 . S
C4405 C4409 1.684 . S
C4406 C4387 1.723 . S
C4406 C4405 1.396 . S
C4406 C4407 1.394 . S
C4407 C4403 1.397 . S
C4407 C4406 1.394 . S
C4407 C4417 1.723 . S
C4408 C4405 1.453 . S
C4408 H4432 0.982 . S
C4408 H4433 0.979 . S
C4408 H4434 0.977 . S
C4409 C4405 1.684 . S
C4409 H4435 0.979 . S
C4409 H4436 0.980 . S
C4409 H4437 0.983 . S
C4410 H4386 0.948 . S
C4410 C4411 1.391 . S
C4410 C4415 1.391 . S
C4411 C4410 1.391 . S
C4411 C4412 1.391 . S
C4412 H4389 0.947 . S
C4412 C4411 1.391 . S
C4412 C4413 1.392 . S
C4413 H4390 0.948 . S
C4413 C4412 1.392 . S
C4413 C4414 1.419 . S
C4414 C4413 1.419 . S
C4414 C4415 1.391 . S
C4414 C4418 1.397 . S
C4415 C4410 1.391 . S
C4415 C4414 1.391 . S
C4415 C4416 1.399 . S
C4416 C4415 1.399 . S
C4416 C4417 1.396 . S
C4416 C4419 1.453 . S
C4416 C4420 1.684 . S
C4417 C4407 1.723 . S
C4417 C4416 1.396 . S
C4417 C4418 1.394 . S
C4418 C4388 1.723 . S
C4418 C4414 1.397 . S
C4418 C4417 1.394 . S
C4419 H4391 0.982 . S
C4419 H4395 0.979 . S
C4419 H4396 0.977 . S
C4419 C4416 1.453 . S
C4420 H4392 0.979 . S
C4420 H4393 0.980 . S
C4420 H4394 0.983 . S
C4420 C4416 1.684 . S
H4421 C4439 0.948 . S
H4422 C4380 0.948 . S
H4423 C4398 0.979 . S
H4424 C4398 0.980 . S
H4425 C4398 0.983 . S
H4426 C4397 0.982 . S
H4427 C4397 0.979 . S
H4428 C4397 0.977 . S
H4429 C4399 0.948 . S
H4430 C4401 0.947 . S
H4431 C4402 0.948 . S
H4432 C4408 0.982 . S
H4433 C4408 0.979 . S
H4434 C4408 0.977 . S
H4435 C4409 0.979 . S
H4436 C4409 0.980 . S
H4437 C4409 0.983 . S
H4438 C4382 0.947 . S
C4439 C4382 1.392 . S
C4439 C4383 1.419 . S
C4439 H4421 0.948 . S
C4440 C4441 1.391 . S
C4440 C4444 1.391 . S
C4440 H4482 0.948 . S
C4441 C4440 1.391 . S
C4441 C4442 1.391 . S
C4442 C4441 1.391 . S
C4442 H4498 0.947 . S
C4442 C4499 1.392 . S
C4443 C4444 1.391 . S
C4443 C4447 1.397 . S
C4443 C4499 1.419 . S
C4444 C4440 1.391 . S
C4444 C4443 1.391 . S
C4444 C4445 1.399 . S
C4445 C4444 1.399 . S
C4445 C4448 1.396 . S
C4445 C4457 1.453 . S
C4445 C4458 1.684 . S
H4446 C4470 0.948 . S
C4447 C4443 1.397 . S
C4447 C4448 1.394 . S
C4447 C4466 1.723 . S
C4448 C4445 1.396 . S
C4448 C4447 1.394 . S
C4448 C4478 1.723 . S
H4449 C4472 0.947 . S
H4450 C4473 0.948 . S
H4451 C4479 0.982 . S
H4452 C4480 0.979 . S
H4453 C4480 0.980 . S
H4454 C4480 0.983 . S
H4455 C4479 0.979 . S
H4456 C4479 0.977 . S
C4457 C4445 1.453 . S
C4457 H4486 0.982 . S
C4457 H4487 0.979 . S
C4457 H4488 0.977 . S
C4458 C4445 1.684 . S
C4458 H4483 0.979 . S
C4458 H4484 0.980 . S
C4458 H4485 0.983 . S
C4459 C4460 1.391 . S
C4459 C4464 1.391 . S
C4459 H4489 0.948 . S
C4460 C4459 1.391 . S
C4460 C4461 1.391 . S
C4461 C4460 1.391 . S
C4461 C4462 1.392 . S
C4461 H4490 0.947 . S
C4462 C4461 1.392 . S
C4462 C4463 1.419 . S
C4462 H4491 0.948 . S
C4463 C4462 1.419 . S
C4463 C4464 1.391 . S
C4463 C4467 1.397 . S
C4464 C4459 1.391 . S
C4464 C4463 1.391 . S
C4464 C4465 1.399 . S
C4465 C4464 1.399 . S
C4465 C4466 1.396 . S
C4465 C4468 1.453 . S
C4465 C4469 1.684 . S
C4466 C4447 1.723 . S
C4466 C4465 1.396 . S
C4466 C4467 1.394 . S
C4467 C4463 1.397 . S
C4467 C4466 1.394 . S
C4467 C4477 1.723 . S
C4468 C4465 1.453 . S
C4468 H4492 0.982 . S
C4468 H4493 0.979 . S
C4468 H4494 0.977 . S
C4469 C4465 1.684 . S
C4469 H4495 0.979 . S
C4469 H4496 0.980 . S
C4469 H4497 0.983 . S
C4470 H4446 0.948 . S
C4470 C4471 1.391 . S
C4470 C4475 1.391 . S
C4471 C4470 1.391 . S
C4471 C4472 1.391 . S
C4472 H4449 0.947 . S
C4472 C4471 1.391 . S
C4472 C4473 1.392 . S
C4473 H4450 0.948 . S
C4473 C4472 1.392 . S
C4473 C4474 1.419 . S
C4474 C4473 1.419 . S
C4474 C4475 1.391 . S
C4474 C4478 1.397 . S
C4475 C4470 1.391 . S
C4475 C4474 1.391 . S
C4475 C4476 1.399 . S
C4476 C4475 1.399 . S
C4476 C4477 1.396 . S
C4476 C4479 1.453 . S
C4476 C4480 1.684 . S
C4477 C4467 1.723 . S
C4477 C4476 1.396 . S
C4477 C4478 1.394 . S
C4478 C4448 1.723 . S
C4478 C4474 1.397 . S
C4478 C4477 1.394 . S
C4479 H4451 0.982 . S
C4479 H4455 0.979 . S
C4479 H4456 0.977 . S
C4479 C4476 1.453 . S
C4480 H4452 0.979 . S
C4480 H4453 0.980 . S
C4480 H4454 0.983 . S
C4480 C4476 1.684 . S
H4481 C4499 0.948 . S
H4482 C4440 0.948 . S
H4483 C4458 0.979 . S
H4484 C4458 0.980 . S
H4485 C4458 0.983 . S
H4486 C4457 0.982 . S
H4487 C4457 0.979 . S
H4488 C4457 0.977 . S
H4489 C4459 0.948 . S
H4490 C4461 0.947 . S
H4491 C4462 0.948 . S
H4492 C4468 0.982 . S
H4493 C4468 0.979 . S
H4494 C4468 0.977 . S
H4495 C4469 0.979 . S
H4496 C4469 0.980 . S
H4497 C4469 0.983 . S
H4498 C4442 0.947 . S
C4499 C4442 1.392 . S
C4499 C4443 1.419 . S
C4499 H4481 0.948 . S
C4500 C4501 1.391 . S
C4500 C4504 1.391 . S
C4500 H4542 0.948 . S
C4501 C4500 1.391 . S
C4501 C4502 1.391 . S
C4502 C4501 1.391 . S
C4502 H4558 0.947 . S
C4502 C4559 1.392 . S
C4503 C4504 1.391 . S
C4503 C4507 1.397 . S
C4503 C4559 1.419 . S
C4504 C4500 1.391 . S
C4504 C4503 1.391 . S
C4504 C4505 1.399 . S
C4505 C4504 1.399 . S
C4505 C4508 1.396 . S
C4505 C4517 1.453 . S
C4505 C4518 1.684 . S
H4506 C4530 0.948 . S
C4507 C4503 1.397 . S
C4507 C4508 1.394 . S
C4507 C4526 1.723 . S
C4508 C4505 1.396 . S
C4508 C4507 1.394 . S
C4508 C4538 1.723 . S
H4509 C4532 0.947 . S
H4510 C4533 0.948 . S
H4511 C4539 0.982 . S
H4512 C4540 0.979 . S
H4513 C4540 0.980 . S
H4514 C4540 0.983 . S
H4515 C4539 0.979 . S
H4516 C4539 0.977 . S
C4517 C4505 1.453 . S
C4517 H4546 0.982 . S
C4517 H4547 0.979 . S
C4517 H4548 0.977 . S
C4518 C4505 1.684 . S
C4518 H4543 0.979 . S
C4518 H4544 0.980 . S
C4518 H4545 0.983 . S
C4519 C4520 1.391 . S
C4519 C4524 1.391 . S
C4519 H4549 0.948 . S
C4520 C4519 1.391 . S
C4520 C4521 1.391 . S
C4521 C4520 1.391 . S
C4521 C4522 1.392 . S
C4521 H4550 0.947 . S
C4522 C4521 1.392 . S
C4522 C4523 1.419 . S
C4522 H4551 0.948 . S
C4523 C4522 1.419 . S
C4523 C4524 1.391 . S
C4523 C4527 1.397 . S
C4524 C4519 1.391 . S
C4524 C4523 1.391 . S
C4524 C4525 1.399 . S
C4525 C4524 1.399 . S
C4525 C4526 1.396 . S
C4525 C4528 1.453 . S
C4525 C4529 1.684 . S
C4526 C4507 1.723 . S
C4526 C4525 1.396 . S
C4526 C4527 1.394 . S
C4527 C4523 1.397 . S
C4527 C4526 1.394 . S
C4527 C4537 1.723 . S
C4528 C4525 1.453 . S
C4528 H4552 0.982 . S
C4528 H4553 0.979 . S
C4528 H4554 0.977 . S
C4529 C4525 1.684 . S
C4529 H4555 0.979 . S
C4529 H4556 0.980 . S
C4529 H4557 0.983 . S
C4530 H4506 0.948 . S
C4530 C4531 1.391 . S
C4530 C4535 1.391 . S
C4531 C4530 1.391 . S
C4531 C4532 1.391 . S
C4532 H4509 0.947 . S
C4532 C4531 1.391 . S
C4532 C4533 1.392 . S
C4533 H4510 0.948 . S
C4533 C4532 1.392 . S
C4533 C4534 1.419 . S
C4534 C4533 1.419 . S
C4534 C4535 1.391 . S
C4534 C4538 1.397 . S
C4535 C4530 1.391 . S
C4535 C4534 1.391 . S
C4535 C4536 1.399 . S
C4536 C4535 1.399 . S
C4536 C4537 1.396 . S
C4536 C4539 1.453 . S
C4536 C4540 1.684 . S
C4537 C4527 1.723 . S
C4537 C4536 1.396 . S
C4537 C4538 1.394 . S
C4538 C4508 1.723 . S
C4538 C4534 1.397 . S
C4538 C4537 1.394 . S
C4539 H4511 0.982 . S
C4539 H4515 0.979 . S
C4539 H4516 0.977 . S
C4539 C4536 1.453 . S
C4540 H4512 0.979 . S
C4540 H4513 0.980 . S
C4540 H4514 0.983 . S
C4540 C4536 1.684 . S
H4541 C4559 0.948 . S
H4542 C4500 0.948 . S
H4543 C4518 0.979 . S
H4544 C4518 0.980 . S
H4545 C4518 0.983 . S
H4546 C4517 0.982 . S
H4547 C4517 0.979 . S
H4548 C4517 0.977 . S
H4549 C4519 0.948 . S
H4550 C4521 0.947 . S
H4551 C4522 0.948 . S
H4552 C4528 0.982 . S
H4553 C4528 0.979 . S
H4554 C4528 0.977 . S
H4555 C4529 0.979 . S
H4556 C4529 0.980 . S
H4557 C4529 0.983 . S
H4558 C4502 0.947 . S
C4559 C4502 1.392 . S
C4559 C4503 1.419 . S
C4559 H4541 0.948 . S
C4560 C4561 1.391 . S
C4560 C4564 1.391 . S
C4560 H4602 0.948 . S
C4561 C4560 1.391 . S
C4561 C4562 1.391 . S
C4562 C4561 1.391 . S
C4562 H4618 0.947 . S
C4562 C4619 1.392 . S
C4563 C4564 1.391 . S
C4563 C4567 1.397 . S
C4563 C4619 1.419 . S
C4564 C4560 1.391 . S
C4564 C4563 1.391 . S
C4564 C4565 1.399 . S
C4565 C4564 1.399 . S
C4565 C4568 1.396 . S
C4565 C4577 1.453 . S
C4565 C4578 1.684 . S
H4566 C4590 0.948 . S
C4567 C4563 1.397 . S
C4567 C4568 1.394 . S
C4567 C4586 1.723 . S
C4568 C4565 1.396 . S
C4568 C4567 1.394 . S
C4568 C4598 1.723 . S
H4569 C4592 0.947 . S
H4570 C4593 0.948 . S
H4571 C4599 0.982 . S
H4572 C4600 0.979 . S
H4573 C4600 0.980 . S
H4574 C4600 0.983 . S
H4575 C4599 0.979 . S
H4576 C4599 0.977 . S
C4577 C4565 1.453 . S
C4577 H4606 0.982 . S
C4577 H4607 0.979 . S
C4577 H4608 0.977 . S
C4578 C4565 1.684 . S
C4578 H4603 0.979 . S
C4578 H4604 0.980 . S
C4578 H4605 0.983 . S
C4579 C4580 1.391 . S
C4579 C4584 1.391 . S
C4579 H4609 0.948 . S
C4580 C4579 1.391 . S
C4580 C4581 1.391 . S
C4581 C4580 1.391 . S
C4581 C4582 1.392 . S
C4581 H4610 0.947 . S
C4582 C4581 1.392 . S
C4582 C4583 1.419 . S
C4582 H4611 0.948 . S
C4583 C4582 1.419 . S
C4583 C4584 1.391 . S
C4583 C4587 1.397 . S
C4584 C4579 1.391 . S
C4584 C4583 1.391 . S
C4584 C4585 1.399 . S
C4585 C4584 1.399 . S
C4585 C4586 1.396 . S
C4585 C4588 1.453 . S
C4585 C4589 1.684 . S
C4586 C4567 1.723 . S
C4586 C4585 1.396 . S
C4586 C4587 1.394 . S
C4587 C4583 1.397 . S
C4587 C4586 1.394 . S
C4587 C4597 1.723 . S
C4588 C4585 1.453 . S
C4588 H4612 0.982 . S
C4588 H4613 0.979 . S
C4588 H4614 0.977 . S
C4589 C4585 1.684 . S
C4589 H4615 0.979 . S
C4589 H4616 0.980 . S
C4589 H4617 0.983 . S
C4590 H4566 0.948 . S
C4590 C4591 1.391 . S
C4590 C4595 1.391 . S
C4591 C4590 1.391 . S
C4591 C4592 1.391 . S
C4592 H4569 0.947 . S
C4592 C4591 1.391 . S
C4592 C4593 1.392 . S
C4593 H4570 0.948 . S
C4593 C4592 1.392 . S
C4593 C4594 1.419 . S
C4594 C4593 1.419 . S
C4594 C4595 1.391 . S
C4594 C4598 1.397 . S
C4595 C4590 1.391 . S
C4595 C4594 1.391 . S
C4595 C4596 1.399 . S
C4596 C4595 1.399 . S
C4596 C4597 1.396 . S
C4596 C4599 1.453 . S
C4596 C4600 1.684 . S
C4597 C4587 1.723 . S
C4597 C4596 1.396 . S
C4597 C4598 1.394 . S
C4598 C4568 1.723 . S
C4598 C4594 1.397 . S
C4598 C4597 1.394 . S
C4599 H4571 0.982 . S
C4599 H4575 0.979 . S
C4599 H4576 0.977 . S
C4599 C4596 1.453 . S
C4600 H4572 0.979 . S
C4600 H4573 0.980 . S
C4600 H4574 0.983 . S
C4600 C4596 1.684 . S
H4601 C4619 0.948 . S
H4602 C4560 0.948 . S
H4603 C4578 0.979 . S
H4604 C4578 0.980 . S
H4605 C4578 0.983 . S
H4606 C4577 0.982 . S
H4607 C4577 0.979 . S
H4608 C4577 0.977 . S
H4609 C4579 0.948 . S
H4610 C4581 0.947 . S
H4611 C4582 0.948 . S
H4612 C4588 0.982 . S
H4613 C4588 0.979 . S
H4614 C4588 0.977 . S
H4615 C4589 0.979 . S
H4616 C4589 0.980 . S
H4617 C4589 0.983 . S
H4618 C4562 0.947 . S
C4619 C4562 1.392 . S
C4619 C4563 1.419 . S
C4619 H4601 0.948 . S
C4620 C4621 1.391 . S
C4620 C4624 1.391 . S
C4620 H4662 0.948 . S
C4621 C4620 1.391 . S
C4621 C4622 1.391 . S
C4622 C4621 1.391 . S
C4622 H4678 0.947 . S
C4622 C4679 1.392 . S
C4623 C4624 1.391 . S
C4623 C4627 1.397 . S
C4623 C4679 1.419 . S
C4624 C4620 1.391 . S
C4624 C4623 1.391 . S
C4624 C4625 1.399 . S
C4625 C4624 1.399 . S
C4625 C4628 1.396 . S
C4625 C4637 1.453 . S
C4625 C4638 1.684 . S
H4626 C4650 0.948 . S
C4627 C4623 1.397 . S
C4627 C4628 1.394 . S
C4627 C4646 1.723 . S
C4628 C4625 1.396 . S
C4628 C4627 1.394 . S
C4628 C4658 1.723 . S
H4629 C4652 0.947 . S
H4630 C4653 0.948 . S
H4631 C4659 0.982 . S
H4632 C4660 0.979 . S
H4633 C4660 0.980 . S
H4634 C4660 0.983 . S
H4635 C4659 0.979 . S
H4636 C4659 0.977 . S
C4637 C4625 1.453 . S
C4637 H4666 0.982 . S
C4637 H4667 0.979 . S
C4637 H4668 0.977 . S
C4638 C4625 1.684 . S
C4638 H4663 0.979 . S
C4638 H4664 0.980 . S
C4638 H4665 0.983 . S
C4639 C4640 1.391 . S
C4639 C4644 1.391 . S
C4639 H4669 0.948 . S
C4640 C4639 1.391 . S
C4640 C4641 1.391 . S
C4641 C4640 1.391 . S
C4641 C4642 1.392 . S
C4641 H4670 0.947 . S
C4642 C4641 1.392 . S
C4642 C4643 1.419 . S
C4642 H4671 0.948 . S
C4643 C4642 1.419 . S
C4643 C4644 1.391 . S
C4643 C4647 1.397 . S
C4644 C4639 1.391 . S
C4644 C4643 1.391 . S
C4644 C4645 1.399 . S
C4645 C4644 1.399 . S
C4645 C4646 1.396 . S
C4645 C4648 1.453 . S
C4645 C4649 1.684 . S
C4646 C4627 1.723 . S
C4646 C4645 1.396 . S
C4646 C4647 1.394 . S
C4647 C4643 1.397 . S
C4647 C4646 1.394 . S
C4647 C4657 1.723 . S
C4648 C4645 1.453 . S
C4648 H4672 0.982 . S
C4648 H4673 0.979 . S
C4648 H4674 0.977 . S
C4649 C4645 1.684 . S
C4649 H4675 0.979 . S
C4649 H4676 0.980 . S
C4649 H4677 0.983 . S
C4650 H4626 0.948 . S
C4650 C4651 1.391 . S
C4650 C4655 1.391 . S
C4651 C4650 1.391 . S
C4651 C4652 1.391 . S
C4652 H4629 0.947 . S
C4652 C4651 1.391 . S
C4652 C4653 1.392 . S
C4653 H4630 0.948 . S
C4653 C4652 1.392 . S
C4653 C4654 1.419 . S
C4654 C4653 1.419 . S
C4654 C4655 1.391 . S
C4654 C4658 1.397 . S
C4655 C4650 1.391 . S
C4655 C4654 1.391 . S
C4655 C4656 1.399 . S
C4656 C4655 1.399 . S
C4656 C4657 1.396 . S
C4656 C4659 1.453 . S
C4656 C4660 1.684 . S
C4657 C4647 1.723 . S
C4657 C4656 1.396 . S
C4657 C4658 1.394 . S
C4658 C4628 1.723 . S
C4658 C4654 1.397 . S
C4658 C4657 1.394 . S
C4659 H4631 0.982 . S
C4659 H4635 0.979 . S
C4659 H4636 0.977 . S
C4659 C4656 1.453 . S
C4660 H4632 0.979 . S
C4660 H4633 0.980 . S
C4660 H4634 0.983 . S
C4660 C4656 1.684 . S
H4661 C4679 0.948 . S
H4662 C4620 0.948 . S
H4663 C4638 0.979 . S
H4664 C4638 0.980 . S
H4665 C4638 0.983 . S
H4666 C4637 0.982 . S
H4667 C4637 0.979 . S
H4668 C4637 0.977 . S
H4669 C4639 0.948 . S
H4670 C4641 0.947 . S
H4671 C4642 0.948 . S
H4672 C4648 0.982 . S
H4673 C4648 0.979 . S
H4674 C4648 0.977 . S
H4675 C4649 0.979 . S
H4676 C4649 0.980 . S
H4677 C4649 0.983 . S
H4678 C4622 0.947 . S
C4679 C4622 1.392 . S
C4679 C4623 1.419 . S
C4679 H4661 0.948 . S
C4680 C4681 1.391 . S
C4680 C4684 1.391 . S
C4680 H4722 0.948 . S
C4681 C4680 1.391 . S
C4681 C4682 1.391 . S
C4682 C4681 1.391 . S
C4682 H4738 0.947 . S
C4682 C4739 1.392 . S
C4683 C4684 1.391 . S
C4683 C4687 1.397 . S
C4683 C4739 1.419 . S
C4684 C4680 1.391 . S
C4684 C4683 1.391 . S
C4684 C4685 1.399 . S
C4685 C4684 1.399 . S
C4685 C4688 1.396 . S
C4685 C4697 1.453 . S
C4685 C4698 1.684 . S
H4686 C4710 0.948 . S
C4687 C4683 1.397 . S
C4687 C4688 1.394 . S
C4687 C4706 1.723 . S
C4688 C4685 1.396 . S
C4688 C4687 1.394 . S
C4688 C4718 1.723 . S
H4689 C4712 0.947 . S
H4690 C4713 0.948 . S
H4691 C4719 0.982 . S
H4692 C4720 0.979 . S
H4693 C4720 0.980 . S
H4694 C4720 0.983 . S
H4695 C4719 0.979 . S
H4696 C4719 0.977 . S
C4697 C4685 1.453 . S
C4697 H4726 0.982 . S
C4697 H4727 0.979 . S
C4697 H4728 0.977 . S
C4698 C4685 1.684 . S
C4698 H4723 0.979 . S
C4698 H4724 0.980 . S
C4698 H4725 0.983 . S
C4699 C4700 1.391 . S
C4699 C4704 1.391 . S
C4699 H4729 0.948 . S
C4700 C4699 1.391 . S
C4700 C4701 1.391 . S
C4701 C4700 1.391 . S
C4701 C4702 1.392 . S
C4701 H4730 0.947 . S
C4702 C4701 1.392 . S
C4702 C4703 1.419 . S
C4702 H4731 0.948 . S
C4703 C4702 1.419 . S
C4703 C4704 1.391 . S
C4703 C4707 1.397 . S
C4704 C4699 1.391 . S
C4704 C4703 1.391 . S
C4704 C4705 1.399 . S
C4705 C4704 1.399 . S
C4705 C4706 1.396 . S
C4705 C4708 1.453 . S
C4705 C4709 1.684 . S
C4706 C4687 1.723 . S
C4706 C4705 1.396 . S
C4706 C4707 1.394 . S
C4707 C4703 1.397 . S
C4707 C4706 1.394 . S
C4707 C4717 1.723 . S
C4708 C4705 1.453 . S
C4708 H4732 0.982 . S
C4708 H4733 0.979 . S
C4708 H4734 0.977 . S
C4709 C4705 1.684 . S
C4709 H4735 0.979 . S
C4709 H4736 0.980 . S
C4709 H4737 0.983 . S
C4710 H4686 0.948 . S
C4710 C4711 1.391 . S
C4710 C4715 1.391 . S
C4711 C4710 1.391 . S
C4711 C4712 1.391 . S
C4712 H4689 0.947 . S
C4712 C4711 1.391 . S
C4712 C4713 1.392 . S
C4713 H4690 0.948 . S
C4713 C4712 1.392 . S
C4713 C4714 1.419 . S
C4714 C4713 1.419 . S
C4714 C4715 1.391 . S
C4714 C4718 1.397 . S
C4715 C4710 1.391 . S
C4715 C4714 1.391 . S
C4715 C4716 1.399 . S
C4716 C4715 1.399 . S
C4716 C4717 1.396 . S
C4716 C4719 1.453 . S
C4716 C4720 1.684 . S
C4717 C4707 1.723 . S
C4717 C4716 1.396 . S
C4717 C4718 1.394 . S
C4718 C4688 1.723 . S
C4718 C4714 1.397 . S
C4718 C4717 1.394 . S
C4719 H4691 0.982 . S
C4719 H4695 0.979 . S
C4719 H4696 0.977 . S
C4719 C4716 1.453 . S
C4720 H4692 0.979 . S
C4720 H4693 0.980 . S
C4720 H4694 0.983 . S
C4720 C4716 1.684 . S
H4721 C4739 0.948 . S
H4722 C4680 0.948 . S
H4723 C4698 0.979 . S
H4724 C4698 0.980 . S
H4725 C4698 0.983 . S
H4726 C4697 0.982 . S
H4727 C4697 0.979 . S
H4728 C4697 0.977 . S
H4729 C4699 0.948 . S
H4730 C4701 0.947 . S
H4731 C4702 0.948 . S
H4732 C4708 0.982 . S
H4733 C4708 0.979 . S
H4734 C4708 0.977 . S
H4735 C4709 0.979 . S
H4736 C4709 0.980 . S
H4737 C4709 0.983 . S
H4738 C4682 0.947 . S
C4739 C4682 1.392 . S
C4739 C4683 1.419 . S
C4739 H4721 0.948 . S
C4740 C4741 1.391 . S
C4740 C4744 1.391 . S
C4740 H4782 0.948 . S
C4741 C4740 1.391 . S
C4741 C4742 1.391 . S
C4742 C4741 1.391 . S
C4742 H4798 0.947 . S
C4742 C4799 1.392 . S
C4743 C4744 1.391 . S
C4743 C4747 1.397 . S
C4743 C4799 1.419 . S
C4744 C4740 1.391 . S
C4744 C4743 1.391 . S
C4744 C4745 1.399 . S
C4745 C4744 1.399 . S
C4745 C4748 1.396 . S
C4745 C4757 1.453 . S
C4745 C4758 1.684 . S
H4746 C4770 0.948 . S
C4747 C4743 1.397 . S
C4747 C4748 1.394 . S
C4747 C4766 1.723 . S
C4748 C4745 1.396 . S
C4748 C4747 1.394 . S
C4748 C4778 1.723 . S
H4749 C4772 0.947 . S
H4750 C4773 0.948 . S
H4751 C4779 0.982 . S
H4752 C4780 0.979 . S
H4753 C4780 0.980 . S
H4754 C4780 0.983 . S
H4755 C4779 0.979 . S
H4756 C4779 0.977 . S
C4757 C4745 1.453 . S
C4757 H4786 0.982 . S
C4757 H4787 0.979 . S
C4757 H4788 0.977 . S
C4758 C4745 1.684 . S
C4758 H4783 0.979 . S
C4758 H4784 0.980 . S
C4758 H4785 0.983 . S
C4759 C4760 1.391 . S
C4759 C4764 1.391 . S
C4759 H4789 0.948 . S
C4760 C4759 1.391 . S
C4760 C4761 1.391 . S
C4761 C4760 1.391 . S
C4761 C4762 1.392 . S
C4761 H4790 0.947 . S
C4762 C4761 1.392 . S
C4762 C4763 1.419 . S
C4762 H4791 0.948 . S
C4763 C4762 1.419 . S
C4763 C4764 1.391 . S
C4763 C4767 1.397 . S
C4764 C4759 1.391 . S
C4764 C4763 1.391 . S
C4764 C4765 1.399 . S
C4765 C4764 1.399 . S
C4765 C4766 1.396 . S
C4765 C4768 1.453 . S
C4765 C4769 1.684 . S
C4766 C4747 1.723 . S
C4766 C4765 1.396 . S
C4766 C4767 1.394 . S
C4767 C4763 1.397 . S
C4767 C4766 1.394 . S
C4767 C4777 1.723 . S
C4768 C4765 1.453 . S
C4768 H4792 0.982 . S
C4768 H4793 0.979 . S
C4768 H4794 0.977 . S
C4769 C4765 1.684 . S
C4769 H4795 0.979 . S
C4769 H4796 0.980 . S
C4769 H4797 0.983 . S
C4770 H4746 0.948 . S
C4770 C4771 1.391 . S
C4770 C4775 1.391 . S
C4771 C4770 1.391 . S
C4771 C4772 1.391 . S
C4772 H4749 0.947 . S
C4772 C4771 1.391 . S
C4772 C4773 1.392 . S
C4773 H4750 0.948 . S
C4773 C4772 1.392 . S
C4773 C4774 1.419 . S
C4774 C4773 1.419 . S
C4774 C4775 1.391 . S
C4774 C4778 1.397 . S
C4775 C4770 1.391 . S
C4775 C4774 1.391 . S
C4775 C4776 1.399 . S
C4776 C4775 1.399 . S
C4776 C4777 1.396 . S
C4776 C4779 1.453 . S
C4776 C4780 1.684 . S
C4777 C4767 1.723 . S
C4777 C4776 1.396 . S
C4777 C4778 1.394 . S
C4778 C4748 1.723 . S
C4778 C4774 1.397 . S
C4778 C4777 1.394 . S
C4779 H4751 0.982 . S
C4779 H4755 0.979 . S
C4779 H4756 0.977 . S
C4779 C4776 1.453 . S
C4780 H4752 0.979 . S
C4780 H4753 0.980 . S
C4780 H4754 0.983 . S
C4780 C4776 1.684 . S
H4781 C4799 0.948 . S
H4782 C4740 0.948 . S
H4783 C4758 0.979 . S
H4784 C4758 0.980 . S
H4785 C4758 0.983 . S
H4786 C4757 0.982 . S
H4787 C4757 0.979 . S
H4788 C4757 0.977 . S
H4789 C4759 0.948 . S
H4790 C4761 0.947 . S
H4791 C4762 0.948 . S
H4792 C4768 0.982 . S
H4793 C4768 0.979 . S
H4794 C4768 0.977 . S
H4795 C4769 0.979 . S
H4796 C4769 0.980 . S
H4797 C4769 0.983 . S
H4798 C4742 0.947 . S
C4799 C4742 1.392 . S
C4799 C4743 1.419 . S
C4799 H4781 0.948 . S
H4800 C4808 0.929 . S
H4801 C4810 0.930 . S
H4802 C4812 0.930 . S
H4803 C4815 0.929 . S
H4804 C4818 0.930 . S
H4805 C4820 0.960 . S
H4806 C4820 0.960 . S
H4807 C4820 0.960 . S
C4808 H4800 0.929 . S
C4808 C4809 1.377 . S
C4808 C4810 1.384 . S
C4809 C4808 1.377 . S
C4809 C4815 1.390 . S
C4810 H4801 0.930 . S
C4810 C4808 1.384 . S
C4810 C4811 1.372 . S
C4811 C4810 1.372 . S
C4811 C4812 1.400 . S
C4811 C4816 1.490 . S
C4812 H4802 0.930 . S
C4812 C4811 1.400 . S
C4812 C4815 1.386 . S
H4813 C4829 0.930 . S
H4814 C4830 0.931 . S
C4815 H4803 0.929 . S
C4815 C4809 1.390 . S
C4815 C4812 1.386 . S
C4816 C4811 1.490 . S
C4816 C4818 1.395 . S
C4816 C4819 1.403 . S
H4817 C4823 0.930 . S
C4818 H4804 0.930 . S
C4818 C4816 1.395 . S
C4818 C4821 1.403 . S
C4819 C4816 1.403 . S
C4819 C4820 1.524 . S
C4819 C4823 1.400 . S
C4820 H4805 0.960 . S
C4820 H4806 0.960 . S
C4820 H4807 0.960 . S
C4820 C4819 1.524 . S
C4821 C4818 1.403 . S
C4821 C4822 1.392 . S
C4821 C4825 1.495 . S
C4822 C4821 1.392 . S
C4822 C4823 1.385 . S
C4822 C4824 1.478 . S
C4823 H4817 0.930 . S
C4823 C4819 1.400 . S
C4823 C4822 1.385 . S
C4824 C4822 1.478 . S
C4824 C4826 1.381 . S
C4824 C4830 1.383 . S
C4825 C4821 1.495 . S
C4825 H4831 0.959 . S
C4825 H4832 0.961 . S
C4825 H4833 0.960 . S
C4826 C4824 1.381 . S
C4826 C4827 1.394 . S
C4826 H4834 0.930 . S
C4827 C4826 1.394 . S
C4827 C4828 1.383 . S
C4827 H4835 0.929 . S
C4828 C4827 1.383 . S
C4828 C4829 1.377 . S
C4829 H4813 0.930 . S
C4829 C4828 1.377 . S
C4829 C4830 1.379 . S
C4830 H4814 0.931 . S
C4830 C4824 1.383 . S
C4830 C4829 1.379 . S
H4831 C4825 0.959 . S
H4832 C4825 0.961 . S
H4833 C4825 0.960 . S
H4834 C4826 0.930 . S
H4835 C4827 0.929 . S
H4836 C4844 0.929 . S
H4837 C4846 0.930 . S
H4838 C4848 0.930 . S
H4839 C4851 0.929 . S
H4840 C4854 0.930 . S
H4841 C4856 0.960 . S
H4842 C4856 0.960 . S
H4843 C4856 0.960 . S
C4844 H4836 0.929 . S
C4844 C4845 1.377 . S
C4844 C4846 1.384 . S
C4845 C4844 1.377 . S
C4845 C4851 1.390 . S
C4846 H4837 0.930 . S
C4846 C4844 1.384 . S
C4846 C4847 1.372 . S
C4847 C4846 1.372 . S
C4847 C4848 1.400 . S
C4847 C4852 1.490 . S
C4848 H4838 0.930 . S
C4848 C4847 1.400 . S
C4848 C4851 1.386 . S
H4849 C4865 0.930 . S
H4850 C4866 0.931 . S
C4851 H4839 0.929 . S
C4851 C4845 1.390 . S
C4851 C4848 1.386 . S
C4852 C4847 1.490 . S
C4852 C4854 1.395 . S
C4852 C4855 1.403 . S
H4853 C4859 0.930 . S
C4854 H4840 0.930 . S
C4854 C4852 1.395 . S
C4854 C4857 1.403 . S
C4855 C4852 1.403 . S
C4855 C4856 1.524 . S
C4855 C4859 1.400 . S
C4856 H4841 0.960 . S
C4856 H4842 0.960 . S
C4856 H4843 0.960 . S
C4856 C4855 1.524 . S
C4857 C4854 1.403 . S
C4857 C4858 1.392 . S
C4857 C4861 1.495 . S
C4858 C4857 1.392 . S
C4858 C4859 1.385 . S
C4858 C4860 1.478 . S
C4859 H4853 0.930 . S
C4859 C4855 1.400 . S
C4859 C4858 1.385 . S
C4860 C4858 1.478 . S
C4860 C4862 1.381 . S
C4860 C4866 1.383 . S
C4861 C4857 1.495 . S
C4861 H4867 0.959 . S
C4861 H4868 0.961 . S
C4861 H4869 0.960 . S
C4862 C4860 1.381 . S
C4862 C4863 1.394 . S
C4862 H4870 0.930 . S
C4863 C4862 1.394 . S
C4863 C4864 1.383 . S
C4863 H4871 0.929 . S
C4864 C4863 1.383 . S
C4864 C4865 1.377 . S
C4865 H4849 0.930 . S
C4865 C4864 1.377 . S
C4865 C4866 1.379 . S
C4866 H4850 0.931 . S
C4866 C4860 1.383 . S
C4866 C4865 1.379 . S
H4867 C4861 0.959 . S
H4868 C4861 0.961 . S
H4869 C4861 0.960 . S
H4870 C4862 0.930 . S
H4871 C4863 0.929 . S
H4872 C4880 0.929 . S
H4873 C4882 0.930 . S
H4874 C4884 0.930 . S
H4875 C4887 0.929 . S
H4876 C4890 0.930 . S
H4877 C4892 0.960 . S
H4878 C4892 0.960 . S
H4879 C4892 0.960 . S
C4880 H4872 0.929 . S
C4880 C4881 1.377 . S
C4880 C4882 1.384 . S
C4881 C4880 1.377 . S
C4881 C4887 1.390 . S
C4882 H4873 0.930 . S
C4882 C4880 1.384 . S
C4882 C4883 1.372 . S
C4883 C4882 1.372 . S
C4883 C4884 1.400 . S
C4883 C4888 1.490 . S
C4884 H4874 0.930 . S
C4884 C4883 1.400 . S
C4884 C4887 1.386 . S
H4885 C4901 0.930 . S
H4886 C4902 0.931 . S
C4887 H4875 0.929 . S
C4887 C4881 1.390 . S
C4887 C4884 1.386 . S
C4888 C4883 1.490 . S
C4888 C4890 1.395 . S
C4888 C4891 1.403 . S
H4889 C4895 0.930 . S
C4890 H4876 0.930 . S
C4890 C4888 1.395 . S
C4890 C4893 1.403 . S
C4891 C4888 1.403 . S
C4891 C4892 1.524 . S
C4891 C4895 1.400 . S
C4892 H4877 0.960 . S
C4892 H4878 0.960 . S
C4892 H4879 0.960 . S
C4892 C4891 1.524 . S
C4893 C4890 1.403 . S
C4893 C4894 1.392 . S
C4893 C4897 1.495 . S
C4894 C4893 1.392 . S
C4894 C4895 1.385 . S
C4894 C4896 1.478 . S
C4895 H4889 0.930 . S
C4895 C4891 1.400 . S
C4895 C4894 1.385 . S
C4896 C4894 1.478 . S
C4896 C4898 1.381 . S
C4896 C4902 1.383 . S
C4897 C4893 1.495 . S
C4897 H4903 0.959 . S
C4897 H4904 0.961 . S
C4897 H4905 0.960 . S
C4898 C4896 1.381 . S
C4898 C4899 1.394 . S
C4898 H4906 0.930 . S
C4899 C4898 1.394 . S
C4899 C4900 1.383 . S
C4899 H4907 0.929 . S
C4900 C4899 1.383 . S
C4900 C4901 1.377 . S
C4901 H4885 0.930 . S
C4901 C4900 1.377 . S
C4901 C4902 1.379 . S
C4902 H4886 0.931 . S
C4902 C4896 1.383 . S
C4902 C4901 1.379 . S
H4903 C4897 0.959 . S
H4904 C4897 0.961 . S
H4905 C4897 0.960 . S
H4906 C4898 0.930 . S
H4907 C4899 0.929 . S
H4908 C4916 0.929 . S
H4909 C4918 0.930 . S
H4910 C4920 0.930 . S
H4911 C4923 0.929 . S
H4912 C4926 0.930 . S
H4913 C4928 0.960 . S
H4914 C4928 0.960 . S
H4915 C4928 0.960 . S
C4916 H4908 0.929 . S
C4916 C4917 1.377 . S
C4916 C4918 1.384 . S
C4917 C4916 1.377 . S
C4917 C4923 1.390 . S
C4918 H4909 0.930 . S
C4918 C4916 1.384 . S
C4918 C4919 1.372 . S
C4919 C4918 1.372 . S
C4919 C4920 1.400 . S
C4919 C4924 1.490 . S
C4920 H4910 0.930 . S
C4920 C4919 1.400 . S
C4920 C4923 1.386 . S
H4921 C4937 0.930 . S
H4922 C4938 0.931 . S
C4923 H4911 0.929 . S
C4923 C4917 1.390 . S
C4923 C4920 1.386 . S
C4924 C4919 1.490 . S
C4924 C4926 1.395 . S
C4924 C4927 1.403 . S
H4925 C4931 0.930 . S
C4926 H4912 0.930 . S
C4926 C4924 1.395 . S
C4926 C4929 1.403 . S
C4927 C4924 1.403 . S
C4927 C4928 1.524 . S
C4927 C4931 1.400 . S
C4928 H4913 0.960 . S
C4928 H4914 0.960 . S
C4928 H4915 0.960 . S
C4928 C4927 1.524 . S
C4929 C4926 1.403 . S
C4929 C4930 1.392 . S
C4929 C4933 1.495 . S
C4930 C4929 1.392 . S
C4930 C4931 1.385 . S
C4930 C4932 1.478 . S
C4931 H4925 0.930 . S
C4931 C4927 1.400 . S
C4931 C4930 1.385 . S
C4932 C4930 1.478 . S
C4932 C4934 1.381 . S
C4932 C4938 1.383 . S
C4933 C4929 1.495 . S
C4933 H4939 0.959 . S
C4933 H4940 0.961 . S
C4933 H4941 0.960 . S
C4934 C4932 1.381 . S
C4934 C4935 1.394 . S
C4934 H4942 0.930 . S
C4935 C4934 1.394 . S
C4935 C4936 1.383 . S
C4935 H4943 0.929 . S
C4936 C4935 1.383 . S
C4936 C4937 1.377 . S
C4937 H4921 0.930 . S
C4937 C4936 1.377 . S
C4937 C4938 1.379 . S
C4938 H4922 0.931 . S
C4938 C4932 1.383 . S
C4938 C4937 1.379 . S
H4939 C4933 0.959 . S
H4940 C4933 0.961 . S
H4941 C4933 0.960 . S
H4942 C4934 0.930 . S
H4943 C4935 0.929 . S
H4944 C4952 0.929 . S
H4945 C4954 0.930 . S
H4946 C4956 0.930 . S
H4947 C4959 0.929 . S
H4948 C4962 0.930 . S
H4949 C4964 0.960 . S
H4950 C4964 0.960 . S
H4951 C4964 0.960 . S
C4952 H4944 0.929 . S
C4952 C4953 1.377 . S
C4952 C4954 1.384 . S
C4953 C4952 1.377 . S
C4953 C4959 1.390 . S
C4954 H4945 0.930 . S
C4954 C4952 1.384 . S
C4954 C4955 1.372 . S
C4955 C4954 1.372 . S
C4955 C4956 1.400 . S
C4955 C4960 1.490 . S
C4956 H4946 0.930 . S
C4956 C4955 1.400 . S
C4956 C4959 1.386 . S
H4957 C4973 0.930 . S
H4958 C4974 0.931 . S
C4959 H4947 0.929 . S
C4959 C4953 1.390 . S
C4959 C4956 1.386 . S
C4960 C4955 1.490 . S
C4960 C4962 1.395 . S
C4960 C4963 1.403 . S
H4961 C4967 0.930 . S
C4962 H4948 0.930 . S
C4962 C4960 1.395 . S
C4962 C4965 1.403 . S
C4963 C4960 1.403 . S
C4963 C4964 1.524 . S
C4963 C4967 1.400 . S
C4964 H4949 0.960 . S
C4964 H4950 0.960 . S
C4964 H4951 0.960 . S
C4964 C4963 1.524 . S
C4965 C4962 1.403 . S
C4965 C4966 1.392 . S
C4965 C4969 1.495 . S
C4966 C4965 1.392 . S
C4966 C4967 1.385 . S
C4966 C4968 1.478 . S
C4967 H4961 0.930 . S
C4967 C4963 1.400 . S
C4967 C4966 1.385 . S
C4968 C4966 1.478 . S
C4968 C4970 1.381 . S
C4968 C4974 1.383 . S
C4969 C4965 1.495 . S
C4969 H4975 0.959 . S
C4969 H4976 0.961 . S
C4969 H4977 0.960 . S
C4970 C4968 1.381 . S
C4970 C4971 1.394 . S
C4970 H4978 0.930 . S
C4971 C4970 1.394 . S
C4971 C4972 1.383 . S
C4971 H4979 0.929 . S
C4972 C4971 1.383 . S
C4972 C4973 1.377 . S
C4973 H4957 0.930 . S
C4973 C4972 1.377 . S
C4973 C4974 1.379 . S
C4974 H4958 0.931 . S
C4974 C4968 1.383 . S
C4974 C4973 1.379 . S
H4975 C4969 0.959 . S
H4976 C4969 0.961 . S
H4977 C4969 0.960 . S
H4978 C4970 0.930 . S
H4979 C4971 0.929 . S
H4980 C4988 0.929 . S
H4981 C4990 0.930 . S
H4982 C4992 0.930 . S
H4983 C4995 0.929 . S
H4984 C4998 0.930 . S
H4985 C5000 0.960 . S
H4986 C5000 0.960 . S
H4987 C5000 0.960 . S
C4988 H4980 0.929 . S
C4988 C4989 1.377 . S
C4988 C4990 1.384 . S
C4989 C4988 1.377 . S
C4989 C4995 1.390 . S
C4990 H4981 0.930 . S
C4990 C4988 1.384 . S
C4990 C4991 1.372 . S
C4991 C4990 1.372 . S
C4991 C4992 1.400 . S
C4991 C4996 1.490 . S
C4992 H4982 0.930 . S
C4992 C4991 1.400 . S
C4992 C4995 1.386 . S
H4993 C5009 0.930 . S
H4994 C5010 0.931 . S
C4995 H4983 0.929 . S
C4995 C4989 1.390 . S
C4995 C4992 1.386 . S
C4996 C4991 1.490 . S
C4996 C4998 1.395 . S
C4996 C4999 1.403 . S
H4997 C5003 0.930 . S
C4998 H4984 0.930 . S
C4998 C4996 1.395 . S
C4998 C5001 1.403 . S
C4999 C4996 1.403 . S
C4999 C5000 1.524 . S
C4999 C5003 1.400 . S
C5000 H4985 0.960 . S
C5000 H4986 0.960 . S
C5000 H4987 0.960 . S
C5000 C4999 1.524 . S
C5001 C4998 1.403 . S
C5001 C5002 1.392 . S
C5001 C5005 1.495 . S
C5002 C5001 1.392 . S
C5002 C5003 1.385 . S
C5002 C5004 1.478 . S
C5003 H4997 0.930 . S
C5003 C4999 1.400 . S
C5003 C5002 1.385 . S
C5004 C5002 1.478 . S
C5004 C5006 1.381 . S
C5004 C5010 1.383 . S
C5005 C5001 1.495 . S
C5005 H5011 0.959 . S
C5005 H5012 0.961 . S
C5005 H5013 0.960 . S
C5006 C5004 1.381 . S
C5006 C5007 1.394 . S
C5006 H5014 0.930 . S
C5007 C5006 1.394 . S
C5007 C5008 1.383 . S
C5007 H5015 0.929 . S
C5008 C5007 1.383 . S
C5008 C5009 1.377 . S
C5009 H4993 0.930 . S
C5009 C5008 1.377 . S
C5009 C5010 1.379 . S
C5010 H4994 0.931 . S
C5010 C5004 1.383 . S
C5010 C5009 1.379 . S
H5011 C5005 0.959 . S
H5012 C5005 0.961 . S
H5013 C5005 0.960 . S
H5014 C5006 0.930 . S
H5015 C5007 0.929 . S
H5016 C5024 0.929 . S
H5017 C5026 0.930 . S
H5018 C5028 0.930 . S
H5019 C5031 0.929 . S
H5020 C5034 0.930 . S
H5021 C5036 0.960 . S
H5022 C5036 0.960 . S
H5023 C5036 0.960 . S
C5024 H5016 0.929 . S
C5024 C5025 1.377 . S
C5024 C5026 1.384 . S
C5025 C5024 1.377 . S
C5025 C5031 1.390 . S
C5026 H5017 0.930 . S
C5026 C5024 1.384 . S
C5026 C5027 1.372 . S
C5027 C5026 1.372 . S
C5027 C5028 1.400 . S
C5027 C5032 1.490 . S
C5028 H5018 0.930 . S
C5028 C5027 1.400 . S
C5028 C5031 1.386 . S
H5029 C5045 0.930 . S
H5030 C5046 0.931 . S
C5031 H5019 0.929 . S
C5031 C5025 1.390 . S
C5031 C5028 1.386 . S
C5032 C5027 1.490 . S
C5032 C5034 1.395 . S
C5032 C5035 1.403 . S
H5033 C5039 0.930 . S
C5034 H5020 0.930 . S
C5034 C5032 1.395 . S
C5034 C5037 1.403 . S
C5035 C5032 1.403 . S
C5035 C5036 1.524 . S
C5035 C5039 1.400 . S
C5036 H5021 0.960 . S
C5036 H5022 0.960 . S
C5036 H5023 0.960 . S
C5036 C5035 1.524 . S
C5037 C5034 1.403 . S
C5037 C5038 1.392 . S
C5037 C5041 1.495 . S
C5038 C5037 1.392 . S
C5038 C5039 1.385 . S
C5038 C5040 1.478 . S
C5039 H5033 0.930 . S
C5039 C5035 1.400 . S
C5039 C5038 1.385 . S
C5040 C5038 1.478 . S
C5040 C5042 1.381 . S
C5040 C5046 1.383 . S
C5041 C5037 1.495 . S
C5041 H5047 0.959 . S
C5041 H5048 0.961 . S
C5041 H5049 0.960 . S
C5042 C5040 1.381 . S
C5042 C5043 1.394 . S
C5042 H5050 0.930 . S
C5043 C5042 1.394 . S
C5043 C5044 1.383 . S
C5043 H5051 0.929 . S
C5044 C5043 1.383 . S
C5044 C5045 1.377 . S
C5045 H5029 0.930 . S
C5045 C5044 1.377 . S
C5045 C5046 1.379 . S
C5046 H5030 0.931 . S
C5046 C5040 1.383 . S
C5046 C5045 1.379 . S
H5047 C5041 0.959 . S
H5048 C5041 0.961 . S
H5049 C5041 0.960 . S
H5050 C5042 0.930 . S
H5051 C5043 0.929 . S
H5052 C5060 0.929 . S
H5053 C5062 0.930 . S
H5054 C5064 0.930 . S
H5055 C5067 0.929 . S
H5056 C5070 0.930 . S
H5057 C5072 0.960 . S
H5058 C5072 0.960 . S
H5059 C5072 0.960 . S
C5060 H5052 0.929 . S
C5060 C5061 1.377 . S
C5060 C5062 1.384 . S
C5061 C5060 1.377 . S
C5061 C5067 1.390 . S
C5062 H5053 0.930 . S
C5062 C5060 1.384 . S
C5062 C5063 1.372 . S
C5063 C5062 1.372 . S
C5063 C5064 1.400 . S
C5063 C5068 1.490 . S
C5064 H5054 0.930 . S
C5064 C5063 1.400 . S
C5064 C5067 1.386 . S
H5065 C5081 0.930 . S
H5066 C5082 0.931 . S
C5067 H5055 0.929 . S
C5067 C5061 1.390 . S
C5067 C5064 1.386 . S
C5068 C5063 1.490 . S
C5068 C5070 1.395 . S
C5068 C5071 1.403 . S
H5069 C5075 0.930 . S
C5070 H5056 0.930 . S
C5070 C5068 1.395 . S
C5070 C5073 1.403 . S
C5071 C5068 1.403 . S
C5071 C5072 1.524 . S
C5071 C5075 1.400 . S
C5072 H5057 0.960 . S
C5072 H5058 0.960 . S
C5072 H5059 0.960 . S
C5072 C5071 1.524 . S
C5073 C5070 1.403 . S
C5073 C5074 1.392 . S
C5073 C5077 1.495 . S
C5074 C5073 1.392 . S
C5074 C5075 1.385 . S
C5074 C5076 1.478 . S
C5075 H5069 0.930 . S
C5075 C5071 1.400 . S
C5075 C5074 1.385 . S
C5076 C5074 1.478 . S
C5076 C5078 1.381 . S
C5076 C5082 1.383 . S
C5077 C5073 1.495 . S
C5077 H5083 0.959 . S
C5077 H5084 0.961 . S
C5077 H5085 0.960 . S
C5078 C5076 1.381 . S
C5078 C5079 1.394 . S
C5078 H5086 0.930 . S
C5079 C5078 1.394 . S
C5079 C5080 1.383 . S
C5079 H5087 0.929 . S
C5080 C5079 1.383 . S
C5080 C5081 1.377 . S
C5081 H5065 0.930 . S
C5081 C5080 1.377 . S
C5081 C5082 1.379 . S
C5082 H5066 0.931 . S
C5082 C5076 1.383 . S
C5082 C5081 1.379 . S
H5083 C5077 0.959 . S
H5084 C5077 0.961 . S
H5085 C5077 0.960 . S
H5086 C5078 0.930 . S
H5087 C5079 0.929 . S
H5088 C5096 0.929 . S
H5089 C5098 0.930 . S
H5090 C5100 0.930 . S
H5091 C5103 0.929 . S
H5092 C5106 0.930 . S
H5093 C5108 0.960 . S
H5094 C5108 0.960 . S
H5095 C5108 0.960 . S
C5096 H5088 0.929 . S
C5096 C5097 1.377 . S
C5096 C5098 1.384 . S
C5097 C5096 1.377 . S
C5097 C5103 1.390 . S
C5098 H5089 0.930 . S
C5098 C5096 1.384 . S
C5098 C5099 1.372 . S
C5099 C5098 1.372 . S
C5099 C5100 1.400 . S
C5099 C5104 1.490 . S
C5100 H5090 0.930 . S
C5100 C5099 1.400 . S
C5100 C5103 1.386 . S
H5101 C5117 0.930 . S
H5102 C5118 0.931 . S
C5103 H5091 0.929 . S
C5103 C5097 1.390 . S
C5103 C5100 1.386 . S
C5104 C5099 1.490 . S
C5104 C5106 1.395 . S
C5104 C5107 1.403 . S
H5105 C5111 0.930 . S
C5106 H5092 0.930 . S
C5106 C5104 1.395 . S
C5106 C5109 1.403 . S
C5107 C5104 1.403 . S
C5107 C5108 1.524 . S
C5107 C5111 1.400 . S
C5108 H5093 0.960 . S
C5108 H5094 0.960 . S
C5108 H5095 0.960 . S
C5108 C5107 1.524 . S
C5109 C5106 1.403 . S
C5109 C5110 1.392 . S
C5109 C5113 1.495 . S
C5110 C5109 1.392 . S
C5110 C5111 1.385 . S
C5110 C5112 1.478 . S
C5111 H5105 0.930 . S
C5111 C5107 1.400 . S
C5111 C5110 1.385 . S
C5112 C5110 1.478 . S
C5112 C5114 1.381 . S
C5112 C5118 1.383 . S
C5113 C5109 1.495 . S
C5113 H5119 0.959 . S
C5113 H5120 0.961 . S
C5113 H5121 0.960 . S
C5114 C5112 1.381 . S
C5114 C5115 1.394 . S
C5114 H5122 0.930 . S
C5115 C5114 1.394 . S
C5115 C5116 1.383 . S
C5115 H5123 0.929 . S
C5116 C5115 1.383 . S
C5116 C5117 1.377 . S
C5117 H5101 0.930 . S
C5117 C5116 1.377 . S
C5117 C5118 1.379 . S
C5118 H5102 0.931 . S
C5118 C5112 1.383 . S
C5118 C5117 1.379 . S
H5119 C5113 0.959 . S
H5120 C5113 0.961 . S
H5121 C5113 0.960 . S
H5122 C5114 0.930 . S
H5123 C5115 0.929 . S
H5124 C5132 0.929 . S
H5125 C5134 0.930 . S
H5126 C5136 0.930 . S
H5127 C5139 0.929 . S
H5128 C5142 0.930 . S
H5129 C5144 0.960 . S
H5130 C5144 0.960 . S
H5131 C5144 0.960 . S
C5132 H5124 0.929 . S
C5132 C5133 1.377 . S
C5132 C5134 1.384 . S
C5133 C5132 1.377 . S
C5133 C5139 1.390 . S
C5134 H5125 0.930 . S
C5134 C5132 1.384 . S
C5134 C5135 1.372 . S
C5135 C5134 1.372 . S
C5135 C5136 1.400 . S
C5135 C5140 1.490 . S
C5136 H5126 0.930 . S
C5136 C5135 1.400 . S
C5136 C5139 1.386 . S
H5137 C5153 0.930 . S
H5138 C5154 0.931 . S
C5139 H5127 0.929 . S
C5139 C5133 1.390 . S
C5139 C5136 1.386 . S
C5140 C5135 1.490 . S
C5140 C5142 1.395 . S
C5140 C5143 1.403 . S
H5141 C5147 0.930 . S
C5142 H5128 0.930 . S
C5142 C5140 1.395 . S
C5142 C5145 1.403 . S
C5143 C5140 1.403 . S
C5143 C5144 1.524 . S
C5143 C5147 1.400 . S
C5144 H5129 0.960 . S
C5144 H5130 0.960 . S
C5144 H5131 0.960 . S
C5144 C5143 1.524 . S
C5145 C5142 1.403 . S
C5145 C5146 1.392 . S
C5145 C5149 1.495 . S
C5146 C5145 1.392 . S
C5146 C5147 1.385 . S
C5146 C5148 1.478 . S
C5147 H5141 0.930 . S
C5147 C5143 1.400 . S
C5147 C5146 1.385 . S
C5148 C5146 1.478 . S
C5148 C5150 1.381 . S
C5148 C5154 1.383 . S
C5149 C5145 1.495 . S
C5149 H5155 0.959 . S
C5149 H5156 0.961 . S
C5149 H5157 0.960 . S
C5150 C5148 1.381 . S
C5150 C5151 1.394 . S
C5150 H5158 0.930 . S
C5151 C5150 1.394 . S
C5151 C5152 1.383 . S
C5151 H5159 0.929 . S
C5152 C5151 1.383 . S
C5152 C5153 1.377 . S
C5153 H5137 0.930 . S
C5153 C5152 1.377 . S
C5153 C5154 1.379 . S
C5154 H5138 0.931 . S
C5154 C5148 1.383 . S
C5154 C5153 1.379 . S
H5155 C5149 0.959 . S
H5156 C5149 0.961 . S
H5157 C5149 0.960 . S
H5158 C5150 0.930 . S
H5159 C5151 0.929 . S
H5160 C5168 0.929 . S
H5161 C5170 0.930 . S
H5162 C5172 0.930 . S
H5163 C5175 0.929 . S
H5164 C5178 0.930 . S
H5165 C5180 0.960 . S
H5166 C5180 0.960 . S
H5167 C5180 0.960 . S
C5168 H5160 0.929 . S
C5168 C5169 1.377 . S
C5168 C5170 1.384 . S
C5169 C5168 1.377 . S
C5169 C5175 1.390 . S
C5170 H5161 0.930 . S
C5170 C5168 1.384 . S
C5170 C5171 1.372 . S
C5171 C5170 1.372 . S
C5171 C5172 1.400 . S
C5171 C5176 1.490 . S
C5172 H5162 0.930 . S
C5172 C5171 1.400 . S
C5172 C5175 1.386 . S
H5173 C5189 0.930 . S
H5174 C5190 0.931 . S
C5175 H5163 0.929 . S
C5175 C5169 1.390 . S
C5175 C5172 1.386 . S
C5176 C5171 1.490 . S
C5176 C5178 1.395 . S
C5176 C5179 1.403 . S
H5177 C5183 0.930 . S
C5178 H5164 0.930 . S
C5178 C5176 1.395 . S
C5178 C5181 1.403 . S
C5179 C5176 1.403 . S
C5179 C5180 1.524 . S
C5179 C5183 1.400 . S
C5180 H5165 0.960 . S
C5180 H5166 0.960 . S
C5180 H5167 0.960 . S
C5180 C5179 1.524 . S
C5181 C5178 1.403 . S
C5181 C5182 1.392 . S
C5181 C5185 1.495 . S
C5182 C5181 1.392 . S
C5182 C5183 1.385 . S
C5182 C5184 1.478 . S
C5183 H5177 0.930 . S
C5183 C5179 1.400 . S
C5183 C5182 1.385 . S
C5184 C5182 1.478 . S
C5184 C5186 1.381 . S
C5184 C5190 1.383 . S
C5185 C5181 1.495 . S
C5185 H5191 0.959 . S
C5185 H5192 0.961 . S
C5185 H5193 0.960 . S
C5186 C5184 1.381 . S
C5186 C5187 1.394 . S
C5186 H5194 0.930 . S
C5187 C5186 1.394 . S
C5187 C5188 1.383 . S
C5187 H5195 0.929 . S
C5188 C5187 1.383 . S
C5188 C5189 1.377 . S
C5189 H5173 0.930 . S
C5189 C5188 1.377 . S
C5189 C5190 1.379 . S
C5190 H5174 0.931 . S
C5190 C5184 1.383 . S
C5190 C5189 1.379 . S
H5191 C5185 0.959 . S
H5192 C5185 0.961 . S
H5193 C5185 0.960 . S
H5194 C5186 0.930 . S
H5195 C5187 0.929 . S
H5196 C5204 0.929 . S
H5197 C5206 0.930 . S
H5198 C5208 0.930 . S
H5199 C5211 0.929 . S
H5200 C5214 0.930 . S
H5201 C5216 0.960 . S
H5202 C5216 0.960 . S
H5203 C5216 0.960 . S
C5204 H5196 0.929 . S
C5204 C5205 1.377 . S
C5204 C5206 1.384 . S
C5205 C5204 1.377 . S
C5205 C5211 1.390 . S
C5206 H5197 0.930 . S
C5206 C5204 1.384 . S
C5206 C5207 1.372 . S
C5207 C5206 1.372 . S
C5207 C5208 1.400 . S
C5207 C5212 1.490 . S
C5208 H5198 0.930 . S
C5208 C5207 1.400 . S
C5208 C5211 1.386 . S
H5209 C5225 0.930 . S
H5210 C5226 0.931 . S
C5211 H5199 0.929 . S
C5211 C5205 1.390 . S
C5211 C5208 1.386 . S
C5212 C5207 1.490 . S
C5212 C5214 1.395 . S
C5212 C5215 1.403 . S
H5213 C5219 0.930 . S
C5214 H5200 0.930 . S
C5214 C5212 1.395 . S
C5214 C5217 1.403 . S
C5215 C5212 1.403 . S
C5215 C5216 1.524 . S
C5215 C5219 1.400 . S
C5216 H5201 0.960 . S
C5216 H5202 0.960 . S
C5216 H5203 0.960 . S
C5216 C5215 1.524 . S
C5217 C5214 1.403 . S
C5217 C5218 1.392 . S
C5217 C5221 1.495 . S
C5218 C5217 1.392 . S
C5218 C5219 1.385 . S
C5218 C5220 1.478 . S
C5219 H5213 0.930 . S
C5219 C5215 1.400 . S
C5219 C5218 1.385 . S
C5220 C5218 1.478 . S
C5220 C5222 1.381 . S
C5220 C5226 1.383 . S
C5221 C5217 1.495 . S
C5221 H5227 0.959 . S
C5221 H5228 0.961 . S
C5221 H5229 0.960 . S
C5222 C5220 1.381 . S
C5222 C5223 1.394 . S
C5222 H5230 0.930 . S
C5223 C5222 1.394 . S
C5223 C5224 1.383 . S
C5223 H5231 0.929 . S
C5224 C5223 1.383 . S
C5224 C5225 1.377 . S
C5225 H5209 0.930 . S
C5225 C5224 1.377 . S
C5225 C5226 1.379 . S
C5226 H5210 0.931 . S
C5226 C5220 1.383 . S
C5226 C5225 1.379 . S
H5227 C5221 0.959 . S
H5228 C5221 0.961 . S
H5229 C5221 0.960 . S
H5230 C5222 0.930 . S
H5231 C5223 0.929 . S
H5232 C5240 0.929 . S
H5233 C5242 0.930 . S
H5234 C5244 0.930 . S
H5235 C5247 0.929 . S
H5236 C5250 0.930 . S
H5237 C5252 0.960 . S
H5238 C5252 0.960 . S
H5239 C5252 0.960 . S
C5240 H5232 0.929 . S
C5240 C5241 1.377 . S
C5240 C5242 1.384 . S
C5241 C5240 1.377 . S
C5241 C5247 1.390 . S
C5242 H5233 0.930 . S
C5242 C5240 1.384 . S
C5242 C5243 1.372 . S
C5243 C5242 1.372 . S
C5243 C5244 1.400 . S
C5243 C5248 1.490 . S
C5244 H5234 0.930 . S
C5244 C5243 1.400 . S
C5244 C5247 1.386 . S
H5245 C5261 0.930 . S
H5246 C5262 0.931 . S
C5247 H5235 0.929 . S
C5247 C5241 1.390 . S
C5247 C5244 1.386 . S
C5248 C5243 1.490 . S
C5248 C5250 1.395 . S
C5248 C5251 1.403 . S
H5249 C5255 0.930 . S
C5250 H5236 0.930 . S
C5250 C5248 1.395 . S
C5250 C5253 1.403 . S
C5251 C5248 1.403 . S
C5251 C5252 1.524 . S
C5251 C5255 1.400 . S
C5252 H5237 0.960 . S
C5252 H5238 0.960 . S
C5252 H5239 0.960 . S
C5252 C5251 1.524 . S
C5253 C5250 1.403 . S
C5253 C5254 1.392 . S
C5253 C5257 1.495 . S
C5254 C5253 1.392 . S
C5254 C5255 1.385 . S
C5254 C5256 1.478 . S
C5255 H5249 0.930 . S
C5255 C5251 1.400 . S
C5255 C5254 1.385 . S
C5256 C5254 1.478 . S
C5256 C5258 1.381 . S
C5256 C5262 1.383 . S
C5257 C5253 1.495 . S
C5257 H5263 0.959 . S
C5257 H5264 0.961 . S
C5257 H5265 0.960 . S
C5258 C5256 1.381 . S
C5258 C5259 1.394 . S
C5258 H5266 0.930 . S
C5259 C5258 1.394 . S
C5259 C5260 1.383 . S
C5259 H5267 0.929 . S
C5260 C5259 1.383 . S
C5260 C5261 1.377 . S
C5261 H5245 0.930 . S
C5261 C5260 1.377 . S
C5261 C5262 1.379 . S
C5262 H5246 0.931 . S
C5262 C5256 1.383 . S
C5262 C5261 1.379 . S
H5263 C5257 0.959 . S
H5264 C5257 0.961 . S
H5265 C5257 0.960 . S
H5266 C5258 0.930 . S
H5267 C5259 0.929 . S
H5268 C5276 0.929 . S
H5269 C5278 0.930 . S
H5270 C5280 0.930 . S
H5271 C5283 0.929 . S
H5272 C5286 0.930 . S
H5273 C5288 0.960 . S
H5274 C5288 0.960 . S
H5275 C5288 0.960 . S
C5276 H5268 0.929 . S
C5276 C5277 1.377 . S
C5276 C5278 1.384 . S
C5277 C5276 1.377 . S
C5277 C5283 1.390 . S
C5278 H5269 0.930 . S
C5278 C5276 1.384 . S
C5278 C5279 1.372 . S
C5279 C5278 1.372 . S
C5279 C5280 1.400 . S
C5279 C5284 1.490 . S
C5280 H5270 0.930 . S
C5280 C5279 1.400 . S
C5280 C5283 1.386 . S
H5281 C5297 0.930 . S
H5282 C5298 0.931 . S
C5283 H5271 0.929 . S
C5283 C5277 1.390 . S
C5283 C5280 1.386 . S
C5284 C5279 1.490 . S
C5284 C5286 1.395 . S
C5284 C5287 1.403 . S
H5285 C5291 0.930 . S
C5286 H5272 0.930 . S
C5286 C5284 1.395 . S
C5286 C5289 1.403 . S
C5287 C5284 1.403 . S
C5287 C5288 1.524 . S
C5287 C5291 1.400 . S
C5288 H5273 0.960 . S
C5288 H5274 0.960 . S
C5288 H5275 0.960 . S
C5288 C5287 1.524 . S
C5289 C5286 1.403 . S
C5289 C5290 1.392 . S
C5289 C5293 1.495 . S
C5290 C5289 1.392 . S
C5290 C5291 1.385 . S
C5290 C5292 1.478 . S
C5291 H5285 0.930 . S
C5291 C5287 1.400 . S
C5291 C5290 1.385 . S
C5292 C5290 1.478 . S
C5292 C5294 1.381 . S
C5292 C5298 1.383 . S
C5293 C5289 1.495 . S
C5293 H5299 0.959 . S
C5293 H5300 0.961 . S
C5293 H5301 0.960 . S
C5294 C5292 1.381 . S
C5294 C5295 1.394 . S
C5294 H5302 0.930 . S
C5295 C5294 1.394 . S
C5295 C5296 1.383 . S
C5295 H5303 0.929 . S
C5296 C5295 1.383 . S
C5296 C5297 1.377 . S
C5297 H5281 0.930 . S
C5297 C5296 1.377 . S
C5297 C5298 1.379 . S
C5298 H5282 0.931 . S
C5298 C5292 1.383 . S
C5298 C5297 1.379 . S
H5299 C5293 0.959 . S
H5300 C5293 0.961 . S
H5301 C5293 0.960 . S
H5302 C5294 0.930 . S
H5303 C5295 0.929 . S
H5304 C5312 0.929 . S
H5305 C5314 0.930 . S
H5306 C5316 0.930 . S
H5307 C5319 0.929 . S
H5308 C5322 0.930 . S
H5309 C5324 0.960 . S
H5310 C5324 0.960 . S
H5311 C5324 0.960 . S
C5312 H5304 0.929 . S
C5312 C5313 1.377 . S
C5312 C5314 1.384 . S
C5313 C5312 1.377 . S
C5313 C5319 1.390 . S
C5314 H5305 0.930 . S
C5314 C5312 1.384 . S
C5314 C5315 1.372 . S
C5315 C5314 1.372 . S
C5315 C5316 1.400 . S
C5315 C5320 1.490 . S
C5316 H5306 0.930 . S
C5316 C5315 1.400 . S
C5316 C5319 1.386 . S
H5317 C5333 0.930 . S
H5318 C5334 0.931 . S
C5319 H5307 0.929 . S
C5319 C5313 1.390 . S
C5319 C5316 1.386 . S
C5320 C5315 1.490 . S
C5320 C5322 1.395 . S
C5320 C5323 1.403 . S
H5321 C5327 0.930 . S
C5322 H5308 0.930 . S
C5322 C5320 1.395 . S
C5322 C5325 1.403 . S
C5323 C5320 1.403 . S
C5323 C5324 1.524 . S
C5323 C5327 1.400 . S
C5324 H5309 0.960 . S
C5324 H5310 0.960 . S
C5324 H5311 0.960 . S
C5324 C5323 1.524 . S
C5325 C5322 1.403 . S
C5325 C5326 1.392 . S
C5325 C5329 1.495 . S
C5326 C5325 1.392 . S
C5326 C5327 1.385 . S
C5326 C5328 1.478 . S
C5327 H5321 0.930 . S
C5327 C5323 1.400 . S
C5327 C5326 1.385 . S
C5328 C5326 1.478 . S
C5328 C5330 1.381 . S
C5328 C5334 1.383 . S
C5329 C5325 1.495 . S
C5329 H5335 0.959 . S
C5329 H5336 0.961 . S
C5329 H5337 0.960 . S
C5330 C5328 1.381 . S
C5330 C5331 1.394 . S
C5330 H5338 0.930 . S
C5331 C5330 1.394 . S
C5331 C5332 1.383 . S
C5331 H5339 0.929 . S
C5332 C5331 1.383 . S
C5332 C5333 1.377 . S
C5333 H5317 0.930 . S
C5333 C5332 1.377 . S
C5333 C5334 1.379 . S
C5334 H5318 0.931 . S
C5334 C5328 1.383 . S
C5334 C5333 1.379 . S
H5335 C5329 0.959 . S
H5336 C5329 0.961 . S
H5337 C5329 0.960 . S
H5338 C5330 0.930 . S
H5339 C5331 0.929 . S
H5340 C5348 0.929 . S
H5341 C5350 0.930 . S
H5342 C5352 0.930 . S
H5343 C5355 0.929 . S
H5344 C5358 0.930 . S
H5345 C5360 0.960 . S
H5346 C5360 0.960 . S
H5347 C5360 0.960 . S
C5348 H5340 0.929 . S
C5348 C5349 1.377 . S
C5348 C5350 1.384 . S
C5349 C5348 1.377 . S
C5349 C5355 1.390 . S
C5350 H5341 0.930 . S
C5350 C5348 1.384 . S
C5350 C5351 1.372 . S
C5351 C5350 1.372 . S
C5351 C5352 1.400 . S
C5351 C5356 1.490 . S
C5352 H5342 0.930 . S
C5352 C5351 1.400 . S
C5352 C5355 1.386 . S
H5353 C5369 0.930 . S
H5354 C5370 0.931 . S
C5355 H5343 0.929 . S
C5355 C5349 1.390 . S
C5355 C5352 1.386 . S
C5356 C5351 1.490 . S
C5356 C5358 1.395 . S
C5356 C5359 1.403 . S
H5357 C5363 0.930 . S
C5358 H5344 0.930 . S
C5358 C5356 1.395 . S
C5358 C5361 1.403 . S
C5359 C5356 1.403 . S
C5359 C5360 1.524 . S
C5359 C5363 1.400 . S
C5360 H5345 0.960 . S
C5360 H5346 0.960 . S
C5360 H5347 0.960 . S
C5360 C5359 1.524 . S
C5361 C5358 1.403 . S
C5361 C5362 1.392 . S
C5361 C5365 1.495 . S
C5362 C5361 1.392 . S
C5362 C5363 1.385 . S
C5362 C5364 1.478 . S
C5363 H5357 0.930 . S
C5363 C5359 1.400 . S
C5363 C5362 1.385 . S
C5364 C5362 1.478 . S
C5364 C5366 1.381 . S
C5364 C5370 1.383 . S
C5365 C5361 1.495 . S
C5365 H5371 0.959 . S
C5365 H5372 0.961 . S
C5365 H5373 0.960 . S
C5366 C5364 1.381 . S
C5366 C5367 1.394 . S
C5366 H5374 0.930 . S
C5367 C5366 1.394 . S
C5367 C5368 1.383 . S
C5367 H5375 0.929 . S
C5368 C5367 1.383 . S
C5368 C5369 1.377 . S
C5369 H5353 0.930 . S
C5369 C5368 1.377 . S
C5369 C5370 1.379 . S
C5370 H5354 0.931 . S
C5370 C5364 1.383 . S
C5370 C5369 1.379 . S
H5371 C5365 0.959 . S
H5372 C5365 0.961 . S
H5373 C5365 0.960 . S
H5374 C5366 0.930 . S
H5375 C5367 0.929 . S
H5376 C5384 0.929 . S
H5377 C5386 0.930 . S
H5378 C5388 0.930 . S
H5379 C5391 0.929 . S
H5380 C5394 0.930 . S
H5381 C5396 0.960 . S
H5382 C5396 0.960 . S
H5383 C5396 0.960 . S
C5384 H5376 0.929 . S
C5384 C5385 1.377 . S
C5384 C5386 1.384 . S
C5385 C5384 1.377 . S
C5385 C5391 1.390 . S
C5386 H5377 0.930 . S
C5386 C5384 1.384 . S
C5386 C5387 1.372 . S
C5387 C5386 1.372 . S
C5387 C5388 1.400 . S
C5387 C5392 1.490 . S
C5388 H5378 0.930 . S
C5388 C5387 1.400 . S
C5388 C5391 1.386 . S
H5389 C5405 0.930 . S
H5390 C5406 0.931 . S
C5391 H5379 0.929 . S
C5391 C5385 1.390 . S
C5391 C5388 1.386 . S
C5392 C5387 1.490 . S
C5392 C5394 1.395 . S
C5392 C5395 1.403 . S
H5393 C5399 0.930 . S
C5394 H5380 0.930 . S
C5394 C5392 1.395 . S
C5394 C5397 1.403 . S
C5395 C5392 1.403 . S
C5395 C5396 1.524 . S
C5395 C5399 1.400 . S
C5396 H5381 0.960 . S
C5396 H5382 0.960 . S
C5396 H5383 0.960 . S
C5396 C5395 1.524 . S
C5397 C5394 1.403 . S
C5397 C5398 1.392 . S
C5397 C5401 1.495 . S
C5398 C5397 1.392 . S
C5398 C5399 1.385 . S
C5398 C5400 1.478 . S
C5399 H5393 0.930 . S
C5399 C5395 1.400 . S
C5399 C5398 1.385 . S
C5400 C5398 1.478 . S
C5400 C5402 1.381 . S
C5400 C5406 1.383 . S
C5401 C5397 1.495 . S
C5401 H5407 0.959 . S
C5401 H5408 0.961 . S
C5401 H5409 0.960 . S
C5402 C5400 1.381 . S
C5402 C5403 1.394 . S
C5402 H5410 0.930 . S
C5403 C5402 1.394 . S
C5403 C5404 1.383 . S
C5403 H5411 0.929 . S
C5404 C5403 1.383 . S
C5404 C5405 1.377 . S
C5405 H5389 0.930 . S
C5405 C5404 1.377 . S
C5405 C5406 1.379 . S
C5406 H5390 0.931 . S
C5406 C5400 1.383 . S
C5406 C5405 1.379 . S
H5407 C5401 0.959 . S
H5408 C5401 0.961 . S
H5409 C5401 0.960 . S
H5410 C5402 0.930 . S
H5411 C5403 0.929 . S
H5412 C5420 0.929 . S
H5413 C5422 0.930 . S
H5414 C5424 0.930 . S
H5415 C5427 0.929 . S
H5416 C5430 0.930 . S
H5417 C5432 0.960 . S
H5418 C5432 0.960 . S
H5419 C5432 0.960 . S
C5420 H5412 0.929 . S
C5420 C5421 1.377 . S
C5420 C5422 1.384 . S
C5421 C5420 1.377 . S
C5421 C5427 1.390 . S
C5422 H5413 0.930 . S
C5422 C5420 1.384 . S
C5422 C5423 1.372 . S
C5423 C5422 1.372 . S
C5423 C5424 1.400 . S
C5423 C5428 1.490 . S
C5424 H5414 0.930 . S
C5424 C5423 1.400 . S
C5424 C5427 1.386 . S
H5425 C5441 0.930 . S
H5426 C5442 0.931 . S
C5427 H5415 0.929 . S
C5427 C5421 1.390 . S
C5427 C5424 1.386 . S
C5428 C5423 1.490 . S
C5428 C5430 1.395 . S
C5428 C5431 1.403 . S
H5429 C5435 0.930 . S
C5430 H5416 0.930 . S
C5430 C5428 1.395 . S
C5430 C5433 1.403 . S
C5431 C5428 1.403 . S
C5431 C5432 1.524 . S
C5431 C5435 1.400 . S
C5432 H5417 0.960 . S
C5432 H5418 0.960 . S
C5432 H5419 0.960 . S
C5432 C5431 1.524 . S
C5433 C5430 1.403 . S
C5433 C5434 1.392 . S
C5433 C5437 1.495 . S
C5434 C5433 1.392 . S
C5434 C5435 1.385 . S
C5434 C5436 1.478 . S
C5435 H5429 0.930 . S
C5435 C5431 1.400 . S
C5435 C5434 1.385 . S
C5436 C5434 1.478 . S
C5436 C5438 1.381 . S
C5436 C5442 1.383 . S
C5437 C5433 1.495 . S
C5437 H5443 0.959 . S
C5437 H5444 0.961 . S
C5437 H5445 0.960 . S
C5438 C5436 1.381 . S
C5438 C5439 1.394 . S
C5438 H5446 0.930 . S
C5439 C5438 1.394 . S
C5439 C5440 1.383 . S
C5439 H5447 0.929 . S
C5440 C5439 1.383 . S
C5440 C5441 1.377 . S
C5441 H5425 0.930 . S
C5441 C5440 1.377 . S
C5441 C5442 1.379 . S
C5442 H5426 0.931 . S
C5442 C5436 1.383 . S
C5442 C5441 1.379 . S
H5443 C5437 0.959 . S
H5444 C5437 0.961 . S
H5445 C5437 0.960 . S
H5446 C5438 0.930 . S
H5447 C5439 0.929 . S
H5448 C5456 0.929 . S
H5449 C5458 0.930 . S
H5450 C5460 0.930 . S
H5451 C5463 0.929 . S
H5452 C5466 0.930 . S
H5453 C5468 0.960 . S
H5454 C5468 0.960 . S
H5455 C5468 0.960 . S
C5456 H5448 0.929 . S
C5456 C5457 1.377 . S
C5456 C5458 1.384 . S
C5457 C5456 1.377 . S
C5457 C5463 1.390 . S
C5458 H5449 0.930 . S
C5458 C5456 1.384 . S
C5458 C5459 1.372 . S
C5459 C5458 1.372 . S
C5459 C5460 1.400 . S
C5459 C5464 1.490 . S
C5460 H5450 0.930 . S
C5460 C5459 1.400 . S
C5460 C5463 1.386 . S
H5461 C5477 0.930 . S
H5462 C5478 0.931 . S
C5463 H5451 0.929 . S
C5463 C5457 1.390 . S
C5463 C5460 1.386 . S
C5464 C5459 1.490 . S
C5464 C5466 1.395 . S
C5464 C5467 1.403 . S
H5465 C5471 0.930 . S
C5466 H5452 0.930 . S
C5466 C5464 1.395 . S
C5466 C5469 1.403 . S
C5467 C5464 1.403 . S
C5467 C5468 1.524 . S
C5467 C5471 1.400 . S
C5468 H5453 0.960 . S
C5468 H5454 0.960 . S
C5468 H5455 0.960 . S
C5468 C5467 1.524 . S
C5469 C5466 1.403 . S
C5469 C5470 1.392 . S
C5469 C5473 1.495 . S
C5470 C5469 1.392 . S
C5470 C5471 1.385 . S
C5470 C5472 1.478 . S
C5471 H5465 0.930 . S
C5471 C5467 1.400 . S
C5471 C5470 1.385 . S
C5472 C5470 1.478 . S
C5472 C5474 1.381 . S
C5472 C5478 1.383 . S
C5473 C5469 1.495 . S
C5473 H5479 0.959 . S
C5473 H5480 0.961 . S
C5473 H5481 0.960 . S
C5474 C5472 1.381 . S
C5474 C5475 1.394 . S
C5474 H5482 0.930 . S
C5475 C5474 1.394 . S
C5475 C5476 1.383 . S
C5475 H5483 0.929 . S
C5476 C5475 1.383 . S
C5476 C5477 1.377 . S
C5477 H5461 0.930 . S
C5477 C5476 1.377 . S
C5477 C5478 1.379 . S
C5478 H5462 0.931 . S
C5478 C5472 1.383 . S
C5478 C5477 1.379 . S
H5479 C5473 0.959 . S
H5480 C5473 0.961 . S
H5481 C5473 0.960 . S
H5482 C5474 0.930 . S
H5483 C5475 0.929 . S
H5484 C5492 0.929 . S
H5485 C5494 0.930 . S
H5486 C5496 0.930 . S
H5487 C5499 0.929 . S
H5488 C5502 0.930 . S
H5489 C5504 0.960 . S
H5490 C5504 0.960 . S
H5491 C5504 0.960 . S
C5492 H5484 0.929 . S
C5492 C5493 1.377 . S
C5492 C5494 1.384 . S
C5493 C5492 1.377 . S
C5493 C5499 1.390 . S
C5494 H5485 0.930 . S
C5494 C5492 1.384 . S
C5494 C5495 1.372 . S
C5495 C5494 1.372 . S
C5495 C5496 1.400 . S
C5495 C5500 1.490 . S
C5496 H5486 0.930 . S
C5496 C5495 1.400 . S
C5496 C5499 1.386 . S
H5497 C5513 0.930 . S
H5498 C5514 0.931 . S
C5499 H5487 0.929 . S
C5499 C5493 1.390 . S
C5499 C5496 1.386 . S
C5500 C5495 1.490 . S
C5500 C5502 1.395 . S
C5500 C5503 1.403 . S
H5501 C5507 0.930 . S
C5502 H5488 0.930 . S
C5502 C5500 1.395 . S
C5502 C5505 1.403 . S
C5503 C5500 1.403 . S
C5503 C5504 1.524 . S
C5503 C5507 1.400 . S
C5504 H5489 0.960 . S
C5504 H5490 0.960 . S
C5504 H5491 0.960 . S
C5504 C5503 1.524 . S
C5505 C5502 1.403 . S
C5505 C5506 1.392 . S
C5505 C5509 1.495 . S
C5506 C5505 1.392 . S
C5506 C5507 1.385 . S
C5506 C5508 1.478 . S
C5507 H5501 0.930 . S
C5507 C5503 1.400 . S
C5507 C5506 1.385 . S
C5508 C5506 1.478 . S
C5508 C5510 1.381 . S
C5508 C5514 1.383 . S
C5509 C5505 1.495 . S
C5509 H5515 0.959 . S
C5509 H5516 0.961 . S
C5509 H5517 0.960 . S
C5510 C5508 1.381 . S
C5510 C5511 1.394 . S
C5510 H5518 0.930 . S
C5511 C5510 1.394 . S
C5511 C5512 1.383 . S
C5511 H5519 0.929 . S
C5512 C5511 1.383 . S
C5512 C5513 1.377 . S
C5513 H5497 0.930 . S
C5513 C5512 1.377 . S
C5513 C5514 1.379 . S
C5514 H5498 0.931 . S
C5514 C5508 1.383 . S
C5514 C5513 1.379 . S
H5515 C5509 0.959 . S
H5516 C5509 0.961 . S
H5517 C5509 0.960 . S
H5518 C5510 0.930 . S
H5519 C5511 0.929 . S
H5520 C5528 0.929 . S
H5521 C5530 0.930 . S
H5522 C5532 0.930 . S
H5523 C5535 0.929 . S
H5524 C5538 0.930 . S
H5525 C5540 0.960 . S
H5526 C5540 0.960 . S
H5527 C5540 0.960 . S
C5528 H5520 0.929 . S
C5528 C5529 1.377 . S
C5528 C5530 1.384 . S
C5529 C5528 1.377 . S
C5529 C5535 1.390 . S
C5530 H5521 0.930 . S
C5530 C5528 1.384 . S
C5530 C5531 1.372 . S
C5531 C5530 1.372 . S
C5531 C5532 1.400 . S
C5531 C5536 1.490 . S
C5532 H5522 0.930 . S
C5532 C5531 1.400 . S
C5532 C5535 1.386 . S
H5533 C5549 0.930 . S
H5534 C5550 0.931 . S
C5535 H5523 0.929 . S
C5535 C5529 1.390 . S
C5535 C5532 1.386 . S
C5536 C5531 1.490 . S
C5536 C5538 1.395 . S
C5536 C5539 1.403 . S
H5537 C5543 0.930 . S
C5538 H5524 0.930 . S
C5538 C5536 1.395 . S
C5538 C5541 1.403 . S
C5539 C5536 1.403 . S
C5539 C5540 1.524 . S
C5539 C5543 1.400 . S
C5540 H5525 0.960 . S
C5540 H5526 0.960 . S
C5540 H5527 0.960 . S
C5540 C5539 1.524 . S
C5541 C5538 1.403 . S
C5541 C5542 1.392 . S
C5541 C5545 1.495 . S
C5542 C5541 1.392 . S
C5542 C5543 1.385 . S
C5542 C5544 1.478 . S
C5543 H5537 0.930 . S
C5543 C5539 1.400 . S
C5543 C5542 1.385 . S
C5544 C5542 1.478 . S
C5544 C5546 1.381 . S
C5544 C5550 1.383 . S
C5545 C5541 1.495 . S
C5545 H5551 0.959 . S
C5545 H5552 0.961 . S
C5545 H5553 0.960 . S
C5546 C5544 1.381 . S
C5546 C5547 1.394 . S
C5546 H5554 0.930 . S
C5547 C5546 1.394 . S
C5547 C5548 1.383 . S
C5547 H5555 0.929 . S
C5548 C5547 1.383 . S
C5548 C5549 1.377 . S
C5549 H5533 0.930 . S
C5549 C5548 1.377 . S
C5549 C5550 1.379 . S
C5550 H5534 0.931 . S
C5550 C5544 1.383 . S
C5550 C5549 1.379 . S
H5551 C5545 0.959 . S
H5552 C5545 0.961 . S
H5553 C5545 0.960 . S
H5554 C5546 0.930 . S
H5555 C5547 0.929 . S
H5556 C5564 0.929 . S
H5557 C5566 0.930 . S
H5558 C5568 0.930 . S
H5559 C5571 0.929 . S
H5560 C5574 0.930 . S
H5561 C5576 0.960 . S
H5562 C5576 0.960 . S
H5563 C5576 0.960 . S
C5564 H5556 0.929 . S
C5564 C5565 1.377 . S
C5564 C5566 1.384 . S
C5565 C5564 1.377 . S
C5565 C5571 1.390 . S
C5566 H5557 0.930 . S
C5566 C5564 1.384 . S
C5566 C5567 1.372 . S
C5567 C5566 1.372 . S
C5567 C5568 1.400 . S
C5567 C5572 1.490 . S
C5568 H5558 0.930 . S
C5568 C5567 1.400 . S
C5568 C5571 1.386 . S
H5569 C5585 0.930 . S
H5570 C5586 0.931 . S
C5571 H5559 0.929 . S
C5571 C5565 1.390 . S
C5571 C5568 1.386 . S
C5572 C5567 1.490 . S
C5572 C5574 1.395 . S
C5572 C5575 1.403 . S
H5573 C5579 0.930 . S
C5574 H5560 0.930 . S
C5574 C5572 1.395 . S
C5574 C5577 1.403 . S
C5575 C5572 1.403 . S
C5575 C5576 1.524 . S
C5575 C5579 1.400 . S
C5576 H5561 0.960 . S
C5576 H5562 0.960 . S
C5576 H5563 0.960 . S
C5576 C5575 1.524 . S
C5577 C5574 1.403 . S
C5577 C5578 1.392 . S
C5577 C5581 1.495 . S
C5578 C5577 1.392 . S
C5578 C5579 1.385 . S
C5578 C5580 1.478 . S
C5579 H5573 0.930 . S
C5579 C5575 1.400 . S
C5579 C5578 1.385 . S
C5580 C5578 1.478 . S
C5580 C5582 1.381 . S
C5580 C5586 1.383 . S
C5581 C5577 1.495 . S
C5581 H5587 0.959 . S
C5581 H5588 0.961 . S
C5581 H5589 0.960 . S
C5582 C5580 1.381 . S
C5582 C5583 1.394 . S
C5582 H5590 0.930 . S
C5583 C5582 1.394 . S
C5583 C5584 1.383 . S
C5583 H5591 0.929 . S
C5584 C5583 1.383 . S
C5584 C5585 1.377 . S
C5585 H5569 0.930 . S
C5585 C5584 1.377 . S
C5585 C5586 1.379 . S
C5586 H5570 0.931 . S
C5586 C5580 1.383 . S
C5586 C5585 1.379 . S
H5587 C5581 0.959 . S
H5588 C5581 0.961 . S
H5589 C5581 0.960 . S
H5590 C5582 0.930 . S
H5591 C5583 0.929 . S
H5592 C5600 0.929 . S
H5593 C5602 0.930 . S
H5594 C5604 0.930 . S
H5595 C5607 0.929 . S
H5596 C5610 0.930 . S
H5597 C5612 0.960 . S
H5598 C5612 0.960 . S
H5599 C5612 0.960 . S
C5600 H5592 0.929 . S
C5600 C5601 1.377 . S
C5600 C5602 1.384 . S
C5601 C5600 1.377 . S
C5601 C5607 1.390 . S
C5602 H5593 0.930 . S
C5602 C5600 1.384 . S
C5602 C5603 1.372 . S
C5603 C5602 1.372 . S
C5603 C5604 1.400 . S
C5603 C5608 1.490 . S
C5604 H5594 0.930 . S
C5604 C5603 1.400 . S
C5604 C5607 1.386 . S
H5605 C5621 0.930 . S
H5606 C5622 0.931 . S
C5607 H5595 0.929 . S
C5607 C5601 1.390 . S
C5607 C5604 1.386 . S
C5608 C5603 1.490 . S
C5608 C5610 1.395 . S
C5608 C5611 1.403 . S
H5609 C5615 0.930 . S
C5610 H5596 0.930 . S
C5610 C5608 1.395 . S
C5610 C5613 1.403 . S
C5611 C5608 1.403 . S
C5611 C5612 1.524 . S
C5611 C5615 1.400 . S
C5612 H5597 0.960 . S
C5612 H5598 0.960 . S
C5612 H5599 0.960 . S
C5612 C5611 1.524 . S
C5613 C5610 1.403 . S
C5613 C5614 1.392 . S
C5613 C5617 1.495 . S
C5614 C5613 1.392 . S
C5614 C5615 1.385 . S
C5614 C5616 1.478 . S
C5615 H5609 0.930 . S
C5615 C5611 1.400 . S
C5615 C5614 1.385 . S
C5616 C5614 1.478 . S
C5616 C5618 1.381 . S
C5616 C5622 1.383 . S
C5617 C5613 1.495 . S
C5617 H5623 0.959 . S
C5617 H5624 0.961 . S
C5617 H5625 0.960 . S
C5618 C5616 1.381 . S
C5618 C5619 1.394 . S
C5618 H5626 0.930 . S
C5619 C5618 1.394 . S
C5619 C5620 1.383 . S
C5619 H5627 0.929 . S
C5620 C5619 1.383 . S
C5620 C5621 1.377 . S
C5621 H5605 0.930 . S
C5621 C5620 1.377 . S
C5621 C5622 1.379 . S
C5622 H5606 0.931 . S
C5622 C5616 1.383 . S
C5622 C5621 1.379 . S
H5623 C5617 0.959 . S
H5624 C5617 0.961 . S
H5625 C5617 0.960 . S
H5626 C5618 0.930 . S
H5627 C5619 0.929 . S
H5628 C5636 0.929 . S
H5629 C5638 0.930 . S
H5630 C5640 0.930 . S
H5631 C5643 0.929 . S
H5632 C5646 0.930 . S
H5633 C5648 0.960 . S
H5634 C5648 0.960 . S
H5635 C5648 0.960 . S
C5636 H5628 0.929 . S
C5636 C5637 1.377 . S
C5636 C5638 1.384 . S
C5637 C5636 1.377 . S
C5637 C5643 1.390 . S
C5638 H5629 0.930 . S
C5638 C5636 1.384 . S
C5638 C5639 1.372 . S
C5639 C5638 1.372 . S
C5639 C5640 1.400 . S
C5639 C5644 1.490 . S
C5640 H5630 0.930 . S
C5640 C5639 1.400 . S
C5640 C5643 1.386 . S
H5641 C5657 0.930 . S
H5642 C5658 0.931 . S
C5643 H5631 0.929 . S
C5643 C5637 1.390 . S
C5643 C5640 1.386 . S
C5644 C5639 1.490 . S
C5644 C5646 1.395 . S
C5644 C5647 1.403 . S
H5645 C5651 0.930 . S
C5646 H5632 0.930 . S
C5646 C5644 1.395 . S
C5646 C5649 1.403 . S
C5647 C5644 1.403 . S
C5647 C5648 1.524 . S
C5647 C5651 1.400 . S
C5648 H5633 0.960 . S
C5648 H5634 0.960 . S
C5648 H5635 0.960 . S
C5648 C5647 1.524 . S
C5649 C5646 1.403 . S
C5649 C5650 1.392 . S
C5649 C5653 1.495 . S
C5650 C5649 1.392 . S
C5650 C5651 1.385 . S
C5650 C5652 1.478 . S
C5651 H5645 0.930 . S
C5651 C5647 1.400 . S
C5651 C5650 1.385 . S
C5652 C5650 1.478 . S
C5652 C5654 1.381 . S
C5652 C5658 1.383 . S
C5653 C5649 1.495 . S
C5653 H5659 0.959 . S
C5653 H5660 0.961 . S
C5653 H5661 0.960 . S
C5654 C5652 1.381 . S
C5654 C5655 1.394 . S
C5654 H5662 0.930 . S
C5655 C5654 1.394 . S
C5655 C5656 1.383 . S
C5655 H5663 0.929 . S
C5656 C5655 1.383 . S
C5656 C5657 1.377 . S
C5657 H5641 0.930 . S
C5657 C5656 1.377 . S
C5657 C5658 1.379 . S
C5658 H5642 0.931 . S
C5658 C5652 1.383 . S
C5658 C5657 1.379 . S
H5659 C5653 0.959 . S
H5660 C5653 0.961 . S
H5661 C5653 0.960 . S
H5662 C5654 0.930 . S
H5663 C5655 0.929 . S
H5664 C5672 0.929 . S
H5665 C5674 0.930 . S
H5666 C5676 0.930 . S
H5667 C5679 0.929 . S
H5668 C5682 0.930 . S
H5669 C5684 0.960 . S
H5670 C5684 0.960 . S
H5671 C5684 0.960 . S
C5672 H5664 0.929 . S
C5672 C5673 1.377 . S
C5672 C5674 1.384 . S
C5673 C5672 1.377 . S
C5673 C5679 1.390 . S
C5674 H5665 0.930 . S
C5674 C5672 1.384 . S
C5674 C5675 1.372 . S
C5675 C5674 1.372 . S
C5675 C5676 1.400 . S
C5675 C5680 1.490 . S
C5676 H5666 0.930 . S
C5676 C5675 1.400 . S
C5676 C5679 1.386 . S
H5677 C5693 0.930 . S
H5678 C5694 0.931 . S
C5679 H5667 0.929 . S
C5679 C5673 1.390 . S
C5679 C5676 1.386 . S
C5680 C5675 1.490 . S
C5680 C5682 1.395 . S
C5680 C5683 1.403 . S
H5681 C5687 0.930 . S
C5682 H5668 0.930 . S
C5682 C5680 1.395 . S
C5682 C5685 1.403 . S
C5683 C5680 1.403 . S
C5683 C5684 1.524 . S
C5683 C5687 1.400 . S
C5684 H5669 0.960 . S
C5684 H5670 0.960 . S
C5684 H5671 0.960 . S
C5684 C5683 1.524 . S
C5685 C5682 1.403 . S
C5685 C5686 1.392 . S
C5685 C5689 1.495 . S
C5686 C5685 1.392 . S
C5686 C5687 1.385 . S
C5686 C5688 1.478 . S
C5687 H5681 0.930 . S
C5687 C5683 1.400 . S
C5687 C5686 1.385 . S
C5688 C5686 1.478 . S
C5688 C5690 1.381 . S
C5688 C5694 1.383 . S
C5689 C5685 1.495 . S
C5689 H5695 0.959 . S
C5689 H5696 0.961 . S
C5689 H5697 0.960 . S
C5690 C5688 1.381 . S
C5690 C5691 1.394 . S
C5690 H5698 0.930 . S
C5691 C5690 1.394 . S
C5691 C5692 1.383 . S
C5691 H5699 0.929 . S
C5692 C5691 1.383 . S
C5692 C5693 1.377 . S
C5693 H5677 0.930 . S
C5693 C5692 1.377 . S
C5693 C5694 1.379 . S
C5694 H5678 0.931 . S
C5694 C5688 1.383 . S
C5694 C5693 1.379 . S
H5695 C5689 0.959 . S
H5696 C5689 0.961 . S
H5697 C5689 0.960 . S
H5698 C5690 0.930 . S
H5699 C5691 0.929 . S
H5700 C5708 0.929 . S
H5701 C5710 0.930 . S
H5702 C5712 0.930 . S
H5703 C5715 0.929 . S
H5704 C5718 0.930 . S
H5705 C5720 0.960 . S
H5706 C5720 0.960 . S
H5707 C5720 0.960 . S
C5708 H5700 0.929 . S
C5708 C5709 1.377 . S
C5708 C5710 1.384 . S
C5709 C5708 1.377 . S
C5709 C5715 1.390 . S
C5710 H5701 0.930 . S
C5710 C5708 1.384 . S
C5710 C5711 1.372 . S
C5711 C5710 1.372 . S
C5711 C5712 1.400 . S
C5711 C5716 1.490 . S
C5712 H5702 0.930 . S
C5712 C5711 1.400 . S
C5712 C5715 1.386 . S
H5713 C5729 0.930 . S
H5714 C5730 0.931 . S
C5715 H5703 0.929 . S
C5715 C5709 1.390 . S
C5715 C5712 1.386 . S
C5716 C5711 1.490 . S
C5716 C5718 1.395 . S
C5716 C5719 1.403 . S
H5717 C5723 0.930 . S
C5718 H5704 0.930 . S
C5718 C5716 1.395 . S
C5718 C5721 1.403 . S
C5719 C5716 1.403 . S
C5719 C5720 1.524 . S
C5719 C5723 1.400 . S
C5720 H5705 0.960 . S
C5720 H5706 0.960 . S
C5720 H5707 0.960 . S
C5720 C5719 1.524 . S
C5721 C5718 1.403 . S
C5721 C5722 1.392 . S
C5721 C5725 1.495 . S
C5722 C5721 1.392 . S
C5722 C5723 1.385 . S
C5722 C5724 1.478 . S
C5723 H5717 0.930 . S
C5723 C5719 1.400 . S
C5723 C5722 1.385 . S
C5724 C5722 1.478 . S
C5724 C5726 1.381 . S
C5724 C5730 1.383 . S
C5725 C5721 1.495 . S
C5725 H5731 0.959 . S
C5725 H5732 0.961 . S
C5725 H5733 0.960 . S
C5726 C5724 1.381 . S
C5726 C5727 1.394 . S
C5726 H5734 0.930 . S
C5727 C5726 1.394 . S
C5727 C5728 1.383 . S
C5727 H5735 0.929 . S
C5728 C5727 1.383 . S
C5728 C5729 1.377 . S
C5729 H5713 0.930 . S
C5729 C5728 1.377 . S
C5729 C5730 1.379 . S
C5730 H5714 0.931 . S
C5730 C5724 1.383 . S
C5730 C5729 1.379 . S
H5731 C5725 0.959 . S
H5732 C5725 0.961 . S
H5733 C5725 0.960 . S
H5734 C5726 0.930 . S
H5735 C5727 0.929 . S
H5736 C5744 0.929 . S
H5737 C5746 0.930 . S
H5738 C5748 0.930 . S
H5739 C5751 0.929 . S
H5740 C5754 0.930 . S
H5741 C5756 0.960 . S
H5742 C5756 0.960 . S
H5743 C5756 0.960 . S
C5744 H5736 0.929 . S
C5744 C5745 1.377 . S
C5744 C5746 1.384 . S
C5745 C5744 1.377 . S
C5745 C5751 1.390 . S
C5746 H5737 0.930 . S
C5746 C5744 1.384 . S
C5746 C5747 1.372 . S
C5747 C5746 1.372 . S
C5747 C5748 1.400 . S
C5747 C5752 1.490 . S
C5748 H5738 0.930 . S
C5748 C5747 1.400 . S
C5748 C5751 1.386 . S
H5749 C5765 0.930 . S
H5750 C5766 0.931 . S
C5751 H5739 0.929 . S
C5751 C5745 1.390 . S
C5751 C5748 1.386 . S
C5752 C5747 1.490 . S
C5752 C5754 1.395 . S
C5752 C5755 1.403 . S
H5753 C5759 0.930 . S
C5754 H5740 0.930 . S
C5754 C5752 1.395 . S
C5754 C5757 1.403 . S
C5755 C5752 1.403 . S
C5755 C5756 1.524 . S
C5755 C5759 1.400 . S
C5756 H5741 0.960 . S
C5756 H5742 0.960 . S
C5756 H5743 0.960 . S
C5756 C5755 1.524 . S
C5757 C5754 1.403 . S
C5757 C5758 1.392 . S
C5757 C5761 1.495 . S
C5758 C5757 1.392 . S
C5758 C5759 1.385 . S
C5758 C5760 1.478 . S
C5759 H5753 0.930 . S
C5759 C5755 1.400 . S
C5759 C5758 1.385 . S
C5760 C5758 1.478 . S
C5760 C5762 1.381 . S
C5760 C5766 1.383 . S
C5761 C5757 1.495 . S
C5761 H5767 0.959 . S
C5761 H5768 0.961 . S
C5761 H5769 0.960 . S
C5762 C5760 1.381 . S
C5762 C5763 1.394 . S
C5762 H5770 0.930 . S
C5763 C5762 1.394 . S
C5763 C5764 1.383 . S
C5763 H5771 0.929 . S
C5764 C5763 1.383 . S
C5764 C5765 1.377 . S
C5765 H5749 0.930 . S
C5765 C5764 1.377 . S
C5765 C5766 1.379 . S
C5766 H5750 0.931 . S
C5766 C5760 1.383 . S
C5766 C5765 1.379 . S
H5767 C5761 0.959 . S
H5768 C5761 0.961 . S
H5769 C5761 0.960 . S
H5770 C5762 0.930 . S
H5771 C5763 0.929 . S
H5772 C5780 0.929 . S
H5773 C5782 0.930 . S
H5774 C5784 0.930 . S
H5775 C5787 0.929 . S
H5776 C5790 0.930 . S
H5777 C5792 0.960 . S
H5778 C5792 0.960 . S
H5779 C5792 0.960 . S
C5780 H5772 0.929 . S
C5780 C5781 1.377 . S
C5780 C5782 1.384 . S
C5781 C5780 1.377 . S
C5781 C5787 1.390 . S
C5782 H5773 0.930 . S
C5782 C5780 1.384 . S
C5782 C5783 1.372 . S
C5783 C5782 1.372 . S
C5783 C5784 1.400 . S
C5783 C5788 1.490 . S
C5784 H5774 0.930 . S
C5784 C5783 1.400 . S
C5784 C5787 1.386 . S
H5785 C5801 0.930 . S
H5786 C5802 0.931 . S
C5787 H5775 0.929 . S
C5787 C5781 1.390 . S
C5787 C5784 1.386 . S
C5788 C5783 1.490 . S
C5788 C5790 1.395 . S
C5788 C5791 1.403 . S
H5789 C5795 0.930 . S
C5790 H5776 0.930 . S
C5790 C5788 1.395 . S
C5790 C5793 1.403 . S
C5791 C5788 1.403 . S
C5791 C5792 1.524 . S
C5791 C5795 1.400 . S
C5792 H5777 0.960 . S
C5792 H5778 0.960 . S
C5792 H5779 0.960 . S
C5792 C5791 1.524 . S
C5793 C5790 1.403 . S
C5793 C5794 1.392 . S
C5793 C5797 1.495 . S
C5794 C5793 1.392 . S
C5794 C5795 1.385 . S
C5794 C5796 1.478 . S
C5795 H5789 0.930 . S
C5795 C5791 1.400 . S
C5795 C5794 1.385 . S
C5796 C5794 1.478 . S
C5796 C5798 1.381 . S
C5796 C5802 1.383 . S
C5797 C5793 1.495 . S
C5797 H5803 0.959 . S
C5797 H5804 0.961 . S
C5797 H5805 0.960 . S
C5798 C5796 1.381 . S
C5798 C5799 1.394 . S
C5798 H5806 0.930 . S
C5799 C5798 1.394 . S
C5799 C5800 1.383 . S
C5799 H5807 0.929 . S
C5800 C5799 1.383 . S
C5800 C5801 1.377 . S
C5801 H5785 0.930 . S
C5801 C5800 1.377 . S
C5801 C5802 1.379 . S
C5802 H5786 0.931 . S
C5802 C5796 1.383 . S
C5802 C5801 1.379 . S
H5803 C5797 0.959 . S
H5804 C5797 0.961 . S
H5805 C5797 0.960 . S
H5806 C5798 0.930 . S
H5807 C5799 0.929 . S
H5808 C5816 0.929 . S
H5809 C5818 0.930 . S
H5810 C5820 0.930 . S
H5811 C5823 0.929 . S
H5812 C5826 0.930 . S
H5813 C5828 0.960 . S
H5814 C5828 0.960 . S
H5815 C5828 0.960 . S
C5816 H5808 0.929 . S
C5816 C5817 1.377 . S
C5816 C5818 1.384 . S
C5817 C5816 1.377 . S
C5817 C5823 1.390 . S
C5818 H5809 0.930 . S
C5818 C5816 1.384 . S
C5818 C5819 1.372 . S
C5819 C5818 1.372 . S
C5819 C5820 1.400 . S
C5819 C5824 1.490 . S
C5820 H5810 0.930 . S
C5820 C5819 1.400 . S
C5820 C5823 1.386 . S
H5821 C5837 0.930 . S
H5822 C5838 0.931 . S
C5823 H5811 0.929 . S
C5823 C5817 1.390 . S
C5823 C5820 1.386 . S
C5824 C5819 1.490 . S
C5824 C5826 1.395 . S
C5824 C5827 1.403 . S
H5825 C5831 0.930 . S
C5826 H5812 0.930 . S
C5826 C5824 1.395 . S
C5826 C5829 1.403 . S
C5827 C5824 1.403 . S
C5827 C5828 1.524 . S
C5827 C5831 1.400 . S
C5828 H5813 0.960 . S
C5828 H5814 0.960 . S
C5828 H5815 0.960 . S
C5828 C5827 1.524 . S
C5829 C5826 1.403 . S
C5829 C5830 1.392 . S
C5829 C5833 1.495 . S
C5830 C5829 1.392 . S
C5830 C5831 1.385 . S
C5830 C5832 1.478 . S
C5831 H5825 0.930 . S
C5831 C5827 1.400 . S
C5831 C5830 1.385 . S
C5832 C5830 1.478 . S
C5832 C5834 1.381 . S
C5832 C5838 1.383 . S
C5833 C5829 1.495 . S
C5833 H5839 0.959 . S
C5833 H5840 0.961 . S
C5833 H5841 0.960 . S
C5834 C5832 1.381 . S
C5834 C5835 1.394 . S
C5834 H5842 0.930 . S
C5835 C5834 1.394 . S
C5835 C5836 1.383 . S
C5835 H5843 0.929 . S
C5836 C5835 1.383 . S
C5836 C5837 1.377 . S
C5837 H5821 0.930 . S
C5837 C5836 1.377 . S
C5837 C5838 1.379 . S
C5838 H5822 0.931 . S
C5838 C5832 1.383 . S
C5838 C5837 1.379 . S
H5839 C5833 0.959 . S
H5840 C5833 0.961 . S
H5841 C5833 0.960 . S
H5842 C5834 0.930 . S
H5843 C5835 0.929 . S
H5844 C5852 0.929 . S
H5845 C5854 0.930 . S
H5846 C5856 0.930 . S
H5847 C5859 0.929 . S
H5848 C5862 0.930 . S
H5849 C5864 0.960 . S
H5850 C5864 0.960 . S
H5851 C5864 0.960 . S
C5852 H5844 0.929 . S
C5852 C5853 1.377 . S
C5852 C5854 1.384 . S
C5853 C5852 1.377 . S
C5853 C5859 1.390 . S
C5854 H5845 0.930 . S
C5854 C5852 1.384 . S
C5854 C5855 1.372 . S
C5855 C5854 1.372 . S
C5855 C5856 1.400 . S
C5855 C5860 1.490 . S
C5856 H5846 0.930 . S
C5856 C5855 1.400 . S
C5856 C5859 1.386 . S
H5857 C5873 0.930 . S
H5858 C5874 0.931 . S
C5859 H5847 0.929 . S
C5859 C5853 1.390 . S
C5859 C5856 1.386 . S
C5860 C5855 1.490 . S
C5860 C5862 1.395 . S
C5860 C5863 1.403 . S
H5861 C5867 0.930 . S
C5862 H5848 0.930 . S
C5862 C5860 1.395 . S
C5862 C5865 1.403 . S
C5863 C5860 1.403 . S
C5863 C5864 1.524 . S
C5863 C5867 1.400 . S
C5864 H5849 0.960 . S
C5864 H5850 0.960 . S
C5864 H5851 0.960 . S
C5864 C5863 1.524 . S
C5865 C5862 1.403 . S
C5865 C5866 1.392 . S
C5865 C5869 1.495 . S
C5866 C5865 1.392 . S
C5866 C5867 1.385 . S
C5866 C5868 1.478 . S
C5867 H5861 0.930 . S
C5867 C5863 1.400 . S
C5867 C5866 1.385 . S
C5868 C5866 1.478 . S
C5868 C5870 1.381 . S
C5868 C5874 1.383 . S
C5869 C5865 1.495 . S
C5869 H5875 0.959 . S
C5869 H5876 0.961 . S
C5869 H5877 0.960 . S
C5870 C5868 1.381 . S
C5870 C5871 1.394 . S
C5870 H5878 0.930 . S
C5871 C5870 1.394 . S
C5871 C5872 1.383 . S
C5871 H5879 0.929 . S
C5872 C5871 1.383 . S
C5872 C5873 1.377 . S
C5873 H5857 0.930 . S
C5873 C5872 1.377 . S
C5873 C5874 1.379 . S
C5874 H5858 0.931 . S
C5874 C5868 1.383 . S
C5874 C5873 1.379 . S
H5875 C5869 0.959 . S
H5876 C5869 0.961 . S
H5877 C5869 0.960 . S
H5878 C5870 0.930 . S
H5879 C5871 0.929 . S
H5880 C5888 0.929 . S
H5881 C5890 0.930 . S
H5882 C5892 0.930 . S
H5883 C5895 0.929 . S
H5884 C5898 0.930 . S
H5885 C5900 0.960 . S
H5886 C5900 0.960 . S
H5887 C5900 0.960 . S
C5888 H5880 0.929 . S
C5888 C5889 1.377 . S
C5888 C5890 1.384 . S
C5889 C5888 1.377 . S
C5889 C5895 1.390 . S
C5890 H5881 0.930 . S
C5890 C5888 1.384 . S
C5890 C5891 1.372 . S
C5891 C5890 1.372 . S
C5891 C5892 1.400 . S
C5891 C5896 1.490 . S
C5892 H5882 0.930 . S
C5892 C5891 1.400 . S
C5892 C5895 1.386 . S
H5893 C5909 0.930 . S
H5894 C5910 0.931 . S
C5895 H5883 0.929 . S
C5895 C5889 1.390 . S
C5895 C5892 1.386 . S
C5896 C5891 1.490 . S
C5896 C5898 1.395 . S
C5896 C5899 1.403 . S
H5897 C5903 0.930 . S
C5898 H5884 0.930 . S
C5898 C5896 1.395 . S
C5898 C5901 1.403 . S
C5899 C5896 1.403 . S
C5899 C5900 1.524 . S
C5899 C5903 1.400 . S
C5900 H5885 0.960 . S
C5900 H5886 0.960 . S
C5900 H5887 0.960 . S
C5900 C5899 1.524 . S
C5901 C5898 1.403 . S
C5901 C5902 1.392 . S
C5901 C5905 1.495 . S
C5902 C5901 1.392 . S
C5902 C5903 1.385 . S
C5902 C5904 1.478 . S
C5903 H5897 0.930 . S
C5903 C5899 1.400 . S
C5903 C5902 1.385 . S
C5904 C5902 1.478 . S
C5904 C5906 1.381 . S
C5904 C5910 1.383 . S
C5905 C5901 1.495 . S
C5905 H5911 0.959 . S
C5905 H5912 0.961 . S
C5905 H5913 0.960 . S
C5906 C5904 1.381 . S
C5906 C5907 1.394 . S
C5906 H5914 0.930 . S
C5907 C5906 1.394 . S
C5907 C5908 1.383 . S
C5907 H5915 0.929 . S
C5908 C5907 1.383 . S
C5908 C5909 1.377 . S
C5909 H5893 0.930 . S
C5909 C5908 1.377 . S
C5909 C5910 1.379 . S
C5910 H5894 0.931 . S
C5910 C5904 1.383 . S
C5910 C5909 1.379 . S
H5911 C5905 0.959 . S
H5912 C5905 0.961 . S
H5913 C5905 0.960 . S
H5914 C5906 0.930 . S
H5915 C5907 0.929 . S
H5916 C5924 0.929 . S
H5917 C5926 0.930 . S
H5918 C5928 0.930 . S
H5919 C5931 0.929 . S
H5920 C5934 0.930 . S
H5921 C5936 0.960 . S
H5922 C5936 0.960 . S
H5923 C5936 0.960 . S
C5924 H5916 0.929 . S
C5924 C5925 1.377 . S
C5924 C5926 1.384 . S
C5925 C5924 1.377 . S
C5925 C5931 1.390 . S
C5926 H5917 0.930 . S
C5926 C5924 1.384 . S
C5926 C5927 1.372 . S
C5927 C5926 1.372 . S
C5927 C5928 1.400 . S
C5927 C5932 1.490 . S
C5928 H5918 0.930 . S
C5928 C5927 1.400 . S
C5928 C5931 1.386 . S
H5929 C5945 0.930 . S
H5930 C5946 0.931 . S
C5931 H5919 0.929 . S
C5931 C5925 1.390 . S
C5931 C5928 1.386 . S
C5932 C5927 1.490 . S
C5932 C5934 1.395 . S
C5932 C5935 1.403 . S
H5933 C5939 0.930 . S
C5934 H5920 0.930 . S
C5934 C5932 1.395 . S
C5934 C5937 1.403 . S
C5935 C5932 1.403 . S
C5935 C5936 1.524 . S
C5935 C5939 1.400 . S
C5936 H5921 0.960 . S
C5936 H5922 0.960 . S
C5936 H5923 0.960 . S
C5936 C5935 1.524 . S
C5937 C5934 1.403 . S
C5937 C5938 1.392 . S
C5937 C5941 1.495 . S
C5938 C5937 1.392 . S
C5938 C5939 1.385 . S
C5938 C5940 1.478 . S
C5939 H5933 0.930 . S
C5939 C5935 1.400 . S
C5939 C5938 1.385 . S
C5940 C5938 1.478 . S
C5940 C5942 1.381 . S
C5940 C5946 1.383 . S
C5941 C5937 1.495 . S
C5941 H5947 0.959 . S
C5941 H5948 0.961 . S
C5941 H5949 0.960 . S
C5942 C5940 1.381 . S
C5942 C5943 1.394 . S
C5942 H5950 0.930 . S
C5943 C5942 1.394 . S
C5943 C5944 1.383 . S
C5943 H5951 0.929 . S
C5944 C5943 1.383 . S
C5944 C5945 1.377 . S
C5945 H5929 0.930 . S
C5945 C5944 1.377 . S
C5945 C5946 1.379 . S
C5946 H5930 0.931 . S
C5946 C5940 1.383 . S
C5946 C5945 1.379 . S
H5947 C5941 0.959 . S
H5948 C5941 0.961 . S
H5949 C5941 0.960 . S
H5950 C5942 0.930 . S
H5951 C5943 0.929 . S
H5952 C5960 0.929 . S
H5953 C5962 0.930 . S
H5954 C5964 0.930 . S
H5955 C5967 0.929 . S
H5956 C5970 0.930 . S
H5957 C5972 0.960 . S
H5958 C5972 0.960 . S
H5959 C5972 0.960 . S
C5960 H5952 0.929 . S
C5960 C5961 1.377 . S
C5960 C5962 1.384 . S
C5961 C5960 1.377 . S
C5961 C5967 1.390 . S
C5962 H5953 0.930 . S
C5962 C5960 1.384 . S
C5962 C5963 1.372 . S
C5963 C5962 1.372 . S
C5963 C5964 1.400 . S
C5963 C5968 1.490 . S
C5964 H5954 0.930 . S
C5964 C5963 1.400 . S
C5964 C5967 1.386 . S
H5965 C5981 0.930 . S
H5966 C5982 0.931 . S
C5967 H5955 0.929 . S
C5967 C5961 1.390 . S
C5967 C5964 1.386 . S
C5968 C5963 1.490 . S
C5968 C5970 1.395 . S
C5968 C5971 1.403 . S
H5969 C5975 0.930 . S
C5970 H5956 0.930 . S
C5970 C5968 1.395 . S
C5970 C5973 1.403 . S
C5971 C5968 1.403 . S
C5971 C5972 1.524 . S
C5971 C5975 1.400 . S
C5972 H5957 0.960 . S
C5972 H5958 0.960 . S
C5972 H5959 0.960 . S
C5972 C5971 1.524 . S
C5973 C5970 1.403 . S
C5973 C5974 1.392 . S
C5973 C5977 1.495 . S
C5974 C5973 1.392 . S
C5974 C5975 1.385 . S
C5974 C5976 1.478 . S
C5975 H5969 0.930 . S
C5975 C5971 1.400 . S
C5975 C5974 1.385 . S
C5976 C5974 1.478 . S
C5976 C5978 1.381 . S
C5976 C5982 1.383 . S
C5977 C5973 1.495 . S
C5977 H5983 0.959 . S
C5977 H5984 0.961 . S
C5977 H5985 0.960 . S
C5978 C5976 1.381 . S
C5978 C5979 1.394 . S
C5978 H5986 0.930 . S
C5979 C5978 1.394 . S
C5979 C5980 1.383 . S
C5979 H5987 0.929 . S
C5980 C5979 1.383 . S
C5980 C5981 1.377 . S
C5981 H5965 0.930 . S
C5981 C5980 1.377 . S
C5981 C5982 1.379 . S
C5982 H5966 0.931 . S
C5982 C5976 1.383 . S
C5982 C5981 1.379 . S
H5983 C5977 0.959 . S
H5984 C5977 0.961 . S
H5985 C5977 0.960 . S
H5986 C5978 0.930 . S
H5987 C5979 0.929 . S
H5988 C5996 0.929 . S
H5989 C5998 0.930 . S
H5990 C6000 0.930 . S
H5991 C6003 0.929 . S
H5992 C6006 0.930 . S
H5993 C6008 0.960 . S
H5994 C6008 0.960 . S
H5995 C6008 0.960 . S
C5996 H5988 0.929 . S
C5996 C5997 1.377 . S
C5996 C5998 1.384 . S
C5997 C5996 1.377 . S
C5997 C6003 1.390 . S
C5998 H5989 0.930 . S
C5998 C5996 1.384 . S
C5998 C5999 1.372 . S
C5999 C5998 1.372 . S
C5999 C6000 1.400 . S
C5999 C6004 1.490 . S
C6000 H5990 0.930 . S
C6000 C5999 1.400 . S
C6000 C6003 1.386 . S
H6001 C6017 0.930 . S
H6002 C6018 0.931 . S
C6003 H5991 0.929 . S
C6003 C5997 1.390 . S
C6003 C6000 1.386 . S
C6004 C5999 1.490 . S
C6004 C6006 1.395 . S
C6004 C6007 1.403 . S
H6005 C6011 0.930 . S
C6006 H5992 0.930 . S
C6006 C6004 1.395 . S
C6006 C6009 1.403 . S
C6007 C6004 1.403 . S
C6007 C6008 1.524 . S
C6007 C6011 1.400 . S
C6008 H5993 0.960 . S
C6008 H5994 0.960 . S
C6008 H5995 0.960 . S
C6008 C6007 1.524 . S
C6009 C6006 1.403 . S
C6009 C6010 1.392 . S
C6009 C6013 1.495 . S
C6010 C6009 1.392 . S
C6010 C6011 1.385 . S
C6010 C6012 1.478 . S
C6011 H6005 0.930 . S
C6011 C6007 1.400 . S
C6011 C6010 1.385 . S
C6012 C6010 1.478 . S
C6012 C6014 1.381 . S
C6012 C6018 1.383 . S
C6013 C6009 1.495 . S
C6013 H6019 0.959 . S
C6013 H6020 0.961 . S
C6013 H6021 0.960 . S
C6014 C6012 1.381 . S
C6014 C6015 1.394 . S
C6014 H6022 0.930 . S
C6015 C6014 1.394 . S
C6015 C6016 1.383 . S
C6015 H6023 0.929 . S
C6016 C6015 1.383 . S
C6016 C6017 1.377 . S
C6017 H6001 0.930 . S
C6017 C6016 1.377 . S
C6017 C6018 1.379 . S
C6018 H6002 0.931 . S
C6018 C6012 1.383 . S
C6018 C6017 1.379 . S
H6019 C6013 0.959 . S
H6020 C6013 0.961 . S
H6021 C6013 0.960 . S
H6022 C6014 0.930 . S
H6023 C6015 0.929 . S
H6024 C6032 0.929 . S
H6025 C6034 0.930 . S
H6026 C6036 0.930 . S
H6027 C6039 0.929 . S
H6028 C6042 0.930 . S
H6029 C6044 0.960 . S
H6030 C6044 0.960 . S
H6031 C6044 0.960 . S
C6032 H6024 0.929 . S
C6032 C6033 1.377 . S
C6032 C6034 1.384 . S
C6033 C6032 1.377 . S
C6033 C6039 1.390 . S
C6034 H6025 0.930 . S
C6034 C6032 1.384 . S
C6034 C6035 1.372 . S
C6035 C6034 1.372 . S
C6035 C6036 1.400 . S
C6035 C6040 1.490 . S
C6036 H6026 0.930 . S
C6036 C6035 1.400 . S
C6036 C6039 1.386 . S
H6037 C6053 0.930 . S
H6038 C6054 0.931 . S
C6039 H6027 0.929 . S
C6039 C6033 1.390 . S
C6039 C6036 1.386 . S
C6040 C6035 1.490 . S
C6040 C6042 1.395 . S
C6040 C6043 1.403 . S
H6041 C6047 0.930 . S
C6042 H6028 0.930 . S
C6042 C6040 1.395 . S
C6042 C6045 1.403 . S
C6043 C6040 1.403 . S
C6043 C6044 1.524 . S
C6043 C6047 1.400 . S
C6044 H6029 0.960 . S
C6044 H6030 0.960 . S
C6044 H6031 0.960 . S
C6044 C6043 1.524 . S
C6045 C6042 1.403 . S
C6045 C6046 1.392 . S
C6045 C6049 1.495 . S
C6046 C6045 1.392 . S
C6046 C6047 1.385 . S
C6046 C6048 1.478 . S
C6047 H6041 0.930 . S
C6047 C6043 1.400 . S
C6047 C6046 1.385 . S
C6048 C6046 1.478 . S
C6048 C6050 1.381 . S
C6048 C6054 1.383 . S
C6049 C6045 1.495 . S
C6049 H6055 0.959 . S
C6049 H6056 0.961 . S
C6049 H6057 0.960 . S
C6050 C6048 1.381 . S
C6050 C6051 1.394 . S
C6050 H6058 0.930 . S
C6051 C6050 1.394 . S
C6051 C6052 1.383 . S
C6051 H6059 0.929 . S
C6052 C6051 1.383 . S
C6052 C6053 1.377 . S
C6053 H6037 0.930 . S
C6053 C6052 1.377 . S
C6053 C6054 1.379 . S
C6054 H6038 0.931 . S
C6054 C6048 1.383 . S
C6054 C6053 1.379 . S
H6055 C6049 0.959 . S
H6056 C6049 0.961 . S
H6057 C6049 0.960 . S
H6058 C6050 0.930 . S
H6059 C6051 0.929 . S
H6060 C6068 0.929 . S
H6061 C6070 0.930 . S
H6062 C6072 0.930 . S
H6063 C6075 0.929 . S
H6064 C6078 0.930 . S
H6065 C6080 0.960 . S
H6066 C6080 0.960 . S
H6067 C6080 0.960 . S
C6068 H6060 0.929 . S
C6068 C6069 1.377 . S
C6068 C6070 1.384 . S
C6069 C6068 1.377 . S
C6069 C6075 1.390 . S
C6070 H6061 0.930 . S
C6070 C6068 1.384 . S
C6070 C6071 1.372 . S
C6071 C6070 1.372 . S
C6071 C6072 1.400 . S
C6071 C6076 1.490 . S
C6072 H6062 0.930 . S
C6072 C6071 1.400 . S
C6072 C6075 1.386 . S
H6073 C6089 0.930 . S
H6074 C6090 0.931 . S
C6075 H6063 0.929 . S
C6075 C6069 1.390 . S
C6075 C6072 1.386 . S
C6076 C6071 1.490 . S
C6076 C6078 1.395 . S
C6076 C6079 1.403 . S
H6077 C6083 0.930 . S
C6078 H6064 0.930 . S
C6078 C6076 1.395 . S
C6078 C6081 1.403 . S
C6079 C6076 1.403 . S
C6079 C6080 1.524 . S
C6079 C6083 1.400 . S
C6080 H6065 0.960 . S
C6080 H6066 0.960 . S
C6080 H6067 0.960 . S
C6080 C6079 1.524 . S
C6081 C6078 1.403 . S
C6081 C6082 1.392 . S
C6081 C6085 1.495 . S
C6082 C6081 1.392 . S
C6082 C6083 1.385 . S
C6082 C6084 1.478 . S
C6083 H6077 0.930 . S
C6083 C6079 1.400 . S
C6083 C6082 1.385 . S
C6084 C6082 1.478 . S
C6084 C6086 1.381 . S
C6084 C6090 1.383 . S
C6085 C6081 1.495 . S
C6085 H6091 0.959 . S
C6085 H6092 0.961 . S
C6085 H6093 0.960 . S
C6086 C6084 1.381 . S
C6086 C6087 1.394 . S
C6086 H6094 0.930 . S
C6087 C6086 1.394 . S
C6087 C6088 1.383 . S
C6087 H6095 0.929 . S
C6088 C6087 1.383 . S
C6088 C6089 1.377 . S
C6089 H6073 0.930 . S
C6089 C6088 1.377 . S
C6089 C6090 1.379 . S
C6090 H6074 0.931 . S
C6090 C6084 1.383 . S
C6090 C6089 1.379 . S
H6091 C6085 0.959 . S
H6092 C6085 0.961 . S
H6093 C6085 0.960 . S
H6094 C6086 0.930 . S
H6095 C6087 0.929 . S
H6096 C6104 0.929 . S
H6097 C6106 0.930 . S
H6098 C6108 0.930 . S
H6099 C6111 0.929 . S
H6100 C6114 0.930 . S
H6101 C6116 0.960 . S
H6102 C6116 0.960 . S
H6103 C6116 0.960 . S
C6104 H6096 0.929 . S
C6104 C6105 1.377 . S
C6104 C6106 1.384 . S
C6105 C6104 1.377 . S
C6105 C6111 1.390 . S
C6106 H6097 0.930 . S
C6106 C6104 1.384 . S
C6106 C6107 1.372 . S
C6107 C6106 1.372 . S
C6107 C6108 1.400 . S
C6107 C6112 1.490 . S
C6108 H6098 0.930 . S
C6108 C6107 1.400 . S
C6108 C6111 1.386 . S
H6109 C6125 0.930 . S
H6110 C6126 0.931 . S
C6111 H6099 0.929 . S
C6111 C6105 1.390 . S
C6111 C6108 1.386 . S
C6112 C6107 1.490 . S
C6112 C6114 1.395 . S
C6112 C6115 1.403 . S
H6113 C6119 0.930 . S
C6114 H6100 0.930 . S
C6114 C6112 1.395 . S
C6114 C6117 1.403 . S
C6115 C6112 1.403 . S
C6115 C6116 1.524 . S
C6115 C6119 1.400 . S
C6116 H6101 0.960 . S
C6116 H6102 0.960 . S
C6116 H6103 0.960 . S
C6116 C6115 1.524 . S
C6117 C6114 1.403 . S
C6117 C6118 1.392 . S
C6117 C6121 1.495 . S
C6118 C6117 1.392 . S
C6118 C6119 1.385 . S
C6118 C6120 1.478 . S
C6119 H6113 0.930 . S
C6119 C6115 1.400 . S
C6119 C6118 1.385 . S
C6120 C6118 1.478 . S
C6120 C6122 1.381 . S
C6120 C6126 1.383 . S
C6121 C6117 1.495 . S
C6121 H6127 0.959 . S
C6121 H6128 0.961 . S
C6121 H6129 0.960 . S
C6122 C6120 1.381 . S
C6122 C6123 1.394 . S
C6122 H6130 0.930 . S
C6123 C6122 1.394 . S
C6123 C6124 1.383 . S
C6123 H6131 0.929 . S
C6124 C6123 1.383 . S
C6124 C6125 1.377 . S
C6125 H6109 0.930 . S
C6125 C6124 1.377 . S
C6125 C6126 1.379 . S
C6126 H6110 0.931 . S
C6126 C6120 1.383 . S
C6126 C6125 1.379 . S
H6127 C6121 0.959 . S
H6128 C6121 0.961 . S
H6129 C6121 0.960 . S
H6130 C6122 0.930 . S
H6131 C6123 0.929 . S
H6132 C6140 0.929 . S
H6133 C6142 0.930 . S
H6134 C6144 0.930 . S
H6135 C6147 0.929 . S
H6136 C6150 0.930 . S
H6137 C6152 0.960 . S
H6138 C6152 0.960 . S
H6139 C6152 0.960 . S
C6140 H6132 0.929 . S
C6140 C6141 1.377 . S
C6140 C6142 1.384 . S
C6141 C6140 1.377 . S
C6141 C6147 1.390 . S
C6142 H6133 0.930 . S
C6142 C6140 1.384 . S
C6142 C6143 1.372 . S
C6143 C6142 1.372 . S
C6143 C6144 1.400 . S
C6143 C6148 1.490 . S
C6144 H6134 0.930 . S
C6144 C6143 1.400 . S
C6144 C6147 1.386 . S
H6145 C6161 0.930 . S
H6146 C6162 0.931 . S
C6147 H6135 0.929 . S
C6147 C6141 1.390 . S
C6147 C6144 1.386 . S
C6148 C6143 1.490 . S
C6148 C6150 1.395 . S
C6148 C6151 1.403 . S
H6149 C6155 0.930 . S
C6150 H6136 0.930 . S
C6150 C6148 1.395 . S
C6150 C6153 1.403 . S
C6151 C6148 1.403 . S
C6151 C6152 1.524 . S
C6151 C6155 1.400 . S
C6152 H6137 0.960 . S
C6152 H6138 0.960 . S
C6152 H6139 0.960 . S
C6152 C6151 1.524 . S
C6153 C6150 1.403 . S
C6153 C6154 1.392 . S
C6153 C6157 1.495 . S
C6154 C6153 1.392 . S
C6154 C6155 1.385 . S
C6154 C6156 1.478 . S
C6155 H6149 0.930 . S
C6155 C6151 1.400 . S
C6155 C6154 1.385 . S
C6156 C6154 1.478 . S
C6156 C6158 1.381 . S
C6156 C6162 1.383 . S
C6157 C6153 1.495 . S
C6157 H6163 0.959 . S
C6157 H6164 0.961 . S
C6157 H6165 0.960 . S
C6158 C6156 1.381 . S
C6158 C6159 1.394 . S
C6158 H6166 0.930 . S
C6159 C6158 1.394 . S
C6159 C6160 1.383 . S
C6159 H6167 0.929 . S
C6160 C6159 1.383 . S
C6160 C6161 1.377 . S
C6161 H6145 0.930 . S
C6161 C6160 1.377 . S
C6161 C6162 1.379 . S
C6162 H6146 0.931 . S
C6162 C6156 1.383 . S
C6162 C6161 1.379 . S
H6163 C6157 0.959 . S
H6164 C6157 0.961 . S
H6165 C6157 0.960 . S
H6166 C6158 0.930 . S
H6167 C6159 0.929 . S
H6168 C6176 0.929 . S
H6169 C6178 0.930 . S
H6170 C6180 0.930 . S
H6171 C6183 0.929 . S
H6172 C6186 0.930 . S
H6173 C6188 0.960 . S
H6174 C6188 0.960 . S
H6175 C6188 0.960 . S
C6176 H6168 0.929 . S
C6176 C6177 1.377 . S
C6176 C6178 1.384 . S
C6177 C6176 1.377 . S
C6177 C6183 1.390 . S
C6178 H6169 0.930 . S
C6178 C6176 1.384 . S
C6178 C6179 1.372 . S
C6179 C6178 1.372 . S
C6179 C6180 1.400 . S
C6179 C6184 1.490 . S
C6180 H6170 0.930 . S
C6180 C6179 1.400 . S
C6180 C6183 1.386 . S
H6181 C6197 0.930 . S
H6182 C6198 0.931 . S
C6183 H6171 0.929 . S
C6183 C6177 1.390 . S
C6183 C6180 1.386 . S
C6184 C6179 1.490 . S
C6184 C6186 1.395 . S
C6184 C6187 1.403 . S
H6185 C6191 0.930 . S
C6186 H6172 0.930 . S
C6186 C6184 1.395 . S
C6186 C6189 1.403 . S
C6187 C6184 1.403 . S
C6187 C6188 1.524 . S
C6187 C6191 1.400 . S
C6188 H6173 0.960 . S
C6188 H6174 0.960 . S
C6188 H6175 0.960 . S
C6188 C6187 1.524 . S
C6189 C6186 1.403 . S
C6189 C6190 1.392 . S
C6189 C6193 1.495 . S
C6190 C6189 1.392 . S
C6190 C6191 1.385 . S
C6190 C6192 1.478 . S
C6191 H6185 0.930 . S
C6191 C6187 1.400 . S
C6191 C6190 1.385 . S
C6192 C6190 1.478 . S
C6192 C6194 1.381 . S
C6192 C6198 1.383 . S
C6193 C6189 1.495 . S
C6193 H6199 0.959 . S
C6193 H6200 0.961 . S
C6193 H6201 0.960 . S
C6194 C6192 1.381 . S
C6194 C6195 1.394 . S
C6194 H6202 0.930 . S
C6195 C6194 1.394 . S
C6195 C6196 1.383 . S
C6195 H6203 0.929 . S
C6196 C6195 1.383 . S
C6196 C6197 1.377 . S
C6197 H6181 0.930 . S
C6197 C6196 1.377 . S
C6197 C6198 1.379 . S
C6198 H6182 0.931 . S
C6198 C6192 1.383 . S
C6198 C6197 1.379 . S
H6199 C6193 0.959 . S
H6200 C6193 0.961 . S
H6201 C6193 0.960 . S
H6202 C6194 0.930 . S
H6203 C6195 0.929 . S
H6204 C6212 0.929 . S
H6205 C6214 0.930 . S
H6206 C6216 0.930 . S
H6207 C6219 0.929 . S
H6208 C6222 0.930 . S
H6209 C6224 0.960 . S
H6210 C6224 0.960 . S
H6211 C6224 0.960 . S
C6212 H6204 0.929 . S
C6212 C6213 1.377 . S
C6212 C6214 1.384 . S
C6213 C6212 1.377 . S
C6213 C6219 1.390 . S
C6214 H6205 0.930 . S
C6214 C6212 1.384 . S
C6214 C6215 1.372 . S
C6215 C6214 1.372 . S
C6215 C6216 1.400 . S
C6215 C6220 1.490 . S
C6216 H6206 0.930 . S
C6216 C6215 1.400 . S
C6216 C6219 1.386 . S
H6217 C6233 0.930 . S
H6218 C6234 0.931 . S
C6219 H6207 0.929 . S
C6219 C6213 1.390 . S
C6219 C6216 1.386 . S
C6220 C6215 1.490 . S
C6220 C6222 1.395 . S
C6220 C6223 1.403 . S
H6221 C6227 0.930 . S
C6222 H6208 0.930 . S
C6222 C6220 1.395 . S
C6222 C6225 1.403 . S
C6223 C6220 1.403 . S
C6223 C6224 1.524 . S
C6223 C6227 1.400 . S
C6224 H6209 0.960 . S
C6224 H6210 0.960 . S
C6224 H6211 0.960 . S
C6224 C6223 1.524 . S
C6225 C6222 1.403 . S
C6225 C6226 1.392 . S
C6225 C6229 1.495 . S
C6226 C6225 1.392 . S
C6226 C6227 1.385 . S
C6226 C6228 1.478 . S
C6227 H6221 0.930 . S
C6227 C6223 1.400 . S
C6227 C6226 1.385 . S
C6228 C6226 1.478 . S
C6228 C6230 1.381 . S
C6228 C6234 1.383 . S
C6229 C6225 1.495 . S
C6229 H6235 0.959 . S
C6229 H6236 0.961 . S
C6229 H6237 0.960 . S
C6230 C6228 1.381 . S
C6230 C6231 1.394 . S
C6230 H6238 0.930 . S
C6231 C6230 1.394 . S
C6231 C6232 1.383 . S
C6231 H6239 0.929 . S
C6232 C6231 1.383 . S
C6232 C6233 1.377 . S
C6233 H6217 0.930 . S
C6233 C6232 1.377 . S
C6233 C6234 1.379 . S
C6234 H6218 0.931 . S
C6234 C6228 1.383 . S
C6234 C6233 1.379 . S
H6235 C6229 0.959 . S
H6236 C6229 0.961 . S
H6237 C6229 0.960 . S
H6238 C6230 0.930 . S
H6239 C6231 0.929 . S
H6240 C6248 0.929 . S
H6241 C6250 0.930 . S
H6242 C6252 0.930 . S
H6243 C6255 0.929 . S
H6244 C6258 0.930 . S
H6245 C6260 0.960 . S
H6246 C6260 0.960 . S
H6247 C6260 0.960 . S
C6248 H6240 0.929 . S
C6248 C6249 1.377 . S
C6248 C6250 1.384 . S
C6249 C6248 1.377 . S
C6249 C6255 1.390 . S
C6250 H6241 0.930 . S
C6250 C6248 1.384 . S
C6250 C6251 1.372 . S
C6251 C6250 1.372 . S
C6251 C6252 1.400 . S
C6251 C6256 1.490 . S
C6252 H6242 0.930 . S
C6252 C6251 1.400 . S
C6252 C6255 1.386 . S
H6253 C6269 0.930 . S
H6254 C6270 0.931 . S
C6255 H6243 0.929 . S
C6255 C6249 1.390 . S
C6255 C6252 1.386 . S
C6256 C6251 1.490 . S
C6256 C6258 1.395 . S
C6256 C6259 1.403 . S
H6257 C6263 0.930 . S
C6258 H6244 0.930 . S
C6258 C6256 1.395 . S
C6258 C6261 1.403 . S
C6259 C6256 1.403 . S
C6259 C6260 1.524 . S
C6259 C6263 1.400 . S
C6260 H6245 0.960 . S
C6260 H6246 0.960 . S
C6260 H6247 0.960 . S
C6260 C6259 1.524 . S
C6261 C6258 1.403 . S
C6261 C6262 1.392 . S
C6261 C6265 1.495 . S
C6262 C6261 1.392 . S
C6262 C6263 1.385 . S
C6262 C6264 1.478 . S
C6263 H6257 0.930 . S
C6263 C6259 1.400 . S
C6263 C6262 1.385 . S
C6264 C6262 1.478 . S
C6264 C6266 1.381 . S
C6264 C6270 1.383 . S
C6265 C6261 1.495 . S
C6265 H6271 0.959 . S
C6265 H6272 0.961 . S
C6265 H6273 0.960 . S
C6266 C6264 1.381 . S
C6266 C6267 1.394 . S
C6266 H6274 0.930 . S
C6267 C6266 1.394 . S
C6267 C6268 1.383 . S
C6267 H6275 0.929 . S
C6268 C6267 1.383 . S
C6268 C6269 1.377 . S
C6269 H6253 0.930 . S
C6269 C6268 1.377 . S
C6269 C6270 1.379 . S
C6270 H6254 0.931 . S
C6270 C6264 1.383 . S
C6270 C6269 1.379 . S
H6271 C6265 0.959 . S
H6272 C6265 0.961 . S
H6273 C6265 0.960 . S
H6274 C6266 0.930 . S
H6275 C6267 0.929 . S
H6276 C6284 0.929 . S
H6277 C6286 0.930 . S
H6278 C6288 0.930 . S
H6279 C6291 0.929 . S
H6280 C6294 0.930 . S
H6281 C6296 0.960 . S
H6282 C6296 0.960 . S
H6283 C6296 0.960 . S
C6284 H6276 0.929 . S
C6284 C6285 1.377 . S
C6284 C6286 1.384 . S
C6285 C6284 1.377 . S
C6285 C6291 1.390 . S
C6286 H6277 0.930 . S
C6286 C6284 1.384 . S
C6286 C6287 1.372 . S
C6287 C6286 1.372 . S
C6287 C6288 1.400 . S
C6287 C6292 1.490 . S
C6288 H6278 0.930 . S
C6288 C6287 1.400 . S
C6288 C6291 1.386 . S
H6289 C6305 0.930 . S
H6290 C6306 0.931 . S
C6291 H6279 0.929 . S
C6291 C6285 1.390 . S
C6291 C6288 1.386 . S
C6292 C6287 1.490 . S
C6292 C6294 1.395 . S
C6292 C6295 1.403 . S
H6293 C6299 0.930 . S
C6294 H6280 0.930 . S
C6294 C6292 1.395 . S
C6294 C6297 1.403 . S
C6295 C6292 1.403 . S
C6295 C6296 1.524 . S
C6295 C6299 1.400 . S
C6296 H6281 0.960 . S
C6296 H6282 0.960 . S
C6296 H6283 0.960 . S
C6296 C6295 1.524 . S
C6297 C6294 1.403 . S
C6297 C6298 1.392 . S
C6297 C6301 1.495 . S
C6298 C6297 1.392 . S
C6298 C6299 1.385 . S
C6298 C6300 1.478 . S
C6299 H6293 0.930 . S
C6299 C6295 1.400 . S
C6299 C6298 1.385 . S
C6300 C6298 1.478 . S
C6300 C6302 1.381 . S
C6300 C6306 1.383 . S
C6301 C6297 1.495 . S
C6301 H6307 0.959 . S
C6301 H6308 0.961 . S
C6301 H6309 0.960 . S
C6302 C6300 1.381 . S
C6302 C6303 1.394 . S
C6302 H6310 0.930 . S
C6303 C6302 1.394 . S
C6303 C6304 1.383 . S
C6303 H6311 0.929 . S
C6304 C6303 1.383 . S
C6304 C6305 1.377 . S
C6305 H6289 0.930 . S
C6305 C6304 1.377 . S
C6305 C6306 1.379 . S
C6306 H6290 0.931 . S
C6306 C6300 1.383 . S
C6306 C6305 1.379 . S
H6307 C6301 0.959 . S
H6308 C6301 0.961 . S
H6309 C6301 0.960 . S
H6310 C6302 0.930 . S
H6311 C6303 0.929 . S
H6312 C6320 0.929 . S
H6313 C6322 0.930 . S
H6314 C6324 0.930 . S
H6315 C6327 0.929 . S
H6316 C6330 0.930 . S
H6317 C6332 0.960 . S
H6318 C6332 0.960 . S
H6319 C6332 0.960 . S
C6320 H6312 0.929 . S
C6320 C6321 1.377 . S
C6320 C6322 1.384 . S
C6321 C6320 1.377 . S
C6321 C6327 1.390 . S
C6322 H6313 0.930 . S
C6322 C6320 1.384 . S
C6322 C6323 1.372 . S
C6323 C6322 1.372 . S
C6323 C6324 1.400 . S
C6323 C6328 1.490 . S
C6324 H6314 0.930 . S
C6324 C6323 1.400 . S
C6324 C6327 1.386 . S
H6325 C6341 0.930 . S
H6326 C6342 0.931 . S
C6327 H6315 0.929 . S
C6327 C6321 1.390 . S
C6327 C6324 1.386 . S
C6328 C6323 1.490 . S
C6328 C6330 1.395 . S
C6328 C6331 1.403 . S
H6329 C6335 0.930 . S
C6330 H6316 0.930 . S
C6330 C6328 1.395 . S
C6330 C6333 1.403 . S
C6331 C6328 1.403 . S
C6331 C6332 1.524 . S
C6331 C6335 1.400 . S
C6332 H6317 0.960 . S
C6332 H6318 0.960 . S
C6332 H6319 0.960 . S
C6332 C6331 1.524 . S
C6333 C6330 1.403 . S
C6333 C6334 1.392 . S
C6333 C6337 1.495 . S
C6334 C6333 1.392 . S
C6334 C6335 1.385 . S
C6334 C6336 1.478 . S
C6335 H6329 0.930 . S
C6335 C6331 1.400 . S
C6335 C6334 1.385 . S
C6336 C6334 1.478 . S
C6336 C6338 1.381 . S
C6336 C6342 1.383 . S
C6337 C6333 1.495 . S
C6337 H6343 0.959 . S
C6337 H6344 0.961 . S
C6337 H6345 0.960 . S
C6338 C6336 1.381 . S
C6338 C6339 1.394 . S
C6338 H6346 0.930 . S
C6339 C6338 1.394 . S
C6339 C6340 1.383 . S
C6339 H6347 0.929 . S
C6340 C6339 1.383 . S
C6340 C6341 1.377 . S
C6341 H6325 0.930 . S
C6341 C6340 1.377 . S
C6341 C6342 1.379 . S
C6342 H6326 0.931 . S
C6342 C6336 1.383 . S
C6342 C6341 1.379 . S
H6343 C6337 0.959 . S
H6344 C6337 0.961 . S
H6345 C6337 0.960 . S
H6346 C6338 0.930 . S
H6347 C6339 0.929 . S
H6348 C6356 0.929 . S
H6349 C6358 0.930 . S
H6350 C6360 0.930 . S
H6351 C6363 0.929 . S
H6352 C6366 0.930 . S
H6353 C6368 0.960 . S
H6354 C6368 0.960 . S
H6355 C6368 0.960 . S
C6356 H6348 0.929 . S
C6356 C6357 1.377 . S
C6356 C6358 1.384 . S
C6357 C6356 1.377 . S
C6357 C6363 1.390 . S
C6358 H6349 0.930 . S
C6358 C6356 1.384 . S
C6358 C6359 1.372 . S
C6359 C6358 1.372 . S
C6359 C6360 1.400 . S
C6359 C6364 1.490 . S
C6360 H6350 0.930 . S
C6360 C6359 1.400 . S
C6360 C6363 1.386 . S
H6361 C6377 0.930 . S
H6362 C6378 0.931 . S
C6363 H6351 0.929 . S
C6363 C6357 1.390 . S
C6363 C6360 1.386 . S
C6364 C6359 1.490 . S
C6364 C6366 1.395 . S
C6364 C6367 1.403 . S
H6365 C6371 0.930 . S
C6366 H6352 0.930 . S
C6366 C6364 1.395 . S
C6366 C6369 1.403 . S
C6367 C6364 1.403 . S
C6367 C6368 1.524 . S
C6367 C6371 1.400 . S
C6368 H6353 0.960 . S
C6368 H6354 0.960 . S
C6368 H6355 0.960 . S
C6368 C6367 1.524 . S
C6369 C6366 1.403 . S
C6369 C6370 1.392 . S
C6369 C6373 1.495 . S
C6370 C6369 1.392 . S
C6370 C6371 1.385 . S
C6370 C6372 1.478 . S
C6371 H6365 0.930 . S
C6371 C6367 1.400 . S
C6371 C6370 1.385 . S
C6372 C6370 1.478 . S
C6372 C6374 1.381 . S
C6372 C6378 1.383 . S
C6373 C6369 1.495 . S
C6373 H6379 0.959 . S
C6373 H6380 0.961 . S
C6373 H6381 0.960 . S
C6374 C6372 1.381 . S
C6374 C6375 1.394 . S
C6374 H6382 0.930 . S
C6375 C6374 1.394 . S
C6375 C6376 1.383 . S
C6375 H6383 0.929 . S
C6376 C6375 1.383 . S
C6376 C6377 1.377 . S
C6377 H6361 0.930 . S
C6377 C6376 1.377 . S
C6377 C6378 1.379 . S
C6378 H6362 0.931 . S
C6378 C6372 1.383 . S
C6378 C6377 1.379 . S
H6379 C6373 0.959 . S
H6380 C6373 0.961 . S
H6381 C6373 0.960 . S
H6382 C6374 0.930 . S
H6383 C6375 0.929 . S
H6384 C6392 0.929 . S
H6385 C6394 0.930 . S
H6386 C6396 0.930 . S
H6387 C6399 0.929 . S
H6388 C6402 0.930 . S
H6389 C6404 0.960 . S
H6390 C6404 0.960 . S
H6391 C6404 0.960 . S
C6392 H6384 0.929 . S
C6392 C6393 1.377 . S
C6392 C6394 1.384 . S
C6393 C6392 1.377 . S
C6393 C6399 1.390 . S
C6394 H6385 0.930 . S
C6394 C6392 1.384 . S
C6394 C6395 1.372 . S
C6395 C6394 1.372 . S
C6395 C6396 1.400 . S
C6395 C6400 1.490 . S
C6396 H6386 0.930 . S
C6396 C6395 1.400 . S
C6396 C6399 1.386 . S
H6397 C6413 0.930 . S
H6398 C6414 0.931 . S
C6399 H6387 0.929 . S
C6399 C6393 1.390 . S
C6399 C6396 1.386 . S
C6400 C6395 1.490 . S
C6400 C6402 1.395 . S
C6400 C6403 1.403 . S
H6401 C6407 0.930 . S
C6402 H6388 0.930 . S
C6402 C6400 1.395 . S
C6402 C6405 1.403 . S
C6403 C6400 1.403 . S
C6403 C6404 1.524 . S
C6403 C6407 1.400 . S
C6404 H6389 0.960 . S
C6404 H6390 0.960 . S
C6404 H6391 0.960 . S
C6404 C6403 1.524 . S
C6405 C6402 1.403 . S
C6405 C6406 1.392 . S
C6405 C6409 1.495 . S
C6406 C6405 1.392 . S
C6406 C6407 1.385 . S
C6406 C6408 1.478 . S
C6407 H6401 0.930 . S
C6407 C6403 1.400 . S
C6407 C6406 1.385 . S
C6408 C6406 1.478 . S
C6408 C6410 1.381 . S
C6408 C6414 1.383 . S
C6409 C6405 1.495 . S
C6409 H6415 0.959 . S
C6409 H6416 0.961 . S
C6409 H6417 0.960 . S
C6410 C6408 1.381 . S
C6410 C6411 1.394 . S
C6410 H6418 0.930 . S
C6411 C6410 1.394 . S
C6411 C6412 1.383 . S
C6411 H6419 0.929 . S
C6412 C6411 1.383 . S
C6412 C6413 1.377 . S
C6413 H6397 0.930 . S
C6413 C6412 1.377 . S
C6413 C6414 1.379 . S
C6414 H6398 0.931 . S
C6414 C6408 1.383 . S
C6414 C6413 1.379 . S
H6415 C6409 0.959 . S
H6416 C6409 0.961 . S
H6417 C6409 0.960 . S
H6418 C6410 0.930 . S
H6419 C6411 0.929 . S
H6420 C6428 0.929 . S
H6421 C6430 0.930 . S
H6422 C6432 0.930 . S
H6423 C6435 0.929 . S
H6424 C6438 0.930 . S
H6425 C6440 0.960 . S
H6426 C6440 0.960 . S
H6427 C6440 0.960 . S
C6428 H6420 0.929 . S
C6428 C6429 1.377 . S
C6428 C6430 1.384 . S
C6429 C6428 1.377 . S
C6429 C6435 1.390 . S
C6430 H6421 0.930 . S
C6430 C6428 1.384 . S
C6430 C6431 1.372 . S
C6431 C6430 1.372 . S
C6431 C6432 1.400 . S
C6431 C6436 1.490 . S
C6432 H6422 0.930 . S
C6432 C6431 1.400 . S
C6432 C6435 1.386 . S
H6433 C6449 0.930 . S
H6434 C6450 0.931 . S
C6435 H6423 0.929 . S
C6435 C6429 1.390 . S
C6435 C6432 1.386 . S
C6436 C6431 1.490 . S
C6436 C6438 1.395 . S
C6436 C6439 1.403 . S
H6437 C6443 0.930 . S
C6438 H6424 0.930 . S
C6438 C6436 1.395 . S
C6438 C6441 1.403 . S
C6439 C6436 1.403 . S
C6439 C6440 1.524 . S
C6439 C6443 1.400 . S
C6440 H6425 0.960 . S
C6440 H6426 0.960 . S
C6440 H6427 0.960 . S
C6440 C6439 1.524 . S
C6441 C6438 1.403 . S
C6441 C6442 1.392 . S
C6441 C6445 1.495 . S
C6442 C6441 1.392 . S
C6442 C6443 1.385 . S
C6442 C6444 1.478 . S
C6443 H6437 0.930 . S
C6443 C6439 1.400 . S
C6443 C6442 1.385 . S
C6444 C6442 1.478 . S
C6444 C6446 1.381 . S
C6444 C6450 1.383 . S
C6445 C6441 1.495 . S
C6445 H6451 0.959 . S
C6445 H6452 0.961 . S
C6445 H6453 0.960 . S
C6446 C6444 1.381 . S
C6446 C6447 1.394 . S
C6446 H6454 0.930 . S
C6447 C6446 1.394 . S
C6447 C6448 1.383 . S
C6447 H6455 0.929 . S
C6448 C6447 1.383 . S
C6448 C6449 1.377 . S
C6449 H6433 0.930 . S
C6449 C6448 1.377 . S
C6449 C6450 1.379 . S
C6450 H6434 0.931 . S
C6450 C6444 1.383 . S
C6450 C6449 1.379 . S
H6451 C6445 0.959 . S
H6452 C6445 0.961 . S
H6453 C6445 0.960 . S
H6454 C6446 0.930 . S
H6455 C6447 0.929 . S
H6456 C6464 0.929 . S
H6457 C6466 0.930 . S
H6458 C6468 0.930 . S
H6459 C6471 0.929 . S
H6460 C6474 0.930 . S
H6461 C6476 0.960 . S
H6462 C6476 0.960 . S
H6463 C6476 0.960 . S
C6464 H6456 0.929 . S
C6464 C6465 1.377 . S
C6464 C6466 1.384 . S
C6465 C6464 1.377 . S
C6465 C6471 1.390 . S
C6466 H6457 0.930 . S
C6466 C6464 1.384 . S
C6466 C6467 1.372 . S
C6467 C6466 1.372 . S
C6467 C6468 1.400 . S
C6467 C6472 1.490 . S
C6468 H6458 0.930 . S
C6468 C6467 1.400 . S
C6468 C6471 1.386 . S
H6469 C6485 0.930 . S
H6470 C6486 0.931 . S
C6471 H6459 0.929 . S
C6471 C6465 1.390 . S
C6471 C6468 1.386 . S
C6472 C6467 1.490 . S
C6472 C6474 1.395 . S
C6472 C6475 1.403 . S
H6473 C6479 0.930 . S
C6474 H6460 0.930 . S
C6474 C6472 1.395 . S
C6474 C6477 1.403 . S
C6475 C6472 1.403 . S
C6475 C6476 1.524 . S
C6475 C6479 1.400 . S
C6476 H6461 0.960 . S
C6476 H6462 0.960 . S
C6476 H6463 0.960 . S
C6476 C6475 1.524 . S
C6477 C6474 1.403 . S
C6477 C6478 1.392 . S
C6477 C6481 1.495 . S
C6478 C6477 1.392 . S
C6478 C6479 1.385 . S
C6478 C6480 1.478 . S
C6479 H6473 0.930 . S
C6479 C6475 1.400 . S
C6479 C6478 1.385 . S
C6480 C6478 1.478 . S
C6480 C6482 1.381 . S
C6480 C6486 1.383 . S
C6481 C6477 1.495 . S
C6481 H6487 0.959 . S
C6481 H6488 0.961 . S
C6481 H6489 0.960 . S
C6482 C6480 1.381 . S
C6482 C6483 1.394 . S
C6482 H6490 0.930 . S
C6483 C6482 1.394 . S
C6483 C6484 1.383 . S
C6483 H6491 0.929 . S
C6484 C6483 1.383 . S
C6484 C6485 1.377 . S
C6485 H6469 0.930 . S
C6485 C6484 1.377 . S
C6485 C6486 1.379 . S
C6486 H6470 0.931 . S
C6486 C6480 1.383 . S
C6486 C6485 1.379 . S
H6487 C6481 0.959 . S
H6488 C6481 0.961 . S
H6489 C6481 0.960 . S
H6490 C6482 0.930 . S
H6491 C6483 0.929 . S
H6492 C6500 0.929 . S
H6493 C6502 0.930 . S
H6494 C6504 0.930 . S
H6495 C6507 0.929 . S
H6496 C6510 0.930 . S
H6497 C6512 0.960 . S
H6498 C6512 0.960 . S
H6499 C6512 0.960 . S
C6500 H6492 0.929 . S
C6500 C6501 1.377 . S
C6500 C6502 1.384 . S
C6501 C6500 1.377 . S
C6501 C6507 1.390 . S
C6502 H6493 0.930 . S
C6502 C6500 1.384 . S
C6502 C6503 1.372 . S
C6503 C6502 1.372 . S
C6503 C6504 1.400 . S
C6503 C6508 1.490 . S
C6504 H6494 0.930 . S
C6504 C6503 1.400 . S
C6504 C6507 1.386 . S
H6505 C6521 0.930 . S
H6506 C6522 0.931 . S
C6507 H6495 0.929 . S
C6507 C6501 1.390 . S
C6507 C6504 1.386 . S
C6508 C6503 1.490 . S
C6508 C6510 1.395 . S
C6508 C6511 1.403 . S
H6509 C6515 0.930 . S
C6510 H6496 0.930 . S
C6510 C6508 1.395 . S
C6510 C6513 1.403 . S
C6511 C6508 1.403 . S
C6511 C6512 1.524 . S
C6511 C6515 1.400 . S
C6512 H6497 0.960 . S
C6512 H6498 0.960 . S
C6512 H6499 0.960 . S
C6512 C6511 1.524 . S
C6513 C6510 1.403 . S
C6513 C6514 1.392 . S
C6513 C6517 1.495 . S
C6514 C6513 1.392 . S
C6514 C6515 1.385 . S
C6514 C6516 1.478 . S
C6515 H6509 0.930 . S
C6515 C6511 1.400 . S
C6515 C6514 1.385 . S
C6516 C6514 1.478 . S
C6516 C6518 1.381 . S
C6516 C6522 1.383 . S
C6517 C6513 1.495 . S
C6517 H6523 0.959 . S
C6517 H6524 0.961 . S
C6517 H6525 0.960 . S
C6518 C6516 1.381 . S
C6518 C6519 1.394 . S
C6518 H6526 0.930 . S
C6519 C6518 1.394 . S
C6519 C6520 1.383 . S
C6519 H6527 0.929 . S
C6520 C6519 1.383 . S
C6520 C6521 1.377 . S
C6521 H6505 0.930 . S
C6521 C6520 1.377 . S
C6521 C6522 1.379 . S
C6522 H6506 0.931 . S
C6522 C6516 1.383 . S
C6522 C6521 1.379 . S
H6523 C6517 0.959 . S
H6524 C6517 0.961 . S
H6525 C6517 0.960 . S
H6526 C6518 0.930 . S
H6527 C6519 0.929 . S
H6528 C6536 0.929 . S
H6529 C6538 0.930 . S
H6530 C6540 0.930 . S
H6531 C6543 0.929 . S
H6532 C6546 0.930 . S
H6533 C6548 0.960 . S
H6534 C6548 0.960 . S
H6535 C6548 0.960 . S
C6536 H6528 0.929 . S
C6536 C6537 1.377 . S
C6536 C6538 1.384 . S
C6537 C6536 1.377 . S
C6537 C6543 1.390 . S
C6538 H6529 0.930 . S
C6538 C6536 1.384 . S
C6538 C6539 1.372 . S
C6539 C6538 1.372 . S
C6539 C6540 1.400 . S
C6539 C6544 1.490 . S
C6540 H6530 0.930 . S
C6540 C6539 1.400 . S
C6540 C6543 1.386 . S
H6541 C6557 0.930 . S
H6542 C6558 0.931 . S
C6543 H6531 0.929 . S
C6543 C6537 1.390 . S
C6543 C6540 1.386 . S
C6544 C6539 1.490 . S
C6544 C6546 1.395 . S
C6544 C6547 1.403 . S
H6545 C6551 0.930 . S
C6546 H6532 0.930 . S
C6546 C6544 1.395 . S
C6546 C6549 1.403 . S
C6547 C6544 1.403 . S
C6547 C6548 1.524 . S
C6547 C6551 1.400 . S
C6548 H6533 0.960 . S
C6548 H6534 0.960 . S
C6548 H6535 0.960 . S
C6548 C6547 1.524 . S
C6549 C6546 1.403 . S
C6549 C6550 1.392 . S
C6549 C6553 1.495 . S
C6550 C6549 1.392 . S
C6550 C6551 1.385 . S
C6550 C6552 1.478 . S
C6551 H6545 0.930 . S
C6551 C6547 1.400 . S
C6551 C6550 1.385 . S
C6552 C6550 1.478 . S
C6552 C6554 1.381 . S
C6552 C6558 1.383 . S
C6553 C6549 1.495 . S
C6553 H6559 0.959 . S
C6553 H6560 0.961 . S
C6553 H6561 0.960 . S
C6554 C6552 1.381 . S
C6554 C6555 1.394 . S
C6554 H6562 0.930 . S
C6555 C6554 1.394 . S
C6555 C6556 1.383 . S
C6555 H6563 0.929 . S
C6556 C6555 1.383 . S
C6556 C6557 1.377 . S
C6557 H6541 0.930 . S
C6557 C6556 1.377 . S
C6557 C6558 1.379 . S
C6558 H6542 0.931 . S
C6558 C6552 1.383 . S
C6558 C6557 1.379 . S
H6559 C6553 0.959 . S
H6560 C6553 0.961 . S
H6561 C6553 0.960 . S
H6562 C6554 0.930 . S
H6563 C6555 0.929 . S
H6564 C6572 0.929 . S
H6565 C6574 0.930 . S
H6566 C6576 0.930 . S
H6567 C6579 0.929 . S
H6568 C6582 0.930 . S
H6569 C6584 0.960 . S
H6570 C6584 0.960 . S
H6571 C6584 0.960 . S
C6572 H6564 0.929 . S
C6572 C6573 1.377 . S
C6572 C6574 1.384 . S
C6573 C6572 1.377 . S
C6573 C6579 1.390 . S
C6574 H6565 0.930 . S
C6574 C6572 1.384 . S
C6574 C6575 1.372 . S
C6575 C6574 1.372 . S
C6575 C6576 1.400 . S
C6575 C6580 1.490 . S
C6576 H6566 0.930 . S
C6576 C6575 1.400 . S
C6576 C6579 1.386 . S
H6577 C6593 0.930 . S
H6578 C6594 0.931 . S
C6579 H6567 0.929 . S
C6579 C6573 1.390 . S
C6579 C6576 1.386 . S
C6580 C6575 1.490 . S
C6580 C6582 1.395 . S
C6580 C6583 1.403 . S
H6581 C6587 0.930 . S
C6582 H6568 0.930 . S
C6582 C6580 1.395 . S
C6582 C6585 1.403 . S
C6583 C6580 1.403 . S
C6583 C6584 1.524 . S
C6583 C6587 1.400 . S
C6584 H6569 0.960 . S
C6584 H6570 0.960 . S
C6584 H6571 0.960 . S
C6584 C6583 1.524 . S
C6585 C6582 1.403 . S
C6585 C6586 1.392 . S
C6585 C6589 1.495 . S
C6586 C6585 1.392 . S
C6586 C6587 1.385 . S
C6586 C6588 1.478 . S
C6587 H6581 0.930 . S
C6587 C6583 1.400 . S
C6587 C6586 1.385 . S
C6588 C6586 1.478 . S
C6588 C6590 1.381 . S
C6588 C6594 1.383 . S
C6589 C6585 1.495 . S
C6589 H6595 0.959 . S
C6589 H6596 0.961 . S
C6589 H6597 0.960 . S
C6590 C6588 1.381 . S
C6590 C6591 1.394 . S
C6590 H6598 0.930 . S
C6591 C6590 1.394 . S
C6591 C6592 1.383 . S
C6591 H6599 0.929 . S
C6592 C6591 1.383 . S
C6592 C6593 1.377 . S
C6593 H6577 0.930 . S
C6593 C6592 1.377 . S
C6593 C6594 1.379 . S
C6594 H6578 0.931 . S
C6594 C6588 1.383 . S
C6594 C6593 1.379 . S
H6595 C6589 0.959 . S
H6596 C6589 0.961 . S
H6597 C6589 0.960 . S
H6598 C6590 0.930 . S
H6599 C6591 0.929 . S
H6600 C6608 0.929 . S
H6601 C6610 0.930 . S
H6602 C6612 0.930 . S
H6603 C6615 0.929 . S
H6604 C6618 0.930 . S
H6605 C6620 0.960 . S
H6606 C6620 0.960 . S
H6607 C6620 0.960 . S
C6608 H6600 0.929 . S
C6608 C6609 1.377 . S
C6608 C6610 1.384 . S
C6609 C6608 1.377 . S
C6609 C6615 1.390 . S
C6610 H6601 0.930 . S
C6610 C6608 1.384 . S
C6610 C6611 1.372 . S
C6611 C6610 1.372 . S
C6611 C6612 1.400 . S
C6611 C6616 1.490 . S
C6612 H6602 0.930 . S
C6612 C6611 1.400 . S
C6612 C6615 1.386 . S
H6613 C6629 0.930 . S
H6614 C6630 0.931 . S
C6615 H6603 0.929 . S
C6615 C6609 1.390 . S
C6615 C6612 1.386 . S
C6616 C6611 1.490 . S
C6616 C6618 1.395 . S
C6616 C6619 1.403 . S
H6617 C6623 0.930 . S
C6618 H6604 0.930 . S
C6618 C6616 1.395 . S
C6618 C6621 1.403 . S
C6619 C6616 1.403 . S
C6619 C6620 1.524 . S
C6619 C6623 1.400 . S
C6620 H6605 0.960 . S
C6620 H6606 0.960 . S
C6620 H6607 0.960 . S
C6620 C6619 1.524 . S
C6621 C6618 1.403 . S
C6621 C6622 1.392 . S
C6621 C6625 1.495 . S
C6622 C6621 1.392 . S
C6622 C6623 1.385 . S
C6622 C6624 1.478 . S
C6623 H6617 0.930 . S
C6623 C6619 1.400 . S
C6623 C6622 1.385 . S
C6624 C6622 1.478 . S
C6624 C6626 1.381 . S
C6624 C6630 1.383 . S
C6625 C6621 1.495 . S
C6625 H6631 0.959 . S
C6625 H6632 0.961 . S
C6625 H6633 0.960 . S
C6626 C6624 1.381 . S
C6626 C6627 1.394 . S
C6626 H6634 0.930 . S
C6627 C6626 1.394 . S
C6627 C6628 1.383 . S
C6627 H6635 0.929 . S
C6628 C6627 1.383 . S
C6628 C6629 1.377 . S
C6629 H6613 0.930 . S
C6629 C6628 1.377 . S
C6629 C6630 1.379 . S
C6630 H6614 0.931 . S
C6630 C6624 1.383 . S
C6630 C6629 1.379 . S
H6631 C6625 0.959 . S
H6632 C6625 0.961 . S
H6633 C6625 0.960 . S
H6634 C6626 0.930 . S
H6635 C6627 0.929 . S
H6636 C6644 0.929 . S
H6637 C6646 0.930 . S
H6638 C6648 0.930 . S
H6639 C6651 0.929 . S
H6640 C6654 0.930 . S
H6641 C6656 0.960 . S
H6642 C6656 0.960 . S
H6643 C6656 0.960 . S
C6644 H6636 0.929 . S
C6644 C6645 1.377 . S
C6644 C6646 1.384 . S
C6645 C6644 1.377 . S
C6645 C6651 1.390 . S
C6646 H6637 0.930 . S
C6646 C6644 1.384 . S
C6646 C6647 1.372 . S
C6647 C6646 1.372 . S
C6647 C6648 1.400 . S
C6647 C6652 1.490 . S
C6648 H6638 0.930 . S
C6648 C6647 1.400 . S
C6648 C6651 1.386 . S
H6649 C6665 0.930 . S
H6650 C6666 0.931 . S
C6651 H6639 0.929 . S
C6651 C6645 1.390 . S
C6651 C6648 1.386 . S
C6652 C6647 1.490 . S
C6652 C6654 1.395 . S
C6652 C6655 1.403 . S
H6653 C6659 0.930 . S
C6654 H6640 0.930 . S
C6654 C6652 1.395 . S
C6654 C6657 1.403 . S
C6655 C6652 1.403 . S
C6655 C6656 1.524 . S
C6655 C6659 1.400 . S
C6656 H6641 0.960 . S
C6656 H6642 0.960 . S
C6656 H6643 0.960 . S
C6656 C6655 1.524 . S
C6657 C6654 1.403 . S
C6657 C6658 1.392 . S
C6657 C6661 1.495 . S
C6658 C6657 1.392 . S
C6658 C6659 1.385 . S
C6658 C6660 1.478 . S
C6659 H6653 0.930 . S
C6659 C6655 1.400 . S
C6659 C6658 1.385 . S
C6660 C6658 1.478 . S
C6660 C6662 1.381 . S
C6660 C6666 1.383 . S
C6661 C6657 1.495 . S
C6661 H6667 0.959 . S
C6661 H6668 0.961 . S
C6661 H6669 0.960 . S
C6662 C6660 1.381 . S
C6662 C6663 1.394 . S
C6662 H6670 0.930 . S
C6663 C6662 1.394 . S
C6663 C6664 1.383 . S
C6663 H6671 0.929 . S
C6664 C6663 1.383 . S
C6664 C6665 1.377 . S
C6665 H6649 0.930 . S
C6665 C6664 1.377 . S
C6665 C6666 1.379 . S
C6666 H6650 0.931 . S
C6666 C6660 1.383 . S
C6666 C6665 1.379 . S
H6667 C6661 0.959 . S
H6668 C6661 0.961 . S
H6669 C6661 0.960 . S
H6670 C6662 0.930 . S
H6671 C6663 0.929 . S
H6672 C6680 0.929 . S
H6673 C6682 0.930 . S
H6674 C6684 0.930 . S
H6675 C6687 0.929 . S
H6676 C6690 0.930 . S
H6677 C6692 0.960 . S
H6678 C6692 0.960 . S
H6679 C6692 0.960 . S
C6680 H6672 0.929 . S
C6680 C6681 1.377 . S
C6680 C6682 1.384 . S
C6681 C6680 1.377 . S
C6681 C6687 1.390 . S
C6682 H6673 0.930 . S
C6682 C6680 1.384 . S
C6682 C6683 1.372 . S
C6683 C6682 1.372 . S
C6683 C6684 1.400 . S
C6683 C6688 1.490 . S
C6684 H6674 0.930 . S
C6684 C6683 1.400 . S
C6684 C6687 1.386 . S
H6685 C6701 0.930 . S
H6686 C6702 0.931 . S
C6687 H6675 0.929 . S
C6687 C6681 1.390 . S
C6687 C6684 1.386 . S
C6688 C6683 1.490 . S
C6688 C6690 1.395 . S
C6688 C6691 1.403 . S
H6689 C6695 0.930 . S
C6690 H6676 0.930 . S
C6690 C6688 1.395 . S
C6690 C6693 1.403 . S
C6691 C6688 1.403 . S
C6691 C6692 1.524 . S
C6691 C6695 1.400 . S
C6692 H6677 0.960 . S
C6692 H6678 0.960 . S
C6692 H6679 0.960 . S
C6692 C6691 1.524 . S
C6693 C6690 1.403 . S
C6693 C6694 1.392 . S
C6693 C6697 1.495 . S
C6694 C6693 1.392 . S
C6694 C6695 1.385 . S
C6694 C6696 1.478 . S
C6695 H6689 0.930 . S
C6695 C6691 1.400 . S
C6695 C6694 1.385 . S
C6696 C6694 1.478 . S
C6696 C6698 1.381 . S
C6696 C6702 1.383 . S
C6697 C6693 1.495 . S
C6697 H6703 0.959 . S
C6697 H6704 0.961 . S
C6697 H6705 0.960 . S
C6698 C6696 1.381 . S
C6698 C6699 1.394 . S
C6698 H6706 0.930 . S
C6699 C6698 1.394 . S
C6699 C6700 1.383 . S
C6699 H6707 0.929 . S
C6700 C6699 1.383 . S
C6700 C6701 1.377 . S
C6701 H6685 0.930 . S
C6701 C6700 1.377 . S
C6701 C6702 1.379 . S
C6702 H6686 0.931 . S
C6702 C6696 1.383 . S
C6702 C6701 1.379 . S
H6703 C6697 0.959 . S
H6704 C6697 0.961 . S
H6705 C6697 0.960 . S
H6706 C6698 0.930 . S
H6707 C6699 0.929 . S
H6708 C6716 0.929 . S
H6709 C6718 0.930 . S
H6710 C6720 0.930 . S
H6711 C6723 0.929 . S
H6712 C6726 0.930 . S
H6713 C6728 0.960 . S
H6714 C6728 0.960 . S
H6715 C6728 0.960 . S
C6716 H6708 0.929 . S
C6716 C6717 1.377 . S
C6716 C6718 1.384 . S
C6717 C6716 1.377 . S
C6717 C6723 1.390 . S
C6718 H6709 0.930 . S
C6718 C6716 1.384 . S
C6718 C6719 1.372 . S
C6719 C6718 1.372 . S
C6719 C6720 1.400 . S
C6719 C6724 1.490 . S
C6720 H6710 0.930 . S
C6720 C6719 1.400 . S
C6720 C6723 1.386 . S
H6721 C6737 0.930 . S
H6722 C6738 0.931 . S
C6723 H6711 0.929 . S
C6723 C6717 1.390 . S
C6723 C6720 1.386 . S
C6724 C6719 1.490 . S
C6724 C6726 1.395 . S
C6724 C6727 1.403 . S
H6725 C6731 0.930 . S
C6726 H6712 0.930 . S
C6726 C6724 1.395 . S
C6726 C6729 1.403 . S
C6727 C6724 1.403 . S
C6727 C6728 1.524 . S
C6727 C6731 1.400 . S
C6728 H6713 0.960 . S
C6728 H6714 0.960 . S
C6728 H6715 0.960 . S
C6728 C6727 1.524 . S
C6729 C6726 1.403 . S
C6729 C6730 1.392 . S
C6729 C6733 1.495 . S
C6730 C6729 1.392 . S
C6730 C6731 1.385 . S
C6730 C6732 1.478 . S
C6731 H6725 0.930 . S
C6731 C6727 1.400 . S
C6731 C6730 1.385 . S
C6732 C6730 1.478 . S
C6732 C6734 1.381 . S
C6732 C6738 1.383 . S
C6733 C6729 1.495 . S
C6733 H6739 0.959 . S
C6733 H6740 0.961 . S
C6733 H6741 0.960 . S
C6734 C6732 1.381 . S
C6734 C6735 1.394 . S
C6734 H6742 0.930 . S
C6735 C6734 1.394 . S
C6735 C6736 1.383 . S
C6735 H6743 0.929 . S
C6736 C6735 1.383 . S
C6736 C6737 1.377 . S
C6737 H6721 0.930 . S
C6737 C6736 1.377 . S
C6737 C6738 1.379 . S
C6738 H6722 0.931 . S
C6738 C6732 1.383 . S
C6738 C6737 1.379 . S
H6739 C6733 0.959 . S
H6740 C6733 0.961 . S
H6741 C6733 0.960 . S
H6742 C6734 0.930 . S
H6743 C6735 0.929 . S
H6744 C6752 0.929 . S
H6745 C6754 0.930 . S
H6746 C6756 0.930 . S
H6747 C6759 0.929 . S
H6748 C6762 0.930 . S
H6749 C6764 0.960 . S
H6750 C6764 0.960 . S
H6751 C6764 0.960 . S
C6752 H6744 0.929 . S
C6752 C6753 1.377 . S
C6752 C6754 1.384 . S
C6753 C6752 1.377 . S
C6753 C6759 1.390 . S
C6754 H6745 0.930 . S
C6754 C6752 1.384 . S
C6754 C6755 1.372 . S
C6755 C6754 1.372 . S
C6755 C6756 1.400 . S
C6755 C6760 1.490 . S
C6756 H6746 0.930 . S
C6756 C6755 1.400 . S
C6756 C6759 1.386 . S
H6757 C6773 0.930 . S
H6758 C6774 0.931 . S
C6759 H6747 0.929 . S
C6759 C6753 1.390 . S
C6759 C6756 1.386 . S
C6760 C6755 1.490 . S
C6760 C6762 1.395 . S
C6760 C6763 1.403 . S
H6761 C6767 0.930 . S
C6762 H6748 0.930 . S
C6762 C6760 1.395 . S
C6762 C6765 1.403 . S
C6763 C6760 1.403 . S
C6763 C6764 1.524 . S
C6763 C6767 1.400 . S
C6764 H6749 0.960 . S
C6764 H6750 0.960 . S
C6764 H6751 0.960 . S
C6764 C6763 1.524 . S
C6765 C6762 1.403 . S
C6765 C6766 1.392 . S
C6765 C6769 1.495 . S
C6766 C6765 1.392 . S
C6766 C6767 1.385 . S
C6766 C6768 1.478 . S
C6767 H6761 0.930 . S
C6767 C6763 1.400 . S
C6767 C6766 1.385 . S
C6768 C6766 1.478 . S
C6768 C6770 1.381 . S
C6768 C6774 1.383 . S
C6769 C6765 1.495 . S
C6769 H6775 0.959 . S
C6769 H6776 0.961 . S
C6769 H6777 0.960 . S
C6770 C6768 1.381 . S
C6770 C6771 1.394 . S
C6770 H6778 0.930 . S
C6771 C6770 1.394 . S
C6771 C6772 1.383 . S
C6771 H6779 0.929 . S
C6772 C6771 1.383 . S
C6772 C6773 1.377 . S
C6773 H6757 0.930 . S
C6773 C6772 1.377 . S
C6773 C6774 1.379 . S
C6774 H6758 0.931 . S
C6774 C6768 1.383 . S
C6774 C6773 1.379 . S
H6775 C6769 0.959 . S
H6776 C6769 0.961 . S
H6777 C6769 0.960 . S
H6778 C6770 0.930 . S
H6779 C6771 0.929 . S
H6780 C6788 0.929 . S
H6781 C6790 0.930 . S
H6782 C6792 0.930 . S
H6783 C6795 0.929 . S
H6784 C6798 0.930 . S
H6785 C6800 0.960 . S
H6786 C6800 0.960 . S
H6787 C6800 0.960 . S
C6788 H6780 0.929 . S
C6788 C6789 1.377 . S
C6788 C6790 1.384 . S
C6789 C6788 1.377 . S
C6789 C6795 1.390 . S
C6790 H6781 0.930 . S
C6790 C6788 1.384 . S
C6790 C6791 1.372 . S
C6791 C6790 1.372 . S
C6791 C6792 1.400 . S
C6791 C6796 1.490 . S
C6792 H6782 0.930 . S
C6792 C6791 1.400 . S
C6792 C6795 1.386 . S
H6793 C6809 0.930 . S
H6794 C6810 0.931 . S
C6795 H6783 0.929 . S
C6795 C6789 1.390 . S
C6795 C6792 1.386 . S
C6796 C6791 1.490 . S
C6796 C6798 1.395 . S
C6796 C6799 1.403 . S
H6797 C6803 0.930 . S
C6798 H6784 0.930 . S
C6798 C6796 1.395 . S
C6798 C6801 1.403 . S
C6799 C6796 1.403 . S
C6799 C6800 1.524 . S
C6799 C6803 1.400 . S
C6800 H6785 0.960 . S
C6800 H6786 0.960 . S
C6800 H6787 0.960 . S
C6800 C6799 1.524 . S
C6801 C6798 1.403 . S
C6801 C6802 1.392 . S
C6801 C6805 1.495 . S
C6802 C6801 1.392 . S
C6802 C6803 1.385 . S
C6802 C6804 1.478 . S
C6803 H6797 0.930 . S
C6803 C6799 1.400 . S
C6803 C6802 1.385 . S
C6804 C6802 1.478 . S
C6804 C6806 1.381 . S
C6804 C6810 1.383 . S
C6805 C6801 1.495 . S
C6805 H6811 0.959 . S
C6805 H6812 0.961 . S
C6805 H6813 0.960 . S
C6806 C6804 1.381 . S
C6806 C6807 1.394 . S
C6806 H6814 0.930 . S
C6807 C6806 1.394 . S
C6807 C6808 1.383 . S
C6807 H6815 0.929 . S
C6808 C6807 1.383 . S
C6808 C6809 1.377 . S
C6809 H6793 0.930 . S
C6809 C6808 1.377 . S
C6809 C6810 1.379 . S
C6810 H6794 0.931 . S
C6810 C6804 1.383 . S
C6810 C6809 1.379 . S
H6811 C6805 0.959 . S
H6812 C6805 0.961 . S
H6813 C6805 0.960 . S
H6814 C6806 0.930 . S
H6815 C6807 0.929 . S
H6816 C6824 0.929 . S
H6817 C6826 0.930 . S
H6818 C6828 0.930 . S
H6819 C6831 0.929 . S
H6820 C6834 0.930 . S
H6821 C6836 0.960 . S
H6822 C6836 0.960 . S
H6823 C6836 0.960 . S
C6824 H6816 0.929 . S
C6824 C6825 1.377 . S
C6824 C6826 1.384 . S
C6825 C6824 1.377 . S
C6825 C6831 1.390 . S
C6826 H6817 0.930 . S
C6826 C6824 1.384 . S
C6826 C6827 1.372 . S
C6827 C6826 1.372 . S
C6827 C6828 1.400 . S
C6827 C6832 1.490 . S
C6828 H6818 0.930 . S
C6828 C6827 1.400 . S
C6828 C6831 1.386 . S
H6829 C6845 0.930 . S
H6830 C6846 0.931 . S
C6831 H6819 0.929 . S
C6831 C6825 1.390 . S
C6831 C6828 1.386 . S
C6832 C6827 1.490 . S
C6832 C6834 1.395 . S
C6832 C6835 1.403 . S
H6833 C6839 0.930 . S
C6834 H6820 0.930 . S
C6834 C6832 1.395 . S
C6834 C6837 1.403 . S
C6835 C6832 1.403 . S
C6835 C6836 1.524 . S
C6835 C6839 1.400 . S
C6836 H6821 0.960 . S
C6836 H6822 0.960 . S
C6836 H6823 0.960 . S
C6836 C6835 1.524 . S
C6837 C6834 1.403 . S
C6837 C6838 1.392 . S
C6837 C6841 1.495 . S
C6838 C6837 1.392 . S
C6838 C6839 1.385 . S
C6838 C6840 1.478 . S
C6839 H6833 0.930 . S
C6839 C6835 1.400 . S
C6839 C6838 1.385 . S
C6840 C6838 1.478 . S
C6840 C6842 1.381 . S
C6840 C6846 1.383 . S
C6841 C6837 1.495 . S
C6841 H6847 0.959 . S
C6841 H6848 0.961 . S
C6841 H6849 0.960 . S
C6842 C6840 1.381 . S
C6842 C6843 1.394 . S
C6842 H6850 0.930 . S
C6843 C6842 1.394 . S
C6843 C6844 1.383 . S
C6843 H6851 0.929 . S
C6844 C6843 1.383 . S
C6844 C6845 1.377 . S
C6845 H6829 0.930 . S
C6845 C6844 1.377 . S
C6845 C6846 1.379 . S
C6846 H6830 0.931 . S
C6846 C6840 1.383 . S
C6846 C6845 1.379 . S
H6847 C6841 0.959 . S
H6848 C6841 0.961 . S
H6849 C6841 0.960 . S
H6850 C6842 0.930 . S
H6851 C6843 0.929 . S
H6852 C6860 0.929 . S
H6853 C6862 0.930 . S
H6854 C6864 0.930 . S
H6855 C6867 0.929 . S
H6856 C6870 0.930 . S
H6857 C6872 0.960 . S
H6858 C6872 0.960 . S
H6859 C6872 0.960 . S
C6860 H6852 0.929 . S
C6860 C6861 1.377 . S
C6860 C6862 1.384 . S
C6861 C6860 1.377 . S
C6861 C6867 1.390 . S
C6862 H6853 0.930 . S
C6862 C6860 1.384 . S
C6862 C6863 1.372 . S
C6863 C6862 1.372 . S
C6863 C6864 1.400 . S
C6863 C6868 1.490 . S
C6864 H6854 0.930 . S
C6864 C6863 1.400 . S
C6864 C6867 1.386 . S
H6865 C6881 0.930 . S
H6866 C6882 0.931 . S
C6867 H6855 0.929 . S
C6867 C6861 1.390 . S
C6867 C6864 1.386 . S
C6868 C6863 1.490 . S
C6868 C6870 1.395 . S
C6868 C6871 1.403 . S
H6869 C6875 0.930 . S
C6870 H6856 0.930 . S
C6870 C6868 1.395 . S
C6870 C6873 1.403 . S
C6871 C6868 1.403 . S
C6871 C6872 1.524 . S
C6871 C6875 1.400 . S
C6872 H6857 0.960 . S
C6872 H6858 0.960 . S
C6872 H6859 0.960 . S
C6872 C6871 1.524 . S
C6873 C6870 1.403 . S
C6873 C6874 1.392 . S
C6873 C6877 1.495 . S
C6874 C6873 1.392 . S
C6874 C6875 1.385 . S
C6874 C6876 1.478 . S
C6875 H6869 0.930 . S
C6875 C6871 1.400 . S
C6875 C6874 1.385 . S
C6876 C6874 1.478 . S
C6876 C6878 1.381 . S
C6876 C6882 1.383 . S
C6877 C6873 1.495 . S
C6877 H6883 0.959 . S
C6877 H6884 0.961 . S
C6877 H6885 0.960 . S
C6878 C6876 1.381 . S
C6878 C6879 1.394 . S
C6878 H6886 0.930 . S
C6879 C6878 1.394 . S
C6879 C6880 1.383 . S
C6879 H6887 0.929 . S
C6880 C6879 1.383 . S
C6880 C6881 1.377 . S
C6881 H6865 0.930 . S
C6881 C6880 1.377 . S
C6881 C6882 1.379 . S
C6882 H6866 0.931 . S
C6882 C6876 1.383 . S
C6882 C6881 1.379 . S
H6883 C6877 0.959 . S
H6884 C6877 0.961 . S
H6885 C6877 0.960 . S
H6886 C6878 0.930 . S
H6887 C6879 0.929 . S
H6888 C6896 0.929 . S
H6889 C6898 0.930 . S
H6890 C6900 0.930 . S
H6891 C6903 0.929 . S
H6892 C6906 0.930 . S
H6893 C6908 0.960 . S
H6894 C6908 0.960 . S
H6895 C6908 0.960 . S
C6896 H6888 0.929 . S
C6896 C6897 1.377 . S
C6896 C6898 1.384 . S
C6897 C6896 1.377 . S
C6897 C6903 1.390 . S
C6898 H6889 0.930 . S
C6898 C6896 1.384 . S
C6898 C6899 1.372 . S
C6899 C6898 1.372 . S
C6899 C6900 1.400 . S
C6899 C6904 1.490 . S
C6900 H6890 0.930 . S
C6900 C6899 1.400 . S
C6900 C6903 1.386 . S
H6901 C6917 0.930 . S
H6902 C6918 0.931 . S
C6903 H6891 0.929 . S
C6903 C6897 1.390 . S
C6903 C6900 1.386 . S
C6904 C6899 1.490 . S
C6904 C6906 1.395 . S
C6904 C6907 1.403 . S
H6905 C6911 0.930 . S
C6906 H6892 0.930 . S
C6906 C6904 1.395 . S
C6906 C6909 1.403 . S
C6907 C6904 1.403 . S
C6907 C6908 1.524 . S
C6907 C6911 1.400 . S
C6908 H6893 0.960 . S
C6908 H6894 0.960 . S
C6908 H6895 0.960 . S
C6908 C6907 1.524 . S
C6909 C6906 1.403 . S
C6909 C6910 1.392 . S
C6909 C6913 1.495 . S
C6910 C6909 1.392 . S
C6910 C6911 1.385 . S
C6910 C6912 1.478 . S
C6911 H6905 0.930 . S
C6911 C6907 1.400 . S
C6911 C6910 1.385 . S
C6912 C6910 1.478 . S
C6912 C6914 1.381 . S
C6912 C6918 1.383 . S
C6913 C6909 1.495 . S
C6913 H6919 0.959 . S
C6913 H6920 0.961 . S
C6913 H6921 0.960 . S
C6914 C6912 1.381 . S
C6914 C6915 1.394 . S
C6914 H6922 0.930 . S
C6915 C6914 1.394 . S
C6915 C6916 1.383 . S
C6915 H6923 0.929 . S
C6916 C6915 1.383 . S
C6916 C6917 1.377 . S
C6917 H6901 0.930 . S
C6917 C6916 1.377 . S
C6917 C6918 1.379 . S
C6918 H6902 0.931 . S
C6918 C6912 1.383 . S
C6918 C6917 1.379 . S
H6919 C6913 0.959 . S
H6920 C6913 0.961 . S
H6921 C6913 0.960 . S
H6922 C6914 0.930 . S
H6923 C6915 0.929 . S
H6924 C6932 0.929 . S
H6925 C6934 0.930 . S
H6926 C6936 0.930 . S
H6927 C6939 0.929 . S
H6928 C6942 0.930 . S
H6929 C6944 0.960 . S
H6930 C6944 0.960 . S
H6931 C6944 0.960 . S
C6932 H6924 0.929 . S
C6932 C6933 1.377 . S
C6932 C6934 1.384 . S
C6933 C6932 1.377 . S
C6933 C6939 1.390 . S
C6934 H6925 0.930 . S
C6934 C6932 1.384 . S
C6934 C6935 1.372 . S
C6935 C6934 1.372 . S
C6935 C6936 1.400 . S
C6935 C6940 1.490 . S
C6936 H6926 0.930 . S
C6936 C6935 1.400 . S
C6936 C6939 1.386 . S
H6937 C6953 0.930 . S
H6938 C6954 0.931 . S
C6939 H6927 0.929 . S
C6939 C6933 1.390 . S
C6939 C6936 1.386 . S
C6940 C6935 1.490 . S
C6940 C6942 1.395 . S
C6940 C6943 1.403 . S
H6941 C6947 0.930 . S
C6942 H6928 0.930 . S
C6942 C6940 1.395 . S
C6942 C6945 1.403 . S
C6943 C6940 1.403 . S
C6943 C6944 1.524 . S
C6943 C6947 1.400 . S
C6944 H6929 0.960 . S
C6944 H6930 0.960 . S
C6944 H6931 0.960 . S
C6944 C6943 1.524 . S
C6945 C6942 1.403 . S
C6945 C6946 1.392 . S
C6945 C6949 1.495 . S
C6946 C6945 1.392 . S
C6946 C6947 1.385 . S
C6946 C6948 1.478 . S
C6947 H6941 0.930 . S
C6947 C6943 1.400 . S
C6947 C6946 1.385 . S
C6948 C6946 1.478 . S
C6948 C6950 1.381 . S
C6948 C6954 1.383 . S
C6949 C6945 1.495 . S
C6949 H6955 0.959 . S
C6949 H6956 0.961 . S
C6949 H6957 0.960 . S
C6950 C6948 1.381 . S
C6950 C6951 1.394 . S
C6950 H6958 0.930 . S
C6951 C6950 1.394 . S
C6951 C6952 1.383 . S
C6951 H6959 0.929 . S
C6952 C6951 1.383 . S
C6952 C6953 1.377 . S
C6953 H6937 0.930 . S
C6953 C6952 1.377 . S
C6953 C6954 1.379 . S
C6954 H6938 0.931 . S
C6954 C6948 1.383 . S
C6954 C6953 1.379 . S
H6955 C6949 0.959 . S
H6956 C6949 0.961 . S
H6957 C6949 0.960 . S
H6958 C6950 0.930 . S
H6959 C6951 0.929 . S
H6960 C6968 0.929 . S
H6961 C6970 0.930 . S
H6962 C6972 0.930 . S
H6963 C6975 0.929 . S
H6964 C6978 0.930 . S
H6965 C6980 0.960 . S
H6966 C6980 0.960 . S
H6967 C6980 0.960 . S
C6968 H6960 0.929 . S
C6968 C6969 1.377 . S
C6968 C6970 1.384 . S
C6969 C6968 1.377 . S
C6969 C6975 1.390 . S
C6970 H6961 0.930 . S
C6970 C6968 1.384 . S
C6970 C6971 1.372 . S
C6971 C6970 1.372 . S
C6971 C6972 1.400 . S
C6971 C6976 1.490 . S
C6972 H6962 0.930 . S
C6972 C6971 1.400 . S
C6972 C6975 1.386 . S
H6973 C6989 0.930 . S
H6974 C6990 0.931 . S
C6975 H6963 0.929 . S
C6975 C6969 1.390 . S
C6975 C6972 1.386 . S
C6976 C6971 1.490 . S
C6976 C6978 1.395 . S
C6976 C6979 1.403 . S
H6977 C6983 0.930 . S
C6978 H6964 0.930 . S
C6978 C6976 1.395 . S
C6978 C6981 1.403 . S
C6979 C6976 1.403 . S
C6979 C6980 1.524 . S
C6979 C6983 1.400 . S
C6980 H6965 0.960 . S
C6980 H6966 0.960 . S
C6980 H6967 0.960 . S
C6980 C6979 1.524 . S
C6981 C6978 1.403 . S
C6981 C6982 1.392 . S
C6981 C6985 1.495 . S
C6982 C6981 1.392 . S
C6982 C6983 1.385 . S
C6982 C6984 1.478 . S
C6983 H6977 0.930 . S
C6983 C6979 1.400 . S
C6983 C6982 1.385 . S
C6984 C6982 1.478 . S
C6984 C6986 1.381 . S
C6984 C6990 1.383 . S
C6985 C6981 1.495 . S
C6985 H6991 0.959 . S
C6985 H6992 0.961 . S
C6985 H6993 0.960 . S
C6986 C6984 1.381 . S
C6986 C6987 1.394 . S
C6986 H6994 0.930 . S
C6987 C6986 1.394 . S
C6987 C6988 1.383 . S
C6987 H6995 0.929 . S
C6988 C6987 1.383 . S
C6988 C6989 1.377 . S
C6989 H6973 0.930 . S
C6989 C6988 1.377 . S
C6989 C6990 1.379 . S
C6990 H6974 0.931 . S
C6990 C6984 1.383 . S
C6990 C6989 1.379 . S
H6991 C6985 0.959 . S
H6992 C6985 0.961 . S
H6993 C6985 0.960 . S
H6994 C6986 0.930 . S
H6995 C6987 0.929 . S
H6996 C7004 0.929 . S
H6997 C7006 0.930 . S
H6998 C7008 0.930 . S
H6999 C7011 0.929 . S
H7000 C7014 0.930 . S
H7001 C7016 0.960 . S
H7002 C7016 0.960 . S
H7003 C7016 0.960 . S
C7004 H6996 0.929 . S
C7004 C7005 1.377 . S
C7004 C7006 1.384 . S
C7005 C7004 1.377 . S
C7005 C7011 1.390 . S
C7006 H6997 0.930 . S
C7006 C7004 1.384 . S
C7006 C7007 1.372 . S
C7007 C7006 1.372 . S
C7007 C7008 1.400 . S
C7007 C7012 1.490 . S
C7008 H6998 0.930 . S
C7008 C7007 1.400 . S
C7008 C7011 1.386 . S
H7009 C7025 0.930 . S
H7010 C7026 0.931 . S
C7011 H6999 0.929 . S
C7011 C7005 1.390 . S
C7011 C7008 1.386 . S
C7012 C7007 1.490 . S
C7012 C7014 1.395 . S
C7012 C7015 1.403 . S
H7013 C7019 0.930 . S
C7014 H7000 0.930 . S
C7014 C7012 1.395 . S
C7014 C7017 1.403 . S
C7015 C7012 1.403 . S
C7015 C7016 1.524 . S
C7015 C7019 1.400 . S
C7016 H7001 0.960 . S
C7016 H7002 0.960 . S
C7016 H7003 0.960 . S
C7016 C7015 1.524 . S
C7017 C7014 1.403 . S
C7017 C7018 1.392 . S
C7017 C7021 1.495 . S
C7018 C7017 1.392 . S
C7018 C7019 1.385 . S
C7018 C7020 1.478 . S
C7019 H7013 0.930 . S
C7019 C7015 1.400 . S
C7019 C7018 1.385 . S
C7020 C7018 1.478 . S
C7020 C7022 1.381 . S
C7020 C7026 1.383 . S
C7021 C7017 1.495 . S
C7021 H7027 0.959 . S
C7021 H7028 0.961 . S
C7021 H7029 0.960 . S
C7022 C7020 1.381 . S
C7022 C7023 1.394 . S
C7022 H7030 0.930 . S
C7023 C7022 1.394 . S
C7023 C7024 1.383 . S
C7023 H7031 0.929 . S
C7024 C7023 1.383 . S
C7024 C7025 1.377 . S
C7025 H7009 0.930 . S
C7025 C7024 1.377 . S
C7025 C7026 1.379 . S
C7026 H7010 0.931 . S
C7026 C7020 1.383 . S
C7026 C7025 1.379 . S
H7027 C7021 0.959 . S
H7028 C7021 0.961 . S
H7029 C7021 0.960 . S
H7030 C7022 0.930 . S
H7031 C7023 0.929 . S
H7032 C7040 0.929 . S
H7033 C7042 0.930 . S
H7034 C7044 0.930 . S
H7035 C7047 0.929 . S
H7036 C7050 0.930 . S
H7037 C7052 0.960 . S
H7038 C7052 0.960 . S
H7039 C7052 0.960 . S
C7040 H7032 0.929 . S
C7040 C7041 1.377 . S
C7040 C7042 1.384 . S
C7041 C7040 1.377 . S
C7041 C7047 1.390 . S
C7042 H7033 0.930 . S
C7042 C7040 1.384 . S
C7042 C7043 1.372 . S
C7043 C7042 1.372 . S
C7043 C7044 1.400 . S
C7043 C7048 1.490 . S
C7044 H7034 0.930 . S
C7044 C7043 1.400 . S
C7044 C7047 1.386 . S
H7045 C7061 0.930 . S
H7046 C7062 0.931 . S
C7047 H7035 0.929 . S
C7047 C7041 1.390 . S
C7047 C7044 1.386 . S
C7048 C7043 1.490 . S
C7048 C7050 1.395 . S
C7048 C7051 1.403 . S
H7049 C7055 0.930 . S
C7050 H7036 0.930 . S
C7050 C7048 1.395 . S
C7050 C7053 1.403 . S
C7051 C7048 1.403 . S
C7051 C7052 1.524 . S
C7051 C7055 1.400 . S
C7052 H7037 0.960 . S
C7052 H7038 0.960 . S
C7052 H7039 0.960 . S
C7052 C7051 1.524 . S
C7053 C7050 1.403 . S
C7053 C7054 1.392 . S
C7053 C7057 1.495 . S
C7054 C7053 1.392 . S
C7054 C7055 1.385 . S
C7054 C7056 1.478 . S
C7055 H7049 0.930 . S
C7055 C7051 1.400 . S
C7055 C7054 1.385 . S
C7056 C7054 1.478 . S
C7056 C7058 1.381 . S
C7056 C7062 1.383 . S
C7057 C7053 1.495 . S
C7057 H7063 0.959 . S
C7057 H7064 0.961 . S
C7057 H7065 0.960 . S
C7058 C7056 1.381 . S
C7058 C7059 1.394 . S
C7058 H7066 0.930 . S
C7059 C7058 1.394 . S
C7059 C7060 1.383 . S
C7059 H7067 0.929 . S
C7060 C7059 1.383 . S
C7060 C7061 1.377 . S
C7061 H7045 0.930 . S
C7061 C7060 1.377 . S
C7061 C7062 1.379 . S
C7062 H7046 0.931 . S
C7062 C7056 1.383 . S
C7062 C7061 1.379 . S
H7063 C7057 0.959 . S
H7064 C7057 0.961 . S
H7065 C7057 0.960 . S
H7066 C7058 0.930 . S
H7067 C7059 0.929 . S
H7068 C7076 0.929 . S
H7069 C7078 0.930 . S
H7070 C7080 0.930 . S
H7071 C7083 0.929 . S
H7072 C7086 0.930 . S
H7073 C7088 0.960 . S
H7074 C7088 0.960 . S
H7075 C7088 0.960 . S
C7076 H7068 0.929 . S
C7076 C7077 1.377 . S
C7076 C7078 1.384 . S
C7077 C7076 1.377 . S
C7077 C7083 1.390 . S
C7078 H7069 0.930 . S
C7078 C7076 1.384 . S
C7078 C7079 1.372 . S
C7079 C7078 1.372 . S
C7079 C7080 1.400 . S
C7079 C7084 1.490 . S
C7080 H7070 0.930 . S
C7080 C7079 1.400 . S
C7080 C7083 1.386 . S
H7081 C7097 0.930 . S
H7082 C7098 0.931 . S
C7083 H7071 0.929 . S
C7083 C7077 1.390 . S
C7083 C7080 1.386 . S
C7084 C7079 1.490 . S
C7084 C7086 1.395 . S
C7084 C7087 1.403 . S
H7085 C7091 0.930 . S
C7086 H7072 0.930 . S
C7086 C7084 1.395 . S
C7086 C7089 1.403 . S
C7087 C7084 1.403 . S
C7087 C7088 1.524 . S
C7087 C7091 1.400 . S
C7088 H7073 0.960 . S
C7088 H7074 0.960 . S
C7088 H7075 0.960 . S
C7088 C7087 1.524 . S
C7089 C7086 1.403 . S
C7089 C7090 1.392 . S
C7089 C7093 1.495 . S
C7090 C7089 1.392 . S
C7090 C7091 1.385 . S
C7090 C7092 1.478 . S
C7091 H7085 0.930 . S
C7091 C7087 1.400 . S
C7091 C7090 1.385 . S
C7092 C7090 1.478 . S
C7092 C7094 1.381 . S
C7092 C7098 1.383 . S
C7093 C7089 1.495 . S
C7093 H7099 0.959 . S
C7093 H7100 0.961 . S
C7093 H7101 0.960 . S
C7094 C7092 1.381 . S
C7094 C7095 1.394 . S
C7094 H7102 0.930 . S
C7095 C7094 1.394 . S
C7095 C7096 1.383 . S
C7095 H7103 0.929 . S
C7096 C7095 1.383 . S
C7096 C7097 1.377 . S
C7097 H7081 0.930 . S
C7097 C7096 1.377 . S
C7097 C7098 1.379 . S
C7098 H7082 0.931 . S
C7098 C7092 1.383 . S
C7098 C7097 1.379 . S
H7099 C7093 0.959 . S
H7100 C7093 0.961 . S
H7101 C7093 0.960 . S
H7102 C7094 0.930 . S
H7103 C7095 0.929 . S
H7104 C7112 0.929 . S
H7105 C7114 0.930 . S
H7106 C7116 0.930 . S
H7107 C7119 0.929 . S
H7108 C7122 0.930 . S
H7109 C7124 0.960 . S
H7110 C7124 0.960 . S
H7111 C7124 0.960 . S
C7112 H7104 0.929 . S
C7112 C7113 1.377 . S
C7112 C7114 1.384 . S
C7113 C7112 1.377 . S
C7113 C7119 1.390 . S
C7114 H7105 0.930 . S
C7114 C7112 1.384 . S
C7114 C7115 1.372 . S
C7115 C7114 1.372 . S
C7115 C7116 1.400 . S
C7115 C7120 1.490 . S
C7116 H7106 0.930 . S
C7116 C7115 1.400 . S
C7116 C7119 1.386 . S
H7117 C7133 0.930 . S
H7118 C7134 0.931 . S
C7119 H7107 0.929 . S
C7119 C7113 1.390 . S
C7119 C7116 1.386 . S
C7120 C7115 1.490 . S
C7120 C7122 1.395 . S
C7120 C7123 1.403 . S
H7121 C7127 0.930 . S
C7122 H7108 0.930 . S
C7122 C7120 1.395 . S
C7122 C7125 1.403 . S
C7123 C7120 1.403 . S
C7123 C7124 1.524 . S
C7123 C7127 1.400 . S
C7124 H7109 0.960 . S
C7124 H7110 0.960 . S
C7124 H7111 0.960 . S
C7124 C7123 1.524 . S
C7125 C7122 1.403 . S
C7125 C7126 1.392 . S
C7125 C7129 1.495 . S
C7126 C7125 1.392 . S
C7126 C7127 1.385 . S
C7126 C7128 1.478 . S
C7127 H7121 0.930 . S
C7127 C7123 1.400 . S
C7127 C7126 1.385 . S
C7128 C7126 1.478 . S
C7128 C7130 1.381 . S
C7128 C7134 1.383 . S
C7129 C7125 1.495 . S
C7129 H7135 0.959 . S
C7129 H7136 0.961 . S
C7129 H7137 0.960 . S
C7130 C7128 1.381 . S
C7130 C7131 1.394 . S
C7130 H7138 0.930 . S
C7131 C7130 1.394 . S
C7131 C7132 1.383 . S
C7131 H7139 0.929 . S
C7132 C7131 1.383 . S
C7132 C7133 1.377 . S
C7133 H7117 0.930 . S
C7133 C7132 1.377 . S
C7133 C7134 1.379 . S
C7134 H7118 0.931 . S
C7134 C7128 1.383 . S
C7134 C7133 1.379 . S
H7135 C7129 0.959 . S
H7136 C7129 0.961 . S
H7137 C7129 0.960 . S
H7138 C7130 0.930 . S
H7139 C7131 0.929 . S
H7140 C7148 0.929 . S
H7141 C7150 0.930 . S
H7142 C7152 0.930 . S
H7143 C7155 0.929 . S
H7144 C7158 0.930 . S
H7145 C7160 0.960 . S
H7146 C7160 0.960 . S
H7147 C7160 0.960 . S
C7148 H7140 0.929 . S
C7148 C7149 1.377 . S
C7148 C7150 1.384 . S
C7149 C7148 1.377 . S
C7149 C7155 1.390 . S
C7150 H7141 0.930 . S
C7150 C7148 1.384 . S
C7150 C7151 1.372 . S
C7151 C7150 1.372 . S
C7151 C7152 1.400 . S
C7151 C7156 1.490 . S
C7152 H7142 0.930 . S
C7152 C7151 1.400 . S
C7152 C7155 1.386 . S
H7153 C7169 0.930 . S
H7154 C7170 0.931 . S
C7155 H7143 0.929 . S
C7155 C7149 1.390 . S
C7155 C7152 1.386 . S
C7156 C7151 1.490 . S
C7156 C7158 1.395 . S
C7156 C7159 1.403 . S
H7157 C7163 0.930 . S
C7158 H7144 0.930 . S
C7158 C7156 1.395 . S
C7158 C7161 1.403 . S
C7159 C7156 1.403 . S
C7159 C7160 1.524 . S
C7159 C7163 1.400 . S
C7160 H7145 0.960 . S
C7160 H7146 0.960 . S
C7160 H7147 0.960 . S
C7160 C7159 1.524 . S
C7161 C7158 1.403 . S
C7161 C7162 1.392 . S
C7161 C7165 1.495 . S
C7162 C7161 1.392 . S
C7162 C7163 1.385 . S
C7162 C7164 1.478 . S
C7163 H7157 0.930 . S
C7163 C7159 1.400 . S
C7163 C7162 1.385 . S
C7164 C7162 1.478 . S
C7164 C7166 1.381 . S
C7164 C7170 1.383 . S
C7165 C7161 1.495 . S
C7165 H7171 0.959 . S
C7165 H7172 0.961 . S
C7165 H7173 0.960 . S
C7166 C7164 1.381 . S
C7166 C7167 1.394 . S
C7166 H7174 0.930 . S
C7167 C7166 1.394 . S
C7167 C7168 1.383 . S
C7167 H7175 0.929 . S
C7168 C7167 1.383 . S
C7168 C7169 1.377 . S
C7169 H7153 0.930 . S
C7169 C7168 1.377 . S
C7169 C7170 1.379 . S
C7170 H7154 0.931 . S
C7170 C7164 1.383 . S
C7170 C7169 1.379 . S
H7171 C7165 0.959 . S
H7172 C7165 0.961 . S
H7173 C7165 0.960 . S
H7174 C7166 0.930 . S
H7175 C7167 0.929 . S
H7176 C7184 0.929 . S
H7177 C7186 0.930 . S
H7178 C7188 0.930 . S
H7179 C7191 0.929 . S
H7180 C7194 0.930 . S
H7181 C7196 0.960 . S
H7182 C7196 0.960 . S
H7183 C7196 0.960 . S
C7184 H7176 0.929 . S
C7184 C7185 1.377 . S
C7184 C7186 1.384 . S
C7185 C7184 1.377 . S
C7185 C7191 1.390 . S
C7186 H7177 0.930 . S
C7186 C7184 1.384 . S
C7186 C7187 1.372 . S
C7187 C7186 1.372 . S
C7187 C7188 1.400 . S
C7187 C7192 1.490 . S
C7188 H7178 0.930 . S
C7188 C7187 1.400 . S
C7188 C7191 1.386 . S
H7189 C7205 0.930 . S
H7190 C7206 0.931 . S
C7191 H7179 0.929 . S
C7191 C7185 1.390 . S
C7191 C7188 1.386 . S
C7192 C7187 1.490 . S
C7192 C7194 1.395 . S
C7192 C7195 1.403 . S
H7193 C7199 0.930 . S
C7194 H7180 0.930 . S
C7194 C7192 1.395 . S
C7194 C7197 1.403 . S
C7195 C7192 1.403 . S
C7195 C7196 1.524 . S
C7195 C7199 1.400 . S
C7196 H7181 0.960 . S
C7196 H7182 0.960 . S
C7196 H7183 0.960 . S
C7196 C7195 1.524 . S
C7197 C7194 1.403 . S
C7197 C7198 1.392 . S
C7197 C7201 1.495 . S
C7198 C7197 1.392 . S
C7198 C7199 1.385 . S
C7198 C7200 1.478 . S
C7199 H7193 0.930 . S
C7199 C7195 1.400 . S
C7199 C7198 1.385 . S
C7200 C7198 1.478 . S
C7200 C7202 1.381 . S
C7200 C7206 1.383 . S
C7201 C7197 1.495 . S
C7201 H7207 0.959 . S
C7201 H7208 0.961 . S
C7201 H7209 0.960 . S
C7202 C7200 1.381 . S
C7202 C7203 1.394 . S
C7202 H7210 0.930 . S
C7203 C7202 1.394 . S
C7203 C7204 1.383 . S
C7203 H7211 0.929 . S
C7204 C7203 1.383 . S
C7204 C7205 1.377 . S
C7205 H7189 0.930 . S
C7205 C7204 1.377 . S
C7205 C7206 1.379 . S
C7206 H7190 0.931 . S
C7206 C7200 1.383 . S
C7206 C7205 1.379 . S
H7207 C7201 0.959 . S
H7208 C7201 0.961 . S
H7209 C7201 0.960 . S
H7210 C7202 0.930 . S
H7211 C7203 0.929 . S
H7212 C7220 0.929 . S
H7213 C7222 0.930 . S
H7214 C7224 0.930 . S
H7215 C7227 0.929 . S
H7216 C7230 0.930 . S
H7217 C7232 0.960 . S
H7218 C7232 0.960 . S
H7219 C7232 0.960 . S
C7220 H7212 0.929 . S
C7220 C7221 1.377 . S
C7220 C7222 1.384 . S
C7221 C7220 1.377 . S
C7221 C7227 1.390 . S
C7222 H7213 0.930 . S
C7222 C7220 1.384 . S
C7222 C7223 1.372 . S
C7223 C7222 1.372 . S
C7223 C7224 1.400 . S
C7223 C7228 1.490 . S
C7224 H7214 0.930 . S
C7224 C7223 1.400 . S
C7224 C7227 1.386 . S
H7225 C7241 0.930 . S
H7226 C7242 0.931 . S
C7227 H7215 0.929 . S
C7227 C7221 1.390 . S
C7227 C7224 1.386 . S
C7228 C7223 1.490 . S
C7228 C7230 1.395 . S
C7228 C7231 1.403 . S
H7229 C7235 0.930 . S
C7230 H7216 0.930 . S
C7230 C7228 1.395 . S
C7230 C7233 1.403 . S
C7231 C7228 1.403 . S
C7231 C7232 1.524 . S
C7231 C7235 1.400 . S
C7232 H7217 0.960 . S
C7232 H7218 0.960 . S
C7232 H7219 0.960 . S
C7232 C7231 1.524 . S
C7233 C7230 1.403 . S
C7233 C7234 1.392 . S
C7233 C7237 1.495 . S
C7234 C7233 1.392 . S
C7234 C7235 1.385 . S
C7234 C7236 1.478 . S
C7235 H7229 0.930 . S
C7235 C7231 1.400 . S
C7235 C7234 1.385 . S
C7236 C7234 1.478 . S
C7236 C7238 1.381 . S
C7236 C7242 1.383 . S
C7237 C7233 1.495 . S
C7237 H7243 0.959 . S
C7237 H7244 0.961 . S
C7237 H7245 0.960 . S
C7238 C7236 1.381 . S
C7238 C7239 1.394 . S
C7238 H7246 0.930 . S
C7239 C7238 1.394 . S
C7239 C7240 1.383 . S
C7239 H7247 0.929 . S
C7240 C7239 1.383 . S
C7240 C7241 1.377 . S
C7241 H7225 0.930 . S
C7241 C7240 1.377 . S
C7241 C7242 1.379 . S
C7242 H7226 0.931 . S
C7242 C7236 1.383 . S
C7242 C7241 1.379 . S
H7243 C7237 0.959 . S
H7244 C7237 0.961 . S
H7245 C7237 0.960 . S
H7246 C7238 0.930 . S
H7247 C7239 0.929 . S
H7248 C7256 0.929 . S
H7249 C7258 0.930 . S
H7250 C7260 0.930 . S
H7251 C7263 0.929 . S
H7252 C7266 0.930 . S
H7253 C7268 0.960 . S
H7254 C7268 0.960 . S
H7255 C7268 0.960 . S
C7256 H7248 0.929 . S
C7256 C7257 1.377 . S
C7256 C7258 1.384 . S
C7257 C7256 1.377 . S
C7257 C7263 1.390 . S
C7258 H7249 0.930 . S
C7258 C7256 1.384 . S
C7258 C7259 1.372 . S
C7259 C7258 1.372 . S
C7259 C7260 1.400 . S
C7259 C7264 1.490 . S
C7260 H7250 0.930 . S
C7260 C7259 1.400 . S
C7260 C7263 1.386 . S
H7261 C7277 0.930 . S
H7262 C7278 0.931 . S
C7263 H7251 0.929 . S
C7263 C7257 1.390 . S
C7263 C7260 1.386 . S
C7264 C7259 1.490 . S
C7264 C7266 1.395 . S
C7264 C7267 1.403 . S
H7265 C7271 0.930 . S
C7266 H7252 0.930 . S
C7266 C7264 1.395 . S
C7266 C7269 1.403 . S
C7267 C7264 1.403 . S
C7267 C7268 1.524 . S
C7267 C7271 1.400 . S
C7268 H7253 0.960 . S
C7268 H7254 0.960 . S
C7268 H7255 0.960 . S
C7268 C7267 1.524 . S
C7269 C7266 1.403 . S
C7269 C7270 1.392 . S
C7269 C7273 1.495 . S
C7270 C7269 1.392 . S
C7270 C7271 1.385 . S
C7270 C7272 1.478 . S
C7271 H7265 0.930 . S
C7271 C7267 1.400 . S
C7271 C7270 1.385 . S
C7272 C7270 1.478 . S
C7272 C7274 1.381 . S
C7272 C7278 1.383 . S
C7273 C7269 1.495 . S
C7273 H7279 0.959 . S
C7273 H7280 0.961 . S
C7273 H7281 0.960 . S
C7274 C7272 1.381 . S
C7274 C7275 1.394 . S
C7274 H7282 0.930 . S
C7275 C7274 1.394 . S
C7275 C7276 1.383 . S
C7275 H7283 0.929 . S
C7276 C7275 1.383 . S
C7276 C7277 1.377 . S
C7277 H7261 0.930 . S
C7277 C7276 1.377 . S
C7277 C7278 1.379 . S
C7278 H7262 0.931 . S
C7278 C7272 1.383 . S
C7278 C7277 1.379 . S
H7279 C7273 0.959 . S
H7280 C7273 0.961 . S
H7281 C7273 0.960 . S
H7282 C7274 0.930 . S
H7283 C7275 0.929 . S
H7284 C7292 0.929 . S
H7285 C7294 0.930 . S
H7286 C7296 0.930 . S
H7287 C7299 0.929 . S
H7288 C7302 0.930 . S
H7289 C7304 0.960 . S
H7290 C7304 0.960 . S
H7291 C7304 0.960 . S
C7292 H7284 0.929 . S
C7292 C7293 1.377 . S
C7292 C7294 1.384 . S
C7293 C7292 1.377 . S
C7293 C7299 1.390 . S
C7294 H7285 0.930 . S
C7294 C7292 1.384 . S
C7294 C7295 1.372 . S
C7295 C7294 1.372 . S
C7295 C7296 1.400 . S
C7295 C7300 1.490 . S
C7296 H7286 0.930 . S
C7296 C7295 1.400 . S
C7296 C7299 1.386 . S
H7297 C7313 0.930 . S
H7298 C7314 0.931 . S
C7299 H7287 0.929 . S
C7299 C7293 1.390 . S
C7299 C7296 1.386 . S
C7300 C7295 1.490 . S
C7300 C7302 1.395 . S
C7300 C7303 1.403 . S
H7301 C7307 0.930 . S
C7302 H7288 0.930 . S
C7302 C7300 1.395 . S
C7302 C7305 1.403 . S
C7303 C7300 1.403 . S
C7303 C7304 1.524 . S
C7303 C7307 1.400 . S
C7304 H7289 0.960 . S
C7304 H7290 0.960 . S
C7304 H7291 0.960 . S
C7304 C7303 1.524 . S
C7305 C7302 1.403 . S
C7305 C7306 1.392 . S
C7305 C7309 1.495 . S
C7306 C7305 1.392 . S
C7306 C7307 1.385 . S
C7306 C7308 1.478 . S
C7307 H7301 0.930 . S
C7307 C7303 1.400 . S
C7307 C7306 1.385 . S
C7308 C7306 1.478 . S
C7308 C7310 1.381 . S
C7308 C7314 1.383 . S
C7309 C7305 1.495 . S
C7309 H7315 0.959 . S
C7309 H7316 0.961 . S
C7309 H7317 0.960 . S
C7310 C7308 1.381 . S
C7310 C7311 1.394 . S
C7310 H7318 0.930 . S
C7311 C7310 1.394 . S
C7311 C7312 1.383 . S
C7311 H7319 0.929 . S
C7312 C7311 1.383 . S
C7312 C7313 1.377 . S
C7313 H7297 0.930 . S
C7313 C7312 1.377 . S
C7313 C7314 1.379 . S
C7314 H7298 0.931 . S
C7314 C7308 1.383 . S
C7314 C7313 1.379 . S
H7315 C7309 0.959 . S
H7316 C7309 0.961 . S
H7317 C7309 0.960 . S
H7318 C7310 0.930 . S
H7319 C7311 0.929 . S
H7320 C7328 0.929 . S
H7321 C7330 0.930 . S
H7322 C7332 0.930 . S
H7323 C7335 0.929 . S
H7324 C7338 0.930 . S
H7325 C7340 0.960 . S
H7326 C7340 0.960 . S
H7327 C7340 0.960 . S
C7328 H7320 0.929 . S
C7328 C7329 1.377 . S
C7328 C7330 1.384 . S
C7329 C7328 1.377 . S
C7329 C7335 1.390 . S
C7330 H7321 0.930 . S
C7330 C7328 1.384 . S
C7330 C7331 1.372 . S
C7331 C7330 1.372 . S
C7331 C7332 1.400 . S
C7331 C7336 1.490 . S
C7332 H7322 0.930 . S
C7332 C7331 1.400 . S
C7332 C7335 1.386 . S
H7333 C7349 0.930 . S
H7334 C7350 0.931 . S
C7335 H7323 0.929 . S
C7335 C7329 1.390 . S
C7335 C7332 1.386 . S
C7336 C7331 1.490 . S
C7336 C7338 1.395 . S
C7336 C7339 1.403 . S
H7337 C7343 0.930 . S
C7338 H7324 0.930 . S
C7338 C7336 1.395 . S
C7338 C7341 1.403 . S
C7339 C7336 1.403 . S
C7339 C7340 1.524 . S
C7339 C7343 1.400 . S
C7340 H7325 0.960 . S
C7340 H7326 0.960 . S
C7340 H7327 0.960 . S
C7340 C7339 1.524 . S
C7341 C7338 1.403 . S
C7341 C7342 1.392 . S
C7341 C7345 1.495 . S
C7342 C7341 1.392 . S
C7342 C7343 1.385 . S
C7342 C7344 1.478 . S
C7343 H7337 0.930 . S
C7343 C7339 1.400 . S
C7343 C7342 1.385 . S
C7344 C7342 1.478 . S
C7344 C7346 1.381 . S
C7344 C7350 1.383 . S
C7345 C7341 1.495 . S
C7345 H7351 0.959 . S
C7345 H7352 0.961 . S
C7345 H7353 0.960 . S
C7346 C7344 1.381 . S
C7346 C7347 1.394 . S
C7346 H7354 0.930 . S
C7347 C7346 1.394 . S
C7347 C7348 1.383 . S
C7347 H7355 0.929 . S
C7348 C7347 1.383 . S
C7348 C7349 1.377 . S
C7349 H7333 0.930 . S
C7349 C7348 1.377 . S
C7349 C7350 1.379 . S
C7350 H7334 0.931 . S
C7350 C7344 1.383 . S
C7350 C7349 1.379 . S
H7351 C7345 0.959 . S
H7352 C7345 0.961 . S
H7353 C7345 0.960 . S
H7354 C7346 0.930 . S
H7355 C7347 0.929 . S
H7356 C7364 0.929 . S
H7357 C7366 0.930 . S
H7358 C7368 0.930 . S
H7359 C7371 0.929 . S
H7360 C7374 0.930 . S
H7361 C7376 0.960 . S
H7362 C7376 0.960 . S
H7363 C7376 0.960 . S
C7364 H7356 0.929 . S
C7364 C7365 1.377 . S
C7364 C7366 1.384 . S
C7365 C7364 1.377 . S
C7365 C7371 1.390 . S
C7366 H7357 0.930 . S
C7366 C7364 1.384 . S
C7366 C7367 1.372 . S
C7367 C7366 1.372 . S
C7367 C7368 1.400 . S
C7367 C7372 1.490 . S
C7368 H7358 0.930 . S
C7368 C7367 1.400 . S
C7368 C7371 1.386 . S
H7369 C7385 0.930 . S
H7370 C7386 0.931 . S
C7371 H7359 0.929 . S
C7371 C7365 1.390 . S
C7371 C7368 1.386 . S
C7372 C7367 1.490 . S
C7372 C7374 1.395 . S
C7372 C7375 1.403 . S
H7373 C7379 0.930 . S
C7374 H7360 0.930 . S
C7374 C7372 1.395 . S
C7374 C7377 1.403 . S
C7375 C7372 1.403 . S
C7375 C7376 1.524 . S
C7375 C7379 1.400 . S
C7376 H7361 0.960 . S
C7376 H7362 0.960 . S
C7376 H7363 0.960 . S
C7376 C7375 1.524 . S
C7377 C7374 1.403 . S
C7377 C7378 1.392 . S
C7377 C7381 1.495 . S
C7378 C7377 1.392 . S
C7378 C7379 1.385 . S
C7378 C7380 1.478 . S
C7379 H7373 0.930 . S
C7379 C7375 1.400 . S
C7379 C7378 1.385 . S
C7380 C7378 1.478 . S
C7380 C7382 1.381 . S
C7380 C7386 1.383 . S
C7381 C7377 1.495 . S
C7381 H7387 0.959 . S
C7381 H7388 0.961 . S
C7381 H7389 0.960 . S
C7382 C7380 1.381 . S
C7382 C7383 1.394 . S
C7382 H7390 0.930 . S
C7383 C7382 1.394 . S
C7383 C7384 1.383 . S
C7383 H7391 0.929 . S
C7384 C7383 1.383 . S
C7384 C7385 1.377 . S
C7385 H7369 0.930 . S
C7385 C7384 1.377 . S
C7385 C7386 1.379 . S
C7386 H7370 0.931 . S
C7386 C7380 1.383 . S
C7386 C7385 1.379 . S
H7387 C7381 0.959 . S
H7388 C7381 0.961 . S
H7389 C7381 0.960 . S
H7390 C7382 0.930 . S
H7391 C7383 0.929 . S
H7392 C7400 0.929 . S
H7393 C7402 0.930 . S
H7394 C7404 0.930 . S
H7395 C7407 0.929 . S
H7396 C7410 0.930 . S
H7397 C7412 0.960 . S
H7398 C7412 0.960 . S
H7399 C7412 0.960 . S
C7400 H7392 0.929 . S
C7400 C7401 1.377 . S
C7400 C7402 1.384 . S
C7401 C7400 1.377 . S
C7401 C7407 1.390 . S
C7402 H7393 0.930 . S
C7402 C7400 1.384 . S
C7402 C7403 1.372 . S
C7403 C7402 1.372 . S
C7403 C7404 1.400 . S
C7403 C7408 1.490 . S
C7404 H7394 0.930 . S
C7404 C7403 1.400 . S
C7404 C7407 1.386 . S
H7405 C7421 0.930 . S
H7406 C7422 0.931 . S
C7407 H7395 0.929 . S
C7407 C7401 1.390 . S
C7407 C7404 1.386 . S
C7408 C7403 1.490 . S
C7408 C7410 1.395 . S
C7408 C7411 1.403 . S
H7409 C7415 0.930 . S
C7410 H7396 0.930 . S
C7410 C7408 1.395 . S
C7410 C7413 1.403 . S
C7411 C7408 1.403 . S
C7411 C7412 1.524 . S
C7411 C7415 1.400 . S
C7412 H7397 0.960 . S
C7412 H7398 0.960 . S
C7412 H7399 0.960 . S
C7412 C7411 1.524 . S
C7413 C7410 1.403 . S
C7413 C7414 1.392 . S
C7413 C7417 1.495 . S
C7414 C7413 1.392 . S
C7414 C7415 1.385 . S
C7414 C7416 1.478 . S
C7415 H7409 0.930 . S
C7415 C7411 1.400 . S
C7415 C7414 1.385 . S
C7416 C7414 1.478 . S
C7416 C7418 1.381 . S
C7416 C7422 1.383 . S
C7417 C7413 1.495 . S
C7417 H7423 0.959 . S
C7417 H7424 0.961 . S
C7417 H7425 0.960 . S
C7418 C7416 1.381 . S
C7418 C7419 1.394 . S
C7418 H7426 0.930 . S
C7419 C7418 1.394 . S
C7419 C7420 1.383 . S
C7419 H7427 0.929 . S
C7420 C7419 1.383 . S
C7420 C7421 1.377 . S
C7421 H7405 0.930 . S
C7421 C7420 1.377 . S
C7421 C7422 1.379 . S
C7422 H7406 0.931 . S
C7422 C7416 1.383 . S
C7422 C7421 1.379 . S
H7423 C7417 0.959 . S
H7424 C7417 0.961 . S
H7425 C7417 0.960 . S
H7426 C7418 0.930 . S
H7427 C7419 0.929 . S
H7428 C7436 0.929 . S
H7429 C7438 0.930 . S
H7430 C7440 0.930 . S
H7431 C7443 0.929 . S
H7432 C7446 0.930 . S
H7433 C7448 0.960 . S
H7434 C7448 0.960 . S
H7435 C7448 0.960 . S
C7436 H7428 0.929 . S
C7436 C7437 1.377 . S
C7436 C7438 1.384 . S
C7437 C7436 1.377 . S
C7437 C7443 1.390 . S
C7438 H7429 0.930 . S
C7438 C7436 1.384 . S
C7438 C7439 1.372 . S
C7439 C7438 1.372 . S
C7439 C7440 1.400 . S
C7439 C7444 1.490 . S
C7440 H7430 0.930 . S
C7440 C7439 1.400 . S
C7440 C7443 1.386 . S
H7441 C7457 0.930 . S
H7442 C7458 0.931 . S
C7443 H7431 0.929 . S
C7443 C7437 1.390 . S
C7443 C7440 1.386 . S
C7444 C7439 1.490 . S
C7444 C7446 1.395 . S
C7444 C7447 1.403 . S
H7445 C7451 0.930 . S
C7446 H7432 0.930 . S
C7446 C7444 1.395 . S
C7446 C7449 1.403 . S
C7447 C7444 1.403 . S
C7447 C7448 1.524 . S
C7447 C7451 1.400 . S
C7448 H7433 0.960 . S
C7448 H7434 0.960 . S
C7448 H7435 0.960 . S
C7448 C7447 1.524 . S
C7449 C7446 1.403 . S
C7449 C7450 1.392 . S
C7449 C7453 1.495 . S
C7450 C7449 1.392 . S
C7450 C7451 1.385 . S
C7450 C7452 1.478 . S
C7451 H7445 0.930 . S
C7451 C7447 1.400 . S
C7451 C7450 1.385 . S
C7452 C7450 1.478 . S
C7452 C7454 1.381 . S
C7452 C7458 1.383 . S
C7453 C7449 1.495 . S
C7453 H7459 0.959 . S
C7453 H7460 0.961 . S
C7453 H7461 0.960 . S
C7454 C7452 1.381 . S
C7454 C7455 1.394 . S
C7454 H7462 0.930 . S
C7455 C7454 1.394 . S
C7455 C7456 1.383 . S
C7455 H7463 0.929 . S
C7456 C7455 1.383 . S
C7456 C7457 1.377 . S
C7457 H7441 0.930 . S
C7457 C7456 1.377 . S
C7457 C7458 1.379 . S
C7458 H7442 0.931 . S
C7458 C7452 1.383 . S
C7458 C7457 1.379 . S
H7459 C7453 0.959 . S
H7460 C7453 0.961 . S
H7461 C7453 0.960 . S
H7462 C7454 0.930 . S
H7463 C7455 0.929 . S
H7464 C7472 0.929 . S
H7465 C7474 0.930 . S
H7466 C7476 0.930 . S
H7467 C7479 0.929 . S
H7468 C7482 0.930 . S
H7469 C7484 0.960 . S
H7470 C7484 0.960 . S
H7471 C7484 0.960 . S
C7472 H7464 0.929 . S
C7472 C7473 1.377 . S
C7472 C7474 1.384 . S
C7473 C7472 1.377 . S
C7473 C7479 1.390 . S
C7474 H7465 0.930 . S
C7474 C7472 1.384 . S
C7474 C7475 1.372 . S
C7475 C7474 1.372 . S
C7475 C7476 1.400 . S
C7475 C7480 1.490 . S
C7476 H7466 0.930 . S
C7476 C7475 1.400 . S
C7476 C7479 1.386 . S
H7477 C7493 0.930 . S
H7478 C7494 0.931 . S
C7479 H7467 0.929 . S
C7479 C7473 1.390 . S
C7479 C7476 1.386 . S
C7480 C7475 1.490 . S
C7480 C7482 1.395 . S
C7480 C7483 1.403 . S
H7481 C7487 0.930 . S
C7482 H7468 0.930 . S
C7482 C7480 1.395 . S
C7482 C7485 1.403 . S
C7483 C7480 1.403 . S
C7483 C7484 1.524 . S
C7483 C7487 1.400 . S
C7484 H7469 0.960 . S
C7484 H7470 0.960 . S
C7484 H7471 0.960 . S
C7484 C7483 1.524 . S
C7485 C7482 1.403 . S
C7485 C7486 1.392 . S
C7485 C7489 1.495 . S
C7486 C7485 1.392 . S
C7486 C7487 1.385 . S
C7486 C7488 1.478 . S
C7487 H7481 0.930 . S
C7487 C7483 1.400 . S
C7487 C7486 1.385 . S
C7488 C7486 1.478 . S
C7488 C7490 1.381 . S
C7488 C7494 1.383 . S
C7489 C7485 1.495 . S
C7489 H7495 0.959 . S
C7489 H7496 0.961 . S
C7489 H7497 0.960 . S
C7490 C7488 1.381 . S
C7490 C7491 1.394 . S
C7490 H7498 0.930 . S
C7491 C7490 1.394 . S
C7491 C7492 1.383 . S
C7491 H7499 0.929 . S
C7492 C7491 1.383 . S
C7492 C7493 1.377 . S
C7493 H7477 0.930 . S
C7493 C7492 1.377 . S
C7493 C7494 1.379 . S
C7494 H7478 0.931 . S
C7494 C7488 1.383 . S
C7494 C7493 1.379 . S
H7495 C7489 0.959 . S
H7496 C7489 0.961 . S
H7497 C7489 0.960 . S
H7498 C7490 0.930 . S
H7499 C7491 0.929 . S
H7500 C7508 0.929 . S
H7501 C7510 0.930 . S
H7502 C7512 0.930 . S
H7503 C7515 0.929 . S
H7504 C7518 0.930 . S
H7505 C7520 0.960 . S
H7506 C7520 0.960 . S
H7507 C7520 0.960 . S
C7508 H7500 0.929 . S
C7508 C7509 1.377 . S
C7508 C7510 1.384 . S
C7509 C7508 1.377 . S
C7509 C7515 1.390 . S
C7510 H7501 0.930 . S
C7510 C7508 1.384 . S
C7510 C7511 1.372 . S
C7511 C7510 1.372 . S
C7511 C7512 1.400 . S
C7511 C7516 1.490 . S
C7512 H7502 0.930 . S
C7512 C7511 1.400 . S
C7512 C7515 1.386 . S
H7513 C7529 0.930 . S
H7514 C7530 0.931 . S
C7515 H7503 0.929 . S
C7515 C7509 1.390 . S
C7515 C7512 1.386 . S
C7516 C7511 1.490 . S
C7516 C7518 1.395 . S
C7516 C7519 1.403 . S
H7517 C7523 0.930 . S
C7518 H7504 0.930 . S
C7518 C7516 1.395 . S
C7518 C7521 1.403 . S
C7519 C7516 1.403 . S
C7519 C7520 1.524 . S
C7519 C7523 1.400 . S
C7520 H7505 0.960 . S
C7520 H7506 0.960 . S
C7520 H7507 0.960 . S
C7520 C7519 1.524 . S
C7521 C7518 1.403 . S
C7521 C7522 1.392 . S
C7521 C7525 1.495 . S
C7522 C7521 1.392 . S
C7522 C7523 1.385 . S
C7522 C7524 1.478 . S
C7523 H7517 0.930 . S
C7523 C7519 1.400 . S
C7523 C7522 1.385 . S
C7524 C7522 1.478 . S
C7524 C7526 1.381 . S
C7524 C7530 1.383 . S
C7525 C7521 1.495 . S
C7525 H7531 0.959 . S
C7525 H7532 0.961 . S
C7525 H7533 0.960 . S
C7526 C7524 1.381 . S
C7526 C7527 1.394 . S
C7526 H7534 0.930 . S
C7527 C7526 1.394 . S
C7527 C7528 1.383 . S
C7527 H7535 0.929 . S
C7528 C7527 1.383 . S
C7528 C7529 1.377 . S
C7529 H7513 0.930 . S
C7529 C7528 1.377 . S
C7529 C7530 1.379 . S
C7530 H7514 0.931 . S
C7530 C7524 1.383 . S
C7530 C7529 1.379 . S
H7531 C7525 0.959 . S
H7532 C7525 0.961 . S
H7533 C7525 0.960 . S
H7534 C7526 0.930 . S
H7535 C7527 0.929 . S
H7536 C7544 0.929 . S
H7537 C7546 0.930 . S
H7538 C7548 0.930 . S
H7539 C7551 0.929 . S
H7540 C7554 0.930 . S
H7541 C7556 0.960 . S
H7542 C7556 0.960 . S
H7543 C7556 0.960 . S
C7544 H7536 0.929 . S
C7544 C7545 1.377 . S
C7544 C7546 1.384 . S
C7545 C7544 1.377 . S
C7545 C7551 1.390 . S
C7546 H7537 0.930 . S
C7546 C7544 1.384 . S
C7546 C7547 1.372 . S
C7547 C7546 1.372 . S
C7547 C7548 1.400 . S
C7547 C7552 1.490 . S
C7548 H7538 0.930 . S
C7548 C7547 1.400 . S
C7548 C7551 1.386 . S
H7549 C7565 0.930 . S
H7550 C7566 0.931 . S
C7551 H7539 0.929 . S
C7551 C7545 1.390 . S
C7551 C7548 1.386 . S
C7552 C7547 1.490 . S
C7552 C7554 1.395 . S
C7552 C7555 1.403 . S
H7553 C7559 0.930 . S
C7554 H7540 0.930 . S
C7554 C7552 1.395 . S
C7554 C7557 1.403 . S
C7555 C7552 1.403 . S
C7555 C7556 1.524 . S
C7555 C7559 1.400 . S
C7556 H7541 0.960 . S
C7556 H7542 0.960 . S
C7556 H7543 0.960 . S
C7556 C7555 1.524 . S
C7557 C7554 1.403 . S
C7557 C7558 1.392 . S
C7557 C7561 1.495 . S
C7558 C7557 1.392 . S
C7558 C7559 1.385 . S
C7558 C7560 1.478 . S
C7559 H7553 0.930 . S
C7559 C7555 1.400 . S
C7559 C7558 1.385 . S
C7560 C7558 1.478 . S
C7560 C7562 1.381 . S
C7560 C7566 1.383 . S
C7561 C7557 1.495 . S
C7561 H7567 0.959 . S
C7561 H7568 0.961 . S
C7561 H7569 0.960 . S
C7562 C7560 1.381 . S
C7562 C7563 1.394 . S
C7562 H7570 0.930 . S
C7563 C7562 1.394 . S
C7563 C7564 1.383 . S
C7563 H7571 0.929 . S
C7564 C7563 1.383 . S
C7564 C7565 1.377 . S
C7565 H7549 0.930 . S
C7565 C7564 1.377 . S
C7565 C7566 1.379 . S
C7566 H7550 0.931 . S
C7566 C7560 1.383 . S
C7566 C7565 1.379 . S
H7567 C7561 0.959 . S
H7568 C7561 0.961 . S
H7569 C7561 0.960 . S
H7570 C7562 0.930 . S
H7571 C7563 0.929 . S
H7572 C7580 0.929 . S
H7573 C7582 0.930 . S
H7574 C7584 0.930 . S
H7575 C7587 0.929 . S
H7576 C7590 0.930 . S
H7577 C7592 0.960 . S
H7578 C7592 0.960 . S
H7579 C7592 0.960 . S
C7580 H7572 0.929 . S
C7580 C7581 1.377 . S
C7580 C7582 1.384 . S
C7581 C7580 1.377 . S
C7581 C7587 1.390 . S
C7582 H7573 0.930 . S
C7582 C7580 1.384 . S
C7582 C7583 1.372 . S
C7583 C7582 1.372 . S
C7583 C7584 1.400 . S
C7583 C7588 1.490 . S
C7584 H7574 0.930 . S
C7584 C7583 1.400 . S
C7584 C7587 1.386 . S
H7585 C7601 0.930 . S
H7586 C7602 0.931 . S
C7587 H7575 0.929 . S
C7587 C7581 1.390 . S
C7587 C7584 1.386 . S
C7588 C7583 1.490 . S
C7588 C7590 1.395 . S
C7588 C7591 1.403 . S
H7589 C7595 0.930 . S
C7590 H7576 0.930 . S
C7590 C7588 1.395 . S
C7590 C7593 1.403 . S
C7591 C7588 1.403 . S
C7591 C7592 1.524 . S
C7591 C7595 1.400 . S
C7592 H7577 0.960 . S
C7592 H7578 0.960 . S
C7592 H7579 0.960 . S
C7592 C7591 1.524 . S
C7593 C7590 1.403 . S
C7593 C7594 1.392 . S
C7593 C7597 1.495 . S
C7594 C7593 1.392 . S
C7594 C7595 1.385 . S
C7594 C7596 1.478 . S
C7595 H7589 0.930 . S
C7595 C7591 1.400 . S
C7595 C7594 1.385 . S
C7596 C7594 1.478 . S
C7596 C7598 1.381 . S
C7596 C7602 1.383 . S
C7597 C7593 1.495 . S
C7597 H7603 0.959 . S
C7597 H7604 0.961 . S
C7597 H7605 0.960 . S
C7598 C7596 1.381 . S
C7598 C7599 1.394 . S
C7598 H7606 0.930 . S
C7599 C7598 1.394 . S
C7599 C7600 1.383 . S
C7599 H7607 0.929 . S
C7600 C7599 1.383 . S
C7600 C7601 1.377 . S
C7601 H7585 0.930 . S
C7601 C7600 1.377 . S
C7601 C7602 1.379 . S
C7602 H7586 0.931 . S
C7602 C7596 1.383 . S
C7602 C7601 1.379 . S
H7603 C7597 0.959 . S
H7604 C7597 0.961 . S
H7605 C7597 0.960 . S
H7606 C7598 0.930 . S
H7607 C7599 0.929 . S
H7608 C7616 0.929 . S
H7609 C7618 0.930 . S
H7610 C7620 0.930 . S
H7611 C7623 0.929 . S
H7612 C7626 0.930 . S
H7613 C7628 0.960 . S
H7614 C7628 0.960 . S
H7615 C7628 0.960 . S
C7616 H7608 0.929 . S
C7616 C7617 1.377 . S
C7616 C7618 1.384 . S
C7617 C7616 1.377 . S
C7617 C7623 1.390 . S
C7618 H7609 0.930 . S
C7618 C7616 1.384 . S
C7618 C7619 1.372 . S
C7619 C7618 1.372 . S
C7619 C7620 1.400 . S
C7619 C7624 1.490 . S
C7620 H7610 0.930 . S
C7620 C7619 1.400 . S
C7620 C7623 1.386 . S
H7621 C7637 0.930 . S
H7622 C7638 0.931 . S
C7623 H7611 0.929 . S
C7623 C7617 1.390 . S
C7623 C7620 1.386 . S
C7624 C7619 1.490 . S
C7624 C7626 1.395 . S
C7624 C7627 1.403 . S
H7625 C7631 0.930 . S
C7626 H7612 0.930 . S
C7626 C7624 1.395 . S
C7626 C7629 1.403 . S
C7627 C7624 1.403 . S
C7627 C7628 1.524 . S
C7627 C7631 1.400 . S
C7628 H7613 0.960 . S
C7628 H7614 0.960 . S
C7628 H7615 0.960 . S
C7628 C7627 1.524 . S
C7629 C7626 1.403 . S
C7629 C7630 1.392 . S
C7629 C7633 1.495 . S
C7630 C7629 1.392 . S
C7630 C7631 1.385 . S
C7630 C7632 1.478 . S
C7631 H7625 0.930 . S
C7631 C7627 1.400 . S
C7631 C7630 1.385 . S
C7632 C7630 1.478 . S
C7632 C7634 1.381 . S
C7632 C7638 1.383 . S
C7633 C7629 1.495 . S
C7633 H7639 0.959 . S
C7633 H7640 0.961 . S
C7633 H7641 0.960 . S
C7634 C7632 1.381 . S
C7634 C7635 1.394 . S
C7634 H7642 0.930 . S
C7635 C7634 1.394 . S
C7635 C7636 1.383 . S
C7635 H7643 0.929 . S
C7636 C7635 1.383 . S
C7636 C7637 1.377 . S
C7637 H7621 0.930 . S
C7637 C7636 1.377 . S
C7637 C7638 1.379 . S
C7638 H7622 0.931 . S
C7638 C7632 1.383 . S
C7638 C7637 1.379 . S
H7639 C7633 0.959 . S
H7640 C7633 0.961 . S
H7641 C7633 0.960 . S
H7642 C7634 0.930 . S
H7643 C7635 0.929 . S
H7644 C7652 0.929 . S
H7645 C7654 0.930 . S
H7646 C7656 0.930 . S
H7647 C7659 0.929 . S
H7648 C7662 0.930 . S
H7649 C7664 0.960 . S
H7650 C7664 0.960 . S
H7651 C7664 0.960 . S
C7652 H7644 0.929 . S
C7652 C7653 1.377 . S
C7652 C7654 1.384 . S
C7653 C7652 1.377 . S
C7653 C7659 1.390 . S
C7654 H7645 0.930 . S
C7654 C7652 1.384 . S
C7654 C7655 1.372 . S
C7655 C7654 1.372 . S
C7655 C7656 1.400 . S
C7655 C7660 1.490 . S
C7656 H7646 0.930 . S
C7656 C7655 1.400 . S
C7656 C7659 1.386 . S
H7657 C7673 0.930 . S
H7658 C7674 0.931 . S
C7659 H7647 0.929 . S
C7659 C7653 1.390 . S
C7659 C7656 1.386 . S
C7660 C7655 1.490 . S
C7660 C7662 1.395 . S
C7660 C7663 1.403 . S
H7661 C7667 0.930 . S
C7662 H7648 0.930 . S
C7662 C7660 1.395 . S
C7662 C7665 1.403 . S
C7663 C7660 1.403 . S
C7663 C7664 1.524 . S
C7663 C7667 1.400 . S
C7664 H7649 0.960 . S
C7664 H7650 0.960 . S
C7664 H7651 0.960 . S
C7664 C7663 1.524 . S
C7665 C7662 1.403 . S
C7665 C7666 1.392 . S
C7665 C7669 1.495 . S
C7666 C7665 1.392 . S
C7666 C7667 1.385 . S
C7666 C7668 1.478 . S
C7667 H7661 0.930 . S
C7667 C7663 1.400 . S
C7667 C7666 1.385 . S
C7668 C7666 1.478 . S
C7668 C7670 1.381 . S
C7668 C7674 1.383 . S
C7669 C7665 1.495 . S
C7669 H7675 0.959 . S
C7669 H7676 0.961 . S
C7669 H7677 0.960 . S
C7670 C7668 1.381 . S
C7670 C7671 1.394 . S
C7670 H7678 0.930 . S
C7671 C7670 1.394 . S
C7671 C7672 1.383 . S
C7671 H7679 0.929 . S
C7672 C7671 1.383 . S
C7672 C7673 1.377 . S
C7673 H7657 0.930 . S
C7673 C7672 1.377 . S
C7673 C7674 1.379 . S
C7674 H7658 0.931 . S
C7674 C7668 1.383 . S
C7674 C7673 1.379 . S
H7675 C7669 0.959 . S
H7676 C7669 0.961 . S
H7677 C7669 0.960 . S
H7678 C7670 0.930 . S
H7679 C7671 0.929 . S
H7680 C7688 0.929 . S
H7681 C7690 0.930 . S
H7682 C7692 0.930 . S
H7683 C7695 0.929 . S
H7684 C7698 0.930 . S
H7685 C7700 0.960 . S
H7686 C7700 0.960 . S
H7687 C7700 0.960 . S
C7688 H7680 0.929 . S
C7688 C7689 1.377 . S
C7688 C7690 1.384 . S
C7689 C7688 1.377 . S
C7689 C7695 1.390 . S
C7690 H7681 0.930 . S
C7690 C7688 1.384 . S
C7690 C7691 1.372 . S
C7691 C7690 1.372 . S
C7691 C7692 1.400 . S
C7691 C7696 1.490 . S
C7692 H7682 0.930 . S
C7692 C7691 1.400 . S
C7692 C7695 1.386 . S
H7693 C7709 0.930 . S
H7694 C7710 0.931 . S
C7695 H7683 0.929 . S
C7695 C7689 1.390 . S
C7695 C7692 1.386 . S
C7696 C7691 1.490 . S
C7696 C7698 1.395 . S
C7696 C7699 1.403 . S
H7697 C7703 0.930 . S
C7698 H7684 0.930 . S
C7698 C7696 1.395 . S
C7698 C7701 1.403 . S
C7699 C7696 1.403 . S
C7699 C7700 1.524 . S
C7699 C7703 1.400 . S
C7700 H7685 0.960 . S
C7700 H7686 0.960 . S
C7700 H7687 0.960 . S
C7700 C7699 1.524 . S
C7701 C7698 1.403 . S
C7701 C7702 1.392 . S
C7701 C7705 1.495 . S
C7702 C7701 1.392 . S
C7702 C7703 1.385 . S
C7702 C7704 1.478 . S
C7703 H7697 0.930 . S
C7703 C7699 1.400 . S
C7703 C7702 1.385 . S
C7704 C7702 1.478 . S
C7704 C7706 1.381 . S
C7704 C7710 1.383 . S
C7705 C7701 1.495 . S
C7705 H7711 0.959 . S
C7705 H7712 0.961 . S
C7705 H7713 0.960 . S
C7706 C7704 1.381 . S
C7706 C7707 1.394 . S
C7706 H7714 0.930 . S
C7707 C7706 1.394 . S
C7707 C7708 1.383 . S
C7707 H7715 0.929 . S
C7708 C7707 1.383 . S
C7708 C7709 1.377 . S
C7709 H7693 0.930 . S
C7709 C7708 1.377 . S
C7709 C7710 1.379 . S
C7710 H7694 0.931 . S
C7710 C7704 1.383 . S
C7710 C7709 1.379 . S
H7711 C7705 0.959 . S
H7712 C7705 0.961 . S
H7713 C7705 0.960 . S
H7714 C7706 0.930 . S
H7715 C7707 0.929 . S
H7716 C7724 0.929 . S
H7717 C7726 0.930 . S
H7718 C7728 0.930 . S
H7719 C7731 0.929 . S
H7720 C7734 0.930 . S
H7721 C7736 0.960 . S
H7722 C7736 0.960 . S
H7723 C7736 0.960 . S
C7724 H7716 0.929 . S
C7724 C7725 1.377 . S
C7724 C7726 1.384 . S
C7725 C7724 1.377 . S
C7725 C7731 1.390 . S
C7726 H7717 0.930 . S
C7726 C7724 1.384 . S
C7726 C7727 1.372 . S
C7727 C7726 1.372 . S
C7727 C7728 1.400 . S
C7727 C7732 1.490 . S
C7728 H7718 0.930 . S
C7728 C7727 1.400 . S
C7728 C7731 1.386 . S
H7729 C7745 0.930 . S
H7730 C7746 0.931 . S
C7731 H7719 0.929 . S
C7731 C7725 1.390 . S
C7731 C7728 1.386 . S
C7732 C7727 1.490 . S
C7732 C7734 1.395 . S
C7732 C7735 1.403 . S
H7733 C7739 0.930 . S
C7734 H7720 0.930 . S
C7734 C7732 1.395 . S
C7734 C7737 1.403 . S
C7735 C7732 1.403 . S
C7735 C7736 1.524 . S
C7735 C7739 1.400 . S
C7736 H7721 0.960 . S
C7736 H7722 0.960 . S
C7736 H7723 0.960 . S
C7736 C7735 1.524 . S
C7737 C7734 1.403 . S
C7737 C7738 1.392 . S
C7737 C7741 1.495 . S
C7738 C7737 1.392 . S
C7738 C7739 1.385 . S
C7738 C7740 1.478 . S
C7739 H7733 0.930 . S
C7739 C7735 1.400 . S
C7739 C7738 1.385 . S
C7740 C7738 1.478 . S
C7740 C7742 1.381 . S
C7740 C7746 1.383 . S
C7741 C7737 1.495 . S
C7741 H7747 0.959 . S
C7741 H7748 0.961 . S
C7741 H7749 0.960 . S
C7742 C7740 1.381 . S
C7742 C7743 1.394 . S
C7742 H7750 0.930 . S
C7743 C7742 1.394 . S
C7743 C7744 1.383 . S
C7743 H7751 0.929 . S
C7744 C7743 1.383 . S
C7744 C7745 1.377 . S
C7745 H7729 0.930 . S
C7745 C7744 1.377 . S
C7745 C7746 1.379 . S
C7746 H7730 0.931 . S
C7746 C7740 1.383 . S
C7746 C7745 1.379 . S
H7747 C7741 0.959 . S
H7748 C7741 0.961 . S
H7749 C7741 0.960 . S
H7750 C7742 0.930 . S
H7751 C7743 0.929 . S
H7752 C7760 0.929 . S
H7753 C7762 0.930 . S
H7754 C7764 0.930 . S
H7755 C7767 0.929 . S
H7756 C7770 0.930 . S
H7757 C7772 0.960 . S
H7758 C7772 0.960 . S
H7759 C7772 0.960 . S
C7760 H7752 0.929 . S
C7760 C7761 1.377 . S
C7760 C7762 1.384 . S
C7761 C7760 1.377 . S
C7761 C7767 1.390 . S
C7762 H7753 0.930 . S
C7762 C7760 1.384 . S
C7762 C7763 1.372 . S
C7763 C7762 1.372 . S
C7763 C7764 1.400 . S
C7763 C7768 1.490 . S
C7764 H7754 0.930 . S
C7764 C7763 1.400 . S
C7764 C7767 1.386 . S
H7765 C7781 0.930 . S
H7766 C7782 0.931 . S
C7767 H7755 0.929 . S
C7767 C7761 1.390 . S
C7767 C7764 1.386 . S
C7768 C7763 1.490 . S
C7768 C7770 1.395 . S
C7768 C7771 1.403 . S
H7769 C7775 0.930 . S
C7770 H7756 0.930 . S
C7770 C7768 1.395 . S
C7770 C7773 1.403 . S
C7771 C7768 1.403 . S
C7771 C7772 1.524 . S
C7771 C7775 1.400 . S
C7772 H7757 0.960 . S
C7772 H7758 0.960 . S
C7772 H7759 0.960 . S
C7772 C7771 1.524 . S
C7773 C7770 1.403 . S
C7773 C7774 1.392 . S
C7773 C7777 1.495 . S
C7774 C7773 1.392 . S
C7774 C7775 1.385 . S
C7774 C7776 1.478 . S
C7775 H7769 0.930 . S
C7775 C7771 1.400 . S
C7775 C7774 1.385 . S
C7776 C7774 1.478 . S
C7776 C7778 1.381 . S
C7776 C7782 1.383 . S
C7777 C7773 1.495 . S
C7777 H7783 0.959 . S
C7777 H7784 0.961 . S
C7777 H7785 0.960 . S
C7778 C7776 1.381 . S
C7778 C7779 1.394 . S
C7778 H7786 0.930 . S
C7779 C7778 1.394 . S
C7779 C7780 1.383 . S
C7779 H7787 0.929 . S
C7780 C7779 1.383 . S
C7780 C7781 1.377 . S
C7781 H7765 0.930 . S
C7781 C7780 1.377 . S
C7781 C7782 1.379 . S
C7782 H7766 0.931 . S
C7782 C7776 1.383 . S
C7782 C7781 1.379 . S
H7783 C7777 0.959 . S
H7784 C7777 0.961 . S
H7785 C7777 0.960 . S
H7786 C7778 0.930 . S
H7787 C7779 0.929 . S
H7788 C7796 0.929 . S
H7789 C7798 0.930 . S
H7790 C7800 0.930 . S
H7791 C7803 0.929 . S
H7792 C7806 0.930 . S
H7793 C7808 0.960 . S
H7794 C7808 0.960 . S
H7795 C7808 0.960 . S
C7796 H7788 0.929 . S
C7796 C7797 1.377 . S
C7796 C7798 1.384 . S
C7797 C7796 1.377 . S
C7797 C7803 1.390 . S
C7798 H7789 0.930 . S
C7798 C7796 1.384 . S
C7798 C7799 1.372 . S
C7799 C7798 1.372 . S
C7799 C7800 1.400 . S
C7799 C7804 1.490 . S
C7800 H7790 0.930 . S
C7800 C7799 1.400 . S
C7800 C7803 1.386 . S
H7801 C7817 0.930 . S
H7802 C7818 0.931 . S
C7803 H7791 0.929 . S
C7803 C7797 1.390 . S
C7803 C7800 1.386 . S
C7804 C7799 1.490 . S
C7804 C7806 1.395 . S
C7804 C7807 1.403 . S
H7805 C7811 0.930 . S
C7806 H7792 0.930 . S
C7806 C7804 1.395 . S
C7806 C7809 1.403 . S
C7807 C7804 1.403 . S
C7807 C7808 1.524 . S
C7807 C7811 1.400 . S
C7808 H7793 0.960 . S
C7808 H7794 0.960 . S
C7808 H7795 0.960 . S
C7808 C7807 1.524 . S
C7809 C7806 1.403 . S
C7809 C7810 1.392 . S
C7809 C7813 1.495 . S
C7810 C7809 1.392 . S
C7810 C7811 1.385 . S
C7810 C7812 1.478 . S
C7811 H7805 0.930 . S
C7811 C7807 1.400 . S
C7811 C7810 1.385 . S
C7812 C7810 1.478 . S
C7812 C7814 1.381 . S
C7812 C7818 1.383 . S
C7813 C7809 1.495 . S
C7813 H7819 0.959 . S
C7813 H7820 0.961 . S
C7813 H7821 0.960 . S
C7814 C7812 1.381 . S
C7814 C7815 1.394 . S
C7814 H7822 0.930 . S
C7815 C7814 1.394 . S
C7815 C7816 1.383 . S
C7815 H7823 0.929 . S
C7816 C7815 1.383 . S
C7816 C7817 1.377 . S
C7817 H7801 0.930 . S
C7817 C7816 1.377 . S
C7817 C7818 1.379 . S
C7818 H7802 0.931 . S
C7818 C7812 1.383 . S
C7818 C7817 1.379 . S
H7819 C7813 0.959 . S
H7820 C7813 0.961 . S
H7821 C7813 0.960 . S
H7822 C7814 0.930 . S
H7823 C7815 0.929 . S
H7824 C7832 0.929 . S
H7825 C7834 0.930 . S
H7826 C7836 0.930 . S
H7827 C7839 0.929 . S
H7828 C7842 0.930 . S
H7829 C7844 0.960 . S
H7830 C7844 0.960 . S
H7831 C7844 0.960 . S
C7832 H7824 0.929 . S
C7832 C7833 1.377 . S
C7832 C7834 1.384 . S
C7833 C7832 1.377 . S
C7833 C7839 1.390 . S
C7834 H7825 0.930 . S
C7834 C7832 1.384 . S
C7834 C7835 1.372 . S
C7835 C7834 1.372 . S
C7835 C7836 1.400 . S
C7835 C7840 1.490 . S
C7836 H7826 0.930 . S
C7836 C7835 1.400 . S
C7836 C7839 1.386 . S
H7837 C7853 0.930 . S
H7838 C7854 0.931 . S
C7839 H7827 0.929 . S
C7839 C7833 1.390 . S
C7839 C7836 1.386 . S
C7840 C7835 1.490 . S
C7840 C7842 1.395 . S
C7840 C7843 1.403 . S
H7841 C7847 0.930 . S
C7842 H7828 0.930 . S
C7842 C7840 1.395 . S
C7842 C7845 1.403 . S
C7843 C7840 1.403 . S
C7843 C7844 1.524 . S
C7843 C7847 1.400 . S
C7844 H7829 0.960 . S
C7844 H7830 0.960 . S
C7844 H7831 0.960 . S
C7844 C7843 1.524 . S
C7845 C7842 1.403 . S
C7845 C7846 1.392 . S
C7845 C7849 1.495 . S
C7846 C7845 1.392 . S
C7846 C7847 1.385 . S
C7846 C7848 1.478 . S
C7847 H7841 0.930 . S
C7847 C7843 1.400 . S
C7847 C7846 1.385 . S
C7848 C7846 1.478 . S
C7848 C7850 1.381 . S
C7848 C7854 1.383 . S
C7849 C7845 1.495 . S
C7849 H7855 0.959 . S
C7849 H7856 0.961 . S
C7849 H7857 0.960 . S
C7850 C7848 1.381 . S
C7850 C7851 1.394 . S
C7850 H7858 0.930 . S
C7851 C7850 1.394 . S
C7851 C7852 1.383 . S
C7851 H7859 0.929 . S
C7852 C7851 1.383 . S
C7852 C7853 1.377 . S
C7853 H7837 0.930 . S
C7853 C7852 1.377 . S
C7853 C7854 1.379 . S
C7854 H7838 0.931 . S
C7854 C7848 1.383 . S
C7854 C7853 1.379 . S
H7855 C7849 0.959 . S
H7856 C7849 0.961 . S
H7857 C7849 0.960 . S
H7858 C7850 0.930 . S
H7859 C7851 0.929 . S
H7860 C7868 0.929 . S
H7861 C7870 0.930 . S
H7862 C7872 0.930 . S
H7863 C7875 0.929 . S
H7864 C7878 0.930 . S
H7865 C7880 0.960 . S
H7866 C7880 0.960 . S
H7867 C7880 0.960 . S
C7868 H7860 0.929 . S
C7868 C7869 1.377 . S
C7868 C7870 1.384 . S
C7869 C7868 1.377 . S
C7869 C7875 1.390 . S
C7870 H7861 0.930 . S
C7870 C7868 1.384 . S
C7870 C7871 1.372 . S
C7871 C7870 1.372 . S
C7871 C7872 1.400 . S
C7871 C7876 1.490 . S
C7872 H7862 0.930 . S
C7872 C7871 1.400 . S
C7872 C7875 1.386 . S
H7873 C7889 0.930 . S
H7874 C7890 0.931 . S
C7875 H7863 0.929 . S
C7875 C7869 1.390 . S
C7875 C7872 1.386 . S
C7876 C7871 1.490 . S
C7876 C7878 1.395 . S
C7876 C7879 1.403 . S
H7877 C7883 0.930 . S
C7878 H7864 0.930 . S
C7878 C7876 1.395 . S
C7878 C7881 1.403 . S
C7879 C7876 1.403 . S
C7879 C7880 1.524 . S
C7879 C7883 1.400 . S
C7880 H7865 0.960 . S
C7880 H7866 0.960 . S
C7880 H7867 0.960 . S
C7880 C7879 1.524 . S
C7881 C7878 1.403 . S
C7881 C7882 1.392 . S
C7881 C7885 1.495 . S
C7882 C7881 1.392 . S
C7882 C7883 1.385 . S
C7882 C7884 1.478 . S
C7883 H7877 0.930 . S
C7883 C7879 1.400 . S
C7883 C7882 1.385 . S
C7884 C7882 1.478 . S
C7884 C7886 1.381 . S
C7884 C7890 1.383 . S
C7885 C7881 1.495 . S
C7885 H7891 0.959 . S
C7885 H7892 0.961 . S
C7885 H7893 0.960 . S
C7886 C7884 1.381 . S
C7886 C7887 1.394 . S
C7886 H7894 0.930 . S
C7887 C7886 1.394 . S
C7887 C7888 1.383 . S
C7887 H7895 0.929 . S
C7888 C7887 1.383 . S
C7888 C7889 1.377 . S
C7889 H7873 0.930 . S
C7889 C7888 1.377 . S
C7889 C7890 1.379 . S
C7890 H7874 0.931 . S
C7890 C7884 1.383 . S
C7890 C7889 1.379 . S
H7891 C7885 0.959 . S
H7892 C7885 0.961 . S
H7893 C7885 0.960 . S
H7894 C7886 0.930 . S
H7895 C7887 0.929 . S
H7896 C7904 0.929 . S
H7897 C7906 0.930 . S
H7898 C7908 0.930 . S
H7899 C7911 0.929 . S
H7900 C7914 0.930 . S
H7901 C7916 0.960 . S
H7902 C7916 0.960 . S
H7903 C7916 0.960 . S
C7904 H7896 0.929 . S
C7904 C7905 1.377 . S
C7904 C7906 1.384 . S
C7905 C7904 1.377 . S
C7905 C7911 1.390 . S
C7906 H7897 0.930 . S
C7906 C7904 1.384 . S
C7906 C7907 1.372 . S
C7907 C7906 1.372 . S
C7907 C7908 1.400 . S
C7907 C7912 1.490 . S
C7908 H7898 0.930 . S
C7908 C7907 1.400 . S
C7908 C7911 1.386 . S
H7909 C7925 0.930 . S
H7910 C7926 0.931 . S
C7911 H7899 0.929 . S
C7911 C7905 1.390 . S
C7911 C7908 1.386 . S
C7912 C7907 1.490 . S
C7912 C7914 1.395 . S
C7912 C7915 1.403 . S
H7913 C7919 0.930 . S
C7914 H7900 0.930 . S
C7914 C7912 1.395 . S
C7914 C7917 1.403 . S
C7915 C7912 1.403 . S
C7915 C7916 1.524 . S
C7915 C7919 1.400 . S
C7916 H7901 0.960 . S
C7916 H7902 0.960 . S
C7916 H7903 0.960 . S
C7916 C7915 1.524 . S
C7917 C7914 1.403 . S
C7917 C7918 1.392 . S
C7917 C7921 1.495 . S
C7918 C7917 1.392 . S
C7918 C7919 1.385 . S
C7918 C7920 1.478 . S
C7919 H7913 0.930 . S
C7919 C7915 1.400 . S
C7919 C7918 1.385 . S
C7920 C7918 1.478 . S
C7920 C7922 1.381 . S
C7920 C7926 1.383 . S
C7921 C7917 1.495 . S
C7921 H7927 0.959 . S
C7921 H7928 0.961 . S
C7921 H7929 0.960 . S
C7922 C7920 1.381 . S
C7922 C7923 1.394 . S
C7922 H7930 0.930 . S
C7923 C7922 1.394 . S
C7923 C7924 1.383 . S
C7923 H7931 0.929 . S
C7924 C7923 1.383 . S
C7924 C7925 1.377 . S
C7925 H7909 0.930 . S
C7925 C7924 1.377 . S
C7925 C7926 1.379 . S
C7926 H7910 0.931 . S
C7926 C7920 1.383 . S
C7926 C7925 1.379 . S
H7927 C7921 0.959 . S
H7928 C7921 0.961 . S
H7929 C7921 0.960 . S
H7930 C7922 0.930 . S
H7931 C7923 0.929 . S
H7932 C7940 0.929 . S
H7933 C7942 0.930 . S
H7934 C7944 0.930 . S
H7935 C7947 0.929 . S
H7936 C7950 0.930 . S
H7937 C7952 0.960 . S
H7938 C7952 0.960 . S
H7939 C7952 0.960 . S
C7940 H7932 0.929 . S
C7940 C7941 1.377 . S
C7940 C7942 1.384 . S
C7941 C7940 1.377 . S
C7941 C7947 1.390 . S
C7942 H7933 0.930 . S
C7942 C7940 1.384 . S
C7942 C7943 1.372 . S
C7943 C7942 1.372 . S
C7943 C7944 1.400 . S
C7943 C7948 1.490 . S
C7944 H7934 0.930 . S
C7944 C7943 1.400 . S
C7944 C7947 1.386 . S
H7945 C7961 0.930 . S
H7946 C7962 0.931 . S
C7947 H7935 0.929 . S
C7947 C7941 1.390 . S
C7947 C7944 1.386 . S
C7948 C7943 1.490 . S
C7948 C7950 1.395 . S
C7948 C7951 1.403 . S
H7949 C7955 0.930 . S
C7950 H7936 0.930 . S
C7950 C7948 1.395 . S
C7950 C7953 1.403 . S
C7951 C7948 1.403 . S
C7951 C7952 1.524 . S
C7951 C7955 1.400 . S
C7952 H7937 0.960 . S
C7952 H7938 0.960 . S
C7952 H7939 0.960 . S
C7952 C7951 1.524 . S
C7953 C7950 1.403 . S
C7953 C7954 1.392 . S
C7953 C7957 1.495 . S
C7954 C7953 1.392 . S
C7954 C7955 1.385 . S
C7954 C7956 1.478 . S
C7955 H7949 0.930 . S
C7955 C7951 1.400 . S
C7955 C7954 1.385 . S
C7956 C7954 1.478 . S
C7956 C7958 1.381 . S
C7956 C7962 1.383 . S
C7957 C7953 1.495 . S
C7957 H7963 0.959 . S
C7957 H7964 0.961 . S
C7957 H7965 0.960 . S
C7958 C7956 1.381 . S
C7958 C7959 1.394 . S
C7958 H7966 0.930 . S
C7959 C7958 1.394 . S
C7959 C7960 1.383 . S
C7959 H7967 0.929 . S
C7960 C7959 1.383 . S
C7960 C7961 1.377 . S
C7961 H7945 0.930 . S
C7961 C7960 1.377 . S
C7961 C7962 1.379 . S
C7962 H7946 0.931 . S
C7962 C7956 1.383 . S
C7962 C7961 1.379 . S
H7963 C7957 0.959 . S
H7964 C7957 0.961 . S
H7965 C7957 0.960 . S
H7966 C7958 0.930 . S
H7967 C7959 0.929 . S
H7968 C7976 0.929 . S
H7969 C7978 0.930 . S
H7970 C7980 0.930 . S
H7971 C7983 0.929 . S
H7972 C7986 0.930 . S
H7973 C7988 0.960 . S
H7974 C7988 0.960 . S
H7975 C7988 0.960 . S
C7976 H7968 0.929 . S
C7976 C7977 1.377 . S
C7976 C7978 1.384 . S
C7977 C7976 1.377 . S
C7977 C7983 1.390 . S
C7978 H7969 0.930 . S
C7978 C7976 1.384 . S
C7978 C7979 1.372 . S
C7979 C7978 1.372 . S
C7979 C7980 1.400 . S
C7979 C7984 1.490 . S
C7980 H7970 0.930 . S
C7980 C7979 1.400 . S
C7980 C7983 1.386 . S
H7981 C7997 0.930 . S
H7982 C7998 0.931 . S
C7983 H7971 0.929 . S
C7983 C7977 1.390 . S
C7983 C7980 1.386 . S
C7984 C7979 1.490 . S
C7984 C7986 1.395 . S
C7984 C7987 1.403 . S
H7985 C7991 0.930 . S
C7986 H7972 0.930 . S
C7986 C7984 1.395 . S
C7986 C7989 1.403 . S
C7987 C7984 1.403 . S
C7987 C7988 1.524 . S
C7987 C7991 1.400 . S
C7988 H7973 0.960 . S
C7988 H7974 0.960 . S
C7988 H7975 0.960 . S
C7988 C7987 1.524 . S
C7989 C7986 1.403 . S
C7989 C7990 1.392 . S
C7989 C7993 1.495 . S
C7990 C7989 1.392 . S
C7990 C7991 1.385 . S
C7990 C7992 1.478 . S
C7991 H7985 0.930 . S
C7991 C7987 1.400 . S
C7991 C7990 1.385 . S
C7992 C7990 1.478 . S
C7992 C7994 1.381 . S
C7992 C7998 1.383 . S
C7993 C7989 1.495 . S
C7993 H7999 0.959 . S
C7993 H8000 0.961 . S
C7993 H8001 0.960 . S
C7994 C7992 1.381 . S
C7994 C7995 1.394 . S
C7994 H8002 0.930 . S
C7995 C7994 1.394 . S
C7995 C7996 1.383 . S
C7995 H8003 0.929 . S
C7996 C7995 1.383 . S
C7996 C7997 1.377 . S
C7997 H7981 0.930 . S
C7997 C7996 1.377 . S
C7997 C7998 1.379 . S
C7998 H7982 0.931 . S
C7998 C7992 1.383 . S
C7998 C7997 1.379 . S
H7999 C7993 0.959 . S
H8000 C7993 0.961 . S
H8001 C7993 0.960 . S
H8002 C7994 0.930 . S
H8003 C7995 0.929 . S
H8004 C8012 0.929 . S
H8005 C8014 0.930 . S
H8006 C8016 0.930 . S
H8007 C8019 0.929 . S
H8008 C8022 0.930 . S
H8009 C8024 0.960 . S
H8010 C8024 0.960 . S
H8011 C8024 0.960 . S
C8012 H8004 0.929 . S
C8012 C8013 1.377 . S
C8012 C8014 1.384 . S
C8013 C8012 1.377 . S
C8013 C8019 1.390 . S
C8014 H8005 0.930 . S
C8014 C8012 1.384 . S
C8014 C8015 1.372 . S
C8015 C8014 1.372 . S
C8015 C8016 1.400 . S
C8015 C8020 1.490 . S
C8016 H8006 0.930 . S
C8016 C8015 1.400 . S
C8016 C8019 1.386 . S
H8017 C8033 0.930 . S
H8018 C8034 0.931 . S
C8019 H8007 0.929 . S
C8019 C8013 1.390 . S
C8019 C8016 1.386 . S
C8020 C8015 1.490 . S
C8020 C8022 1.395 . S
C8020 C8023 1.403 . S
H8021 C8027 0.930 . S
C8022 H8008 0.930 . S
C8022 C8020 1.395 . S
C8022 C8025 1.403 . S
C8023 C8020 1.403 . S
C8023 C8024 1.524 . S
C8023 C8027 1.400 . S
C8024 H8009 0.960 . S
C8024 H8010 0.960 . S
C8024 H8011 0.960 . S
C8024 C8023 1.524 . S
C8025 C8022 1.403 . S
C8025 C8026 1.392 . S
C8025 C8029 1.495 . S
C8026 C8025 1.392 . S
C8026 C8027 1.385 . S
C8026 C8028 1.478 . S
C8027 H8021 0.930 . S
C8027 C8023 1.400 . S
C8027 C8026 1.385 . S
C8028 C8026 1.478 . S
C8028 C8030 1.381 . S
C8028 C8034 1.383 . S
C8029 C8025 1.495 . S
C8029 H8035 0.959 . S
C8029 H8036 0.961 . S
C8029 H8037 0.960 . S
C8030 C8028 1.381 . S
C8030 C8031 1.394 . S
C8030 H8038 0.930 . S
C8031 C8030 1.394 . S
C8031 C8032 1.383 . S
C8031 H8039 0.929 . S
C8032 C8031 1.383 . S
C8032 C8033 1.377 . S
C8033 H8017 0.930 . S
C8033 C8032 1.377 . S
C8033 C8034 1.379 . S
C8034 H8018 0.931 . S
C8034 C8028 1.383 . S
C8034 C8033 1.379 . S
H8035 C8029 0.959 . S
H8036 C8029 0.961 . S
H8037 C8029 0.960 . S
H8038 C8030 0.930 . S
H8039 C8031 0.929 . S
H8040 C8048 0.929 . S
H8041 C8050 0.930 . S
H8042 C8052 0.930 . S
H8043 C8055 0.929 . S
H8044 C8058 0.930 . S
H8045 C8060 0.960 . S
H8046 C8060 0.960 . S
H8047 C8060 0.960 . S
C8048 H8040 0.929 . S
C8048 C8049 1.377 . S
C8048 C8050 1.384 . S
C8049 C8048 1.377 . S
C8049 C8055 1.390 . S
C8050 H8041 0.930 . S
C8050 C8048 1.384 . S
C8050 C8051 1.372 . S
C8051 C8050 1.372 . S
C8051 C8052 1.400 . S
C8051 C8056 1.490 . S
C8052 H8042 0.930 . S
C8052 C8051 1.400 . S
C8052 C8055 1.386 . S
H8053 C8069 0.930 . S
H8054 C8070 0.931 . S
C8055 H8043 0.929 . S
C8055 C8049 1.390 . S
C8055 C8052 1.386 . S
C8056 C8051 1.490 . S
C8056 C8058 1.395 . S
C8056 C8059 1.403 . S
H8057 C8063 0.930 . S
C8058 H8044 0.930 . S
C8058 C8056 1.395 . S
C8058 C8061 1.403 . S
C8059 C8056 1.403 . S
C8059 C8060 1.524 . S
C8059 C8063 1.400 . S
C8060 H8045 0.960 . S
C8060 H8046 0.960 . S
C8060 H8047 0.960 . S
C8060 C8059 1.524 . S
C8061 C8058 1.403 . S
C8061 C8062 1.392 . S
C8061 C8065 1.495 . S
C8062 C8061 1.392 . S
C8062 C8063 1.385 . S
C8062 C8064 1.478 . S
C8063 H8057 0.930 . S
C8063 C8059 1.400 . S
C8063 C8062 1.385 . S
C8064 C8062 1.478 . S
C8064 C8066 1.381 . S
C8064 C8070 1.383 . S
C8065 C8061 1.495 . S
C8065 H8071 0.959 . S
C8065 H8072 0.961 . S
C8065 H8073 0.960 . S
C8066 C8064 1.381 . S
C8066 C8067 1.394 . S
C8066 H8074 0.930 . S
C8067 C8066 1.394 . S
C8067 C8068 1.383 . S
C8067 H8075 0.929 . S
C8068 C8067 1.383 . S
C8068 C8069 1.377 . S
C8069 H8053 0.930 . S
C8069 C8068 1.377 . S
C8069 C8070 1.379 . S
C8070 H8054 0.931 . S
C8070 C8064 1.383 . S
C8070 C8069 1.379 . S
H8071 C8065 0.959 . S
H8072 C8065 0.961 . S
H8073 C8065 0.960 . S
H8074 C8066 0.930 . S
H8075 C8067 0.929 . S
H8076 C8084 0.929 . S
H8077 C8086 0.930 . S
H8078 C8088 0.930 . S
H8079 C8091 0.929 . S
H8080 C8094 0.930 . S
H8081 C8096 0.960 . S
H8082 C8096 0.960 . S
H8083 C8096 0.960 . S
C8084 H8076 0.929 . S
C8084 C8085 1.377 . S
C8084 C8086 1.384 . S
C8085 C8084 1.377 . S
C8085 C8091 1.390 . S
C8086 H8077 0.930 . S
C8086 C8084 1.384 . S
C8086 C8087 1.372 . S
C8087 C8086 1.372 . S
C8087 C8088 1.400 . S
C8087 C8092 1.490 . S
C8088 H8078 0.930 . S
C8088 C8087 1.400 . S
C8088 C8091 1.386 . S
H8089 C8105 0.930 . S
H8090 C8106 0.931 . S
C8091 H8079 0.929 . S
C8091 C8085 1.390 . S
C8091 C8088 1.386 . S
C8092 C8087 1.490 . S
C8092 C8094 1.395 . S
C8092 C8095 1.403 . S
H8093 C8099 0.930 . S
C8094 H8080 0.930 . S
C8094 C8092 1.395 . S
C8094 C8097 1.403 . S
C8095 C8092 1.403 . S
C8095 C8096 1.524 . S
C8095 C8099 1.400 . S
C8096 H8081 0.960 . S
C8096 H8082 0.960 . S
C8096 H8083 0.960 . S
C8096 C8095 1.524 . S
C8097 C8094 1.403 . S
C8097 C8098 1.392 . S
C8097 C8101 1.495 . S
C8098 C8097 1.392 . S
C8098 C8099 1.385 . S
C8098 C8100 1.478 . S
C8099 H8093 0.930 . S
C8099 C8095 1.400 . S
C8099 C8098 1.385 . S
C8100 C8098 1.478 . S
C8100 C8102 1.381 . S
C8100 C8106 1.383 . S
C8101 C8097 1.495 . S
C8101 H8107 0.959 . S
C8101 H8108 0.961 . S
C8101 H8109 0.960 . S
C8102 C8100 1.381 . S
C8102 C8103 1.394 . S
C8102 H8110 0.930 . S
C8103 C8102 1.394 . S
C8103 C8104 1.383 . S
C8103 H8111 0.929 . S
C8104 C8103 1.383 . S
C8104 C8105 1.377 . S
C8105 H8089 0.930 . S
C8105 C8104 1.377 . S
C8105 C8106 1.379 . S
C8106 H8090 0.931 . S
C8106 C8100 1.383 . S
C8106 C8105 1.379 . S
H8107 C8101 0.959 . S
H8108 C8101 0.961 . S
H8109 C8101 0.960 . S
H8110 C8102 0.930 . S
H8111 C8103 0.929 . S
H8112 C8120 0.929 . S
H8113 C8122 0.930 . S
H8114 C8124 0.930 . S
H8115 C8127 0.929 . S
H8116 C8130 0.930 . S
H8117 C8132 0.960 . S
H8118 C8132 0.960 . S
H8119 C8132 0.960 . S
C8120 H8112 0.929 . S
C8120 C8121 1.377 . S
C8120 C8122 1.384 . S
C8121 C8120 1.377 . S
C8121 C8127 1.390 . S
C8122 H8113 0.930 . S
C8122 C8120 1.384 . S
C8122 C8123 1.372 . S
C8123 C8122 1.372 . S
C8123 C8124 1.400 . S
C8123 C8128 1.490 . S
C8124 H8114 0.930 . S
C8124 C8123 1.400 . S
C8124 C8127 1.386 . S
H8125 C8141 0.930 . S
H8126 C8142 0.931 . S
C8127 H8115 0.929 . S
C8127 C8121 1.390 . S
C8127 C8124 1.386 . S
C8128 C8123 1.490 . S
C8128 C8130 1.395 . S
C8128 C8131 1.403 . S
H8129 C8135 0.930 . S
C8130 H8116 0.930 . S
C8130 C8128 1.395 . S
C8130 C8133 1.403 . S
C8131 C8128 1.403 . S
C8131 C8132 1.524 . S
C8131 C8135 1.400 . S
C8132 H8117 0.960 . S
C8132 H8118 0.960 . S
C8132 H8119 0.960 . S
C8132 C8131 1.524 . S
C8133 C8130 1.403 . S
C8133 C8134 1.392 . S
C8133 C8137 1.495 . S
C8134 C8133 1.392 . S
C8134 C8135 1.385 . S
C8134 C8136 1.478 . S
C8135 H8129 0.930 . S
C8135 C8131 1.400 . S
C8135 C8134 1.385 . S
C8136 C8134 1.478 . S
C8136 C8138 1.381 . S
C8136 C8142 1.383 . S
C8137 C8133 1.495 . S
C8137 H8143 0.959 . S
C8137 H8144 0.961 . S
C8137 H8145 0.960 . S
C8138 C8136 1.381 . S
C8138 C8139 1.394 . S
C8138 H8146 0.930 . S
C8139 C8138 1.394 . S
C8139 C8140 1.383 . S
C8139 H8147 0.929 . S
C8140 C8139 1.383 . S
C8140 C8141 1.377 . S
C8141 H8125 0.930 . S
C8141 C8140 1.377 . S
C8141 C8142 1.379 . S
C8142 H8126 0.931 . S
C8142 C8136 1.383 . S
C8142 C8141 1.379 . S
H8143 C8137 0.959 . S
H8144 C8137 0.961 . S
H8145 C8137 0.960 . S
H8146 C8138 0.930 . S
H8147 C8139 0.929 . S
H8148 C8156 0.929 . S
H8149 C8158 0.930 . S
H8150 C8160 0.930 . S
H8151 C8163 0.929 . S
H8152 C8166 0.930 . S
H8153 C8168 0.960 . S
H8154 C8168 0.960 . S
H8155 C8168 0.960 . S
C8156 H8148 0.929 . S
C8156 C8157 1.377 . S
C8156 C8158 1.384 . S
C8157 C8156 1.377 . S
C8157 C8163 1.390 . S
C8158 H8149 0.930 . S
C8158 C8156 1.384 . S
C8158 C8159 1.372 . S
C8159 C8158 1.372 . S
C8159 C8160 1.400 . S
C8159 C8164 1.490 . S
C8160 H8150 0.930 . S
C8160 C8159 1.400 . S
C8160 C8163 1.386 . S
H8161 C8177 0.930 . S
H8162 C8178 0.931 . S
C8163 H8151 0.929 . S
C8163 C8157 1.390 . S
C8163 C8160 1.386 . S
C8164 C8159 1.490 . S
C8164 C8166 1.395 . S
C8164 C8167 1.403 . S
H8165 C8171 0.930 . S
C8166 H8152 0.930 . S
C8166 C8164 1.395 . S
C8166 C8169 1.403 . S
C8167 C8164 1.403 . S
C8167 C8168 1.524 . S
C8167 C8171 1.400 . S
C8168 H8153 0.960 . S
C8168 H8154 0.960 . S
C8168 H8155 0.960 . S
C8168 C8167 1.524 . S
C8169 C8166 1.403 . S
C8169 C8170 1.392 . S
C8169 C8173 1.495 . S
C8170 C8169 1.392 . S
C8170 C8171 1.385 . S
C8170 C8172 1.478 . S
C8171 H8165 0.930 . S
C8171 C8167 1.400 . S
C8171 C8170 1.385 . S
C8172 C8170 1.478 . S
C8172 C8174 1.381 . S
C8172 C8178 1.383 . S
C8173 C8169 1.495 . S
C8173 H8179 0.959 . S
C8173 H8180 0.961 . S
C8173 H8181 0.960 . S
C8174 C8172 1.381 . S
C8174 C8175 1.394 . S
C8174 H8182 0.930 . S
C8175 C8174 1.394 . S
C8175 C8176 1.383 . S
C8175 H8183 0.929 . S
C8176 C8175 1.383 . S
C8176 C8177 1.377 . S
C8177 H8161 0.930 . S
C8177 C8176 1.377 . S
C8177 C8178 1.379 . S
C8178 H8162 0.931 . S
C8178 C8172 1.383 . S
C8178 C8177 1.379 . S
H8179 C8173 0.959 . S
H8180 C8173 0.961 . S
H8181 C8173 0.960 . S
H8182 C8174 0.930 . S
H8183 C8175 0.929 . S
H8184 C8192 0.929 . S
H8185 C8194 0.930 . S
H8186 C8196 0.930 . S
H8187 C8199 0.929 . S
H8188 C8202 0.930 . S
H8189 C8204 0.960 . S
H8190 C8204 0.960 . S
H8191 C8204 0.960 . S
C8192 H8184 0.929 . S
C8192 C8193 1.377 . S
C8192 C8194 1.384 . S
C8193 C8192 1.377 . S
C8193 C8199 1.390 . S
C8194 H8185 0.930 . S
C8194 C8192 1.384 . S
C8194 C8195 1.372 . S
C8195 C8194 1.372 . S
C8195 C8196 1.400 . S
C8195 C8200 1.490 . S
C8196 H8186 0.930 . S
C8196 C8195 1.400 . S
C8196 C8199 1.386 . S
H8197 C8213 0.930 . S
H8198 C8214 0.931 . S
C8199 H8187 0.929 . S
C8199 C8193 1.390 . S
C8199 C8196 1.386 . S
C8200 C8195 1.490 . S
C8200 C8202 1.395 . S
C8200 C8203 1.403 . S
H8201 C8207 0.930 . S
C8202 H8188 0.930 . S
C8202 C8200 1.395 . S
C8202 C8205 1.403 . S
C8203 C8200 1.403 . S
C8203 C8204 1.524 . S
C8203 C8207 1.400 . S
C8204 H8189 0.960 . S
C8204 H8190 0.960 . S
C8204 H8191 0.960 . S
C8204 C8203 1.524 . S
C8205 C8202 1.403 . S
C8205 C8206 1.392 . S
C8205 C8209 1.495 . S
C8206 C8205 1.392 . S
C8206 C8207 1.385 . S
C8206 C8208 1.478 . S
C8207 H8201 0.930 . S
C8207 C8203 1.400 . S
C8207 C8206 1.385 . S
C8208 C8206 1.478 . S
C8208 C8210 1.381 . S
C8208 C8214 1.383 . S
C8209 C8205 1.495 . S
C8209 H8215 0.959 . S
C8209 H8216 0.961 . S
C8209 H8217 0.960 . S
C8210 C8208 1.381 . S
C8210 C8211 1.394 . S
C8210 H8218 0.930 . S
C8211 C8210 1.394 . S
C8211 C8212 1.383 . S
C8211 H8219 0.929 . S
C8212 C8211 1.383 . S
C8212 C8213 1.377 . S
C8213 H8197 0.930 . S
C8213 C8212 1.377 . S
C8213 C8214 1.379 . S
C8214 H8198 0.931 . S
C8214 C8208 1.383 . S
C8214 C8213 1.379 . S
H8215 C8209 0.959 . S
H8216 C8209 0.961 . S
H8217 C8209 0.960 . S
H8218 C8210 0.930 . S
H8219 C8211 0.929 . S
H8220 C8228 0.929 . S
H8221 C8230 0.930 . S
H8222 C8232 0.930 . S
H8223 C8235 0.929 . S
H8224 C8238 0.930 . S
H8225 C8240 0.960 . S
H8226 C8240 0.960 . S
H8227 C8240 0.960 . S
C8228 H8220 0.929 . S
C8228 C8229 1.377 . S
C8228 C8230 1.384 . S
C8229 C8228 1.377 . S
C8229 C8235 1.390 . S
C8230 H8221 0.930 . S
C8230 C8228 1.384 . S
C8230 C8231 1.372 . S
C8231 C8230 1.372 . S
C8231 C8232 1.400 . S
C8231 C8236 1.490 . S
C8232 H8222 0.930 . S
C8232 C8231 1.400 . S
C8232 C8235 1.386 . S
H8233 C8249 0.930 . S
H8234 C8250 0.931 . S
C8235 H8223 0.929 . S
C8235 C8229 1.390 . S
C8235 C8232 1.386 . S
C8236 C8231 1.490 . S
C8236 C8238 1.395 . S
C8236 C8239 1.403 . S
H8237 C8243 0.930 . S
C8238 H8224 0.930 . S
C8238 C8236 1.395 . S
C8238 C8241 1.403 . S
C8239 C8236 1.403 . S
C8239 C8240 1.524 . S
C8239 C8243 1.400 . S
C8240 H8225 0.960 . S
C8240 H8226 0.960 . S
C8240 H8227 0.960 . S
C8240 C8239 1.524 . S
C8241 C8238 1.403 . S
C8241 C8242 1.392 . S
C8241 C8245 1.495 . S
C8242 C8241 1.392 . S
C8242 C8243 1.385 . S
C8242 C8244 1.478 . S
C8243 H8237 0.930 . S
C8243 C8239 1.400 . S
C8243 C8242 1.385 . S
C8244 C8242 1.478 . S
C8244 C8246 1.381 . S
C8244 C8250 1.383 . S
C8245 C8241 1.495 . S
C8245 H8251 0.959 . S
C8245 H8252 0.961 . S
C8245 H8253 0.960 . S
C8246 C8244 1.381 . S
C8246 C8247 1.394 . S
C8246 H8254 0.930 . S
C8247 C8246 1.394 . S
C8247 C8248 1.383 . S
C8247 H8255 0.929 . S
C8248 C8247 1.383 . S
C8248 C8249 1.377 . S
C8249 H8233 0.930 . S
C8249 C8248 1.377 . S
C8249 C8250 1.379 . S
C8250 H8234 0.931 . S
C8250 C8244 1.383 . S
C8250 C8249 1.379 . S
H8251 C8245 0.959 . S
H8252 C8245 0.961 . S
H8253 C8245 0.960 . S
H8254 C8246 0.930 . S
H8255 C8247 0.929 . S
H8256 C8264 0.929 . S
H8257 C8266 0.930 . S
H8258 C8268 0.930 . S
H8259 C8271 0.929 . S
H8260 C8274 0.930 . S
H8261 C8276 0.960 . S
H8262 C8276 0.960 . S
H8263 C8276 0.960 . S
C8264 H8256 0.929 . S
C8264 C8265 1.377 . S
C8264 C8266 1.384 . S
C8265 C8264 1.377 . S
C8265 C8271 1.390 . S
C8266 H8257 0.930 . S
C8266 C8264 1.384 . S
C8266 C8267 1.372 . S
C8267 C8266 1.372 . S
C8267 C8268 1.400 . S
C8267 C8272 1.490 . S
C8268 H8258 0.930 . S
C8268 C8267 1.400 . S
C8268 C8271 1.386 . S
H8269 C8285 0.930 . S
H8270 C8286 0.931 . S
C8271 H8259 0.929 . S
C8271 C8265 1.390 . S
C8271 C8268 1.386 . S
C8272 C8267 1.490 . S
C8272 C8274 1.395 . S
C8272 C8275 1.403 . S
H8273 C8279 0.930 . S
C8274 H8260 0.930 . S
C8274 C8272 1.395 . S
C8274 C8277 1.403 . S
C8275 C8272 1.403 . S
C8275 C8276 1.524 . S
C8275 C8279 1.400 . S
C8276 H8261 0.960 . S
C8276 H8262 0.960 . S
C8276 H8263 0.960 . S
C8276 C8275 1.524 . S
C8277 C8274 1.403 . S
C8277 C8278 1.392 . S
C8277 C8281 1.495 . S
C8278 C8277 1.392 . S
C8278 C8279 1.385 . S
C8278 C8280 1.478 . S
C8279 H8273 0.930 . S
C8279 C8275 1.400 . S
C8279 C8278 1.385 . S
C8280 C8278 1.478 . S
C8280 C8282 1.381 . S
C8280 C8286 1.383 . S
C8281 C8277 1.495 . S
C8281 H8287 0.959 . S
C8281 H8288 0.961 . S
C8281 H8289 0.960 . S
C8282 C8280 1.381 . S
C8282 C8283 1.394 . S
C8282 H8290 0.930 . S
C8283 C8282 1.394 . S
C8283 C8284 1.383 . S
C8283 H8291 0.929 . S
C8284 C8283 1.383 . S
C8284 C8285 1.377 . S
C8285 H8269 0.930 . S
C8285 C8284 1.377 . S
C8285 C8286 1.379 . S
C8286 H8270 0.931 . S
C8286 C8280 1.383 . S
C8286 C8285 1.379 . S
H8287 C8281 0.959 . S
H8288 C8281 0.961 . S
H8289 C8281 0.960 . S
H8290 C8282 0.930 . S
H8291 C8283 0.929 . S
H8292 C8300 0.929 . S
H8293 C8302 0.930 . S
H8294 C8304 0.930 . S
H8295 C8307 0.929 . S
H8296 C8310 0.930 . S
H8297 C8312 0.960 . S
H8298 C8312 0.960 . S
H8299 C8312 0.960 . S
C8300 H8292 0.929 . S
C8300 C8301 1.377 . S
C8300 C8302 1.384 . S
C8301 C8300 1.377 . S
C8301 C8307 1.390 . S
C8302 H8293 0.930 . S
C8302 C8300 1.384 . S
C8302 C8303 1.372 . S
C8303 C8302 1.372 . S
C8303 C8304 1.400 . S
C8303 C8308 1.490 . S
C8304 H8294 0.930 . S
C8304 C8303 1.400 . S
C8304 C8307 1.386 . S
H8305 C8321 0.930 . S
H8306 C8322 0.931 . S
C8307 H8295 0.929 . S
C8307 C8301 1.390 . S
C8307 C8304 1.386 . S
C8308 C8303 1.490 . S
C8308 C8310 1.395 . S
C8308 C8311 1.403 . S
H8309 C8315 0.930 . S
C8310 H8296 0.930 . S
C8310 C8308 1.395 . S
C8310 C8313 1.403 . S
C8311 C8308 1.403 . S
C8311 C8312 1.524 . S
C8311 C8315 1.400 . S
C8312 H8297 0.960 . S
C8312 H8298 0.960 . S
C8312 H8299 0.960 . S
C8312 C8311 1.524 . S
C8313 C8310 1.403 . S
C8313 C8314 1.392 . S
C8313 C8317 1.495 . S
C8314 C8313 1.392 . S
C8314 C8315 1.385 . S
C8314 C8316 1.478 . S
C8315 H8309 0.930 . S
C8315 C8311 1.400 . S
C8315 C8314 1.385 . S
C8316 C8314 1.478 . S
C8316 C8318 1.381 . S
C8316 C8322 1.383 . S
C8317 C8313 1.495 . S
C8317 H8323 0.959 . S
C8317 H8324 0.961 . S
C8317 H8325 0.960 . S
C8318 C8316 1.381 . S
C8318 C8319 1.394 . S
C8318 H8326 0.930 . S
C8319 C8318 1.394 . S
C8319 C8320 1.383 . S
C8319 H8327 0.929 . S
C8320 C8319 1.383 . S
C8320 C8321 1.377 . S
C8321 H8305 0.930 . S
C8321 C8320 1.377 . S
C8321 C8322 1.379 . S
C8322 H8306 0.931 . S
C8322 C8316 1.383 . S
C8322 C8321 1.379 . S
H8323 C8317 0.959 . S
H8324 C8317 0.961 . S
H8325 C8317 0.960 . S
H8326 C8318 0.930 . S
H8327 C8319 0.929 . S
H8328 C8336 0.929 . S
H8329 C8338 0.930 . S
H8330 C8340 0.930 . S
H8331 C8343 0.929 . S
H8332 C8346 0.930 . S
H8333 C8348 0.960 . S
H8334 C8348 0.960 . S
H8335 C8348 0.960 . S
C8336 H8328 0.929 . S
C8336 C8337 1.377 . S
C8336 C8338 1.384 . S
C8337 C8336 1.377 . S
C8337 C8343 1.390 . S
C8338 H8329 0.930 . S
C8338 C8336 1.384 . S
C8338 C8339 1.372 . S
C8339 C8338 1.372 . S
C8339 C8340 1.400 . S
C8339 C8344 1.490 . S
C8340 H8330 0.930 . S
C8340 C8339 1.400 . S
C8340 C8343 1.386 . S
H8341 C8357 0.930 . S
H8342 C8358 0.931 . S
C8343 H8331 0.929 . S
C8343 C8337 1.390 . S
C8343 C8340 1.386 . S
C8344 C8339 1.490 . S
C8344 C8346 1.395 . S
C8344 C8347 1.403 . S
H8345 C8351 0.930 . S
C8346 H8332 0.930 . S
C8346 C8344 1.395 . S
C8346 C8349 1.403 . S
C8347 C8344 1.403 . S
C8347 C8348 1.524 . S
C8347 C8351 1.400 . S
C8348 H8333 0.960 . S
C8348 H8334 0.960 . S
C8348 H8335 0.960 . S
C8348 C8347 1.524 . S
C8349 C8346 1.403 . S
C8349 C8350 1.392 . S
C8349 C8353 1.495 . S
C8350 C8349 1.392 . S
C8350 C8351 1.385 . S
C8350 C8352 1.478 . S
C8351 H8345 0.930 . S
C8351 C8347 1.400 . S
C8351 C8350 1.385 . S
C8352 C8350 1.478 . S
C8352 C8354 1.381 . S
C8352 C8358 1.383 . S
C8353 C8349 1.495 . S
C8353 H8359 0.959 . S
C8353 H8360 0.961 . S
C8353 H8361 0.960 . S
C8354 C8352 1.381 . S
C8354 C8355 1.394 . S
C8354 H8362 0.930 . S
C8355 C8354 1.394 . S
C8355 C8356 1.383 . S
C8355 H8363 0.929 . S
C8356 C8355 1.383 . S
C8356 C8357 1.377 . S
C8357 H8341 0.930 . S
C8357 C8356 1.377 . S
C8357 C8358 1.379 . S
C8358 H8342 0.931 . S
C8358 C8352 1.383 . S
C8358 C8357 1.379 . S
H8359 C8353 0.959 . S
H8360 C8353 0.961 . S
H8361 C8353 0.960 . S
H8362 C8354 0.930 . S
H8363 C8355 0.929 . S
H8364 C8372 0.929 . S
H8365 C8374 0.930 . S
H8366 C8376 0.930 . S
H8367 C8379 0.929 . S
H8368 C8382 0.930 . S
H8369 C8384 0.960 . S
H8370 C8384 0.960 . S
H8371 C8384 0.960 . S
C8372 H8364 0.929 . S
C8372 C8373 1.377 . S
C8372 C8374 1.384 . S
C8373 C8372 1.377 . S
C8373 C8379 1.390 . S
C8374 H8365 0.930 . S
C8374 C8372 1.384 . S
C8374 C8375 1.372 . S
C8375 C8374 1.372 . S
C8375 C8376 1.400 . S
C8375 C8380 1.490 . S
C8376 H8366 0.930 . S
C8376 C8375 1.400 . S
C8376 C8379 1.386 . S
H8377 C8393 0.930 . S
H8378 C8394 0.931 . S
C8379 H8367 0.929 . S
C8379 C8373 1.390 . S
C8379 C8376 1.386 . S
C8380 C8375 1.490 . S
C8380 C8382 1.395 . S
C8380 C8383 1.403 . S
H8381 C8387 0.930 . S
C8382 H8368 0.930 . S
C8382 C8380 1.395 . S
C8382 C8385 1.403 . S
C8383 C8380 1.403 . S
C8383 C8384 1.524 . S
C8383 C8387 1.400 . S
C8384 H8369 0.960 . S
C8384 H8370 0.960 . S
C8384 H8371 0.960 . S
C8384 C8383 1.524 . S
C8385 C8382 1.403 . S
C8385 C8386 1.392 . S
C8385 C8389 1.495 . S
C8386 C8385 1.392 . S
C8386 C8387 1.385 . S
C8386 C8388 1.478 . S
C8387 H8381 0.930 . S
C8387 C8383 1.400 . S
C8387 C8386 1.385 . S
C8388 C8386 1.478 . S
C8388 C8390 1.381 . S
C8388 C8394 1.383 . S
C8389 C8385 1.495 . S
C8389 H8395 0.959 . S
C8389 H8396 0.961 . S
C8389 H8397 0.960 . S
C8390 C8388 1.381 . S
C8390 C8391 1.394 . S
C8390 H8398 0.930 . S
C8391 C8390 1.394 . S
C8391 C8392 1.383 . S
C8391 H8399 0.929 . S
C8392 C8391 1.383 . S
C8392 C8393 1.377 . S
C8393 H8377 0.930 . S
C8393 C8392 1.377 . S
C8393 C8394 1.379 . S
C8394 H8378 0.931 . S
C8394 C8388 1.383 . S
C8394 C8393 1.379 . S
H8395 C8389 0.959 . S
H8396 C8389 0.961 . S
H8397 C8389 0.960 . S
H8398 C8390 0.930 . S
H8399 C8391 0.929 . S
H8400 C8408 0.929 . S
H8401 C8410 0.930 . S
H8402 C8412 0.930 . S
H8403 C8415 0.929 . S
H8404 C8418 0.930 . S
H8405 C8420 0.960 . S
H8406 C8420 0.960 . S
H8407 C8420 0.960 . S
C8408 H8400 0.929 . S
C8408 C8409 1.377 . S
C8408 C8410 1.384 . S
C8409 C8408 1.377 . S
C8409 C8415 1.390 . S
C8410 H8401 0.930 . S
C8410 C8408 1.384 . S
C8410 C8411 1.372 . S
C8411 C8410 1.372 . S
C8411 C8412 1.400 . S
C8411 C8416 1.490 . S
C8412 H8402 0.930 . S
C8412 C8411 1.400 . S
C8412 C8415 1.386 . S
H8413 C8429 0.930 . S
H8414 C8430 0.931 . S
C8415 H8403 0.929 . S
C8415 C8409 1.390 . S
C8415 C8412 1.386 . S
C8416 C8411 1.490 . S
C8416 C8418 1.395 . S
C8416 C8419 1.403 . S
H8417 C8423 0.930 . S
C8418 H8404 0.930 . S
C8418 C8416 1.395 . S
C8418 C8421 1.403 . S
C8419 C8416 1.403 . S
C8419 C8420 1.524 . S
C8419 C8423 1.400 . S
C8420 H8405 0.960 . S
C8420 H8406 0.960 . S
C8420 H8407 0.960 . S
C8420 C8419 1.524 . S
C8421 C8418 1.403 . S
C8421 C8422 1.392 . S
C8421 C8425 1.495 . S
C8422 C8421 1.392 . S
C8422 C8423 1.385 . S
C8422 C8424 1.478 . S
C8423 H8417 0.930 . S
C8423 C8419 1.400 . S
C8423 C8422 1.385 . S
C8424 C8422 1.478 . S
C8424 C8426 1.381 . S
C8424 C8430 1.383 . S
C8425 C8421 1.495 . S
C8425 H8431 0.959 . S
C8425 H8432 0.961 . S
C8425 H8433 0.960 . S
C8426 C8424 1.381 . S
C8426 C8427 1.394 . S
C8426 H8434 0.930 . S
C8427 C8426 1.394 . S
C8427 C8428 1.383 . S
C8427 H8435 0.929 . S
C8428 C8427 1.383 . S
C8428 C8429 1.377 . S
C8429 H8413 0.930 . S
C8429 C8428 1.377 . S
C8429 C8430 1.379 . S
C8430 H8414 0.931 . S
C8430 C8424 1.383 . S
C8430 C8429 1.379 . S
H8431 C8425 0.959 . S
H8432 C8425 0.961 . S
H8433 C8425 0.960 . S
H8434 C8426 0.930 . S
H8435 C8427 0.929 . S
H8436 C8444 0.929 . S
H8437 C8446 0.930 . S
H8438 C8448 0.930 . S
H8439 C8451 0.929 . S
H8440 C8454 0.930 . S
H8441 C8456 0.960 . S
H8442 C8456 0.960 . S
H8443 C8456 0.960 . S
C8444 H8436 0.929 . S
C8444 C8445 1.377 . S
C8444 C8446 1.384 . S
C8445 C8444 1.377 . S
C8445 C8451 1.390 . S
C8446 H8437 0.930 . S
C8446 C8444 1.384 . S
C8446 C8447 1.372 . S
C8447 C8446 1.372 . S
C8447 C8448 1.400 . S
C8447 C8452 1.490 . S
C8448 H8438 0.930 . S
C8448 C8447 1.400 . S
C8448 C8451 1.386 . S
H8449 C8465 0.930 . S
H8450 C8466 0.931 . S
C8451 H8439 0.929 . S
C8451 C8445 1.390 . S
C8451 C8448 1.386 . S
C8452 C8447 1.490 . S
C8452 C8454 1.395 . S
C8452 C8455 1.403 . S
H8453 C8459 0.930 . S
C8454 H8440 0.930 . S
C8454 C8452 1.395 . S
C8454 C8457 1.403 . S
C8455 C8452 1.403 . S
C8455 C8456 1.524 . S
C8455 C8459 1.400 . S
C8456 H8441 0.960 . S
C8456 H8442 0.960 . S
C8456 H8443 0.960 . S
C8456 C8455 1.524 . S
C8457 C8454 1.403 . S
C8457 C8458 1.392 . S
C8457 C8461 1.495 . S
C8458 C8457 1.392 . S
C8458 C8459 1.385 . S
C8458 C8460 1.478 . S
C8459 H8453 0.930 . S
C8459 C8455 1.400 . S
C8459 C8458 1.385 . S
C8460 C8458 1.478 . S
C8460 C8462 1.381 . S
C8460 C8466 1.383 . S
C8461 C8457 1.495 . S
C8461 H8467 0.959 . S
C8461 H8468 0.961 . S
C8461 H8469 0.960 . S
C8462 C8460 1.381 . S
C8462 C8463 1.394 . S
C8462 H8470 0.930 . S
C8463 C8462 1.394 . S
C8463 C8464 1.383 . S
C8463 H8471 0.929 . S
C8464 C8463 1.383 . S
C8464 C8465 1.377 . S
C8465 H8449 0.930 . S
C8465 C8464 1.377 . S
C8465 C8466 1.379 . S
C8466 H8450 0.931 . S
C8466 C8460 1.383 . S
C8466 C8465 1.379 . S
H8467 C8461 0.959 . S
H8468 C8461 0.961 . S
H8469 C8461 0.960 . S
H8470 C8462 0.930 . S
H8471 C8463 0.929 . S
H8472 C8480 0.929 . S
H8473 C8482 0.930 . S
H8474 C8484 0.930 . S
H8475 C8487 0.929 . S
H8476 C8490 0.930 . S
H8477 C8492 0.960 . S
H8478 C8492 0.960 . S
H8479 C8492 0.960 . S
C8480 H8472 0.929 . S
C8480 C8481 1.377 . S
C8480 C8482 1.384 . S
C8481 C8480 1.377 . S
C8481 C8487 1.390 . S
C8482 H8473 0.930 . S
C8482 C8480 1.384 . S
C8482 C8483 1.372 . S
C8483 C8482 1.372 . S
C8483 C8484 1.400 . S
C8483 C8488 1.490 . S
C8484 H8474 0.930 . S
C8484 C8483 1.400 . S
C8484 C8487 1.386 . S
H8485 C8501 0.930 . S
H8486 C8502 0.931 . S
C8487 H8475 0.929 . S
C8487 C8481 1.390 . S
C8487 C8484 1.386 . S
C8488 C8483 1.490 . S
C8488 C8490 1.395 . S
C8488 C8491 1.403 . S
H8489 C8495 0.930 . S
C8490 H8476 0.930 . S
C8490 C8488 1.395 . S
C8490 C8493 1.403 . S
C8491 C8488 1.403 . S
C8491 C8492 1.524 . S
C8491 C8495 1.400 . S
C8492 H8477 0.960 . S
C8492 H8478 0.960 . S
C8492 H8479 0.960 . S
C8492 C8491 1.524 . S
C8493 C8490 1.403 . S
C8493 C8494 1.392 . S
C8493 C8497 1.495 . S
C8494 C8493 1.392 . S
C8494 C8495 1.385 . S
C8494 C8496 1.478 . S
C8495 H8489 0.930 . S
C8495 C8491 1.400 . S
C8495 C8494 1.385 . S
C8496 C8494 1.478 . S
C8496 C8498 1.381 . S
C8496 C8502 1.383 . S
C8497 C8493 1.495 . S
C8497 H8503 0.959 . S
C8497 H8504 0.961 . S
C8497 H8505 0.960 . S
C8498 C8496 1.381 . S
C8498 C8499 1.394 . S
C8498 H8506 0.930 . S
C8499 C8498 1.394 . S
C8499 C8500 1.383 . S
C8499 H8507 0.929 . S
C8500 C8499 1.383 . S
C8500 C8501 1.377 . S
C8501 H8485 0.930 . S
C8501 C8500 1.377 . S
C8501 C8502 1.379 . S
C8502 H8486 0.931 . S
C8502 C8496 1.383 . S
C8502 C8501 1.379 . S
H8503 C8497 0.959 . S
H8504 C8497 0.961 . S
H8505 C8497 0.960 . S
H8506 C8498 0.930 . S
H8507 C8499 0.929 . S
H8508 C8516 0.929 . S
H8509 C8518 0.930 . S
H8510 C8520 0.930 . S
H8511 C8523 0.929 . S
H8512 C8526 0.930 . S
H8513 C8528 0.960 . S
H8514 C8528 0.960 . S
H8515 C8528 0.960 . S
C8516 H8508 0.929 . S
C8516 C8517 1.377 . S
C8516 C8518 1.384 . S
C8517 C8516 1.377 . S
C8517 C8523 1.390 . S
C8518 H8509 0.930 . S
C8518 C8516 1.384 . S
C8518 C8519 1.372 . S
C8519 C8518 1.372 . S
C8519 C8520 1.400 . S
C8519 C8524 1.490 . S
C8520 H8510 0.930 . S
C8520 C8519 1.400 . S
C8520 C8523 1.386 . S
H8521 C8537 0.930 . S
H8522 C8538 0.931 . S
C8523 H8511 0.929 . S
C8523 C8517 1.390 . S
C8523 C8520 1.386 . S
C8524 C8519 1.490 . S
C8524 C8526 1.395 . S
C8524 C8527 1.403 . S
H8525 C8531 0.930 . S
C8526 H8512 0.930 . S
C8526 C8524 1.395 . S
C8526 C8529 1.403 . S
C8527 C8524 1.403 . S
C8527 C8528 1.524 . S
C8527 C8531 1.400 . S
C8528 H8513 0.960 . S
C8528 H8514 0.960 . S
C8528 H8515 0.960 . S
C8528 C8527 1.524 . S
C8529 C8526 1.403 . S
C8529 C8530 1.392 . S
C8529 C8533 1.495 . S
C8530 C8529 1.392 . S
C8530 C8531 1.385 . S
C8530 C8532 1.478 . S
C8531 H8525 0.930 . S
C8531 C8527 1.400 . S
C8531 C8530 1.385 . S
C8532 C8530 1.478 . S
C8532 C8534 1.381 . S
C8532 C8538 1.383 . S
C8533 C8529 1.495 . S
C8533 H8539 0.959 . S
C8533 H8540 0.961 . S
C8533 H8541 0.960 . S
C8534 C8532 1.381 . S
C8534 C8535 1.394 . S
C8534 H8542 0.930 . S
C8535 C8534 1.394 . S
C8535 C8536 1.383 . S
C8535 H8543 0.929 . S
C8536 C8535 1.383 . S
C8536 C8537 1.377 . S
C8537 H8521 0.930 . S
C8537 C8536 1.377 . S
C8537 C8538 1.379 . S
C8538 H8522 0.931 . S
C8538 C8532 1.383 . S
C8538 C8537 1.379 . S
H8539 C8533 0.959 . S
H8540 C8533 0.961 . S
H8541 C8533 0.960 . S
H8542 C8534 0.930 . S
H8543 C8535 0.929 . S
H8544 C8552 0.929 . S
H8545 C8554 0.930 . S
H8546 C8556 0.930 . S
H8547 C8559 0.929 . S
H8548 C8562 0.930 . S
H8549 C8564 0.960 . S
H8550 C8564 0.960 . S
H8551 C8564 0.960 . S
C8552 H8544 0.929 . S
C8552 C8553 1.377 . S
C8552 C8554 1.384 . S
C8553 C8552 1.377 . S
C8553 C8559 1.390 . S
C8554 H8545 0.930 . S
C8554 C8552 1.384 . S
C8554 C8555 1.372 . S
C8555 C8554 1.372 . S
C8555 C8556 1.400 . S
C8555 C8560 1.490 . S
C8556 H8546 0.930 . S
C8556 C8555 1.400 . S
C8556 C8559 1.386 . S
H8557 C8573 0.930 . S
H8558 C8574 0.931 . S
C8559 H8547 0.929 . S
C8559 C8553 1.390 . S
C8559 C8556 1.386 . S
C8560 C8555 1.490 . S
C8560 C8562 1.395 . S
C8560 C8563 1.403 . S
H8561 C8567 0.930 . S
C8562 H8548 0.930 . S
C8562 C8560 1.395 . S
C8562 C8565 1.403 . S
C8563 C8560 1.403 . S
C8563 C8564 1.524 . S
C8563 C8567 1.400 . S
C8564 H8549 0.960 . S
C8564 H8550 0.960 . S
C8564 H8551 0.960 . S
C8564 C8563 1.524 . S
C8565 C8562 1.403 . S
C8565 C8566 1.392 . S
C8565 C8569 1.495 . S
C8566 C8565 1.392 . S
C8566 C8567 1.385 . S
C8566 C8568 1.478 . S
C8567 H8561 0.930 . S
C8567 C8563 1.400 . S
C8567 C8566 1.385 . S
C8568 C8566 1.478 . S
C8568 C8570 1.381 . S
C8568 C8574 1.383 . S
C8569 C8565 1.495 . S
C8569 H8575 0.959 . S
C8569 H8576 0.961 . S
C8569 H8577 0.960 . S
C8570 C8568 1.381 . S
C8570 C8571 1.394 . S
C8570 H8578 0.930 . S
C8571 C8570 1.394 . S
C8571 C8572 1.383 . S
C8571 H8579 0.929 . S
C8572 C8571 1.383 . S
C8572 C8573 1.377 . S
C8573 H8557 0.930 . S
C8573 C8572 1.377 . S
C8573 C8574 1.379 . S
C8574 H8558 0.931 . S
C8574 C8568 1.383 . S
C8574 C8573 1.379 . S
H8575 C8569 0.959 . S
H8576 C8569 0.961 . S
H8577 C8569 0.960 . S
H8578 C8570 0.930 . S
H8579 C8571 0.929 . S
H8580 C8588 0.929 . S
H8581 C8590 0.930 . S
H8582 C8592 0.930 . S
H8583 C8595 0.929 . S
H8584 C8598 0.930 . S
H8585 C8600 0.960 . S
H8586 C8600 0.960 . S
H8587 C8600 0.960 . S
C8588 H8580 0.929 . S
C8588 C8589 1.377 . S
C8588 C8590 1.384 . S
C8589 C8588 1.377 . S
C8589 C8595 1.390 . S
C8590 H8581 0.930 . S
C8590 C8588 1.384 . S
C8590 C8591 1.372 . S
C8591 C8590 1.372 . S
C8591 C8592 1.400 . S
C8591 C8596 1.490 . S
C8592 H8582 0.930 . S
C8592 C8591 1.400 . S
C8592 C8595 1.386 . S
H8593 C8609 0.930 . S
H8594 C8610 0.931 . S
C8595 H8583 0.929 . S
C8595 C8589 1.390 . S
C8595 C8592 1.386 . S
C8596 C8591 1.490 . S
C8596 C8598 1.395 . S
C8596 C8599 1.403 . S
H8597 C8603 0.930 . S
C8598 H8584 0.930 . S
C8598 C8596 1.395 . S
C8598 C8601 1.403 . S
C8599 C8596 1.403 . S
C8599 C8600 1.524 . S
C8599 C8603 1.400 . S
C8600 H8585 0.960 . S
C8600 H8586 0.960 . S
C8600 H8587 0.960 . S
C8600 C8599 1.524 . S
C8601 C8598 1.403 . S
C8601 C8602 1.392 . S
C8601 C8605 1.495 . S
C8602 C8601 1.392 . S
C8602 C8603 1.385 . S
C8602 C8604 1.478 . S
C8603 H8597 0.930 . S
C8603 C8599 1.400 . S
C8603 C8602 1.385 . S
C8604 C8602 1.478 . S
C8604 C8606 1.381 . S
C8604 C8610 1.383 . S
C8605 C8601 1.495 . S
C8605 H8611 0.959 . S
C8605 H8612 0.961 . S
C8605 H8613 0.960 . S
C8606 C8604 1.381 . S
C8606 C8607 1.394 . S
C8606 H8614 0.930 . S
C8607 C8606 1.394 . S
C8607 C8608 1.383 . S
C8607 H8615 0.929 . S
C8608 C8607 1.383 . S
C8608 C8609 1.377 . S
C8609 H8593 0.930 . S
C8609 C8608 1.377 . S
C8609 C8610 1.379 . S
C8610 H8594 0.931 . S
C8610 C8604 1.383 . S
C8610 C8609 1.379 . S
H8611 C8605 0.959 . S
H8612 C8605 0.961 . S
H8613 C8605 0.960 . S
H8614 C8606 0.930 . S
H8615 C8607 0.929 . S
H8616 C8624 0.929 . S
H8617 C8626 0.930 . S
H8618 C8628 0.930 . S
H8619 C8631 0.929 . S
H8620 C8634 0.930 . S
H8621 C8636 0.960 . S
H8622 C8636 0.960 . S
H8623 C8636 0.960 . S
C8624 H8616 0.929 . S
C8624 C8625 1.377 . S
C8624 C8626 1.384 . S
C8625 C8624 1.377 . S
C8625 C8631 1.390 . S
C8626 H8617 0.930 . S
C8626 C8624 1.384 . S
C8626 C8627 1.372 . S
C8627 C8626 1.372 . S
C8627 C8628 1.400 . S
C8627 C8632 1.490 . S
C8628 H8618 0.930 . S
C8628 C8627 1.400 . S
C8628 C8631 1.386 . S
H8629 C8645 0.930 . S
H8630 C8646 0.931 . S
C8631 H8619 0.929 . S
C8631 C8625 1.390 . S
C8631 C8628 1.386 . S
C8632 C8627 1.490 . S
C8632 C8634 1.395 . S
C8632 C8635 1.403 . S
H8633 C8639 0.930 . S
C8634 H8620 0.930 . S
C8634 C8632 1.395 . S
C8634 C8637 1.403 . S
C8635 C8632 1.403 . S
C8635 C8636 1.524 . S
C8635 C8639 1.400 . S
C8636 H8621 0.960 . S
C8636 H8622 0.960 . S
C8636 H8623 0.960 . S
C8636 C8635 1.524 . S
C8637 C8634 1.403 . S
C8637 C8638 1.392 . S
C8637 C8641 1.495 . S
C8638 C8637 1.392 . S
C8638 C8639 1.385 . S
C8638 C8640 1.478 . S
C8639 H8633 0.930 . S
C8639 C8635 1.400 . S
C8639 C8638 1.385 . S
C8640 C8638 1.478 . S
C8640 C8642 1.381 . S
C8640 C8646 1.383 . S
C8641 C8637 1.495 . S
C8641 H8647 0.959 . S
C8641 H8648 0.961 . S
C8641 H8649 0.960 . S
C8642 C8640 1.381 . S
C8642 C8643 1.394 . S
C8642 H8650 0.930 . S
C8643 C8642 1.394 . S
C8643 C8644 1.383 . S
C8643 H8651 0.929 . S
C8644 C8643 1.383 . S
C8644 C8645 1.377 . S
C8645 H8629 0.930 . S
C8645 C8644 1.377 . S
C8645 C8646 1.379 . S
C8646 H8630 0.931 . S
C8646 C8640 1.383 . S
C8646 C8645 1.379 . S
H8647 C8641 0.959 . S
H8648 C8641 0.961 . S
H8649 C8641 0.960 . S
H8650 C8642 0.930 . S
H8651 C8643 0.929 . S
H8652 C8660 0.929 . S
H8653 C8662 0.930 . S
H8654 C8664 0.930 . S
H8655 C8667 0.929 . S
H8656 C8670 0.930 . S
H8657 C8672 0.960 . S
H8658 C8672 0.960 . S
H8659 C8672 0.960 . S
C8660 H8652 0.929 . S
C8660 C8661 1.377 . S
C8660 C8662 1.384 . S
C8661 C8660 1.377 . S
C8661 C8667 1.390 . S
C8662 H8653 0.930 . S
C8662 C8660 1.384 . S
C8662 C8663 1.372 . S
C8663 C8662 1.372 . S
C8663 C8664 1.400 . S
C8663 C8668 1.490 . S
C8664 H8654 0.930 . S
C8664 C8663 1.400 . S
C8664 C8667 1.386 . S
H8665 C8681 0.930 . S
H8666 C8682 0.931 . S
C8667 H8655 0.929 . S
C8667 C8661 1.390 . S
C8667 C8664 1.386 . S
C8668 C8663 1.490 . S
C8668 C8670 1.395 . S
C8668 C8671 1.403 . S
H8669 C8675 0.930 . S
C8670 H8656 0.930 . S
C8670 C8668 1.395 . S
C8670 C8673 1.403 . S
C8671 C8668 1.403 . S
C8671 C8672 1.524 . S
C8671 C8675 1.400 . S
C8672 H8657 0.960 . S
C8672 H8658 0.960 . S
C8672 H8659 0.960 . S
C8672 C8671 1.524 . S
C8673 C8670 1.403 . S
C8673 C8674 1.392 . S
C8673 C8677 1.495 . S
C8674 C8673 1.392 . S
C8674 C8675 1.385 . S
C8674 C8676 1.478 . S
C8675 H8669 0.930 . S
C8675 C8671 1.400 . S
C8675 C8674 1.385 . S
C8676 C8674 1.478 . S
C8676 C8678 1.381 . S
C8676 C8682 1.383 . S
C8677 C8673 1.495 . S
C8677 H8683 0.959 . S
C8677 H8684 0.961 . S
C8677 H8685 0.960 . S
C8678 C8676 1.381 . S
C8678 C8679 1.394 . S
C8678 H8686 0.930 . S
C8679 C8678 1.394 . S
C8679 C8680 1.383 . S
C8679 H8687 0.929 . S
C8680 C8679 1.383 . S
C8680 C8681 1.377 . S
C8681 H8665 0.930 . S
C8681 C8680 1.377 . S
C8681 C8682 1.379 . S
C8682 H8666 0.931 . S
C8682 C8676 1.383 . S
C8682 C8681 1.379 . S
H8683 C8677 0.959 . S
H8684 C8677 0.961 . S
H8685 C8677 0.960 . S
H8686 C8678 0.930 . S
H8687 C8679 0.929 . S
H8688 C8696 0.929 . S
H8689 C8698 0.930 . S
H8690 C8700 0.930 . S
H8691 C8703 0.929 . S
H8692 C8706 0.930 . S
H8693 C8708 0.960 . S
H8694 C8708 0.960 . S
H8695 C8708 0.960 . S
C8696 H8688 0.929 . S
C8696 C8697 1.377 . S
C8696 C8698 1.384 . S
C8697 C8696 1.377 . S
C8697 C8703 1.390 . S
C8698 H8689 0.930 . S
C8698 C8696 1.384 . S
C8698 C8699 1.372 . S
C8699 C8698 1.372 . S
C8699 C8700 1.400 . S
C8699 C8704 1.490 . S
C8700 H8690 0.930 . S
C8700 C8699 1.400 . S
C8700 C8703 1.386 . S
H8701 C8717 0.930 . S
H8702 C8718 0.931 . S
C8703 H8691 0.929 . S
C8703 C8697 1.390 . S
C8703 C8700 1.386 . S
C8704 C8699 1.490 . S
C8704 C8706 1.395 . S
C8704 C8707 1.403 . S
H8705 C8711 0.930 . S
C8706 H8692 0.930 . S
C8706 C8704 1.395 . S
C8706 C8709 1.403 . S
C8707 C8704 1.403 . S
C8707 C8708 1.524 . S
C8707 C8711 1.400 . S
C8708 H8693 0.960 . S
C8708 H8694 0.960 . S
C8708 H8695 0.960 . S
C8708 C8707 1.524 . S
C8709 C8706 1.403 . S
C8709 C8710 1.392 . S
C8709 C8713 1.495 . S
C8710 C8709 1.392 . S
C8710 C8711 1.385 . S
C8710 C8712 1.478 . S
C8711 H8705 0.930 . S
C8711 C8707 1.400 . S
C8711 C8710 1.385 . S
C8712 C8710 1.478 . S
C8712 C8714 1.381 . S
C8712 C8718 1.383 . S
C8713 C8709 1.495 . S
C8713 H8719 0.959 . S
C8713 H8720 0.961 . S
C8713 H8721 0.960 . S
C8714 C8712 1.381 . S
C8714 C8715 1.394 . S
C8714 H8722 0.930 . S
C8715 C8714 1.394 . S
C8715 C8716 1.383 . S
C8715 H8723 0.929 . S
C8716 C8715 1.383 . S
C8716 C8717 1.377 . S
C8717 H8701 0.930 . S
C8717 C8716 1.377 . S
C8717 C8718 1.379 . S
C8718 H8702 0.931 . S
C8718 C8712 1.383 . S
C8718 C8717 1.379 . S
H8719 C8713 0.959 . S
H8720 C8713 0.961 . S
H8721 C8713 0.960 . S
H8722 C8714 0.930 . S
H8723 C8715 0.929 . S
H8724 C8732 0.929 . S
H8725 C8734 0.930 . S
H8726 C8736 0.930 . S
H8727 C8739 0.929 . S
H8728 C8742 0.930 . S
H8729 C8744 0.960 . S
H8730 C8744 0.960 . S
H8731 C8744 0.960 . S
C8732 H8724 0.929 . S
C8732 C8733 1.377 . S
C8732 C8734 1.384 . S
C8733 C8732 1.377 . S
C8733 C8739 1.390 . S
C8734 H8725 0.930 . S
C8734 C8732 1.384 . S
C8734 C8735 1.372 . S
C8735 C8734 1.372 . S
C8735 C8736 1.400 . S
C8735 C8740 1.490 . S
C8736 H8726 0.930 . S
C8736 C8735 1.400 . S
C8736 C8739 1.386 . S
H8737 C8753 0.930 . S
H8738 C8754 0.931 . S
C8739 H8727 0.929 . S
C8739 C8733 1.390 . S
C8739 C8736 1.386 . S
C8740 C8735 1.490 . S
C8740 C8742 1.395 . S
C8740 C8743 1.403 . S
H8741 C8747 0.930 . S
C8742 H8728 0.930 . S
C8742 C8740 1.395 . S
C8742 C8745 1.403 . S
C8743 C8740 1.403 . S
C8743 C8744 1.524 . S
C8743 C8747 1.400 . S
C8744 H8729 0.960 . S
C8744 H8730 0.960 . S
C8744 H8731 0.960 . S
C8744 C8743 1.524 . S
C8745 C8742 1.403 . S
C8745 C8746 1.392 . S
C8745 C8749 1.495 . S
C8746 C8745 1.392 . S
C8746 C8747 1.385 . S
C8746 C8748 1.478 . S
C8747 H8741 0.930 . S
C8747 C8743 1.400 . S
C8747 C8746 1.385 . S
C8748 C8746 1.478 . S
C8748 C8750 1.381 . S
C8748 C8754 1.383 . S
C8749 C8745 1.495 . S
C8749 H8755 0.959 . S
C8749 H8756 0.961 . S
C8749 H8757 0.960 . S
C8750 C8748 1.381 . S
C8750 C8751 1.394 . S
C8750 H8758 0.930 . S
C8751 C8750 1.394 . S
C8751 C8752 1.383 . S
C8751 H8759 0.929 . S
C8752 C8751 1.383 . S
C8752 C8753 1.377 . S
C8753 H8737 0.930 . S
C8753 C8752 1.377 . S
C8753 C8754 1.379 . S
C8754 H8738 0.931 . S
C8754 C8748 1.383 . S
C8754 C8753 1.379 . S
H8755 C8749 0.959 . S
H8756 C8749 0.961 . S
H8757 C8749 0.960 . S
H8758 C8750 0.930 . S
H8759 C8751 0.929 . S
H8760 C8768 0.929 . S
H8761 C8770 0.930 . S
H8762 C8772 0.930 . S
H8763 C8775 0.929 . S
H8764 C8778 0.930 . S
H8765 C8780 0.960 . S
H8766 C8780 0.960 . S
H8767 C8780 0.960 . S
C8768 H8760 0.929 . S
C8768 C8769 1.377 . S
C8768 C8770 1.384 . S
C8769 C8768 1.377 . S
C8769 C8775 1.390 . S
C8770 H8761 0.930 . S
C8770 C8768 1.384 . S
C8770 C8771 1.372 . S
C8771 C8770 1.372 . S
C8771 C8772 1.400 . S
C8771 C8776 1.490 . S
C8772 H8762 0.930 . S
C8772 C8771 1.400 . S
C8772 C8775 1.386 . S
H8773 C8789 0.930 . S
H8774 C8790 0.931 . S
C8775 H8763 0.929 . S
C8775 C8769 1.390 . S
C8775 C8772 1.386 . S
C8776 C8771 1.490 . S
C8776 C8778 1.395 . S
C8776 C8779 1.403 . S
H8777 C8783 0.930 . S
C8778 H8764 0.930 . S
C8778 C8776 1.395 . S
C8778 C8781 1.403 . S
C8779 C8776 1.403 . S
C8779 C8780 1.524 . S
C8779 C8783 1.400 . S
C8780 H8765 0.960 . S
C8780 H8766 0.960 . S
C8780 H8767 0.960 . S
C8780 C8779 1.524 . S
C8781 C8778 1.403 . S
C8781 C8782 1.392 . S
C8781 C8785 1.495 . S
C8782 C8781 1.392 . S
C8782 C8783 1.385 . S
C8782 C8784 1.478 . S
C8783 H8777 0.930 . S
C8783 C8779 1.400 . S
C8783 C8782 1.385 . S
C8784 C8782 1.478 . S
C8784 C8786 1.381 . S
C8784 C8790 1.383 . S
C8785 C8781 1.495 . S
C8785 H8791 0.959 . S
C8785 H8792 0.961 . S
C8785 H8793 0.960 . S
C8786 C8784 1.381 . S
C8786 C8787 1.394 . S
C8786 H8794 0.930 . S
C8787 C8786 1.394 . S
C8787 C8788 1.383 . S
C8787 H8795 0.929 . S
C8788 C8787 1.383 . S
C8788 C8789 1.377 . S
C8789 H8773 0.930 . S
C8789 C8788 1.377 . S
C8789 C8790 1.379 . S
C8790 H8774 0.931 . S
C8790 C8784 1.383 . S
C8790 C8789 1.379 . S
H8791 C8785 0.959 . S
H8792 C8785 0.961 . S
H8793 C8785 0.960 . S
H8794 C8786 0.930 . S
H8795 C8787 0.929 . S
H8796 C8804 0.929 . S
H8797 C8806 0.930 . S
H8798 C8808 0.930 . S
H8799 C8811 0.929 . S
H8800 C8814 0.930 . S
H8801 C8816 0.960 . S
H8802 C8816 0.960 . S
H8803 C8816 0.960 . S
C8804 H8796 0.929 . S
C8804 C8805 1.377 . S
C8804 C8806 1.384 . S
C8805 C8804 1.377 . S
C8805 C8811 1.390 . S
C8806 H8797 0.930 . S
C8806 C8804 1.384 . S
C8806 C8807 1.372 . S
C8807 C8806 1.372 . S
C8807 C8808 1.400 . S
C8807 C8812 1.490 . S
C8808 H8798 0.930 . S
C8808 C8807 1.400 . S
C8808 C8811 1.386 . S
H8809 C8825 0.930 . S
H8810 C8826 0.931 . S
C8811 H8799 0.929 . S
C8811 C8805 1.390 . S
C8811 C8808 1.386 . S
C8812 C8807 1.490 . S
C8812 C8814 1.395 . S
C8812 C8815 1.403 . S
H8813 C8819 0.930 . S
C8814 H8800 0.930 . S
C8814 C8812 1.395 . S
C8814 C8817 1.403 . S
C8815 C8812 1.403 . S
C8815 C8816 1.524 . S
C8815 C8819 1.400 . S
C8816 H8801 0.960 . S
C8816 H8802 0.960 . S
C8816 H8803 0.960 . S
C8816 C8815 1.524 . S
C8817 C8814 1.403 . S
C8817 C8818 1.392 . S
C8817 C8821 1.495 . S
C8818 C8817 1.392 . S
C8818 C8819 1.385 . S
C8818 C8820 1.478 . S
C8819 H8813 0.930 . S
C8819 C8815 1.400 . S
C8819 C8818 1.385 . S
C8820 C8818 1.478 . S
C8820 C8822 1.381 . S
C8820 C8826 1.383 . S
C8821 C8817 1.495 . S
C8821 H8827 0.959 . S
C8821 H8828 0.961 . S
C8821 H8829 0.960 . S
C8822 C8820 1.381 . S
C8822 C8823 1.394 . S
C8822 H8830 0.930 . S
C8823 C8822 1.394 . S
C8823 C8824 1.383 . S
C8823 H8831 0.929 . S
C8824 C8823 1.383 . S
C8824 C8825 1.377 . S
C8825 H8809 0.930 . S
C8825 C8824 1.377 . S
C8825 C8826 1.379 . S
C8826 H8810 0.931 . S
C8826 C8820 1.383 . S
C8826 C8825 1.379 . S
H8827 C8821 0.959 . S
H8828 C8821 0.961 . S
H8829 C8821 0.960 . S
H8830 C8822 0.930 . S
H8831 C8823 0.929 . S
H8832 C8840 0.929 . S
H8833 C8842 0.930 . S
H8834 C8844 0.930 . S
H8835 C8847 0.929 . S
H8836 C8850 0.930 . S
H8837 C8852 0.960 . S
H8838 C8852 0.960 . S
H8839 C8852 0.960 . S
C8840 H8832 0.929 . S
C8840 C8841 1.377 . S
C8840 C8842 1.384 . S
C8841 C8840 1.377 . S
C8841 C8847 1.390 . S
C8842 H8833 0.930 . S
C8842 C8840 1.384 . S
C8842 C8843 1.372 . S
C8843 C8842 1.372 . S
C8843 C8844 1.400 . S
C8843 C8848 1.490 . S
C8844 H8834 0.930 . S
C8844 C8843 1.400 . S
C8844 C8847 1.386 . S
H8845 C8861 0.930 . S
H8846 C8862 0.931 . S
C8847 H8835 0.929 . S
C8847 C8841 1.390 . S
C8847 C8844 1.386 . S
C8848 C8843 1.490 . S
C8848 C8850 1.395 . S
C8848 C8851 1.403 . S
H8849 C8855 0.930 . S
C8850 H8836 0.930 . S
C8850 C8848 1.395 . S
C8850 C8853 1.403 . S
C8851 C8848 1.403 . S
C8851 C8852 1.524 . S
C8851 C8855 1.400 . S
C8852 H8837 0.960 . S
C8852 H8838 0.960 . S
C8852 H8839 0.960 . S
C8852 C8851 1.524 . S
C8853 C8850 1.403 . S
C8853 C8854 1.392 . S
C8853 C8857 1.495 . S
C8854 C8853 1.392 . S
C8854 C8855 1.385 . S
C8854 C8856 1.478 . S
C8855 H8849 0.930 . S
C8855 C8851 1.400 . S
C8855 C8854 1.385 . S
C8856 C8854 1.478 . S
C8856 C8858 1.381 . S
C8856 C8862 1.383 . S
C8857 C8853 1.495 . S
C8857 H8863 0.959 . S
C8857 H8864 0.961 . S
C8857 H8865 0.960 . S
C8858 C8856 1.381 . S
C8858 C8859 1.394 . S
C8858 H8866 0.930 . S
C8859 C8858 1.394 . S
C8859 C8860 1.383 . S
C8859 H8867 0.929 . S
C8860 C8859 1.383 . S
C8860 C8861 1.377 . S
C8861 H8845 0.930 . S
C8861 C8860 1.377 . S
C8861 C8862 1.379 . S
C8862 H8846 0.931 . S
C8862 C8856 1.383 . S
C8862 C8861 1.379 . S
H8863 C8857 0.959 . S
H8864 C8857 0.961 . S
H8865 C8857 0.960 . S
H8866 C8858 0.930 . S
H8867 C8859 0.929 . S
H8868 C8876 0.929 . S
H8869 C8878 0.930 . S
H8870 C8880 0.930 . S
H8871 C8883 0.929 . S
H8872 C8886 0.930 . S
H8873 C8888 0.960 . S
H8874 C8888 0.960 . S
H8875 C8888 0.960 . S
C8876 H8868 0.929 . S
C8876 C8877 1.377 . S
C8876 C8878 1.384 . S
C8877 C8876 1.377 . S
C8877 C8883 1.390 . S
C8878 H8869 0.930 . S
C8878 C8876 1.384 . S
C8878 C8879 1.372 . S
C8879 C8878 1.372 . S
C8879 C8880 1.400 . S
C8879 C8884 1.490 . S
C8880 H8870 0.930 . S
C8880 C8879 1.400 . S
C8880 C8883 1.386 . S
H8881 C8897 0.930 . S
H8882 C8898 0.931 . S
C8883 H8871 0.929 . S
C8883 C8877 1.390 . S
C8883 C8880 1.386 . S
C8884 C8879 1.490 . S
C8884 C8886 1.395 . S
C8884 C8887 1.403 . S
H8885 C8891 0.930 . S
C8886 H8872 0.930 . S
C8886 C8884 1.395 . S
C8886 C8889 1.403 . S
C8887 C8884 1.403 . S
C8887 C8888 1.524 . S
C8887 C8891 1.400 . S
C8888 H8873 0.960 . S
C8888 H8874 0.960 . S
C8888 H8875 0.960 . S
C8888 C8887 1.524 . S
C8889 C8886 1.403 . S
C8889 C8890 1.392 . S
C8889 C8893 1.495 . S
C8890 C8889 1.392 . S
C8890 C8891 1.385 . S
C8890 C8892 1.478 . S
C8891 H8885 0.930 . S
C8891 C8887 1.400 . S
C8891 C8890 1.385 . S
C8892 C8890 1.478 . S
C8892 C8894 1.381 . S
C8892 C8898 1.383 . S
C8893 C8889 1.495 . S
C8893 H8899 0.959 . S
C8893 H8900 0.961 . S
C8893 H8901 0.960 . S
C8894 C8892 1.381 . S
C8894 C8895 1.394 . S
C8894 H8902 0.930 . S
C8895 C8894 1.394 . S
C8895 C8896 1.383 . S
C8895 H8903 0.929 . S
C8896 C8895 1.383 . S
C8896 C8897 1.377 . S
C8897 H8881 0.930 . S
C8897 C8896 1.377 . S
C8897 C8898 1.379 . S
C8898 H8882 0.931 . S
C8898 C8892 1.383 . S
C8898 C8897 1.379 . S
H8899 C8893 0.959 . S
H8900 C8893 0.961 . S
H8901 C8893 0.960 . S
H8902 C8894 0.930 . S
H8903 C8895 0.929 . S
H8904 C8912 0.929 . S
H8905 C8914 0.930 . S
H8906 C8916 0.930 . S
H8907 C8919 0.929 . S
H8908 C8922 0.930 . S
H8909 C8924 0.960 . S
H8910 C8924 0.960 . S
H8911 C8924 0.960 . S
C8912 H8904 0.929 . S
C8912 C8913 1.377 . S
C8912 C8914 1.384 . S
C8913 C8912 1.377 . S
C8913 C8919 1.390 . S
C8914 H8905 0.930 . S
C8914 C8912 1.384 . S
C8914 C8915 1.372 . S
C8915 C8914 1.372 . S
C8915 C8916 1.400 . S
C8915 C8920 1.490 . S
C8916 H8906 0.930 . S
C8916 C8915 1.400 . S
C8916 C8919 1.386 . S
H8917 C8933 0.930 . S
H8918 C8934 0.931 . S
C8919 H8907 0.929 . S
C8919 C8913 1.390 . S
C8919 C8916 1.386 . S
C8920 C8915 1.490 . S
C8920 C8922 1.395 . S
C8920 C8923 1.403 . S
H8921 C8927 0.930 . S
C8922 H8908 0.930 . S
C8922 C8920 1.395 . S
C8922 C8925 1.403 . S
C8923 C8920 1.403 . S
C8923 C8924 1.524 . S
C8923 C8927 1.400 . S
C8924 H8909 0.960 . S
C8924 H8910 0.960 . S
C8924 H8911 0.960 . S
C8924 C8923 1.524 . S
C8925 C8922 1.403 . S
C8925 C8926 1.392 . S
C8925 C8929 1.495 . S
C8926 C8925 1.392 . S
C8926 C8927 1.385 . S
C8926 C8928 1.478 . S
C8927 H8921 0.930 . S
C8927 C8923 1.400 . S
C8927 C8926 1.385 . S
C8928 C8926 1.478 . S
C8928 C8930 1.381 . S
C8928 C8934 1.383 . S
C8929 C8925 1.495 . S
C8929 H8935 0.959 . S
C8929 H8936 0.961 . S
C8929 H8937 0.960 . S
C8930 C8928 1.381 . S
C8930 C8931 1.394 . S
C8930 H8938 0.930 . S
C8931 C8930 1.394 . S
C8931 C8932 1.383 . S
C8931 H8939 0.929 . S
C8932 C8931 1.383 . S
C8932 C8933 1.377 . S
C8933 H8917 0.930 . S
C8933 C8932 1.377 . S
C8933 C8934 1.379 . S
C8934 H8918 0.931 . S
C8934 C8928 1.383 . S
C8934 C8933 1.379 . S
H8935 C8929 0.959 . S
H8936 C8929 0.961 . S
H8937 C8929 0.960 . S
H8938 C8930 0.930 . S
H8939 C8931 0.929 . S
H8940 C8948 0.929 . S
H8941 C8950 0.930 . S
H8942 C8952 0.930 . S
H8943 C8955 0.929 . S
H8944 C8958 0.930 . S
H8945 C8960 0.960 . S
H8946 C8960 0.960 . S
H8947 C8960 0.960 . S
C8948 H8940 0.929 . S
C8948 C8949 1.377 . S
C8948 C8950 1.384 . S
C8949 C8948 1.377 . S
C8949 C8955 1.390 . S
C8950 H8941 0.930 . S
C8950 C8948 1.384 . S
C8950 C8951 1.372 . S
C8951 C8950 1.372 . S
C8951 C8952 1.400 . S
C8951 C8956 1.490 . S
C8952 H8942 0.930 . S
C8952 C8951 1.400 . S
C8952 C8955 1.386 . S
H8953 C8969 0.930 . S
H8954 C8970 0.931 . S
C8955 H8943 0.929 . S
C8955 C8949 1.390 . S
C8955 C8952 1.386 . S
C8956 C8951 1.490 . S
C8956 C8958 1.395 . S
C8956 C8959 1.403 . S
H8957 C8963 0.930 . S
C8958 H8944 0.930 . S
C8958 C8956 1.395 . S
C8958 C8961 1.403 . S
C8959 C8956 1.403 . S
C8959 C8960 1.524 . S
C8959 C8963 1.400 . S
C8960 H8945 0.960 . S
C8960 H8946 0.960 . S
C8960 H8947 0.960 . S
C8960 C8959 1.524 . S
C8961 C8958 1.403 . S
C8961 C8962 1.392 . S
C8961 C8965 1.495 . S
C8962 C8961 1.392 . S
C8962 C8963 1.385 . S
C8962 C8964 1.478 . S
C8963 H8957 0.930 . S
C8963 C8959 1.400 . S
C8963 C8962 1.385 . S
C8964 C8962 1.478 . S
C8964 C8966 1.381 . S
C8964 C8970 1.383 . S
C8965 C8961 1.495 . S
C8965 H8971 0.959 . S
C8965 H8972 0.961 . S
C8965 H8973 0.960 . S
C8966 C8964 1.381 . S
C8966 C8967 1.394 . S
C8966 H8974 0.930 . S
C8967 C8966 1.394 . S
C8967 C8968 1.383 . S
C8967 H8975 0.929 . S
C8968 C8967 1.383 . S
C8968 C8969 1.377 . S
C8969 H8953 0.930 . S
C8969 C8968 1.377 . S
C8969 C8970 1.379 . S
C8970 H8954 0.931 . S
C8970 C8964 1.383 . S
C8970 C8969 1.379 . S
H8971 C8965 0.959 . S
H8972 C8965 0.961 . S
H8973 C8965 0.960 . S
H8974 C8966 0.930 . S
H8975 C8967 0.929 . S
H8976 C8984 0.929 . S
H8977 C8986 0.930 . S
H8978 C8988 0.930 . S
H8979 C8991 0.929 . S
H8980 C8994 0.930 . S
H8981 C8996 0.960 . S
H8982 C8996 0.960 . S
H8983 C8996 0.960 . S
C8984 H8976 0.929 . S
C8984 C8985 1.377 . S
C8984 C8986 1.384 . S
C8985 C8984 1.377 . S
C8985 C8991 1.390 . S
C8986 H8977 0.930 . S
C8986 C8984 1.384 . S
C8986 C8987 1.372 . S
C8987 C8986 1.372 . S
C8987 C8988 1.400 . S
C8987 C8992 1.490 . S
C8988 H8978 0.930 . S
C8988 C8987 1.400 . S
C8988 C8991 1.386 . S
H8989 C9005 0.930 . S
H8990 C9006 0.931 . S
C8991 H8979 0.929 . S
C8991 C8985 1.390 . S
C8991 C8988 1.386 . S
C8992 C8987 1.490 . S
C8992 C8994 1.395 . S
C8992 C8995 1.403 . S
H8993 C8999 0.930 . S
C8994 H8980 0.930 . S
C8994 C8992 1.395 . S
C8994 C8997 1.403 . S
C8995 C8992 1.403 . S
C8995 C8996 1.524 . S
C8995 C8999 1.400 . S
C8996 H8981 0.960 . S
C8996 H8982 0.960 . S
C8996 H8983 0.960 . S
C8996 C8995 1.524 . S
C8997 C8994 1.403 . S
C8997 C8998 1.392 . S
C8997 C9001 1.495 . S
C8998 C8997 1.392 . S
C8998 C8999 1.385 . S
C8998 C9000 1.478 . S
C8999 H8993 0.930 . S
C8999 C8995 1.400 . S
C8999 C8998 1.385 . S
C9000 C8998 1.478 . S
C9000 C9002 1.381 . S
C9000 C9006 1.383 . S
C9001 C8997 1.495 . S
C9001 H9007 0.959 . S
C9001 H9008 0.961 . S
C9001 H9009 0.960 . S
C9002 C9000 1.381 . S
C9002 C9003 1.394 . S
C9002 H9010 0.930 . S
C9003 C9002 1.394 . S
C9003 C9004 1.383 . S
C9003 H9011 0.929 . S
C9004 C9003 1.383 . S
C9004 C9005 1.377 . S
C9005 H8989 0.930 . S
C9005 C9004 1.377 . S
C9005 C9006 1.379 . S
C9006 H8990 0.931 . S
C9006 C9000 1.383 . S
C9006 C9005 1.379 . S
H9007 C9001 0.959 . S
H9008 C9001 0.961 . S
H9009 C9001 0.960 . S
H9010 C9002 0.930 . S
H9011 C9003 0.929 . S
H9012 C9020 0.929 . S
H9013 C9022 0.930 . S
H9014 C9024 0.930 . S
H9015 C9027 0.929 . S
H9016 C9030 0.930 . S
H9017 C9032 0.960 . S
H9018 C9032 0.960 . S
H9019 C9032 0.960 . S
C9020 H9012 0.929 . S
C9020 C9021 1.377 . S
C9020 C9022 1.384 . S
C9021 C9020 1.377 . S
C9021 C9027 1.390 . S
C9022 H9013 0.930 . S
C9022 C9020 1.384 . S
C9022 C9023 1.372 . S
C9023 C9022 1.372 . S
C9023 C9024 1.400 . S
C9023 C9028 1.490 . S
C9024 H9014 0.930 . S
C9024 C9023 1.400 . S
C9024 C9027 1.386 . S
H9025 C9041 0.930 . S
H9026 C9042 0.931 . S
C9027 H9015 0.929 . S
C9027 C9021 1.390 . S
C9027 C9024 1.386 . S
C9028 C9023 1.490 . S
C9028 C9030 1.395 . S
C9028 C9031 1.403 . S
H9029 C9035 0.930 . S
C9030 H9016 0.930 . S
C9030 C9028 1.395 . S
C9030 C9033 1.403 . S
C9031 C9028 1.403 . S
C9031 C9032 1.524 . S
C9031 C9035 1.400 . S
C9032 H9017 0.960 . S
C9032 H9018 0.960 . S
C9032 H9019 0.960 . S
C9032 C9031 1.524 . S
C9033 C9030 1.403 . S
C9033 C9034 1.392 . S
C9033 C9037 1.495 . S
C9034 C9033 1.392 . S
C9034 C9035 1.385 . S
C9034 C9036 1.478 . S
C9035 H9029 0.930 . S
C9035 C9031 1.400 . S
C9035 C9034 1.385 . S
C9036 C9034 1.478 . S
C9036 C9038 1.381 . S
C9036 C9042 1.383 . S
C9037 C9033 1.495 . S
C9037 H9043 0.959 . S
C9037 H9044 0.961 . S
C9037 H9045 0.960 . S
C9038 C9036 1.381 . S
C9038 C9039 1.394 . S
C9038 H9046 0.930 . S
C9039 C9038 1.394 . S
C9039 C9040 1.383 . S
C9039 H9047 0.929 . S
C9040 C9039 1.383 . S
C9040 C9041 1.377 . S
C9041 H9025 0.930 . S
C9041 C9040 1.377 . S
C9041 C9042 1.379 . S
C9042 H9026 0.931 . S
C9042 C9036 1.383 . S
C9042 C9041 1.379 . S
H9043 C9037 0.959 . S
H9044 C9037 0.961 . S
H9045 C9037 0.960 . S
H9046 C9038 0.930 . S
H9047 C9039 0.929 . S
H9048 C9056 0.929 . S
H9049 C9058 0.930 . S
H9050 C9060 0.930 . S
H9051 C9063 0.929 . S
H9052 C9066 0.930 . S
H9053 C9068 0.960 . S
H9054 C9068 0.960 . S
H9055 C9068 0.960 . S
C9056 H9048 0.929 . S
C9056 C9057 1.377 . S
C9056 C9058 1.384 . S
C9057 C9056 1.377 . S
C9057 C9063 1.390 . S
C9058 H9049 0.930 . S
C9058 C9056 1.384 . S
C9058 C9059 1.372 . S
C9059 C9058 1.372 . S
C9059 C9060 1.400 . S
C9059 C9064 1.490 . S
C9060 H9050 0.930 . S
C9060 C9059 1.400 . S
C9060 C9063 1.386 . S
H9061 C9077 0.930 . S
H9062 C9078 0.931 . S
C9063 H9051 0.929 . S
C9063 C9057 1.390 . S
C9063 C9060 1.386 . S
C9064 C9059 1.490 . S
C9064 C9066 1.395 . S
C9064 C9067 1.403 . S
H9065 C9071 0.930 . S
C9066 H9052 0.930 . S
C9066 C9064 1.395 . S
C9066 C9069 1.403 . S
C9067 C9064 1.403 . S
C9067 C9068 1.524 . S
C9067 C9071 1.400 . S
C9068 H9053 0.960 . S
C9068 H9054 0.960 . S
C9068 H9055 0.960 . S
C9068 C9067 1.524 . S
C9069 C9066 1.403 . S
C9069 C9070 1.392 . S
C9069 C9073 1.495 . S
C9070 C9069 1.392 . S
C9070 C9071 1.385 . S
C9070 C9072 1.478 . S
C9071 H9065 0.930 . S
C9071 C9067 1.400 . S
C9071 C9070 1.385 . S
C9072 C9070 1.478 . S
C9072 C9074 1.381 . S
C9072 C9078 1.383 . S
C9073 C9069 1.495 . S
C9073 H9079 0.959 . S
C9073 H9080 0.961 . S
C9073 H9081 0.960 . S
C9074 C9072 1.381 . S
C9074 C9075 1.394 . S
C9074 H9082 0.930 . S
C9075 C9074 1.394 . S
C9075 C9076 1.383 . S
C9075 H9083 0.929 . S
C9076 C9075 1.383 . S
C9076 C9077 1.377 . S
C9077 H9061 0.930 . S
C9077 C9076 1.377 . S
C9077 C9078 1.379 . S
C9078 H9062 0.931 . S
C9078 C9072 1.383 . S
C9078 C9077 1.379 . S
H9079 C9073 0.959 . S
H9080 C9073 0.961 . S
H9081 C9073 0.960 . S
H9082 C9074 0.930 . S
H9083 C9075 0.929 . S
H9084 C9092 0.929 . S
H9085 C9094 0.930 . S
H9086 C9096 0.930 . S
H9087 C9099 0.929 . S
H9088 C9102 0.930 . S
H9089 C9104 0.960 . S
H9090 C9104 0.960 . S
H9091 C9104 0.960 . S
C9092 H9084 0.929 . S
C9092 C9093 1.377 . S
C9092 C9094 1.384 . S
C9093 C9092 1.377 . S
C9093 C9099 1.390 . S
C9094 H9085 0.930 . S
C9094 C9092 1.384 . S
C9094 C9095 1.372 . S
C9095 C9094 1.372 . S
C9095 C9096 1.400 . S
C9095 C9100 1.490 . S
C9096 H9086 0.930 . S
C9096 C9095 1.400 . S
C9096 C9099 1.386 . S
H9097 C9113 0.930 . S
H9098 C9114 0.931 . S
C9099 H9087 0.929 . S
C9099 C9093 1.390 . S
C9099 C9096 1.386 . S
C9100 C9095 1.490 . S
C9100 C9102 1.395 . S
C9100 C9103 1.403 . S
H9101 C9107 0.930 . S
C9102 H9088 0.930 . S
C9102 C9100 1.395 . S
C9102 C9105 1.403 . S
C9103 C9100 1.403 . S
C9103 C9104 1.524 . S
C9103 C9107 1.400 . S
C9104 H9089 0.960 . S
C9104 H9090 0.960 . S
C9104 H9091 0.960 . S
C9104 C9103 1.524 . S
C9105 C9102 1.403 . S
C9105 C9106 1.392 . S
C9105 C9109 1.495 . S
C9106 C9105 1.392 . S
C9106 C9107 1.385 . S
C9106 C9108 1.478 . S
C9107 H9101 0.930 . S
C9107 C9103 1.400 . S
C9107 C9106 1.385 . S
C9108 C9106 1.478 . S
C9108 C9110 1.381 . S
C9108 C9114 1.383 . S
C9109 C9105 1.495 . S
C9109 H9115 0.959 . S
C9109 H9116 0.961 . S
C9109 H9117 0.960 . S
C9110 C9108 1.381 . S
C9110 C9111 1.394 . S
C9110 H9118 0.930 . S
C9111 C9110 1.394 . S
C9111 C9112 1.383 . S
C9111 H9119 0.929 . S
C9112 C9111 1.383 . S
C9112 C9113 1.377 . S
C9113 H9097 0.930 . S
C9113 C9112 1.377 . S
C9113 C9114 1.379 . S
C9114 H9098 0.931 . S
C9114 C9108 1.383 . S
C9114 C9113 1.379 . S
H9115 C9109 0.959 . S
H9116 C9109 0.961 . S
H9117 C9109 0.960 . S
H9118 C9110 0.930 . S
H9119 C9111 0.929 . S
H9120 C9128 0.929 . S
H9121 C9130 0.930 . S
H9122 C9132 0.930 . S
H9123 C9135 0.929 . S
H9124 C9138 0.930 . S
H9125 C9140 0.960 . S
H9126 C9140 0.960 . S
H9127 C9140 0.960 . S
C9128 H9120 0.929 . S
C9128 C9129 1.377 . S
C9128 C9130 1.384 . S
C9129 C9128 1.377 . S
C9129 C9135 1.390 . S
C9130 H9121 0.930 . S
C9130 C9128 1.384 . S
C9130 C9131 1.372 . S
C9131 C9130 1.372 . S
C9131 C9132 1.400 . S
C9131 C9136 1.490 . S
C9132 H9122 0.930 . S
C9132 C9131 1.400 . S
C9132 C9135 1.386 . S
H9133 C9149 0.930 . S
H9134 C9150 0.931 . S
C9135 H9123 0.929 . S
C9135 C9129 1.390 . S
C9135 C9132 1.386 . S
C9136 C9131 1.490 . S
C9136 C9138 1.395 . S
C9136 C9139 1.403 . S
H9137 C9143 0.930 . S
C9138 H9124 0.930 . S
C9138 C9136 1.395 . S
C9138 C9141 1.403 . S
C9139 C9136 1.403 . S
C9139 C9140 1.524 . S
C9139 C9143 1.400 . S
C9140 H9125 0.960 . S
C9140 H9126 0.960 . S
C9140 H9127 0.960 . S
C9140 C9139 1.524 . S
C9141 C9138 1.403 . S
C9141 C9142 1.392 . S
C9141 C9145 1.495 . S
C9142 C9141 1.392 . S
C9142 C9143 1.385 . S
C9142 C9144 1.478 . S
C9143 H9137 0.930 . S
C9143 C9139 1.400 . S
C9143 C9142 1.385 . S
C9144 C9142 1.478 . S
C9144 C9146 1.381 . S
C9144 C9150 1.383 . S
C9145 C9141 1.495 . S
C9145 H9151 0.959 . S
C9145 H9152 0.961 . S
C9145 H9153 0.960 . S
C9146 C9144 1.381 . S
C9146 C9147 1.394 . S
C9146 H9154 0.930 . S
C9147 C9146 1.394 . S
C9147 C9148 1.383 . S
C9147 H9155 0.929 . S
C9148 C9147 1.383 . S
C9148 C9149 1.377 . S
C9149 H9133 0.930 . S
C9149 C9148 1.377 . S
C9149 C9150 1.379 . S
C9150 H9134 0.931 . S
C9150 C9144 1.383 . S
C9150 C9149 1.379 . S
H9151 C9145 0.959 . S
H9152 C9145 0.961 . S
H9153 C9145 0.960 . S
H9154 C9146 0.930 . S
H9155 C9147 0.929 . S
H9156 C9164 0.929 . S
H9157 C9166 0.930 . S
H9158 C9168 0.930 . S
H9159 C9171 0.929 . S
H9160 C9174 0.930 . S
H9161 C9176 0.960 . S
H9162 C9176 0.960 . S
H9163 C9176 0.960 . S
C9164 H9156 0.929 . S
C9164 C9165 1.377 . S
C9164 C9166 1.384 . S
C9165 C9164 1.377 . S
C9165 C9171 1.390 . S
C9166 H9157 0.930 . S
C9166 C9164 1.384 . S
C9166 C9167 1.372 . S
C9167 C9166 1.372 . S
C9167 C9168 1.400 . S
C9167 C9172 1.490 . S
C9168 H9158 0.930 . S
C9168 C9167 1.400 . S
C9168 C9171 1.386 . S
H9169 C9185 0.930 . S
H9170 C9186 0.931 . S
C9171 H9159 0.929 . S
C9171 C9165 1.390 . S
C9171 C9168 1.386 . S
C9172 C9167 1.490 . S
C9172 C9174 1.395 . S
C9172 C9175 1.403 . S
H9173 C9179 0.930 . S
C9174 H9160 0.930 . S
C9174 C9172 1.395 . S
C9174 C9177 1.403 . S
C9175 C9172 1.403 . S
C9175 C9176 1.524 . S
C9175 C9179 1.400 . S
C9176 H9161 0.960 . S
C9176 H9162 0.960 . S
C9176 H9163 0.960 . S
C9176 C9175 1.524 . S
C9177 C9174 1.403 . S
C9177 C9178 1.392 . S
C9177 C9181 1.495 . S
C9178 C9177 1.392 . S
C9178 C9179 1.385 . S
C9178 C9180 1.478 . S
C9179 H9173 0.930 . S
C9179 C9175 1.400 . S
C9179 C9178 1.385 . S
C9180 C9178 1.478 . S
C9180 C9182 1.381 . S
C9180 C9186 1.383 . S
C9181 C9177 1.495 . S
C9181 H9187 0.959 . S
C9181 H9188 0.961 . S
C9181 H9189 0.960 . S
C9182 C9180 1.381 . S
C9182 C9183 1.394 . S
C9182 H9190 0.930 . S
C9183 C9182 1.394 . S
C9183 C9184 1.383 . S
C9183 H9191 0.929 . S
C9184 C9183 1.383 . S
C9184 C9185 1.377 . S
C9185 H9169 0.930 . S
C9185 C9184 1.377 . S
C9185 C9186 1.379 . S
C9186 H9170 0.931 . S
C9186 C9180 1.383 . S
C9186 C9185 1.379 . S
H9187 C9181 0.959 . S
H9188 C9181 0.961 . S
H9189 C9181 0.960 . S
H9190 C9182 0.930 . S
H9191 C9183 0.929 . S
H9192 C9200 0.929 . S
H9193 C9202 0.930 . S
H9194 C9204 0.930 . S
H9195 C9207 0.929 . S
H9196 C9210 0.930 . S
H9197 C9212 0.960 . S
H9198 C9212 0.960 . S
H9199 C9212 0.960 . S
C9200 H9192 0.929 . S
C9200 C9201 1.377 . S
C9200 C9202 1.384 . S
C9201 C9200 1.377 . S
C9201 C9207 1.390 . S
C9202 H9193 0.930 . S
C9202 C9200 1.384 . S
C9202 C9203 1.372 . S
C9203 C9202 1.372 . S
C9203 C9204 1.400 . S
C9203 C9208 1.490 . S
C9204 H9194 0.930 . S
C9204 C9203 1.400 . S
C9204 C9207 1.386 . S
H9205 C9221 0.930 . S
H9206 C9222 0.931 . S
C9207 H9195 0.929 . S
C9207 C9201 1.390 . S
C9207 C9204 1.386 . S
C9208 C9203 1.490 . S
C9208 C9210 1.395 . S
C9208 C9211 1.403 . S
H9209 C9215 0.930 . S
C9210 H9196 0.930 . S
C9210 C9208 1.395 . S
C9210 C9213 1.403 . S
C9211 C9208 1.403 . S
C9211 C9212 1.524 . S
C9211 C9215 1.400 . S
C9212 H9197 0.960 . S
C9212 H9198 0.960 . S
C9212 H9199 0.960 . S
C9212 C9211 1.524 . S
C9213 C9210 1.403 . S
C9213 C9214 1.392 . S
C9213 C9217 1.495 . S
C9214 C9213 1.392 . S
C9214 C9215 1.385 . S
C9214 C9216 1.478 . S
C9215 H9209 0.930 . S
C9215 C9211 1.400 . S
C9215 C9214 1.385 . S
C9216 C9214 1.478 . S
C9216 C9218 1.381 . S
C9216 C9222 1.383 . S
C9217 C9213 1.495 . S
C9217 H9223 0.959 . S
C9217 H9224 0.961 . S
C9217 H9225 0.960 . S
C9218 C9216 1.381 . S
C9218 C9219 1.394 . S
C9218 H9226 0.930 . S
C9219 C9218 1.394 . S
C9219 C9220 1.383 . S
C9219 H9227 0.929 . S
C9220 C9219 1.383 . S
C9220 C9221 1.377 . S
C9221 H9205 0.930 . S
C9221 C9220 1.377 . S
C9221 C9222 1.379 . S
C9222 H9206 0.931 . S
C9222 C9216 1.383 . S
C9222 C9221 1.379 . S
H9223 C9217 0.959 . S
H9224 C9217 0.961 . S
H9225 C9217 0.960 . S
H9226 C9218 0.930 . S
H9227 C9219 0.929 . S
H9228 C9236 0.929 . S
H9229 C9238 0.930 . S
H9230 C9240 0.930 . S
H9231 C9243 0.929 . S
H9232 C9246 0.930 . S
H9233 C9248 0.960 . S
H9234 C9248 0.960 . S
H9235 C9248 0.960 . S
C9236 H9228 0.929 . S
C9236 C9237 1.377 . S
C9236 C9238 1.384 . S
C9237 C9236 1.377 . S
C9237 C9243 1.390 . S
C9238 H9229 0.930 . S
C9238 C9236 1.384 . S
C9238 C9239 1.372 . S
C9239 C9238 1.372 . S
C9239 C9240 1.400 . S
C9239 C9244 1.490 . S
C9240 H9230 0.930 . S
C9240 C9239 1.400 . S
C9240 C9243 1.386 . S
H9241 C9257 0.930 . S
H9242 C9258 0.931 . S
C9243 H9231 0.929 . S
C9243 C9237 1.390 . S
C9243 C9240 1.386 . S
C9244 C9239 1.490 . S
C9244 C9246 1.395 . S
C9244 C9247 1.403 . S
H9245 C9251 0.930 . S
C9246 H9232 0.930 . S
C9246 C9244 1.395 . S
C9246 C9249 1.403 . S
C9247 C9244 1.403 . S
C9247 C9248 1.524 . S
C9247 C9251 1.400 . S
C9248 H9233 0.960 . S
C9248 H9234 0.960 . S
C9248 H9235 0.960 . S
C9248 C9247 1.524 . S
C9249 C9246 1.403 . S
C9249 C9250 1.392 . S
C9249 C9253 1.495 . S
C9250 C9249 1.392 . S
C9250 C9251 1.385 . S
C9250 C9252 1.478 . S
C9251 H9245 0.930 . S
C9251 C9247 1.400 . S
C9251 C9250 1.385 . S
C9252 C9250 1.478 . S
C9252 C9254 1.381 . S
C9252 C9258 1.383 . S
C9253 C9249 1.495 . S
C9253 H9259 0.959 . S
C9253 H9260 0.961 . S
C9253 H9261 0.960 . S
C9254 C9252 1.381 . S
C9254 C9255 1.394 . S
C9254 H9262 0.930 . S
C9255 C9254 1.394 . S
C9255 C9256 1.383 . S
C9255 H9263 0.929 . S
C9256 C9255 1.383 . S
C9256 C9257 1.377 . S
C9257 H9241 0.930 . S
C9257 C9256 1.377 . S
C9257 C9258 1.379 . S
C9258 H9242 0.931 . S
C9258 C9252 1.383 . S
C9258 C9257 1.379 . S
H9259 C9253 0.959 . S
H9260 C9253 0.961 . S
H9261 C9253 0.960 . S
H9262 C9254 0.930 . S
H9263 C9255 0.929 . S
H9264 C9272 0.929 . S
H9265 C9274 0.930 . S
H9266 C9276 0.930 . S
H9267 C9279 0.929 . S
H9268 C9282 0.930 . S
H9269 C9284 0.960 . S
H9270 C9284 0.960 . S
H9271 C9284 0.960 . S
C9272 H9264 0.929 . S
C9272 C9273 1.377 . S
C9272 C9274 1.384 . S
C9273 C9272 1.377 . S
C9273 C9279 1.390 . S
C9274 H9265 0.930 . S
C9274 C9272 1.384 . S
C9274 C9275 1.372 . S
C9275 C9274 1.372 . S
C9275 C9276 1.400 . S
C9275 C9280 1.490 . S
C9276 H9266 0.930 . S
C9276 C9275 1.400 . S
C9276 C9279 1.386 . S
H9277 C9293 0.930 . S
H9278 C9294 0.931 . S
C9279 H9267 0.929 . S
C9279 C9273 1.390 . S
C9279 C9276 1.386 . S
C9280 C9275 1.490 . S
C9280 C9282 1.395 . S
C9280 C9283 1.403 . S
H9281 C9287 0.930 . S
C9282 H9268 0.930 . S
C9282 C9280 1.395 . S
C9282 C9285 1.403 . S
C9283 C9280 1.403 . S
C9283 C9284 1.524 . S
C9283 C9287 1.400 . S
C9284 H9269 0.960 . S
C9284 H9270 0.960 . S
C9284 H9271 0.960 . S
C9284 C9283 1.524 . S
C9285 C9282 1.403 . S
C9285 C9286 1.392 . S
C9285 C9289 1.495 . S
C9286 C9285 1.392 . S
C9286 C9287 1.385 . S
C9286 C9288 1.478 . S
C9287 H9281 0.930 . S
C9287 C9283 1.400 . S
C9287 C9286 1.385 . S
C9288 C9286 1.478 . S
C9288 C9290 1.381 . S
C9288 C9294 1.383 . S
C9289 C9285 1.495 . S
C9289 H9295 0.959 . S
C9289 H9296 0.961 . S
C9289 H9297 0.960 . S
C9290 C9288 1.381 . S
C9290 C9291 1.394 . S
C9290 H9298 0.930 . S
C9291 C9290 1.394 . S
C9291 C9292 1.383 . S
C9291 H9299 0.929 . S
C9292 C9291 1.383 . S
C9292 C9293 1.377 . S
C9293 H9277 0.930 . S
C9293 C9292 1.377 . S
C9293 C9294 1.379 . S
C9294 H9278 0.931 . S
C9294 C9288 1.383 . S
C9294 C9293 1.379 . S
H9295 C9289 0.959 . S
H9296 C9289 0.961 . S
H9297 C9289 0.960 . S
H9298 C9290 0.930 . S
H9299 C9291 0.929 . S
H9300 C9308 0.929 . S
H9301 C9310 0.930 . S
H9302 C9312 0.930 . S
H9303 C9315 0.929 . S
H9304 C9318 0.930 . S
H9305 C9320 0.960 . S
H9306 C9320 0.960 . S
H9307 C9320 0.960 . S
C9308 H9300 0.929 . S
C9308 C9309 1.377 . S
C9308 C9310 1.384 . S
C9309 C9308 1.377 . S
C9309 C9315 1.390 . S
C9310 H9301 0.930 . S
C9310 C9308 1.384 . S
C9310 C9311 1.372 . S
C9311 C9310 1.372 . S
C9311 C9312 1.400 . S
C9311 C9316 1.490 . S
C9312 H9302 0.930 . S
C9312 C9311 1.400 . S
C9312 C9315 1.386 . S
H9313 C9329 0.930 . S
H9314 C9330 0.931 . S
C9315 H9303 0.929 . S
C9315 C9309 1.390 . S
C9315 C9312 1.386 . S
C9316 C9311 1.490 . S
C9316 C9318 1.395 . S
C9316 C9319 1.403 . S
H9317 C9323 0.930 . S
C9318 H9304 0.930 . S
C9318 C9316 1.395 . S
C9318 C9321 1.403 . S
C9319 C9316 1.403 . S
C9319 C9320 1.524 . S
C9319 C9323 1.400 . S
C9320 H9305 0.960 . S
C9320 H9306 0.960 . S
C9320 H9307 0.960 . S
C9320 C9319 1.524 . S
C9321 C9318 1.403 . S
C9321 C9322 1.392 . S
C9321 C9325 1.495 . S
C9322 C9321 1.392 . S
C9322 C9323 1.385 . S
C9322 C9324 1.478 . S
C9323 H9317 0.930 . S
C9323 C9319 1.400 . S
C9323 C9322 1.385 . S
C9324 C9322 1.478 . S
C9324 C9326 1.381 . S
C9324 C9330 1.383 . S
C9325 C9321 1.495 . S
C9325 H9331 0.959 . S
C9325 H9332 0.961 . S
C9325 H9333 0.960 . S
C9326 C9324 1.381 . S
C9326 C9327 1.394 . S
C9326 H9334 0.930 . S
C9327 C9326 1.394 . S
C9327 C9328 1.383 . S
C9327 H9335 0.929 . S
C9328 C9327 1.383 . S
C9328 C9329 1.377 . S
C9329 H9313 0.930 . S
C9329 C9328 1.377 . S
C9329 C9330 1.379 . S
C9330 H9314 0.931 . S
C9330 C9324 1.383 . S
C9330 C9329 1.379 . S
H9331 C9325 0.959 . S
H9332 C9325 0.961 . S
H9333 C9325 0.960 . S
H9334 C9326 0.930 . S
H9335 C9327 0.929 . S
H9336 C9344 0.929 . S
H9337 C9346 0.930 . S
H9338 C9348 0.930 . S
H9339 C9351 0.929 . S
H9340 C9354 0.930 . S
H9341 C9356 0.960 . S
H9342 C9356 0.960 . S
H9343 C9356 0.960 . S
C9344 H9336 0.929 . S
C9344 C9345 1.377 . S
C9344 C9346 1.384 . S
C9345 C9344 1.377 . S
C9345 C9351 1.390 . S
C9346 H9337 0.930 . S
C9346 C9344 1.384 . S
C9346 C9347 1.372 . S
C9347 C9346 1.372 . S
C9347 C9348 1.400 . S
C9347 C9352 1.490 . S
C9348 H9338 0.930 . S
C9348 C9347 1.400 . S
C9348 C9351 1.386 . S
H9349 C9365 0.930 . S
H9350 C9366 0.931 . S
C9351 H9339 0.929 . S
C9351 C9345 1.390 . S
C9351 C9348 1.386 . S
C9352 C9347 1.490 . S
C9352 C9354 1.395 . S
C9352 C9355 1.403 . S
H9353 C9359 0.930 . S
C9354 H9340 0.930 . S
C9354 C9352 1.395 . S
C9354 C9357 1.403 . S
C9355 C9352 1.403 . S
C9355 C9356 1.524 . S
C9355 C9359 1.400 . S
C9356 H9341 0.960 . S
C9356 H9342 0.960 . S
C9356 H9343 0.960 . S
C9356 C9355 1.524 . S
C9357 C9354 1.403 . S
C9357 C9358 1.392 . S
C9357 C9361 1.495 . S
C9358 C9357 1.392 . S
C9358 C9359 1.385 . S
C9358 C9360 1.478 . S
C9359 H9353 0.930 . S
C9359 C9355 1.400 . S
C9359 C9358 1.385 . S
C9360 C9358 1.478 . S
C9360 C9362 1.381 . S
C9360 C9366 1.383 . S
C9361 C9357 1.495 . S
C9361 H9367 0.959 . S
C9361 H9368 0.961 . S
C9361 H9369 0.960 . S
C9362 C9360 1.381 . S
C9362 C9363 1.394 . S
C9362 H9370 0.930 . S
C9363 C9362 1.394 . S
C9363 C9364 1.383 . S
C9363 H9371 0.929 . S
C9364 C9363 1.383 . S
C9364 C9365 1.377 . S
C9365 H9349 0.930 . S
C9365 C9364 1.377 . S
C9365 C9366 1.379 . S
C9366 H9350 0.931 . S
C9366 C9360 1.383 . S
C9366 C9365 1.379 . S
H9367 C9361 0.959 . S
H9368 C9361 0.961 . S
H9369 C9361 0.960 . S
H9370 C9362 0.930 . S
H9371 C9363 0.929 . S
H9372 C9380 0.929 . S
H9373 C9382 0.930 . S
H9374 C9384 0.930 . S
H9375 C9387 0.929 . S
H9376 C9390 0.930 . S
H9377 C9392 0.960 . S
H9378 C9392 0.960 . S
H9379 C9392 0.960 . S
C9380 H9372 0.929 . S
C9380 C9381 1.377 . S
C9380 C9382 1.384 . S
C9381 C9380 1.377 . S
C9381 C9387 1.390 . S
C9382 H9373 0.930 . S
C9382 C9380 1.384 . S
C9382 C9383 1.372 . S
C9383 C9382 1.372 . S
C9383 C9384 1.400 . S
C9383 C9388 1.490 . S
C9384 H9374 0.930 . S
C9384 C9383 1.400 . S
C9384 C9387 1.386 . S
H9385 C9401 0.930 . S
H9386 C9402 0.931 . S
C9387 H9375 0.929 . S
C9387 C9381 1.390 . S
C9387 C9384 1.386 . S
C9388 C9383 1.490 . S
C9388 C9390 1.395 . S
C9388 C9391 1.403 . S
H9389 C9395 0.930 . S
C9390 H9376 0.930 . S
C9390 C9388 1.395 . S
C9390 C9393 1.403 . S
C9391 C9388 1.403 . S
C9391 C9392 1.524 . S
C9391 C9395 1.400 . S
C9392 H9377 0.960 . S
C9392 H9378 0.960 . S
C9392 H9379 0.960 . S
C9392 C9391 1.524 . S
C9393 C9390 1.403 . S
C9393 C9394 1.392 . S
C9393 C9397 1.495 . S
C9394 C9393 1.392 . S
C9394 C9395 1.385 . S
C9394 C9396 1.478 . S
C9395 H9389 0.930 . S
C9395 C9391 1.400 . S
C9395 C9394 1.385 . S
C9396 C9394 1.478 . S
C9396 C9398 1.381 . S
C9396 C9402 1.383 . S
C9397 C9393 1.495 . S
C9397 H9403 0.959 . S
C9397 H9404 0.961 . S
C9397 H9405 0.960 . S
C9398 C9396 1.381 . S
C9398 C9399 1.394 . S
C9398 H9406 0.930 . S
C9399 C9398 1.394 . S
C9399 C9400 1.383 . S
C9399 H9407 0.929 . S
C9400 C9399 1.383 . S
C9400 C9401 1.377 . S
C9401 H9385 0.930 . S
C9401 C9400 1.377 . S
C9401 C9402 1.379 . S
C9402 H9386 0.931 . S
C9402 C9396 1.383 . S
C9402 C9401 1.379 . S
H9403 C9397 0.959 . S
H9404 C9397 0.961 . S
H9405 C9397 0.960 . S
H9406 C9398 0.930 . S
H9407 C9399 0.929 . S
H9408 C9416 0.929 . S
H9409 C9418 0.930 . S
H9410 C9420 0.930 . S
H9411 C9423 0.929 . S
H9412 C9426 0.930 . S
H9413 C9428 0.960 . S
H9414 C9428 0.960 . S
H9415 C9428 0.960 . S
C9416 H9408 0.929 . S
C9416 C9417 1.377 . S
C9416 C9418 1.384 . S
C9417 C9416 1.377 . S
C9417 C9423 1.390 . S
C9418 H9409 0.930 . S
C9418 C9416 1.384 . S
C9418 C9419 1.372 . S
C9419 C9418 1.372 . S
C9419 C9420 1.400 . S
C9419 C9424 1.490 . S
C9420 H9410 0.930 . S
C9420 C9419 1.400 . S
C9420 C9423 1.386 . S
H9421 C9437 0.930 . S
H9422 C9438 0.931 . S
C9423 H9411 0.929 . S
C9423 C9417 1.390 . S
C9423 C9420 1.386 . S
C9424 C9419 1.490 . S
C9424 C9426 1.395 . S
C9424 C9427 1.403 . S
H9425 C9431 0.930 . S
C9426 H9412 0.930 . S
C9426 C9424 1.395 . S
C9426 C9429 1.403 . S
C9427 C9424 1.403 . S
C9427 C9428 1.524 . S
C9427 C9431 1.400 . S
C9428 H9413 0.960 . S
C9428 H9414 0.960 . S
C9428 H9415 0.960 . S
C9428 C9427 1.524 . S
C9429 C9426 1.403 . S
C9429 C9430 1.392 . S
C9429 C9433 1.495 . S
C9430 C9429 1.392 . S
C9430 C9431 1.385 . S
C9430 C9432 1.478 . S
C9431 H9425 0.930 . S
C9431 C9427 1.400 . S
C9431 C9430 1.385 . S
C9432 C9430 1.478 . S
C9432 C9434 1.381 . S
C9432 C9438 1.383 . S
C9433 C9429 1.495 . S
C9433 H9439 0.959 . S
C9433 H9440 0.961 . S
C9433 H9441 0.960 . S
C9434 C9432 1.381 . S
C9434 C9435 1.394 . S
C9434 H9442 0.930 . S
C9435 C9434 1.394 . S
C9435 C9436 1.383 . S
C9435 H9443 0.929 . S
C9436 C9435 1.383 . S
C9436 C9437 1.377 . S
C9437 H9421 0.930 . S
C9437 C9436 1.377 . S
C9437 C9438 1.379 . S
C9438 H9422 0.931 . S
C9438 C9432 1.383 . S
C9438 C9437 1.379 . S
H9439 C9433 0.959 . S
H9440 C9433 0.961 . S
H9441 C9433 0.960 . S
H9442 C9434 0.930 . S
H9443 C9435 0.929 . S
H9444 C9452 0.929 . S
H9445 C9454 0.930 . S
H9446 C9456 0.930 . S
H9447 C9459 0.929 . S
H9448 C9462 0.930 . S
H9449 C9464 0.960 . S
H9450 C9464 0.960 . S
H9451 C9464 0.960 . S
C9452 H9444 0.929 . S
C9452 C9453 1.377 . S
C9452 C9454 1.384 . S
C9453 C9452 1.377 . S
C9453 C9459 1.390 . S
C9454 H9445 0.930 . S
C9454 C9452 1.384 . S
C9454 C9455 1.372 . S
C9455 C9454 1.372 . S
C9455 C9456 1.400 . S
C9455 C9460 1.490 . S
C9456 H9446 0.930 . S
C9456 C9455 1.400 . S
C9456 C9459 1.386 . S
H9457 C9473 0.930 . S
H9458 C9474 0.931 . S
C9459 H9447 0.929 . S
C9459 C9453 1.390 . S
C9459 C9456 1.386 . S
C9460 C9455 1.490 . S
C9460 C9462 1.395 . S
C9460 C9463 1.403 . S
H9461 C9467 0.930 . S
C9462 H9448 0.930 . S
C9462 C9460 1.395 . S
C9462 C9465 1.403 . S
C9463 C9460 1.403 . S
C9463 C9464 1.524 . S
C9463 C9467 1.400 . S
C9464 H9449 0.960 . S
C9464 H9450 0.960 . S
C9464 H9451 0.960 . S
C9464 C9463 1.524 . S
C9465 C9462 1.403 . S
C9465 C9466 1.392 . S
C9465 C9469 1.495 . S
C9466 C9465 1.392 . S
C9466 C9467 1.385 . S
C9466 C9468 1.478 . S
C9467 H9461 0.930 . S
C9467 C9463 1.400 . S
C9467 C9466 1.385 . S
C9468 C9466 1.478 . S
C9468 C9470 1.381 . S
C9468 C9474 1.383 . S
C9469 C9465 1.495 . S
C9469 H9475 0.959 . S
C9469 H9476 0.961 . S
C9469 H9477 0.960 . S
C9470 C9468 1.381 . S
C9470 C9471 1.394 . S
C9470 H9478 0.930 . S
C9471 C9470 1.394 . S
C9471 C9472 1.383 . S
C9471 H9479 0.929 . S
C9472 C9471 1.383 . S
C9472 C9473 1.377 . S
C9473 H9457 0.930 . S
C9473 C9472 1.377 . S
C9473 C9474 1.379 . S
C9474 H9458 0.931 . S
C9474 C9468 1.383 . S
C9474 C9473 1.379 . S
H9475 C9469 0.959 . S
H9476 C9469 0.961 . S
H9477 C9469 0.960 . S
H9478 C9470 0.930 . S
H9479 C9471 0.929 . S
H9480 C9488 0.929 . S
H9481 C9490 0.930 . S
H9482 C9492 0.930 . S
H9483 C9495 0.929 . S
H9484 C9498 0.930 . S
H9485 C9500 0.960 . S
H9486 C9500 0.960 . S
H9487 C9500 0.960 . S
C9488 H9480 0.929 . S
C9488 C9489 1.377 . S
C9488 C9490 1.384 . S
C9489 C9488 1.377 . S
C9489 C9495 1.390 . S
C9490 H9481 0.930 . S
C9490 C9488 1.384 . S
C9490 C9491 1.372 . S
C9491 C9490 1.372 . S
C9491 C9492 1.400 . S
C9491 C9496 1.490 . S
C9492 H9482 0.930 . S
C9492 C9491 1.400 . S
C9492 C9495 1.386 . S
H9493 C9509 0.930 . S
H9494 C9510 0.931 . S
C9495 H9483 0.929 . S
C9495 C9489 1.390 . S
C9495 C9492 1.386 . S
C9496 C9491 1.490 . S
C9496 C9498 1.395 . S
C9496 C9499 1.403 . S
H9497 C9503 0.930 . S
C9498 H9484 0.930 . S
C9498 C9496 1.395 . S
C9498 C9501 1.403 . S
C9499 C9496 1.403 . S
C9499 C9500 1.524 . S
C9499 C9503 1.400 . S
C9500 H9485 0.960 . S
C9500 H9486 0.960 . S
C9500 H9487 0.960 . S
C9500 C9499 1.524 . S
C9501 C9498 1.403 . S
C9501 C9502 1.392 . S
C9501 C9505 1.495 . S
C9502 C9501 1.392 . S
C9502 C9503 1.385 . S
C9502 C9504 1.478 . S
C9503 H9497 0.930 . S
C9503 C9499 1.400 . S
C9503 C9502 1.385 . S
C9504 C9502 1.478 . S
C9504 C9506 1.381 . S
C9504 C9510 1.383 . S
C9505 C9501 1.495 . S
C9505 H9511 0.959 . S
C9505 H9512 0.961 . S
C9505 H9513 0.960 . S
C9506 C9504 1.381 . S
C9506 C9507 1.394 . S
C9506 H9514 0.930 . S
C9507 C9506 1.394 . S
C9507 C9508 1.383 . S
C9507 H9515 0.929 . S
C9508 C9507 1.383 . S
C9508 C9509 1.377 . S
C9509 H9493 0.930 . S
C9509 C9508 1.377 . S
C9509 C9510 1.379 . S
C9510 H9494 0.931 . S
C9510 C9504 1.383 . S
C9510 C9509 1.379 . S
H9511 C9505 0.959 . S
H9512 C9505 0.961 . S
H9513 C9505 0.960 . S
H9514 C9506 0.930 . S
H9515 C9507 0.929 . S
H9516 C9524 0.929 . S
H9517 C9526 0.930 . S
H9518 C9528 0.930 . S
H9519 C9531 0.929 . S
H9520 C9534 0.930 . S
H9521 C9536 0.960 . S
H9522 C9536 0.960 . S
H9523 C9536 0.960 . S
C9524 H9516 0.929 . S
C9524 C9525 1.377 . S
C9524 C9526 1.384 . S
C9525 C9524 1.377 . S
C9525 C9531 1.390 . S
C9526 H9517 0.930 . S
C9526 C9524 1.384 . S
C9526 C9527 1.372 . S
C9527 C9526 1.372 . S
C9527 C9528 1.400 . S
C9527 C9532 1.490 . S
C9528 H9518 0.930 . S
C9528 C9527 1.400 . S
C9528 C9531 1.386 . S
H9529 C9545 0.930 . S
H9530 C9546 0.931 . S
C9531 H9519 0.929 . S
C9531 C9525 1.390 . S
C9531 C9528 1.386 . S
C9532 C9527 1.490 . S
C9532 C9534 1.395 . S
C9532 C9535 1.403 . S
H9533 C9539 0.930 . S
C9534 H9520 0.930 . S
C9534 C9532 1.395 . S
C9534 C9537 1.403 . S
C9535 C9532 1.403 . S
C9535 C9536 1.524 . S
C9535 C9539 1.400 . S
C9536 H9521 0.960 . S
C9536 H9522 0.960 . S
C9536 H9523 0.960 . S
C9536 C9535 1.524 . S
C9537 C9534 1.403 . S
C9537 C9538 1.392 . S
C9537 C9541 1.495 . S
C9538 C9537 1.392 . S
C9538 C9539 1.385 . S
C9538 C9540 1.478 . S
C9539 H9533 0.930 . S
C9539 C9535 1.400 . S
C9539 C9538 1.385 . S
C9540 C9538 1.478 . S
C9540 C9542 1.381 . S
C9540 C9546 1.383 . S
C9541 C9537 1.495 . S
C9541 H9547 0.959 . S
C9541 H9548 0.961 . S
C9541 H9549 0.960 . S
C9542 C9540 1.381 . S
C9542 C9543 1.394 . S
C9542 H9550 0.930 . S
C9543 C9542 1.394 . S
C9543 C9544 1.383 . S
C9543 H9551 0.929 . S
C9544 C9543 1.383 . S
C9544 C9545 1.377 . S
C9545 H9529 0.930 . S
C9545 C9544 1.377 . S
C9545 C9546 1.379 . S
C9546 H9530 0.931 . S
C9546 C9540 1.383 . S
C9546 C9545 1.379 . S
H9547 C9541 0.959 . S
H9548 C9541 0.961 . S
H9549 C9541 0.960 . S
H9550 C9542 0.930 . S
H9551 C9543 0.929 . S
H9552 C9560 0.929 . S
H9553 C9562 0.930 . S
H9554 C9564 0.930 . S
H9555 C9567 0.929 . S
H9556 C9570 0.930 . S
H9557 C9572 0.960 . S
H9558 C9572 0.960 . S
H9559 C9572 0.960 . S
C9560 H9552 0.929 . S
C9560 C9561 1.377 . S
C9560 C9562 1.384 . S
C9561 C9560 1.377 . S
C9561 C9567 1.390 . S
C9562 H9553 0.930 . S
C9562 C9560 1.384 . S
C9562 C9563 1.372 . S
C9563 C9562 1.372 . S
C9563 C9564 1.400 . S
C9563 C9568 1.490 . S
C9564 H9554 0.930 . S
C9564 C9563 1.400 . S
C9564 C9567 1.386 . S
H9565 C9581 0.930 . S
H9566 C9582 0.931 . S
C9567 H9555 0.929 . S
C9567 C9561 1.390 . S
C9567 C9564 1.386 . S
C9568 C9563 1.490 . S
C9568 C9570 1.395 . S
C9568 C9571 1.403 . S
H9569 C9575 0.930 . S
C9570 H9556 0.930 . S
C9570 C9568 1.395 . S
C9570 C9573 1.403 . S
C9571 C9568 1.403 . S
C9571 C9572 1.524 . S
C9571 C9575 1.400 . S
C9572 H9557 0.960 . S
C9572 H9558 0.960 . S
C9572 H9559 0.960 . S
C9572 C9571 1.524 . S
C9573 C9570 1.403 . S
C9573 C9574 1.392 . S
C9573 C9577 1.495 . S
C9574 C9573 1.392 . S
C9574 C9575 1.385 . S
C9574 C9576 1.478 . S
C9575 H9569 0.930 . S
C9575 C9571 1.400 . S
C9575 C9574 1.385 . S
C9576 C9574 1.478 . S
C9576 C9578 1.381 . S
C9576 C9582 1.383 . S
C9577 C9573 1.495 . S
C9577 H9583 0.959 . S
C9577 H9584 0.961 . S
C9577 H9585 0.960 . S
C9578 C9576 1.381 . S
C9578 C9579 1.394 . S
C9578 H9586 0.930 . S
C9579 C9578 1.394 . S
C9579 C9580 1.383 . S
C9579 H9587 0.929 . S
C9580 C9579 1.383 . S
C9580 C9581 1.377 . S
C9581 H9565 0.930 . S
C9581 C9580 1.377 . S
C9581 C9582 1.379 . S
C9582 H9566 0.931 . S
C9582 C9576 1.383 . S
C9582 C9581 1.379 . S
H9583 C9577 0.959 . S
H9584 C9577 0.961 . S
H9585 C9577 0.960 . S
H9586 C9578 0.930 . S
H9587 C9579 0.929 . S
H9588 C9596 0.929 . S
H9589 C9598 0.930 . S
H9590 C9600 0.930 . S
H9591 C9603 0.929 . S
H9592 C9606 0.930 . S
H9593 C9608 0.960 . S
H9594 C9608 0.960 . S
H9595 C9608 0.960 . S
C9596 H9588 0.929 . S
C9596 C9597 1.377 . S
C9596 C9598 1.384 . S
C9597 C9596 1.377 . S
C9597 C9603 1.390 . S
C9598 H9589 0.930 . S
C9598 C9596 1.384 . S
C9598 C9599 1.372 . S
C9599 C9598 1.372 . S
C9599 C9600 1.400 . S
C9599 C9604 1.490 . S
C9600 H9590 0.930 . S
C9600 C9599 1.400 . S
C9600 C9603 1.386 . S
H9601 C9617 0.930 . S
H9602 C9618 0.931 . S
C9603 H9591 0.929 . S
C9603 C9597 1.390 . S
C9603 C9600 1.386 . S
C9604 C9599 1.490 . S
C9604 C9606 1.395 . S
C9604 C9607 1.403 . S
H9605 C9611 0.930 . S
C9606 H9592 0.930 . S
C9606 C9604 1.395 . S
C9606 C9609 1.403 . S
C9607 C9604 1.403 . S
C9607 C9608 1.524 . S
C9607 C9611 1.400 . S
C9608 H9593 0.960 . S
C9608 H9594 0.960 . S
C9608 H9595 0.960 . S
C9608 C9607 1.524 . S
C9609 C9606 1.403 . S
C9609 C9610 1.392 . S
C9609 C9613 1.495 . S
C9610 C9609 1.392 . S
C9610 C9611 1.385 . S
C9610 C9612 1.478 . S
C9611 H9605 0.930 . S
C9611 C9607 1.400 . S
C9611 C9610 1.385 . S
C9612 C9610 1.478 . S
C9612 C9614 1.381 . S
C9612 C9618 1.383 . S
C9613 C9609 1.495 . S
C9613 H9619 0.959 . S
C9613 H9620 0.961 . S
C9613 H9621 0.960 . S
C9614 C9612 1.381 . S
C9614 C9615 1.394 . S
C9614 H9622 0.930 . S
C9615 C9614 1.394 . S
C9615 C9616 1.383 . S
C9615 H9623 0.929 . S
C9616 C9615 1.383 . S
C9616 C9617 1.377 . S
C9617 H9601 0.930 . S
C9617 C9616 1.377 . S
C9617 C9618 1.379 . S
C9618 H9602 0.931 . S
C9618 C9612 1.383 . S
C9618 C9617 1.379 . S
H9619 C9613 0.959 . S
H9620 C9613 0.961 . S
H9621 C9613 0.960 . S
H9622 C9614 0.930 . S
H9623 C9615 0.929 . S
H9624 C9632 0.929 . S
H9625 C9634 0.930 . S
H9626 C9636 0.930 . S
H9627 C9639 0.929 . S
H9628 C9642 0.930 . S
H9629 C9644 0.960 . S
H9630 C9644 0.960 . S
H9631 C9644 0.960 . S
C9632 H9624 0.929 . S
C9632 C9633 1.377 . S
C9632 C9634 1.384 . S
C9633 C9632 1.377 . S
C9633 C9639 1.390 . S
C9634 H9625 0.930 . S
C9634 C9632 1.384 . S
C9634 C9635 1.372 . S
C9635 C9634 1.372 . S
C9635 C9636 1.400 . S
C9635 C9640 1.490 . S
C9636 H9626 0.930 . S
C9636 C9635 1.400 . S
C9636 C9639 1.386 . S
H9637 C9653 0.930 . S
H9638 C9654 0.931 . S
C9639 H9627 0.929 . S
C9639 C9633 1.390 . S
C9639 C9636 1.386 . S
C9640 C9635 1.490 . S
C9640 C9642 1.395 . S
C9640 C9643 1.403 . S
H9641 C9647 0.930 . S
C9642 H9628 0.930 . S
C9642 C9640 1.395 . S
C9642 C9645 1.403 . S
C9643 C9640 1.403 . S
C9643 C9644 1.524 . S
C9643 C9647 1.400 . S
C9644 H9629 0.960 . S
C9644 H9630 0.960 . S
C9644 H9631 0.960 . S
C9644 C9643 1.524 . S
C9645 C9642 1.403 . S
C9645 C9646 1.392 . S
C9645 C9649 1.495 . S
C9646 C9645 1.392 . S
C9646 C9647 1.385 . S
C9646 C9648 1.478 . S
C9647 H9641 0.930 . S
C9647 C9643 1.400 . S
C9647 C9646 1.385 . S
C9648 C9646 1.478 . S
C9648 C9650 1.381 . S
C9648 C9654 1.383 . S
C9649 C9645 1.495 . S
C9649 H9655 0.959 . S
C9649 H9656 0.961 . S
C9649 H9657 0.960 . S
C9650 C9648 1.381 . S
C9650 C9651 1.394 . S
C9650 H9658 0.930 . S
C9651 C9650 1.394 . S
C9651 C9652 1.383 . S
C9651 H9659 0.929 . S
C9652 C9651 1.383 . S
C9652 C9653 1.377 . S
C9653 H9637 0.930 . S
C9653 C9652 1.377 . S
C9653 C9654 1.379 . S
C9654 H9638 0.931 . S
C9654 C9648 1.383 . S
C9654 C9653 1.379 . S
H9655 C9649 0.959 . S
H9656 C9649 0.961 . S
H9657 C9649 0.960 . S
H9658 C9650 0.930 . S
H9659 C9651 0.929 . S
H9660 C9668 0.929 . S
H9661 C9670 0.930 . S
H9662 C9672 0.930 . S
H9663 C9675 0.929 . S
H9664 C9678 0.930 . S
H9665 C9680 0.960 . S
H9666 C9680 0.960 . S
H9667 C9680 0.960 . S
C9668 H9660 0.929 . S
C9668 C9669 1.377 . S
C9668 C9670 1.384 . S
C9669 C9668 1.377 . S
C9669 C9675 1.390 . S
C9670 H9661 0.930 . S
C9670 C9668 1.384 . S
C9670 C9671 1.372 . S
C9671 C9670 1.372 . S
C9671 C9672 1.400 . S
C9671 C9676 1.490 . S
C9672 H9662 0.930 . S
C9672 C9671 1.400 . S
C9672 C9675 1.386 . S
H9673 C9689 0.930 . S
H9674 C9690 0.931 . S
C9675 H9663 0.929 . S
C9675 C9669 1.390 . S
C9675 C9672 1.386 . S
C9676 C9671 1.490 . S
C9676 C9678 1.395 . S
C9676 C9679 1.403 . S
H9677 C9683 0.930 . S
C9678 H9664 0.930 . S
C9678 C9676 1.395 . S
C9678 C9681 1.403 . S
C9679 C9676 1.403 . S
C9679 C9680 1.524 . S
C9679 C9683 1.400 . S
C9680 H9665 0.960 . S
C9680 H9666 0.960 . S
C9680 H9667 0.960 . S
C9680 C9679 1.524 . S
C9681 C9678 1.403 . S
C9681 C9682 1.392 . S
C9681 C9685 1.495 . S
C9682 C9681 1.392 . S
C9682 C9683 1.385 . S
C9682 C9684 1.478 . S
C9683 H9677 0.930 . S
C9683 C9679 1.400 . S
C9683 C9682 1.385 . S
C9684 C9682 1.478 . S
C9684 C9686 1.381 . S
C9684 C9690 1.383 . S
C9685 C9681 1.495 . S
C9685 H9691 0.959 . S
C9685 H9692 0.961 . S
C9685 H9693 0.960 . S
C9686 C9684 1.381 . S
C9686 C9687 1.394 . S
C9686 H9694 0.930 . S
C9687 C9686 1.394 . S
C9687 C9688 1.383 . S
C9687 H9695 0.929 . S
C9688 C9687 1.383 . S
C9688 C9689 1.377 . S
C9689 H9673 0.930 . S
C9689 C9688 1.377 . S
C9689 C9690 1.379 . S
C9690 H9674 0.931 . S
C9690 C9684 1.383 . S
C9690 C9689 1.379 . S
H9691 C9685 0.959 . S
H9692 C9685 0.961 . S
H9693 C9685 0.960 . S
H9694 C9686 0.930 . S
H9695 C9687 0.929 . S
H9696 C9704 0.929 . S
H9697 C9706 0.930 . S
H9698 C9708 0.930 . S
H9699 C9711 0.929 . S
H9700 C9714 0.930 . S
H9701 C9716 0.960 . S
H9702 C9716 0.960 . S
H9703 C9716 0.960 . S
C9704 H9696 0.929 . S
C9704 C9705 1.377 . S
C9704 C9706 1.384 . S
C9705 C9704 1.377 . S
C9705 C9711 1.390 . S
C9706 H9697 0.930 . S
C9706 C9704 1.384 . S
C9706 C9707 1.372 . S
C9707 C9706 1.372 . S
C9707 C9708 1.400 . S
C9707 C9712 1.490 . S
C9708 H9698 0.930 . S
C9708 C9707 1.400 . S
C9708 C9711 1.386 . S
H9709 C9725 0.930 . S
H9710 C9726 0.931 . S
C9711 H9699 0.929 . S
C9711 C9705 1.390 . S
C9711 C9708 1.386 . S
C9712 C9707 1.490 . S
C9712 C9714 1.395 . S
C9712 C9715 1.403 . S
H9713 C9719 0.930 . S
C9714 H9700 0.930 . S
C9714 C9712 1.395 . S
C9714 C9717 1.403 . S
C9715 C9712 1.403 . S
C9715 C9716 1.524 . S
C9715 C9719 1.400 . S
C9716 H9701 0.960 . S
C9716 H9702 0.960 . S
C9716 H9703 0.960 . S
C9716 C9715 1.524 . S
C9717 C9714 1.403 . S
C9717 C9718 1.392 . S
C9717 C9721 1.495 . S
C9718 C9717 1.392 . S
C9718 C9719 1.385 . S
C9718 C9720 1.478 . S
C9719 H9713 0.930 . S
C9719 C9715 1.400 . S
C9719 C9718 1.385 . S
C9720 C9718 1.478 . S
C9720 C9722 1.381 . S
C9720 C9726 1.383 . S
C9721 C9717 1.495 . S
C9721 H9727 0.959 . S
C9721 H9728 0.961 . S
C9721 H9729 0.960 . S
C9722 C9720 1.381 . S
C9722 C9723 1.394 . S
C9722 H9730 0.930 . S
C9723 C9722 1.394 . S
C9723 C9724 1.383 . S
C9723 H9731 0.929 . S
C9724 C9723 1.383 . S
C9724 C9725 1.377 . S
C9725 H9709 0.930 . S
C9725 C9724 1.377 . S
C9725 C9726 1.379 . S
C9726 H9710 0.931 . S
C9726 C9720 1.383 . S
C9726 C9725 1.379 . S
H9727 C9721 0.959 . S
H9728 C9721 0.961 . S
H9729 C9721 0.960 . S
H9730 C9722 0.930 . S
H9731 C9723 0.929 . S
H9732 C9740 0.929 . S
H9733 C9742 0.930 . S
H9734 C9744 0.930 . S
H9735 C9747 0.929 . S
H9736 C9750 0.930 . S
H9737 C9752 0.960 . S
H9738 C9752 0.960 . S
H9739 C9752 0.960 . S
C9740 H9732 0.929 . S
C9740 C9741 1.377 . S
C9740 C9742 1.384 . S
C9741 C9740 1.377 . S
C9741 C9747 1.390 . S
C9742 H9733 0.930 . S
C9742 C9740 1.384 . S
C9742 C9743 1.372 . S
C9743 C9742 1.372 . S
C9743 C9744 1.400 . S
C9743 C9748 1.490 . S
C9744 H9734 0.930 . S
C9744 C9743 1.400 . S
C9744 C9747 1.386 . S
H9745 C9761 0.930 . S
H9746 C9762 0.931 . S
C9747 H9735 0.929 . S
C9747 C9741 1.390 . S
C9747 C9744 1.386 . S
C9748 C9743 1.490 . S
C9748 C9750 1.395 . S
C9748 C9751 1.403 . S
H9749 C9755 0.930 . S
C9750 H9736 0.930 . S
C9750 C9748 1.395 . S
C9750 C9753 1.403 . S
C9751 C9748 1.403 . S
C9751 C9752 1.524 . S
C9751 C9755 1.400 . S
C9752 H9737 0.960 . S
C9752 H9738 0.960 . S
C9752 H9739 0.960 . S
C9752 C9751 1.524 . S
C9753 C9750 1.403 . S
C9753 C9754 1.392 . S
C9753 C9757 1.495 . S
C9754 C9753 1.392 . S
C9754 C9755 1.385 . S
C9754 C9756 1.478 . S
C9755 H9749 0.930 . S
C9755 C9751 1.400 . S
C9755 C9754 1.385 . S
C9756 C9754 1.478 . S
C9756 C9758 1.381 . S
C9756 C9762 1.383 . S
C9757 C9753 1.495 . S
C9757 H9763 0.959 . S
C9757 H9764 0.961 . S
C9757 H9765 0.960 . S
C9758 C9756 1.381 . S
C9758 C9759 1.394 . S
C9758 H9766 0.930 . S
C9759 C9758 1.394 . S
C9759 C9760 1.383 . S
C9759 H9767 0.929 . S
C9760 C9759 1.383 . S
C9760 C9761 1.377 . S
C9761 H9745 0.930 . S
C9761 C9760 1.377 . S
C9761 C9762 1.379 . S
C9762 H9746 0.931 . S
C9762 C9756 1.383 . S
C9762 C9761 1.379 . S
H9763 C9757 0.959 . S
H9764 C9757 0.961 . S
H9765 C9757 0.960 . S
H9766 C9758 0.930 . S
H9767 C9759 0.929 . S
H9768 C9776 0.929 . S
H9769 C9778 0.930 . S
H9770 C9780 0.930 . S
H9771 C9783 0.929 . S
H9772 C9786 0.930 . S
H9773 C9788 0.960 . S
H9774 C9788 0.960 . S
H9775 C9788 0.960 . S
C9776 H9768 0.929 . S
C9776 C9777 1.377 . S
C9776 C9778 1.384 . S
C9777 C9776 1.377 . S
C9777 C9783 1.390 . S
C9778 H9769 0.930 . S
C9778 C9776 1.384 . S
C9778 C9779 1.372 . S
C9779 C9778 1.372 . S
C9779 C9780 1.400 . S
C9779 C9784 1.490 . S
C9780 H9770 0.930 . S
C9780 C9779 1.400 . S
C9780 C9783 1.386 . S
H9781 C9797 0.930 . S
H9782 C9798 0.931 . S
C9783 H9771 0.929 . S
C9783 C9777 1.390 . S
C9783 C9780 1.386 . S
C9784 C9779 1.490 . S
C9784 C9786 1.395 . S
C9784 C9787 1.403 . S
H9785 C9791 0.930 . S
C9786 H9772 0.930 . S
C9786 C9784 1.395 . S
C9786 C9789 1.403 . S
C9787 C9784 1.403 . S
C9787 C9788 1.524 . S
C9787 C9791 1.400 . S
C9788 H9773 0.960 . S
C9788 H9774 0.960 . S
C9788 H9775 0.960 . S
C9788 C9787 1.524 . S
C9789 C9786 1.403 . S
C9789 C9790 1.392 . S
C9789 C9793 1.495 . S
C9790 C9789 1.392 . S
C9790 C9791 1.385 . S
C9790 C9792 1.478 . S
C9791 H9785 0.930 . S
C9791 C9787 1.400 . S
C9791 C9790 1.385 . S
C9792 C9790 1.478 . S
C9792 C9794 1.381 . S
C9792 C9798 1.383 . S
C9793 C9789 1.495 . S
C9793 H9799 0.959 . S
C9793 H9800 0.961 . S
C9793 H9801 0.960 . S
C9794 C9792 1.381 . S
C9794 C9795 1.394 . S
C9794 H9802 0.930 . S
C9795 C9794 1.394 . S
C9795 C9796 1.383 . S
C9795 H9803 0.929 . S
C9796 C9795 1.383 . S
C9796 C9797 1.377 . S
C9797 H9781 0.930 . S
C9797 C9796 1.377 . S
C9797 C9798 1.379 . S
C9798 H9782 0.931 . S
C9798 C9792 1.383 . S
C9798 C9797 1.379 . S
H9799 C9793 0.959 . S
H9800 C9793 0.961 . S
H9801 C9793 0.960 . S
H9802 C9794 0.930 . S
H9803 C9795 0.929 . S
H9804 C9812 0.929 . S
H9805 C9814 0.930 . S
H9806 C9816 0.930 . S
H9807 C9819 0.929 . S
H9808 C9822 0.930 . S
H9809 C9824 0.960 . S
H9810 C9824 0.960 . S
H9811 C9824 0.960 . S
C9812 H9804 0.929 . S
C9812 C9813 1.377 . S
C9812 C9814 1.384 . S
C9813 C9812 1.377 . S
C9813 C9819 1.390 . S
C9814 H9805 0.930 . S
C9814 C9812 1.384 . S
C9814 C9815 1.372 . S
C9815 C9814 1.372 . S
C9815 C9816 1.400 . S
C9815 C9820 1.490 . S
C9816 H9806 0.930 . S
C9816 C9815 1.400 . S
C9816 C9819 1.386 . S
H9817 C9833 0.930 . S
H9818 C9834 0.931 . S
C9819 H9807 0.929 . S
C9819 C9813 1.390 . S
C9819 C9816 1.386 . S
C9820 C9815 1.490 . S
C9820 C9822 1.395 . S
C9820 C9823 1.403 . S
H9821 C9827 0.930 . S
C9822 H9808 0.930 . S
C9822 C9820 1.395 . S
C9822 C9825 1.403 . S
C9823 C9820 1.403 . S
C9823 C9824 1.524 . S
C9823 C9827 1.400 . S
C9824 H9809 0.960 . S
C9824 H9810 0.960 . S
C9824 H9811 0.960 . S
C9824 C9823 1.524 . S
C9825 C9822 1.403 . S
C9825 C9826 1.392 . S
C9825 C9829 1.495 . S
C9826 C9825 1.392 . S
C9826 C9827 1.385 . S
C9826 C9828 1.478 . S
C9827 H9821 0.930 . S
C9827 C9823 1.400 . S
C9827 C9826 1.385 . S
C9828 C9826 1.478 . S
C9828 C9830 1.381 . S
C9828 C9834 1.383 . S
C9829 C9825 1.495 . S
C9829 H9835 0.959 . S
C9829 H9836 0.961 . S
C9829 H9837 0.960 . S
C9830 C9828 1.381 . S
C9830 C9831 1.394 . S
C9830 H9838 0.930 . S
C9831 C9830 1.394 . S
C9831 C9832 1.383 . S
C9831 H9839 0.929 . S
C9832 C9831 1.383 . S
C9832 C9833 1.377 . S
C9833 H9817 0.930 . S
C9833 C9832 1.377 . S
C9833 C9834 1.379 . S
C9834 H9818 0.931 . S
C9834 C9828 1.383 . S
C9834 C9833 1.379 . S
H9835 C9829 0.959 . S
H9836 C9829 0.961 . S
H9837 C9829 0.960 . S
H9838 C9830 0.930 . S
H9839 C9831 0.929 . S
H9840 C9848 0.929 . S
H9841 C9850 0.930 . S
H9842 C9852 0.930 . S
H9843 C9855 0.929 . S
H9844 C9858 0.930 . S
H9845 C9860 0.960 . S
H9846 C9860 0.960 . S
H9847 C9860 0.960 . S
C9848 H9840 0.929 . S
C9848 C9849 1.377 . S
C9848 C9850 1.384 . S
C9849 C9848 1.377 . S
C9849 C9855 1.390 . S
C9850 H9841 0.930 . S
C9850 C9848 1.384 . S
C9850 C9851 1.372 . S
C9851 C9850 1.372 . S
C9851 C9852 1.400 . S
C9851 C9856 1.490 . S
C9852 H9842 0.930 . S
C9852 C9851 1.400 . S
C9852 C9855 1.386 . S
H9853 C9869 0.930 . S
H9854 C9870 0.931 . S
C9855 H9843 0.929 . S
C9855 C9849 1.390 . S
C9855 C9852 1.386 . S
C9856 C9851 1.490 . S
C9856 C9858 1.395 . S
C9856 C9859 1.403 . S
H9857 C9863 0.930 . S
C9858 H9844 0.930 . S
C9858 C9856 1.395 . S
C9858 C9861 1.403 . S
C9859 C9856 1.403 . S
C9859 C9860 1.524 . S
C9859 C9863 1.400 . S
C9860 H9845 0.960 . S
C9860 H9846 0.960 . S
C9860 H9847 0.960 . S
C9860 C9859 1.524 . S
C9861 C9858 1.403 . S
C9861 C9862 1.392 . S
C9861 C9865 1.495 . S
C9862 C9861 1.392 . S
C9862 C9863 1.385 . S
C9862 C9864 1.478 . S
C9863 H9857 0.930 . S
C9863 C9859 1.400 . S
C9863 C9862 1.385 . S
C9864 C9862 1.478 . S
C9864 C9866 1.381 . S
C9864 C9870 1.383 . S
C9865 C9861 1.495 . S
C9865 H9871 0.959 . S
C9865 H9872 0.961 . S
C9865 H9873 0.960 . S
C9866 C9864 1.381 . S
C9866 C9867 1.394 . S
C9866 H9874 0.930 . S
C9867 C9866 1.394 . S
C9867 C9868 1.383 . S
C9867 H9875 0.929 . S
C9868 C9867 1.383 . S
C9868 C9869 1.377 . S
C9869 H9853 0.930 . S
C9869 C9868 1.377 . S
C9869 C9870 1.379 . S
C9870 H9854 0.931 . S
C9870 C9864 1.383 . S
C9870 C9869 1.379 . S
H9871 C9865 0.959 . S
H9872 C9865 0.961 . S
H9873 C9865 0.960 . S
H9874 C9866 0.930 . S
H9875 C9867 0.929 . S
H9876 C9884 0.929 . S
H9877 C9886 0.930 . S
H9878 C9888 0.930 . S
H9879 C9891 0.929 . S
H9880 C9894 0.930 . S
H9881 C9896 0.960 . S
H9882 C9896 0.960 . S
H9883 C9896 0.960 . S
C9884 H9876 0.929 . S
C9884 C9885 1.377 . S
C9884 C9886 1.384 . S
C9885 C9884 1.377 . S
C9885 C9891 1.390 . S
C9886 H9877 0.930 . S
C9886 C9884 1.384 . S
C9886 C9887 1.372 . S
C9887 C9886 1.372 . S
C9887 C9888 1.400 . S
C9887 C9892 1.490 . S
C9888 H9878 0.930 . S
C9888 C9887 1.400 . S
C9888 C9891 1.386 . S
H9889 C9905 0.930 . S
H9890 C9906 0.931 . S
C9891 H9879 0.929 . S
C9891 C9885 1.390 . S
C9891 C9888 1.386 . S
C9892 C9887 1.490 . S
C9892 C9894 1.395 . S
C9892 C9895 1.403 . S
H9893 C9899 0.930 . S
C9894 H9880 0.930 . S
C9894 C9892 1.395 . S
C9894 C9897 1.403 . S
C9895 C9892 1.403 . S
C9895 C9896 1.524 . S
C9895 C9899 1.400 . S
C9896 H9881 0.960 . S
C9896 H9882 0.960 . S
C9896 H9883 0.960 . S
C9896 C9895 1.524 . S
C9897 C9894 1.403 . S
C9897 C9898 1.392 . S
C9897 C9901 1.495 . S
C9898 C9897 1.392 . S
C9898 C9899 1.385 . S
C9898 C9900 1.478 . S
C9899 H9893 0.930 . S
C9899 C9895 1.400 . S
C9899 C9898 1.385 . S
C9900 C9898 1.478 . S
C9900 C9902 1.381 . S
C9900 C9906 1.383 . S
C9901 C9897 1.495 . S
C9901 H9907 0.959 . S
C9901 H9908 0.961 . S
C9901 H9909 0.960 . S
C9902 C9900 1.381 . S
C9902 C9903 1.394 . S
C9902 H9910 0.930 . S
C9903 C9902 1.394 . S
C9903 C9904 1.383 . S
C9903 H9911 0.929 . S
C9904 C9903 1.383 . S
C9904 C9905 1.377 . S
C9905 H9889 0.930 . S
C9905 C9904 1.377 . S
C9905 C9906 1.379 . S
C9906 H9890 0.931 . S
C9906 C9900 1.383 . S
C9906 C9905 1.379 . S
H9907 C9901 0.959 . S
H9908 C9901 0.961 . S
H9909 C9901 0.960 . S
H9910 C9902 0.930 . S
H9911 C9903 0.929 . S
H9912 C9920 0.929 . S
H9913 C9922 0.930 . S
H9914 C9924 0.930 . S
H9915 C9927 0.929 . S
H9916 C9930 0.930 . S
H9917 C9932 0.960 . S
H9918 C9932 0.960 . S
H9919 C9932 0.960 . S
C9920 H9912 0.929 . S
C9920 C9921 1.377 . S
C9920 C9922 1.384 . S
C9921 C9920 1.377 . S
C9921 C9927 1.390 . S
C9922 H9913 0.930 . S
C9922 C9920 1.384 . S
C9922 C9923 1.372 . S
C9923 C9922 1.372 . S
C9923 C9924 1.400 . S
C9923 C9928 1.490 . S
C9924 H9914 0.930 . S
C9924 C9923 1.400 . S
C9924 C9927 1.386 . S
H9925 C9941 0.930 . S
H9926 C9942 0.931 . S
C9927 H9915 0.929 . S
C9927 C9921 1.390 . S
C9927 C9924 1.386 . S
C9928 C9923 1.490 . S
C9928 C9930 1.395 . S
C9928 C9931 1.403 . S
H9929 C9935 0.930 . S
C9930 H9916 0.930 . S
C9930 C9928 1.395 . S
C9930 C9933 1.403 . S
C9931 C9928 1.403 . S
C9931 C9932 1.524 . S
C9931 C9935 1.400 . S
C9932 H9917 0.960 . S
C9932 H9918 0.960 . S
C9932 H9919 0.960 . S
C9932 C9931 1.524 . S
C9933 C9930 1.403 . S
C9933 C9934 1.392 . S
C9933 C9937 1.495 . S
C9934 C9933 1.392 . S
C9934 C9935 1.385 . S
C9934 C9936 1.478 . S
C9935 H9929 0.930 . S
C9935 C9931 1.400 . S
C9935 C9934 1.385 . S
C9936 C9934 1.478 . S
C9936 C9938 1.381 . S
C9936 C9942 1.383 . S
C9937 C9933 1.495 . S
C9937 H9943 0.959 . S
C9937 H9944 0.961 . S
C9937 H9945 0.960 . S
C9938 C9936 1.381 . S
C9938 C9939 1.394 . S
C9938 H9946 0.930 . S
C9939 C9938 1.394 . S
C9939 C9940 1.383 . S
C9939 H9947 0.929 . S
C9940 C9939 1.383 . S
C9940 C9941 1.377 . S
C9941 H9925 0.930 . S
C9941 C9940 1.377 . S
C9941 C9942 1.379 . S
C9942 H9926 0.931 . S
C9942 C9936 1.383 . S
C9942 C9941 1.379 . S
H9943 C9937 0.959 . S
H9944 C9937 0.961 . S
H9945 C9937 0.960 . S
H9946 C9938 0.930 . S
H9947 C9939 0.929 . S
H9948 C9956 0.929 . S
H9949 C9958 0.930 . S
H9950 C9960 0.930 . S
H9951 C9963 0.929 . S
H9952 C9966 0.930 . S
H9953 C9968 0.960 . S
H9954 C9968 0.960 . S
H9955 C9968 0.960 . S
C9956 H9948 0.929 . S
C9956 C9957 1.377 . S
C9956 C9958 1.384 . S
C9957 C9956 1.377 . S
C9957 C9963 1.390 . S
C9958 H9949 0.930 . S
C9958 C9956 1.384 . S
C9958 C9959 1.372 . S
C9959 C9958 1.372 . S
C9959 C9960 1.400 . S
C9959 C9964 1.490 . S
C9960 H9950 0.930 . S
C9960 C9959 1.400 . S
C9960 C9963 1.386 . S
H9961 C9977 0.930 . S
H9962 C9978 0.931 . S
C9963 H9951 0.929 . S
C9963 C9957 1.390 . S
C9963 C9960 1.386 . S
C9964 C9959 1.490 . S
C9964 C9966 1.395 . S
C9964 C9967 1.403 . S
H9965 C9971 0.930 . S
C9966 H9952 0.930 . S
C9966 C9964 1.395 . S
C9966 C9969 1.403 . S
C9967 C9964 1.403 . S
C9967 C9968 1.524 . S
C9967 C9971 1.400 . S
C9968 H9953 0.960 . S
C9968 H9954 0.960 . S
C9968 H9955 0.960 . S
C9968 C9967 1.524 . S
C9969 C9966 1.403 . S
C9969 C9970 1.392 . S
C9969 C9973 1.495 . S
C9970 C9969 1.392 . S
C9970 C9971 1.385 . S
C9970 C9972 1.478 . S
C9971 H9965 0.930 . S
C9971 C9967 1.400 . S
C9971 C9970 1.385 . S
C9972 C9970 1.478 . S
C9972 C9974 1.381 . S
C9972 C9978 1.383 . S
C9973 C9969 1.495 . S
C9973 H9979 0.959 . S
C9973 H9980 0.961 . S
C9973 H9981 0.960 . S
C9974 C9972 1.381 . S
C9974 C9975 1.394 . S
C9974 H9982 0.930 . S
C9975 C9974 1.394 . S
C9975 C9976 1.383 . S
C9975 H9983 0.929 . S
C9976 C9975 1.383 . S
C9976 C9977 1.377 . S
C9977 H9961 0.930 . S
C9977 C9976 1.377 . S
C9977 C9978 1.379 . S
C9978 H9962 0.931 . S
C9978 C9972 1.383 . S
C9978 C9977 1.379 . S
H9979 C9973 0.959 . S
H9980 C9973 0.961 . S
H9981 C9973 0.960 . S
H9982 C9974 0.930 . S
H9983 C9975 0.929 . S
C4809 C1781 1.662 . S
C4828 C1940 1.708 . S
C4845 C981 1.664 . S
C4864 C2011 1.599 . S
C4900 C2071 1.582 . S
C4881 C1861 1.705 . S
C4917 C1061 1.735 . S
C4936 C2120 1.718 . S
C4953 C1901 1.687 . S
C4972 C2180 1.712 . S
C4989 C941 1.659 . S
C5008 C2240 1.704 . S
C5025 C1821 1.716 . S
C5044 C2311 1.700 . S
C5061 C1021 1.708 . S
C5080 C2371 1.587 . S
C5097 C661 1.668 . S
C5116 C2401 1.703 . S
C5133 C1621 1.730 . S
C5152 C2480 1.711 . S
C5169 C741 1.661 . S
C5188 C2540 1.699 . S
C5205 C1581 1.666 . S
C5224 C2600 1.587 . S
C5241 C901 1.720 . S
C5260 C2641 1.698 . S
C5296 C2720 1.630 . S
C5277 C1661 1.713 . S
C5332 C2780 1.727 . S
C5313 C821 1.696 . S
C5349 C1141 1.718 . S
C5368 C2840 1.696 . S
C5404 C2900 1.584 . S
C5385 C781 1.704 . S
C5440 C2960 1.741 . S
C5421 C1701 1.695 . S
C5457 C861 1.727 . S
C5476 C3020 1.715 . S
C5493 C1181 1.650 . S
C5512 C3080 1.695 . S
C5548 C3121 1.700 . S
C5529 C1101 1.675 . S
C5565 C1421 1.668 . S
C5584 C3181 1.675 . S
C5620 C3241 1.632 . S
C5601 C381 1.700 . S
C5656 C3301 1.653 . S
C5637 C1501 1.705 . S
C5692 C3361 1.709 . S
C5673 C461 1.698 . S
C5728 C3421 1.672 . S
C5709 C1541 1.686 . S
C5745 C341 1.665 . S
C5764 C3481 1.661 . S
C5800 C3541 1.643 . S
C5781 C1461 1.707 . S
C5817 C421 1.700 . S
C5836 C3601 1.637 . S
C5872 C3680 1.668 . S
C5853 C61 1.658 . S
C5908 C3740 1.691 . S
C5889 C1261 1.701 . S
C5925 C141 1.679 . S
C5944 C3800 1.672 . S
C5980 C3860 1.668 . S
C5961 C1221 1.712 . S
C6016 C3920 1.658 . S
C5997 C301 1.703 . S
C6033 C1301 1.721 . S
C6052 C3980 1.633 . S
C6088 C4040 1.684 . S
C6069 C221 1.688 . S
C6124 C4100 1.678 . S
C6105 C541 1.707 . S
C6141 C181 1.713 . S
C6160 C4160 1.671 . S
C6196 C4220 1.689 . S
C6177 C1341 1.687 . S
C6213 C261 1.715 . S
C6232 C4280 1.688 . S
C6268 C4340 1.677 . S
C6249 C581 1.687 . S
C6285 C501 1.647 . S
C6304 C4400 1.638 . S
C6321 C701 1.733 . S
C6340 C4460 1.715 . S
C6376 C4520 1.589 . S
C6357 C621 1.666 . S
C6393 C1741 1.717 . S
C6412 C4561 1.706 . S
C6429 C101 1.687 . S
C6448 C4640 1.677 . S
C6484 C4700 1.686 . S
C6465 C21 1.727 . S
C6520 C4760 1.645 . S
C6501 C1381 1.706 . S
C6537 C1335 2.013 . S
C6556 C1921 2.015 . S
C6573 C535 1.537 . S
C6592 C2000 1.438 . S
C6609 C1362 2.099 . S
C6628 C2041 1.964 . S
C6664 C2131 1.579 . S
C6645 C1295 1.573 . S
C6681 C575 2.036 . S
C6700 C2161 2.039 . S
C6717 C1215 1.549 . S
C6736 C2251 1.542 . S
C6772 C2300 2.020 . S
C6753 C495 2.043 . S
C6789 C1242 1.532 . S
C6808 C2360 1.447 . S
C6825 C1255 2.047 . S
C6844 C2431 2.023 . S
C6880 C2491 1.564 . S
C6861 C562 1.531 . S
C6897 C1202 2.084 . S
C6916 C2521 2.028 . S
C6952 C2581 1.409 . S
C6933 C482 1.490 . S
C6969 C522 2.120 . S
C6988 C2671 2.056 . S
C7005 C1375 1.545 . S
C7024 C2701 1.495 . S
C7060 C2761 2.011 . S
C7041 C1282 2.098 . S
C7096 C2851 1.538 . S
C7077 C1322 1.515 . S
C7113 C455 2.006 . S
C7132 C2611 1.935 . S
C7149 C1415 2.025 . S
C7168 C2911 1.948 . S
C7185 C1455 1.562 . S
C7204 C2971 1.566 . S
C7240 C3001 2.029 . S
C7221 C1482 2.087 . S
C7276 C2660 1.547 . S
C7257 C442 1.528 . S
C7293 C362 2.097 . S
C7312 C2461 2.042 . S
C7329 C1495 1.547 . S
C7348 C3091 1.550 . S
C7384 C3140 1.536 . S
C7365 C1402 1.506 . S
C7420 C3211 1.556 . S
C7401 C1695 1.564 . S
C7437 C1135 2.044 . S
C7456 C3271 1.928 . S
C7492 C3320 1.505 . S
C7473 C1722 1.552 . S
C7528 C3380 2.087 . S
C7509 C1655 2.051 . S
C7545 C1175 1.560 . S
C7564 C3451 1.518 . S
C7581 C1562 2.009 . S
C7600 C3500 2.067 . S
C7617 C1095 1.537 . S
C7636 C3560 1.516 . S
C7672 C3631 1.921 . S
C7653 C1615 2.023 . S
C7708 C3661 1.528 . S
C7689 C1602 1.554 . S
C7725 C1162 2.033 . S
C7744 C3751 2.107 . S
C7780 C3811 1.484 . S
C7761 C1575 1.544 . S
C7797 C1082 1.995 . S
C7816 C3841 1.911 . S
C7852 C3901 1.463 . S
C7833 C1122 1.530 . S
C7869 C1735 2.052 . S
C7888 C3961 1.899 . S
C7924 C4051 1.508 . S
C7905 C1642 1.563 . S
C7941 C1682 1.995 . S
C7960 C4111 2.070 . S
C7977 C1042 1.555 . S
C7996 C3871 1.520 . S
C8013 C1775 1.533 . S
C8032 C4171 1.463 . S
C8049 C1815 2.050 . S
C8068 C4201 1.897 . S
C8104 C4261 1.525 . S
C8085 C1842 1.557 . S
C8121 C1055 2.017 . S
C8140 C3931 2.060 . S
C8157 C975 1.568 . S
C8176 C3721 1.525 . S
C8212 C4321 1.914 . S
C8193 C1855 2.055 . S
C8229 C1762 1.986 . S
C8248 C4411 2.073 . S
C8284 C2221 2.002 . S
C8265 C215 2.025 . S
C8320 C2281 1.554 . S
C8301 C255 1.555 . S
C8356 C2341 2.005 . S
C8337 C282 2.092 . S
C8392 C2191 1.554 . S
C8373 C175 1.555 . S
C8428 C2101 2.031 . S
C8409 C135 2.073 . S
C8445 C15 1.555 . S
C8464 C1951 1.562 . S
C8481 C55 2.015 . S
C8500 C1981 1.983 . S
C8517 C82 1.534 . S
C8536 C2060 1.507 . S
C8553 C95 2.030 . S
C8572 C3151 2.019 . S
C8589 C122 1.530 . S
C8608 C4471 1.549 . S
C8625 C2 2.108 . S
C8644 C3061 2.006 . S
C8661 C42 1.493 . S
C8680 C4501 1.440 . S
C8697 C242 2.116 . S
C8716 C4591 2.026 . S
C8752 C2881 1.435 . S
C8733 C295 1.538 . S
C8769 C162 2.100 . S
C8788 C2941 2.040 . S
C8805 C202 1.527 . S
C8824 C3031 1.546 . S
C8860 C4531 1.927 . S
C8841 C1535 1.997 . S
C8877 C335 2.038 . S
C8896 C2731 2.007 . S
C8913 C375 1.555 . S
C8932 C2791 1.561 . S
C8949 C402 2.083 . S
C8968 C2821 1.986 . S
C9004 C4580 1.548 . S
C8985 C1522 1.521 . S
C9040 C4441 2.006 . S
C9021 C1442 2.106 . S
C9076 C2551 1.542 . S
C9057 C415 1.535 . S
C9093 C322 1.513 . S
C9112 C2420 1.533 . S
C9129 C815 1.569 . S
C9148 C3511 1.525 . S
C9165 C855 2.038 . S
C9184 C3571 1.895 . S
C9201 C882 1.547 . S
C9220 C3620 1.516 . S
C9237 C775 2.055 . S
C9256 C3440 2.098 . S
C9292 C3391 1.555 . S
C9273 C735 1.560 . S
C9328 C3200 2.069 . S
C9309 C602 2.000 . S
C9364 C3260 1.514 . S
C9345 C655 1.536 . S
C9381 C695 2.022 . S
C9400 C3331 1.887 . S
C9436 C4381 1.490 . S
C9417 C682 1.556 . S
C9453 C722 2.034 . S
C9472 C4651 2.123 . S
C9489 C615 1.539 . S
C9508 C4351 1.511 . S
C9544 C4681 1.944 . S
C9525 C642 2.004 . S
C9561 C842 1.549 . S
C9580 C4741 1.519 . S
C9616 C4141 1.939 . S
C9597 C895 2.050 . S
C9633 C762 1.544 . S
C9652 C4231 1.483 . S
C9669 C802 2.013 . S
C9688 C4291 2.092 . S
C9705 C1895 1.548 . S
C9724 C4711 1.492 . S
C9760 C3991 1.468 . S
C9741 C935 1.535 . S
C9777 C962 2.014 . S
C9796 C4021 1.912 . S
C9813 C1002 1.555 . S
C9832 C4081 1.517 . S
C9849 C1882 1.978 . S
C9868 C4771 2.065 . S
C9885 C1802 1.573 . S
C9904 C4621 1.546 . S
C9940 C3781 1.917 . S
C9921 C1015 2.056 . S
C9976 C3691 2.050 . S
C9957 C922 1.989 . S
