# Generated by pormake.
# Topology rtl, (3,6)-cn, num edge types: 1
# Building blocks:
#     Node 0, Type 0, BuildingBlock: MIDCAF_clean_linker_0, # of connection points: 3
#     Node 1, Type 0, BuildingBlock: MIDCAF_clean_linker_0, # of connection points: 3
#     Node 2, Type 0, BuildingBlock: MIDCAF_clean_linker_0, # of connection points: 3
#     Node 3, Type 0, BuildingBlock: MIDCAF_clean_linker_0, # of connection points: 3
#     Node 4, Type 1, BuildingBlock: LEVNOQ01_clean_sbu_1, # of connection points: 6
#     Node 5, Type 1, BuildingBlock: LEVNOQ01_clean_sbu_1, # of connection points: 6
#     Edge 6, Type (0, 1), BuildingBlock: MIFKUJ_clean_linker_0, # of connection points: 2
#     Edge 7, Type (0, 1), BuildingBlock: MIFKUJ_clean_linker_0, # of connection points: 2
#     Edge 8, Type (0, 1), BuildingBlock: MIFKUJ_clean_linker_0, # of connection points: 2
#     Edge 9, Type (0, 1), BuildingBlock: MIFKUJ_clean_linker_0, # of connection points: 2
#     Edge 10, Type (0, 1), BuildingBlock: MIFKUJ_clean_linker_0, # of connection points: 2
#     Edge 11, Type (0, 1), BuildingBlock: MIFKUJ_clean_linker_0, # of connection points: 2
#     Edge 12, Type (0, 1), BuildingBlock: MIFKUJ_clean_linker_0, # of connection points: 2
#     Edge 13, Type (0, 1), BuildingBlock: MIFKUJ_clean_linker_0, # of connection points: 2
#     Edge 14, Type (0, 1), BuildingBlock: MIFKUJ_clean_linker_0, # of connection points: 2
#     Edge 15, Type (0, 1), BuildingBlock: MIFKUJ_clean_linker_0, # of connection points: 2
#     Edge 16, Type (0, 1), BuildingBlock: MIFKUJ_clean_linker_0, # of connection points: 2
#     Edge 17, Type (0, 1), BuildingBlock: MIFKUJ_clean_linker_0, # of connection points: 2
# Relax obj value: 0.026
# Max RMSD: 0.061
# Mean RMSD: 0.047
data_MOF--net-rtl--node1-LEVNOQ01_clean_sbu_1--node2-MIDCAF_clean_linker_0--edge1-MIFKUJ_clean_linker_0
_symmetry_space_group_name_H-M    P1
_symmetry_Int_Tables_number       1
_symmetry_cell_setting            triclinic
loop_
_symmetry_equiv_pos_as_xyz
'x, y, z'
_cell_length_a     46.857523
_cell_length_b     53.212891
_cell_length_c     37.021991
_cell_angle_alpha  89.850659
_cell_angle_beta   97.935938
_cell_angle_gamma 89.883891
loop_
_atom_site_label
_atom_site_type_symbol
_atom_site_fract_x
_atom_site_fract_y
_atom_site_fract_z
_atom_type_partial_charge
C0 C 0.17473 0.91333 0.1587 0.0
C1 C 0.1832 0.90675 0.19542 0.0
C2 C 0.2038 0.88757 0.20363 0.0
C3 C 0.21523 0.87499 0.17576 0.0
H4 H 0.27158 0.81791 0.15665 0.0
H5 H 0.31071 0.78737 0.17014 0.0
H6 H 0.32183 0.78626 0.05634 0.0
H7 H 0.28289 0.81664 0.04269 0.0
H8 H 0.22784 0.83339 0.98529 0.0
H9 H 0.20416 0.83827 0.9228 0.0
H10 H 0.14576 0.8927 0.95884 0.0
H11 H 0.16895 0.88756 0.02134 0.0
H12 H 0.17876 0.90614 0.10286 0.0
H13 H 0.1593 0.9283 0.15141 0.0
H14 H 0.21054 0.88177 0.23157 0.0
H15 H 0.23069 0.86005 0.1831 0.0
N16 N 0.23962 0.8507 0.11698 0.0
N17 N 0.23709 0.8409 0.05488 0.0
N18 N 0.20492 0.87011 0.07414 0.0
C19 C 0.24973 0.83762 0.08992 0.0
C20 C 0.21459 0.85705 0.04675 0.0
C21 C 0.21731 0.86709 0.1093 0.0
C22 C 0.27402 0.81971 0.09854 0.0
C23 C 0.2825 0.8113 0.13453 0.0
C24 C 0.30483 0.79377 0.1423 0.0
C25 C 0.31942 0.78462 0.11436 0.0
C26 C 0.31125 0.7933 0.07853 0.0
C27 C 0.28875 0.81055 0.07068 0.0
C28 C 0.20038 0.86009 0.00853 0.0
C29 C 0.20991 0.84638 0.97999 0.0
C30 C 0.19639 0.84922 0.94408 0.0
C31 C 0.17298 0.8658 0.93579 0.0
C32 C 0.1634 0.87944 0.96431 0.0
C33 C 0.17691 0.87663 0.00019 0.0
C34 C 0.2062 0.88117 0.13899 0.0
C35 C 0.18601 0.90066 0.13083 0.0
C36 C 0.67124 0.61192 0.46859 0.0
C37 C 0.67571 0.62639 0.43807 0.0
C38 C 0.69357 0.64763 0.44325 0.0
C39 C 0.70696 0.65406 0.47816 0.0
H40 H 0.78264 0.68734 0.53436 0.0
H41 H 0.81831 0.72059 0.54058 0.0
H42 H 0.80263 0.73338 0.65142 0.0
H43 H 0.76766 0.69919 0.64561 0.0
H44 H 0.7363 0.65156 0.68277 0.0
H45 H 0.71729 0.63275 0.73475 0.0
H46 H 0.663 0.58412 0.6617 0.0
H47 H 0.68147 0.60299 0.60987 0.0
H48 H 0.68039 0.60682 0.5263 0.0
H49 H 0.65736 0.59558 0.46552 0.0
H50 H 0.6976 0.65902 0.4202 0.0
H51 H 0.72069 0.67048 0.48114 0.0
N52 N 0.73721 0.6643 0.55072 0.0
N53 N 0.74086 0.65951 0.61429 0.0
N54 N 0.70816 0.63503 0.57566 0.0
C55 C 0.74959 0.67094 0.58477 0.0
C56 C 0.72021 0.6414 0.60991 0.0
C57 C 0.71642 0.6464 0.54592 0.0
C58 C 0.77208 0.6907 0.58938 0.0
C59 C 0.78682 0.69717 0.56013 0.0
C60 C 0.80723 0.7164 0.56366 0.0
C61 C 0.81317 0.73003 0.59636 0.0
C62 C 0.79886 0.7232 0.62594 0.0
C63 C 0.77866 0.70366 0.62254 0.0
C64 C 0.71024 0.62904 0.64197 0.0
C65 C 0.72044 0.63675 0.67777 0.0
C66 C 0.70969 0.62586 0.70763 0.0
C67 C 0.68847 0.60707 0.70234 0.0
C68 C 0.67897 0.59885 0.66668 0.0
C69 C 0.68968 0.60968 0.63692 0.0
C70 C 0.70252 0.63955 0.50873 0.0
C71 C 0.68438 0.61846 0.50348 0.0
C72 C 0.82308 0.11001 0.92531 0.0
C73 C 0.8125 0.11713 0.88937 0.0
C74 C 0.7907 0.13544 0.88354 0.0
C75 C 0.78044 0.14704 0.91308 0.0
H76 H 0.73657 0.20978 0.93878 0.0
H77 H 0.70481 0.24606 0.92834 0.0
H78 H 0.69352 0.2458 0.04225 0.0
H79 H 0.72605 0.21008 0.05298 0.0
H80 H 0.76787 0.17359 0.10899 0.0
H81 H 0.79014 0.16249 0.17045 0.0
H82 H 0.85796 0.12326 0.12542 0.0
H83 H 0.83516 0.13345 0.06428 0.0
H84 H 0.82186 0.11583 0.98213 0.0
H85 H 0.83958 0.09568 0.93066 0.0
H86 H 0.78229 0.14148 0.85617 0.0
H87 H 0.7641 0.16149 0.90757 0.0
N88 N 0.76278 0.17293 0.97494 0.0
N89 N 0.76622 0.17943 0.03806 0.0
N90 N 0.79391 0.14803 0.01515 0.0
C91 C 0.75458 0.18575 0.0035 0.0
C92 C 0.786 0.16061 0.04408 0.0
C93 C 0.7823 0.15395 0.98051 0.0
C94 C 0.73405 0.20706 0.99681 0.0
C95 C 0.72726 0.21739 0.96163 0.0
C96 C 0.7089 0.23817 0.95556 0.0
C97 C 0.69671 0.24903 0.98446 0.0
C98 C 0.70301 0.23832 0.01947 0.0
C99 C 0.72156 0.21769 0.02561 0.0
C100 C 0.79958 0.15428 0.08163 0.0
C101 C 0.78752 0.16257 0.11225 0.0
C102 C 0.80042 0.15633 0.14754 0.0
C103 C 0.82586 0.14187 0.15307 0.0
C104 C 0.83807 0.13394 0.12236 0.0
C105 C 0.82502 0.13991 0.08716 0.0
C106 C 0.79173 0.14052 0.94911 0.0
C107 C 0.81281 0.12154 0.95483 0.0
C108 C 0.30366 0.40417 0.60431 0.0
C109 C 0.29235 0.39552 0.63529 0.0
C110 C 0.26751 0.38048 0.63053 0.0
C111 C 0.25442 0.37402 0.59554 0.0
H112 H 0.20438 0.3185 0.54234 0.0
H113 H 0.17528 0.28061 0.53464 0.0
H114 H 0.16388 0.29097 0.41784 0.0
H115 H 0.19281 0.32916 0.42534 0.0
H116 H 0.23002 0.3691 0.39146 0.0
H117 H 0.24713 0.38727 0.33805 0.0
H118 H 0.3025 0.43743 0.40722 0.0
H119 H 0.28521 0.41953 0.46084 0.0
H120 H 0.29972 0.40493 0.54604 0.0
H121 H 0.32263 0.416 0.60715 0.0
H122 H 0.25842 0.3734 0.65391 0.0
H123 H 0.23541 0.36226 0.59292 0.0
N124 N 0.23284 0.35622 0.52292 0.0
N125 N 0.22838 0.36099 0.45946 0.0
N126 N 0.25936 0.38732 0.4974 0.0
C127 C 0.22089 0.34886 0.48907 0.0
C128 C 0.2475 0.38029 0.46333 0.0
C129 C 0.25207 0.37544 0.52736 0.0
C130 C 0.20126 0.32685 0.48446 0.0
C131 C 0.19556 0.3129 0.51497 0.0
C132 C 0.17896 0.29107 0.51058 0.0
C133 C 0.16755 0.28265 0.4756 0.0
C134 C 0.17228 0.29704 0.44514 0.0
C135 C 0.18901 0.31887 0.4495 0.0
C136 C 0.25641 0.39265 0.43063 0.0
C137 C 0.24567 0.38414 0.39542 0.0
C138 C 0.25554 0.3945 0.36472 0.0
C139 C 0.27631 0.41367 0.36841 0.0
C140 C 0.2863 0.42282 0.40344 0.0
C141 C 0.27651 0.41241 0.43421 0.0
C142 C 0.26568 0.38269 0.56447 0.0
C143 C 0.29039 0.39796 0.56929 0.0
O144 O 0.0075 0.03363 0.63474 0.0
Mg145 Mg 0.04063 0.02699 0.60254 0.0
O146 O 0.97372 0.02149 0.5908 0.0
Mg147 Mg -0.00017 0.00569 0.54666 0.0
O148 O 0.03246 0.03969 0.55 0.0
O149 O 0.06409 0.05741 0.59365 0.0
O150 O 0.02567 0.99034 0.50284 0.0
O151 O 0.97512 0.03534 0.50449 0.0
Mg152 Mg 0.96001 0.99016 0.49652 0.0
O153 O 0.96827 0.97 0.54397 0.0
O154 O 0.98991 0.98789 0.45797 0.0
O155 O 0.9315 0.02062 0.49526 0.0
O156 O 0.93732 0.95825 0.49518 0.0
C157 C 0.05067 0.9754 0.60635 0.0
C158 C 0.98111 0.03048 0.62262 0.0
C159 C 0.05179 0.05677 0.56026 0.0
C160 C 0.01668 0.98673 0.46925 0.0
C161 C 0.94849 0.03857 0.49264 0.0
C162 C 0.94931 0.95418 0.52816 0.0
O163 O 0.06603 -0.0052 0.61109 0.0
O164 O 0.02544 0.97685 0.58837 0.0
O165 O 0.53648 0.48822 0.12229 0.0
Mg166 Mg 0.51025 0.46198 0.09055 0.0
O167 O 0.51975 0.52071 0.08825 0.0
Mg168 Mg 0.488 0.50573 0.0385 0.0
O169 O 0.511 0.46743 0.03607 0.0
O170 O 0.52915 0.43328 0.06628 0.0
O171 O 0.45727 0.48719 0.98863 0.0
O172 O 0.52047 0.51958 0.00048 0.0
Mg173 Mg 0.45645 0.53419 0.99216 0.0
O174 O 0.46781 0.54648 0.04446 0.0
O175 O 0.41964 0.51175 0.98096 0.0
O176 O 0.48798 0.53305 0.95624 0.0
O177 O 0.44584 0.57031 0.99836 0.0
C178 C 0.44948 0.47334 0.09548 0.0
C179 C 0.53578 0.51167 0.116 0.0
C180 C 0.52386 0.4458 0.03622 0.0
C181 C 0.43109 0.49104 0.97496 0.0
C182 C 0.51399 0.52799 0.96813 0.0
C183 C 0.45611 0.56762 0.03227 0.0
O184 O 0.46834 0.45632 0.10242 0.0
O185 O 0.45404 0.49243 0.07608 0.0
H186 H 0.1174 0.27164 0.43057 0.0
H187 H 0.09194 0.23119 0.42457 0.0
H188 H 0.15736 0.19855 0.50448 0.0
H189 H 0.18294 0.23848 0.5101 0.0
H190 H 0.14267 0.16733 0.44615 0.0
H191 H 0.0936 0.21988 0.52768 0.0
H192 H 0.06568 0.2572 0.54132 0.0
H193 H -0.00068 0.23846 0.45362 0.0
H194 H 0.02707 0.20116 0.43923 0.0
H195 H 0.10305 0.08016 0.56484 0.0
H196 H 0.11627 0.11541 0.52907 0.0
H197 H 0.0332 0.11264 0.46233 0.0
H198 H 0.01961 0.07682 0.49885 0.0
H199 H 0.04733 0.16026 0.48921 0.0
H200 H 0.09163 0.0997 0.42252 0.0
H201 H 0.1198 0.06174 0.41271 0.0
H202 H 0.19529 0.09466 0.47287 0.0
H203 H 0.16757 0.13263 0.48373 0.0
C204 C 0.12642 0.25573 0.44658 0.0
C205 C 0.15202 0.25829 0.47109 0.0
C206 C 0.11182 0.2327 0.44321 0.0
C207 C 0.12272 0.21188 0.46415 0.0
C208 C 0.14859 0.21433 0.48796 0.0
C209 C 0.16303 0.23726 0.49147 0.0
C210 C 0.10704 0.18763 0.46302 0.0
C211 C 0.12172 0.16571 0.45528 0.0
C212 C 0.07916 0.18562 0.47335 0.0
C213 C 0.06255 0.20798 0.48207 0.0
C214 C 0.07316 0.22385 0.51114 0.0
C215 C 0.05736 0.24496 0.51903 0.0
C216 C 0.03079 0.25025 0.49826 0.0
C217 C 0.01994 0.23438 0.46962 0.0
C218 C 0.03569 0.21326 0.46158 0.0
C219 C 0.08766 0.08673 0.54222 0.0
C220 C 0.06025 0.07582 0.5347 0.0
C221 C 0.09536 0.1068 0.52155 0.0
C222 C 0.07589 0.11651 0.49271 0.0
C223 C 0.04864 0.10528 0.4843 0.0
C224 C 0.04096 0.08481 0.50498 0.0
C225 C 0.08378 0.13987 0.4745 0.0
C226 C 0.0677 0.16172 0.47854 0.0
C227 C 0.11044 0.14181 0.46079 0.0
C228 C 0.12745 0.11911 0.45388 0.0
C229 C 0.11421 0.09884 0.43379 0.0
C230 C 0.1301 0.0773 0.42804 0.0
C231 C 0.1593 0.07582 0.44208 0.0
C232 C 0.17268 0.09587 0.46191 0.0
C233 C 0.1569 0.11744 0.46781 0.0
H234 H 0.17154 0.05911 0.43762 0.0
H235 H 0.01858 0.2666 0.50442 0.0
H236 H 0.37224 0.78401 0.0914 0.0
H237 H 0.40554 0.74845 0.09327 0.0
H238 H 0.35105 0.70543 0.15502 0.0
H239 H 0.3177 0.74113 0.15353 0.0
H240 H 0.41269 0.69388 0.17223 0.0
H241 H 0.33685 0.70095 0.06906 0.0
H242 H 0.30869 0.72399 0.01821 0.0
H243 H 0.38545 0.73592 0.96918 0.0
H244 H 0.41416 0.71334 0.02014 0.0
H245 H 0.43301 0.5703 0.09614 0.0
H246 H 0.41977 0.60926 0.12549 0.0
H247 H 0.46342 0.6526 0.05108 0.0
H248 H 0.47552 0.614 0.02113 0.0
H249 H 0.40892 0.66451 0.04458 0.0
H250 H 0.48473 0.65354 0.14362 0.0
H251 H 0.51383 0.63156 0.19476 0.0
H252 H 0.43999 0.62683 0.25137 0.0
H253 H 0.41029 0.64842 0.20032 0.0
C254 C 0.36771 0.76718 0.10609 0.0
C255 C 0.34216 0.76513 0.12174 0.0
C256 C 0.38684 0.74697 0.1074 0.0
C257 C 0.38054 0.72423 0.1239 0.0
C258 C 0.35634 0.72285 0.1423 0.0
C259 C 0.33726 0.74321 0.14126 0.0
C260 C 0.39599 0.70101 0.11598 0.0
C261 C 0.41184 0.68724 0.14443 0.0
C262 C 0.39503 0.69262 0.07965 0.0
C263 C 0.37767 0.70568 0.04857 0.0
C264 C 0.34774 0.70863 0.04755 0.0
C265 C 0.33169 0.7216 0.01871 0.0
C266 C 0.34528 0.73146 0.99052 0.0
C267 C 0.37496 0.7283 0.99106 0.0
C268 C 0.39113 0.71542 0.01991 0.0
C269 C 0.44053 0.58816 0.08704 0.0
C270 C 0.45496 0.58939 0.0563 0.0
C271 C 0.43306 0.61038 0.10381 0.0
C272 C 0.44042 0.63388 0.09026 0.0
C273 C 0.45733 0.63473 0.06181 0.0
C274 C 0.46425 0.61271 0.04474 0.0
C275 C 0.42645 0.65733 0.10067 0.0
C276 C 0.41032 0.67108 0.07251 0.0
C277 C 0.4274 0.66553 0.13719 0.0
C278 C 0.44517 0.65239 0.1679 0.0
C279 C 0.47459 0.64759 0.16678 0.0
C280 C 0.49123 0.63525 0.19581 0.0
C281 C 0.47875 0.62775 0.22624 0.0
C282 C 0.44962 0.63262 0.22775 0.0
C283 C 0.43288 0.64493 0.19878 0.0
H284 H 0.49166 0.61821 0.24868 0.0
H285 H 0.33282 0.7415 0.96822 0.0
H286 H 0.85203 0.74539 0.65519 0.0
H287 H 0.88476 0.78153 0.65822 0.0
H288 H 0.85326 0.79958 0.54621 0.0
H289 H 0.81996 0.76445 0.54325 0.0
H290 H 0.91425 0.79914 0.56257 0.0
H291 H 0.82913 0.83127 0.61216 0.0
H292 H 0.79533 0.83151 0.65768 0.0
H293 H 0.86566 0.84369 0.7432 0.0
H294 H 0.89992 0.8432 0.69816 0.0
H295 H 0.91059 0.91898 0.50077 0.0
H296 H 0.89904 0.8795 0.52785 0.0
H297 H 0.95847 0.89595 0.62445 0.0
H298 H 0.97065 0.93623 0.59706 0.0
H299 H 0.8987 0.87554 0.63402 0.0
H300 H 0.98218 0.85376 0.58227 0.0
H301 H 0.01564 0.85461 0.53642 0.0
H302 H 0.95051 0.82263 0.45692 0.0
H303 H 0.9165 0.82192 0.50213 0.0
C304 C 0.85187 0.75719 0.6313 0.0
C305 C 0.83342 0.75178 0.59885 0.0
C306 C 0.87073 0.77773 0.63306 0.0
C307 C 0.87156 0.7931 0.60236 0.0
C308 C 0.85323 0.78776 0.57008 0.0
C309 C 0.83427 0.76751 0.5684 0.0
C310 C 0.89095 0.81515 0.60316 0.0
C311 C 0.91112 0.81575 0.5785 0.0
C312 C 0.88771 0.83648 0.62502 0.0
C313 C 0.86709 0.83686 0.65191 0.0
C314 C 0.83739 0.83377 0.64071 0.0
C315 C 0.81816 0.834 0.66641 0.0
C316 C 0.82835 0.83752 0.70333 0.0
C317 C 0.8578 0.8409 0.71461 0.0
C318 C 0.87713 0.84065 0.68902 0.0
C319 C 0.92131 0.91448 0.52784 0.0
C320 C 0.94171 0.93083 0.54664 0.0
C321 C 0.91463 0.89178 0.54327 0.0
C322 C 0.92807 0.88472 0.57795 0.0
C323 C 0.94792 0.90112 0.59756 0.0
C324 C 0.95485 0.92405 0.58188 0.0
C325 C 0.92095 0.8598 0.59219 0.0
C326 C 0.9029 0.8586 0.61938 0.0
C327 C 0.92635 0.83776 0.57296 0.0
C328 C 0.94676 0.83783 0.54563 0.0
C329 C 0.97493 0.84703 0.55495 0.0
C330 C -0.00599 0.84747 0.52907 0.0
C331 C 0.9852 0.83869 0.49377 0.0
C332 C 0.95731 0.8294 0.48429 0.0
C333 C 0.93814 0.82892 0.51007 0.0
H334 H -0.0 0.83906 0.47376 0.0
H335 H 0.81343 0.8377 0.72318 0.0
H336 H 0.65605 0.26017 0.92542 0.0
H337 H 0.6241 0.29688 0.91721 0.0
H338 H 0.66223 0.32535 0.02168 0.0
H339 H 0.69481 0.2894 0.02963 0.0
H340 H 0.60198 0.32157 0.01313 0.0
H341 H 0.67786 0.35304 0.94917 0.0
H342 H 0.70988 0.35203 0.90163 0.0
H343 H 0.63637 0.35375 0.81837 0.0
H344 H 0.60389 0.3544 0.86547 0.0
H345 H 0.57406 0.45521 0.01078 0.0
H346 H 0.60009 0.42335 0.98061 0.0
H347 H 0.52291 0.37857 0.96159 0.0
H348 H 0.49708 0.41024 0.99231 0.0
H349 H 0.5993 0.38905 0.91979 0.0
H350 H 0.5381 0.32569 0.00492 0.0
H351 H 0.50901 0.32762 0.05566 0.0
H352 H 0.55856 0.39068 0.10088 0.0
H353 H 0.58779 0.38916 0.0503 0.0
C354 C 0.65801 0.27446 0.94638 0.0
C355 C 0.67785 0.27165 0.97841 0.0
C356 C 0.63968 0.29538 0.94162 0.0
C357 C 0.64083 0.31376 0.96886 0.0
C358 C 0.66094 0.31127 0.00043 0.0
C359 C 0.67938 0.29057 0.00506 0.0
C360 C 0.61992 0.3348 0.96608 0.0
C361 C 0.60121 0.33612 0.99241 0.0
C362 C 0.61893 0.3538 0.93909 0.0
C363 C 0.63845 0.35344 0.91083 0.0
C364 C 0.66852 0.35294 0.92073 0.0
C365 C 0.68675 0.35249 0.89386 0.0
C366 C 0.67517 0.35273 0.857 0.0
C367 C 0.64531 0.35351 0.84693 0.0
C368 C 0.62699 0.35393 0.8737 0.0
C369 C 0.56224 0.43934 0.99803 0.0
C370 C 0.53367 0.43504 0.00372 0.0
C371 C 0.57715 0.42107 0.98091 0.0
C372 C 0.56356 0.39837 0.96965 0.0
C373 C 0.5338 0.3959 0.97034 0.0
C374 C 0.51899 0.41407 0.98766 0.0
C375 C 0.58146 0.37565 0.96683 0.0
C376 C 0.59962 0.37407 0.93977 0.0
C377 C 0.58228 0.35634 0.99334 0.0
C378 C 0.56486 0.35744 0.02376 0.0
C379 C 0.54272 0.33996 0.02571 0.0
C380 C 0.52619 0.34102 0.05437 0.0
C381 C 0.53184 0.35934 0.08137 0.0
C382 C 0.55409 0.3766 0.07982 0.0
C383 C 0.57057 0.3757 0.05113 0.0
H384 H 0.51905 0.36012 0.10355 0.0
H385 H 0.68932 0.35239 0.83625 0.0
H386 H 0.20903 0.92107 0.26344 0.0
H387 H 0.18583 0.93896 0.31291 0.0
H388 H 0.10394 0.93843 0.24355 0.0
H389 H 0.12672 0.92018 0.19433 0.0
H390 H 0.11264 0.98225 0.28294 0.0
H391 H 0.12103 0.89229 0.30454 0.0
H392 H 0.14784 0.8524 0.31476 0.0
H393 H 0.19813 0.88323 0.41005 0.0
H394 H 0.17185 0.92346 0.40008 0.0
H395 H 0.00447 0.97956 0.39579 0.0
H396 H 0.03811 0.97057 0.35281 0.0
H397 H 0.1091 0.97298 0.44032 0.0
H398 H 0.07544 0.98177 0.48384 0.0
H399 H 0.1127 0.93265 0.39666 0.0
H400 H 0.09919 0.0205 0.38056 0.0
H401 H 0.07191 0.0602 0.37098 0.0
H402 H 0.03203 0.03437 0.26636 0.0
H403 H 0.05859 -0.00571 0.27557 0.0
C404 C 0.18606 0.9247 0.25874 0.0
C405 C 0.16973 0.91908 0.22491 0.0
C406 C 0.17289 0.93503 0.28698 0.0
C407 C 0.14314 0.93987 0.28193 0.0
C408 C 0.12696 0.93497 0.24794 0.0
C409 C 0.14006 0.92459 0.21977 0.0
C410 C 0.1284 0.94895 0.31237 0.0
C411 C 0.11253 0.9714 0.30777 0.0
C412 C 0.12906 0.93516 0.34522 0.0
C413 C 0.14473 0.91096 0.35132 0.0
C414 C 0.13796 0.89062 0.3275 0.0
C415 C 0.15304 0.86795 0.33328 0.0
C416 C 0.17474 0.86531 0.36297 0.0
C417 C 0.18136 0.88532 0.38702 0.0
C418 C 0.16638 0.90806 0.38132 0.0
C419 C 0.02723 0.97824 0.40599 0.0
C420 C 0.03726 0.98139 0.44328 0.0
C421 C 0.04646 0.97324 0.38131 0.0
C422 C 0.07615 0.97144 0.3933 0.0
C423 C 0.08628 0.97441 0.43051 0.0
C424 C 0.06702 0.97945 0.4553 0.0
C425 C 0.09626 0.96563 0.36684 0.0
C426 C 0.11318 0.94381 0.37218 0.0
C427 C 0.09664 0.98007 0.33474 0.0
C428 C 0.08079 0.00429 0.32888 0.0
C429 C 0.08446 0.0232 0.35561 0.0
C430 C 0.06914 0.04579 0.35024 0.0
C431 C 0.05026 0.04979 0.31811 0.0
C432 C 0.04668 0.03123 0.29125 0.0
C433 C 0.06187 0.00858 0.29652 0.0
H434 H 0.03842 0.06729 0.31401 0.0
H435 H 0.18639 0.84773 0.3674 0.0
H436 H 0.63148 0.59834 0.70454 0.0
H437 H 0.60864 0.58324 0.75572 0.0
H438 H 0.69156 0.5785 0.82235 0.0
H439 H 0.71486 0.5933 0.77064 0.0
H440 H 0.65396 0.53641 0.83044 0.0
H441 H 0.65305 0.62609 0.83644 0.0
H442 H 0.64543 0.66914 0.81217 0.0
H443 H 0.55538 0.65389 0.78177 0.0
H444 H 0.56253 0.61061 0.80535 0.0
H445 H 0.57316 0.52506 0.9852 0.0
H446 H 0.60926 0.53702 0.946 0.0
H447 H 0.54119 0.55426 0.8586 0.0
H448 H 0.50538 0.54266 0.89713 0.0
H449 H 0.57949 0.59224 0.87058 0.0
H450 H 0.58136 0.50152 0.8579 0.0
H451 H 0.58825 0.45828 0.88169 0.0
H452 H 0.67586 0.47529 0.92482 0.0
H453 H 0.66934 0.51879 0.90179 0.0
C454 C 0.64499 0.59374 0.72985 0.0
C455 C 0.67502 0.59702 0.73349 0.0
C456 C 0.63187 0.58525 0.75916 0.0
C457 C 0.64839 0.57993 0.79288 0.0
C458 C 0.67845 0.58253 0.79653 0.0
C459 C 0.69166 0.59118 0.76711 0.0
C460 C 0.63367 0.57283 0.82437 0.0
C461 C 0.63808 0.54876 0.83982 0.0
C462 C 0.61286 0.58892 0.83639 0.0
C463 C 0.60838 0.61504 0.82249 0.0
C464 C 0.63166 0.63186 0.82436 0.0
C465 C 0.62741 0.65631 0.81076 0.0
C466 C 0.59995 0.66423 0.7954 0.0
C467 C 0.57665 0.64773 0.79368 0.0
C468 C 0.58078 0.62324 0.80721 0.0
C469 C 0.56597 0.53121 0.95753 0.0
C470 C 0.53637 0.5331 0.94443 0.0
C471 C 0.58659 0.538 0.93518 0.0
C472 C 0.57787 0.54665 0.89944 0.0
C473 C 0.5484 0.54786 0.88617 0.0
C474 C 0.52793 0.54114 0.90831 0.0
C475 C 0.59889 0.55545 0.8757 0.0
C476 C 0.59573 0.57999 0.86177 0.0
C477 C 0.62072 0.53974 0.86517 0.0
C478 C 0.62475 0.5135 0.87853 0.0
C479 C 0.60202 0.49611 0.87272 0.0
C480 C 0.60587 0.47154 0.88603 0.0
C481 C 0.63244 0.46406 0.90487 0.0
C482 C 0.65527 0.48112 0.9103 0.0
C483 C 0.65151 0.50573 0.89712 0.0
H484 H 0.63537 0.44504 0.91517 0.0
H485 H 0.59671 0.68317 0.78487 0.0
H486 H 0.83011 0.16993 0.21604 0.0
H487 H 0.8518 0.15754 0.27735 0.0
H488 H 0.87546 0.08583 0.23598 0.0
H489 H 0.85231 0.09739 0.17532 0.0
H490 H 0.85517 0.07829 0.29527 0.0
H491 H 0.92515 0.13492 0.25896 0.0
H492 H 0.94318 0.17473 0.23657 0.0
H493 H 0.91852 0.21363 0.32896 0.0
H494 H 0.89997 0.17409 0.35166 0.0
H495 H 0.97971 0.06504 0.44833 0.0
H496 H 0.95982 0.08943 0.39451 0.0
H497 H 0.87482 0.08305 0.42586 0.0
H498 H 0.89447 0.05817 0.47913 0.0
H499 H 0.92703 0.13061 0.37224 0.0
H500 H 0.82932 0.06325 0.35321 0.0
H501 H 0.8166 0.02073 0.37241 0.0
H502 H 0.90565 -0.00118 0.3838 0.0
H503 H 0.91881 0.04104 0.3641 0.0
C504 C 0.83963 0.15141 0.22002 0.0
C505 C 0.83947 0.13472 0.19052 0.0
C506 C 0.85241 0.14448 0.25508 0.0
C507 C 0.86566 0.12086 0.26132 0.0
C508 C 0.86548 0.10419 0.23195 0.0
C509 C 0.85247 0.11097 0.19707 0.0
C510 C 0.87899 0.11301 0.29849 0.0
C511 C 0.87079 0.08985 0.31203 0.0
C512 C 0.89977 0.1278 0.32036 0.0
C513 C 0.9109 0.1516 0.30679 0.0
C514 C 0.92336 0.152 0.27435 0.0
C515 C 0.93371 0.17451 0.26163 0.0
C516 C 0.93192 0.19671 0.28128 0.0
C517 C 0.91985 0.19643 0.31374 0.0
C518 C 0.90943 0.17397 0.32656 0.0
C519 C 0.95697 0.06968 0.44452 0.0
C520 C 0.93855 0.05946 0.46764 0.0
C521 C 0.9456 0.08356 0.41365 0.0
C522 C 0.91574 0.0875 0.4057 0.0
C523 C 0.89786 0.07979 0.4311 0.0
C524 C 0.90912 0.06567 0.46161 0.0
C525 C 0.90286 0.09615 0.36884 0.0
C526 C 0.91117 0.11931 0.35544 0.0
C527 C 0.88283 0.08101 0.34646 0.0
C528 C 0.87505 0.05539 0.3576 0.0
C529 C 0.84615 0.04931 0.35967 0.0
C530 C 0.83887 0.02527 0.37064 0.0
C531 C 0.86032 0.00711 0.37944 0.0
C532 C 0.88907 0.01292 0.3771 0.0
C533 C 0.89645 0.0369 0.36604 0.0
H534 H 0.85464 0.98853 0.388 0.0
H535 H 0.93996 0.21412 0.27139 0.0
H536 H 0.34974 0.39387 0.6621 0.0
H537 H 0.37272 0.40582 0.72316 0.0
H538 H 0.28956 0.42439 0.75332 0.0
H539 H 0.26647 0.41252 0.69233 0.0
H540 H 0.33109 0.46179 0.77035 0.0
H541 H 0.32176 0.37239 0.78587 0.0
H542 H 0.32825 0.32786 0.77054 0.0
H543 H 0.42011 0.33733 0.78701 0.0
H544 H 0.41416 0.38203 0.80194 0.0
H545 H 0.3733 0.48694 0.95401 0.0
H546 H 0.34907 0.46575 0.89989 0.0
H547 H 0.43086 0.43736 0.87651 0.0
H548 H 0.45511 0.45772 0.9316 0.0
H549 H 0.39014 0.40402 0.85593 0.0
H550 H 0.40149 0.49215 0.83702 0.0
H551 H 0.39752 0.53735 0.85006 0.0
H552 H 0.30528 0.53143 0.83647 0.0
H553 H 0.30872 0.48609 0.82386 0.0
C554 C 0.33638 0.40051 0.68177 0.0
C555 C 0.30631 0.40227 0.67247 0.0
C556 C 0.34951 0.40715 0.71668 0.0
C557 C 0.33281 0.41581 0.74282 0.0
C558 C 0.30281 0.41764 0.73358 0.0
C559 C 0.28965 0.41076 0.69882 0.0
C560 C 0.3467 0.42392 0.77935 0.0
C561 C 0.34362 0.44907 0.78932 0.0
C562 C 0.36389 0.40751 0.80349 0.0
C563 C 0.3675 0.38062 0.79467 0.0
C564 C 0.34334 0.36503 0.78592 0.0
C565 C 0.34692 0.33975 0.77736 0.0
C566 C 0.37457 0.32979 0.77771 0.0
C567 C 0.3987 0.34508 0.78671 0.0
C568 C 0.39524 0.37038 0.79525 0.0
C569 C 0.38604 0.4757 0.93779 0.0
C570 C 0.41612 0.47424 0.94676 0.0
C571 C 0.3722 0.46373 0.90672 0.0
C572 C 0.38824 0.45061 0.88347 0.0
C573 C 0.41805 0.44756 0.89383 0.0
C574 C 0.43188 0.45919 0.92536 0.0
C575 C 0.37425 0.44188 0.84716 0.0
C576 C 0.37747 0.41671 0.83709 0.0
C577 C 0.35755 0.45838 0.82253 0.0
C578 C 0.35538 0.48568 0.82986 0.0
C579 C 0.38036 0.50045 0.83706 0.0
C580 C 0.37821 0.5261 0.84435 0.0
C581 C 0.35116 0.53724 0.84419 0.0
C582 C 0.32621 0.52276 0.83664 0.0
C583 C 0.32825 0.49709 0.8294 0.0
H584 H 0.34954 0.5571 0.84984 0.0
H585 H 0.3773 0.31021 0.77108 0.0
H586 H 0.64785 0.65641 0.38383 0.0
H587 H 0.62532 0.64353 0.32283 0.0
H588 H 0.65059 0.56677 0.34787 0.0
H589 H 0.67324 0.57949 0.40843 0.0
H590 H 0.6627 0.58196 0.28046 0.0
H591 H 0.58333 0.58686 0.35175 0.0
H592 H 0.5502 0.60782 0.38839 0.0
H593 H 0.52338 0.65876 0.3 0.0
H594 H 0.55679 0.63841 0.26306 0.0
H595 H 0.57686 0.49797 0.17183 0.0
H596 H 0.60223 0.52444 0.21896 0.0
H597 H 0.55925 0.58998 0.16843 0.0
H598 H 0.53312 0.56328 0.1209 0.0
H599 H 0.55751 0.58949 0.24062 0.0
H600 H 0.63121 0.5815 0.16616 0.0
H601 H 0.66294 0.56017 0.128 0.0
H602 H 0.69983 0.51594 0.21995 0.0
H603 H 0.66803 0.53672 0.25858 0.0
C604 C 0.64871 0.63683 0.37617 0.0
C605 C 0.66221 0.61893 0.40096 0.0
C606 C 0.6357 0.62949 0.34145 0.0
C607 C 0.63616 0.60418 0.3309 0.0
C608 C 0.64996 0.5864 0.35545 0.0
C609 C 0.66271 0.59366 0.39015 0.0
C610 C 0.62245 0.59584 0.29437 0.0
C611 C 0.63969 0.58355 0.27176 0.0
C612 C 0.5926 0.59888 0.28233 0.0
C613 C 0.57299 0.61142 0.3049 0.0
C614 C 0.57071 0.60278 0.34032 0.0
C615 C 0.55181 0.6145 0.36111 0.0
C616 C 0.53483 0.63471 0.34662 0.0
C617 C 0.53667 0.6432 0.31128 0.0
C618 C 0.55561 0.6316 0.29043 0.0
C619 C 0.57291 0.51804 0.17035 0.0
C620 C 0.55292 0.52848 0.1425 0.0
C621 C 0.58764 0.53321 0.19729 0.0
C622 C 0.58301 0.55926 0.19699 0.0
C623 C 0.56332 0.56992 0.16903 0.0
C624 C 0.54851 0.55467 0.14184 0.0
C625 C 0.59762 0.57472 0.2274 0.0
C626 C 0.58062 0.58841 0.24885 0.0
C627 C 0.62774 0.57314 0.23829 0.0
C628 C 0.64711 0.56063 0.21525 0.0
C629 C 0.64596 0.56712 0.17821 0.0
C630 C 0.66398 0.55513 0.1565 0.0
C631 C 0.68337 0.53669 0.17153 0.0
C632 C 0.68481 0.53023 0.20834 0.0
C633 C 0.66682 0.54215 0.23018 0.0
H634 H 0.6973 0.52743 0.15467 0.0
H635 H 0.52015 0.64371 0.36272 0.0
H636 H 0.78504 0.1012 0.82297 0.0
H637 H 0.80745 0.086 0.77092 0.0
H638 H 0.89151 0.09435 0.83376 0.0
H639 H 0.86946 0.10989 0.88531 0.0
H640 H 0.88796 0.11575 0.7659 0.0
H641 H 0.86124 0.03721 0.81973 0.0
H642 H 0.8268 0.00714 0.84024 0.0
H643 H 0.78034 0.00446 0.7319 0.0
H644 H 0.81432 0.03479 0.71086 0.0
H645 H 0.99053 0.04696 0.69271 0.0
H646 H 0.95526 0.06122 0.73044 0.0
H647 H 0.88651 0.04542 0.64354 0.0
H648 H 0.92199 0.03071 0.60517 0.0
H649 H 0.87409 0.03042 0.71266 0.0
H650 H 0.9046 0.1043 0.65689 0.0
H651 H 0.93928 0.13392 0.63595 0.0
H652 H 0.9777 0.146 0.74666 0.0
H653 H 0.94353 0.11615 0.76826 0.0
C654 C 0.8083 0.09977 0.8256 0.0
C655 C 0.8255 0.10666 0.85827 0.0
C656 C 0.82103 0.09095 0.79597 0.0
C657 C 0.85112 0.08901 0.79857 0.0
C658 C 0.86824 0.09572 0.83121 0.0
C659 C 0.85559 0.10439 0.86076 0.0
C660 C 0.86526 0.08069 0.76725 0.0
C661 C 0.88499 0.09707 0.75432 0.0
C662 C 0.86047 0.0567 0.75116 0.0
C663 C 0.84008 0.0385 0.76384 0.0
C664 C 0.84352 0.03039 0.80037 0.0
C665 C 0.82412 0.01326 0.81207 0.0
C666 C 0.80134 0.00397 0.78742 0.0
C667 C 0.79796 0.01172 0.75099 0.0
C668 C 0.81728 0.02887 0.73915 0.0
C669 C 0.96794 0.0464 0.68144 0.0
C670 C 0.95912 0.03791 0.64572 0.0
C671 C 0.94779 0.05463 0.7031 0.0
C672 C 0.91834 0.05479 0.68955 0.0
C673 C 0.9092 0.04557 0.65437 0.0
C674 C 0.92947 0.03724 0.63251 0.0
C675 C 0.89763 0.06514 0.71248 0.0
C676 C 0.87662 0.04927 0.7237 0.0
C677 C 0.90108 0.0897 0.72696 0.0
C678 C 0.92156 0.10787 0.71417 0.0
C679 C 0.92055 0.11315 0.67676 0.0
C680 C 0.94011 0.13 0.66478 0.0
C681 C 0.9607 0.14181 0.68995 0.0
C682 C 0.96173 0.13684 0.72719 0.0
C683 C 0.94224 0.11998 0.73932 0.0
H684 H 0.97582 0.15485 0.68062 0.0
H685 H 0.78635 0.9907 0.79653 0.0
H686 H 0.28841 0.46232 0.35061 0.0
H687 H 0.31252 0.47659 0.29945 0.0
H688 H 0.31675 0.40006 0.26247 0.0
H689 H 0.29316 0.38568 0.31354 0.0
H690 H 0.36903 0.42417 0.26961 0.0
H691 H 0.27057 0.44066 0.21659 0.0
H692 H 0.22248 0.45995 0.21449 0.0
H693 H 0.26024 0.53349 0.21701 0.0
H694 H 0.30864 0.51462 0.21964 0.0
H695 H 0.41972 0.43106 0.10548 0.0
H696 H 0.38385 0.42542 0.14667 0.0
H697 H 0.38525 0.50504 0.16852 0.0
H698 H 0.4207 0.5109 0.126 0.0
H699 H 0.33084 0.48387 0.17134 0.0
H700 H 0.42842 0.46875 0.22341 0.0
H701 H 0.47717 0.45064 0.22633 0.0
H702 H 0.44213 0.37625 0.22863 0.0
H703 H 0.39309 0.39391 0.22512 0.0
C704 C 0.29437 0.44858 0.33144 0.0
C705 C 0.28887 0.42287 0.33611 0.0
C706 C 0.30792 0.45678 0.3021 0.0
C707 C 0.31629 0.43938 0.2771 0.0
C708 C 0.31037 0.4138 0.2814 0.0
C709 C 0.29672 0.40563 0.31048 0.0
C710 C 0.33298 0.44734 0.24783 0.0
C711 C 0.36052 0.43701 0.24793 0.0
C712 C 0.32233 0.46488 0.22039 0.0
C713 C 0.29325 0.47622 0.21873 0.0
C714 C 0.26865 0.46094 0.21704 0.0
C715 C 0.24133 0.4718 0.21568 0.0
C716 C 0.23831 0.49793 0.21573 0.0
C717 C 0.26261 0.51326 0.21703 0.0
C718 C 0.28999 0.50249 0.21843 0.0
C719 C 0.41174 0.44747 0.11822 0.0
C720 C 0.42315 0.47135 0.11296 0.0
C721 C 0.39133 0.44423 0.14182 0.0
C722 C 0.3825 0.46471 0.1614 0.0
C723 C 0.39194 0.48897 0.15383 0.0
C724 C 0.41212 0.4923 0.12955 0.0
C725 C 0.36645 0.46002 0.19261 0.0
C726 C 0.3393 0.4711 0.19312 0.0
C727 C 0.37754 0.44336 0.22105 0.0
C728 C 0.40706 0.43266 0.22372 0.0
C729 C 0.43109 0.44852 0.22431 0.0
C730 C 0.45878 0.43834 0.22609 0.0
C731 C 0.46274 0.41231 0.2276 0.0
C732 C 0.43902 0.39641 0.22743 0.0
C733 C 0.41128 0.40649 0.22558 0.0
H734 H 0.48419 0.40446 0.22896 0.0
H735 H 0.21714 0.5063 0.21466 0.0
H736 H 0.19933 0.86956 0.87445 0.0
H737 H 0.17709 0.87932 0.8124 0.0
H738 H 0.09337 0.88122 0.84824 0.0
H739 H 0.11539 0.87071 0.91033 0.0
H740 H 0.09148 0.86002 0.77885 0.0
H741 H 0.12784 0.93437 0.84301 0.0
H742 H 0.16442 0.96069 0.87922 0.0
H743 H 0.21797 0.95665 0.79417 0.0
H744 H 0.18186 0.92997 0.75767 0.0
H745 H 0.01936 0.94624 0.6468 0.0
H746 H 0.03925 0.91873 0.69713 0.0
H747 H 0.12398 0.92681 0.66517 0.0
H748 H 0.1043 0.95539 0.61623 0.0
H749 H 0.12559 0.94024 0.73157 0.0
H750 H 0.08549 0.86872 0.66399 0.0
H751 H 0.04643 0.84511 0.62757 0.0
H752 H -0.00204 0.84525 0.71786 0.0
H753 H 0.03651 0.86924 0.75466 0.0
C754 C 0.17612 0.87148 0.86905 0.0
C755 C 0.15918 0.86959 0.89747 0.0
C756 C 0.16345 0.87718 0.83357 0.0
C757 C 0.1336 0.88125 0.82578 0.0
C758 C 0.11643 0.87817 0.85365 0.0
C759 C 0.1291 0.87247 0.8892 0.0
C760 C 0.12083 0.89108 0.78956 0.0
C761 C 0.0988 0.87759 0.76842 0.0
C762 C 0.13056 0.91389 0.77591 0.0
C763 C 0.1523 0.92994 0.79781 0.0
C764 C 0.14753 0.93891 0.83218 0.0
C765 C 0.16815 0.95392 0.85272 0.0
C766 C 0.19354 0.96027 0.83905 0.0
C767 C 0.19832 0.95167 0.80476 0.0
C768 C 0.17778 0.93661 0.78412 0.0
C769 C 0.04201 0.94131 0.64974 0.0
C770 C 0.06038 0.95292 0.62786 0.0
C771 C 0.05342 0.92558 0.67855 0.0
C772 C 0.08322 0.92073 0.68517 0.0
C773 C 0.101 0.93042 0.66088 0.0
C774 C 0.08974 0.94658 0.63275 0.0
C775 C 0.09654 0.90898 0.72 0.0
C776 C 0.11853 0.92236 0.74133 0.0
C777 C 0.08659 0.88618 0.73364 0.0
C778 C 0.06384 0.87094 0.71202 0.0
C779 C 0.06646 0.8638 0.67605 0.0
C780 C 0.0444 0.85036 0.65533 0.0
C781 C 0.01971 0.84373 0.67036 0.0
C782 C 0.0171 0.85041 0.70624 0.0
C783 C 0.03907 0.8639 0.72707 0.0
H784 H 0.00261 0.83341 0.65423 0.0
H785 H 0.20948 0.97191 0.85499 0.0
loop_
_geom_bond_atom_site_label_1
_geom_bond_atom_site_label_2
_geom_bond_distance
_geom_bond_site_symmetry_2
_ccdc_geom_bond_type
C0 C1 1.384 . S
C0 H13 0.947 . S
C0 C35 1.382 . S
C1 C0 1.384 . S
C1 C2 1.378 . S
C2 C1 1.378 . S
C2 C3 1.378 . S
C2 H14 0.952 . S
C3 C2 1.378 . S
C3 H15 0.950 . S
C3 C34 1.383 . S
H4 C23 0.947 . S
H5 C24 0.946 . S
H6 C26 0.953 . S
H7 C27 0.945 . S
H8 C29 0.952 . S
H9 C30 0.949 . S
H10 C32 0.950 . S
H11 C33 0.948 . S
H12 C35 0.951 . S
H13 C0 0.947 . S
H14 C2 0.952 . S
H15 C3 0.950 . S
N16 C19 1.382 . S
N16 C21 1.363 . S
N17 C19 1.371 . S
N17 C20 1.372 . S
N18 C20 1.361 . S
N18 C21 1.377 . S
C19 N16 1.382 . S
C19 N17 1.371 . S
C19 C22 1.480 . S
C20 N17 1.372 . S
C20 N18 1.361 . S
C20 C28 1.457 . S
C21 N16 1.363 . S
C21 N18 1.377 . S
C21 C34 1.479 . S
C22 C19 1.480 . S
C22 C23 1.383 . S
C22 C27 1.385 . S
C23 H4 0.947 . S
C23 C22 1.383 . S
C23 C24 1.388 . S
C24 H5 0.946 . S
C24 C23 1.388 . S
C24 C25 1.384 . S
C25 C24 1.384 . S
C25 C26 1.377 . S
C26 H6 0.953 . S
C26 C25 1.377 . S
C26 C27 1.369 . S
C27 H7 0.945 . S
C27 C22 1.385 . S
C27 C26 1.369 . S
C28 C20 1.457 . S
C28 C29 1.372 1_554 S
C28 C33 1.364 . S
C29 H8 0.952 . S
C29 C28 1.372 1_556 S
C29 C30 1.389 . S
C30 H9 0.949 . S
C30 C29 1.389 . S
C30 C31 1.387 . S
C31 C30 1.387 . S
C31 C32 1.372 . S
C32 H10 0.950 . S
C32 C31 1.372 . S
C32 C33 1.379 1_556 S
C33 H11 0.948 . S
C33 C28 1.364 . S
C33 C32 1.379 1_554 S
C34 C3 1.383 . S
C34 C21 1.479 . S
C34 C35 1.398 . S
C35 C0 1.382 . S
C35 H12 0.951 . S
C35 C34 1.398 . S
C36 C37 1.384 . S
C36 H49 0.947 . S
C36 C71 1.382 . S
C37 C36 1.384 . S
C37 C38 1.378 . S
C38 C37 1.378 . S
C38 C39 1.378 . S
C38 H50 0.952 . S
C39 C38 1.378 . S
C39 H51 0.950 . S
C39 C70 1.383 . S
H40 C59 0.947 . S
H41 C60 0.946 . S
H42 C62 0.953 . S
H43 C63 0.945 . S
H44 C65 0.952 . S
H45 C66 0.949 . S
H46 C68 0.950 . S
H47 C69 0.948 . S
H48 C71 0.951 . S
H49 C36 0.947 . S
H50 C38 0.952 . S
H51 C39 0.950 . S
N52 C55 1.382 . S
N52 C57 1.363 . S
N53 C55 1.371 . S
N53 C56 1.372 . S
N54 C56 1.361 . S
N54 C57 1.377 . S
C55 N52 1.382 . S
C55 N53 1.371 . S
C55 C58 1.480 . S
C56 N53 1.372 . S
C56 N54 1.361 . S
C56 C64 1.457 . S
C57 N52 1.363 . S
C57 N54 1.377 . S
C57 C70 1.479 . S
C58 C55 1.480 . S
C58 C59 1.383 . S
C58 C63 1.385 . S
C59 H40 0.947 . S
C59 C58 1.383 . S
C59 C60 1.388 . S
C60 H41 0.946 . S
C60 C59 1.388 . S
C60 C61 1.384 . S
C61 C60 1.384 . S
C61 C62 1.377 . S
C62 H42 0.953 . S
C62 C61 1.377 . S
C62 C63 1.369 . S
C63 H43 0.945 . S
C63 C58 1.385 . S
C63 C62 1.369 . S
C64 C56 1.457 . S
C64 C65 1.372 . S
C64 C69 1.364 . S
C65 H44 0.952 . S
C65 C64 1.372 . S
C65 C66 1.389 . S
C66 H45 0.949 . S
C66 C65 1.389 . S
C66 C67 1.387 . S
C67 C66 1.387 . S
C67 C68 1.372 . S
C68 H46 0.950 . S
C68 C67 1.372 . S
C68 C69 1.379 . S
C69 H47 0.948 . S
C69 C64 1.364 . S
C69 C68 1.379 . S
C70 C39 1.383 . S
C70 C57 1.479 . S
C70 C71 1.398 . S
C71 C36 1.382 . S
C71 H48 0.951 . S
C71 C70 1.398 . S
C72 C73 1.384 . S
C72 H85 0.947 . S
C72 C107 1.382 . S
C73 C72 1.384 . S
C73 C74 1.378 . S
C74 C73 1.378 . S
C74 C75 1.378 . S
C74 H86 0.952 . S
C75 C74 1.378 . S
C75 H87 0.950 . S
C75 C106 1.383 . S
H76 C95 0.947 . S
H77 C96 0.946 . S
H78 C98 0.953 . S
H79 C99 0.945 . S
H80 C101 0.952 . S
H81 C102 0.949 . S
H82 C104 0.950 . S
H83 C105 0.948 . S
H84 C107 0.951 . S
H85 C72 0.947 . S
H86 C74 0.952 . S
H87 C75 0.950 . S
N88 C91 1.357 1_556 S
N88 C93 1.363 . S
N89 C91 1.395 . S
N89 C92 1.372 . S
N90 C92 1.361 . S
N90 C93 1.377 1_554 S
C91 N88 1.357 1_554 S
C91 N89 1.395 . S
C91 C94 1.482 1_554 S
C92 N89 1.372 . S
C92 N90 1.361 . S
C92 C100 1.457 . S
C93 N88 1.363 . S
C93 N90 1.377 1_556 S
C93 C106 1.479 . S
C94 C91 1.482 1_556 S
C94 C95 1.383 . S
C94 C99 1.385 1_556 S
C95 H76 0.947 . S
C95 C94 1.383 . S
C95 C96 1.388 . S
C96 H77 0.946 . S
C96 C95 1.388 . S
C96 C97 1.384 . S
C97 C96 1.384 . S
C97 C98 1.377 1_556 S
C98 H78 0.953 . S
C98 C97 1.377 1_554 S
C98 C99 1.369 . S
C99 H79 0.945 . S
C99 C94 1.385 1_554 S
C99 C98 1.369 . S
C100 C92 1.457 . S
C100 C101 1.372 . S
C100 C105 1.364 . S
C101 H80 0.952 . S
C101 C100 1.372 . S
C101 C102 1.389 . S
C102 H81 0.949 . S
C102 C101 1.389 . S
C102 C103 1.387 . S
C103 C102 1.387 . S
C103 C104 1.372 . S
C104 H82 0.950 . S
C104 C103 1.372 . S
C104 C105 1.379 . S
C105 H83 0.948 . S
C105 C100 1.364 . S
C105 C104 1.379 . S
C106 C75 1.383 . S
C106 C93 1.479 . S
C106 C107 1.398 . S
C107 C72 1.382 . S
C107 H84 0.951 . S
C107 C106 1.398 . S
C108 C109 1.384 . S
C108 H121 0.947 . S
C108 C143 1.382 . S
C109 C108 1.384 . S
C109 C110 1.378 . S
C110 C109 1.378 . S
C110 C111 1.378 . S
C110 H122 0.952 . S
C111 C110 1.378 . S
C111 H123 0.950 . S
C111 C142 1.383 . S
H112 C131 0.947 . S
H113 C132 0.946 . S
H114 C134 0.953 . S
H115 C135 0.945 . S
H116 C137 0.952 . S
H117 C138 0.949 . S
H118 C140 0.950 . S
H119 C141 0.948 . S
H120 C143 0.951 . S
H121 C108 0.947 . S
H122 C110 0.952 . S
H123 C111 0.950 . S
N124 C127 1.382 . S
N124 C129 1.363 . S
N125 C127 1.371 . S
N125 C128 1.372 . S
N126 C128 1.361 . S
N126 C129 1.377 . S
C127 N124 1.382 . S
C127 N125 1.371 . S
C127 C130 1.480 . S
C128 N125 1.372 . S
C128 N126 1.361 . S
C128 C136 1.457 . S
C129 N124 1.363 . S
C129 N126 1.377 . S
C129 C142 1.479 . S
C130 C127 1.480 . S
C130 C131 1.383 . S
C130 C135 1.385 . S
C131 H112 0.947 . S
C131 C130 1.383 . S
C131 C132 1.388 . S
C132 H113 0.946 . S
C132 C131 1.388 . S
C132 C133 1.384 . S
C133 C132 1.384 . S
C133 C134 1.377 . S
C134 H114 0.953 . S
C134 C133 1.377 . S
C134 C135 1.369 . S
C135 H115 0.945 . S
C135 C130 1.385 . S
C135 C134 1.369 . S
C136 C128 1.457 . S
C136 C137 1.372 . S
C136 C141 1.364 . S
C137 H116 0.952 . S
C137 C136 1.372 . S
C137 C138 1.389 . S
C138 H117 0.949 . S
C138 C137 1.389 . S
C138 C139 1.387 . S
C139 C138 1.387 . S
C139 C140 1.372 . S
C140 H118 0.950 . S
C140 C139 1.372 . S
C140 C141 1.379 . S
C141 H119 0.948 . S
C141 C136 1.364 . S
C141 C140 1.379 . S
C142 C111 1.383 . S
C142 C129 1.479 . S
C142 C143 1.398 . S
C143 C108 1.382 . S
C143 H120 0.951 . S
C143 C142 1.398 . S
O144 Mg145 1.990 1_655 S
O144 C158 1.253 . S
Mg145 O144 1.990 1_455 S
Mg145 O148 2.180 . S
Mg145 O149 2.117 . S
Mg145 O163 2.030 . S
O146 Mg147 2.072 1_655 S
O146 C158 1.260 . S
Mg147 O146 2.072 1_455 S
Mg147 O148 2.099 . S
Mg147 O150 2.065 1_545 S
Mg147 O151 2.072 1_455 S
Mg147 O153 2.099 1_445 S
Mg147 O164 2.079 1_545 S
O148 Mg145 2.180 . S
O148 Mg147 2.099 . S
O148 C159 1.279 . S
O149 Mg145 2.117 . S
O149 C159 1.250 . S
O150 Mg147 2.065 1_565 S
O150 C160 1.280 . S
O151 Mg147 2.072 1_655 S
O151 C161 1.260 . S
Mg152 O153 2.180 . S
Mg152 O154 2.030 1_655 S
Mg152 O155 1.990 1_565 S
Mg152 O156 2.117 . S
O153 Mg147 2.099 1_665 S
O153 Mg152 2.180 . S
O153 C162 1.279 . S
O154 Mg152 2.030 1_455 S
O154 C160 1.248 . S
O155 Mg152 1.990 1_545 S
O155 C161 1.253 . S
O156 Mg152 2.117 . S
O156 C162 1.250 . S
C157 O163 1.232 1_565 S
C157 O164 1.268 . S
C158 O144 1.253 . S
C158 O146 1.260 . S
C159 O148 1.279 . S
C159 O149 1.250 . S
C160 O150 1.280 . S
C160 O154 1.248 . S
C161 O151 1.260 . S
C161 O155 1.253 . S
C162 O153 1.279 . S
C162 O156 1.250 . S
O163 Mg145 2.030 . S
O163 C157 1.232 1_545 S
O164 Mg147 2.079 1_565 S
O164 C157 1.268 . S
O165 Mg166 1.990 . S
O165 C179 1.253 . S
Mg166 O165 1.990 . S
Mg166 O169 2.180 . S
Mg166 O170 2.117 . S
Mg166 O184 2.030 . S
O167 Mg168 2.072 . S
O167 C179 1.260 . S
Mg168 O167 2.072 . S
Mg168 O169 2.099 . S
Mg168 O171 2.079 1_554 S
Mg168 O172 2.072 . S
Mg168 O174 2.099 . S
Mg168 O185 2.079 . S
O169 Mg166 2.180 . S
O169 Mg168 2.099 . S
O169 C180 1.279 . S
O170 Mg166 2.117 . S
O170 C180 1.250 . S
O171 Mg168 2.079 1_556 S
O171 C181 1.264 . S
O172 Mg168 2.072 . S
O172 C182 1.260 1_554 S
Mg173 O174 2.180 1_556 S
Mg173 O175 2.030 . S
Mg173 O176 1.990 . S
Mg173 O177 2.117 1_556 S
O174 Mg168 2.099 . S
O174 Mg173 2.180 1_554 S
O174 C183 1.279 . S
O175 Mg173 2.030 . S
O175 C181 1.248 . S
O176 Mg173 1.990 . S
O176 C182 1.253 . S
O177 Mg173 2.117 1_554 S
O177 C183 1.250 . S
C178 O184 1.248 . S
C178 O185 1.264 . S
C179 O165 1.253 . S
C179 O167 1.260 . S
C180 O169 1.279 . S
C180 O170 1.250 . S
C181 O171 1.264 . S
C181 O175 1.248 . S
C182 O172 1.260 1_556 S
C182 O176 1.253 . S
C183 O174 1.279 . S
C183 O177 1.250 . S
O184 Mg166 2.030 . S
O184 C178 1.248 . S
O185 Mg168 2.079 . S
O185 C178 1.264 . S
H186 C204 0.951 . S
H187 C206 0.951 . S
H188 C208 0.950 . S
H189 C209 0.950 . S
H190 C211 0.950 . S
H191 C214 0.950 . S
H192 C215 0.950 . S
H193 C217 0.959 . S
H194 C218 0.950 . S
H195 C219 0.951 . S
H196 C221 0.951 . S
H197 C223 0.950 . S
H198 C224 0.950 . S
H199 C226 0.950 . S
H200 C229 0.950 . S
H201 C230 0.950 . S
H202 C232 0.950 . S
H203 C233 0.950 . S
C204 H186 0.951 . S
C204 C205 1.366 . S
C204 C206 1.388 . S
C205 C204 1.366 . S
C205 C209 1.385 . S
C206 H187 0.951 . S
C206 C204 1.388 . S
C206 C207 1.366 . S
C207 C206 1.366 . S
C207 C208 1.414 . S
C207 C210 1.499 . S
C208 H188 0.950 . S
C208 C207 1.414 . S
C208 C209 1.374 . S
C209 H189 0.950 . S
C209 C205 1.385 . S
C209 C208 1.374 . S
C210 C207 1.499 . S
C210 C211 1.373 . S
C210 C212 1.389 . S
C211 H190 0.950 . S
C211 C210 1.373 . S
C211 C227 1.377 . S
C212 C210 1.389 . S
C212 C213 1.524 . S
C212 C226 1.377 . S
C213 C212 1.524 . S
C213 C214 1.397 . S
C213 C218 1.363 . S
C214 H191 0.950 . S
C214 C213 1.397 . S
C214 C215 1.334 . S
C215 H192 0.950 . S
C215 C214 1.334 . S
C215 C216 1.287 . S
C216 C215 1.287 . S
C216 C217 1.524 . S
C216 H235 0.913 1_455 S
C217 H193 0.959 . S
C217 C216 1.524 . S
C217 C218 1.415 . S
C218 H194 0.950 . S
C218 C213 1.363 . S
C218 C217 1.415 . S
C219 H195 0.951 . S
C219 C220 1.366 . S
C219 C221 1.388 . S
C220 C219 1.366 . S
C220 C224 1.385 . S
C221 H196 0.951 . S
C221 C219 1.388 . S
C221 C222 1.366 . S
C222 C221 1.366 . S
C222 C223 1.414 . S
C222 C225 1.499 . S
C223 H197 0.950 . S
C223 C222 1.414 . S
C223 C224 1.374 . S
C224 H198 0.950 . S
C224 C220 1.385 . S
C224 C223 1.374 . S
C225 C222 1.499 . S
C225 C226 1.373 . S
C225 C227 1.389 . S
C226 H199 0.950 . S
C226 C212 1.377 . S
C226 C225 1.373 . S
C227 C211 1.377 . S
C227 C225 1.389 . S
C227 C228 1.524 . S
C228 C227 1.524 . S
C228 C229 1.397 . S
C228 C233 1.363 . S
C229 H200 0.950 . S
C229 C228 1.397 . S
C229 C230 1.334 . S
C230 H201 0.950 . S
C230 C229 1.334 . S
C230 C231 1.287 . S
C231 C230 1.287 . S
C231 C232 1.524 . S
C231 H234 0.999 . S
C232 H202 0.950 . S
C232 C231 1.524 . S
C232 C233 1.415 . S
C233 H203 0.950 . S
C233 C228 1.363 . S
C233 C232 1.415 . S
H234 C231 0.999 . S
H235 C216 0.913 1_655 S
H236 C254 0.951 . S
H237 C256 0.951 . S
H238 C258 0.950 . S
H239 C259 0.950 . S
H240 C261 0.950 . S
H241 C264 0.950 1_554 S
H242 C265 0.950 . S
H243 C267 0.950 . S
H244 C268 0.950 1_554 S
H245 C269 0.951 . S
H246 C271 0.951 . S
H247 C273 0.950 . S
H248 C274 0.950 . S
H249 C276 0.950 . S
H250 C279 0.950 . S
H251 C280 0.950 . S
H252 C282 0.950 . S
H253 C283 0.950 . S
C254 H236 0.951 . S
C254 C255 1.366 . S
C254 C256 1.388 . S
C255 C254 1.366 . S
C255 C259 1.385 . S
C256 H237 0.951 . S
C256 C254 1.388 . S
C256 C257 1.366 . S
C257 C256 1.366 . S
C257 C258 1.414 . S
C257 C260 1.499 . S
C258 H238 0.950 . S
C258 C257 1.414 . S
C258 C259 1.374 . S
C259 H239 0.950 . S
C259 C255 1.385 . S
C259 C258 1.374 . S
C260 C257 1.499 . S
C260 C261 1.373 . S
C260 C262 1.389 . S
C261 H240 0.950 . S
C261 C260 1.373 . S
C261 C277 1.377 . S
C262 C260 1.389 . S
C262 C263 1.524 . S
C262 C276 1.377 . S
C263 C262 1.524 . S
C263 C264 1.397 1_554 S
C263 C268 1.363 1_554 S
C264 H241 0.950 1_556 S
C264 C263 1.397 1_556 S
C264 C265 1.334 . S
C265 H242 0.950 . S
C265 C264 1.334 . S
C265 C266 1.287 . S
C266 C265 1.287 . S
C266 C267 1.524 . S
C266 H285 0.913 . S
C267 H243 0.950 . S
C267 C266 1.524 . S
C267 C268 1.415 . S
C268 H244 0.950 1_556 S
C268 C263 1.363 1_556 S
C268 C267 1.415 . S
C269 H245 0.951 . S
C269 C270 1.366 . S
C269 C271 1.388 . S
C270 C269 1.366 . S
C270 C274 1.385 . S
C271 H246 0.951 . S
C271 C269 1.388 . S
C271 C272 1.366 . S
C272 C271 1.366 . S
C272 C273 1.414 . S
C272 C275 1.499 . S
C273 H247 0.950 . S
C273 C272 1.414 . S
C273 C274 1.374 . S
C274 H248 0.950 . S
C274 C270 1.385 . S
C274 C273 1.374 . S
C275 C272 1.499 . S
C275 C276 1.373 . S
C275 C277 1.389 . S
C276 H249 0.950 . S
C276 C262 1.377 . S
C276 C275 1.373 . S
C277 C261 1.377 . S
C277 C275 1.389 . S
C277 C278 1.524 . S
C278 C277 1.524 . S
C278 C279 1.397 . S
C278 C283 1.363 . S
C279 H250 0.950 . S
C279 C278 1.397 . S
C279 C280 1.334 . S
C280 H251 0.950 . S
C280 C279 1.334 . S
C280 C281 1.287 . S
C281 C280 1.287 . S
C281 C282 1.524 . S
C281 H284 0.999 . S
C282 H252 0.950 . S
C282 C281 1.524 . S
C282 C283 1.415 . S
C283 H253 0.950 . S
C283 C278 1.363 . S
C283 C282 1.415 . S
H284 C281 0.999 . S
H285 C266 0.913 . S
H286 C304 0.951 . S
H287 C306 0.951 . S
H288 C308 0.950 . S
H289 C309 0.950 . S
H290 C311 0.950 . S
H291 C314 0.950 . S
H292 C315 0.950 . S
H293 C317 0.950 . S
H294 C318 0.950 . S
H295 C319 0.951 . S
H296 C321 0.951 . S
H297 C323 0.950 . S
H298 C324 0.950 . S
H299 C326 0.950 . S
H300 C329 0.950 . S
H301 C330 0.950 . S
H302 C332 0.950 . S
H303 C333 0.950 . S
C304 H286 0.951 . S
C304 C305 1.366 . S
C304 C306 1.388 . S
C305 C304 1.366 . S
C305 C309 1.385 . S
C306 H287 0.951 . S
C306 C304 1.388 . S
C306 C307 1.366 . S
C307 C306 1.366 . S
C307 C308 1.414 . S
C307 C310 1.499 . S
C308 H288 0.950 . S
C308 C307 1.414 . S
C308 C309 1.374 . S
C309 H289 0.950 . S
C309 C305 1.385 . S
C309 C308 1.374 . S
C310 C307 1.499 . S
C310 C311 1.373 . S
C310 C312 1.389 . S
C311 H290 0.950 . S
C311 C310 1.373 . S
C311 C327 1.377 . S
C312 C310 1.389 . S
C312 C313 1.524 . S
C312 C326 1.377 . S
C313 C312 1.524 . S
C313 C314 1.397 . S
C313 C318 1.363 . S
C314 H291 0.950 . S
C314 C313 1.397 . S
C314 C315 1.334 . S
C315 H292 0.950 . S
C315 C314 1.334 . S
C315 C316 1.287 . S
C316 C315 1.287 . S
C316 C317 1.524 . S
C316 H335 0.913 . S
C317 H293 0.950 . S
C317 C316 1.524 . S
C317 C318 1.415 . S
C318 H294 0.950 . S
C318 C313 1.363 . S
C318 C317 1.415 . S
C319 H295 0.951 . S
C319 C320 1.366 . S
C319 C321 1.388 . S
C320 C319 1.366 . S
C320 C324 1.385 . S
C321 H296 0.951 . S
C321 C319 1.388 . S
C321 C322 1.366 . S
C322 C321 1.366 . S
C322 C323 1.414 . S
C322 C325 1.499 . S
C323 H297 0.950 . S
C323 C322 1.414 . S
C323 C324 1.374 . S
C324 H298 0.950 . S
C324 C320 1.385 . S
C324 C323 1.374 . S
C325 C322 1.499 . S
C325 C326 1.373 . S
C325 C327 1.389 . S
C326 H299 0.950 . S
C326 C312 1.377 . S
C326 C325 1.373 . S
C327 C311 1.377 . S
C327 C325 1.389 . S
C327 C328 1.524 . S
C328 C327 1.524 . S
C328 C329 1.397 . S
C328 C333 1.363 . S
C329 H300 0.950 . S
C329 C328 1.397 . S
C329 C330 1.334 . S
C330 H301 0.950 . S
C330 C329 1.334 . S
C330 C331 1.287 . S
C331 C330 1.287 . S
C331 C332 1.524 . S
C331 H334 0.999 . S
C332 H302 0.950 . S
C332 C331 1.524 . S
C332 C333 1.415 . S
C333 H303 0.950 . S
C333 C328 1.363 . S
C333 C332 1.415 . S
H334 C331 0.999 . S
H335 C316 0.913 . S
H336 C354 0.951 . S
H337 C356 0.951 . S
H338 C358 0.950 . S
H339 C359 0.950 . S
H340 C361 0.950 . S
H341 C364 0.950 . S
H342 C365 0.950 . S
H343 C367 0.950 . S
H344 C368 0.950 . S
H345 C369 0.951 . S
H346 C371 0.951 . S
H347 C373 0.950 . S
H348 C374 0.950 . S
H349 C376 0.950 . S
H350 C379 0.950 . S
H351 C380 0.950 . S
H352 C382 0.950 . S
H353 C383 0.950 . S
C354 H336 0.951 . S
C354 C355 1.366 . S
C354 C356 1.388 . S
C355 C354 1.366 . S
C355 C359 1.385 1_556 S
C356 H337 0.951 . S
C356 C354 1.388 . S
C356 C357 1.366 1_556 S
C357 C356 1.366 1_554 S
C357 C358 1.414 . S
C357 C360 1.499 . S
C358 H338 0.950 . S
C358 C357 1.414 . S
C358 C359 1.374 . S
C359 H339 0.950 . S
C359 C355 1.385 1_554 S
C359 C358 1.374 . S
C360 C357 1.499 . S
C360 C361 1.373 . S
C360 C362 1.389 1_554 S
C361 H340 0.950 . S
C361 C360 1.373 . S
C361 C377 1.377 . S
C362 C360 1.389 1_556 S
C362 C363 1.524 . S
C362 C376 1.377 . S
C363 C362 1.524 . S
C363 C364 1.397 . S
C363 C368 1.363 . S
C364 H341 0.950 . S
C364 C363 1.397 . S
C364 C365 1.334 . S
C365 H342 0.950 . S
C365 C364 1.334 . S
C365 C366 1.287 . S
C366 C365 1.287 . S
C366 C367 1.524 . S
C366 H385 0.913 . S
C367 H343 0.950 . S
C367 C366 1.524 . S
C367 C368 1.415 . S
C368 H344 0.950 . S
C368 C363 1.363 . S
C368 C367 1.415 . S
C369 H345 0.951 . S
C369 C370 1.366 . S
C369 C371 1.388 . S
C370 C369 1.366 . S
C370 C374 1.385 1_554 S
C371 H346 0.951 . S
C371 C369 1.388 . S
C371 C372 1.366 . S
C372 C371 1.366 . S
C372 C373 1.414 1_554 S
C372 C375 1.499 . S
C373 H347 0.950 . S
C373 C372 1.414 1_556 S
C373 C374 1.374 . S
C374 H348 0.950 . S
C374 C370 1.385 1_556 S
C374 C373 1.374 . S
C375 C372 1.499 . S
C375 C376 1.373 1_554 S
C375 C377 1.389 . S
C376 H349 0.950 . S
C376 C362 1.377 . S
C376 C375 1.373 1_556 S
C377 C361 1.377 . S
C377 C375 1.389 . S
C377 C378 1.524 . S
C378 C377 1.524 . S
C378 C379 1.397 . S
C378 C383 1.363 . S
C379 H350 0.950 . S
C379 C378 1.397 . S
C379 C380 1.334 . S
C380 H351 0.950 . S
C380 C379 1.334 . S
C380 C381 1.287 . S
C381 C380 1.287 . S
C381 C382 1.524 . S
C381 H384 0.999 . S
C382 H352 0.950 . S
C382 C381 1.524 . S
C382 C383 1.415 . S
C383 H353 0.950 . S
C383 C378 1.363 . S
C383 C382 1.415 . S
H384 C381 0.999 . S
H385 C366 0.913 . S
H386 C404 0.951 . S
H387 C406 0.951 . S
H388 C408 0.950 . S
H389 C409 0.950 . S
H390 C411 0.950 . S
H391 C414 0.950 . S
H392 C415 0.950 . S
H393 C417 0.950 . S
H394 C418 0.950 . S
H395 C419 0.951 . S
H396 C421 0.951 . S
H397 C423 0.950 . S
H398 C424 0.950 . S
H399 C426 0.950 . S
H400 C429 0.950 . S
H401 C430 0.950 . S
H402 C432 0.950 . S
H403 C433 0.950 . S
C404 H386 0.951 . S
C404 C405 1.366 . S
C404 C406 1.388 . S
C405 C404 1.366 . S
C405 C409 1.385 . S
C406 H387 0.951 . S
C406 C404 1.388 . S
C406 C407 1.366 . S
C407 C406 1.366 . S
C407 C408 1.414 . S
C407 C410 1.499 . S
C408 H388 0.950 . S
C408 C407 1.414 . S
C408 C409 1.374 . S
C409 H389 0.950 . S
C409 C405 1.385 . S
C409 C408 1.374 . S
C410 C407 1.499 . S
C410 C411 1.373 . S
C410 C412 1.389 . S
C411 H390 0.950 . S
C411 C410 1.373 . S
C411 C427 1.377 . S
C412 C410 1.389 . S
C412 C413 1.524 . S
C412 C426 1.377 . S
C413 C412 1.524 . S
C413 C414 1.397 . S
C413 C418 1.363 . S
C414 H391 0.950 . S
C414 C413 1.397 . S
C414 C415 1.334 . S
C415 H392 0.950 . S
C415 C414 1.334 . S
C415 C416 1.287 . S
C416 C415 1.287 . S
C416 C417 1.524 . S
C416 H435 0.913 . S
C417 H393 0.950 . S
C417 C416 1.524 . S
C417 C418 1.415 . S
C418 H394 0.950 . S
C418 C413 1.363 . S
C418 C417 1.415 . S
C419 H395 0.951 . S
C419 C420 1.366 . S
C419 C421 1.388 . S
C420 C419 1.366 . S
C420 C424 1.385 . S
C421 H396 0.951 . S
C421 C419 1.388 . S
C421 C422 1.366 . S
C422 C421 1.366 . S
C422 C423 1.414 . S
C422 C425 1.499 . S
C423 H397 0.950 . S
C423 C422 1.414 . S
C423 C424 1.374 . S
C424 H398 0.950 . S
C424 C420 1.385 . S
C424 C423 1.374 . S
C425 C422 1.499 . S
C425 C426 1.373 . S
C425 C427 1.389 . S
C426 H399 0.950 . S
C426 C412 1.377 . S
C426 C425 1.373 . S
C427 C411 1.377 . S
C427 C425 1.389 . S
C427 C428 1.524 1_565 S
C428 C427 1.524 1_545 S
C428 C429 1.397 . S
C428 C433 1.363 . S
C429 H400 0.950 . S
C429 C428 1.397 . S
C429 C430 1.334 . S
C430 H401 0.950 . S
C430 C429 1.334 . S
C430 C431 1.287 . S
C431 C430 1.287 . S
C431 C432 1.524 . S
C431 H434 0.999 . S
C432 H402 0.950 . S
C432 C431 1.524 . S
C432 C433 1.415 . S
C433 H403 0.950 . S
C433 C428 1.363 . S
C433 C432 1.415 . S
H434 C431 0.999 . S
H435 C416 0.913 . S
H436 C454 0.951 . S
H437 C456 0.951 . S
H438 C458 0.950 . S
H439 C459 0.950 . S
H440 C461 0.950 . S
H441 C464 0.950 . S
H442 C465 0.950 . S
H443 C467 0.950 . S
H444 C468 0.950 . S
H445 C469 0.951 . S
H446 C471 0.951 . S
H447 C473 0.950 . S
H448 C474 0.950 . S
H449 C476 0.950 . S
H450 C479 0.950 . S
H451 C480 0.950 . S
H452 C482 0.950 . S
H453 C483 0.950 . S
C454 H436 0.951 . S
C454 C455 1.366 . S
C454 C456 1.388 . S
C455 C454 1.366 . S
C455 C459 1.385 . S
C456 H437 0.951 . S
C456 C454 1.388 . S
C456 C457 1.366 . S
C457 C456 1.366 . S
C457 C458 1.414 . S
C457 C460 1.499 . S
C458 H438 0.950 . S
C458 C457 1.414 . S
C458 C459 1.374 . S
C459 H439 0.950 . S
C459 C455 1.385 . S
C459 C458 1.374 . S
C460 C457 1.499 . S
C460 C461 1.373 . S
C460 C462 1.389 . S
C461 H440 0.950 . S
C461 C460 1.373 . S
C461 C477 1.377 . S
C462 C460 1.389 . S
C462 C463 1.524 . S
C462 C476 1.377 . S
C463 C462 1.524 . S
C463 C464 1.397 . S
C463 C468 1.363 . S
C464 H441 0.950 . S
C464 C463 1.397 . S
C464 C465 1.334 . S
C465 H442 0.950 . S
C465 C464 1.334 . S
C465 C466 1.287 . S
C466 C465 1.287 . S
C466 C467 1.524 . S
C466 H485 0.913 . S
C467 H443 0.950 . S
C467 C466 1.524 . S
C467 C468 1.415 . S
C468 H444 0.950 . S
C468 C463 1.363 . S
C468 C467 1.415 . S
C469 H445 0.951 . S
C469 C470 1.366 . S
C469 C471 1.388 . S
C470 C469 1.366 . S
C470 C474 1.385 . S
C471 H446 0.951 . S
C471 C469 1.388 . S
C471 C472 1.366 . S
C472 C471 1.366 . S
C472 C473 1.414 . S
C472 C475 1.499 . S
C473 H447 0.950 . S
C473 C472 1.414 . S
C473 C474 1.374 . S
C474 H448 0.950 . S
C474 C470 1.385 . S
C474 C473 1.374 . S
C475 C472 1.499 . S
C475 C476 1.373 . S
C475 C477 1.389 . S
C476 H449 0.950 . S
C476 C462 1.377 . S
C476 C475 1.373 . S
C477 C461 1.377 . S
C477 C475 1.389 . S
C477 C478 1.524 . S
C478 C477 1.524 . S
C478 C479 1.397 . S
C478 C483 1.363 . S
C479 H450 0.950 . S
C479 C478 1.397 . S
C479 C480 1.334 . S
C480 H451 0.950 . S
C480 C479 1.334 . S
C480 C481 1.287 . S
C481 C480 1.287 . S
C481 C482 1.524 . S
C481 H484 0.999 . S
C482 H452 0.950 . S
C482 C481 1.524 . S
C482 C483 1.415 . S
C483 H453 0.950 . S
C483 C478 1.363 . S
C483 C482 1.415 . S
H484 C481 0.999 . S
H485 C466 0.913 . S
H486 C504 0.951 . S
H487 C506 0.951 . S
H488 C508 0.950 . S
H489 C509 0.950 . S
H490 C511 0.950 . S
H491 C514 0.950 . S
H492 C515 0.950 . S
H493 C517 0.950 . S
H494 C518 0.950 . S
H495 C519 0.951 . S
H496 C521 0.951 . S
H497 C523 0.950 . S
H498 C524 0.950 . S
H499 C526 0.950 . S
H500 C529 0.950 . S
H501 C530 0.950 . S
H502 C532 0.950 . S
H503 C533 0.950 . S
C504 H486 0.951 . S
C504 C505 1.366 . S
C504 C506 1.388 . S
C505 C504 1.366 . S
C505 C509 1.385 . S
C506 H487 0.951 . S
C506 C504 1.388 . S
C506 C507 1.366 . S
C507 C506 1.366 . S
C507 C508 1.414 . S
C507 C510 1.499 . S
C508 H488 0.950 . S
C508 C507 1.414 . S
C508 C509 1.374 . S
C509 H489 0.950 . S
C509 C505 1.385 . S
C509 C508 1.374 . S
C510 C507 1.499 . S
C510 C511 1.373 . S
C510 C512 1.389 . S
C511 H490 0.950 . S
C511 C510 1.373 . S
C511 C527 1.377 . S
C512 C510 1.389 . S
C512 C513 1.524 . S
C512 C526 1.377 . S
C513 C512 1.524 . S
C513 C514 1.397 . S
C513 C518 1.363 . S
C514 H491 0.950 . S
C514 C513 1.397 . S
C514 C515 1.334 . S
C515 H492 0.950 . S
C515 C514 1.334 . S
C515 C516 1.287 . S
C516 C515 1.287 . S
C516 C517 1.524 . S
C516 H535 0.913 . S
C517 H493 0.950 . S
C517 C516 1.524 . S
C517 C518 1.415 . S
C518 H494 0.950 . S
C518 C513 1.363 . S
C518 C517 1.415 . S
C519 H495 0.951 . S
C519 C520 1.366 . S
C519 C521 1.388 . S
C520 C519 1.366 . S
C520 C524 1.385 . S
C521 H496 0.951 . S
C521 C519 1.388 . S
C521 C522 1.366 . S
C522 C521 1.366 . S
C522 C523 1.414 . S
C522 C525 1.499 . S
C523 H497 0.950 . S
C523 C522 1.414 . S
C523 C524 1.374 . S
C524 H498 0.950 . S
C524 C520 1.385 . S
C524 C523 1.374 . S
C525 C522 1.499 . S
C525 C526 1.373 . S
C525 C527 1.389 . S
C526 H499 0.950 . S
C526 C512 1.377 . S
C526 C525 1.373 . S
C527 C511 1.377 . S
C527 C525 1.389 . S
C527 C528 1.524 . S
C528 C527 1.524 . S
C528 C529 1.397 . S
C528 C533 1.363 1_545 S
C529 H500 0.950 . S
C529 C528 1.397 . S
C529 C530 1.334 1_545 S
C530 H501 0.950 . S
C530 C529 1.334 1_565 S
C530 C531 1.287 . S
C531 C530 1.287 . S
C531 C532 1.524 . S
C531 H534 0.999 . S
C532 H502 0.950 . S
C532 C531 1.524 . S
C532 C533 1.415 . S
C533 H503 0.950 . S
C533 C528 1.363 1_565 S
C533 C532 1.415 . S
H534 C531 0.999 . S
H535 C516 0.913 . S
H536 C554 0.951 . S
H537 C556 0.951 . S
H538 C558 0.950 . S
H539 C559 0.950 . S
H540 C561 0.950 . S
H541 C564 0.950 . S
H542 C565 0.950 . S
H543 C567 0.950 . S
H544 C568 0.950 . S
H545 C569 0.951 . S
H546 C571 0.951 . S
H547 C573 0.950 . S
H548 C574 0.950 . S
H549 C576 0.950 . S
H550 C579 0.950 . S
H551 C580 0.950 . S
H552 C582 0.950 . S
H553 C583 0.950 . S
C554 H536 0.951 . S
C554 C555 1.366 . S
C554 C556 1.388 . S
C555 C554 1.366 . S
C555 C559 1.385 . S
C556 H537 0.951 . S
C556 C554 1.388 . S
C556 C557 1.366 . S
C557 C556 1.366 . S
C557 C558 1.414 . S
C557 C560 1.499 . S
C558 H538 0.950 . S
C558 C557 1.414 . S
C558 C559 1.374 . S
C559 H539 0.950 . S
C559 C555 1.385 . S
C559 C558 1.374 . S
C560 C557 1.499 . S
C560 C561 1.373 . S
C560 C562 1.389 . S
C561 H540 0.950 . S
C561 C560 1.373 . S
C561 C577 1.377 . S
C562 C560 1.389 . S
C562 C563 1.524 . S
C562 C576 1.377 . S
C563 C562 1.524 . S
C563 C564 1.397 . S
C563 C568 1.363 . S
C564 H541 0.950 . S
C564 C563 1.397 . S
C564 C565 1.334 . S
C565 H542 0.950 . S
C565 C564 1.334 . S
C565 C566 1.287 . S
C566 C565 1.287 . S
C566 C567 1.524 . S
C566 H585 0.913 . S
C567 H543 0.950 . S
C567 C566 1.524 . S
C567 C568 1.415 . S
C568 H544 0.950 . S
C568 C563 1.363 . S
C568 C567 1.415 . S
C569 H545 0.951 . S
C569 C570 1.366 . S
C569 C571 1.388 . S
C570 C569 1.366 . S
C570 C574 1.385 . S
C571 H546 0.951 . S
C571 C569 1.388 . S
C571 C572 1.366 . S
C572 C571 1.366 . S
C572 C573 1.414 . S
C572 C575 1.499 . S
C573 H547 0.950 . S
C573 C572 1.414 . S
C573 C574 1.374 . S
C574 H548 0.950 . S
C574 C570 1.385 . S
C574 C573 1.374 . S
C575 C572 1.499 . S
C575 C576 1.373 . S
C575 C577 1.389 . S
C576 H549 0.950 . S
C576 C562 1.377 . S
C576 C575 1.373 . S
C577 C561 1.377 . S
C577 C575 1.389 . S
C577 C578 1.524 . S
C578 C577 1.524 . S
C578 C579 1.397 . S
C578 C583 1.363 . S
C579 H550 0.950 . S
C579 C578 1.397 . S
C579 C580 1.334 . S
C580 H551 0.950 . S
C580 C579 1.334 . S
C580 C581 1.287 . S
C581 C580 1.287 . S
C581 C582 1.524 . S
C581 H584 0.999 . S
C582 H552 0.950 . S
C582 C581 1.524 . S
C582 C583 1.415 . S
C583 H553 0.950 . S
C583 C578 1.363 . S
C583 C582 1.415 . S
H584 C581 0.999 . S
H585 C566 0.913 . S
H586 C604 0.951 . S
H587 C606 0.951 . S
H588 C608 0.950 . S
H589 C609 0.950 . S
H590 C611 0.950 . S
H591 C614 0.950 . S
H592 C615 0.950 . S
H593 C617 0.950 . S
H594 C618 0.950 . S
H595 C619 0.951 . S
H596 C621 0.951 . S
H597 C623 0.950 . S
H598 C624 0.950 . S
H599 C626 0.950 . S
H600 C629 0.950 . S
H601 C630 0.950 . S
H602 C632 0.950 . S
H603 C633 0.950 . S
C604 H586 0.951 . S
C604 C605 1.366 . S
C604 C606 1.388 . S
C605 C604 1.366 . S
C605 C609 1.385 . S
C606 H587 0.951 . S
C606 C604 1.388 . S
C606 C607 1.366 . S
C607 C606 1.366 . S
C607 C608 1.414 . S
C607 C610 1.499 . S
C608 H588 0.950 . S
C608 C607 1.414 . S
C608 C609 1.374 . S
C609 H589 0.950 . S
C609 C605 1.385 . S
C609 C608 1.374 . S
C610 C607 1.499 . S
C610 C611 1.373 . S
C610 C612 1.389 . S
C611 H590 0.950 . S
C611 C610 1.373 . S
C611 C627 1.377 . S
C612 C610 1.389 . S
C612 C613 1.524 . S
C612 C626 1.377 . S
C613 C612 1.524 . S
C613 C614 1.397 . S
C613 C618 1.363 . S
C614 H591 0.950 . S
C614 C613 1.397 . S
C614 C615 1.334 . S
C615 H592 0.950 . S
C615 C614 1.334 . S
C615 C616 1.287 . S
C616 C615 1.287 . S
C616 C617 1.524 . S
C616 H635 0.913 . S
C617 H593 0.950 . S
C617 C616 1.524 . S
C617 C618 1.415 . S
C618 H594 0.950 . S
C618 C613 1.363 . S
C618 C617 1.415 . S
C619 H595 0.951 . S
C619 C620 1.366 . S
C619 C621 1.388 . S
C620 C619 1.366 . S
C620 C624 1.385 . S
C621 H596 0.951 . S
C621 C619 1.388 . S
C621 C622 1.366 . S
C622 C621 1.366 . S
C622 C623 1.414 . S
C622 C625 1.499 . S
C623 H597 0.950 . S
C623 C622 1.414 . S
C623 C624 1.374 . S
C624 H598 0.950 . S
C624 C620 1.385 . S
C624 C623 1.374 . S
C625 C622 1.499 . S
C625 C626 1.373 . S
C625 C627 1.389 . S
C626 H599 0.950 . S
C626 C612 1.377 . S
C626 C625 1.373 . S
C627 C611 1.377 . S
C627 C625 1.389 . S
C627 C628 1.524 . S
C628 C627 1.524 . S
C628 C629 1.397 . S
C628 C633 1.363 . S
C629 H600 0.950 . S
C629 C628 1.397 . S
C629 C630 1.334 . S
C630 H601 0.950 . S
C630 C629 1.334 . S
C630 C631 1.287 . S
C631 C630 1.287 . S
C631 C632 1.524 . S
C631 H634 0.999 . S
C632 H602 0.950 . S
C632 C631 1.524 . S
C632 C633 1.415 . S
C633 H603 0.950 . S
C633 C628 1.363 . S
C633 C632 1.415 . S
H634 C631 0.999 . S
H635 C616 0.913 . S
H636 C654 0.951 . S
H637 C656 0.951 . S
H638 C658 0.950 . S
H639 C659 0.950 . S
H640 C661 0.950 . S
H641 C664 0.950 . S
H642 C665 0.949 1_565 S
H643 C667 0.950 1_565 S
H644 C668 0.950 . S
H645 C669 0.951 . S
H646 C671 0.951 . S
H647 C673 0.950 . S
H648 C674 0.950 . S
H649 C676 0.950 . S
H650 C679 0.950 . S
H651 C680 0.950 . S
H652 C682 0.950 . S
H653 C683 0.950 . S
C654 H636 0.951 . S
C654 C655 1.366 . S
C654 C656 1.388 . S
C655 C654 1.366 . S
C655 C659 1.385 . S
C656 H637 0.951 . S
C656 C654 1.388 . S
C656 C657 1.366 . S
C657 C656 1.366 . S
C657 C658 1.414 . S
C657 C660 1.499 . S
C658 H638 0.950 . S
C658 C657 1.414 . S
C658 C659 1.374 . S
C659 H639 0.950 . S
C659 C655 1.385 . S
C659 C658 1.374 . S
C660 C657 1.499 . S
C660 C661 1.373 . S
C660 C662 1.389 . S
C661 H640 0.950 . S
C661 C660 1.373 . S
C661 C677 1.377 . S
C662 C660 1.389 . S
C662 C663 1.524 . S
C662 C676 1.377 . S
C663 C662 1.524 . S
C663 C664 1.397 . S
C663 C668 1.363 . S
C664 H641 0.950 . S
C664 C663 1.397 . S
C664 C665 1.334 . S
C665 H642 0.949 1_545 S
C665 C664 1.334 . S
C665 C666 1.287 1_545 S
C666 C665 1.287 1_565 S
C666 C667 1.524 1_565 S
C666 H685 0.913 . S
C667 H643 0.950 1_545 S
C667 C666 1.524 1_545 S
C667 C668 1.415 . S
C668 H644 0.950 . S
C668 C663 1.363 . S
C668 C667 1.415 . S
C669 H645 0.951 . S
C669 C670 1.366 . S
C669 C671 1.388 . S
C670 C669 1.366 . S
C670 C674 1.385 . S
C671 H646 0.951 . S
C671 C669 1.388 . S
C671 C672 1.366 . S
C672 C671 1.366 . S
C672 C673 1.414 . S
C672 C675 1.499 . S
C673 H647 0.950 . S
C673 C672 1.414 . S
C673 C674 1.374 . S
C674 H648 0.950 . S
C674 C670 1.385 . S
C674 C673 1.374 . S
C675 C672 1.499 . S
C675 C676 1.373 . S
C675 C677 1.389 . S
C676 H649 0.950 . S
C676 C662 1.377 . S
C676 C675 1.373 . S
C677 C661 1.377 . S
C677 C675 1.389 . S
C677 C678 1.524 . S
C678 C677 1.524 . S
C678 C679 1.397 . S
C678 C683 1.363 . S
C679 H650 0.950 . S
C679 C678 1.397 . S
C679 C680 1.334 . S
C680 H651 0.950 . S
C680 C679 1.334 . S
C680 C681 1.287 . S
C681 C680 1.287 . S
C681 C682 1.524 . S
C681 H684 0.999 . S
C682 H652 0.950 . S
C682 C681 1.524 . S
C682 C683 1.415 . S
C683 H653 0.950 . S
C683 C678 1.363 . S
C683 C682 1.415 . S
H684 C681 0.999 . S
H685 C666 0.913 . S
H686 C704 0.951 . S
H687 C706 0.951 . S
H688 C708 0.950 . S
H689 C709 0.950 . S
H690 C711 0.950 . S
H691 C714 0.950 . S
H692 C715 0.950 . S
H693 C717 0.950 . S
H694 C718 0.950 . S
H695 C719 0.951 . S
H696 C721 0.951 . S
H697 C723 0.950 . S
H698 C724 0.950 . S
H699 C726 0.950 . S
H700 C729 0.950 . S
H701 C730 0.950 . S
H702 C732 0.950 . S
H703 C733 0.950 . S
C704 H686 0.951 . S
C704 C705 1.366 . S
C704 C706 1.388 . S
C705 C704 1.366 . S
C705 C709 1.385 . S
C706 H687 0.951 . S
C706 C704 1.388 . S
C706 C707 1.366 . S
C707 C706 1.366 . S
C707 C708 1.414 . S
C707 C710 1.499 . S
C708 H688 0.950 . S
C708 C707 1.414 . S
C708 C709 1.374 . S
C709 H689 0.950 . S
C709 C705 1.385 . S
C709 C708 1.374 . S
C710 C707 1.499 . S
C710 C711 1.373 . S
C710 C712 1.389 . S
C711 H690 0.950 . S
C711 C710 1.373 . S
C711 C727 1.377 . S
C712 C710 1.389 . S
C712 C713 1.524 . S
C712 C726 1.377 . S
C713 C712 1.524 . S
C713 C714 1.397 . S
C713 C718 1.363 . S
C714 H691 0.950 . S
C714 C713 1.397 . S
C714 C715 1.334 . S
C715 H692 0.950 . S
C715 C714 1.334 . S
C715 C716 1.287 . S
C716 C715 1.287 . S
C716 C717 1.524 . S
C716 H735 0.913 . S
C717 H693 0.950 . S
C717 C716 1.524 . S
C717 C718 1.415 . S
C718 H694 0.950 . S
C718 C713 1.363 . S
C718 C717 1.415 . S
C719 H695 0.951 . S
C719 C720 1.366 . S
C719 C721 1.388 . S
C720 C719 1.366 . S
C720 C724 1.385 . S
C721 H696 0.951 . S
C721 C719 1.388 . S
C721 C722 1.366 . S
C722 C721 1.366 . S
C722 C723 1.414 . S
C722 C725 1.499 . S
C723 H697 0.950 . S
C723 C722 1.414 . S
C723 C724 1.374 . S
C724 H698 0.950 . S
C724 C720 1.385 . S
C724 C723 1.374 . S
C725 C722 1.499 . S
C725 C726 1.373 . S
C725 C727 1.389 . S
C726 H699 0.950 . S
C726 C712 1.377 . S
C726 C725 1.373 . S
C727 C711 1.377 . S
C727 C725 1.389 . S
C727 C728 1.524 . S
C728 C727 1.524 . S
C728 C729 1.397 . S
C728 C733 1.363 . S
C729 H700 0.950 . S
C729 C728 1.397 . S
C729 C730 1.334 . S
C730 H701 0.950 . S
C730 C729 1.334 . S
C730 C731 1.287 . S
C731 C730 1.287 . S
C731 C732 1.524 . S
C731 H734 0.999 . S
C732 H702 0.950 . S
C732 C731 1.524 . S
C732 C733 1.415 . S
C733 H703 0.950 . S
C733 C728 1.363 . S
C733 C732 1.415 . S
H734 C731 0.999 . S
H735 C716 0.913 . S
H736 C754 0.951 . S
H737 C756 0.951 . S
H738 C758 0.950 . S
H739 C759 0.950 . S
H740 C761 0.950 . S
H741 C764 0.950 1_565 S
H742 C765 0.950 . S
H743 C767 0.950 . S
H744 C768 0.950 . S
H745 C769 0.951 . S
H746 C771 0.951 . S
H747 C773 0.932 1_545 S
H748 C774 0.950 1_545 S
H749 C776 0.950 1_545 S
H750 C779 0.950 . S
H751 C780 0.950 . S
H752 C782 0.950 . S
H753 C783 0.950 . S
C754 H736 0.951 . S
C754 C755 1.366 . S
C754 C756 1.388 . S
C755 C754 1.366 . S
C755 C759 1.385 . S
C756 H737 0.951 . S
C756 C754 1.388 . S
C756 C757 1.366 . S
C757 C756 1.366 . S
C757 C758 1.414 . S
C757 C760 1.499 . S
C758 H738 0.950 . S
C758 C757 1.414 . S
C758 C759 1.374 . S
C759 H739 0.950 . S
C759 C755 1.385 . S
C759 C758 1.374 . S
C760 C757 1.499 . S
C760 C761 1.373 . S
C760 C762 1.389 . S
C761 H740 0.950 . S
C761 C760 1.373 . S
C761 C777 1.377 . S
C762 C760 1.389 . S
C762 C763 1.524 1_565 S
C762 C776 1.377 . S
C763 C762 1.524 1_545 S
C763 C764 1.397 . S
C763 C768 1.363 . S
C764 H741 0.950 1_545 S
C764 C763 1.397 . S
C764 C765 1.334 . S
C765 H742 0.950 . S
C765 C764 1.334 . S
C765 C766 1.287 . S
C766 C765 1.287 . S
C766 C767 1.524 . S
C766 H785 0.913 . S
C767 H743 0.950 . S
C767 C766 1.524 . S
C767 C768 1.415 . S
C768 H744 0.950 . S
C768 C763 1.363 . S
C768 C767 1.415 . S
C769 H745 0.951 . S
C769 C770 1.366 . S
C769 C771 1.388 . S
C770 C769 1.366 . S
C770 C774 1.385 . S
C771 H746 0.951 . S
C771 C769 1.388 . S
C771 C772 1.366 . S
C772 C771 1.366 . S
C772 C773 1.414 . S
C772 C775 1.499 . S
C773 H747 0.932 1_565 S
C773 C772 1.414 . S
C773 C774 1.374 . S
C774 H748 0.950 1_565 S
C774 C770 1.385 . S
C774 C773 1.374 . S
C775 C772 1.499 . S
C775 C776 1.373 . S
C775 C777 1.389 . S
C776 H749 0.950 1_565 S
C776 C762 1.377 . S
C776 C775 1.373 . S
C777 C761 1.377 . S
C777 C775 1.389 . S
C777 C778 1.524 . S
C778 C777 1.524 . S
C778 C779 1.397 . S
C778 C783 1.363 . S
C779 H750 0.950 . S
C779 C778 1.397 . S
C779 C780 1.334 . S
C780 H751 0.950 . S
C780 C779 1.334 . S
C780 C781 1.287 . S
C781 C780 1.287 . S
C781 C782 1.524 . S
C781 H784 0.999 . S
C782 H752 0.950 . S
C782 C781 1.524 . S
C782 C783 1.415 . S
C783 H753 0.950 . S
C783 C778 1.363 . S
C783 C782 1.415 . S
H784 C781 0.999 . S
H785 C766 0.913 . S
C220 C159 1.318 . S
C205 C133 1.476 . S
C255 C25 1.503 . S
C270 C183 1.315 . S
C305 C61 1.686 . S
C320 C162 1.467 . S
C355 C97 1.646 . S
C370 C180 1.465 . S
C420 C160 1.590 . S
C405 C1 1.617 . S
C470 C182 1.561 . S
C455 C67 1.607 . S
C505 C103 1.559 . S
C520 C161 1.513 . S
C555 C109 1.572 . S
C570 C181 1.529 . S
C620 C179 1.513 . S
C605 C37 1.586 . S
C670 C158 1.562 . S
C655 C73 1.592 . S
C720 C178 1.592 . S
C705 C139 1.577 . S
C755 C31 1.602 . S
C770 C157 1.536 . S
