# Generated by pormake.
# Topology ptr, (4,4)-cn, num edge types: 1
# Building blocks:
#     Node 0, Type 0, BuildingBlock: GALJAG_clean_sbu_0, # of connection points: 4
#     Node 1, Type 0, BuildingBlock: GALJAG_clean_sbu_0, # of connection points: 4
#     Node 2, Type 0, BuildingBlock: GALJAG_clean_sbu_0, # of connection points: 4
#     Node 3, Type 0, BuildingBlock: GALJAG_clean_sbu_0, # of connection points: 4
#     Node 4, Type 0, BuildingBlock: GALJAG_clean_sbu_0, # of connection points: 4
#     Node 5, Type 0, BuildingBlock: GALJAG_clean_sbu_0, # of connection points: 4
#     Node 6, Type 0, BuildingBlock: GALJAG_clean_sbu_0, # of connection points: 4
#     Node 7, Type 0, BuildingBlock: GALJAG_clean_sbu_0, # of connection points: 4
#     Node 8, Type 0, BuildingBlock: GALJAG_clean_sbu_0, # of connection points: 4
#     Node 9, Type 0, BuildingBlock: GALJAG_clean_sbu_0, # of connection points: 4
#     Node 10, Type 0, BuildingBlock: GALJAG_clean_sbu_0, # of connection points: 4
#     Node 11, Type 0, BuildingBlock: GALJAG_clean_sbu_0, # of connection points: 4
#     Node 12, Type 0, BuildingBlock: GALJAG_clean_sbu_0, # of connection points: 4
#     Node 13, Type 0, BuildingBlock: GALJAG_clean_sbu_0, # of connection points: 4
#     Node 14, Type 0, BuildingBlock: GALJAG_clean_sbu_0, # of connection points: 4
#     Node 15, Type 0, BuildingBlock: GALJAG_clean_sbu_0, # of connection points: 4
#     Node 16, Type 0, BuildingBlock: GALJAG_clean_sbu_0, # of connection points: 4
#     Node 17, Type 0, BuildingBlock: GALJAG_clean_sbu_0, # of connection points: 4
#     Node 18, Type 1, BuildingBlock: KUFVIS_clean_linker_0, # of connection points: 4
#     Node 19, Type 1, BuildingBlock: KUFVIS_clean_linker_0, # of connection points: 4
#     Node 20, Type 1, BuildingBlock: KUFVIS_clean_linker_0, # of connection points: 4
#     Node 21, Type 1, BuildingBlock: KUFVIS_clean_linker_0, # of connection points: 4
#     Node 22, Type 1, BuildingBlock: KUFVIS_clean_linker_0, # of connection points: 4
#     Node 23, Type 1, BuildingBlock: KUFVIS_clean_linker_0, # of connection points: 4
#     Node 24, Type 1, BuildingBlock: KUFVIS_clean_linker_0, # of connection points: 4
#     Node 25, Type 1, BuildingBlock: KUFVIS_clean_linker_0, # of connection points: 4
#     Node 26, Type 1, BuildingBlock: KUFVIS_clean_linker_0, # of connection points: 4
#     Node 27, Type 1, BuildingBlock: KUFVIS_clean_linker_0, # of connection points: 4
#     Node 28, Type 1, BuildingBlock: KUFVIS_clean_linker_0, # of connection points: 4
#     Node 29, Type 1, BuildingBlock: KUFVIS_clean_linker_0, # of connection points: 4
#     Node 30, Type 1, BuildingBlock: KUFVIS_clean_linker_0, # of connection points: 4
#     Node 31, Type 1, BuildingBlock: KUFVIS_clean_linker_0, # of connection points: 4
#     Node 32, Type 1, BuildingBlock: KUFVIS_clean_linker_0, # of connection points: 4
#     Node 33, Type 1, BuildingBlock: KUFVIS_clean_linker_0, # of connection points: 4
#     Node 34, Type 1, BuildingBlock: KUFVIS_clean_linker_0, # of connection points: 4
#     Node 35, Type 1, BuildingBlock: KUFVIS_clean_linker_0, # of connection points: 4
#     Edge 36, Type (0, 1), BuildingBlock: KIFKEQ_clean_linker_1, # of connection points: 2
#     Edge 37, Type (0, 1), BuildingBlock: KIFKEQ_clean_linker_1, # of connection points: 2
#     Edge 38, Type (0, 1), BuildingBlock: KIFKEQ_clean_linker_1, # of connection points: 2
#     Edge 39, Type (0, 1), BuildingBlock: KIFKEQ_clean_linker_1, # of connection points: 2
#     Edge 40, Type (0, 1), BuildingBlock: KIFKEQ_clean_linker_1, # of connection points: 2
#     Edge 41, Type (0, 1), BuildingBlock: KIFKEQ_clean_linker_1, # of connection points: 2
#     Edge 42, Type (0, 1), BuildingBlock: KIFKEQ_clean_linker_1, # of connection points: 2
#     Edge 43, Type (0, 1), BuildingBlock: KIFKEQ_clean_linker_1, # of connection points: 2
#     Edge 44, Type (0, 1), BuildingBlock: KIFKEQ_clean_linker_1, # of connection points: 2
#     Edge 45, Type (0, 1), BuildingBlock: KIFKEQ_clean_linker_1, # of connection points: 2
#     Edge 46, Type (0, 1), BuildingBlock: KIFKEQ_clean_linker_1, # of connection points: 2
#     Edge 47, Type (0, 1), BuildingBlock: KIFKEQ_clean_linker_1, # of connection points: 2
#     Edge 48, Type (0, 1), BuildingBlock: KIFKEQ_clean_linker_1, # of connection points: 2
#     Edge 49, Type (0, 1), BuildingBlock: KIFKEQ_clean_linker_1, # of connection points: 2
#     Edge 50, Type (0, 1), BuildingBlock: KIFKEQ_clean_linker_1, # of connection points: 2
#     Edge 51, Type (0, 1), BuildingBlock: KIFKEQ_clean_linker_1, # of connection points: 2
#     Edge 52, Type (0, 1), BuildingBlock: KIFKEQ_clean_linker_1, # of connection points: 2
#     Edge 53, Type (0, 1), BuildingBlock: KIFKEQ_clean_linker_1, # of connection points: 2
#     Edge 54, Type (0, 1), BuildingBlock: KIFKEQ_clean_linker_1, # of connection points: 2
#     Edge 55, Type (0, 1), BuildingBlock: KIFKEQ_clean_linker_1, # of connection points: 2
#     Edge 56, Type (0, 1), BuildingBlock: KIFKEQ_clean_linker_1, # of connection points: 2
#     Edge 57, Type (0, 1), BuildingBlock: KIFKEQ_clean_linker_1, # of connection points: 2
#     Edge 58, Type (0, 1), BuildingBlock: KIFKEQ_clean_linker_1, # of connection points: 2
#     Edge 59, Type (0, 1), BuildingBlock: KIFKEQ_clean_linker_1, # of connection points: 2
#     Edge 60, Type (0, 1), BuildingBlock: KIFKEQ_clean_linker_1, # of connection points: 2
#     Edge 61, Type (0, 1), BuildingBlock: KIFKEQ_clean_linker_1, # of connection points: 2
#     Edge 62, Type (0, 1), BuildingBlock: KIFKEQ_clean_linker_1, # of connection points: 2
#     Edge 63, Type (0, 1), BuildingBlock: KIFKEQ_clean_linker_1, # of connection points: 2
#     Edge 64, Type (0, 1), BuildingBlock: KIFKEQ_clean_linker_1, # of connection points: 2
#     Edge 65, Type (0, 1), BuildingBlock: KIFKEQ_clean_linker_1, # of connection points: 2
#     Edge 66, Type (0, 1), BuildingBlock: KIFKEQ_clean_linker_1, # of connection points: 2
#     Edge 67, Type (0, 1), BuildingBlock: KIFKEQ_clean_linker_1, # of connection points: 2
#     Edge 68, Type (0, 1), BuildingBlock: KIFKEQ_clean_linker_1, # of connection points: 2
#     Edge 69, Type (0, 1), BuildingBlock: KIFKEQ_clean_linker_1, # of connection points: 2
#     Edge 70, Type (0, 1), BuildingBlock: KIFKEQ_clean_linker_1, # of connection points: 2
#     Edge 71, Type (0, 1), BuildingBlock: KIFKEQ_clean_linker_1, # of connection points: 2
#     Edge 72, Type (0, 1), BuildingBlock: KIFKEQ_clean_linker_1, # of connection points: 2
#     Edge 73, Type (0, 1), BuildingBlock: KIFKEQ_clean_linker_1, # of connection points: 2
#     Edge 74, Type (0, 1), BuildingBlock: KIFKEQ_clean_linker_1, # of connection points: 2
#     Edge 75, Type (0, 1), BuildingBlock: KIFKEQ_clean_linker_1, # of connection points: 2
#     Edge 76, Type (0, 1), BuildingBlock: KIFKEQ_clean_linker_1, # of connection points: 2
#     Edge 77, Type (0, 1), BuildingBlock: KIFKEQ_clean_linker_1, # of connection points: 2
#     Edge 78, Type (0, 1), BuildingBlock: KIFKEQ_clean_linker_1, # of connection points: 2
#     Edge 79, Type (0, 1), BuildingBlock: KIFKEQ_clean_linker_1, # of connection points: 2
#     Edge 80, Type (0, 1), BuildingBlock: KIFKEQ_clean_linker_1, # of connection points: 2
#     Edge 81, Type (0, 1), BuildingBlock: KIFKEQ_clean_linker_1, # of connection points: 2
#     Edge 82, Type (0, 1), BuildingBlock: KIFKEQ_clean_linker_1, # of connection points: 2
#     Edge 83, Type (0, 1), BuildingBlock: KIFKEQ_clean_linker_1, # of connection points: 2
#     Edge 84, Type (0, 1), BuildingBlock: KIFKEQ_clean_linker_1, # of connection points: 2
#     Edge 85, Type (0, 1), BuildingBlock: KIFKEQ_clean_linker_1, # of connection points: 2
#     Edge 86, Type (0, 1), BuildingBlock: KIFKEQ_clean_linker_1, # of connection points: 2
#     Edge 87, Type (0, 1), BuildingBlock: KIFKEQ_clean_linker_1, # of connection points: 2
#     Edge 88, Type (0, 1), BuildingBlock: KIFKEQ_clean_linker_1, # of connection points: 2
#     Edge 89, Type (0, 1), BuildingBlock: KIFKEQ_clean_linker_1, # of connection points: 2
#     Edge 90, Type (0, 1), BuildingBlock: KIFKEQ_clean_linker_1, # of connection points: 2
#     Edge 91, Type (0, 1), BuildingBlock: KIFKEQ_clean_linker_1, # of connection points: 2
#     Edge 92, Type (0, 1), BuildingBlock: KIFKEQ_clean_linker_1, # of connection points: 2
#     Edge 93, Type (0, 1), BuildingBlock: KIFKEQ_clean_linker_1, # of connection points: 2
#     Edge 94, Type (0, 1), BuildingBlock: KIFKEQ_clean_linker_1, # of connection points: 2
#     Edge 95, Type (0, 1), BuildingBlock: KIFKEQ_clean_linker_1, # of connection points: 2
#     Edge 96, Type (0, 1), BuildingBlock: KIFKEQ_clean_linker_1, # of connection points: 2
#     Edge 97, Type (0, 1), BuildingBlock: KIFKEQ_clean_linker_1, # of connection points: 2
#     Edge 98, Type (0, 1), BuildingBlock: KIFKEQ_clean_linker_1, # of connection points: 2
#     Edge 99, Type (0, 1), BuildingBlock: KIFKEQ_clean_linker_1, # of connection points: 2
#     Edge 100, Type (0, 1), BuildingBlock: KIFKEQ_clean_linker_1, # of connection points: 2
#     Edge 101, Type (0, 1), BuildingBlock: KIFKEQ_clean_linker_1, # of connection points: 2
#     Edge 102, Type (0, 1), BuildingBlock: KIFKEQ_clean_linker_1, # of connection points: 2
#     Edge 103, Type (0, 1), BuildingBlock: KIFKEQ_clean_linker_1, # of connection points: 2
#     Edge 104, Type (0, 1), BuildingBlock: KIFKEQ_clean_linker_1, # of connection points: 2
#     Edge 105, Type (0, 1), BuildingBlock: KIFKEQ_clean_linker_1, # of connection points: 2
#     Edge 106, Type (0, 1), BuildingBlock: KIFKEQ_clean_linker_1, # of connection points: 2
#     Edge 107, Type (0, 1), BuildingBlock: KIFKEQ_clean_linker_1, # of connection points: 2
# Relax obj value: 0.068
# Max RMSD: 0.101
# Mean RMSD: 0.096
data_MOF--net-ptr--node1-GALJAG_clean_sbu_0--node2-KUFVIS_clean_linker_0--edge1-KIFKEQ_clean_linker_1
_symmetry_space_group_name_H-M    P1
_symmetry_Int_Tables_number       1
_symmetry_cell_setting            triclinic
loop_
_symmetry_equiv_pos_as_xyz
'x, y, z'
_cell_length_a     78.363
_cell_length_b     78.435931
_cell_length_c     52.536574
_cell_angle_alpha  89.982166
_cell_angle_beta   90.085299
_cell_angle_gamma 120.15048
loop_
_atom_site_label
_atom_site_type_symbol
_atom_site_fract_x
_atom_site_fract_y
_atom_site_fract_z
_atom_type_partial_charge
In0 In 0.02787 0.38046 0.00662 0.0
O1 O 1.01488 0.39057 0.03838 0.0
O2 O 0.04607 0.40432 0.03577 0.0
C3 C 0.99294 0.34729 0.99588 0.0
C4 C 0.05512 0.36919 0.01435 0.0
C5 C 0.03298 0.40582 0.96862 0.0
O6 O 0.99961 0.35177 0.01824 0.0
O7 O 1.00377 0.35943 0.97919 0.0
O8 O 0.03782 0.39275 0.96632 0.0
O9 O 0.02552 0.40591 0.98983 0.0
C10 C 0.03146 0.40347 0.04703 0.0
O11 O 0.05768 0.3824 -0.00142 0.0
O12 O 0.03876 0.36147 0.0257 0.0
In13 In 0.65767 0.65748 0.00927 0.0
O14 O 0.65169 0.63861 0.04524 0.0
O15 O 0.63053 0.64659 0.03444 0.0
C16 C 0.69391 0.66385 0.99601 0.0
C17 C 0.66436 0.69411 0.02018 0.0
C18 C 0.63486 0.63337 0.97137 0.0
O19 O 0.68484 0.654 0.01544 0.0
O20 O 0.68481 0.67059 0.98354 0.0
O21 O 0.63906 0.65112 0.97297 0.0
O22 O 0.64245 0.62803 0.98849 0.0
C23 C 0.63531 0.63741 0.04988 0.0
O24 O 0.65263 0.68351 0.00287 0.0
O25 O 0.67294 0.68637 0.03171 0.0
In26 In 0.38083 0.01407 0.01132 0.0
O27 O 0.39157 0.04737 0.01324 0.0
O28 O 0.36481 0.02913 0.99391 0.0
C29 C 0.40241 0.01252 0.05046 0.0
C30 C 0.40148 0.01219 0.9712 0.0
C31 C 0.34584 0.98274 0.0261 0.0
O32 O 0.39435 0.02302 0.05122 0.0
O33 O 0.39944 1.00281 0.03018 0.0
O34 O 0.35283 0.98388 0.00411 0.0
O35 O 0.3562 0.99743 0.04012 0.0
C36 C 0.37733 0.04635 0.0008 0.0
O37 O 0.38285 1.00227 0.97194 0.0
O38 O 0.40942 0.02327 0.99013 0.0
In39 In 1.01636 0.65343 0.01236 0.0
O40 O 0.0296 0.64544 0.97848 0.0
O41 O 0.99947 0.62615 0.98735 0.0
C42 C 0.04666 0.68986 0.02442 0.0
C43 C 0.98836 0.66274 0.00024 0.0
C44 C 1.01579 0.63058 0.05152 0.0
O45 O 0.0471 0.6804 0.00521 0.0
O46 O 0.03106 0.68094 0.03741 0.0
O47 O 1.00122 0.63265 0.04615 0.0
O48 O 0.03067 0.64034 0.03756 0.0
C49 C 1.01386 0.62965 0.97326 0.0
O50 O 0.98731 0.65303 0.01995 0.0
O51 O 1.00348 0.66774 0.98678 0.0
In52 In 0.38596 0.37516 0.0168 0.0
O53 O 0.39271 0.39727 0.98424 0.0
O54 O 0.40829 0.38161 0.98516 0.0
C55 C 0.35119 0.37244 0.03041 0.0
C56 C 0.37688 0.33764 0.00601 0.0
C57 C 0.41109 0.39645 0.05508 0.0
O58 O 0.35988 0.38049 0.00988 0.0
O59 O 0.36007 0.366 0.04389 0.0
O60 O 0.39968 0.37806 0.0565 0.0
O61 O 0.40969 0.40402 0.03465 0.0
C62 C 0.40576 0.39448 0.9742 0.0
O63 O 0.39279 0.34993 0.01673 0.0
O64 O 0.36556 0.34423 0.00067 0.0
In65 In 0.66293 0.02126 0.01629 0.0
O66 O 0.65936 0.03233 0.05538 0.0
O67 O 0.63343 0.01207 0.03549 0.0
C68 C 0.69971 0.0502 0.0034 0.0
C69 C 0.6683 0.99059 0.02869 0.0
C70 C 0.64231 0.0233 0.97622 0.0
O71 O 0.68975 0.05235 0.02066 0.0
O72 O 0.69116 0.0335 0.99281 0.0
O73 O 0.64122 1.00732 0.98305 0.0
O74 O 0.65404 0.03815 0.98924 0.0
C75 C 0.64074 0.02262 0.05499 0.0
O76 O 0.65923 0.99056 0.0088 0.0
O77 O 0.67433 1.00582 0.04223 0.0
In78 In 0.69251 0.71393 0.34471 0.0
O79 O 0.68214 0.71756 0.38418 0.0
O80 O 0.70409 0.74325 0.36565 0.0
C81 C 0.66254 0.6774 0.33239 0.0
C82 C 0.72356 0.7088 0.35544 0.0
C83 C 0.68993 0.7347 0.30525 0.0
O84 O 0.66126 0.68756 0.35014 0.0
O85 O 0.67889 0.68564 0.32091 0.0
O86 O 0.70482 0.73276 0.30871 0.0
O87 O 0.67629 0.72583 0.32128 0.0
C88 C 0.69324 0.73604 0.3849 0.0
O89 O 0.72427 0.72041 0.3383 0.0
O90 O 0.70729 0.69983 0.36698 0.0
In91 In 0.32434 0.98932 0.34309 0.0
O92 O 0.31595 0.96594 0.37441 0.0
O93 O 0.30162 0.98279 0.37423 0.0
C94 C 0.35855 0.9898 0.33184 0.0
C95 C 0.33364 0.02744 0.35007 0.0
C96 C 0.29877 0.96864 0.3052 0.0
O97 O 0.35494 0.99378 0.35372 0.0
O98 O 0.34496 0.98543 0.31587 0.0
O99 O 0.31203 0.98653 0.30261 0.0
O100 O 0.29858 0.96133 0.32666 0.0
C101 C 0.30323 0.96915 0.38455 0.0
O102 O 0.31973 0.01573 0.33573 0.0
O103 O 0.34298 0.02006 0.36033 0.0
In104 In 0.0504 0.34968 0.34355 0.0
O105 O 0.05987 0.38263 0.34672 0.0
O106 O 0.03407 0.36379 0.32546 0.0
C107 C 0.07002 0.3475 0.38482 0.0
C108 C 0.07266 0.35223 0.30266 0.0
C109 C 1.01401 0.3185 0.35343 0.0
O110 O 0.0625 0.35849 0.38437 0.0
O111 O 0.06724 0.33751 0.3649 0.0
O112 O 0.02675 0.31664 0.34094 0.0
O113 O 0.01967 0.3358 0.36092 0.0
C114 C 0.0456 0.38097 0.33356 0.0
O115 O 0.05407 0.34149 0.30252 0.0
O116 O 0.07973 0.36168 0.32299 0.0
In117 In 0.68773 0.98876 0.34861 0.0
O118 O 0.69656 0.98454 0.30861 0.0
O119 O 0.68095 0.95915 0.33191 0.0
C120 C 0.71934 0.02544 0.35707 0.0
C121 C 0.65607 0.99186 0.33392 0.0
C122 C 0.68529 0.96706 0.39005 0.0
O123 O 0.72043 0.01244 0.34426 0.0
O124 O 0.70226 0.02012 0.36525 0.0
O125 O 0.67048 0.96735 0.38107 0.0
O126 O 0.70125 0.97807 0.3786 0.0
C127 C 0.68895 0.96608 0.31069 0.0
O128 O 0.66057 0.99212 0.35707 0.0
O129 O 0.66766 0.9905 0.31858 0.0
In130 In 0.05133 0.7073 0.34914 0.0
O131 O 0.05334 0.71433 0.30627 0.0
O132 O 0.07565 0.73511 0.33083 0.0
C133 C 1.01392 0.69961 0.35806 0.0
C134 C 0.05154 0.67318 0.33988 0.0
C135 C 0.07262 0.72853 0.3899 0.0
O136 O 0.02369 0.70936 0.33889 0.0
O137 O 0.02289 0.69366 0.37217 0.0
O138 O 0.07293 0.71338 0.3824 0.0
O139 O 0.06126 0.73239 0.3774 0.0
C140 C 0.06933 0.73057 0.30838 0.0
O141 O 0.06544 0.68989 0.33345 0.0
O142 O 0.0377 0.67364 0.35143 0.0
In143 In 0.32733 0.35018 0.34501 0.0
O144 O 0.32242 0.31885 0.34013 0.0
O145 O 0.34519 0.33823 0.36504 0.0
C146 C 0.30237 0.34636 0.30703 0.0
C147 C 0.30525 0.34954 0.38502 0.0
C148 C 0.36152 0.38293 0.33094 0.0
O149 O 0.31325 0.33873 0.30588 0.0
O150 O 0.30432 0.35604 0.32706 0.0
O151 O 0.35674 0.37863 0.35398 0.0
O152 O 0.34926 0.37074 0.3153 0.0
C153 C 0.33584 0.32122 0.35544 0.0
O154 O 0.32015 0.36528 0.37749 0.0
O155 O 0.30201 0.33433 0.37292 0.0
In156 In 0.35585 0.04489 0.67718 0.0
O157 O 0.38498 0.04519 0.66936 0.0
O158 O 0.37403 0.0401 0.70719 0.0
C159 C 0.35299 0.06482 0.63672 0.0
C160 C 0.35437 0.06811 0.71403 0.0
C161 C 0.32838 1.00672 0.66786 0.0
O162 O 0.36913 0.06615 0.64332 0.0
O163 O 0.33841 0.05319 0.65011 0.0
O164 O 0.32654 0.01656 0.68557 0.0
O165 O 0.3441 0.01604 0.65521 0.0
C166 C 0.3875 0.04206 0.69228 0.0
O167 O 0.34114 0.05022 0.71157 0.0
O168 O 0.3682 0.07411 0.69804 0.0
In169 In 0.997 0.32202 0.68122 0.0
O170 O 0.99715 0.35089 0.67139 0.0
O171 O 0.99475 0.34259 0.7101 0.0
C172 C 0.97687 0.29905 0.64094 0.0
C173 C 0.97749 0.29645 0.71934 0.0
C174 C 0.03551 0.3336 0.67229 0.0
O175 O 0.9734 0.31197 0.64985 0.0
O176 O 0.99072 0.29815 0.6519 0.0
O177 O 0.02524 0.32062 0.68853 0.0
O178 O 0.02649 0.34092 0.66096 0.0
C179 C 0.99561 0.35499 0.69418 0.0
O180 O 0.99566 0.30913 0.72074 0.0
O181 O 0.96925 0.29674 0.69883 0.0
In182 In 0.71383 0.68074 0.67499 0.0
O183 O 0.71679 0.71113 0.68162 0.0
O184 O 0.69605 0.69248 0.65411 0.0
C185 C 0.73951 0.68605 0.71278 0.0
C186 C 0.73616 0.68184 0.63487 0.0
C187 C 0.68025 0.64735 0.68956 0.0
O188 O 0.72805 0.693 0.71384 0.0
O189 O 0.73787 0.67636 0.69286 0.0
O190 O 0.68431 0.65207 0.66647 0.0
O191 O 0.69289 0.65941 0.70493 0.0
C192 C 0.70405 0.70894 0.66527 0.0
O193 O 0.72195 0.66588 0.64315 0.0
O194 O 0.7386 0.69705 0.64628 0.0
In195 In 0.35546 0.32089 0.67582 0.0
O196 O 0.36731 0.31941 0.6365 0.0
O197 O 0.35284 0.2931 0.6584 0.0
C198 C 0.38269 0.35931 0.68489 0.0
C199 C 0.32115 0.31972 0.66296 0.0
C200 C 0.35792 0.30088 0.71641 0.0
O201 O 0.3854 0.34893 0.66888 0.0
O202 O 0.36617 0.35046 0.69587 0.0
O203 O 0.34159 0.29715 0.70686 0.0
O204 O 0.37281 0.31492 0.70591 0.0
C205 C 0.36167 0.30125 0.63803 0.0
O206 O 0.32678 0.32106 0.68575 0.0
O207 O 0.33271 0.31899 0.64695 0.0
In208 In 0.71668 0.04526 0.6798 0.0
O209 O 0.72225 0.06441 0.64414 0.0
O210 O 0.74461 0.05839 0.65583 0.0
C211 C 0.67959 0.03656 0.69221 0.0
C212 C 0.7111 1.00899 0.66856 0.0
C213 C 0.73778 0.06978 0.71844 0.0
O214 O 0.68831 0.04627 0.67252 0.0
O215 O 0.6895 0.03115 0.70543 0.0
O216 O 0.73657 0.05325 0.71517 0.0
O217 O 0.7281 0.07366 0.70264 0.0
C218 C 0.7393 0.06703 0.64022 0.0
O219 O 0.72223 0.01943 0.68645 0.0
O220 O 0.70274 0.01675 0.65659 0.0
In221 In 0.99516 0.68487 0.68168 0.0
O222 O 0.99103 0.6542 0.67317 0.0
O223 O 1.0078 0.66959 0.70567 0.0
C224 C 0.97611 0.68812 0.64072 0.0
C225 C 0.97068 0.68207 0.71996 0.0
C226 C 0.03179 0.71552 0.67187 0.0
O227 O 0.97633 0.67245 0.64568 0.0
O228 O 0.98581 0.70212 0.65605 0.0
O229 O 0.02029 0.71675 0.68762 0.0
O230 O 0.02487 0.69887 0.66133 0.0
C231 C 1.0009 0.65422 0.69221 0.0
O232 O 0.98922 0.69203 0.72206 0.0
O233 O 0.96462 0.6736 0.69882 0.0
H234 H 0.24811 0.34961 0.13748 0.0
H235 H 0.21129 0.36413 0.09313 0.0
H236 H 0.19783 0.34703 0.17254 0.0
H237 H 0.18243 0.36328 0.17144 0.0
H238 H 0.13351 0.35748 0.12807 0.0
H239 H 0.17937 0.35346 0.08985 0.0
C240 C 0.23512 0.35114 0.13604 0.0
C241 C 0.22368 0.34834 0.15761 0.0
C242 C 0.23055 0.35655 0.11281 0.0
C243 C 0.21418 0.35936 0.11111 0.0
C244 C 0.20179 0.35593 0.13256 0.0
C245 C 0.20691 0.35033 0.15575 0.0
C246 C 0.18342 0.35764 0.13098 0.0
C247 C 0.17496 0.36054 0.15333 0.0
C248 C 0.15683 0.3602 0.15264 0.0
C249 C 0.1476 0.35803 0.1291 0.0
C250 C 0.15607 0.35631 0.1066 0.0
C251 C 0.17369 0.35575 0.10747 0.0
H252 H 0.68243 0.90843 0.13617 0.0
H253 H 0.68307 0.86272 0.09298 0.0
H254 H 0.67445 0.85714 0.17496 0.0
H255 H 0.6857 0.83764 0.17418 0.0
H256 H 0.67537 0.78596 0.13437 0.0
H257 H 0.67296 0.83158 0.09297 0.0
C258 C 0.68127 0.89406 0.13571 0.0
C259 C 0.67881 0.88375 0.15834 0.0
C260 C 0.68217 0.88619 0.11229 0.0
C261 C 0.68158 0.86798 0.11136 0.0
C262 C 0.67942 0.85715 0.13403 0.0
C263 C 0.67748 0.86522 0.15734 0.0
C264 C 0.67894 0.83756 0.1337 0.0
C265 C 0.68194 0.82957 0.15647 0.0
C266 C 0.67987 0.81073 0.15693 0.0
C267 C 0.67632 0.80026 0.13425 0.0
C268 C 0.67449 0.80809 0.11126 0.0
C269 C 0.67533 0.82642 0.11095 0.0
H270 H 0.24587 0.90517 0.13814 0.0
H271 H 0.20759 0.85245 0.09672 0.0
H272 H 0.19211 0.86189 0.1727 0.0
H273 H 0.1771 0.82988 0.17504 0.0
H274 H 0.12952 0.78338 0.13359 0.0
H275 H 0.17468 0.83248 0.09264 0.0
C276 C 0.23213 0.8912 0.13698 0.0
C277 C 0.21952 0.88456 0.15792 0.0
C278 C 0.22781 0.8798 0.11492 0.0
C279 C 0.21032 0.86135 0.11361 0.0
C280 C 0.19704 0.85426 0.1345 0.0
C281 C 0.20192 0.86634 0.15651 0.0
C282 C 0.17848 0.83425 0.13392 0.0
C283 C 0.16996 0.82403 0.15694 0.0
C284 C 0.15225 0.80582 0.15699 0.0
C285 C 0.14331 0.79734 0.1338 0.0
C286 C 0.15153 0.80667 0.11073 0.0
C287 C 0.16895 0.82519 0.11068 0.0
H288 H 0.36633 0.12883 0.88793 0.0
H289 H 0.36942 0.17694 0.93037 0.0
H290 H 0.35398 0.16953 0.85005 0.0
H291 H 0.36856 0.20113 0.84913 0.0
H292 H 0.36118 0.24502 0.88692 0.0
H293 H 0.35649 0.19656 0.93031 0.0
C294 C 0.36506 0.14198 0.88858 0.0
C295 C 0.36056 0.14864 0.86637 0.0
C296 C 0.36761 0.15175 0.9117 0.0
C297 C 0.36647 0.16912 0.9125 0.0
C298 C 0.36211 0.17641 0.89009 0.0
C299 C 0.35831 0.16526 0.86737 0.0
C300 C 0.36208 0.19569 0.88975 0.0
C301 C 0.36519 0.20616 0.86654 0.0
C302 C 0.36461 0.22372 0.86544 0.0
C303 C 0.36153 0.23138 0.88776 0.0
C304 C 0.35885 0.22183 0.91114 0.0
C305 C 0.35909 0.20399 0.91218 0.0
H306 H 0.79151 0.13344 0.88679 0.0
H307 H 0.84064 0.17507 0.93123 0.0
H308 H 0.84025 0.18134 0.84906 0.0
H309 H 0.87182 0.19764 0.85246 0.0
H310 H 0.9157 0.24682 0.8947 0.0
H311 H 0.86101 0.20734 0.93071 0.0
C312 C 0.80586 0.14677 0.88771 0.0
C313 C 0.81523 0.15647 0.86529 0.0
C314 C 0.81487 0.15365 0.91134 0.0
C315 C 0.83373 0.17051 0.91273 0.0
C316 C 0.84352 0.18102 0.89037 0.0
C317 C 0.83381 0.17369 0.86666 0.0
C318 C 0.86367 0.19938 0.89164 0.0
C319 C 0.87626 0.20588 0.87004 0.0
C320 C 0.89463 0.22345 0.87062 0.0
C321 C 0.90123 0.23367 0.89362 0.0
C322 C 0.88924 0.22784 0.91516 0.0
C323 C 0.87037 0.21099 0.91413 0.0
H324 H 0.79531 0.68684 0.88413 0.0
H325 H 0.83202 0.6718 0.9279 0.0
H326 H 0.8441 0.68716 0.84787 0.0
H327 H 0.85831 0.66981 0.84883 0.0
H328 H 0.90744 0.67446 0.89035 0.0
H329 H 0.86395 0.68161 0.93008 0.0
C330 C 0.80811 0.68498 0.88529 0.0
C331 C 0.81895 0.68694 0.86337 0.0
C332 C 0.81296 0.67984 0.90854 0.0
C333 C 0.82896 0.67642 0.9099 0.0
C334 C 0.84075 0.67903 0.8881 0.0
C335 C 0.83542 0.68444 0.86493 0.0
C336 C 0.85864 0.67647 0.88921 0.0
C337 C 0.86615 0.67263 0.86667 0.0
C338 C 0.88386 0.67217 0.86677 0.0
C339 C 0.89361 0.67449 0.88989 0.0
C340 C 0.88613 0.67724 0.91263 0.0
C341 C 0.86888 0.67854 0.91237 0.0
H342 H 0.92265 0.69454 0.46888 0.0
H343 H 0.87365 0.68842 0.42568 0.0
H344 H 0.87633 0.69724 0.50767 0.0
H345 H 0.8454 0.68559 0.50648 0.0
H346 H 0.80306 0.69379 0.46542 0.0
H347 H 0.85266 0.69867 0.42537 0.0
C348 C 0.90864 0.6942 0.46827 0.0
C349 C 0.90006 0.69555 0.49084 0.0
C350 C 0.89929 0.69198 0.44489 0.0
C351 C 0.88079 0.69085 0.44399 0.0
C352 C 0.87177 0.69262 0.46658 0.0
C353 C 0.88194 0.69512 0.48993 0.0
C354 C 0.85219 0.69222 0.46601 0.0
C355 C 0.84091 0.68891 0.48861 0.0
C356 C 0.8237 0.69029 0.48866 0.0
C357 C 0.81669 0.69335 0.4657 0.0
C358 C 0.82685 0.69584 0.443 0.0
C359 C 0.84473 0.69572 0.44312 0.0
H360 H 0.36315 0.24593 0.467 0.0
H361 H 0.34545 0.19272 0.42539 0.0
H362 H 0.36385 0.19806 0.50447 0.0
H363 H 0.34653 0.1668 0.50563 0.0
H364 H 0.34206 0.11771 0.46478 0.0
H365 H 0.35294 0.16914 0.42335 0.0
C366 C 0.36111 0.23119 0.4663 0.0
C367 C 0.36355 0.22277 0.48839 0.0
C368 C 0.35497 0.22053 0.44358 0.0
C369 C 0.35104 0.20093 0.4429 0.0
C370 C 0.35417 0.19217 0.46479 0.0
C371 C 0.36072 0.20365 0.48737 0.0
C372 C 0.35041 0.17125 0.4645 0.0
C373 C 0.34727 0.16063 0.48757 0.0
C374 C 0.34467 0.14156 0.48786 0.0
C375 C 0.344 0.13241 0.46479 0.0
C376 C 0.34652 0.14217 0.44166 0.0
C377 C 0.35017 0.16166 0.44145 0.0
H378 H 0.92189 0.23792 0.47144 0.0
H379 H 0.87316 0.19504 0.42741 0.0
H380 H 0.87631 0.18744 0.50897 0.0
H381 H 0.84499 0.16986 0.50771 0.0
H382 H 0.80262 0.11854 0.46788 0.0
H383 H 0.852 0.16321 0.42683 0.0
C384 C 0.90799 0.2241 0.47048 0.0
C385 C 0.89973 0.21355 0.49279 0.0
C386 C 0.89864 0.21737 0.44695 0.0
C387 C 0.88039 0.19961 0.44571 0.0
C388 C 0.87149 0.18843 0.46809 0.0
C389 C 0.88177 0.19567 0.4915 0.0
C390 C 0.85177 0.16938 0.46741 0.0
C391 C 0.84048 0.16176 0.49002 0.0
C392 C 0.82328 0.14318 0.4904 0.0
C393 C 0.81621 0.13269 0.46775 0.0
C394 C 0.82619 0.14016 0.44484 0.0
C395 C 0.84412 0.15826 0.44463 0.0
H396 H 0.03952 0.465 0.21542 0.0
H397 H 0.0293 0.50476 0.2599 0.0
H398 H 0.04121 0.51447 0.17891 0.0
H399 H 0.02162 0.5267 0.18126 0.0
H400 H 0.02506 0.57575 0.22139 0.0
H401 H 0.04103 0.5377 0.25995 0.0
C402 C 0.0386 0.47832 0.21663 0.0
C403 C 0.04051 0.48901 0.19453 0.0
C404 C 0.03479 0.48402 0.24016 0.0
C405 C 0.03295 0.50096 0.24171 0.0
C406 C 0.03488 0.5122 0.21959 0.0
C407 C 0.039 0.50606 0.19614 0.0
C408 C 0.03193 0.52978 0.22045 0.0
C409 C 0.02533 0.53536 0.19851 0.0
C410 C 0.02309 0.55205 0.19855 0.0
C411 C 0.02645 0.56267 0.22115 0.0
C412 C 0.03243 0.55729 0.24335 0.0
C413 C 0.03565 0.54118 0.24288 0.0
H414 H 0.46469 0.45877 0.22409 0.0
H415 H 0.50156 0.5131 0.26331 0.0
H416 H 0.51626 0.5036 0.18698 0.0
H417 H 0.52879 0.53534 0.18361 0.0
H418 H 0.5755 0.58477 0.22208 0.0
H419 H 0.53481 0.53445 0.26569 0.0
C420 C 0.47803 0.47313 0.22462 0.0
C421 C 0.48993 0.48013 0.20303 0.0
C422 C 0.48231 0.48483 0.24638 0.0
C423 C 0.49897 0.50394 0.24671 0.0
C424 C 0.51165 0.51125 0.22528 0.0
C425 C 0.5069 0.49887 0.20364 0.0
C426 C 0.52926 0.53186 0.22478 0.0
C427 C 0.53631 0.54191 0.20129 0.0
C428 C 0.55304 0.56081 0.20022 0.0
C429 C 0.56245 0.5702 0.2228 0.0
C430 C 0.55578 0.5609 0.24631 0.0
C431 C 0.53936 0.54167 0.24739 0.0
H432 H 0.45356 1.00265 0.22468 0.0
H433 H 0.50218 1.00671 0.26659 0.0
H434 H 0.50073 1.00247 0.18413 0.0
H435 H 0.53235 0.01908 0.18616 0.0
H436 H 0.57756 0.01315 0.22319 0.0
H437 H 0.52426 0.99715 0.26377 0.0
C438 C 0.46761 1.00309 0.22461 0.0
C439 C 0.47638 1.00292 0.20154 0.0
C440 C 0.47653 1.00374 0.24786 0.0
C441 C 0.49527 1.00544 0.24832 0.0
C442 C 0.50486 1.00565 0.22528 0.0
C443 C 0.49473 1.00374 0.20205 0.0
C444 C 0.52523 1.00793 0.22513 0.0
C445 C 0.53719 0.01477 0.20299 0.0
C446 C 0.55584 0.01639 0.20216 0.0
C447 C 0.56321 0.01209 0.22387 0.0
C448 C 0.55198 1.00544 0.24608 0.0
C449 C 0.53296 1.00312 0.2467 0.0
H450 H 0.58726 0.02805 0.80466 0.0
H451 H 0.53735 0.02019 0.76162 0.0
H452 H 0.5397 0.02864 0.8435 0.0
H453 H 0.50772 1.01073 0.84096 0.0
H454 H 0.46362 0.01814 0.80316 0.0
H455 H 0.51707 0.03296 0.76351 0.0
C456 C 0.57302 0.02722 0.8041 0.0
C457 C 0.56428 0.02825 0.82674 0.0
C458 C 0.56352 0.02463 0.78073 0.0
C459 C 0.54473 0.02283 0.77983 0.0
C460 C 0.53549 0.02397 0.80247 0.0
C461 C 0.54576 0.02696 0.82583 0.0
C462 C 0.51525 0.02185 0.80209 0.0
C463 C 0.50309 0.01514 0.82402 0.0
C464 C 0.48464 0.01399 0.8245 0.0
C465 C 0.47774 0.01871 0.80268 0.0
C466 C 0.48927 0.02534 0.78069 0.0
C467 C 0.50804 0.02704 0.78035 0.0
H468 H 1.00433 0.56685 0.80277 0.0
H469 H 1.01446 0.5266 0.75928 0.0
H470 H 1.00854 0.52114 0.84145 0.0
H471 H 0.02825 0.50914 0.83749 0.0
H472 H 0.02238 0.45812 0.79997 0.0
H473 H 1.00282 0.49352 0.76176 0.0
C474 C 1.00606 0.55397 0.80213 0.0
C475 C 1.00655 0.54492 0.8248 0.0
C476 C 1.00861 0.54724 0.77862 0.0
C477 C 1.0118 0.53113 0.77759 0.0
C478 C 1.01191 0.52131 0.80021 0.0
C479 C 1.00908 0.52843 0.82374 0.0
C480 C 1.01528 0.50399 0.79955 0.0
C481 C 0.02354 0.4997 0.8209 0.0
C482 C 0.02589 0.4831 0.82127 0.0
C483 C 0.02091 0.47116 0.79967 0.0
C484 C 1.01288 0.47502 0.77818 0.0
C485 C 1.00983 0.49125 0.77815 0.0
H486 H 0.58548 0.56603 0.80287 0.0
H487 H 0.54072 0.51793 0.75992 0.0
H488 H 0.53078 0.52688 0.83897 0.0
H489 H 0.51236 0.49519 0.84016 0.0
H490 H 0.46215 0.45147 0.79948 0.0
H491 H 0.50823 0.49952 0.75818 0.0
C492 C 0.5708 0.55316 0.80184 0.0
C493 C 0.55899 0.54706 0.82352 0.0
C494 C 0.56404 0.54306 0.77882 0.0
C495 C 0.5452 0.52606 0.77761 0.0
C496 C 0.5328 0.51942 0.79945 0.0
C497 C 0.53983 0.53076 0.82208 0.0
C498 C 0.51305 0.50051 0.79924 0.0
C499 C 0.50459 0.49017 0.82226 0.0
C500 C 0.48621 0.47264 0.8225 0.0
C501 C 0.47632 0.46503 0.79952 0.0
C502 C 0.48441 0.47448 0.77646 0.0
C503 C 0.50258 0.49226 0.77625 0.0
H504 H 0.68897 0.79093 0.55616 0.0
H505 H 0.68936 0.83686 0.60067 0.0
H506 H 0.69616 0.84223 0.51841 0.0
H507 H 0.68187 0.85932 0.52078 0.0
H508 H 0.69035 0.91056 0.56021 0.0
H509 H 0.70048 0.86885 0.59999 0.0
C510 C 0.68993 0.80522 0.55717 0.0
C511 C 0.69189 0.81557 0.5348 0.0
C512 C 0.68973 0.81317 0.58085 0.0
C513 C 0.69049 0.83149 0.58217 0.0
C514 C 0.69217 0.84228 0.55962 0.0
C515 C 0.69376 0.83428 0.53607 0.0
C516 C 0.69167 0.86136 0.56019 0.0
C517 C 0.68633 0.86799 0.53802 0.0
C518 C 0.68612 0.88579 0.53778 0.0
C519 C 0.69039 0.89674 0.56018 0.0
C520 C 0.69512 0.89045 0.58258 0.0
C521 C 0.69614 0.87302 0.58259 0.0
H522 H 0.12687 0.7935 0.5612 0.0
H523 H 0.17148 0.84387 0.60062 0.0
H524 H 0.17755 0.83559 0.51994 0.0
H525 H 0.19597 0.86695 0.51836 0.0
H526 H 0.24614 0.91282 0.55668 0.0
H527 H 0.20317 0.86408 0.60006 0.0
C528 C 0.14095 0.80717 0.56084 0.0
C529 C 0.1511 0.81394 0.53791 0.0
C530 C 0.14854 0.81767 0.58338 0.0
C531 C 0.16652 0.83562 0.58306 0.0
C532 C 0.17753 0.84278 0.56016 0.0
C533 C 0.16966 0.83122 0.53778 0.0
C534 C 0.19673 0.8623 0.5593 0.0
C535 C 0.20412 0.8725 0.5359 0.0
C536 C 0.22197 0.89054 0.53482 0.0
C537 C 0.23235 0.89887 0.55731 0.0
C538 C 0.22534 0.88953 0.58068 0.0
C539 C 0.2078 0.8712 0.58174 0.0
H540 H 0.12857 0.34909 0.55963 0.0
H541 H 0.17501 0.34713 0.59962 0.0
H542 H 0.16812 0.3368 0.51811 0.0
H543 H 0.19987 0.349 0.51795 0.0
H544 H 0.23894 0.33353 0.55447 0.0
H545 H 0.1918 0.3316 0.5976 0.0
C546 C 0.14124 0.34699 0.55914 0.0
C547 C 0.14744 0.34313 0.53602 0.0
C548 C 0.15074 0.34779 0.58196 0.0
C549 C 0.16759 0.34581 0.58174 0.0
C550 C 0.17477 0.34248 0.55858 0.0
C551 C 0.16405 0.34068 0.53591 0.0
C552 C 0.19304 0.34056 0.55788 0.0
C553 C 0.2039 0.34408 0.53495 0.0
C554 C 0.21995 0.34085 0.53345 0.0
C555 C 0.22618 0.33548 0.55537 0.0
C556 C 0.21635 0.33257 0.57847 0.0
C557 C 0.19966 0.33483 0.57975 0.0
H558 H 0.06574 0.43293 0.06718 0.0
H559 H 1.00238 0.40569 0.07291 0.0
H560 H 0.0697 0.4566 0.10005 0.0
H561 H 1.00632 0.42915 0.10618 0.0
H562 H 0.01886 0.48316 0.15126 0.0
H563 H 0.01762 0.46406 0.11375 0.0
H564 H 0.06441 0.45665 0.1454 0.0
H565 H 0.06594 0.47609 0.18239 0.0
C566 C 0.05265 0.43194 0.07557 0.0
C567 C 0.03374 0.41737 0.06757 0.0
C568 C 0.05492 0.4455 0.09442 0.0
C569 C 0.03834 0.44483 0.10571 0.0
C570 C 0.01942 0.43029 0.0976 0.0
C571 C 1.01714 0.41671 0.07873 0.0
C572 C 0.02924 0.47791 0.14979 0.0
C573 C 0.04244 0.48103 0.16976 0.0
C574 C 0.02835 0.46674 0.12851 0.0
C575 C 0.04072 0.45858 0.12674 0.0
C576 C 0.05473 0.46276 0.14605 0.0
C577 C 0.05556 0.47384 0.1673 0.0
H578 H 0.63905 0.6115 0.08104 0.0
H579 H 0.60206 0.63672 0.06646 0.0
H580 H 0.61702 0.59176 0.11558 0.0
H581 H 0.58012 0.61704 0.10094 0.0
H582 H 0.56347 0.5982 0.18592 0.0
H583 H 0.58249 0.61613 0.14848 0.0
H584 H 0.5819 0.56372 0.12201 0.0
H585 H 0.56285 0.54578 0.15963 0.0
C586 C 0.62625 0.61284 0.08524 0.0
C587 C 0.62233 0.62571 0.07113 0.0
C588 C 0.61355 0.60142 0.10484 0.0
C589 C 0.59681 0.60281 0.11089 0.0
C590 C 0.59295 0.61574 0.0968 0.0
C591 C 0.60551 0.62698 0.07706 0.0
C592 C 0.56715 0.59046 0.17187 0.0
C593 C 0.5617 0.57062 0.17563 0.0
C594 C 0.57799 0.60069 0.15043 0.0
C595 C 0.58382 0.59137 0.13243 0.0
C596 C 0.57779 0.57132 0.13573 0.0
C597 C 0.56671 0.56101 0.15706 0.0
H598 H 0.40151 0.02141 0.10046 0.0
H599 H 0.42992 1.00104 0.04817 0.0
H600 H 0.42007 0.01804 0.13579 0.0
H601 H 0.44887 0.99822 0.08348 0.0
H602 H 0.49296 0.02261 0.15679 0.0
H603 H 0.47569 0.02466 0.11898 0.0
H604 H 0.41975 0.9849 0.15386 0.0
H605 H 0.43675 0.98187 0.19092 0.0
C606 C 0.41184 0.0164 0.09651 0.0
C607 C 0.41423 1.0114 0.07164 0.0
C608 C 0.42238 0.01441 0.11668 0.0
C609 C 0.43583 1.00785 0.11225 0.0
C610 C 0.43862 1.00336 0.08731 0.0
C611 C 0.42774 1.0049 0.06721 0.0
C612 C 0.477 0.01391 0.15616 0.0
C613 C 0.46628 1.00233 0.17716 0.0
C614 C 0.46715 0.01521 0.1346 0.0
C615 C 0.44644 1.00521 0.13383 0.0
C616 C 0.43574 0.99304 0.15425 0.0
C617 C 0.44553 0.99141 0.1755 0.0
H618 H 0.3902 0.99958 0.92223 0.0
H619 H 0.4395 0.02066 0.97399 0.0
H620 H 0.41053 0.99809 0.88814 0.0
H621 H 0.45948 0.01795 0.9407 0.0
H622 H 0.49694 0.03462 0.86856 0.0
H623 H 0.4767 0.03301 0.90452 0.0
H624 H 0.42624 0.98277 0.87023 0.0
H625 H 0.44649 0.98543 0.83349 0.0
C626 C 0.40533 1.00364 0.92635 0.0
C627 C 0.41335 1.01046 0.95062 0.0
C628 C 0.41699 1.00261 0.90689 0.0
C629 C 0.43682 1.00795 0.91145 0.0
C630 C 0.44453 0.01418 0.9361 0.0
C631 C 0.43302 0.01565 0.95531 0.0
C632 C 0.48162 0.02299 0.86907 0.0
C633 C 0.47327 1.0101 0.84839 0.0
C634 C 0.46993 0.02201 0.88972 0.0
C635 C 0.44963 1.00783 0.89042 0.0
C636 C 0.44162 0.99422 0.87021 0.0
C637 C 0.45325 0.9955 0.84931 0.0
H638 H 0.04027 0.40365 0.91822 0.0
H639 H 0.03087 0.43929 0.97269 0.0
H640 H 0.04144 0.42518 0.88396 0.0
H641 H 0.03297 0.46141 0.93876 0.0
H642 H 1.0098 0.47867 0.86831 0.0
H643 H 1.01389 0.46191 0.90477 0.0
H644 H 0.05864 0.45616 0.86398 0.0
H645 H 0.05385 0.47228 0.82713 0.0
C646 C 0.03878 0.41629 0.92289 0.0
C647 C 0.0353 0.41969 0.94806 0.0
C648 C 0.03961 0.42877 0.90328 0.0
C649 C 0.03723 0.44509 0.90847 0.0
C650 C 0.03446 0.44881 0.93389 0.0
C651 C 0.03336 0.43618 0.95339 0.0
C652 C 0.02084 0.47424 0.86741 0.0
C653 C 0.03145 0.47671 0.8449 0.0
C654 C 0.02322 0.4646 0.88833 0.0
C655 C 0.03646 0.45741 0.88733 0.0
C656 C 0.04796 0.46103 0.86527 0.0
C657 C 0.04539 0.47044 0.84424 0.0
H658 H 0.62584 0.59547 0.96344 0.0
H659 H 0.61457 0.64038 0.93424 0.0
H660 H 0.60518 0.57299 0.93 0.0
H661 H 0.59392 0.61782 0.90056 0.0
H662 H 0.59231 0.55239 0.84604 0.0
H663 H 0.60904 0.57237 0.88329 0.0
H664 H 0.56206 0.58545 0.89294 0.0
H665 H 0.54525 0.56529 0.85526 0.0
C666 C 0.61891 0.60053 0.94989 0.0
C667 C 0.62196 0.61975 0.95131 0.0
C668 C 0.60709 0.58765 0.93074 0.0
C669 C 0.59796 0.59365 0.91263 0.0
C670 C 0.6006 0.61272 0.91441 0.0
C671 C 0.61256 0.62568 0.93353 0.0
C672 C 0.58545 0.55935 0.85632 0.0
C673 C 0.56755 0.55737 0.84785 0.0
C674 C 0.59497 0.57071 0.8777 0.0
C675 C 0.58688 0.58051 0.89101 0.0
C676 C 0.56869 0.57817 0.8829 0.0
C677 C 0.559 0.56655 0.86156 0.0
H678 H 0.04353 0.63165 0.9436 0.0
H679 H 0.98076 0.59668 0.95665 0.0
H680 H 0.0408 0.60895 0.9098 0.0
H681 H 0.97805 0.57398 0.92302 0.0
H682 H 0.9798 0.55565 0.83909 0.0
H683 H 0.98131 0.57508 0.87619 0.0
H684 H 0.033 0.57418 0.90291 0.0
H685 H 0.03155 0.55482 0.8655 0.0
C686 C 0.02917 0.61911 0.93928 0.0
C687 C 1.01235 0.61602 0.9527 0.0
C688 C 0.02763 0.60601 0.92008 0.0
C689 C 1.00921 0.58963 0.91376 0.0
C690 C 0.99242 0.58653 0.92728 0.0
C691 C 0.99399 0.59953 0.94658 0.0
C692 C 0.9913 0.55936 0.8531 0.0
C693 C 1.00557 0.55376 0.84939 0.0
C694 C 0.99215 0.57044 0.8744 0.0
C695 C 1.00738 0.57632 0.89241 0.0
C696 C 0.02123 0.57008 0.88921 0.0
C697 C 0.02026 0.5588 0.86798 0.0
H698 H 0.43352 0.3898 0.94904 0.0
H699 H 0.40595 0.42559 0.95013 0.0
H700 H 0.45466 0.40949 0.91406 0.0
H701 H 0.42701 0.44523 0.91483 0.0
H702 H 0.48084 0.48764 0.86695 0.0
H703 H 0.46206 0.46914 0.90447 0.0
H704 H 0.45134 0.41494 0.86905 0.0
H705 H 0.47029 0.4334 0.83201 0.0
C706 C 0.4319 0.40182 0.94171 0.0
C707 C 0.41798 0.40607 0.95227 0.0
C708 C 0.444 0.4131 0.92162 0.0
C709 C 0.44257 0.42897 0.91164 0.0
C710 C 0.42868 0.43327 0.92228 0.0
C711 C 0.41648 0.42191 0.94233 0.0
C712 C 0.47475 0.47182 0.86747 0.0
C713 C 0.47697 0.46195 0.84654 0.0
C714 C 0.4638 0.4612 0.88878 0.0
C715 C 0.45506 0.44053 0.88969 0.0
C716 C 0.45795 0.43083 0.8691 0.0
C717 C 0.46873 0.44139 0.84779 0.0
H718 H 0.61311 0.99307 0.94867 0.0
H719 H 0.64427 0.05644 0.95668 0.0
H720 H 0.59316 0.99538 0.91446 0.0
H721 H 0.62429 0.05874 0.92267 0.0
H722 H 0.60261 0.05412 0.83907 0.0
H723 H 0.62082 0.05327 0.87629 0.0
H724 H 0.56731 1.00457 0.90673 0.0
H725 H 0.5491 1.00533 0.86916 0.0
C726 C 0.61568 1.00748 0.94314 0.0
C727 C 0.63033 0.02457 0.95527 0.0
C728 C 0.60414 1.0088 0.92371 0.0
C729 C 0.6071 0.02725 0.91589 0.0
C730 C 0.62174 0.04432 0.9281 0.0
C731 C 0.63317 0.043 0.94762 0.0
C732 C 0.5947 0.04342 0.8539 0.0
C733 C 0.57446 0.02976 0.85122 0.0
C734 C 0.6051 0.04297 0.87526 0.0
C735 C 0.59555 0.02874 0.89437 0.0
C736 C 0.57513 0.01554 0.89216 0.0
C737 C 0.56466 0.01612 0.87085 0.0
H738 H 0.65131 0.03489 0.1041 0.0
H739 H 0.60219 0.01277 0.0519 0.0
H740 H 0.6304 0.0352 0.13813 0.0
H741 H 0.58149 0.01423 0.08531 0.0
H742 H 0.54396 0.99586 0.1579 0.0
H743 H 0.56443 0.99855 0.12159 0.0
H744 H 0.61387 0.04966 0.15603 0.0
H745 H 0.59347 0.04598 0.19301 0.0
C746 C 0.63608 0.03036 0.09986 0.0
C747 C 0.62833 0.02365 0.07545 0.0
C748 C 0.62407 0.03071 0.11931 0.0
C749 C 0.6041 0.02475 0.11468 0.0
C750 C 0.59659 0.01853 0.08993 0.0
C751 C 0.6085 0.01779 0.07066 0.0
C752 C 0.5591 1.00789 0.15735 0.0
C753 C 0.56716 0.02074 0.17814 0.0
C754 C 0.57091 1.0095 0.13651 0.0
C755 C 0.59102 0.02423 0.13577 0.0
C756 C 0.59867 0.03779 0.15608 0.0
C757 C 0.58694 0.03591 0.17714 0.0
H758 H 0.04629 0.62622 0.06835 0.0
H759 H 0.98439 0.60508 0.08081 0.0
H760 H 0.04593 0.60476 0.10207 0.0
H761 H 0.98379 0.58305 0.11411 0.0
H762 H 0.998 0.56661 0.1928 0.0
H763 H 0.99524 0.58421 0.15638 0.0
H764 H 0.03453 0.57132 0.11369 0.0
H765 H 0.03807 0.55456 0.15071 0.0
C766 C 0.03255 0.61687 0.0782 0.0
C767 C 1.0154 0.61743 0.07202 0.0
C768 C 0.03228 0.60438 0.0974 0.0
C769 C 1.0148 0.59203 0.11081 0.0
C770 C 0.99758 0.59249 0.10442 0.0
C771 C 0.99789 0.60509 0.08529 0.0
C772 C 1.00598 0.56744 0.17559 0.0
C773 C 0.01849 0.55941 0.17483 0.0
C774 C 1.00424 0.57739 0.15457 0.0
C775 C 1.01487 0.57947 0.13212 0.0
C776 C 0.02646 0.57039 0.13084 0.0
C777 C 0.02826 0.5605 0.15195 0.0
H778 H 0.44296 0.43343 0.05154 0.0
H779 H 0.4104 0.3862 0.10491 0.0
H780 H 0.4653 0.45349 0.08539 0.0
H781 H 0.43196 0.40656 0.1392 0.0
H782 H 0.4794 0.44159 0.19561 0.0
H783 H 0.46283 0.42114 0.15851 0.0
H784 H 0.46668 0.47193 0.12054 0.0
H785 H 0.48413 0.49233 0.15712 0.0
C786 C 0.44054 0.42739 0.0706 0.0
C787 C 0.4249 0.40829 0.07563 0.0
C788 C 0.45329 0.43893 0.0901 0.0
C789 C 0.45049 0.43181 0.11524 0.0
C790 C 0.43492 0.41252 0.12009 0.0
C791 C 0.42239 0.40085 0.10047 0.0
C792 C 0.47707 0.44837 0.17901 0.0
C793 C 0.48308 0.46852 0.17914 0.0
C794 C 0.46735 0.43664 0.15785 0.0
C795 C 0.46305 0.44471 0.1365 0.0
C796 C 0.46989 0.46512 0.13634 0.0
C797 C 0.47992 0.47689 0.15734 0.0
H798 H 0.67506 0.72379 0.43099 0.0
H799 H 0.71126 0.77618 0.38675 0.0
H800 H 0.67475 0.74409 0.46584 0.0
H801 H 0.71031 0.79655 0.42116 0.0
H802 H 0.7214 0.82725 0.49969 0.0
H803 H 0.72192 0.80844 0.46278 0.0
H804 H 0.66143 0.76379 0.47809 0.0
H805 H 0.66144 0.78223 0.51543 0.0
C806 C 0.68285 0.73966 0.42867 0.0
C807 C 0.69319 0.74838 0.40616 0.0
C808 C 0.68254 0.75134 0.44856 0.0
C809 C 0.69237 0.77204 0.44633 0.0
C810 C 0.70277 0.78073 0.42375 0.0
C811 C 0.70324 0.76903 0.40396 0.0
C812 C 0.70819 0.81356 0.49478 0.0
C813 C 0.69139 0.80611 0.51026 0.0
C814 C 0.70843 0.80275 0.47367 0.0
C815 C 0.69179 0.78439 0.46756 0.0
C816 C 0.6747 0.77755 0.48252 0.0
C817 C 0.67458 0.7882 0.50373 0.0
H818 H 0.27453 0.97326 0.40805 0.0
H819 H 0.3025 0.93783 0.40868 0.0
H820 H 0.25251 0.95315 0.4421 0.0
H821 H 0.28066 0.91786 0.44317 0.0
H822 H 0.22752 0.87537 0.49071 0.0
H823 H 0.24598 0.89376 0.45299 0.0
H824 H 0.25468 0.94771 0.487 0.0
H825 H 0.23595 0.92932 0.52417 0.0
C826 C 0.27605 0.96123 0.41557 0.0
C827 C 0.29034 0.95721 0.40578 0.0
C828 C 0.26344 0.94971 0.43512 0.0
C829 C 0.26479 0.93387 0.44538 0.0
C830 C 0.27903 0.92977 0.43546 0.0
C831 C 0.29168 0.94133 0.41589 0.0
C832 C 0.23302 0.89109 0.48978 0.0
C833 C 0.23038 0.90093 0.51039 0.0
C834 C 0.2438 0.90166 0.46837 0.0
C835 C 0.25199 0.92225 0.46707 0.0
C836 C 0.2485 0.93188 0.48724 0.0
C837 C 0.23785 0.92136 0.50861 0.0
H838 H 0.09564 0.33363 0.3845 0.0
H839 H 0.07077 0.3595 0.43393 0.0
H840 H 0.11494 0.33199 0.42011 0.0
H841 H 0.08981 0.35745 0.46969 0.0
H842 H 0.10738 0.32591 0.53018 0.0
H843 H 0.08926 0.32748 0.49345 0.0
H844 H 0.14344 0.35766 0.45071 0.0
H845 H 0.16195 0.357 0.48801 0.0
C846 C 0.09426 0.33892 0.403 0.0
C847 C 0.08165 0.34664 0.40649 0.0
C848 C 0.10539 0.33807 0.42329 0.0
C849 C 0.10382 0.34455 0.4476 0.0
C850 C 0.09119 0.35224 0.45113 0.0
C851 C 0.08035 0.35347 0.4307 0.0
C852 C 0.11556 0.33308 0.51309 0.0
C853 C 0.13625 0.3417 0.51231 0.0
C854 C 0.10511 0.3339 0.49203 0.0
C855 C 0.11499 0.34294 0.46941 0.0
C856 C 0.13549 0.35064 0.468 0.0
C857 C 0.14606 0.35013 0.4893 0.0
H858 H 0.11194 0.36488 0.30413 0.0
H859 H 0.06227 0.34258 0.25269 0.0
H860 H 0.13345 0.36754 0.26879 0.0
H861 H 0.08398 0.34572 0.21717 0.0
H862 H 0.13556 0.37901 0.15956 0.0
H863 H 0.11515 0.37656 0.19588 0.0
H864 H 0.13544 0.34225 0.23642 0.0
H865 H 0.15518 0.34371 0.19953 0.0
C866 C 0.10563 0.36059 0.28525 0.0
C867 C 0.08543 0.35355 0.28113 0.0
C868 C 0.11794 0.36204 0.26509 0.0
C869 C 0.11037 0.35689 0.2403 0.0
C870 C 0.09018 0.3499 0.23612 0.0
C871 C 0.07777 0.34803 0.25641 0.0
C872 C 0.13561 0.37077 0.17607 0.0
C873 C 0.14682 0.36126 0.17632 0.0
C874 C 0.12393 0.36944 0.19689 0.0
C875 C 0.12352 0.359 0.21876 0.0
C876 C 0.13549 0.35038 0.21972 0.0
C877 C 0.14692 0.35137 0.19865 0.0
H878 H 0.65829 0.7385 0.29253 0.0
H879 H 0.71872 0.75852 0.2715 0.0
H880 H 0.65597 0.75852 0.25866 0.0
H881 H 0.71635 0.77853 0.23743 0.0
H882 H 0.70931 0.82547 0.19291 0.0
H883 H 0.71205 0.80807 0.23022 0.0
H884 H 0.65563 0.75733 0.21158 0.0
H885 H 0.65293 0.77468 0.1747 0.0
C886 C 0.67109 0.74717 0.28065 0.0
C887 C 0.68865 0.74683 0.28456 0.0
C888 C 0.66975 0.75862 0.26124 0.0
C889 C 0.68598 0.7701 0.24537 0.0
C890 C 0.70366 0.77001 0.24952 0.0
C891 C 0.70496 0.75842 0.26886 0.0
C892 C 0.69742 0.81072 0.19712 0.0
C893 C 0.68093 0.80138 0.18097 0.0
C894 C 0.69905 0.8007 0.21827 0.0
C895 C 0.68408 0.7813 0.22378 0.0
C896 C 0.66733 0.7723 0.20801 0.0
C897 C 0.66582 0.78218 0.18682 0.0
H898 H 0.30061 0.9779 0.25472 0.0
H899 H 0.26541 0.93273 0.30943 0.0
H900 H 0.27876 0.95746 0.22067 0.0
H901 H 0.24296 0.9126 0.27569 0.0
H902 H 0.22372 0.87226 0.20473 0.0
H903 H 0.24122 0.89287 0.24125 0.0
H904 H 0.24772 0.94402 0.20127 0.0
H905 H 0.23097 0.92336 0.16441 0.0
C906 C 0.28801 0.96371 0.2595 0.0
C907 C 0.28481 0.95687 0.2847 0.0
C908 C 0.27534 0.952 0.24 0.0
C909 C 0.25898 0.93326 0.24529 0.0
C910 C 0.25554 0.92673 0.27071 0.0
C911 C 0.26836 0.93833 0.29012 0.0
C912 C 0.22848 0.88783 0.20408 0.0
C913 C 0.22604 0.89623 0.18179 0.0
C914 C 0.23856 0.89972 0.22501 0.0
C915 C 0.24621 0.92027 0.22422 0.0
C916 C 0.24255 0.92839 0.20241 0.0
C917 C 0.23273 0.91654 0.18138 0.0
H918 H 0.69666 0.9759 0.2606 0.0
H919 H 0.67949 0.92751 0.31297 0.0
H920 H 0.69316 0.95424 0.22509 0.0
H921 H 0.67627 0.9059 0.27735 0.0
H922 H 0.69656 0.88442 0.20381 0.0
H923 H 0.699 0.9035 0.242 0.0
H924 H 0.66256 0.92338 0.20603 0.0
H925 H 0.65948 0.90391 0.16839 0.0
C926 C 0.69234 0.9607 0.26454 0.0
C927 C 0.68828 0.95337 0.28951 0.0
C928 C 0.69023 0.94828 0.24423 0.0
C929 C 0.68431 0.92838 0.24852 0.0
C930 C 0.68088 0.92119 0.27357 0.0
C931 C 0.68267 0.93354 0.29388 0.0
C932 C 0.68869 0.89248 0.2043 0.0
C933 C 0.67809 0.89288 0.18288 0.0
C934 C 0.69019 0.90348 0.22608 0.0
C935 C 0.68128 0.91518 0.22669 0.0
C936 C 0.66992 0.91481 0.20581 0.0
C937 C 0.6682 0.90367 0.18427 0.0
H938 H 0.10295 0.76643 0.30962 0.0
H939 H 0.06199 0.72203 0.25759 0.0
H940 H 0.12392 0.78513 0.27401 0.0
H941 H 0.08288 0.74094 0.22181 0.0
H942 H 0.13569 0.76668 0.16839 0.0
H943 H 0.11532 0.74922 0.205 0.0
H944 H 0.12551 0.80444 0.23648 0.0
H945 H 0.14594 0.82195 0.19968 0.0
C946 C 0.0983 0.76077 0.29052 0.0
C947 C 0.08084 0.74271 0.2864 0.0
C948 C 0.11031 0.77155 0.2701 0.0
C949 C 0.10518 0.76447 0.24508 0.0
C950 C 0.08742 0.74664 0.24091 0.0
C951 C 0.07536 0.73589 0.26136 0.0
C952 C 0.13365 0.77511 0.18318 0.0
C953 C 0.14231 0.79569 0.18104 0.0
C954 C 0.12188 0.76509 0.20408 0.0
C955 C 0.1185 0.77538 0.22346 0.0
C956 C 0.12785 0.79607 0.2219 0.0
C957 C 0.13964 0.80612 0.2009 0.0
H958 H 0.30114 0.33384 0.25824 0.0
H959 H 0.27239 0.35436 0.30966 0.0
H960 H 0.27944 0.33223 0.22394 0.0
H961 H 0.24996 0.35184 0.2758 0.0
H962 H 0.23198 0.3698 0.20112 0.0
H963 H 0.24936 0.36773 0.23847 0.0
H964 H 0.24758 0.31594 0.20684 0.0
H965 H 0.23108 0.31879 0.169 0.0
C966 C 0.28997 0.33773 0.26227 0.0
C967 C 0.28855 0.34436 0.28654 0.0
C968 C 0.27736 0.33665 0.24266 0.0
C969 C 0.26283 0.34188 0.24698 0.0
C970 C 0.26115 0.34803 0.27155 0.0
C971 C 0.27395 0.34939 0.29103 0.0
C972 C 0.23495 0.35775 0.20252 0.0
C973 C 0.23029 0.34449 0.18225 0.0
C974 C 0.24492 0.35651 0.22392 0.0
C975 C 0.25019 0.34181 0.22564 0.0
C976 C 0.24429 0.32778 0.20595 0.0
C977 C 0.23462 0.32923 0.1844 0.0
H978 H 0.30985 0.37948 0.41657 0.0
H979 H 0.27019 0.31811 0.39902 0.0
H980 H 0.28758 0.37769 0.45049 0.0
H981 H 0.24779 0.31646 0.4321 0.0
H982 H 0.22766 0.31349 0.51407 0.0
H983 H 0.24765 0.3163 0.47738 0.0
H984 H 0.25499 0.37354 0.46042 0.0
H985 H 0.23525 0.37087 0.49812 0.0
C986 C 0.29635 0.36567 0.41987 0.0
C987 C 0.29191 0.34887 0.40539 0.0
C988 C 0.28349 0.36468 0.43911 0.0
C989 C 0.26593 0.3469 0.44414 0.0
C990 C 0.26134 0.3303 0.42911 0.0
C991 C 0.27419 0.33125 0.41009 0.0
C992 C 0.23345 0.32665 0.50244 0.0
C993 C 0.23003 0.34203 0.50905 0.0
C994 C 0.24479 0.32821 0.48124 0.0
C995 C 0.25298 0.34516 0.46589 0.0
C996 C 0.24908 0.36038 0.47202 0.0
C997 C 0.23761 0.35878 0.49338 0.0
H998 H 0.65252 0.94114 0.41706 0.0
H999 H 0.71511 0.96318 0.41053 0.0
H1000 H 0.65043 0.9187 0.45086 0.0
H1001 H 0.71311 0.94107 0.44443 0.0
H1002 H 0.70187 0.88825 0.49059 0.0
H1003 H 0.70005 0.90618 0.45359 0.0
H1004 H 0.66104 0.92021 0.49488 0.0
H1005 H 0.66242 0.90183 0.53149 0.0
C1006 C 0.66583 0.94126 0.42293 0.0
C1007 C 0.68398 0.95397 0.4112 0.0
C1008 C 0.66465 0.92842 0.44229 0.0
C1009 C 0.68158 0.92798 0.45024 0.0
C1010 C 0.69971 0.94074 0.43846 0.0
C1011 C 0.7009 0.95358 0.4192 0.0
C1012 C 0.69252 0.89474 0.4915 0.0
C1013 C 0.68242 0.89377 0.51402 0.0
C1014 C 0.69168 0.90523 0.47044 0.0
C1015 C 0.68064 0.91489 0.4714 0.0
C1016 C 0.66964 0.91293 0.49343 0.0
C1017 C 0.67053 0.9025 0.51448 0.0
H1018 H 0.09922 0.72443 0.41968 0.0
H1019 H 0.07472 0.76224 0.40665 0.0
H1020 H 0.11985 0.7464 0.45394 0.0
H1021 H 0.09545 0.7842 0.44022 0.0
H1022 H 0.11404 0.80276 0.52239 0.0
H1023 H 0.09616 0.78243 0.48609 0.0
H1024 H 0.14803 0.78041 0.46305 0.0
H1025 H 0.16595 0.80064 0.50019 0.0
C1026 C 0.09828 0.73742 0.4241 0.0
C1027 C 0.08519 0.74149 0.4107 0.0
C1028 C 0.11022 0.75009 0.44351 0.0
C1029 C 0.10923 0.767 0.44987 0.0
C1030 C 0.09636 0.77116 0.43608 0.0
C1031 C 0.08448 0.75855 0.4168 0.0
C1032 C 0.12167 0.79804 0.50954 0.0
C1033 C 0.14134 0.80317 0.51417 0.0
C1034 C 0.11146 0.78649 0.48862 0.0
C1035 C 0.12066 0.77979 0.47165 0.0
C1036 C 0.1405 0.78522 0.47594 0.0
C1037 C 0.15081 0.79694 0.49697 0.0
H1038 H 0.38329 0.10541 0.72553 0.0
H1039 H 0.32508 0.05997 0.74862 0.0
H1040 H 0.3841 0.1262 0.76055 0.0
H1041 H 0.32593 0.08091 0.78379 0.0
H1042 H 0.38813 0.14149 0.84638 0.0
H1043 H 0.38579 0.12295 0.80802 0.0
H1044 H 0.32768 0.11413 0.79312 0.0
H1045 H 0.33012 0.13291 0.83181 0.0
C1046 C 0.3706 0.09991 0.73799 0.0
C1047 C 0.35418 0.08099 0.73446 0.0
C1048 C 0.3711 0.11181 0.75806 0.0
C1049 C 0.35512 0.10514 0.77494 0.0
C1050 C 0.33839 0.08648 0.77094 0.0
C1051 C 0.33797 0.07446 0.75094 0.0
C1052 C 0.37491 0.1357 0.8348 0.0
C1053 C 0.35928 0.13856 0.84201 0.0
C1054 C 0.37361 0.12519 0.81279 0.0
C1055 C 0.35656 0.1171 0.79759 0.0
C1056 C 0.34095 0.12013 0.8046 0.0
C1057 C 0.34239 0.13095 0.82655 0.0
H1058 H 0.98905 0.29917 0.76885 0.0
H1059 H 0.9407 0.26384 0.71778 0.0
H1060 H 0.96912 0.27943 0.80482 0.0
H1061 H 0.92092 0.24389 0.75383 0.0
H1062 H 0.90126 0.20483 0.83011 0.0
H1063 H 0.92186 0.2205 0.79243 0.0
H1064 H 0.93582 0.27764 0.82093 0.0
H1065 H 0.91471 0.26229 0.85744 0.0
C1066 C 0.97432 0.28698 0.76526 0.0
C1067 C 0.96635 0.28315 0.74058 0.0
C1068 C 0.96293 0.27571 0.78581 0.0
C1069 C 0.94351 0.26021 0.782 0.0
C1070 C 0.9359 0.25569 0.75718 0.0
C1071 C 0.94717 0.26717 0.73665 0.0
C1072 C 0.90855 0.2207 0.82818 0.0
C1073 C 0.90659 0.23228 0.84716 0.0
C1074 C 0.9204 0.22964 0.80673 0.0
C1075 C 0.93068 0.25027 0.80416 0.0
C1076 C 0.92843 0.26174 0.8228 0.0
C1077 C 0.91639 0.25288 0.84381 0.0
H1078 H 0.74039 0.69889 0.7613 0.0
H1079 H 0.77012 0.6789 0.71076 0.0
H1080 H 0.76212 0.70117 0.79593 0.0
H1081 H 0.79256 0.68207 0.74497 0.0
H1082 H 0.81071 0.66504 0.8202 0.0
H1083 H 0.79319 0.66648 0.78263 0.0
H1084 H 0.79392 0.71801 0.81334 0.0
H1085 H 0.81063 0.71585 0.85138 0.0
C1086 C 0.75179 0.69527 0.75753 0.0
C1087 C 0.75347 0.6886 0.7334 0.0
C1088 C 0.7644 0.69673 0.77733 0.0
C1089 C 0.77921 0.69182 0.77338 0.0
C1090 C 0.78116 0.68564 0.74894 0.0
C1091 C 0.76836 0.68392 0.72925 0.0
C1092 C 0.80747 0.6769 0.81858 0.0
C1093 C 0.81193 0.69028 0.83867 0.0
C1094 C 0.79742 0.67777 0.79704 0.0
C1095 C 0.79184 0.69223 0.79496 0.0
C1096 C 0.79746 0.70635 0.81449 0.0
C1097 C 0.80723 0.70528 0.83618 0.0
H1098 H 0.7341 0.65143 0.60655 0.0
H1099 H 0.76909 0.7144 0.61756 0.0
H1100 H 0.75676 0.65346 0.57305 0.0
H1101 H 0.7919 0.71639 0.58479 0.0
H1102 H 0.81229 0.71608 0.50365 0.0
H1103 H 0.79171 0.71355 0.53956 0.0
H1104 H 0.79053 0.66036 0.56402 0.0
H1105 H 0.81091 0.66268 0.52719 0.0
C1106 C 0.74665 0.66568 0.60187 0.0
C1107 C 0.74967 0.68278 0.61449 0.0
C1108 C 0.75975 0.66682 0.58287 0.0
C1109 C 0.77614 0.6851 0.57612 0.0
C1110 C 0.77927 0.70211 0.58914 0.0
C1111 C 0.76619 0.70097 0.608 0.0
C1112 C 0.80772 0.70387 0.51675 0.0
C1113 C 0.8131 0.6895 0.5125 0.0
C1114 C 0.79603 0.70249 0.53749 0.0
C1115 C 0.7894 0.68673 0.55474 0.0
C1116 C 0.7952 0.67257 0.55094 0.0
C1117 C 0.80704 0.674 0.53006 0.0
H1118 H 0.38263 0.0934 0.60788 0.0
H1119 H 0.31942 0.06259 0.61817 0.0
H1120 H 0.3796 0.11282 0.5736 0.0
H1121 H 0.31641 0.08208 0.58413 0.0
H1122 H 0.36908 0.15662 0.52911 0.0
H1123 H 0.37065 0.13861 0.56625 0.0
H1124 H 0.32052 0.08526 0.53774 0.0
H1125 H 0.31877 0.10333 0.50097 0.0
C1126 C 0.36811 0.09079 0.60282 0.0
C1127 C 0.35127 0.07641 0.61564 0.0
C1128 C 0.36638 0.10202 0.58335 0.0
C1129 C 0.34776 0.09904 0.57618 0.0
C1130 C 0.33094 0.08464 0.58903 0.0
C1131 C 0.33268 0.0735 0.60857 0.0
C1132 C 0.35815 0.14115 0.5311 0.0
C1133 C 0.34383 0.13138 0.51211 0.0
C1134 C 0.3592 0.13078 0.55218 0.0
C1135 C 0.34584 0.11046 0.55482 0.0
C1136 C 0.33098 0.10091 0.53637 0.0
C1137 C 0.33003 0.11123 0.51524 0.0
H1138 H 0.9451 0.29665 0.61579 0.0
H1139 H 0.98172 0.27004 0.61979 0.0
H1140 H 0.92544 0.2735 0.58215 0.0
H1141 H 0.96193 0.24673 0.58656 0.0
H1142 H 0.93849 0.2279 0.50432 0.0
H1143 H 0.95649 0.24745 0.54128 0.0
H1144 H 0.90193 0.23843 0.57373 0.0
H1145 H 0.88395 0.21913 0.53624 0.0
C1146 C 0.94892 0.28584 0.60951 0.0
C1147 C 0.96504 0.28528 0.6203 0.0
C1148 C 0.93754 0.27244 0.59043 0.0
C1149 C 0.94207 0.25821 0.58168 0.0
C1150 C 0.95814 0.25761 0.59264 0.0
C1151 C 0.96948 0.27097 0.61172 0.0
C1152 C 0.93032 0.22985 0.51954 0.0
C1153 C 0.90985 0.22208 0.51736 0.0
C1154 C 0.94061 0.24099 0.54079 0.0
C1155 C 0.93069 0.24468 0.56039 0.0
C1156 C 0.91005 0.23611 0.55878 0.0
C1157 C 0.89971 0.22484 0.53751 0.0
H1158 H 0.35711 0.26451 0.64075 0.0
H1159 H 0.37305 0.31294 0.58897 0.0
H1160 H 0.36087 0.24559 0.60669 0.0
H1161 H 0.37595 0.29376 0.55451 0.0
H1162 H 0.39171 0.26087 0.49898 0.0
H1163 H 0.39386 0.28003 0.5367 0.0
H1164 H 0.34454 0.22824 0.5698 0.0
H1165 H 0.34304 0.20909 0.53254 0.0
C1166 C 0.36138 0.27109 0.62202 0.0
C1167 C 0.36471 0.29017 0.61748 0.0
C1168 C 0.36344 0.2602 0.60243 0.0
C1169 C 0.36862 0.26802 0.5777 0.0
C1170 C 0.37227 0.28731 0.57334 0.0
C1171 C 0.37046 0.29829 0.59305 0.0
C1172 C 0.38163 0.25356 0.51462 0.0
C1173 C 0.3672 0.23351 0.51287 0.0
C1174 C 0.3827 0.26456 0.53613 0.0
C1175 C 0.36919 0.25583 0.55625 0.0
C1176 C 0.35537 0.2355 0.55492 0.0
C1177 C 0.35448 0.22446 0.53354 0.0
H1178 H 0.77505 0.07204 0.62687 0.0
H1179 H 0.73312 0.09025 0.60674 0.0
H1180 H 0.79666 0.09218 0.59254 0.0
H1181 H 0.75484 0.11044 0.57213 0.0
H1182 H 0.8086 0.15789 0.52632 0.0
H1183 H 0.78877 0.14058 0.56395 0.0
H1184 H 0.79451 0.09004 0.54543 0.0
H1185 H 0.81419 0.10726 0.50824 0.0
C1186 C 0.77045 0.08036 0.61511 0.0
C1187 C 0.75231 0.07943 0.61937 0.0
C1188 C 0.78283 0.09188 0.59542 0.0
C1189 C 0.77744 0.10286 0.5796 0.0
C1190 C 0.75947 0.10228 0.58416 0.0
C1191 C 0.74697 0.0906 0.60381 0.0
C1192 C 0.80578 0.14319 0.5306 0.0
C1193 C 0.81286 0.13387 0.51444 0.0
C1194 C 0.79432 0.13323 0.55193 0.0
C1195 C 0.79007 0.11394 0.5576 0.0
C1196 C 0.79766 0.10493 0.54173 0.0
C1197 C 0.80885 0.11475 0.52038 0.0
H1198 H 0.94885 0.65863 0.61041 0.0
H1199 H 0.97741 0.72145 0.62316 0.0
H1200 H 0.92937 0.66151 0.57599 0.0
H1201 H 0.958 0.72431 0.58875 0.0
H1202 H 0.9382 0.72136 0.50387 0.0
H1203 H 0.95612 0.72 0.5412 0.0
H1204 H 0.90253 0.67036 0.56986 0.0
H1205 H 0.88459 0.67178 0.53237 0.0
C1206 C 0.95099 0.67304 0.60582 0.0
C1207 C 0.9647 0.68982 0.6194 0.0
C1208 C 0.93972 0.67466 0.58629 0.0
C1209 C 0.94211 0.69313 0.57977 0.0
C1210 C 0.95591 0.70991 0.59328 0.0
C1211 C 0.967 0.70825 0.61298 0.0
C1212 C 0.93021 0.71038 0.51839 0.0
C1213 C 0.91003 0.69667 0.5153 0.0
C1214 C 0.94044 0.70962 0.53975 0.0
C1215 C 0.93076 0.69497 0.55833 0.0
C1216 C 0.91041 0.68167 0.55568 0.0
C1217 C 0.9001 0.68261 0.53443 0.0
H1218 H 0.93164 0.67034 0.71565 0.0
H1219 H 0.9788 0.68951 0.77063 0.0
H1220 H 0.90869 0.66652 0.74977 0.0
H1221 H 0.95571 0.68524 0.80476 0.0
H1222 H 0.90295 0.65137 0.85898 0.0
H1223 H 0.92347 0.65373 0.8228 0.0
H1224 H 0.90603 0.69089 0.78359 0.0
H1225 H 0.88611 0.68938 0.82033 0.0
C1226 C 0.93708 0.67371 0.73503 0.0
C1227 C 0.957 0.6802 0.74054 0.0
C1228 C 0.92396 0.67157 0.75447 0.0
C1229 C 0.93044 0.67548 0.77983 0.0
C1230 C 0.95034 0.68198 0.78534 0.0
C1231 C 0.96355 0.68451 0.76584 0.0
C1232 C 0.90345 0.66008 0.84269 0.0
C1233 C 0.89314 0.6705 0.84282 0.0
C1234 C 0.91518 0.66137 0.82199 0.0
C1235 C 0.91654 0.67273 0.80065 0.0
C1236 C 0.90523 0.68206 0.79989 0.0
C1237 C 0.89372 0.68106 0.82086 0.0
H1238 H 0.32826 0.26856 0.74033 0.0
H1239 H 0.39158 0.30653 0.73938 0.0
H1240 H 0.33141 0.24905 0.77437 0.0
H1241 H 0.39476 0.2869 0.77306 0.0
H1242 H 0.38835 0.26282 0.85521 0.0
H1243 H 0.38725 0.28091 0.81813 0.0
H1244 H 0.34367 0.2262 0.78342 0.0
H1245 H 0.34453 0.20811 0.82099 0.0
C1246 C 0.34284 0.27271 0.74736 0.0
C1247 C 0.35966 0.28916 0.7373 0.0
C1248 C 0.34467 0.26142 0.76668 0.0
C1249 C 0.36335 0.26637 0.7764 0.0
C1250 C 0.38015 0.28279 0.76619 0.0
C1251 C 0.37833 0.29403 0.74687 0.0
C1252 C 0.37874 0.25464 0.83949 0.0
C1253 C 0.36645 0.23408 0.84102 0.0
C1254 C 0.37816 0.26499 0.81818 0.0
C1255 C 0.36523 0.25503 0.79788 0.0
C1256 C 0.35358 0.23433 0.79891 0.0
C1257 C 0.35425 0.22395 0.82024 0.0
H1258 H 0.7645 0.0677 0.74998 0.0
H1259 H 0.73865 0.10367 0.73242 0.0
H1260 H 0.78469 0.09115 0.78313 0.0
H1261 H 0.75877 0.12704 0.76555 0.0
H1262 H 0.77795 0.14599 0.85032 0.0
H1263 H 0.76006 0.12625 0.81324 0.0
H1264 H 0.81263 0.12651 0.78807 0.0
H1265 H 0.83055 0.14636 0.82531 0.0
C1266 C 0.76314 0.0806 0.7532 0.0
C1267 C 0.74992 0.08379 0.73869 0.0
C1268 C 0.77482 0.09412 0.77201 0.0
C1269 C 0.77337 0.11098 0.77688 0.0
C1270 C 0.76015 0.11415 0.76233 0.0
C1271 C 0.74865 0.10077 0.74335 0.0
C1272 C 0.78576 0.14215 0.83656 0.0
C1273 C 0.80561 0.1477 0.84061 0.0
C1274 C 0.77555 0.13087 0.81534 0.0
C1275 C 0.7849 0.12469 0.79787 0.0
C1276 C 0.805 0.13089 0.80138 0.0
C1277 C 0.8153 0.14242 0.82248 0.0
H1278 H 0.05257 0.34177 0.04825 0.0
H1279 H 0.09269 0.38568 0.99527 0.0
H1280 H 0.07891 0.3365 0.06317 0.0
H1281 H 0.11915 0.38008 0.0098 0.0
H1282 H 0.12522 0.32422 0.08485 0.0
H1283 H 0.1013 0.32486 0.05547 0.0
H1284 H 0.13874 0.38798 0.0479 0.0
H1285 H 0.16274 0.38701 0.07656 0.0
C1286 C 0.06695 0.35002 0.03941 0.0
C1287 C 0.07058 0.36427 0.02075 0.0
C1288 C 0.08208 0.34687 0.04781 0.0
C1289 C 0.10126 0.35787 0.03773 0.0
C1290 C 0.10464 0.3715 0.01819 0.0
C1291 C 0.08946 0.37466 0.00978 0.0
C1292 C 0.1287 0.33801 0.07581 0.0
C1293 C 0.14588 0.35552 0.08259 0.0
C1294 C 0.11488 0.33848 0.05934 0.0
C1295 C 0.11785 0.35654 0.04969 0.0
C1296 C 0.13595 0.37378 0.05474 0.0
C1297 C 0.1498 0.37326 0.07108 0.0
H1298 H 0.6421 0.71036 0.0055 0.0
H1299 H 0.69243 0.72165 0.0515 0.0
H1300 H 0.64473 0.74112 0.0207 0.0
H1301 H 0.69512 0.75232 0.06652 0.0
H1302 H 0.70381 0.81163 0.08074 0.0
H1303 H 0.70221 0.78588 0.05282 0.0
H1304 H 0.63914 0.75178 0.06387 0.0
H1305 H 0.64089 0.77759 0.0918 0.0
C1306 C 0.65389 0.71955 0.01856 0.0
C1307 C 0.66701 0.71355 0.02742 0.0
C1308 C 0.65536 0.73712 0.02729 0.0
C1309 C 0.67017 0.74919 0.04473 0.0
C1310 C 0.68372 0.74351 0.0528 0.0
C1311 C 0.68209 0.72585 0.04435 0.0
C1312 C 0.68953 0.79904 0.07616 0.0
C1313 C 0.67242 0.79667 0.08799 0.0
C1314 C 0.68863 0.78418 0.06051 0.0
C1315 C 0.67059 0.76669 0.0564 0.0
C1316 C 0.65323 0.76513 0.06649 0.0
C1317 C 0.65418 0.77994 0.08233 0.0
H1318 H 0.33443 0.97335 0.07522 0.0
H1319 H 0.3161 0.95264 -0.00164 0.0
H1320 H 0.3051 0.9445 0.09163 0.0
H1321 H 0.2862 0.92368 0.01503 0.0
H1322 H 0.22596 0.89567 0.06938 0.0
H1323 H 0.25459 0.9187 0.0437 0.0
H1324 H 0.29233 0.90628 0.09049 0.0
H1325 H 0.26383 0.88328 0.1158 0.0
C1326 C 0.32408 0.96266 0.0618 0.0
C1327 C 0.32759 0.96527 0.03549 0.0
C1328 C 0.30734 0.94605 0.07122 0.0
C1329 C 0.29348 0.93175 0.05461 0.0
C1330 C 0.29671 0.93446 0.02822 0.0
C1331 C 0.31378 0.95098 0.01874 0.0
C1332 C 0.24023 0.89717 0.07327 0.0
C1333 C 0.24273 0.88762 0.09437 0.0
C1334 C 0.25661 0.91043 0.05874 0.0
C1335 C 0.27568 0.91445 0.06538 0.0
C1336 C 0.27782 0.90356 0.0851 0.0
C1337 C 0.26151 0.89027 0.09941 0.0
H1338 H 0.4047 0.08534 0.00833 0.0
H1339 H 0.34666 0.04708 0.97719 0.0
H1340 H 0.40314 0.11416 0.99368 0.0
H1341 H 0.34514 0.07575 0.96245 0.0
H1342 H 0.34102 0.12905 0.94765 0.0
H1343 H 0.34339 0.10499 0.97495 0.0
H1344 H 0.40398 0.12851 0.95169 0.0
H1345 H 0.40149 0.15252 0.92468 0.0
C1346 C 0.39152 0.08309 -0.0014 0.0
C1347 C 0.37585 0.06391 0.99379 0.0
C1348 C 0.39065 0.0996 0.99016 0.0
C1349 C 0.374 0.09733 0.97692 0.0
C1350 C 0.35807 0.07812 0.97292 0.0
C1351 C 0.359 0.06164 0.98118 0.0
C1352 C 0.35509 0.12963 0.9494 0.0
C1353 C 0.37117 0.14281 0.93444 0.0
C1354 C 0.35638 0.11565 0.96467 0.0
C1355 C 0.37379 0.1146 0.96523 0.0
C1356 C 0.39039 0.12895 0.9519 0.0
C1357 C 0.38904 0.14282 0.93654 0.0
H1358 H 0.97175 0.33966 0.95219 0.0
H1359 H 0.97195 0.31391 0.02474 0.0
H1360 H 0.94219 0.30922 0.93977 0.0
H1361 H 0.94229 0.28309 0.01206 0.0
H1362 H 0.91377 0.22837 0.95208 0.0
H1363 H 0.93629 0.25734 0.97726 0.0
H1364 H 0.90604 0.28734 0.95106 0.0
H1365 H 0.88354 0.25827 0.92605 0.0
C1366 C 0.96535 0.32753 0.96559 0.0
C1367 C 0.97421 0.32915 0.9894 0.0
C1368 C 0.9483 0.31013 0.95857 0.0
C1369 C 0.93981 0.29379 0.97502 0.0
C1370 C 0.94848 0.29546 -0.00097 0.0
C1371 C 0.96541 0.31308 0.00628 0.0
C1372 C 0.9113 0.24077 0.95289 0.0
C1373 C 0.89678 0.24104 0.9375 0.0
C1374 C 0.92427 0.25742 0.96713 0.0
C1375 C 0.9231 0.27472 0.96582 0.0
C1376 C 0.9074 0.27428 0.95224 0.0
C1377 C 0.89434 0.25757 0.93823 0.0
H1378 H 0.71357 0.6455 0.01385 0.0
H1379 H 0.71822 0.68905 0.95971 0.0
H1380 H 0.74509 0.64973 -0.00134 0.0
H1381 H 0.74949 0.69329 0.94469 0.0
H1382 H 0.81123 0.70923 0.93291 0.0
H1383 H 0.78393 0.70595 0.9589 0.0
H1384 H 0.75777 0.64262 0.95787 0.0
H1385 H 0.78538 0.64607 0.93197 0.0
C1386 C 0.7214 0.65609 -0.00111 0.0
C1387 C 0.71341 0.66694 0.98796 0.0
C1388 C 0.73939 0.65845 0.99015 0.0
C1389 C 0.74989 0.67196 0.97061 0.0
C1390 C 0.74199 0.68301 0.96007 0.0
C1391 C 0.72397 0.68048 0.96855 0.0
C1392 C 0.80005 0.69468 0.93917 0.0
C1393 C 0.80045 0.67791 0.93069 0.0
C1394 C 0.78428 0.69276 0.95374 0.0
C1395 C 0.76848 0.67401 0.96004 0.0
C1396 C 0.76974 0.65728 0.95341 0.0
C1397 C 0.78559 0.65922 0.93874 0.0
H1398 H 0.9525 0.65024 0.023 0.0
H1399 H 0.98919 0.68577 0.96093 0.0
H1400 H 0.92627 0.65646 0.00903 0.0
H1401 H 0.96311 0.69182 0.94689 0.0
H1402 H 0.91949 0.70908 0.92993 0.0
H1403 H 0.94428 0.70789 0.95699 0.0
H1404 H 0.90357 0.64636 0.97241 0.0
H1405 H 0.87878 0.64784 0.94571 0.0
C1406 C 0.95503 0.65952 0.00653 0.0
C1407 C 0.97288 0.66743 0.99298 0.0
C1408 C 0.93999 0.66305 -0.00149 0.0
C1409 C 0.94258 0.67473 0.97692 0.0
C1410 C 0.96069 0.68306 0.96388 0.0
C1411 C 0.97561 0.67944 0.97178 0.0
C1412 C 0.91556 0.69563 0.94023 0.0
C1413 C 0.89719 0.67863 0.93609 0.0
C1414 C 0.92984 0.69482 0.95535 0.0
C1415 C 0.92607 0.67691 0.96643 0.0
C1416 C 0.90697 0.66041 0.96429 0.0
C1417 C 0.89267 0.66126 0.94916 0.0
H1418 H 0.34064 0.30533 0.99791 0.0
H1419 H 0.40274 0.32447 -0.00151 0.0
H1420 H 0.33314 0.2728 0.98334 0.0
H1421 H 0.39558 0.29253 0.98214 0.0
H1422 H 0.38137 0.23394 0.95451 0.0
H1423 H 0.38364 0.25897 0.98434 0.0
H1424 H 0.33433 0.25845 0.94633 0.0
H1425 H 0.33151 0.23284 0.9181 0.0
C1426 C 0.3527 0.30254 0.99486 0.0
C1427 C 0.37227 0.31747 -0.00094 0.0
C1428 C 0.34845 0.2839 0.98633 0.0
C1429 C 0.36372 0.27988 0.98103 0.0
C1430 C 0.3833 0.29473 0.98626 0.0
C1431 C 0.38748 0.31321 0.99542 0.0
C1432 C 0.37051 0.23861 0.95344 0.0
C1433 C 0.35636 0.23158 0.93392 0.0
C1434 C 0.37202 0.25327 0.97018 0.0
C1435 C 0.35954 0.26133 0.96749 0.0
C1436 C 0.34422 0.25278 0.94939 0.0
C1437 C 0.34257 0.23802 0.93302 0.0
H1438 H 0.72375 0.04832 0.96749 0.0
H1439 H 0.72023 0.08823 0.02095 0.0
H1440 H 0.75489 0.07503 0.95155 0.0
H1441 H 0.75173 0.11507 0.00524 0.0
H1442 H 0.78871 0.1589 0.93885 0.0
H1443 H 0.76285 0.13435 0.96621 0.0
H1444 H 0.78934 0.09767 0.96051 0.0
H1445 H 0.81493 0.12221 0.93267 0.0
C1446 C 0.72978 0.06276 0.9761 0.0
C1447 C 0.71945 0.06618 0.99535 0.0
C1448 C 0.74777 0.07808 0.96712 0.0
C1449 C 0.7559 0.09725 0.97715 0.0
C1450 C 0.74582 0.10054 0.99696 0.0
C1451 C 0.72781 0.08516 0.00601 0.0
C1452 C 0.78941 0.14596 0.94441 0.0
C1453 C 0.80388 0.14249 0.93405 0.0
C1454 C 0.77457 0.13183 0.95999 0.0
C1455 C 0.77384 0.11388 0.9653 0.0
C1456 C 0.78928 0.11118 0.95647 0.0
C1457 C 0.80411 0.12532 0.94088 0.0
H1458 H 0.69084 0.99003 0.06766 0.0
H1459 H 0.65381 0.95434 0.0058 0.0
H1460 H 0.69613 0.96333 0.08072 0.0
H1461 H 0.65923 0.92738 0.01887 0.0
H1462 H 0.65185 0.87924 0.08088 0.0
H1463 H 0.6498 0.90424 0.05534 0.0
H1464 H 0.71184 0.94455 0.06846 0.0
H1465 H 0.71361 0.91962 0.09439 0.0
C1466 C 0.68394 0.9765 0.0567 0.0
C1467 C 0.67184 0.97429 0.03576 0.0
C1468 C 0.68714 0.96122 0.06403 0.0
C1469 C 0.67828 0.94322 0.0507 0.0
C1470 C 0.66627 0.94103 0.02956 0.0
C1471 C 0.66318 0.95647 0.02207 0.0
C1472 C 0.66522 0.89311 0.07718 0.0
C1473 C 0.68293 0.89748 0.08933 0.0
C1474 C 0.66404 0.90751 0.06272 0.0
C1475 C 0.68056 0.92656 0.06031 0.0
C1476 C 0.69874 0.93017 0.07037 0.0
C1477 C 0.69988 0.9158 0.08485 0.0
H1478 H 0.04669 0.71427 0.06123 0.0
H1479 H 0.08388 0.71018 0.00388 0.0
H1480 H 0.07395 0.74594 0.0749 0.0
H1481 H 0.11137 0.74215 0.01758 0.0
H1482 H 0.12025 0.80677 0.08898 0.0
H1483 H 0.09532 0.78041 0.06237 0.0
H1484 H 0.13269 0.75477 0.05605 0.0
H1485 H 0.15763 0.78135 0.08238 0.0
C1486 C 0.06066 0.72024 0.05136 0.0
C1487 C 0.06313 0.70966 0.03155 0.0
C1488 C 0.07628 0.73853 0.05903 0.0
C1489 C 0.09486 0.74672 0.04722 0.0
C1490 C 0.09727 0.73626 0.02711 0.0
C1491 C 0.08153 0.71798 0.01924 0.0
C1492 C 0.1235 0.79605 0.08076 0.0
C1493 C 0.14095 0.79622 0.08734 0.0
C1494 C 0.10911 0.78076 0.0659 0.0
C1495 C 0.11183 0.76525 0.05749 0.0
C1496 C 0.13013 0.7665 0.06208 0.0
C1497 C 0.14452 0.78181 0.07699 0.0
H1498 H 0.32665 0.34871 0.06748 0.0
H1499 H 0.3323 0.39118 0.01091 0.0
H1500 H 0.29523 0.3449 0.08101 0.0
H1501 H 0.30066 0.38751 0.02483 0.0
H1502 H 0.25887 0.39093 0.09131 0.0
H1503 H 0.28726 0.39492 0.06662 0.0
H1504 H 0.26085 0.33165 0.06285 0.0
H1505 H 0.23269 0.3278 0.08743 0.0
C1506 C 0.32115 0.35722 0.05788 0.0
C1507 C 0.33197 0.37024 0.03812 0.0
C1508 C 0.30305 0.35492 0.06551 0.0
C1509 C 0.29535 0.36576 0.05382 0.0
C1510 C 0.3062 0.37893 0.03414 0.0
C1511 C 0.32426 0.38099 0.02616 0.0
C1512 C 0.25877 0.37794 0.08411 0.0
C1513 C 0.24356 0.35906 0.091 0.0
C1514 C 0.27506 0.3802 0.07016 0.0
C1515 C 0.27642 0.36359 0.06318 0.0
C1516 C 0.26035 0.34472 0.06825 0.0
C1517 C 0.24411 0.34249 0.08202 0.0
H1518 H 0.72322 0.68045 0.3856 0.0
H1519 H 0.76218 0.73141 0.34061 0.0
H1520 H 0.75119 0.67729 0.39932 0.0
H1521 H 0.79039 0.72828 0.35451 0.0
H1522 H 0.83124 0.73003 0.42421 0.0
H1523 H 0.80743 0.73281 0.39689 0.0
H1524 H 0.77689 0.6699 0.38426 0.0
H1525 H 0.80072 0.66727 0.4117 0.0
C1526 C 0.73776 0.69086 0.37842 0.0
C1527 C 0.74051 0.70623 0.36213 0.0
C1528 C 0.75379 0.68895 0.3861 0.0
C1529 C 0.77302 0.70246 0.37788 0.0
C1530 C 0.77575 0.71765 0.36117 0.0
C1531 C 0.75962 0.71942 0.3532 0.0
C1532 C 0.82002 0.717 0.41449 0.0
C1533 C 0.81792 0.69849 0.41966 0.0
C1534 C 0.8063 0.71854 0.39899 0.0
C1535 C 0.7901 0.70152 0.38873 0.0
C1536 C 0.78907 0.68324 0.39215 0.0
C1537 C 0.80286 0.68174 0.40751 0.0
H1538 H 0.31297 0.04537 0.33485 0.0
H1539 H 0.36329 0.05497 0.37961 0.0
H1540 H 0.31745 0.07699 0.34949 0.0
H1541 H 0.36758 0.08623 0.39452 0.0
H1542 H 0.31376 0.11366 0.41854 0.0
H1543 H 0.31208 0.08832 0.39006 0.0
H1544 H 0.37575 0.11973 0.38525 0.0
H1545 H 0.37722 0.14492 0.41424 0.0
C1546 C 0.32515 0.05435 0.34752 0.0
C1547 C 0.33767 0.04759 0.35624 0.0
C1548 C 0.32768 0.07244 0.35598 0.0
C1549 C 0.34284 0.08418 0.37328 0.0
C1550 C 0.35592 0.07779 0.38095 0.0
C1551 C 0.35336 0.05973 0.37255 0.0
C1552 C 0.32731 0.11554 0.41044 0.0
C1553 C 0.3456 0.1313 0.41824 0.0
C1554 C 0.3264 0.10099 0.39418 0.0
C1555 C 0.3438 0.10181 0.38558 0.0
C1556 C 0.36207 0.11849 0.39181 0.0
C1557 C 0.36296 0.13308 0.40807 0.0
H1558 H 1.00289 0.27977 0.36125 0.0
H1559 H 0.98035 0.31983 0.35958 0.0
H1560 H 0.97128 0.25373 0.37751 0.0
H1561 H 0.9483 0.29363 0.37387 0.0
H1562 H 0.90899 0.25541 0.43927 0.0
H1563 H 0.9347 0.27859 0.41139 0.0
H1564 H 0.93777 0.23053 0.37551 0.0
H1565 H 0.91249 0.20738 0.40496 0.0
C1566 C 0.99096 0.28282 0.36374 0.0
C1567 C 0.99414 0.30187 0.3596 0.0
C1568 C 0.97271 0.26783 0.37288 0.0
C1569 C 0.95708 0.27148 0.37752 0.0
C1570 C 0.96002 0.29028 0.37146 0.0
C1571 C 0.97839 0.30533 0.36305 0.0
C1572 C 0.91472 0.24974 0.42485 0.0
C1573 C 0.9088 0.22963 0.42433 0.0
C1574 C 0.92955 0.26307 0.40868 0.0
C1575 C 0.93876 0.25665 0.3912 0.0
C1576 C 0.93146 0.23618 0.38909 0.0
C1577 C 0.91668 0.22281 0.40559 0.0
H1578 H 0.07364 0.41984 0.32768 0.0
H1579 H 1.01083 0.37972 0.32532 0.0
H1580 H 0.06875 0.44621 0.31126 0.0
H1581 H 1.00562 0.40621 0.3108 0.0
H1582 H 1.00722 0.44566 0.24533 0.0
H1583 H 1.00873 0.42192 0.27316 0.0
H1584 H 0.05828 0.4693 0.31292 0.0
H1585 H 0.05719 0.49308 0.28359 0.0
C1586 C 0.05874 0.41684 0.32426 0.0
C1587 C 0.04264 0.3977 0.3273 0.0
C1588 C 0.05586 0.432 0.31503 0.0
C1589 C 0.03675 0.42843 0.30919 0.0
C1590 C 0.0206 0.40951 0.31418 0.0
C1591 C 0.02354 0.39429 0.32269 0.0
C1592 C 0.01803 0.45103 0.26056 0.0
C1593 C 0.0321 0.47116 0.26229 0.0
C1594 C 0.01893 0.43739 0.27669 0.0
C1595 C 0.03383 0.44349 0.29532 0.0
C1596 C 0.04688 0.46392 0.29848 0.0
C1597 C 0.04606 0.47763 0.28203 0.0
H1598 H 0.66277 0.65228 0.29667 0.0
H1599 H 0.62494 0.65794 0.35153 0.0
H1600 H 0.63522 0.62088 0.28256 0.0
H1601 H 0.59729 0.62628 0.33757 0.0
H1602 H 0.55129 0.58775 0.27333 0.0
H1603 H 0.57676 0.61421 0.2992 0.0
H1604 H 0.61249 0.58665 0.29402 0.0
H1605 H 0.58698 0.56038 0.26782 0.0
C1606 C 0.64861 0.6467 0.30593 0.0
C1607 C 0.64602 0.65768 0.3251 0.0
C1608 C 0.63282 0.62857 0.29801 0.0
C1609 C 0.614 0.62096 0.30899 0.0
C1610 C 0.61153 0.63175 0.32861 0.0
C1611 C 0.62739 0.64987 0.33663 0.0
C1612 C 0.56419 0.58691 0.27881 0.0
C1613 C 0.56708 0.57191 0.26901 0.0
C1614 C 0.57887 0.60213 0.29348 0.0
C1615 C 0.59684 0.60274 0.29838 0.0
C1616 C 0.59897 0.5868 0.29027 0.0
C1617 C 0.58425 0.57156 0.27566 0.0
H1618 H 0.36522 0.97213 0.29167 0.0
H1619 H 0.39426 1.00954 0.35641 0.0
H1620 H 0.39633 0.97475 0.27866 0.0
H1621 H 0.42571 0.01254 0.34294 0.0
H1622 H 0.47566 0.03275 0.2753 0.0
H1623 H 0.44779 0.02834 0.30143 0.0
H1624 H 0.42168 0.96522 0.29562 0.0
H1625 H 0.44964 0.96972 0.26988 0.0
C1626 C 0.37825 0.98081 0.30322 0.0
C1627 C 0.3773 0.99062 0.32505 0.0
C1628 C 0.39604 0.9822 0.29587 0.0
C1629 C 0.41342 0.99374 0.3099 0.0
C1630 C 0.41252 1.0035 0.33185 0.0
C1631 C 0.39455 1.00174 0.33955 0.0
C1632 C 0.46449 0.018 0.28087 0.0
C1633 C 0.46492 1.00157 0.27102 0.0
C1634 C 0.44846 0.01545 0.29561 0.0
C1635 C 0.43246 0.99643 0.30027 0.0
C1636 C 0.43376 0.98003 0.29219 0.0
C1637 C 0.44986 0.98259 0.27777 0.0
H1638 H 0.63987 0.98299 0.28672 0.0
H1639 H 0.63216 1.00173 0.36097 0.0
H1640 H 0.611 0.98371 0.27119 0.0
H1641 H 0.60308 1.0027 0.34514 0.0
H1642 H 0.57389 0.02858 0.28554 0.0
H1643 H 0.59714 0.02351 0.31127 0.0
H1644 H 0.57406 0.96562 0.2783 0.0
H1645 H 0.55092 0.97078 0.25273 0.0
C1646 C 0.63197 0.98724 0.29977 0.0
C1647 C 0.63833 0.99234 0.32507 0.0
C1648 C 0.61529 0.98748 0.29092 0.0
C1649 C 0.60461 0.99305 0.30701 0.0
C1650 C 0.61099 0.99828 0.33234 0.0
C1651 C 0.62759 0.99772 0.34138 0.0
C1652 C 0.5732 0.01444 0.28481 0.0
C1653 C 0.56047 0.99993 0.26752 0.0
C1654 C 0.58657 1.01157 0.29938 0.0
C1655 C 0.5876 0.99428 0.29653 0.0
C1656 C 0.57374 0.97918 0.2807 0.0
C1657 C 0.56032 0.98199 0.26633 0.0
H1658 H 0.07726 0.66861 0.30959 0.0
H1659 H 0.02393 0.63559 0.35345 0.0
H1660 H 0.07354 0.63798 0.2928 0.0
H1661 H 0.02049 0.60483 0.33733 0.0
H1662 H 1.00505 0.5621 0.26826 0.0
H1663 H 1.01104 0.58871 0.29722 0.0
H1664 H 0.07318 0.60738 0.29853 0.0
H1665 H 0.06698 0.58074 0.2688 0.0
C1666 C 0.06496 0.65477 0.31608 0.0
C1667 C 0.05075 0.65453 0.33259 0.0
C1668 C 0.0629 0.63715 0.30661 0.0
C1669 C 0.04662 0.61884 0.31353 0.0
C1670 C 0.03303 0.61863 0.33122 0.0
C1671 C 0.03503 0.63627 0.34056 0.0
C1672 C 0.01987 0.5715 0.27547 0.0
C1673 C 0.03555 0.56939 0.2664 0.0
C1674 C 0.02335 0.58679 0.29212 0.0
C1675 C 0.04266 0.60042 0.30007 0.0
C1676 C 0.05817 0.59735 0.29248 0.0
C1677 C 0.05463 0.58195 0.27578 0.0
H1678 H 0.3698 0.39921 0.28375 0.0
H1679 H 0.3947 0.40689 0.35911 0.0
H1680 H 0.4001 0.42781 0.26894 0.0
H1681 H 0.4254 0.4356 0.34404 0.0
H1682 H 0.48175 0.46265 0.28652 0.0
H1683 H 0.45248 0.44022 0.3114 0.0
H1684 H 0.42003 0.46491 0.27588 0.0
H1685 H 0.44932 0.48731 0.25123 0.0
C1686 C 0.38174 0.40708 0.2972 0.0
C1687 C 0.37987 0.40077 0.32259 0.0
C1688 C 0.39906 0.42359 0.28876 0.0
C1689 C 0.41509 0.43408 0.30538 0.0
C1690 C 0.41327 0.42782 0.33084 0.0
C1691 C 0.39572 0.41144 0.33944 0.0
C1692 C 0.46863 0.4639 0.28506 0.0
C1693 C 0.46781 0.47688 0.26735 0.0
C1694 C 0.45184 0.45099 0.29914 0.0
C1695 C 0.43389 0.45064 0.29533 0.0
C1696 C 0.4336 0.46473 0.27904 0.0
C1697 C 0.45041 0.47772 0.2652 0.0
H1698 H 0.3652 0.32381 0.38594 0.0
H1699 H 0.31476 0.28216 0.34197 0.0
H1700 H 0.36995 0.29718 0.40111 0.0
H1701 H 0.31964 0.25534 0.357 0.0
H1702 H 0.32025 0.21457 0.42378 0.0
H1703 H 0.31606 0.23802 0.39751 0.0
H1704 H 0.37932 0.27327 0.38881 0.0
H1705 H 0.38334 0.25001 0.41551 0.0
C1706 C 0.35527 0.30898 0.37923 0.0
C1707 C 0.33958 0.30511 0.3628 0.0
C1708 C 0.35808 0.29368 0.38778 0.0
C1709 C 0.34523 0.27406 0.3802 0.0
C1710 C 0.32974 0.27024 0.36332 0.0
C1711 C 0.327 0.28562 0.35463 0.0
C1712 C 0.33314 0.2269 0.41531 0.0
C1713 C 0.35209 0.23044 0.42139 0.0
C1714 C 0.33079 0.24042 0.40038 0.0
C1715 C 0.34739 0.25774 0.3914 0.0
C1716 C 0.36625 0.26031 0.39581 0.0
C1717 C 0.36857 0.24686 0.41077 0.0
H1718 H 0.75813 0.03835 0.34624 0.0
H1719 H 0.7202 0.0562 0.38258 0.0
H1720 H 0.78713 0.06896 0.36024 0.0
H1721 H 0.74908 0.08664 0.39673 0.0
H1722 H 0.80215 0.14433 0.41145 0.0
H1723 H 0.77751 0.11823 0.38417 0.0
H1724 H 0.80291 0.08184 0.4017 0.0
H1725 H 0.82752 0.10805 0.42867 0.0
C1726 C 0.75597 0.04891 0.35695 0.0
C1727 C 0.73685 0.04479 0.36343 0.0
C1728 C 0.7726 0.06643 0.36504 0.0
C1729 C 0.77049 0.08031 0.37961 0.0
C1730 C 0.75131 0.07647 0.38522 0.0
C1731 C 0.73471 0.05892 0.37728 0.0
C1732 C 0.80301 0.13112 0.40838 0.0
C1733 C 0.81692 0.12829 0.42173 0.0
C1734 C 0.7887 0.11603 0.39314 0.0
C1735 C 0.78801 0.09779 0.39103 0.0
C1736 C 0.80305 0.0957 0.40268 0.0
C1737 C 0.81728 0.11076 0.418 0.0
H1738 H 0.99376 0.71638 0.33664 0.0
H1739 H 0.98911 0.67517 0.39449 0.0
H1740 H 0.9622 0.71265 0.35065 0.0
H1741 H 0.95794 0.67156 0.40851 0.0
H1742 H 0.89826 0.65955 0.42513 0.0
H1743 H 0.92356 0.65943 0.39801 0.0
H1744 H 0.95083 0.72251 0.38873 0.0
H1745 H 0.92525 0.72237 0.41547 0.0
C1746 C 0.98589 0.70634 0.3521 0.0
C1747 C 0.99398 0.69614 0.36454 0.0
C1748 C 0.96785 0.70426 0.36018 0.0
C1749 C 0.95744 0.69175 0.38067 0.0
C1750 C 0.96529 0.68105 0.39241 0.0
C1751 C 0.98331 0.68326 0.3845 0.0
C1752 C 0.90914 0.67319 0.41624 0.0
C1753 C 0.90967 0.69092 0.42199 0.0
C1754 C 0.92382 0.67321 0.40105 0.0
C1755 C 0.93946 0.69102 0.39152 0.0
C1756 C 0.93897 0.70851 0.39555 0.0
C1757 C 0.92426 0.70846 0.41075 0.0
H1758 H 0.40066 0.04619 0.74089 0.0
H1759 H 0.41391 0.03633 0.66441 0.0
H1760 H 0.42927 0.04502 0.75677 0.0
H1761 H 0.44259 0.03474 0.68058 0.0
H1762 H 0.46933 1.00434 0.73869 0.0
H1763 H 0.44673 1.0104 0.71289 0.0
H1764 H 0.46736 0.06598 0.75136 0.0
H1765 H 0.48993 0.05994 0.77683 0.0
C1766 C 0.40971 0.04377 0.72745 0.0
C1767 C 0.40503 0.04134 0.70141 0.0
C1768 C 0.42619 0.04325 0.73653 0.0
C1769 C 0.43827 0.03998 0.71987 0.0
C1770 C 0.43356 0.03736 0.6938 0.0
C1771 C 0.4172 0.03829 0.68458 0.0
C1772 C 0.4697 0.01827 0.74062 0.0
C1773 C 0.48152 0.03182 0.75942 0.0
C1774 C 0.45669 0.02169 0.72603 0.0
C1775 C 0.45513 0.03855 0.73039 0.0
C1776 C 0.46816 0.0528 0.74775 0.0
C1777 C 0.48123 0.04948 0.7621 0.0
H1778 H 1.00629 0.38857 0.66637 0.0
H1779 H 0.98429 0.3621 0.73992 0.0
H1780 H 1.00769 0.419 0.68108 0.0
H1781 H 0.98549 0.39216 0.75442 0.0
H1782 H 0.97706 0.44242 0.77181 0.0
H1783 H 0.97019 0.41321 0.74702 0.0
H1784 H 0.02855 0.4451 0.71439 0.0
H1785 H 0.03531 0.47425 0.73931 0.0
C1786 C 1.00152 0.38917 0.68552 0.0
C1787 C 0.99524 0.37298 0.70202 0.0
C1788 C 1.00237 0.40657 0.69395 0.0
C1789 C 0.99656 0.40795 0.71885 0.0
C1790 C 0.98976 0.39151 0.735 0.0
C1791 C 0.98922 0.37431 0.72675 0.0
C1792 C 0.98803 0.44341 0.75842 0.0
C1793 C 1.00657 0.46062 0.75708 0.0
C1794 C 0.98423 0.42664 0.74451 0.0
C1795 C 0.99891 0.42677 0.72898 0.0
C1796 C 1.01688 0.44455 0.72601 0.0
C1797 C 0.02073 0.46129 0.74013 0.0
H1798 H 0.6735 0.63098 0.73659 0.0
H1799 H 0.64654 0.62272 0.6625 0.0
H1800 H 0.64416 0.60181 0.75218 0.0
H1801 H 0.61675 0.59332 0.67837 0.0
H1802 H 0.56178 0.56353 0.73827 0.0
H1803 H 0.5898 0.58668 0.71199 0.0
H1804 H 0.62566 0.56508 0.74551 0.0
H1805 H 0.59774 0.54215 0.77169 0.0
C1806 C 0.66131 0.62286 0.72357 0.0
C1807 C 0.66235 0.62918 0.69831 0.0
C1808 C 0.64453 0.60602 0.73246 0.0
C1809 C 0.62818 0.59511 0.71644 0.0
C1810 C 0.62913 0.60139 0.69112 0.0
C1811 C 0.64617 0.61817 0.68206 0.0
C1812 C 0.57538 0.5631 0.739 0.0
C1813 C 0.5776 0.55097 0.75678 0.0
C1814 C 0.59147 0.57644 0.72413 0.0
C1815 C 0.61004 0.57794 0.72703 0.0
C1816 C 0.61163 0.56446 0.74311 0.0
C1817 C 0.59559 0.55115 0.75784 0.0
H1818 H 0.67792 0.70759 0.62983 0.0
H1819 H 0.72038 0.74613 0.6855 0.0
H1820 H 0.67269 0.73423 0.61611 0.0
H1821 H 0.71482 0.77284 0.67215 0.0
H1822 H 0.72067 0.8193 0.61039 0.0
H1823 H 0.72256 0.79424 0.63585 0.0
H1824 H 0.65981 0.75529 0.62607 0.0
H1825 H 0.65826 0.78027 0.59995 0.0
C1826 C 0.68592 0.72169 0.63943 0.0
C1827 C 0.69965 0.72475 0.65865 0.0
C1828 C 0.68279 0.73698 0.63172 0.0
C1829 C 0.69328 0.75578 0.64305 0.0
C1830 C 0.70661 0.75865 0.66283 0.0
C1831 C 0.70974 0.74331 0.67055 0.0
C1832 C 0.70717 0.80572 0.61474 0.0
C1833 C 0.68929 0.80178 0.60354 0.0
C1834 C 0.70823 0.79125 0.62919 0.0
C1835 C 0.69139 0.77252 0.63265 0.0
C1836 C 0.67315 0.76935 0.62335 0.0
C1837 C 0.67215 0.78377 0.60879 0.0
H1838 H 0.29169 0.98455 0.68916 0.0
H1839 H 0.33 0.98292 0.63144 0.0
H1840 H 0.26524 0.95214 0.6753 0.0
H1841 H 0.30368 0.95093 0.61732 0.0
H1842 H 0.21905 0.91342 0.61152 0.0
H1843 H 0.24386 0.9396 0.63832 0.0
H1844 H 0.28303 0.9165 0.62652 0.0
H1845 H 0.25827 0.89072 0.59909 0.0
C1846 C 0.29453 0.97718 0.67371 0.0
C1847 C 0.31289 0.98635 0.66129 0.0
C1848 C 0.27936 0.95864 0.66571 0.0
C1849 C 0.28227 0.94885 0.64519 0.0
C1850 C 0.30093 0.95779 0.63346 0.0
C1851 C 0.31602 0.97627 0.64141 0.0
C1852 C 0.23263 0.91348 0.61567 0.0
C1853 C 0.23673 0.9 0.60357 0.0
C1854 C 0.24692 0.92853 0.63092 0.0
C1855 C 0.26562 0.9304 0.63424 0.0
C1856 C 0.26894 0.91574 0.62397 0.0
C1857 C 0.25468 0.90077 0.60861 0.0
H1858 H 0.05784 0.31907 0.69286 0.0
H1859 H 0.05929 0.35973 0.63634 0.0
H1860 H 0.09024 0.3254 0.67866 0.0
H1861 H 0.09117 0.36564 0.62168 0.0
H1862 H 0.1284 0.31822 0.61459 0.0
H1863 H 0.10289 0.31702 0.64232 0.0
H1864 H 0.12539 0.37912 0.62912 0.0
H1865 H 0.15036 0.3799 0.60056 0.0
C1866 C 0.06517 0.32951 0.67758 0.0
C1867 C 0.05595 0.33881 0.66561 0.0
C1868 C 0.0837 0.33308 0.66936 0.0
C1869 C 0.09342 0.34603 0.64897 0.0
C1870 C 0.08442 0.35586 0.63773 0.0
C1871 C 0.06598 0.35233 0.64598 0.0
C1872 C 0.12841 0.33177 0.61862 0.0
C1873 C 0.14138 0.34918 0.60566 0.0
C1874 C 0.1137 0.33111 0.63442 0.0
C1875 C 0.11174 0.34788 0.63757 0.0
C1876 C 0.12613 0.3658 0.62665 0.0
C1877 C 0.14068 0.36638 0.61066 0.0
H1878 H 0.30261 0.30851 0.61723 0.0
H1879 H 0.29806 0.32992 0.69115 0.0
H1880 H 0.27316 0.30884 0.60324 0.0
H1881 H 0.26843 0.33047 0.67691 0.0
H1882 H 0.23849 0.35586 0.61774 0.0
H1883 H 0.26166 0.35053 0.64322 0.0
H1884 H 0.23667 0.29185 0.6121 0.0
H1885 H 0.21369 0.2973 0.5867 0.0
C1886 C 0.29522 0.31317 0.63057 0.0
C1887 C 0.30268 0.3192 0.65528 0.0
C1888 C 0.27823 0.31321 0.62262 0.0
C1889 C 0.26834 0.31951 0.63905 0.0
C1890 C 0.27571 0.32549 0.66386 0.0
C1891 C 0.29262 0.32514 0.672 0.0
C1892 C 0.23732 0.3415 0.61743 0.0
C1893 C 0.22422 0.32691 0.60051 0.0
C1894 C 0.25067 0.33848 0.63184 0.0
C1895 C 0.25121 0.32089 0.62929 0.0
C1896 C 0.23678 0.30565 0.6142 0.0
C1897 C 0.22344 0.30864 0.59994 0.0
H1898 H 0.73343 0.99267 0.68321 0.0
H1899 H 0.6828 0.98126 0.6378 0.0
H1900 H 0.72995 0.96123 0.66911 0.0
H1901 H 0.67924 0.94998 0.624 0.0
H1902 H 0.73007 0.92053 0.59994 0.0
H1903 H 0.73389 0.94803 0.62626 0.0
H1904 H 0.67116 0.91672 0.64055 0.0
H1905 H 0.6675 0.88935 0.61425 0.0
C1906 C 0.72143 0.98335 0.67048 0.0
C1907 C 0.70841 0.98946 0.66155 0.0
C1908 C 0.71948 0.9654 0.66238 0.0
C1909 C 0.70424 0.95304 0.6456 0.0
C1910 C 0.69095 0.95898 0.63726 0.0
C1911 C 0.69308 0.977 0.64501 0.0
C1912 C 0.71732 0.91916 0.60983 0.0
C1913 C 0.69855 0.90273 0.60547 0.0
C1914 C 0.71944 0.93496 0.62472 0.0
C1915 C 0.70277 0.93467 0.63516 0.0
C1916 C 0.68425 0.91747 0.63252 0.0
C1917 C 0.68217 0.90167 0.61781 0.0
H1918 H 0.06052 0.71471 0.64375 0.0
H1919 H 0.04742 0.75444 0.68481 0.0
H1920 H 0.09171 0.74251 0.62969 0.0
H1921 H 0.07884 0.78245 0.67067 0.0
H1922 H 0.11833 0.82189 0.60087 0.0
H1923 H 0.09167 0.79847 0.62839 0.0
H1924 H 0.12457 0.76894 0.64372 0.0
H1925 H 0.1511 0.79237 0.61599 0.0
C1926 C 0.06443 0.72938 0.65005 0.0
C1927 C 0.05146 0.73238 0.66528 0.0
C1928 C 0.08242 0.74533 0.64217 0.0
C1929 C 0.08784 0.76473 0.64915 0.0
C1930 C 0.07507 0.7677 0.66492 0.0
C1931 C 0.05711 0.75167 0.67305 0.0
C1932 C 0.12023 0.81099 0.6112 0.0
C1933 C 0.13683 0.80906 0.60671 0.0
C1934 C 0.10492 0.79748 0.62682 0.0
C1935 C 0.10586 0.78165 0.63794 0.0
C1936 C 0.12329 0.78082 0.63516 0.0
C1937 C 0.13861 0.79439 0.61964 0.0
H1938 H 0.98212 0.61679 0.67228 0.0
H1939 H 0.02613 0.6538 0.72745 0.0
H1940 H 0.98534 0.58865 0.68613 0.0
H1941 H 0.02934 0.62591 0.74119 0.0
H1942 H 0.04041 0.5771 0.75529 0.0
H1943 H 0.04008 0.60243 0.72835 0.0
H1944 H 0.97639 0.56873 0.72619 0.0
H1945 H 0.9769 0.54349 0.75298 0.0
C1946 C 0.99264 0.61897 0.68712 0.0
C1947 C 1.00379 0.63747 0.69889 0.0
C1948 C 0.99446 0.60287 0.69507 0.0
C1949 C 1.00766 0.60505 0.71468 0.0
C1950 C 0.01927 0.62376 0.72575 0.0
C1951 C 1.01729 0.63973 0.71804 0.0
C1952 C 0.02644 0.57474 0.748 0.0
C1953 C 1.0087 0.55828 0.7558 0.0
C1954 C 0.02621 0.58934 0.73291 0.0
C1955 C 1.00819 0.58773 0.72542 0.0
C1956 C 0.99051 0.57037 0.73144 0.0
C1957 C 0.99077 0.55585 0.74666 0.0
H1958 H 0.42011 0.38105 0.66559 0.0
H1959 H 0.38019 0.38342 0.72011 0.0
H1960 H 0.44645 0.41317 0.6804 0.0
H1961 H 0.40643 0.41506 0.73535 0.0
H1962 H 0.45234 0.47428 0.75661 0.0
H1963 H 0.42811 0.44925 0.72793 0.0
H1964 H 0.46667 0.42522 0.71782 0.0
H1965 H 0.491 0.45074 0.74574 0.0
C1966 C 0.41691 0.38853 0.68054 0.0
C1967 C 0.3981 0.37964 0.69179 0.0
C1968 C 0.43202 0.4069 0.68911 0.0
C1969 C 0.42866 0.41678 0.70914 0.0
C1970 C 0.40957 0.40815 0.71961 0.0
C1971 C 0.39451 0.38986 0.71102 0.0
C1972 C 0.45594 0.4642 0.7472 0.0
C1973 C 0.47357 0.46452 0.75302 0.0
C1974 C 0.44196 0.44964 0.73113 0.0
C1975 C 0.4452 0.4349 0.72094 0.0
C1976 C 0.46365 0.43635 0.7251 0.0
C1977 C 0.47769 0.45103 0.74101 0.0
H1978 H 0.65703 0.01337 0.73125 0.0
H1979 H 0.65716 0.05061 0.67063 0.0
H1980 H 0.62544 1.0084 0.74605 0.0
H1981 H 0.62528 0.04551 0.68539 0.0
H1982 H 0.5876 0.05472 0.74953 0.0
H1983 H 0.61374 0.05581 0.72298 0.0
H1984 H 0.59041 0.9936 0.73607 0.0
H1985 H 0.56453 0.99277 0.76292 0.0
C1986 C 0.65018 0.02031 0.72088 0.0
C1987 C 0.65966 0.03246 0.69985 0.0
C1988 C 0.63194 0.01732 0.72923 0.0
C1989 C 0.62272 0.02648 0.71685 0.0
C1990 C 0.63201 0.03831 0.69543 0.0
C1991 C 0.65024 0.04119 0.68694 0.0
C1992 C 0.58757 0.04113 0.74567 0.0
C1993 C 0.57395 0.02361 0.75789 0.0
C1994 C 0.60261 0.04174 0.73061 0.0
C1995 C 0.60438 0.02485 0.72774 0.0
C1996 C 0.58966 1.00694 0.73824 0.0
C1997 C 0.57465 1.00636 0.75326 0.0
loop_
_geom_bond_atom_site_label_1
_geom_bond_atom_site_label_2
_geom_bond_distance
_geom_bond_site_symmetry_2
_ccdc_geom_bond_type
In0 O1 2.294 1_455 S
In0 O2 2.326 . S
In0 O6 2.266 1_455 S
In0 O7 2.326 1_454 S
In0 O8 2.266 1_554 S
In0 O9 2.326 1_454 S
In0 O11 2.294 . S
In0 O12 2.326 . S
O1 In0 2.294 1_655 S
O1 C10 1.240 1_655 S
O2 In0 2.326 . S
O2 C10 1.252 . S
C3 O6 1.252 1_556 S
C3 O7 1.260 . S
C4 O11 1.240 . S
C4 O12 1.252 . S
C5 O8 1.252 . S
C5 O9 1.260 1_455 S
O6 In0 2.266 1_655 S
O6 C3 1.252 1_554 S
O7 In0 2.326 1_656 S
O7 C3 1.260 . S
O8 In0 2.266 1_556 S
O8 C5 1.252 . S
O9 In0 2.326 1_656 S
O9 C5 1.260 1_655 S
C10 O1 1.240 1_455 S
C10 O2 1.252 . S
O11 In0 2.294 . S
O11 C4 1.240 . S
O12 In0 2.326 . S
O12 C4 1.252 . S
In13 O14 2.294 . S
In13 O15 2.326 . S
In13 O19 2.266 . S
In13 O20 2.326 1_554 S
In13 O21 2.266 1_554 S
In13 O22 2.326 1_554 S
In13 O24 2.294 . S
In13 O25 2.326 . S
O14 In13 2.294 . S
O14 C23 1.240 . S
O15 In13 2.326 . S
O15 C23 1.252 . S
C16 O19 1.252 1_556 S
C16 O20 1.260 . S
C17 O24 1.240 . S
C17 O25 1.252 . S
C18 O21 1.252 . S
C18 O22 1.260 . S
O19 In13 2.266 . S
O19 C16 1.252 1_554 S
O20 In13 2.326 1_556 S
O20 C16 1.260 . S
O21 In13 2.266 1_556 S
O21 C18 1.252 . S
O22 In13 2.326 1_556 S
O22 C18 1.260 . S
C23 O14 1.240 . S
C23 O15 1.252 . S
O24 In13 2.294 . S
O24 C17 1.240 . S
O25 In13 2.326 . S
O25 C17 1.252 . S
In26 O27 2.294 . S
In26 O28 2.326 1_554 S
In26 O32 2.266 . S
In26 O33 2.326 1_545 S
In26 O34 2.266 1_545 S
In26 O35 2.326 1_545 S
In26 O37 2.294 1_544 S
In26 O38 2.326 1_554 S
O27 In26 2.294 . S
O27 C36 1.240 1_554 S
O28 In26 2.326 1_556 S
O28 C36 1.252 . S
C29 O32 1.252 . S
C29 O33 1.260 1_545 S
C30 O37 1.240 1_545 S
C30 O38 1.252 . S
C31 O34 1.252 . S
C31 O35 1.260 . S
O32 In26 2.266 . S
O32 C29 1.252 . S
O33 In26 2.326 1_565 S
O33 C29 1.260 1_565 S
O34 In26 2.266 1_565 S
O34 C31 1.252 . S
O35 In26 2.326 1_565 S
O35 C31 1.260 . S
C36 O27 1.240 1_556 S
C36 O28 1.252 . S
O37 In26 2.294 1_566 S
O37 C30 1.240 1_565 S
O38 In26 2.326 1_556 S
O38 C30 1.252 . S
In39 O40 2.294 1_554 S
In39 O41 2.326 1_454 S
In39 O45 2.266 . S
In39 O46 2.326 . S
In39 O47 2.266 1_455 S
In39 O48 2.326 . S
In39 O50 2.294 1_455 S
In39 O51 2.326 1_454 S
O40 In39 2.294 1_556 S
O40 C49 1.240 . S
O41 In39 2.326 1_656 S
O41 C49 1.252 1_655 S
C42 O45 1.252 . S
C42 O46 1.260 . S
C43 O50 1.240 1_556 S
C43 O51 1.252 . S
C44 O47 1.252 1_455 S
C44 O48 1.260 . S
O45 In39 2.266 . S
O45 C42 1.252 . S
O46 In39 2.326 . S
O46 C42 1.260 . S
O47 In39 2.266 1_655 S
O47 C44 1.252 1_655 S
O48 In39 2.326 . S
O48 C44 1.260 . S
C49 O40 1.240 . S
C49 O41 1.252 1_455 S
O50 In39 2.294 1_655 S
O50 C43 1.240 1_554 S
O51 In39 2.326 1_656 S
O51 C43 1.252 . S
In52 O53 2.294 1_554 S
In52 O54 2.326 1_554 S
In52 O58 2.266 . S
In52 O59 2.326 . S
In52 O60 2.266 . S
In52 O61 2.326 . S
In52 O63 2.294 . S
In52 O64 2.326 1_554 S
O53 In52 2.294 1_556 S
O53 C62 1.240 . S
O54 In52 2.326 1_556 S
O54 C62 1.252 . S
C55 O58 1.252 . S
C55 O59 1.260 . S
C56 O63 1.240 1_556 S
C56 O64 1.252 . S
C57 O60 1.252 . S
C57 O61 1.260 . S
O58 In52 2.266 . S
O58 C55 1.252 . S
O59 In52 2.326 . S
O59 C55 1.260 . S
O60 In52 2.266 . S
O60 C57 1.252 . S
O61 In52 2.326 . S
O61 C57 1.260 . S
C62 O53 1.240 . S
C62 O54 1.252 . S
O63 In52 2.294 . S
O63 C56 1.240 1_554 S
O64 In52 2.326 1_556 S
O64 C56 1.252 . S
In65 O66 2.294 . S
In65 O67 2.326 1_545 S
In65 O71 2.266 . S
In65 O72 2.326 1_554 S
In65 O73 2.266 1_544 S
In65 O74 2.326 1_554 S
In65 O76 2.294 1_545 S
In65 O77 2.326 1_545 S
O66 In65 2.294 . S
O66 C75 1.240 . S
O67 In65 2.326 1_565 S
O67 C75 1.252 1_565 S
C68 O71 1.252 1_556 S
C68 O72 1.260 . S
C69 O76 1.240 . S
C69 O77 1.252 . S
C70 O73 1.252 1_545 S
C70 O74 1.260 . S
O71 In65 2.266 . S
O71 C68 1.252 1_554 S
O72 In65 2.326 1_556 S
O72 C68 1.260 . S
O73 In65 2.266 1_566 S
O73 C70 1.252 1_565 S
O74 In65 2.326 1_556 S
O74 C70 1.260 . S
C75 O66 1.240 . S
C75 O67 1.252 1_545 S
O76 In65 2.294 1_565 S
O76 C69 1.240 . S
O77 In65 2.326 1_565 S
O77 C69 1.252 . S
In78 O79 2.294 . S
In78 O80 2.326 . S
In78 O84 2.266 . S
In78 O85 2.326 . S
In78 O86 2.266 . S
In78 O87 2.326 . S
In78 O89 2.294 . S
In78 O90 2.326 . S
O79 In78 2.294 . S
O79 C88 1.240 . S
O80 In78 2.326 . S
O80 C88 1.252 . S
C81 O84 1.252 . S
C81 O85 1.260 . S
C82 O89 1.240 . S
C82 O90 1.252 . S
C83 O86 1.252 . S
C83 O87 1.260 . S
O84 In78 2.266 . S
O84 C81 1.252 . S
O85 In78 2.326 . S
O85 C81 1.260 . S
O86 In78 2.266 . S
O86 C83 1.252 . S
O87 In78 2.326 . S
O87 C83 1.260 . S
C88 O79 1.240 . S
C88 O80 1.252 . S
O89 In78 2.294 . S
O89 C82 1.240 . S
O90 In78 2.326 . S
O90 C82 1.252 . S
In91 O92 2.294 . S
In91 O93 2.326 . S
In91 O97 2.266 . S
In91 O98 2.326 . S
In91 O99 2.266 . S
In91 O100 2.326 . S
In91 O102 2.294 1_565 S
In91 O103 2.326 1_565 S
O92 In91 2.294 . S
O92 C101 1.240 . S
O93 In91 2.326 . S
O93 C101 1.252 . S
C94 O97 1.252 . S
C94 O98 1.266 . S
C95 O102 1.240 . S
C95 O103 1.252 . S
C96 O99 1.252 . S
C96 O100 1.260 . S
O97 In91 2.266 . S
O97 C94 1.252 . S
O98 In91 2.326 . S
O98 C94 1.266 . S
O99 In91 2.266 . S
O99 C96 1.252 . S
O100 In91 2.326 . S
O100 C96 1.260 . S
C101 O92 1.240 . S
C101 O93 1.252 . S
O102 In91 2.294 1_545 S
O102 C95 1.240 . S
O103 In91 2.326 1_545 S
O103 C95 1.252 . S
In104 O105 2.294 . S
In104 O106 2.326 . S
In104 O110 2.266 . S
In104 O111 2.326 . S
In104 O112 2.244 1_455 S
In104 O113 2.364 . S
In104 O115 2.294 . S
In104 O116 2.326 . S
O105 In104 2.294 . S
O105 C114 1.240 . S
O106 In104 2.326 . S
O106 C114 1.252 . S
C107 O110 1.252 . S
C107 O111 1.260 . S
C108 O115 1.240 . S
C108 O116 1.252 . S
C109 O112 1.290 . S
C109 O113 1.261 1_655 S
O110 In104 2.266 . S
O110 C107 1.252 . S
O111 In104 2.326 . S
O111 C107 1.260 . S
O112 In104 2.244 1_655 S
O112 C109 1.290 . S
O113 In104 2.364 . S
O113 C109 1.261 1_455 S
C114 O105 1.240 . S
C114 O106 1.252 . S
O115 In104 2.294 . S
O115 C108 1.240 . S
O116 In104 2.326 . S
O116 C108 1.252 . S
In117 O118 2.294 . S
In117 O119 2.326 . S
In117 O123 2.266 1_565 S
In117 O124 2.326 1_565 S
In117 O125 2.266 . S
In117 O126 2.326 . S
In117 O128 2.294 . S
In117 O129 2.326 . S
O118 In117 2.294 . S
O118 C127 1.240 . S
O119 In117 2.326 . S
O119 C127 1.252 . S
C120 O123 1.252 . S
C120 O124 1.260 . S
C121 O128 1.240 . S
C121 O129 1.252 . S
C122 O125 1.252 . S
C122 O126 1.260 . S
O123 In117 2.266 1_545 S
O123 C120 1.252 . S
O124 In117 2.326 1_545 S
O124 C120 1.260 . S
O125 In117 2.266 . S
O125 C122 1.252 . S
O126 In117 2.326 . S
O126 C122 1.260 . S
C127 O118 1.240 . S
C127 O119 1.252 . S
O128 In117 2.294 . S
O128 C121 1.240 . S
O129 In117 2.326 . S
O129 C121 1.252 . S
In130 O131 2.294 . S
In130 O132 2.326 . S
In130 O136 2.266 1_455 S
In130 O137 2.345 . S
In130 O138 2.266 . S
In130 O139 2.326 . S
In130 O141 2.294 . S
In130 O142 2.326 . S
O131 In130 2.294 . S
O131 C140 1.240 . S
O132 In130 2.326 . S
O132 C140 1.252 . S
C133 O136 1.252 . S
C133 O137 1.233 1_655 S
C134 O141 1.240 . S
C134 O142 1.252 . S
C135 O138 1.252 . S
C135 O139 1.260 . S
O136 In130 2.266 1_655 S
O136 C133 1.252 . S
O137 In130 2.345 . S
O137 C133 1.233 1_455 S
O138 In130 2.266 . S
O138 C135 1.252 . S
O139 In130 2.326 . S
O139 C135 1.260 . S
C140 O131 1.240 . S
C140 O132 1.252 . S
O141 In130 2.294 . S
O141 C134 1.240 . S
O142 In130 2.326 . S
O142 C134 1.252 . S
In143 O144 2.294 . S
In143 O145 2.326 . S
In143 O149 2.266 . S
In143 O150 2.326 . S
In143 O151 2.266 . S
In143 O152 2.326 . S
In143 O154 2.294 . S
In143 O155 2.326 . S
O144 In143 2.294 . S
O144 C153 1.240 . S
O145 In143 2.326 . S
O145 C153 1.252 . S
C146 O149 1.252 . S
C146 O150 1.260 . S
C147 O154 1.240 . S
C147 O155 1.252 . S
C148 O151 1.252 . S
C148 O152 1.260 . S
O149 In143 2.266 . S
O149 C146 1.252 . S
O150 In143 2.326 . S
O150 C146 1.260 . S
O151 In143 2.266 . S
O151 C148 1.252 . S
O152 In143 2.326 . S
O152 C148 1.260 . S
C153 O144 1.240 . S
C153 O145 1.252 . S
O154 In143 2.294 . S
O154 C147 1.240 . S
O155 In143 2.326 . S
O155 C147 1.252 . S
In156 O157 2.294 . S
In156 O158 2.326 . S
In156 O162 2.266 . S
In156 O163 2.326 . S
In156 O164 2.253 1_545 S
In156 O165 2.326 . S
In156 O167 2.294 . S
In156 O168 2.326 . S
O157 In156 2.294 . S
O157 C166 1.240 . S
O158 In156 2.326 . S
O158 C166 1.252 . S
C159 O162 1.252 . S
C159 O163 1.260 . S
C160 O167 1.240 . S
C160 O168 1.252 . S
C161 O164 1.274 . S
C161 O165 1.260 1_565 S
O162 In156 2.266 . S
O162 C159 1.252 . S
O163 In156 2.326 . S
O163 C159 1.260 . S
O164 In156 2.253 1_565 S
O164 C161 1.274 . S
O165 In156 2.326 . S
O165 C161 1.260 1_545 S
C166 O157 1.240 . S
C166 O158 1.252 . S
O167 In156 2.294 . S
O167 C160 1.240 . S
O168 In156 2.326 . S
O168 C160 1.252 . S
In169 O170 2.294 . S
In169 O171 2.326 . S
In169 O175 2.266 . S
In169 O176 2.326 . S
In169 O177 2.266 1_655 S
In169 O178 2.326 1_655 S
In169 O180 2.294 . S
In169 O181 2.326 . S
O170 In169 2.294 . S
O170 C179 1.240 . S
O171 In169 2.326 . S
O171 C179 1.252 . S
C172 O175 1.252 . S
C172 O176 1.260 . S
C173 O180 1.240 . S
C173 O181 1.252 . S
C174 O177 1.252 . S
C174 O178 1.260 . S
O175 In169 2.266 . S
O175 C172 1.252 . S
O176 In169 2.326 . S
O176 C172 1.260 . S
O177 In169 2.266 1_455 S
O177 C174 1.252 . S
O178 In169 2.326 1_455 S
O178 C174 1.260 . S
C179 O170 1.240 . S
C179 O171 1.252 . S
O180 In169 2.294 . S
O180 C173 1.240 . S
O181 In169 2.326 . S
O181 C173 1.252 . S
In182 O183 2.294 . S
In182 O184 2.326 . S
In182 O188 2.266 . S
In182 O189 2.326 . S
In182 O190 2.266 . S
In182 O191 2.326 . S
In182 O193 2.294 . S
In182 O194 2.326 . S
O183 In182 2.294 . S
O183 C192 1.240 . S
O184 In182 2.326 . S
O184 C192 1.252 . S
C185 O188 1.252 . S
C185 O189 1.260 . S
C186 O193 1.240 . S
C186 O194 1.252 . S
C187 O190 1.252 . S
C187 O191 1.260 . S
O188 In182 2.266 . S
O188 C185 1.252 . S
O189 In182 2.326 . S
O189 C185 1.260 . S
O190 In182 2.266 . S
O190 C187 1.252 . S
O191 In182 2.326 . S
O191 C187 1.260 . S
C192 O183 1.240 . S
C192 O184 1.252 . S
O193 In182 2.294 . S
O193 C186 1.240 . S
O194 In182 2.326 . S
O194 C186 1.252 . S
In195 O196 2.294 . S
In195 O197 2.326 . S
In195 O201 2.266 . S
In195 O202 2.326 . S
In195 O203 2.266 . S
In195 O204 2.326 . S
In195 O206 2.294 . S
In195 O207 2.326 . S
O196 In195 2.294 . S
O196 C205 1.240 . S
O197 In195 2.326 . S
O197 C205 1.252 . S
C198 O201 1.252 . S
C198 O202 1.260 . S
C199 O206 1.240 . S
C199 O207 1.252 . S
C200 O203 1.252 . S
C200 O204 1.260 . S
O201 In195 2.266 . S
O201 C198 1.252 . S
O202 In195 2.326 . S
O202 C198 1.260 . S
O203 In195 2.266 . S
O203 C200 1.252 . S
O204 In195 2.326 . S
O204 C200 1.260 . S
C205 O196 1.240 . S
C205 O197 1.252 . S
O206 In195 2.294 . S
O206 C199 1.240 . S
O207 In195 2.326 . S
O207 C199 1.252 . S
In208 O209 2.294 . S
In208 O210 2.326 . S
In208 O214 2.266 . S
In208 O215 2.326 . S
In208 O216 2.266 . S
In208 O217 2.326 . S
In208 O219 2.294 1_545 S
In208 O220 2.364 . S
O209 In208 2.294 . S
O209 C218 1.240 . S
O210 In208 2.326 . S
O210 C218 1.252 . S
C211 O214 1.252 . S
C211 O215 1.260 . S
C212 O219 1.240 . S
C212 O220 1.200 1_565 S
C213 O216 1.252 . S
C213 O217 1.260 . S
O214 In208 2.266 . S
O214 C211 1.252 . S
O215 In208 2.326 . S
O215 C211 1.260 . S
O216 In208 2.266 . S
O216 C213 1.252 . S
O217 In208 2.326 . S
O217 C213 1.260 . S
C218 O209 1.240 . S
C218 O210 1.252 . S
O219 In208 2.294 1_565 S
O219 C212 1.240 . S
O220 In208 2.364 . S
O220 C212 1.200 1_545 S
In221 O222 2.294 . S
In221 O223 2.326 . S
In221 O227 2.266 . S
In221 O228 2.326 . S
In221 O229 2.266 1_655 S
In221 O230 2.326 1_655 S
In221 O232 2.294 . S
In221 O233 2.326 . S
O222 In221 2.294 . S
O222 C231 1.240 . S
O223 In221 2.326 . S
O223 C231 1.252 . S
C224 O227 1.252 . S
C224 O228 1.260 . S
C225 O232 1.240 . S
C225 O233 1.252 . S
C226 O229 1.252 . S
C226 O230 1.260 . S
O227 In221 2.266 . S
O227 C224 1.252 . S
O228 In221 2.326 . S
O228 C224 1.260 . S
O229 In221 2.266 1_455 S
O229 C226 1.252 . S
O230 In221 2.326 1_455 S
O230 C226 1.260 . S
C231 O222 1.240 . S
C231 O223 1.252 . S
O232 In221 2.294 . S
O232 C225 1.240 . S
O233 In221 2.326 . S
O233 C225 1.252 . S
H234 C240 0.930 . S
H235 C243 0.931 . S
H236 C245 0.931 . S
H237 C247 0.930 . S
H238 C249 0.930 . S
H239 C251 0.931 . S
C240 H234 0.930 . S
C240 C241 1.380 . S
C240 C242 1.394 . S
C241 C240 1.380 . S
C241 C245 1.382 . S
C242 C240 1.394 . S
C242 C243 1.400 . S
C243 H235 0.931 . S
C243 C242 1.400 . S
C243 C244 1.375 . S
C244 C243 1.375 . S
C244 C245 1.415 . S
C244 C246 1.501 . S
C245 H236 0.931 . S
C245 C241 1.382 . S
C245 C244 1.415 . S
C246 C244 1.501 . S
C246 C247 1.384 . S
C246 C251 1.408 . S
C247 H237 0.930 . S
C247 C246 1.384 . S
C247 C248 1.389 . S
C248 C247 1.389 . S
C248 C249 1.405 . S
C249 H238 0.930 . S
C249 C248 1.405 . S
C249 C250 1.364 . S
C250 C249 1.364 . S
C250 C251 1.400 . S
C251 H239 0.931 . S
C251 C246 1.408 . S
C251 C250 1.400 . S
H252 C258 0.930 . S
H253 C261 0.931 . S
H254 C263 0.931 . S
H255 C265 0.930 . S
H256 C267 0.930 . S
H257 C269 0.931 . S
C258 H252 0.930 . S
C258 C259 1.380 . S
C258 C260 1.394 . S
C259 C258 1.380 . S
C259 C263 1.382 . S
C260 C258 1.394 . S
C260 C261 1.400 . S
C261 H253 0.931 . S
C261 C260 1.400 . S
C261 C262 1.375 . S
C262 C261 1.375 . S
C262 C263 1.415 . S
C262 C264 1.501 . S
C263 H254 0.931 . S
C263 C259 1.382 . S
C263 C262 1.415 . S
C264 C262 1.501 . S
C264 C265 1.384 . S
C264 C269 1.408 . S
C265 H255 0.930 . S
C265 C264 1.384 . S
C265 C266 1.389 . S
C266 C265 1.389 . S
C266 C267 1.405 . S
C267 H256 0.930 . S
C267 C266 1.405 . S
C267 C268 1.364 . S
C268 C267 1.364 . S
C268 C269 1.400 . S
C269 H257 0.931 . S
C269 C264 1.408 . S
C269 C268 1.400 . S
H270 C276 0.930 . S
H271 C279 0.931 . S
H272 C281 0.931 . S
H273 C283 0.930 . S
H274 C285 0.930 . S
H275 C287 0.931 . S
C276 H270 0.930 . S
C276 C277 1.380 . S
C276 C278 1.394 . S
C277 C276 1.380 . S
C277 C281 1.382 . S
C278 C276 1.394 . S
C278 C279 1.400 . S
C279 H271 0.931 . S
C279 C278 1.400 . S
C279 C280 1.375 . S
C280 C279 1.375 . S
C280 C281 1.415 . S
C280 C282 1.501 . S
C281 H272 0.931 . S
C281 C277 1.382 . S
C281 C280 1.415 . S
C282 C280 1.501 . S
C282 C283 1.384 . S
C282 C287 1.408 . S
C283 H273 0.930 . S
C283 C282 1.384 . S
C283 C284 1.389 . S
C284 C283 1.389 . S
C284 C285 1.405 . S
C285 H274 0.930 . S
C285 C284 1.405 . S
C285 C286 1.364 . S
C286 C285 1.364 . S
C286 C287 1.400 . S
C287 H275 0.931 . S
C287 C282 1.408 . S
C287 C286 1.400 . S
H288 C294 0.930 . S
H289 C297 0.931 . S
H290 C299 0.931 . S
H291 C301 0.930 . S
H292 C303 0.930 . S
H293 C305 0.931 . S
C294 H288 0.930 . S
C294 C295 1.380 . S
C294 C296 1.394 . S
C295 C294 1.380 . S
C295 C299 1.382 . S
C296 C294 1.394 . S
C296 C297 1.400 . S
C297 H289 0.931 . S
C297 C296 1.400 . S
C297 C298 1.375 . S
C298 C297 1.375 . S
C298 C299 1.415 . S
C298 C300 1.501 . S
C299 H290 0.931 . S
C299 C295 1.382 . S
C299 C298 1.415 . S
C300 C298 1.501 . S
C300 C301 1.384 . S
C300 C305 1.408 . S
C301 H291 0.930 . S
C301 C300 1.384 . S
C301 C302 1.389 . S
C302 C301 1.389 . S
C302 C303 1.405 . S
C303 H292 0.930 . S
C303 C302 1.405 . S
C303 C304 1.364 . S
C304 C303 1.364 . S
C304 C305 1.400 . S
C305 H293 0.931 . S
C305 C300 1.408 . S
C305 C304 1.400 . S
H306 C312 0.930 . S
H307 C315 0.931 . S
H308 C317 0.931 . S
H309 C319 0.930 . S
H310 C321 0.930 . S
H311 C323 0.931 . S
C312 H306 0.930 . S
C312 C313 1.380 . S
C312 C314 1.394 . S
C313 C312 1.380 . S
C313 C317 1.382 . S
C314 C312 1.394 . S
C314 C315 1.400 . S
C315 H307 0.931 . S
C315 C314 1.400 . S
C315 C316 1.375 . S
C316 C315 1.375 . S
C316 C317 1.415 . S
C316 C318 1.501 . S
C317 H308 0.931 . S
C317 C313 1.382 . S
C317 C316 1.415 . S
C318 C316 1.501 . S
C318 C319 1.384 . S
C318 C323 1.408 . S
C319 H309 0.930 . S
C319 C318 1.384 . S
C319 C320 1.389 . S
C320 C319 1.389 . S
C320 C321 1.405 . S
C321 H310 0.930 . S
C321 C320 1.405 . S
C321 C322 1.364 . S
C322 C321 1.364 . S
C322 C323 1.400 . S
C323 H311 0.931 . S
C323 C318 1.408 . S
C323 C322 1.400 . S
H324 C330 0.930 . S
H325 C333 0.931 . S
H326 C335 0.931 . S
H327 C337 0.930 . S
H328 C339 0.930 . S
H329 C341 0.931 . S
C330 H324 0.930 . S
C330 C331 1.380 . S
C330 C332 1.394 . S
C331 C330 1.380 . S
C331 C335 1.382 . S
C332 C330 1.394 . S
C332 C333 1.400 . S
C333 H325 0.931 . S
C333 C332 1.400 . S
C333 C334 1.375 . S
C334 C333 1.375 . S
C334 C335 1.415 . S
C334 C336 1.501 . S
C335 H326 0.931 . S
C335 C331 1.382 . S
C335 C334 1.415 . S
C336 C334 1.501 . S
C336 C337 1.384 . S
C336 C341 1.408 . S
C337 H327 0.930 . S
C337 C336 1.384 . S
C337 C338 1.389 . S
C338 C337 1.389 . S
C338 C339 1.405 . S
C339 H328 0.930 . S
C339 C338 1.405 . S
C339 C340 1.364 . S
C340 C339 1.364 . S
C340 C341 1.400 . S
C341 H329 0.931 . S
C341 C336 1.408 . S
C341 C340 1.400 . S
H342 C348 0.930 . S
H343 C351 0.931 . S
H344 C353 0.931 . S
H345 C355 0.930 . S
H346 C357 0.930 . S
H347 C359 0.931 . S
C348 H342 0.930 . S
C348 C349 1.380 . S
C348 C350 1.394 . S
C349 C348 1.380 . S
C349 C353 1.382 . S
C350 C348 1.394 . S
C350 C351 1.400 . S
C351 H343 0.931 . S
C351 C350 1.400 . S
C351 C352 1.375 . S
C352 C351 1.375 . S
C352 C353 1.415 . S
C352 C354 1.501 . S
C353 H344 0.931 . S
C353 C349 1.382 . S
C353 C352 1.415 . S
C354 C352 1.501 . S
C354 C355 1.384 . S
C354 C359 1.408 . S
C355 H345 0.930 . S
C355 C354 1.384 . S
C355 C356 1.389 . S
C356 C355 1.389 . S
C356 C357 1.405 . S
C357 H346 0.930 . S
C357 C356 1.405 . S
C357 C358 1.364 . S
C358 C357 1.364 . S
C358 C359 1.400 . S
C359 H347 0.931 . S
C359 C354 1.408 . S
C359 C358 1.400 . S
H360 C366 0.930 . S
H361 C369 0.931 . S
H362 C371 0.931 . S
H363 C373 0.930 . S
H364 C375 0.930 . S
H365 C377 0.931 . S
C366 H360 0.930 . S
C366 C367 1.380 . S
C366 C368 1.394 . S
C367 C366 1.380 . S
C367 C371 1.382 . S
C368 C366 1.394 . S
C368 C369 1.400 . S
C369 H361 0.931 . S
C369 C368 1.400 . S
C369 C370 1.375 . S
C370 C369 1.375 . S
C370 C371 1.415 . S
C370 C372 1.501 . S
C371 H362 0.931 . S
C371 C367 1.382 . S
C371 C370 1.415 . S
C372 C370 1.501 . S
C372 C373 1.384 . S
C372 C377 1.408 . S
C373 H363 0.930 . S
C373 C372 1.384 . S
C373 C374 1.389 . S
C374 C373 1.389 . S
C374 C375 1.405 . S
C375 H364 0.930 . S
C375 C374 1.405 . S
C375 C376 1.364 . S
C376 C375 1.364 . S
C376 C377 1.400 . S
C377 H365 0.931 . S
C377 C372 1.408 . S
C377 C376 1.400 . S
H378 C384 0.930 . S
H379 C387 0.931 . S
H380 C389 0.931 . S
H381 C391 0.930 . S
H382 C393 0.930 . S
H383 C395 0.931 . S
C384 H378 0.930 . S
C384 C385 1.380 . S
C384 C386 1.394 . S
C385 C384 1.380 . S
C385 C389 1.382 . S
C386 C384 1.394 . S
C386 C387 1.400 . S
C387 H379 0.931 . S
C387 C386 1.400 . S
C387 C388 1.375 . S
C388 C387 1.375 . S
C388 C389 1.415 . S
C388 C390 1.501 . S
C389 H380 0.931 . S
C389 C385 1.382 . S
C389 C388 1.415 . S
C390 C388 1.501 . S
C390 C391 1.384 . S
C390 C395 1.408 . S
C391 H381 0.930 . S
C391 C390 1.384 . S
C391 C392 1.389 . S
C392 C391 1.389 . S
C392 C393 1.405 . S
C393 H382 0.930 . S
C393 C392 1.405 . S
C393 C394 1.364 . S
C394 C393 1.364 . S
C394 C395 1.400 . S
C395 H383 0.931 . S
C395 C390 1.408 . S
C395 C394 1.400 . S
H396 C402 0.930 . S
H397 C405 0.931 . S
H398 C407 0.931 . S
H399 C409 0.930 . S
H400 C411 0.930 . S
H401 C413 0.931 . S
C402 H396 0.930 . S
C402 C403 1.380 . S
C402 C404 1.394 . S
C403 C402 1.380 . S
C403 C407 1.382 . S
C404 C402 1.394 . S
C404 C405 1.400 . S
C405 H397 0.931 . S
C405 C404 1.400 . S
C405 C406 1.375 . S
C406 C405 1.375 . S
C406 C407 1.415 . S
C406 C408 1.501 . S
C407 H398 0.931 . S
C407 C403 1.382 . S
C407 C406 1.415 . S
C408 C406 1.501 . S
C408 C409 1.384 . S
C408 C413 1.408 . S
C409 H399 0.930 . S
C409 C408 1.384 . S
C409 C410 1.389 . S
C410 C409 1.389 . S
C410 C411 1.405 . S
C411 H400 0.930 . S
C411 C410 1.405 . S
C411 C412 1.364 . S
C412 C411 1.364 . S
C412 C413 1.400 . S
C413 H401 0.931 . S
C413 C408 1.408 . S
C413 C412 1.400 . S
H414 C420 0.930 . S
H415 C423 0.931 . S
H416 C425 0.931 . S
H417 C427 0.930 . S
H418 C429 0.930 . S
H419 C431 0.931 . S
C420 H414 0.930 . S
C420 C421 1.380 . S
C420 C422 1.394 . S
C421 C420 1.380 . S
C421 C425 1.382 . S
C422 C420 1.394 . S
C422 C423 1.400 . S
C423 H415 0.931 . S
C423 C422 1.400 . S
C423 C424 1.375 . S
C424 C423 1.375 . S
C424 C425 1.415 . S
C424 C426 1.501 . S
C425 H416 0.931 . S
C425 C421 1.382 . S
C425 C424 1.415 . S
C426 C424 1.501 . S
C426 C427 1.384 . S
C426 C431 1.408 . S
C427 H417 0.930 . S
C427 C426 1.384 . S
C427 C428 1.389 . S
C428 C427 1.389 . S
C428 C429 1.405 . S
C429 H418 0.930 . S
C429 C428 1.405 . S
C429 C430 1.364 . S
C430 C429 1.364 . S
C430 C431 1.400 . S
C431 H419 0.931 . S
C431 C426 1.408 . S
C431 C430 1.400 . S
H432 C438 0.947 . S
H433 C441 0.931 . S
H434 C443 0.931 . S
H435 C445 0.930 . S
H436 C447 0.930 . S
H437 C449 0.920 1_545 S
C438 H432 0.947 . S
C438 C439 1.376 . S
C438 C440 1.382 1_545 S
C439 C438 1.376 . S
C439 C443 1.382 . S
C440 C438 1.382 1_565 S
C440 C441 1.400 . S
C441 H433 0.931 . S
C441 C440 1.400 . S
C441 C442 1.375 . S
C442 C441 1.375 . S
C442 C443 1.415 1_565 S
C442 C444 1.501 . S
C443 H434 0.931 . S
C443 C439 1.382 . S
C443 C442 1.415 1_545 S
C444 C442 1.501 . S
C444 C445 1.384 . S
C444 C449 1.399 . S
C445 H435 0.930 . S
C445 C444 1.384 . S
C445 C446 1.389 . S
C446 C445 1.389 . S
C446 C447 1.405 . S
C447 H436 0.930 . S
C447 C446 1.405 . S
C447 C448 1.375 . S
C448 C447 1.375 . S
C448 C449 1.406 . S
C449 H437 0.920 1_565 S
C449 C444 1.399 . S
C449 C448 1.406 . S
H450 C456 0.930 . S
H451 C459 0.931 . S
H452 C461 0.931 . S
H453 C463 0.930 . S
H454 C465 0.930 . S
H455 C467 0.931 . S
C456 H450 0.930 . S
C456 C457 1.380 . S
C456 C458 1.394 . S
C457 C456 1.380 . S
C457 C461 1.382 . S
C458 C456 1.394 . S
C458 C459 1.400 . S
C459 H451 0.931 . S
C459 C458 1.400 . S
C459 C460 1.375 . S
C460 C459 1.375 . S
C460 C461 1.415 . S
C460 C462 1.501 . S
C461 H452 0.931 . S
C461 C457 1.382 . S
C461 C460 1.415 . S
C462 C460 1.501 . S
C462 C463 1.384 . S
C462 C467 1.408 . S
C463 H453 0.930 . S
C463 C462 1.384 . S
C463 C464 1.389 . S
C464 C463 1.389 . S
C464 C465 1.405 . S
C465 H454 0.930 . S
C465 C464 1.405 . S
C465 C466 1.364 . S
C466 C465 1.364 . S
C466 C467 1.400 . S
C467 H455 0.931 . S
C467 C462 1.408 . S
C467 C466 1.400 . S
H468 C474 0.955 . S
H469 C477 0.931 . S
H470 C479 0.933 1_655 S
H471 C481 0.930 . S
H472 C483 0.930 . S
H473 C485 0.931 . S
C474 H468 0.955 . S
C474 C475 1.377 . S
C474 C476 1.368 1_655 S
C475 C474 1.377 . S
C475 C479 1.361 1_655 S
C476 C474 1.368 1_455 S
C476 C477 1.430 . S
C477 H469 0.931 . S
C477 C476 1.430 . S
C477 C478 1.375 . S
C478 C477 1.375 . S
C478 C479 1.418 . S
C478 C480 1.501 . S
C479 H470 0.933 1_455 S
C479 C475 1.361 1_455 S
C479 C478 1.418 . S
C480 C478 1.501 . S
C480 C481 1.384 . S
C480 C485 1.408 1_455 S
C481 H471 0.930 . S
C481 C480 1.384 . S
C481 C482 1.389 . S
C482 C481 1.389 . S
C482 C483 1.405 . S
C483 H472 0.930 . S
C483 C482 1.405 . S
C483 C484 1.364 1_455 S
C484 C483 1.364 1_655 S
C484 C485 1.400 . S
C485 H473 0.931 . S
C485 C480 1.408 1_655 S
C485 C484 1.400 . S
H486 C492 0.930 . S
H487 C495 0.931 . S
H488 C497 0.931 . S
H489 C499 0.930 . S
H490 C501 0.930 . S
H491 C503 0.931 . S
C492 H486 0.930 . S
C492 C493 1.380 . S
C492 C494 1.394 . S
C493 C492 1.380 . S
C493 C497 1.382 . S
C494 C492 1.394 . S
C494 C495 1.400 . S
C495 H487 0.931 . S
C495 C494 1.400 . S
C495 C496 1.375 . S
C496 C495 1.375 . S
C496 C497 1.415 . S
C496 C498 1.501 . S
C497 H488 0.931 . S
C497 C493 1.382 . S
C497 C496 1.415 . S
C498 C496 1.501 . S
C498 C499 1.384 . S
C498 C503 1.408 . S
C499 H489 0.930 . S
C499 C498 1.384 . S
C499 C500 1.389 . S
C500 C499 1.389 . S
C500 C501 1.405 . S
C501 H490 0.930 . S
C501 C500 1.405 . S
C501 C502 1.364 . S
C502 C501 1.364 . S
C502 C503 1.400 . S
C503 H491 0.931 . S
C503 C498 1.408 . S
C503 C502 1.400 . S
H504 C510 0.930 . S
H505 C513 0.931 . S
H506 C515 0.931 . S
H507 C517 0.930 . S
H508 C519 0.930 . S
H509 C521 0.931 . S
C510 H504 0.930 . S
C510 C511 1.380 . S
C510 C512 1.394 . S
C511 C510 1.380 . S
C511 C515 1.382 . S
C512 C510 1.394 . S
C512 C513 1.400 . S
C513 H505 0.931 . S
C513 C512 1.400 . S
C513 C514 1.375 . S
C514 C513 1.375 . S
C514 C515 1.415 . S
C514 C516 1.501 . S
C515 H506 0.931 . S
C515 C511 1.382 . S
C515 C514 1.415 . S
C516 C514 1.501 . S
C516 C517 1.384 . S
C516 C521 1.408 . S
C517 H507 0.930 . S
C517 C516 1.384 . S
C517 C518 1.389 . S
C518 C517 1.389 . S
C518 C519 1.405 . S
C519 H508 0.930 . S
C519 C518 1.405 . S
C519 C520 1.364 . S
C520 C519 1.364 . S
C520 C521 1.400 . S
C521 H509 0.931 . S
C521 C516 1.408 . S
C521 C520 1.400 . S
H522 C528 0.930 . S
H523 C531 0.931 . S
H524 C533 0.931 . S
H525 C535 0.930 . S
H526 C537 0.930 . S
H527 C539 0.931 . S
C528 H522 0.930 . S
C528 C529 1.380 . S
C528 C530 1.394 . S
C529 C528 1.380 . S
C529 C533 1.382 . S
C530 C528 1.394 . S
C530 C531 1.400 . S
C531 H523 0.931 . S
C531 C530 1.400 . S
C531 C532 1.375 . S
C532 C531 1.375 . S
C532 C533 1.415 . S
C532 C534 1.501 . S
C533 H524 0.931 . S
C533 C529 1.382 . S
C533 C532 1.415 . S
C534 C532 1.501 . S
C534 C535 1.384 . S
C534 C539 1.408 . S
C535 H525 0.930 . S
C535 C534 1.384 . S
C535 C536 1.389 . S
C536 C535 1.389 . S
C536 C537 1.405 . S
C537 H526 0.930 . S
C537 C536 1.405 . S
C537 C538 1.364 . S
C538 C537 1.364 . S
C538 C539 1.400 . S
C539 H527 0.931 . S
C539 C534 1.408 . S
C539 C538 1.400 . S
H540 C546 0.930 . S
H541 C549 0.931 . S
H542 C551 0.931 . S
H543 C553 0.930 . S
H544 C555 0.930 . S
H545 C557 0.931 . S
C546 H540 0.930 . S
C546 C547 1.380 . S
C546 C548 1.394 . S
C547 C546 1.380 . S
C547 C551 1.382 . S
C548 C546 1.394 . S
C548 C549 1.400 . S
C549 H541 0.931 . S
C549 C548 1.400 . S
C549 C550 1.375 . S
C550 C549 1.375 . S
C550 C551 1.415 . S
C550 C552 1.501 . S
C551 H542 0.931 . S
C551 C547 1.382 . S
C551 C550 1.415 . S
C552 C550 1.501 . S
C552 C553 1.384 . S
C552 C557 1.408 . S
C553 H543 0.930 . S
C553 C552 1.384 . S
C553 C554 1.389 . S
C554 C553 1.389 . S
C554 C555 1.405 . S
C555 H544 0.930 . S
C555 C554 1.405 . S
C555 C556 1.364 . S
C556 C555 1.364 . S
C556 C557 1.400 . S
C557 H545 0.931 . S
C557 C552 1.408 . S
C557 C556 1.400 . S
H558 C566 0.950 . S
H559 C571 0.950 . S
H560 C568 0.950 . S
H561 C570 0.950 . S
H562 C572 0.950 . S
H563 C574 0.950 . S
H564 C576 0.950 . S
H565 C577 0.950 . S
C566 H558 0.950 . S
C566 C567 1.386 . S
C566 C568 1.391 . S
C567 C566 1.386 . S
C567 C571 1.393 1_455 S
C568 H560 0.950 . S
C568 C566 1.391 . S
C568 C569 1.400 . S
C569 C568 1.400 . S
C569 C570 1.398 1_455 S
C569 C575 1.491 . S
C570 H561 0.950 . S
C570 C569 1.398 1_655 S
C570 C571 1.391 . S
C571 H559 0.950 . S
C571 C567 1.393 1_655 S
C571 C570 1.391 . S
C572 H562 0.950 . S
C572 C573 1.386 1_655 S
C572 C574 1.391 . S
C573 C572 1.386 1_455 S
C573 C577 1.393 . S
C574 H563 0.950 . S
C574 C572 1.391 . S
C574 C575 1.400 1_655 S
C575 C569 1.491 . S
C575 C574 1.400 1_455 S
C575 C576 1.398 . S
C576 H564 0.950 . S
C576 C575 1.398 . S
C576 C577 1.391 . S
C577 H565 0.950 . S
C577 C573 1.393 . S
C577 C576 1.391 . S
H578 C586 0.950 . S
H579 C591 0.950 . S
H580 C588 0.950 . S
H581 C590 0.950 . S
H582 C592 0.950 . S
H583 C594 0.950 . S
H584 C596 0.950 . S
H585 C597 0.950 . S
C586 H578 0.950 . S
C586 C587 1.386 . S
C586 C588 1.391 . S
C587 C586 1.386 . S
C587 C591 1.393 . S
C588 H580 0.950 . S
C588 C586 1.391 . S
C588 C589 1.400 . S
C589 C588 1.400 . S
C589 C590 1.398 . S
C589 C595 1.491 . S
C590 H581 0.950 . S
C590 C589 1.398 . S
C590 C591 1.391 . S
C591 H579 0.950 . S
C591 C587 1.393 . S
C591 C590 1.391 . S
C592 H582 0.950 . S
C592 C593 1.386 . S
C592 C594 1.391 . S
C593 C592 1.386 . S
C593 C597 1.393 . S
C594 H583 0.950 . S
C594 C592 1.391 . S
C594 C595 1.400 . S
C595 C589 1.491 . S
C595 C594 1.400 . S
C595 C596 1.398 . S
C596 H584 0.950 . S
C596 C595 1.398 . S
C596 C597 1.391 . S
C597 H585 0.950 . S
C597 C593 1.393 . S
C597 C596 1.391 . S
H598 C606 0.948 . S
H599 C611 0.950 . S
H600 C608 0.951 1_565 S
H601 C610 0.950 . S
H602 C612 0.950 . S
H603 C614 0.950 . S
H604 C616 0.950 . S
H605 C617 0.950 . S
C606 H598 0.948 . S
C606 C607 1.386 1_565 S
C606 C608 1.402 1_565 S
C607 C606 1.386 1_545 S
C607 C611 1.393 . S
C608 H600 0.951 1_545 S
C608 C606 1.402 1_545 S
C608 C609 1.391 . S
C609 C608 1.391 . S
C609 C610 1.398 . S
C609 C615 1.491 . S
C610 H601 0.950 . S
C610 C609 1.398 . S
C610 C611 1.391 . S
C611 H599 0.950 . S
C611 C607 1.393 . S
C611 C610 1.391 . S
C612 H602 0.950 . S
C612 C613 1.386 . S
C612 C614 1.391 . S
C613 C612 1.386 . S
C613 C617 1.393 . S
C614 H603 0.950 . S
C614 C612 1.391 . S
C614 C615 1.400 . S
C615 C609 1.491 . S
C615 C614 1.400 . S
C615 C616 1.398 . S
C616 H604 0.950 . S
C616 C615 1.398 . S
C616 C617 1.391 . S
C617 H605 0.950 . S
C617 C613 1.393 . S
C617 C616 1.391 . S
H618 C626 0.950 . S
H619 C631 0.950 . S
H620 C628 0.950 . S
H621 C630 0.950 . S
H622 C632 0.950 . S
H623 C634 0.950 . S
H624 C636 0.950 . S
H625 C637 0.950 . S
C626 H618 0.950 . S
C626 C627 1.386 1_565 S
C626 C628 1.391 . S
C627 C626 1.386 1_545 S
C627 C631 1.393 . S
C628 H620 0.950 . S
C628 C626 1.391 . S
C628 C629 1.400 1_565 S
C629 C628 1.400 1_545 S
C629 C630 1.398 . S
C629 C635 1.491 . S
C630 H621 0.950 . S
C630 C629 1.398 . S
C630 C631 1.391 . S
C631 H619 0.950 . S
C631 C627 1.393 . S
C631 C630 1.391 . S
C632 H622 0.950 . S
C632 C633 1.386 . S
C632 C634 1.391 . S
C633 C632 1.386 . S
C633 C637 1.393 1_545 S
C634 H623 0.950 . S
C634 C632 1.391 . S
C634 C635 1.400 . S
C635 C629 1.491 . S
C635 C634 1.400 . S
C635 C636 1.398 1_545 S
C636 H624 0.950 . S
C636 C635 1.398 1_565 S
C636 C637 1.391 . S
C637 H625 0.950 . S
C637 C633 1.393 1_565 S
C637 C636 1.391 . S
H638 C646 0.950 . S
H639 C651 0.950 . S
H640 C648 0.950 . S
H641 C650 0.950 . S
H642 C652 0.950 . S
H643 C654 0.950 . S
H644 C656 0.950 . S
H645 C657 0.950 . S
C646 H638 0.950 . S
C646 C647 1.386 . S
C646 C648 1.391 . S
C647 C646 1.386 . S
C647 C651 1.393 1_455 S
C648 H640 0.950 . S
C648 C646 1.391 . S
C648 C649 1.400 . S
C649 C648 1.400 . S
C649 C650 1.398 1_455 S
C649 C655 1.491 . S
C650 H641 0.950 . S
C650 C649 1.398 1_655 S
C650 C651 1.391 . S
C651 H639 0.950 . S
C651 C647 1.393 1_655 S
C651 C650 1.391 . S
C652 H642 0.950 . S
C652 C653 1.386 1_655 S
C652 C654 1.391 . S
C653 C652 1.386 1_455 S
C653 C657 1.393 . S
C654 H643 0.950 . S
C654 C652 1.391 . S
C654 C655 1.400 1_655 S
C655 C649 1.491 . S
C655 C654 1.400 1_455 S
C655 C656 1.398 . S
C656 H644 0.950 . S
C656 C655 1.398 . S
C656 C657 1.391 . S
C657 H645 0.950 . S
C657 C653 1.393 . S
C657 C656 1.391 . S
H658 C666 0.950 . S
H659 C671 0.950 . S
H660 C668 0.950 . S
H661 C670 0.950 . S
H662 C672 0.950 . S
H663 C674 0.950 . S
H664 C676 0.950 . S
H665 C677 0.950 . S
C666 H658 0.950 . S
C666 C667 1.386 . S
C666 C668 1.391 . S
C667 C666 1.386 . S
C667 C671 1.393 . S
C668 H660 0.950 . S
C668 C666 1.391 . S
C668 C669 1.400 . S
C669 C668 1.400 . S
C669 C670 1.398 . S
C669 C675 1.491 . S
C670 H661 0.950 . S
C670 C669 1.398 . S
C670 C671 1.391 . S
C671 H659 0.950 . S
C671 C667 1.393 . S
C671 C670 1.391 . S
C672 H662 0.950 . S
C672 C673 1.386 . S
C672 C674 1.391 . S
C673 C672 1.386 . S
C673 C677 1.393 . S
C674 H663 0.950 . S
C674 C672 1.391 . S
C674 C675 1.400 . S
C675 C669 1.491 . S
C675 C674 1.400 . S
C675 C676 1.398 . S
C676 H664 0.950 . S
C676 C675 1.398 . S
C676 C677 1.391 . S
C677 H665 0.950 . S
C677 C673 1.393 . S
C677 C676 1.391 . S
H678 C686 0.950 . S
H679 C691 0.950 . S
H680 C688 0.950 . S
H681 C690 0.950 . S
H682 C692 0.950 . S
H683 C694 0.950 . S
H684 C696 0.950 . S
H685 C697 0.950 . S
C686 H678 0.950 . S
C686 C687 1.386 . S
C686 C688 1.391 . S
C687 C686 1.386 . S
C687 C691 1.393 1_455 S
C688 H680 0.950 . S
C688 C686 1.391 . S
C688 C689 1.400 . S
C689 C688 1.400 . S
C689 C690 1.398 1_455 S
C689 C695 1.481 . S
C690 H681 0.950 . S
C690 C689 1.398 1_655 S
C690 C691 1.391 . S
C691 H679 0.950 . S
C691 C687 1.393 1_655 S
C691 C690 1.391 . S
C692 H682 0.950 . S
C692 C693 1.413 . S
C692 C694 1.391 . S
C693 C692 1.413 . S
C693 C697 1.378 1_655 S
C694 H683 0.950 . S
C694 C692 1.391 . S
C694 C695 1.388 1_655 S
C695 C689 1.481 . S
C695 C694 1.388 1_455 S
C695 C696 1.420 . S
C696 H684 0.950 . S
C696 C695 1.420 . S
C696 C697 1.391 . S
C697 H685 0.950 . S
C697 C693 1.378 1_455 S
C697 C696 1.391 . S
H698 C706 0.950 . S
H699 C711 0.950 . S
H700 C708 0.950 . S
H701 C710 0.950 . S
H702 C712 0.950 . S
H703 C714 0.950 . S
H704 C716 0.950 . S
H705 C717 0.950 . S
C706 H698 0.950 . S
C706 C707 1.386 . S
C706 C708 1.391 . S
C707 C706 1.386 . S
C707 C711 1.393 . S
C708 H700 0.950 . S
C708 C706 1.391 . S
C708 C709 1.400 . S
C709 C708 1.400 . S
C709 C710 1.398 . S
C709 C715 1.491 . S
C710 H701 0.950 . S
C710 C709 1.398 . S
C710 C711 1.391 . S
C711 H699 0.950 . S
C711 C707 1.393 . S
C711 C710 1.391 . S
C712 H702 0.950 . S
C712 C713 1.386 . S
C712 C714 1.391 . S
C713 C712 1.386 . S
C713 C717 1.393 . S
C714 H703 0.950 . S
C714 C712 1.391 . S
C714 C715 1.400 . S
C715 C709 1.491 . S
C715 C714 1.400 . S
C715 C716 1.398 . S
C716 H704 0.950 . S
C716 C715 1.398 . S
C716 C717 1.391 . S
C717 H705 0.950 . S
C717 C713 1.393 . S
C717 C716 1.391 . S
H718 C726 0.950 . S
H719 C731 0.950 . S
H720 C728 0.950 . S
H721 C730 0.950 . S
H722 C732 0.950 . S
H723 C734 0.950 . S
H724 C736 1.009 . S
H725 C737 0.971 . S
C726 H718 0.950 . S
C726 C727 1.386 1_565 S
C726 C728 1.391 . S
C727 C726 1.386 1_545 S
C727 C731 1.393 . S
C728 H720 0.950 . S
C728 C726 1.391 . S
C728 C729 1.400 1_565 S
C729 C728 1.400 1_545 S
C729 C730 1.398 . S
C729 C735 1.491 . S
C730 H721 0.950 . S
C730 C729 1.398 . S
C730 C731 1.391 . S
C731 H719 0.950 . S
C731 C727 1.393 . S
C731 C730 1.391 . S
C732 H722 0.950 . S
C732 C733 1.386 . S
C732 C734 1.391 . S
C733 C732 1.386 . S
C733 C737 1.357 1_545 S
C734 H723 0.950 . S
C734 C732 1.391 . S
C734 C735 1.400 . S
C735 C729 1.491 . S
C735 C734 1.400 . S
C735 C736 1.368 1_545 S
C736 H724 1.009 . S
C736 C735 1.368 1_565 S
C736 C737 1.381 . S
C737 H725 0.971 . S
C737 C733 1.357 1_565 S
C737 C736 1.381 . S
H738 C746 0.950 . S
H739 C751 0.950 . S
H740 C748 0.950 . S
H741 C750 0.950 . S
H742 C752 0.950 . S
H743 C754 0.950 . S
H744 C756 0.950 . S
H745 C757 0.950 . S
C746 H738 0.950 . S
C746 C747 1.386 . S
C746 C748 1.391 . S
C747 C746 1.386 . S
C747 C751 1.393 1_545 S
C748 H740 0.950 . S
C748 C746 1.391 . S
C748 C749 1.400 . S
C749 C748 1.400 . S
C749 C750 1.398 1_545 S
C749 C755 1.486 . S
C750 H741 0.950 . S
C750 C749 1.398 1_565 S
C750 C751 1.391 . S
C751 H739 0.950 . S
C751 C747 1.393 1_565 S
C751 C750 1.391 . S
C752 H742 0.950 . S
C752 C753 1.407 . S
C752 C754 1.391 . S
C753 C752 1.407 . S
C753 C757 1.400 1_565 S
C754 H743 0.950 . S
C754 C752 1.391 . S
C754 C755 1.401 1_565 S
C755 C749 1.486 . S
C755 C754 1.401 1_545 S
C755 C756 1.402 . S
C756 H744 0.950 . S
C756 C755 1.402 . S
C756 C757 1.391 . S
C757 H745 0.950 . S
C757 C753 1.400 1_545 S
C757 C756 1.391 . S
H758 C766 0.950 . S
H759 C771 0.950 . S
H760 C768 0.950 . S
H761 C770 0.950 . S
H762 C772 0.950 . S
H763 C774 0.950 . S
H764 C776 0.950 . S
H765 C777 0.950 . S
C766 H758 0.950 . S
C766 C767 1.386 . S
C766 C768 1.391 . S
C767 C766 1.386 . S
C767 C771 1.393 1_455 S
C768 H760 0.950 . S
C768 C766 1.391 . S
C768 C769 1.400 . S
C769 C768 1.400 . S
C769 C770 1.398 1_455 S
C769 C775 1.491 . S
C770 H761 0.950 . S
C770 C769 1.398 1_655 S
C770 C771 1.391 . S
C771 H759 0.950 . S
C771 C767 1.393 1_655 S
C771 C770 1.391 . S
C772 H762 0.950 . S
C772 C773 1.386 1_655 S
C772 C774 1.391 . S
C773 C772 1.386 1_455 S
C773 C777 1.393 . S
C774 H763 0.950 . S
C774 C772 1.391 . S
C774 C775 1.400 1_655 S
C775 C769 1.491 . S
C775 C774 1.400 1_455 S
C775 C776 1.398 . S
C776 H764 0.950 . S
C776 C775 1.398 . S
C776 C777 1.391 . S
C777 H765 0.950 . S
C777 C773 1.393 . S
C777 C776 1.391 . S
H778 C786 0.950 . S
H779 C791 0.950 . S
H780 C788 0.950 . S
H781 C790 0.950 . S
H782 C792 0.950 . S
H783 C794 0.950 . S
H784 C796 0.950 . S
H785 C797 0.950 . S
C786 H778 0.950 . S
C786 C787 1.386 . S
C786 C788 1.391 . S
C787 C786 1.386 . S
C787 C791 1.393 . S
C788 H780 0.950 . S
C788 C786 1.391 . S
C788 C789 1.400 . S
C789 C788 1.400 . S
C789 C790 1.398 . S
C789 C795 1.491 . S
C790 H781 0.950 . S
C790 C789 1.398 . S
C790 C791 1.391 . S
C791 H779 0.950 . S
C791 C787 1.393 . S
C791 C790 1.391 . S
C792 H782 0.950 . S
C792 C793 1.386 . S
C792 C794 1.391 . S
C793 C792 1.386 . S
C793 C797 1.393 . S
C794 H783 0.950 . S
C794 C792 1.391 . S
C794 C795 1.400 . S
C795 C789 1.491 . S
C795 C794 1.400 . S
C795 C796 1.398 . S
C796 H784 0.950 . S
C796 C795 1.398 . S
C796 C797 1.391 . S
C797 H785 0.950 . S
C797 C793 1.393 . S
C797 C796 1.391 . S
H798 C806 0.950 . S
H799 C811 0.950 . S
H800 C808 0.950 . S
H801 C810 0.950 . S
H802 C812 0.950 . S
H803 C814 0.950 . S
H804 C816 0.950 . S
H805 C817 0.950 . S
C806 H798 0.950 . S
C806 C807 1.386 . S
C806 C808 1.391 . S
C807 C806 1.386 . S
C807 C811 1.393 . S
C808 H800 0.950 . S
C808 C806 1.391 . S
C808 C809 1.400 . S
C809 C808 1.400 . S
C809 C810 1.398 . S
C809 C815 1.491 . S
C810 H801 0.950 . S
C810 C809 1.398 . S
C810 C811 1.391 . S
C811 H799 0.950 . S
C811 C807 1.393 . S
C811 C810 1.391 . S
C812 H802 0.950 . S
C812 C813 1.386 . S
C812 C814 1.391 . S
C813 C812 1.386 . S
C813 C817 1.393 . S
C814 H803 0.950 . S
C814 C812 1.391 . S
C814 C815 1.400 . S
C815 C809 1.491 . S
C815 C814 1.400 . S
C815 C816 1.398 . S
C816 H804 0.950 . S
C816 C815 1.398 . S
C816 C817 1.391 . S
C817 H805 0.950 . S
C817 C813 1.393 . S
C817 C816 1.391 . S
H818 C826 0.950 . S
H819 C831 0.950 . S
H820 C828 0.950 . S
H821 C830 0.950 . S
H822 C832 0.950 . S
H823 C834 0.950 . S
H824 C836 0.950 . S
H825 C837 0.950 . S
C826 H818 0.950 . S
C826 C827 1.386 . S
C826 C828 1.391 . S
C827 C826 1.386 . S
C827 C831 1.393 . S
C828 H820 0.950 . S
C828 C826 1.391 . S
C828 C829 1.400 . S
C829 C828 1.400 . S
C829 C830 1.398 . S
C829 C835 1.491 . S
C830 H821 0.950 . S
C830 C829 1.398 . S
C830 C831 1.391 . S
C831 H819 0.950 . S
C831 C827 1.393 . S
C831 C830 1.391 . S
C832 H822 0.950 . S
C832 C833 1.386 . S
C832 C834 1.391 . S
C833 C832 1.386 . S
C833 C837 1.393 . S
C834 H823 0.950 . S
C834 C832 1.391 . S
C834 C835 1.400 . S
C835 C829 1.491 . S
C835 C834 1.400 . S
C835 C836 1.398 . S
C836 H824 0.950 . S
C836 C835 1.398 . S
C836 C837 1.391 . S
C837 H825 0.950 . S
C837 C833 1.393 . S
C837 C836 1.391 . S
H838 C846 0.950 . S
H839 C851 0.950 . S
H840 C848 0.950 . S
H841 C850 0.950 . S
H842 C852 0.950 . S
H843 C854 0.950 . S
H844 C856 0.950 . S
H845 C857 0.950 . S
C846 H838 0.950 . S
C846 C847 1.386 . S
C846 C848 1.391 . S
C847 C846 1.386 . S
C847 C851 1.393 . S
C848 H840 0.950 . S
C848 C846 1.391 . S
C848 C849 1.400 . S
C849 C848 1.400 . S
C849 C850 1.398 . S
C849 C855 1.491 . S
C850 H841 0.950 . S
C850 C849 1.398 . S
C850 C851 1.391 . S
C851 H839 0.950 . S
C851 C847 1.393 . S
C851 C850 1.391 . S
C852 H842 0.950 . S
C852 C853 1.386 . S
C852 C854 1.391 . S
C853 C852 1.386 . S
C853 C857 1.393 . S
C854 H843 0.950 . S
C854 C852 1.391 . S
C854 C855 1.400 . S
C855 C849 1.491 . S
C855 C854 1.400 . S
C855 C856 1.398 . S
C856 H844 0.950 . S
C856 C855 1.398 . S
C856 C857 1.391 . S
C857 H845 0.950 . S
C857 C853 1.393 . S
C857 C856 1.391 . S
H858 C866 0.950 . S
H859 C871 0.950 . S
H860 C868 0.950 . S
H861 C870 0.950 . S
H862 C872 0.950 . S
H863 C874 0.950 . S
H864 C876 0.950 . S
H865 C877 0.950 . S
C866 H858 0.950 . S
C866 C867 1.386 . S
C866 C868 1.391 . S
C867 C866 1.386 . S
C867 C871 1.393 . S
C868 H860 0.950 . S
C868 C866 1.391 . S
C868 C869 1.400 . S
C869 C868 1.400 . S
C869 C870 1.398 . S
C869 C875 1.491 . S
C870 H861 0.950 . S
C870 C869 1.398 . S
C870 C871 1.391 . S
C871 H859 0.950 . S
C871 C867 1.393 . S
C871 C870 1.391 . S
C872 H862 0.950 . S
C872 C873 1.386 . S
C872 C874 1.391 . S
C873 C872 1.386 . S
C873 C877 1.393 . S
C874 H863 0.950 . S
C874 C872 1.391 . S
C874 C875 1.400 . S
C875 C869 1.491 . S
C875 C874 1.400 . S
C875 C876 1.398 . S
C876 H864 0.950 . S
C876 C875 1.398 . S
C876 C877 1.391 . S
C877 H865 0.950 . S
C877 C873 1.393 . S
C877 C876 1.391 . S
H878 C886 0.950 . S
H879 C891 0.950 . S
H880 C888 0.950 . S
H881 C890 0.950 . S
H882 C892 0.950 . S
H883 C894 0.950 . S
H884 C896 0.950 . S
H885 C897 0.950 . S
C886 H878 0.950 . S
C886 C887 1.386 . S
C886 C888 1.391 . S
C887 C886 1.386 . S
C887 C891 1.393 . S
C888 H880 0.950 . S
C888 C886 1.391 . S
C888 C889 1.400 . S
C889 C888 1.400 . S
C889 C890 1.398 . S
C889 C895 1.491 . S
C890 H881 0.950 . S
C890 C889 1.398 . S
C890 C891 1.391 . S
C891 H879 0.950 . S
C891 C887 1.393 . S
C891 C890 1.391 . S
C892 H882 0.950 . S
C892 C893 1.386 . S
C892 C894 1.391 . S
C893 C892 1.386 . S
C893 C897 1.393 . S
C894 H883 0.950 . S
C894 C892 1.391 . S
C894 C895 1.400 . S
C895 C889 1.491 . S
C895 C894 1.400 . S
C895 C896 1.398 . S
C896 H884 0.950 . S
C896 C895 1.398 . S
C896 C897 1.391 . S
C897 H885 0.950 . S
C897 C893 1.393 . S
C897 C896 1.391 . S
H898 C906 0.950 . S
H899 C911 0.950 . S
H900 C908 0.950 . S
H901 C910 0.950 . S
H902 C912 0.950 . S
H903 C914 0.950 . S
H904 C916 0.950 . S
H905 C917 0.950 . S
C906 H898 0.950 . S
C906 C907 1.386 . S
C906 C908 1.391 . S
C907 C906 1.386 . S
C907 C911 1.393 . S
C908 H900 0.950 . S
C908 C906 1.391 . S
C908 C909 1.400 . S
C909 C908 1.400 . S
C909 C910 1.398 . S
C909 C915 1.491 . S
C910 H901 0.950 . S
C910 C909 1.398 . S
C910 C911 1.391 . S
C911 H899 0.950 . S
C911 C907 1.393 . S
C911 C910 1.391 . S
C912 H902 0.950 . S
C912 C913 1.386 . S
C912 C914 1.391 . S
C913 C912 1.386 . S
C913 C917 1.393 . S
C914 H903 0.950 . S
C914 C912 1.391 . S
C914 C915 1.400 . S
C915 C909 1.491 . S
C915 C914 1.400 . S
C915 C916 1.398 . S
C916 H904 0.950 . S
C916 C915 1.398 . S
C916 C917 1.391 . S
C917 H905 0.950 . S
C917 C913 1.393 . S
C917 C916 1.391 . S
H918 C926 0.950 . S
H919 C931 0.950 . S
H920 C928 0.950 . S
H921 C930 0.950 . S
H922 C932 0.950 . S
H923 C934 0.950 . S
H924 C936 0.950 . S
H925 C937 0.950 . S
C926 H918 0.950 . S
C926 C927 1.386 . S
C926 C928 1.391 . S
C927 C926 1.386 . S
C927 C931 1.393 . S
C928 H920 0.950 . S
C928 C926 1.391 . S
C928 C929 1.400 . S
C929 C928 1.400 . S
C929 C930 1.398 . S
C929 C935 1.491 . S
C930 H921 0.950 . S
C930 C929 1.398 . S
C930 C931 1.391 . S
C931 H919 0.950 . S
C931 C927 1.393 . S
C931 C930 1.391 . S
C932 H922 0.950 . S
C932 C933 1.386 . S
C932 C934 1.391 . S
C933 C932 1.386 . S
C933 C937 1.393 . S
C934 H923 0.950 . S
C934 C932 1.391 . S
C934 C935 1.400 . S
C935 C929 1.491 . S
C935 C934 1.400 . S
C935 C936 1.398 . S
C936 H924 0.950 . S
C936 C935 1.398 . S
C936 C937 1.391 . S
C937 H925 0.950 . S
C937 C933 1.393 . S
C937 C936 1.391 . S
H938 C946 0.950 . S
H939 C951 0.950 . S
H940 C948 0.950 . S
H941 C950 0.950 . S
H942 C952 0.950 . S
H943 C954 0.950 . S
H944 C956 0.950 . S
H945 C957 0.950 . S
C946 H938 0.950 . S
C946 C947 1.386 . S
C946 C948 1.391 . S
C947 C946 1.386 . S
C947 C951 1.393 . S
C948 H940 0.950 . S
C948 C946 1.391 . S
C948 C949 1.400 . S
C949 C948 1.400 . S
C949 C950 1.398 . S
C949 C955 1.491 . S
C950 H941 0.950 . S
C950 C949 1.398 . S
C950 C951 1.391 . S
C951 H939 0.950 . S
C951 C947 1.393 . S
C951 C950 1.391 . S
C952 H942 0.950 . S
C952 C953 1.386 . S
C952 C954 1.391 . S
C953 C952 1.386 . S
C953 C957 1.393 . S
C954 H943 0.950 . S
C954 C952 1.391 . S
C954 C955 1.400 . S
C955 C949 1.491 . S
C955 C954 1.400 . S
C955 C956 1.398 . S
C956 H944 0.950 . S
C956 C955 1.398 . S
C956 C957 1.391 . S
C957 H945 0.950 . S
C957 C953 1.393 . S
C957 C956 1.391 . S
H958 C966 0.950 . S
H959 C971 0.950 . S
H960 C968 0.950 . S
H961 C970 0.950 . S
H962 C972 0.950 . S
H963 C974 0.950 . S
H964 C976 0.950 . S
H965 C977 0.950 . S
C966 H958 0.950 . S
C966 C967 1.386 . S
C966 C968 1.391 . S
C967 C966 1.386 . S
C967 C971 1.393 . S
C968 H960 0.950 . S
C968 C966 1.391 . S
C968 C969 1.400 . S
C969 C968 1.400 . S
C969 C970 1.398 . S
C969 C975 1.491 . S
C970 H961 0.950 . S
C970 C969 1.398 . S
C970 C971 1.391 . S
C971 H959 0.950 . S
C971 C967 1.393 . S
C971 C970 1.391 . S
C972 H962 0.950 . S
C972 C973 1.386 . S
C972 C974 1.391 . S
C973 C972 1.386 . S
C973 C977 1.393 . S
C974 H963 0.950 . S
C974 C972 1.391 . S
C974 C975 1.400 . S
C975 C969 1.491 . S
C975 C974 1.400 . S
C975 C976 1.398 . S
C976 H964 0.950 . S
C976 C975 1.398 . S
C976 C977 1.391 . S
C977 H965 0.950 . S
C977 C973 1.393 . S
C977 C976 1.391 . S
H978 C986 0.950 . S
H979 C991 0.950 . S
H980 C988 0.950 . S
H981 C990 0.950 . S
H982 C992 0.950 . S
H983 C994 0.950 . S
H984 C996 0.950 . S
H985 C997 0.950 . S
C986 H978 0.950 . S
C986 C987 1.386 . S
C986 C988 1.391 . S
C987 C986 1.386 . S
C987 C991 1.393 . S
C988 H980 0.950 . S
C988 C986 1.391 . S
C988 C989 1.400 . S
C989 C988 1.400 . S
C989 C990 1.398 . S
C989 C995 1.491 . S
C990 H981 0.950 . S
C990 C989 1.398 . S
C990 C991 1.391 . S
C991 H979 0.950 . S
C991 C987 1.393 . S
C991 C990 1.391 . S
C992 H982 0.950 . S
C992 C993 1.386 . S
C992 C994 1.391 . S
C993 C992 1.386 . S
C993 C997 1.393 . S
C994 H983 0.950 . S
C994 C992 1.391 . S
C994 C995 1.400 . S
C995 C989 1.491 . S
C995 C994 1.400 . S
C995 C996 1.398 . S
C996 H984 0.950 . S
C996 C995 1.398 . S
C996 C997 1.391 . S
C997 H985 0.950 . S
C997 C993 1.393 . S
C997 C996 1.391 . S
H998 C1006 0.950 . S
H999 C1011 0.950 . S
H1000 C1008 0.950 . S
H1001 C1010 0.950 . S
H1002 C1012 0.950 . S
H1003 C1014 0.950 . S
H1004 C1016 0.950 . S
H1005 C1017 0.950 . S
C1006 H998 0.950 . S
C1006 C1007 1.386 . S
C1006 C1008 1.391 . S
C1007 C1006 1.386 . S
C1007 C1011 1.393 . S
C1008 H1000 0.950 . S
C1008 C1006 1.391 . S
C1008 C1009 1.400 . S
C1009 C1008 1.400 . S
C1009 C1010 1.398 . S
C1009 C1015 1.491 . S
C1010 H1001 0.950 . S
C1010 C1009 1.398 . S
C1010 C1011 1.391 . S
C1011 H999 0.950 . S
C1011 C1007 1.393 . S
C1011 C1010 1.391 . S
C1012 H1002 0.950 . S
C1012 C1013 1.386 . S
C1012 C1014 1.391 . S
C1013 C1012 1.386 . S
C1013 C1017 1.393 . S
C1014 H1003 0.950 . S
C1014 C1012 1.391 . S
C1014 C1015 1.400 . S
C1015 C1009 1.491 . S
C1015 C1014 1.400 . S
C1015 C1016 1.398 . S
C1016 H1004 0.950 . S
C1016 C1015 1.398 . S
C1016 C1017 1.391 . S
C1017 H1005 0.950 . S
C1017 C1013 1.393 . S
C1017 C1016 1.391 . S
H1018 C1026 0.950 . S
H1019 C1031 0.950 . S
H1020 C1028 0.950 . S
H1021 C1030 0.950 . S
H1022 C1032 0.950 . S
H1023 C1034 0.950 . S
H1024 C1036 0.950 . S
H1025 C1037 0.950 . S
C1026 H1018 0.950 . S
C1026 C1027 1.386 . S
C1026 C1028 1.391 . S
C1027 C1026 1.386 . S
C1027 C1031 1.393 . S
C1028 H1020 0.950 . S
C1028 C1026 1.391 . S
C1028 C1029 1.400 . S
C1029 C1028 1.400 . S
C1029 C1030 1.398 . S
C1029 C1035 1.491 . S
C1030 H1021 0.950 . S
C1030 C1029 1.398 . S
C1030 C1031 1.391 . S
C1031 H1019 0.950 . S
C1031 C1027 1.393 . S
C1031 C1030 1.391 . S
C1032 H1022 0.950 . S
C1032 C1033 1.386 . S
C1032 C1034 1.391 . S
C1033 C1032 1.386 . S
C1033 C1037 1.393 . S
C1034 H1023 0.950 . S
C1034 C1032 1.391 . S
C1034 C1035 1.400 . S
C1035 C1029 1.491 . S
C1035 C1034 1.400 . S
C1035 C1036 1.398 . S
C1036 H1024 0.950 . S
C1036 C1035 1.398 . S
C1036 C1037 1.391 . S
C1037 H1025 0.950 . S
C1037 C1033 1.393 . S
C1037 C1036 1.391 . S
H1038 C1046 0.950 . S
H1039 C1051 0.950 . S
H1040 C1048 0.950 . S
H1041 C1050 0.950 . S
H1042 C1052 0.950 . S
H1043 C1054 0.950 . S
H1044 C1056 0.950 . S
H1045 C1057 0.950 . S
C1046 H1038 0.950 . S
C1046 C1047 1.386 . S
C1046 C1048 1.391 . S
C1047 C1046 1.386 . S
C1047 C1051 1.393 . S
C1048 H1040 0.950 . S
C1048 C1046 1.391 . S
C1048 C1049 1.400 . S
C1049 C1048 1.400 . S
C1049 C1050 1.398 . S
C1049 C1055 1.491 . S
C1050 H1041 0.950 . S
C1050 C1049 1.398 . S
C1050 C1051 1.391 . S
C1051 H1039 0.950 . S
C1051 C1047 1.393 . S
C1051 C1050 1.391 . S
C1052 H1042 0.950 . S
C1052 C1053 1.386 . S
C1052 C1054 1.391 . S
C1053 C1052 1.386 . S
C1053 C1057 1.393 . S
C1054 H1043 0.950 . S
C1054 C1052 1.391 . S
C1054 C1055 1.400 . S
C1055 C1049 1.491 . S
C1055 C1054 1.400 . S
C1055 C1056 1.398 . S
C1056 H1044 0.950 . S
C1056 C1055 1.398 . S
C1056 C1057 1.391 . S
C1057 H1045 0.950 . S
C1057 C1053 1.393 . S
C1057 C1056 1.391 . S
H1058 C1066 0.950 . S
H1059 C1071 0.950 . S
H1060 C1068 0.950 . S
H1061 C1070 0.950 . S
H1062 C1072 0.950 . S
H1063 C1074 0.950 . S
H1064 C1076 0.950 . S
H1065 C1077 0.950 . S
C1066 H1058 0.950 . S
C1066 C1067 1.386 . S
C1066 C1068 1.391 . S
C1067 C1066 1.386 . S
C1067 C1071 1.393 . S
C1068 H1060 0.950 . S
C1068 C1066 1.391 . S
C1068 C1069 1.400 . S
C1069 C1068 1.400 . S
C1069 C1070 1.398 . S
C1069 C1075 1.491 . S
C1070 H1061 0.950 . S
C1070 C1069 1.398 . S
C1070 C1071 1.391 . S
C1071 H1059 0.950 . S
C1071 C1067 1.393 . S
C1071 C1070 1.391 . S
C1072 H1062 0.950 . S
C1072 C1073 1.386 . S
C1072 C1074 1.391 . S
C1073 C1072 1.386 . S
C1073 C1077 1.393 . S
C1074 H1063 0.950 . S
C1074 C1072 1.391 . S
C1074 C1075 1.400 . S
C1075 C1069 1.491 . S
C1075 C1074 1.400 . S
C1075 C1076 1.398 . S
C1076 H1064 0.950 . S
C1076 C1075 1.398 . S
C1076 C1077 1.391 . S
C1077 H1065 0.950 . S
C1077 C1073 1.393 . S
C1077 C1076 1.391 . S
H1078 C1086 0.950 . S
H1079 C1091 0.950 . S
H1080 C1088 0.950 . S
H1081 C1090 0.950 . S
H1082 C1092 0.950 . S
H1083 C1094 0.950 . S
H1084 C1096 0.950 . S
H1085 C1097 0.950 . S
C1086 H1078 0.950 . S
C1086 C1087 1.386 . S
C1086 C1088 1.391 . S
C1087 C1086 1.386 . S
C1087 C1091 1.393 . S
C1088 H1080 0.950 . S
C1088 C1086 1.391 . S
C1088 C1089 1.400 . S
C1089 C1088 1.400 . S
C1089 C1090 1.398 . S
C1089 C1095 1.491 . S
C1090 H1081 0.950 . S
C1090 C1089 1.398 . S
C1090 C1091 1.391 . S
C1091 H1079 0.950 . S
C1091 C1087 1.393 . S
C1091 C1090 1.391 . S
C1092 H1082 0.950 . S
C1092 C1093 1.386 . S
C1092 C1094 1.391 . S
C1093 C1092 1.386 . S
C1093 C1097 1.393 . S
C1094 H1083 0.950 . S
C1094 C1092 1.391 . S
C1094 C1095 1.400 . S
C1095 C1089 1.491 . S
C1095 C1094 1.400 . S
C1095 C1096 1.398 . S
C1096 H1084 0.950 . S
C1096 C1095 1.398 . S
C1096 C1097 1.391 . S
C1097 H1085 0.950 . S
C1097 C1093 1.393 . S
C1097 C1096 1.391 . S
H1098 C1106 0.950 . S
H1099 C1111 0.950 . S
H1100 C1108 0.950 . S
H1101 C1110 0.950 . S
H1102 C1112 0.950 . S
H1103 C1114 0.950 . S
H1104 C1116 0.950 . S
H1105 C1117 0.950 . S
C1106 H1098 0.950 . S
C1106 C1107 1.386 . S
C1106 C1108 1.391 . S
C1107 C1106 1.386 . S
C1107 C1111 1.393 . S
C1108 H1100 0.950 . S
C1108 C1106 1.391 . S
C1108 C1109 1.400 . S
C1109 C1108 1.400 . S
C1109 C1110 1.398 . S
C1109 C1115 1.491 . S
C1110 H1101 0.950 . S
C1110 C1109 1.398 . S
C1110 C1111 1.391 . S
C1111 H1099 0.950 . S
C1111 C1107 1.393 . S
C1111 C1110 1.391 . S
C1112 H1102 0.950 . S
C1112 C1113 1.386 . S
C1112 C1114 1.391 . S
C1113 C1112 1.386 . S
C1113 C1117 1.393 . S
C1114 H1103 0.950 . S
C1114 C1112 1.391 . S
C1114 C1115 1.400 . S
C1115 C1109 1.491 . S
C1115 C1114 1.400 . S
C1115 C1116 1.398 . S
C1116 H1104 0.950 . S
C1116 C1115 1.398 . S
C1116 C1117 1.391 . S
C1117 H1105 0.950 . S
C1117 C1113 1.393 . S
C1117 C1116 1.391 . S
H1118 C1126 0.950 . S
H1119 C1131 0.950 . S
H1120 C1128 0.950 . S
H1121 C1130 0.950 . S
H1122 C1132 0.950 . S
H1123 C1134 0.950 . S
H1124 C1136 0.950 . S
H1125 C1137 0.950 . S
C1126 H1118 0.950 . S
C1126 C1127 1.386 . S
C1126 C1128 1.391 . S
C1127 C1126 1.386 . S
C1127 C1131 1.393 . S
C1128 H1120 0.950 . S
C1128 C1126 1.391 . S
C1128 C1129 1.400 . S
C1129 C1128 1.400 . S
C1129 C1130 1.398 . S
C1129 C1135 1.491 . S
C1130 H1121 0.950 . S
C1130 C1129 1.398 . S
C1130 C1131 1.391 . S
C1131 H1119 0.950 . S
C1131 C1127 1.393 . S
C1131 C1130 1.391 . S
C1132 H1122 0.950 . S
C1132 C1133 1.386 . S
C1132 C1134 1.391 . S
C1133 C1132 1.386 . S
C1133 C1137 1.393 . S
C1134 H1123 0.950 . S
C1134 C1132 1.391 . S
C1134 C1135 1.400 . S
C1135 C1129 1.491 . S
C1135 C1134 1.400 . S
C1135 C1136 1.398 . S
C1136 H1124 0.950 . S
C1136 C1135 1.398 . S
C1136 C1137 1.391 . S
C1137 H1125 0.950 . S
C1137 C1133 1.393 . S
C1137 C1136 1.391 . S
H1138 C1146 0.950 . S
H1139 C1151 0.950 . S
H1140 C1148 0.950 . S
H1141 C1150 0.950 . S
H1142 C1152 0.950 . S
H1143 C1154 0.950 . S
H1144 C1156 0.950 . S
H1145 C1157 0.950 . S
C1146 H1138 0.950 . S
C1146 C1147 1.386 . S
C1146 C1148 1.391 . S
C1147 C1146 1.386 . S
C1147 C1151 1.393 . S
C1148 H1140 0.950 . S
C1148 C1146 1.391 . S
C1148 C1149 1.400 . S
C1149 C1148 1.400 . S
C1149 C1150 1.398 . S
C1149 C1155 1.491 . S
C1150 H1141 0.950 . S
C1150 C1149 1.398 . S
C1150 C1151 1.391 . S
C1151 H1139 0.950 . S
C1151 C1147 1.393 . S
C1151 C1150 1.391 . S
C1152 H1142 0.950 . S
C1152 C1153 1.386 . S
C1152 C1154 1.391 . S
C1153 C1152 1.386 . S
C1153 C1157 1.393 . S
C1154 H1143 0.950 . S
C1154 C1152 1.391 . S
C1154 C1155 1.400 . S
C1155 C1149 1.491 . S
C1155 C1154 1.400 . S
C1155 C1156 1.398 . S
C1156 H1144 0.950 . S
C1156 C1155 1.398 . S
C1156 C1157 1.391 . S
C1157 H1145 0.950 . S
C1157 C1153 1.393 . S
C1157 C1156 1.391 . S
H1158 C1166 0.950 . S
H1159 C1171 0.950 . S
H1160 C1168 0.950 . S
H1161 C1170 0.950 . S
H1162 C1172 0.950 . S
H1163 C1174 0.950 . S
H1164 C1176 0.950 . S
H1165 C1177 0.950 . S
C1166 H1158 0.950 . S
C1166 C1167 1.386 . S
C1166 C1168 1.391 . S
C1167 C1166 1.386 . S
C1167 C1171 1.393 . S
C1168 H1160 0.950 . S
C1168 C1166 1.391 . S
C1168 C1169 1.400 . S
C1169 C1168 1.400 . S
C1169 C1170 1.398 . S
C1169 C1175 1.491 . S
C1170 H1161 0.950 . S
C1170 C1169 1.398 . S
C1170 C1171 1.391 . S
C1171 H1159 0.950 . S
C1171 C1167 1.393 . S
C1171 C1170 1.391 . S
C1172 H1162 0.950 . S
C1172 C1173 1.386 . S
C1172 C1174 1.391 . S
C1173 C1172 1.386 . S
C1173 C1177 1.393 . S
C1174 H1163 0.950 . S
C1174 C1172 1.391 . S
C1174 C1175 1.400 . S
C1175 C1169 1.491 . S
C1175 C1174 1.400 . S
C1175 C1176 1.398 . S
C1176 H1164 0.950 . S
C1176 C1175 1.398 . S
C1176 C1177 1.391 . S
C1177 H1165 0.950 . S
C1177 C1173 1.393 . S
C1177 C1176 1.391 . S
H1178 C1186 0.950 . S
H1179 C1191 0.950 . S
H1180 C1188 0.950 . S
H1181 C1190 0.950 . S
H1182 C1192 0.950 . S
H1183 C1194 0.950 . S
H1184 C1196 0.950 . S
H1185 C1197 0.950 . S
C1186 H1178 0.950 . S
C1186 C1187 1.386 . S
C1186 C1188 1.391 . S
C1187 C1186 1.386 . S
C1187 C1191 1.393 . S
C1188 H1180 0.950 . S
C1188 C1186 1.391 . S
C1188 C1189 1.400 . S
C1189 C1188 1.400 . S
C1189 C1190 1.398 . S
C1189 C1195 1.491 . S
C1190 H1181 0.950 . S
C1190 C1189 1.398 . S
C1190 C1191 1.391 . S
C1191 H1179 0.950 . S
C1191 C1187 1.393 . S
C1191 C1190 1.391 . S
C1192 H1182 0.950 . S
C1192 C1193 1.386 . S
C1192 C1194 1.391 . S
C1193 C1192 1.386 . S
C1193 C1197 1.393 . S
C1194 H1183 0.950 . S
C1194 C1192 1.391 . S
C1194 C1195 1.400 . S
C1195 C1189 1.491 . S
C1195 C1194 1.400 . S
C1195 C1196 1.398 . S
C1196 H1184 0.950 . S
C1196 C1195 1.398 . S
C1196 C1197 1.391 . S
C1197 H1185 0.950 . S
C1197 C1193 1.393 . S
C1197 C1196 1.391 . S
H1198 C1206 0.950 . S
H1199 C1211 0.950 . S
H1200 C1208 0.950 . S
H1201 C1210 0.950 . S
H1202 C1212 0.950 . S
H1203 C1214 0.950 . S
H1204 C1216 0.950 . S
H1205 C1217 0.950 . S
C1206 H1198 0.950 . S
C1206 C1207 1.386 . S
C1206 C1208 1.391 . S
C1207 C1206 1.386 . S
C1207 C1211 1.393 . S
C1208 H1200 0.950 . S
C1208 C1206 1.391 . S
C1208 C1209 1.400 . S
C1209 C1208 1.400 . S
C1209 C1210 1.398 . S
C1209 C1215 1.491 . S
C1210 H1201 0.950 . S
C1210 C1209 1.398 . S
C1210 C1211 1.391 . S
C1211 H1199 0.950 . S
C1211 C1207 1.393 . S
C1211 C1210 1.391 . S
C1212 H1202 0.950 . S
C1212 C1213 1.386 . S
C1212 C1214 1.391 . S
C1213 C1212 1.386 . S
C1213 C1217 1.393 . S
C1214 H1203 0.950 . S
C1214 C1212 1.391 . S
C1214 C1215 1.400 . S
C1215 C1209 1.491 . S
C1215 C1214 1.400 . S
C1215 C1216 1.398 . S
C1216 H1204 0.950 . S
C1216 C1215 1.398 . S
C1216 C1217 1.391 . S
C1217 H1205 0.950 . S
C1217 C1213 1.393 . S
C1217 C1216 1.391 . S
H1218 C1226 0.950 . S
H1219 C1231 0.950 . S
H1220 C1228 0.950 . S
H1221 C1230 0.950 . S
H1222 C1232 0.950 . S
H1223 C1234 0.950 . S
H1224 C1236 0.950 . S
H1225 C1237 0.950 . S
C1226 H1218 0.950 . S
C1226 C1227 1.386 . S
C1226 C1228 1.391 . S
C1227 C1226 1.386 . S
C1227 C1231 1.393 . S
C1228 H1220 0.950 . S
C1228 C1226 1.391 . S
C1228 C1229 1.400 . S
C1229 C1228 1.400 . S
C1229 C1230 1.398 . S
C1229 C1235 1.491 . S
C1230 H1221 0.950 . S
C1230 C1229 1.398 . S
C1230 C1231 1.391 . S
C1231 H1219 0.950 . S
C1231 C1227 1.393 . S
C1231 C1230 1.391 . S
C1232 H1222 0.950 . S
C1232 C1233 1.386 . S
C1232 C1234 1.391 . S
C1233 C1232 1.386 . S
C1233 C1237 1.393 . S
C1234 H1223 0.950 . S
C1234 C1232 1.391 . S
C1234 C1235 1.400 . S
C1235 C1229 1.491 . S
C1235 C1234 1.400 . S
C1235 C1236 1.398 . S
C1236 H1224 0.950 . S
C1236 C1235 1.398 . S
C1236 C1237 1.391 . S
C1237 H1225 0.950 . S
C1237 C1233 1.393 . S
C1237 C1236 1.391 . S
H1238 C1246 0.950 . S
H1239 C1251 0.950 . S
H1240 C1248 0.950 . S
H1241 C1250 0.950 . S
H1242 C1252 0.950 . S
H1243 C1254 0.950 . S
H1244 C1256 0.950 . S
H1245 C1257 0.950 . S
C1246 H1238 0.950 . S
C1246 C1247 1.386 . S
C1246 C1248 1.391 . S
C1247 C1246 1.386 . S
C1247 C1251 1.393 . S
C1248 H1240 0.950 . S
C1248 C1246 1.391 . S
C1248 C1249 1.400 . S
C1249 C1248 1.400 . S
C1249 C1250 1.398 . S
C1249 C1255 1.491 . S
C1250 H1241 0.950 . S
C1250 C1249 1.398 . S
C1250 C1251 1.391 . S
C1251 H1239 0.950 . S
C1251 C1247 1.393 . S
C1251 C1250 1.391 . S
C1252 H1242 0.950 . S
C1252 C1253 1.386 . S
C1252 C1254 1.391 . S
C1253 C1252 1.386 . S
C1253 C1257 1.393 . S
C1254 H1243 0.950 . S
C1254 C1252 1.391 . S
C1254 C1255 1.400 . S
C1255 C1249 1.491 . S
C1255 C1254 1.400 . S
C1255 C1256 1.398 . S
C1256 H1244 0.950 . S
C1256 C1255 1.398 . S
C1256 C1257 1.391 . S
C1257 H1245 0.950 . S
C1257 C1253 1.393 . S
C1257 C1256 1.391 . S
H1258 C1266 0.950 . S
H1259 C1271 0.950 . S
H1260 C1268 0.950 . S
H1261 C1270 0.950 . S
H1262 C1272 0.950 . S
H1263 C1274 0.950 . S
H1264 C1276 0.950 . S
H1265 C1277 0.950 . S
C1266 H1258 0.950 . S
C1266 C1267 1.386 . S
C1266 C1268 1.391 . S
C1267 C1266 1.386 . S
C1267 C1271 1.393 . S
C1268 H1260 0.950 . S
C1268 C1266 1.391 . S
C1268 C1269 1.400 . S
C1269 C1268 1.400 . S
C1269 C1270 1.398 . S
C1269 C1275 1.491 . S
C1270 H1261 0.950 . S
C1270 C1269 1.398 . S
C1270 C1271 1.391 . S
C1271 H1259 0.950 . S
C1271 C1267 1.393 . S
C1271 C1270 1.391 . S
C1272 H1262 0.950 . S
C1272 C1273 1.386 . S
C1272 C1274 1.391 . S
C1273 C1272 1.386 . S
C1273 C1277 1.393 . S
C1274 H1263 0.950 . S
C1274 C1272 1.391 . S
C1274 C1275 1.400 . S
C1275 C1269 1.491 . S
C1275 C1274 1.400 . S
C1275 C1276 1.398 . S
C1276 H1264 0.950 . S
C1276 C1275 1.398 . S
C1276 C1277 1.391 . S
C1277 H1265 0.950 . S
C1277 C1273 1.393 . S
C1277 C1276 1.391 . S
H1278 C1286 0.950 . S
H1279 C1291 0.950 . S
H1280 C1288 0.950 . S
H1281 C1290 0.950 . S
H1282 C1292 0.950 . S
H1283 C1294 0.950 . S
H1284 C1296 0.950 . S
H1285 C1297 0.950 . S
C1286 H1278 0.950 . S
C1286 C1287 1.386 . S
C1286 C1288 1.391 . S
C1287 C1286 1.386 . S
C1287 C1291 1.393 . S
C1288 H1280 0.950 . S
C1288 C1286 1.391 . S
C1288 C1289 1.400 . S
C1289 C1288 1.400 . S
C1289 C1290 1.398 . S
C1289 C1295 1.491 . S
C1290 H1281 0.950 . S
C1290 C1289 1.398 . S
C1290 C1291 1.391 . S
C1291 H1279 0.950 . S
C1291 C1287 1.393 . S
C1291 C1290 1.391 . S
C1292 H1282 0.950 . S
C1292 C1293 1.386 . S
C1292 C1294 1.391 . S
C1293 C1292 1.386 . S
C1293 C1297 1.393 . S
C1294 H1283 0.950 . S
C1294 C1292 1.391 . S
C1294 C1295 1.400 . S
C1295 C1289 1.491 . S
C1295 C1294 1.400 . S
C1295 C1296 1.398 . S
C1296 H1284 0.950 . S
C1296 C1295 1.398 . S
C1296 C1297 1.391 . S
C1297 H1285 0.950 . S
C1297 C1293 1.393 . S
C1297 C1296 1.391 . S
H1298 C1306 0.950 . S
H1299 C1311 0.950 . S
H1300 C1308 0.950 . S
H1301 C1310 0.950 . S
H1302 C1312 0.950 . S
H1303 C1314 0.950 . S
H1304 C1316 0.950 . S
H1305 C1317 0.950 . S
C1306 H1298 0.950 . S
C1306 C1307 1.386 . S
C1306 C1308 1.391 . S
C1307 C1306 1.386 . S
C1307 C1311 1.393 . S
C1308 H1300 0.950 . S
C1308 C1306 1.391 . S
C1308 C1309 1.400 . S
C1309 C1308 1.400 . S
C1309 C1310 1.398 . S
C1309 C1315 1.491 . S
C1310 H1301 0.950 . S
C1310 C1309 1.398 . S
C1310 C1311 1.391 . S
C1311 H1299 0.950 . S
C1311 C1307 1.393 . S
C1311 C1310 1.391 . S
C1312 H1302 0.950 . S
C1312 C1313 1.386 . S
C1312 C1314 1.391 . S
C1313 C1312 1.386 . S
C1313 C1317 1.393 . S
C1314 H1303 0.950 . S
C1314 C1312 1.391 . S
C1314 C1315 1.400 . S
C1315 C1309 1.491 . S
C1315 C1314 1.400 . S
C1315 C1316 1.398 . S
C1316 H1304 0.950 . S
C1316 C1315 1.398 . S
C1316 C1317 1.391 . S
C1317 H1305 0.950 . S
C1317 C1313 1.393 . S
C1317 C1316 1.391 . S
H1318 C1326 0.950 . S
H1319 C1331 0.950 . S
H1320 C1328 0.950 . S
H1321 C1330 0.950 . S
H1322 C1332 0.950 . S
H1323 C1334 0.950 . S
H1324 C1336 0.950 . S
H1325 C1337 0.950 . S
C1326 H1318 0.950 . S
C1326 C1327 1.386 . S
C1326 C1328 1.391 . S
C1327 C1326 1.386 . S
C1327 C1331 1.393 . S
C1328 H1320 0.950 . S
C1328 C1326 1.391 . S
C1328 C1329 1.400 . S
C1329 C1328 1.400 . S
C1329 C1330 1.398 . S
C1329 C1335 1.491 . S
C1330 H1321 0.950 . S
C1330 C1329 1.398 . S
C1330 C1331 1.391 . S
C1331 H1319 0.950 . S
C1331 C1327 1.393 . S
C1331 C1330 1.391 . S
C1332 H1322 0.950 . S
C1332 C1333 1.386 . S
C1332 C1334 1.391 . S
C1333 C1332 1.386 . S
C1333 C1337 1.393 . S
C1334 H1323 0.950 . S
C1334 C1332 1.391 . S
C1334 C1335 1.400 . S
C1335 C1329 1.491 . S
C1335 C1334 1.400 . S
C1335 C1336 1.398 . S
C1336 H1324 0.950 . S
C1336 C1335 1.398 . S
C1336 C1337 1.391 . S
C1337 H1325 0.950 . S
C1337 C1333 1.393 . S
C1337 C1336 1.391 . S
H1338 C1346 0.950 . S
H1339 C1351 0.950 . S
H1340 C1348 0.950 . S
H1341 C1350 0.950 . S
H1342 C1352 0.950 . S
H1343 C1354 0.950 . S
H1344 C1356 0.950 . S
H1345 C1357 0.950 . S
C1346 H1338 0.950 . S
C1346 C1347 1.386 . S
C1346 C1348 1.391 . S
C1347 C1346 1.386 . S
C1347 C1351 1.393 . S
C1348 H1340 0.950 . S
C1348 C1346 1.391 . S
C1348 C1349 1.400 . S
C1349 C1348 1.400 . S
C1349 C1350 1.398 . S
C1349 C1355 1.491 . S
C1350 H1341 0.950 . S
C1350 C1349 1.398 . S
C1350 C1351 1.391 . S
C1351 H1339 0.950 . S
C1351 C1347 1.393 . S
C1351 C1350 1.391 . S
C1352 H1342 0.950 . S
C1352 C1353 1.386 . S
C1352 C1354 1.391 . S
C1353 C1352 1.386 . S
C1353 C1357 1.393 . S
C1354 H1343 0.950 . S
C1354 C1352 1.391 . S
C1354 C1355 1.400 . S
C1355 C1349 1.491 . S
C1355 C1354 1.400 . S
C1355 C1356 1.398 . S
C1356 H1344 0.950 . S
C1356 C1355 1.398 . S
C1356 C1357 1.391 . S
C1357 H1345 0.950 . S
C1357 C1353 1.393 . S
C1357 C1356 1.391 . S
H1358 C1366 0.950 . S
H1359 C1371 0.950 1_554 S
H1360 C1368 0.950 . S
H1361 C1370 0.950 . S
H1362 C1372 0.950 . S
H1363 C1374 0.950 . S
H1364 C1376 0.950 . S
H1365 C1377 0.950 . S
C1366 H1358 0.950 . S
C1366 C1367 1.386 . S
C1366 C1368 1.391 . S
C1367 C1366 1.386 . S
C1367 C1371 1.393 . S
C1368 H1360 0.950 . S
C1368 C1366 1.391 . S
C1368 C1369 1.400 . S
C1369 C1368 1.400 . S
C1369 C1370 1.398 . S
C1369 C1375 1.491 . S
C1370 H1361 0.950 . S
C1370 C1369 1.398 . S
C1370 C1371 1.391 . S
C1371 H1359 0.950 1_556 S
C1371 C1367 1.393 . S
C1371 C1370 1.391 . S
C1372 H1362 0.950 . S
C1372 C1373 1.386 . S
C1372 C1374 1.391 . S
C1373 C1372 1.386 . S
C1373 C1377 1.393 . S
C1374 H1363 0.950 . S
C1374 C1372 1.391 . S
C1374 C1375 1.400 . S
C1375 C1369 1.491 . S
C1375 C1374 1.400 . S
C1375 C1376 1.398 . S
C1376 H1364 0.950 . S
C1376 C1375 1.398 . S
C1376 C1377 1.391 . S
C1377 H1365 0.950 . S
C1377 C1373 1.393 . S
C1377 C1376 1.391 . S
H1378 C1386 0.950 1_554 S
H1379 C1391 0.950 . S
H1380 C1388 0.950 . S
H1381 C1390 0.950 . S
H1382 C1392 0.950 . S
H1383 C1394 0.950 . S
H1384 C1396 0.950 . S
H1385 C1397 0.950 . S
C1386 H1378 0.950 1_556 S
C1386 C1387 1.386 . S
C1386 C1388 1.391 . S
C1387 C1386 1.386 . S
C1387 C1391 1.393 . S
C1388 H1380 0.950 . S
C1388 C1386 1.391 . S
C1388 C1389 1.400 . S
C1389 C1388 1.400 . S
C1389 C1390 1.398 . S
C1389 C1395 1.491 . S
C1390 H1381 0.950 . S
C1390 C1389 1.398 . S
C1390 C1391 1.391 . S
C1391 H1379 0.950 . S
C1391 C1387 1.393 . S
C1391 C1390 1.391 . S
C1392 H1382 0.950 . S
C1392 C1393 1.386 . S
C1392 C1394 1.391 . S
C1393 C1392 1.386 . S
C1393 C1397 1.393 . S
C1394 H1383 0.950 . S
C1394 C1392 1.391 . S
C1394 C1395 1.400 . S
C1395 C1389 1.491 . S
C1395 C1394 1.400 . S
C1395 C1396 1.398 . S
C1396 H1384 0.950 . S
C1396 C1395 1.398 . S
C1396 C1397 1.391 . S
C1397 H1385 0.950 . S
C1397 C1393 1.393 . S
C1397 C1396 1.391 . S
H1398 C1406 0.950 1_554 S
H1399 C1411 0.950 . S
H1400 C1408 0.950 . S
H1401 C1410 0.950 . S
H1402 C1412 0.950 . S
H1403 C1414 0.950 . S
H1404 C1416 0.950 . S
H1405 C1417 0.950 . S
C1406 H1398 0.950 1_556 S
C1406 C1407 1.386 . S
C1406 C1408 1.391 . S
C1407 C1406 1.386 . S
C1407 C1411 1.393 . S
C1408 H1400 0.950 . S
C1408 C1406 1.391 . S
C1408 C1409 1.400 . S
C1409 C1408 1.400 . S
C1409 C1410 1.398 . S
C1409 C1415 1.491 . S
C1410 H1401 0.950 . S
C1410 C1409 1.398 . S
C1410 C1411 1.391 . S
C1411 H1399 0.950 . S
C1411 C1407 1.393 . S
C1411 C1410 1.391 . S
C1412 H1402 0.950 . S
C1412 C1413 1.386 . S
C1412 C1414 1.391 . S
C1413 C1412 1.386 . S
C1413 C1417 1.393 . S
C1414 H1403 0.950 . S
C1414 C1412 1.391 . S
C1414 C1415 1.400 . S
C1415 C1409 1.491 . S
C1415 C1414 1.400 . S
C1415 C1416 1.398 . S
C1416 H1404 0.950 . S
C1416 C1415 1.398 . S
C1416 C1417 1.391 . S
C1417 H1405 0.950 . S
C1417 C1413 1.393 . S
C1417 C1416 1.391 . S
H1418 C1426 0.950 . S
H1419 C1431 0.950 . S
H1420 C1428 0.950 . S
H1421 C1430 0.950 . S
H1422 C1432 0.950 . S
H1423 C1434 0.950 . S
H1424 C1436 0.950 . S
H1425 C1437 0.950 . S
C1426 H1418 0.950 . S
C1426 C1427 1.386 . S
C1426 C1428 1.391 . S
C1427 C1426 1.386 . S
C1427 C1431 1.393 . S
C1428 H1420 0.950 . S
C1428 C1426 1.391 . S
C1428 C1429 1.400 . S
C1429 C1428 1.400 . S
C1429 C1430 1.398 . S
C1429 C1435 1.491 . S
C1430 H1421 0.950 . S
C1430 C1429 1.398 . S
C1430 C1431 1.391 . S
C1431 H1419 0.950 . S
C1431 C1427 1.393 . S
C1431 C1430 1.391 . S
C1432 H1422 0.950 . S
C1432 C1433 1.386 . S
C1432 C1434 1.391 . S
C1433 C1432 1.386 . S
C1433 C1437 1.393 . S
C1434 H1423 0.950 . S
C1434 C1432 1.391 . S
C1434 C1435 1.400 . S
C1435 C1429 1.491 . S
C1435 C1434 1.400 . S
C1435 C1436 1.398 . S
C1436 H1424 0.950 . S
C1436 C1435 1.398 . S
C1436 C1437 1.391 . S
C1437 H1425 0.950 . S
C1437 C1433 1.393 . S
C1437 C1436 1.391 . S
H1438 C1446 0.950 . S
H1439 C1451 0.950 . S
H1440 C1448 0.950 . S
H1441 C1450 0.950 . S
H1442 C1452 0.950 . S
H1443 C1454 0.950 . S
H1444 C1456 0.950 . S
H1445 C1457 0.950 . S
C1446 H1438 0.950 . S
C1446 C1447 1.386 . S
C1446 C1448 1.391 . S
C1447 C1446 1.386 . S
C1447 C1451 1.393 . S
C1448 H1440 0.950 . S
C1448 C1446 1.391 . S
C1448 C1449 1.400 . S
C1449 C1448 1.400 . S
C1449 C1450 1.398 . S
C1449 C1455 1.491 . S
C1450 H1441 0.950 . S
C1450 C1449 1.398 . S
C1450 C1451 1.391 . S
C1451 H1439 0.950 . S
C1451 C1447 1.393 . S
C1451 C1450 1.391 . S
C1452 H1442 0.950 . S
C1452 C1453 1.386 . S
C1452 C1454 1.391 . S
C1453 C1452 1.386 . S
C1453 C1457 1.393 . S
C1454 H1443 0.950 . S
C1454 C1452 1.391 . S
C1454 C1455 1.400 . S
C1455 C1449 1.491 . S
C1455 C1454 1.400 . S
C1455 C1456 1.398 . S
C1456 H1444 0.950 . S
C1456 C1455 1.398 . S
C1456 C1457 1.391 . S
C1457 H1445 0.950 . S
C1457 C1453 1.393 . S
C1457 C1456 1.391 . S
H1458 C1466 0.950 . S
H1459 C1471 0.950 . S
H1460 C1468 0.950 . S
H1461 C1470 0.950 . S
H1462 C1472 0.950 . S
H1463 C1474 0.950 . S
H1464 C1476 0.950 . S
H1465 C1477 0.950 . S
C1466 H1458 0.950 . S
C1466 C1467 1.386 . S
C1466 C1468 1.391 . S
C1467 C1466 1.386 . S
C1467 C1471 1.393 . S
C1468 H1460 0.950 . S
C1468 C1466 1.391 . S
C1468 C1469 1.400 . S
C1469 C1468 1.400 . S
C1469 C1470 1.398 . S
C1469 C1475 1.491 . S
C1470 H1461 0.950 . S
C1470 C1469 1.398 . S
C1470 C1471 1.391 . S
C1471 H1459 0.950 . S
C1471 C1467 1.393 . S
C1471 C1470 1.391 . S
C1472 H1462 0.950 . S
C1472 C1473 1.386 . S
C1472 C1474 1.391 . S
C1473 C1472 1.386 . S
C1473 C1477 1.393 . S
C1474 H1463 0.950 . S
C1474 C1472 1.391 . S
C1474 C1475 1.400 . S
C1475 C1469 1.491 . S
C1475 C1474 1.400 . S
C1475 C1476 1.398 . S
C1476 H1464 0.950 . S
C1476 C1475 1.398 . S
C1476 C1477 1.391 . S
C1477 H1465 0.950 . S
C1477 C1473 1.393 . S
C1477 C1476 1.391 . S
H1478 C1486 0.950 . S
H1479 C1491 0.950 . S
H1480 C1488 0.950 . S
H1481 C1490 0.950 . S
H1482 C1492 0.950 . S
H1483 C1494 0.950 . S
H1484 C1496 0.950 . S
H1485 C1497 0.950 . S
C1486 H1478 0.950 . S
C1486 C1487 1.386 . S
C1486 C1488 1.391 . S
C1487 C1486 1.386 . S
C1487 C1491 1.393 . S
C1488 H1480 0.950 . S
C1488 C1486 1.391 . S
C1488 C1489 1.400 . S
C1489 C1488 1.400 . S
C1489 C1490 1.398 . S
C1489 C1495 1.491 . S
C1490 H1481 0.950 . S
C1490 C1489 1.398 . S
C1490 C1491 1.391 . S
C1491 H1479 0.950 . S
C1491 C1487 1.393 . S
C1491 C1490 1.391 . S
C1492 H1482 0.950 . S
C1492 C1493 1.386 . S
C1492 C1494 1.391 . S
C1493 C1492 1.386 . S
C1493 C1497 1.393 . S
C1494 H1483 0.950 . S
C1494 C1492 1.391 . S
C1494 C1495 1.400 . S
C1495 C1489 1.491 . S
C1495 C1494 1.400 . S
C1495 C1496 1.398 . S
C1496 H1484 0.950 . S
C1496 C1495 1.398 . S
C1496 C1497 1.391 . S
C1497 H1485 0.950 . S
C1497 C1493 1.393 . S
C1497 C1496 1.391 . S
H1498 C1506 0.950 . S
H1499 C1511 0.950 . S
H1500 C1508 0.950 . S
H1501 C1510 0.950 . S
H1502 C1512 0.950 . S
H1503 C1514 0.950 . S
H1504 C1516 0.950 . S
H1505 C1517 0.950 . S
C1506 H1498 0.950 . S
C1506 C1507 1.386 . S
C1506 C1508 1.391 . S
C1507 C1506 1.386 . S
C1507 C1511 1.393 . S
C1508 H1500 0.950 . S
C1508 C1506 1.391 . S
C1508 C1509 1.400 . S
C1509 C1508 1.400 . S
C1509 C1510 1.398 . S
C1509 C1515 1.491 . S
C1510 H1501 0.950 . S
C1510 C1509 1.398 . S
C1510 C1511 1.391 . S
C1511 H1499 0.950 . S
C1511 C1507 1.393 . S
C1511 C1510 1.391 . S
C1512 H1502 0.950 . S
C1512 C1513 1.386 . S
C1512 C1514 1.391 . S
C1513 C1512 1.386 . S
C1513 C1517 1.393 . S
C1514 H1503 0.950 . S
C1514 C1512 1.391 . S
C1514 C1515 1.400 . S
C1515 C1509 1.491 . S
C1515 C1514 1.400 . S
C1515 C1516 1.398 . S
C1516 H1504 0.950 . S
C1516 C1515 1.398 . S
C1516 C1517 1.391 . S
C1517 H1505 0.950 . S
C1517 C1513 1.393 . S
C1517 C1516 1.391 . S
H1518 C1526 0.950 . S
H1519 C1531 0.950 . S
H1520 C1528 0.950 . S
H1521 C1530 0.950 . S
H1522 C1532 0.950 . S
H1523 C1534 0.950 . S
H1524 C1536 0.950 . S
H1525 C1537 0.950 . S
C1526 H1518 0.950 . S
C1526 C1527 1.386 . S
C1526 C1528 1.391 . S
C1527 C1526 1.386 . S
C1527 C1531 1.393 . S
C1528 H1520 0.950 . S
C1528 C1526 1.391 . S
C1528 C1529 1.400 . S
C1529 C1528 1.400 . S
C1529 C1530 1.398 . S
C1529 C1535 1.491 . S
C1530 H1521 0.950 . S
C1530 C1529 1.398 . S
C1530 C1531 1.391 . S
C1531 H1519 0.950 . S
C1531 C1527 1.393 . S
C1531 C1530 1.391 . S
C1532 H1522 0.950 . S
C1532 C1533 1.386 . S
C1532 C1534 1.391 . S
C1533 C1532 1.386 . S
C1533 C1537 1.393 . S
C1534 H1523 0.950 . S
C1534 C1532 1.391 . S
C1534 C1535 1.400 . S
C1535 C1529 1.491 . S
C1535 C1534 1.400 . S
C1535 C1536 1.398 . S
C1536 H1524 0.950 . S
C1536 C1535 1.398 . S
C1536 C1537 1.391 . S
C1537 H1525 0.950 . S
C1537 C1533 1.393 . S
C1537 C1536 1.391 . S
H1538 C1546 0.950 . S
H1539 C1551 0.950 . S
H1540 C1548 0.950 . S
H1541 C1550 0.950 . S
H1542 C1552 0.950 . S
H1543 C1554 0.950 . S
H1544 C1556 0.950 . S
H1545 C1557 0.950 . S
C1546 H1538 0.950 . S
C1546 C1547 1.386 . S
C1546 C1548 1.391 . S
C1547 C1546 1.386 . S
C1547 C1551 1.393 . S
C1548 H1540 0.950 . S
C1548 C1546 1.391 . S
C1548 C1549 1.400 . S
C1549 C1548 1.400 . S
C1549 C1550 1.398 . S
C1549 C1555 1.491 . S
C1550 H1541 0.950 . S
C1550 C1549 1.398 . S
C1550 C1551 1.391 . S
C1551 H1539 0.950 . S
C1551 C1547 1.393 . S
C1551 C1550 1.391 . S
C1552 H1542 0.950 . S
C1552 C1553 1.386 . S
C1552 C1554 1.391 . S
C1553 C1552 1.386 . S
C1553 C1557 1.393 . S
C1554 H1543 0.950 . S
C1554 C1552 1.391 . S
C1554 C1555 1.400 . S
C1555 C1549 1.491 . S
C1555 C1554 1.400 . S
C1555 C1556 1.398 . S
C1556 H1544 0.950 . S
C1556 C1555 1.398 . S
C1556 C1557 1.391 . S
C1557 H1545 0.950 . S
C1557 C1553 1.393 . S
C1557 C1556 1.391 . S
H1558 C1566 0.950 . S
H1559 C1571 0.950 . S
H1560 C1568 0.950 . S
H1561 C1570 0.950 . S
H1562 C1572 0.950 . S
H1563 C1574 0.950 . S
H1564 C1576 0.950 . S
H1565 C1577 0.950 . S
C1566 H1558 0.950 . S
C1566 C1567 1.386 . S
C1566 C1568 1.391 . S
C1567 C1566 1.386 . S
C1567 C1571 1.393 . S
C1568 H1560 0.950 . S
C1568 C1566 1.391 . S
C1568 C1569 1.400 . S
C1569 C1568 1.400 . S
C1569 C1570 1.398 . S
C1569 C1575 1.491 . S
C1570 H1561 0.950 . S
C1570 C1569 1.398 . S
C1570 C1571 1.391 . S
C1571 H1559 0.950 . S
C1571 C1567 1.393 . S
C1571 C1570 1.391 . S
C1572 H1562 0.950 . S
C1572 C1573 1.386 . S
C1572 C1574 1.391 . S
C1573 C1572 1.386 . S
C1573 C1577 1.393 . S
C1574 H1563 0.950 . S
C1574 C1572 1.391 . S
C1574 C1575 1.400 . S
C1575 C1569 1.491 . S
C1575 C1574 1.400 . S
C1575 C1576 1.398 . S
C1576 H1564 0.950 . S
C1576 C1575 1.398 . S
C1576 C1577 1.391 . S
C1577 H1565 0.950 . S
C1577 C1573 1.393 . S
C1577 C1576 1.391 . S
H1578 C1586 0.950 . S
H1579 C1591 0.953 . S
H1580 C1588 0.950 . S
H1581 C1590 0.985 . S
H1582 C1592 1.016 . S
H1583 C1594 0.974 . S
H1584 C1596 0.950 . S
H1585 C1597 0.950 . S
C1586 H1578 0.950 . S
C1586 C1587 1.386 . S
C1586 C1588 1.391 . S
C1587 C1586 1.386 . S
C1587 C1591 1.387 1_455 S
C1588 H1580 0.950 . S
C1588 C1586 1.391 . S
C1588 C1589 1.400 . S
C1589 C1588 1.400 . S
C1589 C1590 1.381 1_455 S
C1589 C1595 1.491 . S
C1590 H1581 0.985 . S
C1590 C1589 1.381 1_655 S
C1590 C1591 1.377 . S
C1591 H1579 0.953 . S
C1591 C1587 1.387 1_655 S
C1591 C1590 1.377 . S
C1592 H1582 1.016 . S
C1592 C1593 1.353 1_655 S
C1592 C1594 1.381 . S
C1593 C1592 1.353 1_455 S
C1593 C1597 1.393 . S
C1594 H1583 0.974 . S
C1594 C1592 1.381 . S
C1594 C1595 1.355 1_655 S
C1595 C1589 1.491 . S
C1595 C1594 1.355 1_455 S
C1595 C1596 1.398 . S
C1596 H1584 0.950 . S
C1596 C1595 1.398 . S
C1596 C1597 1.391 . S
C1597 H1585 0.950 . S
C1597 C1593 1.393 . S
C1597 C1596 1.391 . S
H1598 C1606 0.950 . S
H1599 C1611 0.950 . S
H1600 C1608 0.950 . S
H1601 C1610 0.950 . S
H1602 C1612 0.950 . S
H1603 C1614 0.950 . S
H1604 C1616 0.950 . S
H1605 C1617 0.950 . S
C1606 H1598 0.950 . S
C1606 C1607 1.386 . S
C1606 C1608 1.391 . S
C1607 C1606 1.386 . S
C1607 C1611 1.393 . S
C1608 H1600 0.950 . S
C1608 C1606 1.391 . S
C1608 C1609 1.400 . S
C1609 C1608 1.400 . S
C1609 C1610 1.398 . S
C1609 C1615 1.491 . S
C1610 H1601 0.950 . S
C1610 C1609 1.398 . S
C1610 C1611 1.391 . S
C1611 H1599 0.950 . S
C1611 C1607 1.393 . S
C1611 C1610 1.391 . S
C1612 H1602 0.950 . S
C1612 C1613 1.386 . S
C1612 C1614 1.391 . S
C1613 C1612 1.386 . S
C1613 C1617 1.393 . S
C1614 H1603 0.950 . S
C1614 C1612 1.391 . S
C1614 C1615 1.400 . S
C1615 C1609 1.491 . S
C1615 C1614 1.400 . S
C1615 C1616 1.398 . S
C1616 H1604 0.950 . S
C1616 C1615 1.398 . S
C1616 C1617 1.391 . S
C1617 H1605 0.950 . S
C1617 C1613 1.393 . S
C1617 C1616 1.391 . S
H1618 C1626 0.950 . S
H1619 C1631 0.950 . S
H1620 C1628 0.950 . S
H1621 C1630 0.950 . S
H1622 C1632 0.950 . S
H1623 C1634 0.950 . S
H1624 C1636 0.950 . S
H1625 C1637 0.950 . S
C1626 H1618 0.950 . S
C1626 C1627 1.386 . S
C1626 C1628 1.391 . S
C1627 C1626 1.386 . S
C1627 C1631 1.393 1_565 S
C1628 H1620 0.950 . S
C1628 C1626 1.391 . S
C1628 C1629 1.400 . S
C1629 C1628 1.400 . S
C1629 C1630 1.398 1_565 S
C1629 C1635 1.491 . S
C1630 H1621 0.950 . S
C1630 C1629 1.398 1_545 S
C1630 C1631 1.391 . S
C1631 H1619 0.950 . S
C1631 C1627 1.393 1_545 S
C1631 C1630 1.391 . S
C1632 H1622 0.950 . S
C1632 C1633 1.386 1_545 S
C1632 C1634 1.391 . S
C1633 C1632 1.386 1_565 S
C1633 C1637 1.393 . S
C1634 H1623 0.950 . S
C1634 C1632 1.391 . S
C1634 C1635 1.400 1_545 S
C1635 C1629 1.491 . S
C1635 C1634 1.400 1_565 S
C1635 C1636 1.398 . S
C1636 H1624 0.950 . S
C1636 C1635 1.398 . S
C1636 C1637 1.391 . S
C1637 H1625 0.950 . S
C1637 C1633 1.393 . S
C1637 C1636 1.391 . S
H1638 C1646 0.950 . S
H1639 C1651 0.950 . S
H1640 C1648 0.950 . S
H1641 C1650 0.950 . S
H1642 C1652 0.950 . S
H1643 C1654 0.953 . S
H1644 C1656 0.950 . S
H1645 C1657 0.950 . S
C1646 H1638 0.950 . S
C1646 C1647 1.386 . S
C1646 C1648 1.391 . S
C1647 C1646 1.386 . S
C1647 C1651 1.393 . S
C1648 H1640 0.950 . S
C1648 C1646 1.391 . S
C1648 C1649 1.400 . S
C1649 C1648 1.400 . S
C1649 C1650 1.398 . S
C1649 C1655 1.491 . S
C1650 H1641 0.950 . S
C1650 C1649 1.398 . S
C1650 C1651 1.391 . S
C1651 H1639 0.950 . S
C1651 C1647 1.393 . S
C1651 C1650 1.391 . S
C1652 H1642 0.950 . S
C1652 C1653 1.387 . S
C1652 C1654 1.424 . S
C1653 C1652 1.387 . S
C1653 C1657 1.376 1_545 S
C1654 H1643 0.953 . S
C1654 C1652 1.424 . S
C1654 C1655 1.368 1_545 S
C1655 C1649 1.491 . S
C1655 C1654 1.368 1_565 S
C1655 C1656 1.398 . S
C1656 H1644 0.950 . S
C1656 C1655 1.398 . S
C1656 C1657 1.391 . S
C1657 H1645 0.950 . S
C1657 C1653 1.376 1_565 S
C1657 C1656 1.391 . S
H1658 C1666 0.950 . S
H1659 C1671 0.976 . S
H1660 C1668 0.950 . S
H1661 C1670 0.950 . S
H1662 C1672 0.950 . S
H1663 C1674 0.950 . S
H1664 C1676 0.950 . S
H1665 C1677 0.950 . S
C1666 H1658 0.950 . S
C1666 C1667 1.386 . S
C1666 C1668 1.391 . S
C1667 C1666 1.386 . S
C1667 C1671 1.380 1_455 S
C1668 H1660 0.950 . S
C1668 C1666 1.391 . S
C1668 C1669 1.400 . S
C1669 C1668 1.400 . S
C1669 C1670 1.398 1_455 S
C1669 C1675 1.491 . S
C1670 H1661 0.950 . S
C1670 C1669 1.398 1_655 S
C1670 C1671 1.378 . S
C1671 H1659 0.976 . S
C1671 C1667 1.380 1_655 S
C1671 C1670 1.378 . S
C1672 H1662 0.950 . S
C1672 C1673 1.386 1_655 S
C1672 C1674 1.391 . S
C1673 C1672 1.386 1_455 S
C1673 C1677 1.393 . S
C1674 H1663 0.950 . S
C1674 C1672 1.391 . S
C1674 C1675 1.400 1_655 S
C1675 C1669 1.491 . S
C1675 C1674 1.400 1_455 S
C1675 C1676 1.398 . S
C1676 H1664 0.950 . S
C1676 C1675 1.398 . S
C1676 C1677 1.391 . S
C1677 H1665 0.950 . S
C1677 C1673 1.393 . S
C1677 C1676 1.391 . S
H1678 C1686 0.950 . S
H1679 C1691 0.950 . S
H1680 C1688 0.950 . S
H1681 C1690 0.950 . S
H1682 C1692 0.950 . S
H1683 C1694 0.950 . S
H1684 C1696 0.950 . S
H1685 C1697 0.950 . S
C1686 H1678 0.950 . S
C1686 C1687 1.386 . S
C1686 C1688 1.391 . S
C1687 C1686 1.386 . S
C1687 C1691 1.393 . S
C1688 H1680 0.950 . S
C1688 C1686 1.391 . S
C1688 C1689 1.400 . S
C1689 C1688 1.400 . S
C1689 C1690 1.398 . S
C1689 C1695 1.491 . S
C1690 H1681 0.950 . S
C1690 C1689 1.398 . S
C1690 C1691 1.391 . S
C1691 H1679 0.950 . S
C1691 C1687 1.393 . S
C1691 C1690 1.391 . S
C1692 H1682 0.950 . S
C1692 C1693 1.386 . S
C1692 C1694 1.391 . S
C1693 C1692 1.386 . S
C1693 C1697 1.393 . S
C1694 H1683 0.950 . S
C1694 C1692 1.391 . S
C1694 C1695 1.400 . S
C1695 C1689 1.491 . S
C1695 C1694 1.400 . S
C1695 C1696 1.398 . S
C1696 H1684 0.950 . S
C1696 C1695 1.398 . S
C1696 C1697 1.391 . S
C1697 H1685 0.950 . S
C1697 C1693 1.393 . S
C1697 C1696 1.391 . S
H1698 C1706 0.950 . S
H1699 C1711 0.950 . S
H1700 C1708 0.950 . S
H1701 C1710 0.950 . S
H1702 C1712 0.950 . S
H1703 C1714 0.950 . S
H1704 C1716 0.950 . S
H1705 C1717 0.950 . S
C1706 H1698 0.950 . S
C1706 C1707 1.386 . S
C1706 C1708 1.391 . S
C1707 C1706 1.386 . S
C1707 C1711 1.393 . S
C1708 H1700 0.950 . S
C1708 C1706 1.391 . S
C1708 C1709 1.400 . S
C1709 C1708 1.400 . S
C1709 C1710 1.398 . S
C1709 C1715 1.491 . S
C1710 H1701 0.950 . S
C1710 C1709 1.398 . S
C1710 C1711 1.391 . S
C1711 H1699 0.950 . S
C1711 C1707 1.393 . S
C1711 C1710 1.391 . S
C1712 H1702 0.950 . S
C1712 C1713 1.386 . S
C1712 C1714 1.391 . S
C1713 C1712 1.386 . S
C1713 C1717 1.393 . S
C1714 H1703 0.950 . S
C1714 C1712 1.391 . S
C1714 C1715 1.400 . S
C1715 C1709 1.491 . S
C1715 C1714 1.400 . S
C1715 C1716 1.398 . S
C1716 H1704 0.950 . S
C1716 C1715 1.398 . S
C1716 C1717 1.391 . S
C1717 H1705 0.950 . S
C1717 C1713 1.393 . S
C1717 C1716 1.391 . S
H1718 C1726 0.950 . S
H1719 C1731 0.950 . S
H1720 C1728 0.950 . S
H1721 C1730 0.950 . S
H1722 C1732 0.950 . S
H1723 C1734 0.950 . S
H1724 C1736 0.950 . S
H1725 C1737 0.950 . S
C1726 H1718 0.950 . S
C1726 C1727 1.386 . S
C1726 C1728 1.391 . S
C1727 C1726 1.386 . S
C1727 C1731 1.393 . S
C1728 H1720 0.950 . S
C1728 C1726 1.391 . S
C1728 C1729 1.400 . S
C1729 C1728 1.400 . S
C1729 C1730 1.398 . S
C1729 C1735 1.491 . S
C1730 H1721 0.950 . S
C1730 C1729 1.398 . S
C1730 C1731 1.391 . S
C1731 H1719 0.950 . S
C1731 C1727 1.393 . S
C1731 C1730 1.391 . S
C1732 H1722 0.950 . S
C1732 C1733 1.386 . S
C1732 C1734 1.391 . S
C1733 C1732 1.386 . S
C1733 C1737 1.393 . S
C1734 H1723 0.950 . S
C1734 C1732 1.391 . S
C1734 C1735 1.400 . S
C1735 C1729 1.491 . S
C1735 C1734 1.400 . S
C1735 C1736 1.398 . S
C1736 H1724 0.950 . S
C1736 C1735 1.398 . S
C1736 C1737 1.391 . S
C1737 H1725 0.950 . S
C1737 C1733 1.393 . S
C1737 C1736 1.391 . S
H1738 C1746 0.950 . S
H1739 C1751 0.950 . S
H1740 C1748 0.950 . S
H1741 C1750 0.950 . S
H1742 C1752 0.950 . S
H1743 C1754 0.950 . S
H1744 C1756 0.950 . S
H1745 C1757 0.950 . S
C1746 H1738 0.950 . S
C1746 C1747 1.386 . S
C1746 C1748 1.391 . S
C1747 C1746 1.386 . S
C1747 C1751 1.393 . S
C1748 H1740 0.950 . S
C1748 C1746 1.391 . S
C1748 C1749 1.400 . S
C1749 C1748 1.400 . S
C1749 C1750 1.398 . S
C1749 C1755 1.491 . S
C1750 H1741 0.950 . S
C1750 C1749 1.398 . S
C1750 C1751 1.391 . S
C1751 H1739 0.950 . S
C1751 C1747 1.393 . S
C1751 C1750 1.391 . S
C1752 H1742 0.950 . S
C1752 C1753 1.386 . S
C1752 C1754 1.391 . S
C1753 C1752 1.386 . S
C1753 C1757 1.393 . S
C1754 H1743 0.950 . S
C1754 C1752 1.391 . S
C1754 C1755 1.400 . S
C1755 C1749 1.491 . S
C1755 C1754 1.400 . S
C1755 C1756 1.398 . S
C1756 H1744 0.950 . S
C1756 C1755 1.398 . S
C1756 C1757 1.391 . S
C1757 H1745 0.950 . S
C1757 C1753 1.393 . S
C1757 C1756 1.391 . S
H1758 C1766 0.950 . S
H1759 C1771 0.950 . S
H1760 C1768 0.950 . S
H1761 C1770 0.950 . S
H1762 C1772 0.950 . S
H1763 C1774 0.950 . S
H1764 C1776 0.950 . S
H1765 C1777 0.950 . S
C1766 H1758 0.950 . S
C1766 C1767 1.386 . S
C1766 C1768 1.391 . S
C1767 C1766 1.386 . S
C1767 C1771 1.393 . S
C1768 H1760 0.950 . S
C1768 C1766 1.391 . S
C1768 C1769 1.400 . S
C1769 C1768 1.400 . S
C1769 C1770 1.398 . S
C1769 C1775 1.491 . S
C1770 H1761 0.950 . S
C1770 C1769 1.398 . S
C1770 C1771 1.391 . S
C1771 H1759 0.950 . S
C1771 C1767 1.393 . S
C1771 C1770 1.391 . S
C1772 H1762 0.950 . S
C1772 C1773 1.386 . S
C1772 C1774 1.391 . S
C1773 C1772 1.386 . S
C1773 C1777 1.393 . S
C1774 H1763 0.950 . S
C1774 C1772 1.391 . S
C1774 C1775 1.400 . S
C1775 C1769 1.491 . S
C1775 C1774 1.400 . S
C1775 C1776 1.398 . S
C1776 H1764 0.950 . S
C1776 C1775 1.398 . S
C1776 C1777 1.391 . S
C1777 H1765 0.950 . S
C1777 C1773 1.393 . S
C1777 C1776 1.391 . S
H1778 C1786 0.950 . S
H1779 C1791 0.950 . S
H1780 C1788 0.950 . S
H1781 C1790 0.950 . S
H1782 C1792 0.950 . S
H1783 C1794 0.950 . S
H1784 C1796 0.950 . S
H1785 C1797 0.950 . S
C1786 H1778 0.950 . S
C1786 C1787 1.386 1_455 S
C1786 C1788 1.391 . S
C1787 C1786 1.386 1_655 S
C1787 C1791 1.393 . S
C1788 H1780 0.950 . S
C1788 C1786 1.391 . S
C1788 C1789 1.400 1_455 S
C1789 C1788 1.400 1_655 S
C1789 C1790 1.398 . S
C1789 C1795 1.491 . S
C1790 H1781 0.950 . S
C1790 C1789 1.398 . S
C1790 C1791 1.391 . S
C1791 H1779 0.950 . S
C1791 C1787 1.393 . S
C1791 C1790 1.391 . S
C1792 H1782 0.950 . S
C1792 C1793 1.386 . S
C1792 C1794 1.391 . S
C1793 C1792 1.386 . S
C1793 C1797 1.393 1_655 S
C1794 H1783 0.950 . S
C1794 C1792 1.391 . S
C1794 C1795 1.400 . S
C1795 C1789 1.491 . S
C1795 C1794 1.400 . S
C1795 C1796 1.398 1_655 S
C1796 H1784 0.950 . S
C1796 C1795 1.398 1_455 S
C1796 C1797 1.391 . S
C1797 H1785 0.950 . S
C1797 C1793 1.393 1_455 S
C1797 C1796 1.391 . S
H1798 C1806 0.950 . S
H1799 C1811 0.950 . S
H1800 C1808 0.950 . S
H1801 C1810 0.950 . S
H1802 C1812 0.950 . S
H1803 C1814 0.950 . S
H1804 C1816 0.950 . S
H1805 C1817 0.950 . S
C1806 H1798 0.950 . S
C1806 C1807 1.386 . S
C1806 C1808 1.391 . S
C1807 C1806 1.386 . S
C1807 C1811 1.393 . S
C1808 H1800 0.950 . S
C1808 C1806 1.391 . S
C1808 C1809 1.400 . S
C1809 C1808 1.400 . S
C1809 C1810 1.398 . S
C1809 C1815 1.491 . S
C1810 H1801 0.950 . S
C1810 C1809 1.398 . S
C1810 C1811 1.391 . S
C1811 H1799 0.950 . S
C1811 C1807 1.393 . S
C1811 C1810 1.391 . S
C1812 H1802 0.950 . S
C1812 C1813 1.386 . S
C1812 C1814 1.391 . S
C1813 C1812 1.386 . S
C1813 C1817 1.393 . S
C1814 H1803 0.950 . S
C1814 C1812 1.391 . S
C1814 C1815 1.400 . S
C1815 C1809 1.491 . S
C1815 C1814 1.400 . S
C1815 C1816 1.398 . S
C1816 H1804 0.950 . S
C1816 C1815 1.398 . S
C1816 C1817 1.391 . S
C1817 H1805 0.950 . S
C1817 C1813 1.393 . S
C1817 C1816 1.391 . S
H1818 C1826 0.950 . S
H1819 C1831 0.950 . S
H1820 C1828 0.950 . S
H1821 C1830 0.950 . S
H1822 C1832 0.950 . S
H1823 C1834 0.950 . S
H1824 C1836 0.950 . S
H1825 C1837 0.950 . S
C1826 H1818 0.950 . S
C1826 C1827 1.386 . S
C1826 C1828 1.391 . S
C1827 C1826 1.386 . S
C1827 C1831 1.393 . S
C1828 H1820 0.950 . S
C1828 C1826 1.391 . S
C1828 C1829 1.400 . S
C1829 C1828 1.400 . S
C1829 C1830 1.398 . S
C1829 C1835 1.491 . S
C1830 H1821 0.950 . S
C1830 C1829 1.398 . S
C1830 C1831 1.391 . S
C1831 H1819 0.950 . S
C1831 C1827 1.393 . S
C1831 C1830 1.391 . S
C1832 H1822 0.950 . S
C1832 C1833 1.386 . S
C1832 C1834 1.391 . S
C1833 C1832 1.386 . S
C1833 C1837 1.393 . S
C1834 H1823 0.950 . S
C1834 C1832 1.391 . S
C1834 C1835 1.400 . S
C1835 C1829 1.491 . S
C1835 C1834 1.400 . S
C1835 C1836 1.398 . S
C1836 H1824 0.950 . S
C1836 C1835 1.398 . S
C1836 C1837 1.391 . S
C1837 H1825 0.950 . S
C1837 C1833 1.393 . S
C1837 C1836 1.391 . S
H1838 C1846 0.950 . S
H1839 C1851 0.950 . S
H1840 C1848 0.950 . S
H1841 C1850 0.950 . S
H1842 C1852 0.950 . S
H1843 C1854 0.950 . S
H1844 C1856 0.950 . S
H1845 C1857 0.950 . S
C1846 H1838 0.950 . S
C1846 C1847 1.386 . S
C1846 C1848 1.391 . S
C1847 C1846 1.386 . S
C1847 C1851 1.393 . S
C1848 H1840 0.950 . S
C1848 C1846 1.391 . S
C1848 C1849 1.400 . S
C1849 C1848 1.400 . S
C1849 C1850 1.398 . S
C1849 C1855 1.491 . S
C1850 H1841 0.950 . S
C1850 C1849 1.398 . S
C1850 C1851 1.391 . S
C1851 H1839 0.950 . S
C1851 C1847 1.393 . S
C1851 C1850 1.391 . S
C1852 H1842 0.950 . S
C1852 C1853 1.386 . S
C1852 C1854 1.391 . S
C1853 C1852 1.386 . S
C1853 C1857 1.393 . S
C1854 H1843 0.950 . S
C1854 C1852 1.391 . S
C1854 C1855 1.400 . S
C1855 C1849 1.491 . S
C1855 C1854 1.400 . S
C1855 C1856 1.398 . S
C1856 H1844 0.950 . S
C1856 C1855 1.398 . S
C1856 C1857 1.391 . S
C1857 H1845 0.950 . S
C1857 C1853 1.393 . S
C1857 C1856 1.391 . S
H1858 C1866 0.950 . S
H1859 C1871 0.950 . S
H1860 C1868 0.950 . S
H1861 C1870 0.950 . S
H1862 C1872 0.950 . S
H1863 C1874 0.950 . S
H1864 C1876 0.950 . S
H1865 C1877 0.950 . S
C1866 H1858 0.950 . S
C1866 C1867 1.386 . S
C1866 C1868 1.391 . S
C1867 C1866 1.386 . S
C1867 C1871 1.393 . S
C1868 H1860 0.950 . S
C1868 C1866 1.391 . S
C1868 C1869 1.400 . S
C1869 C1868 1.400 . S
C1869 C1870 1.398 . S
C1869 C1875 1.491 . S
C1870 H1861 0.950 . S
C1870 C1869 1.398 . S
C1870 C1871 1.391 . S
C1871 H1859 0.950 . S
C1871 C1867 1.393 . S
C1871 C1870 1.391 . S
C1872 H1862 0.950 . S
C1872 C1873 1.386 . S
C1872 C1874 1.391 . S
C1873 C1872 1.386 . S
C1873 C1877 1.393 . S
C1874 H1863 0.950 . S
C1874 C1872 1.391 . S
C1874 C1875 1.400 . S
C1875 C1869 1.491 . S
C1875 C1874 1.400 . S
C1875 C1876 1.398 . S
C1876 H1864 0.950 . S
C1876 C1875 1.398 . S
C1876 C1877 1.391 . S
C1877 H1865 0.950 . S
C1877 C1873 1.393 . S
C1877 C1876 1.391 . S
H1878 C1886 0.950 . S
H1879 C1891 0.950 . S
H1880 C1888 0.950 . S
H1881 C1890 0.950 . S
H1882 C1892 0.950 . S
H1883 C1894 0.950 . S
H1884 C1896 0.950 . S
H1885 C1897 0.950 . S
C1886 H1878 0.950 . S
C1886 C1887 1.386 . S
C1886 C1888 1.391 . S
C1887 C1886 1.386 . S
C1887 C1891 1.393 . S
C1888 H1880 0.950 . S
C1888 C1886 1.391 . S
C1888 C1889 1.400 . S
C1889 C1888 1.400 . S
C1889 C1890 1.398 . S
C1889 C1895 1.491 . S
C1890 H1881 0.950 . S
C1890 C1889 1.398 . S
C1890 C1891 1.391 . S
C1891 H1879 0.950 . S
C1891 C1887 1.393 . S
C1891 C1890 1.391 . S
C1892 H1882 0.950 . S
C1892 C1893 1.386 . S
C1892 C1894 1.391 . S
C1893 C1892 1.386 . S
C1893 C1897 1.393 . S
C1894 H1883 0.950 . S
C1894 C1892 1.391 . S
C1894 C1895 1.400 . S
C1895 C1889 1.491 . S
C1895 C1894 1.400 . S
C1895 C1896 1.398 . S
C1896 H1884 0.950 . S
C1896 C1895 1.398 . S
C1896 C1897 1.391 . S
C1897 H1885 0.950 . S
C1897 C1893 1.393 . S
C1897 C1896 1.391 . S
H1898 C1906 0.950 . S
H1899 C1911 0.950 . S
H1900 C1908 0.950 . S
H1901 C1910 0.950 . S
H1902 C1912 0.950 . S
H1903 C1914 0.950 . S
H1904 C1916 0.950 . S
H1905 C1917 0.950 . S
C1906 H1898 0.950 . S
C1906 C1907 1.386 . S
C1906 C1908 1.391 . S
C1907 C1906 1.386 . S
C1907 C1911 1.393 . S
C1908 H1900 0.950 . S
C1908 C1906 1.391 . S
C1908 C1909 1.400 . S
C1909 C1908 1.400 . S
C1909 C1910 1.398 . S
C1909 C1915 1.491 . S
C1910 H1901 0.950 . S
C1910 C1909 1.398 . S
C1910 C1911 1.391 . S
C1911 H1899 0.950 . S
C1911 C1907 1.393 . S
C1911 C1910 1.391 . S
C1912 H1902 0.950 . S
C1912 C1913 1.386 . S
C1912 C1914 1.391 . S
C1913 C1912 1.386 . S
C1913 C1917 1.393 . S
C1914 H1903 0.950 . S
C1914 C1912 1.391 . S
C1914 C1915 1.400 . S
C1915 C1909 1.491 . S
C1915 C1914 1.400 . S
C1915 C1916 1.398 . S
C1916 H1904 0.950 . S
C1916 C1915 1.398 . S
C1916 C1917 1.391 . S
C1917 H1905 0.950 . S
C1917 C1913 1.393 . S
C1917 C1916 1.391 . S
H1918 C1926 0.950 . S
H1919 C1931 0.950 . S
H1920 C1928 0.950 . S
H1921 C1930 0.950 . S
H1922 C1932 0.950 . S
H1923 C1934 0.950 . S
H1924 C1936 0.950 . S
H1925 C1937 0.950 . S
C1926 H1918 0.950 . S
C1926 C1927 1.386 . S
C1926 C1928 1.391 . S
C1927 C1926 1.386 . S
C1927 C1931 1.393 . S
C1928 H1920 0.950 . S
C1928 C1926 1.391 . S
C1928 C1929 1.400 . S
C1929 C1928 1.400 . S
C1929 C1930 1.398 . S
C1929 C1935 1.491 . S
C1930 H1921 0.950 . S
C1930 C1929 1.398 . S
C1930 C1931 1.391 . S
C1931 H1919 0.950 . S
C1931 C1927 1.393 . S
C1931 C1930 1.391 . S
C1932 H1922 0.950 . S
C1932 C1933 1.386 . S
C1932 C1934 1.391 . S
C1933 C1932 1.386 . S
C1933 C1937 1.393 . S
C1934 H1923 0.950 . S
C1934 C1932 1.391 . S
C1934 C1935 1.400 . S
C1935 C1929 1.491 . S
C1935 C1934 1.400 . S
C1935 C1936 1.398 . S
C1936 H1924 0.950 . S
C1936 C1935 1.398 . S
C1936 C1937 1.391 . S
C1937 H1925 0.950 . S
C1937 C1933 1.393 . S
C1937 C1936 1.391 . S
H1938 C1946 0.950 . S
H1939 C1951 0.950 . S
H1940 C1948 0.950 . S
H1941 C1950 0.950 . S
H1942 C1952 0.950 . S
H1943 C1954 0.950 . S
H1944 C1956 0.950 . S
H1945 C1957 0.950 . S
C1946 H1938 0.950 . S
C1946 C1947 1.386 . S
C1946 C1948 1.391 . S
C1947 C1946 1.386 . S
C1947 C1951 1.393 1_655 S
C1948 H1940 0.950 . S
C1948 C1946 1.391 . S
C1948 C1949 1.400 . S
C1949 C1948 1.400 . S
C1949 C1950 1.398 1_655 S
C1949 C1955 1.491 . S
C1950 H1941 0.950 . S
C1950 C1949 1.398 1_455 S
C1950 C1951 1.391 . S
C1951 H1939 0.950 . S
C1951 C1947 1.393 1_455 S
C1951 C1950 1.391 . S
C1952 H1942 0.950 . S
C1952 C1953 1.383 1_455 S
C1952 C1954 1.391 . S
C1953 C1952 1.383 1_655 S
C1953 C1957 1.432 . S
C1954 H1943 0.950 . S
C1954 C1952 1.391 . S
C1954 C1955 1.400 1_455 S
C1955 C1949 1.491 . S
C1955 C1954 1.400 1_655 S
C1955 C1956 1.398 . S
C1956 H1944 0.950 . S
C1956 C1955 1.398 . S
C1956 C1957 1.391 . S
C1957 H1945 0.950 . S
C1957 C1953 1.432 . S
C1957 C1956 1.391 . S
H1958 C1966 0.950 . S
H1959 C1971 0.950 . S
H1960 C1968 0.950 . S
H1961 C1970 0.950 . S
H1962 C1972 0.950 . S
H1963 C1974 0.950 . S
H1964 C1976 0.950 . S
H1965 C1977 0.950 . S
C1966 H1958 0.950 . S
C1966 C1967 1.386 . S
C1966 C1968 1.391 . S
C1967 C1966 1.386 . S
C1967 C1971 1.393 . S
C1968 H1960 0.950 . S
C1968 C1966 1.391 . S
C1968 C1969 1.400 . S
C1969 C1968 1.400 . S
C1969 C1970 1.398 . S
C1969 C1975 1.491 . S
C1970 H1961 0.950 . S
C1970 C1969 1.398 . S
C1970 C1971 1.391 . S
C1971 H1959 0.950 . S
C1971 C1967 1.393 . S
C1971 C1970 1.391 . S
C1972 H1962 0.950 . S
C1972 C1973 1.386 . S
C1972 C1974 1.391 . S
C1973 C1972 1.386 . S
C1973 C1977 1.393 . S
C1974 H1963 0.950 . S
C1974 C1972 1.391 . S
C1974 C1975 1.400 . S
C1975 C1969 1.491 . S
C1975 C1974 1.400 . S
C1975 C1976 1.398 . S
C1976 H1964 0.950 . S
C1976 C1975 1.398 . S
C1976 C1977 1.391 . S
C1977 H1965 0.950 . S
C1977 C1973 1.393 . S
C1977 C1976 1.391 . S
H1978 C1986 0.950 . S
H1979 C1991 0.950 . S
H1980 C1988 0.950 . S
H1981 C1990 0.950 . S
H1982 C1992 0.950 . S
H1983 C1994 0.950 . S
H1984 C1996 0.950 . S
H1985 C1997 0.950 . S
C1986 H1978 0.950 . S
C1986 C1987 1.386 . S
C1986 C1988 1.391 . S
C1987 C1986 1.386 . S
C1987 C1991 1.393 . S
C1988 H1980 0.950 . S
C1988 C1986 1.391 . S
C1988 C1989 1.400 . S
C1989 C1988 1.400 . S
C1989 C1990 1.398 . S
C1989 C1995 1.491 . S
C1990 H1981 0.950 . S
C1990 C1989 1.398 . S
C1990 C1991 1.391 . S
C1991 H1979 0.950 . S
C1991 C1987 1.393 . S
C1991 C1990 1.391 . S
C1992 H1982 0.950 . S
C1992 C1993 1.386 . S
C1992 C1994 1.391 . S
C1993 C1992 1.386 . S
C1993 C1997 1.393 . S
C1994 H1983 0.950 . S
C1994 C1992 1.391 . S
C1994 C1995 1.400 . S
C1995 C1989 1.491 . S
C1995 C1994 1.400 . S
C1995 C1996 1.398 . S
C1996 H1984 0.950 . S
C1996 C1995 1.398 . S
C1996 C1997 1.391 . S
C1997 H1985 0.950 . S
C1997 C1993 1.393 . S
C1997 C1996 1.391 . S
C567 C10 1.629 . S
C573 C403 1.602 . S
C587 C23 1.625 . S
C593 C428 1.611 . S
C613 C439 1.610 . S
C607 C29 1.630 . S
C627 C30 1.634 . S
C633 C464 1.621 . S
C647 C5 1.638 . S
C653 C482 1.631 . S
C667 C18 1.628 . S
C673 C493 1.608 . S
C687 C49 1.619 . S
C693 C475 1.594 . S
C713 C500 1.607 . S
C707 C62 1.619 . S
C733 C457 1.599 . S
C727 C70 1.615 . S
C747 C75 1.620 . S
C753 C446 1.580 . S
C773 C410 1.616 . S
C767 C44 1.628 . S
C787 C57 1.619 . S
C793 C421 1.605 . S
C807 C88 1.632 . S
C813 C511 1.612 . S
C827 C101 1.621 . S
C833 C536 1.601 . S
C853 C547 1.608 . S
C847 C107 1.629 . S
C867 C108 1.632 . S
C873 C248 1.616 . S
C887 C83 1.631 . S
C893 C266 1.615 . S
C907 C96 1.630 . S
C913 C277 1.616 . S
C927 C127 1.623 . S
C933 C259 1.607 . S
C947 C140 1.614 . S
C953 C284 1.600 . S
C973 C241 1.598 . S
C967 C146 1.614 . S
C993 C554 1.600 . S
C987 C147 1.619 . S
C1013 C518 1.612 . S
C1007 C122 1.623 . S
C1033 C529 1.595 . S
C1027 C135 1.613 . S
C1047 C160 1.632 . S
C1053 C295 1.608 . S
C1067 C173 1.623 . S
C1073 C320 1.607 . S
C1087 C185 1.626 . S
C1093 C331 1.609 . S
C1107 C186 1.631 . S
C1113 C356 1.615 . S
C1133 C374 1.623 . S
C1127 C159 1.635 . S
C1153 C385 1.613 . S
C1147 C172 1.631 . S
C1173 C367 1.605 . S
C1167 C205 1.623 . S
C1193 C392 1.607 . S
C1187 C218 1.619 . S
C1207 C224 1.617 . S
C1213 C349 1.602 . S
C1233 C338 1.605 . S
C1227 C225 1.620 . S
C1247 C200 1.622 . S
C1253 C302 1.609 . S
C1273 C313 1.596 . S
C1267 C213 1.613 . S
C1293 C250 1.447 . S
C1287 C4 1.509 . S
C1307 C17 1.496 . S
C1313 C268 1.438 . S
C1333 C278 1.446 . S
C1327 C31 1.511 . S
C1353 C296 1.447 . S
C1347 C36 1.498 . S
C1373 C322 1.448 . S
C1367 C3 1.516 . S
C1393 C332 1.442 . S
C1387 C16 1.504 . S
C1407 C43 1.513 . S
C1413 C340 1.431 . S
C1427 C56 1.502 . S
C1433 C304 1.442 . S
C1447 C68 1.509 . S
C1453 C314 1.454 . S
C1467 C69 1.501 . S
C1473 C260 1.441 . S
C1493 C286 1.427 . S
C1487 C42 1.515 . S
C1507 C55 1.508 . S
C1513 C242 1.450 . S
C1533 C358 1.431 . S
C1527 C82 1.510 . S
C1547 C95 1.494 . S
C1553 C376 1.424 . S
C1567 C109 1.509 . S
C1573 C386 1.452 . S
C1593 C404 1.447 . S
C1587 C114 1.502 . S
C1607 C81 1.516 . S
C1613 C430 1.429 . S
C1627 C94 1.509 . S
C1633 C440 1.452 . S
C1647 C121 1.506 . S
C1653 C448 1.453 1_545 S
C1667 C134 1.502 . S
C1673 C412 1.414 . S
C1693 C422 1.432 . S
C1687 C148 1.508 . S
C1707 C153 1.501 . S
C1713 C368 1.446 . S
C1727 C120 1.518 . S
C1733 C394 1.434 . S
C1753 C350 1.439 . S
C1747 C133 1.513 . S
C1773 C466 1.441 . S
C1767 C166 1.510 . S
C1787 C179 1.496 . S
C1793 C484 1.416 . S
C1807 C187 1.509 . S
C1813 C494 1.452 . S
C1833 C512 1.423 . S
C1827 C192 1.503 . S
C1853 C538 1.427 . S
C1847 C161 1.511 . S
C1867 C174 1.504 . S
C1873 C548 1.438 . S
C1887 C199 1.506 . S
C1893 C556 1.431 . S
C1907 C212 1.505 . S
C1913 C520 1.427 . S
C1933 C530 1.454 . S
C1927 C226 1.509 . S
C1953 C476 1.379 1_655 S
C1947 C231 1.503 . S
C1973 C502 1.423 . S
C1967 C198 1.517 . S
C1987 C211 1.508 . S
C1993 C458 1.440 . S
