# Generated by pormake.
# Topology rtl, (3,6)-cn, num edge types: 1
# Building blocks:
#     Node 0, Type 0, BuildingBlock: KAKCAD_clean_linker_0, # of connection points: 3
#     Node 1, Type 0, BuildingBlock: KAKCAD_clean_linker_0, # of connection points: 3
#     Node 2, Type 0, BuildingBlock: KAKCAD_clean_linker_0, # of connection points: 3
#     Node 3, Type 0, BuildingBlock: KAKCAD_clean_linker_0, # of connection points: 3
#     Node 4, Type 1, BuildingBlock: KUMBUR_clean_sbu_1, # of connection points: 6
#     Node 5, Type 1, BuildingBlock: KUMBUR_clean_sbu_1, # of connection points: 6
#     Edge 6, Type (0, 1), BuildingBlock: MIFKUJ_clean_linker_0, # of connection points: 2
#     Edge 7, Type (0, 1), BuildingBlock: MIFKUJ_clean_linker_0, # of connection points: 2
#     Edge 8, Type (0, 1), BuildingBlock: MIFKUJ_clean_linker_0, # of connection points: 2
#     Edge 9, Type (0, 1), BuildingBlock: MIFKUJ_clean_linker_0, # of connection points: 2
#     Edge 10, Type (0, 1), BuildingBlock: MIFKUJ_clean_linker_0, # of connection points: 2
#     Edge 11, Type (0, 1), BuildingBlock: MIFKUJ_clean_linker_0, # of connection points: 2
#     Edge 12, Type (0, 1), BuildingBlock: MIFKUJ_clean_linker_0, # of connection points: 2
#     Edge 13, Type (0, 1), BuildingBlock: MIFKUJ_clean_linker_0, # of connection points: 2
#     Edge 14, Type (0, 1), BuildingBlock: MIFKUJ_clean_linker_0, # of connection points: 2
#     Edge 15, Type (0, 1), BuildingBlock: MIFKUJ_clean_linker_0, # of connection points: 2
#     Edge 16, Type (0, 1), BuildingBlock: MIFKUJ_clean_linker_0, # of connection points: 2
#     Edge 17, Type (0, 1), BuildingBlock: MIFKUJ_clean_linker_0, # of connection points: 2
# Relax obj value: 0.017
# Max RMSD: 0.085
# Mean RMSD: 0.053
data_MOF--net-rtl--node1-KUMBUR_clean_sbu_1--node2-KAKCAD_clean_linker_0--edge1-MIFKUJ_clean_linker_0
_symmetry_space_group_name_H-M    P1
_symmetry_Int_Tables_number       1
_symmetry_cell_setting            triclinic
loop_
_symmetry_equiv_pos_as_xyz
'x, y, z'
_cell_length_a     49.441599
_cell_length_b     49.937169
_cell_length_c     42.625083
_cell_angle_alpha  81.996383
_cell_angle_beta   99.432806
_cell_angle_gamma 90.252768
loop_
_atom_site_label
_atom_site_type_symbol
_atom_site_fract_x
_atom_site_fract_y
_atom_site_fract_z
_atom_type_partial_charge
C0 C 0.18498 0.88476 0.9116 0.0
C1 C 0.18351 0.91268 0.90081 0.0
C2 C 0.19933 0.87474 0.94191 0.0
C3 C 0.21231 0.89242 0.9623 0.0
C4 C 0.21067 0.92041 0.95174 0.0
C5 C 0.19662 0.93044 0.92108 0.0
C6 C 0.22736 0.88133 0.99448 0.0
C7 C 0.24589 0.85952 0.99763 0.0
C8 C 0.25859 0.84704 0.02803 0.0
C9 C 0.25255 0.85674 0.05557 0.0
C10 C 0.23397 0.87858 0.05285 0.0
C11 C 0.22184 0.89107 0.02217 0.0
C12 C 0.2254 0.88688 0.08194 0.0
C13 C 0.21733 0.86731 0.10539 0.0
C14 C 0.22392 0.9143 0.08577 0.0
C15 C 0.21461 0.92196 0.1126 0.0
C16 C 0.20608 0.90239 0.13595 0.0
C17 C 0.27713 0.82313 0.03069 0.0
C18 C 0.26975 0.80259 0.01163 0.0
C19 C 0.30238 0.82078 0.05168 0.0
C20 C 0.32005 0.7986 0.05308 0.0
C21 C 0.31268 0.77815 0.03381 0.0
C22 C 0.28726 0.7804 0.01321 0.0
C23 C 0.20758 0.87495 0.13186 0.0
H24 H 0.17527 0.8706 0.89638 0.0
H25 H 0.20005 0.8531 0.94958 0.0
H26 H 0.22055 0.93444 0.96702 0.0
H27 H 0.19568 0.95207 0.91335 0.0
H28 H 0.25039 0.85222 0.97622 0.0
H29 H 0.20688 0.90733 0.01987 0.0
H30 H 0.26174 0.84686 0.07916 0.0
H31 H 0.21774 0.84605 0.10276 0.0
H32 H 0.2301 0.92981 0.06806 0.0
H33 H 0.21424 0.94324 0.115 0.0
H34 H 0.25031 0.80362 0.9955 0.0
H35 H 0.30867 0.83633 0.06657 0.0
H36 H 0.20057 0.85923 0.14865 0.0
H37 H 0.28104 0.76517 0.99783 0.0
H38 H 0.3394 0.79735 0.06939 0.0
C39 C 0.6257 0.69798 0.70059 0.0
C40 C 0.61561 0.67144 0.70253 0.0
C41 C 0.63529 0.71019 0.6729 0.0
C42 C 0.63536 0.69611 0.64653 0.0
C43 C 0.62567 0.66945 0.64876 0.0
C44 C 0.61564 0.65749 0.67605 0.0
C45 C 0.64512 0.70889 0.61656 0.0
C46 C 0.66738 0.72677 0.61763 0.0
C47 C 0.67722 0.73752 0.58932 0.0
C48 C 0.66463 0.72983 0.55989 0.0
C49 C 0.64255 0.71199 0.5582 0.0
C50 C 0.63253 0.70235 0.58656 0.0
C51 C 0.63088 0.7024 0.52711 0.0
C52 C 0.63021 0.71929 0.49759 0.0
C53 C 0.6215 0.67573 0.52658 0.0
C54 C 0.61215 0.66617 0.49748 0.0
C55 C 0.61254 0.68281 0.46821 0.0
C56 C 0.70093 0.75636 0.58997 0.0
C57 C 0.70434 0.77635 0.61055 0.0
C58 C 0.7198 0.75523 0.56873 0.0
C59 C 0.74048 0.77423 0.56689 0.0
C60 C 0.7434 0.79458 0.58675 0.0
C61 C 0.72549 0.79514 0.6091 0.0
C62 C 0.62149 0.70948 0.4685 0.0
H63 H 0.62647 0.70936 0.72054 0.0
H64 H 0.64235 0.73079 0.67211 0.0
H65 H 0.62589 0.65757 0.62941 0.0
H66 H 0.60765 0.63728 0.67608 0.0
H67 H 0.67766 0.73156 0.64056 0.0
H68 H 0.61465 0.68971 0.58523 0.0
H69 H 0.67231 0.73759 0.53813 0.0
H70 H 0.63655 0.74011 0.4968 0.0
H71 H 0.62214 0.66183 0.54859 0.0
H72 H 0.60555 0.64542 0.49782 0.0
H73 H 0.69019 0.77801 0.62711 0.0
H74 H 0.7186 0.73968 0.55324 0.0
H75 H 0.62172 0.72275 0.44616 0.0
H76 H 0.72731 0.81064 0.62473 0.0
H77 H 0.75433 0.77296 0.54988 0.0
C78 C 0.79825 0.09875 0.14945 0.0
C79 C 0.827 0.09614 0.15626 0.0
C80 C 0.78489 0.10712 0.11803 0.0
C81 C 0.79999 0.11289 0.09274 0.0
C82 C 0.82869 0.10971 0.09951 0.0
C83 C 0.84202 0.10146 0.13086 0.0
C84 C 0.78612 0.12318 0.05958 0.0
C85 C 0.76536 0.1432 0.05439 0.0
C86 C 0.75395 0.15481 0.02311 0.0
C87 C 0.76312 0.1459 0.99675 0.0
C88 C 0.78351 0.12551 1.00143 0.0
C89 C 0.79476 0.11423 0.03294 0.0
C90 C 0.79393 0.11671 0.97359 0.0
C91 C 0.77589 0.11282 0.94552 0.0
C92 C 0.82218 0.11228 0.97492 0.0
C93 C 0.83218 0.10428 0.94881 0.0
C94 C 0.81422 0.1006 0.92062 0.0
C95 C 0.7339 0.17762 0.01831 0.0
C96 C 0.71088 0.17561 0.03389 0.0
C97 C 0.73864 0.20216 0.99971 0.0
C98 C 0.72128 0.22459 0.99772 0.0
C99 C 0.69854 0.22273 0.01377 0.0
C100 C 0.6932 0.1979 0.03139 0.0
C101 C 0.78592 0.1048 0.91933 0.0
H102 H 0.7861 0.09494 0.16851 0.0
H103 H 0.76274 0.10915 0.11355 0.0
H104 H 0.84098 0.11425 0.08067 0.0
H105 H 0.86416 0.0993 0.13523 0.0
H106 H 0.75905 0.15081 0.07473 0.0
H107 H 0.8103 0.09834 0.03678 0.0
H108 H 0.75472 0.15523 0.97263 0.0
H109 H 0.75399 0.11584 0.94384 0.0
H110 H 0.83669 0.11539 0.996 0.0
H111 H 0.85405 0.1009 0.95078 0.0
H112 H 0.70677 0.15687 0.04831 0.0
H113 H 0.75635 0.20429 0.98764 0.0
H114 H 0.77156 0.10237 0.89787 0.0
H115 H 0.67589 0.19601 0.04412 0.0
H116 H 0.72577 0.24349 0.9839 0.0
C117 C 0.37094 0.31996 0.34685 0.0
C118 C 0.39656 0.33241 0.34897 0.0
C119 C 0.36175 0.30745 0.37459 0.0
C120 C 0.37826 0.30667 0.40499 0.0
C121 C 0.40438 0.31837 0.40667 0.0
C122 C 0.41323 0.33137 0.37908 0.0
C123 C 0.36819 0.29454 0.43497 0.0
C124 C 0.35065 0.27218 0.43523 0.0
C125 C 0.34107 0.26108 0.46353 0.0
C126 C 0.3503 0.27199 0.49201 0.0
C127 C 0.36774 0.29429 0.49248 0.0
C128 C 0.37595 0.30574 0.46359 0.0
C129 C 0.37709 0.30571 0.52305 0.0
C130 C 0.36062 0.30395 0.5472 0.0
C131 C 0.40271 0.31817 0.52865 0.0
C132 C 0.4113 0.32891 0.55718 0.0
C133 C 0.395 0.32666 0.58159 0.0
C134 C 0.32054 0.23894 0.46356 0.0
C135 C 0.2995 0.23803 0.43717 0.0
C136 C 0.32049 0.21974 0.49106 0.0
C137 C 0.29915 0.20149 0.493 0.0
C138 C 0.27756 0.20105 0.46704 0.0
C139 C 0.27853 0.21916 0.43874 0.0
C140 C 0.3697 0.3136 0.57619 0.0
H141 H 0.35767 0.32063 0.32384 0.0
H142 H 0.34142 0.29906 0.37218 0.0
H143 H 0.41812 0.31756 0.42935 0.0
H144 H 0.43325 0.34051 0.38125 0.0
H145 H 0.34474 0.26312 0.41354 0.0
H146 H 0.38792 0.32393 0.46318 0.0
H147 H 0.34351 0.26324 0.51393 0.0
H148 H 0.34046 0.29524 0.54392 0.0
H149 H 0.4164 0.31958 0.51113 0.0
H150 H 0.43067 0.33918 0.55969 0.0
H151 H 0.29861 0.25247 0.41557 0.0
H152 H 0.33668 0.21907 0.51161 0.0
H153 H 0.35663 0.31056 0.59433 0.0
H154 H 0.26292 0.21915 0.41775 0.0
H155 H 0.29938 0.18836 0.51547 0.0
Tb156 Tb 0.02552 0.97137 0.51066 0.0
C157 C 0.96328 0.08053 0.49458 0.0
N158 N 0.98792 0.07317 0.513 0.0
C159 C 0.0067 0.11559 0.49406 0.0
C160 C 0.95955 0.10561 0.47453 0.0
C161 C 0.00946 0.09043 0.51339 0.0
C162 C 0.98168 0.12319 0.47442 0.0
C163 C 0.91623 0.06904 0.47608 0.0
C164 C 0.942 0.06237 0.49521 0.0
C165 C 0.91243 0.09393 0.45584 0.0
C166 C 0.93403 0.11218 0.45509 0.0
Tb167 Tb 0.99001 0.03159 0.54333 0.0
N168 N 0.94662 0.03818 0.51458 0.0
C169 C 0.89498 0.05065 0.47819 0.0
C170 C 0.9253 0.02132 0.5187 0.0
C171 C 0.89942 0.0269 0.50002 0.0
H172 H 0.02864 0.08514 0.52914 0.0
H173 H 0.88276 0.01313 0.50296 0.0
H174 H 0.98387 0.91878 0.51465 0.0
H175 H 0.13019 0.98486 0.56643 0.0
H176 H 0.92765 0.00411 0.53712 0.0
H177 H 0.87486 0.05499 0.46389 0.0
H178 H 0.08737 0.99792 0.52955 0.0
H179 H 0.02384 0.12913 0.4944 0.0
H180 H 0.89281 0.09935 0.44084 0.0
H181 H 0.93077 0.13132 0.43942 0.0
H182 H 0.98522 0.87285 0.54485 0.0
H183 H 0.97965 0.14268 0.45939 0.0
H184 H 0.13488 0.93984 0.5996 0.0
N185 N 0.0241 0.92829 0.53623 0.0
C186 C 0.04744 0.91913 0.55641 0.0
C187 C 1.0028 0.88571 0.54839 0.0
C188 C 0.04922 0.89286 0.57371 0.0
C189 C 1.00198 0.91193 0.53168 0.0
C190 C 0.02649 0.87613 0.56952 0.0
N191 N 0.06662 0.962 0.54373 0.0
C192 C 0.08845 0.97886 0.54482 0.0
C193 C 0.0939 0.92781 0.58105 0.0
C194 C 0.06946 0.93646 0.56013 0.0
C195 C 0.11574 0.9457 0.58379 0.0
C196 C 0.11311 0.9712 0.56526 0.0
H197 H 0.02704 0.85579 0.5824 0.0
H198 H 0.07528 0.86406 0.60823 0.0
H199 H 0.11438 0.89463 0.6146 0.0
O200 O 0.05057 0.97646 0.4747 0.0
O201 O 0.02656 0.96958 0.56289 0.0
O202 O 0.0275 0.0137 0.57298 0.0
O203 O 0.02749 0.94032 0.48259 0.0
O204 O 0.04043 0.01283 0.49995 0.0
O205 O 0.03391 0.03523 0.54223 0.0
O206 O 0.96759 0.02987 0.58264 0.0
O207 O 0.98972 0.03335 0.49119 0.0
O208 O 0.98837 0.98945 0.47995 0.0
O209 O 0.99353 0.06362 0.57004 0.0
O210 O 0.97583 0.98978 0.55432 0.0
O211 O 0.9814 0.96823 0.51091 0.0
C212 C 0.03358 0.98795 0.58175 0.0
C213 C 0.0376 0.95274 0.43034 0.0
C214 C 0.05371 0.95014 0.37968 0.0
C215 C 0.02649 0.94768 0.3648 0.0
C216 C 0.01044 0.95099 0.41483 0.0
C217 C 0.005 0.94819 0.38229 0.0
C218 C 0.05924 0.95231 0.41264 0.0
C219 C 0.04637 0.03222 0.51789 0.0
C220 C 0.04389 0.9533 0.4652 0.0
C221 C 0.07351 0.8842 0.5947 0.0
C222 C 0.09577 0.90162 0.59836 0.0
C223 C 0.98162 0.01528 0.47215 0.0
C224 C 0.97066 0.06777 0.61495 0.0
C225 C 0.95016 0.07084 0.66282 0.0
C226 C 0.96127 0.09668 0.66421 0.0
C227 C 0.98151 0.09368 0.61712 0.0
C228 C 0.95457 0.05641 0.6378 0.0
C229 C 0.97675 0.10798 0.64149 0.0
C230 C 0.96912 0.97107 0.53549 0.0
C231 C 0.97707 0.05326 0.58896 0.0
H232 H 0.02186 0.94553 0.33954 0.0
H233 H 0.99348 0.95134 0.42798 0.0
H234 H 0.98406 0.94652 0.37052 0.0
H235 H 0.08028 0.9536 0.42445 0.0
H236 H 0.95778 0.10827 0.68291 0.0
H237 H 0.99382 0.10303 0.59994 0.0
H238 H 0.94607 0.03647 0.63657 0.0
H239 H 0.98518 0.1279 0.64282 0.0
Tb240 Tb 0.47989 0.48557 0.99676 0.0
C241 C 0.5896 0.54363 0.04228 0.0
N242 N 0.58058 0.51895 0.05306 0.0
C243 C 0.62559 0.49984 0.05683 0.0
C244 C 0.61686 0.54722 0.037 0.0
C245 C 0.59847 0.49757 0.06215 0.0
C246 C 0.63473 0.52472 0.0436 0.0
C247 C 0.58097 0.59188 0.02993 0.0
C248 C 0.57188 0.56557 0.03887 0.0
C249 C 0.60781 0.59555 0.02354 0.0
C250 C 0.62573 0.57326 0.02703 0.0
Tb251 Tb 0.53635 0.51693 0.06159 0.0
N252 N 0.54657 0.56126 0.04698 0.0
C253 C 0.56335 0.6138 0.02942 0.0
C254 C 0.53047 0.58275 0.0495 0.0
C255 C 0.53818 0.60923 0.03983 0.0
H256 H 0.59219 0.47916 0.07474 0.0
H257 H 0.52497 0.62612 0.04111 0.0
H258 H 0.42859 0.53184 0.97387 0.0
H259 H 0.47366 0.37927 0.03913 0.0
H260 H 0.51199 0.57974 0.05977 0.0
H261 H 0.5695 0.63434 0.02252 0.0
H262 H 0.49387 0.42026 0.01312 0.0
H263 H 0.63958 0.48263 0.06372 0.0
H264 H 0.61524 0.61567 0.01731 0.0
H265 H 0.64669 0.5765 0.02319 0.0
H266 H 0.38269 0.53881 0.98674 0.0
H267 H 0.65588 0.52662 0.04001 0.0
H268 H 0.43016 0.38307 0.06006 0.0
N269 N 0.4361 0.49421 1.00483 0.0
C270 C 0.42429 0.47364 0.02185 0.0
C271 C 0.39437 0.52056 0.9973 0.0
C272 C 0.39766 0.47637 0.02897 0.0
C273 C 0.42074 0.51672 0.99061 0.0
C274 C 0.38305 0.5006 0.01729 0.0
N275 N 0.46279 0.44675 0.02044 0.0
C276 C 0.47496 0.42194 0.0222 0.0
C277 C 0.42555 0.42622 0.04443 0.0
C278 C 0.43788 0.44888 0.02939 0.0
C279 C 0.43897 0.40101 0.04866 0.0
C280 C 0.46352 0.39877 0.03685 0.0
H281 H 0.36252 0.50352 0.02216 0.0
H282 H 0.36566 0.4562 0.052 0.0
H283 H 0.39018 0.41223 0.06565 0.0
O284 O 0.49053 0.46382 0.96162 0.0
O285 O 0.48949 0.46727 0.04731 0.0
O286 O 0.49613 0.50456 0.07199 0.0
O287 O 0.45093 0.48266 0.95528 0.0
O288 O 0.52257 0.47148 1.00308 0.0
O289 O 0.54286 0.47401 0.05566 0.0
O290 O 0.54808 0.53782 0.10141 0.0
O291 O 0.54356 0.51934 0.0115 0.0
O292 O 0.5009 0.52186 0.97873 0.0
O293 O 0.55144 0.49378 0.10627 0.0
O294 O 0.49507 0.53593 0.05076 0.0
O295 O 0.47528 0.52928 0.99889 0.0
C296 C 0.48852 0.47954 0.07227 0.0
C297 C 0.46919 0.47788 0.90873 0.0
C298 C 0.46699 0.46691 0.85444 0.0
C299 C 0.47436 0.49358 0.84437 0.0
C300 C 0.4765 0.5044 0.89835 0.0
C301 C 0.479 0.51219 0.86622 0.0
C302 C 0.46428 0.45924 0.88674 0.0
C303 C 0.5393 0.46183 0.02955 0.0
C304 C 0.46737 0.46896 0.94251 0.0
C305 C 0.38594 0.45436 0.04592 0.0
C306 C 0.39986 0.4293 0.05362 0.0
C307 C 0.52694 0.52839 0.98468 0.0
C308 C 0.56557 0.51438 0.15502 0.0
C309 C 0.57479 0.53587 0.2037 0.0
C310 C 0.58672 0.51155 0.22068 0.0
C311 C 0.57738 0.49019 0.17262 0.0
C312 C 0.5641 0.53727 0.1708 0.0
C313 C 0.58788 0.48885 0.20523 0.0
C314 C 0.4783 0.54319 0.02342 0.0
C315 C 0.55475 0.51535 0.12045 0.0
H316 H 0.47625 0.50011 0.81952 0.0
H317 H 0.48034 0.51898 0.91506 0.0
H318 H 0.48462 0.53268 0.85824 0.0
H319 H 0.45887 0.43867 0.89492 0.0
H320 H 0.59495 0.5101 0.24606 0.0
H321 H 0.57862 0.47229 0.16115 0.0
H322 H 0.55486 0.55604 0.15766 0.0
H323 H 0.59698 0.47013 0.21858 0.0
H324 H 0.27679 0.15118 0.50465 0.0
H325 H 0.23755 0.12371 0.51335 0.0
H326 H 0.18522 0.17902 0.44252 0.0
H327 H 0.22367 0.20859 0.43676 0.0
H328 H 0.15864 0.16595 0.48597 0.0
H329 H 0.20994 0.1112 0.43133 0.0
H330 H 0.25039 0.08669 0.42183 0.0
H331 H 0.254 0.03694 0.51317 0.0
H332 H 0.21377 0.06137 0.52337 0.0
H333 H 0.06457 0.04719 0.46095 0.0
H334 H 0.10327 0.07646 0.45132 0.0
H335 H 0.11947 0.08587 0.55162 0.0
H336 H 0.08035 0.05745 0.56124 0.0
H337 H 0.16236 0.06611 0.49157 0.0
H338 H 0.11551 0.1345 0.54681 0.0
H339 H 0.0729 0.15882 0.55 0.0
H340 H 0.05909 0.18173 0.44766 0.0
H341 H 0.10131 0.15692 0.4439 0.0
C342 C 0.25696 0.158 0.49125 0.0
C343 C 0.25382 0.18254 0.47004 0.0
C344 C 0.23443 0.14174 0.49577 0.0
C345 C 0.20827 0.14878 0.47812 0.0
C346 C 0.2051 0.17293 0.45647 0.0
C347 C 0.22743 0.18971 0.45275 0.0
C348 C 0.18406 0.13158 0.48297 0.0
C349 C 0.15967 0.14415 0.48697 0.0
C350 C 0.18487 0.10299 0.48435 0.0
C351 C 0.209 0.08826 0.4782 0.0
C352 C 0.21947 0.09514 0.44946 0.0
C353 C 0.24234 0.08125 0.44394 0.0
C354 C 0.25479 0.06031 0.46691 0.0
C355 C 0.24436 0.05318 0.49541 0.0
C356 C 0.22151 0.06701 0.50105 0.0
C357 C 0.07627 0.05571 0.48087 0.0
C358 C 0.06933 0.05025 0.51178 0.0
C359 C 0.09829 0.07242 0.47533 0.0
C360 C 0.11384 0.08372 0.50064 0.0
C361 C 0.10722 0.07798 0.5316 0.0
C362 C 0.08495 0.06165 0.53707 0.0
C363 C 0.13773 0.1006 0.49495 0.0
C364 C 0.16179 0.08793 0.49062 0.0
C365 C 0.13658 0.12902 0.49277 0.0
C366 C 0.11118 0.14352 0.49505 0.0
C367 C 0.10314 0.14439 0.52499 0.0
C368 C 0.07914 0.15833 0.5269 0.0
C369 C 0.06328 0.1718 0.49904 0.0
C370 C 0.07135 0.17125 0.4692 0.0
C371 C 0.09525 0.15719 0.46716 0.0
H372 H 0.04474 0.18263 0.50058 0.0
H373 H 0.2725 0.04959 0.46259 0.0
H374 H 0.29923 0.72489 0.03493 0.0
H375 H 0.3293 0.68646 0.03376 0.0
H376 H 0.39845 0.73939 0.03384 0.0
H377 H 0.36831 0.77814 0.03454 0.0
H378 H 0.39554 0.70427 0.988 0.0
H379 H 0.39241 0.69818 0.10096 0.0
H380 H 0.36925 0.69631 0.14823 0.0
H381 H 0.32826 0.6241 0.12423 0.0
H382 H 0.35091 0.62574 0.07657 0.0
H383 H 0.48837 0.59439 0.99803 0.0
H384 H 0.4648 0.63555 1.00394 0.0
H385 H 0.40216 0.58726 0.04342 0.0
H386 H 0.42989 0.54669 0.04482 0.0
H387 H 0.40442 0.62372 0.07148 0.0
H388 H 0.40141 0.63114 0.95525 0.0
H389 H 0.42174 0.63324 0.90579 0.0
H390 H 0.46917 0.70157 0.93127 0.0
H391 H 0.44929 0.69971 0.98095 0.0
C392 C 0.32083 0.7284 0.03466 0.0
C393 C 0.33136 0.75461 0.0348 0.0
C394 C 0.33803 0.70636 0.03423 0.0
C395 C 0.36617 0.70999 0.03396 0.0
C396 C 0.37681 0.73611 0.03414 0.0
C397 C 0.35961 0.75819 0.03479 0.0
C398 C 0.38421 0.68652 0.03275 0.0
C399 C 0.39771 0.68663 0.0063 0.0
C400 C 0.38658 0.66338 0.05628 0.0
C401 C 0.37322 0.6622 0.08512 0.0
C402 C 0.37833 0.682 0.10567 0.0
C403 C 0.36531 0.68097 0.13254 0.0
C404 C 0.34726 0.66013 0.1392 0.0
C405 C 0.34224 0.64023 0.11904 0.0
C406 C 0.35519 0.64119 0.09213 0.0
C407 C 0.46978 0.59279 0.00844 0.0
C408 C 0.46095 0.5675 0.02109 0.0
C409 C 0.45568 0.61642 0.01096 0.0
C410 C 0.43071 0.61517 0.02302 0.0
C411 C 0.4213 0.5894 0.03416 0.0
C412 C 0.43678 0.56599 0.03428 0.0
C413 C 0.41494 0.64033 0.02548 0.0
C414 C 0.4021 0.64088 0.05258 0.0
C415 C 0.41252 0.66381 1.00196 0.0
C416 C 0.42401 0.66516 0.97184 0.0
C417 C 0.41619 0.64657 0.95027 0.0
C418 C 0.42766 0.64771 0.92224 0.0
C419 C 0.44677 0.66749 0.91543 0.0
C420 C 0.45438 0.68625 0.93657 0.0
C421 C 0.443 0.6852 0.96462 0.0
H422 H 0.45565 0.6683 0.89374 0.0
H423 H 0.33719 0.65937 0.16001 0.0
H424 H 0.78233 0.81048 0.63385 0.0
H425 H 0.8202 0.84147 0.62688 0.0
H426 H 0.79008 0.85681 0.52495 0.0
H427 H 0.7531 0.82504 0.53179 0.0
H428 H 0.84126 0.84857 0.53247 0.0
H429 H 0.78565 0.90438 0.58186 0.0
H430 H 0.76055 0.91564 0.62393 0.0
H431 H 0.83453 0.90446 0.69329 0.0
H432 H 0.85998 0.89283 0.65171 0.0
H433 H 0.92803 0.95594 0.49128 0.0
H434 H 0.88854 0.92829 0.50101 0.0
H435 H 0.91954 0.91719 0.60286 0.0
H436 H 0.95788 0.94679 0.59314 0.0
H437 H 0.86853 0.9227 0.59663 0.0
H438 H 0.92408 0.86653 0.54714 0.0
H439 H 0.94913 0.85607 0.50461 0.0
H440 H 0.87515 0.86818 0.43543 0.0
H441 H 0.84969 0.87885 0.47743 0.0
C442 C 0.7837 0.82075 0.61006 0.0
C443 C 0.76487 0.81526 0.58335 0.0
C444 C 0.80529 0.83858 0.60606 0.0
C445 C 0.80804 0.85182 0.57536 0.0
C446 C 0.78865 0.84684 0.54887 0.0
C447 C 0.76746 0.8287 0.55278 0.0
C448 C 0.8318 0.86964 0.57025 0.0
C449 C 0.84693 0.865 0.54629 0.0
C450 C 0.83998 0.89063 0.58879 0.0
C451 C 0.82463 0.89748 0.61376 0.0
C452 C 0.7965 0.90412 0.60614 0.0
C453 C 0.78223 0.91061 0.62989 0.0
C454 C 0.79592 0.91069 0.66128 0.0
C455 C 0.82394 0.90435 0.66898 0.0
C456 C 0.83829 0.89783 0.64534 0.0
C457 C 0.92641 0.94743 0.5157 0.0
C458 C 0.94607 0.95319 0.54145 0.0
C459 C 0.9039 0.93146 0.52129 0.0
C460 C 0.90125 0.9198 0.55266 0.0
C461 C 0.921 0.92573 0.57841 0.0
C462 C 0.943 0.94252 0.57288 0.0
C463 C 0.87785 0.90173 0.55869 0.0
C464 C 0.86286 0.90624 0.58286 0.0
C465 C 0.86979 0.88054 0.5404 0.0
C466 C 0.88504 0.87363 0.51536 0.0
C467 C 0.91319 0.86702 0.52283 0.0
C468 C 0.92746 0.86108 0.49883 0.0
C469 C 0.91376 0.86155 0.46736 0.0
C470 C 0.88574 0.86783 0.45982 0.0
C471 C 0.87137 0.87377 0.48371 0.0
H472 H 0.92486 0.85699 0.44881 0.0
H473 H 0.78484 0.91573 0.67962 0.0
H474 H 0.64271 0.22836 0.99822 0.0
H475 H 0.61449 0.26863 0.9993 0.0
H476 H 0.68746 0.31152 0.03119 0.0
H477 H 0.7157 0.27169 0.02937 0.0
H478 H 0.63993 0.31002 0.06879 0.0
H479 H 0.66319 0.32858 0.9608 0.0
H480 H 0.66349 0.31706 0.90645 0.0
H481 H 0.57557 0.31367 0.89052 0.0
H482 H 0.5748 0.32471 0.94502 0.0
H483 H 0.58303 0.43765 0.07363 0.0
H484 H 0.61167 0.40028 0.06801 0.0
H485 H 0.55495 0.38527 0.98392 0.0
H486 H 0.53116 0.42721 0.98452 0.0
H487 H 0.5945 0.36973 0.9721 0.0
H488 H 0.56711 0.34756 0.07731 0.0
H489 H 0.56351 0.35273 0.13331 0.0
H490 H 0.65124 0.35568 0.15665 0.0
H491 H 0.65533 0.3509 0.10086 0.0
C492 C 0.65264 0.24647 1.00526 0.0
C493 C 0.68134 0.24703 0.01357 0.0
C494 C 0.63657 0.26941 1.00579 0.0
C495 C 0.64896 0.29301 0.01523 0.0
C496 C 0.67757 0.29351 0.02372 0.0
C497 C 0.69365 0.27084 0.02256 0.0
C498 C 0.63217 0.31702 0.01734 0.0
C499 C 0.6299 0.32326 0.04777 0.0
C500 C 0.61841 0.33354 0.9899 0.0
C501 C 0.61898 0.32717 0.95709 0.0
C502 C 0.64395 0.32511 0.94582 0.0
C503 C 0.6442 0.31872 0.91497 0.0
C504 C 0.61957 0.31455 0.89508 0.0
C505 C 0.59464 0.31685 0.90597 0.0
C506 C 0.59429 0.32318 0.93683 0.0
C507 C 0.57745 0.42741 0.05297 0.0
C508 C 0.55517 0.43652 0.02897 0.0
C509 C 0.59326 0.40479 0.05057 0.0
C510 C 0.58536 0.38852 0.02622 0.0
C511 C 0.56225 0.39707 1.00296 0.0
C512 C 0.5481 0.42111 1.00367 0.0
C513 C 0.60121 0.36321 0.02417 0.0
C514 C 0.60365 0.35658 0.99358 0.0
C515 C 0.61419 0.34559 0.05166 0.0
C516 C 0.61149 0.34898 0.08495 0.0
C517 C 0.58558 0.34946 0.09439 0.0
C518 C 0.58348 0.35233 0.12608 0.0
C519 C 0.60717 0.35444 0.14849 0.0
C520 C 0.63295 0.35398 0.13927 0.0
C521 C 0.63517 0.35119 0.10767 0.0
H522 H 0.6057 0.35622 0.1731 0.0
H523 H 0.61981 0.30961 0.87119 0.0
H524 H 0.17606 0.94826 0.13879 0.0
H525 H 0.15612 0.95975 0.18408 0.0
H526 H 0.18938 0.88575 0.24147 0.0
H527 H 0.21086 0.87474 0.19724 0.0
H528 H 0.13149 0.89451 0.23803 0.0
H529 H 0.21691 0.93991 0.25982 0.0
H530 H 0.25333 0.97143 0.24707 0.0
H531 H 0.19563 0.03801 0.22923 0.0
H532 H 0.15871 0.00678 0.24132 0.0
H533 H 0.09412 0.91194 0.38602 0.0
H534 H 0.12546 0.90717 0.34785 0.0
H535 H 0.09429 0.98253 0.29166 0.0
H536 H 0.0626 0.98702 0.32946 0.0
H537 H 0.15234 0.97419 0.29508 0.0
H538 H 0.06702 0.93078 0.26889 0.0
H539 H 0.02883 0.90081 0.27937 0.0
H540 H 0.08421 0.83226 0.30171 0.0
H541 H 0.12289 0.86198 0.29202 0.0
C542 C 0.17981 0.93466 0.16122 0.0
C543 C 0.19503 0.91038 0.16402 0.0
C544 C 0.1682 0.94125 0.18705 0.0
C545 C 0.17126 0.92357 0.21605 0.0
C546 C 0.18669 0.8996 0.21919 0.0
C547 C 0.19874 0.89324 0.19366 0.0
C548 C 0.15706 0.92922 0.24253 0.0
C549 C 0.13638 0.91167 0.25087 0.0
C550 C 0.16284 0.95214 0.25846 0.0
C551 C 0.18497 0.97095 0.25112 0.0
C552 C 0.21191 0.96122 0.25283 0.0
C553 C 0.23266 0.97905 0.24579 0.0
C554 C 0.22678 0.0067 0.23725 0.0
C555 C 0.20014 0.01658 0.23579 0.0
C556 C 0.1793 0.99882 0.24275 0.0
C557 C 0.09451 0.92776 0.36594 0.0
C558 C 0.07599 0.94977 0.36044 0.0
C559 C 0.11231 0.92502 0.34416 0.0
C560 C 0.11202 0.94442 0.31683 0.0
C561 C 0.09487 0.96739 0.31261 0.0
C562 C 0.07675 0.96989 0.33408 0.0
C563 C 0.12713 0.93919 0.29089 0.0
C564 C 0.14771 0.9569 0.28244 0.0
C565 C 0.12106 0.91661 0.27443 0.0
C566 C 0.0979 0.89865 0.28021 0.0
C567 C 0.07111 0.90936 0.27641 0.0
C568 C 0.04937 0.89242 0.28214 0.0
C569 C 0.0541 0.86466 0.29132 0.0
C570 C 0.08059 0.85378 0.2947 0.0
C571 C 0.10244 0.87067 0.28911 0.0
H572 H 0.03723 0.85156 0.29572 0.0
H573 H 0.24289 0.02047 0.23185 0.0
H574 H 0.61888 0.61755 0.72826 0.0
H575 H 0.60074 0.59574 0.77494 0.0
H576 H 0.57203 0.67295 0.7919 0.0
H577 H 0.58876 0.69501 0.74405 0.0
H578 H 0.60191 0.64187 0.84664 0.0
H579 H 0.52644 0.63149 0.76429 0.0
H580 H 0.50318 0.61888 0.71288 0.0
H581 H 0.52833 0.53598 0.74444 0.0
H582 H 0.55217 0.54817 0.79586 0.0
H583 H 0.53304 0.5828 0.97381 0.0
H584 H 0.54693 0.60936 0.92642 0.0
H585 H 0.55886 0.53558 0.88777 0.0
H586 H 0.54407 0.50931 0.93477 0.0
H587 H 0.53414 0.56843 0.84256 0.0
H588 H 0.61653 0.57907 0.9185 0.0
H589 H 0.64706 0.59203 0.96554 0.0
H590 H 0.61206 0.67237 0.94538 0.0
H591 H 0.58182 0.66003 0.89768 0.0
C592 C 0.60821 0.63 0.74132 0.0
C593 C 0.60519 0.65819 0.73188 0.0
C594 C 0.59797 0.61741 0.76823 0.0
C595 C 0.58476 0.63266 0.78669 0.0
C596 C 0.58208 0.66078 0.77788 0.0
C597 C 0.59192 0.67339 0.75061 0.0
C598 C 0.57481 0.61921 0.81593 0.0
C599 C 0.5867 0.62613 0.84577 0.0
C600 C 0.55554 0.59821 0.81478 0.0
C601 C 0.54132 0.59081 0.78383 0.0
C602 C 0.52726 0.61062 0.76015 0.0
C603 C 0.51392 0.60353 0.73103 0.0
C604 C 0.51433 0.57666 0.72536 0.0
C605 C 0.52806 0.5568 0.74884 0.0
C606 C 0.54148 0.56379 0.77799 0.0
C607 C 0.53923 0.57238 0.95543 0.0
C608 C 0.53821 0.54409 0.95809 0.0
C609 C 0.54722 0.58752 0.92833 0.0
C610 C 0.55451 0.57459 0.9035 0.0
C611 C 0.55352 0.54617 0.90648 0.0
C612 C 0.54532 0.5311 0.93343 0.0
C613 C 0.56184 0.59051 0.87374 0.0
C614 C 0.54928 0.58421 0.84363 0.0
C615 C 0.58077 0.6119 0.8746 0.0
C616 C 0.59677 0.61855 0.90486 0.0
C617 C 0.61511 0.59938 0.9244 0.0
C618 C 0.63251 0.60669 0.95098 0.0
C619 C 0.63149 0.63301 0.95846 0.0
C620 C 0.61288 0.65202 0.93952 0.0
C621 C 0.5957 0.64493 0.91263 0.0
H622 H 0.64511 0.63865 0.97897 0.0
H623 H 0.50396 0.57121 0.7028 0.0
H624 H 0.81344 0.05687 0.20256 0.0
H625 H 0.83814 0.04387 0.2572 0.0
H626 H 0.89759 0.10554 0.24042 0.0
H627 H 0.87327 0.11825 0.18578 0.0
H628 H 0.92339 0.06264 0.26867 0.0
H629 H 0.84713 0.11146 0.28804 0.0
H630 H 0.79851 0.12397 0.28502 0.0
H631 H 0.7837 0.04542 0.33372 0.0
H632 H 0.83219 0.03226 0.33656 0.0
H633 H 0.98074 0.06465 0.43508 0.0
H634 H 0.9528 0.07889 0.38229 0.0
H635 H 0.91548 1.00059 0.38564 0.0
H636 H 0.94365 0.98605 0.43819 0.0
H637 H 0.87839 0.05192 0.36539 0.0
H638 H 0.95934 0.00612 0.34473 0.0
H639 H 0.0091 0.99938 0.34771 0.0
H640 H 0.01585 0.08041 0.30165 0.0
H641 H 0.96625 0.08814 0.29911 0.0
C642 C 0.83166 0.06778 0.21065 0.0
C643 C 0.84145 0.08853 0.18978 0.0
C644 C 0.84575 0.06038 0.24192 0.0
C645 C 0.86966 0.07387 0.25316 0.0
C646 C 0.8793 0.09471 0.23237 0.0
C647 C 0.86539 0.10193 0.20107 0.0
C648 C 0.88518 0.06585 0.28617 0.0
C649 C 0.91349 0.06066 0.28978 0.0
C650 C 0.8724 0.063 0.31387 0.0
C651 C 0.84323 0.07077 0.3122 0.0
C652 C 0.83345 0.09676 0.29785 0.0
C653 C 0.80593 0.10398 0.29621 0.0
C654 C 0.78801 0.08547 0.30909 0.0
C655 C 0.7976 0.05971 0.3237 0.0
C656 C 0.82511 0.05236 0.32534 0.0
C657 C 0.96646 0.05054 0.42464 0.0
C658 C 0.96444 0.02421 0.44065 0.0
C659 C 0.95058 0.05868 0.39451 0.0
C660 C 0.93217 0.04074 0.38012 0.0
C661 C 0.92958 0.01469 0.39641 0.0
C662 C 0.9458 0.00638 0.42627 0.0
C663 C 0.91634 0.04883 0.34754 0.0
C664 C 0.88807 0.05397 0.34412 0.0
C665 C 0.92925 0.05244 0.32006 0.0
C666 C 0.95912 0.04783 0.32213 0.0
C667 C 0.97146 0.02265 0.33565 0.0
C668 C 0.99962 0.01859 0.33717 0.0
C669 C 0.0156 0.03934 0.32494 0.0
C670 C 1.00346 0.06433 0.31118 0.0
C671 C 0.97534 0.0686 0.30974 0.0
H672 H 0.03738 0.03602 0.32608 0.0
H673 H 0.7667 0.09111 0.30782 0.0
H674 H 0.44785 0.33528 0.61186 0.0
H675 H 0.46158 0.35632 0.65977 0.0
H676 H 0.37687 0.36185 0.67184 0.0
H677 H 0.36267 0.345 0.62155 0.0
H678 H 0.39663 0.40375 0.68472 0.0
H679 H 0.4309 0.31269 0.71898 0.0
H680 H 0.4574 0.27133 0.71728 0.0
H681 H 0.53214 0.31579 0.72722 0.0
H682 H 0.50605 0.3575 0.72851 0.0
H683 H 0.42351 0.43325 0.84475 0.0
H684 H 0.41328 0.4045 0.8022 0.0
H685 H 0.48911 0.42752 0.76923 0.0
H686 H 0.49938 0.45638 0.81153 0.0
H687 H 0.47479 0.37013 0.76946 0.0
H688 H 0.43683 0.46127 0.73349 0.0
H689 H 0.40853 0.50058 0.73825 0.0
H690 H 0.33719 0.45103 0.73536 0.0
H691 H 0.3652 0.41131 0.73114 0.0
C692 C 0.43195 0.34148 0.62411 0.0
C693 C 0.40396 0.33813 0.61224 0.0
C694 C 0.43999 0.35295 0.65224 0.0
C695 C 0.4204 0.36016 0.67018 0.0
C696 C 0.39256 0.35645 0.6587 0.0
C697 C 0.38444 0.34616 0.62993 0.0
C698 C 0.42844 0.37295 0.69987 0.0
C699 C 0.41339 0.39585 0.70341 0.0
C700 C 0.45075 0.36334 0.72426 0.0
C701 C 0.46647 0.33826 0.72354 0.0
C702 C 0.45296 0.31368 0.72059 0.0
C703 C 0.46792 0.29017 0.71972 0.0
C704 C 0.49643 0.29095 0.72206 0.0
C705 C 0.51005 0.31522 0.72536 0.0
C706 C 0.49519 0.33879 0.72618 0.0
C707 C 0.43819 0.43181 0.82875 0.0
C708 C 0.46206 0.44731 0.83109 0.0
C709 C 0.43232 0.41542 0.80451 0.0
C710 C 0.45039 0.41409 0.78254 0.0
C711 C 0.47496 0.42831 0.78599 0.0
C712 C 0.48065 0.44495 0.80993 0.0
C713 C 0.4425 0.40009 0.75411 0.0
C714 C 0.45777 0.37739 0.75076 0.0
C715 C 0.41998 0.40934 0.73023 0.0
C716 C 0.40315 0.43329 0.73239 0.0
C717 C 0.41516 0.45872 0.73416 0.0
C718 C 0.39916 0.48108 0.73672 0.0
C719 C 0.37109 0.47829 0.73721 0.0
C720 C 0.35894 0.45315 0.73505 0.0
C721 C 0.37486 0.43072 0.73257 0.0
H722 H 0.35874 0.49563 0.73919 0.0
H723 H 0.50797 0.27273 0.72139 0.0
H724 H 0.64319 0.68206 0.421 0.0
H725 H 0.63176 0.66209 0.37147 0.0
H726 H 0.55245 0.6401 0.39602 0.0
H727 H 0.56477 0.6586 0.44671 0.0
H728 H 0.56945 0.60118 0.37399 0.0
H729 H 0.5636 0.69469 0.33365 0.0
H730 H 0.5783 0.7421 0.32707 0.0
H731 H 0.64771 0.71903 0.28742 0.0
H732 H 0.63362 0.6714 0.29416 0.0
H733 H 0.53017 0.55712 0.22209 0.0
H734 H 0.53064 0.58875 0.26157 0.0
H735 H 0.61789 0.59765 0.2653 0.0
H736 H 0.6174 0.56599 0.22613 0.0
H737 H 0.59022 0.64641 0.26963 0.0
H738 H 0.59481 0.55089 0.3168 0.0
H739 H 0.57627 0.50483 0.32197 0.0
H740 H 0.50262 0.53521 0.34686 0.0
H741 H 0.52059 0.58152 0.34131 0.0
C742 C 0.62325 0.67312 0.41562 0.0
C743 C 0.60477 0.67198 0.43745 0.0
C744 C 0.61659 0.66189 0.38716 0.0
C745 C 0.5909 0.6501 0.37938 0.0
C746 C 0.57235 0.64912 0.40126 0.0
C747 C 0.57933 0.65974 0.43016 0.0
C748 C 0.58399 0.63769 0.34922 0.0
C749 C 0.57346 0.61144 0.3511 0.0
C750 C 0.58925 0.65078 0.31913 0.0
C751 C 0.59762 0.67945 0.31458 0.0
C752 C 0.58207 0.69971 0.32366 0.0
C753 C 0.59029 0.72662 0.3199 0.0
C754 C 0.61394 0.73357 0.30688 0.0
C755 C 0.62939 0.71362 0.2975 0.0
C756 C 0.62127 0.68666 0.30123 0.0
C757 C 0.54922 0.56655 0.23066 0.0
C758 C 0.57375 0.55931 0.22118 0.0
C759 C 0.54952 0.58445 0.25327 0.0
C760 C 0.57437 0.59531 0.26661 0.0
C761 C 0.59851 0.58955 0.2553 0.0
C762 C 0.59824 0.5715 0.23298 0.0
C763 C 0.57604 0.61008 0.29478 0.0
C764 C 0.58574 0.6366 0.29251 0.0
C765 C 0.56936 0.59756 0.32433 0.0
C766 C 0.55891 0.56965 0.32831 0.0
C767 C 0.5746 0.54774 0.32319 0.0
C768 C 0.5642 0.5216 0.3262 0.0
C769 C 0.53825 0.5171 0.33466 0.0
C770 C 0.5227 0.53873 0.34025 0.0
C771 C 0.53298 0.56491 0.33718 0.0
H772 H 0.53022 0.49686 0.33696 0.0
H773 H 0.62029 0.75441 0.30401 0.0
H774 H 0.79342 0.0644 0.88022 0.0
H775 H 0.81192 0.05238 0.83396 0.0
H776 H 0.87856 0.10721 0.8519 0.0
H777 H 0.85977 0.11995 0.89722 0.0
H778 H 0.85798 0.1133 0.7901 0.0
H779 H 0.88676 0.03821 0.8731 0.0
H780 H 0.87994 0.99986 0.91402 0.0
H781 H 0.83035 0.96076 0.84185 0.0
H782 H 0.83658 0.9991 0.80057 0.0
H783 H 0.96743 0.06325 0.72699 0.0
H784 H 0.93843 0.05963 0.76859 0.0
H785 H 0.86719 0.05198 0.69737 0.0
H786 H 0.89628 0.05608 0.65528 0.0
H787 H 0.88437 0.01916 0.78128 0.0
H788 H 0.85103 0.10073 0.70015 0.0
H789 H 0.86211 0.13872 0.66097 0.0
H790 H 0.92431 0.16432 0.73287 0.0
H791 H 0.91371 0.12624 0.77231 0.0
C792 C 0.81189 0.07404 0.87412 0.0
C793 C 0.82519 0.09305 0.89252 0.0
C794 C 0.82258 0.06696 0.84787 0.0
C795 C 0.84678 0.0787 0.83964 0.0
C796 C 0.8599 0.09783 0.85782 0.0
C797 C 0.84926 0.10492 0.88394 0.0
C798 C 0.85847 0.07159 0.81186 0.0
C799 C 0.86346 0.09264 0.78818 0.0
C800 C 0.86556 0.04465 0.80903 0.0
C801 C 0.86186 0.02165 0.83383 0.0
C802 C 0.8742 0.02155 0.86601 0.0
C803 C 0.87049 0.99979 0.88926 0.0
C804 C 0.85465 0.97793 0.88056 0.0
C805 C 0.84256 0.97774 0.84857 0.0
C806 C 0.84619 0.99946 0.82524 0.0
C807 C 0.94572 0.05978 0.72039 0.0
C808 C 0.93402 0.06005 0.68798 0.0
C809 C 0.9292 0.05771 0.74414 0.0
C810 C 0.90073 0.05572 0.73595 0.0
C811 C 0.88919 0.05344 0.70407 0.0
C812 C 0.90579 0.05562 0.68013 0.0
C813 C 0.88334 0.06079 0.75971 0.0
C814 C 0.87786 0.03958 0.78285 0.0
C815 C 0.87575 0.08752 0.76225 0.0
C816 C 0.88178 0.11062 0.73893 0.0
C817 C 0.86716 0.11441 0.70746 0.0
C818 C 0.87333 0.13594 0.68526 0.0
C819 C 0.89396 0.15388 0.69439 0.0
C820 C 0.90838 0.15038 0.72581 0.0
C821 C 0.90229 0.12885 0.74808 0.0
H822 H 0.89874 0.17052 0.67716 0.0
H823 H 0.85181 0.9611 0.89859 0.0
H824 H 0.41387 0.38428 0.34036 0.0
H825 H 0.42911 0.40878 0.29253 0.0
H826 H 0.41588 0.33794 0.24499 0.0
H827 H 0.39993 0.3135 0.29259 0.0
H828 H 0.47077 0.36734 0.24525 0.0
H829 H 0.37208 0.38029 0.21934 0.0
H830 H 0.32694 0.39353 0.2303 0.0
H831 H 0.35544 0.47391 0.23928 0.0
H832 H 0.40091 0.46099 0.22887 0.0
H833 H 0.48827 0.42487 0.0893 0.0
H834 H 0.47198 0.39975 0.13557 0.0
H835 H 0.45604 0.47481 0.16927 0.0
H836 H 0.47082 0.5001 0.1217 0.0
H837 H 0.41542 0.44269 0.17647 0.0
H838 H 0.51185 0.43352 0.20437 0.0
H839 H 0.55951 0.42336 0.19922 0.0
H840 H 0.53918 0.34044 0.19245 0.0
H841 H 0.4912 0.35019 0.19712 0.0
C842 C 0.41422 0.37398 0.31967 0.0
C843 C 0.40572 0.34706 0.32003 0.0
C844 C 0.42284 0.38797 0.29243 0.0
C845 C 0.42353 0.37513 0.26533 0.0
C846 C 0.41543 0.34814 0.26574 0.0
C847 C 0.40624 0.33429 0.29277 0.0
C848 C 0.43279 0.39003 0.23661 0.0
C849 C 0.45853 0.38351 0.2298 0.0
C850 C 0.41725 0.41182 0.21744 0.0
C851 C 0.38996 0.41959 0.22369 0.0
C852 C 0.3688 0.4007 0.22399 0.0
C853 C 0.34314 0.40817 0.23003 0.0
C854 C 0.33834 0.43452 0.23558 0.0
C855 C 0.35919 0.45349 0.23503 0.0
C856 C 0.3849 0.44611 0.22905 0.0
C857 C 0.48082 0.43604 0.10622 0.0
C858 C 0.48028 0.46445 0.10149 0.0
C859 C 0.47192 0.42164 0.133 0.0
C860 C 0.46297 0.43534 0.15615 0.0
C861 C 0.46278 0.46377 0.15172 0.0
C862 C 0.47141 0.4782 0.12466 0.0
C863 C 0.45351 0.41998 0.18472 0.0
C864 C 0.42773 0.42644 0.19166 0.0
C865 C 0.46933 0.39854 0.20449 0.0
C866 C 0.4979 0.39264 0.20081 0.0
C867 C 0.51745 0.41318 0.20142 0.0
C868 C 0.54452 0.40749 0.19867 0.0
C869 C 0.55231 0.38129 0.19556 0.0
C870 C 0.53306 0.36072 0.19491 0.0
C871 C 0.50593 0.36631 0.19762 0.0
H872 H 0.57334 0.37695 0.19393 0.0
H873 H 0.31845 0.44028 0.24022 0.0
H874 H 0.13196 0.89971 0.87479 0.0
H875 H 0.10782 0.91387 0.82026 0.0
H876 H 0.1768 0.96219 0.79878 0.0
H877 H 0.2007 0.94868 0.85389 0.0
H878 H 0.13027 0.98809 0.77207 0.0
H879 H 0.16559 0.89754 0.77529 0.0
H880 H 0.17212 0.84922 0.79738 0.0
H881 H 0.08505 0.83819 0.77907 0.0
H882 H 0.07799 0.88651 0.75723 0.0
H883 H 0.08225 0.0088 0.60493 0.0
H884 H 0.11071 0.99554 0.65738 0.0
H885 H 0.05052 0.93675 0.68223 0.0
H886 H 0.02371 0.94813 0.62835 0.0
H887 H 0.09549 0.91647 0.70689 0.0
H888 H 0.05893 0.00658 0.70669 0.0
H889 H 0.05119 0.05498 0.68547 0.0
H890 H 0.13812 0.06724 0.69933 0.0
H891 H 0.14637 0.01887 0.72027 0.0
C892 C 0.14191 0.91344 0.85845 0.0
C893 C 0.16829 0.92291 0.86843 0.0
C894 C 0.12817 0.92144 0.82725 0.0
C895 C 0.14076 0.93855 0.80509 0.0
C896 C 0.16673 0.94883 0.81536 0.0
C897 C 0.18035 0.94114 0.84681 0.0
C898 C 0.12701 0.9452 0.77113 0.0
C899 C 0.12292 0.97244 0.75766 0.0
C900 C 0.11696 0.92484 0.75245 0.0
C901 C 0.12127 0.89565 0.7648 0.0
C902 C 0.14785 0.88481 0.77606 0.0
C903 C 0.15164 0.85743 0.78855 0.0
C904 C 0.12901 0.84066 0.78967 0.0
C905 C 0.10256 0.8512 0.77819 0.0
C906 C 0.09865 0.87857 0.76571 0.0
C907 C 0.07532 0.99294 0.62168 0.0
C908 C 0.05074 0.97967 0.61309 0.0
C909 C 0.09141 0.98554 0.65178 0.0
C910 C 0.08238 0.96583 0.67453 0.0
C911 C 0.05799 0.95216 0.66541 0.0
C912 C 0.04255 0.95873 0.63474 0.0
C913 C 0.09804 0.95949 0.70782 0.0
C914 C 0.10269 0.93223 0.72118 0.0
C915 C 0.10827 0.97988 0.72652 0.0
C916 C 0.10325 0.0091 0.71482 0.0
C917 C 0.07637 0.01961 0.70516 0.0
C918 C 0.07191 0.04702 0.69315 0.0
C919 C 0.09415 0.06416 0.691 0.0
C920 C 0.12091 0.05395 0.70099 0.0
C921 C 0.1255 0.02655 0.71296 0.0
H922 H 0.09065 0.08536 0.68163 0.0
H923 H 0.13199 0.81948 0.7994 0.0
loop_
_geom_bond_atom_site_label_1
_geom_bond_atom_site_label_2
_geom_bond_distance
_geom_bond_site_symmetry_2
_ccdc_geom_bond_type
C0 C1 1.386 . S
C0 C2 1.397 . S
C0 H24 0.931 . S
C1 C0 1.386 . S
C1 C5 1.397 . S
C2 C0 1.397 . S
C2 C3 1.384 . S
C2 H25 0.930 . S
C3 C2 1.384 . S
C3 C4 1.377 . S
C3 C6 1.481 . S
C4 C3 1.377 . S
C4 C5 1.389 . S
C4 H26 0.929 . S
C5 C1 1.397 . S
C5 C4 1.389 . S
C5 H27 0.931 . S
C6 C3 1.481 . S
C6 C7 1.387 . S
C6 C11 1.390 1_556 S
C7 C6 1.387 . S
C7 C8 1.401 1_556 S
C7 H28 0.930 . S
C8 C7 1.401 1_554 S
C8 C9 1.376 . S
C8 C17 1.511 . S
C9 C8 1.376 . S
C9 C10 1.392 . S
C9 H30 0.931 . S
C10 C9 1.392 . S
C10 C11 1.361 . S
C10 C12 1.500 . S
C11 C6 1.390 1_554 S
C11 C10 1.361 . S
C11 H29 0.931 . S
C12 C10 1.500 . S
C12 C13 1.371 . S
C12 C14 1.365 . S
C13 C12 1.371 . S
C13 C23 1.386 . S
C13 H31 0.931 . S
C14 C12 1.365 . S
C14 C15 1.409 . S
C14 H32 0.929 . S
C15 C14 1.409 . S
C15 C16 1.380 . S
C15 H33 0.930 . S
C16 C15 1.380 . S
C16 C23 1.357 . S
C17 C8 1.511 . S
C17 C18 1.341 . S
C17 C19 1.371 . S
C18 C17 1.341 . S
C18 C22 1.394 . S
C18 H34 0.930 1_554 S
C19 C17 1.371 . S
C19 C20 1.392 . S
C19 H35 0.931 . S
C20 C19 1.392 . S
C20 C21 1.331 . S
C20 H38 0.932 . S
C21 C20 1.331 . S
C21 C22 1.336 . S
C22 C18 1.394 . S
C22 C21 1.336 . S
C22 H37 0.929 1_554 S
C23 C13 1.386 . S
C23 C16 1.357 . S
C23 H36 0.928 . S
H24 C0 0.931 . S
H25 C2 0.930 . S
H26 C4 0.929 . S
H27 C5 0.931 . S
H28 C7 0.930 . S
H29 C11 0.931 . S
H30 C9 0.931 . S
H31 C13 0.931 . S
H32 C14 0.929 . S
H33 C15 0.930 . S
H34 C18 0.930 1_556 S
H35 C19 0.931 . S
H36 C23 0.928 . S
H37 C22 0.929 1_556 S
H38 C20 0.932 . S
C39 C40 1.386 . S
C39 C41 1.397 . S
C39 H63 0.931 . S
C40 C39 1.386 . S
C40 C44 1.397 . S
C41 C39 1.397 . S
C41 C42 1.384 . S
C41 H64 0.930 . S
C42 C41 1.384 . S
C42 C43 1.377 . S
C42 C45 1.481 . S
C43 C42 1.377 . S
C43 C44 1.389 . S
C43 H65 0.929 . S
C44 C40 1.397 . S
C44 C43 1.389 . S
C44 H66 0.931 . S
C45 C42 1.481 . S
C45 C46 1.387 . S
C45 C50 1.390 . S
C46 C45 1.387 . S
C46 C47 1.401 . S
C46 H67 0.930 . S
C47 C46 1.401 . S
C47 C48 1.376 . S
C47 C56 1.511 . S
C48 C47 1.376 . S
C48 C49 1.392 . S
C48 H69 0.931 . S
C49 C48 1.392 . S
C49 C50 1.361 . S
C49 C51 1.500 . S
C50 C45 1.390 . S
C50 C49 1.361 . S
C50 H68 0.931 . S
C51 C49 1.500 . S
C51 C52 1.371 . S
C51 C53 1.365 . S
C52 C51 1.371 . S
C52 C62 1.386 . S
C52 H70 0.931 . S
C53 C51 1.365 . S
C53 C54 1.409 . S
C53 H71 0.929 . S
C54 C53 1.409 . S
C54 C55 1.380 . S
C54 H72 0.930 . S
C55 C54 1.380 . S
C55 C62 1.357 . S
C56 C47 1.511 . S
C56 C57 1.341 . S
C56 C58 1.371 . S
C57 C56 1.341 . S
C57 C61 1.394 . S
C57 H73 0.930 . S
C58 C56 1.371 . S
C58 C59 1.392 . S
C58 H74 0.931 . S
C59 C58 1.392 . S
C59 C60 1.331 . S
C59 H77 0.932 . S
C60 C59 1.331 . S
C60 C61 1.336 . S
C61 C57 1.394 . S
C61 C60 1.336 . S
C61 H76 0.929 . S
C62 C52 1.386 . S
C62 C55 1.357 . S
C62 H75 0.928 . S
H63 C39 0.931 . S
H64 C41 0.930 . S
H65 C43 0.929 . S
H66 C44 0.931 . S
H67 C46 0.930 . S
H68 C50 0.931 . S
H69 C48 0.931 . S
H70 C52 0.931 . S
H71 C53 0.929 . S
H72 C54 0.930 . S
H73 C57 0.930 . S
H74 C58 0.931 . S
H75 C62 0.928 . S
H76 C61 0.929 . S
H77 C59 0.932 . S
C78 C79 1.386 . S
C78 C80 1.397 . S
C78 H102 0.931 . S
C79 C78 1.386 . S
C79 C83 1.397 . S
C80 C78 1.397 . S
C80 C81 1.384 . S
C80 H103 0.930 . S
C81 C80 1.384 . S
C81 C82 1.377 . S
C81 C84 1.481 . S
C82 C81 1.377 . S
C82 C83 1.389 . S
C82 H104 0.929 . S
C83 C79 1.397 . S
C83 C82 1.389 . S
C83 H105 0.931 . S
C84 C81 1.481 . S
C84 C85 1.387 . S
C84 C89 1.390 . S
C85 C84 1.387 . S
C85 C86 1.401 . S
C85 H106 0.930 . S
C86 C85 1.401 . S
C86 C87 1.376 1_554 S
C86 C95 1.511 . S
C87 C86 1.376 1_556 S
C87 C88 1.392 . S
C87 H108 0.931 . S
C88 C87 1.392 . S
C88 C89 1.361 1_556 S
C88 C90 1.500 . S
C89 C84 1.390 . S
C89 C88 1.361 1_554 S
C89 H107 0.931 . S
C90 C88 1.500 . S
C90 C91 1.371 . S
C90 C92 1.365 . S
C91 C90 1.371 . S
C91 C101 1.386 . S
C91 H109 0.931 . S
C92 C90 1.365 . S
C92 C93 1.409 . S
C92 H110 0.929 . S
C93 C92 1.409 . S
C93 C94 1.380 . S
C93 H111 0.930 . S
C94 C93 1.380 . S
C94 C101 1.357 . S
C95 C86 1.511 . S
C95 C96 1.341 . S
C95 C97 1.371 1_554 S
C96 C95 1.341 . S
C96 C100 1.394 . S
C96 H112 0.930 . S
C97 C95 1.371 1_556 S
C97 C98 1.392 . S
C97 H113 0.931 . S
C98 C97 1.392 . S
C98 C99 1.331 1_556 S
C98 H116 0.932 . S
C99 C98 1.331 1_554 S
C99 C100 1.336 . S
C100 C96 1.394 . S
C100 C99 1.336 . S
C100 H115 0.929 . S
C101 C91 1.386 . S
C101 C94 1.357 . S
C101 H114 0.928 . S
H102 C78 0.931 . S
H103 C80 0.930 . S
H104 C82 0.929 . S
H105 C83 0.931 . S
H106 C85 0.930 . S
H107 C89 0.931 . S
H108 C87 0.931 . S
H109 C91 0.931 . S
H110 C92 0.929 . S
H111 C93 0.930 . S
H112 C96 0.930 . S
H113 C97 0.931 . S
H114 C101 0.928 . S
H115 C100 0.929 . S
H116 C98 0.932 . S
C117 C118 1.386 . S
C117 C119 1.397 . S
C117 H141 0.931 . S
C118 C117 1.386 . S
C118 C122 1.397 . S
C119 C117 1.397 . S
C119 C120 1.384 . S
C119 H142 0.930 . S
C120 C119 1.384 . S
C120 C121 1.377 . S
C120 C123 1.481 . S
C121 C120 1.377 . S
C121 C122 1.389 . S
C121 H143 0.929 . S
C122 C118 1.397 . S
C122 C121 1.389 . S
C122 H144 0.931 . S
C123 C120 1.481 . S
C123 C124 1.387 . S
C123 C128 1.390 . S
C124 C123 1.387 . S
C124 C125 1.401 . S
C124 H145 0.930 . S
C125 C124 1.401 . S
C125 C126 1.376 . S
C125 C134 1.511 . S
C126 C125 1.376 . S
C126 C127 1.392 . S
C126 H147 0.931 . S
C127 C126 1.392 . S
C127 C128 1.361 . S
C127 C129 1.500 . S
C128 C123 1.390 . S
C128 C127 1.361 . S
C128 H146 0.931 . S
C129 C127 1.500 . S
C129 C130 1.371 . S
C129 C131 1.365 . S
C130 C129 1.371 . S
C130 C140 1.386 . S
C130 H148 0.931 . S
C131 C129 1.365 . S
C131 C132 1.409 . S
C131 H149 0.929 . S
C132 C131 1.409 . S
C132 C133 1.380 . S
C132 H150 0.930 . S
C133 C132 1.380 . S
C133 C140 1.357 . S
C134 C125 1.511 . S
C134 C135 1.341 . S
C134 C136 1.371 . S
C135 C134 1.341 . S
C135 C139 1.394 . S
C135 H151 0.930 . S
C136 C134 1.371 . S
C136 C137 1.392 . S
C136 H152 0.931 . S
C137 C136 1.392 . S
C137 C138 1.331 . S
C137 H155 0.932 . S
C138 C137 1.331 . S
C138 C139 1.336 . S
C139 C135 1.394 . S
C139 C138 1.336 . S
C139 H154 0.929 . S
C140 C130 1.386 . S
C140 C133 1.357 . S
C140 H153 0.928 . S
H141 C117 0.931 . S
H142 C119 0.930 . S
H143 C121 0.929 . S
H144 C122 0.931 . S
H145 C124 0.930 . S
H146 C128 0.931 . S
H147 C126 0.931 . S
H148 C130 0.931 . S
H149 C131 0.929 . S
H150 C132 0.930 . S
H151 C135 0.930 . S
H152 C136 0.931 . S
H153 C140 0.928 . S
H154 C139 0.929 . S
H155 C137 0.932 . S
Tb156 N185 2.617 . S
Tb156 N191 2.572 . S
Tb156 O200 2.465 . S
Tb156 O201 2.387 . S
Tb156 O203 2.428 . S
Tb156 O204 2.308 1_565 S
Tb156 O208 2.349 1_455 S
Tb156 O211 2.393 1_455 S
Tb156 C220 2.802 . S
C157 N158 1.379 . S
C157 C160 1.416 . S
C157 C164 1.424 . S
N158 C157 1.379 . S
N158 C161 1.334 1_655 S
N158 Tb167 2.617 . S
C159 C161 1.390 . S
C159 C162 1.331 1_455 S
C159 H179 0.939 . S
C160 C157 1.416 . S
C160 C162 1.416 . S
C160 C166 1.448 . S
C161 N158 1.334 1_455 S
C161 C159 1.390 . S
C161 H172 0.930 . S
C162 C159 1.331 1_655 S
C162 C160 1.416 . S
C162 H183 0.930 . S
C163 C164 1.413 . S
C163 C165 1.427 . S
C163 C169 1.416 . S
C164 C157 1.424 . S
C164 C163 1.413 . S
C164 N168 1.361 . S
C165 C163 1.427 . S
C165 C166 1.328 . S
C165 H180 0.929 . S
C166 C160 1.448 . S
C166 C165 1.328 . S
C166 H181 0.930 . S
Tb167 N158 2.617 . S
Tb167 N168 2.572 . S
Tb167 O202 2.349 1_655 S
Tb167 O205 2.393 1_655 S
Tb167 O206 2.465 . S
Tb167 O207 2.387 . S
Tb167 O209 2.428 . S
Tb167 O210 2.308 1_545 S
Tb167 C231 2.802 . S
N168 C164 1.361 . S
N168 Tb167 2.572 . S
N168 C170 1.340 . S
C169 C163 1.416 . S
C169 C171 1.332 . S
C169 H177 0.931 . S
C170 N168 1.340 . S
C170 C171 1.407 . S
C170 H176 0.930 . S
C171 C169 1.332 . S
C171 C170 1.407 . S
C171 H173 0.929 . S
H172 C161 0.930 . S
H173 C171 0.929 . S
H174 C189 0.930 1_655 S
H175 C196 0.929 . S
H176 C170 0.930 . S
H177 C169 0.931 . S
H178 C192 0.930 . S
H179 C159 0.939 . S
H180 C165 0.929 . S
H181 C166 0.930 . S
H182 C187 0.930 1_655 S
H183 C162 0.930 . S
H184 C195 0.931 . S
N185 Tb156 2.617 . S
N185 C186 1.379 . S
N185 C189 1.334 . S
C186 N185 1.379 . S
C186 C188 1.416 . S
C186 C194 1.424 . S
C187 H182 0.930 1_455 S
C187 C189 1.390 . S
C187 C190 1.339 . S
C188 C186 1.416 . S
C188 C190 1.416 . S
C188 C221 1.448 . S
C189 H174 0.930 1_455 S
C189 N185 1.334 . S
C189 C187 1.390 . S
C190 C187 1.339 . S
C190 C188 1.416 . S
C190 H197 0.930 . S
N191 Tb156 2.572 . S
N191 C192 1.340 . S
N191 C194 1.361 . S
C192 H178 0.930 . S
C192 N191 1.340 . S
C192 C196 1.407 . S
C193 C194 1.413 . S
C193 C195 1.416 . S
C193 C222 1.427 . S
C194 C186 1.424 . S
C194 N191 1.361 . S
C194 C193 1.413 . S
C195 H184 0.931 . S
C195 C193 1.416 . S
C195 C196 1.332 . S
C196 H175 0.929 . S
C196 C192 1.407 . S
C196 C195 1.332 . S
H197 C190 0.930 . S
H198 C221 0.930 . S
H199 C222 0.929 . S
O200 Tb156 2.465 . S
O200 C220 1.264 . S
O201 Tb156 2.387 . S
O201 C212 1.264 . S
O202 Tb167 2.349 1_455 S
O202 C212 1.243 1_545 S
O203 Tb156 2.428 . S
O203 C220 1.256 . S
O204 Tb156 2.308 1_545 S
O204 C219 1.266 . S
O205 Tb167 2.393 1_455 S
O205 C219 1.248 . S
O206 Tb167 2.465 . S
O206 C231 1.264 . S
O207 Tb167 2.387 . S
O207 C223 1.264 . S
O208 Tb156 2.349 1_655 S
O208 C223 1.243 1_565 S
O209 Tb167 2.428 . S
O209 C231 1.256 . S
O210 Tb167 2.308 1_565 S
O210 C230 1.266 . S
O211 Tb156 2.393 1_655 S
O211 C230 1.248 . S
C212 O201 1.264 . S
C212 O202 1.243 1_565 S
C213 C216 1.399 . S
C213 C218 1.383 . S
C213 C220 1.496 . S
C214 C215 1.399 . S
C214 C218 1.389 . S
C215 C214 1.399 . S
C215 C217 1.380 . S
C215 H232 0.929 . S
C216 C213 1.399 . S
C216 C217 1.392 . S
C216 H233 0.929 . S
C217 C215 1.380 . S
C217 C216 1.392 . S
C217 H234 0.929 . S
C218 C213 1.383 . S
C218 C214 1.389 . S
C218 H235 0.931 . S
C219 O204 1.266 . S
C219 O205 1.248 . S
C220 Tb156 2.802 . S
C220 O200 1.264 . S
C220 O203 1.256 . S
C220 C213 1.496 . S
C221 C188 1.448 . S
C221 H198 0.930 . S
C221 C222 1.328 . S
C222 C193 1.427 . S
C222 H199 0.929 . S
C222 C221 1.328 . S
C223 O207 1.264 . S
C223 O208 1.243 1_545 S
C224 C227 1.399 . S
C224 C228 1.383 . S
C224 C231 1.496 . S
C225 C226 1.399 . S
C225 C228 1.389 . S
C226 C225 1.399 . S
C226 C229 1.380 . S
C226 H236 0.929 . S
C227 C224 1.399 . S
C227 C229 1.392 . S
C227 H237 0.929 . S
C228 C224 1.383 . S
C228 C225 1.389 . S
C228 H238 0.931 . S
C229 C226 1.380 . S
C229 C227 1.392 . S
C229 H239 0.929 . S
C230 O210 1.266 . S
C230 O211 1.248 . S
C231 Tb167 2.802 . S
C231 O206 1.264 . S
C231 O209 1.256 . S
C231 C224 1.496 . S
H232 C215 0.929 . S
H233 C216 0.929 . S
H234 C217 0.929 . S
H235 C218 0.931 . S
H236 C226 0.929 . S
H237 C227 0.929 . S
H238 C228 0.931 . S
H239 C229 0.929 . S
Tb240 N269 2.617 . S
Tb240 N275 2.572 1_556 S
Tb240 O284 2.465 . S
Tb240 O285 2.387 1_556 S
Tb240 O287 2.428 . S
Tb240 O288 2.308 1_556 S
Tb240 O292 2.349 . S
Tb240 O295 2.393 . S
Tb240 C304 2.802 . S
C241 N242 1.379 . S
C241 C244 1.416 . S
C241 C248 1.424 . S
N242 C241 1.379 . S
N242 C245 1.334 . S
N242 Tb251 2.617 . S
C243 C245 1.390 . S
C243 C246 1.339 . S
C243 H263 0.930 . S
C244 C241 1.416 . S
C244 C246 1.416 . S
C244 C250 1.448 . S
C245 N242 1.334 . S
C245 C243 1.390 . S
C245 H256 0.930 . S
C246 C243 1.339 . S
C246 C244 1.416 . S
C246 H267 0.930 . S
C247 C248 1.413 . S
C247 C249 1.427 . S
C247 C253 1.416 . S
C248 C241 1.424 . S
C248 C247 1.413 . S
C248 N252 1.361 . S
C249 C247 1.427 . S
C249 C250 1.328 . S
C249 H264 0.929 . S
C250 C244 1.448 . S
C250 C249 1.328 . S
C250 H265 0.930 . S
Tb251 N242 2.617 . S
Tb251 N252 2.572 . S
Tb251 O286 2.349 . S
Tb251 O289 2.393 . S
Tb251 O290 2.465 . S
Tb251 O291 2.387 1_554 S
Tb251 O293 2.428 . S
Tb251 O294 2.308 . S
Tb251 C315 2.802 . S
N252 C248 1.361 . S
N252 Tb251 2.572 . S
N252 C254 1.340 . S
C253 C247 1.416 . S
C253 C255 1.332 . S
C253 H261 0.931 . S
C254 N252 1.340 . S
C254 C255 1.407 . S
C254 H260 0.930 . S
C255 C253 1.332 . S
C255 C254 1.407 . S
C255 H257 0.929 . S
H256 C245 0.930 . S
H257 C255 0.929 . S
H258 C273 0.930 . S
H259 C280 0.929 . S
H260 C254 0.930 . S
H261 C253 0.931 . S
H262 C276 0.930 . S
H263 C243 0.930 . S
H264 C249 0.929 . S
H265 C250 0.930 . S
H266 C271 0.930 . S
H267 C246 0.930 . S
H268 C279 0.931 . S
N269 Tb240 2.617 . S
N269 C270 1.379 1_556 S
N269 C273 1.334 . S
C270 N269 1.379 1_554 S
C270 C272 1.416 . S
C270 C278 1.424 . S
C271 H266 0.930 . S
C271 C273 1.390 . S
C271 C274 1.339 1_556 S
C272 C270 1.416 . S
C272 C274 1.416 . S
C272 C305 1.448 . S
C273 H258 0.930 . S
C273 N269 1.334 . S
C273 C271 1.390 . S
C274 C271 1.339 1_554 S
C274 C272 1.416 . S
C274 H281 0.930 . S
N275 Tb240 2.572 1_554 S
N275 C276 1.340 . S
N275 C278 1.361 . S
C276 H262 0.930 . S
C276 N275 1.340 . S
C276 C280 1.407 . S
C277 C278 1.413 . S
C277 C279 1.416 . S
C277 C306 1.427 . S
C278 C270 1.424 . S
C278 N275 1.361 . S
C278 C277 1.413 . S
C279 H268 0.931 . S
C279 C277 1.416 . S
C279 C280 1.332 . S
C280 H259 0.929 . S
C280 C276 1.407 . S
C280 C279 1.332 . S
H281 C274 0.930 . S
H282 C305 0.930 . S
H283 C306 0.929 . S
O284 Tb240 2.465 . S
O284 C304 1.264 . S
O285 Tb240 2.387 1_554 S
O285 C296 1.264 . S
O286 Tb251 2.349 . S
O286 C296 1.243 . S
O287 Tb240 2.428 . S
O287 C304 1.256 . S
O288 Tb240 2.308 1_554 S
O288 C303 1.266 . S
O289 Tb251 2.393 . S
O289 C303 1.248 . S
O290 Tb251 2.465 . S
O290 C315 1.264 . S
O291 Tb251 2.387 1_556 S
O291 C307 1.264 . S
O292 Tb240 2.349 . S
O292 C307 1.243 . S
O293 Tb251 2.428 . S
O293 C315 1.256 . S
O294 Tb251 2.308 . S
O294 C314 1.266 . S
O295 Tb240 2.393 . S
O295 C314 1.248 1_556 S
C296 O285 1.264 . S
C296 O286 1.243 . S
C297 C300 1.399 . S
C297 C302 1.383 . S
C297 C304 1.496 . S
C298 C299 1.399 . S
C298 C302 1.389 . S
C299 C298 1.399 . S
C299 C301 1.380 . S
C299 H316 0.929 . S
C300 C297 1.399 . S
C300 C301 1.392 . S
C300 H317 0.929 . S
C301 C299 1.380 . S
C301 C300 1.392 . S
C301 H318 0.929 . S
C302 C297 1.383 . S
C302 C298 1.389 . S
C302 H319 0.931 . S
C303 O288 1.266 . S
C303 O289 1.248 . S
C304 Tb240 2.802 . S
C304 O284 1.264 . S
C304 O287 1.256 . S
C304 C297 1.496 . S
C305 C272 1.448 . S
C305 H282 0.930 . S
C305 C306 1.328 . S
C306 C277 1.427 . S
C306 H283 0.929 . S
C306 C305 1.328 . S
C307 O291 1.264 . S
C307 O292 1.243 . S
C308 C311 1.399 . S
C308 C312 1.383 . S
C308 C315 1.496 . S
C309 C310 1.399 . S
C309 C312 1.389 . S
C310 C309 1.399 . S
C310 C313 1.380 . S
C310 H320 0.929 . S
C311 C308 1.399 . S
C311 C313 1.392 . S
C311 H321 0.929 . S
C312 C308 1.383 . S
C312 C309 1.389 . S
C312 H322 0.931 . S
C313 C310 1.380 . S
C313 C311 1.392 . S
C313 H323 0.929 . S
C314 O294 1.266 . S
C314 O295 1.248 1_554 S
C315 Tb251 2.802 . S
C315 O290 1.264 . S
C315 O293 1.256 . S
C315 C308 1.496 . S
H316 C299 0.929 . S
H317 C300 0.929 . S
H318 C301 0.929 . S
H319 C302 0.931 . S
H320 C310 0.929 . S
H321 C311 0.929 . S
H322 C312 0.931 . S
H323 C313 0.929 . S
H324 C342 0.951 . S
H325 C344 0.951 . S
H326 C346 0.950 . S
H327 C347 0.950 . S
H328 C349 0.950 . S
H329 C352 0.950 . S
H330 C353 0.950 . S
H331 C355 0.950 . S
H332 C356 0.950 . S
H333 C357 0.951 . S
H334 C359 0.951 . S
H335 C361 0.950 . S
H336 C362 0.950 . S
H337 C364 0.950 . S
H338 C367 0.950 . S
H339 C368 0.950 . S
H340 C370 0.950 . S
H341 C371 0.950 . S
C342 H324 0.951 . S
C342 C343 1.366 . S
C342 C344 1.388 . S
C343 C342 1.366 . S
C343 C347 1.385 . S
C344 H325 0.951 . S
C344 C342 1.388 . S
C344 C345 1.366 . S
C345 C344 1.366 . S
C345 C346 1.414 . S
C345 C348 1.499 . S
C346 H326 0.950 . S
C346 C345 1.414 . S
C346 C347 1.374 . S
C347 H327 0.950 . S
C347 C343 1.385 . S
C347 C346 1.374 . S
C348 C345 1.499 . S
C348 C349 1.373 . S
C348 C350 1.389 . S
C349 H328 0.950 . S
C349 C348 1.373 . S
C349 C365 1.377 . S
C350 C348 1.389 . S
C350 C351 1.524 . S
C350 C364 1.377 . S
C351 C350 1.524 . S
C351 C352 1.397 . S
C351 C356 1.363 . S
C352 H329 0.950 . S
C352 C351 1.397 . S
C352 C353 1.334 . S
C353 H330 0.950 . S
C353 C352 1.334 . S
C353 C354 1.287 . S
C354 C353 1.287 . S
C354 C355 1.524 . S
C354 H373 0.913 . S
C355 H331 0.950 . S
C355 C354 1.524 . S
C355 C356 1.415 . S
C356 H332 0.950 . S
C356 C351 1.363 . S
C356 C355 1.415 . S
C357 H333 0.951 . S
C357 C358 1.366 . S
C357 C359 1.388 . S
C358 C357 1.366 . S
C358 C362 1.385 . S
C359 H334 0.951 . S
C359 C357 1.388 . S
C359 C360 1.366 . S
C360 C359 1.366 . S
C360 C361 1.414 . S
C360 C363 1.499 . S
C361 H335 0.950 . S
C361 C360 1.414 . S
C361 C362 1.374 . S
C362 H336 0.950 . S
C362 C358 1.385 . S
C362 C361 1.374 . S
C363 C360 1.499 . S
C363 C364 1.373 . S
C363 C365 1.389 . S
C364 H337 0.950 . S
C364 C350 1.377 . S
C364 C363 1.373 . S
C365 C349 1.377 . S
C365 C363 1.389 . S
C365 C366 1.524 . S
C366 C365 1.524 . S
C366 C367 1.397 . S
C366 C371 1.363 . S
C367 H338 0.950 . S
C367 C366 1.397 . S
C367 C368 1.334 . S
C368 H339 0.950 . S
C368 C367 1.334 . S
C368 C369 1.287 . S
C369 C368 1.287 . S
C369 C370 1.524 . S
C369 H372 0.999 . S
C370 H340 0.950 . S
C370 C369 1.524 . S
C370 C371 1.415 . S
C371 H341 0.950 . S
C371 C366 1.363 . S
C371 C370 1.415 . S
H372 C369 0.999 . S
H373 C354 0.913 . S
H374 C392 0.951 . S
H375 C394 0.951 . S
H376 C396 0.950 . S
H377 C397 0.950 . S
H378 C399 0.950 1_556 S
H379 C402 0.950 . S
H380 C403 0.950 . S
H381 C405 0.950 . S
H382 C406 0.950 . S
H383 C407 0.951 . S
H384 C409 0.951 . S
H385 C411 0.950 . S
H386 C412 0.950 . S
H387 C414 0.950 . S
H388 C417 0.950 . S
H389 C418 0.950 . S
H390 C420 0.950 . S
H391 C421 0.950 . S
C392 H374 0.951 . S
C392 C393 1.366 . S
C392 C394 1.388 . S
C393 C392 1.366 . S
C393 C397 1.385 . S
C394 H375 0.951 . S
C394 C392 1.388 . S
C394 C395 1.366 . S
C395 C394 1.366 . S
C395 C396 1.414 . S
C395 C398 1.499 . S
C396 H376 0.950 . S
C396 C395 1.414 . S
C396 C397 1.374 . S
C397 H377 0.950 . S
C397 C393 1.385 . S
C397 C396 1.374 . S
C398 C395 1.499 . S
C398 C399 1.373 . S
C398 C400 1.389 . S
C399 H378 0.950 1_554 S
C399 C398 1.373 . S
C399 C415 1.377 . S
C400 C398 1.389 . S
C400 C401 1.524 . S
C400 C414 1.377 . S
C401 C400 1.524 . S
C401 C402 1.397 . S
C401 C406 1.363 . S
C402 H379 0.950 . S
C402 C401 1.397 . S
C402 C403 1.334 . S
C403 H380 0.950 . S
C403 C402 1.334 . S
C403 C404 1.287 . S
C404 C403 1.287 . S
C404 C405 1.524 . S
C404 H423 0.913 . S
C405 H381 0.950 . S
C405 C404 1.524 . S
C405 C406 1.415 . S
C406 H382 0.950 . S
C406 C401 1.363 . S
C406 C405 1.415 . S
C407 H383 0.951 . S
C407 C408 1.366 . S
C407 C409 1.388 . S
C408 C407 1.366 . S
C408 C412 1.385 . S
C409 H384 0.951 . S
C409 C407 1.388 . S
C409 C410 1.366 . S
C410 C409 1.366 . S
C410 C411 1.414 . S
C410 C413 1.499 . S
C411 H385 0.950 . S
C411 C410 1.414 . S
C411 C412 1.374 . S
C412 H386 0.950 . S
C412 C408 1.385 . S
C412 C411 1.374 . S
C413 C410 1.499 . S
C413 C414 1.373 . S
C413 C415 1.389 . S
C414 H387 0.950 . S
C414 C400 1.377 . S
C414 C413 1.373 . S
C415 C399 1.377 . S
C415 C413 1.389 . S
C415 C416 1.524 1_554 S
C416 C415 1.524 1_556 S
C416 C417 1.397 . S
C416 C421 1.363 . S
C417 H388 0.950 . S
C417 C416 1.397 . S
C417 C418 1.334 . S
C418 H389 0.950 . S
C418 C417 1.334 . S
C418 C419 1.287 . S
C419 C418 1.287 . S
C419 C420 1.524 . S
C419 H422 0.999 . S
C420 H390 0.950 . S
C420 C419 1.524 . S
C420 C421 1.415 . S
C421 H391 0.950 . S
C421 C416 1.363 . S
C421 C420 1.415 . S
H422 C419 0.999 . S
H423 C404 0.913 . S
H424 C442 0.951 . S
H425 C444 0.951 . S
H426 C446 0.950 . S
H427 C447 0.950 . S
H428 C449 0.950 . S
H429 C452 0.950 . S
H430 C453 0.950 . S
H431 C455 0.950 . S
H432 C456 0.950 . S
H433 C457 0.951 . S
H434 C459 0.951 . S
H435 C461 0.950 . S
H436 C462 0.950 . S
H437 C464 0.950 . S
H438 C467 0.950 . S
H439 C468 0.950 . S
H440 C470 0.950 . S
H441 C471 0.950 . S
C442 H424 0.951 . S
C442 C443 1.366 . S
C442 C444 1.388 . S
C443 C442 1.366 . S
C443 C447 1.385 . S
C444 H425 0.951 . S
C444 C442 1.388 . S
C444 C445 1.366 . S
C445 C444 1.366 . S
C445 C446 1.414 . S
C445 C448 1.499 . S
C446 H426 0.950 . S
C446 C445 1.414 . S
C446 C447 1.374 . S
C447 H427 0.950 . S
C447 C443 1.385 . S
C447 C446 1.374 . S
C448 C445 1.499 . S
C448 C449 1.373 . S
C448 C450 1.389 . S
C449 H428 0.950 . S
C449 C448 1.373 . S
C449 C465 1.377 . S
C450 C448 1.389 . S
C450 C451 1.524 . S
C450 C464 1.377 . S
C451 C450 1.524 . S
C451 C452 1.397 . S
C451 C456 1.363 . S
C452 H429 0.950 . S
C452 C451 1.397 . S
C452 C453 1.334 . S
C453 H430 0.950 . S
C453 C452 1.334 . S
C453 C454 1.287 . S
C454 C453 1.287 . S
C454 C455 1.524 . S
C454 H473 0.913 . S
C455 H431 0.950 . S
C455 C454 1.524 . S
C455 C456 1.415 . S
C456 H432 0.950 . S
C456 C451 1.363 . S
C456 C455 1.415 . S
C457 H433 0.951 . S
C457 C458 1.366 . S
C457 C459 1.388 . S
C458 C457 1.366 . S
C458 C462 1.385 . S
C459 H434 0.951 . S
C459 C457 1.388 . S
C459 C460 1.366 . S
C460 C459 1.366 . S
C460 C461 1.414 . S
C460 C463 1.499 . S
C461 H435 0.950 . S
C461 C460 1.414 . S
C461 C462 1.374 . S
C462 H436 0.950 . S
C462 C458 1.385 . S
C462 C461 1.374 . S
C463 C460 1.499 . S
C463 C464 1.373 . S
C463 C465 1.389 . S
C464 H437 0.950 . S
C464 C450 1.377 . S
C464 C463 1.373 . S
C465 C449 1.377 . S
C465 C463 1.389 . S
C465 C466 1.524 . S
C466 C465 1.524 . S
C466 C467 1.397 . S
C466 C471 1.363 . S
C467 H438 0.950 . S
C467 C466 1.397 . S
C467 C468 1.334 . S
C468 H439 0.950 . S
C468 C467 1.334 . S
C468 C469 1.287 . S
C469 C468 1.287 . S
C469 C470 1.524 . S
C469 H472 0.999 . S
C470 H440 0.950 . S
C470 C469 1.524 . S
C470 C471 1.415 . S
C471 H441 0.950 . S
C471 C466 1.363 . S
C471 C470 1.415 . S
H472 C469 0.999 . S
H473 C454 0.913 . S
H474 C492 0.951 . S
H475 C494 0.951 . S
H476 C496 0.950 . S
H477 C497 0.950 . S
H478 C499 0.950 . S
H479 C502 0.950 . S
H480 C503 0.950 . S
H481 C505 0.950 . S
H482 C506 0.950 . S
H483 C507 0.951 . S
H484 C509 0.951 . S
H485 C511 0.933 1_556 S
H486 C512 0.950 1_556 S
H487 C514 0.950 . S
H488 C517 0.950 . S
H489 C518 0.950 . S
H490 C520 0.950 . S
H491 C521 0.950 . S
C492 H474 0.951 . S
C492 C493 1.366 1_556 S
C492 C494 1.388 . S
C493 C492 1.366 1_554 S
C493 C497 1.385 . S
C494 H475 0.951 . S
C494 C492 1.388 . S
C494 C495 1.366 1_556 S
C495 C494 1.366 1_554 S
C495 C496 1.414 . S
C495 C498 1.499 . S
C496 H476 0.950 . S
C496 C495 1.414 . S
C496 C497 1.374 . S
C497 H477 0.950 . S
C497 C493 1.385 . S
C497 C496 1.374 . S
C498 C495 1.499 . S
C498 C499 1.373 . S
C498 C500 1.389 1_554 S
C499 H478 0.950 . S
C499 C498 1.373 . S
C499 C515 1.377 . S
C500 C498 1.389 1_556 S
C500 C501 1.524 . S
C500 C514 1.377 . S
C501 C500 1.524 . S
C501 C502 1.397 . S
C501 C506 1.363 . S
C502 H479 0.950 . S
C502 C501 1.397 . S
C502 C503 1.334 . S
C503 H480 0.950 . S
C503 C502 1.334 . S
C503 C504 1.287 . S
C504 C503 1.287 . S
C504 C505 1.524 . S
C504 H523 0.913 . S
C505 H481 0.950 . S
C505 C504 1.524 . S
C505 C506 1.415 . S
C506 H482 0.950 . S
C506 C501 1.363 . S
C506 C505 1.415 . S
C507 H483 0.951 . S
C507 C508 1.366 . S
C507 C509 1.388 . S
C508 C507 1.366 . S
C508 C512 1.385 . S
C509 H484 0.951 . S
C509 C507 1.388 . S
C509 C510 1.366 . S
C510 C509 1.366 . S
C510 C511 1.424 . S
C510 C513 1.499 . S
C511 H485 0.933 1_554 S
C511 C510 1.424 . S
C511 C512 1.382 . S
C512 H486 0.950 1_554 S
C512 C508 1.385 . S
C512 C511 1.382 . S
C513 C510 1.499 . S
C513 C514 1.373 1_554 S
C513 C515 1.389 . S
C514 H487 0.950 . S
C514 C500 1.377 . S
C514 C513 1.373 1_556 S
C515 C499 1.377 . S
C515 C513 1.389 . S
C515 C516 1.524 . S
C516 C515 1.524 . S
C516 C517 1.397 . S
C516 C521 1.363 . S
C517 H488 0.950 . S
C517 C516 1.397 . S
C517 C518 1.334 . S
C518 H489 0.950 . S
C518 C517 1.334 . S
C518 C519 1.287 . S
C519 C518 1.287 . S
C519 C520 1.524 . S
C519 H522 0.999 . S
C520 H490 0.950 . S
C520 C519 1.524 . S
C520 C521 1.415 . S
C521 H491 0.950 . S
C521 C516 1.363 . S
C521 C520 1.415 . S
H522 C519 0.999 . S
H523 C504 0.913 . S
H524 C542 0.951 . S
H525 C544 0.951 . S
H526 C546 0.950 . S
H527 C547 0.950 . S
H528 C549 0.950 . S
H529 C552 0.950 . S
H530 C553 0.950 . S
H531 C555 0.950 . S
H532 C556 0.951 1_545 S
H533 C557 0.951 . S
H534 C559 0.951 . S
H535 C561 0.950 . S
H536 C562 0.960 . S
H537 C564 0.950 . S
H538 C567 0.950 . S
H539 C568 0.950 . S
H540 C570 0.950 . S
H541 C571 0.950 . S
C542 H524 0.951 . S
C542 C543 1.366 . S
C542 C544 1.388 . S
C543 C542 1.366 . S
C543 C547 1.385 . S
C544 H525 0.951 . S
C544 C542 1.388 . S
C544 C545 1.366 . S
C545 C544 1.366 . S
C545 C546 1.414 . S
C545 C548 1.499 . S
C546 H526 0.950 . S
C546 C545 1.414 . S
C546 C547 1.374 . S
C547 H527 0.950 . S
C547 C543 1.385 . S
C547 C546 1.374 . S
C548 C545 1.499 . S
C548 C549 1.373 . S
C548 C550 1.389 . S
C549 H528 0.950 . S
C549 C548 1.373 . S
C549 C565 1.377 . S
C550 C548 1.389 . S
C550 C551 1.524 . S
C550 C564 1.377 . S
C551 C550 1.524 . S
C551 C552 1.397 . S
C551 C556 1.363 . S
C552 H529 0.950 . S
C552 C551 1.397 . S
C552 C553 1.334 . S
C553 H530 0.950 . S
C553 C552 1.334 . S
C553 C554 1.258 1_565 S
C554 C553 1.258 1_545 S
C554 C555 1.540 . S
C554 H573 0.929 . S
C555 H531 0.950 . S
C555 C554 1.540 . S
C555 C556 1.415 1_545 S
C556 H532 0.951 1_565 S
C556 C551 1.363 . S
C556 C555 1.415 1_565 S
C557 H533 0.951 . S
C557 C558 1.366 . S
C557 C559 1.388 . S
C558 C557 1.366 . S
C558 C562 1.385 . S
C559 H534 0.951 . S
C559 C557 1.388 . S
C559 C560 1.366 . S
C560 C559 1.366 . S
C560 C561 1.414 . S
C560 C563 1.499 . S
C561 H535 0.950 . S
C561 C560 1.414 . S
C561 C562 1.374 . S
C562 H536 0.960 . S
C562 C558 1.385 . S
C562 C561 1.374 . S
C563 C560 1.499 . S
C563 C564 1.373 . S
C563 C565 1.389 . S
C564 H537 0.950 . S
C564 C550 1.377 . S
C564 C563 1.373 . S
C565 C549 1.377 . S
C565 C563 1.389 . S
C565 C566 1.524 . S
C566 C565 1.524 . S
C566 C567 1.397 . S
C566 C571 1.363 . S
C567 H538 0.950 . S
C567 C566 1.397 . S
C567 C568 1.334 . S
C568 H539 0.950 . S
C568 C567 1.334 . S
C568 C569 1.287 . S
C569 C568 1.287 . S
C569 C570 1.524 . S
C569 H572 0.999 . S
C570 H540 0.950 . S
C570 C569 1.524 . S
C570 C571 1.415 . S
C571 H541 0.950 . S
C571 C566 1.363 . S
C571 C570 1.415 . S
H572 C569 0.999 . S
H573 C554 0.929 . S
H574 C592 0.951 . S
H575 C594 0.951 . S
H576 C596 0.950 . S
H577 C597 0.950 . S
H578 C599 0.950 . S
H579 C602 0.950 . S
H580 C603 0.950 . S
H581 C605 0.950 . S
H582 C606 0.950 . S
H583 C607 0.951 . S
H584 C609 0.951 . S
H585 C611 0.950 . S
H586 C612 0.950 . S
H587 C614 0.950 . S
H588 C617 0.950 . S
H589 C618 0.950 . S
H590 C620 0.950 . S
H591 C621 0.950 . S
C592 H574 0.951 . S
C592 C593 1.366 . S
C592 C594 1.388 . S
C593 C592 1.366 . S
C593 C597 1.385 . S
C594 H575 0.951 . S
C594 C592 1.388 . S
C594 C595 1.366 . S
C595 C594 1.366 . S
C595 C596 1.414 . S
C595 C598 1.499 . S
C596 H576 0.950 . S
C596 C595 1.414 . S
C596 C597 1.374 . S
C597 H577 0.950 . S
C597 C593 1.385 . S
C597 C596 1.374 . S
C598 C595 1.499 . S
C598 C599 1.373 . S
C598 C600 1.389 . S
C599 H578 0.950 . S
C599 C598 1.373 . S
C599 C615 1.377 . S
C600 C598 1.389 . S
C600 C601 1.524 . S
C600 C614 1.377 . S
C601 C600 1.524 . S
C601 C602 1.397 . S
C601 C606 1.363 . S
C602 H579 0.950 . S
C602 C601 1.397 . S
C602 C603 1.334 . S
C603 H580 0.950 . S
C603 C602 1.334 . S
C603 C604 1.287 . S
C604 C603 1.287 . S
C604 C605 1.524 . S
C604 H623 0.913 . S
C605 H581 0.950 . S
C605 C604 1.524 . S
C605 C606 1.415 . S
C606 H582 0.950 . S
C606 C601 1.363 . S
C606 C605 1.415 . S
C607 H583 0.951 . S
C607 C608 1.366 . S
C607 C609 1.388 . S
C608 C607 1.366 . S
C608 C612 1.385 . S
C609 H584 0.951 . S
C609 C607 1.388 . S
C609 C610 1.366 . S
C610 C609 1.366 . S
C610 C611 1.414 . S
C610 C613 1.499 . S
C611 H585 0.950 . S
C611 C610 1.414 . S
C611 C612 1.374 . S
C612 H586 0.950 . S
C612 C608 1.385 . S
C612 C611 1.374 . S
C613 C610 1.499 . S
C613 C614 1.373 . S
C613 C615 1.389 . S
C614 H587 0.950 . S
C614 C600 1.377 . S
C614 C613 1.373 . S
C615 C599 1.377 . S
C615 C613 1.389 . S
C615 C616 1.524 . S
C616 C615 1.524 . S
C616 C617 1.397 . S
C616 C621 1.363 . S
C617 H588 0.950 . S
C617 C616 1.397 . S
C617 C618 1.334 . S
C618 H589 0.950 . S
C618 C617 1.334 . S
C618 C619 1.287 . S
C619 C618 1.287 . S
C619 C620 1.524 . S
C619 H622 0.999 . S
C620 H590 0.950 . S
C620 C619 1.524 . S
C620 C621 1.415 . S
C621 H591 0.950 . S
C621 C616 1.363 . S
C621 C620 1.415 . S
H622 C619 0.999 . S
H623 C604 0.913 . S
H624 C642 0.951 . S
H625 C644 0.951 . S
H626 C646 0.950 . S
H627 C647 0.950 . S
H628 C649 0.950 . S
H629 C652 0.950 . S
H630 C653 0.950 . S
H631 C655 0.950 . S
H632 C656 0.950 . S
H633 C657 0.951 . S
H634 C659 0.951 . S
H635 C661 0.950 . S
H636 C662 0.960 . S
H637 C664 0.950 . S
H638 C667 0.950 1_565 S
H639 C668 0.950 . S
H640 C670 0.950 1_455 S
H641 C671 0.950 . S
C642 H624 0.951 . S
C642 C643 1.366 . S
C642 C644 1.388 . S
C643 C642 1.366 . S
C643 C647 1.385 . S
C644 H625 0.951 . S
C644 C642 1.388 . S
C644 C645 1.366 . S
C645 C644 1.366 . S
C645 C646 1.414 . S
C645 C648 1.499 . S
C646 H626 0.950 . S
C646 C645 1.414 . S
C646 C647 1.374 . S
C647 H627 0.950 . S
C647 C643 1.385 . S
C647 C646 1.374 . S
C648 C645 1.499 . S
C648 C649 1.373 . S
C648 C650 1.389 . S
C649 H628 0.950 . S
C649 C648 1.373 . S
C649 C665 1.377 . S
C650 C648 1.389 . S
C650 C651 1.524 . S
C650 C664 1.377 . S
C651 C650 1.524 . S
C651 C652 1.397 . S
C651 C656 1.363 . S
C652 H629 0.950 . S
C652 C651 1.397 . S
C652 C653 1.334 . S
C653 H630 0.950 . S
C653 C652 1.334 . S
C653 C654 1.287 . S
C654 C653 1.287 . S
C654 C655 1.524 . S
C654 H673 0.913 . S
C655 H631 0.950 . S
C655 C654 1.524 . S
C655 C656 1.415 . S
C656 H632 0.950 . S
C656 C651 1.363 . S
C656 C655 1.415 . S
C657 H633 0.951 . S
C657 C658 1.366 . S
C657 C659 1.388 . S
C658 C657 1.366 . S
C658 C662 1.385 . S
C659 H634 0.951 . S
C659 C657 1.388 . S
C659 C660 1.366 . S
C660 C659 1.366 . S
C660 C661 1.414 . S
C660 C663 1.499 . S
C661 H635 0.950 . S
C661 C660 1.414 . S
C661 C662 1.374 . S
C662 H636 0.960 . S
C662 C658 1.385 . S
C662 C661 1.374 . S
C663 C660 1.499 . S
C663 C664 1.373 . S
C663 C665 1.389 . S
C664 H637 0.950 . S
C664 C650 1.377 . S
C664 C663 1.373 . S
C665 C649 1.377 . S
C665 C663 1.389 . S
C665 C666 1.524 . S
C666 C665 1.524 . S
C666 C667 1.397 . S
C666 C671 1.363 . S
C667 H638 0.950 1_545 S
C667 C666 1.397 . S
C667 C668 1.334 1_545 S
C668 H639 0.950 . S
C668 C667 1.334 1_565 S
C668 C669 1.287 1_665 S
C669 C668 1.287 1_445 S
C669 C670 1.524 1_455 S
C669 H672 0.999 . S
C670 H640 0.950 1_655 S
C670 C669 1.524 1_655 S
C670 C671 1.415 . S
C671 H641 0.950 . S
C671 C666 1.363 . S
C671 C670 1.415 . S
H672 C669 0.999 . S
H673 C654 0.913 . S
H674 C692 0.951 . S
H675 C694 0.951 . S
H676 C696 0.950 . S
H677 C697 0.950 . S
H678 C699 0.950 . S
H679 C702 0.950 . S
H680 C703 0.950 . S
H681 C705 0.950 . S
H682 C706 0.950 . S
H683 C707 0.951 . S
H684 C709 0.951 . S
H685 C711 0.950 . S
H686 C712 0.950 . S
H687 C714 0.950 . S
H688 C717 0.950 . S
H689 C718 0.950 . S
H690 C720 0.950 . S
H691 C721 0.950 . S
C692 H674 0.951 . S
C692 C693 1.366 . S
C692 C694 1.388 . S
C693 C692 1.366 . S
C693 C697 1.385 . S
C694 H675 0.951 . S
C694 C692 1.388 . S
C694 C695 1.366 . S
C695 C694 1.366 . S
C695 C696 1.414 . S
C695 C698 1.499 . S
C696 H676 0.950 . S
C696 C695 1.414 . S
C696 C697 1.374 . S
C697 H677 0.950 . S
C697 C693 1.385 . S
C697 C696 1.374 . S
C698 C695 1.499 . S
C698 C699 1.373 . S
C698 C700 1.389 . S
C699 H678 0.950 . S
C699 C698 1.373 . S
C699 C715 1.377 . S
C700 C698 1.389 . S
C700 C701 1.524 . S
C700 C714 1.377 . S
C701 C700 1.524 . S
C701 C702 1.397 . S
C701 C706 1.363 . S
C702 H679 0.950 . S
C702 C701 1.397 . S
C702 C703 1.334 . S
C703 H680 0.950 . S
C703 C702 1.334 . S
C703 C704 1.287 . S
C704 C703 1.287 . S
C704 C705 1.524 . S
C704 H723 0.913 . S
C705 H681 0.950 . S
C705 C704 1.524 . S
C705 C706 1.415 . S
C706 H682 0.950 . S
C706 C701 1.363 . S
C706 C705 1.415 . S
C707 H683 0.951 . S
C707 C708 1.366 . S
C707 C709 1.388 . S
C708 C707 1.366 . S
C708 C712 1.385 . S
C709 H684 0.951 . S
C709 C707 1.388 . S
C709 C710 1.366 . S
C710 C709 1.366 . S
C710 C711 1.414 . S
C710 C713 1.499 . S
C711 H685 0.950 . S
C711 C710 1.414 . S
C711 C712 1.374 . S
C712 H686 0.950 . S
C712 C708 1.385 . S
C712 C711 1.374 . S
C713 C710 1.499 . S
C713 C714 1.373 . S
C713 C715 1.389 . S
C714 H687 0.950 . S
C714 C700 1.377 . S
C714 C713 1.373 . S
C715 C699 1.377 . S
C715 C713 1.389 . S
C715 C716 1.524 . S
C716 C715 1.524 . S
C716 C717 1.397 . S
C716 C721 1.363 . S
C717 H688 0.950 . S
C717 C716 1.397 . S
C717 C718 1.334 . S
C718 H689 0.950 . S
C718 C717 1.334 . S
C718 C719 1.287 . S
C719 C718 1.287 . S
C719 C720 1.524 . S
C719 H722 0.999 . S
C720 H690 0.950 . S
C720 C719 1.524 . S
C720 C721 1.415 . S
C721 H691 0.950 . S
C721 C716 1.363 . S
C721 C720 1.415 . S
H722 C719 0.999 . S
H723 C704 0.913 . S
H724 C742 0.951 . S
H725 C744 0.951 . S
H726 C746 0.950 . S
H727 C747 0.950 . S
H728 C749 0.950 . S
H729 C752 0.950 . S
H730 C753 0.950 . S
H731 C755 0.950 . S
H732 C756 0.950 . S
H733 C757 0.951 . S
H734 C759 0.951 . S
H735 C761 0.950 . S
H736 C762 0.950 . S
H737 C764 0.950 . S
H738 C767 0.950 . S
H739 C768 0.950 . S
H740 C770 0.950 . S
H741 C771 0.950 . S
C742 H724 0.951 . S
C742 C743 1.366 . S
C742 C744 1.388 . S
C743 C742 1.366 . S
C743 C747 1.385 . S
C744 H725 0.951 . S
C744 C742 1.388 . S
C744 C745 1.366 . S
C745 C744 1.366 . S
C745 C746 1.414 . S
C745 C748 1.499 . S
C746 H726 0.950 . S
C746 C745 1.414 . S
C746 C747 1.374 . S
C747 H727 0.950 . S
C747 C743 1.385 . S
C747 C746 1.374 . S
C748 C745 1.499 . S
C748 C749 1.373 . S
C748 C750 1.389 . S
C749 H728 0.950 . S
C749 C748 1.373 . S
C749 C765 1.377 . S
C750 C748 1.389 . S
C750 C751 1.524 . S
C750 C764 1.377 . S
C751 C750 1.524 . S
C751 C752 1.397 . S
C751 C756 1.363 . S
C752 H729 0.950 . S
C752 C751 1.397 . S
C752 C753 1.334 . S
C753 H730 0.950 . S
C753 C752 1.334 . S
C753 C754 1.287 . S
C754 C753 1.287 . S
C754 C755 1.524 . S
C754 H773 0.913 . S
C755 H731 0.950 . S
C755 C754 1.524 . S
C755 C756 1.415 . S
C756 H732 0.950 . S
C756 C751 1.363 . S
C756 C755 1.415 . S
C757 H733 0.951 . S
C757 C758 1.366 . S
C757 C759 1.388 . S
C758 C757 1.366 . S
C758 C762 1.385 . S
C759 H734 0.951 . S
C759 C757 1.388 . S
C759 C760 1.366 . S
C760 C759 1.366 . S
C760 C761 1.414 . S
C760 C763 1.499 . S
C761 H735 0.950 . S
C761 C760 1.414 . S
C761 C762 1.374 . S
C762 H736 0.950 . S
C762 C758 1.385 . S
C762 C761 1.374 . S
C763 C760 1.499 . S
C763 C764 1.373 . S
C763 C765 1.389 . S
C764 H737 0.950 . S
C764 C750 1.377 . S
C764 C763 1.373 . S
C765 C749 1.377 . S
C765 C763 1.389 . S
C765 C766 1.524 . S
C766 C765 1.524 . S
C766 C767 1.397 . S
C766 C771 1.363 . S
C767 H738 0.950 . S
C767 C766 1.397 . S
C767 C768 1.334 . S
C768 H739 0.950 . S
C768 C767 1.334 . S
C768 C769 1.287 . S
C769 C768 1.287 . S
C769 C770 1.524 . S
C769 H772 0.999 . S
C770 H740 0.950 . S
C770 C769 1.524 . S
C770 C771 1.415 . S
C771 H741 0.950 . S
C771 C766 1.363 . S
C771 C770 1.415 . S
H772 C769 0.999 . S
H773 C754 0.913 . S
H774 C792 0.951 . S
H775 C794 0.951 . S
H776 C796 0.950 . S
H777 C797 0.950 . S
H778 C799 0.950 . S
H779 C802 0.950 . S
H780 C803 0.945 1_545 S
H781 C805 0.950 . S
H782 C806 0.950 . S
H783 C807 0.951 . S
H784 C809 0.951 . S
H785 C811 0.950 . S
H786 C812 0.950 . S
H787 C814 0.950 . S
H788 C817 0.950 . S
H789 C818 0.950 . S
H790 C820 0.950 . S
H791 C821 0.950 . S
C792 H774 0.951 . S
C792 C793 1.366 . S
C792 C794 1.388 . S
C793 C792 1.366 . S
C793 C797 1.385 . S
C794 H775 0.951 . S
C794 C792 1.388 . S
C794 C795 1.366 . S
C795 C794 1.366 . S
C795 C796 1.414 . S
C795 C798 1.499 . S
C796 H776 0.950 . S
C796 C795 1.414 . S
C796 C797 1.374 . S
C797 H777 0.950 . S
C797 C793 1.385 . S
C797 C796 1.374 . S
C798 C795 1.499 . S
C798 C799 1.373 . S
C798 C800 1.389 . S
C799 H778 0.950 . S
C799 C798 1.373 . S
C799 C815 1.377 . S
C800 C798 1.389 . S
C800 C801 1.524 . S
C800 C814 1.377 . S
C801 C800 1.524 . S
C801 C802 1.397 . S
C801 C806 1.363 1_545 S
C802 H779 0.950 . S
C802 C801 1.397 . S
C802 C803 1.315 1_545 S
C803 H780 0.945 1_565 S
C803 C802 1.315 1_565 S
C803 C804 1.311 . S
C804 C803 1.311 . S
C804 C805 1.524 . S
C804 H823 0.913 . S
C805 H781 0.950 . S
C805 C804 1.524 . S
C805 C806 1.415 . S
C806 H782 0.950 . S
C806 C801 1.363 1_565 S
C806 C805 1.415 . S
C807 H783 0.951 . S
C807 C808 1.366 . S
C807 C809 1.388 . S
C808 C807 1.366 . S
C808 C812 1.385 . S
C809 H784 0.951 . S
C809 C807 1.388 . S
C809 C810 1.366 . S
C810 C809 1.366 . S
C810 C811 1.414 . S
C810 C813 1.499 . S
C811 H785 0.950 . S
C811 C810 1.414 . S
C811 C812 1.374 . S
C812 H786 0.950 . S
C812 C808 1.385 . S
C812 C811 1.374 . S
C813 C810 1.499 . S
C813 C814 1.373 . S
C813 C815 1.389 . S
C814 H787 0.950 . S
C814 C800 1.377 . S
C814 C813 1.373 . S
C815 C799 1.377 . S
C815 C813 1.389 . S
C815 C816 1.524 . S
C816 C815 1.524 . S
C816 C817 1.397 . S
C816 C821 1.363 . S
C817 H788 0.950 . S
C817 C816 1.397 . S
C817 C818 1.334 . S
C818 H789 0.950 . S
C818 C817 1.334 . S
C818 C819 1.287 . S
C819 C818 1.287 . S
C819 C820 1.524 . S
C819 H822 0.999 . S
C820 H790 0.950 . S
C820 C819 1.524 . S
C820 C821 1.415 . S
C821 H791 0.950 . S
C821 C816 1.363 . S
C821 C820 1.415 . S
H822 C819 0.999 . S
H823 C804 0.913 . S
H824 C842 0.951 . S
H825 C844 0.951 . S
H826 C846 0.950 . S
H827 C847 0.950 . S
H828 C849 0.950 . S
H829 C852 0.950 . S
H830 C853 0.950 . S
H831 C855 0.950 . S
H832 C856 0.950 . S
H833 C857 0.951 . S
H834 C859 0.951 . S
H835 C861 0.950 . S
H836 C862 0.950 . S
H837 C864 0.950 . S
H838 C867 0.950 . S
H839 C868 0.950 . S
H840 C870 0.950 . S
H841 C871 0.950 . S
C842 H824 0.951 . S
C842 C843 1.366 . S
C842 C844 1.388 . S
C843 C842 1.366 . S
C843 C847 1.385 . S
C844 H825 0.951 . S
C844 C842 1.388 . S
C844 C845 1.366 . S
C845 C844 1.366 . S
C845 C846 1.414 . S
C845 C848 1.499 . S
C846 H826 0.950 . S
C846 C845 1.414 . S
C846 C847 1.374 . S
C847 H827 0.950 . S
C847 C843 1.385 . S
C847 C846 1.374 . S
C848 C845 1.499 . S
C848 C849 1.373 . S
C848 C850 1.389 . S
C849 H828 0.950 . S
C849 C848 1.373 . S
C849 C865 1.377 . S
C850 C848 1.389 . S
C850 C851 1.524 . S
C850 C864 1.377 . S
C851 C850 1.524 . S
C851 C852 1.397 . S
C851 C856 1.363 . S
C852 H829 0.950 . S
C852 C851 1.397 . S
C852 C853 1.334 . S
C853 H830 0.950 . S
C853 C852 1.334 . S
C853 C854 1.287 . S
C854 C853 1.287 . S
C854 C855 1.524 . S
C854 H873 0.913 . S
C855 H831 0.950 . S
C855 C854 1.524 . S
C855 C856 1.415 . S
C856 H832 0.950 . S
C856 C851 1.363 . S
C856 C855 1.415 . S
C857 H833 0.951 . S
C857 C858 1.366 . S
C857 C859 1.388 . S
C858 C857 1.366 . S
C858 C862 1.385 . S
C859 H834 0.951 . S
C859 C857 1.388 . S
C859 C860 1.366 . S
C860 C859 1.366 . S
C860 C861 1.414 . S
C860 C863 1.499 . S
C861 H835 0.950 . S
C861 C860 1.414 . S
C861 C862 1.374 . S
C862 H836 0.950 . S
C862 C858 1.385 . S
C862 C861 1.374 . S
C863 C860 1.499 . S
C863 C864 1.373 . S
C863 C865 1.389 . S
C864 H837 0.950 . S
C864 C850 1.377 . S
C864 C863 1.373 . S
C865 C849 1.377 . S
C865 C863 1.389 . S
C865 C866 1.524 . S
C866 C865 1.524 . S
C866 C867 1.397 . S
C866 C871 1.363 . S
C867 H838 0.950 . S
C867 C866 1.397 . S
C867 C868 1.334 . S
C868 H839 0.950 . S
C868 C867 1.334 . S
C868 C869 1.287 . S
C869 C868 1.287 . S
C869 C870 1.524 . S
C869 H872 0.999 . S
C870 H840 0.950 . S
C870 C869 1.524 . S
C870 C871 1.415 . S
C871 H841 0.950 . S
C871 C866 1.363 . S
C871 C870 1.415 . S
H872 C869 0.999 . S
H873 C854 0.913 . S
H874 C892 0.951 . S
H875 C894 0.951 . S
H876 C896 0.950 . S
H877 C897 0.950 . S
H878 C899 0.950 . S
H879 C902 0.950 . S
H880 C903 0.950 . S
H881 C905 0.950 . S
H882 C906 0.950 . S
H883 C907 0.951 . S
H884 C909 0.951 . S
H885 C911 0.950 . S
H886 C912 0.950 . S
H887 C914 0.950 . S
H888 C917 0.950 . S
H889 C918 0.950 . S
H890 C920 0.950 . S
H891 C921 0.950 . S
C892 H874 0.951 . S
C892 C893 1.366 . S
C892 C894 1.388 . S
C893 C892 1.366 . S
C893 C897 1.385 . S
C894 H875 0.951 . S
C894 C892 1.388 . S
C894 C895 1.366 . S
C895 C894 1.366 . S
C895 C896 1.414 . S
C895 C898 1.499 . S
C896 H876 0.950 . S
C896 C895 1.414 . S
C896 C897 1.374 . S
C897 H877 0.950 . S
C897 C893 1.385 . S
C897 C896 1.374 . S
C898 C895 1.499 . S
C898 C899 1.373 . S
C898 C900 1.389 . S
C899 H878 0.950 . S
C899 C898 1.373 . S
C899 C915 1.377 . S
C900 C898 1.389 . S
C900 C901 1.524 . S
C900 C914 1.377 . S
C901 C900 1.524 . S
C901 C902 1.397 . S
C901 C906 1.363 . S
C902 H879 0.950 . S
C902 C901 1.397 . S
C902 C903 1.334 . S
C903 H880 0.950 . S
C903 C902 1.334 . S
C903 C904 1.287 . S
C904 C903 1.287 . S
C904 C905 1.524 . S
C904 H923 0.913 . S
C905 H881 0.950 . S
C905 C904 1.524 . S
C905 C906 1.415 . S
C906 H882 0.950 . S
C906 C901 1.363 . S
C906 C905 1.415 . S
C907 H883 0.951 . S
C907 C908 1.366 . S
C907 C909 1.388 . S
C908 C907 1.366 . S
C908 C912 1.385 . S
C909 H884 0.951 . S
C909 C907 1.388 . S
C909 C910 1.366 . S
C910 C909 1.366 . S
C910 C911 1.414 . S
C910 C913 1.499 . S
C911 H885 0.950 . S
C911 C910 1.414 . S
C911 C912 1.374 . S
C912 H886 0.950 . S
C912 C908 1.385 . S
C912 C911 1.374 . S
C913 C910 1.499 . S
C913 C914 1.373 . S
C913 C915 1.389 . S
C914 H887 0.950 . S
C914 C900 1.377 . S
C914 C913 1.373 . S
C915 C899 1.377 . S
C915 C913 1.389 . S
C915 C916 1.524 1_565 S
C916 C915 1.524 1_545 S
C916 C917 1.397 . S
C916 C921 1.363 . S
C917 H888 0.950 . S
C917 C916 1.397 . S
C917 C918 1.334 . S
C918 H889 0.950 . S
C918 C917 1.334 . S
C918 C919 1.287 . S
C919 C918 1.287 . S
C919 C920 1.524 . S
C919 H922 0.999 . S
C920 H890 0.950 . S
C920 C919 1.524 . S
C920 C921 1.415 . S
C921 H891 0.950 . S
C921 C916 1.363 . S
C921 C920 1.415 . S
H922 C919 0.999 . S
H923 C904 0.913 . S
C358 C219 1.621 . S
C343 C138 1.623 . S
C393 C21 1.611 . S
C408 C314 1.609 . S
C443 C60 1.628 . S
C458 C230 1.621 . S
C493 C99 1.619 . S
C508 C303 1.609 . S
C558 C214 1.416 . S
C543 C16 1.560 . S
C608 C307 1.610 . S
C593 C40 1.603 . S
C643 C79 1.591 . S
C658 C223 1.603 . S
C693 C133 1.545 . S
C708 C298 1.405 . S
C758 C309 1.405 . S
C743 C55 1.544 . S
C808 C225 1.416 . S
C793 C94 1.559 . S
C858 C296 1.610 . S
C843 C118 1.601 . S
C893 C1 1.587 . S
C908 C212 1.603 . S
