# Generated by pormake.
# Topology cml, (3,6)-cn, num edge types: 1
# Building blocks:
#     Node 0, Type 0, BuildingBlock: BELTOD_clean_linker_0, # of connection points: 3
#     Node 1, Type 0, BuildingBlock: BELTOD_clean_linker_0, # of connection points: 3
#     Node 2, Type 0, BuildingBlock: BELTOD_clean_linker_0, # of connection points: 3
#     Node 3, Type 0, BuildingBlock: BELTOD_clean_linker_0, # of connection points: 3
#     Node 4, Type 0, BuildingBlock: BELTOD_clean_linker_0, # of connection points: 3
#     Node 5, Type 0, BuildingBlock: BELTOD_clean_linker_0, # of connection points: 3
#     Node 6, Type 0, BuildingBlock: BELTOD_clean_linker_0, # of connection points: 3
#     Node 7, Type 0, BuildingBlock: BELTOD_clean_linker_0, # of connection points: 3
#     Node 8, Type 1, BuildingBlock: OJICUG_clean_sbu_0, # of connection points: 6
#     Node 9, Type 1, BuildingBlock: OJICUG_clean_sbu_0, # of connection points: 6
#     Node 10, Type 1, BuildingBlock: OJICUG_clean_sbu_0, # of connection points: 6
#     Node 11, Type 1, BuildingBlock: OJICUG_clean_sbu_0, # of connection points: 6
#     Edge 12, Type (0, 1), BuildingBlock: EZIPEK_clean_linker_0, # of connection points: 2
#     Edge 13, Type (0, 1), BuildingBlock: EZIPEK_clean_linker_0, # of connection points: 2
#     Edge 14, Type (0, 1), BuildingBlock: EZIPEK_clean_linker_0, # of connection points: 2
#     Edge 15, Type (0, 1), BuildingBlock: EZIPEK_clean_linker_0, # of connection points: 2
#     Edge 16, Type (0, 1), BuildingBlock: EZIPEK_clean_linker_0, # of connection points: 2
#     Edge 17, Type (0, 1), BuildingBlock: EZIPEK_clean_linker_0, # of connection points: 2
#     Edge 18, Type (0, 1), BuildingBlock: EZIPEK_clean_linker_0, # of connection points: 2
#     Edge 19, Type (0, 1), BuildingBlock: EZIPEK_clean_linker_0, # of connection points: 2
#     Edge 20, Type (0, 1), BuildingBlock: EZIPEK_clean_linker_0, # of connection points: 2
#     Edge 21, Type (0, 1), BuildingBlock: EZIPEK_clean_linker_0, # of connection points: 2
#     Edge 22, Type (0, 1), BuildingBlock: EZIPEK_clean_linker_0, # of connection points: 2
#     Edge 23, Type (0, 1), BuildingBlock: EZIPEK_clean_linker_0, # of connection points: 2
#     Edge 24, Type (0, 1), BuildingBlock: EZIPEK_clean_linker_0, # of connection points: 2
#     Edge 25, Type (0, 1), BuildingBlock: EZIPEK_clean_linker_0, # of connection points: 2
#     Edge 26, Type (0, 1), BuildingBlock: EZIPEK_clean_linker_0, # of connection points: 2
#     Edge 27, Type (0, 1), BuildingBlock: EZIPEK_clean_linker_0, # of connection points: 2
#     Edge 28, Type (0, 1), BuildingBlock: EZIPEK_clean_linker_0, # of connection points: 2
#     Edge 29, Type (0, 1), BuildingBlock: EZIPEK_clean_linker_0, # of connection points: 2
#     Edge 30, Type (0, 1), BuildingBlock: EZIPEK_clean_linker_0, # of connection points: 2
#     Edge 31, Type (0, 1), BuildingBlock: EZIPEK_clean_linker_0, # of connection points: 2
#     Edge 32, Type (0, 1), BuildingBlock: EZIPEK_clean_linker_0, # of connection points: 2
#     Edge 33, Type (0, 1), BuildingBlock: EZIPEK_clean_linker_0, # of connection points: 2
#     Edge 34, Type (0, 1), BuildingBlock: EZIPEK_clean_linker_0, # of connection points: 2
#     Edge 35, Type (0, 1), BuildingBlock: EZIPEK_clean_linker_0, # of connection points: 2
# Relax obj value: 0.065
# Max RMSD: 0.078
# Mean RMSD: 0.074
data_MOF--net-cml--node1-OJICUG_clean_sbu_0--node2-BELTOD_clean_linker_0--edge1-EZIPEK_clean_linker_0
_symmetry_space_group_name_H-M    P1
_symmetry_Int_Tables_number       1
_symmetry_cell_setting            triclinic
loop_
_symmetry_equiv_pos_as_xyz
'x, y, z'
_cell_length_a     34.038653
_cell_length_b     34.277743
_cell_length_c     31.98224
_cell_angle_alpha  89.287786
_cell_angle_beta   89.31543
_cell_angle_gamma 90.067293
loop_
_atom_site_label
_atom_site_type_symbol
_atom_site_fract_x
_atom_site_fract_y
_atom_site_fract_z
_atom_type_partial_charge
P0 P 0.31139 0.35552 0.98277 0.0
H1 H 0.35414 0.2958 0.02913 0.0
H2 H 0.37494 0.29185 0.10195 0.0
H3 H 0.30721 0.39467 0.13019 0.0
H4 H 0.28669 0.39909 0.05664 0.0
H5 H 0.27403 0.35708 0.90231 0.0
H6 H 0.20913 0.33648 0.87887 0.0
H7 H 0.17741 0.30373 0.00551 0.0
H8 H 0.24198 0.32568 0.02938 0.0
H9 H 0.38412 0.3982 0.98953 0.0
H10 H 0.26674 0.4219 0.94626 0.0
O11 O 0.34174 0.32658 0.95604 0.0
H12 H 0.40608 0.46127 0.96094 0.0
H13 H 0.28929 0.48397 0.91584 0.0
C14 C 0.31958 0.34819 0.03755 0.0
C15 C 0.34313 0.31713 0.051 0.0
C16 C 0.35478 0.31468 0.09253 0.0
C17 C 0.34267 0.34305 0.12106 0.0
C18 C 0.3166 0.37249 0.10842 0.0
C19 C 0.30517 0.3751 0.06663 0.0
C20 C 0.26251 0.34335 0.96754 0.0
C21 C 0.25283 0.34626 0.92519 0.0
C22 C 0.21594 0.33462 0.91184 0.0
C23 C 0.18871 0.31886 0.94059 0.0
C24 C 0.19812 0.31623 0.98311 0.0
C25 C 0.23492 0.32862 0.9966 0.0
C26 C 0.32418 0.40489 0.96898 0.0
C27 C 0.363 0.41714 0.97441 0.0
C28 C 0.37547 0.45305 0.95824 0.0
C29 C 0.34931 0.47693 0.93605 0.0
C30 C 0.30982 0.46581 0.93285 0.0
C31 C 0.29717 0.43012 0.94978 0.0
P32 P 0.74337 0.56737 0.54222 0.0
H33 H 0.71033 0.55892 0.45785 0.0
H34 H 0.66771 0.50941 0.42774 0.0
H35 H 0.67205 0.44245 0.54255 0.0
H36 H 0.71521 0.49184 0.57281 0.0
H37 H 0.82815 0.56622 0.52659 0.0
H38 H 0.87107 0.60434 0.47959 0.0
H39 H 0.76985 0.6624 0.42812 0.0
H40 H 0.72695 0.62575 0.47694 0.0
H41 H 0.75348 0.64627 0.57445 0.0
H42 H 0.66065 0.56058 0.5689 0.0
O43 O 0.77155 0.54743 0.57907 0.0
H44 H 0.71111 0.68763 0.6183 0.0
H45 H 0.61899 0.6015 0.61272 0.0
C46 C 0.71654 0.52885 0.51743 0.0
C47 C 0.70296 0.53337 0.47641 0.0
C48 C 0.67859 0.50513 0.45916 0.0
C49 C 0.66708 0.47234 0.48293 0.0
C50 C 0.68103 0.46746 0.52371 0.0
C51 C 0.70567 0.49556 0.54083 0.0
C52 C 0.77441 0.59336 0.50539 0.0
C53 C 0.8151 0.58712 0.50527 0.0
C54 C 0.83958 0.60868 0.47831 0.0
C55 C 0.82362 0.63622 0.4505 0.0
C56 C 0.78269 0.6413 0.44941 0.0
C57 C 0.7583 0.62041 0.47716 0.0
C58 C 0.71017 0.60048 0.56799 0.0
C59 C 0.72383 0.63673 0.58183 0.0
C60 C 0.69978 0.66029 0.60679 0.0
C61 C 0.66206 0.64745 0.6187 0.0
C62 C 0.648 0.61187 0.60369 0.0
C63 C 0.6719 0.5885 0.57866 0.0
P64 P 0.73499 0.43649 0.03306 0.0
H65 H 0.75029 0.37078 0.08977 0.0
H66 H 0.71002 0.33844 0.14447 0.0
H67 H 0.6127 0.41349 0.11383 0.0
H68 H 0.65244 0.44547 0.0592 0.0
H69 H 0.81036 0.4487 0.99147 0.0
H70 H 0.854 0.40552 0.95172 0.0
H71 H 0.76954 0.3122 0.96517 0.0
H72 H 0.72554 0.35559 0.00464 0.0
H73 H 0.71385 0.51898 0.03448 0.0
H74 H 0.69047 0.41914 0.95771 0.0
O75 O 0.76436 0.46522 0.06059 0.0
H76 H 0.67012 0.55877 0.99104 0.0
H77 H 0.64677 0.45918 0.91407 0.0
C78 C 0.70419 0.41 0.06982 0.0
C79 C 0.72008 0.3798 0.09433 0.0
C80 C 0.69726 0.36148 0.12556 0.0
C81 C 0.65849 0.37368 0.13307 0.0
C82 C 0.64254 0.40366 0.10834 0.0
C83 C 0.66526 0.42179 0.07706 0.0
C84 C 0.76539 0.40489 0.00205 0.0
C85 C 0.80113 0.41901 0.98576 0.0
C86 C 0.82584 0.39457 0.96286 0.0
C87 C 0.81493 0.35577 0.95574 0.0
C88 C 0.77834 0.3421 0.97042 0.0
C89 C 0.75352 0.36669 0.99322 0.0
C90 C 0.70586 0.46633 -0.00118 0.0
C91 C 0.69987 0.5058 0.0079 0.0
C92 C 0.67495 0.52847 0.98323 0.0
C93 C 0.65556 0.51185 0.94936 0.0
C94 C 0.66182 0.47245 0.93995 0.0
C95 C 0.68671 0.44973 0.96475 0.0
P96 P 0.33261 0.63257 0.43628 0.0
H97 H 0.39271 0.58262 0.39973 0.0
H98 H 0.40418 0.51228 0.40427 0.0
H99 H 0.29941 0.49812 0.48016 0.0
H100 H 0.28806 0.56909 0.47611 0.0
H101 H 0.28844 0.70429 0.44581 0.0
H102 H 0.2219 0.72345 0.42542 0.0
H103 H 0.20396 0.61033 0.37124 0.0
H104 H 0.27062 0.59109 0.3913 0.0
H105 H 0.40574 0.65084 0.47712 0.0
H106 H 0.2826 0.64518 0.51042 0.0
O107 O 0.36426 0.6536 0.40271 0.0
H108 H 0.42156 0.66577 0.54973 0.0
H109 H 0.29839 0.66146 0.58289 0.0
C110 C 0.3392 0.58077 0.43696 0.0
C111 C 0.37197 0.56449 0.41703 0.0
C112 C 0.37859 0.52449 0.41976 0.0
C113 C 0.35261 0.50036 0.44256 0.0
C114 C 0.31965 0.51651 0.46247 0.0
C115 C 0.31319 0.55673 0.45998 0.0
C116 C 0.28388 0.64593 0.42125 0.0
C117 C 0.27009 0.68347 0.42991 0.0
C118 C 0.23232 0.69439 0.41833 0.0
C119 C 0.20819 0.66797 0.39755 0.0
C120 C 0.22221 0.63071 0.3879 0.0
C121 C 0.26009 0.61981 0.39946 0.0
C122 C 0.34299 0.64812 0.48825 0.0
C123 C 0.38209 0.65364 0.49984 0.0
C124 C 0.3911 0.66191 0.54117 0.0
C125 C 0.36108 0.66462 0.57143 0.0
C126 C 0.32184 0.65947 0.55982 0.0
C127 C 0.3129 0.65058 0.5185 0.0
P128 P 0.80024 0.85029 0.96786 0.0
H129 H 0.87191 0.81688 0.00084 0.0
H130 H 0.89688 0.81003 0.07192 0.0
H131 H 0.78838 0.85644 0.12133 0.0
H132 H 0.7628 0.86246 0.04982 0.0
H133 H 0.75483 0.77923 0.97119 0.0
H134 H 0.68709 0.76454 0.95157 0.0
H135 H 0.66476 0.88723 0.93233 0.0
H136 H 0.73266 0.90208 0.95169 0.0
H137 H 0.79832 0.9235 0.01462 0.0
H138 H 0.82968 0.88588 0.89031 0.0
O139 O 0.82399 0.82022 0.93563 0.0
H140 H 0.82225 0.98934 0.99735 0.0
H141 H 0.85353 0.95179 0.87317 0.0
C142 C 0.81541 0.83974 0.02025 0.0
C143 C 0.85301 0.82459 0.02693 0.0
C144 C 0.86725 0.82069 0.06739 0.0
C145 C 0.84428 0.83247 0.10166 0.0
C146 C 0.8062 0.84675 0.09518 0.0
C147 C 0.79175 0.85022 0.05454 0.0
C148 C 0.74878 0.84155 0.96214 0.0
C149 C 0.73514 0.80304 0.96366 0.0
C150 C 0.6966 0.79469 0.95272 0.0
C151 C 0.67132 0.82487 0.94052 0.0
C152 C 0.68403 0.86374 0.94194 0.0
C153 C 0.72278 0.87208 0.9527 0.0
C154 C 0.8134 0.89959 0.95411 0.0
C155 C 0.81005 0.92939 0.9836 0.0
C156 C 0.82328 0.967 0.9737 0.0
C157 C 0.83967 0.9751 0.93411 0.0
C158 C 0.84087 0.94588 0.90385 0.0
C159 C 0.82761 0.90832 0.91376 0.0
P160 P 0.24344 0.05511 0.54729 0.0
H161 H 0.25443 0.01518 0.46752 0.0
H162 H 0.2118 0.97213 0.42714 0.0
H163 H 0.12147 0.98153 0.52212 0.0
H164 H 0.16304 0.02532 0.56158 0.0
H165 H 0.32494 0.08071 0.55309 0.0
H166 H 0.36676 0.12183 0.50767 0.0
H167 H 0.27072 0.13747 0.4224 0.0
H168 H 0.22862 0.09644 0.46805 0.0
H169 H 0.20629 0.03773 0.62758 0.0
H170 H 0.21805 0.13776 0.54509 0.0
O171 O 0.27231 0.02579 0.57538 0.0
H172 H 0.1624 0.07493 0.67322 0.0
H173 H 0.1757 0.17568 0.59211 0.0
C174 C 0.21165 0.02447 0.51709 0.0
C175 C 0.22525 0.00846 0.4794 0.0
C176 C 0.20115 0.98368 0.45653 0.0
C177 C 0.16356 0.97374 0.47174 0.0
C178 C 0.15038 0.98897 0.50989 0.0
C179 C 0.17419 0.01415 0.53235 0.0
C180 C 0.27397 0.08498 0.51349 0.0
C181 C 0.3129 0.09272 0.52453 0.0
C182 C 0.33672 0.11612 0.4987 0.0
C183 C 0.32178 0.13233 0.4617 0.0
C184 C 0.28271 0.12491 0.45075 0.0
C185 C 0.25884 0.10154 0.47669 0.0
C186 C 0.21538 0.08485 0.58289 0.0
C187 C 0.19998 0.06787 0.61965 0.0
C188 C 0.17492 0.08906 0.64564 0.0
C189 C 0.16547 0.12795 0.63582 0.0
C190 C 0.18234 0.1456 0.6 0.0
C191 C 0.20661 0.12396 0.57329 0.0
P192 P 0.24953 0.93979 0.03207 0.0
H193 H 0.26329 0.87696 0.09252 0.0
H194 H 0.2202 0.84321 0.14374 0.0
H195 H 0.12256 0.91363 0.10329 0.0
H196 H 0.16484 0.94663 0.05198 0.0
H197 H 0.32951 0.93877 0.99741 0.0
H198 H 0.36536 0.8907 0.95514 0.0
H199 H 0.26225 0.81752 0.95399 0.0
H200 H 0.22656 0.8652 0.99657 0.0
H201 H 0.21893 0.01785 0.04558 0.0
H202 H 0.21644 0.93217 0.94784 0.0
O203 O 0.28159 0.96579 0.0593 0.0
H204 H 0.17216 0.05823 0.00647 0.0
H205 H 0.17046 0.97291 0.90855 0.0
C206 C 0.21744 0.91438 0.06845 0.0
C207 C 0.23256 0.88495 0.09454 0.0
C208 C 0.20809 0.86571 0.12363 0.0
C209 C 0.16835 0.87616 0.12726 0.0
C210 C 0.15319 0.90529 0.1009 0.0
C211 C 0.1775 0.92422 0.07167 0.0
C212 C 0.27573 0.90504 0.00075 0.0
C213 C 0.31468 0.91234 0.98816 0.0
C214 C 0.33501 0.88516 0.96393 0.0
C215 C 0.31631 0.85076 0.95162 0.0
C216 C 0.27702 0.84399 0.96329 0.0
C217 C 0.25685 0.87099 0.98774 0.0
C218 C 0.22157 0.97227 -0.00058 0.0
C219 C 0.20918 0.00823 0.01528 0.0
C220 C 0.18243 0.03113 0.99315 0.0
C221 C 0.16792 0.01837 0.95479 0.0
C222 C 0.18145 0.98313 0.93812 0.0
C223 C 0.20782 0.96 0.96053 0.0
P224 P 0.81911 0.12312 0.46621 0.0
H225 H 0.88094 0.08505 0.418 0.0
H226 H 0.89833 0.01648 0.40912 0.0
H227 H 0.79928 0.98175 0.48636 0.0
H228 H 0.78167 0.05096 0.49545 0.0
H229 H 0.78947 0.14012 0.38353 0.0
H230 H 0.72441 0.15933 0.3585 0.0
H231 H 0.6769 0.14463 0.48341 0.0
H232 H 0.74148 0.12314 0.50792 0.0
H233 H 0.87105 0.09016 0.52894 0.0
H234 H 0.78476 0.18219 0.52179 0.0
O235 O 0.85029 0.15127 0.43871 0.0
H236 H 0.88707 0.10982 0.59988 0.0
H237 H 0.79949 0.20043 0.59393 0.0
C238 C 0.82997 0.07285 0.45721 0.0
C239 C 0.86267 0.06284 0.43273 0.0
C240 C 0.87259 0.02381 0.42768 0.0
C241 C 0.84997 0.99442 0.44706 0.0
C242 C 0.81684 0.00427 0.47111 0.0
C243 C 0.80689 0.0435 0.4762 0.0
C244 C 0.77048 0.13232 0.44792 0.0
C245 C 0.76494 0.14057 0.40541 0.0
C246 C 0.72793 0.15121 0.39109 0.0
C247 C 0.6963 0.15417 0.41939 0.0
C248 C 0.70122 0.14297 0.46133 0.0
C249 C 0.73808 0.13132 0.47537 0.0
C250 C 0.8258 0.13389 0.52048 0.0
C251 C 0.85461 0.11372 0.54301 0.0
C252 C 0.86379 0.12489 0.58346 0.0
C253 C 0.84429 0.15637 0.60195 0.0
C254 C 0.81448 0.17579 0.58012 0.0
C255 C 0.806 0.16522 0.53913 0.0
Sc256 Sc -0.00424 0.76341 0.29394 0.0
Sc257 Sc 0.99389 0.8644 0.31304 0.0
Sc258 Sc -0.00036 0.79805 0.39733 0.0
O259 O -0.00366 0.80865 0.33474 0.0
C260 C 0.94074 0.73143 0.36725 0.0
C261 C 0.93652 0.82294 0.25028 0.0
C262 C 0.93831 0.8671 0.39411 0.0
C263 C 0.05249 0.82419 0.2478 0.0
C264 C 0.05867 0.73574 0.36112 0.0
C265 C 0.05384 0.87374 0.38738 0.0
O266 O 0.94906 0.73403 0.32841 0.0
O267 O 0.94658 0.85235 0.27136 0.0
O268 O 0.95126 0.83617 0.41134 0.0
O269 O 0.04205 0.78919 0.25584 0.0
O270 O 0.04854 0.75964 0.38919 0.0
O271 O 0.04095 0.88371 0.35177 0.0
O272 O 0.04071 0.73187 0.32685 0.0
O273 O 0.03691 0.85375 0.26489 0.0
O274 O 0.0412 0.84429 0.40793 0.0
O275 O 0.95203 0.78949 0.25453 0.0
O276 O 0.95825 0.7509 0.39497 0.0
O277 O 0.9512 0.88074 0.35945 0.0
Sc278 Sc 0.98833 0.23278 0.80516 0.0
Sc279 Sc 0.98552 0.1297 0.80661 0.0
Sc280 Sc 0.98675 0.18114 0.90116 0.0
O281 O 0.98674 0.18119 0.83762 0.0
C282 C 0.04744 0.2498 0.87801 0.0
C283 C 0.04542 0.17835 0.75001 0.0
C284 C 0.04431 0.11071 0.8813 0.0
C285 C 0.92906 0.18373 0.75099 0.0
C286 C 0.93041 0.25249 0.88198 0.0
C287 C 0.92889 0.11008 0.88369 0.0
O288 O 0.03589 0.25523 0.84086 0.0
O289 O 0.0318 0.1466 0.76471 0.0
O290 O 0.03254 0.13819 0.90457 0.0
O291 O 0.94057 0.21576 0.76613 0.0
O292 O 0.94077 0.22353 0.90433 0.0
O293 O 0.93979 0.10544 0.84596 0.0
O294 O 0.94566 0.26037 0.84628 0.0
O295 O 0.94232 0.15063 0.76264 0.0
O296 O 0.9425 0.13648 0.90699 0.0
O297 O 0.03236 0.21176 0.76046 0.0
O298 O 0.03187 0.22533 0.90337 0.0
O299 O 0.02989 0.10368 0.84569 0.0
Sc300 Sc 0.4928 0.26477 0.30995 0.0
Sc301 Sc 0.49538 0.36533 0.33179 0.0
Sc302 Sc 0.49525 0.29695 0.41447 0.0
O303 O 0.4945 0.30899 0.35199 0.0
C304 C 0.43607 0.23191 0.38136 0.0
C305 C 0.43625 0.32781 0.26787 0.0
C306 C 0.43658 0.36796 0.41064 0.0
C307 C 0.55182 0.32455 0.26481 0.0
C308 C 0.55312 0.23336 0.378 0.0
C309 C 0.55317 0.37048 0.4083 0.0
O310 O 0.44553 0.23504 0.3429 0.0
O311 O 0.44857 0.35649 0.28872 0.0
O312 O 0.4472 0.33594 0.4274 0.0
O313 O 0.53968 0.28994 0.27204 0.0
O314 O 0.54306 0.25705 0.4064 0.0
O315 O 0.54239 0.38147 0.37223 0.0
O316 O 0.5366 0.23136 0.34268 0.0
O317 O 0.53841 0.35425 0.28361 0.0
O318 O 0.53795 0.34169 0.42798 0.0
O319 O 0.44955 0.29335 0.27172 0.0
O320 O 0.45263 0.25102 0.40997 0.0
O321 O 0.45219 0.38216 0.3775 0.0
Sc322 Sc 0.48041 0.73509 0.79274 0.0
Sc323 Sc 0.48996 0.63325 0.78803 0.0
Sc324 Sc 0.48359 0.67847 0.88521 0.0
O325 O 0.48489 0.6824 0.82204 0.0
C326 C 0.53588 0.75481 0.86838 0.0
C327 C 0.54742 0.68975 0.73961 0.0
C328 C 0.54445 0.6125 0.86645 0.0
C329 C 0.43304 0.68452 0.73021 0.0
C330 C 0.41744 0.74227 0.86772 0.0
C331 C 0.43087 0.60547 0.85758 0.0
O332 O 0.52354 0.76131 0.83167 0.0
O333 O 0.53975 0.65626 0.75511 0.0
O334 O 0.53398 0.64134 0.88826 0.0
O335 O 0.43577 0.71539 0.75129 0.0
O336 O 0.43277 0.71511 0.8893 0.0
O337 O 0.43992 0.60747 0.81894 0.0
O338 O 0.43335 0.7545 0.83374 0.0
O339 O 0.45245 0.65386 0.73863 0.0
O340 O 0.44544 0.62783 0.88496 0.0
O341 O 0.52753 0.72041 0.74811 0.0
O342 O 0.52305 0.7272 0.89174 0.0
O343 O 0.52928 0.60451 0.83146 0.0
C344 C 0.15409 0.26787 0.9003 0.0
C345 C 0.15188 0.30179 0.92509 0.0
C346 C 0.08031 0.30284 0.9181 0.0
C347 C 0.08313 0.2703 0.89132 0.0
N348 N 0.12312 0.22915 0.84755 0.0
N349 N 0.11435 0.35551 0.95263 0.0
C350 C 0.12018 0.25508 0.87948 0.0
C351 C 0.11533 0.32042 0.93279 0.0
N352 N 0.18825 0.24698 0.89792 0.0
N353 N 0.04419 0.31702 0.92904 0.0
H354 H 0.13951 0.36918 0.96367 0.0
H355 H 0.08917 0.37249 0.95559 0.0
H356 H 0.01841 0.30717 0.91538 0.0
H357 H 0.03963 0.33746 0.95239 0.0
H358 H 0.19021 0.21982 0.88377 0.0
H359 H 0.21369 0.25479 0.91366 0.0
H360 H 0.14986 0.22013 0.83478 0.0
H361 H 0.0988 0.21964 0.83106 0.0
C362 C 0.8521 0.70191 0.43148 0.0
C363 C 0.85022 0.66116 0.42437 0.0
C364 C 0.90657 0.66629 0.37599 0.0
C365 C 0.90701 0.70726 0.3817 0.0
N366 N 0.87268 0.76492 0.40433 0.0
N367 N 0.86899 0.60628 0.38211 0.0
C368 C 0.87722 0.72532 0.40601 0.0
C369 C 0.87534 0.64388 0.39404 0.0
N370 N 0.83186 0.71808 0.46411 0.0
N371 N 0.93692 0.64846 0.35545 0.0
H372 H 0.84599 0.58932 0.39428 0.0
H373 H 0.88405 0.59333 0.35738 0.0
H374 H 0.96045 0.66377 0.34203 0.0
H375 H 0.94028 0.61828 0.35455 0.0
H376 H 0.83566 0.74694 0.47312 0.0
H377 H 0.81425 0.70194 0.48486 0.0
H378 H 0.84919 0.77933 0.4185 0.0
H379 H 0.88996 0.78285 0.38495 0.0
C380 C 0.83928 0.31654 0.89454 0.0
C381 C 0.84363 0.32864 0.93648 0.0
C382 C 0.90658 0.29459 0.94063 0.0
C383 C 0.90067 0.27934 0.9 0.0
N384 N 0.85762 0.26981 0.84149 0.0
N385 N 0.87695 0.32265 0.0024 0.0
C386 C 0.86601 0.28875 0.87768 0.0
C387 C 0.87597 0.31572 0.96039 0.0
N388 N 0.81017 0.33221 0.87058 0.0
N389 N 0.94206 0.29038 0.9598 0.0
H390 H 0.85501 0.33795 0.01826 0.0
H391 H 0.89756 0.31007 0.02225 0.0
H392 H 0.96567 0.27546 0.94663 0.0
H393 H 0.94938 0.30488 0.98707 0.0
H394 H 0.80813 0.32779 0.83852 0.0
H395 H 0.78979 0.3522 0.88213 0.0
H396 H 0.83091 0.27254 0.82619 0.0
H397 H 0.87582 0.24848 0.82873 0.0
C398 C 0.13551 0.67078 0.41024 0.0
C399 C 0.16861 0.68035 0.38474 0.0
C400 C 0.12902 0.72458 0.34229 0.0
C401 C 0.09558 0.71421 0.36697 0.0
N402 N 0.06454 0.67217 0.41844 0.0
N403 N 0.19564 0.70865 0.32133 0.0
C404 C 0.09806 0.68558 0.39914 0.0
C405 C 0.16489 0.70472 0.34897 0.0
N406 N 0.1402 0.64886 0.44584 0.0
N407 N 0.12717 0.75495 0.31422 0.0
H408 H 0.22255 0.69467 0.32554 0.0
H409 H 0.19338 0.72281 0.29245 0.0
H410 H 0.10155 0.77063 0.30858 0.0
H411 H 0.15172 0.76678 0.29901 0.0
H412 H 0.11812 0.64466 0.46824 0.0
H413 H 0.16708 0.63675 0.45438 0.0
H414 H 0.06393 0.64864 0.43934 0.0
H415 H 0.03666 0.68248 0.41079 0.0
C416 C 0.59907 0.81033 0.94414 0.0
C417 C 0.63406 0.81469 0.92021 0.0
C418 C 0.60375 0.78339 0.86053 0.0
C419 C 0.56828 0.7792 0.8842 0.0
N420 N 0.52886 0.79836 0.94368 0.0
N421 N 0.6667 0.81572 0.8529 0.0
C422 C 0.5649 0.79571 0.92461 0.0
C423 C 0.63524 0.80485 0.87739 0.0
N424 N 0.5989 0.81904 0.98572 0.0
N425 N 0.60873 0.76462 0.82337 0.0
H426 H 0.69087 0.83074 0.8644 0.0
H427 H 0.66718 0.81318 0.82047 0.0
H428 H 0.58704 0.74807 0.80945 0.0
H429 H 0.6357 0.76259 0.80782 0.0
H430 H 0.57567 0.81218 0.00598 0.0
H431 H 0.62311 0.83122 0.00046 0.0
H432 H 0.524 0.81314 0.97152 0.0
H433 H 0.50306 0.78918 0.92949 0.0
C434 C 0.37711 0.14077 0.40994 0.0
C435 C 0.34727 0.1578 0.4351 0.0
C436 C 0.36972 0.22301 0.41372 0.0
C437 C 0.40312 0.20609 0.39424 0.0
N438 N 0.44027 0.14902 0.37504 0.0
N439 N 0.31616 0.21499 0.46364 0.0
C440 C 0.40704 0.16496 0.39209 0.0
C441 C 0.34351 0.19893 0.43737 0.0
N442 N 0.37651 0.10152 0.40291 0.0
N443 N 0.36287 0.2621 0.40897 0.0
H444 H 0.29608 0.19838 0.48117 0.0
H445 H 0.31511 0.24461 0.47039 0.0
H446 H 0.38136 0.28033 0.39128 0.0
H447 H 0.33717 0.27572 0.41899 0.0
H448 H 0.39511 0.0878 0.38161 0.0
H449 H 0.35502 0.08305 0.41571 0.0
H450 H 0.44712 0.11948 0.37724 0.0
H451 H 0.4624 0.16571 0.36081 0.0
C452 C 0.35167 0.78698 0.95017 0.0
C453 C 0.33831 0.82054 0.92837 0.0
C454 C 0.36442 0.79437 0.86261 0.0
C455 C 0.38254 0.76367 0.8856 0.0
N456 N 0.3717 0.7199 0.94459 0.0
N457 N 0.33112 0.857 0.864 0.0
C458 C 0.36992 0.75659 0.92757 0.0
C459 C 0.34416 0.82435 0.8845 0.0
N460 N 0.34824 0.78464 0.99278 0.0
N461 N 0.3632 0.79262 0.81999 0.0
H462 H 0.31462 0.87861 0.87869 0.0
H463 H 0.3386 0.8639 0.83313 0.0
H464 H 0.37241 0.76802 0.80371 0.0
H465 H 0.34818 0.81252 0.80127 0.0
H466 H 0.36179 0.76294 0.01057 0.0
H467 H 0.33485 0.80618 0.01075 0.0
H468 H 0.36009 0.71265 0.97396 0.0
H469 H 0.37853 0.69552 0.9269 0.0
C470 C 0.62371 0.15163 0.4059 0.0
C471 C 0.6594 0.1731 0.40612 0.0
C472 C 0.62566 0.23047 0.37853 0.0
C473 C 0.58936 0.211 0.3843 0.0
N474 N 0.55242 0.15421 0.40621 0.0
N475 N 0.69287 0.23539 0.40068 0.0
C476 C 0.5879 0.17176 0.39862 0.0
C477 C 0.66009 0.21318 0.39444 0.0
N478 N 0.62424 0.11206 0.41158 0.0
N479 N 0.62734 0.26522 0.35717 0.0
H480 H 0.71846 0.22446 0.41401 0.0
H481 H 0.69325 0.2656 0.39664 0.0
H482 H 0.60252 0.27857 0.34461 0.0
H483 H 0.65368 0.2787 0.34838 0.0
H484 H 0.59966 0.09438 0.40786 0.0
H485 H 0.6501 0.09644 0.4165 0.0
H486 H 0.5494 0.12706 0.42087 0.0
H487 H 0.52576 0.16806 0.40027 0.0
C488 C 0.39139 0.50316 0.87815 0.0
C489 C 0.36496 0.51058 0.91161 0.0
C490 C 0.37331 0.58069 0.8997 0.0
C491 C 0.40542 0.57296 0.87237 0.0
N492 N 0.44913 0.52535 0.84081 0.0
N493 N 0.33226 0.55648 0.95676 0.0
C494 C 0.41538 0.53382 0.86248 0.0
C495 C 0.35598 0.54942 0.92296 0.0
N496 N 0.39346 0.4668 0.86119 0.0
N497 N 0.35879 0.61769 0.90245 0.0
H498 H 0.31902 0.53424 0.97449 0.0
H499 H 0.32814 0.58421 0.96902 0.0
H500 H 0.36974 0.64063 0.88398 0.0
H501 H 0.33343 0.6246 0.91933 0.0
H502 H 0.40956 0.46086 0.83408 0.0
H503 H 0.37577 0.44363 0.8715 0.0
H504 H 0.4595 0.49698 0.83726 0.0
H505 H 0.46913 0.54629 0.83013 0.0
C506 C 0.59732 0.45289 0.47056 0.0
C507 C 0.638 0.44463 0.46603 0.0
C508 C 0.62316 0.387 0.42432 0.0
C509 C 0.5825 0.3947 0.42974 0.0
N510 N 0.52999 0.43137 0.4616 0.0
N511 N 0.69022 0.40191 0.444 0.0
C512 C 0.56933 0.42659 0.45403 0.0
C513 C 0.6511 0.41102 0.44453 0.0
N514 N 0.58558 0.4865 0.48968 0.0
N515 N 0.63489 0.35735 0.3989 0.0
H516 H 0.71152 0.41948 0.45751 0.0
H517 H 0.70151 0.37586 0.43264 0.0
H518 H 0.615 0.33853 0.38502 0.0
H519 H 0.66386 0.35254 0.38962 0.0
H520 H 0.55684 0.49679 0.48978 0.0
H521 H 0.60508 0.50564 0.5038 0.0
H522 H 0.51838 0.45115 0.48281 0.0
H523 H 0.50861 0.4137 0.44842 0.0
C524 C 0.58619 0.53103 0.9337 0.0
C525 C 0.62699 0.53548 0.92529 0.0
C526 C 0.6138 0.59073 0.87814 0.0
C527 C 0.57296 0.58496 0.88484 0.0
N528 N 0.51948 0.54672 0.91387 0.0
N529 N 0.67969 0.56453 0.88467 0.0
C530 C 0.55893 0.55407 0.91094 0.0
C531 C 0.64083 0.56385 0.89597 0.0
N532 N 0.57362 0.50614 0.96487 0.0
N533 N 0.62669 0.62264 0.8559 0.0
H534 H 0.70026 0.54531 0.89732 0.0
H535 H 0.69104 0.58186 0.86044 0.0
H536 H 0.60751 0.64257 0.84219 0.0
H537 H 0.65606 0.63098 0.85358 0.0
H538 H 0.54474 0.50491 0.97588 0.0
H539 H 0.59259 0.48851 0.98212 0.0
H540 H 0.50759 0.52188 0.9282 0.0
H541 H 0.4985 0.56418 0.89935 0.0
C542 C 0.38678 0.44413 0.47577 0.0
C543 C 0.36097 0.45813 0.44466 0.0
C544 C 0.3717 0.39946 0.40372 0.0
C545 C 0.40416 0.39056 0.42938 0.0
N546 N 0.4396 0.39953 0.49339 0.0
N547 N 0.3235 0.44781 0.38255 0.0
C548 C 0.41006 0.41069 0.46729 0.0
C549 C 0.35097 0.43476 0.41021 0.0
N550 N 0.38961 0.46369 0.51258 0.0
N551 N 0.36178 0.3744 0.37265 0.0
H552 H 0.30689 0.47289 0.38785 0.0
H553 H 0.31769 0.43459 0.35418 0.0
H554 H 0.37704 0.34844 0.36768 0.0
H555 H 0.33704 0.37754 0.35412 0.0
H556 H 0.40585 0.45396 0.53799 0.0
H557 H 0.3729 0.48847 0.5189 0.0
H558 H 0.44868 0.41554 0.51894 0.0
H559 H 0.45604 0.37429 0.48888 0.0
C560 C 0.84168 0.04225 0.90194 0.0
C561 C 0.86014 0.01255 0.92585 0.0
C562 C 0.91951 0.05242 0.93123 0.0
C563 C 0.90308 0.07981 0.90267 0.0
N564 N 0.84886 0.10229 0.86128 0.0
N565 N 0.9176 0.98681 0.95998 0.0
C566 C 0.86409 0.07523 0.8883 0.0
C567 C 0.89913 0.01715 0.9401 0.0
N568 N 0.80266 0.039 0.89292 0.0
N569 N 0.95473 0.0598 0.94975 0.0
H570 H 0.90373 0.96053 0.96777 0.0
H571 H 0.9476 0.98633 0.96595 0.0
H572 H 0.97224 0.08393 0.94262 0.0
H573 H 0.96555 0.04334 0.97464 0.0
H574 H 0.78632 0.06098 0.8787 0.0
H575 H 0.78571 0.01501 0.90237 0.0
H576 H 0.82258 0.09871 0.84548 0.0
H577 H 0.86343 0.12826 0.8537 0.0
C578 C 0.14562 0.90798 0.44291 0.0
C579 C 0.13714 0.94829 0.44742 0.0
C580 C 0.07311 0.93888 0.41508 0.0
C581 C 0.08298 0.8994 0.40719 0.0
N582 N 0.13156 0.84824 0.40604 0.0
N583 N 0.09706 0.00381 0.4291 0.0
C584 C 0.12015 0.88444 0.41889 0.0
C585 C 0.10216 0.96427 0.43078 0.0
N586 N 0.17701 0.89182 0.46295 0.0
N587 N 0.03545 0.95173 0.40966 0.0
H588 H 0.11805 0.02346 0.43964 0.0
H589 H 0.07387 0.01713 0.41347 0.0
H590 H 0.01278 0.93386 0.39944 0.0
H591 H 0.02578 0.97903 0.41934 0.0
H592 H 0.18212 0.86189 0.46443 0.0
H593 H 0.19616 0.90798 0.48117 0.0
H594 H 0.15987 0.83741 0.40999 0.0
H595 H 0.11382 0.83039 0.38797 0.0
C596 C 0.14597 0.07783 0.915 0.0
C597 C 0.13683 0.04099 0.93329 0.0
C598 C 0.06868 0.0471 0.91022 0.0
C599 C 0.07669 0.08588 0.89665 0.0
N600 N 0.12179 0.14 0.88945 0.0
N601 N 0.08832 0.99302 0.95462 0.0
C602 C 0.11504 0.1018 0.90002 0.0
C603 C 0.0979 0.02612 0.9324 0.0
N604 N 0.18431 0.08933 0.91084 0.0
N605 N 0.0332 0.03027 0.90203 0.0
H606 H 0.10864 0.97707 0.97195 0.0
H607 H 0.05957 0.98328 0.95905 0.0
H608 H 0.01056 0.04493 0.88685 0.0
H609 H 0.02728 0.00078 0.90722 0.0
H610 H 0.19318 0.11402 0.89391 0.0
H611 H 0.20773 0.07231 0.9212 0.0
H612 H 0.14784 0.15458 0.89587 0.0
H613 H 0.1003 0.15797 0.87661 0.0
C614 C 0.89419 0.94053 0.46808 0.0
C615 C 0.86297 0.9536 0.44279 0.0
C616 C 0.87252 0.89827 0.3964 0.0
C617 C 0.9087 0.89056 0.41632 0.0
N618 N 0.955 0.9043 0.47107 0.0
N619 N 0.8197 0.94454 0.38479 0.0
C620 C 0.91939 0.91087 0.45293 0.0
C621 C 0.85071 0.9318 0.40798 0.0
N622 N 0.90018 0.95736 0.50598 0.0
N623 N 0.85959 0.87372 0.36615 0.0
H624 H 0.80234 0.96818 0.39368 0.0
H625 H 0.81204 0.93279 0.35616 0.0
H626 H 0.8754 0.84907 0.35716 0.0
H627 H 0.83203 0.87578 0.35256 0.0
H628 H 0.92032 0.94692 0.52765 0.0
H629 H 0.88216 0.97955 0.51737 0.0
H630 H 0.96646 0.9218 0.49435 0.0
H631 H 0.97455 0.88287 0.46115 0.0
C632 C 0.34851 0.32183 0.19619 0.0
C633 C 0.3624 0.34477 0.1619 0.0
C634 C 0.42351 0.3584 0.19827 0.0
C635 C 0.40944 0.33605 0.23304 0.0
N636 N 0.35642 0.30284 0.2691 0.0
N637 N 0.40846 0.39197 0.13346 0.0
C638 C 0.37116 0.3197 0.23325 0.0
C639 C 0.3983 0.36556 0.16416 0.0
N640 N 0.31431 0.30125 0.19269 0.0
N641 N 0.46182 0.37057 0.19648 0.0
H642 H 0.39147 0.39715 0.10706 0.0
H643 H 0.43198 0.41124 0.13584 0.0
H644 H 0.48174 0.36588 0.22049 0.0
H645 H 0.47505 0.38242 0.16968 0.0
H646 H 0.3047 0.28051 0.21456 0.0
H647 H 0.29632 0.30364 0.16659 0.0
H648 H 0.32745 0.2935 0.27263 0.0
H649 H 0.37245 0.30101 0.29668 0.0
C650 C 0.64557 0.66408 0.69305 0.0
C651 C 0.63794 0.66895 0.64979 0.0
C652 C 0.5736 0.69744 0.66593 0.0
C653 C 0.58071 0.69147 0.70923 0.0
N654 N 0.62678 0.67932 0.76429 0.0
N655 N 0.60058 0.69958 0.59523 0.0
C656 C 0.61804 0.67844 0.72277 0.0
C657 C 0.60392 0.68904 0.63636 0.0
N658 N 0.67769 0.64337 0.70577 0.0
N659 N 0.53708 0.70818 0.65282 0.0
H660 H 0.62243 0.69351 0.57307 0.0
H661 H 0.57819 0.71733 0.5839 0.0
H662 H 0.51421 0.71472 0.67343 0.0
H663 H 0.52867 0.70829 0.62163 0.0
H664 H 0.68213 0.63449 0.7366 0.0
H665 H 0.69894 0.63277 0.68513 0.0
H666 H 0.65474 0.67412 0.77597 0.0
H667 H 0.60661 0.68865 0.78675 0.0
C668 C 0.60242 0.3316 0.15793 0.0
C669 C 0.6345 0.35617 0.16761 0.0
C670 C 0.61736 0.35097 0.24215 0.0
C671 C 0.58208 0.33144 0.23179 0.0
N672 N 0.53837 0.30717 0.17897 0.0
N673 N 0.6707 0.39282 0.21838 0.0
C674 C 0.57404 0.32235 0.18949 0.0
C675 C 0.64176 0.36656 0.20965 0.0
N676 N 0.59934 0.31684 0.1186 0.0
N677 N 0.62782 0.35403 0.28311 0.0
H678 H 0.68932 0.4049 0.19555 0.0
H679 H 0.67434 0.40497 0.24777 0.0
H680 H 0.61065 0.34274 0.30762 0.0
H681 H 0.65505 0.36438 0.29257 0.0
H682 H 0.57888 0.29562 0.11073 0.0
H683 H 0.61967 0.3231 0.09476 0.0
H684 H 0.52916 0.30451 0.1482 0.0
H685 H 0.51644 0.30019 0.20082 0.0
C686 C 0.36878 0.64333 0.64647 0.0
C687 C 0.37155 0.67293 0.61522 0.0
C688 C 0.41049 0.71347 0.66142 0.0
C689 C 0.40729 0.68404 0.69315 0.0
N690 N 0.37247 0.62771 0.72035 0.0
N691 N 0.38368 0.74034 0.59743 0.0
C692 C 0.38277 0.65114 0.6871 0.0
C693 C 0.3885 0.70949 0.62436 0.0
N694 N 0.35489 0.60713 0.63693 0.0
N695 N 0.43647 0.74369 0.66481 0.0
H696 H 0.3675 0.73824 0.57002 0.0
H697 H 0.39215 0.76872 0.60443 0.0
H698 H 0.45419 0.74808 0.69058 0.0
H699 H 0.44312 0.76279 0.64014 0.0
H700 H 0.35648 0.58333 0.65742 0.0
H701 H 0.34462 0.59998 0.60742 0.0
H702 H 0.35196 0.60524 0.71838 0.0
H703 H 0.38112 0.63356 0.75084 0.0
C704 C 0.85351 0.80556 0.17458 0.0
C705 C 0.86257 0.834 0.14335 0.0
C706 C 0.91899 0.85613 0.18299 0.0
C707 C 0.90911 0.82895 0.21536 0.0
N708 N 0.86242 0.78396 0.24644 0.0
N709 N 0.89623 0.89339 0.12338 0.0
C710 C 0.87483 0.80556 0.21258 0.0
C711 C 0.8927 0.86172 0.14957 0.0
N712 N 0.82582 0.77767 0.16725 0.0
N713 N 0.95472 0.87447 0.18228 0.0
H714 H 0.8772 0.89851 0.09856 0.0
H715 H 0.91536 0.91648 0.12891 0.0
H716 H 0.97612 0.87 0.20484 0.0
H717 H 0.96484 0.89111 0.15687 0.0
H718 H 0.82107 0.75359 0.18684 0.0
H719 H 0.80925 0.77724 0.14003 0.0
H720 H 0.83572 0.76909 0.24762 0.0
H721 H 0.87719 0.78385 0.27485 0.0
C722 C 0.09963 0.16026 0.64846 0.0
C723 C 0.13731 0.14928 0.66326 0.0
C724 C 0.11604 0.16232 0.73508 0.0
C725 C 0.07897 0.17499 0.72023 0.0
N726 N 0.03873 0.19459 0.6623 0.0
N727 N 0.18468 0.15109 0.7186 0.0
C728 C 0.07208 0.17723 0.67665 0.0
C729 C 0.14661 0.1542 0.70595 0.0
N730 N 0.08896 0.15189 0.60849 0.0
N731 N 0.12149 0.15592 0.77685 0.0
H732 H 0.20783 0.14577 0.69775 0.0
H733 H 0.19364 0.15777 0.74872 0.0
H734 H 0.09958 0.16074 0.79918 0.0
H735 H 0.14654 0.1427 0.78893 0.0
H736 H 0.06042 0.15522 0.59761 0.0
H737 H 0.10757 0.13834 0.58706 0.0
H738 H 0.0337 0.20039 0.63077 0.0
H739 H 0.01787 0.20653 0.68241 0.0
C740 C 0.11166 0.83249 0.1463 0.0
C741 C 0.14226 0.85756 0.15926 0.0
C742 C 0.11903 0.85145 0.23182 0.0
C743 C 0.08512 0.83161 0.21783 0.0
N744 N 0.04663 0.80664 0.16112 0.0
N745 N 0.17315 0.89452 0.21367 0.0
C746 C 0.0809 0.82255 0.17494 0.0
C747 C 0.14574 0.86772 0.20194 0.0
N748 N 0.11226 0.81797 0.1067 0.0
N749 N 0.12588 0.85433 0.27372 0.0
H750 H 0.1933 0.90726 0.19283 0.0
H751 H 0.17396 0.90647 0.24343 0.0
H752 H 0.1069 0.84272 0.29653 0.0
H753 H 0.15205 0.86488 0.2858 0.0
H754 H 0.09289 0.79659 0.09665 0.0
H755 H 0.13452 0.82463 0.08503 0.0
H756 H 0.04013 0.80369 0.12958 0.0
H757 H 0.02323 0.79918 0.18098 0.0
C758 C 0.84834 0.15 0.67995 0.0
C759 C 0.85825 0.17065 0.64265 0.0
C760 C 0.9095 0.20667 0.67877 0.0
C761 C 0.90081 0.18473 0.71594 0.0
N762 N 0.85474 0.14523 0.75535 0.0
N763 N 0.89019 0.22556 0.60875 0.0
C764 C 0.8678 0.15944 0.71757 0.0
C765 C 0.8859 0.20153 0.64298 0.0
N766 N 0.82121 0.12061 0.679 0.0
N767 N 0.94197 0.23018 0.67619 0.0
H768 H 0.87522 0.22152 0.58092 0.0
H769 H 0.90606 0.25155 0.609 0.0
H770 H 0.95987 0.23662 0.70122 0.0
H771 H 0.95303 0.24167 0.64815 0.0
H772 H 0.81608 0.10125 0.70381 0.0
H773 H 0.80495 0.11449 0.6524 0.0
H774 H 0.82899 0.12912 0.75935 0.0
H775 H 0.86775 0.15305 0.78339 0.0
loop_
_geom_bond_atom_site_label_1
_geom_bond_atom_site_label_2
_geom_bond_distance
_geom_bond_site_symmetry_2
_ccdc_geom_bond_type
P0 O11 1.490 . S
P0 C14 1.812 1_556 S
P0 C20 1.803 . S
P0 C26 1.819 . S
H1 C15 0.941 . S
H2 C16 0.939 . S
H3 C18 0.940 . S
H4 C19 0.940 . S
H5 C21 0.939 . S
H6 C22 0.942 . S
H7 C24 0.940 1_554 S
H8 C25 0.939 1_554 S
H9 C27 0.941 . S
H10 C31 0.939 . S
O11 P0 1.490 . S
H12 C28 0.939 . S
H13 C30 0.940 . S
C14 P0 1.812 1_554 S
C14 C15 1.389 . S
C14 C19 1.391 . S
C15 H1 0.941 . S
C15 C14 1.389 . S
C15 C16 1.397 . S
C16 H2 0.939 . S
C16 C15 1.397 . S
C16 C17 1.378 . S
C17 C16 1.378 . S
C17 C18 1.378 . S
C18 H3 0.940 . S
C18 C17 1.378 . S
C18 C19 1.396 . S
C19 H4 0.940 . S
C19 C14 1.391 . S
C19 C18 1.396 . S
C20 P0 1.803 . S
C20 C21 1.378 . S
C20 C25 1.400 . S
C21 H5 0.939 . S
C21 C20 1.378 . S
C21 C22 1.361 . S
C22 H6 0.942 . S
C22 C21 1.361 . S
C22 C23 1.369 . S
C23 C22 1.369 . S
C23 C24 1.404 . S
C24 H7 0.940 1_556 S
C24 C23 1.404 . S
C24 C25 1.389 . S
C25 H8 0.939 1_556 S
C25 C20 1.400 . S
C25 C24 1.389 . S
C26 P0 1.819 . S
C26 C27 1.391 . S
C26 C31 1.391 . S
C27 H9 0.941 . S
C27 C26 1.391 . S
C27 C28 1.396 . S
C28 H12 0.939 . S
C28 C27 1.396 . S
C28 C29 1.397 . S
C29 C28 1.397 . S
C29 C30 1.385 . S
C30 H13 0.940 . S
C30 C29 1.385 . S
C30 C31 1.388 . S
C31 H10 0.939 . S
C31 C26 1.391 . S
C31 C30 1.388 . S
P32 O43 1.490 . S
P32 C46 1.812 . S
P32 C52 1.803 . S
P32 C58 1.819 . S
H33 C47 0.941 . S
H34 C48 0.939 . S
H35 C50 0.940 . S
H36 C51 0.940 . S
H37 C53 0.939 . S
H38 C54 0.942 . S
H39 C56 0.940 . S
H40 C57 0.939 . S
H41 C59 0.941 . S
H42 C63 0.939 . S
O43 P32 1.490 . S
H44 C60 0.939 . S
H45 C62 0.940 . S
C46 P32 1.812 . S
C46 C47 1.389 . S
C46 C51 1.391 . S
C47 H33 0.941 . S
C47 C46 1.389 . S
C47 C48 1.397 . S
C48 H34 0.939 . S
C48 C47 1.397 . S
C48 C49 1.378 . S
C49 C48 1.378 . S
C49 C50 1.378 . S
C50 H35 0.940 . S
C50 C49 1.378 . S
C50 C51 1.396 . S
C51 H36 0.940 . S
C51 C46 1.391 . S
C51 C50 1.396 . S
C52 P32 1.803 . S
C52 C53 1.378 . S
C52 C57 1.400 . S
C53 H37 0.939 . S
C53 C52 1.378 . S
C53 C54 1.361 . S
C54 H38 0.942 . S
C54 C53 1.361 . S
C54 C55 1.369 . S
C55 C54 1.369 . S
C55 C56 1.404 . S
C56 H39 0.940 . S
C56 C55 1.404 . S
C56 C57 1.389 . S
C57 H40 0.939 . S
C57 C52 1.400 . S
C57 C56 1.389 . S
C58 P32 1.819 . S
C58 C59 1.391 . S
C58 C63 1.391 . S
C59 H41 0.941 . S
C59 C58 1.391 . S
C59 C60 1.396 . S
C60 H44 0.939 . S
C60 C59 1.396 . S
C60 C61 1.397 . S
C61 C60 1.397 . S
C61 C62 1.385 . S
C62 H45 0.940 . S
C62 C61 1.385 . S
C62 C63 1.388 . S
C63 H42 0.939 . S
C63 C58 1.391 . S
C63 C62 1.388 . S
P64 O75 1.490 . S
P64 C78 1.812 . S
P64 C84 1.803 . S
P64 C90 1.819 1_554 S
H65 C79 0.941 . S
H66 C80 0.939 . S
H67 C82 0.940 . S
H68 C83 0.940 . S
H69 C85 0.939 . S
H70 C86 0.942 . S
H71 C88 0.940 . S
H72 C89 0.939 1_554 S
H73 C91 0.941 . S
H74 C95 0.939 . S
O75 P64 1.490 . S
H76 C92 0.939 . S
H77 C94 0.940 . S
C78 P64 1.812 . S
C78 C79 1.389 . S
C78 C83 1.391 . S
C79 H65 0.941 . S
C79 C78 1.389 . S
C79 C80 1.397 . S
C80 H66 0.939 . S
C80 C79 1.397 . S
C80 C81 1.378 . S
C81 C80 1.378 . S
C81 C82 1.378 . S
C82 H67 0.940 . S
C82 C81 1.378 . S
C82 C83 1.396 . S
C83 H68 0.940 . S
C83 C78 1.391 . S
C83 C82 1.396 . S
C84 P64 1.803 . S
C84 C85 1.378 1_554 S
C84 C89 1.400 1_554 S
C85 H69 0.939 . S
C85 C84 1.378 1_556 S
C85 C86 1.361 . S
C86 H70 0.942 . S
C86 C85 1.361 . S
C86 C87 1.369 . S
C87 C86 1.369 . S
C87 C88 1.404 . S
C88 H71 0.940 . S
C88 C87 1.404 . S
C88 C89 1.389 . S
C89 H72 0.939 1_556 S
C89 C84 1.400 1_556 S
C89 C88 1.389 . S
C90 P64 1.819 1_556 S
C90 C91 1.391 1_556 S
C90 C95 1.391 . S
C91 H73 0.941 . S
C91 C90 1.391 1_554 S
C91 C92 1.396 1_554 S
C92 H76 0.939 . S
C92 C91 1.396 1_556 S
C92 C93 1.397 . S
C93 C92 1.397 . S
C93 C94 1.385 . S
C94 H77 0.940 . S
C94 C93 1.385 . S
C94 C95 1.388 . S
C95 H74 0.939 . S
C95 C90 1.391 . S
C95 C94 1.388 . S
P96 O107 1.490 . S
P96 C110 1.812 . S
P96 C116 1.803 . S
P96 C122 1.819 . S
H97 C111 0.941 . S
H98 C112 0.939 . S
H99 C114 0.940 . S
H100 C115 0.940 . S
H101 C117 0.939 . S
H102 C118 0.942 . S
H103 C120 0.940 . S
H104 C121 0.939 . S
H105 C123 0.941 . S
H106 C127 0.939 . S
O107 P96 1.490 . S
H108 C124 0.939 . S
H109 C126 0.940 . S
C110 P96 1.812 . S
C110 C111 1.389 . S
C110 C115 1.391 . S
C111 H97 0.941 . S
C111 C110 1.389 . S
C111 C112 1.397 . S
C112 H98 0.939 . S
C112 C111 1.397 . S
C112 C113 1.378 . S
C113 C112 1.378 . S
C113 C114 1.378 . S
C114 H99 0.940 . S
C114 C113 1.378 . S
C114 C115 1.396 . S
C115 H100 0.940 . S
C115 C110 1.391 . S
C115 C114 1.396 . S
C116 P96 1.803 . S
C116 C117 1.378 . S
C116 C121 1.400 . S
C117 H101 0.939 . S
C117 C116 1.378 . S
C117 C118 1.361 . S
C118 H102 0.942 . S
C118 C117 1.361 . S
C118 C119 1.369 . S
C119 C118 1.369 . S
C119 C120 1.404 . S
C120 H103 0.940 . S
C120 C119 1.404 . S
C120 C121 1.389 . S
C121 H104 0.939 . S
C121 C116 1.400 . S
C121 C120 1.389 . S
C122 P96 1.819 . S
C122 C123 1.391 . S
C122 C127 1.391 . S
C123 H105 0.941 . S
C123 C122 1.391 . S
C123 C124 1.396 . S
C124 H108 0.939 . S
C124 C123 1.396 . S
C124 C125 1.397 . S
C125 C124 1.397 . S
C125 C126 1.385 . S
C126 H109 0.940 . S
C126 C125 1.385 . S
C126 C127 1.388 . S
C127 H106 0.939 . S
C127 C122 1.391 . S
C127 C126 1.388 . S
P128 O139 1.490 . S
P128 C142 1.812 1_556 S
P128 C148 1.803 . S
P128 C154 1.819 . S
H129 C143 0.941 . S
H130 C144 0.939 . S
H131 C146 0.940 . S
H132 C147 0.940 . S
H133 C149 0.939 . S
H134 C150 0.942 . S
H135 C152 0.940 1_554 S
H136 C153 0.939 1_554 S
H137 C155 0.941 . S
H138 C159 0.939 . S
O139 P128 1.490 . S
H140 C156 0.939 . S
H141 C158 0.940 . S
C142 P128 1.812 1_554 S
C142 C143 1.389 . S
C142 C147 1.391 . S
C143 H129 0.941 . S
C143 C142 1.389 . S
C143 C144 1.397 . S
C144 H130 0.939 . S
C144 C143 1.397 . S
C144 C145 1.378 . S
C145 C144 1.378 . S
C145 C146 1.378 . S
C146 H131 0.940 . S
C146 C145 1.378 . S
C146 C147 1.396 . S
C147 H132 0.940 . S
C147 C142 1.391 . S
C147 C146 1.396 . S
C148 P128 1.803 . S
C148 C149 1.378 . S
C148 C153 1.400 . S
C149 H133 0.939 . S
C149 C148 1.378 . S
C149 C150 1.361 . S
C150 H134 0.942 . S
C150 C149 1.361 . S
C150 C151 1.369 . S
C151 C150 1.369 . S
C151 C152 1.404 . S
C152 H135 0.940 1_556 S
C152 C151 1.404 . S
C152 C153 1.389 . S
C153 H136 0.939 1_556 S
C153 C148 1.400 . S
C153 C152 1.389 . S
C154 P128 1.819 . S
C154 C155 1.391 . S
C154 C159 1.391 . S
C155 H137 0.941 . S
C155 C154 1.391 . S
C155 C156 1.396 . S
C156 H140 0.939 . S
C156 C155 1.396 . S
C156 C157 1.397 . S
C157 C156 1.397 . S
C157 C158 1.385 . S
C158 H141 0.940 . S
C158 C157 1.385 . S
C158 C159 1.388 . S
C159 H138 0.939 . S
C159 C154 1.391 . S
C159 C158 1.388 . S
P160 O171 1.490 . S
P160 C174 1.812 . S
P160 C180 1.803 . S
P160 C186 1.819 . S
H161 C175 0.941 . S
H162 C176 0.939 . S
H163 C178 0.940 . S
H164 C179 0.940 . S
H165 C181 0.939 . S
H166 C182 0.942 . S
H167 C184 0.940 . S
H168 C185 0.939 . S
H169 C187 0.941 . S
H170 C191 0.939 . S
O171 P160 1.490 . S
H172 C188 0.939 . S
H173 C190 0.940 . S
C174 P160 1.812 . S
C174 C175 1.389 1_545 S
C174 C179 1.391 . S
C175 H161 0.941 . S
C175 C174 1.389 1_565 S
C175 C176 1.397 . S
C176 H162 0.939 . S
C176 C175 1.397 . S
C176 C177 1.378 . S
C177 C176 1.378 . S
C177 C178 1.378 1_565 S
C178 H163 0.940 . S
C178 C177 1.378 1_545 S
C178 C179 1.396 . S
C179 H164 0.940 . S
C179 C174 1.391 . S
C179 C178 1.396 . S
C180 P160 1.803 . S
C180 C181 1.378 . S
C180 C185 1.400 . S
C181 H165 0.939 . S
C181 C180 1.378 . S
C181 C182 1.361 . S
C182 H166 0.942 . S
C182 C181 1.361 . S
C182 C183 1.369 . S
C183 C182 1.369 . S
C183 C184 1.404 . S
C184 H167 0.940 . S
C184 C183 1.404 . S
C184 C185 1.389 . S
C185 H168 0.939 . S
C185 C180 1.400 . S
C185 C184 1.389 . S
C186 P160 1.819 . S
C186 C187 1.391 . S
C186 C191 1.391 . S
C187 H169 0.941 . S
C187 C186 1.391 . S
C187 C188 1.396 . S
C188 H172 0.939 . S
C188 C187 1.396 . S
C188 C189 1.397 . S
C189 C188 1.397 . S
C189 C190 1.385 . S
C190 H173 0.940 . S
C190 C189 1.385 . S
C190 C191 1.388 . S
C191 H170 0.939 . S
C191 C186 1.391 . S
C191 C190 1.388 . S
P192 O203 1.490 . S
P192 C206 1.812 . S
P192 C212 1.803 . S
P192 C218 1.819 1_554 S
H193 C207 0.941 . S
H194 C208 0.939 . S
H195 C210 0.940 . S
H196 C211 0.940 . S
H197 C213 0.939 . S
H198 C214 0.942 . S
H199 C216 0.940 . S
H200 C217 0.939 1_554 S
H201 C219 0.941 1_545 S
H202 C223 0.939 . S
O203 P192 1.490 . S
H204 C220 0.939 . S
H205 C222 0.940 . S
C206 P192 1.812 . S
C206 C207 1.389 . S
C206 C211 1.391 . S
C207 H193 0.941 . S
C207 C206 1.389 . S
C207 C208 1.397 . S
C208 H194 0.939 . S
C208 C207 1.397 . S
C208 C209 1.378 . S
C209 C208 1.378 . S
C209 C210 1.378 . S
C210 H195 0.940 . S
C210 C209 1.378 . S
C210 C211 1.396 . S
C211 H196 0.940 . S
C211 C206 1.391 . S
C211 C210 1.396 . S
C212 P192 1.803 . S
C212 C213 1.378 1_554 S
C212 C217 1.400 1_554 S
C213 H197 0.939 . S
C213 C212 1.378 1_556 S
C213 C214 1.361 . S
C214 H198 0.942 . S
C214 C213 1.361 . S
C214 C215 1.369 . S
C215 C214 1.369 . S
C215 C216 1.404 . S
C216 H199 0.940 . S
C216 C215 1.404 . S
C216 C217 1.389 . S
C217 H200 0.939 1_556 S
C217 C212 1.400 1_556 S
C217 C216 1.389 . S
C218 P192 1.819 1_556 S
C218 C219 1.391 1_556 S
C218 C223 1.391 . S
C219 H201 0.941 1_565 S
C219 C218 1.391 1_554 S
C219 C220 1.396 1_564 S
C220 H204 0.939 . S
C220 C219 1.396 1_546 S
C220 C221 1.397 . S
C221 C220 1.397 . S
C221 C222 1.385 1_545 S
C222 H205 0.940 . S
C222 C221 1.385 1_565 S
C222 C223 1.388 . S
C223 H202 0.939 . S
C223 C218 1.391 . S
C223 C222 1.388 . S
P224 O235 1.490 . S
P224 C238 1.812 . S
P224 C244 1.803 . S
P224 C250 1.819 . S
H225 C239 0.941 . S
H226 C240 0.939 . S
H227 C242 0.940 1_565 S
H228 C243 0.940 . S
H229 C245 0.939 . S
H230 C246 0.942 . S
H231 C248 0.940 . S
H232 C249 0.939 . S
H233 C251 0.941 . S
H234 C255 0.939 . S
O235 P224 1.490 . S
H236 C252 0.939 . S
H237 C254 0.940 . S
C238 P224 1.812 . S
C238 C239 1.389 . S
C238 C243 1.391 . S
C239 H225 0.941 . S
C239 C238 1.389 . S
C239 C240 1.397 . S
C240 H226 0.939 . S
C240 C239 1.397 . S
C240 C241 1.378 . S
C241 C240 1.378 . S
C241 C242 1.378 . S
C242 H227 0.940 1_545 S
C242 C241 1.378 . S
C242 C243 1.396 . S
C243 H228 0.940 . S
C243 C238 1.391 . S
C243 C242 1.396 . S
C244 P224 1.803 . S
C244 C245 1.378 . S
C244 C249 1.400 . S
C245 H229 0.939 . S
C245 C244 1.378 . S
C245 C246 1.361 . S
C246 H230 0.942 . S
C246 C245 1.361 . S
C246 C247 1.369 . S
C247 C246 1.369 . S
C247 C248 1.404 . S
C248 H231 0.940 . S
C248 C247 1.404 . S
C248 C249 1.389 . S
C249 H232 0.939 . S
C249 C244 1.400 . S
C249 C248 1.389 . S
C250 P224 1.819 . S
C250 C251 1.391 . S
C250 C255 1.391 . S
C251 H233 0.941 . S
C251 C250 1.391 . S
C251 C252 1.396 . S
C252 H236 0.939 . S
C252 C251 1.396 . S
C252 C253 1.397 . S
C253 C252 1.397 . S
C253 C254 1.385 . S
C254 H237 0.940 . S
C254 C253 1.385 . S
C254 C255 1.388 . S
C255 H234 0.939 . S
C255 C250 1.391 . S
C255 C254 1.388 . S
Sc256 O259 2.025 . S
Sc256 O266 2.105 1_455 S
Sc256 O269 2.105 . S
Sc256 O272 2.105 . S
Sc256 O275 2.105 1_455 S
Sc257 O259 2.025 . S
Sc257 O267 2.105 1_455 S
Sc257 O271 2.105 . S
Sc257 O273 2.105 . S
Sc257 O277 2.105 1_455 S
Sc258 O259 2.025 . S
Sc258 O268 2.105 1_455 S
Sc258 O270 2.105 . S
Sc258 O274 2.105 . S
Sc258 O276 2.105 1_455 S
O259 Sc256 2.025 . S
O259 Sc257 2.025 . S
O259 Sc258 2.025 . S
C260 O266 1.268 . S
C260 O276 1.268 . S
C261 O267 1.268 . S
C261 O275 1.268 . S
C262 O268 1.268 . S
C262 O277 1.268 . S
C263 O269 1.268 . S
C263 O273 1.268 . S
C264 O270 1.268 . S
C264 O272 1.268 . S
C265 O271 1.268 . S
C265 O274 1.268 . S
O266 Sc256 2.105 1_655 S
O266 C260 1.268 . S
O267 Sc257 2.105 1_655 S
O267 C261 1.268 . S
O268 Sc258 2.105 1_655 S
O268 C262 1.268 . S
O269 Sc256 2.105 . S
O269 C263 1.268 . S
O270 Sc258 2.105 . S
O270 C264 1.268 . S
O271 Sc257 2.105 . S
O271 C265 1.268 . S
O272 Sc256 2.105 . S
O272 C264 1.268 . S
O273 Sc257 2.105 . S
O273 C263 1.268 . S
O274 Sc258 2.105 . S
O274 C265 1.268 . S
O275 Sc256 2.105 1_655 S
O275 C261 1.268 . S
O276 Sc258 2.105 1_655 S
O276 C260 1.268 . S
O277 Sc257 2.105 1_655 S
O277 C262 1.268 . S
Sc278 O281 2.025 . S
Sc278 O288 2.105 . S
Sc278 O291 2.105 1_455 S
Sc278 O294 2.105 1_455 S
Sc278 O297 2.105 . S
Sc279 O281 2.025 . S
Sc279 O289 2.105 . S
Sc279 O293 2.105 1_455 S
Sc279 O295 2.105 1_455 S
Sc279 O299 2.105 . S
Sc280 O281 2.025 . S
Sc280 O290 2.105 . S
Sc280 O292 2.105 1_455 S
Sc280 O296 2.105 1_455 S
Sc280 O298 2.105 . S
O281 Sc278 2.025 . S
O281 Sc279 2.025 . S
O281 Sc280 2.025 . S
C282 O288 1.268 . S
C282 O298 1.268 . S
C283 O289 1.268 . S
C283 O297 1.268 . S
C284 O290 1.268 . S
C284 O299 1.268 . S
C285 O291 1.268 . S
C285 O295 1.268 . S
C286 O292 1.268 . S
C286 O294 1.268 . S
C287 O293 1.268 . S
C287 O296 1.268 . S
O288 Sc278 2.105 . S
O288 C282 1.268 . S
O289 Sc279 2.105 . S
O289 C283 1.268 . S
O290 Sc280 2.105 . S
O290 C284 1.268 . S
O291 Sc278 2.105 1_655 S
O291 C285 1.268 . S
O292 Sc280 2.105 1_655 S
O292 C286 1.268 . S
O293 Sc279 2.105 1_655 S
O293 C287 1.268 . S
O294 Sc278 2.105 1_655 S
O294 C286 1.268 . S
O295 Sc279 2.105 1_655 S
O295 C285 1.268 . S
O296 Sc280 2.105 1_655 S
O296 C287 1.268 . S
O297 Sc278 2.105 . S
O297 C283 1.268 . S
O298 Sc280 2.105 . S
O298 C282 1.268 . S
O299 Sc279 2.105 . S
O299 C284 1.268 . S
Sc300 O303 2.025 . S
Sc300 O310 2.105 . S
Sc300 O313 2.105 . S
Sc300 O316 2.105 . S
Sc300 O319 2.105 . S
Sc301 O303 2.025 . S
Sc301 O311 2.105 . S
Sc301 O315 2.105 . S
Sc301 O317 2.105 . S
Sc301 O321 2.105 . S
Sc302 O303 2.025 . S
Sc302 O312 2.105 . S
Sc302 O314 2.105 . S
Sc302 O318 2.105 . S
Sc302 O320 2.105 . S
O303 Sc300 2.025 . S
O303 Sc301 2.025 . S
O303 Sc302 2.025 . S
C304 O310 1.268 . S
C304 O320 1.268 . S
C305 O311 1.268 . S
C305 O319 1.268 . S
C306 O312 1.268 . S
C306 O321 1.268 . S
C307 O313 1.268 . S
C307 O317 1.268 . S
C308 O314 1.268 . S
C308 O316 1.268 . S
C309 O315 1.268 . S
C309 O318 1.268 . S
O310 Sc300 2.105 . S
O310 C304 1.268 . S
O311 Sc301 2.105 . S
O311 C305 1.268 . S
O312 Sc302 2.105 . S
O312 C306 1.268 . S
O313 Sc300 2.105 . S
O313 C307 1.268 . S
O314 Sc302 2.105 . S
O314 C308 1.268 . S
O315 Sc301 2.105 . S
O315 C309 1.268 . S
O316 Sc300 2.105 . S
O316 C308 1.268 . S
O317 Sc301 2.105 . S
O317 C307 1.268 . S
O318 Sc302 2.105 . S
O318 C309 1.268 . S
O319 Sc300 2.105 . S
O319 C305 1.268 . S
O320 Sc302 2.105 . S
O320 C304 1.268 . S
O321 Sc301 2.105 . S
O321 C306 1.268 . S
Sc322 O325 2.025 . S
Sc322 O332 2.105 . S
Sc322 O335 2.105 . S
Sc322 O338 2.105 . S
Sc322 O341 2.105 . S
Sc323 O325 2.025 . S
Sc323 O333 2.105 . S
Sc323 O337 2.105 . S
Sc323 O339 2.105 . S
Sc323 O343 2.105 . S
Sc324 O325 2.025 . S
Sc324 O334 2.105 . S
Sc324 O336 2.105 . S
Sc324 O340 2.105 . S
Sc324 O342 2.105 . S
O325 Sc322 2.025 . S
O325 Sc323 2.025 . S
O325 Sc324 2.025 . S
C326 O332 1.268 . S
C326 O342 1.268 . S
C327 O333 1.268 . S
C327 O341 1.268 . S
C328 O334 1.268 . S
C328 O343 1.268 . S
C329 O335 1.268 . S
C329 O339 1.268 . S
C330 O336 1.268 . S
C330 O338 1.268 . S
C331 O337 1.268 . S
C331 O340 1.268 . S
O332 Sc322 2.105 . S
O332 C326 1.268 . S
O333 Sc323 2.105 . S
O333 C327 1.268 . S
O334 Sc324 2.105 . S
O334 C328 1.268 . S
O335 Sc322 2.105 . S
O335 C329 1.268 . S
O336 Sc324 2.105 . S
O336 C330 1.268 . S
O337 Sc323 2.105 . S
O337 C331 1.268 . S
O338 Sc322 2.105 . S
O338 C330 1.268 . S
O339 Sc323 2.105 . S
O339 C329 1.268 . S
O340 Sc324 2.105 . S
O340 C331 1.268 . S
O341 Sc322 2.105 . S
O341 C327 1.268 . S
O342 Sc324 2.105 . S
O342 C326 1.268 . S
O343 Sc323 2.105 . S
O343 C328 1.268 . S
C344 C345 1.363 . S
C344 C350 1.379 . S
C344 N352 1.356 . S
C345 C344 1.363 . S
C345 C351 1.363 . S
C346 C347 1.363 . S
C346 C351 1.379 . S
C346 N353 1.356 . S
C347 C346 1.363 . S
C347 C350 1.363 . S
N348 C350 1.356 . S
N348 H360 0.984 . S
N348 H361 0.985 . S
N349 C351 1.356 . S
N349 H354 0.984 . S
N349 H355 0.985 . S
C350 C344 1.379 . S
C350 C347 1.363 . S
C350 N348 1.356 . S
C351 C345 1.363 . S
C351 C346 1.379 . S
C351 N349 1.356 . S
N352 C344 1.356 . S
N352 H358 0.984 . S
N352 H359 0.984 . S
N353 C346 1.356 . S
N353 H356 0.984 . S
N353 H357 0.985 . S
H354 N349 0.984 . S
H355 N349 0.985 . S
H356 N353 0.984 . S
H357 N353 0.985 . S
H358 N352 0.984 . S
H359 N352 0.984 . S
H360 N348 0.984 . S
H361 N348 0.985 . S
C362 C363 1.363 . S
C362 C368 1.379 . S
C362 N370 1.356 . S
C363 C362 1.363 . S
C363 C369 1.363 . S
C364 C365 1.363 . S
C364 C369 1.379 . S
C364 N371 1.356 . S
C365 C364 1.363 . S
C365 C368 1.363 . S
N366 C368 1.356 . S
N366 H378 0.984 . S
N366 H379 0.985 . S
N367 C369 1.356 . S
N367 H372 0.984 . S
N367 H373 0.985 . S
C368 C362 1.379 . S
C368 C365 1.363 . S
C368 N366 1.356 . S
C369 C363 1.363 . S
C369 C364 1.379 . S
C369 N367 1.356 . S
N370 C362 1.356 . S
N370 H376 0.984 . S
N370 H377 0.984 . S
N371 C364 1.356 . S
N371 H374 0.984 . S
N371 H375 0.985 . S
H372 N367 0.984 . S
H373 N367 0.985 . S
H374 N371 0.984 . S
H375 N371 0.985 . S
H376 N370 0.984 . S
H377 N370 0.984 . S
H378 N366 0.984 . S
H379 N366 0.985 . S
C380 C381 1.363 . S
C380 C386 1.379 . S
C380 N388 1.356 . S
C381 C380 1.363 . S
C381 C387 1.363 . S
C382 C383 1.363 . S
C382 C387 1.379 . S
C382 N389 1.356 . S
C383 C382 1.363 . S
C383 C386 1.363 . S
N384 C386 1.356 . S
N384 H396 0.984 . S
N384 H397 0.985 . S
N385 C387 1.356 . S
N385 H390 0.984 . S
N385 H391 0.985 1_556 S
C386 C380 1.379 . S
C386 C383 1.363 . S
C386 N384 1.356 . S
C387 C381 1.363 . S
C387 C382 1.379 . S
C387 N385 1.356 . S
N388 C380 1.356 . S
N388 H394 0.984 . S
N388 H395 0.984 . S
N389 C382 1.356 . S
N389 H392 0.984 . S
N389 H393 0.985 . S
H390 N385 0.984 . S
H391 N385 0.985 1_554 S
H392 N389 0.984 . S
H393 N389 0.985 . S
H394 N388 0.984 . S
H395 N388 0.984 . S
H396 N384 0.984 . S
H397 N384 0.985 . S
C398 C399 1.363 . S
C398 C404 1.379 . S
C398 N406 1.356 . S
C399 C398 1.363 . S
C399 C405 1.363 . S
C400 C401 1.363 . S
C400 C405 1.379 . S
C400 N407 1.356 . S
C401 C400 1.363 . S
C401 C404 1.363 . S
N402 C404 1.356 . S
N402 H414 0.984 . S
N402 H415 0.985 . S
N403 C405 1.356 . S
N403 H408 0.984 . S
N403 H409 0.985 . S
C404 C398 1.379 . S
C404 C401 1.363 . S
C404 N402 1.356 . S
C405 C399 1.363 . S
C405 C400 1.379 . S
C405 N403 1.356 . S
N406 C398 1.356 . S
N406 H412 0.984 . S
N406 H413 0.984 . S
N407 C400 1.356 . S
N407 H410 0.984 . S
N407 H411 0.985 . S
H408 N403 0.984 . S
H409 N403 0.985 . S
H410 N407 0.984 . S
H411 N407 0.985 . S
H412 N406 0.984 . S
H413 N406 0.984 . S
H414 N402 0.984 . S
H415 N402 0.985 . S
C416 C417 1.363 . S
C416 C422 1.379 . S
C416 N424 1.356 . S
C417 C416 1.363 . S
C417 C423 1.363 . S
C418 C419 1.363 . S
C418 C423 1.379 . S
C418 N425 1.356 . S
C419 C418 1.363 . S
C419 C422 1.363 . S
N420 C422 1.356 . S
N420 H432 0.984 . S
N420 H433 0.985 . S
N421 C423 1.356 . S
N421 H426 0.984 . S
N421 H427 0.985 . S
C422 C416 1.379 . S
C422 C419 1.363 . S
C422 N420 1.356 . S
C423 C417 1.363 . S
C423 C418 1.379 . S
C423 N421 1.356 . S
N424 C416 1.356 . S
N424 H430 0.984 . S
N424 H431 0.984 . S
N425 C418 1.356 . S
N425 H428 0.984 . S
N425 H429 0.985 . S
H426 N421 0.984 . S
H427 N421 0.985 . S
H428 N425 0.984 . S
H429 N425 0.985 . S
H430 N424 0.984 . S
H431 N424 0.984 . S
H432 N420 0.984 . S
H433 N420 0.985 . S
C434 C435 1.363 . S
C434 C440 1.379 . S
C434 N442 1.356 . S
C435 C434 1.363 . S
C435 C441 1.363 . S
C436 C437 1.363 . S
C436 C441 1.379 . S
C436 N443 1.356 . S
C437 C436 1.363 . S
C437 C440 1.363 . S
N438 C440 1.356 . S
N438 H450 0.984 . S
N438 H451 0.985 . S
N439 C441 1.356 . S
N439 H444 0.984 . S
N439 H445 0.985 . S
C440 C434 1.379 . S
C440 C437 1.363 . S
C440 N438 1.356 . S
C441 C435 1.363 . S
C441 C436 1.379 . S
C441 N439 1.356 . S
N442 C434 1.356 . S
N442 H448 0.984 . S
N442 H449 0.984 . S
N443 C436 1.356 . S
N443 H446 0.984 . S
N443 H447 0.985 . S
H444 N439 0.984 . S
H445 N439 0.985 . S
H446 N443 0.984 . S
H447 N443 0.985 . S
H448 N442 0.984 . S
H449 N442 0.984 . S
H450 N438 0.984 . S
H451 N438 0.985 . S
C452 C453 1.363 . S
C452 C458 1.379 . S
C452 N460 1.356 . S
C453 C452 1.363 . S
C453 C459 1.363 . S
C454 C455 1.363 . S
C454 C459 1.379 . S
C454 N461 1.356 . S
C455 C454 1.363 . S
C455 C458 1.363 . S
N456 C458 1.356 . S
N456 H468 0.984 . S
N456 H469 0.985 . S
N457 C459 1.356 . S
N457 H462 0.984 . S
N457 H463 0.985 . S
C458 C452 1.379 . S
C458 C455 1.363 . S
C458 N456 1.356 . S
C459 C453 1.363 . S
C459 C454 1.379 . S
C459 N457 1.356 . S
N460 C452 1.356 . S
N460 H466 0.984 1_556 S
N460 H467 0.984 . S
N461 C454 1.356 . S
N461 H464 0.984 . S
N461 H465 0.985 . S
H462 N457 0.984 . S
H463 N457 0.985 . S
H464 N461 0.984 . S
H465 N461 0.985 . S
H466 N460 0.984 1_554 S
H467 N460 0.984 . S
H468 N456 0.984 . S
H469 N456 0.985 . S
C470 C471 1.363 . S
C470 C476 1.379 . S
C470 N478 1.356 . S
C471 C470 1.363 . S
C471 C477 1.363 . S
C472 C473 1.363 . S
C472 C477 1.379 . S
C472 N479 1.356 . S
C473 C472 1.363 . S
C473 C476 1.363 . S
N474 C476 1.356 . S
N474 H486 0.984 . S
N474 H487 0.985 . S
N475 C477 1.356 . S
N475 H480 0.984 . S
N475 H481 0.985 . S
C476 C470 1.379 . S
C476 C473 1.363 . S
C476 N474 1.356 . S
C477 C471 1.363 . S
C477 C472 1.379 . S
C477 N475 1.356 . S
N478 C470 1.356 . S
N478 H484 0.984 . S
N478 H485 0.984 . S
N479 C472 1.356 . S
N479 H482 0.984 . S
N479 H483 0.985 . S
H480 N475 0.984 . S
H481 N475 0.985 . S
H482 N479 0.984 . S
H483 N479 0.985 . S
H484 N478 0.984 . S
H485 N478 0.984 . S
H486 N474 0.984 . S
H487 N474 0.985 . S
C488 C489 1.363 . S
C488 C494 1.379 . S
C488 N496 1.356 . S
C489 C488 1.363 . S
C489 C495 1.363 . S
C490 C491 1.363 . S
C490 C495 1.379 . S
C490 N497 1.356 . S
C491 C490 1.363 . S
C491 C494 1.363 . S
N492 C494 1.356 . S
N492 H504 0.984 . S
N492 H505 0.985 . S
N493 C495 1.356 . S
N493 H498 0.984 . S
N493 H499 0.985 . S
C494 C488 1.379 . S
C494 C491 1.363 . S
C494 N492 1.356 . S
C495 C489 1.363 . S
C495 C490 1.379 . S
C495 N493 1.356 . S
N496 C488 1.356 . S
N496 H502 0.984 . S
N496 H503 0.984 . S
N497 C490 1.356 . S
N497 H500 0.984 . S
N497 H501 0.985 . S
H498 N493 0.984 . S
H499 N493 0.985 . S
H500 N497 0.984 . S
H501 N497 0.985 . S
H502 N496 0.984 . S
H503 N496 0.984 . S
H504 N492 0.984 . S
H505 N492 0.985 . S
C506 C507 1.363 . S
C506 C512 1.379 . S
C506 N514 1.356 . S
C507 C506 1.363 . S
C507 C513 1.363 . S
C508 C509 1.363 . S
C508 C513 1.379 . S
C508 N515 1.356 . S
C509 C508 1.363 . S
C509 C512 1.363 . S
N510 C512 1.356 . S
N510 H522 0.984 . S
N510 H523 0.985 . S
N511 C513 1.356 . S
N511 H516 0.984 . S
N511 H517 0.985 . S
C512 C506 1.379 . S
C512 C509 1.363 . S
C512 N510 1.356 . S
C513 C507 1.363 . S
C513 C508 1.379 . S
C513 N511 1.356 . S
N514 C506 1.356 . S
N514 H520 0.984 . S
N514 H521 0.984 . S
N515 C508 1.356 . S
N515 H518 0.984 . S
N515 H519 0.985 . S
H516 N511 0.984 . S
H517 N511 0.985 . S
H518 N515 0.984 . S
H519 N515 0.985 . S
H520 N514 0.984 . S
H521 N514 0.984 . S
H522 N510 0.984 . S
H523 N510 0.985 . S
C524 C525 1.363 . S
C524 C530 1.379 . S
C524 N532 1.356 . S
C525 C524 1.363 . S
C525 C531 1.363 . S
C526 C527 1.363 . S
C526 C531 1.379 . S
C526 N533 1.356 . S
C527 C526 1.363 . S
C527 C530 1.363 . S
N528 C530 1.356 . S
N528 H540 0.984 . S
N528 H541 0.985 . S
N529 C531 1.356 . S
N529 H534 0.984 . S
N529 H535 0.985 . S
C530 C524 1.379 . S
C530 C527 1.363 . S
C530 N528 1.356 . S
C531 C525 1.363 . S
C531 C526 1.379 . S
C531 N529 1.356 . S
N532 C524 1.356 . S
N532 H538 0.984 . S
N532 H539 0.984 . S
N533 C526 1.356 . S
N533 H536 0.984 . S
N533 H537 0.985 . S
H534 N529 0.984 . S
H535 N529 0.985 . S
H536 N533 0.984 . S
H537 N533 0.985 . S
H538 N532 0.984 . S
H539 N532 0.984 . S
H540 N528 0.984 . S
H541 N528 0.985 . S
C542 C543 1.363 . S
C542 C548 1.379 . S
C542 N550 1.356 . S
C543 C542 1.363 . S
C543 C549 1.363 . S
C544 C545 1.363 . S
C544 C549 1.379 . S
C544 N551 1.356 . S
C545 C544 1.363 . S
C545 C548 1.363 . S
N546 C548 1.356 . S
N546 H558 0.984 . S
N546 H559 0.985 . S
N547 C549 1.356 . S
N547 H552 0.984 . S
N547 H553 0.985 . S
C548 C542 1.379 . S
C548 C545 1.363 . S
C548 N546 1.356 . S
C549 C543 1.363 . S
C549 C544 1.379 . S
C549 N547 1.356 . S
N550 C542 1.356 . S
N550 H556 0.984 . S
N550 H557 0.984 . S
N551 C544 1.356 . S
N551 H554 0.984 . S
N551 H555 0.985 . S
H552 N547 0.984 . S
H553 N547 0.985 . S
H554 N551 0.984 . S
H555 N551 0.985 . S
H556 N550 0.984 . S
H557 N550 0.984 . S
H558 N546 0.984 . S
H559 N546 0.985 . S
C560 C561 1.363 . S
C560 C566 1.379 . S
C560 N568 1.356 . S
C561 C560 1.363 . S
C561 C567 1.363 . S
C562 C563 1.363 . S
C562 C567 1.379 . S
C562 N569 1.356 . S
C563 C562 1.363 . S
C563 C566 1.363 . S
N564 C566 1.356 . S
N564 H576 0.984 . S
N564 H577 0.985 . S
N565 C567 1.356 1_565 S
N565 H570 0.984 . S
N565 H571 0.985 . S
C566 C560 1.379 . S
C566 C563 1.363 . S
C566 N564 1.356 . S
C567 C561 1.363 . S
C567 C562 1.379 . S
C567 N565 1.356 1_545 S
N568 C560 1.356 . S
N568 H574 0.984 . S
N568 H575 0.984 . S
N569 C562 1.356 . S
N569 H572 0.984 . S
N569 H573 0.985 . S
H570 N565 0.984 . S
H571 N565 0.985 . S
H572 N569 0.984 . S
H573 N569 0.985 . S
H574 N568 0.984 . S
H575 N568 0.984 . S
H576 N564 0.984 . S
H577 N564 0.985 . S
C578 C579 1.363 . S
C578 C584 1.379 . S
C578 N586 1.356 . S
C579 C578 1.363 . S
C579 C585 1.363 . S
C580 C581 1.363 . S
C580 C585 1.379 . S
C580 N587 1.356 . S
C581 C580 1.363 . S
C581 C584 1.363 . S
N582 C584 1.356 . S
N582 H594 0.984 . S
N582 H595 0.985 . S
N583 C585 1.356 1_545 S
N583 H588 0.984 . S
N583 H589 0.985 . S
C584 C578 1.379 . S
C584 C581 1.363 . S
C584 N582 1.356 . S
C585 C579 1.363 . S
C585 C580 1.379 . S
C585 N583 1.356 1_565 S
N586 C578 1.356 . S
N586 H592 0.984 . S
N586 H593 0.984 . S
N587 C580 1.356 . S
N587 H590 0.984 . S
N587 H591 0.985 . S
H588 N583 0.984 . S
H589 N583 0.985 . S
H590 N587 0.984 . S
H591 N587 0.985 . S
H592 N586 0.984 . S
H593 N586 0.984 . S
H594 N582 0.984 . S
H595 N582 0.985 . S
C596 C597 1.363 . S
C596 C602 1.379 . S
C596 N604 1.356 . S
C597 C596 1.363 . S
C597 C603 1.363 . S
C598 C599 1.363 . S
C598 C603 1.379 . S
C598 N605 1.356 . S
C599 C598 1.363 . S
C599 C602 1.363 . S
N600 C602 1.356 . S
N600 H612 0.984 . S
N600 H613 0.985 . S
N601 C603 1.356 1_565 S
N601 H606 0.984 . S
N601 H607 0.985 . S
C602 C596 1.379 . S
C602 C599 1.363 . S
C602 N600 1.356 . S
C603 C597 1.363 . S
C603 C598 1.379 . S
C603 N601 1.356 1_545 S
N604 C596 1.356 . S
N604 H610 0.984 . S
N604 H611 0.984 . S
N605 C598 1.356 . S
N605 H608 0.984 . S
N605 H609 0.985 . S
H606 N601 0.984 . S
H607 N601 0.985 . S
H608 N605 0.984 . S
H609 N605 0.985 . S
H610 N604 0.984 . S
H611 N604 0.984 . S
H612 N600 0.984 . S
H613 N600 0.985 . S
C614 C615 1.363 . S
C614 C620 1.379 . S
C614 N622 1.356 . S
C615 C614 1.363 . S
C615 C621 1.363 . S
C616 C617 1.363 . S
C616 C621 1.379 . S
C616 N623 1.356 . S
C617 C616 1.363 . S
C617 C620 1.363 . S
N618 C620 1.356 . S
N618 H630 0.984 . S
N618 H631 0.985 . S
N619 C621 1.356 . S
N619 H624 0.984 . S
N619 H625 0.985 . S
C620 C614 1.379 . S
C620 C617 1.363 . S
C620 N618 1.356 . S
C621 C615 1.363 . S
C621 C616 1.379 . S
C621 N619 1.356 . S
N622 C614 1.356 . S
N622 H628 0.984 . S
N622 H629 0.984 . S
N623 C616 1.356 . S
N623 H626 0.984 . S
N623 H627 0.985 . S
H624 N619 0.984 . S
H625 N619 0.985 . S
H626 N623 0.984 . S
H627 N623 0.985 . S
H628 N622 0.984 . S
H629 N622 0.984 . S
H630 N618 0.984 . S
H631 N618 0.985 . S
C632 C633 1.363 . S
C632 C638 1.379 . S
C632 N640 1.356 . S
C633 C632 1.363 . S
C633 C639 1.363 . S
C634 C635 1.363 . S
C634 C639 1.379 . S
C634 N641 1.356 . S
C635 C634 1.363 . S
C635 C638 1.363 . S
N636 C638 1.356 . S
N636 H648 0.984 . S
N636 H649 0.985 . S
N637 C639 1.356 . S
N637 H642 0.984 . S
N637 H643 0.985 . S
C638 C632 1.379 . S
C638 C635 1.363 . S
C638 N636 1.356 . S
C639 C633 1.363 . S
C639 C634 1.379 . S
C639 N637 1.356 . S
N640 C632 1.356 . S
N640 H646 0.984 . S
N640 H647 0.984 . S
N641 C634 1.356 . S
N641 H644 0.984 . S
N641 H645 0.985 . S
H642 N637 0.984 . S
H643 N637 0.985 . S
H644 N641 0.984 . S
H645 N641 0.985 . S
H646 N640 0.984 . S
H647 N640 0.984 . S
H648 N636 0.984 . S
H649 N636 0.985 . S
C650 C651 1.363 . S
C650 C656 1.379 . S
C650 N658 1.356 . S
C651 C650 1.363 . S
C651 C657 1.363 . S
C652 C653 1.363 . S
C652 C657 1.379 . S
C652 N659 1.356 . S
C653 C652 1.363 . S
C653 C656 1.363 . S
N654 C656 1.356 . S
N654 H666 0.984 . S
N654 H667 0.985 . S
N655 C657 1.356 . S
N655 H660 0.984 . S
N655 H661 0.985 . S
C656 C650 1.379 . S
C656 C653 1.363 . S
C656 N654 1.356 . S
C657 C651 1.363 . S
C657 C652 1.379 . S
C657 N655 1.356 . S
N658 C650 1.356 . S
N658 H664 0.984 . S
N658 H665 0.984 . S
N659 C652 1.356 . S
N659 H662 0.984 . S
N659 H663 0.985 . S
H660 N655 0.984 . S
H661 N655 0.985 . S
H662 N659 0.984 . S
H663 N659 0.985 . S
H664 N658 0.984 . S
H665 N658 0.984 . S
H666 N654 0.984 . S
H667 N654 0.985 . S
C668 C669 1.363 . S
C668 C674 1.379 . S
C668 N676 1.356 . S
C669 C668 1.363 . S
C669 C675 1.363 . S
C670 C671 1.363 . S
C670 C675 1.379 . S
C670 N677 1.356 . S
C671 C670 1.363 . S
C671 C674 1.363 . S
N672 C674 1.356 . S
N672 H684 0.984 . S
N672 H685 0.985 . S
N673 C675 1.356 . S
N673 H678 0.984 . S
N673 H679 0.985 . S
C674 C668 1.379 . S
C674 C671 1.363 . S
C674 N672 1.356 . S
C675 C669 1.363 . S
C675 C670 1.379 . S
C675 N673 1.356 . S
N676 C668 1.356 . S
N676 H682 0.984 . S
N676 H683 0.984 . S
N677 C670 1.356 . S
N677 H680 0.984 . S
N677 H681 0.985 . S
H678 N673 0.984 . S
H679 N673 0.985 . S
H680 N677 0.984 . S
H681 N677 0.985 . S
H682 N676 0.984 . S
H683 N676 0.984 . S
H684 N672 0.984 . S
H685 N672 0.985 . S
C686 C687 1.363 . S
C686 C692 1.379 . S
C686 N694 1.356 . S
C687 C686 1.363 . S
C687 C693 1.363 . S
C688 C689 1.363 . S
C688 C693 1.379 . S
C688 N695 1.356 . S
C689 C688 1.363 . S
C689 C692 1.363 . S
N690 C692 1.356 . S
N690 H702 0.984 . S
N690 H703 0.985 . S
N691 C693 1.356 . S
N691 H696 0.984 . S
N691 H697 0.985 . S
C692 C686 1.379 . S
C692 C689 1.363 . S
C692 N690 1.356 . S
C693 C687 1.363 . S
C693 C688 1.379 . S
C693 N691 1.356 . S
N694 C686 1.356 . S
N694 H700 0.984 . S
N694 H701 0.984 . S
N695 C688 1.356 . S
N695 H698 0.984 . S
N695 H699 0.985 . S
H696 N691 0.984 . S
H697 N691 0.985 . S
H698 N695 0.984 . S
H699 N695 0.985 . S
H700 N694 0.984 . S
H701 N694 0.984 . S
H702 N690 0.984 . S
H703 N690 0.985 . S
C704 C705 1.363 . S
C704 C710 1.379 . S
C704 N712 1.356 . S
C705 C704 1.363 . S
C705 C711 1.363 . S
C706 C707 1.363 . S
C706 C711 1.379 . S
C706 N713 1.356 . S
C707 C706 1.363 . S
C707 C710 1.363 . S
N708 C710 1.356 . S
N708 H720 0.984 . S
N708 H721 0.985 . S
N709 C711 1.356 . S
N709 H714 0.984 . S
N709 H715 0.985 . S
C710 C704 1.379 . S
C710 C707 1.363 . S
C710 N708 1.356 . S
C711 C705 1.363 . S
C711 C706 1.379 . S
C711 N709 1.356 . S
N712 C704 1.356 . S
N712 H718 0.984 . S
N712 H719 0.984 . S
N713 C706 1.356 . S
N713 H716 0.984 . S
N713 H717 0.985 . S
H714 N709 0.984 . S
H715 N709 0.985 . S
H716 N713 0.984 . S
H717 N713 0.985 . S
H718 N712 0.984 . S
H719 N712 0.984 . S
H720 N708 0.984 . S
H721 N708 0.985 . S
C722 C723 1.363 . S
C722 C728 1.379 . S
C722 N730 1.356 . S
C723 C722 1.363 . S
C723 C729 1.363 . S
C724 C725 1.363 . S
C724 C729 1.379 . S
C724 N731 1.356 . S
C725 C724 1.363 . S
C725 C728 1.363 . S
N726 C728 1.356 . S
N726 H738 0.984 . S
N726 H739 0.985 . S
N727 C729 1.356 . S
N727 H732 0.984 . S
N727 H733 0.985 . S
C728 C722 1.379 . S
C728 C725 1.363 . S
C728 N726 1.356 . S
C729 C723 1.363 . S
C729 C724 1.379 . S
C729 N727 1.356 . S
N730 C722 1.356 . S
N730 H736 0.984 . S
N730 H737 0.984 . S
N731 C724 1.356 . S
N731 H734 0.984 . S
N731 H735 0.985 . S
H732 N727 0.984 . S
H733 N727 0.985 . S
H734 N731 0.984 . S
H735 N731 0.985 . S
H736 N730 0.984 . S
H737 N730 0.984 . S
H738 N726 0.984 . S
H739 N726 0.985 . S
C740 C741 1.363 . S
C740 C746 1.379 . S
C740 N748 1.356 . S
C741 C740 1.363 . S
C741 C747 1.363 . S
C742 C743 1.363 . S
C742 C747 1.379 . S
C742 N749 1.356 . S
C743 C742 1.363 . S
C743 C746 1.363 . S
N744 C746 1.356 . S
N744 H756 0.984 . S
N744 H757 0.985 . S
N745 C747 1.356 . S
N745 H750 0.984 . S
N745 H751 0.985 . S
C746 C740 1.379 . S
C746 C743 1.363 . S
C746 N744 1.356 . S
C747 C741 1.363 . S
C747 C742 1.379 . S
C747 N745 1.356 . S
N748 C740 1.356 . S
N748 H754 0.984 . S
N748 H755 0.984 . S
N749 C742 1.356 . S
N749 H752 0.984 . S
N749 H753 0.985 . S
H750 N745 0.984 . S
H751 N745 0.985 . S
H752 N749 0.984 . S
H753 N749 0.985 . S
H754 N748 0.984 . S
H755 N748 0.984 . S
H756 N744 0.984 . S
H757 N744 0.985 . S
C758 C759 1.363 . S
C758 C764 1.379 . S
C758 N766 1.356 . S
C759 C758 1.363 . S
C759 C765 1.363 . S
C760 C761 1.363 . S
C760 C765 1.379 . S
C760 N767 1.356 . S
C761 C760 1.363 . S
C761 C764 1.363 . S
N762 C764 1.356 . S
N762 H774 0.984 . S
N762 H775 0.985 . S
N763 C765 1.356 . S
N763 H768 0.984 . S
N763 H769 0.985 . S
C764 C758 1.379 . S
C764 C761 1.363 . S
C764 N762 1.356 . S
C765 C759 1.363 . S
C765 C760 1.379 . S
C765 N763 1.356 . S
N766 C758 1.356 . S
N766 H772 0.984 . S
N766 H773 0.984 . S
N767 C760 1.356 . S
N767 H770 0.984 . S
N767 H771 0.985 . S
H768 N763 0.984 . S
H769 N763 0.985 . S
H770 N767 0.984 . S
H771 N767 0.985 . S
H772 N766 0.984 . S
H773 N766 0.984 . S
H774 N762 0.984 . S
H775 N762 0.985 . S
C345 C23 1.499 . S
C347 C282 1.536 . S
C365 C260 1.501 . S
C363 C55 1.553 . S
C383 C286 1.538 . S
C381 C87 1.598 . S
C401 C264 1.501 . S
C399 C119 1.452 . S
C419 C326 1.538 . S
C417 C151 1.499 . S
C437 C304 1.501 . S
C435 C183 1.552 . S
C453 C215 1.597 . S
C455 C330 1.538 . S
C473 C308 1.501 . S
C471 C247 1.455 . S
C489 C29 1.501 . S
C491 C331 1.595 . S
C509 C309 1.529 . S
C507 C49 1.528 . S
C525 C93 1.589 . S
C527 C328 1.595 . S
C543 C113 1.453 . S
C545 C306 1.529 . S
C563 C287 1.595 . S
C561 C157 1.503 1_545 S
C579 C177 1.528 . S
C581 C265 1.526 . S
C599 C284 1.595 . S
C597 C221 1.587 . S
C617 C262 1.529 . S
C615 C241 1.455 1_565 S
C635 C305 1.546 . S
C633 C17 1.462 . S
C653 C327 1.555 . S
C651 C61 1.565 . S
C669 C81 1.558 . S
C671 C307 1.546 . S
C689 C329 1.555 . S
C687 C125 1.448 . S
C707 C261 1.546 . S
C705 C145 1.463 . S
C723 C189 1.565 . S
C725 C283 1.552 . S
C741 C209 1.558 . S
C743 C263 1.543 . S
C759 C253 1.448 . S
C761 C285 1.557 . S
