# Generated by pormake.
# Topology zzz, (3,6)-cn, num edge types: 1
# Building blocks:
#     Node 0, Type 0, BuildingBlock: KAKCAD_clean_linker_0, # of connection points: 3
#     Node 1, Type 0, BuildingBlock: KAKCAD_clean_linker_0, # of connection points: 3
#     Node 2, Type 0, BuildingBlock: KAKCAD_clean_linker_0, # of connection points: 3
#     Node 3, Type 0, BuildingBlock: KAKCAD_clean_linker_0, # of connection points: 3
#     Node 4, Type 0, BuildingBlock: KAKCAD_clean_linker_0, # of connection points: 3
#     Node 5, Type 0, BuildingBlock: KAKCAD_clean_linker_0, # of connection points: 3
#     Node 6, Type 0, BuildingBlock: KAKCAD_clean_linker_0, # of connection points: 3
#     Node 7, Type 0, BuildingBlock: KAKCAD_clean_linker_0, # of connection points: 3
#     Node 8, Type 1, BuildingBlock: LEVNOQ01_clean_sbu_1, # of connection points: 6
#     Node 9, Type 1, BuildingBlock: LEVNOQ01_clean_sbu_1, # of connection points: 6
#     Node 10, Type 1, BuildingBlock: LEVNOQ01_clean_sbu_1, # of connection points: 6
#     Node 11, Type 1, BuildingBlock: LEVNOQ01_clean_sbu_1, # of connection points: 6
#     Edge 12, Type (0, 1), BuildingBlock: UVAHIK_clean_linker_0, # of connection points: 2
#     Edge 13, Type (0, 1), BuildingBlock: UVAHIK_clean_linker_0, # of connection points: 2
#     Edge 14, Type (0, 1), BuildingBlock: UVAHIK_clean_linker_0, # of connection points: 2
#     Edge 15, Type (0, 1), BuildingBlock: UVAHIK_clean_linker_0, # of connection points: 2
#     Edge 16, Type (0, 1), BuildingBlock: UVAHIK_clean_linker_0, # of connection points: 2
#     Edge 17, Type (0, 1), BuildingBlock: UVAHIK_clean_linker_0, # of connection points: 2
#     Edge 18, Type (0, 1), BuildingBlock: UVAHIK_clean_linker_0, # of connection points: 2
#     Edge 19, Type (0, 1), BuildingBlock: UVAHIK_clean_linker_0, # of connection points: 2
#     Edge 20, Type (0, 1), BuildingBlock: UVAHIK_clean_linker_0, # of connection points: 2
#     Edge 21, Type (0, 1), BuildingBlock: UVAHIK_clean_linker_0, # of connection points: 2
#     Edge 22, Type (0, 1), BuildingBlock: UVAHIK_clean_linker_0, # of connection points: 2
#     Edge 23, Type (0, 1), BuildingBlock: UVAHIK_clean_linker_0, # of connection points: 2
#     Edge 24, Type (0, 1), BuildingBlock: UVAHIK_clean_linker_0, # of connection points: 2
#     Edge 25, Type (0, 1), BuildingBlock: UVAHIK_clean_linker_0, # of connection points: 2
#     Edge 26, Type (0, 1), BuildingBlock: UVAHIK_clean_linker_0, # of connection points: 2
#     Edge 27, Type (0, 1), BuildingBlock: UVAHIK_clean_linker_0, # of connection points: 2
#     Edge 28, Type (0, 1), BuildingBlock: UVAHIK_clean_linker_0, # of connection points: 2
#     Edge 29, Type (0, 1), BuildingBlock: UVAHIK_clean_linker_0, # of connection points: 2
#     Edge 30, Type (0, 1), BuildingBlock: UVAHIK_clean_linker_0, # of connection points: 2
#     Edge 31, Type (0, 1), BuildingBlock: UVAHIK_clean_linker_0, # of connection points: 2
#     Edge 32, Type (0, 1), BuildingBlock: UVAHIK_clean_linker_0, # of connection points: 2
#     Edge 33, Type (0, 1), BuildingBlock: UVAHIK_clean_linker_0, # of connection points: 2
#     Edge 34, Type (0, 1), BuildingBlock: UVAHIK_clean_linker_0, # of connection points: 2
#     Edge 35, Type (0, 1), BuildingBlock: UVAHIK_clean_linker_0, # of connection points: 2
# Relax obj value: 0.303
# Max RMSD: 0.217
# Mean RMSD: 0.206
data_MOF--net-zzz--node1-LEVNOQ01_clean_sbu_1--node2-KAKCAD_clean_linker_0--edge1-UVAHIK_clean_linker_0
_symmetry_space_group_name_H-M    P1
_symmetry_Int_Tables_number       1
_symmetry_cell_setting            triclinic
loop_
_symmetry_equiv_pos_as_xyz
'x, y, z'
_cell_length_a     68.556645
_cell_length_b     73.968294
_cell_length_c     26.13905
_cell_angle_alpha  89.880558
_cell_angle_beta   90.045632
_cell_angle_gamma 88.278493
loop_
_atom_site_label
_atom_site_type_symbol
_atom_site_fract_x
_atom_site_fract_y
_atom_site_fract_z
_atom_type_partial_charge
C0 C 0.80172 0.61131 0.97841 0.0
C1 C 0.81908 0.60084 0.97825 0.0
C2 C 0.78924 0.61067 0.02079 0.0
C3 C 0.79392 0.59934 0.06285 0.0
C4 C 0.81133 0.58887 0.06176 0.0
C5 C 0.82378 0.5897 0.02015 0.0
C6 C 0.78025 0.59709 0.10619 0.0
C7 C 0.76024 0.59579 0.09707 0.0
C8 C 0.74742 0.59065 0.13606 0.0
C9 C 0.75503 0.58641 0.18507 0.0
C10 C 0.77513 0.58805 0.19479 0.0
C11 C 0.78741 0.59382 0.15569 0.0
C12 C 0.78444 0.582 0.24318 0.0
C13 C 0.78751 0.59436 0.28285 0.0
C14 C 0.79407 0.56499 0.24484 0.0
C15 C 0.80688 0.56052 0.28487 0.0
C16 C 0.81059 0.5731 0.32359 0.0
C17 C 0.7266 0.5882 0.12221 0.0
C18 C 0.71713 0.60084 0.08958 0.0
C19 C 0.71719 0.5721 0.13412 0.0
C20 C 0.69937 0.56817 0.11077 0.0
C21 C 0.69082 0.5802 0.07488 0.0
C22 C 0.69956 0.59681 0.06582 0.0
C23 C 0.80054 0.58996 0.32275 0.0
H24 H 0.79788 0.61987 0.94606 0.0
H25 H 0.77591 0.6189 0.02051 0.0
H26 H 0.81514 0.57951 0.09235 0.0
H27 H 0.83699 0.58126 0.0201 0.0
H28 H 0.75477 0.5976 0.05842 0.0
H29 H 0.80288 0.59489 0.16347 0.0
H30 H 0.74553 0.58165 0.215 0.0
H31 H 0.78061 0.60772 0.28158 0.0
H32 H 0.79243 0.5555 0.21371 0.0
H33 H 0.81465 0.54755 0.28423 0.0
H34 H 0.72387 0.61349 0.08026 0.0
H35 H 0.72418 0.56205 0.15873 0.0
H36 H 0.80314 0.59987 0.35224 0.0
H37 H 0.69311 0.60645 0.039 0.0
H38 H 0.6929 0.55526 0.11841 0.0
C39 C 0.98735 0.78011 0.98785 0.0
C40 C 0.00188 0.79299 0.98356 0.0
C41 C 0.98629 0.76934 0.03168 0.0
C42 C -0.0004 0.77147 0.07207 0.0
C43 C 0.01444 0.78396 0.06704 0.0
C44 C 0.0156 0.79457 0.0232 0.0
C45 C 0.99784 0.76093 0.11982 0.0
C46 C 0.99496 0.74236 0.11767 0.0
C47 C 0.99318 0.73215 0.16251 0.0
C48 C 0.99403 0.74072 0.21049 0.0
C49 C 0.99686 0.7595 0.21303 0.0
C50 C -0.00107 0.76941 0.16759 0.0
C51 C 0.99686 0.76942 0.26217 0.0
C52 C 0.97971 0.77109 0.29133 0.0
C53 C 0.013 0.77966 0.27563 0.0
C54 C 0.01182 0.79181 0.31651 0.0
C55 C 0.99433 0.79424 0.34391 0.0
C56 C 0.99089 0.71251 0.15661 0.0
C57 C 0.9742 0.7064 0.13164 0.0
C58 C 0.00718 0.70072 0.16235 0.0
C59 C 0.00731 0.68354 0.13978 0.0
C60 C 0.9911 0.67803 0.11157 0.0
C61 C 0.97431 0.68927 0.10928 0.0
C62 C 0.97838 0.78356 0.33159 0.0
H63 H 0.97652 0.77874 0.95799 0.0
H64 H 0.97466 0.7598 0.03479 0.0
H65 H 0.02499 0.78572 0.09738 0.0
H66 H 0.0267 0.80468 0.02155 0.0
H67 H 0.99449 0.73568 0.08077 0.0
H68 H 0.00078 0.78391 0.16947 0.0
H69 H 0.99248 0.7329 0.24527 0.0
H70 H 0.96699 0.76353 0.2811 0.0
H71 H 0.02628 0.77876 0.2532 0.0
H72 H 0.02426 0.79999 0.32502 0.0
H73 H 0.96168 0.71545 0.12573 0.0
H74 H 0.02038 0.70537 0.18024 0.0
H75 H 0.96476 0.78521 0.35225 0.0
H76 H 0.96179 0.68533 0.08703 0.0
H77 H 0.0205 0.67512 0.14121 0.0
C78 C 0.69741 0.86744 0.98445 0.0
C79 C 0.67968 0.87734 0.98569 0.0
C80 C 0.70997 0.86773 0.02683 0.0
C81 C 0.70502 0.8782 0.07028 0.0
C82 C 0.68722 0.88813 0.07049 0.0
C83 C 0.67468 0.88756 0.02899 0.0
C84 C 0.71874 0.88027 0.11382 0.0
C85 C 0.73872 0.88211 0.10496 0.0
C86 C 0.75129 0.88771 0.14408 0.0
C87 C 0.74339 0.89194 0.19277 0.0
C88 C 0.72334 0.8899 0.2021 0.0
C89 C 0.71147 0.88328 0.16325 0.0
C90 C 0.71342 0.89739 0.24811 0.0
C91 C 0.71419 0.88841 0.29545 0.0
C92 C 0.7003 0.91214 0.24172 0.0
C93 C 0.68767 0.91747 0.28104 0.0
C94 C 0.68781 0.90824 0.32817 0.0
C95 C 0.772 0.89105 0.13059 0.0
C96 C 0.78213 0.87917 0.09728 0.0
C97 C 0.78082 0.9072 0.1447 0.0
C98 C 0.79872 0.91188 0.12328 0.0
C99 C 0.80816 0.90058 0.08699 0.0
C100 C 0.79987 0.8839 0.0755 0.0
C101 C 0.70148 0.89379 0.33523 0.0
H102 H 0.70151 0.85962 0.95096 0.0
H103 H 0.72358 0.85993 0.02539 0.0
H104 H 0.68315 0.89694 0.10198 0.0
H105 H 0.66121 0.89562 0.03008 0.0
H106 H 0.74428 0.88053 0.06639 0.0
H107 H 0.69606 0.88174 0.1709 0.0
H108 H 0.75256 0.89734 0.22248 0.0
H109 H 0.72397 0.87679 0.30088 0.0
H110 H 0.69918 0.91905 0.20518 0.0
H111 H 0.67716 0.92836 0.27343 0.0
H112 H 0.77586 0.8665 0.08608 0.0
H113 H 0.77341 0.91671 0.17005 0.0
H114 H 0.70211 0.88645 0.37108 0.0
H115 H 0.80651 0.87484 0.04762 0.0
H116 H 0.80486 0.92464 0.13407 0.0
C117 C 0.47644 0.69631 0.34173 0.0
C118 C 0.49364 0.68542 0.3434 0.0
C119 C 0.47365 0.70928 0.30294 0.0
C120 C 0.4881 0.71161 0.26569 0.0
C121 C 0.50572 0.70155 0.26927 0.0
C122 C 0.50849 0.68864 0.30777 0.0
C123 C 0.4837 0.72163 0.21794 0.0
C124 C 0.48408 0.74062 0.21503 0.0
C125 C 0.48192 0.74927 0.16721 0.0
C126 C 0.47909 0.73898 0.12302 0.0
C127 C 0.47925 0.72015 0.1256 0.0
C128 C 0.48126 0.71155 0.17315 0.0
C129 C 0.48008 0.70941 0.07825 0.0
C130 C 0.46585 0.71169 0.03992 0.0
C131 C 0.49554 0.69685 0.07123 0.0
C132 C 0.49637 0.68613 0.02767 0.0
C133 C 0.48165 0.68764 0.99035 0.0
C134 C 0.48571 0.76858 0.15997 0.0
C135 C 0.47029 0.78144 0.16014 0.0
C136 C 0.50392 0.77333 0.1406 0.0
C137 C 0.5064 0.79031 0.11867 0.0
C138 C 0.4907 0.80296 0.11576 0.0
C139 C 0.47281 0.79858 0.13861 0.0
C140 C 0.46653 0.70073 -0.00364 0.0
H141 H 0.4647 0.69406 0.36848 0.0
H142 H 0.45982 0.71668 0.30022 0.0
H143 H 0.51696 0.70303 0.24057 0.0
H144 H 0.522 0.68066 0.30851 0.0
H145 H 0.487 0.74848 0.24899 0.0
H146 H 0.48166 0.69689 0.1751 0.0
H147 H 0.47826 0.74562 0.08597 0.0
H148 H 0.4539 0.72146 0.04456 0.0
H149 H 0.50686 0.69511 0.09995 0.0
H150 H 0.50798 0.67592 0.02475 0.0
H151 H 0.45602 0.77787 0.17401 0.0
H152 H 0.51584 0.76338 0.13895 0.0
H153 H 0.45495 0.70206 0.96826 0.0
H154 H 0.46048 0.80807 0.13782 0.0
H155 H 0.52027 0.79297 0.10082 0.0
C156 C 0.19278 0.38416 0.47764 0.0
C157 C 0.17703 0.37248 0.47328 0.0
C158 C 0.20694 0.38474 0.43963 0.0
C159 C 0.20572 0.37372 0.39617 0.0
C160 C 0.19101 0.36092 0.39375 0.0
C161 C 0.17687 0.36022 0.43219 0.0
C162 C 0.21816 0.37746 0.35125 0.0
C163 C 0.23772 0.38172 0.3582 0.0
C164 C 0.24855 0.38903 0.31824 0.0
C165 C 0.23991 0.39147 0.26968 0.0
C166 C 0.22027 0.38682 0.2615 0.0
C167 C 0.20967 0.37976 0.30275 0.0
C168 C 0.20975 0.3911 0.21256 0.0
C169 C 0.21247 0.40753 0.1868 0.0
C170 C 0.19516 0.37969 0.19456 0.0
C171 C 0.18278 0.38509 0.15439 0.0
C172 C 0.18476 0.40199 0.13046 0.0
C173 C 0.26789 0.39615 0.33106 0.0
C174 C 0.26876 0.41097 0.36429 0.0
C175 C 0.28518 0.38659 0.31829 0.0
C176 C 0.30302 0.39143 0.34005 0.0
C177 C 0.30382 0.40594 0.37483 0.0
C178 C 0.28648 0.41583 0.38582 0.0
C179 C 0.2002 0.41287 0.14619 0.0
H180 H 0.19336 0.39406 0.50801 0.0
H181 H 0.21793 0.39491 0.44244 0.0
H182 H 0.18991 0.35208 0.36097 0.0
H183 H 0.16516 0.35081 0.42811 0.0
H184 H 0.2443 0.38025 0.39579 0.0
H185 H 0.19423 0.3774 0.29828 0.0
H186 H 0.24821 0.39749 0.23917 0.0
H187 H 0.22345 0.41674 0.19954 0.0
H188 H 0.19281 0.36677 0.21282 0.0
H189 H 0.1711 0.37631 0.14377 0.0
H190 H 0.25552 0.41829 0.37549 0.0
H191 H 0.28474 0.3749 0.29347 0.0
H192 H 0.20256 0.42577 0.12795 0.0
H193 H 0.28639 0.42684 0.41306 0.0
H194 H 0.31611 0.38361 0.33046 0.0
C195 C 0.99634 0.19461 0.44364 0.0
C196 C 0.01429 0.18494 0.44812 0.0
C197 C 0.99286 0.20628 0.40242 0.0
C198 C 0.0071 0.20822 0.36457 0.0
C199 C 0.02529 0.19928 0.36997 0.0
C200 C 0.02896 0.18793 0.41172 0.0
C201 C 0.00287 0.21916 0.31865 0.0
C202 C 0.99779 0.23747 0.32325 0.0
C203 C 0.99511 0.24834 0.27965 0.0
C204 C 0.99672 0.24046 0.23058 0.0
C205 C 0.00131 0.22179 0.22583 0.0
C206 C 0.00458 0.21139 0.27013 0.0
C207 C 0.00274 0.21247 0.17569 0.0
C208 C 0.98625 0.21113 0.14422 0.0
C209 C 0.01959 0.20201 0.16398 0.0
C210 C 0.01962 0.18966 0.12359 0.0
C211 C 0.00272 0.18734 0.09414 0.0
C212 C 0.99307 0.26808 0.28791 0.0
C213 C 0.97772 0.27501 0.3184 0.0
C214 C 0.00904 0.27896 0.27793 0.0
C215 C 0.01047 0.29581 0.30173 0.0
C216 C 0.99585 0.30215 0.33555 0.0
C217 C 0.97902 0.29194 0.34171 0.0
C218 C 0.98621 0.19862 0.10392 0.0
H219 H 0.98456 0.19247 0.47031 0.0
H220 H 0.97874 0.21315 0.39883 0.0
H221 H 0.03658 0.2009 0.34147 0.0
H222 H 0.04308 0.18105 0.41453 0.0
H223 H 0.99698 0.2435 0.36103 0.0
H224 H 0.00821 0.19705 0.26693 0.0
H225 H 0.99478 0.24878 0.19669 0.0
H226 H 0.97299 0.21887 0.15285 0.0
H227 H 0.03244 0.20269 0.18799 0.0
H228 H 0.03252 0.18112 0.11759 0.0
H229 H 0.96542 0.2667 0.32738 0.0
H230 H 0.02121 0.27376 0.25538 0.0
H231 H 0.97301 0.19731 0.0816 0.0
H232 H 0.96754 0.29638 0.36766 0.0
H233 H 0.02349 0.30348 0.29574 0.0
C234 C 0.30296 0.09363 0.4715 0.0
C235 C 0.31832 0.10576 0.46753 0.0
C236 C 0.28851 0.09321 0.43414 0.0
C237 C 0.28909 0.10483 0.39172 0.0
C238 C 0.30334 0.11807 0.38993 0.0
C239 C 0.31773 0.11865 0.42779 0.0
C240 C 0.27665 0.10122 0.34678 0.0
C241 C 0.25718 0.09668 0.35354 0.0
C242 C 0.2464 0.08955 0.31322 0.0
C243 C 0.25512 0.08735 0.26465 0.0
C244 C 0.27466 0.09236 0.25678 0.0
C245 C 0.28514 0.09934 0.29827 0.0
C246 C 0.28532 0.08876 0.2078 0.0
C247 C 0.28404 0.07206 0.18258 0.0
C248 C 0.29896 0.10115 0.18985 0.0
C249 C 0.31189 0.09651 0.15031 0.0
C250 C 0.31139 0.07943 0.12707 0.0
C251 C 0.22697 0.08255 0.32569 0.0
C252 C 0.22596 0.0674 0.35778 0.0
C253 C 0.20983 0.09273 0.31498 0.0
C254 C 0.19204 0.08809 0.33745 0.0
C255 C 0.19113 0.07322 0.37115 0.0
C256 C 0.20832 0.06279 0.3802 0.0
C257 C 0.2969 0.06746 0.14254 0.0
H258 H 0.30292 0.08327 0.50081 0.0
H259 H 0.27785 0.08272 0.43638 0.0
H260 H 0.30393 0.12736 0.35791 0.0
H261 H 0.32908 0.12844 0.42411 0.0
H262 H 0.25062 0.09785 0.3912 0.0
H263 H 0.30051 0.10201 0.29383 0.0
H264 H 0.24696 0.08138 0.23382 0.0
H265 H 0.27388 0.06211 0.19565 0.0
H266 H 0.30014 0.11427 0.20777 0.0
H267 H 0.32258 0.10618 0.13862 0.0
H268 H 0.2391 0.05965 0.36765 0.0
H269 H 0.21039 0.10473 0.29128 0.0
H270 H 0.29616 0.05417 0.12549 0.0
H271 H 0.20842 0.05151 0.40668 0.0
H272 H 0.17911 0.09635 0.32927 0.0
C273 C 0.49771 0.27801 0.10543 0.0
C274 C 0.51005 0.29273 0.09938 0.0
C275 C 0.49992 0.26628 0.14738 0.0
C276 C 0.51437 0.2692 0.18433 0.0
C277 C 0.52729 0.28337 0.17688 0.0
C278 C 0.5252 0.29496 0.13486 0.0
C279 C 0.51438 0.25929 0.2338 0.0
C280 C 0.51377 0.24024 0.23652 0.0
C281 C 0.51358 0.23159 0.28459 0.0
C282 C 0.51313 0.24196 0.32932 0.0
C283 C 0.51332 0.26076 0.32695 0.0
C284 C 0.51425 0.26936 0.27935 0.0
C285 C 0.51208 0.27141 0.37434 0.0
C286 C 0.49679 0.26885 0.40915 0.0
C287 C 0.52583 0.28458 0.38412 0.0
C288 C 0.524 0.29545 0.4273 0.0
C289 C 0.50823 0.29349 0.46103 0.0
C290 C 0.51351 0.21179 0.2908 0.0
C291 C 0.49632 0.20246 0.28204 0.0
C292 C 0.52878 0.20325 0.31829 0.0
C293 C 0.52634 0.18629 0.34033 0.0
C294 C 0.50852 0.17748 0.3354 0.0
C295 C 0.49384 0.18541 0.30418 0.0
C296 C 0.49476 0.27996 0.45205 0.0
H297 H 0.48602 0.27585 0.07843 0.0
H298 H 0.48969 0.25554 0.1524 0.0
H299 H 0.53859 0.28591 0.20475 0.0
H300 H 0.53486 0.30623 0.13165 0.0
H301 H 0.51384 0.23226 0.20182 0.0
H302 H 0.51411 0.28402 0.27777 0.0
H303 H 0.51259 0.23533 0.36636 0.0
H304 H 0.486 0.25874 0.40205 0.0
H305 H 0.53777 0.28668 0.35785 0.0
H306 H 0.53435 0.30607 0.43278 0.0
H307 H 0.48425 0.20896 0.26166 0.0
H308 H 0.54202 0.21038 0.32628 0.0
H309 H 0.48241 0.27836 0.47731 0.0
H310 H 0.48007 0.17886 0.29898 0.0
H311 H 0.5379 0.18076 0.36448 0.0
O312 O 0.03163 0.97439 0.81167 0.0
Mg313 Mg 0.02834 0.97481 0.73165 0.0
O314 O 0.00108 0.97209 0.79121 0.0
Mg315 Mg 0.99459 -0.00955 0.72019 0.0
O316 O 0.02676 -0.0014 0.69019 0.0
O317 O 0.05378 0.98097 0.70019 0.0
O318 O 0.98649 0.00928 0.65266 0.0
O319 O 0.99546 0.01595 0.7732 0.0
Mg320 Mg 0.95431 0.00755 0.71885 0.0
O321 O 0.96297 -0.01702 0.74748 0.0
O322 O 0.95502 0.01062 0.63907 0.0
O323 O 0.96562 0.02827 0.76592 0.0
O324 O 0.93182 -0.0067 0.74662 0.0
C325 C 0.00396 0.95086 0.66848 0.0
C326 C 0.01491 0.969 0.82278 0.0
C327 C 0.04535 -0.00465 0.68169 0.0
C328 C 0.97201 0.01472 0.62577 0.0
C329 C 0.98286 0.02851 0.78383 0.0
C330 C 0.94466 0.98097 0.7592 0.0
O331 O 0.01893 0.95064 0.69685 0.0
O332 O 0.99309 0.96516 0.66613 0.0
O333 O 0.44662 -0.01329 0.76195 0.0
Mg334 Mg 0.45986 0.96588 0.71595 0.0
O335 O 0.47284 0.00279 0.77863 0.0
Mg336 Mg 0.49676 -0.01048 0.72393 0.0
O337 O 0.48694 0.9608 0.74477 0.0
O338 O 0.46409 0.94 0.74375 0.0
O339 O 0.52048 0.9762 0.66878 0.0
O340 O 0.51737 -0.01625 0.79072 0.0
Mg341 Mg 0.53353 0.01082 0.73465 0.0
O342 O 0.50696 0.01857 0.70371 0.0
O343 O 0.54674 -0.00736 0.68122 0.0
O344 O 0.53768 0.00444 0.81306 0.0
O345 O 0.53169 0.0373 0.71389 0.0
C346 C 0.46463 -0.01395 0.62551 0.0
C347 C 0.45459 -0.00011 0.78424 0.0
C348 C 0.4814 0.94469 0.75642 0.0
C349 C 0.53834 0.97965 0.65936 0.0
C350 C 0.53054 -0.01086 0.82071 0.0
C351 C 0.5145 0.0343 0.69617 0.0
O352 O 0.45963 0.97021 0.63664 0.0
O353 O 0.476 -0.00554 0.65509 0.0
O354 O 0.52866 0.45101 0.7865 0.0
Mg355 Mg 0.54034 0.47038 0.73608 0.0
O356 O 0.49883 0.46243 0.77419 0.0
Mg357 Mg 0.50094 0.48795 0.72111 0.0
O358 O 0.53205 0.49659 0.75215 0.0
O359 O 0.56245 0.4848 0.76326 0.0
O360 O 0.5024 0.51345 0.66731 0.0
O361 O 0.49159 0.50563 0.78912 0.0
Mg362 Mg 0.4625 0.50492 0.71798 0.0
O363 O 0.4694 0.47903 0.6927 0.0
O364 O 0.47271 0.52595 0.67131 0.0
O365 O 0.46019 0.51064 0.79651 0.0
O366 O 0.43931 0.49217 0.69067 0.0
C367 C 0.52718 0.46393 0.63335 0.0
C368 C 0.51046 0.4507 0.79455 0.0
C369 C 0.55016 0.49829 0.7668 0.0
C370 C 0.4901 0.52603 0.65507 0.0
C371 C 0.47719 0.51223 0.81403 0.0
C372 C 0.4508 0.47842 0.68162 0.0
O373 O 0.54291 0.46406 0.65852 0.0
O374 O 0.51154 0.47074 0.65244 0.0
O375 O 0.95787 0.47252 0.80428 0.0
Mg376 Mg 0.96281 0.46636 0.72614 0.0
O377 O 0.97884 0.49342 0.78708 0.0
Mg378 Mg 0.0 0.48913 0.72078 0.0
O379 O 0.99083 0.45977 0.70184 0.0
O380 O 0.96688 0.43994 0.70475 0.0
O381 O 0.02112 0.48465 0.65257 0.0
O382 O 0.02414 0.4766 0.77598 0.0
Mg383 Mg 0.03434 0.51277 0.7099 0.0
O384 O 0.0082 0.51869 0.74376 0.0
O385 O 0.03428 0.51002 0.63011 0.0
O386 O 0.04972 0.49265 0.75402 0.0
O387 O 0.03216 0.53853 0.73701 0.0
C388 C 0.95865 0.49877 0.6541 0.0
C389 C 0.96527 0.48749 0.81506 0.0
C390 C 0.98458 0.44363 0.69271 0.0
C391 C 0.03122 0.4936 0.62113 0.0
C392 C 0.04241 0.4797 0.77896 0.0
C393 C 0.015 0.53462 0.753 0.0
O394 O 0.95 0.4855 0.67386 0.0
O395 O 0.97643 0.50199 0.66495 0.0
C396 C 0.16841 0.05082 0.40954 0.0
C397 C 0.1728 0.06892 0.3991 0.0
C398 C 0.15277 0.04663 0.44112 0.0
C399 C 0.10568 0.05917 0.49101 0.0
H400 H 0.12196 0.02992 0.60756 0.0
C401 C 0.05182 0.02534 0.63741 0.0
C402 C 0.05732 0.00731 0.64928 0.0
C403 C 0.06446 0.03626 0.60904 0.0
C404 C 0.1171 0.03807 0.57524 0.0
H405 H 0.16329 0.09681 0.41217 0.0
H406 H 0.1354 0.08929 0.46634 0.0
H407 H 0.14645 0.04256 0.55167 0.0
H408 H 0.07984 -0.01358 0.63762 0.0
H409 H 0.10118 0.00498 0.58856 0.0
H410 H 0.0762 0.05372 0.51322 0.0
C411 C 0.14439 0.07846 0.45014 0.0
C412 C 0.13116 0.04536 0.54341 0.0
C413 C 0.16031 0.08271 0.41893 0.0
C414 C 0.07523 0.00033 0.63051 0.0
C415 C 0.08761 0.01106 0.60239 0.0
C416 C 0.09147 0.05162 0.52277 0.0
C417 C 0.14082 0.06038 0.46249 0.0
C418 C 0.12563 0.05547 0.50006 0.0
C419 C 0.08272 0.02927 0.5922 0.0
C420 C 0.09708 0.04037 0.56409 0.0
H421 H 0.17733 0.03981 0.39407 0.0
H422 H 0.15016 0.03256 0.44959 0.0
H423 H 0.10109 0.06701 0.45785 0.0
H424 H 0.03805 0.03108 0.65093 0.0
H425 H 0.06017 0.05022 0.60139 0.0
C426 C 0.48678 0.15961 0.39294 0.0
C427 C 0.50473 0.16127 0.36738 0.0
C428 C 0.48419 0.14577 0.4288 0.0
C429 C 0.51326 0.11711 0.51634 0.0
H430 H 0.46863 0.08611 0.52318 0.0
C431 C 0.51948 0.04974 0.61437 0.0
C432 C 0.50708 0.04666 0.65591 0.0
C433 C 0.51543 0.06373 0.58009 0.0
C434 C 0.48097 0.09491 0.52217 0.0
H435 H 0.53358 0.14896 0.35735 0.0
H436 H 0.52913 0.12502 0.41996 0.0
H437 H 0.46916 0.11081 0.4598 0.0
H438 H 0.47999 0.05493 0.69263 0.0
H439 H 0.47267 0.07984 0.63138 0.0
H440 H 0.52536 0.10107 0.57731 0.0
C441 C 0.51716 0.13459 0.41288 0.0
C442 C 0.48133 0.10896 0.48592 0.0
C443 C 0.5197 0.1483 0.37691 0.0
C444 C 0.4897 0.05708 0.66069 0.0
C445 C 0.48558 0.07127 0.62589 0.0
C446 C 0.5129 0.10319 0.55225 0.0
C447 C 0.49955 0.13342 0.44011 0.0
C448 C 0.49781 0.1198 0.48162 0.0
C449 C 0.49888 0.07507 0.58651 0.0
C450 C 0.49707 0.09159 0.55448 0.0
H451 H 0.47502 0.1695 0.38713 0.0
H452 H 0.47049 0.14524 0.44928 0.0
H453 H 0.5259 0.12555 0.51498 0.0
H454 H 0.5329 0.04177 0.60972 0.0
H455 H 0.52573 0.06618 0.54959 0.0
C456 C 0.32667 0.42839 0.41213 0.0
C457 C 0.32224 0.4103 0.4021 0.0
C458 C 0.3426 0.43258 0.44281 0.0
C459 C 0.38917 0.41526 0.49823 0.0
H460 H 0.37813 0.45259 0.59887 0.0
C461 C 0.44723 0.45614 0.61021 0.0
C462 C 0.44185 0.46236 0.65906 0.0
C463 C 0.43446 0.44551 0.58179 0.0
C464 C 0.38148 0.44196 0.57154 0.0
H465 H 0.3317 0.38242 0.41523 0.0
H466 H 0.35976 0.38981 0.46848 0.0
H467 H 0.35242 0.44319 0.54194 0.0
H468 H 0.42004 0.46093 0.71859 0.0
H469 H 0.39818 0.44206 0.67017 0.0
H470 H 0.41846 0.41428 0.52808 0.0
C471 C 0.35082 0.40073 0.45238 0.0
C472 C 0.36675 0.43675 0.53832 0.0
C473 C 0.33477 0.39651 0.42172 0.0
C474 C 0.42454 0.45629 0.68098 0.0
C475 C 0.41191 0.44565 0.65297 0.0
C476 C 0.40407 0.42062 0.53143 0.0
C477 C 0.35463 0.41882 0.46427 0.0
C478 C 0.37042 0.42352 0.50079 0.0
C479 C 0.41614 0.44103 0.60195 0.0
C480 C 0.4004 0.43411 0.56838 0.0
H481 H 0.31762 0.43937 0.39684 0.0
H482 H 0.34537 0.44667 0.45024 0.0
H483 H 0.39246 0.40502 0.46971 0.0
H484 H 0.46033 0.46088 0.59217 0.0
H485 H 0.4382 0.44214 0.54264 0.0
C486 C 0.01694 0.31999 0.39417 0.0
C487 C -0.00095 0.31819 0.36852 0.0
C488 C 0.01963 0.33422 0.42844 0.0
C489 C 0.00053 0.37965 0.46449 0.0
H490 H 0.02266 0.36842 0.59784 0.0
C491 C 0.00568 0.43483 0.61829 0.0
C492 C 0.99607 0.42998 0.66344 0.0
C493 C 0.01127 0.42154 0.58246 0.0
C494 C 0.01664 0.37181 0.56059 0.0
H495 H 0.97004 0.33008 0.35837 0.0
H496 H 0.97478 0.35506 0.41789 0.0
H497 H 0.02078 0.34466 0.53327 0.0
H498 H 0.98632 0.40749 0.70884 0.0
H499 H 0.99648 0.38435 0.64747 0.0
H500 H 0.99579 0.40663 0.4923 0.0
C501 C 0.98677 0.34548 0.41127 0.0
C502 C 0.01562 0.35822 0.52353 0.0
C503 C 0.984 0.33112 0.37741 0.0
C504 C 0.99379 0.41157 0.67438 0.0
C505 C -0.00037 0.39831 0.63915 0.0
C506 C 0.00173 0.39327 0.50135 0.0
C507 C 0.00457 0.34711 0.43754 0.0
C508 C 0.00715 0.36189 0.47541 0.0
C509 C 0.00757 0.40318 0.59171 0.0
C510 C 0.00941 0.38944 0.55024 0.0
H511 H 0.02871 0.31008 0.38889 0.0
H512 H 0.03352 0.33511 0.44789 0.0
H513 H 0.99413 0.38296 0.42762 0.0
H514 H 0.00728 0.44894 0.60874 0.0
H515 H 0.01752 0.4257 0.54644 0.0
C516 C 0.82727 0.9249 0.04411 0.0
C517 C 0.8257 0.90665 0.05849 0.0
C518 C 0.84301 0.93052 0.01473 0.0
C519 C 0.88014 0.91405 0.9229 0.0
H520 H 0.90342 0.96004 0.9519 0.0
C521 C 0.92325 0.95506 0.77467 0.0
C522 C 0.93814 0.96613 0.79194 0.0
C523 C 0.91275 0.94467 0.80929 0.0
C524 C 0.89737 0.94701 0.94359 0.0
H525 H 0.83996 0.88009 0.05356 0.0
H526 H 0.86725 0.88991 0.00154 0.0
H527 H 0.87878 0.94852 0.00928 0.0
H528 H 0.95372 0.97517 0.85855 0.0
H529 H 0.93607 0.95643 0.91905 0.0
H530 H 0.89863 0.91267 0.85677 0.0
C531 C 0.85616 0.89982 0.01297 0.0
C532 C 0.88301 0.94053 0.97621 0.0
C533 C 0.84047 0.89421 0.0428 0.0
C534 C 0.94292 0.96609 0.84407 0.0
C535 C 0.93247 0.95568 0.87878 0.0
C536 C 0.89449 0.92058 0.89008 0.0
C537 C 0.8576 0.91805 -0.00148 0.0
C538 C 0.87398 0.92413 0.96586 0.0
C539 C 0.91674 0.94538 0.86208 0.0
C540 C 0.90311 0.93728 0.89963 0.0
H541 H 0.81602 0.93484 0.05418 0.0
H542 H 0.84347 0.9446 0.00352 0.0
H543 H 0.8734 0.90141 0.91365 0.0
H544 H 0.91892 0.95533 0.73479 0.0
H545 H 0.9006 0.93713 0.79502 0.0
C546 C 0.47692 0.82564 0.05267 0.0
C547 C 0.49248 0.81963 0.08408 0.0
C548 C 0.47927 0.83983 0.01809 0.0
C549 C 0.51105 0.8778 0.98335 0.0
H550 H 0.48566 0.87236 0.85199 0.0
C551 C 0.49474 0.93648 0.84181 0.0
C552 C 0.49294 0.93242 0.78965 0.0
C553 C 0.49988 0.92285 0.87698 0.0
C554 C 0.49321 0.87402 0.88801 0.0
H555 H 0.52247 0.8246 0.10524 0.0
H556 H 0.52672 0.84897 0.04373 0.0
H557 H 0.48339 0.84868 0.91556 0.0
H558 H 0.49614 0.91145 0.7326 0.0
H559 H 0.50585 0.88773 0.79348 0.0
H560 H 0.521 0.90318 0.95514 0.0
C561 C 0.51263 0.84279 0.04623 0.0
C562 C 0.49156 0.86053 0.92498 0.0
C563 C 0.51024 0.82867 0.08119 0.0
C564 C 0.49772 0.9149 0.77263 0.0
C565 C 0.50301 0.90131 0.80763 0.0
C566 C 0.51276 0.89133 0.94611 0.0
C567 C 0.49729 0.8483 0.0135 0.0
C568 C 0.5001 0.86238 0.97351 0.0
C569 C 0.5031 0.90489 0.86051 0.0
C570 C 0.5036 0.88973 0.89821 0.0
H571 H 0.4631 0.81894 0.05316 0.0
H572 H 0.46697 0.84397 0.99432 0.0
H573 H 0.51782 0.87969 0.02031 0.0
H574 H 0.49072 0.94985 0.85582 0.0
H575 H 0.49971 0.92613 0.91733 0.0
C576 C 0.67444 0.57622 0.99027 0.0
C577 C 0.67375 0.57498 0.04388 0.0
C578 C 0.65868 0.57092 0.96042 0.0
C579 C 0.6141 0.54346 0.96684 0.0
H580 H 0.6025 0.56681 0.83691 0.0
C581 C 0.55181 0.51835 0.84255 0.0
C582 C 0.55716 0.51469 0.79177 0.0
C583 C 0.56319 0.5295 0.87302 0.0
C584 C 0.60553 0.56017 0.87314 0.0
H585 H 0.65596 0.56754 0.10841 0.0
H586 H 0.62805 0.55891 0.05664 0.0
H587 H 0.62821 0.57836 0.89137 0.0
H588 H 0.57817 0.52011 0.73246 0.0
H589 H 0.59803 0.53957 0.78526 0.0
H590 H 0.59157 0.5252 0.94845 0.0
C591 C 0.64096 0.56348 0.03732 0.0
C592 C 0.62038 0.56671 0.90433 0.0
C593 C 0.6569 0.56851 0.06714 0.0
C594 C 0.57341 0.52319 0.77108 0.0
C595 C 0.58484 0.53428 0.80149 0.0
C596 C 0.59917 0.53705 0.93593 0.0
C597 C 0.64167 0.56448 0.98345 0.0
C598 C 0.62506 0.55829 0.95139 0.0
C599 C 0.58036 0.5369 0.85351 0.0
C600 C 0.59482 0.54517 0.88842 0.0
H601 H 0.6874 0.58092 0.97131 0.0
H602 H 0.66006 0.57152 0.9192 0.0
H603 H 0.61744 0.53632 0.00211 0.0
H604 H 0.53992 0.5113 0.8601 0.0
H605 H 0.55921 0.53139 0.91278 0.0
C606 C 0.99812 0.66515 0.02598 0.0
C607 C 0.99278 0.66234 0.07703 0.0
C608 C -0.00146 0.65083 0.99131 0.0
C609 C 0.97989 0.60471 0.97053 0.0
H610 H 0.0199 0.60319 0.86574 0.0
C611 C 0.00112 0.54356 0.83771 0.0
C612 C 0.00475 0.54783 0.78629 0.0
C613 C 0.99614 0.55724 0.87279 0.0
C614 C 0.00849 0.60355 0.89442 0.0
H615 H 0.98378 0.6426 0.13259 0.0
H616 H 0.98492 0.61719 0.07213 0.0
H617 H 0.01982 0.62706 0.92946 0.0
H618 H 0.00575 0.56951 0.73082 0.0
H619 H 0.99721 0.59345 0.79201 0.0
H620 H 0.96909 0.58064 0.93575 0.0
C621 C 0.98851 0.63052 0.05854 0.0
C622 C 0.00841 0.61726 0.931 0.0
C623 C 0.98804 0.64495 0.09329 0.0
C624 C 0.00264 0.56587 0.77008 0.0
C625 C 0.99789 0.57954 0.80511 0.0
C626 C 0.98014 0.59079 0.93413 0.0
C627 C 0.99369 0.6333 0.00698 0.0
C628 C 0.99403 0.61815 0.96934 0.0
C629 C 0.99529 0.57543 0.85713 0.0
C630 C 0.99436 0.5902 0.89546 0.0
H631 H 0.00166 0.67855 0.01271 0.0
H632 H 0.00227 0.65362 0.95189 0.0
H633 H 0.96845 0.60508 -0.00094 0.0
H634 H 0.00336 0.52982 0.85142 0.0
H635 H 0.9944 0.55373 0.91275 0.0
C636 C 0.00713 0.17102 0.53383 0.0
C637 C 0.01659 0.17006 0.48609 0.0
C638 C 0.00533 0.15547 0.56366 0.0
C639 C 0.01991 0.10722 0.57676 0.0
H640 H 0.96428 0.09934 0.57287 0.0
C641 C 0.99173 0.03529 0.57306 0.0
C642 C 0.97435 0.03195 0.5991 0.0
C643 C 0.99733 0.05305 0.56467 0.0
C644 C 0.97984 0.10124 0.57552 0.0
H645 H 0.03326 0.15229 0.43503 0.0
H646 H 0.03062 0.12562 0.48758 0.0
H647 H 0.97605 0.1296 0.56202 0.0
H648 H 0.94877 0.04443 0.63492 0.0
H649 H 0.95883 0.07503 0.62271 0.0
H650 H 0.02379 0.07888 0.59036 0.0
C651 C 0.02456 0.13833 0.50189 0.0
C652 C 0.98656 0.11869 0.56952 0.0
C653 C 0.02606 0.15372 0.4717 0.0
C654 C 0.96203 0.04658 0.61345 0.0
C655 C 0.96792 0.06424 0.60677 0.0
C656 C 0.01317 0.08979 0.58398 0.0
C657 C 0.01332 0.13886 0.54663 0.0
C658 C 0.00665 0.12169 0.56798 0.0
C659 C 0.98595 0.06772 0.58378 0.0
C660 C 0.99307 0.08647 0.58126 0.0
H661 H 0.00012 0.18351 0.54673 0.0
H662 H 0.99668 0.15616 0.59832 0.0
H663 H 0.03548 0.10928 0.57579 0.0
H664 H 0.00156 0.02421 0.56225 0.0
H665 H 0.01098 0.05519 0.5451 0.0
C666 C 0.3547 0.10302 0.47347 0.0
C667 C 0.33642 0.10228 0.49786 0.0
C668 C 0.37092 0.09376 0.49391 0.0
C669 C 0.37768 0.05096 0.53692 0.0
H670 H 0.43054 0.06034 0.57947 0.0
C671 C 0.43183 -0.00632 0.59153 0.0
C672 C 0.45189 -0.00303 0.59164 0.0
C673 C 0.41846 0.00726 0.57709 0.0
C674 C 0.41598 0.05747 0.56642 0.0
H675 H 0.3218 0.09395 0.56738 0.0
H676 H 0.34999 0.07683 0.60127 0.0
H677 H 0.40685 0.08548 0.57063 0.0
H678 H 0.47389 0.01599 0.57058 0.0
H679 H 0.45059 0.03919 0.54043 0.0
H680 H 0.38668 0.02335 0.52864 0.0
C681 C 0.3516 0.08463 0.56646 0.0
C682 C 0.40238 0.07186 0.56248 0.0
C683 C 0.33547 0.09426 0.5467 0.0
C684 C 0.45846 0.01319 0.57096 0.0
C685 C 0.44506 0.0266 0.55483 0.0
C686 C 0.39133 0.03668 0.53932 0.0
C687 C 0.36903 0.08352 0.53858 0.0
C688 C 0.38315 0.06861 0.54817 0.0
C689 C 0.42487 0.02422 0.56069 0.0
C690 C 0.41067 0.03967 0.55443 0.0
H691 H 0.35613 0.10898 0.43586 0.0
H692 H 0.38429 0.09296 0.47185 0.0
H693 H 0.36295 0.04832 0.52455 0.0
H694 H 0.42629 0.98138 0.60788 0.0
H695 H 0.40313 0.00479 0.58276 0.0
C696 C 0.48687 0.31753 0.49906 0.0
C697 C 0.50456 0.30748 0.50009 0.0
C698 C 0.48579 0.33475 0.52061 0.0
C699 C 0.51447 0.36897 0.58959 0.0
H700 H 0.49741 0.40009 0.47718 0.0
C701 C 0.54148 0.4391 0.5807 0.0
C702 C 0.52583 0.45136 0.59006 0.0
C703 C 0.53784 0.42211 0.56082 0.0
C704 C 0.50217 0.39151 0.50871 0.0
H705 H 0.53381 0.30592 0.53134 0.0
H706 H 0.53208 0.33597 0.56855 0.0
H707 H 0.48967 0.36808 0.4763 0.0
H708 H 0.49525 0.45739 0.57439 0.0
H709 H 0.48895 0.42768 0.53914 0.0
H710 H 0.52758 0.39233 0.62093 0.0
C711 C 0.51906 0.33082 0.55098 0.0
C712 C 0.4975 0.3733 0.50883 0.0
C713 C 0.52013 0.31363 0.52949 0.0
C714 C 0.50742 0.44791 0.56917 0.0
C715 C 0.5038 0.43092 0.54897 0.0
C716 C 0.51931 0.3871 0.58916 0.0
C717 C 0.50239 0.34202 0.54326 0.0
C718 C 0.50395 0.36178 0.54879 0.0
C719 C 0.51866 0.41749 0.54913 0.0
C720 C 0.51357 0.39837 0.54815 0.0
H721 H 0.47461 0.31299 0.47682 0.0
H722 H 0.47259 0.34298 0.51538 0.0
H723 H 0.51944 0.36047 0.62108 0.0
H724 H 0.556 0.44159 0.59494 0.0
H725 H 0.5496 0.41199 0.55972 0.0
C726 C 0.16107 0.38285 0.55506 0.0
C727 C 0.15936 0.37591 0.50518 0.0
C728 C 0.14545 0.39247 0.57734 0.0
C729 C 0.09402 0.40704 0.56753 0.0
H730 H 0.11389 0.45559 0.56466 0.0
C731 C 0.04104 0.46831 0.56361 0.0
C732 C 0.04616 0.48321 0.59308 0.0
C733 C 0.05492 0.45463 0.55301 0.0
C734 C 0.10802 0.44219 0.56675 0.0
H735 H 0.13884 0.37107 0.44354 0.0
H736 H 0.1116 0.3871 0.48349 0.0
H737 H 0.13645 0.42979 0.56016 0.0
H738 H 0.0698 0.49621 0.63228 0.0
H739 H 0.09368 0.47234 0.61577 0.0
H740 H 0.0656 0.41931 0.57522 0.0
C741 C 0.12513 0.38547 0.50469 0.0
C742 C 0.12102 0.42739 0.56435 0.0
C743 C 0.14083 0.3762 0.48187 0.0
C744 C 0.06561 0.48501 0.60837 0.0
C745 C 0.07932 0.47117 0.59912 0.0
C746 C 0.08099 0.42186 0.57132 0.0
C747 C 0.12778 0.39474 0.55073 0.0
C748 C 0.11411 0.40974 0.56374 0.0
C749 C 0.07397 0.45546 0.57304 0.0
C750 C 0.08781 0.43965 0.56983 0.0
H751 H 0.17496 0.38233 0.57484 0.0
H752 H 0.14768 0.39938 0.6133 0.0
H753 H 0.08842 0.39351 0.56671 0.0
H754 H 0.02609 0.46677 0.55141 0.0
H755 H 0.05046 0.44306 0.53111 0.0
C756 C 0.98392 0.81671 0.93313 0.0
C757 C 0.00131 0.80669 0.9424 0.0
C758 C 0.98457 0.83377 0.91039 0.0
C759 C 0.01734 0.86922 0.9262 0.0
H760 H 0.98422 0.8976 0.83444 0.0
C761 C 0.02921 0.94354 0.8742 0.0
C762 C 0.01278 0.95413 0.85969 0.0
C763 C 0.027 0.92566 0.88977 0.0
C764 C 0.99331 0.88985 0.86094 0.0
H765 H 0.03235 0.80492 0.92695 0.0
H766 H 0.0335 0.83484 0.88772 0.0
H767 H 0.98216 0.86462 0.83516 0.0
H768 H 0.98125 0.95548 0.85844 0.0
H769 H 0.97729 0.92453 0.88701 0.0
H770 H 0.02816 0.89427 0.95313 0.0
C771 C 0.01949 0.8297 0.8989 0.0
C772 C 0.99231 0.87102 0.86068 0.0
C773 C 0.01883 0.81264 0.92133 0.0
C774 C 0.99411 0.94752 0.86865 0.0
C775 C 0.99187 0.92971 0.88429 0.0
C776 C 0.01821 0.88798 0.92686 0.0
C777 C 0.00261 0.84087 0.89698 0.0
C778 C 0.00445 0.86059 0.89303 0.0
C779 C 0.00834 0.91829 0.89155 0.0
C780 C 0.00627 0.89849 0.89415 0.0
H781 H 0.97018 0.81239 0.9487 0.0
H782 H 0.97134 0.84214 0.90887 0.0
H783 H 0.02644 0.86144 0.95264 0.0
H784 H 0.04382 0.94828 0.8681 0.0
H785 H 0.03999 0.91722 0.89564 0.0
C786 C 0.67013 0.89047 0.90204 0.0
C787 C 0.66624 0.87844 0.94201 0.0
C788 C 0.65468 0.89884 0.87521 0.0
C789 C 0.59966 0.90322 0.87458 0.0
H790 H 0.61079 0.95419 0.86685 0.0
C791 C 0.53969 0.9569 0.83412 0.0
C792 C 0.54231 0.97504 0.84777 0.0
C793 C 0.55405 0.94375 0.8439 0.0
C794 C 0.60732 0.94005 0.87006 0.0
H795 H 0.64392 0.86357 0.98044 0.0
H796 H 0.61712 0.87819 0.93547 0.0
H797 H 0.6374 0.93224 0.8745 0.0
H798 H 0.56136 -0.00679 0.88733 0.0
H799 H 0.58606 0.96985 0.90816 0.0
H800 H 0.56959 0.91107 0.87577 0.0
C801 C 0.63174 0.88135 0.92357 0.0
C802 C 0.62271 0.92731 0.87277 0.0
C803 C 0.64716 0.8728 0.94955 0.0
C804 C 0.55888 0.97936 0.87632 0.0
C805 C 0.57321 0.96599 0.88724 0.0
C806 C 0.58428 0.91597 0.87381 0.0
C807 C 0.63523 0.89552 0.88899 0.0
C808 C 0.61911 0.90869 0.87597 0.0
C809 C 0.57139 0.94819 0.86886 0.0
C810 C 0.58785 0.93461 0.87188 0.0
H811 H 0.68482 0.89498 0.8957 0.0
H812 H 0.65798 0.90911 0.8472 0.0
H813 H 0.59619 0.88905 0.87581 0.0
H814 H 0.52749 0.95307 0.81077 0.0
H815 H 0.55198 0.93042 0.82817 0.0
C816 C 0.46336 0.66366 0.94706 0.0
C817 C 0.48057 0.67336 0.95119 0.0
C818 C 0.464 0.64626 0.9269 0.0
C819 C 0.49304 0.61052 0.86365 0.0
H820 H 0.47253 0.58084 0.97288 0.0
C821 C 0.49948 0.53403 0.85307 0.0
C822 C 0.48089 0.52648 0.85176 0.0
C823 C 0.50188 0.55128 0.87263 0.0
C824 C 0.47833 0.58897 0.94226 0.0
H825 H 0.51108 0.67393 0.92971 0.0
H826 H 0.51218 0.64333 0.89448 0.0
H827 H 0.47024 0.61373 0.97946 0.0
H828 H 0.4508 0.53002 0.87607 0.0
H829 H 0.45505 0.56016 0.91114 0.0
H830 H 0.50088 0.58566 0.82613 0.0
C831 C 0.49834 0.64906 0.90757 0.0
C832 C 0.47686 0.60772 0.94567 0.0
C833 C 0.49771 0.66652 0.92778 0.0
C834 C 0.46527 0.53551 0.8764 0.0
C835 C 0.46771 0.55277 0.89639 0.0
C836 C 0.49449 0.5917 0.86018 0.0
C837 C 0.4818 0.63841 0.91057 0.0
C838 C 0.48378 0.61862 0.9059 0.0
C839 C 0.48575 0.56116 0.89171 0.0
C840 C 0.48683 0.58081 0.89913 0.0
H841 H 0.44992 0.66861 0.96457 0.0
H842 H 0.45096 0.63834 0.92837 0.0
H843 H 0.49863 0.6187 0.83285 0.0
H844 H 0.51174 0.52755 0.83384 0.0
H845 H 0.51598 0.55741 0.86931 0.0
C846 C 0.82871 0.58893 0.89353 0.0
C847 C 0.83256 0.60036 0.93475 0.0
C848 C 0.84419 0.5806 0.86689 0.0
C849 C 0.89914 0.57431 0.87353 0.0
H850 H 0.88594 0.52415 0.85652 0.0
C851 C 0.95783 0.51931 0.83767 0.0
C852 C 0.95376 0.501 0.84484 0.0
C853 C 0.94391 0.53277 0.84796 0.0
C854 C 0.88998 0.53801 0.86259 0.0
H855 H 0.85485 0.61451 0.97535 0.0
H856 H 0.88165 0.59988 0.93128 0.0
H857 H 0.86022 0.54693 0.86217 0.0
H858 H 0.93258 0.48258 0.87482 0.0
H859 H 0.90859 0.50629 0.89712 0.0
H860 H 0.92867 0.56526 0.88048 0.0
C861 C 0.8671 0.5971 0.91803 0.0
C862 C 0.87512 0.55131 0.86402 0.0
C863 C 0.85166 0.60568 0.94358 0.0
C864 C 0.93618 0.49658 0.86863 0.0
C865 C 0.92225 0.5102 0.88028 0.0
C866 C 0.9139 0.56097 0.87457 0.0
C867 C 0.8636 0.58328 0.88241 0.0
C868 C 0.87944 0.56968 0.87042 0.0
C869 C 0.92553 0.5284 0.86726 0.0
C870 C 0.90959 0.54257 0.86926 0.0
H871 H 0.81397 0.58474 0.88603 0.0
H872 H 0.84086 0.57078 0.83778 0.0
H873 H 0.90328 0.58825 0.877 0.0
H874 H 0.97089 0.52325 0.8182 0.0
H875 H 0.94723 0.54638 0.83645 0.0
C876 C 0.01783 0.16728 0.02579 0.0
C877 C 0.00182 0.172 0.05728 0.0
C878 C 0.01765 0.15169 0.99532 0.0
C879 C 0.99417 0.10743 0.9887 0.0
H880 H 0.01246 0.10597 0.84836 0.0
C881 C 0.9735 0.05143 0.84961 0.0
C882 C 0.98793 0.04368 0.81773 0.0
C883 C 0.97743 0.06643 0.87974 0.0
C884 C 0.0076 0.10611 0.88777 0.0
H885 H 0.97296 0.16406 0.08065 0.0
H886 H 0.97252 0.13717 0.02719 0.0
H887 H 0.01454 0.13401 0.89776 0.0
H888 H 0.01782 0.04565 0.79202 0.0
H889 H 0.02464 0.07239 0.84434 0.0
H890 H 0.98686 0.07973 0.97859 0.0
C891 C 0.98532 0.1454 0.02635 0.0
C892 C 0.00874 0.12217 0.91604 0.0
C893 C 0.98545 0.161 0.05649 0.0
C894 C 0.0065 0.05125 0.81671 0.0
C895 C 0.01034 0.0666 0.84627 0.0
C896 C 0.99299 0.09147 0.96053 0.0
C897 C 0.00153 0.14037 -0.00398 0.0
C898 C 0.00165 0.12311 0.96654 0.0
C899 C 0.99581 0.07431 0.8782 0.0
C900 C -0.00069 0.09071 0.90944 0.0
H901 H 0.03063 0.17551 0.02524 0.0
H902 H 0.03038 0.14821 0.97248 0.0
H903 H 0.98906 0.10751 0.0279 0.0
H904 H 0.95905 0.04589 0.85118 0.0
H905 H 0.96586 0.07215 0.90346 0.0
C906 C 0.32163 0.0646 0.04414 0.0
C907 C 0.32662 0.07377 0.08905 0.0
C908 C 0.33609 0.05864 0.00971 0.0
C909 C 0.38901 0.06292 0.97546 0.0
H910 H 0.38075 0.01683 0.91002 0.0
C911 C 0.44861 0.021 0.85955 0.0
C912 C 0.44179 0.01198 0.81599 0.0
C913 C 0.43542 0.03042 0.89199 0.0
C914 C 0.38326 0.02982 0.92749 0.0
H915 H 0.35082 0.0839 0.13286 0.0
H916 H 0.37604 0.07315 0.07367 0.0
H917 H 0.35612 0.02937 0.96729 0.0
H918 H 0.4161 0.00714 0.77012 0.0
H919 H 0.39349 0.02363 0.82544 0.0
H920 H 0.41653 0.06296 0.93588 0.0
C921 C 0.36093 0.07092 0.06417 0.0
C922 C 0.36902 0.03709 0.96035 0.0
C923 C 0.34644 0.07705 0.0983 0.0
C924 C 0.42181 0.01354 0.80398 0.0
C925 C 0.40879 0.02298 0.83586 0.0
C926 C 0.4034 0.05552 0.94265 0.0
C927 C 0.35602 0.06143 0.01958 0.0
C928 C 0.37152 0.05383 0.98455 0.0
C929 C 0.41524 0.03104 0.88118 0.0
C930 C 0.40058 0.03896 0.91779 0.0
H931 H 0.3065 0.06208 0.0355 0.0
H932 H 0.33159 0.05181 0.97527 0.0
H933 H 0.39148 0.0759 0.99298 0.0
H934 H 0.46392 0.0201 0.86974 0.0
H935 H 0.44089 0.03653 0.92656 0.0
C936 C 0.52195 0.31397 0.03175 0.0
C937 C 0.50636 0.30661 0.05889 0.0
C938 C 0.51871 0.32844 -0.00207 0.0
C939 C 0.48572 0.3674 0.97733 0.0
H940 H 0.51268 0.37106 0.84753 0.0
C941 C 0.50502 0.43447 0.87677 0.0
C942 C 0.50282 0.43538 0.82349 0.0
C943 C 0.50108 0.41847 0.9031 0.0
C944 C 0.50485 0.37016 0.88338 0.0
H945 H 0.47507 0.30843 0.07081 0.0
H946 H 0.46944 0.33374 0.01169 0.0
H947 H 0.51468 0.34271 0.89575 0.0
H948 H 0.49443 0.42076 0.75578 0.0
H949 H 0.48792 0.39259 0.80163 0.0
H950 H 0.47655 0.39512 0.96575 0.0
C951 C 0.48416 0.32829 0.01671 0.0
C952 C 0.50613 0.35399 0.91116 0.0
C953 C 0.48737 0.31368 0.05016 0.0
C954 C 0.49599 0.42036 0.79703 0.0
C955 C 0.4924 0.40426 0.82316 0.0
C956 C 0.48469 0.38369 0.94988 0.0
C957 C 0.49984 0.33599 0.9908 0.0
C958 C 0.49683 0.35251 0.95882 0.0
C959 C 0.49535 0.40303 0.87631 0.0
C960 C 0.49449 0.3853 0.90296 0.0
H961 H 0.53673 0.30876 0.03741 0.0
H962 H 0.53112 0.33416 0.97884 0.0
H963 H 0.47849 0.36671 0.01408 0.0
H964 H 0.51051 0.44587 0.89772 0.0
H965 H 0.50362 0.41787 0.94398 0.0
C966 C 0.16426 0.42708 0.09012 0.0
C967 C 0.17012 0.40868 0.09165 0.0
C968 C 0.15009 0.43338 0.05537 0.0
C969 C 0.10912 0.41902 0.97389 0.0
H970 H 0.11744 0.46481 0.90624 0.0
C971 C 0.04928 0.45884 0.85442 0.0
C972 C 0.05582 0.46838 0.81142 0.0
C973 C 0.06274 0.44991 0.88724 0.0
C974 C 0.11489 0.45192 0.92436 0.0
H975 H 0.16546 0.38254 0.05675 0.0
H976 H 0.14055 0.39356 -0.0035 0.0
H977 H 0.142 0.45253 0.96467 0.0
H978 H 0.08148 0.47484 0.7672 0.0
H979 H 0.10459 0.45915 0.82311 0.0
H980 H 0.08197 0.41843 0.93277 0.0
C981 C 0.14692 0.40307 0.02268 0.0
C982 C 0.12893 0.44497 0.95845 0.0
C983 C 0.16124 0.39676 0.0573 0.0
C984 C 0.07592 0.46797 0.80056 0.0
C985 C 0.08924 0.45901 0.83284 0.0
C986 C 0.09496 0.42604 0.93972 0.0
C987 C 0.1412 0.42149 0.02118 0.0
C988 C 0.12625 0.42847 0.98386 0.0
C989 C 0.08296 0.45029 0.87745 0.0
C990 C 0.0977 0.44258 0.91436 0.0
H991 H 0.17029 0.43665 0.11664 0.0
H992 H 0.14583 0.44759 0.05596 0.0
H993 H 0.1065 0.40634 0.9931 0.0
H994 H 0.0339 0.45886 0.86378 0.0
H995 H 0.05738 0.44334 0.92126 0.0
C996 C 0.97833 0.8229 0.37588 0.0
C997 C 0.99242 0.80891 0.3823 0.0
C998 C 0.97787 0.83786 0.4087 0.0
C999 C 0.00983 0.86174 0.5003 0.0
H1000 H 0.96206 0.88842 0.53462 0.0
C1001 C 0.00941 0.91796 0.65046 0.0
C1002 C -0.00029 0.93444 0.63826 0.0
C1003 C 0.00688 0.90258 0.62065 0.0
C1004 C 0.97553 0.88117 0.52503 0.0
H1005 H 0.01651 0.79909 0.42913 0.0
H1006 H 0.01518 0.82463 0.48813 0.0
H1007 H 0.96061 0.86121 0.48193 0.0
H1008 H 0.97909 0.94743 0.58603 0.0
H1009 H 0.97475 0.92038 0.53327 0.0
H1010 H 0.0247 0.8815 0.54389 0.0
C1011 C 0.0049 0.82454 0.45669 0.0
C1012 C 0.97473 0.86557 0.49472 0.0
C1013 C 0.00558 0.80978 0.42326 0.0
C1014 C 0.98679 0.93496 0.5964 0.0
C1015 C 0.98427 0.91947 0.5663 0.0
C1016 C 0.01058 0.87716 0.53088 0.0
C1017 C 0.99134 0.83903 0.4492 0.0
C1018 C 0.99189 0.85558 0.48205 0.0
C1019 C 0.99462 0.9032 0.57759 0.0
C1020 C 0.99347 0.88704 0.54387 0.0
H1021 H 0.96817 0.82262 0.34414 0.0
H1022 H 0.96739 0.84877 0.40107 0.0
H1023 H 0.02344 0.85484 0.49035 0.0
H1024 H 0.01922 0.91693 0.68293 0.0
H1025 H 0.01471 0.89018 0.63114 0.0
C1026 C 0.66695 0.93151 0.37443 0.0
C1027 C 0.67296 0.9133 0.368 0.0
C1028 C 0.65127 0.93625 0.40623 0.0
C1029 C 0.62078 0.92202 0.51366 0.0
H1030 H 0.58334 0.95629 0.4538 0.0
C1031 C 0.55182 0.95024 0.62322 0.0
C1032 C 0.54975 0.96919 0.62092 0.0
C1033 C 0.56519 0.94101 0.59096 0.0
C1034 C 0.59365 0.94674 0.4712 0.0
H1035 H 0.6676 0.88586 0.39274 0.0
H1036 H 0.64042 0.89429 0.44964 0.0
H1037 H 0.61084 0.94497 0.40303 0.0
H1038 H 0.55936 -0.00675 0.58239 0.0
H1039 H 0.58207 0.97733 0.52563 0.0
H1040 H 0.60375 0.92428 0.58251 0.0
C1041 C 0.64785 0.90483 0.42928 0.0
C1042 C 0.60944 0.94028 0.44211 0.0
C1043 C 0.6635 0.90003 0.39685 0.0
C1044 C 0.56061 0.97863 0.58472 0.0
C1045 C 0.57359 0.96947 0.55209 0.0
C1046 C 0.60493 0.92859 0.54304 0.0
C1047 C 0.64122 0.92296 0.43314 0.0
C1048 C 0.62349 0.92822 0.46331 0.0
C1049 C 0.57634 0.95058 0.55524 0.0
C1050 C 0.59146 0.9414 0.52249 0.0
H1051 H 0.67417 0.94218 0.35406 0.0
H1052 H 0.64684 0.95039 0.40935 0.0
H1053 H 0.63136 0.91273 0.53104 0.0
H1054 H 0.54379 0.94269 0.65137 0.0
H1055 H 0.56693 0.92646 0.59425 0.0
C1056 C 0.49036 0.67119 0.43067 0.0
C1057 C 0.49554 0.6697 0.37883 0.0
C1058 C 0.4921 0.65613 0.46322 0.0
C1059 C 0.5149 0.60949 0.47148 0.0
H1060 H 0.47516 0.60268 0.57446 0.0
C1061 C 0.50086 0.54102 0.57416 0.0
C1062 C 0.49619 0.54202 0.62634 0.0
C1063 C 0.50325 0.55693 0.54576 0.0
C1064 C 0.48651 0.60448 0.54625 0.0
H1065 H 0.50599 0.65115 0.32017 0.0
H1066 H 0.50855 0.62496 0.37612 0.0
H1067 H 0.4741 0.62996 0.5223 0.0
H1068 H 0.49121 0.55999 0.69049 0.0
H1069 H 0.49581 0.58768 0.64146 0.0
H1070 H 0.52686 0.5836 0.49467 0.0
C1071 C 0.50382 0.6378 0.39244 0.0
C1072 C 0.48596 0.62018 0.51639 0.0
C1073 C 0.50229 0.65284 0.36019 0.0
C1074 C 0.4948 0.55897 0.6502 0.0
C1075 C 0.49729 0.57478 0.62209 0.0
C1076 C 0.51532 0.59367 0.50102 0.0
C1077 C 0.49881 0.63919 0.44447 0.0
C1078 C 0.50005 0.62288 0.47828 0.0
C1079 C 0.50099 0.574 0.56927 0.0
C1080 C 0.50108 0.59096 0.53861 0.0
H1081 H 0.4852 0.68403 0.44615 0.0
H1082 H 0.48831 0.65782 0.50316 0.0
H1083 H 0.52626 0.61121 0.44329 0.0
H1084 H 0.50168 0.52806 0.55493 0.0
H1085 H 0.50593 0.55592 0.50502 0.0
C1086 C 0.8249 0.55296 0.39201 0.0
C1087 C 0.82575 0.56885 0.36279 0.0
C1088 C 0.83995 0.54815 0.42608 0.0
C1089 C 0.89233 0.55388 0.44894 0.0
H1090 H 0.88065 0.53331 0.58151 0.0
C1091 C 0.94841 0.51064 0.56804 0.0
C1092 C 0.94705 0.51135 0.62153 0.0
C1093 C 0.93487 0.52037 0.53749 0.0
C1094 C 0.88429 0.53922 0.54495 0.0
H1095 H 0.84296 0.59222 0.34616 0.0
H1096 H 0.86951 0.58369 0.40534 0.0
H1097 H 0.85423 0.54537 0.52817 0.0
H1098 H 0.93125 0.52319 0.68533 0.0
H1099 H 0.90807 0.54064 0.63243 0.0
H1100 H 0.92243 0.5476 0.46567 0.0
C1101 C 0.85713 0.575 0.40216 0.0
C1102 C 0.86905 0.54597 0.51408 0.0
C1103 C 0.84188 0.57997 0.36867 0.0
C1104 C 0.93257 0.52251 0.64406 0.0
C1105 C 0.91919 0.53233 0.61369 0.0
C1106 C 0.90762 0.54703 0.47979 0.0
C1107 C 0.85638 0.55897 0.43111 0.0
C1108 C 0.87283 0.55315 0.4654 0.0
C1109 C 0.91975 0.53098 0.55998 0.0
C1110 C 0.90378 0.53944 0.52806 0.0
H1111 H 0.81265 0.54415 0.38807 0.0
H1112 H 0.83897 0.53565 0.44741 0.0
H1113 H 0.89574 0.55923 0.41151 0.0
H1114 H 0.95931 0.50191 0.54993 0.0
H1115 H 0.93569 0.51883 0.49635 0.0
loop_
_geom_bond_atom_site_label_1
_geom_bond_atom_site_label_2
_geom_bond_distance
_geom_bond_site_symmetry_2
_ccdc_geom_bond_type
C0 C1 1.386 . S
C0 C2 1.397 . S
C0 H24 0.931 . S
C1 C0 1.386 . S
C1 C5 1.397 . S
C2 C0 1.397 . S
C2 C3 1.384 1_556 S
C2 H25 0.930 . S
C3 C2 1.384 1_554 S
C3 C4 1.377 . S
C3 C6 1.481 . S
C4 C3 1.377 . S
C4 C5 1.389 1_554 S
C4 H26 0.929 . S
C5 C1 1.397 . S
C5 C4 1.389 1_556 S
C5 H27 0.931 . S
C6 C3 1.481 . S
C6 C7 1.387 . S
C6 C11 1.390 . S
C7 C6 1.387 . S
C7 C8 1.401 . S
C7 H28 0.930 . S
C8 C7 1.401 . S
C8 C9 1.376 . S
C8 C17 1.511 . S
C9 C8 1.376 . S
C9 C10 1.392 . S
C9 H30 0.931 . S
C10 C9 1.392 . S
C10 C11 1.361 . S
C10 C12 1.500 . S
C11 C6 1.390 . S
C11 C10 1.361 . S
C11 H29 0.931 . S
C12 C10 1.500 . S
C12 C13 1.371 . S
C12 C14 1.365 . S
C13 C12 1.371 . S
C13 C23 1.386 . S
C13 H31 0.931 . S
C14 C12 1.365 . S
C14 C15 1.409 . S
C14 H32 0.929 . S
C15 C14 1.409 . S
C15 C16 1.380 . S
C15 H33 0.930 . S
C16 C15 1.380 . S
C16 C23 1.357 . S
C17 C8 1.511 . S
C17 C18 1.341 . S
C17 C19 1.371 . S
C18 C17 1.341 . S
C18 C22 1.394 . S
C18 H34 0.930 . S
C19 C17 1.371 . S
C19 C20 1.392 . S
C19 H35 0.931 . S
C20 C19 1.392 . S
C20 C21 1.331 . S
C20 H38 0.932 . S
C21 C20 1.331 . S
C21 C22 1.336 . S
C22 C18 1.394 . S
C22 C21 1.336 . S
C22 H37 0.929 1_554 S
C23 C13 1.386 . S
C23 C16 1.357 . S
C23 H36 0.928 . S
H24 C0 0.931 . S
H25 C2 0.930 . S
H26 C4 0.929 . S
H27 C5 0.931 . S
H28 C7 0.930 . S
H29 C11 0.931 . S
H30 C9 0.931 . S
H31 C13 0.931 . S
H32 C14 0.929 . S
H33 C15 0.930 . S
H34 C18 0.930 . S
H35 C19 0.931 . S
H36 C23 0.928 . S
H37 C22 0.929 1_556 S
H38 C20 0.932 . S
C39 C40 1.397 . S
C39 C41 1.397 1_556 S
C39 H63 0.931 . S
C40 C39 1.397 . S
C40 C44 1.386 1_656 S
C41 C39 1.397 1_554 S
C41 C42 1.390 . S
C41 H64 0.930 . S
C42 C41 1.390 . S
C42 C43 1.371 1_655 S
C42 C45 1.480 . S
C43 C42 1.371 1_455 S
C43 C44 1.389 . S
C43 H65 0.929 . S
C44 C40 1.386 1_454 S
C44 C43 1.389 . S
C44 H66 0.931 . S
C45 C42 1.480 . S
C45 C46 1.389 . S
C45 C50 1.390 . S
C46 C45 1.389 . S
C46 C47 1.402 . S
C46 H67 0.930 . S
C47 C46 1.402 . S
C47 C48 1.376 . S
C47 C56 1.513 . S
C48 C47 1.376 . S
C48 C49 1.390 . S
C48 H69 0.935 . S
C49 C48 1.390 . S
C49 C50 1.361 . S
C49 C51 1.499 1_655 S
C50 C45 1.390 . S
C50 C49 1.361 . S
C50 H68 0.931 . S
C51 C49 1.499 1_455 S
C51 C52 1.363 1_455 S
C51 C53 1.374 . S
C52 C51 1.363 1_655 S
C52 C62 1.386 . S
C52 H70 0.931 . S
C53 C51 1.374 . S
C53 C54 1.409 . S
C53 H71 0.929 . S
C54 C53 1.409 . S
C54 C55 1.377 . S
C54 H72 0.930 . S
C55 C54 1.377 . S
C55 C62 1.360 1_455 S
C56 C47 1.513 . S
C56 C57 1.341 . S
C56 C58 1.371 1_655 S
C57 C56 1.341 . S
C57 C61 1.394 . S
C57 H73 0.930 . S
C58 C56 1.371 1_455 S
C58 C59 1.392 . S
C58 H74 0.931 . S
C59 C58 1.392 . S
C59 C60 1.324 1_455 S
C59 H77 0.932 . S
C60 C59 1.324 1_655 S
C60 C61 1.343 . S
C61 C57 1.394 . S
C61 C60 1.343 . S
C61 H76 0.929 . S
C62 C52 1.386 . S
C62 C55 1.360 1_655 S
C62 H75 0.928 . S
H63 C39 0.931 . S
H64 C41 0.930 . S
H65 C43 0.929 . S
H66 C44 0.931 . S
H67 C46 0.930 . S
H68 C50 0.931 . S
H69 C48 0.935 . S
H70 C52 0.931 . S
H71 C53 0.929 . S
H72 C54 0.930 . S
H73 C57 0.930 . S
H74 C58 0.931 . S
H75 C62 0.928 . S
H76 C61 0.929 . S
H77 C59 0.932 . S
C78 C79 1.386 . S
C78 C80 1.397 . S
C78 H102 0.931 . S
C79 C78 1.386 . S
C79 C83 1.397 1_556 S
C80 C78 1.397 . S
C80 C81 1.384 1_556 S
C80 H103 0.930 . S
C81 C80 1.384 1_554 S
C81 C82 1.377 . S
C81 C84 1.481 . S
C82 C81 1.377 . S
C82 C83 1.389 . S
C82 H104 0.929 . S
C83 C79 1.397 1_554 S
C83 C82 1.389 . S
C83 H105 0.931 . S
C84 C81 1.481 . S
C84 C85 1.387 . S
C84 C89 1.390 . S
C85 C84 1.387 . S
C85 C86 1.401 . S
C85 H106 0.930 . S
C86 C85 1.401 . S
C86 C87 1.376 . S
C86 C95 1.511 . S
C87 C86 1.376 . S
C87 C88 1.392 . S
C87 H108 0.931 . S
C88 C87 1.392 . S
C88 C89 1.361 . S
C88 C90 1.500 . S
C89 C84 1.390 . S
C89 C88 1.361 . S
C89 H107 0.931 . S
C90 C88 1.500 . S
C90 C91 1.371 . S
C90 C92 1.365 . S
C91 C90 1.371 . S
C91 C101 1.386 . S
C91 H109 0.931 . S
C92 C90 1.365 . S
C92 C93 1.409 . S
C92 H110 0.929 . S
C93 C92 1.409 . S
C93 C94 1.380 . S
C93 H111 0.930 . S
C94 C93 1.380 . S
C94 C101 1.357 . S
C95 C86 1.511 . S
C95 C96 1.341 . S
C95 C97 1.371 . S
C96 C95 1.341 . S
C96 C100 1.394 . S
C96 H112 0.930 . S
C97 C95 1.371 . S
C97 C98 1.392 . S
C97 H113 0.931 . S
C98 C97 1.392 . S
C98 C99 1.331 . S
C98 H116 0.932 . S
C99 C98 1.331 . S
C99 C100 1.336 . S
C100 C96 1.394 . S
C100 C99 1.336 . S
C100 H115 0.914 1_554 S
C101 C91 1.386 . S
C101 C94 1.357 . S
C101 H114 0.928 . S
H102 C78 0.931 . S
H103 C80 0.930 . S
H104 C82 0.929 . S
H105 C83 0.931 . S
H106 C85 0.930 . S
H107 C89 0.931 . S
H108 C87 0.931 . S
H109 C91 0.931 . S
H110 C92 0.929 . S
H111 C93 0.930 . S
H112 C96 0.930 . S
H113 C97 0.931 . S
H114 C101 0.928 . S
H115 C100 0.914 1_556 S
H116 C98 0.932 . S
C117 C118 1.386 . S
C117 C119 1.397 . S
C117 H141 0.931 . S
C118 C117 1.386 . S
C118 C122 1.397 . S
C119 C117 1.397 . S
C119 C120 1.384 . S
C119 H142 0.930 . S
C120 C119 1.384 . S
C120 C121 1.377 . S
C120 C123 1.481 . S
C121 C120 1.377 . S
C121 C122 1.389 . S
C121 H143 0.929 . S
C122 C118 1.397 . S
C122 C121 1.389 . S
C122 H144 0.931 . S
C123 C120 1.481 . S
C123 C124 1.387 . S
C123 C128 1.390 . S
C124 C123 1.387 . S
C124 C125 1.401 . S
C124 H145 0.930 . S
C125 C124 1.401 . S
C125 C126 1.376 . S
C125 C134 1.511 . S
C126 C125 1.376 . S
C126 C127 1.392 . S
C126 H147 0.931 . S
C127 C126 1.392 . S
C127 C128 1.361 . S
C127 C129 1.500 . S
C128 C123 1.390 . S
C128 C127 1.361 . S
C128 H146 0.931 . S
C129 C127 1.500 . S
C129 C130 1.371 . S
C129 C131 1.365 . S
C130 C129 1.371 . S
C130 C140 1.386 1_554 S
C130 H148 0.928 1_554 S
C131 C129 1.365 . S
C131 C132 1.409 . S
C131 H149 0.929 . S
C132 C131 1.409 . S
C132 C133 1.380 1_554 S
C132 H150 0.930 . S
C133 C132 1.380 1_556 S
C133 C140 1.357 . S
C134 C125 1.511 . S
C134 C135 1.341 . S
C134 C136 1.371 . S
C135 C134 1.341 . S
C135 C139 1.394 . S
C135 H151 0.930 . S
C136 C134 1.371 . S
C136 C137 1.392 . S
C136 H152 0.931 . S
C137 C136 1.392 . S
C137 C138 1.331 . S
C137 H155 0.932 . S
C138 C137 1.331 . S
C138 C139 1.336 . S
C139 C135 1.394 . S
C139 C138 1.336 . S
C139 H154 0.929 . S
C140 C130 1.386 1_556 S
C140 C133 1.357 . S
C140 H153 0.928 . S
H141 C117 0.931 . S
H142 C119 0.930 . S
H143 C121 0.929 . S
H144 C122 0.931 . S
H145 C124 0.930 . S
H146 C128 0.931 . S
H147 C126 0.931 . S
H148 C130 0.928 1_556 S
H149 C131 0.929 . S
H150 C132 0.930 . S
H151 C135 0.930 . S
H152 C136 0.931 . S
H153 C140 0.928 . S
H154 C139 0.929 . S
H155 C137 0.932 . S
C156 C157 1.386 . S
C156 C158 1.397 . S
C156 H180 0.931 . S
C157 C156 1.386 . S
C157 C161 1.397 . S
C158 C156 1.397 . S
C158 C159 1.384 . S
C158 H181 0.930 . S
C159 C158 1.384 . S
C159 C160 1.377 . S
C159 C162 1.481 . S
C160 C159 1.377 . S
C160 C161 1.389 . S
C160 H182 0.929 . S
C161 C157 1.397 . S
C161 C160 1.389 . S
C161 H183 0.931 . S
C162 C159 1.481 . S
C162 C163 1.387 . S
C162 C167 1.390 . S
C163 C162 1.387 . S
C163 C164 1.401 . S
C163 H184 0.930 . S
C164 C163 1.401 . S
C164 C165 1.376 . S
C164 C173 1.511 . S
C165 C164 1.376 . S
C165 C166 1.392 . S
C165 H186 0.931 . S
C166 C165 1.392 . S
C166 C167 1.361 . S
C166 C168 1.500 . S
C167 C162 1.390 . S
C167 C166 1.361 . S
C167 H185 0.931 . S
C168 C166 1.500 . S
C168 C169 1.371 . S
C168 C170 1.365 . S
C169 C168 1.371 . S
C169 C179 1.386 . S
C169 H187 0.931 . S
C170 C168 1.365 . S
C170 C171 1.409 . S
C170 H188 0.929 . S
C171 C170 1.409 . S
C171 C172 1.380 . S
C171 H189 0.930 . S
C172 C171 1.380 . S
C172 C179 1.357 . S
C173 C164 1.511 . S
C173 C174 1.341 . S
C173 C175 1.371 . S
C174 C173 1.341 . S
C174 C178 1.394 . S
C174 H190 0.930 . S
C175 C173 1.371 . S
C175 C176 1.392 . S
C175 H191 0.931 . S
C176 C175 1.392 . S
C176 C177 1.331 . S
C176 H194 0.932 . S
C177 C176 1.331 . S
C177 C178 1.336 . S
C178 C174 1.394 . S
C178 C177 1.336 . S
C178 H193 0.929 . S
C179 C169 1.386 . S
C179 C172 1.357 . S
C179 H192 0.928 . S
H180 C156 0.931 . S
H181 C158 0.930 . S
H182 C160 0.929 . S
H183 C161 0.931 . S
H184 C163 0.930 . S
H185 C167 0.931 . S
H186 C165 0.931 . S
H187 C169 0.931 . S
H188 C170 0.929 . S
H189 C171 0.930 . S
H190 C174 0.930 . S
H191 C175 0.931 . S
H192 C179 0.928 . S
H193 C178 0.929 . S
H194 C176 0.932 . S
C195 C196 1.388 . S
C195 C197 1.397 . S
C195 H219 0.931 . S
C196 C195 1.388 . S
C196 C200 1.395 1_655 S
C197 C195 1.397 . S
C197 C198 1.382 . S
C197 H220 0.930 . S
C198 C197 1.382 . S
C198 C199 1.379 1_655 S
C198 C201 1.481 . S
C199 C198 1.379 1_455 S
C199 C200 1.389 . S
C199 H221 0.929 . S
C200 C196 1.395 1_455 S
C200 C199 1.389 . S
C200 H222 0.931 . S
C201 C198 1.481 . S
C201 C202 1.388 . S
C201 C206 1.390 . S
C202 C201 1.388 . S
C202 C203 1.399 . S
C202 H223 0.935 . S
C203 C202 1.399 . S
C203 C204 1.376 . S
C203 C212 1.511 . S
C204 C203 1.376 . S
C204 C205 1.392 1_655 S
C204 H225 0.932 . S
C205 C204 1.392 1_455 S
C205 C206 1.361 1_455 S
C205 C207 1.499 . S
C206 C201 1.390 . S
C206 C205 1.361 1_655 S
C206 H224 0.931 . S
C207 C205 1.499 . S
C207 C208 1.358 1_455 S
C207 C209 1.379 . S
C208 C207 1.358 1_655 S
C208 C218 1.386 . S
C208 H226 0.931 . S
C209 C207 1.379 . S
C209 C210 1.409 . S
C209 H227 0.929 . S
C210 C209 1.409 . S
C210 C211 1.383 . S
C210 H228 0.930 . S
C211 C210 1.383 . S
C211 C218 1.354 1_455 S
C212 C203 1.511 . S
C212 C213 1.341 . S
C212 C214 1.371 1_655 S
C213 C212 1.341 . S
C213 C217 1.394 . S
C213 H229 0.930 . S
C214 C212 1.371 1_455 S
C214 C215 1.392 . S
C214 H230 0.931 . S
C215 C214 1.392 . S
C215 C216 1.328 1_455 S
C215 H233 0.932 . S
C216 C215 1.328 1_655 S
C216 C217 1.340 . S
C217 C213 1.394 . S
C217 C216 1.340 . S
C217 H232 0.929 . S
C218 C208 1.386 . S
C218 C211 1.354 1_655 S
C218 H231 0.928 . S
H219 C195 0.931 . S
H220 C197 0.930 . S
H221 C199 0.929 . S
H222 C200 0.931 . S
H223 C202 0.935 . S
H224 C206 0.931 . S
H225 C204 0.932 . S
H226 C208 0.931 . S
H227 C209 0.929 . S
H228 C210 0.930 . S
H229 C213 0.930 . S
H230 C214 0.931 . S
H231 C218 0.928 . S
H232 C217 0.929 . S
H233 C215 0.932 . S
C234 C235 1.386 . S
C234 C236 1.397 . S
C234 H258 0.931 . S
C235 C234 1.386 . S
C235 C239 1.397 . S
C236 C234 1.397 . S
C236 C237 1.384 . S
C236 H259 0.930 . S
C237 C236 1.384 . S
C237 C238 1.377 . S
C237 C240 1.481 . S
C238 C237 1.377 . S
C238 C239 1.389 . S
C238 H260 0.929 . S
C239 C235 1.397 . S
C239 C238 1.389 . S
C239 H261 0.931 . S
C240 C237 1.481 . S
C240 C241 1.387 . S
C240 C245 1.390 . S
C241 C240 1.387 . S
C241 C242 1.401 . S
C241 H262 0.930 . S
C242 C241 1.401 . S
C242 C243 1.376 . S
C242 C251 1.511 . S
C243 C242 1.376 . S
C243 C244 1.392 . S
C243 H264 0.931 . S
C244 C243 1.392 . S
C244 C245 1.361 . S
C244 C246 1.500 . S
C245 C240 1.390 . S
C245 C244 1.361 . S
C245 H263 0.931 . S
C246 C244 1.500 . S
C246 C247 1.371 . S
C246 C248 1.365 . S
C247 C246 1.371 . S
C247 C257 1.386 . S
C247 H265 0.931 . S
C248 C246 1.365 . S
C248 C249 1.409 . S
C248 H266 0.929 . S
C249 C248 1.409 . S
C249 C250 1.380 . S
C249 H267 0.930 . S
C250 C249 1.380 . S
C250 C257 1.357 . S
C251 C242 1.511 . S
C251 C252 1.341 . S
C251 C253 1.371 . S
C252 C251 1.341 . S
C252 C256 1.394 . S
C252 H268 0.930 . S
C253 C251 1.371 . S
C253 C254 1.392 . S
C253 H269 0.931 . S
C254 C253 1.392 . S
C254 C255 1.331 . S
C254 H272 0.932 . S
C255 C254 1.331 . S
C255 C256 1.336 . S
C256 C252 1.394 . S
C256 C255 1.336 . S
C256 H271 0.929 . S
C257 C247 1.386 . S
C257 C250 1.357 . S
C257 H270 0.928 . S
H258 C234 0.931 . S
H259 C236 0.930 . S
H260 C238 0.929 . S
H261 C239 0.931 . S
H262 C241 0.930 . S
H263 C245 0.931 . S
H264 C243 0.931 . S
H265 C247 0.931 . S
H266 C248 0.929 . S
H267 C249 0.930 . S
H268 C252 0.930 . S
H269 C253 0.931 . S
H270 C257 0.928 . S
H271 C256 0.929 . S
H272 C254 0.932 . S
C273 C274 1.386 . S
C273 C275 1.397 . S
C273 H297 0.931 . S
C274 C273 1.386 . S
C274 C278 1.397 . S
C275 C273 1.397 . S
C275 C276 1.384 . S
C275 H298 0.930 . S
C276 C275 1.384 . S
C276 C277 1.377 . S
C276 C279 1.481 . S
C277 C276 1.377 . S
C277 C278 1.389 . S
C277 H299 0.929 . S
C278 C274 1.397 . S
C278 C277 1.389 . S
C278 H300 0.931 . S
C279 C276 1.481 . S
C279 C280 1.387 . S
C279 C284 1.390 . S
C280 C279 1.387 . S
C280 C281 1.401 . S
C280 H301 0.930 . S
C281 C280 1.401 . S
C281 C282 1.376 . S
C281 C290 1.511 . S
C282 C281 1.376 . S
C282 C283 1.392 . S
C282 H303 0.931 . S
C283 C282 1.392 . S
C283 C284 1.361 . S
C283 C285 1.500 . S
C284 C279 1.390 . S
C284 C283 1.361 . S
C284 H302 0.931 . S
C285 C283 1.500 . S
C285 C286 1.371 . S
C285 C287 1.365 . S
C286 C285 1.371 . S
C286 C296 1.386 . S
C286 H304 0.931 . S
C287 C285 1.365 . S
C287 C288 1.409 . S
C287 H305 0.929 . S
C288 C287 1.409 . S
C288 C289 1.380 . S
C288 H306 0.930 . S
C289 C288 1.380 . S
C289 C296 1.357 . S
C290 C281 1.511 . S
C290 C291 1.341 . S
C290 C292 1.371 . S
C291 C290 1.341 . S
C291 C295 1.394 . S
C291 H307 0.930 . S
C292 C290 1.371 . S
C292 C293 1.392 . S
C292 H308 0.931 . S
C293 C292 1.392 . S
C293 C294 1.331 . S
C293 H311 0.932 . S
C294 C293 1.331 . S
C294 C295 1.336 . S
C295 C291 1.394 . S
C295 C294 1.336 . S
C295 H310 0.929 . S
C296 C286 1.386 . S
C296 C289 1.357 . S
C296 H309 0.928 . S
H297 C273 0.931 . S
H298 C275 0.930 . S
H299 C277 0.929 . S
H300 C278 0.931 . S
H301 C280 0.930 . S
H302 C284 0.931 . S
H303 C282 0.931 . S
H304 C286 0.931 . S
H305 C287 0.929 . S
H306 C288 0.930 . S
H307 C291 0.930 . S
H308 C292 0.931 . S
H309 C296 0.928 . S
H310 C295 0.929 . S
H311 C293 0.932 . S
O312 Mg313 1.990 . S
O312 C326 1.253 . S
Mg313 O312 1.990 . S
Mg313 O316 2.180 1_565 S
Mg313 O317 2.117 . S
Mg313 O331 2.030 . S
O314 Mg315 2.070 1_465 S
O314 C326 1.260 . S
Mg315 O314 2.070 1_645 S
Mg315 O316 2.048 1_655 S
Mg315 O318 2.088 . S
Mg315 O319 2.056 1_655 S
Mg315 O321 2.150 . S
Mg315 O332 2.091 1_545 S
O316 Mg313 2.180 1_545 S
O316 Mg315 2.048 1_455 S
O316 C327 1.279 . S
O317 Mg313 2.117 . S
O317 C327 1.250 1_565 S
O318 Mg315 2.088 . S
O318 C328 1.264 . S
O319 Mg315 2.056 1_455 S
O319 C329 1.283 . S
Mg320 O321 2.180 . S
Mg320 O322 2.030 . S
Mg320 O323 1.990 . S
Mg320 O324 2.117 . S
O321 Mg315 2.150 . S
O321 Mg320 2.180 . S
O321 C330 1.279 . S
O322 Mg320 2.030 . S
O322 C328 1.248 . S
O323 Mg320 1.990 . S
O323 C329 1.198 1_655 S
O324 Mg320 2.117 . S
O324 C330 1.250 . S
C325 O331 1.204 1_655 S
C325 O332 1.281 . S
C326 O312 1.253 . S
C326 O314 1.260 . S
C327 O316 1.279 . S
C327 O317 1.250 1_545 S
C328 O318 1.264 . S
C328 O322 1.248 . S
C329 O319 1.283 . S
C329 O323 1.198 1_455 S
C330 O321 1.279 . S
C330 O324 1.250 . S
O331 Mg313 2.030 . S
O331 C325 1.204 1_455 S
O332 Mg315 2.091 1_565 S
O332 C325 1.281 . S
O333 Mg334 1.990 1_545 S
O333 C347 1.253 . S
Mg334 O333 1.990 1_565 S
Mg334 O337 2.180 . S
Mg334 O338 2.117 . S
Mg334 O352 2.030 1_565 S
O335 Mg336 2.072 . S
O335 C347 1.260 . S
Mg336 O335 2.072 . S
Mg336 O337 2.099 1_545 S
Mg336 O339 2.079 1_545 S
Mg336 O340 2.065 1_545 S
Mg336 O342 2.099 . S
Mg336 O353 2.079 . S
O337 Mg334 2.180 . S
O337 Mg336 2.099 1_565 S
O337 C348 1.279 . S
O338 Mg334 2.117 . S
O338 C348 1.250 . S
O339 Mg336 2.079 1_565 S
O339 C349 1.264 . S
O340 Mg336 2.065 1_565 S
O340 C350 1.249 1_565 S
Mg341 O342 2.180 . S
Mg341 O343 2.030 . S
Mg341 O344 1.990 . S
Mg341 O345 2.117 . S
O342 Mg336 2.099 . S
O342 Mg341 2.180 . S
O342 C351 1.279 . S
O343 Mg341 2.030 . S
O343 C349 1.248 1_545 S
O344 Mg341 1.990 . S
O344 C350 1.253 . S
O345 Mg341 2.117 . S
O345 C351 1.250 . S
C346 O352 1.248 . S
C346 O353 1.264 . S
C347 O333 1.253 . S
C347 O335 1.260 . S
C348 O337 1.279 . S
C348 O338 1.250 . S
C349 O339 1.264 . S
C349 O343 1.248 1_565 S
C350 O340 1.249 1_545 S
C350 O344 1.253 . S
C351 O342 1.279 . S
C351 O345 1.250 . S
O352 Mg334 2.030 1_545 S
O352 C346 1.248 . S
O353 Mg336 2.079 . S
O353 C346 1.264 . S
O354 Mg355 1.990 . S
O354 C368 1.253 . S
Mg355 O354 1.990 . S
Mg355 O358 2.180 . S
Mg355 O359 2.117 . S
Mg355 O373 2.030 . S
O356 Mg357 2.072 . S
O356 C368 1.260 . S
Mg357 O356 2.072 . S
Mg357 O358 2.099 . S
Mg357 O360 2.079 . S
Mg357 O361 2.072 . S
Mg357 O363 2.099 . S
Mg357 O374 2.079 . S
O358 Mg355 2.180 . S
O358 Mg357 2.099 . S
O358 C369 1.279 . S
O359 Mg355 2.117 . S
O359 C369 1.250 . S
O360 Mg357 2.079 . S
O360 C370 1.264 . S
O361 Mg357 2.072 . S
O361 C371 1.260 . S
Mg362 O363 2.180 . S
Mg362 O364 2.030 . S
Mg362 O365 1.990 . S
Mg362 O366 2.117 . S
O363 Mg357 2.099 . S
O363 Mg362 2.180 . S
O363 C372 1.279 . S
O364 Mg362 2.030 . S
O364 C370 1.248 . S
O365 Mg362 1.990 . S
O365 C371 1.253 . S
O366 Mg362 2.117 . S
O366 C372 1.250 . S
C367 O373 1.248 . S
C367 O374 1.264 . S
C368 O354 1.253 . S
C368 O356 1.260 . S
C369 O358 1.279 . S
C369 O359 1.250 . S
C370 O360 1.264 . S
C370 O364 1.248 . S
C371 O361 1.260 . S
C371 O365 1.253 . S
C372 O363 1.279 . S
C372 O366 1.250 . S
O373 Mg355 2.030 . S
O373 C367 1.248 . S
O374 Mg357 2.079 . S
O374 C367 1.264 . S
O375 Mg376 1.990 . S
O375 C389 1.253 . S
Mg376 O375 1.990 . S
Mg376 O379 2.180 . S
Mg376 O380 2.117 . S
Mg376 O394 2.030 . S
O377 Mg378 2.072 1_655 S
O377 C389 1.260 . S
Mg378 O377 2.072 1_455 S
Mg378 O379 2.099 1_455 S
Mg378 O381 2.079 . S
Mg378 O382 2.072 . S
Mg378 O384 2.099 . S
Mg378 O395 2.079 1_455 S
O379 Mg376 2.180 . S
O379 Mg378 2.099 1_655 S
O379 C390 1.279 . S
O380 Mg376 2.117 . S
O380 C390 1.250 . S
O381 Mg378 2.079 . S
O381 C391 1.264 . S
O382 Mg378 2.072 . S
O382 C392 1.260 . S
Mg383 O384 2.180 . S
Mg383 O385 2.030 . S
Mg383 O386 1.990 . S
Mg383 O387 2.117 . S
O384 Mg378 2.099 . S
O384 Mg383 2.180 . S
O384 C393 1.279 . S
O385 Mg383 2.030 . S
O385 C391 1.248 . S
O386 Mg383 1.990 . S
O386 C392 1.253 . S
O387 Mg383 2.117 . S
O387 C393 1.250 . S
C388 O394 1.248 . S
C388 O395 1.264 . S
C389 O375 1.253 . S
C389 O377 1.260 . S
C390 O379 1.279 . S
C390 O380 1.250 . S
C391 O381 1.264 . S
C391 O385 1.248 . S
C392 O382 1.260 . S
C392 O386 1.253 . S
C393 O384 1.279 . S
C393 O387 1.250 . S
O394 Mg376 2.030 . S
O394 C388 1.248 . S
O395 Mg378 2.079 1_655 S
O395 C388 1.264 . S
C396 C397 1.349 . S
C396 C398 1.327 . S
C396 H421 0.950 . S
C397 C396 1.349 . S
C397 C413 1.349 . S
C398 C396 1.327 . S
C398 C417 1.429 . S
C398 H422 0.950 . S
C399 C416 1.574 . S
C399 C418 1.368 . S
C399 H423 0.949 . S
H400 C404 0.949 . S
C401 C402 1.349 . S
C401 C403 1.327 . S
C401 H424 0.950 . S
C402 C401 1.349 . S
C402 C414 1.349 . S
C403 C401 1.327 . S
C403 C419 1.429 . S
C403 H425 0.950 . S
C404 H400 0.949 . S
C404 C412 1.574 . S
C404 C420 1.368 . S
H405 C413 0.950 . S
H406 C411 0.950 . S
H407 C412 0.949 . S
H408 C414 0.950 . S
H409 C415 0.950 . S
H410 C416 0.949 . S
C411 H406 0.950 . S
C411 C413 1.327 . S
C411 C417 1.429 . S
C412 C404 1.574 . S
C412 H407 0.949 . S
C412 C418 1.368 . S
C413 C397 1.349 . S
C413 H405 0.950 . S
C413 C411 1.327 . S
C414 C402 1.349 . S
C414 H408 0.950 . S
C414 C415 1.327 . S
C415 H409 0.950 . S
C415 C414 1.327 . S
C415 C419 1.429 . S
C416 C399 1.574 . S
C416 H410 0.949 . S
C416 C420 1.368 . S
C417 C398 1.429 . S
C417 C411 1.429 . S
C417 C418 1.523 . S
C418 C399 1.368 . S
C418 C412 1.368 . S
C418 C417 1.523 . S
C419 C403 1.429 . S
C419 C415 1.429 . S
C419 C420 1.523 . S
C420 C404 1.368 . S
C420 C416 1.368 . S
C420 C419 1.523 . S
H421 C396 0.950 . S
H422 C398 0.950 . S
H423 C399 0.949 . S
H424 C401 0.950 . S
H425 C403 0.950 . S
C426 C427 1.349 . S
C426 C428 1.327 . S
C426 H451 0.950 . S
C427 C426 1.349 . S
C427 C443 1.349 . S
C428 C426 1.327 . S
C428 C447 1.429 . S
C428 H452 0.950 . S
C429 C446 1.574 . S
C429 C448 1.368 . S
C429 H453 0.949 . S
H430 C434 0.949 . S
C431 C432 1.349 . S
C431 C433 1.327 . S
C431 H454 0.950 . S
C432 C431 1.349 . S
C432 C444 1.349 . S
C433 C431 1.327 . S
C433 C449 1.429 . S
C433 H455 0.950 . S
C434 H430 0.949 . S
C434 C442 1.574 . S
C434 C450 1.368 . S
H435 C443 0.950 . S
H436 C441 0.950 . S
H437 C442 0.949 . S
H438 C444 0.950 . S
H439 C445 0.950 . S
H440 C446 0.949 . S
C441 H436 0.950 . S
C441 C443 1.327 . S
C441 C447 1.429 . S
C442 C434 1.574 . S
C442 H437 0.949 . S
C442 C448 1.368 . S
C443 C427 1.349 . S
C443 H435 0.950 . S
C443 C441 1.327 . S
C444 C432 1.349 . S
C444 H438 0.950 . S
C444 C445 1.327 . S
C445 H439 0.950 . S
C445 C444 1.327 . S
C445 C449 1.429 . S
C446 C429 1.574 . S
C446 H440 0.949 . S
C446 C450 1.368 . S
C447 C428 1.429 . S
C447 C441 1.429 . S
C447 C448 1.523 . S
C448 C429 1.368 . S
C448 C442 1.368 . S
C448 C447 1.523 . S
C449 C433 1.429 . S
C449 C445 1.429 . S
C449 C450 1.523 . S
C450 C434 1.368 . S
C450 C446 1.368 . S
C450 C449 1.523 . S
H451 C426 0.950 . S
H452 C428 0.950 . S
H453 C429 0.949 . S
H454 C431 0.950 . S
H455 C433 0.950 . S
C456 C457 1.349 . S
C456 C458 1.327 . S
C456 H481 0.950 . S
C457 C456 1.349 . S
C457 C473 1.349 . S
C458 C456 1.327 . S
C458 C477 1.429 . S
C458 H482 0.950 . S
C459 C476 1.574 . S
C459 C478 1.368 . S
C459 H483 0.949 . S
H460 C464 0.949 . S
C461 C462 1.349 . S
C461 C463 1.327 . S
C461 H484 0.950 . S
C462 C461 1.349 . S
C462 C474 1.349 . S
C463 C461 1.327 . S
C463 C479 1.429 . S
C463 H485 0.950 . S
C464 H460 0.949 . S
C464 C472 1.574 . S
C464 C480 1.368 . S
H465 C473 0.950 . S
H466 C471 0.950 . S
H467 C472 0.949 . S
H468 C474 0.950 . S
H469 C475 0.950 . S
H470 C476 0.949 . S
C471 H466 0.950 . S
C471 C473 1.327 . S
C471 C477 1.429 . S
C472 C464 1.574 . S
C472 H467 0.949 . S
C472 C478 1.368 . S
C473 C457 1.349 . S
C473 H465 0.950 . S
C473 C471 1.327 . S
C474 C462 1.349 . S
C474 H468 0.950 . S
C474 C475 1.327 . S
C475 H469 0.950 . S
C475 C474 1.327 . S
C475 C479 1.429 . S
C476 C459 1.574 . S
C476 H470 0.949 . S
C476 C480 1.368 . S
C477 C458 1.429 . S
C477 C471 1.429 . S
C477 C478 1.523 . S
C478 C459 1.368 . S
C478 C472 1.368 . S
C478 C477 1.523 . S
C479 C463 1.429 . S
C479 C475 1.429 . S
C479 C480 1.523 . S
C480 C464 1.368 . S
C480 C476 1.368 . S
C480 C479 1.523 . S
H481 C456 0.950 . S
H482 C458 0.950 . S
H483 C459 0.949 . S
H484 C461 0.950 . S
H485 C463 0.950 . S
C486 C487 1.344 1_455 S
C486 C488 1.327 . S
C486 H511 0.950 . S
C487 C486 1.344 1_655 S
C487 C503 1.354 . S
C488 C486 1.327 . S
C488 C507 1.429 1_455 S
C488 H512 0.950 . S
C489 C506 1.574 . S
C489 C508 1.368 . S
C489 H513 0.949 . S
H490 C494 0.949 . S
C491 C492 1.349 . S
C491 C493 1.327 . S
C491 H514 0.950 . S
C492 C491 1.349 . S
C492 C504 1.349 1_655 S
C493 C491 1.327 . S
C493 C509 1.429 . S
C493 H515 0.950 . S
C494 H490 0.949 . S
C494 C502 1.574 . S
C494 C510 1.368 1_455 S
H495 C503 0.950 . S
H496 C501 0.950 . S
H497 C502 0.949 . S
H498 C504 0.950 . S
H499 C505 0.950 . S
H500 C506 0.949 . S
C501 H496 0.950 . S
C501 C503 1.327 . S
C501 C507 1.429 . S
C502 C494 1.574 . S
C502 H497 0.949 . S
C502 C508 1.368 1_455 S
C503 C487 1.354 . S
C503 H495 0.950 . S
C503 C501 1.327 . S
C504 C492 1.349 1_455 S
C504 H498 0.950 . S
C504 C505 1.327 . S
C505 H499 0.950 . S
C505 C504 1.327 . S
C505 C509 1.429 1_455 S
C506 C489 1.574 . S
C506 H500 0.949 . S
C506 C510 1.368 . S
C507 C488 1.429 1_655 S
C507 C501 1.429 . S
C507 C508 1.523 . S
C508 C489 1.368 . S
C508 C502 1.368 1_655 S
C508 C507 1.523 . S
C509 C493 1.429 . S
C509 C505 1.429 1_655 S
C509 C510 1.523 . S
C510 C494 1.368 1_655 S
C510 C506 1.368 . S
C510 C509 1.523 . S
H511 C486 0.950 . S
H512 C488 0.950 . S
H513 C489 0.949 . S
H514 C491 0.950 . S
H515 C493 0.950 . S
C516 C517 1.349 . S
C516 C518 1.327 . S
C516 H541 0.950 . S
C517 C516 1.349 . S
C517 C533 1.349 1_554 S
C518 C516 1.327 . S
C518 C537 1.429 1_554 S
C518 H542 0.950 . S
C519 C536 1.574 . S
C519 C538 1.368 . S
C519 H543 0.949 . S
H520 C524 0.949 . S
C521 C522 1.349 . S
C521 C523 1.327 . S
C521 H544 0.950 . S
C522 C521 1.349 . S
C522 C534 1.349 . S
C523 C521 1.327 . S
C523 C539 1.429 . S
C523 H545 0.950 . S
C524 H520 0.949 . S
C524 C532 1.574 . S
C524 C540 1.368 . S
H525 C533 0.950 . S
H526 C531 0.950 . S
H527 C532 0.949 1_554 S
H528 C534 0.950 1_545 S
H529 C535 0.950 . S
H530 C536 0.949 . S
C531 H526 0.950 . S
C531 C533 1.327 . S
C531 C537 1.429 . S
C532 C524 1.574 . S
C532 H527 0.949 1_556 S
C532 C538 1.368 . S
C533 C517 1.349 1_556 S
C533 H525 0.950 . S
C533 C531 1.327 . S
C534 C522 1.349 . S
C534 H528 0.950 1_565 S
C534 C535 1.327 . S
C535 H529 0.950 . S
C535 C534 1.327 . S
C535 C539 1.429 . S
C536 C519 1.574 . S
C536 H530 0.949 . S
C536 C540 1.368 . S
C537 C518 1.429 1_556 S
C537 C531 1.429 . S
C537 C538 1.523 . S
C538 C519 1.368 . S
C538 C532 1.368 . S
C538 C537 1.523 . S
C539 C523 1.429 . S
C539 C535 1.429 . S
C539 C540 1.523 . S
C540 C524 1.368 . S
C540 C536 1.368 . S
C540 C539 1.523 . S
H541 C516 0.950 . S
H542 C518 0.950 . S
H543 C519 0.949 . S
H544 C521 0.950 . S
H545 C523 0.950 . S
C546 C547 1.349 . S
C546 C548 1.327 1_554 S
C546 H571 0.950 . S
C547 C546 1.349 . S
C547 C563 1.349 . S
C548 C546 1.327 1_556 S
C548 C567 1.429 . S
C548 H572 0.950 . S
C549 C566 1.574 . S
C549 C568 1.368 . S
C549 H573 0.949 1_556 S
H550 C554 0.949 . S
C551 C552 1.349 . S
C551 C553 1.327 . S
C551 H574 0.950 . S
C552 C551 1.349 . S
C552 C564 1.349 . S
C553 C551 1.327 . S
C553 C569 1.429 . S
C553 H575 0.950 . S
C554 H550 0.949 . S
C554 C562 1.574 . S
C554 C570 1.368 . S
H555 C563 0.950 . S
H556 C561 0.950 . S
H557 C562 0.949 . S
H558 C564 0.950 . S
H559 C565 0.950 . S
H560 C566 0.949 . S
C561 H556 0.950 . S
C561 C563 1.327 . S
C561 C567 1.429 1_554 S
C562 C554 1.574 . S
C562 H557 0.949 . S
C562 C568 1.368 . S
C563 C547 1.349 . S
C563 H555 0.950 . S
C563 C561 1.327 . S
C564 C552 1.349 . S
C564 H558 0.950 . S
C564 C565 1.327 . S
C565 H559 0.950 . S
C565 C564 1.327 . S
C565 C569 1.429 . S
C566 C549 1.574 . S
C566 H560 0.949 . S
C566 C570 1.368 . S
C567 C548 1.429 . S
C567 C561 1.429 1_556 S
C567 C568 1.523 . S
C568 C549 1.368 . S
C568 C562 1.368 . S
C568 C567 1.523 . S
C569 C553 1.429 . S
C569 C565 1.429 . S
C569 C570 1.523 . S
C570 C554 1.368 . S
C570 C566 1.368 . S
C570 C569 1.523 . S
H571 C546 0.950 . S
H572 C548 0.950 . S
H573 C549 0.949 1_554 S
H574 C551 0.950 . S
H575 C553 0.950 . S
C576 C577 1.349 1_556 S
C576 C578 1.327 . S
C576 H601 0.950 . S
C577 C576 1.349 1_554 S
C577 C593 1.349 . S
C578 C576 1.327 . S
C578 C597 1.429 . S
C578 H602 0.950 . S
C579 C596 1.574 . S
C579 C598 1.368 . S
C579 H603 0.949 1_556 S
H580 C584 0.949 . S
C581 C582 1.349 . S
C581 C583 1.327 . S
C581 H604 0.950 . S
C582 C581 1.349 . S
C582 C594 1.349 . S
C583 C581 1.327 . S
C583 C599 1.429 . S
C583 H605 0.950 . S
C584 H580 0.949 . S
C584 C592 1.574 . S
C584 C600 1.368 . S
H585 C593 0.950 . S
H586 C591 0.950 . S
H587 C592 0.949 . S
H588 C594 0.950 . S
H589 C595 0.950 . S
H590 C596 0.949 . S
C591 H586 0.950 . S
C591 C593 1.327 . S
C591 C597 1.429 1_554 S
C592 C584 1.574 . S
C592 H587 0.949 . S
C592 C598 1.368 . S
C593 C577 1.349 . S
C593 H585 0.950 . S
C593 C591 1.327 . S
C594 C582 1.349 . S
C594 H588 0.950 . S
C594 C595 1.327 . S
C595 H589 0.950 . S
C595 C594 1.327 . S
C595 C599 1.429 . S
C596 C579 1.574 . S
C596 H590 0.949 . S
C596 C600 1.368 . S
C597 C578 1.429 . S
C597 C591 1.429 1_556 S
C597 C598 1.523 . S
C598 C579 1.368 . S
C598 C592 1.368 . S
C598 C597 1.523 . S
C599 C583 1.429 . S
C599 C595 1.429 . S
C599 C600 1.523 . S
C600 C584 1.368 . S
C600 C596 1.368 . S
C600 C599 1.523 . S
H601 C576 0.950 . S
H602 C578 0.950 . S
H603 C579 0.949 1_554 S
H604 C581 0.950 . S
H605 C583 0.950 . S
C606 C607 1.355 . S
C606 C608 1.327 1_554 S
C606 H631 0.950 . S
C607 C606 1.355 . S
C607 C623 1.343 1_455 S
C608 C606 1.327 1_556 S
C608 C627 1.429 . S
C608 H632 0.950 . S
C609 C626 1.574 . S
C609 C628 1.368 1_655 S
C609 H633 0.958 . S
H610 C614 0.949 . S
C611 C612 1.349 1_655 S
C611 C613 1.327 . S
C611 H634 0.950 . S
C612 C611 1.349 1_455 S
C612 C624 1.349 . S
C613 C611 1.327 . S
C613 C629 1.429 1_655 S
C613 H635 0.950 . S
C614 H610 0.949 . S
C614 C622 1.574 . S
C614 C630 1.368 . S
H615 C623 0.950 . S
H616 C621 0.950 . S
H617 C622 0.949 . S
H618 C624 0.950 . S
H619 C625 0.950 . S
H620 C626 0.949 . S
C621 H616 0.950 . S
C621 C623 1.327 . S
C621 C627 1.429 1_654 S
C622 C614 1.574 . S
C622 H617 0.949 . S
C622 C628 1.368 . S
C623 C607 1.343 1_655 S
C623 H615 0.950 . S
C623 C621 1.327 . S
C624 C612 1.349 . S
C624 H618 0.950 . S
C624 C625 1.327 . S
C625 H619 0.950 . S
C625 C624 1.327 . S
C625 C629 1.429 . S
C626 C609 1.574 . S
C626 H620 0.949 . S
C626 C630 1.368 1_655 S
C627 C608 1.429 . S
C627 C621 1.429 1_456 S
C627 C628 1.523 . S
C628 C609 1.368 1_455 S
C628 C622 1.368 . S
C628 C627 1.523 . S
C629 C613 1.429 1_455 S
C629 C625 1.429 . S
C629 C630 1.523 . S
C630 C614 1.368 . S
C630 C626 1.368 1_455 S
C630 C629 1.523 . S
H631 C606 0.950 . S
H632 C608 0.950 . S
H633 C609 0.958 . S
H634 C611 0.950 . S
H635 C613 0.950 . S
C636 C637 1.349 1_655 S
C636 C638 1.327 . S
C636 H661 0.950 . S
C637 C636 1.349 1_455 S
C637 C653 1.349 . S
C638 C636 1.327 . S
C638 C657 1.429 . S
C638 H662 0.950 . S
C639 C656 1.574 . S
C639 C658 1.368 1_455 S
C639 H663 0.949 . S
H640 C644 0.949 . S
C641 C642 1.349 . S
C641 C643 1.327 . S
C641 H664 0.956 . S
C642 C641 1.349 . S
C642 C654 1.349 . S
C643 C641 1.327 . S
C643 C659 1.429 . S
C643 H665 0.950 1_655 S
C644 H640 0.949 . S
C644 C652 1.574 . S
C644 C660 1.368 . S
H645 C653 0.950 . S
H646 C651 0.950 . S
H647 C652 0.949 . S
H648 C654 0.950 . S
H649 C655 0.950 . S
H650 C656 0.949 . S
C651 H646 0.950 . S
C651 C653 1.327 . S
C651 C657 1.429 1_455 S
C652 C644 1.574 . S
C652 H647 0.949 . S
C652 C658 1.368 . S
C653 C637 1.349 . S
C653 H645 0.950 . S
C653 C651 1.327 . S
C654 C642 1.349 . S
C654 H648 0.950 . S
C654 C655 1.327 . S
C655 H649 0.950 . S
C655 C654 1.327 . S
C655 C659 1.429 . S
C656 C639 1.574 . S
C656 H650 0.949 . S
C656 C660 1.368 1_455 S
C657 C638 1.429 . S
C657 C651 1.429 1_655 S
C657 C658 1.523 . S
C658 C639 1.368 1_655 S
C658 C652 1.368 . S
C658 C657 1.523 . S
C659 C643 1.429 . S
C659 C655 1.429 . S
C659 C660 1.523 . S
C660 C644 1.368 . S
C660 C656 1.368 1_655 S
C660 C659 1.523 . S
H661 C636 0.950 . S
H662 C638 0.950 . S
H663 C639 0.949 . S
H664 C641 0.956 . S
H665 C643 0.950 1_455 S
C666 C667 1.349 . S
C666 C668 1.327 . S
C666 H691 0.950 . S
C667 C666 1.349 . S
C667 C683 1.349 . S
C668 C666 1.327 . S
C668 C687 1.429 . S
C668 H692 0.950 . S
C669 C686 1.574 . S
C669 C688 1.368 . S
C669 H693 0.949 . S
H670 C674 0.949 . S
C671 C672 1.349 . S
C671 C673 1.327 . S
C671 H694 0.950 . S
C672 C671 1.349 . S
C672 C684 1.349 . S
C673 C671 1.327 . S
C673 C689 1.429 . S
C673 H695 0.950 . S
C674 H670 0.949 . S
C674 C682 1.574 . S
C674 C690 1.368 . S
H675 C683 0.950 . S
H676 C681 0.950 . S
H677 C682 0.949 . S
H678 C684 0.950 . S
H679 C685 0.950 . S
H680 C686 0.949 . S
C681 H676 0.950 . S
C681 C683 1.327 . S
C681 C687 1.429 . S
C682 C674 1.574 . S
C682 H677 0.949 . S
C682 C688 1.368 . S
C683 C667 1.349 . S
C683 H675 0.950 . S
C683 C681 1.327 . S
C684 C672 1.349 . S
C684 H678 0.950 . S
C684 C685 1.327 . S
C685 H679 0.950 . S
C685 C684 1.327 . S
C685 C689 1.429 . S
C686 C669 1.574 . S
C686 H680 0.949 . S
C686 C690 1.368 . S
C687 C668 1.429 . S
C687 C681 1.429 . S
C687 C688 1.523 . S
C688 C669 1.368 . S
C688 C682 1.368 . S
C688 C687 1.523 . S
C689 C673 1.429 . S
C689 C685 1.429 . S
C689 C690 1.523 . S
C690 C674 1.368 . S
C690 C686 1.368 . S
C690 C689 1.523 . S
H691 C666 0.950 . S
H692 C668 0.950 . S
H693 C669 0.949 . S
H694 C671 0.950 . S
H695 C673 0.950 . S
C696 C697 1.349 . S
C696 C698 1.327 . S
C696 H721 0.950 . S
C697 C696 1.349 . S
C697 C713 1.349 . S
C698 C696 1.327 . S
C698 C717 1.429 . S
C698 H722 0.950 . S
C699 C716 1.574 . S
C699 C718 1.368 . S
C699 H723 0.949 . S
H700 C704 0.949 . S
C701 C702 1.349 . S
C701 C703 1.327 . S
C701 H724 0.950 . S
C702 C701 1.349 . S
C702 C714 1.349 . S
C703 C701 1.327 . S
C703 C719 1.429 . S
C703 H725 0.950 . S
C704 H700 0.949 . S
C704 C712 1.574 . S
C704 C720 1.368 . S
H705 C713 0.950 . S
H706 C711 0.950 . S
H707 C712 0.949 . S
H708 C714 0.950 . S
H709 C715 0.950 . S
H710 C716 0.949 . S
C711 H706 0.950 . S
C711 C713 1.327 . S
C711 C717 1.429 . S
C712 C704 1.574 . S
C712 H707 0.949 . S
C712 C718 1.368 . S
C713 C697 1.349 . S
C713 H705 0.950 . S
C713 C711 1.327 . S
C714 C702 1.349 . S
C714 H708 0.950 . S
C714 C715 1.327 . S
C715 H709 0.950 . S
C715 C714 1.327 . S
C715 C719 1.429 . S
C716 C699 1.574 . S
C716 H710 0.949 . S
C716 C720 1.368 . S
C717 C698 1.429 . S
C717 C711 1.429 . S
C717 C718 1.523 . S
C718 C699 1.368 . S
C718 C712 1.368 . S
C718 C717 1.523 . S
C719 C703 1.429 . S
C719 C715 1.429 . S
C719 C720 1.523 . S
C720 C704 1.368 . S
C720 C716 1.368 . S
C720 C719 1.523 . S
H721 C696 0.950 . S
H722 C698 0.950 . S
H723 C699 0.949 . S
H724 C701 0.950 . S
H725 C703 0.950 . S
C726 C727 1.349 . S
C726 C728 1.327 . S
C726 H751 0.950 . S
C727 C726 1.349 . S
C727 C743 1.349 . S
C728 C726 1.327 . S
C728 C747 1.429 . S
C728 H752 0.950 . S
C729 C746 1.574 . S
C729 C748 1.368 . S
C729 H753 0.949 . S
H730 C734 0.949 . S
C731 C732 1.349 . S
C731 C733 1.327 . S
C731 H754 0.950 . S
C732 C731 1.349 . S
C732 C744 1.349 . S
C733 C731 1.327 . S
C733 C749 1.429 . S
C733 H755 0.950 . S
C734 H730 0.949 . S
C734 C742 1.574 . S
C734 C750 1.368 . S
H735 C743 0.950 . S
H736 C741 0.950 . S
H737 C742 0.949 . S
H738 C744 0.950 . S
H739 C745 0.950 . S
H740 C746 0.949 . S
C741 H736 0.950 . S
C741 C743 1.327 . S
C741 C747 1.429 . S
C742 C734 1.574 . S
C742 H737 0.949 . S
C742 C748 1.368 . S
C743 C727 1.349 . S
C743 H735 0.950 . S
C743 C741 1.327 . S
C744 C732 1.349 . S
C744 H738 0.950 . S
C744 C745 1.327 . S
C745 H739 0.950 . S
C745 C744 1.327 . S
C745 C749 1.429 . S
C746 C729 1.574 . S
C746 H740 0.949 . S
C746 C750 1.368 . S
C747 C728 1.429 . S
C747 C741 1.429 . S
C747 C748 1.523 . S
C748 C729 1.368 . S
C748 C742 1.368 . S
C748 C747 1.523 . S
C749 C733 1.429 . S
C749 C745 1.429 . S
C749 C750 1.523 . S
C750 C734 1.368 . S
C750 C746 1.368 . S
C750 C749 1.523 . S
H751 C726 0.950 . S
H752 C728 0.950 . S
H753 C729 0.949 . S
H754 C731 0.950 . S
H755 C733 0.950 . S
C756 C757 1.349 . S
C756 C758 1.327 . S
C756 H781 0.950 . S
C757 C756 1.349 . S
C757 C773 1.349 1_655 S
C758 C756 1.327 . S
C758 C777 1.429 1_655 S
C758 H782 0.950 . S
C759 C776 1.574 . S
C759 C778 1.368 . S
C759 H783 0.949 . S
H760 C764 0.949 . S
C761 C762 1.349 . S
C761 C763 1.327 . S
C761 H784 0.950 . S
C762 C761 1.349 . S
C762 C774 1.349 1_455 S
C763 C761 1.327 . S
C763 C779 1.429 . S
C763 H785 0.950 . S
C764 H760 0.949 . S
C764 C772 1.574 . S
C764 C780 1.368 1_655 S
H765 C773 0.950 1_554 S
H766 C771 0.950 . S
H767 C772 0.949 . S
H768 C774 0.950 . S
H769 C775 0.950 . S
H770 C776 0.949 . S
C771 H766 0.950 . S
C771 C773 1.327 . S
C771 C777 1.429 . S
C772 C764 1.574 . S
C772 H767 0.949 . S
C772 C778 1.368 1_655 S
C773 C757 1.349 1_455 S
C773 H765 0.950 1_556 S
C773 C771 1.327 . S
C774 C762 1.349 1_655 S
C774 H768 0.950 . S
C774 C775 1.327 . S
C775 H769 0.950 . S
C775 C774 1.327 . S
C775 C779 1.429 1_655 S
C776 C759 1.574 . S
C776 H770 0.949 . S
C776 C780 1.368 . S
C777 C758 1.429 1_455 S
C777 C771 1.429 . S
C777 C778 1.523 . S
C778 C759 1.368 . S
C778 C772 1.368 1_455 S
C778 C777 1.523 . S
C779 C763 1.429 . S
C779 C775 1.429 1_455 S
C779 C780 1.523 . S
C780 C764 1.368 1_455 S
C780 C776 1.368 . S
C780 C779 1.523 . S
H781 C756 0.950 . S
H782 C758 0.950 . S
H783 C759 0.949 . S
H784 C761 0.950 . S
H785 C763 0.950 . S
C786 C787 1.349 . S
C786 C788 1.327 . S
C786 H811 0.950 . S
C787 C786 1.349 . S
C787 C803 1.349 . S
C788 C786 1.327 . S
C788 C807 1.429 . S
C788 H812 0.950 . S
C789 C806 1.574 . S
C789 C808 1.368 . S
C789 H813 0.949 . S
H790 C794 0.949 . S
C791 C792 1.349 1_565 S
C791 C793 1.327 . S
C791 H814 0.950 . S
C792 C791 1.349 1_545 S
C792 C804 1.349 . S
C793 C791 1.327 . S
C793 C809 1.429 . S
C793 H815 0.950 . S
C794 H790 0.949 . S
C794 C802 1.574 . S
C794 C810 1.368 . S
H795 C803 0.950 . S
H796 C801 0.950 . S
H797 C802 0.949 . S
H798 C804 0.950 . S
H799 C805 0.950 1_545 S
H800 C806 0.949 . S
C801 H796 0.950 . S
C801 C803 1.327 . S
C801 C807 1.429 . S
C802 C794 1.574 . S
C802 H797 0.949 . S
C802 C808 1.368 . S
C803 C787 1.349 . S
C803 H795 0.950 . S
C803 C801 1.327 . S
C804 C792 1.349 . S
C804 H798 0.950 . S
C804 C805 1.327 1_545 S
C805 H799 0.950 1_565 S
C805 C804 1.327 1_565 S
C805 C809 1.429 . S
C806 C789 1.574 . S
C806 H800 0.949 . S
C806 C810 1.368 . S
C807 C788 1.429 . S
C807 C801 1.429 . S
C807 C808 1.523 . S
C808 C789 1.368 . S
C808 C802 1.368 . S
C808 C807 1.523 . S
C809 C793 1.429 . S
C809 C805 1.429 . S
C809 C810 1.523 . S
C810 C794 1.368 . S
C810 C806 1.368 . S
C810 C809 1.523 . S
H811 C786 0.950 . S
H812 C788 0.950 . S
H813 C789 0.949 . S
H814 C791 0.950 . S
H815 C793 0.950 . S
C816 C817 1.349 . S
C816 C818 1.327 . S
C816 H841 0.950 1_556 S
C817 C816 1.349 . S
C817 C833 1.349 . S
C818 C816 1.327 . S
C818 C837 1.429 . S
C818 H842 0.950 . S
C819 C836 1.574 . S
C819 C838 1.368 . S
C819 H843 0.949 . S
H820 C824 0.949 . S
C821 C822 1.349 . S
C821 C823 1.327 . S
C821 H844 0.950 . S
C822 C821 1.349 . S
C822 C834 1.349 . S
C823 C821 1.327 . S
C823 C839 1.429 . S
C823 H845 0.950 . S
C824 H820 0.949 . S
C824 C832 1.574 . S
C824 C840 1.368 . S
H825 C833 0.950 . S
H826 C831 0.950 . S
H827 C832 0.949 . S
H828 C834 0.950 . S
H829 C835 0.950 . S
H830 C836 0.949 . S
C831 H826 0.950 . S
C831 C833 1.327 . S
C831 C837 1.429 . S
C832 C824 1.574 . S
C832 H827 0.949 . S
C832 C838 1.368 . S
C833 C817 1.349 . S
C833 H825 0.950 . S
C833 C831 1.327 . S
C834 C822 1.349 . S
C834 H828 0.950 . S
C834 C835 1.327 . S
C835 H829 0.950 . S
C835 C834 1.327 . S
C835 C839 1.429 . S
C836 C819 1.574 . S
C836 H830 0.949 . S
C836 C840 1.368 . S
C837 C818 1.429 . S
C837 C831 1.429 . S
C837 C838 1.523 . S
C838 C819 1.368 . S
C838 C832 1.368 . S
C838 C837 1.523 . S
C839 C823 1.429 . S
C839 C835 1.429 . S
C839 C840 1.523 . S
C840 C824 1.368 . S
C840 C836 1.368 . S
C840 C839 1.523 . S
H841 C816 0.950 1_554 S
H842 C818 0.950 . S
H843 C819 0.949 . S
H844 C821 0.950 . S
H845 C823 0.950 . S
C846 C847 1.349 . S
C846 C848 1.327 . S
C846 H871 0.950 . S
C847 C846 1.349 . S
C847 C863 1.349 . S
C848 C846 1.327 . S
C848 C867 1.429 . S
C848 H872 0.950 . S
C849 C866 1.574 . S
C849 C868 1.368 . S
C849 H873 0.949 . S
H850 C854 0.949 . S
C851 C852 1.349 . S
C851 C853 1.327 . S
C851 H874 0.950 . S
C852 C851 1.349 . S
C852 C864 1.349 . S
C853 C851 1.327 . S
C853 C869 1.429 . S
C853 H875 0.950 . S
C854 H850 0.949 . S
C854 C862 1.574 . S
C854 C870 1.368 . S
H855 C863 0.950 . S
H856 C861 0.950 . S
H857 C862 0.949 . S
H858 C864 0.950 . S
H859 C865 0.950 . S
H860 C866 0.949 . S
C861 H856 0.950 . S
C861 C863 1.327 . S
C861 C867 1.429 . S
C862 C854 1.574 . S
C862 H857 0.949 . S
C862 C868 1.368 . S
C863 C847 1.349 . S
C863 H855 0.950 . S
C863 C861 1.327 . S
C864 C852 1.349 . S
C864 H858 0.950 . S
C864 C865 1.327 . S
C865 H859 0.950 . S
C865 C864 1.327 . S
C865 C869 1.429 . S
C866 C849 1.574 . S
C866 H860 0.949 . S
C866 C870 1.368 . S
C867 C848 1.429 . S
C867 C861 1.429 . S
C867 C868 1.523 . S
C868 C849 1.368 . S
C868 C862 1.368 . S
C868 C867 1.523 . S
C869 C853 1.429 . S
C869 C865 1.429 . S
C869 C870 1.523 . S
C870 C854 1.368 . S
C870 C866 1.368 . S
C870 C869 1.523 . S
H871 C846 0.950 . S
H872 C848 0.950 . S
H873 C849 0.949 . S
H874 C851 0.950 . S
H875 C853 0.950 . S
C876 C877 1.373 . S
C876 C878 1.327 1_554 S
C876 H901 0.950 . S
C877 C876 1.373 . S
C877 C893 1.327 1_455 S
C878 C876 1.327 1_556 S
C878 C897 1.429 1_556 S
C878 H902 0.950 . S
C879 C896 1.574 1_554 S
C879 C898 1.368 1_654 S
C879 H903 0.949 . S
H880 C884 0.949 . S
C881 C882 1.349 1_655 S
C881 C883 1.327 . S
C881 H904 0.950 . S
C882 C881 1.349 1_455 S
C882 C894 1.349 . S
C883 C881 1.327 . S
C883 C899 1.429 1_655 S
C883 H905 0.950 . S
C884 H880 0.949 . S
C884 C892 1.574 . S
C884 C900 1.368 . S
H885 C893 0.950 . S
H886 C891 0.950 . S
H887 C892 0.949 . S
H888 C894 0.950 . S
H889 C895 0.950 . S
H890 C896 0.949 . S
C891 H886 0.950 . S
C891 C893 1.327 . S
C891 C897 1.429 1_655 S
C892 C884 1.574 . S
C892 H887 0.949 . S
C892 C898 1.368 . S
C893 C877 1.327 1_655 S
C893 H885 0.950 . S
C893 C891 1.327 . S
C894 C882 1.349 . S
C894 H888 0.950 . S
C894 C895 1.327 . S
C895 H889 0.950 . S
C895 C894 1.327 . S
C895 C899 1.429 . S
C896 C879 1.574 1_556 S
C896 H890 0.949 . S
C896 C900 1.368 1_655 S
C897 C878 1.429 1_554 S
C897 C891 1.429 1_455 S
C897 C898 1.523 1_554 S
C898 C879 1.368 1_456 S
C898 C892 1.368 . S
C898 C897 1.523 1_556 S
C899 C883 1.429 1_455 S
C899 C895 1.429 . S
C899 C900 1.523 . S
C900 C884 1.368 . S
C900 C896 1.368 1_455 S
C900 C899 1.523 . S
H901 C876 0.950 . S
H902 C878 0.950 . S
H903 C879 0.949 . S
H904 C881 0.950 . S
H905 C883 0.950 . S
C906 C907 1.349 . S
C906 C908 1.327 . S
C906 H931 0.950 . S
C907 C906 1.349 . S
C907 C923 1.349 . S
C908 C906 1.327 . S
C908 C927 1.429 . S
C908 H932 0.950 1_554 S
C909 C926 1.574 1_554 S
C909 C928 1.368 1_554 S
C909 H933 0.949 . S
H910 C914 0.949 . S
C911 C912 1.349 . S
C911 C913 1.327 . S
C911 H934 0.950 . S
C912 C911 1.349 . S
C912 C924 1.349 . S
C913 C911 1.327 . S
C913 C929 1.429 . S
C913 H935 0.950 . S
C914 H910 0.949 . S
C914 C922 1.574 . S
C914 C930 1.368 . S
H915 C923 0.950 . S
H916 C921 0.950 . S
H917 C922 0.949 . S
H918 C924 0.950 . S
H919 C925 0.950 . S
H920 C926 0.949 . S
C921 H916 0.950 . S
C921 C923 1.327 . S
C921 C927 1.429 . S
C922 C914 1.574 . S
C922 H917 0.949 . S
C922 C928 1.368 . S
C923 C907 1.349 . S
C923 H915 0.950 . S
C923 C921 1.327 . S
C924 C912 1.349 . S
C924 H918 0.950 . S
C924 C925 1.327 . S
C925 H919 0.950 . S
C925 C924 1.327 . S
C925 C929 1.429 . S
C926 C909 1.574 1_556 S
C926 H920 0.949 . S
C926 C930 1.368 . S
C927 C908 1.429 . S
C927 C921 1.429 . S
C927 C928 1.523 1_554 S
C928 C909 1.368 1_556 S
C928 C922 1.368 . S
C928 C927 1.523 1_556 S
C929 C913 1.429 . S
C929 C925 1.429 . S
C929 C930 1.523 . S
C930 C914 1.368 . S
C930 C926 1.368 . S
C930 C929 1.523 . S
H931 C906 0.950 . S
H932 C908 0.950 1_556 S
H933 C909 0.949 . S
H934 C911 0.950 . S
H935 C913 0.950 . S
C936 C937 1.349 . S
C936 C938 1.327 1_554 S
C936 H961 0.950 . S
C937 C936 1.349 . S
C937 C953 1.349 . S
C938 C936 1.327 1_556 S
C938 C957 1.429 1_556 S
C938 H962 0.950 . S
C939 C956 1.573 . S
C939 C958 1.368 . S
C939 H963 0.950 1_556 S
H940 C944 0.949 . S
C941 C942 1.349 . S
C941 C943 1.327 . S
C941 H964 0.950 . S
C942 C941 1.349 . S
C942 C954 1.349 . S
C943 C941 1.327 . S
C943 C959 1.429 . S
C943 H965 0.950 . S
C944 H940 0.949 . S
C944 C952 1.574 . S
C944 C960 1.368 . S
H945 C953 0.950 . S
H946 C951 0.950 . S
H947 C952 0.949 . S
H948 C954 0.950 . S
H949 C955 0.950 . S
H950 C956 0.949 . S
C951 H946 0.950 . S
C951 C953 1.327 . S
C951 C957 1.429 . S
C952 C944 1.574 . S
C952 H947 0.949 . S
C952 C958 1.368 . S
C953 C937 1.349 . S
C953 H945 0.950 . S
C953 C951 1.327 . S
C954 C942 1.349 . S
C954 H948 0.950 . S
C954 C955 1.327 . S
C955 H949 0.950 . S
C955 C954 1.327 . S
C955 C959 1.429 . S
C956 C939 1.573 . S
C956 H950 0.949 . S
C956 C960 1.368 . S
C957 C938 1.429 1_554 S
C957 C951 1.429 . S
C957 C958 1.523 1_554 S
C958 C939 1.368 . S
C958 C952 1.368 . S
C958 C957 1.523 1_556 S
C959 C943 1.429 . S
C959 C955 1.429 . S
C959 C960 1.523 . S
C960 C944 1.368 . S
C960 C956 1.368 . S
C960 C959 1.523 . S
H961 C936 0.950 . S
H962 C938 0.950 . S
H963 C939 0.950 1_554 S
H964 C941 0.950 . S
H965 C943 0.950 . S
C966 C967 1.349 . S
C966 C968 1.327 . S
C966 H991 0.950 . S
C967 C966 1.349 . S
C967 C983 1.349 . S
C968 C966 1.327 . S
C968 C987 1.429 . S
C968 H992 0.950 . S
C969 C986 1.574 . S
C969 C988 1.368 . S
C969 H993 0.949 1_556 S
H970 C974 0.949 . S
C971 C972 1.349 . S
C971 C973 1.327 . S
C971 H994 0.950 . S
C972 C971 1.349 . S
C972 C984 1.349 . S
C973 C971 1.327 . S
C973 C989 1.429 . S
C973 H995 0.950 . S
C974 H970 0.949 . S
C974 C982 1.574 . S
C974 C990 1.368 . S
H975 C983 0.950 . S
H976 C981 0.950 . S
H977 C982 0.949 . S
H978 C984 0.950 . S
H979 C985 0.950 . S
H980 C986 0.949 . S
C981 H976 0.950 . S
C981 C983 1.327 . S
C981 C987 1.429 . S
C982 C974 1.574 . S
C982 H977 0.949 . S
C982 C988 1.368 . S
C983 C967 1.349 . S
C983 H975 0.950 . S
C983 C981 1.327 . S
C984 C972 1.349 . S
C984 H978 0.950 . S
C984 C985 1.327 . S
C985 H979 0.950 . S
C985 C984 1.327 . S
C985 C989 1.429 . S
C986 C969 1.574 . S
C986 H980 0.949 . S
C986 C990 1.368 . S
C987 C968 1.429 . S
C987 C981 1.429 . S
C987 C988 1.523 1_554 S
C988 C969 1.368 . S
C988 C982 1.368 . S
C988 C987 1.523 1_556 S
C989 C973 1.429 . S
C989 C985 1.429 . S
C989 C990 1.523 . S
C990 C974 1.368 . S
C990 C986 1.368 . S
C990 C989 1.523 . S
H991 C966 0.950 . S
H992 C968 0.950 . S
H993 C969 0.949 1_554 S
H994 C971 0.950 . S
H995 C973 0.950 . S
C996 C997 1.375 . S
C996 C998 1.327 . S
C996 H1021 0.950 . S
C997 C996 1.375 . S
C997 C1013 1.324 1_655 S
C998 C996 1.327 . S
C998 C1017 1.429 . S
C998 H1022 0.950 . S
C999 C1016 1.574 . S
C999 C1018 1.368 1_455 S
C999 H1023 0.949 . S
H1000 C1004 0.949 . S
C1001 C1002 1.349 1_455 S
C1001 C1003 1.327 . S
C1001 H1024 0.950 . S
C1002 C1001 1.349 1_655 S
C1002 C1014 1.349 . S
C1003 C1001 1.327 . S
C1003 C1019 1.429 1_455 S
C1003 H1025 0.950 . S
C1004 H1000 0.949 . S
C1004 C1012 1.574 . S
C1004 C1020 1.368 . S
H1005 C1013 0.950 . S
H1006 C1011 0.950 . S
H1007 C1012 0.949 . S
H1008 C1014 0.950 . S
H1009 C1015 0.950 . S
H1010 C1016 0.949 . S
C1011 H1006 0.950 . S
C1011 C1013 1.327 . S
C1011 C1017 1.429 1_455 S
C1012 C1004 1.574 . S
C1012 H1007 0.949 . S
C1012 C1018 1.368 . S
C1013 C997 1.324 1_455 S
C1013 H1005 0.950 . S
C1013 C1011 1.327 . S
C1014 C1002 1.349 . S
C1014 H1008 0.950 . S
C1014 C1015 1.327 . S
C1015 H1009 0.950 . S
C1015 C1014 1.327 . S
C1015 C1019 1.429 . S
C1016 C999 1.574 . S
C1016 H1010 0.949 . S
C1016 C1020 1.368 1_455 S
C1017 C998 1.429 . S
C1017 C1011 1.429 1_655 S
C1017 C1018 1.523 . S
C1018 C999 1.368 1_655 S
C1018 C1012 1.368 . S
C1018 C1017 1.523 . S
C1019 C1003 1.429 1_655 S
C1019 C1015 1.429 . S
C1019 C1020 1.523 . S
C1020 C1004 1.368 . S
C1020 C1016 1.368 1_655 S
C1020 C1019 1.523 . S
H1021 C996 0.950 . S
H1022 C998 0.950 . S
H1023 C999 0.949 . S
H1024 C1001 0.950 . S
H1025 C1003 0.950 . S
C1026 C1027 1.349 . S
C1026 C1028 1.327 . S
C1026 H1051 0.950 . S
C1027 C1026 1.349 . S
C1027 C1043 1.349 . S
C1028 C1026 1.327 . S
C1028 C1047 1.429 . S
C1028 H1052 0.950 . S
C1029 C1046 1.574 . S
C1029 C1048 1.368 . S
C1029 H1053 0.949 . S
H1030 C1034 0.949 . S
C1031 C1032 1.349 . S
C1031 C1033 1.327 . S
C1031 H1054 0.950 . S
C1032 C1031 1.349 . S
C1032 C1044 1.349 . S
C1033 C1031 1.327 . S
C1033 C1049 1.429 . S
C1033 H1055 0.950 . S
C1034 H1030 0.949 . S
C1034 C1042 1.574 . S
C1034 C1050 1.368 . S
H1035 C1043 0.950 . S
H1036 C1041 0.950 . S
H1037 C1042 0.949 . S
H1038 C1044 0.950 . S
H1039 C1045 0.950 . S
H1040 C1046 0.949 . S
C1041 H1036 0.950 . S
C1041 C1043 1.327 . S
C1041 C1047 1.429 . S
C1042 C1034 1.574 . S
C1042 H1037 0.949 . S
C1042 C1048 1.368 . S
C1043 C1027 1.349 . S
C1043 H1035 0.950 . S
C1043 C1041 1.327 . S
C1044 C1032 1.349 . S
C1044 H1038 0.950 . S
C1044 C1045 1.327 . S
C1045 H1039 0.950 . S
C1045 C1044 1.327 . S
C1045 C1049 1.429 . S
C1046 C1029 1.574 . S
C1046 H1040 0.949 . S
C1046 C1050 1.368 . S
C1047 C1028 1.429 . S
C1047 C1041 1.429 . S
C1047 C1048 1.523 . S
C1048 C1029 1.368 . S
C1048 C1042 1.368 . S
C1048 C1047 1.523 . S
C1049 C1033 1.429 . S
C1049 C1045 1.429 . S
C1049 C1050 1.523 . S
C1050 C1034 1.368 . S
C1050 C1046 1.368 . S
C1050 C1049 1.523 . S
H1051 C1026 0.950 . S
H1052 C1028 0.950 . S
H1053 C1029 0.949 . S
H1054 C1031 0.950 . S
H1055 C1033 0.950 . S
C1056 C1057 1.349 . S
C1056 C1058 1.327 . S
C1056 H1081 0.950 . S
C1057 C1056 1.349 . S
C1057 C1073 1.349 . S
C1058 C1056 1.327 . S
C1058 C1077 1.429 . S
C1058 H1082 0.950 . S
C1059 C1076 1.574 . S
C1059 C1078 1.368 . S
C1059 H1083 0.949 . S
H1060 C1064 0.949 . S
C1061 C1062 1.349 . S
C1061 C1063 1.327 . S
C1061 H1084 0.950 . S
C1062 C1061 1.349 . S
C1062 C1074 1.349 . S
C1063 C1061 1.327 . S
C1063 C1079 1.429 . S
C1063 H1085 0.950 . S
C1064 H1060 0.949 . S
C1064 C1072 1.574 . S
C1064 C1080 1.368 . S
H1065 C1073 0.950 . S
H1066 C1071 0.950 . S
H1067 C1072 0.949 . S
H1068 C1074 0.950 . S
H1069 C1075 0.950 . S
H1070 C1076 0.949 . S
C1071 H1066 0.950 . S
C1071 C1073 1.327 . S
C1071 C1077 1.429 . S
C1072 C1064 1.574 . S
C1072 H1067 0.949 . S
C1072 C1078 1.368 . S
C1073 C1057 1.349 . S
C1073 H1065 0.950 . S
C1073 C1071 1.327 . S
C1074 C1062 1.349 . S
C1074 H1068 0.950 . S
C1074 C1075 1.327 . S
C1075 H1069 0.950 . S
C1075 C1074 1.327 . S
C1075 C1079 1.429 . S
C1076 C1059 1.574 . S
C1076 H1070 0.949 . S
C1076 C1080 1.368 . S
C1077 C1058 1.429 . S
C1077 C1071 1.429 . S
C1077 C1078 1.523 . S
C1078 C1059 1.368 . S
C1078 C1072 1.368 . S
C1078 C1077 1.523 . S
C1079 C1063 1.429 . S
C1079 C1075 1.429 . S
C1079 C1080 1.523 . S
C1080 C1064 1.368 . S
C1080 C1076 1.368 . S
C1080 C1079 1.523 . S
H1081 C1056 0.950 . S
H1082 C1058 0.950 . S
H1083 C1059 0.949 . S
H1084 C1061 0.950 . S
H1085 C1063 0.950 . S
C1086 C1087 1.349 . S
C1086 C1088 1.327 . S
C1086 H1111 0.950 . S
C1087 C1086 1.349 . S
C1087 C1103 1.349 . S
C1088 C1086 1.327 . S
C1088 C1107 1.429 . S
C1088 H1112 0.950 . S
C1089 C1106 1.574 . S
C1089 C1108 1.368 . S
C1089 H1113 0.949 . S
H1090 C1094 0.949 . S
C1091 C1092 1.349 . S
C1091 C1093 1.327 . S
C1091 H1114 0.950 . S
C1092 C1091 1.349 . S
C1092 C1104 1.349 . S
C1093 C1091 1.327 . S
C1093 C1109 1.429 . S
C1093 H1115 0.950 . S
C1094 H1090 0.949 . S
C1094 C1102 1.574 . S
C1094 C1110 1.368 . S
H1095 C1103 0.950 . S
H1096 C1101 0.950 . S
H1097 C1102 0.949 . S
H1098 C1104 0.950 . S
H1099 C1105 0.950 . S
H1100 C1106 0.949 . S
C1101 H1096 0.950 . S
C1101 C1103 1.327 . S
C1101 C1107 1.429 . S
C1102 C1094 1.574 . S
C1102 H1097 0.949 . S
C1102 C1108 1.368 . S
C1103 C1087 1.349 . S
C1103 H1095 0.950 . S
C1103 C1101 1.327 . S
C1104 C1092 1.349 . S
C1104 H1098 0.950 . S
C1104 C1105 1.327 . S
C1105 H1099 0.950 . S
C1105 C1104 1.327 . S
C1105 C1109 1.429 . S
C1106 C1089 1.574 . S
C1106 H1100 0.949 . S
C1106 C1110 1.368 . S
C1107 C1088 1.429 . S
C1107 C1101 1.429 . S
C1107 C1108 1.523 . S
C1108 C1089 1.368 . S
C1108 C1102 1.368 . S
C1108 C1107 1.523 . S
C1109 C1093 1.429 . S
C1109 C1105 1.429 . S
C1109 C1110 1.523 . S
C1110 C1094 1.368 . S
C1110 C1106 1.368 . S
C1110 C1109 1.523 . S
H1111 C1086 0.950 . S
H1112 C1088 0.950 . S
H1113 C1089 0.949 . S
H1114 C1091 0.950 . S
H1115 C1093 0.950 . S
C397 C255 1.894 . S
C402 C327 1.803 . S
C432 C351 1.300 . S
C427 C294 1.472 . S
C462 C372 1.777 . S
C457 C177 1.874 . S
C492 C390 1.329 . S
C487 C216 1.499 . S
C522 C330 1.720 1_565 S
C517 C99 1.827 . S
C547 C138 1.384 . S
C552 C348 1.220 . S
C577 C21 1.803 . S
C582 C369 1.692 . S
C607 C60 1.408 1_455 S
C612 C393 1.250 . S
C642 C328 0.495 . S
C637 C196 0.390 1_455 S
C672 C346 0.435 . S
C667 C235 0.520 . S
C702 C367 0.487 . S
C697 C289 0.369 . S
C727 C157 0.527 . S
C732 C391 0.434 . S
C757 C40 0.294 . S
C762 C326 0.335 . S
C792 C350 0.412 . S
C787 C79 0.509 . S
C822 C371 0.342 . S
C817 C133 0.282 . S
C847 C1 0.507 . S
C852 C389 0.395 . S
C877 C211 1.837 . S
C882 C329 1.846 . S
C907 C250 2.094 . S
C912 C347 2.110 . S
C942 C368 1.795 . S
C937 C274 1.808 . S
C972 C392 2.142 . S
C967 C172 2.123 . S
C997 C55 1.685 1_655 S
C1002 C325 1.696 . S
C1032 C349 1.949 . S
C1027 C94 1.934 . S
C1062 C370 1.640 . S
C1057 C118 1.657 . S
C1087 C16 1.963 . S
C1092 C388 1.980 . S
