# Generated by pormake.
# Topology ctn, (3,4)-cn, num edge types: 1
# Building blocks:
#     Node 0, Type 0, BuildingBlock: VETTIZ_charged_linker_0, # of connection points: 3
#     Node 1, Type 0, BuildingBlock: VETTIZ_charged_linker_0, # of connection points: 3
#     Node 2, Type 0, BuildingBlock: VETTIZ_charged_linker_0, # of connection points: 3
#     Node 3, Type 0, BuildingBlock: VETTIZ_charged_linker_0, # of connection points: 3
#     Node 4, Type 0, BuildingBlock: VETTIZ_charged_linker_0, # of connection points: 3
#     Node 5, Type 0, BuildingBlock: VETTIZ_charged_linker_0, # of connection points: 3
#     Node 6, Type 0, BuildingBlock: VETTIZ_charged_linker_0, # of connection points: 3
#     Node 7, Type 0, BuildingBlock: VETTIZ_charged_linker_0, # of connection points: 3
#     Node 8, Type 0, BuildingBlock: VETTIZ_charged_linker_0, # of connection points: 3
#     Node 9, Type 0, BuildingBlock: VETTIZ_charged_linker_0, # of connection points: 3
#     Node 10, Type 0, BuildingBlock: VETTIZ_charged_linker_0, # of connection points: 3
#     Node 11, Type 0, BuildingBlock: VETTIZ_charged_linker_0, # of connection points: 3
#     Node 12, Type 0, BuildingBlock: VETTIZ_charged_linker_0, # of connection points: 3
#     Node 13, Type 0, BuildingBlock: VETTIZ_charged_linker_0, # of connection points: 3
#     Node 14, Type 0, BuildingBlock: VETTIZ_charged_linker_0, # of connection points: 3
#     Node 15, Type 0, BuildingBlock: VETTIZ_charged_linker_0, # of connection points: 3
#     Node 16, Type 1, BuildingBlock: UXUYUI_clean_sbu_0, # of connection points: 4
#     Node 17, Type 1, BuildingBlock: UXUYUI_clean_sbu_0, # of connection points: 4
#     Node 18, Type 1, BuildingBlock: UXUYUI_clean_sbu_0, # of connection points: 4
#     Node 19, Type 1, BuildingBlock: UXUYUI_clean_sbu_0, # of connection points: 4
#     Node 20, Type 1, BuildingBlock: UXUYUI_clean_sbu_0, # of connection points: 4
#     Node 21, Type 1, BuildingBlock: UXUYUI_clean_sbu_0, # of connection points: 4
#     Node 22, Type 1, BuildingBlock: UXUYUI_clean_sbu_0, # of connection points: 4
#     Node 23, Type 1, BuildingBlock: UXUYUI_clean_sbu_0, # of connection points: 4
#     Node 24, Type 1, BuildingBlock: UXUYUI_clean_sbu_0, # of connection points: 4
#     Node 25, Type 1, BuildingBlock: UXUYUI_clean_sbu_0, # of connection points: 4
#     Node 26, Type 1, BuildingBlock: UXUYUI_clean_sbu_0, # of connection points: 4
#     Node 27, Type 1, BuildingBlock: UXUYUI_clean_sbu_0, # of connection points: 4
#     Edge 28, Type (0, 1), BuildingBlock: OJICUG_clean_linker_0, # of connection points: 2
#     Edge 29, Type (0, 1), BuildingBlock: OJICUG_clean_linker_0, # of connection points: 2
#     Edge 30, Type (0, 1), BuildingBlock: OJICUG_clean_linker_0, # of connection points: 2
#     Edge 31, Type (0, 1), BuildingBlock: OJICUG_clean_linker_0, # of connection points: 2
#     Edge 32, Type (0, 1), BuildingBlock: OJICUG_clean_linker_0, # of connection points: 2
#     Edge 33, Type (0, 1), BuildingBlock: OJICUG_clean_linker_0, # of connection points: 2
#     Edge 34, Type (0, 1), BuildingBlock: OJICUG_clean_linker_0, # of connection points: 2
#     Edge 35, Type (0, 1), BuildingBlock: OJICUG_clean_linker_0, # of connection points: 2
#     Edge 36, Type (0, 1), BuildingBlock: OJICUG_clean_linker_0, # of connection points: 2
#     Edge 37, Type (0, 1), BuildingBlock: OJICUG_clean_linker_0, # of connection points: 2
#     Edge 38, Type (0, 1), BuildingBlock: OJICUG_clean_linker_0, # of connection points: 2
#     Edge 39, Type (0, 1), BuildingBlock: OJICUG_clean_linker_0, # of connection points: 2
#     Edge 40, Type (0, 1), BuildingBlock: OJICUG_clean_linker_0, # of connection points: 2
#     Edge 41, Type (0, 1), BuildingBlock: OJICUG_clean_linker_0, # of connection points: 2
#     Edge 42, Type (0, 1), BuildingBlock: OJICUG_clean_linker_0, # of connection points: 2
#     Edge 43, Type (0, 1), BuildingBlock: OJICUG_clean_linker_0, # of connection points: 2
#     Edge 44, Type (0, 1), BuildingBlock: OJICUG_clean_linker_0, # of connection points: 2
#     Edge 45, Type (0, 1), BuildingBlock: OJICUG_clean_linker_0, # of connection points: 2
#     Edge 46, Type (0, 1), BuildingBlock: OJICUG_clean_linker_0, # of connection points: 2
#     Edge 47, Type (0, 1), BuildingBlock: OJICUG_clean_linker_0, # of connection points: 2
#     Edge 48, Type (0, 1), BuildingBlock: OJICUG_clean_linker_0, # of connection points: 2
#     Edge 49, Type (0, 1), BuildingBlock: OJICUG_clean_linker_0, # of connection points: 2
#     Edge 50, Type (0, 1), BuildingBlock: OJICUG_clean_linker_0, # of connection points: 2
#     Edge 51, Type (0, 1), BuildingBlock: OJICUG_clean_linker_0, # of connection points: 2
#     Edge 52, Type (0, 1), BuildingBlock: OJICUG_clean_linker_0, # of connection points: 2
#     Edge 53, Type (0, 1), BuildingBlock: OJICUG_clean_linker_0, # of connection points: 2
#     Edge 54, Type (0, 1), BuildingBlock: OJICUG_clean_linker_0, # of connection points: 2
#     Edge 55, Type (0, 1), BuildingBlock: OJICUG_clean_linker_0, # of connection points: 2
#     Edge 56, Type (0, 1), BuildingBlock: OJICUG_clean_linker_0, # of connection points: 2
#     Edge 57, Type (0, 1), BuildingBlock: OJICUG_clean_linker_0, # of connection points: 2
#     Edge 58, Type (0, 1), BuildingBlock: OJICUG_clean_linker_0, # of connection points: 2
#     Edge 59, Type (0, 1), BuildingBlock: OJICUG_clean_linker_0, # of connection points: 2
#     Edge 60, Type (0, 1), BuildingBlock: OJICUG_clean_linker_0, # of connection points: 2
#     Edge 61, Type (0, 1), BuildingBlock: OJICUG_clean_linker_0, # of connection points: 2
#     Edge 62, Type (0, 1), BuildingBlock: OJICUG_clean_linker_0, # of connection points: 2
#     Edge 63, Type (0, 1), BuildingBlock: OJICUG_clean_linker_0, # of connection points: 2
#     Edge 64, Type (0, 1), BuildingBlock: OJICUG_clean_linker_0, # of connection points: 2
#     Edge 65, Type (0, 1), BuildingBlock: OJICUG_clean_linker_0, # of connection points: 2
#     Edge 66, Type (0, 1), BuildingBlock: OJICUG_clean_linker_0, # of connection points: 2
#     Edge 67, Type (0, 1), BuildingBlock: OJICUG_clean_linker_0, # of connection points: 2
#     Edge 68, Type (0, 1), BuildingBlock: OJICUG_clean_linker_0, # of connection points: 2
#     Edge 69, Type (0, 1), BuildingBlock: OJICUG_clean_linker_0, # of connection points: 2
#     Edge 70, Type (0, 1), BuildingBlock: OJICUG_clean_linker_0, # of connection points: 2
#     Edge 71, Type (0, 1), BuildingBlock: OJICUG_clean_linker_0, # of connection points: 2
#     Edge 72, Type (0, 1), BuildingBlock: OJICUG_clean_linker_0, # of connection points: 2
#     Edge 73, Type (0, 1), BuildingBlock: OJICUG_clean_linker_0, # of connection points: 2
#     Edge 74, Type (0, 1), BuildingBlock: OJICUG_clean_linker_0, # of connection points: 2
#     Edge 75, Type (0, 1), BuildingBlock: OJICUG_clean_linker_0, # of connection points: 2
# Relax obj value: 0.000
# Max RMSD: 0.002
# Mean RMSD: 0.001
data_MOF--net-ctn--node1-UXUYUI_clean_sbu_0--node2-VETTIZ_charged_linker_0--edge1-OJICUG_clean_linker_0
_symmetry_space_group_name_H-M    P1
_symmetry_Int_Tables_number       1
_symmetry_cell_setting            triclinic
loop_
_symmetry_equiv_pos_as_xyz
'x, y, z'
_cell_length_a     65.17663
_cell_length_b     65.210878
_cell_length_c     65.18665
_cell_angle_alpha  89.997315
_cell_angle_beta   90.000048
_cell_angle_gamma 89.998295
loop_
_atom_site_label
_atom_site_type_symbol
_atom_site_fract_x
_atom_site_fract_y
_atom_site_fract_z
_atom_type_partial_charge
C0 C 0.03925 0.09481 0.98931 0.0
C1 C 0.02343 0.10936 0.99127 0.0
C2 C 0.00935 0.10735 0.00759 0.0
C3 C 0.02698 0.07687 0.0196 0.0
C4 C 0.04071 0.07877 1.00355 0.0
C5 C 0.05654 0.06197 1.00359 0.0
H6 H 0.09801 0.97856 0.04966 0.0
C7 C 0.03287 0.05864 0.03175 0.0
C8 C 0.05018 0.04983 0.02243 0.0
H9 H 0.11709 0.00779 0.9933 0.0
H10 H 0.0894 0.03221 0.99628 0.0
H11 H 0.08735 0.02038 0.07502 0.0
H12 H 0.05065 0.979 0.03896 0.0
H13 H 0.03538 0.98679 0.0597 0.0
H14 H 0.05877 0.97275 0.0645 0.0
H15 H 0.08144 0.9947 0.083 0.0
H16 H 0.06438 0.01575 0.08843 0.0
C17 C 0.07792 0.072 0.00631 0.0
C18 C 0.05408 0.04933 0.9836 0.0
C19 C 0.99164 0.03908 0.0951 0.0
C20 C 0.99339 0.02303 0.10944 0.0
C21 C 0.0096 0.00885 0.10728 0.0
C22 C 0.02373 0.01055 0.09116 0.0
C23 C 0.02171 0.02661 0.07692 0.0
C24 C 0.00586 0.04053 0.07903 0.0
C25 C 0.00604 0.05651 0.06237 0.0
C26 C 0.02451 0.04979 0.04985 0.0
C27 C 0.03367 0.03231 0.05848 0.0
C28 C 0.00945 0.07772 0.07254 0.0
C29 C 0.9858 0.05463 0.05004 0.0
C30 C 0.09627 0.99035 0.03807 0.0
C31 C 0.10979 0.99138 0.02129 0.0
C32 C 0.10679 0.00665 0.0063 0.0
C33 C 0.09076 0.02087 0.00812 0.0
C34 C 0.07743 0.01975 0.02504 0.0
C35 C 0.08015 0.00452 0.03953 0.0
C36 C 0.06395 0.00514 0.05597 0.0
C37 C 0.05129 0.02347 0.04915 0.0
C38 C 0.05937 0.03207 0.03113 0.0
C39 C 0.0747 0.00906 0.0768 0.0
C40 C 0.05154 0.98487 0.05496 0.0
H41 H 0.99989 0.09064 0.03381 0.0
H42 H 0.05016 0.09572 0.9768 0.0
H43 H 0.03784 0.04921 0.97833 0.0
H44 H 0.05801 0.03297 0.98566 0.0
H45 H 0.06353 0.05581 0.97099 0.0
H46 H 0.07721 0.08467 0.01773 0.0
H47 H 0.08348 0.07858 0.99161 0.0
H48 H 0.0896 0.06132 0.01227 0.0
H49 H 0.97927 0.05012 0.09615 0.0
H50 H 0.0115 0.99651 0.11825 0.0
H51 H 0.03571 0.9993 0.09044 0.0
H52 H 0.02002 0.07645 0.08588 0.0
H53 H 0.99475 0.08425 0.07819 0.0
H54 H 0.01686 0.08891 0.06221 0.0
H55 H 0.98101 0.0383 0.04869 0.0
H56 H 0.98725 0.06005 0.03406 0.0
H57 H 0.97314 0.0631 0.05768 0.0
H58 H 0.99716 0.11845 0.00962 0.0
C59 C 0.01104 0.09124 0.02172 0.0
C60 C 0.25189 0.6554 0.23438 0.0
C61 C 0.23485 0.65072 0.22195 0.0
C62 C 0.23025 0.66369 0.20525 0.0
C63 C 0.25945 0.68524 0.21336 0.0
C64 C 0.26391 0.67265 0.22981 0.0
C65 C 0.28262 0.67973 0.24137 0.0
H66 H 0.3611 0.74715 0.2514 0.0
C67 C 0.27501 0.70174 0.21273 0.0
C68 C 0.28862 0.69862 0.22912 0.0
H69 H 0.34682 0.69488 0.2897 0.0
H70 H 0.31741 0.68723 0.26871 0.0
H71 H 0.31441 0.76316 0.24746 0.0
H72 H 0.35165 0.72511 0.20834 0.0
H73 H 0.33805 0.74221 0.19256 0.0
H74 H 0.35599 0.75215 0.21112 0.0
H75 H 0.33502 0.77337 0.23231 0.0
H76 H 0.30948 0.7705 0.22201 0.0
C77 C 0.27599 0.68523 0.26353 0.0
C78 C 0.29909 0.66265 0.23997 0.0
C79 C 0.27191 0.7556 0.15642 0.0
C80 C 0.28411 0.77277 0.15174 0.0
C81 C 0.30106 0.7773 0.16442 0.0
C82 C 0.30581 0.76494 0.18138 0.0
C83 C 0.29349 0.74781 0.18581 0.0
C84 C 0.27684 0.74343 0.17344 0.0
C85 C 0.26538 0.72471 0.18052 0.0
C86 C 0.27792 0.71854 0.19915 0.0
C87 C 0.29439 0.73209 0.20217 0.0
C88 C 0.24331 0.7313 0.18644 0.0
C89 C 0.26652 0.7084 0.16325 0.0
C90 C 0.35154 0.73416 0.25538 0.0
C91 C 0.35644 0.72156 0.27223 0.0
C92 C 0.34366 0.70466 0.27665 0.0
C93 C 0.32647 0.7003 0.2645 0.0
C94 C 0.32187 0.71294 0.24766 0.0
C95 C 0.33428 0.72958 0.24337 0.0
C96 C 0.32699 0.74132 0.22487 0.0
C97 C 0.30819 0.72896 0.21877 0.0
C98 C 0.3053 0.71234 0.23217 0.0
C99 C 0.32127 0.76331 0.23183 0.0
C100 C 0.34401 0.74037 0.2083 0.0
H101 H 0.23804 0.69007 0.18799 0.0
H102 H 0.25601 0.64569 0.24722 0.0
H103 H 0.29869 0.65507 0.22467 0.0
H104 H 0.3149 0.66852 0.24148 0.0
H105 H 0.29648 0.65063 0.25176 0.0
H106 H 0.26032 0.69201 0.2637 0.0
H107 H 0.27573 0.67141 0.27348 0.0
H108 H 0.28586 0.69701 0.27065 0.0
H109 H 0.25862 0.75181 0.14719 0.0
H110 H 0.31087 0.79028 0.16105 0.0
H111 H 0.31895 0.76918 0.19034 0.0
H112 H 0.24321 0.74699 0.19315 0.0
H113 H 0.23307 0.73145 0.17282 0.0
H114 H 0.23646 0.72147 0.19843 0.0
H115 H 0.28168 0.70888 0.15543 0.0
H116 H 0.26512 0.69254 0.169 0.0
H117 H 0.25453 0.71112 0.15145 0.0
H118 H 0.21705 0.66068 0.19561 0.0
C119 C 0.24241 0.68086 0.2009 0.0
C120 C 0.98544 0.40659 1.00034 0.0
C121 C 0.97283 0.402 0.98343 0.0
C122 C 0.95592 0.41483 0.97922 0.0
C123 C 0.96427 0.43616 0.00853 0.0
C124 C 0.98087 0.42362 0.01264 0.0
C125 C 0.99249 0.43043 0.0314 0.0
H126 H 1.00279 0.49673 0.11077 0.0
C127 C 0.96367 0.45242 0.02435 0.0
C128 C 0.98017 0.44913 0.03782 0.0
H129 H 0.04091 0.4445 0.09595 0.0
H130 H 0.01984 0.43721 0.06644 0.0
H131 H 0.96006 0.4749 0.10174 0.0
H132 H 0.99854 0.51323 0.06417 0.0
H133 H 0.97303 0.52071 0.05979 0.0
H134 H 0.98376 0.52316 0.08517 0.0
H135 H 0.96225 0.50204 0.10579 0.0
H136 H 0.94383 0.49147 0.08805 0.0
C137 C 0.99132 0.41304 0.04757 0.0
C138 C 0.01457 0.4362 0.02473 0.0
C139 C 0.90739 0.50647 0.02247 0.0
C140 C 0.90266 0.52327 0.03518 0.0
C141 C 0.9154 0.52737 0.0522 0.0
C142 C 0.93243 0.51498 0.05651 0.0
C143 C 0.93687 0.4982 0.04373 0.0
C144 C 0.92445 0.4942 0.02702 0.0
C145 C 0.93143 0.47563 0.01523 0.0
C146 C 0.9501 0.46918 0.02759 0.0
C147 C 0.95321 0.48245 0.04427 0.0
C148 C 0.91412 0.45935 0.01611 0.0
C149 C 0.93731 0.48258 0.99327 0.0
C150 C 0.00673 0.48384 0.10106 0.0
C151 C 0.02356 0.47117 0.10578 0.0
C152 C 0.0279 0.45436 0.09286 0.0
C153 C 0.01569 0.45021 0.07564 0.0
C154 C 0.99888 0.46295 0.0712 0.0
C155 C 0.99466 0.47946 0.08381 0.0
C156 C 0.9761 0.49126 0.07681 0.0
C157 C 0.96988 0.47912 0.05792 0.0
C158 C 0.98329 0.46257 0.0547 0.0
C159 C 0.95965 0.49008 0.09394 0.0
C160 C 0.98302 0.51332 0.07129 0.0
H161 H 0.93853 0.44098 0.98757 0.0
H162 H 0.9984 0.39692 1.00418 0.0
H163 H 0.01451 0.44371 0.0094 0.0
H164 H 0.02187 0.44746 0.03506 0.0
H165 H 0.02448 0.42238 0.02368 0.0
H166 H 0.97623 0.4051 0.04689 0.0
H167 H 1.00344 0.40136 0.04491 0.0
H168 H 0.99249 0.4187 0.06349 0.0
H169 H 0.89781 0.50271 0.00942 0.0
H170 H 0.9123 0.54035 0.06209 0.0
H171 H 0.94148 0.51896 0.06967 0.0
H172 H 0.90603 0.45986 0.03114 0.0
H173 H 0.90252 0.46204 1.00392 0.0
H174 H 0.91989 0.44348 0.01487 0.0
H175 H 0.94472 0.49796 0.99355 0.0
H176 H 0.94869 0.47243 0.98592 0.0
H177 H 0.92354 0.48367 0.98329 0.0
H178 H 0.9461 0.41182 0.96615 0.0
C179 C 0.9516 0.43185 0.99163 0.0
C180 C 0.66373 0.78806 0.268 0.0
C181 C 0.64936 0.77205 0.26608 0.0
C182 C 0.65148 0.75807 0.24969 0.0
C183 C 0.68179 0.776 0.23769 0.0
C184 C 0.67972 0.78974 0.2537 0.0
C185 C 0.6962 0.80591 0.25347 0.0
H186 H 0.78132 0.84587 0.20915 0.0
C187 C 0.69999 0.78204 0.22555 0.0
C188 C 0.7085 0.79958 0.23471 0.0
H189 H 0.74864 0.86811 0.26247 0.0
H190 H 0.7244 0.84041 0.25946 0.0
H191 H 0.74112 0.8367 0.18242 0.0
H192 H 0.77864 0.79802 0.22058 0.0
H193 H 0.77259 0.78401 0.19837 0.0
H194 H 0.78714 0.80743 0.19614 0.0
H195 H 0.76617 0.82828 0.17469 0.0
H196 H 0.74358 0.81307 0.16975 0.0
C197 C 0.68577 0.82707 0.25054 0.0
C198 C 0.70887 0.80386 0.27348 0.0
C199 C 0.7206 0.74022 0.16297 0.0
C200 C 0.73665 0.74205 0.14863 0.0
C201 C 0.75076 0.75832 0.15082 0.0
C202 C 0.74895 0.77245 0.16693 0.0
C203 C 0.73283 0.7704 0.18109 0.0
C204 C 0.71898 0.75449 0.17897 0.0
C205 C 0.70278 0.75477 0.19541 0.0
C206 C 0.70919 0.77347 0.20774 0.0
C207 C 0.7268 0.78255 0.1993 0.0
C208 C 0.68165 0.75783 0.18494 0.0
C209 C 0.70472 0.73473 0.20804 0.0
C210 C 0.76886 0.8449 0.22009 0.0
C211 C 0.76703 0.85926 0.23612 0.0
C212 C 0.75068 0.85714 0.25016 0.0
C213 C 0.73648 0.84109 0.24831 0.0
C214 C 0.73854 0.82691 0.23221 0.0
C215 C 0.75451 0.82897 0.21843 0.0
C216 C 0.75421 0.81255 0.20221 0.0
C217 C 0.73543 0.8003 0.20854 0.0
C218 C 0.72632 0.80877 0.22614 0.0
C219 C 0.75127 0.82304 0.18108 0.0
C220 C 0.7742 0.79983 0.2042 0.0
H221 H 0.66826 0.74884 0.22344 0.0
H222 H 0.66274 0.79897 0.28049 0.0
H223 H 0.7107 0.78746 0.27784 0.0
H224 H 0.72467 0.80975 0.27196 0.0
H225 H 0.70119 0.81182 0.28644 0.0
H226 H 0.67213 0.82579 0.24035 0.0
H227 H 0.68051 0.83344 0.26543 0.0
H228 H 0.6958 0.83838 0.24289 0.0
H229 H 0.70961 0.72781 0.16193 0.0
H230 H 0.76309 0.76034 0.13986 0.0
H231 H 0.76015 0.78448 0.16767 0.0
H232 H 0.68301 0.76798 0.17129 0.0
H233 H 0.67517 0.74298 0.17969 0.0
H234 H 0.67037 0.76557 0.19494 0.0
H235 H 0.72109 0.73022 0.2098 0.0
H236 H 0.69893 0.73628 0.22388 0.0
H237 H 0.6966 0.72186 0.20039 0.0
H238 H 0.64049 0.7458 0.24759 0.0
C239 C 0.66757 0.75995 0.23555 0.0
C240 C 0.04008 0.91127 0.51687 0.0
C241 C 0.02377 0.8972 0.51536 0.0
C242 C 0.00939 0.89957 0.49936 0.0
C243 C 0.02758 0.92952 0.48687 0.0
C244 C 0.04164 0.92724 0.50257 0.0
C245 C 0.05793 0.94358 0.50214 0.0
H246 H 0.09771 0.02878 0.45801 0.0
C247 C 0.03357 0.9477 0.47468 0.0
C248 C 0.05134 0.95603 0.48358 0.0
H249 H 0.12033 0.99559 0.51085 0.0
H250 H 0.09259 0.97141 0.50783 0.0
H251 H 0.05021 0.02637 0.46988 0.0
H252 H 0.08774 0.98844 0.43096 0.0
H253 H 0.06405 0.99173 0.41856 0.0
H254 H 0.07991 0.01381 0.42371 0.0
H255 H 0.05904 0.03477 0.44518 0.0
H256 H 0.0356 0.02034 0.44806 0.0
C257 C 0.05636 0.95612 0.52227 0.0
C258 C 0.07896 0.933 0.49872 0.0
C259 C 0.9913 0.96855 0.41246 0.0
C260 C 0.99297 0.98473 0.39826 0.0
C261 C 0.00915 0.99892 0.40048 0.0
C262 C 0.02343 0.99702 0.41646 0.0
C263 C 0.02158 0.98075 0.43048 0.0
C264 C 0.00568 0.96689 0.42837 0.0
C265 C 0.00602 0.95069 0.4448 0.0
C266 C 0.02482 0.95702 0.45702 0.0
C267 C 0.03389 0.97463 0.44854 0.0
C268 C 0.98605 0.95263 0.45757 0.0
C269 C 0.00897 0.92958 0.4343 0.0
C270 C 0.0968 0.0162 0.46883 0.0
C271 C 0.11126 0.01422 0.48476 0.0
C272 C 0.10927 0.99772 0.49863 0.0
C273 C 0.09319 0.98358 0.49678 0.0
C274 C 0.07884 0.98584 0.48086 0.0
C275 C 0.08081 1.00191 0.46718 0.0
C276 C 0.06414 1.00183 0.45119 0.0
C277 C 0.05184 0.9831 0.45757 0.0
C278 C 0.06052 0.97381 0.47497 0.0
C279 C 0.05158 0.02188 0.45346 0.0
C280 C 0.07433 0.99895 0.42991 0.0
H281 H 0.9998 0.91649 0.47331 0.0
H282 H 0.05126 0.91006 0.52911 0.0
H283 H 0.07738 0.91949 0.48842 0.0
H284 H 0.09023 0.94301 0.49099 0.0
H285 H 0.08554 0.92752 0.51345 0.0
H286 H 0.04008 0.95779 0.52714 0.0
H287 H 0.06479 0.94848 0.53495 0.0
H288 H 0.06202 0.972 0.52065 0.0
H289 H 0.97892 0.95752 0.41138 0.0
H290 H 0.01097 0.01138 0.38964 0.0
H291 H 0.0354 0.00829 0.41722 0.0
H292 H 0.9812 0.96894 0.45887 0.0
H293 H 0.97325 0.94402 0.45033 0.0
H294 H 0.9879 0.94741 0.47358 0.0
H295 H 0.01965 0.93084 0.42104 0.0
H296 H 0.01603 0.91803 0.44448 0.0
H297 H 0.99416 0.92352 0.42845 0.0
H298 H 0.99683 0.88882 0.49766 0.0
C299 C 0.01121 0.9156 0.48514 0.0
C300 C 0.26904 0.66428 0.78838 0.0
C301 C 0.26722 0.6499 0.77237 0.0
C302 C 0.25081 0.6519 0.75839 0.0
C303 C 0.23853 0.68204 0.7764 0.0
C304 C 0.25459 0.68011 0.7901 0.0
C305 C 0.25425 0.69657 0.80629 0.0
H306 H 0.20798 0.77978 0.848 0.0
C307 C 0.22615 0.70003 0.78257 0.0
C308 C 0.23527 0.7086 0.8001 0.0
H309 H 0.26346 0.74946 0.86805 0.0
H310 H 0.26061 0.72528 0.84022 0.0
H311 H 0.18243 0.73849 0.83773 0.0
H312 H 0.21898 0.77874 0.80024 0.0
H313 H 0.19736 0.77185 0.78576 0.0
H314 H 0.19401 0.78584 0.8094 0.0
H315 H 0.17415 0.7638 0.83075 0.0
H316 H 0.16933 0.74199 0.81443 0.0
C317 C 0.25159 0.68606 0.82744 0.0
C318 C 0.27408 0.70951 0.80414 0.0
C319 C 0.16321 0.72003 0.74097 0.0
C320 C 0.14859 0.7358 0.74298 0.0
C321 C 0.15039 0.7496 0.75957 0.0
C322 C 0.16644 0.74781 0.77377 0.0
C323 C 0.18094 0.73203 0.77149 0.0
C324 C 0.17914 0.71844 0.75532 0.0
C325 C 0.19587 0.70254 0.75541 0.0
C326 C 0.2081 0.70893 0.77418 0.0
C327 C 0.19928 0.72622 0.78354 0.0
C328 C 0.18578 0.68119 0.75822 0.0
C329 C 0.20847 0.70493 0.7354 0.0
C330 C 0.2194 0.76782 0.84648 0.0
C331 C 0.23596 0.76652 0.86028 0.0
C332 C 0.25068 0.75092 0.85753 0.0
C333 C 0.24894 0.73681 0.8414 0.0
C334 C 0.23232 0.73828 0.82774 0.0
C335 C 0.21796 0.75367 0.83034 0.0
C336 C 0.20161 0.75316 0.81404 0.0
C337 C 0.20844 0.73484 0.80136 0.0
C338 C 0.22638 0.72614 0.80952 0.0
C339 C 0.18069 0.74931 0.82464 0.0
C340 C 0.20282 0.77345 0.80171 0.0
H341 H 0.22439 0.66845 0.74919 0.0
H342 H 0.28156 0.66338 0.79927 0.0
H343 H 0.27891 0.71065 0.78781 0.0
H344 H 0.27204 0.72557 0.80913 0.0
H345 H 0.28696 0.70255 0.81286 0.0
H346 H 0.24088 0.67282 0.82631 0.0
H347 H 0.26648 0.6802 0.83329 0.0
H348 H 0.24471 0.69623 0.8391 0.0
H349 H 0.16246 0.70927 0.72834 0.0
H350 H 0.1392 0.76168 0.76174 0.0
H351 H 0.16689 0.75877 0.78603 0.0
H352 H 0.17196 0.68222 0.76818 0.0
H353 H 0.18087 0.6747 0.74325 0.0
H354 H 0.19589 0.67009 0.76605 0.0
H355 H 0.21014 0.72139 0.73122 0.0
H356 H 0.22434 0.69917 0.7368 0.0
H357 H 0.20084 0.69704 0.72236 0.0
H358 H 0.2488 0.64091 0.7461 0.0
C359 C 0.23652 0.66785 0.7603 0.0
C360 C 0.90741 0.50146 0.4847 0.0
C361 C 0.9027 0.48461 0.47204 0.0
C362 C 0.91558 0.4803 0.45519 0.0
C363 C 0.93718 0.50937 0.46369 0.0
C364 C 0.92462 0.51356 0.48024 0.0
C365 C 0.93162 0.53214 0.49201 0.0
H366 H 0.99884 0.6106 0.50309 0.0
C367 C 0.95363 0.525 0.46322 0.0
C368 C 0.95045 0.5384 0.47979 0.0
H369 H 0.94642 0.59592 0.54105 0.0
H370 H 0.93882 0.56674 0.51969 0.0
H371 H 0.97692 0.6023 0.46034 0.0
H372 H 0.01483 0.56373 0.49824 0.0
H373 H 0.02237 0.55986 0.47266 0.0
H374 H 0.02494 0.58498 0.48395 0.0
H375 H 1.00414 0.60589 0.46237 0.0
H376 H 0.99314 0.58849 0.44388 0.0
C377 C 0.91444 0.54853 0.49089 0.0
C378 C 0.93725 0.52525 0.51406 0.0
C379 C 0.00773 0.52293 0.40698 0.0
C380 C 0.02459 0.53557 0.40228 0.0
C381 C 0.02879 0.55253 0.41504 0.0
C382 C 0.01644 0.55685 0.43212 0.0
C383 C 0.99961 0.54413 0.43655 0.0
C384 C 0.99549 0.5275 0.42407 0.0
C385 C 0.97681 0.51583 0.43098 0.0
C386 C 0.97044 0.52816 0.44969 0.0
C387 C 0.98386 0.5447 0.45289 0.0
C388 C 0.96055 0.51692 0.41366 0.0
C389 C 0.98358 0.4938 0.43677 0.0
C390 C 0.98584 0.60098 0.50693 0.0
C391 C 0.9732 0.60566 0.5238 0.0
C392 C 0.95626 0.59287 0.52801 0.0
C393 C 0.95192 0.57583 0.51563 0.0
C394 C 0.96463 0.57144 0.49878 0.0
C395 C 0.98128 0.58391 0.49468 0.0
C396 C 0.993 0.57697 0.47604 0.0
C397 C 0.98066 0.55826 0.46966 0.0
C398 C 0.96406 0.55511 0.48303 0.0
C399 C 0.99197 0.59426 0.45976 0.0
C400 C 0.01501 0.57118 0.48288 0.0
H401 H 0.94192 0.4884 0.43794 0.0
H402 H 0.89773 0.50538 0.49762 0.0
H403 H 0.94436 0.50974 0.51395 0.0
H404 H 0.9488 0.53524 0.52138 0.0
H405 H 0.92341 0.52453 0.52398 0.0
H406 H 0.90662 0.54813 0.47572 0.0
H407 H 0.90261 0.54587 0.50286 0.0
H408 H 0.92028 0.56436 0.4923 0.0
H409 H 1.00389 0.50994 0.39737 0.0
H410 H 0.04181 0.56238 0.41194 0.0
H411 H 0.0205 0.56996 0.4412 0.0
H412 H 0.96116 0.53198 0.40566 0.0
H413 H 0.96317 0.50478 0.402 0.0
H414 H 0.94466 0.51575 0.4194 0.0
H415 H 0.99896 0.49392 0.44418 0.0
H416 H 0.97335 0.48649 0.44811 0.0
H417 H 0.98458 0.48387 0.42296 0.0
H418 H 0.9125 0.46727 0.44536 0.0
C419 C 0.93275 0.49254 0.45097 0.0
C420 C 0.78814 0.73994 0.84475 0.0
C421 C 0.77215 0.74175 0.85916 0.0
C422 C 0.75813 0.75813 0.85715 0.0
C423 C 0.77603 0.77034 0.8269 0.0
C424 C 0.78979 0.75434 0.82887 0.0
C425 C 0.80596 0.75467 0.8124 0.0
H426 H 0.84622 0.79947 0.72774 0.0
C427 C 0.78207 0.7826 0.80878 0.0
C428 C 0.79963 0.77349 0.80023 0.0
H429 H 0.86813 0.7458 0.76003 0.0
H430 H 0.84038 0.74874 0.78423 0.0
H431 H 0.83685 0.82594 0.76814 0.0
H432 H 0.79833 0.7881 0.73014 0.0
H433 H 0.78424 0.8102 0.73635 0.0
H434 H 0.80771 0.81263 0.72189 0.0
H435 H 0.82862 0.83381 0.74307 0.0
H436 H 0.81325 0.83866 0.76558 0.0
C437 C 0.82713 0.75754 0.82285 0.0
C438 C 0.8039 0.73474 0.7996 0.0
C439 C 0.74026 0.8453 0.7884 0.0
C440 C 0.74212 0.85969 0.7724 0.0
C441 C 0.75846 0.85758 0.75835 0.0
C442 C 0.77261 0.84149 0.76014 0.0
C443 C 0.77051 0.82725 0.77618 0.0
C444 C 0.75455 0.8293 0.78999 0.0
C445 C 0.7548 0.81277 0.8061 0.0
C446 C 0.77352 0.80047 0.79968 0.0
C447 C 0.78265 0.80902 0.78213 0.0
C448 C 0.75782 0.82311 0.8273 0.0
C449 C 0.73476 0.80016 0.80407 0.0
C450 C 0.84515 0.78844 0.74011 0.0
C451 C 0.85943 0.77232 0.74186 0.0
C452 C 0.85722 0.75817 0.75808 0.0
C453 C 0.84114 0.75998 0.77224 0.0
C454 C 0.82702 0.77615 0.77028 0.0
C455 C 0.82917 0.79004 0.75442 0.0
C456 C 0.81275 0.80627 0.75478 0.0
C457 C 0.80042 0.79982 0.77348 0.0
C458 C 0.80885 0.78217 0.78248 0.0
C459 C 0.82326 0.82736 0.7579 0.0
C460 C 0.80009 0.80444 0.73474 0.0
H461 H 0.74883 0.78447 0.84053 0.0
H462 H 0.79907 0.72746 0.84565 0.0
H463 H 0.78751 0.7303 0.79788 0.0
H464 H 0.80963 0.73641 0.78375 0.0
H465 H 0.81201 0.72177 0.80711 0.0
H466 H 0.82584 0.76762 0.83656 0.0
H467 H 0.83351 0.74261 0.82801 0.0
H468 H 0.83845 0.76525 0.81288 0.0
H469 H 0.7278 0.84628 0.79935 0.0
H470 H 0.76051 0.86859 0.74607 0.0
H471 H 0.78468 0.84081 0.74898 0.0
H472 H 0.76805 0.83672 0.82604 0.0
H473 H 0.74295 0.82841 0.83372 0.0
H474 H 0.76545 0.81303 0.83856 0.0
H475 H 0.73032 0.79841 0.78768 0.0
H476 H 0.73627 0.78433 0.80988 0.0
H477 H 0.72184 0.80782 0.81213 0.0
H478 H 0.74585 0.76013 0.86816 0.0
C479 C 0.75997 0.77237 0.84114 0.0
C480 C 0.28962 0.24044 0.34699 0.0
C481 C 0.27315 0.24186 0.36093 0.0
C482 C 0.25833 0.25736 0.35794 0.0
C483 C 0.2766 0.26977 0.32802 0.0
C484 C 0.29097 0.25443 0.33071 0.0
C485 C 0.30734 0.25489 0.31442 0.0
H486 H 0.34681 0.29879 0.22886 0.0
C487 C 0.28254 0.28185 0.30975 0.0
C488 C 0.3005 0.27314 0.30165 0.0
H489 H 0.36984 0.24627 0.26225 0.0
H490 H 0.34204 0.24915 0.28642 0.0
H491 H 0.33709 0.32576 0.26872 0.0
H492 H 0.29908 0.28669 0.23147 0.0
H493 H 0.28486 0.30889 0.23706 0.0
H494 H 0.30842 0.31106 0.22272 0.0
H495 H 0.32837 0.3333 0.24373 0.0
H496 H 0.31319 0.33793 0.26642 0.0
C497 C 0.32825 0.25882 0.32502 0.0
C498 C 0.30618 0.23454 0.30218 0.0
C499 C 0.24012 0.34389 0.28867 0.0
C500 C 0.24201 0.3583 0.2727 0.0
C501 C 0.25841 0.35624 0.2587 0.0
C502 C 0.27262 0.34022 0.26058 0.0
C503 C 0.27055 0.32602 0.27666 0.0
C504 C 0.25449 0.32798 0.29036 0.0
C505 C 0.25476 0.31151 0.30652 0.0
C506 C 0.2737 0.29942 0.30033 0.0
C507 C 0.28287 0.30798 0.28282 0.0
C508 C 0.25744 0.32198 0.32768 0.0
C509 C 0.23489 0.29863 0.30435 0.0
C510 C 0.34598 0.288 0.24146 0.0
C511 C 0.36057 0.27221 0.24352 0.0
C512 C 0.35867 0.25837 0.26005 0.0
C513 C 0.34255 0.26014 0.27418 0.0
C514 C 0.32808 0.27595 0.27187 0.0
C515 C 0.32997 0.28957 0.25573 0.0
C516 C 0.31324 0.30548 0.25577 0.0
C517 C 0.30093 0.29906 0.27448 0.0
C518 C 0.3097 0.28175 0.28385 0.0
C519 C 0.32334 0.32681 0.25866 0.0
C520 C 0.30073 0.30314 0.2357 0.0
H521 H 0.2482 0.28269 0.3403 0.0
H522 H 0.30139 0.22887 0.34882 0.0
H523 H 0.29003 0.22918 0.30079 0.0
H524 H 0.31158 0.2361 0.28621 0.0
H525 H 0.31506 0.22222 0.3099 0.0
H526 H 0.32649 0.26973 0.33803 0.0
H527 H 0.3348 0.24438 0.33123 0.0
H528 H 0.33962 0.26607 0.31477 0.0
H529 H 0.2276 0.34482 0.29955 0.0
H530 H 0.26047 0.36725 0.24643 0.0
H531 H 0.28475 0.33959 0.24947 0.0
H532 H 0.26829 0.33511 0.32659 0.0
H533 H 0.24259 0.32801 0.33346 0.0
H534 H 0.26414 0.31176 0.33938 0.0
H535 H 0.22996 0.29766 0.28804 0.0
H536 H 0.23693 0.28251 0.30918 0.0
H537 H 0.22207 0.30553 0.3132 0.0
H538 H 0.24524 0.25863 0.3681 0.0
C539 C 0.25998 0.27129 0.34165 0.0
C540 C 0.4858 0.9067 0.49954 0.0
C541 C 0.47341 0.9022 0.48243 0.0
C542 C 0.45676 0.91524 0.47787 0.0
C543 C 0.46478 0.93648 0.50733 0.0
C544 C 0.48119 0.9238 0.51174 0.0
C545 C 0.49252 0.9305 0.53071 0.0
H546 H 0.50164 0.99648 0.61053 0.0
C547 C 0.46392 0.95263 0.52324 0.0
C548 C 0.48011 0.94919 0.53703 0.0
H549 H 0.54036 0.9447 0.59567 0.0
H550 H 0.51949 0.9373 0.56605 0.0
H551 H 0.45964 0.97452 0.60173 0.0
H552 H 0.497 0.01307 0.56327 0.0
H553 H 0.4713 0.02085 0.56049 0.0
H554 H 0.48338 0.02247 0.58529 0.0
H555 H 0.46026 1.00185 0.60481 0.0
H556 H 0.44277 0.9896 0.58716 0.0
C557 C 0.49107 0.91305 0.54679 0.0
C558 C 0.51471 0.93627 0.52443 0.0
C559 C 0.40776 0.00676 0.52057 0.0
C560 C 0.40229 0.02289 0.53379 0.0
C561 C 0.41414 0.02641 0.55153 0.0
C562 C 0.43121 0.01411 0.55602 0.0
C563 C 0.43645 0.99797 0.54271 0.0
C564 C 0.42472 0.99445 0.5254 0.0
C565 C 0.43204 0.97607 0.51351 0.0
C566 C 0.45025 0.96932 0.52638 0.0
C567 C 0.45285 0.98228 0.54339 0.0
C568 C 0.41464 0.95985 0.51346 0.0
C569 C 0.43872 0.98342 0.49192 0.0
C570 C 0.50575 0.98367 0.60079 0.0
C571 C 0.52271 0.97116 0.60552 0.0
C572 C 0.52726 0.95443 0.59257 0.0
C573 C 0.51518 0.95023 0.57527 0.0
C574 C 0.49827 0.96283 0.57079 0.0
C575 C 0.49381 0.97924 0.58346 0.0
C576 C 0.47516 0.99087 0.5764 0.0
C577 C 0.46927 0.97886 0.55733 0.0
C578 C 0.48285 0.96244 0.55413 0.0
C579 C 0.45854 0.98935 0.59336 0.0
C580 C 0.48186 0.01305 0.57117 0.0
H581 H 0.43954 0.94161 0.48584 0.0
H582 H 0.49858 0.89689 0.50362 0.0
H583 H 0.51496 0.94356 0.50899 0.0
H584 H 0.52174 0.94772 0.53473 0.0
H585 H 0.5247 0.92248 0.52378 0.0
H586 H 0.47584 0.90537 0.54604 0.0
H587 H 0.50299 0.90118 0.54405 0.0
H588 H 0.49235 0.91858 0.56273 0.0
H589 H 0.39875 1.00349 0.50699 0.0
H590 H 0.41026 0.03881 0.56188 0.0
H591 H 0.43961 0.01761 0.56972 0.0
H592 H 0.40547 0.96061 0.52784 0.0
H593 H 0.40396 0.96231 0.50041 0.0
H594 H 0.42045 0.94394 0.51296 0.0
H595 H 0.44672 0.99847 0.49287 0.0
H596 H 0.44984 0.97301 0.48451 0.0
H597 H 0.42525 0.98535 0.48167 0.0
H598 H 0.44714 0.91231 0.46463 0.0
C599 C 0.45242 0.93233 0.49016 0.0
C600 C 0.16304 0.2886 0.76685 0.0
C601 C 0.14859 0.2727 0.76467 0.0
C602 C 0.15071 0.25893 0.74809 0.0
C603 C 0.18114 0.27689 0.73642 0.0
C604 C 0.17907 0.29041 0.75261 0.0
C605 C 0.19557 0.30655 0.75265 0.0
H606 H 0.28074 0.34713 0.70909 0.0
C607 C 0.1994 0.28306 0.72441 0.0
C608 C 0.2079 0.30046 0.73385 0.0
H609 H 0.24789 0.36871 0.76257 0.0
H610 H 0.22372 0.34097 0.75921 0.0
H611 H 0.2407 0.33828 0.68218 0.0
H612 H 0.27821 0.29928 0.71996 0.0
H613 H 0.27207 0.28531 0.69776 0.0
H614 H 0.28664 0.30873 0.69551 0.0
H615 H 0.26576 0.32995 0.67442 0.0
H616 H 0.24318 0.31482 0.66921 0.0
C617 C 0.18518 0.32777 0.74998 0.0
C618 C 0.20818 0.30421 0.77267 0.0
C619 C 0.22033 0.24218 0.66124 0.0
C620 C 0.23644 0.24432 0.64701 0.0
C621 C 0.25054 0.26053 0.64955 0.0
C622 C 0.24864 0.27436 0.66589 0.0
C623 C 0.23244 0.27207 0.67993 0.0
C624 C 0.21862 0.25618 0.67748 0.0
C625 C 0.20232 0.25622 0.69385 0.0
C626 C 0.20867 0.27472 0.70652 0.0
C627 C 0.22633 0.28392 0.69829 0.0
C628 C 0.18124 0.25947 0.68333 0.0
C629 C 0.20416 0.23599 0.70616 0.0
C630 C 0.26826 0.34601 0.71999 0.0
C631 C 0.26634 0.36019 0.73616 0.0
C632 C 0.24998 0.35788 0.75015 0.0
C633 C 0.23583 0.34181 0.74809 0.0
C634 C 0.23794 0.32783 0.73183 0.0
C635 C 0.25395 0.33007 0.71812 0.0
C636 C 0.25372 0.31386 0.7017 0.0
C637 C 0.23493 0.30153 0.70781 0.0
C638 C 0.22576 0.30976 0.72548 0.0
C639 C 0.25084 0.32463 0.68069 0.0
C640 C 0.27371 0.30112 0.7036 0.0
H641 H 0.16754 0.24999 0.72175 0.0
H642 H 0.16207 0.29934 0.77948 0.0
H643 H 0.21002 0.28775 0.77678 0.0
H644 H 0.22398 0.31013 0.77128 0.0
H645 H 0.20046 0.31197 0.78572 0.0
H646 H 0.17151 0.32664 0.73982 0.0
H647 H 0.17997 0.33399 0.76496 0.0
H648 H 0.19521 0.33914 0.74243 0.0
H649 H 0.20909 0.23006 0.65963 0.0
H650 H 0.26326 0.26238 0.63901 0.0
H651 H 0.25991 0.2863 0.66696 0.0
H652 H 0.18267 0.2699 0.6699 0.0
H653 H 0.17483 0.24471 0.67774 0.0
H654 H 0.16989 0.26696 0.69343 0.0
H655 H 0.22053 0.23155 0.70811 0.0
H656 H 0.19808 0.23723 0.72192 0.0
H657 H 0.19625 0.2232 0.69815 0.0
H658 H 0.13967 0.24674 0.7458 0.0
C659 C 0.16686 0.26093 0.73402 0.0
C660 C 0.75107 0.1566 0.73447 0.0
C661 C 0.73412 0.15204 0.72187 0.0
C662 C 0.72977 0.16508 0.70515 0.0
C663 C 0.75901 0.18646 0.71362 0.0
C664 C 0.76323 0.17379 0.73007 0.0
C665 C 0.78186 0.18071 0.74185 0.0
H666 H 0.86058 0.24768 0.7529 0.0
C667 C 0.77467 0.20288 0.7132 0.0
C668 C 0.78809 0.19961 0.72974 0.0
H669 H 0.84585 0.19529 0.79084 0.0
H670 H 0.81653 0.18784 0.76959 0.0
H671 H 0.81422 0.26396 0.7487 0.0
H672 H 0.85164 0.22584 0.70989 0.0
H673 H 0.83817 0.24281 0.69387 0.0
H674 H 0.85588 0.25291 0.71257 0.0
H675 H 0.83482 0.27414 0.73353 0.0
H676 H 0.80926 0.2713 0.72326 0.0
C677 C 0.77504 0.18617 0.76396 0.0
C678 C 0.79824 0.16354 0.74055 0.0
C679 C 0.77288 0.25698 0.65694 0.0
C680 C 0.78543 0.27397 0.65244 0.0
C681 C 0.80217 0.2783 0.66547 0.0
C682 C 0.80643 0.26591 0.68252 0.0
C683 C 0.79384 0.24892 0.6867 0.0
C684 C 0.77735 0.24474 0.67406 0.0
C685 C 0.76563 0.22607 0.68091 0.0
C686 C 0.77785 0.21972 0.69972 0.0
C687 C 0.79437 0.23315 0.70301 0.0
C688 C 0.74354 0.23282 0.68653 0.0
C689 C 0.76687 0.20981 0.66362 0.0
C690 C 0.85094 0.23472 0.75676 0.0
C691 C 0.85565 0.22204 0.77359 0.0
C692 C 0.84279 0.20515 0.77783 0.0
C693 C 0.82567 0.20091 0.76552 0.0
C694 C 0.82125 0.21365 0.7487 0.0
C695 C 0.83377 0.23026 0.7446 0.0
C696 C 0.82675 0.2421 0.72607 0.0
C697 C 0.80796 0.22986 0.71974 0.0
C698 C 0.80483 0.2132 0.73303 0.0
C699 C 0.82106 0.2641 0.73305 0.0
C700 C 0.84395 0.24108 0.70969 0.0
H701 H 0.73791 0.19148 0.68803 0.0
H702 H 0.75502 0.14682 0.74731 0.0
H703 H 0.79794 0.156 0.72524 0.0
H704 H 0.81407 0.16932 0.74221 0.0
H705 H 0.79547 0.15151 0.7523 0.0
H706 H 0.75948 0.19318 0.76397 0.0
H707 H 0.77445 0.17228 0.77381 0.0
H708 H 0.785 0.19774 0.77128 0.0
H709 H 0.76002 0.25306 0.64718 0.0
H710 H 0.81191 0.29145 0.66261 0.0
H711 H 0.81938 0.27006 0.69178 0.0
H712 H 0.7435 0.24842 0.69344 0.0
H713 H 0.73355 0.23327 0.67273 0.0
H714 H 0.73637 0.22291 0.69825 0.0
H715 H 0.78219 0.21011 0.65609 0.0
H716 H 0.76515 0.19395 0.66929 0.0
H717 H 0.75514 0.21272 0.65161 0.0
H718 H 0.71665 0.16217 0.69537 0.0
C719 C 0.74208 0.18221 0.70097 0.0
C720 C 0.53986 0.59514 0.49069 0.0
C721 C 0.52378 0.60946 0.4923 0.0
C722 C 0.50949 0.60735 0.50842 0.0
C723 C 0.5273 0.57715 0.52084 0.0
C724 C 0.54129 0.57917 0.50503 0.0
C725 C 0.55732 0.56256 0.5054 0.0
H726 H 0.59693 0.47779 0.55065 0.0
C727 C 0.53313 0.55895 0.53308 0.0
C728 C 0.5507 0.55031 0.52408 0.0
H729 H 0.61879 0.50924 0.49648 0.0
H730 H 0.59123 0.53372 0.49928 0.0
H731 H 0.5871 0.51878 0.57687 0.0
H732 H 0.54952 0.47985 0.53902 0.0
H733 H 0.53472 0.48669 0.56044 0.0
H734 H 0.55802 0.4722 0.56406 0.0
H735 H 0.57959 0.49343 0.58453 0.0
H736 H 0.56357 0.5154 0.58958 0.0
C737 C 0.57852 0.57281 0.50857 0.0
C738 C 0.55538 0.54993 0.48534 0.0
C739 C 0.49097 0.53903 0.59569 0.0
C740 C 0.49255 0.52295 0.61 0.0
C741 C 0.50867 0.50866 0.6079 0.0
C742 C 0.52292 0.51035 0.59188 0.0
C743 C 0.52113 0.52649 0.57772 0.0
C744 C 0.50533 0.54048 0.57974 0.0
C745 C 0.50575 0.55655 0.56318 0.0
C746 C 0.52442 0.54991 0.55091 0.0
C747 C 0.53338 0.53232 0.55952 0.0
C748 C 0.50897 0.57771 0.5735 0.0
C749 C 0.48569 0.5547 0.55053 0.0
C750 C 0.59588 0.49006 0.5395 0.0
C751 C 0.6101 0.49154 0.52332 0.0
C752 C 0.60793 0.50757 0.50895 0.0
C753 C 0.59196 0.52187 0.51066 0.0
C754 C 0.57789 0.52019 0.52692 0.0
C755 C 0.57995 0.50444 0.54096 0.0
C756 C 0.56343 0.5049 0.55707 0.0
C757 C 0.55116 0.52357 0.55043 0.0
C758 C 0.55974 0.53249 0.5328 0.0
C759 C 0.5738 0.50815 0.57821 0.0
C760 C 0.55075 0.48487 0.55529 0.0
H761 H 0.49983 0.59064 0.53456 0.0
H762 H 0.55096 0.59614 0.47837 0.0
H763 H 0.53909 0.54886 0.48035 0.0
H764 H 0.56039 0.53386 0.48715 0.0
H765 H 0.5642 0.55713 0.47267 0.0
H766 H 0.57732 0.58601 0.51933 0.0
H767 H 0.58475 0.5787 0.49384 0.0
H768 H 0.58992 0.56248 0.51564 0.0
H769 H 0.47865 0.55014 0.59669 0.0
H770 H 0.51044 0.49628 0.61884 0.0
H771 H 0.53484 0.49902 0.5912 0.0
H772 H 0.51955 0.57641 0.58684 0.0
H773 H 0.49422 0.58406 0.5792 0.0
H774 H 0.51628 0.58904 0.56326 0.0
H775 H 0.48076 0.53841 0.54927 0.0
H776 H 0.48746 0.55992 0.53451 0.0
H777 H 0.47298 0.56338 0.55785 0.0
H778 H 0.49711 0.61829 0.51019 0.0
C779 C 0.51116 0.59132 0.52266 0.0
C780 C 0.53969 0.41256 0.01785 0.0
C781 C 0.52355 0.3983 0.01624 0.0
C782 C 0.5093 0.40046 1.00009 0.0
C783 C 0.52725 0.43057 0.98767 0.0
C784 C 0.54122 0.42849 1.00349 0.0
C785 C 0.55734 0.445 1.00311 0.0
H786 H 0.59719 0.52976 0.95807 0.0
C787 C 0.53317 0.44874 0.97543 0.0
C788 C 0.55078 0.45729 0.98443 0.0
H789 H 0.6192 0.49786 0.01192 0.0
H790 H 0.59152 0.47352 0.00911 0.0
H791 H 0.54983 0.52778 0.96979 0.0
H792 H 0.58721 0.48893 0.93167 0.0
H793 H 0.56366 0.49241 0.91903 0.0
H794 H 0.57974 0.51433 0.92414 0.0
H795 H 0.55828 0.53552 0.94476 0.0
H796 H 0.53495 0.52107 0.94837 0.0
C797 C 0.5555 0.45764 0.02316 0.0
C798 C 0.57849 0.43462 0.99992 0.0
C799 C 0.49102 0.469 0.91292 0.0
C800 C 0.49262 0.48516 0.89869 0.0
C801 C 0.50877 0.4994 0.90085 0.0
C802 C 0.52304 0.4976 0.91683 0.0
C803 C 0.52123 0.48139 0.93092 0.0
C804 C 0.50539 0.46745 0.92884 0.0
C805 C 0.50577 0.45132 0.94536 0.0
C806 C 0.52447 0.45786 0.95764 0.0
C807 C 0.53348 0.47545 0.94908 0.0
C808 C 0.48573 0.45319 0.95802 0.0
C809 C 0.50892 0.43019 0.93497 0.0
C810 C 0.59615 0.51743 0.96915 0.0
C811 C 0.61044 0.51579 0.98526 0.0
C812 C 0.60828 0.49966 0.99952 0.0
C813 C 0.59225 0.48544 0.99779 0.0
C814 C 0.5781 0.48729 0.98163 0.0
C815 C 0.58018 0.50311 0.96767 0.0
C816 C 0.56361 0.50277 0.95159 0.0
C817 C 0.55131 0.48411 0.95816 0.0
C818 C 0.55989 0.47509 0.97574 0.0
C819 C 0.551 0.52283 0.95349 0.0
C820 C 0.57394 0.49959 0.93041 0.0
H821 H 0.49974 0.41718 0.97391 0.0
H822 H 0.55078 0.41152 0.03018 0.0
H823 H 0.57718 0.42131 0.98931 0.0
H824 H 0.58988 0.44484 0.99266 0.0
H825 H 0.58479 0.42887 0.01467 0.0
H826 H 0.53919 0.45894 0.02807 0.0
H827 H 0.56414 0.4503 0.03587 0.0
H828 H 0.56075 0.47364 0.0214 0.0
H829 H 0.47867 0.45793 0.91187 0.0
H830 H 0.51054 0.51183 0.88997 0.0
H831 H 0.53498 0.5089 0.91755 0.0
H832 H 0.48082 0.46949 0.95931 0.0
H833 H 0.473 0.44455 0.9507 0.0
H834 H 0.4875 0.44796 0.97403 0.0
H835 H 0.51955 0.43148 0.92167 0.0
H836 H 0.51615 0.41879 0.9452 0.0
H837 H 0.49416 0.42393 0.92921 0.0
H838 H 0.49688 0.38957 0.99831 0.0
C839 C 0.51106 0.41646 0.98584 0.0
C840 C 0.76901 0.16292 0.2879 0.0
C841 C 0.76724 0.14865 0.27178 0.0
C842 C 0.75093 0.1508 0.25771 0.0
C843 C 0.73869 0.18092 0.27577 0.0
C844 C 0.75463 0.17882 0.28959 0.0
C845 C 0.75425 0.19518 0.30588 0.0
H846 H 0.70938 0.27972 0.34634 0.0
C847 C 0.72644 0.19902 0.28187 0.0
C848 C 0.73547 0.20743 0.29953 0.0
H849 H 0.7628 0.24713 0.36847 0.0
H850 H 0.75999 0.22311 0.34056 0.0
H851 H 0.68284 0.23944 0.33659 0.0
H852 H 0.72106 0.27753 0.29852 0.0
H853 H 0.69899 0.27147 0.28428 0.0
H854 H 0.69649 0.2858 0.30781 0.0
H855 H 0.6751 0.26457 0.32847 0.0
H856 H 0.67027 0.24219 0.31293 0.0
C857 C 0.75124 0.1846 0.32696 0.0
C858 C 0.77422 0.20794 0.30402 0.0
C859 C 0.66402 0.21974 0.23982 0.0
C860 C 0.64964 0.23574 0.24167 0.0
C861 C 0.65168 0.24972 0.25808 0.0
C862 C 0.6677 0.24783 0.2723 0.0
C863 C 0.68192 0.23177 0.27022 0.0
C864 C 0.67993 0.21806 0.25419 0.0
C865 C 0.69643 0.20191 0.25445 0.0
C866 C 0.70864 0.20821 0.27326 0.0
C867 C 0.70007 0.22572 0.28244 0.0
C868 C 0.68602 0.18073 0.2573 0.0
C869 C 0.70917 0.20403 0.23449 0.0
C870 C 0.72038 0.26732 0.34529 0.0
C871 C 0.73639 0.26544 0.35968 0.0
C872 C 0.75051 0.24918 0.35748 0.0
C873 C 0.74877 0.23512 0.3413 0.0
C874 C 0.73271 0.23722 0.32708 0.0
C875 C 0.71884 0.25311 0.32922 0.0
C876 C 0.70272 0.25288 0.3127 0.0
C877 C 0.70919 0.23424 0.30031 0.0
C878 C 0.72678 0.22514 0.3088 0.0
C879 C 0.68154 0.24976 0.32305 0.0
C880 C 0.70468 0.27297 0.30016 0.0
H881 H 0.72465 0.16752 0.24842 0.0
H882 H 0.78144 0.16191 0.29887 0.0
H883 H 0.77871 0.20983 0.28765 0.0
H884 H 0.77258 0.22371 0.30992 0.0
H885 H 0.78715 0.20031 0.31207 0.0
H886 H 0.74113 0.17092 0.32552 0.0
H887 H 0.76613 0.17937 0.33339 0.0
H888 H 0.74347 0.1945 0.33829 0.0
H889 H 0.66309 0.20885 0.22731 0.0
H890 H 0.64068 0.262 0.26011 0.0
H891 H 0.66833 0.25893 0.28443 0.0
H892 H 0.67232 0.18198 0.26742 0.0
H893 H 0.68082 0.17438 0.24236 0.0
H894 H 0.69602 0.16942 0.26496 0.0
H895 H 0.71092 0.22043 0.23011 0.0
H896 H 0.72501 0.19825 0.23608 0.0
H897 H 0.70161 0.196 0.2215 0.0
H898 H 0.74895 0.13988 0.24535 0.0
C899 C 0.7367 0.16681 0.2596 0.0
C900 C 0.40704 1.0026 0.98443 0.0
C901 C 0.40247 0.98548 0.97209 0.0
C902 C 0.41549 0.98089 0.95542 0.0
C903 C 0.43695 0.01019 0.9635 0.0
C904 C 0.42427 0.01464 0.9799 0.0
C905 C 0.43125 0.03331 0.99151 0.0
H906 H 0.49878 0.11147 1.00254 0.0
C907 C 0.45342 0.0258 0.96294 0.0
C908 C 0.45018 0.03937 0.97936 0.0
H909 H 0.44605 0.09725 0.04024 0.0
H910 H 0.4384 0.06804 0.01895 0.0
H911 H 0.47699 0.10318 0.95976 0.0
H912 H 0.51455 0.06446 0.99784 0.0
H913 H 0.52224 0.06064 0.97228 0.0
H914 H 0.52477 0.08573 0.98365 0.0
H915 H 0.50425 0.10652 0.9617 0.0
H916 H 0.49303 0.08912 0.94333 0.0
C917 C 0.41414 0.04975 0.9901 0.0
C918 C 0.4367 0.02663 0.01368 0.0
C919 C 0.50754 0.02341 0.90672 0.0
C920 C 0.52437 0.03607 0.90193 0.0
C921 C 0.52861 0.05305 0.91465 0.0
C922 C 0.5163 0.05742 0.93173 0.0
C923 C 0.49947 0.04472 0.93623 0.0
C924 C 0.49533 0.02804 0.92382 0.0
C925 C 0.47667 0.01639 0.93081 0.0
C926 C 0.47028 0.02883 0.94945 0.0
C927 C 0.48372 0.04538 0.95256 0.0
C928 C 0.46041 0.01735 0.91349 0.0
C929 C 0.48345 0.9944 0.93674 0.0
C930 C 0.4857 0.10195 0.00633 0.0
C931 C 0.473 0.10675 0.02312 0.0
C932 C 0.45595 0.09409 0.02727 0.0
C933 C 0.45159 0.07703 0.01494 0.0
C934 C 0.46437 0.07249 0.99818 0.0
C935 C 0.4811 0.08485 0.99412 0.0
C936 C 0.49286 0.07777 0.97555 0.0
C937 C 0.48049 0.05908 0.96922 0.0
C938 C 0.46382 0.05607 0.98253 0.0
C939 C 0.49196 0.09499 0.95918 0.0
C940 C 0.51484 0.07194 0.98249 0.0
H941 H 0.44192 0.98877 0.93819 0.0
H942 H 0.39729 0.00676 0.99722 0.0
H943 H 0.44358 0.01101 0.01382 0.0
H944 H 0.44839 0.03653 0.0209 0.0
H945 H 0.42283 0.02625 0.02357 0.0
H946 H 0.40648 0.04927 0.97484 0.0
H947 H 0.40217 0.0472 1.00196 0.0
H948 H 0.42001 0.06557 0.99148 0.0
H949 H 0.5037 0.01039 0.89716 0.0
H950 H 0.54161 0.0629 0.91148 0.0
H951 H 0.52037 0.07055 0.94077 0.0
H952 H 0.46077 0.03251 0.90565 0.0
H953 H 0.46327 0.00538 0.90171 0.0
H954 H 0.44454 0.01581 0.91919 0.0
H955 H 0.49894 0.99453 0.94391 0.0
H956 H 0.47337 0.98727 0.94833 0.0
H957 H 0.4842 0.98431 0.92303 0.0
H958 H 0.41257 0.96764 0.94583 0.0
C959 C 0.43265 0.99312 0.95107 0.0
Li960 Li 0.27445 0.89171 1.00175 0.0
Li961 Li 0.25751 0.86662 0.02352 0.0
Li962 Li 0.25292 0.86588 0.98604 0.0
Li963 Li 0.23581 0.89273 0.00687 0.0
C964 C 0.29912 0.85936 0.99947 0.0
N965 N 0.34109 0.8558 0.99437 0.0
C966 C 0.31162 0.85412 0.01611 0.0
C967 C 0.30799 0.86261 0.98022 0.0
C968 C 0.3328 0.85242 0.01322 0.0
C969 C 0.32922 0.86081 0.97796 0.0
C970 C 0.26387 0.90097 0.04704 0.0
C971 C 0.25654 0.91521 0.0804 0.0
N972 N 0.27499 0.90833 0.08729 0.0
C973 C 0.28272 0.89399 0.05448 0.0
C974 C 0.25061 0.9116 0.06012 0.0
C975 C 0.28808 0.89787 0.07486 0.0
C976 C 0.29676 0.92332 0.98236 0.0
N977 N 0.298 0.90907 0.99755 0.0
C978 C 0.3323 0.91966 0.00534 0.0
C979 C 0.31526 0.90724 0.00914 0.0
C980 C 0.33157 0.93433 0.98957 0.0
C981 C 0.31341 0.93612 0.97807 0.0
H982 H 0.2828 0.92479 0.97355 0.0
H983 H 0.31603 0.896 0.02122 0.0
C984 C 0.26979 0.83113 0.04474 0.0
N985 N 0.25994 0.84933 0.0473 0.0
C986 C 0.27314 0.81815 0.06146 0.0
C987 C 0.25531 0.8424 0.08306 0.0
C988 C 0.25227 0.85488 0.06591 0.0
C989 C 0.26611 0.82386 0.08103 0.0
H990 H 0.27536 0.82683 0.02972 0.0
H991 H 0.24392 0.86907 0.06756 0.0
C992 C 0.24774 0.8977 0.96082 0.0
N993 N 0.23855 0.90021 0.9195 0.0
C994 C 0.22783 0.90251 0.95447 0.0
C995 C 0.26304 0.89446 0.94615 0.0
C996 C 0.22347 0.90364 0.93351 0.0
C997 C 0.25807 0.8957 0.92534 0.0
C998 C 0.2162 0.85613 0.02037 0.0
C999 C 0.20615 0.83761 0.01651 0.0
C1000 C 0.21064 0.86788 0.0374 0.0
C1001 C 0.19062 0.83115 0.0298 0.0
C1002 C 0.19505 0.8609 0.05034 0.0
N1003 N 0.18544 0.84283 0.0463 0.0
C1004 C 0.26431 0.83455 0.95822 0.0
C1005 C 0.23172 0.84918 0.95163 0.0
C1006 C 0.26225 0.82148 0.94138 0.0
N1007 N 0.24928 0.84823 0.96286 0.0
C1008 C 0.22907 0.8365 0.93454 0.0
C1009 C 0.2445 0.82241 0.92914 0.0
H1010 H 0.27784 0.8336 0.96773 0.0
H1011 H 0.21975 0.85983 0.95594 0.0
C1012 C 0.21497 0.92914 0.01739 0.0
N1013 N 0.21238 0.9101 0.00931 0.0
C1014 C 0.19818 0.94223 0.0198 0.0
C1015 C 0.17647 0.91618 0.00481 0.0
C1016 C 0.19363 0.90344 1.003 0.0
C1017 C 0.17864 0.9358 0.01343 0.0
H1018 H 0.23012 0.93414 0.02195 0.0
H1019 H 0.19205 0.88827 0.9965 0.0
O1020 O 0.27834 0.86123 1.002 0.0
O1021 O 0.25824 0.89707 0.02719 0.0
O1022 O 0.25224 0.89627 0.98128 0.0
O1023 O 0.23149 0.86259 0.00754 0.0
H1024 H 0.30514 0.85165 0.03116 0.0
H1025 H 0.29858 0.86654 0.96716 0.0
H1026 H 0.34265 0.84849 0.02598 0.0
H1027 H 0.33627 0.86339 0.96316 0.0
H1028 H 0.24642 0.92341 0.09069 0.0
H1029 H 0.29283 0.88518 0.0448 0.0
H1030 H 0.23582 0.91685 0.05477 0.0
H1031 H 0.30258 0.89243 0.08083 0.0
H1032 H 0.34601 0.91754 0.01447 0.0
H1033 H 0.31198 0.94744 0.966 0.0
H1034 H 0.28158 0.80403 0.05916 0.0
H1035 H 0.24921 0.8472 0.09774 0.0
H1036 H 0.21583 0.9052 0.96558 0.0
H1037 H 0.27858 0.89102 0.95077 0.0
H1038 H 0.2081 0.90722 0.92839 0.0
H1039 H 0.26974 0.89311 0.91383 0.0
H1040 H 0.21032 0.82834 1.00337 0.0
H1041 H 0.21835 0.8822 0.04068 0.0
H1042 H 0.1827 0.81684 0.027 0.0
H1043 H 0.19062 0.86983 0.0636 0.0
H1044 H 0.27433 0.81053 0.93821 0.0
H1045 H 0.21516 0.83787 0.92557 0.0
H1046 H 0.20051 0.95736 0.02626 0.0
H1047 H 0.16163 0.91066 0.99978 0.0
Li1048 Li 0.11655 0.50648 0.27313 0.0
Li1049 Li 0.14222 0.48391 0.257 0.0
Li1050 Li 0.1418 0.52223 0.25011 0.0
Li1051 Li 0.11592 0.49929 0.23486 0.0
C1052 C 0.15127 0.51109 0.29641 0.0
N1053 N 0.15952 0.51885 0.33727 0.0
C1054 C 0.15766 0.49522 0.30934 0.0
C1055 C 0.14944 0.53097 0.3042 0.0
C1056 C 0.16166 0.49944 0.32997 0.0
C1057 C 0.15357 0.53457 0.32491 0.0
C1058 C 0.10809 0.45972 0.26171 0.0
C1059 C 0.10681 0.42479 0.24957 0.0
N1060 N 0.10082 0.41852 0.26855 0.0
C1061 C 0.10167 0.45296 0.28102 0.0
C1062 C 0.11045 0.44556 0.24579 0.0
C1063 C 0.09816 0.43206 0.2842 0.0
C1064 C 0.08413 0.52466 0.29545 0.0
N1065 N 0.09991 0.5111 0.29696 0.0
C1066 C 0.09166 0.50459 0.33214 0.0
C1067 C 0.10372 0.50096 0.3148 0.0
C1068 C 0.07546 0.51877 0.33113 0.0
C1069 C 0.07174 0.52882 0.31243 0.0
H1070 H 0.08108 0.53219 0.28101 0.0
H1071 H 0.11606 0.48994 0.31556 0.0
C1072 C 0.1757 0.45828 0.24743 0.0
N1073 N 0.15966 0.46049 0.26058 0.0
C1074 C 0.18889 0.44148 0.24912 0.0
C1075 C 0.16916 0.42971 0.27819 0.0
C1076 C 0.15631 0.44671 0.27589 0.0
C1077 C 0.18569 0.42687 0.26464 0.0
H1078 H 0.17837 0.46965 0.23568 0.0
H1079 H 0.14376 0.44898 0.28645 0.0
C1080 C 0.10736 0.54597 0.24703 0.0
N1081 N 0.09964 0.58727 0.2414 0.0
C1082 C 0.09967 0.55306 0.22831 0.0
C1083 C 0.11078 0.55986 0.26299 0.0
C1084 C 0.09595 0.574 0.22573 0.0
C1085 C 0.10688 0.58068 0.25982 0.0
C1086 C 0.14984 0.49447 0.21057 0.0
C1087 C 0.15609 0.50981 0.19696 0.0
C1088 C 0.14749 0.47438 0.20348 0.0
C1089 C 0.15942 0.50488 0.17636 0.0
C1090 C 0.15096 0.47006 0.18278 0.0
N1091 N 0.15677 0.48528 0.16975 0.0
C1092 C 0.17473 0.54955 0.25795 0.0
C1093 C 0.15421 0.55855 0.22934 0.0
C1094 C 0.18735 0.56658 0.25471 0.0
N1095 N 0.15847 0.54592 0.24538 0.0
C1096 C 0.16642 0.57572 0.22552 0.0
C1097 C 0.1833 0.57992 0.23826 0.0
H1098 H 0.17805 0.53909 0.27037 0.0
H1099 H 0.14145 0.55517 0.21932 0.0
C1100 C 0.08344 0.48073 0.2127 0.0
N1101 N 0.09882 0.49475 0.21139 0.0
C1102 C 0.07094 0.47673 0.19575 0.0
C1103 C 0.08998 0.50204 0.17652 0.0
C1104 C 0.10213 0.50551 0.19383 0.0
C1105 C 0.07417 0.4874 0.1773 0.0
H1106 H 0.0808 0.47268 0.22695 0.0
H1107 H 0.11418 0.51686 0.19325 0.0
O1108 O 0.14714 0.5072 0.27619 0.0
O1109 O 0.11174 0.48013 0.25836 0.0
O1110 O 0.11129 0.52553 0.24976 0.0
O1111 O 0.14631 0.49906 0.23076 0.0
H1112 H 0.15939 0.4798 0.30356 0.0
H1113 H 0.145 0.54351 0.29435 0.0
H1114 H 0.16647 0.48727 0.34017 0.0
H1115 H 0.15211 0.54987 0.33115 0.0
H1116 H 0.10868 0.41367 0.2374 0.0
H1117 H 0.09949 0.46369 0.29344 0.0
H1118 H 0.11491 0.45055 0.23065 0.0
H1119 H 0.09333 0.42661 0.2991 0.0
H1120 H 0.09514 0.49655 0.34626 0.0
H1121 H 0.05918 0.53959 0.31084 0.0
H1122 H 0.20167 0.44015 0.23858 0.0
H1123 H 0.16607 0.41881 0.29033 0.0
H1124 H 0.09667 0.54253 0.21587 0.0
H1125 H 0.11627 0.55461 0.2777 0.0
H1126 H 0.09013 0.5797 0.21127 0.0
H1127 H 0.10956 0.5916 0.27203 0.0
H1128 H 0.15826 0.52537 0.20218 0.0
H1129 H 0.14318 0.46223 0.21386 0.0
H1130 H 0.16411 0.51664 0.16564 0.0
H1131 H 0.1491 0.45459 0.17709 0.0
H1132 H 0.20038 0.56903 0.26472 0.0
H1133 H 0.1626 0.58565 0.21276 0.0
H1134 H 0.0587 0.46559 0.19718 0.0
H1135 H 0.09312 0.51054 0.1626 0.0
Li1136 Li 0.73551 0.61604 1.00127 0.0
Li1137 Li 0.75191 0.64212 0.02316 0.0
Li1138 Li 0.75739 0.64172 0.98464 0.0
Li1139 Li 0.77399 0.61622 0.0071 0.0
C1140 C 0.7114 0.65006 0.99692 0.0
N1141 N 0.67027 0.65722 0.98948 0.0
C1142 C 0.69857 0.65673 0.01276 0.0
C1143 C 0.70337 0.64738 0.97723 0.0
C1144 C 0.6778 0.66017 0.00871 0.0
C1145 C 0.68252 0.65098 0.97379 0.0
C1146 C 0.74896 0.60835 0.04771 0.0
C1147 C 0.76275 0.60798 0.08205 0.0
N1148 N 0.74423 0.60172 0.08933 0.0
C1149 C 0.73013 0.60168 0.0555 0.0
C1150 C 0.76547 0.61131 0.06106 0.0
C1151 C 0.72802 0.5985 0.07659 0.0
C1152 C 0.71319 0.58279 0.98463 0.0
N1153 N 0.71191 0.59885 0.99787 0.0
C1154 C 0.67753 0.58954 0.00675 0.0
C1155 C 0.69456 0.60238 0.0089 0.0
C1156 C 0.67837 0.57284 0.99315 0.0
C1157 C 0.69651 0.5696 0.98194 0.0
H1158 H 0.72727 0.58003 0.97634 0.0
H1159 H 0.69401 0.61498 0.01963 0.0
C1160 C 0.7619 0.67546 0.04883 0.0
N1161 N 0.74866 0.65951 0.04662 0.0
C1162 C 0.76027 0.68866 0.06562 0.0
C1163 C 0.7311 0.66909 0.07741 0.0
C1164 C 0.73335 0.65621 0.06041 0.0
C1165 C 0.74471 0.68556 0.08022 0.0
H1166 H 0.77365 0.67807 0.03744 0.0
H1167 H 0.72273 0.6437 0.05815 0.0
C1168 C 0.76087 0.60734 0.96088 0.0
N1169 N 0.76622 0.59965 0.91953 0.0
C1170 C 0.77993 0.60089 0.95349 0.0
C1171 C 0.74444 0.60953 0.94729 0.0
C1172 C 0.78236 0.59716 0.93252 0.0
C1173 C 0.74747 0.60567 0.92643 0.0
C1174 C 0.79792 0.65053 0.01035 0.0
C1175 C 0.81045 0.65677 0.99411 0.0
C1176 C 0.80629 0.64853 0.02999 0.0
C1177 C 0.83126 0.66045 0.99769 0.0
C1178 C 0.82717 0.65234 0.03296 0.0
N1179 N 0.83913 0.65815 0.01688 0.0
C1180 C 0.74729 0.67488 0.95885 0.0
C1181 C 0.77547 0.65534 0.94686 0.0
C1182 C 0.74881 0.68806 0.94204 0.0
N1183 N 0.76042 0.65881 0.96089 0.0
C1184 C 0.77761 0.6682 0.92983 0.0
C1185 C 0.76414 0.68483 0.92724 0.0
H1186 H 0.73575 0.67763 0.97043 0.0
H1187 H 0.78603 0.64276 0.94899 0.0
C1188 C 0.79619 0.58364 0.02498 0.0
N1189 N 0.79767 0.59926 0.01124 0.0
C1190 C 0.81306 0.57106 0.02897 0.0
C1191 C 0.83262 0.59045 1.00418 0.0
C1192 C 0.81536 0.6027 1.00071 0.0
C1193 C 0.83165 0.57443 0.01858 0.0
H1194 H 0.78185 0.58089 0.03282 0.0
H1195 H 0.8161 0.61491 0.98955 0.0
O1196 O 0.73175 0.64645 1.00064 0.0
O1197 O 0.75126 0.61171 0.02711 0.0
O1198 O 0.75825 0.61119 0.98136 0.0
O1199 O 0.77753 0.6467 0.00708 0.0
H1200 H 0.70453 0.65912 0.02803 0.0
H1201 H 0.71314 0.6427 0.9647 0.0
H1202 H 0.66767 0.6652 0.02086 0.0
H1203 H 0.6761 0.64887 0.95863 0.0
H1204 H 0.77539 0.61031 0.09255 0.0
H1205 H 0.71726 0.59905 0.04541 0.0
H1206 H 0.78026 0.616 0.05527 0.0
H1207 H 0.71349 0.59346 0.08283 0.0
H1208 H 0.66384 0.59271 0.0156 0.0
H1209 H 0.69798 0.55672 0.97156 0.0
H1210 H 0.77086 0.70139 0.06695 0.0
H1211 H 0.71893 0.66606 0.08832 0.0
H1212 H 0.79275 0.59886 0.9638 0.0
H1213 H 0.72947 0.61403 0.95278 0.0
H1214 H 0.79707 0.5923 0.92658 0.0
H1215 H 0.7349 0.60741 0.91573 0.0
H1216 H 0.80422 0.65864 0.97887 0.0
H1217 H 0.79676 0.64421 0.04282 0.0
H1218 H 0.84115 0.66514 0.98522 0.0
H1219 H 0.83385 0.65075 0.04807 0.0
H1220 H 0.73834 0.70091 0.94087 0.0
H1221 H 0.78961 0.66508 0.91877 0.0
H1222 H 0.81148 0.55865 0.0399 0.0
H1223 H 0.84664 0.59368 0.99588 0.0
Li1224 Li 0.86718 0.02321 0.25629 0.0
Li1225 Li 0.89298 1.00119 0.27298 0.0
Li1226 Li 0.893 0.00666 0.23444 0.0
Li1227 Li 0.86714 0.98466 0.25111 0.0
C1228 C 0.90132 0.04737 0.25911 0.0
N1229 N 0.90858 0.08891 0.26349 0.0
C1230 C 0.90782 0.05526 0.27796 0.0
C1231 C 0.89887 0.06057 0.2424 0.0
C1232 C 0.91132 0.07631 0.27989 0.0
C1233 C 0.90251 0.08153 0.24494 0.0
C1234 C 0.85871 0.9974 0.29698 0.0
C1235 C 0.85717 0.9745 0.32601 0.0
N1236 N 0.85113 0.99038 0.3381 0.0
C1237 C 0.85223 0.01343 0.30964 0.0
C1238 C 0.86098 0.97772 0.30516 0.0
C1239 C 0.84857 0.0096 0.33041 0.0
C1240 C 0.83398 0.04906 0.24619 0.0
N1241 N 0.84999 0.04685 0.25936 0.0
C1242 C 0.84057 0.07772 0.27686 0.0
C1243 C 0.85341 0.0607 0.27459 0.0
C1244 C 0.824 0.0805 0.26334 0.0
C1245 C 0.82081 0.06588 0.24783 0.0
H1246 H 0.83126 0.03763 0.2345 0.0
H1247 H 0.86595 0.05843 0.28517 0.0
C1248 C 0.92618 0.98456 0.29538 0.0
N1249 N 0.91011 0.9978 0.29663 0.0
C1250 C 0.93933 0.98183 0.31209 0.0
C1251 C 0.91938 0.00664 0.33104 0.0
C1252 C 0.90658 0.00884 0.31398 0.0
C1253 C 0.93605 0.99301 0.33023 0.0
H1254 H 0.92897 0.97629 0.28129 0.0
H1255 H 0.894 0.0196 0.31451 0.0
C1256 C 0.8588 0.01037 0.21038 0.0
N1257 N 0.85137 0.01715 0.16919 0.0
C1258 C 0.8524 0.99426 0.19778 0.0
C1259 C 0.86108 0.03001 0.20209 0.0
C1260 C 0.84881 0.99797 0.17698 0.0
C1261 C 0.85735 0.03311 0.18122 0.0
C1262 C 0.90132 0.96047 0.24835 0.0
C1263 C 0.90777 0.95254 0.2295 0.0
C1264 C 0.89897 0.9473 0.26511 0.0
C1265 C 0.91131 0.9315 0.22761 0.0
C1266 C 0.90265 0.92635 0.26261 0.0
N1267 N 0.90866 0.91894 0.24406 0.0
C1268 C 0.92621 0.02336 0.21211 0.0
C1269 C 0.90675 0.99901 0.19347 0.0
C1270 C 0.93942 0.0261 0.19545 0.0
N1271 N 0.91019 0.01007 0.21082 0.0
C1272 C 0.91961 1.00121 0.17646 0.0
C1273 C 0.93626 0.01488 0.17732 0.0
H1274 H 0.92893 0.03166 0.2262 0.0
H1275 H 0.89419 0.98822 0.1929 0.0
C1276 C 0.83379 0.95899 0.2612 0.0
N1277 N 0.84989 0.96104 0.24809 0.0
C1278 C 0.82058 0.9422 0.25964 0.0
C1279 C 0.84044 0.93007 0.2308 0.0
C1280 C 0.85333 0.94706 0.23299 0.0
C1281 C 0.82381 0.92745 0.24426 0.0
H1282 H 0.83106 0.97053 0.27278 0.0
H1283 H 0.86593 0.94921 0.22245 0.0
O1284 O 0.89766 0.02681 0.25698 0.0
O1285 O 0.86251 1.0009 0.27662 0.0
O1286 O 0.86252 0.00699 0.23077 0.0
O1287 O 0.89763 0.98102 0.25044 0.0
H1288 H 0.91005 0.04528 0.29099 0.0
H1289 H 0.89435 0.05469 0.2276 0.0
H1290 H 0.91621 0.08263 0.29443 0.0
H1291 H 0.90058 0.09191 0.23215 0.0
H1292 H 0.85895 0.95936 0.33255 0.0
H1293 H 0.85015 0.02869 0.30355 0.0
H1294 H 0.86547 0.96504 0.29551 0.0
H1295 H 0.8437 0.02191 0.34041 0.0
H1296 H 0.84366 0.08863 0.28899 0.0
H1297 H 0.80801 0.06719 0.23732 0.0
H1298 H 0.9522 0.97144 0.31063 0.0
H1299 H 0.9162 0.0155 0.34473 0.0
H1300 H 0.85031 0.97903 0.20395 0.0
H1301 H 0.86552 0.04275 0.21169 0.0
H1302 H 0.84399 0.9856 0.16703 0.0
H1303 H 0.85914 0.04821 0.1746 0.0
H1304 H 0.90993 0.9625 0.21644 0.0
H1305 H 0.89449 0.95321 0.27991 0.0
H1306 H 0.91617 0.92515 0.21307 0.0
H1307 H 0.90078 0.91599 0.27543 0.0
H1308 H 0.95227 0.03653 0.19694 0.0
H1309 H 0.91651 0.99232 0.16277 0.0
H1310 H 0.80773 0.94101 0.2701 0.0
H1311 H 0.84355 0.91904 0.21877 0.0
Li1312 Li 0.25212 0.14199 0.52342 0.0
Li1313 Li 0.23502 0.11623 0.50255 0.0
Li1314 Li 0.27367 0.11541 0.50721 0.0
Li1315 Li 0.25627 0.1416 0.48589 0.0
C1316 C 0.24592 0.10829 0.54791 0.0
N1317 N 0.23485 0.10193 0.58835 0.0
C1318 C 0.2272 0.11568 0.55527 0.0
C1319 C 0.2591 0.09779 0.56119 0.0
C1320 C 0.22185 0.11229 0.57574 0.0
C1321 C 0.2532 0.09468 0.58156 0.0
C1322 C 0.21024 0.14848 0.49973 0.0
C1323 C 0.17981 0.14618 0.47878 0.0
N1324 N 0.16821 0.15194 0.49514 0.0
C1325 C 0.19802 0.1545 0.51631 0.0
C1326 C 0.20107 0.14441 0.48078 0.0
C1327 C 0.17681 0.15612 0.51368 0.0
C1328 C 0.24083 0.17846 0.54333 0.0
N1329 N 0.25011 0.16008 0.54661 0.0
C1330 C 0.25578 0.16862 0.58186 0.0
C1331 C 0.25788 0.15514 0.56535 0.0
C1332 C 0.24584 0.18753 0.57904 0.0
C1333 C 0.23843 0.19243 0.5594 0.0
H1334 H 0.23514 0.18222 0.5282 0.0
H1335 H 0.26576 0.14076 0.56756 0.0
C1336 C 0.21272 0.08359 0.48491 0.0
N1337 N 0.21154 0.0986 0.49936 0.0
C1338 C 0.19636 0.07005 0.48193 0.0
C1339 C 0.17779 0.08756 0.50876 0.0
C1340 C 0.19451 0.10072 0.51125 0.0
C1341 C 0.17859 0.07188 0.494 0.0
H1342 H 0.22648 0.08197 0.47581 0.0
H1343 H 0.19376 0.11262 0.52267 0.0
C1344 C 0.29344 0.15221 0.51949 0.0
N1345 N 0.32464 0.16591 0.54468 0.0
C1346 C 0.30381 0.17037 0.51485 0.0
C1347 C 0.2989 0.14102 0.53694 0.0
C1348 C 0.31956 0.17704 0.52777 0.0
C1349 C 0.31472 0.14819 0.54948 0.0
C1350 C 0.26142 0.10934 0.46146 0.0
C1351 C 0.2814 0.10479 0.45513 0.0
C1352 C 0.246 0.11201 0.4468 0.0
C1353 C 0.28569 0.10333 0.43418 0.0
C1354 C 0.25091 0.11046 0.426 0.0
N1355 N 0.27049 0.10621 0.42017 0.0
C1356 C 0.29459 0.07949 0.519 0.0
C1357 C 0.31598 0.10477 0.50398 0.0
C1358 C 0.31149 0.06682 0.52261 0.0
N1359 N 0.29717 0.09819 0.51017 0.0
C1360 C 0.33328 0.09245 0.507 0.0
C1361 C 0.33116 0.07332 0.51668 0.0
H1362 H 0.2794 0.07452 0.52345 0.0
H1363 H 0.31756 0.11968 0.49687 0.0
C1364 C 0.24456 0.17259 0.45792 0.0
N1365 N 0.25964 0.1589 0.46241 0.0
C1366 C 0.24667 0.18597 0.44134 0.0
C1367 C 0.27985 0.17105 0.43426 0.0
C1368 C 0.27718 0.15807 0.45114 0.0
C1369 C 0.26449 0.18532 0.42926 0.0
H1370 H 0.23099 0.17334 0.46739 0.0
H1371 H 0.28923 0.1475 0.45539 0.0
O1372 O 0.25154 0.1117 0.52797 0.0
O1373 O 0.23104 0.14668 0.50201 0.0
O1374 O 0.27794 0.14555 0.50702 0.0
O1375 O 0.25698 0.11108 0.4819 0.0
H1376 H 0.21718 0.12443 0.54544 0.0
H1377 H 0.27382 0.09227 0.55592 0.0
H1378 H 0.20745 0.11803 0.58164 0.0
H1379 H 0.26325 0.08659 0.59199 0.0
H1380 H 0.17252 0.14297 0.46422 0.0
H1381 H 0.20476 0.15766 0.53112 0.0
H1382 H 0.21027 0.13989 0.46776 0.0
H1383 H 0.16717 0.16065 0.52641 0.0
H1384 H 0.26212 0.16439 0.59662 0.0
H1385 H 0.2306 0.20679 0.55652 0.0
H1386 H 0.19781 0.05801 0.47058 0.0
H1387 H 0.16433 0.08976 0.51824 0.0
H1388 H 0.29973 0.1792 0.50139 0.0
H1389 H 0.29096 0.12698 0.54081 0.0
H1390 H 0.32774 0.19107 0.52437 0.0
H1391 H 0.31909 0.1397 0.56305 0.0
H1392 H 0.29349 0.10256 0.46625 0.0
H1393 H 0.23042 0.11524 0.45143 0.0
H1394 H 0.30111 0.09995 0.42906 0.0
H1395 H 0.23915 0.11261 0.41449 0.0
H1396 H 0.30921 0.05206 0.52987 0.0
H1397 H 0.3482 0.09803 0.50228 0.0
H1398 H 0.23442 0.19669 0.43798 0.0
H1399 H 0.29397 0.17027 0.42554 0.0
Li1400 Li 0.39234 0.50188 0.77373 0.0
Li1401 Li 0.36662 0.52401 0.75706 0.0
Li1402 Li 0.36641 0.48547 0.75188 0.0
Li1403 Li 0.39233 0.50735 0.7352 0.0
C1404 C 0.35798 0.49817 0.79772 0.0
N1405 N 0.35019 0.49107 0.8388 0.0
C1406 C 0.35153 0.5142 0.81041 0.0
C1407 C 0.36011 0.47846 0.80586 0.0
C1408 C 0.34777 0.51033 0.83115 0.0
C1409 C 0.3562 0.4752 0.82667 0.0
C1410 C 0.40086 0.54801 0.75999 0.0
C1411 C 0.40218 0.58225 0.74604 0.0
N1412 N 0.40826 0.58949 0.76463 0.0
C1413 C 0.40737 0.55576 0.77889 0.0
C1414 C 0.39847 0.56132 0.74336 0.0
C1415 C 0.41094 0.57678 0.78096 0.0
C1416 C 0.4256 0.48521 0.79599 0.0
N1417 N 0.40949 0.49838 0.79734 0.0
C1418 C 0.41874 0.50701 0.8318 0.0
C1419 C 0.40592 0.50927 0.81477 0.0
C1420 C 0.43547 0.49345 0.83088 0.0
C1421 C 0.43878 0.48241 0.81266 0.0
H1422 H 0.42842 0.47705 0.78183 0.0
H1423 H 0.3933 0.51999 0.81538 0.0
C1424 C 0.33358 0.55005 0.74693 0.0
N1425 N 0.34955 0.54774 0.76014 0.0
C1426 C 0.3205 0.56694 0.74855 0.0
C1427 C 0.34026 0.57865 0.77763 0.0
C1428 C 0.353 0.56155 0.77539 0.0
C1429 C 0.32375 0.58154 0.76407 0.0
H1430 H 0.33083 0.53864 0.73523 0.0
H1431 H 0.36551 0.5592 0.786 0.0
C1432 C 0.40056 0.46113 0.74922 0.0
N1433 N 0.40793 0.41958 0.74518 0.0
C1434 C 0.40703 0.4531 0.73042 0.0
C1435 C 0.39821 0.44807 0.76605 0.0
C1436 C 0.41058 0.43204 0.72866 0.0
C1437 C 0.4019 0.42711 0.76368 0.0
C1438 C 0.35819 0.51122 0.71116 0.0
C1439 C 0.35165 0.49516 0.69856 0.0
C1440 C 0.36067 0.53082 0.70285 0.0
C1441 C 0.34814 0.49889 0.67774 0.0
C1442 C 0.35701 0.53394 0.68197 0.0
N1443 N 0.35091 0.51803 0.66994 0.0
C1444 C 0.33299 0.45985 0.76189 0.0
C1445 C 0.35258 0.44798 0.73368 0.0
C1446 C 0.31977 0.44307 0.76025 0.0
N1447 N 0.34911 0.46192 0.74882 0.0
C1448 C 0.33968 0.43101 0.73142 0.0
C1449 C 0.32302 0.42837 0.74483 0.0
H1450 H 0.33024 0.47136 0.77349 0.0
H1451 H 0.3652 0.45015 0.72318 0.0
C1452 C 0.4255 0.52393 0.71272 0.0
N1453 N 0.40947 0.51064 0.71155 0.0
C1454 C 0.43868 0.52655 0.69602 0.0
C1455 C 0.4188 0.50157 0.67722 0.0
C1456 C 0.40598 0.49947 0.69427 0.0
C1457 C 0.43545 0.51524 0.67796 0.0
H1458 H 0.42825 0.53231 0.72675 0.0
H1459 H 0.39342 0.48869 0.6938 0.0
O1460 O 0.36187 0.50172 0.77739 0.0
O1461 O 0.39713 0.52748 0.75773 0.0
O1462 O 0.39686 0.48171 0.75118 0.0
O1463 O 0.36185 0.50782 0.73155 0.0
H1464 H 0.34956 0.52949 0.80436 0.0
H1465 H 0.36457 0.46578 0.79619 0.0
H1466 H 0.34291 0.52263 0.84117 0.0
H1467 H 0.35787 0.46003 0.83318 0.0
H1468 H 0.4003 0.59273 0.73331 0.0
H1469 H 0.40954 0.54569 0.79186 0.0
H1470 H 0.39394 0.55555 0.72851 0.0
H1471 H 0.41584 0.58299 0.79555 0.0
H1472 H 0.41554 0.51576 0.84555 0.0
H1473 H 0.45169 0.47208 0.81112 0.0
H1474 H 0.30774 0.56832 0.73801 0.0
H1475 H 0.3434 0.58955 0.78977 0.0
H1476 H 0.40918 0.46297 0.71729 0.0
H1477 H 0.39374 0.45407 0.78082 0.0
H1478 H 0.41544 0.42561 0.71415 0.0
H1479 H 0.40004 0.41683 0.77657 0.0
H1480 H 0.3494 0.47996 0.70473 0.0
H1481 H 0.36523 0.54353 0.71244 0.0
H1482 H 0.34321 0.48656 0.66779 0.0
H1483 H 0.35897 0.54902 0.67534 0.0
H1484 H 0.3069 0.44186 0.77068 0.0
H1485 H 0.34281 0.42002 0.71936 0.0
H1486 H 0.45153 0.53698 0.69742 0.0
H1487 H 0.41565 0.49261 0.66359 0.0
Li1488 Li 0.77379 0.39209 0.50027 0.0
Li1489 Li 0.75815 0.36663 0.52341 0.0
Li1490 Li 0.75175 0.36561 0.48501 0.0
Li1491 Li 0.73542 0.39169 0.50693 0.0
C1492 C 0.79804 0.358 0.49628 0.0
N1493 N 0.83895 0.35074 0.48775 0.0
C1494 C 0.81143 0.35197 0.51191 0.0
C1495 C 0.80541 0.35996 0.47625 0.0
C1496 C 0.83207 0.34847 0.50731 0.0
C1497 C 0.82615 0.35633 0.47225 0.0
C1498 C 0.76096 0.40153 0.54663 0.0
C1499 C 0.74752 0.40314 0.58107 0.0
N1500 N 0.76598 0.41012 0.58784 0.0
C1501 C 0.77971 0.40897 0.55388 0.0
C1502 C 0.74466 0.39881 0.56028 0.0
C1503 C 0.78198 0.41313 0.57479 0.0
C1504 C 0.79593 0.42453 0.48175 0.0
N1505 N 0.79727 0.40916 0.49577 0.0
C1506 C 0.83212 0.4181 0.50308 0.0
C1507 C 0.81484 0.40592 0.50656 0.0
C1508 C 0.83131 0.43388 0.48842 0.0
C1509 C 0.81284 0.43707 0.47775 0.0
H1510 H 0.78167 0.42714 0.47371 0.0
H1511 H 0.81543 0.3939 0.51794 0.0
C1512 C 0.75001 0.33403 0.55106 0.0
N1513 N 0.76257 0.35028 0.54742 0.0
C1514 C 0.75313 0.32155 0.56821 0.0
C1515 C 0.78218 0.34261 0.57748 0.0
C1516 C 0.77847 0.35469 0.56018 0.0
C1517 C 0.76946 0.32572 0.58167 0.0
H1518 H 0.73772 0.33058 0.54048 0.0
H1519 H 0.78851 0.36741 0.55678 0.0
C1520 C 0.74777 0.39938 0.46018 0.0
N1521 N 0.74202 0.40615 0.41871 0.0
C1522 C 0.72864 0.40569 0.45282 0.0
C1523 C 0.76406 0.39688 0.44647 0.0
C1524 C 0.72601 0.40893 0.4318 0.0
C1525 C 0.76083 0.40027 0.42556 0.0
C1526 C 0.71199 0.35715 0.51209 0.0
C1527 C 0.69906 0.35045 0.49636 0.0
C1528 C 0.7042 0.35941 0.53194 0.0
C1529 C 0.67842 0.34656 0.50066 0.0
C1530 C 0.68348 0.35537 0.53562 0.0
N1531 N 0.67111 0.34911 0.52003 0.0
C1532 C 0.7615 0.33193 0.45962 0.0
C1533 C 0.73293 0.35114 0.44801 0.0
C1534 C 0.75983 0.31866 0.44289 0.0
N1535 N 0.74829 0.34793 0.46177 0.0
C1536 C 0.73065 0.3382 0.43107 0.0
C1537 C 0.74427 0.32173 0.42829 0.0
H1538 H 0.77328 0.32938 0.47099 0.0
H1539 H 0.72233 0.36367 0.45023 0.0
C1540 C 0.71305 0.42496 0.52349 0.0
N1541 N 0.71164 0.40861 0.51062 0.0
C1542 C 0.69631 0.43806 0.52626 0.0
C1543 C 0.67699 0.41744 0.50228 0.0
C1544 C 0.69408 0.4047 0.50005 0.0
C1545 C 0.67798 0.43444 0.5155 0.0
H1546 H 0.72729 0.42806 0.53138 0.0
H1547 H 0.69342 0.39189 0.48958 0.0
O1548 O 0.7778 0.36169 0.50055 0.0
O1549 O 0.75852 0.39718 0.52623 0.0
O1550 O 0.75058 0.39598 0.48072 0.0
O1551 O 0.73222 0.36116 0.50813 0.0
H1552 H 0.80599 0.3501 0.52745 0.0
H1553 H 0.7952 0.36408 0.46388 0.0
H1554 H 0.84262 0.34395 0.5193 0.0
H1555 H 0.83205 0.35789 0.45682 0.0
H1556 H 0.73505 0.40101 0.59181 0.0
H1557 H 0.79242 0.41141 0.54353 0.0
H1558 H 0.72992 0.39354 0.55487 0.0
H1559 H 0.79646 0.41875 0.58063 0.0
H1560 H 0.84604 0.41501 0.5116 0.0
H1561 H 0.81139 0.4493 0.4666 0.0
H1562 H 0.74314 0.3085 0.57065 0.0
H1563 H 0.79484 0.34651 0.58749 0.0
H1564 H 0.71592 0.40797 0.46319 0.0
H1565 H 0.77908 0.39253 0.45191 0.0
H1566 H 0.71124 0.41368 0.42589 0.0
H1567 H 0.7733 0.3983 0.41478 0.0
H1568 H 0.70484 0.34838 0.48097 0.0
H1569 H 0.71407 0.36408 0.54439 0.0
H1570 H 0.66821 0.34151 0.48858 0.0
H1571 H 0.67725 0.35715 0.5509 0.0
H1572 H 0.77042 0.30593 0.44159 0.0
H1573 H 0.71847 0.34119 0.42017 0.0
H1574 H 0.69788 0.45118 0.53632 0.0
H1575 H 0.66315 0.41401 0.49376 0.0
Li1576 Li 0.64184 0.98488 0.75636 0.0
Li1577 Li 0.61607 0.00734 0.77249 0.0
Li1578 Li 0.61542 1.0001 0.73422 0.0
Li1579 Li 0.64122 0.0232 0.74941 0.0
C1580 C 0.60783 0.96052 0.76107 0.0
N1581 N 0.60077 0.91927 0.76785 0.0
C1582 C 0.60141 0.95369 0.78036 0.0
C1583 C 0.61029 0.94639 0.74514 0.0
C1584 C 0.59801 0.93277 0.78351 0.0
C1585 C 0.60675 0.9256 0.74889 0.0
C1586 C 0.65076 0.01213 0.79573 0.0
C1587 C 0.65288 0.03563 0.82423 0.0
N1588 N 0.65893 0.01996 0.8366 0.0
C1589 C 0.65725 0.99632 0.80866 0.0
C1590 C 0.64879 0.032 0.80351 0.0
C1591 C 0.66121 1.00056 0.82929 0.0
C1592 C 0.67544 0.95936 0.74684 0.0
N1593 N 0.65939 0.96154 0.75998 0.0
C1594 C 0.66904 0.93086 0.7777 0.0
C1595 C 0.6561 0.9478 0.77533 0.0
C1596 C 0.68559 0.92807 0.76416 0.0
C1597 C 0.68871 0.94263 0.74859 0.0
H1598 H 0.67805 0.97071 0.73504 0.0
H1599 H 0.64353 0.95004 0.78589 0.0
C1600 C 0.58362 0.02538 0.7949 0.0
N1601 N 0.59944 0.01186 0.79635 0.0
C1602 C 0.57124 0.02947 0.8119 0.0
C1603 C 0.59125 0.00524 0.83153 0.0
C1604 C 0.6033 1.00169 0.81416 0.0
C1605 C 0.57501 0.01939 0.83058 0.0
H1606 H 0.58053 0.03294 0.78048 0.0
H1607 H 0.61567 0.9907 0.81488 0.0
C1608 C 0.64933 0.99545 0.70988 0.0
N1609 N 0.65624 0.98629 0.66905 0.0
C1610 C 0.65538 0.01084 0.69624 0.0
C1611 C 0.64716 0.97533 0.70281 0.0
C1612 C 0.6587 0.00593 0.67564 0.0
C1613 C 0.65062 0.97103 0.68211 0.0
C1614 C 0.60668 0.04676 0.74632 0.0
C1615 C 0.599 0.05378 0.72757 0.0
C1616 C 0.61002 0.0607 0.76226 0.0
C1617 C 0.59521 0.0747 0.72494 0.0
C1618 C 0.60605 0.0815 0.75904 0.0
N1619 N 0.59882 0.08802 0.74059 0.0
C1620 C 0.58293 0.98133 0.71223 0.0
C1621 C 0.60142 0.00612 0.69319 0.0
C1622 C 0.57036 0.97722 0.69536 0.0
N1623 N 0.59825 0.99541 0.7108 0.0
C1624 C 0.58919 1.00255 0.67595 0.0
C1625 C 0.57345 0.98785 0.67685 0.0
H1626 H 0.58039 0.97332 0.72652 0.0
H1627 H 0.61343 0.01752 0.69251 0.0
C1628 C 0.67402 0.05067 0.75727 0.0
N1629 N 0.6578 0.047 0.74468 0.0
C1630 C 0.68657 0.06777 0.7541 0.0
C1631 C 0.66565 0.07689 0.7249 0.0
C1632 C 0.65351 0.05965 0.72865 0.0
C1633 C 0.68249 0.08114 0.73768 0.0
H1634 H 0.67737 0.04019 0.76967 0.0
H1635 H 0.64078 0.05625 0.71862 0.0
O1636 O 0.61138 0.98094 0.75776 0.0
O1637 O 0.64665 0.00822 0.77551 0.0
O1638 O 0.64581 1.00002 0.73007 0.0
O1639 O 0.61068 0.02634 0.7491 0.0
H1640 H 0.59915 0.96439 0.79279 0.0
H1641 H 0.61475 0.95142 0.73001 0.0
H1642 H 0.59318 0.92728 0.7984 0.0
H1643 H 0.6087 0.9145 0.73671 0.0
H1644 H 0.65132 0.05093 0.83047 0.0
H1645 H 0.65909 0.98091 0.80288 0.0
H1646 H 0.64427 0.04452 0.79366 0.0
H1647 H 0.6661 0.98842 0.8395 0.0
H1648 H 0.666 0.91999 0.78988 0.0
H1649 H 0.70149 0.94132 0.73805 0.0
H1650 H 0.55866 0.0402 0.81035 0.0
H1651 H 0.59478 0.99718 0.84562 0.0
H1652 H 0.6574 0.02643 0.70144 0.0
H1653 H 0.64301 0.96314 0.71321 0.0
H1654 H 0.66324 0.01773 0.6649 0.0
H1655 H 0.6489 0.95553 0.67643 0.0
H1656 H 0.59606 0.04322 0.71515 0.0
H1657 H 0.61551 0.0555 0.77699 0.0
H1658 H 0.5894 0.08035 0.71046 0.0
H1659 H 0.60867 0.09245 0.77122 0.0
H1660 H 0.55818 0.96603 0.69688 0.0
H1661 H 0.59222 0.01103 0.66199 0.0
H1662 H 0.69957 0.07024 0.76414 0.0
H1663 H 0.66181 0.08684 0.71217 0.0
Li1664 Li 0.02342 0.25671 0.86515 0.0
Li1665 Li 1.001 0.27313 0.89079 0.0
Li1666 Li 0.00767 0.23478 0.89151 0.0
Li1667 Li 0.98501 0.25026 0.86555 0.0
C1668 C 0.04756 0.26084 0.89969 0.0
N1669 N 0.08878 0.26663 0.90782 0.0
C1670 C 0.05475 0.28007 0.90587 0.0
C1671 C 0.0613 0.24447 0.89802 0.0
C1672 C 0.07565 0.28272 0.90981 0.0
C1673 C 0.08209 0.24773 0.90209 0.0
C1674 C 0.99697 0.29651 0.85614 0.0
C1675 C 0.9742 0.32559 0.85381 0.0
N1676 N 0.99028 0.33759 0.8481 0.0
C1677 C 0.01321 0.30908 0.84999 0.0
C1678 C 0.97725 0.30477 0.85783 0.0
C1679 C 0.00954 0.32983 0.84609 0.0
C1680 C 0.04867 0.24726 0.83128 0.0
N1681 N 0.0469 0.26004 0.84767 0.0
C1682 C 0.07795 0.27725 0.83827 0.0
C1683 C 0.06105 0.27495 0.85127 0.0
C1684 C 0.08031 0.2641 0.82135 0.0
C1685 C 0.06537 0.24895 0.81795 0.0
H1686 H 0.037 0.23584 0.82843 0.0
H1687 H 0.05912 0.28526 0.86407 0.0
C1688 C 0.98309 0.29547 0.92329 0.0
N1689 N 0.99667 0.29696 0.90753 0.0
C1690 C 0.97908 0.31239 0.93581 0.0
C1691 C 1.00354 0.332 0.91607 0.0
C1692 C 0.00701 0.31471 0.90387 0.0
C1693 C 0.98931 0.33101 0.93224 0.0
H1694 H 0.97541 0.28109 0.92625 0.0
H1695 H 0.01807 0.31545 0.89157 0.0
C1696 C 0.01296 0.21056 0.85749 0.0
N1697 N 0.02299 0.17002 0.85022 0.0
C1698 C 0.99789 0.19669 0.85115 0.0
C1699 C 0.0332 0.20388 0.85976 0.0
C1700 C 1.00324 0.17624 0.84766 0.0
C1701 C 0.03795 0.18331 0.85612 0.0
C1702 C 0.96108 0.24777 0.89977 0.0
C1703 C 0.95352 0.22923 0.90743 0.0
C1704 C 0.94756 0.26401 0.89619 0.0
C1705 C 0.93248 0.2271 0.91094 0.0
C1706 C 0.92663 0.26129 0.89988 0.0
N1707 N 0.91957 0.24303 0.90709 0.0
C1708 C 0.0248 0.21246 0.92475 0.0
C1709 C 1.0002 0.19412 0.90529 0.0
C1710 C 0.02743 0.19571 0.93788 0.0
N1711 N 0.01143 0.21134 0.90878 0.0
C1712 C 1.00228 0.17705 0.91806 0.0
C1713 C 0.016 0.17771 0.93467 0.0
H1714 H 0.03322 0.22646 0.9275 0.0
H1715 H 0.98935 0.19373 0.89278 0.0
C1716 C 0.9571 0.25832 0.83305 0.0
N1717 N 0.96121 0.24554 0.84901 0.0
C1718 C 0.93991 0.25501 0.82066 0.0
C1719 C 0.93159 0.22533 0.84123 0.0
C1720 C 0.94893 0.22922 0.8532 0.0
C1721 C 0.92688 0.23829 0.82466 0.0
H1722 H 0.96731 0.27097 0.82978 0.0
H1723 H 0.95268 0.21908 0.86575 0.0
O1724 O 0.02715 0.25801 0.89565 0.0
O1725 O 1.00032 0.27618 0.86016 0.0
O1726 O 0.00795 0.23062 0.86116 0.0
O1727 O 0.98162 0.25006 0.89601 0.0
H1728 H 0.04433 0.29285 0.9075 0.0
H1729 H 0.05597 0.22938 0.89381 0.0
H1730 H 0.08143 0.29756 0.91446 0.0
H1731 H 0.09289 0.2352 0.90077 0.0
H1732 H 0.95903 0.33219 0.85517 0.0
H1733 H 0.02851 0.30294 0.84837 0.0
H1734 H 0.96442 0.29521 0.86207 0.0
H1735 H 0.02201 0.33976 0.84147 0.0
H1736 H 0.08912 0.28911 0.84152 0.0
H1737 H 0.06636 0.23873 0.80489 0.0
H1738 H 0.96828 0.31081 0.94834 0.0
H1739 H 0.01173 0.34605 0.9127 0.0
H1740 H 0.9822 0.20162 0.84904 0.0
H1741 H 0.04515 0.21448 0.86411 0.0
H1742 H 0.99169 0.16532 0.84289 0.0
H1743 H 0.05355 0.17793 0.8579 0.0
H1744 H 0.96375 0.21658 0.91056 0.0
H1745 H 0.95318 0.27859 0.89072 0.0
H1746 H 0.92642 0.21279 0.91673 0.0
H1747 H 0.91599 0.27372 0.89708 0.0
H1748 H 0.03791 0.19704 0.95069 0.0
H1749 H 0.99325 0.16347 0.91493 0.0
H1750 H 0.93708 0.2652 0.80786 0.0
H1751 H 0.92192 0.21237 0.84502 0.0
Li1752 Li 0.52339 0.75602 0.3654 0.0
Li1753 Li 0.50082 0.77249 0.39081 0.0
Li1754 Li 0.50742 0.73413 0.39165 0.0
Li1755 Li 0.48496 0.74963 0.36548 0.0
C1756 C 0.54733 0.75999 0.39999 0.0
N1757 N 0.58859 0.7654 0.4082 0.0
C1758 C 0.55467 0.77914 0.40624 0.0
C1759 C 0.56093 0.74351 0.3983 0.0
C1760 C 0.57559 0.78159 0.41022 0.0
C1761 C 0.58174 0.74657 0.40241 0.0
C1762 C 0.49681 0.79579 0.35615 0.0
C1763 C 0.47375 0.82464 0.35382 0.0
N1764 N 0.4897 0.8368 0.34809 0.0
C1765 C 0.51292 0.80852 0.34998 0.0
C1766 C 0.47702 0.80385 0.35785 0.0
C1767 C 0.50904 0.82923 0.34607 0.0
C1768 C 0.54919 0.74643 0.33199 0.0
N1769 N 0.54701 0.75939 0.34818 0.0
C1770 C 0.57797 0.77688 0.33903 0.0
C1771 C 0.56091 0.77453 0.3518 0.0
C1772 C 0.58076 0.76355 0.32233 0.0
C1773 C 0.56606 0.74816 0.31889 0.0
H1774 H 0.53771 0.73483 0.32911 0.0
H1775 H 0.55865 0.78497 0.36445 0.0
C1776 C 0.48276 0.79516 0.42304 0.0
N1777 N 0.49653 0.79639 0.40742 0.0
C1778 C 0.47888 0.81219 0.43545 0.0
C1779 C 0.50384 0.83135 0.41589 0.0
C1780 C 0.50717 0.81397 0.4038 0.0
C1781 C 0.48943 0.83064 0.43192 0.0
H1782 H 0.47484 0.78091 0.42597 0.0
H1783 H 0.51836 0.81449 0.3916 0.0
C1784 C 0.51268 0.70981 0.35766 0.0
N1785 N 0.52222 0.66913 0.35046 0.0
C1786 C 0.49747 0.69614 0.35122 0.0
C1787 C 0.53282 0.70285 0.36005 0.0
C1788 C 0.50257 0.67562 0.34777 0.0
C1789 C 0.53732 0.68222 0.35644 0.0
C1790 C 0.46082 0.747 0.39963 0.0
C1791 C 0.45337 0.72836 0.40713 0.0
C1792 C 0.44719 0.76318 0.39613 0.0
C1793 C 0.43234 0.72606 0.41059 0.0
C1794 C 0.42627 0.76029 0.39977 0.0
N1795 N 0.41933 0.74193 0.40684 0.0
C1796 C 0.52434 0.71214 0.42516 0.0
C1797 C 0.50024 0.69335 0.40551 0.0
C1798 C 0.52707 0.69549 0.4384 0.0
N1799 N 0.51117 0.71076 0.40904 0.0
C1800 C 0.50243 0.67637 0.41838 0.0
C1801 C 0.51596 0.6773 0.43514 0.0
H1802 H 0.53252 0.72628 0.42795 0.0
H1803 H 0.48953 0.69274 0.39288 0.0
C1804 C 0.45756 0.75773 0.33255 0.0
N1805 N 0.46129 0.74503 0.34867 0.0
C1806 C 0.44053 0.75449 0.3199 0.0
C1807 C 0.43162 0.72503 0.34053 0.0
C1808 C 0.44878 0.72886 0.35277 0.0
C1809 C 0.42731 0.73791 0.32378 0.0
H1810 H 0.46793 0.77025 0.32935 0.0
H1811 H 0.45224 0.71875 0.36544 0.0
O1812 O 0.5269 0.75735 0.39589 0.0
O1813 O 0.50037 0.7755 0.3602 0.0
O1814 O 0.50792 0.72994 0.36129 0.0
O1815 O 0.48135 0.74946 0.39594 0.0
H1816 H 0.54436 0.792 0.4079 0.0
H1817 H 0.55547 0.72847 0.39404 0.0
H1818 H 0.58149 0.79637 0.41492 0.0
H1819 H 0.59244 0.73396 0.40106 0.0
H1820 H 0.45852 0.83108 0.35517 0.0
H1821 H 0.52828 0.80253 0.34835 0.0
H1822 H 0.46428 0.79416 0.3621 0.0
H1823 H 0.5214 0.83928 0.34144 0.0
H1824 H 0.58894 0.78892 0.34229 0.0
H1825 H 0.56737 0.73779 0.30598 0.0
H1826 H 0.46792 0.81082 0.44787 0.0
H1827 H 0.51227 0.84527 0.41256 0.0
H1828 H 0.48187 0.70126 0.34902 0.0
H1829 H 0.54488 0.7133 0.36446 0.0
H1830 H 0.4909 0.66485 0.34293 0.0
H1831 H 0.55283 0.67664 0.35832 0.0
H1832 H 0.46368 0.71575 0.41018 0.0
H1833 H 0.45272 0.77784 0.39079 0.0
H1834 H 0.42636 0.71166 0.41627 0.0
H1835 H 0.41556 0.77266 0.39704 0.0
H1836 H 0.53739 0.69703 0.45132 0.0
H1837 H 0.49364 0.66264 0.41521 0.0
H1838 H 0.43799 0.76462 0.30698 0.0
H1839 H 0.42178 0.71218 0.34423 0.0
Li1840 Li 0.00724 0.7728 0.6163 0.0
Li1841 Li 0.98521 0.75655 0.64236 0.0
Li1842 Li 0.02371 0.75092 0.64218 0.0
Li1843 Li 1.00128 0.73437 0.61662 0.0
C1844 C 0.01179 0.7969 0.65045 0.0
N1845 N 0.01984 0.83784 0.6579 0.0
C1846 C 0.99609 0.80995 0.657 0.0
C1847 C 0.03165 0.8046 0.64804 0.0
C1848 C 1.00045 0.83062 0.66059 0.0
C1849 C 0.0354 0.82535 0.65179 0.0
C1850 C 0.96078 0.75967 0.60864 0.0
C1851 C 0.92626 0.74633 0.6085 0.0
N1852 N 0.91919 0.76491 0.60218 0.0
C1853 C 0.9532 0.77856 0.60191 0.0
C1854 C 0.94723 0.74336 0.61174 0.0
C1855 C 0.93212 0.78093 0.59882 0.0
C1856 C 0.02378 0.79474 0.58276 0.0
N1857 N 0.01078 0.79627 0.599 0.0
C1858 C 1.00223 0.8307 0.58961 0.0
C1859 C 1.00002 0.81378 0.60257 0.0
C1860 C 0.0156 0.82959 0.57273 0.0
C1861 C 0.02652 0.8113 0.56944 0.0
H1862 H 0.03184 0.78053 0.57996 0.0
H1863 H 0.98944 0.81454 0.61529 0.0
C1864 C 0.95921 0.74661 0.67546 0.0
N1865 N 0.96169 0.75996 0.65964 0.0
C1866 C 0.94235 0.74832 0.68858 0.0
C1867 C 0.93104 0.7778 0.66918 0.0
C1868 C 0.9481 0.77546 0.6564 0.0
C1869 C 0.92796 0.76408 0.68552 0.0
H1870 H 0.97043 0.73469 0.67803 0.0
H1871 H 0.95057 0.78614 0.64398 0.0
C1872 C 0.04758 0.74754 0.6077 0.0
N1873 N 0.08894 0.74256 0.59977 0.0
C1874 C 0.05512 0.72853 0.60128 0.0
C1875 C 0.06103 0.7641 0.60974 0.0
C1876 C 0.07609 0.7263 0.59743 0.0
C1877 C 0.0819 0.76126 0.60576 0.0
C1878 C 0.99801 0.71047 0.65083 0.0
C1879 C 0.01432 0.69803 0.65708 0.0
C1880 C 0.97845 0.70198 0.64866 0.0
C1881 C 0.01086 0.67719 0.66062 0.0
C1882 C 0.97561 0.68106 0.65233 0.0
N1883 N 0.99174 0.6692 0.65816 0.0
C1884 C 0.04913 0.76073 0.67571 0.0
C1885 C 0.06155 0.73297 0.65585 0.0
C1886 C 0.06584 0.75916 0.68903 0.0
N1887 N 0.04735 0.74785 0.65941 0.0
C1888 C 0.07848 0.73079 0.66884 0.0
C1889 C 0.08081 0.74402 0.6857 0.0
H1890 H 0.03742 0.77212 0.67853 0.0
H1891 H 0.05962 0.72258 0.6431 0.0
C1892 C 0.98327 0.71208 0.58419 0.0
N1893 N 0.99715 0.71068 0.5997 0.0
C1894 C 0.97928 0.6952 0.57163 0.0
C1895 C 0.00436 0.6758 0.59081 0.0
C1896 C 0.00782 0.69306 0.60304 0.0
C1897 C 0.98982 0.67669 0.57491 0.0
H1898 H 0.9753 0.72636 0.58151 0.0
H1899 H 0.01908 0.69239 0.61516 0.0
O1900 O 0.00777 0.77663 0.64671 0.0
O1901 O 0.98137 0.75712 0.61192 0.0
O1902 O 0.0271 0.74997 0.61166 0.0
O1903 O 1.00115 0.7309 0.64713 0.0
H1904 H 0.98069 0.80423 0.65917 0.0
H1905 H 0.04407 0.79464 0.64349 0.0
H1906 H 0.98841 0.84092 0.66552 0.0
H1907 H 0.05069 0.83152 0.6499 0.0
H1908 H 0.91561 0.73384 0.61094 0.0
H1909 H 0.96344 0.79128 0.59917 0.0
H1910 H 0.95285 0.72853 0.6165 0.0
H1911 H 0.92604 0.79551 0.59374 0.0
H1912 H 0.99358 0.84452 0.5928 0.0
H1913 H 0.03671 0.80962 0.55643 0.0
H1914 H 0.94082 0.73764 0.7012 0.0
H1915 H 0.9203 0.79011 0.66619 0.0
H1916 H 0.04493 0.71561 0.59937 0.0
H1917 H 0.05541 0.77903 0.61419 0.0
H1918 H 0.08215 0.71163 0.59259 0.0
H1919 H 0.09248 0.77394 0.60737 0.0
H1920 H 0.0295 0.70435 0.65906 0.0
H1921 H 0.96557 0.71143 0.6443 0.0
H1922 H 0.02338 0.66736 0.66532 0.0
H1923 H 0.96056 0.67428 0.65061 0.0
H1924 H 0.0668 0.76944 0.70204 0.0
H1925 H 0.08967 0.71894 0.66564 0.0
H1926 H 0.96824 0.69672 0.55931 0.0
H1927 H 0.01278 0.66184 0.59396 0.0
Li1928 Li 0.50727 0.27334 0.11655 0.0
Li1929 Li 0.48538 0.25694 0.14266 0.0
Li1930 Li 0.52388 0.25133 0.14208 0.0
Li1931 Li 0.50132 0.23491 0.11657 0.0
C1932 C 0.51154 0.29738 0.15054 0.0
N1933 N 0.51862 0.33857 0.15757 0.0
C1934 C 0.49559 0.31008 0.15718 0.0
C1935 C 0.53116 0.30557 0.14782 0.0
C1936 C 0.49945 0.33088 0.16056 0.0
C1937 C 0.53441 0.32644 0.15135 0.0
C1938 C 0.46076 0.2599 0.10878 0.0
C1939 C 0.4265 0.24591 0.10812 0.0
N1940 N 0.41916 0.26441 0.10189 0.0
C1941 C 0.4529 0.2787 0.10213 0.0
C1942 C 0.44749 0.24331 0.11158 0.0
C1943 C 0.43182 0.28071 0.09882 0.0
C1944 C 0.52404 0.29571 0.08341 0.0
N1945 N 0.5107 0.29695 0.0994 0.0
C1946 C 0.5018 0.3313 0.09003 0.0
C1947 C 0.4996 0.31427 0.10285 0.0
C1948 C 0.5155 0.33048 0.0734 0.0
C1949 C 0.52676 0.31238 0.07022 0.0
H1950 H 0.53238 0.28165 0.0807 0.0
H1951 H 0.4888 0.31481 0.1154 0.0
C1952 C 0.46012 0.24716 0.17637 0.0
N1953 N 0.462 0.26017 0.16019 0.0
C1954 C 0.44344 0.24878 0.18973 0.0
C1955 C 0.4311 0.2775 0.16983 0.0
C1956 C 0.44799 0.27526 0.15682 0.0
C1957 C 0.42862 0.26411 0.18655 0.0
H1958 H 0.47168 0.23559 0.17904 0.0
H1959 H 0.45001 0.28572 0.14414 0.0
C1960 C 0.54757 0.24783 0.10775 0.0
N1961 N 0.58892 0.24221 0.10024 0.0
C1962 C 0.55484 0.22877 0.10118 0.0
C1963 C 0.56129 0.26412 0.11016 0.0
C1964 C 0.57581 0.22621 0.09755 0.0
C1965 C 0.58214 0.26095 0.10639 0.0
C1966 C 0.49785 0.21094 0.15095 0.0
C1967 C 0.51395 0.19817 0.15705 0.0
C1968 C 0.47806 0.20288 0.14916 0.0
C1969 C 0.51008 0.17744 0.16081 0.0
C1970 C 0.47479 0.18207 0.15305 0.0
N1971 N 0.49074 0.16988 0.15872 0.0
C1972 C 0.54995 0.2613 0.17507 0.0
C1973 C 0.56151 0.23288 0.15562 0.0
C1974 C 0.56681 0.25966 0.18818 0.0
N1975 N 0.54767 0.24812 0.15908 0.0
C1976 C 0.57858 0.23062 0.16841 0.0
C1977 C 0.58142 0.24414 0.18495 0.0
H1978 H 0.53853 0.273 0.17781 0.0
H1979 H 0.55919 0.2223 0.1431 0.0
C1980 C 0.4835 0.21299 0.08378 0.0
N1981 N 0.4971 0.21134 0.09952 0.0
C1982 C 0.4795 0.1962 0.07109 0.0
C1983 C 0.50402 0.17641 0.0906 0.0
C1984 C 0.50749 0.19358 0.10295 0.0
C1985 C 0.48975 0.17755 0.07447 0.0
H1986 H 0.47578 0.22739 0.08102 0.0
H1987 H 0.51857 0.19272 0.11524 0.0
O1988 O 0.50799 0.27699 0.147 0.0
O1989 O 0.48136 0.25771 0.11226 0.0
O1990 O 0.52709 0.25058 0.11153 0.0
O1991 O 0.5014 0.23126 0.14704 0.0
H1992 H 0.48037 0.30399 0.15959 0.0
H1993 H 0.54377 0.2959 0.14315 0.0
H1994 H 0.48722 0.34091 0.16556 0.0
H1995 H 0.54951 0.33299 0.14921 0.0
H1996 H 0.41606 0.23321 0.11031 0.0
H1997 H 0.46293 0.29164 0.09963 0.0
H1998 H 0.45334 0.22853 0.11623 0.0
H1999 H 0.42552 0.29521 0.0938 0.0
H2000 H 0.49289 0.34496 0.09314 0.0
H2001 H 0.53722 0.31092 0.0574 0.0
H2002 H 0.44238 0.23838 0.20263 0.0
H2003 H 0.42002 0.28948 0.16674 0.0
H2004 H 0.54444 0.21606 0.099 0.0
H2005 H 0.55589 0.27907 0.11478 0.0
H2006 H 0.58166 0.21149 0.09259 0.0
H2007 H 0.59294 0.27341 0.10829 0.0
H2008 H 0.52931 0.20416 0.15875 0.0
H2009 H 0.46533 0.21261 0.14497 0.0
H2010 H 0.52244 0.16736 0.1654 0.0
H2011 H 0.45956 0.17563 0.15163 0.0
H2012 H 0.56816 0.27018 0.20097 0.0
H2013 H 0.58949 0.21849 0.16529 0.0
H2014 H 0.46868 0.19791 0.0586 0.0
H2015 H 0.51221 0.16233 0.09382 0.0
C2016 C 0.25707 0.79006 0.88224 0.0
C2017 C 0.23794 0.78132 0.87751 0.0
H2018 H 0.27403 0.81021 0.90176 0.0
C2019 C 0.22084 0.78657 0.88954 0.0
H2020 H 0.27046 0.78658 0.87304 0.0
C2021 C 0.2229 0.79998 0.90617 0.0
C2022 C 0.2421 0.80858 0.91108 0.0
H2023 H 0.20594 0.77992 0.8864 0.0
H2024 H 0.20951 0.80322 0.91546 0.0
C2025 C 0.2591 0.80358 0.89875 0.0
C2026 C 0.04357 0.51104 0.37934 0.0
C2027 C 0.03766 0.53123 0.38409 0.0
H2028 H 0.06004 0.49126 0.35892 0.0
C2029 C 0.0443 0.54727 0.37129 0.0
H2030 H 0.03885 0.49836 0.38899 0.0
C2031 C 0.05652 0.54322 0.35414 0.0
C2032 C 0.06248 0.52304 0.34941 0.0
H2033 H 0.03985 0.56297 0.3744 0.0
H2034 H 0.06149 0.55594 0.34469 0.0
C2035 C 0.05589 0.507 0.36224 0.0
C2036 C 0.75071 0.71993 0.88269 0.0
C2037 C 0.77015 0.72678 0.8763 0.0
H2038 H 0.73359 0.70116 0.90351 0.0
C2039 C 0.78763 0.71938 0.88657 0.0
H2040 H 0.73693 0.725 0.87491 0.0
C2041 C 0.7857 0.70561 0.90292 0.0
C2042 C 0.76625 0.69897 0.90945 0.0
H2043 H 0.80282 0.72455 0.88228 0.0
H2044 H 0.79945 0.70055 0.91076 0.0
C2045 C 0.74878 0.70622 0.89908 0.0
C2046 C 0.97145 0.96942 0.37014 0.0
C2047 C 0.97802 0.98677 0.38113 0.0
H2048 H 0.95298 0.95774 0.3456 0.0
C2049 C 0.97039 0.00613 0.37547 0.0
H2050 H 0.97716 0.9543 0.37399 0.0
C2051 C 0.95665 0.00812 0.35912 0.0
C2052 C 0.95024 0.9908 0.34798 0.0
H2053 H 0.97497 0.01978 0.38376 0.0
H2054 H 0.95132 0.0233 0.35498 0.0
C2055 C 0.95776 0.97142 0.35373 0.0
C2056 C 0.24392 0.23692 0.60992 0.0
C2057 C 0.23861 0.22976 0.62957 0.0
H2058 H 0.25052 0.22926 0.57868 0.0
C2059 C 0.23559 0.20861 0.63244 0.0
H2060 H 0.24615 0.25314 0.60712 0.0
C2061 C 0.23794 0.19493 0.61608 0.0
C2062 C 0.2433 0.20208 0.59644 0.0
H2063 H 0.23166 0.20258 0.64742 0.0
H2064 H 0.23538 0.17874 0.61878 0.0
C2065 C 0.24621 0.22325 0.59355 0.0
C2066 C 0.46988 0.50175 0.63289 0.0
C2067 C 0.47756 0.52106 0.62712 0.0
H2068 H 0.45074 0.48476 0.65345 0.0
C2069 C 0.47099 0.5385 0.63797 0.0
H2070 H 0.47445 0.48804 0.62471 0.0
C2071 C 0.45725 0.53664 0.65436 0.0
C2072 C 0.44969 0.51731 0.66022 0.0
H2073 H 0.47673 0.55358 0.63403 0.0
H2074 H 0.45247 0.55038 0.66238 0.0
C2075 C 0.4561 0.4999 0.64922 0.0
C2076 C 0.76103 0.29235 0.62878 0.0
C2077 C 0.78124 0.28709 0.63422 0.0
H2078 H 0.74146 0.30885 0.60817 0.0
C2079 C 0.79749 0.29451 0.62212 0.0
H2080 H 0.74817 0.28712 0.63791 0.0
C2081 C 0.79365 0.30699 0.60512 0.0
C2082 C 0.77346 0.31235 0.59974 0.0
H2083 H 0.81322 0.29046 0.62562 0.0
H2084 H 0.80652 0.3122 0.596 0.0
C2085 C 0.75718 0.30482 0.61174 0.0
C2086 C 0.54262 0.95938 0.63638 0.0
C2087 C 0.53561 0.97547 0.62386 0.0
H2088 H 0.56011 0.95061 0.66276 0.0
C2089 C 0.54107 0.9957 0.62896 0.0
H2090 H 0.53852 0.94364 0.63302 0.0
C2091 C 0.55333 0.99972 0.64612 0.0
C2092 C 0.56035 0.98361 0.65863 0.0
H2093 H 0.53608 0.00845 0.61955 0.0
H2094 H 0.55713 0.01549 0.64969 0.0
C2095 C 0.55481 0.9634 0.65357 0.0
C2096 C 0.88635 0.2101 0.79364 0.0
C2097 C 0.87394 0.22627 0.78661 0.0
H2098 H 0.91288 0.2012 0.8108 0.0
C2099 C 0.87915 0.24647 0.79209 0.0
H2100 H 0.88301 0.19439 0.78941 0.0
C2101 C 0.89631 0.25039 0.80438 0.0
C2102 C 0.90867 0.2342 0.81149 0.0
H2103 H 0.86976 0.25926 0.78717 0.0
H2104 H 0.89969 0.26609 0.8086 0.0
C2105 C 0.90349 0.21401 0.80592 0.0
C2106 C 0.46138 0.87141 0.46265 0.0
C2107 C 0.4776 0.88386 0.46951 0.0
H2108 H 0.45238 0.845 0.44536 0.0
C2109 C 0.49778 0.87866 0.46394 0.0
H2110 H 0.44568 0.87485 0.46686 0.0
C2111 C 0.50163 0.86146 0.45169 0.0
C2112 C 0.4854 0.84899 0.44486 0.0
H2113 H 0.51059 0.88803 0.46884 0.0
H2114 H 0.51736 0.85779 0.44777 0.0
C2115 C 0.46524 0.85416 0.45051 0.0
C2116 C 0.12111 0.28792 0.78717 0.0
C2117 C 0.13131 0.27052 0.77948 0.0
H2118 H 0.09697 0.29956 0.80618 0.0
C2119 C 0.12474 0.25101 0.78594 0.0
H2120 H 0.12553 0.30318 0.78229 0.0
C2121 C 0.10829 0.24895 0.79957 0.0
C2122 C 0.09805 0.26634 0.80715 0.0
H2123 H 0.13245 0.23729 0.78065 0.0
H2124 H 0.10375 0.2337 0.80435 0.0
C2125 C 0.10471 0.28586 0.80086 0.0
C2126 C 0.5393 0.63751 0.47082 0.0
C2127 C 0.52188 0.62657 0.47732 0.0
H2128 H 0.55114 0.66198 0.45236 0.0
C2129 C 0.50256 0.63226 0.46958 0.0
H2130 H 0.55438 0.63363 0.47662 0.0
C2131 C 0.50069 0.64856 0.45579 0.0
C2132 C 0.51808 0.65964 0.44944 0.0
H2133 H 0.48886 0.62401 0.4741 0.0
H2134 H 0.48554 0.65271 0.45036 0.0
C2135 C 0.53742 0.65389 0.45709 0.0
C2136 C 0.88279 0.75087 0.71989 0.0
C2137 C 0.87664 0.7703 0.72697 0.0
H2138 H 0.90352 0.73371 0.70108 0.0
C2139 C 0.88725 0.78772 0.71994 0.0
H2140 H 0.87473 0.73717 0.72468 0.0
C2141 C 0.90374 0.78573 0.70634 0.0
C2142 C 0.91004 0.76628 0.69949 0.0
H2143 H 0.88312 0.80289 0.7253 0.0
H2144 H 0.91186 0.79942 0.70158 0.0
C2145 C 0.89929 0.74889 0.70634 0.0
C2146 C 1.00243 0.87467 0.53824 0.0
C2147 C 0.02175 0.8801 0.53033 0.0
H2148 H 0.98532 0.85448 0.55767 0.0
C2149 C 0.03909 0.86898 0.53673 0.0
H2150 H 0.98879 0.88307 0.5338 0.0
C2151 C 0.03712 0.85268 0.55054 0.0
C2152 C 0.01778 0.84718 0.55836 0.0
H2153 H 0.05417 0.87265 0.5308 0.0
H2154 H 0.05079 0.84445 0.55519 0.0
C2155 C 1.00047 0.85843 0.55211 0.0
C2156 C 0.12495 0.75733 0.72135 0.0
C2157 C 0.13149 0.73786 0.72796 0.0
H2158 H 0.1041 0.77452 0.70269 0.0
C2159 C 0.12144 0.7204 0.72022 0.0
H2160 H 0.13257 0.77109 0.72669 0.0
C2161 C 0.10517 0.72238 0.70636 0.0
C2162 C 0.0985 0.74186 0.69996 0.0
H2163 H 0.12586 0.70518 0.72518 0.0
H2164 H 0.0975 0.70864 0.70102 0.0
C2165 C 0.10864 0.7593 0.70756 0.0
C2166 C 0.96142 0.63644 0.54378 0.0
C2167 C 0.97752 0.62384 0.5369 0.0
H2168 H 0.95264 0.6628 0.56125 0.0
C2169 C 0.99773 0.62877 0.54261 0.0
H2170 H 0.9457 0.63322 0.53948 0.0
C2171 C 1.00173 0.64585 0.55497 0.0
C2172 C 0.98562 0.65846 0.56183 0.0
H2173 H 0.01047 0.61929 0.53772 0.0
H2174 H 0.01749 0.64931 0.55896 0.0
C2175 C 0.96542 0.65354 0.55607 0.0
C2176 C 0.78931 0.88677 0.2207 0.0
C2177 C 0.78195 0.87644 0.23816 0.0
H2178 H 0.80808 0.91103 0.20893 0.0
C2179 C 0.78879 0.88281 0.25761 0.0
H2180 H 0.78415 0.8825 0.2055 0.0
C2181 C 0.80245 0.89923 0.25956 0.0
C2182 C 0.80967 0.90965 0.24212 0.0
H2183 H 0.78375 0.87498 0.27136 0.0
H2184 H 0.80752 0.90364 0.27476 0.0
C2185 C 0.80303 0.90315 0.22266 0.0
C2186 C 0.78912 0.12529 0.25021 0.0
C2187 C 0.7822 0.13151 0.26969 0.0
H2188 H 0.80789 0.10458 0.23297 0.0
C2189 C 0.7895 0.12105 0.2871 0.0
H2190 H 0.78413 0.13323 0.2365 0.0
C2191 C 0.80321 0.10466 0.28506 0.0
C2192 C 0.80991 0.0983 0.26557 0.0
H2193 H 0.78427 0.12521 0.3023 0.0
H2194 H 0.80819 0.09667 0.29875 0.0
C2195 C 0.80277 0.10887 0.24818 0.0
C2196 C 0.37209 0.96465 0.96055 0.0
C2197 C 0.38424 0.97246 0.97658 0.0
H2198 H 0.34619 0.94638 0.95202 0.0
C2199 C 0.37883 0.96773 0.99692 0.0
H2200 H 0.37565 0.96818 0.94471 0.0
C2201 C 0.36175 0.95546 1.00113 0.0
C2202 C 0.34964 0.94758 0.9851 0.0
H2203 H 0.38796 0.9733 0.00964 0.0
H2204 H 0.35794 0.9523 0.01699 0.0
C2205 C 0.35502 0.95235 0.96476 0.0
C2206 C 0.2203 0.38194 0.25126 0.0
C2207 C 0.22715 0.37553 0.27069 0.0
H2208 H 0.2017 0.40288 0.23413 0.0
C2209 C 0.2199 0.38592 0.28817 0.0
H2210 H 0.22526 0.37406 0.2375 0.0
C2211 C 0.20632 0.40242 0.28623 0.0
C2212 C 0.19969 0.40897 0.26677 0.0
H2213 H 0.22508 0.38161 0.30335 0.0
H2214 H 0.20138 0.41035 0.29997 0.0
C2215 C 0.20677 0.39846 0.24932 0.0
C2216 C 0.13881 0.03673 0.46972 0.0
C2217 C 0.12832 0.02923 0.48702 0.0
H2218 H 0.16272 0.05616 0.4583 0.0
C2219 C 0.13436 0.03606 0.50657 0.0
H2220 H 0.13469 0.03166 0.45445 0.0
C2221 C 0.15057 0.0499 0.50879 0.0
C2222 C 0.16116 0.05732 0.49152 0.0
H2223 H 0.12646 0.0308 0.52021 0.0
H2224 H 0.15499 0.05456 0.52411 0.0
C2225 C 0.15505 0.0506 0.47195 0.0
C2226 C 0.71371 0.12166 0.70974 0.0
C2227 C 0.72106 0.13377 0.72601 0.0
H2228 H 0.69612 0.09549 0.70065 0.0
C2229 C 0.71575 0.12832 0.7462 0.0
H2230 H 0.71781 0.12517 0.69403 0.0
C2231 C 0.70331 0.11125 0.75001 0.0
C2232 C 0.69585 0.09923 0.73371 0.0
H2233 H 0.72091 0.13746 0.75908 0.0
H2234 H 0.69922 0.10768 0.76571 0.0
C2235 C 0.70127 0.10462 0.71354 0.0
C2236 C 0.36952 0.03976 0.5447 0.0
C2237 C 0.38409 0.03581 0.52932 0.0
H2238 H 0.34128 0.05461 0.55267 0.0
C2239 C 0.38113 0.04423 0.5097 0.0
H2240 H 0.37134 0.03334 0.55992 0.0
C2241 C 0.36403 0.05654 0.5056 0.0
C2242 C 0.34938 0.06037 0.52095 0.0
H2243 H 0.39219 0.04149 0.49759 0.0
H2244 H 0.36212 0.06288 0.49036 0.0
C2245 C 0.35226 0.05179 0.54052 0.0
C2246 C 0.63829 0.47025 0.5388 0.0
C2247 C 0.62718 0.47653 0.52141 0.0
H2248 H 0.66293 0.45197 0.55061 0.0
C2249 C 0.63266 0.46855 0.50214 0.0
H2250 H 0.63456 0.47622 0.55385 0.0
C2251 C 0.64896 0.45474 0.50027 0.0
C2252 C 0.66024 0.44864 0.51762 0.0
H2253 H 0.62428 0.47292 0.48847 0.0
H2254 H 0.65297 0.44913 0.48515 0.0
C2255 C 0.65467 0.45651 0.53692 0.0
C2256 C 0.72084 0.28735 0.38742 0.0
C2257 C 0.73834 0.28023 0.37698 0.0
H2258 H 0.70899 0.30579 0.41189 0.0
C2259 C 0.75775 0.28717 0.38335 0.0
H2260 H 0.70568 0.2821 0.38313 0.0
C2261 C 0.75964 0.3007 0.39988 0.0
C2262 C 0.74217 0.30768 0.41043 0.0
H2263 H 0.77152 0.28232 0.37542 0.0
H2264 H 0.77482 0.30587 0.40426 0.0
C2265 C 0.72274 0.30093 0.40393 0.0
C2266 C 0.54393 0.04779 0.87086 0.0
C2267 C 0.53737 0.03174 0.88368 0.0
H2268 H 0.561 0.05651 0.8442 0.0
C2269 C 0.54329 0.01156 0.8789 0.0
H2270 H 0.53946 0.06348 0.87398 0.0
C2271 C 0.55556 0.00755 0.86174 0.0
C2272 C 0.56207 0.02361 0.8489 0.0
H2273 H 0.53863 0.99887 0.88855 0.0
H2274 H 0.55973 0.99182 0.8584 0.0
C2275 C 0.55609 0.04377 0.85366 0.0
C2276 C 0.27672 0.20654 0.37634 0.0
C2277 C 0.27137 0.22734 0.37852 0.0
H2278 H 0.27866 0.17695 0.3906 0.0
C2279 C 0.26412 0.23419 0.39767 0.0
H2280 H 0.28209 0.20064 0.36178 0.0
C2281 C 0.26196 0.22057 0.41407 0.0
C2282 C 0.26715 0.19978 0.41183 0.0
H2283 H 0.26028 0.25016 0.40009 0.0
H2284 H 0.25643 0.22638 0.42862 0.0
C2285 C 0.27471 0.19293 0.39284 0.0
C2286 C 0.47106 0.46984 0.8706 0.0
C2287 C 0.47761 0.48718 0.88162 0.0
H2288 H 0.45255 0.45818 0.84607 0.0
C2289 C 0.46989 0.50653 0.87605 0.0
H2290 H 0.47683 0.45473 0.87439 0.0
C2291 C 0.45609 0.50852 0.85976 0.0
C2292 C 0.44971 0.49122 0.84858 0.0
H2293 H 0.47444 0.52017 0.88437 0.0
H2294 H 0.45069 0.5237 0.85569 0.0
C2295 C 0.45731 0.47184 0.85424 0.0
C2296 C 0.72119 0.72003 0.12093 0.0
C2297 C 0.73865 0.7272 0.13139 0.0
H2298 H 0.7094 0.7015 0.09651 0.0
C2299 C 0.75808 0.72023 0.1251 0.0
H2300 H 0.70601 0.7253 0.12516 0.0
C2301 C 0.76002 0.70664 0.10863 0.0
C2302 C 0.74258 0.69962 0.09806 0.0
H2303 H 0.77184 0.72513 0.13304 0.0
H2304 H 0.7752 0.70147 0.10429 0.0
C2305 C 0.72313 0.70639 0.10449 0.0
C2306 C 0.97179 0.03841 0.13748 0.0
C2307 C 0.97845 0.02103 0.12658 0.0
H2308 H 0.95319 0.05014 0.1619 0.0
C2309 C 0.97085 1.00168 0.13229 0.0
H2310 H 0.97746 0.05353 0.13358 0.0
C2311 C 0.95704 0.99972 0.14859 0.0
C2312 C 0.95053 0.01707 0.15963 0.0
H2313 H 0.97548 0.98801 0.12407 0.0
H2314 H 0.95173 0.98455 0.15276 0.0
C2315 C 0.95803 0.03645 0.15384 0.0
C2316 C 0.27321 0.77698 0.11497 0.0
C2317 C 0.27924 0.78586 0.13369 0.0
H2318 H 0.26417 0.78195 0.08378 0.0
C2319 C 0.28064 0.80734 0.135 0.0
H2320 H 0.27215 0.76049 0.11338 0.0
C2321 C 0.27621 0.81963 0.11799 0.0
C2322 C 0.27032 0.81075 0.09923 0.0
H2323 H 0.28503 0.81468 0.14924 0.0
H2324 H 0.27772 0.83611 0.11946 0.0
C2325 C 0.26884 0.78928 0.09794 0.0
C2326 C 0.0421 0.49554 0.12926 0.0
C2327 C 0.0365 0.47536 0.12412 0.0
H2328 H 0.05821 0.51518 0.15007 0.0
C2329 C 0.04335 0.45919 0.13664 0.0
H2330 H 0.03724 0.50833 0.11983 0.0
C2331 C 0.0555 0.4631 0.15388 0.0
C2332 C 0.06115 0.48328 0.159 0.0
H2333 H 0.03913 0.44349 0.13326 0.0
H2334 H 0.06067 0.45027 0.16308 0.0
C2335 C 0.05431 0.49945 0.14647 0.0
C2336 C 0.38002 0.74609 0.29055 0.0
C2337 C 0.37479 0.72587 0.28514 0.0
H2338 H 0.40046 0.76574 0.30717 0.0
C2339 C 0.38715 0.70972 0.29232 0.0
H2340 H 0.37069 0.75888 0.2855 0.0
C2341 C 0.40417 0.71364 0.30475 0.0
C2342 C 0.40931 0.73383 0.31032 0.0
H2343 H 0.38382 0.69399 0.28814 0.0
H2344 H 0.41348 0.70084 0.30979 0.0
C2345 C 0.39708 0.75003 0.30298 0.0
C2346 C 0.9973 0.37898 0.96442 0.0
C2347 C 0.97711 0.38383 0.97031 0.0
H2348 H 0.01699 0.35853 0.94788 0.0
C2349 C 0.96101 0.37117 0.96356 0.0
H2350 H 0.01003 0.38852 0.96923 0.0
C2351 C 0.96498 0.35407 0.95125 0.0
C2352 C 0.98515 0.34924 0.94532 0.0
H2353 H 0.94531 0.37434 0.96799 0.0
H2354 H 0.9522 0.34473 0.9462 0.0
C2355 C 1.00126 0.36192 0.95202 0.0
C2356 C 0.62574 0.75047 0.28767 0.0
C2357 C 0.63213 0.76995 0.28095 0.0
H2358 H 0.60478 0.73319 0.30614 0.0
C2359 C 0.62172 0.78735 0.28832 0.0
H2360 H 0.63364 0.73675 0.28263 0.0
C2361 C 0.60522 0.7853 0.3019 0.0
C2362 C 0.59868 0.7658 0.30838 0.0
H2363 H 0.62601 0.80257 0.28325 0.0
H2364 H 0.59727 0.79899 0.30694 0.0
C2365 C 0.60921 0.74842 0.30118 0.0
C2366 C 0.03912 0.13733 0.96983 0.0
C2367 C 0.0216 0.12663 0.97646 0.0
H2368 H 0.05112 0.16173 0.95138 0.0
C2369 C 1.00228 0.13269 0.96902 0.0
H2370 H 0.05421 0.13316 0.9754 0.0
C2371 C 1.00051 0.14912 0.95536 0.0
C2372 C 0.018 0.15995 0.94886 0.0
H2373 H 0.98851 0.12464 0.97366 0.0
H2374 H 0.98536 0.15356 0.95016 0.0
C2375 C 0.03733 0.15384 0.95623 0.0
C2376 C 0.38792 0.28766 0.22104 0.0
C2377 C 0.37776 0.27019 0.22859 0.0
H2378 H 0.41202 0.29945 0.20208 0.0
C2379 C 0.38425 0.25074 0.2219 0.0
H2380 H 0.38352 0.30286 0.22608 0.0
C2381 C 0.40063 0.24879 0.20819 0.0
C2382 C 0.41089 0.26625 0.20077 0.0
H2383 H 0.37654 0.23698 0.2271 0.0
H2384 H 0.40512 0.23359 0.20323 0.0
C2385 C 0.40427 0.28571 0.20727 0.0
C2386 C 0.53898 0.37031 0.03784 0.0
C2387 C 0.52158 0.38121 0.03123 0.0
H2388 H 0.55075 0.34589 0.05641 0.0
C2389 C 0.50223 0.37552 0.03888 0.0
H2390 H 0.55409 0.37418 0.03212 0.0
C2391 C 0.5003 0.35923 0.05269 0.0
C2392 C 0.51766 0.34818 0.05914 0.0
H2393 H 0.48854 0.38375 0.03429 0.0
H2394 H 0.48512 0.35506 0.05802 0.0
C2395 C 0.53704 0.35396 0.0516 0.0
C2396 C 0.62209 0.22041 0.21936 0.0
C2397 C 0.63249 0.23783 0.22671 0.0
H2398 H 0.59774 0.20874 0.20064 0.0
C2399 C 0.62622 0.25729 0.21984 0.0
H2400 H 0.62631 0.20521 0.22454 0.0
C2401 C 0.6098 0.25931 0.20619 0.0
C2402 C 0.59927 0.24192 0.19901 0.0
H2403 H 0.63412 0.27101 0.22488 0.0
H2404 H 0.60546 0.27452 0.20112 0.0
C2405 C 0.60569 0.22244 0.20565 0.0
C2406 C 0.49756 0.12965 0.04213 0.0
C2407 C 0.47736 0.12493 0.0362 0.0
H2408 H 0.51733 0.14997 0.05874 0.0
C2409 C 0.46131 0.13768 0.04291 0.0
H2410 H 0.51025 0.12005 0.03736 0.0
C2411 C 0.46535 0.15472 0.05527 0.0
C2412 C 0.48553 0.15942 0.06127 0.0
H2413 H 0.4456 0.1346 0.03845 0.0
H2414 H 0.4526 0.1641 0.06032 0.0
C2415 C 0.50159 0.14667 0.05456 0.0
C2416 C 0.28853 0.3879 0.72098 0.0
C2417 C 0.28118 0.37742 0.73835 0.0
H2418 H 0.30728 0.41225 0.70939 0.0
C2419 C 0.28799 0.38366 0.75786 0.0
H2420 H 0.28338 0.38373 0.70574 0.0
C2421 C 0.30163 0.40008 0.75994 0.0
C2422 C 0.30886 0.41062 0.74257 0.0
H2423 H 0.28295 0.37572 0.77155 0.0
H2424 H 0.30668 0.40439 0.77517 0.0
C2425 C 0.30223 0.40427 0.72306 0.0
C2426 C 0.28904 0.62645 0.75085 0.0
C2427 C 0.28218 0.63276 0.77031 0.0
H2428 H 0.3077 0.60561 0.73365 0.0
C2429 C 0.28948 0.62235 0.78775 0.0
H2430 H 0.28403 0.63434 0.73712 0.0
C2431 C 0.30312 0.60591 0.78575 0.0
C2432 C 0.30976 0.59944 0.76627 0.0
H2433 H 0.2843 0.6266 0.80295 0.0
H2434 H 0.30809 0.59795 0.79946 0.0
C2435 C 0.30263 0.60998 0.74885 0.0
C2436 C 0.87185 0.46477 0.46013 0.0
C2437 C 0.88439 0.47165 0.47628 0.0
H2438 H 0.84545 0.44738 0.45126 0.0
C2439 C 0.87929 0.46605 0.49648 0.0
H2440 H 0.87521 0.46898 0.44441 0.0
C2441 C 0.86212 0.45381 0.50043 0.0
C2442 C 0.84958 0.44693 0.48427 0.0
H2443 H 0.88872 0.47094 0.50926 0.0
H2444 H 0.85854 0.44992 0.51618 0.0
C2445 C 0.85465 0.45258 0.46408 0.0
C2446 C 0.71997 0.88733 0.78781 0.0
C2447 C 0.72723 0.8769 0.77037 0.0
H2448 H 0.70137 0.91174 0.79954 0.0
C2449 C 0.72034 0.88321 0.75092 0.0
H2450 H 0.72517 0.88307 0.80301 0.0
C2451 C 0.70676 0.89968 0.74894 0.0
C2452 C 0.69966 0.91023 0.76635 0.0
H2453 H 0.72531 0.8753 0.73718 0.0
H2454 H 0.70165 0.90403 0.73374 0.0
C2455 C 0.70633 0.90378 0.78583 0.0
C2456 C 0.63328 0.53843 0.00652 0.0
C2457 C 0.62757 0.53074 0.98719 0.0
H2458 H 0.65377 0.55759 0.02356 0.0
C2459 C 0.63849 0.53728 0.96978 0.0
H2460 H 0.62504 0.53388 0.02021 0.0
C2461 C 0.65488 0.55101 0.97168 0.0
C2462 C 0.66066 0.5586 0.99103 0.0
H2463 H 0.6346 0.53153 0.95469 0.0
H2464 H 0.66295 0.55577 0.95796 0.0
C2465 C 0.6496 0.55221 0.00841 0.0
C2466 C 0.21671 0.62704 0.24648 0.0
C2467 C 0.22193 0.6324 0.22625 0.0
H2468 H 0.20022 0.60651 0.26614 0.0
C2469 C 0.21455 0.6202 0.21006 0.0
H2470 H 0.22191 0.63625 0.25929 0.0
C2471 C 0.20212 0.60319 0.21398 0.0
C2472 C 0.19674 0.59792 0.23419 0.0
H2473 H 0.21859 0.62365 0.19432 0.0
H2474 H 0.19693 0.59401 0.20114 0.0
C2475 C 0.20426 0.60999 0.25041 0.0
C2476 C 0.87964 0.54223 0.01068 0.0
C2477 C 0.88448 0.53638 0.03087 0.0
H2478 H 0.85918 0.5587 0.99094 0.0
C2479 C 0.8718 0.54314 0.04696 0.0
H2480 H 0.88919 0.53743 0.99796 0.0
C2481 C 0.8547 0.55544 0.04296 0.0
C2482 C 0.84987 0.56134 0.02277 0.0
H2483 H 0.87496 0.53874 0.06266 0.0
H2484 H 0.84537 0.56053 0.05573 0.0
C2485 C 0.86257 0.5546 0.00668 0.0
C2486 C 0.14019 0.97309 0.03617 0.0
C2487 C 0.12708 0.9767 0.01944 0.0
H2488 H 0.16688 0.95742 0.0473 0.0
C2489 C 0.13082 0.96647 1.00083 0.0
H2490 H 0.13772 0.98086 0.05065 0.0
C2491 C 0.14735 0.95292 0.99898 0.0
C2492 C 0.16068 0.9496 0.0156 0.0
H2493 H 0.12087 0.96889 0.98774 0.0
H2494 H 0.14996 0.94534 0.98443 0.0
C2495 C 0.15692 0.95981 0.03422 0.0
loop_
_geom_bond_atom_site_label_1
_geom_bond_atom_site_label_2
_geom_bond_distance
_geom_bond_site_symmetry_2
_ccdc_geom_bond_type
C0 C1 1.391 . S
C0 C4 1.391 . S
C0 H42 0.948 . S
C1 C0 1.391 . S
C1 C2 1.407 . S
C2 C1 1.407 . S
C2 H58 0.929 1_455 S
C2 C59 1.394 1_556 S
C3 C4 1.391 1_554 S
C3 C7 1.397 . S
C3 C59 1.419 . S
C4 C0 1.391 . S
C4 C3 1.391 1_556 S
C4 C5 1.399 . S
C5 C4 1.399 . S
C5 C8 1.396 1_556 S
C5 C17 1.453 . S
C5 C18 1.684 . S
H6 C30 0.948 . S
C7 C3 1.397 . S
C7 C8 1.394 . S
C7 C26 1.723 . S
C8 C5 1.396 1_554 S
C8 C7 1.394 . S
C8 C38 1.723 . S
H9 C32 0.929 1_556 S
H10 C33 0.948 1_556 S
H11 C39 0.982 1_545 S
H12 C40 0.979 . S
H13 C40 0.980 . S
H14 C40 0.983 . S
H15 C39 0.979 . S
H16 C39 0.977 . S
C17 C5 1.453 . S
C17 H46 0.982 1_556 S
C17 H47 0.979 . S
C17 H48 0.977 . S
C18 C5 1.684 . S
C18 H43 0.979 . S
C18 H44 0.980 . S
C18 H45 0.983 . S
C19 C20 1.391 . S
C19 C24 1.391 . S
C19 H49 0.948 . S
C20 C19 1.391 . S
C20 C21 1.407 . S
C21 C20 1.407 . S
C21 C22 1.394 1_655 S
C21 H50 0.929 1_545 S
C22 C21 1.394 1_455 S
C22 C23 1.419 . S
C22 H51 0.948 1_545 S
C23 C22 1.419 . S
C23 C24 1.391 1_455 S
C23 C27 1.397 . S
C24 C19 1.391 . S
C24 C23 1.391 1_655 S
C24 C25 1.399 . S
C25 C24 1.399 . S
C25 C26 1.396 1_655 S
C25 C28 1.453 . S
C25 C29 1.684 . S
C26 C7 1.723 . S
C26 C25 1.396 1_455 S
C26 C27 1.394 . S
C27 C23 1.397 . S
C27 C26 1.394 . S
C27 C37 1.723 . S
C28 C25 1.453 . S
C28 H52 0.982 1_655 S
C28 H53 0.979 . S
C28 H54 0.977 . S
C29 C25 1.684 . S
C29 H55 0.979 . S
C29 H56 0.980 . S
C29 H57 0.983 . S
C30 H6 0.948 . S
C30 C31 1.391 . S
C30 C35 1.391 . S
C31 C30 1.391 . S
C31 C32 1.407 . S
C32 H9 0.929 1_554 S
C32 C31 1.407 . S
C32 C33 1.394 1_565 S
C33 H10 0.948 1_554 S
C33 C32 1.394 1_545 S
C33 C34 1.419 . S
C34 C33 1.419 . S
C34 C35 1.391 1_545 S
C34 C38 1.397 . S
C35 C30 1.391 . S
C35 C34 1.391 1_565 S
C35 C36 1.399 . S
C36 C35 1.399 . S
C36 C37 1.396 1_565 S
C36 C39 1.453 . S
C36 C40 1.684 . S
C37 C27 1.723 . S
C37 C36 1.396 1_545 S
C37 C38 1.394 . S
C38 C8 1.723 . S
C38 C34 1.397 . S
C38 C37 1.394 . S
C39 H11 0.982 1_565 S
C39 H15 0.979 . S
C39 H16 0.977 . S
C39 C36 1.453 . S
C40 H12 0.979 . S
C40 H13 0.980 . S
C40 H14 0.983 . S
C40 C36 1.684 . S
H41 C59 0.948 1_655 S
H42 C0 0.948 . S
H43 C18 0.979 . S
H44 C18 0.980 . S
H45 C18 0.983 . S
H46 C17 0.982 1_554 S
H47 C17 0.979 . S
H48 C17 0.977 . S
H49 C19 0.948 . S
H50 C21 0.929 1_565 S
H51 C22 0.948 1_565 S
H52 C28 0.982 1_455 S
H53 C28 0.979 . S
H54 C28 0.977 . S
H55 C29 0.979 . S
H56 C29 0.980 . S
H57 C29 0.983 . S
H58 C2 0.929 1_655 S
C59 C2 1.394 1_554 S
C59 C3 1.419 . S
C59 H41 0.948 1_455 S
C60 C61 1.391 . S
C60 C64 1.391 . S
C60 H102 0.948 . S
C61 C60 1.391 . S
C61 C62 1.391 . S
C62 C61 1.391 . S
C62 H118 0.947 . S
C62 C119 1.392 . S
C63 C64 1.391 . S
C63 C67 1.397 . S
C63 C119 1.419 . S
C64 C60 1.391 . S
C64 C63 1.391 . S
C64 C65 1.399 . S
C65 C64 1.399 . S
C65 C68 1.396 . S
C65 C77 1.453 . S
C65 C78 1.684 . S
H66 C90 0.948 . S
C67 C63 1.397 . S
C67 C68 1.394 . S
C67 C86 1.723 . S
C68 C65 1.396 . S
C68 C67 1.394 . S
C68 C98 1.723 . S
H69 C92 0.947 . S
H70 C93 0.948 . S
H71 C99 0.982 . S
H72 C100 0.979 . S
H73 C100 0.980 . S
H74 C100 0.983 . S
H75 C99 0.979 . S
H76 C99 0.977 . S
C77 C65 1.453 . S
C77 H106 0.982 . S
C77 H107 0.979 . S
C77 H108 0.977 . S
C78 C65 1.684 . S
C78 H103 0.979 . S
C78 H104 0.980 . S
C78 H105 0.983 . S
C79 C80 1.391 . S
C79 C84 1.391 . S
C79 H109 0.948 . S
C80 C79 1.391 . S
C80 C81 1.391 . S
C81 C80 1.391 . S
C81 C82 1.392 . S
C81 H110 0.947 . S
C82 C81 1.392 . S
C82 C83 1.419 . S
C82 H111 0.948 . S
C83 C82 1.419 . S
C83 C84 1.391 . S
C83 C87 1.397 . S
C84 C79 1.391 . S
C84 C83 1.391 . S
C84 C85 1.399 . S
C85 C84 1.399 . S
C85 C86 1.396 . S
C85 C88 1.453 . S
C85 C89 1.684 . S
C86 C67 1.723 . S
C86 C85 1.396 . S
C86 C87 1.394 . S
C87 C83 1.397 . S
C87 C86 1.394 . S
C87 C97 1.723 . S
C88 C85 1.453 . S
C88 H112 0.982 . S
C88 H113 0.979 . S
C88 H114 0.977 . S
C89 C85 1.684 . S
C89 H115 0.979 . S
C89 H116 0.980 . S
C89 H117 0.983 . S
C90 H66 0.948 . S
C90 C91 1.391 . S
C90 C95 1.391 . S
C91 C90 1.391 . S
C91 C92 1.391 . S
C92 H69 0.947 . S
C92 C91 1.391 . S
C92 C93 1.392 . S
C93 H70 0.948 . S
C93 C92 1.392 . S
C93 C94 1.419 . S
C94 C93 1.419 . S
C94 C95 1.391 . S
C94 C98 1.397 . S
C95 C90 1.391 . S
C95 C94 1.391 . S
C95 C96 1.399 . S
C96 C95 1.399 . S
C96 C97 1.396 . S
C96 C99 1.453 . S
C96 C100 1.684 . S
C97 C87 1.723 . S
C97 C96 1.396 . S
C97 C98 1.394 . S
C98 C68 1.723 . S
C98 C94 1.397 . S
C98 C97 1.394 . S
C99 H71 0.982 . S
C99 H75 0.979 . S
C99 H76 0.977 . S
C99 C96 1.453 . S
C100 H72 0.979 . S
C100 H73 0.980 . S
C100 H74 0.983 . S
C100 C96 1.684 . S
H101 C119 0.948 . S
H102 C60 0.948 . S
H103 C78 0.979 . S
H104 C78 0.980 . S
H105 C78 0.983 . S
H106 C77 0.982 . S
H107 C77 0.979 . S
H108 C77 0.977 . S
H109 C79 0.948 . S
H110 C81 0.947 . S
H111 C82 0.948 . S
H112 C88 0.982 . S
H113 C88 0.979 . S
H114 C88 0.977 . S
H115 C89 0.979 . S
H116 C89 0.980 . S
H117 C89 0.983 . S
H118 C62 0.947 . S
C119 C62 1.392 . S
C119 C63 1.419 . S
C119 H101 0.948 . S
C120 C121 1.391 . S
C120 C124 1.391 1_556 S
C120 H162 0.948 1_655 S
C121 C120 1.391 . S
C121 C122 1.391 . S
C122 C121 1.391 . S
C122 H178 0.947 . S
C122 C179 1.392 . S
C123 C124 1.400 . S
C123 C127 1.434 . S
C123 C179 1.375 1_554 S
C124 C120 1.391 1_554 S
C124 C123 1.400 . S
C124 C125 1.399 . S
C125 C124 1.399 . S
C125 C128 1.396 . S
C125 C137 1.456 . S
C125 C138 1.684 1_655 S
H126 C150 0.948 . S
C127 C123 1.434 . S
C127 C128 1.394 . S
C127 C146 1.723 . S
C128 C125 1.396 . S
C128 C127 1.394 . S
C128 C158 1.723 . S
H129 C152 0.947 . S
H130 C153 0.948 . S
H131 C159 0.982 . S
H132 C160 0.979 . S
H133 C160 0.980 . S
H134 C160 0.983 . S
H135 C159 0.979 . S
H136 C159 0.977 . S
C137 C125 1.456 . S
C137 H166 1.005 . S
C137 H167 0.965 1_655 S
C137 H168 0.966 1_655 S
C138 C125 1.684 1_455 S
C138 H163 0.979 . S
C138 H164 0.980 . S
C138 H165 0.983 . S
C139 C140 1.391 . S
C139 C144 1.391 . S
C139 H169 0.948 1_554 S
C140 C139 1.391 . S
C140 C141 1.391 . S
C141 C140 1.391 . S
C141 C142 1.392 . S
C141 H170 0.947 . S
C142 C141 1.392 . S
C142 C143 1.419 . S
C142 H171 0.948 . S
C143 C142 1.419 . S
C143 C144 1.391 . S
C143 C147 1.397 . S
C144 C139 1.391 . S
C144 C143 1.391 . S
C144 C145 1.399 . S
C145 C144 1.399 . S
C145 C146 1.396 . S
C145 C148 1.456 . S
C145 C149 1.684 1_554 S
C146 C127 1.723 . S
C146 C145 1.396 . S
C146 C147 1.394 . S
C147 C143 1.397 . S
C147 C146 1.394 . S
C147 C157 1.723 . S
C148 C145 1.456 . S
C148 H172 1.005 . S
C148 H173 0.965 1_554 S
C148 H174 0.966 1_554 S
C149 C145 1.684 1_556 S
C149 H175 0.979 . S
C149 H176 0.980 . S
C149 H177 0.983 . S
C150 H126 0.948 . S
C150 C151 1.391 . S
C150 C155 1.391 1_455 S
C151 C150 1.391 . S
C151 C152 1.391 . S
C152 H129 0.947 . S
C152 C151 1.391 . S
C152 C153 1.392 . S
C153 H130 0.948 . S
C153 C152 1.392 . S
C153 C154 1.376 1_455 S
C154 C153 1.376 1_655 S
C154 C155 1.400 . S
C154 C158 1.434 . S
C155 C150 1.391 1_655 S
C155 C154 1.400 . S
C155 C156 1.399 . S
C156 C155 1.399 . S
C156 C157 1.396 . S
C156 C159 1.453 . S
C156 C160 1.684 . S
C157 C147 1.723 . S
C157 C156 1.396 . S
C157 C158 1.394 . S
C158 C128 1.723 . S
C158 C154 1.434 . S
C158 C157 1.394 . S
C159 H131 0.982 . S
C159 H135 0.979 . S
C159 H136 0.977 . S
C159 C156 1.453 . S
C160 H132 0.979 . S
C160 H133 0.980 . S
C160 H134 0.983 . S
C160 C156 1.684 . S
H161 C179 0.948 . S
H162 C120 0.948 1_455 S
H163 C138 0.979 . S
H164 C138 0.980 . S
H165 C138 0.983 . S
H166 C137 1.005 . S
H167 C137 0.965 1_455 S
H168 C137 0.966 1_455 S
H169 C139 0.948 1_556 S
H170 C141 0.947 . S
H171 C142 0.948 . S
H172 C148 1.005 . S
H173 C148 0.965 1_556 S
H174 C148 0.966 1_556 S
H175 C149 0.979 . S
H176 C149 0.980 . S
H177 C149 0.983 . S
H178 C122 0.947 . S
C179 C122 1.392 . S
C179 C123 1.375 1_556 S
C179 H161 0.948 . S
C180 C181 1.391 . S
C180 C184 1.391 . S
C180 H222 0.948 . S
C181 C180 1.391 . S
C181 C182 1.391 . S
C182 C181 1.391 . S
C182 H238 0.947 . S
C182 C239 1.392 . S
C183 C184 1.391 . S
C183 C187 1.397 . S
C183 C239 1.419 . S
C184 C180 1.391 . S
C184 C183 1.391 . S
C184 C185 1.399 . S
C185 C184 1.399 . S
C185 C188 1.396 . S
C185 C197 1.453 . S
C185 C198 1.684 . S
H186 C210 0.948 . S
C187 C183 1.397 . S
C187 C188 1.394 . S
C187 C206 1.723 . S
C188 C185 1.396 . S
C188 C187 1.394 . S
C188 C218 1.723 . S
H189 C212 0.947 . S
H190 C213 0.948 . S
H191 C219 0.982 . S
H192 C220 0.979 . S
H193 C220 0.980 . S
H194 C220 0.983 . S
H195 C219 0.979 . S
H196 C219 0.977 . S
C197 C185 1.453 . S
C197 H226 0.982 . S
C197 H227 0.979 . S
C197 H228 0.977 . S
C198 C185 1.684 . S
C198 H223 0.979 . S
C198 H224 0.980 . S
C198 H225 0.983 . S
C199 C200 1.391 . S
C199 C204 1.391 . S
C199 H229 0.948 . S
C200 C199 1.391 . S
C200 C201 1.391 . S
C201 C200 1.391 . S
C201 C202 1.392 . S
C201 H230 0.947 . S
C202 C201 1.392 . S
C202 C203 1.419 . S
C202 H231 0.948 . S
C203 C202 1.419 . S
C203 C204 1.391 . S
C203 C207 1.397 . S
C204 C199 1.391 . S
C204 C203 1.391 . S
C204 C205 1.399 . S
C205 C204 1.399 . S
C205 C206 1.396 . S
C205 C208 1.453 . S
C205 C209 1.684 . S
C206 C187 1.723 . S
C206 C205 1.396 . S
C206 C207 1.394 . S
C207 C203 1.397 . S
C207 C206 1.394 . S
C207 C217 1.723 . S
C208 C205 1.453 . S
C208 H232 0.982 . S
C208 H233 0.979 . S
C208 H234 0.977 . S
C209 C205 1.684 . S
C209 H235 0.979 . S
C209 H236 0.980 . S
C209 H237 0.983 . S
C210 H186 0.948 . S
C210 C211 1.391 . S
C210 C215 1.391 . S
C211 C210 1.391 . S
C211 C212 1.391 . S
C212 H189 0.947 . S
C212 C211 1.391 . S
C212 C213 1.392 . S
C213 H190 0.948 . S
C213 C212 1.392 . S
C213 C214 1.419 . S
C214 C213 1.419 . S
C214 C215 1.391 . S
C214 C218 1.397 . S
C215 C210 1.391 . S
C215 C214 1.391 . S
C215 C216 1.399 . S
C216 C215 1.399 . S
C216 C217 1.396 . S
C216 C219 1.453 . S
C216 C220 1.684 . S
C217 C207 1.723 . S
C217 C216 1.396 . S
C217 C218 1.394 . S
C218 C188 1.723 . S
C218 C214 1.397 . S
C218 C217 1.394 . S
C219 H191 0.982 . S
C219 H195 0.979 . S
C219 H196 0.977 . S
C219 C216 1.453 . S
C220 H192 0.979 . S
C220 H193 0.980 . S
C220 H194 0.983 . S
C220 C216 1.684 . S
H221 C239 0.948 . S
H222 C180 0.948 . S
H223 C198 0.979 . S
H224 C198 0.980 . S
H225 C198 0.983 . S
H226 C197 0.982 . S
H227 C197 0.979 . S
H228 C197 0.977 . S
H229 C199 0.948 . S
H230 C201 0.947 . S
H231 C202 0.948 . S
H232 C208 0.982 . S
H233 C208 0.979 . S
H234 C208 0.977 . S
H235 C209 0.979 . S
H236 C209 0.980 . S
H237 C209 0.983 . S
H238 C182 0.947 . S
C239 C182 1.392 . S
C239 C183 1.419 . S
C239 H221 0.948 . S
C240 C241 1.391 . S
C240 C244 1.391 . S
C240 H282 0.948 . S
C241 C240 1.391 . S
C241 C242 1.391 . S
C242 C241 1.391 . S
C242 H298 0.947 1_455 S
C242 C299 1.392 . S
C243 C244 1.391 . S
C243 C247 1.397 . S
C243 C299 1.419 . S
C244 C240 1.391 . S
C244 C243 1.391 . S
C244 C245 1.399 . S
C245 C244 1.399 . S
C245 C248 1.396 . S
C245 C257 1.453 . S
C245 C258 1.684 . S
H246 C270 0.948 . S
C247 C243 1.397 . S
C247 C248 1.394 . S
C247 C266 1.723 . S
C248 C245 1.396 . S
C248 C247 1.394 . S
C248 C278 1.723 . S
H249 C272 0.947 . S
H250 C273 0.948 . S
H251 C279 0.982 . S
H252 C280 0.979 1_565 S
H253 C280 0.980 . S
H254 C280 0.983 . S
H255 C279 0.979 . S
H256 C279 0.977 . S
C257 C245 1.453 . S
C257 H286 0.982 . S
C257 H287 0.979 . S
C257 H288 0.977 . S
C258 C245 1.684 . S
C258 H283 0.979 . S
C258 H284 0.980 . S
C258 H285 0.983 . S
C259 C260 1.391 . S
C259 C264 1.391 . S
C259 H289 0.948 . S
C260 C259 1.391 . S
C260 C261 1.391 . S
C261 C260 1.391 . S
C261 C262 1.392 1_655 S
C261 H290 0.947 1_565 S
C262 C261 1.392 1_455 S
C262 C263 1.419 . S
C262 H291 0.948 1_565 S
C263 C262 1.419 . S
C263 C264 1.391 1_455 S
C263 C267 1.397 . S
C264 C259 1.391 . S
C264 C263 1.391 1_655 S
C264 C265 1.399 . S
C265 C264 1.399 . S
C265 C266 1.396 1_655 S
C265 C268 1.453 . S
C265 C269 1.684 . S
C266 C247 1.723 . S
C266 C265 1.396 1_455 S
C266 C267 1.394 . S
C267 C263 1.397 . S
C267 C266 1.394 . S
C267 C277 1.723 . S
C268 C265 1.453 . S
C268 H292 0.982 . S
C268 H293 0.979 . S
C268 H294 0.977 . S
C269 C265 1.684 . S
C269 H295 0.979 1_655 S
C269 H296 0.980 . S
C269 H297 0.983 . S
C270 H246 0.948 . S
C270 C271 1.391 . S
C270 C275 1.391 . S
C271 C270 1.391 . S
C271 C272 1.391 . S
C272 H249 0.947 . S
C272 C271 1.391 . S
C272 C273 1.392 1_545 S
C273 H250 0.948 . S
C273 C272 1.392 1_565 S
C273 C274 1.419 . S
C274 C273 1.419 . S
C274 C275 1.391 1_565 S
C274 C278 1.397 . S
C275 C270 1.391 . S
C275 C274 1.391 1_545 S
C275 C276 1.399 . S
C276 C275 1.399 . S
C276 C277 1.396 1_545 S
C276 C279 1.453 . S
C276 C280 1.684 . S
C277 C267 1.723 . S
C277 C276 1.396 1_565 S
C277 C278 1.394 . S
C278 C248 1.723 . S
C278 C274 1.397 . S
C278 C277 1.394 . S
C279 H251 0.982 . S
C279 H255 0.979 . S
C279 H256 0.977 . S
C279 C276 1.453 . S
C280 H252 0.979 1_545 S
C280 H253 0.980 . S
C280 H254 0.983 . S
C280 C276 1.684 . S
H281 C299 0.948 1_655 S
H282 C240 0.948 . S
H283 C258 0.979 . S
H284 C258 0.980 . S
H285 C258 0.983 . S
H286 C257 0.982 . S
H287 C257 0.979 . S
H288 C257 0.977 . S
H289 C259 0.948 . S
H290 C261 0.947 1_545 S
H291 C262 0.948 1_545 S
H292 C268 0.982 . S
H293 C268 0.979 . S
H294 C268 0.977 . S
H295 C269 0.979 1_455 S
H296 C269 0.980 . S
H297 C269 0.983 . S
H298 C242 0.947 1_655 S
C299 C242 1.392 . S
C299 C243 1.419 . S
C299 H281 0.948 1_455 S
C300 C301 1.391 . S
C300 C304 1.391 . S
C300 H342 0.948 . S
C301 C300 1.391 . S
C301 C302 1.391 . S
C302 C301 1.391 . S
C302 H358 0.947 . S
C302 C359 1.392 . S
C303 C304 1.391 . S
C303 C307 1.397 . S
C303 C359 1.419 . S
C304 C300 1.391 . S
C304 C303 1.391 . S
C304 C305 1.399 . S
C305 C304 1.399 . S
C305 C308 1.396 . S
C305 C317 1.453 . S
C305 C318 1.684 . S
H306 C330 0.948 . S
C307 C303 1.397 . S
C307 C308 1.394 . S
C307 C326 1.723 . S
C308 C305 1.396 . S
C308 C307 1.394 . S
C308 C338 1.723 . S
H309 C332 0.947 . S
H310 C333 0.948 . S
H311 C339 0.982 . S
H312 C340 0.979 . S
H313 C340 0.980 . S
H314 C340 0.983 . S
H315 C339 0.979 . S
H316 C339 0.977 . S
C317 C305 1.453 . S
C317 H346 0.982 . S
C317 H347 0.979 . S
C317 H348 0.977 . S
C318 C305 1.684 . S
C318 H343 0.979 . S
C318 H344 0.980 . S
C318 H345 0.983 . S
C319 C320 1.391 . S
C319 C324 1.391 . S
C319 H349 0.948 . S
C320 C319 1.391 . S
C320 C321 1.391 . S
C321 C320 1.391 . S
C321 C322 1.392 . S
C321 H350 0.947 . S
C322 C321 1.392 . S
C322 C323 1.419 . S
C322 H351 0.948 . S
C323 C322 1.419 . S
C323 C324 1.391 . S
C323 C327 1.397 . S
C324 C319 1.391 . S
C324 C323 1.391 . S
C324 C325 1.399 . S
C325 C324 1.399 . S
C325 C326 1.396 . S
C325 C328 1.453 . S
C325 C329 1.684 . S
C326 C307 1.723 . S
C326 C325 1.396 . S
C326 C327 1.394 . S
C327 C323 1.397 . S
C327 C326 1.394 . S
C327 C337 1.723 . S
C328 C325 1.453 . S
C328 H352 0.982 . S
C328 H353 0.979 . S
C328 H354 0.977 . S
C329 C325 1.684 . S
C329 H355 0.979 . S
C329 H356 0.980 . S
C329 H357 0.983 . S
C330 H306 0.948 . S
C330 C331 1.391 . S
C330 C335 1.391 . S
C331 C330 1.391 . S
C331 C332 1.391 . S
C332 H309 0.947 . S
C332 C331 1.391 . S
C332 C333 1.392 . S
C333 H310 0.948 . S
C333 C332 1.392 . S
C333 C334 1.419 . S
C334 C333 1.419 . S
C334 C335 1.391 . S
C334 C338 1.397 . S
C335 C330 1.391 . S
C335 C334 1.391 . S
C335 C336 1.399 . S
C336 C335 1.399 . S
C336 C337 1.396 . S
C336 C339 1.453 . S
C336 C340 1.684 . S
C337 C327 1.723 . S
C337 C336 1.396 . S
C337 C338 1.394 . S
C338 C308 1.723 . S
C338 C334 1.397 . S
C338 C337 1.394 . S
C339 H311 0.982 . S
C339 H315 0.979 . S
C339 H316 0.977 . S
C339 C336 1.453 . S
C340 H312 0.979 . S
C340 H313 0.980 . S
C340 H314 0.983 . S
C340 C336 1.684 . S
H341 C359 0.948 . S
H342 C300 0.948 . S
H343 C318 0.979 . S
H344 C318 0.980 . S
H345 C318 0.983 . S
H346 C317 0.982 . S
H347 C317 0.979 . S
H348 C317 0.977 . S
H349 C319 0.948 . S
H350 C321 0.947 . S
H351 C322 0.948 . S
H352 C328 0.982 . S
H353 C328 0.979 . S
H354 C328 0.977 . S
H355 C329 0.979 . S
H356 C329 0.980 . S
H357 C329 0.983 . S
H358 C302 0.947 . S
C359 C302 1.392 . S
C359 C303 1.419 . S
C359 H341 0.948 . S
C360 C361 1.391 . S
C360 C364 1.391 . S
C360 H402 0.948 . S
C361 C360 1.391 . S
C361 C362 1.391 . S
C362 C361 1.391 . S
C362 H418 0.947 . S
C362 C419 1.392 . S
C363 C364 1.391 . S
C363 C367 1.397 . S
C363 C419 1.419 . S
C364 C360 1.391 . S
C364 C363 1.391 . S
C364 C365 1.399 . S
C365 C364 1.399 . S
C365 C368 1.396 . S
C365 C377 1.453 . S
C365 C378 1.684 . S
H366 C390 0.948 1_455 S
C367 C363 1.397 . S
C367 C368 1.394 . S
C367 C386 1.723 . S
C368 C365 1.396 . S
C368 C367 1.394 . S
C368 C398 1.723 . S
H369 C392 0.947 . S
H370 C393 0.948 . S
H371 C399 1.005 . S
H372 C400 0.979 . S
H373 C400 0.980 . S
H374 C400 0.983 . S
H375 C399 0.965 1_455 S
H376 C399 0.966 1_455 S
C377 C365 1.453 . S
C377 H406 0.982 . S
C377 H407 0.979 . S
C377 H408 0.977 . S
C378 C365 1.684 . S
C378 H403 0.979 . S
C378 H404 0.980 . S
C378 H405 0.983 . S
C379 C380 1.391 . S
C379 C384 1.391 1_455 S
C379 H409 0.948 . S
C380 C379 1.391 . S
C380 C381 1.391 . S
C381 C380 1.391 . S
C381 C382 1.392 . S
C381 H410 0.947 . S
C382 C381 1.392 . S
C382 C383 1.376 1_455 S
C382 H411 0.948 . S
C383 C382 1.376 1_655 S
C383 C384 1.400 . S
C383 C387 1.434 . S
C384 C379 1.391 1_655 S
C384 C383 1.400 . S
C384 C385 1.399 . S
C385 C384 1.399 . S
C385 C386 1.396 . S
C385 C388 1.453 . S
C385 C389 1.684 . S
C386 C367 1.723 . S
C386 C385 1.396 . S
C386 C387 1.394 . S
C387 C383 1.434 . S
C387 C386 1.394 . S
C387 C397 1.723 . S
C388 C385 1.453 . S
C388 H412 0.982 . S
C388 H413 0.979 . S
C388 H414 0.977 . S
C389 C385 1.684 . S
C389 H415 0.979 . S
C389 H416 0.980 . S
C389 H417 0.983 . S
C390 H366 0.948 1_655 S
C390 C391 1.391 . S
C390 C395 1.391 . S
C391 C390 1.391 . S
C391 C392 1.391 . S
C392 H369 0.947 . S
C392 C391 1.391 . S
C392 C393 1.392 . S
C393 H370 0.948 . S
C393 C392 1.392 . S
C393 C394 1.419 . S
C394 C393 1.419 . S
C394 C395 1.391 . S
C394 C398 1.397 . S
C395 C390 1.391 . S
C395 C394 1.391 . S
C395 C396 1.399 . S
C396 C395 1.399 . S
C396 C397 1.396 . S
C396 C399 1.456 . S
C396 C400 1.684 1_655 S
C397 C387 1.723 . S
C397 C396 1.396 . S
C397 C398 1.394 . S
C398 C368 1.723 . S
C398 C394 1.397 . S
C398 C397 1.394 . S
C399 H371 1.005 . S
C399 H375 0.965 1_655 S
C399 H376 0.966 1_655 S
C399 C396 1.456 . S
C400 H372 0.979 . S
C400 H373 0.980 . S
C400 H374 0.983 . S
C400 C396 1.684 1_455 S
H401 C419 0.948 . S
H402 C360 0.948 . S
H403 C378 0.979 . S
H404 C378 0.980 . S
H405 C378 0.983 . S
H406 C377 0.982 . S
H407 C377 0.979 . S
H408 C377 0.977 . S
H409 C379 0.948 . S
H410 C381 0.947 . S
H411 C382 0.948 . S
H412 C388 0.982 . S
H413 C388 0.979 . S
H414 C388 0.977 . S
H415 C389 0.979 . S
H416 C389 0.980 . S
H417 C389 0.983 . S
H418 C362 0.947 . S
C419 C362 1.392 . S
C419 C363 1.419 . S
C419 H401 0.948 . S
C420 C421 1.391 . S
C420 C424 1.391 . S
C420 H462 0.948 . S
C421 C420 1.391 . S
C421 C422 1.391 . S
C422 C421 1.391 . S
C422 H478 0.947 . S
C422 C479 1.392 . S
C423 C424 1.391 . S
C423 C427 1.397 . S
C423 C479 1.419 . S
C424 C420 1.391 . S
C424 C423 1.391 . S
C424 C425 1.399 . S
C425 C424 1.399 . S
C425 C428 1.396 . S
C425 C437 1.453 . S
C425 C438 1.684 . S
H426 C450 0.948 . S
C427 C423 1.397 . S
C427 C428 1.394 . S
C427 C446 1.723 . S
C428 C425 1.396 . S
C428 C427 1.394 . S
C428 C458 1.723 . S
H429 C452 0.947 . S
H430 C453 0.948 . S
H431 C459 0.982 . S
H432 C460 0.979 . S
H433 C460 0.980 . S
H434 C460 0.983 . S
H435 C459 0.979 . S
H436 C459 0.977 . S
C437 C425 1.453 . S
C437 H466 0.982 . S
C437 H467 0.979 . S
C437 H468 0.977 . S
C438 C425 1.684 . S
C438 H463 0.979 . S
C438 H464 0.980 . S
C438 H465 0.983 . S
C439 C440 1.391 . S
C439 C444 1.391 . S
C439 H469 0.948 . S
C440 C439 1.391 . S
C440 C441 1.391 . S
C441 C440 1.391 . S
C441 C442 1.392 . S
C441 H470 0.947 . S
C442 C441 1.392 . S
C442 C443 1.419 . S
C442 H471 0.948 . S
C443 C442 1.419 . S
C443 C444 1.391 . S
C443 C447 1.397 . S
C444 C439 1.391 . S
C444 C443 1.391 . S
C444 C445 1.399 . S
C445 C444 1.399 . S
C445 C446 1.396 . S
C445 C448 1.453 . S
C445 C449 1.684 . S
C446 C427 1.723 . S
C446 C445 1.396 . S
C446 C447 1.394 . S
C447 C443 1.397 . S
C447 C446 1.394 . S
C447 C457 1.723 . S
C448 C445 1.453 . S
C448 H472 0.982 . S
C448 H473 0.979 . S
C448 H474 0.977 . S
C449 C445 1.684 . S
C449 H475 0.979 . S
C449 H476 0.980 . S
C449 H477 0.983 . S
C450 H426 0.948 . S
C450 C451 1.391 . S
C450 C455 1.391 . S
C451 C450 1.391 . S
C451 C452 1.391 . S
C452 H429 0.947 . S
C452 C451 1.391 . S
C452 C453 1.392 . S
C453 H430 0.948 . S
C453 C452 1.392 . S
C453 C454 1.419 . S
C454 C453 1.419 . S
C454 C455 1.391 . S
C454 C458 1.397 . S
C455 C450 1.391 . S
C455 C454 1.391 . S
C455 C456 1.399 . S
C456 C455 1.399 . S
C456 C457 1.396 . S
C456 C459 1.453 . S
C456 C460 1.684 . S
C457 C447 1.723 . S
C457 C456 1.396 . S
C457 C458 1.394 . S
C458 C428 1.723 . S
C458 C454 1.397 . S
C458 C457 1.394 . S
C459 H431 0.982 . S
C459 H435 0.979 . S
C459 H436 0.977 . S
C459 C456 1.453 . S
C460 H432 0.979 . S
C460 H433 0.980 . S
C460 H434 0.983 . S
C460 C456 1.684 . S
H461 C479 0.948 . S
H462 C420 0.948 . S
H463 C438 0.979 . S
H464 C438 0.980 . S
H465 C438 0.983 . S
H466 C437 0.982 . S
H467 C437 0.979 . S
H468 C437 0.977 . S
H469 C439 0.948 . S
H470 C441 0.947 . S
H471 C442 0.948 . S
H472 C448 0.982 . S
H473 C448 0.979 . S
H474 C448 0.977 . S
H475 C449 0.979 . S
H476 C449 0.980 . S
H477 C449 0.983 . S
H478 C422 0.947 . S
C479 C422 1.392 . S
C479 C423 1.419 . S
C479 H461 0.948 . S
C480 C481 1.391 . S
C480 C484 1.391 . S
C480 H522 0.948 . S
C481 C480 1.391 . S
C481 C482 1.391 . S
C482 C481 1.391 . S
C482 H538 0.947 . S
C482 C539 1.392 . S
C483 C484 1.391 . S
C483 C487 1.397 . S
C483 C539 1.419 . S
C484 C480 1.391 . S
C484 C483 1.391 . S
C484 C485 1.399 . S
C485 C484 1.399 . S
C485 C488 1.396 . S
C485 C497 1.453 . S
C485 C498 1.684 . S
H486 C510 0.948 . S
C487 C483 1.397 . S
C487 C488 1.394 . S
C487 C506 1.723 . S
C488 C485 1.396 . S
C488 C487 1.394 . S
C488 C518 1.723 . S
H489 C512 0.947 . S
H490 C513 0.948 . S
H491 C519 0.982 . S
H492 C520 0.979 . S
H493 C520 0.980 . S
H494 C520 0.983 . S
H495 C519 0.979 . S
H496 C519 0.977 . S
C497 C485 1.453 . S
C497 H526 0.982 . S
C497 H527 0.979 . S
C497 H528 0.977 . S
C498 C485 1.684 . S
C498 H523 0.979 . S
C498 H524 0.980 . S
C498 H525 0.983 . S
C499 C500 1.391 . S
C499 C504 1.391 . S
C499 H529 0.948 . S
C500 C499 1.391 . S
C500 C501 1.391 . S
C501 C500 1.391 . S
C501 C502 1.392 . S
C501 H530 0.947 . S
C502 C501 1.392 . S
C502 C503 1.419 . S
C502 H531 0.948 . S
C503 C502 1.419 . S
C503 C504 1.391 . S
C503 C507 1.397 . S
C504 C499 1.391 . S
C504 C503 1.391 . S
C504 C505 1.399 . S
C505 C504 1.399 . S
C505 C506 1.396 . S
C505 C508 1.453 . S
C505 C509 1.684 . S
C506 C487 1.723 . S
C506 C505 1.396 . S
C506 C507 1.394 . S
C507 C503 1.397 . S
C507 C506 1.394 . S
C507 C517 1.723 . S
C508 C505 1.453 . S
C508 H532 0.982 . S
C508 H533 0.979 . S
C508 H534 0.977 . S
C509 C505 1.684 . S
C509 H535 0.979 . S
C509 H536 0.980 . S
C509 H537 0.983 . S
C510 H486 0.948 . S
C510 C511 1.391 . S
C510 C515 1.391 . S
C511 C510 1.391 . S
C511 C512 1.391 . S
C512 H489 0.947 . S
C512 C511 1.391 . S
C512 C513 1.392 . S
C513 H490 0.948 . S
C513 C512 1.392 . S
C513 C514 1.419 . S
C514 C513 1.419 . S
C514 C515 1.391 . S
C514 C518 1.397 . S
C515 C510 1.391 . S
C515 C514 1.391 . S
C515 C516 1.399 . S
C516 C515 1.399 . S
C516 C517 1.396 . S
C516 C519 1.453 . S
C516 C520 1.684 . S
C517 C507 1.723 . S
C517 C516 1.396 . S
C517 C518 1.394 . S
C518 C488 1.723 . S
C518 C514 1.397 . S
C518 C517 1.394 . S
C519 H491 0.982 . S
C519 H495 0.979 . S
C519 H496 0.977 . S
C519 C516 1.453 . S
C520 H492 0.979 . S
C520 H493 0.980 . S
C520 H494 0.983 . S
C520 C516 1.684 . S
H521 C539 0.948 . S
H522 C480 0.948 . S
H523 C498 0.979 . S
H524 C498 0.980 . S
H525 C498 0.983 . S
H526 C497 0.982 . S
H527 C497 0.979 . S
H528 C497 0.977 . S
H529 C499 0.948 . S
H530 C501 0.947 . S
H531 C502 0.948 . S
H532 C508 0.982 . S
H533 C508 0.979 . S
H534 C508 0.977 . S
H535 C509 0.979 . S
H536 C509 0.980 . S
H537 C509 0.983 . S
H538 C482 0.947 . S
C539 C482 1.392 . S
C539 C483 1.419 . S
C539 H521 0.948 . S
C540 C541 1.391 . S
C540 C544 1.391 . S
C540 H582 0.948 . S
C541 C540 1.391 . S
C541 C542 1.391 . S
C542 C541 1.391 . S
C542 H598 0.947 . S
C542 C599 1.392 . S
C543 C544 1.391 . S
C543 C547 1.397 . S
C543 C599 1.419 . S
C544 C540 1.391 . S
C544 C543 1.391 . S
C544 C545 1.399 . S
C545 C544 1.399 . S
C545 C548 1.396 . S
C545 C557 1.453 . S
C545 C558 1.684 . S
H546 C570 0.948 1_545 S
C547 C543 1.397 . S
C547 C548 1.394 . S
C547 C566 1.723 . S
C548 C545 1.396 . S
C548 C547 1.394 . S
C548 C578 1.723 . S
H549 C572 0.947 . S
H550 C573 0.948 . S
H551 C579 1.005 . S
H552 C580 0.979 . S
H553 C580 0.980 . S
H554 C580 0.983 . S
H555 C579 0.965 1_545 S
H556 C579 0.966 1_545 S
C557 C545 1.453 . S
C557 H586 0.982 . S
C557 H587 0.979 . S
C557 H588 0.977 . S
C558 C545 1.684 . S
C558 H583 0.979 . S
C558 H584 0.980 . S
C558 H585 0.983 . S
C559 C560 1.391 . S
C559 C564 1.391 1_545 S
C559 H589 0.948 . S
C560 C559 1.391 . S
C560 C561 1.391 . S
C561 C560 1.391 . S
C561 C562 1.392 . S
C561 H590 0.947 . S
C562 C561 1.392 . S
C562 C563 1.376 1_545 S
C562 H591 0.948 . S
C563 C562 1.376 1_565 S
C563 C564 1.400 . S
C563 C567 1.434 . S
C564 C559 1.391 1_565 S
C564 C563 1.400 . S
C564 C565 1.399 . S
C565 C564 1.399 . S
C565 C566 1.396 . S
C565 C568 1.453 . S
C565 C569 1.684 . S
C566 C547 1.723 . S
C566 C565 1.396 . S
C566 C567 1.394 . S
C567 C563 1.434 . S
C567 C566 1.394 . S
C567 C577 1.723 . S
C568 C565 1.453 . S
C568 H592 0.982 . S
C568 H593 0.979 . S
C568 H594 0.977 . S
C569 C565 1.684 . S
C569 H595 0.979 . S
C569 H596 0.980 . S
C569 H597 0.983 . S
C570 H546 0.948 1_565 S
C570 C571 1.391 . S
C570 C575 1.391 . S
C571 C570 1.391 . S
C571 C572 1.391 . S
C572 H549 0.947 . S
C572 C571 1.391 . S
C572 C573 1.392 . S
C573 H550 0.948 . S
C573 C572 1.392 . S
C573 C574 1.419 . S
C574 C573 1.419 . S
C574 C575 1.391 . S
C574 C578 1.397 . S
C575 C570 1.391 . S
C575 C574 1.391 . S
C575 C576 1.399 . S
C576 C575 1.399 . S
C576 C577 1.396 . S
C576 C579 1.456 . S
C576 C580 1.684 1_565 S
C577 C567 1.723 . S
C577 C576 1.396 . S
C577 C578 1.394 . S
C578 C548 1.723 . S
C578 C574 1.397 . S
C578 C577 1.394 . S
C579 H551 1.005 . S
C579 H555 0.965 1_565 S
C579 H556 0.966 1_565 S
C579 C576 1.456 . S
C580 H552 0.979 . S
C580 H553 0.980 . S
C580 H554 0.983 . S
C580 C576 1.684 1_545 S
H581 C599 0.948 . S
H582 C540 0.948 . S
H583 C558 0.979 . S
H584 C558 0.980 . S
H585 C558 0.983 . S
H586 C557 0.982 . S
H587 C557 0.979 . S
H588 C557 0.977 . S
H589 C559 0.948 . S
H590 C561 0.947 . S
H591 C562 0.948 . S
H592 C568 0.982 . S
H593 C568 0.979 . S
H594 C568 0.977 . S
H595 C569 0.979 . S
H596 C569 0.980 . S
H597 C569 0.983 . S
H598 C542 0.947 . S
C599 C542 1.392 . S
C599 C543 1.419 . S
C599 H581 0.948 . S
C600 C601 1.391 . S
C600 C604 1.391 . S
C600 H642 0.948 . S
C601 C600 1.391 . S
C601 C602 1.391 . S
C602 C601 1.391 . S
C602 H658 0.947 . S
C602 C659 1.392 . S
C603 C604 1.391 . S
C603 C607 1.397 . S
C603 C659 1.419 . S
C604 C600 1.391 . S
C604 C603 1.391 . S
C604 C605 1.399 . S
C605 C604 1.399 . S
C605 C608 1.396 . S
C605 C617 1.453 . S
C605 C618 1.684 . S
H606 C630 0.948 . S
C607 C603 1.397 . S
C607 C608 1.394 . S
C607 C626 1.723 . S
C608 C605 1.396 . S
C608 C607 1.394 . S
C608 C638 1.723 . S
H609 C632 0.947 . S
H610 C633 0.948 . S
H611 C639 0.982 . S
H612 C640 0.979 . S
H613 C640 0.980 . S
H614 C640 0.983 . S
H615 C639 0.979 . S
H616 C639 0.977 . S
C617 C605 1.453 . S
C617 H646 0.982 . S
C617 H647 0.979 . S
C617 H648 0.977 . S
C618 C605 1.684 . S
C618 H643 0.979 . S
C618 H644 0.980 . S
C618 H645 0.983 . S
C619 C620 1.391 . S
C619 C624 1.391 . S
C619 H649 0.948 . S
C620 C619 1.391 . S
C620 C621 1.391 . S
C621 C620 1.391 . S
C621 C622 1.392 . S
C621 H650 0.947 . S
C622 C621 1.392 . S
C622 C623 1.419 . S
C622 H651 0.948 . S
C623 C622 1.419 . S
C623 C624 1.391 . S
C623 C627 1.397 . S
C624 C619 1.391 . S
C624 C623 1.391 . S
C624 C625 1.399 . S
C625 C624 1.399 . S
C625 C626 1.396 . S
C625 C628 1.453 . S
C625 C629 1.684 . S
C626 C607 1.723 . S
C626 C625 1.396 . S
C626 C627 1.394 . S
C627 C623 1.397 . S
C627 C626 1.394 . S
C627 C637 1.723 . S
C628 C625 1.453 . S
C628 H652 0.982 . S
C628 H653 0.979 . S
C628 H654 0.977 . S
C629 C625 1.684 . S
C629 H655 0.979 . S
C629 H656 0.980 . S
C629 H657 0.983 . S
C630 H606 0.948 . S
C630 C631 1.391 . S
C630 C635 1.391 . S
C631 C630 1.391 . S
C631 C632 1.391 . S
C632 H609 0.947 . S
C632 C631 1.391 . S
C632 C633 1.392 . S
C633 H610 0.948 . S
C633 C632 1.392 . S
C633 C634 1.419 . S
C634 C633 1.419 . S
C634 C635 1.391 . S
C634 C638 1.397 . S
C635 C630 1.391 . S
C635 C634 1.391 . S
C635 C636 1.399 . S
C636 C635 1.399 . S
C636 C637 1.396 . S
C636 C639 1.453 . S
C636 C640 1.684 . S
C637 C627 1.723 . S
C637 C636 1.396 . S
C637 C638 1.394 . S
C638 C608 1.723 . S
C638 C634 1.397 . S
C638 C637 1.394 . S
C639 H611 0.982 . S
C639 H615 0.979 . S
C639 H616 0.977 . S
C639 C636 1.453 . S
C640 H612 0.979 . S
C640 H613 0.980 . S
C640 H614 0.983 . S
C640 C636 1.684 . S
H641 C659 0.948 . S
H642 C600 0.948 . S
H643 C618 0.979 . S
H644 C618 0.980 . S
H645 C618 0.983 . S
H646 C617 0.982 . S
H647 C617 0.979 . S
H648 C617 0.977 . S
H649 C619 0.948 . S
H650 C621 0.947 . S
H651 C622 0.948 . S
H652 C628 0.982 . S
H653 C628 0.979 . S
H654 C628 0.977 . S
H655 C629 0.979 . S
H656 C629 0.980 . S
H657 C629 0.983 . S
H658 C602 0.947 . S
C659 C602 1.392 . S
C659 C603 1.419 . S
C659 H641 0.948 . S
C660 C661 1.391 . S
C660 C664 1.391 . S
C660 H702 0.948 . S
C661 C660 1.391 . S
C661 C662 1.391 . S
C662 C661 1.391 . S
C662 H718 0.947 . S
C662 C719 1.392 . S
C663 C664 1.391 . S
C663 C667 1.397 . S
C663 C719 1.419 . S
C664 C660 1.391 . S
C664 C663 1.391 . S
C664 C665 1.399 . S
C665 C664 1.399 . S
C665 C668 1.396 . S
C665 C677 1.453 . S
C665 C678 1.684 . S
H666 C690 0.948 . S
C667 C663 1.397 . S
C667 C668 1.394 . S
C667 C686 1.723 . S
C668 C665 1.396 . S
C668 C667 1.394 . S
C668 C698 1.723 . S
H669 C692 0.947 . S
H670 C693 0.948 . S
H671 C699 0.982 . S
H672 C700 0.979 . S
H673 C700 0.980 . S
H674 C700 0.983 . S
H675 C699 0.979 . S
H676 C699 0.977 . S
C677 C665 1.453 . S
C677 H706 0.982 . S
C677 H707 0.979 . S
C677 H708 0.977 . S
C678 C665 1.684 . S
C678 H703 0.979 . S
C678 H704 0.980 . S
C678 H705 0.983 . S
C679 C680 1.391 . S
C679 C684 1.391 . S
C679 H709 0.948 . S
C680 C679 1.391 . S
C680 C681 1.391 . S
C681 C680 1.391 . S
C681 C682 1.392 . S
C681 H710 0.947 . S
C682 C681 1.392 . S
C682 C683 1.419 . S
C682 H711 0.948 . S
C683 C682 1.419 . S
C683 C684 1.391 . S
C683 C687 1.397 . S
C684 C679 1.391 . S
C684 C683 1.391 . S
C684 C685 1.399 . S
C685 C684 1.399 . S
C685 C686 1.396 . S
C685 C688 1.453 . S
C685 C689 1.684 . S
C686 C667 1.723 . S
C686 C685 1.396 . S
C686 C687 1.394 . S
C687 C683 1.397 . S
C687 C686 1.394 . S
C687 C697 1.723 . S
C688 C685 1.453 . S
C688 H712 0.982 . S
C688 H713 0.979 . S
C688 H714 0.977 . S
C689 C685 1.684 . S
C689 H715 0.979 . S
C689 H716 0.980 . S
C689 H717 0.983 . S
C690 H666 0.948 . S
C690 C691 1.391 . S
C690 C695 1.391 . S
C691 C690 1.391 . S
C691 C692 1.391 . S
C692 H669 0.947 . S
C692 C691 1.391 . S
C692 C693 1.392 . S
C693 H670 0.948 . S
C693 C692 1.392 . S
C693 C694 1.419 . S
C694 C693 1.419 . S
C694 C695 1.391 . S
C694 C698 1.397 . S
C695 C690 1.391 . S
C695 C694 1.391 . S
C695 C696 1.399 . S
C696 C695 1.399 . S
C696 C697 1.396 . S
C696 C699 1.453 . S
C696 C700 1.684 . S
C697 C687 1.723 . S
C697 C696 1.396 . S
C697 C698 1.394 . S
C698 C668 1.723 . S
C698 C694 1.397 . S
C698 C697 1.394 . S
C699 H671 0.982 . S
C699 H675 0.979 . S
C699 H676 0.977 . S
C699 C696 1.453 . S
C700 H672 0.979 . S
C700 H673 0.980 . S
C700 H674 0.983 . S
C700 C696 1.684 . S
H701 C719 0.948 . S
H702 C660 0.948 . S
H703 C678 0.979 . S
H704 C678 0.980 . S
H705 C678 0.983 . S
H706 C677 0.982 . S
H707 C677 0.979 . S
H708 C677 0.977 . S
H709 C679 0.948 . S
H710 C681 0.947 . S
H711 C682 0.948 . S
H712 C688 0.982 . S
H713 C688 0.979 . S
H714 C688 0.977 . S
H715 C689 0.979 . S
H716 C689 0.980 . S
H717 C689 0.983 . S
H718 C662 0.947 . S
C719 C662 1.392 . S
C719 C663 1.419 . S
C719 H701 0.948 . S
C720 C721 1.391 . S
C720 C724 1.391 . S
C720 H762 0.948 . S
C721 C720 1.391 . S
C721 C722 1.391 . S
C722 C721 1.391 . S
C722 H778 0.947 . S
C722 C779 1.392 . S
C723 C724 1.391 . S
C723 C727 1.397 . S
C723 C779 1.419 . S
C724 C720 1.391 . S
C724 C723 1.391 . S
C724 C725 1.399 . S
C725 C724 1.399 . S
C725 C728 1.396 . S
C725 C737 1.453 . S
C725 C738 1.684 . S
H726 C750 0.948 . S
C727 C723 1.397 . S
C727 C728 1.394 . S
C727 C746 1.723 . S
C728 C725 1.396 . S
C728 C727 1.394 . S
C728 C758 1.723 . S
H729 C752 0.947 . S
H730 C753 0.948 . S
H731 C759 0.982 . S
H732 C760 0.979 . S
H733 C760 0.980 . S
H734 C760 0.983 . S
H735 C759 0.979 . S
H736 C759 0.977 . S
C737 C725 1.453 . S
C737 H766 0.982 . S
C737 H767 0.979 . S
C737 H768 0.977 . S
C738 C725 1.684 . S
C738 H763 0.979 . S
C738 H764 0.980 . S
C738 H765 0.983 . S
C739 C740 1.391 . S
C739 C744 1.391 . S
C739 H769 0.948 . S
C740 C739 1.391 . S
C740 C741 1.391 . S
C741 C740 1.391 . S
C741 C742 1.392 . S
C741 H770 0.947 . S
C742 C741 1.392 . S
C742 C743 1.419 . S
C742 H771 0.948 . S
C743 C742 1.419 . S
C743 C744 1.391 . S
C743 C747 1.397 . S
C744 C739 1.391 . S
C744 C743 1.391 . S
C744 C745 1.399 . S
C745 C744 1.399 . S
C745 C746 1.396 . S
C745 C748 1.453 . S
C745 C749 1.684 . S
C746 C727 1.723 . S
C746 C745 1.396 . S
C746 C747 1.394 . S
C747 C743 1.397 . S
C747 C746 1.394 . S
C747 C757 1.723 . S
C748 C745 1.453 . S
C748 H772 0.982 . S
C748 H773 0.979 . S
C748 H774 0.977 . S
C749 C745 1.684 . S
C749 H775 0.979 . S
C749 H776 0.980 . S
C749 H777 0.983 . S
C750 H726 0.948 . S
C750 C751 1.391 . S
C750 C755 1.391 . S
C751 C750 1.391 . S
C751 C752 1.391 . S
C752 H729 0.947 . S
C752 C751 1.391 . S
C752 C753 1.392 . S
C753 H730 0.948 . S
C753 C752 1.392 . S
C753 C754 1.419 . S
C754 C753 1.419 . S
C754 C755 1.391 . S
C754 C758 1.397 . S
C755 C750 1.391 . S
C755 C754 1.391 . S
C755 C756 1.399 . S
C756 C755 1.399 . S
C756 C757 1.396 . S
C756 C759 1.453 . S
C756 C760 1.684 . S
C757 C747 1.723 . S
C757 C756 1.396 . S
C757 C758 1.394 . S
C758 C728 1.723 . S
C758 C754 1.397 . S
C758 C757 1.394 . S
C759 H731 0.982 . S
C759 H735 0.979 . S
C759 H736 0.977 . S
C759 C756 1.453 . S
C760 H732 0.979 . S
C760 H733 0.980 . S
C760 H734 0.983 . S
C760 C756 1.684 . S
H761 C779 0.948 . S
H762 C720 0.948 . S
H763 C738 0.979 . S
H764 C738 0.980 . S
H765 C738 0.983 . S
H766 C737 0.982 . S
H767 C737 0.979 . S
H768 C737 0.977 . S
H769 C739 0.948 . S
H770 C741 0.947 . S
H771 C742 0.948 . S
H772 C748 0.982 . S
H773 C748 0.979 . S
H774 C748 0.977 . S
H775 C749 0.979 . S
H776 C749 0.980 . S
H777 C749 0.983 . S
H778 C722 0.947 . S
C779 C722 1.392 . S
C779 C723 1.419 . S
C779 H761 0.948 . S
C780 C781 1.391 . S
C780 C784 1.391 . S
C780 H822 0.948 . S
C781 C780 1.391 . S
C781 C782 1.391 . S
C782 C781 1.391 . S
C782 H838 0.947 . S
C782 C839 1.392 1_554 S
C783 C784 1.391 1_556 S
C783 C787 1.397 . S
C783 C839 1.419 . S
C784 C780 1.391 . S
C784 C783 1.391 1_554 S
C784 C785 1.399 . S
C785 C784 1.399 . S
C785 C788 1.396 1_554 S
C785 C797 1.453 . S
C785 C798 1.684 . S
H786 C810 0.948 . S
C787 C783 1.397 . S
C787 C788 1.394 . S
C787 C806 1.723 . S
C788 C785 1.396 1_556 S
C788 C787 1.394 . S
C788 C818 1.723 . S
H789 C812 0.947 1_554 S
H790 C813 0.948 1_554 S
H791 C819 0.982 . S
H792 C820 0.979 . S
H793 C820 0.980 . S
H794 C820 0.983 . S
H795 C819 0.979 . S
H796 C819 0.977 . S
C797 C785 1.453 . S
C797 H826 0.982 . S
C797 H827 0.979 . S
C797 H828 0.977 . S
C798 C785 1.684 . S
C798 H823 0.979 1_554 S
C798 H824 0.980 . S
C798 H825 0.983 . S
C799 C800 1.391 . S
C799 C804 1.391 . S
C799 H829 0.948 . S
C800 C799 1.391 . S
C800 C801 1.391 . S
C801 C800 1.391 . S
C801 C802 1.392 . S
C801 H830 0.947 . S
C802 C801 1.392 . S
C802 C803 1.419 . S
C802 H831 0.948 . S
C803 C802 1.419 . S
C803 C804 1.391 . S
C803 C807 1.397 . S
C804 C799 1.391 . S
C804 C803 1.391 . S
C804 C805 1.399 . S
C805 C804 1.399 . S
C805 C806 1.396 . S
C805 C808 1.453 . S
C805 C809 1.684 . S
C806 C787 1.723 . S
C806 C805 1.396 . S
C806 C807 1.394 . S
C807 C803 1.397 . S
C807 C806 1.394 . S
C807 C817 1.723 . S
C808 C805 1.453 . S
C808 H832 0.982 . S
C808 H833 0.979 . S
C808 H834 0.977 . S
C809 C805 1.684 . S
C809 H835 0.979 . S
C809 H836 0.980 . S
C809 H837 0.983 . S
C810 H786 0.948 . S
C810 C811 1.391 . S
C810 C815 1.391 . S
C811 C810 1.391 . S
C811 C812 1.391 . S
C812 H789 0.947 1_556 S
C812 C811 1.391 . S
C812 C813 1.392 . S
C813 H790 0.948 1_556 S
C813 C812 1.392 . S
C813 C814 1.419 . S
C814 C813 1.419 . S
C814 C815 1.391 . S
C814 C818 1.397 . S
C815 C810 1.391 . S
C815 C814 1.391 . S
C815 C816 1.399 . S
C816 C815 1.399 . S
C816 C817 1.396 . S
C816 C819 1.453 . S
C816 C820 1.684 . S
C817 C807 1.723 . S
C817 C816 1.396 . S
C817 C818 1.394 . S
C818 C788 1.723 . S
C818 C814 1.397 . S
C818 C817 1.394 . S
C819 H791 0.982 . S
C819 H795 0.979 . S
C819 H796 0.977 . S
C819 C816 1.453 . S
C820 H792 0.979 . S
C820 H793 0.980 . S
C820 H794 0.983 . S
C820 C816 1.684 . S
H821 C839 0.948 . S
H822 C780 0.948 . S
H823 C798 0.979 1_556 S
H824 C798 0.980 . S
H825 C798 0.983 . S
H826 C797 0.982 . S
H827 C797 0.979 . S
H828 C797 0.977 . S
H829 C799 0.948 . S
H830 C801 0.947 . S
H831 C802 0.948 . S
H832 C808 0.982 . S
H833 C808 0.979 . S
H834 C808 0.977 . S
H835 C809 0.979 . S
H836 C809 0.980 . S
H837 C809 0.983 . S
H838 C782 0.947 . S
C839 C782 1.392 1_556 S
C839 C783 1.419 . S
C839 H821 0.948 . S
C840 C841 1.391 . S
C840 C844 1.391 . S
C840 H882 0.948 . S
C841 C840 1.391 . S
C841 C842 1.391 . S
C842 C841 1.391 . S
C842 H898 0.947 . S
C842 C899 1.392 . S
C843 C844 1.391 . S
C843 C847 1.397 . S
C843 C899 1.419 . S
C844 C840 1.391 . S
C844 C843 1.391 . S
C844 C845 1.399 . S
C845 C844 1.399 . S
C845 C848 1.396 . S
C845 C857 1.453 . S
C845 C858 1.684 . S
H846 C870 0.948 . S
C847 C843 1.397 . S
C847 C848 1.394 . S
C847 C866 1.723 . S
C848 C845 1.396 . S
C848 C847 1.394 . S
C848 C878 1.723 . S
H849 C872 0.947 . S
H850 C873 0.948 . S
H851 C879 0.982 . S
H852 C880 0.979 . S
H853 C880 0.980 . S
H854 C880 0.983 . S
H855 C879 0.979 . S
H856 C879 0.977 . S
C857 C845 1.453 . S
C857 H886 0.982 . S
C857 H887 0.979 . S
C857 H888 0.977 . S
C858 C845 1.684 . S
C858 H883 0.979 . S
C858 H884 0.980 . S
C858 H885 0.983 . S
C859 C860 1.391 . S
C859 C864 1.391 . S
C859 H889 0.948 . S
C860 C859 1.391 . S
C860 C861 1.391 . S
C861 C860 1.391 . S
C861 C862 1.392 . S
C861 H890 0.947 . S
C862 C861 1.392 . S
C862 C863 1.419 . S
C862 H891 0.948 . S
C863 C862 1.419 . S
C863 C864 1.391 . S
C863 C867 1.397 . S
C864 C859 1.391 . S
C864 C863 1.391 . S
C864 C865 1.399 . S
C865 C864 1.399 . S
C865 C866 1.396 . S
C865 C868 1.453 . S
C865 C869 1.684 . S
C866 C847 1.723 . S
C866 C865 1.396 . S
C866 C867 1.394 . S
C867 C863 1.397 . S
C867 C866 1.394 . S
C867 C877 1.723 . S
C868 C865 1.453 . S
C868 H892 0.982 . S
C868 H893 0.979 . S
C868 H894 0.977 . S
C869 C865 1.684 . S
C869 H895 0.979 . S
C869 H896 0.980 . S
C869 H897 0.983 . S
C870 H846 0.948 . S
C870 C871 1.391 . S
C870 C875 1.391 . S
C871 C870 1.391 . S
C871 C872 1.391 . S
C872 H849 0.947 . S
C872 C871 1.391 . S
C872 C873 1.392 . S
C873 H850 0.948 . S
C873 C872 1.392 . S
C873 C874 1.419 . S
C874 C873 1.419 . S
C874 C875 1.391 . S
C874 C878 1.397 . S
C875 C870 1.391 . S
C875 C874 1.391 . S
C875 C876 1.399 . S
C876 C875 1.399 . S
C876 C877 1.396 . S
C876 C879 1.453 . S
C876 C880 1.684 . S
C877 C867 1.723 . S
C877 C876 1.396 . S
C877 C878 1.394 . S
C878 C848 1.723 . S
C878 C874 1.397 . S
C878 C877 1.394 . S
C879 H851 0.982 . S
C879 H855 0.979 . S
C879 H856 0.977 . S
C879 C876 1.453 . S
C880 H852 0.979 . S
C880 H853 0.980 . S
C880 H854 0.983 . S
C880 C876 1.684 . S
H881 C899 0.948 . S
H882 C840 0.948 . S
H883 C858 0.979 . S
H884 C858 0.980 . S
H885 C858 0.983 . S
H886 C857 0.982 . S
H887 C857 0.979 . S
H888 C857 0.977 . S
H889 C859 0.948 . S
H890 C861 0.947 . S
H891 C862 0.948 . S
H892 C868 0.982 . S
H893 C868 0.979 . S
H894 C868 0.977 . S
H895 C869 0.979 . S
H896 C869 0.980 . S
H897 C869 0.983 . S
H898 C842 0.947 . S
C899 C842 1.392 . S
C899 C843 1.419 . S
C899 H881 0.948 . S
C900 C901 1.391 . S
C900 C904 1.391 1_565 S
C900 H942 0.948 1_556 S
C901 C900 1.391 . S
C901 C902 1.391 . S
C902 C901 1.391 . S
C902 H958 0.947 . S
C902 C959 1.392 . S
C903 C904 1.400 . S
C903 C907 1.434 . S
C903 C959 1.375 1_545 S
C904 C900 1.391 1_545 S
C904 C903 1.400 . S
C904 C905 1.399 . S
C905 C904 1.399 . S
C905 C908 1.396 . S
C905 C917 1.456 . S
C905 C918 1.684 1_556 S
H906 C930 0.948 . S
C907 C903 1.434 . S
C907 C908 1.394 . S
C907 C926 1.723 . S
C908 C905 1.396 . S
C908 C907 1.394 . S
C908 C938 1.723 . S
H909 C932 0.947 . S
H910 C933 0.948 . S
H911 C939 0.982 . S
H912 C940 0.979 . S
H913 C940 0.980 . S
H914 C940 0.983 . S
H915 C939 0.979 . S
H916 C939 0.977 . S
C917 C905 1.456 . S
C917 H946 1.005 . S
C917 H947 0.965 1_556 S
C917 H948 0.966 1_556 S
C918 C905 1.684 1_554 S
C918 H943 0.979 . S
C918 H944 0.980 . S
C918 H945 0.983 . S
C919 C920 1.391 . S
C919 C924 1.391 . S
C919 H949 0.948 1_545 S
C920 C919 1.391 . S
C920 C921 1.391 . S
C921 C920 1.391 . S
C921 C922 1.392 . S
C921 H950 0.947 . S
C922 C921 1.392 . S
C922 C923 1.419 . S
C922 H951 0.948 . S
C923 C922 1.419 . S
C923 C924 1.391 . S
C923 C927 1.397 . S
C924 C919 1.391 . S
C924 C923 1.391 . S
C924 C925 1.399 . S
C925 C924 1.399 . S
C925 C926 1.396 . S
C925 C928 1.456 . S
C925 C929 1.684 1_545 S
C926 C907 1.723 . S
C926 C925 1.396 . S
C926 C927 1.394 . S
C927 C923 1.397 . S
C927 C926 1.394 . S
C927 C937 1.723 . S
C928 C925 1.456 . S
C928 H952 1.005 . S
C928 H953 0.965 1_545 S
C928 H954 0.966 1_545 S
C929 C925 1.684 1_565 S
C929 H955 0.979 . S
C929 H956 0.980 . S
C929 H957 0.983 . S
C930 H906 0.948 . S
C930 C931 1.391 . S
C930 C935 1.391 1_554 S
C931 C930 1.391 . S
C931 C932 1.391 . S
C932 H909 0.947 . S
C932 C931 1.391 . S
C932 C933 1.392 . S
C933 H910 0.948 . S
C933 C932 1.392 . S
C933 C934 1.376 1_554 S
C934 C933 1.376 1_556 S
C934 C935 1.400 . S
C934 C938 1.434 . S
C935 C930 1.391 1_556 S
C935 C934 1.400 . S
C935 C936 1.399 . S
C936 C935 1.399 . S
C936 C937 1.396 . S
C936 C939 1.453 . S
C936 C940 1.684 . S
C937 C927 1.723 . S
C937 C936 1.396 . S
C937 C938 1.394 . S
C938 C908 1.723 . S
C938 C934 1.434 . S
C938 C937 1.394 . S
C939 H911 0.982 . S
C939 H915 0.979 . S
C939 H916 0.977 . S
C939 C936 1.453 . S
C940 H912 0.979 . S
C940 H913 0.980 . S
C940 H914 0.983 . S
C940 C936 1.684 . S
H941 C959 0.948 . S
H942 C900 0.948 1_554 S
H943 C918 0.979 . S
H944 C918 0.980 . S
H945 C918 0.983 . S
H946 C917 1.005 . S
H947 C917 0.965 1_554 S
H948 C917 0.966 1_554 S
H949 C919 0.948 1_565 S
H950 C921 0.947 . S
H951 C922 0.948 . S
H952 C928 1.005 . S
H953 C928 0.965 1_565 S
H954 C928 0.966 1_565 S
H955 C929 0.979 . S
H956 C929 0.980 . S
H957 C929 0.983 . S
H958 C902 0.947 . S
C959 C902 1.392 . S
C959 C903 1.375 1_565 S
C959 H941 0.948 . S
Li960 N977 1.990 . S
Li960 O1020 1.956 . S
Li960 O1021 1.970 1_556 S
Li960 O1022 1.961 . S
Li961 N985 1.990 . S
Li961 O1020 1.970 1_554 S
Li961 O1021 1.956 . S
Li961 O1023 1.961 . S
Li962 N1007 1.990 . S
Li962 O1020 1.961 . S
Li962 O1022 1.956 . S
Li962 O1023 1.970 1_556 S
Li963 N1013 1.990 . S
Li963 O1021 1.961 . S
Li963 O1022 1.970 1_554 S
Li963 O1023 1.956 . S
C964 C966 1.348 1_556 S
C964 C967 1.356 . S
C964 O1020 1.325 . S
N965 C968 1.314 1_556 S
N965 C969 1.279 . S
C966 C964 1.348 1_554 S
C966 C968 1.353 . S
C966 H1024 0.929 . S
C967 C964 1.356 . S
C967 C969 1.358 . S
C967 H1025 0.930 . S
C968 N965 1.314 1_554 S
C968 C966 1.353 . S
C968 H1026 0.930 . S
C969 N965 1.279 . S
C969 C967 1.358 . S
C969 H1027 0.930 . S
C970 C973 1.348 . S
C970 C974 1.356 . S
C970 O1021 1.325 . S
C971 N972 1.279 . S
C971 C974 1.358 . S
C971 H1028 0.930 . S
N972 C971 1.279 . S
N972 C975 1.314 . S
C973 C970 1.348 . S
C973 C975 1.353 . S
C973 H1029 0.929 . S
C974 C970 1.356 . S
C974 C971 1.358 . S
C974 H1030 0.930 . S
C975 N972 1.314 . S
C975 C973 1.353 . S
C975 H1031 0.930 . S
C976 N977 1.314 . S
C976 C981 1.353 . S
C976 H982 0.930 . S
N977 Li960 1.990 . S
N977 C976 1.314 . S
N977 C979 1.279 . S
C978 C979 1.358 . S
C978 C980 1.356 . S
C978 H1032 0.930 . S
C979 N977 1.279 . S
C979 C978 1.358 . S
C979 H983 0.930 . S
C980 C978 1.356 . S
C980 C981 1.348 . S
C981 C976 1.353 . S
C981 C980 1.348 . S
C981 H1033 0.929 . S
H982 C976 0.930 . S
H983 C979 0.930 . S
C984 N985 1.314 . S
C984 C986 1.353 . S
C984 H990 0.930 . S
N985 Li961 1.990 . S
N985 C984 1.314 . S
N985 C988 1.279 . S
C986 C984 1.353 . S
C986 C989 1.348 . S
C986 H1034 0.929 . S
C987 C988 1.358 . S
C987 C989 1.356 . S
C987 H1035 0.930 . S
C988 N985 1.279 . S
C988 C987 1.358 . S
C988 H991 0.930 . S
C989 C986 1.348 . S
C989 C987 1.356 . S
H990 C984 0.930 . S
H991 C988 0.930 . S
C992 C994 1.348 . S
C992 C995 1.356 . S
C992 O1022 1.325 . S
N993 C996 1.314 . S
N993 C997 1.279 . S
C994 C992 1.348 . S
C994 C996 1.353 . S
C994 H1036 0.929 . S
C995 C992 1.356 . S
C995 C997 1.358 . S
C995 H1037 0.930 . S
C996 N993 1.314 . S
C996 C994 1.353 . S
C996 H1038 0.930 . S
C997 N993 1.279 . S
C997 C995 1.358 . S
C997 H1039 0.930 . S
C998 C999 1.348 1_554 S
C998 C1000 1.356 . S
C998 O1023 1.325 . S
C999 C998 1.348 1_556 S
C999 C1001 1.353 . S
C999 H1040 0.929 . S
C1000 C998 1.356 . S
C1000 C1002 1.358 . S
C1000 H1041 0.930 . S
C1001 C999 1.353 . S
C1001 N1003 1.314 1_556 S
C1001 H1042 0.930 . S
C1002 C1000 1.358 . S
C1002 N1003 1.279 . S
C1002 H1043 0.930 . S
N1003 C1001 1.314 1_554 S
N1003 C1002 1.279 . S
C1004 C1006 1.353 . S
C1004 N1007 1.314 . S
C1004 H1010 0.930 . S
C1005 N1007 1.279 . S
C1005 C1008 1.358 . S
C1005 H1011 0.930 . S
C1006 C1004 1.353 . S
C1006 C1009 1.348 . S
C1006 H1044 0.929 . S
N1007 Li962 1.990 . S
N1007 C1004 1.314 . S
N1007 C1005 1.279 . S
C1008 C1005 1.358 . S
C1008 C1009 1.356 . S
C1008 H1045 0.930 . S
C1009 C1006 1.348 . S
C1009 C1008 1.356 . S
H1010 C1004 0.930 . S
H1011 C1005 0.930 . S
C1012 N1013 1.314 . S
C1012 C1014 1.353 . S
C1012 H1018 0.930 . S
N1013 Li963 1.990 . S
N1013 C1012 1.314 . S
N1013 C1016 1.279 . S
C1014 C1012 1.353 . S
C1014 C1017 1.348 . S
C1014 H1046 0.929 . S
C1015 C1016 1.358 . S
C1015 C1017 1.356 . S
C1015 H1047 0.930 . S
C1016 N1013 1.279 . S
C1016 C1015 1.358 . S
C1016 H1019 0.930 . S
C1017 C1014 1.348 . S
C1017 C1015 1.356 . S
H1018 C1012 0.930 . S
H1019 C1016 0.930 . S
O1020 Li960 1.956 . S
O1020 Li961 1.970 1_556 S
O1020 Li962 1.961 . S
O1020 C964 1.325 . S
O1021 Li960 1.970 1_554 S
O1021 Li961 1.956 . S
O1021 Li963 1.961 . S
O1021 C970 1.325 . S
O1022 Li960 1.961 . S
O1022 Li962 1.956 . S
O1022 Li963 1.970 1_556 S
O1022 C992 1.325 . S
O1023 Li961 1.961 . S
O1023 Li962 1.970 1_554 S
O1023 Li963 1.956 . S
O1023 C998 1.325 . S
H1024 C966 0.929 . S
H1025 C967 0.930 . S
H1026 C968 0.930 . S
H1027 C969 0.930 . S
H1028 C971 0.930 . S
H1029 C973 0.929 . S
H1030 C974 0.930 . S
H1031 C975 0.930 . S
H1032 C978 0.930 . S
H1033 C981 0.929 . S
H1034 C986 0.929 . S
H1035 C987 0.930 . S
H1036 C994 0.929 . S
H1037 C995 0.930 . S
H1038 C996 0.930 . S
H1039 C997 0.930 . S
H1040 C999 0.929 . S
H1041 C1000 0.930 . S
H1042 C1001 0.930 . S
H1043 C1002 0.930 . S
H1044 C1006 0.929 . S
H1045 C1008 0.930 . S
H1046 C1014 0.929 . S
H1047 C1015 0.930 . S
Li1048 N1065 1.990 . S
Li1048 O1108 1.956 . S
Li1048 O1109 1.970 . S
Li1048 O1110 1.961 . S
Li1049 N1073 1.990 . S
Li1049 O1108 1.970 . S
Li1049 O1109 1.956 . S
Li1049 O1111 1.961 . S
Li1050 N1095 1.990 . S
Li1050 O1108 1.961 . S
Li1050 O1110 1.956 . S
Li1050 O1111 1.970 . S
Li1051 N1101 1.990 . S
Li1051 O1109 1.961 . S
Li1051 O1110 1.970 . S
Li1051 O1111 1.956 . S
C1052 C1054 1.348 . S
C1052 C1055 1.356 . S
C1052 O1108 1.325 . S
N1053 C1056 1.314 . S
N1053 C1057 1.279 . S
C1054 C1052 1.348 . S
C1054 C1056 1.353 . S
C1054 H1112 0.929 . S
C1055 C1052 1.356 . S
C1055 C1057 1.358 . S
C1055 H1113 0.930 . S
C1056 N1053 1.314 . S
C1056 C1054 1.353 . S
C1056 H1114 0.930 . S
C1057 N1053 1.279 . S
C1057 C1055 1.358 . S
C1057 H1115 0.930 . S
C1058 C1061 1.348 . S
C1058 C1062 1.356 . S
C1058 O1109 1.325 . S
C1059 N1060 1.279 . S
C1059 C1062 1.358 . S
C1059 H1116 0.930 . S
N1060 C1059 1.279 . S
N1060 C1063 1.314 . S
C1061 C1058 1.348 . S
C1061 C1063 1.353 . S
C1061 H1117 0.929 . S
C1062 C1058 1.356 . S
C1062 C1059 1.358 . S
C1062 H1118 0.930 . S
C1063 N1060 1.314 . S
C1063 C1061 1.353 . S
C1063 H1119 0.930 . S
C1064 N1065 1.314 . S
C1064 C1069 1.353 . S
C1064 H1070 0.930 . S
N1065 Li1048 1.990 . S
N1065 C1064 1.314 . S
N1065 C1067 1.279 . S
C1066 C1067 1.358 . S
C1066 C1068 1.356 . S
C1066 H1120 0.930 . S
C1067 N1065 1.279 . S
C1067 C1066 1.358 . S
C1067 H1071 0.930 . S
C1068 C1066 1.356 . S
C1068 C1069 1.348 . S
C1069 C1064 1.353 . S
C1069 C1068 1.348 . S
C1069 H1121 0.929 . S
H1070 C1064 0.930 . S
H1071 C1067 0.930 . S
C1072 N1073 1.314 . S
C1072 C1074 1.353 . S
C1072 H1078 0.930 . S
N1073 Li1049 1.990 . S
N1073 C1072 1.314 . S
N1073 C1076 1.279 . S
C1074 C1072 1.353 . S
C1074 C1077 1.348 . S
C1074 H1122 0.929 . S
C1075 C1076 1.358 . S
C1075 C1077 1.356 . S
C1075 H1123 0.930 . S
C1076 N1073 1.279 . S
C1076 C1075 1.358 . S
C1076 H1079 0.930 . S
C1077 C1074 1.348 . S
C1077 C1075 1.356 . S
H1078 C1072 0.930 . S
H1079 C1076 0.930 . S
C1080 C1082 1.348 . S
C1080 C1083 1.356 . S
C1080 O1110 1.325 . S
N1081 C1084 1.314 . S
N1081 C1085 1.279 . S
C1082 C1080 1.348 . S
C1082 C1084 1.353 . S
C1082 H1124 0.929 . S
C1083 C1080 1.356 . S
C1083 C1085 1.358 . S
C1083 H1125 0.930 . S
C1084 N1081 1.314 . S
C1084 C1082 1.353 . S
C1084 H1126 0.930 . S
C1085 N1081 1.279 . S
C1085 C1083 1.358 . S
C1085 H1127 0.930 . S
C1086 C1087 1.348 . S
C1086 C1088 1.356 . S
C1086 O1111 1.325 . S
C1087 C1086 1.348 . S
C1087 C1089 1.353 . S
C1087 H1128 0.929 . S
C1088 C1086 1.356 . S
C1088 C1090 1.358 . S
C1088 H1129 0.930 . S
C1089 C1087 1.353 . S
C1089 N1091 1.314 . S
C1089 H1130 0.930 . S
C1090 C1088 1.358 . S
C1090 N1091 1.279 . S
C1090 H1131 0.930 . S
N1091 C1089 1.314 . S
N1091 C1090 1.279 . S
C1092 C1094 1.353 . S
C1092 N1095 1.314 . S
C1092 H1098 0.930 . S
C1093 N1095 1.279 . S
C1093 C1096 1.358 . S
C1093 H1099 0.930 . S
C1094 C1092 1.353 . S
C1094 C1097 1.348 . S
C1094 H1132 0.929 . S
N1095 Li1050 1.990 . S
N1095 C1092 1.314 . S
N1095 C1093 1.279 . S
C1096 C1093 1.358 . S
C1096 C1097 1.356 . S
C1096 H1133 0.930 . S
C1097 C1094 1.348 . S
C1097 C1096 1.356 . S
H1098 C1092 0.930 . S
H1099 C1093 0.930 . S
C1100 N1101 1.314 . S
C1100 C1102 1.353 . S
C1100 H1106 0.930 . S
N1101 Li1051 1.990 . S
N1101 C1100 1.314 . S
N1101 C1104 1.279 . S
C1102 C1100 1.353 . S
C1102 C1105 1.348 . S
C1102 H1134 0.929 . S
C1103 C1104 1.358 . S
C1103 C1105 1.356 . S
C1103 H1135 0.930 . S
C1104 N1101 1.279 . S
C1104 C1103 1.358 . S
C1104 H1107 0.930 . S
C1105 C1102 1.348 . S
C1105 C1103 1.356 . S
H1106 C1100 0.930 . S
H1107 C1104 0.930 . S
O1108 Li1048 1.956 . S
O1108 Li1049 1.970 . S
O1108 Li1050 1.961 . S
O1108 C1052 1.325 . S
O1109 Li1048 1.970 . S
O1109 Li1049 1.956 . S
O1109 Li1051 1.961 . S
O1109 C1058 1.325 . S
O1110 Li1048 1.961 . S
O1110 Li1050 1.956 . S
O1110 Li1051 1.970 . S
O1110 C1080 1.325 . S
O1111 Li1049 1.961 . S
O1111 Li1050 1.970 . S
O1111 Li1051 1.956 . S
O1111 C1086 1.325 . S
H1112 C1054 0.929 . S
H1113 C1055 0.930 . S
H1114 C1056 0.930 . S
H1115 C1057 0.930 . S
H1116 C1059 0.930 . S
H1117 C1061 0.929 . S
H1118 C1062 0.930 . S
H1119 C1063 0.930 . S
H1120 C1066 0.930 . S
H1121 C1069 0.929 . S
H1122 C1074 0.929 . S
H1123 C1075 0.930 . S
H1124 C1082 0.929 . S
H1125 C1083 0.930 . S
H1126 C1084 0.930 . S
H1127 C1085 0.930 . S
H1128 C1087 0.929 . S
H1129 C1088 0.930 . S
H1130 C1089 0.930 . S
H1131 C1090 0.930 . S
H1132 C1094 0.929 . S
H1133 C1096 0.930 . S
H1134 C1102 0.929 . S
H1135 C1103 0.930 . S
Li1136 N1153 1.990 . S
Li1136 O1196 1.956 . S
Li1136 O1197 1.970 1_556 S
Li1136 O1198 1.961 . S
Li1137 N1161 1.990 . S
Li1137 O1196 1.970 1_554 S
Li1137 O1197 1.956 . S
Li1137 O1199 1.961 . S
Li1138 N1183 1.990 . S
Li1138 O1196 1.961 . S
Li1138 O1198 1.956 . S
Li1138 O1199 1.970 1_556 S
Li1139 N1189 1.990 . S
Li1139 O1197 1.961 . S
Li1139 O1198 1.970 1_554 S
Li1139 O1199 1.956 . S
C1140 C1142 1.348 1_556 S
C1140 C1143 1.356 . S
C1140 O1196 1.325 . S
N1141 C1144 1.314 1_556 S
N1141 C1145 1.279 . S
C1142 C1140 1.348 1_554 S
C1142 C1144 1.353 . S
C1142 H1200 0.929 . S
C1143 C1140 1.356 . S
C1143 C1145 1.358 . S
C1143 H1201 0.930 . S
C1144 N1141 1.314 1_554 S
C1144 C1142 1.353 . S
C1144 H1202 0.930 . S
C1145 N1141 1.279 . S
C1145 C1143 1.358 . S
C1145 H1203 0.930 . S
C1146 C1149 1.348 . S
C1146 C1150 1.356 . S
C1146 O1197 1.325 . S
C1147 N1148 1.279 . S
C1147 C1150 1.358 . S
C1147 H1204 0.930 . S
N1148 C1147 1.279 . S
N1148 C1151 1.314 . S
C1149 C1146 1.348 . S
C1149 C1151 1.353 . S
C1149 H1205 0.929 . S
C1150 C1146 1.356 . S
C1150 C1147 1.358 . S
C1150 H1206 0.930 . S
C1151 N1148 1.314 . S
C1151 C1149 1.353 . S
C1151 H1207 0.930 . S
C1152 N1153 1.314 . S
C1152 C1157 1.353 . S
C1152 H1158 0.930 . S
N1153 Li1136 1.990 . S
N1153 C1152 1.314 . S
N1153 C1155 1.279 . S
C1154 C1155 1.358 . S
C1154 C1156 1.356 . S
C1154 H1208 0.930 . S
C1155 N1153 1.279 . S
C1155 C1154 1.358 . S
C1155 H1159 0.930 . S
C1156 C1154 1.356 . S
C1156 C1157 1.348 . S
C1157 C1152 1.353 . S
C1157 C1156 1.348 . S
C1157 H1209 0.929 . S
H1158 C1152 0.930 . S
H1159 C1155 0.930 . S
C1160 N1161 1.314 . S
C1160 C1162 1.353 . S
C1160 H1166 0.930 . S
N1161 Li1137 1.990 . S
N1161 C1160 1.314 . S
N1161 C1164 1.279 . S
C1162 C1160 1.353 . S
C1162 C1165 1.348 . S
C1162 H1210 0.929 . S
C1163 C1164 1.358 . S
C1163 C1165 1.356 . S
C1163 H1211 0.930 . S
C1164 N1161 1.279 . S
C1164 C1163 1.358 . S
C1164 H1167 0.930 . S
C1165 C1162 1.348 . S
C1165 C1163 1.356 . S
H1166 C1160 0.930 . S
H1167 C1164 0.930 . S
C1168 C1170 1.348 . S
C1168 C1171 1.356 . S
C1168 O1198 1.325 . S
N1169 C1172 1.314 . S
N1169 C1173 1.279 . S
C1170 C1168 1.348 . S
C1170 C1172 1.353 . S
C1170 H1212 0.929 . S
C1171 C1168 1.356 . S
C1171 C1173 1.358 . S
C1171 H1213 0.930 . S
C1172 N1169 1.314 . S
C1172 C1170 1.353 . S
C1172 H1214 0.930 . S
C1173 N1169 1.279 . S
C1173 C1171 1.358 . S
C1173 H1215 0.930 . S
C1174 C1175 1.348 1_554 S
C1174 C1176 1.356 . S
C1174 O1199 1.325 . S
C1175 C1174 1.348 1_556 S
C1175 C1177 1.353 . S
C1175 H1216 0.929 . S
C1176 C1174 1.356 . S
C1176 C1178 1.358 . S
C1176 H1217 0.930 . S
C1177 C1175 1.353 . S
C1177 N1179 1.314 1_556 S
C1177 H1218 0.930 . S
C1178 C1176 1.358 . S
C1178 N1179 1.279 . S
C1178 H1219 0.930 . S
N1179 C1177 1.314 1_554 S
N1179 C1178 1.279 . S
C1180 C1182 1.353 . S
C1180 N1183 1.314 . S
C1180 H1186 0.930 . S
C1181 N1183 1.279 . S
C1181 C1184 1.358 . S
C1181 H1187 0.930 . S
C1182 C1180 1.353 . S
C1182 C1185 1.348 . S
C1182 H1220 0.929 . S
N1183 Li1138 1.990 . S
N1183 C1180 1.314 . S
N1183 C1181 1.279 . S
C1184 C1181 1.358 . S
C1184 C1185 1.356 . S
C1184 H1221 0.930 . S
C1185 C1182 1.348 . S
C1185 C1184 1.356 . S
H1186 C1180 0.930 . S
H1187 C1181 0.930 . S
C1188 N1189 1.314 . S
C1188 C1190 1.353 . S
C1188 H1194 0.930 . S
N1189 Li1139 1.990 . S
N1189 C1188 1.314 . S
N1189 C1192 1.279 . S
C1190 C1188 1.353 . S
C1190 C1193 1.348 . S
C1190 H1222 0.929 . S
C1191 C1192 1.358 . S
C1191 C1193 1.356 . S
C1191 H1223 0.930 . S
C1192 N1189 1.279 . S
C1192 C1191 1.358 . S
C1192 H1195 0.930 . S
C1193 C1190 1.348 . S
C1193 C1191 1.356 . S
H1194 C1188 0.930 . S
H1195 C1192 0.930 . S
O1196 Li1136 1.956 . S
O1196 Li1137 1.970 1_556 S
O1196 Li1138 1.961 . S
O1196 C1140 1.325 . S
O1197 Li1136 1.970 1_554 S
O1197 Li1137 1.956 . S
O1197 Li1139 1.961 . S
O1197 C1146 1.325 . S
O1198 Li1136 1.961 . S
O1198 Li1138 1.956 . S
O1198 Li1139 1.970 1_556 S
O1198 C1168 1.325 . S
O1199 Li1137 1.961 . S
O1199 Li1138 1.970 1_554 S
O1199 Li1139 1.956 . S
O1199 C1174 1.325 . S
H1200 C1142 0.929 . S
H1201 C1143 0.930 . S
H1202 C1144 0.930 . S
H1203 C1145 0.930 . S
H1204 C1147 0.930 . S
H1205 C1149 0.929 . S
H1206 C1150 0.930 . S
H1207 C1151 0.930 . S
H1208 C1154 0.930 . S
H1209 C1157 0.929 . S
H1210 C1162 0.929 . S
H1211 C1163 0.930 . S
H1212 C1170 0.929 . S
H1213 C1171 0.930 . S
H1214 C1172 0.930 . S
H1215 C1173 0.930 . S
H1216 C1175 0.929 . S
H1217 C1176 0.930 . S
H1218 C1177 0.930 . S
H1219 C1178 0.930 . S
H1220 C1182 0.929 . S
H1221 C1184 0.930 . S
H1222 C1190 0.929 . S
H1223 C1191 0.930 . S
Li1224 N1241 1.990 . S
Li1224 O1284 1.956 . S
Li1224 O1285 1.970 1_545 S
Li1224 O1286 1.961 . S
Li1225 N1249 1.990 . S
Li1225 O1284 1.970 1_565 S
Li1225 O1285 1.956 . S
Li1225 O1287 1.961 . S
Li1226 N1271 1.990 . S
Li1226 O1284 1.961 . S
Li1226 O1286 1.956 . S
Li1226 O1287 1.970 1_545 S
Li1227 N1277 1.990 . S
Li1227 O1285 1.961 . S
Li1227 O1286 1.970 1_565 S
Li1227 O1287 1.956 . S
C1228 C1230 1.348 . S
C1228 C1231 1.356 . S
C1228 O1284 1.325 . S
N1229 C1232 1.314 . S
N1229 C1233 1.279 . S
C1230 C1228 1.348 . S
C1230 C1232 1.353 . S
C1230 H1288 0.929 . S
C1231 C1228 1.356 . S
C1231 C1233 1.358 . S
C1231 H1289 0.930 . S
C1232 N1229 1.314 . S
C1232 C1230 1.353 . S
C1232 H1290 0.930 . S
C1233 N1229 1.279 . S
C1233 C1231 1.358 . S
C1233 H1291 0.930 . S
C1234 C1237 1.348 1_565 S
C1234 C1238 1.356 . S
C1234 O1285 1.325 . S
C1235 N1236 1.279 . S
C1235 C1238 1.358 . S
C1235 H1292 0.930 . S
N1236 C1235 1.279 . S
N1236 C1239 1.314 1_565 S
C1237 C1234 1.348 1_545 S
C1237 C1239 1.353 . S
C1237 H1293 0.929 . S
C1238 C1234 1.356 . S
C1238 C1235 1.358 . S
C1238 H1294 0.930 . S
C1239 N1236 1.314 1_545 S
C1239 C1237 1.353 . S
C1239 H1295 0.930 . S
C1240 N1241 1.314 . S
C1240 C1245 1.353 . S
C1240 H1246 0.930 . S
N1241 Li1224 1.990 . S
N1241 C1240 1.314 . S
N1241 C1243 1.279 . S
C1242 C1243 1.358 . S
C1242 C1244 1.356 . S
C1242 H1296 0.930 . S
C1243 N1241 1.279 . S
C1243 C1242 1.358 . S
C1243 H1247 0.930 . S
C1244 C1242 1.356 . S
C1244 C1245 1.348 . S
C1245 C1240 1.353 . S
C1245 C1244 1.348 . S
C1245 H1297 0.929 . S
H1246 C1240 0.930 . S
H1247 C1243 0.930 . S
C1248 N1249 1.314 . S
C1248 C1250 1.353 . S
C1248 H1254 0.930 . S
N1249 Li1225 1.990 . S
N1249 C1248 1.314 . S
N1249 C1252 1.279 . S
C1250 C1248 1.353 . S
C1250 C1253 1.348 . S
C1250 H1298 0.929 . S
C1251 C1252 1.358 . S
C1251 C1253 1.356 . S
C1251 H1299 0.930 . S
C1252 N1249 1.279 . S
C1252 C1251 1.358 . S
C1252 H1255 0.930 . S
C1253 C1250 1.348 . S
C1253 C1251 1.356 . S
H1254 C1248 0.930 . S
H1255 C1252 0.930 . S
C1256 C1258 1.348 1_545 S
C1256 C1259 1.356 . S
C1256 O1286 1.325 . S
N1257 C1260 1.314 1_545 S
N1257 C1261 1.279 . S
C1258 C1256 1.348 1_565 S
C1258 C1260 1.353 . S
C1258 H1300 0.929 . S
C1259 C1256 1.356 . S
C1259 C1261 1.358 . S
C1259 H1301 0.930 . S
C1260 N1257 1.314 1_565 S
C1260 C1258 1.353 . S
C1260 H1302 0.930 . S
C1261 N1257 1.279 . S
C1261 C1259 1.358 . S
C1261 H1303 0.930 . S
C1262 C1263 1.348 . S
C1262 C1264 1.356 . S
C1262 O1287 1.325 . S
C1263 C1262 1.348 . S
C1263 C1265 1.353 . S
C1263 H1304 0.929 . S
C1264 C1262 1.356 . S
C1264 C1266 1.358 . S
C1264 H1305 0.930 . S
C1265 C1263 1.353 . S
C1265 N1267 1.314 . S
C1265 H1306 0.930 . S
C1266 C1264 1.358 . S
C1266 N1267 1.279 . S
C1266 H1307 0.930 . S
N1267 C1265 1.314 . S
N1267 C1266 1.279 . S
C1268 C1270 1.353 . S
C1268 N1271 1.314 . S
C1268 H1274 0.930 . S
C1269 N1271 1.279 . S
C1269 C1272 1.358 . S
C1269 H1275 0.930 . S
C1270 C1268 1.353 . S
C1270 C1273 1.348 . S
C1270 H1308 0.929 . S
N1271 Li1226 1.990 . S
N1271 C1268 1.314 . S
N1271 C1269 1.279 . S
C1272 C1269 1.358 . S
C1272 C1273 1.356 . S
C1272 H1309 0.930 . S
C1273 C1270 1.348 . S
C1273 C1272 1.356 . S
H1274 C1268 0.930 . S
H1275 C1269 0.930 . S
C1276 N1277 1.314 . S
C1276 C1278 1.353 . S
C1276 H1282 0.930 . S
N1277 Li1227 1.990 . S
N1277 C1276 1.314 . S
N1277 C1280 1.279 . S
C1278 C1276 1.353 . S
C1278 C1281 1.348 . S
C1278 H1310 0.929 . S
C1279 C1280 1.358 . S
C1279 C1281 1.356 . S
C1279 H1311 0.930 . S
C1280 N1277 1.279 . S
C1280 C1279 1.358 . S
C1280 H1283 0.930 . S
C1281 C1278 1.348 . S
C1281 C1279 1.356 . S
H1282 C1276 0.930 . S
H1283 C1280 0.930 . S
O1284 Li1224 1.956 . S
O1284 Li1225 1.970 1_545 S
O1284 Li1226 1.961 . S
O1284 C1228 1.325 . S
O1285 Li1224 1.970 1_565 S
O1285 Li1225 1.956 . S
O1285 Li1227 1.961 . S
O1285 C1234 1.325 . S
O1286 Li1224 1.961 . S
O1286 Li1226 1.956 . S
O1286 Li1227 1.970 1_545 S
O1286 C1256 1.325 . S
O1287 Li1225 1.961 . S
O1287 Li1226 1.970 1_565 S
O1287 Li1227 1.956 . S
O1287 C1262 1.325 . S
H1288 C1230 0.929 . S
H1289 C1231 0.930 . S
H1290 C1232 0.930 . S
H1291 C1233 0.930 . S
H1292 C1235 0.930 . S
H1293 C1237 0.929 . S
H1294 C1238 0.930 . S
H1295 C1239 0.930 . S
H1296 C1242 0.930 . S
H1297 C1245 0.929 . S
H1298 C1250 0.929 . S
H1299 C1251 0.930 . S
H1300 C1258 0.929 . S
H1301 C1259 0.930 . S
H1302 C1260 0.930 . S
H1303 C1261 0.930 . S
H1304 C1263 0.929 . S
H1305 C1264 0.930 . S
H1306 C1265 0.930 . S
H1307 C1266 0.930 . S
H1308 C1270 0.929 . S
H1309 C1272 0.930 . S
H1310 C1278 0.929 . S
H1311 C1279 0.930 . S
Li1312 N1329 1.990 . S
Li1312 O1372 1.956 . S
Li1312 O1373 1.970 . S
Li1312 O1374 1.961 . S
Li1313 N1337 1.990 . S
Li1313 O1372 1.970 . S
Li1313 O1373 1.956 . S
Li1313 O1375 1.961 . S
Li1314 N1359 1.990 . S
Li1314 O1372 1.961 . S
Li1314 O1374 1.956 . S
Li1314 O1375 1.970 . S
Li1315 N1365 1.990 . S
Li1315 O1373 1.961 . S
Li1315 O1374 1.970 . S
Li1315 O1375 1.956 . S
C1316 C1318 1.348 . S
C1316 C1319 1.356 . S
C1316 O1372 1.325 . S
N1317 C1320 1.314 . S
N1317 C1321 1.279 . S
C1318 C1316 1.348 . S
C1318 C1320 1.353 . S
C1318 H1376 0.929 . S
C1319 C1316 1.356 . S
C1319 C1321 1.358 . S
C1319 H1377 0.930 . S
C1320 N1317 1.314 . S
C1320 C1318 1.353 . S
C1320 H1378 0.930 . S
C1321 N1317 1.279 . S
C1321 C1319 1.358 . S
C1321 H1379 0.930 . S
C1322 C1325 1.348 . S
C1322 C1326 1.356 . S
C1322 O1373 1.325 . S
C1323 N1324 1.279 . S
C1323 C1326 1.358 . S
C1323 H1380 0.930 . S
N1324 C1323 1.279 . S
N1324 C1327 1.314 . S
C1325 C1322 1.348 . S
C1325 C1327 1.353 . S
C1325 H1381 0.929 . S
C1326 C1322 1.356 . S
C1326 C1323 1.358 . S
C1326 H1382 0.930 . S
C1327 N1324 1.314 . S
C1327 C1325 1.353 . S
C1327 H1383 0.930 . S
C1328 N1329 1.314 . S
C1328 C1333 1.353 . S
C1328 H1334 0.930 . S
N1329 Li1312 1.990 . S
N1329 C1328 1.314 . S
N1329 C1331 1.279 . S
C1330 C1331 1.358 . S
C1330 C1332 1.356 . S
C1330 H1384 0.930 . S
C1331 N1329 1.279 . S
C1331 C1330 1.358 . S
C1331 H1335 0.930 . S
C1332 C1330 1.356 . S
C1332 C1333 1.348 . S
C1333 C1328 1.353 . S
C1333 C1332 1.348 . S
C1333 H1385 0.929 . S
H1334 C1328 0.930 . S
H1335 C1331 0.930 . S
C1336 N1337 1.314 . S
C1336 C1338 1.353 . S
C1336 H1342 0.930 . S
N1337 Li1313 1.990 . S
N1337 C1336 1.314 . S
N1337 C1340 1.279 . S
C1338 C1336 1.353 . S
C1338 C1341 1.348 . S
C1338 H1386 0.929 . S
C1339 C1340 1.358 . S
C1339 C1341 1.356 . S
C1339 H1387 0.930 . S
C1340 N1337 1.279 . S
C1340 C1339 1.358 . S
C1340 H1343 0.930 . S
C1341 C1338 1.348 . S
C1341 C1339 1.356 . S
H1342 C1336 0.930 . S
H1343 C1340 0.930 . S
C1344 C1346 1.348 . S
C1344 C1347 1.356 . S
C1344 O1374 1.325 . S
N1345 C1348 1.314 . S
N1345 C1349 1.279 . S
C1346 C1344 1.348 . S
C1346 C1348 1.353 . S
C1346 H1388 0.929 . S
C1347 C1344 1.356 . S
C1347 C1349 1.358 . S
C1347 H1389 0.930 . S
C1348 N1345 1.314 . S
C1348 C1346 1.353 . S
C1348 H1390 0.930 . S
C1349 N1345 1.279 . S
C1349 C1347 1.358 . S
C1349 H1391 0.930 . S
C1350 C1351 1.348 . S
C1350 C1352 1.356 . S
C1350 O1375 1.325 . S
C1351 C1350 1.348 . S
C1351 C1353 1.353 . S
C1351 H1392 0.929 . S
C1352 C1350 1.356 . S
C1352 C1354 1.358 . S
C1352 H1393 0.930 . S
C1353 C1351 1.353 . S
C1353 N1355 1.314 . S
C1353 H1394 0.930 . S
C1354 C1352 1.358 . S
C1354 N1355 1.279 . S
C1354 H1395 0.930 . S
N1355 C1353 1.314 . S
N1355 C1354 1.279 . S
C1356 C1358 1.353 . S
C1356 N1359 1.314 . S
C1356 H1362 0.930 . S
C1357 N1359 1.279 . S
C1357 C1360 1.358 . S
C1357 H1363 0.930 . S
C1358 C1356 1.353 . S
C1358 C1361 1.348 . S
C1358 H1396 0.929 . S
N1359 Li1314 1.990 . S
N1359 C1356 1.314 . S
N1359 C1357 1.279 . S
C1360 C1357 1.358 . S
C1360 C1361 1.356 . S
C1360 H1397 0.930 . S
C1361 C1358 1.348 . S
C1361 C1360 1.356 . S
H1362 C1356 0.930 . S
H1363 C1357 0.930 . S
C1364 N1365 1.314 . S
C1364 C1366 1.353 . S
C1364 H1370 0.930 . S
N1365 Li1315 1.990 . S
N1365 C1364 1.314 . S
N1365 C1368 1.279 . S
C1366 C1364 1.353 . S
C1366 C1369 1.348 . S
C1366 H1398 0.929 . S
C1367 C1368 1.358 . S
C1367 C1369 1.356 . S
C1367 H1399 0.930 . S
C1368 N1365 1.279 . S
C1368 C1367 1.358 . S
C1368 H1371 0.930 . S
C1369 C1366 1.348 . S
C1369 C1367 1.356 . S
H1370 C1364 0.930 . S
H1371 C1368 0.930 . S
O1372 Li1312 1.956 . S
O1372 Li1313 1.970 . S
O1372 Li1314 1.961 . S
O1372 C1316 1.325 . S
O1373 Li1312 1.970 . S
O1373 Li1313 1.956 . S
O1373 Li1315 1.961 . S
O1373 C1322 1.325 . S
O1374 Li1312 1.961 . S
O1374 Li1314 1.956 . S
O1374 Li1315 1.970 . S
O1374 C1344 1.325 . S
O1375 Li1313 1.961 . S
O1375 Li1314 1.970 . S
O1375 Li1315 1.956 . S
O1375 C1350 1.325 . S
H1376 C1318 0.929 . S
H1377 C1319 0.930 . S
H1378 C1320 0.930 . S
H1379 C1321 0.930 . S
H1380 C1323 0.930 . S
H1381 C1325 0.929 . S
H1382 C1326 0.930 . S
H1383 C1327 0.930 . S
H1384 C1330 0.930 . S
H1385 C1333 0.929 . S
H1386 C1338 0.929 . S
H1387 C1339 0.930 . S
H1388 C1346 0.929 . S
H1389 C1347 0.930 . S
H1390 C1348 0.930 . S
H1391 C1349 0.930 . S
H1392 C1351 0.929 . S
H1393 C1352 0.930 . S
H1394 C1353 0.930 . S
H1395 C1354 0.930 . S
H1396 C1358 0.929 . S
H1397 C1360 0.930 . S
H1398 C1366 0.929 . S
H1399 C1367 0.930 . S
Li1400 N1417 1.990 . S
Li1400 O1460 1.956 . S
Li1400 O1461 1.970 . S
Li1400 O1462 1.961 . S
Li1401 N1425 1.990 . S
Li1401 O1460 1.970 . S
Li1401 O1461 1.956 . S
Li1401 O1463 1.961 . S
Li1402 N1447 1.990 . S
Li1402 O1460 1.961 . S
Li1402 O1462 1.956 . S
Li1402 O1463 1.970 . S
Li1403 N1453 1.990 . S
Li1403 O1461 1.961 . S
Li1403 O1462 1.970 . S
Li1403 O1463 1.956 . S
C1404 C1406 1.348 . S
C1404 C1407 1.356 . S
C1404 O1460 1.325 . S
N1405 C1408 1.314 . S
N1405 C1409 1.279 . S
C1406 C1404 1.348 . S
C1406 C1408 1.353 . S
C1406 H1464 0.929 . S
C1407 C1404 1.356 . S
C1407 C1409 1.358 . S
C1407 H1465 0.930 . S
C1408 N1405 1.314 . S
C1408 C1406 1.353 . S
C1408 H1466 0.930 . S
C1409 N1405 1.279 . S
C1409 C1407 1.358 . S
C1409 H1467 0.930 . S
C1410 C1413 1.348 . S
C1410 C1414 1.356 . S
C1410 O1461 1.325 . S
C1411 N1412 1.279 . S
C1411 C1414 1.358 . S
C1411 H1468 0.930 . S
N1412 C1411 1.279 . S
N1412 C1415 1.314 . S
C1413 C1410 1.348 . S
C1413 C1415 1.353 . S
C1413 H1469 0.929 . S
C1414 C1410 1.356 . S
C1414 C1411 1.358 . S
C1414 H1470 0.930 . S
C1415 N1412 1.314 . S
C1415 C1413 1.353 . S
C1415 H1471 0.930 . S
C1416 N1417 1.314 . S
C1416 C1421 1.353 . S
C1416 H1422 0.930 . S
N1417 Li1400 1.990 . S
N1417 C1416 1.314 . S
N1417 C1419 1.279 . S
C1418 C1419 1.358 . S
C1418 C1420 1.356 . S
C1418 H1472 0.930 . S
C1419 N1417 1.279 . S
C1419 C1418 1.358 . S
C1419 H1423 0.930 . S
C1420 C1418 1.356 . S
C1420 C1421 1.348 . S
C1421 C1416 1.353 . S
C1421 C1420 1.348 . S
C1421 H1473 0.929 . S
H1422 C1416 0.930 . S
H1423 C1419 0.930 . S
C1424 N1425 1.314 . S
C1424 C1426 1.353 . S
C1424 H1430 0.930 . S
N1425 Li1401 1.990 . S
N1425 C1424 1.314 . S
N1425 C1428 1.279 . S
C1426 C1424 1.353 . S
C1426 C1429 1.348 . S
C1426 H1474 0.929 . S
C1427 C1428 1.358 . S
C1427 C1429 1.356 . S
C1427 H1475 0.930 . S
C1428 N1425 1.279 . S
C1428 C1427 1.358 . S
C1428 H1431 0.930 . S
C1429 C1426 1.348 . S
C1429 C1427 1.356 . S
H1430 C1424 0.930 . S
H1431 C1428 0.930 . S
C1432 C1434 1.348 . S
C1432 C1435 1.356 . S
C1432 O1462 1.325 . S
N1433 C1436 1.314 . S
N1433 C1437 1.279 . S
C1434 C1432 1.348 . S
C1434 C1436 1.353 . S
C1434 H1476 0.929 . S
C1435 C1432 1.356 . S
C1435 C1437 1.358 . S
C1435 H1477 0.930 . S
C1436 N1433 1.314 . S
C1436 C1434 1.353 . S
C1436 H1478 0.930 . S
C1437 N1433 1.279 . S
C1437 C1435 1.358 . S
C1437 H1479 0.930 . S
C1438 C1439 1.348 . S
C1438 C1440 1.356 . S
C1438 O1463 1.325 . S
C1439 C1438 1.348 . S
C1439 C1441 1.353 . S
C1439 H1480 0.929 . S
C1440 C1438 1.356 . S
C1440 C1442 1.358 . S
C1440 H1481 0.930 . S
C1441 C1439 1.353 . S
C1441 N1443 1.314 . S
C1441 H1482 0.930 . S
C1442 C1440 1.358 . S
C1442 N1443 1.279 . S
C1442 H1483 0.930 . S
N1443 C1441 1.314 . S
N1443 C1442 1.279 . S
C1444 C1446 1.353 . S
C1444 N1447 1.314 . S
C1444 H1450 0.930 . S
C1445 N1447 1.279 . S
C1445 C1448 1.358 . S
C1445 H1451 0.930 . S
C1446 C1444 1.353 . S
C1446 C1449 1.348 . S
C1446 H1484 0.929 . S
N1447 Li1402 1.990 . S
N1447 C1444 1.314 . S
N1447 C1445 1.279 . S
C1448 C1445 1.358 . S
C1448 C1449 1.356 . S
C1448 H1485 0.930 . S
C1449 C1446 1.348 . S
C1449 C1448 1.356 . S
H1450 C1444 0.930 . S
H1451 C1445 0.930 . S
C1452 N1453 1.314 . S
C1452 C1454 1.353 . S
C1452 H1458 0.930 . S
N1453 Li1403 1.990 . S
N1453 C1452 1.314 . S
N1453 C1456 1.279 . S
C1454 C1452 1.353 . S
C1454 C1457 1.348 . S
C1454 H1486 0.929 . S
C1455 C1456 1.358 . S
C1455 C1457 1.356 . S
C1455 H1487 0.930 . S
C1456 N1453 1.279 . S
C1456 C1455 1.358 . S
C1456 H1459 0.930 . S
C1457 C1454 1.348 . S
C1457 C1455 1.356 . S
H1458 C1452 0.930 . S
H1459 C1456 0.930 . S
O1460 Li1400 1.956 . S
O1460 Li1401 1.970 . S
O1460 Li1402 1.961 . S
O1460 C1404 1.325 . S
O1461 Li1400 1.970 . S
O1461 Li1401 1.956 . S
O1461 Li1403 1.961 . S
O1461 C1410 1.325 . S
O1462 Li1400 1.961 . S
O1462 Li1402 1.956 . S
O1462 Li1403 1.970 . S
O1462 C1432 1.325 . S
O1463 Li1401 1.961 . S
O1463 Li1402 1.970 . S
O1463 Li1403 1.956 . S
O1463 C1438 1.325 . S
H1464 C1406 0.929 . S
H1465 C1407 0.930 . S
H1466 C1408 0.930 . S
H1467 C1409 0.930 . S
H1468 C1411 0.930 . S
H1469 C1413 0.929 . S
H1470 C1414 0.930 . S
H1471 C1415 0.930 . S
H1472 C1418 0.930 . S
H1473 C1421 0.929 . S
H1474 C1426 0.929 . S
H1475 C1427 0.930 . S
H1476 C1434 0.929 . S
H1477 C1435 0.930 . S
H1478 C1436 0.930 . S
H1479 C1437 0.930 . S
H1480 C1439 0.929 . S
H1481 C1440 0.930 . S
H1482 C1441 0.930 . S
H1483 C1442 0.930 . S
H1484 C1446 0.929 . S
H1485 C1448 0.930 . S
H1486 C1454 0.929 . S
H1487 C1455 0.930 . S
Li1488 N1505 1.990 . S
Li1488 O1548 1.956 . S
Li1488 O1549 1.970 . S
Li1488 O1550 1.961 . S
Li1489 N1513 1.990 . S
Li1489 O1548 1.970 . S
Li1489 O1549 1.956 . S
Li1489 O1551 1.961 . S
Li1490 N1535 1.990 . S
Li1490 O1548 1.961 . S
Li1490 O1550 1.956 . S
Li1490 O1551 1.970 . S
Li1491 N1541 1.990 . S
Li1491 O1549 1.961 . S
Li1491 O1550 1.970 . S
Li1491 O1551 1.956 . S
C1492 C1494 1.348 . S
C1492 C1495 1.356 . S
C1492 O1548 1.325 . S
N1493 C1496 1.314 . S
N1493 C1497 1.279 . S
C1494 C1492 1.348 . S
C1494 C1496 1.353 . S
C1494 H1552 0.929 . S
C1495 C1492 1.356 . S
C1495 C1497 1.358 . S
C1495 H1553 0.930 . S
C1496 N1493 1.314 . S
C1496 C1494 1.353 . S
C1496 H1554 0.930 . S
C1497 N1493 1.279 . S
C1497 C1495 1.358 . S
C1497 H1555 0.930 . S
C1498 C1501 1.348 . S
C1498 C1502 1.356 . S
C1498 O1549 1.325 . S
C1499 N1500 1.279 . S
C1499 C1502 1.358 . S
C1499 H1556 0.930 . S
N1500 C1499 1.279 . S
N1500 C1503 1.314 . S
C1501 C1498 1.348 . S
C1501 C1503 1.353 . S
C1501 H1557 0.929 . S
C1502 C1498 1.356 . S
C1502 C1499 1.358 . S
C1502 H1558 0.930 . S
C1503 N1500 1.314 . S
C1503 C1501 1.353 . S
C1503 H1559 0.930 . S
C1504 N1505 1.314 . S
C1504 C1509 1.353 . S
C1504 H1510 0.930 . S
N1505 Li1488 1.990 . S
N1505 C1504 1.314 . S
N1505 C1507 1.279 . S
C1506 C1507 1.358 . S
C1506 C1508 1.356 . S
C1506 H1560 0.930 . S
C1507 N1505 1.279 . S
C1507 C1506 1.358 . S
C1507 H1511 0.930 . S
C1508 C1506 1.356 . S
C1508 C1509 1.348 . S
C1509 C1504 1.353 . S
C1509 C1508 1.348 . S
C1509 H1561 0.929 . S
H1510 C1504 0.930 . S
H1511 C1507 0.930 . S
C1512 N1513 1.314 . S
C1512 C1514 1.353 . S
C1512 H1518 0.930 . S
N1513 Li1489 1.990 . S
N1513 C1512 1.314 . S
N1513 C1516 1.279 . S
C1514 C1512 1.353 . S
C1514 C1517 1.348 . S
C1514 H1562 0.929 . S
C1515 C1516 1.358 . S
C1515 C1517 1.356 . S
C1515 H1563 0.930 . S
C1516 N1513 1.279 . S
C1516 C1515 1.358 . S
C1516 H1519 0.930 . S
C1517 C1514 1.348 . S
C1517 C1515 1.356 . S
H1518 C1512 0.930 . S
H1519 C1516 0.930 . S
C1520 C1522 1.348 . S
C1520 C1523 1.356 . S
C1520 O1550 1.325 . S
N1521 C1524 1.314 . S
N1521 C1525 1.279 . S
C1522 C1520 1.348 . S
C1522 C1524 1.353 . S
C1522 H1564 0.929 . S
C1523 C1520 1.356 . S
C1523 C1525 1.358 . S
C1523 H1565 0.930 . S
C1524 N1521 1.314 . S
C1524 C1522 1.353 . S
C1524 H1566 0.930 . S
C1525 N1521 1.279 . S
C1525 C1523 1.358 . S
C1525 H1567 0.930 . S
C1526 C1527 1.348 . S
C1526 C1528 1.356 . S
C1526 O1551 1.325 . S
C1527 C1526 1.348 . S
C1527 C1529 1.353 . S
C1527 H1568 0.929 . S
C1528 C1526 1.356 . S
C1528 C1530 1.358 . S
C1528 H1569 0.930 . S
C1529 C1527 1.353 . S
C1529 N1531 1.314 . S
C1529 H1570 0.930 . S
C1530 C1528 1.358 . S
C1530 N1531 1.279 . S
C1530 H1571 0.930 . S
N1531 C1529 1.314 . S
N1531 C1530 1.279 . S
C1532 C1534 1.353 . S
C1532 N1535 1.314 . S
C1532 H1538 0.930 . S
C1533 N1535 1.279 . S
C1533 C1536 1.358 . S
C1533 H1539 0.930 . S
C1534 C1532 1.353 . S
C1534 C1537 1.348 . S
C1534 H1572 0.929 . S
N1535 Li1490 1.990 . S
N1535 C1532 1.314 . S
N1535 C1533 1.279 . S
C1536 C1533 1.358 . S
C1536 C1537 1.356 . S
C1536 H1573 0.930 . S
C1537 C1534 1.348 . S
C1537 C1536 1.356 . S
H1538 C1532 0.930 . S
H1539 C1533 0.930 . S
C1540 N1541 1.314 . S
C1540 C1542 1.353 . S
C1540 H1546 0.930 . S
N1541 Li1491 1.990 . S
N1541 C1540 1.314 . S
N1541 C1544 1.279 . S
C1542 C1540 1.353 . S
C1542 C1545 1.348 . S
C1542 H1574 0.929 . S
C1543 C1544 1.358 . S
C1543 C1545 1.356 . S
C1543 H1575 0.930 . S
C1544 N1541 1.279 . S
C1544 C1543 1.358 . S
C1544 H1547 0.930 . S
C1545 C1542 1.348 . S
C1545 C1543 1.356 . S
H1546 C1540 0.930 . S
H1547 C1544 0.930 . S
O1548 Li1488 1.956 . S
O1548 Li1489 1.970 . S
O1548 Li1490 1.961 . S
O1548 C1492 1.325 . S
O1549 Li1488 1.970 . S
O1549 Li1489 1.956 . S
O1549 Li1491 1.961 . S
O1549 C1498 1.325 . S
O1550 Li1488 1.961 . S
O1550 Li1490 1.956 . S
O1550 Li1491 1.970 . S
O1550 C1520 1.325 . S
O1551 Li1489 1.961 . S
O1551 Li1490 1.970 . S
O1551 Li1491 1.956 . S
O1551 C1526 1.325 . S
H1552 C1494 0.929 . S
H1553 C1495 0.930 . S
H1554 C1496 0.930 . S
H1555 C1497 0.930 . S
H1556 C1499 0.930 . S
H1557 C1501 0.929 . S
H1558 C1502 0.930 . S
H1559 C1503 0.930 . S
H1560 C1506 0.930 . S
H1561 C1509 0.929 . S
H1562 C1514 0.929 . S
H1563 C1515 0.930 . S
H1564 C1522 0.929 . S
H1565 C1523 0.930 . S
H1566 C1524 0.930 . S
H1567 C1525 0.930 . S
H1568 C1527 0.929 . S
H1569 C1528 0.930 . S
H1570 C1529 0.930 . S
H1571 C1530 0.930 . S
H1572 C1534 0.929 . S
H1573 C1536 0.930 . S
H1574 C1542 0.929 . S
H1575 C1543 0.930 . S
Li1576 N1593 1.990 . S
Li1576 O1636 1.956 . S
Li1576 O1637 1.970 1_565 S
Li1576 O1638 1.961 . S
Li1577 N1601 1.990 . S
Li1577 O1636 1.970 1_545 S
Li1577 O1637 1.956 . S
Li1577 O1639 1.961 . S
Li1578 N1623 1.990 . S
Li1578 O1636 1.961 . S
Li1578 O1638 1.956 . S
Li1578 O1639 1.970 1_565 S
Li1579 N1629 1.990 . S
Li1579 O1637 1.961 . S
Li1579 O1638 1.970 1_545 S
Li1579 O1639 1.956 . S
C1580 C1582 1.348 . S
C1580 C1583 1.356 . S
C1580 O1636 1.325 . S
N1581 C1584 1.314 . S
N1581 C1585 1.279 . S
C1582 C1580 1.348 . S
C1582 C1584 1.353 . S
C1582 H1640 0.929 . S
C1583 C1580 1.356 . S
C1583 C1585 1.358 . S
C1583 H1641 0.930 . S
C1584 N1581 1.314 . S
C1584 C1582 1.353 . S
C1584 H1642 0.930 . S
C1585 N1581 1.279 . S
C1585 C1583 1.358 . S
C1585 H1643 0.930 . S
C1586 C1589 1.348 1_545 S
C1586 C1590 1.356 . S
C1586 O1637 1.325 . S
C1587 N1588 1.279 . S
C1587 C1590 1.358 . S
C1587 H1644 0.930 . S
N1588 C1587 1.279 . S
N1588 C1591 1.314 1_545 S
C1589 C1586 1.348 1_565 S
C1589 C1591 1.353 . S
C1589 H1645 0.929 . S
C1590 C1586 1.356 . S
C1590 C1587 1.358 . S
C1590 H1646 0.930 . S
C1591 N1588 1.314 1_565 S
C1591 C1589 1.353 . S
C1591 H1647 0.930 . S
C1592 N1593 1.314 . S
C1592 C1597 1.353 . S
C1592 H1598 0.930 . S
N1593 Li1576 1.990 . S
N1593 C1592 1.314 . S
N1593 C1595 1.279 . S
C1594 C1595 1.358 . S
C1594 C1596 1.356 . S
C1594 H1648 0.930 . S
C1595 N1593 1.279 . S
C1595 C1594 1.358 . S
C1595 H1599 0.930 . S
C1596 C1594 1.356 . S
C1596 C1597 1.348 . S
C1597 C1592 1.353 . S
C1597 C1596 1.348 . S
C1597 H1649 0.929 . S
H1598 C1592 0.930 . S
H1599 C1595 0.930 . S
C1600 N1601 1.314 . S
C1600 C1602 1.353 . S
C1600 H1606 0.930 . S
N1601 Li1577 1.990 . S
N1601 C1600 1.314 . S
N1601 C1604 1.279 . S
C1602 C1600 1.353 . S
C1602 C1605 1.348 . S
C1602 H1650 0.929 . S
C1603 C1604 1.358 . S
C1603 C1605 1.356 . S
C1603 H1651 0.930 . S
C1604 N1601 1.279 . S
C1604 C1603 1.358 . S
C1604 H1607 0.930 . S
C1605 C1602 1.348 . S
C1605 C1603 1.356 . S
H1606 C1600 0.930 . S
H1607 C1604 0.930 . S
C1608 C1610 1.348 1_565 S
C1608 C1611 1.356 . S
C1608 O1638 1.325 . S
N1609 C1612 1.314 1_565 S
N1609 C1613 1.279 . S
C1610 C1608 1.348 1_545 S
C1610 C1612 1.353 . S
C1610 H1652 0.929 . S
C1611 C1608 1.356 . S
C1611 C1613 1.358 . S
C1611 H1653 0.930 . S
C1612 N1609 1.314 1_545 S
C1612 C1610 1.353 . S
C1612 H1654 0.930 . S
C1613 N1609 1.279 . S
C1613 C1611 1.358 . S
C1613 H1655 0.930 . S
C1614 C1615 1.348 . S
C1614 C1616 1.356 . S
C1614 O1639 1.325 . S
C1615 C1614 1.348 . S
C1615 C1617 1.353 . S
C1615 H1656 0.929 . S
C1616 C1614 1.356 . S
C1616 C1618 1.358 . S
C1616 H1657 0.930 . S
C1617 C1615 1.353 . S
C1617 N1619 1.314 . S
C1617 H1658 0.930 . S
C1618 C1616 1.358 . S
C1618 N1619 1.279 . S
C1618 H1659 0.930 . S
N1619 C1617 1.314 . S
N1619 C1618 1.279 . S
C1620 C1622 1.353 . S
C1620 N1623 1.314 . S
C1620 H1626 0.930 . S
C1621 N1623 1.279 . S
C1621 C1624 1.358 . S
C1621 H1627 0.930 . S
C1622 C1620 1.353 . S
C1622 C1625 1.348 . S
C1622 H1660 0.929 . S
N1623 Li1578 1.990 . S
N1623 C1620 1.314 . S
N1623 C1621 1.279 . S
C1624 C1621 1.358 . S
C1624 C1625 1.356 . S
C1624 H1661 0.930 . S
C1625 C1622 1.348 . S
C1625 C1624 1.356 . S
H1626 C1620 0.930 . S
H1627 C1621 0.930 . S
C1628 N1629 1.314 . S
C1628 C1630 1.353 . S
C1628 H1634 0.930 . S
N1629 Li1579 1.990 . S
N1629 C1628 1.314 . S
N1629 C1632 1.279 . S
C1630 C1628 1.353 . S
C1630 C1633 1.348 . S
C1630 H1662 0.929 . S
C1631 C1632 1.358 . S
C1631 C1633 1.356 . S
C1631 H1663 0.930 . S
C1632 N1629 1.279 . S
C1632 C1631 1.358 . S
C1632 H1635 0.930 . S
C1633 C1630 1.348 . S
C1633 C1631 1.356 . S
H1634 C1628 0.930 . S
H1635 C1632 0.930 . S
O1636 Li1576 1.956 . S
O1636 Li1577 1.970 1_565 S
O1636 Li1578 1.961 . S
O1636 C1580 1.325 . S
O1637 Li1576 1.970 1_545 S
O1637 Li1577 1.956 . S
O1637 Li1579 1.961 . S
O1637 C1586 1.325 . S
O1638 Li1576 1.961 . S
O1638 Li1578 1.956 . S
O1638 Li1579 1.970 1_565 S
O1638 C1608 1.325 . S
O1639 Li1577 1.961 . S
O1639 Li1578 1.970 1_545 S
O1639 Li1579 1.956 . S
O1639 C1614 1.325 . S
H1640 C1582 0.929 . S
H1641 C1583 0.930 . S
H1642 C1584 0.930 . S
H1643 C1585 0.930 . S
H1644 C1587 0.930 . S
H1645 C1589 0.929 . S
H1646 C1590 0.930 . S
H1647 C1591 0.930 . S
H1648 C1594 0.930 . S
H1649 C1597 0.929 . S
H1650 C1602 0.929 . S
H1651 C1603 0.930 . S
H1652 C1610 0.929 . S
H1653 C1611 0.930 . S
H1654 C1612 0.930 . S
H1655 C1613 0.930 . S
H1656 C1615 0.929 . S
H1657 C1616 0.930 . S
H1658 C1617 0.930 . S
H1659 C1618 0.930 . S
H1660 C1622 0.929 . S
H1661 C1624 0.930 . S
H1662 C1630 0.929 . S
H1663 C1631 0.930 . S
Li1664 N1681 1.990 . S
Li1664 O1724 1.956 . S
Li1664 O1725 1.970 1_455 S
Li1664 O1726 1.961 . S
Li1665 N1689 1.990 . S
Li1665 O1724 1.970 1_655 S
Li1665 O1725 1.956 . S
Li1665 O1727 1.961 . S
Li1666 N1711 1.990 . S
Li1666 O1724 1.961 . S
Li1666 O1726 1.956 . S
Li1666 O1727 1.970 1_455 S
Li1667 N1717 1.990 . S
Li1667 O1725 1.961 . S
Li1667 O1726 1.970 1_655 S
Li1667 O1727 1.956 . S
C1668 C1670 1.348 . S
C1668 C1671 1.356 . S
C1668 O1724 1.325 . S
N1669 C1672 1.314 . S
N1669 C1673 1.279 . S
C1670 C1668 1.348 . S
C1670 C1672 1.353 . S
C1670 H1728 0.929 . S
C1671 C1668 1.356 . S
C1671 C1673 1.358 . S
C1671 H1729 0.930 . S
C1672 N1669 1.314 . S
C1672 C1670 1.353 . S
C1672 H1730 0.930 . S
C1673 N1669 1.279 . S
C1673 C1671 1.358 . S
C1673 H1731 0.930 . S
C1674 C1677 1.348 1_655 S
C1674 C1678 1.356 . S
C1674 O1725 1.325 . S
C1675 N1676 1.279 . S
C1675 C1678 1.358 . S
C1675 H1732 0.930 . S
N1676 C1675 1.279 . S
N1676 C1679 1.314 1_655 S
C1677 C1674 1.348 1_455 S
C1677 C1679 1.353 . S
C1677 H1733 0.929 . S
C1678 C1674 1.356 . S
C1678 C1675 1.358 . S
C1678 H1734 0.930 . S
C1679 N1676 1.314 1_455 S
C1679 C1677 1.353 . S
C1679 H1735 0.930 . S
C1680 N1681 1.314 . S
C1680 C1685 1.353 . S
C1680 H1686 0.930 . S
N1681 Li1664 1.990 . S
N1681 C1680 1.314 . S
N1681 C1683 1.279 . S
C1682 C1683 1.358 . S
C1682 C1684 1.356 . S
C1682 H1736 0.930 . S
C1683 N1681 1.279 . S
C1683 C1682 1.358 . S
C1683 H1687 0.930 . S
C1684 C1682 1.356 . S
C1684 C1685 1.348 . S
C1685 C1680 1.353 . S
C1685 C1684 1.348 . S
C1685 H1737 0.929 . S
H1686 C1680 0.930 . S
H1687 C1683 0.930 . S
C1688 N1689 1.314 . S
C1688 C1690 1.353 . S
C1688 H1694 0.930 . S
N1689 Li1665 1.990 . S
N1689 C1688 1.314 . S
N1689 C1692 1.279 . S
C1690 C1688 1.353 . S
C1690 C1693 1.348 . S
C1690 H1738 0.929 . S
C1691 C1692 1.358 . S
C1691 C1693 1.356 . S
C1691 H1739 0.930 . S
C1692 N1689 1.279 . S
C1692 C1691 1.358 . S
C1692 H1695 0.930 . S
C1693 C1690 1.348 . S
C1693 C1691 1.356 . S
H1694 C1688 0.930 . S
H1695 C1692 0.930 . S
C1696 C1698 1.348 1_455 S
C1696 C1699 1.356 . S
C1696 O1726 1.325 . S
N1697 C1700 1.314 1_455 S
N1697 C1701 1.279 . S
C1698 C1696 1.348 1_655 S
C1698 C1700 1.353 . S
C1698 H1740 0.929 . S
C1699 C1696 1.356 . S
C1699 C1701 1.358 . S
C1699 H1741 0.930 . S
C1700 N1697 1.314 1_655 S
C1700 C1698 1.353 . S
C1700 H1742 0.930 . S
C1701 N1697 1.279 . S
C1701 C1699 1.358 . S
C1701 H1743 0.930 . S
C1702 C1703 1.348 . S
C1702 C1704 1.356 . S
C1702 O1727 1.325 . S
C1703 C1702 1.348 . S
C1703 C1705 1.353 . S
C1703 H1744 0.929 . S
C1704 C1702 1.356 . S
C1704 C1706 1.358 . S
C1704 H1745 0.930 . S
C1705 C1703 1.353 . S
C1705 N1707 1.314 . S
C1705 H1746 0.930 . S
C1706 C1704 1.358 . S
C1706 N1707 1.279 . S
C1706 H1747 0.930 . S
N1707 C1705 1.314 . S
N1707 C1706 1.279 . S
C1708 C1710 1.353 . S
C1708 N1711 1.314 . S
C1708 H1714 0.930 . S
C1709 N1711 1.279 . S
C1709 C1712 1.358 . S
C1709 H1715 0.930 . S
C1710 C1708 1.353 . S
C1710 C1713 1.348 . S
C1710 H1748 0.929 . S
N1711 Li1666 1.990 . S
N1711 C1708 1.314 . S
N1711 C1709 1.279 . S
C1712 C1709 1.358 . S
C1712 C1713 1.356 . S
C1712 H1749 0.930 . S
C1713 C1710 1.348 . S
C1713 C1712 1.356 . S
H1714 C1708 0.930 . S
H1715 C1709 0.930 . S
C1716 N1717 1.314 . S
C1716 C1718 1.353 . S
C1716 H1722 0.930 . S
N1717 Li1667 1.990 . S
N1717 C1716 1.314 . S
N1717 C1720 1.279 . S
C1718 C1716 1.353 . S
C1718 C1721 1.348 . S
C1718 H1750 0.929 . S
C1719 C1720 1.358 . S
C1719 C1721 1.356 . S
C1719 H1751 0.930 . S
C1720 N1717 1.279 . S
C1720 C1719 1.358 . S
C1720 H1723 0.930 . S
C1721 C1718 1.348 . S
C1721 C1719 1.356 . S
H1722 C1716 0.930 . S
H1723 C1720 0.930 . S
O1724 Li1664 1.956 . S
O1724 Li1665 1.970 1_455 S
O1724 Li1666 1.961 . S
O1724 C1668 1.325 . S
O1725 Li1664 1.970 1_655 S
O1725 Li1665 1.956 . S
O1725 Li1667 1.961 . S
O1725 C1674 1.325 . S
O1726 Li1664 1.961 . S
O1726 Li1666 1.956 . S
O1726 Li1667 1.970 1_455 S
O1726 C1696 1.325 . S
O1727 Li1665 1.961 . S
O1727 Li1666 1.970 1_655 S
O1727 Li1667 1.956 . S
O1727 C1702 1.325 . S
H1728 C1670 0.929 . S
H1729 C1671 0.930 . S
H1730 C1672 0.930 . S
H1731 C1673 0.930 . S
H1732 C1675 0.930 . S
H1733 C1677 0.929 . S
H1734 C1678 0.930 . S
H1735 C1679 0.930 . S
H1736 C1682 0.930 . S
H1737 C1685 0.929 . S
H1738 C1690 0.929 . S
H1739 C1691 0.930 . S
H1740 C1698 0.929 . S
H1741 C1699 0.930 . S
H1742 C1700 0.930 . S
H1743 C1701 0.930 . S
H1744 C1703 0.929 . S
H1745 C1704 0.930 . S
H1746 C1705 0.930 . S
H1747 C1706 0.930 . S
H1748 C1710 0.929 . S
H1749 C1712 0.930 . S
H1750 C1718 0.929 . S
H1751 C1719 0.930 . S
Li1752 N1769 1.990 . S
Li1752 O1812 1.956 . S
Li1752 O1813 1.970 . S
Li1752 O1814 1.961 . S
Li1753 N1777 1.990 . S
Li1753 O1812 1.970 . S
Li1753 O1813 1.956 . S
Li1753 O1815 1.961 . S
Li1754 N1799 1.990 . S
Li1754 O1812 1.961 . S
Li1754 O1814 1.956 . S
Li1754 O1815 1.970 . S
Li1755 N1805 1.990 . S
Li1755 O1813 1.961 . S
Li1755 O1814 1.970 . S
Li1755 O1815 1.956 . S
C1756 C1758 1.348 . S
C1756 C1759 1.356 . S
C1756 O1812 1.325 . S
N1757 C1760 1.314 . S
N1757 C1761 1.279 . S
C1758 C1756 1.348 . S
C1758 C1760 1.353 . S
C1758 H1816 0.929 . S
C1759 C1756 1.356 . S
C1759 C1761 1.358 . S
C1759 H1817 0.930 . S
C1760 N1757 1.314 . S
C1760 C1758 1.353 . S
C1760 H1818 0.930 . S
C1761 N1757 1.279 . S
C1761 C1759 1.358 . S
C1761 H1819 0.930 . S
C1762 C1765 1.348 . S
C1762 C1766 1.356 . S
C1762 O1813 1.325 . S
C1763 N1764 1.279 . S
C1763 C1766 1.358 . S
C1763 H1820 0.930 . S
N1764 C1763 1.279 . S
N1764 C1767 1.314 . S
C1765 C1762 1.348 . S
C1765 C1767 1.353 . S
C1765 H1821 0.929 . S
C1766 C1762 1.356 . S
C1766 C1763 1.358 . S
C1766 H1822 0.930 . S
C1767 N1764 1.314 . S
C1767 C1765 1.353 . S
C1767 H1823 0.930 . S
C1768 N1769 1.314 . S
C1768 C1773 1.353 . S
C1768 H1774 0.930 . S
N1769 Li1752 1.990 . S
N1769 C1768 1.314 . S
N1769 C1771 1.279 . S
C1770 C1771 1.358 . S
C1770 C1772 1.356 . S
C1770 H1824 0.930 . S
C1771 N1769 1.279 . S
C1771 C1770 1.358 . S
C1771 H1775 0.930 . S
C1772 C1770 1.356 . S
C1772 C1773 1.348 . S
C1773 C1768 1.353 . S
C1773 C1772 1.348 . S
C1773 H1825 0.929 . S
H1774 C1768 0.930 . S
H1775 C1771 0.930 . S
C1776 N1777 1.314 . S
C1776 C1778 1.353 . S
C1776 H1782 0.930 . S
N1777 Li1753 1.990 . S
N1777 C1776 1.314 . S
N1777 C1780 1.279 . S
C1778 C1776 1.353 . S
C1778 C1781 1.348 . S
C1778 H1826 0.929 . S
C1779 C1780 1.358 . S
C1779 C1781 1.356 . S
C1779 H1827 0.930 . S
C1780 N1777 1.279 . S
C1780 C1779 1.358 . S
C1780 H1783 0.930 . S
C1781 C1778 1.348 . S
C1781 C1779 1.356 . S
H1782 C1776 0.930 . S
H1783 C1780 0.930 . S
C1784 C1786 1.348 . S
C1784 C1787 1.356 . S
C1784 O1814 1.325 . S
N1785 C1788 1.314 . S
N1785 C1789 1.279 . S
C1786 C1784 1.348 . S
C1786 C1788 1.353 . S
C1786 H1828 0.929 . S
C1787 C1784 1.356 . S
C1787 C1789 1.358 . S
C1787 H1829 0.930 . S
C1788 N1785 1.314 . S
C1788 C1786 1.353 . S
C1788 H1830 0.930 . S
C1789 N1785 1.279 . S
C1789 C1787 1.358 . S
C1789 H1831 0.930 . S
C1790 C1791 1.348 . S
C1790 C1792 1.356 . S
C1790 O1815 1.325 . S
C1791 C1790 1.348 . S
C1791 C1793 1.353 . S
C1791 H1832 0.929 . S
C1792 C1790 1.356 . S
C1792 C1794 1.358 . S
C1792 H1833 0.930 . S
C1793 C1791 1.353 . S
C1793 N1795 1.314 . S
C1793 H1834 0.930 . S
C1794 C1792 1.358 . S
C1794 N1795 1.279 . S
C1794 H1835 0.930 . S
N1795 C1793 1.314 . S
N1795 C1794 1.279 . S
C1796 C1798 1.353 . S
C1796 N1799 1.314 . S
C1796 H1802 0.930 . S
C1797 N1799 1.279 . S
C1797 C1800 1.358 . S
C1797 H1803 0.930 . S
C1798 C1796 1.353 . S
C1798 C1801 1.348 . S
C1798 H1836 0.929 . S
N1799 Li1754 1.990 . S
N1799 C1796 1.314 . S
N1799 C1797 1.279 . S
C1800 C1797 1.358 . S
C1800 C1801 1.356 . S
C1800 H1837 0.930 . S
C1801 C1798 1.348 . S
C1801 C1800 1.356 . S
H1802 C1796 0.930 . S
H1803 C1797 0.930 . S
C1804 N1805 1.314 . S
C1804 C1806 1.353 . S
C1804 H1810 0.930 . S
N1805 Li1755 1.990 . S
N1805 C1804 1.314 . S
N1805 C1808 1.279 . S
C1806 C1804 1.353 . S
C1806 C1809 1.348 . S
C1806 H1838 0.929 . S
C1807 C1808 1.358 . S
C1807 C1809 1.356 . S
C1807 H1839 0.930 . S
C1808 N1805 1.279 . S
C1808 C1807 1.358 . S
C1808 H1811 0.930 . S
C1809 C1806 1.348 . S
C1809 C1807 1.356 . S
H1810 C1804 0.930 . S
H1811 C1808 0.930 . S
O1812 Li1752 1.956 . S
O1812 Li1753 1.970 . S
O1812 Li1754 1.961 . S
O1812 C1756 1.325 . S
O1813 Li1752 1.970 . S
O1813 Li1753 1.956 . S
O1813 Li1755 1.961 . S
O1813 C1762 1.325 . S
O1814 Li1752 1.961 . S
O1814 Li1754 1.956 . S
O1814 Li1755 1.970 . S
O1814 C1784 1.325 . S
O1815 Li1753 1.961 . S
O1815 Li1754 1.970 . S
O1815 Li1755 1.956 . S
O1815 C1790 1.325 . S
H1816 C1758 0.929 . S
H1817 C1759 0.930 . S
H1818 C1760 0.930 . S
H1819 C1761 0.930 . S
H1820 C1763 0.930 . S
H1821 C1765 0.929 . S
H1822 C1766 0.930 . S
H1823 C1767 0.930 . S
H1824 C1770 0.930 . S
H1825 C1773 0.929 . S
H1826 C1778 0.929 . S
H1827 C1779 0.930 . S
H1828 C1786 0.929 . S
H1829 C1787 0.930 . S
H1830 C1788 0.930 . S
H1831 C1789 0.930 . S
H1832 C1791 0.929 . S
H1833 C1792 0.930 . S
H1834 C1793 0.930 . S
H1835 C1794 0.930 . S
H1836 C1798 0.929 . S
H1837 C1800 0.930 . S
H1838 C1806 0.929 . S
H1839 C1807 0.930 . S
Li1840 N1857 1.990 . S
Li1840 O1900 1.956 . S
Li1840 O1901 1.970 1_455 S
Li1840 O1902 1.961 . S
Li1841 N1865 1.990 . S
Li1841 O1900 1.970 1_655 S
Li1841 O1901 1.956 . S
Li1841 O1903 1.961 . S
Li1842 N1887 1.990 . S
Li1842 O1900 1.961 . S
Li1842 O1902 1.956 . S
Li1842 O1903 1.970 1_455 S
Li1843 N1893 1.990 . S
Li1843 O1901 1.961 . S
Li1843 O1902 1.970 1_655 S
Li1843 O1903 1.956 . S
C1844 C1846 1.348 1_455 S
C1844 C1847 1.356 . S
C1844 O1900 1.325 . S
N1845 C1848 1.314 1_455 S
N1845 C1849 1.279 . S
C1846 C1844 1.348 1_655 S
C1846 C1848 1.353 . S
C1846 H1904 0.929 . S
C1847 C1844 1.356 . S
C1847 C1849 1.358 . S
C1847 H1905 0.930 . S
C1848 N1845 1.314 1_655 S
C1848 C1846 1.353 . S
C1848 H1906 0.930 . S
C1849 N1845 1.279 . S
C1849 C1847 1.358 . S
C1849 H1907 0.930 . S
C1850 C1853 1.348 . S
C1850 C1854 1.356 . S
C1850 O1901 1.325 . S
C1851 N1852 1.279 . S
C1851 C1854 1.358 . S
C1851 H1908 0.930 . S
N1852 C1851 1.279 . S
N1852 C1855 1.314 . S
C1853 C1850 1.348 . S
C1853 C1855 1.353 . S
C1853 H1909 0.929 . S
C1854 C1850 1.356 . S
C1854 C1851 1.358 . S
C1854 H1910 0.930 . S
C1855 N1852 1.314 . S
C1855 C1853 1.353 . S
C1855 H1911 0.930 . S
C1856 N1857 1.314 . S
C1856 C1861 1.353 . S
C1856 H1862 0.930 . S
N1857 Li1840 1.990 . S
N1857 C1856 1.314 . S
N1857 C1859 1.279 . S
C1858 C1859 1.358 . S
C1858 C1860 1.356 . S
C1858 H1912 0.930 . S
C1859 N1857 1.279 . S
C1859 C1858 1.358 . S
C1859 H1863 0.930 . S
C1860 C1858 1.356 . S
C1860 C1861 1.348 . S
C1861 C1856 1.353 . S
C1861 C1860 1.348 . S
C1861 H1913 0.929 . S
H1862 C1856 0.930 . S
H1863 C1859 0.930 . S
C1864 N1865 1.314 . S
C1864 C1866 1.353 . S
C1864 H1870 0.930 . S
N1865 Li1841 1.990 . S
N1865 C1864 1.314 . S
N1865 C1868 1.279 . S
C1866 C1864 1.353 . S
C1866 C1869 1.348 . S
C1866 H1914 0.929 . S
C1867 C1868 1.358 . S
C1867 C1869 1.356 . S
C1867 H1915 0.930 . S
C1868 N1865 1.279 . S
C1868 C1867 1.358 . S
C1868 H1871 0.930 . S
C1869 C1866 1.348 . S
C1869 C1867 1.356 . S
H1870 C1864 0.930 . S
H1871 C1868 0.930 . S
C1872 C1874 1.348 . S
C1872 C1875 1.356 . S
C1872 O1902 1.325 . S
N1873 C1876 1.314 . S
N1873 C1877 1.279 . S
C1874 C1872 1.348 . S
C1874 C1876 1.353 . S
C1874 H1916 0.929 . S
C1875 C1872 1.356 . S
C1875 C1877 1.358 . S
C1875 H1917 0.930 . S
C1876 N1873 1.314 . S
C1876 C1874 1.353 . S
C1876 H1918 0.930 . S
C1877 N1873 1.279 . S
C1877 C1875 1.358 . S
C1877 H1919 0.930 . S
C1878 C1879 1.348 1_655 S
C1878 C1880 1.356 . S
C1878 O1903 1.325 . S
C1879 C1878 1.348 1_455 S
C1879 C1881 1.353 . S
C1879 H1920 0.929 . S
C1880 C1878 1.356 . S
C1880 C1882 1.358 . S
C1880 H1921 0.930 . S
C1881 C1879 1.353 . S
C1881 N1883 1.314 1_455 S
C1881 H1922 0.930 . S
C1882 C1880 1.358 . S
C1882 N1883 1.279 . S
C1882 H1923 0.930 . S
N1883 C1881 1.314 1_655 S
N1883 C1882 1.279 . S
C1884 C1886 1.353 . S
C1884 N1887 1.314 . S
C1884 H1890 0.930 . S
C1885 N1887 1.279 . S
C1885 C1888 1.358 . S
C1885 H1891 0.930 . S
C1886 C1884 1.353 . S
C1886 C1889 1.348 . S
C1886 H1924 0.929 . S
N1887 Li1842 1.990 . S
N1887 C1884 1.314 . S
N1887 C1885 1.279 . S
C1888 C1885 1.358 . S
C1888 C1889 1.356 . S
C1888 H1925 0.930 . S
C1889 C1886 1.348 . S
C1889 C1888 1.356 . S
H1890 C1884 0.930 . S
H1891 C1885 0.930 . S
C1892 N1893 1.314 . S
C1892 C1894 1.353 . S
C1892 H1898 0.930 . S
N1893 Li1843 1.990 . S
N1893 C1892 1.314 . S
N1893 C1896 1.279 . S
C1894 C1892 1.353 . S
C1894 C1897 1.348 . S
C1894 H1926 0.929 . S
C1895 C1896 1.358 . S
C1895 C1897 1.356 . S
C1895 H1927 0.930 . S
C1896 N1893 1.279 . S
C1896 C1895 1.358 . S
C1896 H1899 0.930 . S
C1897 C1894 1.348 . S
C1897 C1895 1.356 . S
H1898 C1892 0.930 . S
H1899 C1896 0.930 . S
O1900 Li1840 1.956 . S
O1900 Li1841 1.970 1_455 S
O1900 Li1842 1.961 . S
O1900 C1844 1.325 . S
O1901 Li1840 1.970 1_655 S
O1901 Li1841 1.956 . S
O1901 Li1843 1.961 . S
O1901 C1850 1.325 . S
O1902 Li1840 1.961 . S
O1902 Li1842 1.956 . S
O1902 Li1843 1.970 1_455 S
O1902 C1872 1.325 . S
O1903 Li1841 1.961 . S
O1903 Li1842 1.970 1_655 S
O1903 Li1843 1.956 . S
O1903 C1878 1.325 . S
H1904 C1846 0.929 . S
H1905 C1847 0.930 . S
H1906 C1848 0.930 . S
H1907 C1849 0.930 . S
H1908 C1851 0.930 . S
H1909 C1853 0.929 . S
H1910 C1854 0.930 . S
H1911 C1855 0.930 . S
H1912 C1858 0.930 . S
H1913 C1861 0.929 . S
H1914 C1866 0.929 . S
H1915 C1867 0.930 . S
H1916 C1874 0.929 . S
H1917 C1875 0.930 . S
H1918 C1876 0.930 . S
H1919 C1877 0.930 . S
H1920 C1879 0.929 . S
H1921 C1880 0.930 . S
H1922 C1881 0.930 . S
H1923 C1882 0.930 . S
H1924 C1886 0.929 . S
H1925 C1888 0.930 . S
H1926 C1894 0.929 . S
H1927 C1895 0.930 . S
Li1928 N1945 1.990 . S
Li1928 O1988 1.956 . S
Li1928 O1989 1.970 . S
Li1928 O1990 1.961 . S
Li1929 N1953 1.990 . S
Li1929 O1988 1.970 . S
Li1929 O1989 1.956 . S
Li1929 O1991 1.961 . S
Li1930 N1975 1.990 . S
Li1930 O1988 1.961 . S
Li1930 O1990 1.956 . S
Li1930 O1991 1.970 . S
Li1931 N1981 1.990 . S
Li1931 O1989 1.961 . S
Li1931 O1990 1.970 . S
Li1931 O1991 1.956 . S
C1932 C1934 1.348 . S
C1932 C1935 1.356 . S
C1932 O1988 1.325 . S
N1933 C1936 1.314 . S
N1933 C1937 1.279 . S
C1934 C1932 1.348 . S
C1934 C1936 1.353 . S
C1934 H1992 0.929 . S
C1935 C1932 1.356 . S
C1935 C1937 1.358 . S
C1935 H1993 0.930 . S
C1936 N1933 1.314 . S
C1936 C1934 1.353 . S
C1936 H1994 0.930 . S
C1937 N1933 1.279 . S
C1937 C1935 1.358 . S
C1937 H1995 0.930 . S
C1938 C1941 1.348 . S
C1938 C1942 1.356 . S
C1938 O1989 1.325 . S
C1939 N1940 1.279 . S
C1939 C1942 1.358 . S
C1939 H1996 0.930 . S
N1940 C1939 1.279 . S
N1940 C1943 1.314 . S
C1941 C1938 1.348 . S
C1941 C1943 1.353 . S
C1941 H1997 0.929 . S
C1942 C1938 1.356 . S
C1942 C1939 1.358 . S
C1942 H1998 0.930 . S
C1943 N1940 1.314 . S
C1943 C1941 1.353 . S
C1943 H1999 0.930 . S
C1944 N1945 1.314 . S
C1944 C1949 1.353 . S
C1944 H1950 0.930 . S
N1945 Li1928 1.990 . S
N1945 C1944 1.314 . S
N1945 C1947 1.279 . S
C1946 C1947 1.358 . S
C1946 C1948 1.356 . S
C1946 H2000 0.930 . S
C1947 N1945 1.279 . S
C1947 C1946 1.358 . S
C1947 H1951 0.930 . S
C1948 C1946 1.356 . S
C1948 C1949 1.348 . S
C1949 C1944 1.353 . S
C1949 C1948 1.348 . S
C1949 H2001 0.929 . S
H1950 C1944 0.930 . S
H1951 C1947 0.930 . S
C1952 N1953 1.314 . S
C1952 C1954 1.353 . S
C1952 H1958 0.930 . S
N1953 Li1929 1.990 . S
N1953 C1952 1.314 . S
N1953 C1956 1.279 . S
C1954 C1952 1.353 . S
C1954 C1957 1.348 . S
C1954 H2002 0.929 . S
C1955 C1956 1.358 . S
C1955 C1957 1.356 . S
C1955 H2003 0.930 . S
C1956 N1953 1.279 . S
C1956 C1955 1.358 . S
C1956 H1959 0.930 . S
C1957 C1954 1.348 . S
C1957 C1955 1.356 . S
H1958 C1952 0.930 . S
H1959 C1956 0.930 . S
C1960 C1962 1.348 . S
C1960 C1963 1.356 . S
C1960 O1990 1.325 . S
N1961 C1964 1.314 . S
N1961 C1965 1.279 . S
C1962 C1960 1.348 . S
C1962 C1964 1.353 . S
C1962 H2004 0.929 . S
C1963 C1960 1.356 . S
C1963 C1965 1.358 . S
C1963 H2005 0.930 . S
C1964 N1961 1.314 . S
C1964 C1962 1.353 . S
C1964 H2006 0.930 . S
C1965 N1961 1.279 . S
C1965 C1963 1.358 . S
C1965 H2007 0.930 . S
C1966 C1967 1.348 . S
C1966 C1968 1.356 . S
C1966 O1991 1.325 . S
C1967 C1966 1.348 . S
C1967 C1969 1.353 . S
C1967 H2008 0.929 . S
C1968 C1966 1.356 . S
C1968 C1970 1.358 . S
C1968 H2009 0.930 . S
C1969 C1967 1.353 . S
C1969 N1971 1.314 . S
C1969 H2010 0.930 . S
C1970 C1968 1.358 . S
C1970 N1971 1.279 . S
C1970 H2011 0.930 . S
N1971 C1969 1.314 . S
N1971 C1970 1.279 . S
C1972 C1974 1.353 . S
C1972 N1975 1.314 . S
C1972 H1978 0.930 . S
C1973 N1975 1.279 . S
C1973 C1976 1.358 . S
C1973 H1979 0.930 . S
C1974 C1972 1.353 . S
C1974 C1977 1.348 . S
C1974 H2012 0.929 . S
N1975 Li1930 1.990 . S
N1975 C1972 1.314 . S
N1975 C1973 1.279 . S
C1976 C1973 1.358 . S
C1976 C1977 1.356 . S
C1976 H2013 0.930 . S
C1977 C1974 1.348 . S
C1977 C1976 1.356 . S
H1978 C1972 0.930 . S
H1979 C1973 0.930 . S
C1980 N1981 1.314 . S
C1980 C1982 1.353 . S
C1980 H1986 0.930 . S
N1981 Li1931 1.990 . S
N1981 C1980 1.314 . S
N1981 C1984 1.279 . S
C1982 C1980 1.353 . S
C1982 C1985 1.348 . S
C1982 H2014 0.929 . S
C1983 C1984 1.358 . S
C1983 C1985 1.356 . S
C1983 H2015 0.930 . S
C1984 N1981 1.279 . S
C1984 C1983 1.358 . S
C1984 H1987 0.930 . S
C1985 C1982 1.348 . S
C1985 C1983 1.356 . S
H1986 C1980 0.930 . S
H1987 C1984 0.930 . S
O1988 Li1928 1.956 . S
O1988 Li1929 1.970 . S
O1988 Li1930 1.961 . S
O1988 C1932 1.325 . S
O1989 Li1928 1.970 . S
O1989 Li1929 1.956 . S
O1989 Li1931 1.961 . S
O1989 C1938 1.325 . S
O1990 Li1928 1.961 . S
O1990 Li1930 1.956 . S
O1990 Li1931 1.970 . S
O1990 C1960 1.325 . S
O1991 Li1929 1.961 . S
O1991 Li1930 1.970 . S
O1991 Li1931 1.956 . S
O1991 C1966 1.325 . S
H1992 C1934 0.929 . S
H1993 C1935 0.930 . S
H1994 C1936 0.930 . S
H1995 C1937 0.930 . S
H1996 C1939 0.930 . S
H1997 C1941 0.929 . S
H1998 C1942 0.930 . S
H1999 C1943 0.930 . S
H2000 C1946 0.930 . S
H2001 C1949 0.929 . S
H2002 C1954 0.929 . S
H2003 C1955 0.930 . S
H2004 C1962 0.929 . S
H2005 C1963 0.930 . S
H2006 C1964 0.930 . S
H2007 C1965 0.930 . S
H2008 C1967 0.929 . S
H2009 C1968 0.930 . S
H2010 C1969 0.930 . S
H2011 C1970 0.930 . S
H2012 C1974 0.929 . S
H2013 C1976 0.930 . S
H2014 C1982 0.929 . S
H2015 C1983 0.930 . S
C2016 C2017 1.387 . S
C2016 H2020 0.950 . S
C2016 C2025 1.390 . S
C2017 C2016 1.387 . S
C2017 C2019 1.387 . S
H2018 C2025 0.950 . S
C2019 C2017 1.387 . S
C2019 C2021 1.390 . S
C2019 H2023 0.950 . S
H2020 C2016 0.950 . S
C2021 C2019 1.390 . S
C2021 C2022 1.387 . S
C2021 H2024 0.950 . S
C2022 C2021 1.387 . S
C2022 C2025 1.387 . S
H2023 C2019 0.950 . S
H2024 C2021 0.950 . S
C2025 C2016 1.390 . S
C2025 H2018 0.950 . S
C2025 C2022 1.387 . S
C2026 C2027 1.387 . S
C2026 H2030 0.950 . S
C2026 C2035 1.390 . S
C2027 C2026 1.387 . S
C2027 C2029 1.387 . S
H2028 C2035 0.950 . S
C2029 C2027 1.387 . S
C2029 C2031 1.390 . S
C2029 H2033 0.950 . S
H2030 C2026 0.950 . S
C2031 C2029 1.390 . S
C2031 C2032 1.387 . S
C2031 H2034 0.950 . S
C2032 C2031 1.387 . S
C2032 C2035 1.387 . S
H2033 C2029 0.950 . S
H2034 C2031 0.950 . S
C2035 C2026 1.390 . S
C2035 H2028 0.950 . S
C2035 C2032 1.387 . S
C2036 C2037 1.387 . S
C2036 H2040 0.950 . S
C2036 C2045 1.390 . S
C2037 C2036 1.387 . S
C2037 C2039 1.387 . S
H2038 C2045 0.950 . S
C2039 C2037 1.387 . S
C2039 C2041 1.390 . S
C2039 H2043 0.950 . S
H2040 C2036 0.950 . S
C2041 C2039 1.390 . S
C2041 C2042 1.387 . S
C2041 H2044 0.950 . S
C2042 C2041 1.387 . S
C2042 C2045 1.387 . S
H2043 C2039 0.950 . S
H2044 C2041 0.950 . S
C2045 C2036 1.390 . S
C2045 H2038 0.950 . S
C2045 C2042 1.387 . S
C2046 C2047 1.387 . S
C2046 H2050 0.950 . S
C2046 C2055 1.390 . S
C2047 C2046 1.387 . S
C2047 C2049 1.387 1_565 S
H2048 C2055 0.950 . S
C2049 C2047 1.387 1_545 S
C2049 C2051 1.390 . S
C2049 H2053 0.950 . S
H2050 C2046 0.950 . S
C2051 C2049 1.390 . S
C2051 C2052 1.387 1_545 S
C2051 H2054 0.950 . S
C2052 C2051 1.387 1_565 S
C2052 C2055 1.387 . S
H2053 C2049 0.950 . S
H2054 C2051 0.950 . S
C2055 C2046 1.390 . S
C2055 H2048 0.950 . S
C2055 C2052 1.387 . S
C2056 C2057 1.387 . S
C2056 H2060 0.950 . S
C2056 C2065 1.390 . S
C2057 C2056 1.387 . S
C2057 C2059 1.387 . S
H2058 C2065 0.950 . S
C2059 C2057 1.387 . S
C2059 C2061 1.390 . S
C2059 H2063 0.950 . S
H2060 C2056 0.950 . S
C2061 C2059 1.390 . S
C2061 C2062 1.387 . S
C2061 H2064 0.950 . S
C2062 C2061 1.387 . S
C2062 C2065 1.387 . S
H2063 C2059 0.950 . S
H2064 C2061 0.950 . S
C2065 C2056 1.390 . S
C2065 H2058 0.950 . S
C2065 C2062 1.387 . S
C2066 C2067 1.387 . S
C2066 H2070 0.950 . S
C2066 C2075 1.390 . S
C2067 C2066 1.387 . S
C2067 C2069 1.387 . S
H2068 C2075 0.950 . S
C2069 C2067 1.387 . S
C2069 C2071 1.390 . S
C2069 H2073 0.950 . S
H2070 C2066 0.950 . S
C2071 C2069 1.390 . S
C2071 C2072 1.387 . S
C2071 H2074 0.950 . S
C2072 C2071 1.387 . S
C2072 C2075 1.387 . S
H2073 C2069 0.950 . S
H2074 C2071 0.950 . S
C2075 C2066 1.390 . S
C2075 H2068 0.950 . S
C2075 C2072 1.387 . S
C2076 C2077 1.387 . S
C2076 H2080 0.950 . S
C2076 C2085 1.390 . S
C2077 C2076 1.387 . S
C2077 C2079 1.387 . S
H2078 C2085 0.950 . S
C2079 C2077 1.387 . S
C2079 C2081 1.390 . S
C2079 H2083 0.950 . S
H2080 C2076 0.950 . S
C2081 C2079 1.390 . S
C2081 C2082 1.387 . S
C2081 H2084 0.950 . S
C2082 C2081 1.387 . S
C2082 C2085 1.387 . S
H2083 C2079 0.950 . S
H2084 C2081 0.950 . S
C2085 C2076 1.390 . S
C2085 H2078 0.950 . S
C2085 C2082 1.387 . S
C2086 C2087 1.387 . S
C2086 H2090 0.950 . S
C2086 C2095 1.390 . S
C2087 C2086 1.387 . S
C2087 C2089 1.387 1_565 S
H2088 C2095 0.950 . S
C2089 C2087 1.387 1_545 S
C2089 C2091 1.390 . S
C2089 H2093 0.950 . S
H2090 C2086 0.950 . S
C2091 C2089 1.390 . S
C2091 C2092 1.387 1_545 S
C2091 H2094 0.950 . S
C2092 C2091 1.387 1_565 S
C2092 C2095 1.387 . S
H2093 C2089 0.950 . S
H2094 C2091 0.950 . S
C2095 C2086 1.390 . S
C2095 H2088 0.950 . S
C2095 C2092 1.387 . S
C2096 C2097 1.387 . S
C2096 H2100 0.950 . S
C2096 C2105 1.390 . S
C2097 C2096 1.387 . S
C2097 C2099 1.387 . S
H2098 C2105 0.950 . S
C2099 C2097 1.387 . S
C2099 C2101 1.390 . S
C2099 H2103 0.950 . S
H2100 C2096 0.950 . S
C2101 C2099 1.390 . S
C2101 C2102 1.387 . S
C2101 H2104 0.950 . S
C2102 C2101 1.387 . S
C2102 C2105 1.387 . S
H2103 C2099 0.950 . S
H2104 C2101 0.950 . S
C2105 C2096 1.390 . S
C2105 H2098 0.950 . S
C2105 C2102 1.387 . S
C2106 C2107 1.387 . S
C2106 H2110 0.950 . S
C2106 C2115 1.390 . S
C2107 C2106 1.387 . S
C2107 C2109 1.387 . S
H2108 C2115 0.950 . S
C2109 C2107 1.387 . S
C2109 C2111 1.390 . S
C2109 H2113 0.950 . S
H2110 C2106 0.950 . S
C2111 C2109 1.390 . S
C2111 C2112 1.387 . S
C2111 H2114 0.950 . S
C2112 C2111 1.387 . S
C2112 C2115 1.387 . S
H2113 C2109 0.950 . S
H2114 C2111 0.950 . S
C2115 C2106 1.390 . S
C2115 H2108 0.950 . S
C2115 C2112 1.387 . S
C2116 C2117 1.387 . S
C2116 H2120 0.950 . S
C2116 C2125 1.390 . S
C2117 C2116 1.387 . S
C2117 C2119 1.387 . S
H2118 C2125 0.950 . S
C2119 C2117 1.387 . S
C2119 C2121 1.390 . S
C2119 H2123 0.950 . S
H2120 C2116 0.950 . S
C2121 C2119 1.390 . S
C2121 C2122 1.387 . S
C2121 H2124 0.950 . S
C2122 C2121 1.387 . S
C2122 C2125 1.387 . S
H2123 C2119 0.950 . S
H2124 C2121 0.950 . S
C2125 C2116 1.390 . S
C2125 H2118 0.950 . S
C2125 C2122 1.387 . S
C2126 C2127 1.387 . S
C2126 H2130 0.950 . S
C2126 C2135 1.390 . S
C2127 C2126 1.387 . S
C2127 C2129 1.387 . S
H2128 C2135 0.950 . S
C2129 C2127 1.387 . S
C2129 C2131 1.390 . S
C2129 H2133 0.950 . S
H2130 C2126 0.950 . S
C2131 C2129 1.390 . S
C2131 C2132 1.387 . S
C2131 H2134 0.950 . S
C2132 C2131 1.387 . S
C2132 C2135 1.387 . S
H2133 C2129 0.950 . S
H2134 C2131 0.950 . S
C2135 C2126 1.390 . S
C2135 H2128 0.950 . S
C2135 C2132 1.387 . S
C2136 C2137 1.387 . S
C2136 H2140 0.950 . S
C2136 C2145 1.390 . S
C2137 C2136 1.387 . S
C2137 C2139 1.387 . S
H2138 C2145 0.950 . S
C2139 C2137 1.387 . S
C2139 C2141 1.390 . S
C2139 H2143 0.950 . S
H2140 C2136 0.950 . S
C2141 C2139 1.390 . S
C2141 C2142 1.387 . S
C2141 H2144 0.950 . S
C2142 C2141 1.387 . S
C2142 C2145 1.387 . S
H2143 C2139 0.950 . S
H2144 C2141 0.950 . S
C2145 C2136 1.390 . S
C2145 H2138 0.950 . S
C2145 C2142 1.387 . S
C2146 C2147 1.387 1_655 S
C2146 H2150 0.950 . S
C2146 C2155 1.390 . S
C2147 C2146 1.387 1_455 S
C2147 C2149 1.387 . S
H2148 C2155 0.950 . S
C2149 C2147 1.387 . S
C2149 C2151 1.390 . S
C2149 H2153 0.950 . S
H2150 C2146 0.950 . S
C2151 C2149 1.390 . S
C2151 C2152 1.387 . S
C2151 H2154 0.950 . S
C2152 C2151 1.387 . S
C2152 C2155 1.387 1_455 S
H2153 C2149 0.950 . S
H2154 C2151 0.950 . S
C2155 C2146 1.390 . S
C2155 H2148 0.950 . S
C2155 C2152 1.387 1_655 S
C2156 C2157 1.387 . S
C2156 H2160 0.950 . S
C2156 C2165 1.390 . S
C2157 C2156 1.387 . S
C2157 C2159 1.387 . S
H2158 C2165 0.950 . S
C2159 C2157 1.387 . S
C2159 C2161 1.390 . S
C2159 H2163 0.950 . S
H2160 C2156 0.950 . S
C2161 C2159 1.390 . S
C2161 C2162 1.387 . S
C2161 H2164 0.950 . S
C2162 C2161 1.387 . S
C2162 C2165 1.387 . S
H2163 C2159 0.950 . S
H2164 C2161 0.950 . S
C2165 C2156 1.390 . S
C2165 H2158 0.950 . S
C2165 C2162 1.387 . S
C2166 C2167 1.387 . S
C2166 H2170 0.950 . S
C2166 C2175 1.390 . S
C2167 C2166 1.387 . S
C2167 C2169 1.387 1_655 S
H2168 C2175 0.950 . S
C2169 C2167 1.387 1_455 S
C2169 C2171 1.390 . S
C2169 H2173 0.950 . S
H2170 C2166 0.950 . S
C2171 C2169 1.390 . S
C2171 C2172 1.387 1_455 S
C2171 H2174 0.950 . S
C2172 C2171 1.387 1_655 S
C2172 C2175 1.387 . S
H2173 C2169 0.950 . S
H2174 C2171 0.950 . S
C2175 C2166 1.390 . S
C2175 H2168 0.950 . S
C2175 C2172 1.387 . S
C2176 C2177 1.387 . S
C2176 H2180 0.950 . S
C2176 C2185 1.390 . S
C2177 C2176 1.387 . S
C2177 C2179 1.387 . S
H2178 C2185 0.950 . S
C2179 C2177 1.387 . S
C2179 C2181 1.390 . S
C2179 H2183 0.950 . S
H2180 C2176 0.950 . S
C2181 C2179 1.390 . S
C2181 C2182 1.387 . S
C2181 H2184 0.950 . S
C2182 C2181 1.387 . S
C2182 C2185 1.387 . S
H2183 C2179 0.950 . S
H2184 C2181 0.950 . S
C2185 C2176 1.390 . S
C2185 H2178 0.950 . S
C2185 C2182 1.387 . S
C2186 C2187 1.387 . S
C2186 H2190 0.950 . S
C2186 C2195 1.390 . S
C2187 C2186 1.387 . S
C2187 C2189 1.387 . S
H2188 C2195 0.950 . S
C2189 C2187 1.387 . S
C2189 C2191 1.390 . S
C2189 H2193 0.950 . S
H2190 C2186 0.950 . S
C2191 C2189 1.390 . S
C2191 C2192 1.387 . S
C2191 H2194 0.950 . S
C2192 C2191 1.387 . S
C2192 C2195 1.387 . S
H2193 C2189 0.950 . S
H2194 C2191 0.950 . S
C2195 C2186 1.390 . S
C2195 H2188 0.950 . S
C2195 C2192 1.387 . S
C2196 C2197 1.387 . S
C2196 H2200 0.950 . S
C2196 C2205 1.390 . S
C2197 C2196 1.387 . S
C2197 C2199 1.387 1_556 S
H2198 C2205 0.950 . S
C2199 C2197 1.387 1_554 S
C2199 C2201 1.390 . S
C2199 H2203 0.950 . S
H2200 C2196 0.950 . S
C2201 C2199 1.390 . S
C2201 C2202 1.387 1_554 S
C2201 H2204 0.950 . S
C2202 C2201 1.387 1_556 S
C2202 C2205 1.387 . S
H2203 C2199 0.950 . S
H2204 C2201 0.950 . S
C2205 C2196 1.390 . S
C2205 H2198 0.950 . S
C2205 C2202 1.387 . S
C2206 C2207 1.387 . S
C2206 H2210 0.950 . S
C2206 C2215 1.390 . S
C2207 C2206 1.387 . S
C2207 C2209 1.387 . S
H2208 C2215 0.950 . S
C2209 C2207 1.387 . S
C2209 C2211 1.390 . S
C2209 H2213 0.950 . S
H2210 C2206 0.950 . S
C2211 C2209 1.390 . S
C2211 C2212 1.387 . S
C2211 H2214 0.950 . S
C2212 C2211 1.387 . S
C2212 C2215 1.387 . S
H2213 C2209 0.950 . S
H2214 C2211 0.950 . S
C2215 C2206 1.390 . S
C2215 H2208 0.950 . S
C2215 C2212 1.387 . S
C2216 C2217 1.387 . S
C2216 H2220 0.950 . S
C2216 C2225 1.390 . S
C2217 C2216 1.387 . S
C2217 C2219 1.387 . S
H2218 C2225 0.950 . S
C2219 C2217 1.387 . S
C2219 C2221 1.390 . S
C2219 H2223 0.950 . S
H2220 C2216 0.950 . S
C2221 C2219 1.390 . S
C2221 C2222 1.387 . S
C2221 H2224 0.950 . S
C2222 C2221 1.387 . S
C2222 C2225 1.387 . S
H2223 C2219 0.950 . S
H2224 C2221 0.950 . S
C2225 C2216 1.390 . S
C2225 H2218 0.950 . S
C2225 C2222 1.387 . S
C2226 C2227 1.387 . S
C2226 H2230 0.950 . S
C2226 C2235 1.390 . S
C2227 C2226 1.387 . S
C2227 C2229 1.387 . S
H2228 C2235 0.950 . S
C2229 C2227 1.387 . S
C2229 C2231 1.390 . S
C2229 H2233 0.950 . S
H2230 C2226 0.950 . S
C2231 C2229 1.390 . S
C2231 C2232 1.387 . S
C2231 H2234 0.950 . S
C2232 C2231 1.387 . S
C2232 C2235 1.387 . S
H2233 C2229 0.950 . S
H2234 C2231 0.950 . S
C2235 C2226 1.390 . S
C2235 H2228 0.950 . S
C2235 C2232 1.387 . S
C2236 C2237 1.387 . S
C2236 H2240 0.950 . S
C2236 C2245 1.390 . S
C2237 C2236 1.387 . S
C2237 C2239 1.387 . S
H2238 C2245 0.950 . S
C2239 C2237 1.387 . S
C2239 C2241 1.390 . S
C2239 H2243 0.950 . S
H2240 C2236 0.950 . S
C2241 C2239 1.390 . S
C2241 C2242 1.387 . S
C2241 H2244 0.950 . S
C2242 C2241 1.387 . S
C2242 C2245 1.387 . S
H2243 C2239 0.950 . S
H2244 C2241 0.950 . S
C2245 C2236 1.390 . S
C2245 H2238 0.950 . S
C2245 C2242 1.387 . S
C2246 C2247 1.387 . S
C2246 H2250 0.950 . S
C2246 C2255 1.390 . S
C2247 C2246 1.387 . S
C2247 C2249 1.387 . S
H2248 C2255 0.950 . S
C2249 C2247 1.387 . S
C2249 C2251 1.390 . S
C2249 H2253 0.950 . S
H2250 C2246 0.950 . S
C2251 C2249 1.390 . S
C2251 C2252 1.387 . S
C2251 H2254 0.950 . S
C2252 C2251 1.387 . S
C2252 C2255 1.387 . S
H2253 C2249 0.950 . S
H2254 C2251 0.950 . S
C2255 C2246 1.390 . S
C2255 H2248 0.950 . S
C2255 C2252 1.387 . S
C2256 C2257 1.387 . S
C2256 H2260 0.950 . S
C2256 C2265 1.390 . S
C2257 C2256 1.387 . S
C2257 C2259 1.387 . S
H2258 C2265 0.950 . S
C2259 C2257 1.387 . S
C2259 C2261 1.390 . S
C2259 H2263 0.950 . S
H2260 C2256 0.950 . S
C2261 C2259 1.390 . S
C2261 C2262 1.387 . S
C2261 H2264 0.950 . S
C2262 C2261 1.387 . S
C2262 C2265 1.387 . S
H2263 C2259 0.950 . S
H2264 C2261 0.950 . S
C2265 C2256 1.390 . S
C2265 H2258 0.950 . S
C2265 C2262 1.387 . S
C2266 C2267 1.387 . S
C2266 H2270 0.950 . S
C2266 C2275 1.390 . S
C2267 C2266 1.387 . S
C2267 C2269 1.387 1_545 S
H2268 C2275 0.950 . S
C2269 C2267 1.387 1_565 S
C2269 C2271 1.390 . S
C2269 H2273 0.950 . S
H2270 C2266 0.950 . S
C2271 C2269 1.390 . S
C2271 C2272 1.387 1_565 S
C2271 H2274 0.950 . S
C2272 C2271 1.387 1_545 S
C2272 C2275 1.387 . S
H2273 C2269 0.950 . S
H2274 C2271 0.950 . S
C2275 C2266 1.390 . S
C2275 H2268 0.950 . S
C2275 C2272 1.387 . S
C2276 C2277 1.387 . S
C2276 H2280 0.950 . S
C2276 C2285 1.390 . S
C2277 C2276 1.387 . S
C2277 C2279 1.387 . S
H2278 C2285 0.950 . S
C2279 C2277 1.387 . S
C2279 C2281 1.390 . S
C2279 H2283 0.950 . S
H2280 C2276 0.950 . S
C2281 C2279 1.390 . S
C2281 C2282 1.387 . S
C2281 H2284 0.950 . S
C2282 C2281 1.387 . S
C2282 C2285 1.387 . S
H2283 C2279 0.950 . S
H2284 C2281 0.950 . S
C2285 C2276 1.390 . S
C2285 H2278 0.950 . S
C2285 C2282 1.387 . S
C2286 C2287 1.387 . S
C2286 H2290 0.950 . S
C2286 C2295 1.390 . S
C2287 C2286 1.387 . S
C2287 C2289 1.387 . S
H2288 C2295 0.950 . S
C2289 C2287 1.387 . S
C2289 C2291 1.390 . S
C2289 H2293 0.950 . S
H2290 C2286 0.950 . S
C2291 C2289 1.390 . S
C2291 C2292 1.387 . S
C2291 H2294 0.950 . S
C2292 C2291 1.387 . S
C2292 C2295 1.387 . S
H2293 C2289 0.950 . S
H2294 C2291 0.950 . S
C2295 C2286 1.390 . S
C2295 H2288 0.950 . S
C2295 C2292 1.387 . S
C2296 C2297 1.387 . S
C2296 H2300 0.950 . S
C2296 C2305 1.390 . S
C2297 C2296 1.387 . S
C2297 C2299 1.387 . S
H2298 C2305 0.950 . S
C2299 C2297 1.387 . S
C2299 C2301 1.390 . S
C2299 H2303 0.950 . S
H2300 C2296 0.950 . S
C2301 C2299 1.390 . S
C2301 C2302 1.387 . S
C2301 H2304 0.950 . S
C2302 C2301 1.387 . S
C2302 C2305 1.387 . S
H2303 C2299 0.950 . S
H2304 C2301 0.950 . S
C2305 C2296 1.390 . S
C2305 H2298 0.950 . S
C2305 C2302 1.387 . S
C2306 C2307 1.387 . S
C2306 H2310 0.950 . S
C2306 C2315 1.390 . S
C2307 C2306 1.387 . S
C2307 C2309 1.387 1_545 S
H2308 C2315 0.950 . S
C2309 C2307 1.387 1_565 S
C2309 C2311 1.390 . S
C2309 H2313 0.950 . S
H2310 C2306 0.950 . S
C2311 C2309 1.390 . S
C2311 C2312 1.387 1_565 S
C2311 H2314 0.950 . S
C2312 C2311 1.387 1_545 S
C2312 C2315 1.387 . S
H2313 C2309 0.950 . S
H2314 C2311 0.950 . S
C2315 C2306 1.390 . S
C2315 H2308 0.950 . S
C2315 C2312 1.387 . S
C2316 C2317 1.387 . S
C2316 H2320 0.950 . S
C2316 C2325 1.390 . S
C2317 C2316 1.387 . S
C2317 C2319 1.387 . S
H2318 C2325 0.950 . S
C2319 C2317 1.387 . S
C2319 C2321 1.390 . S
C2319 H2323 0.950 . S
H2320 C2316 0.950 . S
C2321 C2319 1.390 . S
C2321 C2322 1.387 . S
C2321 H2324 0.950 . S
C2322 C2321 1.387 . S
C2322 C2325 1.387 . S
H2323 C2319 0.950 . S
H2324 C2321 0.950 . S
C2325 C2316 1.390 . S
C2325 H2318 0.950 . S
C2325 C2322 1.387 . S
C2326 C2327 1.387 . S
C2326 H2330 0.950 . S
C2326 C2335 1.390 . S
C2327 C2326 1.387 . S
C2327 C2329 1.387 . S
H2328 C2335 0.950 . S
C2329 C2327 1.387 . S
C2329 C2331 1.390 . S
C2329 H2333 0.950 . S
H2330 C2326 0.950 . S
C2331 C2329 1.390 . S
C2331 C2332 1.387 . S
C2331 H2334 0.950 . S
C2332 C2331 1.387 . S
C2332 C2335 1.387 . S
H2333 C2329 0.950 . S
H2334 C2331 0.950 . S
C2335 C2326 1.390 . S
C2335 H2328 0.950 . S
C2335 C2332 1.387 . S
C2336 C2337 1.387 . S
C2336 H2340 0.950 . S
C2336 C2345 1.390 . S
C2337 C2336 1.387 . S
C2337 C2339 1.387 . S
H2338 C2345 0.950 . S
C2339 C2337 1.387 . S
C2339 C2341 1.390 . S
C2339 H2343 0.950 . S
H2340 C2336 0.950 . S
C2341 C2339 1.390 . S
C2341 C2342 1.387 . S
C2341 H2344 0.950 . S
C2342 C2341 1.387 . S
C2342 C2345 1.387 . S
H2343 C2339 0.950 . S
H2344 C2341 0.950 . S
C2345 C2336 1.390 . S
C2345 H2338 0.950 . S
C2345 C2342 1.387 . S
C2346 C2347 1.387 1_455 S
C2346 H2350 0.950 . S
C2346 C2355 1.390 . S
C2347 C2346 1.387 1_655 S
C2347 C2349 1.387 . S
H2348 C2355 0.950 . S
C2349 C2347 1.387 . S
C2349 C2351 1.390 . S
C2349 H2353 0.950 . S
H2350 C2346 0.950 . S
C2351 C2349 1.390 . S
C2351 C2352 1.387 . S
C2351 H2354 0.950 . S
C2352 C2351 1.387 . S
C2352 C2355 1.387 1_655 S
H2353 C2349 0.950 . S
H2354 C2351 0.950 . S
C2355 C2346 1.390 . S
C2355 H2348 0.950 . S
C2355 C2352 1.387 1_455 S
C2356 C2357 1.387 . S
C2356 H2360 0.950 . S
C2356 C2365 1.390 . S
C2357 C2356 1.387 . S
C2357 C2359 1.387 . S
H2358 C2365 0.950 . S
C2359 C2357 1.387 . S
C2359 C2361 1.390 . S
C2359 H2363 0.950 . S
H2360 C2356 0.950 . S
C2361 C2359 1.390 . S
C2361 C2362 1.387 . S
C2361 H2364 0.950 . S
C2362 C2361 1.387 . S
C2362 C2365 1.387 . S
H2363 C2359 0.950 . S
H2364 C2361 0.950 . S
C2365 C2356 1.390 . S
C2365 H2358 0.950 . S
C2365 C2362 1.387 . S
C2366 C2367 1.387 . S
C2366 H2370 0.950 . S
C2366 C2375 1.390 . S
C2367 C2366 1.387 . S
C2367 C2369 1.387 . S
H2368 C2375 0.950 . S
C2369 C2367 1.387 . S
C2369 C2371 1.395 . S
C2369 H2373 0.950 1_455 S
H2370 C2366 0.950 . S
C2371 C2369 1.395 . S
C2371 C2372 1.422 . S
C2371 H2374 0.914 1_455 S
C2372 C2371 1.422 . S
C2372 C2375 1.387 . S
H2373 C2369 0.950 1_655 S
H2374 C2371 0.914 1_655 S
C2375 C2366 1.390 . S
C2375 H2368 0.950 . S
C2375 C2372 1.387 . S
C2376 C2377 1.387 . S
C2376 H2380 0.950 . S
C2376 C2385 1.390 . S
C2377 C2376 1.387 . S
C2377 C2379 1.387 . S
H2378 C2385 0.950 . S
C2379 C2377 1.387 . S
C2379 C2381 1.390 . S
C2379 H2383 0.950 . S
H2380 C2376 0.950 . S
C2381 C2379 1.390 . S
C2381 C2382 1.387 . S
C2381 H2384 0.950 . S
C2382 C2381 1.387 . S
C2382 C2385 1.387 . S
H2383 C2379 0.950 . S
H2384 C2381 0.950 . S
C2385 C2376 1.390 . S
C2385 H2378 0.950 . S
C2385 C2382 1.387 . S
C2386 C2387 1.387 . S
C2386 H2390 0.950 . S
C2386 C2395 1.390 . S
C2387 C2386 1.387 . S
C2387 C2389 1.387 . S
H2388 C2395 0.950 . S
C2389 C2387 1.387 . S
C2389 C2391 1.390 . S
C2389 H2393 0.950 . S
H2390 C2386 0.950 . S
C2391 C2389 1.390 . S
C2391 C2392 1.387 . S
C2391 H2394 0.950 . S
C2392 C2391 1.387 . S
C2392 C2395 1.387 . S
H2393 C2389 0.950 . S
H2394 C2391 0.950 . S
C2395 C2386 1.390 . S
C2395 H2388 0.950 . S
C2395 C2392 1.387 . S
C2396 C2397 1.387 . S
C2396 H2400 0.950 . S
C2396 C2405 1.390 . S
C2397 C2396 1.387 . S
C2397 C2399 1.387 . S
H2398 C2405 0.950 . S
C2399 C2397 1.387 . S
C2399 C2401 1.390 . S
C2399 H2403 0.950 . S
H2400 C2396 0.950 . S
C2401 C2399 1.390 . S
C2401 C2402 1.387 . S
C2401 H2404 0.950 . S
C2402 C2401 1.387 . S
C2402 C2405 1.387 . S
H2403 C2399 0.950 . S
H2404 C2401 0.950 . S
C2405 C2396 1.390 . S
C2405 H2398 0.950 . S
C2405 C2402 1.387 . S
C2406 C2407 1.387 . S
C2406 H2410 0.950 . S
C2406 C2415 1.390 . S
C2407 C2406 1.387 . S
C2407 C2409 1.387 . S
H2408 C2415 0.950 . S
C2409 C2407 1.387 . S
C2409 C2411 1.390 . S
C2409 H2413 0.950 . S
H2410 C2406 0.950 . S
C2411 C2409 1.390 . S
C2411 C2412 1.387 . S
C2411 H2414 0.950 . S
C2412 C2411 1.387 . S
C2412 C2415 1.387 . S
H2413 C2409 0.950 . S
H2414 C2411 0.950 . S
C2415 C2406 1.390 . S
C2415 H2408 0.950 . S
C2415 C2412 1.387 . S
C2416 C2417 1.387 . S
C2416 H2420 0.950 . S
C2416 C2425 1.390 . S
C2417 C2416 1.387 . S
C2417 C2419 1.387 . S
H2418 C2425 0.950 . S
C2419 C2417 1.387 . S
C2419 C2421 1.390 . S
C2419 H2423 0.950 . S
H2420 C2416 0.950 . S
C2421 C2419 1.390 . S
C2421 C2422 1.387 . S
C2421 H2424 0.950 . S
C2422 C2421 1.387 . S
C2422 C2425 1.387 . S
H2423 C2419 0.950 . S
H2424 C2421 0.950 . S
C2425 C2416 1.390 . S
C2425 H2418 0.950 . S
C2425 C2422 1.387 . S
C2426 C2427 1.387 . S
C2426 H2430 0.950 . S
C2426 C2435 1.390 . S
C2427 C2426 1.387 . S
C2427 C2429 1.387 . S
H2428 C2435 0.950 . S
C2429 C2427 1.387 . S
C2429 C2431 1.390 . S
C2429 H2433 0.950 . S
H2430 C2426 0.950 . S
C2431 C2429 1.390 . S
C2431 C2432 1.387 . S
C2431 H2434 0.950 . S
C2432 C2431 1.387 . S
C2432 C2435 1.387 . S
H2433 C2429 0.950 . S
H2434 C2431 0.950 . S
C2435 C2426 1.390 . S
C2435 H2428 0.950 . S
C2435 C2432 1.387 . S
C2436 C2437 1.387 . S
C2436 H2440 0.950 . S
C2436 C2445 1.390 . S
C2437 C2436 1.387 . S
C2437 C2439 1.387 . S
H2438 C2445 0.950 . S
C2439 C2437 1.387 . S
C2439 C2441 1.390 . S
C2439 H2443 0.950 . S
H2440 C2436 0.950 . S
C2441 C2439 1.390 . S
C2441 C2442 1.387 . S
C2441 H2444 0.950 . S
C2442 C2441 1.387 . S
C2442 C2445 1.387 . S
H2443 C2439 0.950 . S
H2444 C2441 0.950 . S
C2445 C2436 1.390 . S
C2445 H2438 0.950 . S
C2445 C2442 1.387 . S
C2446 C2447 1.387 . S
C2446 H2450 0.950 . S
C2446 C2455 1.390 . S
C2447 C2446 1.387 . S
C2447 C2449 1.387 . S
H2448 C2455 0.950 . S
C2449 C2447 1.387 . S
C2449 C2451 1.390 . S
C2449 H2453 0.950 . S
H2450 C2446 0.950 . S
C2451 C2449 1.390 . S
C2451 C2452 1.387 . S
C2451 H2454 0.950 . S
C2452 C2451 1.387 . S
C2452 C2455 1.387 . S
H2453 C2449 0.950 . S
H2454 C2451 0.950 . S
C2455 C2446 1.390 . S
C2455 H2448 0.950 . S
C2455 C2452 1.387 . S
C2456 C2457 1.387 1_554 S
C2456 H2460 0.950 . S
C2456 C2465 1.390 . S
C2457 C2456 1.387 1_556 S
C2457 C2459 1.387 . S
H2458 C2465 0.950 . S
C2459 C2457 1.387 . S
C2459 C2461 1.390 . S
C2459 H2463 0.950 . S
H2460 C2456 0.950 . S
C2461 C2459 1.390 . S
C2461 C2462 1.387 . S
C2461 H2464 0.950 . S
C2462 C2461 1.387 . S
C2462 C2465 1.387 1_556 S
H2463 C2459 0.950 . S
H2464 C2461 0.950 . S
C2465 C2456 1.390 . S
C2465 H2458 0.950 . S
C2465 C2462 1.387 1_554 S
C2466 C2467 1.387 . S
C2466 H2470 0.950 . S
C2466 C2475 1.390 . S
C2467 C2466 1.387 . S
C2467 C2469 1.387 . S
H2468 C2475 0.950 . S
C2469 C2467 1.387 . S
C2469 C2471 1.390 . S
C2469 H2473 0.950 . S
H2470 C2466 0.950 . S
C2471 C2469 1.390 . S
C2471 C2472 1.387 . S
C2471 H2474 0.950 . S
C2472 C2471 1.387 . S
C2472 C2475 1.387 . S
H2473 C2469 0.950 . S
H2474 C2471 0.950 . S
C2475 C2466 1.390 . S
C2475 H2468 0.950 . S
C2475 C2472 1.387 . S
C2476 C2477 1.387 1_556 S
C2476 H2480 0.950 . S
C2476 C2485 1.390 . S
C2477 C2476 1.387 1_554 S
C2477 C2479 1.387 . S
H2478 C2485 0.950 . S
C2479 C2477 1.387 . S
C2479 C2481 1.390 . S
C2479 H2483 0.950 . S
H2480 C2476 0.950 . S
C2481 C2479 1.390 . S
C2481 C2482 1.387 . S
C2481 H2484 0.950 . S
C2482 C2481 1.387 . S
C2482 C2485 1.387 1_554 S
H2483 C2479 0.950 . S
H2484 C2481 0.950 . S
C2485 C2476 1.390 . S
C2485 H2478 0.950 . S
C2485 C2482 1.387 1_556 S
C2486 C2487 1.387 . S
C2486 H2490 0.950 . S
C2486 C2495 1.390 . S
C2487 C2486 1.387 . S
C2487 C2489 1.387 1_554 S
H2488 C2495 0.950 . S
C2489 C2487 1.387 1_556 S
C2489 C2491 1.390 . S
C2489 H2493 0.950 . S
H2490 C2486 0.950 . S
C2491 C2489 1.390 . S
C2491 C2492 1.387 1_556 S
C2491 H2494 0.950 . S
C2492 C2491 1.387 1_554 S
C2492 C2495 1.387 . S
H2493 C2489 0.950 . S
H2494 C2491 0.950 . S
C2495 C2486 1.390 . S
C2495 H2488 0.950 . S
C2495 C2492 1.387 . S
C2022 C1009 1.512 . S
C2017 C331 1.503 . S
C2032 C1068 1.523 . S
C2027 C380 1.507 . S
C2037 C421 1.497 . S
C2042 C1185 1.517 . S
C2052 C1253 1.522 . S
C2047 C260 1.484 . S
C2062 C1332 1.512 . S
C2057 C620 1.498 . S
C2072 C1457 1.523 . S
C2067 C740 1.507 . S
C2077 C680 1.477 . S
C2082 C1517 1.512 . S
C2092 C1625 1.522 . S
C2087 C571 1.509 . S
C2097 C691 1.477 . S
C2102 C1721 1.518 . S
C2112 C1781 1.522 . S
C2107 C541 1.508 . S
C2117 C601 1.498 . S
C2122 C1684 1.507 . S
C2132 C1801 1.522 . S
C2127 C721 1.507 . S
C2137 C451 1.497 . S
C2142 C1869 1.517 . S
C2147 C241 1.486 . S
C2152 C1860 1.523 . S
C2157 C320 1.497 . S
C2162 C1889 1.507 . S
C2167 C391 1.508 . S
C2172 C1897 1.523 . S
C2177 C211 1.498 . S
C2182 C1281 1.518 . S
C2187 C841 1.497 . S
C2192 C1244 1.507 . S
C2202 C980 1.522 . S
C2197 C901 1.509 . S
C2212 C1077 1.512 . S
C2207 C500 1.497 . S
C2217 C271 1.483 . S
C2222 C1341 1.522 . S
C2232 C1633 1.513 . S
C2227 C661 1.472 . S
C2242 C1361 1.522 . S
C2237 C560 1.508 . S
C2252 C1545 1.522 . S
C2247 C751 1.506 . S
C2262 C1537 1.513 . S
C2257 C871 1.498 . S
C2267 C920 1.508 . S
C2272 C1605 1.522 . S
C2277 C481 1.497 . S
C2282 C1369 1.512 . S
C2292 C1420 1.523 . S
C2287 C800 1.484 . S
C2297 C200 1.498 . S
C2302 C1165 1.508 . S
C2312 C1273 1.522 . S
C2307 C20 1.506 . S
C2322 C989 1.512 . S
C2317 C80 1.470 . S
C2332 C1105 1.523 . S
C2327 C151 1.507 . S
C2337 C91 1.476 . S
C2342 C1809 1.512 . S
C2347 C121 1.507 . S
C2352 C1693 1.524 . S
C2357 C181 1.497 . S
C2362 C1772 1.512 . S
C2367 C1 1.506 . S
C2372 C1713 1.522 . S
C2382 C1957 1.513 . S
C2377 C511 1.498 . S
C2392 C1948 1.522 . S
C2387 C781 1.483 . S
C2402 C1977 1.513 . S
C2397 C860 1.498 . S
C2407 C931 1.507 . S
C2412 C1985 1.523 . S
C2417 C631 1.498 . S
C2422 C1449 1.513 . S
C2432 C1429 1.512 . S
C2427 C301 1.497 . S
C2442 C1508 1.522 . S
C2437 C361 1.508 . S
C2452 C1596 1.513 . S
C2447 C440 1.503 . S
C2457 C811 1.486 . S
C2462 C1156 1.524 . S
C2472 C1097 1.512 . S
C2467 C61 1.476 . S
C2477 C140 1.507 . S
C2482 C1193 1.523 . S
C2492 C1017 1.522 . S
C2487 C31 1.507 . S
