# Generated by pormake.
# Topology tsx, (6,3)-cn, num edge types: 1
# Building blocks:
#     Node 0, Type 0, BuildingBlock: FUNLAD_clean_sbu_0, # of connection points: 6
#     Node 1, Type 0, BuildingBlock: FUNLAD_clean_sbu_0, # of connection points: 6
#     Node 2, Type 1, BuildingBlock: BETDIP_clean_linker_0, # of connection points: 3
#     Node 3, Type 1, BuildingBlock: BETDIP_clean_linker_0, # of connection points: 3
#     Node 4, Type 1, BuildingBlock: BETDIP_clean_linker_0, # of connection points: 3
#     Node 5, Type 1, BuildingBlock: BETDIP_clean_linker_0, # of connection points: 3
#     Edge 6, Type (0, 1), BuildingBlock: CIFDUS_clean_linker_0, # of connection points: 2
#     Edge 7, Type (0, 1), BuildingBlock: CIFDUS_clean_linker_0, # of connection points: 2
#     Edge 8, Type (0, 1), BuildingBlock: CIFDUS_clean_linker_0, # of connection points: 2
#     Edge 9, Type (0, 1), BuildingBlock: CIFDUS_clean_linker_0, # of connection points: 2
#     Edge 10, Type (0, 1), BuildingBlock: CIFDUS_clean_linker_0, # of connection points: 2
#     Edge 11, Type (0, 1), BuildingBlock: CIFDUS_clean_linker_0, # of connection points: 2
#     Edge 12, Type (0, 1), BuildingBlock: CIFDUS_clean_linker_0, # of connection points: 2
#     Edge 13, Type (0, 1), BuildingBlock: CIFDUS_clean_linker_0, # of connection points: 2
#     Edge 14, Type (0, 1), BuildingBlock: CIFDUS_clean_linker_0, # of connection points: 2
#     Edge 15, Type (0, 1), BuildingBlock: CIFDUS_clean_linker_0, # of connection points: 2
#     Edge 16, Type (0, 1), BuildingBlock: CIFDUS_clean_linker_0, # of connection points: 2
#     Edge 17, Type (0, 1), BuildingBlock: CIFDUS_clean_linker_0, # of connection points: 2
# Relax obj value: 0.114
# Max RMSD: 0.118
# Mean RMSD: 0.114
data_MOF--net-tsx--node1-FUNLAD_clean_sbu_0--node2-BETDIP_clean_linker_0--edge1-CIFDUS_clean_linker_0
_symmetry_space_group_name_H-M    P1
_symmetry_Int_Tables_number       1
_symmetry_cell_setting            triclinic
loop_
_symmetry_equiv_pos_as_xyz
'x, y, z'
_cell_length_a     16.985336
_cell_length_b     18.691475
_cell_length_c     35.634475
_cell_angle_alpha  90.894948
_cell_angle_beta   102.21898
_cell_angle_gamma 90.913167
loop_
_atom_site_label
_atom_site_type_symbol
_atom_site_fract_x
_atom_site_fract_y
_atom_site_fract_z
_atom_type_partial_charge
C0 C 0.88729 0.87885 -0.00289 0.0
N1 N 0.06396 0.98326 0.08127 0.0
C2 C 0.005 0.9787 0.10172 0.0
C3 C 0.02319 0.98795 0.14143 0.0
C4 C 0.10266 0.00433 0.16061 0.0
C5 C 0.16288 0.00726 0.13891 0.0
C6 C 0.14216 0.99604 0.09909 0.0
Zn7 Zn 0.02728 0.98198 0.02278 0.0
C8 C 0.1056 0.87942 0.98089 0.0
N9 N 0.93529 0.98922 0.90244 0.0
C10 C 0.85609 0.98303 0.88465 0.0
C11 C 0.99395 0.99681 0.88198 0.0
C12 C 0.97412 0.9991 0.84214 0.0
C13 C 0.89336 0.99245 0.82317 0.0
C14 C 0.83359 0.98398 0.84454 0.0
Zn15 Zn 0.97238 0.987 0.96058 0.0
O16 O 0.93844 0.90324 0.02592 0.0
C17 C 0.89274 0.08947 0.00041 0.0
O18 O 0.88678 0.90395 0.96411 0.0
H19 H 0.05655 1.00062 0.89656 0.0
H20 H 0.94294 0.96993 0.08717 0.0
H21 H 0.81054 0.97698 0.90154 0.0
O22 O 0.94533 0.06741 0.02857 0.0
O23 O 0.88874 0.0626 0.96718 0.0
H24 H 0.18817 0.99994 0.08234 0.0
O25 O 0.05864 0.07201 0.95807 0.0
O26 O 0.11577 0.05817 0.01869 0.0
O27 O 0.05625 0.9094 0.95427 0.0
O28 O 0.10895 0.89858 0.01567 0.0
C29 C 0.11357 0.08901 0.98711 0.0
H30 H 0.97486 0.98294 0.15679 0.0
H31 H 0.22494 0.02014 0.15226 0.0
H32 H 0.0215 0.00483 0.8262 0.0
H33 H 0.7707 0.97821 0.83041 0.0
C34 C 0.43217 0.4179 0.50464 0.0
N35 N 0.57434 0.55609 0.58586 0.0
C36 C 0.50824 0.55559 0.60175 0.0
C37 C 0.5168 0.56081 0.64139 0.0
C38 C 0.594 0.56767 0.66483 0.0
C39 C 0.66114 0.57168 0.64782 0.0
C40 C 0.64989 0.56521 0.60788 0.0
Zn41 Zn 0.55615 0.5375 0.52824 0.0
C42 C 0.66574 0.4274 0.5076 0.0
N43 N 0.50947 0.49463 0.40816 0.0
C44 C 0.43271 0.48467 0.38766 0.0
C45 C 0.57243 0.5032 0.39045 0.0
C46 C 0.55878 0.5065 0.35059 0.0
C47 C 0.47993 0.49934 0.32896 0.0
C48 C 0.41657 0.48613 0.34762 0.0
Zn49 Zn 0.52972 0.51082 0.4659 0.0
O50 O 0.47012 0.45629 0.53258 0.0
C51 C 0.42503 0.62521 0.48469 0.0
O52 O 0.44592 0.42709 0.47133 0.0
H53 H 0.63296 0.51065 0.40731 0.0
H54 H 0.44871 0.54906 0.58371 0.0
H55 H 0.38354 0.47878 0.40238 0.0
O56 O 0.46386 0.61586 0.51879 0.0
O57 O 0.43876 0.58586 0.4576 0.0
H58 H 0.70152 0.56542 0.59458 0.0
O59 O 0.61257 0.5968 0.46116 0.0
O60 O 0.64035 0.61784 0.5234 0.0
O61 O 0.62293 0.43692 0.47435 0.0
O62 O 0.65092 0.46169 0.53637 0.0
C63 C 0.65093 0.63232 0.49016 0.0
H64 H 0.46375 0.55786 0.65371 0.0
H65 H 0.72158 0.57647 0.66526 0.0
H66 H 0.60895 0.5161 0.33682 0.0
H67 H 0.35502 0.48049 0.33152 0.0
H68 H 0.11878 0.00414 0.49155 0.0
H69 H 0.03906 0.13665 0.394 0.0
H70 H 0.16518 0.94327 0.38174 0.0
H71 H 0.05822 0.22283 0.45435 0.0
C72 C 0.01392 0.1879 0.46313 0.0
C73 C 0.11458 0.01413 0.46137 0.0
C74 C 0.15113 0.96797 0.43909 0.0
C75 C 0.07319 0.07412 0.44503 0.0
C76 C 0.07061 0.08989 0.40636 0.0
C77 C 0.10554 0.04354 0.38335 0.0
C78 C 0.14333 0.98192 0.39987 0.0
N79 N 0.02787 0.11365 0.46692 0.0
H80 H -0.00306 0.00782 0.51254 0.0
H81 H 0.00577 0.12693 0.61759 0.0
H82 H 0.84097 0.94848 0.58727 0.0
H83 H 0.03867 0.21805 0.58471 0.0
C84 C 0.07791 0.19505 0.5675 0.0
C85 C 0.97431 0.01819 0.53818 0.0
C86 C 0.91602 0.97185 0.54748 0.0
C87 C 0.00366 0.0772 0.56224 0.0
C88 C 0.97752 0.08633 0.59698 0.0
C89 C 0.91902 0.04009 0.60658 0.0
C90 C 0.8866 0.98459 0.58073 0.0
N91 N 0.06232 0.12428 0.5521 0.0
H92 H 0.57603 0.45821 0.98904 0.0
H93 H 0.52827 0.58367 0.88641 0.0
H94 H 0.65231 0.38548 0.88771 0.0
H95 H 0.40365 0.5829 0.9063 0.0
C96 C 0.42599 0.60157 0.93575 0.0
C97 C 0.58239 0.46732 0.95992 0.0
C98 C 0.61984 0.41588 0.94095 0.0
C99 C 0.54704 0.52707 0.94 0.0
C100 C 0.55482 0.53756 0.90194 0.0
C101 C 0.59245 0.48648 0.88302 0.0
C102 C 0.62479 0.42595 0.90264 0.0
N103 N 0.49814 0.5727 0.95726 0.0
H104 H 0.43328 0.47372 -0.00518 0.0
H105 H 0.51606 0.55089 0.11105 0.0
H106 H 0.30592 0.41341 0.08153 0.0
H107 H 0.63668 0.54291 0.09246 0.0
C108 C 0.62106 0.571 0.06551 0.0
C109 C 0.42575 0.47826 0.02413 0.0
C110 C 0.36297 0.44015 0.03518 0.0
C111 C 0.48116 0.51869 0.05145 0.0
C112 C 0.47262 0.52083 0.08984 0.0
C113 C 0.4101 0.48247 0.10125 0.0
C114 C 0.35437 0.44377 0.07336 0.0
N115 N 0.5459 0.55569 0.04012 0.0
H116 H 0.08622 0.22544 0.96402 0.0
H117 H 0.27459 0.07841 0.00836 0.0
H118 H 0.37432 0.17637 0.01879 0.0
H119 H 0.40285 0.30499 0.02618 0.0
H120 H 0.21245 0.45418 -0.00938 0.0
H121 H 0.11857 0.35521 0.965 0.0
C122 C 0.14956 0.21505 0.97484 0.0
C123 C 0.17372 0.14537 0.98535 0.0
C124 C 0.20578 0.27228 0.98259 0.0
C125 C 0.25529 0.13197 0.00011 0.0
C126 C 0.31207 0.18788 0.00618 0.0
C127 C 0.3415 0.31558 0.01145 0.0
C128 C 0.31423 0.38605 0.00963 0.0
C129 C 0.28743 0.25846 -0.00096 0.0
C130 C 0.23443 0.4 -0.00839 0.0
C131 C 0.1808 0.34344 0.97744 0.0
H132 H 0.24851 0.82709 0.02213 0.0
H133 H 0.07492 0.80226 0.91476 0.0
H134 H 0.15762 0.71314 0.89266 0.0
H135 H 0.28085 0.64575 0.90183 0.0
H136 H 0.45898 0.66949 0.00723 0.0
H137 H 0.3733 0.75477 0.03213 0.0
C138 C 0.22875 0.80159 -0.0059 0.0
C139 C 0.15586 0.82184 0.97009 0.0
C140 C 0.27753 0.75033 0.98108 0.0
C141 C 0.13109 0.78845 0.93374 0.0
C142 C 0.17827 0.73726 0.92098 0.0
C143 C 0.30078 0.66941 0.93035 0.0
C144 C 0.37572 0.65139 0.95265 0.0
C145 C 0.25189 0.71856 0.94411 0.0
C146 C 0.40108 0.6822 0.98957 0.0
C147 C 0.35218 0.73117 0.00374 0.0
H148 H 0.8969 0.79621 0.05936 0.0
H149 H 0.74937 0.83225 0.94713 0.0
H150 H 0.65339 0.73951 0.95799 0.0
H151 H 0.61027 0.65072 0.00045 0.0
H152 H 0.76144 0.61288 0.11147 0.0
H153 H 0.85731 0.70452 0.10011 0.0
C154 C 0.84376 0.78391 0.0372 0.0
C155 C 0.82998 0.82146 0.0026 0.0
C156 C 0.78956 0.73041 0.0435 0.0
C157 C 0.7613 0.80417 0.97404 0.0
C158 C 0.70638 0.75128 0.98027 0.0
C159 C 0.66441 0.66196 0.02194 0.0
C160 C 0.67885 0.62498 0.05675 0.0
C161 C 0.71972 0.71432 0.01501 0.0
C162 C 0.74918 0.64067 0.08446 0.0
C163 C 0.80392 0.69305 0.078 0.0
H164 H 0.73885 0.10457 0.96424 0.0
H165 H 0.93169 0.21044 0.045 0.0
H166 H 0.85635 0.32213 0.03856 0.0
H167 H 0.74572 0.39361 0.00084 0.0
H168 H 0.55593 0.28548 0.91926 0.0
H169 H 0.6187 0.17035 0.9356 0.0
C170 C 0.76332 0.15172 0.98116 0.0
C171 C 0.84073 0.15002 0.00462 0.0
C172 C 0.72034 0.21538 0.97687 0.0
C173 C 0.87192 0.21082 0.02678 0.0
C174 C 0.82918 0.27473 0.02282 0.0
C175 C 0.71718 0.34438 0.98772 0.0
C176 C 0.64705 0.34742 0.95872 0.0
C177 C 0.75478 0.27837 -0.00332 0.0
C178 C 0.61026 0.28382 0.94155 0.0
C179 C 0.64631 0.21822 0.95071 0.0
H180 H 0.80974 0.65504 0.51851 0.0
H181 H 0.59783 0.75222 0.45262 0.0
H182 H 0.66767 0.86882 0.45867 0.0
H183 H 0.78113 0.94538 0.49297 0.0
H184 H 0.9941 0.84732 0.55728 0.0
H185 H 0.93342 0.72833 0.54068 0.0
C186 C 0.78015 0.7015 0.50449 0.0
C187 C 0.69914 0.69594 0.4854 0.0
C188 C 0.82089 0.768 0.50793 0.0
C189 C 0.66055 0.75583 0.46728 0.0
C190 C 0.70026 0.82243 0.47096 0.0
C191 C 0.81518 0.89767 0.50182 0.0
C192 C 0.89161 0.90432 0.52614 0.0
C193 C 0.77936 0.82962 0.49256 0.0
C194 C 0.93536 0.84277 0.53815 0.0
C195 C 0.90031 0.77494 0.52908 0.0
H196 H 0.67481 0.29151 0.48256 0.0
H197 H 0.81877 0.46964 0.5389 0.0
H198 H 0.94199 0.4101 0.53101 0.0
H199 H 0.00658 0.31285 0.50133 0.0
H200 H 0.86345 0.12971 0.45072 0.0
H201 H 0.74173 0.18518 0.46316 0.0
C202 C 0.73346 0.31615 0.49395 0.0
C203 C 0.73843 0.38451 0.51115 0.0
C204 C 0.80368 0.28124 0.48976 0.0
C205 C 0.81417 0.41651 0.5259 0.0
C206 C 0.88435 0.38289 0.52102 0.0
C207 C 0.94868 0.28509 0.49349 0.0
C208 C 0.94302 0.21831 0.47455 0.0
C209 C 0.87956 0.31625 0.50191 0.0
C210 C 0.86857 0.1816 0.46511 0.0
C211 C 0.79913 0.21324 0.47217 0.0
H212 H 0.3453 0.42732 0.55935 0.0
H213 H 0.37719 0.2944 0.46394 0.0
H214 H 0.27289 0.21041 0.47595 0.0
H215 H 0.17233 0.17549 0.5141 0.0
H216 H 0.13347 0.31695 0.605 0.0
H217 H 0.24186 0.39642 0.5947 0.0
C218 C 0.32981 0.37974 0.54128 0.0
C219 C 0.3694 0.36657 0.51109 0.0
C220 C 0.26873 0.3332 0.54769 0.0
C221 C 0.34757 0.30551 0.48744 0.0
C222 C 0.28813 0.25751 0.49435 0.0
C223 C 0.18743 0.22385 0.53146 0.0
C224 C 0.14506 0.24047 0.56032 0.0
C225 C 0.24818 0.27086 0.52443 0.0
C226 C 0.16538 0.30317 0.58266 0.0
C227 C 0.22721 0.34865 0.57677 0.0
H228 H 0.30369 0.68261 0.51531 0.0
H229 H 0.44998 0.71607 0.43157 0.0
H230 H 0.38451 0.82884 0.41357 0.0
H231 H 0.28555 0.91621 0.42036 0.0
H232 H 0.12236 0.87805 0.49612 0.0
H233 H 0.19621 0.7705 0.51959 0.0
C234 C 0.32058 0.71487 0.49312 0.0
C235 C 0.38106 0.69145 0.4746 0.0
C236 C 0.28031 0.7789 0.48177 0.0
C237 C 0.40292 0.73308 0.44587 0.0
C238 C 0.36586 0.79761 0.43568 0.0
C239 C 0.26467 0.88393 0.44148 0.0
C240 C 0.19752 0.9049 0.45585 0.0
C241 C 0.30415 0.82061 0.45315 0.0
C242 C 0.17411 0.86365 0.48455 0.0
C243 C 0.21585 0.80165 0.49774 0.0
H244 H 0.00896 0.07065 0.20365 0.0
H245 H 0.23951 0.97002 0.2131 0.0
H246 H 0.26546 0.98474 0.2827 0.0
H247 H 0.21775 0.0155 0.34087 0.0
H248 H 0.97852 0.0985 0.33146 0.0
H249 H 0.9617 0.1024 0.26188 0.0
C250 C 0.06462 0.05106 0.22081 0.0
C251 C 0.12154 0.01818 0.20288 0.0
C252 C 0.07772 0.05672 0.26094 0.0
C253 C 0.19461 0.9959 0.2258 0.0
C254 C 0.20932 0.00378 0.26573 0.0
C255 C 0.16155 0.03404 0.32368 0.0
C256 C 0.09906 0.05555 0.34159 0.0
C257 C 0.15044 0.03244 0.28358 0.0
C258 C 0.02801 0.08199 0.31876 0.0
C259 C 0.01791 0.08346 0.27883 0.0
H260 H 0.8871 0.10569 0.77687 0.0
H261 H 0.86161 0.87609 0.77633 0.0
H262 H 0.86099 0.87077 0.70754 0.0
H263 H 0.88644 0.9302 0.65082 0.0
H264 H 0.90554 0.16101 0.64972 0.0
H265 H 0.89116 0.16714 0.7164 0.0
C266 C 0.87909 0.05492 0.76121 0.0
C267 C 0.87403 0.99135 0.78104 0.0
C268 C 0.87954 0.05244 0.7219 0.0
C269 C 0.86466 0.9255 0.76114 0.0
C270 C 0.86507 0.92252 0.72205 0.0
C271 C 0.88482 0.98223 0.66445 0.0
C272 C 0.89826 0.04501 0.64513 0.0
C273 C 0.87505 0.9855 0.70248 0.0
C274 C 0.89752 0.1116 0.66405 0.0
C275 C 0.88869 0.11526 0.70213 0.0
H276 H 0.54164 0.46169 0.70344 0.0
H277 H 0.66931 0.66453 0.71963 0.0
H278 H 0.67989 0.65822 0.78938 0.0
H279 H 0.64976 0.59479 0.84552 0.0
H280 H 0.52754 0.38916 0.82808 0.0
H281 H 0.5175 0.39645 0.75888 0.0
C282 C 0.57164 0.50447 0.72236 0.0
C283 C 0.6039 0.56379 0.70682 0.0
C284 C 0.5783 0.49982 0.76201 0.0
C285 C 0.64399 0.61849 0.7313 0.0
C286 C 0.64978 0.61491 0.771 0.0
C287 C 0.62116 0.55182 0.82638 0.0
C288 C 0.58938 0.49158 0.84151 0.0
C289 C 0.6167 0.55593 0.78665 0.0
C290 C 0.55282 0.43572 0.81682 0.0
C291 C 0.54686 0.43995 0.77737 0.0
H292 H 0.41548 0.40266 0.27342 0.0
H293 H 0.50912 0.6188 0.29193 0.0
H294 H 0.48756 0.63554 0.2225 0.0
H295 H 0.44765 0.58677 0.15703 0.0
H296 H 0.36918 0.36543 0.13906 0.0
H297 H 0.37627 0.35347 0.2075 0.0
C298 C 0.43046 0.45339 0.26201 0.0
C299 C 0.4638 0.50943 0.28724 0.0
C300 C 0.42002 0.46184 0.22224 0.0
C301 C 0.48377 0.57498 0.27264 0.0
C302 C 0.47132 0.58453 0.23311 0.0
C303 C 0.43262 0.53569 0.168 0.0
C304 C 0.4079 0.47729 0.14264 0.0
C305 C 0.44057 0.52796 0.20766 0.0
C306 C 0.38684 0.412 0.15754 0.0
C307 C 0.39184 0.40467 0.19686 0.0
loop_
_geom_bond_atom_site_label_1
_geom_bond_atom_site_label_2
_geom_bond_distance
_geom_bond_site_symmetry_2
_ccdc_geom_bond_type
C0 O16 1.251 . S
C0 O18 1.254 1_554 S
N1 C2 1.333 1_445 S
N1 C6 1.307 . S
N1 Zn7 2.020 . S
C2 N1 1.333 1_665 S
C2 C3 1.379 . S
C2 H20 0.952 . S
C3 C2 1.379 . S
C3 C4 1.390 1_665 S
C3 H30 0.949 . S
C4 C3 1.390 1_445 S
C4 C5 1.357 . S
C5 C4 1.357 . S
C5 C6 1.370 . S
C5 H31 0.950 . S
C6 N1 1.307 . S
C6 C5 1.370 . S
C6 H24 0.948 . S
Zn7 N1 2.020 . S
Zn7 O16 2.039 1_445 S
Zn7 O22 2.034 1_455 S
Zn7 O26 2.025 . S
Zn7 O28 2.024 1_545 S
C8 O27 1.246 1_554 S
C8 O28 1.249 . S
N9 C10 1.307 1_545 S
N9 C11 1.333 1_655 S
N9 Zn15 2.020 1_655 S
C10 N9 1.307 1_565 S
C10 C14 1.370 . S
C10 H21 0.948 . S
C11 N9 1.333 1_455 S
C11 C12 1.379 . S
C11 H19 0.952 . S
C12 C11 1.379 . S
C12 C13 1.390 1_455 S
C12 H32 0.949 . S
C13 C12 1.390 1_655 S
C13 C14 1.357 1_545 S
C14 C10 1.370 . S
C14 C13 1.357 1_565 S
C14 H33 0.950 . S
Zn15 N9 2.020 1_455 S
Zn15 O18 2.025 1_445 S
Zn15 O23 2.024 1_455 S
Zn15 O25 2.039 . S
Zn15 O27 2.034 1_545 S
O16 C0 1.251 . S
O16 Zn7 2.039 1_665 S
C17 O22 1.254 . S
C17 O23 1.240 1_554 S
O18 C0 1.254 1_556 S
O18 Zn15 2.025 1_665 S
H19 C11 0.952 . S
H20 C2 0.952 . S
H21 C10 0.948 . S
O22 Zn7 2.034 1_655 S
O22 C17 1.254 . S
O23 Zn15 2.024 1_655 S
O23 C17 1.240 1_556 S
H24 C6 0.948 . S
O25 Zn15 2.039 . S
O25 C29 1.251 1_556 S
O26 Zn7 2.025 . S
O26 C29 1.254 . S
O27 C8 1.246 1_556 S
O27 Zn15 2.034 1_565 S
O28 Zn7 2.024 1_565 S
O28 C8 1.249 . S
C29 O25 1.251 1_554 S
C29 O26 1.254 . S
H30 C3 0.949 . S
H31 C5 0.950 . S
H32 C12 0.949 . S
H33 C14 0.950 . S
C34 O50 1.251 . S
C34 O52 1.254 . S
N35 C36 1.333 . S
N35 C40 1.307 . S
N35 Zn41 2.020 . S
C36 N35 1.333 . S
C36 C37 1.379 . S
C36 H54 0.952 . S
C37 C36 1.379 . S
C37 C38 1.390 . S
C37 H64 0.949 . S
C38 C37 1.390 . S
C38 C39 1.357 . S
C39 C38 1.357 . S
C39 C40 1.370 . S
C39 H65 0.950 . S
C40 N35 1.307 . S
C40 C39 1.370 . S
C40 H58 0.948 . S
Zn41 N35 2.020 . S
Zn41 O50 2.039 . S
Zn41 O56 2.034 . S
Zn41 O60 2.025 . S
Zn41 O62 2.024 . S
C42 O61 1.246 . S
C42 O62 1.249 . S
N43 C44 1.307 . S
N43 C45 1.333 . S
N43 Zn49 2.020 . S
C44 N43 1.307 . S
C44 C48 1.370 . S
C44 H55 0.948 . S
C45 N43 1.333 . S
C45 C46 1.379 . S
C45 H53 0.952 . S
C46 C45 1.379 . S
C46 C47 1.390 . S
C46 H66 0.949 . S
C47 C46 1.390 . S
C47 C48 1.357 . S
C48 C44 1.370 . S
C48 C47 1.357 . S
C48 H67 0.950 . S
Zn49 N43 2.020 . S
Zn49 O52 2.025 . S
Zn49 O57 2.024 . S
Zn49 O59 2.039 . S
Zn49 O61 2.034 . S
O50 C34 1.251 . S
O50 Zn41 2.039 . S
C51 O56 1.246 . S
C51 O57 1.249 . S
O52 C34 1.254 . S
O52 Zn49 2.025 . S
H53 C45 0.952 . S
H54 C36 0.952 . S
H55 C44 0.948 . S
O56 Zn41 2.034 . S
O56 C51 1.246 . S
O57 Zn49 2.024 . S
O57 C51 1.249 . S
H58 C40 0.948 . S
O59 Zn49 2.039 . S
O59 C63 1.251 . S
O60 Zn41 2.025 . S
O60 C63 1.254 . S
O61 C42 1.246 . S
O61 Zn49 2.034 . S
O62 Zn41 2.024 . S
O62 C42 1.249 . S
C63 O59 1.251 . S
C63 O60 1.254 . S
H64 C37 0.949 . S
H65 C39 0.950 . S
H66 C46 0.949 . S
H67 C48 0.950 . S
H68 C73 0.930 . S
H69 C76 0.930 1_655 S
H70 C78 0.930 . S
H71 C72 1.016 . S
C72 H71 1.016 . S
C72 N79 1.286 . S
C73 H68 0.930 . S
C73 C74 1.397 . S
C73 C75 1.361 1_565 S
C74 C73 1.397 . S
C74 C78 1.390 . S
C75 C73 1.361 1_545 S
C75 C76 1.393 . S
C75 N79 1.413 1_455 S
C76 H69 0.930 1_455 S
C76 C75 1.393 . S
C76 C77 1.399 . S
C77 C76 1.399 . S
C77 C78 1.381 1_545 S
C78 H70 0.930 . S
C78 C74 1.390 . S
C78 C77 1.381 1_565 S
N79 C72 1.286 . S
N79 C75 1.413 1_655 S
H80 C85 0.930 . S
H81 C88 0.930 . S
H82 C90 0.930 . S
H83 C84 1.016 . S
C84 H83 1.016 . S
C84 N91 1.286 . S
C85 H80 0.930 . S
C85 C86 1.397 . S
C85 C87 1.361 1_665 S
C86 C85 1.397 . S
C86 C90 1.390 . S
C87 C85 1.361 1_445 S
C87 C88 1.393 . S
C87 N91 1.413 . S
C88 H81 0.930 . S
C88 C87 1.393 . S
C88 C89 1.399 1_455 S
C89 C88 1.399 1_655 S
C89 C90 1.381 1_545 S
C90 H82 0.930 . S
C90 C86 1.390 . S
C90 C89 1.381 1_565 S
N91 C84 1.286 . S
N91 C87 1.413 . S
H92 C97 0.930 1_554 S
H93 C100 0.930 . S
H94 C102 0.930 . S
H95 C96 1.016 . S
C96 H95 1.016 . S
C96 N103 1.286 . S
C97 H92 0.930 1_556 S
C97 C98 1.397 . S
C97 C99 1.361 . S
C98 C97 1.397 . S
C98 C102 1.390 . S
C99 C97 1.361 . S
C99 C100 1.393 . S
C99 N103 1.413 . S
C100 H93 0.930 . S
C100 C99 1.393 . S
C100 C101 1.399 . S
C101 C100 1.399 . S
C101 C102 1.381 . S
C102 H94 0.930 . S
C102 C98 1.390 . S
C102 C101 1.381 . S
N103 C96 1.286 . S
N103 C99 1.413 . S
H104 C109 0.930 1_556 S
H105 C112 0.930 . S
H106 C114 0.930 . S
H107 C108 1.016 . S
C108 H107 1.016 . S
C108 N115 1.286 . S
C109 H104 0.930 1_554 S
C109 C110 1.397 . S
C109 C111 1.361 . S
C110 C109 1.397 . S
C110 C114 1.390 . S
C111 C109 1.361 . S
C111 C112 1.393 . S
C111 N115 1.413 . S
C112 H105 0.930 . S
C112 C111 1.393 . S
C112 C113 1.399 . S
C113 C112 1.399 . S
C113 C114 1.381 . S
C114 H106 0.930 . S
C114 C110 1.390 . S
C114 C113 1.381 . S
N115 C108 1.286 . S
N115 C111 1.413 . S
H116 C122 0.930 . S
H117 C125 0.930 . S
H118 C126 0.930 . S
H119 C127 0.930 . S
H120 C130 0.930 . S
H121 C131 0.930 . S
C122 H116 0.930 . S
C122 C123 1.355 1_556 S
C122 C124 1.414 1_556 S
C123 C122 1.355 1_554 S
C123 C125 1.419 . S
C124 C122 1.414 1_554 S
C124 C129 1.437 . S
C124 C131 1.399 1_554 S
C125 H117 0.930 . S
C125 C123 1.419 . S
C125 C126 1.362 . S
C126 H118 0.930 . S
C126 C125 1.362 . S
C126 C129 1.409 . S
C127 H119 0.930 . S
C127 C128 1.355 . S
C127 C129 1.415 . S
C128 C127 1.355 . S
C128 C130 1.419 1_554 S
C129 C124 1.437 . S
C129 C126 1.409 . S
C129 C127 1.415 . S
C130 H120 0.930 . S
C130 C128 1.419 1_556 S
C130 C131 1.362 . S
C131 H121 0.930 . S
C131 C124 1.399 1_556 S
C131 C130 1.362 . S
H132 C138 0.930 . S
H133 C141 0.930 . S
H134 C142 0.930 . S
H135 C143 0.930 . S
H136 C146 0.930 . S
H137 C147 0.930 . S
C138 H132 0.930 . S
C138 C139 1.355 . S
C138 C140 1.415 . S
C139 C138 1.355 . S
C139 C141 1.419 1_554 S
C140 C138 1.415 . S
C140 C145 1.425 1_554 S
C140 C147 1.409 . S
C141 H133 0.930 . S
C141 C139 1.419 1_556 S
C141 C142 1.362 . S
C142 H134 0.930 . S
C142 C141 1.362 . S
C142 C145 1.409 . S
C143 H135 0.930 . S
C143 C144 1.355 1_556 S
C143 C145 1.415 . S
C144 C143 1.355 1_554 S
C144 C146 1.419 . S
C145 C140 1.425 1_556 S
C145 C142 1.409 . S
C145 C143 1.415 . S
C146 H136 0.930 . S
C146 C144 1.419 . S
C146 C147 1.362 . S
C147 H137 0.930 . S
C147 C140 1.409 . S
C147 C146 1.362 . S
H148 C154 0.930 . S
H149 C157 0.930 . S
H150 C158 0.930 . S
H151 C159 0.930 . S
H152 C162 0.930 . S
H153 C163 0.930 . S
C154 H148 0.930 . S
C154 C155 1.355 1_554 S
C154 C156 1.415 . S
C155 C154 1.355 1_556 S
C155 C157 1.419 . S
C156 C154 1.415 . S
C156 C161 1.425 1_554 S
C156 C163 1.409 . S
C157 H149 0.930 . S
C157 C155 1.419 . S
C157 C158 1.362 . S
C158 H150 0.930 . S
C158 C157 1.362 . S
C158 C161 1.409 . S
C159 H151 0.930 . S
C159 C160 1.355 1_556 S
C159 C161 1.415 . S
C160 C159 1.355 1_554 S
C160 C162 1.419 . S
C161 C156 1.425 1_556 S
C161 C158 1.409 . S
C161 C159 1.415 . S
C162 H152 0.930 . S
C162 C160 1.419 . S
C162 C163 1.362 . S
C163 H153 0.930 . S
C163 C156 1.409 . S
C163 C162 1.362 . S
H164 C170 0.930 . S
H165 C173 0.930 . S
H166 C174 0.930 . S
H167 C175 0.930 1_554 S
H168 C178 0.930 . S
H169 C179 0.930 . S
C170 H164 0.930 . S
C170 C171 1.355 . S
C170 C172 1.415 . S
C171 C170 1.355 . S
C171 C173 1.419 1_556 S
C172 C170 1.415 . S
C172 C177 1.425 . S
C172 C179 1.409 . S
C173 H165 0.930 . S
C173 C171 1.419 1_554 S
C173 C174 1.362 . S
C174 H166 0.930 . S
C174 C173 1.362 . S
C174 C177 1.409 1_554 S
C175 H167 0.930 1_556 S
C175 C176 1.355 . S
C175 C177 1.415 . S
C176 C175 1.355 . S
C176 C178 1.419 . S
C177 C172 1.425 . S
C177 C174 1.409 1_556 S
C177 C175 1.415 . S
C178 H168 0.930 . S
C178 C176 1.419 . S
C178 C179 1.362 . S
C179 H169 0.930 . S
C179 C172 1.409 . S
C179 C178 1.362 . S
H180 C186 0.930 . S
H181 C189 0.930 . S
H182 C190 0.930 . S
H183 C191 0.930 . S
H184 C194 0.930 . S
H185 C195 0.930 . S
C186 H180 0.930 . S
C186 C187 1.355 . S
C186 C188 1.415 . S
C187 C186 1.355 . S
C187 C189 1.419 . S
C188 C186 1.415 . S
C188 C193 1.425 . S
C188 C195 1.409 . S
C189 H181 0.930 . S
C189 C187 1.419 . S
C189 C190 1.362 . S
C190 H182 0.930 . S
C190 C189 1.362 . S
C190 C193 1.409 . S
C191 H183 0.930 . S
C191 C192 1.355 . S
C191 C193 1.415 . S
C192 C191 1.355 . S
C192 C194 1.419 . S
C193 C188 1.425 . S
C193 C190 1.409 . S
C193 C191 1.415 . S
C194 H184 0.930 . S
C194 C192 1.419 . S
C194 C195 1.362 . S
C195 H185 0.930 . S
C195 C188 1.409 . S
C195 C194 1.362 . S
H196 C202 0.930 . S
H197 C205 0.930 . S
H198 C206 0.930 . S
H199 C207 0.930 . S
H200 C210 0.930 . S
H201 C211 0.930 . S
C202 H196 0.930 . S
C202 C203 1.355 . S
C202 C204 1.415 . S
C203 C202 1.355 . S
C203 C205 1.419 . S
C204 C202 1.415 . S
C204 C209 1.425 . S
C204 C211 1.409 . S
C205 H197 0.930 . S
C205 C203 1.419 . S
C205 C206 1.362 . S
C206 H198 0.930 . S
C206 C205 1.362 . S
C206 C209 1.409 . S
C207 H199 0.930 . S
C207 C208 1.355 . S
C207 C209 1.415 . S
C208 C207 1.355 . S
C208 C210 1.419 . S
C209 C204 1.425 . S
C209 C206 1.409 . S
C209 C207 1.415 . S
C210 H200 0.930 . S
C210 C208 1.419 . S
C210 C211 1.362 . S
C211 H201 0.930 . S
C211 C204 1.409 . S
C211 C210 1.362 . S
H212 C218 0.930 . S
H213 C221 0.930 . S
H214 C222 0.930 . S
H215 C223 0.930 . S
H216 C226 0.930 . S
H217 C227 0.930 . S
C218 H212 0.930 . S
C218 C219 1.355 . S
C218 C220 1.415 . S
C219 C218 1.355 . S
C219 C221 1.419 . S
C220 C218 1.415 . S
C220 C225 1.425 . S
C220 C227 1.409 . S
C221 H213 0.930 . S
C221 C219 1.419 . S
C221 C222 1.362 . S
C222 H214 0.930 . S
C222 C221 1.362 . S
C222 C225 1.409 . S
C223 H215 0.930 . S
C223 C224 1.355 . S
C223 C225 1.415 . S
C224 C223 1.355 . S
C224 C226 1.419 . S
C225 C220 1.425 . S
C225 C222 1.409 . S
C225 C223 1.415 . S
C226 H216 0.930 . S
C226 C224 1.419 . S
C226 C227 1.362 . S
C227 H217 0.930 . S
C227 C220 1.409 . S
C227 C226 1.362 . S
H228 C234 0.930 . S
H229 C237 0.930 . S
H230 C238 0.930 . S
H231 C239 0.930 . S
H232 C242 0.930 . S
H233 C243 0.930 . S
C234 H228 0.930 . S
C234 C235 1.355 . S
C234 C236 1.415 . S
C235 C234 1.355 . S
C235 C237 1.419 . S
C236 C234 1.415 . S
C236 C241 1.425 . S
C236 C243 1.409 . S
C237 H229 0.930 . S
C237 C235 1.419 . S
C237 C238 1.362 . S
C238 H230 0.930 . S
C238 C237 1.362 . S
C238 C241 1.409 . S
C239 H231 0.930 . S
C239 C240 1.355 . S
C239 C241 1.415 . S
C240 C239 1.355 . S
C240 C242 1.419 . S
C241 C236 1.425 . S
C241 C238 1.409 . S
C241 C239 1.415 . S
C242 H232 0.930 . S
C242 C240 1.419 . S
C242 C243 1.362 . S
C243 H233 0.930 . S
C243 C236 1.409 . S
C243 C242 1.362 . S
H244 C250 0.930 1_655 S
H245 C253 0.930 . S
H246 C254 0.930 . S
H247 C255 0.930 . S
H248 C258 0.930 . S
H249 C259 0.930 . S
C250 H244 0.930 1_455 S
C250 C251 1.355 . S
C250 C252 1.415 . S
C251 C250 1.355 . S
C251 C253 1.419 1_545 S
C252 C250 1.415 . S
C252 C257 1.425 1_545 S
C252 C259 1.409 1_455 S
C253 H245 0.930 . S
C253 C251 1.419 1_565 S
C253 C254 1.362 . S
C254 H246 0.930 . S
C254 C253 1.362 . S
C254 C257 1.409 . S
C255 H247 0.930 . S
C255 C256 1.355 1_565 S
C255 C257 1.415 . S
C256 C255 1.355 1_545 S
C256 C258 1.419 1_455 S
C257 C252 1.425 1_565 S
C257 C254 1.409 . S
C257 C255 1.415 . S
C258 H248 0.930 . S
C258 C256 1.419 1_655 S
C258 C259 1.362 . S
C259 H249 0.930 . S
C259 C252 1.409 1_655 S
C259 C258 1.362 . S
H260 C266 0.930 1_455 S
H261 C269 0.930 . S
H262 C270 0.930 . S
H263 C271 0.930 . S
H264 C274 0.930 . S
H265 C275 0.930 . S
C266 H260 0.930 1_655 S
C266 C267 1.355 . S
C266 C268 1.415 . S
C267 C266 1.355 . S
C267 C269 1.419 1_545 S
C268 C266 1.415 . S
C268 C273 1.425 1_545 S
C268 C275 1.409 1_655 S
C269 H261 0.930 . S
C269 C267 1.419 1_565 S
C269 C270 1.362 . S
C270 H262 0.930 . S
C270 C269 1.362 . S
C270 C273 1.409 . S
C271 H263 0.930 . S
C271 C272 1.355 1_565 S
C271 C273 1.415 . S
C272 C271 1.355 1_545 S
C272 C274 1.419 1_655 S
C273 C268 1.425 1_565 S
C273 C270 1.409 . S
C273 C271 1.415 . S
C274 H264 0.930 . S
C274 C272 1.419 1_455 S
C274 C275 1.362 . S
C275 H265 0.930 . S
C275 C268 1.409 1_455 S
C275 C274 1.362 . S
H276 C282 0.930 . S
H277 C285 0.930 . S
H278 C286 0.930 . S
H279 C287 0.930 . S
H280 C290 0.930 . S
H281 C291 0.930 . S
C282 H276 0.930 . S
C282 C283 1.355 . S
C282 C284 1.415 . S
C283 C282 1.355 . S
C283 C285 1.419 . S
C284 C282 1.415 . S
C284 C289 1.425 . S
C284 C291 1.409 . S
C285 H277 0.930 . S
C285 C283 1.419 . S
C285 C286 1.362 . S
C286 H278 0.930 . S
C286 C285 1.362 . S
C286 C289 1.409 . S
C287 H279 0.930 . S
C287 C288 1.355 . S
C287 C289 1.415 . S
C288 C287 1.355 . S
C288 C290 1.419 . S
C289 C284 1.425 . S
C289 C286 1.409 . S
C289 C287 1.415 . S
C290 H280 0.930 . S
C290 C288 1.419 . S
C290 C291 1.362 . S
C291 H281 0.930 . S
C291 C284 1.409 . S
C291 C290 1.362 . S
H292 C298 0.930 . S
H293 C301 0.930 . S
H294 C302 0.930 . S
H295 C303 0.930 . S
H296 C306 0.930 . S
H297 C307 0.930 . S
C298 H292 0.930 . S
C298 C299 1.355 . S
C298 C300 1.415 . S
C299 C298 1.355 . S
C299 C301 1.419 . S
C300 C298 1.415 . S
C300 C305 1.425 . S
C300 C307 1.409 . S
C301 H293 0.930 . S
C301 C299 1.419 . S
C301 C302 1.362 . S
C302 H294 0.930 . S
C302 C301 1.362 . S
C302 C305 1.409 . S
C303 H295 0.930 . S
C303 C304 1.355 . S
C303 C305 1.415 . S
C304 C303 1.355 . S
C304 C306 1.419 . S
C305 C300 1.425 . S
C305 C302 1.409 . S
C305 C303 1.415 . S
C306 H296 0.930 . S
C306 C304 1.419 . S
C306 C307 1.362 . S
C307 H297 0.930 . S
C307 C300 1.409 . S
C307 C306 1.362 . S
C128 C110 1.481 . S
C123 C29 1.497 . S
C139 C8 1.429 . S
C144 C96 1.394 1_554 S
C155 C0 1.431 1_556 S
C160 C108 1.341 . S
C171 C17 1.499 1_556 S
C176 C98 1.460 . S
C187 C63 1.491 . S
C192 C86 1.482 . S
C203 C42 1.412 . S
C208 C72 1.379 . S
C224 C84 1.362 . S
C219 C34 1.436 . S
C240 C74 1.477 . S
C235 C51 1.495 . S
C251 C4 1.518 . S
C256 C77 1.518 . S
C267 C13 1.504 . S
C272 C89 1.516 . S
C288 C101 1.502 . S
C283 C38 1.511 . S
C299 C47 1.510 . S
C304 C113 1.496 . S
