# Generated by pormake.
# Topology ctn, (3,4)-cn, num edge types: 1
# Building blocks:
#     Node 0, Type 0, BuildingBlock: KAKCAD_clean_linker_0, # of connection points: 3
#     Node 1, Type 0, BuildingBlock: KAKCAD_clean_linker_0, # of connection points: 3
#     Node 2, Type 0, BuildingBlock: KAKCAD_clean_linker_0, # of connection points: 3
#     Node 3, Type 0, BuildingBlock: KAKCAD_clean_linker_0, # of connection points: 3
#     Node 4, Type 0, BuildingBlock: KAKCAD_clean_linker_0, # of connection points: 3
#     Node 5, Type 0, BuildingBlock: KAKCAD_clean_linker_0, # of connection points: 3
#     Node 6, Type 0, BuildingBlock: KAKCAD_clean_linker_0, # of connection points: 3
#     Node 7, Type 0, BuildingBlock: KAKCAD_clean_linker_0, # of connection points: 3
#     Node 8, Type 0, BuildingBlock: KAKCAD_clean_linker_0, # of connection points: 3
#     Node 9, Type 0, BuildingBlock: KAKCAD_clean_linker_0, # of connection points: 3
#     Node 10, Type 0, BuildingBlock: KAKCAD_clean_linker_0, # of connection points: 3
#     Node 11, Type 0, BuildingBlock: KAKCAD_clean_linker_0, # of connection points: 3
#     Node 12, Type 0, BuildingBlock: KAKCAD_clean_linker_0, # of connection points: 3
#     Node 13, Type 0, BuildingBlock: KAKCAD_clean_linker_0, # of connection points: 3
#     Node 14, Type 0, BuildingBlock: KAKCAD_clean_linker_0, # of connection points: 3
#     Node 15, Type 0, BuildingBlock: KAKCAD_clean_linker_0, # of connection points: 3
#     Node 16, Type 1, BuildingBlock: TATPOV_clean_sbu_0, # of connection points: 4
#     Node 17, Type 1, BuildingBlock: TATPOV_clean_sbu_0, # of connection points: 4
#     Node 18, Type 1, BuildingBlock: TATPOV_clean_sbu_0, # of connection points: 4
#     Node 19, Type 1, BuildingBlock: TATPOV_clean_sbu_0, # of connection points: 4
#     Node 20, Type 1, BuildingBlock: TATPOV_clean_sbu_0, # of connection points: 4
#     Node 21, Type 1, BuildingBlock: TATPOV_clean_sbu_0, # of connection points: 4
#     Node 22, Type 1, BuildingBlock: TATPOV_clean_sbu_0, # of connection points: 4
#     Node 23, Type 1, BuildingBlock: TATPOV_clean_sbu_0, # of connection points: 4
#     Node 24, Type 1, BuildingBlock: TATPOV_clean_sbu_0, # of connection points: 4
#     Node 25, Type 1, BuildingBlock: TATPOV_clean_sbu_0, # of connection points: 4
#     Node 26, Type 1, BuildingBlock: TATPOV_clean_sbu_0, # of connection points: 4
#     Node 27, Type 1, BuildingBlock: TATPOV_clean_sbu_0, # of connection points: 4
#     Edge 28, Type (0, 1), BuildingBlock: OJICUG_clean_linker_0, # of connection points: 2
#     Edge 29, Type (0, 1), BuildingBlock: OJICUG_clean_linker_0, # of connection points: 2
#     Edge 30, Type (0, 1), BuildingBlock: OJICUG_clean_linker_0, # of connection points: 2
#     Edge 31, Type (0, 1), BuildingBlock: OJICUG_clean_linker_0, # of connection points: 2
#     Edge 32, Type (0, 1), BuildingBlock: OJICUG_clean_linker_0, # of connection points: 2
#     Edge 33, Type (0, 1), BuildingBlock: OJICUG_clean_linker_0, # of connection points: 2
#     Edge 34, Type (0, 1), BuildingBlock: OJICUG_clean_linker_0, # of connection points: 2
#     Edge 35, Type (0, 1), BuildingBlock: OJICUG_clean_linker_0, # of connection points: 2
#     Edge 36, Type (0, 1), BuildingBlock: OJICUG_clean_linker_0, # of connection points: 2
#     Edge 37, Type (0, 1), BuildingBlock: OJICUG_clean_linker_0, # of connection points: 2
#     Edge 38, Type (0, 1), BuildingBlock: OJICUG_clean_linker_0, # of connection points: 2
#     Edge 39, Type (0, 1), BuildingBlock: OJICUG_clean_linker_0, # of connection points: 2
#     Edge 40, Type (0, 1), BuildingBlock: OJICUG_clean_linker_0, # of connection points: 2
#     Edge 41, Type (0, 1), BuildingBlock: OJICUG_clean_linker_0, # of connection points: 2
#     Edge 42, Type (0, 1), BuildingBlock: OJICUG_clean_linker_0, # of connection points: 2
#     Edge 43, Type (0, 1), BuildingBlock: OJICUG_clean_linker_0, # of connection points: 2
#     Edge 44, Type (0, 1), BuildingBlock: OJICUG_clean_linker_0, # of connection points: 2
#     Edge 45, Type (0, 1), BuildingBlock: OJICUG_clean_linker_0, # of connection points: 2
#     Edge 46, Type (0, 1), BuildingBlock: OJICUG_clean_linker_0, # of connection points: 2
#     Edge 47, Type (0, 1), BuildingBlock: OJICUG_clean_linker_0, # of connection points: 2
#     Edge 48, Type (0, 1), BuildingBlock: OJICUG_clean_linker_0, # of connection points: 2
#     Edge 49, Type (0, 1), BuildingBlock: OJICUG_clean_linker_0, # of connection points: 2
#     Edge 50, Type (0, 1), BuildingBlock: OJICUG_clean_linker_0, # of connection points: 2
#     Edge 51, Type (0, 1), BuildingBlock: OJICUG_clean_linker_0, # of connection points: 2
#     Edge 52, Type (0, 1), BuildingBlock: OJICUG_clean_linker_0, # of connection points: 2
#     Edge 53, Type (0, 1), BuildingBlock: OJICUG_clean_linker_0, # of connection points: 2
#     Edge 54, Type (0, 1), BuildingBlock: OJICUG_clean_linker_0, # of connection points: 2
#     Edge 55, Type (0, 1), BuildingBlock: OJICUG_clean_linker_0, # of connection points: 2
#     Edge 56, Type (0, 1), BuildingBlock: OJICUG_clean_linker_0, # of connection points: 2
#     Edge 57, Type (0, 1), BuildingBlock: OJICUG_clean_linker_0, # of connection points: 2
#     Edge 58, Type (0, 1), BuildingBlock: OJICUG_clean_linker_0, # of connection points: 2
#     Edge 59, Type (0, 1), BuildingBlock: OJICUG_clean_linker_0, # of connection points: 2
#     Edge 60, Type (0, 1), BuildingBlock: OJICUG_clean_linker_0, # of connection points: 2
#     Edge 61, Type (0, 1), BuildingBlock: OJICUG_clean_linker_0, # of connection points: 2
#     Edge 62, Type (0, 1), BuildingBlock: OJICUG_clean_linker_0, # of connection points: 2
#     Edge 63, Type (0, 1), BuildingBlock: OJICUG_clean_linker_0, # of connection points: 2
#     Edge 64, Type (0, 1), BuildingBlock: OJICUG_clean_linker_0, # of connection points: 2
#     Edge 65, Type (0, 1), BuildingBlock: OJICUG_clean_linker_0, # of connection points: 2
#     Edge 66, Type (0, 1), BuildingBlock: OJICUG_clean_linker_0, # of connection points: 2
#     Edge 67, Type (0, 1), BuildingBlock: OJICUG_clean_linker_0, # of connection points: 2
#     Edge 68, Type (0, 1), BuildingBlock: OJICUG_clean_linker_0, # of connection points: 2
#     Edge 69, Type (0, 1), BuildingBlock: OJICUG_clean_linker_0, # of connection points: 2
#     Edge 70, Type (0, 1), BuildingBlock: OJICUG_clean_linker_0, # of connection points: 2
#     Edge 71, Type (0, 1), BuildingBlock: OJICUG_clean_linker_0, # of connection points: 2
#     Edge 72, Type (0, 1), BuildingBlock: OJICUG_clean_linker_0, # of connection points: 2
#     Edge 73, Type (0, 1), BuildingBlock: OJICUG_clean_linker_0, # of connection points: 2
#     Edge 74, Type (0, 1), BuildingBlock: OJICUG_clean_linker_0, # of connection points: 2
#     Edge 75, Type (0, 1), BuildingBlock: OJICUG_clean_linker_0, # of connection points: 2
# Relax obj value: 0.003
# Max RMSD: 0.046
# Mean RMSD: 0.020
data_MOF--net-ctn--node1-TATPOV_clean_sbu_0--node2-KAKCAD_clean_linker_0--edge1-OJICUG_clean_linker_0
_symmetry_space_group_name_H-M    P1
_symmetry_Int_Tables_number       1
_symmetry_cell_setting            triclinic
loop_
_symmetry_equiv_pos_as_xyz
'x, y, z'
_cell_length_a     52.390479
_cell_length_b     52.299542
_cell_length_c     52.319917
_cell_angle_alpha  91.158631
_cell_angle_beta   91.52257
_cell_angle_gamma 91.486984
loop_
_atom_site_label
_atom_site_type_symbol
_atom_site_fract_x
_atom_site_fract_y
_atom_site_fract_z
_atom_type_partial_charge
C0 C 0.02382 0.08786 0.94519 0.0
C1 C 0.01575 0.1123 0.95265 0.0
C2 C 0.02643 0.06852 0.96314 0.0
C3 C 0.02096 0.07309 0.989 0.0
C4 C 0.01284 0.09751 0.99642 0.0
C5 C 0.01027 0.11682 0.9785 0.0
C6 C 0.02373 0.05258 0.00823 0.0
C7 C 0.04467 0.03627 0.00779 0.0
C8 C 0.04775 0.01731 0.02627 0.0
C9 C 0.02945 0.01479 0.04535 0.0
C10 C 0.00834 0.03085 0.04616 0.0
C11 C 0.00563 0.04957 0.02741 0.0
C12 C 0.98928 0.02836 0.06675 0.0
C13 C 0.98126 0.00415 0.07522 0.0
C14 C 0.97904 0.05025 0.07821 0.0
C15 C 0.96123 0.04801 0.09755 0.0
C16 C 0.95325 0.02382 0.10604 0.0
C17 C 0.07035 0.00051 0.02598 0.0
C18 C 0.07924 0.99045 0.00282 0.0
C19 C 0.08331 0.99452 0.04889 0.0
C20 C 0.10463 0.97897 0.04864 0.0
C21 C 0.11362 0.96899 0.02548 0.0
C22 C 0.10058 0.97487 0.00257 0.0
C23 C 0.96352 0.00191 0.09465 0.0
H24 H 0.02846 0.08374 0.92551 0.0
H25 H 0.0325 0.04988 0.9567 0.0
H26 H 0.00874 0.10183 0.01619 0.0
H27 H 0.00372 0.13529 0.98491 0.0
H28 H 0.05908 0.03889 0.99353 0.0
H29 H 0.98909 0.06158 0.02745 0.0
H30 H 0.03175 0.00036 0.05973 0.0
H31 H 0.98843 0.98686 0.06659 0.0
H32 H 0.98509 0.06921 0.07254 0.0
H33 H 0.95404 0.0653 0.10618 0.0
H34 H 0.06959 0.99447 0.98483 0.0
H35 H 0.0772 0.00215 0.06706 0.0
H36 H 0.95754 0.98299 0.1005 0.0
H37 H 0.10709 0.96775 0.98436 0.0
H38 H 0.114 0.97463 0.06668 0.0
C39 C 0.34743 0.74453 0.27694 0.0
C40 C 0.36323 0.72356 0.28089 0.0
C41 C 0.32347 0.7412 0.26487 0.0
C42 C 0.3146 0.71681 0.25646 0.0
C43 C 0.32995 0.69564 0.26121 0.0
C44 C 0.35404 0.69898 0.27331 0.0
C45 C 0.28976 0.7138 0.24209 0.0
C46 C 0.2833 0.73125 0.22306 0.0
C47 C 0.25983 0.7291 0.20938 0.0
C48 C 0.24276 0.70886 0.2149 0.0
C49 C 0.24904 0.69092 0.23362 0.0
C50 C 0.27258 0.69362 0.24714 0.0
C51 C 0.2312 0.6692 0.23894 0.0
C52 C 0.2048 0.67289 0.2406 0.0
C53 C 0.24054 0.64453 0.24249 0.0
C54 C 0.22393 0.62409 0.24775 0.0
C55 C 0.19755 0.62778 0.24964 0.0
C56 C 0.25389 0.74749 0.18872 0.0
C57 C 0.2618 0.77337 0.19135 0.0
C58 C 0.24179 0.7391 0.16558 0.0
C59 C 0.23887 0.75584 0.14521 0.0
C60 C 0.24822 0.78122 0.14745 0.0
C61 C 0.2592 0.78996 0.1709 0.0
C62 C 0.18816 0.65242 0.24589 0.0
H63 H 0.35365 0.76364 0.28309 0.0
H64 H 0.31189 0.75782 0.26202 0.0
H65 H 0.32371 0.67661 0.25484 0.0
H66 H 0.3658 0.68246 0.27596 0.0
H67 H 0.29703 0.74616 0.21837 0.0
H68 H 0.27729 0.6803 0.26204 0.0
H69 H 0.22467 0.70688 0.20445 0.0
H70 H 0.19703 0.69172 0.23826 0.0
H71 H 0.26071 0.64093 0.2409 0.0
H72 H 0.23177 0.60528 0.25003 0.0
H73 H 0.27058 0.78073 0.20907 0.0
H74 H 0.23566 0.7193 0.1627 0.0
H75 H 0.168 0.65601 0.24752 0.0
H76 H 0.26634 0.80952 0.1732 0.0
H77 H 0.23057 0.74855 0.12724 0.0
C78 C 0.00863 0.4559 0.15151 0.0
C79 C 0.03536 0.45524 0.15412 0.0
C80 C 0.9966 0.45303 0.12746 0.0
C81 C 0.01104 0.44915 0.10554 0.0
C82 C 0.03779 0.44854 0.1081 0.0
C83 C 0.04986 0.45175 0.13217 0.0
C84 C 0.99808 0.44572 0.08014 0.0
C85 C 0.97888 0.46252 0.07257 0.0
C86 C 0.96625 0.45932 0.04869 0.0
C87 C 0.97237 0.43863 0.03272 0.0
C88 C 0.99139 0.42166 0.04001 0.0
C89 C 0.00452 0.42551 0.06356 0.0
C90 C 0.99737 0.40014 0.02261 0.0
C91 C 0.97776 0.3833 0.01344 0.0
C92 C 0.02211 0.39762 0.01337 0.0
C93 C 0.02682 0.3794 0.99423 0.0
C94 C 0.00697 0.36312 0.98442 0.0
C95 C 0.94705 0.4778 0.03997 0.0
C96 C 0.92764 0.48578 0.05611 0.0
C97 C 0.94786 0.48722 0.01507 0.0
C98 C 0.92933 0.50379 0.00622 0.0
C99 C 0.90939 0.5112 0.022 0.0
C100 C 0.90892 0.50228 0.04718 0.0
C101 C 0.98256 0.36481 0.99467 0.0
H102 H 0.99701 0.45872 0.16811 0.0
H103 H 0.97595 0.45344 0.12604 0.0
H104 H 0.04936 0.44575 0.09146 0.0
H105 H 0.07049 0.45101 0.13369 0.0
H106 H 0.97431 0.47852 0.08496 0.0
H107 H 0.01913 0.41232 0.06929 0.0
H108 H 0.96242 0.43579 0.0144 0.0
H109 H 0.95854 0.3849 0.02035 0.0
H110 H 0.03747 0.4105 0.02011 0.0
H111 H 0.04582 0.37841 0.98665 0.0
H112 H 0.92652 0.47871 0.07537 0.0
H113 H 0.96291 0.48181 0.00239 0.0
H114 H 0.96687 0.35267 0.98729 0.0
H115 H 0.89372 0.50747 0.05976 0.0
H116 H 0.93065 0.51079 0.98695 0.0
C117 C 0.72563 0.6928 0.1332 0.0
C118 C 0.75092 0.68988 0.12555 0.0
C119 C 0.72013 0.70936 0.15351 0.0
C120 C 0.7398 0.72339 0.16668 0.0
C121 C 0.76514 0.72018 0.15928 0.0
C122 C 0.77064 0.70362 0.13896 0.0
C123 C 0.73379 0.74176 0.18762 0.0
C124 C 0.71511 0.73545 0.20546 0.0
C125 C 0.70851 0.75307 0.22466 0.0
C126 C 0.72097 0.77723 0.22586 0.0
C127 C 0.73977 0.7839 0.20834 0.0
C128 C 0.74616 0.76599 0.18936 0.0
C129 C 0.75235 0.80977 0.20987 0.0
C130 C 0.73785 0.8315 0.2147 0.0
C131 C 0.77894 0.81289 0.20756 0.0
C132 C 0.79085 0.83706 0.21116 0.0
C133 C 0.7764 0.85856 0.21715 0.0
C134 C 0.68792 0.7469 0.24287 0.0
C135 C 0.6653 0.73384 0.23442 0.0
C136 C 0.68997 0.75562 0.26848 0.0
C137 C 0.66935 0.75296 0.28468 0.0
C138 C 0.64631 0.7412 0.27579 0.0
C139 C 0.64473 0.73093 0.25078 0.0
C140 C 0.74971 0.85556 0.2183 0.0
H141 H 0.70995 0.68281 0.12305 0.0
H142 H 0.70037 0.71167 0.15846 0.0
H143 H 0.78077 0.73041 0.16928 0.0
H144 H 0.79037 0.70152 0.13381 0.0
H145 H 0.70591 0.71664 0.20457 0.0
H146 H 0.76011 0.77128 0.17535 0.0
H147 H 0.71583 0.79109 0.24038 0.0
H148 H 0.71727 0.82987 0.21598 0.0
H149 H 0.79066 0.79652 0.20394 0.0
H150 H 0.81146 0.83871 0.2103 0.0
H151 H 0.66294 0.72703 0.2148 0.0
H152 H 0.7073 0.76516 0.27585 0.0
H153 H 0.73797 0.87182 0.22235 0.0
H154 H 0.62709 0.722 0.24338 0.0
H155 H 0.67113 0.76082 0.30398 0.0
C156 C 0.9709 0.9877 0.38782 0.0
C157 C 0.97734 0.99243 0.3624 0.0
C158 C 0.98975 0.98389 0.4065 0.0
C159 C 0.01569 0.98416 0.40033 0.0
C160 C 0.0223 0.98882 0.3749 0.0
C161 C 0.0033 0.9929 0.35611 0.0
C162 C 0.03541 0.97943 0.42061 0.0
C163 C 0.03033 0.96145 0.43955 0.0
C164 C 0.04739 0.95825 0.46028 0.0
C165 C 0.07027 0.97275 0.46172 0.0
C166 C 0.076 0.99042 0.44269 0.0
C167 C 0.05861 0.99359 0.42211 0.0
C168 C 0.09987 0.00609 0.44474 0.0
C169 C 0.10568 0.02095 0.46687 0.0
C170 C 0.11712 0.00601 0.42473 0.0
C171 C 0.14009 0.02016 0.427 0.0
C172 C 0.14608 0.03518 0.44914 0.0
C173 C 0.04055 0.94023 0.48066 0.0
C174 C 0.01599 0.94056 0.49071 0.0
C175 C 0.05778 0.92194 0.48931 0.0
C176 C 0.05006 0.90348 0.50677 0.0
C177 C 0.02504 0.90314 0.5159 0.0
C178 C 0.00836 0.92232 0.50817 0.0
C179 C 0.1284 0.03554 0.46895 0.0
H180 H 0.95114 0.98665 0.39339 0.0
H181 H 0.98388 0.98086 0.42592 0.0
H182 H 0.0421 0.98901 0.36945 0.0
H183 H 0.00897 0.99663 0.33676 0.0
H184 H 0.01291 0.9498 0.43821 0.0
H185 H 0.06273 0.00782 0.40792 0.0
H186 H 0.08349 0.97052 0.47777 0.0
H187 H 0.09247 0.02147 0.48245 0.0
H188 H 0.11309 0.9945 0.40758 0.0
H189 H 0.15334 0.01881 0.41154 0.0
H190 H 0.00251 0.9548 0.48478 0.0
H191 H 0.07683 0.92129 0.48181 0.0
H192 H 0.13198 0.04719 0.48607 0.0
H193 H 0.98919 0.92303 0.51537 0.0
H194 H 0.06333 0.88893 0.51233 0.0
C195 C 0.1378 0.73291 0.70227 0.0
C196 C 0.13155 0.75884 0.70067 0.0
C197 C 0.15786 0.72538 0.71836 0.0
C198 C 0.17216 0.7436 0.73323 0.0
C199 C 0.16638 0.76959 0.73107 0.0
C200 C 0.14631 0.77711 0.71502 0.0
C201 C 0.1922 0.73546 0.75181 0.0
C202 C 0.20893 0.71581 0.74547 0.0
C203 C 0.22727 0.7075 0.76338 0.0
C204 C 0.2287 0.71924 0.78786 0.0
C205 C 0.2123 0.73902 0.7945 0.0
C206 C 0.19412 0.74694 0.77635 0.0
C207 C 0.21409 0.75129 0.82044 0.0
C208 C 0.21781 0.73646 0.84227 0.0
C209 C 0.21257 0.77799 0.82354 0.0
C210 C 0.2154 0.78962 0.84781 0.0
C211 C 0.21985 0.77482 0.86955 0.0
C212 C 0.24447 0.68609 0.75704 0.0
C213 C 0.23531 0.6645 0.74272 0.0
C214 C 0.26985 0.68638 0.76659 0.0
C215 C 0.28506 0.66507 0.76338 0.0
C216 C 0.27545 0.64308 0.7502 0.0
C217 C 0.2507 0.64325 0.73924 0.0
C218 C 0.22065 0.74807 0.86651 0.0
H219 H 0.12705 0.71836 0.69122 0.0
H220 H 0.16167 0.70519 0.71969 0.0
H221 H 0.17723 0.78415 0.742 0.0
H222 H 0.14193 0.79722 0.71444 0.0
H223 H 0.20789 0.70726 0.72643 0.0
H224 H 0.18085 0.76156 0.78166 0.0
H225 H 0.24255 0.71289 0.80193 0.0
H226 H 0.21854 0.71581 0.84064 0.0
H227 H 0.20995 0.79 0.8071 0.0
H228 H 0.215 0.81028 0.84943 0.0
H229 H 0.21583 0.66346 0.73523 0.0
H230 H 0.27784 0.7029 0.77709 0.0
H231 H 0.22362 0.73608 0.8829 0.0
H232 H 0.24275 0.62643 0.72921 0.0
H233 H 0.30419 0.66551 0.77182 0.0
C234 C 0.95841 0.64375 0.52356 0.0
C235 C 0.94745 0.64503 0.54768 0.0
C236 C 0.95544 0.62166 0.50828 0.0
C237 C 0.94189 0.60007 0.517 0.0
C238 C 0.93102 0.6014 0.54132 0.0
C239 C 0.93357 0.62378 0.5564 0.0
C240 C 0.93932 0.57637 0.50071 0.0
C241 C 0.95946 0.56922 0.48501 0.0
C242 C 0.95716 0.54758 0.46876 0.0
C243 C 0.93458 0.53253 0.46887 0.0
C244 C 0.91444 0.53881 0.48486 0.0
C245 C 0.91686 0.56093 0.50055 0.0
C246 C 0.8915 0.52145 0.48569 0.0
C247 C 0.88167 0.50928 0.46317 0.0
C248 C 0.88078 0.515 0.50918 0.0
C249 C 0.86189 0.49563 0.51024 0.0
C250 C 0.85358 0.48227 0.48788 0.0
C251 C 0.97831 0.54058 0.45168 0.0
C252 C 0.99265 0.55953 0.43926 0.0
C253 C 0.98389 0.51478 0.44717 0.0
C254 C 0.00274 0.50804 0.43016 0.0
C255 C 0.017 0.52691 0.41753 0.0
C256 C 0.01185 0.55277 0.42249 0.0
C257 C 0.86309 0.48976 0.46428 0.0
H258 H 0.96882 0.6601 0.51626 0.0
H259 H 0.96352 0.62172 0.48945 0.0
H260 H 0.9208 0.5851 0.54889 0.0
H261 H 0.92497 0.6244 0.575 0.0
H262 H 0.97726 0.58023 0.4858 0.0
H263 H 0.90103 0.56632 0.51223 0.0
H264 H 0.93276 0.51564 0.45658 0.0
H265 H 0.88898 0.51422 0.44469 0.0
H266 H 0.88799 0.52388 0.5269 0.0
H267 H 0.8549 0.49008 0.52868 0.0
H268 H 0.98874 0.5796 0.44209 0.0
H269 H 0.97362 0.49965 0.4567 0.0
H270 H 0.85672 0.47992 0.44674 0.0
H271 H 0.02258 0.56786 0.41339 0.0
H272 H 0.00569 0.48789 0.42656 0.0
C273 C 0.85453 0.76254 0.89481 0.0
C274 C 0.83069 0.75236 0.90173 0.0
C275 C 0.85608 0.78523 0.88115 0.0
C276 C 0.83376 0.7979 0.87372 0.0
C277 C 0.80998 0.78776 0.88116 0.0
C278 C 0.80851 0.76543 0.8952 0.0
C279 C 0.83486 0.82044 0.85673 0.0
C280 C 0.85233 0.82151 0.83678 0.0
C281 C 0.85089 0.84064 0.81837 0.0
C282 C 0.83192 0.85905 0.82012 0.0
C283 C 0.81431 0.85823 0.83981 0.0
C284 C 0.81644 0.83943 0.85844 0.0
C285 C 0.79151 0.87439 0.8388 0.0
C286 C 0.79354 0.90074 0.8343 0.0
C287 C 0.76718 0.86285 0.84076 0.0
C288 C 0.74531 0.87719 0.83794 0.0
C289 C 0.74712 0.90359 0.8334 0.0
C290 C 0.86691 0.83928 0.7955 0.0
C291 C 0.89334 0.8356 0.7978 0.0
C292 C 0.85541 0.84021 0.77103 0.0
C293 C 0.8699 0.83718 0.74927 0.0
C294 C 0.89638 0.83344 0.75138 0.0
C295 C 0.90797 0.83286 0.77594 0.0
C296 C 0.77154 0.91526 0.83179 0.0
H297 H 0.87192 0.75279 0.89976 0.0
H298 H 0.87473 0.79261 0.8761 0.0
H299 H 0.79228 0.79641 0.87529 0.0
H300 H 0.78987 0.75772 0.89994 0.0
H301 H 0.8659 0.80641 0.83439 0.0
H302 H 0.80292 0.83908 0.87376 0.0
H303 H 0.83 0.87316 0.80534 0.0
H304 H 0.81212 0.91007 0.83269 0.0
H305 H 0.76501 0.84245 0.84359 0.0
H306 H 0.72693 0.86729 0.83856 0.0
H307 H 0.90264 0.83483 0.81649 0.0
H308 H 0.83498 0.84243 0.76868 0.0
H309 H 0.77369 0.93557 0.82855 0.0
H310 H 0.92833 0.83029 0.77832 0.0
H311 H 0.8601 0.83704 0.73079 0.0
C312 C 0.35161 0.25131 0.38855 0.0
C313 C 0.32803 0.24169 0.39682 0.0
C314 C 0.35274 0.27329 0.37374 0.0
C315 C 0.33024 0.28575 0.36652 0.0
C316 C 0.30673 0.2761 0.37519 0.0
C317 C 0.30569 0.25451 0.39034 0.0
C318 C 0.33082 0.30771 0.34879 0.0
C319 C 0.34764 0.30815 0.32824 0.0
C320 C 0.34572 0.32689 0.30947 0.0
C321 C 0.32703 0.34554 0.31147 0.0
C322 C 0.31013 0.34534 0.33174 0.0
C323 C 0.3126 0.32689 0.35065 0.0
C324 C 0.28767 0.36189 0.33124 0.0
C325 C 0.29017 0.3883 0.32732 0.0
C326 C 0.2632 0.35073 0.33326 0.0
C327 C 0.24159 0.36556 0.33119 0.0
C328 C 0.24386 0.39208 0.32744 0.0
C329 C 0.36107 0.32518 0.28619 0.0
C330 C 0.38767 0.32261 0.28782 0.0
C331 C 0.34883 0.32546 0.26203 0.0
C332 C 0.36287 0.32332 0.23988 0.0
C333 C 0.38959 0.3212 0.2413 0.0
C334 C 0.40184 0.32081 0.26557 0.0
C335 C 0.26846 0.40332 0.32564 0.0
H336 H 0.36912 0.24172 0.39338 0.0
H337 H 0.37121 0.28031 0.36773 0.0
H338 H 0.28887 0.28457 0.36952 0.0
H339 H 0.28722 0.24718 0.39609 0.0
H340 H 0.36108 0.29295 0.32577 0.0
H341 H 0.29958 0.32705 0.3664 0.0
H342 H 0.3248 0.35942 0.2965 0.0
H343 H 0.3089 0.3973 0.32565 0.0
H344 H 0.26072 0.33029 0.33568 0.0
H345 H 0.22306 0.356 0.3319 0.0
H346 H 0.3975 0.32233 0.30629 0.0
H347 H 0.32826 0.32683 0.26025 0.0
H348 H 0.27098 0.4237 0.323 0.0
H349 H 0.42239 0.31942 0.2674 0.0
H350 H 0.35264 0.32295 0.22162 0.0
C351 C 0.51659 0.95893 0.64403 0.0
C352 C 0.54199 0.95118 0.64555 0.0
C353 C 0.50178 0.95419 0.62178 0.0
C354 C 0.51222 0.94203 0.60033 0.0
C355 C 0.53793 0.9348 0.60182 0.0
C356 C 0.55256 0.93907 0.62431 0.0
C357 C 0.4963 0.93682 0.57665 0.0
C358 C 0.47752 0.95407 0.56896 0.0
C359 C 0.46247 0.94934 0.5467 0.0
C360 C 0.46627 0.92712 0.53197 0.0
C361 C 0.48505 0.90984 0.5391 0.0
C362 C 0.49989 0.91469 0.56148 0.0
C363 C 0.49005 0.88758 0.52217 0.0
C364 C 0.46981 0.87171 0.51257 0.0
C365 C 0.51487 0.88346 0.51376 0.0
C366 C 0.51914 0.86477 0.49501 0.0
C367 C 0.49873 0.8496 0.48465 0.0
C368 C 0.44328 0.96796 0.53829 0.0
C369 C 0.42595 0.97813 0.55559 0.0
C370 C 0.44201 0.97543 0.51268 0.0
C371 C 0.42352 0.99231 0.50439 0.0
C372 C 0.40565 0.00198 0.52146 0.0
C373 C 0.40726 0.99492 0.54724 0.0
C374 C 0.47415 0.85273 0.49411 0.0
H375 H 0.50796 0.96799 0.66036 0.0
H376 H 0.48197 0.95959 0.62166 0.0
H377 H 0.54689 0.92594 0.5856 0.0
H378 H 0.57218 0.93303 0.62508 0.0
H379 H 0.47508 0.97167 0.57978 0.0
H380 H 0.51398 0.90096 0.56715 0.0
H381 H 0.45488 0.9235 0.5146 0.0
H382 H 0.45052 0.87446 0.51886 0.0
H383 H 0.53077 0.89554 0.52075 0.0
H384 H 0.53827 0.86266 0.48804 0.0
H385 H 0.42645 0.97258 0.57543 0.0
H386 H 0.45545 0.96829 0.49905 0.0
H387 H 0.45808 0.8414 0.48628 0.0
H388 H 0.39368 0.00183 0.56084 0.0
H389 H 0.42326 0.99783 0.48455 0.0
C390 C 0.22432 0.19699 0.62951 0.0
C391 C 0.24977 0.19248 0.62332 0.0
C392 C 0.21868 0.21422 0.64919 0.0
C393 C 0.23836 0.22736 0.66326 0.0
C394 C 0.26384 0.22294 0.65703 0.0
C395 C 0.26948 0.20569 0.63728 0.0
C396 C 0.23218 0.24557 0.68432 0.0
C397 C 0.21229 0.23961 0.70094 0.0
C398 C 0.20549 0.25694 0.72026 0.0
C399 C 0.219 0.2804 0.72308 0.0
C400 C 0.2388 0.28693 0.70657 0.0
C401 C 0.24544 0.26926 0.68739 0.0
C402 C 0.25174 0.31262 0.70897 0.0
C403 C 0.2374 0.33444 0.71388 0.0
C404 C 0.2784 0.31554 0.70705 0.0
C405 C 0.29048 0.3396 0.71099 0.0
C406 C 0.27613 0.36118 0.71697 0.0
C407 C 0.18311 0.25143 0.73636 0.0
C408 C 0.15994 0.24236 0.72495 0.0
C409 C 0.18416 0.25683 0.76282 0.0
C410 C 0.16221 0.25423 0.77735 0.0
C411 C 0.13877 0.24646 0.76563 0.0
C412 C 0.13799 0.24001 0.73941 0.0
C413 C 0.24943 0.35837 0.71786 0.0
H414 H 0.20866 0.18754 0.61883 0.0
H415 H 0.19883 0.21754 0.65312 0.0
H416 H 0.27945 0.23252 0.66766 0.0
H417 H 0.2893 0.20246 0.63317 0.0
H418 H 0.20211 0.22134 0.69894 0.0
H419 H 0.26021 0.27438 0.67417 0.0
H420 H 0.21366 0.2939 0.73786 0.0
H421 H 0.21678 0.33304 0.71479 0.0
H422 H 0.29002 0.29911 0.70336 0.0
H423 H 0.31111 0.34113 0.71032 0.0
H424 H 0.15847 0.23819 0.70459 0.0
H425 H 0.20182 0.26363 0.77216 0.0
H426 H 0.23778 0.37471 0.72191 0.0
H427 H 0.12019 0.23385 0.72991 0.0
H428 H 0.16332 0.2595 0.79748 0.0
C429 C 0.84474 0.25659 0.77742 0.0
C430 C 0.86082 0.23649 0.78418 0.0
C431 C 0.8216 0.25165 0.76412 0.0
C432 C 0.81375 0.22646 0.75752 0.0
C433 C 0.82932 0.20626 0.76497 0.0
C434 C 0.85264 0.21122 0.77807 0.0
C435 C 0.78973 0.22133 0.74231 0.0
C436 C 0.78428 0.23554 0.72039 0.0
C437 C 0.76227 0.22999 0.70513 0.0
C438 C 0.74532 0.2103 0.71235 0.0
C439 C 0.75026 0.1961 0.7344 0.0
C440 C 0.77259 0.20173 0.7492 0.0
C441 C 0.73243 0.17502 0.7417 0.0
C442 C 0.70582 0.17783 0.73977 0.0
C443 C 0.74194 0.15183 0.75057 0.0
C444 C 0.72528 0.13193 0.75729 0.0
C445 C 0.69867 0.13466 0.75525 0.0
C446 C 0.75781 0.24376 0.68087 0.0
C447 C 0.76118 0.2705 0.67995 0.0
C448 C 0.75121 0.23004 0.65818 0.0
C449 C 0.74889 0.24263 0.63495 0.0
C450 C 0.75286 0.26927 0.6339 0.0
C451 C 0.75857 0.28315 0.65672 0.0
C452 C 0.68914 0.1579 0.74649 0.0
H453 H 0.85006 0.27626 0.78232 0.0
H454 H 0.8098 0.26756 0.759 0.0
H455 H 0.82385 0.18664 0.75996 0.0
H456 H 0.86459 0.19528 0.78266 0.0
H457 H 0.79779 0.25022 0.71458 0.0
H458 H 0.77649 0.19111 0.76638 0.0
H459 H 0.72844 0.2058 0.70053 0.0
H460 H 0.69786 0.19554 0.73325 0.0
H461 H 0.76231 0.1489 0.75204 0.0
H462 H 0.7333 0.11443 0.76426 0.0
H463 H 0.7661 0.28159 0.69717 0.0
H464 H 0.74868 0.20942 0.65821 0.0
H465 H 0.66876 0.16057 0.74447 0.0
H466 H 0.76192 0.30366 0.65647 0.0
H467 H 0.74433 0.23146 0.61769 0.0
C468 C 0.52224 0.57351 0.44288 0.0
C469 C 0.51479 0.59804 0.45076 0.0
C470 C 0.52452 0.55386 0.46053 0.0
C471 C 0.51936 0.55822 0.48649 0.0
C472 C 0.51193 0.58274 0.49434 0.0
C473 C 0.50965 0.60237 0.47672 0.0
C474 C 0.52163 0.53731 0.50534 0.0
C475 C 0.542 0.52031 0.50441 0.0
C476 C 0.54443 0.50078 0.52236 0.0
C477 C 0.52607 0.49834 0.54136 0.0
C478 C 0.50555 0.51508 0.54264 0.0
C479 C 0.5035 0.53446 0.52452 0.0
C480 C 0.48634 0.51241 0.563 0.0
C481 C 0.47701 0.48813 0.56992 0.0
C482 C 0.47734 0.53414 0.57585 0.0
C483 C 0.45961 0.53164 0.59523 0.0
C484 C 0.45037 0.50735 0.60223 0.0
C485 C 0.56625 0.48305 0.52148 0.0
C486 C 0.57442 0.47299 0.49803 0.0
C487 C 0.57899 0.47592 0.54414 0.0
C488 C 0.59926 0.45904 0.54339 0.0
C489 C 0.60734 0.44884 0.51997 0.0
C490 C 0.59469 0.45609 0.49729 0.0
C491 C 0.45924 0.48563 0.58926 0.0
H492 H 0.5266 0.56955 0.4231 0.0
H493 H 0.53006 0.53516 0.45376 0.0
H494 H 0.50808 0.58689 0.51421 0.0
H495 H 0.50359 0.6209 0.48345 0.0
H496 H 0.55642 0.52275 0.49014 0.0
H497 H 0.48738 0.54701 0.525 0.0
H498 H 0.5278 0.48337 0.55528 0.0
H499 H 0.48332 0.47101 0.56025 0.0
H500 H 0.48429 0.55312 0.57117 0.0
H501 H 0.45301 0.54879 0.60462 0.0
H502 H 0.56483 0.47781 0.48025 0.0
H503 H 0.57352 0.48365 0.5625 0.0
H504 H 0.45274 0.46662 0.59433 0.0
H505 H 0.60017 0.44836 0.47893 0.0
H506 H 0.60883 0.45427 0.5612 0.0
C507 C 0.47538 0.48853 0.88153 0.0
C508 C 0.48083 0.49426 0.85609 0.0
C509 C 0.49492 0.48467 0.89943 0.0
C510 C 0.52064 0.48583 0.89243 0.0
C511 C 0.52628 0.49137 0.86694 0.0
C512 C 0.50654 0.49551 0.84891 0.0
C513 C 0.54104 0.48158 0.91217 0.0
C514 C 0.53684 0.46348 0.93119 0.0
C515 C 0.55343 0.46192 0.9526 0.0
C516 C 0.57551 0.47769 0.95402 0.0
C517 C 0.58084 0.4949 0.93446 0.0
C518 C 0.56356 0.49682 0.91359 0.0
C519 C 0.60412 0.51145 0.93642 0.0
C520 C 0.60895 0.52719 0.95813 0.0
C521 C 0.62205 0.51089 0.91703 0.0
C522 C 0.64486 0.52527 0.91966 0.0
C523 C 0.65 0.54096 0.94152 0.0
C524 C 0.54656 0.44496 0.974 0.0
C525 C 0.52096 0.44253 0.98113 0.0
C526 C 0.56512 0.43113 0.9874 0.0
C527 C 0.55807 0.41492 0.00718 0.0
C528 C 0.53232 0.4122 0.01393 0.0
C529 C 0.51393 0.42623 0.00057 0.0
C530 C 0.63152 0.54199 0.96055 0.0
H531 H 0.45586 0.48685 0.88773 0.0
H532 H 0.48974 0.48102 0.91895 0.0
H533 H 0.54588 0.49232 0.86088 0.0
H534 H 0.51143 0.49998 0.8295 0.0
H535 H 0.52015 0.45081 0.92958 0.0
H536 H 0.56713 0.51102 0.89921 0.0
H537 H 0.58843 0.47692 0.9705 0.0
H538 H 0.59521 0.52807 0.97322 0.0
H539 H 0.61876 0.49869 0.90022 0.0
H540 H 0.65873 0.52347 0.9048 0.0
H541 H 0.50619 0.45327 0.97167 0.0
H542 H 0.58501 0.43249 0.98233 0.0
H543 H 0.63441 0.55421 0.97737 0.0
H544 H 0.49384 0.42431 0.00472 0.0
H545 H 0.57279 0.40457 0.01717 0.0
C546 C 0.63184 0.21778 0.19201 0.0
C547 C 0.62484 0.24318 0.188 0.0
C548 C 0.65216 0.21239 0.20876 0.0
C549 C 0.66598 0.23228 0.22181 0.0
C550 C 0.65944 0.25771 0.21718 0.0
C551 C 0.63909 0.26309 0.20052 0.0
C552 C 0.68636 0.22648 0.24104 0.0
C553 C 0.70347 0.20667 0.23653 0.0
C554 C 0.72198 0.20032 0.25518 0.0
C555 C 0.723 0.21404 0.27864 0.0
C556 C 0.70647 0.23421 0.28319 0.0
C557 C 0.68829 0.24037 0.26434 0.0
C558 C 0.70853 0.24911 0.30756 0.0
C559 C 0.70694 0.23678 0.3311 0.0
C560 C 0.71312 0.27568 0.30738 0.0
C561 C 0.7171 0.28954 0.33034 0.0
C562 C 0.71589 0.27714 0.35385 0.0
C563 C 0.74005 0.17925 0.25046 0.0
C564 C 0.73192 0.15657 0.23733 0.0
C565 C 0.76543 0.18125 0.25998 0.0
C566 C 0.78174 0.16066 0.25774 0.0
C567 C 0.77324 0.1377 0.24559 0.0
C568 C 0.7484 0.13606 0.23482 0.0
C569 C 0.71033 0.25075 0.35409 0.0
H570 H 0.62108 0.20201 0.18285 0.0
H571 H 0.65647 0.19257 0.21212 0.0
H572 H 0.66999 0.2735 0.22653 0.0
H573 H 0.63446 0.28288 0.19747 0.0
H574 H 0.70264 0.1965 0.21826 0.0
H575 H 0.67514 0.25554 0.26824 0.0
H576 H 0.73676 0.20916 0.29348 0.0
H577 H 0.70334 0.21631 0.33166 0.0
H578 H 0.71454 0.28555 0.28944 0.0
H579 H 0.72155 0.30986 0.32977 0.0
H580 H 0.71249 0.1542 0.22993 0.0
H581 H 0.77263 0.19861 0.26957 0.0
H582 H 0.7096 0.2408 0.37203 0.0
H583 H 0.74129 0.11845 0.22562 0.0
H584 H 0.80089 0.16248 0.26603 0.0
C585 C 0.4442 0.15615 0.99777 0.0
C586 C 0.44237 0.15725 0.0245 0.0
C587 C 0.44118 0.13283 0.98444 0.0
C588 C 0.43594 0.1102 0.99754 0.0
C589 C 0.43375 0.11131 0.02424 0.0
C590 C 0.43714 0.13462 0.03764 0.0
C591 C 0.43367 0.08541 0.98341 0.0
C592 C 0.45255 0.07863 0.96613 0.0
C593 C 0.45119 0.05492 0.95316 0.0
C594 C 0.43036 0.03819 0.95713 0.0
C595 C 0.41093 0.04482 0.97389 0.0
C596 C 0.41294 0.06841 0.98727 0.0
C597 C 0.38892 0.02674 0.97737 0.0
C598 C 0.37841 0.01259 0.9563 0.0
C599 C 0.37923 0.02228 0.00177 0.0
C600 C 0.36049 0.00312 0.00515 0.0
C601 C 0.35128 0.988 0.98423 0.0
C602 C 0.47162 0.04726 0.93572 0.0
C603 C 0.48068 0.06401 0.91712 0.0
C604 C 0.48167 0.0227 0.93714 0.0
C605 C 0.49976 0.01471 0.91984 0.0
C606 C 0.50811 0.03101 0.90051 0.0
C607 C 0.49874 0.05594 0.89963 0.0
C608 C 0.35997 0.99335 0.95972 0.0
H609 H 0.44835 0.1733 0.9872 0.0
H610 H 0.44287 0.13248 0.96384 0.0
H611 H 0.42991 0.09407 0.03478 0.0
H612 H 0.43547 0.135 0.05824 0.0
H613 H 0.46879 0.09148 0.96344 0.0
H614 H 0.39812 0.07387 0.00021 0.0
H615 H 0.42937 0.01982 0.94713 0.0
H616 H 0.38489 0.01598 0.93714 0.0
H617 H 0.38695 0.03274 0.01843 0.0
H618 H 0.35418 0.99923 0.02427 0.0
H619 H 0.47318 0.08304 0.91557 0.0
H620 H 0.47544 0.00959 0.95163 0.0
H621 H 0.35291 0.98216 0.94323 0.0
H622 H 0.50466 0.0689 0.88489 0.0
H623 H 0.50707 0.99561 0.92147 0.0
Zn624 Zn 0.28169 0.84304 0.00597 0.0
Zn625 Zn 0.23838 0.86783 0.00786 0.0
O626 O 0.23947 0.8483 0.04223 0.0
O627 O 0.27772 0.83174 0.0421 0.0
O628 O 0.20558 0.8877 0.00918 0.0
O629 O 0.30135 0.87536 -0.00107 0.0
O630 O 0.26615 0.89668 0.00425 0.0
C631 C 0.25698 0.83563 0.05323 0.0
C632 C 0.24648 0.82658 0.96597 0.0
O633 O 0.23321 0.84443 0.97541 0.0
O634 O 0.26774 0.82134 0.9764 0.0
C635 C 0.20408 0.90688 0.02438 0.0
O636 O 0.22382 0.91314 0.03945 0.0
C637 C 0.29002 0.89641 2e-05 0.0
Zn638 Zn 0.09532 0.44699 0.30622 0.0
Zn639 Zn 0.1188 0.49156 0.29439 0.0
O640 O 0.09591 0.50182 0.32443 0.0
O641 O 0.07889 0.46478 0.33553 0.0
O642 O 0.13832 0.52419 0.28656 0.0
O643 O 0.12916 0.43104 0.31303 0.0
O644 O 0.14819 0.46756 0.30355 0.0
C645 C 0.08183 0.48868 0.33906 0.0
C646 C 0.08368 0.46315 0.25479 0.0
O647 O 0.09908 0.48167 0.26094 0.0
O648 O 0.07862 0.44605 0.27084 0.0
C649 C 0.13065 0.5412 0.27134 0.0
O650 O 0.10819 0.53819 0.25975 0.0
C651 C 0.14937 0.44444 0.31063 0.0
Zn652 Zn 0.80226 0.59847 0.93863 0.0
Zn653 Zn 0.79236 0.61809 0.9854 0.0
O654 O 0.82054 0.59269 0.99367 0.0
O655 O 0.82685 0.57474 0.95599 0.0
O656 O 0.78563 0.63548 0.01925 0.0
O657 O 0.81492 0.633 0.92699 0.0
O658 O 0.80352 0.64886 0.96413 0.0
C659 C 0.83185 0.57642 0.97981 0.0
C660 C 0.74994 0.59045 0.95308 0.0
O661 O 0.75805 0.6008 0.97413 0.0
O662 O 0.76476 0.58823 0.93446 0.0
C663 C 0.77061 0.62704 0.03599 0.0
O664 O 0.75845 0.60499 0.03185 0.0
C665 C 0.81247 0.65203 0.94198 0.0
Zn666 Zn 0.83753 0.99788 0.28157 0.0
Zn667 Zn 0.8638 0.00068 0.23891 0.0
O668 O 0.84244 0.03403 0.23896 0.0
O669 O 0.82193 0.03157 0.27511 0.0
O670 O 0.88548 0.00271 0.20723 0.0
O671 O 0.86958 0.99781 0.30309 0.0
O672 O 0.89175 -0.00039 0.26796 0.0
C673 C 0.82716 0.04348 0.25504 0.0
C674 C 0.826 0.95547 0.24717 0.0
O675 O 0.84245 0.96678 0.23345 0.0
O676 O 0.82042 0.96509 0.26864 0.0
C677 C 0.88116 0.01703 0.18829 0.0
O678 O 0.86098 0.03143 0.18829 0.0
C679 C 0.89088 0.99883 0.29229 0.0
Zn680 Zn 0.29799 0.09073 0.44107 0.0
Zn681 Zn 0.29037 0.11192 0.48751 0.0
O682 O 0.31823 0.08599 0.49564 0.0
O683 O 0.32216 0.06658 0.45822 0.0
O684 O 0.285 0.13085 0.52097 0.0
O685 O 0.31146 0.1242 0.42781 0.0
O686 O 0.30157 0.14164 0.46474 0.0
C687 C 0.32827 0.06883 0.48177 0.0
C688 C 0.24624 0.0845 0.45723 0.0
O689 O 0.25534 0.09499 0.47784 0.0
O690 O 0.26026 0.08164 0.43808 0.0
C691 C 0.2691 0.12415 0.53768 0.0
O692 O 0.25538 0.10295 0.53394 0.0
C693 C 0.30995 0.14378 0.44222 0.0
Zn694 Zn 0.33767 0.50039 0.78143 0.0
Zn695 Zn 0.36232 0.50414 0.73785 0.0
O696 O 0.34082 0.53735 0.73921 0.0
O697 O 0.32163 0.53413 0.77603 0.0
O698 O 0.38291 0.50804 0.70569 0.0
O699 O 0.37062 0.50024 0.80166 0.0
O700 O 0.39133 0.50278 0.76568 0.0
C701 C 0.3261 0.54646 0.75602 0.0
C702 C 0.32545 0.45829 0.7468 0.0
O703 O 0.34129 0.46998 0.7327 0.0
O704 O 0.32041 0.4676 0.76856 0.0
C705 C 0.37954 0.49508 0.68496 0.0
O706 O 0.36086 0.47785 0.68309 0.0
C707 C 0.39145 0.50157 0.79001 0.0
Zn708 Zn 0.78392 0.33482 0.49097 0.0
Zn709 Zn 0.7407 0.36014 0.49778 0.0
O710 O 0.74294 0.33812 0.53036 0.0
O711 O 0.77722 0.31574 0.5234 0.0
O712 O 0.70874 0.38117 0.50086 0.0
O713 O 0.80445 0.3678 0.49162 0.0
O714 O 0.76886 0.38866 0.49631 0.0
C715 C 0.75854 0.32105 0.53727 0.0
C716 C 0.74802 0.32559 0.44975 0.0
O717 O 0.73396 0.33946 0.46363 0.0
O718 O 0.77067 0.32109 0.45698 0.0
C719 C 0.69205 0.37927 0.518 0.0
O720 O 0.69465 0.36201 0.53571 0.0
C721 C 0.79302 0.38872 0.49382 0.0
Zn722 Zn 0.59858 0.94893 0.79684 0.0
Zn723 Zn 0.61942 0.99478 0.78728 0.0
O724 O 0.59372 0.00413 0.81509 0.0
O725 O 0.57431 0.96675 0.82 0.0
O726 O 0.63806 0.02759 0.77844 0.0
O727 O 0.63179 0.93664 0.8114 0.0
O728 O 0.64954 0.97295 0.79953 0.0
C729 C 0.5765 0.99043 0.82544 0.0
C730 C 0.59188 0.96241 0.74462 0.0
O731 O 0.60207 0.98345 0.75297 0.0
O732 O 0.58945 0.94364 0.75935 0.0
C733 C 0.63159 0.0504 0.78334 0.0
O734 O 0.61037 0.0544 0.79545 0.0
C735 C 0.65145 0.9509 0.80922 0.0
Zn736 Zn 0.0063 0.29177 0.83903 0.0
Zn737 Zn 0.00805 0.24817 0.86423 0.0
O738 O 0.03959 0.24656 0.84073 0.0
O739 O 0.03609 0.2816 0.81834 0.0
O740 O 0.01087 0.21664 0.88605 0.0
O741 O 0.01173 0.31283 0.87148 0.0
O742 O 0.00982 0.27671 0.89225 0.0
C743 C 0.04753 0.26117 0.82318 0.0
C744 C 0.96083 0.26016 0.83076 0.0
O745 O 0.97274 0.24459 0.845 0.0
O746 O 0.97094 0.28175 0.82603 0.0
C747 C 0.00452 0.19375 0.87946 0.0
O748 O 0.99508 0.18898 0.85629 0.0
C749 C 0.01176 0.30107 0.89237 0.0
Zn750 Zn 0.50692 0.77903 0.33941 0.0
Zn751 Zn 0.50824 0.73508 0.36416 0.0
O752 O 0.54151 0.73505 0.34297 0.0
O753 O 0.54071 0.77238 0.3242 0.0
O754 O 0.51091 0.70332 0.38561 0.0
O755 O 0.50648 0.7996 0.37206 0.0
O756 O 0.50701 0.76329 0.39261 0.0
C757 C 0.55175 0.75164 0.32859 0.0
C758 C 0.46369 0.74516 0.32674 0.0
O759 O 0.47436 0.73049 0.34281 0.0
O760 O 0.47407 0.7666 0.32187 0.0
C761 C 0.50432 0.68058 0.37873 0.0
O762 O 0.49476 0.6762 0.35554 0.0
C763 C 0.5066 0.78767 0.39285 0.0
Zn764 Zn 0.94301 0.79616 0.60351 0.0
Zn765 Zn 0.98874 0.78693 0.62503 0.0
O766 O 0.99784 0.81473 0.59902 0.0
O767 O 0.96076 0.81955 0.57912 0.0
O768 O 0.02216 0.77779 0.64237 0.0
O769 O 0.93112 0.8105 0.63691 0.0
O770 O 0.96732 0.79929 0.65531 0.0
C771 C 0.98439 0.8251 0.58161 0.0
C772 C 0.95613 0.74402 0.59763 0.0
O773 O 0.97692 0.75256 0.6082 0.0
O774 O 0.93751 0.75868 0.59444 0.0
C775 C 0.04261 0.79145 0.64284 0.0
O776 O 0.04293 0.8135 0.63124 0.0
C777 C 0.94521 0.80875 0.65678 0.0
Zn778 Zn 0.44419 0.30689 0.09144 0.0
Zn779 Zn 0.48717 0.29066 0.11465 0.0
O780 O 0.5 0.32058 0.09272 0.0
O781 O 0.46437 0.33581 0.07645 0.0
O782 O 0.51911 0.2804 0.13377 0.0
O783 O 0.4282 0.31275 0.12543 0.0
O784 O 0.46361 0.30002 0.14426 0.0
C785 C 0.48843 0.337 0.07932 0.0
C786 C 0.45653 0.25474 0.07781 0.0
O787 O 0.47511 0.25871 0.09374 0.0
O788 O 0.44101 0.27235 0.07316 0.0
C789 C 0.5355 0.26511 0.12528 0.0
O790 O 0.53191 0.25458 0.10241 0.0
C791 C 0.44104 0.3084 0.14562 0.0
C792 C 0.21135 0.80844 0.90339 0.0
C793 C 0.22522 0.78728 0.89502 0.0
H794 H 0.20689 0.83733 0.93255 0.0
C795 C 0.24516 0.77858 0.91079 0.0
H796 H 0.19572 0.81546 0.89177 0.0
C797 C 0.25149 0.79101 0.93402 0.0
C798 C 0.23805 0.81248 0.94221 0.0
H799 H 0.25646 0.76258 0.90482 0.0
H800 H 0.26731 0.78397 0.94537 0.0
C801 C 0.21763 0.82085 0.92681 0.0
C802 C 0.05043 0.49704 0.40236 0.0
C803 C 0.03641 0.5193 0.39869 0.0
H804 H 0.07562 0.46993 0.38621 0.0
C805 C 0.03992 0.5331 0.37611 0.0
H806 H 0.04899 0.48634 0.4198 0.0
C807 C 0.05601 0.52404 0.35716 0.0
C808 C 0.0684 0.50082 0.36028 0.0
H809 H 0.02935 0.55022 0.37246 0.0
H810 H 0.05758 0.53439 0.33951 0.0
C811 C 0.06592 0.48773 0.38324 0.0
C812 C 0.81331 0.72397 0.93545 0.0
C813 C 0.82849 0.72719 0.91397 0.0
H814 H 0.79665 0.69764 0.96146 0.0
C815 C 0.83971 0.70576 0.9028 0.0
H816 H 0.8045 0.74026 0.9444 0.0
C817 C 0.83492 0.68136 0.91224 0.0
C818 C 0.81914 0.67801 0.9333 0.0
H819 H 0.8513 0.70774 0.88607 0.0
H820 H 0.84323 0.66508 0.90278 0.0
C821 C 0.80887 0.69962 0.9452 0.0
C822 C 0.93479 0.00976 0.34982 0.0
C823 C 0.9567 0.99659 0.34288 0.0
H824 H 0.89697 0.02055 0.33933 0.0
C825 C 0.95777 0.98622 0.31786 0.0
H826 H 0.93354 0.01875 0.36856 0.0
C827 C 0.93682 0.98788 0.30073 0.0
C828 C 0.91439 0.99957 0.30851 0.0
H829 H 0.97431 0.9759 0.31187 0.0
H830 H 0.93771 0.97898 0.28191 0.0
C831 C 0.91384 0.01095 0.333 0.0
C832 C 0.24162 0.15114 0.59864 0.0
C833 C 0.2556 0.17435 0.60208 0.0
H834 H 0.235 0.11705 0.57583 0.0
C835 C 0.27472 0.1804 0.58468 0.0
H836 H 0.22701 0.14572 0.61191 0.0
C837 C 0.27938 0.1639 0.56404 0.0
C838 C 0.26507 0.14093 0.56034 0.0
H839 H 0.28566 0.19822 0.5866 0.0
H840 H 0.29397 0.16939 0.55077 0.0
C841 C 0.24632 0.13462 0.57803 0.0
C842 C 0.43453 0.51982 0.64563 0.0
C843 C 0.4318 0.50463 0.62318 0.0
H844 H 0.42031 0.52875 0.68265 0.0
C845 C 0.41139 0.48663 0.62105 0.0
H846 H 0.45019 0.53365 0.64807 0.0
C847 C 0.39428 0.48373 0.64095 0.0
C848 C 0.39718 0.49874 0.6635 0.0
H849 H 0.40852 0.47486 0.6039 0.0
H850 H 0.37887 0.46961 0.63868 0.0
C851 C 0.41745 0.5169 0.66554 0.0
C852 C 0.76661 0.27175 0.58863 0.0
C853 C 0.75289 0.28218 0.60885 0.0
H854 H 0.77914 0.27584 0.55038 0.0
C855 C 0.74011 0.3052 0.60511 0.0
H856 H 0.77687 0.2542 0.59099 0.0
C857 C 0.7412 0.31759 0.5816 0.0
C858 C 0.7555 0.3074 0.56162 0.0
H859 H 0.7293 0.3136 0.62037 0.0
H860 H 0.7314 0.33541 0.5793 0.0
C861 C 0.76802 0.28427 0.56539 0.0
C862 C 0.55981 0.97883 0.68167 0.0
C863 C 0.5569 0.95459 0.66977 0.0
H864 H 0.57385 0.00043 0.71461 0.0
C865 C 0.56706 0.93326 0.68183 0.0
H866 H 0.55214 0.99553 0.67262 0.0
C867 C 0.57899 0.93593 0.70595 0.0
C868 C 0.58147 0.96008 0.71817 0.0
H869 H 0.5649 0.91437 0.67302 0.0
H870 H 0.58596 0.91904 0.71521 0.0
C871 C 0.5723 0.98161 0.70556 0.0
C872 C 0.90098 0.26351 0.78895 0.0
C873 C 0.88646 0.24211 0.79644 0.0
H874 H 0.93542 0.28585 0.79377 0.0
C875 C 0.89685 0.22621 0.81528 0.0
H876 H 0.89401 0.27584 0.77407 0.0
C877 C 0.92108 0.23179 0.82645 0.0
C878 C 0.93532 0.25344 0.81909 0.0
H879 H 0.88615 0.20966 0.82167 0.0
H880 H 0.92851 0.21932 0.84099 0.0
C881 C 0.92493 0.26915 0.80017 0.0
C882 C 0.49318 0.80719 0.46132 0.0
C883 C 0.50253 0.83265 0.46215 0.0
H884 H 0.48766 0.77262 0.43874 0.0
C885 C 0.51423 0.84262 0.44055 0.0
H886 H 0.48407 0.79912 0.47777 0.0
C887 C 0.51584 0.82777 0.41826 0.0
C888 C 0.5062 0.80244 0.4172 0.0
H889 H 0.52134 0.86226 0.4406 0.0
H890 H 0.52447 0.83623 0.40173 0.0
C891 C 0.4953 0.79207 0.43909 0.0
C892 C 0.11265 0.2377 0.80454 0.0
C893 C 0.11473 0.24784 0.77994 0.0
H894 H 0.08932 0.2334 0.83749 0.0
C895 C 0.09404 0.26089 0.76936 0.0
H896 H 0.12834 0.22751 0.8131 0.0
C897 C 0.07209 0.26452 0.78331 0.0
C898 C 0.07008 0.25489 0.80807 0.0
H899 H 0.09518 0.26916 0.75059 0.0
H900 H 0.05676 0.27525 0.77477 0.0
C901 C 0.09034 0.24094 0.8184 0.0
C902 C 0.50184 0.61431 0.40735 0.0
C903 C 0.51242 0.61907 0.43206 0.0
H904 H 0.49091 0.62987 0.37122 0.0
C905 C 0.52054 0.6442 0.43887 0.0
H906 H 0.49511 0.59527 0.40154 0.0
C907 C 0.51798 0.66405 0.42156 0.0
C908 C 0.50726 0.65933 0.39693 0.0
H909 H 0.52914 0.64853 0.45756 0.0
H910 H 0.52445 0.68314 0.42753 0.0
C911 C 0.49929 0.6342 0.39 0.0
C912 C 0.90491 0.84195 0.7053 0.0
C913 C 0.91133 0.82923 0.72792 0.0
H914 H 0.91052 0.84533 0.66519 0.0
C915 C 0.93095 0.81131 0.72734 0.0
H916 H 0.89048 0.85641 0.70511 0.0
C917 C 0.94295 0.80545 0.70443 0.0
C918 C 0.93526 0.81708 0.68164 0.0
H919 H 0.9363 0.80098 0.74431 0.0
H920 H 0.95735 0.79095 0.70433 0.0
C921 C 0.91651 0.83574 0.68241 0.0
C922 C 0.99101 0.87158 0.52772 0.0
C923 C 0.01561 0.88228 0.53234 0.0
H924 H 0.96207 0.8453 0.53942 0.0
C925 C 0.03059 0.87309 0.55272 0.0
H926 H 0.9792 0.87773 0.5118 0.0
C927 C 0.02078 0.85413 0.5686 0.0
C928 C 0.99582 0.84407 0.56434 0.0
H929 H 0.04962 0.88099 0.55676 0.0
H930 H 0.03251 0.84775 0.58447 0.0
C931 C 0.98123 0.85283 0.54352 0.0
C932 C 0.08626 0.75203 0.68445 0.0
C933 C 0.10913 0.76674 0.68491 0.0
H934 H 0.04745 0.74824 0.67092 0.0
C935 C 0.11008 0.78941 0.67091 0.0
H936 H 0.08471 0.73467 0.69531 0.0
C937 C 0.08858 0.79734 0.65707 0.0
C938 C 0.06565 0.78276 0.65688 0.0
H939 H 0.12747 0.80103 0.67057 0.0
H940 H 0.08993 0.81496 0.64661 0.0
C941 C 0.06481 0.75992 0.67059 0.0
C942 C 0.97397 0.6805 0.56833 0.0
C943 C 0.94984 0.66898 0.5631 0.0
H944 H 0.99491 0.71316 0.58395 0.0
C945 C 0.92791 0.68138 0.57104 0.0
H946 H 0.99114 0.67118 0.56242 0.0
C947 C 0.92999 0.70554 0.58293 0.0
C948 C 0.95409 0.71745 0.58753 0.0
H949 H 0.9091 0.67287 0.56707 0.0
H950 H 0.91271 0.71509 0.58809 0.0
C951 C 0.9761 0.70442 0.58071 0.0
C952 C 0.80948 0.89357 0.20996 0.0
C953 C 0.78904 0.88367 0.22398 0.0
H954 H 0.83711 0.92424 0.206 0.0
C955 C 0.78085 0.89773 0.24526 0.0
H956 H 0.81615 0.88322 0.1934 0.0
C957 C 0.79278 0.921 0.25246 0.0
C958 C 0.81324 0.93099 0.23856 0.0
H959 H 0.76546 0.89049 0.25674 0.0
H960 H 0.78595 0.9311 0.2691 0.0
C961 C 0.82139 0.9171 0.21709 0.0
C962 C 0.79345 0.09935 0.22509 0.0
C963 C 0.78914 0.1147 0.24688 0.0
H964 H 0.80972 0.06481 0.21038 0.0
C965 C 0.79892 0.1072 0.27072 0.0
H966 H 0.78609 0.10478 0.20649 0.0
C967 C 0.81185 0.08439 0.27297 0.0
C968 C 0.81578 0.06872 0.25138 0.0
H969 H 0.79569 0.11851 0.28785 0.0
H970 H 0.81848 0.07877 0.29178 0.0
C971 C 0.80703 0.07665 0.22727 0.0
C972 C 0.34225 0.94132 0.97821 0.0
C973 C 0.33479 0.96504 0.98807 0.0
H974 H 0.33407 0.90123 0.97442 0.0
C975 C 0.31211 0.96631 0.00176 0.0
H976 H 0.35978 0.93977 0.96781 0.0
C977 C 0.29704 0.94413 0.00528 0.0
C978 C 0.30483 0.92033 0.99571 0.0
H979 H 0.30598 0.98443 0.00953 0.0
H980 H 0.27963 0.94551 0.01589 0.0
C981 C 0.32758 0.91923 0.98214 0.0
C982 C 0.19865 0.40105 0.33862 0.0
C983 C 0.22046 0.40748 0.32476 0.0
H984 H 0.15915 0.40751 0.34475 0.0
C985 C 0.21913 0.4277 0.30742 0.0
H986 H 0.19909 0.38619 0.35273 0.0
C987 C 0.19624 0.44047 0.30341 0.0
C988 C 0.17422 0.43292 0.31629 0.0
H989 H 0.23543 0.43307 0.29624 0.0
H990 H 0.19552 0.45551 0.28949 0.0
C991 C 0.17575 0.41338 0.33419 0.0
C992 C 0.18248 0.06003 0.43002 0.0
C993 C 0.1709 0.04982 0.45169 0.0
H994 H 0.21533 0.07885 0.41482 0.0
C995 C 0.18374 0.05297 0.47562 0.0
H996 H 0.17299 0.05874 0.41139 0.0
C997 C 0.20775 0.06531 0.47765 0.0
C998 C 0.21968 0.07429 0.45575 0.0
H999 H 0.17573 0.04513 0.49273 0.0
H1000 H 0.21744 0.06682 0.4962 0.0
C1001 C 0.20668 0.07181 0.43199 0.0
C1002 C 0.68667 0.08787 0.7553 0.0
C1003 C 0.68105 0.11322 0.76204 0.0
H1004 H 0.67557 0.04833 0.75661 0.0
C1005 C 0.65865 0.11781 0.77548 0.0
H1006 H 0.70351 0.08366 0.74457 0.0
C1007 C 0.64244 0.09749 0.78225 0.0
C1008 C 0.64828 0.07213 0.77575 0.0
H1009 H 0.65386 0.13708 0.78118 0.0
H1010 H 0.62548 0.10165 0.7928 0.0
C1011 C 0.67053 0.0676 0.76209 0.0
C1012 C 0.37331 0.01386 0.48797 0.0
C1013 C 0.38515 0.01882 0.51204 0.0
H1014 H 0.34624 0.02561 0.45969 0.0
C1015 C 0.3774 0.03999 0.52666 0.0
H1016 H 0.37832 0.99739 0.47645 0.0
C1017 C 0.3586 0.05611 0.51713 0.0
C1018 C 0.34731 0.05142 0.49275 0.0
H1019 H 0.38624 0.04445 0.54521 0.0
H1020 H 0.35329 0.07249 0.52863 0.0
C1021 C 0.35475 0.02999 0.47841 0.0
C1022 C 0.6472 0.43241 0.50013 0.0
C1023 C 0.62889 0.43076 0.51924 0.0
H1024 H 0.68142 0.41762 0.48474 0.0
C1025 C 0.63141 0.41179 0.53776 0.0
H1026 H 0.64606 0.44697 0.48574 0.0
C1027 C 0.65178 0.395 0.53727 0.0
C1028 C 0.67017 0.39677 0.51825 0.0
H1029 H 0.61747 0.40971 0.55255 0.0
H1030 H 0.65311 0.38066 0.55186 0.0
C1031 C 0.66759 0.41564 0.49964 0.0
C1032 C 0.70571 0.29349 0.39785 0.0
C1033 C 0.72301 0.29117 0.3779 0.0
H1034 H 0.69989 0.30703 0.43631 0.0
C1035 C 0.74792 0.30129 0.38136 0.0
H1036 H 0.6864 0.28573 0.39551 0.0
C1037 C 0.75575 0.31279 0.40465 0.0
C1038 C 0.73864 0.31497 0.42476 0.0
H1039 H 0.76159 0.29958 0.36627 0.0
H1040 H 0.77531 0.31987 0.40698 0.0
C1041 C 0.71337 0.3057 0.42104 0.0
C1042 C 0.54573 0.03667 0.87172 0.0
C1043 C 0.52554 0.02135 0.88076 0.0
H1044 H 0.57785 0.03897 0.84711 0.0
C1045 C 0.52193 0.99635 0.87078 0.0
H1046 H 0.54906 0.056 0.87909 0.0
C1047 C 0.53837 0.98662 0.85276 0.0
C1048 C 0.55886 0.00165 0.84402 0.0
H1049 H 0.50621 0.98424 0.8768 0.0
H1050 H 0.53495 0.96719 0.8457 0.0
C1051 C 0.56226 0.0269 0.85349 0.0
C1052 C 0.3117 0.2153 0.43257 0.0
C1053 C 0.32618 0.21725 0.41045 0.0
H1054 H 0.29555 0.19048 0.46028 0.0
C1055 C 0.33684 0.19518 0.39998 0.0
H1056 H 0.30333 0.2321 0.441 0.0
C1057 C 0.33208 0.17136 0.41071 0.0
C1058 C 0.31689 0.16923 0.43236 0.0
H1059 H 0.34789 0.19619 0.38279 0.0
H1060 H 0.33988 0.15454 0.40174 0.0
C1061 C 0.3073 0.19152 0.44359 0.0
C1062 C 0.4377 0.51149 0.84585 0.0
C1063 C 0.45941 0.49878 0.83757 0.0
H1064 H 0.39935 0.52206 0.83739 0.0
C1065 C 0.45951 0.48912 0.81223 0.0
H1066 H 0.43718 0.51995 0.86489 0.0
C1067 C 0.4378 0.49095 0.79611 0.0
C1068 C 0.41561 0.50212 0.80523 0.0
H1069 H 0.47588 0.47919 0.80523 0.0
H1070 H 0.43796 0.48258 0.77701 0.0
C1071 C 0.41601 0.51285 0.83003 0.0
C1072 C 0.74382 0.64942 0.0991 0.0
C1073 C 0.75661 0.6732 0.10314 0.0
H1074 H 0.73828 0.61611 0.07488 0.0
C1075 C 0.77448 0.6813 0.08523 0.0
H1076 H 0.73016 0.64249 0.11269 0.0
C1077 C 0.77921 0.66616 0.06364 0.0
C1078 C 0.7662 0.64253 0.05943 0.0
H1079 H 0.78442 0.69965 0.08755 0.0
H1080 H 0.79288 0.67318 0.05011 0.0
C1081 C 0.74858 0.63424 0.0775 0.0
C1082 C 0.93774 0.00383 0.14639 0.0
C1083 C 0.9344 0.02154 0.12678 0.0
H1084 H 0.92371 0.98854 0.18116 0.0
C1085 C 0.91309 0.03733 0.12732 0.0
H1086 H 0.95407 0.99155 0.1467 0.0
C1087 C 0.89567 0.03563 0.14708 0.0
C1088 C 0.89919 0.01816 0.16687 0.0
H1089 H 0.90975 0.05095 0.11234 0.0
H1090 H 0.87955 0.04818 0.14691 0.0
C1091 C 0.92038 0.0022 0.16623 0.0
C1092 C 0.27264 0.80895 0.11802 0.0
C1093 C 0.24923 0.7976 0.12466 0.0
H1094 H 0.29331 0.8298 0.09018 0.0
C1095 C 0.22766 0.80062 0.10852 0.0
H1096 H 0.28961 0.80674 0.12997 0.0
C1097 C 0.22967 0.81433 0.08584 0.0
C1098 C 0.25344 0.82458 0.0787 0.0
H1099 H 0.20939 0.79204 0.11326 0.0
H1100 H 0.21298 0.81586 0.07334 0.0
C1101 C 0.27477 0.82206 0.0952 0.0
C1102 C 0.03874 0.44273 0.19988 0.0
C1103 C 0.04791 0.45748 0.1798 0.0
H1104 H 0.04292 0.43283 0.23915 0.0
C1105 C 0.069 0.47424 0.18448 0.0
H1106 H 0.02266 0.42949 0.19674 0.0
C1107 C 0.08054 0.47636 0.2089 0.0
C1108 C 0.07144 0.46144 0.22896 0.0
H1109 H 0.07633 0.48593 0.16933 0.0
H1110 H 0.0967 0.48951 0.21201 0.0
C1111 C 0.05045 0.44457 0.22413 0.0
C1112 C 0.39979 0.71146 0.31042 0.0
C1113 C 0.38953 0.72777 0.29192 0.0
H1114 H 0.43135 0.70407 0.33607 0.0
C1115 C 0.40447 0.74873 0.28412 0.0
H1116 H 0.38873 0.69516 0.31686 0.0
C1117 C 0.42864 0.75384 0.29507 0.0
C1118 C 0.4387 0.7381 0.31413 0.0
H1119 H 0.39744 0.76133 0.26949 0.0
H1120 H 0.43935 0.77041 0.28869 0.0
C1121 C 0.42416 0.71659 0.32145 0.0
C1122 C 0.00202 0.32052 0.96154 0.0
C1123 C 0.01091 0.34612 0.96195 0.0
H1124 H 0.99579 0.28594 0.93926 0.0
C1125 C 0.02165 0.35616 0.93987 0.0
H1126 H 0.99369 0.31234 0.97836 0.0
C1127 C 0.02248 0.34127 0.91747 0.0
C1128 C 0.01296 0.31588 0.91679 0.0
H1129 H 0.0284 0.37591 0.93959 0.0
H1130 H 0.03017 0.34981 0.90052 0.0
C1131 C 0.00329 0.30544 0.93922 0.0
C1132 C 0.60712 0.72112 0.2951 0.0
C1133 C 0.62315 0.74267 0.29138 0.0
H1134 H 0.57197 0.70686 0.31059 0.0
C1135 C 0.61615 0.76651 0.30133 0.0
H1136 H 0.61214 0.70253 0.28757 0.0
C1137 C 0.59323 0.76904 0.31391 0.0
C1138 C 0.57693 0.7477 0.31729 0.0
H1139 H 0.62798 0.78348 0.29852 0.0
H1140 H 0.58808 0.78786 0.32073 0.0
C1141 C 0.58429 0.72356 0.30831 0.0
C1142 C 0.02075 0.15838 0.94024 0.0
C1143 C 0.01316 0.13305 0.93366 0.0
H1144 H 0.02407 0.19723 0.92846 0.0
C1145 C 0.00292 0.12782 0.9089 0.0
H1146 H 0.02908 0.16309 0.95897 0.0
C1147 C 0.00018 0.14745 0.89128 0.0
C1148 C 0.00763 0.17279 0.89797 0.0
H1149 H 0.99661 0.1086 0.90325 0.0
H1150 H 0.99207 0.14275 0.87246 0.0
C1151 C 0.01801 0.17798 0.92265 0.0
C1152 C 0.42532 0.30311 0.21567 0.0
C1153 C 0.40429 0.31922 0.21741 0.0
H1154 H 0.45363 0.28714 0.19159 0.0
C1155 C 0.39667 0.33282 0.19571 0.0
H1156 H 0.43161 0.29217 0.23192 0.0
C1157 C 0.4089 0.3295 0.17259 0.0
C1158 C 0.42941 0.31289 0.17067 0.0
H1159 H 0.38106 0.34596 0.19646 0.0
H1160 H 0.4022 0.33994 0.15616 0.0
C1161 C 0.43788 0.30011 0.19255 0.0
C1162 C 0.53528 0.37013 0.03658 0.0
C1163 C 0.52409 0.39419 0.03401 0.0
H1164 H 0.53289 0.33306 0.05351 0.0
C1165 C 0.50326 0.4001 0.04931 0.0
H1166 H 0.55125 0.36484 0.02506 0.0
C1167 C 0.49244 0.38172 0.06491 0.0
C1168 C 0.50266 0.35728 0.06626 0.0
H1169 H 0.49468 0.41869 0.04858 0.0
H1170 H 0.47559 0.38641 0.07545 0.0
C1171 C 0.52476 0.35188 0.05279 0.0
C1172 C 0.59747 0.23588 0.14811 0.0
C1173 C 0.60218 0.2489 0.17161 0.0
H1174 H 0.57282 0.23086 0.11494 0.0
C1175 C 0.58481 0.26724 0.17966 0.0
H1176 H 0.6106 0.22177 0.1413 0.0
C1177 C 0.56321 0.27242 0.16463 0.0
C1178 C 0.55848 0.25947 0.1411 0.0
H1179 H 0.58769 0.27734 0.19783 0.0
H1180 H 0.55021 0.28661 0.17151 0.0
C1181 C 0.57588 0.24117 0.13297 0.0
C1182 C 0.46228 0.18442 0.06015 0.0
C1183 C 0.44582 0.18202 0.03853 0.0
H1184 H 0.47889 0.20942 0.08939 0.0
C1185 C 0.4329 0.20358 0.03006 0.0
H1186 H 0.4726 0.1681 0.06693 0.0
C1187 C 0.43629 0.22708 0.04296 0.0
C1188 C 0.45295 0.22964 0.06444 0.0
H1189 H 0.41997 0.20219 0.01355 0.0
H1190 H 0.42599 0.24332 0.03593 0.0
C1191 C 0.46597 0.20807 0.07288 0.0
C1192 C 0.28076 0.40019 0.74527 0.0
C1193 C 0.28884 0.38624 0.72389 0.0
H1194 H 0.28583 0.43358 0.76912 0.0
C1195 C 0.30909 0.39629 0.7097 0.0
H1196 H 0.26549 0.39284 0.75685 0.0
C1197 C 0.32086 0.41991 0.71674 0.0
C1198 C 0.3128 0.43372 0.7383 0.0
H1199 H 0.31566 0.386 0.69306 0.0
H1200 H 0.33642 0.42719 0.70551 0.0
C1201 C 0.29258 0.42354 0.7524 0.0
C1202 C 0.29409 0.6046 0.7283 0.0
C1203 C 0.29002 0.61915 0.75068 0.0
H1204 H 0.30948 0.5702 0.71224 0.0
C1205 C 0.29892 0.61011 0.77426 0.0
H1206 H 0.28738 0.6112 0.70989 0.0
C1207 C 0.31095 0.58673 0.77564 0.0
C1208 C 0.31485 0.57195 0.75343 0.0
H1209 H 0.29583 0.62079 0.79183 0.0
H1210 H 0.31709 0.58009 0.79425 0.0
C1211 C 0.30678 0.58129 0.72962 0.0
C1212 C 0.84593 0.43589 0.47846 0.0
C1213 C 0.83737 0.45877 0.48928 0.0
H1214 H 0.83877 0.39593 0.47169 0.0
C1215 C 0.81393 0.45867 0.50173 0.0
H1216 H 0.86407 0.43541 0.469 0.0
C1217 C 0.79913 0.436 0.50298 0.0
C1218 C 0.80794 0.41303 0.49238 0.0
H1219 H 0.807 0.47613 0.51026 0.0
H1220 H 0.78106 0.43635 0.51256 0.0
C1221 C 0.83151 0.41326 0.48017 0.0
C1222 C 0.72212 0.93747 0.81085 0.0
C1223 C 0.72343 0.91829 0.82932 0.0
H1224 H 0.69824 0.96311 0.79016 0.0
C1225 C 0.70126 0.9119 0.84267 0.0
H1226 H 0.7387 0.94277 0.80003 0.0
C1227 C 0.67807 0.92304 0.83651 0.0
C1228 C 0.67657 0.94133 0.81733 0.0
H1229 H 0.70165 0.89783 0.85756 0.0
H1230 H 0.66119 0.91707 0.84658 0.0
C1231 C 0.69892 0.94905 0.80507 0.0
C1232 C 0.68663 0.55909 0.96916 0.0
C1233 C 0.67485 0.55546 0.94477 0.0
H1234 H 0.71939 0.57336 0.99094 0.0
C1235 C 0.68751 0.56499 0.92342 0.0
H1236 H 0.6778 0.55172 0.98606 0.0
C1237 C 0.71168 0.57677 0.92622 0.0
C1238 C 0.72357 0.57985 0.9505 0.0
H1239 H 0.67887 0.56325 0.90442 0.0
H1240 H 0.72113 0.58338 0.90932 0.0
C1241 C 0.71059 0.57139 0.972 0.0
C1242 C 0.15599 0.60289 0.2431 0.0
C1243 C 0.18001 0.60598 0.2556 0.0
H1244 H 0.12159 0.58006 0.23818 0.0
C1245 C 0.18732 0.58788 0.27372 0.0
H1246 H 0.14985 0.61633 0.22885 0.0
C1247 C 0.17121 0.56704 0.27895 0.0
C1248 C 0.14733 0.56377 0.26624 0.0
H1249 H 0.20549 0.58988 0.28402 0.0
H1250 H 0.17757 0.55343 0.29295 0.0
C1251 C 0.13983 0.58202 0.24836 0.0
C1252 C 0.87947 0.52371 0.98657 0.0
C1253 C 0.8889 0.52761 0.01178 0.0
H1254 H 0.85423 0.53591 0.95683 0.0
C1255 C 0.87879 0.54733 0.02681 0.0
H1256 H 0.88638 0.50835 0.97463 0.0
C1257 C 0.86 0.56307 0.01663 0.0
C1258 C 0.85104 0.55943 0.99121 0.0
H1259 H 0.88576 0.55094 0.04625 0.0
H1260 H 0.85281 0.5783 0.02855 0.0
C1261 C 0.86088 0.53946 0.97639 0.0
C1262 C 0.13778 0.93128 0.00878 0.0
C1263 C 0.13668 0.95282 0.02525 0.0
H1264 H 0.15973 0.89981 0.99565 0.0
C1265 C 0.15789 0.95891 0.04149 0.0
H1266 H 0.1217 0.92583 0.99624 0.0
C1267 C 0.17962 0.94392 0.04126 0.0
C1268 C 0.18075 0.92243 0.02478 0.0
H1269 H 0.15791 0.97555 0.05414 0.0
H1270 H 0.19561 0.94933 0.05394 0.0
C1271 C 0.15954 0.91625 0.00856 0.0
loop_
_geom_bond_atom_site_label_1
_geom_bond_atom_site_label_2
_geom_bond_distance
_geom_bond_site_symmetry_2
_ccdc_geom_bond_type
C0 C1 1.386 . S
C0 C2 1.397 . S
C0 H24 0.931 . S
C1 C0 1.386 . S
C1 C5 1.397 1_556 S
C2 C0 1.397 . S
C2 C3 1.384 1_556 S
C2 H25 0.930 . S
C3 C2 1.384 1_554 S
C3 C4 1.377 . S
C3 C6 1.481 . S
C4 C3 1.377 . S
C4 C5 1.389 . S
C4 H26 0.929 . S
C5 C1 1.397 1_554 S
C5 C4 1.389 . S
C5 H27 0.931 . S
C6 C3 1.481 . S
C6 C7 1.387 . S
C6 C11 1.390 . S
C7 C6 1.387 . S
C7 C8 1.401 . S
C7 H28 0.930 . S
C8 C7 1.401 . S
C8 C9 1.376 . S
C8 C17 1.511 . S
C9 C8 1.376 . S
C9 C10 1.392 . S
C9 H30 0.931 . S
C10 C9 1.392 . S
C10 C11 1.361 . S
C10 C12 1.500 . S
C11 C6 1.390 . S
C11 C10 1.361 . S
C11 H29 0.931 . S
C12 C10 1.500 . S
C12 C13 1.371 . S
C12 C14 1.365 1_455 S
C13 C12 1.371 . S
C13 C23 1.386 1_455 S
C13 H31 0.931 1_545 S
C14 C12 1.365 1_655 S
C14 C15 1.409 . S
C14 H32 0.929 1_655 S
C15 C14 1.409 . S
C15 C16 1.380 . S
C15 H33 0.930 . S
C16 C15 1.380 . S
C16 C23 1.357 . S
C17 C8 1.511 . S
C17 C18 1.341 . S
C17 C19 1.371 1_545 S
C18 C17 1.341 . S
C18 C22 1.394 1_545 S
C18 H34 0.930 1_554 S
C19 C17 1.371 1_565 S
C19 C20 1.392 . S
C19 H35 0.931 . S
C20 C19 1.392 . S
C20 C21 1.331 . S
C20 H38 0.932 . S
C21 C20 1.331 . S
C21 C22 1.336 . S
C22 C18 1.394 1_565 S
C22 C21 1.336 . S
C22 H37 0.929 1_554 S
C23 C13 1.386 1_655 S
C23 C16 1.357 . S
C23 H36 0.928 1_545 S
H24 C0 0.931 . S
H25 C2 0.930 . S
H26 C4 0.929 . S
H27 C5 0.931 . S
H28 C7 0.930 . S
H29 C11 0.931 . S
H30 C9 0.931 . S
H31 C13 0.931 1_565 S
H32 C14 0.929 1_455 S
H33 C15 0.930 . S
H34 C18 0.930 1_556 S
H35 C19 0.931 . S
H36 C23 0.928 1_565 S
H37 C22 0.929 1_556 S
H38 C20 0.932 . S
C39 C40 1.386 . S
C39 C41 1.397 . S
C39 H63 0.931 . S
C40 C39 1.386 . S
C40 C44 1.397 . S
C41 C39 1.397 . S
C41 C42 1.384 . S
C41 H64 0.930 . S
C42 C41 1.384 . S
C42 C43 1.377 . S
C42 C45 1.481 . S
C43 C42 1.377 . S
C43 C44 1.389 . S
C43 H65 0.929 . S
C44 C40 1.397 . S
C44 C43 1.389 . S
C44 H66 0.931 . S
C45 C42 1.481 . S
C45 C46 1.387 . S
C45 C50 1.390 . S
C46 C45 1.387 . S
C46 C47 1.401 . S
C46 H67 0.930 . S
C47 C46 1.401 . S
C47 C48 1.376 . S
C47 C56 1.511 . S
C48 C47 1.376 . S
C48 C49 1.392 . S
C48 H69 0.931 . S
C49 C48 1.392 . S
C49 C50 1.361 . S
C49 C51 1.500 . S
C50 C45 1.390 . S
C50 C49 1.361 . S
C50 H68 0.931 . S
C51 C49 1.500 . S
C51 C52 1.371 . S
C51 C53 1.365 . S
C52 C51 1.371 . S
C52 C62 1.386 . S
C52 H70 0.931 . S
C53 C51 1.365 . S
C53 C54 1.409 . S
C53 H71 0.929 . S
C54 C53 1.409 . S
C54 C55 1.380 . S
C54 H72 0.930 . S
C55 C54 1.380 . S
C55 C62 1.357 . S
C56 C47 1.511 . S
C56 C57 1.341 . S
C56 C58 1.371 . S
C57 C56 1.341 . S
C57 C61 1.394 . S
C57 H73 0.930 . S
C58 C56 1.371 . S
C58 C59 1.392 . S
C58 H74 0.931 . S
C59 C58 1.392 . S
C59 C60 1.331 . S
C59 H77 0.932 . S
C60 C59 1.331 . S
C60 C61 1.336 . S
C61 C57 1.394 . S
C61 C60 1.336 . S
C61 H76 0.929 . S
C62 C52 1.386 . S
C62 C55 1.357 . S
C62 H75 0.928 . S
H63 C39 0.931 . S
H64 C41 0.930 . S
H65 C43 0.929 . S
H66 C44 0.931 . S
H67 C46 0.930 . S
H68 C50 0.931 . S
H69 C48 0.931 . S
H70 C52 0.931 . S
H71 C53 0.929 . S
H72 C54 0.930 . S
H73 C57 0.930 . S
H74 C58 0.931 . S
H75 C62 0.928 . S
H76 C61 0.929 . S
H77 C59 0.932 . S
C78 C79 1.386 1_655 S
C78 C80 1.397 . S
C78 H102 0.931 . S
C79 C78 1.386 1_455 S
C79 C83 1.397 . S
C80 C78 1.397 . S
C80 C81 1.384 . S
C80 H103 0.930 . S
C81 C80 1.384 . S
C81 C82 1.377 1_655 S
C81 C84 1.481 . S
C82 C81 1.377 1_455 S
C82 C83 1.389 . S
C82 H104 0.929 . S
C83 C79 1.397 . S
C83 C82 1.389 . S
C83 H105 0.931 . S
C84 C81 1.481 . S
C84 C85 1.387 . S
C84 C89 1.390 . S
C85 C84 1.387 . S
C85 C86 1.401 . S
C85 H106 0.930 . S
C86 C85 1.401 . S
C86 C87 1.376 . S
C86 C95 1.511 . S
C87 C86 1.376 . S
C87 C88 1.392 . S
C87 H108 0.931 . S
C88 C87 1.392 . S
C88 C89 1.361 . S
C88 C90 1.500 . S
C89 C84 1.390 . S
C89 C88 1.361 . S
C89 H107 0.931 . S
C90 C88 1.500 . S
C90 C91 1.371 . S
C90 C92 1.365 . S
C91 C90 1.371 . S
C91 C101 1.386 1_554 S
C91 H109 0.931 . S
C92 C90 1.365 . S
C92 C93 1.416 . S
C92 H110 0.929 . S
C93 C92 1.416 . S
C93 C94 1.376 1_554 S
C93 H111 0.928 1_654 S
C94 C93 1.376 1_556 S
C94 C101 1.357 . S
C95 C86 1.511 . S
C95 C96 1.341 . S
C95 C97 1.371 . S
C96 C95 1.341 . S
C96 C100 1.394 . S
C96 H112 0.930 . S
C97 C95 1.371 . S
C97 C98 1.392 . S
C97 H113 0.931 . S
C98 C97 1.392 . S
C98 C99 1.331 . S
C98 H116 0.932 . S
C99 C98 1.331 . S
C99 C100 1.336 . S
C100 C96 1.394 . S
C100 C99 1.336 . S
C100 H115 0.929 . S
C101 C91 1.386 1_556 S
C101 C94 1.357 . S
C101 H114 0.928 . S
H102 C78 0.931 . S
H103 C80 0.930 . S
H104 C82 0.929 . S
H105 C83 0.931 . S
H106 C85 0.930 . S
H107 C89 0.931 . S
H108 C87 0.931 . S
H109 C91 0.931 . S
H110 C92 0.929 . S
H111 C93 0.928 1_456 S
H112 C96 0.930 . S
H113 C97 0.931 . S
H114 C101 0.928 . S
H115 C100 0.929 . S
H116 C98 0.932 . S
C117 C118 1.386 . S
C117 C119 1.397 . S
C117 H141 0.931 . S
C118 C117 1.386 . S
C118 C122 1.397 . S
C119 C117 1.397 . S
C119 C120 1.384 . S
C119 H142 0.930 . S
C120 C119 1.384 . S
C120 C121 1.377 . S
C120 C123 1.481 . S
C121 C120 1.377 . S
C121 C122 1.389 . S
C121 H143 0.929 . S
C122 C118 1.397 . S
C122 C121 1.389 . S
C122 H144 0.931 . S
C123 C120 1.481 . S
C123 C124 1.387 . S
C123 C128 1.390 . S
C124 C123 1.387 . S
C124 C125 1.401 . S
C124 H145 0.930 . S
C125 C124 1.401 . S
C125 C126 1.376 . S
C125 C134 1.511 . S
C126 C125 1.376 . S
C126 C127 1.392 . S
C126 H147 0.931 . S
C127 C126 1.392 . S
C127 C128 1.361 . S
C127 C129 1.500 . S
C128 C123 1.390 . S
C128 C127 1.361 . S
C128 H146 0.931 . S
C129 C127 1.500 . S
C129 C130 1.371 . S
C129 C131 1.365 . S
C130 C129 1.371 . S
C130 C140 1.386 . S
C130 H148 0.931 . S
C131 C129 1.365 . S
C131 C132 1.409 . S
C131 H149 0.929 . S
C132 C131 1.409 . S
C132 C133 1.380 . S
C132 H150 0.930 . S
C133 C132 1.380 . S
C133 C140 1.357 . S
C134 C125 1.511 . S
C134 C135 1.341 . S
C134 C136 1.371 . S
C135 C134 1.341 . S
C135 C139 1.394 . S
C135 H151 0.930 . S
C136 C134 1.371 . S
C136 C137 1.392 . S
C136 H152 0.931 . S
C137 C136 1.392 . S
C137 C138 1.331 . S
C137 H155 0.932 . S
C138 C137 1.331 . S
C138 C139 1.336 . S
C139 C135 1.394 . S
C139 C138 1.336 . S
C139 H154 0.929 . S
C140 C130 1.386 . S
C140 C133 1.357 . S
C140 H153 0.928 . S
H141 C117 0.931 . S
H142 C119 0.930 . S
H143 C121 0.929 . S
H144 C122 0.931 . S
H145 C124 0.930 . S
H146 C128 0.931 . S
H147 C126 0.931 . S
H148 C130 0.931 . S
H149 C131 0.929 . S
H150 C132 0.930 . S
H151 C135 0.930 . S
H152 C136 0.931 . S
H153 C140 0.928 . S
H154 C139 0.929 . S
H155 C137 0.932 . S
C156 C157 1.386 . S
C156 C158 1.397 . S
C156 H180 0.931 . S
C157 C156 1.386 . S
C157 C161 1.397 1_655 S
C158 C156 1.397 . S
C158 C159 1.384 1_655 S
C158 H181 0.930 . S
C159 C158 1.384 1_455 S
C159 C160 1.377 . S
C159 C162 1.481 . S
C160 C159 1.377 . S
C160 C161 1.389 . S
C160 H182 0.929 . S
C161 C157 1.397 1_455 S
C161 C160 1.389 . S
C161 H183 0.931 . S
C162 C159 1.481 . S
C162 C163 1.387 . S
C162 C167 1.390 . S
C163 C162 1.387 . S
C163 C164 1.401 . S
C163 H184 0.930 . S
C164 C163 1.401 . S
C164 C165 1.376 . S
C164 C173 1.511 . S
C165 C164 1.376 . S
C165 C166 1.392 . S
C165 H186 0.931 . S
C166 C165 1.392 . S
C166 C167 1.361 . S
C166 C168 1.500 . S
C167 C162 1.390 . S
C167 C166 1.361 . S
C167 H185 0.931 . S
C168 C166 1.500 . S
C168 C169 1.371 . S
C168 C170 1.365 . S
C169 C168 1.371 . S
C169 C179 1.386 1_565 S
C169 H187 0.931 . S
C170 C168 1.365 . S
C170 C171 1.409 1_565 S
C170 H188 0.929 . S
C171 C170 1.409 1_545 S
C171 C172 1.380 . S
C171 H189 0.930 . S
C172 C171 1.380 . S
C172 C179 1.357 . S
C173 C164 1.511 . S
C173 C174 1.341 . S
C173 C175 1.371 . S
C174 C173 1.341 . S
C174 C178 1.394 . S
C174 H190 0.930 . S
C175 C173 1.371 . S
C175 C176 1.392 . S
C175 H191 0.931 . S
C176 C175 1.392 . S
C176 C177 1.331 . S
C176 H194 0.932 . S
C177 C176 1.331 . S
C177 C178 1.336 . S
C178 C174 1.394 . S
C178 C177 1.336 . S
C178 H193 0.929 . S
C179 C169 1.386 1_545 S
C179 C172 1.357 . S
C179 H192 0.928 . S
H180 C156 0.931 . S
H181 C158 0.930 . S
H182 C160 0.929 . S
H183 C161 0.931 . S
H184 C163 0.930 . S
H185 C167 0.931 . S
H186 C165 0.931 . S
H187 C169 0.931 . S
H188 C170 0.929 . S
H189 C171 0.930 . S
H190 C174 0.930 . S
H191 C175 0.931 . S
H192 C179 0.928 . S
H193 C178 0.929 . S
H194 C176 0.932 . S
C195 C196 1.386 . S
C195 C197 1.397 . S
C195 H219 0.931 . S
C196 C195 1.386 . S
C196 C200 1.397 . S
C197 C195 1.397 . S
C197 C198 1.384 . S
C197 H220 0.930 . S
C198 C197 1.384 . S
C198 C199 1.377 . S
C198 C201 1.481 . S
C199 C198 1.377 . S
C199 C200 1.389 . S
C199 H221 0.929 . S
C200 C196 1.397 . S
C200 C199 1.389 . S
C200 H222 0.931 . S
C201 C198 1.481 . S
C201 C202 1.387 . S
C201 C206 1.390 . S
C202 C201 1.387 . S
C202 C203 1.401 . S
C202 H223 0.930 . S
C203 C202 1.401 . S
C203 C204 1.376 . S
C203 C212 1.511 . S
C204 C203 1.376 . S
C204 C205 1.392 . S
C204 H225 0.931 . S
C205 C204 1.392 . S
C205 C206 1.361 . S
C205 C207 1.500 . S
C206 C201 1.390 . S
C206 C205 1.361 . S
C206 H224 0.931 . S
C207 C205 1.500 . S
C207 C208 1.371 . S
C207 C209 1.365 . S
C208 C207 1.371 . S
C208 C218 1.386 . S
C208 H226 0.931 . S
C209 C207 1.365 . S
C209 C210 1.409 . S
C209 H227 0.929 . S
C210 C209 1.409 . S
C210 C211 1.380 . S
C210 H228 0.930 . S
C211 C210 1.380 . S
C211 C218 1.357 . S
C212 C203 1.511 . S
C212 C213 1.341 . S
C212 C214 1.371 . S
C213 C212 1.341 . S
C213 C217 1.394 . S
C213 H229 0.930 . S
C214 C212 1.371 . S
C214 C215 1.392 . S
C214 H230 0.931 . S
C215 C214 1.392 . S
C215 C216 1.331 . S
C215 H233 0.932 . S
C216 C215 1.331 . S
C216 C217 1.336 . S
C217 C213 1.394 . S
C217 C216 1.336 . S
C217 H232 0.929 . S
C218 C208 1.386 . S
C218 C211 1.357 . S
C218 H231 0.928 . S
H219 C195 0.931 . S
H220 C197 0.930 . S
H221 C199 0.929 . S
H222 C200 0.931 . S
H223 C202 0.930 . S
H224 C206 0.931 . S
H225 C204 0.931 . S
H226 C208 0.931 . S
H227 C209 0.929 . S
H228 C210 0.930 . S
H229 C213 0.930 . S
H230 C214 0.931 . S
H231 C218 0.928 . S
H232 C217 0.929 . S
H233 C215 0.932 . S
C234 C235 1.386 . S
C234 C236 1.397 . S
C234 H258 0.931 . S
C235 C234 1.386 . S
C235 C239 1.397 . S
C236 C234 1.397 . S
C236 C237 1.384 . S
C236 H259 0.930 . S
C237 C236 1.384 . S
C237 C238 1.377 . S
C237 C240 1.481 . S
C238 C237 1.377 . S
C238 C239 1.389 . S
C238 H260 0.929 . S
C239 C235 1.397 . S
C239 C238 1.389 . S
C239 H261 0.931 . S
C240 C237 1.481 . S
C240 C241 1.387 . S
C240 C245 1.390 . S
C241 C240 1.387 . S
C241 C242 1.401 . S
C241 H262 0.930 . S
C242 C241 1.401 . S
C242 C243 1.376 . S
C242 C251 1.511 . S
C243 C242 1.376 . S
C243 C244 1.392 . S
C243 H264 0.931 . S
C244 C243 1.392 . S
C244 C245 1.361 . S
C244 C246 1.500 . S
C245 C240 1.390 . S
C245 C244 1.361 . S
C245 H263 0.931 . S
C246 C244 1.500 . S
C246 C247 1.371 . S
C246 C248 1.365 . S
C247 C246 1.371 . S
C247 C257 1.386 . S
C247 H265 0.931 . S
C248 C246 1.365 . S
C248 C249 1.409 . S
C248 H266 0.929 . S
C249 C248 1.409 . S
C249 C250 1.380 . S
C249 H267 0.930 . S
C250 C249 1.380 . S
C250 C257 1.357 . S
C251 C242 1.511 . S
C251 C252 1.341 1_655 S
C251 C253 1.371 . S
C252 C251 1.341 1_455 S
C252 C256 1.394 . S
C252 H268 0.930 . S
C253 C251 1.371 . S
C253 C254 1.392 1_655 S
C253 H269 0.931 . S
C254 C253 1.392 1_455 S
C254 C255 1.331 . S
C254 H272 0.932 . S
C255 C254 1.331 . S
C255 C256 1.336 . S
C256 C252 1.394 . S
C256 C255 1.336 . S
C256 H271 0.929 . S
C257 C247 1.386 . S
C257 C250 1.357 . S
C257 H270 0.928 . S
H258 C234 0.931 . S
H259 C236 0.930 . S
H260 C238 0.929 . S
H261 C239 0.931 . S
H262 C241 0.930 . S
H263 C245 0.931 . S
H264 C243 0.931 . S
H265 C247 0.931 . S
H266 C248 0.929 . S
H267 C249 0.930 . S
H268 C252 0.930 . S
H269 C253 0.931 . S
H270 C257 0.928 . S
H271 C256 0.929 . S
H272 C254 0.932 . S
C273 C274 1.386 . S
C273 C275 1.397 . S
C273 H297 0.931 . S
C274 C273 1.386 . S
C274 C278 1.397 . S
C275 C273 1.397 . S
C275 C276 1.384 . S
C275 H298 0.930 . S
C276 C275 1.384 . S
C276 C277 1.377 . S
C276 C279 1.481 . S
C277 C276 1.377 . S
C277 C278 1.389 . S
C277 H299 0.929 . S
C278 C274 1.397 . S
C278 C277 1.389 . S
C278 H300 0.931 . S
C279 C276 1.481 . S
C279 C280 1.387 . S
C279 C284 1.390 . S
C280 C279 1.387 . S
C280 C281 1.401 . S
C280 H301 0.930 . S
C281 C280 1.401 . S
C281 C282 1.376 . S
C281 C290 1.511 . S
C282 C281 1.376 . S
C282 C283 1.392 . S
C282 H303 0.931 . S
C283 C282 1.392 . S
C283 C284 1.361 . S
C283 C285 1.500 . S
C284 C279 1.390 . S
C284 C283 1.361 . S
C284 H302 0.931 . S
C285 C283 1.500 . S
C285 C286 1.371 . S
C285 C287 1.365 . S
C286 C285 1.371 . S
C286 C296 1.386 . S
C286 H304 0.931 . S
C287 C285 1.365 . S
C287 C288 1.409 . S
C287 H305 0.929 . S
C288 C287 1.409 . S
C288 C289 1.380 . S
C288 H306 0.930 . S
C289 C288 1.380 . S
C289 C296 1.357 . S
C290 C281 1.511 . S
C290 C291 1.341 . S
C290 C292 1.371 . S
C291 C290 1.341 . S
C291 C295 1.394 . S
C291 H307 0.930 . S
C292 C290 1.371 . S
C292 C293 1.392 . S
C292 H308 0.931 . S
C293 C292 1.392 . S
C293 C294 1.331 . S
C293 H311 0.932 . S
C294 C293 1.331 . S
C294 C295 1.336 . S
C295 C291 1.394 . S
C295 C294 1.336 . S
C295 H310 0.929 . S
C296 C286 1.386 . S
C296 C289 1.357 . S
C296 H309 0.928 . S
H297 C273 0.931 . S
H298 C275 0.930 . S
H299 C277 0.929 . S
H300 C278 0.931 . S
H301 C280 0.930 . S
H302 C284 0.931 . S
H303 C282 0.931 . S
H304 C286 0.931 . S
H305 C287 0.929 . S
H306 C288 0.930 . S
H307 C291 0.930 . S
H308 C292 0.931 . S
H309 C296 0.928 . S
H310 C295 0.929 . S
H311 C293 0.932 . S
C312 C313 1.386 . S
C312 C314 1.397 . S
C312 H336 0.931 . S
C313 C312 1.386 . S
C313 C317 1.397 . S
C314 C312 1.397 . S
C314 C315 1.384 . S
C314 H337 0.930 . S
C315 C314 1.384 . S
C315 C316 1.377 . S
C315 C318 1.481 . S
C316 C315 1.377 . S
C316 C317 1.389 . S
C316 H338 0.929 . S
C317 C313 1.397 . S
C317 C316 1.389 . S
C317 H339 0.931 . S
C318 C315 1.481 . S
C318 C319 1.387 . S
C318 C323 1.390 . S
C319 C318 1.387 . S
C319 C320 1.401 . S
C319 H340 0.930 . S
C320 C319 1.401 . S
C320 C321 1.376 . S
C320 C329 1.511 . S
C321 C320 1.376 . S
C321 C322 1.392 . S
C321 H342 0.931 . S
C322 C321 1.392 . S
C322 C323 1.361 . S
C322 C324 1.500 . S
C323 C318 1.390 . S
C323 C322 1.361 . S
C323 H341 0.931 . S
C324 C322 1.500 . S
C324 C325 1.371 . S
C324 C326 1.365 . S
C325 C324 1.371 . S
C325 C335 1.386 . S
C325 H343 0.931 . S
C326 C324 1.365 . S
C326 C327 1.409 . S
C326 H344 0.929 . S
C327 C326 1.409 . S
C327 C328 1.380 . S
C327 H345 0.930 . S
C328 C327 1.380 . S
C328 C335 1.357 . S
C329 C320 1.511 . S
C329 C330 1.341 . S
C329 C331 1.371 . S
C330 C329 1.341 . S
C330 C334 1.394 . S
C330 H346 0.930 . S
C331 C329 1.371 . S
C331 C332 1.392 . S
C331 H347 0.931 . S
C332 C331 1.392 . S
C332 C333 1.331 . S
C332 H350 0.932 . S
C333 C332 1.331 . S
C333 C334 1.336 . S
C334 C330 1.394 . S
C334 C333 1.336 . S
C334 H349 0.929 . S
C335 C325 1.386 . S
C335 C328 1.357 . S
C335 H348 0.928 . S
H336 C312 0.931 . S
H337 C314 0.930 . S
H338 C316 0.929 . S
H339 C317 0.931 . S
H340 C319 0.930 . S
H341 C323 0.931 . S
H342 C321 0.931 . S
H343 C325 0.931 . S
H344 C326 0.929 . S
H345 C327 0.930 . S
H346 C330 0.930 . S
H347 C331 0.931 . S
H348 C335 0.928 . S
H349 C334 0.929 . S
H350 C332 0.932 . S
C351 C352 1.386 . S
C351 C353 1.397 . S
C351 H375 0.931 . S
C352 C351 1.386 . S
C352 C356 1.397 . S
C353 C351 1.397 . S
C353 C354 1.384 . S
C353 H376 0.930 . S
C354 C353 1.384 . S
C354 C355 1.377 . S
C354 C357 1.481 . S
C355 C354 1.377 . S
C355 C356 1.389 . S
C355 H377 0.929 . S
C356 C352 1.397 . S
C356 C355 1.389 . S
C356 H378 0.931 . S
C357 C354 1.481 . S
C357 C358 1.387 . S
C357 C362 1.390 . S
C358 C357 1.387 . S
C358 C359 1.401 . S
C358 H379 0.930 . S
C359 C358 1.401 . S
C359 C360 1.376 . S
C359 C368 1.511 . S
C360 C359 1.376 . S
C360 C361 1.392 . S
C360 H381 0.931 . S
C361 C360 1.392 . S
C361 C362 1.361 . S
C361 C363 1.500 . S
C362 C357 1.390 . S
C362 C361 1.361 . S
C362 H380 0.931 . S
C363 C361 1.500 . S
C363 C364 1.371 . S
C363 C365 1.365 . S
C364 C363 1.371 . S
C364 C374 1.386 . S
C364 H382 0.931 . S
C365 C363 1.365 . S
C365 C366 1.409 . S
C365 H383 0.929 . S
C366 C365 1.409 . S
C366 C367 1.380 . S
C366 H384 0.930 . S
C367 C366 1.380 . S
C367 C374 1.357 . S
C368 C359 1.511 . S
C368 C369 1.341 1_565 S
C368 C370 1.371 . S
C369 C368 1.341 1_545 S
C369 C373 1.394 . S
C369 H385 0.930 . S
C370 C368 1.371 . S
C370 C371 1.392 1_565 S
C370 H386 0.931 . S
C371 C370 1.392 1_545 S
C371 C372 1.331 . S
C371 H389 0.932 . S
C372 C371 1.331 . S
C372 C373 1.336 . S
C373 C369 1.394 . S
C373 C372 1.336 . S
C373 H388 0.929 . S
C374 C364 1.386 . S
C374 C367 1.357 . S
C374 H387 0.928 . S
H375 C351 0.931 . S
H376 C353 0.930 . S
H377 C355 0.929 . S
H378 C356 0.931 . S
H379 C358 0.930 . S
H380 C362 0.931 . S
H381 C360 0.931 . S
H382 C364 0.931 . S
H383 C365 0.929 . S
H384 C366 0.930 . S
H385 C369 0.930 . S
H386 C370 0.931 . S
H387 C374 0.928 . S
H388 C373 0.929 . S
H389 C371 0.932 . S
C390 C391 1.386 . S
C390 C392 1.397 . S
C390 H414 0.931 . S
C391 C390 1.386 . S
C391 C395 1.397 . S
C392 C390 1.397 . S
C392 C393 1.384 . S
C392 H415 0.930 . S
C393 C392 1.384 . S
C393 C394 1.377 . S
C393 C396 1.481 . S
C394 C393 1.377 . S
C394 C395 1.389 . S
C394 H416 0.929 . S
C395 C391 1.397 . S
C395 C394 1.389 . S
C395 H417 0.931 . S
C396 C393 1.481 . S
C396 C397 1.387 . S
C396 C401 1.390 . S
C397 C396 1.387 . S
C397 C398 1.401 . S
C397 H418 0.930 . S
C398 C397 1.401 . S
C398 C399 1.376 . S
C398 C407 1.511 . S
C399 C398 1.376 . S
C399 C400 1.392 . S
C399 H420 0.931 . S
C400 C399 1.392 . S
C400 C401 1.361 . S
C400 C402 1.500 . S
C401 C396 1.390 . S
C401 C400 1.361 . S
C401 H419 0.931 . S
C402 C400 1.500 . S
C402 C403 1.371 . S
C402 C404 1.365 . S
C403 C402 1.371 . S
C403 C413 1.386 . S
C403 H421 0.931 . S
C404 C402 1.365 . S
C404 C405 1.409 . S
C404 H422 0.929 . S
C405 C404 1.409 . S
C405 C406 1.380 . S
C405 H423 0.930 . S
C406 C405 1.380 . S
C406 C413 1.357 . S
C407 C398 1.511 . S
C407 C408 1.341 . S
C407 C409 1.371 . S
C408 C407 1.341 . S
C408 C412 1.394 . S
C408 H424 0.930 . S
C409 C407 1.371 . S
C409 C410 1.392 . S
C409 H425 0.931 . S
C410 C409 1.392 . S
C410 C411 1.331 . S
C410 H428 0.932 . S
C411 C410 1.331 . S
C411 C412 1.336 . S
C412 C408 1.394 . S
C412 C411 1.336 . S
C412 H427 0.929 . S
C413 C403 1.386 . S
C413 C406 1.357 . S
C413 H426 0.928 . S
H414 C390 0.931 . S
H415 C392 0.930 . S
H416 C394 0.929 . S
H417 C395 0.931 . S
H418 C397 0.930 . S
H419 C401 0.931 . S
H420 C399 0.931 . S
H421 C403 0.931 . S
H422 C404 0.929 . S
H423 C405 0.930 . S
H424 C408 0.930 . S
H425 C409 0.931 . S
H426 C413 0.928 . S
H427 C412 0.929 . S
H428 C410 0.932 . S
C429 C430 1.386 . S
C429 C431 1.397 . S
C429 H453 0.931 . S
C430 C429 1.386 . S
C430 C434 1.397 . S
C431 C429 1.397 . S
C431 C432 1.384 . S
C431 H454 0.930 . S
C432 C431 1.384 . S
C432 C433 1.377 . S
C432 C435 1.481 . S
C433 C432 1.377 . S
C433 C434 1.389 . S
C433 H455 0.929 . S
C434 C430 1.397 . S
C434 C433 1.389 . S
C434 H456 0.931 . S
C435 C432 1.481 . S
C435 C436 1.387 . S
C435 C440 1.390 . S
C436 C435 1.387 . S
C436 C437 1.401 . S
C436 H457 0.930 . S
C437 C436 1.401 . S
C437 C438 1.376 . S
C437 C446 1.511 . S
C438 C437 1.376 . S
C438 C439 1.392 . S
C438 H459 0.931 . S
C439 C438 1.392 . S
C439 C440 1.361 . S
C439 C441 1.500 . S
C440 C435 1.390 . S
C440 C439 1.361 . S
C440 H458 0.931 . S
C441 C439 1.500 . S
C441 C442 1.371 . S
C441 C443 1.365 . S
C442 C441 1.371 . S
C442 C452 1.386 . S
C442 H460 0.931 . S
C443 C441 1.365 . S
C443 C444 1.409 . S
C443 H461 0.929 . S
C444 C443 1.409 . S
C444 C445 1.380 . S
C444 H462 0.930 . S
C445 C444 1.380 . S
C445 C452 1.357 . S
C446 C437 1.511 . S
C446 C447 1.341 . S
C446 C448 1.371 . S
C447 C446 1.341 . S
C447 C451 1.394 . S
C447 H463 0.930 . S
C448 C446 1.371 . S
C448 C449 1.392 . S
C448 H464 0.931 . S
C449 C448 1.392 . S
C449 C450 1.331 . S
C449 H467 0.932 . S
C450 C449 1.331 . S
C450 C451 1.336 . S
C451 C447 1.394 . S
C451 C450 1.336 . S
C451 H466 0.929 . S
C452 C442 1.386 . S
C452 C445 1.357 . S
C452 H465 0.928 . S
H453 C429 0.931 . S
H454 C431 0.930 . S
H455 C433 0.929 . S
H456 C434 0.931 . S
H457 C436 0.930 . S
H458 C440 0.931 . S
H459 C438 0.931 . S
H460 C442 0.931 . S
H461 C443 0.929 . S
H462 C444 0.930 . S
H463 C447 0.930 . S
H464 C448 0.931 . S
H465 C452 0.928 . S
H466 C451 0.929 . S
H467 C449 0.932 . S
C468 C469 1.386 . S
C468 C470 1.397 . S
C468 H492 0.931 . S
C469 C468 1.386 . S
C469 C473 1.397 . S
C470 C468 1.397 . S
C470 C471 1.384 . S
C470 H493 0.930 . S
C471 C470 1.384 . S
C471 C472 1.377 . S
C471 C474 1.481 . S
C472 C471 1.377 . S
C472 C473 1.389 . S
C472 H494 0.929 . S
C473 C469 1.397 . S
C473 C472 1.389 . S
C473 H495 0.931 . S
C474 C471 1.481 . S
C474 C475 1.387 . S
C474 C479 1.390 . S
C475 C474 1.387 . S
C475 C476 1.401 . S
C475 H496 0.930 . S
C476 C475 1.401 . S
C476 C477 1.376 . S
C476 C485 1.511 . S
C477 C476 1.376 . S
C477 C478 1.392 . S
C477 H498 0.931 . S
C478 C477 1.392 . S
C478 C479 1.361 . S
C478 C480 1.500 . S
C479 C474 1.390 . S
C479 C478 1.361 . S
C479 H497 0.931 . S
C480 C478 1.500 . S
C480 C481 1.371 . S
C480 C482 1.365 . S
C481 C480 1.371 . S
C481 C491 1.386 . S
C481 H499 0.931 . S
C482 C480 1.365 . S
C482 C483 1.409 . S
C482 H500 0.929 . S
C483 C482 1.409 . S
C483 C484 1.380 . S
C483 H501 0.930 . S
C484 C483 1.380 . S
C484 C491 1.357 . S
C485 C476 1.511 . S
C485 C486 1.341 . S
C485 C487 1.371 . S
C486 C485 1.341 . S
C486 C490 1.394 . S
C486 H502 0.930 . S
C487 C485 1.371 . S
C487 C488 1.392 . S
C487 H503 0.931 . S
C488 C487 1.392 . S
C488 C489 1.331 . S
C488 H506 0.932 . S
C489 C488 1.331 . S
C489 C490 1.336 . S
C490 C486 1.394 . S
C490 C489 1.336 . S
C490 H505 0.929 . S
C491 C481 1.386 . S
C491 C484 1.357 . S
C491 H504 0.928 . S
H492 C468 0.931 . S
H493 C470 0.930 . S
H494 C472 0.929 . S
H495 C473 0.931 . S
H496 C475 0.930 . S
H497 C479 0.931 . S
H498 C477 0.931 . S
H499 C481 0.931 . S
H500 C482 0.929 . S
H501 C483 0.930 . S
H502 C486 0.930 . S
H503 C487 0.931 . S
H504 C491 0.928 . S
H505 C490 0.929 . S
H506 C488 0.932 . S
C507 C508 1.386 . S
C507 C509 1.397 . S
C507 H531 0.931 . S
C508 C507 1.386 . S
C508 C512 1.397 . S
C509 C507 1.397 . S
C509 C510 1.384 . S
C509 H532 0.930 . S
C510 C509 1.384 . S
C510 C511 1.377 . S
C510 C513 1.481 . S
C511 C510 1.377 . S
C511 C512 1.389 . S
C511 H533 0.929 . S
C512 C508 1.397 . S
C512 C511 1.389 . S
C512 H534 0.931 . S
C513 C510 1.481 . S
C513 C514 1.387 . S
C513 C518 1.390 . S
C514 C513 1.387 . S
C514 C515 1.401 . S
C514 H535 0.930 . S
C515 C514 1.401 . S
C515 C516 1.376 . S
C515 C524 1.511 . S
C516 C515 1.376 . S
C516 C517 1.392 . S
C516 H537 0.931 . S
C517 C516 1.392 . S
C517 C518 1.361 . S
C517 C519 1.500 . S
C518 C513 1.390 . S
C518 C517 1.361 . S
C518 H536 0.931 . S
C519 C517 1.500 . S
C519 C520 1.371 . S
C519 C521 1.365 . S
C520 C519 1.371 . S
C520 C530 1.386 . S
C520 H538 0.931 1_556 S
C521 C519 1.365 . S
C521 C522 1.409 . S
C521 H539 0.929 . S
C522 C521 1.409 . S
C522 C523 1.380 . S
C522 H540 0.930 . S
C523 C522 1.380 . S
C523 C530 1.357 . S
C524 C515 1.511 . S
C524 C525 1.341 . S
C524 C526 1.371 1_556 S
C525 C524 1.341 . S
C525 C529 1.394 1_556 S
C525 H541 0.930 . S
C526 C524 1.371 1_554 S
C526 C527 1.392 . S
C526 H542 0.931 . S
C527 C526 1.392 . S
C527 C528 1.331 . S
C527 H545 0.932 . S
C528 C527 1.331 . S
C528 C529 1.336 . S
C529 C525 1.394 1_554 S
C529 C528 1.336 . S
C529 H544 0.929 . S
C530 C520 1.386 . S
C530 C523 1.357 . S
C530 H543 0.928 1_556 S
H531 C507 0.931 . S
H532 C509 0.930 . S
H533 C511 0.929 . S
H534 C512 0.931 . S
H535 C514 0.930 . S
H536 C518 0.931 . S
H537 C516 0.931 . S
H538 C520 0.931 1_554 S
H539 C521 0.929 . S
H540 C522 0.930 . S
H541 C525 0.930 . S
H542 C526 0.931 . S
H543 C530 0.928 1_554 S
H544 C529 0.929 . S
H545 C527 0.932 . S
C546 C547 1.386 . S
C546 C548 1.397 . S
C546 H570 0.931 . S
C547 C546 1.386 . S
C547 C551 1.397 . S
C548 C546 1.397 . S
C548 C549 1.384 . S
C548 H571 0.930 . S
C549 C548 1.384 . S
C549 C550 1.377 . S
C549 C552 1.481 . S
C550 C549 1.377 . S
C550 C551 1.389 . S
C550 H572 0.929 . S
C551 C547 1.397 . S
C551 C550 1.389 . S
C551 H573 0.931 . S
C552 C549 1.481 . S
C552 C553 1.387 . S
C552 C557 1.390 . S
C553 C552 1.387 . S
C553 C554 1.401 . S
C553 H574 0.930 . S
C554 C553 1.401 . S
C554 C555 1.376 . S
C554 C563 1.511 . S
C555 C554 1.376 . S
C555 C556 1.392 . S
C555 H576 0.931 . S
C556 C555 1.392 . S
C556 C557 1.361 . S
C556 C558 1.500 . S
C557 C552 1.390 . S
C557 C556 1.361 . S
C557 H575 0.931 . S
C558 C556 1.500 . S
C558 C559 1.371 . S
C558 C560 1.365 . S
C559 C558 1.371 . S
C559 C569 1.386 . S
C559 H577 0.931 . S
C560 C558 1.365 . S
C560 C561 1.409 . S
C560 H578 0.929 . S
C561 C560 1.409 . S
C561 C562 1.380 . S
C561 H579 0.930 . S
C562 C561 1.380 . S
C562 C569 1.357 . S
C563 C554 1.511 . S
C563 C564 1.341 . S
C563 C565 1.371 . S
C564 C563 1.341 . S
C564 C568 1.394 . S
C564 H580 0.930 . S
C565 C563 1.371 . S
C565 C566 1.392 . S
C565 H581 0.931 . S
C566 C565 1.392 . S
C566 C567 1.331 . S
C566 H584 0.932 . S
C567 C566 1.331 . S
C567 C568 1.336 . S
C568 C564 1.394 . S
C568 C567 1.336 . S
C568 H583 0.929 . S
C569 C559 1.386 . S
C569 C562 1.357 . S
C569 H582 0.928 . S
H570 C546 0.931 . S
H571 C548 0.930 . S
H572 C550 0.929 . S
H573 C551 0.931 . S
H574 C553 0.930 . S
H575 C557 0.931 . S
H576 C555 0.931 . S
H577 C559 0.931 . S
H578 C560 0.929 . S
H579 C561 0.930 . S
H580 C564 0.930 . S
H581 C565 0.931 . S
H582 C569 0.928 . S
H583 C568 0.929 . S
H584 C566 0.932 . S
C585 C586 1.386 1_556 S
C585 C587 1.397 . S
C585 H609 0.931 . S
C586 C585 1.386 1_554 S
C586 C590 1.397 . S
C587 C585 1.397 . S
C587 C588 1.384 . S
C587 H610 0.930 . S
C588 C587 1.384 . S
C588 C589 1.377 1_556 S
C588 C591 1.481 . S
C589 C588 1.377 1_554 S
C589 C590 1.389 . S
C589 H611 0.929 . S
C590 C586 1.397 . S
C590 C589 1.389 . S
C590 H612 0.931 . S
C591 C588 1.481 . S
C591 C592 1.387 . S
C591 C596 1.390 . S
C592 C591 1.387 . S
C592 C593 1.401 . S
C592 H613 0.930 . S
C593 C592 1.401 . S
C593 C594 1.376 . S
C593 C602 1.511 . S
C594 C593 1.376 . S
C594 C595 1.392 . S
C594 H615 0.931 . S
C595 C594 1.392 . S
C595 C596 1.361 . S
C595 C597 1.500 . S
C596 C591 1.390 . S
C596 C595 1.361 . S
C596 H614 0.931 . S
C597 C595 1.500 . S
C597 C598 1.371 . S
C597 C599 1.365 . S
C598 C597 1.371 . S
C598 C608 1.386 1_545 S
C598 H616 0.931 . S
C599 C597 1.365 . S
C599 C600 1.395 1_545 S
C599 H617 0.929 . S
C600 C599 1.395 1_565 S
C600 C601 1.392 . S
C600 H618 0.933 1_556 S
C601 C600 1.392 . S
C601 C608 1.357 . S
C602 C593 1.511 . S
C602 C603 1.341 . S
C602 C604 1.371 . S
C603 C602 1.341 . S
C603 C607 1.394 . S
C603 H619 0.930 . S
C604 C602 1.371 . S
C604 C605 1.392 . S
C604 H620 0.931 . S
C605 C604 1.392 . S
C605 C606 1.331 . S
C605 H623 0.932 . S
C606 C605 1.331 . S
C606 C607 1.336 . S
C607 C603 1.394 . S
C607 C606 1.336 . S
C607 H622 0.929 . S
C608 C598 1.386 1_565 S
C608 C601 1.357 . S
C608 H621 0.928 . S
H609 C585 0.931 . S
H610 C587 0.930 . S
H611 C589 0.929 . S
H612 C590 0.931 . S
H613 C592 0.930 . S
H614 C596 0.931 . S
H615 C594 0.931 . S
H616 C598 0.931 . S
H617 C599 0.929 . S
H618 C600 0.933 1_554 S
H619 C603 0.930 . S
H620 C604 0.931 . S
H621 C608 0.928 . S
H622 C607 0.929 . S
H623 C605 0.932 . S
Zn624 O627 2.031 1_556 S
Zn624 O629 2.050 . S
Zn624 O634 2.068 . S
Zn625 O626 1.962 . S
Zn625 O628 1.986 . S
Zn625 O630 1.996 . S
Zn625 O633 1.943 1_554 S
O626 Zn625 1.962 . S
O626 C631 1.254 . S
O627 Zn624 2.031 1_554 S
O627 C631 1.269 . S
O628 Zn625 1.986 . S
O628 C635 1.262 . S
O629 Zn624 2.050 . S
O629 C637 1.260 . S
O630 Zn625 1.996 . S
O630 C637 1.257 1_554 S
C631 O626 1.254 . S
C631 O627 1.269 . S
C632 O633 1.249 . S
C632 O634 1.270 . S
O633 Zn625 1.943 1_556 S
O633 C632 1.249 . S
O634 Zn624 2.068 . S
O634 C632 1.270 . S
C635 O628 1.262 . S
C635 O636 1.232 . S
O636 C635 1.232 . S
C637 O629 1.260 . S
C637 O630 1.257 1_556 S
Zn638 O641 2.031 . S
Zn638 O643 2.049 . S
Zn638 O648 2.067 . S
Zn639 O640 1.962 . S
Zn639 O642 1.986 . S
Zn639 O644 1.996 . S
Zn639 O647 1.943 . S
O640 Zn639 1.962 . S
O640 C645 1.254 . S
O641 Zn638 2.031 . S
O641 C645 1.269 . S
O642 Zn639 1.986 . S
O642 C649 1.262 . S
O643 Zn638 2.049 . S
O643 C651 1.260 . S
O644 Zn639 1.996 . S
O644 C651 1.257 . S
C645 O640 1.254 . S
C645 O641 1.269 . S
C646 O647 1.249 . S
C646 O648 1.270 . S
O647 Zn639 1.943 . S
O647 C646 1.249 . S
O648 Zn638 2.067 . S
O648 C646 1.270 . S
C649 O642 1.262 . S
C649 O650 1.232 . S
O650 C649 1.232 . S
C651 O643 1.260 . S
C651 O644 1.257 . S
Zn652 O655 2.031 . S
Zn652 O657 2.049 . S
Zn652 O662 2.067 . S
Zn653 O654 1.962 . S
Zn653 O656 1.986 . S
Zn653 O658 1.996 1_554 S
Zn653 O661 1.943 . S
O654 Zn653 1.962 . S
O654 C659 1.254 . S
O655 Zn652 2.031 . S
O655 C659 1.269 1_556 S
O656 Zn653 1.986 . S
O656 C663 1.262 . S
O657 Zn652 2.049 . S
O657 C665 1.260 . S
O658 Zn653 1.996 1_556 S
O658 C665 1.257 . S
C659 O654 1.254 . S
C659 O655 1.269 1_554 S
C660 O661 1.249 1_556 S
C660 O662 1.270 . S
O661 Zn653 1.943 . S
O661 C660 1.249 1_554 S
O662 Zn652 2.067 . S
O662 C660 1.270 . S
C663 O656 1.262 . S
C663 O664 1.232 . S
O664 C663 1.232 . S
C665 O657 1.260 . S
C665 O658 1.257 . S
Zn666 O669 2.034 . S
Zn666 O671 2.047 1_545 S
Zn666 O676 2.063 1_545 S
Zn667 O668 1.962 . S
Zn667 O670 1.986 . S
Zn667 O672 1.996 . S
Zn667 O675 1.943 1_545 S
O668 Zn667 1.962 . S
O668 C673 1.254 . S
O669 Zn666 2.034 . S
O669 C673 1.269 . S
O670 Zn667 1.986 . S
O670 C677 1.262 . S
O671 Zn666 2.047 1_565 S
O671 C679 1.260 . S
O672 Zn667 1.996 . S
O672 C679 1.257 1_545 S
C673 O668 1.254 . S
C673 O669 1.269 . S
C674 O675 1.249 . S
C674 O676 1.270 . S
O675 Zn667 1.943 1_565 S
O675 C674 1.249 . S
O676 Zn666 2.063 1_565 S
O676 C674 1.270 . S
C677 O670 1.262 . S
C677 O678 1.232 . S
O678 C677 1.232 . S
C679 O671 1.260 . S
C679 O672 1.257 1_565 S
Zn680 O683 2.031 . S
Zn680 O685 2.049 . S
Zn680 O690 2.067 . S
Zn681 O682 1.962 . S
Zn681 O684 1.986 . S
Zn681 O686 1.996 . S
Zn681 O689 1.943 . S
O682 Zn681 1.962 . S
O682 C687 1.254 . S
O683 Zn680 2.031 . S
O683 C687 1.269 . S
O684 Zn681 1.986 . S
O684 C691 1.262 . S
O685 Zn680 2.049 . S
O685 C693 1.260 . S
O686 Zn681 1.996 . S
O686 C693 1.257 . S
C687 O682 1.254 . S
C687 O683 1.269 . S
C688 O689 1.249 . S
C688 O690 1.270 . S
O689 Zn681 1.943 . S
O689 C688 1.249 . S
O690 Zn680 2.067 . S
O690 C688 1.270 . S
C691 O684 1.262 . S
C691 O692 1.232 . S
O692 C691 1.232 . S
C693 O685 1.260 . S
C693 O686 1.257 . S
Zn694 O697 2.031 . S
Zn694 O699 2.049 . S
Zn694 O704 2.067 . S
Zn695 O696 1.962 . S
Zn695 O698 1.986 . S
Zn695 O700 1.996 . S
Zn695 O703 1.943 . S
O696 Zn695 1.962 . S
O696 C701 1.254 . S
O697 Zn694 2.031 . S
O697 C701 1.269 . S
O698 Zn695 1.986 . S
O698 C705 1.262 . S
O699 Zn694 2.049 . S
O699 C707 1.260 . S
O700 Zn695 1.996 . S
O700 C707 1.257 . S
C701 O696 1.254 . S
C701 O697 1.269 . S
C702 O703 1.249 . S
C702 O704 1.270 . S
O703 Zn695 1.943 . S
O703 C702 1.249 . S
O704 Zn694 2.067 . S
O704 C702 1.270 . S
C705 O698 1.262 . S
C705 O706 1.232 . S
O706 C705 1.232 . S
C707 O699 1.260 . S
C707 O700 1.257 . S
Zn708 O711 2.031 . S
Zn708 O713 2.049 . S
Zn708 O718 2.067 . S
Zn709 O710 1.962 . S
Zn709 O712 1.986 . S
Zn709 O714 1.996 . S
Zn709 O717 1.943 . S
O710 Zn709 1.962 . S
O710 C715 1.254 . S
O711 Zn708 2.031 . S
O711 C715 1.269 . S
O712 Zn709 1.986 . S
O712 C719 1.262 . S
O713 Zn708 2.049 . S
O713 C721 1.260 . S
O714 Zn709 1.996 . S
O714 C721 1.257 . S
C715 O710 1.254 . S
C715 O711 1.269 . S
C716 O717 1.249 . S
C716 O718 1.270 . S
O717 Zn709 1.943 . S
O717 C716 1.249 . S
O718 Zn708 2.067 . S
O718 C716 1.270 . S
C719 O712 1.262 . S
C719 O720 1.232 . S
O720 C719 1.232 . S
C721 O713 1.260 . S
C721 O714 1.257 . S
Zn722 O725 2.031 . S
Zn722 O727 2.049 . S
Zn722 O732 2.067 . S
Zn723 O724 1.962 . S
Zn723 O726 1.986 . S
Zn723 O728 1.996 1_545 S
Zn723 O731 1.943 . S
O724 Zn723 1.962 . S
O724 C729 1.254 . S
O725 Zn722 2.031 . S
O725 C729 1.269 1_565 S
O726 Zn723 1.986 . S
O726 C733 1.262 . S
O727 Zn722 2.049 . S
O727 C735 1.260 . S
O728 Zn723 1.996 1_565 S
O728 C735 1.257 . S
C729 O724 1.254 . S
C729 O725 1.269 1_545 S
C730 O731 1.249 1_565 S
C730 O732 1.270 . S
O731 Zn723 1.943 . S
O731 C730 1.249 1_545 S
O732 Zn722 2.067 . S
O732 C730 1.270 . S
C733 O726 1.262 . S
C733 O734 1.232 . S
O734 C733 1.232 . S
C735 O727 1.260 . S
C735 O728 1.257 . S
Zn736 O739 2.016 1_655 S
Zn736 O741 2.061 . S
Zn736 O746 2.088 . S
Zn737 O738 1.962 . S
Zn737 O740 1.986 . S
Zn737 O742 1.996 . S
Zn737 O745 1.943 1_455 S
O738 Zn737 1.962 . S
O738 C743 1.254 . S
O739 Zn736 2.016 1_455 S
O739 C743 1.269 . S
O740 Zn737 1.986 . S
O740 C747 1.262 . S
O741 Zn736 2.061 . S
O741 C749 1.260 . S
O742 Zn737 1.996 . S
O742 C749 1.257 1_455 S
C743 O738 1.254 . S
C743 O739 1.269 . S
C744 O745 1.249 . S
C744 O746 1.270 . S
O745 Zn737 1.943 1_655 S
O745 C744 1.249 . S
O746 Zn736 2.088 . S
O746 C744 1.270 . S
C747 O740 1.262 . S
C747 O748 1.232 . S
O748 C747 1.232 . S
C749 O741 1.260 . S
C749 O742 1.257 1_655 S
Zn750 O753 2.031 . S
Zn750 O755 2.049 . S
Zn750 O760 2.067 . S
Zn751 O752 1.962 . S
Zn751 O754 1.986 . S
Zn751 O756 1.996 . S
Zn751 O759 1.943 . S
O752 Zn751 1.962 . S
O752 C757 1.254 . S
O753 Zn750 2.031 . S
O753 C757 1.269 . S
O754 Zn751 1.986 . S
O754 C761 1.262 . S
O755 Zn750 2.049 . S
O755 C763 1.260 . S
O756 Zn751 1.996 . S
O756 C763 1.257 . S
C757 O752 1.254 . S
C757 O753 1.269 . S
C758 O759 1.249 . S
C758 O760 1.270 . S
O759 Zn751 1.943 . S
O759 C758 1.249 . S
O760 Zn750 2.067 . S
O760 C758 1.270 . S
C761 O754 1.262 . S
C761 O762 1.232 . S
O762 C761 1.232 . S
C763 O755 1.260 . S
C763 O756 1.257 . S
Zn764 O767 2.031 . S
Zn764 O769 2.049 . S
Zn764 O774 2.067 . S
Zn765 O766 1.962 . S
Zn765 O768 1.986 . S
Zn765 O770 1.996 1_455 S
Zn765 O773 1.943 . S
O766 Zn765 1.962 . S
O766 C771 1.254 . S
O767 Zn764 2.031 . S
O767 C771 1.269 1_655 S
O768 Zn765 1.986 . S
O768 C775 1.262 . S
O769 Zn764 2.049 . S
O769 C777 1.260 . S
O770 Zn765 1.996 1_655 S
O770 C777 1.257 . S
C771 O766 1.254 . S
C771 O767 1.269 1_455 S
C772 O773 1.249 1_655 S
C772 O774 1.270 . S
O773 Zn765 1.943 . S
O773 C772 1.249 1_455 S
O774 Zn764 2.067 . S
O774 C772 1.270 . S
C775 O768 1.262 . S
C775 O776 1.232 . S
O776 C775 1.232 . S
C777 O769 1.260 . S
C777 O770 1.257 . S
Zn778 O781 2.031 . S
Zn778 O783 2.049 . S
Zn778 O788 2.067 . S
Zn779 O780 1.962 . S
Zn779 O782 1.986 . S
Zn779 O784 1.996 . S
Zn779 O787 1.943 . S
O780 Zn779 1.962 . S
O780 C785 1.254 . S
O781 Zn778 2.031 . S
O781 C785 1.269 . S
O782 Zn779 1.986 . S
O782 C789 1.262 . S
O783 Zn778 2.049 . S
O783 C791 1.260 . S
O784 Zn779 1.996 . S
O784 C791 1.257 . S
C785 O780 1.254 . S
C785 O781 1.269 . S
C786 O787 1.249 . S
C786 O788 1.270 . S
O787 Zn779 1.943 . S
O787 C786 1.249 . S
O788 Zn778 2.067 . S
O788 C786 1.270 . S
C789 O782 1.262 . S
C789 O790 1.232 . S
O790 C789 1.232 . S
C791 O783 1.260 . S
C791 O784 1.257 . S
C792 C793 1.387 . S
C792 H796 0.950 . S
C792 C801 1.390 . S
C793 C792 1.387 . S
C793 C795 1.387 . S
H794 C801 0.950 . S
C795 C793 1.387 . S
C795 C797 1.390 . S
C795 H799 0.950 . S
H796 C792 0.950 . S
C797 C795 1.390 . S
C797 C798 1.387 . S
C797 H800 0.950 . S
C798 C797 1.387 . S
C798 C801 1.387 . S
H799 C795 0.950 . S
H800 C797 0.950 . S
C801 C792 1.390 . S
C801 H794 0.950 . S
C801 C798 1.387 . S
C802 C803 1.387 . S
C802 H806 0.950 . S
C802 C811 1.390 . S
C803 C802 1.387 . S
C803 C805 1.387 . S
H804 C811 0.950 . S
C805 C803 1.387 . S
C805 C807 1.390 . S
C805 H809 0.950 . S
H806 C802 0.950 . S
C807 C805 1.390 . S
C807 C808 1.387 . S
C807 H810 0.950 . S
C808 C807 1.387 . S
C808 C811 1.387 . S
H809 C805 0.950 . S
H810 C807 0.950 . S
C811 C802 1.390 . S
C811 H804 0.950 . S
C811 C808 1.387 . S
C812 C813 1.387 . S
C812 H816 0.950 . S
C812 C821 1.390 . S
C813 C812 1.387 . S
C813 C815 1.387 . S
H814 C821 0.950 . S
C815 C813 1.387 . S
C815 C817 1.390 . S
C815 H819 0.950 . S
H816 C812 0.950 . S
C817 C815 1.390 . S
C817 C818 1.387 . S
C817 H820 0.950 . S
C818 C817 1.387 . S
C818 C821 1.387 . S
H819 C815 0.950 . S
H820 C817 0.950 . S
C821 C812 1.390 . S
C821 H814 0.950 . S
C821 C818 1.387 . S
C822 C823 1.387 . S
C822 H826 0.950 1_565 S
C822 C831 1.390 1_565 S
C823 C822 1.387 . S
C823 C825 1.387 . S
H824 C831 0.950 . S
C825 C823 1.387 . S
C825 C827 1.390 . S
C825 H829 0.950 . S
H826 C822 0.950 1_545 S
C827 C825 1.390 . S
C827 C828 1.387 . S
C827 H830 0.950 . S
C828 C827 1.387 . S
C828 C831 1.387 1_565 S
H829 C825 0.950 . S
H830 C827 0.950 . S
C831 C822 1.390 1_545 S
C831 H824 0.950 . S
C831 C828 1.387 1_545 S
C832 C833 1.387 . S
C832 H836 0.950 . S
C832 C841 1.390 . S
C833 C832 1.387 . S
C833 C835 1.387 . S
H834 C841 0.950 . S
C835 C833 1.387 . S
C835 C837 1.390 . S
C835 H839 0.950 . S
H836 C832 0.950 . S
C837 C835 1.390 . S
C837 C838 1.387 . S
C837 H840 0.950 . S
C838 C837 1.387 . S
C838 C841 1.387 . S
H839 C835 0.950 . S
H840 C837 0.950 . S
C841 C832 1.390 . S
C841 H834 0.950 . S
C841 C838 1.387 . S
C842 C843 1.387 . S
C842 H846 0.950 . S
C842 C851 1.390 . S
C843 C842 1.387 . S
C843 C845 1.387 . S
H844 C851 0.950 . S
C845 C843 1.387 . S
C845 C847 1.390 . S
C845 H849 0.950 . S
H846 C842 0.950 . S
C847 C845 1.390 . S
C847 C848 1.387 . S
C847 H850 0.950 . S
C848 C847 1.387 . S
C848 C851 1.387 . S
H849 C845 0.950 . S
H850 C847 0.950 . S
C851 C842 1.390 . S
C851 H844 0.950 . S
C851 C848 1.387 . S
C852 C853 1.387 . S
C852 H856 0.950 . S
C852 C861 1.390 . S
C853 C852 1.387 . S
C853 C855 1.387 . S
H854 C861 0.950 . S
C855 C853 1.387 . S
C855 C857 1.390 . S
C855 H859 0.950 . S
H856 C852 0.950 . S
C857 C855 1.390 . S
C857 C858 1.387 . S
C857 H860 0.950 . S
C858 C857 1.387 . S
C858 C861 1.387 . S
H859 C855 0.950 . S
H860 C857 0.950 . S
C861 C852 1.390 . S
C861 H854 0.950 . S
C861 C858 1.387 . S
C862 C863 1.387 1_545 S
C862 H866 0.950 . S
C862 C871 1.390 . S
C863 C862 1.387 1_565 S
C863 C865 1.387 . S
H864 C871 0.950 . S
C865 C863 1.387 . S
C865 C867 1.390 . S
C865 H869 0.950 . S
H866 C862 0.950 . S
C867 C865 1.390 . S
C867 C868 1.387 . S
C867 H870 0.950 . S
C868 C867 1.387 . S
C868 C871 1.387 1_565 S
H869 C865 0.950 . S
H870 C867 0.950 . S
C871 C862 1.390 . S
C871 H864 0.950 . S
C871 C868 1.387 1_545 S
C872 C873 1.387 . S
C872 H876 0.950 . S
C872 C881 1.390 . S
C873 C872 1.387 . S
C873 C875 1.387 . S
H874 C881 0.950 . S
C875 C873 1.387 . S
C875 C877 1.390 . S
C875 H879 0.950 . S
H876 C872 0.950 . S
C877 C875 1.390 . S
C877 C878 1.387 . S
C877 H880 0.950 . S
C878 C877 1.387 . S
C878 C881 1.387 . S
H879 C875 0.950 . S
H880 C877 0.950 . S
C881 C872 1.390 . S
C881 H874 0.950 . S
C881 C878 1.387 . S
C882 C883 1.387 . S
C882 H886 0.950 . S
C882 C891 1.390 . S
C883 C882 1.387 . S
C883 C885 1.387 . S
H884 C891 0.950 . S
C885 C883 1.387 . S
C885 C887 1.390 . S
C885 H889 0.950 . S
H886 C882 0.950 . S
C887 C885 1.390 . S
C887 C888 1.387 . S
C887 H890 0.950 . S
C888 C887 1.387 . S
C888 C891 1.387 . S
H889 C885 0.950 . S
H890 C887 0.950 . S
C891 C882 1.390 . S
C891 H884 0.950 . S
C891 C888 1.387 . S
C892 C893 1.387 . S
C892 H896 0.950 . S
C892 C901 1.390 . S
C893 C892 1.387 . S
C893 C895 1.387 . S
H894 C901 0.950 . S
C895 C893 1.387 . S
C895 C897 1.390 . S
C895 H899 0.950 . S
H896 C892 0.950 . S
C897 C895 1.390 . S
C897 C898 1.387 . S
C897 H900 0.950 . S
C898 C897 1.387 . S
C898 C901 1.387 . S
H899 C895 0.950 . S
H900 C897 0.950 . S
C901 C892 1.390 . S
C901 H894 0.950 . S
C901 C898 1.387 . S
C902 C903 1.387 . S
C902 H906 0.950 . S
C902 C911 1.390 . S
C903 C902 1.387 . S
C903 C905 1.387 . S
H904 C911 0.950 . S
C905 C903 1.387 . S
C905 C907 1.390 . S
C905 H909 0.950 . S
H906 C902 0.950 . S
C907 C905 1.390 . S
C907 C908 1.387 . S
C907 H910 0.950 . S
C908 C907 1.387 . S
C908 C911 1.387 . S
H909 C905 0.950 . S
H910 C907 0.950 . S
C911 C902 1.390 . S
C911 H904 0.950 . S
C911 C908 1.387 . S
C912 C913 1.387 . S
C912 H916 0.950 . S
C912 C921 1.390 . S
C913 C912 1.387 . S
C913 C915 1.387 . S
H914 C921 0.950 . S
C915 C913 1.387 . S
C915 C917 1.390 . S
C915 H919 0.950 . S
H916 C912 0.950 . S
C917 C915 1.390 . S
C917 C918 1.387 . S
C917 H920 0.950 . S
C918 C917 1.387 . S
C918 C921 1.387 . S
H919 C915 0.950 . S
H920 C917 0.950 . S
C921 C912 1.390 . S
C921 H914 0.950 . S
C921 C918 1.387 . S
C922 C923 1.387 . S
C922 H926 0.950 . S
C922 C931 1.390 . S
C923 C922 1.387 . S
C923 C925 1.387 . S
H924 C931 0.950 . S
C925 C923 1.387 . S
C925 C927 1.390 . S
C925 H929 0.950 . S
H926 C922 0.950 . S
C927 C925 1.390 . S
C927 C928 1.387 . S
C927 H930 0.950 . S
C928 C927 1.387 . S
C928 C931 1.387 . S
H929 C925 0.950 . S
H930 C927 0.950 . S
C931 C922 1.390 . S
C931 H924 0.950 . S
C931 C928 1.387 . S
C932 C933 1.387 . S
C932 H936 0.950 . S
C932 C941 1.390 . S
C933 C932 1.387 . S
C933 C935 1.387 . S
H934 C941 0.950 . S
C935 C933 1.387 . S
C935 C937 1.390 . S
C935 H939 0.950 . S
H936 C932 0.950 . S
C937 C935 1.390 . S
C937 C938 1.387 . S
C937 H940 0.950 . S
C938 C937 1.387 . S
C938 C941 1.387 . S
H939 C935 0.950 . S
H940 C937 0.950 . S
C941 C932 1.390 . S
C941 H934 0.950 . S
C941 C938 1.387 . S
C942 C943 1.387 . S
C942 H946 0.950 . S
C942 C951 1.390 . S
C943 C942 1.387 . S
C943 C945 1.387 . S
H944 C951 0.950 1_455 S
C945 C943 1.387 . S
C945 C947 1.390 . S
C945 H949 0.950 . S
H946 C942 0.950 . S
C947 C945 1.390 . S
C947 C948 1.387 . S
C947 H950 0.950 . S
C948 C947 1.387 . S
C948 C951 1.387 . S
H949 C945 0.950 . S
H950 C947 0.950 . S
C951 C942 1.390 . S
C951 H944 0.950 1_655 S
C951 C948 1.387 . S
C952 C953 1.387 . S
C952 H956 0.950 . S
C952 C961 1.390 . S
C953 C952 1.387 . S
C953 C955 1.387 . S
H954 C961 0.950 . S
C955 C953 1.387 . S
C955 C957 1.390 . S
C955 H959 0.950 . S
H956 C952 0.950 . S
C957 C955 1.390 . S
C957 C958 1.387 . S
C957 H960 0.950 . S
C958 C957 1.387 . S
C958 C961 1.387 . S
H959 C955 0.950 . S
H960 C957 0.950 . S
C961 C952 1.390 . S
C961 H954 0.950 . S
C961 C958 1.387 . S
C962 C963 1.387 . S
C962 H966 0.950 . S
C962 C971 1.390 . S
C963 C962 1.387 . S
C963 C965 1.387 . S
H964 C971 0.950 . S
C965 C963 1.387 . S
C965 C967 1.390 . S
C965 H969 0.950 . S
H966 C962 0.950 . S
C967 C965 1.390 . S
C967 C968 1.387 . S
C967 H970 0.950 . S
C968 C967 1.387 . S
C968 C971 1.387 . S
H969 C965 0.950 . S
H970 C967 0.950 . S
C971 C962 1.390 . S
C971 H964 0.950 . S
C971 C968 1.387 . S
C972 C973 1.387 . S
C972 H976 0.950 . S
C972 C981 1.390 . S
C973 C972 1.387 . S
C973 C975 1.387 . S
H974 C981 0.950 . S
C975 C973 1.387 . S
C975 C977 1.390 . S
C975 H979 0.950 . S
H976 C972 0.950 . S
C977 C975 1.390 . S
C977 C978 1.387 . S
C977 H980 0.950 1_556 S
C978 C977 1.387 . S
C978 C981 1.387 . S
H979 C975 0.950 . S
H980 C977 0.950 1_554 S
C981 C972 1.390 . S
C981 H974 0.950 . S
C981 C978 1.387 . S
C982 C983 1.387 . S
C982 H986 0.950 . S
C982 C991 1.390 . S
C983 C982 1.387 . S
C983 C985 1.387 . S
H984 C991 0.950 . S
C985 C983 1.387 . S
C985 C987 1.390 . S
C985 H989 0.950 . S
H986 C982 0.950 . S
C987 C985 1.390 . S
C987 C988 1.387 . S
C987 H990 0.950 . S
C988 C987 1.387 . S
C988 C991 1.387 . S
H989 C985 0.950 . S
H990 C987 0.950 . S
C991 C982 1.390 . S
C991 H984 0.950 . S
C991 C988 1.387 . S
C992 C993 1.387 . S
C992 H996 0.950 . S
C992 C1001 1.390 . S
C993 C992 1.387 . S
C993 C995 1.387 . S
H994 C1001 0.950 . S
C995 C993 1.387 . S
C995 C997 1.390 . S
C995 H999 0.950 . S
H996 C992 0.950 . S
C997 C995 1.390 . S
C997 C998 1.387 . S
C997 H1000 0.950 . S
C998 C997 1.387 . S
C998 C1001 1.387 . S
H999 C995 0.950 . S
H1000 C997 0.950 . S
C1001 C992 1.390 . S
C1001 H994 0.950 . S
C1001 C998 1.387 . S
C1002 C1003 1.387 . S
C1002 H1006 0.950 . S
C1002 C1011 1.390 . S
C1003 C1002 1.387 . S
C1003 C1005 1.387 . S
H1004 C1011 0.950 . S
C1005 C1003 1.387 . S
C1005 C1007 1.390 . S
C1005 H1009 0.950 . S
H1006 C1002 0.950 . S
C1007 C1005 1.390 . S
C1007 C1008 1.387 . S
C1007 H1010 0.950 . S
C1008 C1007 1.387 . S
C1008 C1011 1.387 . S
H1009 C1005 0.950 . S
H1010 C1007 0.950 . S
C1011 C1002 1.390 . S
C1011 H1004 0.950 . S
C1011 C1008 1.387 . S
C1012 C1013 1.387 . S
C1012 H1016 0.950 . S
C1012 C1021 1.390 . S
C1013 C1012 1.387 . S
C1013 C1015 1.387 . S
H1014 C1021 0.950 . S
C1015 C1013 1.387 . S
C1015 C1017 1.390 . S
C1015 H1019 0.950 . S
H1016 C1012 0.950 . S
C1017 C1015 1.390 . S
C1017 C1018 1.387 . S
C1017 H1020 0.950 . S
C1018 C1017 1.387 . S
C1018 C1021 1.387 . S
H1019 C1015 0.950 . S
H1020 C1017 0.950 . S
C1021 C1012 1.390 . S
C1021 H1014 0.950 . S
C1021 C1018 1.387 . S
C1022 C1023 1.387 . S
C1022 H1026 0.950 . S
C1022 C1031 1.390 . S
C1023 C1022 1.387 . S
C1023 C1025 1.387 . S
H1024 C1031 0.950 . S
C1025 C1023 1.387 . S
C1025 C1027 1.390 . S
C1025 H1029 0.950 . S
H1026 C1022 0.950 . S
C1027 C1025 1.390 . S
C1027 C1028 1.387 . S
C1027 H1030 0.950 . S
C1028 C1027 1.387 . S
C1028 C1031 1.387 . S
H1029 C1025 0.950 . S
H1030 C1027 0.950 . S
C1031 C1022 1.390 . S
C1031 H1024 0.950 . S
C1031 C1028 1.387 . S
C1032 C1033 1.387 . S
C1032 H1036 0.950 . S
C1032 C1041 1.390 . S
C1033 C1032 1.387 . S
C1033 C1035 1.387 . S
H1034 C1041 0.950 . S
C1035 C1033 1.387 . S
C1035 C1037 1.390 . S
C1035 H1039 0.950 . S
H1036 C1032 0.950 . S
C1037 C1035 1.390 . S
C1037 C1038 1.387 . S
C1037 H1040 0.950 . S
C1038 C1037 1.387 . S
C1038 C1041 1.387 . S
H1039 C1035 0.950 . S
H1040 C1037 0.950 . S
C1041 C1032 1.390 . S
C1041 H1034 0.950 . S
C1041 C1038 1.387 . S
C1042 C1043 1.387 . S
C1042 H1046 0.950 . S
C1042 C1051 1.390 . S
C1043 C1042 1.387 . S
C1043 C1045 1.387 . S
H1044 C1051 0.950 . S
C1045 C1043 1.387 . S
C1045 C1047 1.390 . S
C1045 H1049 0.950 . S
H1046 C1042 0.950 . S
C1047 C1045 1.390 . S
C1047 C1048 1.387 . S
C1047 H1050 0.950 . S
C1048 C1047 1.387 . S
C1048 C1051 1.387 . S
H1049 C1045 0.950 . S
H1050 C1047 0.950 . S
C1051 C1042 1.390 . S
C1051 H1044 0.950 . S
C1051 C1048 1.387 . S
C1052 C1053 1.387 . S
C1052 H1056 0.950 . S
C1052 C1061 1.390 . S
C1053 C1052 1.387 . S
C1053 C1055 1.387 . S
H1054 C1061 0.950 . S
C1055 C1053 1.387 . S
C1055 C1057 1.390 . S
C1055 H1059 0.950 . S
H1056 C1052 0.950 . S
C1057 C1055 1.390 . S
C1057 C1058 1.387 . S
C1057 H1060 0.950 . S
C1058 C1057 1.387 . S
C1058 C1061 1.387 . S
H1059 C1055 0.950 . S
H1060 C1057 0.950 . S
C1061 C1052 1.390 . S
C1061 H1054 0.950 . S
C1061 C1058 1.387 . S
C1062 C1063 1.387 . S
C1062 H1066 0.950 . S
C1062 C1071 1.390 . S
C1063 C1062 1.387 . S
C1063 C1065 1.387 . S
H1064 C1071 0.950 . S
C1065 C1063 1.387 . S
C1065 C1067 1.390 . S
C1065 H1069 0.950 . S
H1066 C1062 0.950 . S
C1067 C1065 1.390 . S
C1067 C1068 1.387 . S
C1067 H1070 0.950 . S
C1068 C1067 1.387 . S
C1068 C1071 1.387 . S
H1069 C1065 0.950 . S
H1070 C1067 0.950 . S
C1071 C1062 1.390 . S
C1071 H1064 0.950 . S
C1071 C1068 1.387 . S
C1072 C1073 1.387 . S
C1072 H1076 0.950 . S
C1072 C1081 1.390 . S
C1073 C1072 1.387 . S
C1073 C1075 1.387 . S
H1074 C1081 0.950 . S
C1075 C1073 1.387 . S
C1075 C1077 1.390 . S
C1075 H1079 0.950 . S
H1076 C1072 0.950 . S
C1077 C1075 1.390 . S
C1077 C1078 1.387 . S
C1077 H1080 0.950 . S
C1078 C1077 1.387 . S
C1078 C1081 1.387 . S
H1079 C1075 0.950 . S
H1080 C1077 0.950 . S
C1081 C1072 1.390 . S
C1081 H1074 0.950 . S
C1081 C1078 1.387 . S
C1082 C1083 1.387 1_565 S
C1082 H1086 0.950 . S
C1082 C1091 1.390 . S
C1083 C1082 1.387 1_545 S
C1083 C1085 1.387 . S
H1084 C1091 0.950 . S
C1085 C1083 1.387 . S
C1085 C1087 1.390 . S
C1085 H1089 0.950 . S
H1086 C1082 0.950 . S
C1087 C1085 1.390 . S
C1087 C1088 1.387 . S
C1087 H1090 0.950 . S
C1088 C1087 1.387 . S
C1088 C1091 1.387 1_545 S
H1089 C1085 0.950 . S
H1090 C1087 0.950 . S
C1091 C1082 1.390 . S
C1091 H1084 0.950 . S
C1091 C1088 1.387 1_565 S
C1092 C1093 1.387 . S
C1092 H1096 0.950 . S
C1092 C1101 1.390 . S
C1093 C1092 1.387 . S
C1093 C1095 1.387 . S
H1094 C1101 0.950 . S
C1095 C1093 1.387 . S
C1095 C1097 1.390 . S
C1095 H1099 0.950 . S
H1096 C1092 0.950 . S
C1097 C1095 1.390 . S
C1097 C1098 1.387 . S
C1097 H1100 0.950 . S
C1098 C1097 1.387 . S
C1098 C1101 1.387 . S
H1099 C1095 0.950 . S
H1100 C1097 0.950 . S
C1101 C1092 1.390 . S
C1101 H1094 0.950 . S
C1101 C1098 1.387 . S
C1102 C1103 1.387 . S
C1102 H1106 0.950 . S
C1102 C1111 1.390 . S
C1103 C1102 1.387 . S
C1103 C1105 1.387 . S
H1104 C1111 0.950 . S
C1105 C1103 1.387 . S
C1105 C1107 1.390 . S
C1105 H1109 0.950 . S
H1106 C1102 0.950 . S
C1107 C1105 1.390 . S
C1107 C1108 1.387 . S
C1107 H1110 0.950 . S
C1108 C1107 1.387 . S
C1108 C1111 1.387 . S
H1109 C1105 0.950 . S
H1110 C1107 0.950 . S
C1111 C1102 1.390 . S
C1111 H1104 0.950 . S
C1111 C1108 1.387 . S
C1112 C1113 1.387 . S
C1112 H1116 0.950 . S
C1112 C1121 1.390 . S
C1113 C1112 1.387 . S
C1113 C1115 1.387 . S
H1114 C1121 0.950 . S
C1115 C1113 1.387 . S
C1115 C1117 1.390 . S
C1115 H1119 0.950 . S
H1116 C1112 0.950 . S
C1117 C1115 1.390 . S
C1117 C1118 1.387 . S
C1117 H1120 0.950 . S
C1118 C1117 1.387 . S
C1118 C1121 1.387 . S
H1119 C1115 0.950 . S
H1120 C1117 0.950 . S
C1121 C1112 1.390 . S
C1121 H1114 0.950 . S
C1121 C1118 1.387 . S
C1122 C1123 1.387 . S
C1122 H1126 0.950 . S
C1122 C1131 1.390 . S
C1123 C1122 1.387 . S
C1123 C1125 1.387 . S
H1124 C1131 0.950 . S
C1125 C1123 1.387 . S
C1125 C1127 1.392 . S
C1125 H1129 0.950 1_655 S
H1126 C1122 0.950 . S
C1127 C1125 1.392 . S
C1127 C1128 1.392 . S
C1127 H1130 0.943 1_655 S
C1128 C1127 1.392 . S
C1128 C1131 1.387 . S
H1129 C1125 0.950 1_455 S
H1130 C1127 0.943 1_455 S
C1131 C1122 1.390 . S
C1131 H1124 0.950 . S
C1131 C1128 1.387 . S
C1132 C1133 1.387 . S
C1132 H1136 0.950 . S
C1132 C1141 1.390 . S
C1133 C1132 1.387 . S
C1133 C1135 1.387 . S
H1134 C1141 0.950 . S
C1135 C1133 1.387 . S
C1135 C1137 1.390 . S
C1135 H1139 0.950 . S
H1136 C1132 0.950 . S
C1137 C1135 1.390 . S
C1137 C1138 1.387 . S
C1137 H1140 0.950 . S
C1138 C1137 1.387 . S
C1138 C1141 1.387 . S
H1139 C1135 0.950 . S
H1140 C1137 0.950 . S
C1141 C1132 1.390 . S
C1141 H1134 0.950 . S
C1141 C1138 1.387 . S
C1142 C1143 1.387 . S
C1142 H1146 0.950 . S
C1142 C1151 1.390 . S
C1143 C1142 1.387 . S
C1143 C1145 1.365 1_455 S
H1144 C1151 0.950 . S
C1145 C1143 1.365 1_655 S
C1145 C1147 1.393 . S
C1145 H1149 0.970 . S
H1146 C1142 0.950 . S
C1147 C1145 1.393 . S
C1147 C1148 1.387 1_655 S
C1147 H1150 0.950 . S
C1148 C1147 1.387 1_455 S
C1148 C1151 1.387 . S
H1149 C1145 0.970 . S
H1150 C1147 0.950 . S
C1151 C1142 1.390 . S
C1151 H1144 0.950 . S
C1151 C1148 1.387 . S
C1152 C1153 1.387 . S
C1152 H1156 0.950 . S
C1152 C1161 1.390 . S
C1153 C1152 1.387 . S
C1153 C1155 1.387 . S
H1154 C1161 0.950 . S
C1155 C1153 1.387 . S
C1155 C1157 1.390 . S
C1155 H1159 0.950 . S
H1156 C1152 0.950 . S
C1157 C1155 1.390 . S
C1157 C1158 1.387 . S
C1157 H1160 0.950 . S
C1158 C1157 1.387 . S
C1158 C1161 1.387 . S
H1159 C1155 0.950 . S
H1160 C1157 0.950 . S
C1161 C1152 1.390 . S
C1161 H1154 0.950 . S
C1161 C1158 1.387 . S
C1162 C1163 1.387 . S
C1162 H1166 0.950 . S
C1162 C1171 1.390 . S
C1163 C1162 1.387 . S
C1163 C1165 1.387 . S
H1164 C1171 0.950 . S
C1165 C1163 1.387 . S
C1165 C1167 1.390 . S
C1165 H1169 0.950 . S
H1166 C1162 0.950 . S
C1167 C1165 1.390 . S
C1167 C1168 1.387 . S
C1167 H1170 0.950 . S
C1168 C1167 1.387 . S
C1168 C1171 1.387 . S
H1169 C1165 0.950 . S
H1170 C1167 0.950 . S
C1171 C1162 1.390 . S
C1171 H1164 0.950 . S
C1171 C1168 1.387 . S
C1172 C1173 1.387 . S
C1172 H1176 0.950 . S
C1172 C1181 1.390 . S
C1173 C1172 1.387 . S
C1173 C1175 1.387 . S
H1174 C1181 0.950 . S
C1175 C1173 1.387 . S
C1175 C1177 1.390 . S
C1175 H1179 0.950 . S
H1176 C1172 0.950 . S
C1177 C1175 1.390 . S
C1177 C1178 1.387 . S
C1177 H1180 0.950 . S
C1178 C1177 1.387 . S
C1178 C1181 1.387 . S
H1179 C1175 0.950 . S
H1180 C1177 0.950 . S
C1181 C1172 1.390 . S
C1181 H1174 0.950 . S
C1181 C1178 1.387 . S
C1182 C1183 1.387 . S
C1182 H1186 0.950 . S
C1182 C1191 1.390 . S
C1183 C1182 1.387 . S
C1183 C1185 1.387 . S
H1184 C1191 0.950 . S
C1185 C1183 1.387 . S
C1185 C1187 1.390 . S
C1185 H1189 0.950 . S
H1186 C1182 0.950 . S
C1187 C1185 1.390 . S
C1187 C1188 1.387 . S
C1187 H1190 0.950 . S
C1188 C1187 1.387 . S
C1188 C1191 1.387 . S
H1189 C1185 0.950 . S
H1190 C1187 0.950 . S
C1191 C1182 1.390 . S
C1191 H1184 0.950 . S
C1191 C1188 1.387 . S
C1192 C1193 1.387 . S
C1192 H1196 0.950 . S
C1192 C1201 1.390 . S
C1193 C1192 1.387 . S
C1193 C1195 1.387 . S
H1194 C1201 0.950 . S
C1195 C1193 1.387 . S
C1195 C1197 1.390 . S
C1195 H1199 0.950 . S
H1196 C1192 0.950 . S
C1197 C1195 1.390 . S
C1197 C1198 1.387 . S
C1197 H1200 0.950 . S
C1198 C1197 1.387 . S
C1198 C1201 1.387 . S
H1199 C1195 0.950 . S
H1200 C1197 0.950 . S
C1201 C1192 1.390 . S
C1201 H1194 0.950 . S
C1201 C1198 1.387 . S
C1202 C1203 1.387 . S
C1202 H1206 0.950 . S
C1202 C1211 1.390 . S
C1203 C1202 1.387 . S
C1203 C1205 1.387 . S
H1204 C1211 0.950 . S
C1205 C1203 1.387 . S
C1205 C1207 1.390 . S
C1205 H1209 0.950 . S
H1206 C1202 0.950 . S
C1207 C1205 1.390 . S
C1207 C1208 1.387 . S
C1207 H1210 0.950 . S
C1208 C1207 1.387 . S
C1208 C1211 1.387 . S
H1209 C1205 0.950 . S
H1210 C1207 0.950 . S
C1211 C1202 1.390 . S
C1211 H1204 0.950 . S
C1211 C1208 1.387 . S
C1212 C1213 1.387 . S
C1212 H1216 0.950 . S
C1212 C1221 1.390 . S
C1213 C1212 1.387 . S
C1213 C1215 1.387 . S
H1214 C1221 0.950 . S
C1215 C1213 1.387 . S
C1215 C1217 1.390 . S
C1215 H1219 0.950 . S
H1216 C1212 0.950 . S
C1217 C1215 1.390 . S
C1217 C1218 1.387 . S
C1217 H1220 0.950 . S
C1218 C1217 1.387 . S
C1218 C1221 1.387 . S
H1219 C1215 0.950 . S
H1220 C1217 0.950 . S
C1221 C1212 1.390 . S
C1221 H1214 0.950 . S
C1221 C1218 1.387 . S
C1222 C1223 1.387 . S
C1222 H1226 0.950 . S
C1222 C1231 1.390 . S
C1223 C1222 1.387 . S
C1223 C1225 1.387 . S
H1224 C1231 0.950 . S
C1225 C1223 1.387 . S
C1225 C1227 1.390 . S
C1225 H1229 0.950 . S
H1226 C1222 0.950 . S
C1227 C1225 1.390 . S
C1227 C1228 1.387 . S
C1227 H1230 0.950 . S
C1228 C1227 1.387 . S
C1228 C1231 1.387 . S
H1229 C1225 0.950 . S
H1230 C1227 0.950 . S
C1231 C1222 1.390 . S
C1231 H1224 0.950 . S
C1231 C1228 1.387 . S
C1232 C1233 1.387 1_554 S
C1232 H1236 0.950 . S
C1232 C1241 1.390 . S
C1233 C1232 1.387 1_556 S
C1233 C1235 1.387 . S
H1234 C1241 0.950 . S
C1235 C1233 1.387 . S
C1235 C1237 1.390 . S
C1235 H1239 0.950 . S
H1236 C1232 0.950 . S
C1237 C1235 1.390 . S
C1237 C1238 1.387 . S
C1237 H1240 0.950 . S
C1238 C1237 1.387 . S
C1238 C1241 1.387 1_556 S
H1239 C1235 0.950 . S
H1240 C1237 0.950 . S
C1241 C1232 1.390 . S
C1241 H1234 0.950 . S
C1241 C1238 1.387 1_554 S
C1242 C1243 1.387 . S
C1242 H1246 0.950 . S
C1242 C1251 1.390 . S
C1243 C1242 1.387 . S
C1243 C1245 1.387 . S
H1244 C1251 0.950 . S
C1245 C1243 1.387 . S
C1245 C1247 1.390 . S
C1245 H1249 0.950 . S
H1246 C1242 0.950 . S
C1247 C1245 1.390 . S
C1247 C1248 1.387 . S
C1247 H1250 0.950 . S
C1248 C1247 1.387 . S
C1248 C1251 1.387 . S
H1249 C1245 0.950 . S
H1250 C1247 0.950 . S
C1251 C1242 1.390 . S
C1251 H1244 0.950 . S
C1251 C1248 1.387 . S
C1252 C1253 1.387 . S
C1252 H1256 0.950 . S
C1252 C1261 1.390 . S
C1253 C1252 1.387 . S
C1253 C1255 1.387 . S
H1254 C1261 0.950 . S
C1255 C1253 1.387 . S
C1255 C1257 1.390 . S
C1255 H1259 0.950 . S
H1256 C1252 0.950 . S
C1257 C1255 1.390 . S
C1257 C1258 1.387 . S
C1257 H1260 0.950 . S
C1258 C1257 1.387 . S
C1258 C1261 1.387 . S
H1259 C1255 0.950 . S
H1260 C1257 0.950 . S
C1261 C1252 1.390 . S
C1261 H1254 0.950 . S
C1261 C1258 1.387 . S
C1262 C1263 1.387 1_556 S
C1262 H1266 0.950 . S
C1262 C1271 1.390 . S
C1263 C1262 1.387 1_554 S
C1263 C1265 1.387 . S
H1264 C1271 0.950 . S
C1265 C1263 1.387 . S
C1265 C1267 1.390 . S
C1265 H1269 0.950 . S
H1266 C1262 0.950 . S
C1267 C1265 1.390 . S
C1267 C1268 1.387 . S
C1267 H1270 0.950 . S
C1268 C1267 1.387 . S
C1268 C1271 1.387 1_554 S
H1269 C1265 0.950 . S
H1270 C1267 0.950 . S
C1271 C1262 1.390 . S
C1271 H1264 0.950 . S
C1271 C1268 1.387 1_556 S
C798 C632 1.484 . S
C793 C211 1.508 . S
C808 C645 1.488 . S
C803 C255 1.492 . S
C813 C274 1.640 . S
C818 C665 1.520 . S
C828 C679 1.403 . S
C823 C157 1.460 . S
C838 C691 1.517 . S
C833 C391 1.520 . S
C848 C705 1.441 . S
C843 C484 1.442 . S
C853 C450 1.486 . S
C858 C715 1.477 . S
C868 C730 1.516 . S
C863 C352 1.549 . S
C873 C430 1.511 . S
C878 C744 1.485 . S
C888 C763 1.404 . S
C883 C367 1.465 . S
C893 C411 1.507 . S
C898 C743 1.495 . S
C908 C761 1.442 . S
C903 C469 1.443 . S
C913 C294 1.635 . S
C918 C777 1.520 . S
C923 C177 1.494 . S
C928 C771 1.494 . S
C933 C196 1.512 . S
C938 C775 1.507 . S
C943 C235 1.542 . S
C948 C772 1.508 . S
C953 C133 1.516 . S
C958 C674 1.491 . S
C963 C567 1.488 . S
C968 C673 1.476 . S
C978 C637 1.391 . S
C973 C601 1.453 . S
C988 C651 1.522 . S
C983 C328 1.644 . S
C993 C172 1.544 . S
C998 C688 1.511 . S
C1008 C733 1.510 . S
C1003 C445 1.513 . S
C1018 C687 1.507 . S
C1013 C372 1.510 . S
C1028 C719 1.434 . S
C1023 C489 1.436 . S
C1038 C716 1.482 . S
C1033 C562 1.509 . S
C1043 C606 1.492 . S
C1048 C729 1.488 . S
C1053 C313 1.641 . S
C1058 C693 1.520 . S
C1068 C707 1.403 . S
C1063 C508 1.459 . S
C1073 C118 1.520 . S
C1078 C663 1.516 . S
C1088 C677 1.442 . S
C1083 C16 1.443 . S
C1098 C631 1.476 . S
C1093 C60 1.486 . S
C1108 C646 1.517 . S
C1103 C79 1.550 . S
C1113 C40 1.510 . S
C1118 C758 1.487 . S
C1123 C94 1.465 . S
C1128 C749 1.404 . S
C1133 C138 1.507 . S
C1138 C757 1.496 . S
C1143 C1 1.443 . S
C1148 C747 1.441 . S
C1158 C791 1.516 . S
C1153 C333 1.634 . S
C1168 C785 1.495 . S
C1163 C528 1.495 . S
C1178 C789 1.507 . S
C1173 C547 1.512 . S
C1183 C586 1.542 . S
C1188 C786 1.508 . S
C1193 C406 1.517 . S
C1198 C702 1.490 . S
C1208 C701 1.475 . S
C1203 C216 1.488 . S
C1218 C721 1.391 . S
C1213 C250 1.453 . S
C1228 C735 1.518 . S
C1223 C289 1.643 . S
C1233 C523 1.543 . S
C1238 C660 1.510 . S
C1248 C649 1.510 . S
C1243 C55 1.513 . S
C1253 C99 1.510 . S
C1258 C659 1.507 . S
C1268 C635 1.434 . S
C1263 C21 1.436 . S
