# Generated by pormake.
# Topology zzz, (3,6)-cn, num edge types: 1
# Building blocks:
#     Node 0, Type 0, BuildingBlock: VETTIZ_charged_linker_0, # of connection points: 3
#     Node 1, Type 0, BuildingBlock: VETTIZ_charged_linker_0, # of connection points: 3
#     Node 2, Type 0, BuildingBlock: VETTIZ_charged_linker_0, # of connection points: 3
#     Node 3, Type 0, BuildingBlock: VETTIZ_charged_linker_0, # of connection points: 3
#     Node 4, Type 0, BuildingBlock: VETTIZ_charged_linker_0, # of connection points: 3
#     Node 5, Type 0, BuildingBlock: VETTIZ_charged_linker_0, # of connection points: 3
#     Node 6, Type 0, BuildingBlock: VETTIZ_charged_linker_0, # of connection points: 3
#     Node 7, Type 0, BuildingBlock: VETTIZ_charged_linker_0, # of connection points: 3
#     Node 8, Type 1, BuildingBlock: KUMBOL_clean_sbu_1, # of connection points: 6
#     Node 9, Type 1, BuildingBlock: KUMBOL_clean_sbu_1, # of connection points: 6
#     Node 10, Type 1, BuildingBlock: KUMBOL_clean_sbu_1, # of connection points: 6
#     Node 11, Type 1, BuildingBlock: KUMBOL_clean_sbu_1, # of connection points: 6
#     Edge 12, Type (0, 1), BuildingBlock: UVAHIK_clean_linker_0, # of connection points: 2
#     Edge 13, Type (0, 1), BuildingBlock: UVAHIK_clean_linker_0, # of connection points: 2
#     Edge 14, Type (0, 1), BuildingBlock: UVAHIK_clean_linker_0, # of connection points: 2
#     Edge 15, Type (0, 1), BuildingBlock: UVAHIK_clean_linker_0, # of connection points: 2
#     Edge 16, Type (0, 1), BuildingBlock: UVAHIK_clean_linker_0, # of connection points: 2
#     Edge 17, Type (0, 1), BuildingBlock: UVAHIK_clean_linker_0, # of connection points: 2
#     Edge 18, Type (0, 1), BuildingBlock: UVAHIK_clean_linker_0, # of connection points: 2
#     Edge 19, Type (0, 1), BuildingBlock: UVAHIK_clean_linker_0, # of connection points: 2
#     Edge 20, Type (0, 1), BuildingBlock: UVAHIK_clean_linker_0, # of connection points: 2
#     Edge 21, Type (0, 1), BuildingBlock: UVAHIK_clean_linker_0, # of connection points: 2
#     Edge 22, Type (0, 1), BuildingBlock: UVAHIK_clean_linker_0, # of connection points: 2
#     Edge 23, Type (0, 1), BuildingBlock: UVAHIK_clean_linker_0, # of connection points: 2
#     Edge 24, Type (0, 1), BuildingBlock: UVAHIK_clean_linker_0, # of connection points: 2
#     Edge 25, Type (0, 1), BuildingBlock: UVAHIK_clean_linker_0, # of connection points: 2
#     Edge 26, Type (0, 1), BuildingBlock: UVAHIK_clean_linker_0, # of connection points: 2
#     Edge 27, Type (0, 1), BuildingBlock: UVAHIK_clean_linker_0, # of connection points: 2
#     Edge 28, Type (0, 1), BuildingBlock: UVAHIK_clean_linker_0, # of connection points: 2
#     Edge 29, Type (0, 1), BuildingBlock: UVAHIK_clean_linker_0, # of connection points: 2
#     Edge 30, Type (0, 1), BuildingBlock: UVAHIK_clean_linker_0, # of connection points: 2
#     Edge 31, Type (0, 1), BuildingBlock: UVAHIK_clean_linker_0, # of connection points: 2
#     Edge 32, Type (0, 1), BuildingBlock: UVAHIK_clean_linker_0, # of connection points: 2
#     Edge 33, Type (0, 1), BuildingBlock: UVAHIK_clean_linker_0, # of connection points: 2
#     Edge 34, Type (0, 1), BuildingBlock: UVAHIK_clean_linker_0, # of connection points: 2
#     Edge 35, Type (0, 1), BuildingBlock: UVAHIK_clean_linker_0, # of connection points: 2
# Relax obj value: 0.294
# Max RMSD: 0.213
# Mean RMSD: 0.183
data_MOF--net-zzz--node1-KUMBOL_clean_sbu_1--node2-VETTIZ_charged_linker_0--edge1-UVAHIK_clean_linker_0
_symmetry_space_group_name_H-M    P1
_symmetry_Int_Tables_number       1
_symmetry_cell_setting            triclinic
loop_
_symmetry_equiv_pos_as_xyz
'x, y, z'
_cell_length_a     69.686836
_cell_length_b     69.836507
_cell_length_c     25.891897
_cell_angle_alpha  90.069823
_cell_angle_beta   89.899352
_cell_angle_gamma 90.480386
loop_
_atom_site_label
_atom_site_type_symbol
_atom_site_fract_x
_atom_site_fract_y
_atom_site_fract_z
_atom_type_partial_charge
C0 C 0.77599 0.53309 0.32969 0.0
C1 C 0.79315 0.54269 0.34665 0.0
C2 C 0.79788 0.56044 0.32406 0.0
C3 C 0.77234 0.5569 0.26254 0.0
C4 C 0.76527 0.54109 0.28792 0.0
C5 C 0.74562 0.53558 0.26468 0.0
H6 H 0.68464 0.5529 0.05575 0.0
C7 C 0.76095 0.56064 0.21659 0.0
C8 C 0.74431 0.54906 0.21746 0.0
H9 H 0.67052 0.51541 0.18236 0.0
H10 H 0.70187 0.52293 0.22321 0.0
H11 H 0.70338 0.587 0.11459 0.0
H12 H 0.72253 0.5362 0.0406 0.0
H13 H 0.74308 0.55064 0.03738 0.0
H14 H 0.72132 0.55822 1.00584 0.0
H15 H 0.70435 0.58332 0.04599 0.0
H16 H 0.72428 0.59372 0.08081 0.0
C17 C 0.7299 0.54007 0.30458 0.0
C18 C 0.74543 0.51439 0.24872 0.0
C19 C 0.79739 0.58559 0.06243 0.0
C20 C 0.79217 0.58698 1.01022 0.0
C21 C 0.77259 0.58752 0.99723 0.0
C22 C 0.75855 0.58428 0.03491 0.0
C23 C 0.76422 0.58009 0.08575 0.0
C24 C 0.78322 0.58192 0.09943 0.0
C25 C 0.78652 0.57784 0.15563 0.0
C26 C 0.76651 0.57076 0.17159 0.0
C27 C 0.75382 0.57183 0.13024 0.0
C28 C 0.79253 0.59698 0.18193 0.0
C29 C 0.80189 0.56202 0.16056 0.0
C30 C 0.68792 0.54651 0.09282 0.0
C31 C 0.67489 0.534 0.11615 0.0
C32 C 0.68026 0.52536 0.1636 0.0
C33 C 0.69831 0.52976 0.1873 0.0
C34 C 0.71116 0.54261 0.16275 0.0
C35 C 0.7056 0.55039 0.11587 0.0
C36 C 0.72081 0.56218 0.09101 0.0
C37 C 0.73596 0.56213 0.13236 0.0
C38 C 0.73087 0.55049 0.17507 0.0
C39 C 0.71287 0.58262 0.08213 0.0
C40 C 0.72729 0.55147 0.04108 0.0
H41 H 0.79101 0.58158 0.26934 0.0
H42 H 0.77119 0.52004 0.34831 0.0
H43 H 0.75744 0.51141 0.22164 0.0
H44 H 0.73185 0.51047 0.22915 0.0
H45 H 0.74702 0.50503 0.2831 0.0
H46 H 0.7309 0.55529 0.31706 0.0
H47 H 0.73147 0.53088 0.3393 0.0
H48 H 0.71539 0.53774 0.28856 0.0
H49 H 0.81233 0.58546 0.07368 0.0
H50 H 0.7682 0.58904 0.95733 0.0
H51 H 0.74394 0.58405 0.02221 0.0
H52 H 0.79538 0.60869 0.15377 0.0
H53 H 0.80606 0.59546 0.20408 0.0
H54 H 0.78106 0.60233 0.20797 0.0
H55 H 0.79757 0.54908 0.13819 0.0
H56 H 0.80426 0.55754 0.20082 0.0
H57 H 0.81602 0.56709 0.14598 0.0
H58 H 0.8103 0.56859 0.3368 0.0
C59 C 0.78725 0.56774 0.28352 0.0
C60 C 0.9492 0.78093 0.01582 0.0
C61 C 0.9473 0.8009 0.01893 0.0
C62 C 0.94552 0.80961 0.06768 0.0
C63 C 0.95201 0.7793 0.10872 0.0
C64 C 0.95167 0.77043 0.06124 0.0
C65 C 0.95507 0.74928 0.06524 0.0
H66 H 1.00554 0.6796 0.16757 0.0
C67 C 0.95888 0.7653 0.14683 0.0
C68 C 0.96046 0.74762 0.12243 0.0
H69 H 0.96315 0.67746 0.04524 0.0
H70 H 0.95118 0.70777 0.07235 0.0
H71 H 0.01757 0.72842 0.17247 0.0
H72 H 0.96857 0.70343 0.25334 0.0
H73 H 0.98573 0.71654 0.291 0.0
H74 H 0.99219 0.69386 0.2634 0.0
H75 H 0.02107 0.70865 0.21605 0.0
H76 H 0.01605 0.73211 0.24092 0.0
C77 C 0.97189 0.74389 0.02896 0.0
C78 C 0.93589 0.73894 0.05166 0.0
C79 C 0.98009 0.79367 0.31445 0.0
C80 C 0.99122 0.78828 0.35651 0.0
C81 C 0.99929 0.76961 0.35563 0.0
C82 C 0.99562 0.75669 0.31357 0.0
C83 C 0.9841 0.76266 0.27171 0.0
C84 C 0.97688 0.78109 0.27356 0.0
C85 C 0.96645 0.78667 0.22625 0.0
C86 C 0.96702 0.76828 0.19608 0.0
C87 C 0.97743 0.75374 0.22143 0.0
C88 C 0.9782 0.80314 0.19994 0.0
C89 C 0.94556 0.79184 0.24171 0.0
C90 C 0.99405 0.68606 0.14579 0.0
C91 C 0.98591 0.67635 0.10208 0.0
C92 C 0.97014 0.68466 0.0773 0.0
C93 C 0.96344 0.70251 0.09195 0.0
C94 C 0.97289 0.71287 0.13046 0.0
C95 C 0.9867 0.70438 0.16044 0.0
C96 C 0.99112 0.71731 0.20733 0.0
C97 C 0.97915 0.73534 0.19586 0.0
C98 C 0.96938 0.73233 0.14879 0.0
C99 C 0.0127 0.7219 0.20943 0.0
C100 C 0.98405 0.70724 0.2567 0.0
H101 H 0.94667 0.80646 0.14838 0.0
H102 H 0.9498 0.77387 0.97862 0.0
H103 H 0.92443 0.74895 0.03938 0.0
H104 H 0.92993 0.73112 0.08551 0.0
H105 H 0.93772 0.72879 0.01897 0.0
H106 H 0.98488 0.75259 0.03822 0.0
H107 H 0.96809 0.74642 0.98792 0.0
H108 H 0.97586 0.72869 0.03186 0.0
H109 H 0.97425 0.80799 0.31227 0.0
H110 H 1.00818 0.76499 0.38741 0.0
H111 H 1.00192 0.74268 0.31438 0.0
H112 H 0.99309 0.80436 0.21517 0.0
H113 H 0.97138 0.81727 0.2061 0.0
H114 H 0.98032 0.80079 0.15804 0.0
H115 H 0.94035 0.78266 0.27402 0.0
H116 H 0.93512 0.78931 0.2102 0.0
H117 H 0.94458 0.80699 0.25451 0.0
H118 H 0.94395 0.82498 0.07124 0.0
C119 C 0.94758 0.79884 0.1126 0.0
C120 C 0.84617 0.99222 0.15901 0.0
C121 C 0.85397 0.99077 0.10794 0.0
C122 C 0.84192 0.98504 0.06766 0.0
C123 C 0.81556 0.98029 0.127 0.0
C124 C 0.82644 0.98712 0.16752 0.0
C125 C 0.81413 0.98763 0.21715 0.0
H126 H 0.72473 0.96164 0.32054 0.0
C127 C 0.79667 0.97418 0.1463 0.0
C128 C 0.79453 0.97952 0.19841 0.0
H129 H 0.75611 0.01162 0.37071 0.0
H130 H 0.78034 1.00579 0.30306 0.0
H131 H 0.72334 0.97839 0.22556 0.0
H132 H 0.75873 0.93184 0.27339 0.0
H133 H 0.74819 0.92581 0.21343 0.0
H134 H 0.73302 0.93126 0.26787 0.0
H135 H 0.71538 0.95417 0.21779 0.0
H136 H 0.7284 0.96683 0.16771 0.0
C137 C 0.813 1.0084 0.23688 0.0
C138 C 0.82286 0.9744 0.25815 0.0
C139 C 0.75397 0.94049 0.01919 0.0
C140 C 0.73418 0.93726 0.02195 0.0
C141 C 0.72576 0.93347 0.07041 0.0
C142 C 0.73635 0.9365 0.11578 0.0
C143 C 0.7549 0.94455 0.11193 0.0
C144 C 0.7636 0.94563 0.06415 0.0
C145 C 0.78184 0.95693 0.06511 0.0
C146 C 0.7829 0.96244 0.12154 0.0
C147 C 0.76699 0.95558 0.14857 0.0
C148 C 0.77896 0.97511 0.03108 0.0
C149 C 0.79825 0.94334 0.04784 0.0
C150 C 0.73746 0.97067 0.32009 0.0
C151 C 0.73875 0.98649 0.35313 0.0
C152 C 0.75487 0.9989 0.34696 0.0
C153 C 0.76917 0.99534 0.30858 0.0
C154 C 0.76735 0.97938 0.27543 0.0
C155 C 0.75096 0.96806 0.28061 0.0
C156 C 0.74669 0.95673 0.2331 0.0
C157 C 0.76374 0.96179 0.19976 0.0
C158 C 0.77677 0.97441 0.22472 0.0
C159 C 0.72748 0.96419 0.20977 0.0
C160 C 0.7465 0.93523 0.24744 0.0
H161 H 0.81524 0.97556 0.04338 0.0
H162 H 0.85508 0.997 0.19076 0.0
H163 H 0.82434 0.95961 0.24279 0.0
H164 H 0.81352 0.97379 0.29296 0.0
H165 H 0.83729 0.97968 0.26994 0.0
H166 H 0.80233 0.01671 0.21455 0.0
H167 H 0.82715 0.01574 0.23336 0.0
H168 H 0.80939 1.00887 0.27843 0.0
H169 H 0.7608 0.94307 0.98215 0.0
H170 H 0.71053 0.93043 0.07357 0.0
H171 H 0.72906 0.93428 0.15177 0.0
H172 H 0.7639 0.98021 0.03343 0.0
H173 H 0.78229 0.97222 0.98987 0.0
H174 H 0.7874 0.98768 0.04423 0.0
H175 H 0.79402 0.92797 0.05056 0.0
H176 H 0.81109 0.9446 0.07278 0.0
H177 H 0.80247 0.94603 1.0071 0.0
H178 H 0.84731 0.98418 0.02837 0.0
C179 C 0.82306 0.97991 0.07674 0.0
C180 C 0.53293 0.75285 0.33278 0.0
C181 C 0.53987 0.73416 0.34541 0.0
C182 C 0.55371 0.72592 0.3133 0.0
C183 C 0.55334 0.75326 0.25638 0.0
C184 C 0.54029 0.76241 0.2878 0.0
C185 C 0.53571 0.78227 0.26523 0.0
H186 H 0.55665 0.84534 0.06224 0.0
C187 C 0.5578 0.76532 0.21141 0.0
C188 C 0.54811 0.7829 0.21565 0.0
H189 H 0.51416 0.85586 0.17952 0.0
H190 H 0.52231 0.82518 0.22179 0.0
H191 H 0.58971 0.82511 0.12967 0.0
H192 H 0.54111 0.80842 0.03947 0.0
H193 H 0.55585 0.78847 0.03458 0.0
H194 H 0.56423 0.81132 1.01039 0.0
H195 H 0.58834 0.82667 0.06055 0.0
H196 H 0.59706 0.80545 0.09219 0.0
C197 C 0.54189 0.79795 0.30361 0.0
C198 C 0.51416 0.78313 0.25284 0.0
C199 C 0.58885 0.73327 0.05912 0.0
C200 C 0.59218 0.73962 1.00844 0.0
C201 C 0.59354 0.75947 0.99915 0.0
C202 C 0.58886 0.77259 0.038 0.0
C203 C 0.58251 0.76574 0.08622 0.0
C204 C 0.58382 0.74652 0.09701 0.0
C205 C 0.57703 0.74177 0.15036 0.0
C206 C 0.56901 0.76096 0.16738 0.0
C207 C 0.57224 0.77483 0.12976 0.0
C208 C 0.59505 0.73603 0.18207 0.0
C209 C 0.56114 0.72603 0.14603 0.0
C210 C 0.5493 0.84144 0.09771 0.0
C211 C 0.53511 0.85327 0.11779 0.0
C212 C 0.52532 0.84704 0.16306 0.0
C213 C 0.52994 0.82926 0.18734 0.0
C214 C 0.54396 0.81729 0.165 0.0
C215 C 0.55306 0.82375 0.12048 0.0
C216 C 0.56534 0.80906 0.09591 0.0
C217 C 0.5634 0.79288 0.13396 0.0
C218 C 0.55102 0.79726 0.17576 0.0
C219 C 0.58622 0.81691 0.09396 0.0
C220 C 0.5564 0.80404 0.04229 0.0
H221 H 0.5705 0.7275 0.24733 0.0
H222 H 0.52232 0.75968 0.35696 0.0
H223 H 0.50988 0.77092 0.22766 0.0
H224 H 0.51043 0.79644 0.23237 0.0
H225 H 0.5055 0.78238 0.28889 0.0
H226 H 0.55736 0.79655 0.31319 0.0
H227 H 0.53349 0.79681 0.34002 0.0
H228 H 0.53972 0.81241 0.28728 0.0
H229 H 0.58789 0.71816 0.06809 0.0
H230 H 0.59671 0.7648 0.96077 0.0
H231 H 0.58918 0.78746 0.02779 0.0
H232 H 0.60872 0.74046 0.16305 0.0
H233 H 0.59573 0.72028 0.18761 0.0
H234 H 0.5955 0.74321 0.22032 0.0
H235 H 0.552 0.72847 0.11149 0.0
H236 H 0.55095 0.72582 0.17862 0.0
H237 H 0.56749 0.71157 0.1424 0.0
H238 H 0.55916 0.71172 0.32124 0.0
C239 C 0.56044 0.73527 0.26984 0.0
C240 C 0.34071 0.49528 0.08678 0.0
C241 C 0.35121 0.48592 0.127 0.0
C242 C 0.34385 0.4686 0.14674 0.0
C243 C 0.31491 0.47209 0.09721 0.0
C244 C 0.32256 0.48749 0.07103 0.0
C245 C 0.30904 0.49288 0.02635 0.0
H246 H 0.21793 0.47466 0.92286 0.0
C247 C 0.29536 0.46833 0.07967 0.0
C248 C 0.29154 0.47956 0.03569 0.0
H249 H 0.25918 0.51318 0.85409 0.0
H250 H 0.28231 0.50579 0.92409 0.0
H251 H 0.24424 0.44101 0.95436 0.0
H252 H 0.22156 0.49114 0.02273 0.0
H253 H 0.22676 0.47787 0.07797 0.0
H254 H 0.20968 0.46868 0.03142 0.0
H255 H 0.21987 0.44409 0.97516 0.0
H256 H 0.23778 0.4341 0.01733 0.0
C257 C 0.31895 0.48821 0.97478 0.0
C258 C 0.30364 0.51411 0.03021 0.0
C259 C 0.2483 0.44462 0.21352 0.0
C260 C 0.22812 0.44372 0.21223 0.0
C261 C 0.21895 0.4423 0.16383 0.0
C262 C 0.22942 0.44431 0.11823 0.0
C263 C 0.24907 0.44868 0.12086 0.0
C264 C 0.25845 0.44757 0.16744 0.0
C265 C 0.2796 0.45156 0.16203 0.0
C266 C 0.28054 0.45819 0.10558 0.0
C267 C 0.26256 0.45668 0.08255 0.0
C268 C 0.29031 0.43249 0.1718 0.0
C269 C 0.28542 0.46766 0.20027 0.0
C270 C 0.23205 0.4813 0.92151 0.0
C271 C 0.23674 0.49405 0.88209 0.0
C272 C 0.25513 0.50304 0.88384 0.0
C273 C 0.26852 0.49872 0.92411 0.0
C274 C 0.26328 0.48562 0.9634 0.0
C275 C 0.24505 0.47754 0.96098 0.0
C276 C 0.2401 0.46572 1.00661 0.0
C277 C 0.25883 0.46613 0.03546 0.0
C278 C 0.27286 0.47789 0.01139 0.0
C279 C 0.23507 0.44516 0.98772 0.0
C280 C 0.22368 0.47618 0.03627 0.0
H281 H 0.32157 0.448 0.14599 0.0
H282 H 0.34647 0.508 0.06842 0.0
H283 H 0.29724 0.51724 0.06864 0.0
H284 H 0.29302 0.51799 1.00033 0.0
H285 H 0.31653 0.52339 0.02507 0.0
H286 H 0.32337 0.47294 0.97381 0.0
H287 H 0.33199 0.49727 0.9695 0.0
H288 H 0.3093 0.4906 0.94164 0.0
H289 H 0.25589 0.4445 0.24993 0.0
H290 H 0.2035 0.44132 0.16068 0.0
H291 H 0.22149 0.44366 0.08293 0.0
H292 H 0.2807 0.42091 0.1865 0.0
H293 H 0.30165 0.43422 0.20156 0.0
H294 H 0.29683 0.42687 0.13568 0.0
H295 H 0.27665 0.48067 0.19369 0.0
H296 H 0.30065 0.47186 0.19666 0.0
H297 H 0.28334 0.463 0.24088 0.0
H298 H 0.35167 0.46065 0.1757 0.0
C299 C 0.32612 0.46152 0.13113 0.0
C300 C 0.07064 0.25337 0.2147 0.0
C301 C 0.07877 0.2351 0.21235 0.0
C302 C 0.08543 0.22817 0.16451 0.0
C303 C 0.0702 0.25477 0.12162 0.0
C304 C 0.06548 0.2624 0.16903 0.0
C305 C 0.05209 0.27902 0.16521 0.0
H306 H 0.04 0.35529 0.0432 0.0
C307 C 0.05979 0.26566 0.08208 0.0
C308 C 0.04897 0.27966 0.10714 0.0
H309 H 0.01727 0.33983 0.1937 0.0
H310 H 0.01787 0.30645 0.16951 0.0
H311 H 0.07077 0.31763 0.01687 0.0
H312 H 0.01012 0.31226 0.9788 0.0
H313 H 0.02816 0.31157 0.92859 0.0
H314 H 0.02278 0.33378 0.96 0.0
H315 H 0.05993 0.33568 0.97688 0.0
H316 H 0.06353 0.31188 0.95188 0.0
C317 C 0.06291 0.29684 0.18605 0.0
C318 C 0.0332 0.27438 0.19505 0.0
C319 C 0.05428 0.23742 0.90539 0.0
C320 C 0.03907 0.23837 0.87016 0.0
C321 C 0.02671 0.25443 0.87352 0.0
C322 C 0.02957 0.26896 0.91161 0.0
C323 C 0.04473 0.26732 0.94716 0.0
C324 C 0.05606 0.25106 0.94489 0.0
C325 C 0.06581 0.24711 0.9953 0.0
C326 C 0.05826 0.26332 0.0281 0.0
C327 C 0.04755 0.27639 0.99895 0.0
C328 C 0.08771 0.24902 0.98695 0.0
C329 C 0.05905 0.22705 0.01532 0.0
C330 C 0.03518 0.34466 0.0708 0.0
C331 C 0.02975 0.35016 0.12216 0.0
C332 C 0.02241 0.33602 0.15553 0.0
C333 C 0.02311 0.31675 0.14219 0.0
C334 C 0.03161 0.31149 0.09555 0.0
C335 C 0.035 0.32476 0.05748 0.0
C336 C 0.0397 0.31414 1.0068 0.0
C337 C 0.03959 0.29292 0.02406 0.0
C338 C 0.03805 0.29278 0.07804 0.0
C339 C 0.05967 0.32021 0.98694 0.0
C340 C 0.02424 0.31811 0.96617 0.0
H341 H 0.08628 0.23199 0.08339 0.0
H342 H 0.06595 0.25933 0.25123 0.0
H343 H 0.03276 0.25958 0.21076 0.0
H344 H 0.02044 0.27515 0.16953 0.0
H345 H 0.03117 0.28424 0.22828 0.0
H346 H 0.07553 0.30029 0.16129 0.0
H347 H 0.06815 0.29424 0.22593 0.0
H348 H 0.05387 0.30967 0.18831 0.0
H349 H 0.0632 0.22479 0.90677 0.0
H350 H 0.01449 0.25541 0.84793 0.0
H351 H 0.01915 0.28023 0.91553 0.0
H352 H 0.09116 0.26179 0.96287 0.0
H353 H 0.09344 0.23623 0.96679 0.0
H354 H 0.09564 0.25115 0.02348 0.0
H355 H 0.04549 0.22216 0.99675 0.0
H356 H 0.05535 0.22696 0.05681 0.0
H357 H 0.07001 0.21593 1.0078 0.0
H358 H 0.09202 0.21422 0.1616 0.0
C359 C 0.08164 0.23828 0.11902 0.0
C360 C 0.27604 0.03708 0.90656 0.0
C361 C 0.2932 0.04659 0.88952 0.0
C362 C 0.29794 0.06448 0.91144 0.0
C363 C 0.27261 0.06083 0.97377 0.0
C364 C 0.26536 0.04515 0.94826 0.0
C365 C 0.24569 0.03976 0.97157 0.0
H366 H 0.18335 0.05959 0.17637 0.0
C367 C 0.26119 0.06468 0.0194 0.0
C368 C 0.24429 0.05357 0.01812 0.0
H369 H 0.1717 0.01843 0.05635 0.0
H370 H 0.20262 0.02668 0.01431 0.0
H371 H 0.21784 0.04433 0.19998 0.0
H372 H 0.20414 0.09354 0.11493 0.0
H373 H 0.22424 0.09969 0.15303 0.0
H374 H 0.20298 0.09009 0.18366 0.0
H375 H 0.22229 0.06705 0.22822 0.0
H376 H 0.24096 0.05406 0.19469 0.0
C377 C 0.2457 0.0187 0.98865 0.0
C378 C 0.23 0.04383 0.93146 0.0
C379 C 0.29744 0.08004 0.18098 0.0
C380 C 0.29093 0.08154 0.23206 0.0
C381 C 0.27172 0.08602 0.24212 0.0
C382 C 0.25862 0.08705 0.20148 0.0
C383 C 0.26472 0.08234 0.15137 0.0
C384 C 0.28402 0.08043 0.14093 0.0
C385 C 0.28779 0.0767 0.08464 0.0
C386 C 0.26717 0.07394 0.06512 0.0
C387 C 0.254 0.07631 0.10518 0.0
C388 C 0.29985 0.05832 0.07845 0.0
C389 C 0.29818 0.09449 0.06202 0.0
C390 C 0.18703 0.05269 0.14018 0.0
C391 C 0.17483 0.03884 0.11912 0.0
C392 C 0.18077 0.02943 0.07321 0.0
C393 C 0.1986 0.03419 0.04892 0.0
C394 C 0.21082 0.04802 0.07177 0.0
C395 C 0.20479 0.05658 0.1173 0.0
C396 C 0.22 0.06834 0.14246 0.0
C397 C 0.23563 0.06756 0.10204 0.0
C398 C 0.23064 0.05561 0.05984 0.0
C399 C 0.22562 0.05812 0.1939 0.0
C400 C 0.2125 0.08902 0.14934 0.0
H401 H 0.29056 0.08596 0.96642 0.0
H402 H 0.27123 0.02398 0.88816 0.0
H403 H 0.23093 0.05895 0.91819 0.0
H404 H 0.21548 0.04153 0.94762 0.0
H405 H 0.23167 0.03437 0.89723 0.0
H406 H 0.2578 0.01603 0.01555 0.0
H407 H 0.2473 0.00908 0.95472 0.0
H408 H 0.23224 0.01479 1.00885 0.0
H409 H 0.31236 0.07694 0.17304 0.0
H410 H 0.26666 0.08752 0.2815 0.0
H411 H 0.24406 0.09034 0.21088 0.0
H412 H 0.29248 0.04588 0.09679 0.0
H413 H 0.31422 0.06009 0.09637 0.0
H414 H 0.30241 0.0548 0.03735 0.0
H415 H 0.30654 0.10239 0.09191 0.0
H416 H 0.2878 0.10473 0.04518 0.0
H417 H 0.30895 0.09046 0.03245 0.0
H418 H 0.31019 0.07263 0.89749 0.0
C419 C 0.28742 0.0718 0.95261 0.0
C420 C 0.49288 0.27569 0.90125 0.0
C421 C 0.48227 0.29146 0.88046 0.0
C422 C 0.46286 0.29338 0.8951 0.0
C423 C 0.46667 0.26918 0.95947 0.0
C424 C 0.4841 0.26393 0.93998 0.0
C425 C 0.49013 0.24507 0.96627 0.0
H426 H 0.47079 0.18831 0.18374 0.0
C427 C 0.46266 0.25872 1.00632 0.0
C428 C 0.47511 0.24307 1.0102 0.0
H429 H 0.50769 0.17067 0.05903 0.0
H430 H 0.50136 0.20128 0.01378 0.0
H431 H 0.48663 0.22532 0.1956 0.0
H432 H 0.43682 0.20501 0.12046 0.0
H433 H 0.43014 0.2264 0.15165 0.0
H434 H 0.44056 0.20731 0.18884 0.0
H435 H 0.46394 0.22823 0.22593 0.0
H436 H 0.47464 0.24706 0.18731 0.0
C437 C 0.51064 0.24666 0.98746 0.0
C438 C 0.48811 0.22877 0.9266 0.0
C439 C 0.4436 0.30088 0.1544 0.0
C440 C 0.44209 0.29696 0.20734 0.0
C441 C 0.43956 0.27793 0.2239 0.0
C442 C 0.44079 0.26286 0.18864 0.0
C443 C 0.44513 0.26692 0.13685 0.0
C444 C 0.44515 0.28561 0.11971 0.0
C445 C 0.4492 0.28706 0.06289 0.0
C446 C 0.45326 0.266 0.05025 0.0
C447 C 0.45198 0.25472 0.09442 0.0
C448 C 0.46704 0.30005 0.05418 0.0
C449 C 0.43114 0.29509 0.0361 0.0
C450 C 0.47726 0.19054 0.1461 0.0
C451 C 0.48922 0.17667 0.12468 0.0
C452 C 0.49811 0.18095 0.07648 0.0
C453 C 0.49432 0.19852 0.05004 0.0
C454 C 0.48168 0.21195 0.0722 0.0
C455 C 0.47374 0.20761 0.11996 0.0
C456 C 0.46169 0.22321 0.14127 0.0
C457 C 0.46171 0.23701 0.09654 0.0
C458 C 0.4737 0.23098 0.05548 0.0
C459 C 0.47207 0.23141 0.18999 0.0
C460 C 0.44122 0.21514 0.15156 0.0
H461 H 0.43993 0.28308 0.94289 0.0
H462 H 0.50732 0.27282 0.88811 0.0
H463 H 0.47323 0.22811 0.91117 0.0
H464 H 0.49128 0.2147 0.94374 0.0
H465 H 0.49809 0.23111 0.89364 0.0
H466 H 0.51184 0.25886 0.0149 0.0
H467 H 0.52108 0.24899 0.95555 0.0
H468 H 0.51463 0.23338 1.00817 0.0
H469 H 0.44524 0.31547 0.14088 0.0
H470 H 0.43786 0.27469 0.26458 0.0
H471 H 0.43931 0.24863 0.20351 0.0
H472 H 0.47974 0.29422 0.07463 0.0
H473 H 0.46448 0.31481 0.06839 0.0
H474 H 0.47073 0.30145 0.01281 0.0
H475 H 0.42276 0.30451 0.06226 0.0
H476 H 0.42139 0.28335 0.02325 0.0
H477 H 0.43495 0.30434 1.0028 0.0
H478 H 0.45393 0.30438 0.87838 0.0
C479 C 0.45494 0.28194 0.93364 0.0
C480 C 0.05975 0.0389 0.71279 0.0
C481 C 0.04732 0.04339 0.79943 0.0
C482 C 0.04694 0.03369 0.75161 0.0
C483 C 0.06021 0.05872 0.80682 0.0
C484 C 0.07322 0.05376 0.72075 0.0
C485 C 0.07318 0.06384 0.76768 0.0
N486 N 0.05903 0.02937 0.66704 0.0
C487 C 0.07225 0.03286 0.62919 0.0
C488 C 0.08635 0.05801 0.68125 0.0
C489 C 0.08598 0.04738 0.63547 0.0
Gd490 Gd 0.99262 0.01968 0.57471 0.0
Gd491 Gd 0.03638 1.00467 0.66079 0.0
N492 N 0.03485 0.01856 0.74362 0.0
C493 C 0.03519 0.03697 0.83901 0.0
C494 C 0.02439 0.01121 0.78372 0.0
C495 C 0.02393 0.0206 0.8314 0.0
H496 H 0.01681 0.99779 0.77991 0.0
H497 H 0.01523 0.01493 0.8626 0.0
H498 H 0.01114 0.00953 0.45945 0.0
H499 H 0.07212 0.02446 0.59415 0.0
H500 H 1.00367 0.98897 0.38435 0.0
H501 H 0.03502 0.04406 0.87626 0.0
H502 H 0.06058 0.06642 0.84317 0.0
H503 H 0.95351 0.01784 0.65247 0.0
H504 H 0.09695 0.06932 0.68593 0.0
H505 H 0.09627 0.05034 0.60511 0.0
H506 H 0.94397 0.95855 0.43001 0.0
H507 H 0.08327 0.07547 0.77433 0.0
H508 H 0.91456 0.97638 0.59022 0.0
H509 H 0.9233 0.99963 0.65853 0.0
N510 N 0.96307 1.00356 0.58444 0.0
C511 C 0.95808 0.99159 0.54515 0.0
C512 C 0.95051 1.007 0.62388 0.0
C513 C 0.92817 0.98396 0.58809 0.0
C514 C 0.93308 0.997 0.62683 0.0
C515 C 0.94054 0.98137 0.54608 0.0
H516 H 0.92233 0.96124 0.50482 0.0
N517 N 0.98693 1.00018 0.50286 0.0
C518 C 0.97022 0.99007 0.50281 0.0
C519 C 0.97761 0.97768 0.41794 0.0
C520 C 0.96523 0.9783 0.46057 0.0
C521 C 0.99854 1.00048 0.46033 0.0
C522 C 0.99424 0.98899 0.41761 0.0
O523 O 0.03218 0.03628 0.63829 0.0
O524 O 0.99988 0.03896 0.64218 0.0
O525 O 0.99598 0.04303 0.52093 0.0
O526 O 0.96791 0.03657 0.55266 0.0
O527 O 1.00696 0.99561 0.69224 0.0
O528 O 0.98744 0.01939 0.66167 0.0
O529 O 1.00389 0.98929 0.56236 0.0
O530 O 0.01632 0.98001 0.6406 0.0
O531 O 0.05305 0.98911 0.7173 0.0
O532 O 0.06044 0.98734 0.63638 0.0
O533 O 0.02239 0.02684 0.54317 0.0
O534 O 0.04125 1.00271 0.57435 0.0
C535 C 0.01692 0.04662 0.64853 0.0
C536 C 0.99132 1.00604 0.69594 0.0
C537 C 0.9764 0.06919 0.54009 0.0
C538 C 0.98838 0.10177 0.52993 0.0
C539 C 0.96301 0.09493 0.59166 0.0
C540 C 0.96345 0.07557 0.57799 0.0
C541 C 0.9755 0.108 0.56802 0.0
C542 C 0.98862 0.08242 0.516 0.0
C543 C 0.97839 0.0488 0.52699 0.0
C544 C 0.94801 0.96775 0.46198 0.0
C545 C 0.93571 0.96926 0.50464 0.0
H546 H 0.97428 0.96881 0.38472 0.0
C547 C 0.00914 0.97584 0.59494 0.0
C548 C 0.03743 0.01562 0.53901 0.0
C549 C 0.06379 0.95945 0.68519 0.0
C550 C 0.0486 0.92903 0.70681 0.0
C551 C 0.07846 0.92963 0.65856 0.0
C552 C 0.07866 0.94962 0.66037 0.0
C553 C 0.06343 0.91935 0.68136 0.0
C554 C 0.04883 0.94907 0.70878 0.0
C555 C 0.06322 0.98042 0.68235 0.0
H556 H 0.95307 0.09979 0.62093 0.0
H557 H 0.95389 0.06564 0.59751 0.0
H558 H 0.97499 0.12295 0.57913 0.0
H559 H 0.99884 0.0775 0.48734 0.0
H560 H 0.08991 0.9221 0.63911 0.0
H561 H 0.09021 0.95742 0.6416 0.0
H562 H 0.06346 0.90385 0.67962 0.0
H563 H 0.03706 0.9565 0.72731 0.0
C564 C 0.51199 0.94572 0.59477 0.0
C565 C 0.48508 0.93447 0.64646 0.0
C566 C 0.49461 0.94934 0.61954 0.0
C567 C 0.4935 0.91631 0.64965 0.0
C568 C 0.5201 0.92729 0.59639 0.0
C569 C 0.51091 0.91272 0.62459 0.0
N570 N 0.52075 0.96005 0.5681 0.0
C571 C 0.53689 0.95671 0.53955 0.0
C572 C 0.53709 0.92395 0.56895 0.0
C573 C 0.5454 0.93868 0.53996 0.0
Gd574 Gd 0.51855 0.0338 0.6578 0.0
Gd575 Gd 0.50577 0.98979 0.57165 0.0
N576 N 0.48665 0.96706 0.61554 0.0
C577 C 0.46709 0.93812 0.66817 0.0
C578 C 0.46837 0.97003 0.63258 0.0
C579 C 0.45855 0.95585 0.66031 0.0
H580 H 0.46084 0.98284 0.62315 0.0
H581 H 0.4442 0.95848 0.67456 0.0
H582 H 0.56004 0.05279 0.61572 0.0
H583 H 0.54332 0.968 0.51665 0.0
H584 H 0.57186 0.08322 0.5794 0.0
H585 H 0.45934 0.92708 0.68915 0.0
H586 H 0.48641 0.9048 0.67046 0.0
H587 H 0.47841 0.0445 0.72558 0.0
H588 H 0.54372 0.90997 0.56916 0.0
H589 H 0.55834 0.93616 0.51786 0.0
H590 H 0.51861 0.12575 0.5986 0.0
H591 H 0.51701 0.89852 0.62656 0.0
H592 H 0.46379 0.10245 0.69191 0.0
H593 H 0.45621 0.07151 0.73404 0.0
N594 N 0.49748 0.05921 0.67463 0.0
C595 C 0.50235 0.07635 0.65323 0.0
C596 C 0.48151 0.05757 0.70496 0.0
C597 C 0.47336 0.09044 0.68687 0.0
C598 C 0.46903 0.073 0.71069 0.0
C599 C 0.49042 0.09243 0.65871 0.0
H600 H 0.48712 0.12256 0.64104 0.0
N601 N 0.53147 0.0626 0.62633 0.0
C602 C 0.51996 0.07812 0.62866 0.0
C603 C 0.54494 0.09767 0.59018 0.0
C604 C 0.52627 0.09605 0.60985 0.0
C605 C 0.55018 0.06449 0.61141 0.0
C606 C 0.55709 0.0819 0.59202 0.0
O607 O 0.51983 0.98208 0.64832 0.0
O608 O 0.50977 1.00653 0.70056 0.0
O609 O 0.54476 0.02739 0.69844 0.0
O610 O 0.52437 0.04882 0.72923 0.0
O611 O 0.48088 0.00945 0.5957 0.0
O612 O 0.49085 0.01834 0.67604 0.0
O613 O 0.50437 0.04216 0.58262 0.0
O614 O 0.51321 0.01755 0.52891 0.0
O615 O 0.48555 0.97554 0.52086 0.0
O616 O 0.5126 0.98628 0.49061 0.0
O617 O 0.54118 0.025 0.59795 0.0
O618 O 0.53768 0.99272 0.58587 0.0
C619 C 0.51623 0.98896 0.69466 0.0
C620 C 0.47698 0.01577 0.64261 0.0
C621 C 0.55322 0.04335 0.77862 0.0
C622 C 0.58409 0.03896 0.81938 0.0
C623 C 0.55953 0.05755 0.86246 0.0
C624 C 0.54712 0.05426 0.82107 0.0
C625 C 0.578 0.04995 0.86172 0.0
C626 C 0.57169 0.03584 0.7779 0.0
C627 C 0.54061 0.03987 0.73462 0.0
C628 C 0.51408 0.1119 0.61324 0.0
C629 C 0.49616 0.11008 0.63748 0.0
H630 H 0.55037 0.11122 0.57566 0.0
C631 C 0.50755 0.03534 0.5361 0.0
C632 C 0.54836 1.00824 0.58544 0.0
C633 C 0.48564 0.98938 0.43751 0.0
C634 C 0.45807 1.00679 0.40543 0.0
C635 C 0.487 1.00485 0.3536 0.0
C636 C 0.49561 0.99377 0.39179 0.0
C637 C 0.46834 0.01148 0.36048 0.0
C638 C 0.46671 0.99575 0.4438 0.0
C639 C 0.49562 0.97949 0.47962 0.0
H640 H 0.55478 0.06586 0.89532 0.0
H641 H 0.53281 0.06017 0.82234 0.0
H642 H 0.58733 0.05228 0.89459 0.0
H643 H 0.57653 0.02757 0.74493 0.0
H644 H 0.49485 1.00841 0.31877 0.0
H645 H 0.51023 0.98904 0.38622 0.0
H646 H 0.46181 0.02001 0.33045 0.0
H647 H 0.45876 0.99258 0.47887 0.0
C648 C 0.46131 0.49402 0.69515 0.0
C649 C 0.4686 0.48527 0.78373 0.0
C650 C 0.47302 0.49549 0.73827 0.0
C651 C 0.45256 0.47298 0.78462 0.0
C652 C 0.44477 0.48225 0.69664 0.0
C653 C 0.4407 0.47145 0.74115 0.0
N654 N 0.46545 0.50496 0.65303 0.0
C655 C 0.45261 0.50607 0.61334 0.0
C656 C 0.43245 0.48218 0.65407 0.0
C657 C 0.43622 0.4944 0.61264 0.0
Gd658 Gd 0.53659 0.50523 0.5737 0.0
Gd659 Gd 0.4939 0.5234 0.65842 0.0
N660 N 0.4886 0.50724 0.73608 0.0
C661 C 0.48032 0.4879 0.82712 0.0
C662 C 0.49953 0.51061 0.77884 0.0
C663 C 0.49573 0.50079 0.8248 0.0
H664 H 0.51111 0.52092 0.7776 0.0
H665 H 0.50462 0.50327 0.85844 0.0
H666 H 0.51685 0.50382 0.45337 0.0
H667 H 0.45447 0.51634 0.5828 0.0
H668 H 0.5191 0.52196 0.37269 0.0
H669 H 0.47739 0.48032 0.86279 0.0
H670 H 0.44902 0.46487 0.81903 0.0
H671 H 0.5737 0.51974 0.64598 0.0
H672 H 0.41959 0.47335 0.65372 0.0
H673 H 0.4263 0.49514 0.5806 0.0
H674 H 0.57148 0.56558 0.40056 0.0
H675 H 0.42812 0.46224 0.7428 0.0
H676 H 0.60497 0.56234 0.56165 0.0
H677 H 0.60057 0.54275 0.64038 0.0
N678 N 0.56213 0.52717 0.57279 0.0
C679 C 0.56483 0.537 0.52803 0.0
C680 C 0.57504 0.52865 0.6122 0.0
C681 C 0.59297 0.55242 0.56417 0.0
C682 C 0.59048 0.54147 0.6088 0.0
C683 C 0.58018 0.55016 0.52291 0.0
H684 H 0.59395 0.57081 0.47237 0.0
N685 N 0.53776 0.5207 0.49292 0.0
C686 C 0.55207 0.53398 0.48746 0.0
C687 C 0.54205 0.54017 0.39977 0.0
C688 C 0.55448 0.54416 0.44081 0.0
C689 C 0.52658 0.51582 0.45162 0.0
C690 C 0.52823 0.52574 0.40498 0.0
O691 O 0.50602 0.49409 0.67787 0.0
O692 O 0.51453 0.48272 0.59861 0.0
O693 O 0.55144 0.48879 0.51526 0.0
O694 O 0.55885 0.48529 0.59571 0.0
O695 O 0.52407 0.52981 0.68876 0.0
O696 O 0.5419 0.50438 0.66017 0.0
O697 O 0.53376 0.53746 0.59129 0.0
O698 O 0.50156 0.54058 0.58763 0.0
O699 O 0.49763 0.55012 0.69936 0.0
O700 O 0.46862 0.53975 0.68038 0.0
O701 O 0.50715 0.49765 0.53947 0.0
O702 O 0.48769 0.5214 0.57198 0.0
C703 C 0.50922 0.47959 0.64672 0.0
C704 C 0.53839 0.51778 0.69467 0.0
C705 C 0.56038 0.45797 0.54318 0.0
C706 C 0.54498 0.42892 0.51155 0.0
C707 C 0.57313 0.4269 0.56612 0.0
C708 C 0.57405 0.44685 0.56881 0.0
C709 C 0.55858 0.41793 0.53787 0.0
C710 C 0.54587 0.44892 0.51425 0.0
C711 C 0.56101 0.47889 0.54888 0.0
C712 C 0.56948 0.55761 0.43606 0.0
C713 C 0.58231 0.56056 0.47691 0.0
H714 H 0.54344 0.54767 0.36333 0.0
C715 C 0.51867 0.54792 0.58048 0.0
C716 C 0.49153 0.50824 0.53681 0.0
C717 C 0.47121 0.57012 0.7262 0.0
C718 C 0.47649 0.60038 0.77067 0.0
C719 C 0.44414 0.59009 0.74875 0.0
C720 C 0.45137 0.57339 0.72658 0.0
C721 C 0.45662 0.60359 0.77061 0.0
C722 C 0.48365 0.58362 0.74837 0.0
C723 C 0.4792 0.55306 0.70141 0.0
H724 H 0.58364 0.41837 0.58622 0.0
H725 H 0.5853 0.45361 0.59139 0.0
H726 H 0.55796 0.40243 0.53631 0.0
H727 H 0.53501 0.4573 0.49488 0.0
H728 H 0.42884 0.59261 0.74881 0.0
H729 H 0.4415 0.56316 0.70943 0.0
H730 H 0.45075 0.61644 0.78769 0.0
H731 H 0.49902 0.58134 0.74723 0.0
C732 C 0.03028 0.46248 0.70431 0.0
C733 C 0.03262 0.471 0.79518 0.0
C734 C 0.02579 0.47468 0.74493 0.0
C735 C 0.04457 0.45526 0.80374 0.0
C736 C 0.04167 0.44622 0.71337 0.0
C737 C 0.04907 0.44289 0.76296 0.0
N738 N 0.02266 0.46589 0.6568 0.0
C739 C 0.02474 0.45277 0.61801 0.0
C740 C 0.04478 0.43339 0.67275 0.0
C741 C 0.03605 0.43655 0.62512 0.0
Gd742 Gd 0.0241 0.53743 0.57045 0.0
Gd743 Gd 1.00402 0.4938 0.65045 0.0
N744 N 0.01415 0.48978 0.73571 0.0
C745 C 0.02682 0.48297 0.83562 0.0
C746 C 1.00739 0.50063 0.77547 0.0
C747 C 0.0139 0.49768 0.82581 0.0
H748 H 0.99658 0.51124 0.76887 0.0
H749 H 0.0087 0.50655 0.85708 0.0
H750 H 0.02801 0.52053 0.44723 0.0
H751 H 0.01732 0.45426 0.58183 0.0
H752 H 0.01209 0.5251 0.36402 0.0
H753 H 0.03173 0.48059 0.87476 0.0
H754 H 0.05004 0.45227 0.84202 0.0
H755 H 1.00822 0.57267 0.64652 0.0
H756 H 0.05335 0.42069 0.67825 0.0
H757 H 0.03776 0.42632 0.59405 0.0
H758 H 0.96759 0.57572 0.39482 0.0
H759 H 0.05792 0.43053 0.77047 0.0
H760 H 0.96687 0.60478 0.56235 0.0
H761 H 0.98506 0.59901 0.64269 0.0
N762 N 1.00185 0.56233 0.57118 0.0
C763 C 0.99292 0.56592 0.52557 0.0
C764 C 0.99973 0.57441 0.61222 0.0
C765 C 0.97674 0.5929 0.56424 0.0
C766 C 0.98689 0.58963 0.60976 0.0
C767 C 0.97988 0.58117 0.52119 0.0
H768 H 0.96048 0.596 0.46998 0.0
N769 N 0.01016 0.54015 0.48796 0.0
C770 C 0.99693 0.55433 0.48315 0.0
C771 C 0.99313 0.54688 0.39251 0.0
C772 C 0.98797 0.55793 0.43533 0.0
C773 C 0.01612 0.53026 0.44535 0.0
C774 C 1.00744 0.53317 0.39742 0.0
O775 O 0.03414 0.50426 0.67185 0.0
O776 O 0.04578 0.5149 0.59408 0.0
O777 O 0.04109 0.55343 0.51521 0.0
O778 O 0.04416 0.55941 0.59672 0.0
O779 O 0.99816 0.52391 0.68183 0.0
O780 O 0.02478 0.54118 0.65751 0.0
O781 O 0.99171 0.53407 0.58494 0.0
O782 O 0.98937 0.50211 0.57648 0.0
O783 O 0.97489 0.4964 0.67775 0.0
O784 O 0.98689 0.46825 0.66424 0.0
O785 O 0.03104 0.50877 0.53151 0.0
O786 O 0.00979 0.48625 0.56609 0.0
C787 C 0.04872 0.50863 0.64137 0.0
C788 C 0.01079 0.53775 0.69049 0.0
C789 C 0.07067 0.56629 0.54265 0.0
C790 C 0.10181 0.55564 0.51111 0.0
C791 C 0.09777 0.5882 0.54289 0.0
C792 C 0.07853 0.58435 0.5535 0.0
C793 C 0.10932 0.57405 0.52143 0.0
C794 C 0.08232 0.55188 0.5219 0.0
C795 C 0.05003 0.56338 0.55022 0.0
C796 C 0.97462 0.57281 0.43124 0.0
C797 C 0.97059 0.58439 0.47401 0.0
H798 H 0.98662 0.54926 0.35512 0.0
C799 C 0.9816 0.51893 0.57147 0.0
C800 C 0.02216 0.49192 0.53035 0.0
C801 C 0.96329 0.47106 0.73 0.0
C802 C 0.93996 0.47627 0.79839 0.0
C803 C 0.95554 0.4455 0.79033 0.0
C804 C 0.96589 0.45223 0.74767 0.0
C805 C 0.94246 0.4574 0.81539 0.0
C806 C 0.95041 0.48301 0.75592 0.0
C807 C 0.97244 0.47793 0.68217 0.0
H808 H 0.1037 0.60229 0.55059 0.0
H809 H 0.06965 0.59561 0.56928 0.0
H810 H 0.12405 0.57768 0.51216 0.0
H811 H 0.07616 0.53788 0.51411 0.0
H812 H 0.95743 0.43093 0.80347 0.0
H813 H 0.9756 0.44261 0.72805 0.0
H814 H 0.93428 0.4519 0.84785 0.0
H815 H 0.94788 0.49739 0.74181 0.0
C816 C 0.14389 0.04851 0.16168 0.0
C817 C 0.15703 0.03398 0.14922 0.0
C818 C 0.12987 0.0458 0.20018 0.0
C819 C 0.12062 0.01713 0.3189 0.0
H820 H 0.06946 0.03812 0.31023 0.0
C821 C 0.06501 1.00407 0.48365 0.0
C822 C 0.05063 0.01766 0.4933 0.0
C823 C 0.07731 1.00576 0.44072 0.0
C824 C 0.08375 0.03238 0.31407 0.0
H825 H 0.16554 1.00512 0.16784 0.0
H826 H 0.14093 1.00018 0.23457 0.0
H827 H 0.09131 0.04122 0.23715 0.0
H828 H 0.03825 0.04395 0.46473 0.0
H829 H 0.05996 0.04733 0.39135 0.0
H830 H 0.1135 1.00884 0.3961 0.0
C831 C 0.14143 0.01375 0.21439 0.0
C832 C 0.09634 0.03409 0.27162 0.0
C833 C 0.15535 0.01641 0.17538 0.0
C834 C 0.04905 0.03311 0.45867 0.0
C835 C 0.06152 0.03494 0.416 0.0
C836 C 0.10815 0.01563 0.36155 0.0
C837 C 0.1287 0.02855 0.22822 0.0
C838 C 0.11498 0.02641 0.27317 0.0
C839 C 0.07592 0.02128 0.40601 0.0
C840 C 0.08939 0.02314 0.36007 0.0
H841 H 0.14509 0.06239 0.14326 0.0
H842 H 0.12058 0.05765 0.20977 0.0
H843 H 0.13494 0.01138 0.32236 0.0
H844 H 0.06669 0.99189 0.50907 0.0
H845 H 0.08774 0.9946 0.43456 0.0
C846 C 0.47572 0.14962 0.17848 0.0
C847 C 0.49182 0.15836 0.15486 0.0
C848 C 0.47774 0.13514 0.21553 0.0
C849 C 0.51197 0.10008 0.27446 0.0
H850 H 0.47702 0.10362 0.39063 0.0
C851 C 0.50992 0.04249 0.43983 0.0
C852 C 0.5059 0.04865 0.49056 0.0
C853 C 0.50839 0.05507 0.39745 0.0
C854 C 0.48708 0.10239 0.35891 0.0
H855 H 0.52279 0.15753 0.1503 0.0
H856 H 0.52642 0.1319 0.21462 0.0
H857 H 0.47466 0.12632 0.32011 0.0
H858 H 0.49712 0.07331 0.5355 0.0
H859 H 0.4951 0.09516 0.46288 0.0
H860 H 0.52467 0.07635 0.31423 0.0
C861 C 0.5121 0.13646 0.20448 0.0
C862 C 0.48553 0.11537 0.31767 0.0
C863 C 0.51005 0.15113 0.16723 0.0
C864 C 0.50039 0.06786 0.49738 0.0
C865 C 0.49902 0.08046 0.45521 0.0
C866 C 0.51351 0.08702 0.31585 0.0
C867 C 0.49598 0.12864 0.23053 0.0
C868 C 0.49791 0.1145 0.27455 0.0
C869 C 0.50291 0.07434 0.40431 0.0
C870 C 0.50114 0.08799 0.35906 0.0
H871 H 0.46139 0.15454 0.16966 0.0
H872 H 0.46488 0.12925 0.23312 0.0
H873 H 0.52172 0.09873 0.24208 0.0
H874 H 0.51428 0.02789 0.43273 0.0
H875 H 0.51129 0.04956 0.35916 0.0
C876 C 0.38517 0.4807 0.15619 0.0
C877 C 0.36944 0.49316 0.15162 0.0
C878 C 0.39961 0.48379 0.19322 0.0
C879 C 0.40795 0.51003 0.31877 0.0
H880 H 0.4591 0.48924 0.30537 0.0
C881 C 0.46549 0.52159 0.47925 0.0
C882 C 0.47845 0.50676 0.49049 0.0
C883 C 0.45307 0.52051 0.43657 0.0
C884 C 0.44483 0.49499 0.31023 0.0
H885 H 0.3574 0.51937 0.18137 0.0
H886 H 0.38309 0.52551 0.24388 0.0
H887 H 0.43707 0.48764 0.23255 0.0
H888 H 0.48843 0.47917 0.46391 0.0
H889 H 0.46684 0.47725 0.38942 0.0
H890 H 0.41575 0.5174 0.3964 0.0
C891 C 0.38401 0.51287 0.21984 0.0
C892 C 0.43205 0.49408 0.26806 0.0
C893 C 0.36942 0.50965 0.18289 0.0
C894 C 0.47871 0.49089 0.45682 0.0
C895 C 0.46631 0.48985 0.41374 0.0
C896 C 0.42076 0.51103 0.36076 0.0
C897 C 0.39904 0.49961 0.22713 0.0
C898 C 0.41327 0.50151 0.27144 0.0
C899 C 0.45313 0.5046 0.40298 0.0
C900 C 0.43945 0.50349 0.35749 0.0
H901 H 0.38553 0.46764 0.13356 0.0
H902 H 0.41058 0.47302 0.19713 0.0
H903 H 0.39363 0.51556 0.3242 0.0
H904 H 0.46497 0.53424 0.5034 0.0
H905 H 0.44356 0.5324 0.42956 0.0
C906 C 0.01843 0.38323 0.14731 0.0
C907 C 0.03306 0.36944 0.14635 0.0
C908 C 0.01845 0.39804 0.18463 0.0
C909 C 0.03605 0.40753 0.31822 0.0
H910 H 0.02061 0.45987 0.29388 0.0
C911 C 0.03819 0.46437 0.48429 0.0
C912 C 0.02468 0.47919 0.48429 0.0
C913 C 0.03969 0.45169 0.44203 0.0
C914 C 0.02469 0.44526 0.30191 0.0
H915 H 0.0592 0.36067 0.1841 0.0
H916 H 0.05942 0.38636 0.24824 0.0
H917 H 0.02241 0.4374 0.22168 0.0
H918 H 1.00158 0.49175 0.44064 0.0
H919 H 1.00425 0.47007 0.36694 0.0
H920 H 0.03781 0.41501 0.39835 0.0
C921 C 0.04794 0.38592 0.2201 0.0
C922 C 0.02581 0.43233 0.26007 0.0
C923 C 0.04805 0.37137 0.18247 0.0
C924 C 0.01255 0.48086 0.44121 0.0
C925 C 0.01412 0.46831 0.39877 0.0
C926 C 0.03472 0.42036 0.36008 0.0
C927 C 0.03285 0.39919 0.22292 0.0
C928 C 0.03162 0.41324 0.2674 0.0
C929 C 0.02769 0.45338 0.39824 0.0
C930 C 0.02909 0.43956 0.35292 0.0
H931 H 1.00629 0.3818 0.1215 0.0
H932 H 1.00651 0.40785 0.18548 0.0
H933 H 0.04019 0.39291 0.32598 0.0
H934 H 0.04752 0.46248 0.51727 0.0
H935 H 0.05047 0.44065 0.44372 0.0
C936 C 0.8859 0.97875 0.0799 0.0
C937 C 0.87425 0.99456 0.09172 0.0
C938 C 0.90061 0.98009 0.04268 0.0
C939 C 0.92824 0.01495 0.95797 0.0
H940 H 0.93341 0.97069 0.8687 0.0
C941 C 0.96729 0.01967 0.75908 0.0
C942 C 0.97863 1.0042 0.74274 0.0
C943 C 0.9557 0.01833 0.80349 0.0
C944 C 0.93239 0.98315 0.89345 0.0
H945 H 0.86955 0.02436 0.07401 0.0
H946 H 0.89534 0.027 1.0106 0.0
H947 H 0.91242 0.969 0.9439 0.0
H948 H 0.98638 0.97501 0.76079 0.0
H949 H 0.96622 0.97261 0.83818 0.0
H950 H 0.94794 0.02918 0.90676 0.0
C951 C 0.89342 0.0135 0.03045 0.0
C952 C 0.92031 0.98217 0.93709 0.0
C953 C 0.87871 0.01211 0.06772 0.0
C954 C 0.97789 0.98724 0.7721 0.0
C955 C 0.96619 0.98585 0.81646 0.0
C956 C 0.94024 0.01595 0.9142 0.0
C957 C 0.90415 0.99731 0.01564 0.0
C958 C 0.91791 0.99808 0.97019 0.0
C959 C 0.95494 1.00142 0.83314 0.0
C960 C 0.94246 1.00011 0.88091 0.0
H961 H 0.88244 0.96481 0.09594 0.0
H962 H 0.90865 0.96732 0.03357 0.0
H963 H 0.9272 0.02747 0.98245 0.0
H964 H 0.96749 0.03302 0.73779 0.0
H965 H 0.94714 0.03058 0.81422 0.0
C966 C 0.54536 0.88392 0.07386 0.0
C967 C 0.5305 0.87106 0.08757 0.0
C968 C 0.54276 0.8979 0.03548 0.0
C969 C 0.51317 0.90769 0.9187 0.0
H970 H 0.53752 0.95777 0.92386 0.0
C971 C 0.52117 0.95629 0.73597 0.0
C972 C 0.51773 0.97606 0.74123 0.0
C973 C 0.52192 0.94416 0.77935 0.0
C974 C 0.53051 0.9439 0.92171 0.0
H975 H 0.50105 0.86322 0.07138 0.0
H976 H 0.4963 0.88778 1.00488 0.0
H977 H 0.53958 0.93634 0.99828 0.0
H978 H 0.51304 0.99846 0.79785 0.0
H979 H 0.51491 0.97748 0.87331 0.0
H980 H 0.50425 0.91518 0.84197 0.0
C981 C 0.51009 0.88702 0.02392 0.0
C982 C 0.53182 0.93147 0.96447 0.0
C983 C 0.51267 0.87311 0.06283 0.0
C984 C 0.51557 0.98334 0.79176 0.0
C985 C 0.51673 0.97127 0.83529 0.0
C986 C 0.51206 0.92002 0.87575 0.0
C987 C 0.52523 0.89941 1.00876 0.0
C988 C 0.52318 0.91311 0.96379 0.0
C989 C 0.51975 0.95141 0.82986 0.0
C990 C 0.52073 0.93834 0.87637 0.0
H991 H 0.55942 0.88252 0.09123 0.0
H992 H 0.55487 0.9069 0.02496 0.0
H993 H 0.5065 0.89367 0.91602 0.0
H994 H 0.52333 0.95007 0.69824 0.0
H995 H 0.52455 0.92907 0.77323 0.0
C996 C 0.6525 0.51254 0.06466 0.0
C997 C 0.65641 0.53035 0.08787 0.0
C998 C 0.63823 0.5107 0.02623 0.0
C999 C 0.61068 0.5412 0.93172 0.0
H1000 H 0.58347 0.49379 0.90324 0.0
C1001 C 0.55142 0.53579 0.77257 0.0
C1002 C 0.55101 0.5192 0.74159 0.0
C1003 C 0.56339 0.53703 0.81628 0.0
C1004 C 0.59104 0.50713 0.91028 0.0
H1005 H 0.64774 0.56002 0.09013 0.0
H1006 H 0.62249 0.55676 0.02582 0.0
H1007 H 0.60486 0.49586 0.97757 0.0
H1008 H 0.56294 0.49078 0.7334 0.0
H1009 H 0.58359 0.49288 0.8093 0.0
H1010 H 0.59672 0.55249 0.86463 0.0
C1011 C 0.63067 0.54418 0.03569 0.0
C1012 C 0.60344 0.50833 0.95317 0.0
C1013 C 0.64496 0.546 0.07362 0.0
C1014 C 0.56284 0.50384 0.75602 0.0
C1015 C 0.57463 0.50499 0.80001 0.0
C1016 C 0.59818 0.54004 0.88918 0.0
C1017 C 0.62742 0.52665 1.00985 0.0
C1018 C 0.61359 0.52538 0.96471 0.0
C1019 C 0.5752 0.52163 0.83087 0.0
C1020 C 0.5882 0.52297 0.87745 0.0
H1021 H 0.66134 0.50031 0.07366 0.0
H1022 H 0.63645 0.49695 1.0075 0.0
H1023 H 0.61842 0.5545 0.93782 0.0
H1024 H 0.54256 0.54793 0.76286 0.0
H1025 H 0.56321 0.55004 0.83906 0.0
C1026 C 0.00975 0.65764 0.04887 0.0
C1027 C 0.99287 0.65793 0.07879 0.0
C1028 C 0.01281 0.64312 0.01172 0.0
C1029 C 0.9845 0.60864 0.92994 0.0
H1030 H 0.03429 0.58895 0.89157 0.0
C1031 C 0.99213 0.55073 0.76771 0.0
C1032 C 0.00892 0.55053 0.73729 0.0
C1033 C 0.99059 0.5628 0.81125 0.0
C1034 C 0.02023 0.59443 0.90096 0.0
H1035 H 0.96639 0.64254 0.09411 0.0
H1036 H 0.97187 0.61716 0.03113 0.0
H1037 H 0.03155 0.61104 0.96409 0.0
H1038 H 0.03713 0.5635 0.72926 0.0
H1039 H 0.03428 0.58477 0.80322 0.0
H1040 H 0.97316 0.59249 0.8664 0.0
C1041 C 0.98273 0.62822 0.03551 0.0
C1042 C 0.01867 0.60716 0.9431 0.0
C1043 C 0.97976 0.6426 0.07265 0.0
C1044 C 0.02399 0.56303 0.75162 0.0
C1045 C 0.0224 0.57521 0.79479 0.0
C1046 C 0.98607 0.59604 0.88762 0.0
C1047 C 0.99897 0.62855 1.00296 0.0
C1048 C 1.00077 0.61452 0.95847 0.0
C1049 C 1.00569 0.57536 0.82572 0.0
C1050 C 1.00397 0.58867 0.87204 0.0
H1051 H 0.01987 0.66946 0.05126 0.0
H1052 H 0.02548 0.64406 0.98758 0.0
H1053 H 0.97046 0.61416 0.93944 0.0
H1054 H 0.98007 0.54156 0.75785 0.0
H1055 H 0.97752 0.56207 0.83379 0.0
C1056 C 0.0892 0.20782 0.26912 0.0
C1057 C 0.07583 0.222 0.25639 0.0
C1058 C 0.08491 0.19445 0.30774 0.0
C1059 C 0.05173 0.18602 0.41678 0.0
H1060 H 0.05374 0.13255 0.37707 0.0
C1061 C 0.01272 0.12816 0.5347 0.0
C1062 C 1.00198 0.11514 0.505 0.0
C1063 C 0.02618 0.14017 0.51106 0.0
C1064 C 0.05319 0.14743 0.38877 0.0
H1065 H 0.04714 0.23265 0.27263 0.0
H1066 H 0.04008 0.20998 0.33969 0.0
H1067 H 0.07015 0.15656 0.32421 0.0
H1068 H 0.99671 0.10442 0.42758 0.0
H1069 H 0.01987 0.12562 0.38618 0.0
H1070 H 0.03342 0.17728 0.47853 0.0
C1071 C 0.05407 0.20946 0.32138 0.0
C1072 C 0.06281 0.16109 0.359 0.0
C1073 C 0.05821 0.22256 0.28291 0.0
C1074 C 1.00494 0.11426 0.45139 0.0
C1075 C 0.01832 0.12626 0.42778 0.0
C1076 C 0.04199 0.17243 0.4462 0.0
C1077 C 0.06729 0.19525 0.33409 0.0
C1078 C 0.0615 0.18055 0.37175 0.0
C1079 C 0.02906 0.13936 0.45736 0.0
C1080 C 0.04207 0.15309 0.43145 0.0
H1081 H 0.10277 0.20693 0.24887 0.0
H1082 H 0.09521 0.18342 0.31667 0.0
H1083 H 0.05063 0.20098 0.42747 0.0
H1084 H 0.01093 0.12884 0.57624 0.0
H1085 H 0.03436 0.15005 0.53482 0.0
C1086 C 0.30035 0.05531 0.28969 0.0
C1087 C 0.30307 0.07427 0.2734 0.0
C1088 C 0.31376 0.04673 0.32176 0.0
C1089 C 0.3559 0.05601 0.40467 0.0
H1090 H 0.37493 0.00906 0.34379 0.0
C1091 C 0.43399 0.03276 0.40933 0.0
C1092 C 0.43821 0.01322 0.41183 0.0
C1093 C 0.41498 0.03874 0.40941 0.0
C1094 C 0.3695 0.02186 0.36227 0.0
H1095 H 0.32111 0.0995 0.27818 0.0
H1096 H 0.34469 0.0846 0.33521 0.0
H1097 H 0.34526 0.02273 0.31212 0.0
H1098 H 0.42637 0.98459 0.41934 0.0
H1099 H 0.39289 0.99504 0.41835 0.0
H1100 H 0.38085 0.05564 0.45276 0.0
C1101 C 0.33213 0.07641 0.32381 0.0
C1102 C 0.35252 0.0297 0.34409 0.0
C1103 C 0.31878 0.08493 0.29121 0.0
C1104 C 0.4233 0.99975 0.41723 0.0
C1105 C 0.40425 1.00571 0.41663 0.0
C1106 C 0.37293 0.04816 0.42285 0.0
C1107 C 0.33001 0.05706 0.33806 0.0
C1108 C 0.3459 0.04716 0.36401 0.0
C1109 C 0.39995 0.02522 0.41136 0.0
C1110 C 0.38017 0.03136 0.40058 0.0
H1111 H 0.28839 0.04684 0.27532 0.0
H1112 H 0.31183 0.03181 0.33216 0.0
H1113 H 0.35093 0.06938 0.42096 0.0
H1114 H 0.44539 0.04333 0.40571 0.0
H1115 H 0.41206 0.05385 0.40479 0.0
C1116 C 0.46123 0.30844 0.28152 0.0
C1117 C 0.44691 0.31204 0.24494 0.0
C1118 C 0.46806 0.32306 0.31297 0.0
C1119 C 0.47194 0.37553 0.32123 0.0
H1120 H 0.49054 0.36228 0.45734 0.0
C1121 C 0.52839 0.42102 0.4289 0.0
C1122 C 0.5295 0.41941 0.48272 0.0
C1123 C 0.51475 0.41032 0.40157 0.0
C1124 C 0.48504 0.36658 0.4201 0.0
H1125 H 0.42838 0.33362 0.21234 0.0
H1126 H 0.43983 0.35931 0.26927 0.0
H1127 H 0.47206 0.33919 0.40923 0.0
H1128 H 0.517 0.4065 0.55042 0.0
H1129 H 0.49194 0.38943 0.50426 0.0
H1130 H 0.4843 0.40329 0.33324 0.0
C1131 C 0.44596 0.34519 0.27299 0.0
C1132 C 0.47472 0.35308 0.39195 0.0
C1133 C 0.43928 0.33051 0.24083 0.0
C1134 C 0.51621 0.40798 0.5091 0.0
C1135 C 0.5021 0.39795 0.48228 0.0
C1136 C 0.48186 0.3893 0.35011 0.0
C1137 C 0.46053 0.34161 0.30914 0.0
C1138 C 0.46867 0.35712 0.34152 0.0
C1139 C 0.50167 0.39831 0.42798 0.0
C1140 C 0.489 0.3848 0.39938 0.0
H1141 H 0.46785 0.29448 0.28419 0.0
H1142 H 0.47974 0.3199 0.33904 0.0
H1143 H 0.46755 0.37908 0.28234 0.0
H1144 H 0.53863 0.42982 0.40794 0.0
H1145 H 0.5151 0.41084 0.35981 0.0
C1146 C 0.22374 0.46172 0.29486 0.0
C1147 C 0.21664 0.44826 0.25903 0.0
C1148 C 0.21152 0.4702 0.33055 0.0
C1149 C 0.16146 0.47023 0.38188 0.0
H1150 H 0.17184 0.52478 0.39197 0.0
C1151 C 0.10708 0.52771 0.45114 0.0
C1152 C 0.11427 0.54071 0.48813 0.0
C1153 C 0.11927 0.51456 0.42738 0.0
C1154 C 0.16886 0.50954 0.38976 0.0
H1155 H 0.19153 0.43142 0.2376 0.0
H1156 H 0.16996 0.44726 0.29716 0.0
H1157 H 0.1941 0.50446 0.34565 0.0
H1158 H 0.13973 0.54925 0.531 0.0
H1159 H 0.161 0.52689 0.48793 0.0
H1160 H 0.13562 0.47581 0.4243 0.0
C1161 C 0.18503 0.4511 0.29814 0.0
C1162 C 0.18169 0.49783 0.36368 0.0
C1163 C 0.1974 0.44218 0.26334 0.0
C1164 C 0.13377 0.53986 0.50174 0.0
C1165 C 0.14596 0.52697 0.47741 0.0
C1166 C 0.14843 0.48207 0.40736 0.0
C1167 C 0.19181 0.46585 0.33043 0.0
C1168 C 0.17827 0.47799 0.35983 0.0
C1169 C 0.13885 0.51438 0.43971 0.0
C1170 C 0.15217 0.50177 0.41184 0.0
H1171 H 0.23838 0.46696 0.29308 0.0
H1172 H 0.21737 0.48101 0.35624 0.0
H1173 H 0.15842 0.45502 0.3798 0.0
H1174 H 0.09221 0.52807 0.4392 0.0
H1175 H 0.11355 0.50502 0.39808 0.0
C1176 C 0.94032 0.82987 0.96555 0.0
C1177 C 0.9506 0.8129 0.97294 0.0
C1178 C 0.94617 0.843 0.92801 0.0
C1179 C 0.97967 0.84922 0.81695 0.0
H1180 H 0.98195 0.90179 0.86491 0.0
C1181 C 0.02189 0.90525 0.70233 0.0
C1182 C 0.03289 0.91821 0.73136 0.0
C1183 C 1.00773 0.89417 0.72615 0.0
C1184 C 0.98153 0.88716 0.85102 0.0
H1185 H 0.97466 0.79603 0.946 0.0
H1186 H 0.98493 0.81881 0.88134 0.0
H1187 H 0.96467 0.87796 0.91545 0.0
H1188 H 0.0377 0.93027 0.8073 0.0
H1189 H 0.01383 0.91008 0.84994 0.0
H1190 H 0.99798 0.85786 0.75531 0.0
C1191 C 0.97208 0.82192 0.90329 0.0
C1192 C 0.97129 0.87355 0.87953 0.0
C1193 C 0.96617 0.80879 0.94044 0.0
C1194 C 0.02928 0.92033 0.78429 0.0
C1195 C 0.01546 0.90889 0.80848 0.0
C1196 C 0.99022 0.86269 0.78909 0.0
C1197 C 0.96246 0.83939 0.89753 0.0
C1198 C 0.97065 0.85434 0.86338 0.0
C1199 C 1.00471 0.89544 0.7798 0.0
C1200 C 0.99161 0.88176 0.80631 0.0
H1201 H 0.92821 0.8333 0.99005 0.0
H1202 H 0.93831 0.85622 0.92395 0.0
H1203 H 0.97919 0.83459 0.803 0.0
H1204 H 0.02438 0.90357 0.66131 0.0
H1205 H 0.99941 0.88435 0.70258 0.0
C1206 C 0.72719 0.96333 0.96058 0.0
C1207 C 0.72234 0.94507 0.97996 0.0
C1208 C 0.71478 0.97299 0.92847 0.0
C1209 C 0.67486 0.9719 0.84293 0.0
H1210 H 0.65826 0.01712 0.91743 0.0
C1211 C 0.60428 0.01022 0.80696 0.0
C1212 C 0.60292 0.02973 0.81933 0.0
C1213 C 0.62163 1.00081 0.81239 0.0
C1214 C 0.6631 1.0049 0.89529 0.0
H1215 H 0.701 0.92237 0.97939 0.0
H1216 H 0.6789 0.93959 0.92189 0.0
H1217 H 0.68308 0.99717 0.95378 0.0
H1218 H 0.61868 0.05523 0.84189 0.0
H1219 H 0.6493 0.0388 0.8509 0.0
H1220 H 0.65477 0.97966 0.78433 0.0
C1221 C 0.69262 0.94604 0.93165 0.0
C1222 C 0.6771 0.99337 0.91648 0.0
C1223 C 0.70511 0.9363 0.96449 0.0
C1224 C 0.6194 0.04006 0.83342 0.0
C1225 C 0.63684 0.03068 0.8383 0.0
C1226 C 0.66094 0.98363 0.82121 0.0
C1227 C 0.69723 0.96465 0.91504 0.0
C1228 C 0.68283 0.97671 0.8908 0.0
C1229 C 0.63789 0.01081 0.83005 0.0
C1230 C 0.65471 1.00006 0.84774 0.0
H1231 H 0.74004 0.97083 0.97278 0.0
H1232 H 0.7184 0.98744 0.91643 0.0
H1233 H 0.67937 0.95914 0.82262 0.0
H1234 H 0.5917 1.00197 0.79589 0.0
H1235 H 0.62192 0.98547 0.80623 0.0
C1236 C 0.57679 0.73128 0.92483 0.0
C1237 C 0.58903 0.72597 0.9654 0.0
C1238 C 0.56781 0.71735 0.8948 0.0
C1239 C 0.56382 0.66568 0.86594 0.0
H1240 H 0.50932 0.6767 0.86835 0.0
C1241 C 0.50552 0.60875 0.82287 0.0
C1242 C 0.49 0.61464 0.79228 0.0
C1243 C 0.51888 0.62211 0.84095 0.0
C1244 C 0.5245 0.67351 0.86666 0.0
H1245 H 0.60359 0.70206 1.00115 0.0
H1246 H 0.58731 0.67765 0.94966 0.0
H1247 H 0.53204 0.70051 0.89951 0.0
H1248 H 0.47641 0.63892 0.75593 0.0
H1249 H 0.49974 0.6623 0.78746 0.0
H1250 H 0.55609 0.63847 0.83355 0.0
C1251 C 0.5847 0.69258 0.94119 0.0
C1252 C 0.53753 0.68717 0.88433 0.0
C1253 C 0.59394 0.70657 0.97086 0.0
C1254 C 0.48803 0.63409 0.78027 0.0
C1255 C 0.5014 0.64743 0.7982 0.0
C1256 C 0.55072 0.65197 0.84801 0.0
C1257 C 0.57073 0.69788 0.90506 0.0
C1258 C 0.55731 0.68345 0.88382 0.0
C1259 C 0.51695 0.64157 0.82868 0.0
C1260 C 0.53095 0.65583 0.84804 0.0
H1261 H 0.57253 0.74602 0.91946 0.0
H1262 H 0.55742 0.72179 0.86622 0.0
H1263 H 0.57899 0.66245 0.86545 0.0
H1264 H 0.50728 0.59382 0.83297 0.0
H1265 H 0.53056 0.61724 0.865 0.0
C1266 C 0.80293 0.56862 0.9337 0.0
C1267 C 0.80679 0.58301 0.97035 0.0
C1268 C 0.8179 0.55979 0.90767 0.0
C1269 C 0.86846 0.55957 0.87451 0.0
H1270 H 0.86537 0.50605 0.91419 0.0
C1271 C 0.93059 0.50744 0.83736 0.0
C1272 C 0.92556 0.48878 0.82206 0.0
C1273 C 0.91656 0.51998 0.85493 0.0
C1274 C 0.86634 0.52085 0.90198 0.0
H1275 H 0.82903 0.60106 1.00366 0.0
H1276 H 0.85535 0.58541 0.95784 0.0
H1277 H 0.83965 0.5276 0.93793 0.0
H1278 H 0.90218 0.46855 0.81207 0.0
H1279 H 0.8775 0.49053 0.84125 0.0
H1280 H 0.89495 0.55276 0.83731 0.0
C1281 C 0.84072 0.58102 0.9497 0.0
C1282 C 0.85164 0.53317 0.9157 0.0
C1283 C 0.8257 0.5899 0.97592 0.0
C1284 C 0.90638 0.48276 0.82481 0.0
C1285 C 0.8923 0.49537 0.84154 0.0
C1286 C 0.88309 0.54714 0.85989 0.0
C1287 C 0.83692 0.56524 0.91769 0.0
C1288 C 0.85253 0.55255 0.90174 0.0
C1289 C 0.89722 0.51415 0.85662 0.0
C1290 C 0.88212 0.5276 0.87329 0.0
H1291 H 0.78859 0.56279 0.92885 0.0
H1292 H 0.81473 0.5477 0.8827 0.0
H1293 H 0.8694 0.57454 0.86379 0.0
H1294 H 0.94537 0.51234 0.83526 0.0
H1295 H 0.92088 0.53422 0.86704 0.0
C1296 C 0.01694 0.21268 0.83231 0.0
C1297 C 0.03531 0.22115 0.83596 0.0
C1298 C 0.01426 0.19469 0.80818 0.0
C1299 C 0.03846 0.15844 0.72144 0.0
H1300 H 1.00255 0.12286 0.78449 0.0
C1301 C 0.0361 0.07739 0.66266 0.0
C1302 C 0.01867 0.06714 0.66622 0.0
C1303 C 0.03774 0.09637 0.68095 0.0
C1304 C 0.01247 0.13259 0.76556 0.0
H1305 H 0.06512 0.21729 0.81462 0.0
H1306 H 0.06054 0.1863 0.77318 0.0
H1307 H 1.00563 0.15522 0.81846 0.0
H1308 H 0.98893 0.06961 0.6897 0.0
H1309 H 0.9915 0.10261 0.71952 0.0
H1310 H 0.04528 0.13584 0.66843 0.0
C1311 C 0.04806 0.19347 0.78857 0.0
C1312 C 0.01425 0.15134 0.7853 0.0
C1313 C 0.05073 0.21136 0.81273 0.0
C1314 C 1.00272 0.0768 0.68687 0.0
C1315 C 1.00427 0.09584 0.70459 0.0
C1316 C 0.03661 0.1397 0.70152 0.0
C1317 C 0.02984 0.18456 0.78661 0.0
C1318 C 0.02735 0.16464 0.76385 0.0
C1319 C 0.02187 0.10599 0.70263 0.0
C1320 C 0.02365 0.12631 0.72332 0.0
H1321 H 1.00473 0.21953 0.85021 0.0
H1322 H 0.99992 0.18862 0.80703 0.0
H1323 H 0.04852 0.16815 0.70298 0.0
H1324 H 0.04853 0.07079 0.6454 0.0
H1325 H 0.05163 0.10336 0.67863 0.0
C1326 C 0.3122 0.04951 0.80704 0.0
C1327 C 0.30718 0.03868 0.85096 0.0
C1328 C 0.32897 0.04564 0.77865 0.0
C1329 C 0.37047 0.0105 0.76746 0.0
H1330 H 0.39556 0.05361 0.70059 0.0
C1331 C 0.45162 0.01143 0.71118 0.0
C1332 C 0.45663 0.01757 0.6611 0.0
C1333 C 0.43275 0.01314 0.72982 0.0
C1334 C 0.38869 0.04136 0.71866 0.0
H1335 H 0.31602 0.01507 0.89885 0.0
H1336 H 0.34524 1.00836 0.85054 0.0
H1337 H 0.36426 0.05779 0.74083 0.0
H1338 H 0.44555 0.03062 0.59167 0.0
H1339 H 0.41263 0.03439 0.6251 0.0
H1340 H 0.39562 0.99446 0.74738 0.0
C1341 C 0.33606 0.0196 0.83646 0.0
C1342 C 0.3705 0.04367 0.74171 0.0
C1343 C 0.31908 0.02333 0.86438 0.0
C1344 C 0.44218 0.02565 0.63027 0.0
C1345 C 0.42335 0.02789 0.64957 0.0
C1346 C 0.38882 1.00833 0.74541 0.0
C1347 C 0.34168 0.03101 0.79374 0.0
C1348 C 0.36096 0.02831 0.76689 0.0
C1349 C 0.41832 0.02153 0.69959 0.0
C1350 C 0.39827 0.02372 0.72082 0.0
H1351 H 0.30358 0.06169 0.79614 0.0
H1352 H 0.33212 0.05456 0.74555 0.0
H1353 H 0.36379 0.99806 0.78488 0.0
H1354 H 0.46233 1.00507 0.73595 0.0
H1355 H 0.42952 1.00819 0.76853 0.0
C1356 C 0.47973 0.31289 0.80254 0.0
C1357 C 0.49035 0.30689 0.84584 0.0
C1358 C 0.48336 0.33062 0.77862 0.0
C1359 C 0.50721 0.37852 0.80388 0.0
H1360 H 0.49244 0.38787 0.6621 0.0
C1361 C 0.50466 0.4563 0.72098 0.0
C1362 C 0.50787 0.45948 0.66787 0.0
C1363 C 0.50309 0.43769 0.74146 0.0
C1364 C 0.49693 0.38567 0.70161 0.0
H1365 H 0.51391 0.31479 0.8959 0.0
H1366 H 0.5211 0.34518 0.8525 0.0
H1367 H 0.49053 0.35569 0.69663 0.0
H1368 H 0.51269 0.44493 0.59515 0.0
H1369 H 0.51081 0.41259 0.63142 0.0
H1370 H 0.51437 0.40837 0.80816 0.0
C1371 C 0.50943 0.33644 0.83784 0.0
C1372 C 0.49552 0.367 0.72198 0.0
C1373 C 0.50563 0.31869 0.86219 0.0
C1374 C 0.50997 0.44326 0.6361 0.0
C1375 C 0.50869 0.42459 0.65684 0.0
C1376 C 0.50884 0.39715 0.78332 0.0
C1377 C 0.49796 0.34306 0.79652 0.0
C1378 C 0.50049 0.363 0.77372 0.0
C1379 C 0.50511 0.42136 0.70983 0.0
C1380 C 0.50362 0.4012 0.7318 0.0
H1381 H 0.46769 0.30435 0.78909 0.0
H1382 H 0.4739 0.33489 0.74771 0.0
H1383 H 0.51094 0.37645 0.84401 0.0
H1384 H 0.50351 0.46824 0.74726 0.0
H1385 H 0.50011 0.43622 0.78229 0.0
C1386 C 0.2124 0.4815 0.81863 0.0
C1387 C 0.2215 0.49743 0.84192 0.0
C1388 C 0.19487 0.48327 0.7925 0.0
C1389 C 0.15996 0.51804 0.7351 0.0
H1390 H 0.12342 0.47702 0.76142 0.0
C1391 C 0.08481 0.5138 0.63262 0.0
C1392 C 0.06894 0.50725 0.66175 0.0
C1393 C 0.10365 0.51301 0.65239 0.0
C1394 C 0.13331 0.48871 0.75373 0.0
H1395 H 0.21928 0.52798 0.85358 0.0
H1396 H 0.1888 0.53127 0.80675 0.0
H1397 H 0.15549 0.47547 0.798 0.0
H1398 H 0.06097 0.49478 0.73539 0.0
H1399 H 0.09346 0.49311 0.76929 0.0
H1400 H 0.13753 0.53138 0.69136 0.0
C1401 C 0.19534 0.51729 0.80879 0.0
C1402 C 0.15195 0.48771 0.77433 0.0
C1403 C 0.21298 0.51547 0.83534 0.0
C1404 C 0.07264 0.49979 0.71127 0.0
C1405 C 0.09145 0.4988 0.73082 0.0
C1406 C 0.14129 0.51898 0.71413 0.0
C1407 C 0.18564 0.50108 0.78843 0.0
C1408 C 0.16567 0.50234 0.76551 0.0
C1409 C 0.10735 0.50544 0.70188 0.0
C1410 C 0.12756 0.50437 0.72328 0.0
H1411 H 0.21841 0.46734 0.82312 0.0
H1412 H 0.18829 0.47047 0.77655 0.0
H1413 H 0.17 0.52956 0.72697 0.0
H1414 H 0.08271 0.51964 0.59441 0.0
H1415 H 0.11536 0.51812 0.6284 0.0
C1416 C 0.01235 0.80976 0.41314 0.0
C1417 C 0.99402 0.80312 0.39837 0.0
C1418 C 0.01456 0.82712 0.44098 0.0
C1419 C 0.98958 0.87345 0.45706 0.0
H1420 H 0.02416 0.88337 0.57106 0.0
C1421 C 0.99054 0.94812 0.55626 0.0
C1422 C 1.00752 0.95526 0.57846 0.0
C1423 C 0.98918 0.92915 0.53819 0.0
C1424 C 0.01461 0.88108 0.53871 0.0
H1425 H 0.96362 0.80906 0.40507 0.0
H1426 H 0.96746 0.83895 0.45247 0.0
H1427 H 0.02186 0.85115 0.5341 0.0
H1428 H 0.03647 0.94769 0.59957 0.0
H1429 H 0.03448 0.91482 0.56715 0.0
H1430 H 0.98274 0.90318 0.45952 0.0
C1431 C 0.9802 0.831 0.44227 0.0
C1432 C 0.01325 0.86243 0.51762 0.0
C1433 C 0.978 0.81367 0.41541 0.0
C1434 C 0.02309 0.94266 0.58305 0.0
C1435 C 0.02187 0.92369 0.5643 0.0
C1436 C 0.99116 0.89207 0.4774 0.0
C1437 C 0.99851 0.83839 0.45411 0.0
C1438 C 1.00057 0.85827 0.47671 0.0
C1439 C 1.00491 0.91654 0.54101 0.0
C1440 C 1.00357 0.89634 0.51901 0.0
H1441 H 0.02502 0.80224 0.40027 0.0
H1442 H 0.02891 0.83227 0.44951 0.0
H1443 H 0.9799 0.87102 0.425 0.0
H1444 H 0.97805 0.95707 0.55379 0.0
H1445 H 0.97558 0.92443 0.52245 0.0
C1446 C 0.71327 1.00864 0.39085 0.0
C1447 C 0.72187 0.99047 0.38834 0.0
C1448 C 0.69536 0.0112 0.41571 0.0
C1449 C 0.65186 0.98276 0.45891 0.0
H1450 H 0.63739 0.02997 0.52661 0.0
C1451 C 0.57844 0.98918 0.56636 0.0
C1452 C 0.56875 1.00682 0.56603 0.0
C1453 C 0.59729 0.98756 0.54711 0.0
C1454 C 0.641 0.01671 0.50737 0.0
H1455 H 0.71854 0.96101 0.41335 0.0
H1456 H 0.68797 0.96546 0.45692 0.0
H1457 H 0.66956 0.02677 0.49041 0.0
H1458 H 0.5717 0.03655 0.54344 0.0
H1459 H 0.60437 0.03386 0.5104 0.0
H1460 H 0.62336 0.97271 0.4753 0.0
C1461 C 0.69462 0.97775 0.43852 0.0
C1462 C 0.65963 0.01486 0.48646 0.0
C1463 C 0.7124 0.97521 0.4138 0.0
C1464 C 0.57868 0.02282 0.54581 0.0
C1465 C 0.59757 0.02122 0.52654 0.0
C1466 C 0.63327 0.98461 0.47972 0.0
C1467 C 0.68544 0.99567 0.43892 0.0
C1468 C 0.66548 0.99782 0.46185 0.0
C1469 C 0.60726 1.00352 0.52651 0.0
C1470 C 0.6274 1.00161 0.50445 0.0
H1471 H 0.71985 0.0207 0.37123 0.0
H1472 H 0.68894 0.02525 0.41467 0.0
H1473 H 0.65537 0.96952 0.43945 0.0
H1474 H 0.57149 0.97652 0.58196 0.0
H1475 H 0.60411 0.97371 0.549 0.0
C1476 C 0.54756 0.71451 0.42318 0.0
C1477 C 0.53345 0.7217 0.38955 0.0
C1478 C 0.54491 0.6971 0.44954 0.0
C1479 C 0.51416 0.65214 0.44341 0.0
H1480 H 0.54485 0.63758 0.56145 0.0
C1481 C 0.50427 0.57792 0.54283 0.0
C1482 C 0.52053 0.56823 0.56134 0.0
C1483 C 0.50553 0.59689 0.52495 0.0
C1484 C 0.53626 0.64128 0.52817 0.0
H1485 H 0.50479 0.7166 0.36088 0.0
H1486 H 0.4993 0.68724 0.41028 0.0
H1487 H 0.54624 0.67035 0.52983 0.0
H1488 H 0.55089 0.5716 0.57666 0.0
H1489 H 0.55327 0.60449 0.54429 0.0
H1490 H 0.504 0.62308 0.44248 0.0
C1491 C 0.51297 0.69451 0.4145 0.0
C1492 C 0.53706 0.66027 0.50968 0.0
C1493 C 0.51583 0.71181 0.38716 0.0
C1494 C 0.53812 0.57832 0.56183 0.0
C1495 C 0.53941 0.59739 0.54383 0.0
C1496 C 0.5132 0.63325 0.4623 0.0
C1497 C 0.52782 0.68628 0.44429 0.0
C1498 C 0.52611 0.66614 0.4666 0.0
C1499 C 0.52312 0.60702 0.52485 0.0
C1500 C 0.52428 0.62739 0.50488 0.0
H1501 H 0.56153 0.72142 0.42498 0.0
H1502 H 0.55694 0.6916 0.4711 0.0
H1503 H 0.5058 0.6555 0.40953 0.0
H1504 H 0.49039 0.57082 0.54203 0.0
H1505 H 0.49254 0.60372 0.51175 0.0
C1506 C 0.81718 0.51816 0.37786 0.0
C1507 C 0.80718 0.53531 0.38598 0.0
C1508 C 0.83459 0.51455 0.40397 0.0
C1509 C 0.86876 0.53557 0.50612 0.0
H1510 H 0.90611 0.50519 0.43242 0.0
C1511 C 0.95095 0.53774 0.5556 0.0
C1512 C 0.96115 0.52042 0.55319 0.0
C1513 C 0.93179 0.53881 0.53834 0.0
C1514 C 0.89588 0.51364 0.45392 0.0
H1515 H 0.80717 0.56142 0.43112 0.0
H1516 H 0.83724 0.55577 0.47427 0.0
H1517 H 0.87364 0.50743 0.39952 0.0
H1518 H 0.95866 0.49053 0.53119 0.0
H1519 H 0.92554 0.49237 0.50159 0.0
H1520 H 0.89148 0.54231 0.55937 0.0
C1521 C 0.83187 0.54464 0.44895 0.0
C1522 C 0.87696 0.51485 0.43511 0.0
C1523 C 0.81437 0.54798 0.42388 0.0
C1524 C 0.95147 0.5042 0.53343 0.0
C1525 C 0.93238 0.50527 0.51605 0.0
C1526 C 0.88778 0.53462 0.52439 0.0
C1527 C 0.84279 0.52816 0.43838 0.0
C1528 C 0.86292 0.52591 0.46059 0.0
C1529 C 0.92217 0.5226 0.51799 0.0
C1530 C 0.90172 0.52366 0.49859 0.0
H1531 H 0.81227 0.50813 0.3487 0.0
H1532 H 0.8419 0.50131 0.39553 0.0
H1533 H 0.85868 0.5439 0.52838 0.0
H1534 H 0.9577 0.55047 0.57128 0.0
H1535 H 0.92458 0.55247 0.54033 0.0
loop_
_geom_bond_atom_site_label_1
_geom_bond_atom_site_label_2
_geom_bond_distance
_geom_bond_site_symmetry_2
_ccdc_geom_bond_type
C0 C1 1.391 . S
C0 C4 1.391 . S
C0 H42 0.948 . S
C1 C0 1.391 . S
C1 C2 1.391 . S
C2 C1 1.391 . S
C2 H58 0.947 . S
C2 C59 1.392 . S
C3 C4 1.391 . S
C3 C7 1.397 . S
C3 C59 1.419 . S
C4 C0 1.391 . S
C4 C3 1.391 . S
C4 C5 1.399 . S
C5 C4 1.399 . S
C5 C8 1.396 . S
C5 C17 1.453 . S
C5 C18 1.684 . S
H6 C30 0.948 . S
C7 C3 1.397 . S
C7 C8 1.394 . S
C7 C26 1.723 . S
C8 C5 1.396 . S
C8 C7 1.394 . S
C8 C38 1.723 . S
H9 C32 0.947 . S
H10 C33 0.948 . S
H11 C39 0.982 . S
H12 C40 0.979 . S
H13 C40 0.980 . S
H14 C40 0.983 . S
H15 C39 0.979 . S
H16 C39 0.977 . S
C17 C5 1.453 . S
C17 H46 0.982 . S
C17 H47 0.979 . S
C17 H48 0.977 . S
C18 C5 1.684 . S
C18 H43 0.979 . S
C18 H44 0.980 . S
C18 H45 0.983 . S
C19 C20 1.391 . S
C19 C24 1.391 . S
C19 H49 0.948 . S
C20 C19 1.391 . S
C20 C21 1.391 . S
C21 C20 1.391 . S
C21 C22 1.392 . S
C21 H50 0.947 1_554 S
C22 C21 1.392 . S
C22 C23 1.419 . S
C22 H51 0.948 . S
C23 C22 1.419 . S
C23 C24 1.391 . S
C23 C27 1.397 . S
C24 C19 1.391 . S
C24 C23 1.391 . S
C24 C25 1.399 . S
C25 C24 1.399 . S
C25 C26 1.396 . S
C25 C28 1.453 . S
C25 C29 1.684 . S
C26 C7 1.723 . S
C26 C25 1.396 . S
C26 C27 1.394 . S
C27 C23 1.397 . S
C27 C26 1.394 . S
C27 C37 1.723 . S
C28 C25 1.453 . S
C28 H52 0.982 . S
C28 H53 0.979 . S
C28 H54 0.977 . S
C29 C25 1.684 . S
C29 H55 0.979 . S
C29 H56 0.980 . S
C29 H57 0.983 . S
C30 H6 0.948 . S
C30 C31 1.391 . S
C30 C35 1.391 . S
C31 C30 1.391 . S
C31 C32 1.391 . S
C32 H9 0.947 . S
C32 C31 1.391 . S
C32 C33 1.392 . S
C33 H10 0.948 . S
C33 C32 1.392 . S
C33 C34 1.419 . S
C34 C33 1.419 . S
C34 C35 1.391 . S
C34 C38 1.397 . S
C35 C30 1.391 . S
C35 C34 1.391 . S
C35 C36 1.399 . S
C36 C35 1.399 . S
C36 C37 1.396 . S
C36 C39 1.453 . S
C36 C40 1.684 . S
C37 C27 1.723 . S
C37 C36 1.396 . S
C37 C38 1.394 . S
C38 C8 1.723 . S
C38 C34 1.397 . S
C38 C37 1.394 . S
C39 H11 0.982 . S
C39 H15 0.979 . S
C39 H16 0.977 . S
C39 C36 1.453 . S
C40 H12 0.979 . S
C40 H13 0.980 . S
C40 H14 0.983 . S
C40 C36 1.684 . S
H41 C59 0.948 . S
H42 C0 0.948 . S
H43 C18 0.979 . S
H44 C18 0.980 . S
H45 C18 0.983 . S
H46 C17 0.982 . S
H47 C17 0.979 . S
H48 C17 0.977 . S
H49 C19 0.948 . S
H50 C21 0.947 1_556 S
H51 C22 0.948 . S
H52 C28 0.982 . S
H53 C28 0.979 . S
H54 C28 0.977 . S
H55 C29 0.979 . S
H56 C29 0.980 . S
H57 C29 0.983 . S
H58 C2 0.947 . S
C59 C2 1.392 . S
C59 C3 1.419 . S
C59 H41 0.948 . S
C60 C61 1.391 . S
C60 C64 1.391 . S
C60 H102 0.948 1_554 S
C61 C60 1.391 . S
C61 C62 1.391 . S
C62 C61 1.391 . S
C62 H118 0.947 . S
C62 C119 1.392 . S
C63 C64 1.391 . S
C63 C67 1.397 . S
C63 C119 1.419 . S
C64 C60 1.391 . S
C64 C63 1.391 . S
C64 C65 1.399 . S
C65 C64 1.399 . S
C65 C68 1.396 . S
C65 C77 1.453 . S
C65 C78 1.684 . S
H66 C90 0.948 . S
C67 C63 1.397 . S
C67 C68 1.394 . S
C67 C86 1.723 . S
C68 C65 1.396 . S
C68 C67 1.394 . S
C68 C98 1.723 . S
H69 C92 0.947 . S
H70 C93 0.948 . S
H71 C99 0.982 . S
H72 C100 0.979 . S
H73 C100 0.980 . S
H74 C100 0.983 . S
H75 C99 0.979 . S
H76 C99 0.977 . S
C77 C65 1.453 . S
C77 H106 0.982 . S
C77 H107 0.979 . S
C77 H108 0.977 . S
C78 C65 1.684 . S
C78 H103 0.979 . S
C78 H104 0.980 . S
C78 H105 0.983 1_554 S
C79 C80 1.391 . S
C79 C84 1.391 . S
C79 H109 0.948 . S
C80 C79 1.391 . S
C80 C81 1.391 . S
C81 C80 1.391 . S
C81 C82 1.392 . S
C81 H110 0.947 . S
C82 C81 1.392 . S
C82 C83 1.419 . S
C82 H111 0.948 . S
C83 C82 1.419 . S
C83 C84 1.391 . S
C83 C87 1.397 . S
C84 C79 1.391 . S
C84 C83 1.391 . S
C84 C85 1.399 . S
C85 C84 1.399 . S
C85 C86 1.396 . S
C85 C88 1.453 . S
C85 C89 1.684 . S
C86 C67 1.723 . S
C86 C85 1.396 . S
C86 C87 1.394 . S
C87 C83 1.397 . S
C87 C86 1.394 . S
C87 C97 1.723 . S
C88 C85 1.453 . S
C88 H112 0.982 . S
C88 H113 0.979 . S
C88 H114 0.977 . S
C89 C85 1.684 . S
C89 H115 0.979 . S
C89 H116 0.980 . S
C89 H117 0.983 . S
C90 H66 0.948 . S
C90 C91 1.391 . S
C90 C95 1.391 . S
C91 C90 1.391 . S
C91 C92 1.391 . S
C92 H69 0.947 . S
C92 C91 1.391 . S
C92 C93 1.392 . S
C93 H70 0.948 . S
C93 C92 1.392 . S
C93 C94 1.419 . S
C94 C93 1.419 . S
C94 C95 1.391 . S
C94 C98 1.397 . S
C95 C90 1.391 . S
C95 C94 1.391 . S
C95 C96 1.399 . S
C96 C95 1.399 . S
C96 C97 1.396 . S
C96 C99 1.453 . S
C96 C100 1.684 . S
C97 C87 1.723 . S
C97 C96 1.396 . S
C97 C98 1.394 . S
C98 C68 1.723 . S
C98 C94 1.397 . S
C98 C97 1.394 . S
C99 H71 0.982 . S
C99 H75 0.979 . S
C99 H76 0.977 . S
C99 C96 1.453 . S
C100 H72 0.979 . S
C100 H73 0.980 . S
C100 H74 0.983 . S
C100 C96 1.684 . S
H101 C119 0.948 . S
H102 C60 0.948 1_556 S
H103 C78 0.979 . S
H104 C78 0.980 . S
H105 C78 0.983 1_556 S
H106 C77 0.982 . S
H107 C77 0.979 . S
H108 C77 0.977 . S
H109 C79 0.948 . S
H110 C81 0.947 . S
H111 C82 0.948 . S
H112 C88 0.982 . S
H113 C88 0.979 . S
H114 C88 0.977 . S
H115 C89 0.979 . S
H116 C89 0.980 . S
H117 C89 0.983 . S
H118 C62 0.947 . S
C119 C62 1.392 . S
C119 C63 1.419 . S
C119 H101 0.948 . S
C120 C121 1.391 . S
C120 C124 1.391 . S
C120 H162 0.948 . S
C121 C120 1.391 . S
C121 C122 1.391 . S
C122 C121 1.391 . S
C122 H178 0.947 . S
C122 C179 1.392 . S
C123 C124 1.391 . S
C123 C127 1.397 . S
C123 C179 1.419 . S
C124 C120 1.391 . S
C124 C123 1.391 . S
C124 C125 1.399 . S
C125 C124 1.399 . S
C125 C128 1.396 . S
C125 C137 1.453 . S
C125 C138 1.684 . S
H126 C150 0.948 . S
C127 C123 1.397 . S
C127 C128 1.394 . S
C127 C146 1.723 . S
C128 C125 1.396 . S
C128 C127 1.394 . S
C128 C158 1.723 . S
H129 C152 0.947 . S
H130 C153 0.948 . S
H131 C159 0.982 . S
H132 C160 0.979 . S
H133 C160 0.980 . S
H134 C160 0.983 . S
H135 C159 0.979 . S
H136 C159 0.977 . S
C137 C125 1.453 . S
C137 H166 0.982 . S
C137 H167 0.979 . S
C137 H168 0.977 . S
C138 C125 1.684 . S
C138 H163 0.979 . S
C138 H164 0.980 . S
C138 H165 0.983 . S
C139 C140 1.391 . S
C139 C144 1.391 . S
C139 H169 0.948 1_554 S
C140 C139 1.391 . S
C140 C141 1.391 . S
C141 C140 1.391 . S
C141 C142 1.392 . S
C141 H170 0.947 . S
C142 C141 1.392 . S
C142 C143 1.419 . S
C142 H171 0.948 . S
C143 C142 1.419 . S
C143 C144 1.391 . S
C143 C147 1.397 . S
C144 C139 1.391 . S
C144 C143 1.391 . S
C144 C145 1.399 . S
C145 C144 1.399 . S
C145 C146 1.396 . S
C145 C148 1.453 . S
C145 C149 1.684 . S
C146 C127 1.723 . S
C146 C145 1.396 . S
C146 C147 1.394 . S
C147 C143 1.397 . S
C147 C146 1.394 . S
C147 C157 1.723 . S
C148 C145 1.453 . S
C148 H172 0.982 . S
C148 H173 0.979 . S
C148 H174 0.977 . S
C149 C145 1.684 . S
C149 H175 0.979 . S
C149 H176 0.980 . S
C149 H177 0.983 1_554 S
C150 H126 0.948 . S
C150 C151 1.391 . S
C150 C155 1.391 . S
C151 C150 1.391 . S
C151 C152 1.391 . S
C152 H129 0.947 . S
C152 C151 1.391 . S
C152 C153 1.392 . S
C153 H130 0.948 . S
C153 C152 1.392 . S
C153 C154 1.419 . S
C154 C153 1.419 . S
C154 C155 1.391 . S
C154 C158 1.397 . S
C155 C150 1.391 . S
C155 C154 1.391 . S
C155 C156 1.399 . S
C156 C155 1.399 . S
C156 C157 1.396 . S
C156 C159 1.453 . S
C156 C160 1.684 . S
C157 C147 1.723 . S
C157 C156 1.396 . S
C157 C158 1.394 . S
C158 C128 1.723 . S
C158 C154 1.397 . S
C158 C157 1.394 . S
C159 H131 0.982 . S
C159 H135 0.979 . S
C159 H136 0.977 . S
C159 C156 1.453 . S
C160 H132 0.979 . S
C160 H133 0.980 . S
C160 H134 0.983 . S
C160 C156 1.684 . S
H161 C179 0.948 . S
H162 C120 0.948 . S
H163 C138 0.979 . S
H164 C138 0.980 . S
H165 C138 0.983 . S
H166 C137 0.982 . S
H167 C137 0.979 . S
H168 C137 0.977 . S
H169 C139 0.948 1_556 S
H170 C141 0.947 . S
H171 C142 0.948 . S
H172 C148 0.982 . S
H173 C148 0.979 . S
H174 C148 0.977 . S
H175 C149 0.979 . S
H176 C149 0.980 . S
H177 C149 0.983 1_556 S
H178 C122 0.947 . S
C179 C122 1.392 . S
C179 C123 1.419 . S
C179 H161 0.948 . S
C180 C181 1.391 . S
C180 C184 1.391 . S
C180 H222 0.948 . S
C181 C180 1.391 . S
C181 C182 1.391 . S
C182 C181 1.391 . S
C182 H238 0.947 . S
C182 C239 1.392 . S
C183 C184 1.391 . S
C183 C187 1.397 . S
C183 C239 1.419 . S
C184 C180 1.391 . S
C184 C183 1.391 . S
C184 C185 1.399 . S
C185 C184 1.399 . S
C185 C188 1.396 . S
C185 C197 1.453 . S
C185 C198 1.684 . S
H186 C210 0.948 . S
C187 C183 1.397 . S
C187 C188 1.394 . S
C187 C206 1.723 . S
C188 C185 1.396 . S
C188 C187 1.394 . S
C188 C218 1.723 . S
H189 C212 0.947 . S
H190 C213 0.948 . S
H191 C219 0.982 . S
H192 C220 0.979 . S
H193 C220 0.980 . S
H194 C220 0.983 . S
H195 C219 0.979 . S
H196 C219 0.977 . S
C197 C185 1.453 . S
C197 H226 0.982 . S
C197 H227 0.979 . S
C197 H228 0.977 . S
C198 C185 1.684 . S
C198 H223 0.979 . S
C198 H224 0.980 . S
C198 H225 0.983 . S
C199 C200 1.391 . S
C199 C204 1.391 . S
C199 H229 0.948 . S
C200 C199 1.391 . S
C200 C201 1.391 . S
C201 C200 1.391 . S
C201 C202 1.392 . S
C201 H230 0.947 1_554 S
C202 C201 1.392 . S
C202 C203 1.419 . S
C202 H231 0.948 . S
C203 C202 1.419 . S
C203 C204 1.391 . S
C203 C207 1.397 . S
C204 C199 1.391 . S
C204 C203 1.391 . S
C204 C205 1.399 . S
C205 C204 1.399 . S
C205 C206 1.396 . S
C205 C208 1.453 . S
C205 C209 1.684 . S
C206 C187 1.723 . S
C206 C205 1.396 . S
C206 C207 1.394 . S
C207 C203 1.397 . S
C207 C206 1.394 . S
C207 C217 1.723 . S
C208 C205 1.453 . S
C208 H232 0.982 . S
C208 H233 0.979 . S
C208 H234 0.977 . S
C209 C205 1.684 . S
C209 H235 0.979 . S
C209 H236 0.980 . S
C209 H237 0.983 . S
C210 H186 0.948 . S
C210 C211 1.391 . S
C210 C215 1.391 . S
C211 C210 1.391 . S
C211 C212 1.391 . S
C212 H189 0.947 . S
C212 C211 1.391 . S
C212 C213 1.392 . S
C213 H190 0.948 . S
C213 C212 1.392 . S
C213 C214 1.419 . S
C214 C213 1.419 . S
C214 C215 1.391 . S
C214 C218 1.397 . S
C215 C210 1.391 . S
C215 C214 1.391 . S
C215 C216 1.399 . S
C216 C215 1.399 . S
C216 C217 1.396 . S
C216 C219 1.453 . S
C216 C220 1.684 . S
C217 C207 1.723 . S
C217 C216 1.396 . S
C217 C218 1.394 . S
C218 C188 1.723 . S
C218 C214 1.397 . S
C218 C217 1.394 . S
C219 H191 0.982 . S
C219 H195 0.979 . S
C219 H196 0.977 . S
C219 C216 1.453 . S
C220 H192 0.979 . S
C220 H193 0.980 . S
C220 H194 0.983 . S
C220 C216 1.684 . S
H221 C239 0.948 . S
H222 C180 0.948 . S
H223 C198 0.979 . S
H224 C198 0.980 . S
H225 C198 0.983 . S
H226 C197 0.982 . S
H227 C197 0.979 . S
H228 C197 0.977 . S
H229 C199 0.948 . S
H230 C201 0.947 1_556 S
H231 C202 0.948 . S
H232 C208 0.982 . S
H233 C208 0.979 . S
H234 C208 0.977 . S
H235 C209 0.979 . S
H236 C209 0.980 . S
H237 C209 0.983 . S
H238 C182 0.947 . S
C239 C182 1.392 . S
C239 C183 1.419 . S
C239 H221 0.948 . S
C240 C241 1.391 . S
C240 C244 1.391 . S
C240 H282 0.948 . S
C241 C240 1.391 . S
C241 C242 1.391 . S
C242 C241 1.391 . S
C242 H298 0.947 . S
C242 C299 1.392 . S
C243 C244 1.391 . S
C243 C247 1.397 . S
C243 C299 1.419 . S
C244 C240 1.391 . S
C244 C243 1.391 . S
C244 C245 1.399 1_554 S
C245 C244 1.399 1_556 S
C245 C248 1.396 1_556 S
C245 C257 1.453 . S
C245 C258 1.684 . S
H246 C270 0.948 . S
C247 C243 1.397 . S
C247 C248 1.394 . S
C247 C266 1.723 . S
C248 C245 1.396 1_554 S
C248 C247 1.394 . S
C248 C278 1.723 1_554 S
H249 C272 0.947 . S
H250 C273 0.948 . S
H251 C279 0.982 . S
H252 C280 0.979 . S
H253 C280 0.980 1_554 S
H254 C280 0.983 . S
H255 C279 0.979 . S
H256 C279 0.977 1_554 S
C257 C245 1.453 . S
C257 H286 0.982 . S
C257 H287 0.979 . S
C257 H288 0.977 . S
C258 C245 1.684 . S
C258 H283 0.979 . S
C258 H284 0.980 . S
C258 H285 0.983 . S
C259 C260 1.391 . S
C259 C264 1.391 . S
C259 H289 0.948 . S
C260 C259 1.391 . S
C260 C261 1.391 . S
C261 C260 1.391 . S
C261 C262 1.392 . S
C261 H290 0.947 . S
C262 C261 1.392 . S
C262 C263 1.419 . S
C262 H291 0.948 . S
C263 C262 1.419 . S
C263 C264 1.391 . S
C263 C267 1.397 . S
C264 C259 1.391 . S
C264 C263 1.391 . S
C264 C265 1.399 . S
C265 C264 1.399 . S
C265 C266 1.396 . S
C265 C268 1.453 . S
C265 C269 1.684 . S
C266 C247 1.723 . S
C266 C265 1.396 . S
C266 C267 1.394 . S
C267 C263 1.397 . S
C267 C266 1.394 . S
C267 C277 1.723 . S
C268 C265 1.453 . S
C268 H292 0.982 . S
C268 H293 0.979 . S
C268 H294 0.977 . S
C269 C265 1.684 . S
C269 H295 0.979 . S
C269 H296 0.980 . S
C269 H297 0.983 . S
C270 H246 0.948 . S
C270 C271 1.391 . S
C270 C275 1.391 . S
C271 C270 1.391 . S
C271 C272 1.391 . S
C272 H249 0.947 . S
C272 C271 1.391 . S
C272 C273 1.392 . S
C273 H250 0.948 . S
C273 C272 1.392 . S
C273 C274 1.419 . S
C274 C273 1.419 . S
C274 C275 1.391 . S
C274 C278 1.397 . S
C275 C270 1.391 . S
C275 C274 1.391 . S
C275 C276 1.399 . S
C276 C275 1.399 . S
C276 C277 1.396 1_556 S
C276 C279 1.453 . S
C276 C280 1.684 . S
C277 C267 1.723 . S
C277 C276 1.396 1_554 S
C277 C278 1.394 1_554 S
C278 C248 1.723 1_556 S
C278 C274 1.397 . S
C278 C277 1.394 1_556 S
C279 H251 0.982 . S
C279 H255 0.979 . S
C279 H256 0.977 1_556 S
C279 C276 1.453 . S
C280 H252 0.979 . S
C280 H253 0.980 1_556 S
C280 H254 0.983 . S
C280 C276 1.684 . S
H281 C299 0.948 . S
H282 C240 0.948 . S
H283 C258 0.979 . S
H284 C258 0.980 . S
H285 C258 0.983 . S
H286 C257 0.982 . S
H287 C257 0.979 . S
H288 C257 0.977 . S
H289 C259 0.948 . S
H290 C261 0.947 . S
H291 C262 0.948 . S
H292 C268 0.982 . S
H293 C268 0.979 . S
H294 C268 0.977 . S
H295 C269 0.979 . S
H296 C269 0.980 . S
H297 C269 0.983 . S
H298 C242 0.947 . S
C299 C242 1.392 . S
C299 C243 1.419 . S
C299 H281 0.948 . S
C300 C301 1.391 . S
C300 C304 1.391 . S
C300 H342 0.948 . S
C301 C300 1.391 . S
C301 C302 1.391 . S
C302 C301 1.391 . S
C302 H358 0.947 . S
C302 C359 1.392 . S
C303 C304 1.391 . S
C303 C307 1.397 . S
C303 C359 1.419 . S
C304 C300 1.391 . S
C304 C303 1.391 . S
C304 C305 1.399 . S
C305 C304 1.399 . S
C305 C308 1.396 . S
C305 C317 1.453 . S
C305 C318 1.684 . S
H306 C330 0.948 . S
C307 C303 1.397 . S
C307 C308 1.394 . S
C307 C326 1.723 . S
C308 C305 1.396 . S
C308 C307 1.394 . S
C308 C338 1.723 . S
H309 C332 0.947 . S
H310 C333 0.948 . S
H311 C339 0.982 . S
H312 C340 0.979 . S
H313 C340 0.980 . S
H314 C340 0.983 . S
H315 C339 0.979 . S
H316 C339 0.977 . S
C317 C305 1.453 . S
C317 H346 0.982 . S
C317 H347 0.979 . S
C317 H348 0.977 . S
C318 C305 1.684 . S
C318 H343 0.979 . S
C318 H344 0.980 . S
C318 H345 0.983 . S
C319 C320 1.391 . S
C319 C324 1.391 . S
C319 H349 0.948 . S
C320 C319 1.391 . S
C320 C321 1.391 . S
C321 C320 1.391 . S
C321 C322 1.392 . S
C321 H350 0.947 . S
C322 C321 1.392 . S
C322 C323 1.419 . S
C322 H351 0.948 . S
C323 C322 1.419 . S
C323 C324 1.391 . S
C323 C327 1.397 . S
C324 C319 1.391 . S
C324 C323 1.391 . S
C324 C325 1.399 . S
C325 C324 1.399 . S
C325 C326 1.396 1_556 S
C325 C328 1.453 . S
C325 C329 1.684 . S
C326 C307 1.723 . S
C326 C325 1.396 1_554 S
C326 C327 1.394 1_554 S
C327 C323 1.397 . S
C327 C326 1.394 1_556 S
C327 C337 1.723 1_556 S
C328 C325 1.453 . S
C328 H352 0.982 . S
C328 H353 0.979 . S
C328 H354 0.977 1_556 S
C329 C325 1.684 . S
C329 H355 0.979 . S
C329 H356 0.980 1_556 S
C329 H357 0.983 . S
C330 H306 0.948 . S
C330 C331 1.391 . S
C330 C335 1.391 . S
C331 C330 1.391 . S
C331 C332 1.391 . S
C332 H309 0.947 . S
C332 C331 1.391 . S
C332 C333 1.392 . S
C333 H310 0.948 . S
C333 C332 1.392 . S
C333 C334 1.419 . S
C334 C333 1.419 . S
C334 C335 1.391 . S
C334 C338 1.397 . S
C335 C330 1.391 . S
C335 C334 1.391 . S
C335 C336 1.399 1_554 S
C336 C335 1.399 1_556 S
C336 C337 1.396 1_556 S
C336 C339 1.453 . S
C336 C340 1.684 . S
C337 C327 1.723 1_554 S
C337 C336 1.396 1_554 S
C337 C338 1.394 . S
C338 C308 1.723 . S
C338 C334 1.397 . S
C338 C337 1.394 . S
C339 H311 0.982 . S
C339 H315 0.979 . S
C339 H316 0.977 . S
C339 C336 1.453 . S
C340 H312 0.979 . S
C340 H313 0.980 . S
C340 H314 0.983 . S
C340 C336 1.684 . S
H341 C359 0.948 . S
H342 C300 0.948 . S
H343 C318 0.979 . S
H344 C318 0.980 . S
H345 C318 0.983 . S
H346 C317 0.982 . S
H347 C317 0.979 . S
H348 C317 0.977 . S
H349 C319 0.948 . S
H350 C321 0.947 . S
H351 C322 0.948 . S
H352 C328 0.982 . S
H353 C328 0.979 . S
H354 C328 0.977 1_554 S
H355 C329 0.979 . S
H356 C329 0.980 1_554 S
H357 C329 0.983 . S
H358 C302 0.947 . S
C359 C302 1.392 . S
C359 C303 1.419 . S
C359 H341 0.948 . S
C360 C361 1.391 . S
C360 C364 1.391 . S
C360 H402 0.948 . S
C361 C360 1.391 . S
C361 C362 1.391 . S
C362 C361 1.391 . S
C362 H418 0.947 . S
C362 C419 1.392 . S
C363 C364 1.391 . S
C363 C367 1.397 . S
C363 C419 1.419 . S
C364 C360 1.391 . S
C364 C363 1.391 . S
C364 C365 1.399 . S
C365 C364 1.399 . S
C365 C368 1.396 . S
C365 C377 1.453 . S
C365 C378 1.684 . S
H366 C390 0.948 . S
C367 C363 1.397 . S
C367 C368 1.394 . S
C367 C386 1.723 1_556 S
C368 C365 1.396 . S
C368 C367 1.394 . S
C368 C398 1.723 1_556 S
H369 C392 0.947 . S
H370 C393 0.948 1_556 S
H371 C399 0.982 . S
H372 C400 0.979 . S
H373 C400 0.980 . S
H374 C400 0.983 . S
H375 C399 0.979 . S
H376 C399 0.977 . S
C377 C365 1.453 . S
C377 H406 0.982 . S
C377 H407 0.979 . S
C377 H408 0.977 . S
C378 C365 1.684 . S
C378 H403 0.979 . S
C378 H404 0.980 . S
C378 H405 0.983 . S
C379 C380 1.391 . S
C379 C384 1.391 . S
C379 H409 0.948 . S
C380 C379 1.391 . S
C380 C381 1.391 . S
C381 C380 1.391 . S
C381 C382 1.392 . S
C381 H410 0.947 . S
C382 C381 1.392 . S
C382 C383 1.419 . S
C382 H411 0.948 . S
C383 C382 1.419 . S
C383 C384 1.391 . S
C383 C387 1.397 . S
C384 C379 1.391 . S
C384 C383 1.391 . S
C384 C385 1.399 . S
C385 C384 1.399 . S
C385 C386 1.396 . S
C385 C388 1.453 . S
C385 C389 1.684 . S
C386 C367 1.723 1_554 S
C386 C385 1.396 . S
C386 C387 1.394 . S
C387 C383 1.397 . S
C387 C386 1.394 . S
C387 C397 1.723 . S
C388 C385 1.453 . S
C388 H412 0.982 . S
C388 H413 0.979 . S
C388 H414 0.977 1_554 S
C389 C385 1.684 . S
C389 H415 0.979 . S
C389 H416 0.980 1_554 S
C389 H417 0.983 . S
C390 H366 0.948 . S
C390 C391 1.391 . S
C390 C395 1.391 . S
C391 C390 1.391 . S
C391 C392 1.391 . S
C392 H369 0.947 . S
C392 C391 1.391 . S
C392 C393 1.392 . S
C393 H370 0.948 1_554 S
C393 C392 1.392 . S
C393 C394 1.419 . S
C394 C393 1.419 . S
C394 C395 1.391 . S
C394 C398 1.397 . S
C395 C390 1.391 . S
C395 C394 1.391 . S
C395 C396 1.399 . S
C396 C395 1.399 . S
C396 C397 1.396 . S
C396 C399 1.453 . S
C396 C400 1.684 . S
C397 C387 1.723 . S
C397 C396 1.396 . S
C397 C398 1.394 . S
C398 C368 1.723 1_554 S
C398 C394 1.397 . S
C398 C397 1.394 . S
C399 H371 0.982 . S
C399 H375 0.979 . S
C399 H376 0.977 . S
C399 C396 1.453 . S
C400 H372 0.979 . S
C400 H373 0.980 . S
C400 H374 0.983 . S
C400 C396 1.684 . S
H401 C419 0.948 . S
H402 C360 0.948 . S
H403 C378 0.979 . S
H404 C378 0.980 . S
H405 C378 0.983 . S
H406 C377 0.982 . S
H407 C377 0.979 . S
H408 C377 0.977 . S
H409 C379 0.948 . S
H410 C381 0.947 . S
H411 C382 0.948 . S
H412 C388 0.982 . S
H413 C388 0.979 . S
H414 C388 0.977 1_556 S
H415 C389 0.979 . S
H416 C389 0.980 1_556 S
H417 C389 0.983 . S
H418 C362 0.947 . S
C419 C362 1.392 . S
C419 C363 1.419 . S
C419 H401 0.948 . S
C420 C421 1.391 . S
C420 C424 1.391 . S
C420 H462 0.948 . S
C421 C420 1.391 . S
C421 C422 1.391 . S
C422 C421 1.391 . S
C422 H478 0.947 . S
C422 C479 1.392 . S
C423 C424 1.391 . S
C423 C427 1.397 . S
C423 C479 1.419 . S
C424 C420 1.391 . S
C424 C423 1.391 . S
C424 C425 1.399 . S
C425 C424 1.399 . S
C425 C428 1.396 . S
C425 C437 1.453 . S
C425 C438 1.684 . S
H426 C450 0.948 . S
C427 C423 1.397 . S
C427 C428 1.394 . S
C427 C446 1.723 1_556 S
C428 C425 1.396 . S
C428 C427 1.394 . S
C428 C458 1.723 1_556 S
H429 C452 0.947 1_556 S
H430 C453 0.948 1_556 S
H431 C459 0.982 . S
H432 C460 0.979 . S
H433 C460 0.980 . S
H434 C460 0.983 . S
H435 C459 0.979 . S
H436 C459 0.977 . S
C437 C425 1.453 . S
C437 H466 0.982 . S
C437 H467 0.979 . S
C437 H468 0.977 . S
C438 C425 1.684 . S
C438 H463 0.979 . S
C438 H464 0.980 . S
C438 H465 0.983 . S
C439 C440 1.391 . S
C439 C444 1.391 . S
C439 H469 0.948 . S
C440 C439 1.391 . S
C440 C441 1.391 . S
C441 C440 1.391 . S
C441 C442 1.392 . S
C441 H470 0.947 . S
C442 C441 1.392 . S
C442 C443 1.419 . S
C442 H471 0.948 . S
C443 C442 1.419 . S
C443 C444 1.391 . S
C443 C447 1.397 . S
C444 C439 1.391 . S
C444 C443 1.391 . S
C444 C445 1.399 . S
C445 C444 1.399 . S
C445 C446 1.396 . S
C445 C448 1.453 . S
C445 C449 1.684 . S
C446 C427 1.723 1_554 S
C446 C445 1.396 . S
C446 C447 1.394 . S
C447 C443 1.397 . S
C447 C446 1.394 . S
C447 C457 1.723 . S
C448 C445 1.453 . S
C448 H472 0.982 . S
C448 H473 0.979 . S
C448 H474 0.977 1_554 S
C449 C445 1.684 . S
C449 H475 0.979 . S
C449 H476 0.980 1_554 S
C449 H477 0.983 . S
C450 H426 0.948 . S
C450 C451 1.391 . S
C450 C455 1.391 . S
C451 C450 1.391 . S
C451 C452 1.391 . S
C452 H429 0.947 1_554 S
C452 C451 1.391 . S
C452 C453 1.392 . S
C453 H430 0.948 1_554 S
C453 C452 1.392 . S
C453 C454 1.419 . S
C454 C453 1.419 . S
C454 C455 1.391 . S
C454 C458 1.397 . S
C455 C450 1.391 . S
C455 C454 1.391 . S
C455 C456 1.399 . S
C456 C455 1.399 . S
C456 C457 1.396 . S
C456 C459 1.453 . S
C456 C460 1.684 . S
C457 C447 1.723 . S
C457 C456 1.396 . S
C457 C458 1.394 . S
C458 C428 1.723 1_554 S
C458 C454 1.397 . S
C458 C457 1.394 . S
C459 H431 0.982 . S
C459 H435 0.979 . S
C459 H436 0.977 . S
C459 C456 1.453 . S
C460 H432 0.979 . S
C460 H433 0.980 . S
C460 H434 0.983 . S
C460 C456 1.684 . S
H461 C479 0.948 . S
H462 C420 0.948 . S
H463 C438 0.979 . S
H464 C438 0.980 . S
H465 C438 0.983 . S
H466 C437 0.982 . S
H467 C437 0.979 . S
H468 C437 0.977 . S
H469 C439 0.948 . S
H470 C441 0.947 . S
H471 C442 0.948 . S
H472 C448 0.982 . S
H473 C448 0.979 . S
H474 C448 0.977 1_556 S
H475 C449 0.979 . S
H476 C449 0.980 1_556 S
H477 C449 0.983 . S
H478 C422 0.947 . S
C479 C422 1.392 . S
C479 C423 1.419 . S
C479 H461 0.948 . S
C480 C482 1.422 . S
C480 C484 1.415 . S
C480 N486 1.369 1_545 S
C481 C482 1.421 . S
C481 C483 1.417 . S
C481 C493 1.422 . S
C482 C480 1.422 . S
C482 C481 1.421 . S
C482 N492 1.359 . S
C483 C481 1.417 . S
C483 C485 1.329 . S
C483 H502 0.930 . S
C484 C480 1.415 . S
C484 C485 1.437 . S
C484 C488 1.413 . S
C485 C483 1.329 . S
C485 C484 1.437 . S
C485 H507 0.929 . S
N486 C480 1.369 1_565 S
N486 C487 1.338 . S
N486 Gd491 2.622 . S
C487 N486 1.338 . S
C487 C489 1.378 1_565 S
C487 H499 0.929 . S
C488 C484 1.413 . S
C488 C489 1.348 . S
C488 H504 0.931 . S
C489 C487 1.378 1_545 S
C489 C488 1.348 . S
C489 H505 0.930 . S
Gd490 N510 2.622 . S
Gd490 N517 2.570 . S
Gd490 O524 2.353 1_655 S
Gd490 O525 2.466 1_655 S
Gd490 O526 2.427 . S
Gd490 O528 2.388 . S
Gd490 O529 2.386 1_545 S
Gd490 O533 2.307 1_655 S
Gd490 C543 2.805 . S
Gd491 N486 2.622 . S
Gd491 N492 2.570 1_565 S
Gd491 O523 2.386 1_565 S
Gd491 O527 2.303 1_465 S
Gd491 O530 2.353 . S
Gd491 O531 2.468 . S
Gd491 O532 2.427 . S
Gd491 O534 2.388 . S
Gd491 C555 2.805 . S
N492 C482 1.359 . S
N492 Gd491 2.570 1_545 S
N492 C494 1.343 . S
C493 C481 1.422 . S
C493 C495 1.321 . S
C493 H501 0.931 . S
C494 N492 1.343 . S
C494 C495 1.390 . S
C494 H496 0.865 1_445 S
C495 C493 1.321 . S
C495 C494 1.390 . S
C495 H497 0.930 . S
H496 C494 0.865 1_665 S
H497 C495 0.930 . S
H498 C521 0.921 1_455 S
H499 C487 0.929 . S
H500 C522 0.930 1_455 S
H501 C493 0.931 . S
H502 C483 0.930 . S
H503 C512 0.929 . S
H504 C488 0.931 . S
H505 C489 0.930 . S
H506 C544 0.930 . S
H507 C485 0.929 . S
H508 C513 0.942 . S
H509 C514 0.930 . S
N510 Gd490 2.622 . S
N510 C511 1.369 . S
N510 C512 1.338 . S
C511 N510 1.369 . S
C511 C515 1.415 1_545 S
C511 C518 1.422 . S
C512 H503 0.929 . S
C512 N510 1.338 . S
C512 C514 1.378 . S
C513 H508 0.942 . S
C513 C514 1.335 1_565 S
C513 C515 1.416 . S
C514 H509 0.930 . S
C514 C512 1.378 . S
C514 C513 1.335 1_545 S
C515 C511 1.415 1_565 S
C515 C513 1.416 . S
C515 C545 1.437 . S
H516 C545 0.929 . S
N517 Gd490 2.570 . S
N517 C518 1.359 . S
N517 C521 1.352 . S
C518 C511 1.422 . S
C518 N517 1.359 . S
C518 C520 1.421 1_545 S
C519 C520 1.422 . S
C519 C522 1.321 . S
C519 H546 0.931 . S
C520 C518 1.421 1_565 S
C520 C519 1.422 . S
C520 C544 1.417 . S
C521 H498 0.921 1_655 S
C521 N517 1.352 . S
C521 C522 1.391 1_545 S
C522 H500 0.930 1_655 S
C522 C519 1.321 . S
C522 C521 1.391 1_565 S
O523 Gd491 2.386 1_545 S
O523 C535 1.265 . S
O524 Gd490 2.353 1_455 S
O524 C535 1.242 . S
O525 Gd490 2.466 1_455 S
O525 C543 1.259 1_455 S
O526 Gd490 2.427 . S
O526 C543 1.252 . S
O527 Gd491 2.303 1_645 S
O527 C536 1.264 . S
O528 Gd490 2.388 . S
O528 C536 1.252 . S
O529 Gd490 2.386 1_565 S
O529 C547 1.265 . S
O530 Gd491 2.353 . S
O530 C547 1.242 1_455 S
O531 Gd491 2.468 . S
O531 C555 1.263 . S
O532 Gd491 2.427 . S
O532 C555 1.252 . S
O533 Gd490 2.307 1_455 S
O533 C548 1.261 . S
O534 Gd491 2.388 . S
O534 C548 1.252 1_565 S
C535 O523 1.265 . S
C535 O524 1.242 . S
C536 O527 1.264 . S
C536 O528 1.252 . S
C537 C540 1.394 . S
C537 C542 1.370 . S
C537 C543 1.500 . S
C538 C541 1.383 . S
C538 C542 1.395 . S
C539 C540 1.396 . S
C539 C541 1.365 . S
C539 H556 0.929 . S
C540 C537 1.394 . S
C540 C539 1.396 . S
C540 H557 0.930 . S
C541 C538 1.383 . S
C541 C539 1.365 . S
C541 H558 0.931 . S
C542 C537 1.370 . S
C542 C538 1.395 . S
C542 H559 0.930 1_655 S
C543 Gd490 2.805 . S
C543 O525 1.259 1_655 S
C543 O526 1.252 . S
C543 C537 1.500 . S
C544 H506 0.930 . S
C544 C520 1.417 . S
C544 C545 1.329 . S
C545 C515 1.437 . S
C545 H516 0.929 . S
C545 C544 1.329 . S
H546 C519 0.931 . S
C547 O529 1.265 . S
C547 O530 1.242 1_655 S
C548 O533 1.261 . S
C548 O534 1.252 1_545 S
C549 C552 1.394 . S
C549 C554 1.370 . S
C549 C555 1.500 . S
C550 C553 1.383 . S
C550 C554 1.395 . S
C551 C552 1.396 . S
C551 C553 1.365 . S
C551 H560 0.929 . S
C552 C549 1.394 . S
C552 C551 1.396 . S
C552 H561 0.930 . S
C553 C550 1.383 . S
C553 C551 1.365 . S
C553 H562 0.931 . S
C554 C549 1.370 . S
C554 C550 1.395 . S
C554 H563 0.964 . S
C555 Gd491 2.805 . S
C555 O531 1.263 . S
C555 O532 1.252 . S
C555 C549 1.500 . S
H556 C539 0.929 . S
H557 C540 0.930 . S
H558 C541 0.931 . S
H559 C542 0.930 1_455 S
H560 C551 0.929 . S
H561 C552 0.930 . S
H562 C553 0.931 . S
H563 C554 0.964 . S
C564 C566 1.422 . S
C564 C568 1.415 . S
C564 N570 1.369 . S
C565 C566 1.421 . S
C565 C567 1.417 . S
C565 C577 1.422 . S
C566 C564 1.422 . S
C566 C565 1.421 . S
C566 N576 1.359 . S
C567 C565 1.417 . S
C567 C569 1.329 . S
C567 H586 0.930 . S
C568 C564 1.415 . S
C568 C569 1.437 . S
C568 C572 1.413 . S
C569 C567 1.329 . S
C569 C568 1.437 . S
C569 H591 0.929 . S
N570 C564 1.369 . S
N570 C571 1.338 . S
N570 Gd575 2.622 . S
C571 N570 1.338 . S
C571 C573 1.378 . S
C571 H583 0.929 . S
C572 C568 1.413 . S
C572 C573 1.348 . S
C572 H588 0.931 . S
C573 C571 1.378 . S
C573 C572 1.348 . S
C573 H589 0.930 . S
Gd574 N594 2.622 . S
Gd574 N601 2.570 . S
Gd574 O608 2.353 1_545 S
Gd574 O609 2.468 . S
Gd574 O610 2.427 . S
Gd574 O612 2.388 . S
Gd574 O613 2.386 . S
Gd574 O617 2.307 . S
Gd574 C627 2.805 . S
Gd575 N570 2.622 . S
Gd575 N576 2.570 . S
Gd575 O607 2.386 . S
Gd575 O611 2.307 1_565 S
Gd575 O614 2.353 1_565 S
Gd575 O615 2.468 . S
Gd575 O616 2.427 . S
Gd575 O618 2.388 . S
Gd575 C639 2.805 . S
N576 C566 1.359 . S
N576 Gd575 2.570 . S
N576 C578 1.343 . S
C577 C565 1.422 . S
C577 C579 1.321 . S
C577 H585 0.931 . S
C578 N576 1.343 . S
C578 C579 1.390 . S
C578 H580 0.931 . S
C579 C577 1.321 . S
C579 C578 1.390 . S
C579 H581 0.930 . S
H580 C578 0.931 . S
H581 C579 0.930 . S
H582 C605 0.931 . S
H583 C571 0.929 . S
H584 C606 0.930 . S
H585 C577 0.931 . S
H586 C567 0.930 . S
H587 C596 0.929 . S
H588 C572 0.931 . S
H589 C573 0.930 . S
H590 C628 0.930 . S
H591 C569 0.929 . S
H592 C597 0.931 . S
H593 C598 0.930 . S
N594 Gd574 2.622 . S
N594 C595 1.369 . S
N594 C596 1.338 . S
C595 N594 1.369 . S
C595 C599 1.415 . S
C595 C602 1.422 . S
C596 H587 0.929 . S
C596 N594 1.338 . S
C596 C598 1.378 . S
C597 H592 0.931 . S
C597 C598 1.348 . S
C597 C599 1.413 . S
C598 H593 0.930 . S
C598 C596 1.378 . S
C598 C597 1.348 . S
C599 C595 1.415 . S
C599 C597 1.413 . S
C599 C629 1.437 . S
H600 C629 0.929 . S
N601 Gd574 2.570 . S
N601 C602 1.359 . S
N601 C605 1.343 . S
C602 C595 1.422 . S
C602 N601 1.359 . S
C602 C604 1.421 . S
C603 C604 1.422 . S
C603 C606 1.321 . S
C603 H630 0.931 . S
C604 C602 1.421 . S
C604 C603 1.422 . S
C604 C628 1.417 . S
C605 H582 0.931 . S
C605 N601 1.343 . S
C605 C606 1.390 . S
C606 H584 0.930 . S
C606 C603 1.321 . S
C606 C605 1.390 . S
O607 Gd575 2.386 . S
O607 C619 1.265 . S
O608 Gd574 2.353 1_565 S
O608 C619 1.242 . S
O609 Gd574 2.468 . S
O609 C627 1.263 . S
O610 Gd574 2.427 . S
O610 C627 1.252 . S
O611 Gd575 2.307 1_545 S
O611 C620 1.261 . S
O612 Gd574 2.388 . S
O612 C620 1.252 . S
O613 Gd574 2.386 . S
O613 C631 1.265 . S
O614 Gd575 2.353 1_545 S
O614 C631 1.242 . S
O615 Gd575 2.468 . S
O615 C639 1.263 . S
O616 Gd575 2.427 . S
O616 C639 1.252 . S
O617 Gd574 2.307 . S
O617 C632 1.261 1_545 S
O618 Gd575 2.388 . S
O618 C632 1.252 . S
C619 O607 1.265 . S
C619 O608 1.242 . S
C620 O611 1.261 . S
C620 O612 1.252 . S
C621 C624 1.394 . S
C621 C626 1.370 . S
C621 C627 1.500 . S
C622 C625 1.383 . S
C622 C626 1.395 . S
C623 C624 1.396 . S
C623 C625 1.365 . S
C623 H640 0.929 . S
C624 C621 1.394 . S
C624 C623 1.396 . S
C624 H641 0.930 . S
C625 C622 1.383 . S
C625 C623 1.365 . S
C625 H642 0.931 . S
C626 C621 1.370 . S
C626 C622 1.395 . S
C626 H643 0.930 . S
C627 Gd574 2.805 . S
C627 O609 1.263 . S
C627 O610 1.252 . S
C627 C621 1.500 . S
C628 H590 0.930 . S
C628 C604 1.417 . S
C628 C629 1.329 . S
C629 C599 1.437 . S
C629 H600 0.929 . S
C629 C628 1.329 . S
H630 C603 0.931 . S
C631 O613 1.265 . S
C631 O614 1.242 . S
C632 O617 1.261 1_565 S
C632 O618 1.252 . S
C633 C636 1.394 . S
C633 C638 1.370 1_565 S
C633 C639 1.500 . S
C634 C637 1.383 1_545 S
C634 C638 1.395 . S
C635 C636 1.396 . S
C635 C637 1.365 . S
C635 H644 0.929 . S
C636 C633 1.394 . S
C636 C635 1.396 . S
C636 H645 0.930 . S
C637 C634 1.383 1_565 S
C637 C635 1.365 . S
C637 H646 0.931 . S
C638 C633 1.370 1_545 S
C638 C634 1.395 . S
C638 H647 0.930 . S
C639 Gd575 2.805 . S
C639 O615 1.263 . S
C639 O616 1.252 . S
C639 C633 1.500 . S
H640 C623 0.929 . S
H641 C624 0.930 . S
H642 C625 0.931 . S
H643 C626 0.930 . S
H644 C635 0.929 . S
H645 C636 0.930 . S
H646 C637 0.931 . S
H647 C638 0.930 . S
C648 C650 1.422 . S
C648 C652 1.415 . S
C648 N654 1.369 . S
C649 C650 1.421 . S
C649 C651 1.417 . S
C649 C661 1.422 . S
C650 C648 1.422 . S
C650 C649 1.421 . S
C650 N660 1.359 . S
C651 C649 1.417 . S
C651 C653 1.329 . S
C651 H670 0.930 . S
C652 C648 1.415 . S
C652 C653 1.437 . S
C652 C656 1.413 . S
C653 C651 1.329 . S
C653 C652 1.437 . S
C653 H675 0.929 . S
N654 C648 1.369 . S
N654 C655 1.338 . S
N654 Gd659 2.622 . S
C655 N654 1.338 . S
C655 C657 1.378 . S
C655 H667 0.929 . S
C656 C652 1.413 . S
C656 C657 1.348 . S
C656 H672 0.931 . S
C657 C655 1.378 . S
C657 C656 1.348 . S
C657 H673 0.930 . S
Gd658 N678 2.622 . S
Gd658 N685 2.570 . S
Gd658 O692 2.353 . S
Gd658 O693 2.468 . S
Gd658 O694 2.427 . S
Gd658 O696 2.388 . S
Gd658 O697 2.386 . S
Gd658 O701 2.307 . S
Gd658 C711 2.805 . S
Gd659 N654 2.622 . S
Gd659 N660 2.570 . S
Gd659 O691 2.386 . S
Gd659 O695 2.307 . S
Gd659 O698 2.353 . S
Gd659 O699 2.468 . S
Gd659 O700 2.427 . S
Gd659 O702 2.388 . S
Gd659 C723 2.805 . S
N660 C650 1.359 . S
N660 Gd659 2.570 . S
N660 C662 1.343 . S
C661 C649 1.422 . S
C661 C663 1.321 . S
C661 H669 0.931 . S
C662 N660 1.343 . S
C662 C663 1.390 . S
C662 H664 0.931 . S
C663 C661 1.321 . S
C663 C662 1.390 . S
C663 H665 0.930 . S
H664 C662 0.931 . S
H665 C663 0.930 . S
H666 C689 0.931 . S
H667 C655 0.929 . S
H668 C690 0.930 . S
H669 C661 0.931 . S
H670 C651 0.930 . S
H671 C680 0.929 . S
H672 C656 0.931 . S
H673 C657 0.930 . S
H674 C712 0.930 . S
H675 C653 0.929 . S
H676 C681 0.931 . S
H677 C682 0.930 . S
N678 Gd658 2.622 . S
N678 C679 1.369 . S
N678 C680 1.338 . S
C679 N678 1.369 . S
C679 C683 1.415 . S
C679 C686 1.422 . S
C680 H671 0.929 . S
C680 N678 1.338 . S
C680 C682 1.378 . S
C681 H676 0.931 . S
C681 C682 1.348 . S
C681 C683 1.413 . S
C682 H677 0.930 . S
C682 C680 1.378 . S
C682 C681 1.348 . S
C683 C679 1.415 . S
C683 C681 1.413 . S
C683 C713 1.437 . S
H684 C713 0.929 . S
N685 Gd658 2.570 . S
N685 C686 1.359 . S
N685 C689 1.343 . S
C686 C679 1.422 . S
C686 N685 1.359 . S
C686 C688 1.421 . S
C687 C688 1.422 . S
C687 C690 1.321 . S
C687 H714 0.931 . S
C688 C686 1.421 . S
C688 C687 1.422 . S
C688 C712 1.417 . S
C689 H666 0.931 . S
C689 N685 1.343 . S
C689 C690 1.390 . S
C690 H668 0.930 . S
C690 C687 1.321 . S
C690 C689 1.390 . S
O691 Gd659 2.386 . S
O691 C703 1.265 . S
O692 Gd658 2.353 . S
O692 C703 1.242 . S
O693 Gd658 2.468 . S
O693 C711 1.263 . S
O694 Gd658 2.427 . S
O694 C711 1.252 . S
O695 Gd659 2.307 . S
O695 C704 1.261 . S
O696 Gd658 2.388 . S
O696 C704 1.252 . S
O697 Gd658 2.386 . S
O697 C715 1.265 . S
O698 Gd659 2.353 . S
O698 C715 1.242 . S
O699 Gd659 2.468 . S
O699 C723 1.263 . S
O700 Gd659 2.427 . S
O700 C723 1.252 . S
O701 Gd658 2.307 . S
O701 C716 1.261 . S
O702 Gd659 2.388 . S
O702 C716 1.252 . S
C703 O691 1.265 . S
C703 O692 1.242 . S
C704 O695 1.261 . S
C704 O696 1.252 . S
C705 C708 1.394 . S
C705 C710 1.370 . S
C705 C711 1.500 . S
C706 C709 1.383 . S
C706 C710 1.395 . S
C707 C708 1.396 . S
C707 C709 1.365 . S
C707 H724 0.929 . S
C708 C705 1.394 . S
C708 C707 1.396 . S
C708 H725 0.930 . S
C709 C706 1.383 . S
C709 C707 1.365 . S
C709 H726 0.931 . S
C710 C705 1.370 . S
C710 C706 1.395 . S
C710 H727 0.930 . S
C711 Gd658 2.805 . S
C711 O693 1.263 . S
C711 O694 1.252 . S
C711 C705 1.500 . S
C712 H674 0.930 . S
C712 C688 1.417 . S
C712 C713 1.329 . S
C713 C683 1.437 . S
C713 H684 0.929 . S
C713 C712 1.329 . S
H714 C687 0.931 . S
C715 O697 1.265 . S
C715 O698 1.242 . S
C716 O701 1.261 . S
C716 O702 1.252 . S
C717 C720 1.394 . S
C717 C722 1.370 . S
C717 C723 1.500 . S
C718 C721 1.383 . S
C718 C722 1.395 . S
C719 C720 1.396 . S
C719 C721 1.365 . S
C719 H728 0.929 . S
C720 C717 1.394 . S
C720 C719 1.396 . S
C720 H729 0.930 . S
C721 C718 1.383 . S
C721 C719 1.365 . S
C721 H730 0.931 . S
C722 C717 1.370 . S
C722 C718 1.395 . S
C722 H731 0.930 . S
C723 Gd659 2.805 . S
C723 O699 1.263 . S
C723 O700 1.252 . S
C723 C717 1.500 . S
H724 C707 0.929 . S
H725 C708 0.930 . S
H726 C709 0.931 . S
H727 C710 0.930 . S
H728 C719 0.929 . S
H729 C720 0.930 . S
H730 C721 0.931 . S
H731 C722 0.930 . S
C732 C734 1.422 . S
C732 C736 1.415 . S
C732 N738 1.369 1_455 S
C733 C734 1.421 . S
C733 C735 1.417 . S
C733 C745 1.422 . S
C734 C732 1.422 . S
C734 C733 1.421 . S
C734 N744 1.377 . S
C735 C733 1.417 . S
C735 C737 1.329 . S
C735 H754 0.930 . S
C736 C732 1.415 . S
C736 C737 1.437 . S
C736 C740 1.413 . S
C737 C735 1.329 . S
C737 C736 1.437 . S
C737 H759 0.929 . S
N738 C732 1.369 1_655 S
N738 C739 1.338 . S
N738 Gd743 2.622 . S
C739 N738 1.338 . S
C739 C741 1.378 1_655 S
C739 H751 0.929 . S
C740 C736 1.413 . S
C740 C741 1.348 . S
C740 H756 0.931 . S
C741 C739 1.378 1_455 S
C741 C740 1.348 . S
C741 H757 0.926 1_455 S
Gd742 N762 2.622 . S
Gd742 N769 2.570 . S
Gd742 O776 2.353 . S
Gd742 O777 2.468 . S
Gd742 O778 2.427 . S
Gd742 O780 2.388 . S
Gd742 O781 2.386 1_455 S
Gd742 O785 2.307 . S
Gd742 C795 2.805 . S
Gd743 N738 2.622 . S
Gd743 N744 2.555 1_655 S
Gd743 O775 2.386 1_655 S
Gd743 O779 2.306 1_655 S
Gd743 O782 2.353 . S
Gd743 O783 2.468 . S
Gd743 O784 2.427 . S
Gd743 O786 2.388 . S
Gd743 C807 2.805 . S
N744 C734 1.377 . S
N744 Gd743 2.555 1_455 S
N744 C746 1.350 . S
C745 C733 1.422 . S
C745 C747 1.321 . S
C745 H753 0.931 . S
C746 N744 1.350 . S
C746 C747 1.390 . S
C746 H748 0.931 1_455 S
C747 C745 1.321 . S
C747 C746 1.390 . S
C747 H749 0.930 . S
H748 C746 0.931 1_655 S
H749 C747 0.930 . S
H750 C773 0.931 . S
H751 C739 0.929 . S
H752 C774 0.937 . S
H753 C745 0.931 . S
H754 C735 0.930 . S
H755 C764 0.929 . S
H756 C740 0.931 . S
H757 C741 0.926 1_655 S
H758 C796 0.930 . S
H759 C737 0.929 . S
H760 C765 0.916 1_655 S
H761 C766 0.930 . S
N762 Gd742 2.622 . S
N762 C763 1.369 . S
N762 C764 1.338 . S
C763 N762 1.369 . S
C763 C767 1.397 1_455 S
C763 C770 1.422 . S
C764 H755 0.929 . S
C764 N762 1.338 . S
C764 C766 1.378 . S
C765 H760 0.916 1_455 S
C765 C766 1.369 . S
C765 C767 1.409 1_455 S
C766 H761 0.930 . S
C766 C764 1.378 . S
C766 C765 1.369 . S
C767 C763 1.397 1_655 S
C767 C765 1.409 1_655 S
C767 C797 1.463 . S
H768 C797 0.929 . S
N769 Gd742 2.570 . S
N769 C770 1.359 . S
N769 C773 1.343 . S
C770 C763 1.422 . S
C770 N769 1.359 . S
C770 C772 1.421 1_455 S
C771 C772 1.422 . S
C771 C774 1.342 . S
C771 H798 0.931 . S
C772 C770 1.421 1_655 S
C772 C771 1.422 . S
C772 C796 1.417 . S
C773 H750 0.931 . S
C773 N769 1.343 . S
C773 C774 1.366 1_455 S
C774 H752 0.937 . S
C774 C771 1.342 . S
C774 C773 1.366 1_655 S
O775 Gd743 2.386 1_455 S
O775 C787 1.265 . S
O776 Gd742 2.353 . S
O776 C787 1.242 . S
O777 Gd742 2.468 . S
O777 C795 1.263 . S
O778 Gd742 2.427 . S
O778 C795 1.252 . S
O779 Gd743 2.306 1_455 S
O779 C788 1.262 . S
O780 Gd742 2.388 . S
O780 C788 1.252 . S
O781 Gd742 2.386 1_655 S
O781 C799 1.265 . S
O782 Gd743 2.353 . S
O782 C799 1.242 . S
O783 Gd743 2.468 . S
O783 C807 1.263 . S
O784 Gd743 2.427 . S
O784 C807 1.252 . S
O785 Gd742 2.307 . S
O785 C800 1.261 . S
O786 Gd743 2.388 . S
O786 C800 1.252 1_655 S
C787 O775 1.265 . S
C787 O776 1.242 . S
C788 O779 1.262 . S
C788 O780 1.252 . S
C789 C792 1.394 . S
C789 C794 1.370 . S
C789 C795 1.500 . S
C790 C793 1.383 . S
C790 C794 1.395 . S
C791 C792 1.396 . S
C791 C793 1.365 . S
C791 H808 0.929 . S
C792 C789 1.394 . S
C792 C791 1.396 . S
C792 H809 0.930 . S
C793 C790 1.383 . S
C793 C791 1.365 . S
C793 H810 0.931 . S
C794 C789 1.370 . S
C794 C790 1.395 . S
C794 H811 0.930 . S
C795 Gd742 2.805 . S
C795 O777 1.263 . S
C795 O778 1.252 . S
C795 C789 1.500 . S
C796 H758 0.930 . S
C796 C772 1.417 . S
C796 C797 1.329 . S
C797 C767 1.463 . S
C797 H768 0.929 . S
C797 C796 1.329 . S
H798 C771 0.931 . S
C799 O781 1.265 . S
C799 O782 1.242 . S
C800 O785 1.261 . S
C800 O786 1.252 1_455 S
C801 C804 1.394 . S
C801 C806 1.370 . S
C801 C807 1.500 . S
C802 C805 1.383 . S
C802 C806 1.395 . S
C803 C804 1.396 . S
C803 C805 1.365 . S
C803 H812 0.929 . S
C804 C801 1.394 . S
C804 C803 1.396 . S
C804 H813 0.930 . S
C805 C802 1.383 . S
C805 C803 1.365 . S
C805 H814 0.931 . S
C806 C801 1.370 . S
C806 C802 1.395 . S
C806 H815 0.930 . S
C807 Gd743 2.805 . S
C807 O783 1.263 . S
C807 O784 1.252 . S
C807 C801 1.500 . S
H808 C791 0.929 . S
H809 C792 0.930 . S
H810 C793 0.931 . S
H811 C794 0.930 . S
H812 C803 0.929 . S
H813 C804 0.930 . S
H814 C805 0.931 . S
H815 C806 0.930 . S
C816 C817 1.349 . S
C816 C818 1.327 . S
C816 H841 0.950 . S
C817 C816 1.349 . S
C817 C833 1.349 . S
C818 C816 1.327 . S
C818 C837 1.429 . S
C818 H842 0.950 . S
C819 C836 1.574 . S
C819 C838 1.368 . S
C819 H843 0.949 . S
H820 C824 0.949 . S
C821 C822 1.349 . S
C821 C823 1.327 . S
C821 H844 0.932 1_545 S
C822 C821 1.349 . S
C822 C834 1.349 . S
C823 C821 1.327 . S
C823 C839 1.429 . S
C823 H845 0.950 . S
C824 H820 0.949 . S
C824 C832 1.574 . S
C824 C840 1.368 . S
H825 C833 0.950 . S
H826 C831 0.950 . S
H827 C832 0.949 . S
H828 C834 0.950 . S
H829 C835 0.950 . S
H830 C836 0.949 . S
C831 H826 0.950 . S
C831 C833 1.327 . S
C831 C837 1.429 . S
C832 C824 1.574 . S
C832 H827 0.949 . S
C832 C838 1.368 . S
C833 C817 1.349 . S
C833 H825 0.950 . S
C833 C831 1.327 . S
C834 C822 1.349 . S
C834 H828 0.950 . S
C834 C835 1.327 . S
C835 H829 0.950 . S
C835 C834 1.327 . S
C835 C839 1.429 . S
C836 C819 1.574 . S
C836 H830 0.949 . S
C836 C840 1.368 . S
C837 C818 1.429 . S
C837 C831 1.429 . S
C837 C838 1.523 . S
C838 C819 1.368 . S
C838 C832 1.368 . S
C838 C837 1.523 . S
C839 C823 1.429 . S
C839 C835 1.429 . S
C839 C840 1.523 . S
C840 C824 1.368 . S
C840 C836 1.368 . S
C840 C839 1.523 . S
H841 C816 0.950 . S
H842 C818 0.950 . S
H843 C819 0.949 . S
H844 C821 0.932 1_565 S
H845 C823 0.950 . S
C846 C847 1.349 . S
C846 C848 1.327 . S
C846 H871 0.950 . S
C847 C846 1.349 . S
C847 C863 1.349 . S
C848 C846 1.327 . S
C848 C867 1.429 . S
C848 H872 0.950 . S
C849 C866 1.574 . S
C849 C868 1.368 . S
C849 H873 0.949 . S
H850 C854 0.949 . S
C851 C852 1.349 . S
C851 C853 1.327 . S
C851 H874 0.950 . S
C852 C851 1.349 . S
C852 C864 1.349 . S
C853 C851 1.327 . S
C853 C869 1.429 . S
C853 H875 0.950 . S
C854 H850 0.949 . S
C854 C862 1.574 . S
C854 C870 1.368 . S
H855 C863 0.950 . S
H856 C861 0.950 . S
H857 C862 0.949 . S
H858 C864 0.950 . S
H859 C865 0.950 . S
H860 C866 0.949 . S
C861 H856 0.950 . S
C861 C863 1.327 . S
C861 C867 1.429 . S
C862 C854 1.574 . S
C862 H857 0.949 . S
C862 C868 1.368 . S
C863 C847 1.349 . S
C863 H855 0.950 . S
C863 C861 1.327 . S
C864 C852 1.349 . S
C864 H858 0.950 . S
C864 C865 1.327 . S
C865 H859 0.950 . S
C865 C864 1.327 . S
C865 C869 1.429 . S
C866 C849 1.574 . S
C866 H860 0.949 . S
C866 C870 1.368 . S
C867 C848 1.429 . S
C867 C861 1.429 . S
C867 C868 1.523 . S
C868 C849 1.368 . S
C868 C862 1.368 . S
C868 C867 1.523 . S
C869 C853 1.429 . S
C869 C865 1.429 . S
C869 C870 1.523 . S
C870 C854 1.368 . S
C870 C866 1.368 . S
C870 C869 1.523 . S
H871 C846 0.950 . S
H872 C848 0.950 . S
H873 C849 0.949 . S
H874 C851 0.950 . S
H875 C853 0.950 . S
C876 C877 1.349 . S
C876 C878 1.327 . S
C876 H901 0.950 . S
C877 C876 1.349 . S
C877 C893 1.349 . S
C878 C876 1.327 . S
C878 C897 1.429 . S
C878 H902 0.950 . S
C879 C896 1.574 . S
C879 C898 1.368 . S
C879 H903 0.949 . S
H880 C884 0.949 . S
C881 C882 1.349 . S
C881 C883 1.327 . S
C881 H904 0.950 . S
C882 C881 1.349 . S
C882 C894 1.349 . S
C883 C881 1.327 . S
C883 C899 1.429 . S
C883 H905 0.950 . S
C884 H880 0.949 . S
C884 C892 1.574 . S
C884 C900 1.368 . S
H885 C893 0.950 . S
H886 C891 0.950 . S
H887 C892 0.949 . S
H888 C894 0.950 . S
H889 C895 0.950 . S
H890 C896 0.949 . S
C891 H886 0.950 . S
C891 C893 1.327 . S
C891 C897 1.429 . S
C892 C884 1.574 . S
C892 H887 0.949 . S
C892 C898 1.368 . S
C893 C877 1.349 . S
C893 H885 0.950 . S
C893 C891 1.327 . S
C894 C882 1.349 . S
C894 H888 0.950 . S
C894 C895 1.327 . S
C895 H889 0.950 . S
C895 C894 1.327 . S
C895 C899 1.429 . S
C896 C879 1.574 . S
C896 H890 0.949 . S
C896 C900 1.368 . S
C897 C878 1.429 . S
C897 C891 1.429 . S
C897 C898 1.523 . S
C898 C879 1.368 . S
C898 C892 1.368 . S
C898 C897 1.523 . S
C899 C883 1.429 . S
C899 C895 1.429 . S
C899 C900 1.523 . S
C900 C884 1.368 . S
C900 C896 1.368 . S
C900 C899 1.523 . S
H901 C876 0.950 . S
H902 C878 0.950 . S
H903 C879 0.949 . S
H904 C881 0.950 . S
H905 C883 0.950 . S
C906 C907 1.349 . S
C906 C908 1.327 . S
C906 H931 0.950 . S
C907 C906 1.349 . S
C907 C923 1.349 . S
C908 C906 1.327 . S
C908 C927 1.429 . S
C908 H932 0.950 . S
C909 C926 1.574 . S
C909 C928 1.368 . S
C909 H933 0.949 . S
H910 C914 0.949 . S
C911 C912 1.349 . S
C911 C913 1.327 . S
C911 H934 0.950 . S
C912 C911 1.349 . S
C912 C924 1.349 . S
C913 C911 1.327 . S
C913 C929 1.429 . S
C913 H935 0.950 . S
C914 H910 0.949 . S
C914 C922 1.574 . S
C914 C930 1.368 . S
H915 C923 0.950 . S
H916 C921 0.950 . S
H917 C922 0.949 . S
H918 C924 0.950 . S
H919 C925 0.950 . S
H920 C926 0.949 . S
C921 H916 0.950 . S
C921 C923 1.327 . S
C921 C927 1.429 . S
C922 C914 1.574 . S
C922 H917 0.949 . S
C922 C928 1.368 . S
C923 C907 1.349 . S
C923 H915 0.950 . S
C923 C921 1.327 . S
C924 C912 1.349 . S
C924 H918 0.950 . S
C924 C925 1.327 . S
C925 H919 0.950 . S
C925 C924 1.327 . S
C925 C929 1.429 . S
C926 C909 1.574 . S
C926 H920 0.949 . S
C926 C930 1.368 . S
C927 C908 1.429 . S
C927 C921 1.429 . S
C927 C928 1.523 . S
C928 C909 1.368 . S
C928 C922 1.368 . S
C928 C927 1.523 . S
C929 C913 1.429 . S
C929 C925 1.429 . S
C929 C930 1.523 . S
C930 C914 1.368 . S
C930 C926 1.368 . S
C930 C929 1.523 . S
H931 C906 0.950 . S
H932 C908 0.950 . S
H933 C909 0.949 . S
H934 C911 0.950 . S
H935 C913 0.950 . S
C936 C937 1.349 . S
C936 C938 1.327 1_554 S
C936 H961 0.950 . S
C937 C936 1.349 . S
C937 C953 1.349 . S
C938 C936 1.327 1_556 S
C938 C957 1.429 . S
C938 H962 0.950 . S
C939 C956 1.574 . S
C939 C958 1.368 . S
C939 H963 0.949 . S
H940 C944 0.949 . S
C941 C942 1.349 1_545 S
C941 C943 1.327 . S
C941 H964 0.950 . S
C942 C941 1.349 1_565 S
C942 C954 1.349 . S
C943 C941 1.327 . S
C943 C959 1.429 1_545 S
C943 H965 0.950 . S
C944 H940 0.949 . S
C944 C952 1.574 . S
C944 C960 1.368 . S
H945 C953 0.950 . S
H946 C951 0.950 . S
H947 C952 0.949 . S
H948 C954 0.950 . S
H949 C955 0.950 . S
H950 C956 0.949 1_545 S
C951 H946 0.950 . S
C951 C953 1.327 . S
C951 C957 1.429 1_554 S
C952 C944 1.574 . S
C952 H947 0.949 . S
C952 C958 1.368 . S
C953 C937 1.349 . S
C953 H945 0.950 . S
C953 C951 1.327 . S
C954 C942 1.349 . S
C954 H948 0.950 . S
C954 C955 1.327 . S
C955 H949 0.950 . S
C955 C954 1.327 . S
C955 C959 1.429 . S
C956 C939 1.574 . S
C956 H950 0.949 1_565 S
C956 C960 1.368 . S
C957 C938 1.429 . S
C957 C951 1.429 1_556 S
C957 C958 1.523 . S
C958 C939 1.368 . S
C958 C952 1.368 . S
C958 C957 1.523 . S
C959 C943 1.429 1_565 S
C959 C955 1.429 . S
C959 C960 1.523 . S
C960 C944 1.368 . S
C960 C956 1.368 . S
C960 C959 1.523 . S
H961 C936 0.950 . S
H962 C938 0.950 . S
H963 C939 0.949 . S
H964 C941 0.950 . S
H965 C943 0.950 . S
C966 C967 1.349 . S
C966 C968 1.327 . S
C966 H991 0.950 . S
C967 C966 1.349 . S
C967 C983 1.349 . S
C968 C966 1.327 . S
C968 C987 1.429 1_554 S
C968 H992 0.950 . S
C969 C986 1.574 . S
C969 C988 1.368 . S
C969 H993 0.949 . S
H970 C974 0.949 . S
C971 C972 1.349 . S
C971 C973 1.327 . S
C971 H994 0.950 . S
C972 C971 1.349 . S
C972 C984 1.349 . S
C973 C971 1.327 . S
C973 C989 1.429 . S
C973 H995 0.950 . S
C974 H970 0.949 . S
C974 C982 1.574 . S
C974 C990 1.368 . S
H975 C983 0.950 . S
H976 C981 0.950 1_556 S
H977 C982 0.949 . S
H978 C984 0.950 . S
H979 C985 0.950 . S
H980 C986 0.949 . S
C981 H976 0.950 1_554 S
C981 C983 1.327 . S
C981 C987 1.429 1_554 S
C982 C974 1.574 . S
C982 H977 0.949 . S
C982 C988 1.368 . S
C983 C967 1.349 . S
C983 H975 0.950 . S
C983 C981 1.327 . S
C984 C972 1.349 . S
C984 H978 0.950 . S
C984 C985 1.327 . S
C985 H979 0.950 . S
C985 C984 1.327 . S
C985 C989 1.429 . S
C986 C969 1.574 . S
C986 H980 0.949 . S
C986 C990 1.368 . S
C987 C968 1.429 1_556 S
C987 C981 1.429 1_556 S
C987 C988 1.523 . S
C988 C969 1.368 . S
C988 C982 1.368 . S
C988 C987 1.523 . S
C989 C973 1.429 . S
C989 C985 1.429 . S
C989 C990 1.523 . S
C990 C974 1.368 . S
C990 C986 1.368 . S
C990 C989 1.523 . S
H991 C966 0.950 . S
H992 C968 0.950 . S
H993 C969 0.949 . S
H994 C971 0.950 . S
H995 C973 0.950 . S
C996 C997 1.349 . S
C996 C998 1.327 . S
C996 H1021 0.950 . S
C997 C996 1.349 . S
C997 C1013 1.349 . S
C998 C996 1.327 . S
C998 C1017 1.429 1_554 S
C998 H1022 0.950 . S
C999 C1016 1.574 . S
C999 C1018 1.368 . S
C999 H1023 0.949 . S
H1000 C1004 0.949 . S
C1001 C1002 1.349 . S
C1001 C1003 1.327 . S
C1001 H1024 0.950 . S
C1002 C1001 1.349 . S
C1002 C1014 1.349 . S
C1003 C1001 1.327 . S
C1003 C1019 1.429 . S
C1003 H1025 0.950 . S
C1004 H1000 0.949 . S
C1004 C1012 1.574 . S
C1004 C1020 1.368 . S
H1005 C1013 0.950 . S
H1006 C1011 0.950 . S
H1007 C1012 0.949 . S
H1008 C1014 0.950 . S
H1009 C1015 0.950 . S
H1010 C1016 0.949 . S
C1011 H1006 0.950 . S
C1011 C1013 1.327 1_556 S
C1011 C1017 1.429 . S
C1012 C1004 1.574 . S
C1012 H1007 0.949 . S
C1012 C1018 1.368 . S
C1013 C997 1.349 . S
C1013 H1005 0.950 . S
C1013 C1011 1.327 1_554 S
C1014 C1002 1.349 . S
C1014 H1008 0.950 . S
C1014 C1015 1.327 . S
C1015 H1009 0.950 . S
C1015 C1014 1.327 . S
C1015 C1019 1.429 . S
C1016 C999 1.574 . S
C1016 H1010 0.949 . S
C1016 C1020 1.368 . S
C1017 C998 1.429 1_556 S
C1017 C1011 1.429 . S
C1017 C1018 1.523 . S
C1018 C999 1.368 . S
C1018 C1012 1.368 . S
C1018 C1017 1.523 . S
C1019 C1003 1.429 . S
C1019 C1015 1.429 . S
C1019 C1020 1.523 . S
C1020 C1004 1.368 . S
C1020 C1016 1.368 . S
C1020 C1019 1.523 . S
H1021 C996 0.950 . S
H1022 C998 0.950 . S
H1023 C999 0.949 . S
H1024 C1001 0.950 . S
H1025 C1003 0.950 . S
C1026 C1027 1.349 . S
C1026 C1028 1.327 . S
C1026 H1051 0.950 . S
C1027 C1026 1.349 . S
C1027 C1043 1.349 . S
C1028 C1026 1.327 . S
C1028 C1047 1.429 1_554 S
C1028 H1052 0.950 1_655 S
C1029 C1046 1.574 . S
C1029 C1048 1.368 . S
C1029 H1053 0.949 . S
H1030 C1034 0.949 . S
C1031 C1032 1.349 . S
C1031 C1033 1.327 . S
C1031 H1054 0.950 . S
C1032 C1031 1.349 . S
C1032 C1044 1.349 1_655 S
C1033 C1031 1.327 . S
C1033 C1049 1.429 . S
C1033 H1055 0.950 . S
C1034 H1030 0.949 . S
C1034 C1042 1.574 1_455 S
C1034 C1050 1.368 1_455 S
H1035 C1043 0.950 . S
H1036 C1041 0.950 1_556 S
H1037 C1042 0.949 1_455 S
H1038 C1044 0.950 . S
H1039 C1045 0.950 . S
H1040 C1046 0.949 . S
C1041 H1036 0.950 1_554 S
C1041 C1043 1.327 . S
C1041 C1047 1.429 1_554 S
C1042 C1034 1.574 1_655 S
C1042 H1037 0.949 1_655 S
C1042 C1048 1.368 . S
C1043 C1027 1.349 . S
C1043 H1035 0.950 . S
C1043 C1041 1.327 . S
C1044 C1032 1.349 1_455 S
C1044 H1038 0.950 . S
C1044 C1045 1.327 . S
C1045 H1039 0.950 . S
C1045 C1044 1.327 . S
C1045 C1049 1.429 1_455 S
C1046 C1029 1.574 . S
C1046 H1040 0.949 . S
C1046 C1050 1.368 . S
C1047 C1028 1.429 1_556 S
C1047 C1041 1.429 1_556 S
C1047 C1048 1.523 . S
C1048 C1029 1.368 . S
C1048 C1042 1.368 . S
C1048 C1047 1.523 . S
C1049 C1033 1.429 . S
C1049 C1045 1.429 1_655 S
C1049 C1050 1.523 . S
C1050 C1034 1.368 1_655 S
C1050 C1046 1.368 . S
C1050 C1049 1.523 . S
H1051 C1026 0.950 . S
H1052 C1028 0.950 1_455 S
H1053 C1029 0.949 . S
H1054 C1031 0.950 . S
H1055 C1033 0.950 . S
C1056 C1057 1.349 . S
C1056 C1058 1.327 . S
C1056 H1081 0.950 . S
C1057 C1056 1.349 . S
C1057 C1073 1.349 . S
C1058 C1056 1.327 . S
C1058 C1077 1.429 . S
C1058 H1082 0.950 . S
C1059 C1076 1.574 . S
C1059 C1078 1.368 . S
C1059 H1083 0.949 . S
H1060 C1064 0.949 . S
C1061 C1062 1.349 1_655 S
C1061 C1063 1.327 . S
C1061 H1084 0.950 . S
C1062 C1061 1.349 1_455 S
C1062 C1074 1.349 . S
C1063 C1061 1.327 . S
C1063 C1079 1.429 1_655 S
C1063 H1085 0.950 . S
C1064 H1060 0.949 . S
C1064 C1072 1.574 . S
C1064 C1080 1.368 . S
H1065 C1073 0.950 . S
H1066 C1071 0.950 . S
H1067 C1072 0.949 . S
H1068 C1074 0.950 . S
H1069 C1075 0.950 . S
H1070 C1076 0.930 1_655 S
C1071 H1066 0.950 . S
C1071 C1073 1.327 . S
C1071 C1077 1.429 . S
C1072 C1064 1.574 . S
C1072 H1067 0.949 . S
C1072 C1078 1.368 . S
C1073 C1057 1.349 . S
C1073 H1065 0.950 . S
C1073 C1071 1.327 . S
C1074 C1062 1.349 . S
C1074 H1068 0.950 . S
C1074 C1075 1.327 . S
C1075 H1069 0.950 . S
C1075 C1074 1.327 . S
C1075 C1079 1.429 . S
C1076 C1059 1.574 . S
C1076 H1070 0.930 1_455 S
C1076 C1080 1.368 . S
C1077 C1058 1.429 . S
C1077 C1071 1.429 . S
C1077 C1078 1.523 . S
C1078 C1059 1.368 . S
C1078 C1072 1.368 . S
C1078 C1077 1.523 . S
C1079 C1063 1.429 1_455 S
C1079 C1075 1.429 . S
C1079 C1080 1.523 . S
C1080 C1064 1.368 . S
C1080 C1076 1.368 . S
C1080 C1079 1.523 . S
H1081 C1056 0.950 . S
H1082 C1058 0.950 . S
H1083 C1059 0.949 . S
H1084 C1061 0.950 . S
H1085 C1063 0.950 . S
C1086 C1087 1.349 . S
C1086 C1088 1.327 . S
C1086 H1111 0.950 . S
C1087 C1086 1.349 . S
C1087 C1103 1.349 . S
C1088 C1086 1.327 . S
C1088 C1107 1.429 . S
C1088 H1112 0.950 . S
C1089 C1106 1.574 . S
C1089 C1108 1.368 . S
C1089 H1113 0.949 . S
H1090 C1094 0.949 . S
C1091 C1092 1.349 . S
C1091 C1093 1.327 . S
C1091 H1114 0.950 . S
C1092 C1091 1.349 . S
C1092 C1104 1.349 1_545 S
C1093 C1091 1.327 . S
C1093 C1109 1.429 . S
C1093 H1115 0.950 . S
C1094 H1090 0.949 . S
C1094 C1102 1.574 . S
C1094 C1110 1.368 . S
H1095 C1103 0.950 . S
H1096 C1101 0.950 . S
H1097 C1102 0.949 . S
H1098 C1104 0.950 . S
H1099 C1105 0.950 1_565 S
H1100 C1106 0.949 . S
C1101 H1096 0.950 . S
C1101 C1103 1.327 . S
C1101 C1107 1.429 . S
C1102 C1094 1.574 . S
C1102 H1097 0.949 . S
C1102 C1108 1.368 . S
C1103 C1087 1.349 . S
C1103 H1095 0.950 . S
C1103 C1101 1.327 . S
C1104 C1092 1.349 1_565 S
C1104 H1098 0.950 . S
C1104 C1105 1.327 1_565 S
C1105 H1099 0.950 1_545 S
C1105 C1104 1.327 1_545 S
C1105 C1109 1.429 . S
C1106 C1089 1.574 . S
C1106 H1100 0.949 . S
C1106 C1110 1.368 . S
C1107 C1088 1.429 . S
C1107 C1101 1.429 . S
C1107 C1108 1.523 . S
C1108 C1089 1.368 . S
C1108 C1102 1.368 . S
C1108 C1107 1.523 . S
C1109 C1093 1.429 . S
C1109 C1105 1.429 . S
C1109 C1110 1.523 . S
C1110 C1094 1.368 . S
C1110 C1106 1.368 . S
C1110 C1109 1.523 . S
H1111 C1086 0.950 . S
H1112 C1088 0.950 . S
H1113 C1089 0.949 . S
H1114 C1091 0.950 . S
H1115 C1093 0.950 . S
C1116 C1117 1.349 . S
C1116 C1118 1.327 . S
C1116 H1141 0.950 . S
C1117 C1116 1.349 . S
C1117 C1133 1.349 . S
C1118 C1116 1.327 . S
C1118 C1137 1.429 . S
C1118 H1142 0.950 . S
C1119 C1136 1.574 . S
C1119 C1138 1.368 . S
C1119 H1143 0.949 . S
H1120 C1124 0.949 . S
C1121 C1122 1.349 . S
C1121 C1123 1.327 . S
C1121 H1144 0.950 . S
C1122 C1121 1.349 . S
C1122 C1134 1.349 . S
C1123 C1121 1.327 . S
C1123 C1139 1.429 . S
C1123 H1145 0.950 . S
C1124 H1120 0.949 . S
C1124 C1132 1.574 . S
C1124 C1140 1.368 . S
H1125 C1133 0.950 . S
H1126 C1131 0.950 . S
H1127 C1132 0.949 . S
H1128 C1134 0.950 . S
H1129 C1135 0.950 . S
H1130 C1136 0.949 . S
C1131 H1126 0.950 . S
C1131 C1133 1.327 . S
C1131 C1137 1.429 . S
C1132 C1124 1.574 . S
C1132 H1127 0.949 . S
C1132 C1138 1.368 . S
C1133 C1117 1.349 . S
C1133 H1125 0.950 . S
C1133 C1131 1.327 . S
C1134 C1122 1.349 . S
C1134 H1128 0.950 . S
C1134 C1135 1.327 . S
C1135 H1129 0.950 . S
C1135 C1134 1.327 . S
C1135 C1139 1.429 . S
C1136 C1119 1.574 . S
C1136 H1130 0.949 . S
C1136 C1140 1.368 . S
C1137 C1118 1.429 . S
C1137 C1131 1.429 . S
C1137 C1138 1.523 . S
C1138 C1119 1.368 . S
C1138 C1132 1.368 . S
C1138 C1137 1.523 . S
C1139 C1123 1.429 . S
C1139 C1135 1.429 . S
C1139 C1140 1.523 . S
C1140 C1124 1.368 . S
C1140 C1136 1.368 . S
C1140 C1139 1.523 . S
H1141 C1116 0.950 . S
H1142 C1118 0.950 . S
H1143 C1119 0.949 . S
H1144 C1121 0.950 . S
H1145 C1123 0.950 . S
C1146 C1147 1.349 . S
C1146 C1148 1.327 . S
C1146 H1171 0.950 . S
C1147 C1146 1.349 . S
C1147 C1163 1.349 . S
C1148 C1146 1.327 . S
C1148 C1167 1.429 . S
C1148 H1172 0.950 . S
C1149 C1166 1.574 . S
C1149 C1168 1.368 . S
C1149 H1173 0.949 . S
H1150 C1154 0.949 . S
C1151 C1152 1.349 . S
C1151 C1153 1.327 . S
C1151 H1174 0.950 . S
C1152 C1151 1.349 . S
C1152 C1164 1.349 . S
C1153 C1151 1.327 . S
C1153 C1169 1.429 . S
C1153 H1175 0.950 . S
C1154 H1150 0.949 . S
C1154 C1162 1.574 . S
C1154 C1170 1.368 . S
H1155 C1163 0.950 . S
H1156 C1161 0.950 . S
H1157 C1162 0.949 . S
H1158 C1164 0.950 . S
H1159 C1165 0.950 . S
H1160 C1166 0.949 . S
C1161 H1156 0.950 . S
C1161 C1163 1.327 . S
C1161 C1167 1.429 . S
C1162 C1154 1.574 . S
C1162 H1157 0.949 . S
C1162 C1168 1.368 . S
C1163 C1147 1.349 . S
C1163 H1155 0.950 . S
C1163 C1161 1.327 . S
C1164 C1152 1.349 . S
C1164 H1158 0.950 . S
C1164 C1165 1.327 . S
C1165 H1159 0.950 . S
C1165 C1164 1.327 . S
C1165 C1169 1.429 . S
C1166 C1149 1.574 . S
C1166 H1160 0.949 . S
C1166 C1170 1.368 . S
C1167 C1148 1.429 . S
C1167 C1161 1.429 . S
C1167 C1168 1.523 . S
C1168 C1149 1.368 . S
C1168 C1162 1.368 . S
C1168 C1167 1.523 . S
C1169 C1153 1.429 . S
C1169 C1165 1.429 . S
C1169 C1170 1.523 . S
C1170 C1154 1.368 . S
C1170 C1166 1.368 . S
C1170 C1169 1.523 . S
H1171 C1146 0.950 . S
H1172 C1148 0.950 . S
H1173 C1149 0.949 . S
H1174 C1151 0.950 . S
H1175 C1153 0.950 . S
C1176 C1177 1.349 . S
C1176 C1178 1.327 . S
C1176 H1201 0.950 . S
C1177 C1176 1.349 . S
C1177 C1193 1.349 1_554 S
C1178 C1176 1.327 . S
C1178 C1197 1.429 1_554 S
C1178 H1202 0.950 . S
C1179 C1196 1.574 . S
C1179 C1198 1.368 . S
C1179 H1203 0.949 . S
H1180 C1184 0.949 . S
C1181 C1182 1.349 . S
C1181 C1183 1.327 . S
C1181 H1204 0.950 . S
C1182 C1181 1.349 . S
C1182 C1194 1.349 . S
C1183 C1181 1.327 . S
C1183 C1199 1.429 1_455 S
C1183 H1205 0.950 . S
C1184 H1180 0.949 . S
C1184 C1192 1.574 . S
C1184 C1200 1.368 . S
H1185 C1193 0.950 . S
H1186 C1191 0.950 . S
H1187 C1192 0.949 . S
H1188 C1194 0.950 . S
H1189 C1195 0.950 . S
H1190 C1196 0.949 . S
C1191 H1186 0.950 . S
C1191 C1193 1.327 . S
C1191 C1197 1.429 . S
C1192 C1184 1.574 . S
C1192 H1187 0.949 . S
C1192 C1198 1.368 . S
C1193 C1177 1.349 1_556 S
C1193 H1185 0.950 . S
C1193 C1191 1.327 . S
C1194 C1182 1.349 . S
C1194 H1188 0.950 . S
C1194 C1195 1.327 1_455 S
C1195 H1189 0.950 . S
C1195 C1194 1.327 1_655 S
C1195 C1199 1.429 . S
C1196 C1179 1.574 . S
C1196 H1190 0.949 . S
C1196 C1200 1.368 . S
C1197 C1178 1.429 1_556 S
C1197 C1191 1.429 . S
C1197 C1198 1.523 . S
C1198 C1179 1.368 . S
C1198 C1192 1.368 . S
C1198 C1197 1.523 . S
C1199 C1183 1.429 1_655 S
C1199 C1195 1.429 . S
C1199 C1200 1.523 . S
C1200 C1184 1.368 . S
C1200 C1196 1.368 . S
C1200 C1199 1.523 . S
H1201 C1176 0.950 . S
H1202 C1178 0.950 . S
H1203 C1179 0.949 . S
H1204 C1181 0.950 . S
H1205 C1183 0.950 . S
C1206 C1207 1.349 . S
C1206 C1208 1.327 . S
C1206 H1231 0.950 . S
C1207 C1206 1.349 . S
C1207 C1223 1.349 1_554 S
C1208 C1206 1.327 . S
C1208 C1227 1.429 1_554 S
C1208 H1232 0.950 . S
C1209 C1226 1.574 . S
C1209 C1228 1.368 . S
C1209 H1233 0.949 . S
H1210 C1214 0.949 1_545 S
C1211 C1212 1.349 1_565 S
C1211 C1213 1.327 . S
C1211 H1234 0.950 . S
C1212 C1211 1.349 1_545 S
C1212 C1224 1.349 . S
C1213 C1211 1.327 . S
C1213 C1229 1.429 . S
C1213 H1235 0.950 . S
C1214 H1210 0.949 1_565 S
C1214 C1222 1.574 . S
C1214 C1230 1.368 . S
H1215 C1223 0.950 . S
H1216 C1221 0.950 . S
H1217 C1222 0.949 . S
H1218 C1224 0.950 . S
H1219 C1225 0.950 . S
H1220 C1226 0.949 . S
C1221 H1216 0.950 . S
C1221 C1223 1.327 . S
C1221 C1227 1.429 . S
C1222 C1214 1.574 . S
C1222 H1217 0.949 . S
C1222 C1228 1.368 . S
C1223 C1207 1.349 1_556 S
C1223 H1215 0.950 . S
C1223 C1221 1.327 . S
C1224 C1212 1.349 . S
C1224 H1218 0.950 . S
C1224 C1225 1.327 . S
C1225 H1219 0.950 . S
C1225 C1224 1.327 . S
C1225 C1229 1.429 1_545 S
C1226 C1209 1.574 . S
C1226 H1220 0.949 . S
C1226 C1230 1.368 . S
C1227 C1208 1.429 1_556 S
C1227 C1221 1.429 . S
C1227 C1228 1.523 . S
C1228 C1209 1.368 . S
C1228 C1222 1.368 . S
C1228 C1227 1.523 . S
C1229 C1213 1.429 . S
C1229 C1225 1.429 1_565 S
C1229 C1230 1.523 . S
C1230 C1214 1.368 . S
C1230 C1226 1.368 . S
C1230 C1229 1.523 . S
H1231 C1206 0.950 . S
H1232 C1208 0.950 . S
H1233 C1209 0.949 . S
H1234 C1211 0.950 . S
H1235 C1213 0.950 . S
C1236 C1237 1.349 1_556 S
C1236 C1238 1.327 . S
C1236 H1261 0.950 . S
C1237 C1236 1.349 1_554 S
C1237 C1253 1.349 . S
C1238 C1236 1.327 . S
C1238 C1257 1.429 . S
C1238 H1262 0.950 . S
C1239 C1256 1.574 . S
C1239 C1258 1.368 . S
C1239 H1263 0.949 . S
H1240 C1244 0.949 . S
C1241 C1242 1.349 . S
C1241 C1243 1.327 . S
C1241 H1264 0.950 . S
C1242 C1241 1.349 . S
C1242 C1254 1.349 . S
C1243 C1241 1.327 . S
C1243 C1259 1.429 . S
C1243 H1265 0.950 . S
C1244 H1240 0.949 . S
C1244 C1252 1.574 . S
C1244 C1260 1.368 . S
H1245 C1253 0.950 . S
H1246 C1251 0.949 1_554 S
H1247 C1252 0.949 . S
H1248 C1254 0.950 . S
H1249 C1255 0.950 . S
H1250 C1256 0.949 . S
C1251 H1246 0.949 1_556 S
C1251 C1253 1.324 1_556 S
C1251 C1257 1.433 . S
C1252 C1244 1.574 . S
C1252 H1247 0.949 . S
C1252 C1258 1.368 . S
C1253 C1237 1.349 . S
C1253 H1245 0.950 . S
C1253 C1251 1.324 1_554 S
C1254 C1242 1.349 . S
C1254 H1248 0.950 . S
C1254 C1255 1.327 . S
C1255 H1249 0.950 . S
C1255 C1254 1.327 . S
C1255 C1259 1.429 . S
C1256 C1239 1.574 . S
C1256 H1250 0.949 . S
C1256 C1260 1.368 . S
C1257 C1238 1.429 . S
C1257 C1251 1.433 . S
C1257 C1258 1.523 . S
C1258 C1239 1.368 . S
C1258 C1252 1.368 . S
C1258 C1257 1.523 . S
C1259 C1243 1.429 . S
C1259 C1255 1.429 . S
C1259 C1260 1.523 . S
C1260 C1244 1.368 . S
C1260 C1256 1.368 . S
C1260 C1259 1.523 . S
H1261 C1236 0.950 . S
H1262 C1238 0.950 . S
H1263 C1239 0.949 . S
H1264 C1241 0.950 . S
H1265 C1243 0.950 . S
C1266 C1267 1.349 1_556 S
C1266 C1268 1.327 . S
C1266 H1291 0.950 . S
C1267 C1266 1.349 1_554 S
C1267 C1283 1.349 . S
C1268 C1266 1.327 . S
C1268 C1287 1.429 . S
C1268 H1292 0.950 . S
C1269 C1286 1.574 . S
C1269 C1288 1.368 . S
C1269 H1293 0.949 . S
H1270 C1274 0.949 . S
C1271 C1272 1.349 . S
C1271 C1273 1.327 . S
C1271 H1294 0.950 . S
C1272 C1271 1.349 . S
C1272 C1284 1.349 . S
C1273 C1271 1.327 . S
C1273 C1289 1.429 . S
C1273 H1295 0.950 . S
C1274 H1270 0.949 . S
C1274 C1282 1.574 . S
C1274 C1290 1.368 . S
H1275 C1283 0.950 . S
H1276 C1281 0.950 . S
H1277 C1282 0.949 . S
H1278 C1284 0.950 . S
H1279 C1285 0.950 . S
H1280 C1286 0.949 . S
C1281 H1276 0.950 . S
C1281 C1283 1.327 1_556 S
C1281 C1287 1.429 . S
C1282 C1274 1.574 . S
C1282 H1277 0.949 . S
C1282 C1288 1.368 . S
C1283 C1267 1.349 . S
C1283 H1275 0.950 . S
C1283 C1281 1.327 1_554 S
C1284 C1272 1.349 . S
C1284 H1278 0.950 . S
C1284 C1285 1.327 . S
C1285 H1279 0.950 . S
C1285 C1284 1.327 . S
C1285 C1289 1.429 . S
C1286 C1269 1.574 . S
C1286 H1280 0.949 . S
C1286 C1290 1.368 . S
C1287 C1268 1.429 . S
C1287 C1281 1.429 . S
C1287 C1288 1.523 . S
C1288 C1269 1.368 . S
C1288 C1282 1.368 . S
C1288 C1287 1.523 . S
C1289 C1273 1.429 . S
C1289 C1285 1.429 . S
C1289 C1290 1.523 . S
C1290 C1274 1.368 . S
C1290 C1286 1.368 . S
C1290 C1289 1.523 . S
H1291 C1266 0.950 . S
H1292 C1268 0.950 . S
H1293 C1269 0.949 . S
H1294 C1271 0.950 . S
H1295 C1273 0.950 . S
C1296 C1297 1.349 . S
C1296 C1298 1.327 . S
C1296 H1321 0.950 . S
C1297 C1296 1.349 . S
C1297 C1313 1.349 . S
C1298 C1296 1.327 . S
C1298 C1317 1.429 . S
C1298 H1322 0.950 . S
C1299 C1316 1.574 . S
C1299 C1318 1.368 . S
C1299 H1323 0.949 . S
H1300 C1304 0.949 . S
C1301 C1302 1.349 . S
C1301 C1303 1.327 . S
C1301 H1324 0.950 . S
C1302 C1301 1.349 . S
C1302 C1314 1.349 . S
C1303 C1301 1.327 . S
C1303 C1319 1.429 . S
C1303 H1325 0.950 . S
C1304 H1300 0.949 . S
C1304 C1312 1.574 . S
C1304 C1320 1.368 . S
H1305 C1313 0.950 . S
H1306 C1311 0.950 . S
H1307 C1312 0.949 . S
H1308 C1314 0.950 . S
H1309 C1315 0.950 . S
H1310 C1316 0.949 . S
C1311 H1306 0.950 . S
C1311 C1313 1.327 . S
C1311 C1317 1.429 . S
C1312 C1304 1.574 . S
C1312 H1307 0.949 . S
C1312 C1318 1.368 . S
C1313 C1297 1.349 . S
C1313 H1305 0.950 . S
C1313 C1311 1.327 . S
C1314 C1302 1.349 . S
C1314 H1308 0.950 . S
C1314 C1315 1.327 . S
C1315 H1309 0.950 . S
C1315 C1314 1.327 . S
C1315 C1319 1.429 . S
C1316 C1299 1.574 . S
C1316 H1310 0.949 . S
C1316 C1320 1.368 . S
C1317 C1298 1.429 . S
C1317 C1311 1.429 . S
C1317 C1318 1.523 . S
C1318 C1299 1.368 . S
C1318 C1312 1.368 . S
C1318 C1317 1.523 . S
C1319 C1303 1.429 . S
C1319 C1315 1.429 . S
C1319 C1320 1.523 . S
C1320 C1304 1.368 . S
C1320 C1316 1.368 . S
C1320 C1319 1.523 . S
H1321 C1296 0.950 . S
H1322 C1298 0.950 . S
H1323 C1299 0.949 . S
H1324 C1301 0.950 . S
H1325 C1303 0.950 . S
C1326 C1327 1.349 . S
C1326 C1328 1.327 . S
C1326 H1351 0.950 . S
C1327 C1326 1.349 . S
C1327 C1343 1.349 . S
C1328 C1326 1.327 . S
C1328 C1347 1.429 . S
C1328 H1352 0.950 . S
C1329 C1346 1.574 . S
C1329 C1348 1.368 . S
C1329 H1353 0.949 . S
H1330 C1334 0.949 . S
C1331 C1332 1.349 . S
C1331 C1333 1.327 . S
C1331 H1354 0.950 1_545 S
C1332 C1331 1.349 . S
C1332 C1344 1.349 . S
C1333 C1331 1.327 . S
C1333 C1349 1.429 . S
C1333 H1355 0.950 1_545 S
C1334 H1330 0.949 . S
C1334 C1342 1.574 . S
C1334 C1350 1.368 . S
H1335 C1343 0.950 . S
H1336 C1341 0.950 . S
H1337 C1342 0.949 . S
H1338 C1344 0.950 . S
H1339 C1345 0.950 . S
H1340 C1346 0.949 . S
C1341 H1336 0.950 . S
C1341 C1343 1.327 . S
C1341 C1347 1.429 . S
C1342 C1334 1.574 . S
C1342 H1337 0.949 . S
C1342 C1348 1.368 . S
C1343 C1327 1.349 . S
C1343 H1335 0.950 . S
C1343 C1341 1.327 . S
C1344 C1332 1.349 . S
C1344 H1338 0.950 . S
C1344 C1345 1.327 . S
C1345 H1339 0.950 . S
C1345 C1344 1.327 . S
C1345 C1349 1.429 . S
C1346 C1329 1.574 . S
C1346 H1340 0.949 . S
C1346 C1350 1.368 . S
C1347 C1328 1.429 . S
C1347 C1341 1.429 . S
C1347 C1348 1.523 . S
C1348 C1329 1.368 . S
C1348 C1342 1.368 . S
C1348 C1347 1.523 . S
C1349 C1333 1.429 . S
C1349 C1345 1.429 . S
C1349 C1350 1.523 . S
C1350 C1334 1.368 . S
C1350 C1346 1.368 . S
C1350 C1349 1.523 . S
H1351 C1326 0.950 . S
H1352 C1328 0.950 . S
H1353 C1329 0.949 . S
H1354 C1331 0.950 1_565 S
H1355 C1333 0.950 1_565 S
C1356 C1357 1.349 . S
C1356 C1358 1.327 . S
C1356 H1381 0.950 . S
C1357 C1356 1.349 . S
C1357 C1373 1.349 . S
C1358 C1356 1.327 . S
C1358 C1377 1.429 . S
C1358 H1382 0.950 . S
C1359 C1376 1.574 . S
C1359 C1378 1.368 . S
C1359 H1383 0.949 . S
H1360 C1364 0.949 . S
C1361 C1362 1.349 . S
C1361 C1363 1.327 . S
C1361 H1384 0.950 . S
C1362 C1361 1.349 . S
C1362 C1374 1.349 . S
C1363 C1361 1.327 . S
C1363 C1379 1.429 . S
C1363 H1385 0.950 . S
C1364 H1360 0.949 . S
C1364 C1372 1.574 . S
C1364 C1380 1.368 . S
H1365 C1373 0.950 . S
H1366 C1371 0.950 . S
H1367 C1372 0.949 . S
H1368 C1374 0.950 . S
H1369 C1375 0.950 . S
H1370 C1376 0.949 . S
C1371 H1366 0.950 . S
C1371 C1373 1.327 . S
C1371 C1377 1.429 . S
C1372 C1364 1.574 . S
C1372 H1367 0.949 . S
C1372 C1378 1.368 . S
C1373 C1357 1.349 . S
C1373 H1365 0.950 . S
C1373 C1371 1.327 . S
C1374 C1362 1.349 . S
C1374 H1368 0.950 . S
C1374 C1375 1.327 . S
C1375 H1369 0.950 . S
C1375 C1374 1.327 . S
C1375 C1379 1.429 . S
C1376 C1359 1.574 . S
C1376 H1370 0.949 . S
C1376 C1380 1.368 . S
C1377 C1358 1.429 . S
C1377 C1371 1.429 . S
C1377 C1378 1.523 . S
C1378 C1359 1.368 . S
C1378 C1372 1.368 . S
C1378 C1377 1.523 . S
C1379 C1363 1.429 . S
C1379 C1375 1.429 . S
C1379 C1380 1.523 . S
C1380 C1364 1.368 . S
C1380 C1376 1.368 . S
C1380 C1379 1.523 . S
H1381 C1356 0.950 . S
H1382 C1358 0.950 . S
H1383 C1359 0.949 . S
H1384 C1361 0.950 . S
H1385 C1363 0.950 . S
C1386 C1387 1.349 . S
C1386 C1388 1.327 . S
C1386 H1411 0.950 . S
C1387 C1386 1.349 . S
C1387 C1403 1.349 . S
C1388 C1386 1.327 . S
C1388 C1407 1.429 . S
C1388 H1412 0.950 . S
C1389 C1406 1.574 . S
C1389 C1408 1.368 . S
C1389 H1413 0.949 . S
H1390 C1394 0.949 . S
C1391 C1392 1.349 . S
C1391 C1393 1.327 . S
C1391 H1414 0.950 . S
C1392 C1391 1.349 . S
C1392 C1404 1.349 . S
C1393 C1391 1.327 . S
C1393 C1409 1.429 . S
C1393 H1415 0.950 . S
C1394 H1390 0.949 . S
C1394 C1402 1.574 . S
C1394 C1410 1.368 . S
H1395 C1403 0.950 . S
H1396 C1401 0.950 . S
H1397 C1402 0.949 . S
H1398 C1404 0.950 . S
H1399 C1405 0.950 . S
H1400 C1406 0.949 . S
C1401 H1396 0.950 . S
C1401 C1403 1.327 . S
C1401 C1407 1.429 . S
C1402 C1394 1.574 . S
C1402 H1397 0.949 . S
C1402 C1408 1.368 . S
C1403 C1387 1.349 . S
C1403 H1395 0.950 . S
C1403 C1401 1.327 . S
C1404 C1392 1.349 . S
C1404 H1398 0.950 . S
C1404 C1405 1.327 . S
C1405 H1399 0.950 . S
C1405 C1404 1.327 . S
C1405 C1409 1.429 . S
C1406 C1389 1.574 . S
C1406 H1400 0.949 . S
C1406 C1410 1.368 . S
C1407 C1388 1.429 . S
C1407 C1401 1.429 . S
C1407 C1408 1.523 . S
C1408 C1389 1.368 . S
C1408 C1402 1.368 . S
C1408 C1407 1.523 . S
C1409 C1393 1.429 . S
C1409 C1405 1.429 . S
C1409 C1410 1.523 . S
C1410 C1394 1.368 . S
C1410 C1406 1.368 . S
C1410 C1409 1.523 . S
H1411 C1386 0.950 . S
H1412 C1388 0.950 . S
H1413 C1389 0.949 . S
H1414 C1391 0.950 . S
H1415 C1393 0.950 . S
C1416 C1417 1.349 . S
C1416 C1418 1.327 . S
C1416 H1441 0.950 . S
C1417 C1416 1.349 . S
C1417 C1433 1.349 . S
C1418 C1416 1.327 . S
C1418 C1437 1.429 . S
C1418 H1442 0.950 . S
C1419 C1436 1.574 . S
C1419 C1438 1.368 . S
C1419 H1443 0.949 . S
H1420 C1424 0.974 . S
C1421 C1422 1.349 . S
C1421 C1423 1.327 . S
C1421 H1444 0.950 . S
C1422 C1421 1.349 . S
C1422 C1434 1.375 . S
C1423 C1421 1.327 . S
C1423 C1439 1.429 . S
C1423 H1445 0.950 . S
C1424 H1420 0.974 . S
C1424 C1432 1.574 . S
C1424 C1440 1.368 . S
H1425 C1433 0.950 . S
H1426 C1431 0.950 . S
H1427 C1432 0.949 . S
H1428 C1434 0.918 1_455 S
H1429 C1435 0.950 1_455 S
H1430 C1436 0.949 . S
C1431 H1426 0.950 . S
C1431 C1433 1.327 . S
C1431 C1437 1.429 . S
C1432 C1424 1.574 . S
C1432 H1427 0.949 . S
C1432 C1438 1.368 . S
C1433 C1417 1.349 . S
C1433 H1425 0.950 . S
C1433 C1431 1.327 . S
C1434 C1422 1.375 . S
C1434 H1428 0.918 1_655 S
C1434 C1435 1.335 . S
C1435 H1429 0.950 1_655 S
C1435 C1434 1.335 . S
C1435 C1439 1.429 . S
C1436 C1419 1.574 . S
C1436 H1430 0.949 . S
C1436 C1440 1.368 . S
C1437 C1418 1.429 . S
C1437 C1431 1.429 . S
C1437 C1438 1.523 . S
C1438 C1419 1.368 . S
C1438 C1432 1.368 . S
C1438 C1437 1.523 . S
C1439 C1423 1.429 . S
C1439 C1435 1.429 . S
C1439 C1440 1.523 . S
C1440 C1424 1.368 . S
C1440 C1436 1.368 . S
C1440 C1439 1.523 . S
H1441 C1416 0.950 . S
H1442 C1418 0.950 . S
H1443 C1419 0.949 . S
H1444 C1421 0.950 . S
H1445 C1423 0.950 . S
C1446 C1447 1.349 . S
C1446 C1448 1.327 . S
C1446 H1471 0.950 . S
C1447 C1446 1.349 . S
C1447 C1463 1.349 . S
C1448 C1446 1.327 . S
C1448 C1467 1.429 . S
C1448 H1472 0.950 . S
C1449 C1466 1.574 . S
C1449 C1468 1.368 . S
C1449 H1473 0.949 . S
H1450 C1454 0.949 1_545 S
C1451 C1452 1.349 . S
C1451 C1453 1.327 . S
C1451 H1474 0.950 . S
C1452 C1451 1.349 . S
C1452 C1464 1.349 1_565 S
C1453 C1451 1.327 . S
C1453 C1469 1.429 . S
C1453 H1475 0.950 . S
C1454 H1450 0.949 1_565 S
C1454 C1462 1.574 . S
C1454 C1470 1.368 . S
H1455 C1463 0.950 . S
H1456 C1461 0.950 . S
H1457 C1462 0.949 1_545 S
H1458 C1464 0.950 . S
H1459 C1465 0.950 . S
H1460 C1466 0.949 . S
C1461 H1456 0.950 . S
C1461 C1463 1.327 . S
C1461 C1467 1.429 . S
C1462 C1454 1.574 . S
C1462 H1457 0.949 1_565 S
C1462 C1468 1.368 . S
C1463 C1447 1.349 . S
C1463 H1455 0.950 . S
C1463 C1461 1.327 . S
C1464 C1452 1.349 1_545 S
C1464 H1458 0.950 . S
C1464 C1465 1.327 . S
C1465 H1459 0.950 . S
C1465 C1464 1.327 . S
C1465 C1469 1.429 1_545 S
C1466 C1449 1.574 . S
C1466 H1460 0.949 . S
C1466 C1470 1.368 . S
C1467 C1448 1.429 . S
C1467 C1461 1.429 . S
C1467 C1468 1.523 . S
C1468 C1449 1.368 . S
C1468 C1462 1.368 . S
C1468 C1467 1.523 . S
C1469 C1453 1.429 . S
C1469 C1465 1.429 1_565 S
C1469 C1470 1.523 . S
C1470 C1454 1.368 . S
C1470 C1466 1.368 . S
C1470 C1469 1.523 . S
H1471 C1446 0.950 . S
H1472 C1448 0.950 . S
H1473 C1449 0.949 . S
H1474 C1451 0.950 . S
H1475 C1453 0.950 . S
C1476 C1477 1.349 . S
C1476 C1478 1.327 . S
C1476 H1501 0.950 . S
C1477 C1476 1.349 . S
C1477 C1493 1.349 . S
C1478 C1476 1.327 . S
C1478 C1497 1.429 . S
C1478 H1502 0.950 . S
C1479 C1496 1.574 . S
C1479 C1498 1.368 . S
C1479 H1503 0.949 . S
H1480 C1484 0.949 . S
C1481 C1482 1.349 . S
C1481 C1483 1.327 . S
C1481 H1504 0.950 . S
C1482 C1481 1.349 . S
C1482 C1494 1.349 . S
C1483 C1481 1.327 . S
C1483 C1499 1.429 . S
C1483 H1505 0.950 . S
C1484 H1480 0.949 . S
C1484 C1492 1.574 . S
C1484 C1500 1.368 . S
H1485 C1493 0.950 . S
H1486 C1491 0.950 . S
H1487 C1492 0.949 . S
H1488 C1494 0.950 . S
H1489 C1495 0.950 . S
H1490 C1496 0.949 . S
C1491 H1486 0.950 . S
C1491 C1493 1.327 . S
C1491 C1497 1.429 . S
C1492 C1484 1.574 . S
C1492 H1487 0.949 . S
C1492 C1498 1.368 . S
C1493 C1477 1.349 . S
C1493 H1485 0.950 . S
C1493 C1491 1.327 . S
C1494 C1482 1.349 . S
C1494 H1488 0.950 . S
C1494 C1495 1.327 . S
C1495 H1489 0.950 . S
C1495 C1494 1.327 . S
C1495 C1499 1.429 . S
C1496 C1479 1.574 . S
C1496 H1490 0.949 . S
C1496 C1500 1.368 . S
C1497 C1478 1.429 . S
C1497 C1491 1.429 . S
C1497 C1498 1.523 . S
C1498 C1479 1.368 . S
C1498 C1492 1.368 . S
C1498 C1497 1.523 . S
C1499 C1483 1.429 . S
C1499 C1495 1.429 . S
C1499 C1500 1.523 . S
C1500 C1484 1.368 . S
C1500 C1496 1.368 . S
C1500 C1499 1.523 . S
H1501 C1476 0.950 . S
H1502 C1478 0.950 . S
H1503 C1479 0.949 . S
H1504 C1481 0.950 . S
H1505 C1483 0.950 . S
C1506 C1507 1.349 . S
C1506 C1508 1.327 . S
C1506 H1531 0.950 . S
C1507 C1506 1.349 . S
C1507 C1523 1.349 . S
C1508 C1506 1.327 . S
C1508 C1527 1.429 . S
C1508 H1532 0.950 . S
C1509 C1526 1.574 . S
C1509 C1528 1.368 . S
C1509 H1533 0.949 . S
H1510 C1514 0.949 . S
C1511 C1512 1.349 . S
C1511 C1513 1.327 . S
C1511 H1534 0.950 . S
C1512 C1511 1.349 . S
C1512 C1524 1.349 . S
C1513 C1511 1.327 . S
C1513 C1529 1.429 . S
C1513 H1535 0.950 . S
C1514 H1510 0.949 . S
C1514 C1522 1.574 . S
C1514 C1530 1.368 . S
H1515 C1523 0.950 . S
H1516 C1521 0.950 . S
H1517 C1522 0.949 . S
H1518 C1524 0.950 . S
H1519 C1525 0.950 . S
H1520 C1526 0.949 . S
C1521 H1516 0.950 . S
C1521 C1523 1.327 . S
C1521 C1527 1.429 . S
C1522 C1514 1.574 . S
C1522 H1517 0.949 . S
C1522 C1528 1.368 . S
C1523 C1507 1.349 . S
C1523 H1515 0.950 . S
C1523 C1521 1.327 . S
C1524 C1512 1.349 . S
C1524 H1518 0.950 . S
C1524 C1525 1.327 . S
C1525 H1519 0.950 . S
C1525 C1524 1.327 . S
C1525 C1529 1.429 . S
C1526 C1509 1.574 . S
C1526 H1520 0.949 . S
C1526 C1530 1.368 . S
C1527 C1508 1.429 . S
C1527 C1521 1.429 . S
C1527 C1528 1.523 . S
C1528 C1509 1.368 . S
C1528 C1522 1.368 . S
C1528 C1527 1.523 . S
C1529 C1513 1.429 . S
C1529 C1525 1.429 . S
C1529 C1530 1.523 . S
C1530 C1514 1.368 . S
C1530 C1526 1.368 . S
C1530 C1529 1.523 . S
H1531 C1506 0.950 . S
H1532 C1508 0.950 . S
H1533 C1509 0.949 . S
H1534 C1511 0.950 . S
H1535 C1513 0.950 . S
C817 C391 2.177 . S
C822 C548 2.192 . S
C852 C631 2.214 . S
C847 C451 2.197 . S
C882 C716 2.182 . S
C877 C241 1.906 . S
C912 C800 2.162 . S
C907 C331 1.890 . S
C942 C536 2.192 1_565 S
C937 C121 1.957 . S
C967 C211 2.161 . S
C972 C619 2.214 . S
C997 C31 2.133 . S
C1002 C704 2.182 . S
C1027 C91 1.926 . S
C1032 C788 2.161 1_655 S
C1062 C538 0.430 1_455 S
C1057 C301 0.483 . S
C1092 C634 0.526 . S
C1087 C380 0.204 . S
C1122 C706 0.428 . S
C1117 C440 0.259 . S
C1147 C260 0.482 . S
C1152 C790 0.423 . S
C1177 C61 0.386 . S
C1182 C550 0.430 . S
C1212 C622 0.526 . S
C1207 C140 0.377 . S
C1242 C718 0.428 . S
C1237 C200 0.393 . S
C1267 C20 0.374 . S
C1272 C802 0.423 . S
C1297 C320 2.521 . S
C1302 C535 2.657 . S
C1327 C361 2.231 . S
C1332 C620 2.665 . S
C1362 C703 2.685 . S
C1357 C421 2.269 . S
C1392 C787 2.688 . S
C1387 C271 2.551 . S
C1417 C80 2.551 . S
C1422 C547 2.657 . S
C1452 C632 2.665 . S
C1447 C151 2.538 . S
C1482 C715 2.686 . S
C1477 C181 2.233 . S
C1507 C1 2.238 . S
C1512 C799 2.688 . S
