# Generated by pormake.
# Topology pth, (4,4)-cn, num edge types: 1
# Building blocks:
#     Node 0, Type 0, BuildingBlock: QUQFOY_clean_sbu_1, # of connection points: 4
#     Node 1, Type 0, BuildingBlock: QUQFOY_clean_sbu_1, # of connection points: 4
#     Node 2, Type 0, BuildingBlock: QUQFOY_clean_sbu_1, # of connection points: 4
#     Node 3, Type 1, BuildingBlock: MIFKUJ_clean_linker_1, # of connection points: 4
#     Node 4, Type 1, BuildingBlock: MIFKUJ_clean_linker_1, # of connection points: 4
#     Node 5, Type 1, BuildingBlock: MIFKUJ_clean_linker_1, # of connection points: 4
#     Edge 6, Type (0, 1), BuildingBlock: FUNLAD_clean_linker_0, # of connection points: 2
#     Edge 7, Type (0, 1), BuildingBlock: FUNLAD_clean_linker_0, # of connection points: 2
#     Edge 8, Type (0, 1), BuildingBlock: FUNLAD_clean_linker_0, # of connection points: 2
#     Edge 9, Type (0, 1), BuildingBlock: FUNLAD_clean_linker_0, # of connection points: 2
#     Edge 10, Type (0, 1), BuildingBlock: FUNLAD_clean_linker_0, # of connection points: 2
#     Edge 11, Type (0, 1), BuildingBlock: FUNLAD_clean_linker_0, # of connection points: 2
#     Edge 12, Type (0, 1), BuildingBlock: FUNLAD_clean_linker_0, # of connection points: 2
#     Edge 13, Type (0, 1), BuildingBlock: FUNLAD_clean_linker_0, # of connection points: 2
#     Edge 14, Type (0, 1), BuildingBlock: FUNLAD_clean_linker_0, # of connection points: 2
#     Edge 15, Type (0, 1), BuildingBlock: FUNLAD_clean_linker_0, # of connection points: 2
#     Edge 16, Type (0, 1), BuildingBlock: FUNLAD_clean_linker_0, # of connection points: 2
#     Edge 17, Type (0, 1), BuildingBlock: FUNLAD_clean_linker_0, # of connection points: 2
# Relax obj value: 0.028
# Max RMSD: 0.131
# Mean RMSD: 0.087
data_MOF--net-pth--node1-QUQFOY_clean_sbu_1--node2-MIFKUJ_clean_linker_1--edge1-FUNLAD_clean_linker_0
_symmetry_space_group_name_H-M    P1
_symmetry_Int_Tables_number       1
_symmetry_cell_setting            triclinic
loop_
_symmetry_equiv_pos_as_xyz
'x, y, z'
_cell_length_a     32.51179
_cell_length_b     34.868484
_cell_length_c     74.60818
_cell_angle_alpha  89.993972
_cell_angle_beta   89.977365
_cell_angle_gamma 120.05817
loop_
_atom_site_label
_atom_site_type_symbol
_atom_site_fract_x
_atom_site_fract_y
_atom_site_fract_z
_atom_type_partial_charge
O0 O 0.03458 0.07338 0.03696 0.0
Cd1 Cd 0.97694 0.02957 0.05213 0.0
Cd2 Cd 0.02498 0.98374 0.04994 0.0
O3 O 0.07845 0.04163 0.03893 0.0
O4 O 0.94663 0.06527 0.05826 0.0
O5 O 0.97922 0.04267 0.07859 0.0
C6 C 0.95871 0.06517 0.07469 0.0
C7 C 0.04071 0.94625 0.0724 0.0
C8 C 0.07313 0.07363 0.03381 0.0
C9 C 0.92925 0.94371 0.03216 0.0
O10 O 0.96822 0.94382 0.03374 0.0
O11 O 0.92369 0.97344 0.03976 0.0
O12 O 0.05381 0.94677 0.05605 0.0
O13 O 0.02011 0.96875 0.07622 0.0
O14 O 0.96623 0.03949 0.39085 0.0
Cd15 Cd 0.02153 0.04956 0.3744 0.0
Cd16 Cd 0.97447 0.95979 0.37489 0.0
O17 O 0.92253 0.967 0.38793 0.0
O18 O 0.04896 0.11192 0.36618 0.0
O19 O 0.01387 0.05446 0.34787 0.0
C20 C 0.03408 0.09679 0.35029 0.0
C21 C 0.95489 0.90753 0.3521 0.0
C22 C 0.92822 1.00335 0.39409 0.0
C23 C 0.07193 0.00819 0.39184 0.0
O24 O 0.0336 0.97172 0.38944 0.0
O25 O 0.07618 0.04416 0.38588 0.0
O26 O 0.94431 0.89587 0.36861 0.0
O27 O 0.97495 0.94925 0.34833 0.0
O28 O 0.9285 0.97145 0.70129 0.0
Cd29 Cd 0.97351 0.9601 0.71691 0.0
Cd30 Cd 0.02151 0.04868 0.71868 0.0
O31 O 0.96279 0.0435 0.70568 0.0
O32 O 0.93574 0.89661 0.72389 0.0
O33 O 0.9615 0.95149 0.74348 0.0
C34 C 0.93773 0.90944 0.74024 0.0
C35 C 0.05351 0.09361 0.74387 0.0
C36 C 0.92963 0.00803 0.69885 0.0
C37 C 0.06893 0.0051 0.69963 0.0
O38 O 0.06972 0.04102 0.70336 0.0
O39 O 0.03433 0.96818 0.70472 0.0
O40 O 0.05805 0.11023 0.72806 0.0
O41 O 0.02893 0.05101 0.74551 0.0
H42 H 0.05709 0.47317 0.17659 0.0
H43 H 0.05151 0.40935 0.16062 0.0
H44 H 0.93073 0.32139 0.19321 0.0
H45 H 0.93619 0.38512 0.20898 0.0
H46 H 0.001 0.50664 0.18007 0.0
H47 H 0.07406 0.45537 0.21983 0.0
H48 H 0.08553 0.40138 0.23666 0.0
H49 H 0.95938 0.36695 0.26766 0.0
H50 H 0.94743 0.42044 0.25042 0.0
H51 H 0.92828 0.53222 0.24498 0.0
H52 H 0.92124 0.58997 0.26084 0.0
H53 H 0.05642 0.68899 0.23894 0.0
H54 H 0.06266 0.63095 0.22286 0.0
H55 H 0.00018 0.5088 0.2466 0.0
H56 H 0.93376 0.56829 0.2024 0.0
H57 H 0.93773 0.63034 0.18561 0.0
H58 H 0.07401 0.66011 0.164 0.0
H59 H 0.06931 0.59765 0.1806 0.0
C60 C 0.99744 0.43399 0.19413 0.0
C61 C 0.02927 0.44016 0.18022 0.0
C62 C 0.02603 0.40366 0.17111 0.0
C63 C 0.99086 0.36029 0.17574 0.0
C64 C 0.95874 0.35429 0.18955 0.0
C65 C 0.96181 0.39074 0.19855 0.0
C66 C 0.00122 0.4725 0.20415 0.0
C67 C 0.00138 0.50731 0.19461 0.0
C68 C 0.00244 0.47387 0.22312 0.0
C69 C 0.00964 0.44168 0.23376 0.0
C70 C 0.04868 0.43601 0.23018 0.0
C71 C 0.05541 0.40537 0.2399 0.0
C72 C 0.02332 0.37981 0.25348 0.0
C73 C 0.98438 0.38573 0.25713 0.0
C74 C 0.97774 0.41655 0.24741 0.0
C75 C 0.99581 0.57732 0.23267 0.0
C76 C 0.95648 0.56637 0.24369 0.0
C77 C 0.9526 0.59946 0.25277 0.0
C78 C 0.98822 0.64423 0.25116 0.0
C79 C 0.02794 0.655 0.24026 0.0
C80 C 0.03172 0.62185 0.23114 0.0
C81 C 0.99848 0.54207 0.22252 0.0
C82 C 0.99971 0.50795 0.23206 0.0
C83 C 0.00039 0.54227 0.20356 0.0
C84 C 0.00137 0.57853 0.19281 0.0
C85 C 0.96443 0.58822 0.19402 0.0
C86 C 0.96691 0.62386 0.18449 0.0
C87 C 0.0063 0.65041 0.17349 0.0
C88 C 0.04287 0.6401 0.17214 0.0
C89 C 0.04031 0.60444 0.18165 0.0
H90 H 0.59457 0.06251 0.51308 0.0
H91 H 0.65149 0.05649 0.49366 0.0
H92 H 0.61298 0.9299 0.51756 0.0
H93 H 0.55462 0.93528 0.5364 0.0
H94 H 0.50276 0.01329 0.51314 0.0
H95 H 0.62302 0.05242 0.55738 0.0
H96 H 0.68094 0.04918 0.57733 0.0
H97 H 0.57009 0.92511 0.59894 0.0
H98 H 0.51277 0.92792 0.57865 0.0
H99 H 0.39186 0.92999 0.57594 0.0
H100 H 0.32968 0.92758 0.59503 0.0
H101 H 0.36439 0.0577 0.57627 0.0
H102 H 0.42777 0.06047 0.5576 0.0
H103 H 0.48481 0.98651 0.57866 0.0
H104 H 0.36471 0.94943 0.53334 0.0
H105 H 0.30855 0.95685 0.51393 0.0
H106 H 0.42238 0.08229 0.49459 0.0
H107 H 0.47791 0.07543 0.51453 0.0
C108 C 0.57051 0.99952 0.5263 0.0
C109 C 0.59857 0.03356 0.5142 0.0
C110 C 0.63138 0.03021 0.5032 0.0
C111 C 0.6368 0.99267 0.50404 0.0
C112 C 0.60931 0.95901 0.51642 0.0
C113 C 0.57637 0.96233 0.52739 0.0
C114 C 0.53276 1.0014 0.53678 0.0
C115 C 0.49936 0.00823 0.52754 0.0
C116 C 0.52767 0.99389 0.55549 0.0
C117 C 0.56362 0.99027 0.56645 0.0
C118 C 0.61142 0.02412 0.56618 0.0
C119 C 0.64436 0.02247 0.57772 0.0
C120 C 0.63007 0.98697 0.58976 0.0
C121 C 0.58238 0.95265 0.5897 0.0
C122 C 0.5495 0.95436 0.57819 0.0
C123 C 0.41433 0.99531 0.56529 0.0
C124 C 0.3859 0.95791 0.57586 0.0
C125 C 0.35011 0.95644 0.58667 0.0
C126 C 0.34205 0.99245 0.58717 0.0
C127 C 0.37002 0.02961 0.57631 0.0
C128 C 0.40592 0.03106 0.56549 0.0
C129 C 0.4545 0.99766 0.55497 0.0
C130 C 0.48841 0.99174 0.56427 0.0
C131 C 0.46032 0.00651 0.53636 0.0
C132 C 0.42544 0.01206 0.5255 0.0
C133 C 0.37736 0.97892 0.52518 0.0
C134 C 0.34541 0.98298 0.51392 0.0
C135 C 0.36102 0.02009 0.50264 0.0
C136 C 0.40905 0.05356 0.50325 0.0
C137 C 0.44092 0.04953 0.51454 0.0
H138 H 0.47445 0.41851 0.85418 0.0
H139 H 0.41298 0.36118 0.8353 0.0
H140 H 0.30646 0.37999 0.86205 0.0
H141 H 0.36804 0.43705 0.88096 0.0
H142 H 0.50332 0.50352 0.8563 0.0
H143 H 0.44386 0.3844 0.89757 0.0
H144 H 0.38954 0.32223 0.91645 0.0
H145 H 0.34488 0.40605 0.94255 0.0
H146 H 0.3999 0.46827 0.92379 0.0
H147 H 0.5211 0.59557 0.92225 0.0
H148 H 0.58073 0.65352 0.94156 0.0
H149 H 0.68828 0.62869 0.91966 0.0
H150 H 0.62832 0.57026 0.90065 0.0
H151 H 0.49447 0.507 0.92259 0.0
H152 H 0.56285 0.62848 0.87975 0.0
H153 H 0.62688 0.68797 0.86239 0.0
H154 H 0.66291 0.59391 0.84031 0.0
H155 H 0.59845 0.53464 0.85748 0.0
C156 C 0.42589 0.43198 0.86904 0.0
C157 C 0.43782 0.41013 0.85602 0.0
C158 C 0.40265 0.37745 0.84521 0.0
C159 C 0.35479 0.36608 0.84712 0.0
C160 C 0.34283 0.38746 0.8604 0.0
C161 C 0.37805 0.42017 0.8712 0.0
C162 C 0.46364 0.46848 0.8798 0.0
C163 C 0.50163 0.50398 0.87082 0.0
C164 C 0.46137 0.4694 0.89871 0.0
C165 C 0.42571 0.4309 0.9092 0.0
C166 C 0.42185 0.38919 0.90718 0.0
C167 C 0.39074 0.35365 0.91799 0.0
C168 C 0.36297 0.35917 0.93107 0.0
C169 C 0.36633 0.40084 0.93282 0.0
C170 C 0.39754 0.43637 0.92204 0.0
C171 C 0.57037 0.57886 0.90995 0.0
C172 C 0.55759 0.60282 0.92157 0.0
C173 C 0.59172 0.63606 0.9325 0.0
C174 C 0.63916 0.6456 0.93213 0.0
C175 C 0.65192 0.62179 0.92036 0.0
C176 C 0.61782 0.5887 0.90937 0.0
C177 C 0.53358 0.54213 0.89909 0.0
C178 C 0.49584 0.50657 0.90806 0.0
C179 C 0.53678 0.54071 0.88022 0.0
C180 C 0.57598 0.57714 0.86995 0.0
C181 C 0.58479 0.6208 0.87126 0.0
C182 C 0.62153 0.6548 0.86137 0.0
C183 C 0.65006 0.64575 0.84993 0.0
C184 C 0.6412 0.60197 0.84876 0.0
C185 C 0.60445 0.56804 0.85861 0.0
C186 C 0.977 0.10347 0.10457 0.0
C187 C 0.95294 0.09347 0.08808 0.0
C188 C 0.97718 0.13557 0.11594 0.0
C189 C 0.95283 0.15798 0.11107 0.0
C190 C 0.92712 0.14634 0.09495 0.0
C191 C 0.92714 0.11454 0.08361 0.0
C192 C 0.95603 0.19588 0.12147 0.0
C193 C 0.97276 0.20664 0.13834 0.0
C194 C 0.97765 0.24645 0.14766 0.0
C195 C 0.97434 0.24626 0.16642 0.0
C196 C 0.97869 0.28317 0.17555 0.0
C197 C 0.98718 0.32138 0.1661 0.0
H198 H 0.99142 0.28705 0.12383 0.0
C199 C 0.99164 0.32197 0.14736 0.0
C200 C 0.98701 0.285 0.13824 0.0
H201 H 0.9981 0.35085 0.13969 0.0
H202 H 0.99751 0.08803 0.10834 0.0
H203 H 0.99809 0.1438 0.12806 0.0
H204 H 0.90797 0.16287 0.09082 0.0
H205 H 0.90809 0.10754 0.07102 0.0
H206 H 0.94349 0.2158 0.11479 0.0
H207 H 0.98158 0.18515 0.14589 0.0
H208 H 0.96786 0.21729 0.17404 0.0
H209 H 0.97583 0.28194 0.19003 0.0
C210 C 0.85144 0.9642 0.41128 0.0
C211 C 0.89152 0.00384 0.40571 0.0
C212 C 0.81841 0.96504 0.42308 0.0
C213 C 0.82494 0.00566 0.42959 0.0
C214 C 0.86422 0.04517 0.42356 0.0
C215 C 0.8972 0.04433 0.41184 0.0
C216 C 0.79195 0.0088 0.44255 0.0
C217 C 0.76158 0.97538 0.45325 0.0
C218 C 0.73066 0.98047 0.46657 0.0
C219 C 0.68707 0.94333 0.47124 0.0
C220 C 0.65682 0.94712 0.48353 0.0
C221 C 0.66984 0.98812 0.49159 0.0
H222 H 0.77846 0.05024 0.4723 0.0
C223 C 0.71416 0.02501 0.48731 0.0
C224 C 0.74429 0.02125 0.47498 0.0
H225 H 0.72579 0.05681 0.4936 0.0
H226 H 0.8458 0.93245 0.40669 0.0
H227 H 0.7879 0.93382 0.4269 0.0
H228 H 0.86997 0.07695 0.42819 0.0
H229 H 0.92746 0.07555 0.40775 0.0
H230 H 0.7939 0.04074 0.44358 0.0
H231 H 0.75844 0.94299 0.45222 0.0
H232 H 0.67594 0.91144 0.4651 0.0
H233 H 0.62276 0.91811 0.48638 0.0
C234 C 0.90558 0.89029 0.77163 0.0
C235 C 0.91127 0.87672 0.75451 0.0
C236 C 0.8768 0.85893 0.78447 0.0
C237 C 0.85318 0.81333 0.78042 0.0
C238 C 0.86065 0.79996 0.76357 0.0
C239 C 0.88907 0.83119 0.75074 0.0
C240 C 0.81989 0.77841 0.79302 0.0
C241 C 0.79767 0.78563 0.80677 0.0
C242 C 0.76053 0.74907 0.81778 0.0
C243 C 0.75264 0.75773 0.83544 0.0
C244 C 0.71708 0.72428 0.84595 0.0
C245 C 0.68822 0.68149 0.83893 0.0
H246 H 0.73474 0.69877 0.79691 0.0
C247 C 0.69569 0.67307 0.82114 0.0
C248 C 0.73126 0.70639 0.81069 0.0
H249 H 0.67332 0.64087 0.81513 0.0
H250 H 0.9225 0.92516 0.77497 0.0
H251 H 0.87326 0.87071 0.79747 0.0
H252 H 0.84335 0.76512 0.76009 0.0
H253 H 0.89295 0.81955 0.73773 0.0
H254 H 0.81164 0.74474 0.79019 0.0
H255 H 0.80607 0.81908 0.81006 0.0
H256 H 0.77428 0.79041 0.84118 0.0
H257 H 0.71251 0.73186 0.85963 0.0
C258 C 0.02436 0.91025 0.10278 0.0
C259 C 0.04648 0.91818 0.08592 0.0
C260 C 0.02581 0.87984 0.11468 0.0
C261 C 0.04949 0.85675 0.10991 0.0
C262 C 0.07336 0.86637 0.0934 0.0
C263 C 0.07171 0.89648 0.08152 0.0
C264 C 0.04975 0.82188 0.12138 0.0
C265 C 0.01785 0.7997 0.13445 0.0
C266 C 0.0162 0.76188 0.14435 0.0
C267 C 0.99724 0.75217 0.16175 0.0
C268 C 0.99412 0.71617 0.17125 0.0
C269 C 0.00936 0.68867 0.16343 0.0
H270 H 0.04393 0.73925 0.1228 0.0
C271 C 0.02762 0.69801 0.14589 0.0
C272 C 0.03093 0.73407 0.13645 0.0
H273 H 0.03858 0.67693 0.13928 0.0
H274 H 0.00489 0.92667 0.10661 0.0
H275 H 0.00819 0.87458 0.12748 0.0
H276 H 0.09231 0.84954 0.08942 0.0
H277 H 0.08944 0.90201 0.06869 0.0
H278 H 0.07634 0.81273 0.11825 0.0
H279 H 0.99157 0.80884 0.13804 0.0
H280 H 0.98518 0.77274 0.1681 0.0
H281 H 0.98028 0.71024 0.18479 0.0
C282 C 0.14781 0.04832 0.40941 0.0
C283 C 0.11067 0.00857 0.40239 0.0
C284 C 0.18212 0.04786 0.42059 0.0
C285 C 0.18 0.00759 0.42488 0.0
C286 C 0.14409 0.96823 0.41724 0.0
C287 C 0.10957 0.96861 0.40625 0.0
C288 C 0.21435 0.00503 0.43722 0.0
C289 C 0.23566 0.03353 0.45088 0.0
C290 C 0.26728 0.02905 0.4641 0.0
C291 C 0.29956 0.06647 0.47393 0.0
C292 C 0.32969 0.06359 0.48655 0.0
C293 C 0.32791 0.02304 0.48973 0.0
H294 H 0.23941 0.95817 0.46081 0.0
C295 C 0.29495 0.98539 0.48015 0.0
C296 C 0.26484 0.98824 0.46756 0.0
H297 H 0.29282 0.95368 0.48219 0.0
H298 H 0.14981 0.07968 0.40659 0.0
H299 H 0.21019 0.07904 0.42577 0.0
H300 H 0.14197 0.93684 0.42016 0.0
H301 H 0.0817 0.93744 0.40094 0.0
H302 H 0.22021 0.97728 0.43537 0.0
H303 H 0.22967 0.06126 0.45264 0.0
H304 H 0.30174 0.09816 0.47176 0.0
H305 H 0.35417 0.0931 0.49391 0.0
C306 C 0.10349 0.16893 0.75708 0.0
C307 C 0.07882 0.12269 0.75927 0.0
C308 C 0.13218 0.19668 0.77078 0.0
C309 C 0.1373 0.17879 0.78697 0.0
C310 C 0.1105 0.13273 0.78957 0.0
C311 C 0.08164 0.10487 0.77583 0.0
C312 C 0.17089 0.20733 0.80115 0.0
C313 C 0.21134 0.24525 0.79724 0.0
C314 C 0.24738 0.27434 0.81067 0.0
C315 C 0.29293 0.30543 0.8045 0.0
C316 C 0.32778 0.33461 0.81635 0.0
C317 C 0.31792 0.33366 0.83473 0.0
H318 H 0.20248 0.25053 0.83439 0.0
C319 C 0.27232 0.30258 0.84098 0.0
C320 C 0.23735 0.27323 0.82909 0.0
H321 H 0.26364 0.30091 0.85508 0.0
H322 H 0.10151 0.1838 0.7446 0.0
H323 H 0.15059 0.2321 0.76854 0.0
H324 H 0.11321 0.11813 0.80201 0.0
H325 H 0.06285 0.06938 0.77797 0.0
H326 H 0.16367 0.19506 0.81482 0.0
H327 H 0.21997 0.25473 0.78328 0.0
H328 H 0.30163 0.30738 0.79038 0.0
H329 H 0.3622 0.35864 0.81101 0.0
C330 C 0.85979 0.97091 0.67821 0.0
C331 C 0.8937 0.00943 0.68708 0.0
C332 C 0.82801 0.97245 0.66606 0.0
C333 C 0.82894 0.0126 0.66262 0.0
C334 C 0.8625 0.05099 0.67166 0.0
C335 C 0.89447 0.04947 0.68378 0.0
C336 C 0.79735 0.01631 0.64913 0.0
C337 C 0.75679 0.98141 0.64303 0.0
C338 C 0.72604 0.98457 0.62903 0.0
C339 C 0.69425 0.94595 0.61971 0.0
C340 C 0.66378 0.94685 0.60675 0.0
C341 C 0.66416 0.98645 0.60286 0.0
H342 H 0.74926 0.05458 0.63233 0.0
C343 C 0.69602 0.0252 0.61214 0.0
C344 C 0.72651 0.02431 0.62513 0.0
H345 H 0.69645 0.05603 0.60973 0.0
H346 H 0.85847 0.93956 0.68028 0.0
H347 H 0.804 0.94225 0.65907 0.0
H348 H 0.86431 0.08243 0.66922 0.0
H349 H 0.92023 0.07981 0.69034 0.0
H350 H 0.80858 0.04924 0.64403 0.0
H351 H 0.74544 0.94852 0.64819 0.0
H352 H 0.69299 0.91485 0.62245 0.0
H353 H 0.63994 0.91649 0.59974 0.0
C354 C 0.89963 0.88073 0.01046 0.0
C355 C 0.89088 0.90937 0.02094 0.0
C356 C 0.86429 0.84912 0.9994 0.0
C357 C 0.81888 0.84483 0.99876 0.0
C358 C 0.81021 0.87361 0.00919 0.0
C359 C 0.84577 0.90552 0.02018 0.0
C360 C 0.78045 0.81207 0.9869 0.0
C361 C 0.77979 0.77573 0.98031 0.0
C362 C 0.74256 0.74307 0.96805 0.0
C363 C 0.74031 0.70219 0.96535 0.0
C364 C 0.70693 0.67072 0.95368 0.0
C365 C 0.67492 0.67938 0.94437 0.0
H366 H 0.71193 0.78337 0.95976 0.0
C367 C 0.67711 0.72028 0.94696 0.0
C368 C 0.71072 0.75193 0.95858 0.0
H369 H 0.65334 0.72812 0.93975 0.0
H370 H 0.93417 0.88316 0.01052 0.0
H371 H 0.87339 0.82899 0.99114 0.0
H372 H 0.77578 0.87142 0.00885 0.0
H373 H 0.83789 0.92719 0.02803 0.0
H374 H 0.7512 0.81772 0.98408 0.0
H375 H 0.80709 0.76838 0.98444 0.0
H376 H 0.76445 0.69443 0.97235 0.0
H377 H 0.70579 0.63931 0.95212 0.0
C378 C 0.96845 0.88675 0.3213 0.0
C379 C 0.94737 0.87404 0.33833 0.0
C380 C 0.96609 0.85493 0.30921 0.0
C381 C 0.94249 0.80971 0.31397 0.0
C382 C 0.91937 0.79706 0.33062 0.0
C383 C 0.92197 0.82877 0.34269 0.0
C384 C 0.9419 0.77461 0.3024 0.0
C385 C 0.97378 0.78225 0.28933 0.0
C386 C 0.97576 0.74597 0.27957 0.0
C387 C 0.99467 0.75373 0.26216 0.0
C388 C 0.99847 0.72076 0.25287 0.0
C389 C 0.98402 0.6794 0.26091 0.0
H390 H 0.94873 0.69801 0.30132 0.0
C391 C 0.96569 0.6719 0.27844 0.0
C392 C 0.96167 0.70474 0.28767 0.0
H393 H 0.95533 0.64091 0.28523 0.0
H394 H 0.98803 0.92138 0.3175 0.0
H395 H 0.9831 0.86608 0.29631 0.0
H396 H 0.90048 0.76252 0.3346 0.0
H397 H 0.905 0.81778 0.35565 0.0
H398 H 0.91538 0.74062 0.30556 0.0
H399 H 1.0 0.81594 0.28571 0.0
H400 H 0.00626 0.78532 0.25566 0.0
H401 H 0.01234 0.72757 0.23933 0.0
C402 C 0.10223 0.96728 0.68091 0.0
C403 C 0.1072 0.00634 0.68845 0.0
C404 C 0.13668 0.969 0.66919 0.0
C405 C 0.17689 0.00987 0.6648 0.0
C406 C 0.18279 0.0486 0.67291 0.0
C407 C 0.14817 0.04696 0.68449 0.0
C408 C 0.21355 0.01338 0.65198 0.0
C409 C 0.20354 0.98538 0.63807 0.0
C410 C 0.23944 0.98883 0.6248 0.0
C411 C 0.2291 0.95145 0.61444 0.0
C412 C 0.26195 0.9528 0.60201 0.0
C413 C 0.3059 0.99175 0.59957 0.0
H414 H 0.29186 0.05834 0.62918 0.0
C415 C 0.31578 0.02958 0.60956 0.0
C416 C 0.28292 0.02826 0.62199 0.0
H417 H 0.34939 0.06008 0.60805 0.0
H418 H 0.07126 0.93541 0.68378 0.0
H419 H 0.13174 0.93826 0.66369 0.0
H420 H 0.21374 0.08042 0.66994 0.0
H421 H 0.15331 0.07764 0.69018 0.0
H422 H 0.24934 0.04089 0.65386 0.0
H423 H 0.1674 0.95825 0.6363 0.0
H424 H 0.19567 0.92083 0.61611 0.0
H425 H 0.2529 0.92328 0.59431 0.0
C426 C 0.14891 0.10793 0.01601 0.0
C427 C 0.11134 0.11118 0.02375 0.0
C428 C 0.18352 0.14283 0.00576 0.0
C429 C 0.18131 0.18175 0.00318 0.0
C430 C 0.14468 0.18547 0.01141 0.0
C431 C 0.10983 0.15047 0.02144 0.0
C432 C 0.21675 0.21936 0.99222 0.0
C433 C 0.23899 0.21419 0.97798 0.0
C434 C 0.27157 0.25172 0.96629 0.0
C435 C 0.27581 0.24362 0.94815 0.0
C436 C 0.30526 0.2784 0.93668 0.0
C437 C 0.33157 0.32202 0.94318 0.0
H438 H 0.29756 0.30251 0.98693 0.0
C439 C 0.32816 0.32991 0.96146 0.0
C440 C 0.29858 0.2952 0.97289 0.0
H441 H 0.34891 0.36289 0.96702 0.0
H442 H 0.15119 0.07818 0.01762 0.0
H443 H 0.21206 0.13936 1.00002 0.0
H444 H 0.14246 0.21526 0.00978 0.0
H445 H 0.08162 0.15423 0.02736 0.0
H446 H 0.22167 0.2519 0.99517 0.0
H447 H 0.23041 0.18107 0.97392 0.0
H448 H 0.25562 0.21039 0.94275 0.0
H449 H 0.30684 0.27117 0.92266 0.0
C450 C 0.05929 0.17288 0.33897 0.0
C451 C 0.03687 0.12704 0.3358 0.0
C452 C 0.0573 0.20131 0.32626 0.0
C453 C 0.03306 0.18461 0.30995 0.0
C454 C 0.01168 0.13891 0.3066 0.0
C455 C 0.01375 0.11041 0.31933 0.0
C456 C 0.02619 0.21326 0.2969 0.0
C457 C 0.05482 0.2576 0.29605 0.0
C458 C 0.04583 0.28712 0.2843 0.0
C459 C 0.08395 0.32927 0.28006 0.0
C460 C 0.07672 0.35908 0.26993 0.0
C461 C 0.03098 0.34763 0.26394 0.0
H462 H 0.96939 0.2439 0.28165 0.0
C463 C 0.99271 0.30547 0.26819 0.0
C464 C 0.99998 0.27552 0.27826 0.0
H465 H 0.95708 0.29558 0.2637 0.0
H466 H 0.07715 0.18678 0.35156 0.0
H467 H 0.07312 0.23598 0.32969 0.0
H468 H 0.99249 0.12505 0.29422 0.0
H469 H 0.99588 0.07523 0.31652 0.0
H470 H 0.9966 0.19698 0.28763 0.0
H471 H 0.08694 0.27333 0.3041 0.0
H472 H 0.11951 0.33934 0.28471 0.0
H473 H 0.10686 0.39152 0.26712 0.0
loop_
_geom_bond_atom_site_label_1
_geom_bond_atom_site_label_2
_geom_bond_distance
_geom_bond_site_symmetry_2
_ccdc_geom_bond_type
O0 Cd1 2.223 1_455 S
O0 C8 1.315 . S
Cd1 O0 2.223 1_655 S
Cd1 O4 2.297 . S
Cd1 O5 2.439 . S
Cd1 O11 2.240 1_545 S
Cd2 O3 2.240 1_565 S
Cd2 O10 2.223 1_455 S
Cd2 O12 2.297 . S
Cd2 O13 2.439 . S
O3 Cd2 2.240 1_545 S
O3 C8 1.279 . S
O4 Cd1 2.297 . S
O4 C6 1.247 . S
O5 Cd1 2.439 . S
O5 C6 1.208 . S
C6 O4 1.247 . S
C6 O5 1.208 . S
C7 O12 1.247 . S
C7 O13 1.208 . S
C8 O0 1.315 . S
C8 O3 1.279 . S
C9 O10 1.315 . S
C9 O11 1.279 . S
O10 Cd2 2.223 1_655 S
O10 C9 1.315 . S
O11 Cd1 2.240 1_565 S
O11 C9 1.279 . S
O12 Cd2 2.297 . S
O12 C7 1.247 . S
O13 Cd2 2.439 . S
O13 C7 1.208 . S
O14 Cd15 2.223 1_655 S
O14 C22 1.315 . S
Cd15 O14 2.223 1_455 S
Cd15 O18 2.297 . S
Cd15 O19 2.439 . S
Cd15 O25 2.240 . S
Cd16 O17 2.240 . S
Cd16 O24 2.223 1_655 S
Cd16 O26 2.297 . S
Cd16 O27 2.439 . S
O17 Cd16 2.240 . S
O17 C22 1.279 1_565 S
O18 Cd15 2.297 . S
O18 C20 1.247 . S
O19 Cd15 2.439 . S
O19 C20 1.208 . S
C20 O18 1.247 . S
C20 O19 1.208 . S
C21 O26 1.247 . S
C21 O27 1.208 . S
C22 O14 1.315 . S
C22 O17 1.279 1_545 S
C23 O24 1.315 . S
C23 O25 1.279 1_565 S
O24 Cd16 2.223 1_455 S
O24 C23 1.315 . S
O25 Cd15 2.240 . S
O25 C23 1.279 1_545 S
O26 Cd16 2.297 . S
O26 C21 1.247 . S
O27 Cd16 2.439 . S
O27 C21 1.208 . S
O28 Cd29 2.223 . S
O28 C36 1.315 . S
Cd29 O28 2.223 . S
Cd29 O32 2.297 . S
Cd29 O33 2.439 . S
Cd29 O39 2.240 1_655 S
Cd30 O31 2.240 1_455 S
Cd30 O38 2.223 . S
Cd30 O40 2.297 . S
Cd30 O41 2.439 . S
O31 Cd30 2.240 1_655 S
O31 C36 1.279 1_545 S
O32 Cd29 2.297 . S
O32 C34 1.247 . S
O33 Cd29 2.439 . S
O33 C34 1.208 . S
C34 O32 1.247 . S
C34 O33 1.208 . S
C35 O40 1.247 . S
C35 O41 1.208 . S
C36 O28 1.315 . S
C36 O31 1.279 1_565 S
C37 O38 1.315 . S
C37 O39 1.279 1_545 S
O38 Cd30 2.223 . S
O38 C37 1.315 . S
O39 Cd29 2.240 1_455 S
O39 C37 1.279 1_565 S
O40 Cd30 2.297 . S
O40 C35 1.247 . S
O41 Cd30 2.439 . S
O41 C35 1.208 . S
H42 C61 0.949 . S
H43 C62 0.950 . S
H44 C64 0.950 . S
H45 C65 0.950 . S
H46 C67 0.950 . S
H47 C70 0.950 . S
H48 C71 0.950 . S
H49 C73 0.951 . S
H50 C74 0.949 . S
H51 C76 0.949 . S
H52 C77 0.950 . S
H53 C79 0.950 . S
H54 C80 0.950 . S
H55 C82 0.950 . S
H56 C85 0.950 . S
H57 C86 0.950 . S
H58 C88 0.951 . S
H59 C89 0.949 . S
C60 C61 1.376 . S
C60 C65 1.386 1_455 S
C60 C66 1.483 . S
C61 H42 0.949 . S
C61 C60 1.376 . S
C61 C62 1.397 . S
C62 H43 0.950 . S
C62 C61 1.397 . S
C62 C63 1.391 . S
C63 C62 1.391 . S
C63 C64 1.405 1_455 S
C64 H44 0.950 . S
C64 C63 1.405 1_655 S
C64 C65 1.367 . S
C65 H45 0.950 . S
C65 C60 1.386 1_655 S
C65 C64 1.367 . S
C66 C60 1.483 . S
C66 C67 1.382 . S
C66 C68 1.403 1_455 S
C67 H46 0.950 . S
C67 C66 1.382 . S
C67 C83 1.411 . S
C68 C66 1.403 1_655 S
C68 C69 1.489 . S
C68 C82 1.411 . S
C69 C68 1.489 . S
C69 C70 1.383 1_655 S
C69 C74 1.382 . S
C70 H47 0.950 . S
C70 C69 1.383 1_455 S
C70 C71 1.395 . S
C71 H48 0.950 . S
C71 C70 1.395 . S
C71 C72 1.288 1_455 S
C72 C71 1.288 1_655 S
C72 C73 1.392 . S
C73 H49 0.951 . S
C73 C72 1.392 . S
C73 C74 1.392 . S
C74 H50 0.949 . S
C74 C69 1.382 . S
C74 C73 1.392 . S
C75 C76 1.376 . S
C75 C80 1.386 1_655 S
C75 C81 1.483 . S
C76 H51 0.949 . S
C76 C75 1.376 . S
C76 C77 1.397 . S
C77 H52 0.950 . S
C77 C76 1.397 . S
C77 C78 1.391 . S
C78 C77 1.391 . S
C78 C79 1.405 1_655 S
C79 H53 0.950 . S
C79 C78 1.405 1_455 S
C79 C80 1.367 . S
C80 H54 0.950 . S
C80 C75 1.386 1_455 S
C80 C79 1.367 . S
C81 C75 1.483 . S
C81 C82 1.382 . S
C81 C83 1.403 1_655 S
C82 H55 0.950 . S
C82 C68 1.411 . S
C82 C81 1.382 . S
C83 C67 1.411 . S
C83 C81 1.403 1_455 S
C83 C84 1.489 . S
C84 C83 1.489 . S
C84 C85 1.383 1_455 S
C84 C89 1.382 . S
C85 H56 0.950 . S
C85 C84 1.383 1_655 S
C85 C86 1.395 . S
C86 H57 0.950 . S
C86 C85 1.395 . S
C86 C87 1.288 1_655 S
C87 C86 1.288 1_455 S
C87 C88 1.392 . S
C88 H58 0.951 . S
C88 C87 1.392 . S
C88 C89 1.392 . S
C89 H59 0.949 . S
C89 C84 1.382 . S
C89 C88 1.392 . S
H90 C109 0.949 . S
H91 C110 0.950 . S
H92 C112 0.950 . S
H93 C113 0.950 . S
H94 C115 0.950 . S
H95 C118 0.950 . S
H96 C119 0.950 . S
H97 C121 0.951 . S
H98 C122 0.949 . S
H99 C124 0.949 . S
H100 C125 0.950 . S
H101 C127 0.950 . S
H102 C128 0.950 . S
H103 C130 0.950 . S
H104 C133 0.950 . S
H105 C134 0.950 . S
H106 C136 0.951 . S
H107 C137 0.949 . S
C108 C109 1.376 . S
C108 C113 1.386 1_545 S
C108 C114 1.483 . S
C109 H90 0.949 . S
C109 C108 1.376 . S
C109 C110 1.397 . S
C110 H91 0.950 . S
C110 C109 1.397 . S
C110 C111 1.391 . S
C111 C110 1.391 . S
C111 C112 1.405 1_545 S
C112 H92 0.950 . S
C112 C111 1.405 1_565 S
C112 C113 1.367 . S
C113 H93 0.950 . S
C113 C108 1.386 1_565 S
C113 C112 1.367 . S
C114 C108 1.483 . S
C114 C115 1.382 . S
C114 C116 1.403 1_545 S
C115 H94 0.950 . S
C115 C114 1.382 . S
C115 C131 1.411 . S
C116 C114 1.403 1_565 S
C116 C117 1.489 . S
C116 C130 1.411 . S
C117 C116 1.489 . S
C117 C118 1.383 1_565 S
C117 C122 1.382 . S
C118 H95 0.950 . S
C118 C117 1.383 1_545 S
C118 C119 1.395 . S
C119 H96 0.950 . S
C119 C118 1.395 . S
C119 C120 1.288 1_545 S
C120 C119 1.288 1_565 S
C120 C121 1.392 . S
C121 H97 0.951 . S
C121 C120 1.392 . S
C121 C122 1.392 . S
C122 H98 0.949 . S
C122 C117 1.382 . S
C122 C121 1.392 . S
C123 C124 1.376 . S
C123 C128 1.386 1_565 S
C123 C129 1.483 . S
C124 H99 0.949 . S
C124 C123 1.376 . S
C124 C125 1.397 . S
C125 H100 0.950 . S
C125 C124 1.397 . S
C125 C126 1.391 . S
C126 C125 1.391 . S
C126 C127 1.405 1_565 S
C127 H101 0.950 . S
C127 C126 1.405 1_545 S
C127 C128 1.367 . S
C128 H102 0.950 . S
C128 C123 1.386 1_545 S
C128 C127 1.367 . S
C129 C123 1.483 . S
C129 C130 1.382 . S
C129 C131 1.403 1_565 S
C130 H103 0.950 . S
C130 C116 1.411 . S
C130 C129 1.382 . S
C131 C115 1.411 . S
C131 C129 1.403 1_545 S
C131 C132 1.489 . S
C132 C131 1.489 . S
C132 C133 1.383 1_545 S
C132 C137 1.382 . S
C133 H104 0.950 . S
C133 C132 1.383 1_565 S
C133 C134 1.395 . S
C134 H105 0.950 . S
C134 C133 1.395 . S
C134 C135 1.288 1_565 S
C135 C134 1.288 1_545 S
C135 C136 1.392 . S
C136 H106 0.951 . S
C136 C135 1.392 . S
C136 C137 1.392 . S
C137 H107 0.949 . S
C137 C132 1.382 . S
C137 C136 1.392 . S
H138 C157 0.949 . S
H139 C158 0.950 . S
H140 C160 0.950 . S
H141 C161 0.950 . S
H142 C163 0.950 . S
H143 C166 0.950 . S
H144 C167 0.950 . S
H145 C169 0.951 . S
H146 C170 0.949 . S
H147 C172 0.949 . S
H148 C173 0.950 . S
H149 C175 0.950 . S
H150 C176 0.950 . S
H151 C178 0.950 . S
H152 C181 0.950 . S
H153 C182 0.950 . S
H154 C184 0.951 . S
H155 C185 0.949 . S
C156 C157 1.376 . S
C156 C161 1.386 . S
C156 C162 1.483 . S
C157 H138 0.949 . S
C157 C156 1.376 . S
C157 C158 1.397 . S
C158 H139 0.950 . S
C158 C157 1.397 . S
C158 C159 1.391 . S
C159 C158 1.391 . S
C159 C160 1.405 . S
C160 H140 0.950 . S
C160 C159 1.405 . S
C160 C161 1.367 . S
C161 H141 0.950 . S
C161 C156 1.386 . S
C161 C160 1.367 . S
C162 C156 1.483 . S
C162 C163 1.382 . S
C162 C164 1.403 . S
C163 H142 0.950 . S
C163 C162 1.382 . S
C163 C179 1.411 . S
C164 C162 1.403 . S
C164 C165 1.489 . S
C164 C178 1.411 . S
C165 C164 1.489 . S
C165 C166 1.383 . S
C165 C170 1.382 . S
C166 H143 0.950 . S
C166 C165 1.383 . S
C166 C167 1.395 . S
C167 H144 0.950 . S
C167 C166 1.395 . S
C167 C168 1.288 . S
C168 C167 1.288 . S
C168 C169 1.392 . S
C169 H145 0.951 . S
C169 C168 1.392 . S
C169 C170 1.392 . S
C170 H146 0.949 . S
C170 C165 1.382 . S
C170 C169 1.392 . S
C171 C172 1.376 . S
C171 C176 1.386 . S
C171 C177 1.483 . S
C172 H147 0.949 . S
C172 C171 1.376 . S
C172 C173 1.397 . S
C173 H148 0.950 . S
C173 C172 1.397 . S
C173 C174 1.391 . S
C174 C173 1.391 . S
C174 C175 1.405 . S
C175 H149 0.950 . S
C175 C174 1.405 . S
C175 C176 1.367 . S
C176 H150 0.950 . S
C176 C171 1.386 . S
C176 C175 1.367 . S
C177 C171 1.483 . S
C177 C178 1.382 . S
C177 C179 1.403 . S
C178 H151 0.950 . S
C178 C164 1.411 . S
C178 C177 1.382 . S
C179 C163 1.411 . S
C179 C177 1.403 . S
C179 C180 1.489 . S
C180 C179 1.489 . S
C180 C181 1.383 . S
C180 C185 1.382 . S
C181 H152 0.950 . S
C181 C180 1.383 . S
C181 C182 1.395 . S
C182 H153 0.950 . S
C182 C181 1.395 . S
C182 C183 1.288 . S
C183 C182 1.288 . S
C183 C184 1.392 . S
C184 H154 0.951 . S
C184 C183 1.392 . S
C184 C185 1.392 . S
C185 H155 0.949 . S
C185 C180 1.382 . S
C185 C184 1.392 . S
C186 C187 1.386 . S
C186 C188 1.383 . S
C186 H202 0.951 . S
C187 C186 1.386 . S
C187 C191 1.383 1_455 S
C188 C186 1.383 . S
C188 C189 1.402 . S
C188 H203 0.951 . S
C189 C188 1.402 . S
C189 C190 1.375 1_455 S
C189 C192 1.481 . S
C190 C189 1.375 1_655 S
C190 C191 1.367 . S
C190 H204 0.951 . S
C191 C187 1.383 1_655 S
C191 C190 1.367 . S
C191 H205 0.950 . S
C192 C189 1.481 . S
C192 C193 1.297 . S
C192 H206 0.959 . S
C193 C192 1.297 . S
C193 C194 1.479 . S
C193 H207 0.950 . S
C194 C193 1.479 . S
C194 C195 1.375 . S
C194 C200 1.404 . S
C195 C194 1.375 . S
C195 C196 1.369 . S
C195 H208 0.950 . S
C196 C195 1.369 . S
C196 C197 1.392 . S
C196 H209 0.951 . S
C197 C196 1.392 . S
C197 C199 1.384 . S
H198 C200 0.949 . S
C199 C197 1.384 . S
C199 C200 1.385 . S
C199 H201 0.950 1_455 S
C200 C194 1.404 . S
C200 H198 0.949 . S
C200 C199 1.385 . S
H201 C199 0.950 1_655 S
H202 C186 0.951 . S
H203 C188 0.951 . S
H204 C190 0.951 . S
H205 C191 0.950 . S
H206 C192 0.959 . S
H207 C193 0.950 . S
H208 C195 0.950 . S
H209 C196 0.951 . S
C210 C211 1.386 1_565 S
C210 C212 1.383 . S
C210 H226 0.951 . S
C211 C210 1.386 1_545 S
C211 C215 1.383 . S
C212 C210 1.383 . S
C212 C213 1.402 1_565 S
C212 H227 0.951 . S
C213 C212 1.402 1_545 S
C213 C214 1.375 . S
C213 C216 1.481 . S
C214 C213 1.375 . S
C214 C215 1.367 . S
C214 H228 0.951 . S
C215 C211 1.383 . S
C215 C214 1.367 . S
C215 H229 0.950 . S
C216 C213 1.481 . S
C216 C217 1.297 1_545 S
C216 H230 0.950 . S
C217 C216 1.297 1_565 S
C217 C218 1.479 . S
C217 H231 0.950 . S
C218 C217 1.479 . S
C218 C219 1.375 . S
C218 C224 1.404 1_565 S
C219 C218 1.375 . S
C219 C220 1.369 . S
C219 H232 0.950 . S
C220 C219 1.369 . S
C220 C221 1.368 1_565 S
C220 H233 0.951 . S
C221 C220 1.368 1_545 S
C221 C223 1.397 . S
H222 C224 0.949 . S
C223 C221 1.397 . S
C223 C224 1.385 . S
C223 H225 0.950 . S
C224 C218 1.404 1_545 S
C224 H222 0.949 . S
C224 C223 1.385 . S
H225 C223 0.950 . S
H226 C210 0.951 . S
H227 C212 0.951 . S
H228 C214 0.951 . S
H229 C215 0.950 . S
H230 C216 0.950 . S
H231 C217 0.950 . S
H232 C219 0.950 . S
H233 C220 0.951 . S
C234 C235 1.386 . S
C234 C236 1.383 . S
C234 H250 0.951 . S
C235 C234 1.386 . S
C235 C239 1.383 . S
C236 C234 1.383 . S
C236 C237 1.402 . S
C236 H251 0.951 . S
C237 C236 1.402 . S
C237 C238 1.375 . S
C237 C240 1.481 . S
C238 C237 1.375 . S
C238 C239 1.367 . S
C238 H252 0.951 . S
C239 C235 1.383 . S
C239 C238 1.367 . S
C239 H253 0.950 . S
C240 C237 1.481 . S
C240 C241 1.297 . S
C240 H254 0.950 . S
C241 C240 1.297 . S
C241 C242 1.479 . S
C241 H255 0.950 . S
C242 C241 1.479 . S
C242 C243 1.375 . S
C242 C248 1.404 . S
C243 C242 1.375 . S
C243 C244 1.369 . S
C243 H256 0.950 . S
C244 C243 1.369 . S
C244 C245 1.392 . S
C244 H257 0.951 . S
C245 C244 1.392 . S
C245 C247 1.384 . S
H246 C248 0.949 . S
C247 C245 1.384 . S
C247 C248 1.385 . S
C247 H249 0.950 . S
C248 C242 1.404 . S
C248 H246 0.949 . S
C248 C247 1.385 . S
H249 C247 0.950 . S
H250 C234 0.951 . S
H251 C236 0.951 . S
H252 C238 0.951 . S
H253 C239 0.950 . S
H254 C240 0.950 . S
H255 C241 0.950 . S
H256 C243 0.950 . S
H257 C244 0.951 . S
C258 C259 1.386 . S
C258 C260 1.383 . S
C258 H274 0.951 . S
C259 C258 1.386 . S
C259 C263 1.383 . S
C260 C258 1.383 . S
C260 C261 1.402 . S
C260 H275 0.951 . S
C261 C260 1.402 . S
C261 C262 1.375 . S
C261 C264 1.481 . S
C262 C261 1.375 . S
C262 C263 1.367 . S
C262 H276 0.951 . S
C263 C259 1.383 . S
C263 C262 1.367 . S
C263 H277 0.950 . S
C264 C261 1.481 . S
C264 C265 1.297 . S
C264 H278 0.950 . S
C265 C264 1.297 . S
C265 C266 1.479 . S
C265 H279 0.950 . S
C266 C265 1.479 . S
C266 C267 1.375 . S
C266 C272 1.404 . S
C267 C266 1.375 . S
C267 C268 1.369 . S
C267 H280 0.950 . S
C268 C267 1.369 . S
C268 C269 1.392 . S
C268 H281 0.952 . S
C269 C268 1.392 . S
C269 C271 1.384 . S
H270 C272 0.949 . S
C271 C269 1.384 . S
C271 C272 1.385 . S
C271 H273 0.950 . S
C272 C266 1.404 . S
C272 H270 0.949 . S
C272 C271 1.385 . S
H273 C271 0.950 . S
H274 C258 0.951 . S
H275 C260 0.951 . S
H276 C262 0.951 . S
H277 C263 0.950 . S
H278 C264 0.950 . S
H279 C265 0.950 . S
H280 C267 0.950 . S
H281 C268 0.952 . S
C282 C283 1.386 1_545 S
C282 C284 1.383 . S
C282 H298 0.951 . S
C283 C282 1.386 1_565 S
C283 C287 1.383 . S
C284 C282 1.383 . S
C284 C285 1.402 1_545 S
C284 H299 0.951 . S
C285 C284 1.402 1_565 S
C285 C286 1.375 . S
C285 C288 1.481 . S
C286 C285 1.375 . S
C286 C287 1.367 . S
C286 H300 0.951 . S
C287 C283 1.383 . S
C287 C286 1.367 . S
C287 H301 0.950 . S
C288 C285 1.481 . S
C288 C289 1.297 1_565 S
C288 H302 0.950 . S
C289 C288 1.297 1_545 S
C289 C290 1.479 . S
C289 H303 0.950 . S
C290 C289 1.479 . S
C290 C291 1.375 . S
C290 C296 1.404 1_545 S
C291 C290 1.375 . S
C291 C292 1.369 . S
C291 H304 0.950 . S
C292 C291 1.369 . S
C292 C293 1.392 . S
C292 H305 0.951 . S
C293 C292 1.392 . S
C293 C295 1.384 1_545 S
H294 C296 0.949 . S
C295 C293 1.384 1_565 S
C295 C296 1.385 . S
C295 H297 0.950 . S
C296 C290 1.404 1_565 S
C296 H294 0.949 . S
C296 C295 1.385 . S
H297 C295 0.950 . S
H298 C282 0.951 . S
H299 C284 0.951 . S
H300 C286 0.951 . S
H301 C287 0.950 . S
H302 C288 0.950 . S
H303 C289 0.950 . S
H304 C291 0.950 . S
H305 C292 0.951 . S
C306 C307 1.386 . S
C306 C308 1.383 . S
C306 H322 0.951 . S
C307 C306 1.386 . S
C307 C311 1.383 . S
C308 C306 1.383 . S
C308 C309 1.402 . S
C308 H323 0.951 . S
C309 C308 1.402 . S
C309 C310 1.375 . S
C309 C312 1.481 . S
C310 C309 1.375 . S
C310 C311 1.367 . S
C310 H324 0.951 . S
C311 C307 1.383 . S
C311 C310 1.367 . S
C311 H325 0.950 . S
C312 C309 1.481 . S
C312 C313 1.297 . S
C312 H326 0.950 . S
C313 C312 1.297 . S
C313 C314 1.479 . S
C313 H327 0.950 . S
C314 C313 1.479 . S
C314 C315 1.375 . S
C314 C320 1.404 . S
C315 C314 1.375 . S
C315 C316 1.369 . S
C315 H328 0.950 . S
C316 C315 1.369 . S
C316 C317 1.392 . S
C316 H329 0.951 . S
C317 C316 1.392 . S
C317 C319 1.384 . S
H318 C320 0.949 . S
C319 C317 1.384 . S
C319 C320 1.385 . S
C319 H321 0.950 . S
C320 C314 1.404 . S
C320 H318 0.949 . S
C320 C319 1.385 . S
H321 C319 0.950 . S
H322 C306 0.951 . S
H323 C308 0.951 . S
H324 C310 0.951 . S
H325 C311 0.950 . S
H326 C312 0.950 . S
H327 C313 0.950 . S
H328 C315 0.950 . S
H329 C316 0.951 . S
C330 C331 1.386 . S
C330 C332 1.383 . S
C330 H346 0.951 . S
C331 C330 1.386 . S
C331 C335 1.383 1_565 S
C332 C330 1.383 . S
C332 C333 1.402 . S
C332 H347 0.951 . S
C333 C332 1.402 . S
C333 C334 1.375 1_565 S
C333 C336 1.481 1_565 S
C334 C333 1.375 1_545 S
C334 C335 1.367 . S
C334 H348 0.951 . S
C335 C331 1.383 1_545 S
C335 C334 1.367 . S
C335 H349 0.950 . S
C336 C333 1.481 1_545 S
C336 C337 1.297 1_545 S
C336 H350 0.950 . S
C337 C336 1.297 1_565 S
C337 C338 1.479 . S
C337 H351 0.950 . S
C338 C337 1.479 . S
C338 C339 1.375 . S
C338 C344 1.404 1_565 S
C339 C338 1.375 . S
C339 C340 1.369 . S
C339 H352 0.950 . S
C340 C339 1.369 . S
C340 C341 1.392 . S
C340 H353 0.951 . S
C341 C340 1.392 . S
C341 C343 1.384 1_565 S
H342 C344 0.949 . S
C343 C341 1.384 1_545 S
C343 C344 1.385 . S
C343 H345 0.950 . S
C344 C338 1.404 1_545 S
C344 H342 0.949 . S
C344 C343 1.385 . S
H345 C343 0.950 . S
H346 C330 0.951 . S
H347 C332 0.951 . S
H348 C334 0.951 . S
H349 C335 0.950 . S
H350 C336 0.950 . S
H351 C337 0.950 . S
H352 C339 0.950 . S
H353 C340 0.951 . S
C354 C355 1.386 . S
C354 C356 1.383 1_554 S
C354 H370 0.951 . S
C355 C354 1.386 . S
C355 C359 1.383 . S
C356 C354 1.383 1_556 S
C356 C357 1.402 . S
C356 H371 0.951 . S
C357 C356 1.402 . S
C357 C358 1.375 . S
C357 C360 1.481 . S
C358 C357 1.375 . S
C358 C359 1.367 1_556 S
C358 H372 0.951 . S
C359 C355 1.383 . S
C359 C358 1.367 1_554 S
C359 H373 0.950 . S
C360 C357 1.481 . S
C360 C361 1.297 . S
C360 H374 0.950 . S
C361 C360 1.297 . S
C361 C362 1.479 . S
C361 H375 0.950 . S
C362 C361 1.479 . S
C362 C363 1.375 . S
C362 C368 1.404 . S
C363 C362 1.375 . S
C363 C364 1.369 . S
C363 H376 0.950 . S
C364 C363 1.369 . S
C364 C365 1.392 . S
C364 H377 0.951 . S
C365 C364 1.392 . S
C365 C367 1.384 . S
H366 C368 0.949 . S
C367 C365 1.384 . S
C367 C368 1.385 . S
C367 H369 0.950 . S
C368 C362 1.404 . S
C368 H366 0.949 . S
C368 C367 1.385 . S
H369 C367 0.950 . S
H370 C354 0.951 . S
H371 C356 0.951 . S
H372 C358 0.951 . S
H373 C359 0.950 . S
H374 C360 0.950 . S
H375 C361 0.950 . S
H376 C363 0.950 . S
H377 C364 0.951 . S
C378 C379 1.386 . S
C378 C380 1.383 . S
C378 H394 0.951 . S
C379 C378 1.386 . S
C379 C383 1.383 1_455 S
C380 C378 1.383 . S
C380 C381 1.402 1_455 S
C380 H395 0.951 . S
C381 C380 1.402 1_655 S
C381 C382 1.375 . S
C381 C384 1.481 . S
C382 C381 1.375 . S
C382 C383 1.367 . S
C382 H396 0.951 . S
C383 C379 1.383 1_655 S
C383 C382 1.367 . S
C383 H397 0.950 . S
C384 C381 1.481 . S
C384 C385 1.297 1_655 S
C384 H398 0.950 . S
C385 C384 1.297 1_455 S
C385 C386 1.479 . S
C385 H399 0.950 . S
C386 C385 1.479 . S
C386 C387 1.375 . S
C386 C392 1.404 1_455 S
C387 C386 1.375 . S
C387 C388 1.369 . S
C387 H400 0.950 . S
C388 C387 1.369 . S
C388 C389 1.392 . S
C388 H401 0.951 . S
C389 C388 1.392 . S
C389 C391 1.384 1_455 S
H390 C392 0.949 . S
C391 C389 1.384 1_655 S
C391 C392 1.385 . S
C391 H393 0.950 . S
C392 C386 1.404 1_655 S
C392 H390 0.949 . S
C392 C391 1.385 . S
H393 C391 0.950 . S
H394 C378 0.951 . S
H395 C380 0.951 . S
H396 C382 0.951 . S
H397 C383 0.950 . S
H398 C384 0.950 . S
H399 C385 0.950 . S
H400 C387 0.950 . S
H401 C388 0.951 . S
C402 C403 1.386 1_565 S
C402 C404 1.383 . S
C402 H418 0.951 . S
C403 C402 1.386 1_545 S
C403 C407 1.383 . S
C404 C402 1.383 . S
C404 C405 1.402 1_565 S
C404 H419 0.951 . S
C405 C404 1.402 1_545 S
C405 C406 1.375 . S
C405 C408 1.481 . S
C406 C405 1.375 . S
C406 C407 1.367 . S
C406 H420 0.951 . S
C407 C403 1.383 . S
C407 C406 1.367 . S
C407 H421 0.950 . S
C408 C405 1.481 . S
C408 C409 1.297 . S
C408 H422 0.950 . S
C409 C408 1.297 . S
C409 C410 1.479 . S
C409 H423 0.950 1_545 S
C410 C409 1.479 . S
C410 C411 1.375 1_545 S
C410 C416 1.404 . S
C411 C410 1.375 1_565 S
C411 C412 1.369 . S
C411 H424 0.950 . S
C412 C411 1.369 . S
C412 C413 1.392 1_565 S
C412 H425 0.951 . S
C413 C412 1.392 1_545 S
C413 C415 1.384 . S
H414 C416 0.949 . S
C415 C413 1.384 . S
C415 C416 1.385 . S
C415 H417 0.950 . S
C416 C410 1.404 . S
C416 H414 0.949 . S
C416 C415 1.385 . S
H417 C415 0.950 . S
H418 C402 0.951 . S
H419 C404 0.951 . S
H420 C406 0.951 . S
H421 C407 0.950 . S
H422 C408 0.950 . S
H423 C409 0.950 1_565 S
H424 C411 0.950 . S
H425 C412 0.951 . S
C426 C427 1.386 1_556 S
C426 C428 1.383 . S
C426 H442 0.951 . S
C427 C426 1.386 1_554 S
C427 C431 1.383 . S
C428 C426 1.383 . S
C428 C429 1.402 . S
C428 H443 0.951 . S
C429 C428 1.402 . S
C429 C430 1.375 1_556 S
C429 C432 1.481 . S
C430 C429 1.375 1_554 S
C430 C431 1.367 . S
C430 H444 0.951 . S
C431 C427 1.383 . S
C431 C430 1.367 . S
C431 H445 0.950 . S
C432 C429 1.481 . S
C432 C433 1.297 . S
C432 H446 0.950 . S
C433 C432 1.297 . S
C433 C434 1.479 . S
C433 H447 0.950 . S
C434 C433 1.479 . S
C434 C435 1.375 . S
C434 C440 1.404 . S
C435 C434 1.375 . S
C435 C436 1.369 . S
C435 H448 0.950 . S
C436 C435 1.369 . S
C436 C437 1.392 . S
C436 H449 0.951 . S
C437 C436 1.392 . S
C437 C439 1.384 . S
H438 C440 0.949 . S
C439 C437 1.384 . S
C439 C440 1.385 . S
C439 H441 0.950 . S
C440 C434 1.404 . S
C440 H438 0.949 . S
C440 C439 1.385 . S
H441 C439 0.950 . S
H442 C426 0.951 . S
H443 C428 0.951 . S
H444 C430 0.951 . S
H445 C431 0.950 . S
H446 C432 0.950 . S
H447 C433 0.950 . S
H448 C435 0.950 . S
H449 C436 0.951 . S
C450 C451 1.386 1_455 S
C450 C452 1.383 . S
C450 H466 0.951 . S
C451 C450 1.386 1_655 S
C451 C455 1.383 . S
C452 C450 1.383 . S
C452 C453 1.402 1_455 S
C452 H467 0.951 . S
C453 C452 1.402 1_655 S
C453 C454 1.375 . S
C453 C456 1.481 . S
C454 C453 1.375 . S
C454 C455 1.367 . S
C454 H468 0.951 . S
C455 C451 1.383 . S
C455 C454 1.367 . S
C455 H469 0.950 . S
C456 C453 1.481 . S
C456 C457 1.297 1_655 S
C456 H470 0.950 . S
C457 C456 1.297 1_455 S
C457 C458 1.479 . S
C457 H471 0.950 . S
C458 C457 1.479 . S
C458 C459 1.375 . S
C458 C464 1.404 1_455 S
C459 C458 1.375 . S
C459 C460 1.369 . S
C459 H472 0.950 . S
C460 C459 1.369 . S
C460 C461 1.392 . S
C460 H473 0.951 . S
C461 C460 1.392 . S
C461 C463 1.384 1_455 S
H462 C464 0.949 . S
C463 C461 1.384 1_655 S
C463 C464 1.385 . S
C463 H465 0.950 . S
C464 C458 1.404 1_655 S
C464 H462 0.949 . S
C464 C463 1.385 . S
H465 C463 0.950 . S
H466 C450 0.951 . S
H467 C452 0.951 . S
H468 C454 0.951 . S
H469 C455 0.950 . S
H470 C456 0.950 . S
H471 C457 0.950 . S
H472 C459 0.950 . S
H473 C460 0.951 . S
C197 C63 1.483 . S
C187 C6 1.465 1_455 S
C211 C22 1.595 . S
C221 C111 1.633 . S
C235 C34 1.235 . S
C245 C183 1.264 . S
C259 C7 1.471 1_655 S
C269 C87 1.500 1_655 S
C293 C135 1.618 . S
C283 C23 1.602 . S
C307 C35 1.250 . S
C317 C159 1.261 . S
C341 C120 1.594 . S
C331 C36 1.603 . S
C355 C9 1.852 . S
C365 C174 1.868 . S
C389 C78 1.492 1_455 S
C379 C21 1.447 1_455 S
C413 C126 1.623 1_545 S
C403 C37 1.594 . S
C437 C168 1.851 . S
C427 C8 1.823 . S
C451 C20 1.484 1_655 S
C461 C72 1.496 1_455 S
