# Generated by pormake.
# Topology cml, (3,6)-cn, num edge types: 1
# Building blocks:
#     Node 0, Type 0, BuildingBlock: BELTOD_clean_linker_0, # of connection points: 3
#     Node 1, Type 0, BuildingBlock: BELTOD_clean_linker_0, # of connection points: 3
#     Node 2, Type 0, BuildingBlock: BELTOD_clean_linker_0, # of connection points: 3
#     Node 3, Type 0, BuildingBlock: BELTOD_clean_linker_0, # of connection points: 3
#     Node 4, Type 0, BuildingBlock: BELTOD_clean_linker_0, # of connection points: 3
#     Node 5, Type 0, BuildingBlock: BELTOD_clean_linker_0, # of connection points: 3
#     Node 6, Type 0, BuildingBlock: BELTOD_clean_linker_0, # of connection points: 3
#     Node 7, Type 0, BuildingBlock: BELTOD_clean_linker_0, # of connection points: 3
#     Node 8, Type 1, BuildingBlock: OJICUG_clean_sbu_0, # of connection points: 6
#     Node 9, Type 1, BuildingBlock: OJICUG_clean_sbu_0, # of connection points: 6
#     Node 10, Type 1, BuildingBlock: OJICUG_clean_sbu_0, # of connection points: 6
#     Node 11, Type 1, BuildingBlock: OJICUG_clean_sbu_0, # of connection points: 6
#     Edge 12, Type (0, 1), BuildingBlock: KIFKEQ_clean_linker_1, # of connection points: 2
#     Edge 13, Type (0, 1), BuildingBlock: KIFKEQ_clean_linker_1, # of connection points: 2
#     Edge 14, Type (0, 1), BuildingBlock: KIFKEQ_clean_linker_1, # of connection points: 2
#     Edge 15, Type (0, 1), BuildingBlock: KIFKEQ_clean_linker_1, # of connection points: 2
#     Edge 16, Type (0, 1), BuildingBlock: KIFKEQ_clean_linker_1, # of connection points: 2
#     Edge 17, Type (0, 1), BuildingBlock: KIFKEQ_clean_linker_1, # of connection points: 2
#     Edge 18, Type (0, 1), BuildingBlock: KIFKEQ_clean_linker_1, # of connection points: 2
#     Edge 19, Type (0, 1), BuildingBlock: KIFKEQ_clean_linker_1, # of connection points: 2
#     Edge 20, Type (0, 1), BuildingBlock: KIFKEQ_clean_linker_1, # of connection points: 2
#     Edge 21, Type (0, 1), BuildingBlock: KIFKEQ_clean_linker_1, # of connection points: 2
#     Edge 22, Type (0, 1), BuildingBlock: KIFKEQ_clean_linker_1, # of connection points: 2
#     Edge 23, Type (0, 1), BuildingBlock: KIFKEQ_clean_linker_1, # of connection points: 2
#     Edge 24, Type (0, 1), BuildingBlock: KIFKEQ_clean_linker_1, # of connection points: 2
#     Edge 25, Type (0, 1), BuildingBlock: KIFKEQ_clean_linker_1, # of connection points: 2
#     Edge 26, Type (0, 1), BuildingBlock: KIFKEQ_clean_linker_1, # of connection points: 2
#     Edge 27, Type (0, 1), BuildingBlock: KIFKEQ_clean_linker_1, # of connection points: 2
#     Edge 28, Type (0, 1), BuildingBlock: KIFKEQ_clean_linker_1, # of connection points: 2
#     Edge 29, Type (0, 1), BuildingBlock: KIFKEQ_clean_linker_1, # of connection points: 2
#     Edge 30, Type (0, 1), BuildingBlock: KIFKEQ_clean_linker_1, # of connection points: 2
#     Edge 31, Type (0, 1), BuildingBlock: KIFKEQ_clean_linker_1, # of connection points: 2
#     Edge 32, Type (0, 1), BuildingBlock: KIFKEQ_clean_linker_1, # of connection points: 2
#     Edge 33, Type (0, 1), BuildingBlock: KIFKEQ_clean_linker_1, # of connection points: 2
#     Edge 34, Type (0, 1), BuildingBlock: KIFKEQ_clean_linker_1, # of connection points: 2
#     Edge 35, Type (0, 1), BuildingBlock: KIFKEQ_clean_linker_1, # of connection points: 2
# Relax obj value: 0.065
# Max RMSD: 0.077
# Mean RMSD: 0.074
data_MOF--net-cml--node1-OJICUG_clean_sbu_0--node2-BELTOD_clean_linker_0--edge1-KIFKEQ_clean_linker_1
_symmetry_space_group_name_H-M    P1
_symmetry_Int_Tables_number       1
_symmetry_cell_setting            triclinic
loop_
_symmetry_equiv_pos_as_xyz
'x, y, z'
_cell_length_a     44.923786
_cell_length_b     45.148194
_cell_length_c     42.30545
_cell_angle_alpha  89.575533
_cell_angle_beta   89.619327
_cell_angle_gamma 90.022143
loop_
_atom_site_label
_atom_site_type_symbol
_atom_site_fract_x
_atom_site_fract_y
_atom_site_fract_z
_atom_type_partial_charge
P0 P 0.31388 0.3432 0.9676 0.0
H1 H 0.33278 0.28961 0.00065 0.0
H2 H 0.34524 0.27943 0.05588 0.0
H3 H 0.326 0.37067 0.0789 0.0
H4 H 0.31244 0.38018 0.02423 0.0
H5 H 0.28013 0.3449 0.90943 0.0
H6 H 0.22973 0.32879 0.89609 0.0
H7 H 0.21484 0.30246 0.99333 0.0
H8 H 0.26507 0.31845 0.00648 0.0
H9 H 0.36769 0.37709 0.95645 0.0
H10 H 0.27347 0.39441 0.96341 0.0
O11 O 0.33679 0.32356 0.9447 0.0
H12 H 0.37722 0.42997 0.94933 0.0
H13 H 0.28285 0.44751 0.95634 0.0
C14 C 0.32255 0.33581 0.00825 0.0
C15 C 0.33126 0.30734 0.01769 0.0
C16 C 0.33838 0.3016 0.04923 0.0
C17 C 0.33689 0.3243 0.0718 0.0
C18 C 0.32713 0.35257 0.06228 0.0
C19 C 0.31977 0.35818 0.03084 0.0
C20 C 0.27636 0.33267 0.9588 0.0
C21 C 0.2659 0.33579 0.92786 0.0
C22 C 0.2371 0.32678 0.92034 0.0
C23 C 0.21845 0.31433 0.9437 0.0
C24 C 0.22888 0.3117 0.97482 0.0
C25 C 0.25761 0.32089 0.98234 0.0
C26 C 0.3199 0.38184 0.95962 0.0
C27 C 0.34904 0.39229 0.95609 0.0
C28 C 0.35445 0.42252 0.95244 0.0
C29 C 0.33075 0.44286 0.95246 0.0
C30 C 0.30148 0.4323 0.95599 0.0
C31 C 0.29612 0.40198 0.95985 0.0
P32 P 0.73797 0.5733 0.53608 0.0
H33 H 0.74925 0.52222 0.49603 0.0
H34 H 0.71683 0.4917 0.46336 0.0
H35 H 0.64235 0.54823 0.48684 0.0
H36 H 0.67506 0.579 0.51865 0.0
H37 H 0.79991 0.59237 0.53822 0.0
H38 H 0.82913 0.62664 0.50567 0.0
H39 H 0.75067 0.64825 0.4517 0.0
H40 H 0.72141 0.61377 0.48455 0.0
H41 H 0.71003 0.54724 0.59123 0.0
H42 H 0.71571 0.63397 0.54821 0.0
O43 O 0.76193 0.54984 0.5529 0.0
H44 H 0.67597 0.56637 0.63128 0.0
H45 H 0.68115 0.6533 0.58819 0.0
C46 C 0.71438 0.55236 0.51035 0.0
C47 C 0.72596 0.52807 0.49399 0.0
C48 C 0.70738 0.51061 0.47542 0.0
C49 C 0.6769 0.5173 0.47279 0.0
C50 C 0.66572 0.54252 0.48819 0.0
C51 C 0.68436 0.55998 0.50668 0.0
C52 C 0.75864 0.60024 0.51345 0.0
C53 C 0.78895 0.60446 0.51941 0.0
C54 C 0.80567 0.62395 0.5007 0.0
C55 C 0.79225 0.63982 0.47588 0.0
C56 C 0.76158 0.63631 0.47066 0.0
C57 C 0.74489 0.61657 0.4893 0.0
C58 C 0.71567 0.58923 0.56704 0.0
C59 C 0.7042 0.57052 0.59066 0.0
C60 C 0.68451 0.58143 0.61335 0.0
C61 C 0.6757 0.61131 0.61274 0.0
C62 C 0.68772 0.63024 0.58938 0.0
C63 C 0.70743 0.61921 0.56652 0.0
P64 P 0.74201 0.42443 0.03402 0.0
H65 H 0.73527 0.43674 0.10111 0.0
H66 H 0.70295 0.41597 0.14224 0.0
H67 H 0.66903 0.35227 0.07587 0.0
H68 H 0.70151 0.37337 0.03451 0.0
H69 H 0.76463 0.43191 0.96982 0.0
H70 H 0.79236 0.39936 0.93433 0.0
H71 H 0.78983 0.33012 0.00538 0.0
H72 H 0.76195 0.36271 0.04062 0.0
H73 H 0.72437 0.48617 0.04112 0.0
H74 H 0.70145 0.41246 0.98183 0.0
O75 O 0.76816 0.44581 0.04995 0.0
H76 H 0.68792 0.51706 0.01388 0.0
H77 H 0.66566 0.44346 0.95358 0.0
C78 C 0.72124 0.40616 0.06497 0.0
C79 C 0.72133 0.41795 0.09549 0.0
C80 C 0.7027 0.40621 0.11892 0.0
C81 C 0.6835 0.38251 0.11222 0.0
C82 C 0.68388 0.37028 0.08176 0.0
C83 C 0.70239 0.38229 0.05818 0.0
C84 C 0.76041 0.39939 0.00744 0.0
C85 C 0.7696 0.40954 0.97753 0.0
C86 C 0.78566 0.39102 0.95737 0.0
C87 C 0.79304 0.36209 0.96694 0.0
C88 C 0.7839 0.35207 0.99705 0.0
C89 C 0.76795 0.37068 0.01725 0.0
C90 C 0.71612 0.44734 0.01288 0.0
C91 C 0.71181 0.4768 0.02185 0.0
C92 C 0.69103 0.49446 0.00615 0.0
C93 C 0.67408 0.48287 0.98126 0.0
C94 C 0.6782 0.45307 0.97272 0.0
C95 C 0.69887 0.4354 0.98862 0.0
P96 P 0.31225 0.64616 0.46485 0.0
H97 H 0.3185 0.61253 0.4068 0.0
H98 H 0.3264 0.55988 0.39651 0.0
H99 H 0.32012 0.54128 0.49669 0.0
H100 H 0.31226 0.59395 0.50679 0.0
H101 H 0.28705 0.70175 0.44256 0.0
H102 H 0.23591 0.71858 0.43521 0.0
H103 H 0.2035 0.63352 0.46816 0.0
H104 H 0.25485 0.61668 0.47484 0.0
H105 H 0.3698 0.6434 0.49507 0.0
H106 H 0.27966 0.66512 0.52206 0.0
O107 O 0.33469 0.66439 0.43985 0.0
H108 H 0.38565 0.64973 0.5498 0.0
H109 H 0.29533 0.67128 0.57677 0.0
C110 C 0.31571 0.60717 0.45755 0.0
C111 C 0.31868 0.59707 0.4265 0.0
C112 C 0.32288 0.56696 0.42066 0.0
C113 C 0.32407 0.54649 0.44585 0.0
C114 C 0.31971 0.55661 0.47688 0.0
C115 C 0.31534 0.58671 0.48265 0.0
C116 C 0.27462 0.6578 0.45845 0.0
C117 C 0.26892 0.68666 0.44791 0.0
C118 C 0.23969 0.69634 0.4441 0.0
C119 C 0.21567 0.67736 0.45113 0.0
C120 C 0.22154 0.6485 0.46213 0.0
C121 C 0.25084 0.63885 0.46591 0.0
C122 C 0.32369 0.65401 0.50448 0.0
C123 C 0.35352 0.64986 0.51272 0.0
C124 C 0.36247 0.65326 0.54399 0.0
C125 C 0.34166 0.66086 0.56753 0.0
C126 C 0.31186 0.66567 0.55905 0.0
C127 C 0.3029 0.66208 0.52775 0.0
P128 P 0.82097 0.84292 0.95557 0.0
H129 H 0.87002 0.80955 0.98394 0.0
H130 H 0.88639 0.80365 0.03846 0.0
H131 H 0.80993 0.85359 0.07044 0.0
H132 H 0.79452 0.86049 0.01578 0.0
H133 H 0.80081 0.79067 0.9216 0.0
H134 H 0.75138 0.77126 0.90998 0.0
H135 H 0.71158 0.84352 0.9617 0.0
H136 H 0.76105 0.86257 0.97354 0.0
H137 H 0.86329 0.88729 0.9758 0.0
H138 H 0.78354 0.88493 0.91965 0.0
O139 O 0.84555 0.82723 0.93115 0.0
H140 H 0.86854 0.9399 0.96479 0.0
H141 H 0.78724 0.93806 0.91048 0.0
C142 C 0.83093 0.83527 0.99584 0.0
C143 C 0.8566 0.81894 0.0027 0.0
C144 C 0.86584 0.81543 0.03396 0.0
C145 C 0.84947 0.82817 0.05887 0.0
C146 C 0.82325 0.84381 0.05183 0.0
C147 C 0.81419 0.84747 0.02056 0.0
C148 C 0.78456 0.82825 0.94807 0.0
C149 C 0.78146 0.80232 0.93046 0.0
C150 C 0.75319 0.79132 0.92372 0.0
C151 C 0.72759 0.80603 0.9347 0.0
C152 C 0.73087 0.83157 0.95314 0.0
C153 C 0.75915 0.8425 0.95987 0.0
C154 C 0.82265 0.88229 0.94926 0.0
C155 C 0.84642 0.8983 0.96181 0.0
C156 C 0.84919 0.92857 0.95573 0.0
C157 C 0.82809 0.94354 0.93704 0.0
C158 C 0.80403 0.92736 0.9248 0.0
C159 C 0.80165 0.89691 0.9304 0.0
P160 P 0.24911 0.05947 0.5464 0.0
H161 H 0.25461 -0.00077 0.52234 0.0
H162 H 0.22175 0.96814 0.49089 0.0
H163 H 0.15734 0.0392 0.4873 0.0
H164 H 0.19068 0.07033 0.51777 0.0
H165 H 0.28419 0.11149 0.56086 0.0
H166 H 0.31655 0.14341 0.52914 0.0
H167 H 0.29831 0.09041 0.4468 0.0
H168 H 0.26517 0.05899 0.47865 0.0
H169 H 0.23175 0.0506 0.61252 0.0
H170 H 0.21798 0.11615 0.53942 0.0
O171 O 0.27175 0.03756 0.56717 0.0
H172 H 0.20004 0.07891 0.64851 0.0
H173 H 0.18608 0.14453 0.57528 0.0
C174 C 0.2248 0.03683 0.52305 0.0
C175 C 0.23337 0.00806 0.51483 0.0
C176 C 0.21451 0.99028 0.49692 0.0
C177 C 0.18675 0.00105 0.48677 0.0
C178 C 0.17863 0.03023 0.49446 0.0
C179 C 0.19758 0.04801 0.51225 0.0
C180 C 0.27187 0.08324 0.52202 0.0
C181 C 0.2869 0.10692 0.53591 0.0
C182 C 0.30565 0.12497 0.51778 0.0
C183 C 0.31015 0.11938 0.48542 0.0
C184 C 0.29505 0.09552 0.47155 0.0
C185 C 0.27615 0.07749 0.48977 0.0
C186 C 0.2274 0.08142 0.57343 0.0
C187 C 0.22223 0.07129 0.60436 0.0
C188 C 0.20423 0.08757 0.62495 0.0
C189 C 0.19074 0.11403 0.61475 0.0
C190 C 0.19616 0.12421 0.58376 0.0
C191 C 0.21441 0.10806 0.56331 0.0
P192 P 0.23481 0.92937 0.03662 0.0
H193 H 0.25015 0.87525 0.07153 0.0
H194 H 0.22265 0.84499 0.11033 0.0
H195 H 0.14667 0.9028 0.10047 0.0
H196 H 0.17426 0.93314 0.06243 0.0
H197 H 0.29744 0.93743 0.01953 0.0
H198 H 0.33178 0.90848 0.98709 0.0
H199 H 0.26139 0.84602 0.96779 0.0
H200 H 0.22707 0.87531 0.00012 0.0
H201 H 0.23512 0.99069 0.01389 0.0
H202 H 0.18238 0.91198 0.00056 0.0
O203 O 0.25406 0.9532 0.05848 0.0
H204 H 0.20118 0.01872 0.97997 0.0
H205 H 0.1482 0.93997 0.96678 0.0
C206 C 0.21391 0.90586 0.06326 0.0
C207 C 0.22741 0.88112 0.07739 0.0
C208 C 0.21177 0.86394 0.09962 0.0
C209 C 0.18237 0.87128 0.10799 0.0
C210 C 0.16903 0.89618 0.09388 0.0
C211 C 0.1848 0.91353 0.07206 0.0
C212 C 0.25994 0.90811 0.01269 0.0
C213 C 0.28942 0.91747 0.00839 0.0
C214 C 0.30901 0.90093 0.98983 0.0
C215 C 0.29932 0.87489 0.97502 0.0
C216 C 0.26945 0.8661 0.97866 0.0
C217 C 0.2499 0.88265 0.99734 0.0
C218 C 0.21072 0.94951 0.01041 0.0
C219 C 0.21625 0.97944 0.00365 0.0
C220 C 0.197 0.99537 0.98406 0.0
C221 C 0.17195 0.98154 0.971 0.0
C222 C 0.16713 0.95124 0.97691 0.0
C223 C 0.1866 0.93527 0.99618 0.0
P224 P 0.83762 0.17248 0.43994 0.0
H225 H 0.84312 0.14424 0.37869 0.0
H226 H 0.85124 0.09289 0.36283 0.0
H227 H 0.85245 0.06617 0.4612 0.0
H228 H 0.84307 0.11717 0.47668 0.0
H229 H 0.80922 0.2272 0.41901 0.0
H230 H 0.7571 0.24111 0.41216 0.0
H231 H 0.73007 0.15312 0.44151 0.0
H232 H 0.78228 0.13923 0.44753 0.0
H233 H 0.89372 0.16912 0.47322 0.0
H234 H 0.80163 0.18578 0.49676 0.0
O235 O 0.85973 0.19409 0.41786 0.0
H236 H 0.90646 0.17107 0.52932 0.0
H237 H 0.81417 0.18746 0.55267 0.0
C238 C 0.8434 0.1346 0.42879 0.0
C239 C 0.84515 0.12726 0.39677 0.0
C240 C 0.84984 0.09792 0.38778 0.0
C241 C 0.85286 0.07543 0.41076 0.0
C242 C 0.85004 0.08285 0.44287 0.0
C243 C 0.84512 0.11215 0.45179 0.0
C244 C 0.7995 0.18204 0.43302 0.0
C245 C 0.79205 0.21083 0.42355 0.0
C246 C 0.76226 0.21883 0.42002 0.0
C247 C 0.73946 0.1982 0.4263 0.0
C248 C 0.74712 0.16936 0.436 0.0
C249 C 0.77693 0.16139 0.43942 0.0
C250 C 0.84684 0.17743 0.4808 0.0
C251 C 0.87634 0.17353 0.49042 0.0
C252 C 0.88351 0.1744 0.52243 0.0
C253 C 0.86124 0.17925 0.54533 0.0
C254 C 0.8318 0.18393 0.53552 0.0
C255 C 0.82463 0.18288 0.50349 0.0
Sc256 Sc 0.99029 0.78406 0.31612 0.0
Sc257 Sc -0.00232 0.86148 0.31329 0.0
Sc258 Sc 0.98327 0.82603 0.38595 0.0
O259 O 0.99034 0.82384 0.33849 0.0
C260 C 0.93811 0.77504 0.36752 0.0
C261 C 0.95569 0.82403 0.26712 0.0
C262 C 0.94644 0.88184 0.36048 0.0
C263 C 0.04318 0.81831 0.2799 0.0
C264 C 0.02623 0.76971 0.37866 0.0
C265 C 0.03374 0.87483 0.37665 0.0
O266 O 0.95278 0.76724 0.34315 0.0
O267 O 0.96903 0.84761 0.27534 0.0
O268 O 0.95285 0.86307 0.382 0.0
O269 O 0.02785 0.79512 0.28556 0.0
O270 O 0.01332 0.78959 0.39499 0.0
O271 O 0.02744 0.87995 0.34787 0.0
O272 O 0.02104 0.76575 0.34948 0.0
O273 O 0.03608 0.84365 0.29023 0.0
O274 O 0.02021 0.8554 0.39318 0.0
O275 O 0.95957 0.79925 0.28093 0.0
O276 O 0.94558 0.7969 0.38443 0.0
O277 O 0.96007 0.88312 0.3341 0.0
Sc278 Sc 0.98765 0.21118 0.80799 0.0
Sc279 Sc 0.98276 0.1333 0.8073 0.0
Sc280 Sc 0.97996 0.17094 0.87957 0.0
O281 O 0.98347 0.17186 0.8316 0.0
C282 C 0.02876 0.22126 0.86821 0.0
C283 C 0.03126 0.17026 0.76794 0.0
C284 C 0.02274 0.11575 0.86631 0.0
C285 C 0.94358 0.17502 0.76334 0.0
C286 C 0.93994 0.22698 0.86159 0.0
C287 C 0.93424 0.12042 0.86132 0.0
O288 O 0.02024 0.22761 0.8404 0.0
O289 O 0.01781 0.14659 0.77582 0.0
O290 O 0.01099 0.13496 0.88433 0.0
O291 O 0.95579 0.19885 0.77256 0.0
O292 O 0.94847 0.20646 0.88011 0.0
O293 O 0.94718 0.11508 0.83522 0.0
O294 O 0.9516 0.23143 0.83445 0.0
O295 O 0.95007 0.1497 0.77471 0.0
O296 O 0.9428 0.14071 0.87981 0.0
O297 O 0.02421 0.19556 0.77872 0.0
O298 O 0.01668 0.20107 0.88503 0.0
O299 O 0.0158 0.11308 0.83736 0.0
Sc300 Sc 0.49012 0.28398 0.31936 0.0
Sc301 Sc 0.48363 0.36183 0.31988 0.0
Sc302 Sc 0.48555 0.32249 0.39173 0.0
O303 O 0.48635 0.32272 0.34365 0.0
C304 C 0.44654 0.26544 0.37642 0.0
C305 C 0.44363 0.31919 0.27725 0.0
C306 C 0.43669 0.3717 0.37549 0.0
C307 C 0.53229 0.32761 0.27921 0.0
C308 C 0.53523 0.27396 0.37617 0.0
C309 C 0.52548 0.37944 0.37765 0.0
O310 O 0.45765 0.2613 0.34903 0.0
O311 O 0.45217 0.34459 0.28634 0.0
O312 O 0.44857 0.35308 0.39429 0.0
O313 O 0.52318 0.30173 0.28655 0.0
O314 O 0.52259 0.29227 0.3946 0.0
O315 O 0.51501 0.38394 0.35019 0.0
O316 O 0.52611 0.26891 0.34836 0.0
O317 O 0.52055 0.35104 0.29 0.0
O318 O 0.51714 0.35797 0.39511 0.0
O319 O 0.45475 0.29521 0.2877 0.0
O320 O 0.45421 0.28684 0.39388 0.0
O321 O 0.44664 0.37667 0.34777 0.0
Sc322 Sc 0.48346 0.70848 0.81899 0.0
Sc323 Sc 0.47651 0.63075 0.82444 0.0
Sc324 Sc 0.47949 0.67286 0.89368 0.0
O325 O 0.47974 0.67076 0.84567 0.0
C326 C 0.52899 0.72072 0.87489 0.0
C327 C 0.52492 0.66312 0.7809 0.0
C328 C 0.51908 0.61541 0.88251 0.0
C329 C 0.43658 0.67152 0.77933 0.0
C330 C 0.44035 0.7292 0.87522 0.0
C331 C 0.43027 0.62333 0.88127 0.0
O332 O 0.51958 0.72499 0.84696 0.0
O333 O 0.51278 0.64024 0.79294 0.0
O334 O 0.51106 0.63756 0.89877 0.0
O335 O 0.44808 0.69594 0.78773 0.0
O336 O 0.44839 0.70867 0.89397 0.0
O337 O 0.43986 0.61719 0.85378 0.0
O338 O 0.45093 0.73213 0.84736 0.0
O339 O 0.44476 0.64665 0.79053 0.0
O340 O 0.44248 0.64258 0.89876 0.0
O341 O 0.51652 0.68934 0.78744 0.0
O342 O 0.51657 0.70291 0.89427 0.0
O343 O 0.50821 0.60978 0.85555 0.0
H344 H 0.17626 0.34129 0.90728 0.0
H345 H 0.19378 0.26152 0.96095 0.0
H346 H 0.12832 0.32109 0.89112 0.0
H347 H 0.14628 0.24107 0.94443 0.0
H348 H 0.04934 0.22056 0.92901 0.0
H349 H 0.09318 0.24555 0.94943 0.0
H350 H 0.11077 0.28284 0.85678 0.0
H351 H 0.06659 0.25866 0.83658 0.0
C352 C 0.16982 0.31943 0.91557 0.0
C353 C 0.18869 0.30293 0.9353 0.0
C354 C 0.14244 0.30784 0.90631 0.0
C355 C 0.13352 0.27943 0.91641 0.0
C356 C 0.15222 0.26321 0.93665 0.0
C357 C 0.17947 0.27488 0.94607 0.0
C358 C 0.06245 0.23425 0.91304 0.0
C359 C 0.0545 0.2375 0.88112 0.0
C360 C 0.08764 0.24848 0.92473 0.0
C361 C 0.10554 0.26609 0.90471 0.0
C362 C 0.09724 0.2698 0.87296 0.0
C363 C 0.07197 0.25575 0.86133 0.0
H364 H 0.77936 0.69626 0.45619 0.0
H365 H 0.84634 0.62798 0.44943 0.0
H366 H 0.81117 0.72973 0.42513 0.0
H367 H 0.87824 0.66144 0.41901 0.0
H368 H 0.921 0.72057 0.3458 0.0
H369 H 0.88248 0.68818 0.36781 0.0
H370 H 0.85898 0.75543 0.43559 0.0
H371 H 0.89714 0.78794 0.41353 0.0
C372 C 0.80072 0.68834 0.44778 0.0
C373 C 0.8105 0.65963 0.45544 0.0
C374 C 0.81898 0.70752 0.4302 0.0
C375 C 0.84721 0.69822 0.41968 0.0
C376 C 0.8565 0.66917 0.42648 0.0
C377 C 0.83839 0.65012 0.44422 0.0
C378 C 0.90733 0.72866 0.36507 0.0
C379 C 0.91242 0.75676 0.3781 0.0
C380 C 0.88537 0.71002 0.37777 0.0
C381 C 0.86789 0.71918 0.40358 0.0
C382 C 0.87194 0.74782 0.41556 0.0
C383 C 0.89399 0.76637 0.40302 0.0
H384 H 0.84258 0.37731 0.9326 0.0
H385 H 0.7849 0.30334 0.95473 0.0
H386 H 0.8754 0.34456 0.90282 0.0
H387 H 0.81757 0.27062 0.92475 0.0
H388 H 0.90478 0.21879 0.91358 0.0
H389 H 0.86709 0.25155 0.93464 0.0
H390 H 0.8813 0.31211 0.85644 0.0
H391 H 0.91987 0.27927 0.83534 0.0
C392 C 0.8366 0.35416 0.93056 0.0
C393 C 0.81134 0.34281 0.94628 0.0
C394 C 0.85537 0.33541 0.91343 0.0
C395 C 0.84922 0.30495 0.91166 0.0
C396 C 0.82321 0.2939 0.92618 0.0
C397 C 0.80452 0.3126 0.94337 0.0
C398 C 0.89991 0.23899 0.90065 0.0
C399 C 0.91559 0.24647 0.87283 0.0
C400 C 0.878 0.25768 0.91264 0.0
C401 C 0.8711 0.28439 0.89717 0.0
C402 C 0.8863 0.29174 0.869 0.0
C403 C 0.90827 0.27288 0.85685 0.0
H404 H 0.19188 0.73122 0.46583 0.0
H405 H 0.16952 0.64659 0.42527 0.0
H406 H 0.14285 0.75004 0.45212 0.0
H407 H 0.11992 0.66502 0.41277 0.0
H408 H 0.05908 0.72549 0.3518 0.0
H409 H 0.10187 0.70022 0.37388 0.0
H410 H 0.08955 0.74696 0.46176 0.0
H411 H 0.04694 0.77295 0.43941 0.0
C412 C 0.17634 0.71654 0.4543 0.0
C413 C 0.18469 0.68757 0.44622 0.0
C414 C 0.14809 0.72718 0.44685 0.0
C415 C 0.12754 0.70905 0.43122 0.0
C416 C 0.13541 0.67963 0.42447 0.0
C417 C 0.16371 0.66899 0.43189 0.0
C418 C 0.06519 0.73019 0.37597 0.0
C419 C 0.04976 0.75159 0.39366 0.0
C420 C 0.08964 0.71547 0.38874 0.0
C421 C 0.09921 0.72172 0.41951 0.0
C422 C 0.08294 0.74201 0.4378 0.0
C423 C 0.05845 0.75679 0.42501 0.0
H424 H 0.70895 0.78581 0.87756 0.0
H425 H 0.67848 0.80174 0.97303 0.0
H426 H 0.65992 0.76698 0.86393 0.0
H427 H 0.62901 0.78397 0.95904 0.0
H428 H 0.55842 0.71473 0.93099 0.0
H429 H 0.6056 0.73693 0.9457 0.0
H430 H 0.60888 0.78394 0.85642 0.0
H431 H 0.56193 0.76131 0.84128 0.0
C432 C 0.69176 0.78527 0.89563 0.0
C433 C 0.6976 0.79508 0.92641 0.0
C434 C 0.66357 0.77488 0.88771 0.0
C435 C 0.6406 0.7741 0.9104 0.0
C436 C 0.64636 0.7841 0.94113 0.0
C437 C 0.67458 0.79451 0.94906 0.0
C438 C 0.56903 0.72998 0.91454 0.0
C439 C 0.55643 0.73608 0.88484 0.0
C440 C 0.59602 0.74281 0.92308 0.0
C441 C 0.61101 0.76206 0.90215 0.0
C442 C 0.59806 0.76882 0.87283 0.0
C443 C 0.57106 0.75597 0.86425 0.0
H444 H 0.30308 0.14057 0.42483 0.0
H445 H 0.36417 0.14087 0.50332 0.0
H446 H 0.33578 0.17487 0.39586 0.0
H447 H 0.39627 0.17535 0.47471 0.0
H448 H 0.42143 0.26554 0.43523 0.0
H449 H 0.38872 0.22881 0.45892 0.0
H450 H 0.38919 0.17926 0.37207 0.0
H451 H 0.42233 0.21632 0.34784 0.0
C452 C 0.3236 0.14764 0.43574 0.0
C453 C 0.33079 0.13836 0.4666 0.0
C454 C 0.34226 0.16727 0.41916 0.0
C455 C 0.36829 0.17804 0.43326 0.0
C456 C 0.376 0.16785 0.46355 0.0
C457 C 0.35755 0.14819 0.47997 0.0
C458 C 0.41459 0.24697 0.42093 0.0
C459 C 0.42481 0.24383 0.38962 0.0
C460 C 0.39592 0.22582 0.43466 0.0
C461 C 0.38678 0.20102 0.41747 0.0
C462 C 0.39598 0.19822 0.38582 0.0
C463 C 0.41498 0.21938 0.37203 0.0
H464 H 0.35549 0.8596 0.99242 0.0
H465 H 0.29133 0.84754 0.91798 0.0
H466 H 0.38962 0.82604 0.96571 0.0
H467 H 0.32553 0.81335 0.89142 0.0
H468 H 0.41181 0.77407 0.84275 0.0
H469 H 0.37779 0.81128 0.86468 0.0
H470 H 0.38625 0.77102 0.95704 0.0
H471 H 0.41982 0.73421 0.93564 0.0
C472 C 0.34884 0.85009 0.97012 0.0
C473 C 0.32068 0.85612 0.95735 0.0
C474 C 0.36828 0.83069 0.95497 0.0
C475 C 0.36008 0.81694 0.92665 0.0
C476 C 0.33241 0.82375 0.91318 0.0
C477 C 0.31278 0.84306 0.92851 0.0
C478 C 0.4063 0.77314 0.8677 0.0
C479 C 0.41869 0.75119 0.8874 0.0
C480 C 0.3868 0.79436 0.88018 0.0
C481 C 0.37972 0.79417 0.9126 0.0
C482 C 0.39172 0.77199 0.93207 0.0
C483 C 0.41085 0.75075 0.91966 0.0
H484 H 0.71296 0.25007 0.44376 0.0
H485 H 0.6945 0.16563 0.40057 0.0
H486 H 0.66189 0.26557 0.43425 0.0
H487 H 0.64298 0.18063 0.39241 0.0
H488 H 0.57036 0.2359 0.34261 0.0
H489 H 0.61812 0.21539 0.35781 0.0
H490 H 0.61031 0.25705 0.44912 0.0
H491 H 0.56267 0.27832 0.43367 0.0
C492 C 0.69793 0.23476 0.4324 0.0
C493 C 0.70784 0.20676 0.4226 0.0
C494 C 0.66855 0.24347 0.42738 0.0
C495 C 0.64841 0.22434 0.41253 0.0
C496 C 0.65808 0.19599 0.40359 0.0
C497 C 0.6875 0.1873 0.40854 0.0
C498 C 0.5786 0.24051 0.36607 0.0
C499 C 0.56276 0.25902 0.3868 0.0
C500 C 0.60594 0.22854 0.37486 0.0
C501 C 0.61805 0.2347 0.40461 0.0
C502 C 0.60173 0.25228 0.42583 0.0
C503 C 0.57437 0.26433 0.41702 0.0
H504 H 0.30185 0.48211 0.91386 0.0
H505 H 0.37356 0.47573 0.98104 0.0
H506 H 0.31713 0.5327 0.90062 0.0
H507 H 0.38938 0.52569 0.96721 0.0
H508 H 0.41274 0.61726 0.94323 0.0
H509 H 0.38007 0.57895 0.96516 0.0
H510 H 0.36073 0.54895 0.87074 0.0
H511 H 0.39268 0.58734 0.84889 0.0
C512 C 0.32047 0.49175 0.92626 0.0
C513 C 0.33688 0.47486 0.94804 0.0
C514 C 0.32931 0.52062 0.91857 0.0
C515 C 0.35463 0.5331 0.93262 0.0
C516 C 0.36963 0.5169 0.95611 0.0
C517 C 0.36085 0.48809 0.96373 0.0
C518 C 0.40085 0.60301 0.92714 0.0
C519 C 0.40584 0.60489 0.89435 0.0
C520 C 0.38225 0.581 0.93972 0.0
C521 C 0.3682 0.56063 0.91972 0.0
C522 C 0.37108 0.56433 0.88684 0.0
C523 C 0.38968 0.5862 0.8743 0.0
H524 H 0.63051 0.53224 0.43387 0.0
H525 H 0.67696 0.45681 0.47311 0.0
H526 H 0.59457 0.49898 0.40958 0.0
H527 H 0.64186 0.42365 0.4478 0.0
H528 H 0.55262 0.37728 0.43524 0.0
H529 H 0.59002 0.41061 0.45589 0.0
H530 H 0.58856 0.46109 0.36877 0.0
H531 H 0.55052 0.42793 0.34809 0.0
C532 C 0.63318 0.50857 0.43712 0.0
C533 C 0.65653 0.4972 0.45558 0.0
C534 C 0.61278 0.48951 0.42292 0.0
C535 C 0.61524 0.45867 0.42693 0.0
C536 C 0.63908 0.44731 0.44463 0.0
C537 C 0.65944 0.46633 0.4588 0.0
C538 C 0.5602 0.39544 0.42037 0.0
C539 C 0.54845 0.39988 0.38996 0.0
C540 C 0.58186 0.41446 0.43218 0.0
C541 C 0.59241 0.43841 0.41391 0.0
C542 C 0.5807 0.44296 0.38352 0.0
C543 C 0.55898 0.42388 0.37165 0.0
H544 H 0.67962 0.5412 0.96416 0.0
H545 H 0.6185 0.46732 0.96055 0.0
H546 H 0.64258 0.57284 0.93907 0.0
H547 H 0.58173 0.49895 0.93481 0.0
H548 H 0.53561 0.5603 0.8618 0.0
H549 H 0.57377 0.52781 0.88406 0.0
H550 H 0.59294 0.59318 0.95508 0.0
H551 H 0.5551 0.62566 0.93298 0.0
C552 C 0.65827 0.53171 0.95813 0.0
C553 C 0.65198 0.50175 0.9646 0.0
C554 C 0.63711 0.54983 0.94366 0.0
C555 C 0.60926 0.53836 0.93511 0.0
C556 C 0.60315 0.50829 0.94086 0.0
C557 C 0.62425 0.49019 0.95556 0.0
C558 C 0.54802 0.56776 0.88211 0.0
C559 C 0.54225 0.59557 0.89562 0.0
C560 C 0.56974 0.5491 0.89492 0.0
C561 C 0.58633 0.55803 0.92123 0.0
C562 C 0.58071 0.58586 0.93457 0.0
C563 C 0.55886 0.60437 0.92201 0.0
H564 H 0.3032 0.5098 0.39974 0.0
H565 H 0.36426 0.51299 0.47805 0.0
H566 H 0.32299 0.46143 0.38495 0.0
H567 H 0.38436 0.46512 0.46309 0.0
H568 H 0.41396 0.3755 0.43581 0.0
H569 H 0.3791 0.4125 0.45572 0.0
H570 H 0.36947 0.44794 0.36116 0.0
H571 H 0.40334 0.41073 0.34122 0.0
C572 C 0.32059 0.49997 0.414 0.0
C573 C 0.33241 0.51528 0.43983 0.0
C574 C 0.33193 0.47231 0.40555 0.0
C575 C 0.3555 0.45953 0.42261 0.0
C576 C 0.36596 0.47406 0.44964 0.0
C577 C 0.3545 0.5016 0.45819 0.0
C578 C 0.40387 0.39077 0.41918 0.0
C579 C 0.4119 0.39047 0.387 0.0
C580 C 0.38401 0.41207 0.43063 0.0
C581 C 0.37178 0.43343 0.41012 0.0
C582 C 0.37821 0.43172 0.37764 0.0
C583 C 0.39796 0.41048 0.36622 0.0
H584 H 0.85199 0.98801 0.97298 0.0
H585 H 0.81508 0.97107 0.88068 0.0
H586 H 0.87021 0.03562 0.95429 0.0
H587 H 0.83076 0.01979 0.86302 0.0
H588 H 0.91199 0.0734 0.82917 0.0
H589 H 0.87818 0.0359 0.84843 0.0
H590 H 0.86566 0.08468 0.93512 0.0
H591 H 0.90096 0.12203 0.91616 0.0
C592 C 0.8472 0.99464 0.94889 0.0
C593 C 0.83291 0.97515 0.9281 0.0
C594 C 0.85718 0.0223 0.93832 0.0
C595 C 0.85258 0.03133 0.90685 0.0
C596 C 0.83547 0.01317 0.88713 0.0
C597 C 0.82605 0.98528 0.89748 0.0
C598 C 0.90181 0.07649 0.85219 0.0
C599 C 0.90972 0.10049 0.87136 0.0
C600 C 0.882 0.05501 0.86316 0.0
C601 C 0.86922 0.05706 0.89349 0.0
C602 C 0.87551 0.08213 0.91187 0.0
C603 C 0.89564 0.10361 0.90094 0.0
H604 H 0.15111 0.01632 0.43684 0.0
H605 H 0.17534 0.94207 0.49635 0.0
H606 H 0.115 0.9854 0.40984 0.0
H607 H 0.14037 0.91079 0.46827 0.0
H608 H 0.04972 0.87469 0.43895 0.0
H609 H 0.08754 0.90462 0.46422 0.0
H610 H 0.11015 0.94447 0.37402 0.0
H611 H 0.07167 0.91504 0.34874 0.0
C612 C 0.14884 0.99337 0.44409 0.0
C613 C 0.16603 0.98176 0.46891 0.0
C614 C 0.12839 0.97553 0.42832 0.0
C615 C 0.1247 0.9456 0.43692 0.0
C616 C 0.14233 0.93384 0.46131 0.0
C617 C 0.16269 0.9517 0.47715 0.0
C618 C 0.06277 0.88976 0.42441 0.0
C619 C 0.05751 0.89249 0.39178 0.0
C620 C 0.08464 0.90682 0.43891 0.0
C621 C 0.10195 0.92695 0.42117 0.0
C622 C 0.09694 0.92948 0.38848 0.0
C623 C 0.07495 0.91248 0.37396 0.0
H624 H 0.1828 0.02124 0.92309 0.0
H625 H 0.11176 0.9817 0.97824 0.0
H626 H 0.14653 0.0528 0.8959 0.0
H627 H 0.07564 0.01312 0.95111 0.0
H628 H 0.03147 0.10329 0.92867 0.0
H629 H 0.0675 0.06936 0.95182 0.0
H630 H 0.10059 0.04794 0.85875 0.0
H631 H 0.06423 0.0819 0.83524 0.0
C632 C 0.15943 0.0192 0.92921 0.0
C633 C 0.15005 -0.00091 0.95277 0.0
C634 C 0.13872 0.03706 0.91354 0.0
C635 C 0.10837 0.03542 0.92155 0.0
C636 C 0.09896 0.01493 0.94467 0.0
C637 C 0.11957 0.99683 0.96 0.0
C638 C 0.04641 0.09142 0.91305 0.0
C639 C 0.04497 0.09529 0.88009 0.0
C640 C 0.06689 0.07185 0.92634 0.0
C641 C 0.08666 0.05597 0.90704 0.0
C642 C 0.08559 0.06002 0.87411 0.0
C643 C 0.06473 0.07932 0.86071 0.0
H644 H 0.83239 0.02299 0.43636 0.0
H645 H 0.89143 0.05839 0.36433 0.0
H646 H 0.84875 0.97282 0.42336 0.0
H647 H 0.90722 0.00861 0.35116 0.0
H648 H 0.91828 0.91735 0.31777 0.0
H649 H 0.88958 0.96182 0.32866 0.0
H650 H 0.89616 0.94438 0.42889 0.0
H651 H 0.9246 0.89946 0.41804 0.0
C652 C 0.84871 0.02009 0.41768 0.0
C653 C 0.86061 0.04473 0.40139 0.0
C654 C 0.85797 0.99139 0.41021 0.0
C655 C 0.87911 0.98679 0.38614 0.0
C656 C 0.89041 0.01136 0.36938 0.0
C657 C 0.88132 0.03996 0.37694 0.0
C658 C 0.91318 0.92267 0.34215 0.0
C659 C 0.92422 0.90519 0.36709 0.0
C660 C 0.89679 0.94819 0.34835 0.0
C661 C 0.89116 0.95688 0.37962 0.0
C662 C 0.90013 0.9382 0.40453 0.0
C663 C 0.91649 0.91251 0.39832 0.0
H664 H 0.38459 0.2915 0.09109 0.0
H665 H 0.31287 0.34589 0.12688 0.0
H666 H 0.40484 0.28737 0.14404 0.0
H667 H 0.33376 0.34228 0.17994 0.0
H668 H 0.41185 0.36456 0.25045 0.0
H669 H 0.38108 0.36245 0.20331 0.0
H670 H 0.39448 0.26789 0.19863 0.0
H671 H 0.4254 0.26981 0.24562 0.0
C672 C 0.37274 0.30204 0.11033 0.0
C673 C 0.34718 0.31918 0.10466 0.0
C674 C 0.3844 0.2997 0.1407 0.0
C675 C 0.3709 0.31459 0.16605 0.0
C676 C 0.34476 0.33085 0.16071 0.0
C677 C 0.33291 0.33299 0.13033 0.0
C678 C 0.40789 0.34323 0.2397 0.0
C679 C 0.42148 0.31743 0.25158 0.0
C680 C 0.39009 0.34202 0.21281 0.0
C681 C 0.38565 0.31504 0.1972 0.0
C682 C 0.39787 0.28902 0.21002 0.0
C683 C 0.4155 0.29017 0.237 0.0
H684 H 0.62422 0.58405 0.63038 0.0
H685 H 0.67614 0.66287 0.64697 0.0
H686 H 0.58887 0.599 0.67095 0.0
H687 H 0.64049 0.67794 0.68802 0.0
H688 H 0.55033 0.70349 0.73945 0.0
H689 H 0.58713 0.6933 0.69783 0.0
H690 H 0.59129 0.60199 0.72858 0.0
H691 H 0.5547 0.61182 0.76945 0.0
C692 C 0.62813 0.60455 0.64283 0.0
C693 C 0.65324 0.62202 0.63588 0.0
C694 C 0.60787 0.61313 0.66609 0.0
C695 C 0.61218 0.63939 0.68309 0.0
C696 C 0.63659 0.6576 0.67529 0.0
C697 C 0.65697 0.64898 0.65184 0.0
C698 C 0.55932 0.68132 0.73744 0.0
C699 C 0.5492 0.6584 0.75752 0.0
C700 C 0.58041 0.67553 0.71366 0.0
C701 C 0.59168 0.64672 0.70959 0.0
C702 C 0.58248 0.62424 0.73057 0.0
C703 C 0.56153 0.62996 0.75414 0.0
H704 H 0.67111 0.32534 0.13073 0.0
H705 H 0.64681 0.41628 0.14802 0.0
H706 H 0.63653 0.30909 0.17249 0.0
H707 H 0.61187 0.40033 0.18868 0.0
H708 H 0.57413 0.37061 0.28003 0.0
H709 H 0.61219 0.38122 0.24059 0.0
H710 H 0.58462 0.30467 0.18737 0.0
H711 H 0.54711 0.29332 0.22806 0.0
C712 C 0.6582 0.34178 0.14332 0.0
C713 C 0.66192 0.37209 0.13652 0.0
C714 C 0.63837 0.33252 0.16715 0.0
C715 C 0.62173 0.35341 0.18437 0.0
C716 C 0.62495 0.38363 0.1767 0.0
C717 C 0.6449 0.39283 0.15327 0.0
C718 C 0.5764 0.35585 0.26007 0.0
C719 C 0.55745 0.33136 0.25688 0.0
C720 C 0.59809 0.36204 0.2373 0.0
C721 C 0.60103 0.34426 0.21031 0.0
C722 C 0.58301 0.31883 0.20785 0.0
C723 C 0.5615 0.31233 0.23108 0.0
H724 H 0.32762 0.70364 0.61072 0.0
H725 H 0.37642 0.62191 0.59973 0.0
H726 H 0.3444 0.70682 0.66558 0.0
H727 H 0.39366 0.62539 0.65395 0.0
H728 H 0.4038 0.62496 0.75765 0.0
H729 H 0.37561 0.62283 0.70882 0.0
H730 H 0.39283 0.71575 0.69201 0.0
H731 H 0.4207 0.71815 0.74112 0.0
C732 C 0.34175 0.6863 0.62012 0.0
C733 C 0.35093 0.66265 0.60096 0.0
C734 C 0.35145 0.68819 0.65138 0.0
C735 C 0.37023 0.6663 0.66407 0.0
C736 C 0.37885 0.64238 0.64502 0.0
C737 C 0.36933 0.64059 0.61383 0.0
C738 C 0.40118 0.6451 0.74387 0.0
C739 C 0.41501 0.6716 0.75303 0.0
C740 C 0.3851 0.64382 0.71584 0.0
C741 C 0.3825 0.66898 0.69634 0.0
C742 C 0.3944 0.69601 0.7066 0.0
C743 C 0.41048 0.69732 0.73471 0.0
H744 H 0.87592 0.78114 0.08887 0.0
H745 H 0.8487 0.87189 0.10326 0.0
H746 H 0.89869 0.78045 0.14094 0.0
H747 H 0.86994 0.87063 0.15595 0.0
H748 H 0.94789 0.87016 0.22577 0.0
H749 H 0.91912 0.87055 0.17739 0.0
H750 H 0.88944 0.78118 0.19704 0.0
H751 H 0.91896 0.78042 0.24512 0.0
C752 C 0.87454 0.80084 0.10325 0.0
C753 C 0.86068 0.82663 0.09177 0.0
C754 C 0.88724 0.80032 0.13329 0.0
C755 C 0.88625 0.82554 0.15257 0.0
C756 C 0.87146 0.85097 0.14152 0.0
C757 C 0.85892 0.85154 0.11144 0.0
C758 C 0.93504 0.85065 0.21999 0.0
C759 C 0.93596 0.82517 0.23924 0.0
C760 C 0.91837 0.85095 0.19229 0.0
C761 C 0.90204 0.82585 0.18327 0.0
C762 C 0.90216 0.8007 0.20305 0.0
C763 C 0.91898 0.80034 0.2307 0.0
H764 H 0.13576 0.13485 0.59951 0.0
H765 H 0.19724 0.12789 0.67727 0.0
H766 H 0.09785 0.15449 0.63527 0.0
H767 H 0.1591 0.14756 0.71312 0.0
H768 H 0.08316 0.20243 0.76232 0.0
H769 H 0.12362 0.19449 0.72365 0.0
H770 H 0.07254 0.12462 0.68081 0.0
H771 H 0.03286 0.13203 0.71929 0.0
C772 C 0.1414 0.13818 0.62409 0.0
C773 C 0.16937 0.12964 0.63567 0.0
C774 C 0.11968 0.1493 0.64453 0.0
C775 C 0.12559 0.15242 0.6769 0.0
C776 C 0.15409 0.14555 0.68821 0.0
C777 C 0.17576 0.13406 0.66779 0.0
C778 C 0.08063 0.18561 0.74441 0.0
C779 C 0.05504 0.1677 0.74387 0.0
C780 C 0.1037 0.18102 0.72245 0.0
C781 C 0.10102 0.15906 0.69922 0.0
C782 C 0.07503 0.1419 0.69823 0.0
C783 C 0.05243 0.14601 0.72042 0.0
H784 H 0.20217 0.85442 0.16629 0.0
H785 H 0.12547 0.85042 0.10552 0.0
H786 H 0.17266 0.83329 0.20977 0.0
H787 H 0.09597 0.82948 0.14893 0.0
H788 H 0.05139 0.78145 0.22949 0.0
H789 H 0.08919 0.78658 0.18772 0.0
H790 H 0.13043 0.85757 0.23946 0.0
H791 H 0.09277 0.85262 0.28081 0.0
C792 C 0.17921 0.84835 0.16204 0.0
C793 C 0.16599 0.8543 0.13267 0.0
C794 C 0.16232 0.8364 0.18693 0.0
C795 C 0.132 0.82985 0.18276 0.0
C796 C 0.11934 0.83404 0.15278 0.0
C797 C 0.13612 0.84629 0.12803 0.0
C798 C 0.06904 0.79755 0.23228 0.0
C799 C 0.06903 0.81682 0.2582 0.0
C800 C 0.09052 0.8006 0.20833 0.0
C801 C 0.11263 0.82258 0.21027 0.0
C802 C 0.11384 0.84028 0.23739 0.0
C803 C 0.09216 0.83757 0.26099 0.0
H804 H 0.84305 0.21741 0.59158 0.0
H805 H 0.89578 0.13884 0.57581 0.0
H806 H 0.85641 0.21618 0.64759 0.0
H807 H 0.90965 0.13801 0.63131 0.0
H808 H 0.91402 0.12921 0.73538 0.0
H809 H 0.88874 0.13011 0.68468 0.0
H810 H 0.90287 0.22455 0.67764 0.0
H811 H 0.92778 0.2239 0.72854 0.0
C812 C 0.85732 0.1998 0.60015 0.0
C813 C 0.8686 0.17836 0.57936 0.0
C814 C 0.86506 0.19919 0.63211 0.0
C815 C 0.88397 0.17695 0.64383 0.0
C816 C 0.89469 0.15518 0.6231 0.0
C817 C 0.88711 0.1559 0.59122 0.0
C818 C 0.91128 0.15029 0.72337 0.0
C819 C 0.92345 0.1764 0.7358 0.0
C820 C 0.8969 0.15075 0.69425 0.0
C821 C 0.89432 0.1773 0.67698 0.0
C822 C 0.90447 0.20376 0.69045 0.0
C823 C 0.91888 0.20333 0.71959 0.0
loop_
_geom_bond_atom_site_label_1
_geom_bond_atom_site_label_2
_geom_bond_distance
_geom_bond_site_symmetry_2
_ccdc_geom_bond_type
P0 O11 1.490 . S
P0 C14 1.812 1_556 S
P0 C20 1.803 . S
P0 C26 1.819 . S
H1 C15 0.941 . S
H2 C16 0.939 . S
H3 C18 0.940 . S
H4 C19 0.940 . S
H5 C21 0.939 . S
H6 C22 0.942 . S
H7 C24 0.940 1_554 S
H8 C25 0.939 . S
H9 C27 0.941 . S
H10 C31 0.939 . S
O11 P0 1.490 . S
H12 C28 0.939 . S
H13 C30 0.940 . S
C14 P0 1.812 1_554 S
C14 C15 1.389 . S
C14 C19 1.391 . S
C15 H1 0.941 . S
C15 C14 1.389 . S
C15 C16 1.397 . S
C16 H2 0.939 . S
C16 C15 1.397 . S
C16 C17 1.378 . S
C17 C16 1.378 . S
C17 C18 1.378 . S
C18 H3 0.940 . S
C18 C17 1.378 . S
C18 C19 1.396 . S
C19 H4 0.940 . S
C19 C14 1.391 . S
C19 C18 1.396 . S
C20 P0 1.803 . S
C20 C21 1.378 . S
C20 C25 1.400 1_556 S
C21 H5 0.939 . S
C21 C20 1.378 . S
C21 C22 1.361 . S
C22 H6 0.942 . S
C22 C21 1.361 . S
C22 C23 1.369 . S
C23 C22 1.369 . S
C23 C24 1.404 . S
C24 H7 0.940 1_556 S
C24 C23 1.404 . S
C24 C25 1.389 1_556 S
C25 H8 0.939 . S
C25 C20 1.400 1_554 S
C25 C24 1.389 1_554 S
C26 P0 1.819 . S
C26 C27 1.391 . S
C26 C31 1.391 . S
C27 H9 0.941 . S
C27 C26 1.391 . S
C27 C28 1.396 . S
C28 H12 0.939 . S
C28 C27 1.396 . S
C28 C29 1.397 . S
C29 C28 1.397 . S
C29 C30 1.385 . S
C30 H13 0.940 . S
C30 C29 1.385 . S
C30 C31 1.388 . S
C31 H10 0.939 . S
C31 C26 1.391 . S
C31 C30 1.388 . S
P32 O43 1.490 . S
P32 C46 1.812 . S
P32 C52 1.803 . S
P32 C58 1.819 . S
H33 C47 0.941 . S
H34 C48 0.939 . S
H35 C50 0.940 . S
H36 C51 0.940 . S
H37 C53 0.939 . S
H38 C54 0.942 . S
H39 C56 0.940 . S
H40 C57 0.939 . S
H41 C59 0.941 . S
H42 C63 0.939 . S
O43 P32 1.490 . S
H44 C60 0.939 . S
H45 C62 0.940 . S
C46 P32 1.812 . S
C46 C47 1.389 . S
C46 C51 1.391 . S
C47 H33 0.941 . S
C47 C46 1.389 . S
C47 C48 1.397 . S
C48 H34 0.939 . S
C48 C47 1.397 . S
C48 C49 1.378 . S
C49 C48 1.378 . S
C49 C50 1.378 . S
C50 H35 0.940 . S
C50 C49 1.378 . S
C50 C51 1.396 . S
C51 H36 0.940 . S
C51 C46 1.391 . S
C51 C50 1.396 . S
C52 P32 1.803 . S
C52 C53 1.378 . S
C52 C57 1.400 . S
C53 H37 0.939 . S
C53 C52 1.378 . S
C53 C54 1.361 . S
C54 H38 0.942 . S
C54 C53 1.361 . S
C54 C55 1.369 . S
C55 C54 1.369 . S
C55 C56 1.404 . S
C56 H39 0.940 . S
C56 C55 1.404 . S
C56 C57 1.389 . S
C57 H40 0.939 . S
C57 C52 1.400 . S
C57 C56 1.389 . S
C58 P32 1.819 . S
C58 C59 1.391 . S
C58 C63 1.391 . S
C59 H41 0.941 . S
C59 C58 1.391 . S
C59 C60 1.396 . S
C60 H44 0.939 . S
C60 C59 1.396 . S
C60 C61 1.397 . S
C61 C60 1.397 . S
C61 C62 1.385 . S
C62 H45 0.940 . S
C62 C61 1.385 . S
C62 C63 1.388 . S
C63 H42 0.939 . S
C63 C58 1.391 . S
C63 C62 1.388 . S
P64 O75 1.490 . S
P64 C78 1.812 . S
P64 C84 1.803 . S
P64 C90 1.819 . S
H65 C79 0.941 . S
H66 C80 0.939 . S
H67 C82 0.940 . S
H68 C83 0.940 . S
H69 C85 0.936 1_554 S
H70 C86 0.942 . S
H71 C88 0.940 . S
H72 C89 0.939 . S
H73 C91 0.941 . S
H74 C95 0.939 . S
O75 P64 1.490 . S
H76 C92 0.939 . S
H77 C94 0.940 . S
C78 P64 1.812 . S
C78 C79 1.389 . S
C78 C83 1.391 . S
C79 H65 0.941 . S
C79 C78 1.389 . S
C79 C80 1.397 . S
C80 H66 0.939 . S
C80 C79 1.397 . S
C80 C81 1.378 . S
C81 C80 1.378 . S
C81 C82 1.378 . S
C82 H67 0.940 . S
C82 C81 1.378 . S
C82 C83 1.396 . S
C83 H68 0.940 . S
C83 C78 1.391 . S
C83 C82 1.396 . S
C84 P64 1.803 . S
C84 C85 1.378 1_554 S
C84 C89 1.400 . S
C85 H69 0.936 1_556 S
C85 C84 1.378 1_556 S
C85 C86 1.361 . S
C86 H70 0.942 . S
C86 C85 1.361 . S
C86 C87 1.369 . S
C87 C86 1.369 . S
C87 C88 1.404 . S
C88 H71 0.940 . S
C88 C87 1.404 . S
C88 C89 1.389 1_556 S
C89 H72 0.939 . S
C89 C84 1.400 . S
C89 C88 1.389 1_554 S
C90 P64 1.819 . S
C90 C91 1.391 . S
C90 C95 1.391 1_554 S
C91 H73 0.941 . S
C91 C90 1.391 . S
C91 C92 1.396 1_554 S
C92 H76 0.939 . S
C92 C91 1.396 1_556 S
C92 C93 1.397 . S
C93 C92 1.397 . S
C93 C94 1.385 . S
C94 H77 0.940 . S
C94 C93 1.385 . S
C94 C95 1.388 . S
C95 H74 0.939 . S
C95 C90 1.391 1_556 S
C95 C94 1.388 . S
P96 O107 1.490 . S
P96 C110 1.812 . S
P96 C116 1.803 . S
P96 C122 1.819 . S
H97 C111 0.941 . S
H98 C112 0.939 . S
H99 C114 0.940 . S
H100 C115 0.940 . S
H101 C117 0.939 . S
H102 C118 0.942 . S
H103 C120 0.940 . S
H104 C121 0.939 . S
H105 C123 0.941 . S
H106 C127 0.939 . S
O107 P96 1.490 . S
H108 C124 0.939 . S
H109 C126 0.940 . S
C110 P96 1.812 . S
C110 C111 1.389 . S
C110 C115 1.391 . S
C111 H97 0.941 . S
C111 C110 1.389 . S
C111 C112 1.397 . S
C112 H98 0.939 . S
C112 C111 1.397 . S
C112 C113 1.378 . S
C113 C112 1.378 . S
C113 C114 1.378 . S
C114 H99 0.940 . S
C114 C113 1.378 . S
C114 C115 1.396 . S
C115 H100 0.940 . S
C115 C110 1.391 . S
C115 C114 1.396 . S
C116 P96 1.803 . S
C116 C117 1.378 . S
C116 C121 1.400 . S
C117 H101 0.939 . S
C117 C116 1.378 . S
C117 C118 1.361 . S
C118 H102 0.942 . S
C118 C117 1.361 . S
C118 C119 1.369 . S
C119 C118 1.369 . S
C119 C120 1.404 . S
C120 H103 0.940 . S
C120 C119 1.404 . S
C120 C121 1.389 . S
C121 H104 0.939 . S
C121 C116 1.400 . S
C121 C120 1.389 . S
C122 P96 1.819 . S
C122 C123 1.391 . S
C122 C127 1.391 . S
C123 H105 0.941 . S
C123 C122 1.391 . S
C123 C124 1.396 . S
C124 H108 0.939 . S
C124 C123 1.396 . S
C124 C125 1.397 . S
C125 C124 1.397 . S
C125 C126 1.385 . S
C126 H109 0.940 . S
C126 C125 1.385 . S
C126 C127 1.388 . S
C127 H106 0.939 . S
C127 C122 1.391 . S
C127 C126 1.388 . S
P128 O139 1.490 . S
P128 C142 1.812 1_556 S
P128 C148 1.803 . S
P128 C154 1.819 . S
H129 C143 0.941 . S
H130 C144 0.939 . S
H131 C146 0.940 . S
H132 C147 0.940 . S
H133 C149 0.939 . S
H134 C150 0.942 . S
H135 C152 0.940 1_554 S
H136 C153 0.939 . S
H137 C155 0.941 . S
H138 C159 0.939 . S
O139 P128 1.490 . S
H140 C156 0.939 . S
H141 C158 0.940 . S
C142 P128 1.812 1_554 S
C142 C143 1.389 . S
C142 C147 1.391 . S
C143 H129 0.941 . S
C143 C142 1.389 . S
C143 C144 1.397 . S
C144 H130 0.939 . S
C144 C143 1.397 . S
C144 C145 1.378 . S
C145 C144 1.378 . S
C145 C146 1.378 . S
C146 H131 0.940 . S
C146 C145 1.378 . S
C146 C147 1.396 . S
C147 H132 0.940 . S
C147 C142 1.391 . S
C147 C146 1.396 . S
C148 P128 1.803 . S
C148 C149 1.378 . S
C148 C153 1.400 1_556 S
C149 H133 0.939 . S
C149 C148 1.378 . S
C149 C150 1.361 . S
C150 H134 0.942 . S
C150 C149 1.361 . S
C150 C151 1.369 . S
C151 C150 1.369 . S
C151 C152 1.404 . S
C152 H135 0.940 1_556 S
C152 C151 1.404 . S
C152 C153 1.389 1_556 S
C153 H136 0.939 . S
C153 C148 1.400 1_554 S
C153 C152 1.389 1_554 S
C154 P128 1.819 . S
C154 C155 1.391 . S
C154 C159 1.391 . S
C155 H137 0.941 . S
C155 C154 1.391 . S
C155 C156 1.396 . S
C156 H140 0.939 . S
C156 C155 1.396 . S
C156 C157 1.397 . S
C157 C156 1.397 . S
C157 C158 1.385 . S
C158 H141 0.940 . S
C158 C157 1.385 . S
C158 C159 1.388 . S
C159 H138 0.939 . S
C159 C154 1.391 . S
C159 C158 1.388 . S
P160 O171 1.490 . S
P160 C174 1.812 . S
P160 C180 1.803 . S
P160 C186 1.819 . S
H161 C175 0.941 . S
H162 C176 0.939 1_565 S
H163 C178 0.940 . S
H164 C179 0.940 . S
H165 C181 0.939 . S
H166 C182 0.942 . S
H167 C184 0.940 . S
H168 C185 0.939 . S
H169 C187 0.941 . S
H170 C191 0.939 . S
O171 P160 1.490 . S
H172 C188 0.939 . S
H173 C190 0.940 . S
C174 P160 1.812 . S
C174 C175 1.389 . S
C174 C179 1.391 . S
C175 H161 0.941 . S
C175 C174 1.389 . S
C175 C176 1.397 . S
C176 H162 0.939 1_545 S
C176 C175 1.397 . S
C176 C177 1.378 . S
C177 C176 1.378 . S
C177 C178 1.378 . S
C178 H163 0.940 . S
C178 C177 1.378 . S
C178 C179 1.396 . S
C179 H164 0.940 . S
C179 C174 1.391 . S
C179 C178 1.396 . S
C180 P160 1.803 . S
C180 C181 1.378 . S
C180 C185 1.400 . S
C181 H165 0.939 . S
C181 C180 1.378 . S
C181 C182 1.361 . S
C182 H166 0.942 . S
C182 C181 1.361 . S
C182 C183 1.369 . S
C183 C182 1.369 . S
C183 C184 1.404 . S
C184 H167 0.940 . S
C184 C183 1.404 . S
C184 C185 1.389 . S
C185 H168 0.939 . S
C185 C180 1.400 . S
C185 C184 1.389 . S
C186 P160 1.819 . S
C186 C187 1.391 . S
C186 C191 1.391 . S
C187 H169 0.941 . S
C187 C186 1.391 . S
C187 C188 1.396 . S
C188 H172 0.939 . S
C188 C187 1.396 . S
C188 C189 1.397 . S
C189 C188 1.397 . S
C189 C190 1.385 . S
C190 H173 0.940 . S
C190 C189 1.385 . S
C190 C191 1.388 . S
C191 H170 0.939 . S
C191 C186 1.391 . S
C191 C190 1.388 . S
P192 O203 1.490 . S
P192 C206 1.812 . S
P192 C212 1.803 . S
P192 C218 1.819 . S
H193 C207 0.941 . S
H194 C208 0.939 . S
H195 C210 0.940 . S
H196 C211 0.940 . S
H197 C213 0.936 1_554 S
H198 C214 0.942 . S
H199 C216 0.940 . S
H200 C217 0.939 . S
H201 C219 0.941 . S
H202 C223 0.939 . S
O203 P192 1.490 . S
H204 C220 0.939 1_545 S
H205 C222 0.940 . S
C206 P192 1.812 . S
C206 C207 1.389 . S
C206 C211 1.391 . S
C207 H193 0.941 . S
C207 C206 1.389 . S
C207 C208 1.397 . S
C208 H194 0.939 . S
C208 C207 1.397 . S
C208 C209 1.378 . S
C209 C208 1.378 . S
C209 C210 1.378 . S
C210 H195 0.940 . S
C210 C209 1.378 . S
C210 C211 1.396 . S
C211 H196 0.940 . S
C211 C206 1.391 . S
C211 C210 1.396 . S
C212 P192 1.803 . S
C212 C213 1.378 1_554 S
C212 C217 1.400 . S
C213 H197 0.936 1_556 S
C213 C212 1.378 1_556 S
C213 C214 1.361 . S
C214 H198 0.942 . S
C214 C213 1.361 . S
C214 C215 1.369 . S
C215 C214 1.369 . S
C215 C216 1.404 . S
C216 H199 0.940 . S
C216 C215 1.404 . S
C216 C217 1.389 1_556 S
C217 H200 0.939 . S
C217 C212 1.400 . S
C217 C216 1.389 1_554 S
C218 P192 1.819 . S
C218 C219 1.391 . S
C218 C223 1.391 1_554 S
C219 H201 0.941 . S
C219 C218 1.391 . S
C219 C220 1.396 1_554 S
C220 H204 0.939 1_565 S
C220 C219 1.396 1_556 S
C220 C221 1.397 . S
C221 C220 1.397 . S
C221 C222 1.385 . S
C222 H205 0.940 . S
C222 C221 1.385 . S
C222 C223 1.388 . S
C223 H202 0.939 . S
C223 C218 1.391 1_556 S
C223 C222 1.388 . S
P224 O235 1.490 . S
P224 C238 1.812 . S
P224 C244 1.803 . S
P224 C250 1.819 . S
H225 C239 0.941 . S
H226 C240 0.939 . S
H227 C242 0.940 . S
H228 C243 0.940 . S
H229 C245 0.939 . S
H230 C246 0.942 . S
H231 C248 0.940 . S
H232 C249 0.939 . S
H233 C251 0.941 . S
H234 C255 0.939 . S
O235 P224 1.490 . S
H236 C252 0.939 . S
H237 C254 0.940 . S
C238 P224 1.812 . S
C238 C239 1.389 . S
C238 C243 1.391 . S
C239 H225 0.941 . S
C239 C238 1.389 . S
C239 C240 1.397 . S
C240 H226 0.939 . S
C240 C239 1.397 . S
C240 C241 1.378 . S
C241 C240 1.378 . S
C241 C242 1.378 . S
C242 H227 0.940 . S
C242 C241 1.378 . S
C242 C243 1.396 . S
C243 H228 0.940 . S
C243 C238 1.391 . S
C243 C242 1.396 . S
C244 P224 1.803 . S
C244 C245 1.378 . S
C244 C249 1.400 . S
C245 H229 0.939 . S
C245 C244 1.378 . S
C245 C246 1.361 . S
C246 H230 0.942 . S
C246 C245 1.361 . S
C246 C247 1.369 . S
C247 C246 1.369 . S
C247 C248 1.404 . S
C248 H231 0.940 . S
C248 C247 1.404 . S
C248 C249 1.389 . S
C249 H232 0.939 . S
C249 C244 1.400 . S
C249 C248 1.389 . S
C250 P224 1.819 . S
C250 C251 1.391 . S
C250 C255 1.391 . S
C251 H233 0.941 . S
C251 C250 1.391 . S
C251 C252 1.396 . S
C252 H236 0.939 . S
C252 C251 1.396 . S
C252 C253 1.397 . S
C253 C252 1.397 . S
C253 C254 1.385 . S
C254 H237 0.940 . S
C254 C253 1.385 . S
C254 C255 1.388 . S
C255 H234 0.939 . S
C255 C250 1.391 . S
C255 C254 1.388 . S
Sc256 O259 2.025 . S
Sc256 O266 2.105 1_455 S
Sc256 O269 2.105 . S
Sc256 O272 2.105 . S
Sc256 O275 2.105 1_455 S
Sc257 O259 2.025 . S
Sc257 O267 2.105 1_455 S
Sc257 O271 2.105 . S
Sc257 O273 2.105 . S
Sc257 O277 2.105 1_455 S
Sc258 O259 2.025 . S
Sc258 O268 2.105 1_455 S
Sc258 O270 2.105 . S
Sc258 O274 2.105 . S
Sc258 O276 2.105 1_455 S
O259 Sc256 2.025 . S
O259 Sc257 2.025 . S
O259 Sc258 2.025 . S
C260 O266 1.268 . S
C260 O276 1.268 . S
C261 O267 1.268 . S
C261 O275 1.268 . S
C262 O268 1.268 . S
C262 O277 1.268 . S
C263 O269 1.268 . S
C263 O273 1.268 . S
C264 O270 1.268 . S
C264 O272 1.268 . S
C265 O271 1.268 . S
C265 O274 1.268 . S
O266 Sc256 2.105 1_655 S
O266 C260 1.268 . S
O267 Sc257 2.105 1_655 S
O267 C261 1.268 . S
O268 Sc258 2.105 1_655 S
O268 C262 1.268 . S
O269 Sc256 2.105 . S
O269 C263 1.268 . S
O270 Sc258 2.105 . S
O270 C264 1.268 . S
O271 Sc257 2.105 . S
O271 C265 1.268 . S
O272 Sc256 2.105 . S
O272 C264 1.268 . S
O273 Sc257 2.105 . S
O273 C263 1.268 . S
O274 Sc258 2.105 . S
O274 C265 1.268 . S
O275 Sc256 2.105 1_655 S
O275 C261 1.268 . S
O276 Sc258 2.105 1_655 S
O276 C260 1.268 . S
O277 Sc257 2.105 1_655 S
O277 C262 1.268 . S
Sc278 O281 2.025 . S
Sc278 O288 2.105 . S
Sc278 O291 2.105 1_455 S
Sc278 O294 2.105 1_455 S
Sc278 O297 2.105 . S
Sc279 O281 2.025 . S
Sc279 O289 2.105 . S
Sc279 O293 2.105 1_455 S
Sc279 O295 2.105 1_455 S
Sc279 O299 2.105 . S
Sc280 O281 2.025 . S
Sc280 O290 2.105 . S
Sc280 O292 2.105 1_455 S
Sc280 O296 2.105 1_455 S
Sc280 O298 2.105 . S
O281 Sc278 2.025 . S
O281 Sc279 2.025 . S
O281 Sc280 2.025 . S
C282 O288 1.268 . S
C282 O298 1.268 . S
C283 O289 1.268 . S
C283 O297 1.268 . S
C284 O290 1.268 . S
C284 O299 1.268 . S
C285 O291 1.268 . S
C285 O295 1.268 . S
C286 O292 1.268 . S
C286 O294 1.268 . S
C287 O293 1.268 . S
C287 O296 1.268 . S
O288 Sc278 2.105 . S
O288 C282 1.268 . S
O289 Sc279 2.105 . S
O289 C283 1.268 . S
O290 Sc280 2.105 . S
O290 C284 1.268 . S
O291 Sc278 2.105 1_655 S
O291 C285 1.268 . S
O292 Sc280 2.105 1_655 S
O292 C286 1.268 . S
O293 Sc279 2.105 1_655 S
O293 C287 1.268 . S
O294 Sc278 2.105 1_655 S
O294 C286 1.268 . S
O295 Sc279 2.105 1_655 S
O295 C285 1.268 . S
O296 Sc280 2.105 1_655 S
O296 C287 1.268 . S
O297 Sc278 2.105 . S
O297 C283 1.268 . S
O298 Sc280 2.105 . S
O298 C282 1.268 . S
O299 Sc279 2.105 . S
O299 C284 1.268 . S
Sc300 O303 2.025 . S
Sc300 O310 2.105 . S
Sc300 O313 2.105 . S
Sc300 O316 2.105 . S
Sc300 O319 2.105 . S
Sc301 O303 2.025 . S
Sc301 O311 2.105 . S
Sc301 O315 2.105 . S
Sc301 O317 2.105 . S
Sc301 O321 2.105 . S
Sc302 O303 2.025 . S
Sc302 O312 2.105 . S
Sc302 O314 2.105 . S
Sc302 O318 2.105 . S
Sc302 O320 2.105 . S
O303 Sc300 2.025 . S
O303 Sc301 2.025 . S
O303 Sc302 2.025 . S
C304 O310 1.268 . S
C304 O320 1.268 . S
C305 O311 1.268 . S
C305 O319 1.268 . S
C306 O312 1.268 . S
C306 O321 1.268 . S
C307 O313 1.268 . S
C307 O317 1.268 . S
C308 O314 1.268 . S
C308 O316 1.268 . S
C309 O315 1.268 . S
C309 O318 1.268 . S
O310 Sc300 2.105 . S
O310 C304 1.268 . S
O311 Sc301 2.105 . S
O311 C305 1.268 . S
O312 Sc302 2.105 . S
O312 C306 1.268 . S
O313 Sc300 2.105 . S
O313 C307 1.268 . S
O314 Sc302 2.105 . S
O314 C308 1.268 . S
O315 Sc301 2.105 . S
O315 C309 1.268 . S
O316 Sc300 2.105 . S
O316 C308 1.268 . S
O317 Sc301 2.105 . S
O317 C307 1.268 . S
O318 Sc302 2.105 . S
O318 C309 1.268 . S
O319 Sc300 2.105 . S
O319 C305 1.268 . S
O320 Sc302 2.105 . S
O320 C304 1.268 . S
O321 Sc301 2.105 . S
O321 C306 1.268 . S
Sc322 O325 2.025 . S
Sc322 O332 2.105 . S
Sc322 O335 2.105 . S
Sc322 O338 2.105 . S
Sc322 O341 2.105 . S
Sc323 O325 2.025 . S
Sc323 O333 2.105 . S
Sc323 O337 2.105 . S
Sc323 O339 2.105 . S
Sc323 O343 2.105 . S
Sc324 O325 2.025 . S
Sc324 O334 2.105 . S
Sc324 O336 2.105 . S
Sc324 O340 2.105 . S
Sc324 O342 2.105 . S
O325 Sc322 2.025 . S
O325 Sc323 2.025 . S
O325 Sc324 2.025 . S
C326 O332 1.268 . S
C326 O342 1.268 . S
C327 O333 1.268 . S
C327 O341 1.268 . S
C328 O334 1.268 . S
C328 O343 1.268 . S
C329 O335 1.268 . S
C329 O339 1.268 . S
C330 O336 1.268 . S
C330 O338 1.268 . S
C331 O337 1.268 . S
C331 O340 1.268 . S
O332 Sc322 2.105 . S
O332 C326 1.268 . S
O333 Sc323 2.105 . S
O333 C327 1.268 . S
O334 Sc324 2.105 . S
O334 C328 1.268 . S
O335 Sc322 2.105 . S
O335 C329 1.268 . S
O336 Sc324 2.105 . S
O336 C330 1.268 . S
O337 Sc323 2.105 . S
O337 C331 1.268 . S
O338 Sc322 2.105 . S
O338 C330 1.268 . S
O339 Sc323 2.105 . S
O339 C329 1.268 . S
O340 Sc324 2.105 . S
O340 C331 1.268 . S
O341 Sc322 2.105 . S
O341 C327 1.268 . S
O342 Sc324 2.105 . S
O342 C326 1.268 . S
O343 Sc323 2.105 . S
O343 C328 1.268 . S
H344 C352 0.950 . S
H345 C357 0.950 . S
H346 C354 0.950 . S
H347 C356 0.950 . S
H348 C358 0.950 . S
H349 C360 0.950 . S
H350 C362 0.950 . S
H351 C363 0.950 . S
C352 H344 0.950 . S
C352 C353 1.386 . S
C352 C354 1.391 . S
C353 C352 1.386 . S
C353 C357 1.393 . S
C354 H346 0.950 . S
C354 C352 1.391 . S
C354 C355 1.400 . S
C355 C354 1.400 . S
C355 C356 1.398 . S
C355 C361 1.491 . S
C356 H347 0.950 . S
C356 C355 1.398 . S
C356 C357 1.391 . S
C357 H345 0.950 . S
C357 C353 1.393 . S
C357 C356 1.391 . S
C358 H348 0.950 . S
C358 C359 1.386 . S
C358 C360 1.391 . S
C359 C358 1.386 . S
C359 C363 1.393 . S
C360 H349 0.950 . S
C360 C358 1.391 . S
C360 C361 1.400 . S
C361 C355 1.491 . S
C361 C360 1.400 . S
C361 C362 1.398 . S
C362 H350 0.950 . S
C362 C361 1.398 . S
C362 C363 1.391 . S
C363 H351 0.950 . S
C363 C359 1.393 . S
C363 C362 1.391 . S
H364 C372 0.950 . S
H365 C377 0.950 . S
H366 C374 0.950 . S
H367 C376 0.950 . S
H368 C378 0.950 . S
H369 C380 0.950 . S
H370 C382 0.950 . S
H371 C383 0.950 . S
C372 H364 0.950 . S
C372 C373 1.386 . S
C372 C374 1.391 . S
C373 C372 1.386 . S
C373 C377 1.393 . S
C374 H366 0.950 . S
C374 C372 1.391 . S
C374 C375 1.400 . S
C375 C374 1.400 . S
C375 C376 1.398 . S
C375 C381 1.491 . S
C376 H367 0.950 . S
C376 C375 1.398 . S
C376 C377 1.391 . S
C377 H365 0.950 . S
C377 C373 1.393 . S
C377 C376 1.391 . S
C378 H368 0.950 . S
C378 C379 1.386 . S
C378 C380 1.391 . S
C379 C378 1.386 . S
C379 C383 1.393 . S
C380 H369 0.950 . S
C380 C378 1.391 . S
C380 C381 1.400 . S
C381 C375 1.491 . S
C381 C380 1.400 . S
C381 C382 1.398 . S
C382 H370 0.950 . S
C382 C381 1.398 . S
C382 C383 1.391 . S
C383 H371 0.950 . S
C383 C379 1.393 . S
C383 C382 1.391 . S
H384 C392 0.950 . S
H385 C397 0.950 . S
H386 C394 0.950 . S
H387 C396 0.950 . S
H388 C398 0.950 . S
H389 C400 0.950 . S
H390 C402 0.950 . S
H391 C403 0.950 . S
C392 H384 0.950 . S
C392 C393 1.386 . S
C392 C394 1.391 . S
C393 C392 1.386 . S
C393 C397 1.393 . S
C394 H386 0.950 . S
C394 C392 1.391 . S
C394 C395 1.400 . S
C395 C394 1.400 . S
C395 C396 1.398 . S
C395 C401 1.491 . S
C396 H387 0.950 . S
C396 C395 1.398 . S
C396 C397 1.391 . S
C397 H385 0.950 . S
C397 C393 1.393 . S
C397 C396 1.391 . S
C398 H388 0.950 . S
C398 C399 1.386 . S
C398 C400 1.391 . S
C399 C398 1.386 . S
C399 C403 1.393 . S
C400 H389 0.950 . S
C400 C398 1.391 . S
C400 C401 1.400 . S
C401 C395 1.491 . S
C401 C400 1.400 . S
C401 C402 1.398 . S
C402 H390 0.950 . S
C402 C401 1.398 . S
C402 C403 1.391 . S
C403 H391 0.950 . S
C403 C399 1.393 . S
C403 C402 1.391 . S
H404 C412 0.950 . S
H405 C417 0.950 . S
H406 C414 0.950 . S
H407 C416 0.950 . S
H408 C418 0.950 . S
H409 C420 0.950 . S
H410 C422 0.950 . S
H411 C423 0.950 . S
C412 H404 0.950 . S
C412 C413 1.386 . S
C412 C414 1.391 . S
C413 C412 1.386 . S
C413 C417 1.393 . S
C414 H406 0.950 . S
C414 C412 1.391 . S
C414 C415 1.400 . S
C415 C414 1.400 . S
C415 C416 1.398 . S
C415 C421 1.491 . S
C416 H407 0.950 . S
C416 C415 1.398 . S
C416 C417 1.391 . S
C417 H405 0.950 . S
C417 C413 1.393 . S
C417 C416 1.391 . S
C418 H408 0.950 . S
C418 C419 1.386 . S
C418 C420 1.391 . S
C419 C418 1.386 . S
C419 C423 1.393 . S
C420 H409 0.950 . S
C420 C418 1.391 . S
C420 C421 1.400 . S
C421 C415 1.491 . S
C421 C420 1.400 . S
C421 C422 1.398 . S
C422 H410 0.950 . S
C422 C421 1.398 . S
C422 C423 1.391 . S
C423 H411 0.950 . S
C423 C419 1.393 . S
C423 C422 1.391 . S
H424 C432 0.950 . S
H425 C437 0.950 . S
H426 C434 0.950 . S
H427 C436 0.950 . S
H428 C438 0.950 . S
H429 C440 0.950 . S
H430 C442 0.950 . S
H431 C443 0.950 . S
C432 H424 0.950 . S
C432 C433 1.386 . S
C432 C434 1.391 . S
C433 C432 1.386 . S
C433 C437 1.393 . S
C434 H426 0.950 . S
C434 C432 1.391 . S
C434 C435 1.400 . S
C435 C434 1.400 . S
C435 C436 1.398 . S
C435 C441 1.491 . S
C436 H427 0.950 . S
C436 C435 1.398 . S
C436 C437 1.391 . S
C437 H425 0.950 . S
C437 C433 1.393 . S
C437 C436 1.391 . S
C438 H428 0.950 . S
C438 C439 1.386 . S
C438 C440 1.391 . S
C439 C438 1.386 . S
C439 C443 1.393 . S
C440 H429 0.950 . S
C440 C438 1.391 . S
C440 C441 1.400 . S
C441 C435 1.491 . S
C441 C440 1.400 . S
C441 C442 1.398 . S
C442 H430 0.950 . S
C442 C441 1.398 . S
C442 C443 1.391 . S
C443 H431 0.950 . S
C443 C439 1.393 . S
C443 C442 1.391 . S
H444 C452 0.950 . S
H445 C457 0.950 . S
H446 C454 0.950 . S
H447 C456 0.950 . S
H448 C458 0.950 . S
H449 C460 0.950 . S
H450 C462 0.950 . S
H451 C463 0.950 . S
C452 H444 0.950 . S
C452 C453 1.386 . S
C452 C454 1.391 . S
C453 C452 1.386 . S
C453 C457 1.393 . S
C454 H446 0.950 . S
C454 C452 1.391 . S
C454 C455 1.400 . S
C455 C454 1.400 . S
C455 C456 1.398 . S
C455 C461 1.491 . S
C456 H447 0.950 . S
C456 C455 1.398 . S
C456 C457 1.391 . S
C457 H445 0.950 . S
C457 C453 1.393 . S
C457 C456 1.391 . S
C458 H448 0.950 . S
C458 C459 1.386 . S
C458 C460 1.391 . S
C459 C458 1.386 . S
C459 C463 1.393 . S
C460 H449 0.950 . S
C460 C458 1.391 . S
C460 C461 1.400 . S
C461 C455 1.491 . S
C461 C460 1.400 . S
C461 C462 1.398 . S
C462 H450 0.950 . S
C462 C461 1.398 . S
C462 C463 1.391 . S
C463 H451 0.950 . S
C463 C459 1.393 . S
C463 C462 1.391 . S
H464 C472 0.950 . S
H465 C477 0.950 . S
H466 C474 0.950 . S
H467 C476 0.950 . S
H468 C478 0.950 . S
H469 C480 0.950 . S
H470 C482 0.950 . S
H471 C483 0.950 . S
C472 H464 0.950 . S
C472 C473 1.386 . S
C472 C474 1.391 . S
C473 C472 1.386 . S
C473 C477 1.393 . S
C474 H466 0.950 . S
C474 C472 1.391 . S
C474 C475 1.400 . S
C475 C474 1.400 . S
C475 C476 1.398 . S
C475 C481 1.491 . S
C476 H467 0.950 . S
C476 C475 1.398 . S
C476 C477 1.391 . S
C477 H465 0.950 . S
C477 C473 1.393 . S
C477 C476 1.391 . S
C478 H468 0.950 . S
C478 C479 1.386 . S
C478 C480 1.391 . S
C479 C478 1.386 . S
C479 C483 1.393 . S
C480 H469 0.950 . S
C480 C478 1.391 . S
C480 C481 1.400 . S
C481 C475 1.491 . S
C481 C480 1.400 . S
C481 C482 1.398 . S
C482 H470 0.950 . S
C482 C481 1.398 . S
C482 C483 1.391 . S
C483 H471 0.950 . S
C483 C479 1.393 . S
C483 C482 1.391 . S
H484 C492 0.950 . S
H485 C497 0.950 . S
H486 C494 0.950 . S
H487 C496 0.950 . S
H488 C498 0.950 . S
H489 C500 0.950 . S
H490 C502 0.950 . S
H491 C503 0.950 . S
C492 H484 0.950 . S
C492 C493 1.386 . S
C492 C494 1.391 . S
C493 C492 1.386 . S
C493 C497 1.393 . S
C494 H486 0.950 . S
C494 C492 1.391 . S
C494 C495 1.400 . S
C495 C494 1.400 . S
C495 C496 1.398 . S
C495 C501 1.491 . S
C496 H487 0.950 . S
C496 C495 1.398 . S
C496 C497 1.391 . S
C497 H485 0.950 . S
C497 C493 1.393 . S
C497 C496 1.391 . S
C498 H488 0.950 . S
C498 C499 1.386 . S
C498 C500 1.391 . S
C499 C498 1.386 . S
C499 C503 1.393 . S
C500 H489 0.950 . S
C500 C498 1.391 . S
C500 C501 1.400 . S
C501 C495 1.491 . S
C501 C500 1.400 . S
C501 C502 1.398 . S
C502 H490 0.950 . S
C502 C501 1.398 . S
C502 C503 1.391 . S
C503 H491 0.950 . S
C503 C499 1.393 . S
C503 C502 1.391 . S
H504 C512 0.950 . S
H505 C517 0.950 . S
H506 C514 0.950 . S
H507 C516 0.950 . S
H508 C518 0.950 . S
H509 C520 0.950 . S
H510 C522 0.950 . S
H511 C523 0.950 . S
C512 H504 0.950 . S
C512 C513 1.386 . S
C512 C514 1.391 . S
C513 C512 1.386 . S
C513 C517 1.393 . S
C514 H506 0.950 . S
C514 C512 1.391 . S
C514 C515 1.400 . S
C515 C514 1.400 . S
C515 C516 1.398 . S
C515 C521 1.491 . S
C516 H507 0.950 . S
C516 C515 1.398 . S
C516 C517 1.391 . S
C517 H505 0.950 . S
C517 C513 1.393 . S
C517 C516 1.391 . S
C518 H508 0.950 . S
C518 C519 1.386 . S
C518 C520 1.391 . S
C519 C518 1.386 . S
C519 C523 1.393 . S
C520 H509 0.950 . S
C520 C518 1.391 . S
C520 C521 1.400 . S
C521 C515 1.491 . S
C521 C520 1.400 . S
C521 C522 1.398 . S
C522 H510 0.950 . S
C522 C521 1.398 . S
C522 C523 1.391 . S
C523 H511 0.950 . S
C523 C519 1.393 . S
C523 C522 1.391 . S
H524 C532 0.950 . S
H525 C537 0.950 . S
H526 C534 0.950 . S
H527 C536 0.950 . S
H528 C538 0.950 . S
H529 C540 0.950 . S
H530 C542 0.950 . S
H531 C543 0.950 . S
C532 H524 0.950 . S
C532 C533 1.386 . S
C532 C534 1.391 . S
C533 C532 1.386 . S
C533 C537 1.393 . S
C534 H526 0.950 . S
C534 C532 1.391 . S
C534 C535 1.400 . S
C535 C534 1.400 . S
C535 C536 1.398 . S
C535 C541 1.491 . S
C536 H527 0.950 . S
C536 C535 1.398 . S
C536 C537 1.391 . S
C537 H525 0.950 . S
C537 C533 1.393 . S
C537 C536 1.391 . S
C538 H528 0.950 . S
C538 C539 1.386 . S
C538 C540 1.391 . S
C539 C538 1.386 . S
C539 C543 1.393 . S
C540 H529 0.950 . S
C540 C538 1.391 . S
C540 C541 1.400 . S
C541 C535 1.491 . S
C541 C540 1.400 . S
C541 C542 1.398 . S
C542 H530 0.950 . S
C542 C541 1.398 . S
C542 C543 1.391 . S
C543 H531 0.950 . S
C543 C539 1.393 . S
C543 C542 1.391 . S
H544 C552 0.950 . S
H545 C557 0.950 . S
H546 C554 0.950 . S
H547 C556 0.950 . S
H548 C558 0.950 . S
H549 C560 0.950 . S
H550 C562 0.950 . S
H551 C563 0.950 . S
C552 H544 0.950 . S
C552 C553 1.386 . S
C552 C554 1.391 . S
C553 C552 1.386 . S
C553 C557 1.393 . S
C554 H546 0.950 . S
C554 C552 1.391 . S
C554 C555 1.400 . S
C555 C554 1.400 . S
C555 C556 1.398 . S
C555 C561 1.491 . S
C556 H547 0.950 . S
C556 C555 1.398 . S
C556 C557 1.391 . S
C557 H545 0.950 . S
C557 C553 1.393 . S
C557 C556 1.391 . S
C558 H548 0.950 . S
C558 C559 1.386 . S
C558 C560 1.391 . S
C559 C558 1.386 . S
C559 C563 1.393 . S
C560 H549 0.950 . S
C560 C558 1.391 . S
C560 C561 1.400 . S
C561 C555 1.491 . S
C561 C560 1.400 . S
C561 C562 1.398 . S
C562 H550 0.950 . S
C562 C561 1.398 . S
C562 C563 1.391 . S
C563 H551 0.950 . S
C563 C559 1.393 . S
C563 C562 1.391 . S
H564 C572 0.950 . S
H565 C577 0.950 . S
H566 C574 0.950 . S
H567 C576 0.950 . S
H568 C578 0.950 . S
H569 C580 0.950 . S
H570 C582 0.950 . S
H571 C583 0.950 . S
C572 H564 0.950 . S
C572 C573 1.386 . S
C572 C574 1.391 . S
C573 C572 1.386 . S
C573 C577 1.393 . S
C574 H566 0.950 . S
C574 C572 1.391 . S
C574 C575 1.400 . S
C575 C574 1.400 . S
C575 C576 1.398 . S
C575 C581 1.491 . S
C576 H567 0.950 . S
C576 C575 1.398 . S
C576 C577 1.391 . S
C577 H565 0.950 . S
C577 C573 1.393 . S
C577 C576 1.391 . S
C578 H568 0.950 . S
C578 C579 1.386 . S
C578 C580 1.391 . S
C579 C578 1.386 . S
C579 C583 1.393 . S
C580 H569 0.950 . S
C580 C578 1.391 . S
C580 C581 1.400 . S
C581 C575 1.491 . S
C581 C580 1.400 . S
C581 C582 1.398 . S
C582 H570 0.950 . S
C582 C581 1.398 . S
C582 C583 1.391 . S
C583 H571 0.950 . S
C583 C579 1.393 . S
C583 C582 1.391 . S
H584 C592 0.950 . S
H585 C597 0.950 . S
H586 C594 0.950 . S
H587 C596 0.964 . S
H588 C598 0.950 . S
H589 C600 0.950 . S
H590 C602 0.950 . S
H591 C603 0.950 . S
C592 H584 0.950 . S
C592 C593 1.360 1_545 S
C592 C594 1.391 . S
C593 C592 1.360 1_565 S
C593 C597 1.402 . S
C594 H586 0.950 . S
C594 C592 1.391 . S
C594 C595 1.400 . S
C595 C594 1.400 . S
C595 C596 1.398 . S
C595 C601 1.491 . S
C596 H587 0.964 . S
C596 C595 1.398 . S
C596 C597 1.391 1_545 S
C597 H585 0.950 . S
C597 C593 1.402 . S
C597 C596 1.391 1_565 S
C598 H588 0.950 . S
C598 C599 1.386 . S
C598 C600 1.391 . S
C599 C598 1.386 . S
C599 C603 1.393 . S
C600 H589 0.950 . S
C600 C598 1.391 . S
C600 C601 1.400 . S
C601 C595 1.491 . S
C601 C600 1.400 . S
C601 C602 1.398 . S
C602 H590 0.950 . S
C602 C601 1.398 . S
C602 C603 1.391 . S
C603 H591 0.950 . S
C603 C599 1.393 . S
C603 C602 1.391 . S
H604 C612 0.950 . S
H605 C617 0.950 . S
H606 C614 0.950 . S
H607 C616 0.950 . S
H608 C618 0.950 . S
H609 C620 0.950 . S
H610 C622 0.950 . S
H611 C623 0.950 . S
C612 H604 0.950 . S
C612 C613 1.386 1_545 S
C612 C614 1.391 1_545 S
C613 C612 1.386 1_565 S
C613 C617 1.393 . S
C614 H606 0.950 . S
C614 C612 1.391 1_565 S
C614 C615 1.400 . S
C615 C614 1.400 . S
C615 C616 1.398 . S
C615 C621 1.491 . S
C616 H607 0.950 . S
C616 C615 1.398 . S
C616 C617 1.391 . S
C617 H605 0.950 . S
C617 C613 1.393 . S
C617 C616 1.391 . S
C618 H608 0.950 . S
C618 C619 1.386 . S
C618 C620 1.391 . S
C619 C618 1.386 . S
C619 C623 1.393 . S
C620 H609 0.950 . S
C620 C618 1.391 . S
C620 C621 1.400 . S
C621 C615 1.491 . S
C621 C620 1.400 . S
C621 C622 1.398 . S
C622 H610 0.950 . S
C622 C621 1.398 . S
C622 C623 1.391 . S
C623 H611 0.950 . S
C623 C619 1.393 . S
C623 C622 1.391 . S
H624 C632 0.950 . S
H625 C637 0.950 . S
H626 C634 0.950 . S
H627 C636 0.950 . S
H628 C638 0.950 . S
H629 C640 0.950 . S
H630 C642 0.950 . S
H631 C643 0.950 . S
C632 H624 0.950 . S
C632 C633 1.386 1_545 S
C632 C634 1.391 . S
C633 C632 1.386 1_565 S
C633 C637 1.393 . S
C634 H626 0.950 . S
C634 C632 1.391 . S
C634 C635 1.400 . S
C635 C634 1.400 . S
C635 C636 1.398 . S
C635 C641 1.491 . S
C636 H627 0.950 . S
C636 C635 1.398 . S
C636 C637 1.391 1_545 S
C637 H625 0.950 . S
C637 C633 1.393 . S
C637 C636 1.391 1_565 S
C638 H628 0.950 . S
C638 C639 1.386 . S
C638 C640 1.391 . S
C639 C638 1.386 . S
C639 C643 1.393 . S
C640 H629 0.950 . S
C640 C638 1.391 . S
C640 C641 1.400 . S
C641 C635 1.491 . S
C641 C640 1.400 . S
C641 C642 1.398 . S
C642 H630 0.950 . S
C642 C641 1.398 . S
C642 C643 1.391 . S
C643 H631 0.950 . S
C643 C639 1.393 . S
C643 C642 1.391 . S
H644 C652 0.950 . S
H645 C657 0.950 . S
H646 C654 0.950 . S
H647 C656 0.950 . S
H648 C658 0.950 . S
H649 C660 0.950 . S
H650 C662 0.950 . S
H651 C663 0.950 . S
C652 H644 0.950 . S
C652 C653 1.386 . S
C652 C654 1.391 . S
C653 C652 1.386 . S
C653 C657 1.393 1_565 S
C654 H646 0.950 . S
C654 C652 1.391 . S
C654 C655 1.400 . S
C655 C654 1.400 . S
C655 C656 1.398 . S
C655 C661 1.491 . S
C656 H647 0.950 . S
C656 C655 1.398 . S
C656 C657 1.391 1_565 S
C657 H645 0.950 . S
C657 C653 1.393 1_545 S
C657 C656 1.391 1_545 S
C658 H648 0.950 . S
C658 C659 1.386 . S
C658 C660 1.391 . S
C659 C658 1.386 . S
C659 C663 1.393 . S
C660 H649 0.950 . S
C660 C658 1.391 . S
C660 C661 1.400 . S
C661 C655 1.491 . S
C661 C660 1.400 . S
C661 C662 1.398 . S
C662 H650 0.950 . S
C662 C661 1.398 . S
C662 C663 1.391 . S
C663 H651 0.950 . S
C663 C659 1.393 . S
C663 C662 1.391 . S
H664 C672 0.950 . S
H665 C677 0.950 . S
H666 C674 0.950 . S
H667 C676 0.950 . S
H668 C678 0.950 . S
H669 C680 0.950 . S
H670 C682 0.950 . S
H671 C683 0.950 . S
C672 H664 0.950 . S
C672 C673 1.386 . S
C672 C674 1.391 . S
C673 C672 1.386 . S
C673 C677 1.393 . S
C674 H666 0.950 . S
C674 C672 1.391 . S
C674 C675 1.400 . S
C675 C674 1.400 . S
C675 C676 1.398 . S
C675 C681 1.491 . S
C676 H667 0.950 . S
C676 C675 1.398 . S
C676 C677 1.391 . S
C677 H665 0.950 . S
C677 C673 1.393 . S
C677 C676 1.391 . S
C678 H668 0.950 . S
C678 C679 1.386 . S
C678 C680 1.391 . S
C679 C678 1.386 . S
C679 C683 1.393 . S
C680 H669 0.950 . S
C680 C678 1.391 . S
C680 C681 1.400 . S
C681 C675 1.491 . S
C681 C680 1.400 . S
C681 C682 1.398 . S
C682 H670 0.950 . S
C682 C681 1.398 . S
C682 C683 1.391 . S
C683 H671 0.950 . S
C683 C679 1.393 . S
C683 C682 1.391 . S
H684 C692 0.950 . S
H685 C697 0.950 . S
H686 C694 0.950 . S
H687 C696 0.950 . S
H688 C698 0.950 . S
H689 C700 0.950 . S
H690 C702 0.950 . S
H691 C703 0.950 . S
C692 H684 0.950 . S
C692 C693 1.386 . S
C692 C694 1.391 . S
C693 C692 1.386 . S
C693 C697 1.393 . S
C694 H686 0.950 . S
C694 C692 1.391 . S
C694 C695 1.400 . S
C695 C694 1.400 . S
C695 C696 1.398 . S
C695 C701 1.491 . S
C696 H687 0.950 . S
C696 C695 1.398 . S
C696 C697 1.391 . S
C697 H685 0.950 . S
C697 C693 1.393 . S
C697 C696 1.391 . S
C698 H688 0.950 . S
C698 C699 1.386 . S
C698 C700 1.391 . S
C699 C698 1.386 . S
C699 C703 1.393 . S
C700 H689 0.950 . S
C700 C698 1.391 . S
C700 C701 1.400 . S
C701 C695 1.491 . S
C701 C700 1.400 . S
C701 C702 1.398 . S
C702 H690 0.950 . S
C702 C701 1.398 . S
C702 C703 1.391 . S
C703 H691 0.950 . S
C703 C699 1.393 . S
C703 C702 1.391 . S
H704 C712 0.950 . S
H705 C717 0.950 . S
H706 C714 0.950 . S
H707 C716 0.950 . S
H708 C718 0.950 . S
H709 C720 0.950 . S
H710 C722 0.950 . S
H711 C723 0.950 . S
C712 H704 0.950 . S
C712 C713 1.386 . S
C712 C714 1.391 . S
C713 C712 1.386 . S
C713 C717 1.393 . S
C714 H706 0.950 . S
C714 C712 1.391 . S
C714 C715 1.400 . S
C715 C714 1.400 . S
C715 C716 1.398 . S
C715 C721 1.491 . S
C716 H707 0.950 . S
C716 C715 1.398 . S
C716 C717 1.391 . S
C717 H705 0.950 . S
C717 C713 1.393 . S
C717 C716 1.391 . S
C718 H708 0.950 . S
C718 C719 1.386 . S
C718 C720 1.391 . S
C719 C718 1.386 . S
C719 C723 1.393 . S
C720 H709 0.950 . S
C720 C718 1.391 . S
C720 C721 1.400 . S
C721 C715 1.491 . S
C721 C720 1.400 . S
C721 C722 1.398 . S
C722 H710 0.950 . S
C722 C721 1.398 . S
C722 C723 1.391 . S
C723 H711 0.950 . S
C723 C719 1.393 . S
C723 C722 1.391 . S
H724 C732 0.950 . S
H725 C737 0.950 . S
H726 C734 0.950 . S
H727 C736 0.950 . S
H728 C738 0.950 . S
H729 C740 0.950 . S
H730 C742 0.950 . S
H731 C743 0.950 . S
C732 H724 0.950 . S
C732 C733 1.386 . S
C732 C734 1.391 . S
C733 C732 1.386 . S
C733 C737 1.393 . S
C734 H726 0.950 . S
C734 C732 1.391 . S
C734 C735 1.400 . S
C735 C734 1.400 . S
C735 C736 1.398 . S
C735 C741 1.491 . S
C736 H727 0.950 . S
C736 C735 1.398 . S
C736 C737 1.391 . S
C737 H725 0.950 . S
C737 C733 1.393 . S
C737 C736 1.391 . S
C738 H728 0.950 . S
C738 C739 1.386 . S
C738 C740 1.391 . S
C739 C738 1.386 . S
C739 C743 1.393 . S
C740 H729 0.950 . S
C740 C738 1.391 . S
C740 C741 1.400 . S
C741 C735 1.491 . S
C741 C740 1.400 . S
C741 C742 1.398 . S
C742 H730 0.950 . S
C742 C741 1.398 . S
C742 C743 1.391 . S
C743 H731 0.950 . S
C743 C739 1.393 . S
C743 C742 1.391 . S
H744 C752 0.950 . S
H745 C757 0.950 . S
H746 C754 0.950 . S
H747 C756 0.950 . S
H748 C758 0.950 . S
H749 C760 0.950 . S
H750 C762 0.950 . S
H751 C763 0.950 . S
C752 H744 0.950 . S
C752 C753 1.386 . S
C752 C754 1.391 . S
C753 C752 1.386 . S
C753 C757 1.393 . S
C754 H746 0.950 . S
C754 C752 1.391 . S
C754 C755 1.400 . S
C755 C754 1.400 . S
C755 C756 1.398 . S
C755 C761 1.491 . S
C756 H747 0.950 . S
C756 C755 1.398 . S
C756 C757 1.391 . S
C757 H745 0.950 . S
C757 C753 1.393 . S
C757 C756 1.391 . S
C758 H748 0.950 . S
C758 C759 1.386 . S
C758 C760 1.391 . S
C759 C758 1.386 . S
C759 C763 1.393 . S
C760 H749 0.950 . S
C760 C758 1.391 . S
C760 C761 1.400 . S
C761 C755 1.491 . S
C761 C760 1.400 . S
C761 C762 1.398 . S
C762 H750 0.950 . S
C762 C761 1.398 . S
C762 C763 1.391 . S
C763 H751 0.950 . S
C763 C759 1.393 . S
C763 C762 1.391 . S
H764 C772 0.950 . S
H765 C777 0.950 . S
H766 C774 0.950 . S
H767 C776 0.950 . S
H768 C778 0.950 . S
H769 C780 0.950 . S
H770 C782 0.950 . S
H771 C783 0.950 . S
C772 H764 0.950 . S
C772 C773 1.386 . S
C772 C774 1.391 . S
C773 C772 1.386 . S
C773 C777 1.393 . S
C774 H766 0.950 . S
C774 C772 1.391 . S
C774 C775 1.400 . S
C775 C774 1.400 . S
C775 C776 1.398 . S
C775 C781 1.491 . S
C776 H767 0.950 . S
C776 C775 1.398 . S
C776 C777 1.391 . S
C777 H765 0.950 . S
C777 C773 1.393 . S
C777 C776 1.391 . S
C778 H768 0.950 . S
C778 C779 1.386 . S
C778 C780 1.391 . S
C779 C778 1.386 . S
C779 C783 1.393 . S
C780 H769 0.950 . S
C780 C778 1.391 . S
C780 C781 1.400 . S
C781 C775 1.491 . S
C781 C780 1.400 . S
C781 C782 1.398 . S
C782 H770 0.950 . S
C782 C781 1.398 . S
C782 C783 1.391 . S
C783 H771 0.950 . S
C783 C779 1.393 . S
C783 C782 1.391 . S
H784 C792 0.950 . S
H785 C797 0.950 . S
H786 C794 0.950 . S
H787 C796 0.950 . S
H788 C798 0.950 . S
H789 C800 0.950 . S
H790 C802 0.950 . S
H791 C803 0.950 . S
C792 H784 0.950 . S
C792 C793 1.386 . S
C792 C794 1.391 . S
C793 C792 1.386 . S
C793 C797 1.393 . S
C794 H786 0.950 . S
C794 C792 1.391 . S
C794 C795 1.400 . S
C795 C794 1.400 . S
C795 C796 1.398 . S
C795 C801 1.491 . S
C796 H787 0.950 . S
C796 C795 1.398 . S
C796 C797 1.391 . S
C797 H785 0.950 . S
C797 C793 1.393 . S
C797 C796 1.391 . S
C798 H788 0.950 . S
C798 C799 1.386 . S
C798 C800 1.391 . S
C799 C798 1.386 . S
C799 C803 1.393 . S
C800 H789 0.950 . S
C800 C798 1.391 . S
C800 C801 1.400 . S
C801 C795 1.491 . S
C801 C800 1.400 . S
C801 C802 1.398 . S
C802 H790 0.950 . S
C802 C801 1.398 . S
C802 C803 1.391 . S
C803 H791 0.950 . S
C803 C799 1.393 . S
C803 C802 1.391 . S
H804 C812 0.950 . S
H805 C817 0.950 . S
H806 C814 0.950 . S
H807 C816 0.950 . S
H808 C818 0.950 . S
H809 C820 0.950 . S
H810 C822 0.950 . S
H811 C823 0.950 . S
C812 H804 0.950 . S
C812 C813 1.386 . S
C812 C814 1.391 . S
C813 C812 1.386 . S
C813 C817 1.393 . S
C814 H806 0.950 . S
C814 C812 1.391 . S
C814 C815 1.400 . S
C815 C814 1.400 . S
C815 C816 1.398 . S
C815 C821 1.491 . S
C816 H807 0.950 . S
C816 C815 1.398 . S
C816 C817 1.391 . S
C817 H805 0.950 . S
C817 C813 1.393 . S
C817 C816 1.391 . S
C818 H808 0.950 . S
C818 C819 1.386 . S
C818 C820 1.391 . S
C819 C818 1.386 . S
C819 C823 1.393 . S
C820 H809 0.950 . S
C820 C818 1.391 . S
C820 C821 1.400 . S
C821 C815 1.491 . S
C821 C820 1.400 . S
C821 C822 1.398 . S
C822 H810 0.950 . S
C822 C821 1.398 . S
C822 C823 1.391 . S
C823 H811 0.950 . S
C823 C819 1.393 . S
C823 C822 1.391 . S
C353 C23 1.486 . S
C359 C282 1.524 . S
C379 C260 1.492 . S
C373 C55 1.521 . S
C399 C286 1.533 . S
C393 C87 1.571 . S
C419 C264 1.483 . S
C413 C119 1.439 . S
C439 C326 1.522 . S
C433 C151 1.484 . S
C459 C304 1.487 . S
C453 C183 1.520 . S
C473 C215 1.570 . S
C479 C330 1.527 . S
C499 C308 1.479 . S
C493 C247 1.435 . S
C513 C29 1.492 . S
C519 C331 1.551 . S
C539 C309 1.475 . S
C533 C49 1.493 . S
C553 C93 1.566 . S
C559 C328 1.553 . S
C573 C113 1.424 . S
C579 C306 1.490 . S
C599 C287 1.561 . S
C593 C157 1.507 . S
C613 C177 1.494 1_565 S
C619 C265 1.472 . S
C639 C284 1.557 . S
C633 C221 1.564 . S
C659 C262 1.478 . S
C653 C241 1.438 1_565 S
C679 C305 1.501 . S
C673 C17 1.437 . S
C699 C327 1.492 . S
C693 C61 1.505 . S
C713 C81 1.514 . S
C719 C307 1.486 . S
C739 C329 1.487 . S
C733 C125 1.433 . S
C759 C261 1.497 . S
C753 C145 1.430 . S
C773 C189 1.504 . S
C779 C283 1.493 . S
C793 C209 1.508 . S
C799 C263 1.496 . S
C813 C253 1.431 . S
C819 C285 1.490 . S
