# Generated by pormake.
# Topology eea, (3,6)-cn, num edge types: 1
# Building blocks:
#     Node 0, Type 0, BuildingBlock: MIDCAF_clean_linker_0, # of connection points: 3
#     Node 1, Type 0, BuildingBlock: MIDCAF_clean_linker_0, # of connection points: 3
#     Node 2, Type 0, BuildingBlock: MIDCAF_clean_linker_0, # of connection points: 3
#     Node 3, Type 0, BuildingBlock: MIDCAF_clean_linker_0, # of connection points: 3
#     Node 4, Type 0, BuildingBlock: MIDCAF_clean_linker_0, # of connection points: 3
#     Node 5, Type 0, BuildingBlock: MIDCAF_clean_linker_0, # of connection points: 3
#     Node 6, Type 0, BuildingBlock: MIDCAF_clean_linker_0, # of connection points: 3
#     Node 7, Type 0, BuildingBlock: MIDCAF_clean_linker_0, # of connection points: 3
#     Node 8, Type 0, BuildingBlock: MIDCAF_clean_linker_0, # of connection points: 3
#     Node 9, Type 0, BuildingBlock: MIDCAF_clean_linker_0, # of connection points: 3
#     Node 10, Type 0, BuildingBlock: MIDCAF_clean_linker_0, # of connection points: 3
#     Node 11, Type 0, BuildingBlock: MIDCAF_clean_linker_0, # of connection points: 3
#     Node 12, Type 0, BuildingBlock: MIDCAF_clean_linker_0, # of connection points: 3
#     Node 13, Type 0, BuildingBlock: MIDCAF_clean_linker_0, # of connection points: 3
#     Node 14, Type 0, BuildingBlock: MIDCAF_clean_linker_0, # of connection points: 3
#     Node 15, Type 0, BuildingBlock: MIDCAF_clean_linker_0, # of connection points: 3
#     Node 16, Type 0, BuildingBlock: MIDCAF_clean_linker_0, # of connection points: 3
#     Node 17, Type 0, BuildingBlock: MIDCAF_clean_linker_0, # of connection points: 3
#     Node 18, Type 1, BuildingBlock: KUMJIN_clean_sbu_0, # of connection points: 6
#     Node 19, Type 1, BuildingBlock: KUMJIN_clean_sbu_0, # of connection points: 6
#     Node 20, Type 1, BuildingBlock: KUMJIN_clean_sbu_0, # of connection points: 6
#     Node 21, Type 1, BuildingBlock: KUMJIN_clean_sbu_0, # of connection points: 6
#     Node 22, Type 1, BuildingBlock: KUMJIN_clean_sbu_0, # of connection points: 6
#     Node 23, Type 1, BuildingBlock: KUMJIN_clean_sbu_0, # of connection points: 6
#     Node 24, Type 1, BuildingBlock: KUMJIN_clean_sbu_0, # of connection points: 6
#     Node 25, Type 1, BuildingBlock: KUMJIN_clean_sbu_0, # of connection points: 6
#     Node 26, Type 1, BuildingBlock: KUMJIN_clean_sbu_0, # of connection points: 6
#     Edge 27, Type (0, 1), None
#     Edge 28, Type (0, 1), None
#     Edge 29, Type (0, 1), None
#     Edge 30, Type (0, 1), None
#     Edge 31, Type (0, 1), None
#     Edge 32, Type (0, 1), None
#     Edge 33, Type (0, 1), None
#     Edge 34, Type (0, 1), None
#     Edge 35, Type (0, 1), None
#     Edge 36, Type (0, 1), None
#     Edge 37, Type (0, 1), None
#     Edge 38, Type (0, 1), None
#     Edge 39, Type (0, 1), None
#     Edge 40, Type (0, 1), None
#     Edge 41, Type (0, 1), None
#     Edge 42, Type (0, 1), None
#     Edge 43, Type (0, 1), None
#     Edge 44, Type (0, 1), None
#     Edge 45, Type (0, 1), None
#     Edge 46, Type (0, 1), None
#     Edge 47, Type (0, 1), None
#     Edge 48, Type (0, 1), None
#     Edge 49, Type (0, 1), None
#     Edge 50, Type (0, 1), None
#     Edge 51, Type (0, 1), None
#     Edge 52, Type (0, 1), None
#     Edge 53, Type (0, 1), None
#     Edge 54, Type (0, 1), None
#     Edge 55, Type (0, 1), None
#     Edge 56, Type (0, 1), None
#     Edge 57, Type (0, 1), None
#     Edge 58, Type (0, 1), None
#     Edge 59, Type (0, 1), None
#     Edge 60, Type (0, 1), None
#     Edge 61, Type (0, 1), None
#     Edge 62, Type (0, 1), None
#     Edge 63, Type (0, 1), None
#     Edge 64, Type (0, 1), None
#     Edge 65, Type (0, 1), None
#     Edge 66, Type (0, 1), None
#     Edge 67, Type (0, 1), None
#     Edge 68, Type (0, 1), None
#     Edge 69, Type (0, 1), None
#     Edge 70, Type (0, 1), None
#     Edge 71, Type (0, 1), None
#     Edge 72, Type (0, 1), None
#     Edge 73, Type (0, 1), None
#     Edge 74, Type (0, 1), None
#     Edge 75, Type (0, 1), None
#     Edge 76, Type (0, 1), None
#     Edge 77, Type (0, 1), None
#     Edge 78, Type (0, 1), None
#     Edge 79, Type (0, 1), None
#     Edge 80, Type (0, 1), None
# Relax obj value: 0.007
# Max RMSD: 0.110
# Mean RMSD: 0.093
data_MOF--net-eea--node1-KUMJIN_clean_sbu_0--node2-MIDCAF_clean_linker_0--edge1-none
_symmetry_space_group_name_H-M    P1
_symmetry_Int_Tables_number       1
_symmetry_cell_setting            triclinic
loop_
_symmetry_equiv_pos_as_xyz
'x, y, z'
_cell_length_a     33.006456
_cell_length_b     34.169156
_cell_length_c     53.554963
_cell_angle_alpha  89.495994
_cell_angle_beta   90.049604
_cell_angle_gamma 119.8778
loop_
_atom_site_label
_atom_site_type_symbol
_atom_site_fract_x
_atom_site_fract_y
_atom_site_fract_z
_atom_type_partial_charge
C0 C 0.24425 0.97289 0.40249 0.0
C1 C 0.20915 0.9557 0.38421 0.0
C2 C 0.18759 0.98075 0.37738 0.0
C3 C 0.20148 0.02251 0.3882 0.0
H4 H 0.1859 0.13246 0.38135 0.0
H5 H 0.16054 0.18138 0.36233 0.0
H6 H 0.26181 0.29294 0.40632 0.0
H7 H 0.28649 0.24376 0.42575 0.0
H8 H 0.35433 0.22304 0.46545 0.0
H9 H 0.39871 0.24284 0.50458 0.0
H10 H 0.33625 0.10161 0.52382 0.0
H11 H 0.29283 0.08156 0.48467 0.0
H12 H 0.28515 0.02686 0.42743 0.0
H13 H 0.26148 0.95439 0.40828 0.0
H14 H 0.15983 0.96817 0.36373 0.0
H15 H 0.18423 0.04099 0.38241 0.0
N16 N 0.23921 0.11283 0.40699 0.0
N17 N 0.28031 0.16676 0.4377 0.0
N18 N 0.27833 0.09713 0.43851 0.0
C19 C 0.25328 0.15406 0.41685 0.0
C20 C 0.2927 0.13822 0.44869 0.0
C21 C 0.25179 0.08432 0.41759 0.0
C22 C 0.23839 0.18421 0.40508 0.0
C23 C 0.20296 0.16749 0.38691 0.0
C24 C 0.18846 0.19562 0.37589 0.0
C25 C 0.20945 0.24126 0.3825 0.0
C26 C 0.24489 0.25797 0.40067 0.0
C27 C 0.25908 0.22974 0.41188 0.0
C28 C 0.32014 0.15077 0.47201 0.0
C29 C 0.35026 0.19626 0.478 0.0
C30 C 0.37579 0.20759 0.50024 0.0
C31 C 0.37072 0.17365 0.51704 0.0
C32 C 0.3406 0.12828 0.51111 0.0
C33 C 0.31593 0.11691 0.48869 0.0
C34 C 0.23676 0.03984 0.40637 0.0
C35 C 0.25779 0.01445 0.41353 0.0
C36 C 0.01582 0.27284 0.38419 0.0
C37 C 0.05171 0.26492 0.37642 0.0
C38 C 0.04475 0.22088 0.3783 0.0
C39 C 1.00284 0.18571 0.38824 0.0
H40 H 0.88243 0.0401 0.38055 0.0
H41 H 0.82935 0.9665 0.3628 0.0
H42 H 0.71562 0.95952 0.40625 0.0
H43 H 0.76896 0.03182 0.42479 0.0
H44 H 0.82413 0.08378 0.48421 0.0
H45 H 0.80244 0.10381 0.52379 0.0
H46 H 0.87866 0.24455 0.50248 0.0
H47 H 0.90115 0.22485 0.46309 0.0
H48 H 0.94861 0.24586 0.4015 0.0
H49 H 0.02036 0.30648 0.38315 0.0
H50 H 0.07227 0.21403 0.37308 0.0
H51 H 0.9986 0.15228 0.39015 0.0
N52 N 0.90059 0.11766 0.40219 0.0
N53 N 0.85036 0.09854 0.43685 0.0
N54 N 0.91493 0.17136 0.43317 0.0
C55 C 0.86164 0.08688 0.4148 0.0
C56 C 0.87697 0.14055 0.44628 0.0
C57 C 0.92717 0.16006 0.41128 0.0
C58 C 0.82997 0.04191 0.40405 0.0
C59 C 0.84608 0.02281 0.38627 0.0
C60 C 0.81548 0.98073 0.37591 0.0
C61 C 0.76782 0.95742 0.38255 0.0
C62 C 0.75192 0.97651 0.40048 0.0
C63 C 0.78265 0.01803 0.41121 0.0
C64 C 0.86428 0.15272 0.47043 0.0
C65 C 0.83637 0.11903 0.48797 0.0
C66 C 0.82416 0.13044 0.51069 0.0
C67 C 0.8388 0.17568 0.51614 0.0
C68 C 0.8667 0.20937 0.49867 0.0
C69 C 0.8797 0.19807 0.47617 0.0
C70 C 0.96828 0.19459 0.39733 0.0
C71 C 0.97484 0.23824 0.39477 0.0
C72 C 0.73043 0.74083 0.38846 0.0
C73 C 0.73809 0.78348 0.38096 0.0
C74 C 0.78378 0.82066 0.38239 0.0
C75 C 0.82107 0.81494 0.39064 0.0
H76 H 0.99417 0.84367 0.38824 0.0
H77 H 0.06965 0.85451 0.37283 0.0
H78 H 0.01733 0.71149 0.38106 0.0
H79 H 0.94381 0.70128 0.39743 0.0
H80 H 0.90252 0.6783 0.46185 0.0
H81 H 0.88172 0.63668 0.50156 0.0
H82 H 0.79724 0.69565 0.52125 0.0
H83 H 0.81694 0.73653 0.48121 0.0
H84 H 0.75988 0.70212 0.40335 0.0
H85 H 0.6956 0.71169 0.38797 0.0
H86 H 0.79057 0.85423 0.37758 0.0
H87 H 0.8558 0.84407 0.3918 0.0
N88 N 0.89031 0.77616 0.39777 0.0
N89 N 0.91121 0.7434 0.43063 0.0
N90 N 0.84117 0.74487 0.43292 0.0
C91 C 0.92108 0.76484 0.408 0.0
C92 C 0.8718 0.73406 0.44345 0.0
C93 C 0.84994 0.76574 0.4102 0.0
C94 C 0.96323 0.77161 0.39417 0.0
C95 C 0.99867 0.81457 0.38616 0.0
C96 C 0.04176 0.82073 0.37722 0.0
C97 C 0.04935 0.78373 0.37546 0.0
C98 C 0.0126 0.74064 0.38204 0.0
C99 C 0.97044 0.73474 0.39146 0.0
C100 C 0.86122 0.71062 0.46822 0.0
C101 C 0.87975 0.68269 0.47467 0.0
C102 C 0.86778 0.65876 0.49739 0.0
C103 C 0.83792 0.66298 0.51452 0.0
C104 C 0.82055 0.69197 0.50849 0.0
C105 C 0.83162 0.71511 0.48548 0.0
C106 C 0.81289 0.77224 0.3985 0.0
C107 C 0.76724 0.73535 0.39724 0.0
C108 C 0.99612 0.2533 0.65678 0.0
C109 C 0.95936 0.21039 0.66366 0.0
C110 C 0.96656 0.17317 0.66177 0.0
C111 C 0.00921 0.17891 0.65237 0.0
H112 H 0.15233 0.14993 0.64648 0.0
H113 H 0.21777 0.14053 0.6612 0.0
H114 H 0.3123 0.2828 0.64943 0.0
H115 H 0.24783 0.29154 0.63348 0.0
H116 H 0.19155 0.2583 0.55654 0.0
H117 H 0.21017 0.29891 0.51642 0.0
H118 H 0.11981 0.35183 0.53519 0.0
H119 H 0.1002 0.31056 0.57496 0.0
H120 H 0.06443 0.29209 0.64072 0.0
H121 H 0.99172 0.28262 0.65787 0.0
H122 H 0.93865 0.13953 0.66641 0.0
H123 H 0.01339 0.14964 0.65021 0.0
N124 N 0.11748 0.21722 0.64 0.0
N125 N 0.16574 0.24792 0.60449 0.0
N126 N 0.09546 0.24891 0.60709 0.0
C127 C 0.1576 0.22755 0.62734 0.0
C128 C 0.13464 0.25822 0.59404 0.0
C129 C 0.08627 0.22804 0.62987 0.0
C130 C 0.19502 0.22153 0.63898 0.0
C131 C 0.18704 0.17916 0.64738 0.0
C132 C 0.22444 0.17388 0.65593 0.0
C133 C 0.27005 0.21122 0.65718 0.0
C134 C 0.27753 0.25354 0.64909 0.0
C135 C 0.24062 0.25855 0.63997 0.0
C136 C 0.1445 0.28127 0.56912 0.0
C137 C 0.17533 0.2783 0.55205 0.0
C138 C 0.18579 0.30128 0.52898 0.0
C139 C 0.1665 0.32857 0.52267 0.0
C140 C 0.13528 0.33111 0.53956 0.0
C141 C 0.12401 0.30738 0.56235 0.0
C142 C 0.0446 0.22167 0.64405 0.0
C143 C 0.03783 0.25878 0.6469 0.0
C144 C 0.76556 0.73824 0.63541 0.0
C145 C 0.80018 0.75448 0.65402 0.0
C146 C 0.82115 0.80004 0.66081 0.0
C147 C 0.80705 0.82841 0.64969 0.0
H148 H 0.82212 0.95273 0.65666 0.0
H149 H 0.84744 0.02565 0.67544 0.0
H150 H 0.74399 0.03934 0.63255 0.0
H151 H 0.71931 0.96675 0.61333 0.0
H152 H 0.6569 0.88943 0.57429 0.0
H153 H 0.61441 0.87418 0.53504 0.0
H154 H 0.66248 0.78227 0.5144 0.0
H155 H 0.70497 0.79721 0.55384 0.0
H156 H 0.72468 0.75296 0.61007 0.0
H157 H 0.74877 0.70338 0.62957 0.0
H158 H 0.84851 0.81394 0.67468 0.0
H159 H 0.82379 0.86328 0.65555 0.0
N160 N 0.76879 0.88218 0.63102 0.0
N161 N 0.72606 0.89695 0.60128 0.0
N162 N 0.72847 0.82952 0.59962 0.0
C163 C 0.75392 0.90983 0.6217 0.0
C164 C 0.7133 0.85698 0.59006 0.0
C165 C 0.75613 0.84195 0.62025 0.0
C166 C 0.7686 0.95382 0.6335 0.0
C167 C 0.80459 0.97115 0.65129 0.0
C168 C 0.81904 0.01299 0.66216 0.0
C169 C 0.79743 0.03816 0.65573 0.0
C170 C 0.76137 0.0208 0.63798 0.0
C171 C 0.7472 0.97914 0.62693 0.0
C172 C 0.68454 0.8447 0.56714 0.0
C173 C 0.65817 0.86567 0.56151 0.0
C174 C 0.63357 0.85676 0.53911 0.0
C175 C 0.6353 0.82718 0.52169 0.0
C176 C 0.66085 0.80547 0.52747 0.0
C177 C 0.68493 0.81384 0.55009 0.0
C178 C 0.77203 0.81204 0.6313 0.0
C179 C 0.75176 0.76673 0.62412 0.0
C180 C 0.25766 0.01842 0.63869 0.0
C181 C 0.24167 0.03741 0.65662 0.0
C182 C 0.19412 0.01367 0.66349 0.0
C183 C 0.16371 0.97138 0.65329 0.0
H184 H 0.01076 0.84242 0.64828 0.0
H185 H 0.93606 0.78071 0.66438 0.0
H186 H 0.9871 0.68747 0.65484 0.0
H187 H 0.05997 0.74811 0.63749 0.0
H188 H 0.11 0.76963 0.57651 0.0
H189 H 0.13266 0.75012 0.53709 0.0
H190 H 0.2082 0.89088 0.5158 0.0
H191 H 0.1864 0.91072 0.5554 0.0
H192 H 0.2409 0.963 0.61453 0.0
H193 H 0.29388 0.0357 0.63275 0.0
H194 H 0.18017 0.02777 0.67664 0.0
H195 H 0.12743 0.95384 0.65915 0.0
N196 N 0.10905 0.87663 0.6371 0.0
N197 N 0.0952 0.82302 0.60613 0.0
N198 N 0.16003 0.89573 0.60276 0.0
C199 C 0.08253 0.83428 0.62789 0.0
C200 C 0.13351 0.85379 0.59325 0.0
C201 C 0.14836 0.90738 0.6247 0.0
C202 C 0.04082 0.79978 0.64148 0.0
C203 C 0.00612 0.80883 0.65013 0.0
C204 C 0.96359 0.77366 0.6595 0.0
C205 C 0.9561 0.72943 0.66124 0.0
C206 C 0.99205 0.72128 0.6539 0.0
C207 C 0.03368 0.7559 0.64391 0.0
C208 C 0.14653 0.84175 0.56916 0.0
C209 C 0.13137 0.79644 0.56343 0.0
C210 C 0.14445 0.78526 0.54092 0.0
C211 C 0.17215 0.81901 0.52343 0.0
C212 C 0.18662 0.8642 0.52891 0.0
C213 C 0.17436 0.87551 0.55164 0.0
C214 C 0.17989 0.95241 0.63546 0.0
C215 C 0.22713 0.97664 0.62814 0.0
C216 C 0.91072 0.3061 0.73585 0.0
C217 C 0.87567 0.28894 0.71755 0.0
C218 C 0.8541 0.31399 0.71073 0.0
C219 C 0.86796 0.35573 0.72157 0.0
H220 H 0.85241 0.4657 0.71473 0.0
H221 H 0.82713 0.51467 0.69569 0.0
H222 H 0.92841 0.62619 0.73971 0.0
H223 H 0.95301 0.57696 0.75915 0.0
H224 H 0.02082 0.55621 0.79883 0.0
H225 H 0.06523 0.57602 0.83794 0.0
H226 H 1.00272 0.43479 0.85722 0.0
H227 H 0.95927 0.41474 0.81808 0.0
H228 H 0.95157 0.36003 0.76083 0.0
H229 H 0.92795 0.2876 0.74164 0.0
H230 H 0.82637 0.30143 0.69705 0.0
H231 H 0.85072 0.37421 0.71577 0.0
N232 N 0.90566 0.44603 0.74038 0.0
N233 N 0.94678 0.49994 0.7711 0.0
N234 N 0.94477 0.4303 0.77191 0.0
C235 C 0.91975 0.48726 0.75025 0.0
C236 C 0.95915 0.4714 0.78209 0.0
C237 C 0.91823 0.4175 0.75098 0.0
C238 C 0.9049 0.51742 0.73847 0.0
C239 C 0.86948 0.50073 0.7203 0.0
C240 C 0.85503 0.52888 0.70926 0.0
C241 C 0.87605 0.57453 0.71587 0.0
C242 C 0.91147 0.59121 0.73405 0.0
C243 C 0.92561 0.56296 0.74527 0.0
C244 C 0.9866 0.48394 0.8054 0.0
C245 C 0.01674 0.52944 0.81139 0.0
C246 C 0.04229 0.54077 0.83362 0.0
C247 C 0.03722 0.50683 0.85042 0.0
C248 C 0.00707 0.46146 0.8445 0.0
C249 C 0.98239 0.45009 0.82209 0.0
C250 C 0.90321 0.37303 0.73975 0.0
C251 C 0.92423 0.34763 0.74691 0.0
C252 C 0.68253 0.60622 0.71752 0.0
C253 C 0.71842 0.59829 0.70975 0.0
C254 C 0.71144 0.55425 0.71163 0.0
C255 C 0.66952 0.51908 0.72156 0.0
H256 H 0.54911 0.37347 0.71389 0.0
H257 H 0.49602 0.29986 0.69614 0.0
H258 H 0.38228 0.29294 0.73956 0.0
H259 H 0.43562 0.36524 0.75808 0.0
H260 H 0.49079 0.41718 0.81752 0.0
H261 H 0.46909 0.4372 0.8571 0.0
H262 H 0.54534 0.57794 0.8358 0.0
H263 H 0.56783 0.55824 0.79641 0.0
H264 H 0.61532 0.57927 0.73482 0.0
H265 H 0.68709 0.63988 0.71648 0.0
H266 H 0.73896 0.54739 0.7064 0.0
H267 H 0.66526 0.48565 0.72347 0.0
N268 N 0.56727 0.45105 0.7355 0.0
N269 N 0.51703 0.43194 0.77017 0.0
N270 N 0.58161 0.50476 0.76648 0.0
C271 C 0.52832 0.42027 0.74811 0.0
C272 C 0.54364 0.47395 0.77959 0.0
C273 C 0.59385 0.49345 0.7446 0.0
C274 C 0.49664 0.37531 0.73737 0.0
C275 C 0.51275 0.35618 0.7196 0.0
C276 C 0.48215 0.31411 0.70925 0.0
C277 C 0.43449 0.29081 0.71587 0.0
C278 C 0.41858 0.30991 0.73379 0.0
C279 C 0.44931 0.35144 0.74452 0.0
C280 C 0.53095 0.48611 0.80375 0.0
C281 C 0.50303 0.45242 0.82128 0.0
C282 C 0.49082 0.46383 0.844 0.0
C283 C 0.50546 0.50907 0.84946 0.0
C284 C 0.53338 0.54277 0.83199 0.0
C285 C 0.54637 0.53147 0.80949 0.0
C286 C 0.63497 0.52798 0.73065 0.0
C287 C 0.64155 0.57163 0.7281 0.0
C288 C 0.39706 0.07419 0.72178 0.0
C289 C 0.40473 0.11684 0.71429 0.0
C290 C 0.45043 0.15402 0.71572 0.0
C291 C 0.4877 0.14828 0.72397 0.0
H292 H 0.66075 0.17693 0.72153 0.0
H293 H 0.73623 0.18775 0.70611 0.0
H294 H 0.68392 0.04475 0.7144 0.0
H295 H 0.61041 0.03455 0.73076 0.0
H296 H 0.56909 0.01157 0.79517 0.0
H297 H 0.54829 0.96996 0.83488 0.0
H298 H 0.46385 0.02897 0.85457 0.0
H299 H 0.48355 0.06985 0.81452 0.0
H300 H 0.42649 0.03545 0.73666 0.0
H301 H 0.36222 0.04505 0.72128 0.0
H302 H 0.45722 0.18759 0.71092 0.0
H303 H 0.52244 0.17741 0.72514 0.0
N304 N 0.55691 0.10946 0.73109 0.0
N305 N 0.5778 0.07668 0.76395 0.0
N306 N 0.50778 0.07818 0.76624 0.0
C307 C 0.58767 0.09811 0.74132 0.0
C308 C 0.53839 0.06735 0.77676 0.0
C309 C 0.51655 0.09905 0.74352 0.0
C310 C 0.62981 0.10487 0.72748 0.0
C311 C 0.66525 0.14782 0.71946 0.0
C312 C 0.70834 0.15398 0.71052 0.0
C313 C 0.71594 0.11699 0.70877 0.0
C314 C 0.67919 0.07389 0.71536 0.0
C315 C 0.63703 0.068 0.72479 0.0
C316 C 0.52781 0.04392 0.80153 0.0
C317 C 0.54632 0.01597 0.80798 0.0
C318 C 0.53435 0.99204 0.83071 0.0
C319 C 0.5045 0.99628 0.84784 0.0
C320 C 0.48714 0.02528 0.8418 0.0
C321 C 0.49822 0.04842 0.8188 0.0
C322 C 0.47951 0.10557 0.73182 0.0
C323 C 0.43386 0.06869 0.73055 0.0
C324 C 0.66274 0.58664 0.99009 0.0
C325 C 0.62598 0.54373 0.99698 0.0
C326 C 0.63319 0.50651 0.99509 0.0
C327 C 0.67584 0.51226 0.9857 0.0
H328 H 0.81895 0.48326 0.97985 0.0
H329 H 0.88437 0.47385 0.99458 0.0
H330 H 0.97892 0.61613 0.98281 0.0
H331 H 0.91447 0.62487 0.96685 0.0
H332 H 0.85819 0.59159 0.88989 0.0
H333 H 0.87684 0.6322 0.84977 0.0
H334 H 0.78657 0.68523 0.86853 0.0
H335 H 0.76693 0.64396 0.90831 0.0
H336 H 0.73105 0.62544 0.97405 0.0
H337 H 0.65833 0.61596 0.99118 0.0
H338 H 0.60528 0.47287 0.99973 0.0
H339 H 0.68002 0.48298 0.98354 0.0
N340 N 0.78411 0.55056 0.97335 0.0
N341 N 0.83239 0.58127 0.93785 0.0
N342 N 0.76212 0.58226 0.94043 0.0
C343 C 0.82424 0.56089 0.9607 0.0
C344 C 0.80131 0.59157 0.92738 0.0
C345 C 0.75291 0.56139 0.96321 0.0
C346 C 0.86165 0.55486 0.97235 0.0
C347 C 0.85366 0.5125 0.98075 0.0
C348 C 0.89105 0.5072 0.98931 0.0
C349 C 0.93667 0.54455 0.99056 0.0
C350 C 0.94416 0.58687 0.98247 0.0
C351 C 0.90725 0.59188 0.97334 0.0
C352 C 0.81118 0.61461 0.90247 0.0
C353 C 0.842 0.61161 0.8854 0.0
C354 C 0.85247 0.63459 0.86233 0.0
C355 C 0.83321 0.66191 0.85602 0.0
C356 C 0.80202 0.66448 0.87291 0.0
C357 C 0.79073 0.64076 0.8957 0.0
C358 C 0.71123 0.55502 0.97738 0.0
C359 C 0.70445 0.59212 0.98023 0.0
C360 C 0.43214 0.07155 0.96874 0.0
C361 C 0.46677 0.0878 0.98735 0.0
C362 C 0.48774 0.13335 0.99413 0.0
C363 C 0.47365 0.16173 0.98301 0.0
H364 H 0.48876 0.28607 0.98996 0.0
H365 H 0.51409 0.359 1.00873 0.0
H366 H 0.4106 0.37266 0.96586 0.0
H367 H 0.38591 0.30006 0.94665 0.0
H368 H 0.32349 0.22275 0.90762 0.0
H369 H 0.28101 0.20751 0.86837 0.0
H370 H 0.32907 0.11559 0.84772 0.0
H371 H 0.37155 0.13052 0.88716 0.0
H372 H 0.39127 0.08627 0.94339 0.0
H373 H 0.41535 0.03669 0.96289 0.0
H374 H 0.51511 0.14726 1.008 0.0
H375 H 0.49039 0.19659 0.98887 0.0
N376 N 0.4354 0.2155 0.96434 0.0
N377 N 0.39266 0.23027 0.93459 0.0
N378 N 0.39506 0.16283 0.93294 0.0
C379 C 0.42053 0.24315 0.95502 0.0
C380 C 0.37989 0.19029 0.92338 0.0
C381 C 0.42273 0.17526 0.95357 0.0
C382 C 0.43522 0.28715 0.96681 0.0
C383 C 0.47122 0.30449 0.98459 0.0
C384 C 0.48568 0.34633 0.99545 0.0
C385 C 0.46406 0.3715 0.98903 0.0
C386 C 0.42799 0.35413 0.97129 0.0
C387 C 0.41382 0.31246 0.96024 0.0
C388 C 0.35113 0.17801 0.90046 0.0
C389 C 0.32476 0.19898 0.89483 0.0
C390 C 0.30017 0.19008 0.87243 0.0
C391 C 0.3019 0.1605 0.85501 0.0
C392 C 0.32744 0.13878 0.86079 0.0
C393 C 0.35151 0.14715 0.88341 0.0
C394 C 0.43863 0.14535 0.96462 0.0
C395 C 0.41835 0.10004 0.95745 0.0
C396 C 0.92424 0.35176 0.97204 0.0
C397 C 0.90826 0.37073 0.98999 0.0
C398 C 0.86071 0.34699 0.99686 0.0
C399 C 0.83029 0.30472 0.98664 0.0
H400 H 0.67733 0.17576 0.9816 0.0
H401 H 0.60263 0.11403 0.99771 0.0
H402 H 0.65371 0.02082 0.98815 0.0
H403 H 0.72657 0.08147 0.9708 0.0
H404 H 0.77658 0.103 0.90983 0.0
H405 H 0.79923 0.08348 0.87041 0.0
H406 H 0.87478 0.22423 0.84911 0.0
H407 H 0.85298 0.24409 0.88871 0.0
H408 H 0.90748 0.29637 0.94785 0.0
H409 H 0.96046 0.36904 0.9661 0.0
H410 H 0.84677 0.36108 1.01002 0.0
H411 H 0.79402 0.28717 0.9925 0.0
N412 N 0.77563 0.20999 0.97042 0.0
N413 N 0.76178 0.15639 0.93944 0.0
N414 N 0.82661 0.2291 0.93608 0.0
C415 C 0.74911 0.16764 0.96121 0.0
C416 C 0.80009 0.18717 0.92656 0.0
C417 C 0.81494 0.24074 0.95803 0.0
C418 C 0.7074 0.13313 0.9748 0.0
C419 C 0.6727 0.14218 0.98345 0.0
C420 C 0.63018 0.107 0.99282 0.0
C421 C 0.6227 0.06276 0.99456 0.0
C422 C 0.65865 0.05462 0.98722 0.0
C423 C 0.70028 0.08926 0.97722 0.0
C424 C 0.8131 0.17512 0.90248 0.0
C425 C 0.79794 0.12981 0.89675 0.0
C426 C 0.81102 0.11862 0.87424 0.0
C427 C 0.83872 0.15237 0.85675 0.0
C428 C 0.8532 0.19757 0.86222 0.0
C429 C 0.84093 0.20888 0.88496 0.0
C430 C 0.84647 0.28577 0.9688 0.0
C431 C 0.89371 0.31 0.96148 0.0
C432 C 0.57733 0.63942 0.06917 0.0
C433 C 0.54227 0.62226 0.05087 0.0
C434 C 0.5207 0.64731 0.04405 0.0
C435 C 0.53457 0.68905 0.05488 0.0
H436 H 0.51903 0.79903 0.04804 0.0
H437 H 0.49375 0.84799 0.02901 0.0
H438 H 0.59503 0.95951 0.07302 0.0
H439 H 0.61963 0.91029 0.09246 0.0
H440 H 0.68745 0.88954 0.13214 0.0
H441 H 0.73188 0.90936 0.17125 0.0
H442 H 0.66942 0.76813 0.19051 0.0
H443 H 0.62594 0.74807 0.15138 0.0
H444 H 0.61818 0.69334 0.09415 0.0
H445 H 0.59455 0.62092 0.07496 0.0
H446 H 0.49297 0.63475 0.03038 0.0
H447 H 0.51734 0.70754 0.04909 0.0
N448 N 0.57228 0.77935 0.0737 0.0
N449 N 0.61342 0.83328 0.10441 0.0
N450 N 0.6114 0.76363 0.10522 0.0
C451 C 0.58638 0.82058 0.08356 0.0
C452 C 0.62579 0.80473 0.1154 0.0
C453 C 0.58485 0.75083 0.0843 0.0
C454 C 0.57152 0.85075 0.07178 0.0
C455 C 0.53611 0.83406 0.05361 0.0
C456 C 0.52165 0.86221 0.04257 0.0
C457 C 0.54267 0.90785 0.04919 0.0
C458 C 0.57809 0.92454 0.06736 0.0
C459 C 0.59224 0.89629 0.07858 0.0
C460 C 0.65325 0.81728 0.13871 0.0
C461 C 0.68339 0.86277 0.14469 0.0
C462 C 0.70894 0.87411 0.16692 0.0
C463 C 0.70389 0.84017 0.18372 0.0
C464 C 0.67375 0.7948 0.1778 0.0
C465 C 0.64906 0.78342 0.15539 0.0
C466 C 0.56983 0.70635 0.07307 0.0
C467 C 0.59084 0.68095 0.08023 0.0
C468 C 0.34915 0.93952 0.05086 0.0
C469 C 0.38503 0.9316 0.04308 0.0
C470 C 0.37806 0.88756 0.04496 0.0
C471 C 0.33615 0.85239 0.0549 0.0
H472 H 0.21574 0.70676 0.04725 0.0
H473 H 0.16264 0.63316 0.02951 0.0
H474 H 0.04892 0.62624 0.07295 0.0
H475 H 0.10228 0.69855 0.09147 0.0
H476 H 0.15747 0.7505 0.1509 0.0
H477 H 0.1358 0.77054 0.19047 0.0
H478 H 0.21208 0.91128 0.16917 0.0
H479 H 0.23455 0.89156 0.12978 0.0
H480 H 0.28195 0.91256 0.06817 0.0
H481 H 0.35369 0.97317 0.04982 0.0
H482 H 0.40558 0.8807 0.03973 0.0
H483 H 0.33191 0.81896 0.05681 0.0
N484 N 0.23391 0.78435 0.06886 0.0
N485 N 0.1837 0.76525 0.10354 0.0
N486 N 0.24827 0.83806 0.09984 0.0
C487 C 0.19497 0.75357 0.08148 0.0
C488 C 0.21032 0.80726 0.11296 0.0
C489 C 0.2605 0.82675 0.07795 0.0
C490 C 0.16329 0.70861 0.07074 0.0
C491 C 0.17939 0.68948 0.05297 0.0
C492 C 0.14878 0.6474 0.04262 0.0
C493 C 0.10112 0.62411 0.04925 0.0
C494 C 0.08522 0.64321 0.06718 0.0
C495 C 0.11596 0.68474 0.0779 0.0
C496 C 0.19764 0.81943 0.13711 0.0
C497 C 0.16972 0.78574 0.15465 0.0
C498 C 0.15753 0.79717 0.17737 0.0
C499 C 0.17219 0.84241 0.18283 0.0
C500 C 0.2001 0.8761 0.16536 0.0
C501 C 0.21308 0.86479 0.14286 0.0
C502 C 0.3016 0.86128 0.06399 0.0
C503 C 0.30817 0.90493 0.06144 0.0
C504 C 0.06366 0.40748 0.05514 0.0
C505 C 0.07133 0.45014 0.04765 0.0
C506 C 0.11703 0.48731 0.04909 0.0
C507 C 0.15431 0.48157 0.05732 0.0
H508 H 0.32735 0.51022 0.05486 0.0
H509 H 0.40282 0.52105 0.03943 0.0
H510 H 0.35053 0.37805 0.0477 0.0
H511 H 0.27702 0.36784 0.06408 0.0
H512 H 0.2357 0.34484 0.12849 0.0
H513 H 0.21491 0.30323 0.16821 0.0
H514 H 0.1305 0.36228 0.18791 0.0
H515 H 0.1502 0.40315 0.14786 0.0
H516 H 0.09309 0.36874 0.07001 0.0
H517 H 0.02882 0.37835 0.05465 0.0
H518 H 0.12382 0.52089 0.04428 0.0
H519 H 0.18904 0.51069 0.05849 0.0
N520 N 0.22352 0.44274 0.06442 0.0
N521 N 0.24441 0.40996 0.09727 0.0
N522 N 0.1744 0.41146 0.09957 0.0
C523 C 0.25428 0.4314 0.07465 0.0
C524 C 0.20501 0.40063 0.11009 0.0
C525 C 0.18316 0.43234 0.07686 0.0
C526 C 0.29642 0.43816 0.0608 0.0
C527 C 0.33185 0.48112 0.05278 0.0
C528 C 0.37493 0.48728 0.04384 0.0
C529 C 0.38254 0.45029 0.04208 0.0
C530 C 0.3458 0.40719 0.04867 0.0
C531 C 0.30364 0.40129 0.0581 0.0
C532 C 0.19444 0.3772 0.13487 0.0
C533 C 0.21294 0.34925 0.14131 0.0
C534 C 0.20098 0.32533 0.16404 0.0
C535 C 0.17114 0.32957 0.18117 0.0
C536 C 0.15379 0.35858 0.17514 0.0
C537 C 0.16487 0.38172 0.15213 0.0
C538 C 0.14612 0.43886 0.06517 0.0
C539 C 0.10046 0.40198 0.06391 0.0
C540 C 0.32952 0.91998 0.32345 0.0
C541 C 0.29276 0.87707 0.33034 0.0
C542 C 0.29994 0.83984 0.32843 0.0
C543 C 0.34258 0.84558 0.31903 0.0
H544 H 0.48568 0.81656 0.31315 0.0
H545 H 0.5511 0.80715 0.32788 0.0
H546 H 0.64565 0.94943 0.31612 0.0
H547 H 0.58119 0.95817 0.30015 0.0
H548 H 0.52487 0.92487 0.22319 0.0
H549 H 0.5435 0.9655 0.18307 0.0
H550 H 0.4533 0.01857 0.20187 0.0
H551 H 0.43366 0.9773 0.24165 0.0
H552 H 0.39783 0.95876 0.3074 0.0
H553 H 0.32513 0.94931 0.32455 0.0
H554 H 0.27202 0.8062 0.33307 0.0
H555 H 0.34675 0.8163 0.31686 0.0
N556 N 0.45084 0.88386 0.30667 0.0
N557 N 0.49911 0.91457 0.27115 0.0
N558 N 0.42884 0.91557 0.27376 0.0
C559 C 0.49096 0.89419 0.29401 0.0
C560 C 0.46802 0.92488 0.2607 0.0
C561 C 0.41964 0.8947 0.29653 0.0
C562 C 0.52838 0.88816 0.30565 0.0
C563 C 0.52039 0.84579 0.31406 0.0
C564 C 0.55778 0.8405 0.32261 0.0
C565 C 0.6034 0.87785 0.32386 0.0
C566 C 0.61089 0.92017 0.31578 0.0
C567 C 0.57398 0.92518 0.30665 0.0
C568 C 0.47789 0.94792 0.23579 0.0
C569 C 0.50868 0.94491 0.21871 0.0
C570 C 0.51915 0.9679 0.19564 0.0
C571 C 0.4999 0.99523 0.18934 0.0
C572 C 0.46873 -0.00219 0.20624 0.0
C573 C 0.45745 0.97408 0.22903 0.0
C574 C 0.37798 0.88834 0.31071 0.0
C575 C 0.37122 0.92545 0.31357 0.0
C576 C 0.09875 0.40488 0.3021 0.0
C577 C 0.13339 0.42112 0.3207 0.0
C578 C 0.15436 0.46667 0.32749 0.0
C579 C 0.14024 0.49504 0.31639 0.0
H580 H 0.15535 0.61937 0.32336 0.0
H581 H 0.18074 0.69231 0.34212 0.0
H582 H 0.07729 0.70604 0.29927 0.0
H583 H 0.05254 0.63343 0.28006 0.0
H584 H 0.99014 0.55614 0.241 0.0
H585 H 0.94768 0.54092 0.20174 0.0
H586 H 0.99565 0.44894 0.18111 0.0
H587 H 0.03812 0.46385 0.22056 0.0
H588 H 0.05785 0.41959 0.27677 0.0
H589 H 0.08196 0.37001 0.29625 0.0
H590 H 0.18173 0.48058 0.34136 0.0
H591 H 0.15698 0.5299 0.32225 0.0
N592 N 0.10198 0.54882 0.29774 0.0
N593 N 0.05926 0.56361 0.26799 0.0
N594 N 0.06164 0.49616 0.26633 0.0
C595 C 0.08712 0.57648 0.28842 0.0
C596 C 0.04648 0.52364 0.25677 0.0
C597 C 0.0893 0.50858 0.28696 0.0
C598 C 0.10183 0.62047 0.30022 0.0
C599 C 0.13783 0.6378 0.318 0.0
C600 C 0.15233 0.67965 0.32885 0.0
C601 C 0.13073 0.70485 0.32243 0.0
C602 C 0.09465 0.68749 0.30469 0.0
C603 C 0.08045 0.64581 0.29365 0.0
C604 C 0.01773 0.51138 0.23386 0.0
C605 C 0.99139 0.53237 0.22821 0.0
C606 C 0.96681 0.52348 0.20581 0.0
C607 C 0.96852 0.49389 0.18839 0.0
C608 C 0.99404 0.47215 0.19418 0.0
C609 C 0.0181 0.4805 0.21681 0.0
C610 C 0.10521 0.47867 0.298 0.0
C611 C 0.08493 0.43336 0.29083 0.0
C612 C 0.59097 0.68505 0.30534 0.0
C613 C 0.57499 0.70404 0.32329 0.0
C614 C 0.52744 0.68033 0.33015 0.0
C615 C 0.49701 0.63805 0.31994 0.0
H616 H 0.34399 0.50911 0.31491 0.0
H617 H 0.2693 0.44739 0.33102 0.0
H618 H 0.32038 0.35417 0.32149 0.0
H619 H 0.39324 0.41481 0.30414 0.0
H620 H 0.44317 0.43629 0.24314 0.0
H621 H 0.46579 0.41675 0.20372 0.0
H622 H 0.54143 0.5575 0.18242 0.0
H623 H 0.51966 0.57738 0.22203 0.0
H624 H 0.57418 0.62964 0.28117 0.0
H625 H 0.62719 0.70232 0.29941 0.0
H626 H 0.51351 0.69443 0.34331 0.0
H627 H 0.46074 0.62052 0.32579 0.0
N628 N 0.44231 0.54332 0.30373 0.0
N629 N 0.42843 0.48971 0.27276 0.0
N630 N 0.49328 0.5624 0.26939 0.0
C631 C 0.41578 0.50097 0.29453 0.0
C632 C 0.46675 0.52047 0.25988 0.0
C633 C 0.48163 0.57405 0.29134 0.0
C634 C 0.37407 0.46647 0.30812 0.0
C635 C 0.33936 0.47552 0.31676 0.0
C636 C 0.29684 0.44035 0.32614 0.0
C637 C 0.28937 0.39612 0.32789 0.0
C638 C 0.32532 0.38798 0.32055 0.0
C639 C 0.36695 0.4226 0.31056 0.0
C640 C 0.47974 0.50841 0.23579 0.0
C641 C 0.46455 0.4631 0.23006 0.0
C642 C 0.47761 0.45189 0.20755 0.0
C643 C 0.50533 0.48564 0.19006 0.0
C644 C 0.51984 0.53084 0.19553 0.0
C645 C 0.50759 0.54216 0.21827 0.0
C646 C 0.51318 0.61908 0.30211 0.0
C647 C 0.56042 0.64329 0.29479 0.0
Eu648 Eu 0.48424 0.9628 0.98974 0.0
C649 C 0.57878 0.13952 0.0546 0.0
C650 C 0.66157 0.16501 0.05283 0.0
C651 C 0.63539 0.21956 0.05793 0.0
C652 C 0.61458 0.12998 0.05204 0.0
C653 C 0.58874 0.18432 0.05811 0.0
C654 C 0.67176 0.20992 0.05526 0.0
C655 C 0.50599 0.15575 0.06358 0.0
N656 N 0.53417 0.1047 0.05478 0.0
C657 C 0.49791 0.11192 0.06003 0.0
C658 C 0.55155 0.1922 0.0623 0.0
Eu659 Eu 0.52301 0.03168 0.04748 0.0
N660 N 0.6035 0.08624 0.04985 0.0
C661 C 0.63773 0.07486 0.05027 0.0
C662 C 0.69687 0.15372 0.05178 0.0
C663 C 0.68485 0.10838 0.05084 0.0
H664 H 0.46256 0.084 0.06095 0.0
H665 H 0.71185 0.09921 0.05048 0.0
H666 H 0.70763 0.23733 0.05567 0.0
H667 H 0.47706 0.16139 0.06723 0.0
H668 H 0.62899 0.04 0.04945 0.0
H669 H 0.29567 0.89726 0.98738 0.0
H670 H 0.73338 0.17962 0.05224 0.0
H671 H 0.54325 0.90936 0.97599 0.0
H672 H 0.37881 0.95579 0.98803 0.0
H673 H 0.52773 0.83155 0.96978 0.0
H674 H 0.64375 0.25424 0.06036 0.0
H675 H 0.27312 0.81656 0.98589 0.0
H676 H 0.29784 0.75809 0.98249 0.0
H677 H 0.55772 0.22611 0.06508 0.0
H678 H 0.36098 0.74019 0.97758 0.0
N679 N 0.40347 0.90889 0.9877 0.0
C680 C 0.36963 0.92079 0.98733 0.0
C681 C 0.30976 0.84216 0.9862 0.0
C682 C 0.34464 0.83031 0.98507 0.0
C683 C 0.32235 0.88766 0.98698 0.0
C684 C 0.39181 0.86497 0.98566 0.0
H685 H 0.44677 0.7674 0.97242 0.0
N686 N 0.47196 0.88936 0.98258 0.0
C687 C 0.49913 0.8376 0.9736 0.0
C688 C 0.42719 0.85487 0.983 0.0
C689 C 0.50779 0.88164 0.9771 0.0
C690 C 0.4534 0.80148 0.97516 0.0
C691 C 0.41663 0.80989 0.97955 0.0
O692 O 0.52331 0.97923 0.95461 0.0
O693 O 0.5407 0.02436 1.00815 0.0
O694 O 0.51185 0.07287 0.01772 0.0
O695 O 0.46043 0.01496 0.99152 0.0
O696 O 0.56156 0.98748 0.98665 0.0
O697 O 0.45626 0.97567 0.95536 0.0
O698 O 0.48307 0.01342 0.08236 0.0
O699 O 0.46667 0.97004 0.02908 0.0
O700 O 0.49633 0.92205 0.01936 0.0
O701 O 0.54768 0.98018 0.04547 0.0
O702 O 0.44572 0.00724 0.05017 0.0
O703 O 0.55126 0.01957 0.08202 0.0
C704 C 0.57604 0.02342 0.99981 0.0
C705 C 0.48158 0.96098 0.91674 0.0
C706 C 0.48941 0.96835 0.87115 0.0
C707 C 0.49516 0.98806 0.8949 0.0
C708 C 0.46924 0.92123 0.86962 0.0
C709 C 0.46106 0.91403 0.91467 0.0
C710 C 0.45486 0.89434 0.89121 0.0
C711 C 0.4809 0.05727 0.99935 0.0
C712 C 0.49168 0.98223 0.94155 0.0
C713 C 0.3698 0.77501 0.97996 0.0
C714 C 0.33385 0.78521 0.98275 0.0
C715 C 0.43126 0.97107 0.03721 0.0
C716 C 0.52368 0.03202 0.12057 0.0
C717 C 0.51058 0.00454 0.14229 0.0
C718 C 0.5146 0.02352 0.16613 0.0
C719 C 0.53258 0.07034 0.16786 0.0
C720 C 0.542 0.07867 0.1229 0.0
C721 C 0.54649 0.09764 0.14643 0.0
C722 C 0.52764 0.93795 0.03754 0.0
C723 C 0.51505 0.01141 0.0956 0.0
H724 H 0.51132 0.02441 0.8964 0.0
H725 H 0.4642 0.90516 0.85165 0.0
H726 H 0.4504 0.89269 0.93119 0.0
H727 H 0.43919 0.85808 0.88977 0.0
H728 H 0.49606 0.96839 0.14059 0.0
H729 H 0.53626 0.08589 0.18589 0.0
H730 H 0.5522 0.10029 0.1065 0.0
H731 H 0.56043 0.13366 0.14806 0.0
Eu732 Eu 0.04183 0.51142 0.99147 0.0
C733 C 0.855 0.43916 0.05047 0.0
C734 C 0.83591 0.4985 0.04488 0.0
C735 C 0.7737 0.42051 0.04907 0.0
C736 C 0.86923 0.48428 0.04688 0.0
C737 C 0.80711 0.40691 0.0525 0.0
C738 C 0.78816 0.46623 0.04507 0.0
C739 C 0.82909 0.35104 0.06297 0.0
N740 N 0.88815 0.42714 0.0533 0.0
C741 C 0.87616 0.38422 0.06051 0.0
C742 C 0.79436 0.36224 0.05849 0.0
Eu743 Eu 0.96678 0.48441 0.04734 0.0
N744 N 0.91569 0.5145 0.04628 0.0
C745 C 0.93113 0.55978 0.04598 0.0
C746 C 0.85158 0.54474 0.04309 0.0
C747 C 0.89939 0.57554 0.04411 0.0
H748 H 0.90299 0.37537 0.06355 0.0
H749 H 0.91189 0.61143 0.04319 0.0
H750 H 0.76228 0.47655 0.04259 0.0
H751 H 0.81964 0.3168 0.06806 0.0
H752 H 0.96792 0.58408 0.0464 0.0
H753 H 0.10006 0.38696 0.99474 0.0
H754 H 0.82707 0.55701 0.04145 0.0
H755 H 0.10378 0.62112 0.97596 0.0
H756 H 0.04274 0.41291 0.99206 0.0
H757 H 0.18669 0.68076 0.97138 0.0
H758 H 0.7367 0.39609 0.04996 0.0
H759 H 0.18459 0.44256 0.99623 0.0
H760 H 0.2482 0.52343 0.99521 0.0
H761 H 0.75793 0.33645 0.06027 0.0
H762 H 0.27228 0.60363 0.98823 0.0
N763 N 0.09404 0.48275 0.99224 0.0
C764 C 0.07943 0.43765 0.99239 0.0
C765 C 0.15952 0.45419 0.99483 0.0
C766 C 0.17431 0.50028 0.99326 0.0
C767 C 0.11188 0.42272 0.99396 0.0
C768 C 0.14031 0.51367 0.99157 0.0
H769 H 0.24947 0.66239 0.97862 0.0
N770 N 0.11994 0.5701 0.98593 0.0
C771 C 0.17789 0.64664 0.97633 0.0
C772 C 0.15369 0.55873 0.98836 0.0
C773 C 0.13108 0.61288 0.97888 0.0
C774 C 0.21324 0.63615 0.98048 0.0
C775 C 0.20136 0.59161 0.98621 0.0
O776 O 0.03317 0.53582 0.95526 0.0
O777 O 0.97623 0.50525 1.00726 0.0
O778 O 0.92496 0.43095 0.01876 0.0
O779 O 0.98498 0.43676 0.99316 0.0
O780 O 0.01653 0.56166 0.98544 0.0
O781 O 0.03304 0.47246 0.95764 0.0
O782 O 0.96973 0.45806 0.08419 0.0
O783 O 0.03164 0.48964 0.03135 0.0
O784 O 0.08408 0.56407 0.02029 0.0
O785 O 0.02398 0.5589 0.04551 0.0
O786 O 0.99207 0.43417 0.0538 0.0
O787 O 0.98284 0.52659 0.0803 0.0
C788 C 0.97769 0.5398 0.99762 0.0
C789 C 0.05963 0.51478 0.91996 0.0
C790 C 0.06206 0.51851 0.87452 0.0
C791 C 0.03659 0.50355 0.89694 0.0
C792 C 0.11098 0.54463 0.87532 0.0
C793 C 0.10858 0.54015 0.92054 0.0
C794 C 0.1341 0.55498 0.89827 0.0
C795 C 0.94097 0.4151 1.00119 0.0
C796 C 0.03165 0.50242 0.94296 0.0
C797 C 0.23543 0.57875 0.98925 0.0
C798 C 0.22184 0.53317 0.99299 0.0
C799 C 0.03039 0.45534 0.04116 0.0
C800 C 0.95012 0.48844 0.11833 0.0
C801 C 0.97062 0.49185 0.14173 0.0
C802 C 0.9456 0.48756 0.16378 0.0
C803 C 0.89946 0.47923 0.16209 0.0
C804 C 0.90399 0.47988 0.11692 0.0
C805 C 0.87877 0.47516 0.13876 0.0
C806 C 0.06818 0.58006 0.03782 0.0
C807 C 0.97779 0.49466 0.09571 0.0
H808 H 0.99872 0.48415 0.89645 0.0
H809 H 0.13121 0.55647 0.85822 0.0
H810 H 0.127 0.54897 0.93808 0.0
H811 H 0.17184 0.57483 0.89881 0.0
H812 H 0.00651 0.49904 0.14275 0.0
H813 H 0.87942 0.47574 0.1788 0.0
H814 H 0.88766 0.47719 0.09904 0.0
H815 H 0.8432 0.46866 0.13759 0.0
Eu816 Eu 0.52072 0.47914 0.04861 0.0
C817 C 0.44072 0.57711 0.98173 0.0
C818 C 0.35694 0.52724 0.97991 0.0
C819 C 0.3895 0.60811 0.97423 0.0
C820 C 0.4024 0.53408 0.98331 0.0
C821 C 0.43472 0.61459 0.97695 0.0
C822 C 0.35077 0.56452 0.9755 0.0
C823 C 0.51866 0.66161 0.97541 0.0
N824 N 0.48402 0.58206 0.98355 0.0
C825 C 0.52288 0.6234 0.97976 0.0
C826 C 0.47439 0.65727 0.97419 0.0
Eu827 Eu 0.48813 0.51554 0.99081 0.0
N828 N 0.4097 0.49868 0.98679 0.0
C829 C 0.37327 0.45542 0.98592 0.0
C830 C 0.3192 0.48303 0.98024 0.0
C831 C 0.32747 0.44695 0.98309 0.0
H832 H 0.55734 0.62732 0.98056 0.0
H833 H 0.29862 0.41259 0.98295 0.0
H834 H 0.31638 0.56001 0.9723 0.0
H835 H 0.54958 0.69436 0.9729 0.0
H836 H 0.37932 0.42727 0.98781 0.0
H837 H 0.71007 0.58434 0.05606 0.0
H838 H 0.28373 0.47634 0.97777 0.0
H839 H 0.45302 0.36751 0.05917 0.0
H840 H 0.62894 0.56846 0.05137 0.0
H841 H 0.46199 0.30105 0.06682 0.0
H842 H 0.38418 0.63644 0.97045 0.0
H843 H 0.72623 0.5214 0.06114 0.0
H844 H 0.69481 0.43795 0.06662 0.0
H845 H 0.47121 0.68688 0.97057 0.0
H846 H 0.62779 0.36104 0.0686 0.0
N847 N 0.59955 0.49715 0.05234 0.0
C848 C 0.63553 0.54064 0.0532 0.0
C849 C 0.69057 0.51417 0.05872 0.0
C850 C 0.65329 0.46972 0.05906 0.0
C851 C 0.68158 0.5498 0.05593 0.0
C852 C 0.60756 0.46218 0.05575 0.0
H853 H 0.54087 0.30963 0.06877 0.0
N854 N 0.52611 0.41332 0.05575 0.0
C855 C 0.49258 0.33397 0.06414 0.0
C856 C 0.56968 0.4189 0.05739 0.0
C857 C 0.48766 0.3718 0.05979 0.0
C858 C 0.53714 0.33893 0.06514 0.0
C859 C 0.5764 0.38186 0.06219 0.0
O860 O 0.48205 0.45767 0.08381 0.0
O861 O 0.46622 0.49 0.02986 0.0
O862 O 0.49702 0.56481 0.02091 0.0
O863 O 0.54814 0.55511 0.0468 0.0
O864 O 0.4425 0.43208 0.05109 0.0
O865 O 0.55 0.51794 0.08276 0.0
O866 O 0.52716 0.53623 0.9557 0.0
O867 O 0.5425 0.50443 1.00954 0.0
O868 O 0.51068 0.42928 0.01859 0.0
O869 O 0.45976 0.43947 0.99278 0.0
O870 O 0.56637 0.56257 0.98859 0.0
O871 O 0.45858 0.4768 0.95666 0.0
C872 C 0.42959 0.45546 0.03777 0.0
C873 C 0.52587 0.47674 0.1209 0.0
C874 C 0.51991 0.4737 0.16644 0.0
C875 C 0.51279 0.48896 0.14321 0.0
C876 C 0.5408 0.44653 0.16704 0.0
C877 C 0.54714 0.45004 0.12194 0.0
C878 C 0.55461 0.4351 0.14491 0.0
C879 C 0.52811 0.57841 0.0391 0.0
C880 C 0.51487 0.49007 0.09675 0.0
C881 C 0.6219 0.38902 0.0648 0.0
C882 C 0.66019 0.43287 0.06346 0.0
C883 C 0.57922 0.539 1.00177 0.0
C884 C 0.48377 0.51779 0.9185 0.0
C885 C 0.49711 0.50552 0.89628 0.0
C886 C 0.49068 0.5211 0.87299 0.0
C887 C 0.47024 0.54866 0.87223 0.0
C888 C 0.46297 0.54489 0.9173 0.0
C889 C 0.4562 0.56015 0.89426 0.0
C890 C 0.47926 0.41575 1.00055 0.0
C891 C 0.49409 0.50413 0.94274 0.0
H892 H 0.49603 0.50934 0.14247 0.0
H893 H 0.54686 0.43453 0.18467 0.0
H894 H 0.55753 0.44038 0.10504 0.0
H895 H 0.57088 0.41435 0.14556 0.0
H896 H 0.51353 0.48484 0.89716 0.0
H897 H 0.46468 0.56089 0.85456 0.0
H898 H 0.45243 0.55461 0.93413 0.0
H899 H 0.44028 0.58121 0.89349 0.0
Eu900 Eu 0.15091 0.29614 0.32307 0.0
C901 C 0.24536 0.47287 0.38793 0.0
C902 C 0.32817 0.49842 0.38615 0.0
C903 C 0.30193 0.55292 0.39125 0.0
C904 C 0.28119 0.46337 0.38536 0.0
C905 C 0.25529 0.51765 0.39144 0.0
C906 C 0.33832 0.54332 0.38857 0.0
C907 C 0.17253 0.48902 0.39693 0.0
N908 N 0.20077 0.43802 0.38812 0.0
C909 C 0.16449 0.4452 0.39338 0.0
C910 C 0.21808 0.52549 0.39564 0.0
Eu911 Eu 0.18967 0.36502 0.38081 0.0
N912 N 0.27015 0.41963 0.38318 0.0
C913 C 0.30441 0.40829 0.38359 0.0
C914 C 0.36349 0.48717 0.38509 0.0
C915 C 0.35152 0.44184 0.38416 0.0
H916 H 0.12915 0.41727 0.39431 0.0
H917 H 0.37854 0.4327 0.38379 0.0
H918 H 0.37418 0.57074 0.38898 0.0
H919 H 0.14358 0.49463 0.40059 0.0
H920 H 0.2957 0.37344 0.38278 0.0
H921 H 0.96234 0.23056 0.32073 0.0
H922 H 0.4 0.51309 0.38554 0.0
H923 H 0.20994 0.24272 0.30932 0.0
H924 H 0.04547 0.2891 0.32136 0.0
H925 H 0.19443 0.16491 0.30311 0.0
H926 H 0.31026 0.58759 0.39368 0.0
H927 H 0.9398 0.14987 0.31925 0.0
H928 H 0.96454 0.09141 0.31586 0.0
H929 H 0.22422 0.55939 0.39842 0.0
H930 H 0.02769 0.07352 0.31094 0.0
N931 N 0.07015 0.24222 0.32105 0.0
C932 C 0.0363 0.25411 0.32068 0.0
C933 C 0.97644 0.17547 0.31955 0.0
C934 C 0.01133 0.16364 0.31842 0.0
C935 C 0.98902 0.22097 0.32033 0.0
C936 C 0.05849 0.1983 0.319 0.0
H937 H 0.11348 0.10075 0.30576 0.0
N938 N 0.13865 0.22271 0.31592 0.0
C939 C 0.16583 0.17096 0.30694 0.0
C940 C 0.09388 0.18821 0.31635 0.0
C941 C 0.17448 0.21499 0.31043 0.0
C942 C 0.1201 0.13483 0.3085 0.0
C943 C 0.08333 0.14323 0.3129 0.0
O944 O 0.18997 0.31257 0.28794 0.0
O945 O 0.20736 0.35771 0.34148 0.0
O946 O 0.17849 0.40621 0.35106 0.0
O947 O 0.12709 0.3483 0.32486 0.0
O948 O 0.22823 0.32084 0.31998 0.0
O949 O 0.12292 0.30899 0.28869 0.0
O950 O 0.14973 0.34668 0.41569 0.0
O951 O 0.13335 0.30337 0.36241 0.0
O952 O 0.16305 0.25541 0.35269 0.0
O953 O 0.21439 0.31356 0.3788 0.0
O954 O 0.11239 0.34056 0.3835 0.0
O955 O 0.21798 0.353 0.41536 0.0
C956 C 0.24271 0.35678 0.33314 0.0
C957 C 0.14823 0.29429 0.25008 0.0
C958 C 0.15605 0.30165 0.20449 0.0
C959 C 0.16181 0.32137 0.22823 0.0
C960 C 0.13589 0.25453 0.20297 0.0
C961 C 0.12771 0.24735 0.24802 0.0
C962 C 0.12151 0.22765 0.22456 0.0
C963 C 0.14754 0.3906 0.33269 0.0
C964 C 0.15834 0.31555 0.27489 0.0
C965 C 0.0365 0.10835 0.31331 0.0
C966 C 1.00055 0.11853 0.3161 0.0
C967 C 0.09793 0.3044 0.37055 0.0
C968 C 0.19032 0.36537 0.45391 0.0
C969 C 0.17723 0.33788 0.47562 0.0
C970 C 0.18119 0.35686 0.49946 0.0
C971 C 0.19908 0.40366 0.50119 0.0
C972 C 0.20856 0.412 0.45623 0.0
C973 C 0.21298 0.43097 0.47976 0.0
C974 C 0.19437 0.27133 0.37087 0.0
C975 C 0.18175 0.34476 0.42894 0.0
H976 H 0.17797 0.35772 0.22974 0.0
H977 H 0.13084 0.23845 0.185 0.0
H978 H 0.11705 0.22601 0.26453 0.0
H979 H 0.10584 0.19139 0.22311 0.0
H980 H 0.16277 0.30175 0.47393 0.0
H981 H 0.20271 0.41921 0.51922 0.0
H982 H 0.21874 0.43363 0.43983 0.0
H983 H 0.22686 0.46698 0.48139 0.0
Eu984 Eu 0.70857 0.84473 0.32476 0.0
C985 C 0.52173 0.77241 0.38377 0.0
C986 C 0.5026 0.83172 0.37819 0.0
C987 C 0.44043 0.75372 0.38237 0.0
C988 C 0.53594 0.81753 0.38018 0.0
C989 C 0.47385 0.74014 0.3858 0.0
C990 C 0.45486 0.79944 0.37837 0.0
C991 C 0.49587 0.6843 0.39627 0.0
N992 N 0.5549 0.76041 0.3866 0.0
C993 C 0.54293 0.7175 0.3938 0.0
C994 C 0.46112 0.69548 0.39179 0.0
Eu995 Eu 0.63352 0.81771 0.38063 0.0
N996 N 0.58239 0.84776 0.37958 0.0
C997 C 0.59781 0.89304 0.37928 0.0
C998 C 0.51825 0.87796 0.3764 0.0
C999 C 0.56606 0.90878 0.37741 0.0
H1000 H 0.56977 0.70866 0.39685 0.0
H1001 H 0.57854 0.94466 0.37649 0.0
H1002 H 0.42897 0.80974 0.37589 0.0
H1003 H 0.48644 0.65006 0.40136 0.0
H1004 H 0.6346 0.91735 0.3797 0.0
H1005 H 0.76689 0.72034 0.32806 0.0
H1006 H 0.49373 0.89021 0.37475 0.0
H1007 H 0.77046 0.95443 0.30925 0.0
H1008 H 0.70953 0.74625 0.32537 0.0
H1009 H 0.85336 0.0141 0.30466 0.0
H1010 H 0.40343 0.72929 0.38327 0.0
H1011 H 0.8514 0.77597 0.32954 0.0
H1012 H 0.91499 0.85686 0.32851 0.0
H1013 H 0.4247 0.66967 0.39356 0.0
H1014 H 0.93902 0.93704 0.32153 0.0
N1015 N 0.76081 0.8161 0.32554 0.0
C1016 C 0.74622 0.771 0.3257 0.0
C1017 C 0.82632 0.78758 0.32814 0.0
C1018 C 0.84109 0.83367 0.32656 0.0
C1019 C 0.77868 0.7561 0.32727 0.0
C1020 C 0.80707 0.84704 0.32487 0.0
H1021 H 0.91617 0.99578 0.3119 0.0
N1022 N 0.78666 0.90344 0.31921 0.0
C1023 C 0.84458 0.97999 0.30961 0.0
C1024 C 0.82043 0.89209 0.32165 0.0
C1025 C 0.79777 0.94621 0.31217 0.0
C1026 C 0.87995 0.96952 0.31377 0.0
C1027 C 0.86809 0.92499 0.3195 0.0
O1028 O 0.69985 0.86909 0.28855 0.0
O1029 O 0.64297 0.83856 0.34056 0.0
O1030 O 0.5917 0.76426 0.35206 0.0
O1031 O 0.65172 0.77006 0.32646 0.0
O1032 O 0.68325 0.89497 0.31874 0.0
O1033 O 0.69981 0.80578 0.29094 0.0
O1034 O 0.6365 0.79137 0.41749 0.0
O1035 O 0.69839 0.82295 0.36465 0.0
O1036 O 0.75081 0.89739 0.35359 0.0
O1037 O 0.6907 0.8922 0.37881 0.0
O1038 O 0.65882 0.76747 0.38709 0.0
O1039 O 0.64955 0.85988 0.4136 0.0
C1040 C 0.64442 0.8731 0.33092 0.0
C1041 C 0.72634 0.84809 0.25325 0.0
C1042 C 0.72875 0.85185 0.20782 0.0
C1043 C 0.70329 0.83686 0.23023 0.0
C1044 C 0.77767 0.87798 0.20861 0.0
C1045 C 0.77529 0.87348 0.25382 0.0
C1046 C 0.80079 0.88834 0.23155 0.0
C1047 C 0.60771 0.74841 0.33449 0.0
C1048 C 0.69837 0.83571 0.27625 0.0
C1049 C 0.90217 0.91215 0.32254 0.0
C1050 C 0.88861 0.86658 0.32629 0.0
C1051 C 0.69714 0.78865 0.37446 0.0
C1052 C 0.61687 0.82172 0.45163 0.0
C1053 C 0.63739 0.82515 0.47503 0.0
C1054 C 0.61237 0.82083 0.49708 0.0
C1055 C 0.56621 0.81246 0.4954 0.0
C1056 C 0.57072 0.81312 0.45023 0.0
C1057 C 0.5455 0.80837 0.47207 0.0
C1058 C 0.7349 0.91337 0.37111 0.0
C1059 C 0.64454 0.82796 0.42901 0.0
H1060 H 0.66542 0.81745 0.22975 0.0
H1061 H 0.79789 0.88984 0.19151 0.0
H1062 H 0.79372 0.8823 0.27136 0.0
H1063 H 0.83854 0.9082 0.23209 0.0
H1064 H 0.67328 0.83237 0.47604 0.0
H1065 H 0.54617 0.80895 0.51212 0.0
H1066 H 0.55438 0.81042 0.43235 0.0
H1067 H 0.50992 0.80184 0.47091 0.0
Eu1068 Eu 0.18752 0.81254 0.38198 0.0
C1069 C 0.10759 0.91057 0.31511 0.0
C1070 C 0.0238 0.86075 0.31331 0.0
C1071 C 0.05642 0.94163 0.30762 0.0
C1072 C 0.06925 0.86755 0.31669 0.0
C1073 C 0.10162 0.94807 0.31033 0.0
C1074 C 0.01766 0.89805 0.3089 0.0
C1075 C 0.18557 0.99504 0.30876 0.0
N1076 N 0.15088 0.91548 0.31692 0.0
C1077 C 0.18976 0.9568 0.31311 0.0
C1078 C 0.14131 0.99074 0.30755 0.0
Eu1079 Eu 0.15492 0.84893 0.32418 0.0
N1080 N 0.07651 0.83214 0.32018 0.0
C1081 C 0.04005 0.78889 0.31931 0.0
C1082 C 0.98604 0.81655 0.31364 0.0
C1083 C 0.99426 0.78045 0.31649 0.0
H1084 H 0.22421 0.9607 0.31391 0.0
H1085 H 0.9654 0.74611 0.31635 0.0
H1086 H 0.98328 0.89357 0.30571 0.0
H1087 H 0.2165 0.02777 0.30624 0.0
H1088 H 0.04608 0.76072 0.3212 0.0
H1089 H 0.3769 0.91763 0.38937 0.0
H1090 H 0.95058 0.80989 0.31118 0.0
H1091 H 0.11977 0.70093 0.39259 0.0
H1092 H 0.29578 0.90181 0.38472 0.0
H1093 H 0.12867 0.63444 0.40024 0.0
H1094 H 0.05112 0.96997 0.30385 0.0
H1095 H 0.39299 0.85465 0.39445 0.0
H1096 H 0.36153 0.77119 0.39994 0.0
H1097 H 0.13816 0.02036 0.30394 0.0
H1098 H 0.29446 0.69431 0.40195 0.0
N1099 N 0.26634 0.8305 0.38569 0.0
C1100 C 0.30235 0.87398 0.38654 0.0
C1101 C 0.35734 0.84745 0.39204 0.0
C1102 C 0.32005 0.80301 0.3924 0.0
C1103 C 0.34839 0.8831 0.38925 0.0
C1104 C 0.27432 0.79551 0.3891 0.0
H1105 H 0.20753 0.64296 0.40216 0.0
N1106 N 0.19286 0.74669 0.38914 0.0
C1107 C 0.15928 0.66735 0.39754 0.0
C1108 C 0.23642 0.75224 0.39076 0.0
C1109 C 0.1544 0.70519 0.39319 0.0
C1110 C 0.20383 0.67227 0.39852 0.0
C1111 C 0.24311 0.71518 0.39555 0.0
O1112 O 0.14889 0.79114 0.41719 0.0
O1113 O 0.13303 0.82342 0.36324 0.0
O1114 O 0.16385 0.89823 0.35427 0.0
O1115 O 0.21498 0.88852 0.38016 0.0
O1116 O 0.10931 0.76552 0.3845 0.0
O1117 O 0.21687 0.85135 0.41612 0.0
O1118 O 0.19393 0.86956 0.28907 0.0
O1119 O 0.20929 0.8378 0.3429 0.0
O1120 O 0.17741 0.76264 0.35197 0.0
O1121 O 0.1265 0.77285 0.32617 0.0
O1122 O 0.23316 0.89593 0.32194 0.0
O1123 O 0.12532 0.81017 0.29004 0.0
C1124 C 0.0964 0.7889 0.37116 0.0
C1125 C 0.19275 0.81018 0.45427 0.0
C1126 C 0.18676 0.8071 0.49981 0.0
C1127 C 0.17963 0.82237 0.47659 0.0
C1128 C 0.20767 0.77996 0.50041 0.0
C1129 C 0.21405 0.78351 0.4553 0.0
C1130 C 0.22151 0.76856 0.47827 0.0
C1131 C 0.19496 0.91184 0.37245 0.0
C1132 C 0.18174 0.82352 0.43012 0.0
C1133 C 0.2886 0.7223 0.39815 0.0
C1134 C 0.32691 0.76614 0.39679 0.0
C1135 C 0.24601 0.87236 0.33512 0.0
C1136 C 0.15052 0.85114 0.25187 0.0
C1137 C 0.16385 0.83886 0.22965 0.0
C1138 C 0.15742 0.85445 0.20636 0.0
C1139 C 0.13699 0.88202 0.20561 0.0
C1140 C 0.12974 0.87825 0.25068 0.0
C1141 C 0.12297 0.89353 0.22764 0.0
C1142 C 0.14598 0.74911 0.33394 0.0
C1143 C 0.16084 0.83748 0.27611 0.0
H1144 H 0.16284 0.84273 0.47585 0.0
H1145 H 0.21374 0.76796 0.51803 0.0
H1146 H 0.22447 0.77388 0.4384 0.0
H1147 H 0.23781 0.74783 0.47892 0.0
H1148 H 0.18025 0.81817 0.23053 0.0
H1149 H 0.13144 0.89426 0.18794 0.0
H1150 H 0.1192 0.88798 0.2675 0.0
H1151 H 0.10707 0.9146 0.22687 0.0
Eu1152 Eu 0.81764 0.62948 0.65641 0.0
C1153 C 0.91217 0.8062 0.72127 0.0
C1154 C 0.99496 0.83169 0.71951 0.0
C1155 C 0.96879 0.88624 0.7246 0.0
C1156 C 0.94797 0.79666 0.71872 0.0
C1157 C 0.92213 0.851 0.72478 0.0
C1158 C 0.00515 0.8766 0.72194 0.0
C1159 C 0.83938 0.82243 0.73025 0.0
N1160 N 0.86757 0.77138 0.72146 0.0
C1161 C 0.8313 0.7786 0.72671 0.0
C1162 C 0.88495 0.85888 0.72897 0.0
Eu1163 Eu 0.8564 0.69836 0.71416 0.0
N1164 N 0.93689 0.75292 0.71654 0.0
C1165 C 0.97112 0.74154 0.71696 0.0
C1166 C 0.03026 0.8204 0.71846 0.0
C1167 C 0.01824 0.77506 0.71753 0.0
H1168 H 0.79595 0.75069 0.72763 0.0
H1169 H 0.04524 0.76589 0.71717 0.0
H1170 H 0.04102 0.904 0.72235 0.0
H1171 H 0.81045 0.82807 0.7339 0.0
H1172 H 0.96238 0.70668 0.71614 0.0
H1173 H 0.62907 0.56396 0.65404 0.0
H1174 H 0.06677 0.8463 0.71892 0.0
H1175 H 0.87664 0.57603 0.64268 0.0
H1176 H 0.71221 0.62248 0.65469 0.0
H1177 H 0.86111 0.49821 0.63647 0.0
H1178 H 0.97714 0.92092 0.72703 0.0
H1179 H 0.60651 0.48326 0.65255 0.0
H1180 H 0.63122 0.42478 0.64916 0.0
H1181 H 0.89112 0.89279 0.73175 0.0
H1182 H 0.69436 0.40687 0.64426 0.0
N1183 N 0.73687 0.57558 0.65437 0.0
C1184 C 0.70303 0.58748 0.654 0.0
C1185 C 0.64315 0.50885 0.65286 0.0
C1186 C 0.67803 0.497 0.65174 0.0
C1187 C 0.65575 0.55436 0.65364 0.0
C1188 C 0.7252 0.53165 0.65233 0.0
H1189 H 0.78015 0.43407 0.6391 0.0
N1190 N 0.80535 0.55604 0.64926 0.0
C1191 C 0.83252 0.50427 0.64029 0.0
C1192 C 0.76058 0.52156 0.64968 0.0
C1193 C 0.84118 0.54831 0.64378 0.0
C1194 C 0.78678 0.46815 0.64185 0.0
C1195 C 0.75002 0.47657 0.64623 0.0
O1196 O 0.85671 0.64591 0.62129 0.0
O1197 O 0.8741 0.69103 0.67483 0.0
O1198 O 0.84525 0.73956 0.6844 0.0
O1199 O 0.79384 0.68165 0.6582 0.0
O1200 O 0.89495 0.65415 0.65334 0.0
O1201 O 0.78968 0.64236 0.62203 0.0
O1202 O 0.81645 0.68008 0.74904 0.0
O1203 O 0.80006 0.63673 0.69575 0.0
O1204 O 0.82971 0.58873 0.68604 0.0
O1205 O 0.88106 0.64685 0.71216 0.0
O1206 O 0.77912 0.67393 0.71684 0.0
O1207 O 0.88465 0.68627 0.74871 0.0
C1208 C 0.90944 0.69009 0.66649 0.0
C1209 C 0.815 0.62767 0.58342 0.0
C1210 C 0.82282 0.63504 0.53783 0.0
C1211 C 0.82857 0.65475 0.56158 0.0
C1212 C 0.80267 0.58793 0.5363 0.0
C1213 C 0.79449 0.58072 0.58135 0.0
C1214 C 0.78829 0.56104 0.55789 0.0
C1215 C 0.81431 0.72396 0.66602 0.0
C1216 C 0.82509 0.64891 0.60823 0.0
C1217 C 0.70319 0.4417 0.64663 0.0
C1218 C 0.66724 0.4519 0.64942 0.0
C1219 C 0.76465 0.63776 0.70389 0.0
C1220 C 0.85704 0.6987 0.78725 0.0
C1221 C 0.84393 0.67122 0.80897 0.0
C1222 C 0.84792 0.6902 0.8328 0.0
C1223 C 0.86588 0.73702 0.83454 0.0
C1224 C 0.87534 0.74535 0.78958 0.0
C1225 C 0.8798 0.76432 0.81311 0.0
C1226 C 0.86102 0.60462 0.70423 0.0
C1227 C 0.84844 0.67809 0.76228 0.0
H1228 H 0.84472 0.6911 0.56309 0.0
H1229 H 0.79763 0.57186 0.51833 0.0
H1230 H 0.78383 0.55938 0.59786 0.0
H1231 H 0.77263 0.52478 0.55644 0.0
H1232 H 0.82942 0.63508 0.80727 0.0
H1233 H 0.86954 0.75256 0.85257 0.0
H1234 H 0.88554 0.76697 0.77318 0.0
H1235 H 0.89373 0.80034 0.81474 0.0
Eu1236 Eu 0.37524 0.17811 0.65809 0.0
C1237 C 0.18839 0.10583 0.71709 0.0
C1238 C 0.16928 0.16515 0.71151 0.0
C1239 C 0.10709 0.08716 0.7157 0.0
C1240 C 0.20261 0.15095 0.7135 0.0
C1241 C 0.1405 0.07357 0.71913 0.0
C1242 C 0.12153 0.13288 0.7117 0.0
C1243 C 0.16251 0.01771 0.7296 0.0
N1244 N 0.22154 0.09381 0.71992 0.0
C1245 C 0.20957 0.0509 0.72713 0.0
C1246 C 0.12776 0.0289 0.72512 0.0
Eu1247 Eu 0.30017 0.1511 0.71395 0.0
N1248 N 0.24907 0.18117 0.7129 0.0
C1249 C 0.26449 0.22645 0.7126 0.0
C1250 C 0.18494 0.21139 0.70972 0.0
C1251 C 0.23275 0.2422 0.71073 0.0
H1252 H 0.23641 0.04206 0.73018 0.0
H1253 H 0.24524 0.27808 0.7098 0.0
H1254 H 0.09565 0.14319 0.70922 0.0
H1255 H 0.15306 0.98347 0.73469 0.0
H1256 H 0.30129 0.25076 0.71301 0.0
H1257 H 0.43347 0.05366 0.66138 0.0
H1258 H 0.16043 0.22365 0.70807 0.0
H1259 H 0.43718 0.28782 0.64258 0.0
H1260 H 0.37615 0.0796 0.65869 0.0
H1261 H 0.52009 0.34746 0.63801 0.0
H1262 H 0.07009 0.06274 0.7166 0.0
H1263 H 0.51799 0.10926 0.66288 0.0
H1264 H 0.58161 0.19014 0.66188 0.0
H1265 H 0.09134 0.0031 0.7269 0.0
H1266 H 0.60569 0.27033 0.65489 0.0
N1267 N 0.42744 0.14945 0.65887 0.0
C1268 C 0.41284 0.10435 0.65902 0.0
C1269 C 0.49293 0.12089 0.66148 0.0
C1270 C 0.50771 0.16699 0.6599 0.0
C1271 C 0.44528 0.08942 0.66059 0.0
C1272 C 0.47371 0.18038 0.65821 0.0
H1273 H 0.58288 0.3291 0.64527 0.0
N1274 N 0.45334 0.2368 0.65256 0.0
C1275 C 0.5113 0.31334 0.64297 0.0
C1276 C 0.4871 0.22543 0.65499 0.0
C1277 C 0.46448 0.27958 0.64551 0.0
C1278 C 0.54665 0.30285 0.64712 0.0
C1279 C 0.53477 0.25831 0.65286 0.0
O1280 O 0.36657 0.20251 0.62188 0.0
O1281 O 0.30963 0.17194 0.67388 0.0
O1282 O 0.25836 0.09764 0.68539 0.0
O1283 O 0.31838 0.10345 0.65978 0.0
O1284 O 0.34992 0.22835 0.65206 0.0
O1285 O 0.3665 0.13918 0.62426 0.0
O1286 O 0.30315 0.12476 0.75081 0.0
O1287 O 0.36505 0.15634 0.69798 0.0
O1288 O 0.41747 0.23077 0.68692 0.0
O1289 O 0.35736 0.22559 0.71213 0.0
O1290 O 0.32546 0.10086 0.72042 0.0
O1291 O 0.3162 0.19327 0.74692 0.0
C1292 C 0.31108 0.20648 0.66423 0.0
C1293 C 0.39308 0.18153 0.58658 0.0
C1294 C 0.39554 0.18532 0.54115 0.0
C1295 C 0.37006 0.17032 0.56355 0.0
C1296 C 0.44446 0.21145 0.54196 0.0
C1297 C 0.44203 0.20692 0.58717 0.0
C1298 C 0.46756 0.22179 0.56491 0.0
C1299 C 0.27437 0.08179 0.66782 0.0
C1300 C 0.36508 0.16914 0.60958 0.0
C1301 C 0.56883 0.24546 0.6559 0.0
C1302 C 0.55524 0.19987 0.65965 0.0
C1303 C 0.36379 0.12203 0.70779 0.0
C1304 C 0.2835 0.1551 0.78495 0.0
C1305 C 0.30401 0.1585 0.80835 0.0
C1306 C 0.27898 0.15417 0.8304 0.0
C1307 C 0.23283 0.14582 0.82871 0.0
C1308 C 0.23736 0.14651 0.78354 0.0
C1309 C 0.21213 0.14175 0.80538 0.0
C1310 C 0.40156 0.24676 0.70444 0.0
C1311 C 0.31118 0.16135 0.76233 0.0
H1312 H 0.33219 0.15091 0.56306 0.0
H1313 H 0.46471 0.22332 0.52486 0.0
H1314 H 0.46044 0.21572 0.60471 0.0
H1315 H 0.50531 0.24164 0.56546 0.0
H1316 H 0.3399 0.16571 0.80937 0.0
H1317 H 0.21278 0.1423 0.84543 0.0
H1318 H 0.22104 0.14383 0.76566 0.0
H1319 H 0.17656 0.13523 0.80422 0.0
Eu1320 Eu 0.85411 0.14583 0.7153 0.0
C1321 C 0.77412 0.24379 0.64841 0.0
C1322 C 0.69034 0.19393 0.64659 0.0
C1323 C 0.72291 0.2748 0.6409 0.0
C1324 C 0.7358 0.20076 0.64999 0.0
C1325 C 0.76812 0.28127 0.64363 0.0
C1326 C 0.68418 0.23121 0.64218 0.0
C1327 C 0.85207 0.32829 0.64208 0.0
N1328 N 0.81742 0.24873 0.65023 0.0
C1329 C 0.85629 0.29007 0.64644 0.0
C1330 C 0.8078 0.32395 0.64086 0.0
Eu1331 Eu 0.82151 0.18221 0.6575 0.0
N1332 N 0.74309 0.16536 0.65348 0.0
C1333 C 0.70665 0.1221 0.65261 0.0
C1334 C 0.6526 0.14972 0.64692 0.0
C1335 C 0.66085 0.11364 0.64978 0.0
H1336 H 0.89074 0.29399 0.64724 0.0
H1337 H 0.632 0.07928 0.64964 0.0
H1338 H 0.64979 0.2267 0.63897 0.0
H1339 H 0.88299 0.36103 0.63957 0.0
H1340 H 0.7127 0.09395 0.65451 0.0
H1341 H 0.04347 0.25101 0.72272 0.0
H1342 H 0.61713 0.14304 0.64445 0.0
H1343 H 0.78642 0.03421 0.72589 0.0
H1344 H 0.96234 0.23514 0.71805 0.0
H1345 H 0.79537 0.96775 0.73355 0.0
H1346 H 0.71759 0.30313 0.63712 0.0
H1347 H 0.05962 0.18807 0.7278 0.0
H1348 H 0.02821 0.10462 0.73329 0.0
H1349 H 0.80462 0.35357 0.63724 0.0
H1350 H 0.96117 0.02771 0.73529 0.0
N1351 N 0.93295 0.16383 0.71903 0.0
C1352 C 0.96894 0.20732 0.71987 0.0
C1353 C 0.02397 0.18085 0.72538 0.0
C1354 C 0.98669 0.13639 0.72574 0.0
C1355 C 0.01499 0.21648 0.7226 0.0
C1356 C 0.94095 0.12886 0.72244 0.0
H1357 H 0.87426 0.97632 0.73548 0.0
N1358 N 0.8595 0.08001 0.72246 0.0
C1359 C 0.82596 0.00066 0.73085 0.0
C1360 C 0.90308 0.08559 0.72409 0.0
C1361 C 0.82105 0.03849 0.72651 0.0
C1362 C 0.87053 0.00562 0.73185 0.0
C1363 C 0.90979 0.04854 0.72889 0.0
O1364 O 0.81547 0.12439 0.75051 0.0
O1365 O 0.79961 0.15668 0.69655 0.0
O1366 O 0.83041 0.23149 0.68759 0.0
O1367 O 0.88154 0.2218 0.71348 0.0
O1368 O 0.7759 0.09878 0.7178 0.0
O1369 O 0.88341 0.18465 0.74945 0.0
O1370 O 0.86053 0.20288 0.62239 0.0
O1371 O 0.87589 0.1711 0.67622 0.0
O1372 O 0.84405 0.09595 0.68529 0.0
O1373 O 0.79313 0.10614 0.65947 0.0
O1374 O 0.89975 0.22923 0.65527 0.0
O1375 O 0.79196 0.14345 0.62336 0.0
C1376 C 0.76299 0.12215 0.70447 0.0
C1377 C 0.8593 0.14348 0.78759 0.0
C1378 C 0.85333 0.14045 0.83313 0.0
C1379 C 0.84619 0.15569 0.8099 0.0
C1380 C 0.87425 0.11331 0.83374 0.0
C1381 C 0.88061 0.11681 0.78863 0.0
C1382 C 0.88808 0.10189 0.81161 0.0
C1383 C 0.86151 0.2451 0.70578 0.0
C1384 C 0.84828 0.15679 0.76344 0.0
C1385 C 0.95529 0.0557 0.73149 0.0
C1386 C 0.99359 0.09954 0.73014 0.0
C1387 C 0.91261 0.20567 0.66845 0.0
C1388 C 0.81713 0.18442 0.58518 0.0
C1389 C 0.83046 0.17214 0.56297 0.0
C1390 C 0.82402 0.18771 0.53968 0.0
C1391 C 0.80356 0.21526 0.53892 0.0
C1392 C 0.79632 0.21151 0.58399 0.0
C1393 C 0.78953 0.22676 0.56095 0.0
C1394 C 0.81263 0.08241 0.66725 0.0
C1395 C 0.82746 0.17078 0.60943 0.0
H1396 H 0.8294 0.17604 0.80916 0.0
H1397 H 0.88033 0.10133 0.85137 0.0
H1398 H 0.89102 0.10716 0.77174 0.0
H1399 H 0.90439 0.08116 0.81226 0.0
H1400 H 0.84689 0.15147 0.56385 0.0
H1401 H 0.79799 0.22749 0.52124 0.0
H1402 H 0.78578 0.22124 0.60081 0.0
H1403 H 0.77361 0.24781 0.56018 0.0
loop_
_geom_bond_atom_site_label_1
_geom_bond_atom_site_label_2
_geom_bond_distance
_geom_bond_site_symmetry_2
_ccdc_geom_bond_type
C0 C1 1.384 . S
C0 H13 0.947 . S
C0 C35 1.382 1_565 S
C1 C0 1.384 . S
C1 C2 1.378 1_565 S
C2 C1 1.378 1_545 S
C2 C3 1.378 . S
C2 H14 0.952 . S
C3 C2 1.378 . S
C3 H15 0.950 . S
C3 C34 1.383 . S
H4 C23 0.947 . S
H5 C24 0.946 . S
H6 C26 0.953 . S
H7 C27 0.945 . S
H8 C29 0.952 . S
H9 C30 0.949 . S
H10 C32 0.950 . S
H11 C33 0.948 . S
H12 C35 0.951 . S
H13 C0 0.947 . S
H14 C2 0.952 . S
H15 C3 0.950 . S
N16 C19 1.382 . S
N16 C21 1.363 . S
N17 C19 1.371 . S
N17 C20 1.372 . S
N18 C20 1.361 . S
N18 C21 1.377 . S
C19 N16 1.382 . S
C19 N17 1.371 . S
C19 C22 1.480 . S
C20 N17 1.372 . S
C20 N18 1.361 . S
C20 C28 1.457 . S
C21 N16 1.363 . S
C21 N18 1.377 . S
C21 C34 1.479 . S
C22 C19 1.480 . S
C22 C23 1.383 . S
C22 C27 1.385 . S
C23 H4 0.947 . S
C23 C22 1.383 . S
C23 C24 1.388 . S
C24 H5 0.946 . S
C24 C23 1.388 . S
C24 C25 1.384 . S
C25 C24 1.384 . S
C25 C26 1.377 . S
C26 H6 0.953 . S
C26 C25 1.377 . S
C26 C27 1.369 . S
C27 H7 0.945 . S
C27 C22 1.385 . S
C27 C26 1.369 . S
C28 C20 1.457 . S
C28 C29 1.372 . S
C28 C33 1.364 . S
C29 H8 0.952 . S
C29 C28 1.372 . S
C29 C30 1.389 . S
C30 H9 0.949 . S
C30 C29 1.389 . S
C30 C31 1.387 . S
C31 C30 1.387 . S
C31 C32 1.372 . S
C32 H10 0.950 . S
C32 C31 1.372 . S
C32 C33 1.379 . S
C33 H11 0.948 . S
C33 C28 1.364 . S
C33 C32 1.379 . S
C34 C3 1.383 . S
C34 C21 1.479 . S
C34 C35 1.398 . S
C35 C0 1.382 1_545 S
C35 H12 0.951 . S
C35 C34 1.398 . S
C36 C37 1.384 . S
C36 H49 0.947 . S
C36 C71 1.382 1_455 S
C37 C36 1.384 . S
C37 C38 1.378 . S
C38 C37 1.378 . S
C38 C39 1.378 1_455 S
C38 H50 0.952 . S
C39 C38 1.378 1_655 S
C39 H51 0.950 . S
C39 C70 1.383 . S
H40 C59 0.947 . S
H41 C60 0.946 . S
H42 C62 0.953 . S
H43 C63 0.945 . S
H44 C65 0.952 . S
H45 C66 0.949 . S
H46 C68 0.950 . S
H47 C69 0.948 . S
H48 C71 0.951 . S
H49 C36 0.947 . S
H50 C38 0.952 . S
H51 C39 0.950 . S
N52 C55 1.382 . S
N52 C57 1.363 . S
N53 C55 1.371 . S
N53 C56 1.372 . S
N54 C56 1.361 . S
N54 C57 1.377 . S
C55 N52 1.382 . S
C55 N53 1.371 . S
C55 C58 1.480 . S
C56 N53 1.372 . S
C56 N54 1.361 . S
C56 C64 1.457 . S
C57 N52 1.363 . S
C57 N54 1.377 . S
C57 C70 1.479 . S
C58 C55 1.480 . S
C58 C59 1.383 . S
C58 C63 1.385 . S
C59 H40 0.947 . S
C59 C58 1.383 . S
C59 C60 1.388 1_545 S
C60 H41 0.946 . S
C60 C59 1.388 1_565 S
C60 C61 1.384 . S
C61 C60 1.384 . S
C61 C62 1.377 . S
C62 H42 0.953 . S
C62 C61 1.377 . S
C62 C63 1.369 1_565 S
C63 H43 0.945 . S
C63 C58 1.385 . S
C63 C62 1.369 1_545 S
C64 C56 1.457 . S
C64 C65 1.372 . S
C64 C69 1.364 . S
C65 H44 0.952 . S
C65 C64 1.372 . S
C65 C66 1.389 . S
C66 H45 0.949 . S
C66 C65 1.389 . S
C66 C67 1.387 . S
C67 C66 1.387 . S
C67 C68 1.372 . S
C68 H46 0.950 . S
C68 C67 1.372 . S
C68 C69 1.379 . S
C69 H47 0.948 . S
C69 C64 1.364 . S
C69 C68 1.379 . S
C70 C39 1.383 . S
C70 C57 1.479 . S
C70 C71 1.398 . S
C71 C36 1.382 1_655 S
C71 H48 0.951 . S
C71 C70 1.398 . S
C72 C73 1.384 . S
C72 H85 0.947 . S
C72 C107 1.382 . S
C73 C72 1.384 . S
C73 C74 1.378 . S
C74 C73 1.378 . S
C74 C75 1.378 . S
C74 H86 0.952 . S
C75 C74 1.378 . S
C75 H87 0.950 . S
C75 C106 1.383 . S
H76 C95 0.947 . S
H77 C96 0.946 . S
H78 C98 0.953 . S
H79 C99 0.945 . S
H80 C101 0.952 . S
H81 C102 0.949 . S
H82 C104 0.950 . S
H83 C105 0.948 . S
H84 C107 0.951 . S
H85 C72 0.947 . S
H86 C74 0.952 . S
H87 C75 0.950 . S
N88 C91 1.382 . S
N88 C93 1.363 . S
N89 C91 1.371 . S
N89 C92 1.372 . S
N90 C92 1.361 . S
N90 C93 1.377 . S
C91 N88 1.382 . S
C91 N89 1.371 . S
C91 C94 1.480 . S
C92 N89 1.372 . S
C92 N90 1.361 . S
C92 C100 1.457 . S
C93 N88 1.363 . S
C93 N90 1.377 . S
C93 C106 1.479 . S
C94 C91 1.480 . S
C94 C95 1.383 . S
C94 C99 1.385 . S
C95 H76 0.947 . S
C95 C94 1.383 . S
C95 C96 1.388 1_655 S
C96 H77 0.946 . S
C96 C95 1.388 1_455 S
C96 C97 1.384 . S
C97 C96 1.384 . S
C97 C98 1.377 . S
C98 H78 0.953 . S
C98 C97 1.377 . S
C98 C99 1.369 1_455 S
C99 H79 0.945 . S
C99 C94 1.385 . S
C99 C98 1.369 1_655 S
C100 C92 1.457 . S
C100 C101 1.372 . S
C100 C105 1.364 . S
C101 H80 0.952 . S
C101 C100 1.372 . S
C101 C102 1.389 . S
C102 H81 0.949 . S
C102 C101 1.389 . S
C102 C103 1.387 . S
C103 C102 1.387 . S
C103 C104 1.372 . S
C104 H82 0.950 . S
C104 C103 1.372 . S
C104 C105 1.379 . S
C105 H83 0.948 . S
C105 C100 1.364 . S
C105 C104 1.379 . S
C106 C75 1.383 . S
C106 C93 1.479 . S
C106 C107 1.398 . S
C107 C72 1.382 . S
C107 H84 0.951 . S
C107 C106 1.398 . S
C108 C109 1.384 . S
C108 H121 0.947 . S
C108 C143 1.382 1_655 S
C109 C108 1.384 . S
C109 C110 1.378 . S
C110 C109 1.378 . S
C110 C111 1.378 1_655 S
C110 H122 0.952 . S
C111 C110 1.378 1_455 S
C111 H123 0.950 . S
C111 C142 1.383 . S
H112 C131 0.947 . S
H113 C132 0.946 . S
H114 C134 0.953 . S
H115 C135 0.945 . S
H116 C137 0.952 . S
H117 C138 0.949 . S
H118 C140 0.950 . S
H119 C141 0.948 . S
H120 C143 0.951 . S
H121 C108 0.947 . S
H122 C110 0.952 . S
H123 C111 0.950 . S
N124 C127 1.382 . S
N124 C129 1.363 . S
N125 C127 1.371 . S
N125 C128 1.372 . S
N126 C128 1.361 . S
N126 C129 1.377 . S
C127 N124 1.382 . S
C127 N125 1.371 . S
C127 C130 1.480 . S
C128 N125 1.372 . S
C128 N126 1.361 . S
C128 C136 1.457 . S
C129 N124 1.363 . S
C129 N126 1.377 . S
C129 C142 1.479 . S
C130 C127 1.480 . S
C130 C131 1.383 . S
C130 C135 1.385 . S
C131 H112 0.947 . S
C131 C130 1.383 . S
C131 C132 1.388 . S
C132 H113 0.946 . S
C132 C131 1.388 . S
C132 C133 1.384 . S
C133 C132 1.384 . S
C133 C134 1.377 . S
C134 H114 0.953 . S
C134 C133 1.377 . S
C134 C135 1.369 . S
C135 H115 0.945 . S
C135 C130 1.385 . S
C135 C134 1.369 . S
C136 C128 1.457 . S
C136 C137 1.372 . S
C136 C141 1.364 . S
C137 H116 0.952 . S
C137 C136 1.372 . S
C137 C138 1.389 . S
C138 H117 0.949 . S
C138 C137 1.389 . S
C138 C139 1.387 . S
C139 C138 1.387 . S
C139 C140 1.372 . S
C140 H118 0.950 . S
C140 C139 1.372 . S
C140 C141 1.379 . S
C141 H119 0.948 . S
C141 C136 1.364 . S
C141 C140 1.379 . S
C142 C111 1.383 . S
C142 C129 1.479 . S
C142 C143 1.398 . S
C143 C108 1.382 1_455 S
C143 H120 0.951 . S
C143 C142 1.398 . S
C144 C145 1.384 . S
C144 H157 0.947 . S
C144 C179 1.382 . S
C145 C144 1.384 . S
C145 C146 1.378 . S
C146 C145 1.378 . S
C146 C147 1.378 . S
C146 H158 0.952 . S
C147 C146 1.378 . S
C147 H159 0.950 . S
C147 C178 1.383 . S
H148 C167 0.947 . S
H149 C168 0.946 1_545 S
H150 C170 0.953 . S
H151 C171 0.945 . S
H152 C173 0.952 . S
H153 C174 0.949 . S
H154 C176 0.950 . S
H155 C177 0.948 . S
H156 C179 0.951 . S
H157 C144 0.947 . S
H158 C146 0.952 . S
H159 C147 0.950 . S
N160 C163 1.382 . S
N160 C165 1.363 . S
N161 C163 1.371 . S
N161 C164 1.372 . S
N162 C164 1.361 . S
N162 C165 1.377 . S
C163 N160 1.382 . S
C163 N161 1.371 . S
C163 C166 1.480 . S
C164 N161 1.372 . S
C164 N162 1.361 . S
C164 C172 1.457 . S
C165 N160 1.363 . S
C165 N162 1.377 . S
C165 C178 1.479 . S
C166 C163 1.480 . S
C166 C167 1.383 . S
C166 C171 1.385 . S
C167 H148 0.947 . S
C167 C166 1.383 . S
C167 C168 1.388 . S
C168 H149 0.946 1_565 S
C168 C167 1.388 . S
C168 C169 1.384 1_565 S
C169 C168 1.384 1_545 S
C169 C170 1.377 . S
C170 H150 0.953 . S
C170 C169 1.377 . S
C170 C171 1.369 1_545 S
C171 H151 0.945 . S
C171 C166 1.385 . S
C171 C170 1.369 1_565 S
C172 C164 1.457 . S
C172 C173 1.372 . S
C172 C177 1.364 . S
C173 H152 0.952 . S
C173 C172 1.372 . S
C173 C174 1.389 . S
C174 H153 0.949 . S
C174 C173 1.389 . S
C174 C175 1.387 . S
C175 C174 1.387 . S
C175 C176 1.372 . S
C176 H154 0.950 . S
C176 C175 1.372 . S
C176 C177 1.379 . S
C177 H155 0.948 . S
C177 C172 1.364 . S
C177 C176 1.379 . S
C178 C147 1.383 . S
C178 C165 1.479 . S
C178 C179 1.398 . S
C179 C144 1.382 . S
C179 H156 0.951 . S
C179 C178 1.398 . S
C180 C181 1.384 . S
C180 H193 0.947 . S
C180 C215 1.382 1_545 S
C181 C180 1.384 . S
C181 C182 1.378 1_545 S
C182 C181 1.378 1_565 S
C182 C183 1.378 . S
C182 H194 0.948 1_565 S
C183 C182 1.378 . S
C183 H195 0.950 . S
C183 C214 1.383 . S
H184 C203 0.947 . S
H185 C204 0.946 . S
H186 C206 0.953 . S
H187 C207 0.945 . S
H188 C209 0.952 . S
H189 C210 0.949 . S
H190 C212 0.950 . S
H191 C213 0.948 . S
H192 C215 0.951 . S
H193 C180 0.947 . S
H194 C182 0.948 1_545 S
H195 C183 0.950 . S
N196 C199 1.382 . S
N196 C201 1.363 . S
N197 C199 1.371 . S
N197 C200 1.372 . S
N198 C200 1.361 . S
N198 C201 1.377 . S
C199 N196 1.382 . S
C199 N197 1.371 . S
C199 C202 1.480 . S
C200 N197 1.372 . S
C200 N198 1.361 . S
C200 C208 1.457 . S
C201 N196 1.363 . S
C201 N198 1.377 . S
C201 C214 1.479 . S
C202 C199 1.480 . S
C202 C203 1.383 . S
C202 C207 1.385 . S
C203 H184 0.947 . S
C203 C202 1.383 . S
C203 C204 1.388 1_455 S
C204 H185 0.946 . S
C204 C203 1.388 1_655 S
C204 C205 1.384 . S
C205 C204 1.384 . S
C205 C206 1.377 . S
C206 H186 0.953 . S
C206 C205 1.377 . S
C206 C207 1.369 1_655 S
C207 H187 0.945 . S
C207 C202 1.385 . S
C207 C206 1.369 1_455 S
C208 C200 1.457 . S
C208 C209 1.372 . S
C208 C213 1.364 . S
C209 H188 0.952 . S
C209 C208 1.372 . S
C209 C210 1.389 . S
C210 H189 0.949 . S
C210 C209 1.389 . S
C210 C211 1.387 . S
C211 C210 1.387 . S
C211 C212 1.372 . S
C212 H190 0.950 . S
C212 C211 1.372 . S
C212 C213 1.379 . S
C213 H191 0.948 . S
C213 C208 1.364 . S
C213 C212 1.379 . S
C214 C183 1.383 . S
C214 C201 1.479 . S
C214 C215 1.398 . S
C215 C180 1.382 1_565 S
C215 H192 0.951 . S
C215 C214 1.398 . S
C216 C217 1.384 . S
C216 H229 0.947 . S
C216 C251 1.382 . S
C217 C216 1.384 . S
C217 C218 1.378 . S
C218 C217 1.378 . S
C218 C219 1.378 . S
C218 H230 0.952 . S
C219 C218 1.378 . S
C219 H231 0.950 . S
C219 C250 1.383 . S
H220 C239 0.947 . S
H221 C240 0.946 . S
H222 C242 0.953 . S
H223 C243 0.945 . S
H224 C245 0.952 . S
H225 C246 0.949 . S
H226 C248 0.950 . S
H227 C249 0.948 . S
H228 C251 0.951 . S
H229 C216 0.947 . S
H230 C218 0.952 . S
H231 C219 0.950 . S
N232 C235 1.382 . S
N232 C237 1.363 . S
N233 C235 1.371 . S
N233 C236 1.372 . S
N234 C236 1.361 . S
N234 C237 1.377 . S
C235 N232 1.382 . S
C235 N233 1.371 . S
C235 C238 1.480 . S
C236 N233 1.372 . S
C236 N234 1.361 . S
C236 C244 1.457 . S
C237 N232 1.363 . S
C237 N234 1.377 . S
C237 C250 1.479 . S
C238 C235 1.480 . S
C238 C239 1.383 . S
C238 C243 1.385 . S
C239 H220 0.947 . S
C239 C238 1.383 . S
C239 C240 1.388 . S
C240 H221 0.946 . S
C240 C239 1.388 . S
C240 C241 1.384 . S
C241 C240 1.384 . S
C241 C242 1.377 . S
C242 H222 0.953 . S
C242 C241 1.377 . S
C242 C243 1.369 . S
C243 H223 0.945 . S
C243 C238 1.385 . S
C243 C242 1.369 . S
C244 C236 1.457 . S
C244 C245 1.372 . S
C244 C249 1.364 . S
C245 H224 0.952 . S
C245 C244 1.372 . S
C245 C246 1.389 . S
C246 H225 0.949 . S
C246 C245 1.389 . S
C246 C247 1.387 . S
C247 C246 1.387 . S
C247 C248 1.372 . S
C248 H226 0.950 . S
C248 C247 1.372 . S
C248 C249 1.379 . S
C249 H227 0.948 . S
C249 C244 1.364 . S
C249 C248 1.379 . S
C250 C219 1.383 . S
C250 C237 1.479 . S
C250 C251 1.398 . S
C251 C216 1.382 . S
C251 H228 0.951 . S
C251 C250 1.398 . S
C252 C253 1.384 . S
C252 H265 0.947 . S
C252 C287 1.382 . S
C253 C252 1.384 . S
C253 C254 1.378 . S
C254 C253 1.378 . S
C254 C255 1.378 . S
C254 H266 0.952 . S
C255 C254 1.378 . S
C255 H267 0.950 . S
C255 C286 1.383 . S
H256 C275 0.947 . S
H257 C276 0.946 . S
H258 C278 0.953 . S
H259 C279 0.945 . S
H260 C281 0.952 . S
H261 C282 0.949 . S
H262 C284 0.950 . S
H263 C285 0.948 . S
H264 C287 0.951 . S
H265 C252 0.947 . S
H266 C254 0.952 . S
H267 C255 0.950 . S
N268 C271 1.382 . S
N268 C273 1.363 . S
N269 C271 1.371 . S
N269 C272 1.372 . S
N270 C272 1.361 . S
N270 C273 1.377 . S
C271 N268 1.382 . S
C271 N269 1.371 . S
C271 C274 1.480 . S
C272 N269 1.372 . S
C272 N270 1.361 . S
C272 C280 1.457 . S
C273 N268 1.363 . S
C273 N270 1.377 . S
C273 C286 1.479 . S
C274 C271 1.480 . S
C274 C275 1.383 . S
C274 C279 1.385 . S
C275 H256 0.947 . S
C275 C274 1.383 . S
C275 C276 1.388 . S
C276 H257 0.946 . S
C276 C275 1.388 . S
C276 C277 1.384 . S
C277 C276 1.384 . S
C277 C278 1.377 . S
C278 H258 0.953 . S
C278 C277 1.377 . S
C278 C279 1.369 . S
C279 H259 0.945 . S
C279 C274 1.385 . S
C279 C278 1.369 . S
C280 C272 1.457 . S
C280 C281 1.372 . S
C280 C285 1.364 . S
C281 H260 0.952 . S
C281 C280 1.372 . S
C281 C282 1.389 . S
C282 H261 0.949 . S
C282 C281 1.389 . S
C282 C283 1.387 . S
C283 C282 1.387 . S
C283 C284 1.372 . S
C284 H262 0.950 . S
C284 C283 1.372 . S
C284 C285 1.379 . S
C285 H263 0.948 . S
C285 C280 1.364 . S
C285 C284 1.379 . S
C286 C255 1.383 . S
C286 C273 1.479 . S
C286 C287 1.398 . S
C287 C252 1.382 . S
C287 H264 0.951 . S
C287 C286 1.398 . S
C288 C289 1.384 . S
C288 H301 0.947 . S
C288 C323 1.382 . S
C289 C288 1.384 . S
C289 C290 1.378 . S
C290 C289 1.378 . S
C290 C291 1.378 . S
C290 H302 0.952 . S
C291 C290 1.378 . S
C291 H303 0.950 . S
C291 C322 1.383 . S
H292 C311 0.947 . S
H293 C312 0.946 . S
H294 C314 0.953 . S
H295 C315 0.945 . S
H296 C317 0.952 . S
H297 C318 0.949 . S
H298 C320 0.950 . S
H299 C321 0.948 . S
H300 C323 0.951 . S
H301 C288 0.947 . S
H302 C290 0.952 . S
H303 C291 0.950 . S
N304 C307 1.382 . S
N304 C309 1.363 . S
N305 C307 1.371 . S
N305 C308 1.372 . S
N306 C308 1.361 . S
N306 C309 1.377 . S
C307 N304 1.382 . S
C307 N305 1.371 . S
C307 C310 1.480 . S
C308 N305 1.372 . S
C308 N306 1.361 . S
C308 C316 1.457 . S
C309 N304 1.363 . S
C309 N306 1.377 . S
C309 C322 1.479 . S
C310 C307 1.480 . S
C310 C311 1.383 . S
C310 C315 1.385 . S
C311 H292 0.947 . S
C311 C310 1.383 . S
C311 C312 1.388 . S
C312 H293 0.946 . S
C312 C311 1.388 . S
C312 C313 1.384 . S
C313 C312 1.384 . S
C313 C314 1.377 . S
C314 H294 0.953 . S
C314 C313 1.377 . S
C314 C315 1.369 . S
C315 H295 0.945 . S
C315 C310 1.385 . S
C315 C314 1.369 . S
C316 C308 1.457 . S
C316 C317 1.372 . S
C316 C321 1.364 . S
C317 H296 0.952 . S
C317 C316 1.372 . S
C317 C318 1.389 . S
C318 H297 0.949 . S
C318 C317 1.389 . S
C318 C319 1.387 . S
C319 C318 1.387 . S
C319 C320 1.372 . S
C320 H298 0.950 . S
C320 C319 1.372 . S
C320 C321 1.379 . S
C321 H299 0.948 . S
C321 C316 1.364 . S
C321 C320 1.379 . S
C322 C291 1.383 . S
C322 C309 1.479 . S
C322 C323 1.398 . S
C323 C288 1.382 . S
C323 H300 0.951 . S
C323 C322 1.398 . S
C324 C325 1.384 . S
C324 H337 0.947 . S
C324 C359 1.382 . S
C325 C324 1.384 . S
C325 C326 1.378 . S
C326 C325 1.378 . S
C326 C327 1.378 . S
C326 H338 0.952 1_556 S
C327 C326 1.378 . S
C327 H339 0.950 . S
C327 C358 1.383 . S
H328 C347 0.947 . S
H329 C348 0.946 1_554 S
H330 C350 0.953 . S
H331 C351 0.945 . S
H332 C353 0.952 . S
H333 C354 0.949 . S
H334 C356 0.950 . S
H335 C357 0.948 . S
H336 C359 0.951 . S
H337 C324 0.947 . S
H338 C326 0.952 1_554 S
H339 C327 0.950 . S
N340 C343 1.382 . S
N340 C345 1.363 . S
N341 C343 1.371 . S
N341 C344 1.372 . S
N342 C344 1.361 . S
N342 C345 1.377 . S
C343 N340 1.382 . S
C343 N341 1.371 . S
C343 C346 1.480 . S
C344 N341 1.372 . S
C344 N342 1.361 . S
C344 C352 1.457 . S
C345 N340 1.363 . S
C345 N342 1.377 . S
C345 C358 1.479 . S
C346 C343 1.480 . S
C346 C347 1.383 . S
C346 C351 1.385 . S
C347 H328 0.947 . S
C347 C346 1.383 . S
C347 C348 1.388 . S
C348 H329 0.946 1_556 S
C348 C347 1.388 . S
C348 C349 1.384 . S
C349 C348 1.384 . S
C349 C350 1.377 . S
C350 H330 0.953 . S
C350 C349 1.377 . S
C350 C351 1.369 . S
C351 H331 0.945 . S
C351 C346 1.385 . S
C351 C350 1.369 . S
C352 C344 1.457 . S
C352 C353 1.372 . S
C352 C357 1.364 . S
C353 H332 0.952 . S
C353 C352 1.372 . S
C353 C354 1.389 . S
C354 H333 0.949 . S
C354 C353 1.389 . S
C354 C355 1.387 . S
C355 C354 1.387 . S
C355 C356 1.372 . S
C356 H334 0.950 . S
C356 C355 1.372 . S
C356 C357 1.379 . S
C357 H335 0.948 . S
C357 C352 1.364 . S
C357 C356 1.379 . S
C358 C327 1.383 . S
C358 C345 1.479 . S
C358 C359 1.398 . S
C359 C324 1.382 . S
C359 H336 0.951 . S
C359 C358 1.398 . S
C360 C361 1.384 . S
C360 H373 0.947 . S
C360 C395 1.382 . S
C361 C360 1.384 . S
C361 C362 1.378 . S
C362 C361 1.378 . S
C362 C363 1.378 . S
C362 H374 0.952 1_556 S
C363 C362 1.378 . S
C363 H375 0.950 . S
C363 C394 1.383 . S
H364 C383 0.947 . S
H365 C384 0.946 1_554 S
H366 C386 0.953 . S
H367 C387 0.945 . S
H368 C389 0.952 . S
H369 C390 0.949 . S
H370 C392 0.950 . S
H371 C393 0.948 . S
H372 C395 0.951 . S
H373 C360 0.947 . S
H374 C362 0.952 1_554 S
H375 C363 0.950 . S
N376 C379 1.382 . S
N376 C381 1.363 . S
N377 C379 1.371 . S
N377 C380 1.372 . S
N378 C380 1.361 . S
N378 C381 1.377 . S
C379 N376 1.382 . S
C379 N377 1.371 . S
C379 C382 1.480 . S
C380 N377 1.372 . S
C380 N378 1.361 . S
C380 C388 1.457 . S
C381 N376 1.363 . S
C381 N378 1.377 . S
C381 C394 1.479 . S
C382 C379 1.480 . S
C382 C383 1.383 . S
C382 C387 1.385 . S
C383 H364 0.947 . S
C383 C382 1.383 . S
C383 C384 1.388 . S
C384 H365 0.946 1_556 S
C384 C383 1.388 . S
C384 C385 1.384 . S
C385 C384 1.384 . S
C385 C386 1.377 . S
C386 H366 0.953 . S
C386 C385 1.377 . S
C386 C387 1.369 . S
C387 H367 0.945 . S
C387 C382 1.385 . S
C387 C386 1.369 . S
C388 C380 1.457 . S
C388 C389 1.372 . S
C388 C393 1.364 . S
C389 H368 0.952 . S
C389 C388 1.372 . S
C389 C390 1.389 . S
C390 H369 0.949 . S
C390 C389 1.389 . S
C390 C391 1.387 . S
C391 C390 1.387 . S
C391 C392 1.372 . S
C392 H370 0.950 . S
C392 C391 1.372 . S
C392 C393 1.379 . S
C393 H371 0.948 . S
C393 C388 1.364 . S
C393 C392 1.379 . S
C394 C363 1.383 . S
C394 C381 1.479 . S
C394 C395 1.398 . S
C395 C360 1.382 . S
C395 H372 0.951 . S
C395 C394 1.398 . S
C396 C397 1.384 . S
C396 H409 0.947 . S
C396 C431 1.382 . S
C397 C396 1.384 . S
C397 C398 1.378 . S
C398 C397 1.378 . S
C398 C399 1.378 . S
C398 H410 0.952 1_556 S
C399 C398 1.378 . S
C399 H411 0.950 . S
C399 C430 1.383 . S
H400 C419 0.947 . S
H401 C420 0.946 1_554 S
H402 C422 0.953 . S
H403 C423 0.945 . S
H404 C425 0.952 . S
H405 C426 0.949 . S
H406 C428 0.950 . S
H407 C429 0.948 . S
H408 C431 0.951 . S
H409 C396 0.947 . S
H410 C398 0.952 1_554 S
H411 C399 0.950 . S
N412 C415 1.382 . S
N412 C417 1.363 . S
N413 C415 1.371 . S
N413 C416 1.372 . S
N414 C416 1.361 . S
N414 C417 1.377 . S
C415 N412 1.382 . S
C415 N413 1.371 . S
C415 C418 1.480 . S
C416 N413 1.372 . S
C416 N414 1.361 . S
C416 C424 1.457 . S
C417 N412 1.363 . S
C417 N414 1.377 . S
C417 C430 1.479 . S
C418 C415 1.480 . S
C418 C419 1.383 . S
C418 C423 1.385 . S
C419 H400 0.947 . S
C419 C418 1.383 . S
C419 C420 1.388 . S
C420 H401 0.946 1_556 S
C420 C419 1.388 . S
C420 C421 1.384 . S
C421 C420 1.384 . S
C421 C422 1.377 . S
C422 H402 0.953 . S
C422 C421 1.377 . S
C422 C423 1.369 . S
C423 H403 0.945 . S
C423 C418 1.385 . S
C423 C422 1.369 . S
C424 C416 1.457 . S
C424 C425 1.372 . S
C424 C429 1.364 . S
C425 H404 0.952 . S
C425 C424 1.372 . S
C425 C426 1.389 . S
C426 H405 0.949 . S
C426 C425 1.389 . S
C426 C427 1.387 . S
C427 C426 1.387 . S
C427 C428 1.372 . S
C428 H406 0.950 . S
C428 C427 1.372 . S
C428 C429 1.379 . S
C429 H407 0.948 . S
C429 C424 1.364 . S
C429 C428 1.379 . S
C430 C399 1.383 . S
C430 C417 1.479 . S
C430 C431 1.398 . S
C431 C396 1.382 . S
C431 H408 0.951 . S
C431 C430 1.398 . S
C432 C433 1.384 . S
C432 H445 0.947 . S
C432 C467 1.382 . S
C433 C432 1.384 . S
C433 C434 1.378 . S
C434 C433 1.378 . S
C434 C435 1.378 . S
C434 H446 0.952 1_554 S
C435 C434 1.378 . S
C435 H447 0.950 . S
C435 C466 1.383 . S
H436 C455 0.947 . S
H437 C456 0.946 1_556 S
H438 C458 0.953 . S
H439 C459 0.945 . S
H440 C461 0.952 . S
H441 C462 0.949 . S
H442 C464 0.950 . S
H443 C465 0.948 . S
H444 C467 0.951 . S
H445 C432 0.947 . S
H446 C434 0.952 1_556 S
H447 C435 0.950 . S
N448 C451 1.382 . S
N448 C453 1.363 . S
N449 C451 1.371 . S
N449 C452 1.372 . S
N450 C452 1.361 . S
N450 C453 1.377 . S
C451 N448 1.382 . S
C451 N449 1.371 . S
C451 C454 1.480 . S
C452 N449 1.372 . S
C452 N450 1.361 . S
C452 C460 1.457 . S
C453 N448 1.363 . S
C453 N450 1.377 . S
C453 C466 1.479 . S
C454 C451 1.480 . S
C454 C455 1.383 . S
C454 C459 1.385 . S
C455 H436 0.947 . S
C455 C454 1.383 . S
C455 C456 1.388 . S
C456 H437 0.946 1_554 S
C456 C455 1.388 . S
C456 C457 1.384 . S
C457 C456 1.384 . S
C457 C458 1.377 . S
C458 H438 0.953 . S
C458 C457 1.377 . S
C458 C459 1.369 . S
C459 H439 0.945 . S
C459 C454 1.385 . S
C459 C458 1.369 . S
C460 C452 1.457 . S
C460 C461 1.372 . S
C460 C465 1.364 . S
C461 H440 0.952 . S
C461 C460 1.372 . S
C461 C462 1.389 . S
C462 H441 0.949 . S
C462 C461 1.389 . S
C462 C463 1.387 . S
C463 C462 1.387 . S
C463 C464 1.372 . S
C464 H442 0.950 . S
C464 C463 1.372 . S
C464 C465 1.379 . S
C465 H443 0.948 . S
C465 C460 1.364 . S
C465 C464 1.379 . S
C466 C435 1.383 . S
C466 C453 1.479 . S
C466 C467 1.398 . S
C467 C432 1.382 . S
C467 H444 0.951 . S
C467 C466 1.398 . S
C468 C469 1.384 . S
C468 H481 0.947 . S
C468 C503 1.382 . S
C469 C468 1.384 . S
C469 C470 1.378 . S
C470 C469 1.378 . S
C470 C471 1.378 . S
C470 H482 0.952 1_554 S
C471 C470 1.378 . S
C471 H483 0.950 . S
C471 C502 1.383 . S
H472 C491 0.947 . S
H473 C492 0.946 1_556 S
H474 C494 0.953 . S
H475 C495 0.945 . S
H476 C497 0.952 . S
H477 C498 0.949 . S
H478 C500 0.950 . S
H479 C501 0.948 . S
H480 C503 0.951 . S
H481 C468 0.947 . S
H482 C470 0.952 1_556 S
H483 C471 0.950 . S
N484 C487 1.382 . S
N484 C489 1.363 . S
N485 C487 1.371 . S
N485 C488 1.372 . S
N486 C488 1.361 . S
N486 C489 1.377 . S
C487 N484 1.382 . S
C487 N485 1.371 . S
C487 C490 1.480 . S
C488 N485 1.372 . S
C488 N486 1.361 . S
C488 C496 1.457 . S
C489 N484 1.363 . S
C489 N486 1.377 . S
C489 C502 1.479 . S
C490 C487 1.480 . S
C490 C491 1.383 . S
C490 C495 1.385 . S
C491 H472 0.947 . S
C491 C490 1.383 . S
C491 C492 1.388 . S
C492 H473 0.946 1_554 S
C492 C491 1.388 . S
C492 C493 1.384 . S
C493 C492 1.384 . S
C493 C494 1.377 . S
C494 H474 0.953 . S
C494 C493 1.377 . S
C494 C495 1.369 . S
C495 H475 0.945 . S
C495 C490 1.385 . S
C495 C494 1.369 . S
C496 C488 1.457 . S
C496 C497 1.372 . S
C496 C501 1.364 . S
C497 H476 0.952 . S
C497 C496 1.372 . S
C497 C498 1.389 . S
C498 H477 0.949 . S
C498 C497 1.389 . S
C498 C499 1.387 . S
C499 C498 1.387 . S
C499 C500 1.372 . S
C500 H478 0.950 . S
C500 C499 1.372 . S
C500 C501 1.379 . S
C501 H479 0.948 . S
C501 C496 1.364 . S
C501 C500 1.379 . S
C502 C471 1.383 . S
C502 C489 1.479 . S
C502 C503 1.398 . S
C503 C468 1.382 . S
C503 H480 0.951 . S
C503 C502 1.398 . S
C504 C505 1.384 . S
C504 H517 0.947 . S
C504 C539 1.382 . S
C505 C504 1.384 . S
C505 C506 1.378 . S
C506 C505 1.378 . S
C506 C507 1.378 . S
C506 H518 0.952 1_554 S
C507 C506 1.378 . S
C507 H519 0.950 . S
C507 C538 1.383 . S
H508 C527 0.947 . S
H509 C528 0.946 . S
H510 C530 0.953 . S
H511 C531 0.945 . S
H512 C533 0.952 . S
H513 C534 0.949 . S
H514 C536 0.950 . S
H515 C537 0.948 . S
H516 C539 0.951 . S
H517 C504 0.947 . S
H518 C506 0.952 1_556 S
H519 C507 0.950 . S
N520 C523 1.382 . S
N520 C525 1.363 . S
N521 C523 1.371 . S
N521 C524 1.372 . S
N522 C524 1.361 . S
N522 C525 1.377 . S
C523 N520 1.382 . S
C523 N521 1.371 . S
C523 C526 1.480 . S
C524 N521 1.372 . S
C524 N522 1.361 . S
C524 C532 1.457 . S
C525 N520 1.363 . S
C525 N522 1.377 . S
C525 C538 1.479 . S
C526 C523 1.480 . S
C526 C527 1.383 . S
C526 C531 1.385 . S
C527 H508 0.947 . S
C527 C526 1.383 . S
C527 C528 1.388 . S
C528 H509 0.946 . S
C528 C527 1.388 . S
C528 C529 1.384 . S
C529 C528 1.384 . S
C529 C530 1.377 . S
C530 H510 0.953 . S
C530 C529 1.377 . S
C530 C531 1.369 . S
C531 H511 0.945 . S
C531 C526 1.385 . S
C531 C530 1.369 . S
C532 C524 1.457 . S
C532 C533 1.372 . S
C532 C537 1.364 . S
C533 H512 0.952 . S
C533 C532 1.372 . S
C533 C534 1.389 . S
C534 H513 0.949 . S
C534 C533 1.389 . S
C534 C535 1.387 . S
C535 C534 1.387 . S
C535 C536 1.372 . S
C536 H514 0.950 . S
C536 C535 1.372 . S
C536 C537 1.379 . S
C537 H515 0.948 . S
C537 C532 1.364 . S
C537 C536 1.379 . S
C538 C507 1.383 . S
C538 C525 1.479 . S
C538 C539 1.398 . S
C539 C504 1.382 . S
C539 H516 0.951 . S
C539 C538 1.398 . S
C540 C541 1.384 . S
C540 H553 0.947 . S
C540 C575 1.382 . S
C541 C540 1.384 . S
C541 C542 1.378 . S
C542 C541 1.378 . S
C542 C543 1.378 . S
C542 H554 0.952 . S
C543 C542 1.378 . S
C543 H555 0.950 . S
C543 C574 1.383 . S
H544 C563 0.947 . S
H545 C564 0.946 . S
H546 C566 0.953 . S
H547 C567 0.945 . S
H548 C569 0.952 . S
H549 C570 0.949 . S
H550 C572 0.950 . S
H551 C573 0.948 . S
H552 C575 0.951 . S
H553 C540 0.947 . S
H554 C542 0.952 . S
H555 C543 0.950 . S
N556 C559 1.382 . S
N556 C561 1.363 . S
N557 C559 1.371 . S
N557 C560 1.372 . S
N558 C560 1.361 . S
N558 C561 1.377 . S
C559 N556 1.382 . S
C559 N557 1.371 . S
C559 C562 1.480 . S
C560 N557 1.372 . S
C560 N558 1.361 . S
C560 C568 1.457 . S
C561 N556 1.363 . S
C561 N558 1.377 . S
C561 C574 1.479 . S
C562 C559 1.480 . S
C562 C563 1.383 . S
C562 C567 1.385 . S
C563 H544 0.947 . S
C563 C562 1.383 . S
C563 C564 1.388 . S
C564 H545 0.946 . S
C564 C563 1.388 . S
C564 C565 1.384 . S
C565 C564 1.384 . S
C565 C566 1.377 . S
C566 H546 0.953 . S
C566 C565 1.377 . S
C566 C567 1.369 . S
C567 H547 0.945 . S
C567 C562 1.385 . S
C567 C566 1.369 . S
C568 C560 1.457 . S
C568 C569 1.372 . S
C568 C573 1.364 . S
C569 H548 0.952 . S
C569 C568 1.372 . S
C569 C570 1.389 . S
C570 H549 0.949 . S
C570 C569 1.389 . S
C570 C571 1.387 . S
C571 C570 1.387 . S
C571 C572 1.372 . S
C572 H550 0.950 . S
C572 C571 1.372 . S
C572 C573 1.379 . S
C573 H551 0.948 . S
C573 C568 1.364 . S
C573 C572 1.379 . S
C574 C543 1.383 . S
C574 C561 1.479 . S
C574 C575 1.398 . S
C575 C540 1.382 . S
C575 H552 0.951 . S
C575 C574 1.398 . S
C576 C577 1.384 . S
C576 H589 0.947 . S
C576 C611 1.382 . S
C577 C576 1.384 . S
C577 C578 1.378 . S
C578 C577 1.378 . S
C578 C579 1.378 . S
C578 H590 0.952 . S
C579 C578 1.378 . S
C579 H591 0.950 . S
C579 C610 1.383 . S
H580 C599 0.947 . S
H581 C600 0.946 . S
H582 C602 0.953 . S
H583 C603 0.945 . S
H584 C605 0.952 . S
H585 C606 0.949 . S
H586 C608 0.950 . S
H587 C609 0.948 . S
H588 C611 0.951 . S
H589 C576 0.947 . S
H590 C578 0.952 . S
H591 C579 0.950 . S
N592 C595 1.382 . S
N592 C597 1.363 . S
N593 C595 1.371 . S
N593 C596 1.372 . S
N594 C596 1.361 . S
N594 C597 1.377 . S
C595 N592 1.382 . S
C595 N593 1.371 . S
C595 C598 1.480 . S
C596 N593 1.372 . S
C596 N594 1.361 . S
C596 C604 1.457 . S
C597 N592 1.363 . S
C597 N594 1.377 . S
C597 C610 1.479 . S
C598 C595 1.480 . S
C598 C599 1.383 . S
C598 C603 1.385 . S
C599 H580 0.947 . S
C599 C598 1.383 . S
C599 C600 1.388 . S
C600 H581 0.946 . S
C600 C599 1.388 . S
C600 C601 1.384 . S
C601 C600 1.384 . S
C601 C602 1.377 . S
C602 H582 0.953 . S
C602 C601 1.377 . S
C602 C603 1.369 . S
C603 H583 0.945 . S
C603 C598 1.385 . S
C603 C602 1.369 . S
C604 C596 1.457 . S
C604 C605 1.372 . S
C604 C609 1.364 . S
C605 H584 0.952 . S
C605 C604 1.372 . S
C605 C606 1.389 . S
C606 H585 0.949 . S
C606 C605 1.389 . S
C606 C607 1.387 . S
C607 C606 1.387 . S
C607 C608 1.372 . S
C608 H586 0.950 . S
C608 C607 1.372 . S
C608 C609 1.379 . S
C609 H587 0.948 . S
C609 C604 1.364 . S
C609 C608 1.379 . S
C610 C579 1.383 . S
C610 C597 1.479 . S
C610 C611 1.398 . S
C611 C576 1.382 . S
C611 H588 0.951 . S
C611 C610 1.398 . S
C612 C613 1.384 . S
C612 H625 0.947 . S
C612 C647 1.382 . S
C613 C612 1.384 . S
C613 C614 1.378 . S
C614 C613 1.378 . S
C614 C615 1.378 . S
C614 H626 0.952 . S
C615 C614 1.378 . S
C615 H627 0.950 . S
C615 C646 1.383 . S
H616 C635 0.947 . S
H617 C636 0.946 . S
H618 C638 0.953 . S
H619 C639 0.945 . S
H620 C641 0.952 . S
H621 C642 0.949 . S
H622 C644 0.950 . S
H623 C645 0.948 . S
H624 C647 0.951 . S
H625 C612 0.947 . S
H626 C614 0.952 . S
H627 C615 0.950 . S
N628 C631 1.382 . S
N628 C633 1.363 . S
N629 C631 1.371 . S
N629 C632 1.372 . S
N630 C632 1.361 . S
N630 C633 1.377 . S
C631 N628 1.382 . S
C631 N629 1.371 . S
C631 C634 1.480 . S
C632 N629 1.372 . S
C632 N630 1.361 . S
C632 C640 1.457 . S
C633 N628 1.363 . S
C633 N630 1.377 . S
C633 C646 1.479 . S
C634 C631 1.480 . S
C634 C635 1.383 . S
C634 C639 1.385 . S
C635 H616 0.947 . S
C635 C634 1.383 . S
C635 C636 1.388 . S
C636 H617 0.946 . S
C636 C635 1.388 . S
C636 C637 1.384 . S
C637 C636 1.384 . S
C637 C638 1.377 . S
C638 H618 0.953 . S
C638 C637 1.377 . S
C638 C639 1.369 . S
C639 H619 0.945 . S
C639 C634 1.385 . S
C639 C638 1.369 . S
C640 C632 1.457 . S
C640 C641 1.372 . S
C640 C645 1.364 . S
C641 H620 0.952 . S
C641 C640 1.372 . S
C641 C642 1.389 . S
C642 H621 0.949 . S
C642 C641 1.389 . S
C642 C643 1.387 . S
C643 C642 1.387 . S
C643 C644 1.372 . S
C644 H622 0.950 . S
C644 C643 1.372 . S
C644 C645 1.379 . S
C645 H623 0.948 . S
C645 C640 1.364 . S
C645 C644 1.379 . S
C646 C615 1.383 . S
C646 C633 1.479 . S
C646 C647 1.398 . S
C647 C612 1.382 . S
C647 H624 0.951 . S
C647 C646 1.398 . S
Eu648 N679 2.657 . S
Eu648 N686 2.609 . S
Eu648 O692 2.558 . S
Eu648 O693 2.612 1_565 S
Eu648 O695 2.339 1_565 S
Eu648 O696 2.563 1_565 S
Eu648 O697 2.419 . S
Eu648 O699 2.380 1_556 S
Eu648 O700 2.432 . S
Eu648 C712 2.848 . S
C649 C652 1.429 . S
C649 C653 1.411 . S
C649 N656 1.377 . S
C650 C652 1.420 . S
C650 C654 1.423 . S
C650 C662 1.392 . S
C651 C653 1.420 . S
C651 C654 1.351 . S
C651 H674 0.931 . S
C652 C649 1.429 . S
C652 C650 1.420 . S
C652 N660 1.362 . S
C653 C649 1.411 . S
C653 C651 1.420 . S
C653 C658 1.395 . S
C654 C650 1.423 . S
C654 C651 1.351 . S
C654 H666 0.930 . S
C655 C657 1.400 . S
C655 C658 1.386 . S
C655 H667 0.930 . S
N656 C649 1.377 . S
N656 C657 1.321 . S
N656 Eu659 2.609 . S
C657 C655 1.400 . S
C657 N656 1.321 . S
C657 H664 0.930 . S
C658 C653 1.395 . S
C658 C655 1.386 . S
C658 H677 0.930 . S
Eu659 N656 2.609 . S
Eu659 N660 2.657 . S
Eu659 O693 2.380 1_554 S
Eu659 O694 2.432 . S
Eu659 O698 2.558 . S
Eu659 O699 2.612 1_545 S
Eu659 O701 2.339 1_545 S
Eu659 O702 2.563 1_545 S
Eu659 O703 2.419 . S
Eu659 C723 2.848 . S
N660 C652 1.362 . S
N660 Eu659 2.657 . S
N660 C661 1.334 . S
C661 N660 1.334 . S
C661 C663 1.413 . S
C661 H668 0.929 . S
C662 C650 1.392 . S
C662 C663 1.367 . S
C662 H670 0.930 . S
C663 C661 1.413 . S
C663 C662 1.367 . S
C663 H665 0.930 . S
H664 C657 0.930 . S
H665 C663 0.930 . S
H666 C654 0.930 . S
H667 C655 0.930 . S
H668 C661 0.929 . S
H669 C683 0.930 . S
H670 C662 0.930 . S
H671 C689 0.930 . S
H672 C680 0.929 . S
H673 C687 0.930 . S
H674 C651 0.931 . S
H675 C681 0.930 . S
H676 C714 0.930 . S
H677 C658 0.930 . S
H678 C713 0.931 . S
N679 Eu648 2.657 . S
N679 C680 1.334 . S
N679 C684 1.362 . S
C680 H672 0.929 . S
C680 N679 1.334 . S
C680 C683 1.413 . S
C681 H675 0.930 . S
C681 C682 1.392 . S
C681 C683 1.367 . S
C682 C681 1.392 . S
C682 C684 1.420 . S
C682 C714 1.423 . S
C683 H669 0.930 . S
C683 C680 1.413 . S
C683 C681 1.367 . S
C684 N679 1.362 . S
C684 C682 1.420 . S
C684 C688 1.429 . S
H685 C690 0.930 . S
N686 Eu648 2.609 . S
N686 C688 1.377 . S
N686 C689 1.321 . S
C687 H673 0.930 . S
C687 C689 1.400 . S
C687 C690 1.386 . S
C688 C684 1.429 . S
C688 N686 1.377 . S
C688 C691 1.411 . S
C689 H671 0.930 . S
C689 N686 1.321 . S
C689 C687 1.400 . S
C690 H685 0.930 . S
C690 C687 1.386 . S
C690 C691 1.395 . S
C691 C688 1.411 . S
C691 C690 1.395 . S
C691 C713 1.420 . S
O692 Eu648 2.558 . S
O692 C712 1.257 . S
O693 Eu648 2.612 1_545 S
O693 Eu659 2.380 1_556 S
O693 C704 1.276 . S
O694 Eu659 2.432 . S
O694 C711 1.264 1_554 S
O695 Eu648 2.339 1_545 S
O695 C711 1.254 . S
O696 Eu648 2.563 1_545 S
O696 C704 1.235 . S
O697 Eu648 2.419 . S
O697 C712 1.249 . S
O698 Eu659 2.558 . S
O698 C723 1.257 . S
O699 Eu648 2.380 1_554 S
O699 Eu659 2.612 1_565 S
O699 C715 1.276 . S
O700 Eu648 2.432 . S
O700 C722 1.264 1_556 S
O701 Eu659 2.339 1_565 S
O701 C722 1.254 . S
O702 Eu659 2.563 1_565 S
O702 C715 1.235 . S
O703 Eu659 2.419 . S
O703 C723 1.249 . S
C704 O693 1.276 . S
C704 O696 1.235 . S
C705 C707 1.393 1_565 S
C705 C709 1.395 . S
C705 C712 1.492 . S
C706 C707 1.392 . S
C706 C708 1.386 1_545 S
C707 C705 1.393 1_545 S
C707 C706 1.392 . S
C707 H724 0.930 . S
C708 C706 1.386 1_565 S
C708 C710 1.395 . S
C708 H725 0.930 . S
C709 C705 1.395 . S
C709 C710 1.379 . S
C709 H726 0.930 . S
C710 C708 1.395 . S
C710 C709 1.379 . S
C710 H727 0.930 . S
C711 O694 1.264 1_556 S
C711 O695 1.254 . S
C712 Eu648 2.848 . S
C712 O692 1.257 . S
C712 O697 1.249 . S
C712 C705 1.492 . S
C713 H678 0.931 . S
C713 C691 1.420 . S
C713 C714 1.351 . S
C714 H676 0.930 . S
C714 C682 1.423 . S
C714 C713 1.351 . S
C715 O699 1.276 . S
C715 O702 1.235 . S
C716 C717 1.393 1_545 S
C716 C720 1.395 . S
C716 C723 1.492 . S
C717 C716 1.393 1_565 S
C717 C718 1.392 . S
C717 H728 0.930 . S
C718 C717 1.392 . S
C718 C719 1.386 1_565 S
C719 C718 1.386 1_545 S
C719 C721 1.395 . S
C719 H729 0.930 . S
C720 C716 1.395 . S
C720 C721 1.379 . S
C720 H730 0.930 . S
C721 C719 1.395 . S
C721 C720 1.379 . S
C721 H731 0.930 . S
C722 O700 1.264 1_554 S
C722 O701 1.254 . S
C723 Eu659 2.848 . S
C723 O698 1.257 . S
C723 O703 1.249 . S
C723 C716 1.492 . S
H724 C707 0.930 . S
H725 C708 0.930 . S
H726 C709 0.930 . S
H727 C710 0.930 . S
H728 C717 0.930 . S
H729 C719 0.930 . S
H730 C720 0.930 . S
H731 C721 0.930 . S
Eu732 N763 2.657 . S
Eu732 N770 2.609 . S
Eu732 O776 2.558 . S
Eu732 O777 2.612 1_455 S
Eu732 O779 2.339 1_455 S
Eu732 O780 2.563 1_455 S
Eu732 O781 2.419 . S
Eu732 O783 2.380 1_556 S
Eu732 O784 2.432 . S
Eu732 C796 2.848 . S
C733 C736 1.429 . S
C733 C737 1.411 . S
C733 N740 1.377 . S
C734 C736 1.420 . S
C734 C738 1.423 . S
C734 C746 1.392 . S
C735 C737 1.420 . S
C735 C738 1.351 . S
C735 H758 0.931 . S
C736 C733 1.429 . S
C736 C734 1.420 . S
C736 N744 1.362 . S
C737 C733 1.411 . S
C737 C735 1.420 . S
C737 C742 1.395 . S
C738 C734 1.423 . S
C738 C735 1.351 . S
C738 H750 0.930 . S
C739 C741 1.400 . S
C739 C742 1.386 . S
C739 H751 0.930 . S
N740 C733 1.377 . S
N740 C741 1.321 . S
N740 Eu743 2.609 . S
C741 C739 1.400 . S
C741 N740 1.321 . S
C741 H748 0.930 . S
C742 C737 1.395 . S
C742 C739 1.386 . S
C742 H761 0.930 . S
Eu743 N740 2.609 . S
Eu743 N744 2.657 . S
Eu743 O777 2.380 1_554 S
Eu743 O778 2.432 . S
Eu743 O782 2.558 . S
Eu743 O783 2.612 1_655 S
Eu743 O785 2.339 1_655 S
Eu743 O786 2.563 1_655 S
Eu743 O787 2.419 . S
Eu743 C807 2.848 . S
N744 C736 1.362 . S
N744 Eu743 2.657 . S
N744 C745 1.334 . S
C745 N744 1.334 . S
C745 C747 1.413 . S
C745 H752 0.929 . S
C746 C734 1.392 . S
C746 C747 1.367 . S
C746 H754 0.930 . S
C747 C745 1.413 . S
C747 C746 1.367 . S
C747 H749 0.930 . S
H748 C741 0.930 . S
H749 C747 0.930 . S
H750 C738 0.930 . S
H751 C739 0.930 . S
H752 C745 0.929 . S
H753 C767 0.930 . S
H754 C746 0.930 . S
H755 C773 0.930 . S
H756 C764 0.929 . S
H757 C771 0.930 . S
H758 C735 0.931 . S
H759 C765 0.930 . S
H760 C798 0.930 . S
H761 C742 0.930 . S
H762 C797 0.931 . S
N763 Eu732 2.657 . S
N763 C764 1.334 . S
N763 C768 1.362 . S
C764 H756 0.929 . S
C764 N763 1.334 . S
C764 C767 1.413 . S
C765 H759 0.930 . S
C765 C766 1.392 . S
C765 C767 1.367 . S
C766 C765 1.392 . S
C766 C768 1.420 . S
C766 C798 1.423 . S
C767 H753 0.930 . S
C767 C764 1.413 . S
C767 C765 1.367 . S
C768 N763 1.362 . S
C768 C766 1.420 . S
C768 C772 1.429 . S
H769 C774 0.930 . S
N770 Eu732 2.609 . S
N770 C772 1.377 . S
N770 C773 1.321 . S
C771 H757 0.930 . S
C771 C773 1.400 . S
C771 C774 1.386 . S
C772 C768 1.429 . S
C772 N770 1.377 . S
C772 C775 1.411 . S
C773 H755 0.930 . S
C773 N770 1.321 . S
C773 C771 1.400 . S
C774 H769 0.930 . S
C774 C771 1.386 . S
C774 C775 1.395 . S
C775 C772 1.411 . S
C775 C774 1.395 . S
C775 C797 1.420 . S
O776 Eu732 2.558 . S
O776 C796 1.257 . S
O777 Eu732 2.612 1_655 S
O777 Eu743 2.380 1_556 S
O777 C788 1.276 . S
O778 Eu743 2.432 . S
O778 C795 1.264 1_554 S
O779 Eu732 2.339 1_655 S
O779 C795 1.254 . S
O780 Eu732 2.563 1_655 S
O780 C788 1.235 . S
O781 Eu732 2.419 . S
O781 C796 1.249 . S
O782 Eu743 2.558 . S
O782 C807 1.257 . S
O783 Eu732 2.380 1_554 S
O783 Eu743 2.612 1_455 S
O783 C799 1.276 . S
O784 Eu732 2.432 . S
O784 C806 1.264 1_556 S
O785 Eu743 2.339 1_455 S
O785 C806 1.254 . S
O786 Eu743 2.563 1_455 S
O786 C799 1.235 . S
O787 Eu743 2.419 . S
O787 C807 1.249 . S
C788 O777 1.276 . S
C788 O780 1.235 . S
C789 C791 1.393 1_455 S
C789 C793 1.395 . S
C789 C796 1.492 . S
C790 C791 1.392 . S
C790 C792 1.386 1_655 S
C791 C789 1.393 1_655 S
C791 C790 1.392 . S
C791 H808 0.930 . S
C792 C790 1.386 1_455 S
C792 C794 1.395 . S
C792 H809 0.930 . S
C793 C789 1.395 . S
C793 C794 1.379 . S
C793 H810 0.930 . S
C794 C792 1.395 . S
C794 C793 1.379 . S
C794 H811 0.930 . S
C795 O778 1.264 1_556 S
C795 O779 1.254 . S
C796 Eu732 2.848 . S
C796 O776 1.257 . S
C796 O781 1.249 . S
C796 C789 1.492 . S
C797 H762 0.931 . S
C797 C775 1.420 . S
C797 C798 1.351 . S
C798 H760 0.930 . S
C798 C766 1.423 . S
C798 C797 1.351 . S
C799 O783 1.276 . S
C799 O786 1.235 . S
C800 C801 1.393 1_655 S
C800 C804 1.395 . S
C800 C807 1.492 . S
C801 C800 1.393 1_455 S
C801 C802 1.392 . S
C801 H812 0.930 . S
C802 C801 1.392 . S
C802 C803 1.386 1_455 S
C803 C802 1.386 1_655 S
C803 C805 1.395 . S
C803 H813 0.930 . S
C804 C800 1.395 . S
C804 C805 1.379 . S
C804 H814 0.930 . S
C805 C803 1.395 . S
C805 C804 1.379 . S
C805 H815 0.930 . S
C806 O784 1.264 1_554 S
C806 O785 1.254 . S
C807 Eu743 2.848 . S
C807 O782 1.257 . S
C807 O787 1.249 . S
C807 C800 1.492 . S
H808 C791 0.930 . S
H809 C792 0.930 . S
H810 C793 0.930 . S
H811 C794 0.930 . S
H812 C801 0.930 . S
H813 C803 0.930 . S
H814 C804 0.930 . S
H815 C805 0.930 . S
Eu816 N847 2.657 . S
Eu816 N854 2.609 . S
Eu816 O860 2.558 . S
Eu816 O861 2.612 . S
Eu816 O863 2.339 . S
Eu816 O864 2.563 . S
Eu816 O865 2.419 . S
Eu816 O867 2.380 1_554 S
Eu816 O868 2.432 . S
Eu816 C880 2.848 . S
C817 C820 1.429 . S
C817 C821 1.411 . S
C817 N824 1.377 . S
C818 C820 1.420 . S
C818 C822 1.423 . S
C818 C830 1.392 . S
C819 C821 1.420 . S
C819 C822 1.351 . S
C819 H842 0.931 . S
C820 C817 1.429 . S
C820 C818 1.420 . S
C820 N828 1.362 . S
C821 C817 1.411 . S
C821 C819 1.420 . S
C821 C826 1.395 . S
C822 C818 1.423 . S
C822 C819 1.351 . S
C822 H834 0.930 . S
C823 C825 1.400 . S
C823 C826 1.386 . S
C823 H835 0.930 . S
N824 C817 1.377 . S
N824 C825 1.321 . S
N824 Eu827 2.609 . S
C825 C823 1.400 . S
C825 N824 1.321 . S
C825 H832 0.930 . S
C826 C821 1.395 . S
C826 C823 1.386 . S
C826 H845 0.930 . S
Eu827 N824 2.609 . S
Eu827 N828 2.657 . S
Eu827 O861 2.380 1_556 S
Eu827 O862 2.432 . S
Eu827 O866 2.558 . S
Eu827 O867 2.612 . S
Eu827 O869 2.339 . S
Eu827 O870 2.563 . S
Eu827 O871 2.419 . S
Eu827 C891 2.848 . S
N828 C820 1.362 . S
N828 Eu827 2.657 . S
N828 C829 1.334 . S
C829 N828 1.334 . S
C829 C831 1.413 . S
C829 H836 0.929 . S
C830 C818 1.392 . S
C830 C831 1.367 . S
C830 H838 0.930 . S
C831 C829 1.413 . S
C831 C830 1.367 . S
C831 H833 0.930 . S
H832 C825 0.930 . S
H833 C831 0.930 . S
H834 C822 0.930 . S
H835 C823 0.930 . S
H836 C829 0.929 . S
H837 C851 0.930 . S
H838 C830 0.930 . S
H839 C857 0.930 . S
H840 C848 0.929 . S
H841 C855 0.930 . S
H842 C819 0.931 . S
H843 C849 0.930 . S
H844 C882 0.930 . S
H845 C826 0.930 . S
H846 C881 0.931 . S
N847 Eu816 2.657 . S
N847 C848 1.334 . S
N847 C852 1.362 . S
C848 H840 0.929 . S
C848 N847 1.334 . S
C848 C851 1.413 . S
C849 H843 0.930 . S
C849 C850 1.392 . S
C849 C851 1.367 . S
C850 C849 1.392 . S
C850 C852 1.420 . S
C850 C882 1.423 . S
C851 H837 0.930 . S
C851 C848 1.413 . S
C851 C849 1.367 . S
C852 N847 1.362 . S
C852 C850 1.420 . S
C852 C856 1.429 . S
H853 C858 0.930 . S
N854 Eu816 2.609 . S
N854 C856 1.377 . S
N854 C857 1.321 . S
C855 H841 0.930 . S
C855 C857 1.400 . S
C855 C858 1.386 . S
C856 C852 1.429 . S
C856 N854 1.377 . S
C856 C859 1.411 . S
C857 H839 0.930 . S
C857 N854 1.321 . S
C857 C855 1.400 . S
C858 H853 0.930 . S
C858 C855 1.386 . S
C858 C859 1.395 . S
C859 C856 1.411 . S
C859 C858 1.395 . S
C859 C881 1.420 . S
O860 Eu816 2.558 . S
O860 C880 1.257 . S
O861 Eu816 2.612 . S
O861 Eu827 2.380 1_554 S
O861 C872 1.276 . S
O862 Eu827 2.432 . S
O862 C879 1.264 1_556 S
O863 Eu816 2.339 . S
O863 C879 1.254 . S
O864 Eu816 2.563 . S
O864 C872 1.235 . S
O865 Eu816 2.419 . S
O865 C880 1.249 . S
O866 Eu827 2.558 . S
O866 C891 1.257 . S
O867 Eu816 2.380 1_556 S
O867 Eu827 2.612 . S
O867 C883 1.276 . S
O868 Eu816 2.432 . S
O868 C890 1.264 1_554 S
O869 Eu827 2.339 . S
O869 C890 1.254 . S
O870 Eu827 2.563 . S
O870 C883 1.235 . S
O871 Eu827 2.419 . S
O871 C891 1.249 . S
C872 O861 1.276 . S
C872 O864 1.235 . S
C873 C875 1.393 . S
C873 C877 1.395 . S
C873 C880 1.492 . S
C874 C875 1.392 . S
C874 C876 1.386 . S
C875 C873 1.393 . S
C875 C874 1.392 . S
C875 H892 0.930 . S
C876 C874 1.386 . S
C876 C878 1.395 . S
C876 H893 0.930 . S
C877 C873 1.395 . S
C877 C878 1.379 . S
C877 H894 0.930 . S
C878 C876 1.395 . S
C878 C877 1.379 . S
C878 H895 0.930 . S
C879 O862 1.264 1_554 S
C879 O863 1.254 . S
C880 Eu816 2.848 . S
C880 O860 1.257 . S
C880 O865 1.249 . S
C880 C873 1.492 . S
C881 H846 0.931 . S
C881 C859 1.420 . S
C881 C882 1.351 . S
C882 H844 0.930 . S
C882 C850 1.423 . S
C882 C881 1.351 . S
C883 O867 1.276 . S
C883 O870 1.235 . S
C884 C885 1.393 . S
C884 C888 1.395 . S
C884 C891 1.492 . S
C885 C884 1.393 . S
C885 C886 1.392 . S
C885 H896 0.930 . S
C886 C885 1.392 . S
C886 C887 1.386 . S
C887 C886 1.386 . S
C887 C889 1.395 . S
C887 H897 0.930 . S
C888 C884 1.395 . S
C888 C889 1.379 . S
C888 H898 0.930 . S
C889 C887 1.395 . S
C889 C888 1.379 . S
C889 H899 0.930 . S
C890 O868 1.264 1_556 S
C890 O869 1.254 . S
C891 Eu827 2.848 . S
C891 O866 1.257 . S
C891 O871 1.249 . S
C891 C884 1.492 . S
H892 C875 0.930 . S
H893 C876 0.930 . S
H894 C877 0.930 . S
H895 C878 0.930 . S
H896 C885 0.930 . S
H897 C887 0.930 . S
H898 C888 0.930 . S
H899 C889 0.930 . S
Eu900 N931 2.657 . S
Eu900 N938 2.609 . S
Eu900 O944 2.558 . S
Eu900 O945 2.612 . S
Eu900 O947 2.339 . S
Eu900 O948 2.563 . S
Eu900 O949 2.419 . S
Eu900 O951 2.380 . S
Eu900 O952 2.432 . S
Eu900 C964 2.848 . S
C901 C904 1.429 . S
C901 C905 1.411 . S
C901 N908 1.377 . S
C902 C904 1.420 . S
C902 C906 1.423 . S
C902 C914 1.392 . S
C903 C905 1.420 . S
C903 C906 1.351 . S
C903 H926 0.931 . S
C904 C901 1.429 . S
C904 C902 1.420 . S
C904 N912 1.362 . S
C905 C901 1.411 . S
C905 C903 1.420 . S
C905 C910 1.395 . S
C906 C902 1.423 . S
C906 C903 1.351 . S
C906 H918 0.930 . S
C907 C909 1.400 . S
C907 C910 1.386 . S
C907 H919 0.930 . S
N908 C901 1.377 . S
N908 C909 1.321 . S
N908 Eu911 2.609 . S
C909 C907 1.400 . S
C909 N908 1.321 . S
C909 H916 0.930 . S
C910 C905 1.395 . S
C910 C907 1.386 . S
C910 H929 0.930 . S
Eu911 N908 2.609 . S
Eu911 N912 2.657 . S
Eu911 O945 2.380 . S
Eu911 O946 2.432 . S
Eu911 O950 2.558 . S
Eu911 O951 2.612 . S
Eu911 O953 2.339 . S
Eu911 O954 2.563 . S
Eu911 O955 2.419 . S
Eu911 C975 2.848 . S
N912 C904 1.362 . S
N912 Eu911 2.657 . S
N912 C913 1.334 . S
C913 N912 1.334 . S
C913 C915 1.413 . S
C913 H920 0.929 . S
C914 C902 1.392 . S
C914 C915 1.367 . S
C914 H922 0.930 . S
C915 C913 1.413 . S
C915 C914 1.367 . S
C915 H917 0.930 . S
H916 C909 0.930 . S
H917 C915 0.930 . S
H918 C906 0.930 . S
H919 C907 0.930 . S
H920 C913 0.929 . S
H921 C935 0.930 . S
H922 C914 0.930 . S
H923 C941 0.930 . S
H924 C932 0.929 . S
H925 C939 0.930 . S
H926 C903 0.931 . S
H927 C933 0.930 . S
H928 C966 0.930 . S
H929 C910 0.930 . S
H930 C965 0.931 . S
N931 Eu900 2.657 . S
N931 C932 1.334 . S
N931 C936 1.362 . S
C932 H924 0.929 . S
C932 N931 1.334 . S
C932 C935 1.413 1_455 S
C933 H927 0.930 . S
C933 C934 1.392 . S
C933 C935 1.367 . S
C934 C933 1.392 . S
C934 C936 1.420 1_655 S
C934 C966 1.423 . S
C935 H921 0.930 . S
C935 C932 1.413 1_655 S
C935 C933 1.367 . S
C936 N931 1.362 . S
C936 C934 1.420 1_455 S
C936 C940 1.429 . S
H937 C942 0.930 . S
N938 Eu900 2.609 . S
N938 C940 1.377 . S
N938 C941 1.321 . S
C939 H925 0.930 . S
C939 C941 1.400 . S
C939 C942 1.386 . S
C940 C936 1.429 . S
C940 N938 1.377 . S
C940 C943 1.411 . S
C941 H923 0.930 . S
C941 N938 1.321 . S
C941 C939 1.400 . S
C942 H937 0.930 . S
C942 C939 1.386 . S
C942 C943 1.395 . S
C943 C940 1.411 . S
C943 C942 1.395 . S
C943 C965 1.420 1_455 S
O944 Eu900 2.558 . S
O944 C964 1.257 . S
O945 Eu900 2.612 . S
O945 Eu911 2.380 . S
O945 C956 1.276 . S
O946 Eu911 2.432 . S
O946 C963 1.264 . S
O947 Eu900 2.339 . S
O947 C963 1.254 . S
O948 Eu900 2.563 . S
O948 C956 1.235 . S
O949 Eu900 2.419 . S
O949 C964 1.249 . S
O950 Eu911 2.558 . S
O950 C975 1.257 . S
O951 Eu900 2.380 . S
O951 Eu911 2.612 . S
O951 C967 1.276 . S
O952 Eu900 2.432 . S
O952 C974 1.264 . S
O953 Eu911 2.339 . S
O953 C974 1.254 . S
O954 Eu911 2.563 . S
O954 C967 1.235 . S
O955 Eu911 2.419 . S
O955 C975 1.249 . S
C956 O945 1.276 . S
C956 O948 1.235 . S
C957 C959 1.393 . S
C957 C961 1.395 . S
C957 C964 1.492 . S
C958 C959 1.392 . S
C958 C960 1.386 . S
C959 C957 1.393 . S
C959 C958 1.392 . S
C959 H976 0.930 . S
C960 C958 1.386 . S
C960 C962 1.395 . S
C960 H977 0.930 . S
C961 C957 1.395 . S
C961 C962 1.379 . S
C961 H978 0.930 . S
C962 C960 1.395 . S
C962 C961 1.379 . S
C962 H979 0.930 . S
C963 O946 1.264 . S
C963 O947 1.254 . S
C964 Eu900 2.848 . S
C964 O944 1.257 . S
C964 O949 1.249 . S
C964 C957 1.492 . S
C965 H930 0.931 . S
C965 C943 1.420 1_655 S
C965 C966 1.351 . S
C966 H928 0.930 . S
C966 C934 1.423 . S
C966 C965 1.351 . S
C967 O951 1.276 . S
C967 O954 1.235 . S
C968 C969 1.393 . S
C968 C972 1.395 . S
C968 C975 1.492 . S
C969 C968 1.393 . S
C969 C970 1.392 . S
C969 H980 0.930 . S
C970 C969 1.392 . S
C970 C971 1.386 . S
C971 C970 1.386 . S
C971 C973 1.395 . S
C971 H981 0.930 . S
C972 C968 1.395 . S
C972 C973 1.379 . S
C972 H982 0.930 . S
C973 C971 1.395 . S
C973 C972 1.379 . S
C973 H983 0.930 . S
C974 O952 1.264 . S
C974 O953 1.254 . S
C975 Eu911 2.848 . S
C975 O950 1.257 . S
C975 O955 1.249 . S
C975 C968 1.492 . S
H976 C959 0.930 . S
H977 C960 0.930 . S
H978 C961 0.930 . S
H979 C962 0.930 . S
H980 C969 0.930 . S
H981 C971 0.930 . S
H982 C972 0.930 . S
H983 C973 0.930 . S
Eu984 N1015 2.657 . S
Eu984 N1022 2.609 . S
Eu984 O1028 2.558 . S
Eu984 O1029 2.612 . S
Eu984 O1031 2.339 . S
Eu984 O1032 2.563 . S
Eu984 O1033 2.419 . S
Eu984 O1035 2.380 . S
Eu984 O1036 2.432 . S
Eu984 C1048 2.848 . S
C985 C988 1.429 . S
C985 C989 1.411 . S
C985 N992 1.377 . S
C986 C988 1.420 . S
C986 C990 1.423 . S
C986 C998 1.392 . S
C987 C989 1.420 . S
C987 C990 1.351 . S
C987 H1010 0.931 . S
C988 C985 1.429 . S
C988 C986 1.420 . S
C988 N996 1.362 . S
C989 C985 1.411 . S
C989 C987 1.420 . S
C989 C994 1.395 . S
C990 C986 1.423 . S
C990 C987 1.351 . S
C990 H1002 0.930 . S
C991 C993 1.400 . S
C991 C994 1.386 . S
C991 H1003 0.930 . S
N992 C985 1.377 . S
N992 C993 1.321 . S
N992 Eu995 2.609 . S
C993 C991 1.400 . S
C993 N992 1.321 . S
C993 H1000 0.930 . S
C994 C989 1.395 . S
C994 C991 1.386 . S
C994 H1013 0.930 . S
Eu995 N992 2.609 . S
Eu995 N996 2.657 . S
Eu995 O1029 2.380 . S
Eu995 O1030 2.432 . S
Eu995 O1034 2.558 . S
Eu995 O1035 2.612 . S
Eu995 O1037 2.339 . S
Eu995 O1038 2.563 . S
Eu995 O1039 2.419 . S
Eu995 C1059 2.848 . S
N996 C988 1.362 . S
N996 Eu995 2.657 . S
N996 C997 1.334 . S
C997 N996 1.334 . S
C997 C999 1.413 . S
C997 H1004 0.929 . S
C998 C986 1.392 . S
C998 C999 1.367 . S
C998 H1006 0.930 . S
C999 C997 1.413 . S
C999 C998 1.367 . S
C999 H1001 0.930 . S
H1000 C993 0.930 . S
H1001 C999 0.930 . S
H1002 C990 0.930 . S
H1003 C991 0.930 . S
H1004 C997 0.929 . S
H1005 C1019 0.930 . S
H1006 C998 0.930 . S
H1007 C1025 0.930 . S
H1008 C1016 0.929 . S
H1009 C1023 0.930 . S
H1010 C987 0.931 . S
H1011 C1017 0.930 . S
H1012 C1050 0.930 . S
H1013 C994 0.930 . S
H1014 C1049 0.931 . S
N1015 Eu984 2.657 . S
N1015 C1016 1.334 . S
N1015 C1020 1.362 . S
C1016 H1008 0.929 . S
C1016 N1015 1.334 . S
C1016 C1019 1.413 . S
C1017 H1011 0.930 . S
C1017 C1018 1.392 . S
C1017 C1019 1.367 . S
C1018 C1017 1.392 . S
C1018 C1020 1.420 . S
C1018 C1050 1.423 . S
C1019 H1005 0.930 . S
C1019 C1016 1.413 . S
C1019 C1017 1.367 . S
C1020 N1015 1.362 . S
C1020 C1018 1.420 . S
C1020 C1024 1.429 . S
H1021 C1026 0.930 . S
N1022 Eu984 2.609 . S
N1022 C1024 1.377 . S
N1022 C1025 1.321 . S
C1023 H1009 0.930 . S
C1023 C1025 1.400 . S
C1023 C1026 1.386 . S
C1024 C1020 1.429 . S
C1024 N1022 1.377 . S
C1024 C1027 1.411 . S
C1025 H1007 0.930 . S
C1025 N1022 1.321 . S
C1025 C1023 1.400 . S
C1026 H1021 0.930 . S
C1026 C1023 1.386 . S
C1026 C1027 1.395 . S
C1027 C1024 1.411 . S
C1027 C1026 1.395 . S
C1027 C1049 1.420 . S
O1028 Eu984 2.558 . S
O1028 C1048 1.257 . S
O1029 Eu984 2.612 . S
O1029 Eu995 2.380 . S
O1029 C1040 1.276 . S
O1030 Eu995 2.432 . S
O1030 C1047 1.264 . S
O1031 Eu984 2.339 . S
O1031 C1047 1.254 . S
O1032 Eu984 2.563 . S
O1032 C1040 1.235 . S
O1033 Eu984 2.419 . S
O1033 C1048 1.249 . S
O1034 Eu995 2.558 . S
O1034 C1059 1.257 . S
O1035 Eu984 2.380 . S
O1035 Eu995 2.612 . S
O1035 C1051 1.276 . S
O1036 Eu984 2.432 . S
O1036 C1058 1.264 . S
O1037 Eu995 2.339 . S
O1037 C1058 1.254 . S
O1038 Eu995 2.563 . S
O1038 C1051 1.235 . S
O1039 Eu995 2.419 . S
O1039 C1059 1.249 . S
C1040 O1029 1.276 . S
C1040 O1032 1.235 . S
C1041 C1043 1.393 . S
C1041 C1045 1.395 . S
C1041 C1048 1.492 . S
C1042 C1043 1.392 . S
C1042 C1044 1.386 . S
C1043 C1041 1.393 . S
C1043 C1042 1.392 . S
C1043 H1060 0.930 . S
C1044 C1042 1.386 . S
C1044 C1046 1.395 . S
C1044 H1061 0.930 . S
C1045 C1041 1.395 . S
C1045 C1046 1.379 . S
C1045 H1062 0.930 . S
C1046 C1044 1.395 . S
C1046 C1045 1.379 . S
C1046 H1063 0.930 . S
C1047 O1030 1.264 . S
C1047 O1031 1.254 . S
C1048 Eu984 2.848 . S
C1048 O1028 1.257 . S
C1048 O1033 1.249 . S
C1048 C1041 1.492 . S
C1049 H1014 0.931 . S
C1049 C1027 1.420 . S
C1049 C1050 1.351 . S
C1050 H1012 0.930 . S
C1050 C1018 1.423 . S
C1050 C1049 1.351 . S
C1051 O1035 1.276 . S
C1051 O1038 1.235 . S
C1052 C1053 1.393 . S
C1052 C1056 1.395 . S
C1052 C1059 1.492 . S
C1053 C1052 1.393 . S
C1053 C1054 1.392 . S
C1053 H1064 0.930 . S
C1054 C1053 1.392 . S
C1054 C1055 1.386 . S
C1055 C1054 1.386 . S
C1055 C1057 1.395 . S
C1055 H1065 0.930 . S
C1056 C1052 1.395 . S
C1056 C1057 1.379 . S
C1056 H1066 0.930 . S
C1057 C1055 1.395 . S
C1057 C1056 1.379 . S
C1057 H1067 0.930 . S
C1058 O1036 1.264 . S
C1058 O1037 1.254 . S
C1059 Eu995 2.848 . S
C1059 O1034 1.257 . S
C1059 O1039 1.249 . S
C1059 C1052 1.492 . S
H1060 C1043 0.930 . S
H1061 C1044 0.930 . S
H1062 C1045 0.930 . S
H1063 C1046 0.930 . S
H1064 C1053 0.930 . S
H1065 C1055 0.930 . S
H1066 C1056 0.930 . S
H1067 C1057 0.930 . S
Eu1068 N1099 2.657 . S
Eu1068 N1106 2.609 . S
Eu1068 O1112 2.558 . S
Eu1068 O1113 2.612 . S
Eu1068 O1115 2.339 . S
Eu1068 O1116 2.563 . S
Eu1068 O1117 2.419 . S
Eu1068 O1119 2.380 . S
Eu1068 O1120 2.432 . S
Eu1068 C1132 2.848 . S
C1069 C1072 1.429 . S
C1069 C1073 1.411 . S
C1069 N1076 1.377 . S
C1070 C1072 1.420 1_655 S
C1070 C1074 1.423 . S
C1070 C1082 1.392 . S
C1071 C1073 1.420 1_655 S
C1071 C1074 1.351 . S
C1071 H1094 0.931 . S
C1072 C1069 1.429 . S
C1072 C1070 1.420 1_455 S
C1072 N1080 1.362 . S
C1073 C1069 1.411 . S
C1073 C1071 1.420 1_455 S
C1073 C1078 1.395 . S
C1074 C1070 1.423 . S
C1074 C1071 1.351 . S
C1074 H1086 0.930 . S
C1075 C1077 1.400 . S
C1075 C1078 1.386 . S
C1075 H1087 0.930 . S
N1076 C1069 1.377 . S
N1076 C1077 1.321 . S
N1076 Eu1079 2.609 . S
C1077 C1075 1.400 . S
C1077 N1076 1.321 . S
C1077 H1084 0.930 . S
C1078 C1073 1.395 . S
C1078 C1075 1.386 . S
C1078 H1097 0.930 . S
Eu1079 N1076 2.609 . S
Eu1079 N1080 2.657 . S
Eu1079 O1113 2.380 . S
Eu1079 O1114 2.432 . S
Eu1079 O1118 2.558 . S
Eu1079 O1119 2.612 . S
Eu1079 O1121 2.339 . S
Eu1079 O1122 2.563 . S
Eu1079 O1123 2.419 . S
Eu1079 C1143 2.848 . S
N1080 C1072 1.362 . S
N1080 Eu1079 2.657 . S
N1080 C1081 1.334 . S
C1081 N1080 1.334 . S
C1081 C1083 1.413 1_455 S
C1081 H1088 0.929 . S
C1082 C1070 1.392 . S
C1082 C1083 1.367 . S
C1082 H1090 0.930 . S
C1083 C1081 1.413 1_655 S
C1083 C1082 1.367 . S
C1083 H1085 0.930 . S
H1084 C1077 0.930 . S
H1085 C1083 0.930 . S
H1086 C1074 0.930 . S
H1087 C1075 0.930 . S
H1088 C1081 0.929 . S
H1089 C1103 0.930 . S
H1090 C1082 0.930 . S
H1091 C1109 0.930 . S
H1092 C1100 0.929 . S
H1093 C1107 0.930 . S
H1094 C1071 0.931 . S
H1095 C1101 0.930 . S
H1096 C1134 0.930 . S
H1097 C1078 0.930 . S
H1098 C1133 0.931 . S
N1099 Eu1068 2.657 . S
N1099 C1100 1.334 . S
N1099 C1104 1.362 . S
C1100 H1092 0.929 . S
C1100 N1099 1.334 . S
C1100 C1103 1.413 . S
C1101 H1095 0.930 . S
C1101 C1102 1.392 . S
C1101 C1103 1.367 . S
C1102 C1101 1.392 . S
C1102 C1104 1.420 . S
C1102 C1134 1.423 . S
C1103 H1089 0.930 . S
C1103 C1100 1.413 . S
C1103 C1101 1.367 . S
C1104 N1099 1.362 . S
C1104 C1102 1.420 . S
C1104 C1108 1.429 . S
H1105 C1110 0.930 . S
N1106 Eu1068 2.609 . S
N1106 C1108 1.377 . S
N1106 C1109 1.321 . S
C1107 H1093 0.930 . S
C1107 C1109 1.400 . S
C1107 C1110 1.386 . S
C1108 C1104 1.429 . S
C1108 N1106 1.377 . S
C1108 C1111 1.411 . S
C1109 H1091 0.930 . S
C1109 N1106 1.321 . S
C1109 C1107 1.400 . S
C1110 H1105 0.930 . S
C1110 C1107 1.386 . S
C1110 C1111 1.395 . S
C1111 C1108 1.411 . S
C1111 C1110 1.395 . S
C1111 C1133 1.420 . S
O1112 Eu1068 2.558 . S
O1112 C1132 1.257 . S
O1113 Eu1068 2.612 . S
O1113 Eu1079 2.380 . S
O1113 C1124 1.276 . S
O1114 Eu1079 2.432 . S
O1114 C1131 1.264 . S
O1115 Eu1068 2.339 . S
O1115 C1131 1.254 . S
O1116 Eu1068 2.563 . S
O1116 C1124 1.235 . S
O1117 Eu1068 2.419 . S
O1117 C1132 1.249 . S
O1118 Eu1079 2.558 . S
O1118 C1143 1.257 . S
O1119 Eu1068 2.380 . S
O1119 Eu1079 2.612 . S
O1119 C1135 1.276 . S
O1120 Eu1068 2.432 . S
O1120 C1142 1.264 . S
O1121 Eu1079 2.339 . S
O1121 C1142 1.254 . S
O1122 Eu1079 2.563 . S
O1122 C1135 1.235 . S
O1123 Eu1079 2.419 . S
O1123 C1143 1.249 . S
C1124 O1113 1.276 . S
C1124 O1116 1.235 . S
C1125 C1127 1.393 . S
C1125 C1129 1.395 . S
C1125 C1132 1.492 . S
C1126 C1127 1.392 . S
C1126 C1128 1.386 . S
C1127 C1125 1.393 . S
C1127 C1126 1.392 . S
C1127 H1144 0.930 . S
C1128 C1126 1.386 . S
C1128 C1130 1.395 . S
C1128 H1145 0.930 . S
C1129 C1125 1.395 . S
C1129 C1130 1.379 . S
C1129 H1146 0.930 . S
C1130 C1128 1.395 . S
C1130 C1129 1.379 . S
C1130 H1147 0.930 . S
C1131 O1114 1.264 . S
C1131 O1115 1.254 . S
C1132 Eu1068 2.848 . S
C1132 O1112 1.257 . S
C1132 O1117 1.249 . S
C1132 C1125 1.492 . S
C1133 H1098 0.931 . S
C1133 C1111 1.420 . S
C1133 C1134 1.351 . S
C1134 H1096 0.930 . S
C1134 C1102 1.423 . S
C1134 C1133 1.351 . S
C1135 O1119 1.276 . S
C1135 O1122 1.235 . S
C1136 C1137 1.393 . S
C1136 C1140 1.395 . S
C1136 C1143 1.492 . S
C1137 C1136 1.393 . S
C1137 C1138 1.392 . S
C1137 H1148 0.930 . S
C1138 C1137 1.392 . S
C1138 C1139 1.386 . S
C1139 C1138 1.386 . S
C1139 C1141 1.395 . S
C1139 H1149 0.930 . S
C1140 C1136 1.395 . S
C1140 C1141 1.379 . S
C1140 H1150 0.930 . S
C1141 C1139 1.395 . S
C1141 C1140 1.379 . S
C1141 H1151 0.930 . S
C1142 O1120 1.264 . S
C1142 O1121 1.254 . S
C1143 Eu1079 2.848 . S
C1143 O1118 1.257 . S
C1143 O1123 1.249 . S
C1143 C1136 1.492 . S
H1144 C1127 0.930 . S
H1145 C1128 0.930 . S
H1146 C1129 0.930 . S
H1147 C1130 0.930 . S
H1148 C1137 0.930 . S
H1149 C1139 0.930 . S
H1150 C1140 0.930 . S
H1151 C1141 0.930 . S
Eu1152 N1183 2.657 . S
Eu1152 N1190 2.609 . S
Eu1152 O1196 2.558 . S
Eu1152 O1197 2.612 . S
Eu1152 O1199 2.339 . S
Eu1152 O1200 2.563 . S
Eu1152 O1201 2.419 . S
Eu1152 O1203 2.380 . S
Eu1152 O1204 2.432 . S
Eu1152 C1216 2.848 . S
C1153 C1156 1.429 . S
C1153 C1157 1.411 . S
C1153 N1160 1.377 . S
C1154 C1156 1.420 1_455 S
C1154 C1158 1.423 . S
C1154 C1166 1.392 . S
C1155 C1157 1.420 1_455 S
C1155 C1158 1.351 . S
C1155 H1178 0.931 . S
C1156 C1153 1.429 . S
C1156 C1154 1.420 1_655 S
C1156 N1164 1.362 . S
C1157 C1153 1.411 . S
C1157 C1155 1.420 1_655 S
C1157 C1162 1.395 . S
C1158 C1154 1.423 . S
C1158 C1155 1.351 . S
C1158 H1170 0.930 . S
C1159 C1161 1.400 . S
C1159 C1162 1.386 . S
C1159 H1171 0.930 . S
N1160 C1153 1.377 . S
N1160 C1161 1.321 . S
N1160 Eu1163 2.609 . S
C1161 C1159 1.400 . S
C1161 N1160 1.321 . S
C1161 H1168 0.930 . S
C1162 C1157 1.395 . S
C1162 C1159 1.386 . S
C1162 H1181 0.930 . S
Eu1163 N1160 2.609 . S
Eu1163 N1164 2.657 . S
Eu1163 O1197 2.380 . S
Eu1163 O1198 2.432 . S
Eu1163 O1202 2.558 . S
Eu1163 O1203 2.612 . S
Eu1163 O1205 2.339 . S
Eu1163 O1206 2.563 . S
Eu1163 O1207 2.419 . S
Eu1163 C1227 2.848 . S
N1164 C1156 1.362 . S
N1164 Eu1163 2.657 . S
N1164 C1165 1.334 . S
C1165 N1164 1.334 . S
C1165 C1167 1.413 1_655 S
C1165 H1172 0.929 . S
C1166 C1154 1.392 . S
C1166 C1167 1.367 . S
C1166 H1174 0.930 . S
C1167 C1165 1.413 1_455 S
C1167 C1166 1.367 . S
C1167 H1169 0.930 . S
H1168 C1161 0.930 . S
H1169 C1167 0.930 . S
H1170 C1158 0.930 . S
H1171 C1159 0.930 . S
H1172 C1165 0.929 . S
H1173 C1187 0.930 . S
H1174 C1166 0.930 . S
H1175 C1193 0.930 . S
H1176 C1184 0.929 . S
H1177 C1191 0.930 . S
H1178 C1155 0.931 . S
H1179 C1185 0.930 . S
H1180 C1218 0.930 . S
H1181 C1162 0.930 . S
H1182 C1217 0.931 . S
N1183 Eu1152 2.657 . S
N1183 C1184 1.334 . S
N1183 C1188 1.362 . S
C1184 H1176 0.929 . S
C1184 N1183 1.334 . S
C1184 C1187 1.413 . S
C1185 H1179 0.930 . S
C1185 C1186 1.392 . S
C1185 C1187 1.367 . S
C1186 C1185 1.392 . S
C1186 C1188 1.420 . S
C1186 C1218 1.423 . S
C1187 H1173 0.930 . S
C1187 C1184 1.413 . S
C1187 C1185 1.367 . S
C1188 N1183 1.362 . S
C1188 C1186 1.420 . S
C1188 C1192 1.429 . S
H1189 C1194 0.930 . S
N1190 Eu1152 2.609 . S
N1190 C1192 1.377 . S
N1190 C1193 1.321 . S
C1191 H1177 0.930 . S
C1191 C1193 1.400 . S
C1191 C1194 1.386 . S
C1192 C1188 1.429 . S
C1192 N1190 1.377 . S
C1192 C1195 1.411 . S
C1193 H1175 0.930 . S
C1193 N1190 1.321 . S
C1193 C1191 1.400 . S
C1194 H1189 0.930 . S
C1194 C1191 1.386 . S
C1194 C1195 1.395 . S
C1195 C1192 1.411 . S
C1195 C1194 1.395 . S
C1195 C1217 1.420 . S
O1196 Eu1152 2.558 . S
O1196 C1216 1.257 . S
O1197 Eu1152 2.612 . S
O1197 Eu1163 2.380 . S
O1197 C1208 1.276 . S
O1198 Eu1163 2.432 . S
O1198 C1215 1.264 . S
O1199 Eu1152 2.339 . S
O1199 C1215 1.254 . S
O1200 Eu1152 2.563 . S
O1200 C1208 1.235 . S
O1201 Eu1152 2.419 . S
O1201 C1216 1.249 . S
O1202 Eu1163 2.558 . S
O1202 C1227 1.257 . S
O1203 Eu1152 2.380 . S
O1203 Eu1163 2.612 . S
O1203 C1219 1.276 . S
O1204 Eu1152 2.432 . S
O1204 C1226 1.264 . S
O1205 Eu1163 2.339 . S
O1205 C1226 1.254 . S
O1206 Eu1163 2.563 . S
O1206 C1219 1.235 . S
O1207 Eu1163 2.419 . S
O1207 C1227 1.249 . S
C1208 O1197 1.276 . S
C1208 O1200 1.235 . S
C1209 C1211 1.393 . S
C1209 C1213 1.395 . S
C1209 C1216 1.492 . S
C1210 C1211 1.392 . S
C1210 C1212 1.386 . S
C1211 C1209 1.393 . S
C1211 C1210 1.392 . S
C1211 H1228 0.930 . S
C1212 C1210 1.386 . S
C1212 C1214 1.395 . S
C1212 H1229 0.930 . S
C1213 C1209 1.395 . S
C1213 C1214 1.379 . S
C1213 H1230 0.930 . S
C1214 C1212 1.395 . S
C1214 C1213 1.379 . S
C1214 H1231 0.930 . S
C1215 O1198 1.264 . S
C1215 O1199 1.254 . S
C1216 Eu1152 2.848 . S
C1216 O1196 1.257 . S
C1216 O1201 1.249 . S
C1216 C1209 1.492 . S
C1217 H1182 0.931 . S
C1217 C1195 1.420 . S
C1217 C1218 1.351 . S
C1218 H1180 0.930 . S
C1218 C1186 1.423 . S
C1218 C1217 1.351 . S
C1219 O1203 1.276 . S
C1219 O1206 1.235 . S
C1220 C1221 1.393 . S
C1220 C1224 1.395 . S
C1220 C1227 1.492 . S
C1221 C1220 1.393 . S
C1221 C1222 1.392 . S
C1221 H1232 0.930 . S
C1222 C1221 1.392 . S
C1222 C1223 1.386 . S
C1223 C1222 1.386 . S
C1223 C1225 1.395 . S
C1223 H1233 0.930 . S
C1224 C1220 1.395 . S
C1224 C1225 1.379 . S
C1224 H1234 0.930 . S
C1225 C1223 1.395 . S
C1225 C1224 1.379 . S
C1225 H1235 0.930 . S
C1226 O1204 1.264 . S
C1226 O1205 1.254 . S
C1227 Eu1163 2.848 . S
C1227 O1202 1.257 . S
C1227 O1207 1.249 . S
C1227 C1220 1.492 . S
H1228 C1211 0.930 . S
H1229 C1212 0.930 . S
H1230 C1213 0.930 . S
H1231 C1214 0.930 . S
H1232 C1221 0.930 . S
H1233 C1223 0.930 . S
H1234 C1224 0.930 . S
H1235 C1225 0.930 . S
Eu1236 N1267 2.657 . S
Eu1236 N1274 2.609 . S
Eu1236 O1280 2.558 . S
Eu1236 O1281 2.612 . S
Eu1236 O1283 2.339 . S
Eu1236 O1284 2.563 . S
Eu1236 O1285 2.419 . S
Eu1236 O1287 2.380 . S
Eu1236 O1288 2.432 . S
Eu1236 C1300 2.848 . S
C1237 C1240 1.429 . S
C1237 C1241 1.411 . S
C1237 N1244 1.377 . S
C1238 C1240 1.420 . S
C1238 C1242 1.423 . S
C1238 C1250 1.392 . S
C1239 C1241 1.420 . S
C1239 C1242 1.351 . S
C1239 H1262 0.931 . S
C1240 C1237 1.429 . S
C1240 C1238 1.420 . S
C1240 N1248 1.362 . S
C1241 C1237 1.411 . S
C1241 C1239 1.420 . S
C1241 C1246 1.395 . S
C1242 C1238 1.423 . S
C1242 C1239 1.351 . S
C1242 H1254 0.930 . S
C1243 C1245 1.400 . S
C1243 C1246 1.386 . S
C1243 H1255 0.930 . S
N1244 C1237 1.377 . S
N1244 C1245 1.321 . S
N1244 Eu1247 2.609 . S
C1245 C1243 1.400 . S
C1245 N1244 1.321 . S
C1245 H1252 0.930 . S
C1246 C1241 1.395 . S
C1246 C1243 1.386 . S
C1246 H1265 0.930 . S
Eu1247 N1244 2.609 . S
Eu1247 N1248 2.657 . S
Eu1247 O1281 2.380 . S
Eu1247 O1282 2.432 . S
Eu1247 O1286 2.558 . S
Eu1247 O1287 2.612 . S
Eu1247 O1289 2.339 . S
Eu1247 O1290 2.563 . S
Eu1247 O1291 2.419 . S
Eu1247 C1311 2.848 . S
N1248 C1240 1.362 . S
N1248 Eu1247 2.657 . S
N1248 C1249 1.334 . S
C1249 N1248 1.334 . S
C1249 C1251 1.413 . S
C1249 H1256 0.929 . S
C1250 C1238 1.392 . S
C1250 C1251 1.367 . S
C1250 H1258 0.930 . S
C1251 C1249 1.413 . S
C1251 C1250 1.367 . S
C1251 H1253 0.930 . S
H1252 C1245 0.930 . S
H1253 C1251 0.930 . S
H1254 C1242 0.930 . S
H1255 C1243 0.930 . S
H1256 C1249 0.929 . S
H1257 C1271 0.930 . S
H1258 C1250 0.930 . S
H1259 C1277 0.930 . S
H1260 C1268 0.929 . S
H1261 C1275 0.930 . S
H1262 C1239 0.931 . S
H1263 C1269 0.930 . S
H1264 C1302 0.930 . S
H1265 C1246 0.930 . S
H1266 C1301 0.931 . S
N1267 Eu1236 2.657 . S
N1267 C1268 1.334 . S
N1267 C1272 1.362 . S
C1268 H1260 0.929 . S
C1268 N1267 1.334 . S
C1268 C1271 1.413 . S
C1269 H1263 0.930 . S
C1269 C1270 1.392 . S
C1269 C1271 1.367 . S
C1270 C1269 1.392 . S
C1270 C1272 1.420 . S
C1270 C1302 1.423 . S
C1271 H1257 0.930 . S
C1271 C1268 1.413 . S
C1271 C1269 1.367 . S
C1272 N1267 1.362 . S
C1272 C1270 1.420 . S
C1272 C1276 1.429 . S
H1273 C1278 0.930 . S
N1274 Eu1236 2.609 . S
N1274 C1276 1.377 . S
N1274 C1277 1.321 . S
C1275 H1261 0.930 . S
C1275 C1277 1.400 . S
C1275 C1278 1.386 . S
C1276 C1272 1.429 . S
C1276 N1274 1.377 . S
C1276 C1279 1.411 . S
C1277 H1259 0.930 . S
C1277 N1274 1.321 . S
C1277 C1275 1.400 . S
C1278 H1273 0.930 . S
C1278 C1275 1.386 . S
C1278 C1279 1.395 . S
C1279 C1276 1.411 . S
C1279 C1278 1.395 . S
C1279 C1301 1.420 . S
O1280 Eu1236 2.558 . S
O1280 C1300 1.257 . S
O1281 Eu1236 2.612 . S
O1281 Eu1247 2.380 . S
O1281 C1292 1.276 . S
O1282 Eu1247 2.432 . S
O1282 C1299 1.264 . S
O1283 Eu1236 2.339 . S
O1283 C1299 1.254 . S
O1284 Eu1236 2.563 . S
O1284 C1292 1.235 . S
O1285 Eu1236 2.419 . S
O1285 C1300 1.249 . S
O1286 Eu1247 2.558 . S
O1286 C1311 1.257 . S
O1287 Eu1236 2.380 . S
O1287 Eu1247 2.612 . S
O1287 C1303 1.276 . S
O1288 Eu1236 2.432 . S
O1288 C1310 1.264 . S
O1289 Eu1247 2.339 . S
O1289 C1310 1.254 . S
O1290 Eu1247 2.563 . S
O1290 C1303 1.235 . S
O1291 Eu1247 2.419 . S
O1291 C1311 1.249 . S
C1292 O1281 1.276 . S
C1292 O1284 1.235 . S
C1293 C1295 1.393 . S
C1293 C1297 1.395 . S
C1293 C1300 1.492 . S
C1294 C1295 1.392 . S
C1294 C1296 1.386 . S
C1295 C1293 1.393 . S
C1295 C1294 1.392 . S
C1295 H1312 0.930 . S
C1296 C1294 1.386 . S
C1296 C1298 1.395 . S
C1296 H1313 0.930 . S
C1297 C1293 1.395 . S
C1297 C1298 1.379 . S
C1297 H1314 0.930 . S
C1298 C1296 1.395 . S
C1298 C1297 1.379 . S
C1298 H1315 0.930 . S
C1299 O1282 1.264 . S
C1299 O1283 1.254 . S
C1300 Eu1236 2.848 . S
C1300 O1280 1.257 . S
C1300 O1285 1.249 . S
C1300 C1293 1.492 . S
C1301 H1266 0.931 . S
C1301 C1279 1.420 . S
C1301 C1302 1.351 . S
C1302 H1264 0.930 . S
C1302 C1270 1.423 . S
C1302 C1301 1.351 . S
C1303 O1287 1.276 . S
C1303 O1290 1.235 . S
C1304 C1305 1.393 . S
C1304 C1308 1.395 . S
C1304 C1311 1.492 . S
C1305 C1304 1.393 . S
C1305 C1306 1.392 . S
C1305 H1316 0.930 . S
C1306 C1305 1.392 . S
C1306 C1307 1.386 . S
C1307 C1306 1.386 . S
C1307 C1309 1.395 . S
C1307 H1317 0.930 . S
C1308 C1304 1.395 . S
C1308 C1309 1.379 . S
C1308 H1318 0.930 . S
C1309 C1307 1.395 . S
C1309 C1308 1.379 . S
C1309 H1319 0.930 . S
C1310 O1288 1.264 . S
C1310 O1289 1.254 . S
C1311 Eu1247 2.848 . S
C1311 O1286 1.257 . S
C1311 O1291 1.249 . S
C1311 C1304 1.492 . S
H1312 C1295 0.930 . S
H1313 C1296 0.930 . S
H1314 C1297 0.930 . S
H1315 C1298 0.930 . S
H1316 C1305 0.930 . S
H1317 C1307 0.930 . S
H1318 C1308 0.930 . S
H1319 C1309 0.930 . S
Eu1320 N1351 2.657 . S
Eu1320 N1358 2.609 . S
Eu1320 O1364 2.558 . S
Eu1320 O1365 2.612 . S
Eu1320 O1367 2.339 . S
Eu1320 O1368 2.563 . S
Eu1320 O1369 2.419 . S
Eu1320 O1371 2.380 . S
Eu1320 O1372 2.432 . S
Eu1320 C1384 2.848 . S
C1321 C1324 1.429 . S
C1321 C1325 1.411 . S
C1321 N1328 1.377 . S
C1322 C1324 1.420 . S
C1322 C1326 1.423 . S
C1322 C1334 1.392 . S
C1323 C1325 1.420 . S
C1323 C1326 1.351 . S
C1323 H1346 0.931 . S
C1324 C1321 1.429 . S
C1324 C1322 1.420 . S
C1324 N1332 1.362 . S
C1325 C1321 1.411 . S
C1325 C1323 1.420 . S
C1325 C1330 1.395 . S
C1326 C1322 1.423 . S
C1326 C1323 1.351 . S
C1326 H1338 0.930 . S
C1327 C1329 1.400 . S
C1327 C1330 1.386 . S
C1327 H1339 0.930 . S
N1328 C1321 1.377 . S
N1328 C1329 1.321 . S
N1328 Eu1331 2.609 . S
C1329 C1327 1.400 . S
C1329 N1328 1.321 . S
C1329 H1336 0.930 . S
C1330 C1325 1.395 . S
C1330 C1327 1.386 . S
C1330 H1349 0.930 . S
Eu1331 N1328 2.609 . S
Eu1331 N1332 2.657 . S
Eu1331 O1365 2.380 . S
Eu1331 O1366 2.432 . S
Eu1331 O1370 2.558 . S
Eu1331 O1371 2.612 . S
Eu1331 O1373 2.339 . S
Eu1331 O1374 2.563 . S
Eu1331 O1375 2.419 . S
Eu1331 C1395 2.848 . S
N1332 C1324 1.362 . S
N1332 Eu1331 2.657 . S
N1332 C1333 1.334 . S
C1333 N1332 1.334 . S
C1333 C1335 1.413 . S
C1333 H1340 0.929 . S
C1334 C1322 1.392 . S
C1334 C1335 1.367 . S
C1334 H1342 0.930 . S
C1335 C1333 1.413 . S
C1335 C1334 1.367 . S
C1335 H1337 0.930 . S
H1336 C1329 0.930 . S
H1337 C1335 0.930 . S
H1338 C1326 0.930 . S
H1339 C1327 0.930 . S
H1340 C1333 0.929 . S
H1341 C1355 0.930 . S
H1342 C1334 0.930 . S
H1343 C1361 0.930 . S
H1344 C1352 0.929 . S
H1345 C1359 0.930 . S
H1346 C1323 0.931 . S
H1347 C1353 0.930 . S
H1348 C1386 0.930 . S
H1349 C1330 0.930 . S
H1350 C1385 0.931 . S
N1351 Eu1320 2.657 . S
N1351 C1352 1.334 . S
N1351 C1356 1.362 . S
C1352 H1344 0.929 . S
C1352 N1351 1.334 . S
C1352 C1355 1.413 1_655 S
C1353 H1347 0.930 . S
C1353 C1354 1.392 . S
C1353 C1355 1.367 . S
C1354 C1353 1.392 . S
C1354 C1356 1.420 1_455 S
C1354 C1386 1.423 . S
C1355 H1341 0.930 . S
C1355 C1352 1.413 1_455 S
C1355 C1353 1.367 . S
C1356 N1351 1.362 . S
C1356 C1354 1.420 1_655 S
C1356 C1360 1.429 . S
H1357 C1362 0.930 . S
N1358 Eu1320 2.609 . S
N1358 C1360 1.377 . S
N1358 C1361 1.321 . S
C1359 H1345 0.930 . S
C1359 C1361 1.400 . S
C1359 C1362 1.386 . S
C1360 C1356 1.429 . S
C1360 N1358 1.377 . S
C1360 C1363 1.411 . S
C1361 H1343 0.930 . S
C1361 N1358 1.321 . S
C1361 C1359 1.400 . S
C1362 H1357 0.930 . S
C1362 C1359 1.386 . S
C1362 C1363 1.395 . S
C1363 C1360 1.411 . S
C1363 C1362 1.395 . S
C1363 C1385 1.420 1_655 S
O1364 Eu1320 2.558 . S
O1364 C1384 1.257 . S
O1365 Eu1320 2.612 . S
O1365 Eu1331 2.380 . S
O1365 C1376 1.276 . S
O1366 Eu1331 2.432 . S
O1366 C1383 1.264 . S
O1367 Eu1320 2.339 . S
O1367 C1383 1.254 . S
O1368 Eu1320 2.563 . S
O1368 C1376 1.235 . S
O1369 Eu1320 2.419 . S
O1369 C1384 1.249 . S
O1370 Eu1331 2.558 . S
O1370 C1395 1.257 . S
O1371 Eu1320 2.380 . S
O1371 Eu1331 2.612 . S
O1371 C1387 1.276 . S
O1372 Eu1320 2.432 . S
O1372 C1394 1.264 . S
O1373 Eu1331 2.339 . S
O1373 C1394 1.254 . S
O1374 Eu1331 2.563 . S
O1374 C1387 1.235 . S
O1375 Eu1331 2.419 . S
O1375 C1395 1.249 . S
C1376 O1365 1.276 . S
C1376 O1368 1.235 . S
C1377 C1379 1.393 . S
C1377 C1381 1.395 . S
C1377 C1384 1.492 . S
C1378 C1379 1.392 . S
C1378 C1380 1.386 . S
C1379 C1377 1.393 . S
C1379 C1378 1.392 . S
C1379 H1396 0.930 . S
C1380 C1378 1.386 . S
C1380 C1382 1.395 . S
C1380 H1397 0.930 . S
C1381 C1377 1.395 . S
C1381 C1382 1.379 . S
C1381 H1398 0.930 . S
C1382 C1380 1.395 . S
C1382 C1381 1.379 . S
C1382 H1399 0.930 . S
C1383 O1366 1.264 . S
C1383 O1367 1.254 . S
C1384 Eu1320 2.848 . S
C1384 O1364 1.257 . S
C1384 O1369 1.249 . S
C1384 C1377 1.492 . S
C1385 H1350 0.931 . S
C1385 C1363 1.420 1_455 S
C1385 C1386 1.351 . S
C1386 H1348 0.930 . S
C1386 C1354 1.423 . S
C1386 C1385 1.351 . S
C1387 O1371 1.276 . S
C1387 O1374 1.235 . S
C1388 C1389 1.393 . S
C1388 C1392 1.395 . S
C1388 C1395 1.492 . S
C1389 C1388 1.393 . S
C1389 C1390 1.392 . S
C1389 H1400 0.930 . S
C1390 C1389 1.392 . S
C1390 C1391 1.386 . S
C1391 C1390 1.386 . S
C1391 C1393 1.395 . S
C1391 H1401 0.930 . S
C1392 C1388 1.395 . S
C1392 C1393 1.379 . S
C1392 H1402 0.930 . S
C1393 C1391 1.395 . S
C1393 C1392 1.379 . S
C1393 H1403 0.930 . S
C1394 O1372 1.264 . S
C1394 O1373 1.254 . S
C1395 Eu1331 2.848 . S
C1395 O1370 1.257 . S
C1395 O1375 1.249 . S
C1395 C1388 1.492 . S
H1396 C1379 0.930 . S
H1397 C1380 0.930 . S
H1398 C1381 0.930 . S
H1399 C1382 0.930 . S
H1400 C1389 0.930 . S
H1401 C1391 0.930 . S
H1402 C1392 0.930 . S
H1403 C1393 0.930 . S
C469 C715 1.618 . S
C505 C799 1.576 . S
C433 C879 1.616 . S
C397 C795 1.486 . S
C883 C325 1.469 . S
C361 C711 1.539 . S
C704 C421 1.603 . S
C788 C349 1.551 . S
C385 C890 1.619 . S
C493 C806 1.488 . S
C529 C872 1.450 . S
C722 C457 1.548 . S
C967 C37 1.619 . S
C73 C1051 1.575 . S
C1 C1131 1.615 . S
C613 C1047 1.487 . S
C541 C1135 1.469 . S
C577 C963 1.539 . S
C637 C956 1.603 . S
C565 C1040 1.552 . S
C1142 C601 1.619 . S
C61 C1058 1.487 . S
C1124 C97 1.450 . S
C25 C974 1.547 . S
C1219 C253 1.619 . S
C289 C1303 1.576 . S
C1383 C217 1.616 . S
C1299 C181 1.487 . S
C1387 C109 1.470 . S
C145 C1215 1.538 . S
C205 C1208 1.603 . S
C133 C1292 1.551 . S
C1394 C169 1.618 . S
C277 C1310 1.488 . S
C313 C1376 1.450 . S
C241 C1226 1.548 . S
C571 C718 1.532 . S
C802 C607 1.368 . S
C643 C874 1.420 . S
C247 C790 1.383 . S
C283 C886 1.409 . S
C706 C319 1.546 . S
C139 C970 1.532 . S
C175 C1054 1.368 . S
C211 C1126 1.420 . S
C463 C1042 1.383 . S
C1138 C499 1.409 . S
C535 C958 1.546 . S
C355 C1222 1.532 . S
C391 C1306 1.367 . S
C1378 C427 1.420 . S
C31 C1294 1.383 . S
C67 C1390 1.409 . S
C103 C1210 1.546 . S
