# Generated by pormake.
# Topology zzz, (3,6)-cn, num edge types: 1
# Building blocks:
#     Node 0, Type 0, BuildingBlock: BETDAH_clean_linker_0, # of connection points: 3
#     Node 1, Type 0, BuildingBlock: BETDAH_clean_linker_0, # of connection points: 3
#     Node 2, Type 0, BuildingBlock: BETDAH_clean_linker_0, # of connection points: 3
#     Node 3, Type 0, BuildingBlock: BETDAH_clean_linker_0, # of connection points: 3
#     Node 4, Type 0, BuildingBlock: BETDAH_clean_linker_0, # of connection points: 3
#     Node 5, Type 0, BuildingBlock: BETDAH_clean_linker_0, # of connection points: 3
#     Node 6, Type 0, BuildingBlock: BETDAH_clean_linker_0, # of connection points: 3
#     Node 7, Type 0, BuildingBlock: BETDAH_clean_linker_0, # of connection points: 3
#     Node 8, Type 1, BuildingBlock: NUHQIS_clean_sbu_0, # of connection points: 6
#     Node 9, Type 1, BuildingBlock: NUHQIS_clean_sbu_0, # of connection points: 6
#     Node 10, Type 1, BuildingBlock: NUHQIS_clean_sbu_0, # of connection points: 6
#     Node 11, Type 1, BuildingBlock: NUHQIS_clean_sbu_0, # of connection points: 6
#     Edge 12, Type (0, 1), BuildingBlock: OJICUG_clean_linker_0, # of connection points: 2
#     Edge 13, Type (0, 1), BuildingBlock: OJICUG_clean_linker_0, # of connection points: 2
#     Edge 14, Type (0, 1), BuildingBlock: OJICUG_clean_linker_0, # of connection points: 2
#     Edge 15, Type (0, 1), BuildingBlock: OJICUG_clean_linker_0, # of connection points: 2
#     Edge 16, Type (0, 1), BuildingBlock: OJICUG_clean_linker_0, # of connection points: 2
#     Edge 17, Type (0, 1), BuildingBlock: OJICUG_clean_linker_0, # of connection points: 2
#     Edge 18, Type (0, 1), BuildingBlock: OJICUG_clean_linker_0, # of connection points: 2
#     Edge 19, Type (0, 1), BuildingBlock: OJICUG_clean_linker_0, # of connection points: 2
#     Edge 20, Type (0, 1), BuildingBlock: OJICUG_clean_linker_0, # of connection points: 2
#     Edge 21, Type (0, 1), BuildingBlock: OJICUG_clean_linker_0, # of connection points: 2
#     Edge 22, Type (0, 1), BuildingBlock: OJICUG_clean_linker_0, # of connection points: 2
#     Edge 23, Type (0, 1), BuildingBlock: OJICUG_clean_linker_0, # of connection points: 2
#     Edge 24, Type (0, 1), BuildingBlock: OJICUG_clean_linker_0, # of connection points: 2
#     Edge 25, Type (0, 1), BuildingBlock: OJICUG_clean_linker_0, # of connection points: 2
#     Edge 26, Type (0, 1), BuildingBlock: OJICUG_clean_linker_0, # of connection points: 2
#     Edge 27, Type (0, 1), BuildingBlock: OJICUG_clean_linker_0, # of connection points: 2
#     Edge 28, Type (0, 1), BuildingBlock: OJICUG_clean_linker_0, # of connection points: 2
#     Edge 29, Type (0, 1), BuildingBlock: OJICUG_clean_linker_0, # of connection points: 2
#     Edge 30, Type (0, 1), BuildingBlock: OJICUG_clean_linker_0, # of connection points: 2
#     Edge 31, Type (0, 1), BuildingBlock: OJICUG_clean_linker_0, # of connection points: 2
#     Edge 32, Type (0, 1), BuildingBlock: OJICUG_clean_linker_0, # of connection points: 2
#     Edge 33, Type (0, 1), BuildingBlock: OJICUG_clean_linker_0, # of connection points: 2
#     Edge 34, Type (0, 1), BuildingBlock: OJICUG_clean_linker_0, # of connection points: 2
#     Edge 35, Type (0, 1), BuildingBlock: OJICUG_clean_linker_0, # of connection points: 2
# Relax obj value: 0.346
# Max RMSD: 0.180
# Mean RMSD: 0.139
data_MOF--net-zzz--node1-NUHQIS_clean_sbu_0--node2-BETDAH_clean_linker_0--edge1-OJICUG_clean_linker_0
_symmetry_space_group_name_H-M    P1
_symmetry_Int_Tables_number       1
_symmetry_cell_setting            triclinic
loop_
_symmetry_equiv_pos_as_xyz
'x, y, z'
_cell_length_a     38.159541
_cell_length_b     38.167132
_cell_length_c     10.634685
_cell_angle_alpha  89.719549
_cell_angle_beta   89.878215
_cell_angle_gamma 89.983702
loop_
_atom_site_label
_atom_site_type_symbol
_atom_site_fract_x
_atom_site_fract_y
_atom_site_fract_z
_atom_type_partial_charge
H0 H 0.83972 0.45483 0.44865 0.0
H1 H 0.74161 0.47505 0.26564 0.0
H2 H 0.78239 0.54832 0.53757 0.0
C3 C 0.81622 0.47068 0.43985 0.0
C4 C 0.81423 0.50215 0.50629 0.0
C5 C 0.79046 0.46099 0.35256 0.0
C6 C 0.76095 0.48236 0.33511 0.0
C7 C 0.75722 0.5136 0.40382 0.0
C8 C 0.78444 0.52375 0.48756 0.0
N9 N 0.72716 0.53569 0.38785 0.0
C10 C 0.69869 0.52927 0.30726 0.0
H11 H 0.08357 0.83863 0.46246 0.0
H12 H 0.06657 0.74037 0.27677 0.0
H13 H 0.99009 0.78 0.54071 0.0
C14 C 0.06835 0.81478 0.45217 0.0
C15 C 0.03624 0.81231 0.51473 0.0
C16 C 0.07915 0.78936 0.36519 0.0
C17 C 0.05845 0.75946 0.34602 0.0
C18 C 0.02663 0.75518 0.41172 0.0
C19 C 1.01528 0.78222 0.49421 0.0
N20 N 1.00496 0.72499 0.3929 0.0
C21 C 1.01201 0.69691 0.31127 0.0
H22 H 0.70197 0.08421 0.44201 0.0
H23 H 0.79983 0.06289 0.25812 0.0
H24 H 0.75876 0.99059 0.53598 0.0
C25 C 0.72538 0.06821 0.43381 0.0
C26 C 0.72722 0.03689 0.50224 0.0
C27 C 0.75114 0.07751 0.34529 0.0
C28 C 0.78049 0.0559 0.3286 0.0
C29 C 0.78405 0.02481 0.39942 0.0
C30 C 0.75684 1.01506 0.4844 0.0
N31 N 0.81393 1.00248 0.38436 0.0
C32 C 0.84223 1.00854 0.30222 0.0
H33 H 0.45648 0.70215 0.44762 0.0
H34 H 0.47647 0.80079 0.26593 0.0
H35 H 0.54919 0.75999 0.54153 0.0
C36 C 0.47215 0.7258 0.43964 0.0
C37 C 0.50339 0.72792 0.50761 0.0
C38 C 0.46252 0.75166 0.35196 0.0
C39 C 0.48372 0.78135 0.33569 0.0
C40 C 0.51471 0.78515 0.40613 0.0
C41 C 0.5248 0.75787 0.49024 0.0
N42 N 0.53663 0.81534 0.39158 0.0
C43 C 0.53025 0.84378 0.31033 0.0
H44 H 0.20374 0.58362 0.152 0.0
H45 H 0.30049 0.56535 0.34772 0.0
H46 H 0.25942 0.48742 0.09399 0.0
C47 C 0.22699 0.56773 0.16673 0.0
C48 C 0.22865 0.53488 0.10987 0.0
C49 C 0.25238 0.57865 0.25363 0.0
C50 C 0.28145 0.55714 0.27846 0.0
C51 C 0.28488 0.52448 0.21853 0.0
C52 C 0.25785 0.51315 0.13614 0.0
N53 N 0.31417 0.50198 0.24316 0.0
C54 C 0.34239 0.50924 0.32386 0.0
H55 H 0.95536 0.20342 0.16843 0.0
H56 H 0.97707 0.29984 0.35893 0.0
H57 H 0.05244 0.25688 0.09728 0.0
C58 C 0.97205 0.22616 0.18083 0.0
C59 C 1.00451 0.22698 0.11956 0.0
C60 C 0.96221 0.252 0.26761 0.0
C61 C 0.98453 0.28047 0.28973 0.0
C62 C 1.0169 0.28307 0.22651 0.0
C63 C 0.0271 0.25571 0.14322 0.0
N64 N 0.03997 0.31208 0.24784 0.0
C65 C 0.03334 0.34066 0.32771 0.0
H66 H 0.33787 0.95704 0.15131 0.0
H67 H 0.23981 0.97452 0.34028 0.0
H68 H 0.28065 0.05176 0.07996 0.0
C69 C 0.31426 0.97257 0.16328 0.0
C70 C 0.31225 1.00505 0.10279 0.0
C71 C 0.28862 0.96164 0.24991 0.0
C72 C 0.25906 0.98273 0.27117 0.0
C73 C 0.25532 1.01496 0.20745 0.0
C74 C 0.28251 0.02633 0.12508 0.0
N75 N 0.22551 0.03703 0.22796 0.0
C76 C 0.19715 0.02988 0.30877 0.0
H77 H 0.58319 0.33777 0.15094 0.0
H78 H 0.56442 0.24052 0.34485 0.0
H79 H 0.48768 0.28171 0.08482 0.0
C80 C 0.56737 0.3144 0.1643 0.0
C81 C 0.53485 0.31266 0.10487 0.0
C82 C 0.57797 0.28888 0.25194 0.0
C83 C 0.55649 0.25967 0.27498 0.0
C84 C 0.5242 0.2562 0.2122 0.0
C85 C 0.51317 0.28331 0.12905 0.0
N86 N 0.50172 0.22678 0.23458 0.0
C87 C 0.50867 0.1985 0.31596 0.0
Tb88 Tb 0.04506 1.01104 0.91245 0.0
Eu89 Eu 0.99153 0.03175 0.68439 0.0
C90 C 0.07479 0.02329 0.6364 0.0
C91 C 0.02024 0.09075 0.87836 0.0
C92 C 0.11199 0.96316 0.09026 0.0
C93 C 0.13549 0.91817 0.22692 0.0
C94 C 0.12236 0.95195 0.20975 0.0
C95 C 0.11844 0.94172 0.98579 0.0
C96 C 0.13172 0.90789 1.00273 0.0
C97 C 0.13808 0.89486 0.12461 0.0
C98 C 0.08882 0.99363 0.07886 0.0
O99 O 0.99483 1.01949 0.01046 0.0
O100 O 0.95655 1.01535 0.84527 0.0
O101 O 1.00467 0.97494 0.6474 0.0
O102 O 0.02852 0.95964 0.83872 0.0
C103 C 0.96267 1.01661 0.9665 0.0
O104 O 0.94031 0.02717 0.59425 0.0
O105 O 0.98015 0.0603 0.51146 0.0
O106 O 0.04631 0.0409 0.60702 0.0
O107 O 0.07627 1.0048 0.74079 0.0
O108 O 0.04518 0.06883 0.91322 0.0
O109 O 0.99467 0.08053 0.8043 0.0
C110 C 1.01633 0.95106 0.72665 0.0
O111 O 0.09576 1.01554 0.98782 0.0
O112 O 0.05554 0.98616 0.0844 0.0
C113 C 0.92275 0.0809 0.50403 0.0
C114 C 0.8958 0.14921 0.48317 0.0
C115 C 0.89964 0.12793 0.37578 0.0
C116 C 0.91329 0.09416 0.38627 0.0
C117 C 0.91456 0.10001 0.6127 0.0
C118 C 0.90085 0.13388 0.60239 0.0
C119 C 0.94721 0.05134 0.51096 0.0
H120 H 0.13975 0.90931 0.32254 0.0
H121 H 0.11737 0.96809 0.29139 0.0
H122 H 0.11058 0.95002 0.89244 0.0
H123 H 0.13392 0.89093 0.92173 0.0
H124 H 0.89631 0.13856 0.28199 0.0
H125 H 0.91958 0.07987 0.30142 0.0
H126 H 0.92164 0.09005 0.70481 0.0
H127 H 0.89764 0.14925 0.68699 0.0
Tb128 Tb 0.53032 0.04606 0.92041 0.0
Eu129 Eu 0.5104 0.99242 0.69318 0.0
C130 C 0.51707 0.07605 0.64275 0.0
C131 C 0.45035 0.02335 0.88172 0.0
C132 C 0.57904 0.11259 0.09488 0.0
C133 C 0.63259 0.13356 0.99612 0.0
C134 C 0.5986 0.12014 0.98604 0.0
C135 C 0.59203 0.1224 0.21224 0.0
C136 C 0.62578 0.136 0.22243 0.0
C137 C 0.64743 0.13928 0.11526 0.0
C138 C 0.54938 0.08824 0.08927 0.0
O139 O 0.53921 0.99309 0.9977 0.0
O140 O 0.50246 0.96167 0.87245 0.0
O141 O 0.56989 0.99218 0.70119 0.0
O142 O 0.57806 0.04393 0.80529 0.0
C143 C 0.52117 0.96437 0.97502 0.0
O144 O 0.51418 0.93971 0.61522 0.0
O145 O 0.48609 0.98021 0.51358 0.0
O146 O 0.51971 0.04446 0.59461 0.0
O147 O 0.51542 0.08087 0.76508 0.0
O148 O 0.47512 0.034 0.95898 0.0
O149 O 0.45785 1.011 0.76919 0.0
C150 C 0.59034 1.01805 0.73653 0.0
O151 O 0.52505 0.09525 0.00743 0.0
O152 O 0.55843 0.0554 0.08592 0.0
C153 C 0.46215 0.92404 0.5104 0.0
C154 C 0.39343 0.89911 0.47798 0.0
C155 C 0.407 0.90395 0.59958 0.0
C156 C 0.44106 0.91664 0.61562 0.0
C157 C 0.45031 0.91522 0.39047 0.0
C158 C 0.41632 0.90263 0.37423 0.0
C159 C 0.49289 0.94679 0.52268 0.0
H160 H 0.64835 0.13616 0.91176 0.0
H161 H 0.58888 0.11278 0.89425 0.0
H162 H 0.57755 0.11641 0.29729 0.0
H163 H 0.63614 0.13974 0.31612 0.0
H164 H 0.39032 0.90106 0.68149 0.0
H165 H 0.44981 0.92335 0.70933 0.0
H166 H 0.4661 0.92108 0.30828 0.0
H167 H 0.40699 0.89958 0.27885 0.0
Tb168 Tb 0.49554 0.53085 0.92467 0.0
Eu169 Eu 0.54889 0.51101 0.69515 0.0
C170 C 0.46507 0.51792 0.64768 0.0
C171 C 0.51773 0.45087 0.88408 0.0
C172 C 0.4292 0.57944 0.10181 0.0
C173 C 0.40784 0.63291 1.00356 0.0
C174 C 0.42148 0.59902 0.99316 0.0
C175 C 0.41936 0.5923 0.21944 0.0
C176 C 0.40551 0.62595 0.22996 0.0
C177 C 0.402 0.64762 0.12284 0.0
C178 C 0.4537 0.5499 0.09551 0.0
O179 O 0.54868 0.53921 1.00058 0.0
O180 O 0.57997 0.50281 0.87308 0.0
O181 O 0.54906 0.5705 0.70261 0.0
O182 O 0.49756 0.57863 0.80971 0.0
C183 C 0.57741 0.52124 0.97629 0.0
O184 O 0.60157 0.51456 0.61533 0.0
O185 O 0.56082 0.48692 0.51485 0.0
O186 O 0.49667 0.52008 0.59835 0.0
O187 O 0.46031 0.51673 0.77031 0.0
O188 O 0.5072 0.47554 0.9619 0.0
O189 O 0.53022 0.45847 0.77148 0.0
C190 C 0.52328 0.59093 0.73954 0.0
O191 O 0.44661 0.52543 0.01474 0.0
O192 O 0.48648 0.55913 0.08994 0.0
C193 C 0.61679 0.46249 0.50996 0.0
C194 C 0.64106 0.39354 0.47713 0.0
C195 C 0.6376 0.41646 0.37332 0.0
C196 C 0.62533 0.45056 0.38976 0.0
C197 C 0.62412 0.44131 0.61505 0.0
C198 C 0.63647 0.40714 0.59879 0.0
C199 C 0.5943 0.49343 0.52294 0.0
H200 H 0.4051 0.64872 0.91927 0.0
H201 H 0.42887 0.58939 0.90117 0.0
H202 H 0.42551 0.57783 0.30434 0.0
H203 H 0.40172 0.63622 0.32374 0.0
H204 H 0.64045 0.4071 0.27791 0.0
H205 H 0.6195 0.46641 0.30766 0.0
H206 H 0.6176 0.45011 0.70896 0.0
H207 H 0.6393 0.39042 0.68072 0.0
Tb208 Tb 1.01081 0.49433 0.92601 0.0
Eu209 Eu 0.03102 0.54767 0.69612 0.0
C210 C 0.02451 0.46373 0.64952 0.0
C211 C 0.09091 0.5171 0.88685 0.0
C212 C 0.96255 0.42741 0.1037 0.0
C213 C 0.91609 0.40323 0.23225 0.0
C214 C 0.94964 0.41736 0.22144 0.0
C215 C 0.94324 0.4195 0.99519 0.0
C216 C 0.90947 0.40552 1.00588 0.0
C217 C 0.89459 0.39963 0.12529 0.0
C218 C 0.99171 0.45235 0.0972 0.0
O219 O 1.00257 0.54736 1.00289 0.0
O220 O 0.03834 0.57915 0.87328 0.0
O221 O 0.97148 0.54755 0.70221 0.0
O222 O 0.96307 0.49632 0.81128 0.0
C223 C 1.02018 0.57629 0.97755 0.0
O224 O 0.02693 0.60012 0.61442 0.0
O225 O 0.05578 0.55968 0.51633 0.0
O226 O 0.02256 0.49533 0.59979 0.0
O227 O 0.02528 0.45902 0.77223 0.0
O228 O 0.06604 0.50609 0.96376 0.0
O229 O 0.08358 0.52978 0.77429 0.0
C230 C 0.95094 0.52184 0.73974 0.0
O231 O 1.01657 0.44553 0.01706 0.0
O232 O 0.98197 0.48497 0.09059 0.0
C233 C 0.07896 0.61617 0.50893 0.0
C234 C 0.1474 0.64194 0.47525 0.0
C235 C 0.12482 0.63762 0.37149 0.0
C236 C 0.09099 0.62461 0.38837 0.0
C237 C 0.09966 0.62441 0.61376 0.0
C238 C 0.13357 0.63752 0.59705 0.0
C239 C 0.04852 0.59303 0.52274 0.0
H240 H 0.90573 0.39935 0.32614 0.0
H241 H 0.96395 0.4236 0.30621 0.0
H242 H 0.95292 0.42703 0.90311 0.0
H243 H 0.89383 0.40267 0.92166 0.0
H244 H 0.13435 0.64035 0.27598 0.0
H245 H 0.0755 0.61812 0.30648 0.0
H246 H 0.09076 0.61802 0.70795 0.0
H247 H 0.15001 0.64102 0.67893 0.0
C248 C 0.16693 1.00762 0.50209 0.0
C249 C 0.16603 0.0267 0.38893 0.0
H250 H 0.13913 0.99145 0.66839 0.0
C251 C 0.13483 0.04399 0.35592 0.0
H252 H 0.19065 0.99407 0.52999 0.0
C253 C 0.10523 0.04264 0.43507 0.0
C254 C 0.10603 0.02396 0.54975 0.0
H255 H 0.13339 0.05889 0.26908 0.0
H256 H 0.08178 0.05652 0.40657 0.0
C257 C 0.13732 1.00621 0.5814 0.0
C258 C 0.50644 0.1339 0.34938 0.0
C259 C 0.51219 0.16766 0.39732 0.0
H260 H 0.50396 0.07858 0.38757 0.0
C261 C 0.5197 0.17118 0.52576 0.0
H262 H 0.50024 0.13049 0.25086 0.0
C263 C 0.52129 0.14154 0.60489 0.0
C264 C 0.51568 0.10752 0.55737 0.0
H265 H 0.524 0.19692 0.56541 0.0
H266 H 0.52703 0.14533 0.70359 0.0
C267 C 0.50851 0.10416 0.42799 0.0
C268 C 0.40706 0.50695 0.35601 0.0
C269 C 0.37329 0.51289 0.40448 0.0
H270 H 0.46239 0.50434 0.39291 0.0
C271 C 0.36982 0.52065 0.53281 0.0
H272 H 0.41047 0.50055 0.25762 0.0
C273 C 0.3995 0.52231 0.6112 0.0
C274 C 0.43352 0.5165 0.56311 0.0
H275 H 0.34409 0.52509 0.573 0.0
H276 H 0.39572 0.52825 0.70979 0.0
C277 C 0.43682 0.50906 0.43387 0.0
C278 C 0.02253 0.3683 0.53682 0.0
C279 C 0.02984 0.37167 0.40787 0.0
H280 H 1.01521 0.3943 0.71366 0.0
C281 C 0.03523 0.40546 0.35823 0.0
H282 H 1.01846 0.34259 0.57794 0.0
C283 C 0.03309 0.4353 0.43557 0.0
C284 C 0.02609 0.43209 0.56543 0.0
H285 H 0.04121 0.40883 0.25929 0.0
H286 H 0.03737 0.46086 0.39367 0.0
C287 C 0.0208 0.39805 0.61462 0.0
C288 C 0.86852 0.0203 0.09153 0.0
C289 C 0.87271 1.01182 0.21909 0.0
H290 H 0.89329 0.02835 0.91243 0.0
C291 C 0.90669 1.00516 0.26419 0.0
H292 H 0.84262 0.02538 0.05404 0.0
C293 C 0.936 1.00729 0.18356 0.0
C294 C 0.93191 1.01534 0.05495 0.0
H295 H 0.91059 0.99811 0.36192 0.0
H296 H 0.96178 1.002 0.22161 0.0
C297 C 0.89766 0.02188 0.01042 0.0
C298 C 0.50689 0.87305 0.11783 0.0
C299 C 0.52678 0.87451 0.22846 0.0
H300 H 0.48937 0.89998 0.95196 0.0
C301 C 0.5442 0.90589 0.25747 0.0
H302 H 0.4932 0.8492 0.09313 0.0
C303 C 0.54215 0.93515 0.17657 0.0
C304 C 0.52261 0.93374 0.06435 0.0
H305 H 0.55968 0.90774 0.34248 0.0
H306 H 0.55613 0.95879 0.20165 0.0
C307 C 0.50477 0.90226 0.03694 0.0
C308 C 0.63651 0.54365 0.25659 0.0
C309 C 0.66779 0.52604 0.22645 0.0
H310 H 0.58359 0.55597 0.20293 0.0
C311 C 0.66895 0.50625 0.11564 0.0
H312 H 0.63485 0.55906 0.34167 0.0
C313 C 0.63959 0.50441 0.03587 0.0
C314 C 0.60822 0.52241 0.0645 0.0
H315 H 0.69269 0.49242 0.08994 0.0
H316 H 0.64169 0.48907 0.95078 0.0
C317 C 0.60711 0.54186 0.17684 0.0
C318 C 0.99809 0.6347 0.26027 0.0
C319 C 1.01536 0.66618 0.22969 0.0
H320 H 0.98604 0.58181 0.20644 0.0
C321 C 0.0348 0.66772 0.1176 0.0
H322 H 0.98293 0.63273 0.34625 0.0
C323 C 0.03663 0.63855 0.0371 0.0
C324 C 1.01897 0.60697 0.06625 0.0
H325 H 0.04836 0.69162 0.09146 0.0
H326 H 0.0517 0.64094 0.95108 0.0
C327 C 0.99988 0.60549 0.17985 0.0
C328 C 0.94079 0.23443 0.47646 0.0
C329 C 0.93257 0.24374 0.35232 0.0
H330 H 0.93434 0.19603 0.6199 0.0
C331 C 0.90117 0.23133 0.30006 0.0
H332 H 0.9645 0.24417 0.52003 0.0
C333 C 0.88342 0.20357 0.35798 0.0
C334 C 0.89748 0.18795 0.46688 0.0
H335 H 0.89381 0.23885 0.20535 0.0
H336 H 0.86243 0.19089 0.30705 0.0
C337 C 0.92332 0.20647 0.53378 0.0
C338 C 0.30662 0.94188 0.46018 0.0
C339 C 0.29824 0.93278 0.33628 0.0
H340 H 0.34447 0.93755 0.6058 0.0
C341 C 0.31256 0.90195 0.28588 0.0
H342 H 0.29554 0.96523 0.50214 0.0
C343 C 0.34082 0.88569 0.34581 0.0
C344 C 0.35495 0.90048 0.4555 0.0
H345 H 0.3059 0.89397 0.19125 0.0
H346 H 0.3547 0.86508 0.29674 0.0
C347 C 0.33505 0.92589 0.51963 0.0
C348 C 0.59771 0.30701 0.46148 0.0
C349 C 0.60684 0.29846 0.33758 0.0
H350 H 0.6022 0.34494 0.60626 0.0
C351 C 0.63777 0.31258 0.28629 0.0
H352 H 0.57429 0.2961 0.50414 0.0
C353 C 0.65412 0.34082 0.34526 0.0
C354 C 0.63938 0.35509 0.45504 0.0
H355 H 0.64577 0.30579 0.19167 0.0
H356 H 0.67481 0.35455 0.29548 0.0
C357 C 0.61383 0.33539 0.52003 0.0
C358 C 0.22853 0.63858 0.28403 0.0
C359 C 0.24276 0.60796 0.33728 0.0
H360 H 0.18633 0.67542 0.2913 0.0
C361 C 0.23432 0.59951 0.46218 0.0
H362 H 0.23529 0.64611 0.18864 0.0
C363 C 0.20584 0.61579 0.52013 0.0
C364 C 0.18594 0.6408 0.45346 0.0
H365 H 0.24537 0.57639 0.50648 0.0
H366 H 0.19636 0.60455 0.60748 0.0
C367 C 0.2002 0.65511 0.34243 0.0
C368 C 0.09696 0.80737 0.15235 0.0
C369 C 0.10713 0.79956 0.27596 0.0
H370 H 0.09948 0.84475 1.0039 0.0
C371 C 0.13801 0.81466 0.32285 0.0
H372 H 0.07356 0.79568 0.11303 0.0
C373 C 0.1533 0.84298 0.2596 0.0
C374 C 0.13745 0.85646 0.15024 0.0
H375 H 0.14682 0.80844 0.41715 0.0
H376 H 0.17404 0.85734 0.30586 0.0
C377 C 0.11195 0.83588 0.0897 0.0
C378 C 0.72908 0.13742 0.3004 0.0
C379 C 0.74216 0.10552 0.25452 0.0
H380 H 0.68801 0.17535 0.28565 0.0
C381 C 0.73308 0.09517 0.13254 0.0
H382 H 0.73631 0.14632 0.39341 0.0
C383 C 0.70499 0.11137 0.07169 0.0
C384 C 0.68608 0.13806 0.13286 0.0
H385 H 0.74325 0.07097 0.09403 0.0
H386 H 0.6948 0.09896 0.98802 0.0
C387 C 0.70117 0.15386 0.23902 0.0
C388 C 0.40287 0.72912 0.30791 0.0
C389 C 0.43468 0.74255 0.26156 0.0
H390 H 0.36537 0.6877 0.29371 0.0
C391 C 0.44523 0.73367 0.13943 0.0
H392 H 0.39383 0.73618 0.40106 0.0
C393 C 0.42937 0.70546 0.07883 0.0
C394 C 0.40282 0.68626 0.14038 0.0
H395 H 0.46937 0.7441 0.10061 0.0
H396 H 0.44196 0.69545 0.995 0.0
C397 C 0.38677 0.70111 0.24676 0.0
C398 C 0.80854 0.44295 0.14067 0.0
C399 C 0.79957 0.43282 0.26348 0.0
H400 H 0.84684 0.43918 0.99583 0.0
C401 C 0.81288 0.40111 0.31111 0.0
H402 H 0.79818 0.467 0.10081 0.0
C403 C 0.84091 0.38475 0.25028 0.0
C404 C 0.8559 0.40047 0.14301 0.0
H405 H 0.80573 0.39236 0.40479 0.0
H406 H 0.85423 0.36345 0.29801 0.0
C407 C 0.83675 0.42685 0.08041 0.0
C408 C 0.99036 0.18467 0.94562 0.0
C409 C 1.01384 0.19586 0.03937 0.0
H410 H 0.97394 0.14372 0.82184 0.0
C411 C 0.04153 0.17317 0.07205 0.0
H412 H 0.96847 0.20119 0.919 0.0
C413 C 0.04451 0.13962 0.01704 0.0
C414 C 1.01987 0.1278 0.92767 0.0
H415 H 0.05963 0.18049 0.14567 0.0
H416 H 0.06534 0.12243 0.04839 0.0
C417 C 0.99336 0.15139 0.89055 0.0
C418 C 0.36876 0.03868 0.08546 0.0
C419 C 0.34383 1.0166 0.0294 0.0
H420 H 0.42164 0.05804 0.08408 0.0
C421 C 0.35343 0.99893 0.91858 0.0
H422 H 0.36261 0.05179 0.17288 0.0
C423 C 0.38731 1.00247 0.86714 0.0
C424 C 0.41293 0.02315 0.92683 0.0
H425 H 0.33522 0.98092 0.87516 0.0
H426 H 0.39393 0.9875 0.78414 0.0
C427 C 0.40283 0.04182 0.03525 0.0
C428 C 0.54177 0.35392 0.92086 0.0
C429 C 0.52359 0.34426 0.03111 0.0
H430 H 0.55388 0.39454 0.78703 0.0
C431 C 0.50125 0.36913 0.08646 0.0
H432 H 0.55996 0.33573 0.87799 0.0
C433 C 0.4984 0.40324 0.03636 0.0
C434 C 0.51761 0.41341 0.9287 0.0
H435 H 0.48772 0.3629 0.1734 0.0
H436 H 0.48198 0.42203 0.08471 0.0
C437 C 0.53851 0.38784 0.86947 0.0
C438 C 0.17217 0.50117 0.09142 0.0
C439 C 0.19717 0.52354 0.0361 0.0
H440 H 0.11933 0.4817 0.08907 0.0
C441 C 0.18772 0.54162 0.92539 0.0
H442 H 0.17816 0.48771 0.17868 0.0
C443 C 0.15396 0.5382 0.87346 0.0
C444 C 0.12826 0.51724 0.93248 0.0
H445 H 0.20599 0.55983 0.88239 0.0
H446 H 0.14748 0.55348 0.7906 0.0
C447 C 0.1382 0.49816 0.04074 0.0
C448 C 1.00127 0.86803 0.53194 0.0
C449 C 0.02453 0.84391 0.58728 0.0
H450 H 0.98057 0.92039 0.53115 0.0
C451 C 0.04299 0.85451 0.69531 0.0
H452 H 0.9875 0.86118 0.44657 0.0
C453 C 0.03903 0.88855 0.74451 0.0
C454 C 1.01715 0.91336 0.68513 0.0
H455 H 0.06188 0.83697 0.73813 0.0
H456 H 0.05459 0.89595 0.82522 0.0
C457 C 0.99774 0.90224 0.57971 0.0
C458 C 0.67531 0.99797 0.55525 0.0
C459 C 0.6961 0.02741 0.58257 0.0
H460 H 0.62581 0.97185 0.58103 0.0
C461 C 0.68297 0.05183 0.66982 0.0
H462 H 0.68422 0.97903 0.48673 0.0
C463 C 0.64948 0.04794 0.72332 0.0
C464 C 0.62771 1.0196 0.69073 0.0
H465 H 0.69807 0.07501 0.6922 0.0
H466 H 0.64018 0.06804 0.78671 0.0
C467 C 0.64157 0.99412 0.60846 0.0
C468 C 0.48915 0.68355 0.67595 0.0
C469 C 0.51325 0.6968 0.58717 0.0
H470 H 0.47342 0.64062 0.79363 0.0
C471 C 0.54265 0.6761 0.55759 0.0
H472 H 0.46601 0.69858 0.69994 0.0
C473 C 0.54675 0.64231 0.61025 0.0
C474 C 0.52157 0.62834 0.69416 0.0
H475 H 0.56132 0.68513 0.48777 0.0
H476 H 0.56894 0.62661 0.58114 0.0
C477 C 0.4933 0.65002 0.72893 0.0
C478 C 0.85837 0.48776 0.6749 0.0
C479 C 0.84532 0.5119 0.58582 0.0
H480 H 0.90102 0.47194 0.79316 0.0
C481 C 0.86617 0.54124 0.55623 0.0
H482 H 0.84325 0.46465 0.69902 0.0
C483 C 0.89986 0.54527 0.60924 0.0
C484 C 0.91362 0.52009 0.69362 0.0
H485 H 0.85736 0.55995 0.48624 0.0
H486 H 0.91565 0.56745 0.58013 0.0
C487 C 0.8918 0.49184 0.72822 0.0
loop_
_geom_bond_atom_site_label_1
_geom_bond_atom_site_label_2
_geom_bond_distance
_geom_bond_site_symmetry_2
_ccdc_geom_bond_type
H0 C3 0.929 . S
H1 C6 0.929 . S
H2 C8 0.930 . S
C3 H0 0.929 . S
C3 C4 1.398 . S
C3 C5 1.396 . S
C4 C3 1.398 . S
C4 C8 1.407 . S
C5 C3 1.396 . S
C5 C6 1.394 . S
C6 H1 0.929 . S
C6 C5 1.394 . S
C6 C7 1.382 . S
C7 C6 1.382 . S
C7 C8 1.392 . S
C7 N9 1.420 . S
C8 H2 0.930 . S
C8 C4 1.407 . S
C8 C7 1.392 . S
N9 C7 1.420 . S
N9 C10 1.244 . S
C10 N9 1.244 . S
H11 C14 0.929 . S
H12 C17 0.929 . S
H13 C19 0.930 . S
C14 H11 0.929 . S
C14 C15 1.395 1_655 S
C14 C16 1.394 1_655 S
C15 C14 1.395 1_455 S
C15 C19 1.414 . S
C16 C14 1.394 1_455 S
C16 C17 1.397 . S
C17 H12 0.929 . S
C17 C16 1.397 . S
C17 C18 1.382 . S
C18 C17 1.382 . S
C18 C19 1.392 . S
C18 N20 1.420 . S
C19 H13 0.930 . S
C19 C15 1.414 . S
C19 C18 1.392 . S
N20 C18 1.420 . S
N20 C21 1.232 1_455 S
C21 N20 1.232 1_655 S
H22 C25 0.929 . S
H23 C28 0.929 . S
H24 C30 0.930 . S
C25 H22 0.929 . S
C25 C26 1.395 1_565 S
C25 C27 1.395 1_565 S
C26 C25 1.395 1_545 S
C26 C30 1.414 . S
C27 C25 1.395 1_545 S
C27 C28 1.397 . S
C28 H23 0.929 . S
C28 C27 1.397 . S
C28 C29 1.382 . S
C29 C28 1.382 . S
C29 C30 1.392 . S
C29 N31 1.420 . S
C30 H24 0.930 . S
C30 C26 1.414 . S
C30 C29 1.392 . S
N31 C29 1.420 . S
N31 C32 1.231 1_545 S
C32 N31 1.231 1_565 S
H33 C36 0.929 . S
H34 C39 0.929 . S
H35 C41 0.930 . S
C36 H33 0.929 . S
C36 C37 1.398 . S
C36 C38 1.396 . S
C37 C36 1.398 . S
C37 C41 1.407 . S
C38 C36 1.396 . S
C38 C39 1.394 . S
C39 H34 0.929 . S
C39 C38 1.394 . S
C39 C40 1.382 . S
C40 C39 1.382 . S
C40 C41 1.392 . S
C40 N42 1.420 . S
C41 H35 0.930 . S
C41 C37 1.407 . S
C41 C40 1.392 . S
N42 C40 1.420 . S
N42 C43 1.244 . S
C43 N42 1.244 . S
H44 C47 0.929 . S
H45 C50 0.929 . S
H46 C52 0.930 . S
C47 H44 0.929 . S
C47 C48 1.398 1_554 S
C47 C49 1.396 . S
C48 C47 1.398 1_556 S
C48 C52 1.407 . S
C49 C47 1.396 . S
C49 C50 1.394 . S
C50 H45 0.929 . S
C50 C49 1.394 . S
C50 C51 1.382 . S
C51 C50 1.382 . S
C51 C52 1.392 1_554 S
C51 N53 1.420 . S
C52 H46 0.930 . S
C52 C48 1.407 . S
C52 C51 1.392 1_556 S
N53 C51 1.420 . S
N53 C54 1.244 . S
C54 N53 1.244 . S
H55 C58 0.929 . S
H56 C61 0.929 . S
H57 C63 0.930 . S
C58 H55 0.929 . S
C58 C59 1.398 1_654 S
C58 C60 1.394 1_655 S
C59 C58 1.398 1_456 S
C59 C63 1.407 . S
C60 C58 1.394 1_455 S
C60 C61 1.398 . S
C61 H56 0.929 . S
C61 C60 1.398 . S
C61 C62 1.382 . S
C62 C61 1.382 . S
C62 C63 1.392 1_554 S
C62 N64 1.420 . S
C63 H57 0.930 . S
C63 C59 1.407 . S
C63 C62 1.392 1_556 S
N64 C62 1.420 . S
N64 C65 1.235 1_455 S
C65 N64 1.235 1_655 S
H66 C69 0.929 . S
H67 C72 0.929 . S
H68 C74 0.930 . S
C69 H66 0.929 . S
C69 C70 1.398 1_564 S
C69 C71 1.393 1_565 S
C70 C69 1.398 1_546 S
C70 C74 1.407 . S
C71 C69 1.393 1_545 S
C71 C72 1.398 . S
C72 H67 0.929 . S
C72 C71 1.398 . S
C72 C73 1.382 . S
C73 C72 1.382 . S
C73 C74 1.392 1_554 S
C73 N75 1.420 . S
C74 H68 0.930 . S
C74 C70 1.407 . S
C74 C73 1.392 1_556 S
N75 C73 1.420 . S
N75 C76 1.235 1_545 S
C76 N75 1.235 1_565 S
H77 C80 0.929 . S
H78 C83 0.929 . S
H79 C85 0.930 . S
C80 H77 0.929 . S
C80 C81 1.398 1_554 S
C80 C82 1.396 . S
C81 C80 1.398 1_556 S
C81 C85 1.407 . S
C82 C80 1.396 . S
C82 C83 1.394 . S
C83 H78 0.929 . S
C83 C82 1.394 . S
C83 C84 1.382 . S
C84 C83 1.382 . S
C84 C85 1.392 1_554 S
C84 N86 1.420 . S
C85 H79 0.930 . S
C85 C81 1.407 . S
C85 C84 1.392 1_556 S
N86 C84 1.420 . S
N86 C87 1.244 . S
C87 N86 1.244 . S
Tb88 C98 2.825 1_556 S
Tb88 O99 2.347 1_455 S
Tb88 O102 2.366 . S
Tb88 O107 2.418 . S
Tb88 O108 2.384 1_565 S
Tb88 O111 2.479 1_556 S
Tb88 O112 2.471 1_556 S
Eu89 O100 2.418 . S
Eu89 O101 2.384 1_545 S
Eu89 O104 2.479 . S
Eu89 O105 2.471 . S
Eu89 O106 2.347 1_655 S
Eu89 O109 2.366 . S
Eu89 C119 2.825 . S
C90 O106 1.259 1_565 S
C90 O107 1.265 . S
C91 O108 1.255 . S
C91 O109 1.265 1_455 S
C92 C94 1.380 . S
C92 C95 1.374 . S
C92 C98 1.507 . S
C93 C94 1.384 . S
C93 C97 1.387 . S
C93 H120 0.930 . S
C94 C92 1.380 . S
C94 C93 1.384 . S
C94 H121 0.931 . S
C95 C92 1.374 . S
C95 C96 1.390 . S
C95 H122 0.930 1_455 S
C96 C95 1.390 . S
C96 C97 1.391 . S
C96 H123 0.930 1_455 S
C97 C93 1.387 . S
C97 C96 1.391 . S
C98 Tb88 2.825 1_554 S
C98 C92 1.507 . S
C98 O111 1.238 . S
C98 O112 1.247 . S
O99 Tb88 2.347 1_655 S
O99 C103 1.259 1_565 S
O100 Eu89 2.418 . S
O100 C103 1.265 . S
O101 Eu89 2.384 1_565 S
O101 C110 1.255 . S
O102 Tb88 2.366 . S
O102 C110 1.265 1_455 S
C103 O99 1.259 1_545 S
C103 O100 1.265 . S
O104 Eu89 2.479 . S
O104 C119 1.238 . S
O105 Eu89 2.471 . S
O105 C119 1.247 . S
O106 Eu89 2.347 1_455 S
O106 C90 1.259 1_545 S
O107 Tb88 2.418 . S
O107 C90 1.265 . S
O108 Tb88 2.384 1_545 S
O108 C91 1.255 . S
O109 Eu89 2.366 . S
O109 C91 1.265 1_655 S
C110 O101 1.255 . S
C110 O102 1.265 1_655 S
O111 Tb88 2.479 1_554 S
O111 C98 1.238 . S
O112 Tb88 2.471 1_554 S
O112 C98 1.247 . S
C113 C116 1.380 . S
C113 C117 1.374 . S
C113 C119 1.507 . S
C114 C115 1.387 . S
C114 C118 1.391 . S
C115 C114 1.387 . S
C115 C116 1.384 . S
C115 H124 0.930 . S
C116 C113 1.380 . S
C116 C115 1.384 . S
C116 H125 0.931 . S
C117 C113 1.374 . S
C117 C118 1.390 . S
C117 H126 0.930 1_655 S
C118 C114 1.391 . S
C118 C117 1.390 . S
C118 H127 0.930 1_655 S
C119 Eu89 2.825 . S
C119 O104 1.238 . S
C119 O105 1.247 . S
C119 C113 1.507 . S
H120 C93 0.930 . S
H121 C94 0.931 . S
H122 C95 0.930 1_655 S
H123 C96 0.930 1_655 S
H124 C115 0.930 . S
H125 C116 0.931 . S
H126 C117 0.930 1_455 S
H127 C118 0.930 1_455 S
Tb128 C138 2.825 1_556 S
Tb128 O139 2.347 1_545 S
Tb128 O142 2.366 . S
Tb128 O147 2.418 . S
Tb128 O148 2.384 . S
Tb128 O151 2.479 1_556 S
Tb128 O152 2.471 1_556 S
Eu129 O140 2.418 . S
Eu129 O141 2.384 . S
Eu129 O144 2.479 . S
Eu129 O145 2.471 . S
Eu129 O146 2.347 1_565 S
Eu129 O149 2.366 . S
Eu129 C159 2.825 . S
C130 O146 1.259 . S
C130 O147 1.265 . S
C131 O148 1.255 . S
C131 O149 1.265 1_545 S
C132 C134 1.380 . S
C132 C135 1.374 . S
C132 C138 1.507 . S
C133 C134 1.384 . S
C133 C137 1.387 . S
C133 H160 0.930 . S
C134 C132 1.380 . S
C134 C133 1.384 . S
C134 H161 0.931 . S
C135 C132 1.374 . S
C135 C136 1.390 . S
C135 H162 0.930 1_545 S
C136 C135 1.390 . S
C136 C137 1.391 . S
C136 H163 0.930 1_545 S
C137 C133 1.387 . S
C137 C136 1.391 . S
C138 Tb128 2.825 1_554 S
C138 C132 1.507 . S
C138 O151 1.238 . S
C138 O152 1.247 . S
O139 Tb128 2.347 1_565 S
O139 C143 1.259 . S
O140 Eu129 2.418 . S
O140 C143 1.265 . S
O141 Eu129 2.384 . S
O141 C150 1.255 . S
O142 Tb128 2.366 . S
O142 C150 1.265 1_545 S
C143 O139 1.259 . S
C143 O140 1.265 . S
O144 Eu129 2.479 . S
O144 C159 1.238 . S
O145 Eu129 2.471 . S
O145 C159 1.247 . S
O146 Eu129 2.347 1_545 S
O146 C130 1.259 . S
O147 Tb128 2.418 . S
O147 C130 1.265 . S
O148 Tb128 2.384 . S
O148 C131 1.255 . S
O149 Eu129 2.366 . S
O149 C131 1.265 1_565 S
C150 O141 1.255 . S
C150 O142 1.265 1_565 S
O151 Tb128 2.479 1_554 S
O151 C138 1.238 . S
O152 Tb128 2.471 1_554 S
O152 C138 1.247 . S
C153 C156 1.380 . S
C153 C157 1.374 . S
C153 C159 1.507 . S
C154 C155 1.387 . S
C154 C158 1.391 . S
C155 C154 1.387 . S
C155 C156 1.384 . S
C155 H164 0.930 . S
C156 C153 1.380 . S
C156 C155 1.384 . S
C156 H165 0.931 . S
C157 C153 1.374 . S
C157 C158 1.390 . S
C157 H166 0.930 1_565 S
C158 C154 1.391 . S
C158 C157 1.390 . S
C158 H167 0.930 1_565 S
C159 Eu129 2.825 . S
C159 O144 1.238 . S
C159 O145 1.247 . S
C159 C153 1.507 . S
H160 C133 0.930 . S
H161 C134 0.931 . S
H162 C135 0.930 1_565 S
H163 C136 0.930 1_565 S
H164 C155 0.930 . S
H165 C156 0.931 . S
H166 C157 0.930 1_545 S
H167 C158 0.930 1_545 S
Tb168 C178 2.825 1_556 S
Tb168 O179 2.347 . S
Tb168 O182 2.366 . S
Tb168 O187 2.418 . S
Tb168 O188 2.384 . S
Tb168 O191 2.479 1_556 S
Tb168 O192 2.471 1_556 S
Eu169 O180 2.418 . S
Eu169 O181 2.384 . S
Eu169 O184 2.479 . S
Eu169 O185 2.471 . S
Eu169 O186 2.347 . S
Eu169 O189 2.366 . S
Eu169 C199 2.825 . S
C170 O186 1.259 . S
C170 O187 1.265 . S
C171 O188 1.255 . S
C171 O189 1.265 . S
C172 C174 1.380 . S
C172 C175 1.374 . S
C172 C178 1.507 . S
C173 C174 1.384 . S
C173 C177 1.387 . S
C173 H200 0.930 . S
C174 C172 1.380 . S
C174 C173 1.384 . S
C174 H201 0.931 . S
C175 C172 1.374 . S
C175 C176 1.390 . S
C175 H202 0.930 . S
C176 C175 1.390 . S
C176 C177 1.391 . S
C176 H203 0.930 . S
C177 C173 1.387 . S
C177 C176 1.391 . S
C178 Tb168 2.825 1_554 S
C178 C172 1.507 . S
C178 O191 1.238 . S
C178 O192 1.247 . S
O179 Tb168 2.347 . S
O179 C183 1.259 . S
O180 Eu169 2.418 . S
O180 C183 1.265 . S
O181 Eu169 2.384 . S
O181 C190 1.255 . S
O182 Tb168 2.366 . S
O182 C190 1.265 . S
C183 O179 1.259 . S
C183 O180 1.265 . S
O184 Eu169 2.479 . S
O184 C199 1.238 . S
O185 Eu169 2.471 . S
O185 C199 1.247 . S
O186 Eu169 2.347 . S
O186 C170 1.259 . S
O187 Tb168 2.418 . S
O187 C170 1.265 . S
O188 Tb168 2.384 . S
O188 C171 1.255 . S
O189 Eu169 2.366 . S
O189 C171 1.265 . S
C190 O181 1.255 . S
C190 O182 1.265 . S
O191 Tb168 2.479 1_554 S
O191 C178 1.238 . S
O192 Tb168 2.471 1_554 S
O192 C178 1.247 . S
C193 C196 1.380 . S
C193 C197 1.374 . S
C193 C199 1.507 . S
C194 C195 1.387 . S
C194 C198 1.391 . S
C195 C194 1.387 . S
C195 C196 1.384 . S
C195 H204 0.930 . S
C196 C193 1.380 . S
C196 C195 1.384 . S
C196 H205 0.931 . S
C197 C193 1.374 . S
C197 C198 1.390 . S
C197 H206 0.930 . S
C198 C194 1.391 . S
C198 C197 1.390 . S
C198 H207 0.930 . S
C199 Eu169 2.825 . S
C199 O184 1.238 . S
C199 O185 1.247 . S
C199 C193 1.507 . S
H200 C173 0.930 . S
H201 C174 0.931 . S
H202 C175 0.930 . S
H203 C176 0.930 . S
H204 C195 0.930 . S
H205 C196 0.931 . S
H206 C197 0.930 . S
H207 C198 0.930 . S
Tb208 C218 2.825 1_556 S
Tb208 O219 2.347 . S
Tb208 O222 2.366 . S
Tb208 O227 2.418 . S
Tb208 O228 2.384 1_655 S
Tb208 O231 2.479 1_556 S
Tb208 O232 2.471 1_556 S
Eu209 O220 2.418 . S
Eu209 O221 2.384 1_455 S
Eu209 O224 2.479 . S
Eu209 O225 2.471 . S
Eu209 O226 2.347 . S
Eu209 O229 2.366 . S
Eu209 C239 2.825 . S
C210 O226 1.259 1_655 S
C210 O227 1.265 . S
C211 O228 1.255 . S
C211 O229 1.265 . S
C212 C214 1.380 . S
C212 C215 1.374 . S
C212 C218 1.507 . S
C213 C214 1.384 . S
C213 C217 1.387 . S
C213 H240 0.930 . S
C214 C212 1.380 . S
C214 C213 1.384 . S
C214 H241 0.931 . S
C215 C212 1.374 . S
C215 C216 1.390 . S
C215 H242 0.930 . S
C216 C215 1.390 . S
C216 C217 1.391 . S
C216 H243 0.930 . S
C217 C213 1.387 . S
C217 C216 1.391 . S
C218 Tb208 2.825 1_554 S
C218 C212 1.507 . S
C218 O231 1.238 . S
C218 O232 1.247 . S
O219 Tb208 2.347 . S
O219 C223 1.259 1_655 S
O220 Eu209 2.418 . S
O220 C223 1.265 . S
O221 Eu209 2.384 1_655 S
O221 C230 1.255 . S
O222 Tb208 2.366 . S
O222 C230 1.265 . S
C223 O219 1.259 1_455 S
C223 O220 1.265 . S
O224 Eu209 2.479 . S
O224 C239 1.238 . S
O225 Eu209 2.471 . S
O225 C239 1.247 . S
O226 Eu209 2.347 . S
O226 C210 1.259 1_455 S
O227 Tb208 2.418 . S
O227 C210 1.265 . S
O228 Tb208 2.384 1_455 S
O228 C211 1.255 . S
O229 Eu209 2.366 . S
O229 C211 1.265 . S
C230 O221 1.255 . S
C230 O222 1.265 . S
O231 Tb208 2.479 1_554 S
O231 C218 1.238 . S
O232 Tb208 2.471 1_554 S
O232 C218 1.247 . S
C233 C236 1.380 . S
C233 C237 1.374 . S
C233 C239 1.507 . S
C234 C235 1.387 . S
C234 C238 1.391 . S
C235 C234 1.387 . S
C235 C236 1.384 . S
C235 H244 0.930 . S
C236 C233 1.380 . S
C236 C235 1.384 . S
C236 H245 0.931 . S
C237 C233 1.374 . S
C237 C238 1.390 . S
C237 H246 0.930 . S
C238 C234 1.391 . S
C238 C237 1.390 . S
C238 H247 0.930 . S
C239 Eu209 2.825 . S
C239 O224 1.238 . S
C239 O225 1.247 . S
C239 C233 1.507 . S
H240 C213 0.930 . S
H241 C214 0.931 . S
H242 C215 0.930 . S
H243 C216 0.930 . S
H244 C235 0.930 . S
H245 C236 0.931 . S
H246 C237 0.930 . S
H247 C238 0.930 . S
C248 C249 1.389 1_545 S
C248 H252 0.950 . S
C248 C257 1.390 . S
C249 C248 1.389 1_565 S
C249 C251 1.386 . S
H250 C257 0.950 . S
C251 C249 1.386 . S
C251 C253 1.390 . S
C251 H255 0.950 . S
H252 C248 0.950 . S
C253 C251 1.390 . S
C253 C254 1.396 . S
C253 H256 0.950 . S
C254 C253 1.396 . S
C254 C257 1.379 1_565 S
H255 C251 0.950 . S
H256 C253 0.950 . S
C257 C248 1.390 . S
C257 H250 0.950 . S
C257 C254 1.379 1_545 S
C258 C259 1.387 . S
C258 H262 0.950 . S
C258 C267 1.390 . S
C259 C258 1.387 . S
C259 C261 1.387 . S
H260 C267 0.950 . S
C261 C259 1.387 . S
C261 C263 1.390 . S
C261 H265 0.950 . S
H262 C258 0.950 . S
C263 C261 1.390 . S
C263 C264 1.387 . S
C263 H266 0.950 . S
C264 C263 1.387 . S
C264 C267 1.387 . S
H265 C261 0.950 . S
H266 C263 0.950 . S
C267 C258 1.390 . S
C267 H260 0.950 . S
C267 C264 1.387 . S
C268 C269 1.387 . S
C268 H272 0.950 . S
C268 C277 1.390 . S
C269 C268 1.387 . S
C269 C271 1.387 . S
H270 C277 0.950 . S
C271 C269 1.387 . S
C271 C273 1.390 . S
C271 H275 0.950 . S
H272 C268 0.950 . S
C273 C271 1.390 . S
C273 C274 1.387 . S
C273 H276 0.950 . S
C274 C273 1.387 . S
C274 C277 1.387 . S
H275 C271 0.950 . S
H276 C273 0.950 . S
C277 C268 1.390 . S
C277 H270 0.950 . S
C277 C274 1.387 . S
C278 C279 1.376 1_655 S
C278 H282 0.950 . S
C278 C287 1.390 . S
C279 C278 1.376 1_455 S
C279 C281 1.399 . S
H280 C287 0.950 . S
C281 C279 1.399 . S
C281 C283 1.390 . S
C281 H285 0.950 . S
H282 C278 0.950 . S
C283 C281 1.390 . S
C283 C284 1.387 . S
C283 H286 0.950 . S
C284 C283 1.387 . S
C284 C287 1.387 1_455 S
H285 C281 0.950 . S
H286 C283 0.950 . S
C287 C278 1.390 . S
C287 H280 0.950 . S
C287 C284 1.387 1_655 S
C288 C289 1.393 . S
C288 H292 0.950 . S
C288 C297 1.390 . S
C289 C288 1.393 . S
C289 C291 1.382 1_545 S
H290 C297 0.950 . S
C291 C289 1.382 1_565 S
C291 C293 1.390 . S
C291 H295 0.950 . S
H292 C288 0.950 . S
C293 C291 1.390 . S
C293 C294 1.372 1_565 S
C293 H296 0.950 . S
C294 C293 1.372 1_545 S
C294 C297 1.403 . S
H295 C291 0.950 . S
H296 C293 0.950 . S
C297 C288 1.390 . S
C297 H290 0.950 . S
C297 C294 1.403 . S
C298 C299 1.387 . S
C298 H302 0.950 . S
C298 C307 1.390 . S
C299 C298 1.387 . S
C299 C301 1.387 . S
H300 C307 0.950 . S
C301 C299 1.387 . S
C301 C303 1.390 . S
C301 H305 0.950 . S
H302 C298 0.950 . S
C303 C301 1.390 . S
C303 C304 1.387 . S
C303 H306 0.950 . S
C304 C303 1.387 . S
C304 C307 1.387 . S
H305 C301 0.950 . S
H306 C303 0.950 . S
C307 C298 1.390 . S
C307 H300 0.950 . S
C307 C304 1.387 . S
C308 C309 1.387 . S
C308 H312 0.950 . S
C308 C317 1.390 . S
C309 C308 1.387 . S
C309 C311 1.387 . S
H310 C317 0.950 . S
C311 C309 1.387 . S
C311 C313 1.390 . S
C311 H315 0.950 . S
H312 C308 0.950 . S
C313 C311 1.390 . S
C313 C314 1.387 . S
C313 H316 0.950 . S
C314 C313 1.387 . S
C314 C317 1.387 . S
H315 C311 0.950 . S
H316 C313 0.950 . S
C317 C308 1.390 . S
C317 H310 0.950 . S
C317 C314 1.387 . S
C318 C319 1.400 . S
C318 H322 0.950 . S
C318 C327 1.390 . S
C319 C318 1.400 . S
C319 C321 1.375 1_655 S
H320 C327 0.950 . S
C321 C319 1.375 1_455 S
C321 C323 1.390 . S
C321 H325 0.950 . S
H322 C318 0.950 . S
C323 C321 1.390 . S
C323 C324 1.387 1_455 S
C323 H326 0.950 . S
C324 C323 1.387 1_655 S
C324 C327 1.387 . S
H325 C321 0.950 . S
H326 C323 0.950 . S
C327 C318 1.390 . S
C327 H320 0.950 . S
C327 C324 1.387 . S
C328 C329 1.387 . S
C328 H332 0.932 1_655 S
C328 C337 1.409 . S
C329 C328 1.387 . S
C329 C331 1.395 . S
H330 C337 0.950 . S
C331 C329 1.395 . S
C331 C333 1.390 . S
C331 H335 0.950 . S
H332 C328 0.932 1_455 S
C333 C331 1.390 . S
C333 C334 1.387 . S
C333 H336 0.950 . S
C334 C333 1.387 . S
C334 C337 1.387 . S
H335 C331 0.950 . S
H336 C333 0.950 . S
C337 C328 1.409 . S
C337 H330 0.950 . S
C337 C334 1.387 . S
C338 C339 1.387 1_545 S
C338 H342 0.950 . S
C338 C347 1.390 1_545 S
C339 C338 1.387 1_565 S
C339 C341 1.393 . S
H340 C347 0.950 . S
C341 C339 1.393 . S
C341 C343 1.390 . S
C341 H345 0.950 . S
H342 C338 0.950 . S
C343 C341 1.390 . S
C343 C344 1.387 . S
C343 H346 0.950 . S
C344 C343 1.387 . S
C344 C347 1.387 . S
H345 C341 0.950 . S
H346 C343 0.950 . S
C347 C338 1.390 1_565 S
C347 H340 0.950 . S
C347 C344 1.387 . S
C348 C349 1.387 . S
C348 H352 0.950 . S
C348 C357 1.390 . S
C349 C348 1.387 . S
C349 C351 1.387 . S
H350 C357 0.950 . S
C351 C349 1.387 . S
C351 C353 1.390 . S
C351 H355 0.950 . S
H352 C348 0.950 . S
C353 C351 1.390 . S
C353 C354 1.387 . S
C353 H356 0.950 . S
C354 C353 1.387 . S
C354 C357 1.387 . S
H355 C351 0.950 . S
H356 C353 0.950 . S
C357 C348 1.390 . S
C357 H350 0.950 . S
C357 C354 1.387 . S
C358 C359 1.387 . S
C358 H362 0.950 . S
C358 C367 1.390 . S
C359 C358 1.387 . S
C359 C361 1.387 . S
H360 C367 0.950 . S
C361 C359 1.387 . S
C361 C363 1.390 . S
C361 H365 0.950 . S
H362 C358 0.950 . S
C363 C361 1.390 . S
C363 C364 1.387 . S
C363 H366 0.950 . S
C364 C363 1.387 . S
C364 C367 1.387 . S
H365 C361 0.950 . S
H366 C363 0.950 . S
C367 C358 1.390 . S
C367 H360 0.950 . S
C367 C364 1.387 . S
C368 C369 1.395 . S
C368 H372 0.950 . S
C368 C377 1.390 . S
C369 C368 1.395 . S
C369 C371 1.394 . S
H370 C377 0.950 . S
C371 C369 1.394 . S
C371 C373 1.390 . S
C371 H375 0.950 . S
H372 C368 0.950 . S
C373 C371 1.390 . S
C373 C374 1.387 . S
C373 H376 0.950 . S
C374 C373 1.387 . S
C374 C377 1.387 . S
H375 C371 0.950 . S
H376 C373 0.950 . S
C377 C368 1.390 . S
C377 H370 0.950 . S
C377 C374 1.387 . S
C378 C379 1.396 . S
C378 H382 0.950 . S
C378 C387 1.390 . S
C379 C378 1.396 . S
C379 C381 1.389 . S
H380 C387 0.950 . S
C381 C379 1.389 . S
C381 C383 1.390 . S
C381 H385 0.950 1_545 S
H382 C378 0.950 . S
C383 C381 1.390 . S
C383 C384 1.387 . S
C383 H386 0.950 . S
C384 C383 1.387 . S
C384 C387 1.387 . S
H385 C381 0.950 1_565 S
H386 C383 0.950 . S
C387 C378 1.390 . S
C387 H380 0.950 . S
C387 C384 1.387 . S
C388 C389 1.387 . S
C388 H392 0.950 . S
C388 C397 1.390 . S
C389 C388 1.387 . S
C389 C391 1.387 . S
H390 C397 0.950 . S
C391 C389 1.387 . S
C391 C393 1.390 . S
C391 H395 0.950 . S
H392 C388 0.950 . S
C393 C391 1.390 . S
C393 C394 1.387 . S
C393 H396 0.950 . S
C394 C393 1.387 . S
C394 C397 1.387 . S
H395 C391 0.950 . S
H396 C393 0.950 . S
C397 C388 1.390 . S
C397 H390 0.950 . S
C397 C394 1.387 . S
C398 C399 1.387 . S
C398 H402 0.950 . S
C398 C407 1.390 . S
C399 C398 1.387 . S
C399 C401 1.387 . S
H400 C407 0.950 . S
C401 C399 1.387 . S
C401 C403 1.390 . S
C401 H405 0.950 . S
H402 C398 0.950 . S
C403 C401 1.390 . S
C403 C404 1.387 . S
C403 H406 0.950 . S
C404 C403 1.387 . S
C404 C407 1.387 . S
H405 C401 0.950 . S
H406 C403 0.950 . S
C407 C398 1.390 . S
C407 H400 0.950 . S
C407 C404 1.387 . S
C408 C409 1.387 . S
C408 H412 0.950 . S
C408 C417 1.390 . S
C409 C408 1.387 . S
C409 C411 1.387 . S
H410 C417 0.950 . S
C411 C409 1.387 . S
C411 C413 1.390 . S
C411 H415 0.950 1_556 S
H412 C408 0.950 . S
C413 C411 1.390 . S
C413 C414 1.387 . S
C413 H416 0.950 1_556 S
C414 C413 1.387 . S
C414 C417 1.387 . S
H415 C411 0.950 1_554 S
H416 C413 0.950 1_554 S
C417 C408 1.390 . S
C417 H410 0.950 . S
C417 C414 1.387 . S
C418 C419 1.387 . S
C418 H422 0.950 . S
C418 C427 1.390 . S
C419 C418 1.387 . S
C419 C421 1.387 1_545 S
H420 C427 0.950 . S
C421 C419 1.387 1_565 S
C421 C423 1.390 . S
C421 H425 0.950 1_556 S
H422 C418 0.950 . S
C423 C421 1.390 . S
C423 C424 1.387 1_565 S
C423 H426 0.950 1_556 S
C424 C423 1.387 1_545 S
C424 C427 1.387 . S
H425 C421 0.950 1_554 S
H426 C423 0.950 1_554 S
C427 C418 1.390 . S
C427 H420 0.950 . S
C427 C424 1.387 . S
C428 C429 1.387 . S
C428 H432 0.950 . S
C428 C437 1.390 . S
C429 C428 1.387 . S
C429 C431 1.387 . S
H430 C437 0.950 . S
C431 C429 1.387 . S
C431 C433 1.390 . S
C431 H435 0.950 1_556 S
H432 C428 0.950 . S
C433 C431 1.390 . S
C433 C434 1.387 . S
C433 H436 0.950 1_556 S
C434 C433 1.387 . S
C434 C437 1.387 . S
H435 C431 0.950 1_554 S
H436 C433 0.950 1_554 S
C437 C428 1.390 . S
C437 H430 0.950 . S
C437 C434 1.387 . S
C438 C439 1.387 . S
C438 H442 0.950 1_556 S
C438 C447 1.390 . S
C439 C438 1.387 . S
C439 C441 1.387 . S
H440 C447 0.950 1_554 S
C441 C439 1.387 . S
C441 C443 1.390 . S
C441 H445 0.950 . S
H442 C438 0.950 1_554 S
C443 C441 1.390 . S
C443 C444 1.387 . S
C443 H446 0.950 . S
C444 C443 1.387 . S
C444 C447 1.387 . S
H445 C441 0.950 . S
H446 C443 0.950 . S
C447 C438 1.390 . S
C447 H440 0.950 1_556 S
C447 C444 1.387 . S
C448 C449 1.387 . S
C448 H452 0.950 . S
C448 C457 1.390 . S
C449 C448 1.387 . S
C449 C451 1.387 1_655 S
H450 C457 0.950 . S
C451 C449 1.387 1_455 S
C451 C453 1.392 . S
C451 H455 0.950 . S
H452 C448 0.950 . S
C453 C451 1.392 . S
C453 C454 1.381 1_455 S
C453 H456 0.955 . S
C454 C453 1.381 1_655 S
C454 C457 1.387 . S
H455 C451 0.950 . S
H456 C453 0.955 . S
C457 C448 1.390 . S
C457 H450 0.950 . S
C457 C454 1.387 . S
C458 C459 1.387 . S
C458 H462 0.950 . S
C458 C467 1.390 . S
C459 C458 1.387 . S
C459 C461 1.387 1_565 S
H460 C467 0.950 . S
C461 C459 1.387 1_545 S
C461 C463 1.390 . S
C461 H465 0.950 . S
H462 C458 0.950 . S
C463 C461 1.390 . S
C463 C464 1.387 1_545 S
C463 H466 0.950 . S
C464 C463 1.387 1_565 S
C464 C467 1.387 . S
H465 C461 0.950 . S
H466 C463 0.950 . S
C467 C458 1.390 . S
C467 H460 0.950 . S
C467 C464 1.387 . S
C468 C469 1.387 . S
C468 H472 0.950 . S
C468 C477 1.390 . S
C469 C468 1.387 . S
C469 C471 1.387 . S
H470 C477 0.950 . S
C471 C469 1.387 . S
C471 C473 1.390 . S
C471 H475 0.950 . S
H472 C468 0.950 . S
C473 C471 1.390 . S
C473 C474 1.387 . S
C473 H476 0.950 . S
C474 C473 1.387 . S
C474 C477 1.387 . S
H475 C471 0.950 . S
H476 C473 0.950 . S
C477 C468 1.390 . S
C477 H470 0.950 . S
C477 C474 1.387 . S
C478 C479 1.387 . S
C478 H482 0.950 . S
C478 C487 1.390 . S
C479 C478 1.387 . S
C479 C481 1.387 . S
H480 C487 0.950 . S
C481 C479 1.387 . S
C481 C483 1.390 . S
C481 H485 0.950 . S
H482 C478 0.950 . S
C483 C481 1.390 . S
C483 C484 1.387 . S
C483 H486 0.950 . S
C484 C483 1.387 . S
C484 C487 1.387 . S
H485 C481 0.950 . S
H486 C483 0.950 . S
C487 C478 1.390 . S
C487 H480 0.950 . S
C487 C484 1.387 . S
C249 C76 1.947 . S
C254 C90 2.202 . S
C264 C130 2.221 . S
C259 C87 1.970 . S
C274 C170 2.232 . S
C269 C54 1.983 . S
C284 C210 2.215 1_455 S
C279 C65 1.965 1_455 S
C294 C103 2.206 1_554 S
C289 C32 1.951 1_545 S
C299 C43 1.969 . S
C304 C143 2.223 1_554 S
C309 C10 1.982 . S
C314 C183 2.231 1_554 S
C319 C21 1.965 . S
C324 C223 2.216 1_654 S
C334 C114 0.779 . S
C329 C60 0.774 1_655 S
C344 C154 0.777 . S
C339 C71 0.774 1_565 S
C354 C194 0.767 . S
C349 C82 0.765 . S
C359 C49 0.763 . S
C364 C234 0.757 . S
C369 C16 0.771 . S
C374 C97 0.775 . S
C384 C137 0.778 . S
C379 C27 0.774 . S
C394 C177 0.767 . S
C389 C38 0.765 . S
C399 C5 0.760 . S
C404 C217 0.762 . S
C409 C59 2.233 . S
C414 C91 2.573 . S
C419 C70 2.191 . S
C424 C131 2.536 . S
C434 C171 2.522 . S
C429 C81 2.174 . S
C444 C211 2.563 . S
C439 C48 2.211 . S
C449 C15 2.236 1_655 S
C454 C110 2.580 . S
C464 C150 2.535 . S
C459 C26 2.193 1_565 S
C474 C190 2.522 . S
C469 C37 2.185 . S
C479 C4 2.227 . S
C484 C230 2.567 . S
