# Generated by pormake.
# Topology tsx, (6,3)-cn, num edge types: 1
# Building blocks:
#     Node 0, Type 0, BuildingBlock: CIFDUS_clean_sbu_1, # of connection points: 6
#     Node 1, Type 0, BuildingBlock: CIFDUS_clean_sbu_1, # of connection points: 6
#     Node 2, Type 1, BuildingBlock: QEWDON_clean_linker_0, # of connection points: 3
#     Node 3, Type 1, BuildingBlock: QEWDON_clean_linker_0, # of connection points: 3
#     Node 4, Type 1, BuildingBlock: QEWDON_clean_linker_0, # of connection points: 3
#     Node 5, Type 1, BuildingBlock: QEWDON_clean_linker_0, # of connection points: 3
#     Edge 6, Type (0, 1), BuildingBlock: TEMPAE_clean_linker_10, # of connection points: 2
#     Edge 7, Type (0, 1), BuildingBlock: TEMPAE_clean_linker_10, # of connection points: 2
#     Edge 8, Type (0, 1), BuildingBlock: TEMPAE_clean_linker_10, # of connection points: 2
#     Edge 9, Type (0, 1), BuildingBlock: TEMPAE_clean_linker_10, # of connection points: 2
#     Edge 10, Type (0, 1), BuildingBlock: TEMPAE_clean_linker_10, # of connection points: 2
#     Edge 11, Type (0, 1), BuildingBlock: TEMPAE_clean_linker_10, # of connection points: 2
#     Edge 12, Type (0, 1), BuildingBlock: TEMPAE_clean_linker_10, # of connection points: 2
#     Edge 13, Type (0, 1), BuildingBlock: TEMPAE_clean_linker_10, # of connection points: 2
#     Edge 14, Type (0, 1), BuildingBlock: TEMPAE_clean_linker_10, # of connection points: 2
#     Edge 15, Type (0, 1), BuildingBlock: TEMPAE_clean_linker_10, # of connection points: 2
#     Edge 16, Type (0, 1), BuildingBlock: TEMPAE_clean_linker_10, # of connection points: 2
#     Edge 17, Type (0, 1), BuildingBlock: TEMPAE_clean_linker_10, # of connection points: 2
# Relax obj value: 0.104
# Max RMSD: 0.201
# Mean RMSD: 0.146
data_MOF--net-tsx--node1-CIFDUS_clean_sbu_1--node2-QEWDON_clean_linker_0--edge1-TEMPAE_clean_linker_10
_symmetry_space_group_name_H-M    P1
_symmetry_Int_Tables_number       1
_symmetry_cell_setting            triclinic
loop_
_symmetry_equiv_pos_as_xyz
'x, y, z'
_cell_length_a     20.38263
_cell_length_b     24.783446
_cell_length_c     33.859405
_cell_angle_alpha  97.034366
_cell_angle_beta   106.70296
_cell_angle_gamma 91.84803
loop_
_atom_site_label
_atom_site_type_symbol
_atom_site_fract_x
_atom_site_fract_y
_atom_site_fract_z
_atom_type_partial_charge
O0 O 0.9991 0.07279 0.0182 0.0
Mn1 Mn 0.05977 0.00683 0.01482 0.0
O2 O 0.90148 0.04896 0.9671 0.0
Mn3 Mn 0.91744 0.97825 0.95163 0.0
O4 O 0.11757 0.93754 0.01214 0.0
O5 O 0.14139 0.06493 0.03695 0.0
Mn6 Mn 0.20329 0.02302 0.06292 0.0
O7 O 0.06291 -0.0029 0.07566 0.0
O8 O 0.22219 0.97313 0.02419 0.0
O9 O 0.05768 0.01681 0.95323 0.0
O10 O 0.96085 0.97039 0.91102 0.0
O11 O 0.25121 0.08705 0.07346 0.0
O12 O 0.17654 -9e-05 0.10634 0.0
C13 C 0.92778 0.92652 0.99928 0.0
C14 C 0.93885 0.08266 0.99689 0.0
C15 C 0.17987 0.93228 0.01242 0.0
C16 C 0.19329 0.10175 0.05104 0.0
C17 C 0.11478 -0.0053 0.10756 0.0
C18 C 0.01838 -0.00327 0.91676 0.0
O19 O 0.97806 0.95248 0.99212 0.0
O20 O 0.86986 0.92922 0.97129 0.0
O21 O 0.5201 0.58363 0.52636 0.0
Mn22 Mn 0.56968 0.51213 0.52107 0.0
O23 O 0.4139 0.57103 0.48284 0.0
Mn24 Mn 0.42442 0.50248 0.45887 0.0
O25 O 0.62898 0.44367 0.51962 0.0
O26 O 0.65523 0.56003 0.54554 0.0
Mn27 Mn 0.70685 0.5404 0.59123 0.0
O28 O 0.56153 0.49972 0.58024 0.0
O29 O 0.72465 0.4708 0.57331 0.0
O30 O 0.57414 0.52413 0.46105 0.0
O31 O 0.46644 0.50254 0.41744 0.0
O32 O 0.75171 0.60199 0.58223 0.0
O33 O 0.65355 0.54589 0.62685 0.0
C34 C 0.42814 0.43749 0.49633 0.0
C35 C 0.46103 0.60022 0.51048 0.0
C36 C 0.68972 0.43591 0.54289 0.0
C37 C 0.69879 0.60041 0.54992 0.0
C38 C 0.59466 0.52079 0.61772 0.0
C39 C 0.53008 0.5166 0.42437 0.0
O40 O 0.48143 0.46491 0.49363 0.0
O41 O 0.37165 0.449 0.47052 0.0
H42 H 0.09379 0.02213 0.41677 0.0
C43 C 0.10241 0.98244 0.42631 0.0
C44 C 0.11662 0.9409 0.39834 0.0
C45 C 0.1036 0.97464 0.46707 0.0
H46 H 0.15624 0.86096 0.3945 0.0
C47 C 0.14153 0.89311 0.41409 0.0
C48 C 0.15308 0.88805 0.45641 0.0
C49 C 0.1293 0.92693 0.48185 0.0
C50 C 0.08297 0.01875 0.49416 0.0
H51 H 0.13435 0.92074 0.51362 0.0
C52 C 0.03441 0.06619 0.47 0.0
C53 C 0.01954 0.1472 0.52401 0.0
C54 C 0.11493 0.0262 0.54696 0.0
H55 H 0.14696 -0.00478 0.5602 0.0
C56 C 0.10687 0.07869 0.58256 0.0
H57 H 0.01093 0.05645 0.43634 0.0
C58 C 0.06303 0.13553 0.57358 0.0
H59 H 0.06072 0.16401 0.59998 0.0
H60 H 0.13268 0.07538 0.6148 0.0
H61 H 0.00323 0.07537 0.60891 0.0
C62 C 0.98333 0.03549 0.59339 0.0
C63 C 0.96029 -0.00123 0.61601 0.0
C64 C 0.97993 0.02107 0.55086 0.0
H65 H 0.89406 0.92553 0.60741 0.0
C66 C 0.92088 0.95176 0.59299 0.0
C67 C 0.91384 0.93737 0.55067 0.0
C68 C 0.94425 0.97145 0.52981 0.0
C69 C 0.00175 0.06065 0.52493 0.0
H70 H 0.93876 0.95999 0.49702 0.0
C71 C 0.11407 0.11175 0.52073 0.0
C72 C 0.0966 0.15235 0.48306 0.0
C73 C 0.93197 0.07867 0.48728 0.0
H74 H 0.88106 0.06172 0.48464 0.0
C75 C 0.9409 0.1231 0.45417 0.0
H76 H 0.16797 0.11209 0.53922 0.0
C77 C 0.01513 0.15613 0.45257 0.0
H78 H 0.00909 0.18297 0.42905 0.0
H79 H 0.89413 0.13181 0.43174 0.0
H80 H 0.55972 0.51575 0.91325 0.0
C81 C 0.58235 0.48123 0.92661 0.0
C82 C 0.60041 0.4411 0.89945 0.0
C83 C 0.59808 0.47871 0.96983 0.0
H84 H 0.65132 0.36713 0.89525 0.0
C85 C 0.63799 0.39874 0.91608 0.0
C86 C 0.66152 0.3983 0.95935 0.0
C87 C 0.6385 0.43675 0.98566 0.0
C88 C 0.57877 0.523 0.99819 0.0
H89 H 0.65555 0.4351 0.01855 0.0
C90 C 0.53012 0.5722 0.97603 0.0
C91 C 0.51984 0.65147 0.03288 0.0
C92 C 0.61284 0.5286 0.05103 0.0
H93 H 0.64392 0.49706 0.06386 0.0
C94 C 0.60751 0.58003 0.08812 0.0
H95 H 0.50431 0.56454 0.94268 0.0
C96 C 0.56485 0.63758 0.08135 0.0
H97 H 0.56422 0.66517 0.10858 0.0
H98 H 0.63447 0.57533 0.11992 0.0
H99 H 0.50382 0.57759 0.1164 0.0
C100 C 0.48598 0.53731 0.10019 0.0
C101 C 0.46782 0.49873 0.12299 0.0
C102 C 0.47974 0.52429 0.05723 0.0
H103 H 0.41337 0.42013 0.11658 0.0
C104 C 0.43083 0.45041 0.10067 0.0
C105 C 0.4125 0.44151 0.05711 0.0
C106 C 0.44038 0.47643 0.03571 0.0
C107 C 0.50046 0.56465 0.03168 0.0
H108 H 0.42772 0.46821 1.00207 0.0
C109 C 0.61231 0.61522 0.02659 0.0
C110 C 0.59384 0.65763 0.99007 0.0
C111 C 0.42991 0.58481 0.9958 0.0
H112 H 0.37906 0.56828 0.99372 0.0
C113 C 0.43788 0.63097 0.96377 0.0
H114 H 0.66643 0.61443 0.04429 0.0
C115 C 0.51173 0.6637 0.96154 0.0
H116 H 0.50498 0.69163 0.93874 0.0
H117 H 0.39061 0.64112 0.94256 0.0
C118 C 0.15877 0.17506 0.00567 0.0
C119 C 0.19005 0.15927 0.04462 0.0
C120 C 0.17626 0.22693 0.99697 0.0
C121 C 0.22692 0.26216 0.0277 0.0
C122 C 0.25283 0.248 0.0683 0.0
C123 C 0.23291 0.1972 0.07633 0.0
C124 C 0.14463 0.24208 0.95416 0.0
C125 C 0.30678 0.28408 0.1024 0.0
C126 C 0.3711 0.3498 0.01667 0.0
C127 C 0.35689 0.39982 0.03504 0.0
C128 C 0.32295 0.30482 0.00747 0.0
C129 C 0.26032 0.3106 0.01761 0.0
C130 C 0.24246 0.36302 0.03063 0.0
C131 C 0.29139 0.40714 0.03946 0.0
C132 C 0.34348 0.24978 0.99274 0.0
C133 C 0.17566 0.37124 0.04065 0.0
H134 H 0.12515 0.14577 0.98125 0.0
H135 H 0.25585 0.18521 0.10679 0.0
H136 H 0.13518 0.28602 0.95578 0.0
H137 H 0.18043 0.23425 0.9352 0.0
H138 H 0.09547 0.21767 0.93798 0.0
H139 H 0.32044 0.26708 0.13237 0.0
H140 H 0.35424 0.28909 0.09299 0.0
H141 H 0.28842 0.32517 0.10779 0.0
H142 H 0.42179 0.34463 0.01307 0.0
H143 H 0.28063 0.44645 0.05328 0.0
H144 H 0.29919 0.22546 0.9698 0.0
H145 H 0.36141 0.22704 0.01971 0.0
H146 H 0.38573 0.25357 0.97835 0.0
H147 H 0.1324 0.3479 0.01613 0.0
H148 H 0.16484 0.41496 0.04385 0.0
H149 H 0.17806 0.35588 0.07044 0.0
C150 C 0.19591 0.83451 0.98774 0.0
C151 C 0.21083 0.88001 0.01852 0.0
C152 C 0.23919 0.79088 0.99191 0.0
C153 C 0.2985 0.79443 0.02695 0.0
C154 C 0.30935 0.8381 0.05953 0.0
C155 C 0.26459 0.8796 0.0552 0.0
C156 C 0.22389 0.74257 0.95812 0.0
C157 C 0.37212 0.84417 0.09717 0.0
C158 C 0.41775 0.68203 0.05423 0.0
C159 C 0.46924 0.69458 0.03607 0.0
C160 C 0.36001 0.71237 0.04979 0.0
C161 C 0.35468 0.75766 0.02779 0.0
C162 C 0.40885 0.77304 0.012 0.0
C163 C 0.46693 0.74258 0.01786 0.0
C164 C 0.30438 0.69534 0.06803 0.0
C165 C 0.40491 0.82136 0.98841 0.0
H166 H 0.15338 0.8344 0.95978 0.0
H167 H 0.27483 0.9143 0.07954 0.0
H168 H 0.26673 0.73902 0.94403 0.0
H169 H 0.21966 0.70454 0.97171 0.0
H170 H 0.17544 0.74558 0.93319 0.0
H171 H 0.3693 0.87783 0.12139 0.0
H172 H 0.37899 0.80592 0.1113 0.0
H173 H 0.4185 0.85288 0.08744 0.0
H174 H 0.42075 0.64622 0.06995 0.0
H175 H 0.50885 0.75512 0.00664 0.0
H176 H 0.2543 0.6887 0.04343 0.0
H177 H 0.29912 0.72816 0.09208 0.0
H178 H 0.31506 0.65739 0.08244 0.0
H179 H 0.3571 0.81671 0.96192 0.0
H180 H 0.44938 0.82607 0.97604 0.0
H181 H 0.4029 0.85927 0.00905 0.0
C182 C 0.93201 0.8297 0.98958 0.0
C183 C 0.93479 0.8763 0.01809 0.0
C184 C 0.88212 0.78703 0.9843 0.0
C185 C 0.84309 0.78755 0.01285 0.0
C186 C 0.86082 0.82735 0.04871 0.0
C187 C 0.90472 0.87283 0.05007 0.0
C188 C 0.86613 0.74558 0.94556 0.0
C189 C 0.82988 0.82379 0.08392 0.0
C190 C 0.65223 0.74419 0.98159 0.0
C191 C 0.65365 0.68878 0.98553 0.0
C192 C 0.71376 0.7762 0.98839 0.0
C193 C 0.77795 0.75267 1.00202 0.0
C194 C 0.77881 0.69607 0.00393 0.0
C195 C 0.7166 0.6646 0.99323 0.0
C196 C 0.70976 0.83558 0.98243 0.0
C197 C 0.8441 0.6678 0.01914 0.0
H198 H 0.95727 0.83207 0.96559 0.0
H199 H 0.90811 0.90829 0.0729 0.0
H200 H 0.88499 0.70594 0.95408 0.0
H201 H 0.80992 0.73951 0.9302 0.0
H202 H 0.89117 0.75781 0.92258 0.0
H203 H 0.84646 0.85965 0.10848 0.0
H204 H 0.77303 0.82017 0.07254 0.0
H205 H 0.84596 0.78641 0.09806 0.0
H206 H 0.60375 0.76306 0.975 0.0
H207 H 0.71789 0.62101 0.9939 0.0
H208 H 0.74861 0.84837 0.96757 0.0
H209 H 0.72016 0.86123 0.01308 0.0
H210 H 0.65809 0.84393 0.96298 0.0
H211 H 0.85177 0.63993 0.99282 0.0
H212 H 0.83892 0.64195 0.04282 0.0
H213 H 0.8904 0.6962 0.03306 0.0
C214 C 0.83668 0.13558 0.99023 0.0
C215 C 0.90811 0.13412 0.00623 0.0
C216 C 0.80474 0.18419 0.99193 0.0
C217 C 0.8448 0.23294 0.01156 0.0
C218 C 0.91619 0.23144 0.03121 0.0
C219 C 0.94745 0.18176 0.02804 0.0
C220 C 0.72865 0.18354 0.96989 0.0
C221 C 0.95933 0.28231 0.05471 0.0
C222 C 0.76456 0.34738 0.95642 0.0
C223 C 0.71498 0.36084 0.97681 0.0
C224 C 0.81183 0.30893 0.96971 0.0
C225 C 0.81204 0.28508 0.00562 0.0
C226 C 0.76773 0.30303 0.02917 0.0
C227 C 0.71828 0.33946 0.01386 0.0
C228 C 0.85713 0.29031 0.94302 0.0
C229 C 0.76939 0.28113 0.06907 0.0
H230 H 0.80537 0.09865 0.97453 0.0
H231 H 0.00248 0.18063 0.04121 0.0
H232 H 0.70091 0.19977 0.99201 0.0
H233 H 0.71989 0.21 0.94493 0.0
H234 H 0.7055 0.14196 0.95559 0.0
H235 H 0.01442 0.2747 0.06709 0.0
H236 H 0.95486 0.31473 0.03444 0.0
H237 H 0.94007 0.29817 0.08108 0.0
H238 H 0.76533 0.36566 0.92907 0.0
H239 H 0.68103 0.34955 0.03035 0.0
H240 H 0.84077 0.24759 0.92829 0.0
H241 H 0.91135 0.29105 0.96224 0.0
H242 H 0.85456 0.31596 0.91799 0.0
H243 H 0.73752 0.24206 0.06186 0.0
H244 H 0.74845 0.30993 0.08942 0.0
H245 H 0.82252 0.27329 0.08645 0.0
C246 C 0.67577 0.69545 0.54485 0.0
C247 C 0.68865 0.64564 0.52533 0.0
C248 C 0.70009 0.74464 0.53593 0.0
C249 C 0.73652 0.74345 0.50595 0.0
C250 C 0.73908 0.69349 0.48131 0.0
C251 C 0.71603 0.64467 0.49184 0.0
C252 C 0.69663 0.79659 0.56347 0.0
C253 C 0.775 0.69077 0.44798 0.0
C254 C 0.81152 0.88377 0.50012 0.0
C255 C 0.87558 0.88507 0.53004 0.0
C256 C 0.76685 0.83624 0.48913 0.0
C257 C 0.78678 0.7899 0.50922 0.0
C258 C 0.85359 0.7903 0.53733 0.0
C259 C 0.89725 0.83773 0.547 0.0
C260 C 0.69703 0.83677 0.45811 0.0
C261 C 0.877 0.74253 0.5604 0.0
H262 H 0.65485 0.69575 0.57094 0.0
H263 H 0.72634 0.6059 0.47695 0.0
H264 H 0.74809 0.8085 0.58597 0.0
H265 H 0.68198 0.83039 0.54485 0.0
H266 H 0.65935 0.79172 0.58135 0.0
H267 H 0.75755 0.65323 0.42514 0.0
H268 H 0.76593 0.72694 0.43129 0.0
H269 H 0.83116 0.69027 0.46254 0.0
H270 H 0.79469 0.92077 0.48741 0.0
H271 H 0.94678 0.83921 0.57036 0.0
H272 H 0.65716 0.83939 0.47455 0.0
H273 H 0.68484 0.79847 0.43589 0.0
H274 H 0.69382 0.87198 0.44041 0.0
H275 H 0.84597 0.73726 0.58195 0.0
H276 H 0.93203 0.74819 0.57889 0.0
H277 H 0.86934 0.70432 0.53837 0.0
C278 C 0.69614 0.33955 0.50756 0.0
C279 C 0.72701 0.38708 0.53447 0.0
C280 C 0.73586 0.29519 0.50123 0.0
C281 C 0.80727 0.29867 0.52291 0.0
C282 C 0.83766 0.34615 0.5504 0.0
C283 C 0.79789 0.38949 0.55503 0.0
C284 C 0.70089 0.24506 0.47183 0.0
C285 C 0.91306 0.35208 0.5751 0.0
C286 C 0.91852 0.18073 0.54589 0.0
C287 C 0.96718 0.19011 0.52487 0.0
C288 C 0.86274 0.21322 0.54334 0.0
C289 C 0.85321 0.25477 0.51749 0.0
C290 C 0.90075 0.26335 0.4952 0.0
C291 C 0.96031 0.23469 0.50235 0.0
C292 C 0.81495 0.20368 0.56893 0.0
C293 C 0.88904 0.30352 0.46416 0.0
H294 H 0.64156 0.33694 0.49159 0.0
H295 H 0.82369 0.42594 0.5753 0.0
H296 H 0.73708 0.22169 0.45866 0.0
H297 H 0.67791 0.21811 0.48893 0.0
H298 H 0.65843 0.25611 0.44585 0.0
H299 H 0.92492 0.38661 0.60086 0.0
H300 H 0.92937 0.31441 0.58867 0.0
H301 H 0.94463 0.35979 0.55435 0.0
H302 H 0.92361 0.1472 0.56408 0.0
H303 H 0.99957 0.24629 0.48882 0.0
H304 H 0.76276 0.19059 0.54792 0.0
H305 H 0.81128 0.24206 0.58861 0.0
H306 H 0.83208 0.17192 0.58941 0.0
H307 H 0.83403 0.30082 0.44568 0.0
H308 H 0.92062 0.29594 0.44246 0.0
H309 H 0.90252 0.34566 0.48063 0.0
C310 C 0.4126 0.34099 0.4722 0.0
C311 C 0.42854 0.38177 0.50672 0.0
C312 C 0.36578 0.29684 0.46898 0.0
C313 C 0.34094 0.29018 0.50315 0.0
C314 C 0.36915 0.32486 0.54136 0.0
C315 C 0.41063 0.37184 0.54225 0.0
C316 C 0.3357 0.26239 0.42715 0.0
C317 C 0.35103 0.31457 0.58009 0.0
C318 C 0.15257 0.24239 0.47995 0.0
C319 C 0.15598 0.18628 0.48057 0.0
C320 C 0.21261 0.27654 0.48754 0.0
C321 C 0.2777 0.25396 0.49645 0.0
C322 C 0.28102 0.19702 0.49626 0.0
C323 C 0.22003 0.16389 0.48719 0.0
C324 C 0.20635 0.33708 0.48708 0.0
C325 C 0.34843 0.17048 0.50658 0.0
H326 H 0.42638 0.34894 0.44467 0.0
H327 H 0.42283 0.40319 0.56904 0.0
H328 H 0.34173 0.21871 0.43008 0.0
H329 H 0.27984 0.26773 0.41553 0.0
H330 H 0.36019 0.27329 0.40355 0.0
H331 H 0.37814 0.34479 0.60743 0.0
H332 H 0.29495 0.31586 0.57515 0.0
H333 H 0.36481 0.27308 0.58714 0.0
H334 H 0.10352 0.26004 0.47534 0.0
H335 H 0.22289 0.12025 0.48706 0.0
H336 H 0.23538 0.35249 0.4671 0.0
H337 H 0.22873 0.35906 0.51901 0.0
H338 H 0.15208 0.34733 0.47565 0.0
H339 H 0.36069 0.15606 0.47738 0.0
H340 H 0.34492 0.13419 0.52236 0.0
H341 H 0.39145 0.19885 0.52687 0.0
C342 C 0.40032 0.66253 0.54722 0.0
C343 C 0.44533 0.65558 0.52302 0.0
C344 C 0.36035 0.70754 0.54544 0.0
C345 C 0.3655 0.74567 0.51841 0.0
C346 C 0.41743 0.74232 0.49812 0.0
C347 C 0.45698 0.69689 0.50066 0.0
C348 C 0.30636 0.71001 0.56802 0.0
C349 C 0.42543 0.78295 0.46975 0.0
C350 C 0.19853 0.79516 0.4557 0.0
C351 C 0.20147 0.84864 0.47542 0.0
C352 C 0.25136 0.76107 0.46997 0.0
C353 C 0.3084 0.78113 0.50468 0.0
C354 C 0.31066 0.8345 0.52536 0.0
C355 C 0.25701 0.86754 0.51055 0.0
C356 C 0.24726 0.70414 0.44708 0.0
C357 C 0.37055 0.85734 0.56227 0.0
H358 H 0.39135 0.63004 0.56421 0.0
H359 H 0.49172 0.69093 0.48174 0.0
H360 H 0.30103 0.75256 0.58059 0.0
H361 H 0.25604 0.69397 0.54583 0.0
H362 H 0.31841 0.68507 0.59399 0.0
H363 H 0.47322 0.77851 0.46045 0.0
H364 H 0.38097 0.77691 0.44116 0.0
H365 H 0.42599 0.8252 0.48512 0.0
H366 H 0.15576 0.78048 0.42853 0.0
H367 H 0.26026 0.90929 0.52533 0.0
H368 H 0.2517 0.67371 0.46902 0.0
H369 H 0.29071 0.69985 0.43357 0.0
H370 H 0.19851 0.69421 0.42155 0.0
H371 H 0.37565 0.83212 0.58774 0.0
H372 H 0.36482 0.90015 0.57431 0.0
H373 H 0.41898 0.85588 0.55355 0.0
C374 C 0.15378 0.01835 0.18422 0.0
C375 C 0.10503 -0.00914 0.14869 0.0
C376 C 0.14937 0.01399 0.22416 0.0
C377 C 0.09588 0.97998 0.22887 0.0
C378 C 0.04489 0.95361 0.19308 0.0
C379 C 0.04963 0.95997 0.15321 0.0
C380 C 0.20345 0.04446 0.26129 0.0
C381 C 0.98661 0.91753 0.19694 0.0
C382 C 0.14568 0.91965 0.33011 0.0
C383 C 0.1091 0.94939 0.35392 0.0
C384 C 0.13863 0.92733 0.28876 0.0
C385 C 0.09754 0.96822 0.27117 0.0
C386 C 0.06148 -0.00075 0.29476 0.0
C387 C 0.06566 -0.01185 0.33506 0.0
C388 C 0.1762 0.89207 0.26402 0.0
C389 C 0.02068 0.04569 0.27817 0.0
H390 H 0.19593 0.04337 0.18079 0.0
H391 H 0.0118 0.9391 0.12577 0.0
H392 H 0.17932 0.06544 0.28384 0.0
H393 H 0.23803 0.01527 0.27753 0.0
H394 H 0.23517 0.07521 0.25215 0.0
H395 H 0.95505 0.89598 0.16631 0.0
H396 H 0.00683 0.88682 0.21779 0.0
H397 H 0.95285 0.94249 0.21108 0.0
H398 H 0.18106 0.89068 0.34349 0.0
H399 H 0.03478 0.01057 0.35164 0.0
H400 H 0.21672 0.91731 0.25741 0.0
H401 H 0.14012 0.8739 0.23363 0.0
H402 H 0.20062 0.85862 0.2807 0.0
H403 H 0.0563 0.07871 0.27516 0.0
H404 H 0.99081 0.06293 0.29889 0.0
H405 H 0.9849 0.03224 0.24671 0.0
C406 C 0.08506 9e-05 0.86505 0.0
C407 C 0.02929 0.01478 0.87929 0.0
C408 C 0.08454 0.0067 0.82419 0.0
C409 C 0.02651 0.02739 0.79744 0.0
C410 C 0.97297 0.04613 0.81325 0.0
C411 C 0.97562 0.04014 0.85411 0.0
C412 C 0.14377 -0.01157 0.80875 0.0
C413 C 0.90869 0.06629 0.78585 0.0
C414 C 0.00638 0.05808 0.6873 0.0
C415 C 0.97862 0.00749 0.66312 0.0
C416 C 0.02674 0.06429 0.73115 0.0
C417 C 0.01502 0.02021 0.75165 0.0
C418 C 0.98653 0.96957 0.72799 0.0
C419 C 0.97213 0.96326 0.68468 0.0
C420 C 0.06088 0.11804 0.75558 0.0
C421 C 0.97056 0.92148 0.74814 0.0
H422 H 0.12658 0.98055 0.88471 0.0
H423 H 0.93279 0.05176 0.86555 0.0
H424 H 0.12761 0.95056 0.7863 0.0
H425 H 0.15984 0.01988 0.79206 0.0
H426 H 0.18857 0.98033 0.83456 0.0
H427 H 0.87646 0.08579 0.80425 0.0
H428 H 0.92123 0.09601 0.76675 0.0
H429 H 0.87779 0.03127 0.76416 0.0
H430 H 0.01292 0.0934 0.67275 0.0
H431 H 0.95617 0.92267 0.66831 0.0
H432 H 0.10973 0.11107 0.77876 0.0
H433 H 0.02768 0.13759 0.77316 0.0
H434 H 0.07201 0.14681 0.73524 0.0
H435 H 0.0188 0.90304 0.7629 0.0
H436 H 0.93585 0.88939 0.72515 0.0
H437 H 0.94594 0.93432 0.77272 0.0
C438 C 0.5891 0.55032 0.68911 0.0
C439 C 0.56975 0.51138 0.65337 0.0
C440 C 0.58404 0.53782 0.72737 0.0
C441 C 0.55807 0.48512 0.7299 0.0
C442 C 0.53297 0.44708 0.69319 0.0
C443 C 0.53912 0.4607 0.65515 0.0
C444 C 0.61249 0.5795 0.76563 0.0
C445 C 0.50358 0.39095 0.69464 0.0
C446 C 0.63585 0.43555 0.83388 0.0
C447 C 0.58597 0.44694 0.85438 0.0
C448 C 0.626 0.44577 0.79279 0.0
C449 C 0.56491 0.46829 0.77157 0.0
C450 C 0.5135 0.47851 0.79152 0.0
C451 C 0.52446 0.46745 0.83258 0.0
C452 C 0.68233 0.43449 0.77268 0.0
C453 C 0.44808 0.50302 0.77008 0.0
H454 H 0.61245 0.58973 0.68772 0.0
H455 H 0.52482 0.43036 0.62771 0.0
H456 H 0.5774 0.58217 0.78536 0.0
H457 H 0.66224 0.56691 0.78456 0.0
H458 H 0.62135 0.6207 0.75755 0.0
H459 H 0.48815 0.36557 0.66363 0.0
H460 H 0.54184 0.3696 0.71661 0.0
H461 H 0.45811 0.39446 0.70634 0.0
H462 H 0.68404 0.42064 0.85047 0.0
H463 H 0.4852 0.47578 0.84789 0.0
H464 H 0.7027 0.47318 0.76577 0.0
H465 H 0.6616 0.40738 0.74266 0.0
H466 H 0.72554 0.41505 0.79278 0.0
H467 H 0.46007 0.54518 0.76505 0.0
H468 H 0.41085 0.50445 0.78849 0.0
H469 H 0.42345 0.47929 0.739 0.0
C470 C 0.51611 0.57049 0.3667 0.0
C471 C 0.54964 0.52941 0.38789 0.0
C472 C 0.51303 0.57299 0.32512 0.0
C473 C 0.54403 0.5331 0.30425 0.0
C474 C 0.58387 0.49484 0.32685 0.0
C475 C 0.58602 0.49328 0.36864 0.0
C476 C 0.47039 0.61474 0.30255 0.0
C477 C 0.61862 0.4523 0.30579 0.0
C478 C 0.44555 0.48598 0.1911 0.0
C479 C 0.48623 0.5095 0.16962 0.0
C480 C 0.46483 0.49256 0.23473 0.0
C481 C 0.52482 0.52552 0.25791 0.0
C482 C 0.56483 0.55127 0.23679 0.0
C483 C 0.54584 0.54219 0.19303 0.0
C484 C 0.42084 0.46391 0.25604 0.0
C485 C 0.62731 0.58875 0.26036 0.0
H486 H 0.4875 0.5981 0.38172 0.0
H487 H 0.61117 0.46112 0.38498 0.0
H488 H 0.49539 0.63173 0.28125 0.0
H489 H 0.41973 0.59495 0.28343 0.0
H490 H 0.46144 0.64878 0.32457 0.0
H491 H 0.65305 0.42911 0.3284 0.0
H492 H 0.57913 0.4232 0.28302 0.0
H493 H 0.64907 0.47164 0.28824 0.0
H494 H 0.39814 0.46236 0.17402 0.0
H495 H 0.57854 0.56032 0.17734 0.0
H496 H 0.39967 0.49436 0.27503 0.0
H497 H 0.45248 0.43788 0.27749 0.0
H498 H 0.37742 0.4379 0.23355 0.0
H499 H 0.61141 0.62489 0.27717 0.0
H500 H 0.65543 0.60306 0.2395 0.0
H501 H 0.66293 0.5679 0.28409 0.0
loop_
_geom_bond_atom_site_label_1
_geom_bond_atom_site_label_2
_geom_bond_distance
_geom_bond_site_symmetry_2
_ccdc_geom_bond_type
O0 Mn1 2.163 . S
O0 C14 1.244 1_454 S
Mn1 O0 2.163 . S
Mn1 O4 2.160 1_545 S
Mn1 O5 2.221 . S
Mn1 O7 2.163 1_545 S
Mn1 O9 2.160 1_554 S
Mn1 O19 2.221 1_444 S
O2 Mn3 2.087 1_545 S
O2 C14 1.256 . S
Mn3 O2 2.087 1_565 S
Mn3 O10 2.089 1_565 S
Mn3 O19 2.290 . S
Mn3 O20 2.251 . S
O4 Mn1 2.160 1_565 S
O4 C15 1.239 . S
O5 Mn1 2.221 . S
O5 Mn6 2.290 . S
O5 C16 1.278 . S
Mn6 O5 2.290 . S
Mn6 O8 2.089 1_545 S
Mn6 O11 2.251 . S
Mn6 O12 2.087 . S
O7 Mn1 2.163 1_565 S
O7 C17 1.244 1_565 S
O8 Mn6 2.089 1_565 S
O8 C15 1.256 . S
O9 Mn1 2.160 1_556 S
O9 C18 1.239 . S
O10 Mn3 2.089 1_545 S
O10 C18 1.256 1_655 S
O11 Mn6 2.251 . S
O11 C16 1.241 . S
O12 Mn6 2.087 . S
O12 C17 1.256 . S
C13 O19 1.278 . S
C13 O20 1.241 . S
C14 O0 1.244 1_656 S
C14 O2 1.256 . S
C15 O4 1.239 . S
C15 O8 1.256 . S
C16 O5 1.278 . S
C16 O11 1.241 . S
C17 O7 1.244 1_545 S
C17 O12 1.256 . S
C18 O9 1.239 . S
C18 O10 1.256 1_455 S
O19 Mn1 2.221 1_666 S
O19 Mn3 2.290 . S
O19 C13 1.278 . S
O20 Mn3 2.251 . S
O20 C13 1.241 . S
O21 Mn22 2.163 . S
O21 C35 1.244 . S
Mn22 O21 2.163 . S
Mn22 O25 2.160 . S
Mn22 O26 2.221 . S
Mn22 O28 2.163 . S
Mn22 O30 2.160 . S
Mn22 O40 2.221 . S
O23 Mn24 2.087 . S
O23 C35 1.256 . S
Mn24 O23 2.087 . S
Mn24 O31 2.089 . S
Mn24 O40 2.290 . S
Mn24 O41 2.251 . S
O25 Mn22 2.160 . S
O25 C36 1.239 . S
O26 Mn22 2.221 . S
O26 Mn27 2.290 . S
O26 C37 1.278 . S
Mn27 O26 2.290 . S
Mn27 O29 2.089 . S
Mn27 O32 2.251 . S
Mn27 O33 2.087 . S
O28 Mn22 2.163 . S
O28 C38 1.244 . S
O29 Mn27 2.089 . S
O29 C36 1.256 . S
O30 Mn22 2.160 . S
O30 C39 1.239 . S
O31 Mn24 2.089 . S
O31 C39 1.256 . S
O32 Mn27 2.251 . S
O32 C37 1.241 . S
O33 Mn27 2.087 . S
O33 C38 1.256 . S
C34 O40 1.278 . S
C34 O41 1.241 . S
C35 O21 1.244 . S
C35 O23 1.256 . S
C36 O25 1.239 . S
C36 O29 1.256 . S
C37 O26 1.278 . S
C37 O32 1.241 . S
C38 O28 1.244 . S
C38 O33 1.256 . S
C39 O30 1.239 . S
C39 O31 1.256 . S
O40 Mn22 2.221 . S
O40 Mn24 2.290 . S
O40 C34 1.278 . S
O41 Mn24 2.251 . S
O41 C34 1.241 . S
H42 C43 0.949 . S
C43 H42 0.949 . S
C43 C44 1.395 1_545 S
C43 C45 1.391 . S
C44 C43 1.395 1_565 S
C44 C47 1.390 . S
C45 C43 1.391 . S
C45 C49 1.387 1_545 S
C45 C50 1.491 . S
H46 C47 0.950 . S
C47 C44 1.390 . S
C47 H46 0.950 . S
C47 C48 1.378 . S
C48 C47 1.378 . S
C48 C49 1.409 . S
C49 C45 1.387 1_565 S
C49 C48 1.409 . S
C49 H51 0.951 . S
C50 C45 1.491 . S
C50 C52 1.382 . S
C50 C54 1.404 . S
H51 C49 0.951 . S
C52 C50 1.382 . S
C52 C53 1.390 1_455 S
C52 H57 0.949 1_455 S
C53 C52 1.390 1_655 S
C53 C58 1.399 1_655 S
C54 C50 1.404 . S
C54 H55 0.950 . S
C54 C56 1.375 . S
H55 C54 0.950 . S
C56 C54 1.375 . S
C56 C58 1.382 . S
C56 H60 0.950 . S
H57 C52 0.949 1_655 S
C58 C53 1.399 1_455 S
C58 C56 1.382 . S
C58 H59 0.952 . S
H59 C58 0.952 . S
H60 C56 0.950 . S
H61 C62 0.951 . S
C62 H61 0.951 . S
C62 C63 1.392 1_455 S
C62 C64 1.391 1_455 S
C63 C62 1.392 1_655 S
C63 C66 1.390 1_545 S
C64 C62 1.391 1_655 S
C64 C68 1.387 . S
C64 C69 1.491 1_655 S
H65 C66 0.950 . S
C66 C63 1.390 1_565 S
C66 H65 0.950 . S
C66 C67 1.378 . S
C67 C66 1.378 . S
C67 C68 1.409 1_565 S
C68 C64 1.387 . S
C68 C67 1.409 1_545 S
C68 H70 0.951 . S
C69 C64 1.491 1_455 S
C69 C71 1.382 . S
C69 C73 1.404 1_455 S
H70 C68 0.951 . S
C71 C69 1.382 . S
C71 C72 1.390 . S
C71 H76 0.949 . S
C72 C71 1.390 . S
C72 C77 1.399 . S
C73 C69 1.404 1_655 S
C73 H74 0.950 . S
C73 C75 1.375 . S
H74 C73 0.950 . S
C75 C73 1.375 . S
C75 C77 1.382 1_655 S
C75 H79 0.950 . S
H76 C71 0.949 . S
C77 C72 1.399 . S
C77 C75 1.382 1_455 S
C77 H78 0.952 . S
H78 C77 0.952 . S
H79 C75 0.950 . S
H80 C81 0.949 . S
C81 H80 0.949 . S
C81 C82 1.395 . S
C81 C83 1.391 . S
C82 C81 1.395 . S
C82 C85 1.390 . S
C83 C81 1.391 . S
C83 C87 1.387 . S
C83 C88 1.491 1_556 S
H84 C85 0.950 . S
C85 C82 1.390 . S
C85 H84 0.950 . S
C85 C86 1.378 . S
C86 C85 1.378 . S
C86 C87 1.409 . S
C87 C83 1.387 . S
C87 C86 1.409 . S
C87 H89 0.951 1_556 S
C88 C83 1.491 1_554 S
C88 C90 1.382 1_554 S
C88 C92 1.404 . S
H89 C87 0.951 1_554 S
C90 C88 1.382 1_556 S
C90 C91 1.390 1_556 S
C90 H95 0.949 . S
C91 C90 1.390 1_554 S
C91 C96 1.399 . S
C92 C88 1.404 . S
C92 H93 0.950 . S
C92 C94 1.375 . S
H93 C92 0.950 . S
C94 C92 1.375 . S
C94 C96 1.382 . S
C94 H98 0.950 . S
H95 C90 0.949 . S
C96 C91 1.399 . S
C96 C94 1.382 . S
C96 H97 0.952 . S
H97 C96 0.952 . S
H98 C94 0.950 . S
H99 C100 0.949 . S
C100 H99 0.949 . S
C100 C101 1.395 . S
C100 C102 1.391 . S
C101 C100 1.395 . S
C101 C104 1.390 . S
C102 C100 1.391 . S
C102 C106 1.387 . S
C102 C107 1.491 . S
H103 C104 0.950 . S
C104 C101 1.390 . S
C104 H103 0.950 . S
C104 C105 1.378 . S
C105 C104 1.378 . S
C105 C106 1.409 . S
C106 C102 1.387 . S
C106 C105 1.409 . S
C106 H108 0.976 . S
C107 C102 1.491 . S
C107 C109 1.382 . S
C107 C111 1.404 1_554 S
H108 C106 0.976 . S
C109 C107 1.382 . S
C109 C110 1.390 . S
C109 H114 0.949 . S
C110 C109 1.390 . S
C110 C115 1.399 1_554 S
C111 C107 1.404 1_556 S
C111 H112 0.950 . S
C111 C113 1.375 . S
H112 C111 0.950 . S
C113 C111 1.375 . S
C113 C115 1.382 . S
C113 H117 0.950 . S
H114 C109 0.949 . S
C115 C110 1.399 1_556 S
C115 C113 1.382 . S
C115 H116 0.952 . S
H116 C115 0.952 . S
H117 C113 0.950 . S
C118 C119 1.391 1_556 S
C118 C120 1.394 1_556 S
C118 H134 0.931 . S
C119 C118 1.391 1_554 S
C119 C123 1.376 . S
C120 C118 1.394 1_554 S
C120 C121 1.369 . S
C120 C124 1.531 1_554 S
C121 C120 1.369 . S
C121 C122 1.410 . S
C121 C129 1.503 . S
C122 C121 1.410 . S
C122 C123 1.392 . S
C122 C125 1.511 . S
C123 C119 1.376 . S
C123 C122 1.392 . S
C123 H135 0.929 . S
C124 C120 1.531 1_556 S
C124 H136 0.960 . S
C124 H137 0.962 . S
C124 H138 0.960 . S
C125 C122 1.511 . S
C125 H139 0.961 . S
C125 H140 0.961 . S
C125 H141 0.961 . S
C126 C127 1.370 . S
C126 C128 1.363 . S
C126 H142 0.931 . S
C127 C126 1.370 . S
C127 C131 1.408 . S
C128 C126 1.363 . S
C128 C129 1.370 . S
C128 C132 1.524 . S
C129 C121 1.503 . S
C129 C128 1.370 . S
C129 C130 1.403 . S
C130 C129 1.403 . S
C130 C131 1.404 . S
C130 C133 1.539 . S
C131 C127 1.408 . S
C131 C130 1.404 . S
C131 H143 0.930 . S
C132 C128 1.524 . S
C132 H144 0.956 1_554 S
C132 H145 0.961 . S
C132 H146 0.961 1_554 S
C133 C130 1.539 . S
C133 H147 0.958 . S
C133 H148 0.961 . S
C133 H149 0.960 . S
H134 C118 0.931 . S
H135 C123 0.929 . S
H136 C124 0.960 . S
H137 C124 0.962 . S
H138 C124 0.960 . S
H139 C125 0.961 . S
H140 C125 0.961 . S
H141 C125 0.961 . S
H142 C126 0.931 . S
H143 C131 0.930 . S
H144 C132 0.956 1_556 S
H145 C132 0.961 . S
H146 C132 0.961 1_556 S
H147 C133 0.958 . S
H148 C133 0.961 . S
H149 C133 0.960 . S
C150 C151 1.391 1_556 S
C150 C152 1.394 . S
C150 H166 0.931 . S
C151 C150 1.391 1_554 S
C151 C155 1.376 . S
C152 C150 1.394 . S
C152 C153 1.369 1_556 S
C152 C156 1.531 . S
C153 C152 1.369 1_554 S
C153 C154 1.410 . S
C153 C161 1.503 . S
C154 C153 1.410 . S
C154 C155 1.392 . S
C154 C157 1.511 . S
C155 C151 1.376 . S
C155 C154 1.392 . S
C155 H167 0.929 . S
C156 C152 1.531 . S
C156 H168 0.960 . S
C156 H169 0.962 . S
C156 H170 0.960 . S
C157 C154 1.511 . S
C157 H171 0.961 . S
C157 H172 0.961 . S
C157 H173 0.961 . S
C158 C159 1.370 . S
C158 C160 1.363 . S
C158 H174 0.931 . S
C159 C158 1.370 . S
C159 C163 1.408 1_554 S
C160 C158 1.363 . S
C160 C161 1.370 . S
C160 C164 1.524 . S
C161 C153 1.503 . S
C161 C160 1.370 . S
C161 C162 1.403 1_554 S
C162 C161 1.403 1_556 S
C162 C163 1.404 . S
C162 C165 1.539 . S
C163 C159 1.408 1_556 S
C163 C162 1.404 . S
C163 H175 0.930 . S
C164 C160 1.524 . S
C164 H176 0.956 . S
C164 H177 0.961 . S
C164 H178 0.961 . S
C165 C162 1.539 . S
C165 H179 0.958 . S
C165 H180 0.961 . S
C165 H181 0.960 . S
H166 C150 0.931 . S
H167 C155 0.929 . S
H168 C156 0.960 . S
H169 C156 0.962 . S
H170 C156 0.960 . S
H171 C157 0.961 . S
H172 C157 0.961 . S
H173 C157 0.961 . S
H174 C158 0.931 . S
H175 C163 0.930 . S
H176 C164 0.956 . S
H177 C164 0.961 . S
H178 C164 0.961 . S
H179 C165 0.958 . S
H180 C165 0.961 . S
H181 C165 0.960 . S
C182 C183 1.391 1_556 S
C182 C184 1.394 . S
C182 H198 0.931 . S
C183 C182 1.391 1_554 S
C183 C187 1.376 . S
C184 C182 1.394 . S
C184 C185 1.369 1_556 S
C184 C188 1.531 . S
C185 C184 1.369 1_554 S
C185 C186 1.410 . S
C185 C193 1.503 . S
C186 C185 1.410 . S
C186 C187 1.392 . S
C186 C189 1.511 . S
C187 C183 1.376 . S
C187 C186 1.392 . S
C187 H199 0.929 . S
C188 C184 1.531 . S
C188 H200 0.960 . S
C188 H201 0.962 . S
C188 H202 0.960 . S
C189 C186 1.511 . S
C189 H203 0.961 . S
C189 H204 0.961 . S
C189 H205 0.961 . S
C190 C191 1.370 . S
C190 C192 1.363 . S
C190 H206 0.931 . S
C191 C190 1.370 . S
C191 C195 1.408 . S
C192 C190 1.363 . S
C192 C193 1.370 . S
C192 C196 1.524 . S
C193 C185 1.503 . S
C193 C192 1.370 . S
C193 C194 1.403 . S
C194 C193 1.403 . S
C194 C195 1.404 . S
C194 C197 1.539 . S
C195 C191 1.408 . S
C195 C194 1.404 . S
C195 H207 0.930 . S
C196 C192 1.524 . S
C196 H208 0.956 1_554 S
C196 H209 0.961 . S
C196 H210 0.957 . S
C197 C194 1.539 . S
C197 H211 0.958 . S
C197 H212 0.961 . S
C197 H213 0.960 . S
H198 C182 0.931 . S
H199 C187 0.929 . S
H200 C188 0.960 . S
H201 C188 0.962 . S
H202 C188 0.960 . S
H203 C189 0.961 . S
H204 C189 0.961 . S
H205 C189 0.961 . S
H206 C190 0.931 . S
H207 C195 0.930 . S
H208 C196 0.956 1_556 S
H209 C196 0.961 . S
H210 C196 0.957 . S
H211 C197 0.958 . S
H212 C197 0.961 . S
H213 C197 0.960 . S
C214 C215 1.391 . S
C214 C216 1.394 . S
C214 H230 0.931 . S
C215 C214 1.391 . S
C215 C219 1.376 1_556 S
C216 C214 1.394 . S
C216 C217 1.369 . S
C216 C220 1.531 . S
C217 C216 1.369 . S
C217 C218 1.410 1_556 S
C217 C225 1.503 . S
C218 C217 1.410 1_554 S
C218 C219 1.392 . S
C218 C221 1.511 . S
C219 C215 1.376 1_554 S
C219 C218 1.392 . S
C219 H231 0.929 . S
C220 C216 1.531 . S
C220 H232 0.960 . S
C220 H233 0.962 . S
C220 H234 0.960 . S
C221 C218 1.511 . S
C221 H235 0.961 . S
C221 H236 0.961 . S
C221 H237 0.961 . S
C222 C223 1.370 . S
C222 C224 1.363 . S
C222 H238 0.931 . S
C223 C222 1.370 . S
C223 C227 1.408 1_556 S
C224 C222 1.363 . S
C224 C225 1.370 . S
C224 C228 1.524 . S
C225 C217 1.503 . S
C225 C224 1.370 . S
C225 C226 1.403 1_556 S
C226 C225 1.403 1_554 S
C226 C227 1.404 . S
C226 C229 1.539 . S
C227 C223 1.408 1_554 S
C227 C226 1.404 . S
C227 H239 0.930 . S
C228 C224 1.524 . S
C228 H240 0.956 . S
C228 H241 0.961 . S
C228 H242 0.961 . S
C229 C226 1.539 . S
C229 H243 0.958 . S
C229 H244 0.961 . S
C229 H245 0.960 . S
H230 C214 0.931 . S
H231 C219 0.929 . S
H232 C220 0.960 . S
H233 C220 0.962 . S
H234 C220 0.960 . S
H235 C221 0.961 . S
H236 C221 0.961 . S
H237 C221 0.961 . S
H238 C222 0.931 . S
H239 C227 0.930 . S
H240 C228 0.956 . S
H241 C228 0.961 . S
H242 C228 0.961 . S
H243 C229 0.958 . S
H244 C229 0.961 . S
H245 C229 0.960 . S
C246 C247 1.391 . S
C246 C248 1.394 . S
C246 H262 0.931 . S
C247 C246 1.391 . S
C247 C251 1.376 . S
C248 C246 1.394 . S
C248 C249 1.369 . S
C248 C252 1.531 . S
C249 C248 1.369 . S
C249 C250 1.410 . S
C249 C257 1.503 . S
C250 C249 1.410 . S
C250 C251 1.392 . S
C250 C253 1.511 . S
C251 C247 1.376 . S
C251 C250 1.392 . S
C251 H263 0.929 . S
C252 C248 1.531 . S
C252 H264 0.960 . S
C252 H265 0.962 . S
C252 H266 0.960 . S
C253 C250 1.511 . S
C253 H267 0.961 . S
C253 H268 0.961 . S
C253 H269 0.961 . S
C254 C255 1.370 . S
C254 C256 1.363 . S
C254 H270 0.931 . S
C255 C254 1.370 . S
C255 C259 1.408 . S
C256 C254 1.363 . S
C256 C257 1.370 . S
C256 C260 1.524 . S
C257 C249 1.503 . S
C257 C256 1.370 . S
C257 C258 1.403 . S
C258 C257 1.403 . S
C258 C259 1.404 . S
C258 C261 1.539 . S
C259 C255 1.408 . S
C259 C258 1.404 . S
C259 H271 0.930 . S
C260 C256 1.524 . S
C260 H272 0.956 . S
C260 H273 0.961 . S
C260 H274 0.961 . S
C261 C258 1.539 . S
C261 H275 0.958 . S
C261 H276 0.961 . S
C261 H277 0.960 . S
H262 C246 0.931 . S
H263 C251 0.929 . S
H264 C252 0.960 . S
H265 C252 0.962 . S
H266 C252 0.960 . S
H267 C253 0.961 . S
H268 C253 0.961 . S
H269 C253 0.961 . S
H270 C254 0.931 . S
H271 C259 0.930 . S
H272 C260 0.956 . S
H273 C260 0.961 . S
H274 C260 0.961 . S
H275 C261 0.958 . S
H276 C261 0.961 . S
H277 C261 0.960 . S
C278 C279 1.391 . S
C278 C280 1.394 . S
C278 H294 0.931 . S
C279 C278 1.391 . S
C279 C283 1.376 . S
C280 C278 1.394 . S
C280 C281 1.369 . S
C280 C284 1.531 . S
C281 C280 1.369 . S
C281 C282 1.410 . S
C281 C289 1.503 . S
C282 C281 1.410 . S
C282 C283 1.392 . S
C282 C285 1.511 . S
C283 C279 1.376 . S
C283 C282 1.392 . S
C283 H295 0.929 . S
C284 C280 1.531 . S
C284 H296 0.960 . S
C284 H297 0.962 . S
C284 H298 0.960 . S
C285 C282 1.511 . S
C285 H299 0.961 . S
C285 H300 0.961 . S
C285 H301 0.961 . S
C286 C287 1.370 . S
C286 C288 1.363 . S
C286 H302 0.931 . S
C287 C286 1.370 . S
C287 C291 1.408 . S
C288 C286 1.363 . S
C288 C289 1.370 . S
C288 C292 1.524 . S
C289 C281 1.503 . S
C289 C288 1.370 . S
C289 C290 1.403 . S
C290 C289 1.403 . S
C290 C291 1.404 . S
C290 C293 1.539 . S
C291 C287 1.408 . S
C291 C290 1.404 . S
C291 H303 0.930 . S
C292 C288 1.524 . S
C292 H304 0.956 . S
C292 H305 0.961 . S
C292 H306 0.961 . S
C293 C290 1.539 . S
C293 H307 0.958 . S
C293 H308 0.961 . S
C293 H309 0.960 . S
H294 C278 0.931 . S
H295 C283 0.929 . S
H296 C284 0.960 . S
H297 C284 0.962 . S
H298 C284 0.960 . S
H299 C285 0.961 . S
H300 C285 0.961 . S
H301 C285 0.961 . S
H302 C286 0.931 . S
H303 C291 0.930 . S
H304 C292 0.956 . S
H305 C292 0.961 . S
H306 C292 0.961 . S
H307 C293 0.958 . S
H308 C293 0.961 . S
H309 C293 0.960 . S
C310 C311 1.391 . S
C310 C312 1.394 . S
C310 H326 0.931 . S
C311 C310 1.391 . S
C311 C315 1.376 . S
C312 C310 1.394 . S
C312 C313 1.369 . S
C312 C316 1.531 . S
C313 C312 1.369 . S
C313 C314 1.410 . S
C313 C321 1.503 . S
C314 C313 1.410 . S
C314 C315 1.392 . S
C314 C317 1.511 . S
C315 C311 1.376 . S
C315 C314 1.392 . S
C315 H327 0.929 . S
C316 C312 1.531 . S
C316 H328 0.960 . S
C316 H329 0.962 . S
C316 H330 0.960 . S
C317 C314 1.511 . S
C317 H331 0.961 . S
C317 H332 0.961 . S
C317 H333 0.961 . S
C318 C319 1.370 . S
C318 C320 1.363 . S
C318 H334 0.931 . S
C319 C318 1.370 . S
C319 C323 1.408 . S
C320 C318 1.363 . S
C320 C321 1.370 . S
C320 C324 1.524 . S
C321 C313 1.503 . S
C321 C320 1.370 . S
C321 C322 1.403 . S
C322 C321 1.403 . S
C322 C323 1.404 . S
C322 C325 1.539 . S
C323 C319 1.408 . S
C323 C322 1.404 . S
C323 H335 0.930 . S
C324 C320 1.524 . S
C324 H336 0.956 . S
C324 H337 0.961 . S
C324 H338 0.961 . S
C325 C322 1.539 . S
C325 H339 0.958 . S
C325 H340 0.961 . S
C325 H341 0.960 . S
H326 C310 0.931 . S
H327 C315 0.929 . S
H328 C316 0.960 . S
H329 C316 0.962 . S
H330 C316 0.960 . S
H331 C317 0.961 . S
H332 C317 0.961 . S
H333 C317 0.961 . S
H334 C318 0.931 . S
H335 C323 0.930 . S
H336 C324 0.956 . S
H337 C324 0.961 . S
H338 C324 0.961 . S
H339 C325 0.958 . S
H340 C325 0.961 . S
H341 C325 0.960 . S
C342 C343 1.391 . S
C342 C344 1.394 . S
C342 H358 0.931 . S
C343 C342 1.391 . S
C343 C347 1.376 . S
C344 C342 1.394 . S
C344 C345 1.369 . S
C344 C348 1.531 . S
C345 C344 1.369 . S
C345 C346 1.410 . S
C345 C353 1.503 . S
C346 C345 1.410 . S
C346 C347 1.392 . S
C346 C349 1.511 . S
C347 C343 1.376 . S
C347 C346 1.392 . S
C347 H359 0.929 . S
C348 C344 1.531 . S
C348 H360 0.960 . S
C348 H361 0.962 . S
C348 H362 0.960 . S
C349 C346 1.511 . S
C349 H363 0.961 . S
C349 H364 0.961 . S
C349 H365 0.961 . S
C350 C351 1.370 . S
C350 C352 1.363 . S
C350 H366 0.931 . S
C351 C350 1.370 . S
C351 C355 1.408 . S
C352 C350 1.363 . S
C352 C353 1.370 . S
C352 C356 1.524 . S
C353 C345 1.503 . S
C353 C352 1.370 . S
C353 C354 1.403 . S
C354 C353 1.403 . S
C354 C355 1.404 . S
C354 C357 1.539 . S
C355 C351 1.408 . S
C355 C354 1.404 . S
C355 H367 0.930 . S
C356 C352 1.524 . S
C356 H368 0.956 . S
C356 H369 0.961 . S
C356 H370 0.961 . S
C357 C354 1.539 . S
C357 H371 0.958 . S
C357 H372 0.961 . S
C357 H373 0.960 . S
H358 C342 0.931 . S
H359 C347 0.929 . S
H360 C348 0.960 . S
H361 C348 0.962 . S
H362 C348 0.960 . S
H363 C349 0.961 . S
H364 C349 0.961 . S
H365 C349 0.961 . S
H366 C350 0.931 . S
H367 C355 0.930 . S
H368 C356 0.956 . S
H369 C356 0.961 . S
H370 C356 0.961 . S
H371 C357 0.958 . S
H372 C357 0.961 . S
H373 C357 0.960 . S
C374 C375 1.391 . S
C374 C376 1.394 . S
C374 H390 0.931 . S
C375 C374 1.391 . S
C375 C379 1.376 1_545 S
C376 C374 1.394 . S
C376 C377 1.369 . S
C376 C380 1.531 . S
C377 C376 1.369 . S
C377 C378 1.410 1_545 S
C377 C385 1.502 1_545 S
C378 C377 1.410 1_565 S
C378 C379 1.392 . S
C378 C381 1.511 1_455 S
C379 C375 1.376 1_565 S
C379 C378 1.392 . S
C379 H391 0.929 . S
C380 C376 1.531 . S
C380 H392 0.960 . S
C380 H393 0.962 . S
C380 H394 0.960 . S
C381 C378 1.511 1_655 S
C381 H395 0.961 . S
C381 H396 0.961 . S
C381 H397 0.961 . S
C382 C383 1.370 . S
C382 C384 1.363 . S
C382 H398 0.931 . S
C383 C382 1.370 . S
C383 C387 1.408 1_565 S
C384 C382 1.363 . S
C384 C385 1.375 . S
C384 C388 1.524 . S
C385 C377 1.502 1_565 S
C385 C384 1.375 . S
C385 C386 1.399 1_565 S
C386 C385 1.399 1_545 S
C386 C387 1.404 . S
C386 C389 1.539 . S
C387 C383 1.408 1_545 S
C387 C386 1.404 . S
C387 H399 0.930 . S
C388 C384 1.524 . S
C388 H400 0.956 . S
C388 H401 0.961 . S
C388 H402 0.961 . S
C389 C386 1.539 . S
C389 H403 0.958 . S
C389 H404 0.961 1_455 S
C389 H405 0.960 . S
H390 C374 0.931 . S
H391 C379 0.929 . S
H392 C380 0.960 . S
H393 C380 0.962 . S
H394 C380 0.960 . S
H395 C381 0.961 . S
H396 C381 0.961 . S
H397 C381 0.961 . S
H398 C382 0.931 . S
H399 C387 0.930 . S
H400 C388 0.956 . S
H401 C388 0.961 . S
H402 C388 0.961 . S
H403 C389 0.958 . S
H404 C389 0.961 1_655 S
H405 C389 0.960 . S
C406 C407 1.391 1_565 S
C406 C408 1.394 . S
C406 H422 0.931 . S
C407 C406 1.391 1_545 S
C407 C411 1.376 1_455 S
C408 C406 1.394 . S
C408 C409 1.369 1_565 S
C408 C412 1.531 . S
C409 C408 1.369 1_545 S
C409 C410 1.410 1_455 S
C409 C417 1.504 1_455 S
C410 C409 1.410 1_655 S
C410 C411 1.392 . S
C410 C413 1.511 . S
C411 C407 1.376 1_655 S
C411 C410 1.392 . S
C411 H423 0.929 . S
C412 C408 1.531 . S
C412 H424 0.960 . S
C412 H425 0.962 1_565 S
C412 H426 0.960 . S
C413 C410 1.511 . S
C413 H427 0.961 . S
C413 H428 0.961 . S
C413 H429 0.961 . S
C414 C415 1.370 1_455 S
C414 C416 1.363 . S
C414 H430 0.931 . S
C415 C414 1.370 1_655 S
C415 C419 1.408 1_545 S
C416 C414 1.363 . S
C416 C417 1.369 1_455 S
C416 C420 1.524 . S
C417 C409 1.504 1_655 S
C417 C416 1.369 1_655 S
C417 C418 1.403 1_545 S
C418 C417 1.403 1_565 S
C418 C419 1.404 . S
C418 C421 1.539 . S
C419 C415 1.408 1_565 S
C419 C418 1.404 . S
C419 H431 0.930 . S
C420 C416 1.524 . S
C420 H432 0.956 . S
C420 H433 0.961 . S
C420 H434 0.961 . S
C421 C418 1.539 . S
C421 H435 0.958 . S
C421 H436 0.961 . S
C421 H437 0.960 . S
H422 C406 0.931 . S
H423 C411 0.929 . S
H424 C412 0.960 . S
H425 C412 0.962 1_545 S
H426 C412 0.960 . S
H427 C413 0.961 . S
H428 C413 0.961 . S
H429 C413 0.961 . S
H430 C414 0.931 . S
H431 C419 0.930 . S
H432 C420 0.956 . S
H433 C420 0.961 . S
H434 C420 0.961 . S
H435 C421 0.958 . S
H436 C421 0.961 . S
H437 C421 0.960 . S
C438 C439 1.391 . S
C438 C440 1.394 . S
C438 H454 0.931 . S
C439 C438 1.391 . S
C439 C443 1.376 . S
C440 C438 1.394 . S
C440 C441 1.369 . S
C440 C444 1.531 . S
C441 C440 1.369 . S
C441 C442 1.410 . S
C441 C449 1.503 . S
C442 C441 1.410 . S
C442 C443 1.392 . S
C442 C445 1.511 . S
C443 C439 1.376 . S
C443 C442 1.392 . S
C443 H455 0.929 . S
C444 C440 1.531 . S
C444 H456 0.960 . S
C444 H457 0.962 . S
C444 H458 0.960 . S
C445 C442 1.511 . S
C445 H459 0.961 . S
C445 H460 0.961 . S
C445 H461 0.961 . S
C446 C447 1.370 . S
C446 C448 1.363 . S
C446 H462 0.931 . S
C447 C446 1.370 . S
C447 C451 1.408 . S
C448 C446 1.363 . S
C448 C449 1.370 . S
C448 C452 1.524 . S
C449 C441 1.503 . S
C449 C448 1.370 . S
C449 C450 1.403 . S
C450 C449 1.403 . S
C450 C451 1.404 . S
C450 C453 1.539 . S
C451 C447 1.408 . S
C451 C450 1.404 . S
C451 H463 0.930 . S
C452 C448 1.524 . S
C452 H464 0.956 . S
C452 H465 0.961 . S
C452 H466 0.961 . S
C453 C450 1.539 . S
C453 H467 0.958 . S
C453 H468 0.961 . S
C453 H469 0.960 . S
H454 C438 0.931 . S
H455 C443 0.929 . S
H456 C444 0.960 . S
H457 C444 0.962 . S
H458 C444 0.960 . S
H459 C445 0.961 . S
H460 C445 0.961 . S
H461 C445 0.961 . S
H462 C446 0.931 . S
H463 C451 0.930 . S
H464 C452 0.956 . S
H465 C452 0.961 . S
H466 C452 0.961 . S
H467 C453 0.958 . S
H468 C453 0.961 . S
H469 C453 0.960 . S
C470 C471 1.391 . S
C470 C472 1.394 . S
C470 H486 0.931 . S
C471 C470 1.391 . S
C471 C475 1.376 . S
C472 C470 1.394 . S
C472 C473 1.369 . S
C472 C476 1.531 . S
C473 C472 1.369 . S
C473 C474 1.410 . S
C473 C481 1.503 . S
C474 C473 1.410 . S
C474 C475 1.392 . S
C474 C477 1.511 . S
C475 C471 1.376 . S
C475 C474 1.392 . S
C475 H487 0.929 . S
C476 C472 1.531 . S
C476 H488 0.960 . S
C476 H489 0.962 . S
C476 H490 0.960 . S
C477 C474 1.511 . S
C477 H491 0.961 . S
C477 H492 0.961 . S
C477 H493 0.961 . S
C478 C479 1.370 . S
C478 C480 1.363 . S
C478 H494 0.931 . S
C479 C478 1.370 . S
C479 C483 1.408 . S
C480 C478 1.363 . S
C480 C481 1.370 . S
C480 C484 1.524 . S
C481 C473 1.503 . S
C481 C480 1.370 . S
C481 C482 1.403 . S
C482 C481 1.403 . S
C482 C483 1.404 . S
C482 C485 1.539 . S
C483 C479 1.408 . S
C483 C482 1.404 . S
C483 H495 0.930 . S
C484 C480 1.524 . S
C484 H496 0.956 . S
C484 H497 0.961 . S
C484 H498 0.961 . S
C485 C482 1.539 . S
C485 H499 0.958 . S
C485 H500 0.961 . S
C485 H501 0.960 . S
H486 C470 0.931 . S
H487 C475 0.929 . S
H488 C476 0.960 . S
H489 C476 0.962 . S
H490 C476 0.960 . S
H491 C477 0.961 . S
H492 C477 0.961 . S
H493 C477 0.961 . S
H494 C478 0.931 . S
H495 C483 0.930 . S
H496 C484 0.956 . S
H497 C484 0.961 . S
H498 C484 0.961 . S
H499 C485 0.958 . S
H500 C485 0.961 . S
H501 C485 0.960 . S
C127 C105 1.523 . S
C119 C16 1.410 . S
C151 C15 1.423 . S
C159 C91 1.420 . S
C183 C13 1.322 1_554 S
C191 C110 1.451 . S
C215 C14 1.494 . S
C223 C86 1.529 . S
C247 C37 1.353 . S
C255 C67 1.521 . S
C279 C36 1.428 . S
C287 C53 1.422 . S
C319 C72 1.449 . S
C311 C34 1.310 . S
C351 C48 1.526 . S
C343 C35 1.518 . S
C375 C17 1.625 . S
C383 C44 1.668 . S
C407 C18 1.392 . S
C415 C63 1.421 . S
C447 C82 1.668 . S
C439 C38 1.636 . S
C471 C39 1.430 . S
C479 C101 1.435 . S
