# Generated by pormake.
# Topology ptr, (4,4)-cn, num edge types: 1
# Building blocks:
#     Node 0, Type 0, BuildingBlock: GALJAG_clean_sbu_0, # of connection points: 4
#     Node 1, Type 0, BuildingBlock: GALJAG_clean_sbu_0, # of connection points: 4
#     Node 2, Type 0, BuildingBlock: GALJAG_clean_sbu_0, # of connection points: 4
#     Node 3, Type 0, BuildingBlock: GALJAG_clean_sbu_0, # of connection points: 4
#     Node 4, Type 0, BuildingBlock: GALJAG_clean_sbu_0, # of connection points: 4
#     Node 5, Type 0, BuildingBlock: GALJAG_clean_sbu_0, # of connection points: 4
#     Node 6, Type 0, BuildingBlock: GALJAG_clean_sbu_0, # of connection points: 4
#     Node 7, Type 0, BuildingBlock: GALJAG_clean_sbu_0, # of connection points: 4
#     Node 8, Type 0, BuildingBlock: GALJAG_clean_sbu_0, # of connection points: 4
#     Node 9, Type 0, BuildingBlock: GALJAG_clean_sbu_0, # of connection points: 4
#     Node 10, Type 0, BuildingBlock: GALJAG_clean_sbu_0, # of connection points: 4
#     Node 11, Type 0, BuildingBlock: GALJAG_clean_sbu_0, # of connection points: 4
#     Node 12, Type 0, BuildingBlock: GALJAG_clean_sbu_0, # of connection points: 4
#     Node 13, Type 0, BuildingBlock: GALJAG_clean_sbu_0, # of connection points: 4
#     Node 14, Type 0, BuildingBlock: GALJAG_clean_sbu_0, # of connection points: 4
#     Node 15, Type 0, BuildingBlock: GALJAG_clean_sbu_0, # of connection points: 4
#     Node 16, Type 0, BuildingBlock: GALJAG_clean_sbu_0, # of connection points: 4
#     Node 17, Type 0, BuildingBlock: GALJAG_clean_sbu_0, # of connection points: 4
#     Node 18, Type 1, BuildingBlock: MUDLON_clean_linker_0, # of connection points: 4
#     Node 19, Type 1, BuildingBlock: MUDLON_clean_linker_0, # of connection points: 4
#     Node 20, Type 1, BuildingBlock: MUDLON_clean_linker_0, # of connection points: 4
#     Node 21, Type 1, BuildingBlock: MUDLON_clean_linker_0, # of connection points: 4
#     Node 22, Type 1, BuildingBlock: MUDLON_clean_linker_0, # of connection points: 4
#     Node 23, Type 1, BuildingBlock: MUDLON_clean_linker_0, # of connection points: 4
#     Node 24, Type 1, BuildingBlock: MUDLON_clean_linker_0, # of connection points: 4
#     Node 25, Type 1, BuildingBlock: MUDLON_clean_linker_0, # of connection points: 4
#     Node 26, Type 1, BuildingBlock: MUDLON_clean_linker_0, # of connection points: 4
#     Node 27, Type 1, BuildingBlock: MUDLON_clean_linker_0, # of connection points: 4
#     Node 28, Type 1, BuildingBlock: MUDLON_clean_linker_0, # of connection points: 4
#     Node 29, Type 1, BuildingBlock: MUDLON_clean_linker_0, # of connection points: 4
#     Node 30, Type 1, BuildingBlock: MUDLON_clean_linker_0, # of connection points: 4
#     Node 31, Type 1, BuildingBlock: MUDLON_clean_linker_0, # of connection points: 4
#     Node 32, Type 1, BuildingBlock: MUDLON_clean_linker_0, # of connection points: 4
#     Node 33, Type 1, BuildingBlock: MUDLON_clean_linker_0, # of connection points: 4
#     Node 34, Type 1, BuildingBlock: MUDLON_clean_linker_0, # of connection points: 4
#     Node 35, Type 1, BuildingBlock: MUDLON_clean_linker_0, # of connection points: 4
#     Edge 36, Type (0, 1), BuildingBlock: UVAHIK_clean_linker_0, # of connection points: 2
#     Edge 37, Type (0, 1), BuildingBlock: UVAHIK_clean_linker_0, # of connection points: 2
#     Edge 38, Type (0, 1), BuildingBlock: UVAHIK_clean_linker_0, # of connection points: 2
#     Edge 39, Type (0, 1), BuildingBlock: UVAHIK_clean_linker_0, # of connection points: 2
#     Edge 40, Type (0, 1), BuildingBlock: UVAHIK_clean_linker_0, # of connection points: 2
#     Edge 41, Type (0, 1), BuildingBlock: UVAHIK_clean_linker_0, # of connection points: 2
#     Edge 42, Type (0, 1), BuildingBlock: UVAHIK_clean_linker_0, # of connection points: 2
#     Edge 43, Type (0, 1), BuildingBlock: UVAHIK_clean_linker_0, # of connection points: 2
#     Edge 44, Type (0, 1), BuildingBlock: UVAHIK_clean_linker_0, # of connection points: 2
#     Edge 45, Type (0, 1), BuildingBlock: UVAHIK_clean_linker_0, # of connection points: 2
#     Edge 46, Type (0, 1), BuildingBlock: UVAHIK_clean_linker_0, # of connection points: 2
#     Edge 47, Type (0, 1), BuildingBlock: UVAHIK_clean_linker_0, # of connection points: 2
#     Edge 48, Type (0, 1), BuildingBlock: UVAHIK_clean_linker_0, # of connection points: 2
#     Edge 49, Type (0, 1), BuildingBlock: UVAHIK_clean_linker_0, # of connection points: 2
#     Edge 50, Type (0, 1), BuildingBlock: UVAHIK_clean_linker_0, # of connection points: 2
#     Edge 51, Type (0, 1), BuildingBlock: UVAHIK_clean_linker_0, # of connection points: 2
#     Edge 52, Type (0, 1), BuildingBlock: UVAHIK_clean_linker_0, # of connection points: 2
#     Edge 53, Type (0, 1), BuildingBlock: UVAHIK_clean_linker_0, # of connection points: 2
#     Edge 54, Type (0, 1), BuildingBlock: UVAHIK_clean_linker_0, # of connection points: 2
#     Edge 55, Type (0, 1), BuildingBlock: UVAHIK_clean_linker_0, # of connection points: 2
#     Edge 56, Type (0, 1), BuildingBlock: UVAHIK_clean_linker_0, # of connection points: 2
#     Edge 57, Type (0, 1), BuildingBlock: UVAHIK_clean_linker_0, # of connection points: 2
#     Edge 58, Type (0, 1), BuildingBlock: UVAHIK_clean_linker_0, # of connection points: 2
#     Edge 59, Type (0, 1), BuildingBlock: UVAHIK_clean_linker_0, # of connection points: 2
#     Edge 60, Type (0, 1), BuildingBlock: UVAHIK_clean_linker_0, # of connection points: 2
#     Edge 61, Type (0, 1), BuildingBlock: UVAHIK_clean_linker_0, # of connection points: 2
#     Edge 62, Type (0, 1), BuildingBlock: UVAHIK_clean_linker_0, # of connection points: 2
#     Edge 63, Type (0, 1), BuildingBlock: UVAHIK_clean_linker_0, # of connection points: 2
#     Edge 64, Type (0, 1), BuildingBlock: UVAHIK_clean_linker_0, # of connection points: 2
#     Edge 65, Type (0, 1), BuildingBlock: UVAHIK_clean_linker_0, # of connection points: 2
#     Edge 66, Type (0, 1), BuildingBlock: UVAHIK_clean_linker_0, # of connection points: 2
#     Edge 67, Type (0, 1), BuildingBlock: UVAHIK_clean_linker_0, # of connection points: 2
#     Edge 68, Type (0, 1), BuildingBlock: UVAHIK_clean_linker_0, # of connection points: 2
#     Edge 69, Type (0, 1), BuildingBlock: UVAHIK_clean_linker_0, # of connection points: 2
#     Edge 70, Type (0, 1), BuildingBlock: UVAHIK_clean_linker_0, # of connection points: 2
#     Edge 71, Type (0, 1), BuildingBlock: UVAHIK_clean_linker_0, # of connection points: 2
#     Edge 72, Type (0, 1), BuildingBlock: UVAHIK_clean_linker_0, # of connection points: 2
#     Edge 73, Type (0, 1), BuildingBlock: UVAHIK_clean_linker_0, # of connection points: 2
#     Edge 74, Type (0, 1), BuildingBlock: UVAHIK_clean_linker_0, # of connection points: 2
#     Edge 75, Type (0, 1), BuildingBlock: UVAHIK_clean_linker_0, # of connection points: 2
#     Edge 76, Type (0, 1), BuildingBlock: UVAHIK_clean_linker_0, # of connection points: 2
#     Edge 77, Type (0, 1), BuildingBlock: UVAHIK_clean_linker_0, # of connection points: 2
#     Edge 78, Type (0, 1), BuildingBlock: UVAHIK_clean_linker_0, # of connection points: 2
#     Edge 79, Type (0, 1), BuildingBlock: UVAHIK_clean_linker_0, # of connection points: 2
#     Edge 80, Type (0, 1), BuildingBlock: UVAHIK_clean_linker_0, # of connection points: 2
#     Edge 81, Type (0, 1), BuildingBlock: UVAHIK_clean_linker_0, # of connection points: 2
#     Edge 82, Type (0, 1), BuildingBlock: UVAHIK_clean_linker_0, # of connection points: 2
#     Edge 83, Type (0, 1), BuildingBlock: UVAHIK_clean_linker_0, # of connection points: 2
#     Edge 84, Type (0, 1), BuildingBlock: UVAHIK_clean_linker_0, # of connection points: 2
#     Edge 85, Type (0, 1), BuildingBlock: UVAHIK_clean_linker_0, # of connection points: 2
#     Edge 86, Type (0, 1), BuildingBlock: UVAHIK_clean_linker_0, # of connection points: 2
#     Edge 87, Type (0, 1), BuildingBlock: UVAHIK_clean_linker_0, # of connection points: 2
#     Edge 88, Type (0, 1), BuildingBlock: UVAHIK_clean_linker_0, # of connection points: 2
#     Edge 89, Type (0, 1), BuildingBlock: UVAHIK_clean_linker_0, # of connection points: 2
#     Edge 90, Type (0, 1), BuildingBlock: UVAHIK_clean_linker_0, # of connection points: 2
#     Edge 91, Type (0, 1), BuildingBlock: UVAHIK_clean_linker_0, # of connection points: 2
#     Edge 92, Type (0, 1), BuildingBlock: UVAHIK_clean_linker_0, # of connection points: 2
#     Edge 93, Type (0, 1), BuildingBlock: UVAHIK_clean_linker_0, # of connection points: 2
#     Edge 94, Type (0, 1), BuildingBlock: UVAHIK_clean_linker_0, # of connection points: 2
#     Edge 95, Type (0, 1), BuildingBlock: UVAHIK_clean_linker_0, # of connection points: 2
#     Edge 96, Type (0, 1), BuildingBlock: UVAHIK_clean_linker_0, # of connection points: 2
#     Edge 97, Type (0, 1), BuildingBlock: UVAHIK_clean_linker_0, # of connection points: 2
#     Edge 98, Type (0, 1), BuildingBlock: UVAHIK_clean_linker_0, # of connection points: 2
#     Edge 99, Type (0, 1), BuildingBlock: UVAHIK_clean_linker_0, # of connection points: 2
#     Edge 100, Type (0, 1), BuildingBlock: UVAHIK_clean_linker_0, # of connection points: 2
#     Edge 101, Type (0, 1), BuildingBlock: UVAHIK_clean_linker_0, # of connection points: 2
#     Edge 102, Type (0, 1), BuildingBlock: UVAHIK_clean_linker_0, # of connection points: 2
#     Edge 103, Type (0, 1), BuildingBlock: UVAHIK_clean_linker_0, # of connection points: 2
#     Edge 104, Type (0, 1), BuildingBlock: UVAHIK_clean_linker_0, # of connection points: 2
#     Edge 105, Type (0, 1), BuildingBlock: UVAHIK_clean_linker_0, # of connection points: 2
#     Edge 106, Type (0, 1), BuildingBlock: UVAHIK_clean_linker_0, # of connection points: 2
#     Edge 107, Type (0, 1), BuildingBlock: UVAHIK_clean_linker_0, # of connection points: 2
# Relax obj value: 0.052
# Max RMSD: 0.089
# Mean RMSD: 0.080
data_MOF--net-ptr--node1-GALJAG_clean_sbu_0--node2-MUDLON_clean_linker_0--edge1-UVAHIK_clean_linker_0
_symmetry_space_group_name_H-M    P1
_symmetry_Int_Tables_number       1
_symmetry_cell_setting            triclinic
loop_
_symmetry_equiv_pos_as_xyz
'x, y, z'
_cell_length_a     126.44074
_cell_length_b     126.58515
_cell_length_c     81.145891
_cell_angle_alpha  89.988503
_cell_angle_beta   90.042336
_cell_angle_gamma 120.11157
loop_
_atom_site_label
_atom_site_type_symbol
_atom_site_fract_x
_atom_site_fract_y
_atom_site_fract_z
_atom_type_partial_charge
In0 In 0.01209 0.37857 0.01399 0.0
O1 O 0.00523 0.38105 0.03909 0.0
O2 O 0.02093 0.3962 0.02875 0.0
C3 C 0.99346 0.35597 0.00725 0.0
C4 C 0.03136 0.37549 0.02032 0.0
C5 C 0.00959 0.39035 0.98781 0.0
O6 O 0.99312 0.36225 0.01913 0.0
O7 O 0.0032 0.36108 0.9989 0.0
O8 O 0.01784 0.38754 0.98855 0.0
O9 O 0.00267 0.38724 0.00022 0.0
C10 C 0.0135 0.39209 0.04058 0.0
O11 O 0.03237 0.38442 0.01213 0.0
O12 O 0.02067 0.3681 0.02515 0.0
In13 In 0.64307 0.64319 0.01721 0.0
O14 O 0.64064 0.62973 0.03767 0.0
O15 O 0.6269 0.63461 0.03478 0.0
C16 C 0.66636 0.65042 0.00826 0.0
C17 C 0.64521 0.66473 0.02622 0.0
C18 C 0.62921 0.62854 0.9924 0.0
O19 O 0.66207 0.64562 0.02209 0.0
O20 O 0.65896 0.6516 0.99913 0.0
O21 O 0.62957 0.63844 0.99585 0.0
O22 O 0.63576 0.62605 0.00148 0.0
C23 C 0.63062 0.6285 0.04268 0.0
O24 O 0.64128 0.66006 0.01221 0.0
O25 O 0.64815 0.65862 0.0355 0.0
In26 In 0.37295 0.00751 0.01349 0.0
O27 O 0.37584 0.02683 0.01557 0.0
O28 O 0.36346 0.01497 0.9974 0.0
C29 C 0.38683 0.00749 0.03886 0.0
C30 C 0.38571 0.00679 0.98726 0.0
C31 C 0.35046 0.98988 0.02303 0.0
O32 O 0.38467 0.0161 0.03658 0.0
O33 O 0.38205 0.99903 0.02836 0.0
O34 O 0.35574 0.98884 0.01047 0.0
O35 O 0.35649 0.99983 0.03071 0.0
C36 C 0.36853 0.02539 0.00403 0.0
O37 O 0.37579 0.99768 0.99187 0.0
O38 O 0.38919 0.01627 0.99586 0.0
In39 In 0.00728 0.64153 0.01494 0.0
O40 O 0.01781 0.64007 0.99289 0.0
O41 O 1.00029 0.62492 0.99816 0.0
C42 C 0.02825 0.66222 0.02276 0.0
C43 C 0.98941 0.64597 0.005 0.0
C44 C 0.00227 0.62832 0.04298 0.0
O45 O 0.02735 0.65184 0.02311 0.0
O46 O 0.01865 0.66215 0.01835 0.0
O47 O 0.0036 0.63888 0.04271 0.0
O48 O 0.00329 0.6244 0.02914 0.0
C49 C 0.00958 0.62942 0.989 0.0
O50 O 0.98828 0.63962 0.01757 0.0
O51 O 0.99946 0.65001 0.9976 0.0
In52 In 0.37679 0.37701 0.01619 0.0
O53 O 0.37604 0.38413 0.99045 0.0
O54 O 0.39324 0.39183 0.00249 0.0
C55 C 0.35465 0.37352 0.02472 0.0
C56 C 0.37474 0.35547 0.00671 0.0
C57 C 0.38977 0.38802 0.04372 0.0
O58 O 0.36069 0.38025 0.01276 0.0
O59 O 0.35978 0.36856 0.03226 0.0
O60 O 0.38843 0.37804 0.03848 0.0
O61 O 0.38455 0.39238 0.03515 0.0
C62 C 0.38737 0.39166 0.98984 0.0
O63 O 0.3848 0.36535 0.00697 0.0
O64 O 0.36575 0.35642 0.01132 0.0
In65 In 0.64238 0.00779 0.01605 0.0
O66 O 0.64101 0.01848 0.03786 0.0
O67 O 0.62506 0.00198 0.03092 0.0
C68 C 0.66556 0.0248 0.0081 0.0
C69 C 0.64516 0.98895 0.0262 0.0
C70 C 0.62876 0.00693 0.9898 0.0
O71 O 0.65966 0.02642 0.01941 0.0
O72 O 0.65981 0.0146 0.00096 0.0
O73 O 0.62724 0.99745 0.99705 0.0
O74 O 0.63714 0.0168 0.99576 0.0
C75 C 0.62986 0.011 0.04059 0.0
O76 O 0.64302 0.99027 0.01139 0.0
O77 O 0.64595 0.99713 0.03582 0.0
In78 In 0.67644 0.7104 0.34694 0.0
O79 O 0.66792 0.71289 0.3705 0.0
O80 O 0.68246 0.72867 0.35927 0.0
C81 C 0.65835 0.68749 0.33973 0.0
C82 C 0.69489 0.70735 0.35807 0.0
C83 C 0.67867 0.72318 0.31918 0.0
O84 O 0.65629 0.6952 0.34667 0.0
O85 O 0.66946 0.69129 0.33671 0.0
O86 O 0.68775 0.7237 0.32644 0.0
O87 O 0.66851 0.71619 0.32586 0.0
C88 C 0.6749 0.72434 0.37096 0.0
O89 O 0.69372 0.70918 0.34306 0.0
O90 O 0.68671 0.70695 0.3674 0.0
In91 In 0.30946 0.97739 0.34941 0.0
O92 O 0.30831 0.96676 0.37269 0.0
O93 O 0.29361 0.96989 0.36771 0.0
C94 C 0.33118 0.98035 0.33941 0.0
C95 C 0.31416 0.99985 0.35851 0.0
C96 C 0.29504 0.96418 0.32388 0.0
O97 O 0.32406 0.97182 0.34886 0.0
O98 O 0.3274 0.98743 0.33503 0.0
O99 O 0.29966 0.97561 0.32476 0.0
O100 O 0.2976 0.95953 0.33584 0.0
C101 C 0.29807 0.96521 0.37715 0.0
O102 O 0.30562 0.99324 0.34867 0.0
O103 O 0.32026 0.99511 0.36369 0.0
In104 In 0.04074 0.34508 0.34876 0.0
O105 O 0.04644 0.36529 0.34943 0.0
O106 O 0.03028 0.35318 0.33623 0.0
C107 C 0.05294 0.34534 0.37633 0.0
C108 C 0.0534 0.34544 0.32168 0.0
C109 C 0.01866 0.32576 0.35627 0.0
O110 O 0.04882 0.3525 0.37437 0.0
O111 O 0.0509 0.33815 0.36447 0.0
O112 O 0.02692 0.3246 0.34923 0.0
O113 O 0.02149 0.33663 0.3594 0.0
C114 C 0.03758 0.364 0.34074 0.0
O115 O 0.04219 0.33778 0.32346 0.0
O116 O 0.05814 0.3528 0.33348 0.0
In117 In 0.67543 0.9763 0.34537 0.0
O118 O 0.68694 0.97507 0.32444 0.0
O119 O 0.66818 0.96145 0.32576 0.0
C120 C 0.69532 0.99767 0.35459 0.0
C121 C 0.657 0.97994 0.33605 0.0
C122 C 0.67065 0.96136 0.37159 0.0
O123 O 0.69511 0.98761 0.35487 0.0
O124 O 0.68559 0.99699 0.34948 0.0
O125 O 0.66932 0.97059 0.37214 0.0
O126 O 0.67413 0.95961 0.35784 0.0
C127 C 0.67822 0.96547 0.31832 0.0
O128 O 0.65631 0.97382 0.34872 0.0
O129 O 0.66695 0.98423 0.32829 0.0
In130 In 0.04117 0.71003 0.3511 0.0
O131 O 0.0423 0.72049 0.32755 0.0
O132 O 0.05807 0.71978 0.33494 0.0
C133 C 0.01904 0.70605 0.36118 0.0
C134 C 0.03811 0.68851 0.34019 0.0
C135 C 0.05505 0.7218 0.37767 0.0
O136 O 0.02634 0.7154 0.35306 0.0
O137 O 0.02288 0.69877 0.36405 0.0
O138 O 0.04989 0.71038 0.37596 0.0
O139 O 0.0532 0.72727 0.36603 0.0
C140 C 0.05327 0.72352 0.32455 0.0
O141 O 0.04528 0.69439 0.35186 0.0
O142 O 0.03248 0.69347 0.3341 0.0
In143 In 0.30928 0.34179 0.34966 0.0
O144 O 0.30859 0.32363 0.34435 0.0
O145 O 0.31543 0.33211 0.36753 0.0
C146 C 0.29572 0.34294 0.32483 0.0
C147 C 0.29523 0.34146 0.37481 0.0
C148 C 0.3319 0.35949 0.34064 0.0
O149 O 0.29683 0.33367 0.32718 0.0
O150 O 0.30138 0.3515 0.33503 0.0
O151 O 0.3273 0.3597 0.35435 0.0
O152 O 0.3252 0.35035 0.33179 0.0
C153 C 0.31285 0.32317 0.35823 0.0
O154 O 0.306 0.35021 0.37267 0.0
O155 O 0.29162 0.33303 0.36425 0.0
In156 In 0.34124 0.04411 0.68373 0.0
O157 O 0.35773 0.04167 0.67816 0.0
O158 O 0.35562 0.04644 0.70249 0.0
C159 C 0.34433 0.05756 0.65635 0.0
C160 C 0.33628 0.05458 0.70931 0.0
C161 C 0.32335 0.02083 0.67784 0.0
O162 O 0.35279 0.06031 0.66665 0.0
O163 O 0.33441 0.04804 0.65981 0.0
O164 O 0.32109 0.029 0.68248 0.0
O165 O 0.33456 0.02435 0.67649 0.0
C166 C 0.36181 0.04398 0.69271 0.0
O167 O 0.33496 0.04403 0.71011 0.0
O168 O 0.3397 0.05969 0.69544 0.0
In169 In 0.97573 0.30894 0.68301 0.0
O170 O 0.97319 0.32538 0.67796 0.0
O171 O 0.98311 0.32578 0.6993 0.0
C172 C 0.96339 0.29901 0.65468 0.0
C173 C 0.96301 0.29518 0.70913 0.0
C174 C 0.99733 0.30993 0.6777 0.0
O175 O 0.97371 0.30864 0.65489 0.0
O176 O 0.95924 0.29461 0.6687 0.0
O177 O 0.98725 0.30003 0.67747 0.0
O178 O 0.99652 0.31924 0.6809 0.0
C179 C 0.97897 0.33117 0.69066 0.0
O180 O 0.97349 0.29696 0.7055 0.0
O181 O 0.95908 0.30034 0.69967 0.0
In182 In 0.70815 0.67708 0.68415 0.0
O183 O 0.70795 0.6948 0.68836 0.0
O184 O 0.70041 0.68521 0.66595 0.0
C185 C 0.72237 0.67999 0.71076 0.0
C186 C 0.72045 0.67515 0.65805 0.0
C187 C 0.68591 0.6586 0.69308 0.0
O188 O 0.72312 0.68888 0.7028 0.0
O189 O 0.71446 0.66968 0.70537 0.0
O190 O 0.69378 0.65687 0.68595 0.0
O191 O 0.68923 0.66967 0.69571 0.0
C192 C 0.7029 0.69439 0.67476 0.0
O193 O 0.70976 0.66696 0.66177 0.0
O194 O 0.72494 0.6843 0.66745 0.0
In195 In 0.34166 0.31027 0.68007 0.0
O196 O 0.35305 0.30763 0.66032 0.0
O197 O 0.33381 0.2959 0.65972 0.0
C198 C 0.35948 0.33222 0.69135 0.0
C199 C 0.32304 0.31431 0.67319 0.0
C200 C 0.33956 0.29441 0.70381 0.0
O201 O 0.35773 0.32976 0.6762 0.0
O202 O 0.35222 0.32373 0.7007 0.0
O203 O 0.33163 0.29756 0.70162 0.0
O204 O 0.34848 0.2992 0.69396 0.0
C205 C 0.344 0.29886 0.6533 0.0
O206 O 0.3224 0.3071 0.68437 0.0
O207 O 0.3331 0.31959 0.66562 0.0
In208 In 0.70901 0.0421 0.68686 0.0
O209 O 0.71071 0.05267 0.6632 0.0
O210 O 0.72558 0.05019 0.67002 0.0
C211 C 0.68739 0.0394 0.69675 0.0
C212 C 0.70456 0.01982 0.67715 0.0
C213 C 0.72285 0.05456 0.71311 0.0
O214 O 0.69412 0.04745 0.68642 0.0
O215 O 0.69155 0.03279 0.70185 0.0
O216 O 0.71676 0.04305 0.71269 0.0
O217 O 0.72206 0.05973 0.70029 0.0
C218 C 0.72128 0.05457 0.65979 0.0
O219 O 0.71322 0.02649 0.6868 0.0
O220 O 0.69817 0.02437 0.67254 0.0
In221 In 0.97669 0.67891 0.68288 0.0
O222 O 0.97389 0.65965 0.68055 0.0
O223 O 0.98843 0.6724 0.69571 0.0
C224 C 0.96121 0.67605 0.65806 0.0
C225 C 0.96465 0.68017 0.70979 0.0
C226 C 0.99862 0.6972 0.67266 0.0
O227 O 0.96337 0.66771 0.6623 0.0
O228 O 0.96677 0.68573 0.66641 0.0
O229 O 0.99509 0.69625 0.68741 0.0
O230 O 0.99116 0.68892 0.66316 0.0
C231 C 0.98262 0.66167 0.69006 0.0
O232 O 0.97169 0.68946 0.70139 0.0
O233 O 0.96372 0.67037 0.70464 0.0
H234 H 0.24665 0.38554 0.15671 0.0
N235 N 0.22805 0.37057 0.13766 0.0
H236 H 0.25332 0.38068 0.18249 0.0
H237 H 0.21673 0.34851 0.15349 0.0
H238 H 0.22322 0.34355 0.17942 0.0
H239 H 0.22637 0.34922 0.12711 0.0
H240 H 0.23923 0.34723 0.10638 0.0
H241 H 0.24373 0.38783 0.11744 0.0
H242 H 0.25687 0.38601 0.09685 0.0
H243 H 0.21681 0.37976 0.15506 0.0
H244 H 0.21032 0.35368 0.11651 0.0
H245 H 0.19539 0.37414 0.15424 0.0
H246 H 0.1892 0.34867 0.11479 0.0
H247 H 0.13938 0.36673 0.14769 0.0
H248 H 0.12952 0.36714 0.17343 0.0
H249 H 0.11904 0.32949 0.18241 0.0
H250 H 0.12894 0.32918 0.1566 0.0
H251 H 0.11738 0.3322 0.12246 0.0
H252 H 0.10619 0.33692 0.10215 0.0
H253 H 0.13821 0.37243 0.09451 0.0
H254 H 0.14895 0.36794 0.1156 0.0
H255 H 0.15898 0.36967 0.14081 0.0
H256 H 0.18047 0.37561 0.14002 0.0
H257 H 0.17039 0.33845 0.1277 0.0
N258 N 0.13946 0.34689 0.13446 0.0
H259 H 0.1489 0.3329 0.1273 0.0
C260 C 0.23124 0.36744 0.15325 0.0
C261 C 0.24147 0.37639 0.16171 0.0
C262 C 0.24521 0.3736 0.17645 0.0
C263 C 0.23877 0.36173 0.18304 0.0
C264 C 0.22843 0.35274 0.17458 0.0
C265 C 0.22468 0.35557 0.15981 0.0
C266 C 0.23411 0.36873 0.12382 0.0
C267 C 0.23285 0.35725 0.12037 0.0
C268 C 0.24027 0.35615 0.10856 0.0
C269 C 0.24918 0.36648 0.10006 0.0
C270 C 0.25003 0.37784 0.10302 0.0
C271 C 0.24256 0.37892 0.1148 0.0
C272 C 0.21533 0.3672 0.13599 0.0
C273 C 0.21081 0.37293 0.14627 0.0
C274 C 0.19854 0.36978 0.14564 0.0
C275 C 0.19045 0.36095 0.13438 0.0
C276 C 0.19503 0.35533 0.12386 0.0
C277 C 0.20728 0.35831 0.12475 0.0
C278 C 0.13491 0.34789 0.1503 0.0
C279 C 0.13519 0.35865 0.15536 0.0
C280 C 0.12954 0.35887 0.17007 0.0
C281 C 0.12343 0.34832 0.17988 0.0
C282 C 0.12353 0.33771 0.175 0.0
C283 C 0.12924 0.33753 0.16037 0.0
C284 C 0.13401 0.3496 0.12063 0.0
C285 C 0.12201 0.34094 0.11622 0.0
C286 C 0.11566 0.34366 0.10448 0.0
C287 C 0.12124 0.35511 0.09658 0.0
C288 C 0.13348 0.36362 0.10053 0.0
C289 C 0.13975 0.36097 0.11255 0.0
C290 C 0.15232 0.35084 0.13381 0.0
C291 C 0.16139 0.36285 0.13764 0.0
C292 C 0.17373 0.3662 0.13741 0.0
C293 C 0.1773 0.35753 0.13384 0.0
C294 C 0.16813 0.34548 0.13015 0.0
C295 C 0.1558 0.34224 0.13003 0.0
H296 H 0.70313 0.80223 0.13807 0.0
N297 N 0.68693 0.8082 0.12759 0.0
H298 H 0.70314 0.79268 0.16428 0.0
H299 H 0.67153 0.80408 0.1538 0.0
H300 H 0.67172 0.79497 0.18007 0.0
H301 H 0.66285 0.79026 0.12931 0.0
H302 H 0.65278 0.77225 0.11158 0.0
H303 H 0.69535 0.8046 0.09949 0.0
H304 H 0.68529 0.78663 0.08156 0.0
H305 H 0.70586 0.83015 0.12192 0.0
H306 H 0.66697 0.81127 0.13007 0.0
H307 H 0.70624 0.84958 0.12092 0.0
H308 H 0.66732 0.83069 0.13056 0.0
H309 H 0.70509 0.91093 0.14038 0.0
H310 H 0.70437 0.91975 0.16684 0.0
H311 H 0.67324 0.88518 0.1811 0.0
H312 H 0.67383 0.8766 0.15431 0.0
H313 H 0.66569 0.883 0.13002 0.0
H314 H 0.65617 0.89147 0.11226 0.0
H315 H 0.68939 0.91011 0.08366 0.0
H316 H 0.69887 0.90159 0.10157 0.0
H317 H 0.7065 0.88341 0.13826 0.0
H318 H 0.70542 0.86368 0.13779 0.0
H319 H 0.66924 0.84741 0.11636 0.0
N320 N 0.68965 0.88876 0.12904 0.0
H321 H 0.67006 0.86695 0.1181 0.0
C322 C 0.68742 0.80395 0.14391 0.0
C323 C 0.69637 0.80081 0.14732 0.0
C324 C 0.69637 0.79539 0.16232 0.0
C325 C 0.68739 0.793 0.17428 0.0
C326 C 0.67865 0.79651 0.17104 0.0
C327 C 0.67862 0.80187 0.15601 0.0
C328 C 0.67994 0.79873 0.11577 0.0
C329 C 0.66773 0.78969 0.11874 0.0
C330 C 0.662 0.77936 0.10863 0.0
C331 C 0.66829 0.77799 0.09529 0.0
C332 C 0.68018 0.78747 0.09168 0.0
C333 C 0.68594 0.79772 0.10189 0.0
C334 C 0.68649 0.81932 0.12637 0.0
C335 C 0.69742 0.83025 0.12365 0.0
C336 C 0.69761 0.84137 0.12329 0.0
C337 C 0.68685 0.84185 0.12602 0.0
C338 C 0.6758 0.83077 0.12832 0.0
C339 C 0.67559 0.81961 0.12828 0.0
C340 C 0.68959 0.89315 0.14542 0.0
C341 C 0.69822 0.90525 0.14933 0.0
C342 C 0.69781 0.91023 0.16449 0.0
C343 C 0.68875 0.90318 0.17615 0.0
C344 C 0.68025 0.89092 0.17234 0.0
C345 C 0.68063 0.88596 0.15709 0.0
C346 C 0.68307 0.89177 0.11716 0.0
C347 C 0.67086 0.88874 0.11978 0.0
C348 C 0.66544 0.89361 0.10965 0.0
C349 C 0.67208 0.90156 0.09668 0.0
C350 C 0.68401 0.90395 0.09348 0.0
C351 C 0.68945 0.89912 0.10368 0.0
C352 C 0.68849 0.87681 0.12813 0.0
C353 C 0.69833 0.87556 0.13352 0.0
C354 C 0.69772 0.86425 0.13305 0.0
C355 C 0.6873 0.85386 0.1268 0.0
C356 C 0.67738 0.85511 0.12143 0.0
C357 C 0.6779 0.86641 0.12226 0.0
H358 H 0.13372 0.7833 0.1478 0.0
N359 N 0.13406 0.80243 0.13146 0.0
H360 H 0.12411 0.77485 0.17425 0.0
H361 H 0.12298 0.8106 0.15129 0.0
H362 H 0.11338 0.80224 0.17807 0.0
H363 H 0.11351 0.79492 0.11479 0.0
H364 H 0.10376 0.77779 0.09565 0.0
H365 H 0.14421 0.78919 0.11955 0.0
H366 H 0.13476 0.77229 0.09992 0.0
H367 H 0.15325 0.80234 0.14747 0.0
H368 H 0.144 0.82293 0.11401 0.0
H369 H 0.17432 0.81877 0.14797 0.0
H370 H 0.1654 0.83921 0.11346 0.0
H371 H 0.23704 0.86967 0.15904 0.0
H372 H 0.2445 0.88121 0.18479 0.0
H373 H 0.21988 0.89522 0.17807 0.0
H374 H 0.21264 0.88385 0.15244 0.0
H375 H 0.21945 0.88914 0.1252 0.0
H376 H 0.23282 0.90361 0.10447 0.0
H377 H 0.2514 0.883 0.09909 0.0
H378 H 0.23784 0.86845 0.11981 0.0
H379 H 0.21362 0.84633 0.13769 0.0
H380 H 0.19276 0.82934 0.13418 0.0
H381 H 0.17996 0.85512 0.12938 0.0
N382 N 0.22121 0.86998 0.13787 0.0
H383 H 0.20085 0.87188 0.13164 0.0
C384 C 0.12906 0.79763 0.14754 0.0
C385 C 0.12939 0.78756 0.15432 0.0
C386 C 0.12393 0.78277 0.16953 0.0
C387 C 0.11798 0.78788 0.17826 0.0
C388 C 0.11779 0.79803 0.17155 0.0
C389 C 0.12331 0.80286 0.15635 0.0
C390 C 0.12956 0.79338 0.11854 0.0
C391 C 0.11827 0.79013 0.11134 0.0
C392 C 0.11275 0.78036 0.10035 0.0
C393 C 0.11846 0.77362 0.0962 0.0
C394 C 0.13003 0.77717 0.10299 0.0
C395 C 0.13552 0.78693 0.1141 0.0
C396 C 0.14691 0.8115 0.13095 0.0
C397 C 0.15573 0.81035 0.14009 0.0
C398 C 0.16792 0.81977 0.14018 0.0
C399 C 0.17166 0.83045 0.13085 0.0
C400 C 0.16288 0.8313 0.12115 0.0
C401 C 0.15065 0.82196 0.1213 0.0
C402 C 0.22429 0.87584 0.15378 0.0
C403 C 0.23315 0.8751 0.1633 0.0
C404 C 0.23737 0.88168 0.17799 0.0
C405 C 0.23282 0.88919 0.18343 0.0
C406 C 0.22369 0.88965 0.1741 0.0
C407 C 0.21946 0.88305 0.15943 0.0
C408 C 0.22768 0.87769 0.1241 0.0
C409 C 0.22621 0.88756 0.11939 0.0
C410 C 0.23394 0.8959 0.10758 0.0
C411 C 0.24324 0.89451 0.10023 0.0
C412 C 0.24426 0.88428 0.10438 0.0
C413 C 0.23656 0.87597 0.11624 0.0
C414 C 0.20881 0.86035 0.13524 0.0
C415 C 0.20628 0.84825 0.13575 0.0
C416 C 0.19432 0.83856 0.13388 0.0
C417 C 0.18455 0.84078 0.1317 0.0
C418 C 0.18719 0.85298 0.13086 0.0
C419 C 0.1992 0.86266 0.13244 0.0
H420 H 0.35757 0.23353 0.87994 0.0
N421 N 0.33868 0.21418 0.89591 0.0
H422 H 0.35682 0.24138 0.85283 0.0
H423 H 0.31994 0.20504 0.87496 0.0
H424 H 0.31914 0.21282 0.84754 0.0
H425 H 0.32492 0.22171 0.91053 0.0
H426 H 0.33146 0.23897 0.92924 0.0
H427 H 0.36166 0.22789 0.90915 0.0
H428 H 0.36824 0.24485 0.92846 0.0
H429 H 0.35812 0.21431 0.88025 0.0
H430 H 0.32913 0.19466 0.91533 0.0
H431 H 0.36366 0.19863 0.88174 0.0
H432 H 0.33525 0.17923 0.91794 0.0
H433 H 0.37736 0.14502 0.87942 0.0
H434 H 0.37341 0.13317 0.85395 0.0
H435 H 0.33729 0.12868 0.85135 0.0
H436 H 0.3411 0.14017 0.87687 0.0
H437 H 0.34042 0.1288 0.90444 0.0
H438 H 0.3381 0.11332 0.9243 0.0
H439 H 0.37637 0.13524 0.93701 0.0
H440 H 0.37842 0.15091 0.91758 0.0
H441 H 0.37723 0.17314 0.89427 0.0
H442 H 0.37255 0.1896 0.89644 0.0
H443 H 0.33443 0.16282 0.90433 0.0
N444 N 0.36188 0.14931 0.8961 0.0
H445 H 0.33944 0.14666 0.90344 0.0
C446 C 0.33875 0.21865 0.87951 0.0
C447 C 0.34916 0.22889 0.87296 0.0
C448 C 0.34874 0.23334 0.85738 0.0
C449 C 0.33792 0.22772 0.84803 0.0
C450 C 0.32758 0.21741 0.85451 0.0
C451 C 0.32803 0.21292 0.87009 0.0
C452 C 0.34272 0.22345 0.90852 0.0
C453 C 0.33434 0.22664 0.91462 0.0
C454 C 0.33811 0.23648 0.92538 0.0
C455 C 0.3504 0.24335 0.93042 0.0
C456 C 0.35874 0.23989 0.92469 0.0
C457 C 0.35497 0.23009 0.91377 0.0
C458 C 0.34293 0.20554 0.89742 0.0
C459 C 0.35296 0.20668 0.88841 0.0
C460 C 0.35628 0.1977 0.88948 0.0
C461 C 0.34989 0.18752 0.8999 0.0
C462 C 0.34022 0.18673 0.90945 0.0
C463 C 0.33675 0.19559 0.9081 0.0
C464 C 0.35966 0.14366 0.88005 0.0
C465 C 0.36867 0.14164 0.87321 0.0
C466 C 0.36638 0.13483 0.85876 0.0
C467 C 0.35505 0.13004 0.85074 0.0
C468 C 0.34614 0.13239 0.85724 0.0
C469 C 0.34835 0.13901 0.87187 0.0
C470 C 0.35962 0.14108 0.90963 0.0
C471 C 0.34819 0.13049 0.91192 0.0
C472 C 0.34693 0.12154 0.92313 0.0
C473 C 0.35708 0.12294 0.93214 0.0
C474 C 0.36831 0.13388 0.93047 0.0
C475 C 0.36953 0.14285 0.91934 0.0
C476 C 0.35872 0.15868 0.89842 0.0
C477 C 0.3679 0.1709 0.89667 0.0
C478 C 0.36515 0.18027 0.89775 0.0
C479 C 0.35304 0.17762 0.9003 0.0
C480 C 0.34389 0.16533 0.90253 0.0
C481 C 0.34672 0.15598 0.90181 0.0
H482 H 0.76946 0.1444 0.8826 0.0
N483 N 0.79035 0.15168 0.89843 0.0
H484 H 0.76195 0.13141 0.85799 0.0
H485 H 0.80324 0.14386 0.87978 0.0
H486 H 0.79596 0.1313 0.85489 0.0
H487 H 0.79342 0.13309 0.90955 0.0
H488 H 0.78037 0.11772 0.92992 0.0
H489 H 0.77525 0.15349 0.9193 0.0
H490 H 0.76236 0.13839 0.93992 0.0
H491 H 0.79405 0.17411 0.89639 0.0
H492 H 0.81272 0.15397 0.9042 0.0
H493 H 0.81346 0.19326 0.89742 0.0
H494 H 0.83241 0.17301 0.90382 0.0
H495 H 0.87557 0.24913 0.87607 0.0
H496 H 0.88732 0.25411 0.85047 0.0
H497 H 0.89109 0.22224 0.85665 0.0
H498 H 0.87928 0.21736 0.88236 0.0
H499 H 0.88747 0.22645 0.90929 0.0
H500 H 0.90198 0.23844 0.93102 0.0
H501 H 0.88374 0.25935 0.93701 0.0
H502 H 0.86921 0.2472 0.91537 0.0
H503 H 0.84932 0.22426 0.88045 0.0
H504 H 0.83027 0.20484 0.88133 0.0
H505 H 0.84631 0.19128 0.91658 0.0
N506 N 0.86993 0.23059 0.89622 0.0
H507 H 0.86564 0.21049 0.91457 0.0
C508 C 0.78694 0.14526 0.88294 0.0
C509 C 0.77534 0.14169 0.87648 0.0
C510 C 0.77106 0.13426 0.86254 0.0
C511 C 0.77842 0.13042 0.85463 0.0
C512 C 0.79018 0.13426 0.86075 0.0
C513 C 0.79436 0.14149 0.87495 0.0
C514 C 0.78516 0.14433 0.91289 0.0
C515 C 0.78691 0.13446 0.91651 0.0
C516 C 0.77945 0.12571 0.92816 0.0
C517 C 0.77019 0.12675 0.93629 0.0
C518 C 0.76926 0.13723 0.93362 0.0
C519 C 0.77667 0.14591 0.92199 0.0
C520 C 0.802 0.16269 0.89981 0.0
C521 C 0.80242 0.17388 0.89814 0.0
C522 C 0.81357 0.18479 0.89855 0.0
C523 C 0.82464 0.18476 0.90028 0.0
C524 C 0.82414 0.17347 0.90249 0.0
C525 C 0.81289 0.16253 0.90247 0.0
C526 C 0.87659 0.23294 0.88103 0.0
C527 C 0.87889 0.24321 0.87182 0.0
C528 C 0.88555 0.24599 0.85719 0.0
C529 C 0.89008 0.23853 0.85151 0.0
C530 C 0.88778 0.2282 0.86079 0.0
C531 C 0.88103 0.22539 0.87543 0.0
C532 C 0.87729 0.23601 0.91069 0.0
C533 C 0.88645 0.23345 0.9155 0.0
C534 C 0.89478 0.24036 0.92787 0.0
C535 C 0.89409 0.24992 0.93565 0.0
C536 C 0.88447 0.25197 0.93141 0.0
C537 C 0.87618 0.24508 0.91903 0.0
C538 C 0.85885 0.21894 0.89756 0.0
C539 C 0.8487 0.21707 0.88833 0.0
C540 C 0.83776 0.20596 0.88902 0.0
C541 C 0.83657 0.19646 0.89929 0.0
C542 C 0.84684 0.19831 0.90845 0.0
C543 C 0.85793 0.20939 0.90745 0.0
H544 H 0.80688 0.70971 0.88756 0.0
N545 N 0.81055 0.69272 0.90113 0.0
H546 H 0.79709 0.70876 0.86116 0.0
H547 H 0.80321 0.67453 0.87795 0.0
H548 H 0.79388 0.67369 0.85136 0.0
H549 H 0.78849 0.67133 0.902 0.0
H550 H 0.77214 0.66599 0.92172 0.0
H551 H 0.81166 0.70445 0.92886 0.0
H552 H 0.79544 0.69888 0.94929 0.0
H553 H 0.83423 0.7064 0.89468 0.0
H554 H 0.80703 0.6701 0.90978 0.0
H555 H 0.84969 0.70021 0.89429 0.0
H556 H 0.82244 0.66401 0.91024 0.0
H557 H 0.88835 0.68828 0.8819 0.0
H558 H 0.90026 0.69166 0.85678 0.0
H559 H 0.88191 0.65263 0.84874 0.0
H560 H 0.87064 0.6494 0.87445 0.0
H561 H 0.8692 0.64699 0.91378 0.0
H562 H 0.88335 0.64594 0.93341 0.0
H563 H 0.90752 0.68487 0.92851 0.0
H564 H 0.89359 0.68574 0.90863 0.0
H565 H 0.877 0.68835 0.90736 0.0
H566 H 0.8618 0.69465 0.91031 0.0
H567 H 0.834 0.65953 0.89174 0.0
N568 N 0.8729 0.66612 0.896 0.0
H569 H 0.84924 0.65315 0.88959 0.0
C570 C 0.80587 0.69229 0.88474 0.0
C571 C 0.80418 0.7019 0.87959 0.0
C572 C 0.79862 0.70135 0.86447 0.0
C573 C 0.79466 0.69113 0.85411 0.0
C574 C 0.79665 0.68162 0.85912 0.0
C575 C 0.80213 0.68215 0.87429 0.0
C576 C 0.8013 0.68844 0.91383 0.0
C577 C 0.79016 0.67738 0.91232 0.0
C578 C 0.78081 0.67426 0.92377 0.0
C579 C 0.7824 0.68204 0.93709 0.0
C580 C 0.79379 0.69278 0.93902 0.0
C581 C 0.80312 0.69594 0.92746 0.0
C582 C 0.8195 0.68883 0.90235 0.0
C583 C 0.83165 0.69716 0.8982 0.0
C584 C 0.84049 0.69361 0.89809 0.0
C585 C 0.83735 0.68159 0.90224 0.0
C586 C 0.82518 0.67329 0.90672 0.0
C587 C 0.81633 0.67682 0.90665 0.0
C588 C 0.87877 0.66854 0.88016 0.0
C589 C 0.88691 0.68047 0.87473 0.0
C590 C 0.89363 0.68239 0.86023 0.0
C591 C 0.89221 0.67241 0.8508 0.0
C592 C 0.88352 0.66053 0.85588 0.0
C593 C 0.87696 0.65864 0.87046 0.0
C594 C 0.88025 0.66638 0.90973 0.0
C595 C 0.87741 0.65532 0.91729 0.0
C596 C 0.8855 0.65476 0.92853 0.0
C597 C 0.89664 0.66531 0.93242 0.0
C598 C 0.89911 0.67654 0.92559 0.0
C599 C 0.89104 0.67707 0.9143 0.0
C600 C 0.86421 0.67017 0.89843 0.0
C601 C 0.86764 0.68193 0.90414 0.0
C602 C 0.8589 0.68558 0.90567 0.0
C603 C 0.84661 0.67761 0.9013 0.0
C604 C 0.84328 0.66585 0.89557 0.0
C605 C 0.85199 0.66219 0.89421 0.0
H606 H 0.77298 0.65048 0.47713 0.0
N607 N 0.79533 0.66513 0.46568 0.0
H608 H 0.76455 0.65154 0.50373 0.0
H609 H 0.80792 0.68108 0.49066 0.0
H610 H 0.79977 0.68193 0.51767 0.0
H611 H 0.80134 0.68913 0.46574 0.0
H612 H 0.79288 0.6984 0.44743 0.0
H613 H 0.78251 0.65551 0.43831 0.0
H614 H 0.77405 0.66473 0.41984 0.0
H615 H 0.80007 0.6481 0.47592 0.0
H616 H 0.81734 0.68398 0.45405 0.0
H617 H 0.81952 0.64857 0.47591 0.0
H618 H 0.83662 0.68415 0.45272 0.0
H619 H 0.87952 0.64873 0.47949 0.0
H620 H 0.88915 0.64956 0.50592 0.0
H621 H 0.88923 0.68291 0.51783 0.0
H622 H 0.88031 0.68233 0.4911 0.0
H623 H 0.89341 0.68865 0.46448 0.0
H624 H 0.91107 0.69583 0.44612 0.0
H625 H 0.89399 0.66046 0.4225 0.0
H626 H 0.87656 0.65331 0.44123 0.0
H627 H 0.85237 0.64649 0.46171 0.0
H628 H 0.83329 0.64677 0.45976 0.0
H629 H 0.85327 0.68595 0.46697 0.0
N630 N 0.87459 0.66512 0.4669 0.0
H631 H 0.87237 0.68557 0.4673 0.0
C632 C 0.79104 0.66559 0.48199 0.0
C633 C 0.77887 0.65729 0.48602 0.0
C634 C 0.77411 0.65788 0.50128 0.0
C635 C 0.78149 0.66678 0.51295 0.0
C636 C 0.79378 0.67505 0.50894 0.0
C637 C 0.7985 0.67451 0.49357 0.0
C638 C 0.79243 0.67155 0.45343 0.0
C639 C 0.79557 0.68382 0.45558 0.0
C640 C 0.7907 0.68909 0.44515 0.0
C641 C 0.7827 0.68225 0.43231 0.0
C642 C 0.78025 0.67026 0.42955 0.0
C643 C 0.78505 0.66497 0.44007 0.0
C644 C 0.8071 0.66588 0.46489 0.0
C645 C 0.80805 0.65601 0.47087 0.0
C646 C 0.8192 0.65626 0.47067 0.0
C647 C 0.82974 0.66632 0.46406 0.0
C648 C 0.8288 0.67628 0.45807 0.0
C649 C 0.81765 0.67613 0.45866 0.0
C650 C 0.87905 0.66534 0.48332 0.0
C651 C 0.88151 0.65613 0.48793 0.0
C652 C 0.88697 0.6566 0.5031 0.0
C653 C 0.89 0.66631 0.51411 0.0
C654 C 0.88723 0.67539 0.50961 0.0
C655 C 0.88193 0.67499 0.49432 0.0
C656 C 0.88376 0.67038 0.45426 0.0
C657 C 0.89336 0.68255 0.45509 0.0
C658 C 0.90344 0.68665 0.44455 0.0
C659 C 0.90402 0.67864 0.43303 0.0
C660 C 0.89393 0.66677 0.43146 0.0
C661 C 0.88393 0.6627 0.44201 0.0
C662 C 0.8637 0.66592 0.46506 0.0
C663 C 0.85258 0.65513 0.46271 0.0
C664 C 0.84166 0.65533 0.4618 0.0
C665 C 0.84158 0.66635 0.46363 0.0
C666 C 0.85287 0.67727 0.46547 0.0
C667 C 0.86385 0.67707 0.46593 0.0
H668 H 0.37357 0.14564 0.48264 0.0
N669 N 0.35497 0.14355 0.46488 0.0
H670 H 0.37265 0.13595 0.50912 0.0
H671 H 0.3345 0.13026 0.48364 0.0
H672 H 0.3335 0.12107 0.51031 0.0
H673 H 0.33166 0.12745 0.45493 0.0
H674 H 0.3257 0.11036 0.4359 0.0
H675 H 0.36963 0.14008 0.44519 0.0
H676 H 0.36384 0.12343 0.42553 0.0
H677 H 0.37261 0.16488 0.45406 0.0
H678 H 0.33526 0.1465 0.47073 0.0
H679 H 0.3724 0.184 0.45192 0.0
H680 H 0.33516 0.16568 0.46989 0.0
H681 H 0.37127 0.24503 0.47513 0.0
H682 H 0.37025 0.2536 0.50169 0.0
H683 H 0.33855 0.2191 0.51474 0.0
H684 H 0.33949 0.21076 0.48794 0.0
H685 H 0.33193 0.21747 0.4636 0.0
H686 H 0.32266 0.22579 0.44516 0.0
H687 H 0.3561 0.24386 0.41695 0.0
H688 H 0.36536 0.2355 0.43557 0.0
H689 H 0.37386 0.21864 0.46913 0.0
H690 H 0.37319 0.19908 0.46888 0.0
H691 H 0.33515 0.18119 0.45432 0.0
N692 N 0.35586 0.22305 0.46322 0.0
H693 H 0.33575 0.2007 0.45569 0.0
C694 C 0.35418 0.1388 0.48122 0.0
C695 C 0.36484 0.1404 0.48878 0.0
C696 C 0.36428 0.13489 0.50393 0.0
C697 C 0.35298 0.12768 0.51187 0.0
C698 C 0.34233 0.12639 0.50445 0.0
C699 C 0.34291 0.13181 0.48923 0.0
C700 C 0.35111 0.13488 0.45162 0.0
C701 C 0.3387 0.12667 0.44844 0.0
C702 C 0.33532 0.11695 0.43745 0.0
C703 C 0.3443 0.11538 0.42941 0.0
C704 C 0.35669 0.12417 0.43182 0.0
C705 C 0.36003 0.13376 0.44289 0.0
C706 C 0.35409 0.15435 0.46284 0.0
C707 C 0.36438 0.16502 0.45734 0.0
C708 C 0.36426 0.17597 0.45632 0.0
C709 C 0.35384 0.17653 0.46107 0.0
C710 C 0.34334 0.16566 0.46605 0.0
C711 C 0.34342 0.15465 0.46676 0.0
C712 C 0.35554 0.2273 0.47959 0.0
C713 C 0.3642 0.23931 0.48384 0.0
C714 C 0.36362 0.24415 0.49905 0.0
C715 C 0.35432 0.23704 0.51038 0.0
C716 C 0.34575 0.22488 0.50623 0.0
C717 C 0.34633 0.22005 0.49097 0.0
C718 C 0.34943 0.22598 0.45103 0.0
C719 C 0.33722 0.22303 0.45331 0.0
C720 C 0.33193 0.22783 0.44278 0.0
C721 C 0.3387 0.23558 0.42972 0.0
C722 C 0.35063 0.23786 0.42684 0.0
C723 C 0.35594 0.23312 0.43745 0.0
C724 C 0.35498 0.21124 0.46224 0.0
C725 C 0.36539 0.21048 0.46585 0.0
C726 C 0.36499 0.19927 0.46555 0.0
C727 C 0.35414 0.18848 0.46135 0.0
C728 C 0.34365 0.18925 0.45775 0.0
C729 C 0.34401 0.20048 0.45835 0.0
H730 H 0.80453 0.11629 0.48371 0.0
N731 N 0.80456 0.13577 0.46901 0.0
H732 H 0.79491 0.10689 0.50989 0.0
H733 H 0.79411 0.14362 0.49033 0.0
H734 H 0.78459 0.13439 0.51675 0.0
H735 H 0.78352 0.12986 0.45458 0.0
H736 H 0.77198 0.11329 0.43511 0.0
H737 H 0.81292 0.12192 0.45353 0.0
H738 H 0.80176 0.10577 0.4336 0.0
H739 H 0.82416 0.13281 0.4761 0.0
H740 H 0.81393 0.15904 0.46079 0.0
H741 H 0.8456 0.14842 0.475 0.0
H742 H 0.83538 0.1751 0.46099 0.0
H743 H 0.9138 0.20656 0.48646 0.0
H744 H 0.92214 0.21967 0.51078 0.0
H745 H 0.88998 0.22331 0.51298 0.0
H746 H 0.88175 0.21025 0.48859 0.0
H747 H 0.89208 0.22113 0.46188 0.0
H748 H 0.90499 0.23653 0.44164 0.0
H749 H 0.92 0.21399 0.4268 0.0
H750 H 0.90723 0.19868 0.44746 0.0
H751 H 0.88206 0.18086 0.4888 0.0
H752 H 0.86059 0.1651 0.48855 0.0
H753 H 0.85419 0.18367 0.44835 0.0
N754 N 0.89333 0.20083 0.47033 0.0
H755 H 0.87534 0.19979 0.44953 0.0
C756 C 0.80001 0.13068 0.48508 0.0
C757 C 0.80036 0.12041 0.49094 0.0
C758 C 0.79486 0.11505 0.50595 0.0
C759 C 0.78891 0.11985 0.51537 0.0
C760 C 0.78893 0.13035 0.50968 0.0
C761 C 0.79443 0.1357 0.49468 0.0
C762 C 0.7991 0.12725 0.45555 0.0
C763 C 0.78763 0.12476 0.44979 0.0
C764 C 0.78106 0.11529 0.4386 0.0
C765 C 0.78589 0.1081 0.43279 0.0
C766 C 0.79765 0.11096 0.43802 0.0
C767 C 0.80415 0.12036 0.44936 0.0
C768 C 0.8174 0.1447 0.46814 0.0
C769 C 0.82651 0.14193 0.47238 0.0
C770 C 0.83885 0.151 0.47204 0.0
C771 C 0.84237 0.16315 0.46796 0.0
C772 C 0.83316 0.16586 0.46384 0.0
C773 C 0.82085 0.15671 0.46382 0.0
C774 C 0.89716 0.20735 0.48578 0.0
C775 C 0.90849 0.21004 0.49236 0.0
C776 C 0.91326 0.2176 0.50613 0.0
C777 C 0.90673 0.22256 0.51369 0.0
C778 C 0.89517 0.21954 0.50746 0.0
C779 C 0.89045 0.21207 0.49355 0.0
C780 C 0.89883 0.2088 0.45633 0.0
C781 C 0.898 0.21939 0.45414 0.0
C782 C 0.90538 0.22819 0.44257 0.0
C783 C 0.91356 0.22648 0.4328 0.0
C784 C 0.91373 0.2155 0.43414 0.0
C785 C 0.90646 0.20676 0.44589 0.0
C786 C 0.88048 0.19162 0.46933 0.0
C787 C 0.87598 0.18157 0.48001 0.0
C788 C 0.86368 0.17246 0.47969 0.0
C789 C 0.85553 0.17297 0.46834 0.0
C790 C 0.86006 0.183 0.45749 0.0
C791 C 0.87233 0.19227 0.45807 0.0
H792 H 0.02271 0.56825 0.21855 0.0
N793 N 0.00473 0.54739 0.23332 0.0
H794 H 0.02069 0.57774 0.19359 0.0
H795 H 0.98574 0.53845 0.2127 0.0
H796 H 0.98375 0.54792 0.18729 0.0
H797 H 0.9907 0.55293 0.25135 0.0
H798 H 0.99733 0.56991 0.27068 0.0
H799 H 0.02806 0.56161 0.24517 0.0
H800 H 0.03478 0.57852 0.26466 0.0
H801 H 0.02388 0.54909 0.21491 0.0
H802 H 0.9968 0.5273 0.25131 0.0
H803 H 0.03069 0.53432 0.21389 0.0
H804 H 0.00419 0.51279 0.25132 0.0
H805 H 0.05073 0.48556 0.20837 0.0
H806 H 0.04764 0.47422 0.18265 0.0
H807 H 0.00966 0.46452 0.18243 0.0
H808 H 0.01273 0.47563 0.20806 0.0
H809 H 0.01433 0.46429 0.23244 0.0
H810 H 0.01339 0.4499 0.25291 0.0
H811 H 0.04827 0.47754 0.27252 0.0
H812 H 0.04949 0.49163 0.25101 0.0
H813 H 0.04761 0.51111 0.22388 0.0
H814 H 0.04123 0.52628 0.227 0.0
H815 H 0.00419 0.49725 0.23629 0.0
N816 N 0.03398 0.48706 0.22631 0.0
H817 H 0.01096 0.48235 0.23441 0.0
C818 C 0.00426 0.55265 0.2177 0.0
C819 C 0.01415 0.5637 0.21191 0.0
C820 C 0.013 0.56915 0.19761 0.0
C821 C 0.00202 0.56363 0.18863 0.0
C822 C 0.99232 0.55235 0.19399 0.0
C823 C 0.99343 0.54695 0.20845 0.0
C824 C 0.00882 0.556 0.24679 0.0
C825 C 1.00029 0.55831 0.25454 0.0
C826 C 0.00411 0.568 0.26561 0.0
C827 C 0.0166 0.57563 0.26912 0.0
C828 C 0.02511 0.5729 0.26204 0.0
C829 C 0.02127 0.56317 0.251 0.0
C830 C 0.00958 0.53919 0.23299 0.0
C831 C 0.01941 0.54117 0.2228 0.0
C832 C 0.02344 0.53272 0.2224 0.0
C833 C 0.01799 0.52224 0.23248 0.0
C834 C 0.00844 0.52054 0.24306 0.0
C835 C 0.00426 0.52888 0.24321 0.0
C836 C 0.03205 0.48153 0.21019 0.0
C837 C 0.0418 0.48114 0.20259 0.0
C838 C 0.04001 0.47468 0.18791 0.0
C839 C 0.02838 0.46841 0.18056 0.0
C840 C 0.01869 0.46912 0.18791 0.0
C841 C 0.02049 0.4756 0.20256 0.0
C842 C 0.03217 0.479 0.23993 0.0
C843 C 0.02177 0.4673 0.24114 0.0
C844 C 0.02119 0.45907 0.25307 0.0
C845 C 0.03085 0.46242 0.26433 0.0
C846 C 0.04082 0.47446 0.26379 0.0
C847 C 0.04149 0.4826 0.25164 0.0
C848 C 0.02978 0.49564 0.22865 0.0
C849 C 0.03814 0.50809 0.22672 0.0
C850 C 0.03442 0.51673 0.22835 0.0
C851 C 0.02212 0.51306 0.23169 0.0
C852 C 0.01376 0.50051 0.2339 0.0
C853 C 0.01758 0.4919 0.2326 0.0
H854 H 0.575 0.54759 0.22155 0.0
N855 N 0.55393 0.54338 0.23433 0.0
H856 H 0.58392 0.55714 0.19511 0.0
H857 H 0.54286 0.54984 0.21047 0.0
H858 H 0.55132 0.55874 0.18374 0.0
H859 H 0.5496 0.56236 0.23718 0.0
H860 H 0.56024 0.57976 0.25593 0.0
H861 H 0.56745 0.54478 0.26009 0.0
H862 H 0.5778 0.56187 0.27931 0.0
H863 H 0.55058 0.52134 0.23986 0.0
H864 H 0.53112 0.54084 0.23347 0.0
H865 H 0.53129 0.50214 0.24182 0.0
H866 H 0.51169 0.52159 0.23381 0.0
H867 H 0.46792 0.44123 0.22486 0.0
H868 H 0.45807 0.4324 0.19854 0.0
H869 H 0.4615 0.46696 0.18457 0.0
H870 H 0.47091 0.47552 0.21128 0.0
H871 H 0.4565 0.46858 0.23643 0.0
H872 H 0.43882 0.4594 0.25488 0.0
H873 H 0.45536 0.44229 0.28253 0.0
H874 H 0.47296 0.45135 0.26383 0.0
H875 H 0.49703 0.46856 0.22584 0.0
H876 H 0.51586 0.48818 0.22556 0.0
H877 H 0.49689 0.50493 0.24822 0.0
N878 N 0.47515 0.4635 0.23614 0.0
H879 H 0.4779 0.48542 0.24717 0.0
C880 C 0.55825 0.54788 0.21796 0.0
C881 C 0.56976 0.54991 0.21322 0.0
C882 C 0.5748 0.55531 0.19806 0.0
C883 C 0.56835 0.55873 0.1872 0.0
C884 C 0.55665 0.55641 0.19185 0.0
C885 C 0.55169 0.55114 0.20712 0.0
C886 C 0.55792 0.55239 0.24717 0.0
C887 C 0.55555 0.56211 0.24656 0.0
C888 C 0.56161 0.57202 0.25735 0.0
C889 C 0.57005 0.57231 0.26893 0.0
C890 C 0.57158 0.56207 0.27029 0.0
C891 C 0.56561 0.55225 0.25945 0.0
C892 C 0.54228 0.53242 0.23611 0.0
C893 C 0.54208 0.5214 0.23868 0.0
C894 C 0.53101 0.51042 0.23959 0.0
C895 C 0.51981 0.51016 0.23754 0.0
C896 C 0.52005 0.52134 0.23547 0.0
C897 C 0.53119 0.53239 0.23499 0.0
C898 C 0.47022 0.459 0.21996 0.0
C899 C 0.46662 0.4469 0.21602 0.0
C900 C 0.46106 0.44191 0.20093 0.0
C901 C 0.45902 0.44897 0.18934 0.0
C902 C 0.46279 0.46121 0.19325 0.0
C903 C 0.46828 0.46616 0.20845 0.0
C904 C 0.46598 0.46048 0.24867 0.0
C905 C 0.45644 0.46305 0.24664 0.0
C906 C 0.44634 0.45781 0.25718 0.0
C907 C 0.44568 0.45004 0.27003 0.0
C908 C 0.45566 0.44829 0.2728 0.0
C909 C 0.4657 0.45343 0.26214 0.0
C910 C 0.48606 0.47539 0.23667 0.0
C911 C 0.49696 0.47649 0.23071 0.0
C912 C 0.50777 0.48775 0.23075 0.0
C913 C 0.50806 0.49823 0.23715 0.0
C914 C 0.49707 0.49714 0.24305 0.0
C915 C 0.48615 0.48588 0.24264 0.0
H916 H 0.55143 0.99695 0.21531 0.0
N917 N 0.55016 0.01559 0.23073 0.0
H918 H 0.56082 0.99788 0.18882 0.0
H919 H 0.56067 0.03454 0.21016 0.0
H920 H 0.57012 0.03552 0.18331 0.0
H921 H 0.57047 0.02932 0.2477 0.0
H922 H 0.58077 0.0225 0.26681 0.0
H923 H 0.54071 0.99231 0.24288 0.0
H924 H 0.5508 0.98542 0.26225 0.0
H925 H 0.53179 0.99628 0.21341 0.0
H926 H 0.53888 0.0243 0.24916 0.0
H927 H 0.51038 0.99005 0.2133 0.0
H928 H 0.51703 0.01742 0.25015 0.0
H929 H 0.44276 0.97179 0.20732 0.0
H930 H 0.43503 0.9751 0.18129 0.0
H931 H 0.46363 0.01298 0.1819 0.0
H932 H 0.47107 0.00968 0.20792 0.0
H933 H 0.45661 0.00723 0.23154 0.0
H934 H 0.44242 0.00731 0.25155 0.0
H935 H 0.43734 0.9735 0.27209 0.0
H936 H 0.45077 0.97301 0.25088 0.0
H937 H 0.47071 0.97419 0.2239 0.0
H938 H 0.49217 0.9801 0.22708 0.0
H939 H 0.50114 0.01743 0.23592 0.0
N940 N 0.46087 0.98831 0.22577 0.0
H941 H 0.47948 0.01108 0.23412 0.0
C942 C 0.55531 0.01572 0.21477 0.0
C943 C 0.55543 0.00542 0.20847 0.0
C944 C 0.56074 0.00593 0.19322 0.0
C945 C 0.56615 0.01676 0.18394 0.0
C946 C 0.56607 0.02706 0.19023 0.0
C947 C 0.56064 0.02651 0.20548 0.0
C948 C 0.55487 0.01139 0.24385 0.0
C949 C 0.56603 0.01977 0.25112 0.0
C950 C 0.57187 0.01584 0.26208 0.0
C951 C 0.56664 0.00339 0.26602 0.0
C952 C 0.55515 0.99505 0.25931 0.0
C953 C 0.54931 0.999 0.24833 0.0
C954 C 0.53713 0.01103 0.23109 0.0
C955 C 0.52879 0.0011 0.22137 0.0
C956 C 0.51637 0.99737 0.22152 0.0
C957 C 0.51183 0.0032 0.23172 0.0
C958 C 0.52014 0.01285 0.24184 0.0
C959 C 0.53264 0.01675 0.24143 0.0
C960 C 0.4575 0.99039 0.20959 0.0
C961 C 0.44744 0.98075 0.20167 0.0
C962 C 0.44307 0.98266 0.1868 0.0
C963 C 0.44869 0.99433 0.17955 0.0
C964 C 0.459 0.00392 0.18727 0.0
C965 C 0.46336 0.002 0.20213 0.0
C966 C 0.45444 0.98987 0.23938 0.0
C967 C 0.45246 0.99983 0.24033 0.0
C968 C 0.4444 0.99993 0.25202 0.0
C969 C 0.43842 0.99026 0.26334 0.0
C970 C 0.44135 0.98089 0.26324 0.0
C971 C 0.44917 0.98065 0.25127 0.0
C972 C 0.47356 0.9922 0.22841 0.0
C973 C 0.47735 0.98361 0.22667 0.0
C974 C 0.48966 0.98708 0.22833 0.0
C975 C 0.49855 0.99934 0.23143 0.0
C976 C 0.49464 0.0079 0.23364 0.0
C977 C 0.48224 0.00433 0.23237 0.0
H978 H 0.44177 0.9861 0.80709 0.0
N979 N 0.46386 0.00157 0.79556 0.0
H980 H 0.4331 0.98671 0.83371 0.0
H981 H 0.47593 0.01783 0.82044 0.0
H982 H 0.46752 0.01831 0.84741 0.0
H983 H 0.47044 0.02573 0.79515 0.0
H984 H 0.46205 0.03511 0.77704 0.0
H985 H 0.45017 0.9917 0.76896 0.0
H986 H 0.44141 0.00088 0.75103 0.0
H987 H 0.46826 0.98387 0.8034 0.0
H988 H 0.48623 0.02121 0.78658 0.0
H989 H 0.48781 0.98452 0.80405 0.0
H990 H 0.50569 0.0217 0.78607 0.0
H991 H 0.54356 0.98415 0.81573 0.0
H992 H 0.553 0.98458 0.84221 0.0
H993 H 0.56256 0.02225 0.84875 0.0
H994 H 0.55368 0.02186 0.822 0.0
H995 H 0.56067 0.0263 0.79374 0.0
H996 H 0.57846 0.03292 0.77574 0.0
H997 H 0.56456 0.99553 0.76053 0.0
H998 H 0.54701 0.98901 0.77888 0.0
H999 H 0.52201 0.98437 0.79122 0.0
H1000 H 0.50284 0.98441 0.78817 0.0
H1001 H 0.52133 0.02255 0.80214 0.0
N1002 N 0.54352 0.00265 0.80043 0.0
H1003 H 0.54057 0.02256 0.80373 0.0
C1004 C 0.45946 0.00182 0.81185 0.0
C1005 C 0.44744 0.99308 0.81593 0.0
C1006 C 0.44254 0.99342 0.83119 0.0
C1007 C 0.44962 0.00253 0.84279 0.0
C1008 C 0.46176 0.01125 0.83873 0.0
C1009 C 0.46663 0.01093 0.82337 0.0
C1010 C 0.46091 0.00797 0.78336 0.0
C1011 C 0.46438 0.02034 0.78527 0.0
C1012 C 0.45948 0.02566 0.77498 0.0
C1013 C 0.45093 0.01871 0.76269 0.0
C1014 C 0.44806 0.00655 0.76022 0.0
C1015 C 0.45302 0.00127 0.77047 0.0
C1016 C 0.47565 0.00237 0.79482 0.0
C1017 C 0.47642 0.99215 0.79957 0.0
C1018 C 0.48763 0.99252 0.79978 0.0
C1019 C 0.49842 0.00313 0.79492 0.0
C1020 C 0.49765 0.01341 0.79007 0.0
C1021 C 0.48641 0.01309 0.79019 0.0
C1022 C 0.54779 0.00288 0.81693 0.0
C1023 C 0.54755 0.99242 0.82304 0.0
C1024 C 0.55291 0.99269 0.83821 0.0
C1025 C 0.55859 0.00347 0.84766 0.0
C1026 C 0.55845 0.01385 0.84172 0.0
C1027 C 0.5532 0.01359 0.82645 0.0
C1028 C 0.55262 0.00713 0.7877 0.0
C1029 C 0.56135 0.01959 0.78627 0.0
C1030 C 0.57148 0.02336 0.77593 0.0
C1031 C 0.57301 0.01472 0.76691 0.0
C1032 C 0.56377 0.00237 0.76755 0.0
C1033 C 0.5537 0.99864 0.77788 0.0
C1034 C 0.53262 0.00334 0.79806 0.0
C1035 C 0.52188 0.99274 0.79345 0.0
C1036 C 0.51091 0.99278 0.7919 0.0
C1037 C 0.51038 0.00342 0.79525 0.0
C1038 C 0.52131 0.01418 0.79939 0.0
C1039 C 0.53236 0.01417 0.80058 0.0
H1040 H 0.99072 0.54055 0.82076 0.0
N1041 N 0.00885 0.548 0.79765 0.0
H1042 H 0.99207 0.55053 0.847 0.0
H1043 H 0.02881 0.56589 0.81156 0.0
H1044 H 0.03053 0.57553 0.83829 0.0
H1045 H 0.02197 0.56146 0.77231 0.0
H1046 H 0.0173 0.57403 0.75415 0.0
H1047 H 0.98691 0.54755 0.79586 0.0
H1048 H 0.98196 0.55954 0.77743 0.0
H1049 H 0.98539 0.52889 0.79239 0.0
H1050 H 0.02268 0.5379 0.80068 0.0
H1051 H 0.979 0.50733 0.79162 0.0
H1052 H 0.01628 0.51621 0.80074 0.0
H1053 H 0.96639 0.44116 0.82072 0.0
H1054 H 0.97066 0.43412 0.84665 0.0
H1055 H 0.00849 0.46271 0.84351 0.0
H1056 H 0.00413 0.46963 0.81757 0.0
H1057 H 0.00308 0.45889 0.79226 0.0
H1058 H 0.00462 0.44564 0.77192 0.0
H1059 H 0.96632 0.43033 0.76019 0.0
H1060 H 0.96499 0.44405 0.78029 0.0
H1061 H 0.96978 0.46961 0.81085 0.0
H1062 H 0.97597 0.49122 0.80923 0.0
H1063 H 0.00923 0.49855 0.78441 0.0
N1064 N 0.98217 0.45894 0.80127 0.0
H1065 H 0.00326 0.47716 0.78681 0.0
C1066 C 0.00967 0.55263 0.8141 0.0
C1067 C 0.99943 0.54817 0.8245 0.0
C1068 C 1.00026 0.55384 0.83963 0.0
C1069 C 0.01139 0.56396 0.84477 0.0
C1070 C 0.02173 0.56798 0.83461 0.0
C1071 C 0.02083 0.56241 0.81941 0.0
C1072 C 0.00484 0.5535 0.7854 0.0
C1073 C 0.01312 0.56083 0.77321 0.0
C1074 C 0.01041 0.56798 0.76283 0.0
C1075 C 0.99929 0.5679 0.76442 0.0
C1076 C 0.99071 0.56001 0.77605 0.0
C1077 C 0.99348 0.55297 0.78651 0.0
C1078 C 0.00463 0.53512 0.79641 0.0
C1079 C 0.99226 0.5263 0.79399 0.0
C1080 C 0.98857 0.51387 0.79372 0.0
C1081 C 0.9971 0.50995 0.79612 0.0
C1082 C 0.00946 0.51883 0.79851 0.0
C1083 C 0.01315 0.53125 0.79859 0.0
C1084 C 0.98489 0.45587 0.81723 0.0
C1085 C 0.97555 0.44599 0.82578 0.0
C1086 C 0.97801 0.44201 0.84059 0.0
C1087 C 0.98993 0.44785 0.84711 0.0
C1088 C 0.99925 0.45795 0.8387 0.0
C1089 C 0.99676 0.46195 0.82391 0.0
C1090 C 0.98387 0.45251 0.78777 0.0
C1091 C 0.99507 0.45293 0.78507 0.0
C1092 C 0.99591 0.44522 0.77352 0.0
C1093 C 0.98556 0.43679 0.76454 0.0
C1094 C 0.97451 0.43677 0.76675 0.0
C1095 C 0.97371 0.44457 0.77825 0.0
C1096 C 0.98593 0.47166 0.79889 0.0
C1097 C 0.97837 0.4759 0.80497 0.0
C1098 C 0.9819 0.48826 0.80393 0.0
C1099 C 0.99311 0.49669 0.79664 0.0
C1100 C 0.00062 0.49238 0.79032 0.0
C1101 C 0.99713 0.48003 0.79153 0.0
H1102 H 0.46623 0.4549 0.81563 0.0
N1103 N 0.46718 0.47417 0.79867 0.0
H1104 H 0.45623 0.4467 0.84186 0.0
H1105 H 0.45527 0.48213 0.81737 0.0
H1106 H 0.44491 0.47366 0.84381 0.0
H1107 H 0.44839 0.46942 0.77932 0.0
H1108 H 0.43776 0.45229 0.76015 0.0
H1109 H 0.47521 0.45867 0.78878 0.0
H1110 H 0.46448 0.44135 0.76992 0.0
H1111 H 0.48533 0.473 0.8163 0.0
H1112 H 0.47879 0.49417 0.78033 0.0
H1113 H 0.50678 0.488 0.81659 0.0
H1114 H 0.50069 0.50899 0.77958 0.0
H1115 H 0.57526 0.53785 0.82239 0.0
H1116 H 0.58292 0.54869 0.84855 0.0
H1117 H 0.55326 0.55638 0.84939 0.0
H1118 H 0.54597 0.54597 0.82316 0.0
H1119 H 0.55998 0.55852 0.79903 0.0
H1120 H 0.57374 0.57323 0.77896 0.0
H1121 H 0.5808 0.54577 0.7586 0.0
H1122 H 0.56765 0.53138 0.77967 0.0
H1123 H 0.54661 0.51163 0.80627 0.0
H1124 H 0.52511 0.49619 0.80294 0.0
H1125 H 0.5165 0.52478 0.79417 0.0
N1126 N 0.55667 0.53566 0.80452 0.0
H1127 H 0.53816 0.53999 0.7962 0.0
C1128 C 0.46167 0.46931 0.81454 0.0
C1129 C 0.46176 0.45921 0.82166 0.0
C1130 C 0.45604 0.45451 0.83673 0.0
C1131 C 0.44987 0.4596 0.84489 0.0
C1132 C 0.44961 0.46958 0.83774 0.0
C1133 C 0.45555 0.47444 0.82274 0.0
C1134 C 0.46248 0.46526 0.78559 0.0
C1135 C 0.45211 0.4635 0.77698 0.0
C1136 C 0.44608 0.45374 0.76603 0.0
C1137 C 0.45026 0.44546 0.76366 0.0
C1138 C 0.46102 0.44756 0.77165 0.0
C1139 C 0.46715 0.45745 0.78242 0.0
C1140 C 0.48024 0.48253 0.79849 0.0
C1141 C 0.48843 0.48081 0.80832 0.0
C1142 C 0.5009 0.48942 0.8083 0.0
C1143 C 0.50561 0.49982 0.79812 0.0
C1144 C 0.49744 0.50129 0.78787 0.0
C1145 C 0.48491 0.49277 0.78816 0.0
C1146 C 0.56002 0.54098 0.82078 0.0
C1147 C 0.57034 0.54175 0.82837 0.0
C1148 C 0.57467 0.54791 0.84333 0.0
C1149 C 0.56872 0.55345 0.85106 0.0
C1150 C 0.55817 0.55238 0.84366 0.0
C1151 C 0.55389 0.54627 0.82867 0.0
C1152 C 0.56304 0.5439 0.7911 0.0
C1153 C 0.56444 0.55564 0.79023 0.0
C1154 C 0.57226 0.56404 0.77855 0.0
C1155 C 0.57862 0.56082 0.76724 0.0
C1156 C 0.5764 0.54875 0.7674 0.0
C1157 C 0.56878 0.54044 0.7793 0.0
C1158 C 0.54395 0.52692 0.8018 0.0
C1159 C 0.54004 0.5145 0.80348 0.0
C1160 C 0.52771 0.50571 0.80173 0.0
C1161 C 0.51891 0.50917 0.79858 0.0
C1162 C 0.52294 0.52168 0.79646 0.0
C1163 C 0.53535 0.53045 0.79785 0.0
H1164 H 0.71067 0.90233 0.52576 0.0
N1165 N 0.69973 0.89467 0.55477 0.0
H1166 H 0.70263 0.90714 0.50118 0.0
H1167 H 0.67627 0.88989 0.55048 0.0
H1168 H 0.66815 0.89467 0.52603 0.0
H1169 H 0.6825 0.88927 0.57858 0.0
H1170 H 0.68235 0.90378 0.59854 0.0
H1171 H 0.71787 0.91694 0.56124 0.0
H1172 H 0.71807 0.93136 0.58145 0.0
H1173 H 0.71749 0.89122 0.56566 0.0
H1174 H 0.6793 0.87186 0.5526 0.0
H1175 H 0.71695 0.87186 0.56976 0.0
H1176 H 0.67882 0.85243 0.55557 0.0
H1177 H 0.71414 0.81283 0.53999 0.0
H1178 H 0.70901 0.80195 0.51361 0.0
H1179 H 0.67178 0.79427 0.51841 0.0
H1180 H 0.67708 0.80535 0.54472 0.0
H1181 H 0.67732 0.79765 0.57143 0.0
H1182 H 0.6744 0.78275 0.59274 0.0
H1183 H 0.71333 0.80189 0.60172 0.0
H1184 H 0.71615 0.81671 0.58031 0.0
H1185 H 0.71694 0.83794 0.55189 0.0
H1186 H 0.71646 0.85692 0.5524 0.0
H1187 H 0.67983 0.83757 0.57244 0.0
N1188 N 0.69933 0.81587 0.55999 0.0
H1189 H 0.68029 0.81845 0.57107 0.0
C1190 C 0.69414 0.89584 0.53993 0.0
C1191 C 0.70131 0.90043 0.52574 0.0
C1192 C 0.69669 0.90314 0.51173 0.0
C1193 C 0.68477 0.90136 0.51172 0.0
C1194 C 0.67741 0.89629 0.52576 0.0
C1195 C 0.68203 0.89351 0.53972 0.0
C1196 C 0.70016 0.90216 0.56834 0.0
C1197 C 0.69032 0.89841 0.57932 0.0
C1198 C 0.6903 0.90669 0.59075 0.0
C1199 C 0.70012 0.91879 0.59138 0.0
C1200 C 0.71024 0.9222 0.58103 0.0
C1201 C 0.71021 0.91397 0.5696 0.0
C1202 C 0.69857 0.88302 0.55851 0.0
C1203 C 0.70898 0.88275 0.5637 0.0
C1204 C 0.70867 0.87167 0.56586 0.0
C1205 C 0.69792 0.86053 0.56259 0.0
C1206 C 0.68726 0.86079 0.55822 0.0
C1207 C 0.68755 0.87194 0.55634 0.0
C1208 C 0.696 0.80981 0.54428 0.0
C1209 C 0.70491 0.80886 0.53525 0.0
C1210 C 0.70197 0.8027 0.5202 0.0
C1211 C 0.69 0.79727 0.51397 0.0
C1212 C 0.68106 0.79828 0.523 0.0
C1213 C 0.68406 0.8046 0.53801 0.0
C1214 C 0.69701 0.80824 0.57422 0.0
C1215 C 0.68519 0.79877 0.57817 0.0
C1216 C 0.68354 0.79023 0.59032 0.0
C1217 C 0.69365 0.7911 0.59881 0.0
C1218 C 0.70535 0.80103 0.59551 0.0
C1219 C 0.70699 0.80948 0.58328 0.0
C1220 C 0.69875 0.82687 0.56157 0.0
C1221 C 0.70886 0.83785 0.5565 0.0
C1222 C 0.70857 0.8487 0.55694 0.0
C1223 C 0.69815 0.84887 0.56267 0.0
C1224 C 0.68798 0.83779 0.56786 0.0
C1225 C 0.68825 0.82686 0.56723 0.0
H1226 H 0.2435 0.88431 0.55603 0.0
N1227 N 0.22175 0.87834 0.56818 0.0
H1228 H 0.25251 0.89466 0.53005 0.0
H1229 H 0.21026 0.88429 0.54426 0.0
H1230 H 0.21885 0.89397 0.51793 0.0
H1231 H 0.21792 0.89766 0.57104 0.0
H1232 H 0.22804 0.91443 0.59079 0.0
H1233 H 0.23379 0.87855 0.59502 0.0
H1234 H 0.24351 0.89496 0.61533 0.0
H1235 H 0.21835 0.85606 0.57114 0.0
H1236 H 0.19897 0.87588 0.56835 0.0
H1237 H 0.19903 0.83682 0.57218 0.0
H1238 H 0.17948 0.85664 0.56797 0.0
H1239 H 0.13863 0.7772 0.55543 0.0
H1240 H 0.12888 0.76808 0.52914 0.0
H1241 H 0.12589 0.79995 0.51831 0.0
H1242 H 0.13627 0.80921 0.54427 0.0
H1243 H 0.1252 0.80469 0.56954 0.0
H1244 H 0.10747 0.79565 0.58778 0.0
H1245 H 0.12194 0.77547 0.61273 0.0
H1246 H 0.13967 0.78451 0.59425 0.0
H1247 H 0.16451 0.80398 0.55551 0.0
H1248 H 0.18328 0.82364 0.55542 0.0
H1249 H 0.165 0.83943 0.58223 0.0
N1250 N 0.14297 0.79836 0.56797 0.0
H1251 H 0.14604 0.81996 0.58116 0.0
C1252 C 0.2262 0.88339 0.55206 0.0
C1253 C 0.23807 0.88631 0.54765 0.0
C1254 C 0.24316 0.89217 0.53274 0.0
C1255 C 0.23641 0.89516 0.52179 0.0
C1256 C 0.22439 0.89199 0.52612 0.0
C1257 C 0.21937 0.88627 0.54115 0.0
C1258 C 0.22532 0.88698 0.58146 0.0
C1259 C 0.22331 0.89693 0.58085 0.0
C1260 C 0.22907 0.90649 0.59223 0.0
C1261 C 0.2368 0.90616 0.60447 0.0
C1262 C 0.23789 0.89566 0.60581 0.0
C1263 C 0.23226 0.88622 0.59435 0.0
C1264 C 0.21008 0.86731 0.56932 0.0
C1265 C 0.20986 0.8562 0.57056 0.0
C1266 C 0.19877 0.84521 0.57096 0.0
C1267 C 0.18758 0.84506 0.56977 0.0
C1268 C 0.18785 0.85632 0.56896 0.0
C1269 C 0.199 0.86736 0.56894 0.0
C1270 C 0.13805 0.79377 0.55183 0.0
C1271 C 0.13599 0.78224 0.54724 0.0
C1272 C 0.1303 0.77701 0.53229 0.0
C1273 C 0.12641 0.78319 0.52167 0.0
C1274 C 0.12883 0.79495 0.5261 0.0
C1275 C 0.13466 0.80023 0.54101 0.0
C1276 C 0.13373 0.79516 0.58046 0.0
C1277 C 0.12469 0.79848 0.57908 0.0
C1278 C 0.11453 0.79329 0.5895 0.0
C1279 C 0.11326 0.78476 0.60156 0.0
C1280 C 0.1227 0.78208 0.60362 0.0
C1281 C 0.13282 0.78721 0.5931 0.0
C1282 C 0.15381 0.81033 0.56834 0.0
C1283 C 0.16453 0.81171 0.56126 0.0
C1284 C 0.17533 0.82298 0.56142 0.0
C1285 C 0.17581 0.83319 0.56907 0.0
C1286 C 0.16501 0.83185 0.57608 0.0
C1287 C 0.1541 0.82059 0.57559 0.0
H1288 H 0.20193 0.30171 0.54118 0.0
N1289 N 0.19926 0.31712 0.56044 0.0
H1290 H 0.21398 0.30635 0.51589 0.0
H1291 H 0.21188 0.3395 0.54562 0.0
H1292 H 0.22388 0.34426 0.52017 0.0
H1293 H 0.2198 0.33723 0.57221 0.0
H1294 H 0.23362 0.33727 0.59323 0.0
H1295 H 0.19521 0.29886 0.58044 0.0
H1296 H 0.20882 0.29885 0.60194 0.0
H1297 H 0.17961 0.30972 0.54168 0.0
H1298 H 0.19889 0.33382 0.58227 0.0
H1299 H 0.16449 0.31619 0.54248 0.0
H1300 H 0.18333 0.3396 0.58402 0.0
H1301 H 0.11625 0.32378 0.55058 0.0
H1302 H 0.10649 0.3243 0.52485 0.0
H1303 H 0.13372 0.36234 0.51863 0.0
H1304 H 0.14347 0.36173 0.54448 0.0
H1305 H 0.12946 0.35738 0.58019 0.0
H1306 H 0.11306 0.35152 0.6002 0.0
H1307 H 0.10742 0.31489 0.60121 0.0
H1308 H 0.12329 0.32064 0.58071 0.0
H1309 H 0.13272 0.32064 0.55617 0.0
H1310 H 0.14797 0.31442 0.55633 0.0
H1311 H 0.17524 0.35064 0.57235 0.0
N1312 N 0.1361 0.34307 0.56514 0.0
H1313 H 0.15949 0.35643 0.57345 0.0
C1314 C 0.20601 0.32021 0.5452 0.0
C1315 C 0.20665 0.31099 0.53656 0.0
C1316 C 0.21348 0.31366 0.52209 0.0
C1317 C 0.21985 0.32567 0.51598 0.0
C1318 C 0.21917 0.33494 0.52464 0.0
C1319 C 0.21228 0.33223 0.53913 0.0
C1320 C 0.20649 0.31797 0.57467 0.0
C1321 C 0.21725 0.32886 0.57878 0.0
C1322 C 0.22511 0.32888 0.59092 0.0
C1323 C 0.22239 0.31803 0.59916 0.0
C1324 C 0.21129 0.30732 0.59563 0.0
C1325 C 0.20345 0.30731 0.58348 0.0
C1326 C 0.19044 0.32119 0.56182 0.0
C1327 C 0.18051 0.31631 0.55089 0.0
C1328 C 0.17177 0.31994 0.55152 0.0
C1329 C 0.17252 0.32837 0.56344 0.0
C1330 C 0.18248 0.33324 0.57448 0.0
C1331 C 0.19141 0.32981 0.57359 0.0
C1332 C 0.13067 0.34275 0.54939 0.0
C1333 C 0.12027 0.33217 0.54355 0.0
C1334 C 0.11468 0.33248 0.52883 0.0
C1335 C 0.11931 0.34337 0.51975 0.0
C1336 C 0.12986 0.35385 0.52546 0.0
C1337 C 0.13548 0.35351 0.54012 0.0
C1338 C 0.12773 0.33957 0.57887 0.0
C1339 C 0.1248 0.34814 0.58496 0.0
C1340 C 0.11544 0.34476 0.59648 0.0
C1341 C 0.10881 0.33268 0.60232 0.0
C1342 C 0.11214 0.32421 0.59677 0.0
C1343 C 0.1214 0.32757 0.58508 0.0
C1344 C 0.14491 0.33899 0.56513 0.0
C1345 C 0.1419 0.3272 0.56003 0.0
C1346 C 0.15076 0.3237 0.55987 0.0
C1347 C 0.16297 0.33201 0.56427 0.0
C1348 C 0.16594 0.34386 0.5692 0.0
C1349 C 0.15698 0.34725 0.56973 0.0
C1350 C 0.02422 0.41179 0.05602 0.0
C1351 C 0.01447 0.39971 0.05494 0.0
C1352 C 0.02523 0.41911 0.06947 0.0
C1353 C 0.01512 0.41762 0.11254 0.0
H1354 H 0.02596 0.45188 0.10544 0.0
C1355 C 0.01578 0.44904 0.16465 0.0
C1356 C 0.02623 0.46072 0.16572 0.0
C1357 C 0.01393 0.44158 0.151 0.0
C1358 C 0.02303 0.44236 0.10764 0.0
H1359 H 0.9981 0.38582 0.06709 0.0
H1360 H 0.99977 0.39868 0.09057 0.0
H1361 H 0.02334 0.43879 0.08193 0.0
H1362 H 0.04283 0.47378 0.15315 0.0
H1363 H 0.03965 0.4607 0.12935 0.0
H1364 H 0.01481 0.42122 0.13826 0.0
C1365 C 0.00673 0.40244 0.08109 0.0
C1366 C 0.02153 0.43485 0.09417 0.0
C1367 C 0.00574 0.39509 0.06761 0.0
C1368 C 0.03473 0.4648 0.15274 0.0
C1369 C 0.03285 0.45736 0.13904 0.0
C1370 C 0.01658 0.42513 0.12601 0.0
C1371 C 0.01649 0.41455 0.08216 0.0
C1372 C 0.01764 0.42241 0.09646 0.0
C1373 C 0.02246 0.44563 0.13807 0.0
C1374 C 0.02062 0.4376 0.12372 0.0
H1375 H 0.03113 0.4156 0.04648 0.0
H1376 H 0.03297 0.42831 0.07002 0.0
H1377 H 0.01228 0.40813 0.11477 0.0
H1378 H 0.00913 0.44556 0.17453 0.0
H1379 H 0.00578 0.43264 0.15054 0.0
C1380 C 0.62717 0.61263 0.06379 0.0
C1381 C 0.62387 0.62076 0.0569 0.0
C1382 C 0.62084 0.60547 0.07742 0.0
C1383 C 0.60269 0.60481 0.11283 0.0
H1384 H 0.59102 0.57005 0.11382 0.0
C1385 C 0.57219 0.57457 0.16567 0.0
C1386 C 0.57403 0.56514 0.17146 0.0
C1387 C 0.57791 0.58095 0.1513 0.0
C1388 C 0.59436 0.57977 0.11387 0.0
H1389 H 0.61139 0.62776 0.0588 0.0
H1390 H 0.60048 0.61539 0.08273 0.0
H1391 H 0.60196 0.58201 0.08964 0.0
H1392 H 0.58317 0.55487 0.16626 0.0
H1393 H 0.59356 0.56634 0.14165 0.0
H1394 H 0.59544 0.60275 0.13713 0.0
C1395 C 0.60793 0.61454 0.07759 0.0
C1396 C 0.60059 0.5866 0.09998 0.0
C1397 C 0.61413 0.62158 0.06385 0.0
C1398 C 0.58166 0.56219 0.16235 0.0
C1399 C 0.58749 0.56867 0.14806 0.0
C1400 C 0.5966 0.59803 0.12679 0.0
C1401 C 0.61123 0.60644 0.08453 0.0
C1402 C 0.60476 0.59917 0.0993 0.0
C1403 C 0.58576 0.5782 0.14239 0.0
C1404 C 0.59229 0.5854 0.12748 0.0
H1405 H 0.63463 0.61181 0.05867 0.0
H1406 H 0.62362 0.59935 0.0826 0.0
H1407 H 0.60596 0.61453 0.11272 0.0
H1408 H 0.56652 0.57725 0.17243 0.0
H1409 H 0.57616 0.58808 0.14719 0.0
C1410 C 0.3962 0.99724 0.05449 0.0
C1411 C 0.39418 0.00714 0.05279 0.0
C1412 C 0.4029 0.99666 0.06778 0.0
C1413 C 0.41262 0.00819 0.10999 0.0
H1414 H 0.43516 0.99618 0.10374 0.0
C1415 C 0.44262 0.00719 0.16296 0.0
C1416 C 0.44351 0.99659 0.16439 0.0
C1417 C 0.43731 0.00913 0.14904 0.0
C1418 C 0.42882 0.99946 0.10571 0.0
H1419 H 0.39769 0.02425 0.06361 0.0
H1420 H 0.40951 0.02329 0.08686 0.0
H1421 H 0.4247 0.99854 0.07999 0.0
H1422 H 0.43972 0.97983 0.15213 0.0
H1423 H 0.43026 0.9831 0.12794 0.0
H1424 H 0.41666 0.009 0.13572 0.0
C1425 C 0.40579 0.01592 0.07797 0.0
C1426 C 0.42283 0.00081 0.0921 0.0
C1427 C 0.39908 0.0165 0.06462 0.0
C1428 C 0.43908 0.98804 0.15148 0.0
C1429 C 0.43378 0.98998 0.13753 0.0
C1430 C 0.41862 0.00684 0.1236 0.0
C1431 C 0.40775 0.00597 0.07972 0.0
C1432 C 0.41458 0.0051 0.09409 0.0
C1433 C 0.43275 0.00051 0.1362 0.0
C1434 C 0.42672 0.00236 0.12164 0.0
H1435 H 0.39251 0.98986 0.04559 0.0
H1436 H 0.40408 0.98879 0.06888 0.0
H1437 H 0.40619 0.01135 0.11198 0.0
H1438 H 0.44581 0.0139 0.17277 0.0
H1439 H 0.43677 0.01739 0.14832 0.0
C1440 C 0.40269 0.01714 0.96681 0.0
C1441 C 0.39271 0.00638 0.97295 0.0
C1442 C 0.40923 0.01676 0.95316 0.0
C1443 C 0.40669 0.99703 0.91774 0.0
H1444 H 0.44181 0.01856 0.91523 0.0
C1445 C 0.4359 0.99227 0.86707 0.0
C1446 C 0.44416 0.00308 0.85879 0.0
C1447 C 0.43009 0.99271 0.88146 0.0
C1448 C 0.43199 0.01255 0.91574 0.0
H1449 H 0.38186 0.98676 0.96982 0.0
H1450 H 0.39344 0.98601 0.94632 0.0
H1451 H 0.43071 0.01915 0.93949 0.0
H1452 H 0.45295 0.02285 0.85947 0.0
H1453 H 0.44297 0.02359 0.88482 0.0
H1454 H 0.40804 0.99033 0.89408 0.0
C1455 C 0.39607 0.99481 0.95174 0.0
C1456 C 0.42561 0.01291 0.9296 0.0
C1457 C 0.38946 0.99521 0.96528 0.0
C1458 C 0.44676 0.01435 0.8656 0.0
C1459 C 0.44102 0.01479 0.8801 0.0
C1460 C 0.41309 0.9966 0.90398 0.0
C1461 C 0.406 0.00558 0.94543 0.0
C1462 C 0.41287 0.00516 0.93077 0.0
C1463 C 0.43249 0.00396 0.88803 0.0
C1464 C 0.4258 0.00436 0.90281 0.0
H1465 H 0.40537 0.02589 0.97244 0.0
H1466 H 0.4167 0.02526 0.94852 0.0
H1467 H 0.39686 0.99111 0.91802 0.0
H1468 H 0.43387 0.98344 0.86239 0.0
H1469 H 0.4237 0.98423 0.88747 0.0
C1470 C 0.99826 0.39904 0.97322 0.0
C1471 C 0.00801 0.39671 0.97356 0.0
C1472 C 0.99662 0.40493 0.95974 0.0
C1473 C 0.01276 0.42496 0.92451 0.0
H1474 H 0.98001 0.41258 0.90728 0.0
C1475 C 0.0031 0.44185 0.8631 0.0
C1476 C 0.99266 0.44306 0.86226 0.0
C1477 C 0.00529 0.43664 0.87694 0.0
C1478 C 0.98919 0.41627 0.91207 0.0
H1479 H 0.02374 0.39877 0.96011 0.0
H1480 H 0.02086 0.40906 0.93647 0.0
H1481 H 0.98322 0.40254 0.93078 0.0
H1482 H 0.97655 0.44017 0.87555 0.0
H1483 H 0.98041 0.4312 0.89977 0.0
H1484 H 0.01873 0.43872 0.90582 0.0
C1485 C 0.01454 0.4064 0.94671 0.0
C1486 C 0.99103 0.41049 0.92553 0.0
C1487 C 0.01615 0.40046 0.96019 0.0
C1488 C 0.98459 0.4392 0.87572 0.0
C1489 C 0.98679 0.43403 0.88958 0.0
C1490 C 0.01091 0.43077 0.91107 0.0
C1491 C 0.00472 0.40865 0.94631 0.0
C1492 C 0.00283 0.41478 0.93192 0.0
C1493 C 0.99709 0.43255 0.89028 0.0
C1494 C 0.9991 0.4265 0.90469 0.0
H1495 H 0.99186 0.39629 0.98337 0.0
H1496 H 0.98906 0.40667 0.95991 0.0
H1497 H 0.02194 0.42858 0.92929 0.0
H1498 H 0.00941 0.44458 0.85283 0.0
H1499 H 0.01322 0.4355 0.87697 0.0
C1500 C 0.61561 0.62413 0.96781 0.0
C1501 C 0.62191 0.62055 0.97863 0.0
C1502 C 0.60906 0.6167 0.95448 0.0
C1503 C 0.59481 0.58502 0.93898 0.0
H1504 H 0.59866 0.60006 0.89612 0.0
C1505 C 0.57889 0.55689 0.87878 0.0
C1506 C 0.5738 0.56073 0.86639 0.0
C1507 C 0.58409 0.56401 0.89286 0.0
C1508 C 0.59733 0.59572 0.90803 0.0
H1509 H 0.62617 0.60633 0.98414 0.0
H1510 H 0.61478 0.5934 0.96091 0.0
H1511 H 0.60877 0.61282 0.92004 0.0
H1512 H 0.57019 0.57513 0.85916 0.0
H1513 H 0.57892 0.58736 0.88387 0.0
H1514 H 0.58339 0.56792 0.92699 0.0
C1515 C 0.61481 0.60189 0.96276 0.0
C1516 C 0.60314 0.60304 0.92175 0.0
C1517 C 0.6214 0.60933 0.97601 0.0
C1518 C 0.57389 0.5718 0.86853 0.0
C1519 C 0.57905 0.57891 0.88262 0.0
C1520 C 0.58896 0.5777 0.92528 0.0
C1521 C 0.60863 0.60552 0.95178 0.0
C1522 C 0.60202 0.59777 0.93735 0.0
C1523 C 0.5843 0.57515 0.8949 0.0
C1524 C 0.59021 0.58295 0.90961 0.0
H1525 H 0.61583 0.63272 0.96953 0.0
H1526 H 0.60429 0.61969 0.94632 0.0
H1527 H 0.59364 0.5807 0.95089 0.0
H1528 H 0.57887 0.54835 0.87762 0.0
H1529 H 0.58816 0.5609 0.90199 0.0
C1530 C 0.01981 0.6288 0.9629 0.0
C1531 C 0.01062 0.62273 0.97476 0.0
C1532 C 0.02048 0.6225 0.94915 0.0
C1533 C 0.01177 0.59191 0.93393 0.0
H1534 H 0.01399 0.6058 0.89062 0.0
C1535 C 0.00519 0.56436 0.87421 0.0
C1536 C 0.01209 0.57062 0.86025 0.0
C1537 C 0.00547 0.57074 0.88843 0.0
C1538 C 0.01359 0.60186 0.90261 0.0
H1539 H 0.99507 0.6053 0.98173 0.0
H1540 H 0.99637 0.59426 0.95784 0.0
H1541 H 0.01399 0.617 0.91503 0.0
H1542 H 0.02474 0.58861 0.85048 0.0
H1543 H 0.0257 0.5996 0.87542 0.0
H1544 H 0.01158 0.57688 0.92164 0.0
C1545 C 0.00302 0.60388 0.95915 0.0
C1546 C 0.01355 0.60828 0.91659 0.0
C1547 C 0.00225 0.61021 0.97277 0.0
C1548 C 0.01944 0.58342 0.86102 0.0
C1549 C 0.01983 0.58977 0.87529 0.0
C1550 C 0.01197 0.58555 0.91996 0.0
C1551 C 0.01208 0.60998 0.94714 0.0
C1552 C 0.01256 0.60334 0.93238 0.0
C1553 C 0.01276 0.58354 0.88913 0.0
C1554 C 0.01281 0.59041 0.90409 0.0
H1555 H 0.02638 0.63844 0.96412 0.0
H1556 H 0.0276 0.62739 0.94011 0.0
H1557 H 0.01112 0.58795 0.94599 0.0
H1558 H 0.99955 0.5545 0.87418 0.0
H1559 H 0.99979 0.56562 0.89876 0.0
C1560 C 0.40626 0.40589 0.97434 0.0
C1561 C 0.39344 0.39942 0.97535 0.0
C1562 C 0.41212 0.41289 0.96044 0.0
C1563 C 0.40865 0.42916 0.92553 0.0
H1564 H 0.4338 0.42441 0.90552 0.0
C1565 C 0.43123 0.45082 0.86284 0.0
C1566 C 0.44355 0.45424 0.86066 0.0
C1567 C 0.42498 0.44465 0.87712 0.0
C1568 C 0.42696 0.42603 0.91108 0.0
H1569 H 0.37669 0.39541 0.9628 0.0
H1570 H 0.387 0.40785 0.93848 0.0
H1571 H 0.42312 0.41272 0.92986 0.0
H1572 H 0.45921 0.45452 0.87196 0.0
H1573 H 0.4485 0.44418 0.8971 0.0
H1574 H 0.41265 0.44266 0.90694 0.0
C1575 C 0.39248 0.40744 0.94847 0.0
C1576 C 0.4208 0.41926 0.92499 0.0
C1577 C 0.38659 0.40029 0.96232 0.0
C1578 C 0.44965 0.45183 0.87326 0.0
C1579 C 0.44347 0.44582 0.8876 0.0
C1580 C 0.41494 0.43606 0.91168 0.0
C1581 C 0.4053 0.41368 0.94733 0.0
C1582 C 0.41161 0.42078 0.93238 0.0
C1583 C 0.43098 0.4419 0.88958 0.0
C1584 C 0.42421 0.43462 0.90432 0.0
H1585 H 0.41179 0.40542 0.98419 0.0
H1586 H 0.42202 0.41771 0.95995 0.0
H1587 H 0.40166 0.43055 0.93108 0.0
H1588 H 0.4263 0.45249 0.85322 0.0
H1589 H 0.41534 0.44168 0.87811 0.0
C1590 C 0.62447 0.01721 0.96657 0.0
C1591 C 0.62131 0.00653 0.97553 0.0
C1592 C 0.61748 0.01687 0.95302 0.0
C1593 C 0.58694 0.9994 0.93463 0.0
H1594 H 0.60343 0.01545 0.89413 0.0
C1595 C 0.56073 0.99393 0.8738 0.0
C1596 C 0.56518 0.00406 0.86317 0.0
C1597 C 0.56734 0.99428 0.88782 0.0
C1598 C 0.59866 0.01108 0.90541 0.0
H1599 H 0.60832 0.98715 0.97743 0.0
H1600 H 0.59603 0.98657 0.95379 0.0
H1601 H 0.61541 0.016 0.91797 0.0
H1602 H 0.5801 0.02256 0.85919 0.0
H1603 H 0.59128 0.02335 0.88392 0.0
H1604 H 0.57019 0.99464 0.92222 0.0
C1605 C 0.60391 0.9952 0.95728 0.0
C1606 C 0.60555 0.01137 0.91905 0.0
C1607 C 0.61098 0.99552 0.97074 0.0
C1608 C 0.57628 0.01463 0.86715 0.0
C1609 C 0.58282 0.01501 0.88124 0.0
C1610 C 0.58004 0.99921 0.92104 0.0
C1611 C 0.60712 0.00586 0.94824 0.0
C1612 C 0.59976 0.00553 0.93379 0.0
C1613 C 0.57852 0.0048 0.89165 0.0
C1614 C 0.58582 0.00505 0.90623 0.0
H1615 H 0.63238 0.02584 0.96998 0.0
H1616 H 0.62011 0.02525 0.94637 0.0
H1617 H 0.58225 0.99494 0.94591 0.0
H1618 H 0.55215 0.98569 0.87126 0.0
H1619 H 0.56379 0.98619 0.89545 0.0
C1620 C 0.62868 0.02256 0.06493 0.0
C1621 C 0.623 0.01245 0.0543 0.0
C1622 C 0.62227 0.02362 0.07827 0.0
C1623 C 0.59614 0.00485 0.10539 0.0
H1624 H 0.59873 0.03571 0.11745 0.0
C1625 C 0.56635 0.00752 0.15673 0.0
C1626 C 0.57206 0.01724 0.16794 0.0
C1627 C 0.57227 0.00747 0.14223 0.0
C1628 C 0.598 0.02705 0.11434 0.0
H1629 H 0.60611 0.99566 0.04909 0.0
H1630 H 0.59492 0.99754 0.07228 0.0
H1631 H 0.60973 0.03464 0.09335 0.0
H1632 H 0.58836 0.03468 0.17259 0.0
H1633 H 0.59878 0.03456 0.14732 0.0
H1634 H 0.58458 0.99727 0.12641 0.0
C1635 C 0.60436 0.00457 0.07045 0.0
C1636 C 0.6043 0.02644 0.10053 0.0
C1637 C 0.61075 0.00353 0.05711 0.0
C1638 C 0.58369 0.02711 0.16411 0.0
C1639 C 0.58965 0.02704 0.14962 0.0
C1640 C 0.58989 0.00547 0.11919 0.0
C1641 C 0.61007 0.01457 0.08127 0.0
C1642 C 0.60341 0.01532 0.09589 0.0
C1643 C 0.58408 0.01711 0.13864 0.0
C1644 C 0.5907 0.01656 0.12382 0.0
H1645 H 0.63812 0.02957 0.06307 0.0
H1646 H 0.62695 0.03137 0.08647 0.0
H1647 H 0.59545 0.9962 0.10234 0.0
H1648 H 0.5573 0.99989 0.15921 0.0
H1649 H 0.5676 0.99981 0.13388 0.0
C1650 C 0.99747 0.60904 0.05762 0.0
C1651 C 1.00033 0.62129 0.05832 0.0
C1652 C 0.99643 0.60259 0.07207 0.0
C1653 C 0.00767 0.60743 0.11434 0.0
H1654 H 0.9816 0.57411 0.1215 0.0
C1655 C 0.00427 0.58234 0.17493 0.0
C1656 C 0.00067 0.5699 0.17404 0.0
C1657 C 0.00335 0.58844 0.16115 0.0
C1658 C 0.98903 0.58336 0.11962 0.0
H1659 H 0.00411 0.63632 0.07467 0.0
H1660 H 0.00244 0.62506 0.09997 0.0
H1661 H 0.98144 0.58506 0.0968 0.0
H1662 H 0.99319 0.55405 0.15811 0.0
H1663 H 0.9919 0.56476 0.13382 0.0
H1664 H 0.01552 0.6057 0.13676 0.0
C1665 C 0.001 0.62048 0.08822 0.0
C1666 C 0.98889 0.58964 0.1055 0.0
C1667 C 0.00189 0.62689 0.07377 0.0
C1668 C 0.99596 0.56362 0.15914 0.0
C1669 C 0.99518 0.56977 0.14527 0.0
C1670 C 0.00789 0.60112 0.12834 0.0
C1671 C 0.99838 0.6083 0.08751 0.0
C1672 C 0.99822 0.60173 0.10273 0.0
C1673 C 0.99895 0.58229 0.14606 0.0
C1674 C 0.99857 0.589 0.13119 0.0
H1675 H 0.9962 0.60449 0.04588 0.0
H1676 H 0.9945 0.59325 0.07114 0.0
H1677 H 0.01509 0.61667 0.11239 0.0
H1678 H 0.00773 0.58734 0.18635 0.0
H1679 H 0.00607 0.59798 0.16238 0.0
C1680 C 0.40429 0.39025 0.06627 0.0
C1681 C 0.39697 0.39425 0.05858 0.0
C1682 C 0.4113 0.39635 0.08011 0.0
C1683 C 0.42405 0.42584 0.10275 0.0
H1684 H 0.42797 0.40742 0.13804 0.0
C1685 C 0.44418 0.44634 0.1668 0.0
C1686 C 0.45268 0.44344 0.17351 0.0
C1687 C 0.43778 0.44066 0.15238 0.0
C1688 C 0.42704 0.41269 0.12821 0.0
H1689 H 0.39106 0.40762 0.05949 0.0
H1690 H 0.40296 0.41804 0.08388 0.0
H1691 H 0.41579 0.39671 0.11393 0.0
H1692 H 0.4614 0.43258 0.16984 0.0
H1693 H 0.45003 0.42251 0.14491 0.0
H1694 H 0.43509 0.44179 0.11732 0.0
C1695 C 0.40359 0.41041 0.07902 0.0
C1696 C 0.42009 0.40657 0.11435 0.0
C1697 C 0.39669 0.40438 0.0651 0.0
C1698 C 0.45475 0.43486 0.16525 0.0
C1699 C 0.44827 0.4291 0.15094 0.0
C1700 C 0.43089 0.43194 0.1167 0.0
C1701 C 0.41104 0.40652 0.08668 0.0
C1702 C 0.4185 0.41305 0.10142 0.0
C1703 C 0.43966 0.43188 0.14442 0.0
C1704 C 0.43247 0.42544 0.12955 0.0
H1705 H 0.40474 0.3825 0.06145 0.0
H1706 H 0.41706 0.3932 0.08551 0.0
H1707 H 0.42323 0.43117 0.09293 0.0
H1708 H 0.4422 0.45274 0.17293 0.0
H1709 H 0.43111 0.44289 0.14771 0.0
C1710 C 0.66662 0.72693 0.39781 0.0
C1711 C 0.67483 0.73205 0.38458 0.0
C1712 C 0.66726 0.73419 0.41122 0.0
C1713 C 0.68928 0.76216 0.43273 0.0
H1714 H 0.66083 0.76023 0.45374 0.0
C1715 C 0.69469 0.79523 0.48459 0.0
C1716 C 0.68691 0.79037 0.49826 0.0
C1717 C 0.6924 0.78836 0.47021 0.0
C1718 C 0.66885 0.76078 0.44811 0.0
H1719 H 0.68983 0.74882 0.37474 0.0
H1720 H 0.69092 0.76143 0.39806 0.0
H1721 H 0.65822 0.74758 0.42958 0.0
H1722 H 0.67047 0.77465 0.5075 0.0
H1723 H 0.66656 0.76253 0.48244 0.0
H1724 H 0.69993 0.77511 0.4513 0.0
C1725 C 0.6841 0.75181 0.39819 0.0
C1726 C 0.66735 0.75355 0.43427 0.0
C1727 C 0.68343 0.74459 0.38479 0.0
C1728 C 0.67657 0.77865 0.49708 0.0
C1729 C 0.67433 0.77172 0.48272 0.0
C1730 C 0.69077 0.76931 0.44657 0.0
C1731 C 0.67615 0.74666 0.41167 0.0
C1732 C 0.67757 0.75422 0.42639 0.0
C1733 C 0.68235 0.77643 0.46921 0.0
C1734 C 0.6806 0.76878 0.4544 0.0
H1735 H 0.65989 0.71728 0.39797 0.0
H1736 H 0.66106 0.72996 0.42148 0.0
H1737 H 0.69731 0.76269 0.42714 0.0
H1738 H 0.70262 0.80432 0.48506 0.0
H1739 H 0.6986 0.79239 0.45991 0.0
C1740 C 0.28146 0.95853 0.39818 0.0
C1741 C 0.29166 0.95819 0.39202 0.0
C1742 C 0.27528 0.95171 0.41209 0.0
C1743 C 0.26893 0.92446 0.43533 0.0
H1744 H 0.26167 0.93968 0.47167 0.0
C1745 C 0.25028 0.89965 0.49731 0.0
C1746 C 0.24205 0.90188 0.5062 0.0
C1747 C 0.25601 0.90636 0.48314 0.0
C1748 C 0.26341 0.9352 0.46154 0.0
H1749 H 0.3034 0.95044 0.39552 0.0
H1750 H 0.29245 0.93836 0.41969 0.0
H1751 H 0.2722 0.95173 0.4474 0.0
H1752 H 0.23336 0.91295 0.50691 0.0
H1753 H 0.24285 0.92417 0.48182 0.0
H1754 H 0.25992 0.90787 0.44915 0.0
C1755 C 0.28928 0.94393 0.41377 0.0
C1756 C 0.26951 0.94215 0.44767 0.0
C1757 C 0.29557 0.95089 0.40001 0.0
C1758 C 0.23952 0.91084 0.50032 0.0
C1759 C 0.24513 0.91745 0.48603 0.0
C1760 C 0.26268 0.91746 0.44909 0.0
C1761 C 0.27908 0.94428 0.41994 0.0
C1762 C 0.2724 0.93686 0.4345 0.0
C1763 C 0.25356 0.91539 0.47733 0.0
C1764 C 0.25991 0.92276 0.46244 0.0
H1765 H 0.27826 0.96408 0.39226 0.0
H1766 H 0.2674 0.95208 0.41655 0.0
H1767 H 0.27091 0.92013 0.42523 0.0
H1768 H 0.25233 0.89271 0.50129 0.0
H1769 H 0.26254 0.9046 0.47693 0.0
C1770 C 0.06297 0.33633 0.39321 0.0
C1771 C 0.0597 0.34535 0.3912 0.0
C1772 C 0.06948 0.33632 0.40711 0.0
C1773 C 0.07766 0.34845 0.44964 0.0
H1774 H 0.10278 0.33965 0.44459 0.0
C1775 C 0.11092 0.35377 0.50217 0.0
C1776 C 0.11291 0.34391 0.5047 0.0
C1777 C 0.10456 0.35413 0.48828 0.0
C1778 C 0.09573 0.34203 0.44621 0.0
H1779 H 0.06068 0.36143 0.40214 0.0
H1780 H 0.0723 0.36158 0.4263 0.0
H1781 H 0.09149 0.34009 0.42049 0.0
H1782 H 0.10996 0.32681 0.49453 0.0
H1783 H 0.09884 0.32744 0.47025 0.0
H1784 H 0.08204 0.35051 0.47538 0.0
C1785 C 0.06964 0.35438 0.41728 0.0
C1786 C 0.08923 0.34226 0.43241 0.0
C1787 C 0.06304 0.35434 0.4034 0.0
C1788 C 0.1085 0.33448 0.49296 0.0
C1789 C 0.10223 0.33489 0.479 0.0
C1790 C 0.08423 0.34829 0.46343 0.0
C1791 C 0.07297 0.34538 0.41928 0.0
C1792 C 0.08006 0.34541 0.43396 0.0
C1793 C 0.10014 0.34469 0.47655 0.0
C1794 C 0.09329 0.34503 0.46188 0.0
H1795 H 0.06045 0.32923 0.38407 0.0
H1796 H 0.07167 0.32912 0.40837 0.0
H1797 H 0.07055 0.35073 0.45135 0.0
H1798 H 0.11409 0.36111 0.51108 0.0
H1799 H 0.10318 0.36185 0.48666 0.0
C1800 C 0.07267 0.35526 0.30519 0.0
C1801 C 0.0605 0.34582 0.30701 0.0
C1802 C 0.07949 0.35567 0.29141 0.0
C1803 C 0.07627 0.34376 0.24887 0.0
H1804 H 0.11052 0.35376 0.25431 0.0
C1805 C 0.10464 0.33826 0.19747 0.0
C1806 C 0.11646 0.34816 0.19468 0.0
C1807 C 0.09789 0.33815 0.21115 0.0
C1808 C 0.101 0.35107 0.25257 0.0
H1809 H 0.04592 0.32938 0.29588 0.0
H1810 H 0.05788 0.32994 0.27195 0.0
H1811 H 0.09851 0.35305 0.27822 0.0
H1812 H 0.13051 0.36565 0.20412 0.0
H1813 H 0.11868 0.36546 0.22809 0.0
H1814 H 0.07876 0.34162 0.22323 0.0
C1815 C 0.06211 0.33716 0.28101 0.0
C1816 C 0.09411 0.35067 0.26626 0.0
C1817 C 0.05527 0.33679 0.29477 0.0
C1818 C 0.12141 0.35793 0.20592 0.0
C1819 C 0.11468 0.35777 0.21969 0.0
C1820 C 0.08315 0.34408 0.2352 0.0
C1821 C 0.07432 0.34661 0.27917 0.0
C1822 C 0.08165 0.34701 0.26459 0.0
C1823 C 0.10282 0.3479 0.2224 0.0
C1824 C 0.09558 0.34773 0.2369 0.0
H1825 H 0.07694 0.36239 0.31438 0.0
H1826 H 0.08878 0.36319 0.29029 0.0
H1827 H 0.06677 0.34111 0.24705 0.0
H1828 H 0.10052 0.33067 0.18893 0.0
H1829 H 0.08883 0.33037 0.21299 0.0
C1830 C 0.69142 0.73876 0.29794 0.0
C1831 C 0.67984 0.73033 0.30421 0.0
C1832 C 0.69249 0.74567 0.28394 0.0
C1833 C 0.67541 0.74603 0.24735 0.0
H1834 H 0.69905 0.78071 0.24659 0.0
C1835 C 0.67541 0.77732 0.19591 0.0
C1836 C 0.68677 0.78634 0.18968 0.0
C1837 C 0.67477 0.77069 0.20999 0.0
C1838 C 0.69251 0.77101 0.24652 0.0
H1839 H 0.66031 0.72247 0.30072 0.0
H1840 H 0.66218 0.73451 0.27628 0.0
H1841 H 0.69763 0.76862 0.2708 0.0
H1842 H 0.70638 0.7956 0.19363 0.0
H1843 H 0.70528 0.78381 0.21801 0.0
H1844 H 0.67031 0.74835 0.22308 0.0
C1845 C 0.67043 0.73573 0.28211 0.0
C1846 C 0.69169 0.76409 0.2604 0.0
C1847 C 0.66936 0.72888 0.29616 0.0
C1848 C 0.69748 0.78864 0.19799 0.0
C1849 C 0.69685 0.78197 0.21208 0.0
C1850 C 0.67625 0.75293 0.23346 0.0
C1851 C 0.682 0.74422 0.27586 0.0
C1852 C 0.68308 0.75154 0.261 0.0
C1853 C 0.68548 0.77286 0.21818 0.0
C1854 C 0.68476 0.76552 0.2329 0.0
H1855 H 0.69966 0.74007 0.3039 0.0
H1856 H 0.70153 0.75205 0.27931 0.0
H1857 H 0.66882 0.73634 0.24734 0.0
H1858 H 0.66698 0.77519 0.18971 0.0
H1859 H 0.66586 0.76387 0.21448 0.0
C1860 C 0.28492 0.96217 0.29652 0.0
C1861 C 0.28752 0.95676 0.30985 0.0
C1862 C 0.27811 0.95508 0.28307 0.0
C1863 C 0.25697 0.92299 0.27041 0.0
H1864 H 0.26769 0.93552 0.22627 0.0
C1865 C 0.24053 0.89225 0.21259 0.0
C1866 C 0.23795 0.8969 0.19837 0.0
C1867 C 0.2458 0.89968 0.2264 0.0
C1868 C 0.26448 0.93195 0.23852 0.0
H1869 H 0.28497 0.93969 0.31963 0.0
H1870 H 0.2733 0.9274 0.29618 0.0
H1871 H 0.27824 0.94836 0.24999 0.0
H1872 H 0.23893 0.91303 0.18751 0.0
H1873 H 0.248 0.92594 0.21168 0.0
H1874 H 0.24335 0.9065 0.25892 0.0
C1875 C 0.27631 0.93706 0.29616 0.0
C1876 C 0.27051 0.93931 0.25212 0.0
C1877 C 0.28308 0.94413 0.30956 0.0
C1878 C 0.24067 0.90912 0.19833 0.0
C1879 C 0.24599 0.91656 0.21211 0.0
C1880 C 0.25096 0.91561 0.25682 0.0
C1881 C 0.27378 0.94244 0.28271 0.0
C1882 C 0.26691 0.93488 0.26823 0.0
C1883 C 0.24868 0.91195 0.22627 0.0
C1884 C 0.25472 0.91997 0.24071 0.0
H1885 H 0.2882 0.97189 0.29642 0.0
H1886 H 0.27621 0.95949 0.27299 0.0
H1887 H 0.25381 0.91936 0.28265 0.0
H1888 H 0.23846 0.88285 0.21305 0.0
H1889 H 0.24787 0.89588 0.23706 0.0
C1890 C 0.66931 0.94928 0.29667 0.0
C1891 C 0.67963 0.95921 0.30383 0.0
C1892 C 0.67057 0.94312 0.28322 0.0
C1893 C 0.69204 0.94626 0.24993 0.0
H1894 H 0.6712 0.91108 0.24715 0.0
C1895 C 0.69856 0.91738 0.20019 0.0
C1896 C 0.68792 0.90878 0.19187 0.0
C1897 C 0.69779 0.92326 0.21432 0.0
C1898 C 0.67703 0.92091 0.24772 0.0
H1899 H 0.69934 0.9705 0.30254 0.0
H1900 H 0.7016 0.95958 0.27923 0.0
H1901 H 0.66953 0.92201 0.27083 0.0
H1902 H 0.66809 0.89957 0.1921 0.0
H1903 H 0.66676 0.90967 0.21693 0.0
H1904 H 0.6996 0.94509 0.22685 0.0
C1905 C 0.6925 0.95668 0.28381 0.0
C1906 C 0.67605 0.92719 0.26125 0.0
C1907 C 0.69123 0.96291 0.29722 0.0
C1908 C 0.67647 0.90599 0.19831 0.0
C1909 C 0.6757 0.91181 0.21252 0.0
C1910 C 0.69308 0.93996 0.23646 0.0
C1911 C 0.68218 0.94668 0.27668 0.0
C1912 C 0.68348 0.93996 0.26248 0.0
C1913 C 0.68635 0.92061 0.22056 0.0
C1914 C 0.68553 0.92723 0.23516 0.0
H1915 H 0.66024 0.94627 0.30145 0.0
H1916 H 0.6624 0.93562 0.27786 0.0
H1917 H 0.69778 0.9561 0.25032 0.0
H1918 H 0.70752 0.9196 0.19576 0.0
H1919 H 0.70615 0.92988 0.22041 0.0
C1920 C 0.07206 0.73352 0.30711 0.0
C1921 C 0.05997 0.73074 0.30994 0.0
C1922 C 0.07839 0.74013 0.29317 0.0
C1923 C 0.07886 0.76114 0.26127 0.0
H1924 H 0.09823 0.75042 0.23708 0.0
C1925 C 0.10002 0.78061 0.19734 0.0
C1926 C 0.11172 0.78238 0.19408 0.0
C1927 C 0.09384 0.77478 0.2118 0.0
C1928 C 0.093 0.75364 0.24381 0.0
H1929 H 0.04507 0.73281 0.3005 0.0
H1930 H 0.05614 0.74435 0.27605 0.0
H1931 H 0.08713 0.73931 0.26158 0.0
H1932 H 0.1263 0.77985 0.20373 0.0
H1933 H 0.11556 0.76977 0.229 0.0
H1934 H 0.08476 0.77549 0.24346 0.0
C1935 C 0.06074 0.74148 0.28469 0.0
C1936 C 0.08662 0.74726 0.25785 0.0
C1937 C 0.05438 0.73483 0.29864 0.0
C1938 C 0.11721 0.77844 0.20576 0.0
C1939 C 0.11105 0.77265 0.22023 0.0
C1940 C 0.08528 0.76756 0.24722 0.0
C1941 C 0.0728 0.74415 0.28176 0.0
C1942 C 0.07949 0.75094 0.26677 0.0
C1943 C 0.09923 0.77061 0.22334 0.0
C1944 C 0.09244 0.76389 0.23834 0.0
H1945 H 0.07663 0.73053 0.31563 0.0
H1946 H 0.08772 0.74218 0.2914 0.0
H1947 H 0.07357 0.76429 0.26799 0.0
H1948 H 0.09549 0.7834 0.18848 0.0
H1949 H 0.08469 0.77323 0.21371 0.0
C1950 C 0.28751 0.35435 0.30946 0.0
C1951 C 0.28868 0.34394 0.31099 0.0
C1952 C 0.28133 0.35565 0.29606 0.0
C1953 C 0.25935 0.33861 0.26266 0.0
H1954 H 0.27393 0.3706 0.24229 0.0
C1955 C 0.24337 0.34785 0.19992 0.0
C1956 C 0.24306 0.35877 0.19847 0.0
C1957 C 0.24821 0.34549 0.21403 0.0
C1958 C 0.26965 0.36165 0.24795 0.0
H1959 H 0.28411 0.3266 0.29985 0.0
H1960 H 0.27341 0.32893 0.27625 0.0
H1961 H 0.28376 0.36748 0.26606 0.0
H1962 H 0.24705 0.37548 0.21106 0.0
H1963 H 0.25549 0.37138 0.23563 0.0
H1964 H 0.24528 0.3328 0.24436 0.0
C1965 C 0.27717 0.33603 0.28553 0.0
C1966 C 0.27529 0.35985 0.26159 0.0
C1967 C 0.28334 0.33472 0.29899 0.0
C1968 C 0.24737 0.3671 0.21165 0.0
C1969 C 0.25221 0.36475 0.22573 0.0
C1970 C 0.25371 0.34041 0.24896 0.0
C1971 C 0.27621 0.34658 0.28382 0.0
C1972 C 0.27018 0.34834 0.26918 0.0
C1973 C 0.25286 0.35401 0.22698 0.0
C1974 C 0.25877 0.35197 0.24151 0.0
H1975 H 0.29145 0.36158 0.31857 0.0
H1976 H 0.28057 0.36379 0.2953 0.0
H1977 H 0.25512 0.32966 0.26832 0.0
H1978 H 0.24024 0.3413 0.18991 0.0
H1979 H 0.24868 0.33719 0.21456 0.0
C1980 C 0.29201 0.34987 0.40114 0.0
C1981 C 0.28747 0.34087 0.3888 0.0
C1982 C 0.28473 0.34891 0.41469 0.0
C1983 C 0.25794 0.32594 0.43802 0.0
H1984 H 0.25737 0.35399 0.45619 0.0
C1985 C 0.223 0.32042 0.48729 0.0
C1986 C 0.22734 0.32846 0.50078 0.0
C1987 C 0.23032 0.32253 0.47342 0.0
C1988 C 0.25752 0.34609 0.45134 0.0
H1989 H 0.27167 0.32398 0.38073 0.0
H1990 H 0.25896 0.32239 0.40416 0.0
H1991 H 0.27029 0.3566 0.43236 0.0
H1992 H 0.24272 0.34517 0.51014 0.0
H1993 H 0.25552 0.34888 0.48584 0.0
H1994 H 0.24521 0.31543 0.45692 0.0
C1995 C 0.2682 0.33007 0.40359 0.0
C1996 C 0.26493 0.34759 0.4377 0.0
C1997 C 0.27546 0.33103 0.3901 0.0
C1998 C 0.23906 0.33887 0.49988 0.0
C1999 C 0.2464 0.34099 0.48597 0.0
C2000 C 0.25054 0.32445 0.45159 0.0
C2001 C 0.27278 0.33892 0.41615 0.0
C2002 C 0.26515 0.3375 0.43083 0.0
C2003 C 0.24217 0.33273 0.4727 0.0
C2004 C 0.25018 0.33448 0.45835 0.0
H2005 H 0.30125 0.35755 0.40046 0.0
H2006 H 0.28857 0.35582 0.42421 0.0
H2007 H 0.25809 0.31803 0.43327 0.0
H2008 H 0.21392 0.31244 0.48746 0.0
H2009 H 0.2267 0.31613 0.46326 0.0
C2010 C 0.6655 0.95593 0.40139 0.0
C2011 C 0.66908 0.95361 0.38607 0.0
C2012 C 0.66495 0.94911 0.41528 0.0
C2013 C 0.66488 0.92079 0.42825 0.0
H2014 H 0.6786 0.9388 0.46874 0.0
C2015 C 0.68269 0.90341 0.48127 0.0
C2016 C 0.68038 0.90552 0.49753 0.0
C2017 C 0.67942 0.90821 0.46797 0.0
C2018 C 0.67457 0.9336 0.45761 0.0
H2019 H 0.67462 0.94217 0.37316 0.0
H2020 H 0.6739 0.93049 0.39732 0.0
H2021 H 0.67619 0.94917 0.44499 0.0
H2022 H 0.67269 0.91416 0.51257 0.0
H2023 H 0.66694 0.92249 0.48933 0.0
H2024 H 0.66368 0.90532 0.44079 0.0
C2025 C 0.67129 0.93739 0.39866 0.0
C2026 C 0.67315 0.93953 0.44398 0.0
C2027 C 0.67179 0.94415 0.3848 0.0
C2028 C 0.67448 0.91228 0.50018 0.0
C2029 C 0.6713 0.91715 0.48689 0.0
C2030 C 0.66638 0.91488 0.44185 0.0
C2031 C 0.66801 0.93986 0.41413 0.0
C2032 C 0.66846 0.93325 0.42905 0.0
C2033 C 0.67387 0.9153 0.47065 0.0
C2034 C 0.67139 0.92126 0.4566 0.0
H2035 H 0.66331 0.96313 0.40272 0.0
H2036 H 0.66222 0.95114 0.42696 0.0
H2037 H 0.66102 0.91561 0.41705 0.0
H2038 H 0.68715 0.89817 0.47884 0.0
H2039 H 0.68162 0.90671 0.45561 0.0
C2040 C 0.06303 0.72175 0.40587 0.0
C2041 C 0.06269 0.72829 0.3921 0.0
C2042 C 0.07021 0.72791 0.41956 0.0
C2043 C 0.0862 0.75847 0.43951 0.0
H2044 H 0.10256 0.74435 0.46375 0.0
C2045 C 0.12121 0.78394 0.49183 0.0
C2046 C 0.11952 0.77717 0.50633 0.0
C2047 C 0.11457 0.77822 0.47756 0.0
C2048 C 0.09799 0.74837 0.45714 0.0
H2049 H 0.06968 0.74637 0.38174 0.0
H2050 H 0.08248 0.75712 0.40539 0.0
H2051 H 0.09053 0.73394 0.4394 0.0
H2052 H 0.10927 0.75909 0.51719 0.0
H2053 H 0.09799 0.74914 0.49223 0.0
H2054 H 0.09387 0.77299 0.45722 0.0
C2055 C 0.07699 0.74725 0.40585 0.0
C2056 C 0.09105 0.74238 0.44323 0.0
C2057 C 0.06971 0.7411 0.39223 0.0
C2058 C 0.11105 0.76456 0.50617 0.0
C2059 C 0.10453 0.75884 0.49188 0.0
C2060 C 0.09326 0.76452 0.45335 0.0
C2061 C 0.07731 0.74075 0.41971 0.0
C2062 C 0.08497 0.7473 0.4343 0.0
C2063 C 0.1062 0.7656 0.47744 0.0
C2064 C 0.09913 0.75947 0.46237 0.0
H2065 H 0.05765 0.71188 0.40615 0.0
H2066 H 0.07005 0.72259 0.43011 0.0
H2067 H 0.08151 0.76244 0.43312 0.0
H2068 H 0.12776 0.79362 0.49141 0.0
H2069 H 0.11611 0.78363 0.46653 0.0
C2070 C 0.33544 0.05666 0.7398 0.0
C2071 C 0.33537 0.06104 0.72392 0.0
C2072 C 0.33636 0.06361 0.75367 0.0
C2073 C 0.33209 0.0882 0.76958 0.0
H2074 H 0.35931 0.09508 0.79835 0.0
C2075 C 0.34761 0.12421 0.82168 0.0
C2076 C 0.35229 0.12204 0.83617 0.0
C2077 C 0.34503 0.11658 0.80798 0.0
C2078 C 0.35152 0.0931 0.79068 0.0
H2079 H 0.33556 0.07579 0.71009 0.0
H2080 H 0.33687 0.08781 0.73445 0.0
H2081 H 0.35486 0.08154 0.77489 0.0
H2082 H 0.35757 0.11005 0.84798 0.0
H2083 H 0.35265 0.09647 0.82444 0.0
H2084 H 0.32851 0.09949 0.78554 0.0
C2085 C 0.33632 0.07906 0.7361 0.0
C2086 C 0.34902 0.08537 0.77718 0.0
C2087 C 0.3356 0.0722 0.7222 0.0
C2088 C 0.35416 0.11203 0.83684 0.0
C2089 C 0.35138 0.10428 0.82328 0.0
C2090 C 0.33445 0.09579 0.78328 0.0
C2091 C 0.33703 0.07496 0.75193 0.0
C2092 C 0.33931 0.08287 0.76649 0.0
C2093 C 0.34687 0.1065 0.80859 0.0
C2094 C 0.34423 0.09837 0.79401 0.0
H2095 H 0.3353 0.0481 0.74151 0.0
H2096 H 0.3368 0.06022 0.76577 0.0
H2097 H 0.32452 0.08636 0.76152 0.0
H2098 H 0.34614 0.13192 0.82087 0.0
H2099 H 0.34176 0.11873 0.79685 0.0
C2100 C 0.96064 0.28262 0.73429 0.0
C2101 C 0.95578 0.28764 0.72324 0.0
C2102 C 0.9537 0.27561 0.74771 0.0
C2103 C 0.92185 0.2579 0.76284 0.0
H2104 H 0.93661 0.26473 0.80628 0.0
C2105 C 0.89349 0.24563 0.82218 0.0
C2106 C 0.89727 0.24171 0.83602 0.0
C2107 C 0.90064 0.2495 0.80797 0.0
C2108 C 0.93239 0.26254 0.7942 0.0
H2109 H 0.93987 0.28921 0.71751 0.0
H2110 H 0.92785 0.27709 0.74084 0.0
H2111 H 0.94928 0.27481 0.78222 0.0
H2112 H 0.91141 0.23849 0.84566 0.0
H2113 H 0.92392 0.24519 0.82066 0.0
H2114 H 0.90493 0.24584 0.77481 0.0
C2115 C 0.93694 0.27842 0.7391 0.0
C2116 C 0.93965 0.26833 0.78042 0.0
C2117 C 0.94386 0.28545 0.72578 0.0
C2118 C 0.90822 0.24141 0.83515 0.0
C2119 C 0.91544 0.24535 0.82091 0.0
C2120 C 0.91461 0.25211 0.77659 0.0
C2121 C 0.94177 0.27343 0.75023 0.0
C2122 C 0.9344 0.26629 0.76463 0.0
C2123 C 0.91178 0.24956 0.80722 0.0
C2124 C 0.91974 0.25458 0.79247 0.0
H2125 H 0.9698 0.28415 0.73261 0.0
H2126 H 0.95765 0.27183 0.75604 0.0
H2127 H 0.91758 0.25595 0.75079 0.0
H2128 H 0.88502 0.24583 0.82241 0.0
H2129 H 0.89761 0.25281 0.79773 0.0
C2130 C 0.73971 0.69305 0.72976 0.0
C2131 C 0.73018 0.68145 0.72513 0.0
C2132 C 0.74719 0.69436 0.74323 0.0
C2133 C 0.75668 0.6767 0.76987 0.0
H2134 H 0.76697 0.70407 0.79973 0.0
C2135 C 0.77799 0.67895 0.83362 0.0
C2136 C 0.78804 0.69018 0.8385 0.0
C2137 C 0.77149 0.6781 0.81928 0.0
C2138 C 0.76429 0.69645 0.79139 0.0
H2139 H 0.72091 0.66215 0.73104 0.0
H2140 H 0.73374 0.66444 0.75472 0.0
H2141 H 0.75443 0.70218 0.77582 0.0
H2142 H 0.79926 0.70928 0.83183 0.0
H2143 H 0.78777 0.7078 0.80691 0.0
H2144 H 0.76636 0.67087 0.78565 0.0
C2145 C 0.73565 0.67252 0.74778 0.0
C2146 C 0.75711 0.69537 0.77767 0.0
C2147 C 0.72823 0.67121 0.73427 0.0
C2148 C 0.79146 0.70052 0.82859 0.0
C2149 C 0.7849 0.69969 0.8143 0.0
C2150 C 0.76378 0.67774 0.78364 0.0
C2151 C 0.74525 0.6841 0.75241 0.0
C2152 C 0.75316 0.68545 0.76678 0.0
C2153 C 0.77481 0.68847 0.80952 0.0
C2154 C 0.76762 0.6876 0.79459 0.0
H2155 H 0.74147 0.70111 0.72289 0.0
H2156 H 0.75459 0.7034 0.74631 0.0
H2157 H 0.75401 0.66907 0.76158 0.0
H2158 H 0.77494 0.67084 0.84109 0.0
H2159 H 0.76365 0.66936 0.81606 0.0
C2160 C 0.73794 0.68441 0.63823 0.0
C2161 C 0.72713 0.67417 0.64375 0.0
C2162 C 0.74416 0.68354 0.62452 0.0
C2163 C 0.73973 0.66396 0.58801 0.0
H2164 H 0.77514 0.68269 0.58615 0.0
C2165 C 0.76738 0.65695 0.53705 0.0
C2166 C 0.77621 0.66759 0.529 0.0
C2167 C 0.76179 0.6577 0.5515 0.0
C2168 C 0.76525 0.67746 0.58649 0.0
H2169 H 0.71445 0.65496 0.63949 0.0
H2170 H 0.72547 0.65331 0.61593 0.0
H2171 H 0.76457 0.68392 0.6106 0.0
H2172 H 0.78621 0.68741 0.53014 0.0
H2173 H 0.77667 0.68866 0.55563 0.0
H2174 H 0.74048 0.65733 0.56401 0.0
C2175 C 0.72901 0.66211 0.62185 0.0
C2176 C 0.75917 0.67819 0.60046 0.0
C2177 C 0.72272 0.66302 0.63543 0.0
C2178 C 0.77959 0.67901 0.53609 0.0
C2179 C 0.77409 0.67975 0.55066 0.0
C2180 C 0.74582 0.66311 0.57416 0.0
C2181 C 0.73978 0.67238 0.61613 0.0
C2182 C 0.74631 0.67148 0.60138 0.0
C2183 C 0.76501 0.6691 0.55836 0.0
C2184 C 0.75863 0.66988 0.57324 0.0
H2185 H 0.74152 0.69315 0.64436 0.0
H2186 H 0.75228 0.6917 0.62035 0.0
H2187 H 0.72983 0.65885 0.58808 0.0
H2188 H 0.76473 0.64799 0.53219 0.0
H2189 H 0.75494 0.64934 0.55733 0.0
C2190 C 0.35637 0.07637 0.63924 0.0
C2191 C 0.34572 0.06503 0.64164 0.0
C2192 C 0.35743 0.08359 0.62558 0.0
C2193 C 0.33858 0.0878 0.59407 0.0
H2194 H 0.36936 0.1059 0.57075 0.0
C2195 C 0.34243 0.1092 0.53011 0.0
C2196 C 0.35223 0.12109 0.52743 0.0
C2197 C 0.3418 0.10286 0.54449 0.0
C2198 C 0.36075 0.101 0.57726 0.0
H2199 H 0.32795 0.05221 0.63148 0.0
H2200 H 0.3299 0.06462 0.6075 0.0
H2201 H 0.36804 0.09372 0.59484 0.0
H2202 H 0.36902 0.13567 0.538 0.0
H2203 H 0.36801 0.12446 0.56301 0.0
H2204 H 0.33125 0.0949 0.57628 0.0
C2205 C 0.33733 0.06812 0.61633 0.0
C2206 C 0.35998 0.09403 0.59107 0.0
C2207 C 0.33624 0.06096 0.63001 0.0
C2208 C 0.36142 0.12647 0.53953 0.0
C2209 C 0.36084 0.12007 0.55388 0.0
C2210 C 0.33933 0.09469 0.58021 0.0
C2211 C 0.34789 0.07957 0.614 0.0
C2212 C 0.34886 0.08728 0.59958 0.0
C2213 C 0.35102 0.1082 0.5565 0.0
C2214 C 0.35039 0.10129 0.5716 0.0
H2215 H 0.36381 0.07976 0.64804 0.0
H2216 H 0.36564 0.09241 0.62427 0.0
H2217 H 0.32994 0.08294 0.60051 0.0
H2218 H 0.33533 0.10464 0.52093 0.0
H2219 H 0.33422 0.09364 0.54606 0.0
C2220 C 0.96308 0.29633 0.62408 0.0
C2221 C 0.95701 0.29284 0.63931 0.0
C2222 C 0.95742 0.28967 0.60981 0.0
C2223 C 0.9276 0.2677 0.59163 0.0
H2224 H 0.94652 0.2575 0.56541 0.0
C2225 C 0.90542 0.23006 0.54185 0.0
C2226 C 0.91223 0.23125 0.52761 0.0
C2227 C 0.91076 0.23818 0.55503 0.0
C2228 C 0.94114 0.26042 0.57239 0.0
H2229 H 0.94012 0.27998 0.65148 0.0
H2230 H 0.9302 0.26845 0.62654 0.0
H2231 H 0.95602 0.27106 0.5888 0.0
H2232 H 0.9298 0.2421 0.51571 0.0
H2233 H 0.93903 0.25641 0.53846 0.0
H2234 H 0.91273 0.25714 0.57518 0.0
C2235 C 0.93932 0.2763 0.62562 0.0
C2236 C 0.9466 0.26818 0.58583 0.0
C2237 C 0.94502 0.28287 0.63991 0.0
C2238 C 0.9244 0.24084 0.52667 0.0
C2239 C 0.92969 0.24902 0.53974 0.0
C2240 C 0.92215 0.26002 0.57808 0.0
C2241 C 0.94554 0.2795 0.61048 0.0
C2242 C 0.93987 0.27183 0.59567 0.0
C2243 C 0.92299 0.24774 0.55417 0.0
C2244 C 0.92883 0.2562 0.56835 0.0
H2245 H 0.97233 0.30397 0.62326 0.0
H2246 H 0.96238 0.29241 0.59827 0.0
H2247 H 0.92222 0.27046 0.59893 0.0
H2248 H 0.89604 0.2227 0.54294 0.0
H2249 H 0.90536 0.23678 0.56602 0.0
C2250 C 0.35682 0.29531 0.63301 0.0
C2251 C 0.34523 0.2924 0.6389 0.0
C2252 C 0.35794 0.28905 0.61955 0.0
C2253 C 0.34065 0.2605 0.59533 0.0
H2254 H 0.36568 0.27826 0.56251 0.0
C2255 C 0.34186 0.23995 0.53215 0.0
C2256 C 0.35333 0.24248 0.52615 0.0
C2257 C 0.34098 0.24564 0.54643 0.0
C2258 C 0.35874 0.27314 0.57167 0.0
H2259 H 0.32571 0.28075 0.63522 0.0
H2260 H 0.32765 0.27 0.61155 0.0
H2261 H 0.36392 0.28911 0.5862 0.0
H2262 H 0.37286 0.25268 0.53087 0.0
H2263 H 0.37132 0.26268 0.5557 0.0
H2264 H 0.33537 0.24456 0.58062 0.0
C2265 C 0.33589 0.27694 0.6175 0.0
C2266 C 0.35773 0.27936 0.58527 0.0
C2267 C 0.33478 0.28316 0.631 0.0
C2268 C 0.36389 0.25067 0.53497 0.0
C2269 C 0.36301 0.2564 0.5492 0.0
C2270 C 0.34162 0.25429 0.58169 0.0
C2271 C 0.34749 0.27978 0.61162 0.0
C2272 C 0.34866 0.27312 0.59725 0.0
C2273 C 0.35156 0.25404 0.555 0.0
C2274 C 0.35067 0.26055 0.5697 0.0
H2275 H 0.36504 0.30236 0.6389 0.0
H2276 H 0.36701 0.29137 0.61549 0.0
H2277 H 0.33369 0.25536 0.60446 0.0
H2278 H 0.33355 0.23384 0.52554 0.0
H2279 H 0.33203 0.24373 0.55048 0.0
C2280 C 0.72321 0.06627 0.63396 0.0
C2281 C 0.72817 0.06139 0.64504 0.0
C2282 C 0.72981 0.07274 0.62004 0.0
C2283 C 0.75519 0.07711 0.59292 0.0
H2284 H 0.75564 0.10683 0.57999 0.0
C2285 C 0.78723 0.10878 0.54187 0.0
C2286 C 0.78226 0.11362 0.5307 0.0
C2287 C 0.78076 0.10261 0.55601 0.0
C2288 C 0.75551 0.09848 0.58333 0.0
H2289 H 0.74394 0.05946 0.65027 0.0
H2290 H 0.75548 0.07079 0.62611 0.0
H2291 H 0.74394 0.09555 0.60413 0.0
H2292 H 0.76652 0.11564 0.52556 0.0
H2293 H 0.75526 0.10489 0.55018 0.0
H2294 H 0.76673 0.08002 0.57211 0.0
C2295 C 0.74644 0.06952 0.62803 0.0
C2296 C 0.74879 0.09201 0.59716 0.0
C2297 C 0.73985 0.06308 0.64193 0.0
C2298 C 0.77071 0.11221 0.53405 0.0
C2299 C 0.76425 0.10604 0.54817 0.0
C2300 C 0.7619 0.08358 0.57909 0.0
C2301 C 0.74151 0.07442 0.61691 0.0
C2302 C 0.74856 0.08125 0.60212 0.0
C2303 C 0.76916 0.10113 0.55929 0.0
C2304 C 0.76214 0.09434 0.57413 0.0
H2305 H 0.71421 0.06509 0.63602 0.0
H2306 H 0.7257 0.07628 0.61161 0.0
H2307 H 0.75505 0.06876 0.59625 0.0
H2308 H 0.79617 0.10984 0.53975 0.0
H2309 H 0.78489 0.09909 0.56445 0.0
C2310 C 0.95318 0.68509 0.63771 0.0
C2311 C 0.95316 0.67477 0.64409 0.0
C2312 C 0.94596 0.68404 0.62408 0.0
C2313 C 0.91863 0.66265 0.6011 0.0
H2314 H 0.9341 0.68487 0.56452 0.0
C2315 C 0.894 0.65667 0.53875 0.0
C2316 C 0.8965 0.66721 0.52985 0.0
C2317 C 0.90058 0.65751 0.55302 0.0
C2318 C 0.92955 0.67871 0.57471 0.0
H2319 H 0.94542 0.65522 0.64146 0.0
H2320 H 0.93259 0.65334 0.61774 0.0
H2321 H 0.94605 0.68652 0.58892 0.0
H2322 H 0.90788 0.68697 0.52928 0.0
H2323 H 0.91883 0.68847 0.55452 0.0
H2324 H 0.90206 0.655 0.58714 0.0
C2325 C 0.93824 0.66224 0.62327 0.0
C2326 C 0.93644 0.67964 0.58866 0.0
C2327 C 0.94561 0.66333 0.63678 0.0
C2328 C 0.90556 0.67864 0.53586 0.0
C2329 C 0.91202 0.67949 0.55024 0.0
C2330 C 0.91168 0.66183 0.58723 0.0
C2331 C 0.93845 0.67262 0.6167 0.0
C2332 C 0.93106 0.67161 0.60197 0.0
C2333 C 0.90974 0.66893 0.55891 0.0
C2334 C 0.91705 0.66984 0.57382 0.0
H2335 H 0.95891 0.69404 0.64308 0.0
H2336 H 0.9462 0.69216 0.61933 0.0
H2337 H 0.91424 0.65641 0.61128 0.0
H2338 H 0.88698 0.64772 0.53467 0.0
H2339 H 0.89863 0.64915 0.55924 0.0
C2340 C 0.95231 0.6705 0.73503 0.0
C2341 C 0.95802 0.68064 0.72448 0.0
C2342 C 0.94598 0.6708 0.74894 0.0
C2343 C 0.92926 0.68477 0.76586 0.0
H2344 H 0.93483 0.67362 0.80775 0.0
C2345 C 0.90376 0.68431 0.82558 0.0
C2346 C 0.90014 0.67429 0.83623 0.0
C2347 C 0.91144 0.6861 0.81216 0.0
C2348 C 0.93304 0.67662 0.79612 0.0
H2349 H 0.96151 0.69901 0.7201 0.0
H2350 H 0.95018 0.69943 0.74438 0.0
H2351 H 0.94703 0.67479 0.78387 0.0
H2352 H 0.90199 0.65843 0.84113 0.0
H2353 H 0.91478 0.6612 0.81747 0.0
H2354 H 0.91497 0.68618 0.77791 0.0
C2355 C 0.9507 0.6913 0.74188 0.0
C2356 C 0.94009 0.67735 0.78247 0.0
C2357 C 0.95721 0.69107 0.72806 0.0
C2358 C 0.90437 0.66612 0.83307 0.0
C2359 C 0.91193 0.66784 0.81961 0.0
C2360 C 0.92209 0.68389 0.77949 0.0
C2361 C 0.94508 0.68118 0.75248 0.0
C2362 C 0.93817 0.68128 0.76717 0.0
C2363 C 0.91564 0.67789 0.80902 0.0
C2364 C 0.92377 0.67964 0.79475 0.0
H2365 H 0.95277 0.66233 0.73259 0.0
H2366 H 0.94162 0.66282 0.75681 0.0
H2367 H 0.92755 0.68775 0.75416 0.0
H2368 H 0.9006 0.69073 0.82754 0.0
H2369 H 0.91418 0.69399 0.80436 0.0
C2370 C 0.34815 0.28351 0.71971 0.0
C2371 C 0.33873 0.28617 0.71727 0.0
C2372 C 0.3477 0.27621 0.73292 0.0
C2373 C 0.32681 0.25364 0.76336 0.0
H2374 H 0.35646 0.26473 0.78891 0.0
C2375 C 0.3273 0.2342 0.82768 0.0
C2376 C 0.33738 0.23289 0.83183 0.0
C2377 C 0.32717 0.23982 0.81292 0.0
C2378 C 0.34814 0.26139 0.78177 0.0
H2379 H 0.32133 0.28308 0.72654 0.0
H2380 H 0.32056 0.27037 0.74968 0.0
H2381 H 0.35676 0.2761 0.76456 0.0
H2382 H 0.35498 0.23598 0.8234 0.0
H2383 H 0.3547 0.2457 0.79759 0.0
H2384 H 0.31818 0.23896 0.78067 0.0
C2385 C 0.32825 0.27385 0.7413 0.0
C2386 C 0.34831 0.26792 0.76781 0.0
C2387 C 0.32872 0.28118 0.7281 0.0
C2388 C 0.34717 0.23703 0.82068 0.0
C2389 C 0.34702 0.24262 0.8059 0.0
C2390 C 0.32664 0.24708 0.77732 0.0
C2391 C 0.3378 0.27139 0.74396 0.0
C2392 C 0.33764 0.26416 0.75849 0.0
C2393 C 0.33709 0.24424 0.80195 0.0
C2394 C 0.3373 0.25091 0.78674 0.0
H2395 H 0.35597 0.28719 0.71152 0.0
H2396 H 0.35512 0.27435 0.7345 0.0
H2397 H 0.31847 0.25043 0.75631 0.0
H2398 H 0.31969 0.23123 0.83611 0.0
H2399 H 0.31945 0.24106 0.81038 0.0
C2400 C 0.72716 0.05599 0.74335 0.0
C2401 C 0.72983 0.06149 0.72771 0.0
C2402 C 0.73306 0.06287 0.75735 0.0
C2403 C 0.76032 0.0899 0.77225 0.0
H2404 H 0.73934 0.09116 0.80606 0.0
C2405 C 0.77958 0.12523 0.82518 0.0
C2406 C 0.77357 0.12202 0.84043 0.0
C2407 C 0.77464 0.11742 0.81162 0.0
C2408 C 0.74539 0.09076 0.79697 0.0
H2409 H 0.74108 0.07831 0.71433 0.0
H2410 H 0.75167 0.09025 0.73882 0.0
H2411 H 0.73029 0.07791 0.78229 0.0
H2412 H 0.75806 0.10804 0.85382 0.0
H2413 H 0.74973 0.09411 0.83051 0.0
H2414 H 0.77546 0.10246 0.78702 0.0
C2415 C 0.74492 0.08067 0.74021 0.0
C2416 C 0.74016 0.0832 0.7833 0.0
C2417 C 0.73883 0.07386 0.72625 0.0
C2418 C 0.76275 0.11075 0.84208 0.0
C2419 C 0.75795 0.10283 0.82866 0.0
C2420 C 0.76559 0.0973 0.78611 0.0
C2421 C 0.74192 0.07529 0.7559 0.0
C2422 C 0.74757 0.08279 0.77076 0.0
C2423 C 0.76372 0.10612 0.81315 0.0
C2424 C 0.75819 0.09792 0.79861 0.0
H2425 H 0.72023 0.04647 0.74481 0.0
H2426 H 0.73064 0.05853 0.76935 0.0
H2427 H 0.76622 0.08967 0.76274 0.0
H2428 H 0.78792 0.13392 0.82366 0.0
H2429 H 0.77927 0.12041 0.79988 0.0
C2430 C 0.05378 0.38423 0.0249 0.0
C2431 C 0.04191 0.37406 0.02461 0.0
C2432 C 0.06362 0.38301 0.03032 0.0
C2433 C 0.07488 0.36192 0.03534 0.0
H2434 H 0.09131 0.38018 0.07467 0.0
C2435 C 0.10463 0.34933 0.07537 0.0
C2436 C 0.11406 0.35834 0.08509 0.0
C2437 C 0.09702 0.35206 0.06603 0.0
C2438 C 0.0871 0.37521 0.06346 0.0
H2439 H 0.03104 0.35458 0.02907 0.0
H2440 H 0.04834 0.3524 0.03802 0.0
H2441 H 0.07603 0.38357 0.06137 0.0
H2442 H 0.12315 0.37753 0.09185 0.0
H2443 H 0.11053 0.38246 0.07473 0.0
H2444 H 0.08605 0.35371 0.03706 0.0
C2445 C 0.04998 0.36131 0.03426 0.0
C2446 C 0.07827 0.37713 0.05592 0.0
C2447 C 0.0401 0.36257 0.02922 0.0
C2448 C 0.11608 0.37032 0.08447 0.0
C2449 C 0.10864 0.37312 0.07484 0.0
C2450 C 0.08392 0.36019 0.04264 0.0
C2451 C 0.06177 0.37155 0.03512 0.0
C2452 C 0.07194 0.37034 0.042 0.0
C2453 C 0.09878 0.36396 0.06582 0.0
C2454 C 0.08999 0.36662 0.05703 0.0
H2455 H 0.05541 0.39319 0.02146 0.0
H2456 H 0.07266 0.39103 0.03091 0.0
H2457 H 0.07015 0.35664 0.02452 0.0
H2458 H 0.10293 0.34005 0.07516 0.0
H2459 H 0.0895 0.34469 0.05943 0.0
C2460 C 0.64713 0.67918 0.04847 0.0
C2461 C 0.64607 0.67628 0.03162 0.0
C2462 C 0.64785 0.69001 0.05377 0.0
C2463 C 0.658 0.7211 0.04162 0.0
H2464 H 0.63734 0.72056 0.07729 0.0
C2465 C 0.66395 0.76588 0.06908 0.0
C2466 C 0.66309 0.76621 0.08631 0.0
C2467 C 0.66019 0.7548 0.06093 0.0
C2468 C 0.64327 0.72091 0.06743 0.0
H2469 H 0.64503 0.68245 0.00707 0.0
H2470 H 0.64668 0.70168 0.01638 0.0
H2471 H 0.63429 0.70139 0.06595 0.0
H2472 H 0.65758 0.75521 0.1085 0.0
H2473 H 0.65134 0.73604 0.0945 0.0
H2474 H 0.66745 0.74055 0.04361 0.0
C2475 C 0.64679 0.69545 0.02544 0.0
C2476 C 0.64146 0.70992 0.06089 0.0
C2477 C 0.64582 0.68446 0.02014 0.0
C2478 C 0.65814 0.75522 0.09518 0.0
C2479 C 0.65454 0.7442 0.0871 0.0
C2480 C 0.65996 0.73211 0.04834 0.0
C2481 C 0.64774 0.69827 0.04231 0.0
C2482 C 0.64892 0.70991 0.04811 0.0
C2483 C 0.65565 0.74383 0.06987 0.0
C2484 C 0.65276 0.73217 0.06155 0.0
H2485 H 0.64731 0.67302 0.0576 0.0
H2486 H 0.6487 0.69204 0.06683 0.0
H2487 H 0.66393 0.72132 0.03184 0.0
H2488 H 0.66766 0.77421 0.06192 0.0
H2489 H 0.66099 0.75487 0.04764 0.0
C2490 C 0.3325 0.96871 0.02067 0.0
C2491 C 0.33832 0.98013 0.02858 0.0
C2492 C 0.32124 0.95932 0.02639 0.0
C2493 C 0.29453 0.95322 0.05181 0.0
H2494 H 0.29102 0.92122 0.0578 0.0
C2495 C 0.25764 0.91653 0.0937 0.0
C2496 C 0.25246 0.90417 0.08933 0.0
C2497 C 0.26714 0.92562 0.08441 0.0
C2498 C 0.29173 0.93003 0.05593 0.0
H2499 H 0.33683 0.99076 0.04845 0.0
H2500 H 0.3172 0.97438 0.05843 0.0
H2501 H 0.30945 0.93746 0.04497 0.0
H2502 H 0.25284 0.8917 0.07137 0.0
H2503 H 0.26936 0.9076 0.05498 0.0
H2504 H 0.27686 0.94584 0.06289 0.0
C2505 C 0.32128 0.9727 0.04775 0.0
C2506 C 0.30231 0.93934 0.0486 0.0
C2507 C 0.33256 0.98205 0.0421 0.0
C2508 C 0.25675 0.90113 0.07515 0.0
C2509 C 0.26623 0.91024 0.0658 0.0
C2510 C 0.28391 0.94388 0.05906 0.0
C2511 C 0.31555 0.9612 0.04005 0.0
C2512 C 0.30391 0.95109 0.04669 0.0
C2513 C 0.27168 0.92259 0.07048 0.0
C2514 C 0.28246 0.93222 0.06145 0.0
H2515 H 0.33671 0.96697 0.01019 0.0
H2516 H 0.31699 0.9506 0.02011 0.0
H2517 H 0.29541 0.96213 0.05026 0.0
H2518 H 0.25469 0.91916 0.10471 0.0
H2519 H 0.27124 0.935 0.08855 0.0
C2520 C 0.35826 0.03304 0.98512 0.0
C2521 C 0.36629 0.03519 0.99831 0.0
C2522 C 0.35649 0.04238 0.97914 0.0
C2523 C 0.36008 0.07246 0.9894 0.0
H2524 H 0.35999 0.0758 0.94191 0.0
C2525 C 0.36299 0.11465 0.95656 0.0
C2526 C 0.35634 0.11259 0.94183 0.0
C2527 C 0.3634 0.10505 0.96452 0.0
C2528 C 0.3598 0.0749 0.95519 0.0
H2529 H 0.37856 0.04874 0.01584 0.0
H2530 H 0.37551 0.06513 0.0053 0.0
H2531 H 0.36231 0.05944 0.95375 0.0
H2532 H 0.34461 0.09867 0.92426 0.0
H2533 H 0.345 0.08196 0.93838 0.0
H2534 H 0.35762 0.088 0.99078 0.0
C2535 C 0.37053 0.05618 -0.00033 0.0
C2536 C 0.36115 0.06552 0.96199 0.0
C2537 C 0.37232 0.04682 0.00564 0.0
C2538 C 0.34972 0.10061 0.93566 0.0
C2539 C 0.35009 0.09103 0.94363 0.0
C2540 C 0.3587 0.08186 0.98258 0.0
C2541 C 0.3627 0.0541 0.98621 0.0
C2542 C 0.36127 0.06415 0.97916 0.0
C2543 C 0.35716 0.09317 0.95793 0.0
C2544 C 0.3585 0.08316 0.96538 0.0
H2545 H 0.35342 0.02416 0.97927 0.0
H2546 H 0.35025 0.04042 0.96893 0.0
H2547 H 0.36004 0.07158 0.00268 0.0
H2548 H 0.36808 0.12374 0.96177 0.0
H2549 H 0.36897 0.10704 0.97548 0.0
C2550 C 0.98441 0.33689 0.99039 0.0
C2551 C 0.98319 0.34371 0.00312 0.0
C2552 C 0.97458 0.32552 0.98593 0.0
C2553 C 0.94112 0.30804 0.98647 0.0
H2554 H 0.94574 0.28104 0.97411 0.0
C2555 C 0.90124 0.26313 0.96103 0.0
C2556 C 0.90395 0.25849 0.94692 0.0
C2557 C 0.91063 0.27228 0.97048 0.0
C2558 C 0.94431 0.28851 0.97745 0.0
H2559 H 0.97079 0.3439 0.0214 0.0
H2560 H 0.95355 0.32402 0.01356 0.0
H2561 H 0.96278 0.29953 0.9858 0.0
H2562 H 0.91868 0.25966 0.9319 0.0
H2563 H 0.93499 0.27557 0.94825 0.0
H2564 H 0.92279 0.29723 0.97766 0.0
C2565 C 0.96211 0.3275 0.00698 0.0
C2566 C 0.95406 0.2991 0.98416 0.0
C2567 C 0.97199 0.33885 0.01151 0.0
C2568 C 0.91626 0.26288 0.94284 0.0
C2569 C 0.92564 0.27203 0.95224 0.0
C2570 C 0.93137 0.29748 0.97971 0.0
C2571 C 0.96328 0.32075 0.99406 0.0
C2572 C 0.95264 0.30906 0.98846 0.0
C2573 C 0.92294 0.27701 0.96599 0.0
C2574 C 0.93291 0.28766 0.97484 0.0
H2575 H 0.99293 0.34039 0.9837 0.0
H2576 H 0.97573 0.32063 0.97579 0.0
H2577 H 0.93976 0.31561 0.98949 0.0
H2578 H 0.89184 0.25982 0.96462 0.0
H2579 H 0.90823 0.27577 0.98116 0.0
C2580 C 0.68732 0.65365 0.01377 0.0
C2581 C 0.67895 0.65422 0.00293 0.0
C2582 C 0.6992 0.65722 0.00852 0.0
C2583 C 0.72166 0.67503 0.97569 0.0
H2584 H 0.7369 0.6563 0.98869 0.0
C2585 C 0.76324 0.66727 0.95236 0.0
C2586 C 0.77192 0.67936 0.94813 0.0
C2587 C 0.75268 0.66469 0.9611 0.0
C2588 C 0.73275 0.6616 0.98488 0.0
H2589 H 0.67639 0.65883 0.97808 0.0
H2590 H 0.69691 0.66477 0.96884 0.0
H2591 H 0.71674 0.65074 0.99939 0.0
H2592 H 0.77643 0.69826 0.95044 0.0
H2593 H 0.75835 0.69382 0.96623 0.0
H2594 H 0.73732 0.68553 0.96059 0.0
C2595 C 0.69447 0.66186 0.9815 0.0
C2596 C 0.72125 0.6585 0.99118 0.0
C2597 C 0.68266 0.65837 0.98677 0.0
C2598 C 0.77004 0.68885 0.95356 0.0
C2599 C 0.75954 0.68628 0.96242 0.0
C2600 C 0.73309 0.67808 0.96932 0.0
C2601 C 0.70292 0.66137 0.9923 0.0
C2602 C 0.71549 0.66508 0.98649 0.0
C2603 C 0.75057 0.67415 0.96595 0.0
C2604 C 0.73875 0.67134 0.97369 0.0
H2605 H 0.68472 0.6505 0.02632 0.0
H2606 H 0.70551 0.65684 0.01721 0.0
H2607 H 0.7176 0.68044 0.97202 0.0
H2608 H 0.76447 0.65974 0.94864 0.0
H2609 H 0.74596 0.65523 0.96349 0.0
C2610 C 0.98209 0.6563 0.98576 0.0
C2611 C 0.97976 0.6484 0.99913 0.0
C2612 C 0.97296 0.65838 0.9797 0.0
C2613 C 0.94315 0.6557 0.98988 0.0
H2614 H 0.94084 0.65732 0.94239 0.0
C2615 C 0.90297 0.65652 0.95579 0.0
C2616 C 0.90613 0.6644 0.94215 0.0
C2617 C 0.91184 0.65488 0.96384 0.0
C2618 C 0.94144 0.65703 0.95568 0.0
H2619 H 0.9661 0.63661 0.01686 0.0
H2620 H 0.95001 0.64009 0.00609 0.0
H2621 H 0.95637 0.65367 0.95428 0.0
H2622 H 0.92116 0.67684 0.92646 0.0
H2623 H 0.93658 0.67415 0.94064 0.0
H2624 H 0.92807 0.65895 0.99115 0.0
C2625 C 0.95897 0.6448 0.00041 0.0
C2626 C 0.95036 0.65494 0.96252 0.0
C2627 C 0.96815 0.64275 0.00653 0.0
C2628 C 0.91841 0.67083 0.93705 0.0
C2629 C 0.92723 0.66916 0.94504 0.0
C2630 C 0.93417 0.65774 0.98301 0.0
C2631 C 0.96124 0.65254 0.9868 0.0
C2632 C 0.95142 0.65438 0.9797 0.0
C2633 C 0.92403 0.661 0.95833 0.0
C2634 C 0.93331 0.65856 0.96583 0.0
H2635 H 0.99098 0.66087 0.97988 0.0
H2636 H 0.97512 0.6646 0.96943 0.0
H2637 H 0.94378 0.6554 0.00317 0.0
H2638 H 0.89361 0.65151 0.96011 0.0
H2639 H 0.90908 0.6485 0.97402 0.0
C2640 C 0.36238 0.33284 0.00286 0.0
C2641 C 0.3735 0.34383 0.00096 0.0
C2642 C 0.36104 0.32188 0.99684 0.0
C2643 C 0.37273 0.31007 0.96505 0.0
H2644 H 0.3567 0.28004 0.99031 0.0
C2645 C 0.36588 0.26504 0.93787 0.0
C2646 C 0.35454 0.25446 0.94081 0.0
C2647 C 0.36929 0.2758 0.94659 0.0
C2648 C 0.36109 0.28831 0.98301 0.0
H2649 H 0.39198 0.35197 0.99148 0.0
H2650 H 0.38957 0.33282 0.98075 0.0
H2651 H 0.36043 0.29913 0.0029 0.0
H2652 H 0.33818 0.24683 0.9559 0.0
H2653 H 0.34385 0.26567 0.97054 0.0
H2654 H 0.373 0.29932 0.94496 0.0
C2655 C 0.38191 0.3327 0.98691 0.0
C2656 C 0.36326 0.29925 0.99026 0.0
C2657 C 0.3833 0.34363 0.99311 0.0
C2658 C 0.34689 0.25484 0.95308 0.0
C2659 C 0.35024 0.26564 0.96168 0.0
C2660 C 0.37044 0.29913 0.95773 0.0
C2661 C 0.37074 0.32172 0.98863 0.0
C2662 C 0.36902 0.31022 0.98131 0.0
C2663 C 0.3614 0.27632 0.95837 0.0
C2664 C 0.3645 0.28808 0.96657 0.0
H2665 H 0.35468 0.33271 0.00887 0.0
H2666 H 0.35229 0.31358 0.9982 0.0
H2667 H 0.37705 0.31837 0.95778 0.0
H2668 H 0.37199 0.26516 0.92843 0.0
H2669 H 0.37806 0.28377 0.94392 0.0
C2670 C 0.68355 0.03241 0.98926 0.0
C2671 C 0.6779 0.03436 0.00289 0.0
C2672 C 0.6947 0.04179 0.98334 0.0
C2673 C 0.72144 0.07195 0.99333 0.0
H2674 H 0.72197 0.07719 0.94617 0.0
C2675 C 0.76342 0.10958 0.95685 0.0
C2676 C 0.76056 0.11633 0.94578 0.0
C2677 C 0.75409 0.09929 0.96483 0.0
C2678 C 0.72197 0.07583 0.95935 0.0
H2679 H 0.67975 0.0475 0.02147 0.0
H2680 H 0.69926 0.06393 0.01108 0.0
H2681 H 0.70451 0.05953 0.95853 0.0
H2682 H 0.74567 0.11751 0.9343 0.0
H2683 H 0.72952 0.09971 0.94819 0.0
H2684 H 0.73887 0.08849 0.99406 0.0
C2685 C 0.69508 0.05512 0.00502 0.0
C2686 C 0.71203 0.06565 0.96642 0.0
C2687 C 0.68388 0.04573 0.01091 0.0
C2688 C 0.74821 0.11264 0.94295 0.0
C2689 C 0.73894 0.10235 0.95075 0.0
C2690 C 0.73148 0.08211 0.98621 0.0
C2691 C 0.70047 0.05332 0.99096 0.0
C2692 C 0.71156 0.06367 0.9835 0.0
C2693 C 0.74175 0.09549 0.96163 0.0
C2694 C 0.73172 0.08425 0.96918 0.0
H2695 H 0.6792 0.02372 0.98288 0.0
H2696 H 0.69871 0.04009 0.97261 0.0
H2697 H 0.72136 0.07061 0.00652 0.0
H2698 H 0.77286 0.11222 0.95927 0.0
H2699 H 0.75649 0.09414 0.97315 0.0
C2700 C 0.64816 0.97116 0.02059 0.0
C2701 C 0.64658 0.97866 0.03192 0.0
C2702 C 0.64971 0.96156 0.02614 0.0
C2703 C 0.64367 0.94109 0.06127 0.0
H2704 H 0.67164 0.93905 0.04598 0.0
C2705 C 0.66155 0.9138 0.09633 0.0
C2706 C 0.66706 0.90825 0.08761 0.0
C2707 C 0.6578 0.92108 0.08819 0.0
C2708 C 0.66363 0.93929 0.05015 0.0
H2709 H 0.6452 0.9819 0.05786 0.0
H2710 H 0.64773 0.96502 0.0675 0.0
H2711 H 0.66737 0.95422 0.03409 0.0
H2712 H 0.67258 0.90562 0.0634 0.0
H2713 H 0.66576 0.91813 0.04903 0.0
H2714 H 0.63985 0.92618 0.07728 0.0
C2715 C 0.64779 0.96658 0.05436 0.0
C2716 C 0.66123 0.94803 0.04336 0.0
C2717 C 0.64642 0.97628 0.04885 0.0
C2718 C 0.66844 0.90987 0.07045 0.0
C2719 C 0.66458 0.91708 0.06225 0.0
C2720 C 0.64598 0.93226 0.06791 0.0
C2721 C 0.64951 0.95917 0.04308 0.0
C2722 C 0.65138 0.94917 0.04911 0.0
C2723 C 0.65937 0.92292 0.07107 0.0
C2724 C 0.65615 0.93142 0.06271 0.0
H2725 H 0.64833 0.9728 0.00747 0.0
H2726 H 0.65098 0.95594 0.01719 0.0
H2727 H 0.6359 0.94166 0.06574 0.0
H2728 H 0.66056 0.91292 0.1096 0.0
H2729 H 0.65408 0.92561 0.09548 0.0
C2730 C 0.04896 0.67305 0.03597 0.0
C2731 C 0.03944 0.67354 0.02773 0.0
C2732 C 0.05916 0.68376 0.04165 0.0
C2733 C 0.07639 0.71722 0.03648 0.0
H2734 H 0.08492 0.71779 0.08249 0.0
C2735 C 0.10444 0.76206 0.07262 0.0
C2736 C 0.11193 0.76249 0.08573 0.0
C2737 C 0.09718 0.75119 0.06405 0.0
C2738 C 0.08288 0.71777 0.06953 0.0
H2739 H 0.0333 0.68563 0.01848 0.0
H2740 H 0.05114 0.70433 0.02822 0.0
H2741 H 0.06941 0.69875 0.07009 0.0
H2742 H 0.11801 0.75182 0.09956 0.0
H2743 H 0.10576 0.73303 0.08418 0.0
H2744 H 0.08981 0.73623 0.03586 0.0
C2745 C 0.05073 0.69568 0.03031 0.0
C2746 C 0.07395 0.70684 0.06245 0.0
C2747 C 0.04048 0.68497 0.02482 0.0
C2748 C 0.11243 0.7519 0.08948 0.0
C2749 C 0.10525 0.74104 0.0808 0.0
C2750 C 0.08542 0.72814 0.04351 0.0
C2751 C 0.06009 0.69518 0.03898 0.0
C2752 C 0.07044 0.7065 0.04594 0.0
C2753 C 0.0973 0.74047 0.06823 0.0
C2754 C 0.08862 0.72862 0.06023 0.0
H2755 H 0.0484 0.66436 0.03838 0.0
H2756 H 0.06628 0.68312 0.04822 0.0
H2757 H 0.07397 0.71718 0.02366 0.0
H2758 H 0.10398 0.77009 0.06919 0.0
H2759 H 0.09113 0.75112 0.05456 0.0
C2760 C 0.33629 0.36397 0.043 0.0
C2761 C 0.34263 0.37173 0.02976 0.0
C2762 C 0.32513 0.36255 0.04821 0.0
C2763 C 0.30734 0.37825 0.04813 0.0
H2764 H 0.28111 0.34681 0.06292 0.0
C2765 C 0.26228 0.37246 0.07454 0.0
C2766 C 0.25819 0.36563 0.08918 0.0
C2767 C 0.27153 0.37241 0.06514 0.0
C2768 C 0.28836 0.35566 0.05889 0.0
H2769 H 0.34218 0.38395 0.01142 0.0
H2770 H 0.32261 0.38144 0.02052 0.0
H2771 H 0.29932 0.34824 0.05041 0.0
H2772 H 0.26058 0.35331 0.10531 0.0
H2773 H 0.2766 0.35318 0.08896 0.0
H2774 H 0.29652 0.38572 0.05696 0.0
C2775 C 0.32634 0.37653 0.02694 0.0
C2776 C 0.2988 0.35648 0.05174 0.0
C2777 C 0.33751 0.37793 0.02169 0.0
C2778 C 0.26333 0.3585 0.09395 0.0
C2779 C 0.27255 0.35843 0.08457 0.0
C2780 C 0.2969 0.37743 0.0553 0.0
C2781 C 0.32005 0.36888 0.04033 0.0
C2782 C 0.3085 0.36782 0.04654 0.0
C2783 C 0.27688 0.36551 0.07017 0.0
C2784 C 0.28739 0.36616 0.06104 0.0
H2785 H 0.34001 0.35908 0.04948 0.0
H2786 H 0.32062 0.35672 0.05871 0.0
H2787 H 0.3147 0.38714 0.04443 0.0
H2788 H 0.2584 0.37793 0.0704 0.0
H2789 H 0.27456 0.37783 0.05399 0.0
C2790 C 0.71261 0.70404 0.35342 0.0
C2791 C 0.70506 0.70589 0.36433 0.0
C2792 C 0.72216 0.70257 0.35945 0.0
C2793 C 0.74246 0.70935 0.39506 0.0
H2794 H 0.74489 0.68138 0.38103 0.0
C2795 C 0.77039 0.69271 0.43135 0.0
C2796 C 0.77598 0.68711 0.42293 0.0
C2797 C 0.76298 0.69619 0.42296 0.0
C2798 C 0.74454 0.68939 0.38486 0.0
H2799 H 0.70165 0.7078 0.39003 0.0
H2800 H 0.71843 0.7054 0.40053 0.0
H2801 H 0.72959 0.68522 0.36856 0.0
H2802 H 0.77857 0.68119 0.39899 0.0
H2803 H 0.76586 0.68755 0.38418 0.0
H2804 H 0.75741 0.71362 0.41127 0.0
C2805 C 0.71696 0.70508 0.38734 0.0
C2806 C 0.73572 0.69154 0.37774 0.0
C2807 C 0.70731 0.70637 0.38134 0.0
C2808 C 0.7743 0.6854 0.40582 0.0
C2809 C 0.76696 0.68899 0.39736 0.0
C2810 C 0.75137 0.7073 0.40203 0.0
C2811 C 0.72445 0.70312 0.37647 0.0
C2812 C 0.73444 0.70141 0.383 0.0
C2813 C 0.76104 0.69425 0.40588 0.0
C2814 C 0.75238 0.69714 0.39727 0.0
H2815 H 0.71107 0.70363 0.34025 0.0
H2816 H 0.72783 0.70112 0.35081 0.0
H2817 H 0.74179 0.71714 0.39915 0.0
H2818 H 0.77132 0.69395 0.44459 0.0
H2819 H 0.7584 0.69997 0.43003 0.0
C2820 C 0.32719 0.01942 0.37348 0.0
C2821 C 0.31689 0.01217 0.36366 0.0
C2822 C 0.32984 0.03104 0.37849 0.0
C2823 C 0.31587 0.04995 0.38592 0.0
H2824 H 0.34959 0.07632 0.38602 0.0
C2825 C 0.33056 0.09889 0.40932 0.0
C2826 C 0.34092 0.10418 0.41961 0.0
C2827 C 0.32734 0.08813 0.40062 0.0
C2828 C 0.34014 0.06904 0.38615 0.0
H2829 H 0.30129 0.01139 0.35138 0.0
H2830 H 0.30592 0.03178 0.36023 0.0
H2831 H 0.34447 0.0566 0.37428 0.0
H2832 H 0.35578 0.10202 0.42916 0.0
H2833 H 0.35025 0.08346 0.41401 0.0
H2834 H 0.3116 0.06236 0.39817 0.0
C2835 C 0.31191 0.02842 0.36407 0.0
C2836 C 0.33721 0.05775 0.37942 0.0
C2837 C 0.30929 0.01679 0.35895 0.0
C2838 C 0.34794 0.09843 0.42101 0.0
C2839 C 0.34476 0.08774 0.41233 0.0
C2840 C 0.31882 0.06128 0.39271 0.0
C2841 C 0.32224 0.03569 0.37386 0.0
C2842 C 0.32509 0.048 0.37955 0.0
C2843 C 0.33443 0.08245 0.40202 0.0
C2844 C 0.33103 0.07086 0.39322 0.0
H2845 H 0.33321 0.01611 0.37734 0.0
H2846 H 0.33777 0.03633 0.38624 0.0
H2847 H 0.30646 0.04259 0.38629 0.0
H2848 H 0.325 0.10312 0.40789 0.0
H2849 H 0.31937 0.0843 0.3927 0.0
C2850 C 0.99667 0.31676 0.3639 0.0
C2851 C 0.00676 0.31523 0.36104 0.0
C2852 C 0.98556 0.30695 0.36925 0.0
C2853 C 0.96903 0.27298 0.37576 0.0
H2854 H 0.95038 0.28057 0.40653 0.0
C2855 C 0.92488 0.23479 0.40616 0.0
C2856 C 0.9228 0.23663 0.42261 0.0
C2857 C 0.93412 0.24435 0.39702 0.0
C2858 C 0.95551 0.27823 0.3981 0.0
H2859 H 0.0132 0.30229 0.36136 0.0
H2860 H 0.9941 0.28533 0.37155 0.0
H2861 H 0.96853 0.29699 0.39401 0.0
H2862 H 0.92881 0.24977 0.44254 0.0
H2863 H 0.94517 0.26622 0.42701 0.0
H2864 H 0.95648 0.25417 0.38086 0.0
C2865 C 0.9945 0.29393 0.36912 0.0
C2866 C 0.96587 0.28772 0.39061 0.0
C2867 C 0.00552 0.30368 0.36339 0.0
C2868 C 0.93008 0.24817 0.42976 0.0
C2869 C 0.93944 0.25763 0.42077 0.0
C2870 C 0.9588 0.26347 0.38353 0.0
C2871 C 0.98438 0.29544 0.37228 0.0
C2872 C 0.97287 0.28526 0.37945 0.0
C2873 C 0.94163 0.25589 0.40426 0.0
C2874 C 0.95198 0.26596 0.39499 0.0
H2875 H 0.99736 0.32555 0.362 0.0
H2876 H 0.97794 0.30845 0.37109 0.0
H2877 H 0.97398 0.27065 0.36699 0.0
H2878 H 0.91935 0.22597 0.40037 0.0
H2879 H 0.93537 0.24267 0.38428 0.0
C2880 C 0.0247 0.37234 0.33004 0.0
C2881 C 0.03605 0.37437 0.33574 0.0
C2882 C 0.02336 0.38209 0.32462 0.0
C2883 C 0.03924 0.41631 0.32378 0.0
H2884 H 0.01772 0.41036 0.28654 0.0
C2885 C 0.04195 0.45349 0.27948 0.0
C2886 C 0.03091 0.45317 0.27571 0.0
C2887 C 0.04197 0.44427 0.28892 0.0
C2888 C 0.02365 0.41211 0.29707 0.0
H2889 H 0.0549 0.38815 0.34035 0.0
H2890 H 0.05278 0.40509 0.33017 0.0
H2891 H 0.01899 0.39345 0.29864 0.0
H2892 H 0.01127 0.44304 0.27975 0.0
H2893 H 0.01133 0.42666 0.29558 0.0
H2894 H 0.04435 0.43517 0.32141 0.0
C2895 C 0.04475 0.39607 0.33037 0.0
C2896 C 0.02436 0.40241 0.3041 0.0
C2897 C 0.04602 0.38634 0.33611 0.0
C2898 C 0.01993 0.4435 0.28203 0.0
C2899 C 0.01994 0.43415 0.29121 0.0
C2900 C 0.0387 0.42605 0.31652 0.0
C2901 C 0.03342 0.39408 0.32443 0.0
C2902 C 0.03223 0.40437 0.3175 0.0
C2903 C 0.03095 0.4344 0.29458 0.0
C2904 C 0.03094 0.42404 0.30305 0.0
H2905 H 0.01683 0.36321 0.32979 0.0
H2906 H 0.01442 0.38018 0.32054 0.0
H2907 H 0.04521 0.41818 0.33429 0.0
H2908 H 0.05058 0.46059 0.27461 0.0
H2909 H 0.05056 0.44458 0.29121 0.0
C2910 C 0.63618 0.67185 0.33588 0.0
C2911 C 0.64857 0.67522 0.33466 0.0
C2912 C 0.62705 0.66055 0.32983 0.0
C2913 C 0.62298 0.63682 0.29989 0.0
H2914 H 0.59209 0.61663 0.32213 0.0
C2915 C 0.5907 0.58756 0.27977 0.0
C2916 C 0.57818 0.58366 0.27827 0.0
C2917 C 0.59867 0.59861 0.28742 0.0
C2918 C 0.60063 0.62224 0.31572 0.0
H2919 H 0.66108 0.66921 0.32678 0.0
H2920 H 0.64523 0.6495 0.31654 0.0
H2921 H 0.60723 0.63614 0.33435 0.0
H2922 H 0.56421 0.58822 0.28404 0.0
H2923 H 0.57826 0.6077 0.29739 0.0
H2924 H 0.61649 0.62297 0.28135 0.0
C2925 C 0.64253 0.65565 0.32179 0.0
C2926 C 0.6093 0.6334 0.32269 0.0
C2927 C 0.65162 0.66693 0.32777 0.0
C2928 C 0.5738 0.591 0.28492 0.0
C2929 C 0.58182 0.6021 0.29267 0.0
C2930 C 0.61437 0.6257 0.29298 0.0
C2931 C 0.63015 0.65241 0.32246 0.0
C2932 C 0.62065 0.64074 0.31495 0.0
C2933 C 0.59438 0.6061 0.29374 0.0
C2934 C 0.60317 0.6182 0.30089 0.0
H2935 H 0.63355 0.67807 0.34113 0.0
H2936 H 0.61761 0.65836 0.33045 0.0
H2937 H 0.63148 0.64238 0.29336 0.0
H2938 H 0.59444 0.58226 0.27458 0.0
H2939 H 0.60826 0.60136 0.28824 0.0
C2940 C 0.35186 0.99278 0.32661 0.0
C2941 C 0.34288 0.98173 0.33362 0.0
C2942 C 0.36279 0.99394 0.32072 0.0
C2943 C 0.37496 0.97633 0.30249 0.0
H2944 H 0.40695 0.00252 0.31566 0.0
C2945 C 0.41828 0.97797 0.27796 0.0
C2946 C 0.42847 0.98942 0.27418 0.0
C2947 C 0.40841 0.97711 0.28679 0.0
C2948 C 0.3981 0.99524 0.31164 0.0
H2949 H 0.33828 0.96329 0.34007 0.0
H2950 H 0.35725 0.96523 0.3293 0.0
H2951 H 0.38859 0.00113 0.32775 0.0
H2952 H 0.43634 0.00897 0.27758 0.0
H2953 H 0.41882 0.0075 0.29195 0.0
H2954 H 0.3842 0.97069 0.28582 0.0
C2955 C 0.35587 0.973 0.32856 0.0
C2956 C 0.38761 0.99443 0.31866 0.0
C2957 C 0.34505 0.97191 0.33474 0.0
C2958 C 0.42859 0.99999 0.2799 0.0
C2959 C 0.41858 0.99913 0.28844 0.0
C2960 C 0.3854 0.97726 0.29523 0.0
C2961 C 0.3648 0.98401 0.32145 0.0
C2962 C 0.37596 0.98493 0.31419 0.0
C2963 C 0.40825 0.98767 0.29177 0.0
C2964 C 0.39715 0.98669 0.29975 0.0
H2965 H 0.35042 0.0005 0.32565 0.0
H2966 H 0.36953 0.00249 0.3152 0.0
H2967 H 0.36606 0.96901 0.29867 0.0
H2968 H 0.41765 0.96959 0.27365 0.0
H2969 H 0.40081 0.96811 0.28946 0.0
C2970 C 0.63586 0.97684 0.33919 0.0
C2971 C 0.6469 0.98176 0.33039 0.0
C2972 C 0.62625 0.97834 0.33341 0.0
C2973 C 0.61461 0.98471 0.2952 0.0
H2974 H 0.59589 0.99332 0.32452 0.0
C2975 C 0.57399 0.98857 0.27108 0.0
C2976 C 0.57366 0.99908 0.27589 0.0
C2977 C 0.58172 0.98529 0.27906 0.0
C2978 C 0.60105 0.99092 0.31618 0.0
H2979 H 0.65661 0.99227 0.30883 0.0
H2980 H 0.63995 0.99494 0.29884 0.0
H2981 H 0.61213 0.99024 0.33572 0.0
H2982 H 0.58072 0.01397 0.2935 0.0
H2983 H 0.59438 0.00837 0.30722 0.0
H2984 H 0.60385 0.98571 0.27561 0.0
C2985 C 0.63861 0.98978 0.31006 0.0
C2986 C 0.61027 0.98906 0.32262 0.0
C2987 C 0.6482 0.98831 0.31585 0.0
C2988 C 0.58086 0.00591 0.28935 0.0
C2989 C 0.5886 0.00263 0.29733 0.0
C2990 C 0.6054 0.98653 0.28879 0.0
C2991 C 0.62749 0.98473 0.31869 0.0
C2992 C 0.61725 0.98609 0.31215 0.0
C2993 C 0.58933 0.99244 0.29202 0.0
C2994 C 0.59857 0.98977 0.29917 0.0
H2995 H 0.6346 0.97174 0.35045 0.0
H2996 H 0.61777 0.97428 0.34028 0.0
H2997 H 0.61971 0.98227 0.28683 0.0
H2998 H 0.56866 0.98315 0.26068 0.0
H2999 H 0.58192 0.97728 0.27482 0.0
C3000 C 0.04249 0.67129 0.34163 0.0
C3001 C 0.03654 0.67683 0.33397 0.0
C3002 C 0.0411 0.66032 0.33554 0.0
C3003 C 0.03292 0.64173 0.29776 0.0
H3004 H 0.02727 0.61527 0.32722 0.0
C3005 C 0.03071 0.59807 0.27337 0.0
C3006 C 0.02074 0.587 0.27883 0.0
C3007 C 0.03371 0.60906 0.28116 0.0
C3008 C 0.02883 0.62258 0.31885 0.0
H3009 H 0.02439 0.67521 0.31402 0.0
H3010 H 0.02195 0.65609 0.30342 0.0
H3011 H 0.03004 0.6344 0.33858 0.0
H3012 H 0.0065 0.57875 0.29732 0.0
H3013 H 0.01166 0.59798 0.31085 0.0
H3014 H 0.03147 0.62989 0.27802 0.0
C3015 C 0.02778 0.66026 0.31403 0.0
C3016 C 0.03052 0.63356 0.32535 0.0
C3017 C 0.02912 0.67117 0.32016 0.0
C3018 C 0.01416 0.58713 0.29272 0.0
C3019 C 0.01718 0.59814 0.30056 0.0
C3020 C 0.03131 0.6308 0.29128 0.0
C3021 C 0.03379 0.65472 0.32161 0.0
C3022 C 0.03246 0.64321 0.31485 0.0
C3023 C 0.02681 0.60926 0.29462 0.0
C3024 C 0.02916 0.62106 0.30172 0.0
H3025 H 0.04827 0.67545 0.3523 0.0
H3026 H 0.04591 0.65632 0.34157 0.0
H3027 H 0.03454 0.64904 0.28936 0.0
H3028 H 0.0359 0.59833 0.26261 0.0
H3029 H 0.04128 0.61746 0.27643 0.0
C3030 C 0.34707 0.36991 0.31823 0.0
C3031 C 0.34396 0.36929 0.33493 0.0
C3032 C 0.35834 0.37915 0.31251 0.0
C3033 C 0.38472 0.4096 0.3234 0.0
H3034 H 0.39978 0.40192 0.28724 0.0
C3035 C 0.43394 0.44111 0.29628 0.0
C3036 C 0.43407 0.44257 0.27908 0.0
C3037 C 0.42309 0.4329 0.30437 0.0
C3038 C 0.39566 0.40418 0.29732 0.0
H3039 H 0.35021 0.37783 0.35882 0.0
H3040 H 0.3702 0.3938 0.34895 0.0
H3041 H 0.38095 0.38583 0.29931 0.0
H3042 H 0.42297 0.43671 0.25693 0.0
H3043 H 0.40414 0.42227 0.27103 0.0
H3044 H 0.39983 0.42797 0.3215 0.0
C3045 C 0.36379 0.3873 0.34017 0.0
C3046 C 0.38481 0.395 0.3042 0.0
C3047 C 0.35238 0.37811 0.34586 0.0
C3048 C 0.42312 0.4359 0.27021 0.0
C3049 C 0.41237 0.42757 0.27824 0.0
C3050 C 0.39574 0.41877 0.31667 0.0
C3051 C 0.36693 0.38792 0.32339 0.0
C3052 C 0.37903 0.39761 0.31708 0.0
C3053 C 0.4123 0.42586 0.29533 0.0
C3054 C 0.40114 0.41616 0.30336 0.0
H3055 H 0.34071 0.36332 0.30947 0.0
H3056 H 0.36023 0.37948 0.29945 0.0
H3057 H 0.38051 0.412 0.3332 0.0
H3058 H 0.44226 0.44615 0.30339 0.0
H3059 H 0.42323 0.43169 0.31757 0.0
C3060 C 0.31453 0.30463 0.35207 0.0
C3061 C 0.31435 0.31285 0.36356 0.0
C3062 C 0.31598 0.2949 0.35737 0.0
C3063 C 0.31092 0.27512 0.39262 0.0
H3064 H 0.3382 0.27207 0.37688 0.0
C3065 C 0.32848 0.24808 0.42863 0.0
C3066 C 0.33383 0.24224 0.42025 0.0
C3067 C 0.32481 0.25528 0.42012 0.0
C3068 C 0.33036 0.27257 0.38117 0.0
H3069 H 0.31537 0.31726 0.38954 0.0
H3070 H 0.31759 0.30013 0.39878 0.0
H3071 H 0.33409 0.28726 0.36459 0.0
H3072 H 0.33921 0.23905 0.39626 0.0
H3073 H 0.33248 0.25138 0.38121 0.0
H3074 H 0.30704 0.26046 0.40909 0.0
C3075 C 0.31671 0.30127 0.38571 0.0
C3076 C 0.32806 0.28132 0.37415 0.0
C3077 C 0.31552 0.3111 0.38041 0.0
C3078 C 0.33517 0.24351 0.40305 0.0
C3079 C 0.33136 0.25062 0.39446 0.0
C3080 C 0.31308 0.26625 0.39944 0.0
C3081 C 0.31699 0.2931 0.37426 0.0
C3082 C 0.31851 0.28287 0.38013 0.0
C3083 C 0.32628 0.25673 0.40292 0.0
C3084 C 0.32305 0.26509 0.39415 0.0
H3085 H 0.31366 0.3058 0.339 0.0
H3086 H 0.31617 0.2887 0.34833 0.0
H3087 H 0.30339 0.27605 0.39727 0.0
H3088 H 0.32755 0.24748 0.44192 0.0
H3089 H 0.32122 0.26004 0.42716 0.0
C3090 C 0.71573 0.00918 0.36843 0.0
C3091 C 0.7059 0.00921 0.36041 0.0
C3092 C 0.72537 0.01999 0.37483 0.0
C3093 C 0.74071 0.05356 0.3722 0.0
H3094 H 0.75034 0.05261 0.41729 0.0
C3095 C 0.77022 0.09729 0.41045 0.0
C3096 C 0.77832 0.0972 0.42226 0.0
C3097 C 0.76231 0.08669 0.40171 0.0
C3098 C 0.74796 0.05303 0.40459 0.0
H3099 H 0.6986 0.02064 0.3524 0.0
H3100 H 0.7155 0.03955 0.36348 0.0
H3101 H 0.73498 0.03388 0.40409 0.0
H3102 H 0.78463 0.08584 0.43373 0.0
H3103 H 0.77128 0.0676 0.41801 0.0
H3104 H 0.75372 0.07271 0.37264 0.0
C3105 C 0.71576 0.03116 0.36479 0.0
C3106 C 0.73911 0.04228 0.39704 0.0
C3107 C 0.70605 0.02033 0.35853 0.0
C3108 C 0.77863 0.08634 0.42463 0.0
C3109 C 0.77081 0.07578 0.41578 0.0
C3110 C 0.74966 0.06432 0.37969 0.0
C3111 C 0.72544 0.03108 0.3732 0.0
C3112 C 0.73531 0.04244 0.38082 0.0
C3113 C 0.76237 0.07574 0.40443 0.0
C3114 C 0.75332 0.06422 0.39605 0.0
H3115 H 0.71586 0.00075 0.37005 0.0
H3116 H 0.73277 0.01968 0.38111 0.0
H3117 H 0.73805 0.05394 0.35961 0.0
H3118 H 0.76984 0.10551 0.4081 0.0
H3119 H 0.75589 0.08701 0.39318 0.0
C3120 C 0.00359 0.71272 0.36555 0.0
C3121 C 0.00709 0.70384 0.36729 0.0
C3122 C 0.99248 0.71071 0.37208 0.0
C3123 C 0.9694 0.69195 0.40348 0.0
H3124 H 0.94839 0.70107 0.38015 0.0
C3125 C 0.9198 0.6738 0.423 0.0
C3126 C 0.91555 0.68213 0.42402 0.0
C3127 C 0.931 0.67713 0.41562 0.0
C3128 C 0.95424 0.6986 0.38687 0.0
H3129 H 0.00155 0.68579 0.37677 0.0
H3130 H 0.98217 0.6822 0.38785 0.0
H3131 H 0.96794 0.70558 0.36798 0.0
H3132 H 0.91965 0.70045 0.41773 0.0
H3133 H 0.93936 0.70631 0.40474 0.0
H3134 H 0.95568 0.68482 0.42223 0.0
C3135 C 0.98808 0.69083 0.3818 0.0
C3136 C 0.96543 0.70119 0.37992 0.0
C3137 C 0.99917 0.69285 0.37535 0.0
C3138 C 0.9227 0.69384 0.41719 0.0
C3139 C 0.93393 0.69717 0.40967 0.0
C3140 C 0.95824 0.68932 0.41035 0.0
C3141 C 0.98466 0.69979 0.38046 0.0
C3142 C 0.97306 0.69772 0.38805 0.0
C3143 C 0.93826 0.68889 0.40905 0.0
C3144 C 0.95045 0.69245 0.40203 0.0
H3145 H 0.00953 0.72129 0.3594 0.0
H3146 H 0.99016 0.71783 0.37092 0.0
H3147 H 0.97518 0.68943 0.4103 0.0
H3148 H 0.91463 0.66476 0.42834 0.0
H3149 H 0.93401 0.6705 0.41515 0.0
C3150 C 0.37805 0.03842 0.68801 0.0
C3151 C 0.37258 0.04329 0.69824 0.0
C3152 C 0.3876 0.03689 0.69395 0.0
C3153 C 0.40012 0.03336 0.73334 0.0
H3154 H 0.42808 0.03894 0.70709 0.0
C3155 C 0.43981 0.03044 0.76233 0.0
C3156 C 0.44404 0.02363 0.75376 0.0
C3157 C 0.43211 0.03387 0.75467 0.0
C3158 C 0.42028 0.03727 0.71451 0.0
H3159 H 0.37317 0.05087 0.72241 0.0
H3160 H 0.3899 0.04844 0.73262 0.0
H3161 H 0.41267 0.04304 0.69525 0.0
H3162 H 0.44396 0.01562 0.7301 0.0
H3163 H 0.43031 0.02148 0.71675 0.0
H3164 H 0.40761 0.02756 0.75255 0.0
C3165 C 0.38667 0.04552 0.72017 0.0
C3166 C 0.41145 0.0396 0.70774 0.0
C3167 C 0.37711 0.04699 0.71428 0.0
C3168 C 0.44076 0.02076 0.7371 0.0
C3169 C 0.43303 0.0242 0.72941 0.0
C3170 C 0.40892 0.03108 0.74009 0.0
C3171 C 0.39187 0.04022 0.71021 0.0
C3172 C 0.4013 0.03774 0.71713 0.0
C3173 C 0.42839 0.03055 0.73825 0.0
C3174 C 0.41914 0.03307 0.73082 0.0
H3175 H 0.37472 0.03548 0.6756 0.0
H3176 H 0.39135 0.03272 0.686 0.0
H3177 H 0.39228 0.03152 0.7408 0.0
H3178 H 0.44202 0.0327 0.77522 0.0
H3179 H 0.42885 0.03892 0.76174 0.0
C3180 C 0.97487 0.34845 0.68648 0.0
C3181 C 0.9806 0.34318 0.69537 0.0
C3182 C 0.97611 0.3596 0.69149 0.0
C3183 C 0.99536 0.38684 0.71718 0.0
H3184 H 0.96617 0.38947 0.72036 0.0
C3185 C 0.9926 0.42178 0.75927 0.0
C3186 C 0.98607 0.42745 0.75396 0.0
C3187 C 0.9926 0.41252 0.74994 0.0
C3188 C 0.97445 0.38898 0.71928 0.0
H3189 H 0.99226 0.34552 0.71629 0.0
H3190 H 0.99439 0.36488 0.72503 0.0
H3191 H 0.96496 0.37136 0.70784 0.0
H3192 H 0.97462 0.42797 0.73442 0.0
H3193 H 0.97457 0.41169 0.71814 0.0
H3194 H 0.0048 0.40432 0.72892 0.0
C3195 C 0.98903 0.3605 0.71411 0.0
C3196 C 0.97375 0.3786 0.71211 0.0
C3197 C 0.98775 0.34936 0.70917 0.0
C3198 C 0.97964 0.42371 0.73896 0.0
C3199 C 0.97961 0.41439 0.72962 0.0
C3200 C 0.99606 0.39721 0.72432 0.0
C3201 C 0.98318 0.36573 0.70541 0.0
C3202 C 0.98415 0.3773 0.71132 0.0
C3203 C 0.98604 0.40864 0.73508 0.0
C3204 C 0.98556 0.39828 0.72579 0.0
H3205 H 0.96931 0.34389 0.67577 0.0
H3206 H 0.97156 0.36345 0.68446 0.0
H3207 H 0.00359 0.38622 0.71645 0.0
H3208 H 0.99742 0.42421 0.77093 0.0
H3209 H 0.99744 0.40813 0.75468 0.0
C3210 C 0.67177 0.63648 0.6989 0.0
C3211 C 0.67388 0.64846 0.69827 0.0
C3212 C 0.66056 0.62693 0.70441 0.0
C3213 C 0.6331 0.62105 0.7285 0.0
H3214 H 0.62049 0.58816 0.71183 0.0
C3215 C 0.58708 0.58003 0.75004 0.0
C3216 C 0.58817 0.57022 0.75624 0.0
C3217 C 0.59663 0.58943 0.74111 0.0
C3218 C 0.62391 0.59732 0.71655 0.0
H3219 H 0.66583 0.65983 0.70242 0.0
H3220 H 0.64609 0.64312 0.71144 0.0
H3221 H 0.63877 0.60501 0.69948 0.0
H3222 H 0.60027 0.56266 0.7575 0.0
H3223 H 0.61658 0.57875 0.7414 0.0
H3224 H 0.61807 0.61326 0.74543 0.0
C3225 C 0.65318 0.6411 0.70818 0.0
C3226 C 0.63443 0.60697 0.70958 0.0
C3227 C 0.66448 0.65068 0.70292 0.0
C3228 C 0.5989 0.56986 0.75269 0.0
C3229 C 0.60832 0.57914 0.74352 0.0
C3230 C 0.62246 0.61142 0.73527 0.0
C3231 C 0.65111 0.62909 0.70918 0.0
C3232 C 0.63933 0.61895 0.71568 0.0
C3233 C 0.60737 0.58911 0.7379 0.0
C3234 C 0.61789 0.59944 0.72956 0.0
H3235 H 0.67889 0.63451 0.69548 0.0
H3236 H 0.65945 0.61789 0.7053 0.0
H3237 H 0.63665 0.63007 0.73374 0.0
H3238 H 0.5789 0.58053 0.75221 0.0
H3239 H 0.59565 0.59699 0.73677 0.0
C3240 C 0.70484 0.71492 0.67848 0.0
C3241 C 0.70035 0.70406 0.66939 0.0
C3242 C 0.70292 0.7243 0.67297 0.0
C3243 C 0.68364 0.73091 0.64562 0.0
H3244 H 0.71195 0.76349 0.64362 0.0
C3245 C 0.68518 0.76889 0.60479 0.0
C3246 C 0.69223 0.78112 0.60986 0.0
C3247 C 0.68503 0.75952 0.61407 0.0
C3248 C 0.70387 0.75452 0.64438 0.0
H3249 H 0.6901 0.69435 0.64766 0.0
H3250 H 0.68669 0.71069 0.63809 0.0
H3251 H 0.7138 0.74702 0.65615 0.0
H3252 H 0.7041 0.79305 0.62909 0.0
H3253 H 0.70364 0.77666 0.64554 0.0
H3254 H 0.6737 0.73837 0.6338 0.0
C3255 C 0.69166 0.71195 0.64949 0.0
C3256 C 0.70496 0.74506 0.65153 0.0
C3257 C 0.69367 0.70263 0.65491 0.0
C3258 C 0.6987 0.78372 0.62479 0.0
C3259 C 0.69847 0.77433 0.63416 0.0
C3260 C 0.68252 0.74039 0.6386 0.0
C3261 C 0.69637 0.72294 0.65836 0.0
C3262 C 0.69491 0.73312 0.65198 0.0
C3263 C 0.69185 0.76214 0.62872 0.0
C3264 C 0.69268 0.75228 0.63763 0.0
H3265 H 0.71 0.71627 0.68971 0.0
H3266 H 0.70657 0.73262 0.68013 0.0
H3267 H 0.6757 0.72183 0.64601 0.0
H3268 H 0.68025 0.7666 0.59321 0.0
H3269 H 0.67998 0.75029 0.60934 0.0
C3270 C 0.31691 0.99971 0.66827 0.0
C3271 C 0.31371 0.00838 0.67316 0.0
C3272 C 0.30803 0.9883 0.66239 0.0
C3273 C 0.2747 0.96658 0.66011 0.0
H3274 H 0.28387 0.95521 0.62126 0.0
C3275 C 0.24044 0.9248 0.62053 0.0
C3276 C 0.24471 0.91717 0.6146 0.0
C3277 C 0.24834 0.93567 0.62884 0.0
C3278 C 0.2812 0.95817 0.63222 0.0
H3279 H 0.29863 0.01175 0.67629 0.0
H3280 H 0.28307 0.99179 0.66584 0.0
H3281 H 0.29856 0.9745 0.63381 0.0
H3282 H 0.26066 0.915 0.61293 0.0
H3283 H 0.27422 0.93363 0.62769 0.0
H3284 H 0.25724 0.95016 0.65834 0.0
C3285 C 0.29245 0.99379 0.66668 0.0
C3286 C 0.28963 0.96923 0.63944 0.0
C3287 C 0.30136 0.00524 0.6726 0.0
C3288 C 0.25697 0.92052 0.61752 0.0
C3289 C 0.26482 0.93132 0.62579 0.0
C3290 C 0.26622 0.95545 0.65285 0.0
C3291 C 0.29573 0.98529 0.6612 0.0
C3292 C 0.28655 0.97353 0.65355 0.0
C3293 C 0.26068 0.93914 0.63129 0.0
C3294 C 0.26943 0.95108 0.63891 0.0
H3295 H 0.32634 0.00183 0.66867 0.0
H3296 H 0.31083 0.98186 0.6586 0.0
H3297 H 0.27206 0.96961 0.67103 0.0
H3298 H 0.23103 0.92245 0.61861 0.0
H3299 H 0.24488 0.94152 0.63288 0.0
C3300 C 0.00928 0.30066 0.66648 0.0
C3301 C 0.00907 0.31072 0.67341 0.0
C3302 C 0.02027 0.30181 0.66091 0.0
C3303 C 0.05386 0.32079 0.66362 0.0
H3304 H 0.05322 0.30983 0.61883 0.0
C3305 C 0.09772 0.33675 0.62503 0.0
C3306 C 0.09796 0.32877 0.61317 0.0
C3307 C 0.08708 0.3335 0.63401 0.0
C3308 C 0.05358 0.31273 0.63147 0.0
H3309 H 0.02022 0.32971 0.68059 0.0
H3310 H 0.03943 0.33167 0.67099 0.0
H3311 H 0.03428 0.30582 0.63192 0.0
H3312 H 0.08719 0.31088 0.60193 0.0
H3313 H 0.06893 0.30502 0.61809 0.0
H3314 H 0.07317 0.32771 0.66319 0.0
C3315 C 0.03111 0.32291 0.66986 0.0
C3316 C 0.04269 0.31045 0.63895 0.0
C3317 C 0.02011 0.3218 0.67527 0.0
C3318 C 0.08744 0.31724 0.61105 0.0
C3319 C 0.07686 0.31394 0.62015 0.0
C3320 C 0.06476 0.32296 0.65619 0.0
C3321 C 0.03127 0.313 0.66232 0.0
C3322 C 0.04273 0.31459 0.65502 0.0
C3323 C 0.07644 0.32213 0.63149 0.0
C3324 C 0.06478 0.3191 0.63993 0.0
H3325 H 0.00091 0.29201 0.6649 0.0
H3326 H 0.02015 0.29399 0.65527 0.0
H3327 H 0.05414 0.32398 0.67608 0.0
H3328 H 0.10569 0.34561 0.62722 0.0
H3329 H 0.0871 0.34009 0.64252 0.0
C3330 C 0.30155 0.30983 0.67744 0.0
C3331 C 0.31263 0.31598 0.66873 0.0
C3332 C 0.29146 0.31077 0.6725 0.0
C3333 C 0.28224 0.32893 0.64627 0.0
H3334 H 0.251 0.29883 0.64493 0.0
C3335 C 0.23866 0.32737 0.62111 0.0
C3336 C 0.23155 0.31766 0.61031 0.0
C3337 C 0.24795 0.32738 0.63053 0.0
C3338 C 0.25965 0.30731 0.64521 0.0
H3339 H 0.32192 0.32819 0.64829 0.0
H3340 H 0.30429 0.32969 0.63952 0.0
H3341 H 0.26867 0.29884 0.65687 0.0
H3342 H 0.22864 0.30032 0.60102 0.0
H3343 H 0.24474 0.30034 0.61736 0.0
H3344 H 0.27333 0.33727 0.63392 0.0
C3345 C 0.30342 0.32427 0.65031 0.0
C3346 C 0.26977 0.30736 0.65224 0.0
C3347 C 0.31351 0.32335 0.65527 0.0
C3348 C 0.23376 0.30784 0.60944 0.0
C3349 C 0.24302 0.30785 0.61883 0.0
C3350 C 0.27212 0.32888 0.63921 0.0
C3351 C 0.29221 0.31787 0.65873 0.0
C3352 C 0.28124 0.31812 0.6526 0.0
C3353 C 0.25033 0.31768 0.62934 0.0
C3354 C 0.26076 0.31802 0.63832 0.0
H3355 H 0.30062 0.30413 0.68792 0.0
H3356 H 0.28303 0.30586 0.67941 0.0
H3357 H 0.2909 0.33741 0.64655 0.0
H3358 H 0.23709 0.33501 0.62221 0.0
H3359 H 0.2533 0.33502 0.63867 0.0
C3360 C 0.69204 0.00049 0.66141 0.0
C3361 C 0.70238 0.00789 0.67108 0.0
C3362 C 0.69038 0.98964 0.65459 0.0
C3363 C 0.70128 0.96725 0.65616 0.0
H3364 H 0.69086 0.9619 0.61048 0.0
C3365 C 0.69486 0.92547 0.61795 0.0
C3366 C 0.69952 0.92813 0.60181 0.0
C3367 C 0.69423 0.93438 0.62746 0.0
C3368 C 0.69381 0.96327 0.62323 0.0
H3369 H 0.71889 0.00955 0.68166 0.0
H3370 H 0.71615 0.99071 0.66944 0.0
H3371 H 0.69161 0.97885 0.6255 0.0
H3372 H 0.7069 0.94214 0.58291 0.0
H3373 H 0.70608 0.95764 0.5995 0.0
H3374 H 0.70395 0.95189 0.65356 0.0
C3375 C 0.70921 0.99318 0.66733 0.0
C3376 C 0.69409 0.97291 0.63192 0.0
C3377 C 0.71083 0.00402 0.67425 0.0
C3378 C 0.70346 0.93984 0.59538 0.0
C3379 C 0.70281 0.94869 0.60483 0.0
C3380 C 0.70102 0.95759 0.64742 0.0
C3381 C 0.69907 0.98597 0.65718 0.0
C3382 C 0.69797 0.97513 0.64844 0.0
C3383 C 0.69815 0.94607 0.62095 0.0
C3384 C 0.69748 0.95563 0.63076 0.0
H3385 H 0.6853 0.00318 0.65889 0.0
H3386 H 0.68234 0.98419 0.64711 0.0
H3387 H 0.70418 0.96862 0.66892 0.0
H3388 H 0.6918 0.91655 0.62327 0.0
H3389 H 0.69053 0.93207 0.63982 0.0
C3390 C 0.01268 0.70957 0.64991 0.0
C3391 C 0.0105 0.70726 0.66685 0.0
C3392 C 0.02385 0.71912 0.64431 0.0
C3393 C 0.05602 0.73722 0.65471 0.0
H3394 H 0.05658 0.75983 0.62201 0.0
C3395 C 0.10155 0.77557 0.62773 0.0
C3396 C 0.10162 0.77777 0.61076 0.0
C3397 C 0.09052 0.76818 0.63598 0.0
C3398 C 0.05661 0.75353 0.63101 0.0
H3399 H 0.0183 0.71304 0.69125 0.0
H3400 H 0.03802 0.72962 0.68138 0.0
H3401 H 0.03712 0.74432 0.63356 0.0
H3402 H 0.09022 0.7739 0.58909 0.0
H3403 H 0.07111 0.76084 0.60324 0.0
H3404 H 0.07541 0.74598 0.65167 0.0
C3405 C 0.03101 0.72408 0.67249 0.0
C3406 C 0.04546 0.74469 0.63767 0.0
C3407 C 0.01974 0.71464 0.67811 0.0
C3408 C 0.09044 0.77257 0.60224 0.0
C3409 C 0.07946 0.76509 0.61041 0.0
C3410 C 0.06718 0.74595 0.64787 0.0
C3411 C 0.03313 0.72644 0.65553 0.0
C3412 C 0.04504 0.73635 0.64942 0.0
C3413 C 0.07933 0.7627 0.62737 0.0
C3414 C 0.06761 0.75411 0.63574 0.0
H3415 H 0.00572 0.70405 0.64095 0.0
H3416 H 0.0253 0.72068 0.63117 0.0
H3417 H 0.05593 0.73083 0.66368 0.0
H3418 H 0.11003 0.77953 0.63461 0.0
H3419 H 0.09077 0.76672 0.64909 0.0
C3420 C 0.99554 0.65503 0.70508 0.0
C3421 C 0.98536 0.65208 0.69509 0.0
C3422 C 0.99762 0.64587 0.71104 0.0
C3423 C 0.98879 0.61326 0.70591 0.0
H3424 H 0.99866 0.61645 0.75173 0.0
C3425 C 0.00094 0.57979 0.73863 0.0
C3426 C 0.99707 0.57673 0.75507 0.0
C3427 C 0.99954 0.58874 0.73037 0.0
C3428 C 0.99581 0.61536 0.73896 0.0
H3429 H 0.96957 0.63727 0.68305 0.0
H3430 H 0.97306 0.62122 0.69369 0.0
H3431 H 0.99636 0.63249 0.73883 0.0
H3432 H 0.98862 0.58068 0.77563 0.0
H3433 H 0.98585 0.59588 0.76114 0.0
H3434 H 0.9879 0.59589 0.70629 0.0
C3435 C 0.97954 0.63063 0.69675 0.0
C3436 C 0.99467 0.62466 0.73147 0.0
C3437 C 0.9775 0.63981 0.69072 0.0
C3438 C 0.99156 0.58265 0.76291 0.0
C3439 C 0.99013 0.59153 0.75467 0.0
C3440 C 0.98992 0.60392 0.71344 0.0
C3441 C 0.98951 0.63353 0.70723 0.0
C3442 C 0.9911 0.62373 0.71488 0.0
C3443 C 0.99427 0.59482 0.73839 0.0
C3444 C 0.99335 0.60482 0.7301 0.0
H3445 H 0.00182 0.66441 0.70855 0.0
H3446 H 0.00552 0.64846 0.7188 0.0
H3447 H 0.98613 0.6123 0.69307 0.0
H3448 H 0.00513 0.57534 0.73217 0.0
H3449 H 0.00288 0.5911 0.71785 0.0
C3450 C 0.3729 0.34497 0.71434 0.0
C3451 C 0.36934 0.34399 0.69778 0.0
C3452 C 0.38222 0.35602 0.72059 0.0
C3453 C 0.40787 0.38656 0.70787 0.0
H3454 H 0.40538 0.39455 0.75331 0.0
C3455 C 0.43771 0.43426 0.73886 0.0
C3456 C 0.4427 0.43404 0.75426 0.0
C3457 C 0.4295 0.42334 0.73095 0.0
C3458 C 0.40623 0.39239 0.74063 0.0
H3459 H 0.37268 0.35378 0.67472 0.0
H3460 H 0.38863 0.37328 0.68576 0.0
H3461 H 0.38927 0.37561 0.74153 0.0
H3462 H 0.44317 0.42229 0.77334 0.0
H3463 H 0.42868 0.40325 0.75963 0.0
H3464 H 0.4247 0.40373 0.707 0.0
C3465 C 0.38449 0.36544 0.69386 0.0
C3466 C 0.39703 0.3815 0.73387 0.0
C3467 C 0.37528 0.35429 0.68754 0.0
C3468 C 0.43957 0.42273 0.7614 0.0
C3469 C 0.43121 0.41185 0.75364 0.0
C3470 C 0.41699 0.3976 0.71459 0.0
C3471 C 0.38807 0.36646 0.7105 0.0
C3472 C 0.39777 0.37833 0.71744 0.0
C3473 C 0.42597 0.41205 0.73847 0.0
C3474 C 0.4163 0.40053 0.73108 0.0
H3475 H 0.36858 0.33714 0.72247 0.0
H3476 H 0.3849 0.35631 0.73333 0.0
H3477 H 0.40887 0.38441 0.69526 0.0
H3478 H 0.44 0.44286 0.7331 0.0
H3479 H 0.42553 0.42372 0.71928 0.0
C3480 C 0.67161 0.04591 0.69805 0.0
C3481 C 0.67568 0.03787 0.70282 0.0
C3482 C 0.66071 0.04457 0.70446 0.0
C3483 C 0.63974 0.03073 0.73984 0.0
H3484 H 0.61595 0.03326 0.71245 0.0
C3485 C 0.59021 0.01109 0.76033 0.0
C3486 C 0.5847 0.01827 0.75833 0.0
C3487 C 0.60151 0.01457 0.75317 0.0
C3488 C 0.62259 0.03269 0.72028 0.0
H3489 H 0.67142 0.02198 0.71766 0.0
H3490 H 0.65245 0.01954 0.72858 0.0
H3491 H 0.63545 0.03735 0.70052 0.0
H3492 H 0.58665 0.03467 0.74702 0.0
H3493 H 0.60654 0.04077 0.73435 0.0
H3494 H 0.62685 0.02582 0.75948 0.0
C3495 C 0.65773 0.02704 0.7202 0.0
C3496 C 0.63375 0.03503 0.71346 0.0
C3497 C 0.66858 0.02838 0.71385 0.0
C3498 C 0.5907 0.02897 0.7488 0.0
C3499 C 0.60202 0.03242 0.74148 0.0
C3500 C 0.62862 0.02835 0.74659 0.0
C3501 C 0.65372 0.03519 0.71576 0.0
C3502 C 0.64233 0.03382 0.72311 0.0
C3503 C 0.6076 0.02532 0.74381 0.0
C3504 C 0.61982 0.02904 0.73682 0.0
H3505 H 0.67691 0.05332 0.68956 0.0
H3506 H 0.65789 0.05103 0.70084 0.0
H3507 H 0.64627 0.03003 0.74773 0.0
H3508 H 0.58593 0.00289 0.76779 0.0
H3509 H 0.6055 0.00883 0.75501 0.0
loop_
_geom_bond_atom_site_label_1
_geom_bond_atom_site_label_2
_geom_bond_distance
_geom_bond_site_symmetry_2
_ccdc_geom_bond_type
In0 O1 2.294 . S
In0 O2 2.326 . S
In0 O6 2.266 1_455 S
In0 O7 2.326 1_554 S
In0 O8 2.266 1_554 S
In0 O9 2.329 1_454 S
In0 O11 2.294 . S
In0 O12 2.326 . S
O1 In0 2.294 . S
O1 C10 1.240 . S
O2 In0 2.326 . S
O2 C10 1.252 . S
C3 O6 1.252 . S
C3 O7 1.260 1_654 S
C4 O11 1.240 . S
C4 O12 1.252 . S
C5 O8 1.252 . S
C5 O9 1.256 1_455 S
O6 In0 2.266 1_655 S
O6 C3 1.252 . S
O7 In0 2.326 1_556 S
O7 C3 1.260 1_456 S
O8 In0 2.266 1_556 S
O8 C5 1.252 . S
O9 In0 2.329 1_656 S
O9 C5 1.256 1_655 S
C10 O1 1.240 . S
C10 O2 1.252 . S
O11 In0 2.294 . S
O11 C4 1.240 . S
O12 In0 2.326 . S
O12 C4 1.252 . S
In13 O14 2.294 . S
In13 O15 2.326 . S
In13 O19 2.266 . S
In13 O20 2.326 1_554 S
In13 O21 2.266 1_554 S
In13 O22 2.324 . S
In13 O24 2.294 . S
In13 O25 2.326 . S
O14 In13 2.294 . S
O14 C23 1.240 . S
O15 In13 2.326 . S
O15 C23 1.252 . S
C16 O19 1.252 . S
C16 O20 1.260 1_554 S
C17 O24 1.240 . S
C17 O25 1.252 . S
C18 O21 1.252 . S
C18 O22 1.262 1_556 S
O19 In13 2.266 . S
O19 C16 1.252 . S
O20 In13 2.326 1_556 S
O20 C16 1.260 1_556 S
O21 In13 2.266 1_556 S
O21 C18 1.252 . S
O22 In13 2.324 . S
O22 C18 1.262 1_554 S
C23 O14 1.240 . S
C23 O15 1.252 . S
O24 In13 2.294 . S
O24 C17 1.240 . S
O25 In13 2.326 . S
O25 C17 1.252 . S
In26 O27 2.294 . S
In26 O28 2.326 1_554 S
In26 O32 2.266 . S
In26 O33 2.265 1_545 S
In26 O34 2.266 1_545 S
In26 O35 2.326 . S
In26 O37 2.294 1_554 S
In26 O38 2.285 1_554 S
O27 In26 2.294 . S
O27 C36 1.240 . S
O28 In26 2.326 1_556 S
O28 C36 1.252 1_556 S
C29 O32 1.252 . S
C29 O33 1.210 1_545 S
C30 O37 1.240 . S
C30 O38 1.299 . S
C31 O34 1.252 . S
C31 O35 1.260 1_565 S
O32 In26 2.266 . S
O32 C29 1.252 . S
O33 In26 2.265 1_565 S
O33 C29 1.210 1_565 S
O34 In26 2.266 1_565 S
O34 C31 1.252 . S
O35 In26 2.326 . S
O35 C31 1.260 1_545 S
C36 O27 1.240 . S
C36 O28 1.252 1_554 S
O37 In26 2.294 1_556 S
O37 C30 1.240 . S
O38 In26 2.285 1_556 S
O38 C30 1.299 . S
In39 O40 2.294 1_554 S
In39 O41 2.326 1_454 S
In39 O45 2.266 . S
In39 O46 2.326 . S
In39 O47 2.266 . S
In39 O48 2.326 . S
In39 O50 2.294 1_455 S
In39 O51 2.326 1_554 S
O40 In39 2.294 1_556 S
O40 C49 1.240 . S
O41 In39 2.326 1_656 S
O41 C49 1.252 1_655 S
C42 O45 1.252 . S
C42 O46 1.260 . S
C43 O50 1.240 . S
C43 O51 1.252 1_654 S
C44 O47 1.252 . S
C44 O48 1.260 . S
O45 In39 2.266 . S
O45 C42 1.252 . S
O46 In39 2.326 . S
O46 C42 1.260 . S
O47 In39 2.266 . S
O47 C44 1.252 . S
O48 In39 2.326 . S
O48 C44 1.260 . S
C49 O40 1.240 . S
C49 O41 1.252 1_455 S
O50 In39 2.294 1_655 S
O50 C43 1.240 . S
O51 In39 2.326 1_556 S
O51 C43 1.252 1_456 S
In52 O53 2.294 1_554 S
In52 O54 2.287 1_554 S
In52 O58 2.266 . S
In52 O59 2.326 . S
In52 O60 2.266 . S
In52 O61 2.326 . S
In52 O63 2.294 . S
In52 O64 2.326 1_554 S
O53 In52 2.294 1_556 S
O53 C62 1.240 . S
O54 In52 2.287 1_556 S
O54 C62 1.297 . S
C55 O58 1.252 . S
C55 O59 1.260 . S
C56 O63 1.240 . S
C56 O64 1.252 1_554 S
C57 O60 1.252 . S
C57 O61 1.260 . S
O58 In52 2.266 . S
O58 C55 1.252 . S
O59 In52 2.326 . S
O59 C55 1.260 . S
O60 In52 2.266 . S
O60 C57 1.252 . S
O61 In52 2.326 . S
O61 C57 1.260 . S
C62 O53 1.240 . S
C62 O54 1.297 . S
O63 In52 2.294 . S
O63 C56 1.240 . S
O64 In52 2.326 1_556 S
O64 C56 1.252 1_556 S
In65 O66 2.294 . S
In65 O67 2.326 1_545 S
In65 O71 2.266 . S
In65 O72 2.326 1_554 S
In65 O73 2.266 1_554 S
In65 O74 2.322 . S
In65 O76 2.294 1_545 S
In65 O77 2.326 . S
O66 In65 2.294 . S
O66 C75 1.240 . S
O67 In65 2.326 1_565 S
O67 C75 1.252 1_565 S
C68 O71 1.252 . S
C68 O72 1.260 1_554 S
C69 O76 1.240 . S
C69 O77 1.252 1_565 S
C70 O73 1.252 . S
C70 O74 1.264 1_556 S
O71 In65 2.266 . S
O71 C68 1.252 . S
O72 In65 2.326 1_556 S
O72 C68 1.260 1_556 S
O73 In65 2.266 1_556 S
O73 C70 1.252 . S
O74 In65 2.322 . S
O74 C70 1.264 1_554 S
C75 O66 1.240 . S
C75 O67 1.252 1_545 S
O76 In65 2.294 1_565 S
O76 C69 1.240 . S
O77 In65 2.326 . S
O77 C69 1.252 1_545 S
In78 O79 2.294 . S
In78 O80 2.326 . S
In78 O84 2.266 . S
In78 O85 2.326 . S
In78 O86 2.266 . S
In78 O87 2.326 . S
In78 O89 2.294 . S
In78 O90 2.326 . S
O79 In78 2.294 . S
O79 C88 1.240 . S
O80 In78 2.326 . S
O80 C88 1.252 . S
C81 O84 1.252 . S
C81 O85 1.260 . S
C82 O89 1.240 . S
C82 O90 1.252 . S
C83 O86 1.252 . S
C83 O87 1.260 . S
O84 In78 2.266 . S
O84 C81 1.252 . S
O85 In78 2.326 . S
O85 C81 1.260 . S
O86 In78 2.266 . S
O86 C83 1.252 . S
O87 In78 2.326 . S
O87 C83 1.260 . S
C88 O79 1.240 . S
C88 O80 1.252 . S
O89 In78 2.294 . S
O89 C82 1.240 . S
O90 In78 2.326 . S
O90 C82 1.252 . S
In91 O92 2.294 . S
In91 O93 2.326 . S
In91 O97 2.266 . S
In91 O98 2.326 . S
In91 O99 2.266 . S
In91 O100 2.326 . S
In91 O102 2.373 . S
In91 O103 2.326 . S
O92 In91 2.294 . S
O92 C101 1.240 . S
O93 In91 2.326 . S
O93 C101 1.252 . S
C94 O97 1.252 . S
C94 O98 1.260 . S
C95 O102 1.234 1_545 S
C95 O103 1.252 1_545 S
C96 O99 1.252 . S
C96 O100 1.260 . S
O97 In91 2.266 . S
O97 C94 1.252 . S
O98 In91 2.326 . S
O98 C94 1.260 . S
O99 In91 2.266 . S
O99 C96 1.252 . S
O100 In91 2.326 . S
O100 C96 1.260 . S
C101 O92 1.240 . S
C101 O93 1.252 . S
O102 In91 2.373 . S
O102 C95 1.234 1_565 S
O103 In91 2.326 . S
O103 C95 1.252 1_565 S
In104 O105 2.294 . S
In104 O106 2.326 . S
In104 O110 2.266 . S
In104 O111 2.326 . S
In104 O112 2.266 . S
In104 O113 2.326 . S
In104 O115 2.294 . S
In104 O116 2.326 . S
O105 In104 2.294 . S
O105 C114 1.240 . S
O106 In104 2.326 . S
O106 C114 1.252 . S
C107 O110 1.252 . S
C107 O111 1.260 . S
C108 O115 1.240 . S
C108 O116 1.252 . S
C109 O112 1.252 . S
C109 O113 1.260 . S
O110 In104 2.266 . S
O110 C107 1.252 . S
O111 In104 2.326 . S
O111 C107 1.260 . S
O112 In104 2.266 . S
O112 C109 1.252 . S
O113 In104 2.326 . S
O113 C109 1.260 . S
C114 O105 1.240 . S
C114 O106 1.252 . S
O115 In104 2.294 . S
O115 C108 1.240 . S
O116 In104 2.326 . S
O116 C108 1.252 . S
In117 O118 2.294 . S
In117 O119 2.326 . S
In117 O123 2.266 . S
In117 O124 2.326 . S
In117 O125 2.266 . S
In117 O126 2.326 . S
In117 O128 2.294 . S
In117 O129 2.326 . S
O118 In117 2.294 . S
O118 C127 1.240 . S
O119 In117 2.326 . S
O119 C127 1.252 . S
C120 O123 1.252 1_545 S
C120 O124 1.260 1_545 S
C121 O128 1.240 . S
C121 O129 1.252 . S
C122 O125 1.252 . S
C122 O126 1.260 . S
O123 In117 2.266 . S
O123 C120 1.252 1_565 S
O124 In117 2.326 . S
O124 C120 1.260 1_565 S
O125 In117 2.266 . S
O125 C122 1.252 . S
O126 In117 2.326 . S
O126 C122 1.260 . S
C127 O118 1.240 . S
C127 O119 1.252 . S
O128 In117 2.294 . S
O128 C121 1.240 . S
O129 In117 2.326 . S
O129 C121 1.252 . S
In130 O131 2.294 . S
In130 O132 2.326 . S
In130 O136 2.266 . S
In130 O137 2.326 . S
In130 O138 2.266 . S
In130 O139 2.326 . S
In130 O141 2.294 . S
In130 O142 2.326 . S
O131 In130 2.294 . S
O131 C140 1.240 . S
O132 In130 2.326 . S
O132 C140 1.252 . S
C133 O136 1.252 . S
C133 O137 1.260 . S
C134 O141 1.240 . S
C134 O142 1.252 . S
C135 O138 1.252 . S
C135 O139 1.260 . S
O136 In130 2.266 . S
O136 C133 1.252 . S
O137 In130 2.326 . S
O137 C133 1.260 . S
O138 In130 2.266 . S
O138 C135 1.252 . S
O139 In130 2.326 . S
O139 C135 1.260 . S
C140 O131 1.240 . S
C140 O132 1.252 . S
O141 In130 2.294 . S
O141 C134 1.240 . S
O142 In130 2.326 . S
O142 C134 1.252 . S
In143 O144 2.294 . S
In143 O145 2.326 . S
In143 O149 2.266 . S
In143 O150 2.326 . S
In143 O151 2.266 . S
In143 O152 2.326 . S
In143 O154 2.294 . S
In143 O155 2.326 . S
O144 In143 2.294 . S
O144 C153 1.240 . S
O145 In143 2.326 . S
O145 C153 1.252 . S
C146 O149 1.252 . S
C146 O150 1.260 . S
C147 O154 1.240 . S
C147 O155 1.252 . S
C148 O151 1.252 . S
C148 O152 1.260 . S
O149 In143 2.266 . S
O149 C146 1.252 . S
O150 In143 2.326 . S
O150 C146 1.260 . S
O151 In143 2.266 . S
O151 C148 1.252 . S
O152 In143 2.326 . S
O152 C148 1.260 . S
C153 O144 1.240 . S
C153 O145 1.252 . S
O154 In143 2.294 . S
O154 C147 1.240 . S
O155 In143 2.326 . S
O155 C147 1.252 . S
In156 O157 2.294 . S
In156 O158 2.326 . S
In156 O162 2.266 . S
In156 O163 2.326 . S
In156 O164 2.266 . S
In156 O165 2.326 . S
In156 O167 2.294 . S
In156 O168 2.326 . S
O157 In156 2.294 . S
O157 C166 1.240 . S
O158 In156 2.326 . S
O158 C166 1.252 . S
C159 O162 1.252 . S
C159 O163 1.260 . S
C160 O167 1.240 . S
C160 O168 1.252 . S
C161 O164 1.252 . S
C161 O165 1.260 . S
O162 In156 2.266 . S
O162 C159 1.252 . S
O163 In156 2.326 . S
O163 C159 1.260 . S
O164 In156 2.266 . S
O164 C161 1.252 . S
O165 In156 2.326 . S
O165 C161 1.260 . S
C166 O157 1.240 . S
C166 O158 1.252 . S
O167 In156 2.294 . S
O167 C160 1.240 . S
O168 In156 2.326 . S
O168 C160 1.252 . S
In169 O170 2.294 . S
In169 O171 2.326 . S
In169 O175 2.266 . S
In169 O176 2.326 . S
In169 O177 2.266 . S
In169 O178 2.326 . S
In169 O180 2.294 . S
In169 O181 2.326 . S
O170 In169 2.294 . S
O170 C179 1.240 . S
O171 In169 2.326 . S
O171 C179 1.252 . S
C172 O175 1.252 . S
C172 O176 1.260 . S
C173 O180 1.240 . S
C173 O181 1.252 . S
C174 O177 1.252 1_455 S
C174 O178 1.260 1_455 S
O175 In169 2.266 . S
O175 C172 1.252 . S
O176 In169 2.326 . S
O176 C172 1.260 . S
O177 In169 2.266 . S
O177 C174 1.252 1_655 S
O178 In169 2.326 . S
O178 C174 1.260 1_655 S
C179 O170 1.240 . S
C179 O171 1.252 . S
O180 In169 2.294 . S
O180 C173 1.240 . S
O181 In169 2.326 . S
O181 C173 1.252 . S
In182 O183 2.294 . S
In182 O184 2.326 . S
In182 O188 2.266 . S
In182 O189 2.326 . S
In182 O190 2.266 . S
In182 O191 2.326 . S
In182 O193 2.294 . S
In182 O194 2.326 . S
O183 In182 2.294 . S
O183 C192 1.240 . S
O184 In182 2.326 . S
O184 C192 1.252 . S
C185 O188 1.252 . S
C185 O189 1.260 . S
C186 O193 1.240 . S
C186 O194 1.252 . S
C187 O190 1.252 . S
C187 O191 1.260 . S
O188 In182 2.266 . S
O188 C185 1.252 . S
O189 In182 2.326 . S
O189 C185 1.260 . S
O190 In182 2.266 . S
O190 C187 1.252 . S
O191 In182 2.326 . S
O191 C187 1.260 . S
C192 O183 1.240 . S
C192 O184 1.252 . S
O193 In182 2.294 . S
O193 C186 1.240 . S
O194 In182 2.326 . S
O194 C186 1.252 . S
In195 O196 2.294 . S
In195 O197 2.326 . S
In195 O201 2.266 . S
In195 O202 2.326 . S
In195 O203 2.266 . S
In195 O204 2.326 . S
In195 O206 2.294 . S
In195 O207 2.326 . S
O196 In195 2.294 . S
O196 C205 1.240 . S
O197 In195 2.326 . S
O197 C205 1.252 . S
C198 O201 1.252 . S
C198 O202 1.260 . S
C199 O206 1.240 . S
C199 O207 1.252 . S
C200 O203 1.252 . S
C200 O204 1.260 . S
O201 In195 2.266 . S
O201 C198 1.252 . S
O202 In195 2.326 . S
O202 C198 1.260 . S
O203 In195 2.266 . S
O203 C200 1.252 . S
O204 In195 2.326 . S
O204 C200 1.260 . S
C205 O196 1.240 . S
C205 O197 1.252 . S
O206 In195 2.294 . S
O206 C199 1.240 . S
O207 In195 2.326 . S
O207 C199 1.252 . S
In208 O209 2.294 . S
In208 O210 2.326 . S
In208 O214 2.266 . S
In208 O215 2.326 . S
In208 O216 2.266 . S
In208 O217 2.326 . S
In208 O219 2.294 . S
In208 O220 2.326 . S
O209 In208 2.294 . S
O209 C218 1.240 . S
O210 In208 2.326 . S
O210 C218 1.252 . S
C211 O214 1.252 . S
C211 O215 1.260 . S
C212 O219 1.240 . S
C212 O220 1.252 . S
C213 O216 1.252 . S
C213 O217 1.260 . S
O214 In208 2.266 . S
O214 C211 1.252 . S
O215 In208 2.326 . S
O215 C211 1.260 . S
O216 In208 2.266 . S
O216 C213 1.252 . S
O217 In208 2.326 . S
O217 C213 1.260 . S
C218 O209 1.240 . S
C218 O210 1.252 . S
O219 In208 2.294 . S
O219 C212 1.240 . S
O220 In208 2.326 . S
O220 C212 1.252 . S
In221 O222 2.294 . S
In221 O223 2.326 . S
In221 O227 2.266 . S
In221 O228 2.326 . S
In221 O229 2.266 . S
In221 O230 2.326 . S
In221 O232 2.294 . S
In221 O233 2.326 . S
O222 In221 2.294 . S
O222 C231 1.240 . S
O223 In221 2.326 . S
O223 C231 1.252 . S
C224 O227 1.252 . S
C224 O228 1.260 . S
C225 O232 1.240 . S
C225 O233 1.252 . S
C226 O229 1.252 1_455 S
C226 O230 1.260 1_455 S
O227 In221 2.266 . S
O227 C224 1.252 . S
O228 In221 2.326 . S
O228 C224 1.260 . S
O229 In221 2.266 . S
O229 C226 1.252 1_655 S
O230 In221 2.326 . S
O230 C226 1.260 1_655 S
C231 O222 1.240 . S
C231 O223 1.252 . S
O232 In221 2.294 . S
O232 C225 1.240 . S
O233 In221 2.326 . S
O233 C225 1.252 . S
H234 C261 0.929 . S
N235 C260 1.433 . S
N235 C266 1.435 . S
N235 C272 1.423 . S
H236 C262 0.930 . S
H237 C265 0.931 . S
H238 C264 0.929 . S
H239 C267 0.930 . S
H240 C268 0.932 . S
H241 C271 0.929 . S
H242 C270 0.931 . S
H243 C273 0.929 . S
H244 C277 0.932 . S
H245 C274 0.931 . S
H246 C276 0.929 . S
H247 C279 0.929 . S
H248 C280 0.930 . S
H249 C282 0.929 . S
H250 C283 0.931 . S
H251 C285 0.930 . S
H252 C286 0.932 . S
H253 C288 0.931 . S
H254 C289 0.929 . S
H255 C291 0.929 . S
H256 C292 0.931 . S
H257 C294 0.929 . S
N258 C278 1.433 . S
N258 C284 1.435 . S
N258 C290 1.423 . S
H259 C295 0.932 . S
C260 N235 1.433 . S
C260 C261 1.363 . S
C260 C265 1.370 . S
C261 H234 0.929 . S
C261 C260 1.363 . S
C261 C262 1.385 . S
C262 H236 0.930 . S
C262 C261 1.385 . S
C262 C263 1.357 . S
C263 C262 1.357 . S
C263 C264 1.406 . S
C264 H238 0.929 . S
C264 C263 1.406 . S
C264 C265 1.391 . S
C265 H237 0.931 . S
C265 C260 1.370 . S
C265 C264 1.391 . S
C266 N235 1.435 . S
C266 C267 1.358 . S
C266 C271 1.371 . S
C267 H239 0.930 . S
C267 C266 1.358 . S
C267 C268 1.405 . S
C268 H240 0.932 . S
C268 C267 1.405 . S
C268 C269 1.383 . S
C269 C268 1.383 . S
C269 C270 1.393 . S
C270 H242 0.931 . S
C270 C269 1.393 . S
C270 C271 1.382 . S
C271 H241 0.929 . S
C271 C266 1.371 . S
C271 C270 1.382 . S
C272 N235 1.423 . S
C272 C273 1.362 . S
C272 C277 1.388 . S
C273 H243 0.929 . S
C273 C272 1.362 . S
C273 C274 1.376 . S
C274 H245 0.931 . S
C274 C273 1.376 . S
C274 C275 1.396 . S
C275 C274 1.396 . S
C275 C276 1.348 . S
C275 C293 1.472 . S
C276 H246 0.929 . S
C276 C275 1.348 . S
C276 C277 1.443 . S
C277 H244 0.932 . S
C277 C272 1.388 . S
C277 C276 1.443 . S
C278 N258 1.433 . S
C278 C279 1.363 . S
C278 C283 1.370 . S
C279 H247 0.929 . S
C279 C278 1.363 . S
C279 C280 1.385 . S
C280 H248 0.930 . S
C280 C279 1.385 . S
C280 C281 1.357 . S
C281 C280 1.357 . S
C281 C282 1.406 . S
C282 H249 0.929 . S
C282 C281 1.406 . S
C282 C283 1.391 . S
C283 H250 0.931 . S
C283 C278 1.370 . S
C283 C282 1.391 . S
C284 N258 1.435 . S
C284 C285 1.358 . S
C284 C289 1.371 . S
C285 H251 0.930 . S
C285 C284 1.358 . S
C285 C286 1.405 . S
C286 H252 0.932 . S
C286 C285 1.405 . S
C286 C287 1.383 . S
C287 C286 1.383 . S
C287 C288 1.393 . S
C288 H253 0.931 . S
C288 C287 1.393 . S
C288 C289 1.382 . S
C289 H254 0.929 . S
C289 C284 1.371 . S
C289 C288 1.382 . S
C290 N258 1.423 . S
C290 C291 1.362 . S
C290 C295 1.388 . S
C291 H255 0.929 . S
C291 C290 1.362 . S
C291 C292 1.376 . S
C292 H256 0.931 . S
C292 C291 1.376 . S
C292 C293 1.396 . S
C293 C275 1.472 . S
C293 C292 1.396 . S
C293 C294 1.348 . S
C294 H257 0.929 . S
C294 C293 1.348 . S
C294 C295 1.443 . S
C295 H259 0.932 . S
C295 C290 1.388 . S
C295 C294 1.443 . S
H296 C323 0.929 . S
N297 C322 1.433 . S
N297 C328 1.435 . S
N297 C334 1.423 . S
H298 C324 0.930 . S
H299 C327 0.931 . S
H300 C326 0.929 . S
H301 C329 0.930 . S
H302 C330 0.932 . S
H303 C333 0.929 . S
H304 C332 0.931 . S
H305 C335 0.929 . S
H306 C339 0.932 . S
H307 C336 0.931 . S
H308 C338 0.929 . S
H309 C341 0.929 . S
H310 C342 0.930 . S
H311 C344 0.929 . S
H312 C345 0.931 . S
H313 C347 0.930 . S
H314 C348 0.932 . S
H315 C350 0.931 . S
H316 C351 0.929 . S
H317 C353 0.929 . S
H318 C354 0.931 . S
H319 C356 0.929 . S
N320 C340 1.433 . S
N320 C346 1.435 . S
N320 C352 1.423 . S
H321 C357 0.932 . S
C322 N297 1.433 . S
C322 C323 1.363 . S
C322 C327 1.370 . S
C323 H296 0.929 . S
C323 C322 1.363 . S
C323 C324 1.385 . S
C324 H298 0.930 . S
C324 C323 1.385 . S
C324 C325 1.357 . S
C325 C324 1.357 . S
C325 C326 1.406 . S
C326 H300 0.929 . S
C326 C325 1.406 . S
C326 C327 1.391 . S
C327 H299 0.931 . S
C327 C322 1.370 . S
C327 C326 1.391 . S
C328 N297 1.435 . S
C328 C329 1.358 . S
C328 C333 1.371 . S
C329 H301 0.930 . S
C329 C328 1.358 . S
C329 C330 1.405 . S
C330 H302 0.932 . S
C330 C329 1.405 . S
C330 C331 1.383 . S
C331 C330 1.383 . S
C331 C332 1.393 . S
C332 H304 0.931 . S
C332 C331 1.393 . S
C332 C333 1.382 . S
C333 H303 0.929 . S
C333 C328 1.371 . S
C333 C332 1.382 . S
C334 N297 1.423 . S
C334 C335 1.362 . S
C334 C339 1.388 . S
C335 H305 0.929 . S
C335 C334 1.362 . S
C335 C336 1.376 . S
C336 H307 0.931 . S
C336 C335 1.376 . S
C336 C337 1.396 . S
C337 C336 1.396 . S
C337 C338 1.348 . S
C337 C355 1.472 . S
C338 H308 0.929 . S
C338 C337 1.348 . S
C338 C339 1.443 . S
C339 H306 0.932 . S
C339 C334 1.388 . S
C339 C338 1.443 . S
C340 N320 1.433 . S
C340 C341 1.363 . S
C340 C345 1.370 . S
C341 H309 0.929 . S
C341 C340 1.363 . S
C341 C342 1.385 . S
C342 H310 0.930 . S
C342 C341 1.385 . S
C342 C343 1.357 . S
C343 C342 1.357 . S
C343 C344 1.406 . S
C344 H311 0.929 . S
C344 C343 1.406 . S
C344 C345 1.391 . S
C345 H312 0.931 . S
C345 C340 1.370 . S
C345 C344 1.391 . S
C346 N320 1.435 . S
C346 C347 1.358 . S
C346 C351 1.371 . S
C347 H313 0.930 . S
C347 C346 1.358 . S
C347 C348 1.405 . S
C348 H314 0.932 . S
C348 C347 1.405 . S
C348 C349 1.383 . S
C349 C348 1.383 . S
C349 C350 1.393 . S
C350 H315 0.931 . S
C350 C349 1.393 . S
C350 C351 1.382 . S
C351 H316 0.929 . S
C351 C346 1.371 . S
C351 C350 1.382 . S
C352 N320 1.423 . S
C352 C353 1.362 . S
C352 C357 1.388 . S
C353 H317 0.929 . S
C353 C352 1.362 . S
C353 C354 1.376 . S
C354 H318 0.931 . S
C354 C353 1.376 . S
C354 C355 1.396 . S
C355 C337 1.472 . S
C355 C354 1.396 . S
C355 C356 1.348 . S
C356 H319 0.929 . S
C356 C355 1.348 . S
C356 C357 1.443 . S
C357 H321 0.932 . S
C357 C352 1.388 . S
C357 C356 1.443 . S
H358 C385 0.929 . S
N359 C384 1.433 . S
N359 C390 1.435 . S
N359 C396 1.423 . S
H360 C386 0.930 . S
H361 C389 0.931 . S
H362 C388 0.929 . S
H363 C391 0.930 . S
H364 C392 0.932 . S
H365 C395 0.929 . S
H366 C394 0.931 . S
H367 C397 0.929 . S
H368 C401 0.932 . S
H369 C398 0.931 . S
H370 C400 0.929 . S
H371 C403 0.929 . S
H372 C404 0.930 . S
H373 C406 0.929 . S
H374 C407 0.931 . S
H375 C409 0.930 . S
H376 C410 0.932 . S
H377 C412 0.931 . S
H378 C413 0.929 . S
H379 C415 0.929 . S
H380 C416 0.931 . S
H381 C418 0.929 . S
N382 C402 1.433 . S
N382 C408 1.435 . S
N382 C414 1.423 . S
H383 C419 0.932 . S
C384 N359 1.433 . S
C384 C385 1.363 . S
C384 C389 1.370 . S
C385 H358 0.929 . S
C385 C384 1.363 . S
C385 C386 1.385 . S
C386 H360 0.930 . S
C386 C385 1.385 . S
C386 C387 1.357 . S
C387 C386 1.357 . S
C387 C388 1.406 . S
C388 H362 0.929 . S
C388 C387 1.406 . S
C388 C389 1.391 . S
C389 H361 0.931 . S
C389 C384 1.370 . S
C389 C388 1.391 . S
C390 N359 1.435 . S
C390 C391 1.358 . S
C390 C395 1.371 . S
C391 H363 0.930 . S
C391 C390 1.358 . S
C391 C392 1.405 . S
C392 H364 0.932 . S
C392 C391 1.405 . S
C392 C393 1.383 . S
C393 C392 1.383 . S
C393 C394 1.393 . S
C394 H366 0.931 . S
C394 C393 1.393 . S
C394 C395 1.382 . S
C395 H365 0.929 . S
C395 C390 1.371 . S
C395 C394 1.382 . S
C396 N359 1.423 . S
C396 C397 1.362 . S
C396 C401 1.388 . S
C397 H367 0.929 . S
C397 C396 1.362 . S
C397 C398 1.376 . S
C398 H369 0.931 . S
C398 C397 1.376 . S
C398 C399 1.396 . S
C399 C398 1.396 . S
C399 C400 1.348 . S
C399 C417 1.472 . S
C400 H370 0.929 . S
C400 C399 1.348 . S
C400 C401 1.443 . S
C401 H368 0.932 . S
C401 C396 1.388 . S
C401 C400 1.443 . S
C402 N382 1.433 . S
C402 C403 1.363 . S
C402 C407 1.370 . S
C403 H371 0.929 . S
C403 C402 1.363 . S
C403 C404 1.385 . S
C404 H372 0.930 . S
C404 C403 1.385 . S
C404 C405 1.357 . S
C405 C404 1.357 . S
C405 C406 1.406 . S
C406 H373 0.929 . S
C406 C405 1.406 . S
C406 C407 1.391 . S
C407 H374 0.931 . S
C407 C402 1.370 . S
C407 C406 1.391 . S
C408 N382 1.435 . S
C408 C409 1.358 . S
C408 C413 1.371 . S
C409 H375 0.930 . S
C409 C408 1.358 . S
C409 C410 1.405 . S
C410 H376 0.932 . S
C410 C409 1.405 . S
C410 C411 1.383 . S
C411 C410 1.383 . S
C411 C412 1.393 . S
C412 H377 0.931 . S
C412 C411 1.393 . S
C412 C413 1.382 . S
C413 H378 0.929 . S
C413 C408 1.371 . S
C413 C412 1.382 . S
C414 N382 1.423 . S
C414 C415 1.362 . S
C414 C419 1.388 . S
C415 H379 0.929 . S
C415 C414 1.362 . S
C415 C416 1.376 . S
C416 H380 0.931 . S
C416 C415 1.376 . S
C416 C417 1.396 . S
C417 C399 1.472 . S
C417 C416 1.396 . S
C417 C418 1.348 . S
C418 H381 0.929 . S
C418 C417 1.348 . S
C418 C419 1.443 . S
C419 H383 0.932 . S
C419 C414 1.388 . S
C419 C418 1.443 . S
H420 C447 0.929 . S
N421 C446 1.433 . S
N421 C452 1.435 . S
N421 C458 1.423 . S
H422 C448 0.930 . S
H423 C451 0.931 . S
H424 C450 0.929 . S
H425 C453 0.930 . S
H426 C454 0.932 . S
H427 C457 0.929 . S
H428 C456 0.931 . S
H429 C459 0.929 . S
H430 C463 0.932 . S
H431 C460 0.931 . S
H432 C462 0.929 . S
H433 C465 0.929 . S
H434 C466 0.930 . S
H435 C468 0.929 . S
H436 C469 0.931 . S
H437 C471 0.930 . S
H438 C472 0.932 . S
H439 C474 0.931 . S
H440 C475 0.929 . S
H441 C477 0.929 . S
H442 C478 0.931 . S
H443 C480 0.929 . S
N444 C464 1.433 . S
N444 C470 1.435 . S
N444 C476 1.423 . S
H445 C481 0.932 . S
C446 N421 1.433 . S
C446 C447 1.363 . S
C446 C451 1.370 . S
C447 H420 0.929 . S
C447 C446 1.363 . S
C447 C448 1.385 . S
C448 H422 0.930 . S
C448 C447 1.385 . S
C448 C449 1.357 . S
C449 C448 1.357 . S
C449 C450 1.406 . S
C450 H424 0.929 . S
C450 C449 1.406 . S
C450 C451 1.391 . S
C451 H423 0.931 . S
C451 C446 1.370 . S
C451 C450 1.391 . S
C452 N421 1.435 . S
C452 C453 1.358 . S
C452 C457 1.371 . S
C453 H425 0.930 . S
C453 C452 1.358 . S
C453 C454 1.405 . S
C454 H426 0.932 . S
C454 C453 1.405 . S
C454 C455 1.383 . S
C455 C454 1.383 . S
C455 C456 1.393 . S
C456 H428 0.931 . S
C456 C455 1.393 . S
C456 C457 1.382 . S
C457 H427 0.929 . S
C457 C452 1.371 . S
C457 C456 1.382 . S
C458 N421 1.423 . S
C458 C459 1.362 . S
C458 C463 1.388 . S
C459 H429 0.929 . S
C459 C458 1.362 . S
C459 C460 1.376 . S
C460 H431 0.931 . S
C460 C459 1.376 . S
C460 C461 1.396 . S
C461 C460 1.396 . S
C461 C462 1.348 . S
C461 C479 1.472 . S
C462 H432 0.929 . S
C462 C461 1.348 . S
C462 C463 1.443 . S
C463 H430 0.932 . S
C463 C458 1.388 . S
C463 C462 1.443 . S
C464 N444 1.433 . S
C464 C465 1.363 . S
C464 C469 1.370 . S
C465 H433 0.929 . S
C465 C464 1.363 . S
C465 C466 1.385 . S
C466 H434 0.930 . S
C466 C465 1.385 . S
C466 C467 1.357 . S
C467 C466 1.357 . S
C467 C468 1.406 . S
C468 H435 0.929 . S
C468 C467 1.406 . S
C468 C469 1.391 . S
C469 H436 0.931 . S
C469 C464 1.370 . S
C469 C468 1.391 . S
C470 N444 1.435 . S
C470 C471 1.358 . S
C470 C475 1.371 . S
C471 H437 0.930 . S
C471 C470 1.358 . S
C471 C472 1.405 . S
C472 H438 0.932 . S
C472 C471 1.405 . S
C472 C473 1.383 . S
C473 C472 1.383 . S
C473 C474 1.393 . S
C474 H439 0.931 . S
C474 C473 1.393 . S
C474 C475 1.382 . S
C475 H440 0.929 . S
C475 C470 1.371 . S
C475 C474 1.382 . S
C476 N444 1.423 . S
C476 C477 1.362 . S
C476 C481 1.388 . S
C477 H441 0.929 . S
C477 C476 1.362 . S
C477 C478 1.376 . S
C478 H442 0.931 . S
C478 C477 1.376 . S
C478 C479 1.396 . S
C479 C461 1.472 . S
C479 C478 1.396 . S
C479 C480 1.348 . S
C480 H443 0.929 . S
C480 C479 1.348 . S
C480 C481 1.443 . S
C481 H445 0.932 . S
C481 C476 1.388 . S
C481 C480 1.443 . S
H482 C509 0.929 . S
N483 C508 1.433 . S
N483 C514 1.435 . S
N483 C520 1.423 . S
H484 C510 0.930 . S
H485 C513 0.931 . S
H486 C512 0.929 . S
H487 C515 0.930 . S
H488 C516 0.932 . S
H489 C519 0.929 . S
H490 C518 0.931 . S
H491 C521 0.929 . S
H492 C525 0.932 . S
H493 C522 0.931 . S
H494 C524 0.929 . S
H495 C527 0.929 . S
H496 C528 0.930 . S
H497 C530 0.929 . S
H498 C531 0.931 . S
H499 C533 0.930 . S
H500 C534 0.932 . S
H501 C536 0.931 . S
H502 C537 0.929 . S
H503 C539 0.929 . S
H504 C540 0.931 . S
H505 C542 0.929 . S
N506 C526 1.433 . S
N506 C532 1.435 . S
N506 C538 1.423 . S
H507 C543 0.932 . S
C508 N483 1.433 . S
C508 C509 1.363 . S
C508 C513 1.370 . S
C509 H482 0.929 . S
C509 C508 1.363 . S
C509 C510 1.385 . S
C510 H484 0.930 . S
C510 C509 1.385 . S
C510 C511 1.357 . S
C511 C510 1.357 . S
C511 C512 1.406 . S
C512 H486 0.929 . S
C512 C511 1.406 . S
C512 C513 1.391 . S
C513 H485 0.931 . S
C513 C508 1.370 . S
C513 C512 1.391 . S
C514 N483 1.435 . S
C514 C515 1.358 . S
C514 C519 1.371 . S
C515 H487 0.930 . S
C515 C514 1.358 . S
C515 C516 1.405 . S
C516 H488 0.932 . S
C516 C515 1.405 . S
C516 C517 1.383 . S
C517 C516 1.383 . S
C517 C518 1.393 . S
C518 H490 0.931 . S
C518 C517 1.393 . S
C518 C519 1.382 . S
C519 H489 0.929 . S
C519 C514 1.371 . S
C519 C518 1.382 . S
C520 N483 1.423 . S
C520 C521 1.362 . S
C520 C525 1.388 . S
C521 H491 0.929 . S
C521 C520 1.362 . S
C521 C522 1.376 . S
C522 H493 0.931 . S
C522 C521 1.376 . S
C522 C523 1.396 . S
C523 C522 1.396 . S
C523 C524 1.348 . S
C523 C541 1.472 . S
C524 H494 0.929 . S
C524 C523 1.348 . S
C524 C525 1.443 . S
C525 H492 0.932 . S
C525 C520 1.388 . S
C525 C524 1.443 . S
C526 N506 1.433 . S
C526 C527 1.363 . S
C526 C531 1.370 . S
C527 H495 0.929 . S
C527 C526 1.363 . S
C527 C528 1.385 . S
C528 H496 0.930 . S
C528 C527 1.385 . S
C528 C529 1.357 . S
C529 C528 1.357 . S
C529 C530 1.406 . S
C530 H497 0.929 . S
C530 C529 1.406 . S
C530 C531 1.391 . S
C531 H498 0.931 . S
C531 C526 1.370 . S
C531 C530 1.391 . S
C532 N506 1.435 . S
C532 C533 1.358 . S
C532 C537 1.371 . S
C533 H499 0.930 . S
C533 C532 1.358 . S
C533 C534 1.405 . S
C534 H500 0.932 . S
C534 C533 1.405 . S
C534 C535 1.383 . S
C535 C534 1.383 . S
C535 C536 1.393 . S
C536 H501 0.931 . S
C536 C535 1.393 . S
C536 C537 1.382 . S
C537 H502 0.929 . S
C537 C532 1.371 . S
C537 C536 1.382 . S
C538 N506 1.423 . S
C538 C539 1.362 . S
C538 C543 1.388 . S
C539 H503 0.929 . S
C539 C538 1.362 . S
C539 C540 1.376 . S
C540 H504 0.931 . S
C540 C539 1.376 . S
C540 C541 1.396 . S
C541 C523 1.472 . S
C541 C540 1.396 . S
C541 C542 1.348 . S
C542 H505 0.929 . S
C542 C541 1.348 . S
C542 C543 1.443 . S
C543 H507 0.932 . S
C543 C538 1.388 . S
C543 C542 1.443 . S
H544 C571 0.929 . S
N545 C570 1.433 . S
N545 C576 1.435 . S
N545 C582 1.423 . S
H546 C572 0.930 . S
H547 C575 0.931 . S
H548 C574 0.929 . S
H549 C577 0.930 . S
H550 C578 0.932 . S
H551 C581 0.929 . S
H552 C580 0.931 . S
H553 C583 0.929 . S
H554 C587 0.932 . S
H555 C584 0.931 . S
H556 C586 0.929 . S
H557 C589 0.929 . S
H558 C590 0.930 . S
H559 C592 0.929 . S
H560 C593 0.931 . S
H561 C595 0.930 . S
H562 C596 0.932 . S
H563 C598 0.931 . S
H564 C599 0.929 . S
H565 C601 0.929 . S
H566 C602 0.931 . S
H567 C604 0.929 . S
N568 C588 1.433 . S
N568 C594 1.435 . S
N568 C600 1.423 . S
H569 C605 0.932 . S
C570 N545 1.433 . S
C570 C571 1.363 . S
C570 C575 1.370 . S
C571 H544 0.929 . S
C571 C570 1.363 . S
C571 C572 1.385 . S
C572 H546 0.930 . S
C572 C571 1.385 . S
C572 C573 1.357 . S
C573 C572 1.357 . S
C573 C574 1.406 . S
C574 H548 0.929 . S
C574 C573 1.406 . S
C574 C575 1.391 . S
C575 H547 0.931 . S
C575 C570 1.370 . S
C575 C574 1.391 . S
C576 N545 1.435 . S
C576 C577 1.358 . S
C576 C581 1.371 . S
C577 H549 0.930 . S
C577 C576 1.358 . S
C577 C578 1.405 . S
C578 H550 0.932 . S
C578 C577 1.405 . S
C578 C579 1.383 . S
C579 C578 1.383 . S
C579 C580 1.393 . S
C580 H552 0.931 . S
C580 C579 1.393 . S
C580 C581 1.382 . S
C581 H551 0.929 . S
C581 C576 1.371 . S
C581 C580 1.382 . S
C582 N545 1.423 . S
C582 C583 1.362 . S
C582 C587 1.388 . S
C583 H553 0.929 . S
C583 C582 1.362 . S
C583 C584 1.376 . S
C584 H555 0.931 . S
C584 C583 1.376 . S
C584 C585 1.396 . S
C585 C584 1.396 . S
C585 C586 1.348 . S
C585 C603 1.472 . S
C586 H556 0.929 . S
C586 C585 1.348 . S
C586 C587 1.443 . S
C587 H554 0.932 . S
C587 C582 1.388 . S
C587 C586 1.443 . S
C588 N568 1.433 . S
C588 C589 1.363 . S
C588 C593 1.370 . S
C589 H557 0.929 . S
C589 C588 1.363 . S
C589 C590 1.385 . S
C590 H558 0.930 . S
C590 C589 1.385 . S
C590 C591 1.357 . S
C591 C590 1.357 . S
C591 C592 1.406 . S
C592 H559 0.929 . S
C592 C591 1.406 . S
C592 C593 1.391 . S
C593 H560 0.931 . S
C593 C588 1.370 . S
C593 C592 1.391 . S
C594 N568 1.435 . S
C594 C595 1.358 . S
C594 C599 1.371 . S
C595 H561 0.930 . S
C595 C594 1.358 . S
C595 C596 1.405 . S
C596 H562 0.932 . S
C596 C595 1.405 . S
C596 C597 1.383 . S
C597 C596 1.383 . S
C597 C598 1.393 . S
C598 H563 0.931 . S
C598 C597 1.393 . S
C598 C599 1.382 . S
C599 H564 0.929 . S
C599 C594 1.371 . S
C599 C598 1.382 . S
C600 N568 1.423 . S
C600 C601 1.362 . S
C600 C605 1.388 . S
C601 H565 0.929 . S
C601 C600 1.362 . S
C601 C602 1.376 . S
C602 H566 0.931 . S
C602 C601 1.376 . S
C602 C603 1.396 . S
C603 C585 1.472 . S
C603 C602 1.396 . S
C603 C604 1.348 . S
C604 H567 0.929 . S
C604 C603 1.348 . S
C604 C605 1.443 . S
C605 H569 0.932 . S
C605 C600 1.388 . S
C605 C604 1.443 . S
H606 C633 0.929 . S
N607 C632 1.433 . S
N607 C638 1.435 . S
N607 C644 1.423 . S
H608 C634 0.930 . S
H609 C637 0.931 . S
H610 C636 0.929 . S
H611 C639 0.930 . S
H612 C640 0.932 . S
H613 C643 0.929 . S
H614 C642 0.931 . S
H615 C645 0.929 . S
H616 C649 0.932 . S
H617 C646 0.931 . S
H618 C648 0.929 . S
H619 C651 0.929 . S
H620 C652 0.930 . S
H621 C654 0.929 . S
H622 C655 0.931 . S
H623 C657 0.930 . S
H624 C658 0.932 . S
H625 C660 0.931 . S
H626 C661 0.929 . S
H627 C663 0.929 . S
H628 C664 0.931 . S
H629 C666 0.929 . S
N630 C650 1.433 . S
N630 C656 1.435 . S
N630 C662 1.423 . S
H631 C667 0.932 . S
C632 N607 1.433 . S
C632 C633 1.363 . S
C632 C637 1.370 . S
C633 H606 0.929 . S
C633 C632 1.363 . S
C633 C634 1.385 . S
C634 H608 0.930 . S
C634 C633 1.385 . S
C634 C635 1.357 . S
C635 C634 1.357 . S
C635 C636 1.406 . S
C636 H610 0.929 . S
C636 C635 1.406 . S
C636 C637 1.391 . S
C637 H609 0.931 . S
C637 C632 1.370 . S
C637 C636 1.391 . S
C638 N607 1.435 . S
C638 C639 1.358 . S
C638 C643 1.371 . S
C639 H611 0.930 . S
C639 C638 1.358 . S
C639 C640 1.405 . S
C640 H612 0.932 . S
C640 C639 1.405 . S
C640 C641 1.383 . S
C641 C640 1.383 . S
C641 C642 1.393 . S
C642 H614 0.931 . S
C642 C641 1.393 . S
C642 C643 1.382 . S
C643 H613 0.929 . S
C643 C638 1.371 . S
C643 C642 1.382 . S
C644 N607 1.423 . S
C644 C645 1.362 . S
C644 C649 1.388 . S
C645 H615 0.929 . S
C645 C644 1.362 . S
C645 C646 1.376 . S
C646 H617 0.931 . S
C646 C645 1.376 . S
C646 C647 1.396 . S
C647 C646 1.396 . S
C647 C648 1.348 . S
C647 C665 1.472 . S
C648 H618 0.929 . S
C648 C647 1.348 . S
C648 C649 1.443 . S
C649 H616 0.932 . S
C649 C644 1.388 . S
C649 C648 1.443 . S
C650 N630 1.433 . S
C650 C651 1.363 . S
C650 C655 1.370 . S
C651 H619 0.929 . S
C651 C650 1.363 . S
C651 C652 1.385 . S
C652 H620 0.930 . S
C652 C651 1.385 . S
C652 C653 1.357 . S
C653 C652 1.357 . S
C653 C654 1.406 . S
C654 H621 0.929 . S
C654 C653 1.406 . S
C654 C655 1.391 . S
C655 H622 0.931 . S
C655 C650 1.370 . S
C655 C654 1.391 . S
C656 N630 1.435 . S
C656 C657 1.358 . S
C656 C661 1.371 . S
C657 H623 0.930 . S
C657 C656 1.358 . S
C657 C658 1.405 . S
C658 H624 0.932 . S
C658 C657 1.405 . S
C658 C659 1.383 . S
C659 C658 1.383 . S
C659 C660 1.393 . S
C660 H625 0.931 . S
C660 C659 1.393 . S
C660 C661 1.382 . S
C661 H626 0.929 . S
C661 C656 1.371 . S
C661 C660 1.382 . S
C662 N630 1.423 . S
C662 C663 1.362 . S
C662 C667 1.388 . S
C663 H627 0.929 . S
C663 C662 1.362 . S
C663 C664 1.376 . S
C664 H628 0.931 . S
C664 C663 1.376 . S
C664 C665 1.396 . S
C665 C647 1.472 . S
C665 C664 1.396 . S
C665 C666 1.348 . S
C666 H629 0.929 . S
C666 C665 1.348 . S
C666 C667 1.443 . S
C667 H631 0.932 . S
C667 C662 1.388 . S
C667 C666 1.443 . S
H668 C695 0.929 . S
N669 C694 1.433 . S
N669 C700 1.435 . S
N669 C706 1.423 . S
H670 C696 0.930 . S
H671 C699 0.931 . S
H672 C698 0.929 . S
H673 C701 0.930 . S
H674 C702 0.932 . S
H675 C705 0.929 . S
H676 C704 0.931 . S
H677 C707 0.929 . S
H678 C711 0.932 . S
H679 C708 0.931 . S
H680 C710 0.929 . S
H681 C713 0.929 . S
H682 C714 0.930 . S
H683 C716 0.929 . S
H684 C717 0.931 . S
H685 C719 0.930 . S
H686 C720 0.932 . S
H687 C722 0.931 . S
H688 C723 0.929 . S
H689 C725 0.929 . S
H690 C726 0.931 . S
H691 C728 0.929 . S
N692 C712 1.433 . S
N692 C718 1.435 . S
N692 C724 1.423 . S
H693 C729 0.932 . S
C694 N669 1.433 . S
C694 C695 1.363 . S
C694 C699 1.370 . S
C695 H668 0.929 . S
C695 C694 1.363 . S
C695 C696 1.385 . S
C696 H670 0.930 . S
C696 C695 1.385 . S
C696 C697 1.357 . S
C697 C696 1.357 . S
C697 C698 1.406 . S
C698 H672 0.929 . S
C698 C697 1.406 . S
C698 C699 1.391 . S
C699 H671 0.931 . S
C699 C694 1.370 . S
C699 C698 1.391 . S
C700 N669 1.435 . S
C700 C701 1.358 . S
C700 C705 1.371 . S
C701 H673 0.930 . S
C701 C700 1.358 . S
C701 C702 1.405 . S
C702 H674 0.932 . S
C702 C701 1.405 . S
C702 C703 1.383 . S
C703 C702 1.383 . S
C703 C704 1.393 . S
C704 H676 0.931 . S
C704 C703 1.393 . S
C704 C705 1.382 . S
C705 H675 0.929 . S
C705 C700 1.371 . S
C705 C704 1.382 . S
C706 N669 1.423 . S
C706 C707 1.362 . S
C706 C711 1.388 . S
C707 H677 0.929 . S
C707 C706 1.362 . S
C707 C708 1.376 . S
C708 H679 0.931 . S
C708 C707 1.376 . S
C708 C709 1.396 . S
C709 C708 1.396 . S
C709 C710 1.348 . S
C709 C727 1.472 . S
C710 H680 0.929 . S
C710 C709 1.348 . S
C710 C711 1.443 . S
C711 H678 0.932 . S
C711 C706 1.388 . S
C711 C710 1.443 . S
C712 N692 1.433 . S
C712 C713 1.363 . S
C712 C717 1.370 . S
C713 H681 0.929 . S
C713 C712 1.363 . S
C713 C714 1.385 . S
C714 H682 0.930 . S
C714 C713 1.385 . S
C714 C715 1.357 . S
C715 C714 1.357 . S
C715 C716 1.406 . S
C716 H683 0.929 . S
C716 C715 1.406 . S
C716 C717 1.391 . S
C717 H684 0.931 . S
C717 C712 1.370 . S
C717 C716 1.391 . S
C718 N692 1.435 . S
C718 C719 1.358 . S
C718 C723 1.371 . S
C719 H685 0.930 . S
C719 C718 1.358 . S
C719 C720 1.405 . S
C720 H686 0.932 . S
C720 C719 1.405 . S
C720 C721 1.383 . S
C721 C720 1.383 . S
C721 C722 1.393 . S
C722 H687 0.931 . S
C722 C721 1.393 . S
C722 C723 1.382 . S
C723 H688 0.929 . S
C723 C718 1.371 . S
C723 C722 1.382 . S
C724 N692 1.423 . S
C724 C725 1.362 . S
C724 C729 1.388 . S
C725 H689 0.929 . S
C725 C724 1.362 . S
C725 C726 1.376 . S
C726 H690 0.931 . S
C726 C725 1.376 . S
C726 C727 1.396 . S
C727 C709 1.472 . S
C727 C726 1.396 . S
C727 C728 1.348 . S
C728 H691 0.929 . S
C728 C727 1.348 . S
C728 C729 1.443 . S
C729 H693 0.932 . S
C729 C724 1.388 . S
C729 C728 1.443 . S
H730 C757 0.929 . S
N731 C756 1.433 . S
N731 C762 1.435 . S
N731 C768 1.423 . S
H732 C758 0.930 . S
H733 C761 0.931 . S
H734 C760 0.929 . S
H735 C763 0.930 . S
H736 C764 0.932 . S
H737 C767 0.929 . S
H738 C766 0.931 . S
H739 C769 0.929 . S
H740 C773 0.932 . S
H741 C770 0.931 . S
H742 C772 0.929 . S
H743 C775 0.929 . S
H744 C776 0.930 . S
H745 C778 0.929 . S
H746 C779 0.931 . S
H747 C781 0.930 . S
H748 C782 0.932 . S
H749 C784 0.931 . S
H750 C785 0.929 . S
H751 C787 0.929 . S
H752 C788 0.931 . S
H753 C790 0.929 . S
N754 C774 1.433 . S
N754 C780 1.435 . S
N754 C786 1.423 . S
H755 C791 0.932 . S
C756 N731 1.433 . S
C756 C757 1.363 . S
C756 C761 1.370 . S
C757 H730 0.929 . S
C757 C756 1.363 . S
C757 C758 1.385 . S
C758 H732 0.930 . S
C758 C757 1.385 . S
C758 C759 1.357 . S
C759 C758 1.357 . S
C759 C760 1.406 . S
C760 H734 0.929 . S
C760 C759 1.406 . S
C760 C761 1.391 . S
C761 H733 0.931 . S
C761 C756 1.370 . S
C761 C760 1.391 . S
C762 N731 1.435 . S
C762 C763 1.358 . S
C762 C767 1.371 . S
C763 H735 0.930 . S
C763 C762 1.358 . S
C763 C764 1.405 . S
C764 H736 0.932 . S
C764 C763 1.405 . S
C764 C765 1.383 . S
C765 C764 1.383 . S
C765 C766 1.393 . S
C766 H738 0.931 . S
C766 C765 1.393 . S
C766 C767 1.382 . S
C767 H737 0.929 . S
C767 C762 1.371 . S
C767 C766 1.382 . S
C768 N731 1.423 . S
C768 C769 1.362 . S
C768 C773 1.388 . S
C769 H739 0.929 . S
C769 C768 1.362 . S
C769 C770 1.376 . S
C770 H741 0.931 . S
C770 C769 1.376 . S
C770 C771 1.396 . S
C771 C770 1.396 . S
C771 C772 1.348 . S
C771 C789 1.472 . S
C772 H742 0.929 . S
C772 C771 1.348 . S
C772 C773 1.443 . S
C773 H740 0.932 . S
C773 C768 1.388 . S
C773 C772 1.443 . S
C774 N754 1.433 . S
C774 C775 1.363 . S
C774 C779 1.370 . S
C775 H743 0.929 . S
C775 C774 1.363 . S
C775 C776 1.385 . S
C776 H744 0.930 . S
C776 C775 1.385 . S
C776 C777 1.357 . S
C777 C776 1.357 . S
C777 C778 1.406 . S
C778 H745 0.929 . S
C778 C777 1.406 . S
C778 C779 1.391 . S
C779 H746 0.931 . S
C779 C774 1.370 . S
C779 C778 1.391 . S
C780 N754 1.435 . S
C780 C781 1.358 . S
C780 C785 1.371 . S
C781 H747 0.930 . S
C781 C780 1.358 . S
C781 C782 1.405 . S
C782 H748 0.932 . S
C782 C781 1.405 . S
C782 C783 1.383 . S
C783 C782 1.383 . S
C783 C784 1.393 . S
C784 H749 0.931 . S
C784 C783 1.393 . S
C784 C785 1.382 . S
C785 H750 0.929 . S
C785 C780 1.371 . S
C785 C784 1.382 . S
C786 N754 1.423 . S
C786 C787 1.362 . S
C786 C791 1.388 . S
C787 H751 0.929 . S
C787 C786 1.362 . S
C787 C788 1.376 . S
C788 H752 0.931 . S
C788 C787 1.376 . S
C788 C789 1.396 . S
C789 C771 1.472 . S
C789 C788 1.396 . S
C789 C790 1.348 . S
C790 H753 0.929 . S
C790 C789 1.348 . S
C790 C791 1.443 . S
C791 H755 0.932 . S
C791 C786 1.388 . S
C791 C790 1.443 . S
H792 C819 0.929 . S
N793 C818 1.433 . S
N793 C824 1.435 . S
N793 C830 1.423 . S
H794 C820 0.930 . S
H795 C823 0.931 . S
H796 C822 0.929 . S
H797 C825 0.930 . S
H798 C826 0.932 . S
H799 C829 0.929 . S
H800 C828 0.931 . S
H801 C831 0.929 . S
H802 C835 0.932 . S
H803 C832 0.931 . S
H804 C834 0.929 . S
H805 C837 0.929 . S
H806 C838 0.930 . S
H807 C840 0.929 . S
H808 C841 0.931 . S
H809 C843 0.930 . S
H810 C844 0.932 . S
H811 C846 0.931 . S
H812 C847 0.929 . S
H813 C849 0.929 . S
H814 C850 0.931 . S
H815 C852 0.929 . S
N816 C836 1.433 . S
N816 C842 1.435 . S
N816 C848 1.423 . S
H817 C853 0.932 . S
C818 N793 1.433 . S
C818 C819 1.363 . S
C818 C823 1.370 . S
C819 H792 0.929 . S
C819 C818 1.363 . S
C819 C820 1.385 . S
C820 H794 0.930 . S
C820 C819 1.385 . S
C820 C821 1.357 . S
C821 C820 1.357 . S
C821 C822 1.406 . S
C822 H796 0.929 . S
C822 C821 1.406 . S
C822 C823 1.391 . S
C823 H795 0.931 . S
C823 C818 1.370 . S
C823 C822 1.391 . S
C824 N793 1.435 . S
C824 C825 1.358 . S
C824 C829 1.371 . S
C825 H797 0.930 . S
C825 C824 1.358 . S
C825 C826 1.405 . S
C826 H798 0.932 . S
C826 C825 1.405 . S
C826 C827 1.383 . S
C827 C826 1.383 . S
C827 C828 1.393 . S
C828 H800 0.931 . S
C828 C827 1.393 . S
C828 C829 1.382 . S
C829 H799 0.929 . S
C829 C824 1.371 . S
C829 C828 1.382 . S
C830 N793 1.423 . S
C830 C831 1.362 . S
C830 C835 1.388 . S
C831 H801 0.929 . S
C831 C830 1.362 . S
C831 C832 1.376 . S
C832 H803 0.931 . S
C832 C831 1.376 . S
C832 C833 1.396 . S
C833 C832 1.396 . S
C833 C834 1.348 . S
C833 C851 1.472 . S
C834 H804 0.929 . S
C834 C833 1.348 . S
C834 C835 1.443 . S
C835 H802 0.932 . S
C835 C830 1.388 . S
C835 C834 1.443 . S
C836 N816 1.433 . S
C836 C837 1.363 . S
C836 C841 1.370 . S
C837 H805 0.929 . S
C837 C836 1.363 . S
C837 C838 1.385 . S
C838 H806 0.930 . S
C838 C837 1.385 . S
C838 C839 1.357 . S
C839 C838 1.357 . S
C839 C840 1.406 . S
C840 H807 0.929 . S
C840 C839 1.406 . S
C840 C841 1.391 . S
C841 H808 0.931 . S
C841 C836 1.370 . S
C841 C840 1.391 . S
C842 N816 1.435 . S
C842 C843 1.358 . S
C842 C847 1.371 . S
C843 H809 0.930 . S
C843 C842 1.358 . S
C843 C844 1.405 . S
C844 H810 0.932 . S
C844 C843 1.405 . S
C844 C845 1.383 . S
C845 C844 1.383 . S
C845 C846 1.393 . S
C846 H811 0.931 . S
C846 C845 1.393 . S
C846 C847 1.382 . S
C847 H812 0.929 . S
C847 C842 1.371 . S
C847 C846 1.382 . S
C848 N816 1.423 . S
C848 C849 1.362 . S
C848 C853 1.388 . S
C849 H813 0.929 . S
C849 C848 1.362 . S
C849 C850 1.376 . S
C850 H814 0.931 . S
C850 C849 1.376 . S
C850 C851 1.396 . S
C851 C833 1.472 . S
C851 C850 1.396 . S
C851 C852 1.348 . S
C852 H815 0.929 . S
C852 C851 1.348 . S
C852 C853 1.443 . S
C853 H817 0.932 . S
C853 C848 1.388 . S
C853 C852 1.443 . S
H854 C881 0.929 . S
N855 C880 1.433 . S
N855 C886 1.435 . S
N855 C892 1.423 . S
H856 C882 0.930 . S
H857 C885 0.931 . S
H858 C884 0.929 . S
H859 C887 0.930 . S
H860 C888 0.932 . S
H861 C891 0.929 . S
H862 C890 0.931 . S
H863 C893 0.929 . S
H864 C897 0.932 . S
H865 C894 0.931 . S
H866 C896 0.929 . S
H867 C899 0.929 . S
H868 C900 0.930 . S
H869 C902 0.929 . S
H870 C903 0.931 . S
H871 C905 0.930 . S
H872 C906 0.932 . S
H873 C908 0.931 . S
H874 C909 0.929 . S
H875 C911 0.929 . S
H876 C912 0.931 . S
H877 C914 0.929 . S
N878 C898 1.433 . S
N878 C904 1.435 . S
N878 C910 1.423 . S
H879 C915 0.932 . S
C880 N855 1.433 . S
C880 C881 1.363 . S
C880 C885 1.370 . S
C881 H854 0.929 . S
C881 C880 1.363 . S
C881 C882 1.385 . S
C882 H856 0.930 . S
C882 C881 1.385 . S
C882 C883 1.357 . S
C883 C882 1.357 . S
C883 C884 1.406 . S
C884 H858 0.929 . S
C884 C883 1.406 . S
C884 C885 1.391 . S
C885 H857 0.931 . S
C885 C880 1.370 . S
C885 C884 1.391 . S
C886 N855 1.435 . S
C886 C887 1.358 . S
C886 C891 1.371 . S
C887 H859 0.930 . S
C887 C886 1.358 . S
C887 C888 1.405 . S
C888 H860 0.932 . S
C888 C887 1.405 . S
C888 C889 1.383 . S
C889 C888 1.383 . S
C889 C890 1.393 . S
C890 H862 0.931 . S
C890 C889 1.393 . S
C890 C891 1.382 . S
C891 H861 0.929 . S
C891 C886 1.371 . S
C891 C890 1.382 . S
C892 N855 1.423 . S
C892 C893 1.362 . S
C892 C897 1.388 . S
C893 H863 0.929 . S
C893 C892 1.362 . S
C893 C894 1.376 . S
C894 H865 0.931 . S
C894 C893 1.376 . S
C894 C895 1.396 . S
C895 C894 1.396 . S
C895 C896 1.348 . S
C895 C913 1.472 . S
C896 H866 0.929 . S
C896 C895 1.348 . S
C896 C897 1.443 . S
C897 H864 0.932 . S
C897 C892 1.388 . S
C897 C896 1.443 . S
C898 N878 1.433 . S
C898 C899 1.363 . S
C898 C903 1.370 . S
C899 H867 0.929 . S
C899 C898 1.363 . S
C899 C900 1.385 . S
C900 H868 0.930 . S
C900 C899 1.385 . S
C900 C901 1.357 . S
C901 C900 1.357 . S
C901 C902 1.406 . S
C902 H869 0.929 . S
C902 C901 1.406 . S
C902 C903 1.391 . S
C903 H870 0.931 . S
C903 C898 1.370 . S
C903 C902 1.391 . S
C904 N878 1.435 . S
C904 C905 1.358 . S
C904 C909 1.371 . S
C905 H871 0.930 . S
C905 C904 1.358 . S
C905 C906 1.405 . S
C906 H872 0.932 . S
C906 C905 1.405 . S
C906 C907 1.383 . S
C907 C906 1.383 . S
C907 C908 1.393 . S
C908 H873 0.931 . S
C908 C907 1.393 . S
C908 C909 1.382 . S
C909 H874 0.929 . S
C909 C904 1.371 . S
C909 C908 1.382 . S
C910 N878 1.423 . S
C910 C911 1.362 . S
C910 C915 1.388 . S
C911 H875 0.929 . S
C911 C910 1.362 . S
C911 C912 1.376 . S
C912 H876 0.931 . S
C912 C911 1.376 . S
C912 C913 1.396 . S
C913 C895 1.472 . S
C913 C912 1.396 . S
C913 C914 1.348 . S
C914 H877 0.929 . S
C914 C913 1.348 . S
C914 C915 1.443 . S
C915 H879 0.932 . S
C915 C910 1.388 . S
C915 C914 1.443 . S
H916 C943 0.929 . S
N917 C942 1.433 . S
N917 C948 1.435 . S
N917 C954 1.423 . S
H918 C944 0.930 . S
H919 C947 0.931 . S
H920 C946 0.929 . S
H921 C949 0.930 . S
H922 C950 0.932 . S
H923 C953 0.929 . S
H924 C952 0.931 . S
H925 C955 0.929 . S
H926 C959 0.932 1_545 S
H927 C956 0.931 . S
H928 C958 0.976 . S
H929 C961 0.929 . S
H930 C962 0.930 . S
H931 C964 0.929 . S
H932 C965 0.931 . S
H933 C967 0.930 . S
H934 C968 0.932 . S
H935 C970 0.931 . S
H936 C971 0.929 . S
H937 C973 0.929 . S
H938 C974 0.931 . S
H939 C976 0.939 . S
N940 C960 1.433 . S
N940 C966 1.435 . S
N940 C972 1.423 . S
H941 C977 0.932 1_545 S
C942 N917 1.433 . S
C942 C943 1.363 . S
C942 C947 1.370 1_565 S
C943 H916 0.929 . S
C943 C942 1.363 . S
C943 C944 1.385 . S
C944 H918 0.930 . S
C944 C943 1.385 . S
C944 C945 1.357 1_565 S
C945 C944 1.357 1_545 S
C945 C946 1.406 . S
C946 H920 0.929 . S
C946 C945 1.406 . S
C946 C947 1.391 . S
C947 H919 0.931 . S
C947 C942 1.370 1_545 S
C947 C946 1.391 . S
C948 N917 1.435 . S
C948 C949 1.358 1_565 S
C948 C953 1.371 . S
C949 H921 0.930 . S
C949 C948 1.358 1_545 S
C949 C950 1.405 . S
C950 H922 0.932 . S
C950 C949 1.405 . S
C950 C951 1.383 1_545 S
C951 C950 1.383 1_565 S
C951 C952 1.393 . S
C952 H924 0.931 . S
C952 C951 1.393 . S
C952 C953 1.382 . S
C953 H923 0.929 . S
C953 C948 1.371 . S
C953 C952 1.382 . S
C954 N917 1.423 . S
C954 C955 1.362 . S
C954 C959 1.388 . S
C955 H925 0.929 . S
C955 C954 1.362 . S
C955 C956 1.376 . S
C956 H927 0.931 . S
C956 C955 1.376 . S
C956 C957 1.396 . S
C957 C956 1.396 . S
C957 C958 1.348 . S
C957 C975 1.472 . S
C958 H928 0.976 . S
C958 C957 1.348 . S
C958 C959 1.443 . S
C959 H926 0.932 1_565 S
C959 C954 1.388 . S
C959 C958 1.443 . S
C960 N940 1.433 . S
C960 C961 1.363 . S
C960 C965 1.370 1_565 S
C961 H929 0.929 . S
C961 C960 1.363 . S
C961 C962 1.385 . S
C962 H930 0.930 . S
C962 C961 1.385 . S
C962 C963 1.357 1_565 S
C963 C962 1.357 1_545 S
C963 C964 1.406 . S
C964 H931 0.929 . S
C964 C963 1.406 . S
C964 C965 1.391 . S
C965 H932 0.931 . S
C965 C960 1.370 1_545 S
C965 C964 1.391 . S
C966 N940 1.435 . S
C966 C967 1.358 1_565 S
C966 C971 1.371 . S
C967 H933 0.930 . S
C967 C966 1.358 1_545 S
C967 C968 1.405 . S
C968 H934 0.932 . S
C968 C967 1.405 . S
C968 C969 1.383 1_545 S
C969 C968 1.383 1_565 S
C969 C970 1.393 . S
C970 H935 0.931 . S
C970 C969 1.393 . S
C970 C971 1.382 . S
C971 H936 0.929 . S
C971 C966 1.371 . S
C971 C970 1.382 . S
C972 N940 1.423 . S
C972 C973 1.362 . S
C972 C977 1.388 . S
C973 H937 0.929 . S
C973 C972 1.362 . S
C973 C974 1.376 . S
C974 H938 0.931 . S
C974 C973 1.376 . S
C974 C975 1.396 . S
C975 C957 1.472 . S
C975 C974 1.396 . S
C975 C976 1.348 . S
C976 H939 0.939 . S
C976 C975 1.348 . S
C976 C977 1.443 . S
C977 H941 0.932 1_565 S
C977 C972 1.388 . S
C977 C976 1.443 . S
H978 C1005 0.929 . S
N979 C1004 1.433 . S
N979 C1010 1.435 . S
N979 C1016 1.423 . S
H980 C1006 0.930 . S
H981 C1009 0.931 . S
H982 C1008 0.929 . S
H983 C1011 0.930 . S
H984 C1012 0.932 . S
H985 C1015 0.929 . S
H986 C1014 0.931 . S
H987 C1017 0.909 1_565 S
H988 C1021 0.932 . S
H989 C1018 0.931 1_565 S
H990 C1020 0.929 . S
H991 C1023 0.929 . S
H992 C1024 0.930 . S
H993 C1026 0.929 . S
H994 C1027 0.931 . S
H995 C1029 0.930 . S
H996 C1030 0.932 . S
H997 C1032 0.931 . S
H998 C1033 0.929 . S
H999 C1035 0.858 1_565 S
H1000 C1036 0.931 1_565 S
H1001 C1038 0.929 . S
N1002 C1022 1.433 . S
N1002 C1028 1.435 . S
N1002 C1034 1.423 . S
H1003 C1039 0.932 . S
C1004 N979 1.433 . S
C1004 C1005 1.363 . S
C1004 C1009 1.370 . S
C1005 H978 0.929 . S
C1005 C1004 1.363 . S
C1005 C1006 1.385 . S
C1006 H980 0.930 . S
C1006 C1005 1.385 . S
C1006 C1007 1.357 . S
C1007 C1006 1.357 . S
C1007 C1008 1.406 . S
C1008 H982 0.929 . S
C1008 C1007 1.406 . S
C1008 C1009 1.391 . S
C1009 H981 0.931 . S
C1009 C1004 1.370 . S
C1009 C1008 1.391 . S
C1010 N979 1.435 . S
C1010 C1011 1.358 . S
C1010 C1015 1.371 . S
C1011 H983 0.930 . S
C1011 C1010 1.358 . S
C1011 C1012 1.405 . S
C1012 H984 0.932 . S
C1012 C1011 1.405 . S
C1012 C1013 1.383 . S
C1013 C1012 1.383 . S
C1013 C1014 1.393 . S
C1014 H986 0.931 . S
C1014 C1013 1.393 . S
C1014 C1015 1.382 . S
C1015 H985 0.929 . S
C1015 C1010 1.371 . S
C1015 C1014 1.382 . S
C1016 N979 1.423 . S
C1016 C1017 1.362 . S
C1016 C1021 1.388 . S
C1017 H987 0.909 1_545 S
C1017 C1016 1.362 . S
C1017 C1018 1.376 . S
C1018 H989 0.931 1_545 S
C1018 C1017 1.376 . S
C1018 C1019 1.396 . S
C1019 C1018 1.396 . S
C1019 C1020 1.348 . S
C1019 C1037 1.472 . S
C1020 H990 0.929 . S
C1020 C1019 1.348 . S
C1020 C1021 1.443 . S
C1021 H988 0.932 . S
C1021 C1016 1.388 . S
C1021 C1020 1.443 . S
C1022 N1002 1.433 . S
C1022 C1023 1.363 . S
C1022 C1027 1.370 . S
C1023 H991 0.929 . S
C1023 C1022 1.363 . S
C1023 C1024 1.385 . S
C1024 H992 0.930 . S
C1024 C1023 1.385 . S
C1024 C1025 1.357 . S
C1025 C1024 1.357 . S
C1025 C1026 1.406 . S
C1026 H993 0.929 . S
C1026 C1025 1.406 . S
C1026 C1027 1.391 . S
C1027 H994 0.931 . S
C1027 C1022 1.370 . S
C1027 C1026 1.391 . S
C1028 N1002 1.435 . S
C1028 C1029 1.358 . S
C1028 C1033 1.371 . S
C1029 H995 0.930 . S
C1029 C1028 1.358 . S
C1029 C1030 1.405 . S
C1030 H996 0.932 . S
C1030 C1029 1.405 . S
C1030 C1031 1.383 . S
C1031 C1030 1.383 . S
C1031 C1032 1.393 . S
C1032 H997 0.931 . S
C1032 C1031 1.393 . S
C1032 C1033 1.382 . S
C1033 H998 0.929 . S
C1033 C1028 1.371 . S
C1033 C1032 1.382 . S
C1034 N1002 1.423 . S
C1034 C1035 1.362 . S
C1034 C1039 1.388 . S
C1035 H999 0.858 1_545 S
C1035 C1034 1.362 . S
C1035 C1036 1.376 . S
C1036 H1000 0.931 1_545 S
C1036 C1035 1.376 . S
C1036 C1037 1.396 . S
C1037 C1019 1.472 . S
C1037 C1036 1.396 . S
C1037 C1038 1.348 . S
C1038 H1001 0.929 . S
C1038 C1037 1.348 . S
C1038 C1039 1.443 . S
C1039 H1003 0.932 . S
C1039 C1034 1.388 . S
C1039 C1038 1.443 . S
H1040 C1067 0.929 . S
N1041 C1066 1.433 . S
N1041 C1072 1.435 . S
N1041 C1078 1.423 . S
H1042 C1068 0.930 . S
H1043 C1071 0.931 . S
H1044 C1070 0.929 . S
H1045 C1073 0.930 . S
H1046 C1074 0.932 . S
H1047 C1077 0.929 . S
H1048 C1076 0.931 . S
H1049 C1079 0.929 . S
H1050 C1083 0.932 1_455 S
H1051 C1080 0.931 . S
H1052 C1082 0.975 . S
H1053 C1085 0.929 . S
H1054 C1086 0.930 . S
H1055 C1088 0.929 . S
H1056 C1089 0.931 . S
H1057 C1091 0.930 . S
H1058 C1092 0.932 . S
H1059 C1094 0.931 . S
H1060 C1095 0.929 . S
H1061 C1097 0.929 . S
H1062 C1098 0.931 . S
H1063 C1100 0.939 . S
N1064 C1084 1.433 . S
N1064 C1090 1.435 . S
N1064 C1096 1.423 . S
H1065 C1101 0.932 1_455 S
C1066 N1041 1.433 . S
C1066 C1067 1.363 . S
C1066 C1071 1.370 1_655 S
C1067 H1040 0.929 . S
C1067 C1066 1.363 . S
C1067 C1068 1.385 . S
C1068 H1042 0.930 . S
C1068 C1067 1.385 . S
C1068 C1069 1.357 1_655 S
C1069 C1068 1.357 1_455 S
C1069 C1070 1.406 . S
C1070 H1044 0.929 . S
C1070 C1069 1.406 . S
C1070 C1071 1.391 . S
C1071 H1043 0.931 . S
C1071 C1066 1.370 1_455 S
C1071 C1070 1.391 . S
C1072 N1041 1.435 . S
C1072 C1073 1.358 1_655 S
C1072 C1077 1.371 . S
C1073 H1045 0.930 . S
C1073 C1072 1.358 1_455 S
C1073 C1074 1.405 . S
C1074 H1046 0.932 . S
C1074 C1073 1.405 . S
C1074 C1075 1.383 1_455 S
C1075 C1074 1.383 1_655 S
C1075 C1076 1.393 . S
C1076 H1048 0.931 . S
C1076 C1075 1.393 . S
C1076 C1077 1.382 . S
C1077 H1047 0.929 . S
C1077 C1072 1.371 . S
C1077 C1076 1.382 . S
C1078 N1041 1.423 . S
C1078 C1079 1.362 . S
C1078 C1083 1.388 . S
C1079 H1049 0.929 . S
C1079 C1078 1.362 . S
C1079 C1080 1.376 . S
C1080 H1051 0.931 . S
C1080 C1079 1.376 . S
C1080 C1081 1.396 . S
C1081 C1080 1.396 . S
C1081 C1082 1.348 . S
C1081 C1099 1.472 . S
C1082 H1052 0.975 . S
C1082 C1081 1.348 . S
C1082 C1083 1.443 . S
C1083 H1050 0.932 1_655 S
C1083 C1078 1.388 . S
C1083 C1082 1.443 . S
C1084 N1064 1.433 . S
C1084 C1085 1.363 . S
C1084 C1089 1.370 1_655 S
C1085 H1053 0.929 . S
C1085 C1084 1.363 . S
C1085 C1086 1.385 . S
C1086 H1054 0.930 . S
C1086 C1085 1.385 . S
C1086 C1087 1.357 1_655 S
C1087 C1086 1.357 1_455 S
C1087 C1088 1.406 . S
C1088 H1055 0.929 . S
C1088 C1087 1.406 . S
C1088 C1089 1.391 . S
C1089 H1056 0.931 . S
C1089 C1084 1.370 1_455 S
C1089 C1088 1.391 . S
C1090 N1064 1.435 . S
C1090 C1091 1.358 1_655 S
C1090 C1095 1.371 . S
C1091 H1057 0.930 . S
C1091 C1090 1.358 1_455 S
C1091 C1092 1.405 . S
C1092 H1058 0.932 . S
C1092 C1091 1.405 . S
C1092 C1093 1.383 1_455 S
C1093 C1092 1.383 1_655 S
C1093 C1094 1.393 . S
C1094 H1059 0.931 . S
C1094 C1093 1.393 . S
C1094 C1095 1.382 . S
C1095 H1060 0.929 . S
C1095 C1090 1.371 . S
C1095 C1094 1.382 . S
C1096 N1064 1.423 . S
C1096 C1097 1.362 . S
C1096 C1101 1.388 . S
C1097 H1061 0.929 . S
C1097 C1096 1.362 . S
C1097 C1098 1.376 . S
C1098 H1062 0.931 . S
C1098 C1097 1.376 . S
C1098 C1099 1.396 . S
C1099 C1081 1.472 . S
C1099 C1098 1.396 . S
C1099 C1100 1.348 . S
C1100 H1063 0.939 . S
C1100 C1099 1.348 . S
C1100 C1101 1.443 . S
C1101 H1065 0.932 1_655 S
C1101 C1096 1.388 . S
C1101 C1100 1.443 . S
H1102 C1129 0.929 . S
N1103 C1128 1.433 . S
N1103 C1134 1.435 . S
N1103 C1140 1.423 . S
H1104 C1130 0.930 . S
H1105 C1133 0.931 . S
H1106 C1132 0.929 . S
H1107 C1135 0.930 . S
H1108 C1136 0.932 . S
H1109 C1139 0.929 . S
H1110 C1138 0.931 . S
H1111 C1141 0.929 . S
H1112 C1145 0.932 . S
H1113 C1142 0.931 . S
H1114 C1144 0.929 . S
H1115 C1147 0.929 . S
H1116 C1148 0.930 . S
H1117 C1150 0.929 . S
H1118 C1151 0.931 . S
H1119 C1153 0.930 . S
H1120 C1154 0.932 . S
H1121 C1156 0.931 . S
H1122 C1157 0.929 . S
H1123 C1159 0.929 . S
H1124 C1160 0.931 . S
H1125 C1162 0.929 . S
N1126 C1146 1.433 . S
N1126 C1152 1.435 . S
N1126 C1158 1.423 . S
H1127 C1163 0.932 . S
C1128 N1103 1.433 . S
C1128 C1129 1.363 . S
C1128 C1133 1.370 . S
C1129 H1102 0.929 . S
C1129 C1128 1.363 . S
C1129 C1130 1.385 . S
C1130 H1104 0.930 . S
C1130 C1129 1.385 . S
C1130 C1131 1.357 . S
C1131 C1130 1.357 . S
C1131 C1132 1.406 . S
C1132 H1106 0.929 . S
C1132 C1131 1.406 . S
C1132 C1133 1.391 . S
C1133 H1105 0.931 . S
C1133 C1128 1.370 . S
C1133 C1132 1.391 . S
C1134 N1103 1.435 . S
C1134 C1135 1.358 . S
C1134 C1139 1.371 . S
C1135 H1107 0.930 . S
C1135 C1134 1.358 . S
C1135 C1136 1.405 . S
C1136 H1108 0.932 . S
C1136 C1135 1.405 . S
C1136 C1137 1.383 . S
C1137 C1136 1.383 . S
C1137 C1138 1.393 . S
C1138 H1110 0.931 . S
C1138 C1137 1.393 . S
C1138 C1139 1.382 . S
C1139 H1109 0.929 . S
C1139 C1134 1.371 . S
C1139 C1138 1.382 . S
C1140 N1103 1.423 . S
C1140 C1141 1.362 . S
C1140 C1145 1.388 . S
C1141 H1111 0.929 . S
C1141 C1140 1.362 . S
C1141 C1142 1.376 . S
C1142 H1113 0.931 . S
C1142 C1141 1.376 . S
C1142 C1143 1.396 . S
C1143 C1142 1.396 . S
C1143 C1144 1.348 . S
C1143 C1161 1.472 . S
C1144 H1114 0.929 . S
C1144 C1143 1.348 . S
C1144 C1145 1.443 . S
C1145 H1112 0.932 . S
C1145 C1140 1.388 . S
C1145 C1144 1.443 . S
C1146 N1126 1.433 . S
C1146 C1147 1.363 . S
C1146 C1151 1.370 . S
C1147 H1115 0.929 . S
C1147 C1146 1.363 . S
C1147 C1148 1.385 . S
C1148 H1116 0.930 . S
C1148 C1147 1.385 . S
C1148 C1149 1.357 . S
C1149 C1148 1.357 . S
C1149 C1150 1.406 . S
C1150 H1117 0.929 . S
C1150 C1149 1.406 . S
C1150 C1151 1.391 . S
C1151 H1118 0.931 . S
C1151 C1146 1.370 . S
C1151 C1150 1.391 . S
C1152 N1126 1.435 . S
C1152 C1153 1.358 . S
C1152 C1157 1.371 . S
C1153 H1119 0.930 . S
C1153 C1152 1.358 . S
C1153 C1154 1.405 . S
C1154 H1120 0.932 . S
C1154 C1153 1.405 . S
C1154 C1155 1.383 . S
C1155 C1154 1.383 . S
C1155 C1156 1.393 . S
C1156 H1121 0.931 . S
C1156 C1155 1.393 . S
C1156 C1157 1.382 . S
C1157 H1122 0.929 . S
C1157 C1152 1.371 . S
C1157 C1156 1.382 . S
C1158 N1126 1.423 . S
C1158 C1159 1.362 . S
C1158 C1163 1.388 . S
C1159 H1123 0.929 . S
C1159 C1158 1.362 . S
C1159 C1160 1.376 . S
C1160 H1124 0.931 . S
C1160 C1159 1.376 . S
C1160 C1161 1.396 . S
C1161 C1143 1.472 . S
C1161 C1160 1.396 . S
C1161 C1162 1.348 . S
C1162 H1125 0.929 . S
C1162 C1161 1.348 . S
C1162 C1163 1.443 . S
C1163 H1127 0.932 . S
C1163 C1158 1.388 . S
C1163 C1162 1.443 . S
H1164 C1191 0.929 . S
N1165 C1190 1.433 . S
N1165 C1196 1.435 . S
N1165 C1202 1.423 . S
H1166 C1192 0.930 . S
H1167 C1195 0.931 . S
H1168 C1194 0.929 . S
H1169 C1197 0.930 . S
H1170 C1198 0.932 . S
H1171 C1201 0.929 . S
H1172 C1200 0.931 . S
H1173 C1203 0.929 . S
H1174 C1207 0.932 . S
H1175 C1204 0.931 . S
H1176 C1206 0.929 . S
H1177 C1209 0.929 . S
H1178 C1210 0.930 . S
H1179 C1212 0.929 . S
H1180 C1213 0.931 . S
H1181 C1215 0.930 . S
H1182 C1216 0.932 . S
H1183 C1218 0.931 . S
H1184 C1219 0.929 . S
H1185 C1221 0.929 . S
H1186 C1222 0.931 . S
H1187 C1224 0.929 . S
N1188 C1208 1.433 . S
N1188 C1214 1.435 . S
N1188 C1220 1.423 . S
H1189 C1225 0.932 . S
C1190 N1165 1.433 . S
C1190 C1191 1.363 . S
C1190 C1195 1.370 . S
C1191 H1164 0.929 . S
C1191 C1190 1.363 . S
C1191 C1192 1.385 . S
C1192 H1166 0.930 . S
C1192 C1191 1.385 . S
C1192 C1193 1.357 . S
C1193 C1192 1.357 . S
C1193 C1194 1.406 . S
C1194 H1168 0.929 . S
C1194 C1193 1.406 . S
C1194 C1195 1.391 . S
C1195 H1167 0.931 . S
C1195 C1190 1.370 . S
C1195 C1194 1.391 . S
C1196 N1165 1.435 . S
C1196 C1197 1.358 . S
C1196 C1201 1.371 . S
C1197 H1169 0.930 . S
C1197 C1196 1.358 . S
C1197 C1198 1.405 . S
C1198 H1170 0.932 . S
C1198 C1197 1.405 . S
C1198 C1199 1.383 . S
C1199 C1198 1.383 . S
C1199 C1200 1.393 . S
C1200 H1172 0.931 . S
C1200 C1199 1.393 . S
C1200 C1201 1.382 . S
C1201 H1171 0.929 . S
C1201 C1196 1.371 . S
C1201 C1200 1.382 . S
C1202 N1165 1.423 . S
C1202 C1203 1.362 . S
C1202 C1207 1.388 . S
C1203 H1173 0.929 . S
C1203 C1202 1.362 . S
C1203 C1204 1.376 . S
C1204 H1175 0.931 . S
C1204 C1203 1.376 . S
C1204 C1205 1.396 . S
C1205 C1204 1.396 . S
C1205 C1206 1.348 . S
C1205 C1223 1.472 . S
C1206 H1176 0.929 . S
C1206 C1205 1.348 . S
C1206 C1207 1.443 . S
C1207 H1174 0.932 . S
C1207 C1202 1.388 . S
C1207 C1206 1.443 . S
C1208 N1188 1.433 . S
C1208 C1209 1.363 . S
C1208 C1213 1.370 . S
C1209 H1177 0.929 . S
C1209 C1208 1.363 . S
C1209 C1210 1.385 . S
C1210 H1178 0.930 . S
C1210 C1209 1.385 . S
C1210 C1211 1.357 . S
C1211 C1210 1.357 . S
C1211 C1212 1.406 . S
C1212 H1179 0.929 . S
C1212 C1211 1.406 . S
C1212 C1213 1.391 . S
C1213 H1180 0.931 . S
C1213 C1208 1.370 . S
C1213 C1212 1.391 . S
C1214 N1188 1.435 . S
C1214 C1215 1.358 . S
C1214 C1219 1.371 . S
C1215 H1181 0.930 . S
C1215 C1214 1.358 . S
C1215 C1216 1.405 . S
C1216 H1182 0.932 . S
C1216 C1215 1.405 . S
C1216 C1217 1.383 . S
C1217 C1216 1.383 . S
C1217 C1218 1.393 . S
C1218 H1183 0.931 . S
C1218 C1217 1.393 . S
C1218 C1219 1.382 . S
C1219 H1184 0.929 . S
C1219 C1214 1.371 . S
C1219 C1218 1.382 . S
C1220 N1188 1.423 . S
C1220 C1221 1.362 . S
C1220 C1225 1.388 . S
C1221 H1185 0.929 . S
C1221 C1220 1.362 . S
C1221 C1222 1.376 . S
C1222 H1186 0.931 . S
C1222 C1221 1.376 . S
C1222 C1223 1.396 . S
C1223 C1205 1.472 . S
C1223 C1222 1.396 . S
C1223 C1224 1.348 . S
C1224 H1187 0.929 . S
C1224 C1223 1.348 . S
C1224 C1225 1.443 . S
C1225 H1189 0.932 . S
C1225 C1220 1.388 . S
C1225 C1224 1.443 . S
H1226 C1253 0.929 . S
N1227 C1252 1.433 . S
N1227 C1258 1.435 . S
N1227 C1264 1.423 . S
H1228 C1254 0.930 . S
H1229 C1257 0.931 . S
H1230 C1256 0.929 . S
H1231 C1259 0.930 . S
H1232 C1260 0.932 . S
H1233 C1263 0.929 . S
H1234 C1262 0.931 . S
H1235 C1265 0.929 . S
H1236 C1269 0.932 . S
H1237 C1266 0.931 . S
H1238 C1268 0.929 . S
H1239 C1271 0.929 . S
H1240 C1272 0.930 . S
H1241 C1274 0.929 . S
H1242 C1275 0.931 . S
H1243 C1277 0.930 . S
H1244 C1278 0.932 . S
H1245 C1280 0.931 . S
H1246 C1281 0.929 . S
H1247 C1283 0.929 . S
H1248 C1284 0.931 . S
H1249 C1286 0.929 . S
N1250 C1270 1.433 . S
N1250 C1276 1.435 . S
N1250 C1282 1.423 . S
H1251 C1287 0.932 . S
C1252 N1227 1.433 . S
C1252 C1253 1.363 . S
C1252 C1257 1.370 . S
C1253 H1226 0.929 . S
C1253 C1252 1.363 . S
C1253 C1254 1.385 . S
C1254 H1228 0.930 . S
C1254 C1253 1.385 . S
C1254 C1255 1.357 . S
C1255 C1254 1.357 . S
C1255 C1256 1.406 . S
C1256 H1230 0.929 . S
C1256 C1255 1.406 . S
C1256 C1257 1.391 . S
C1257 H1229 0.931 . S
C1257 C1252 1.370 . S
C1257 C1256 1.391 . S
C1258 N1227 1.435 . S
C1258 C1259 1.358 . S
C1258 C1263 1.371 . S
C1259 H1231 0.930 . S
C1259 C1258 1.358 . S
C1259 C1260 1.405 . S
C1260 H1232 0.932 . S
C1260 C1259 1.405 . S
C1260 C1261 1.383 . S
C1261 C1260 1.383 . S
C1261 C1262 1.393 . S
C1262 H1234 0.931 . S
C1262 C1261 1.393 . S
C1262 C1263 1.382 . S
C1263 H1233 0.929 . S
C1263 C1258 1.371 . S
C1263 C1262 1.382 . S
C1264 N1227 1.423 . S
C1264 C1265 1.362 . S
C1264 C1269 1.388 . S
C1265 H1235 0.929 . S
C1265 C1264 1.362 . S
C1265 C1266 1.376 . S
C1266 H1237 0.931 . S
C1266 C1265 1.376 . S
C1266 C1267 1.396 . S
C1267 C1266 1.396 . S
C1267 C1268 1.348 . S
C1267 C1285 1.472 . S
C1268 H1238 0.929 . S
C1268 C1267 1.348 . S
C1268 C1269 1.443 . S
C1269 H1236 0.932 . S
C1269 C1264 1.388 . S
C1269 C1268 1.443 . S
C1270 N1250 1.433 . S
C1270 C1271 1.363 . S
C1270 C1275 1.370 . S
C1271 H1239 0.929 . S
C1271 C1270 1.363 . S
C1271 C1272 1.385 . S
C1272 H1240 0.930 . S
C1272 C1271 1.385 . S
C1272 C1273 1.357 . S
C1273 C1272 1.357 . S
C1273 C1274 1.406 . S
C1274 H1241 0.929 . S
C1274 C1273 1.406 . S
C1274 C1275 1.391 . S
C1275 H1242 0.931 . S
C1275 C1270 1.370 . S
C1275 C1274 1.391 . S
C1276 N1250 1.435 . S
C1276 C1277 1.358 . S
C1276 C1281 1.371 . S
C1277 H1243 0.930 . S
C1277 C1276 1.358 . S
C1277 C1278 1.405 . S
C1278 H1244 0.932 . S
C1278 C1277 1.405 . S
C1278 C1279 1.383 . S
C1279 C1278 1.383 . S
C1279 C1280 1.393 . S
C1280 H1245 0.931 . S
C1280 C1279 1.393 . S
C1280 C1281 1.382 . S
C1281 H1246 0.929 . S
C1281 C1276 1.371 . S
C1281 C1280 1.382 . S
C1282 N1250 1.423 . S
C1282 C1283 1.362 . S
C1282 C1287 1.388 . S
C1283 H1247 0.929 . S
C1283 C1282 1.362 . S
C1283 C1284 1.376 . S
C1284 H1248 0.931 . S
C1284 C1283 1.376 . S
C1284 C1285 1.396 . S
C1285 C1267 1.472 . S
C1285 C1284 1.396 . S
C1285 C1286 1.348 . S
C1286 H1249 0.929 . S
C1286 C1285 1.348 . S
C1286 C1287 1.443 . S
C1287 H1251 0.932 . S
C1287 C1282 1.388 . S
C1287 C1286 1.443 . S
H1288 C1315 0.929 . S
N1289 C1314 1.433 . S
N1289 C1320 1.435 . S
N1289 C1326 1.423 . S
H1290 C1316 0.930 . S
H1291 C1319 0.931 . S
H1292 C1318 0.929 . S
H1293 C1321 0.930 . S
H1294 C1322 0.932 . S
H1295 C1325 0.929 . S
H1296 C1324 0.931 . S
H1297 C1327 0.929 . S
H1298 C1331 0.932 . S
H1299 C1328 0.931 . S
H1300 C1330 0.929 . S
H1301 C1333 0.929 . S
H1302 C1334 0.930 . S
H1303 C1336 0.929 . S
H1304 C1337 0.931 . S
H1305 C1339 0.930 . S
H1306 C1340 0.932 . S
H1307 C1342 0.931 . S
H1308 C1343 0.929 . S
H1309 C1345 0.929 . S
H1310 C1346 0.931 . S
H1311 C1348 0.929 . S
N1312 C1332 1.433 . S
N1312 C1338 1.435 . S
N1312 C1344 1.423 . S
H1313 C1349 0.932 . S
C1314 N1289 1.433 . S
C1314 C1315 1.363 . S
C1314 C1319 1.370 . S
C1315 H1288 0.929 . S
C1315 C1314 1.363 . S
C1315 C1316 1.385 . S
C1316 H1290 0.930 . S
C1316 C1315 1.385 . S
C1316 C1317 1.357 . S
C1317 C1316 1.357 . S
C1317 C1318 1.406 . S
C1318 H1292 0.929 . S
C1318 C1317 1.406 . S
C1318 C1319 1.391 . S
C1319 H1291 0.931 . S
C1319 C1314 1.370 . S
C1319 C1318 1.391 . S
C1320 N1289 1.435 . S
C1320 C1321 1.358 . S
C1320 C1325 1.371 . S
C1321 H1293 0.930 . S
C1321 C1320 1.358 . S
C1321 C1322 1.405 . S
C1322 H1294 0.932 . S
C1322 C1321 1.405 . S
C1322 C1323 1.383 . S
C1323 C1322 1.383 . S
C1323 C1324 1.393 . S
C1324 H1296 0.931 . S
C1324 C1323 1.393 . S
C1324 C1325 1.382 . S
C1325 H1295 0.929 . S
C1325 C1320 1.371 . S
C1325 C1324 1.382 . S
C1326 N1289 1.423 . S
C1326 C1327 1.362 . S
C1326 C1331 1.388 . S
C1327 H1297 0.929 . S
C1327 C1326 1.362 . S
C1327 C1328 1.376 . S
C1328 H1299 0.931 . S
C1328 C1327 1.376 . S
C1328 C1329 1.396 . S
C1329 C1328 1.396 . S
C1329 C1330 1.348 . S
C1329 C1347 1.472 . S
C1330 H1300 0.929 . S
C1330 C1329 1.348 . S
C1330 C1331 1.443 . S
C1331 H1298 0.932 . S
C1331 C1326 1.388 . S
C1331 C1330 1.443 . S
C1332 N1312 1.433 . S
C1332 C1333 1.363 . S
C1332 C1337 1.370 . S
C1333 H1301 0.929 . S
C1333 C1332 1.363 . S
C1333 C1334 1.385 . S
C1334 H1302 0.930 . S
C1334 C1333 1.385 . S
C1334 C1335 1.357 . S
C1335 C1334 1.357 . S
C1335 C1336 1.406 . S
C1336 H1303 0.929 . S
C1336 C1335 1.406 . S
C1336 C1337 1.391 . S
C1337 H1304 0.931 . S
C1337 C1332 1.370 . S
C1337 C1336 1.391 . S
C1338 N1312 1.435 . S
C1338 C1339 1.358 . S
C1338 C1343 1.371 . S
C1339 H1305 0.930 . S
C1339 C1338 1.358 . S
C1339 C1340 1.405 . S
C1340 H1306 0.932 . S
C1340 C1339 1.405 . S
C1340 C1341 1.383 . S
C1341 C1340 1.383 . S
C1341 C1342 1.393 . S
C1342 H1307 0.931 . S
C1342 C1341 1.393 . S
C1342 C1343 1.382 . S
C1343 H1308 0.929 . S
C1343 C1338 1.371 . S
C1343 C1342 1.382 . S
C1344 N1312 1.423 . S
C1344 C1345 1.362 . S
C1344 C1349 1.388 . S
C1345 H1309 0.929 . S
C1345 C1344 1.362 . S
C1345 C1346 1.376 . S
C1346 H1310 0.931 . S
C1346 C1345 1.376 . S
C1346 C1347 1.396 . S
C1347 C1329 1.472 . S
C1347 C1346 1.396 . S
C1347 C1348 1.348 . S
C1348 H1311 0.929 . S
C1348 C1347 1.348 . S
C1348 C1349 1.443 . S
C1349 H1313 0.932 . S
C1349 C1344 1.388 . S
C1349 C1348 1.443 . S
C1350 C1351 1.349 . S
C1350 C1352 1.327 . S
C1350 H1375 0.950 . S
C1351 C1350 1.349 . S
C1351 C1367 1.349 . S
C1352 C1350 1.327 . S
C1352 C1371 1.429 . S
C1352 H1376 0.950 . S
C1353 C1370 1.574 . S
C1353 C1372 1.368 . S
C1353 H1377 0.949 . S
H1354 C1358 0.949 . S
C1355 C1356 1.349 . S
C1355 C1357 1.327 . S
C1355 H1378 0.950 . S
C1356 C1355 1.349 . S
C1356 C1368 1.349 . S
C1357 C1355 1.327 . S
C1357 C1373 1.429 . S
C1357 H1379 0.950 . S
C1358 H1354 0.949 . S
C1358 C1366 1.574 . S
C1358 C1374 1.368 . S
H1359 C1367 0.950 . S
H1360 C1365 0.950 . S
H1361 C1366 0.949 . S
H1362 C1368 0.950 . S
H1363 C1369 0.950 . S
H1364 C1370 0.949 . S
C1365 H1360 0.950 . S
C1365 C1367 1.327 . S
C1365 C1371 1.429 . S
C1366 C1358 1.574 . S
C1366 H1361 0.949 . S
C1366 C1372 1.368 . S
C1367 C1351 1.349 . S
C1367 H1359 0.950 . S
C1367 C1365 1.327 . S
C1368 C1356 1.349 . S
C1368 H1362 0.950 . S
C1368 C1369 1.327 . S
C1369 H1363 0.950 . S
C1369 C1368 1.327 . S
C1369 C1373 1.429 . S
C1370 C1353 1.574 . S
C1370 H1364 0.949 . S
C1370 C1374 1.368 . S
C1371 C1352 1.429 . S
C1371 C1365 1.429 . S
C1371 C1372 1.523 . S
C1372 C1353 1.368 . S
C1372 C1366 1.368 . S
C1372 C1371 1.523 . S
C1373 C1357 1.429 . S
C1373 C1369 1.429 . S
C1373 C1374 1.523 . S
C1374 C1358 1.368 . S
C1374 C1370 1.368 . S
C1374 C1373 1.523 . S
H1375 C1350 0.950 . S
H1376 C1352 0.950 . S
H1377 C1353 0.949 . S
H1378 C1355 0.950 . S
H1379 C1357 0.950 . S
C1380 C1381 1.349 . S
C1380 C1382 1.327 . S
C1380 H1405 0.950 . S
C1381 C1380 1.349 . S
C1381 C1397 1.349 . S
C1382 C1380 1.327 . S
C1382 C1401 1.429 . S
C1382 H1406 0.950 . S
C1383 C1400 1.574 . S
C1383 C1402 1.368 . S
C1383 H1407 0.949 . S
H1384 C1388 0.949 . S
C1385 C1386 1.349 . S
C1385 C1387 1.327 . S
C1385 H1408 0.950 . S
C1386 C1385 1.349 . S
C1386 C1398 1.349 . S
C1387 C1385 1.327 . S
C1387 C1403 1.429 . S
C1387 H1409 0.950 . S
C1388 H1384 0.949 . S
C1388 C1396 1.574 . S
C1388 C1404 1.368 . S
H1389 C1397 0.950 . S
H1390 C1395 0.950 . S
H1391 C1396 0.949 . S
H1392 C1398 0.950 . S
H1393 C1399 0.950 . S
H1394 C1400 0.949 . S
C1395 H1390 0.950 . S
C1395 C1397 1.327 . S
C1395 C1401 1.429 . S
C1396 C1388 1.574 . S
C1396 H1391 0.949 . S
C1396 C1402 1.368 . S
C1397 C1381 1.349 . S
C1397 H1389 0.950 . S
C1397 C1395 1.327 . S
C1398 C1386 1.349 . S
C1398 H1392 0.950 . S
C1398 C1399 1.327 . S
C1399 H1393 0.950 . S
C1399 C1398 1.327 . S
C1399 C1403 1.429 . S
C1400 C1383 1.574 . S
C1400 H1394 0.949 . S
C1400 C1404 1.368 . S
C1401 C1382 1.429 . S
C1401 C1395 1.429 . S
C1401 C1402 1.523 . S
C1402 C1383 1.368 . S
C1402 C1396 1.368 . S
C1402 C1401 1.523 . S
C1403 C1387 1.429 . S
C1403 C1399 1.429 . S
C1403 C1404 1.523 . S
C1404 C1388 1.368 . S
C1404 C1400 1.368 . S
C1404 C1403 1.523 . S
H1405 C1380 0.950 . S
H1406 C1382 0.950 . S
H1407 C1383 0.949 . S
H1408 C1385 0.950 . S
H1409 C1387 0.950 . S
C1410 C1411 1.349 1_565 S
C1410 C1412 1.327 . S
C1410 H1435 0.950 . S
C1411 C1410 1.349 1_545 S
C1411 C1427 1.349 . S
C1412 C1410 1.327 . S
C1412 C1431 1.429 1_565 S
C1412 H1436 0.950 . S
C1413 C1430 1.574 . S
C1413 C1432 1.368 . S
C1413 H1437 0.949 . S
H1414 C1418 0.949 . S
C1415 C1416 1.349 . S
C1415 C1417 1.327 . S
C1415 H1438 0.950 . S
C1416 C1415 1.349 . S
C1416 C1428 1.349 1_545 S
C1417 C1415 1.327 . S
C1417 C1433 1.429 . S
C1417 H1439 0.950 . S
C1418 H1414 0.949 . S
C1418 C1426 1.574 . S
C1418 C1434 1.368 1_565 S
H1419 C1427 0.950 . S
H1420 C1425 0.950 . S
H1421 C1426 0.949 . S
H1422 C1428 0.950 . S
H1423 C1429 0.950 . S
H1424 C1430 0.949 . S
C1425 H1420 0.950 . S
C1425 C1427 1.327 . S
C1425 C1431 1.429 . S
C1426 C1418 1.574 . S
C1426 H1421 0.949 . S
C1426 C1432 1.368 1_565 S
C1427 C1411 1.349 . S
C1427 H1419 0.950 . S
C1427 C1425 1.327 . S
C1428 C1416 1.349 1_565 S
C1428 H1422 0.950 . S
C1428 C1429 1.327 . S
C1429 H1423 0.950 . S
C1429 C1428 1.327 . S
C1429 C1433 1.429 1_565 S
C1430 C1413 1.574 . S
C1430 H1424 0.949 . S
C1430 C1434 1.368 . S
C1431 C1412 1.429 1_545 S
C1431 C1425 1.429 . S
C1431 C1432 1.523 . S
C1432 C1413 1.368 . S
C1432 C1426 1.368 1_545 S
C1432 C1431 1.523 . S
C1433 C1417 1.429 . S
C1433 C1429 1.429 1_545 S
C1433 C1434 1.523 . S
C1434 C1418 1.368 1_545 S
C1434 C1430 1.368 . S
C1434 C1433 1.523 . S
H1435 C1410 0.950 . S
H1436 C1412 0.950 . S
H1437 C1413 0.949 . S
H1438 C1415 0.950 . S
H1439 C1417 0.950 . S
C1440 C1441 1.349 . S
C1440 C1442 1.327 . S
C1440 H1465 0.950 . S
C1441 C1440 1.349 . S
C1441 C1457 1.349 . S
C1442 C1440 1.327 . S
C1442 C1461 1.429 . S
C1442 H1466 0.950 . S
C1443 C1460 1.574 . S
C1443 C1462 1.368 . S
C1443 H1467 0.949 1_545 S
H1444 C1448 0.949 . S
C1445 C1446 1.349 . S
C1445 C1447 1.327 . S
C1445 H1468 0.961 . S
C1446 C1445 1.349 . S
C1446 C1458 1.349 . S
C1447 C1445 1.327 . S
C1447 C1463 1.429 . S
C1447 H1469 0.932 1_545 S
C1448 H1444 0.949 . S
C1448 C1456 1.574 . S
C1448 C1464 1.368 . S
H1449 C1457 0.950 1_565 S
H1450 C1455 0.950 1_565 S
H1451 C1456 0.949 . S
H1452 C1458 0.950 . S
H1453 C1459 0.950 . S
H1454 C1460 0.949 1_565 S
C1455 H1450 0.950 1_545 S
C1455 C1457 1.327 . S
C1455 C1461 1.429 . S
C1456 C1448 1.574 . S
C1456 H1451 0.949 . S
C1456 C1462 1.368 . S
C1457 C1441 1.349 . S
C1457 H1449 0.950 1_545 S
C1457 C1455 1.327 . S
C1458 C1446 1.349 . S
C1458 H1452 0.950 . S
C1458 C1459 1.327 . S
C1459 H1453 0.950 . S
C1459 C1458 1.327 . S
C1459 C1463 1.429 . S
C1460 C1443 1.574 . S
C1460 H1454 0.949 1_545 S
C1460 C1464 1.368 . S
C1461 C1442 1.429 . S
C1461 C1455 1.429 . S
C1461 C1462 1.523 . S
C1462 C1443 1.368 . S
C1462 C1456 1.368 . S
C1462 C1461 1.523 . S
C1463 C1447 1.429 . S
C1463 C1459 1.429 . S
C1463 C1464 1.523 . S
C1464 C1448 1.368 . S
C1464 C1460 1.368 . S
C1464 C1463 1.523 . S
H1465 C1440 0.950 . S
H1466 C1442 0.950 . S
H1467 C1443 0.949 1_565 S
H1468 C1445 0.961 . S
H1469 C1447 0.932 1_565 S
C1470 C1471 1.349 1_655 S
C1470 C1472 1.327 . S
C1470 H1495 0.950 . S
C1471 C1470 1.349 1_455 S
C1471 C1487 1.349 . S
C1472 C1470 1.327 . S
C1472 C1491 1.429 1_655 S
C1472 H1496 0.950 . S
C1473 C1490 1.574 . S
C1473 C1492 1.368 . S
C1473 H1497 0.949 . S
H1474 C1478 0.949 . S
C1475 C1476 1.349 . S
C1475 C1477 1.327 . S
C1475 H1498 0.950 . S
C1476 C1475 1.349 . S
C1476 C1488 1.349 1_455 S
C1477 C1475 1.327 . S
C1477 C1493 1.429 . S
C1477 H1499 0.950 . S
C1478 H1474 0.949 . S
C1478 C1486 1.574 . S
C1478 C1494 1.368 1_655 S
H1479 C1487 0.950 . S
H1480 C1485 0.950 . S
H1481 C1486 0.949 . S
H1482 C1488 0.950 . S
H1483 C1489 0.950 . S
H1484 C1490 0.949 . S
C1485 H1480 0.950 . S
C1485 C1487 1.327 . S
C1485 C1491 1.429 . S
C1486 C1478 1.574 . S
C1486 H1481 0.949 . S
C1486 C1492 1.368 1_655 S
C1487 C1471 1.349 . S
C1487 H1479 0.950 . S
C1487 C1485 1.327 . S
C1488 C1476 1.349 1_655 S
C1488 H1482 0.950 . S
C1488 C1489 1.327 . S
C1489 H1483 0.950 . S
C1489 C1488 1.327 . S
C1489 C1493 1.429 1_655 S
C1490 C1473 1.574 . S
C1490 H1484 0.949 . S
C1490 C1494 1.368 . S
C1491 C1472 1.429 1_455 S
C1491 C1485 1.429 . S
C1491 C1492 1.523 . S
C1492 C1473 1.368 . S
C1492 C1486 1.368 1_455 S
C1492 C1491 1.523 . S
C1493 C1477 1.429 . S
C1493 C1489 1.429 1_455 S
C1493 C1494 1.523 . S
C1494 C1478 1.368 1_455 S
C1494 C1490 1.368 . S
C1494 C1493 1.523 . S
H1495 C1470 0.950 . S
H1496 C1472 0.950 . S
H1497 C1473 0.949 . S
H1498 C1475 0.950 . S
H1499 C1477 0.950 . S
C1500 C1501 1.349 . S
C1500 C1502 1.327 . S
C1500 H1525 0.950 . S
C1501 C1500 1.349 . S
C1501 C1517 1.349 . S
C1502 C1500 1.327 . S
C1502 C1521 1.429 . S
C1502 H1526 0.950 . S
C1503 C1520 1.574 . S
C1503 C1522 1.368 . S
C1503 H1527 0.949 . S
H1504 C1508 0.949 . S
C1505 C1506 1.349 . S
C1505 C1507 1.327 . S
C1505 H1528 0.950 . S
C1506 C1505 1.349 . S
C1506 C1518 1.349 . S
C1507 C1505 1.327 . S
C1507 C1523 1.429 . S
C1507 H1529 0.950 . S
C1508 H1504 0.949 . S
C1508 C1516 1.574 . S
C1508 C1524 1.368 . S
H1509 C1517 0.950 . S
H1510 C1515 0.950 . S
H1511 C1516 0.949 . S
H1512 C1518 0.950 . S
H1513 C1519 0.950 . S
H1514 C1520 0.949 . S
C1515 H1510 0.950 . S
C1515 C1517 1.327 . S
C1515 C1521 1.429 . S
C1516 C1508 1.574 . S
C1516 H1511 0.949 . S
C1516 C1522 1.368 . S
C1517 C1501 1.349 . S
C1517 H1509 0.950 . S
C1517 C1515 1.327 . S
C1518 C1506 1.349 . S
C1518 H1512 0.950 . S
C1518 C1519 1.327 . S
C1519 H1513 0.950 . S
C1519 C1518 1.327 . S
C1519 C1523 1.429 . S
C1520 C1503 1.574 . S
C1520 H1514 0.949 . S
C1520 C1524 1.368 . S
C1521 C1502 1.429 . S
C1521 C1515 1.429 . S
C1521 C1522 1.523 . S
C1522 C1503 1.368 . S
C1522 C1516 1.368 . S
C1522 C1521 1.523 . S
C1523 C1507 1.429 . S
C1523 C1519 1.429 . S
C1523 C1524 1.523 . S
C1524 C1508 1.368 . S
C1524 C1520 1.368 . S
C1524 C1523 1.523 . S
H1525 C1500 0.950 . S
H1526 C1502 0.950 . S
H1527 C1503 0.949 . S
H1528 C1505 0.950 . S
H1529 C1507 0.950 . S
C1530 C1531 1.349 . S
C1530 C1532 1.327 . S
C1530 H1555 0.950 . S
C1531 C1530 1.349 . S
C1531 C1547 1.349 1_455 S
C1532 C1530 1.327 . S
C1532 C1551 1.429 . S
C1532 H1556 0.950 . S
C1533 C1550 1.574 . S
C1533 C1552 1.368 1_655 S
C1533 H1557 0.949 . S
H1534 C1538 0.949 . S
C1535 C1536 1.349 1_655 S
C1535 C1537 1.327 . S
C1535 H1558 0.950 . S
C1536 C1535 1.349 1_455 S
C1536 C1548 1.349 . S
C1537 C1535 1.327 . S
C1537 C1553 1.429 1_655 S
C1537 H1559 0.950 . S
C1538 H1534 0.949 . S
C1538 C1546 1.574 . S
C1538 C1554 1.368 . S
H1539 C1547 0.950 . S
H1540 C1545 0.950 . S
H1541 C1546 0.949 . S
H1542 C1548 0.950 . S
H1543 C1549 0.950 . S
H1544 C1550 0.949 . S
C1545 H1540 0.950 . S
C1545 C1547 1.327 . S
C1545 C1551 1.429 1_655 S
C1546 C1538 1.574 . S
C1546 H1541 0.949 . S
C1546 C1552 1.368 . S
C1547 C1531 1.349 1_655 S
C1547 H1539 0.950 . S
C1547 C1545 1.327 . S
C1548 C1536 1.349 . S
C1548 H1542 0.950 . S
C1548 C1549 1.327 . S
C1549 H1543 0.950 . S
C1549 C1548 1.327 . S
C1549 C1553 1.429 . S
C1550 C1533 1.574 . S
C1550 H1544 0.949 . S
C1550 C1554 1.368 1_655 S
C1551 C1532 1.429 . S
C1551 C1545 1.429 1_455 S
C1551 C1552 1.523 . S
C1552 C1533 1.368 1_455 S
C1552 C1546 1.368 . S
C1552 C1551 1.523 . S
C1553 C1537 1.429 1_455 S
C1553 C1549 1.429 . S
C1553 C1554 1.523 . S
C1554 C1538 1.368 . S
C1554 C1550 1.368 1_455 S
C1554 C1553 1.523 . S
H1555 C1530 0.950 . S
H1556 C1532 0.950 . S
H1557 C1533 0.949 . S
H1558 C1535 0.950 . S
H1559 C1537 0.950 . S
C1560 C1561 1.349 . S
C1560 C1562 1.327 . S
C1560 H1585 0.950 . S
C1561 C1560 1.349 . S
C1561 C1577 1.349 . S
C1562 C1560 1.327 . S
C1562 C1581 1.429 . S
C1562 H1586 0.950 . S
C1563 C1580 1.574 . S
C1563 C1582 1.368 . S
C1563 H1587 0.949 . S
H1564 C1568 0.949 . S
C1565 C1566 1.349 . S
C1565 C1567 1.327 . S
C1565 H1588 0.950 . S
C1566 C1565 1.349 . S
C1566 C1578 1.349 . S
C1567 C1565 1.327 . S
C1567 C1583 1.429 . S
C1567 H1589 0.950 . S
C1568 H1564 0.949 . S
C1568 C1576 1.574 . S
C1568 C1584 1.368 . S
H1569 C1577 0.950 . S
H1570 C1575 0.950 . S
H1571 C1576 0.949 . S
H1572 C1578 0.950 . S
H1573 C1579 0.950 . S
H1574 C1580 0.949 . S
C1575 H1570 0.950 . S
C1575 C1577 1.327 . S
C1575 C1581 1.429 . S
C1576 C1568 1.574 . S
C1576 H1571 0.949 . S
C1576 C1582 1.368 . S
C1577 C1561 1.349 . S
C1577 H1569 0.950 . S
C1577 C1575 1.327 . S
C1578 C1566 1.349 . S
C1578 H1572 0.950 . S
C1578 C1579 1.327 . S
C1579 H1573 0.950 . S
C1579 C1578 1.327 . S
C1579 C1583 1.429 . S
C1580 C1563 1.574 . S
C1580 H1574 0.949 . S
C1580 C1584 1.368 . S
C1581 C1562 1.429 . S
C1581 C1575 1.429 . S
C1581 C1582 1.523 . S
C1582 C1563 1.368 . S
C1582 C1576 1.368 . S
C1582 C1581 1.523 . S
C1583 C1567 1.429 . S
C1583 C1579 1.429 . S
C1583 C1584 1.523 . S
C1584 C1568 1.368 . S
C1584 C1580 1.368 . S
C1584 C1583 1.523 . S
H1585 C1560 0.950 . S
H1586 C1562 0.950 . S
H1587 C1563 0.949 . S
H1588 C1565 0.950 . S
H1589 C1567 0.950 . S
C1590 C1591 1.349 . S
C1590 C1592 1.327 . S
C1590 H1615 0.950 . S
C1591 C1590 1.349 . S
C1591 C1607 1.349 . S
C1592 C1590 1.327 . S
C1592 C1611 1.429 . S
C1592 H1616 0.950 . S
C1593 C1610 1.574 . S
C1593 C1612 1.368 . S
C1593 H1617 0.949 1_545 S
H1594 C1598 0.949 . S
C1595 C1596 1.349 . S
C1595 C1597 1.327 . S
C1595 H1618 0.946 1_545 S
C1596 C1595 1.349 . S
C1596 C1608 1.349 . S
C1597 C1595 1.327 . S
C1597 C1613 1.429 . S
C1597 H1619 0.950 1_545 S
C1598 H1594 0.949 . S
C1598 C1606 1.574 . S
C1598 C1614 1.368 . S
H1599 C1607 0.950 1_565 S
H1600 C1605 0.950 1_565 S
H1601 C1606 0.949 . S
H1602 C1608 0.950 . S
H1603 C1609 0.950 . S
H1604 C1610 0.949 1_565 S
C1605 H1600 0.950 1_545 S
C1605 C1607 1.327 . S
C1605 C1611 1.429 . S
C1606 C1598 1.574 . S
C1606 H1601 0.949 . S
C1606 C1612 1.368 . S
C1607 C1591 1.349 . S
C1607 H1599 0.950 1_545 S
C1607 C1605 1.327 . S
C1608 C1596 1.349 . S
C1608 H1602 0.950 . S
C1608 C1609 1.327 . S
C1609 H1603 0.950 . S
C1609 C1608 1.327 . S
C1609 C1613 1.429 . S
C1610 C1593 1.574 . S
C1610 H1604 0.949 1_545 S
C1610 C1614 1.368 . S
C1611 C1592 1.429 . S
C1611 C1605 1.429 . S
C1611 C1612 1.523 . S
C1612 C1593 1.368 . S
C1612 C1606 1.368 . S
C1612 C1611 1.523 . S
C1613 C1597 1.429 . S
C1613 C1609 1.429 . S
C1613 C1614 1.523 . S
C1614 C1598 1.368 . S
C1614 C1610 1.368 . S
C1614 C1613 1.523 . S
H1615 C1590 0.950 . S
H1616 C1592 0.950 . S
H1617 C1593 0.949 1_565 S
H1618 C1595 0.946 1_565 S
H1619 C1597 0.950 1_565 S
C1620 C1621 1.349 . S
C1620 C1622 1.327 . S
C1620 H1645 0.950 . S
C1621 C1620 1.349 . S
C1621 C1637 1.313 1_545 S
C1622 C1620 1.327 . S
C1622 C1641 1.429 . S
C1622 H1646 0.950 . S
C1623 C1640 1.574 . S
C1623 C1642 1.368 1_565 S
C1623 H1647 0.949 . S
H1624 C1628 0.949 . S
C1625 C1626 1.349 1_565 S
C1625 C1627 1.327 . S
C1625 H1648 0.950 . S
C1626 C1625 1.349 1_545 S
C1626 C1638 1.349 . S
C1627 C1625 1.327 . S
C1627 C1643 1.429 1_565 S
C1627 H1649 0.950 . S
C1628 H1624 0.949 . S
C1628 C1636 1.574 . S
C1628 C1644 1.368 . S
H1629 C1637 1.006 . S
H1630 C1635 0.950 . S
H1631 C1636 0.949 . S
H1632 C1638 0.950 . S
H1633 C1639 0.950 . S
H1634 C1640 0.949 . S
C1635 H1630 0.950 . S
C1635 C1637 1.310 . S
C1635 C1641 1.429 1_565 S
C1636 C1628 1.574 . S
C1636 H1631 0.949 . S
C1636 C1642 1.368 . S
C1637 C1621 1.313 1_565 S
C1637 H1629 1.006 . S
C1637 C1635 1.310 . S
C1638 C1626 1.349 . S
C1638 H1632 0.950 . S
C1638 C1639 1.327 . S
C1639 H1633 0.950 . S
C1639 C1638 1.327 . S
C1639 C1643 1.429 . S
C1640 C1623 1.574 . S
C1640 H1634 0.949 . S
C1640 C1644 1.368 1_565 S
C1641 C1622 1.429 . S
C1641 C1635 1.429 1_545 S
C1641 C1642 1.523 . S
C1642 C1623 1.368 1_545 S
C1642 C1636 1.368 . S
C1642 C1641 1.523 . S
C1643 C1627 1.429 1_545 S
C1643 C1639 1.429 . S
C1643 C1644 1.523 . S
C1644 C1628 1.368 . S
C1644 C1640 1.368 1_545 S
C1644 C1643 1.523 . S
H1645 C1620 0.950 . S
H1646 C1622 0.950 . S
H1647 C1623 0.949 . S
H1648 C1625 0.950 . S
H1649 C1627 0.950 . S
C1650 C1651 1.349 . S
C1650 C1652 1.327 . S
C1650 H1675 0.950 . S
C1651 C1650 1.349 . S
C1651 C1667 1.349 . S
C1652 C1650 1.327 . S
C1652 C1671 1.429 . S
C1652 H1676 0.950 . S
C1653 C1670 1.574 . S
C1653 C1672 1.368 . S
C1653 H1677 0.949 . S
H1654 C1658 0.949 . S
C1655 C1656 1.349 . S
C1655 C1657 1.327 . S
C1655 H1678 0.950 . S
C1656 C1655 1.349 . S
C1656 C1668 1.349 . S
C1657 C1655 1.327 . S
C1657 C1673 1.429 . S
C1657 H1679 0.950 . S
C1658 H1654 0.949 . S
C1658 C1666 1.574 . S
C1658 C1674 1.368 . S
H1659 C1667 0.950 . S
H1660 C1665 0.950 . S
H1661 C1666 0.949 . S
H1662 C1668 0.950 . S
H1663 C1669 0.950 . S
H1664 C1670 0.949 . S
C1665 H1660 0.950 . S
C1665 C1667 1.327 . S
C1665 C1671 1.429 . S
C1666 C1658 1.574 . S
C1666 H1661 0.949 . S
C1666 C1672 1.368 . S
C1667 C1651 1.349 . S
C1667 H1659 0.950 . S
C1667 C1665 1.327 . S
C1668 C1656 1.349 . S
C1668 H1662 0.950 . S
C1668 C1669 1.327 . S
C1669 H1663 0.950 . S
C1669 C1668 1.327 . S
C1669 C1673 1.429 . S
C1670 C1653 1.574 . S
C1670 H1664 0.949 . S
C1670 C1674 1.368 . S
C1671 C1652 1.429 . S
C1671 C1665 1.429 . S
C1671 C1672 1.523 . S
C1672 C1653 1.368 . S
C1672 C1666 1.368 . S
C1672 C1671 1.523 . S
C1673 C1657 1.429 . S
C1673 C1669 1.429 . S
C1673 C1674 1.523 . S
C1674 C1658 1.368 . S
C1674 C1670 1.368 . S
C1674 C1673 1.523 . S
H1675 C1650 0.950 . S
H1676 C1652 0.950 . S
H1677 C1653 0.949 . S
H1678 C1655 0.950 . S
H1679 C1657 0.950 . S
C1680 C1681 1.349 . S
C1680 C1682 1.327 . S
C1680 H1705 0.950 . S
C1681 C1680 1.349 . S
C1681 C1697 1.349 . S
C1682 C1680 1.327 . S
C1682 C1701 1.429 . S
C1682 H1706 0.950 . S
C1683 C1700 1.574 . S
C1683 C1702 1.368 . S
C1683 H1707 0.949 . S
H1684 C1688 0.949 . S
C1685 C1686 1.349 . S
C1685 C1687 1.327 . S
C1685 H1708 0.950 . S
C1686 C1685 1.349 . S
C1686 C1698 1.349 . S
C1687 C1685 1.327 . S
C1687 C1703 1.429 . S
C1687 H1709 0.950 . S
C1688 H1684 0.949 . S
C1688 C1696 1.574 . S
C1688 C1704 1.368 . S
H1689 C1697 0.950 . S
H1690 C1695 0.950 . S
H1691 C1696 0.949 . S
H1692 C1698 0.950 . S
H1693 C1699 0.950 . S
H1694 C1700 0.949 . S
C1695 H1690 0.950 . S
C1695 C1697 1.327 . S
C1695 C1701 1.429 . S
C1696 C1688 1.574 . S
C1696 H1691 0.949 . S
C1696 C1702 1.368 . S
C1697 C1681 1.349 . S
C1697 H1689 0.950 . S
C1697 C1695 1.327 . S
C1698 C1686 1.349 . S
C1698 H1692 0.950 . S
C1698 C1699 1.327 . S
C1699 H1693 0.950 . S
C1699 C1698 1.327 . S
C1699 C1703 1.429 . S
C1700 C1683 1.574 . S
C1700 H1694 0.949 . S
C1700 C1704 1.368 . S
C1701 C1682 1.429 . S
C1701 C1695 1.429 . S
C1701 C1702 1.523 . S
C1702 C1683 1.368 . S
C1702 C1696 1.368 . S
C1702 C1701 1.523 . S
C1703 C1687 1.429 . S
C1703 C1699 1.429 . S
C1703 C1704 1.523 . S
C1704 C1688 1.368 . S
C1704 C1700 1.368 . S
C1704 C1703 1.523 . S
H1705 C1680 0.950 . S
H1706 C1682 0.950 . S
H1707 C1683 0.949 . S
H1708 C1685 0.950 . S
H1709 C1687 0.950 . S
C1710 C1711 1.349 . S
C1710 C1712 1.327 . S
C1710 H1735 0.950 . S
C1711 C1710 1.349 . S
C1711 C1727 1.349 . S
C1712 C1710 1.327 . S
C1712 C1731 1.429 . S
C1712 H1736 0.950 . S
C1713 C1730 1.574 . S
C1713 C1732 1.368 . S
C1713 H1737 0.949 . S
H1714 C1718 0.949 . S
C1715 C1716 1.349 . S
C1715 C1717 1.327 . S
C1715 H1738 0.950 . S
C1716 C1715 1.349 . S
C1716 C1728 1.349 . S
C1717 C1715 1.327 . S
C1717 C1733 1.429 . S
C1717 H1739 0.950 . S
C1718 H1714 0.949 . S
C1718 C1726 1.574 . S
C1718 C1734 1.368 . S
H1719 C1727 0.950 . S
H1720 C1725 0.950 . S
H1721 C1726 0.949 . S
H1722 C1728 0.950 . S
H1723 C1729 0.950 . S
H1724 C1730 0.949 . S
C1725 H1720 0.950 . S
C1725 C1727 1.327 . S
C1725 C1731 1.429 . S
C1726 C1718 1.574 . S
C1726 H1721 0.949 . S
C1726 C1732 1.368 . S
C1727 C1711 1.349 . S
C1727 H1719 0.950 . S
C1727 C1725 1.327 . S
C1728 C1716 1.349 . S
C1728 H1722 0.950 . S
C1728 C1729 1.327 . S
C1729 H1723 0.950 . S
C1729 C1728 1.327 . S
C1729 C1733 1.429 . S
C1730 C1713 1.574 . S
C1730 H1724 0.949 . S
C1730 C1734 1.368 . S
C1731 C1712 1.429 . S
C1731 C1725 1.429 . S
C1731 C1732 1.523 . S
C1732 C1713 1.368 . S
C1732 C1726 1.368 . S
C1732 C1731 1.523 . S
C1733 C1717 1.429 . S
C1733 C1729 1.429 . S
C1733 C1734 1.523 . S
C1734 C1718 1.368 . S
C1734 C1730 1.368 . S
C1734 C1733 1.523 . S
H1735 C1710 0.950 . S
H1736 C1712 0.950 . S
H1737 C1713 0.949 . S
H1738 C1715 0.950 . S
H1739 C1717 0.950 . S
C1740 C1741 1.349 . S
C1740 C1742 1.327 . S
C1740 H1765 0.950 . S
C1741 C1740 1.349 . S
C1741 C1757 1.349 . S
C1742 C1740 1.327 . S
C1742 C1761 1.429 . S
C1742 H1766 0.950 . S
C1743 C1760 1.574 . S
C1743 C1762 1.368 . S
C1743 H1767 0.949 . S
H1744 C1748 0.949 . S
C1745 C1746 1.349 . S
C1745 C1747 1.327 . S
C1745 H1768 0.950 . S
C1746 C1745 1.349 . S
C1746 C1758 1.349 . S
C1747 C1745 1.327 . S
C1747 C1763 1.429 . S
C1747 H1769 0.950 . S
C1748 H1744 0.949 . S
C1748 C1756 1.574 . S
C1748 C1764 1.368 . S
H1749 C1757 0.950 . S
H1750 C1755 0.950 . S
H1751 C1756 0.949 . S
H1752 C1758 0.950 . S
H1753 C1759 0.950 . S
H1754 C1760 0.949 . S
C1755 H1750 0.950 . S
C1755 C1757 1.327 . S
C1755 C1761 1.429 . S
C1756 C1748 1.574 . S
C1756 H1751 0.949 . S
C1756 C1762 1.368 . S
C1757 C1741 1.349 . S
C1757 H1749 0.950 . S
C1757 C1755 1.327 . S
C1758 C1746 1.349 . S
C1758 H1752 0.950 . S
C1758 C1759 1.327 . S
C1759 H1753 0.950 . S
C1759 C1758 1.327 . S
C1759 C1763 1.429 . S
C1760 C1743 1.574 . S
C1760 H1754 0.949 . S
C1760 C1764 1.368 . S
C1761 C1742 1.429 . S
C1761 C1755 1.429 . S
C1761 C1762 1.523 . S
C1762 C1743 1.368 . S
C1762 C1756 1.368 . S
C1762 C1761 1.523 . S
C1763 C1747 1.429 . S
C1763 C1759 1.429 . S
C1763 C1764 1.523 . S
C1764 C1748 1.368 . S
C1764 C1760 1.368 . S
C1764 C1763 1.523 . S
H1765 C1740 0.950 . S
H1766 C1742 0.950 . S
H1767 C1743 0.949 . S
H1768 C1745 0.950 . S
H1769 C1747 0.950 . S
C1770 C1771 1.349 . S
C1770 C1772 1.327 . S
C1770 H1795 0.950 . S
C1771 C1770 1.349 . S
C1771 C1787 1.349 . S
C1772 C1770 1.327 . S
C1772 C1791 1.429 . S
C1772 H1796 0.950 . S
C1773 C1790 1.574 . S
C1773 C1792 1.368 . S
C1773 H1797 0.949 . S
H1774 C1778 0.949 . S
C1775 C1776 1.349 . S
C1775 C1777 1.327 . S
C1775 H1798 0.950 . S
C1776 C1775 1.349 . S
C1776 C1788 1.349 . S
C1777 C1775 1.327 . S
C1777 C1793 1.429 . S
C1777 H1799 0.950 . S
C1778 H1774 0.949 . S
C1778 C1786 1.574 . S
C1778 C1794 1.368 . S
H1779 C1787 0.950 . S
H1780 C1785 0.950 . S
H1781 C1786 0.949 . S
H1782 C1788 0.950 . S
H1783 C1789 0.950 . S
H1784 C1790 0.949 . S
C1785 H1780 0.950 . S
C1785 C1787 1.327 . S
C1785 C1791 1.429 . S
C1786 C1778 1.574 . S
C1786 H1781 0.949 . S
C1786 C1792 1.368 . S
C1787 C1771 1.349 . S
C1787 H1779 0.950 . S
C1787 C1785 1.327 . S
C1788 C1776 1.349 . S
C1788 H1782 0.950 . S
C1788 C1789 1.327 . S
C1789 H1783 0.950 . S
C1789 C1788 1.327 . S
C1789 C1793 1.429 . S
C1790 C1773 1.574 . S
C1790 H1784 0.949 . S
C1790 C1794 1.368 . S
C1791 C1772 1.429 . S
C1791 C1785 1.429 . S
C1791 C1792 1.523 . S
C1792 C1773 1.368 . S
C1792 C1786 1.368 . S
C1792 C1791 1.523 . S
C1793 C1777 1.429 . S
C1793 C1789 1.429 . S
C1793 C1794 1.523 . S
C1794 C1778 1.368 . S
C1794 C1790 1.368 . S
C1794 C1793 1.523 . S
H1795 C1770 0.950 . S
H1796 C1772 0.950 . S
H1797 C1773 0.949 . S
H1798 C1775 0.950 . S
H1799 C1777 0.950 . S
C1800 C1801 1.349 . S
C1800 C1802 1.327 . S
C1800 H1825 0.950 . S
C1801 C1800 1.349 . S
C1801 C1817 1.349 . S
C1802 C1800 1.327 . S
C1802 C1821 1.429 . S
C1802 H1826 0.950 . S
C1803 C1820 1.574 . S
C1803 C1822 1.368 . S
C1803 H1827 0.949 . S
H1804 C1808 0.949 . S
C1805 C1806 1.349 . S
C1805 C1807 1.327 . S
C1805 H1828 0.950 . S
C1806 C1805 1.349 . S
C1806 C1818 1.349 . S
C1807 C1805 1.327 . S
C1807 C1823 1.429 . S
C1807 H1829 0.950 . S
C1808 H1804 0.949 . S
C1808 C1816 1.574 . S
C1808 C1824 1.368 . S
H1809 C1817 0.950 . S
H1810 C1815 0.950 . S
H1811 C1816 0.949 . S
H1812 C1818 0.950 . S
H1813 C1819 0.950 . S
H1814 C1820 0.949 . S
C1815 H1810 0.950 . S
C1815 C1817 1.327 . S
C1815 C1821 1.429 . S
C1816 C1808 1.574 . S
C1816 H1811 0.949 . S
C1816 C1822 1.368 . S
C1817 C1801 1.349 . S
C1817 H1809 0.950 . S
C1817 C1815 1.327 . S
C1818 C1806 1.349 . S
C1818 H1812 0.950 . S
C1818 C1819 1.327 . S
C1819 H1813 0.950 . S
C1819 C1818 1.327 . S
C1819 C1823 1.429 . S
C1820 C1803 1.574 . S
C1820 H1814 0.949 . S
C1820 C1824 1.368 . S
C1821 C1802 1.429 . S
C1821 C1815 1.429 . S
C1821 C1822 1.523 . S
C1822 C1803 1.368 . S
C1822 C1816 1.368 . S
C1822 C1821 1.523 . S
C1823 C1807 1.429 . S
C1823 C1819 1.429 . S
C1823 C1824 1.523 . S
C1824 C1808 1.368 . S
C1824 C1820 1.368 . S
C1824 C1823 1.523 . S
H1825 C1800 0.950 . S
H1826 C1802 0.950 . S
H1827 C1803 0.949 . S
H1828 C1805 0.950 . S
H1829 C1807 0.950 . S
C1830 C1831 1.349 . S
C1830 C1832 1.327 . S
C1830 H1855 0.950 . S
C1831 C1830 1.349 . S
C1831 C1847 1.349 . S
C1832 C1830 1.327 . S
C1832 C1851 1.429 . S
C1832 H1856 0.950 . S
C1833 C1850 1.574 . S
C1833 C1852 1.368 . S
C1833 H1857 0.949 . S
H1834 C1838 0.949 . S
C1835 C1836 1.349 . S
C1835 C1837 1.327 . S
C1835 H1858 0.950 . S
C1836 C1835 1.349 . S
C1836 C1848 1.349 . S
C1837 C1835 1.327 . S
C1837 C1853 1.429 . S
C1837 H1859 0.950 . S
C1838 H1834 0.949 . S
C1838 C1846 1.574 . S
C1838 C1854 1.368 . S
H1839 C1847 0.950 . S
H1840 C1845 0.950 . S
H1841 C1846 0.949 . S
H1842 C1848 0.950 . S
H1843 C1849 0.950 . S
H1844 C1850 0.949 . S
C1845 H1840 0.950 . S
C1845 C1847 1.327 . S
C1845 C1851 1.429 . S
C1846 C1838 1.574 . S
C1846 H1841 0.949 . S
C1846 C1852 1.368 . S
C1847 C1831 1.349 . S
C1847 H1839 0.950 . S
C1847 C1845 1.327 . S
C1848 C1836 1.349 . S
C1848 H1842 0.950 . S
C1848 C1849 1.327 . S
C1849 H1843 0.950 . S
C1849 C1848 1.327 . S
C1849 C1853 1.429 . S
C1850 C1833 1.574 . S
C1850 H1844 0.949 . S
C1850 C1854 1.368 . S
C1851 C1832 1.429 . S
C1851 C1845 1.429 . S
C1851 C1852 1.523 . S
C1852 C1833 1.368 . S
C1852 C1846 1.368 . S
C1852 C1851 1.523 . S
C1853 C1837 1.429 . S
C1853 C1849 1.429 . S
C1853 C1854 1.523 . S
C1854 C1838 1.368 . S
C1854 C1850 1.368 . S
C1854 C1853 1.523 . S
H1855 C1830 0.950 . S
H1856 C1832 0.950 . S
H1857 C1833 0.949 . S
H1858 C1835 0.950 . S
H1859 C1837 0.950 . S
C1860 C1861 1.349 . S
C1860 C1862 1.327 . S
C1860 H1885 0.950 . S
C1861 C1860 1.349 . S
C1861 C1877 1.349 . S
C1862 C1860 1.327 . S
C1862 C1881 1.429 . S
C1862 H1886 0.950 . S
C1863 C1880 1.574 . S
C1863 C1882 1.368 . S
C1863 H1887 0.949 . S
H1864 C1868 0.949 . S
C1865 C1866 1.349 . S
C1865 C1867 1.327 . S
C1865 H1888 0.950 . S
C1866 C1865 1.349 . S
C1866 C1878 1.349 . S
C1867 C1865 1.327 . S
C1867 C1883 1.429 . S
C1867 H1889 0.950 . S
C1868 H1864 0.949 . S
C1868 C1876 1.574 . S
C1868 C1884 1.368 . S
H1869 C1877 0.950 . S
H1870 C1875 0.950 . S
H1871 C1876 0.949 . S
H1872 C1878 0.950 . S
H1873 C1879 0.950 . S
H1874 C1880 0.949 . S
C1875 H1870 0.950 . S
C1875 C1877 1.327 . S
C1875 C1881 1.429 . S
C1876 C1868 1.574 . S
C1876 H1871 0.949 . S
C1876 C1882 1.368 . S
C1877 C1861 1.349 . S
C1877 H1869 0.950 . S
C1877 C1875 1.327 . S
C1878 C1866 1.349 . S
C1878 H1872 0.950 . S
C1878 C1879 1.327 . S
C1879 H1873 0.950 . S
C1879 C1878 1.327 . S
C1879 C1883 1.429 . S
C1880 C1863 1.574 . S
C1880 H1874 0.949 . S
C1880 C1884 1.368 . S
C1881 C1862 1.429 . S
C1881 C1875 1.429 . S
C1881 C1882 1.523 . S
C1882 C1863 1.368 . S
C1882 C1876 1.368 . S
C1882 C1881 1.523 . S
C1883 C1867 1.429 . S
C1883 C1879 1.429 . S
C1883 C1884 1.523 . S
C1884 C1868 1.368 . S
C1884 C1880 1.368 . S
C1884 C1883 1.523 . S
H1885 C1860 0.950 . S
H1886 C1862 0.950 . S
H1887 C1863 0.949 . S
H1888 C1865 0.950 . S
H1889 C1867 0.950 . S
C1890 C1891 1.349 . S
C1890 C1892 1.327 . S
C1890 H1915 0.950 . S
C1891 C1890 1.349 . S
C1891 C1907 1.349 . S
C1892 C1890 1.327 . S
C1892 C1911 1.429 . S
C1892 H1916 0.950 . S
C1893 C1910 1.574 . S
C1893 C1912 1.368 . S
C1893 H1917 0.949 . S
H1894 C1898 0.949 . S
C1895 C1896 1.349 . S
C1895 C1897 1.327 . S
C1895 H1918 0.950 . S
C1896 C1895 1.349 . S
C1896 C1908 1.349 . S
C1897 C1895 1.327 . S
C1897 C1913 1.429 . S
C1897 H1919 0.950 . S
C1898 H1894 0.949 . S
C1898 C1906 1.574 . S
C1898 C1914 1.368 . S
H1899 C1907 0.950 . S
H1900 C1905 0.950 . S
H1901 C1906 0.949 . S
H1902 C1908 0.950 . S
H1903 C1909 0.950 . S
H1904 C1910 0.949 . S
C1905 H1900 0.950 . S
C1905 C1907 1.327 . S
C1905 C1911 1.429 . S
C1906 C1898 1.574 . S
C1906 H1901 0.949 . S
C1906 C1912 1.368 . S
C1907 C1891 1.349 . S
C1907 H1899 0.950 . S
C1907 C1905 1.327 . S
C1908 C1896 1.349 . S
C1908 H1902 0.950 . S
C1908 C1909 1.327 . S
C1909 H1903 0.950 . S
C1909 C1908 1.327 . S
C1909 C1913 1.429 . S
C1910 C1893 1.574 . S
C1910 H1904 0.949 . S
C1910 C1914 1.368 . S
C1911 C1892 1.429 . S
C1911 C1905 1.429 . S
C1911 C1912 1.523 . S
C1912 C1893 1.368 . S
C1912 C1906 1.368 . S
C1912 C1911 1.523 . S
C1913 C1897 1.429 . S
C1913 C1909 1.429 . S
C1913 C1914 1.523 . S
C1914 C1898 1.368 . S
C1914 C1910 1.368 . S
C1914 C1913 1.523 . S
H1915 C1890 0.950 . S
H1916 C1892 0.950 . S
H1917 C1893 0.949 . S
H1918 C1895 0.950 . S
H1919 C1897 0.950 . S
C1920 C1921 1.349 . S
C1920 C1922 1.327 . S
C1920 H1945 0.950 . S
C1921 C1920 1.349 . S
C1921 C1937 1.349 . S
C1922 C1920 1.327 . S
C1922 C1941 1.429 . S
C1922 H1946 0.950 . S
C1923 C1940 1.574 . S
C1923 C1942 1.368 . S
C1923 H1947 0.949 . S
H1924 C1928 0.949 . S
C1925 C1926 1.349 . S
C1925 C1927 1.327 . S
C1925 H1948 0.950 . S
C1926 C1925 1.349 . S
C1926 C1938 1.349 . S
C1927 C1925 1.327 . S
C1927 C1943 1.429 . S
C1927 H1949 0.950 . S
C1928 H1924 0.949 . S
C1928 C1936 1.574 . S
C1928 C1944 1.368 . S
H1929 C1937 0.950 . S
H1930 C1935 0.950 . S
H1931 C1936 0.949 . S
H1932 C1938 0.950 . S
H1933 C1939 0.950 . S
H1934 C1940 0.949 . S
C1935 H1930 0.950 . S
C1935 C1937 1.327 . S
C1935 C1941 1.429 . S
C1936 C1928 1.574 . S
C1936 H1931 0.949 . S
C1936 C1942 1.368 . S
C1937 C1921 1.349 . S
C1937 H1929 0.950 . S
C1937 C1935 1.327 . S
C1938 C1926 1.349 . S
C1938 H1932 0.950 . S
C1938 C1939 1.327 . S
C1939 H1933 0.950 . S
C1939 C1938 1.327 . S
C1939 C1943 1.429 . S
C1940 C1923 1.574 . S
C1940 H1934 0.949 . S
C1940 C1944 1.368 . S
C1941 C1922 1.429 . S
C1941 C1935 1.429 . S
C1941 C1942 1.523 . S
C1942 C1923 1.368 . S
C1942 C1936 1.368 . S
C1942 C1941 1.523 . S
C1943 C1927 1.429 . S
C1943 C1939 1.429 . S
C1943 C1944 1.523 . S
C1944 C1928 1.368 . S
C1944 C1940 1.368 . S
C1944 C1943 1.523 . S
H1945 C1920 0.950 . S
H1946 C1922 0.950 . S
H1947 C1923 0.949 . S
H1948 C1925 0.950 . S
H1949 C1927 0.950 . S
C1950 C1951 1.349 . S
C1950 C1952 1.327 . S
C1950 H1975 0.950 . S
C1951 C1950 1.349 . S
C1951 C1967 1.349 . S
C1952 C1950 1.327 . S
C1952 C1971 1.429 . S
C1952 H1976 0.950 . S
C1953 C1970 1.574 . S
C1953 C1972 1.368 . S
C1953 H1977 0.949 . S
H1954 C1958 0.949 . S
C1955 C1956 1.349 . S
C1955 C1957 1.327 . S
C1955 H1978 0.950 . S
C1956 C1955 1.349 . S
C1956 C1968 1.349 . S
C1957 C1955 1.327 . S
C1957 C1973 1.429 . S
C1957 H1979 0.950 . S
C1958 H1954 0.949 . S
C1958 C1966 1.574 . S
C1958 C1974 1.368 . S
H1959 C1967 0.950 . S
H1960 C1965 0.950 . S
H1961 C1966 0.949 . S
H1962 C1968 0.950 . S
H1963 C1969 0.950 . S
H1964 C1970 0.949 . S
C1965 H1960 0.950 . S
C1965 C1967 1.327 . S
C1965 C1971 1.429 . S
C1966 C1958 1.574 . S
C1966 H1961 0.949 . S
C1966 C1972 1.368 . S
C1967 C1951 1.349 . S
C1967 H1959 0.950 . S
C1967 C1965 1.327 . S
C1968 C1956 1.349 . S
C1968 H1962 0.950 . S
C1968 C1969 1.327 . S
C1969 H1963 0.950 . S
C1969 C1968 1.327 . S
C1969 C1973 1.429 . S
C1970 C1953 1.574 . S
C1970 H1964 0.949 . S
C1970 C1974 1.368 . S
C1971 C1952 1.429 . S
C1971 C1965 1.429 . S
C1971 C1972 1.523 . S
C1972 C1953 1.368 . S
C1972 C1966 1.368 . S
C1972 C1971 1.523 . S
C1973 C1957 1.429 . S
C1973 C1969 1.429 . S
C1973 C1974 1.523 . S
C1974 C1958 1.368 . S
C1974 C1970 1.368 . S
C1974 C1973 1.523 . S
H1975 C1950 0.950 . S
H1976 C1952 0.950 . S
H1977 C1953 0.949 . S
H1978 C1955 0.950 . S
H1979 C1957 0.950 . S
C1980 C1981 1.349 . S
C1980 C1982 1.327 . S
C1980 H2005 0.950 . S
C1981 C1980 1.349 . S
C1981 C1997 1.349 . S
C1982 C1980 1.327 . S
C1982 C2001 1.429 . S
C1982 H2006 0.950 . S
C1983 C2000 1.574 . S
C1983 C2002 1.368 . S
C1983 H2007 0.949 . S
H1984 C1988 0.949 . S
C1985 C1986 1.349 . S
C1985 C1987 1.327 . S
C1985 H2008 0.950 . S
C1986 C1985 1.349 . S
C1986 C1998 1.349 . S
C1987 C1985 1.327 . S
C1987 C2003 1.429 . S
C1987 H2009 0.950 . S
C1988 H1984 0.949 . S
C1988 C1996 1.574 . S
C1988 C2004 1.368 . S
H1989 C1997 0.950 . S
H1990 C1995 0.950 . S
H1991 C1996 0.949 . S
H1992 C1998 0.950 . S
H1993 C1999 0.950 . S
H1994 C2000 0.949 . S
C1995 H1990 0.950 . S
C1995 C1997 1.327 . S
C1995 C2001 1.429 . S
C1996 C1988 1.574 . S
C1996 H1991 0.949 . S
C1996 C2002 1.368 . S
C1997 C1981 1.349 . S
C1997 H1989 0.950 . S
C1997 C1995 1.327 . S
C1998 C1986 1.349 . S
C1998 H1992 0.950 . S
C1998 C1999 1.327 . S
C1999 H1993 0.950 . S
C1999 C1998 1.327 . S
C1999 C2003 1.429 . S
C2000 C1983 1.574 . S
C2000 H1994 0.949 . S
C2000 C2004 1.368 . S
C2001 C1982 1.429 . S
C2001 C1995 1.429 . S
C2001 C2002 1.523 . S
C2002 C1983 1.368 . S
C2002 C1996 1.368 . S
C2002 C2001 1.523 . S
C2003 C1987 1.429 . S
C2003 C1999 1.429 . S
C2003 C2004 1.523 . S
C2004 C1988 1.368 . S
C2004 C2000 1.368 . S
C2004 C2003 1.523 . S
H2005 C1980 0.950 . S
H2006 C1982 0.950 . S
H2007 C1983 0.949 . S
H2008 C1985 0.950 . S
H2009 C1987 0.950 . S
C2010 C2011 1.349 . S
C2010 C2012 1.327 . S
C2010 H2035 0.950 . S
C2011 C2010 1.349 . S
C2011 C2027 1.349 . S
C2012 C2010 1.327 . S
C2012 C2031 1.429 . S
C2012 H2036 0.950 . S
C2013 C2030 1.574 . S
C2013 C2032 1.368 . S
C2013 H2037 0.949 . S
H2014 C2018 0.949 . S
C2015 C2016 1.349 . S
C2015 C2017 1.327 . S
C2015 H2038 0.950 . S
C2016 C2015 1.349 . S
C2016 C2028 1.349 . S
C2017 C2015 1.327 . S
C2017 C2033 1.429 . S
C2017 H2039 0.950 . S
C2018 H2014 0.949 . S
C2018 C2026 1.574 . S
C2018 C2034 1.368 . S
H2019 C2027 0.950 . S
H2020 C2025 0.950 . S
H2021 C2026 0.949 . S
H2022 C2028 0.950 . S
H2023 C2029 0.950 . S
H2024 C2030 0.949 . S
C2025 H2020 0.950 . S
C2025 C2027 1.327 . S
C2025 C2031 1.429 . S
C2026 C2018 1.574 . S
C2026 H2021 0.949 . S
C2026 C2032 1.368 . S
C2027 C2011 1.349 . S
C2027 H2019 0.950 . S
C2027 C2025 1.327 . S
C2028 C2016 1.349 . S
C2028 H2022 0.950 . S
C2028 C2029 1.327 . S
C2029 H2023 0.950 . S
C2029 C2028 1.327 . S
C2029 C2033 1.429 . S
C2030 C2013 1.574 . S
C2030 H2024 0.949 . S
C2030 C2034 1.368 . S
C2031 C2012 1.429 . S
C2031 C2025 1.429 . S
C2031 C2032 1.523 . S
C2032 C2013 1.368 . S
C2032 C2026 1.368 . S
C2032 C2031 1.523 . S
C2033 C2017 1.429 . S
C2033 C2029 1.429 . S
C2033 C2034 1.523 . S
C2034 C2018 1.368 . S
C2034 C2030 1.368 . S
C2034 C2033 1.523 . S
H2035 C2010 0.950 . S
H2036 C2012 0.950 . S
H2037 C2013 0.949 . S
H2038 C2015 0.950 . S
H2039 C2017 0.950 . S
C2040 C2041 1.349 . S
C2040 C2042 1.327 . S
C2040 H2065 0.950 . S
C2041 C2040 1.349 . S
C2041 C2057 1.349 . S
C2042 C2040 1.327 . S
C2042 C2061 1.429 . S
C2042 H2066 0.950 . S
C2043 C2060 1.574 . S
C2043 C2062 1.368 . S
C2043 H2067 0.949 . S
H2044 C2048 0.949 . S
C2045 C2046 1.349 . S
C2045 C2047 1.327 . S
C2045 H2068 0.950 . S
C2046 C2045 1.349 . S
C2046 C2058 1.349 . S
C2047 C2045 1.327 . S
C2047 C2063 1.429 . S
C2047 H2069 0.950 . S
C2048 H2044 0.949 . S
C2048 C2056 1.574 . S
C2048 C2064 1.368 . S
H2049 C2057 0.950 . S
H2050 C2055 0.950 . S
H2051 C2056 0.949 . S
H2052 C2058 0.950 . S
H2053 C2059 0.950 . S
H2054 C2060 0.949 . S
C2055 H2050 0.950 . S
C2055 C2057 1.327 . S
C2055 C2061 1.429 . S
C2056 C2048 1.574 . S
C2056 H2051 0.949 . S
C2056 C2062 1.368 . S
C2057 C2041 1.349 . S
C2057 H2049 0.950 . S
C2057 C2055 1.327 . S
C2058 C2046 1.349 . S
C2058 H2052 0.950 . S
C2058 C2059 1.327 . S
C2059 H2053 0.950 . S
C2059 C2058 1.327 . S
C2059 C2063 1.429 . S
C2060 C2043 1.574 . S
C2060 H2054 0.949 . S
C2060 C2064 1.368 . S
C2061 C2042 1.429 . S
C2061 C2055 1.429 . S
C2061 C2062 1.523 . S
C2062 C2043 1.368 . S
C2062 C2056 1.368 . S
C2062 C2061 1.523 . S
C2063 C2047 1.429 . S
C2063 C2059 1.429 . S
C2063 C2064 1.523 . S
C2064 C2048 1.368 . S
C2064 C2060 1.368 . S
C2064 C2063 1.523 . S
H2065 C2040 0.950 . S
H2066 C2042 0.950 . S
H2067 C2043 0.949 . S
H2068 C2045 0.950 . S
H2069 C2047 0.950 . S
C2070 C2071 1.349 . S
C2070 C2072 1.327 . S
C2070 H2095 0.950 . S
C2071 C2070 1.349 . S
C2071 C2087 1.349 . S
C2072 C2070 1.327 . S
C2072 C2091 1.429 . S
C2072 H2096 0.950 . S
C2073 C2090 1.574 . S
C2073 C2092 1.368 . S
C2073 H2097 0.949 . S
H2074 C2078 0.949 . S
C2075 C2076 1.349 . S
C2075 C2077 1.327 . S
C2075 H2098 0.950 . S
C2076 C2075 1.349 . S
C2076 C2088 1.349 . S
C2077 C2075 1.327 . S
C2077 C2093 1.429 . S
C2077 H2099 0.950 . S
C2078 H2074 0.949 . S
C2078 C2086 1.574 . S
C2078 C2094 1.368 . S
H2079 C2087 0.950 . S
H2080 C2085 0.950 . S
H2081 C2086 0.949 . S
H2082 C2088 0.950 . S
H2083 C2089 0.950 . S
H2084 C2090 0.949 . S
C2085 H2080 0.950 . S
C2085 C2087 1.327 . S
C2085 C2091 1.429 . S
C2086 C2078 1.574 . S
C2086 H2081 0.949 . S
C2086 C2092 1.368 . S
C2087 C2071 1.349 . S
C2087 H2079 0.950 . S
C2087 C2085 1.327 . S
C2088 C2076 1.349 . S
C2088 H2082 0.950 . S
C2088 C2089 1.327 . S
C2089 H2083 0.950 . S
C2089 C2088 1.327 . S
C2089 C2093 1.429 . S
C2090 C2073 1.574 . S
C2090 H2084 0.949 . S
C2090 C2094 1.368 . S
C2091 C2072 1.429 . S
C2091 C2085 1.429 . S
C2091 C2092 1.523 . S
C2092 C2073 1.368 . S
C2092 C2086 1.368 . S
C2092 C2091 1.523 . S
C2093 C2077 1.429 . S
C2093 C2089 1.429 . S
C2093 C2094 1.523 . S
C2094 C2078 1.368 . S
C2094 C2090 1.368 . S
C2094 C2093 1.523 . S
H2095 C2070 0.950 . S
H2096 C2072 0.950 . S
H2097 C2073 0.949 . S
H2098 C2075 0.950 . S
H2099 C2077 0.950 . S
C2100 C2101 1.349 . S
C2100 C2102 1.327 . S
C2100 H2125 0.950 . S
C2101 C2100 1.349 . S
C2101 C2117 1.349 . S
C2102 C2100 1.327 . S
C2102 C2121 1.429 . S
C2102 H2126 0.950 . S
C2103 C2120 1.574 . S
C2103 C2122 1.368 . S
C2103 H2127 0.949 . S
H2104 C2108 0.949 . S
C2105 C2106 1.349 . S
C2105 C2107 1.327 . S
C2105 H2128 0.950 . S
C2106 C2105 1.349 . S
C2106 C2118 1.349 . S
C2107 C2105 1.327 . S
C2107 C2123 1.429 . S
C2107 H2129 0.950 . S
C2108 H2104 0.949 . S
C2108 C2116 1.574 . S
C2108 C2124 1.368 . S
H2109 C2117 0.950 . S
H2110 C2115 0.950 . S
H2111 C2116 0.949 . S
H2112 C2118 0.950 . S
H2113 C2119 0.950 . S
H2114 C2120 0.949 . S
C2115 H2110 0.950 . S
C2115 C2117 1.327 . S
C2115 C2121 1.429 . S
C2116 C2108 1.574 . S
C2116 H2111 0.949 . S
C2116 C2122 1.368 . S
C2117 C2101 1.349 . S
C2117 H2109 0.950 . S
C2117 C2115 1.327 . S
C2118 C2106 1.349 . S
C2118 H2112 0.950 . S
C2118 C2119 1.327 . S
C2119 H2113 0.950 . S
C2119 C2118 1.327 . S
C2119 C2123 1.429 . S
C2120 C2103 1.574 . S
C2120 H2114 0.949 . S
C2120 C2124 1.368 . S
C2121 C2102 1.429 . S
C2121 C2115 1.429 . S
C2121 C2122 1.523 . S
C2122 C2103 1.368 . S
C2122 C2116 1.368 . S
C2122 C2121 1.523 . S
C2123 C2107 1.429 . S
C2123 C2119 1.429 . S
C2123 C2124 1.523 . S
C2124 C2108 1.368 . S
C2124 C2120 1.368 . S
C2124 C2123 1.523 . S
H2125 C2100 0.950 . S
H2126 C2102 0.950 . S
H2127 C2103 0.949 . S
H2128 C2105 0.950 . S
H2129 C2107 0.950 . S
C2130 C2131 1.349 . S
C2130 C2132 1.327 . S
C2130 H2155 0.950 . S
C2131 C2130 1.349 . S
C2131 C2147 1.349 . S
C2132 C2130 1.327 . S
C2132 C2151 1.429 . S
C2132 H2156 0.950 . S
C2133 C2150 1.574 . S
C2133 C2152 1.368 . S
C2133 H2157 0.949 . S
H2134 C2138 0.949 . S
C2135 C2136 1.349 . S
C2135 C2137 1.327 . S
C2135 H2158 0.950 . S
C2136 C2135 1.349 . S
C2136 C2148 1.349 . S
C2137 C2135 1.327 . S
C2137 C2153 1.429 . S
C2137 H2159 0.950 . S
C2138 H2134 0.949 . S
C2138 C2146 1.574 . S
C2138 C2154 1.368 . S
H2139 C2147 0.950 . S
H2140 C2145 0.950 . S
H2141 C2146 0.949 . S
H2142 C2148 0.950 . S
H2143 C2149 0.950 . S
H2144 C2150 0.949 . S
C2145 H2140 0.950 . S
C2145 C2147 1.327 . S
C2145 C2151 1.429 . S
C2146 C2138 1.574 . S
C2146 H2141 0.949 . S
C2146 C2152 1.368 . S
C2147 C2131 1.349 . S
C2147 H2139 0.950 . S
C2147 C2145 1.327 . S
C2148 C2136 1.349 . S
C2148 H2142 0.950 . S
C2148 C2149 1.327 . S
C2149 H2143 0.950 . S
C2149 C2148 1.327 . S
C2149 C2153 1.429 . S
C2150 C2133 1.574 . S
C2150 H2144 0.949 . S
C2150 C2154 1.368 . S
C2151 C2132 1.429 . S
C2151 C2145 1.429 . S
C2151 C2152 1.523 . S
C2152 C2133 1.368 . S
C2152 C2146 1.368 . S
C2152 C2151 1.523 . S
C2153 C2137 1.429 . S
C2153 C2149 1.429 . S
C2153 C2154 1.523 . S
C2154 C2138 1.368 . S
C2154 C2150 1.368 . S
C2154 C2153 1.523 . S
H2155 C2130 0.950 . S
H2156 C2132 0.950 . S
H2157 C2133 0.949 . S
H2158 C2135 0.950 . S
H2159 C2137 0.950 . S
C2160 C2161 1.349 . S
C2160 C2162 1.327 . S
C2160 H2185 0.950 . S
C2161 C2160 1.349 . S
C2161 C2177 1.349 . S
C2162 C2160 1.327 . S
C2162 C2181 1.429 . S
C2162 H2186 0.950 . S
C2163 C2180 1.574 . S
C2163 C2182 1.368 . S
C2163 H2187 0.949 . S
H2164 C2168 0.949 . S
C2165 C2166 1.349 . S
C2165 C2167 1.327 . S
C2165 H2188 0.950 . S
C2166 C2165 1.349 . S
C2166 C2178 1.349 . S
C2167 C2165 1.327 . S
C2167 C2183 1.429 . S
C2167 H2189 0.950 . S
C2168 H2164 0.949 . S
C2168 C2176 1.574 . S
C2168 C2184 1.368 . S
H2169 C2177 0.950 . S
H2170 C2175 0.950 . S
H2171 C2176 0.949 . S
H2172 C2178 0.950 . S
H2173 C2179 0.950 . S
H2174 C2180 0.949 . S
C2175 H2170 0.950 . S
C2175 C2177 1.327 . S
C2175 C2181 1.429 . S
C2176 C2168 1.574 . S
C2176 H2171 0.949 . S
C2176 C2182 1.368 . S
C2177 C2161 1.349 . S
C2177 H2169 0.950 . S
C2177 C2175 1.327 . S
C2178 C2166 1.349 . S
C2178 H2172 0.950 . S
C2178 C2179 1.327 . S
C2179 H2173 0.950 . S
C2179 C2178 1.327 . S
C2179 C2183 1.429 . S
C2180 C2163 1.574 . S
C2180 H2174 0.949 . S
C2180 C2184 1.368 . S
C2181 C2162 1.429 . S
C2181 C2175 1.429 . S
C2181 C2182 1.523 . S
C2182 C2163 1.368 . S
C2182 C2176 1.368 . S
C2182 C2181 1.523 . S
C2183 C2167 1.429 . S
C2183 C2179 1.429 . S
C2183 C2184 1.523 . S
C2184 C2168 1.368 . S
C2184 C2180 1.368 . S
C2184 C2183 1.523 . S
H2185 C2160 0.950 . S
H2186 C2162 0.950 . S
H2187 C2163 0.949 . S
H2188 C2165 0.950 . S
H2189 C2167 0.950 . S
C2190 C2191 1.349 . S
C2190 C2192 1.327 . S
C2190 H2215 0.950 . S
C2191 C2190 1.349 . S
C2191 C2207 1.349 . S
C2192 C2190 1.327 . S
C2192 C2211 1.429 . S
C2192 H2216 0.950 . S
C2193 C2210 1.574 . S
C2193 C2212 1.368 . S
C2193 H2217 0.949 . S
H2194 C2198 0.949 . S
C2195 C2196 1.349 . S
C2195 C2197 1.327 . S
C2195 H2218 0.950 . S
C2196 C2195 1.349 . S
C2196 C2208 1.349 . S
C2197 C2195 1.327 . S
C2197 C2213 1.429 . S
C2197 H2219 0.950 . S
C2198 H2194 0.949 . S
C2198 C2206 1.574 . S
C2198 C2214 1.368 . S
H2199 C2207 0.950 . S
H2200 C2205 0.950 . S
H2201 C2206 0.949 . S
H2202 C2208 0.950 . S
H2203 C2209 0.950 . S
H2204 C2210 0.949 . S
C2205 H2200 0.950 . S
C2205 C2207 1.327 . S
C2205 C2211 1.429 . S
C2206 C2198 1.574 . S
C2206 H2201 0.949 . S
C2206 C2212 1.368 . S
C2207 C2191 1.349 . S
C2207 H2199 0.950 . S
C2207 C2205 1.327 . S
C2208 C2196 1.349 . S
C2208 H2202 0.950 . S
C2208 C2209 1.327 . S
C2209 H2203 0.950 . S
C2209 C2208 1.327 . S
C2209 C2213 1.429 . S
C2210 C2193 1.574 . S
C2210 H2204 0.949 . S
C2210 C2214 1.368 . S
C2211 C2192 1.429 . S
C2211 C2205 1.429 . S
C2211 C2212 1.523 . S
C2212 C2193 1.368 . S
C2212 C2206 1.368 . S
C2212 C2211 1.523 . S
C2213 C2197 1.429 . S
C2213 C2209 1.429 . S
C2213 C2214 1.523 . S
C2214 C2198 1.368 . S
C2214 C2210 1.368 . S
C2214 C2213 1.523 . S
H2215 C2190 0.950 . S
H2216 C2192 0.950 . S
H2217 C2193 0.949 . S
H2218 C2195 0.950 . S
H2219 C2197 0.950 . S
C2220 C2221 1.349 . S
C2220 C2222 1.327 . S
C2220 H2245 0.950 . S
C2221 C2220 1.349 . S
C2221 C2237 1.349 . S
C2222 C2220 1.327 . S
C2222 C2241 1.429 . S
C2222 H2246 0.950 . S
C2223 C2240 1.574 . S
C2223 C2242 1.368 . S
C2223 H2247 0.949 . S
H2224 C2228 0.949 . S
C2225 C2226 1.349 . S
C2225 C2227 1.327 . S
C2225 H2248 0.950 . S
C2226 C2225 1.349 . S
C2226 C2238 1.349 . S
C2227 C2225 1.327 . S
C2227 C2243 1.429 . S
C2227 H2249 0.950 . S
C2228 H2224 0.949 . S
C2228 C2236 1.574 . S
C2228 C2244 1.368 . S
H2229 C2237 0.950 . S
H2230 C2235 0.950 . S
H2231 C2236 0.949 . S
H2232 C2238 0.950 . S
H2233 C2239 0.950 . S
H2234 C2240 0.949 . S
C2235 H2230 0.950 . S
C2235 C2237 1.327 . S
C2235 C2241 1.429 . S
C2236 C2228 1.574 . S
C2236 H2231 0.949 . S
C2236 C2242 1.368 . S
C2237 C2221 1.349 . S
C2237 H2229 0.950 . S
C2237 C2235 1.327 . S
C2238 C2226 1.349 . S
C2238 H2232 0.950 . S
C2238 C2239 1.327 . S
C2239 H2233 0.950 . S
C2239 C2238 1.327 . S
C2239 C2243 1.429 . S
C2240 C2223 1.574 . S
C2240 H2234 0.949 . S
C2240 C2244 1.368 . S
C2241 C2222 1.429 . S
C2241 C2235 1.429 . S
C2241 C2242 1.523 . S
C2242 C2223 1.368 . S
C2242 C2236 1.368 . S
C2242 C2241 1.523 . S
C2243 C2227 1.429 . S
C2243 C2239 1.429 . S
C2243 C2244 1.523 . S
C2244 C2228 1.368 . S
C2244 C2240 1.368 . S
C2244 C2243 1.523 . S
H2245 C2220 0.950 . S
H2246 C2222 0.950 . S
H2247 C2223 0.949 . S
H2248 C2225 0.950 . S
H2249 C2227 0.950 . S
C2250 C2251 1.349 . S
C2250 C2252 1.327 . S
C2250 H2275 0.950 . S
C2251 C2250 1.349 . S
C2251 C2267 1.349 . S
C2252 C2250 1.327 . S
C2252 C2271 1.429 . S
C2252 H2276 0.950 . S
C2253 C2270 1.574 . S
C2253 C2272 1.368 . S
C2253 H2277 0.949 . S
H2254 C2258 0.949 . S
C2255 C2256 1.349 . S
C2255 C2257 1.327 . S
C2255 H2278 0.950 . S
C2256 C2255 1.349 . S
C2256 C2268 1.349 . S
C2257 C2255 1.327 . S
C2257 C2273 1.429 . S
C2257 H2279 0.950 . S
C2258 H2254 0.949 . S
C2258 C2266 1.574 . S
C2258 C2274 1.368 . S
H2259 C2267 0.950 . S
H2260 C2265 0.950 . S
H2261 C2266 0.949 . S
H2262 C2268 0.950 . S
H2263 C2269 0.950 . S
H2264 C2270 0.949 . S
C2265 H2260 0.950 . S
C2265 C2267 1.327 . S
C2265 C2271 1.429 . S
C2266 C2258 1.574 . S
C2266 H2261 0.949 . S
C2266 C2272 1.368 . S
C2267 C2251 1.349 . S
C2267 H2259 0.950 . S
C2267 C2265 1.327 . S
C2268 C2256 1.349 . S
C2268 H2262 0.950 . S
C2268 C2269 1.327 . S
C2269 H2263 0.950 . S
C2269 C2268 1.327 . S
C2269 C2273 1.429 . S
C2270 C2253 1.574 . S
C2270 H2264 0.949 . S
C2270 C2274 1.368 . S
C2271 C2252 1.429 . S
C2271 C2265 1.429 . S
C2271 C2272 1.523 . S
C2272 C2253 1.368 . S
C2272 C2266 1.368 . S
C2272 C2271 1.523 . S
C2273 C2257 1.429 . S
C2273 C2269 1.429 . S
C2273 C2274 1.523 . S
C2274 C2258 1.368 . S
C2274 C2270 1.368 . S
C2274 C2273 1.523 . S
H2275 C2250 0.950 . S
H2276 C2252 0.950 . S
H2277 C2253 0.949 . S
H2278 C2255 0.950 . S
H2279 C2257 0.950 . S
C2280 C2281 1.349 . S
C2280 C2282 1.327 . S
C2280 H2305 0.950 . S
C2281 C2280 1.349 . S
C2281 C2297 1.349 . S
C2282 C2280 1.327 . S
C2282 C2301 1.429 . S
C2282 H2306 0.950 . S
C2283 C2300 1.574 . S
C2283 C2302 1.368 . S
C2283 H2307 0.949 . S
H2284 C2288 0.949 . S
C2285 C2286 1.349 . S
C2285 C2287 1.327 . S
C2285 H2308 0.950 . S
C2286 C2285 1.349 . S
C2286 C2298 1.349 . S
C2287 C2285 1.327 . S
C2287 C2303 1.429 . S
C2287 H2309 0.950 . S
C2288 H2284 0.949 . S
C2288 C2296 1.574 . S
C2288 C2304 1.368 . S
H2289 C2297 0.950 . S
H2290 C2295 0.950 . S
H2291 C2296 0.949 . S
H2292 C2298 0.950 . S
H2293 C2299 0.950 . S
H2294 C2300 0.949 . S
C2295 H2290 0.950 . S
C2295 C2297 1.327 . S
C2295 C2301 1.429 . S
C2296 C2288 1.574 . S
C2296 H2291 0.949 . S
C2296 C2302 1.368 . S
C2297 C2281 1.349 . S
C2297 H2289 0.950 . S
C2297 C2295 1.327 . S
C2298 C2286 1.349 . S
C2298 H2292 0.950 . S
C2298 C2299 1.327 . S
C2299 H2293 0.950 . S
C2299 C2298 1.327 . S
C2299 C2303 1.429 . S
C2300 C2283 1.574 . S
C2300 H2294 0.949 . S
C2300 C2304 1.368 . S
C2301 C2282 1.429 . S
C2301 C2295 1.429 . S
C2301 C2302 1.523 . S
C2302 C2283 1.368 . S
C2302 C2296 1.368 . S
C2302 C2301 1.523 . S
C2303 C2287 1.429 . S
C2303 C2299 1.429 . S
C2303 C2304 1.523 . S
C2304 C2288 1.368 . S
C2304 C2300 1.368 . S
C2304 C2303 1.523 . S
H2305 C2280 0.950 . S
H2306 C2282 0.950 . S
H2307 C2283 0.949 . S
H2308 C2285 0.950 . S
H2309 C2287 0.950 . S
C2310 C2311 1.349 . S
C2310 C2312 1.327 . S
C2310 H2335 0.950 . S
C2311 C2310 1.349 . S
C2311 C2327 1.349 . S
C2312 C2310 1.327 . S
C2312 C2331 1.429 . S
C2312 H2336 0.950 . S
C2313 C2330 1.574 . S
C2313 C2332 1.368 . S
C2313 H2337 0.949 . S
H2314 C2318 0.949 . S
C2315 C2316 1.349 . S
C2315 C2317 1.327 . S
C2315 H2338 0.950 . S
C2316 C2315 1.349 . S
C2316 C2328 1.349 . S
C2317 C2315 1.327 . S
C2317 C2333 1.429 . S
C2317 H2339 0.950 . S
C2318 H2314 0.949 . S
C2318 C2326 1.574 . S
C2318 C2334 1.368 . S
H2319 C2327 0.950 . S
H2320 C2325 0.950 . S
H2321 C2326 0.949 . S
H2322 C2328 0.950 . S
H2323 C2329 0.950 . S
H2324 C2330 0.949 . S
C2325 H2320 0.950 . S
C2325 C2327 1.327 . S
C2325 C2331 1.429 . S
C2326 C2318 1.574 . S
C2326 H2321 0.949 . S
C2326 C2332 1.368 . S
C2327 C2311 1.349 . S
C2327 H2319 0.950 . S
C2327 C2325 1.327 . S
C2328 C2316 1.349 . S
C2328 H2322 0.950 . S
C2328 C2329 1.327 . S
C2329 H2323 0.950 . S
C2329 C2328 1.327 . S
C2329 C2333 1.429 . S
C2330 C2313 1.574 . S
C2330 H2324 0.949 . S
C2330 C2334 1.368 . S
C2331 C2312 1.429 . S
C2331 C2325 1.429 . S
C2331 C2332 1.523 . S
C2332 C2313 1.368 . S
C2332 C2326 1.368 . S
C2332 C2331 1.523 . S
C2333 C2317 1.429 . S
C2333 C2329 1.429 . S
C2333 C2334 1.523 . S
C2334 C2318 1.368 . S
C2334 C2330 1.368 . S
C2334 C2333 1.523 . S
H2335 C2310 0.950 . S
H2336 C2312 0.950 . S
H2337 C2313 0.949 . S
H2338 C2315 0.950 . S
H2339 C2317 0.950 . S
C2340 C2341 1.349 . S
C2340 C2342 1.327 . S
C2340 H2365 0.950 . S
C2341 C2340 1.349 . S
C2341 C2357 1.349 . S
C2342 C2340 1.327 . S
C2342 C2361 1.429 . S
C2342 H2366 0.950 . S
C2343 C2360 1.574 . S
C2343 C2362 1.368 . S
C2343 H2367 0.949 . S
H2344 C2348 0.949 . S
C2345 C2346 1.349 . S
C2345 C2347 1.327 . S
C2345 H2368 0.950 . S
C2346 C2345 1.349 . S
C2346 C2358 1.349 . S
C2347 C2345 1.327 . S
C2347 C2363 1.429 . S
C2347 H2369 0.950 . S
C2348 H2344 0.949 . S
C2348 C2356 1.574 . S
C2348 C2364 1.368 . S
H2349 C2357 0.950 . S
H2350 C2355 0.950 . S
H2351 C2356 0.949 . S
H2352 C2358 0.950 . S
H2353 C2359 0.950 . S
H2354 C2360 0.949 . S
C2355 H2350 0.950 . S
C2355 C2357 1.327 . S
C2355 C2361 1.429 . S
C2356 C2348 1.574 . S
C2356 H2351 0.949 . S
C2356 C2362 1.368 . S
C2357 C2341 1.349 . S
C2357 H2349 0.950 . S
C2357 C2355 1.327 . S
C2358 C2346 1.349 . S
C2358 H2352 0.950 . S
C2358 C2359 1.327 . S
C2359 H2353 0.950 . S
C2359 C2358 1.327 . S
C2359 C2363 1.429 . S
C2360 C2343 1.574 . S
C2360 H2354 0.949 . S
C2360 C2364 1.368 . S
C2361 C2342 1.429 . S
C2361 C2355 1.429 . S
C2361 C2362 1.523 . S
C2362 C2343 1.368 . S
C2362 C2356 1.368 . S
C2362 C2361 1.523 . S
C2363 C2347 1.429 . S
C2363 C2359 1.429 . S
C2363 C2364 1.523 . S
C2364 C2348 1.368 . S
C2364 C2360 1.368 . S
C2364 C2363 1.523 . S
H2365 C2340 0.950 . S
H2366 C2342 0.950 . S
H2367 C2343 0.949 . S
H2368 C2345 0.950 . S
H2369 C2347 0.950 . S
C2370 C2371 1.349 . S
C2370 C2372 1.327 . S
C2370 H2395 0.950 . S
C2371 C2370 1.349 . S
C2371 C2387 1.349 . S
C2372 C2370 1.327 . S
C2372 C2391 1.429 . S
C2372 H2396 0.950 . S
C2373 C2390 1.574 . S
C2373 C2392 1.368 . S
C2373 H2397 0.949 . S
H2374 C2378 0.949 . S
C2375 C2376 1.349 . S
C2375 C2377 1.327 . S
C2375 H2398 0.950 . S
C2376 C2375 1.349 . S
C2376 C2388 1.349 . S
C2377 C2375 1.327 . S
C2377 C2393 1.429 . S
C2377 H2399 0.950 . S
C2378 H2374 0.949 . S
C2378 C2386 1.574 . S
C2378 C2394 1.368 . S
H2379 C2387 0.950 . S
H2380 C2385 0.950 . S
H2381 C2386 0.949 . S
H2382 C2388 0.950 . S
H2383 C2389 0.950 . S
H2384 C2390 0.949 . S
C2385 H2380 0.950 . S
C2385 C2387 1.327 . S
C2385 C2391 1.429 . S
C2386 C2378 1.574 . S
C2386 H2381 0.949 . S
C2386 C2392 1.368 . S
C2387 C2371 1.349 . S
C2387 H2379 0.950 . S
C2387 C2385 1.327 . S
C2388 C2376 1.349 . S
C2388 H2382 0.950 . S
C2388 C2389 1.327 . S
C2389 H2383 0.950 . S
C2389 C2388 1.327 . S
C2389 C2393 1.429 . S
C2390 C2373 1.574 . S
C2390 H2384 0.949 . S
C2390 C2394 1.368 . S
C2391 C2372 1.429 . S
C2391 C2385 1.429 . S
C2391 C2392 1.523 . S
C2392 C2373 1.368 . S
C2392 C2386 1.368 . S
C2392 C2391 1.523 . S
C2393 C2377 1.429 . S
C2393 C2389 1.429 . S
C2393 C2394 1.523 . S
C2394 C2378 1.368 . S
C2394 C2390 1.368 . S
C2394 C2393 1.523 . S
H2395 C2370 0.950 . S
H2396 C2372 0.950 . S
H2397 C2373 0.949 . S
H2398 C2375 0.950 . S
H2399 C2377 0.950 . S
C2400 C2401 1.349 . S
C2400 C2402 1.327 . S
C2400 H2425 0.950 . S
C2401 C2400 1.349 . S
C2401 C2417 1.349 . S
C2402 C2400 1.327 . S
C2402 C2421 1.429 . S
C2402 H2426 0.950 . S
C2403 C2420 1.574 . S
C2403 C2422 1.368 . S
C2403 H2427 0.949 . S
H2404 C2408 0.949 . S
C2405 C2406 1.349 . S
C2405 C2407 1.327 . S
C2405 H2428 0.950 . S
C2406 C2405 1.349 . S
C2406 C2418 1.349 . S
C2407 C2405 1.327 . S
C2407 C2423 1.429 . S
C2407 H2429 0.950 . S
C2408 H2404 0.949 . S
C2408 C2416 1.574 . S
C2408 C2424 1.368 . S
H2409 C2417 0.950 . S
H2410 C2415 0.950 . S
H2411 C2416 0.949 . S
H2412 C2418 0.950 . S
H2413 C2419 0.950 . S
H2414 C2420 0.949 . S
C2415 H2410 0.950 . S
C2415 C2417 1.327 . S
C2415 C2421 1.429 . S
C2416 C2408 1.574 . S
C2416 H2411 0.949 . S
C2416 C2422 1.368 . S
C2417 C2401 1.349 . S
C2417 H2409 0.950 . S
C2417 C2415 1.327 . S
C2418 C2406 1.349 . S
C2418 H2412 0.950 . S
C2418 C2419 1.327 . S
C2419 H2413 0.950 . S
C2419 C2418 1.327 . S
C2419 C2423 1.429 . S
C2420 C2403 1.574 . S
C2420 H2414 0.949 . S
C2420 C2424 1.368 . S
C2421 C2402 1.429 . S
C2421 C2415 1.429 . S
C2421 C2422 1.523 . S
C2422 C2403 1.368 . S
C2422 C2416 1.368 . S
C2422 C2421 1.523 . S
C2423 C2407 1.429 . S
C2423 C2419 1.429 . S
C2423 C2424 1.523 . S
C2424 C2408 1.368 . S
C2424 C2420 1.368 . S
C2424 C2423 1.523 . S
H2425 C2400 0.950 . S
H2426 C2402 0.950 . S
H2427 C2403 0.949 . S
H2428 C2405 0.950 . S
H2429 C2407 0.950 . S
C2430 C2431 1.349 . S
C2430 C2432 1.327 . S
C2430 H2455 0.950 . S
C2431 C2430 1.349 . S
C2431 C2447 1.349 . S
C2432 C2430 1.327 . S
C2432 C2451 1.429 . S
C2432 H2456 0.950 . S
C2433 C2450 1.574 . S
C2433 C2452 1.368 . S
C2433 H2457 0.949 . S
H2434 C2438 0.949 . S
C2435 C2436 1.349 . S
C2435 C2437 1.327 . S
C2435 H2458 0.950 . S
C2436 C2435 1.349 . S
C2436 C2448 1.349 . S
C2437 C2435 1.327 . S
C2437 C2453 1.429 . S
C2437 H2459 0.950 . S
C2438 H2434 0.949 . S
C2438 C2446 1.574 . S
C2438 C2454 1.368 . S
H2439 C2447 0.950 . S
H2440 C2445 0.950 . S
H2441 C2446 0.949 . S
H2442 C2448 0.950 . S
H2443 C2449 0.950 . S
H2444 C2450 0.949 . S
C2445 H2440 0.950 . S
C2445 C2447 1.327 . S
C2445 C2451 1.429 . S
C2446 C2438 1.574 . S
C2446 H2441 0.949 . S
C2446 C2452 1.368 . S
C2447 C2431 1.349 . S
C2447 H2439 0.950 . S
C2447 C2445 1.327 . S
C2448 C2436 1.349 . S
C2448 H2442 0.950 . S
C2448 C2449 1.327 . S
C2449 H2443 0.950 . S
C2449 C2448 1.327 . S
C2449 C2453 1.429 . S
C2450 C2433 1.574 . S
C2450 H2444 0.949 . S
C2450 C2454 1.368 . S
C2451 C2432 1.429 . S
C2451 C2445 1.429 . S
C2451 C2452 1.523 . S
C2452 C2433 1.368 . S
C2452 C2446 1.368 . S
C2452 C2451 1.523 . S
C2453 C2437 1.429 . S
C2453 C2449 1.429 . S
C2453 C2454 1.523 . S
C2454 C2438 1.368 . S
C2454 C2450 1.368 . S
C2454 C2453 1.523 . S
H2455 C2430 0.950 . S
H2456 C2432 0.950 . S
H2457 C2433 0.949 . S
H2458 C2435 0.950 . S
H2459 C2437 0.950 . S
C2460 C2461 1.349 . S
C2460 C2462 1.327 . S
C2460 H2485 0.950 . S
C2461 C2460 1.349 . S
C2461 C2477 1.349 . S
C2462 C2460 1.327 . S
C2462 C2481 1.429 . S
C2462 H2486 0.950 . S
C2463 C2480 1.574 . S
C2463 C2482 1.368 . S
C2463 H2487 0.949 . S
H2464 C2468 0.949 . S
C2465 C2466 1.349 . S
C2465 C2467 1.327 . S
C2465 H2488 0.950 . S
C2466 C2465 1.349 . S
C2466 C2478 1.349 . S
C2467 C2465 1.327 . S
C2467 C2483 1.429 . S
C2467 H2489 0.950 . S
C2468 H2464 0.949 . S
C2468 C2476 1.574 . S
C2468 C2484 1.368 . S
H2469 C2477 0.950 . S
H2470 C2475 0.950 . S
H2471 C2476 0.949 . S
H2472 C2478 0.950 . S
H2473 C2479 0.950 . S
H2474 C2480 0.949 . S
C2475 H2470 0.950 . S
C2475 C2477 1.327 . S
C2475 C2481 1.429 . S
C2476 C2468 1.574 . S
C2476 H2471 0.949 . S
C2476 C2482 1.368 . S
C2477 C2461 1.349 . S
C2477 H2469 0.950 . S
C2477 C2475 1.327 . S
C2478 C2466 1.349 . S
C2478 H2472 0.950 . S
C2478 C2479 1.327 . S
C2479 H2473 0.950 . S
C2479 C2478 1.327 . S
C2479 C2483 1.429 . S
C2480 C2463 1.574 . S
C2480 H2474 0.949 . S
C2480 C2484 1.368 . S
C2481 C2462 1.429 . S
C2481 C2475 1.429 . S
C2481 C2482 1.523 . S
C2482 C2463 1.368 . S
C2482 C2476 1.368 . S
C2482 C2481 1.523 . S
C2483 C2467 1.429 . S
C2483 C2479 1.429 . S
C2483 C2484 1.523 . S
C2484 C2468 1.368 . S
C2484 C2480 1.368 . S
C2484 C2483 1.523 . S
H2485 C2460 0.950 . S
H2486 C2462 0.950 . S
H2487 C2463 0.949 . S
H2488 C2465 0.950 . S
H2489 C2467 0.950 . S
C2490 C2491 1.349 . S
C2490 C2492 1.327 . S
C2490 H2515 0.950 . S
C2491 C2490 1.349 . S
C2491 C2507 1.349 . S
C2492 C2490 1.327 . S
C2492 C2511 1.429 . S
C2492 H2516 0.950 . S
C2493 C2510 1.574 . S
C2493 C2512 1.368 . S
C2493 H2517 0.949 . S
H2494 C2498 0.949 . S
C2495 C2496 1.349 . S
C2495 C2497 1.327 . S
C2495 H2518 0.950 . S
C2496 C2495 1.349 . S
C2496 C2508 1.349 . S
C2497 C2495 1.327 . S
C2497 C2513 1.429 . S
C2497 H2519 0.950 . S
C2498 H2494 0.949 . S
C2498 C2506 1.574 . S
C2498 C2514 1.368 . S
H2499 C2507 0.950 . S
H2500 C2505 0.950 . S
H2501 C2506 0.949 . S
H2502 C2508 0.950 . S
H2503 C2509 0.950 . S
H2504 C2510 0.949 . S
C2505 H2500 0.950 . S
C2505 C2507 1.327 . S
C2505 C2511 1.429 . S
C2506 C2498 1.574 . S
C2506 H2501 0.949 . S
C2506 C2512 1.368 . S
C2507 C2491 1.349 . S
C2507 H2499 0.950 . S
C2507 C2505 1.327 . S
C2508 C2496 1.349 . S
C2508 H2502 0.950 . S
C2508 C2509 1.327 . S
C2509 H2503 0.950 . S
C2509 C2508 1.327 . S
C2509 C2513 1.429 . S
C2510 C2493 1.574 . S
C2510 H2504 0.949 . S
C2510 C2514 1.368 . S
C2511 C2492 1.429 . S
C2511 C2505 1.429 . S
C2511 C2512 1.523 . S
C2512 C2493 1.368 . S
C2512 C2506 1.368 . S
C2512 C2511 1.523 . S
C2513 C2497 1.429 . S
C2513 C2509 1.429 . S
C2513 C2514 1.523 . S
C2514 C2498 1.368 . S
C2514 C2510 1.368 . S
C2514 C2513 1.523 . S
H2515 C2490 0.950 . S
H2516 C2492 0.950 . S
H2517 C2493 0.949 . S
H2518 C2495 0.950 . S
H2519 C2497 0.950 . S
C2520 C2521 1.349 . S
C2520 C2522 1.327 . S
C2520 H2545 0.950 . S
C2521 C2520 1.349 . S
C2521 C2537 1.349 1_556 S
C2522 C2520 1.327 . S
C2522 C2541 1.429 . S
C2522 H2546 0.950 . S
C2523 C2540 1.574 . S
C2523 C2542 1.368 . S
C2523 H2547 0.949 . S
H2524 C2528 0.949 . S
C2525 C2526 1.349 . S
C2525 C2527 1.327 . S
C2525 H2548 0.950 . S
C2526 C2525 1.349 . S
C2526 C2538 1.349 . S
C2527 C2525 1.327 . S
C2527 C2543 1.429 . S
C2527 H2549 0.950 . S
C2528 H2524 0.949 . S
C2528 C2536 1.574 . S
C2528 C2544 1.368 . S
H2529 C2537 0.950 . S
H2530 C2535 0.951 1_554 S
H2531 C2536 0.949 . S
H2532 C2538 0.950 . S
H2533 C2539 0.950 . S
H2534 C2540 0.949 . S
C2535 H2530 0.951 1_556 S
C2535 C2537 1.327 1_556 S
C2535 C2541 1.429 . S
C2536 C2528 1.574 . S
C2536 H2531 0.949 . S
C2536 C2542 1.368 . S
C2537 C2521 1.349 1_554 S
C2537 H2529 0.950 . S
C2537 C2535 1.327 1_554 S
C2538 C2526 1.349 . S
C2538 H2532 0.950 . S
C2538 C2539 1.327 . S
C2539 H2533 0.950 . S
C2539 C2538 1.327 . S
C2539 C2543 1.429 . S
C2540 C2523 1.574 . S
C2540 H2534 0.949 . S
C2540 C2544 1.368 . S
C2541 C2522 1.429 . S
C2541 C2535 1.429 . S
C2541 C2542 1.523 . S
C2542 C2523 1.368 . S
C2542 C2536 1.368 . S
C2542 C2541 1.523 . S
C2543 C2527 1.429 . S
C2543 C2539 1.429 . S
C2543 C2544 1.523 . S
C2544 C2528 1.368 . S
C2544 C2540 1.368 . S
C2544 C2543 1.523 . S
H2545 C2520 0.950 . S
H2546 C2522 0.950 . S
H2547 C2523 0.949 . S
H2548 C2525 0.950 . S
H2549 C2527 0.950 . S
C2550 C2551 1.349 . S
C2550 C2552 1.327 . S
C2550 H2575 0.950 . S
C2551 C2550 1.349 . S
C2551 C2567 1.349 1_556 S
C2552 C2550 1.327 . S
C2552 C2571 1.429 . S
C2552 H2576 0.950 . S
C2553 C2570 1.574 . S
C2553 C2572 1.368 . S
C2553 H2577 0.949 . S
H2554 C2558 0.949 . S
C2555 C2556 1.349 . S
C2555 C2557 1.327 . S
C2555 H2578 0.950 . S
C2556 C2555 1.349 . S
C2556 C2568 1.349 . S
C2557 C2555 1.327 . S
C2557 C2573 1.429 . S
C2557 H2579 0.950 . S
C2558 H2554 0.949 . S
C2558 C2566 1.574 . S
C2558 C2574 1.368 . S
H2559 C2567 0.950 . S
H2560 C2565 0.950 1_554 S
H2561 C2566 0.949 . S
H2562 C2568 0.950 . S
H2563 C2569 0.950 . S
H2564 C2570 0.949 . S
C2565 H2560 0.950 1_556 S
C2565 C2567 1.327 1_556 S
C2565 C2571 1.429 . S
C2566 C2558 1.574 . S
C2566 H2561 0.949 . S
C2566 C2572 1.368 . S
C2567 C2551 1.349 1_554 S
C2567 H2559 0.950 . S
C2567 C2565 1.327 1_554 S
C2568 C2556 1.349 . S
C2568 H2562 0.950 . S
C2568 C2569 1.327 . S
C2569 H2563 0.950 . S
C2569 C2568 1.327 . S
C2569 C2573 1.429 . S
C2570 C2553 1.574 . S
C2570 H2564 0.949 . S
C2570 C2574 1.368 . S
C2571 C2552 1.429 . S
C2571 C2565 1.429 . S
C2571 C2572 1.523 . S
C2572 C2553 1.368 . S
C2572 C2566 1.368 . S
C2572 C2571 1.523 . S
C2573 C2557 1.429 . S
C2573 C2569 1.429 . S
C2573 C2574 1.523 . S
C2574 C2558 1.368 . S
C2574 C2570 1.368 . S
C2574 C2573 1.523 . S
H2575 C2550 0.950 . S
H2576 C2552 0.950 . S
H2577 C2553 0.949 . S
H2578 C2555 0.950 . S
H2579 C2557 0.950 . S
C2580 C2581 1.349 1_554 S
C2580 C2582 1.327 1_554 S
C2580 H2605 0.950 . S
C2581 C2580 1.349 1_556 S
C2581 C2597 1.349 . S
C2582 C2580 1.327 1_556 S
C2582 C2601 1.429 . S
C2582 H2606 0.950 1_556 S
C2583 C2600 1.574 . S
C2583 C2602 1.368 . S
C2583 H2607 0.949 . S
H2584 C2588 0.949 . S
C2585 C2586 1.349 . S
C2585 C2587 1.327 . S
C2585 H2608 0.950 . S
C2586 C2585 1.349 . S
C2586 C2598 1.349 . S
C2587 C2585 1.327 . S
C2587 C2603 1.429 . S
C2587 H2609 0.950 . S
C2588 H2584 0.949 . S
C2588 C2596 1.574 . S
C2588 C2604 1.368 . S
H2589 C2597 0.950 . S
H2590 C2595 0.950 . S
H2591 C2596 0.949 . S
H2592 C2598 0.950 . S
H2593 C2599 0.950 . S
H2594 C2600 0.949 . S
C2595 H2590 0.950 . S
C2595 C2597 1.327 . S
C2595 C2601 1.429 . S
C2596 C2588 1.574 . S
C2596 H2591 0.949 . S
C2596 C2602 1.368 . S
C2597 C2581 1.349 . S
C2597 H2589 0.950 . S
C2597 C2595 1.327 . S
C2598 C2586 1.349 . S
C2598 H2592 0.950 . S
C2598 C2599 1.327 . S
C2599 H2593 0.950 . S
C2599 C2598 1.327 . S
C2599 C2603 1.429 . S
C2600 C2583 1.574 . S
C2600 H2594 0.949 . S
C2600 C2604 1.368 . S
C2601 C2582 1.429 . S
C2601 C2595 1.429 . S
C2601 C2602 1.523 . S
C2602 C2583 1.368 . S
C2602 C2596 1.368 . S
C2602 C2601 1.523 . S
C2603 C2587 1.429 . S
C2603 C2599 1.429 . S
C2603 C2604 1.523 . S
C2604 C2588 1.368 . S
C2604 C2600 1.368 . S
C2604 C2603 1.523 . S
H2605 C2580 0.950 . S
H2606 C2582 0.950 1_554 S
H2607 C2583 0.949 . S
H2608 C2585 0.950 . S
H2609 C2587 0.950 . S
C2610 C2611 1.349 . S
C2610 C2612 1.327 . S
C2610 H2635 0.950 . S
C2611 C2610 1.349 . S
C2611 C2627 1.349 . S
C2612 C2610 1.327 . S
C2612 C2631 1.429 . S
C2612 H2636 0.950 . S
C2613 C2630 1.574 . S
C2613 C2632 1.368 . S
C2613 H2637 0.949 . S
H2614 C2618 0.949 . S
C2615 C2616 1.349 . S
C2615 C2617 1.327 . S
C2615 H2638 0.950 . S
C2616 C2615 1.349 . S
C2616 C2628 1.349 . S
C2617 C2615 1.327 . S
C2617 C2633 1.429 . S
C2617 H2639 0.950 . S
C2618 H2614 0.949 . S
C2618 C2626 1.574 . S
C2618 C2634 1.368 . S
H2619 C2627 0.950 1_554 S
H2620 C2625 0.950 . S
H2621 C2626 0.949 . S
H2622 C2628 0.950 . S
H2623 C2629 0.950 . S
H2624 C2630 0.949 . S
C2625 H2620 0.950 . S
C2625 C2627 1.327 . S
C2625 C2631 1.429 . S
C2626 C2618 1.574 . S
C2626 H2621 0.949 . S
C2626 C2632 1.368 . S
C2627 C2611 1.349 . S
C2627 H2619 0.950 1_556 S
C2627 C2625 1.327 . S
C2628 C2616 1.349 . S
C2628 H2622 0.950 . S
C2628 C2629 1.327 . S
C2629 H2623 0.950 . S
C2629 C2628 1.327 . S
C2629 C2633 1.429 . S
C2630 C2613 1.574 . S
C2630 H2624 0.949 . S
C2630 C2634 1.368 . S
C2631 C2612 1.429 . S
C2631 C2625 1.429 . S
C2631 C2632 1.523 . S
C2632 C2613 1.368 . S
C2632 C2626 1.368 . S
C2632 C2631 1.523 . S
C2633 C2617 1.429 . S
C2633 C2629 1.429 . S
C2633 C2634 1.523 . S
C2634 C2618 1.368 . S
C2634 C2630 1.368 . S
C2634 C2633 1.523 . S
H2635 C2610 0.950 . S
H2636 C2612 0.950 . S
H2637 C2613 0.949 . S
H2638 C2615 0.950 . S
H2639 C2617 0.950 . S
C2640 C2641 1.355 . S
C2640 C2642 1.335 . S
C2640 H2665 0.936 1_556 S
C2641 C2640 1.355 . S
C2641 C2657 1.349 . S
C2642 C2640 1.335 . S
C2642 C2661 1.429 . S
C2642 H2666 0.950 . S
C2643 C2660 1.574 . S
C2643 C2662 1.368 . S
C2643 H2667 0.949 . S
H2644 C2648 0.949 . S
C2645 C2646 1.349 . S
C2645 C2647 1.327 . S
C2645 H2668 0.950 . S
C2646 C2645 1.349 . S
C2646 C2658 1.349 . S
C2647 C2645 1.327 . S
C2647 C2663 1.429 . S
C2647 H2669 0.950 . S
C2648 H2644 0.949 . S
C2648 C2656 1.574 . S
C2648 C2664 1.368 . S
H2649 C2657 0.950 . S
H2650 C2655 0.950 . S
H2651 C2656 0.949 . S
H2652 C2658 0.950 . S
H2653 C2659 0.950 . S
H2654 C2660 0.949 . S
C2655 H2650 0.950 . S
C2655 C2657 1.327 . S
C2655 C2661 1.429 . S
C2656 C2648 1.574 . S
C2656 H2651 0.949 . S
C2656 C2662 1.368 . S
C2657 C2641 1.349 . S
C2657 H2649 0.950 . S
C2657 C2655 1.327 . S
C2658 C2646 1.349 . S
C2658 H2652 0.950 . S
C2658 C2659 1.327 . S
C2659 H2653 0.950 . S
C2659 C2658 1.327 . S
C2659 C2663 1.429 . S
C2660 C2643 1.574 . S
C2660 H2654 0.949 . S
C2660 C2664 1.368 . S
C2661 C2642 1.429 . S
C2661 C2655 1.429 . S
C2661 C2662 1.523 . S
C2662 C2643 1.368 . S
C2662 C2656 1.368 . S
C2662 C2661 1.523 . S
C2663 C2647 1.429 . S
C2663 C2659 1.429 . S
C2663 C2664 1.523 . S
C2664 C2648 1.368 . S
C2664 C2660 1.368 . S
C2664 C2663 1.523 . S
H2665 C2640 0.936 1_554 S
H2666 C2642 0.950 . S
H2667 C2643 0.949 . S
H2668 C2645 0.950 . S
H2669 C2647 0.950 . S
C2670 C2671 1.349 . S
C2670 C2672 1.327 . S
C2670 H2695 0.950 . S
C2671 C2670 1.349 . S
C2671 C2687 1.349 1_556 S
C2672 C2670 1.327 . S
C2672 C2691 1.429 . S
C2672 H2696 0.950 . S
C2673 C2690 1.574 . S
C2673 C2692 1.368 . S
C2673 H2697 0.949 . S
H2674 C2678 0.949 . S
C2675 C2676 1.349 . S
C2675 C2677 1.327 . S
C2675 H2698 0.950 . S
C2676 C2675 1.349 . S
C2676 C2688 1.349 . S
C2677 C2675 1.327 . S
C2677 C2693 1.429 . S
C2677 H2699 0.950 . S
C2678 H2674 0.949 . S
C2678 C2686 1.574 . S
C2678 C2694 1.368 . S
H2679 C2687 0.950 . S
H2680 C2685 0.950 1_554 S
H2681 C2686 0.949 . S
H2682 C2688 0.950 . S
H2683 C2689 0.950 . S
H2684 C2690 0.949 . S
C2685 H2680 0.950 1_556 S
C2685 C2687 1.327 1_556 S
C2685 C2691 1.429 . S
C2686 C2678 1.574 . S
C2686 H2681 0.949 . S
C2686 C2692 1.368 . S
C2687 C2671 1.349 1_554 S
C2687 H2679 0.950 . S
C2687 C2685 1.327 1_554 S
C2688 C2676 1.349 . S
C2688 H2682 0.950 . S
C2688 C2689 1.327 . S
C2689 H2683 0.950 . S
C2689 C2688 1.327 . S
C2689 C2693 1.429 . S
C2690 C2673 1.574 . S
C2690 H2684 0.949 . S
C2690 C2694 1.368 . S
C2691 C2672 1.429 . S
C2691 C2685 1.429 . S
C2691 C2692 1.523 . S
C2692 C2673 1.368 . S
C2692 C2686 1.368 . S
C2692 C2691 1.523 . S
C2693 C2677 1.429 . S
C2693 C2689 1.429 . S
C2693 C2694 1.523 . S
C2694 C2678 1.368 . S
C2694 C2690 1.368 . S
C2694 C2693 1.523 . S
H2695 C2670 0.950 . S
H2696 C2672 0.950 . S
H2697 C2673 0.949 . S
H2698 C2675 0.950 . S
H2699 C2677 0.950 . S
C2700 C2701 1.349 . S
C2700 C2702 1.327 . S
C2700 H2725 0.950 . S
C2701 C2700 1.349 . S
C2701 C2717 1.349 . S
C2702 C2700 1.327 . S
C2702 C2721 1.429 . S
C2702 H2726 0.950 . S
C2703 C2720 1.574 . S
C2703 C2722 1.368 . S
C2703 H2727 0.949 . S
H2704 C2708 0.949 . S
C2705 C2706 1.349 . S
C2705 C2707 1.327 . S
C2705 H2728 0.950 . S
C2706 C2705 1.349 . S
C2706 C2718 1.349 . S
C2707 C2705 1.327 . S
C2707 C2723 1.429 . S
C2707 H2729 0.950 . S
C2708 H2704 0.949 . S
C2708 C2716 1.574 . S
C2708 C2724 1.368 . S
H2709 C2717 0.950 . S
H2710 C2715 0.950 . S
H2711 C2716 0.949 . S
H2712 C2718 0.950 . S
H2713 C2719 0.950 . S
H2714 C2720 0.949 . S
C2715 H2710 0.950 . S
C2715 C2717 1.327 . S
C2715 C2721 1.429 . S
C2716 C2708 1.574 . S
C2716 H2711 0.949 . S
C2716 C2722 1.368 . S
C2717 C2701 1.349 . S
C2717 H2709 0.950 . S
C2717 C2715 1.327 . S
C2718 C2706 1.349 . S
C2718 H2712 0.950 . S
C2718 C2719 1.327 . S
C2719 H2713 0.950 . S
C2719 C2718 1.327 . S
C2719 C2723 1.429 . S
C2720 C2703 1.574 . S
C2720 H2714 0.949 . S
C2720 C2724 1.368 . S
C2721 C2702 1.429 . S
C2721 C2715 1.429 . S
C2721 C2722 1.523 . S
C2722 C2703 1.368 . S
C2722 C2716 1.368 . S
C2722 C2721 1.523 . S
C2723 C2707 1.429 . S
C2723 C2719 1.429 . S
C2723 C2724 1.523 . S
C2724 C2708 1.368 . S
C2724 C2720 1.368 . S
C2724 C2723 1.523 . S
H2725 C2700 0.950 . S
H2726 C2702 0.950 . S
H2727 C2703 0.949 . S
H2728 C2705 0.950 . S
H2729 C2707 0.950 . S
C2730 C2731 1.349 . S
C2730 C2732 1.327 . S
C2730 H2755 0.950 . S
C2731 C2730 1.349 . S
C2731 C2747 1.349 . S
C2732 C2730 1.327 . S
C2732 C2751 1.429 . S
C2732 H2756 0.950 . S
C2733 C2750 1.574 . S
C2733 C2752 1.368 . S
C2733 H2757 0.949 . S
H2734 C2738 0.949 . S
C2735 C2736 1.349 . S
C2735 C2737 1.327 . S
C2735 H2758 0.950 . S
C2736 C2735 1.349 . S
C2736 C2748 1.349 . S
C2737 C2735 1.327 . S
C2737 C2753 1.429 . S
C2737 H2759 0.950 . S
C2738 H2734 0.949 . S
C2738 C2746 1.574 . S
C2738 C2754 1.368 . S
H2739 C2747 0.950 . S
H2740 C2745 0.950 . S
H2741 C2746 0.949 . S
H2742 C2748 0.950 . S
H2743 C2749 0.950 . S
H2744 C2750 0.949 . S
C2745 H2740 0.950 . S
C2745 C2747 1.327 . S
C2745 C2751 1.429 . S
C2746 C2738 1.574 . S
C2746 H2741 0.949 . S
C2746 C2752 1.368 . S
C2747 C2731 1.349 . S
C2747 H2739 0.950 . S
C2747 C2745 1.327 . S
C2748 C2736 1.349 . S
C2748 H2742 0.950 . S
C2748 C2749 1.327 . S
C2749 H2743 0.950 . S
C2749 C2748 1.327 . S
C2749 C2753 1.429 . S
C2750 C2733 1.574 . S
C2750 H2744 0.949 . S
C2750 C2754 1.368 . S
C2751 C2732 1.429 . S
C2751 C2745 1.429 . S
C2751 C2752 1.523 . S
C2752 C2733 1.368 . S
C2752 C2746 1.368 . S
C2752 C2751 1.523 . S
C2753 C2737 1.429 . S
C2753 C2749 1.429 . S
C2753 C2754 1.523 . S
C2754 C2738 1.368 . S
C2754 C2750 1.368 . S
C2754 C2753 1.523 . S
H2755 C2730 0.950 . S
H2756 C2732 0.950 . S
H2757 C2733 0.949 . S
H2758 C2735 0.950 . S
H2759 C2737 0.950 . S
C2760 C2761 1.349 . S
C2760 C2762 1.327 . S
C2760 H2785 0.950 . S
C2761 C2760 1.349 . S
C2761 C2777 1.349 . S
C2762 C2760 1.327 . S
C2762 C2781 1.429 . S
C2762 H2786 0.950 . S
C2763 C2780 1.574 . S
C2763 C2782 1.368 . S
C2763 H2787 0.949 . S
H2764 C2768 0.949 . S
C2765 C2766 1.349 . S
C2765 C2767 1.327 . S
C2765 H2788 0.950 . S
C2766 C2765 1.349 . S
C2766 C2778 1.349 . S
C2767 C2765 1.327 . S
C2767 C2783 1.429 . S
C2767 H2789 0.950 . S
C2768 H2764 0.949 . S
C2768 C2776 1.574 . S
C2768 C2784 1.368 . S
H2769 C2777 0.950 . S
H2770 C2775 0.950 . S
H2771 C2776 0.949 . S
H2772 C2778 0.950 . S
H2773 C2779 0.950 . S
H2774 C2780 0.949 . S
C2775 H2770 0.950 . S
C2775 C2777 1.327 . S
C2775 C2781 1.429 . S
C2776 C2768 1.574 . S
C2776 H2771 0.949 . S
C2776 C2782 1.368 . S
C2777 C2761 1.349 . S
C2777 H2769 0.950 . S
C2777 C2775 1.327 . S
C2778 C2766 1.349 . S
C2778 H2772 0.950 . S
C2778 C2779 1.327 . S
C2779 H2773 0.950 . S
C2779 C2778 1.327 . S
C2779 C2783 1.429 . S
C2780 C2763 1.574 . S
C2780 H2774 0.949 . S
C2780 C2784 1.368 . S
C2781 C2762 1.429 . S
C2781 C2775 1.429 . S
C2781 C2782 1.523 . S
C2782 C2763 1.368 . S
C2782 C2776 1.368 . S
C2782 C2781 1.523 . S
C2783 C2767 1.429 . S
C2783 C2779 1.429 . S
C2783 C2784 1.523 . S
C2784 C2768 1.368 . S
C2784 C2780 1.368 . S
C2784 C2783 1.523 . S
H2785 C2760 0.950 . S
H2786 C2762 0.950 . S
H2787 C2763 0.949 . S
H2788 C2765 0.950 . S
H2789 C2767 0.950 . S
C2790 C2791 1.349 . S
C2790 C2792 1.327 . S
C2790 H2815 0.950 . S
C2791 C2790 1.349 . S
C2791 C2807 1.349 . S
C2792 C2790 1.327 . S
C2792 C2811 1.429 . S
C2792 H2816 0.950 . S
C2793 C2810 1.574 . S
C2793 C2812 1.368 . S
C2793 H2817 0.949 . S
H2794 C2798 0.949 . S
C2795 C2796 1.349 . S
C2795 C2797 1.327 . S
C2795 H2818 0.950 . S
C2796 C2795 1.349 . S
C2796 C2808 1.349 . S
C2797 C2795 1.327 . S
C2797 C2813 1.429 . S
C2797 H2819 0.950 . S
C2798 H2794 0.949 . S
C2798 C2806 1.574 . S
C2798 C2814 1.368 . S
H2799 C2807 0.950 . S
H2800 C2805 0.950 . S
H2801 C2806 0.949 . S
H2802 C2808 0.950 . S
H2803 C2809 0.950 . S
H2804 C2810 0.949 . S
C2805 H2800 0.950 . S
C2805 C2807 1.327 . S
C2805 C2811 1.429 . S
C2806 C2798 1.574 . S
C2806 H2801 0.949 . S
C2806 C2812 1.368 . S
C2807 C2791 1.349 . S
C2807 H2799 0.950 . S
C2807 C2805 1.327 . S
C2808 C2796 1.349 . S
C2808 H2802 0.950 . S
C2808 C2809 1.327 . S
C2809 H2803 0.950 . S
C2809 C2808 1.327 . S
C2809 C2813 1.429 . S
C2810 C2793 1.574 . S
C2810 H2804 0.949 . S
C2810 C2814 1.368 . S
C2811 C2792 1.429 . S
C2811 C2805 1.429 . S
C2811 C2812 1.523 . S
C2812 C2793 1.368 . S
C2812 C2806 1.368 . S
C2812 C2811 1.523 . S
C2813 C2797 1.429 . S
C2813 C2809 1.429 . S
C2813 C2814 1.523 . S
C2814 C2798 1.368 . S
C2814 C2810 1.368 . S
C2814 C2813 1.523 . S
H2815 C2790 0.950 . S
H2816 C2792 0.950 . S
H2817 C2793 0.949 . S
H2818 C2795 0.950 . S
H2819 C2797 0.950 . S
C2820 C2821 1.349 . S
C2820 C2822 1.327 . S
C2820 H2845 0.950 . S
C2821 C2820 1.349 . S
C2821 C2837 1.349 . S
C2822 C2820 1.327 . S
C2822 C2841 1.429 . S
C2822 H2846 0.950 . S
C2823 C2840 1.574 . S
C2823 C2842 1.368 . S
C2823 H2847 0.949 . S
H2824 C2828 0.949 . S
C2825 C2826 1.349 . S
C2825 C2827 1.327 . S
C2825 H2848 0.950 . S
C2826 C2825 1.349 . S
C2826 C2838 1.349 . S
C2827 C2825 1.327 . S
C2827 C2843 1.429 . S
C2827 H2849 0.950 . S
C2828 H2824 0.949 . S
C2828 C2836 1.574 . S
C2828 C2844 1.368 . S
H2829 C2837 0.950 . S
H2830 C2835 0.950 . S
H2831 C2836 0.949 . S
H2832 C2838 0.950 . S
H2833 C2839 0.950 . S
H2834 C2840 0.949 . S
C2835 H2830 0.950 . S
C2835 C2837 1.327 . S
C2835 C2841 1.429 . S
C2836 C2828 1.574 . S
C2836 H2831 0.949 . S
C2836 C2842 1.368 . S
C2837 C2821 1.349 . S
C2837 H2829 0.950 . S
C2837 C2835 1.327 . S
C2838 C2826 1.349 . S
C2838 H2832 0.950 . S
C2838 C2839 1.327 . S
C2839 H2833 0.950 . S
C2839 C2838 1.327 . S
C2839 C2843 1.429 . S
C2840 C2823 1.574 . S
C2840 H2834 0.949 . S
C2840 C2844 1.368 . S
C2841 C2822 1.429 . S
C2841 C2835 1.429 . S
C2841 C2842 1.523 . S
C2842 C2823 1.368 . S
C2842 C2836 1.368 . S
C2842 C2841 1.523 . S
C2843 C2827 1.429 . S
C2843 C2839 1.429 . S
C2843 C2844 1.523 . S
C2844 C2828 1.368 . S
C2844 C2840 1.368 . S
C2844 C2843 1.523 . S
H2845 C2820 0.950 . S
H2846 C2822 0.950 . S
H2847 C2823 0.949 . S
H2848 C2825 0.950 . S
H2849 C2827 0.950 . S
C2850 C2851 1.349 1_655 S
C2850 C2852 1.327 . S
C2850 H2875 0.950 1_655 S
C2851 C2850 1.349 1_455 S
C2851 C2867 1.360 1_455 S
C2852 C2850 1.327 . S
C2852 C2871 1.429 . S
C2852 H2876 0.950 . S
C2853 C2870 1.574 . S
C2853 C2872 1.368 . S
C2853 H2877 0.949 . S
H2854 C2858 0.949 . S
C2855 C2856 1.349 . S
C2855 C2857 1.327 . S
C2855 H2878 0.950 . S
C2856 C2855 1.349 . S
C2856 C2868 1.349 . S
C2857 C2855 1.327 . S
C2857 C2873 1.429 . S
C2857 H2879 0.950 . S
C2858 H2854 0.949 . S
C2858 C2866 1.574 . S
C2858 C2874 1.368 . S
H2859 C2867 0.901 1_455 S
H2860 C2865 0.950 . S
H2861 C2866 0.949 . S
H2862 C2868 0.950 . S
H2863 C2869 0.950 . S
H2864 C2870 0.949 . S
C2865 H2860 0.950 . S
C2865 C2867 1.371 . S
C2865 C2871 1.429 . S
C2866 C2858 1.574 . S
C2866 H2861 0.949 . S
C2866 C2872 1.368 . S
C2867 C2851 1.360 1_655 S
C2867 H2859 0.901 1_655 S
C2867 C2865 1.371 . S
C2868 C2856 1.349 . S
C2868 H2862 0.950 . S
C2868 C2869 1.327 . S
C2869 H2863 0.950 . S
C2869 C2868 1.327 . S
C2869 C2873 1.429 . S
C2870 C2853 1.574 . S
C2870 H2864 0.949 . S
C2870 C2874 1.368 . S
C2871 C2852 1.429 . S
C2871 C2865 1.429 . S
C2871 C2872 1.523 . S
C2872 C2853 1.368 . S
C2872 C2866 1.368 . S
C2872 C2871 1.523 . S
C2873 C2857 1.429 . S
C2873 C2869 1.429 . S
C2873 C2874 1.523 . S
C2874 C2858 1.368 . S
C2874 C2870 1.368 . S
C2874 C2873 1.523 . S
H2875 C2850 0.950 1_455 S
H2876 C2852 0.950 . S
H2877 C2853 0.949 . S
H2878 C2855 0.950 . S
H2879 C2857 0.950 . S
C2880 C2881 1.349 . S
C2880 C2882 1.327 . S
C2880 H2905 0.950 . S
C2881 C2880 1.349 . S
C2881 C2897 1.349 . S
C2882 C2880 1.327 . S
C2882 C2901 1.429 . S
C2882 H2906 0.950 . S
C2883 C2900 1.574 . S
C2883 C2902 1.368 . S
C2883 H2907 0.949 . S
H2884 C2888 0.949 . S
C2885 C2886 1.349 . S
C2885 C2887 1.327 . S
C2885 H2908 0.950 . S
C2886 C2885 1.349 . S
C2886 C2898 1.349 . S
C2887 C2885 1.327 . S
C2887 C2903 1.429 . S
C2887 H2909 0.950 . S
C2888 H2884 0.949 . S
C2888 C2896 1.574 . S
C2888 C2904 1.368 . S
H2889 C2897 0.950 . S
H2890 C2895 0.950 . S
H2891 C2896 0.949 . S
H2892 C2898 0.950 . S
H2893 C2899 0.950 . S
H2894 C2900 0.949 . S
C2895 H2890 0.950 . S
C2895 C2897 1.327 . S
C2895 C2901 1.429 . S
C2896 C2888 1.574 . S
C2896 H2891 0.949 . S
C2896 C2902 1.368 . S
C2897 C2881 1.349 . S
C2897 H2889 0.950 . S
C2897 C2895 1.327 . S
C2898 C2886 1.349 . S
C2898 H2892 0.950 . S
C2898 C2899 1.327 . S
C2899 H2893 0.950 . S
C2899 C2898 1.327 . S
C2899 C2903 1.429 . S
C2900 C2883 1.574 . S
C2900 H2894 0.949 . S
C2900 C2904 1.368 . S
C2901 C2882 1.429 . S
C2901 C2895 1.429 . S
C2901 C2902 1.523 . S
C2902 C2883 1.368 . S
C2902 C2896 1.368 . S
C2902 C2901 1.523 . S
C2903 C2887 1.429 . S
C2903 C2899 1.429 . S
C2903 C2904 1.523 . S
C2904 C2888 1.368 . S
C2904 C2900 1.368 . S
C2904 C2903 1.523 . S
H2905 C2880 0.950 . S
H2906 C2882 0.950 . S
H2907 C2883 0.949 . S
H2908 C2885 0.950 . S
H2909 C2887 0.950 . S
C2910 C2911 1.349 . S
C2910 C2912 1.327 . S
C2910 H2935 0.950 . S
C2911 C2910 1.349 . S
C2911 C2927 1.349 . S
C2912 C2910 1.327 . S
C2912 C2931 1.429 . S
C2912 H2936 0.950 . S
C2913 C2930 1.574 . S
C2913 C2932 1.368 . S
C2913 H2937 0.949 . S
H2914 C2918 0.949 . S
C2915 C2916 1.349 . S
C2915 C2917 1.327 . S
C2915 H2938 0.950 . S
C2916 C2915 1.349 . S
C2916 C2928 1.349 . S
C2917 C2915 1.327 . S
C2917 C2933 1.429 . S
C2917 H2939 0.950 . S
C2918 H2914 0.949 . S
C2918 C2926 1.574 . S
C2918 C2934 1.368 . S
H2919 C2927 0.950 . S
H2920 C2925 0.950 . S
H2921 C2926 0.949 . S
H2922 C2928 0.950 . S
H2923 C2929 0.950 . S
H2924 C2930 0.949 . S
C2925 H2920 0.950 . S
C2925 C2927 1.327 . S
C2925 C2931 1.429 . S
C2926 C2918 1.574 . S
C2926 H2921 0.949 . S
C2926 C2932 1.368 . S
C2927 C2911 1.349 . S
C2927 H2919 0.950 . S
C2927 C2925 1.327 . S
C2928 C2916 1.349 . S
C2928 H2922 0.950 . S
C2928 C2929 1.327 . S
C2929 H2923 0.950 . S
C2929 C2928 1.327 . S
C2929 C2933 1.429 . S
C2930 C2913 1.574 . S
C2930 H2924 0.949 . S
C2930 C2934 1.368 . S
C2931 C2912 1.429 . S
C2931 C2925 1.429 . S
C2931 C2932 1.523 . S
C2932 C2913 1.368 . S
C2932 C2926 1.368 . S
C2932 C2931 1.523 . S
C2933 C2917 1.429 . S
C2933 C2929 1.429 . S
C2933 C2934 1.523 . S
C2934 C2918 1.368 . S
C2934 C2930 1.368 . S
C2934 C2933 1.523 . S
H2935 C2910 0.950 . S
H2936 C2912 0.950 . S
H2937 C2913 0.949 . S
H2938 C2915 0.950 . S
H2939 C2917 0.950 . S
C2940 C2941 1.349 . S
C2940 C2942 1.319 . S
C2940 H2965 0.950 1_565 S
C2941 C2940 1.349 . S
C2941 C2957 1.349 . S
C2942 C2940 1.319 . S
C2942 C2961 1.447 . S
C2942 H2966 0.939 1_565 S
C2943 C2960 1.574 . S
C2943 C2962 1.368 . S
C2943 H2967 0.949 . S
H2944 C2948 0.949 . S
C2945 C2946 1.349 . S
C2945 C2947 1.327 . S
C2945 H2968 0.950 . S
C2946 C2945 1.349 . S
C2946 C2958 1.349 1_565 S
C2947 C2945 1.327 . S
C2947 C2963 1.429 . S
C2947 H2969 0.950 . S
C2948 H2944 0.949 . S
C2948 C2956 1.574 . S
C2948 C2964 1.368 1_545 S
H2949 C2957 0.950 . S
H2950 C2955 0.950 . S
H2951 C2956 0.949 . S
H2952 C2958 0.950 . S
H2953 C2959 0.950 . S
H2954 C2960 0.949 . S
C2955 H2950 0.950 . S
C2955 C2957 1.327 . S
C2955 C2961 1.429 . S
C2956 C2948 1.574 . S
C2956 H2951 0.949 . S
C2956 C2962 1.368 1_545 S
C2957 C2941 1.349 . S
C2957 H2949 0.950 . S
C2957 C2955 1.327 . S
C2958 C2946 1.349 1_545 S
C2958 H2952 0.950 . S
C2958 C2959 1.327 . S
C2959 H2953 0.950 . S
C2959 C2958 1.327 . S
C2959 C2963 1.429 1_545 S
C2960 C2943 1.574 . S
C2960 H2954 0.949 . S
C2960 C2964 1.368 . S
C2961 C2942 1.447 . S
C2961 C2955 1.429 . S
C2961 C2962 1.523 . S
C2962 C2943 1.368 . S
C2962 C2956 1.368 1_565 S
C2962 C2961 1.523 . S
C2963 C2947 1.429 . S
C2963 C2959 1.429 1_565 S
C2963 C2964 1.523 . S
C2964 C2948 1.368 1_565 S
C2964 C2960 1.368 . S
C2964 C2963 1.523 . S
H2965 C2940 0.950 1_545 S
H2966 C2942 0.939 1_545 S
H2967 C2943 0.949 . S
H2968 C2945 0.950 . S
H2969 C2947 0.950 . S
C2970 C2971 1.349 . S
C2970 C2972 1.327 . S
C2970 H2995 0.960 . S
C2971 C2970 1.349 . S
C2971 C2987 1.349 . S
C2972 C2970 1.327 . S
C2972 C2991 1.429 . S
C2972 H2996 0.950 1_565 S
C2973 C2990 1.574 . S
C2973 C2992 1.368 . S
C2973 H2997 0.949 . S
H2974 C2978 0.901 1_545 S
C2975 C2976 1.349 . S
C2975 C2977 1.327 . S
C2975 H2998 0.950 . S
C2976 C2975 1.349 . S
C2976 C2988 1.349 1_565 S
C2977 C2975 1.327 . S
C2977 C2993 1.429 . S
C2977 H2999 0.950 . S
C2978 H2974 0.901 1_565 S
C2978 C2986 1.604 . S
C2978 C2994 1.394 . S
H2979 C2987 0.950 . S
H2980 C2985 0.950 . S
H2981 C2986 0.949 1_545 S
H2982 C2988 0.950 . S
H2983 C2989 0.991 . S
H2984 C2990 0.949 . S
C2985 H2980 0.950 . S
C2985 C2987 1.327 . S
C2985 C2991 1.429 . S
C2986 C2978 1.604 . S
C2986 H2981 0.949 1_565 S
C2986 C2992 1.368 . S
C2987 C2971 1.349 . S
C2987 H2979 0.950 . S
C2987 C2985 1.327 . S
C2988 C2976 1.349 1_545 S
C2988 H2982 0.950 . S
C2988 C2989 1.383 . S
C2989 H2983 0.991 . S
C2989 C2988 1.383 . S
C2989 C2993 1.341 1_545 S
C2990 C2973 1.574 . S
C2990 H2984 0.949 . S
C2990 C2994 1.368 . S
C2991 C2972 1.429 . S
C2991 C2985 1.429 . S
C2991 C2992 1.523 . S
C2992 C2973 1.368 . S
C2992 C2986 1.368 . S
C2992 C2991 1.523 . S
C2993 C2977 1.429 . S
C2993 C2989 1.341 1_565 S
C2993 C2994 1.523 . S
C2994 C2978 1.394 . S
C2994 C2990 1.368 . S
C2994 C2993 1.523 . S
H2995 C2970 0.960 . S
H2996 C2972 0.950 1_545 S
H2997 C2973 0.949 . S
H2998 C2975 0.950 . S
H2999 C2977 0.950 . S
C3000 C3001 1.349 . S
C3000 C3002 1.327 . S
C3000 H3025 0.950 . S
C3001 C3000 1.349 . S
C3001 C3017 1.349 . S
C3002 C3000 1.327 . S
C3002 C3021 1.429 . S
C3002 H3026 0.950 . S
C3003 C3020 1.574 . S
C3003 C3022 1.368 . S
C3003 H3027 0.949 . S
H3004 C3008 0.949 . S
C3005 C3006 1.349 . S
C3005 C3007 1.327 . S
C3005 H3028 0.950 . S
C3006 C3005 1.349 . S
C3006 C3018 1.349 . S
C3007 C3005 1.327 . S
C3007 C3023 1.429 . S
C3007 H3029 0.950 . S
C3008 H3004 0.949 . S
C3008 C3016 1.574 . S
C3008 C3024 1.368 . S
H3009 C3017 0.950 . S
H3010 C3015 0.950 . S
H3011 C3016 0.949 . S
H3012 C3018 0.950 . S
H3013 C3019 0.950 . S
H3014 C3020 0.949 . S
C3015 H3010 0.950 . S
C3015 C3017 1.327 . S
C3015 C3021 1.429 . S
C3016 C3008 1.574 . S
C3016 H3011 0.949 . S
C3016 C3022 1.368 . S
C3017 C3001 1.349 . S
C3017 H3009 0.950 . S
C3017 C3015 1.327 . S
C3018 C3006 1.349 . S
C3018 H3012 0.950 . S
C3018 C3019 1.327 . S
C3019 H3013 0.950 . S
C3019 C3018 1.327 . S
C3019 C3023 1.429 . S
C3020 C3003 1.574 . S
C3020 H3014 0.949 . S
C3020 C3024 1.368 . S
C3021 C3002 1.429 . S
C3021 C3015 1.429 . S
C3021 C3022 1.523 . S
C3022 C3003 1.368 . S
C3022 C3016 1.368 . S
C3022 C3021 1.523 . S
C3023 C3007 1.429 . S
C3023 C3019 1.429 . S
C3023 C3024 1.523 . S
C3024 C3008 1.368 . S
C3024 C3020 1.368 . S
C3024 C3023 1.523 . S
H3025 C3000 0.950 . S
H3026 C3002 0.950 . S
H3027 C3003 0.949 . S
H3028 C3005 0.950 . S
H3029 C3007 0.950 . S
C3030 C3031 1.349 . S
C3030 C3032 1.327 . S
C3030 H3055 0.950 . S
C3031 C3030 1.349 . S
C3031 C3047 1.349 . S
C3032 C3030 1.327 . S
C3032 C3051 1.429 . S
C3032 H3056 0.950 . S
C3033 C3050 1.574 . S
C3033 C3052 1.368 . S
C3033 H3057 0.949 . S
H3034 C3038 0.949 . S
C3035 C3036 1.349 . S
C3035 C3037 1.327 . S
C3035 H3058 0.950 . S
C3036 C3035 1.349 . S
C3036 C3048 1.349 . S
C3037 C3035 1.327 . S
C3037 C3053 1.429 . S
C3037 H3059 0.950 . S
C3038 H3034 0.949 . S
C3038 C3046 1.574 . S
C3038 C3054 1.368 . S
H3039 C3047 0.950 . S
H3040 C3045 0.950 . S
H3041 C3046 0.949 . S
H3042 C3048 0.950 . S
H3043 C3049 0.950 . S
H3044 C3050 0.949 . S
C3045 H3040 0.950 . S
C3045 C3047 1.327 . S
C3045 C3051 1.429 . S
C3046 C3038 1.574 . S
C3046 H3041 0.949 . S
C3046 C3052 1.368 . S
C3047 C3031 1.349 . S
C3047 H3039 0.950 . S
C3047 C3045 1.327 . S
C3048 C3036 1.349 . S
C3048 H3042 0.950 . S
C3048 C3049 1.327 . S
C3049 H3043 0.950 . S
C3049 C3048 1.327 . S
C3049 C3053 1.429 . S
C3050 C3033 1.574 . S
C3050 H3044 0.949 . S
C3050 C3054 1.368 . S
C3051 C3032 1.429 . S
C3051 C3045 1.429 . S
C3051 C3052 1.523 . S
C3052 C3033 1.368 . S
C3052 C3046 1.368 . S
C3052 C3051 1.523 . S
C3053 C3037 1.429 . S
C3053 C3049 1.429 . S
C3053 C3054 1.523 . S
C3054 C3038 1.368 . S
C3054 C3050 1.368 . S
C3054 C3053 1.523 . S
H3055 C3030 0.950 . S
H3056 C3032 0.950 . S
H3057 C3033 0.949 . S
H3058 C3035 0.950 . S
H3059 C3037 0.950 . S
C3060 C3061 1.349 . S
C3060 C3062 1.327 . S
C3060 H3085 0.950 . S
C3061 C3060 1.349 . S
C3061 C3077 1.349 . S
C3062 C3060 1.327 . S
C3062 C3081 1.429 . S
C3062 H3086 0.950 . S
C3063 C3080 1.574 . S
C3063 C3082 1.368 . S
C3063 H3087 0.949 . S
H3064 C3068 0.949 . S
C3065 C3066 1.349 . S
C3065 C3067 1.327 . S
C3065 H3088 0.950 . S
C3066 C3065 1.349 . S
C3066 C3078 1.349 . S
C3067 C3065 1.327 . S
C3067 C3083 1.429 . S
C3067 H3089 0.950 . S
C3068 H3064 0.949 . S
C3068 C3076 1.574 . S
C3068 C3084 1.368 . S
H3069 C3077 0.950 . S
H3070 C3075 0.950 . S
H3071 C3076 0.949 . S
H3072 C3078 0.950 . S
H3073 C3079 0.950 . S
H3074 C3080 0.949 . S
C3075 H3070 0.950 . S
C3075 C3077 1.327 . S
C3075 C3081 1.429 . S
C3076 C3068 1.574 . S
C3076 H3071 0.949 . S
C3076 C3082 1.368 . S
C3077 C3061 1.349 . S
C3077 H3069 0.950 . S
C3077 C3075 1.327 . S
C3078 C3066 1.349 . S
C3078 H3072 0.950 . S
C3078 C3079 1.327 . S
C3079 H3073 0.950 . S
C3079 C3078 1.327 . S
C3079 C3083 1.429 . S
C3080 C3063 1.574 . S
C3080 H3074 0.949 . S
C3080 C3084 1.368 . S
C3081 C3062 1.429 . S
C3081 C3075 1.429 . S
C3081 C3082 1.523 . S
C3082 C3063 1.368 . S
C3082 C3076 1.368 . S
C3082 C3081 1.523 . S
C3083 C3067 1.429 . S
C3083 C3079 1.429 . S
C3083 C3084 1.523 . S
C3084 C3068 1.368 . S
C3084 C3080 1.368 . S
C3084 C3083 1.523 . S
H3085 C3060 0.950 . S
H3086 C3062 0.950 . S
H3087 C3063 0.949 . S
H3088 C3065 0.950 . S
H3089 C3067 0.950 . S
C3090 C3091 1.349 . S
C3090 C3092 1.327 . S
C3090 H3115 0.950 . S
C3091 C3090 1.349 . S
C3091 C3107 1.349 . S
C3092 C3090 1.327 . S
C3092 C3111 1.429 . S
C3092 H3116 0.950 . S
C3093 C3110 1.574 . S
C3093 C3112 1.368 . S
C3093 H3117 0.949 . S
H3094 C3098 0.949 . S
C3095 C3096 1.349 . S
C3095 C3097 1.327 . S
C3095 H3118 0.950 . S
C3096 C3095 1.349 . S
C3096 C3108 1.349 . S
C3097 C3095 1.327 . S
C3097 C3113 1.429 . S
C3097 H3119 0.950 . S
C3098 H3094 0.949 . S
C3098 C3106 1.574 . S
C3098 C3114 1.368 . S
H3099 C3107 0.950 . S
H3100 C3105 0.950 . S
H3101 C3106 0.949 . S
H3102 C3108 0.950 . S
H3103 C3109 0.950 . S
H3104 C3110 0.949 . S
C3105 H3100 0.950 . S
C3105 C3107 1.327 . S
C3105 C3111 1.429 . S
C3106 C3098 1.574 . S
C3106 H3101 0.949 . S
C3106 C3112 1.368 . S
C3107 C3091 1.349 . S
C3107 H3099 0.950 . S
C3107 C3105 1.327 . S
C3108 C3096 1.349 . S
C3108 H3102 0.950 . S
C3108 C3109 1.327 . S
C3109 H3103 0.950 . S
C3109 C3108 1.327 . S
C3109 C3113 1.429 . S
C3110 C3093 1.574 . S
C3110 H3104 0.949 . S
C3110 C3114 1.368 . S
C3111 C3092 1.429 . S
C3111 C3105 1.429 . S
C3111 C3112 1.523 . S
C3112 C3093 1.368 . S
C3112 C3106 1.368 . S
C3112 C3111 1.523 . S
C3113 C3097 1.429 . S
C3113 C3109 1.429 . S
C3113 C3114 1.523 . S
C3114 C3098 1.368 . S
C3114 C3110 1.368 . S
C3114 C3113 1.523 . S
H3115 C3090 0.950 . S
H3116 C3092 0.950 . S
H3117 C3093 0.949 . S
H3118 C3095 0.950 . S
H3119 C3097 0.950 . S
C3120 C3121 1.349 . S
C3120 C3122 1.327 1_455 S
C3120 H3145 0.950 . S
C3121 C3120 1.349 . S
C3121 C3137 1.349 1_455 S
C3122 C3120 1.327 1_655 S
C3122 C3141 1.429 . S
C3122 H3146 0.950 . S
C3123 C3140 1.574 . S
C3123 C3142 1.368 . S
C3123 H3147 0.949 . S
H3124 C3128 0.949 . S
C3125 C3126 1.349 . S
C3125 C3127 1.327 . S
C3125 H3148 0.950 . S
C3126 C3125 1.349 . S
C3126 C3138 1.349 . S
C3127 C3125 1.327 . S
C3127 C3143 1.429 . S
C3127 H3149 0.950 . S
C3128 H3124 0.949 . S
C3128 C3136 1.574 . S
C3128 C3144 1.368 . S
H3129 C3137 0.950 . S
H3130 C3135 0.950 . S
H3131 C3136 0.949 . S
H3132 C3138 0.950 . S
H3133 C3139 0.950 . S
H3134 C3140 0.949 . S
C3135 H3130 0.950 . S
C3135 C3137 1.327 . S
C3135 C3141 1.429 . S
C3136 C3128 1.574 . S
C3136 H3131 0.949 . S
C3136 C3142 1.368 . S
C3137 C3121 1.349 1_655 S
C3137 H3129 0.950 . S
C3137 C3135 1.327 . S
C3138 C3126 1.349 . S
C3138 H3132 0.950 . S
C3138 C3139 1.327 . S
C3139 H3133 0.950 . S
C3139 C3138 1.327 . S
C3139 C3143 1.429 . S
C3140 C3123 1.574 . S
C3140 H3134 0.949 . S
C3140 C3144 1.368 . S
C3141 C3122 1.429 . S
C3141 C3135 1.429 . S
C3141 C3142 1.523 . S
C3142 C3123 1.368 . S
C3142 C3136 1.368 . S
C3142 C3141 1.523 . S
C3143 C3127 1.429 . S
C3143 C3139 1.429 . S
C3143 C3144 1.523 . S
C3144 C3128 1.368 . S
C3144 C3140 1.368 . S
C3144 C3143 1.523 . S
H3145 C3120 0.950 . S
H3146 C3122 0.950 . S
H3147 C3123 0.949 . S
H3148 C3125 0.950 . S
H3149 C3127 0.950 . S
C3150 C3151 1.349 . S
C3150 C3152 1.327 . S
C3150 H3175 0.950 . S
C3151 C3150 1.349 . S
C3151 C3167 1.349 . S
C3152 C3150 1.327 . S
C3152 C3171 1.429 . S
C3152 H3176 0.950 . S
C3153 C3170 1.574 . S
C3153 C3172 1.368 . S
C3153 H3177 0.949 . S
H3154 C3158 0.949 . S
C3155 C3156 1.349 . S
C3155 C3157 1.327 . S
C3155 H3178 0.950 . S
C3156 C3155 1.349 . S
C3156 C3168 1.349 . S
C3157 C3155 1.327 . S
C3157 C3173 1.429 . S
C3157 H3179 0.950 . S
C3158 H3154 0.949 . S
C3158 C3166 1.574 . S
C3158 C3174 1.368 . S
H3159 C3167 0.950 . S
H3160 C3165 0.950 . S
H3161 C3166 0.949 . S
H3162 C3168 0.950 . S
H3163 C3169 0.950 . S
H3164 C3170 0.949 . S
C3165 H3160 0.950 . S
C3165 C3167 1.327 . S
C3165 C3171 1.429 . S
C3166 C3158 1.574 . S
C3166 H3161 0.949 . S
C3166 C3172 1.368 . S
C3167 C3151 1.349 . S
C3167 H3159 0.950 . S
C3167 C3165 1.327 . S
C3168 C3156 1.349 . S
C3168 H3162 0.950 . S
C3168 C3169 1.327 . S
C3169 H3163 0.950 . S
C3169 C3168 1.327 . S
C3169 C3173 1.429 . S
C3170 C3153 1.574 . S
C3170 H3164 0.949 . S
C3170 C3174 1.368 . S
C3171 C3152 1.429 . S
C3171 C3165 1.429 . S
C3171 C3172 1.523 . S
C3172 C3153 1.368 . S
C3172 C3166 1.368 . S
C3172 C3171 1.523 . S
C3173 C3157 1.429 . S
C3173 C3169 1.429 . S
C3173 C3174 1.523 . S
C3174 C3158 1.368 . S
C3174 C3170 1.368 . S
C3174 C3173 1.523 . S
H3175 C3150 0.950 . S
H3176 C3152 0.950 . S
H3177 C3153 0.949 . S
H3178 C3155 0.950 . S
H3179 C3157 0.950 . S
C3180 C3181 1.349 . S
C3180 C3182 1.327 . S
C3180 H3205 0.950 . S
C3181 C3180 1.349 . S
C3181 C3197 1.349 . S
C3182 C3180 1.327 . S
C3182 C3201 1.429 . S
C3182 H3206 0.950 . S
C3183 C3200 1.574 . S
C3183 C3202 1.368 . S
C3183 H3207 1.001 . S
H3184 C3188 0.949 . S
C3185 C3186 1.359 . S
C3185 C3187 1.370 . S
C3185 H3208 0.946 1_655 S
C3186 C3185 1.359 . S
C3186 C3198 1.349 . S
C3187 C3185 1.370 . S
C3187 C3203 1.463 . S
C3187 H3209 0.875 1_655 S
C3188 H3184 0.949 . S
C3188 C3196 1.574 . S
C3188 C3204 1.368 . S
H3189 C3197 0.950 . S
H3190 C3195 0.950 . S
H3191 C3196 0.949 . S
H3192 C3198 0.950 . S
H3193 C3199 0.950 . S
H3194 C3200 0.949 1_455 S
C3195 H3190 0.950 . S
C3195 C3197 1.327 . S
C3195 C3201 1.429 . S
C3196 C3188 1.574 . S
C3196 H3191 0.949 . S
C3196 C3202 1.368 . S
C3197 C3181 1.349 . S
C3197 H3189 0.950 . S
C3197 C3195 1.327 . S
C3198 C3186 1.349 . S
C3198 H3192 0.950 . S
C3198 C3199 1.327 . S
C3199 H3193 0.950 . S
C3199 C3198 1.327 . S
C3199 C3203 1.429 . S
C3200 C3183 1.574 . S
C3200 H3194 0.949 1_655 S
C3200 C3204 1.368 . S
C3201 C3182 1.429 . S
C3201 C3195 1.429 . S
C3201 C3202 1.523 . S
C3202 C3183 1.368 . S
C3202 C3196 1.368 . S
C3202 C3201 1.523 . S
C3203 C3187 1.463 . S
C3203 C3199 1.429 . S
C3203 C3204 1.523 . S
C3204 C3188 1.368 . S
C3204 C3200 1.368 . S
C3204 C3203 1.523 . S
H3205 C3180 0.950 . S
H3206 C3182 0.950 . S
H3207 C3183 1.001 . S
H3208 C3185 0.946 1_455 S
H3209 C3187 0.875 1_455 S
C3210 C3211 1.349 . S
C3210 C3212 1.327 . S
C3210 H3235 0.950 . S
C3211 C3210 1.349 . S
C3211 C3227 1.349 . S
C3212 C3210 1.327 . S
C3212 C3231 1.429 . S
C3212 H3236 0.950 . S
C3213 C3230 1.574 . S
C3213 C3232 1.368 . S
C3213 H3237 0.949 . S
H3214 C3218 0.949 . S
C3215 C3216 1.349 . S
C3215 C3217 1.327 . S
C3215 H3238 0.950 . S
C3216 C3215 1.349 . S
C3216 C3228 1.349 . S
C3217 C3215 1.327 . S
C3217 C3233 1.429 . S
C3217 H3239 0.950 . S
C3218 H3214 0.949 . S
C3218 C3226 1.574 . S
C3218 C3234 1.368 . S
H3219 C3227 0.950 . S
H3220 C3225 0.950 . S
H3221 C3226 0.949 . S
H3222 C3228 0.950 . S
H3223 C3229 0.950 . S
H3224 C3230 0.949 . S
C3225 H3220 0.950 . S
C3225 C3227 1.327 . S
C3225 C3231 1.429 . S
C3226 C3218 1.574 . S
C3226 H3221 0.949 . S
C3226 C3232 1.368 . S
C3227 C3211 1.349 . S
C3227 H3219 0.950 . S
C3227 C3225 1.327 . S
C3228 C3216 1.349 . S
C3228 H3222 0.950 . S
C3228 C3229 1.327 . S
C3229 H3223 0.950 . S
C3229 C3228 1.327 . S
C3229 C3233 1.429 . S
C3230 C3213 1.574 . S
C3230 H3224 0.949 . S
C3230 C3234 1.368 . S
C3231 C3212 1.429 . S
C3231 C3225 1.429 . S
C3231 C3232 1.523 . S
C3232 C3213 1.368 . S
C3232 C3226 1.368 . S
C3232 C3231 1.523 . S
C3233 C3217 1.429 . S
C3233 C3229 1.429 . S
C3233 C3234 1.523 . S
C3234 C3218 1.368 . S
C3234 C3230 1.368 . S
C3234 C3233 1.523 . S
H3235 C3210 0.950 . S
H3236 C3212 0.950 . S
H3237 C3213 0.949 . S
H3238 C3215 0.950 . S
H3239 C3217 0.950 . S
C3240 C3241 1.349 . S
C3240 C3242 1.327 . S
C3240 H3265 0.950 . S
C3241 C3240 1.349 . S
C3241 C3257 1.349 . S
C3242 C3240 1.327 . S
C3242 C3261 1.429 . S
C3242 H3266 0.950 . S
C3243 C3260 1.574 . S
C3243 C3262 1.368 . S
C3243 H3267 0.949 . S
H3244 C3248 0.949 . S
C3245 C3246 1.349 . S
C3245 C3247 1.327 . S
C3245 H3268 0.950 . S
C3246 C3245 1.349 . S
C3246 C3258 1.349 . S
C3247 C3245 1.327 . S
C3247 C3263 1.429 . S
C3247 H3269 0.950 . S
C3248 H3244 0.949 . S
C3248 C3256 1.574 . S
C3248 C3264 1.368 . S
H3249 C3257 0.950 . S
H3250 C3255 0.950 . S
H3251 C3256 0.949 . S
H3252 C3258 0.950 . S
H3253 C3259 0.950 . S
H3254 C3260 0.949 . S
C3255 H3250 0.950 . S
C3255 C3257 1.327 . S
C3255 C3261 1.429 . S
C3256 C3248 1.574 . S
C3256 H3251 0.949 . S
C3256 C3262 1.368 . S
C3257 C3241 1.349 . S
C3257 H3249 0.950 . S
C3257 C3255 1.327 . S
C3258 C3246 1.349 . S
C3258 H3252 0.950 . S
C3258 C3259 1.327 . S
C3259 H3253 0.950 . S
C3259 C3258 1.327 . S
C3259 C3263 1.429 . S
C3260 C3243 1.574 . S
C3260 H3254 0.949 . S
C3260 C3264 1.368 . S
C3261 C3242 1.429 . S
C3261 C3255 1.429 . S
C3261 C3262 1.523 . S
C3262 C3243 1.368 . S
C3262 C3256 1.368 . S
C3262 C3261 1.523 . S
C3263 C3247 1.429 . S
C3263 C3259 1.429 . S
C3263 C3264 1.523 . S
C3264 C3248 1.368 . S
C3264 C3260 1.368 . S
C3264 C3263 1.523 . S
H3265 C3240 0.950 . S
H3266 C3242 0.950 . S
H3267 C3243 0.949 . S
H3268 C3245 0.950 . S
H3269 C3247 0.950 . S
C3270 C3271 1.317 1_565 S
C3270 C3272 1.360 . S
C3270 H3295 0.952 1_565 S
C3271 C3270 1.317 1_545 S
C3271 C3287 1.356 1_545 S
C3272 C3270 1.360 . S
C3272 C3291 1.429 . S
C3272 H3296 0.950 . S
C3273 C3290 1.574 . S
C3273 C3292 1.368 . S
C3273 H3297 0.949 . S
H3274 C3278 0.949 . S
C3275 C3276 1.349 . S
C3275 C3277 1.327 . S
C3275 H3298 0.950 . S
C3276 C3275 1.349 . S
C3276 C3288 1.349 . S
C3277 C3275 1.327 . S
C3277 C3293 1.429 . S
C3277 H3299 0.950 . S
C3278 H3274 0.949 . S
C3278 C3286 1.574 . S
C3278 C3294 1.368 . S
H3279 C3287 0.894 1_545 S
H3280 C3285 0.950 . S
H3281 C3286 0.949 . S
H3282 C3288 0.950 . S
H3283 C3289 0.950 . S
H3284 C3290 0.949 . S
C3285 H3280 0.950 . S
C3285 C3287 1.389 . S
C3285 C3291 1.429 . S
C3286 C3278 1.574 . S
C3286 H3281 0.949 . S
C3286 C3292 1.368 . S
C3287 C3271 1.356 1_565 S
C3287 H3279 0.894 1_565 S
C3287 C3285 1.389 . S
C3288 C3276 1.349 . S
C3288 H3282 0.950 . S
C3288 C3289 1.327 . S
C3289 H3283 0.950 . S
C3289 C3288 1.327 . S
C3289 C3293 1.429 . S
C3290 C3273 1.574 . S
C3290 H3284 0.949 . S
C3290 C3294 1.368 . S
C3291 C3272 1.429 . S
C3291 C3285 1.429 . S
C3291 C3292 1.523 . S
C3292 C3273 1.368 . S
C3292 C3286 1.368 . S
C3292 C3291 1.523 . S
C3293 C3277 1.429 . S
C3293 C3289 1.429 . S
C3293 C3294 1.523 . S
C3294 C3278 1.368 . S
C3294 C3290 1.368 . S
C3294 C3293 1.523 . S
H3295 C3270 0.952 1_545 S
H3296 C3272 0.950 . S
H3297 C3273 0.949 . S
H3298 C3275 0.950 . S
H3299 C3277 0.950 . S
C3300 C3301 1.349 . S
C3300 C3302 1.327 . S
C3300 H3325 0.950 . S
C3301 C3300 1.349 . S
C3301 C3317 1.349 . S
C3302 C3300 1.327 . S
C3302 C3321 1.429 . S
C3302 H3326 0.950 . S
C3303 C3320 1.574 . S
C3303 C3322 1.368 . S
C3303 H3327 0.949 . S
H3304 C3308 0.949 . S
C3305 C3306 1.349 . S
C3305 C3307 1.327 . S
C3305 H3328 0.950 . S
C3306 C3305 1.349 . S
C3306 C3318 1.349 . S
C3307 C3305 1.327 . S
C3307 C3323 1.429 . S
C3307 H3329 0.950 . S
C3308 H3304 0.949 . S
C3308 C3316 1.574 . S
C3308 C3324 1.368 . S
H3309 C3317 0.950 . S
H3310 C3315 0.950 . S
H3311 C3316 0.949 . S
H3312 C3318 0.950 . S
H3313 C3319 0.950 . S
H3314 C3320 0.949 . S
C3315 H3310 0.950 . S
C3315 C3317 1.327 . S
C3315 C3321 1.429 . S
C3316 C3308 1.574 . S
C3316 H3311 0.949 . S
C3316 C3322 1.368 . S
C3317 C3301 1.349 . S
C3317 H3309 0.950 . S
C3317 C3315 1.327 . S
C3318 C3306 1.349 . S
C3318 H3312 0.950 . S
C3318 C3319 1.327 . S
C3319 H3313 0.950 . S
C3319 C3318 1.327 . S
C3319 C3323 1.429 . S
C3320 C3303 1.574 . S
C3320 H3314 0.949 . S
C3320 C3324 1.368 . S
C3321 C3302 1.429 . S
C3321 C3315 1.429 . S
C3321 C3322 1.523 . S
C3322 C3303 1.368 . S
C3322 C3316 1.368 . S
C3322 C3321 1.523 . S
C3323 C3307 1.429 . S
C3323 C3319 1.429 . S
C3323 C3324 1.523 . S
C3324 C3308 1.368 . S
C3324 C3320 1.368 . S
C3324 C3323 1.523 . S
H3325 C3300 0.950 . S
H3326 C3302 0.950 . S
H3327 C3303 0.949 . S
H3328 C3305 0.950 . S
H3329 C3307 0.950 . S
C3330 C3331 1.349 . S
C3330 C3332 1.327 . S
C3330 H3355 0.950 . S
C3331 C3330 1.349 . S
C3331 C3347 1.349 . S
C3332 C3330 1.327 . S
C3332 C3351 1.429 . S
C3332 H3356 0.950 . S
C3333 C3350 1.574 . S
C3333 C3352 1.368 . S
C3333 H3357 0.949 . S
H3334 C3338 0.949 . S
C3335 C3336 1.349 . S
C3335 C3337 1.327 . S
C3335 H3358 0.950 . S
C3336 C3335 1.349 . S
C3336 C3348 1.349 . S
C3337 C3335 1.327 . S
C3337 C3353 1.429 . S
C3337 H3359 0.950 . S
C3338 H3334 0.949 . S
C3338 C3346 1.574 . S
C3338 C3354 1.368 . S
H3339 C3347 0.950 . S
H3340 C3345 0.950 . S
H3341 C3346 0.949 . S
H3342 C3348 0.950 . S
H3343 C3349 0.950 . S
H3344 C3350 0.949 . S
C3345 H3340 0.950 . S
C3345 C3347 1.327 . S
C3345 C3351 1.429 . S
C3346 C3338 1.574 . S
C3346 H3341 0.949 . S
C3346 C3352 1.368 . S
C3347 C3331 1.349 . S
C3347 H3339 0.950 . S
C3347 C3345 1.327 . S
C3348 C3336 1.349 . S
C3348 H3342 0.950 . S
C3348 C3349 1.327 . S
C3349 H3343 0.950 . S
C3349 C3348 1.327 . S
C3349 C3353 1.429 . S
C3350 C3333 1.574 . S
C3350 H3344 0.949 . S
C3350 C3354 1.368 . S
C3351 C3332 1.429 . S
C3351 C3345 1.429 . S
C3351 C3352 1.523 . S
C3352 C3333 1.368 . S
C3352 C3346 1.368 . S
C3352 C3351 1.523 . S
C3353 C3337 1.429 . S
C3353 C3349 1.429 . S
C3353 C3354 1.523 . S
C3354 C3338 1.368 . S
C3354 C3350 1.368 . S
C3354 C3353 1.523 . S
H3355 C3330 0.950 . S
H3356 C3332 0.950 . S
H3357 C3333 0.949 . S
H3358 C3335 0.950 . S
H3359 C3337 0.950 . S
C3360 C3361 1.349 . S
C3360 C3362 1.327 1_545 S
C3360 H3385 0.950 . S
C3361 C3360 1.349 . S
C3361 C3377 1.349 1_545 S
C3362 C3360 1.327 1_565 S
C3362 C3381 1.429 . S
C3362 H3386 0.950 . S
C3363 C3380 1.574 . S
C3363 C3382 1.368 . S
C3363 H3387 0.949 . S
H3364 C3368 0.949 . S
C3365 C3366 1.349 . S
C3365 C3367 1.327 . S
C3365 H3388 0.950 . S
C3366 C3365 1.349 . S
C3366 C3378 1.349 . S
C3367 C3365 1.327 . S
C3367 C3383 1.429 . S
C3367 H3389 0.950 . S
C3368 H3364 0.949 . S
C3368 C3376 1.574 . S
C3368 C3384 1.368 . S
H3369 C3377 0.950 . S
H3370 C3375 0.950 . S
H3371 C3376 0.949 . S
H3372 C3378 0.950 . S
H3373 C3379 0.950 . S
H3374 C3380 0.949 . S
C3375 H3370 0.950 . S
C3375 C3377 1.327 . S
C3375 C3381 1.429 . S
C3376 C3368 1.574 . S
C3376 H3371 0.949 . S
C3376 C3382 1.368 . S
C3377 C3361 1.349 1_565 S
C3377 H3369 0.950 . S
C3377 C3375 1.327 . S
C3378 C3366 1.349 . S
C3378 H3372 0.950 . S
C3378 C3379 1.327 . S
C3379 H3373 0.950 . S
C3379 C3378 1.327 . S
C3379 C3383 1.429 . S
C3380 C3363 1.574 . S
C3380 H3374 0.949 . S
C3380 C3384 1.368 . S
C3381 C3362 1.429 . S
C3381 C3375 1.429 . S
C3381 C3382 1.523 . S
C3382 C3363 1.368 . S
C3382 C3376 1.368 . S
C3382 C3381 1.523 . S
C3383 C3367 1.429 . S
C3383 C3379 1.429 . S
C3383 C3384 1.523 . S
C3384 C3368 1.368 . S
C3384 C3380 1.368 . S
C3384 C3383 1.523 . S
H3385 C3360 0.950 . S
H3386 C3362 0.950 . S
H3387 C3363 0.949 . S
H3388 C3365 0.950 . S
H3389 C3367 0.950 . S
C3390 C3391 1.349 . S
C3390 C3392 1.327 . S
C3390 H3415 0.950 . S
C3391 C3390 1.349 . S
C3391 C3407 1.349 . S
C3392 C3390 1.327 . S
C3392 C3411 1.429 . S
C3392 H3416 0.950 . S
C3393 C3410 1.574 . S
C3393 C3412 1.368 . S
C3393 H3417 0.949 . S
H3394 C3398 0.949 . S
C3395 C3396 1.349 . S
C3395 C3397 1.327 . S
C3395 H3418 0.950 . S
C3396 C3395 1.349 . S
C3396 C3408 1.349 . S
C3397 C3395 1.327 . S
C3397 C3413 1.429 . S
C3397 H3419 0.950 . S
C3398 H3394 0.949 . S
C3398 C3406 1.574 . S
C3398 C3414 1.368 . S
H3399 C3407 0.950 . S
H3400 C3405 0.950 . S
H3401 C3406 0.949 . S
H3402 C3408 0.950 . S
H3403 C3409 0.950 . S
H3404 C3410 0.949 . S
C3405 H3400 0.950 . S
C3405 C3407 1.327 . S
C3405 C3411 1.429 . S
C3406 C3398 1.574 . S
C3406 H3401 0.949 . S
C3406 C3412 1.368 . S
C3407 C3391 1.349 . S
C3407 H3399 0.950 . S
C3407 C3405 1.327 . S
C3408 C3396 1.349 . S
C3408 H3402 0.950 . S
C3408 C3409 1.327 . S
C3409 H3403 0.950 . S
C3409 C3408 1.327 . S
C3409 C3413 1.429 . S
C3410 C3393 1.574 . S
C3410 H3404 0.949 . S
C3410 C3414 1.368 . S
C3411 C3392 1.429 . S
C3411 C3405 1.429 . S
C3411 C3412 1.523 . S
C3412 C3393 1.368 . S
C3412 C3406 1.368 . S
C3412 C3411 1.523 . S
C3413 C3397 1.429 . S
C3413 C3409 1.429 . S
C3413 C3414 1.523 . S
C3414 C3398 1.368 . S
C3414 C3410 1.368 . S
C3414 C3413 1.523 . S
H3415 C3390 0.950 . S
H3416 C3392 0.950 . S
H3417 C3393 0.949 . S
H3418 C3395 0.950 . S
H3419 C3397 0.950 . S
C3420 C3421 1.349 . S
C3420 C3422 1.327 . S
C3420 H3445 0.950 . S
C3421 C3420 1.349 . S
C3421 C3437 1.349 . S
C3422 C3420 1.327 . S
C3422 C3441 1.429 . S
C3422 H3446 0.950 . S
C3423 C3440 1.574 . S
C3423 C3442 1.368 . S
C3423 H3447 0.964 . S
H3424 C3428 0.949 . S
C3425 C3426 1.354 . S
C3425 C3427 1.338 . S
C3425 H3448 0.934 1_655 S
C3426 C3425 1.354 . S
C3426 C3438 1.349 . S
C3427 C3425 1.338 . S
C3427 C3443 1.429 . S
C3427 H3449 0.950 1_655 S
C3428 H3424 0.949 . S
C3428 C3436 1.574 . S
C3428 C3444 1.368 . S
H3429 C3437 0.950 . S
H3430 C3435 0.950 . S
H3431 C3436 0.949 . S
H3432 C3438 0.950 . S
H3433 C3439 0.950 . S
H3434 C3440 0.949 1_455 S
C3435 H3430 0.950 . S
C3435 C3437 1.327 . S
C3435 C3441 1.429 . S
C3436 C3428 1.574 . S
C3436 H3431 0.949 . S
C3436 C3442 1.368 . S
C3437 C3421 1.349 . S
C3437 H3429 0.950 . S
C3437 C3435 1.327 . S
C3438 C3426 1.349 . S
C3438 H3432 0.950 . S
C3438 C3439 1.327 . S
C3439 H3433 0.950 . S
C3439 C3438 1.327 . S
C3439 C3443 1.429 . S
C3440 C3423 1.574 . S
C3440 H3434 0.949 1_655 S
C3440 C3444 1.368 . S
C3441 C3422 1.429 . S
C3441 C3435 1.429 . S
C3441 C3442 1.523 . S
C3442 C3423 1.368 . S
C3442 C3436 1.368 . S
C3442 C3441 1.523 . S
C3443 C3427 1.429 . S
C3443 C3439 1.429 . S
C3443 C3444 1.523 . S
C3444 C3428 1.368 . S
C3444 C3440 1.368 . S
C3444 C3443 1.523 . S
H3445 C3420 0.950 . S
H3446 C3422 0.950 . S
H3447 C3423 0.964 . S
H3448 C3425 0.934 1_455 S
H3449 C3427 0.950 1_455 S
C3450 C3451 1.349 . S
C3450 C3452 1.327 . S
C3450 H3475 0.950 . S
C3451 C3450 1.349 . S
C3451 C3467 1.349 . S
C3452 C3450 1.327 . S
C3452 C3471 1.429 . S
C3452 H3476 0.950 . S
C3453 C3470 1.574 . S
C3453 C3472 1.368 . S
C3453 H3477 0.949 . S
H3454 C3458 0.949 . S
C3455 C3456 1.349 . S
C3455 C3457 1.327 . S
C3455 H3478 0.950 . S
C3456 C3455 1.349 . S
C3456 C3468 1.349 . S
C3457 C3455 1.327 . S
C3457 C3473 1.429 . S
C3457 H3479 0.950 . S
C3458 H3454 0.949 . S
C3458 C3466 1.574 . S
C3458 C3474 1.368 . S
H3459 C3467 0.950 . S
H3460 C3465 0.950 . S
H3461 C3466 0.949 . S
H3462 C3468 0.950 . S
H3463 C3469 0.950 . S
H3464 C3470 0.949 . S
C3465 H3460 0.950 . S
C3465 C3467 1.327 . S
C3465 C3471 1.429 . S
C3466 C3458 1.574 . S
C3466 H3461 0.949 . S
C3466 C3472 1.368 . S
C3467 C3451 1.349 . S
C3467 H3459 0.950 . S
C3467 C3465 1.327 . S
C3468 C3456 1.349 . S
C3468 H3462 0.950 . S
C3468 C3469 1.327 . S
C3469 H3463 0.950 . S
C3469 C3468 1.327 . S
C3469 C3473 1.429 . S
C3470 C3453 1.574 . S
C3470 H3464 0.949 . S
C3470 C3474 1.368 . S
C3471 C3452 1.429 . S
C3471 C3465 1.429 . S
C3471 C3472 1.523 . S
C3472 C3453 1.368 . S
C3472 C3466 1.368 . S
C3472 C3471 1.523 . S
C3473 C3457 1.429 . S
C3473 C3469 1.429 . S
C3473 C3474 1.523 . S
C3474 C3458 1.368 . S
C3474 C3470 1.368 . S
C3474 C3473 1.523 . S
H3475 C3450 0.950 . S
H3476 C3452 0.950 . S
H3477 C3453 0.949 . S
H3478 C3455 0.950 . S
H3479 C3457 0.950 . S
C3480 C3481 1.349 . S
C3480 C3482 1.327 . S
C3480 H3505 0.950 . S
C3481 C3480 1.349 . S
C3481 C3497 1.349 . S
C3482 C3480 1.327 . S
C3482 C3501 1.429 . S
C3482 H3506 0.950 . S
C3483 C3500 1.574 . S
C3483 C3502 1.368 . S
C3483 H3507 0.949 . S
H3484 C3488 0.949 . S
C3485 C3486 1.349 . S
C3485 C3487 1.327 . S
C3485 H3508 0.950 . S
C3486 C3485 1.349 . S
C3486 C3498 1.349 . S
C3487 C3485 1.327 . S
C3487 C3503 1.429 . S
C3487 H3509 0.950 . S
C3488 H3484 0.949 . S
C3488 C3496 1.574 . S
C3488 C3504 1.368 . S
H3489 C3497 0.950 . S
H3490 C3495 0.950 . S
H3491 C3496 0.949 . S
H3492 C3498 0.950 . S
H3493 C3499 0.950 . S
H3494 C3500 0.949 . S
C3495 H3490 0.950 . S
C3495 C3497 1.327 . S
C3495 C3501 1.429 . S
C3496 C3488 1.574 . S
C3496 H3491 0.949 . S
C3496 C3502 1.368 . S
C3497 C3481 1.349 . S
C3497 H3489 0.950 . S
C3497 C3495 1.327 . S
C3498 C3486 1.349 . S
C3498 H3492 0.950 . S
C3498 C3499 1.327 . S
C3499 H3493 0.950 . S
C3499 C3498 1.327 . S
C3499 C3503 1.429 . S
C3500 C3483 1.574 . S
C3500 H3494 0.949 . S
C3500 C3504 1.368 . S
C3501 C3482 1.429 . S
C3501 C3495 1.429 . S
C3501 C3502 1.523 . S
C3502 C3483 1.368 . S
C3502 C3496 1.368 . S
C3502 C3501 1.523 . S
C3503 C3487 1.429 . S
C3503 C3499 1.429 . S
C3503 C3504 1.523 . S
C3504 C3488 1.368 . S
C3504 C3500 1.368 . S
C3504 C3503 1.523 . S
H3505 C3480 0.950 . S
H3506 C3482 0.950 . S
H3507 C3483 0.949 . S
H3508 C3485 0.950 . S
H3509 C3487 0.950 . S
C1351 C10 1.699 . S
C1356 C839 1.646 . S
C1381 C23 1.687 . S
C1386 C883 1.643 . S
C1416 C963 1.646 . S
C1411 C29 1.700 . S
C1441 C30 1.696 . S
C1446 C1007 1.652 . S
C1471 C5 1.705 . S
C1476 C1087 1.659 . S
C1501 C18 1.693 . S
C1506 C1149 1.644 . S
C1531 C49 1.699 . S
C1536 C1069 1.645 . S
C1566 C1131 1.635 . S
C1561 C62 1.686 . S
C1596 C1025 1.653 . S
C1591 C70 1.695 . S
C1621 C75 1.696 . S
C1626 C945 1.642 . S
C1656 C821 1.655 . S
C1651 C44 1.705 . S
C1681 C57 1.693 . S
C1686 C901 1.651 . S
C1711 C88 1.699 . S
C1716 C1211 1.646 . S
C1741 C101 1.687 . S
C1746 C1255 1.643 . S
C1776 C1335 1.646 . S
C1771 C107 1.696 . S
C1801 C108 1.696 . S
C1806 C281 1.644 . S
C1831 C83 1.705 . S
C1836 C325 1.663 . S
C1861 C96 1.693 . S
C1866 C405 1.643 . S
C1891 C127 1.699 . S
C1896 C343 1.654 . S
C1921 C140 1.687 . S
C1926 C387 1.636 . S
C1956 C263 1.646 . S
C1951 C146 1.696 . S
C1986 C1317 1.644 . S
C1981 C147 1.696 . S
C2016 C1193 1.655 . S
C2011 C122 1.705 . S
C2046 C1273 1.650 . S
C2041 C135 1.693 . S
C2071 C160 1.699 . S
C2076 C467 1.647 . S
C2101 C173 1.687 . S
C2106 C529 1.635 . S
C2131 C185 1.696 . S
C2136 C573 1.654 . S
C2161 C186 1.696 . S
C2166 C635 1.652 . S
C2196 C697 1.663 . S
C2191 C159 1.705 . S
C2226 C777 1.643 . S
C2221 C172 1.693 . S
C2256 C715 1.655 . S
C2251 C205 1.699 . S
C2286 C759 1.635 . S
C2281 C218 1.687 . S
C2311 C224 1.695 . S
C2316 C653 1.654 . S
C2346 C591 1.652 . S
C2341 C225 1.696 . S
C2371 C200 1.705 . S
C2376 C449 1.655 . S
C2406 C511 1.643 . S
C2401 C213 1.693 . S
C2436 C287 1.456 . S
C2431 C4 1.511 . S
C2461 C17 1.503 . S
C2466 C331 1.450 . S
C2496 C411 1.459 . S
C2491 C31 1.516 . S
C2526 C473 1.454 . S
C2521 C36 1.510 1_556 S
C2556 C535 1.465 . S
C2551 C3 1.522 1_556 S
C2586 C579 1.459 . S
C2581 C16 1.514 1_556 S
C2611 C43 1.511 1_556 S
C2616 C597 1.458 . S
C2641 C56 1.503 1_556 S
C2646 C455 1.448 . S
C2671 C68 1.516 1_556 S
C2676 C517 1.459 . S
C2701 C69 1.510 . S
C2706 C349 1.457 . S
C2736 C393 1.465 . S
C2731 C42 1.522 . S
C2761 C55 1.514 . S
C2766 C269 1.457 . S
C2796 C641 1.458 . S
C2791 C82 1.511 . S
C2821 C95 1.503 . S
C2826 C703 1.450 . S
C2851 C109 1.516 . S
C2856 C783 1.459 . S
C2886 C845 1.454 . S
C2881 C114 1.510 . S
C2911 C81 1.523 . S
C2916 C889 1.467 . S
C2941 C94 1.514 . S
C2946 C969 1.462 . S
C2971 C121 1.511 . S
C2976 C951 1.451 . S
C3001 C134 1.503 . S
C3006 C827 1.448 . S
C3036 C907 1.461 . S
C3031 C148 1.516 . S
C3061 C153 1.510 . S
C3066 C721 1.456 . S
C3091 C120 1.522 . S
C3096 C765 1.465 . S
C3126 C659 1.459 . S
C3121 C133 1.514 . S
C3156 C1013 1.458 . S
C3151 C166 1.511 . S
C3181 C179 1.503 . S
C3186 C1093 1.452 . S
C3211 C187 1.516 . S
C3216 C1155 1.460 . S
C3246 C1217 1.455 . S
C3241 C192 1.510 . S
C3276 C1261 1.467 . S
C3271 C161 1.522 . S
C3301 C174 1.514 . S
C3306 C1341 1.457 . S
C3331 C199 1.512 . S
C3336 C1323 1.456 . S
C3361 C212 1.503 . S
C3366 C1199 1.448 . S
C3396 C1279 1.461 . S
C3391 C226 1.516 . S
C3426 C1075 1.454 . S
C3421 C231 1.504 . S
C3456 C1137 1.466 . S
C3451 C198 1.523 . S
C3481 C211 1.514 . S
C3486 C1031 1.459 . S
