# Generated by pormake.
# Topology anh, (6,3)-cn, num edge types: 1
# Building blocks:
#     Node 0, Type 0, BuildingBlock: BETDAH_clean_sbu_0, # of connection points: 6
#     Node 1, Type 0, BuildingBlock: BETDAH_clean_sbu_0, # of connection points: 6
#     Node 2, Type 0, BuildingBlock: BETDAH_clean_sbu_0, # of connection points: 6
#     Node 3, Type 1, BuildingBlock: MIDCAF_clean_linker_0, # of connection points: 3
#     Node 4, Type 1, BuildingBlock: MIDCAF_clean_linker_0, # of connection points: 3
#     Node 5, Type 1, BuildingBlock: MIDCAF_clean_linker_0, # of connection points: 3
#     Node 6, Type 1, BuildingBlock: MIDCAF_clean_linker_0, # of connection points: 3
#     Node 7, Type 1, BuildingBlock: MIDCAF_clean_linker_0, # of connection points: 3
#     Node 8, Type 1, BuildingBlock: MIDCAF_clean_linker_0, # of connection points: 3
#     Edge 9, Type (0, 1), BuildingBlock: UVAHIK_clean_linker_0, # of connection points: 2
#     Edge 10, Type (0, 1), BuildingBlock: UVAHIK_clean_linker_0, # of connection points: 2
#     Edge 11, Type (0, 1), BuildingBlock: UVAHIK_clean_linker_0, # of connection points: 2
#     Edge 12, Type (0, 1), BuildingBlock: UVAHIK_clean_linker_0, # of connection points: 2
#     Edge 13, Type (0, 1), BuildingBlock: UVAHIK_clean_linker_0, # of connection points: 2
#     Edge 14, Type (0, 1), BuildingBlock: UVAHIK_clean_linker_0, # of connection points: 2
#     Edge 15, Type (0, 1), BuildingBlock: UVAHIK_clean_linker_0, # of connection points: 2
#     Edge 16, Type (0, 1), BuildingBlock: UVAHIK_clean_linker_0, # of connection points: 2
#     Edge 17, Type (0, 1), BuildingBlock: UVAHIK_clean_linker_0, # of connection points: 2
#     Edge 18, Type (0, 1), BuildingBlock: UVAHIK_clean_linker_0, # of connection points: 2
#     Edge 19, Type (0, 1), BuildingBlock: UVAHIK_clean_linker_0, # of connection points: 2
#     Edge 20, Type (0, 1), BuildingBlock: UVAHIK_clean_linker_0, # of connection points: 2
#     Edge 21, Type (0, 1), BuildingBlock: UVAHIK_clean_linker_0, # of connection points: 2
#     Edge 22, Type (0, 1), BuildingBlock: UVAHIK_clean_linker_0, # of connection points: 2
#     Edge 23, Type (0, 1), BuildingBlock: UVAHIK_clean_linker_0, # of connection points: 2
#     Edge 24, Type (0, 1), BuildingBlock: UVAHIK_clean_linker_0, # of connection points: 2
#     Edge 25, Type (0, 1), BuildingBlock: UVAHIK_clean_linker_0, # of connection points: 2
#     Edge 26, Type (0, 1), BuildingBlock: UVAHIK_clean_linker_0, # of connection points: 2
# Relax obj value: 0.165
# Max RMSD: 0.201
# Mean RMSD: 0.151
data_MOF--net-anh--node1-BETDAH_clean_sbu_0--node2-MIDCAF_clean_linker_0--edge1-UVAHIK_clean_linker_0
_symmetry_space_group_name_H-M    P1
_symmetry_Int_Tables_number       1
_symmetry_cell_setting            triclinic
loop_
_symmetry_equiv_pos_as_xyz
'x, y, z'
_cell_length_a     45.105383
_cell_length_b     52.436748
_cell_length_c     81.666088
_cell_angle_alpha  93.212093
_cell_angle_beta   89.094592
_cell_angle_gamma 127.00923
loop_
_atom_site_label
_atom_site_type_symbol
_atom_site_fract_x
_atom_site_fract_y
_atom_site_fract_z
_atom_type_partial_charge
Ho0 Ho 0.08496 0.51055 0.14834 0.0
Ho1 Ho 1.0428 0.53461 0.16296 0.0
C2 C 0.12761 0.58762 0.15684 0.0
C3 C 0.12887 0.50331 0.132 0.0
C4 C 0.16775 0.51643 0.13541 0.0
C5 C 0.19436 0.53183 0.12324 0.0
C6 C 0.23155 0.54526 0.12664 0.0
C7 C 0.24269 0.54334 0.14225 0.0
C8 C 0.21591 0.52817 0.15443 0.0
C9 C 0.17895 0.51508 0.15109 0.0
C10 C 0.08153 0.51125 0.1813 0.0
C11 C 1.00056 0.45844 0.15437 0.0
C12 C 0.99808 0.53969 0.18029 0.0
C13 C 0.95909 0.51496 0.18416 0.0
C14 C 0.94408 0.5175 0.19878 0.0
C15 C 0.90747 0.49281 0.20273 0.0
C16 C 0.88578 0.46511 0.19222 0.0
C17 C 0.90106 0.46276 0.17763 0.0
C18 C 0.93726 0.48749 0.1736 0.0
C19 C 0.04798 0.53442 0.13001 0.0
O20 O 0.12697 0.56472 0.14861 0.0
O21 O 0.099 0.58136 0.16538 0.0
O22 O 0.10443 0.48252 0.14212 0.0
O23 O 0.1233 0.52417 0.12843 0.0
O24 O 0.08218 0.49038 0.17243 0.0
O25 O 0.08608 0.53214 0.17245 0.0
O26 O 1.00367 0.48079 0.16431 0.0
O27 O 1.02707 0.46571 0.14403 0.0
O28 O 1.00455 0.54653 0.16487 0.0
O29 O 1.02178 0.53626 0.1867 0.0
O30 O 0.04898 0.55632 0.13883 0.0
O31 O 1.04198 0.51307 0.13892 0.0
H32 H 0.1864 0.53358 0.11115 0.0
H33 H 0.25154 0.55714 0.11703 0.0
H34 H 0.22325 0.52568 0.16649 0.0
H35 H 0.15915 0.50377 0.16082 0.0
H36 H 0.96068 0.53844 0.20712 0.0
H37 H 0.89617 0.49523 0.214 0.0
H38 H 0.88475 0.44202 0.16913 0.0
H39 H 0.94821 0.48503 0.16223 0.0
Ho40 Ho 0.58445 0.00658 0.49057 0.0
Ho41 Ho 0.53405 0.02472 0.48147 0.0
C42 C 0.49539 0.95108 0.48367 0.0
C43 C 0.61373 0.98301 0.50424 0.0
C44 C 0.60475 0.95124 0.50636 0.0
C45 C 0.60085 0.94083 0.52224 0.0
C46 C 0.59454 0.91179 0.52469 0.0
C47 C 0.59232 0.89257 0.5113 0.0
C48 C 0.59541 0.90268 0.49535 0.0
C49 C 0.60154 0.9317 0.4929 0.0
C50 C 0.57976 0.01237 0.45837 0.0
C51 C 0.62352 0.08034 0.48748 0.0
C52 C 0.50513 0.04967 0.46902 0.0
C53 C 0.51371 0.08151 0.47106 0.0
C54 C 0.49515 0.08932 0.4614 0.0
C55 C 0.50255 0.11934 0.46369 0.0
C56 C 0.5287 0.14203 0.4757 0.0
C57 C 0.54753 0.13407 0.48521 0.0
C58 C 0.54011 0.10411 0.4829 0.0
C59 C 0.5403 0.01996 0.51373 0.0
O60 O 0.52635 0.9597 0.49112 0.0
O61 O 0.49354 0.97196 0.47636 0.0
O62 O 0.62165 0.99353 0.48946 0.0
O63 O 0.59313 0.98934 0.5121 0.0
O64 O 0.6096 0.01988 0.46565 0.0
O65 O 0.55326 -3e-05 0.46818 0.0
O66 O 0.59181 0.07147 0.48079 0.0
O67 O 0.62651 0.0597 0.49434 0.0
O68 O 0.49247 0.03289 0.48202 0.0
O69 O 0.53029 0.04849 0.46166 0.0
O70 O 0.50995 0.01182 0.50673 0.0
O71 O 0.566 0.03207 0.50359 0.0
H72 H 0.60314 0.95541 0.53282 0.0
H73 H 0.5916 0.90448 0.53712 0.0
H74 H 0.59418 0.88864 0.48477 0.0
H75 H 0.60441 0.93904 0.48048 0.0
H76 H 0.47477 0.07215 0.45217 0.0
H77 H 0.4879 0.12481 0.45602 0.0
H78 H 0.56742 0.15071 0.49472 0.0
H79 H 0.55463 0.09841 0.49051 0.0
Ho80 Ho 0.60886 0.55515 0.84121 0.0
Ho81 Ho 0.55918 0.48467 0.84897 0.0
C82 C 0.51989 0.51841 0.84676 0.0
C83 C 0.63803 0.61008 0.82928 0.0
C84 C 0.62853 0.63252 0.82811 0.0
C85 C 0.60871 0.63055 0.81437 0.0
C86 C 0.60069 0.65228 0.81302 0.0
C87 C 0.61248 0.67664 0.82531 0.0
C88 C 0.63232 0.67862 0.83905 0.0
C89 C 0.64035 0.65688 0.84041 0.0
C90 C 0.60418 0.54306 0.87318 0.0
C91 C 0.6486 0.52193 0.84353 0.0
C92 C 0.53065 0.43009 0.86118 0.0
C93 C 0.53592 0.40523 0.85805 0.0
C94 C 0.52249 0.3811 0.86905 0.0
C95 C 0.52611 0.35663 0.86571 0.0
C96 C 0.54301 0.3559 0.85125 0.0
C97 C 0.55718 0.38061 0.84046 0.0
C98 C 0.5538 0.40513 0.84386 0.0
C99 C 0.56421 0.49547 0.81677 0.0
O100 O 0.55073 0.54204 0.83991 0.0
O101 O 0.51836 0.49538 0.85366 0.0
O102 O 0.64647 0.60679 0.84388 0.0
O103 O 0.61741 0.58285 0.8206 0.0
O104 O 0.63444 0.5663 0.86663 0.0
O105 O 0.57798 0.52885 0.86277 0.0
O106 O 0.61752 0.498 0.85013 0.0
O107 O 0.65048 0.54531 0.83687 0.0
O108 O 0.51526 0.43396 0.8491 0.0
O109 O 0.55904 0.45727 0.86791 0.0
O110 O 0.5349 0.47129 0.82331 0.0
O111 O 0.59022 0.51076 0.82729 0.0
H112 H 0.59966 0.6124 0.80455 0.0
H113 H 0.58593 0.6504 0.80213 0.0
H114 H 0.64154 0.69691 0.84881 0.0
H115 H 0.65598 0.65929 0.85109 0.0
H116 H 0.50873 0.38093 0.88009 0.0
H117 H 0.51476 0.33782 0.8742 0.0
H118 H 0.5708 0.38091 0.82935 0.0
H119 H 0.56467 0.42381 0.83531 0.0
C120 C 0.44372 0.92198 0.19597 0.0
C121 C 0.44713 0.91304 0.17993 0.0
C122 C 0.48074 0.93365 0.1718 0.0
C123 C 0.5104 0.96251 0.17968 0.0
H124 H 0.60657 0.06418 0.17346 0.0
H125 H 0.6559 0.1148 0.16157 0.0
H126 H 0.70269 0.15627 0.21003 0.0
H127 H 0.65443 0.10671 0.22184 0.0
H128 H 0.61802 0.07432 0.25273 0.0
H129 H 0.61737 0.07481 0.28254 0.0
H130 H 0.5147 0.97889 0.28012 0.0
H131 H 0.51481 0.97849 0.25031 0.0
H132 H 0.46953 0.95609 0.2163 0.0
H133 H 0.41845 0.9065 0.20267 0.0
H134 H 0.4841 0.92739 0.15941 0.0
H135 H 0.53616 0.97775 0.17327 0.0
N136 N 0.56718 0.02562 0.19744 0.0
N137 N 0.59481 0.05167 0.2231 0.0
N138 N 0.53886 0.00024 0.2218 0.0
C139 C 0.5954 0.05186 0.20646 0.0
C140 C 0.56679 0.02603 0.23088 0.0
C141 C 0.5387 -0.00031 0.20515 0.0
C142 C 0.6261 0.0813 0.19865 0.0
C143 C 0.62752 0.08407 0.18154 0.0
C144 C 0.65576 0.11297 0.17473 0.0
C145 C 0.68273 0.1396 0.18492 0.0
C146 C 0.68184 0.13641 0.20189 0.0
C147 C 0.65407 0.10776 0.20865 0.0
C148 C 0.56648 0.02635 0.24905 0.0
C149 C 0.59524 0.0533 0.25851 0.0
C150 C 0.59499 0.05355 0.27563 0.0
C151 C 0.56601 0.02688 0.28371 0.0
C152 C 0.53719 -1e-05 0.27428 0.0
C153 C 0.53741 -0.00029 0.25716 0.0
C154 C 0.50708 0.97087 0.19591 0.0
C155 C 0.47324 0.95039 0.20384 0.0
C156 C 0.5958 0.43956 0.54839 0.0
C157 C 0.57953 0.43005 0.53258 0.0
C158 C 0.56482 0.44491 0.52641 0.0
C159 C 0.56625 0.46874 0.53594 0.0
H160 H 0.58045 0.55888 0.53408 0.0
H161 H 0.58 0.60179 0.52398 0.0
H162 H 0.5697 0.62817 0.57361 0.0
H163 H 0.57063 0.58616 0.5837 0.0
H164 H 0.59898 0.56834 0.61278 0.0
H165 H 0.60109 0.56652 0.64249 0.0
H166 H 0.57731 0.4735 0.63651 0.0
H167 H 0.57517 0.47514 0.60679 0.0
H168 H 0.6091 0.46928 0.57017 0.0
H169 H 0.60699 0.4283 0.55355 0.0
H170 H 0.55221 0.43807 0.51423 0.0
H171 H 0.55442 0.47959 0.53095 0.0
N172 N 0.57846 0.52309 0.55623 0.0
N173 N 0.58143 0.5441 0.58282 0.0
N174 N 0.58431 0.50114 0.57916 0.0
C175 C 0.57848 0.54468 0.56633 0.0
C176 C 0.58426 0.52243 0.58934 0.0
C177 C 0.5815 0.50128 0.56263 0.0
C178 C 0.57602 0.5692 0.55973 0.0
C179 C 0.57794 0.57377 0.54282 0.0
C180 C 0.57756 0.59827 0.53701 0.0
C181 C 0.57537 0.61866 0.54803 0.0
C182 C 0.57231 0.61339 0.56484 0.0
C183 C 0.57268 0.58908 0.57061 0.0
C184 C 0.58677 0.52183 0.60737 0.0
C185 C 0.59429 0.54751 0.61777 0.0
C186 C 0.59574 0.54659 0.63479 0.0
C187 C 0.58929 0.51985 0.64179 0.0
C188 C 0.58207 0.49429 0.63143 0.0
C189 C 0.58104 0.49534 0.6144 0.0
C190 C 0.58178 0.47765 0.55192 0.0
C191 C 0.59674 0.46291 0.55796 0.0
C192 C 1.00049 0.55431 0.87026 0.0
C193 C 0.97918 0.53582 0.85617 0.0
C194 C 0.98872 0.51772 0.84745 0.0
C195 C 1.01778 0.51723 0.85311 0.0
H196 H 0.15295 0.54847 0.85014 0.0
H197 H 0.20599 0.54834 0.84248 0.0
H198 H 0.17602 0.4813 0.87942 0.0
H199 H 0.12398 0.48156 0.887 0.0
H200 H 0.12393 0.51877 0.9232 0.0
H201 H 0.12092 0.51935 0.95305 0.0
H202 H 1.03631 0.5337 0.95096 0.0
H203 H 1.03879 0.5327 0.9212 0.0
H204 H 1.04384 0.56753 0.88712 0.0
H205 H 0.994 0.56819 0.87755 0.0
H206 H 0.97328 0.50343 0.83643 0.0
H207 H 1.02336 0.50201 0.8466 0.0
N208 N 0.08601 0.52485 0.86805 0.0
N209 N 0.10587 0.52028 0.89354 0.0
N210 N 0.06187 0.52996 0.89277 0.0
C211 C 0.10776 0.52009 0.87691 0.0
C212 C 0.08314 0.52524 0.90157 0.0
C213 C 0.06279 0.52976 0.87614 0.0
C214 C 0.13444 0.51528 0.86929 0.0
C215 C 0.15723 0.5331 0.85627 0.0
C216 C 0.1877 0.53314 0.85196 0.0
C217 C 0.19583 0.5154 0.86063 0.0
C218 C 0.1713 0.49592 0.87279 0.0
C219 C 0.14121 0.4959 0.87705 0.0
C220 C 0.08156 0.52563 0.91974 0.0
C221 C 0.10464 0.52202 0.92908 0.0
C222 C 0.10308 0.52252 0.9462 0.0
C223 C 0.07834 0.52652 0.95436 0.0
C224 C 0.05532 0.53014 0.94503 0.0
C225 C 0.05692 0.52974 0.92794 0.0
C226 C 1.03764 0.53464 0.86768 0.0
C227 C 1.02916 0.55377 0.87586 0.0
C228 C 0.15413 0.62852 0.44384 0.0
C229 C 0.16615 0.63008 0.45986 0.0
C230 C 0.14861 0.60164 0.46813 0.0
C231 C 0.11957 0.5722 0.46044 0.0
H232 H 1.0241 0.46952 0.4663 0.0
H233 H 0.97339 0.42048 0.47895 0.0
H234 H 0.90902 0.38877 0.4338 0.0
H235 H 0.95886 0.43693 0.42126 0.0
H236 H 1.00351 0.46115 0.38825 0.0
H237 H 1.00346 0.46016 0.35838 0.0
H238 H 0.10033 0.55904 0.36037 0.0
H239 H 0.10016 0.56036 0.39015 0.0
H240 H 0.11756 0.59926 0.42372 0.0
H241 H 0.16737 0.64988 0.43704 0.0
H242 H 0.15729 0.60218 0.48051 0.0
H243 H 0.10668 0.5506 0.467 0.0
N244 N 0.05293 0.51346 0.44332 0.0
N245 N 1.02586 0.4855 0.41789 0.0
N246 N 0.07849 0.53873 0.41867 0.0
C247 C 1.02592 0.48608 0.43456 0.0
C248 C 0.05212 0.51163 0.40985 0.0
C249 C 0.07925 0.54002 0.43532 0.0
C250 C 0.99563 0.45717 0.44276 0.0
C251 C 0.99902 0.45209 0.45914 0.0
C252 C 0.97013 0.42402 0.46635 0.0
C253 C 0.93718 0.40095 0.45738 0.0
C254 C 0.93384 0.40628 0.4411 0.0
C255 C 0.96265 0.43388 0.43387 0.0
C256 C 0.05185 0.51083 0.39167 0.0
C257 C 1.02478 0.48273 0.38235 0.0
C258 C 1.02483 0.48208 0.36521 0.0
C259 C 0.05186 0.50953 0.35701 0.0
C260 C 0.0788 0.53763 0.36631 0.0
C261 C 0.07881 0.53828 0.38342 0.0
C262 C 0.10817 0.57076 0.44427 0.0
C263 C 0.12569 0.59933 0.43615 0.0
C264 C 0.58502 0.11299 0.77661 0.0
C265 C 0.57289 0.10906 0.79285 0.0
C266 C 0.56468 0.08251 0.80088 0.0
C267 C 0.56699 0.05966 0.79255 0.0
H268 H 0.58622 0.98764 0.79696 0.0
H269 H 0.58463 0.94537 0.80932 0.0
H270 H 0.54577 0.88972 0.76311 0.0
H271 H 0.54714 0.93151 0.7508 0.0
H272 H 0.54729 0.96285 0.71843 0.0
H273 H 0.54498 0.96269 0.68866 0.0
H274 H 0.60032 0.06471 0.69214 0.0
H275 H 0.60099 0.0645 0.72188 0.0
H276 H 0.59596 0.09388 0.75569 0.0
H277 H 0.59244 0.13357 0.7702 0.0
H278 H 0.55516 0.07876 0.81338 0.0
H279 H 0.55933 0.03894 0.79889 0.0
N280 N 0.57281 0.01323 0.77398 0.0
N281 N 0.57034 0.9895 0.74826 0.0
N282 N 0.57705 0.03741 0.74983 0.0
C283 C 0.56996 0.98922 0.76489 0.0
C284 C 0.57404 0.01357 0.74065 0.0
C285 C 0.57628 0.03741 0.76647 0.0
C286 C 0.56697 0.96306 0.77287 0.0
C287 C 0.577 0.96625 0.78949 0.0
C288 C 0.5763 0.94215 0.79655 0.0
C289 C 0.56505 0.91424 0.78718 0.0
C290 C 0.55416 0.91077 0.7707 0.0
C291 C 0.55524 0.9349 0.76362 0.0
C292 C 0.57413 0.01365 0.72253 0.0
C293 C 0.55904 0.98525 0.71282 0.0
C294 C 0.55791 0.98521 0.69572 0.0
C295 C 0.57234 0.01367 0.68791 0.0
C296 C 0.58815 0.04218 0.69768 0.0
C297 C 0.58877 0.04212 0.71476 0.0
C298 C 0.57747 0.06293 0.77604 0.0
C299 C 0.58719 0.09023 0.76831 0.0
C300 C 0.55477 0.34145 0.11878 0.0
C301 C 0.55836 0.34376 0.136 0.0
C302 C 0.5471 0.35992 0.14519 0.0
C303 C 0.53517 0.37535 0.13739 0.0
H304 H 0.49784 0.4303 0.14676 0.0
H305 H 0.48616 0.464 0.16297 0.0
H306 H 0.51388 0.5216 0.12144 0.0
H307 H 0.52569 0.48841 0.10535 0.0
H308 H 0.50294 0.44544 0.0698 0.0
H309 H 0.51532 0.45788 0.04121 0.0
H310 H 0.57537 0.41759 0.03801 0.0
H311 H 0.56199 0.40421 0.06673 0.0
H312 H 0.54225 0.35606 0.09767 0.0
H313 H 0.56253 0.32866 0.11133 0.0
H314 H 0.54982 0.36257 0.15845 0.0
H315 H 0.52837 0.38874 0.14495 0.0
N316 N 0.52124 0.41445 0.12144 0.0
N317 N 0.52069 0.4378 0.098 0.0
N318 N 0.53095 0.39893 0.09558 0.0
C319 C 0.51781 0.43544 0.11448 0.0
C320 C 0.52709 0.41964 0.08845 0.0
C321 C 0.52772 0.39603 0.11211 0.0
C322 C 0.5123 0.45644 0.1247 0.0
C323 C 0.5018 0.45037 0.14116 0.0
C324 C 0.49515 0.46964 0.15045 0.0
C325 C 0.49937 0.49554 0.14351 0.0
C326 C 0.51104 0.50217 0.12724 0.0
C327 C 0.51732 0.48282 0.11794 0.0
C328 C 0.53183 0.42414 0.07061 0.0
C329 C 0.51862 0.43902 0.06301 0.0
C330 C 0.52591 0.44635 0.04662 0.0
C331 C 0.54696 0.43931 0.03739 0.0
C332 C 0.55898 0.42326 0.04476 0.0
C333 C 0.55137 0.41564 0.06122 0.0
C334 C 0.53446 0.37525 0.12017 0.0
C335 C 0.54306 0.35712 0.11095 0.0
C336 C 0.2983 0.56866 0.16123 0.0
C337 C 0.28144 0.55514 0.14563 0.0
C338 C 0.33251 0.57536 0.16508 0.0
C339 C 0.41284 0.58234 0.14694 0.0
H340 H 0.40687 0.53764 0.18459 0.0
C341 C 0.45317 0.49701 0.15987 0.0
C342 C 0.48779 0.51359 0.15232 0.0
C343 C 0.43779 0.51269 0.16456 0.0
C344 C 0.40927 0.55064 0.17417 0.0
H345 H 0.28841 0.53966 0.12163 0.0
H346 H 0.34805 0.55181 0.12823 0.0
H347 H 0.36094 0.54728 0.18066 0.0
H348 H 0.53551 0.56029 0.14561 0.0
H349 H 0.50872 0.58782 0.15391 0.0
H350 H 0.45916 0.58343 0.13966 0.0
C351 C 0.33498 0.55741 0.13748 0.0
C352 C 0.38316 0.55642 0.17199 0.0
C353 C 0.30069 0.55043 0.13368 0.0
C354 C 0.50841 0.54682 0.15111 0.0
C355 C 0.49309 0.56255 0.15586 0.0
C356 C 0.4389 0.57658 0.14911 0.0
C357 C 0.35076 0.5691 0.15334 0.0
C358 C 0.38361 0.57085 0.1579 0.0
C359 C 0.45681 0.5453 0.16182 0.0
C360 C 0.43624 0.5592 0.16229 0.0
H361 H 0.28459 0.57325 0.17063 0.0
H362 H 0.34423 0.58462 0.17736 0.0
H363 H 0.41414 0.59396 0.1361 0.0
H364 H 0.43654 0.47137 0.16089 0.0
H365 H 0.40967 0.49855 0.16898 0.0
C366 C 0.6523 0.13701 0.48139 0.0
C367 C 0.65624 0.11443 0.48718 0.0
C368 C 0.68318 0.16878 0.4801 0.0
C369 C 0.7814 0.22965 0.49349 0.0
H370 H 0.78522 0.26861 0.45376 0.0
C371 C 0.91245 0.35141 0.47247 0.0
C372 C 0.90615 0.37094 0.46457 0.0
C373 C 0.88246 0.32095 0.47702 0.0
C374 C 0.78442 0.25832 0.46504 0.0
H375 H 0.6958 0.10786 0.49659 0.0
H376 H 0.74995 0.16344 0.49413 0.0
H377 H 0.7323 0.21399 0.4582 0.0
H378 H 0.86377 0.37502 0.45639 0.0
H379 H 0.81169 0.32237 0.46451 0.0
H380 H 0.83397 0.27422 0.50019 0.0
C381 C 0.7228 0.15653 0.49074 0.0
C382 C 0.75402 0.22692 0.46759 0.0
C383 C 0.69178 0.12463 0.49208 0.0
C384 C 0.86945 0.36024 0.46219 0.0
C385 C 0.83962 0.33001 0.46678 0.0
C386 C 0.81199 0.26122 0.49092 0.0
C387 C 0.71892 0.17886 0.48448 0.0
C388 C 0.75191 0.21223 0.48188 0.0
C389 C 0.84569 0.30958 0.47379 0.0
C390 C 0.81366 0.276 0.47672 0.0
H391 H 0.62535 0.13016 0.47766 0.0
H392 H 0.67904 0.18547 0.47556 0.0
H393 H 0.78054 0.2191 0.50468 0.0
H394 H 0.94046 0.359 0.47438 0.0
H395 H 0.88811 0.30579 0.48235 0.0
C396 C 0.63217 0.73292 0.82792 0.0
C397 C 0.60483 0.70029 0.82359 0.0
C398 C 0.62554 0.75533 0.82564 0.0
C399 C 0.56802 0.76735 0.80084 0.0
H400 H 0.60123 0.83795 0.83258 0.0
C401 C 0.53676 0.85669 0.79094 0.0
C402 C 0.56601 0.88924 0.79421 0.0
C403 C 0.53923 0.83307 0.79609 0.0
C404 C 0.59205 0.81851 0.82354 0.0
H405 H 0.54859 0.66555 0.81402 0.0
H406 H 0.53712 0.70469 0.80996 0.0
H407 H 0.60997 0.79771 0.83858 0.0
H408 H 0.62037 0.92254 0.80583 0.0
H409 H 0.62493 0.88131 0.81471 0.0
H410 H 0.55076 0.78829 0.78564 0.0
C411 C 0.56388 0.71297 0.8149 0.0
C412 C 0.59703 0.79546 0.82698 0.0
C413 C 0.57048 0.69056 0.81721 0.0
C414 C 0.59723 0.89764 0.80327 0.0
C415 C 0.59981 0.87399 0.80836 0.0
C416 C 0.56315 0.7904 0.79738 0.0
C417 C 0.59146 0.74566 0.81895 0.0
C418 C 0.58518 0.76967 0.81563 0.0
C419 C 0.57112 0.84142 0.80456 0.0
C420 C 0.57519 0.81634 0.80865 0.0
H421 H 0.65912 0.7413 0.83265 0.0
H422 H 0.64753 0.78038 0.82868 0.0
H423 H 0.55916 0.74811 0.79171 0.0
H424 H 0.5121 0.84949 0.7842 0.0
H425 H 0.51627 0.80821 0.79328 0.0
C426 C 0.83189 0.40721 0.19306 0.0
C427 C 0.84635 0.43955 0.19554 0.0
C428 C 0.79354 0.3833 0.19252 0.0
C429 C 0.71935 0.34754 0.175 0.0
H430 H 0.64841 0.3589 0.19391 0.0
C431 C 0.61132 0.34051 0.13724 0.0
C432 C 0.57893 0.33396 0.14427 0.0
C433 C 0.63585 0.33885 0.1464 0.0
C434 C 0.66735 0.35456 0.18872 0.0
H435 H 0.83244 0.47207 0.20079 0.0
H436 H 0.76577 0.43074 0.19947 0.0
H437 H 0.70823 0.38435 0.20764 0.0
H438 H 0.54484 0.3169 0.16586 0.0
H439 H 0.58817 0.31445 0.182 0.0
H440 H 0.67896 0.31866 0.15581 0.0
C441 C 0.78368 0.42348 0.19823 0.0
C442 C 0.70192 0.36955 0.19651 0.0
C443 C 0.82201 0.44732 0.19893 0.0
C444 C 0.57 0.32282 0.16021 0.0
C445 C 0.59473 0.32133 0.16944 0.0
C446 C 0.68469 0.33233 0.16732 0.0
C447 C 0.76895 0.39133 0.19426 0.0
C448 C 0.72917 0.36789 0.18917 0.0
C449 C 0.62869 0.33068 0.16286 0.0
C450 C 0.65929 0.33739 0.17352 0.0
H451 H 0.85021 0.40059 0.19069 0.0
H452 H 0.78318 0.35874 0.18982 0.0
H453 H 0.73946 0.34555 0.16895 0.0
H454 H 0.61947 0.34953 0.1251 0.0
H455 H 0.66193 0.34665 0.14096 0.0
C456 C 0.46386 0.89344 0.48931 0.0
C457 C 0.46204 0.91718 0.48342 0.0
C458 C 0.43206 0.86159 0.4893 0.0
C459 C 0.32959 0.81216 0.48825 0.0
H460 H 0.33362 0.74374 0.47136 0.0
C461 C 0.19959 0.68889 0.46561 0.0
C462 C 0.19776 0.66147 0.46738 0.0
C463 C 0.23148 0.7192 0.47046 0.0
C464 C 0.33209 0.76244 0.47643 0.0
H465 H 0.42525 0.92596 0.4729 0.0
H466 H 0.37005 0.87063 0.47289 0.0
H467 H 0.39057 0.7985 0.47394 0.0
H468 H 0.22735 0.64423 0.47634 0.0
H469 H 0.28313 0.69735 0.48511 0.0
H470 H 0.27115 0.77631 0.49057 0.0
C471 C 0.39597 0.87663 0.47764 0.0
C472 C 0.36475 0.79386 0.47786 0.0
C473 C 0.42773 0.90834 0.47752 0.0
C474 C 0.22789 0.66491 0.47489 0.0
C475 C 0.25997 0.69536 0.47973 0.0
C476 C 0.29701 0.78078 0.48691 0.0
C477 C 0.3977 0.85289 0.48355 0.0
C478 C 0.36372 0.81916 0.48345 0.0
C479 C 0.26243 0.72293 0.47725 0.0
C480 C 0.29769 0.7556 0.48063 0.0
H481 H 0.48984 0.8994 0.49395 0.0
H482 H 0.43424 0.84386 0.494 0.0
H483 H 0.328 0.83104 0.49292 0.0
H484 H 0.17666 0.68697 0.46001 0.0
H485 H 0.23239 0.73981 0.4682 0.0
C486 C 0.55553 0.31731 0.85889 0.0
C487 C 0.54467 0.32887 0.84708 0.0
C488 C 0.55697 0.29179 0.85478 0.0
C489 C 0.51946 0.22329 0.82489 0.0
H490 H 0.6069 0.2294 0.83599 0.0
C491 C 0.55127 0.14315 0.79206 0.0
C492 C 0.56734 0.13196 0.80097 0.0
C493 C 0.54663 0.1652 0.79931 0.0
C494 C 0.582 0.22704 0.83304 0.0
H495 H 0.52617 0.32245 0.82183 0.0
H496 H 0.52872 0.27807 0.81467 0.0
H497 H 0.60232 0.27181 0.84579 0.0
H498 H 0.59069 0.13491 0.82462 0.0
H499 H 0.58203 0.17329 0.83745 0.0
H500 H 0.49913 0.17876 0.81207 0.0
C501 C 0.53609 0.28865 0.8271 0.0
C502 C 0.57943 0.25137 0.83863 0.0
C503 C 0.53501 0.31428 0.83115 0.0
C504 C 0.5781 0.14299 0.81745 0.0
C505 C 0.57345 0.16517 0.82474 0.0
C506 C 0.52191 0.19895 0.8194 0.0
C507 C 0.54708 0.27711 0.83886 0.0
C508 C 0.54847 0.25005 0.8343 0.0
C509 C 0.55772 0.17658 0.81572 0.0
C510 C 0.55357 0.20085 0.82308 0.0
H511 H 0.56332 0.32823 0.87124 0.0
H512 H 0.56541 0.2833 0.86411 0.0
H513 H 0.49493 0.22131 0.82164 0.0
H514 H 0.54212 0.13478 0.77941 0.0
H515 H 0.5349 0.17377 0.79191 0.0
C516 C 0.60742 0.86198 0.52717 0.0
C517 C 0.58821 0.86276 0.51406 0.0
C518 C 0.60384 0.83422 0.5299 0.0
C519 C 0.57844 0.75864 0.50991 0.0
H520 H 0.57011 0.73501 0.55483 0.0
C521 C 0.55661 0.64245 0.52843 0.0
C522 C 0.57706 0.64594 0.54232 0.0
C523 C 0.55646 0.66782 0.52399 0.0
C524 C 0.57273 0.74141 0.54222 0.0
H525 H 0.55014 0.83474 0.49348 0.0
H526 H 0.54412 0.78617 0.49822 0.0
H527 H 0.57192 0.78093 0.54905 0.0
H528 H 0.61517 0.67936 0.56181 0.0
H529 H 0.61494 0.72333 0.5541 0.0
H530 H 0.57958 0.71909 0.50317 0.0
C531 C 0.56212 0.80724 0.50632 0.0
C532 C 0.57375 0.76773 0.53891 0.0
C533 C 0.5656 0.83508 0.50361 0.0
C534 C 0.59839 0.67562 0.55128 0.0
C535 C 0.59823 0.70083 0.54687 0.0
C536 C 0.57744 0.7322 0.51324 0.0
C537 C 0.58104 0.80648 0.51957 0.0
C538 C 0.57726 0.77702 0.52277 0.0
C539 C 0.57676 0.6971 0.53337 0.0
C540 C 0.57525 0.72367 0.52948 0.0
H541 H 0.62577 0.88303 0.53524 0.0
H542 H 0.61941 0.83465 0.54002 0.0
H543 H 0.58135 0.7653 0.49735 0.0
H544 H 0.53982 0.61983 0.52132 0.0
H545 H 0.53959 0.6642 0.51353 0.0
C546 C 0.68472 0.50331 0.85378 0.0
C547 C 0.6818 0.52209 0.84328 0.0
C548 C 0.71642 0.50413 0.85386 0.0
C549 C 0.8154 0.55299 0.84005 0.0
H550 H 0.80817 0.47883 0.85168 0.0
C551 C 0.9466 0.56146 0.85415 0.0
C552 C 0.9461 0.53442 0.85144 0.0
C553 C 0.91453 0.55944 0.85181 0.0
C554 C 0.81086 0.49971 0.84815 0.0
H555 H 0.70976 0.55585 0.82426 0.0
H556 H 0.76405 0.55635 0.82386 0.0
H557 H 0.75231 0.4756 0.84986 0.0
H558 H 0.911 0.48416 0.84336 0.0
H559 H 0.85566 0.48099 0.83847 0.0
H560 H 0.87365 0.57667 0.83761 0.0
C561 C 0.74258 0.54174 0.83253 0.0
C562 C 0.77862 0.49803 0.84739 0.0
C563 C 0.71116 0.5413 0.83265 0.0
C564 C 0.91277 0.50561 0.84551 0.0
C565 C 0.88067 0.50366 0.84298 0.0
C566 C 0.84752 0.55452 0.84057 0.0
C567 C 0.74599 0.52339 0.84324 0.0
C568 C 0.78033 0.52475 0.8435 0.0
C569 C 0.8808 0.53042 0.84639 0.0
C570 C 0.84595 0.52806 0.84483 0.0
H571 H 0.66278 0.48837 0.86222 0.0
H572 H 0.71792 0.49007 0.86254 0.0
H573 H 0.81841 0.57434 0.83722 0.0
H574 H 0.97176 0.58429 0.8584 0.0
H575 H 0.91614 0.58061 0.85479 0.0
C576 C 0.16113 0.64647 0.16281 0.0
C577 C 0.16158 0.62115 0.1566 0.0
C578 C 0.19297 0.67813 0.16247 0.0
C579 C 0.29456 0.72733 0.16136 0.0
H580 H 0.28637 0.7935 0.14955 0.0
C581 C 0.42209 0.86058 0.16458 0.0
C582 C 0.41588 0.88157 0.17229 0.0
C583 C 0.39211 0.82916 0.15966 0.0
C584 C 0.28915 0.77536 0.15296 0.0
H585 H 0.19604 0.60935 0.14521 0.0
H586 H 0.25177 0.66473 0.14478 0.0
H587 H 0.23188 0.73761 0.14726 0.0
H588 H 0.37344 0.88679 0.1799 0.0
H589 H 0.32143 0.83221 0.17163 0.0
H590 H 0.35149 0.76507 0.16761 0.0
C591 C 0.22669 0.65998 0.14989 0.0
C592 C 0.2579 0.74333 0.15165 0.0
C593 C 0.1947 0.62827 0.15009 0.0
C594 C 0.37914 0.87106 0.17416 0.0
C595 C 0.34927 0.83979 0.16925 0.0
C596 C 0.3258 0.75941 0.16278 0.0
C597 C 0.22613 0.68527 0.15604 0.0
C598 C 0.26008 0.719 0.15612 0.0
C599 C 0.35531 0.81817 0.16228 0.0
C600 C 0.32332 0.7839 0.1589 0.0
H601 H 0.13612 0.6419 0.16789 0.0
H602 H 0.19178 0.69705 0.1675 0.0
H603 H 0.29707 0.70914 0.16502 0.0
H604 H 0.45008 0.86793 0.16304 0.0
H605 H 0.39776 0.81329 0.15412 0.0
C606 C 0.57175 0.20143 0.48232 0.0
C607 C 0.53567 0.17353 0.47866 0.0
C608 C 0.57799 0.23065 0.48613 0.0
C609 C 0.53695 0.27372 0.48315 0.0
H610 H 0.60006 0.32337 0.52128 0.0
C611 C 0.54292 0.37793 0.51575 0.0
C612 C 0.57685 0.40378 0.52303 0.0
C613 C 0.53932 0.35131 0.50854 0.0
C614 C 0.58289 0.31018 0.51042 0.0
H615 H 0.47792 0.15472 0.47591 0.0
H616 H 0.48891 0.20578 0.48243 0.0
H617 H 0.59131 0.27437 0.51197 0.0
H618 H 0.63419 0.42299 0.52754 0.0
H619 H 0.62827 0.37702 0.51465 0.0
H620 H 0.52842 0.30955 0.48166 0.0
C621 C 0.51241 0.20505 0.48221 0.0
C622 C 0.57781 0.28199 0.50511 0.0
C623 C 0.50613 0.17578 0.47846 0.0
C624 C 0.60755 0.40318 0.52224 0.0
C625 C 0.60407 0.37674 0.51492 0.0
C626 C 0.54219 0.30207 0.48842 0.0
C627 C 0.54834 0.23273 0.48631 0.0
C628 C 0.55466 0.26333 0.49147 0.0
C629 C 0.56968 0.3501 0.50835 0.0
C630 C 0.56511 0.3206 0.50218 0.0
H631 H 0.59525 0.20071 0.48228 0.0
H632 H 0.60609 0.25165 0.48897 0.0
H633 H 0.51923 0.26002 0.47249 0.0
H634 H 0.51871 0.37764 0.51631 0.0
H635 H 0.51234 0.33115 0.50374 0.0
C636 C 0.45238 0.49185 0.85254 0.0
C637 C 0.48676 0.51842 0.84724 0.0
C638 C 0.42123 0.49178 0.85308 0.0
C639 C 0.38363 0.53383 0.83812 0.0
H640 H 0.31509 0.49153 0.8735 0.0
C641 C 0.24306 0.51717 0.84229 0.0
C642 C 0.23072 0.51834 0.85805 0.0
C643 C 0.27464 0.51788 0.84031 0.0
C644 C 0.33403 0.50379 0.86359 0.0
H645 H 0.51501 0.56586 0.83827 0.0
H646 H 0.4611 0.56609 0.8396 0.0
H647 H 0.36907 0.49197 0.8716 0.0
H648 H 0.24348 0.52326 0.88403 0.0
H649 H 0.29829 0.52513 0.88065 0.0
H650 H 0.34896 0.54654 0.83048 0.0
C651 C 0.4579 0.54493 0.84305 0.0
C652 C 0.36491 0.5036 0.86235 0.0
C653 C 0.48902 0.5449 0.8424 0.0
C654 C 0.25156 0.52149 0.87171 0.0
C655 C 0.28307 0.52243 0.86975 0.0
C656 C 0.35272 0.53416 0.83941 0.0
C657 C 0.42348 0.5184 0.84846 0.0
C658 C 0.39029 0.51861 0.84961 0.0
C659 C 0.29482 0.52005 0.85405 0.0
C660 C 0.32751 0.51927 0.85224 0.0
H661 H 0.44937 0.47089 0.85622 0.0
H662 H 0.39523 0.47059 0.85699 0.0
H663 H 0.40213 0.54535 0.828 0.0
H664 H 0.22767 0.51471 0.83151 0.0
H665 H 0.28258 0.51584 0.82801 0.0
C666 C 0.94025 0.41733 0.16716 0.0
C667 C 0.9668 0.42492 0.15522 0.0
C668 C 0.90893 0.38586 0.16858 0.0
C669 C 0.85002 0.30543 0.14734 0.0
H670 H 0.82144 0.27902 0.19181 0.0
C671 C 0.73378 0.1741 0.16518 0.0
C672 C 0.71158 0.17115 0.17832 0.0
C673 C 0.76414 0.20447 0.16066 0.0
C674 C 0.82878 0.28606 0.1793 0.0
H675 H 0.98086 0.40518 0.13525 0.0
H676 H 0.92613 0.34976 0.13796 0.0
H677 H 0.87623 0.33274 0.18726 0.0
H678 H 0.70181 0.19746 0.19612 0.0
H679 H 0.75421 0.25007 0.18821 0.0
H680 H 0.80223 0.25825 0.1395 0.0
C681 C 0.92949 0.36844 0.14606 0.0
C682 C 0.86023 0.31692 0.17669 0.0
C683 C 0.96095 0.40016 0.14458 0.0
C684 C 0.71892 0.199 0.18617 0.0
C685 C 0.74901 0.22914 0.18167 0.0
C686 C 0.81839 0.27431 0.14998 0.0
C687 C 0.90337 0.36091 0.15825 0.0
C688 C 0.87095 0.32724 0.1607 0.0
C689 C 0.77267 0.23229 0.16921 0.0
C690 C 0.8071 0.26452 0.16602 0.0
H691 H 0.94383 0.43563 0.17565 0.0
H692 H 0.88907 0.38107 0.1779 0.0
H693 H 0.85746 0.31266 0.13487 0.0
H694 H 0.72874 0.15301 0.15893 0.0
H695 H 0.78187 0.20615 0.15099 0.0
C696 C 0.05964 0.55913 0.1031 0.0
C697 C 0.05285 0.53418 0.11214 0.0
C698 C 0.06388 0.55858 0.08611 0.0
C699 C 1.04065 0.50302 0.05036 0.0
H700 H 0.11545 0.58023 0.02881 0.0
C701 C 1.04187 0.51061 0.9802 0.0
C702 C 0.07641 0.52689 0.97253 0.0
C703 C 1.03994 0.51138 0.99728 0.0
C704 C 0.09462 0.55841 0.03466 0.0
H705 H 0.04578 0.4894 0.11066 0.0
H706 H 0.05337 0.48849 0.08105 0.0
H707 H 0.11104 0.58208 0.05863 0.0
H708 H 0.13602 0.5568 0.9768 0.0
H709 H 0.13262 0.55781 0.00669 0.0
H710 H 1.02445 0.47926 0.02645 0.0
C711 C 0.05492 0.50826 0.087 0.0
C712 C 0.09183 0.55955 0.05172 0.0
C713 C 0.05074 0.50885 0.10396 0.0
C714 C 0.10898 0.5438 0.98234 0.0
C715 C 0.10705 0.54466 -0.00055 0.0
C716 C 1.04336 0.5019 0.03332 0.0
C717 C 0.06135 0.53303 0.07786 0.0
C718 C 0.06475 0.53187 0.05976 0.0
C719 C 0.07249 0.5285 0.0071 0.0
C720 C 0.07028 0.5296 0.02527 0.0
H721 H 0.06144 0.57897 0.10914 0.0
H722 H 0.06845 0.57786 0.0794 0.0
H723 H 1.01925 0.48133 0.05616 0.0
H724 H 1.01626 0.49709 0.97298 0.0
H725 H 1.0129 0.49893 0.00279 0.0
C726 C 0.54259 0.00428 0.43353 0.0
C727 C 0.57679 0.0156 0.44079 0.0
C728 C 0.54 0.00693 0.41674 0.0
C729 C 0.59695 0.05076 0.38122 0.0
H730 H 0.51537 0.97757 0.35546 0.0
C731 C 0.59921 0.03982 0.31076 0.0
C732 C 0.56611 0.02697 0.3019 0.0
C733 C 0.59933 0.03959 0.32785 0.0
C734 C 0.53804 0.99838 0.3625 0.0
H735 H 0.63511 0.03881 0.43637 0.0
H736 H 0.6306 0.04318 0.4071 0.0
H737 H 0.51752 0.97532 0.38514 0.0
H738 H 0.50724 0.00431 0.30411 0.0
H739 H 0.50743 0.00385 0.33398 0.0
H740 H 0.61772 0.0737 0.35859 0.0
C741 C 0.60584 0.0326 0.41433 0.0
C742 C 0.53926 0.9971 0.37951 0.0
C743 C 0.60839 0.02989 0.43107 0.0
C744 C 0.53311 0.01398 0.31055 0.0
C745 C 0.53322 0.01374 0.32766 0.0
C746 C 0.59573 0.05205 0.36423 0.0
C747 C 0.57161 0.02104 0.40695 0.0
C748 C 0.56898 0.02313 0.38904 0.0
C749 C 0.56633 0.0265 0.3365 0.0
C750 C 0.56651 0.02574 0.35465 0.0
H751 H 0.51782 0.99324 0.44079 0.0
H752 H 0.51332 0.99809 0.41145 0.0
H753 H 0.61988 0.07144 0.38825 0.0
H754 H 0.62499 0.04953 0.30446 0.0
H755 H 0.62518 0.0491 0.33426 0.0
C756 C 0.60222 0.52558 0.79273 0.0
C757 C 0.56859 0.49984 0.799 0.0
C758 C 0.6063 0.52903 0.7758 0.0
C759 C 0.57043 0.48252 0.7366 0.0
H760 H 0.60813 0.56297 0.71788 0.0
C761 C 0.56018 0.49053 0.66727 0.0
C762 C 0.58909 0.51823 0.65985 0.0
C763 C 0.55938 0.48909 0.6843 0.0
C764 C 0.59813 0.54046 0.7229 0.0
H765 H 0.51288 0.45768 0.79262 0.0
H766 H 0.52022 0.4634 0.76307 0.0
H767 H 0.60415 0.55936 0.74762 0.0
H768 H 0.64019 0.56597 0.66439 0.0
H769 H 0.63942 0.56324 0.69416 0.0
H770 H 0.56493 0.46359 0.71206 0.0
C771 C 0.54337 0.48089 0.77121 0.0
C772 C 0.59575 0.53841 0.73993 0.0
C773 C 0.53913 0.4777 0.78811 0.0
C774 C 0.61738 0.54442 0.66981 0.0
C775 C 0.61682 0.54286 0.68687 0.0
C776 C 0.57322 0.48464 0.71961 0.0
C777 C 0.57701 0.5065 0.76488 0.0
C778 C 0.58141 0.5093 0.74692 0.0
C779 C 0.58774 0.51519 0.69434 0.0
C780 C 0.58662 0.51351 0.71251 0.0
H781 H 0.62544 0.54287 0.80087 0.0
H782 H 0.63259 0.54888 0.77121 0.0
H783 H 0.55983 0.45991 0.7417 0.0
H784 H 0.53771 0.47017 0.6599 0.0
H785 H 0.53611 0.46764 0.68959 0.0
C786 C 0.51352 -0.00058 0.54106 0.0
C787 C 0.5448 0.01762 0.53127 0.0
C788 C 0.51777 0.99767 0.55778 0.0
C789 C 0.58179 0.04279 0.59233 0.0
H790 H 0.52462 0.96211 0.61343 0.0
C791 C 0.56414 0.03368 0.66236 0.0
C792 C 0.57042 0.01362 0.66971 0.0
C793 C 0.56248 0.03383 0.64531 0.0
C794 C 0.54088 0.98477 0.60766 0.0
H795 H 0.60495 0.048 0.53109 0.0
H796 H 0.6124 0.04547 0.56045 0.0
H797 H 0.51896 0.96247 0.58366 0.0
H798 H 0.58008 0.97807 0.66468 0.0
H799 H 0.57587 0.97765 0.63488 0.0
H800 H 0.60312 0.06516 0.61635 0.0
C801 C 0.58466 0.03249 0.55518 0.0
C802 C 0.53747 0.98498 0.59069 0.0
C803 C 0.5804 0.03386 0.53841 0.0
C804 C 0.57461 0.99346 0.65951 0.0
C805 C 0.57239 0.99329 0.64244 0.0
C806 C 0.58475 0.04261 0.60932 0.0
C807 C 0.55338 0.01447 0.56502 0.0
C808 C 0.55783 0.01401 0.58289 0.0
C809 C 0.56649 0.01359 0.6352 0.0
C810 C 0.56423 0.01362 0.61714 0.0
H811 H 0.48579 0.9866 0.5358 0.0
H812 H 0.49322 0.9838 0.56513 0.0
H813 H 0.59759 0.06551 0.58662 0.0
H814 H 0.55992 0.049 0.66975 0.0
H815 H 0.55738 0.04939 0.64002 0.0
C816 C 0.56648 0.50844 0.89593 0.0
C817 C 0.60133 0.53252 0.88985 0.0
C818 C 0.56351 0.49783 0.9116 0.0
C819 C 0.56554 0.46755 0.94155 0.0
H820 H 0.62671 0.52961 0.97711 0.0
C821 C 0.55691 0.43012 0.00782 0.0
C822 C 0.55722 0.4498 0.02035 0.0
C823 C 0.56551 0.43995 0.99174 0.0
C824 C 0.60928 0.51196 0.96734 0.0
H825 H 0.66048 0.56426 0.89521 0.0
H826 H 0.65549 0.54543 0.92255 0.0
H827 H 0.63452 0.54713 0.94938 0.0
H828 H 0.56825 0.49582 0.02587 0.0
H829 H 0.58186 0.51236 0.99791 0.0
H830 H 0.5391 0.43265 0.95964 0.0
C831 C 0.63033 0.53507 0.91535 0.0
C832 C 0.61411 0.52196 0.95138 0.0
C833 C 0.63324 0.54581 0.89968 0.0
C834 C 0.56706 0.47977 0.01648 0.0
C835 C 0.57547 0.48951 0.00045 0.0
C836 C 0.56055 0.45759 0.95754 0.0
C837 C 0.59539 0.51095 0.9215 0.0
C838 C 0.59194 0.49996 0.93831 0.0
C839 C 0.57462 0.46969 0.98785 0.0
C840 C 0.58199 0.47976 0.97067 0.0
H841 H 0.5414 0.49784 0.8886 0.0
H842 H 0.53611 0.47967 0.91603 0.0
H843 H 0.54842 0.44985 0.93174 0.0
H844 H 0.54932 0.40685 0.01037 0.0
H845 H 0.56499 0.42424 0.98236 0.0
C846 C 0.06936 0.48497 0.20758 0.0
C847 C 0.07774 0.51118 0.19923 0.0
C848 C 0.06556 0.48456 0.22458 0.0
C849 C 0.04786 0.5209 0.25966 0.0
H850 H 0.09072 0.48969 0.28508 0.0
C851 C 0.05981 0.53479 0.33048 0.0
C852 C 0.05241 0.50883 0.33881 0.0
C853 C 0.06165 0.53465 0.31339 0.0
C854 C 0.07819 0.4981 0.27814 0.0
H855 H 0.08901 0.55763 0.20198 0.0
H856 H 0.08258 0.55708 0.23178 0.0
H857 H 0.09677 0.49064 0.25539 0.0
H858 H 1.04091 0.46228 0.3357 0.0
H859 H 1.04351 0.46179 0.30584 0.0
H860 H 1.02942 0.52848 0.28247 0.0
C861 C 0.07844 0.53663 0.22517 0.0
C862 C 0.08168 0.49867 0.26113 0.0
C863 C 0.08226 0.53702 0.20815 0.0
C864 C 0.04637 0.48253 0.32965 0.0
C865 C 0.04827 0.48241 0.31256 0.0
C866 C 1.04438 0.52035 0.2767 0.0
C867 C 0.07013 0.51041 0.23358 0.0
C868 C 0.06652 0.51004 0.25168 0.0
C869 C 0.05619 0.50857 0.30424 0.0
C870 C 0.05949 0.50891 0.28612 0.0
H871 H 0.06554 0.46466 0.20096 0.0
H872 H 0.05862 0.46381 0.23065 0.0
H873 H 1.03543 0.52938 0.25271 0.0
H874 H 0.06418 0.55526 0.33718 0.0
H875 H 0.06808 0.55527 0.30736 0.0
loop_
_geom_bond_atom_site_label_1
_geom_bond_atom_site_label_2
_geom_bond_distance
_geom_bond_site_symmetry_2
_ccdc_geom_bond_type
Ho0 C3 2.811 . S
Ho0 O20 2.322 . S
Ho0 O22 2.378 . S
Ho0 O23 2.524 . S
Ho0 O24 2.381 . S
Ho0 O25 2.669 . S
Ho0 O27 2.346 1_455 S
Ho0 O31 2.305 . S
Ho1 C12 2.826 . S
Ho1 O21 2.334 1_655 S
Ho1 O25 2.296 1_655 S
Ho1 O26 2.322 . S
Ho1 O28 2.393 . S
Ho1 O29 2.536 . S
Ho1 O30 2.378 1_655 S
Ho1 O31 2.656 1_655 S
C2 O20 1.259 . S
C2 O21 1.268 . S
C3 Ho0 2.811 . S
C3 C4 1.488 . S
C3 O22 1.215 . S
C3 O23 1.289 . S
C4 C3 1.488 . S
C4 C5 1.348 . S
C4 C9 1.413 . S
C5 C4 1.348 . S
C5 C6 1.442 . S
C5 H32 0.930 . S
C6 C5 1.442 . S
C6 C7 1.381 . S
C6 H33 0.931 . S
C7 C6 1.381 . S
C7 C8 1.321 . S
C8 C7 1.321 . S
C8 C9 1.403 . S
C8 H34 0.934 . S
C9 C4 1.413 . S
C9 C8 1.403 . S
C9 H35 0.930 . S
C10 O24 1.275 . S
C10 O25 1.256 . S
C11 O26 1.259 . S
C11 O27 1.268 . S
C12 Ho1 2.826 . S
C12 C13 1.488 . S
C12 O28 1.215 . S
C12 O29 1.289 . S
C13 C12 1.488 . S
C13 C14 1.348 . S
C13 C18 1.413 . S
C14 C13 1.348 . S
C14 C15 1.442 . S
C14 H36 0.930 . S
C15 C14 1.442 . S
C15 C16 1.381 . S
C15 H37 0.931 . S
C16 C15 1.381 . S
C16 C17 1.321 . S
C17 C16 1.321 . S
C17 C18 1.403 . S
C17 H38 0.934 . S
C18 C13 1.413 . S
C18 C17 1.403 . S
C18 H39 0.930 . S
C19 O30 1.275 . S
C19 O31 1.256 . S
O20 Ho0 2.322 . S
O20 C2 1.259 . S
O21 Ho1 2.334 1_455 S
O21 C2 1.268 . S
O22 Ho0 2.378 . S
O22 C3 1.215 . S
O23 Ho0 2.524 . S
O23 C3 1.289 . S
O24 Ho0 2.381 . S
O24 C10 1.275 . S
O25 Ho0 2.669 . S
O25 Ho1 2.296 1_455 S
O25 C10 1.256 . S
O26 Ho1 2.322 . S
O26 C11 1.259 . S
O27 Ho0 2.346 1_655 S
O27 C11 1.268 . S
O28 Ho1 2.393 . S
O28 C12 1.215 . S
O29 Ho1 2.536 . S
O29 C12 1.289 . S
O30 Ho1 2.378 1_455 S
O30 C19 1.275 . S
O31 Ho0 2.305 . S
O31 Ho1 2.656 1_455 S
O31 C19 1.256 . S
H32 C5 0.930 . S
H33 C6 0.931 . S
H34 C8 0.934 . S
H35 C9 0.930 . S
H36 C14 0.930 . S
H37 C15 0.931 . S
H38 C17 0.934 . S
H39 C18 0.930 . S
Ho40 C43 2.811 . S
Ho40 O60 2.322 . S
Ho40 O62 2.378 . S
Ho40 O63 2.524 . S
Ho40 O64 2.381 . S
Ho40 O65 2.669 1_565 S
Ho40 O67 2.346 1_565 S
Ho40 O71 2.305 1_565 S
Ho41 C52 2.811 . S
Ho41 O61 2.346 1_545 S
Ho41 O65 2.305 . S
Ho41 O66 2.322 . S
Ho41 O68 2.378 . S
Ho41 O69 2.524 . S
Ho41 O70 2.381 . S
Ho41 O71 2.669 . S
C42 O60 1.259 . S
C42 O61 1.268 . S
C43 Ho40 2.811 . S
C43 C44 1.488 . S
C43 O62 1.215 . S
C43 O63 1.289 . S
C44 C43 1.488 . S
C44 C45 1.348 . S
C44 C49 1.413 . S
C45 C44 1.348 . S
C45 C46 1.442 . S
C45 H72 0.930 . S
C46 C45 1.442 . S
C46 C47 1.381 . S
C46 H73 0.931 . S
C47 C46 1.381 . S
C47 C48 1.321 . S
C48 C47 1.321 . S
C48 C49 1.403 . S
C48 H74 0.934 . S
C49 C44 1.413 . S
C49 C48 1.403 . S
C49 H75 0.930 . S
C50 O64 1.275 1_545 S
C50 O65 1.256 . S
C51 O66 1.259 . S
C51 O67 1.268 . S
C52 Ho41 2.811 . S
C52 C53 1.488 . S
C52 O68 1.215 . S
C52 O69 1.289 . S
C53 C52 1.488 . S
C53 C54 1.348 . S
C53 C58 1.413 . S
C54 C53 1.348 . S
C54 C55 1.442 . S
C54 H76 0.930 . S
C55 C54 1.442 . S
C55 C56 1.381 . S
C55 H77 0.931 . S
C56 C55 1.381 . S
C56 C57 1.321 . S
C57 C56 1.321 . S
C57 C58 1.403 . S
C57 H78 0.934 . S
C58 C53 1.413 . S
C58 C57 1.403 . S
C58 H79 0.930 . S
C59 O70 1.275 . S
C59 O71 1.256 . S
O60 Ho40 2.322 . S
O60 C42 1.259 . S
O61 Ho41 2.346 1_565 S
O61 C42 1.268 . S
O62 Ho40 2.378 . S
O62 C43 1.215 . S
O63 Ho40 2.524 . S
O63 C43 1.289 . S
O64 Ho40 2.381 . S
O64 C50 1.275 1_565 S
O65 Ho40 2.669 1_545 S
O65 Ho41 2.305 . S
O65 C50 1.256 . S
O66 Ho41 2.322 . S
O66 C51 1.259 . S
O67 Ho40 2.346 1_545 S
O67 C51 1.268 . S
O68 Ho41 2.378 . S
O68 C52 1.215 . S
O69 Ho41 2.524 . S
O69 C52 1.289 . S
O70 Ho41 2.381 . S
O70 C59 1.275 . S
O71 Ho40 2.305 1_545 S
O71 Ho41 2.669 . S
O71 C59 1.256 . S
H72 C45 0.930 . S
H73 C46 0.931 . S
H74 C48 0.934 . S
H75 C49 0.930 . S
H76 C54 0.930 . S
H77 C55 0.931 . S
H78 C57 0.934 . S
H79 C58 0.930 . S
Ho80 C83 2.811 . S
Ho80 O100 2.322 . S
Ho80 O102 2.378 . S
Ho80 O103 2.524 . S
Ho80 O104 2.381 . S
Ho80 O105 2.669 . S
Ho80 O107 2.346 . S
Ho80 O111 2.305 . S
Ho81 C92 2.811 . S
Ho81 O101 2.346 . S
Ho81 O105 2.305 . S
Ho81 O106 2.322 . S
Ho81 O108 2.378 . S
Ho81 O109 2.524 . S
Ho81 O110 2.381 . S
Ho81 O111 2.669 . S
C82 O100 1.259 . S
C82 O101 1.268 . S
C83 Ho80 2.811 . S
C83 C84 1.488 . S
C83 O102 1.215 . S
C83 O103 1.289 . S
C84 C83 1.488 . S
C84 C85 1.348 . S
C84 C89 1.413 . S
C85 C84 1.348 . S
C85 C86 1.442 . S
C85 H112 0.930 . S
C86 C85 1.442 . S
C86 C87 1.381 . S
C86 H113 0.931 . S
C87 C86 1.381 . S
C87 C88 1.321 . S
C88 C87 1.321 . S
C88 C89 1.403 . S
C88 H114 0.934 . S
C89 C84 1.413 . S
C89 C88 1.403 . S
C89 H115 0.930 . S
C90 O104 1.275 . S
C90 O105 1.256 . S
C91 O106 1.259 . S
C91 O107 1.268 . S
C92 Ho81 2.811 . S
C92 C93 1.488 . S
C92 O108 1.215 . S
C92 O109 1.289 . S
C93 C92 1.488 . S
C93 C94 1.348 . S
C93 C98 1.413 . S
C94 C93 1.348 . S
C94 C95 1.442 . S
C94 H116 0.930 . S
C95 C94 1.442 . S
C95 C96 1.381 . S
C95 H117 0.931 . S
C96 C95 1.381 . S
C96 C97 1.321 . S
C97 C96 1.321 . S
C97 C98 1.403 . S
C97 H118 0.934 . S
C98 C93 1.413 . S
C98 C97 1.403 . S
C98 H119 0.930 . S
C99 O110 1.275 . S
C99 O111 1.256 . S
O100 Ho80 2.322 . S
O100 C82 1.259 . S
O101 Ho81 2.346 . S
O101 C82 1.268 . S
O102 Ho80 2.378 . S
O102 C83 1.215 . S
O103 Ho80 2.524 . S
O103 C83 1.289 . S
O104 Ho80 2.381 . S
O104 C90 1.275 . S
O105 Ho80 2.669 . S
O105 Ho81 2.305 . S
O105 C90 1.256 . S
O106 Ho81 2.322 . S
O106 C91 1.259 . S
O107 Ho80 2.346 . S
O107 C91 1.268 . S
O108 Ho81 2.378 . S
O108 C92 1.215 . S
O109 Ho81 2.524 . S
O109 C92 1.289 . S
O110 Ho81 2.381 . S
O110 C99 1.275 . S
O111 Ho80 2.305 . S
O111 Ho81 2.669 . S
O111 C99 1.256 . S
H112 C85 0.930 . S
H113 C86 0.931 . S
H114 C88 0.934 . S
H115 C89 0.930 . S
H116 C94 0.930 . S
H117 C95 0.931 . S
H118 C97 0.934 . S
H119 C98 0.930 . S
C120 C121 1.384 . S
C120 H133 0.947 . S
C120 C155 1.382 . S
C121 C120 1.384 . S
C121 C122 1.378 . S
C122 C121 1.378 . S
C122 C123 1.378 . S
C122 H134 0.952 . S
C123 C122 1.378 . S
C123 H135 0.950 . S
C123 C154 1.383 . S
H124 C143 0.947 . S
H125 C144 0.946 . S
H126 C146 0.953 . S
H127 C147 0.945 . S
H128 C149 0.952 . S
H129 C150 0.949 . S
H130 C152 0.950 . S
H131 C153 0.948 . S
H132 C155 0.951 . S
H133 C120 0.947 . S
H134 C122 0.952 . S
H135 C123 0.950 . S
N136 C139 1.382 . S
N136 C141 1.363 1_545 S
N137 C139 1.371 . S
N137 C140 1.372 . S
N138 C140 1.361 1_565 S
N138 C141 1.377 . S
C139 N136 1.382 . S
C139 N137 1.371 . S
C139 C142 1.480 . S
C140 N137 1.372 . S
C140 N138 1.361 1_545 S
C140 C148 1.457 . S
C141 N136 1.363 1_565 S
C141 N138 1.377 . S
C141 C154 1.479 . S
C142 C139 1.480 . S
C142 C143 1.383 . S
C142 C147 1.385 . S
C143 H124 0.947 . S
C143 C142 1.383 . S
C143 C144 1.388 . S
C144 H125 0.946 . S
C144 C143 1.388 . S
C144 C145 1.384 . S
C145 C144 1.384 . S
C145 C146 1.377 . S
C146 H126 0.953 . S
C146 C145 1.377 . S
C146 C147 1.369 . S
C147 H127 0.945 . S
C147 C142 1.385 . S
C147 C146 1.369 . S
C148 C140 1.457 . S
C148 C149 1.372 . S
C148 C153 1.364 1_545 S
C149 H128 0.952 . S
C149 C148 1.372 . S
C149 C150 1.389 . S
C150 H129 0.949 . S
C150 C149 1.389 . S
C150 C151 1.387 . S
C151 C150 1.387 . S
C151 C152 1.372 1_545 S
C152 H130 0.950 . S
C152 C151 1.372 1_565 S
C152 C153 1.379 . S
C153 H131 0.948 . S
C153 C148 1.364 1_565 S
C153 C152 1.379 . S
C154 C123 1.383 . S
C154 C141 1.479 . S
C154 C155 1.398 . S
C155 C120 1.382 . S
C155 H132 0.951 . S
C155 C154 1.398 . S
C156 C157 1.384 . S
C156 H169 0.947 . S
C156 C191 1.382 . S
C157 C156 1.384 . S
C157 C158 1.378 . S
C158 C157 1.378 . S
C158 C159 1.378 . S
C158 H170 0.952 . S
C159 C158 1.378 . S
C159 H171 0.950 . S
C159 C190 1.383 . S
H160 C179 0.947 . S
H161 C180 0.946 . S
H162 C182 0.953 . S
H163 C183 0.945 . S
H164 C185 0.952 . S
H165 C186 0.949 . S
H166 C188 0.950 . S
H167 C189 0.948 . S
H168 C191 0.951 . S
H169 C156 0.947 . S
H170 C158 0.952 . S
H171 C159 0.950 . S
N172 C175 1.382 . S
N172 C177 1.363 . S
N173 C175 1.371 . S
N173 C176 1.372 . S
N174 C176 1.361 . S
N174 C177 1.377 . S
C175 N172 1.382 . S
C175 N173 1.371 . S
C175 C178 1.480 . S
C176 N173 1.372 . S
C176 N174 1.361 . S
C176 C184 1.457 . S
C177 N172 1.363 . S
C177 N174 1.377 . S
C177 C190 1.479 . S
C178 C175 1.480 . S
C178 C179 1.383 . S
C178 C183 1.385 . S
C179 H160 0.947 . S
C179 C178 1.383 . S
C179 C180 1.388 . S
C180 H161 0.946 . S
C180 C179 1.388 . S
C180 C181 1.384 . S
C181 C180 1.384 . S
C181 C182 1.377 . S
C182 H162 0.953 . S
C182 C181 1.377 . S
C182 C183 1.369 . S
C183 H163 0.945 . S
C183 C178 1.385 . S
C183 C182 1.369 . S
C184 C176 1.457 . S
C184 C185 1.372 . S
C184 C189 1.364 . S
C185 H164 0.952 . S
C185 C184 1.372 . S
C185 C186 1.389 . S
C186 H165 0.949 . S
C186 C185 1.389 . S
C186 C187 1.387 . S
C187 C186 1.387 . S
C187 C188 1.372 . S
C188 H166 0.950 . S
C188 C187 1.372 . S
C188 C189 1.379 . S
C189 H167 0.948 . S
C189 C184 1.364 . S
C189 C188 1.379 . S
C190 C159 1.383 . S
C190 C177 1.479 . S
C190 C191 1.398 . S
C191 C156 1.382 . S
C191 H168 0.951 . S
C191 C190 1.398 . S
C192 C193 1.384 . S
C192 H205 0.947 . S
C192 C227 1.382 . S
C193 C192 1.384 . S
C193 C194 1.378 . S
C194 C193 1.378 . S
C194 C195 1.378 . S
C194 H206 0.952 . S
C195 C194 1.378 . S
C195 H207 0.950 1_655 S
C195 C226 1.383 . S
H196 C215 0.947 . S
H197 C216 0.946 . S
H198 C218 0.953 . S
H199 C219 0.945 . S
H200 C221 0.952 . S
H201 C222 0.949 . S
H202 C224 0.950 1_655 S
H203 C225 0.948 1_655 S
H204 C227 0.951 . S
H205 C192 0.947 . S
H206 C194 0.952 . S
H207 C195 0.950 1_455 S
N208 C211 1.382 . S
N208 C213 1.363 . S
N209 C211 1.371 . S
N209 C212 1.372 . S
N210 C212 1.361 . S
N210 C213 1.377 . S
C211 N208 1.382 . S
C211 N209 1.371 . S
C211 C214 1.480 . S
C212 N209 1.372 . S
C212 N210 1.361 . S
C212 C220 1.457 . S
C213 N208 1.363 . S
C213 N210 1.377 . S
C213 C226 1.479 1_455 S
C214 C211 1.480 . S
C214 C215 1.383 . S
C214 C219 1.385 . S
C215 H196 0.947 . S
C215 C214 1.383 . S
C215 C216 1.388 . S
C216 H197 0.946 . S
C216 C215 1.388 . S
C216 C217 1.384 . S
C217 C216 1.384 . S
C217 C218 1.377 . S
C218 H198 0.953 . S
C218 C217 1.377 . S
C218 C219 1.369 . S
C219 H199 0.945 . S
C219 C214 1.385 . S
C219 C218 1.369 . S
C220 C212 1.457 . S
C220 C221 1.372 . S
C220 C225 1.364 . S
C221 H200 0.952 . S
C221 C220 1.372 . S
C221 C222 1.389 . S
C222 H201 0.949 . S
C222 C221 1.389 . S
C222 C223 1.387 . S
C223 C222 1.387 . S
C223 C224 1.372 . S
C224 H202 0.950 1_455 S
C224 C223 1.372 . S
C224 C225 1.379 . S
C225 H203 0.948 1_455 S
C225 C220 1.364 . S
C225 C224 1.379 . S
C226 C195 1.383 . S
C226 C213 1.479 1_655 S
C226 C227 1.398 . S
C227 C192 1.382 . S
C227 H204 0.951 . S
C227 C226 1.398 . S
C228 C229 1.384 . S
C228 H241 0.947 . S
C228 C263 1.382 . S
C229 C228 1.384 . S
C229 C230 1.378 . S
C230 C229 1.378 . S
C230 C231 1.378 . S
C230 H242 0.952 . S
C231 C230 1.378 . S
C231 H243 0.950 . S
C231 C262 1.383 . S
H232 C251 0.947 . S
H233 C252 0.946 . S
H234 C254 0.953 . S
H235 C255 0.945 . S
H236 C257 0.952 . S
H237 C258 0.949 . S
H238 C260 0.950 . S
H239 C261 0.948 . S
H240 C263 0.951 . S
H241 C228 0.947 . S
H242 C230 0.952 . S
H243 C231 0.950 . S
N244 C247 1.382 1_455 S
N244 C249 1.363 . S
N245 C247 1.371 . S
N245 C248 1.372 1_655 S
N246 C248 1.361 . S
N246 C249 1.377 . S
C247 N244 1.382 1_655 S
C247 N245 1.371 . S
C247 C250 1.480 . S
C248 N245 1.372 1_455 S
C248 N246 1.361 . S
C248 C256 1.457 . S
C249 N244 1.363 . S
C249 N246 1.377 . S
C249 C262 1.479 . S
C250 C247 1.480 . S
C250 C251 1.383 . S
C250 C255 1.385 . S
C251 H232 0.947 . S
C251 C250 1.383 . S
C251 C252 1.388 . S
C252 H233 0.946 . S
C252 C251 1.388 . S
C252 C253 1.384 . S
C253 C252 1.384 . S
C253 C254 1.377 . S
C254 H234 0.953 . S
C254 C253 1.377 . S
C254 C255 1.369 . S
C255 H235 0.945 . S
C255 C250 1.385 . S
C255 C254 1.369 . S
C256 C248 1.457 . S
C256 C257 1.372 1_455 S
C256 C261 1.364 . S
C257 H236 0.952 . S
C257 C256 1.372 1_655 S
C257 C258 1.389 . S
C258 H237 0.949 . S
C258 C257 1.389 . S
C258 C259 1.387 1_655 S
C259 C258 1.387 1_455 S
C259 C260 1.372 . S
C260 H238 0.950 . S
C260 C259 1.372 . S
C260 C261 1.379 . S
C261 H239 0.948 . S
C261 C256 1.364 . S
C261 C260 1.379 . S
C262 C231 1.383 . S
C262 C249 1.479 . S
C262 C263 1.398 . S
C263 C228 1.382 . S
C263 H240 0.951 . S
C263 C262 1.398 . S
C264 C265 1.384 . S
C264 H277 0.947 . S
C264 C299 1.382 . S
C265 C264 1.384 . S
C265 C266 1.378 . S
C266 C265 1.378 . S
C266 C267 1.378 . S
C266 H278 0.952 . S
C267 C266 1.378 . S
C267 H279 0.950 . S
C267 C298 1.383 . S
H268 C287 0.947 . S
H269 C288 0.946 . S
H270 C290 0.953 . S
H271 C291 0.945 . S
H272 C293 0.952 . S
H273 C294 0.949 . S
H274 C296 0.950 . S
H275 C297 0.948 . S
H276 C299 0.951 . S
H277 C264 0.947 . S
H278 C266 0.952 . S
H279 C267 0.950 . S
N280 C283 1.382 1_545 S
N280 C285 1.363 . S
N281 C283 1.371 . S
N281 C284 1.372 1_565 S
N282 C284 1.361 . S
N282 C285 1.377 . S
C283 N280 1.382 1_565 S
C283 N281 1.371 . S
C283 C286 1.480 . S
C284 N281 1.372 1_545 S
C284 N282 1.361 . S
C284 C292 1.457 . S
C285 N280 1.363 . S
C285 N282 1.377 . S
C285 C298 1.479 . S
C286 C283 1.480 . S
C286 C287 1.383 . S
C286 C291 1.385 . S
C287 H268 0.947 . S
C287 C286 1.383 . S
C287 C288 1.388 . S
C288 H269 0.946 . S
C288 C287 1.388 . S
C288 C289 1.384 . S
C289 C288 1.384 . S
C289 C290 1.377 . S
C290 H270 0.953 . S
C290 C289 1.377 . S
C290 C291 1.369 . S
C291 H271 0.945 . S
C291 C286 1.385 . S
C291 C290 1.369 . S
C292 C284 1.457 . S
C292 C293 1.372 1_545 S
C292 C297 1.364 . S
C293 H272 0.952 . S
C293 C292 1.372 1_565 S
C293 C294 1.389 . S
C294 H273 0.949 . S
C294 C293 1.389 . S
C294 C295 1.382 1_565 S
C295 C294 1.382 1_545 S
C295 C296 1.376 . S
C296 H274 0.950 . S
C296 C295 1.376 . S
C296 C297 1.379 . S
C297 H275 0.948 . S
C297 C292 1.364 . S
C297 C296 1.379 . S
C298 C267 1.383 . S
C298 C285 1.479 . S
C298 C299 1.398 . S
C299 C264 1.382 . S
C299 H276 0.951 . S
C299 C298 1.398 . S
C300 C301 1.384 . S
C300 H313 0.947 . S
C300 C335 1.382 . S
C301 C300 1.384 . S
C301 C302 1.378 . S
C302 C301 1.378 . S
C302 C303 1.378 . S
C302 H314 0.952 . S
C303 C302 1.378 . S
C303 H315 0.950 . S
C303 C334 1.383 . S
H304 C323 0.947 . S
H305 C324 0.946 . S
H306 C326 0.953 . S
H307 C327 0.945 . S
H308 C329 0.952 . S
H309 C330 0.949 . S
H310 C332 0.950 . S
H311 C333 0.948 . S
H312 C335 0.951 . S
H313 C300 0.947 . S
H314 C302 0.952 . S
H315 C303 0.950 . S
N316 C319 1.382 . S
N316 C321 1.363 . S
N317 C319 1.371 . S
N317 C320 1.372 . S
N318 C320 1.361 . S
N318 C321 1.377 . S
C319 N316 1.382 . S
C319 N317 1.371 . S
C319 C322 1.480 . S
C320 N317 1.372 . S
C320 N318 1.361 . S
C320 C328 1.457 . S
C321 N316 1.363 . S
C321 N318 1.377 . S
C321 C334 1.479 . S
C322 C319 1.480 . S
C322 C323 1.383 . S
C322 C327 1.385 . S
C323 H304 0.947 . S
C323 C322 1.383 . S
C323 C324 1.388 . S
C324 H305 0.946 . S
C324 C323 1.388 . S
C324 C325 1.384 . S
C325 C324 1.384 . S
C325 C326 1.377 . S
C326 H306 0.953 . S
C326 C325 1.377 . S
C326 C327 1.369 . S
C327 H307 0.945 . S
C327 C322 1.385 . S
C327 C326 1.369 . S
C328 C320 1.457 . S
C328 C329 1.372 . S
C328 C333 1.364 . S
C329 H308 0.952 . S
C329 C328 1.372 . S
C329 C330 1.389 . S
C330 H309 0.949 . S
C330 C329 1.389 . S
C330 C331 1.387 . S
C331 C330 1.387 . S
C331 C332 1.372 . S
C332 H310 0.950 . S
C332 C331 1.372 . S
C332 C333 1.379 . S
C333 H311 0.948 . S
C333 C328 1.364 . S
C333 C332 1.379 . S
C334 C303 1.383 . S
C334 C321 1.479 . S
C334 C335 1.398 . S
C335 C300 1.382 . S
C335 H312 0.951 . S
C335 C334 1.398 . S
C336 C337 1.349 . S
C336 C338 1.327 . S
C336 H361 0.950 . S
C337 C336 1.349 . S
C337 C353 1.349 . S
C338 C336 1.327 . S
C338 C357 1.429 . S
C338 H362 0.950 . S
C339 C356 1.574 . S
C339 C358 1.368 . S
C339 H363 0.949 . S
H340 C344 0.949 . S
C341 C342 1.349 . S
C341 C343 1.327 . S
C341 H364 0.950 . S
C342 C341 1.349 . S
C342 C354 1.349 . S
C343 C341 1.327 . S
C343 C359 1.429 . S
C343 H365 0.950 . S
C344 H340 0.949 . S
C344 C352 1.574 . S
C344 C360 1.368 . S
H345 C353 0.950 . S
H346 C351 0.950 . S
H347 C352 0.949 . S
H348 C354 0.950 . S
H349 C355 0.950 . S
H350 C356 0.949 . S
C351 H346 0.950 . S
C351 C353 1.327 . S
C351 C357 1.429 . S
C352 C344 1.574 . S
C352 H347 0.949 . S
C352 C358 1.368 . S
C353 C337 1.349 . S
C353 H345 0.950 . S
C353 C351 1.327 . S
C354 C342 1.349 . S
C354 H348 0.950 . S
C354 C355 1.327 . S
C355 H349 0.950 . S
C355 C354 1.327 . S
C355 C359 1.429 . S
C356 C339 1.574 . S
C356 H350 0.949 . S
C356 C360 1.368 . S
C357 C338 1.429 . S
C357 C351 1.429 . S
C357 C358 1.523 . S
C358 C339 1.368 . S
C358 C352 1.368 . S
C358 C357 1.523 . S
C359 C343 1.429 . S
C359 C355 1.429 . S
C359 C360 1.523 . S
C360 C344 1.368 . S
C360 C356 1.368 . S
C360 C359 1.523 . S
H361 C336 0.950 . S
H362 C338 0.950 . S
H363 C339 0.949 . S
H364 C341 0.950 . S
H365 C343 0.950 . S
C366 C367 1.349 . S
C366 C368 1.327 . S
C366 H391 0.950 . S
C367 C366 1.349 . S
C367 C383 1.349 . S
C368 C366 1.327 . S
C368 C387 1.429 . S
C368 H392 0.950 . S
C369 C386 1.574 . S
C369 C388 1.368 . S
C369 H393 0.949 . S
H370 C374 0.949 . S
C371 C372 1.349 . S
C371 C373 1.327 . S
C371 H394 0.950 . S
C372 C371 1.349 . S
C372 C384 1.349 . S
C373 C371 1.327 . S
C373 C389 1.429 . S
C373 H395 0.950 . S
C374 H370 0.949 . S
C374 C382 1.574 . S
C374 C390 1.368 . S
H375 C383 0.950 . S
H376 C381 0.950 . S
H377 C382 0.949 . S
H378 C384 0.950 . S
H379 C385 0.950 . S
H380 C386 0.949 . S
C381 H376 0.950 . S
C381 C383 1.327 . S
C381 C387 1.429 . S
C382 C374 1.574 . S
C382 H377 0.949 . S
C382 C388 1.368 . S
C383 C367 1.349 . S
C383 H375 0.950 . S
C383 C381 1.327 . S
C384 C372 1.349 . S
C384 H378 0.950 . S
C384 C385 1.327 . S
C385 H379 0.950 . S
C385 C384 1.327 . S
C385 C389 1.429 . S
C386 C369 1.574 . S
C386 H380 0.949 . S
C386 C390 1.368 . S
C387 C368 1.429 . S
C387 C381 1.429 . S
C387 C388 1.523 . S
C388 C369 1.368 . S
C388 C382 1.368 . S
C388 C387 1.523 . S
C389 C373 1.429 . S
C389 C385 1.429 . S
C389 C390 1.523 . S
C390 C374 1.368 . S
C390 C386 1.368 . S
C390 C389 1.523 . S
H391 C366 0.950 . S
H392 C368 0.950 . S
H393 C369 0.949 . S
H394 C371 0.950 . S
H395 C373 0.950 . S
C396 C397 1.349 . S
C396 C398 1.327 . S
C396 H421 0.950 . S
C397 C396 1.349 . S
C397 C413 1.349 . S
C398 C396 1.327 . S
C398 C417 1.429 . S
C398 H422 0.950 . S
C399 C416 1.574 . S
C399 C418 1.368 . S
C399 H423 0.949 . S
H400 C404 0.949 . S
C401 C402 1.349 . S
C401 C403 1.327 . S
C401 H424 0.950 . S
C402 C401 1.349 . S
C402 C414 1.349 . S
C403 C401 1.327 . S
C403 C419 1.429 . S
C403 H425 0.950 . S
C404 H400 0.949 . S
C404 C412 1.574 . S
C404 C420 1.368 . S
H405 C413 0.950 . S
H406 C411 0.950 . S
H407 C412 0.949 . S
H408 C414 0.950 . S
H409 C415 0.950 . S
H410 C416 0.949 . S
C411 H406 0.950 . S
C411 C413 1.327 . S
C411 C417 1.429 . S
C412 C404 1.574 . S
C412 H407 0.949 . S
C412 C418 1.368 . S
C413 C397 1.349 . S
C413 H405 0.950 . S
C413 C411 1.327 . S
C414 C402 1.349 . S
C414 H408 0.950 . S
C414 C415 1.327 . S
C415 H409 0.950 . S
C415 C414 1.327 . S
C415 C419 1.429 . S
C416 C399 1.574 . S
C416 H410 0.949 . S
C416 C420 1.368 . S
C417 C398 1.429 . S
C417 C411 1.429 . S
C417 C418 1.523 . S
C418 C399 1.368 . S
C418 C412 1.368 . S
C418 C417 1.523 . S
C419 C403 1.429 . S
C419 C415 1.429 . S
C419 C420 1.523 . S
C420 C404 1.368 . S
C420 C416 1.368 . S
C420 C419 1.523 . S
H421 C396 0.950 . S
H422 C398 0.950 . S
H423 C399 0.949 . S
H424 C401 0.950 . S
H425 C403 0.950 . S
C426 C427 1.349 . S
C426 C428 1.327 . S
C426 H451 0.950 . S
C427 C426 1.349 . S
C427 C443 1.349 . S
C428 C426 1.327 . S
C428 C447 1.429 . S
C428 H452 0.950 . S
C429 C446 1.574 . S
C429 C448 1.368 . S
C429 H453 0.949 . S
H430 C434 0.949 . S
C431 C432 1.349 . S
C431 C433 1.327 . S
C431 H454 0.950 . S
C432 C431 1.349 . S
C432 C444 1.349 . S
C433 C431 1.327 . S
C433 C449 1.429 . S
C433 H455 0.950 . S
C434 H430 0.949 . S
C434 C442 1.574 . S
C434 C450 1.368 . S
H435 C443 0.950 . S
H436 C441 0.950 . S
H437 C442 0.949 . S
H438 C444 0.950 . S
H439 C445 0.950 . S
H440 C446 0.949 . S
C441 H436 0.950 . S
C441 C443 1.327 . S
C441 C447 1.429 . S
C442 C434 1.574 . S
C442 H437 0.949 . S
C442 C448 1.368 . S
C443 C427 1.349 . S
C443 H435 0.950 . S
C443 C441 1.327 . S
C444 C432 1.349 . S
C444 H438 0.950 . S
C444 C445 1.327 . S
C445 H439 0.950 . S
C445 C444 1.327 . S
C445 C449 1.429 . S
C446 C429 1.574 . S
C446 H440 0.949 . S
C446 C450 1.368 . S
C447 C428 1.429 . S
C447 C441 1.429 . S
C447 C448 1.523 . S
C448 C429 1.368 . S
C448 C442 1.368 . S
C448 C447 1.523 . S
C449 C433 1.429 . S
C449 C445 1.429 . S
C449 C450 1.523 . S
C450 C434 1.368 . S
C450 C446 1.368 . S
C450 C449 1.523 . S
H451 C426 0.950 . S
H452 C428 0.950 . S
H453 C429 0.949 . S
H454 C431 0.950 . S
H455 C433 0.950 . S
C456 C457 1.349 . S
C456 C458 1.327 . S
C456 H481 0.950 . S
C457 C456 1.349 . S
C457 C473 1.349 . S
C458 C456 1.327 . S
C458 C477 1.429 . S
C458 H482 0.950 . S
C459 C476 1.574 . S
C459 C478 1.368 . S
C459 H483 0.949 . S
H460 C464 0.949 . S
C461 C462 1.349 . S
C461 C463 1.327 . S
C461 H484 0.950 . S
C462 C461 1.349 . S
C462 C474 1.349 . S
C463 C461 1.327 . S
C463 C479 1.429 . S
C463 H485 0.950 . S
C464 H460 0.949 . S
C464 C472 1.574 . S
C464 C480 1.368 . S
H465 C473 0.950 . S
H466 C471 0.950 . S
H467 C472 0.949 . S
H468 C474 0.950 . S
H469 C475 0.950 . S
H470 C476 0.949 . S
C471 H466 0.950 . S
C471 C473 1.327 . S
C471 C477 1.429 . S
C472 C464 1.574 . S
C472 H467 0.949 . S
C472 C478 1.368 . S
C473 C457 1.349 . S
C473 H465 0.950 . S
C473 C471 1.327 . S
C474 C462 1.349 . S
C474 H468 0.950 . S
C474 C475 1.327 . S
C475 H469 0.950 . S
C475 C474 1.327 . S
C475 C479 1.429 . S
C476 C459 1.574 . S
C476 H470 0.949 . S
C476 C480 1.368 . S
C477 C458 1.429 . S
C477 C471 1.429 . S
C477 C478 1.523 . S
C478 C459 1.368 . S
C478 C472 1.368 . S
C478 C477 1.523 . S
C479 C463 1.429 . S
C479 C475 1.429 . S
C479 C480 1.523 . S
C480 C464 1.368 . S
C480 C476 1.368 . S
C480 C479 1.523 . S
H481 C456 0.950 . S
H482 C458 0.950 . S
H483 C459 0.949 . S
H484 C461 0.950 . S
H485 C463 0.950 . S
C486 C487 1.349 . S
C486 C488 1.327 . S
C486 H511 0.950 . S
C487 C486 1.349 . S
C487 C503 1.349 . S
C488 C486 1.327 . S
C488 C507 1.429 . S
C488 H512 0.950 . S
C489 C506 1.574 . S
C489 C508 1.368 . S
C489 H513 0.949 . S
H490 C494 0.949 . S
C491 C492 1.349 . S
C491 C493 1.327 . S
C491 H514 0.950 . S
C492 C491 1.349 . S
C492 C504 1.349 . S
C493 C491 1.327 . S
C493 C509 1.429 . S
C493 H515 0.950 . S
C494 H490 0.949 . S
C494 C502 1.574 . S
C494 C510 1.368 . S
H495 C503 0.950 . S
H496 C501 0.950 . S
H497 C502 0.949 . S
H498 C504 0.950 . S
H499 C505 0.950 . S
H500 C506 0.949 . S
C501 H496 0.950 . S
C501 C503 1.327 . S
C501 C507 1.429 . S
C502 C494 1.574 . S
C502 H497 0.949 . S
C502 C508 1.368 . S
C503 C487 1.349 . S
C503 H495 0.950 . S
C503 C501 1.327 . S
C504 C492 1.349 . S
C504 H498 0.950 . S
C504 C505 1.327 . S
C505 H499 0.950 . S
C505 C504 1.327 . S
C505 C509 1.429 . S
C506 C489 1.574 . S
C506 H500 0.949 . S
C506 C510 1.368 . S
C507 C488 1.429 . S
C507 C501 1.429 . S
C507 C508 1.523 . S
C508 C489 1.368 . S
C508 C502 1.368 . S
C508 C507 1.523 . S
C509 C493 1.429 . S
C509 C505 1.429 . S
C509 C510 1.523 . S
C510 C494 1.368 . S
C510 C506 1.368 . S
C510 C509 1.523 . S
H511 C486 0.950 . S
H512 C488 0.950 . S
H513 C489 0.949 . S
H514 C491 0.950 . S
H515 C493 0.950 . S
C516 C517 1.349 . S
C516 C518 1.327 . S
C516 H541 0.950 . S
C517 C516 1.349 . S
C517 C533 1.349 . S
C518 C516 1.327 . S
C518 C537 1.429 . S
C518 H542 0.950 . S
C519 C536 1.574 . S
C519 C538 1.368 . S
C519 H543 0.949 . S
H520 C524 0.949 . S
C521 C522 1.349 . S
C521 C523 1.327 . S
C521 H544 0.950 . S
C522 C521 1.349 . S
C522 C534 1.349 . S
C523 C521 1.327 . S
C523 C539 1.429 . S
C523 H545 0.950 . S
C524 H520 0.949 . S
C524 C532 1.574 . S
C524 C540 1.368 . S
H525 C533 0.950 . S
H526 C531 0.950 . S
H527 C532 0.949 . S
H528 C534 0.950 . S
H529 C535 0.950 . S
H530 C536 0.949 . S
C531 H526 0.950 . S
C531 C533 1.327 . S
C531 C537 1.429 . S
C532 C524 1.574 . S
C532 H527 0.949 . S
C532 C538 1.368 . S
C533 C517 1.349 . S
C533 H525 0.950 . S
C533 C531 1.327 . S
C534 C522 1.349 . S
C534 H528 0.950 . S
C534 C535 1.327 . S
C535 H529 0.950 . S
C535 C534 1.327 . S
C535 C539 1.429 . S
C536 C519 1.574 . S
C536 H530 0.949 . S
C536 C540 1.368 . S
C537 C518 1.429 . S
C537 C531 1.429 . S
C537 C538 1.523 . S
C538 C519 1.368 . S
C538 C532 1.368 . S
C538 C537 1.523 . S
C539 C523 1.429 . S
C539 C535 1.429 . S
C539 C540 1.523 . S
C540 C524 1.368 . S
C540 C536 1.368 . S
C540 C539 1.523 . S
H541 C516 0.950 . S
H542 C518 0.950 . S
H543 C519 0.949 . S
H544 C521 0.950 . S
H545 C523 0.950 . S
C546 C547 1.349 . S
C546 C548 1.327 . S
C546 H571 0.950 . S
C547 C546 1.349 . S
C547 C563 1.349 . S
C548 C546 1.327 . S
C548 C567 1.429 . S
C548 H572 0.950 . S
C549 C566 1.574 . S
C549 C568 1.368 . S
C549 H573 0.949 . S
H550 C554 0.949 . S
C551 C552 1.349 . S
C551 C553 1.327 . S
C551 H574 0.950 . S
C552 C551 1.349 . S
C552 C564 1.349 . S
C553 C551 1.327 . S
C553 C569 1.429 . S
C553 H575 0.950 . S
C554 H550 0.949 . S
C554 C562 1.574 . S
C554 C570 1.368 . S
H555 C563 0.950 . S
H556 C561 0.950 . S
H557 C562 0.949 . S
H558 C564 0.950 . S
H559 C565 0.950 . S
H560 C566 0.949 . S
C561 H556 0.950 . S
C561 C563 1.327 . S
C561 C567 1.429 . S
C562 C554 1.574 . S
C562 H557 0.949 . S
C562 C568 1.368 . S
C563 C547 1.349 . S
C563 H555 0.950 . S
C563 C561 1.327 . S
C564 C552 1.349 . S
C564 H558 0.950 . S
C564 C565 1.327 . S
C565 H559 0.950 . S
C565 C564 1.327 . S
C565 C569 1.429 . S
C566 C549 1.574 . S
C566 H560 0.949 . S
C566 C570 1.368 . S
C567 C548 1.429 . S
C567 C561 1.429 . S
C567 C568 1.523 . S
C568 C549 1.368 . S
C568 C562 1.368 . S
C568 C567 1.523 . S
C569 C553 1.429 . S
C569 C565 1.429 . S
C569 C570 1.523 . S
C570 C554 1.368 . S
C570 C566 1.368 . S
C570 C569 1.523 . S
H571 C546 0.950 . S
H572 C548 0.950 . S
H573 C549 0.949 . S
H574 C551 0.950 . S
H575 C553 0.950 . S
C576 C577 1.349 . S
C576 C578 1.327 . S
C576 H601 0.950 . S
C577 C576 1.349 . S
C577 C593 1.349 . S
C578 C576 1.327 . S
C578 C597 1.429 . S
C578 H602 0.950 . S
C579 C596 1.574 . S
C579 C598 1.368 . S
C579 H603 0.949 . S
H580 C584 0.949 . S
C581 C582 1.349 . S
C581 C583 1.327 . S
C581 H604 0.950 . S
C582 C581 1.349 . S
C582 C594 1.349 . S
C583 C581 1.327 . S
C583 C599 1.429 . S
C583 H605 0.950 . S
C584 H580 0.949 . S
C584 C592 1.574 . S
C584 C600 1.368 . S
H585 C593 0.950 . S
H586 C591 0.950 . S
H587 C592 0.949 . S
H588 C594 0.950 . S
H589 C595 0.950 . S
H590 C596 0.949 . S
C591 H586 0.950 . S
C591 C593 1.327 . S
C591 C597 1.429 . S
C592 C584 1.574 . S
C592 H587 0.949 . S
C592 C598 1.368 . S
C593 C577 1.349 . S
C593 H585 0.950 . S
C593 C591 1.327 . S
C594 C582 1.349 . S
C594 H588 0.950 . S
C594 C595 1.327 . S
C595 H589 0.950 . S
C595 C594 1.327 . S
C595 C599 1.429 . S
C596 C579 1.574 . S
C596 H590 0.949 . S
C596 C600 1.368 . S
C597 C578 1.429 . S
C597 C591 1.429 . S
C597 C598 1.523 . S
C598 C579 1.368 . S
C598 C592 1.368 . S
C598 C597 1.523 . S
C599 C583 1.429 . S
C599 C595 1.429 . S
C599 C600 1.523 . S
C600 C584 1.368 . S
C600 C596 1.368 . S
C600 C599 1.523 . S
H601 C576 0.950 . S
H602 C578 0.950 . S
H603 C579 0.949 . S
H604 C581 0.950 . S
H605 C583 0.950 . S
C606 C607 1.349 . S
C606 C608 1.327 . S
C606 H631 0.950 . S
C607 C606 1.349 . S
C607 C623 1.349 . S
C608 C606 1.327 . S
C608 C627 1.429 . S
C608 H632 0.950 . S
C609 C626 1.574 . S
C609 C628 1.368 . S
C609 H633 0.949 . S
H610 C614 0.949 . S
C611 C612 1.349 . S
C611 C613 1.327 . S
C611 H634 0.950 . S
C612 C611 1.349 . S
C612 C624 1.349 . S
C613 C611 1.327 . S
C613 C629 1.429 . S
C613 H635 0.950 . S
C614 H610 0.949 . S
C614 C622 1.574 . S
C614 C630 1.368 . S
H615 C623 0.950 . S
H616 C621 0.950 . S
H617 C622 0.949 . S
H618 C624 0.950 . S
H619 C625 0.950 . S
H620 C626 0.949 . S
C621 H616 0.950 . S
C621 C623 1.327 . S
C621 C627 1.429 . S
C622 C614 1.574 . S
C622 H617 0.949 . S
C622 C628 1.368 . S
C623 C607 1.349 . S
C623 H615 0.950 . S
C623 C621 1.327 . S
C624 C612 1.349 . S
C624 H618 0.950 . S
C624 C625 1.327 . S
C625 H619 0.950 . S
C625 C624 1.327 . S
C625 C629 1.429 . S
C626 C609 1.574 . S
C626 H620 0.949 . S
C626 C630 1.368 . S
C627 C608 1.429 . S
C627 C621 1.429 . S
C627 C628 1.523 . S
C628 C609 1.368 . S
C628 C622 1.368 . S
C628 C627 1.523 . S
C629 C613 1.429 . S
C629 C625 1.429 . S
C629 C630 1.523 . S
C630 C614 1.368 . S
C630 C626 1.368 . S
C630 C629 1.523 . S
H631 C606 0.950 . S
H632 C608 0.950 . S
H633 C609 0.949 . S
H634 C611 0.950 . S
H635 C613 0.950 . S
C636 C637 1.349 . S
C636 C638 1.327 . S
C636 H661 0.950 . S
C637 C636 1.349 . S
C637 C653 1.349 . S
C638 C636 1.327 . S
C638 C657 1.429 . S
C638 H662 0.950 . S
C639 C656 1.574 . S
C639 C658 1.368 . S
C639 H663 0.949 . S
H640 C644 0.949 . S
C641 C642 1.349 . S
C641 C643 1.327 . S
C641 H664 0.950 . S
C642 C641 1.349 . S
C642 C654 1.349 . S
C643 C641 1.327 . S
C643 C659 1.429 . S
C643 H665 0.950 . S
C644 H640 0.949 . S
C644 C652 1.574 . S
C644 C660 1.368 . S
H645 C653 0.950 . S
H646 C651 0.950 . S
H647 C652 0.949 . S
H648 C654 0.950 . S
H649 C655 0.950 . S
H650 C656 0.949 . S
C651 H646 0.950 . S
C651 C653 1.327 . S
C651 C657 1.429 . S
C652 C644 1.574 . S
C652 H647 0.949 . S
C652 C658 1.368 . S
C653 C637 1.349 . S
C653 H645 0.950 . S
C653 C651 1.327 . S
C654 C642 1.349 . S
C654 H648 0.950 . S
C654 C655 1.327 . S
C655 H649 0.950 . S
C655 C654 1.327 . S
C655 C659 1.429 . S
C656 C639 1.574 . S
C656 H650 0.949 . S
C656 C660 1.368 . S
C657 C638 1.429 . S
C657 C651 1.429 . S
C657 C658 1.523 . S
C658 C639 1.368 . S
C658 C652 1.368 . S
C658 C657 1.523 . S
C659 C643 1.429 . S
C659 C655 1.429 . S
C659 C660 1.523 . S
C660 C644 1.368 . S
C660 C656 1.368 . S
C660 C659 1.523 . S
H661 C636 0.950 . S
H662 C638 0.950 . S
H663 C639 0.949 . S
H664 C641 0.950 . S
H665 C643 0.950 . S
C666 C667 1.349 . S
C666 C668 1.327 . S
C666 H691 0.950 . S
C667 C666 1.349 . S
C667 C683 1.349 . S
C668 C666 1.327 . S
C668 C687 1.429 . S
C668 H692 0.950 . S
C669 C686 1.574 . S
C669 C688 1.368 . S
C669 H693 0.949 . S
H670 C674 0.949 . S
C671 C672 1.349 . S
C671 C673 1.327 . S
C671 H694 0.950 . S
C672 C671 1.349 . S
C672 C684 1.349 . S
C673 C671 1.327 . S
C673 C689 1.429 . S
C673 H695 0.950 . S
C674 H670 0.949 . S
C674 C682 1.574 . S
C674 C690 1.368 . S
H675 C683 0.950 . S
H676 C681 0.950 . S
H677 C682 0.949 . S
H678 C684 0.950 . S
H679 C685 0.950 . S
H680 C686 0.949 . S
C681 H676 0.950 . S
C681 C683 1.327 . S
C681 C687 1.429 . S
C682 C674 1.574 . S
C682 H677 0.949 . S
C682 C688 1.368 . S
C683 C667 1.349 . S
C683 H675 0.950 . S
C683 C681 1.327 . S
C684 C672 1.349 . S
C684 H678 0.950 . S
C684 C685 1.327 . S
C685 H679 0.950 . S
C685 C684 1.327 . S
C685 C689 1.429 . S
C686 C669 1.574 . S
C686 H680 0.949 . S
C686 C690 1.368 . S
C687 C668 1.429 . S
C687 C681 1.429 . S
C687 C688 1.523 . S
C688 C669 1.368 . S
C688 C682 1.368 . S
C688 C687 1.523 . S
C689 C673 1.429 . S
C689 C685 1.429 . S
C689 C690 1.523 . S
C690 C674 1.368 . S
C690 C686 1.368 . S
C690 C689 1.523 . S
H691 C666 0.950 . S
H692 C668 0.950 . S
H693 C669 0.949 . S
H694 C671 0.950 . S
H695 C673 0.950 . S
C696 C697 1.349 . S
C696 C698 1.327 . S
C696 H721 0.950 . S
C697 C696 1.349 . S
C697 C713 1.343 1_455 S
C698 C696 1.327 . S
C698 C717 1.429 . S
C698 H722 0.950 . S
C699 C716 1.574 . S
C699 C718 1.368 . S
C699 H723 0.949 1_455 S
H700 C704 0.949 . S
C701 C702 1.349 . S
C701 C703 1.327 1_556 S
C701 H724 0.950 1_455 S
C702 C701 1.349 . S
C702 C714 1.349 . S
C703 C701 1.327 1_554 S
C703 C719 1.429 . S
C703 H725 0.950 1_455 S
C704 H700 0.949 . S
C704 C712 1.574 . S
C704 C720 1.368 . S
H705 C713 0.956 . S
H706 C711 0.940 1_655 S
H707 C712 0.949 . S
H708 C714 0.950 . S
H709 C715 0.950 . S
H710 C716 0.949 1_655 S
C711 H706 0.940 1_455 S
C711 C713 1.328 1_455 S
C711 C717 1.438 . S
C712 C704 1.574 . S
C712 H707 0.949 . S
C712 C718 1.368 . S
C713 C697 1.343 1_655 S
C713 H705 0.956 . S
C713 C711 1.328 1_655 S
C714 C702 1.349 . S
C714 H708 0.950 . S
C714 C715 1.327 1_556 S
C715 H709 0.950 . S
C715 C714 1.327 1_554 S
C715 C719 1.429 . S
C716 C699 1.574 . S
C716 H710 0.949 1_455 S
C716 C720 1.368 . S
C717 C698 1.429 . S
C717 C711 1.438 . S
C717 C718 1.523 . S
C718 C699 1.368 . S
C718 C712 1.368 . S
C718 C717 1.523 . S
C719 C703 1.429 . S
C719 C715 1.429 . S
C719 C720 1.523 . S
C720 C704 1.368 . S
C720 C716 1.368 . S
C720 C719 1.523 . S
H721 C696 0.950 . S
H722 C698 0.950 . S
H723 C699 0.949 1_655 S
H724 C701 0.950 1_655 S
H725 C703 0.950 1_655 S
C726 C727 1.349 1_565 S
C726 C728 1.327 . S
C726 H751 0.950 . S
C727 C726 1.349 1_545 S
C727 C743 1.349 . S
C728 C726 1.327 . S
C728 C747 1.429 1_565 S
C728 H752 0.950 . S
C729 C746 1.574 . S
C729 C748 1.368 . S
C729 H753 0.949 . S
H730 C734 0.949 . S
C731 C732 1.349 . S
C731 C733 1.327 . S
C731 H754 0.950 . S
C732 C731 1.349 . S
C732 C744 1.349 1_545 S
C733 C731 1.327 . S
C733 C749 1.429 . S
C733 H755 0.950 . S
C734 H730 0.949 . S
C734 C742 1.574 . S
C734 C750 1.368 1_565 S
H735 C743 0.950 . S
H736 C741 0.950 . S
H737 C742 0.949 . S
H738 C744 0.950 . S
H739 C745 0.950 . S
H740 C746 0.949 . S
C741 H736 0.950 . S
C741 C743 1.327 . S
C741 C747 1.429 . S
C742 C734 1.574 . S
C742 H737 0.949 . S
C742 C748 1.368 1_565 S
C743 C727 1.349 . S
C743 H735 0.950 . S
C743 C741 1.327 . S
C744 C732 1.349 1_565 S
C744 H738 0.950 . S
C744 C745 1.327 . S
C745 H739 0.950 . S
C745 C744 1.327 . S
C745 C749 1.429 1_565 S
C746 C729 1.574 . S
C746 H740 0.949 . S
C746 C750 1.368 . S
C747 C728 1.429 1_545 S
C747 C741 1.429 . S
C747 C748 1.523 . S
C748 C729 1.368 . S
C748 C742 1.368 1_545 S
C748 C747 1.523 . S
C749 C733 1.429 . S
C749 C745 1.429 1_545 S
C749 C750 1.523 . S
C750 C734 1.368 1_545 S
C750 C746 1.368 . S
C750 C749 1.523 . S
H751 C726 0.950 . S
H752 C728 0.950 . S
H753 C729 0.949 . S
H754 C731 0.950 . S
H755 C733 0.950 . S
C756 C757 1.349 . S
C756 C758 1.327 . S
C756 H781 0.950 . S
C757 C756 1.349 . S
C757 C773 1.349 . S
C758 C756 1.327 . S
C758 C777 1.429 . S
C758 H782 0.950 . S
C759 C776 1.574 . S
C759 C778 1.368 . S
C759 H783 0.949 . S
H760 C764 0.949 . S
C761 C762 1.349 . S
C761 C763 1.327 . S
C761 H784 0.950 . S
C762 C761 1.349 . S
C762 C774 1.349 . S
C763 C761 1.327 . S
C763 C779 1.429 . S
C763 H785 0.950 . S
C764 H760 0.949 . S
C764 C772 1.574 . S
C764 C780 1.368 . S
H765 C773 0.950 . S
H766 C771 0.950 . S
H767 C772 0.949 . S
H768 C774 0.950 . S
H769 C775 0.950 . S
H770 C776 0.949 . S
C771 H766 0.950 . S
C771 C773 1.327 . S
C771 C777 1.429 . S
C772 C764 1.574 . S
C772 H767 0.949 . S
C772 C778 1.368 . S
C773 C757 1.349 . S
C773 H765 0.950 . S
C773 C771 1.327 . S
C774 C762 1.349 . S
C774 H768 0.950 . S
C774 C775 1.327 . S
C775 H769 0.950 . S
C775 C774 1.327 . S
C775 C779 1.429 . S
C776 C759 1.574 . S
C776 H770 0.949 . S
C776 C780 1.368 . S
C777 C758 1.429 . S
C777 C771 1.429 . S
C777 C778 1.523 . S
C778 C759 1.368 . S
C778 C772 1.368 . S
C778 C777 1.523 . S
C779 C763 1.429 . S
C779 C775 1.429 . S
C779 C780 1.523 . S
C780 C764 1.368 . S
C780 C776 1.368 . S
C780 C779 1.523 . S
H781 C756 0.950 . S
H782 C758 0.950 . S
H783 C759 0.949 . S
H784 C761 0.950 . S
H785 C763 0.950 . S
C786 C787 1.349 1_565 S
C786 C788 1.327 . S
C786 H811 0.950 . S
C787 C786 1.349 1_545 S
C787 C803 1.349 . S
C788 C786 1.327 . S
C788 C807 1.429 1_565 S
C788 H812 0.950 . S
C789 C806 1.574 . S
C789 C808 1.368 . S
C789 H813 0.949 . S
H790 C794 0.949 . S
C791 C792 1.349 1_545 S
C791 C793 1.327 . S
C791 H814 0.950 . S
C792 C791 1.349 1_565 S
C792 C804 1.349 . S
C793 C791 1.327 . S
C793 C809 1.429 1_545 S
C793 H815 0.950 . S
C794 H790 0.949 . S
C794 C802 1.574 . S
C794 C810 1.368 1_565 S
H795 C803 0.950 . S
H796 C801 0.950 . S
H797 C802 0.949 . S
H798 C804 0.950 . S
H799 C805 0.950 . S
H800 C806 0.949 . S
C801 H796 0.950 . S
C801 C803 1.327 . S
C801 C807 1.429 . S
C802 C794 1.574 . S
C802 H797 0.949 . S
C802 C808 1.368 1_565 S
C803 C787 1.349 . S
C803 H795 0.950 . S
C803 C801 1.327 . S
C804 C792 1.349 . S
C804 H798 0.950 . S
C804 C805 1.327 . S
C805 H799 0.950 . S
C805 C804 1.327 . S
C805 C809 1.428 . S
C806 C789 1.574 . S
C806 H800 0.949 . S
C806 C810 1.368 . S
C807 C788 1.429 1_545 S
C807 C801 1.429 . S
C807 C808 1.523 . S
C808 C789 1.368 . S
C808 C802 1.368 1_545 S
C808 C807 1.523 . S
C809 C793 1.429 1_565 S
C809 C805 1.428 . S
C809 C810 1.523 1_565 S
C810 C794 1.368 1_545 S
C810 C806 1.368 . S
C810 C809 1.523 1_545 S
H811 C786 0.950 . S
H812 C788 0.950 . S
H813 C789 0.949 . S
H814 C791 0.950 . S
H815 C793 0.950 . S
C816 C817 1.349 . S
C816 C818 1.327 . S
C816 H841 0.950 . S
C817 C816 1.349 . S
C817 C833 1.349 . S
C818 C816 1.327 . S
C818 C837 1.429 . S
C818 H842 0.950 . S
C819 C836 1.574 . S
C819 C838 1.368 . S
C819 H843 0.949 . S
H820 C824 0.949 . S
C821 C822 1.349 . S
C821 C823 1.327 1_554 S
C821 H844 0.950 . S
C822 C821 1.349 . S
C822 C834 1.349 . S
C823 C821 1.327 1_556 S
C823 C839 1.429 . S
C823 H845 0.950 . S
C824 H820 0.949 . S
C824 C832 1.574 . S
C824 C840 1.368 . S
H825 C833 0.950 . S
H826 C831 0.950 . S
H827 C832 0.949 . S
H828 C834 0.950 . S
H829 C835 0.950 . S
H830 C836 0.949 . S
C831 H826 0.950 . S
C831 C833 1.327 . S
C831 C837 1.429 . S
C832 C824 1.574 . S
C832 H827 0.949 . S
C832 C838 1.368 . S
C833 C817 1.349 . S
C833 H825 0.950 . S
C833 C831 1.327 . S
C834 C822 1.349 . S
C834 H828 0.950 . S
C834 C835 1.327 1_554 S
C835 H829 0.950 . S
C835 C834 1.327 1_556 S
C835 C839 1.429 . S
C836 C819 1.574 . S
C836 H830 0.949 . S
C836 C840 1.368 . S
C837 C818 1.429 . S
C837 C831 1.429 . S
C837 C838 1.523 . S
C838 C819 1.368 . S
C838 C832 1.368 . S
C838 C837 1.523 . S
C839 C823 1.429 . S
C839 C835 1.429 . S
C839 C840 1.523 . S
C840 C824 1.368 . S
C840 C836 1.368 . S
C840 C839 1.523 . S
H841 C816 0.950 . S
H842 C818 0.950 . S
H843 C819 0.949 . S
H844 C821 0.950 . S
H845 C823 0.950 . S
C846 C847 1.349 . S
C846 C848 1.327 . S
C846 H871 0.950 . S
C847 C846 1.349 . S
C847 C863 1.349 . S
C848 C846 1.327 . S
C848 C867 1.429 . S
C848 H872 0.950 . S
C849 C866 1.574 . S
C849 C868 1.368 . S
C849 H873 0.949 . S
H850 C854 0.949 . S
C851 C852 1.352 . S
C851 C853 1.327 1_655 S
C851 H874 0.956 . S
C852 C851 1.352 . S
C852 C864 1.339 1_655 S
C853 C851 1.327 1_455 S
C853 C869 1.429 . S
C853 H875 0.950 . S
C854 H850 0.949 . S
C854 C862 1.574 . S
C854 C870 1.368 . S
H855 C863 0.950 . S
H856 C861 0.950 . S
H857 C862 0.949 . S
H858 C864 0.950 . S
H859 C865 0.950 . S
H860 C866 0.949 . S
C861 H856 0.950 . S
C861 C863 1.327 . S
C861 C867 1.429 . S
C862 C854 1.574 . S
C862 H857 0.949 . S
C862 C868 1.368 . S
C863 C847 1.349 . S
C863 H855 0.950 . S
C863 C861 1.327 . S
C864 C852 1.339 1_455 S
C864 H858 0.950 . S
C864 C865 1.327 . S
C865 H859 0.950 . S
C865 C864 1.327 . S
C865 C869 1.429 . S
C866 C849 1.574 . S
C866 H860 0.949 . S
C866 C870 1.368 . S
C867 C848 1.429 . S
C867 C861 1.429 . S
C867 C868 1.523 . S
C868 C849 1.368 . S
C868 C862 1.368 . S
C868 C867 1.523 . S
C869 C853 1.429 . S
C869 C865 1.429 . S
C869 C870 1.523 . S
C870 C854 1.368 . S
C870 C866 1.368 . S
C870 C869 1.523 . S
H871 C846 0.950 . S
H872 C848 0.950 . S
H873 C849 0.949 . S
H874 C851 0.956 . S
H875 C853 0.950 . S
C337 C7 0.463 . S
C342 C325 0.451 . S
C367 C51 1.861 . S
C372 C253 1.807 . S
C397 C87 1.153 . S
C402 C289 1.143 . S
C427 C16 0.335 . S
C432 C301 0.232 . S
C462 C229 1.949 . S
C457 C42 1.969 . S
C492 C265 1.276 . S
C487 C96 1.274 . S
C517 C47 1.153 . S
C522 C181 1.147 . S
C547 C91 3.063 . S
C552 C193 3.028 . S
C577 C2 1.999 . S
C582 C121 1.983 . S
C612 C157 1.258 . S
C607 C56 1.249 . S
C642 C217 2.883 . S
C637 C82 2.929 . S
C667 C11 1.852 . S
C672 C145 1.803 . S
C702 C223 1.756 . S
C697 C19 1.702 . S
C727 C50 1.344 . S
C732 C151 1.377 . S
C757 C99 1.463 . S
C762 C187 1.506 . S
C792 C295 1.483 1_565 S
C787 C59 1.452 . S
C822 C331 1.119 . S
C817 C90 1.102 . S
C847 C10 1.340 . S
C852 C259 1.368 1_655 S
