# Generated by pormake.
# Topology eea, (3,6)-cn, num edge types: 1
# Building blocks:
#     Node 0, Type 0, BuildingBlock: QEWDON_clean_linker_0, # of connection points: 3
#     Node 1, Type 0, BuildingBlock: QEWDON_clean_linker_0, # of connection points: 3
#     Node 2, Type 0, BuildingBlock: QEWDON_clean_linker_0, # of connection points: 3
#     Node 3, Type 0, BuildingBlock: QEWDON_clean_linker_0, # of connection points: 3
#     Node 4, Type 0, BuildingBlock: QEWDON_clean_linker_0, # of connection points: 3
#     Node 5, Type 0, BuildingBlock: QEWDON_clean_linker_0, # of connection points: 3
#     Node 6, Type 0, BuildingBlock: QEWDON_clean_linker_0, # of connection points: 3
#     Node 7, Type 0, BuildingBlock: QEWDON_clean_linker_0, # of connection points: 3
#     Node 8, Type 0, BuildingBlock: QEWDON_clean_linker_0, # of connection points: 3
#     Node 9, Type 0, BuildingBlock: QEWDON_clean_linker_0, # of connection points: 3
#     Node 10, Type 0, BuildingBlock: QEWDON_clean_linker_0, # of connection points: 3
#     Node 11, Type 0, BuildingBlock: QEWDON_clean_linker_0, # of connection points: 3
#     Node 12, Type 0, BuildingBlock: QEWDON_clean_linker_0, # of connection points: 3
#     Node 13, Type 0, BuildingBlock: QEWDON_clean_linker_0, # of connection points: 3
#     Node 14, Type 0, BuildingBlock: QEWDON_clean_linker_0, # of connection points: 3
#     Node 15, Type 0, BuildingBlock: QEWDON_clean_linker_0, # of connection points: 3
#     Node 16, Type 0, BuildingBlock: QEWDON_clean_linker_0, # of connection points: 3
#     Node 17, Type 0, BuildingBlock: QEWDON_clean_linker_0, # of connection points: 3
#     Node 18, Type 1, BuildingBlock: CUKXOW_clean_sbu_0, # of connection points: 6
#     Node 19, Type 1, BuildingBlock: CUKXOW_clean_sbu_0, # of connection points: 6
#     Node 20, Type 1, BuildingBlock: CUKXOW_clean_sbu_0, # of connection points: 6
#     Node 21, Type 1, BuildingBlock: CUKXOW_clean_sbu_0, # of connection points: 6
#     Node 22, Type 1, BuildingBlock: CUKXOW_clean_sbu_0, # of connection points: 6
#     Node 23, Type 1, BuildingBlock: CUKXOW_clean_sbu_0, # of connection points: 6
#     Node 24, Type 1, BuildingBlock: CUKXOW_clean_sbu_0, # of connection points: 6
#     Node 25, Type 1, BuildingBlock: CUKXOW_clean_sbu_0, # of connection points: 6
#     Node 26, Type 1, BuildingBlock: CUKXOW_clean_sbu_0, # of connection points: 6
#     Edge 27, Type (0, 1), BuildingBlock: KIFKEQ_clean_linker_1, # of connection points: 2
#     Edge 28, Type (0, 1), BuildingBlock: KIFKEQ_clean_linker_1, # of connection points: 2
#     Edge 29, Type (0, 1), BuildingBlock: KIFKEQ_clean_linker_1, # of connection points: 2
#     Edge 30, Type (0, 1), BuildingBlock: KIFKEQ_clean_linker_1, # of connection points: 2
#     Edge 31, Type (0, 1), BuildingBlock: KIFKEQ_clean_linker_1, # of connection points: 2
#     Edge 32, Type (0, 1), BuildingBlock: KIFKEQ_clean_linker_1, # of connection points: 2
#     Edge 33, Type (0, 1), BuildingBlock: KIFKEQ_clean_linker_1, # of connection points: 2
#     Edge 34, Type (0, 1), BuildingBlock: KIFKEQ_clean_linker_1, # of connection points: 2
#     Edge 35, Type (0, 1), BuildingBlock: KIFKEQ_clean_linker_1, # of connection points: 2
#     Edge 36, Type (0, 1), BuildingBlock: KIFKEQ_clean_linker_1, # of connection points: 2
#     Edge 37, Type (0, 1), BuildingBlock: KIFKEQ_clean_linker_1, # of connection points: 2
#     Edge 38, Type (0, 1), BuildingBlock: KIFKEQ_clean_linker_1, # of connection points: 2
#     Edge 39, Type (0, 1), BuildingBlock: KIFKEQ_clean_linker_1, # of connection points: 2
#     Edge 40, Type (0, 1), BuildingBlock: KIFKEQ_clean_linker_1, # of connection points: 2
#     Edge 41, Type (0, 1), BuildingBlock: KIFKEQ_clean_linker_1, # of connection points: 2
#     Edge 42, Type (0, 1), BuildingBlock: KIFKEQ_clean_linker_1, # of connection points: 2
#     Edge 43, Type (0, 1), BuildingBlock: KIFKEQ_clean_linker_1, # of connection points: 2
#     Edge 44, Type (0, 1), BuildingBlock: KIFKEQ_clean_linker_1, # of connection points: 2
#     Edge 45, Type (0, 1), BuildingBlock: KIFKEQ_clean_linker_1, # of connection points: 2
#     Edge 46, Type (0, 1), BuildingBlock: KIFKEQ_clean_linker_1, # of connection points: 2
#     Edge 47, Type (0, 1), BuildingBlock: KIFKEQ_clean_linker_1, # of connection points: 2
#     Edge 48, Type (0, 1), BuildingBlock: KIFKEQ_clean_linker_1, # of connection points: 2
#     Edge 49, Type (0, 1), BuildingBlock: KIFKEQ_clean_linker_1, # of connection points: 2
#     Edge 50, Type (0, 1), BuildingBlock: KIFKEQ_clean_linker_1, # of connection points: 2
#     Edge 51, Type (0, 1), BuildingBlock: KIFKEQ_clean_linker_1, # of connection points: 2
#     Edge 52, Type (0, 1), BuildingBlock: KIFKEQ_clean_linker_1, # of connection points: 2
#     Edge 53, Type (0, 1), BuildingBlock: KIFKEQ_clean_linker_1, # of connection points: 2
#     Edge 54, Type (0, 1), BuildingBlock: KIFKEQ_clean_linker_1, # of connection points: 2
#     Edge 55, Type (0, 1), BuildingBlock: KIFKEQ_clean_linker_1, # of connection points: 2
#     Edge 56, Type (0, 1), BuildingBlock: KIFKEQ_clean_linker_1, # of connection points: 2
#     Edge 57, Type (0, 1), BuildingBlock: KIFKEQ_clean_linker_1, # of connection points: 2
#     Edge 58, Type (0, 1), BuildingBlock: KIFKEQ_clean_linker_1, # of connection points: 2
#     Edge 59, Type (0, 1), BuildingBlock: KIFKEQ_clean_linker_1, # of connection points: 2
#     Edge 60, Type (0, 1), BuildingBlock: KIFKEQ_clean_linker_1, # of connection points: 2
#     Edge 61, Type (0, 1), BuildingBlock: KIFKEQ_clean_linker_1, # of connection points: 2
#     Edge 62, Type (0, 1), BuildingBlock: KIFKEQ_clean_linker_1, # of connection points: 2
#     Edge 63, Type (0, 1), BuildingBlock: KIFKEQ_clean_linker_1, # of connection points: 2
#     Edge 64, Type (0, 1), BuildingBlock: KIFKEQ_clean_linker_1, # of connection points: 2
#     Edge 65, Type (0, 1), BuildingBlock: KIFKEQ_clean_linker_1, # of connection points: 2
#     Edge 66, Type (0, 1), BuildingBlock: KIFKEQ_clean_linker_1, # of connection points: 2
#     Edge 67, Type (0, 1), BuildingBlock: KIFKEQ_clean_linker_1, # of connection points: 2
#     Edge 68, Type (0, 1), BuildingBlock: KIFKEQ_clean_linker_1, # of connection points: 2
#     Edge 69, Type (0, 1), BuildingBlock: KIFKEQ_clean_linker_1, # of connection points: 2
#     Edge 70, Type (0, 1), BuildingBlock: KIFKEQ_clean_linker_1, # of connection points: 2
#     Edge 71, Type (0, 1), BuildingBlock: KIFKEQ_clean_linker_1, # of connection points: 2
#     Edge 72, Type (0, 1), BuildingBlock: KIFKEQ_clean_linker_1, # of connection points: 2
#     Edge 73, Type (0, 1), BuildingBlock: KIFKEQ_clean_linker_1, # of connection points: 2
#     Edge 74, Type (0, 1), BuildingBlock: KIFKEQ_clean_linker_1, # of connection points: 2
#     Edge 75, Type (0, 1), BuildingBlock: KIFKEQ_clean_linker_1, # of connection points: 2
#     Edge 76, Type (0, 1), BuildingBlock: KIFKEQ_clean_linker_1, # of connection points: 2
#     Edge 77, Type (0, 1), BuildingBlock: KIFKEQ_clean_linker_1, # of connection points: 2
#     Edge 78, Type (0, 1), BuildingBlock: KIFKEQ_clean_linker_1, # of connection points: 2
#     Edge 79, Type (0, 1), BuildingBlock: KIFKEQ_clean_linker_1, # of connection points: 2
#     Edge 80, Type (0, 1), BuildingBlock: KIFKEQ_clean_linker_1, # of connection points: 2
# Relax obj value: 0.053
# Max RMSD: 0.210
# Mean RMSD: 0.125
data_MOF--net-eea--node1-CUKXOW_clean_sbu_0--node2-QEWDON_clean_linker_0--edge1-KIFKEQ_clean_linker_1
_symmetry_space_group_name_H-M    P1
_symmetry_Int_Tables_number       1
_symmetry_cell_setting            triclinic
loop_
_symmetry_equiv_pos_as_xyz
'x, y, z'
_cell_length_a     64.552189
_cell_length_b     60.927953
_cell_length_c     47.694686
_cell_angle_alpha  93.390663
_cell_angle_beta   93.398122
_cell_angle_gamma 119.85437
loop_
_atom_site_label
_atom_site_type_symbol
_atom_site_fract_x
_atom_site_fract_y
_atom_site_fract_z
_atom_type_partial_charge
H0 H 0.236 0.13519 0.44553 0.0
C1 C 0.23481 0.11793 0.43613 0.0
C2 C 0.24876 0.10863 0.44894 0.0
C3 C 0.21891 0.10461 0.41166 0.0
H4 H 0.25613 0.07767 0.44757 0.0
C5 C 0.24626 0.08557 0.43727 0.0
C6 C 0.23066 0.07211 0.41291 0.0
C7 C 0.21757 0.08209 0.39986 0.0
C8 C 0.2024 0.1129 0.39928 0.0
H9 H 0.20558 0.07166 0.38097 0.0
C10 C 0.20978 0.13886 0.39773 0.0
C11 C 0.19396 0.14583 0.38482 0.0
C12 C 0.17873 0.09437 0.38869 0.0
H13 H 0.17205 0.07435 0.3904 0.0
C14 C 0.16315 0.10132 0.37599 0.0
H15 H 0.22783 0.15354 0.4058 0.0
C16 C 0.17074 0.12684 0.37384 0.0
H17 H 0.15828 0.13183 0.36401 0.0
H18 H 0.14507 0.08684 0.36786 0.0
H19 H 0.88344 0.10788 0.44938 0.0
C20 C 0.89941 0.12278 0.44168 0.0
C21 C 0.91002 0.14796 0.45438 0.0
C22 C 0.91048 0.11646 0.42068 0.0
H23 H 0.94016 0.18613 0.45571 0.0
C24 C 0.93162 0.16689 0.44545 0.0
C25 C 0.94275 0.16094 0.42425 0.0
C26 C 0.93169 0.1358 0.41161 0.0
C27 C 0.90173 0.08951 0.41012 0.0
H28 H 0.93994 0.13107 0.39493 0.0
C29 C 0.8772 0.07207 0.4018 0.0
C30 C 0.86988 0.04705 0.39056 0.0
C31 C 0.9185 0.08125 0.40814 0.0
H32 H 0.93735 0.09398 0.41502 0.0
C33 C 0.91121 0.05645 0.39747 0.0
H34 H 0.86405 0.0781 0.40318 0.0
C35 C 0.88713 0.0395 0.38858 0.0
H36 H 0.8819 0.02027 0.38043 0.0
H37 H 0.92429 0.05036 0.39607 0.0
H38 H 0.91427 0.77186 0.46532 0.0
C39 C 0.89925 0.77233 0.45457 0.0
C40 C 0.87595 0.75723 0.46258 0.0
C41 C 0.90337 0.78886 0.4335 0.0
H42 H 0.83921 0.74872 0.45652 0.0
C43 C 0.85684 0.75897 0.44919 0.0
C44 C 0.86049 0.77498 0.42772 0.0
C45 C 0.88378 0.78941 0.41969 0.0
C46 C 0.9282 0.80765 0.4278 0.0
H47 H 0.88688 0.80162 0.40292 0.0
C48 C 0.94593 0.80082 0.42444 0.0
C49 C 0.96938 0.81936 0.41949 0.0
C50 C 0.9343 0.83314 0.4262 0.0
H51 H 0.92125 0.8391 0.42921 0.0
C52 C 0.95735 0.85138 0.42113 0.0
H53 H 0.94154 0.7813 0.42574 0.0
C54 C 0.97476 0.8446 0.41775 0.0
H55 H 0.99247 0.85915 0.4135 0.0
H56 H 0.96176 0.87089 0.41986 0.0
H57 H 0.12848 0.22731 0.56242 0.0
C58 C 0.11402 0.22861 0.57132 0.0
C59 C 0.10806 0.24667 0.56277 0.0
C60 C 0.10093 0.21152 0.59054 0.0
H61 H 0.08468 0.26206 0.56849 0.0
C62 C 0.08932 0.24816 0.57484 0.0
C63 C 0.07617 0.23141 0.59452 0.0
C64 C 0.0821 0.21306 0.60197 0.0
C65 C 0.10584 0.19092 0.59725 0.0
H66 H 0.07174 0.19947 0.61634 0.0
C67 C 0.12951 0.19593 0.60348 0.0
C68 C 0.13395 0.17608 0.60892 0.0
C69 C 0.08666 0.16582 0.59674 0.0
H70 H 0.0683 0.16132 0.59163 0.0
C71 C 0.09098 0.14616 0.60223 0.0
H72 H 0.14444 0.21519 0.60395 0.0
C73 C 0.11443 0.15118 0.60822 0.0
H74 H 0.11729 0.1356 0.61265 0.0
H75 H 0.07609 0.12691 0.60174 0.0
H76 H 0.79173 0.90947 0.59633 0.0
C77 C 0.79277 0.89375 0.60437 0.0
C78 C 0.78011 0.86955 0.58887 0.0
C79 C 0.80778 0.89795 0.62923 0.0
H80 H 0.77284 0.83074 0.58672 0.0
C81 C 0.78229 0.84938 0.5986 0.0
C82 C 0.79705 0.85324 0.62324 0.0
C83 C 0.80942 0.87728 0.63856 0.0
C84 C 0.82277 0.92387 0.64487 0.0
H85 H 0.82044 0.87974 0.65784 0.0
C86 C 0.81456 0.94149 0.64712 0.0
C87 C 0.82877 0.96536 0.66303 0.0
C88 C 0.84575 0.93113 0.65796 0.0
H89 H 0.85322 0.91875 0.65581 0.0
C90 C 0.85966 0.95462 0.67379 0.0
H91 H 0.79709 0.9366 0.63712 0.0
C92 C 0.85121 0.97157 0.67652 0.0
H93 H 0.86254 0.98991 0.68856 0.0
H94 H 0.87721 0.95983 0.6838 0.0
H95 H 0.10916 0.8894 0.56818 0.0
C96 C 0.12408 0.90481 0.58162 0.0
C97 C 0.14766 0.91349 0.57502 0.0
C98 C 0.11966 0.91765 0.60385 0.0
H99 H 0.18505 0.94133 0.58598 0.0
C100 C 0.16691 0.93424 0.5916 0.0
C101 C 0.1628 0.94702 0.61407 0.0
C102 C 0.13912 0.93868 0.62 0.0
C103 C 0.09479 0.91142 0.60783 0.0
H104 H 0.13578 0.94893 0.63683 0.0
C105 C 0.07682 0.8865 0.61156 0.0
C106 C 0.05316 0.881 0.61459 0.0
C107 C 0.08889 0.9307 0.60722 0.0
H108 H 0.10237 0.94996 0.60415 0.0
C109 C 0.06549 0.92527 0.61001 0.0
H110 H 0.08122 0.87152 0.61215 0.0
C111 C 0.0477 0.90061 0.61362 0.0
H112 H 0.02972 0.89694 0.61616 0.0
H113 H 0.06111 0.94025 0.60942 0.0
H114 H 0.91297 0.47581 0.78352 0.0
C115 C 0.91139 0.45948 0.77106 0.0
C116 C 0.92621 0.44958 0.77911 0.0
C117 C 0.89284 0.44674 0.74892 0.0
H118 H 0.93394 0.41933 0.77042 0.0
C119 C 0.92302 0.42742 0.76388 0.0
C120 C 0.90473 0.41463 0.74157 0.0
C121 C 0.88991 0.42455 0.73411 0.0
C122 C 0.87419 0.45403 0.74408 0.0
H123 H 0.87545 0.41443 0.71726 0.0
C124 C 0.88016 0.47947 0.74157 0.0
C125 C 0.86186 0.48565 0.73821 0.0
C126 C 0.84984 0.4351 0.743 0.0
H127 H 0.84472 0.4155 0.74532 0.0
C128 C 0.83182 0.44123 0.73959 0.0
H129 H 0.89881 0.49429 0.74239 0.0
C130 C 0.83774 0.46631 0.7373 0.0
H131 H 0.82341 0.47064 0.7346 0.0
H132 H 0.81317 0.4265 0.73889 0.0
H133 H 0.5519 0.43557 0.78622 0.0
C134 C 0.56807 0.45134 0.78002 0.0
C135 C 0.57844 0.47538 0.79571 0.0
C136 C 0.57864 0.44751 0.75664 0.0
H137 H 0.6086 0.51384 0.80077 0.0
C138 C 0.59992 0.49562 0.78807 0.0
C139 C 0.61083 0.4921 0.76492 0.0
C140 C 0.5996 0.46828 0.74893 0.0
C141 C 0.56867 0.42186 0.74068 0.0
H142 H 0.60737 0.46595 0.73027 0.0
C143 C 0.5437 0.40451 0.73606 0.0
C144 C 0.53485 0.38081 0.7201 0.0
C145 C 0.58445 0.4146 0.72975 0.0
H146 H 0.60373 0.42685 0.7337 0.0
C147 C 0.57567 0.39128 0.71379 0.0
H148 H 0.53112 0.40948 0.74427 0.0
C149 C 0.55106 0.37454 0.70882 0.0
H150 H 0.54466 0.35632 0.69675 0.0
H151 H 0.58804 0.38605 0.70546 0.0
H152 H 0.58725 0.11611 0.80659 0.0
C153 C 0.57226 0.11746 0.79724 0.0
C154 C 0.54881 0.10032 0.80327 0.0
C155 C 0.57659 0.13712 0.78028 0.0
H156 H 0.51154 0.08956 0.79601 0.0
C157 C 0.52961 0.10264 0.79134 0.0
C158 C 0.53352 0.12228 0.77453 0.0
C159 C 0.55714 0.13936 0.76903 0.0
C160 C 0.60156 0.15684 0.7765 0.0
H161 H 0.5606 0.15499 0.75667 0.0
C162 C 0.61854 0.1502 0.76833 0.0
C163 C 0.64231 0.16927 0.76557 0.0
C164 C 0.60861 0.18269 0.78174 0.0
H165 H 0.59602 0.18832 0.78837 0.0
C166 C 0.63208 0.20156 0.77903 0.0
H167 H 0.61331 0.13033 0.76422 0.0
C168 C 0.64885 0.19496 0.77106 0.0
H169 H 0.66692 0.21 0.76881 0.0
H170 H 0.63732 0.2214 0.78317 0.0
H171 H 0.79249 0.55579 0.8887 0.0
C172 C 0.77715 0.55558 0.89704 0.0
C173 C 0.76942 0.57213 0.88787 0.0
C174 C 0.76471 0.53809 0.9162 0.0
H175 H 0.74261 0.58324 0.89099 0.0
C176 C 0.74924 0.57129 0.89873 0.0
C177 C 0.73683 0.55419 0.91841 0.0
C178 C 0.74492 0.53786 0.92714 0.0
C179 C 0.77104 0.51859 0.9231 0.0
H180 H 0.7358 0.52478 0.94253 0.0
C181 C 0.79499 0.52522 0.93095 0.0
C182 C 0.80069 0.50626 0.93627 0.0
C183 C 0.75291 0.49286 0.92094 0.0
H184 H 0.73438 0.48722 0.91467 0.0
C185 C 0.75855 0.47407 0.9262 0.0
H186 H 0.80911 0.545 0.93279 0.0
C187 C 0.78229 0.48067 0.9337 0.0
H188 H 0.78626 0.46579 0.93785 0.0
H189 H 0.74447 0.45431 0.92435 0.0
H190 H 0.46456 0.24405 0.92185 0.0
C191 C 0.46455 0.22762 0.9294 0.0
C192 C 0.44917 0.20322 0.91515 0.0
C193 C 0.48058 0.23106 0.95276 0.0
H194 H 0.43862 0.16341 0.91372 0.0
C195 C 0.44986 0.18218 0.92488 0.0
C196 C 0.4654 0.18526 0.94859 0.0
C197 C 0.48045 0.20968 0.96253 0.0
C198 C 0.49903 0.25702 0.96547 0.0
H199 H 0.4928 0.21218 0.98049 0.0
C200 C 0.49329 0.27621 0.97163 0.0
C201 C 0.51121 0.30064 0.98379 0.0
C202 C 0.52293 0.26274 0.97111 0.0
H203 H 0.52802 0.24861 0.96606 0.0
C204 C 0.54069 0.28687 0.98279 0.0
H205 H 0.4749 0.27196 0.96761 0.0
C206 C 0.53495 0.30569 0.98908 0.0
H207 H 0.54927 0.32439 0.9977 0.0
H208 H 0.55905 0.29108 0.98682 0.0
H209 H 0.78293 0.21659 0.90859 0.0
C210 C 0.79793 0.23188 0.92206 0.0
C211 C 0.82142 0.24134 0.91466 0.0
C212 C 0.79358 0.24399 0.94501 0.0
H213 H 0.85843 0.27045 0.92408 0.0
C214 C 0.84059 0.26257 0.93086 0.0
C215 C 0.83665 0.27459 0.95438 0.0
C216 C 0.81299 0.26468 0.96153 0.0
C217 C 0.76896 0.23886 0.9483 0.0
H218 H 0.80931 0.27374 0.97924 0.0
C219 C 0.75081 0.21535 0.9557 0.0
C220 C 0.72782 0.21175 0.95957 0.0
C221 C 0.7638 0.25832 0.94402 0.0
H222 H 0.77748 0.27646 0.93812 0.0
C223 C 0.74098 0.25457 0.94702 0.0
H224 H 0.7548 0.2004 0.95935 0.0
C225 C 0.72313 0.23152 0.95477 0.0
H226 H 0.70553 0.22913 0.95694 0.0
H227 H 0.73715 0.26963 0.94346 0.0
H228 H 0.56278 0.80125 0.11626 0.0
C229 C 0.56198 0.78475 0.10518 0.0
C230 C 0.57584 0.77478 0.11638 0.0
C231 C 0.54537 0.77192 0.08128 0.0
H232 H 0.58358 0.74428 0.11237 0.0
C233 C 0.57353 0.75237 0.10299 0.0
C234 C 0.55742 0.73963 0.07871 0.0
C235 C 0.54372 0.74986 0.0678 0.0
C236 C 0.52698 0.77875 0.07282 0.0
H237 H 0.53101 0.74016 0.04925 0.0
C238 C 0.53313 0.80344 0.06631 0.0
C239 C 0.51496 0.80866 0.05712 0.0
C240 C 0.50263 0.75978 0.07103 0.0
H241 H 0.49745 0.74077 0.07632 0.0
C242 C 0.48471 0.76507 0.06269 0.0
H243 H 0.55185 0.81814 0.06745 0.0
C244 C 0.49077 0.78925 0.0557 0.0
H245 H 0.47642 0.79284 0.04934 0.0
H246 H 0.46603 0.75033 0.06154 0.0
H247 H 0.2112 0.78218 0.11367 0.0
C248 C 0.22675 0.7972 0.10544 0.0
C249 C 0.23789 0.82223 0.11892 0.0
C250 C 0.23664 0.79123 0.08271 0.0
H251 H 0.2683 0.86031 0.1202 0.0
C252 C 0.25918 0.84125 0.1094 0.0
C253 C 0.26931 0.83559 0.0868 0.0
C254 C 0.25731 0.81085 0.07298 0.0
C255 C 0.22712 0.76442 0.07044 0.0
H256 H 0.26456 0.8067 0.05481 0.0
C257 C 0.20226 0.74651 0.06625 0.0
C258 C 0.19409 0.72176 0.05338 0.0
C259 C 0.24341 0.75664 0.06265 0.0
H260 H 0.26262 0.76941 0.06653 0.0
C261 C 0.23527 0.7322 0.04994 0.0
H262 H 0.18933 0.75185 0.07231 0.0
C263 C 0.21078 0.71492 0.0451 0.0
H264 H 0.20483 0.69591 0.03542 0.0
H265 H 0.24802 0.7266 0.04395 0.0
H266 H 0.25232 0.45098 0.1411 0.0
C267 C 0.23663 0.45016 0.13035 0.0
C268 C 0.21406 0.43527 0.13997 0.0
C269 C 0.23925 0.46581 0.10869 0.0
H270 H 0.17659 0.42361 0.13468 0.0
C271 C 0.19394 0.43522 0.12708 0.0
C272 C 0.1961 0.4506 0.10539 0.0
C273 C 0.21884 0.46564 0.09611 0.0
C274 C 0.26358 0.4849 0.10193 0.0
H275 H 0.22093 0.47822 0.08 0.0
C276 C 0.28116 0.47823 0.09689 0.0
C277 C 0.30446 0.49703 0.09193 0.0
C278 C 0.26956 0.51046 0.1017 0.0
H279 H 0.25654 0.51621 0.10591 0.0
C280 C 0.29256 0.52903 0.09677 0.0
H281 H 0.27681 0.4586 0.097 0.0
C282 C 0.30994 0.52243 0.09201 0.0
H283 H 0.32766 0.53717 0.08803 0.0
H284 H 0.29697 0.54866 0.09676 0.0
H285 H 0.46414 0.89389 0.2277 0.0
C286 C 0.44895 0.8936 0.23656 0.0
C287 C 0.44 0.90889 0.2266 0.0
C288 C 0.43788 0.87718 0.25719 0.0
H289 H 0.41238 0.91883 0.22976 0.0
C290 C 0.41997 0.90791 0.23809 0.0
C291 C 0.40889 0.89184 0.25914 0.0
C292 C 0.41825 0.87684 0.26872 0.0
C293 C 0.44528 0.85866 0.26493 0.0
H294 H 0.41014 0.8646 0.28517 0.0
C295 C 0.46964 0.86613 0.27134 0.0
C296 C 0.47622 0.84796 0.27749 0.0
C297 C 0.42767 0.83291 0.26504 0.0
H298 H 0.40884 0.82659 0.25986 0.0
C299 C 0.43417 0.81494 0.27118 0.0
H300 H 0.48339 0.88591 0.2714 0.0
C301 C 0.45827 0.82235 0.27727 0.0
H302 H 0.46289 0.80807 0.28215 0.0
H303 H 0.42047 0.79517 0.2711 0.0
H304 H 0.13219 0.57424 0.25387 0.0
C305 C 0.13228 0.55818 0.26239 0.0
C306 C 0.11647 0.53342 0.24937 0.0
C307 C 0.14942 0.56247 0.28485 0.0
H308 H 0.10577 0.49363 0.24933 0.0
C309 C 0.11757 0.51273 0.25948 0.0
C310 C 0.13449 0.51671 0.28196 0.0
C311 C 0.15006 0.54148 0.29469 0.0
C312 C 0.1682 0.58883 0.29625 0.0
H313 H 0.16304 0.54437 0.31209 0.0
C314 C 0.16291 0.60863 0.30029 0.0
C315 C 0.18132 0.63359 0.30994 0.0
C316 C 0.19207 0.59445 0.30227 0.0
H317 H 0.19696 0.57996 0.29874 0.0
C318 C 0.21015 0.61897 0.3123 0.0
H319 H 0.1447 0.60476 0.29566 0.0
C320 C 0.20487 0.63841 0.3161 0.0
H321 H 0.21929 0.65733 0.32393 0.0
H322 H 0.2284 0.62298 0.3169 0.0
H323 H 0.44682 0.55079 0.23821 0.0
C324 C 0.46191 0.56738 0.24999 0.0
C325 C 0.48551 0.57507 0.24374 0.0
C326 C 0.45752 0.58182 0.27033 0.0
H327 H 0.52296 0.60372 0.25412 0.0
C328 C 0.50476 0.59688 0.25929 0.0
C329 C 0.50068 0.61122 0.28005 0.0
C330 C 0.477 0.60358 0.28535 0.0
C331 C 0.43263 0.57594 0.27372 0.0
H332 H 0.47367 0.61481 0.30098 0.0
C333 C 0.41452 0.55135 0.27841 0.0
C334 C 0.39085 0.54616 0.28073 0.0
C335 C 0.42684 0.5952 0.27148 0.0
H336 H 0.44038 0.61419 0.26762 0.0
C337 C 0.40344 0.59007 0.27364 0.0
H338 H 0.41881 0.53638 0.28025 0.0
C339 C 0.38554 0.56574 0.27817 0.0
H340 H 0.36756 0.56233 0.28014 0.0
H341 H 0.39916 0.60503 0.2718 0.0
Tb342 Tb 0.53268 0.02626 0.01801 0.0
C343 C 0.51362 0.96863 0.02333 0.0
Tb344 Tb 0.47799 0.99087 0.01901 0.0
O345 O 0.53893 0.01976 0.06149 0.0
O346 O 0.50704 0.0182 0.04745 0.0
O347 O 0.53144 0.98979 0.0152 0.0
C348 C 0.43402 0.95932 0.03312 0.0
O349 O 0.49267 0.96631 0.0288 0.0
C350 C 0.49214 1.00161 0.96876 0.0
C351 C 0.49669 0.04787 0.01064 0.0
O352 O 0.4433 0.95544 0.01127 0.0
O353 O 0.44953 0.98093 0.04706 0.0
O354 O 0.47073 0.99541 0.97511 0.0
O355 O 0.50351 0.99888 0.98943 0.0
O356 O 0.47918 0.02718 0.0198 0.0
O357 O 0.51788 0.05036 0.00616 0.0
C358 C 0.57733 0.06026 0.00804 0.0
O359 O 0.56226 0.04044 0.99102 0.0
O360 O 0.56724 0.06089 0.03057 0.0
C361 C 0.51781 0.01454 0.06793 0.0
Tb362 Tb 0.99192 0.51149 0.02129 0.0
C363 C 0.04634 0.55179 0.02417 0.0
Tb364 Tb 0.02915 0.49321 0.0216 0.0
O365 O 1.00605 0.53011 0.06451 0.0
O366 O 1.00787 0.49811 0.05052 0.0
O367 O 0.02449 0.54614 0.014 0.0
C368 C 0.06059 0.47917 0.03851 0.0
O369 O 0.05133 0.53427 0.03206 0.0
C370 C 0.01659 0.50318 0.97222 0.0
C371 C 0.97376 0.45187 0.01774 0.0
O372 O 0.05663 0.49544 0.05239 0.0
O373 O 0.04658 0.47043 0.01492 0.0
O374 O 0.03714 0.50458 0.97851 0.0
O375 O 1.00423 0.49439 0.9923 0.0
O376 O 0.99623 0.45642 0.02212 0.0
O377 O 0.96834 0.47022 0.01578 0.0
C378 C 0.95662 0.52034 0.00597 0.0
O379 O 0.95881 0.51135 0.02935 0.0
O380 O 0.97442 0.52453 0.99145 0.0
C381 C 0.01419 0.51511 0.07069 0.0
Tb382 Tb 0.49081 0.50217 0.01722 0.0
C383 C 0.51004 0.46447 0.01125 0.0
Tb384 Tb 0.54512 0.52469 0.01318 0.0
O385 O 0.48295 0.48395 0.97383 0.0
O386 O 0.51496 0.51781 0.98625 0.0
O387 O 0.49245 0.46754 0.02021 0.0
C388 C 0.5878 0.53622 0.99624 0.0
O389 O 0.53043 0.48364 0.00437 0.0
C390 C 0.53328 0.52695 0.06432 0.0
C391 C 0.52618 0.56258 0.02055 0.0
O392 O 0.57911 0.52476 0.01837 0.0
O393 O 0.57255 0.54139 0.98379 0.0
O394 O 0.55421 0.54255 0.05651 0.0
O395 O 0.52119 0.50947 0.04457 0.0
O396 O 0.54364 0.55942 0.01138 0.0
O397 O 0.50539 0.54326 0.02635 0.0
C398 C 0.44748 0.49065 0.03223 0.0
O399 O 0.4552 0.49795 0.00805 0.0
O400 O 0.46409 0.48965 0.04782 0.0
C401 C 0.50365 0.50048 0.9663 0.0
Tb402 Tb 0.20318 0.36039 0.3535 0.0
C403 C 0.18749 0.30409 0.36219 0.0
Tb404 Tb 0.14899 0.32246 0.35598 0.0
O405 O 0.21059 0.35607 0.39763 0.0
O406 O 0.17764 0.35197 0.38303 0.0
O407 O 0.20389 0.32498 0.352 0.0
C408 C 0.10603 0.2892 0.37107 0.0
O409 O 0.16629 0.30074 0.3682 0.0
C410 C 0.16216 0.33249 0.30519 0.0
C411 C 0.16462 0.37885 0.34632 0.0
O412 O 0.11591 0.28539 0.3498 0.0
O413 O 0.12037 0.31175 0.38391 0.0
O414 O 0.14049 0.32478 0.3117 0.0
O415 O 0.17431 0.33129 0.32614 0.0
O416 O 0.14736 0.3572 0.35421 0.0
O417 O 0.18668 0.38324 0.3432 0.0
C418 C 0.24612 0.39442 0.33872 0.0
O419 O 0.2383 0.39518 0.363 0.0
O420 O 0.22983 0.37444 0.32288 0.0
C421 C 0.1892 0.35 0.40399 0.0
Tb422 Tb 0.66101 0.84235 0.35622 0.0
C423 C 0.71628 0.88285 0.35364 0.0
Tb424 Tb 0.69706 0.82365 0.34971 0.0
O425 O 0.65969 0.83692 0.40114 0.0
O426 O 0.68993 0.84394 0.38149 0.0
O427 O 0.69381 0.87837 0.35135 0.0
C428 C 0.72708 0.80614 0.36034 0.0
O429 O 0.72154 0.86459 0.35689 0.0
C430 C 0.67706 0.82827 0.30242 0.0
C431 C 0.64167 0.7829 0.35248 0.0
O432 O 0.72633 0.81747 0.33841 0.0
O433 O 0.7107 0.80437 0.37609 0.0
O434 O 0.69784 0.82962 0.30456 0.0
O435 O 0.66793 0.8216 0.3251 0.0
O436 O 0.66419 0.78747 0.35388 0.0
O437 O 0.63629 0.80125 0.35069 0.0
C438 C 0.63111 0.85923 0.34217 0.0
O439 O 0.63372 0.8521 0.36664 0.0
O440 O 0.64563 0.85725 0.32591 0.0
C441 C 0.6799 0.83699 0.40372 0.0
Tb442 Tb 0.15961 0.83428 0.35215 0.0
C443 C 0.18038 0.79664 0.3518 0.0
Tb444 Tb 0.21501 0.85689 0.35214 0.0
O445 O 0.15769 0.84337 0.30797 0.0
O446 O 0.18403 0.83632 0.32383 0.0
O447 O 0.1611 0.79915 0.35395 0.0
C448 C 0.25813 0.86959 0.33633 0.0
O449 O 0.20232 0.8162 0.34999 0.0
C450 C 0.20084 0.86236 0.40099 0.0
C451 C 0.19386 0.89349 0.35281 0.0
O452 O 0.24937 0.85796 0.35844 0.0
O453 O 0.24267 0.87424 0.32332 0.0
O454 O 0.22237 0.87707 0.39414 0.0
O455 O 0.18948 0.84409 0.38191 0.0
O456 O 0.21082 0.88946 0.34351 0.0
O457 O 0.17353 0.87494 0.3604 0.0
C458 C 0.11566 0.8165 0.36873 0.0
O459 O 0.12021 0.81107 0.34385 0.0
O460 O 0.13575 0.83164 0.38394 0.0
C461 C 0.1772 0.84321 0.30278 0.0
Tb462 Tb 0.8659 0.6941 0.68491 0.0
C463 C 0.84915 0.63752 0.69372 0.0
Tb464 Tb 0.81154 0.65723 0.68731 0.0
O465 O 0.87331 0.68955 0.72891 0.0
O466 O 0.84057 0.68603 0.71456 0.0
O467 O 0.86619 0.65842 0.68419 0.0
C468 C 0.76869 0.62448 0.70327 0.0
O469 O 0.82791 0.63458 0.69882 0.0
C470 C 0.82473 0.66727 0.63662 0.0
C471 C 0.82831 0.71401 0.67908 0.0
O472 O 0.77787 0.62063 0.6813 0.0
O473 O 0.7836 0.64683 0.71615 0.0
O474 O 0.80323 0.66032 0.64325 0.0
O475 O 0.83676 0.66544 0.6573 0.0
O476 O 0.81079 0.69242 0.68667 0.0
O477 O 0.85015 0.71788 0.67554 0.0
C478 C 0.90903 0.7278 0.67029 0.0
O479 O 0.90132 0.72843 0.69467 0.0
O480 O 0.89252 0.70812 0.65425 0.0
C481 C 0.85199 0.68367 0.73539 0.0
Tb482 Tb 0.32559 0.17715 0.68581 0.0
C483 C 0.38015 0.21671 0.69188 0.0
Tb484 Tb 0.36059 0.15682 0.69062 0.0
O485 O 0.33794 0.19546 0.72909 0.0
O486 O 0.33793 0.16188 0.71706 0.0
O487 O 0.35863 0.21245 0.68209 0.0
C488 C 0.39554 0.14758 0.70754 0.0
O489 O 0.38418 0.19817 0.69855 0.0
C490 C 0.34216 0.15418 0.63937 0.0
C491 C 0.30574 0.11717 0.68514 0.0
O492 O 0.38118 0.14999 0.7237 0.0
O493 O 0.39012 0.15018 0.6818 0.0
O494 O 0.34908 0.13867 0.64751 0.0
O495 O 0.34799 0.17174 0.65895 0.0
O496 O 0.32753 0.12112 0.69301 0.0
O497 O 0.30147 0.13581 0.67976 0.0
C498 C 0.29052 0.18625 0.66898 0.0
O499 O 0.29679 0.18494 0.69489 0.0
O500 O 0.30411 0.18262 0.65262 0.0
C501 C 0.34403 0.17919 0.73691 0.0
Tb502 Tb 0.82524 0.17694 0.67726 0.0
C503 C 0.84061 0.13443 0.68072 0.0
Tb504 Tb 0.87924 0.19293 0.68196 0.0
O505 O 0.82462 0.18031 0.63139 0.0
O506 O 0.84884 0.17244 0.65243 0.0
O507 O 0.82345 0.14034 0.68359 0.0
C508 C 0.92316 0.2086 0.66643 0.0
O509 O 0.86305 0.15168 0.6769 0.0
C510 C 0.86045 0.19063 0.72971 0.0
C511 C 0.86415 0.23556 0.67831 0.0
O512 O 0.91694 0.20332 0.69171 0.0
O513 O 0.9048 0.20536 0.65024 0.0
O514 O 0.87892 0.18764 0.72723 0.0
O515 O 0.85559 0.1973 0.707 0.0
O516 O 0.88129 0.22954 0.67645 0.0
O517 O 0.84148 0.21838 0.68127 0.0
C518 C 0.78146 0.16224 0.69286 0.0
O519 O 0.78826 0.16901 0.66814 0.0
O520 O 0.7992 0.1634 0.70849 0.0
C521 C 0.84348 0.17799 0.62926 0.0
H522 H 0.30548 0.82739 0.07289 0.0
H523 H 0.28803 0.88708 0.08365 0.0
H524 H 0.34467 0.85776 0.05959 0.0
H525 H 0.32781 0.91776 0.07082 0.0
H526 H 0.41188 0.96691 0.07657 0.0
H527 H 0.37163 0.93774 0.08946 0.0
H528 H 0.36125 0.88361 0.01963 0.0
H529 H 0.40138 0.91268 0.00686 0.0
C530 C 0.30985 0.84694 0.07208 0.0
C531 C 0.29336 0.85466 0.07893 0.0
C532 C 0.33241 0.86438 0.06455 0.0
C533 C 0.33927 0.89011 0.06392 0.0
C534 C 0.32306 0.89805 0.07126 0.0
C535 C 0.3003 0.88049 0.07862 0.0
C536 C 0.40091 0.94879 0.06398 0.0
C537 C 0.4097 0.94197 0.04078 0.0
C538 C 0.37786 0.93219 0.07124 0.0
C539 C 0.3633 0.90837 0.05559 0.0
C540 C 0.37213 0.90171 0.03228 0.0
C541 C 0.39506 0.91837 0.0249 0.0
H542 H 0.16218 0.45229 0.13568 0.0
H543 H 0.18253 0.45422 0.05076 0.0
H544 H 0.12836 0.45666 0.11886 0.0
H545 H 0.14912 0.45994 0.03407 0.0
H546 H 0.07334 0.4477 0.01061 0.0
H547 H 0.10534 0.43916 0.02609 0.0
H548 H 0.12216 0.48936 0.10239 0.0
H549 H 0.09003 0.49725 0.08728 0.0
C550 C 0.15934 0.45342 0.11332 0.0
C551 C 0.17508 0.45273 0.09456 0.0
C552 C 0.14008 0.4563 0.10373 0.0
C553 C 0.13607 0.45886 0.07513 0.0
C554 C 0.15156 0.45783 0.05621 0.0
C555 C 0.17088 0.45484 0.06582 0.0
C556 C 0.08384 0.45671 0.03075 0.0
C557 C 0.07921 0.47306 0.04778 0.0
C558 C 0.10226 0.45199 0.03953 0.0
C559 C 0.11632 0.46352 0.06553 0.0
C560 C 0.11148 0.4798 0.08249 0.0
C561 C 0.09314 0.48446 0.07375 0.0
H562 H 0.59053 0.7243 0.0722 0.0
H563 H 0.51456 0.69753 0.05805 0.0
H564 H 0.58287 0.68186 0.05651 0.0
H565 H 0.50713 0.65573 0.04073 0.0
H566 H 0.49856 0.57748 0.04793 0.0
H567 H 0.50644 0.62041 0.05975 0.0
H568 H 0.57103 0.65024 0.01729 0.0
H569 H 0.5635 0.60711 0.00617 0.0
C570 C 0.57223 0.70947 0.06549 0.0
C571 C 0.55319 0.71443 0.06653 0.0
C572 C 0.56786 0.68517 0.05614 0.0
C573 C 0.54434 0.66524 0.04747 0.0
C574 C 0.52543 0.67045 0.04768 0.0
C575 C 0.52976 0.69464 0.05721 0.0
C576 C 0.51436 0.59313 0.04087 0.0
C577 C 0.53038 0.58877 0.02606 0.0
C578 C 0.51884 0.61784 0.04755 0.0
C579 C 0.53936 0.6389 0.03942 0.0
C580 C 0.55522 0.63453 0.02422 0.0
C581 C 0.55082 0.60976 0.01769 0.0
H582 H 0.88473 0.28969 0.96469 0.0
H583 H 0.83436 0.31576 0.9773 0.0
H584 H 0.91772 0.33179 0.98235 0.0
H585 H 0.86689 0.35665 0.99752 0.0
H586 H 0.92899 0.43543 0.99248 0.0
H587 H 0.89659 0.39229 0.98052 0.0
H588 H 0.93983 0.36417 0.01952 0.0
H589 H 0.97309 0.40794 0.03033 0.0
C590 C 0.88057 0.30419 0.97155 0.0
C591 C 0.85669 0.29912 0.9691 0.0
C592 C 0.89956 0.32832 0.98215 0.0
C593 C 0.89515 0.34793 0.99103 0.0
C594 C 0.87117 0.34235 0.99019 0.0
C595 C 0.8523 0.3185 0.97906 0.0
C596 C 0.93163 0.42014 0.99882 0.0
C597 C 0.95366 0.42522 0.01251 0.0
C598 C 0.91285 0.39522 0.9921 0.0
C599 C 0.9153 0.3745 0.99928 0.0
C600 C 0.93729 0.37956 0.01336 0.0
C601 C 0.95633 0.40466 0.01974 0.0
H602 H 0.69574 0.51142 0.92899 0.0
H603 H 0.72795 0.59314 0.93191 0.0
H604 H 0.66074 0.50868 0.94873 0.0
H605 H 0.6922 0.59005 0.95065 0.0
H606 H 0.60959 0.56357 0.95293 0.0
H607 H 0.64627 0.56925 0.93401 0.0
H608 H 0.65334 0.52436 0.99657 0.0
H609 H 0.61695 0.51898 0.01567 0.0
C610 C 0.6955 0.52885 0.93401 0.0
C611 C 0.71493 0.55257 0.92919 0.0
C612 C 0.67534 0.52721 0.94519 0.0
C613 C 0.67388 0.54916 0.95141 0.0
C614 C 0.69288 0.57282 0.94593 0.0
C615 C 0.71328 0.57454 0.93509 0.0
C616 C 0.61916 0.55516 0.96276 0.0
C617 C 0.61051 0.54085 0.98573 0.0
C618 C 0.64013 0.55846 0.952 0.0
C619 C 0.65254 0.54715 0.96377 0.0
C620 C 0.64399 0.5331 0.98697 0.0
C621 C 0.62326 0.53012 0.99796 0.0
H622 H 0.47065 0.1504 0.9159 0.0
H623 H 0.46519 0.17129 1.00206 0.0
H624 H 0.47753 0.1168 0.93149 0.0
H625 H 0.47208 0.13766 0.01768 0.0
H626 H 0.46134 0.05675 0.02726 0.0
H627 H 0.45227 0.08907 0.01228 0.0
H628 H 0.5116 0.11682 0.96113 0.0
H629 H 0.52079 0.08475 0.9761 0.0
C630 C 0.47058 0.14755 0.93811 0.0
C631 C 0.46738 0.16344 0.95777 0.0
C632 C 0.47474 0.1285 0.94706 0.0
C633 C 0.47549 0.12472 0.97582 0.0
C634 C 0.47151 0.14007 0.99538 0.0
C635 C 0.46768 0.15936 0.98647 0.0
C636 C 0.47253 0.06985 0.01295 0.0
C637 C 0.49186 0.06825 1.003 0.0
C638 C 0.46735 0.08837 0.00444 0.0
C639 C 0.48114 0.10536 0.98542 0.0
C640 C 0.50051 0.1038 0.97557 0.0
C641 C 0.5059 0.08558 0.98439 0.0
H642 H 0.7136 0.16217 0.94091 0.0
H643 H 0.69849 0.20757 1.00001 0.0
H644 H 0.67918 0.12347 0.95412 0.0
H645 H 0.66389 0.16949 0.01226 0.0
H646 H 0.61206 0.09784 0.04524 0.0
H647 H 0.65094 0.13236 0.03553 0.0
H648 H 0.63569 0.10215 0.94772 0.0
H649 H 0.59707 0.06697 0.95789 0.0
C650 C 0.70309 0.16385 0.9569 0.0
C651 C 0.70861 0.18792 0.96921 0.0
C652 C 0.68323 0.14174 0.96425 0.0
C653 C 0.66864 0.1433 0.98419 0.0
C654 C 0.6748 0.1674 0.99712 0.0
C655 C 0.69452 0.18934 0.98982 0.0
C656 C 0.61716 0.09845 0.02394 0.0
C657 C 0.60153 0.07991 1.00227 0.0
C658 C 0.63939 0.1183 0.01831 0.0
C659 C 0.64639 0.1203 0.99075 0.0
C660 C 0.63104 0.10112 0.96924 0.0
C661 C 0.60884 0.08106 0.97498 0.0
H662 H 0.82586 0.48667 0.91213 0.0
H663 H 0.8315 0.54015 0.97987 0.0
H664 H 0.86552 0.49394 0.92887 0.0
H665 H 0.87126 0.54731 0.99689 0.0
H666 H 0.9208 0.51712 0.03614 0.0
H667 H 0.88473 0.51776 0.01839 0.0
H668 H 0.90964 0.52943 0.93558 0.0
H669 H 0.94579 0.52905 0.95337 0.0
C670 C 0.83576 0.50018 0.93044 0.0
C671 C 0.82569 0.51282 0.94477 0.0
C672 C 0.85846 0.50445 0.93992 0.0
C673 C 0.87141 0.52115 0.9642 0.0
C674 C 0.86158 0.53425 0.97819 0.0
C675 C 0.83898 0.5303 0.96839 0.0
C676 C 0.91868 0.52017 0.01426 0.0
C677 C 0.93597 0.52296 0.99608 0.0
C678 C 0.89814 0.52067 0.00415 0.0
C679 C 0.89441 0.5236 0.97561 0.0
C680 C 0.91204 0.52702 0.95763 0.0
C681 C 0.93272 0.52688 0.96783 0.0
H682 H 0.52807 0.33485 0.03076 0.0
H683 H 0.48217 0.31336 0.95251 0.0
H684 H 0.52507 0.37299 0.03867 0.0
H685 H 0.47866 0.35145 0.96103 0.0
H686 H 0.46843 0.41785 0.00403 0.0
H687 H 0.46498 0.37568 0.99885 0.0
H688 H 0.54223 0.41147 0.00811 0.0
H689 H 0.54575 0.45319 0.01279 0.0
C690 C 0.51713 0.33812 0.01536 0.0
C691 C 0.50579 0.32132 0.99067 0.0
C692 C 0.51534 0.3599 0.02 0.0
C693 C 0.50189 0.36528 1.00029 0.0
C694 C 0.4891 0.34766 0.97658 0.0
C695 C 0.49109 0.32587 0.97175 0.0
C696 C 0.48462 0.41662 0.00506 0.0
C697 C 0.50736 0.43882 0.00885 0.0
C698 C 0.48263 0.39256 1.00195 0.0
C699 C 0.50334 0.39039 1.00327 0.0
C700 C 0.52598 0.41259 0.0073 0.0
C701 C 0.52797 0.43649 0.00984 0.0
H702 H 0.16412 0.70059 0.09386 0.0
H703 H 0.16697 0.69776 1.00371 0.0
H704 H 0.12527 0.66085 0.08752 0.0
H705 H 0.12807 0.6583 0.99723 0.0
H706 H 0.05011 0.59207 0.9973 0.0
H707 H 0.08282 0.63655 0.00511 0.0
H708 H 0.11832 0.61668 0.06992 0.0
H709 H 0.08606 0.5725 0.06198 0.0
C710 C 0.15597 0.69193 0.07267 0.0
C711 C 0.16836 0.70213 0.04926 0.0
C712 C 0.13391 0.66914 0.06904 0.0
C713 C 0.12379 0.65642 0.04189 0.0
C714 C 0.13536 0.66776 0.01836 0.0
C715 C 0.15757 0.6903 0.02204 0.0
C716 C 0.06488 0.59729 0.01326 0.0
C717 C 0.06566 0.57877 0.0288 0.0
C718 C 0.08354 0.62269 0.01773 0.0
C719 C 0.10298 0.63008 0.03828 0.0
C720 C 0.10341 0.61162 0.05422 0.0
C721 C 0.08506 0.58625 0.04941 0.0
H722 H 0.3496 0.51873 0.11861 0.0
H723 H 0.30189 0.46159 0.05178 0.0
H724 H 0.38261 0.513 0.10497 0.0
H725 H 0.33506 0.45584 0.03793 0.0
H726 H 0.40981 0.48796 1.00007 0.0
H727 H 0.37326 0.4849 0.01618 0.0
H728 H 0.39704 0.4815 0.10154 0.0
H729 H 0.43355 0.48445 0.08536 0.0
C730 C 0.34614 0.50464 0.10127 0.0
C731 C 0.32327 0.49065 0.08618 0.0
C732 C 0.36499 0.50126 0.09354 0.0
C733 C 0.36145 0.48405 0.07029 0.0
C734 C 0.33833 0.46937 0.05581 0.0
C735 C 0.31934 0.47249 0.06385 0.0
C736 C 0.40704 0.48621 0.02219 0.0
C737 C 0.4245 0.48653 0.04149 0.0
C738 C 0.38607 0.4843 0.03139 0.0
C739 C 0.38229 0.48298 0.06013 0.0
C740 C 0.39952 0.48263 0.07929 0.0
C741 C 0.42036 0.48424 0.07003 0.0
H742 H 0.54602 0.85601 0.08501 0.0
H743 H 0.49615 0.81845 0.01028 0.0
H744 H 0.5489 0.8965 0.07491 0.0
H745 H 0.49881 0.85851 1.0005 0.0
H746 H 0.47854 0.9194 0.02373 0.0
H747 H 0.48289 0.88255 0.02977 0.0
H748 H 0.56003 0.93012 0.03688 0.0
H749 H 0.55573 0.96748 0.03052 0.0
C750 C 0.53615 0.85652 0.06612 0.0
C751 C 0.5205 0.83399 0.04873 0.0
C752 C 0.53778 0.87964 0.06037 0.0
C753 C 0.52373 0.88048 0.0372 0.0
C754 C 0.50948 0.8583 0.01879 0.0
C755 C 0.50795 0.83538 0.02442 0.0
C756 C 0.49648 0.92214 0.0265 0.0
C757 C 0.51679 0.9464 0.02653 0.0
C758 C 0.49895 0.90095 0.02981 0.0
C759 C 0.5218 0.90345 0.03358 0.0
C760 C 0.54222 0.9277 0.03398 0.0
C761 C 0.53973 0.94899 0.0302 0.0
H762 H 0.98067 0.15449 0.41373 0.0
H763 H 0.95946 0.21153 0.41812 0.0
H764 H 0.01978 0.18575 0.40089 0.0
H765 H 0.99903 0.24306 0.4058 0.0
H766 H 0.08225 0.29628 0.41293 0.0
H767 H 0.04251 0.26572 0.42597 0.0
H768 H 0.03638 0.21041 0.36008 0.0
H769 H 0.076 0.24089 0.34716 0.0
C770 C 0.98422 0.17363 0.41165 0.0
C771 C 0.96673 0.18037 0.41663 0.0
C772 C 1.00671 0.19158 0.4044 0.0
C773 C 0.01244 0.21682 0.40218 0.0
C774 C 0.99518 0.22377 0.40757 0.0
C775 C 0.97253 0.20572 0.41464 0.0
C776 C 0.07234 0.27759 0.40127 0.0
C777 C 0.08215 0.27088 0.37908 0.0
C778 C 0.04958 0.26017 0.40861 0.0
C779 C 0.03634 0.23566 0.39406 0.0
C780 C 0.04624 0.22905 0.37187 0.0
C781 C 0.06888 0.24651 0.36441 0.0
H782 H 0.86237 0.81849 0.41171 0.0
H783 H 0.81269 0.73845 0.41567 0.0
H784 H 0.82946 0.82383 0.39297 0.0
H785 H 0.77961 0.74428 0.39806 0.0
H786 H 0.72807 0.77869 0.40301 0.0
H787 H 0.75979 0.7694 0.41721 0.0
H788 H 0.79903 0.80858 0.34881 0.0
H789 H 0.7672 0.81756 0.33441 0.0
C790 C 0.84455 0.80191 0.40824 0.0
C791 C 0.84035 0.77797 0.41518 0.0
C792 C 0.82565 0.80506 0.39762 0.0
C793 C 0.80199 0.78448 0.39407 0.0
C794 C 0.79767 0.76053 0.40083 0.0
C795 C 0.81665 0.75725 0.41104 0.0
C796 C 0.74335 0.78501 0.39083 0.0
C797 C 0.74523 0.79884 0.36764 0.0
C798 C 0.76143 0.77963 0.39889 0.0
C799 C 0.7819 0.78834 0.38416 0.0
C800 C 0.78354 0.8018 0.36066 0.0
C801 C 0.76529 0.80683 0.35235 0.0
H802 H 0.22976 0.05364 0.35856 0.0
H803 H 0.22188 0.0328 0.44386 0.0
H804 H 0.22105 0.01069 0.34181 0.0
H805 H 0.21326 0.99018 0.42722 0.0
H806 H 0.1689 0.90981 0.38344 0.0
H807 H 0.1785 0.95325 0.39635 0.0
H808 H 0.23944 0.98115 0.34778 0.0
H809 H 0.22994 0.9373 0.33477 0.0
C810 C 0.22626 0.03993 0.37369 0.0
C811 C 0.22655 0.04659 0.40253 0.0
C812 C 0.22142 0.01545 0.36414 0.0
C813 C 0.21636 0.99707 0.38319 0.0
C814 C 0.21689 1.00387 0.41201 0.0
C815 C 0.22203 0.02834 0.42157 0.0
C816 C 0.1842 0.92507 0.37512 0.0
C817 C 0.19865 0.91998 0.35801 0.0
C818 C 0.18979 0.95002 0.38276 0.0
C819 C 0.20983 0.9706 0.37329 0.0
C820 C 0.22384 0.96562 0.35533 0.0
C821 C 0.21843 0.94054 0.34795 0.0
H822 H 0.504 0.65762 0.28682 0.0
H823 H 0.54344 0.6193 0.30539 0.0
H824 H 0.53801 0.69775 0.30779 0.0
H825 H 0.57738 0.65937 0.32757 0.0
H826 H 0.64277 0.74069 0.33171 0.0
H827 H 0.60861 0.6985 0.3169 0.0
H828 H 0.56095 0.72243 0.34906 0.0
H829 H 0.59505 0.76493 0.3625 0.0
C830 C 0.51984 0.65773 0.29594 0.0
C831 C 0.52104 0.63532 0.29451 0.0
C832 C 0.53938 0.68077 0.30814 0.0
C833 C 0.56059 0.68199 0.31961 0.0
C834 C 0.56157 0.65936 0.31862 0.0
C835 C 0.54209 0.63635 0.30604 0.0
C836 C 0.62503 0.7368 0.33602 0.0
C837 C 0.6216 0.75622 0.34807 0.0
C838 C 0.60536 0.71251 0.32757 0.0
C839 C 0.58181 0.70696 0.33135 0.0
C840 C 0.57866 0.72608 0.34501 0.0
C841 C 0.59826 0.75043 0.353 0.0
H842 H 0.36939 0.84884 0.27241 0.0
H843 H 0.39826 0.92976 0.27082 0.0
H844 H 0.33414 0.84521 0.29232 0.0
H845 H 0.36228 0.92577 0.28989 0.0
H846 H 0.27952 0.89672 0.29278 0.0
H847 H 0.3167 0.9035 0.27441 0.0
H848 H 0.32556 0.8609 0.33859 0.0
H849 H 0.28855 0.85432 0.35707 0.0
C850 C 0.36838 0.86594 0.27652 0.0
C851 C 0.38693 0.88969 0.27033 0.0
C852 C 0.34808 0.86379 0.28784 0.0
C853 C 0.34558 0.88523 0.29287 0.0
C854 C 0.36374 0.90891 0.28611 0.0
C855 C 0.38428 0.91115 0.2751 0.0
C856 C 0.28958 0.88904 0.30309 0.0
C857 C 0.28122 0.87499 0.32631 0.0
C858 C 0.31086 0.89299 0.29265 0.0
C859 C 0.32394 0.88264 0.30502 0.0
C860 C 0.31571 0.8689 0.32851 0.0
C861 C 0.29462 0.86523 0.33915 0.0
H862 H 0.17444 0.5129 0.28125 0.0
H863 H 0.10152 0.47299 0.30257 0.0
H864 H 0.18072 0.47918 0.29683 0.0
H865 H 0.10799 0.43963 0.32 0.0
H866 H 0.12144 0.37256 0.32529 0.0
H867 H 0.1133 0.40505 0.30914 0.0
H868 H 0.18691 0.46269 0.33644 0.0
H869 H 0.19518 0.43 0.35086 0.0
C870 C 0.15981 0.49689 0.28957 0.0
C871 C 0.13756 0.49552 0.29085 0.0
C872 C 0.16343 0.47762 0.29882 0.0
C873 C 0.14502 0.45667 0.31023 0.0
C874 C 0.12257 0.45523 0.31114 0.0
C875 C 0.11882 0.47436 0.3013 0.0
C876 C 0.13578 0.39224 0.328 0.0
C877 C 0.15896 0.39875 0.33926 0.0
C878 C 0.13112 0.41094 0.31881 0.0
C879 C 0.14947 0.43667 0.32111 0.0
C880 C 0.17243 0.44311 0.33344 0.0
C881 C 0.17717 0.42438 0.34203 0.0
H882 H 0.34603 0.51782 0.25291 0.0
H883 H 0.392 0.5175 0.32217 0.0
H884 H 0.31241 0.47892 0.2663 0.0
H885 H 0.35828 0.47835 0.33561 0.0
H886 H 0.28311 0.43473 0.37133 0.0
H887 H 0.31984 0.46897 0.35585 0.0
H888 H 0.29737 0.43279 0.27033 0.0
H889 H 0.26064 0.39853 0.28587 0.0
C890 C 0.34899 0.50917 0.27077 0.0
C891 C 0.37157 0.52071 0.28659 0.0
C892 C 0.32979 0.48683 0.27835 0.0
C893 C 0.33266 0.47564 0.30211 0.0
C894 C 0.35549 0.48668 0.31735 0.0
C895 C 0.37482 0.50891 0.30953 0.0
C896 C 0.28618 0.43399 0.3493 0.0
C897 C 0.26906 0.41408 0.32977 0.0
C898 C 0.30726 0.45348 0.34046 0.0
C899 C 0.31149 0.45358 0.31186 0.0
C900 C 0.29453 0.43332 0.29246 0.0
C901 C 0.27358 0.41368 0.30136 0.0
H902 H 0.50031 0.82701 0.25349 0.0
H903 H 0.50915 0.88494 0.3175 0.0
H904 H 0.54045 0.83499 0.26858 0.0
H905 H 0.54955 0.89301 0.33279 0.0
H906 H 0.61932 0.86567 0.28887 0.0
H907 H 0.58413 0.86803 0.27169 0.0
H908 H 0.56417 0.86623 0.35672 0.0
H909 H 0.59943 0.86387 0.3739 0.0
C910 C 0.51104 0.84172 0.27056 0.0
C911 C 0.50166 0.8553 0.28442 0.0
C912 C 0.53406 0.84641 0.27909 0.0
C913 C 0.54813 0.8646 0.3019 0.0
C914 C 0.53904 0.87879 0.31523 0.0
C915 C 0.51606 0.87432 0.30639 0.0
C916 C 0.60766 0.86627 0.30395 0.0
C917 C 0.61197 0.86444 0.33268 0.0
C918 C 0.58747 0.86751 0.2941 0.0
C919 C 0.57133 0.86715 0.31283 0.0
C920 C 0.5764 0.86675 0.34182 0.0
C921 C 0.5965 0.86528 0.35164 0.0
H922 H 0.14632 0.63635 0.33767 0.0
H923 H 0.20606 0.67952 0.28992 0.0
H924 H 0.14343 0.6746 0.34902 0.0
H925 H 0.20316 0.71731 0.30099 0.0
H926 H 0.21579 0.78491 0.35728 0.0
H927 H 0.21282 0.74404 0.3464 0.0
H928 H 0.13594 0.70863 0.3284 0.0
H929 H 0.13883 0.75002 0.33957 0.0
C930 C 0.15849 0.65385 0.32917 0.0
C931 C 0.17669 0.65512 0.31333 0.0
C932 C 0.15686 0.67571 0.33569 0.0
C933 C 0.17343 0.69908 0.32643 0.0
C934 C 0.19055 0.69977 0.30908 0.0
C935 C 0.19217 0.6781 0.30266 0.0
C936 C 0.19815 0.76848 0.35122 0.0
C937 C 0.17758 0.77088 0.34894 0.0
C938 C 0.19649 0.74501 0.34484 0.0
C939 C 0.17421 0.72321 0.33591 0.0
C940 C 0.15337 0.72516 0.33511 0.0
C941 C 0.15504 0.74884 0.34153 0.0
H942 H 0.85222 0.01877 0.33981 0.0
H943 H 0.83045 0.0324 0.41972 0.0
H944 H 0.81262 0.98134 0.32733 0.0
H945 H 0.79063 0.99456 0.40736 0.0
H946 H 0.7167 0.92756 0.36797 0.0
H947 H 0.75175 0.97081 0.37379 0.0
H948 H 0.7965 0.94052 0.34857 0.0
H949 H 0.76193 0.89783 0.34281 0.0
C950 C 0.83874 0.01399 0.35446 0.0
C951 C 0.84445 0.0282 0.38088 0.0
C952 C 0.81611 0.99254 0.34737 0.0
C953 C 0.79868 0.98473 0.36659 0.0
C954 C 0.80369 1.00014 0.39209 0.0
C955 C 0.82644 0.02177 0.39918 0.0
C956 C 0.734 0.93028 0.36333 0.0
C957 C 0.73658 0.90929 0.35501 0.0
C958 C 0.75404 0.95497 0.36682 0.0
C959 C 0.77684 0.95908 0.36149 0.0
C960 C 0.77914 0.93809 0.35244 0.0
C961 C 0.75932 0.91355 0.34935 0.0
H962 H 0.96699 0.77947 0.38638 0.0
H963 H 0.01536 0.84534 0.44406 0.0
H964 H 1.0005 0.77312 0.37586 0.0
H965 H 0.0487 0.83975 0.43296 0.0
H966 H 0.10484 0.8203 0.42209 0.0
H967 H 0.0674 0.81514 0.43705 0.0
H968 H 0.03563 0.79357 0.35037 0.0
H969 H 0.07302 0.79773 0.33567 0.0
C970 C 0.98469 0.79232 0.39713 0.0
C971 C 0.9886 0.81302 0.41586 0.0
C972 C 1.00393 0.78888 0.39088 0.0
C973 C 0.0274 0.80598 0.40342 0.0
C974 C 0.03093 0.82595 0.42312 0.0
C975 C 0.01181 0.82936 0.4293 0.0
C976 C 0.08969 0.81397 0.40632 0.0
C977 C 0.09185 0.80964 0.3777 0.0
C978 C 0.06825 0.81118 0.41485 0.0
C979 C 0.04855 0.80441 0.39489 0.0
C980 C 0.05033 0.79866 0.36638 0.0
C981 C 0.07177 0.80114 0.35789 0.0
H982 H 0.19695 0.1691 0.33723 0.0
H983 H 0.20487 0.18238 0.42804 0.0
H984 H 0.1998 0.21038 0.33349 0.0
H985 H 0.20744 0.22369 0.42442 0.0
H986 H 0.16772 0.26815 0.39889 0.0
H987 H 0.17487 0.23307 0.40615 0.0
H988 H 0.22665 0.25858 0.34494 0.0
H989 H 0.21966 0.29398 0.33778 0.0
C990 C 0.19996 0.18124 0.35637 0.0
C991 C 0.20082 0.17274 0.38291 0.0
C992 C 0.2016 0.20484 0.35426 0.0
C993 C 0.20369 0.22019 0.37866 0.0
C994 C 0.20569 0.21217 0.40526 0.0
C995 C 0.20445 0.18871 0.40737 0.0
C996 C 0.18074 0.26639 0.38707 0.0
C997 C 0.19295 0.28369 0.36753 0.0
C998 C 0.18501 0.24644 0.39146 0.0
C999 C 0.20135 0.2431 0.37614 0.0
C1000 C 0.21391 0.26067 0.35698 0.0
C1001 C 0.20994 0.28093 0.35293 0.0
H1002 H 0.62672 0.54329 0.76451 0.0
H1003 H 0.64865 0.48754 0.74959 0.0
H1004 H 0.66498 0.57619 0.75027 0.0
H1005 H 0.68643 0.52013 0.73513 0.0
H1006 H 0.73723 0.57674 0.67881 0.0
H1007 H 0.69912 0.5457 0.69466 0.0
H1008 H 0.7095 0.59952 0.76486 0.0
H1009 H 0.7477 0.6307 0.7488 0.0
C1010 C 0.63974 0.53809 0.75843 0.0
C1011 C 0.63445 0.51269 0.75778 0.0
C1012 C 0.66162 0.55691 0.75025 0.0
C1013 C 0.67858 0.55067 0.7412 0.0
C1014 C 0.67352 0.52544 0.74135 0.0
C1015 C 0.65182 0.50675 0.74962 0.0
C1016 C 0.73133 0.58195 0.69757 0.0
C1017 C 0.74538 0.60607 0.7126 0.0
C1018 C 0.70958 0.56415 0.70674 0.0
C1019 C 0.70135 0.57011 0.73111 0.0
C1020 C 0.71526 0.59444 0.7459 0.0
C1021 C 0.73714 0.61222 0.73679 0.0
H1022 H 0.52628 0.13843 0.72402 0.0
H1023 H 0.49442 0.11442 0.80182 0.0
H1024 H 0.4937 0.14541 0.70824 0.0
H1025 H 0.46087 0.11907 0.785 0.0
H1026 H 0.41536 0.15365 0.76135 0.0
H1027 H 0.44907 0.14843 0.7772 0.0
H1028 H 0.45342 0.12586 0.69098 0.0
H1029 H 0.42061 0.13268 0.6752 0.0
C1030 C 0.5123 0.13449 0.73774 0.0
C1031 C 0.51311 0.12575 0.76421 0.0
C1032 C 0.49333 0.13812 0.72846 0.0
C1033 C 0.47443 0.13278 0.74523 0.0
C1034 C 0.47518 0.12383 0.77159 0.0
C1035 C 0.49431 0.12064 0.78105 0.0
C1036 C 0.42359 0.14758 0.74586 0.0
C1037 C 0.41543 0.14354 0.71709 0.0
C1038 C 0.44285 0.14439 0.75492 0.0
C1039 C 0.4541 0.13658 0.73545 0.0
C1040 C 0.44564 0.13234 0.70661 0.0
C1041 C 0.42667 0.13601 0.69753 0.0
H1042 H 0.86168 0.3707 0.73562 0.0
H1043 H 0.93539 0.40145 0.71844 0.0
H1044 H 0.85261 0.32851 0.71722 0.0
H1045 H 0.92622 0.35935 0.69839 0.0
H1046 H 0.90817 0.27617 0.69754 0.0
H1047 H 0.91826 0.31982 0.71021 0.0
H1048 H 0.84635 0.30056 0.67872 0.0
H1049 H 0.83599 0.25651 0.66773 0.0
C1050 C 0.87584 0.36845 0.72728 0.0
C1051 C 0.89922 0.38935 0.72838 0.0
C1052 C 0.87064 0.34422 0.7165 0.0
C1053 C 0.8886 0.34023 0.70605 0.0
C1054 C 0.91194 0.3614 0.70663 0.0
C1055 C 0.91723 0.38561 0.71794 0.0
C1056 C 0.89462 0.28135 0.69298 0.0
C1057 C 0.87122 0.26282 0.68179 0.0
C1058 C 0.90043 0.30652 0.70016 0.0
C1059 C 0.8831 0.31396 0.69587 0.0
C1060 C 0.86005 0.29558 0.68318 0.0
C1061 C 0.85412 0.2703 0.67656 0.0
H1062 H 0.16642 0.99336 0.62156 0.0
H1063 H 0.20504 0.95414 0.63968 0.0
H1064 H 0.20091 0.03333 0.64195 0.0
H1065 H 0.23938 0.99395 0.66175 0.0
H1066 H 0.30581 0.07421 0.66565 0.0
H1067 H 0.271 0.03225 0.6514 0.0
H1068 H 0.2246 0.05883 0.68157 0.0
H1069 H 0.25934 0.10106 0.69395 0.0
C1070 C 0.18218 0.99327 0.63061 0.0
C1071 C 0.18308 0.97071 0.62914 0.0
C1072 C 0.202 0.0162 0.64249 0.0
C1073 C 0.22314 0.01711 0.65373 0.0
C1074 C 0.22369 0.99423 0.65293 0.0
C1075 C 0.20396 0.97135 0.6405 0.0
C1076 C 0.28816 0.07087 0.66955 0.0
C1077 C 0.28522 0.09087 0.6807 0.0
C1078 C 0.26812 0.04676 0.66147 0.0
C1079 C 0.24473 0.04199 0.66492 0.0
C1080 C 0.24212 0.0618 0.6777 0.0
C1081 C 0.26207 0.08601 0.68511 0.0
H1082 H 0.0616 0.22199 0.64771 0.0
H1083 H 0.04349 0.24215 0.56825 0.0
H1084 H 0.02548 0.2179 0.66501 0.0
H1085 H 0.00868 0.24069 0.58663 0.0
H1086 H 0.93284 0.20458 0.61251 0.0
H1087 H 0.97049 0.2122 0.59597 0.0
H1088 H 1.0045 0.23627 0.6818 0.0
H1089 H 0.96609 0.22679 0.69832 0.0
C1090 C 0.05006 0.2258 0.63394 0.0
C1091 C 0.05546 0.232 0.60631 0.0
C1092 C 0.02943 0.22392 0.64413 0.0
C1093 C 0.0138 0.22876 0.62726 0.0
C1094 C 0.01983 0.23617 0.60012 0.0
C1095 C 0.0402 0.23751 0.5897 0.0
C1096 C 0.94843 0.2116 0.62779 0.0
C1097 C 0.9466 0.21504 0.65669 0.0
C1098 C 0.97018 0.21622 0.6183 0.0
C1099 C 0.99084 0.22497 0.63743 0.0
C1100 C 0.989 0.22905 0.66639 0.0
C1101 C 0.96705 0.22384 0.67592 0.0
H1102 H 0.76506 0.8091 0.64346 0.0
H1103 H 0.83796 0.85133 0.62265 0.0
H1104 H 0.77229 0.7758 0.65924 0.0
H1105 H 0.84504 0.81757 0.63642 0.0
H1106 H 0.85951 0.76515 0.68511 0.0
H1107 H 0.85147 0.79872 0.67349 0.0
H1108 H 0.77759 0.74212 0.64564 0.0
H1109 H 0.78548 0.70885 0.65913 0.0
C1110 C 0.78256 0.81101 0.64204 0.0
C1111 C 0.80101 0.83266 0.63204 0.0
C1112 C 0.78673 0.79189 0.65086 0.0
C1113 C 0.80933 0.79382 0.64928 0.0
C1114 C 0.8276 0.81552 0.63875 0.0
C1115 C 0.82355 0.83481 0.63055 0.0
C1116 C 0.84152 0.75998 0.67673 0.0
C1117 C 0.82312 0.73442 0.67311 0.0
C1118 C 0.8369 0.77921 0.66977 0.0
C1119 C 0.81388 0.77333 0.65825 0.0
C1120 C 0.79544 0.74763 0.65487 0.0
C1121 C 0.79996 0.72845 0.66248 0.0
H1122 H 1.00825 0.85312 0.58691 0.0
H1123 H 0.05483 0.85113 0.6542 0.0
H1124 H 0.97486 0.8136 0.59948 0.0
H1125 H 0.02134 0.8114 0.66684 0.0
H1126 H 0.94643 0.76728 0.7033 0.0
H1127 H 0.98312 0.80173 0.68805 0.0
H1128 H 0.95992 0.76717 0.60193 0.0
H1129 H 0.92322 0.73267 0.61726 0.0
C1130 C 0.01139 0.84397 0.60413 0.0
C1131 C 0.03406 0.85521 0.61968 0.0
C1132 C 0.99233 0.82128 0.61123 0.0
C1133 C 0.99545 0.80947 0.63425 0.0
C1134 C 0.01838 0.8202 0.64914 0.0
C1135 C 0.03756 0.84278 0.64178 0.0
C1136 C 0.94934 0.76692 0.68118 0.0
C1137 C 0.93201 0.74742 0.66143 0.0
C1138 C 0.9704 0.78653 0.67247 0.0
C1139 C 0.97439 0.78716 0.64378 0.0
C1140 C 0.95726 0.76726 0.62414 0.0
C1141 C 0.93632 0.7475 0.63292 0.0
H1142 H 0.15396 0.14956 0.58689 0.0
H1143 H 0.16983 0.21365 0.64607 0.0
H1144 H 0.19343 0.15513 0.60056 0.0
H1145 H 0.20962 0.21951 0.65955 0.0
H1146 H 0.27311 0.18379 0.6148 0.0
H1147 H 0.23684 0.1846 0.59873 0.0
H1148 H 0.22483 0.19508 0.68541 0.0
H1149 H 0.2612 0.19443 0.70143 0.0
C1150 C 0.166 0.16497 0.60269 0.0
C1151 C 0.15877 0.18106 0.61555 0.0
C1152 C 0.18868 0.16831 0.61034 0.0
C1153 C 0.20464 0.18774 0.63117 0.0
C1154 C 0.19764 0.20425 0.64358 0.0
C1155 C 0.17497 0.20104 0.63572 0.0
C1156 C 0.26284 0.18655 0.63038 0.0
C1157 C 0.26984 0.18894 0.65934 0.0
C1158 C 0.24204 0.1869 0.62119 0.0
C1159 C 0.22791 0.18979 0.6408 0.0
C1160 C 0.23545 0.19307 0.66979 0.0
C1161 C 0.25618 0.19256 0.67897 0.0
H1162 H 0.81815 0.98618 0.61947 0.0
H1163 H 0.82428 0.98932 0.71034 0.0
H1164 H 0.81603 0.02532 0.62261 0.0
H1165 H 0.82179 0.02821 0.71352 0.0
H1166 H 0.80493 0.09394 0.70399 0.0
H1167 H 0.79565 0.04939 0.69858 0.0
H1168 H 0.85193 0.0697 0.64368 0.0
H1169 H 0.8615 0.11378 0.64946 0.0
C1170 C 0.81816 0.99475 0.64003 0.0
C1171 C 0.82143 0.98486 0.66466 0.0
C1172 C 0.8171 0.01719 0.64186 0.0
C1173 C 0.81891 0.02984 0.66833 0.0
C1174 C 0.8202 0.01876 0.69287 0.0
C1175 C 0.82167 0.99659 0.69106 0.0
C1176 C 0.8152 0.08877 0.69073 0.0
C1177 C 0.83411 0.10737 0.67743 0.0
C1178 C 0.80989 0.06336 0.68762 0.0
C1179 C 0.82293 0.05611 0.67049 0.0
C1180 C 0.84137 0.07466 0.65669 0.0
C1181 C 0.84702 0.09998 0.6603 0.0
H1182 H 0.50721 0.35652 0.67056 0.0
H1183 H 0.50449 0.36139 0.76075 0.0
H1184 H 0.46692 0.31899 0.66456 0.0
H1185 H 0.46421 0.32364 0.75481 0.0
H1186 H 0.41917 0.23495 0.73023 0.0
H1187 H 0.45365 0.27791 0.73794 0.0
H1188 H 0.42194 0.30137 0.67258 0.0
H1189 H 0.38697 0.25812 0.66502 0.0
C1190 C 0.49769 0.34987 0.68901 0.0
C1191 C 0.5089 0.3617 0.71612 0.0
C1192 C 0.47464 0.32849 0.68558 0.0
C1193 C 0.46256 0.31832 0.70924 0.0
C1194 C 0.47323 0.33104 0.73624 0.0
C1195 C 0.49615 0.35269 0.73964 0.0
C1196 C 0.41946 0.24926 0.71754 0.0
C1197 C 0.4005 0.24312 0.69679 0.0
C1198 C 0.43909 0.27394 0.7222 0.0
C1199 C 0.4404 0.29299 0.70596 0.0
C1200 C 0.42133 0.287 0.6854 0.0
C1201 C 0.40137 0.26232 0.68109 0.0
H1202 H 0.63795 0.13657 0.72063 0.0
H1203 H 0.68784 0.188 0.79008 0.0
H1204 H 0.66973 0.13023 0.70297 0.0
H1205 H 0.7195 0.18196 0.77245 0.0
H1206 H 0.74322 0.16053 0.66283 0.0
H1207 H 0.70748 0.15772 0.68126 0.0
H1208 H 0.73251 0.15057 0.76437 0.0
H1209 H 0.76826 0.1536 0.74597 0.0
C1210 C 0.65559 0.14616 0.73234 0.0
C1211 C 0.66049 0.16287 0.75663 0.0
C1212 C 0.67381 0.14272 0.72213 0.0
C1213 C 0.69716 0.15566 0.73625 0.0
C1214 C 0.70169 0.17152 0.7612 0.0
C1215 C 0.6836 0.17514 0.7712 0.0
C1216 C 0.74085 0.15796 0.68493 0.0
C1217 C 0.75853 0.15742 0.70301 0.0
C1218 C 0.72035 0.15623 0.69546 0.0
C1219 C 0.71723 0.15409 0.72433 0.0
C1220 C 0.73452 0.15252 0.74212 0.0
C1221 C 0.75492 0.15412 0.73156 0.0
H1222 H 0.85004 0.51376 0.77256 0.0
H1223 H 0.88442 0.51615 0.69712 0.0
H1224 H 0.8505 0.5529 0.76324 0.0
H1225 H 0.88431 0.55517 0.68709 0.0
H1226 H 0.88995 0.63446 0.68728 0.0
H1227 H 0.89757 0.60062 0.70048 0.0
H1228 H 0.82671 0.56017 0.72841 0.0
H1229 H 0.81928 0.59368 0.71588 0.0
C1230 C 0.85812 0.52302 0.75424 0.0
C1231 C 0.86711 0.51198 0.7355 0.0
C1232 C 0.85819 0.54529 0.7487 0.0
C1233 C 0.86693 0.55688 0.72404 0.0
C1234 C 0.87747 0.54677 0.70627 0.0
C1235 C 0.87759 0.52449 0.712 0.0
C1236 C 0.87603 0.61831 0.69623 0.0
C1237 C 0.854 0.61688 0.70048 0.0
C1238 C 0.88039 0.59891 0.70375 0.0
C1239 C 0.86289 0.57781 0.71587 0.0
C1240 C 0.84085 0.57638 0.71977 0.0
C1241 C 0.83649 0.59559 0.71226 0.0
H1242 H 0.44834 0.95714 0.22041 0.0
H1243 H 0.45579 0.8966 0.17943 0.0
H1244 H 0.46659 0.98323 0.18212 0.0
H1245 H 0.47433 0.92279 0.14167 0.0
H1246 H 0.53183 0.98719 0.09834 0.0
H1247 H 0.5126 0.96214 0.13677 0.0
H1248 H 0.45885 0.98461 0.12999 0.0
H1249 H 0.47858 0.01024 0.09171 0.0
C1250 C 0.45372 0.94932 0.2032 0.0
C1251 C 0.45082 0.92485 0.20321 0.0
C1252 C 0.46417 0.96428 0.18128 0.0
C1253 C 0.47207 0.95514 0.15901 0.0
C1254 C 0.46885 0.93056 0.15882 0.0
C1255 C 0.4583 0.91558 0.18056 0.0
C1256 C 0.516 0.98691 0.10519 0.0
C1257 C 0.50648 1.00038 0.0919 0.0
C1258 C 0.50487 0.9724 0.12702 0.0
C1259 C 0.48409 0.97121 0.13625 0.0
C1260 C 0.47488 0.9852 0.12338 0.0
C1261 C 0.48598 0.99963 0.10133 0.0
H1262 H 0.08687 0.55313 0.24153 0.0
H1263 H 0.10981 0.50545 0.19935 0.0
H1264 H 0.06147 0.54819 0.19887 0.0
H1265 H 0.08514 0.50113 0.1564 0.0
H1266 H 0.02176 0.47883 0.09155 0.0
H1267 H 0.04541 0.48245 0.13518 0.0
H1268 H 0.06317 0.56069 0.15267 0.0
H1269 H 0.03877 0.55658 0.10939 0.0
C1270 C 0.08651 0.54164 0.22307 0.0
C1271 C 0.1002 0.52956 0.22383 0.0
C1272 C 0.07208 0.53893 0.19853 0.0
C1273 C 0.07122 0.52429 0.17403 0.0
C1274 C 0.08492 0.51214 0.17493 0.0
C1275 C 0.09912 0.51464 0.19956 0.0
C1276 C 0.03075 0.49677 0.10479 0.0
C1277 C 0.02851 0.51744 0.09715 0.0
C1278 C 0.04443 0.49893 0.12974 0.0
C1279 C 0.05632 0.52189 0.14759 0.0
C1280 C 0.05398 0.54257 0.1398 0.0
C1281 C 0.04011 0.54031 0.11493 0.0
H1282 H 0.45814 0.55411 0.19254 0.0
H1283 H 0.5235 0.56695 0.23897 0.0
H1284 H 0.46842 0.53821 0.15061 0.0
H1285 H 0.5342 0.55232 0.1964 0.0
H1286 H 0.55647 0.56774 0.10336 0.0
H1287 H 0.54353 0.57491 0.14829 0.0
H1288 H 0.47897 0.50148 0.13242 0.0
H1289 H 0.49276 0.49358 0.08795 0.0
C1290 C 0.47441 0.55306 0.19413 0.0
C1291 C 0.49009 0.56213 0.21927 0.0
C1292 C 0.48031 0.54404 0.16998 0.0
C1293 C 0.50216 0.54427 0.17029 0.0
C1294 C 0.51733 0.5522 0.1956 0.0
C1295 C 0.51125 0.56076 0.21989 0.0
C1296 C 0.53962 0.55298 0.10953 0.0
C1297 C 0.52528 0.53033 0.09181 0.0
C1298 C 0.53226 0.55708 0.13527 0.0
C1299 C 0.51024 0.53878 0.14371 0.0
C1300 C 0.49594 0.51597 0.1262 0.0
C1301 C 0.50363 0.5116 0.10064 0.0
H1302 H 0.96021 0.49935 0.79691 0.0
H1303 H 0.92801 0.42323 0.82216 0.0
H1304 H 0.98455 0.51603 0.84306 0.0
H1305 H 0.95185 0.43986 0.86796 0.0
H1306 H 0.96949 0.48465 0.95573 0.0
H1307 H 0.94981 0.47433 0.90781 0.0
H1308 H 0.01854 0.50512 0.87468 0.0
H1309 H 0.03858 0.51528 0.92316 0.0
C1310 C 0.95851 0.48623 0.81219 0.0
C1311 C 0.94236 0.45998 0.80589 0.0
C1312 C 0.97245 0.49574 0.83843 0.0
C1313 C 0.96998 0.47917 0.85891 0.0
C1314 C 0.95405 0.45298 0.85246 0.0
C1315 C 0.94053 0.44348 0.82621 0.0
C1316 C 0.98056 0.48972 0.93835 0.0
C1317 C 1.00561 0.50071 0.94321 0.0
C1318 C 0.96923 0.48369 0.91092 0.0
C1319 C 0.98268 0.48882 0.88768 0.0
C1320 C 1.00785 0.50108 0.89237 0.0
C1321 C 0.01926 0.50684 0.92 0.0
H1322 H 0.57234 0.51576 0.81056 0.0
H1323 H 0.55923 0.44377 0.83713 0.0
H1324 H 0.55384 0.52203 0.8511 0.0
H1325 H 0.54087 0.45007 0.87773 0.0
H1326 H 0.48792 0.45703 0.93147 0.0
H1327 H 0.50557 0.45109 0.88982 0.0
H1328 H 0.56033 0.53064 0.90184 0.0
H1329 H 0.54188 0.53664 0.9427 0.0
C1330 C 0.56567 0.50135 0.82518 0.0
C1331 C 0.56721 0.47922 0.82053 0.0
C1332 C 0.55508 0.50496 0.84845 0.0
C1333 C 0.54579 0.48653 0.86771 0.0
C1334 C 0.54742 0.46444 0.86308 0.0
C1335 C 0.55797 0.46082 0.83979 0.0
C1336 C 0.50362 0.47325 0.92501 0.0
C1337 C 0.51379 0.49722 0.94048 0.0
C1338 C 0.51389 0.46982 0.90133 0.0
C1339 C 0.53453 0.49033 0.89256 0.0
C1340 C 0.54438 0.51444 0.90784 0.0
C1341 C 0.53404 0.51784 0.93147 0.0
H1342 H 0.57516 0.1075 0.85376 0.0
H1343 H 0.51174 0.05109 0.80084 0.0
H1344 H 0.56309 0.08015 0.89214 0.0
H1345 H 0.49938 0.0243 0.83962 0.0
H1346 H 0.47078 0.01581 0.92916 0.0
H1347 H 0.48671 0.03612 0.88688 0.0
H1348 H 0.55156 0.03367 0.90703 0.0
H1349 H 0.53488 0.01189 0.94891 0.0
C1350 C 0.55903 0.089 0.84999 0.0
C1351 C 0.54421 0.08168 0.82433 0.0
C1352 C 0.5521 0.0734 0.87204 0.0
C1353 C 0.53016 0.05034 0.8689 0.0
C1354 C 0.51624 0.04218 0.84265 0.0
C1355 C 0.52328 0.05758 0.82053 0.0
C1356 C 0.48832 0.01931 0.92445 0.0
C1357 C 0.50187 0.01282 0.94265 0.0
C1358 C 0.4974 0.03087 0.9002 0.0
C1359 C 0.52035 0.03645 0.89374 0.0
C1360 C 0.53388 0.02971 0.91171 0.0
C1361 C 0.52451 0.01759 0.93578 0.0
H1362 H 0.12307 0.23339 0.51541 0.0
H1363 H 0.12116 0.2968 0.55838 0.0
H1364 H 0.14364 0.25969 0.47855 0.0
H1365 H 0.14093 0.32276 0.52057 0.0
H1366 H 0.15037 0.3465 0.42754 0.0
H1367 H 0.13102 0.32227 0.46683 0.0
H1368 H 0.18443 0.29946 0.47502 0.0
H1369 H 0.2037 0.32366 0.43586 0.0
C1370 C 0.12724 0.253 0.51725 0.0
C1371 C 0.1206 0.26297 0.54018 0.0
C1372 C 0.13891 0.26801 0.49597 0.0
C1373 C 0.14394 0.29327 0.49677 0.0
C1374 C 0.1371 0.30326 0.51937 0.0
C1375 C 0.1257 0.28834 0.54095 0.0
C1376 C 0.15794 0.33634 0.43786 0.0
C1377 C 0.1784 0.33681 0.4287 0.0
C1378 C 0.147 0.32266 0.46041 0.0
C1379 C 0.15621 0.30896 0.47391 0.0
C1380 C 0.17687 0.30972 0.46487 0.0
C1381 C 0.18798 0.32369 0.44264 0.0
H1382 H 0.78124 0.84672 0.53858 0.0
H1383 H 0.74608 0.88306 0.57801 0.0
H1384 H 0.75692 0.839 0.49417 0.0
H1385 H 0.72093 0.87453 0.53383 0.0
H1386 H 0.69609 0.87737 0.44297 0.0
H1387 H 0.72063 0.8859 0.48765 0.0
H1388 H 0.71807 0.81394 0.4711 0.0
H1389 H 0.69433 0.80621 0.42597 0.0
C1390 C 0.76809 0.85283 0.53776 0.0
C1391 C 0.76548 0.86541 0.56176 0.0
C1392 C 0.75401 0.84828 0.51233 0.0
C1393 C 0.73672 0.85591 0.51029 0.0
C1394 C 0.73425 0.86866 0.53437 0.0
C1395 C 0.74858 0.8735 0.55976 0.0
C1396 C 0.7008 0.86344 0.4491 0.0
C1397 C 0.69354 0.84123 0.43121 0.0
C1398 C 0.71474 0.8682 0.47474 0.0
C1399 C 0.72148 0.85066 0.48315 0.0
C1400 C 0.71373 0.82817 0.46519 0.0
C1401 C 0.70003 0.82361 0.43939 0.0
H1402 H 0.1638 0.93895 0.52964 0.0
H1403 H 0.14164 0.86627 0.56071 0.0
H1404 H 0.17408 0.92495 0.48647 0.0
H1405 H 0.15305 0.85231 0.51786 0.0
H1406 H 0.16129 0.82992 0.42675 0.0
H1407 H 0.14554 0.84085 0.46755 0.0
H1408 H 0.20508 0.91811 0.47374 0.0
H1409 H 0.21961 0.90751 0.4323 0.0
C1410 C 0.16122 0.91992 0.5271 0.0
C1411 C 0.15221 0.90373 0.54842 0.0
C1412 C 0.16725 0.91192 0.5025 0.0
C1413 C 0.16487 0.88765 0.49884 0.0
C1414 C 0.15503 0.87107 0.51988 0.0
C1415 C 0.14862 0.87903 0.54445 0.0
C1416 C 0.17059 0.84932 0.43658 0.0
C1417 C 0.19129 0.86802 0.42602 0.0
C1418 C 0.16182 0.85552 0.46019 0.0
C1419 C 0.17383 0.88048 0.4738 0.0
C1420 C 0.19492 0.89889 0.46344 0.0
C1421 C 0.20345 0.89275 0.43983 0.0
H1422 H 0.6132 0.82336 0.13151 0.0
H1423 H 0.57147 0.75053 0.16324 0.0
H1424 H 0.63848 0.84003 0.17701 0.0
H1425 H 0.59626 0.76707 0.20844 0.0
H1426 H 0.62912 0.81065 0.29387 0.0
H1427 H 0.6047 0.80096 0.24899 0.0
H1428 H 0.66831 0.82914 0.20504 0.0
H1429 H 0.69295 0.83889 0.25025 0.0
C1430 C 0.60937 0.81106 0.1483 0.0
C1431 C 0.59054 0.78567 0.14396 0.0
C1432 C 0.62382 0.82051 0.17418 0.0
C1433 C 0.61925 0.80484 0.19623 0.0
C1434 C 0.60006 0.77965 0.19193 0.0
C1435 C 0.58597 0.77014 0.16605 0.0
C1436 C 0.63799 0.81518 0.27472 0.0
C1437 C 0.66294 0.82538 0.27551 0.0
C1438 C 0.62398 0.80953 0.24902 0.0
C1439 C 0.6346 0.81412 0.22355 0.0
C1440 C 0.6597 0.82553 0.2244 0.0
C1441 C 0.67375 0.83098 0.25019 0.0
H1442 H 0.26379 0.85094 0.16794 0.0
H1443 H 0.19105 0.80654 0.12808 0.0
H1444 H 0.24899 0.85911 0.2107 0.0
H1445 H 0.17612 0.8142 0.17156 0.0
H1446 H 0.16162 0.8516 0.25139 0.0
H1447 H 0.17598 0.84863 0.20532 0.0
H1448 H 0.22645 0.83056 0.24591 0.0
H1449 H 0.21205 0.83302 0.29101 0.0
C1450 C 0.24463 0.84319 0.16813 0.0
C1451 C 0.22862 0.82807 0.14451 0.0
C1452 C 0.23613 0.84772 0.19278 0.0
C1453 C 0.21137 0.8372 0.19458 0.0
C1454 C 0.19531 0.82271 0.17074 0.0
C1455 C 0.20384 0.81809 0.14599 0.0
C1456 C 0.17591 0.84723 0.25032 0.0
C1457 C 0.18604 0.84305 0.27488 0.0
C1458 C 0.18404 0.84541 0.22403 0.0
C1459 C 0.20255 0.83965 0.22205 0.0
C1460 C 0.21256 0.83559 0.24673 0.0
C1461 C 0.20433 0.8371 0.27268 0.0
H1462 H 0.20045 0.44583 0.1888 0.0
H1463 H 0.22164 0.39563 0.14915 0.0
H1464 H 0.19084 0.42182 0.2298 0.0
H1465 H 0.21123 0.37073 0.1901 0.0
H1466 H 0.20291 0.34252 0.2802 0.0
H1467 H 0.21935 0.3694 0.24159 0.0
H1468 H 0.15811 0.38041 0.23617 0.0
H1469 H 0.14259 0.35488 0.27505 0.0
C1470 C 0.20319 0.42967 0.18907 0.0
C1471 C 0.21149 0.42231 0.16584 0.0
C1472 C 0.19756 0.41582 0.21242 0.0
C1473 C 0.19975 0.39401 0.21296 0.0
C1474 C 0.20936 0.38744 0.19032 0.0
C1475 C 0.21525 0.40158 0.16691 0.0
C1476 C 0.19331 0.35112 0.27092 0.0
C1477 C 0.17183 0.34716 0.28097 0.0
C1478 C 0.20252 0.3662 0.24865 0.0
C1479 C 0.19025 0.37741 0.23611 0.0
C1480 C 0.16837 0.37266 0.24578 0.0
C1481 C 0.1593 0.35775 0.26789 0.0
H1482 H 0.77954 0.62135 0.88477 0.0
H1483 H 0.78693 0.56182 0.84101 0.0
H1484 H 0.79969 0.64934 0.84863 0.0
H1485 H 0.80746 0.58995 0.80544 0.0
H1486 H 0.86615 0.65596 0.76514 0.0
H1487 H 0.84635 0.62969 0.80263 0.0
H1488 H 0.79282 0.65252 0.79683 0.0
H1489 H 0.81303 0.67922 0.75955 0.0
C1490 C 0.78534 0.61418 0.86743 0.0
C1491 C 0.78175 0.58936 0.86598 0.0
C1492 C 0.79692 0.63023 0.84677 0.0
C1493 C 0.8053 0.62189 0.82433 0.0
C1494 C 0.8016 0.59708 0.82277 0.0
C1495 C 0.78989 0.58099 0.84325 0.0
C1496 C 0.85031 0.65557 0.77212 0.0
C1497 C 0.84093 0.66938 0.75937 0.0
C1498 C 0.83885 0.64037 0.79338 0.0
C1499 C 0.81794 0.63891 0.80254 0.0
C1500 C 0.80897 0.65336 0.79031 0.0
C1501 C 0.82037 0.66843 0.76885 0.0
H1502 H 0.45936 0.23379 0.87201 0.0
H1503 H 0.40285 0.16479 0.89964 0.0
H1504 H 0.43351 0.22786 0.82951 0.0
H1505 H 0.37712 0.15871 0.85685 0.0
H1506 H 0.37153 0.22273 0.7717 0.0
H1507 H 0.39654 0.22856 0.81516 0.0
H1508 H 0.37456 0.14873 0.80529 0.0
H1509 H 0.34915 0.1429 0.7621 0.0
C1510 C 0.44133 0.21751 0.86922 0.0
C1511 C 0.43319 0.19982 0.88938 0.0
C1512 C 0.42653 0.21408 0.84478 0.0
C1513 C 0.40325 0.19282 0.83978 0.0
C1514 C 0.39508 0.17512 0.85989 0.0
C1515 C 0.40984 0.17861 0.88441 0.0
C1516 C 0.37196 0.20643 0.77896 0.0
C1517 C 0.35857 0.1824 0.76352 0.0
C1518 C 0.38642 0.20979 0.8037 0.0
C1519 C 0.38761 0.18913 0.81365 0.0
C1520 C 0.37389 0.16499 0.79834 0.0
C1521 C 0.35951 0.16168 0.77351 0.0
H1522 H 0.8096 0.19241 0.8972 0.0
H1523 H 0.84266 0.26836 0.87149 0.0
H1524 H 0.81726 0.17701 0.85221 0.0
H1525 H 0.84987 0.25304 0.82673 0.0
H1526 H 0.83231 0.21123 0.73879 0.0
H1527 H 0.82108 0.22096 0.78376 0.0
H1528 H 0.8575 0.18742 0.82678 0.0
H1529 H 0.86907 0.17779 0.78146 0.0
C1530 C 0.81843 0.20571 0.8819 0.0
C1531 C 0.8257 0.23155 0.88776 0.0
C1532 C 0.82287 0.19697 0.85634 0.0
C1533 C 0.83407 0.21386 0.83607 0.0
C1534 C 0.84107 0.23961 0.84193 0.0
C1535 C 0.83708 0.24839 0.86756 0.0
C1536 C 0.83769 0.20561 0.75774 0.0
C1537 C 0.85171 0.1939 0.75668 0.0
C1538 C 0.83131 0.21126 0.78347 0.0
C1539 C 0.83857 0.20507 0.80868 0.0
C1540 C 0.85162 0.19227 0.80757 0.0
C1541 C 0.85831 0.18689 0.78174 0.0
H1542 H 0.24062 0.13066 0.49601 0.0
H1543 H 0.29372 0.11617 0.46194 0.0
H1544 H 0.26494 0.14577 0.54193 0.0
H1545 H 0.31741 0.13048 0.50783 0.0
H1546 H 0.32455 0.1135 0.60056 0.0
H1547 H 0.30392 0.10712 0.55384 0.0
H1548 H 0.31001 0.18084 0.56748 0.0
H1549 H 0.33191 0.18784 0.61425 0.0
C1550 C 0.25768 0.13122 0.49809 0.0
C1551 C 0.26502 0.12177 0.47541 0.0
C1552 C 0.27155 0.13982 0.52438 0.0
C1553 C 0.29284 0.13893 0.52844 0.0
C1554 C 0.30088 0.13101 0.50534 0.0
C1555 C 0.28724 0.12272 0.47912 0.0
C1556 C 0.32164 0.12846 0.59364 0.0
C1557 C 0.32954 0.15104 0.61123 0.0
C1558 C 0.30985 0.12479 0.56686 0.0
C1559 C 0.30542 0.14349 0.55707 0.0
C1560 C 0.31309 0.16607 0.57467 0.0
C1561 C 0.3254 0.16997 0.60144 0.0
H1562 H 0.93411 0.17532 0.50449 0.0
H1563 H 0.86307 0.1342 0.45961 0.0
H1564 H 0.91771 0.18414 0.54557 0.0
H1565 H 0.84653 0.14289 0.50112 0.0
H1566 H 0.83274 0.18676 0.57596 0.0
H1567 H 0.84842 0.18056 0.53222 0.0
H1568 H 0.89055 0.15544 0.57947 0.0
H1569 H 0.87462 0.16093 0.62249 0.0
C1570 C 0.91501 0.16844 0.50328 0.0
C1571 C 0.89988 0.15411 0.47879 0.0
C1572 C 0.9056 0.17333 0.52688 0.0
C1573 C 0.88084 0.16415 0.52654 0.0
C1574 C 0.86571 0.15035 0.50186 0.0
C1575 C 0.87513 0.1452 0.47825 0.0
C1576 C 0.84539 0.17997 0.57687 0.0
C1577 C 0.85283 0.17482 0.6027 0.0
C1578 C 0.85427 0.17634 0.55191 0.0
C1579 C 0.8709 0.16779 0.55254 0.0
C1580 C 0.87811 0.1625 0.57839 0.0
C1581 C 0.86903 0.16576 0.60308 0.0
H1582 H 0.83749 0.70992 0.46611 0.0
H1583 H 0.90393 0.76773 0.51298 0.0
H1584 H 0.82654 0.68648 0.50756 0.0
H1585 H 0.8932 0.74354 0.55416 0.0
H1586 H 0.86608 0.67589 0.61392 0.0
H1587 H 0.88124 0.69676 0.57103 0.0
H1588 H 0.81741 0.7021 0.55575 0.0
H1589 H 0.80309 0.68281 0.59905 0.0
C1590 C 0.84991 0.71751 0.48511 0.0
C1591 C 0.87141 0.74099 0.48629 0.0
C1592 C 0.84367 0.70398 0.50877 0.0
C1593 C 0.85893 0.71335 0.53406 0.0
C1594 C 0.88118 0.73588 0.53482 0.0
C1595 C 0.88732 0.74966 0.51119 0.0
C1596 C 0.85569 0.68216 0.60173 0.0
C1597 C 0.83377 0.6784 0.61019 0.0
C1598 C 0.86419 0.69377 0.57709 0.0
C1599 C 0.85045 0.70097 0.56014 0.0
C1600 C 0.82827 0.69655 0.56832 0.0
C1601 C 0.82009 0.68552 0.59311 0.0
loop_
_geom_bond_atom_site_label_1
_geom_bond_atom_site_label_2
_geom_bond_distance
_geom_bond_site_symmetry_2
_ccdc_geom_bond_type
H0 C1 0.949 . S
C1 H0 0.949 . S
C1 C2 1.395 . S
C1 C3 1.391 . S
C2 C1 1.395 . S
C2 C5 1.390 . S
C3 C1 1.391 . S
C3 C7 1.387 . S
C3 C8 1.491 . S
H4 C5 0.950 . S
C5 C2 1.390 . S
C5 H4 0.950 . S
C5 C6 1.378 . S
C6 C5 1.378 . S
C6 C7 1.409 . S
C7 C3 1.387 . S
C7 C6 1.409 . S
C7 H9 0.951 . S
C8 C3 1.491 . S
C8 C10 1.382 . S
C8 C12 1.404 . S
H9 C7 0.951 . S
C10 C8 1.382 . S
C10 C11 1.390 . S
C10 H15 0.949 . S
C11 C10 1.390 . S
C11 C16 1.399 . S
C12 C8 1.404 . S
C12 H13 0.950 . S
C12 C14 1.375 . S
H13 C12 0.950 . S
C14 C12 1.375 . S
C14 C16 1.382 . S
C14 H18 0.950 . S
H15 C10 0.949 . S
C16 C11 1.399 . S
C16 C14 1.382 . S
C16 H17 0.952 . S
H17 C16 0.952 . S
H18 C14 0.950 . S
H19 C20 0.949 . S
C20 H19 0.949 . S
C20 C21 1.395 . S
C20 C22 1.391 . S
C21 C20 1.395 . S
C21 C24 1.390 . S
C22 C20 1.391 . S
C22 C26 1.387 . S
C22 C27 1.491 . S
H23 C24 0.950 . S
C24 C21 1.390 . S
C24 H23 0.950 . S
C24 C25 1.378 . S
C25 C24 1.378 . S
C25 C26 1.409 . S
C26 C22 1.387 . S
C26 C25 1.409 . S
C26 H28 0.951 . S
C27 C22 1.491 . S
C27 C29 1.382 . S
C27 C31 1.404 . S
H28 C26 0.951 . S
C29 C27 1.382 . S
C29 C30 1.390 . S
C29 H34 0.949 . S
C30 C29 1.390 . S
C30 C35 1.399 . S
C31 C27 1.404 . S
C31 H32 0.950 . S
C31 C33 1.375 . S
H32 C31 0.950 . S
C33 C31 1.375 . S
C33 C35 1.382 . S
C33 H37 0.950 . S
H34 C29 0.949 . S
C35 C30 1.399 . S
C35 C33 1.382 . S
C35 H36 0.952 . S
H36 C35 0.952 . S
H37 C33 0.950 . S
H38 C39 0.949 . S
C39 H38 0.949 . S
C39 C40 1.395 . S
C39 C41 1.391 . S
C40 C39 1.395 . S
C40 C43 1.390 . S
C41 C39 1.391 . S
C41 C45 1.387 . S
C41 C46 1.491 . S
H42 C43 0.950 . S
C43 C40 1.390 . S
C43 H42 0.950 . S
C43 C44 1.378 . S
C44 C43 1.378 . S
C44 C45 1.409 . S
C45 C41 1.387 . S
C45 C44 1.409 . S
C45 H47 0.951 . S
C46 C41 1.491 . S
C46 C48 1.382 . S
C46 C50 1.404 . S
H47 C45 0.951 . S
C48 C46 1.382 . S
C48 C49 1.390 . S
C48 H53 0.949 . S
C49 C48 1.390 . S
C49 C54 1.399 . S
C50 C46 1.404 . S
C50 H51 0.950 . S
C50 C52 1.375 . S
H51 C50 0.950 . S
C52 C50 1.375 . S
C52 C54 1.382 . S
C52 H56 0.950 . S
H53 C48 0.949 . S
C54 C49 1.399 . S
C54 C52 1.382 . S
C54 H55 0.952 . S
H55 C54 0.952 . S
H56 C52 0.950 . S
H57 C58 0.949 . S
C58 H57 0.949 . S
C58 C59 1.395 . S
C58 C60 1.391 . S
C59 C58 1.395 . S
C59 C62 1.390 . S
C60 C58 1.391 . S
C60 C64 1.387 . S
C60 C65 1.491 . S
H61 C62 0.950 . S
C62 C59 1.390 . S
C62 H61 0.950 . S
C62 C63 1.378 . S
C63 C62 1.378 . S
C63 C64 1.409 . S
C64 C60 1.387 . S
C64 C63 1.409 . S
C64 H66 0.951 . S
C65 C60 1.491 . S
C65 C67 1.382 . S
C65 C69 1.404 . S
H66 C64 0.951 . S
C67 C65 1.382 . S
C67 C68 1.390 . S
C67 H72 0.949 . S
C68 C67 1.390 . S
C68 C73 1.399 . S
C69 C65 1.404 . S
C69 H70 0.950 . S
C69 C71 1.375 . S
H70 C69 0.950 . S
C71 C69 1.375 . S
C71 C73 1.382 . S
C71 H75 0.950 . S
H72 C67 0.949 . S
C73 C68 1.399 . S
C73 C71 1.382 . S
C73 H74 0.952 . S
H74 C73 0.952 . S
H75 C71 0.950 . S
H76 C77 0.949 . S
C77 H76 0.949 . S
C77 C78 1.395 . S
C77 C79 1.391 . S
C78 C77 1.395 . S
C78 C81 1.390 . S
C79 C77 1.391 . S
C79 C83 1.387 . S
C79 C84 1.491 . S
H80 C81 0.950 . S
C81 C78 1.390 . S
C81 H80 0.950 . S
C81 C82 1.378 . S
C82 C81 1.378 . S
C82 C83 1.409 . S
C83 C79 1.387 . S
C83 C82 1.409 . S
C83 H85 0.951 . S
C84 C79 1.491 . S
C84 C86 1.382 . S
C84 C88 1.404 . S
H85 C83 0.951 . S
C86 C84 1.382 . S
C86 C87 1.390 . S
C86 H91 0.949 . S
C87 C86 1.390 . S
C87 C92 1.399 . S
C88 C84 1.404 . S
C88 H89 0.950 . S
C88 C90 1.375 . S
H89 C88 0.950 . S
C90 C88 1.375 . S
C90 C92 1.382 . S
C90 H94 0.950 . S
H91 C86 0.949 . S
C92 C87 1.399 . S
C92 C90 1.382 . S
C92 H93 0.952 . S
H93 C92 0.952 . S
H94 C90 0.950 . S
H95 C96 0.949 . S
C96 H95 0.949 . S
C96 C97 1.395 . S
C96 C98 1.391 . S
C97 C96 1.395 . S
C97 C100 1.390 . S
C98 C96 1.391 . S
C98 C102 1.387 . S
C98 C103 1.491 . S
H99 C100 0.950 . S
C100 C97 1.390 . S
C100 H99 0.950 . S
C100 C101 1.378 . S
C101 C100 1.378 . S
C101 C102 1.409 . S
C102 C98 1.387 . S
C102 C101 1.409 . S
C102 H104 0.951 . S
C103 C98 1.491 . S
C103 C105 1.382 . S
C103 C107 1.404 . S
H104 C102 0.951 . S
C105 C103 1.382 . S
C105 C106 1.390 . S
C105 H110 0.949 . S
C106 C105 1.390 . S
C106 C111 1.399 . S
C107 C103 1.404 . S
C107 H108 0.950 . S
C107 C109 1.375 . S
H108 C107 0.950 . S
C109 C107 1.375 . S
C109 C111 1.382 . S
C109 H113 0.950 . S
H110 C105 0.949 . S
C111 C106 1.399 . S
C111 C109 1.382 . S
C111 H112 0.952 . S
H112 C111 0.952 . S
H113 C109 0.950 . S
H114 C115 0.949 . S
C115 H114 0.949 . S
C115 C116 1.395 . S
C115 C117 1.391 . S
C116 C115 1.395 . S
C116 C119 1.390 . S
C117 C115 1.391 . S
C117 C121 1.387 . S
C117 C122 1.491 . S
H118 C119 0.950 . S
C119 C116 1.390 . S
C119 H118 0.950 . S
C119 C120 1.378 . S
C120 C119 1.378 . S
C120 C121 1.409 . S
C121 C117 1.387 . S
C121 C120 1.409 . S
C121 H123 0.951 . S
C122 C117 1.491 . S
C122 C124 1.382 . S
C122 C126 1.404 . S
H123 C121 0.951 . S
C124 C122 1.382 . S
C124 C125 1.390 . S
C124 H129 0.949 . S
C125 C124 1.390 . S
C125 C130 1.399 . S
C126 C122 1.404 . S
C126 H127 0.950 . S
C126 C128 1.375 . S
H127 C126 0.950 . S
C128 C126 1.375 . S
C128 C130 1.382 . S
C128 H132 0.950 . S
H129 C124 0.949 . S
C130 C125 1.399 . S
C130 C128 1.382 . S
C130 H131 0.952 . S
H131 C130 0.952 . S
H132 C128 0.950 . S
H133 C134 0.949 . S
C134 H133 0.949 . S
C134 C135 1.395 . S
C134 C136 1.391 . S
C135 C134 1.395 . S
C135 C138 1.390 . S
C136 C134 1.391 . S
C136 C140 1.387 . S
C136 C141 1.491 . S
H137 C138 0.950 . S
C138 C135 1.390 . S
C138 H137 0.950 . S
C138 C139 1.378 . S
C139 C138 1.378 . S
C139 C140 1.409 . S
C140 C136 1.387 . S
C140 C139 1.409 . S
C140 H142 0.951 . S
C141 C136 1.491 . S
C141 C143 1.382 . S
C141 C145 1.404 . S
H142 C140 0.951 . S
C143 C141 1.382 . S
C143 C144 1.390 . S
C143 H148 0.949 . S
C144 C143 1.390 . S
C144 C149 1.399 . S
C145 C141 1.404 . S
C145 H146 0.950 . S
C145 C147 1.375 . S
H146 C145 0.950 . S
C147 C145 1.375 . S
C147 C149 1.382 . S
C147 H151 0.950 . S
H148 C143 0.949 . S
C149 C144 1.399 . S
C149 C147 1.382 . S
C149 H150 0.952 . S
H150 C149 0.952 . S
H151 C147 0.950 . S
H152 C153 0.949 . S
C153 H152 0.949 . S
C153 C154 1.395 . S
C153 C155 1.391 . S
C154 C153 1.395 . S
C154 C157 1.390 . S
C155 C153 1.391 . S
C155 C159 1.387 . S
C155 C160 1.491 . S
H156 C157 0.950 . S
C157 C154 1.390 . S
C157 H156 0.950 . S
C157 C158 1.378 . S
C158 C157 1.378 . S
C158 C159 1.409 . S
C159 C155 1.387 . S
C159 C158 1.409 . S
C159 H161 0.951 . S
C160 C155 1.491 . S
C160 C162 1.382 . S
C160 C164 1.404 . S
H161 C159 0.951 . S
C162 C160 1.382 . S
C162 C163 1.390 . S
C162 H167 0.949 . S
C163 C162 1.390 . S
C163 C168 1.399 . S
C164 C160 1.404 . S
C164 H165 0.950 . S
C164 C166 1.375 . S
H165 C164 0.950 . S
C166 C164 1.375 . S
C166 C168 1.382 . S
C166 H170 0.950 . S
H167 C162 0.949 . S
C168 C163 1.399 . S
C168 C166 1.382 . S
C168 H169 0.952 . S
H169 C168 0.952 . S
H170 C166 0.950 . S
H171 C172 0.949 . S
C172 H171 0.949 . S
C172 C173 1.395 . S
C172 C174 1.391 . S
C173 C172 1.395 . S
C173 C176 1.390 . S
C174 C172 1.391 . S
C174 C178 1.387 . S
C174 C179 1.491 . S
H175 C176 0.950 . S
C176 C173 1.390 . S
C176 H175 0.950 . S
C176 C177 1.378 . S
C177 C176 1.378 . S
C177 C178 1.409 . S
C178 C174 1.387 . S
C178 C177 1.409 . S
C178 H180 0.951 . S
C179 C174 1.491 . S
C179 C181 1.382 . S
C179 C183 1.404 . S
H180 C178 0.951 . S
C181 C179 1.382 . S
C181 C182 1.390 . S
C181 H186 0.949 . S
C182 C181 1.390 . S
C182 C187 1.399 . S
C183 C179 1.404 . S
C183 H184 0.950 . S
C183 C185 1.375 . S
H184 C183 0.950 . S
C185 C183 1.375 . S
C185 C187 1.382 . S
C185 H189 0.950 . S
H186 C181 0.949 . S
C187 C182 1.399 . S
C187 C185 1.382 . S
C187 H188 0.952 . S
H188 C187 0.952 . S
H189 C185 0.950 . S
H190 C191 0.949 . S
C191 H190 0.949 . S
C191 C192 1.395 . S
C191 C193 1.391 . S
C192 C191 1.395 . S
C192 C195 1.390 . S
C193 C191 1.391 . S
C193 C197 1.387 . S
C193 C198 1.491 . S
H194 C195 0.950 . S
C195 C192 1.390 . S
C195 H194 0.950 . S
C195 C196 1.378 . S
C196 C195 1.378 . S
C196 C197 1.409 . S
C197 C193 1.387 . S
C197 C196 1.409 . S
C197 H199 0.951 1_556 S
C198 C193 1.491 . S
C198 C200 1.382 . S
C198 C202 1.404 1_556 S
H199 C197 0.951 1_554 S
C200 C198 1.382 . S
C200 C201 1.390 1_556 S
C200 H205 0.949 . S
C201 C200 1.390 1_554 S
C201 C206 1.399 . S
C202 C198 1.404 1_554 S
C202 H203 0.950 . S
C202 C204 1.375 . S
H203 C202 0.950 . S
C204 C202 1.375 . S
C204 C206 1.382 . S
C204 H208 0.950 . S
H205 C200 0.949 . S
C206 C201 1.399 . S
C206 C204 1.382 . S
C206 H207 0.952 . S
H207 C206 0.952 . S
H208 C204 0.950 . S
H209 C210 0.949 . S
C210 H209 0.949 . S
C210 C211 1.395 . S
C210 C212 1.391 . S
C211 C210 1.395 . S
C211 C214 1.390 . S
C212 C210 1.391 . S
C212 C216 1.387 . S
C212 C217 1.491 . S
H213 C214 0.950 . S
C214 C211 1.390 . S
C214 H213 0.950 . S
C214 C215 1.378 . S
C215 C214 1.378 . S
C215 C216 1.409 . S
C216 C212 1.387 . S
C216 C215 1.409 . S
C216 H218 0.951 . S
C217 C212 1.491 . S
C217 C219 1.382 . S
C217 C221 1.404 . S
H218 C216 0.951 . S
C219 C217 1.382 . S
C219 C220 1.390 . S
C219 H224 0.949 . S
C220 C219 1.390 . S
C220 C225 1.399 . S
C221 C217 1.404 . S
C221 H222 0.950 . S
C221 C223 1.375 . S
H222 C221 0.950 . S
C223 C221 1.375 . S
C223 C225 1.382 . S
C223 H227 0.950 . S
H224 C219 0.949 . S
C225 C220 1.399 . S
C225 C223 1.382 . S
C225 H226 0.952 . S
H226 C225 0.952 . S
H227 C223 0.950 . S
H228 C229 0.949 . S
C229 H228 0.949 . S
C229 C230 1.395 . S
C229 C231 1.391 . S
C230 C229 1.395 . S
C230 C233 1.390 . S
C231 C229 1.391 . S
C231 C235 1.387 . S
C231 C236 1.491 . S
H232 C233 0.950 . S
C233 C230 1.390 . S
C233 H232 0.950 . S
C233 C234 1.378 . S
C234 C233 1.378 . S
C234 C235 1.409 . S
C235 C231 1.387 . S
C235 C234 1.409 . S
C235 H237 0.951 . S
C236 C231 1.491 . S
C236 C238 1.382 . S
C236 C240 1.404 . S
H237 C235 0.951 . S
C238 C236 1.382 . S
C238 C239 1.390 . S
C238 H243 0.949 . S
C239 C238 1.390 . S
C239 C244 1.399 . S
C240 C236 1.404 . S
C240 H241 0.950 . S
C240 C242 1.375 . S
H241 C240 0.950 . S
C242 C240 1.375 . S
C242 C244 1.382 . S
C242 H246 0.950 . S
H243 C238 0.949 . S
C244 C239 1.399 . S
C244 C242 1.382 . S
C244 H245 0.952 . S
H245 C244 0.952 . S
H246 C242 0.950 . S
H247 C248 0.949 . S
C248 H247 0.949 . S
C248 C249 1.395 . S
C248 C250 1.391 . S
C249 C248 1.395 . S
C249 C252 1.390 . S
C250 C248 1.391 . S
C250 C254 1.387 . S
C250 C255 1.491 . S
H251 C252 0.950 . S
C252 C249 1.390 . S
C252 H251 0.950 . S
C252 C253 1.378 . S
C253 C252 1.378 . S
C253 C254 1.409 . S
C254 C250 1.387 . S
C254 C253 1.409 . S
C254 H256 0.951 . S
C255 C250 1.491 . S
C255 C257 1.382 . S
C255 C259 1.404 . S
H256 C254 0.951 . S
C257 C255 1.382 . S
C257 C258 1.390 . S
C257 H262 0.949 . S
C258 C257 1.390 . S
C258 C263 1.399 . S
C259 C255 1.404 . S
C259 H260 0.950 . S
C259 C261 1.375 . S
H260 C259 0.950 . S
C261 C259 1.375 . S
C261 C263 1.382 . S
C261 H265 0.950 . S
H262 C257 0.949 . S
C263 C258 1.399 . S
C263 C261 1.382 . S
C263 H264 0.952 . S
H264 C263 0.952 . S
H265 C261 0.950 . S
H266 C267 0.949 . S
C267 H266 0.949 . S
C267 C268 1.395 . S
C267 C269 1.391 . S
C268 C267 1.395 . S
C268 C271 1.390 . S
C269 C267 1.391 . S
C269 C273 1.387 . S
C269 C274 1.491 . S
H270 C271 0.950 . S
C271 C268 1.390 . S
C271 H270 0.950 . S
C271 C272 1.378 . S
C272 C271 1.378 . S
C272 C273 1.409 . S
C273 C269 1.387 . S
C273 C272 1.409 . S
C273 H275 0.951 . S
C274 C269 1.491 . S
C274 C276 1.382 . S
C274 C278 1.404 . S
H275 C273 0.951 . S
C276 C274 1.382 . S
C276 C277 1.390 . S
C276 H281 0.949 . S
C277 C276 1.390 . S
C277 C282 1.399 . S
C278 C274 1.404 . S
C278 H279 0.950 . S
C278 C280 1.375 . S
H279 C278 0.950 . S
C280 C278 1.375 . S
C280 C282 1.382 . S
C280 H284 0.950 . S
H281 C276 0.949 . S
C282 C277 1.399 . S
C282 C280 1.382 . S
C282 H283 0.952 . S
H283 C282 0.952 . S
H284 C280 0.950 . S
H285 C286 0.949 . S
C286 H285 0.949 . S
C286 C287 1.395 . S
C286 C288 1.391 . S
C287 C286 1.395 . S
C287 C290 1.390 . S
C288 C286 1.391 . S
C288 C292 1.387 . S
C288 C293 1.491 . S
H289 C290 0.950 . S
C290 C287 1.390 . S
C290 H289 0.950 . S
C290 C291 1.378 . S
C291 C290 1.378 . S
C291 C292 1.409 . S
C292 C288 1.387 . S
C292 C291 1.409 . S
C292 H294 0.951 . S
C293 C288 1.491 . S
C293 C295 1.382 . S
C293 C297 1.404 . S
H294 C292 0.951 . S
C295 C293 1.382 . S
C295 C296 1.390 . S
C295 H300 0.949 . S
C296 C295 1.390 . S
C296 C301 1.399 . S
C297 C293 1.404 . S
C297 H298 0.950 . S
C297 C299 1.375 . S
H298 C297 0.950 . S
C299 C297 1.375 . S
C299 C301 1.382 . S
C299 H303 0.950 . S
H300 C295 0.949 . S
C301 C296 1.399 . S
C301 C299 1.382 . S
C301 H302 0.952 . S
H302 C301 0.952 . S
H303 C299 0.950 . S
H304 C305 0.949 . S
C305 H304 0.949 . S
C305 C306 1.395 . S
C305 C307 1.391 . S
C306 C305 1.395 . S
C306 C309 1.390 . S
C307 C305 1.391 . S
C307 C311 1.387 . S
C307 C312 1.491 . S
H308 C309 0.950 . S
C309 C306 1.390 . S
C309 H308 0.950 . S
C309 C310 1.378 . S
C310 C309 1.378 . S
C310 C311 1.409 . S
C311 C307 1.387 . S
C311 C310 1.409 . S
C311 H313 0.951 . S
C312 C307 1.491 . S
C312 C314 1.382 . S
C312 C316 1.404 . S
H313 C311 0.951 . S
C314 C312 1.382 . S
C314 C315 1.390 . S
C314 H319 0.949 . S
C315 C314 1.390 . S
C315 C320 1.399 . S
C316 C312 1.404 . S
C316 H317 0.950 . S
C316 C318 1.375 . S
H317 C316 0.950 . S
C318 C316 1.375 . S
C318 C320 1.382 . S
C318 H322 0.950 . S
H319 C314 0.949 . S
C320 C315 1.399 . S
C320 C318 1.382 . S
C320 H321 0.952 . S
H321 C320 0.952 . S
H322 C318 0.950 . S
H323 C324 0.949 . S
C324 H323 0.949 . S
C324 C325 1.395 . S
C324 C326 1.391 . S
C325 C324 1.395 . S
C325 C328 1.390 . S
C326 C324 1.391 . S
C326 C330 1.387 . S
C326 C331 1.491 . S
H327 C328 0.950 . S
C328 C325 1.390 . S
C328 H327 0.950 . S
C328 C329 1.378 . S
C329 C328 1.378 . S
C329 C330 1.409 . S
C330 C326 1.387 . S
C330 C329 1.409 . S
C330 H332 0.951 . S
C331 C326 1.491 . S
C331 C333 1.382 . S
C331 C335 1.404 . S
H332 C330 0.951 . S
C333 C331 1.382 . S
C333 C334 1.390 . S
C333 H338 0.949 . S
C334 C333 1.390 . S
C334 C339 1.399 . S
C335 C331 1.404 . S
C335 H336 0.950 . S
C335 C337 1.375 . S
H336 C335 0.950 . S
C337 C335 1.375 . S
C337 C339 1.382 . S
C337 H341 0.950 . S
H338 C333 0.949 . S
C339 C334 1.399 . S
C339 C337 1.382 . S
C339 H340 0.952 . S
H340 C339 0.952 . S
H341 C337 0.950 . S
Tb342 O345 2.453 . S
Tb342 O346 2.596 1_545 S
Tb342 O347 2.374 1_545 S
Tb342 O355 2.343 1_554 S
Tb342 O357 2.353 . S
Tb342 O359 2.427 . S
Tb342 O360 2.513 . S
C343 O347 1.251 . S
C343 O349 1.263 1_554 S
Tb344 O346 2.343 1_556 S
Tb344 O349 2.353 . S
Tb344 O352 2.427 1_556 S
Tb344 O353 2.513 1_556 S
Tb344 O354 2.453 . S
Tb344 O355 2.596 1_565 S
Tb344 O356 2.374 1_566 S
O345 Tb342 2.453 . S
O345 C361 1.245 1_545 S
O346 Tb342 2.596 1_565 S
O346 Tb344 2.343 1_554 S
O346 C361 1.259 . S
O347 Tb342 2.374 1_565 S
O347 C343 1.251 . S
C348 O352 1.275 . S
C348 O353 1.246 . S
O349 C343 1.263 1_556 S
O349 Tb344 2.353 . S
C350 O354 1.245 1_545 S
C350 O355 1.259 . S
C351 O356 1.250 . S
C351 O357 1.263 . S
O352 Tb344 2.427 1_554 S
O352 C348 1.275 . S
O353 Tb344 2.513 1_554 S
O353 C348 1.246 . S
O354 Tb344 2.453 . S
O354 C350 1.245 1_565 S
O355 Tb342 2.343 1_556 S
O355 Tb344 2.596 1_545 S
O355 C350 1.259 . S
O356 Tb344 2.374 1_544 S
O356 C351 1.250 . S
O357 Tb342 2.353 . S
O357 C351 1.263 . S
C358 O359 1.275 . S
C358 O360 1.246 . S
O359 Tb342 2.427 . S
O359 C358 1.275 . S
O360 Tb342 2.513 . S
O360 C358 1.246 . S
C361 O345 1.245 1_565 S
C361 O346 1.259 . S
Tb362 O365 2.453 . S
Tb362 O366 2.596 1_655 S
Tb362 O367 2.374 1_655 S
Tb362 O375 2.343 1_554 S
Tb362 O377 2.353 . S
Tb362 O379 2.427 . S
Tb362 O380 2.513 1_554 S
C363 O367 1.251 . S
C363 O369 1.258 1_554 S
Tb364 O366 2.343 1_556 S
Tb364 O369 2.354 . S
Tb364 O372 2.427 1_556 S
Tb364 O373 2.513 1_556 S
Tb364 O374 2.453 . S
Tb364 O375 2.596 1_455 S
Tb364 O376 2.380 1_455 S
O365 Tb362 2.453 . S
O365 C381 1.245 1_655 S
O366 Tb362 2.596 1_455 S
O366 Tb364 2.343 1_554 S
O366 C381 1.259 . S
O367 Tb362 2.374 1_455 S
O367 C363 1.251 . S
C368 O372 1.275 . S
C368 O373 1.246 . S
O369 C363 1.258 1_556 S
O369 Tb364 2.354 . S
C370 O374 1.245 1_655 S
C370 O375 1.259 . S
C371 O376 1.243 1_554 S
C371 O377 1.263 . S
O372 Tb364 2.427 1_554 S
O372 C368 1.275 . S
O373 Tb364 2.513 1_554 S
O373 C368 1.246 . S
O374 Tb364 2.453 . S
O374 C370 1.245 1_455 S
O375 Tb362 2.343 1_556 S
O375 Tb364 2.596 1_655 S
O375 C370 1.259 . S
O376 Tb364 2.380 1_655 S
O376 C371 1.243 1_556 S
O377 Tb362 2.353 . S
O377 C371 1.263 . S
C378 O379 1.275 1_556 S
C378 O380 1.246 . S
O379 Tb362 2.427 . S
O379 C378 1.275 1_554 S
O380 Tb362 2.513 1_556 S
O380 C378 1.246 . S
C381 O365 1.245 1_455 S
C381 O366 1.259 . S
Tb382 O385 2.482 . S
Tb382 O386 2.603 . S
Tb382 O387 2.367 1_556 S
Tb382 O395 2.316 1_556 S
Tb382 O397 2.354 1_556 S
Tb382 O399 2.411 1_556 S
Tb382 O400 2.491 1_556 S
C383 O387 1.251 . S
C383 O389 1.263 . S
Tb384 O386 2.343 1_554 S
Tb384 O389 2.353 . S
Tb384 O392 2.427 . S
Tb384 O393 2.513 . S
Tb384 O394 2.453 . S
Tb384 O395 2.596 . S
Tb384 O396 2.374 . S
O385 Tb382 2.482 . S
O385 C401 1.245 . S
O386 Tb382 2.603 . S
O386 Tb384 2.343 1_556 S
O386 C401 1.259 . S
O387 Tb382 2.367 1_554 S
O387 C383 1.251 . S
C388 O392 1.292 . S
C388 O393 1.250 . S
O389 C383 1.263 . S
O389 Tb384 2.353 . S
C390 O394 1.245 . S
C390 O395 1.259 . S
C391 O396 1.250 . S
C391 O397 1.263 . S
O392 Tb384 2.427 . S
O392 C388 1.292 . S
O393 Tb384 2.513 . S
O393 C388 1.250 . S
O394 Tb384 2.453 . S
O394 C390 1.245 . S
O395 Tb382 2.316 1_554 S
O395 Tb384 2.596 . S
O395 C390 1.259 . S
O396 Tb384 2.374 . S
O396 C391 1.250 . S
O397 Tb382 2.354 1_554 S
O397 C391 1.263 . S
C398 O399 1.275 . S
C398 O400 1.246 . S
O399 Tb382 2.411 1_554 S
O399 C398 1.275 . S
O400 Tb382 2.491 1_554 S
O400 C398 1.246 . S
C401 O385 1.245 . S
C401 O386 1.259 . S
Tb402 O405 2.453 . S
Tb402 O406 2.596 . S
Tb402 O407 2.374 . S
Tb402 O415 2.343 . S
Tb402 O417 2.353 . S
Tb402 O419 2.427 . S
Tb402 O420 2.513 . S
C403 O407 1.251 . S
C403 O409 1.263 . S
Tb404 O406 2.343 . S
Tb404 O409 2.353 . S
Tb404 O412 2.427 . S
Tb404 O413 2.513 . S
Tb404 O414 2.453 . S
Tb404 O415 2.596 . S
Tb404 O416 2.374 . S
O405 Tb402 2.453 . S
O405 C421 1.245 . S
O406 Tb402 2.596 . S
O406 Tb404 2.343 . S
O406 C421 1.259 . S
O407 Tb402 2.374 . S
O407 C403 1.251 . S
C408 O412 1.275 . S
C408 O413 1.246 . S
O409 C403 1.263 . S
O409 Tb404 2.353 . S
C410 O414 1.245 . S
C410 O415 1.259 . S
C411 O416 1.250 . S
C411 O417 1.263 . S
O412 Tb404 2.427 . S
O412 C408 1.275 . S
O413 Tb404 2.513 . S
O413 C408 1.246 . S
O414 Tb404 2.453 . S
O414 C410 1.245 . S
O415 Tb402 2.343 . S
O415 Tb404 2.596 . S
O415 C410 1.259 . S
O416 Tb404 2.374 . S
O416 C411 1.250 . S
O417 Tb402 2.353 . S
O417 C411 1.263 . S
C418 O419 1.275 . S
C418 O420 1.246 . S
O419 Tb402 2.427 . S
O419 C418 1.275 . S
O420 Tb402 2.513 . S
O420 C418 1.246 . S
C421 O405 1.245 . S
C421 O406 1.259 . S
Tb422 O425 2.453 . S
Tb422 O426 2.596 . S
Tb422 O427 2.374 . S
Tb422 O435 2.343 . S
Tb422 O437 2.353 . S
Tb422 O439 2.427 . S
Tb422 O440 2.513 . S
C423 O427 1.251 . S
C423 O429 1.263 . S
Tb424 O426 2.343 . S
Tb424 O429 2.353 . S
Tb424 O432 2.427 . S
Tb424 O433 2.513 . S
Tb424 O434 2.453 . S
Tb424 O435 2.596 . S
Tb424 O436 2.374 . S
O425 Tb422 2.453 . S
O425 C441 1.245 . S
O426 Tb422 2.596 . S
O426 Tb424 2.343 . S
O426 C441 1.259 . S
O427 Tb422 2.374 . S
O427 C423 1.251 . S
C428 O432 1.275 . S
C428 O433 1.246 . S
O429 C423 1.263 . S
O429 Tb424 2.353 . S
C430 O434 1.245 . S
C430 O435 1.259 . S
C431 O436 1.250 . S
C431 O437 1.263 . S
O432 Tb424 2.427 . S
O432 C428 1.275 . S
O433 Tb424 2.513 . S
O433 C428 1.246 . S
O434 Tb424 2.453 . S
O434 C430 1.245 . S
O435 Tb422 2.343 . S
O435 Tb424 2.596 . S
O435 C430 1.259 . S
O436 Tb424 2.374 . S
O436 C431 1.250 . S
O437 Tb422 2.353 . S
O437 C431 1.263 . S
C438 O439 1.275 . S
C438 O440 1.246 . S
O439 Tb422 2.427 . S
O439 C438 1.275 . S
O440 Tb422 2.513 . S
O440 C438 1.246 . S
C441 O425 1.245 . S
C441 O426 1.259 . S
Tb442 O445 2.453 . S
Tb442 O446 2.596 . S
Tb442 O447 2.374 . S
Tb442 O455 2.343 . S
Tb442 O457 2.353 . S
Tb442 O459 2.427 . S
Tb442 O460 2.513 . S
C443 O447 1.251 . S
C443 O449 1.263 . S
Tb444 O446 2.343 . S
Tb444 O449 2.353 . S
Tb444 O452 2.427 . S
Tb444 O453 2.513 . S
Tb444 O454 2.453 . S
Tb444 O455 2.596 . S
Tb444 O456 2.374 . S
O445 Tb442 2.453 . S
O445 C461 1.245 . S
O446 Tb442 2.596 . S
O446 Tb444 2.343 . S
O446 C461 1.259 . S
O447 Tb442 2.374 . S
O447 C443 1.251 . S
C448 O452 1.275 . S
C448 O453 1.246 . S
O449 C443 1.263 . S
O449 Tb444 2.353 . S
C450 O454 1.245 . S
C450 O455 1.259 . S
C451 O456 1.250 . S
C451 O457 1.263 . S
O452 Tb444 2.427 . S
O452 C448 1.275 . S
O453 Tb444 2.513 . S
O453 C448 1.246 . S
O454 Tb444 2.453 . S
O454 C450 1.245 . S
O455 Tb442 2.343 . S
O455 Tb444 2.596 . S
O455 C450 1.259 . S
O456 Tb444 2.374 . S
O456 C451 1.250 . S
O457 Tb442 2.353 . S
O457 C451 1.263 . S
C458 O459 1.275 . S
C458 O460 1.246 . S
O459 Tb442 2.427 . S
O459 C458 1.275 . S
O460 Tb442 2.513 . S
O460 C458 1.246 . S
C461 O445 1.245 . S
C461 O446 1.259 . S
Tb462 O465 2.453 . S
Tb462 O466 2.596 . S
Tb462 O467 2.374 . S
Tb462 O475 2.343 . S
Tb462 O477 2.353 . S
Tb462 O479 2.427 . S
Tb462 O480 2.513 . S
C463 O467 1.251 . S
C463 O469 1.263 . S
Tb464 O466 2.343 . S
Tb464 O469 2.353 . S
Tb464 O472 2.427 . S
Tb464 O473 2.513 . S
Tb464 O474 2.453 . S
Tb464 O475 2.596 . S
Tb464 O476 2.374 . S
O465 Tb462 2.453 . S
O465 C481 1.245 . S
O466 Tb462 2.596 . S
O466 Tb464 2.343 . S
O466 C481 1.259 . S
O467 Tb462 2.374 . S
O467 C463 1.251 . S
C468 O472 1.275 . S
C468 O473 1.246 . S
O469 C463 1.263 . S
O469 Tb464 2.353 . S
C470 O474 1.245 . S
C470 O475 1.259 . S
C471 O476 1.250 . S
C471 O477 1.263 . S
O472 Tb464 2.427 . S
O472 C468 1.275 . S
O473 Tb464 2.513 . S
O473 C468 1.246 . S
O474 Tb464 2.453 . S
O474 C470 1.245 . S
O475 Tb462 2.343 . S
O475 Tb464 2.596 . S
O475 C470 1.259 . S
O476 Tb464 2.374 . S
O476 C471 1.250 . S
O477 Tb462 2.353 . S
O477 C471 1.263 . S
C478 O479 1.275 . S
C478 O480 1.246 . S
O479 Tb462 2.427 . S
O479 C478 1.275 . S
O480 Tb462 2.513 . S
O480 C478 1.246 . S
C481 O465 1.245 . S
C481 O466 1.259 . S
Tb482 O485 2.453 . S
Tb482 O486 2.596 . S
Tb482 O487 2.374 . S
Tb482 O495 2.343 . S
Tb482 O497 2.353 . S
Tb482 O499 2.427 . S
Tb482 O500 2.513 . S
C483 O487 1.251 . S
C483 O489 1.263 . S
Tb484 O486 2.343 . S
Tb484 O489 2.353 . S
Tb484 O492 2.427 . S
Tb484 O493 2.513 . S
Tb484 O494 2.453 . S
Tb484 O495 2.596 . S
Tb484 O496 2.374 . S
O485 Tb482 2.453 . S
O485 C501 1.245 . S
O486 Tb482 2.596 . S
O486 Tb484 2.343 . S
O486 C501 1.259 . S
O487 Tb482 2.374 . S
O487 C483 1.251 . S
C488 O492 1.275 . S
C488 O493 1.246 . S
O489 C483 1.263 . S
O489 Tb484 2.353 . S
C490 O494 1.245 . S
C490 O495 1.259 . S
C491 O496 1.250 . S
C491 O497 1.263 . S
O492 Tb484 2.427 . S
O492 C488 1.275 . S
O493 Tb484 2.513 . S
O493 C488 1.246 . S
O494 Tb484 2.453 . S
O494 C490 1.245 . S
O495 Tb482 2.343 . S
O495 Tb484 2.596 . S
O495 C490 1.259 . S
O496 Tb484 2.374 . S
O496 C491 1.250 . S
O497 Tb482 2.353 . S
O497 C491 1.263 . S
C498 O499 1.275 . S
C498 O500 1.246 . S
O499 Tb482 2.427 . S
O499 C498 1.275 . S
O500 Tb482 2.513 . S
O500 C498 1.246 . S
C501 O485 1.245 . S
C501 O486 1.259 . S
Tb502 O505 2.453 . S
Tb502 O506 2.596 . S
Tb502 O507 2.374 . S
Tb502 O515 2.343 . S
Tb502 O517 2.353 . S
Tb502 O519 2.427 . S
Tb502 O520 2.513 . S
C503 O507 1.251 . S
C503 O509 1.263 . S
Tb504 O506 2.343 . S
Tb504 O509 2.353 . S
Tb504 O512 2.427 . S
Tb504 O513 2.513 . S
Tb504 O514 2.453 . S
Tb504 O515 2.596 . S
Tb504 O516 2.374 . S
O505 Tb502 2.453 . S
O505 C521 1.245 . S
O506 Tb502 2.596 . S
O506 Tb504 2.343 . S
O506 C521 1.259 . S
O507 Tb502 2.374 . S
O507 C503 1.251 . S
C508 O512 1.275 . S
C508 O513 1.246 . S
O509 C503 1.263 . S
O509 Tb504 2.353 . S
C510 O514 1.245 . S
C510 O515 1.259 . S
C511 O516 1.250 . S
C511 O517 1.263 . S
O512 Tb504 2.427 . S
O512 C508 1.275 . S
O513 Tb504 2.513 . S
O513 C508 1.246 . S
O514 Tb504 2.453 . S
O514 C510 1.245 . S
O515 Tb502 2.343 . S
O515 Tb504 2.596 . S
O515 C510 1.259 . S
O516 Tb504 2.374 . S
O516 C511 1.250 . S
O517 Tb502 2.353 . S
O517 C511 1.263 . S
C518 O519 1.275 . S
C518 O520 1.246 . S
O519 Tb502 2.427 . S
O519 C518 1.275 . S
O520 Tb502 2.513 . S
O520 C518 1.246 . S
C521 O505 1.245 . S
C521 O506 1.259 . S
H522 C530 0.950 . S
H523 C535 0.950 . S
H524 C532 0.950 . S
H525 C534 0.950 . S
H526 C536 0.950 . S
H527 C538 0.950 . S
H528 C540 0.950 . S
H529 C541 0.950 . S
C530 H522 0.950 . S
C530 C531 1.386 . S
C530 C532 1.391 . S
C531 C530 1.386 . S
C531 C535 1.393 . S
C532 H524 0.950 . S
C532 C530 1.391 . S
C532 C533 1.400 . S
C533 C532 1.400 . S
C533 C534 1.398 . S
C533 C539 1.491 . S
C534 H525 0.950 . S
C534 C533 1.398 . S
C534 C535 1.391 . S
C535 H523 0.950 . S
C535 C531 1.393 . S
C535 C534 1.391 . S
C536 H526 0.950 . S
C536 C537 1.386 . S
C536 C538 1.391 . S
C537 C536 1.386 . S
C537 C541 1.393 . S
C538 H527 0.950 . S
C538 C536 1.391 . S
C538 C539 1.400 . S
C539 C533 1.491 . S
C539 C538 1.400 . S
C539 C540 1.398 . S
C540 H528 0.950 . S
C540 C539 1.398 . S
C540 C541 1.391 . S
C541 H529 0.950 . S
C541 C537 1.393 . S
C541 C540 1.391 . S
H542 C550 0.950 . S
H543 C555 0.950 . S
H544 C552 0.950 . S
H545 C554 0.950 . S
H546 C556 0.950 . S
H547 C558 0.950 . S
H548 C560 0.950 . S
H549 C561 0.950 . S
C550 H542 0.950 . S
C550 C551 1.386 . S
C550 C552 1.391 . S
C551 C550 1.386 . S
C551 C555 1.393 . S
C552 H544 0.950 . S
C552 C550 1.391 . S
C552 C553 1.400 . S
C553 C552 1.400 . S
C553 C554 1.398 . S
C553 C559 1.491 . S
C554 H545 0.950 . S
C554 C553 1.398 . S
C554 C555 1.391 . S
C555 H543 0.950 . S
C555 C551 1.393 . S
C555 C554 1.391 . S
C556 H546 0.950 . S
C556 C557 1.386 . S
C556 C558 1.391 . S
C557 C556 1.386 . S
C557 C561 1.393 . S
C558 H547 0.950 . S
C558 C556 1.391 . S
C558 C559 1.400 . S
C559 C553 1.491 . S
C559 C558 1.400 . S
C559 C560 1.398 . S
C560 H548 0.950 . S
C560 C559 1.398 . S
C560 C561 1.391 . S
C561 H549 0.950 . S
C561 C557 1.393 . S
C561 C560 1.391 . S
H562 C570 0.950 . S
H563 C575 0.950 . S
H564 C572 0.950 . S
H565 C574 0.950 . S
H566 C576 0.950 . S
H567 C578 0.950 . S
H568 C580 0.950 . S
H569 C581 0.950 . S
C570 H562 0.950 . S
C570 C571 1.386 . S
C570 C572 1.391 . S
C571 C570 1.386 . S
C571 C575 1.393 . S
C572 H564 0.950 . S
C572 C570 1.391 . S
C572 C573 1.400 . S
C573 C572 1.400 . S
C573 C574 1.398 . S
C573 C579 1.491 . S
C574 H565 0.950 . S
C574 C573 1.398 . S
C574 C575 1.391 . S
C575 H563 0.950 . S
C575 C571 1.393 . S
C575 C574 1.391 . S
C576 H566 0.950 . S
C576 C577 1.386 . S
C576 C578 1.391 . S
C577 C576 1.386 . S
C577 C581 1.393 . S
C578 H567 0.950 . S
C578 C576 1.391 . S
C578 C579 1.400 . S
C579 C573 1.491 . S
C579 C578 1.400 . S
C579 C580 1.398 . S
C580 H568 0.950 . S
C580 C579 1.398 . S
C580 C581 1.391 . S
C581 H569 0.950 . S
C581 C577 1.393 . S
C581 C580 1.391 . S
H582 C590 0.950 . S
H583 C595 0.950 . S
H584 C592 0.950 . S
H585 C594 0.950 . S
H586 C596 0.950 . S
H587 C598 0.950 . S
H588 C600 0.950 . S
H589 C601 0.953 . S
C590 H582 0.950 . S
C590 C591 1.386 . S
C590 C592 1.391 . S
C591 C590 1.386 . S
C591 C595 1.393 . S
C592 H584 0.950 . S
C592 C590 1.391 . S
C592 C593 1.400 . S
C593 C592 1.400 . S
C593 C594 1.398 . S
C593 C599 1.491 . S
C594 H585 0.950 . S
C594 C593 1.398 . S
C594 C595 1.391 . S
C595 H583 0.950 . S
C595 C591 1.393 . S
C595 C594 1.391 . S
C596 H586 0.950 . S
C596 C597 1.386 . S
C596 C598 1.391 . S
C597 C596 1.386 . S
C597 C601 1.393 . S
C598 H587 0.950 . S
C598 C596 1.391 . S
C598 C599 1.400 . S
C599 C593 1.491 . S
C599 C598 1.400 . S
C599 C600 1.398 . S
C600 H588 0.950 . S
C600 C599 1.398 . S
C600 C601 1.391 . S
C601 H589 0.953 . S
C601 C597 1.393 . S
C601 C600 1.391 . S
H602 C610 0.950 . S
H603 C615 0.950 . S
H604 C612 0.950 . S
H605 C614 0.950 . S
H606 C616 0.950 . S
H607 C618 0.950 . S
H608 C620 0.950 . S
H609 C621 0.950 . S
C610 H602 0.950 . S
C610 C611 1.386 . S
C610 C612 1.391 . S
C611 C610 1.386 . S
C611 C615 1.393 . S
C612 H604 0.950 . S
C612 C610 1.391 . S
C612 C613 1.400 . S
C613 C612 1.400 . S
C613 C614 1.398 . S
C613 C619 1.491 . S
C614 H605 0.950 . S
C614 C613 1.398 . S
C614 C615 1.391 . S
C615 H603 0.950 . S
C615 C611 1.393 . S
C615 C614 1.391 . S
C616 H606 0.950 . S
C616 C617 1.386 . S
C616 C618 1.391 . S
C617 C616 1.386 . S
C617 C621 1.393 . S
C618 H607 0.950 . S
C618 C616 1.391 . S
C618 C619 1.400 . S
C619 C613 1.491 . S
C619 C618 1.400 . S
C619 C620 1.398 . S
C620 H608 0.950 . S
C620 C619 1.398 . S
C620 C621 1.391 . S
C621 H609 0.950 . S
C621 C617 1.393 . S
C621 C620 1.391 . S
H622 C630 0.950 . S
H623 C635 0.950 . S
H624 C632 0.950 . S
H625 C634 0.950 . S
H626 C636 0.950 . S
H627 C638 0.950 . S
H628 C640 0.950 . S
H629 C641 0.950 . S
C630 H622 0.950 . S
C630 C631 1.386 . S
C630 C632 1.391 . S
C631 C630 1.386 . S
C631 C635 1.393 1_556 S
C632 H624 0.950 . S
C632 C630 1.391 . S
C632 C633 1.400 . S
C633 C632 1.400 . S
C633 C634 1.398 1_556 S
C633 C639 1.491 . S
C634 H625 0.950 . S
C634 C633 1.398 1_554 S
C634 C635 1.391 . S
C635 H623 0.950 . S
C635 C631 1.393 1_554 S
C635 C634 1.391 . S
C636 H626 0.950 . S
C636 C637 1.386 . S
C636 C638 1.391 . S
C637 C636 1.386 . S
C637 C641 1.393 1_554 S
C638 H627 0.950 . S
C638 C636 1.391 . S
C638 C639 1.400 1_554 S
C639 C633 1.491 . S
C639 C638 1.400 1_556 S
C639 C640 1.398 . S
C640 H628 0.950 . S
C640 C639 1.398 . S
C640 C641 1.391 . S
C641 H629 0.950 . S
C641 C637 1.393 1_556 S
C641 C640 1.391 . S
H642 C650 0.950 . S
H643 C655 0.950 1_554 S
H644 C652 0.950 . S
H645 C654 0.950 1_554 S
H646 C656 0.950 . S
H647 C658 0.950 . S
H648 C660 0.950 . S
H649 C661 0.950 . S
C650 H642 0.950 . S
C650 C651 1.386 . S
C650 C652 1.391 . S
C651 C650 1.386 . S
C651 C655 1.393 . S
C652 H644 0.950 . S
C652 C650 1.391 . S
C652 C653 1.400 . S
C653 C652 1.400 . S
C653 C654 1.398 . S
C653 C659 1.491 . S
C654 H645 0.950 1_556 S
C654 C653 1.398 . S
C654 C655 1.391 . S
C655 H643 0.950 1_556 S
C655 C651 1.393 . S
C655 C654 1.391 . S
C656 H646 0.950 . S
C656 C657 1.386 1_554 S
C656 C658 1.391 . S
C657 C656 1.386 1_556 S
C657 C661 1.393 . S
C658 H647 0.950 . S
C658 C656 1.391 . S
C658 C659 1.400 1_554 S
C659 C653 1.491 . S
C659 C658 1.400 1_556 S
C659 C660 1.398 . S
C660 H648 0.950 . S
C660 C659 1.398 . S
C660 C661 1.391 . S
C661 H649 0.950 . S
C661 C657 1.393 . S
C661 C660 1.391 . S
H662 C670 0.950 . S
H663 C675 0.950 . S
H664 C672 0.950 . S
H665 C674 0.950 1_554 S
H666 C676 0.950 1_554 S
H667 C678 0.950 1_554 S
H668 C680 0.950 . S
H669 C681 0.950 . S
C670 H662 0.950 . S
C670 C671 1.386 . S
C670 C672 1.391 . S
C671 C670 1.386 . S
C671 C675 1.393 . S
C672 H664 0.950 . S
C672 C670 1.391 . S
C672 C673 1.400 . S
C673 C672 1.400 . S
C673 C674 1.398 . S
C673 C679 1.491 . S
C674 H665 0.950 1_556 S
C674 C673 1.398 . S
C674 C675 1.391 . S
C675 H663 0.950 . S
C675 C671 1.393 . S
C675 C674 1.391 . S
C676 H666 0.950 1_556 S
C676 C677 1.386 . S
C676 C678 1.391 . S
C677 C676 1.386 . S
C677 C681 1.393 . S
C678 H667 0.950 1_556 S
C678 C676 1.391 . S
C678 C679 1.400 . S
C679 C673 1.491 . S
C679 C678 1.400 . S
C679 C680 1.398 . S
C680 H668 0.950 . S
C680 C679 1.398 . S
C680 C681 1.391 . S
C681 H669 0.950 . S
C681 C677 1.393 . S
C681 C680 1.391 . S
H682 C690 0.950 . S
H683 C695 0.950 . S
H684 C692 0.950 . S
H685 C694 0.950 . S
H686 C696 0.950 . S
H687 C698 0.950 . S
H688 C700 0.950 . S
H689 C701 0.950 . S
C690 H682 0.950 . S
C690 C691 1.386 . S
C690 C692 1.391 . S
C691 C690 1.386 . S
C691 C695 1.393 1_554 S
C692 H684 0.950 . S
C692 C690 1.391 . S
C692 C693 1.400 . S
C693 C692 1.400 . S
C693 C694 1.398 1_554 S
C693 C699 1.491 . S
C694 H685 0.950 . S
C694 C693 1.398 1_556 S
C694 C695 1.391 . S
C695 H683 0.950 . S
C695 C691 1.393 1_556 S
C695 C694 1.391 . S
C696 H686 0.950 . S
C696 C697 1.386 1_556 S
C696 C698 1.391 . S
C697 C696 1.386 1_554 S
C697 C701 1.393 . S
C698 H687 0.950 . S
C698 C696 1.391 . S
C698 C699 1.400 1_556 S
C699 C693 1.491 . S
C699 C698 1.400 1_554 S
C699 C700 1.398 . S
C700 H688 0.950 . S
C700 C699 1.398 . S
C700 C701 1.391 . S
C701 H689 0.950 . S
C701 C697 1.393 . S
C701 C700 1.391 . S
H702 C710 0.950 . S
H703 C715 0.950 . S
H704 C712 0.950 . S
H705 C714 0.950 . S
H706 C716 0.950 1_556 S
H707 C718 0.969 . S
H708 C720 0.950 . S
H709 C721 0.950 . S
C710 H702 0.950 . S
C710 C711 1.386 . S
C710 C712 1.391 . S
C711 C710 1.386 . S
C711 C715 1.393 . S
C712 H704 0.950 . S
C712 C710 1.391 . S
C712 C713 1.400 . S
C713 C712 1.400 . S
C713 C714 1.398 . S
C713 C719 1.491 . S
C714 H705 0.950 . S
C714 C713 1.398 . S
C714 C715 1.391 . S
C715 H703 0.950 . S
C715 C711 1.393 . S
C715 C714 1.391 . S
C716 H706 0.950 1_554 S
C716 C717 1.386 . S
C716 C718 1.391 . S
C717 C716 1.386 . S
C717 C721 1.393 . S
C718 H707 0.969 . S
C718 C716 1.391 . S
C718 C719 1.400 . S
C719 C713 1.491 . S
C719 C718 1.400 . S
C719 C720 1.398 . S
C720 H708 0.950 . S
C720 C719 1.398 . S
C720 C721 1.391 . S
C721 H709 0.950 . S
C721 C717 1.393 . S
C721 C720 1.391 . S
H722 C730 0.950 . S
H723 C735 0.950 . S
H724 C732 0.950 . S
H725 C734 0.950 . S
H726 C736 0.950 . S
H727 C738 0.950 . S
H728 C740 0.950 . S
H729 C741 0.950 . S
C730 H722 0.950 . S
C730 C731 1.386 . S
C730 C732 1.391 . S
C731 C730 1.386 . S
C731 C735 1.393 . S
C732 H724 0.950 . S
C732 C730 1.391 . S
C732 C733 1.400 . S
C733 C732 1.400 . S
C733 C734 1.398 . S
C733 C739 1.491 . S
C734 H725 0.950 . S
C734 C733 1.398 . S
C734 C735 1.391 . S
C735 H723 0.950 . S
C735 C731 1.393 . S
C735 C734 1.391 . S
C736 H726 0.950 . S
C736 C737 1.386 . S
C736 C738 1.391 . S
C737 C736 1.386 . S
C737 C741 1.393 . S
C738 H727 0.950 . S
C738 C736 1.391 . S
C738 C739 1.400 . S
C739 C733 1.491 . S
C739 C738 1.400 . S
C739 C740 1.398 . S
C740 H728 0.950 . S
C740 C739 1.398 . S
C740 C741 1.391 . S
C741 H729 0.950 . S
C741 C737 1.393 . S
C741 C740 1.391 . S
H742 C750 0.950 . S
H743 C755 0.950 1_556 S
H744 C752 0.950 . S
H745 C754 0.976 . S
H746 C756 0.950 . S
H747 C758 0.950 . S
H748 C760 0.950 . S
H749 C761 0.950 . S
C750 H742 0.950 . S
C750 C751 1.386 . S
C750 C752 1.391 . S
C751 C750 1.386 . S
C751 C755 1.393 . S
C752 H744 0.950 . S
C752 C750 1.391 . S
C752 C753 1.400 . S
C753 C752 1.400 . S
C753 C754 1.375 1_554 S
C753 C759 1.491 . S
C754 H745 0.976 . S
C754 C753 1.375 1_556 S
C754 C755 1.389 1_556 S
C755 H743 0.950 1_554 S
C755 C751 1.393 . S
C755 C754 1.389 1_554 S
C756 H746 0.950 . S
C756 C757 1.386 1_556 S
C756 C758 1.391 . S
C757 C756 1.386 1_554 S
C757 C761 1.393 . S
C758 H747 0.950 . S
C758 C756 1.391 . S
C758 C759 1.400 1_556 S
C759 C753 1.491 . S
C759 C758 1.400 1_554 S
C759 C760 1.398 . S
C760 H748 0.950 . S
C760 C759 1.398 . S
C760 C761 1.391 . S
C761 H749 0.950 . S
C761 C757 1.393 . S
C761 C760 1.391 . S
H762 C770 0.950 . S
H763 C775 0.950 . S
H764 C772 0.950 . S
H765 C774 0.950 . S
H766 C776 0.950 . S
H767 C778 0.950 . S
H768 C780 0.950 . S
H769 C781 0.950 . S
C770 H762 0.950 . S
C770 C771 1.386 . S
C770 C772 1.391 . S
C771 C770 1.386 . S
C771 C775 1.393 . S
C772 H764 0.950 . S
C772 C770 1.391 . S
C772 C773 1.400 . S
C773 C772 1.400 . S
C773 C774 1.398 . S
C773 C779 1.491 1_655 S
C774 H765 0.950 . S
C774 C773 1.398 . S
C774 C775 1.391 . S
C775 H763 0.950 . S
C775 C771 1.393 . S
C775 C774 1.391 . S
C776 H766 0.950 . S
C776 C777 1.386 . S
C776 C778 1.391 . S
C777 C776 1.386 . S
C777 C781 1.393 . S
C778 H767 0.950 . S
C778 C776 1.391 . S
C778 C779 1.400 . S
C779 C773 1.491 1_455 S
C779 C778 1.400 . S
C779 C780 1.398 . S
C780 H768 0.950 . S
C780 C779 1.398 . S
C780 C781 1.391 . S
C781 H769 0.950 . S
C781 C777 1.393 . S
C781 C780 1.391 . S
H782 C790 0.950 . S
H783 C795 0.950 . S
H784 C792 0.950 . S
H785 C794 0.950 . S
H786 C796 0.950 . S
H787 C798 0.950 . S
H788 C800 0.950 . S
H789 C801 0.950 . S
C790 H782 0.950 . S
C790 C791 1.386 . S
C790 C792 1.391 . S
C791 C790 1.386 . S
C791 C795 1.393 . S
C792 H784 0.950 . S
C792 C790 1.391 . S
C792 C793 1.400 . S
C793 C792 1.400 . S
C793 C794 1.398 . S
C793 C799 1.491 . S
C794 H785 0.950 . S
C794 C793 1.398 . S
C794 C795 1.391 . S
C795 H783 0.950 . S
C795 C791 1.393 . S
C795 C794 1.391 . S
C796 H786 0.950 . S
C796 C797 1.386 . S
C796 C798 1.391 . S
C797 C796 1.386 . S
C797 C801 1.393 . S
C798 H787 0.950 . S
C798 C796 1.391 . S
C798 C799 1.400 . S
C799 C793 1.491 . S
C799 C798 1.400 . S
C799 C800 1.398 . S
C800 H788 0.950 . S
C800 C799 1.398 . S
C800 C801 1.391 . S
C801 H789 0.950 . S
C801 C797 1.393 . S
C801 C800 1.391 . S
H802 C810 0.950 . S
H803 C815 0.950 . S
H804 C812 0.950 . S
H805 C814 0.950 . S
H806 C816 0.950 . S
H807 C818 0.950 . S
H808 C820 0.950 . S
H809 C821 0.950 . S
C810 H802 0.950 . S
C810 C811 1.386 . S
C810 C812 1.391 . S
C811 C810 1.386 . S
C811 C815 1.393 . S
C812 H804 0.950 . S
C812 C810 1.391 . S
C812 C813 1.400 . S
C813 C812 1.400 . S
C813 C814 1.398 . S
C813 C819 1.491 1_545 S
C814 H805 0.950 . S
C814 C813 1.398 . S
C814 C815 1.391 . S
C815 H803 0.950 . S
C815 C811 1.393 . S
C815 C814 1.391 . S
C816 H806 0.950 . S
C816 C817 1.386 . S
C816 C818 1.391 . S
C817 C816 1.386 . S
C817 C821 1.393 . S
C818 H807 0.950 . S
C818 C816 1.391 . S
C818 C819 1.400 . S
C819 C813 1.491 1_565 S
C819 C818 1.400 . S
C819 C820 1.398 . S
C820 H808 0.950 . S
C820 C819 1.398 . S
C820 C821 1.391 . S
C821 H809 0.950 . S
C821 C817 1.393 . S
C821 C820 1.391 . S
H822 C830 0.950 . S
H823 C835 0.950 . S
H824 C832 0.950 . S
H825 C834 0.950 . S
H826 C836 0.950 . S
H827 C838 0.950 . S
H828 C840 0.950 . S
H829 C841 0.950 . S
C830 H822 0.950 . S
C830 C831 1.386 . S
C830 C832 1.391 . S
C831 C830 1.386 . S
C831 C835 1.393 . S
C832 H824 0.950 . S
C832 C830 1.391 . S
C832 C833 1.400 . S
C833 C832 1.400 . S
C833 C834 1.398 . S
C833 C839 1.491 . S
C834 H825 0.950 . S
C834 C833 1.398 . S
C834 C835 1.391 . S
C835 H823 0.950 . S
C835 C831 1.393 . S
C835 C834 1.391 . S
C836 H826 0.950 . S
C836 C837 1.386 . S
C836 C838 1.391 . S
C837 C836 1.386 . S
C837 C841 1.393 . S
C838 H827 0.950 . S
C838 C836 1.391 . S
C838 C839 1.400 . S
C839 C833 1.491 . S
C839 C838 1.400 . S
C839 C840 1.398 . S
C840 H828 0.950 . S
C840 C839 1.398 . S
C840 C841 1.391 . S
C841 H829 0.950 . S
C841 C837 1.393 . S
C841 C840 1.391 . S
H842 C850 0.950 . S
H843 C855 0.950 . S
H844 C852 0.950 . S
H845 C854 0.950 . S
H846 C856 0.950 . S
H847 C858 0.950 . S
H848 C860 0.950 . S
H849 C861 0.950 . S
C850 H842 0.950 . S
C850 C851 1.386 . S
C850 C852 1.391 . S
C851 C850 1.386 . S
C851 C855 1.393 . S
C852 H844 0.950 . S
C852 C850 1.391 . S
C852 C853 1.400 . S
C853 C852 1.400 . S
C853 C854 1.398 . S
C853 C859 1.491 . S
C854 H845 0.950 . S
C854 C853 1.398 . S
C854 C855 1.391 . S
C855 H843 0.950 . S
C855 C851 1.393 . S
C855 C854 1.391 . S
C856 H846 0.950 . S
C856 C857 1.386 . S
C856 C858 1.391 . S
C857 C856 1.386 . S
C857 C861 1.393 . S
C858 H847 0.950 . S
C858 C856 1.391 . S
C858 C859 1.400 . S
C859 C853 1.491 . S
C859 C858 1.400 . S
C859 C860 1.398 . S
C860 H848 0.950 . S
C860 C859 1.398 . S
C860 C861 1.391 . S
C861 H849 0.950 . S
C861 C857 1.393 . S
C861 C860 1.391 . S
H862 C870 0.950 . S
H863 C875 0.950 . S
H864 C872 0.950 . S
H865 C874 0.950 . S
H866 C876 0.950 . S
H867 C878 0.950 . S
H868 C880 0.950 . S
H869 C881 0.950 . S
C870 H862 0.950 . S
C870 C871 1.386 . S
C870 C872 1.391 . S
C871 C870 1.386 . S
C871 C875 1.393 . S
C872 H864 0.950 . S
C872 C870 1.391 . S
C872 C873 1.400 . S
C873 C872 1.400 . S
C873 C874 1.398 . S
C873 C879 1.491 . S
C874 H865 0.950 . S
C874 C873 1.398 . S
C874 C875 1.391 . S
C875 H863 0.950 . S
C875 C871 1.393 . S
C875 C874 1.391 . S
C876 H866 0.950 . S
C876 C877 1.386 . S
C876 C878 1.391 . S
C877 C876 1.386 . S
C877 C881 1.393 . S
C878 H867 0.950 . S
C878 C876 1.391 . S
C878 C879 1.400 . S
C879 C873 1.491 . S
C879 C878 1.400 . S
C879 C880 1.398 . S
C880 H868 0.950 . S
C880 C879 1.398 . S
C880 C881 1.391 . S
C881 H869 0.950 . S
C881 C877 1.393 . S
C881 C880 1.391 . S
H882 C890 0.950 . S
H883 C895 0.950 . S
H884 C892 0.950 . S
H885 C894 0.950 . S
H886 C896 0.950 . S
H887 C898 0.950 . S
H888 C900 0.950 . S
H889 C901 0.950 . S
C890 H882 0.950 . S
C890 C891 1.386 . S
C890 C892 1.391 . S
C891 C890 1.386 . S
C891 C895 1.393 . S
C892 H884 0.950 . S
C892 C890 1.391 . S
C892 C893 1.400 . S
C893 C892 1.400 . S
C893 C894 1.398 . S
C893 C899 1.491 . S
C894 H885 0.950 . S
C894 C893 1.398 . S
C894 C895 1.391 . S
C895 H883 0.950 . S
C895 C891 1.393 . S
C895 C894 1.391 . S
C896 H886 0.950 . S
C896 C897 1.386 . S
C896 C898 1.391 . S
C897 C896 1.386 . S
C897 C901 1.393 . S
C898 H887 0.950 . S
C898 C896 1.391 . S
C898 C899 1.400 . S
C899 C893 1.491 . S
C899 C898 1.400 . S
C899 C900 1.398 . S
C900 H888 0.950 . S
C900 C899 1.398 . S
C900 C901 1.391 . S
C901 H889 0.950 . S
C901 C897 1.393 . S
C901 C900 1.391 . S
H902 C910 0.950 . S
H903 C915 0.950 . S
H904 C912 0.950 . S
H905 C914 0.950 . S
H906 C916 0.950 . S
H907 C918 0.950 . S
H908 C920 0.950 . S
H909 C921 0.950 . S
C910 H902 0.950 . S
C910 C911 1.386 . S
C910 C912 1.391 . S
C911 C910 1.386 . S
C911 C915 1.393 . S
C912 H904 0.950 . S
C912 C910 1.391 . S
C912 C913 1.400 . S
C913 C912 1.400 . S
C913 C914 1.398 . S
C913 C919 1.491 . S
C914 H905 0.950 . S
C914 C913 1.398 . S
C914 C915 1.391 . S
C915 H903 0.950 . S
C915 C911 1.393 . S
C915 C914 1.391 . S
C916 H906 0.950 . S
C916 C917 1.386 . S
C916 C918 1.391 . S
C917 C916 1.386 . S
C917 C921 1.393 . S
C918 H907 0.950 . S
C918 C916 1.391 . S
C918 C919 1.400 . S
C919 C913 1.491 . S
C919 C918 1.400 . S
C919 C920 1.398 . S
C920 H908 0.950 . S
C920 C919 1.398 . S
C920 C921 1.391 . S
C921 H909 0.950 . S
C921 C917 1.393 . S
C921 C920 1.391 . S
H922 C930 0.950 . S
H923 C935 0.950 . S
H924 C932 0.950 . S
H925 C934 0.950 . S
H926 C936 0.950 . S
H927 C938 0.950 . S
H928 C940 0.950 . S
H929 C941 0.950 . S
C930 H922 0.950 . S
C930 C931 1.386 . S
C930 C932 1.391 . S
C931 C930 1.386 . S
C931 C935 1.393 . S
C932 H924 0.950 . S
C932 C930 1.391 . S
C932 C933 1.400 . S
C933 C932 1.400 . S
C933 C934 1.398 . S
C933 C939 1.491 . S
C934 H925 0.950 . S
C934 C933 1.398 . S
C934 C935 1.391 . S
C935 H923 0.950 . S
C935 C931 1.393 . S
C935 C934 1.391 . S
C936 H926 0.950 . S
C936 C937 1.386 . S
C936 C938 1.391 . S
C937 C936 1.386 . S
C937 C941 1.393 . S
C938 H927 0.950 . S
C938 C936 1.391 . S
C938 C939 1.400 . S
C939 C933 1.491 . S
C939 C938 1.400 . S
C939 C940 1.398 . S
C940 H928 0.950 . S
C940 C939 1.398 . S
C940 C941 1.391 . S
C941 H929 0.950 . S
C941 C937 1.393 . S
C941 C940 1.391 . S
H942 C950 0.950 . S
H943 C955 0.950 . S
H944 C952 0.950 . S
H945 C954 0.950 . S
H946 C956 0.950 . S
H947 C958 0.950 . S
H948 C960 0.950 . S
H949 C961 0.950 . S
C950 H942 0.950 . S
C950 C951 1.386 1_565 S
C950 C952 1.391 . S
C951 C950 1.386 1_545 S
C951 C955 1.393 . S
C952 H944 0.950 . S
C952 C950 1.391 . S
C952 C953 1.400 . S
C953 C952 1.400 . S
C953 C954 1.398 . S
C953 C959 1.491 . S
C954 H945 0.950 . S
C954 C953 1.398 . S
C954 C955 1.391 1_565 S
C955 H943 0.950 . S
C955 C951 1.393 . S
C955 C954 1.391 1_545 S
C956 H946 0.950 . S
C956 C957 1.386 . S
C956 C958 1.391 . S
C957 C956 1.386 . S
C957 C961 1.393 . S
C958 H947 0.950 . S
C958 C956 1.391 . S
C958 C959 1.400 . S
C959 C953 1.491 . S
C959 C958 1.400 . S
C959 C960 1.398 . S
C960 H948 0.950 . S
C960 C959 1.398 . S
C960 C961 1.391 . S
C961 H949 0.950 . S
C961 C957 1.393 . S
C961 C960 1.391 . S
H962 C970 0.950 1_655 S
H963 C975 0.950 1_655 S
H964 C972 0.950 . S
H965 C974 0.950 . S
H966 C976 0.950 . S
H967 C978 0.950 . S
H968 C980 0.950 . S
H969 C981 0.950 . S
C970 H962 0.950 1_455 S
C970 C971 1.386 1_455 S
C970 C972 1.391 . S
C971 C970 1.386 1_655 S
C971 C975 1.393 1_655 S
C972 H964 0.950 . S
C972 C970 1.391 . S
C972 C973 1.400 . S
C973 C972 1.400 . S
C973 C974 1.398 . S
C973 C979 1.491 . S
C974 H965 0.950 . S
C974 C973 1.398 . S
C974 C975 1.391 . S
C975 H963 0.950 1_455 S
C975 C971 1.393 1_455 S
C975 C974 1.391 . S
C976 H966 0.950 . S
C976 C977 1.386 . S
C976 C978 1.391 . S
C977 C976 1.386 . S
C977 C981 1.393 . S
C978 H967 0.950 . S
C978 C976 1.391 . S
C978 C979 1.400 . S
C979 C973 1.491 . S
C979 C978 1.400 . S
C979 C980 1.398 . S
C980 H968 0.950 . S
C980 C979 1.398 . S
C980 C981 1.391 . S
C981 H969 0.950 . S
C981 C977 1.393 . S
C981 C980 1.391 . S
H982 C990 0.950 . S
H983 C995 0.950 . S
H984 C992 0.950 . S
H985 C994 0.950 . S
H986 C996 0.950 . S
H987 C998 0.950 . S
H988 C1000 0.950 . S
H989 C1001 0.950 . S
C990 H982 0.950 . S
C990 C991 1.386 . S
C990 C992 1.391 . S
C991 C990 1.386 . S
C991 C995 1.393 . S
C992 H984 0.950 . S
C992 C990 1.391 . S
C992 C993 1.400 . S
C993 C992 1.400 . S
C993 C994 1.398 . S
C993 C999 1.491 . S
C994 H985 0.950 . S
C994 C993 1.398 . S
C994 C995 1.391 . S
C995 H983 0.950 . S
C995 C991 1.393 . S
C995 C994 1.391 . S
C996 H986 0.950 . S
C996 C997 1.386 . S
C996 C998 1.391 . S
C997 C996 1.386 . S
C997 C1001 1.393 . S
C998 H987 0.950 . S
C998 C996 1.391 . S
C998 C999 1.400 . S
C999 C993 1.491 . S
C999 C998 1.400 . S
C999 C1000 1.398 . S
C1000 H988 0.950 . S
C1000 C999 1.398 . S
C1000 C1001 1.391 . S
C1001 H989 0.950 . S
C1001 C997 1.393 . S
C1001 C1000 1.391 . S
H1002 C1010 0.950 . S
H1003 C1015 0.950 . S
H1004 C1012 0.950 . S
H1005 C1014 0.950 . S
H1006 C1016 0.950 . S
H1007 C1018 0.950 . S
H1008 C1020 0.950 . S
H1009 C1021 0.950 . S
C1010 H1002 0.950 . S
C1010 C1011 1.386 . S
C1010 C1012 1.391 . S
C1011 C1010 1.386 . S
C1011 C1015 1.393 . S
C1012 H1004 0.950 . S
C1012 C1010 1.391 . S
C1012 C1013 1.400 . S
C1013 C1012 1.400 . S
C1013 C1014 1.398 . S
C1013 C1019 1.491 . S
C1014 H1005 0.950 . S
C1014 C1013 1.398 . S
C1014 C1015 1.391 . S
C1015 H1003 0.950 . S
C1015 C1011 1.393 . S
C1015 C1014 1.391 . S
C1016 H1006 0.950 . S
C1016 C1017 1.386 . S
C1016 C1018 1.391 . S
C1017 C1016 1.386 . S
C1017 C1021 1.393 . S
C1018 H1007 0.950 . S
C1018 C1016 1.391 . S
C1018 C1019 1.400 . S
C1019 C1013 1.491 . S
C1019 C1018 1.400 . S
C1019 C1020 1.398 . S
C1020 H1008 0.950 . S
C1020 C1019 1.398 . S
C1020 C1021 1.391 . S
C1021 H1009 0.950 . S
C1021 C1017 1.393 . S
C1021 C1020 1.391 . S
H1022 C1030 0.950 . S
H1023 C1035 0.950 . S
H1024 C1032 0.950 . S
H1025 C1034 0.950 . S
H1026 C1036 0.950 . S
H1027 C1038 0.950 . S
H1028 C1040 0.950 . S
H1029 C1041 0.950 . S
C1030 H1022 0.950 . S
C1030 C1031 1.386 . S
C1030 C1032 1.391 . S
C1031 C1030 1.386 . S
C1031 C1035 1.393 . S
C1032 H1024 0.950 . S
C1032 C1030 1.391 . S
C1032 C1033 1.400 . S
C1033 C1032 1.400 . S
C1033 C1034 1.398 . S
C1033 C1039 1.491 . S
C1034 H1025 0.950 . S
C1034 C1033 1.398 . S
C1034 C1035 1.391 . S
C1035 H1023 0.950 . S
C1035 C1031 1.393 . S
C1035 C1034 1.391 . S
C1036 H1026 0.950 . S
C1036 C1037 1.386 . S
C1036 C1038 1.391 . S
C1037 C1036 1.386 . S
C1037 C1041 1.393 . S
C1038 H1027 0.950 . S
C1038 C1036 1.391 . S
C1038 C1039 1.400 . S
C1039 C1033 1.491 . S
C1039 C1038 1.400 . S
C1039 C1040 1.398 . S
C1040 H1028 0.950 . S
C1040 C1039 1.398 . S
C1040 C1041 1.391 . S
C1041 H1029 0.950 . S
C1041 C1037 1.393 . S
C1041 C1040 1.391 . S
H1042 C1050 0.950 . S
H1043 C1055 0.950 . S
H1044 C1052 0.950 . S
H1045 C1054 0.950 . S
H1046 C1056 0.950 . S
H1047 C1058 0.950 . S
H1048 C1060 0.950 . S
H1049 C1061 0.950 . S
C1050 H1042 0.950 . S
C1050 C1051 1.386 . S
C1050 C1052 1.391 . S
C1051 C1050 1.386 . S
C1051 C1055 1.393 . S
C1052 H1044 0.950 . S
C1052 C1050 1.391 . S
C1052 C1053 1.400 . S
C1053 C1052 1.400 . S
C1053 C1054 1.398 . S
C1053 C1059 1.491 . S
C1054 H1045 0.950 . S
C1054 C1053 1.398 . S
C1054 C1055 1.391 . S
C1055 H1043 0.950 . S
C1055 C1051 1.393 . S
C1055 C1054 1.391 . S
C1056 H1046 0.950 . S
C1056 C1057 1.386 . S
C1056 C1058 1.391 . S
C1057 C1056 1.386 . S
C1057 C1061 1.393 . S
C1058 H1047 0.950 . S
C1058 C1056 1.391 . S
C1058 C1059 1.400 . S
C1059 C1053 1.491 . S
C1059 C1058 1.400 . S
C1059 C1060 1.398 . S
C1060 H1048 0.950 . S
C1060 C1059 1.398 . S
C1060 C1061 1.391 . S
C1061 H1049 0.950 . S
C1061 C1057 1.393 . S
C1061 C1060 1.391 . S
H1062 C1070 0.950 . S
H1063 C1075 0.950 . S
H1064 C1072 0.950 . S
H1065 C1074 0.950 . S
H1066 C1076 0.950 . S
H1067 C1078 0.950 . S
H1068 C1080 0.950 . S
H1069 C1081 0.950 . S
C1070 H1062 0.950 . S
C1070 C1071 1.386 . S
C1070 C1072 1.391 . S
C1071 C1070 1.386 . S
C1071 C1075 1.393 . S
C1072 H1064 0.950 . S
C1072 C1070 1.391 . S
C1072 C1073 1.400 . S
C1073 C1072 1.400 . S
C1073 C1074 1.398 . S
C1073 C1079 1.491 1_565 S
C1074 H1065 0.950 . S
C1074 C1073 1.398 . S
C1074 C1075 1.391 . S
C1075 H1063 0.950 . S
C1075 C1071 1.393 . S
C1075 C1074 1.391 . S
C1076 H1066 0.950 . S
C1076 C1077 1.386 . S
C1076 C1078 1.391 . S
C1077 C1076 1.386 . S
C1077 C1081 1.393 . S
C1078 H1067 0.950 . S
C1078 C1076 1.391 . S
C1078 C1079 1.400 . S
C1079 C1073 1.491 1_545 S
C1079 C1078 1.400 . S
C1079 C1080 1.398 . S
C1080 H1068 0.950 . S
C1080 C1079 1.398 . S
C1080 C1081 1.391 . S
C1081 H1069 0.950 . S
C1081 C1077 1.393 . S
C1081 C1080 1.391 . S
H1082 C1090 0.950 . S
H1083 C1095 0.950 . S
H1084 C1092 0.950 . S
H1085 C1094 0.950 . S
H1086 C1096 0.950 . S
H1087 C1098 0.950 . S
H1088 C1100 0.950 1_455 S
H1089 C1101 0.950 . S
C1090 H1082 0.950 . S
C1090 C1091 1.386 . S
C1090 C1092 1.391 . S
C1091 C1090 1.386 . S
C1091 C1095 1.393 . S
C1092 H1084 0.950 . S
C1092 C1090 1.391 . S
C1092 C1093 1.400 . S
C1093 C1092 1.400 . S
C1093 C1094 1.398 . S
C1093 C1099 1.491 1_455 S
C1094 H1085 0.950 . S
C1094 C1093 1.398 . S
C1094 C1095 1.391 . S
C1095 H1083 0.950 . S
C1095 C1091 1.393 . S
C1095 C1094 1.391 . S
C1096 H1086 0.950 . S
C1096 C1097 1.386 . S
C1096 C1098 1.391 . S
C1097 C1096 1.386 . S
C1097 C1101 1.393 . S
C1098 H1087 0.950 . S
C1098 C1096 1.391 . S
C1098 C1099 1.400 . S
C1099 C1093 1.491 1_655 S
C1099 C1098 1.400 . S
C1099 C1100 1.398 . S
C1100 H1088 0.950 1_655 S
C1100 C1099 1.398 . S
C1100 C1101 1.391 . S
C1101 H1089 0.950 . S
C1101 C1097 1.393 . S
C1101 C1100 1.391 . S
H1102 C1110 0.950 . S
H1103 C1115 0.950 . S
H1104 C1112 0.950 . S
H1105 C1114 0.950 . S
H1106 C1116 0.950 . S
H1107 C1118 0.950 . S
H1108 C1120 0.950 . S
H1109 C1121 0.950 . S
C1110 H1102 0.950 . S
C1110 C1111 1.386 . S
C1110 C1112 1.391 . S
C1111 C1110 1.386 . S
C1111 C1115 1.393 . S
C1112 H1104 0.950 . S
C1112 C1110 1.391 . S
C1112 C1113 1.400 . S
C1113 C1112 1.400 . S
C1113 C1114 1.398 . S
C1113 C1119 1.491 . S
C1114 H1105 0.950 . S
C1114 C1113 1.398 . S
C1114 C1115 1.391 . S
C1115 H1103 0.950 . S
C1115 C1111 1.393 . S
C1115 C1114 1.391 . S
C1116 H1106 0.950 . S
C1116 C1117 1.386 . S
C1116 C1118 1.391 . S
C1117 C1116 1.386 . S
C1117 C1121 1.393 . S
C1118 H1107 0.950 . S
C1118 C1116 1.391 . S
C1118 C1119 1.400 . S
C1119 C1113 1.491 . S
C1119 C1118 1.400 . S
C1119 C1120 1.398 . S
C1120 H1108 0.950 . S
C1120 C1119 1.398 . S
C1120 C1121 1.391 . S
C1121 H1109 0.950 . S
C1121 C1117 1.393 . S
C1121 C1120 1.391 . S
H1122 C1130 0.950 . S
H1123 C1135 0.950 . S
H1124 C1132 0.950 . S
H1125 C1134 0.950 . S
H1126 C1136 0.950 . S
H1127 C1138 0.950 . S
H1128 C1140 0.950 . S
H1129 C1141 0.950 . S
C1130 H1122 0.950 . S
C1130 C1131 1.386 . S
C1130 C1132 1.391 1_455 S
C1131 C1130 1.386 . S
C1131 C1135 1.393 . S
C1132 H1124 0.950 . S
C1132 C1130 1.391 1_655 S
C1132 C1133 1.400 . S
C1133 C1132 1.400 . S
C1133 C1134 1.398 . S
C1133 C1139 1.491 . S
C1134 H1125 0.950 . S
C1134 C1133 1.398 . S
C1134 C1135 1.391 1_655 S
C1135 H1123 0.950 . S
C1135 C1131 1.393 . S
C1135 C1134 1.391 1_455 S
C1136 H1126 0.950 . S
C1136 C1137 1.386 . S
C1136 C1138 1.391 . S
C1137 C1136 1.386 . S
C1137 C1141 1.393 . S
C1138 H1127 0.950 . S
C1138 C1136 1.391 . S
C1138 C1139 1.400 . S
C1139 C1133 1.491 . S
C1139 C1138 1.400 . S
C1139 C1140 1.398 . S
C1140 H1128 0.950 . S
C1140 C1139 1.398 . S
C1140 C1141 1.391 . S
C1141 H1129 0.950 . S
C1141 C1137 1.393 . S
C1141 C1140 1.391 . S
H1142 C1150 0.950 . S
H1143 C1155 0.950 . S
H1144 C1152 0.950 . S
H1145 C1154 0.950 . S
H1146 C1156 0.950 . S
H1147 C1158 0.950 . S
H1148 C1160 0.950 . S
H1149 C1161 0.950 . S
C1150 H1142 0.950 . S
C1150 C1151 1.386 . S
C1150 C1152 1.391 . S
C1151 C1150 1.386 . S
C1151 C1155 1.393 . S
C1152 H1144 0.950 . S
C1152 C1150 1.391 . S
C1152 C1153 1.400 . S
C1153 C1152 1.400 . S
C1153 C1154 1.398 . S
C1153 C1159 1.491 . S
C1154 H1145 0.950 . S
C1154 C1153 1.398 . S
C1154 C1155 1.391 . S
C1155 H1143 0.950 . S
C1155 C1151 1.393 . S
C1155 C1154 1.391 . S
C1156 H1146 0.950 . S
C1156 C1157 1.386 . S
C1156 C1158 1.391 . S
C1157 C1156 1.386 . S
C1157 C1161 1.393 . S
C1158 H1147 0.950 . S
C1158 C1156 1.391 . S
C1158 C1159 1.400 . S
C1159 C1153 1.491 . S
C1159 C1158 1.400 . S
C1159 C1160 1.398 . S
C1160 H1148 0.950 . S
C1160 C1159 1.398 . S
C1160 C1161 1.391 . S
C1161 H1149 0.950 . S
C1161 C1157 1.393 . S
C1161 C1160 1.391 . S
H1162 C1170 0.950 . S
H1163 C1175 0.960 . S
H1164 C1172 0.950 . S
H1165 C1174 0.950 . S
H1166 C1176 0.950 . S
H1167 C1178 0.950 . S
H1168 C1180 0.950 . S
H1169 C1181 0.950 . S
C1170 H1162 0.950 . S
C1170 C1171 1.386 1_545 S
C1170 C1172 1.391 . S
C1171 C1170 1.386 1_565 S
C1171 C1175 1.432 . S
C1172 H1164 0.950 . S
C1172 C1170 1.391 . S
C1172 C1173 1.400 . S
C1173 C1172 1.400 . S
C1173 C1174 1.398 . S
C1173 C1179 1.491 . S
C1174 H1165 0.950 . S
C1174 C1173 1.398 . S
C1174 C1175 1.344 1_545 S
C1175 H1163 0.960 . S
C1175 C1171 1.432 . S
C1175 C1174 1.344 1_565 S
C1176 H1166 0.950 . S
C1176 C1177 1.386 . S
C1176 C1178 1.391 . S
C1177 C1176 1.386 . S
C1177 C1181 1.393 . S
C1178 H1167 0.950 . S
C1178 C1176 1.391 . S
C1178 C1179 1.400 . S
C1179 C1173 1.491 . S
C1179 C1178 1.400 . S
C1179 C1180 1.398 . S
C1180 H1168 0.950 . S
C1180 C1179 1.398 . S
C1180 C1181 1.391 . S
C1181 H1169 0.950 . S
C1181 C1177 1.393 . S
C1181 C1180 1.391 . S
H1182 C1190 0.950 . S
H1183 C1195 0.950 . S
H1184 C1192 0.950 . S
H1185 C1194 0.950 . S
H1186 C1196 0.950 . S
H1187 C1198 0.950 . S
H1188 C1200 0.950 . S
H1189 C1201 0.950 . S
C1190 H1182 0.950 . S
C1190 C1191 1.386 . S
C1190 C1192 1.391 . S
C1191 C1190 1.386 . S
C1191 C1195 1.393 . S
C1192 H1184 0.950 . S
C1192 C1190 1.391 . S
C1192 C1193 1.400 . S
C1193 C1192 1.400 . S
C1193 C1194 1.398 . S
C1193 C1199 1.491 . S
C1194 H1185 0.950 . S
C1194 C1193 1.398 . S
C1194 C1195 1.391 . S
C1195 H1183 0.950 . S
C1195 C1191 1.393 . S
C1195 C1194 1.391 . S
C1196 H1186 0.950 . S
C1196 C1197 1.386 . S
C1196 C1198 1.391 . S
C1197 C1196 1.386 . S
C1197 C1201 1.393 . S
C1198 H1187 0.950 . S
C1198 C1196 1.391 . S
C1198 C1199 1.400 . S
C1199 C1193 1.491 . S
C1199 C1198 1.400 . S
C1199 C1200 1.398 . S
C1200 H1188 0.950 . S
C1200 C1199 1.398 . S
C1200 C1201 1.391 . S
C1201 H1189 0.950 . S
C1201 C1197 1.393 . S
C1201 C1200 1.391 . S
H1202 C1210 0.950 . S
H1203 C1215 0.950 . S
H1204 C1212 0.950 . S
H1205 C1214 0.950 . S
H1206 C1216 0.950 . S
H1207 C1218 0.950 . S
H1208 C1220 0.950 . S
H1209 C1221 0.950 . S
C1210 H1202 0.950 . S
C1210 C1211 1.386 . S
C1210 C1212 1.391 . S
C1211 C1210 1.386 . S
C1211 C1215 1.393 . S
C1212 H1204 0.950 . S
C1212 C1210 1.391 . S
C1212 C1213 1.400 . S
C1213 C1212 1.400 . S
C1213 C1214 1.398 . S
C1213 C1219 1.491 . S
C1214 H1205 0.950 . S
C1214 C1213 1.398 . S
C1214 C1215 1.391 . S
C1215 H1203 0.950 . S
C1215 C1211 1.393 . S
C1215 C1214 1.391 . S
C1216 H1206 0.950 . S
C1216 C1217 1.386 . S
C1216 C1218 1.391 . S
C1217 C1216 1.386 . S
C1217 C1221 1.393 . S
C1218 H1207 0.950 . S
C1218 C1216 1.391 . S
C1218 C1219 1.400 . S
C1219 C1213 1.491 . S
C1219 C1218 1.400 . S
C1219 C1220 1.398 . S
C1220 H1208 0.950 . S
C1220 C1219 1.398 . S
C1220 C1221 1.391 . S
C1221 H1209 0.950 . S
C1221 C1217 1.393 . S
C1221 C1220 1.391 . S
H1222 C1230 0.950 . S
H1223 C1235 0.950 . S
H1224 C1232 0.950 . S
H1225 C1234 0.950 . S
H1226 C1236 0.950 . S
H1227 C1238 0.950 . S
H1228 C1240 0.950 . S
H1229 C1241 0.950 . S
C1230 H1222 0.950 . S
C1230 C1231 1.386 . S
C1230 C1232 1.391 . S
C1231 C1230 1.386 . S
C1231 C1235 1.393 . S
C1232 H1224 0.950 . S
C1232 C1230 1.391 . S
C1232 C1233 1.400 . S
C1233 C1232 1.400 . S
C1233 C1234 1.398 . S
C1233 C1239 1.491 . S
C1234 H1225 0.950 . S
C1234 C1233 1.398 . S
C1234 C1235 1.391 . S
C1235 H1223 0.950 . S
C1235 C1231 1.393 . S
C1235 C1234 1.391 . S
C1236 H1226 0.950 . S
C1236 C1237 1.386 . S
C1236 C1238 1.391 . S
C1237 C1236 1.386 . S
C1237 C1241 1.393 . S
C1238 H1227 0.950 . S
C1238 C1236 1.391 . S
C1238 C1239 1.400 . S
C1239 C1233 1.491 . S
C1239 C1238 1.400 . S
C1239 C1240 1.398 . S
C1240 H1228 0.950 . S
C1240 C1239 1.398 . S
C1240 C1241 1.391 . S
C1241 H1229 0.950 . S
C1241 C1237 1.393 . S
C1241 C1240 1.391 . S
H1242 C1250 0.950 . S
H1243 C1255 0.950 . S
H1244 C1252 0.950 . S
H1245 C1254 0.950 . S
H1246 C1256 0.950 . S
H1247 C1258 0.950 . S
H1248 C1260 0.950 . S
H1249 C1261 0.950 1_545 S
C1250 H1242 0.950 . S
C1250 C1251 1.386 . S
C1250 C1252 1.391 . S
C1251 C1250 1.386 . S
C1251 C1255 1.393 . S
C1252 H1244 0.950 . S
C1252 C1250 1.391 . S
C1252 C1253 1.400 . S
C1253 C1252 1.400 . S
C1253 C1254 1.398 . S
C1253 C1259 1.491 . S
C1254 H1245 0.950 . S
C1254 C1253 1.398 . S
C1254 C1255 1.391 . S
C1255 H1243 0.950 . S
C1255 C1251 1.393 . S
C1255 C1254 1.391 . S
C1256 H1246 0.950 . S
C1256 C1257 1.386 . S
C1256 C1258 1.391 . S
C1257 C1256 1.386 . S
C1257 C1261 1.393 . S
C1258 H1247 0.950 . S
C1258 C1256 1.391 . S
C1258 C1259 1.400 . S
C1259 C1253 1.491 . S
C1259 C1258 1.400 . S
C1259 C1260 1.398 . S
C1260 H1248 0.950 . S
C1260 C1259 1.398 . S
C1260 C1261 1.391 . S
C1261 H1249 0.950 1_565 S
C1261 C1257 1.393 . S
C1261 C1260 1.391 . S
H1262 C1270 0.950 . S
H1263 C1275 0.950 . S
H1264 C1272 0.950 . S
H1265 C1274 0.950 . S
H1266 C1276 0.950 . S
H1267 C1278 0.950 . S
H1268 C1280 0.950 . S
H1269 C1281 0.950 . S
C1270 H1262 0.950 . S
C1270 C1271 1.386 . S
C1270 C1272 1.391 . S
C1271 C1270 1.386 . S
C1271 C1275 1.393 . S
C1272 H1264 0.950 . S
C1272 C1270 1.391 . S
C1272 C1273 1.400 . S
C1273 C1272 1.400 . S
C1273 C1274 1.398 . S
C1273 C1279 1.491 . S
C1274 H1265 0.950 . S
C1274 C1273 1.398 . S
C1274 C1275 1.391 . S
C1275 H1263 0.950 . S
C1275 C1271 1.393 . S
C1275 C1274 1.391 . S
C1276 H1266 0.950 . S
C1276 C1277 1.386 . S
C1276 C1278 1.391 . S
C1277 C1276 1.386 . S
C1277 C1281 1.393 . S
C1278 H1267 0.950 . S
C1278 C1276 1.391 . S
C1278 C1279 1.400 . S
C1279 C1273 1.491 . S
C1279 C1278 1.400 . S
C1279 C1280 1.398 . S
C1280 H1268 0.950 . S
C1280 C1279 1.398 . S
C1280 C1281 1.391 . S
C1281 H1269 0.950 . S
C1281 C1277 1.393 . S
C1281 C1280 1.391 . S
H1282 C1290 0.950 . S
H1283 C1295 0.950 . S
H1284 C1292 0.950 . S
H1285 C1294 0.950 . S
H1286 C1296 0.950 . S
H1287 C1298 0.950 . S
H1288 C1300 0.950 . S
H1289 C1301 0.950 . S
C1290 H1282 0.950 . S
C1290 C1291 1.386 . S
C1290 C1292 1.391 . S
C1291 C1290 1.386 . S
C1291 C1295 1.393 . S
C1292 H1284 0.950 . S
C1292 C1290 1.391 . S
C1292 C1293 1.400 . S
C1293 C1292 1.400 . S
C1293 C1294 1.398 . S
C1293 C1299 1.491 . S
C1294 H1285 0.950 . S
C1294 C1293 1.398 . S
C1294 C1295 1.391 . S
C1295 H1283 0.950 . S
C1295 C1291 1.393 . S
C1295 C1294 1.391 . S
C1296 H1286 0.950 . S
C1296 C1297 1.386 . S
C1296 C1298 1.391 . S
C1297 C1296 1.386 . S
C1297 C1301 1.393 . S
C1298 H1287 0.950 . S
C1298 C1296 1.391 . S
C1298 C1299 1.400 . S
C1299 C1293 1.491 . S
C1299 C1298 1.400 . S
C1299 C1300 1.398 . S
C1300 H1288 0.950 . S
C1300 C1299 1.398 . S
C1300 C1301 1.391 . S
C1301 H1289 0.950 . S
C1301 C1297 1.393 . S
C1301 C1300 1.391 . S
H1302 C1310 0.950 . S
H1303 C1315 0.950 . S
H1304 C1312 0.950 . S
H1305 C1314 0.950 . S
H1306 C1316 0.950 . S
H1307 C1318 0.950 . S
H1308 C1320 0.950 . S
H1309 C1321 0.950 1_455 S
C1310 H1302 0.950 . S
C1310 C1311 1.386 . S
C1310 C1312 1.391 . S
C1311 C1310 1.386 . S
C1311 C1315 1.393 . S
C1312 H1304 0.950 . S
C1312 C1310 1.391 . S
C1312 C1313 1.400 . S
C1313 C1312 1.400 . S
C1313 C1314 1.398 . S
C1313 C1319 1.491 . S
C1314 H1305 0.950 . S
C1314 C1313 1.398 . S
C1314 C1315 1.391 . S
C1315 H1303 0.950 . S
C1315 C1311 1.393 . S
C1315 C1314 1.391 . S
C1316 H1306 0.950 . S
C1316 C1317 1.386 . S
C1316 C1318 1.391 . S
C1317 C1316 1.386 . S
C1317 C1321 1.393 . S
C1318 H1307 0.950 . S
C1318 C1316 1.391 . S
C1318 C1319 1.400 . S
C1319 C1313 1.491 . S
C1319 C1318 1.400 . S
C1319 C1320 1.398 . S
C1320 H1308 0.950 . S
C1320 C1319 1.398 . S
C1320 C1321 1.391 . S
C1321 H1309 0.950 1_655 S
C1321 C1317 1.393 . S
C1321 C1320 1.391 . S
H1322 C1330 0.950 . S
H1323 C1335 0.950 . S
H1324 C1332 0.950 . S
H1325 C1334 0.950 . S
H1326 C1336 0.950 . S
H1327 C1338 0.950 . S
H1328 C1340 0.950 . S
H1329 C1341 0.950 . S
C1330 H1322 0.950 . S
C1330 C1331 1.386 . S
C1330 C1332 1.391 . S
C1331 C1330 1.386 . S
C1331 C1335 1.393 . S
C1332 H1324 0.950 . S
C1332 C1330 1.391 . S
C1332 C1333 1.400 . S
C1333 C1332 1.400 . S
C1333 C1334 1.398 . S
C1333 C1339 1.491 . S
C1334 H1325 0.950 . S
C1334 C1333 1.398 . S
C1334 C1335 1.391 . S
C1335 H1323 0.950 . S
C1335 C1331 1.393 . S
C1335 C1334 1.391 . S
C1336 H1326 0.950 . S
C1336 C1337 1.386 . S
C1336 C1338 1.391 . S
C1337 C1336 1.386 . S
C1337 C1341 1.393 . S
C1338 H1327 0.950 . S
C1338 C1336 1.391 . S
C1338 C1339 1.400 . S
C1339 C1333 1.491 . S
C1339 C1338 1.400 . S
C1339 C1340 1.398 . S
C1340 H1328 0.950 . S
C1340 C1339 1.398 . S
C1340 C1341 1.391 . S
C1341 H1329 0.950 . S
C1341 C1337 1.393 . S
C1341 C1340 1.391 . S
H1342 C1350 0.950 . S
H1343 C1355 0.950 . S
H1344 C1352 0.950 . S
H1345 C1354 0.950 . S
H1346 C1356 0.950 . S
H1347 C1358 0.950 . S
H1348 C1360 0.950 . S
H1349 C1361 0.950 . S
C1350 H1342 0.950 . S
C1350 C1351 1.386 . S
C1350 C1352 1.391 . S
C1351 C1350 1.386 . S
C1351 C1355 1.393 . S
C1352 H1344 0.950 . S
C1352 C1350 1.391 . S
C1352 C1353 1.400 . S
C1353 C1352 1.400 . S
C1353 C1354 1.398 . S
C1353 C1359 1.491 . S
C1354 H1345 0.950 . S
C1354 C1353 1.398 . S
C1354 C1355 1.391 . S
C1355 H1343 0.950 . S
C1355 C1351 1.393 . S
C1355 C1354 1.391 . S
C1356 H1346 0.950 . S
C1356 C1357 1.386 . S
C1356 C1358 1.391 . S
C1357 C1356 1.386 . S
C1357 C1361 1.393 . S
C1358 H1347 0.950 . S
C1358 C1356 1.391 . S
C1358 C1359 1.400 . S
C1359 C1353 1.491 . S
C1359 C1358 1.400 . S
C1359 C1360 1.398 . S
C1360 H1348 0.950 . S
C1360 C1359 1.398 . S
C1360 C1361 1.391 . S
C1361 H1349 0.950 . S
C1361 C1357 1.393 . S
C1361 C1360 1.391 . S
H1362 C1370 0.950 . S
H1363 C1375 0.950 . S
H1364 C1372 0.950 . S
H1365 C1374 0.950 . S
H1366 C1376 0.950 . S
H1367 C1378 0.950 . S
H1368 C1380 0.950 . S
H1369 C1381 0.950 . S
C1370 H1362 0.950 . S
C1370 C1371 1.386 . S
C1370 C1372 1.391 . S
C1371 C1370 1.386 . S
C1371 C1375 1.393 . S
C1372 H1364 0.950 . S
C1372 C1370 1.391 . S
C1372 C1373 1.400 . S
C1373 C1372 1.400 . S
C1373 C1374 1.398 . S
C1373 C1379 1.491 . S
C1374 H1365 0.950 . S
C1374 C1373 1.398 . S
C1374 C1375 1.391 . S
C1375 H1363 0.950 . S
C1375 C1371 1.393 . S
C1375 C1374 1.391 . S
C1376 H1366 0.950 . S
C1376 C1377 1.386 . S
C1376 C1378 1.391 . S
C1377 C1376 1.386 . S
C1377 C1381 1.393 . S
C1378 H1367 0.950 . S
C1378 C1376 1.391 . S
C1378 C1379 1.400 . S
C1379 C1373 1.491 . S
C1379 C1378 1.400 . S
C1379 C1380 1.398 . S
C1380 H1368 0.950 . S
C1380 C1379 1.398 . S
C1380 C1381 1.391 . S
C1381 H1369 0.950 . S
C1381 C1377 1.393 . S
C1381 C1380 1.391 . S
H1382 C1390 0.950 . S
H1383 C1395 0.950 . S
H1384 C1392 0.950 . S
H1385 C1394 0.950 . S
H1386 C1396 0.950 . S
H1387 C1398 0.950 . S
H1388 C1400 0.950 . S
H1389 C1401 0.950 . S
C1390 H1382 0.950 . S
C1390 C1391 1.386 . S
C1390 C1392 1.391 . S
C1391 C1390 1.386 . S
C1391 C1395 1.393 . S
C1392 H1384 0.950 . S
C1392 C1390 1.391 . S
C1392 C1393 1.400 . S
C1393 C1392 1.400 . S
C1393 C1394 1.398 . S
C1393 C1399 1.491 . S
C1394 H1385 0.950 . S
C1394 C1393 1.398 . S
C1394 C1395 1.391 . S
C1395 H1383 0.950 . S
C1395 C1391 1.393 . S
C1395 C1394 1.391 . S
C1396 H1386 0.950 . S
C1396 C1397 1.386 . S
C1396 C1398 1.391 . S
C1397 C1396 1.386 . S
C1397 C1401 1.393 . S
C1398 H1387 0.950 . S
C1398 C1396 1.391 . S
C1398 C1399 1.400 . S
C1399 C1393 1.491 . S
C1399 C1398 1.400 . S
C1399 C1400 1.398 . S
C1400 H1388 0.950 . S
C1400 C1399 1.398 . S
C1400 C1401 1.391 . S
C1401 H1389 0.950 . S
C1401 C1397 1.393 . S
C1401 C1400 1.391 . S
H1402 C1410 0.950 . S
H1403 C1415 0.950 . S
H1404 C1412 0.950 . S
H1405 C1414 0.950 . S
H1406 C1416 0.950 . S
H1407 C1418 0.950 . S
H1408 C1420 0.950 . S
H1409 C1421 0.950 . S
C1410 H1402 0.950 . S
C1410 C1411 1.386 . S
C1410 C1412 1.391 . S
C1411 C1410 1.386 . S
C1411 C1415 1.393 . S
C1412 H1404 0.950 . S
C1412 C1410 1.391 . S
C1412 C1413 1.400 . S
C1413 C1412 1.400 . S
C1413 C1414 1.398 . S
C1413 C1419 1.491 . S
C1414 H1405 0.950 . S
C1414 C1413 1.398 . S
C1414 C1415 1.391 . S
C1415 H1403 0.950 . S
C1415 C1411 1.393 . S
C1415 C1414 1.391 . S
C1416 H1406 0.950 . S
C1416 C1417 1.386 . S
C1416 C1418 1.391 . S
C1417 C1416 1.386 . S
C1417 C1421 1.393 . S
C1418 H1407 0.950 . S
C1418 C1416 1.391 . S
C1418 C1419 1.400 . S
C1419 C1413 1.491 . S
C1419 C1418 1.400 . S
C1419 C1420 1.398 . S
C1420 H1408 0.950 . S
C1420 C1419 1.398 . S
C1420 C1421 1.391 . S
C1421 H1409 0.950 . S
C1421 C1417 1.393 . S
C1421 C1420 1.391 . S
H1422 C1430 0.950 . S
H1423 C1435 0.950 . S
H1424 C1432 0.950 . S
H1425 C1434 0.950 . S
H1426 C1436 0.950 . S
H1427 C1438 0.950 . S
H1428 C1440 0.950 . S
H1429 C1441 0.950 . S
C1430 H1422 0.950 . S
C1430 C1431 1.386 . S
C1430 C1432 1.391 . S
C1431 C1430 1.386 . S
C1431 C1435 1.393 . S
C1432 H1424 0.950 . S
C1432 C1430 1.391 . S
C1432 C1433 1.400 . S
C1433 C1432 1.400 . S
C1433 C1434 1.398 . S
C1433 C1439 1.491 . S
C1434 H1425 0.950 . S
C1434 C1433 1.398 . S
C1434 C1435 1.391 . S
C1435 H1423 0.950 . S
C1435 C1431 1.393 . S
C1435 C1434 1.391 . S
C1436 H1426 0.950 . S
C1436 C1437 1.386 . S
C1436 C1438 1.391 . S
C1437 C1436 1.386 . S
C1437 C1441 1.393 . S
C1438 H1427 0.950 . S
C1438 C1436 1.391 . S
C1438 C1439 1.400 . S
C1439 C1433 1.491 . S
C1439 C1438 1.400 . S
C1439 C1440 1.398 . S
C1440 H1428 0.950 . S
C1440 C1439 1.398 . S
C1440 C1441 1.391 . S
C1441 H1429 0.950 . S
C1441 C1437 1.393 . S
C1441 C1440 1.391 . S
H1442 C1450 0.950 . S
H1443 C1455 0.950 . S
H1444 C1452 0.950 . S
H1445 C1454 0.950 . S
H1446 C1456 0.950 . S
H1447 C1458 0.950 . S
H1448 C1460 0.950 . S
H1449 C1461 0.950 . S
C1450 H1442 0.950 . S
C1450 C1451 1.386 . S
C1450 C1452 1.391 . S
C1451 C1450 1.386 . S
C1451 C1455 1.393 . S
C1452 H1444 0.950 . S
C1452 C1450 1.391 . S
C1452 C1453 1.400 . S
C1453 C1452 1.400 . S
C1453 C1454 1.398 . S
C1453 C1459 1.491 . S
C1454 H1445 0.950 . S
C1454 C1453 1.398 . S
C1454 C1455 1.391 . S
C1455 H1443 0.950 . S
C1455 C1451 1.393 . S
C1455 C1454 1.391 . S
C1456 H1446 0.950 . S
C1456 C1457 1.386 . S
C1456 C1458 1.391 . S
C1457 C1456 1.386 . S
C1457 C1461 1.393 . S
C1458 H1447 0.950 . S
C1458 C1456 1.391 . S
C1458 C1459 1.400 . S
C1459 C1453 1.491 . S
C1459 C1458 1.400 . S
C1459 C1460 1.398 . S
C1460 H1448 0.950 . S
C1460 C1459 1.398 . S
C1460 C1461 1.391 . S
C1461 H1449 0.950 . S
C1461 C1457 1.393 . S
C1461 C1460 1.391 . S
H1462 C1470 0.950 . S
H1463 C1475 0.950 . S
H1464 C1472 0.950 . S
H1465 C1474 0.950 . S
H1466 C1476 0.950 . S
H1467 C1478 0.950 . S
H1468 C1480 0.950 . S
H1469 C1481 0.950 . S
C1470 H1462 0.950 . S
C1470 C1471 1.386 . S
C1470 C1472 1.391 . S
C1471 C1470 1.386 . S
C1471 C1475 1.393 . S
C1472 H1464 0.950 . S
C1472 C1470 1.391 . S
C1472 C1473 1.400 . S
C1473 C1472 1.400 . S
C1473 C1474 1.398 . S
C1473 C1479 1.491 . S
C1474 H1465 0.950 . S
C1474 C1473 1.398 . S
C1474 C1475 1.391 . S
C1475 H1463 0.950 . S
C1475 C1471 1.393 . S
C1475 C1474 1.391 . S
C1476 H1466 0.950 . S
C1476 C1477 1.386 . S
C1476 C1478 1.391 . S
C1477 C1476 1.386 . S
C1477 C1481 1.393 . S
C1478 H1467 0.950 . S
C1478 C1476 1.391 . S
C1478 C1479 1.400 . S
C1479 C1473 1.491 . S
C1479 C1478 1.400 . S
C1479 C1480 1.398 . S
C1480 H1468 0.950 . S
C1480 C1479 1.398 . S
C1480 C1481 1.391 . S
C1481 H1469 0.950 . S
C1481 C1477 1.393 . S
C1481 C1480 1.391 . S
H1482 C1490 0.950 . S
H1483 C1495 0.950 . S
H1484 C1492 0.950 . S
H1485 C1494 0.950 . S
H1486 C1496 0.950 . S
H1487 C1498 0.950 . S
H1488 C1500 0.950 . S
H1489 C1501 0.950 . S
C1490 H1482 0.950 . S
C1490 C1491 1.386 . S
C1490 C1492 1.391 . S
C1491 C1490 1.386 . S
C1491 C1495 1.393 . S
C1492 H1484 0.950 . S
C1492 C1490 1.391 . S
C1492 C1493 1.400 . S
C1493 C1492 1.400 . S
C1493 C1494 1.398 . S
C1493 C1499 1.491 . S
C1494 H1485 0.950 . S
C1494 C1493 1.398 . S
C1494 C1495 1.391 . S
C1495 H1483 0.950 . S
C1495 C1491 1.393 . S
C1495 C1494 1.391 . S
C1496 H1486 0.950 . S
C1496 C1497 1.386 . S
C1496 C1498 1.391 . S
C1497 C1496 1.386 . S
C1497 C1501 1.393 . S
C1498 H1487 0.950 . S
C1498 C1496 1.391 . S
C1498 C1499 1.400 . S
C1499 C1493 1.491 . S
C1499 C1498 1.400 . S
C1499 C1500 1.398 . S
C1500 H1488 0.950 . S
C1500 C1499 1.398 . S
C1500 C1501 1.391 . S
C1501 H1489 0.950 . S
C1501 C1497 1.393 . S
C1501 C1500 1.391 . S
H1502 C1510 0.950 . S
H1503 C1515 0.950 . S
H1504 C1512 0.950 . S
H1505 C1514 0.950 . S
H1506 C1516 0.950 . S
H1507 C1518 0.950 . S
H1508 C1520 0.950 . S
H1509 C1521 0.950 . S
C1510 H1502 0.950 . S
C1510 C1511 1.386 . S
C1510 C1512 1.391 . S
C1511 C1510 1.386 . S
C1511 C1515 1.393 . S
C1512 H1504 0.950 . S
C1512 C1510 1.391 . S
C1512 C1513 1.400 . S
C1513 C1512 1.400 . S
C1513 C1514 1.398 . S
C1513 C1519 1.491 . S
C1514 H1505 0.950 . S
C1514 C1513 1.398 . S
C1514 C1515 1.391 . S
C1515 H1503 0.950 . S
C1515 C1511 1.393 . S
C1515 C1514 1.391 . S
C1516 H1506 0.950 . S
C1516 C1517 1.386 . S
C1516 C1518 1.391 . S
C1517 C1516 1.386 . S
C1517 C1521 1.393 . S
C1518 H1507 0.950 . S
C1518 C1516 1.391 . S
C1518 C1519 1.400 . S
C1519 C1513 1.491 . S
C1519 C1518 1.400 . S
C1519 C1520 1.398 . S
C1520 H1508 0.950 . S
C1520 C1519 1.398 . S
C1520 C1521 1.391 . S
C1521 H1509 0.950 . S
C1521 C1517 1.393 . S
C1521 C1520 1.391 . S
H1522 C1530 0.950 . S
H1523 C1535 0.950 . S
H1524 C1532 0.950 . S
H1525 C1534 0.950 . S
H1526 C1536 0.950 . S
H1527 C1538 0.950 . S
H1528 C1540 0.950 . S
H1529 C1541 0.950 . S
C1530 H1522 0.950 . S
C1530 C1531 1.386 . S
C1530 C1532 1.391 . S
C1531 C1530 1.386 . S
C1531 C1535 1.393 . S
C1532 H1524 0.950 . S
C1532 C1530 1.391 . S
C1532 C1533 1.400 . S
C1533 C1532 1.400 . S
C1533 C1534 1.398 . S
C1533 C1539 1.491 . S
C1534 H1525 0.950 . S
C1534 C1533 1.398 . S
C1534 C1535 1.391 . S
C1535 H1523 0.950 . S
C1535 C1531 1.393 . S
C1535 C1534 1.391 . S
C1536 H1526 0.950 . S
C1536 C1537 1.386 . S
C1536 C1538 1.391 . S
C1537 C1536 1.386 . S
C1537 C1541 1.393 . S
C1538 H1527 0.950 . S
C1538 C1536 1.391 . S
C1538 C1539 1.400 . S
C1539 C1533 1.491 . S
C1539 C1538 1.400 . S
C1539 C1540 1.398 . S
C1540 H1528 0.950 . S
C1540 C1539 1.398 . S
C1540 C1541 1.391 . S
C1541 H1529 0.950 . S
C1541 C1537 1.393 . S
C1541 C1540 1.391 . S
H1542 C1550 0.950 . S
H1543 C1555 0.950 . S
H1544 C1552 0.950 . S
H1545 C1554 0.950 . S
H1546 C1556 0.950 . S
H1547 C1558 0.950 . S
H1548 C1560 0.950 . S
H1549 C1561 0.950 . S
C1550 H1542 0.950 . S
C1550 C1551 1.386 . S
C1550 C1552 1.391 . S
C1551 C1550 1.386 . S
C1551 C1555 1.393 . S
C1552 H1544 0.950 . S
C1552 C1550 1.391 . S
C1552 C1553 1.400 . S
C1553 C1552 1.400 . S
C1553 C1554 1.398 . S
C1553 C1559 1.491 . S
C1554 H1545 0.950 . S
C1554 C1553 1.398 . S
C1554 C1555 1.391 . S
C1555 H1543 0.950 . S
C1555 C1551 1.393 . S
C1555 C1554 1.391 . S
C1556 H1546 0.950 . S
C1556 C1557 1.386 . S
C1556 C1558 1.391 . S
C1557 C1556 1.386 . S
C1557 C1561 1.393 . S
C1558 H1547 0.950 . S
C1558 C1556 1.391 . S
C1558 C1559 1.400 . S
C1559 C1553 1.491 . S
C1559 C1558 1.400 . S
C1559 C1560 1.398 . S
C1560 H1548 0.950 . S
C1560 C1559 1.398 . S
C1560 C1561 1.391 . S
C1561 H1549 0.950 . S
C1561 C1557 1.393 . S
C1561 C1560 1.391 . S
H1562 C1570 0.950 . S
H1563 C1575 0.950 . S
H1564 C1572 0.950 . S
H1565 C1574 0.950 . S
H1566 C1576 0.950 . S
H1567 C1578 0.950 . S
H1568 C1580 0.950 . S
H1569 C1581 0.950 . S
C1570 H1562 0.950 . S
C1570 C1571 1.386 . S
C1570 C1572 1.391 . S
C1571 C1570 1.386 . S
C1571 C1575 1.393 . S
C1572 H1564 0.950 . S
C1572 C1570 1.391 . S
C1572 C1573 1.400 . S
C1573 C1572 1.400 . S
C1573 C1574 1.398 . S
C1573 C1579 1.491 . S
C1574 H1565 0.950 . S
C1574 C1573 1.398 . S
C1574 C1575 1.391 . S
C1575 H1563 0.950 . S
C1575 C1571 1.393 . S
C1575 C1574 1.391 . S
C1576 H1566 0.950 . S
C1576 C1577 1.386 . S
C1576 C1578 1.391 . S
C1577 C1576 1.386 . S
C1577 C1581 1.393 . S
C1578 H1567 0.950 . S
C1578 C1576 1.391 . S
C1578 C1579 1.400 . S
C1579 C1573 1.491 . S
C1579 C1578 1.400 . S
C1579 C1580 1.398 . S
C1580 H1568 0.950 . S
C1580 C1579 1.398 . S
C1580 C1581 1.391 . S
C1581 H1569 0.950 . S
C1581 C1577 1.393 . S
C1581 C1580 1.391 . S
H1582 C1590 0.950 . S
H1583 C1595 0.950 . S
H1584 C1592 0.950 . S
H1585 C1594 0.950 . S
H1586 C1596 0.950 . S
H1587 C1598 0.950 . S
H1588 C1600 0.950 . S
H1589 C1601 0.950 . S
C1590 H1582 0.950 . S
C1590 C1591 1.386 . S
C1590 C1592 1.391 . S
C1591 C1590 1.386 . S
C1591 C1595 1.393 . S
C1592 H1584 0.950 . S
C1592 C1590 1.391 . S
C1592 C1593 1.400 . S
C1593 C1592 1.400 . S
C1593 C1594 1.398 . S
C1593 C1599 1.491 . S
C1594 H1585 0.950 . S
C1594 C1593 1.398 . S
C1594 C1595 1.391 . S
C1595 H1583 0.950 . S
C1595 C1591 1.393 . S
C1595 C1594 1.391 . S
C1596 H1586 0.950 . S
C1596 C1597 1.386 . S
C1596 C1598 1.391 . S
C1597 C1596 1.386 . S
C1597 C1601 1.393 . S
C1598 H1587 0.950 . S
C1598 C1596 1.391 . S
C1598 C1599 1.400 . S
C1599 C1593 1.491 . S
C1599 C1598 1.400 . S
C1599 C1600 1.398 . S
C1600 H1588 0.950 . S
C1600 C1599 1.398 . S
C1600 C1601 1.391 . S
C1601 H1589 0.950 . S
C1601 C1597 1.393 . S
C1601 C1600 1.391 . S
C531 C253 1.593 . S
C537 C348 1.582 . S
C551 C272 1.546 . S
C557 C368 1.528 . S
C571 C234 1.515 . S
C577 C391 1.532 . S
C591 C215 1.411 . S
C597 C371 1.421 1_556 S
C617 C388 1.443 1_556 S
C611 C177 1.470 . S
C631 C196 1.487 . S
C637 C351 1.493 . S
C657 C358 1.572 1_556 S
C651 C220 1.496 . S
C677 C378 1.447 . S
C671 C182 1.400 . S
C691 C201 1.521 . S
C697 C383 1.614 . S
C711 C258 1.426 . S
C717 C363 1.497 . S
C731 C277 1.367 . S
C737 C398 1.433 . S
C757 C343 1.605 . S
C751 C239 1.512 . S
C777 C408 1.579 . S
C771 C25 1.592 . S
C791 C44 1.546 . S
C797 C428 1.528 . S
C811 C6 1.519 . S
C817 C451 1.534 . S
C831 C329 1.424 . S
C837 C431 1.430 . S
C851 C291 1.470 . S
C857 C448 1.459 . S
C871 C310 1.486 . S
C877 C411 1.494 . S
C891 C334 1.501 . S
C897 C418 1.580 . S
C911 C296 1.396 . S
C917 C438 1.427 . S
C937 C443 1.626 . S
C931 C315 1.527 . S
C951 C30 1.406 . S
C957 C423 1.490 . S
C977 C458 1.415 . S
C971 C49 1.346 . S
C991 C11 1.484 . S
C997 C403 1.599 . S
C1017 C468 1.568 . S
C1011 C139 1.584 . S
C1031 C158 1.538 . S
C1037 C488 1.513 . S
C1057 C511 1.540 . S
C1051 C120 1.528 . S
C1077 C491 1.429 . S
C1071 C101 1.424 . S
C1097 C508 1.445 . S
C1091 C63 1.465 . S
C1111 C82 1.477 . S
C1117 C471 1.488 . S
C1131 C106 1.500 . S
C1137 C478 1.578 . S
C1151 C68 1.398 . S
C1157 C498 1.428 . S
C1177 C503 1.615 . S
C1171 C87 1.534 . S
C1191 C144 1.411 . S
C1197 C483 1.505 . S
C1211 C163 1.341 . S
C1217 C518 1.436 . S
C1231 C125 1.501 . S
C1237 C463 1.596 . S
C1251 C287 1.403 . S
C1257 C361 1.352 . S
C1277 C381 1.700 . S
C1271 C306 1.798 . S
C1291 C325 1.545 . S
C1297 C390 1.533 . S
C1311 C116 1.738 . S
C1317 C370 1.689 . S
C1331 C135 1.677 . S
C1337 C401 1.609 . S
C1357 C350 1.325 . S
C1351 C154 1.336 . S
C1371 C59 1.389 . S
C1377 C421 1.328 . S
C1391 C78 1.806 . S
C1397 C441 1.723 . S
C1411 C97 1.552 . S
C1417 C450 1.543 . S
C1431 C230 1.738 . S
C1437 C430 1.688 . S
C1457 C461 1.597 . S
C1451 C249 1.669 . S
C1471 C268 1.344 . S
C1477 C410 1.345 . S
C1491 C173 1.399 . S
C1497 C481 1.355 . S
C1511 C192 1.798 . S
C1517 C501 1.703 . S
C1537 C510 1.529 . S
C1531 C211 1.561 . S
C1551 C2 1.728 . S
C1557 C490 1.703 . S
C1571 C21 1.669 . S
C1577 C521 1.598 . S
C1591 C40 1.355 . S
C1597 C470 1.332 . S
