# Generated by pormake.
# Topology zzz, (3,6)-cn, num edge types: 1
# Building blocks:
#     Node 0, Type 0, BuildingBlock: PAMTOO_clean_linker_0, # of connection points: 3
#     Node 1, Type 0, BuildingBlock: PAMTOO_clean_linker_0, # of connection points: 3
#     Node 2, Type 0, BuildingBlock: PAMTOO_clean_linker_0, # of connection points: 3
#     Node 3, Type 0, BuildingBlock: PAMTOO_clean_linker_0, # of connection points: 3
#     Node 4, Type 0, BuildingBlock: PAMTOO_clean_linker_0, # of connection points: 3
#     Node 5, Type 0, BuildingBlock: PAMTOO_clean_linker_0, # of connection points: 3
#     Node 6, Type 0, BuildingBlock: PAMTOO_clean_linker_0, # of connection points: 3
#     Node 7, Type 0, BuildingBlock: PAMTOO_clean_linker_0, # of connection points: 3
#     Node 8, Type 1, BuildingBlock: INOVEN_clean_sbu_0, # of connection points: 6
#     Node 9, Type 1, BuildingBlock: INOVEN_clean_sbu_0, # of connection points: 6
#     Node 10, Type 1, BuildingBlock: INOVEN_clean_sbu_0, # of connection points: 6
#     Node 11, Type 1, BuildingBlock: INOVEN_clean_sbu_0, # of connection points: 6
#     Edge 12, Type (0, 1), BuildingBlock: TEMPAE_clean_linker_10, # of connection points: 2
#     Edge 13, Type (0, 1), BuildingBlock: TEMPAE_clean_linker_10, # of connection points: 2
#     Edge 14, Type (0, 1), BuildingBlock: TEMPAE_clean_linker_10, # of connection points: 2
#     Edge 15, Type (0, 1), BuildingBlock: TEMPAE_clean_linker_10, # of connection points: 2
#     Edge 16, Type (0, 1), BuildingBlock: TEMPAE_clean_linker_10, # of connection points: 2
#     Edge 17, Type (0, 1), BuildingBlock: TEMPAE_clean_linker_10, # of connection points: 2
#     Edge 18, Type (0, 1), BuildingBlock: TEMPAE_clean_linker_10, # of connection points: 2
#     Edge 19, Type (0, 1), BuildingBlock: TEMPAE_clean_linker_10, # of connection points: 2
#     Edge 20, Type (0, 1), BuildingBlock: TEMPAE_clean_linker_10, # of connection points: 2
#     Edge 21, Type (0, 1), BuildingBlock: TEMPAE_clean_linker_10, # of connection points: 2
#     Edge 22, Type (0, 1), BuildingBlock: TEMPAE_clean_linker_10, # of connection points: 2
#     Edge 23, Type (0, 1), BuildingBlock: TEMPAE_clean_linker_10, # of connection points: 2
#     Edge 24, Type (0, 1), BuildingBlock: TEMPAE_clean_linker_10, # of connection points: 2
#     Edge 25, Type (0, 1), BuildingBlock: TEMPAE_clean_linker_10, # of connection points: 2
#     Edge 26, Type (0, 1), BuildingBlock: TEMPAE_clean_linker_10, # of connection points: 2
#     Edge 27, Type (0, 1), BuildingBlock: TEMPAE_clean_linker_10, # of connection points: 2
#     Edge 28, Type (0, 1), BuildingBlock: TEMPAE_clean_linker_10, # of connection points: 2
#     Edge 29, Type (0, 1), BuildingBlock: TEMPAE_clean_linker_10, # of connection points: 2
#     Edge 30, Type (0, 1), BuildingBlock: TEMPAE_clean_linker_10, # of connection points: 2
#     Edge 31, Type (0, 1), BuildingBlock: TEMPAE_clean_linker_10, # of connection points: 2
#     Edge 32, Type (0, 1), BuildingBlock: TEMPAE_clean_linker_10, # of connection points: 2
#     Edge 33, Type (0, 1), BuildingBlock: TEMPAE_clean_linker_10, # of connection points: 2
#     Edge 34, Type (0, 1), BuildingBlock: TEMPAE_clean_linker_10, # of connection points: 2
#     Edge 35, Type (0, 1), BuildingBlock: TEMPAE_clean_linker_10, # of connection points: 2
# Relax obj value: 0.258
# Max RMSD: 0.185
# Mean RMSD: 0.159
data_MOF--net-zzz--node1-INOVEN_clean_sbu_0--node2-PAMTOO_clean_linker_0--edge1-TEMPAE_clean_linker_10
_symmetry_space_group_name_H-M    P1
_symmetry_Int_Tables_number       1
_symmetry_cell_setting            triclinic
loop_
_symmetry_equiv_pos_as_xyz
'x, y, z'
_cell_length_a     52.534988
_cell_length_b     52.702704
_cell_length_c     13.520362
_cell_angle_alpha  90.177106
_cell_angle_beta   89.983323
_cell_angle_gamma 90.094131
loop_
_atom_site_label
_atom_site_type_symbol
_atom_site_fract_x
_atom_site_fract_y
_atom_site_fract_z
_atom_type_partial_charge
H0 H 0.81911 0.49303 0.31711 0.0
H1 H 0.74411 0.49394 0.19253 0.0
H2 H 0.75768 0.52731 0.48013 0.0
H3 H 0.72509 0.54735 0.24418 0.0
C4 C 0.71169 0.53857 0.29807 0.0
O5 O 0.7224 0.51714 0.34077 0.0
H6 H 0.70847 0.55284 0.3574 0.0
C7 C 0.79919 0.49833 0.32305 0.0
C8 C 0.79072 0.51051 0.40884 0.0
C9 C 0.78272 0.49274 0.24464 0.0
C10 C 0.75692 0.49876 0.25235 0.0
C11 C 0.74772 0.51161 0.33606 0.0
C12 C 0.76474 0.51772 0.41474 0.0
H13 H 0.06774 0.81796 0.36013 0.0
H14 H 0.0497 0.75168 0.19046 0.0
H15 H 1.00765 0.76826 0.45702 0.0
H16 H 1.01194 0.70542 0.40665 0.0
C17 C 0.02263 0.71083 0.33898 0.0
O18 O 1.01457 0.73473 0.30948 0.0
H19 H 0.04314 0.71115 0.36001 0.0
C20 C 0.0571 0.80041 0.35331 0.0
C21 C 0.03751 0.79527 0.42055 0.0
C22 C 0.06138 0.78515 0.27028 0.0
C23 C 0.04695 0.76315 0.25623 0.0
C24 C 0.0283 0.7563 0.32556 0.0
C25 C 0.02302 0.77277 0.40664 0.0
H26 H 0.71912 0.04863 0.28694 0.0
H27 H 0.79617 0.04948 0.18043 0.0
H28 H 0.77936 0.0207 0.4721 0.0
H29 H 0.81605 0.99491 0.27888 0.0
C30 C 0.82948 1.00913 0.31088 0.0
O31 O 0.81634 0.03076 0.34011 0.0
H32 H 0.83795 1.00029 0.37759 0.0
C33 C 0.73911 0.0443 0.29818 0.0
C34 C 0.74673 0.034 0.38843 0.0
C35 C 0.7566 0.04958 0.2227 0.0
C36 C 0.7825 0.04493 0.23776 0.0
C37 C 0.79088 0.0342 0.32677 0.0
C38 C 0.77291 0.02855 0.40259 0.0
H39 H 0.48473 0.72184 0.28898 0.0
H40 H 0.49692 0.79478 0.15718 0.0
H41 H 0.52717 0.77887 0.44734 0.0
H42 H 0.51532 0.84201 0.40387 0.0
C43 C 0.50906 0.83548 0.32951 0.0
O44 O 0.52267 0.81383 0.3046 0.0
H45 H 0.48832 0.83126 0.33575 0.0
C46 C 0.49229 0.74098 0.29446 0.0
C47 C 0.5059 0.7481 0.37898 0.0
C48 C 0.48924 0.75745 0.21438 0.0
C49 C 0.49904 0.78207 0.21945 0.0
C50 C 0.51241 0.79011 0.30379 0.0
C51 C 0.51623 0.77295 0.38344 0.0
H52 H 0.23244 0.4716 0.12101 0.0
H53 H 0.30385 0.49095 0.25679 0.0
H54 H 0.27901 0.53028 0.99589 0.0
H55 H 0.34719 0.5314 0.04173 0.0
C56 C 0.3403 0.51763 0.09767 0.0
O57 O 0.31635 0.52526 0.12954 0.0
H58 H 0.33912 0.49882 0.05999 0.0
C59 C 0.2503 0.48186 0.1194 0.0
C60 C 0.25345 0.50071 0.04759 0.0
C61 C 0.26768 0.4788 0.19758 0.0
C62 C 0.29038 0.49278 0.19653 0.0
C63 C 0.29503 0.51068 0.12243 0.0
C64 C 0.27621 0.51522 0.04913 0.0
H65 H 0.97248 0.22784 0.14213 0.0
H66 H 0.98173 0.29922 0.28927 0.0
H67 H 0.02583 0.28234 0.02731 0.0
H68 H 0.05225 0.32554 0.17881 0.0
C69 C 0.03471 0.32452 0.22458 0.0
O70 O 1.01448 0.31793 0.1635 0.0
H71 H 0.03808 0.30959 0.28123 0.0
C72 C 0.98117 0.24649 0.14424 0.0
C73 C 0.99949 0.2528 0.0735 0.0
C74 C 0.97506 0.26275 0.22238 0.0
C75 C 0.98646 0.28664 0.22857 0.0
C76 C 1.00454 0.29407 0.1578 0.0
C77 C 1.01156 0.27686 0.08099 0.0
H78 H 0.31496 0.98533 0.18073 0.0
H79 H 0.24186 0.9974 0.31403 0.0
H80 H 0.25814 0.02854 0.02572 0.0
H81 H 0.20507 0.99065 0.12777 0.0
C82 C 0.20078 1.01088 0.14522 0.0
O83 O 0.223 0.02387 0.16941 0.0
H84 H 0.19271 0.01934 0.07699 0.0
C85 C 0.29579 0.99292 0.17562 0.0
C86 C 0.28884 1.00684 0.09205 0.0
C87 C 0.27923 0.98971 0.2557 0.0
C88 C 0.2546 0.99959 0.25158 0.0
C89 C 0.24664 1.01325 0.16831 0.0
C90 C 0.26394 0.01729 0.08864 0.0
H91 H 0.5508 0.32081 0.18112 0.0
H92 H 0.53813 0.24802 0.31351 0.0
H93 H 0.50803 0.26395 0.02311 0.0
H94 H 0.54654 0.21139 0.13552 0.0
C95 C 0.52578 0.20728 0.14181 0.0
O96 O 0.51229 0.22904 0.16629 0.0
H97 H 0.5195 0.2007 0.06756 0.0
C98 C 0.54309 0.30172 0.17581 0.0
C99 C 0.52947 0.29464 0.09129 0.0
C100 C 0.54605 0.28527 0.25601 0.0
C101 C 0.53609 0.26072 0.25114 0.0
C102 C 0.52268 0.25271 0.16685 0.0
C103 C 0.51899 0.26984 0.08701 0.0
Gd104 Gd 0.03358 0.01783 0.85258 0.0
Gd105 Gd 1.00512 0.03021 0.64498 0.0
C106 C 0.01938 0.97145 0.70343 0.0
C107 C 0.04534 1.00755 0.03244 0.0
C108 C 0.06357 0.98977 0.07649 0.0
C109 C 0.08776 0.98599 0.03453 0.0
C110 C 0.05515 0.9736 0.15142 0.0
C111 C 0.09274 0.94716 0.12917 0.0
C112 C 0.06949 0.95244 0.17727 0.0
C113 C 0.10235 0.96495 0.06143 0.0
C114 C 0.06734 0.01963 0.69635 0.0
C115 C 0.01932 0.0766 0.79405 0.0
C116 C 0.99335 0.0407 0.46554 0.0
C117 C 0.97498 0.05861 0.42333 0.0
C118 C 0.95108 0.06249 0.4677 0.0
C119 C 0.98304 0.07485 0.34809 0.0
C120 C 0.94559 0.10132 0.3736 0.0
C121 C 0.9686 0.09606 0.32371 0.0
C122 C 0.93641 0.08359 0.44243 0.0
C123 C 0.97125 0.0283 0.80057 0.0
O124 O 0.02421 0.97823 0.79646 0.0
O125 O 1.01452 0.9883 0.63291 0.0
O126 O 0.05497 0.02697 0.98461 0.0
O127 O 0.0262 0.99671 0.98613 0.0
O128 O 0.07376 1.01499 0.78714 0.0
O129 O 0.04368 0.02325 0.69697 0.0
O130 O 1.01459 0.0698 0.70101 0.0
O131 O 0.0241 0.05976 0.86466 0.0
O132 O 0.98382 0.02112 0.51275 0.0
O133 O 1.01259 0.05142 0.5117 0.0
O134 O 0.96497 0.03332 0.70998 0.0
O135 O 0.99492 0.02465 0.80053 0.0
H136 H 0.09475 0.99834 0.97667 0.0
H137 H 0.03655 0.97623 0.18462 0.0
H138 H 0.06113 0.93919 0.22901 0.0
H139 H 0.12041 0.96184 0.02474 0.0
H140 H 0.9444 0.05012 0.52603 0.0
H141 H 1.00145 0.07222 0.31336 0.0
H142 H 0.97668 0.10932 0.27134 0.0
H143 H 0.91857 0.08671 0.4807 0.0
Gd144 Gd 0.52223 0.03775 0.81325 0.0
Gd145 Gd 0.51232 1.00494 0.65831 0.0
C146 C 0.56963 0.02083 0.67305 0.0
C147 C 0.54079 0.06348 0.95936 0.0
C148 C 0.56325 0.07993 0.96727 0.0
C149 C 0.57234 0.09336 0.8848 0.0
C150 C 0.57743 0.07981 0.05456 0.0
C151 C 0.61111 0.10416 0.97413 0.0
C152 C 0.60115 0.09165 0.05795 0.0
C153 C 0.59598 0.10557 0.8885 0.0
C154 C 0.51014 0.06388 0.64531 0.0
C155 C 0.46487 0.0219 0.7985 0.0
C156 C 0.49398 0.97886 0.51276 0.0
C157 C 0.47202 0.96171 0.50622 0.0
C158 C 0.46346 0.94835 0.58972 0.0
C159 C 0.45778 0.96095 0.41912 0.0
C160 C 0.425 0.93587 0.50173 0.0
C161 C 0.43448 0.94829 0.41687 0.0
C162 C 0.44025 0.93534 0.58723 0.0
C163 C 0.52443 0.97895 0.82647 0.0
O164 O 0.56266 0.02704 0.76393 0.0
O165 O 0.55187 1.01515 0.60798 0.0
O166 O 0.52232 0.07174 0.90365 0.0
O167 O 0.54572 0.03947 0.94484 0.0
O168 O 0.50089 0.06839 0.73211 0.0
O169 O 0.5249 0.04501 0.6499 0.0
O170 O 0.47184 1.01552 0.70775 0.0
O171 O 0.48263 0.02777 0.86333 0.0
O172 O 0.51293 0.97111 0.56708 0.0
O173 O 0.48836 1.00269 0.52807 0.0
O174 O 0.53375 0.97442 0.73982 0.0
O175 O 0.50958 0.99772 0.82145 0.0
H176 H 0.56168 0.09351 0.81621 0.0
H177 H 0.5708 0.06934 0.11851 0.0
H178 H 0.61227 0.08943 0.12472 0.0
H179 H 0.60277 0.11522 0.82302 0.0
H180 H 0.47419 0.94886 0.65815 0.0
H181 H 0.464 0.97133 0.35436 0.0
H182 H 0.42323 0.94982 0.35012 0.0
H183 H 0.43382 0.9258 0.65349 0.0
Gd184 Gd 0.5018 0.5264 0.80961 0.0
Gd185 Gd 0.53562 0.51636 0.65917 0.0
C186 C 0.51967 0.57334 0.67102 0.0
C187 C 0.47482 0.54499 0.95223 0.0
C188 C 0.45773 0.56692 0.95743 0.0
C189 C 0.44492 0.57559 0.87278 0.0
C190 C 0.45651 0.58103 0.04482 0.0
C191 C 0.43213 0.61391 0.96054 0.0
C192 C 0.44398 0.60431 0.04641 0.0
C193 C 0.43204 0.5988 0.87455 0.0
C194 C 0.47657 0.51398 0.63896 0.0
C195 C 0.5176 0.46942 0.79769 0.0
C196 C 0.56289 0.4978 0.51734 0.0
C197 C 0.57967 0.47561 0.51241 0.0
C198 C 0.59221 0.46672 0.59731 0.0
C199 C 0.58086 0.46153 0.42493 0.0
C200 C 0.60467 0.42829 0.50955 0.0
C201 C 0.59308 0.43809 0.42348 0.0
C202 C 0.60481 0.44336 0.59565 0.0
C203 C 0.56063 0.52937 0.82925 0.0
O204 O 0.51293 0.56657 0.76134 0.0
O205 O 0.52567 0.55554 0.60673 0.0
O206 O 0.46726 0.52609 0.89708 0.0
O207 O 0.49884 0.55052 0.93923 0.0
O208 O 0.47149 0.50498 0.72548 0.0
O209 O 0.4955 0.52871 0.64527 0.0
O210 O 0.52438 0.47619 0.70741 0.0
O211 O 0.51163 0.48722 0.86193 0.0
O212 O 0.5705 0.51643 0.57378 0.0
O213 O 0.53874 0.49262 0.5285 0.0
O214 O 0.56531 0.53861 0.74281 0.0
O215 O 0.54204 0.51417 0.82329 0.0
H216 H 0.4458 0.56497 0.80412 0.0
H217 H 0.46649 0.57474 0.11044 0.0
H218 H 0.44518 0.61545 0.11364 0.0
H219 H 0.42296 0.60533 0.80746 0.0
H220 H 0.59137 0.47732 0.66604 0.0
H221 H 0.57111 0.46801 0.35904 0.0
H222 H 0.59185 0.427 0.35613 0.0
H223 H 0.61372 0.4367 0.66291 0.0
Gd224 Gd 1.01373 0.50742 0.84331 0.0
Gd225 Gd 0.0244 0.53662 0.67499 0.0
C226 C 0.96597 0.52489 0.70164 0.0
C227 C 0.99561 0.48536 0.99805 0.0
C228 C 0.97454 0.46724 0.00685 0.0
C229 C 0.96734 0.45221 0.92545 0.0
C230 C 0.95968 0.4671 0.09241 0.0
C231 C 0.92881 0.4393 0.01135 0.0
C232 C 0.937 0.45335 0.09468 0.0
C233 C 0.94476 0.43818 0.92796 0.0
C234 C 0.02575 0.47754 0.68446 0.0
C235 C 0.07108 0.51922 0.81388 0.0
C236 C 0.04632 0.55126 0.51584 0.0
C237 C 0.06891 0.53854 0.47565 0.0
C238 C 0.09039 0.55273 0.44908 0.0
C239 C 0.07088 0.51199 0.48364 0.0
C240 C 0.11586 0.5142 0.44706 0.0
C241 C 0.09414 0.49995 0.46972 0.0
C242 C 0.11373 0.54062 0.43439 0.0
C243 C 1.01209 0.5669 0.83149 0.0
O244 O 0.97326 0.5161 0.78886 0.0
O245 O 0.98305 0.53288 0.63766 0.0
O246 O 1.01562 0.47714 0.95071 0.0
O247 O 0.98897 0.50826 0.97161 0.0
O248 O 0.03394 0.47404 0.77336 0.0
O249 O 1.01145 0.49674 0.68342 0.0
O250 O 0.06325 0.52105 0.72138 0.0
O251 O 0.05381 0.51824 0.8843 0.0
O252 O 0.05009 0.56262 0.60055 0.0
O253 O 0.0254 0.53783 0.51476 0.0
O254 O 1.00452 0.57048 0.7413 0.0
O255 O 0.02626 0.54749 0.83509 0.0
H256 H 0.97858 0.45222 0.85821 0.0
H257 H 0.96486 0.47876 0.15548 0.0
H258 H 0.9251 0.45528 0.15963 0.0
H259 H 0.93926 0.42743 0.863 0.0
H260 H 0.0894 0.57323 0.44473 0.0
H261 H 0.05472 0.50057 0.50583 0.0
H262 H 0.09524 0.47955 0.47846 0.0
H263 H 0.13033 0.552 0.4172 0.0
C264 C 0.17452 0.03577 0.2717 0.0
C265 C 0.18075 1.0125 0.22714 0.0
C266 C 0.15486 0.03759 0.34286 0.0
C267 C 0.14078 1.01565 0.37009 0.0
C268 C 0.1466 0.99222 0.32335 0.0
C269 C 0.16633 0.99098 0.25254 0.0
C270 C 0.14926 0.06301 0.38952 0.0
C271 C 0.13219 0.96832 0.34897 0.0
C272 C 0.11127 1.01424 0.62874 0.0
C273 C 0.08538 0.01898 0.61063 0.0
C274 C 0.12922 1.01306 0.55154 0.0
C275 C 0.12137 1.01682 0.45241 0.0
C276 C 0.09517 0.02152 0.43318 0.0
C277 C 0.0775 0.02252 0.51242 0.0
C278 C 0.15671 1.00763 0.57634 0.0
C279 C 0.08584 0.02559 0.32892 0.0
H280 H 0.18502 0.05262 0.25058 0.0
H281 H 0.17047 0.97304 0.21667 0.0
H282 H 0.12883 0.06774 0.38021 0.0
H283 H 0.1531 0.06219 0.47014 0.0
H284 H 0.16092 0.07849 0.35706 0.0
H285 H 0.13839 0.9518 0.30382 0.0
H286 H 0.13502 0.96375 0.42826 0.0
H287 H 0.11149 0.97118 0.33755 0.0
H288 H 0.11762 1.01134 0.70414 0.0
H289 H 0.05756 0.02598 0.49746 0.0
H290 H 0.16895 0.02351 0.55105 0.0
H291 H 0.1631 0.99027 0.5369 0.0
H292 H 0.15976 1.00491 0.65691 0.0
H293 H 0.09499 0.04276 0.29749 0.0
H294 H 0.06485 0.02796 0.32544 0.0
H295 H 0.09132 1.00932 0.28129 0.0
C296 C 0.50361 0.1672 0.20217 0.0
C297 C 0.52177 0.18637 0.21792 0.0
C298 C 0.50103 0.14669 0.26839 0.0
C299 C 0.51686 0.14528 0.35325 0.0
C300 C 0.53485 0.16493 0.37045 0.0
C301 C 0.53703 0.1852 0.30294 0.0
C302 C 0.48152 0.12636 0.24695 0.0
C303 C 0.55204 0.16442 0.45983 0.0
C304 C 0.49589 0.10561 0.57573 0.0
C305 C 0.51077 0.08362 0.56614 0.0
C306 C 0.49743 0.12552 0.50657 0.0
C307 C 0.51429 0.12359 0.42502 0.0
C308 C 0.529 0.10117 0.41368 0.0
C309 C 0.52706 0.08149 0.48418 0.0
C310 C 0.48127 0.14887 0.52192 0.0
C311 C 0.54717 0.09815 0.32792 0.0
H312 H 0.49171 0.16802 0.13681 0.0
H313 H 0.55105 0.19996 0.31558 0.0
H314 H 0.49108 0.10772 0.23864 0.0
H315 H 0.46805 0.12473 0.30984 0.0
H316 H 0.4705 0.13029 0.17859 0.0
H317 H 0.56496 0.18111 0.46303 0.0
H318 H 0.54046 0.16399 0.52842 0.0
H319 H 0.56375 0.14691 0.45875 0.0
H320 H 0.4832 0.10747 0.63858 0.0
H321 H 0.53868 0.06463 0.4761 0.0
H322 H 0.46944 0.1524 0.45545 0.0
H323 H 0.4937 0.16571 0.53242 0.0
H324 H 0.46853 0.14716 0.58717 0.0
H325 H 0.53681 0.10034 0.25696 0.0
H326 H 0.55681 0.07941 0.32801 0.0
H327 H 0.56189 0.11326 0.33087 0.0
C328 C 0.37913 0.49834 0.17979 0.0
C329 C 0.35969 0.51661 0.18189 0.0
C330 C 0.39861 0.49801 0.25158 0.0
C331 C 0.39897 0.51653 0.3279 0.0
C332 C 0.37951 0.53521 0.32992 0.0
C333 C 0.36031 0.53517 0.25664 0.0
C334 C 0.41893 0.47785 0.24538 0.0
C335 C 0.37902 0.55533 0.40953 0.0
C336 C 0.43451 0.5006 0.56714 0.0
C337 C 0.45744 0.5141 0.55689 0.0
C338 C 0.41545 0.50135 0.49382 0.0
C339 C 0.41925 0.51584 0.40686 0.0
C340 C 0.44252 0.52932 0.39541 0.0
C341 C 0.46127 0.52833 0.47046 0.0
C342 C 0.39108 0.48669 0.50986 0.0
C343 C 0.44758 0.54487 0.30392 0.0
H344 H 0.37923 0.48433 0.12094 0.0
H345 H 0.34582 0.54978 0.2575 0.0
H346 H 0.43797 0.48685 0.23949 0.0
H347 H 0.41888 0.46631 0.31387 0.0
H348 H 0.41619 0.46498 0.18099 0.0
H349 H 0.3627 0.56852 0.40115 0.0
H350 H 0.37784 0.54628 0.48338 0.0
H351 H 0.39694 0.5665 0.40768 0.0
H352 H 0.43129 0.48956 0.63348 0.0
H353 H 0.47886 0.53888 0.46177 0.0
H354 H 0.38841 0.47265 0.44942 0.0
H355 H 0.37458 0.49979 0.5078 0.0
H356 H 0.39091 0.47649 0.58163 0.0
H357 H 0.44656 0.5326 0.23721 0.0
H358 H 0.46654 0.55423 0.30588 0.0
H359 H 0.43275 0.55968 0.29585 0.0
C360 C 0.04505 0.37113 0.25671 0.0
C361 C 0.03013 0.34968 0.27809 0.0
C362 C 0.04347 0.39343 0.31462 0.0
C363 C 0.02648 0.39451 0.39611 0.0
C364 C 1.01053 0.37329 0.41506 0.0
C365 C 1.01261 0.3512 0.35627 0.0
C366 C 0.06089 0.41542 0.29129 0.0
C367 C 0.992 0.3735 0.50034 0.0
C368 C 0.04296 0.4365 0.61861 0.0
C369 C 0.02674 0.4574 0.60647 0.0
C370 C 0.04333 0.41632 0.55003 0.0
C371 C 0.02696 0.41676 0.46661 0.0
C372 C 1.0109 0.43811 0.45266 0.0
C373 C 1.01104 0.45819 0.52245 0.0
C374 C 0.06104 0.39427 0.56789 0.0
C375 C 0.99317 0.43952 0.36504 0.0
H376 H 0.05867 0.37016 0.19662 0.0
H377 H 1.00116 0.33471 0.37381 0.0
H378 H 0.04986 0.4333 0.28645 0.0
H379 H 0.07495 0.41784 0.35184 0.0
H380 H 0.07138 0.41258 0.22077 0.0
H381 H 0.97937 0.35657 0.50006 0.0
H382 H 1.00263 0.37394 0.57121 0.0
H383 H 0.98003 0.39081 0.49776 0.0
H384 H 0.0553 0.43577 0.6828 0.0
H385 H 0.99848 0.47426 0.51226 0.0
H386 H 0.07358 0.39141 0.50278 0.0
H387 H 0.04983 0.37661 0.57779 0.0
H388 H 0.07317 0.39714 0.63432 0.0
H389 H 1.00407 0.4374 0.29522 0.0
H390 H 0.98251 0.45769 0.36265 0.0
H391 H 0.9793 0.42364 0.36803 0.0
C392 C 0.86753 0.03544 0.25006 0.0
C393 C 0.85091 1.01475 0.23747 0.0
C394 C 0.88859 0.0392 0.18626 0.0
C395 C 0.89359 0.02154 0.109 0.0
C396 C 0.87712 1.00037 0.0976 0.0
C397 C 0.85617 0.99726 0.16161 0.0
C398 C 0.90552 0.06203 0.20177 0.0
C399 C 0.88161 0.98089 0.01736 0.0
C400 C 0.92886 0.03942 0.87198 0.0
C401 C 0.95295 0.02843 0.88537 0.0
C402 C 0.91 0.03842 0.94592 0.0
C403 C 0.91495 0.02568 0.03598 0.0
C404 C 0.93957 1.01519 0.05143 0.0
C405 C 0.95832 1.01684 0.97626 0.0
C406 C 0.88441 0.05038 0.92612 0.0
C407 C 0.9458 1.00139 0.14588 0.0
H408 H 0.86413 0.04865 0.3102 0.0
H409 H 0.84392 0.98084 0.15282 0.0
H410 H 0.92489 0.05575 0.22317 0.0
H411 H 0.9074 0.07289 0.13195 0.0
H412 H 0.89814 0.07491 0.26028 0.0
H413 H 0.86783 0.96491 0.0209 0.0
H414 H 0.88001 0.98996 0.94369 0.0
H415 H 0.90117 0.97313 0.02346 0.0
H416 H 0.92454 0.04864 0.80242 0.0
H417 H 0.97681 1.00828 0.98731 0.0
H418 H 0.87904 0.06313 0.98815 0.0
H419 H 0.86962 0.03539 0.92091 0.0
H420 H 0.88425 0.06148 0.85639 0.0
H421 H 0.94164 1.01364 0.21072 0.0
H422 H 0.96607 0.99548 0.14909 0.0
H423 H 0.93362 0.98425 0.15226 0.0
C424 C 0.53103 0.87572 0.26976 0.0
C425 C 0.51296 0.85649 0.25376 0.0
C426 C 0.53356 0.89626 0.20368 0.0
C427 C 0.51777 0.89763 0.11872 0.0
C428 C 0.49985 0.87793 0.10129 0.0
C429 C 0.49773 0.85763 0.16867 0.0
C430 C 0.553 0.91665 0.22535 0.0
C431 C 0.4827 0.87841 0.01178 0.0
C432 C 0.50747 0.96136 0.98754 0.0
C433 C 0.52382 0.95925 0.90575 0.0
C434 C 0.50555 0.94169 0.0581 0.0
C435 C 0.52033 0.91931 0.04696 0.0
C436 C 0.53726 0.91741 0.9656 0.0
C437 C 0.53879 0.9373 0.89641 0.0
C438 C 0.48732 0.94467 0.14367 0.0
C439 C 0.55349 0.8941 0.95049 0.0
H440 H 0.54292 0.87491 0.33517 0.0
H441 H 0.48377 0.84281 0.15584 0.0
H442 H 0.56652 0.91831 0.16265 0.0
H443 H 0.54337 0.93527 0.23345 0.0
H444 H 0.56396 0.91277 0.29389 0.0
H445 H 0.46982 0.86169 0.00851 0.0
H446 H 0.47097 0.89589 0.01272 0.0
H447 H 0.49433 0.87884 0.94329 0.0
H448 H 0.49579 0.97818 0.99541 0.0
H449 H 0.55152 0.93546 0.83369 0.0
H450 H 0.49763 0.94249 0.21474 0.0
H451 H 0.47262 0.92955 0.14055 0.0
H452 H 0.47765 0.96341 0.1435 0.0
H453 H 0.56528 0.89061 0.0171 0.0
H454 H 0.56627 0.89583 0.88538 0.0
H455 H 0.54112 0.87723 0.93989 0.0
C456 C 0.68673 0.51709 0.15927 0.0
C457 C 0.68685 0.53266 0.24369 0.0
C458 C 0.66481 0.51459 0.09948 0.0
C459 C 0.64235 0.52824 0.12349 0.0
C460 C 0.64206 0.54319 0.21095 0.0
C461 C 0.6642 0.54521 0.26967 0.0
C462 C 0.66612 0.49826 0.00776 0.0
C463 C 0.61874 0.55817 0.23988 0.0
C464 C 0.6001 0.54748 0.90582 0.0
C465 C 0.58008 0.52983 0.91006 0.0
C466 C 0.62003 0.54737 0.9755 0.0
C467 C 0.6203 0.52901 0.05198 0.0
C468 C 0.59984 0.5114 0.05805 0.0
C469 C 0.57996 0.51206 0.98734 0.0
C470 C 0.64109 0.56676 0.96609 0.0
C471 C 0.59927 0.49147 0.13792 0.0
H472 H 0.70412 0.50761 0.13766 0.0
H473 H 0.66408 0.55746 0.3342 0.0
H474 H 0.64949 0.48529 1.00437 0.0
H475 H 0.66542 0.51049 0.94115 0.0
H476 H 0.68383 0.48679 0.00483 0.0
H477 H 0.6206 0.56682 0.31456 0.0
H478 H 0.61558 0.57355 0.18541 0.0
H479 H 0.60161 0.54584 0.23881 0.0
H480 H 0.60037 0.56134 0.84674 0.0
H481 H 0.56467 0.49827 0.99112 0.0
H482 H 0.65948 0.55702 0.9527 0.0
H483 H 0.64301 0.57765 0.03604 0.0
H484 H 0.63768 0.5803 0.90474 0.0
H485 H 0.61601 0.47882 0.13016 0.0
H486 H 0.58171 0.47971 0.13496 0.0
H487 H 0.60053 0.50055 0.21189 0.0
C488 C 0.0364 0.6887 0.18021 0.0
C489 C 0.01884 0.69095 0.25795 0.0
C490 C 0.03474 0.66872 0.11058 0.0
C491 C 1.01497 0.65042 0.11827 0.0
C492 C 0.99674 0.65308 0.19511 0.0
C493 C 0.99886 0.67327 0.26358 0.0
C494 C 0.0545 0.6669 0.0299 0.0
C495 C 0.97527 0.63425 0.20636 0.0
C496 C 0.99882 0.61035 0.88937 0.0
C497 C 1.01179 0.58755 0.90779 0.0
C498 C 0.9995 0.63075 0.9572 0.0
C499 C 1.01347 0.62848 0.04648 0.0
C500 C 0.02624 0.6053 0.06633 0.0
C501 C 0.02525 0.58518 0.997 0.0
C502 C 0.98552 0.65491 0.93254 0.0
C503 C 0.04127 0.60186 0.16043 0.0
H504 H 0.0519 0.70224 0.17551 0.0
H505 H 0.98519 0.67486 0.32335 0.0
H506 H 0.06524 0.64889 0.03736 0.0
H507 H 0.04513 0.66657 0.95638 0.0
H508 H 0.06822 0.68296 0.03204 0.0
H509 H 0.96221 0.63932 0.26793 0.0
H510 H 0.96411 0.6331 0.13685 0.0
H511 H 0.98314 0.61508 0.22049 0.0
H512 H 0.98832 0.61242 0.82089 0.0
H513 H 0.03533 0.56769 0.01211 0.0
H514 H 0.9992 0.67092 0.92799 0.0
H515 H 0.97174 0.65955 0.99206 0.0
H516 H 0.97507 0.65354 0.8613 0.0
H517 H 0.05684 0.61608 0.16392 0.0
H518 H 0.0497 0.5826 0.16612 0.0
H519 H 0.02883 0.60513 0.22555 0.0
C520 C 0.93381 0.24809 0.2889 0.0
C521 C 0.95997 0.25177 0.30316 0.0
C522 C 0.92183 0.22617 0.32531 0.0
C523 C 0.93687 0.2073 0.37091 0.0
C524 C 0.96209 0.21323 0.40043 0.0
C525 C 0.97314 0.23592 0.36808 0.0
C526 C 0.89411 0.22165 0.30263 0.0
C527 C 0.97871 0.19413 0.45281 0.0
C528 C 0.92523 0.13991 0.44918 0.0
C529 C 0.93399 0.12695 0.3647 0.0
C530 C 0.92228 0.16639 0.44863 0.0
C531 C 0.92943 0.18014 0.36335 0.0
C532 C 0.93499 0.16679 0.27447 0.0
C533 C 0.93632 0.1403 0.27586 0.0
C534 C 0.91386 0.17946 0.54248 0.0
C535 C 0.94342 0.18011 0.18121 0.0
H536 H 0.92351 0.26058 0.23953 0.0
H537 H 0.99334 0.23907 0.37961 0.0
H538 H 0.89229 0.21138 0.23123 0.0
H539 H 0.88505 0.20991 0.36097 0.0
H540 H 0.88367 0.23988 0.29608 0.0
H541 H 0.99764 0.20208 0.47266 0.0
H542 H 0.96932 0.18759 0.52153 0.0
H543 H 0.98167 0.17729 0.40461 0.0
H544 H 0.9227 0.12989 0.51832 0.0
H545 H 0.94183 0.13026 0.2091 0.0
H546 H 0.89763 0.169 0.57579 0.0
H547 H 0.90803 0.19942 0.52979 0.0
H548 H 0.92958 0.17915 0.59725 0.0
H549 H 0.93189 0.19721 0.16614 0.0
H550 H 0.9423 0.16747 0.11541 0.0
H551 H 0.96356 0.18604 0.19025 0.0
C552 C 0.31112 0.98927 0.38764 0.0
C553 C 0.28964 0.97796 0.34559 0.0
C554 C 0.32839 0.97493 0.44216 0.0
C555 C 0.32323 0.94883 0.45917 0.0
C556 C 0.29929 0.93861 0.43136 0.0
C557 C 0.28285 0.95323 0.37244 0.0
C558 C 0.35366 0.98699 0.46847 0.0
C559 C 0.29176 0.91174 0.45567 0.0
C560 C 0.38608 0.91965 0.41568 0.0
C561 C 0.39793 0.92733 0.50379 0.0
C562 C 0.3598 0.92261 0.40332 0.0
C563 C 0.34512 0.93212 0.48308 0.0
C564 C 0.35604 0.93331 0.57837 0.0
C565 C 0.38262 0.9318 0.58754 0.0
C566 C 0.34866 0.91934 0.30112 0.0
C567 C 0.34018 0.9398 0.66776 0.0
H568 H 0.31598 1.00859 0.36731 0.0
H569 H 0.26592 0.94463 0.34095 0.0
H570 H 0.35798 0.98417 0.54769 0.0
H571 H 0.36912 0.97797 0.42487 0.0
H572 H 0.354 1.00771 0.45347 0.0
H573 H 0.29188 0.90008 0.3872 0.0
H574 H 0.30451 0.90294 0.51122 0.0
H575 H 0.27197 0.91144 0.48452 0.0
H576 H 0.39763 0.91422 0.35266 0.0
H577 H 0.39121 0.93671 0.65786 0.0
H578 H 0.34301 0.93811 0.27118 0.0
H579 H 0.3314 0.90728 0.30449 0.0
H580 H 0.36235 0.91049 0.24875 0.0
H581 H 0.34017 0.96063 0.67949 0.0
H582 H 0.34823 0.93085 0.73507 0.0
H583 H 0.32017 0.93343 0.65811 0.0
C584 C 0.58246 0.28764 0.37472 0.0
C585 C 0.55814 0.29552 0.34592 0.0
C586 C 0.59771 0.30342 0.4345 0.0
C587 C 0.58855 0.32776 0.46157 0.0
C588 C 0.56276 0.33413 0.44231 0.0
C589 C 0.54775 0.31755 0.38676 0.0
C590 C 0.62415 0.29469 0.46078 0.0
C591 C 0.5518 0.35987 0.46789 0.0
C592 C 0.6072 0.38587 0.59439 0.0
C593 C 0.61262 0.40114 0.51171 0.0
C594 C 0.60489 0.35944 0.58391 0.0
C595 C 0.60623 0.34873 0.48828 0.0
C596 C 0.61685 0.36317 0.41032 0.0
C597 C 0.62059 0.38925 0.42406 0.0
C598 C 0.59728 0.34367 0.67181 0.0
C599 C 0.62044 0.35211 0.30813 0.0
H600 H 0.59033 0.27029 0.34421 0.0
H601 H 0.52871 0.32325 0.36509 0.0
H602 H 0.63613 0.29425 0.3932 0.0
H603 H 0.63337 0.307 0.51711 0.0
H604 H 0.62335 0.27497 0.48944 0.0
H605 H 0.53115 0.36118 0.45106 0.0
H606 H 0.55444 0.36404 0.5474 0.0
H607 H 0.56184 0.37482 0.42529 0.0
H608 H 0.60208 0.39443 0.66454 0.0
H609 H 0.6268 0.4007 0.36209 0.0
H610 H 0.60297 0.32354 0.66176 0.0
H611 H 0.57633 0.34434 0.68143 0.0
H612 H 0.60618 0.35122 0.74033 0.0
H613 H 0.63159 0.33433 0.31235 0.0
H614 H 0.63044 0.36542 0.25773 0.0
H615 H 0.60161 0.34745 0.27537 0.0
C616 C 0.24069 0.44704 0.28409 0.0
C617 C 0.25809 0.46721 0.2905 0.0
C618 C 0.21845 0.4475 0.34138 0.0
C619 C 0.21476 0.46783 0.40834 0.0
C620 C 0.23576 0.48321 0.43501 0.0
C621 C 0.25755 0.48268 0.37522 0.0
C622 C 0.19714 0.42946 0.31585 0.0
C623 C 0.23326 0.50388 0.51169 0.0
C624 C 0.15609 0.50695 0.35594 0.0
C625 C 0.14076 0.50157 0.43739 0.0
C626 C 0.17999 0.49575 0.34556 0.0
C627 C 0.18883 0.47861 0.41895 0.0
C628 C 0.17317 0.4727 0.50081 0.0
C629 C 0.14922 0.48432 0.50912 0.0
C630 C 0.1954 0.50208 0.25446 0.0
C631 C 0.18174 0.45472 0.58076 0.0
H632 H 0.2419 0.43397 0.22214 0.0
H633 H 0.27164 0.49754 0.38456 0.0
H634 H 0.18495 0.42559 0.38113 0.0
H635 H 0.18505 0.43812 0.25769 0.0
H636 H 0.20468 0.41124 0.28663 0.0
H637 H 0.25218 0.5098 0.54037 0.0
H638 H 0.22405 0.52067 0.4776 0.0
H639 H 0.22123 0.4976 0.57442 0.0
H640 H 0.14923 0.51986 0.29961 0.0
H641 H 0.13734 0.48034 0.57285 0.0
H642 H 0.19604 0.48517 0.20564 0.0
H643 H 0.21515 0.50742 0.27423 0.0
H644 H 0.18708 0.51798 0.2116 0.0
H645 H 0.19324 0.43891 0.55015 0.0
H646 H 0.16529 0.44669 0.6218 0.0
H647 H 0.19383 0.46518 0.63441 0.0
C648 C 0.06392 0.81261 0.12645 0.0
C649 C 0.07681 0.79644 0.19102 0.0
C650 C 0.07521 0.83534 0.09578 0.0
C651 C 0.10038 0.84102 0.12673 0.0
C652 C 0.11517 0.82191 0.17199 0.0
C653 C 0.10296 0.79993 0.20659 0.0
C654 C 0.05887 0.85473 0.04371 0.0
C655 C 0.14286 0.82615 0.19598 0.0
C656 C 0.11302 0.90861 0.05301 0.0
C657 C 0.10403 0.92136 0.13763 0.0
C658 C 0.11561 0.8821 0.05212 0.0
C659 C 0.10795 0.86811 0.13613 0.0
C660 C 0.10216 0.88118 0.2254 0.0
C661 C 0.10108 0.90769 0.22548 0.0
C662 C 0.12423 0.86928 0.95802 0.0
C663 C 0.09342 0.86749 0.31743 0.0
H664 H 0.04373 0.80964 0.11385 0.0
H665 H 0.11305 0.78718 0.25563 0.0
H666 H 0.05573 0.87133 0.09296 0.0
H667 H 0.06857 0.86159 0.97613 0.0
H668 H 0.04001 0.84692 0.02202 0.0
H669 H 0.15319 0.80782 0.20094 0.0
H670 H 0.15212 0.83823 0.13919 0.0
H671 H 0.14458 0.8359 0.2685 0.0
H672 H 0.11598 0.91886 0.98464 0.0
H673 H 0.09538 0.91753 0.29243 0.0
H674 H 0.10866 0.86984 0.90264 0.0
H675 H 0.12991 0.84926 0.97001 0.0
H676 H 0.14061 0.87976 0.92589 0.0
H677 H 0.07363 0.8607 0.30587 0.0
H678 H 0.09355 0.88007 0.38353 0.0
H679 H 0.10553 0.85085 0.33356 0.0
C680 C 0.72557 0.04931 0.08667 0.0
C681 C 0.74668 0.06085 0.13077 0.0
C682 C 0.70834 0.06357 0.03161 0.0
C683 C 0.71326 0.08975 0.01565 0.0
C684 C 0.73708 0.1001 0.04406 0.0
C685 C 0.75345 0.08559 0.10361 0.0
C686 C 0.68321 0.05137 1.00446 0.0
C687 C 0.7444 0.12707 0.02048 0.0
C688 C 0.65369 0.10771 0.88918 0.0
C689 C 0.63842 0.11195 0.97323 0.0
C690 C 0.68025 0.10583 0.89821 0.0
C691 C 0.69119 0.10638 0.99354 0.0
C692 C 0.67658 0.11545 0.07427 0.0
C693 C 0.65036 0.11886 0.06212 0.0
C694 C 0.69605 0.09979 0.80817 0.0
C695 C 0.68772 0.11789 0.17684 0.0
H696 H 0.72082 0.02993 0.10638 0.0
H697 H 0.77016 0.09438 0.13606 0.0
H698 H 0.66778 0.05962 0.05052 0.0
H699 H 0.67853 0.05506 0.92617 0.0
H700 H 0.68331 0.0305 0.01584 0.0
H701 H 0.76437 0.12766 0.99357 0.0
H702 H 0.73187 0.13567 0.9637 0.0
H703 H 0.74365 0.13874 0.08886 0.0
H704 H 0.64506 0.10336 0.81839 0.0
H705 H 0.63888 0.1241 0.12556 0.0
H706 H 0.69589 0.07905 0.79438 0.0
H707 H 0.71611 0.10593 0.81833 0.0
H708 H 0.68807 0.10925 0.74181 0.0
H709 H 0.69328 0.09888 0.20463 0.0
H710 H 0.67407 0.12641 0.2302 0.0
H711 H 0.70504 0.12989 0.17492 0.0
C712 C 0.45285 0.75475 0.09562 0.0
C713 C 0.47727 0.74715 0.12432 0.0
C714 C 0.43779 0.73883 0.0357 0.0
C715 C 0.44724 0.71461 0.00842 0.0
C716 C 0.47311 0.70854 0.02756 0.0
C717 C 0.48792 0.72527 0.08324 0.0
C718 C 0.41125 0.74727 0.00949 0.0
C719 C 0.48437 0.68295 1.00175 0.0
C720 C 0.41585 0.65279 0.04604 0.0
C721 C 0.42389 0.64097 0.95835 0.0
C722 C 0.41934 0.6789 0.05976 0.0
C723 C 0.42979 0.69345 0.98174 0.0
C724 C 0.43123 0.68273 0.8861 0.0
C725 C 0.42915 0.65628 0.87564 0.0
C726 C 0.41568 0.68991 0.16199 0.0
C727 C 0.43867 0.69857 0.79815 0.0
H728 H 0.44478 0.77199 0.12632 0.0
H729 H 0.50703 0.71978 0.10485 0.0
H730 H 0.40217 0.73487 0.95314 0.0
H731 H 0.39927 0.74755 0.0771 0.0
H732 H 0.41182 0.76699 0.9809 0.0
H733 H 0.50503 0.68186 0.0187 0.0
H734 H 0.47448 0.66785 0.04407 0.0
H735 H 0.48182 0.67881 0.92216 0.0
H736 H 0.40978 0.64127 0.10805 0.0
H737 H 0.43433 0.64776 0.80549 0.0
H738 H 0.40431 0.70755 0.15788 0.0
H739 H 0.43447 0.6948 0.19458 0.0
H740 H 0.40587 0.67648 0.2125 0.0
H741 H 0.43283 0.71866 0.80826 0.0
H742 H 0.42979 0.69095 0.7297 0.0
H743 H 0.45962 0.69805 0.78832 0.0
C744 C 0.78669 0.45589 0.12866 0.0
C745 C 0.79364 0.4806 0.15593 0.0
C746 C 0.80322 0.44098 0.0709 0.0
C747 C 0.82733 0.45094 0.0443 0.0
C748 C 0.8326 0.47706 0.06077 0.0
C749 C 0.81528 0.49167 0.11429 0.0
C750 C 0.7956 0.41409 0.04682 0.0
C751 C 0.85802 0.48891 0.03525 0.0
C752 C 0.88991 0.42249 0.09489 0.0
C753 C 0.90212 0.42981 0.0073 0.0
C754 C 0.86352 0.42503 0.10459 0.0
C755 C 0.84922 0.43397 0.02303 0.0
C756 C 0.86065 0.43468 0.92858 0.0
C757 C 0.88728 0.43341 0.92182 0.0
C758 C 0.85181 0.4222 0.20597 0.0
C759 C 0.84525 0.44067 0.83763 0.0
H760 H 0.76957 0.44749 0.15925 0.0
H761 H 0.82016 0.51105 0.13405 0.0
H762 H 0.80847 0.40505 0.99203 0.0
H763 H 0.79545 0.40262 0.11552 0.0
H764 H 0.77589 0.41381 0.01711 0.0
H765 H 0.85833 0.50971 0.04886 0.0
H766 H 0.87324 0.48015 0.08059 0.0
H767 H 0.86272 0.48561 0.95656 0.0
H768 H 0.90121 0.41785 0.15943 0.0
H769 H 0.89625 0.43805 0.852 0.0
H770 H 0.83444 0.41031 0.20162 0.0
H771 H 0.84621 0.44113 0.23497 0.0
H772 H 0.86514 0.4134 0.25955 0.0
H773 H 0.82548 0.43341 0.84482 0.0
H774 H 0.85418 0.43228 0.77066 0.0
H775 H 0.84433 0.46151 0.82723 0.0
C776 C 0.03018 0.22181 0.99427 0.0
C777 C 1.00579 0.23258 0.99875 0.0
C778 C 0.03421 0.19784 0.94908 0.0
C779 C 1.01332 0.18404 0.90883 0.0
C780 C 0.98907 0.19575 0.90704 0.0
C781 C 0.98573 0.21984 0.95055 0.0
C782 C 0.06055 0.18654 0.95039 0.0
C783 C 0.96604 0.18196 0.86693 0.0
C784 C 0.02126 0.1235 0.75154 0.0
C785 C 1.01843 0.1042 0.82233 0.0
C786 C 0.02043 0.14947 0.77858 0.0
C787 C 1.01604 0.15653 0.87863 0.0
C788 C 1.01295 0.13708 0.95008 0.0
C789 C 1.01449 0.11136 0.92143 0.0
C790 C 0.02412 0.16938 0.69986 0.0
C791 C 1.00742 0.14342 0.05699 0.0
H792 H 0.04576 0.23121 0.03216 0.0
H793 H 0.96677 0.22792 0.95391 0.0
H794 H 0.06131 0.17107 0.00576 0.0
H795 H 0.06523 0.17813 0.87725 0.0
H796 H 0.07528 0.20087 0.96968 0.0
H797 H 0.94912 0.1945 0.86183 0.0
H798 H 0.97005 0.174 0.79256 0.0
H799 H 0.9613 0.16583 0.91626 0.0
H800 H 0.0244 0.11833 0.67487 0.0
H801 H 1.012 0.09676 0.97691 0.0
H802 H 0.02919 0.16096 0.62707 0.0
H803 H 0.03935 0.18282 0.72239 0.0
H804 H 1.00639 0.18055 0.69095 0.0
H805 H 1.00529 0.12619 0.10347 0.0
H806 H 0.98961 0.15464 0.06215 0.0
H807 H 0.02296 0.15527 0.08799 0.0
C808 C 0.32295 0.98984 0.98033 0.0
C809 C 0.30922 1.01092 0.01558 0.0
C810 C 0.34698 0.99251 0.93506 0.0
C811 C 0.35778 1.01698 0.92287 0.0
C812 C 0.34311 0.03849 0.95093 0.0
C813 C 0.31913 0.03522 0.99738 0.0
C814 C 0.36169 0.96892 0.90779 0.0
C815 C 0.35347 0.06497 0.93797 0.0
C816 C 0.43075 0.02085 0.92993 0.0
C817 C 0.43738 0.02135 0.82921 0.0
C818 C 0.4051 0.01975 0.96092 0.0
C819 C 0.38519 0.01965 0.88992 0.0
C820 C 0.39174 0.02067 0.78809 0.0
C821 C 0.41763 0.02122 0.75901 0.0
C822 C 0.39933 0.01817 0.07015 0.0
C823 C 0.37133 0.02117 0.70976 0.0
H824 H 0.31562 0.97096 0.99478 0.0
H825 H 0.309 0.05161 0.02562 0.0
H826 H 0.36998 0.97066 0.83266 0.0
H827 H 0.37773 0.96647 0.96029 0.0
H828 H 0.34962 0.95161 0.91038 0.0
H829 H 0.33854 0.07962 0.94894 0.0
H830 H 0.36888 0.06836 0.99254 0.0
H831 H 0.36183 0.06725 0.86315 0.0
H832 H 0.44571 0.02079 0.9851 0.0
H833 H 0.4224 0.02176 0.68104 0.0
H834 H 0.38893 1.0003 0.08617 0.0
H835 H 0.38681 0.03411 0.09259 0.0
H836 H 0.41683 0.01874 0.1162 0.0
H837 H 0.3589 0.03793 0.72114 0.0
H838 H 0.35909 1.0041 0.7161 0.0
H839 H 0.37939 0.02197 0.63388 0.0
C840 C 0.5472 0.32817 0.97996 0.0
C841 C 0.52582 0.31472 0.01421 0.0
C842 C 0.54486 0.35206 0.93446 0.0
C843 C 0.52044 0.36291 0.92095 0.0
C844 C 0.49864 0.34847 0.94776 0.0
C845 C 0.50157 0.32464 0.99454 0.0
C846 C 0.56873 0.36659 0.90863 0.0
C847 C 0.47221 0.35895 0.93344 0.0
C848 C 0.51761 0.43555 0.92885 0.0
C849 C 0.51757 0.4421 0.82819 0.0
C850 C 0.51815 0.41 0.95959 0.0
C851 C 0.51813 0.39018 0.88828 0.0
C852 C 0.51749 0.39665 0.7865 0.0
C853 C 0.51752 0.42243 0.7577 0.0
C854 C 0.51927 0.40424 0.06885 0.0
C855 C 0.51682 0.37629 0.70797 0.0
H856 H 0.56602 0.32078 0.99562 0.0
H857 H 0.48496 0.31468 0.02205 0.0
H858 H 0.56733 0.37467 0.83318 0.0
H859 H 0.57106 0.38271 0.9609 0.0
H860 H 0.58601 0.35453 0.91283 0.0
H861 H 0.45736 0.34411 0.94283 0.0
H862 H 0.46872 0.37421 0.98848 0.0
H863 H 0.47024 0.36744 0.85885 0.0
H864 H 0.51776 0.45048 0.98414 0.0
H865 H 0.51728 0.42718 0.67976 0.0
H866 H 0.53703 0.39375 0.08591 0.0
H867 H 0.50307 0.39187 0.09007 0.0
H868 H 0.51871 0.42169 0.11508 0.0
H869 H 0.49989 0.364 0.7189 0.0
H870 H 0.53384 0.364 0.71453 0.0
H871 H 0.51614 0.38431 0.63215 0.0
C872 C 0.21914 0.53048 0.98628 0.0
C873 C 0.23074 0.50649 0.98345 0.0
C874 C 0.19411 0.53418 0.94996 0.0
C875 C 0.1801 0.51341 0.91035 0.0
C876 C 0.19239 0.48956 0.90173 0.0
C877 C 0.21739 0.48646 0.93776 0.0
C878 C 0.18216 0.56007 0.95938 0.0
C879 C 0.17847 0.46665 0.86175 0.0
C880 C 0.1072 0.51289 0.93495 0.0
C881 C 0.099 0.51808 0.83814 0.0
C882 C 0.13333 0.51152 0.95918 0.0
C883 C 0.1521 0.51588 0.88552 0.0
C884 C 0.14396 0.52149 0.78783 0.0
C885 C 0.11766 0.52231 0.76523 0.0
C886 C 0.1408 0.50538 0.06423 0.0
C887 C 0.16309 0.52655 0.70695 0.0
H888 H 0.22895 0.54599 0.02283 0.0
H889 H 0.226 0.46778 0.93578 0.0
H890 H 0.17223 0.56528 0.88993 0.0
H891 H 0.16774 0.55977 0.01932 0.0
H892 H 0.19647 0.57495 0.97704 0.0
H893 H 0.19173 0.45101 0.84233 0.0
H894 H 0.16502 0.45963 0.9188 0.0
H895 H 0.16714 0.47157 0.79536 0.0
H896 H 0.09314 0.50962 0.99214 0.0
H897 H 0.11172 0.52643 0.69015 0.0
H898 H 0.15037 0.52207 0.0978 0.0
H899 H 0.15452 0.48939 0.06553 0.0
H900 H 0.12415 0.50033 0.11085 0.0
H901 H 0.17634 0.54187 0.73008 0.0
H902 H 0.15386 0.53214 0.6364 0.0
H903 H 0.1747 0.50932 0.69363 0.0
C904 C 0.05184 0.82803 0.54426 0.0
C905 C 0.03163 0.81569 0.49529 0.0
C906 C 0.04882 0.85211 0.58831 0.0
C907 C 0.02472 0.86414 0.58685 0.0
C908 C 1.00366 0.85069 0.54624 0.0
C909 C 1.00738 0.82679 0.50026 0.0
C910 C 0.07202 0.86554 0.62876 0.0
C911 C 0.97745 0.8623 0.54552 0.0
C912 C 1.01735 0.92453 0.74541 0.0
C913 C 0.02025 0.94389 0.6749 0.0
C914 C 1.01804 0.89858 0.71792 0.0
C915 C 0.02234 0.89162 0.61771 0.0
C916 C 0.02553 0.91113 0.54659 0.0
C917 C 0.02415 0.93682 0.57568 0.0
C918 C 1.01419 0.87861 0.79627 0.0
C919 C 0.03092 0.90489 0.43949 0.0
H920 H 0.07066 0.81964 0.54142 0.0
H921 H 0.99166 0.81768 0.46221 0.0
H922 H 0.0768 0.88185 0.58042 0.0
H923 H 0.06818 0.87321 0.70372 0.0
H924 H 0.08885 0.85285 0.63266 0.0
H925 H 0.96253 0.84817 0.52617 0.0
H926 H 0.97293 0.87068 0.61886 0.0
H927 H 0.97682 0.87785 0.49043 0.0
H928 H 1.01424 0.92964 0.82216 0.0
H929 H 0.02667 0.95146 0.52041 0.0
H930 H 0.9987 0.86545 0.77381 0.0
H931 H 1.00937 0.88699 0.8694 0.0
H932 H 0.03174 0.86714 0.80441 0.0
H933 H 0.03369 0.92216 0.39374 0.0
H934 H 1.01496 0.89371 0.40792 0.0
H935 H 0.04829 0.89304 0.43394 0.0
C936 C 0.7158 1.00609 0.48092 0.0
C937 C 0.72619 0.03025 0.46409 0.0
C938 C 0.69151 1.00314 0.52515 0.0
C939 C 0.677 0.02485 0.55209 0.0
C940 C 0.68817 0.04917 0.54054 0.0
C941 C 0.71248 0.05154 0.49714 0.0
C942 C 0.6807 0.9768 0.53682 0.0
C943 C 0.67364 0.07295 0.56676 0.0
C944 C 0.60399 0.02185 0.54239 0.0
C945 C 0.59716 0.0212 0.6429 0.0
C946 C 0.62973 0.02274 0.51223 0.0
C947 C 0.64948 0.02249 0.58388 0.0
C948 C 0.6427 0.0213 0.68542 0.0
C949 C 0.61676 0.02096 0.71368 0.0
C950 C 0.63576 0.02439 0.40325 0.0
C951 C 0.66293 0.02036 0.76434 0.0
H952 H 0.72587 0.98958 0.45338 0.0
H953 H 0.72007 0.0703 0.48233 0.0
H954 H 0.672 0.97452 0.61105 0.0
H955 H 0.66546 0.97373 0.48125 0.0
H956 H 0.69543 0.96193 0.52639 0.0
H957 H 0.68592 0.09012 0.56471 0.0
H958 H 0.65783 0.07555 0.51338 0.0
H959 H 0.66507 0.07132 0.64146 0.0
H960 H 0.58913 0.02216 0.4868 0.0
H961 H 0.61183 0.02028 0.79148 0.0
H962 H 0.64818 1.00837 0.38097 0.0
H963 H 0.64636 0.04218 0.38789 0.0
H964 H 0.61835 0.02404 0.3566 0.0
H965 H 0.67565 0.03708 0.75792 0.0
H966 H 0.6749 1.00324 0.75369 0.0
H967 H 0.6547 0.01988 0.83998 0.0
C968 C 0.48854 0.7143 0.4899 0.0
C969 C 0.50978 0.728 0.45576 0.0
C970 C 0.49116 0.69041 0.53517 0.0
C971 C 0.51569 0.67983 0.54851 0.0
C972 C 0.53734 0.69453 0.52185 0.0
C973 C 0.53413 0.71835 0.47533 0.0
C974 C 0.46746 0.6756 0.561 0.0
C975 C 0.56388 0.68434 0.53608 0.0
C976 C 0.51933 0.62029 0.71123 0.0
C977 C 0.5195 0.60066 0.64059 0.0
C978 C 0.51904 0.64607 0.68265 0.0
C979 C 0.51832 0.65258 0.58093 0.0
C980 C 0.51855 0.6328 0.50944 0.0
C981 C 0.51939 0.60724 0.53998 0.0
C982 C 0.51945 0.6664 0.76136 0.0
C983 C 0.51734 0.63861 0.40024 0.0
H984 H 0.46964 0.72149 0.47437 0.0
H985 H 0.55063 0.72852 0.44793 0.0
H986 H 0.46533 0.65944 0.50883 0.0
H987 H 0.46893 0.66758 0.63651 0.0
H988 H 0.45003 0.68746 0.5567 0.0
H989 H 0.57857 0.69933 0.52666 0.0
H990 H 0.56596 0.67587 0.61066 0.0
H991 H 0.56753 0.66912 0.48104 0.0
H992 H 0.51961 0.6155 0.78914 0.0
H993 H 0.5194 0.59233 0.4846 0.0
H994 H 0.53627 0.67886 0.75072 0.0
H995 H 0.52015 0.65834 0.83712 0.0
H996 H 0.50232 0.67853 0.75471 0.0
H997 H 0.5181 0.62119 0.35386 0.0
H998 H 0.53338 0.65118 0.37908 0.0
H999 H 0.49945 0.64889 0.38331 0.0
C1000 C 0.82389 0.49361 0.5234 0.0
C1001 C 0.81029 0.5147 0.48809 0.0
C1002 C 0.84778 0.49628 0.56969 0.0
C1003 C 0.85853 0.52075 0.58287 0.0
C1004 C 0.84389 0.54227 0.5552 0.0
C1005 C 0.82009 0.539 0.50738 0.0
C1006 C 0.86248 0.47266 0.59602 0.0
C1007 C 0.85413 0.56876 0.56975 0.0
C1008 C 0.91887 0.52433 0.74415 0.0
C1009 C 0.93836 0.52479 0.67285 0.0
C1010 C 0.89287 0.52403 0.71638 0.0
C1011 C 0.886 0.52341 0.61481 0.0
C1012 C 0.90565 0.52381 0.54277 0.0
C1013 C 0.93139 0.52483 0.57249 0.0
C1014 C 0.87271 0.5243 0.79576 0.0
C1015 C 0.89954 0.52252 0.43373 0.0
H1016 H 0.81669 0.47474 0.50745 0.0
H1017 H 0.81006 0.55538 0.47885 0.0
H1018 H 0.87813 0.46995 0.54185 0.0
H1019 H 0.87128 0.47449 0.67023 0.0
H1020 H 0.85025 0.45544 0.59494 0.0
H1021 H 0.83907 0.58334 0.56069 0.0
H1022 H 0.86273 0.57084 0.64431 0.0
H1023 H 0.86932 0.57246 0.51459 0.0
H1024 H 0.92393 0.52446 0.82186 0.0
H1025 H 0.94616 0.52498 0.51653 0.0
H1026 H 0.88101 0.52546 0.87119 0.0
H1027 H 0.86084 0.50694 0.79034 0.0
H1028 H 0.85987 0.54075 0.78479 0.0
H1029 H 0.88902 0.50473 0.41713 0.0
H1030 H 0.9169 0.52313 0.38685 0.0
H1031 H 0.88703 0.53856 0.41284 0.0
loop_
_geom_bond_atom_site_label_1
_geom_bond_atom_site_label_2
_geom_bond_distance
_geom_bond_site_symmetry_2
_ccdc_geom_bond_type
H0 C7 0.929 . S
H1 C10 0.930 . S
H2 C12 0.929 . S
H3 C4 0.969 . S
C4 H3 0.969 . S
C4 O5 1.550 . S
C4 H6 0.973 . S
O5 C4 1.550 . S
O5 C11 1.412 . S
H6 C4 0.973 . S
C7 H0 0.929 . S
C7 C8 1.400 . S
C7 C9 1.364 . S
C8 C7 1.400 . S
C8 C12 1.377 . S
C9 C7 1.364 . S
C9 C10 1.374 . S
C10 H1 0.930 . S
C10 C9 1.374 . S
C10 C11 1.383 . S
C11 O5 1.412 . S
C11 C10 1.383 . S
C11 C12 1.394 . S
C12 H2 0.929 . S
C12 C8 1.377 . S
C12 C11 1.394 . S
H13 C20 0.929 . S
H14 C23 0.930 . S
H15 C25 0.929 . S
H16 C17 0.969 . S
C17 H16 0.969 . S
C17 O18 1.550 1_455 S
C17 H19 0.973 1_455 S
O18 C17 1.550 1_655 S
O18 C24 1.418 . S
H19 C17 0.973 1_655 S
C20 H13 0.929 . S
C20 C21 1.401 . S
C20 C22 1.365 . S
C21 C20 1.401 . S
C21 C25 1.378 . S
C22 C20 1.365 . S
C22 C23 1.376 . S
C23 H14 0.930 . S
C23 C22 1.376 . S
C23 C24 1.384 . S
C24 O18 1.418 . S
C24 C23 1.384 . S
C24 C25 1.395 . S
C25 H15 0.929 . S
C25 C21 1.378 . S
C25 C24 1.395 . S
H26 C33 0.929 . S
H27 C36 0.930 . S
H28 C38 0.929 . S
H29 C30 0.969 . S
C30 H29 0.969 . S
C30 O31 1.550 1_545 S
C30 H32 0.973 1_545 S
O31 C30 1.550 1_565 S
O31 C37 1.412 . S
H32 C30 0.973 1_565 S
C33 H26 0.929 . S
C33 C34 1.400 . S
C33 C35 1.364 . S
C34 C33 1.400 . S
C34 C38 1.377 . S
C35 C33 1.364 . S
C35 C36 1.374 . S
C36 H27 0.930 . S
C36 C35 1.374 . S
C36 C37 1.383 . S
C37 O31 1.412 . S
C37 C36 1.383 . S
C37 C38 1.394 . S
C38 H28 0.929 . S
C38 C34 1.377 . S
C38 C37 1.394 . S
H39 C46 0.929 . S
H40 C49 0.930 . S
H41 C51 0.929 . S
H42 C43 0.969 . S
C43 H42 0.969 . S
C43 O44 1.550 . S
C43 H45 0.973 . S
O44 C43 1.550 . S
O44 C50 1.412 . S
H45 C43 0.973 . S
C46 H39 0.929 . S
C46 C47 1.400 . S
C46 C48 1.364 . S
C47 C46 1.400 . S
C47 C51 1.377 . S
C48 C46 1.364 . S
C48 C49 1.374 . S
C49 H40 0.930 . S
C49 C48 1.374 . S
C49 C50 1.383 . S
C50 O44 1.412 . S
C50 C49 1.383 . S
C50 C51 1.394 . S
C51 H41 0.929 . S
C51 C47 1.377 . S
C51 C50 1.394 . S
H52 C59 0.928 1_556 S
H53 C62 0.930 . S
H54 C64 0.929 . S
H55 C56 0.969 . S
C56 H55 0.969 . S
C56 O57 1.550 . S
C56 H58 0.973 . S
O57 C56 1.550 . S
O57 C63 1.412 . S
H58 C56 0.973 . S
C59 H52 0.928 1_554 S
C59 C60 1.391 1_554 S
C59 C61 1.373 . S
C60 C59 1.391 1_556 S
C60 C64 1.377 . S
C61 C59 1.373 . S
C61 C62 1.374 . S
C62 H53 0.930 . S
C62 C61 1.374 . S
C62 C63 1.383 . S
C63 O57 1.412 . S
C63 C62 1.383 . S
C63 C64 1.394 1_554 S
C64 H54 0.929 . S
C64 C60 1.377 . S
C64 C63 1.394 1_556 S
H65 C72 0.929 1_556 S
H66 C75 0.930 . S
H67 C77 0.929 . S
H68 C69 0.969 . S
C69 H68 0.969 . S
C69 O70 1.550 1_455 S
C69 H71 0.973 1_455 S
O70 C69 1.550 1_655 S
O70 C76 1.412 1_655 S
H71 C69 0.973 1_655 S
C72 H65 0.929 1_554 S
C72 C73 1.400 1_554 S
C72 C74 1.364 . S
C73 C72 1.400 1_556 S
C73 C77 1.377 . S
C74 C72 1.364 . S
C74 C75 1.374 . S
C75 H66 0.930 . S
C75 C74 1.374 . S
C75 C76 1.383 . S
C76 O70 1.412 1_455 S
C76 C75 1.383 . S
C76 C77 1.394 1_554 S
C77 H67 0.929 . S
C77 C73 1.377 . S
C77 C76 1.394 1_556 S
H78 C85 0.929 1_556 S
H79 C88 0.933 . S
H80 C90 0.929 . S
H81 C82 0.969 . S
C82 H81 0.969 . S
C82 O83 1.550 1_545 S
C82 H84 0.973 1_545 S
O83 C82 1.550 1_565 S
O83 C89 1.412 1_565 S
H84 C82 0.973 1_565 S
C85 H78 0.929 1_554 S
C85 C86 1.400 1_554 S
C85 C87 1.364 . S
C86 C85 1.400 1_556 S
C86 C90 1.377 . S
C87 C85 1.364 . S
C87 C88 1.374 . S
C88 H79 0.933 . S
C88 C87 1.374 . S
C88 C89 1.383 . S
C89 O83 1.412 1_545 S
C89 C88 1.383 . S
C89 C90 1.394 1_554 S
C90 H80 0.929 . S
C90 C86 1.377 . S
C90 C89 1.394 1_556 S
H91 C98 0.929 1_556 S
H92 C101 0.930 . S
H93 C103 0.929 . S
H94 C95 0.969 . S
C95 H94 0.969 . S
C95 O96 1.550 . S
C95 H97 0.973 . S
O96 C95 1.550 . S
O96 C102 1.412 . S
H97 C95 0.973 . S
C98 H91 0.929 1_554 S
C98 C99 1.400 1_554 S
C98 C100 1.364 . S
C99 C98 1.400 1_556 S
C99 C103 1.377 . S
C100 C98 1.364 . S
C100 C101 1.374 . S
C101 H92 0.930 . S
C101 C100 1.374 . S
C101 C102 1.383 . S
C102 O96 1.412 . S
C102 C101 1.383 . S
C102 C103 1.394 1_554 S
C103 H93 0.929 . S
C103 C99 1.377 . S
C103 C102 1.394 1_556 S
Gd104 C107 2.818 . S
Gd104 O124 2.377 . S
Gd104 O126 2.448 . S
Gd104 O127 2.506 . S
Gd104 O128 2.435 . S
Gd104 O129 2.717 1_565 S
Gd104 O131 2.395 1_565 S
Gd104 O135 2.327 1_455 S
Gd105 C116 2.818 . S
Gd105 O125 2.395 1_545 S
Gd105 O129 2.327 1_655 S
Gd105 O130 2.377 . S
Gd105 O132 2.448 . S
Gd105 O133 2.506 . S
Gd105 O134 2.435 . S
Gd105 O135 2.717 1_545 S
C106 O124 1.240 1_655 S
C106 O125 1.240 . S
C107 Gd104 2.818 . S
C107 C108 1.510 . S
C107 O126 1.249 . S
C107 O127 1.252 . S
C108 C107 1.510 . S
C108 C109 1.404 1_556 S
C108 C110 1.352 1_556 S
C109 C108 1.404 1_554 S
C109 C113 1.389 . S
C109 H136 0.930 1_554 S
C110 C108 1.352 1_554 S
C110 C112 1.374 . S
C110 H137 0.931 1_455 S
C111 C112 1.359 . S
C111 C113 1.364 . S
C112 C110 1.374 . S
C112 C111 1.359 . S
C112 H138 0.931 1_455 S
C113 C109 1.389 . S
C113 C111 1.364 . S
C113 H139 0.931 . S
C114 O128 1.277 . S
C114 O129 1.247 1_565 S
C115 O130 1.240 1_455 S
C115 O131 1.240 . S
C116 Gd105 2.818 . S
C116 C117 1.510 . S
C116 O132 1.249 . S
C116 O133 1.252 . S
C117 C116 1.510 . S
C117 C118 1.404 . S
C117 C119 1.352 . S
C118 C117 1.404 . S
C118 C122 1.389 . S
C118 H140 0.930 . S
C119 C117 1.352 . S
C119 C121 1.374 . S
C119 H141 0.931 1_655 S
C120 C121 1.359 . S
C120 C122 1.364 . S
C121 C119 1.374 . S
C121 C120 1.359 . S
C121 H142 0.931 1_655 S
C122 C118 1.389 . S
C122 C120 1.364 . S
C122 H143 0.931 . S
C123 O134 1.256 . S
C123 O135 1.257 1_545 S
O124 Gd104 2.377 . S
O124 C106 1.240 1_455 S
O125 Gd105 2.395 1_565 S
O125 C106 1.240 . S
O126 Gd104 2.448 . S
O126 C107 1.249 . S
O127 Gd104 2.506 . S
O127 C107 1.252 . S
O128 Gd104 2.435 . S
O128 C114 1.277 . S
O129 Gd104 2.717 1_545 S
O129 Gd105 2.327 1_455 S
O129 C114 1.247 1_545 S
O130 Gd105 2.377 . S
O130 C115 1.240 1_655 S
O131 Gd104 2.395 1_545 S
O131 C115 1.240 . S
O132 Gd105 2.448 . S
O132 C116 1.249 . S
O133 Gd105 2.506 . S
O133 C116 1.252 . S
O134 Gd105 2.435 . S
O134 C123 1.256 . S
O135 Gd104 2.327 1_655 S
O135 Gd105 2.717 1_565 S
O135 C123 1.257 1_565 S
H136 C109 0.930 1_556 S
H137 C110 0.931 1_655 S
H138 C112 0.931 1_655 S
H139 C113 0.931 . S
H140 C118 0.930 . S
H141 C119 0.931 1_455 S
H142 C121 0.931 1_455 S
H143 C122 0.931 . S
Gd144 C147 2.818 . S
Gd144 O164 2.377 . S
Gd144 O166 2.448 . S
Gd144 O167 2.506 . S
Gd144 O168 2.435 . S
Gd144 O169 2.717 . S
Gd144 O171 2.395 . S
Gd144 O175 2.327 1_545 S
Gd145 C156 2.818 . S
Gd145 O165 2.395 . S
Gd145 O169 2.327 1_565 S
Gd145 O170 2.377 . S
Gd145 O172 2.448 . S
Gd145 O173 2.506 . S
Gd145 O174 2.435 . S
Gd145 O175 2.717 . S
C146 O164 1.240 1_565 S
C146 O165 1.240 . S
C147 Gd144 2.818 . S
C147 C148 1.510 . S
C147 O166 1.249 . S
C147 O167 1.252 . S
C148 C147 1.510 . S
C148 C149 1.404 1_556 S
C148 C150 1.352 1_556 S
C149 C148 1.404 1_554 S
C149 C153 1.389 . S
C149 H176 0.930 1_554 S
C150 C148 1.352 1_554 S
C150 C152 1.374 . S
C150 H177 0.931 1_545 S
C151 C152 1.359 . S
C151 C153 1.364 . S
C152 C150 1.374 . S
C152 C151 1.359 . S
C152 H178 0.931 1_545 S
C153 C149 1.389 . S
C153 C151 1.364 . S
C153 H179 0.931 . S
C154 O168 1.256 . S
C154 O169 1.257 . S
C155 O170 1.240 1_545 S
C155 O171 1.240 . S
C156 Gd145 2.818 . S
C156 C157 1.510 . S
C156 O172 1.249 . S
C156 O173 1.252 . S
C157 C156 1.510 . S
C157 C158 1.404 . S
C157 C159 1.352 . S
C158 C157 1.404 . S
C158 C162 1.389 . S
C158 H180 0.930 . S
C159 C157 1.352 . S
C159 C161 1.374 . S
C159 H181 0.931 1_565 S
C160 C161 1.359 . S
C160 C162 1.364 . S
C161 C159 1.374 . S
C161 C160 1.359 . S
C161 H182 0.931 1_565 S
C162 C158 1.389 . S
C162 C160 1.364 . S
C162 H183 0.931 . S
C163 O174 1.256 . S
C163 O175 1.257 . S
O164 Gd144 2.377 . S
O164 C146 1.240 1_545 S
O165 Gd145 2.395 . S
O165 C146 1.240 . S
O166 Gd144 2.448 . S
O166 C147 1.249 . S
O167 Gd144 2.506 . S
O167 C147 1.252 . S
O168 Gd144 2.435 . S
O168 C154 1.256 . S
O169 Gd144 2.717 . S
O169 Gd145 2.327 1_545 S
O169 C154 1.257 . S
O170 Gd145 2.377 . S
O170 C155 1.240 1_565 S
O171 Gd144 2.395 . S
O171 C155 1.240 . S
O172 Gd145 2.448 . S
O172 C156 1.249 . S
O173 Gd145 2.506 . S
O173 C156 1.252 . S
O174 Gd145 2.435 . S
O174 C163 1.256 . S
O175 Gd144 2.327 1_565 S
O175 Gd145 2.717 . S
O175 C163 1.257 . S
H176 C149 0.930 1_556 S
H177 C150 0.931 1_565 S
H178 C152 0.931 1_565 S
H179 C153 0.931 . S
H180 C158 0.930 . S
H181 C159 0.931 1_545 S
H182 C161 0.931 1_545 S
H183 C162 0.931 . S
Gd184 C187 2.818 . S
Gd184 O204 2.377 . S
Gd184 O206 2.448 . S
Gd184 O207 2.506 . S
Gd184 O208 2.435 . S
Gd184 O209 2.717 . S
Gd184 O211 2.395 . S
Gd184 O215 2.327 . S
Gd185 C196 2.818 . S
Gd185 O205 2.395 . S
Gd185 O209 2.327 . S
Gd185 O210 2.377 . S
Gd185 O212 2.448 . S
Gd185 O213 2.506 . S
Gd185 O214 2.435 . S
Gd185 O215 2.717 . S
C186 O204 1.240 . S
C186 O205 1.240 . S
C187 Gd184 2.818 . S
C187 C188 1.510 . S
C187 O206 1.249 . S
C187 O207 1.252 . S
C188 C187 1.510 . S
C188 C189 1.404 1_556 S
C188 C190 1.352 1_556 S
C189 C188 1.404 1_554 S
C189 C193 1.389 . S
C189 H216 0.930 1_554 S
C190 C188 1.352 1_554 S
C190 C192 1.374 . S
C190 H217 0.931 . S
C191 C192 1.359 . S
C191 C193 1.364 . S
C192 C190 1.374 . S
C192 C191 1.359 . S
C192 H218 0.931 . S
C193 C189 1.389 . S
C193 C191 1.364 . S
C193 H219 0.931 . S
C194 O208 1.256 . S
C194 O209 1.257 . S
C195 O210 1.240 . S
C195 O211 1.240 . S
C196 Gd185 2.818 . S
C196 C197 1.510 . S
C196 O212 1.249 . S
C196 O213 1.252 . S
C197 C196 1.510 . S
C197 C198 1.404 . S
C197 C199 1.352 . S
C198 C197 1.404 . S
C198 C202 1.389 . S
C198 H220 0.930 . S
C199 C197 1.352 . S
C199 C201 1.374 . S
C199 H221 0.931 . S
C200 C201 1.359 . S
C200 C202 1.364 . S
C201 C199 1.374 . S
C201 C200 1.359 . S
C201 H222 0.931 . S
C202 C198 1.389 . S
C202 C200 1.364 . S
C202 H223 0.931 . S
C203 O214 1.256 . S
C203 O215 1.257 . S
O204 Gd184 2.377 . S
O204 C186 1.240 . S
O205 Gd185 2.395 . S
O205 C186 1.240 . S
O206 Gd184 2.448 . S
O206 C187 1.249 . S
O207 Gd184 2.506 . S
O207 C187 1.252 . S
O208 Gd184 2.435 . S
O208 C194 1.256 . S
O209 Gd184 2.717 . S
O209 Gd185 2.327 . S
O209 C194 1.257 . S
O210 Gd185 2.377 . S
O210 C195 1.240 . S
O211 Gd184 2.395 . S
O211 C195 1.240 . S
O212 Gd185 2.448 . S
O212 C196 1.249 . S
O213 Gd185 2.506 . S
O213 C196 1.252 . S
O214 Gd185 2.435 . S
O214 C203 1.256 . S
O215 Gd184 2.327 . S
O215 Gd185 2.717 . S
O215 C203 1.257 . S
H216 C189 0.930 1_556 S
H217 C190 0.931 . S
H218 C192 0.931 . S
H219 C193 0.931 . S
H220 C198 0.930 . S
H221 C199 0.931 . S
H222 C201 0.931 . S
H223 C202 0.931 . S
Gd224 C227 2.818 . S
Gd224 O244 2.377 . S
Gd224 O246 2.448 . S
Gd224 O247 2.506 . S
Gd224 O248 2.435 . S
Gd224 O249 2.717 1_655 S
Gd224 O251 2.395 1_655 S
Gd224 O255 2.327 . S
Gd225 C236 2.818 . S
Gd225 O245 2.395 1_455 S
Gd225 O249 2.327 . S
Gd225 O250 2.377 . S
Gd225 O252 2.448 . S
Gd225 O253 2.506 . S
Gd225 O254 2.435 . S
Gd225 O255 2.717 1_455 S
C226 O244 1.240 . S
C226 O245 1.240 . S
C227 Gd224 2.818 . S
C227 C228 1.510 . S
C227 O246 1.249 . S
C227 O247 1.252 . S
C228 C227 1.510 . S
C228 C229 1.404 1_556 S
C228 C230 1.352 1_556 S
C229 C228 1.404 1_554 S
C229 C233 1.389 . S
C229 H256 0.930 1_554 S
C230 C228 1.352 1_554 S
C230 C232 1.374 . S
C230 H257 0.931 . S
C231 C232 1.359 . S
C231 C233 1.364 . S
C232 C230 1.374 . S
C232 C231 1.359 . S
C232 H258 0.931 . S
C233 C229 1.389 . S
C233 C231 1.364 . S
C233 H259 0.931 . S
C234 O248 1.262 . S
C234 O249 1.254 1_655 S
C235 O250 1.240 . S
C235 O251 1.240 . S
C236 Gd225 2.818 . S
C236 C237 1.510 . S
C236 O252 1.249 . S
C236 O253 1.252 . S
C237 C236 1.510 . S
C237 C238 1.404 . S
C237 C239 1.352 . S
C238 C237 1.404 . S
C238 C242 1.389 . S
C238 H260 0.930 . S
C239 C237 1.352 . S
C239 C241 1.374 . S
C239 H261 0.931 . S
C240 C241 1.359 . S
C240 C242 1.364 . S
C241 C239 1.374 . S
C241 C240 1.359 . S
C241 H262 0.931 . S
C242 C238 1.389 . S
C242 C240 1.364 . S
C242 H263 0.931 . S
C243 O254 1.256 . S
C243 O255 1.257 1_455 S
O244 Gd224 2.377 . S
O244 C226 1.240 . S
O245 Gd225 2.395 1_655 S
O245 C226 1.240 . S
O246 Gd224 2.448 . S
O246 C227 1.249 . S
O247 Gd224 2.506 . S
O247 C227 1.252 . S
O248 Gd224 2.435 . S
O248 C234 1.262 . S
O249 Gd224 2.717 1_455 S
O249 Gd225 2.327 . S
O249 C234 1.254 1_455 S
O250 Gd225 2.377 . S
O250 C235 1.240 . S
O251 Gd224 2.395 1_455 S
O251 C235 1.240 . S
O252 Gd225 2.448 . S
O252 C236 1.249 . S
O253 Gd225 2.506 . S
O253 C236 1.252 . S
O254 Gd225 2.435 . S
O254 C243 1.256 . S
O255 Gd224 2.327 . S
O255 Gd225 2.717 1_655 S
O255 C243 1.257 1_655 S
H256 C229 0.930 1_556 S
H257 C230 0.931 . S
H258 C232 0.931 . S
H259 C233 0.931 . S
H260 C238 0.930 . S
H261 C239 0.931 . S
H262 C241 0.931 . S
H263 C242 0.931 . S
C264 C265 1.391 . S
C264 C266 1.394 . S
C264 H280 0.931 . S
C265 C264 1.391 . S
C265 C269 1.376 1_545 S
C266 C264 1.394 . S
C266 C267 1.369 . S
C266 C270 1.531 . S
C267 C266 1.369 . S
C267 C268 1.410 1_545 S
C267 C275 1.503 . S
C268 C267 1.410 1_565 S
C268 C269 1.392 . S
C268 C271 1.511 . S
C269 C265 1.376 1_565 S
C269 C268 1.392 . S
C269 H281 0.929 . S
C270 C266 1.531 . S
C270 H282 0.960 . S
C270 H283 0.962 . S
C270 H284 0.960 . S
C271 C268 1.511 . S
C271 H285 0.961 . S
C271 H286 0.961 . S
C271 H287 0.961 . S
C272 C273 1.370 1_565 S
C272 C274 1.363 . S
C272 H288 0.931 . S
C273 C272 1.370 1_545 S
C273 C277 1.408 . S
C274 C272 1.363 . S
C274 C275 1.370 1_565 S
C274 C278 1.524 . S
C275 C267 1.503 . S
C275 C274 1.370 1_545 S
C275 C276 1.403 . S
C276 C275 1.403 . S
C276 C277 1.404 . S
C276 C279 1.539 . S
C277 C273 1.408 . S
C277 C276 1.404 . S
C277 H289 0.930 . S
C278 C274 1.524 . S
C278 H290 0.956 . S
C278 H291 0.961 . S
C278 H292 0.961 . S
C279 C276 1.539 . S
C279 H293 0.958 . S
C279 H294 0.961 . S
C279 H295 0.960 . S
H280 C264 0.931 . S
H281 C269 0.929 . S
H282 C270 0.960 . S
H283 C270 0.962 . S
H284 C270 0.960 . S
H285 C271 0.961 . S
H286 C271 0.961 . S
H287 C271 0.961 . S
H288 C272 0.931 . S
H289 C277 0.930 . S
H290 C278 0.956 . S
H291 C278 0.961 . S
H292 C278 0.961 . S
H293 C279 0.958 . S
H294 C279 0.961 . S
H295 C279 0.960 . S
C296 C297 1.391 . S
C296 C298 1.394 . S
C296 H312 0.931 . S
C297 C296 1.391 . S
C297 C301 1.376 . S
C298 C296 1.394 . S
C298 C299 1.369 . S
C298 C302 1.531 . S
C299 C298 1.369 . S
C299 C300 1.410 . S
C299 C307 1.503 . S
C300 C299 1.410 . S
C300 C301 1.392 . S
C300 C303 1.511 . S
C301 C297 1.376 . S
C301 C300 1.392 . S
C301 H313 0.929 . S
C302 C298 1.531 . S
C302 H314 0.960 . S
C302 H315 0.962 . S
C302 H316 0.960 . S
C303 C300 1.511 . S
C303 H317 0.961 . S
C303 H318 0.961 . S
C303 H319 0.961 . S
C304 C305 1.370 . S
C304 C306 1.363 . S
C304 H320 0.931 . S
C305 C304 1.370 . S
C305 C309 1.408 . S
C306 C304 1.363 . S
C306 C307 1.370 . S
C306 C310 1.524 . S
C307 C299 1.503 . S
C307 C306 1.370 . S
C307 C308 1.403 . S
C308 C307 1.403 . S
C308 C309 1.404 . S
C308 C311 1.539 . S
C309 C305 1.408 . S
C309 C308 1.404 . S
C309 H321 0.930 . S
C310 C306 1.524 . S
C310 H322 0.956 . S
C310 H323 0.961 . S
C310 H324 0.961 . S
C311 C308 1.539 . S
C311 H325 0.958 . S
C311 H326 0.961 . S
C311 H327 0.960 . S
H312 C296 0.931 . S
H313 C301 0.929 . S
H314 C302 0.960 . S
H315 C302 0.962 . S
H316 C302 0.960 . S
H317 C303 0.961 . S
H318 C303 0.961 . S
H319 C303 0.961 . S
H320 C304 0.931 . S
H321 C309 0.930 . S
H322 C310 0.956 . S
H323 C310 0.961 . S
H324 C310 0.961 . S
H325 C311 0.958 . S
H326 C311 0.961 . S
H327 C311 0.960 . S
C328 C329 1.391 . S
C328 C330 1.394 . S
C328 H344 0.931 . S
C329 C328 1.391 . S
C329 C333 1.376 . S
C330 C328 1.394 . S
C330 C331 1.369 . S
C330 C334 1.531 . S
C331 C330 1.369 . S
C331 C332 1.410 . S
C331 C339 1.503 . S
C332 C331 1.410 . S
C332 C333 1.392 . S
C332 C335 1.511 . S
C333 C329 1.376 . S
C333 C332 1.392 . S
C333 H345 0.929 . S
C334 C330 1.531 . S
C334 H346 0.960 . S
C334 H347 0.962 . S
C334 H348 0.960 . S
C335 C332 1.511 . S
C335 H349 0.961 . S
C335 H350 0.961 . S
C335 H351 0.961 . S
C336 C337 1.370 . S
C336 C338 1.363 . S
C336 H352 0.931 . S
C337 C336 1.370 . S
C337 C341 1.408 . S
C338 C336 1.363 . S
C338 C339 1.370 . S
C338 C342 1.524 . S
C339 C331 1.503 . S
C339 C338 1.370 . S
C339 C340 1.403 . S
C340 C339 1.403 . S
C340 C341 1.404 . S
C340 C343 1.539 . S
C341 C337 1.408 . S
C341 C340 1.404 . S
C341 H353 0.930 . S
C342 C338 1.524 . S
C342 H354 0.956 . S
C342 H355 0.961 . S
C342 H356 0.961 . S
C343 C340 1.539 . S
C343 H357 0.958 . S
C343 H358 0.961 . S
C343 H359 0.960 . S
H344 C328 0.931 . S
H345 C333 0.929 . S
H346 C334 0.960 . S
H347 C334 0.962 . S
H348 C334 0.960 . S
H349 C335 0.961 . S
H350 C335 0.961 . S
H351 C335 0.961 . S
H352 C336 0.931 . S
H353 C341 0.930 . S
H354 C342 0.956 . S
H355 C342 0.961 . S
H356 C342 0.961 . S
H357 C343 0.958 . S
H358 C343 0.961 . S
H359 C343 0.960 . S
C360 C361 1.391 . S
C360 C362 1.394 . S
C360 H376 0.931 . S
C361 C360 1.391 . S
C361 C365 1.376 1_455 S
C362 C360 1.394 . S
C362 C363 1.369 . S
C362 C366 1.531 . S
C363 C362 1.369 . S
C363 C364 1.410 1_455 S
C363 C371 1.503 . S
C364 C363 1.410 1_655 S
C364 C365 1.392 . S
C364 C367 1.511 . S
C365 C361 1.376 1_655 S
C365 C364 1.392 . S
C365 H377 0.929 . S
C366 C362 1.531 . S
C366 H378 0.960 . S
C366 H379 0.962 . S
C366 H380 0.960 . S
C367 C364 1.511 . S
C367 H381 0.961 . S
C367 H382 0.961 . S
C367 H383 0.961 . S
C368 C369 1.370 . S
C368 C370 1.363 . S
C368 H384 0.931 . S
C369 C368 1.370 . S
C369 C373 1.408 1_455 S
C370 C368 1.363 . S
C370 C371 1.370 . S
C370 C374 1.524 . S
C371 C363 1.503 . S
C371 C370 1.370 . S
C371 C372 1.403 1_455 S
C372 C371 1.403 1_655 S
C372 C373 1.404 . S
C372 C375 1.539 . S
C373 C369 1.408 1_655 S
C373 C372 1.404 . S
C373 H385 0.930 . S
C374 C370 1.524 . S
C374 H386 0.956 . S
C374 H387 0.961 1_455 S
C374 H388 0.961 . S
C375 C372 1.539 . S
C375 H389 0.958 1_655 S
C375 H390 0.961 . S
C375 H391 0.960 . S
H376 C360 0.931 . S
H377 C365 0.929 . S
H378 C366 0.960 . S
H379 C366 0.962 . S
H380 C366 0.960 . S
H381 C367 0.961 . S
H382 C367 0.961 . S
H383 C367 0.961 . S
H384 C368 0.931 . S
H385 C373 0.930 . S
H386 C374 0.956 . S
H387 C374 0.961 1_655 S
H388 C374 0.961 . S
H389 C375 0.958 1_455 S
H390 C375 0.961 . S
H391 C375 0.960 . S
C392 C393 1.391 . S
C392 C394 1.394 . S
C392 H408 0.931 . S
C393 C392 1.391 . S
C393 C397 1.376 . S
C394 C392 1.394 . S
C394 C395 1.369 . S
C394 C398 1.531 . S
C395 C394 1.369 . S
C395 C396 1.410 . S
C395 C403 1.503 . S
C396 C395 1.410 . S
C396 C397 1.392 . S
C396 C399 1.511 . S
C397 C393 1.376 . S
C397 C396 1.392 . S
C397 H409 0.929 . S
C398 C394 1.531 . S
C398 H410 0.960 . S
C398 H411 0.962 1_565 S
C398 H412 0.960 . S
C399 C396 1.511 . S
C399 H413 0.961 1_565 S
C399 H414 0.961 1_564 S
C399 H415 0.961 . S
C400 C401 1.370 1_545 S
C400 C402 1.363 1_556 S
C400 H416 0.931 . S
C401 C400 1.370 1_565 S
C401 C405 1.408 . S
C402 C400 1.363 1_554 S
C402 C403 1.370 1_545 S
C402 C406 1.524 . S
C403 C395 1.503 . S
C403 C402 1.370 1_565 S
C403 C404 1.403 . S
C404 C403 1.403 . S
C404 C405 1.404 1_554 S
C404 C407 1.539 . S
C405 C401 1.408 . S
C405 C404 1.404 1_556 S
C405 H417 0.930 . S
C406 C402 1.524 . S
C406 H418 0.956 . S
C406 H419 0.961 . S
C406 H420 0.961 . S
C407 C404 1.539 . S
C407 H421 0.958 . S
C407 H422 0.961 1_554 S
C407 H423 0.960 . S
H408 C392 0.931 . S
H409 C397 0.929 . S
H410 C398 0.960 . S
H411 C398 0.962 1_545 S
H412 C398 0.960 . S
H413 C399 0.961 1_545 S
H414 C399 0.961 1_546 S
H415 C399 0.961 . S
H416 C400 0.931 . S
H417 C405 0.930 . S
H418 C406 0.956 . S
H419 C406 0.961 . S
H420 C406 0.961 . S
H421 C407 0.958 . S
H422 C407 0.961 1_556 S
H423 C407 0.960 . S
C424 C425 1.391 . S
C424 C426 1.394 . S
C424 H440 0.931 . S
C425 C424 1.391 . S
C425 C429 1.376 . S
C426 C424 1.394 . S
C426 C427 1.369 . S
C426 C430 1.531 . S
C427 C426 1.369 . S
C427 C428 1.410 . S
C427 C435 1.503 . S
C428 C427 1.410 . S
C428 C429 1.392 . S
C428 C431 1.511 . S
C429 C425 1.376 . S
C429 C428 1.392 . S
C429 H441 0.929 . S
C430 C426 1.531 . S
C430 H442 0.960 . S
C430 H443 0.962 . S
C430 H444 0.960 . S
C431 C428 1.511 . S
C431 H445 0.961 . S
C431 H446 0.961 . S
C431 H447 0.961 . S
C432 C433 1.370 1_554 S
C432 C434 1.363 . S
C432 H448 0.931 . S
C433 C432 1.370 1_556 S
C433 C437 1.408 . S
C434 C432 1.363 . S
C434 C435 1.370 . S
C434 C438 1.524 . S
C435 C427 1.503 . S
C435 C434 1.370 . S
C435 C436 1.403 1_554 S
C436 C435 1.403 1_556 S
C436 C437 1.404 . S
C436 C439 1.539 . S
C437 C433 1.408 . S
C437 C436 1.404 . S
C437 H449 0.930 . S
C438 C434 1.524 . S
C438 H450 0.956 . S
C438 H451 0.961 . S
C438 H452 0.961 . S
C439 C436 1.539 . S
C439 H453 0.958 . S
C439 H454 0.961 . S
C439 H455 0.960 1_556 S
H440 C424 0.931 . S
H441 C429 0.929 . S
H442 C430 0.960 . S
H443 C430 0.962 . S
H444 C430 0.960 . S
H445 C431 0.961 . S
H446 C431 0.961 . S
H447 C431 0.961 . S
H448 C432 0.931 . S
H449 C437 0.930 . S
H450 C438 0.956 . S
H451 C438 0.961 . S
H452 C438 0.961 . S
H453 C439 0.958 . S
H454 C439 0.961 . S
H455 C439 0.960 1_554 S
C456 C457 1.391 . S
C456 C458 1.394 . S
C456 H472 0.931 . S
C457 C456 1.391 . S
C457 C461 1.376 . S
C458 C456 1.394 . S
C458 C459 1.369 . S
C458 C462 1.531 . S
C459 C458 1.369 . S
C459 C460 1.410 . S
C459 C467 1.503 . S
C460 C459 1.410 . S
C460 C461 1.392 . S
C460 C463 1.511 . S
C461 C457 1.376 . S
C461 C460 1.392 . S
C461 H473 0.929 . S
C462 C458 1.531 . S
C462 H474 0.960 . S
C462 H475 0.962 . S
C462 H476 0.960 . S
C463 C460 1.511 . S
C463 H477 0.961 . S
C463 H478 0.961 . S
C463 H479 0.961 . S
C464 C465 1.370 . S
C464 C466 1.363 1_556 S
C464 H480 0.931 . S
C465 C464 1.370 . S
C465 C469 1.408 . S
C466 C464 1.363 1_554 S
C466 C467 1.370 . S
C466 C470 1.524 . S
C467 C459 1.503 . S
C467 C466 1.370 . S
C467 C468 1.403 . S
C468 C467 1.403 . S
C468 C469 1.404 1_554 S
C468 C471 1.539 . S
C469 C465 1.408 . S
C469 C468 1.404 1_556 S
C469 H481 0.930 . S
C470 C466 1.524 . S
C470 H482 0.956 . S
C470 H483 0.961 . S
C470 H484 0.961 . S
C471 C468 1.539 . S
C471 H485 0.958 . S
C471 H486 0.961 . S
C471 H487 0.960 . S
H472 C456 0.931 . S
H473 C461 0.929 . S
H474 C462 0.960 . S
H475 C462 0.962 . S
H476 C462 0.960 . S
H477 C463 0.961 . S
H478 C463 0.961 . S
H479 C463 0.961 . S
H480 C464 0.931 . S
H481 C469 0.930 . S
H482 C470 0.956 . S
H483 C470 0.961 . S
H484 C470 0.961 . S
H485 C471 0.958 . S
H486 C471 0.961 . S
H487 C471 0.960 . S
C488 C489 1.385 1_455 S
C488 C490 1.394 . S
C488 H504 0.931 . S
C489 C488 1.385 1_655 S
C489 C493 1.381 . S
C490 C488 1.394 . S
C490 C491 1.369 . S
C490 C494 1.531 . S
C491 C490 1.369 . S
C491 C492 1.410 1_455 S
C491 C499 1.505 . S
C492 C491 1.410 1_655 S
C492 C493 1.392 . S
C492 C495 1.511 . S
C493 C489 1.381 . S
C493 C492 1.392 . S
C493 H505 0.929 . S
C494 C490 1.531 . S
C494 H506 0.960 . S
C494 H507 0.962 . S
C494 H508 0.960 . S
C495 C492 1.511 . S
C495 H509 0.961 . S
C495 H510 0.961 . S
C495 H511 0.961 . S
C496 C497 1.370 . S
C496 C498 1.363 . S
C496 H512 0.931 . S
C497 C496 1.370 . S
C497 C501 1.408 1_656 S
C498 C496 1.363 . S
C498 C499 1.357 1_656 S
C498 C502 1.524 . S
C499 C491 1.505 . S
C499 C498 1.357 1_454 S
C499 C500 1.416 . S
C500 C499 1.416 . S
C500 C501 1.404 . S
C500 C503 1.539 . S
C501 C497 1.408 1_454 S
C501 C500 1.404 . S
C501 H513 0.930 . S
C502 C498 1.524 . S
C502 H514 0.956 . S
C502 H515 0.961 1_556 S
C502 H516 0.961 . S
C503 C500 1.539 . S
C503 H517 0.958 . S
C503 H518 0.961 . S
C503 H519 0.960 . S
H504 C488 0.931 . S
H505 C493 0.929 . S
H506 C494 0.960 . S
H507 C494 0.962 . S
H508 C494 0.960 . S
H509 C495 0.961 . S
H510 C495 0.961 . S
H511 C495 0.961 . S
H512 C496 0.931 . S
H513 C501 0.930 . S
H514 C502 0.956 . S
H515 C502 0.961 1_554 S
H516 C502 0.961 . S
H517 C503 0.958 . S
H518 C503 0.961 . S
H519 C503 0.960 . S
C520 C521 1.391 1_655 S
C520 C522 1.394 . S
C520 H536 0.931 . S
C521 C520 1.391 1_455 S
C521 C525 1.376 . S
C522 C520 1.394 . S
C522 C523 1.369 . S
C522 C526 1.531 . S
C523 C522 1.369 . S
C523 C524 1.410 1_655 S
C523 C531 1.503 . S
C524 C523 1.410 1_455 S
C524 C525 1.392 . S
C524 C527 1.511 . S
C525 C521 1.376 . S
C525 C524 1.392 . S
C525 H537 0.929 . S
C526 C522 1.531 . S
C526 H538 0.960 . S
C526 H539 0.962 . S
C526 H540 0.960 . S
C527 C524 1.511 . S
C527 H541 0.961 . S
C527 H542 0.961 . S
C527 H543 0.961 . S
C528 C529 1.370 . S
C528 C530 1.363 . S
C528 H544 0.931 . S
C529 C528 1.370 . S
C529 C533 1.408 . S
C530 C528 1.363 . S
C530 C531 1.370 . S
C530 C534 1.524 . S
C531 C523 1.503 . S
C531 C530 1.370 . S
C531 C532 1.403 . S
C532 C531 1.403 . S
C532 C533 1.404 . S
C532 C535 1.522 1_655 S
C533 C529 1.408 . S
C533 C532 1.404 . S
C533 H545 0.930 . S
C534 C530 1.524 . S
C534 H546 0.956 . S
C534 H547 0.961 . S
C534 H548 0.961 . S
C535 C532 1.522 1_455 S
C535 H549 0.936 1_455 S
C535 H550 0.980 . S
C535 H551 0.982 . S
H536 C520 0.931 . S
H537 C525 0.929 . S
H538 C526 0.960 . S
H539 C526 0.962 . S
H540 C526 0.960 . S
H541 C527 0.961 . S
H542 C527 0.961 . S
H543 C527 0.961 . S
H544 C528 0.931 . S
H545 C533 0.930 . S
H546 C534 0.956 . S
H547 C534 0.961 . S
H548 C534 0.961 . S
H549 C535 0.936 1_655 S
H550 C535 0.980 . S
H551 C535 0.982 . S
C552 C553 1.391 . S
C552 C554 1.394 . S
C552 H568 0.931 . S
C553 C552 1.391 . S
C553 C557 1.376 1_545 S
C554 C552 1.394 . S
C554 C555 1.369 1_545 S
C554 C558 1.531 . S
C555 C554 1.369 1_565 S
C555 C556 1.410 . S
C555 C563 1.503 . S
C556 C555 1.410 . S
C556 C557 1.392 . S
C556 C559 1.511 . S
C557 C553 1.376 1_565 S
C557 C556 1.392 . S
C557 H569 0.929 . S
C558 C554 1.531 . S
C558 H570 0.960 . S
C558 H571 0.962 . S
C558 H572 0.960 . S
C559 C556 1.511 . S
C559 H573 0.961 . S
C559 H574 0.961 . S
C559 H575 0.961 . S
C560 C561 1.370 . S
C560 C562 1.363 . S
C560 H576 0.931 . S
C561 C560 1.370 . S
C561 C565 1.408 . S
C562 C560 1.363 . S
C562 C563 1.370 . S
C562 C566 1.524 . S
C563 C555 1.503 . S
C563 C562 1.370 . S
C563 C564 1.403 . S
C564 C563 1.403 . S
C564 C565 1.404 . S
C564 C567 1.539 . S
C565 C561 1.408 . S
C565 C564 1.404 . S
C565 H577 0.930 . S
C566 C562 1.524 . S
C566 H578 0.957 . S
C566 H579 0.961 . S
C566 H580 0.961 . S
C567 C564 1.539 . S
C567 H581 0.958 . S
C567 H582 0.961 . S
C567 H583 0.960 . S
H568 C552 0.931 . S
H569 C557 0.929 . S
H570 C558 0.960 . S
H571 C558 0.962 . S
H572 C558 0.960 . S
H573 C559 0.961 . S
H574 C559 0.961 . S
H575 C559 0.961 . S
H576 C560 0.931 . S
H577 C565 0.930 . S
H578 C566 0.957 . S
H579 C566 0.961 . S
H580 C566 0.961 . S
H581 C567 0.958 . S
H582 C567 0.961 . S
H583 C567 0.960 . S
C584 C585 1.391 . S
C584 C586 1.394 . S
C584 H600 0.931 . S
C585 C584 1.391 . S
C585 C589 1.376 . S
C586 C584 1.394 . S
C586 C587 1.369 . S
C586 C590 1.531 . S
C587 C586 1.369 . S
C587 C588 1.410 . S
C587 C595 1.503 . S
C588 C587 1.410 . S
C588 C589 1.392 . S
C588 C591 1.511 . S
C589 C585 1.376 . S
C589 C588 1.392 . S
C589 H601 0.929 . S
C590 C586 1.531 . S
C590 H602 0.960 . S
C590 H603 0.962 . S
C590 H604 0.960 . S
C591 C588 1.511 . S
C591 H605 0.961 . S
C591 H606 0.961 . S
C591 H607 0.961 . S
C592 C593 1.370 . S
C592 C594 1.363 . S
C592 H608 0.931 . S
C593 C592 1.370 . S
C593 C597 1.408 . S
C594 C592 1.363 . S
C594 C595 1.370 . S
C594 C598 1.524 . S
C595 C587 1.503 . S
C595 C594 1.370 . S
C595 C596 1.403 . S
C596 C595 1.403 . S
C596 C597 1.404 . S
C596 C599 1.539 . S
C597 C593 1.408 . S
C597 C596 1.404 . S
C597 H609 0.930 . S
C598 C594 1.524 . S
C598 H610 0.956 . S
C598 H611 0.961 . S
C598 H612 0.961 . S
C599 C596 1.539 . S
C599 H613 0.958 . S
C599 H614 0.961 . S
C599 H615 0.960 . S
H600 C584 0.931 . S
H601 C589 0.929 . S
H602 C590 0.960 . S
H603 C590 0.962 . S
H604 C590 0.960 . S
H605 C591 0.961 . S
H606 C591 0.961 . S
H607 C591 0.961 . S
H608 C592 0.931 . S
H609 C597 0.930 . S
H610 C598 0.956 . S
H611 C598 0.961 . S
H612 C598 0.961 . S
H613 C599 0.958 . S
H614 C599 0.961 . S
H615 C599 0.960 . S
C616 C617 1.391 . S
C616 C618 1.394 . S
C616 H632 0.931 . S
C617 C616 1.391 . S
C617 C621 1.376 . S
C618 C616 1.394 . S
C618 C619 1.369 . S
C618 C622 1.531 . S
C619 C618 1.369 . S
C619 C620 1.410 . S
C619 C627 1.503 . S
C620 C619 1.410 . S
C620 C621 1.392 . S
C620 C623 1.511 . S
C621 C617 1.376 . S
C621 C620 1.392 . S
C621 H633 0.929 . S
C622 C618 1.531 . S
C622 H634 0.960 . S
C622 H635 0.962 . S
C622 H636 0.960 . S
C623 C620 1.511 . S
C623 H637 0.961 . S
C623 H638 0.961 . S
C623 H639 0.961 . S
C624 C625 1.370 . S
C624 C626 1.363 . S
C624 H640 0.931 . S
C625 C624 1.370 . S
C625 C629 1.408 . S
C626 C624 1.363 . S
C626 C627 1.370 . S
C626 C630 1.524 . S
C627 C619 1.503 . S
C627 C626 1.370 . S
C627 C628 1.403 . S
C628 C627 1.403 . S
C628 C629 1.404 . S
C628 C631 1.539 . S
C629 C625 1.408 . S
C629 C628 1.404 . S
C629 H641 0.930 . S
C630 C626 1.524 . S
C630 H642 0.956 . S
C630 H643 0.961 . S
C630 H644 0.961 . S
C631 C628 1.539 . S
C631 H645 0.958 . S
C631 H646 0.961 . S
C631 H647 0.960 . S
H632 C616 0.931 . S
H633 C621 0.929 . S
H634 C622 0.960 . S
H635 C622 0.962 . S
H636 C622 0.960 . S
H637 C623 0.961 . S
H638 C623 0.961 . S
H639 C623 0.961 . S
H640 C624 0.931 . S
H641 C629 0.930 . S
H642 C630 0.956 . S
H643 C630 0.961 . S
H644 C630 0.961 . S
H645 C631 0.958 . S
H646 C631 0.961 . S
H647 C631 0.960 . S
C648 C649 1.391 . S
C648 C650 1.394 . S
C648 H664 0.931 . S
C649 C648 1.391 . S
C649 C653 1.376 1_655 S
C650 C648 1.394 . S
C650 C651 1.369 1_655 S
C650 C654 1.531 . S
C651 C650 1.369 1_455 S
C651 C652 1.410 . S
C651 C659 1.503 . S
C652 C651 1.410 . S
C652 C653 1.392 . S
C652 C655 1.511 . S
C653 C649 1.376 1_455 S
C653 C652 1.392 . S
C653 H665 0.929 . S
C654 C650 1.531 . S
C654 H666 0.960 . S
C654 H667 0.962 . S
C654 H668 0.960 . S
C655 C652 1.511 . S
C655 H669 0.961 . S
C655 H670 0.961 . S
C655 H671 0.961 . S
C656 C657 1.370 . S
C656 C658 1.363 . S
C656 H672 0.931 . S
C657 C656 1.370 . S
C657 C661 1.408 . S
C658 C656 1.363 . S
C658 C659 1.370 . S
C658 C662 1.524 . S
C659 C651 1.503 . S
C659 C658 1.370 . S
C659 C660 1.403 . S
C660 C659 1.403 . S
C660 C661 1.404 . S
C660 C663 1.539 . S
C661 C657 1.408 . S
C661 C660 1.404 . S
C661 H673 0.930 . S
C662 C658 1.524 . S
C662 H674 0.956 . S
C662 H675 0.961 . S
C662 H676 0.961 . S
C663 C660 1.539 . S
C663 H677 0.958 1_455 S
C663 H678 0.961 . S
C663 H679 0.960 . S
H664 C648 0.931 . S
H665 C653 0.929 . S
H666 C654 0.960 . S
H667 C654 0.962 . S
H668 C654 0.960 . S
H669 C655 0.961 . S
H670 C655 0.961 . S
H671 C655 0.961 . S
H672 C656 0.931 . S
H673 C661 0.930 . S
H674 C662 0.956 . S
H675 C662 0.961 . S
H676 C662 0.961 . S
H677 C663 0.958 1_655 S
H678 C663 0.961 . S
H679 C663 0.960 . S
C680 C681 1.391 . S
C680 C682 1.394 . S
C680 H696 0.931 . S
C681 C680 1.391 . S
C681 C685 1.376 1_565 S
C682 C680 1.394 . S
C682 C683 1.369 1_565 S
C682 C686 1.531 . S
C683 C682 1.369 1_545 S
C683 C684 1.410 . S
C683 C691 1.503 . S
C684 C683 1.410 . S
C684 C685 1.392 . S
C684 C687 1.511 . S
C685 C681 1.376 1_545 S
C685 C684 1.392 . S
C685 H697 0.929 . S
C686 C682 1.531 . S
C686 H698 0.960 . S
C686 H699 0.962 . S
C686 H700 0.960 . S
C687 C684 1.511 . S
C687 H701 0.961 . S
C687 H702 0.961 . S
C687 H703 0.961 . S
C688 C689 1.370 . S
C688 C690 1.363 . S
C688 H704 0.931 . S
C689 C688 1.370 . S
C689 C693 1.408 . S
C690 C688 1.363 . S
C690 C691 1.370 . S
C690 C694 1.524 . S
C691 C683 1.503 . S
C691 C690 1.370 . S
C691 C692 1.403 . S
C692 C691 1.403 . S
C692 C693 1.404 . S
C692 C695 1.539 . S
C693 C689 1.408 . S
C693 C692 1.404 . S
C693 H705 0.930 . S
C694 C690 1.524 . S
C694 H706 0.956 . S
C694 H707 0.961 . S
C694 H708 0.961 . S
C695 C692 1.539 . S
C695 H709 0.958 1_545 S
C695 H710 0.961 . S
C695 H711 0.960 . S
H696 C680 0.931 . S
H697 C685 0.929 . S
H698 C686 0.960 . S
H699 C686 0.962 . S
H700 C686 0.960 . S
H701 C687 0.961 . S
H702 C687 0.961 . S
H703 C687 0.961 . S
H704 C688 0.931 . S
H705 C693 0.930 . S
H706 C694 0.956 . S
H707 C694 0.961 . S
H708 C694 0.961 . S
H709 C695 0.958 1_565 S
H710 C695 0.961 . S
H711 C695 0.960 . S
C712 C713 1.391 . S
C712 C714 1.394 . S
C712 H728 0.931 . S
C713 C712 1.391 . S
C713 C717 1.376 . S
C714 C712 1.394 . S
C714 C715 1.369 . S
C714 C718 1.531 . S
C715 C714 1.369 . S
C715 C716 1.410 . S
C715 C723 1.503 . S
C716 C715 1.410 . S
C716 C717 1.392 . S
C716 C719 1.511 . S
C717 C713 1.376 . S
C717 C716 1.392 . S
C717 H729 0.929 . S
C718 C714 1.531 . S
C718 H730 0.960 . S
C718 H731 0.962 . S
C718 H732 0.960 . S
C719 C716 1.511 . S
C719 H733 0.961 . S
C719 H734 0.961 . S
C719 H735 0.961 . S
C720 C721 1.370 . S
C720 C722 1.363 . S
C720 H736 0.931 . S
C721 C720 1.370 . S
C721 C725 1.408 . S
C722 C720 1.363 . S
C722 C723 1.370 . S
C722 C726 1.524 . S
C723 C715 1.503 . S
C723 C722 1.370 . S
C723 C724 1.403 . S
C724 C723 1.403 . S
C724 C725 1.404 . S
C724 C727 1.539 . S
C725 C721 1.408 . S
C725 C724 1.404 . S
C725 H737 0.930 1_554 S
C726 C722 1.524 . S
C726 H738 0.956 . S
C726 H739 0.961 . S
C726 H740 0.961 . S
C727 C724 1.539 . S
C727 H741 0.958 . S
C727 H742 0.961 1_554 S
C727 H743 0.960 . S
H728 C712 0.931 . S
H729 C717 0.929 . S
H730 C718 0.960 . S
H731 C718 0.962 . S
H732 C718 0.960 . S
H733 C719 0.961 . S
H734 C719 0.961 . S
H735 C719 0.961 . S
H736 C720 0.931 . S
H737 C725 0.930 1_556 S
H738 C726 0.956 . S
H739 C726 0.961 . S
H740 C726 0.961 . S
H741 C727 0.958 . S
H742 C727 0.961 1_556 S
H743 C727 0.960 . S
C744 C745 1.391 . S
C744 C746 1.394 . S
C744 H760 0.931 . S
C745 C744 1.391 . S
C745 C749 1.376 . S
C746 C744 1.394 . S
C746 C747 1.369 . S
C746 C750 1.531 . S
C747 C746 1.369 . S
C747 C748 1.410 . S
C747 C755 1.503 . S
C748 C747 1.410 . S
C748 C749 1.392 . S
C748 C751 1.511 . S
C749 C745 1.376 . S
C749 C748 1.392 . S
C749 H761 0.929 . S
C750 C746 1.531 . S
C750 H762 0.960 . S
C750 H763 0.962 . S
C750 H764 0.960 . S
C751 C748 1.511 . S
C751 H765 0.961 . S
C751 H766 0.961 . S
C751 H767 0.961 . S
C752 C753 1.370 . S
C752 C754 1.363 . S
C752 H768 0.931 . S
C753 C752 1.370 . S
C753 C757 1.408 . S
C754 C752 1.363 . S
C754 C755 1.370 . S
C754 C758 1.524 . S
C755 C747 1.503 . S
C755 C754 1.370 . S
C755 C756 1.403 . S
C756 C755 1.403 . S
C756 C757 1.404 . S
C756 C759 1.539 . S
C757 C753 1.408 . S
C757 C756 1.404 . S
C757 H769 0.930 . S
C758 C754 1.524 . S
C758 H770 0.956 . S
C758 H771 0.961 . S
C758 H772 0.961 . S
C759 C756 1.539 . S
C759 H773 0.958 . S
C759 H774 0.961 1_554 S
C759 H775 0.960 . S
H760 C744 0.931 . S
H761 C749 0.929 . S
H762 C750 0.960 . S
H763 C750 0.962 . S
H764 C750 0.960 . S
H765 C751 0.961 . S
H766 C751 0.961 . S
H767 C751 0.961 . S
H768 C752 0.931 . S
H769 C757 0.930 . S
H770 C758 0.956 . S
H771 C758 0.961 . S
H772 C758 0.961 . S
H773 C759 0.958 . S
H774 C759 0.961 1_556 S
H775 C759 0.960 . S
C776 C777 1.391 . S
C776 C778 1.394 . S
C776 H792 0.931 . S
C777 C776 1.391 . S
C777 C781 1.376 1_455 S
C778 C776 1.394 . S
C778 C779 1.369 . S
C778 C782 1.531 . S
C779 C778 1.369 . S
C779 C780 1.410 1_455 S
C779 C787 1.503 . S
C780 C779 1.410 1_655 S
C780 C781 1.392 . S
C780 C783 1.511 . S
C781 C777 1.376 1_655 S
C781 C780 1.392 . S
C781 H793 0.929 . S
C782 C778 1.531 . S
C782 H794 0.960 . S
C782 H795 0.962 . S
C782 H796 0.960 1_556 S
C783 C780 1.511 . S
C783 H797 0.961 . S
C783 H798 0.961 . S
C783 H799 0.961 . S
C784 C785 1.370 . S
C784 C786 1.363 . S
C784 H800 0.931 . S
C785 C784 1.370 . S
C785 C789 1.408 1_455 S
C786 C784 1.363 . S
C786 C787 1.370 . S
C786 C790 1.524 . S
C787 C779 1.503 . S
C787 C786 1.370 . S
C787 C788 1.403 1_455 S
C788 C787 1.403 1_655 S
C788 C789 1.404 . S
C788 C791 1.539 . S
C789 C785 1.408 1_655 S
C789 C788 1.404 . S
C789 H801 0.930 . S
C790 C786 1.524 . S
C790 H802 0.956 . S
C790 H803 0.961 . S
C790 H804 0.961 . S
C791 C788 1.539 . S
C791 H805 0.958 1_556 S
C791 H806 0.961 1_556 S
C791 H807 0.960 . S
H792 C776 0.931 . S
H793 C781 0.929 . S
H794 C782 0.960 . S
H795 C782 0.962 . S
H796 C782 0.960 1_554 S
H797 C783 0.961 . S
H798 C783 0.961 . S
H799 C783 0.961 . S
H800 C784 0.931 . S
H801 C789 0.930 . S
H802 C790 0.956 . S
H803 C790 0.961 . S
H804 C790 0.961 . S
H805 C791 0.958 1_554 S
H806 C791 0.961 1_554 S
H807 C791 0.960 . S
C808 C809 1.391 1_565 S
C808 C810 1.394 . S
C808 H824 0.931 . S
C809 C808 1.391 1_545 S
C809 C813 1.376 . S
C810 C808 1.394 . S
C810 C811 1.369 1_565 S
C810 C814 1.531 . S
C811 C810 1.369 1_545 S
C811 C812 1.410 . S
C811 C819 1.503 . S
C812 C811 1.410 . S
C812 C813 1.392 . S
C812 C815 1.511 . S
C813 C809 1.376 . S
C813 C812 1.392 . S
C813 H825 0.929 . S
C814 C810 1.531 . S
C814 H826 0.960 . S
C814 H827 0.962 . S
C814 H828 0.960 . S
C815 C812 1.511 . S
C815 H829 0.961 . S
C815 H830 0.961 . S
C815 H831 0.961 . S
C816 C817 1.370 . S
C816 C818 1.363 . S
C816 H832 0.931 . S
C817 C816 1.370 . S
C817 C821 1.408 1_545 S
C818 C816 1.363 . S
C818 C819 1.370 . S
C818 C822 1.524 . S
C819 C811 1.503 . S
C819 C818 1.370 . S
C819 C820 1.403 1_545 S
C820 C819 1.403 1_565 S
C820 C821 1.404 . S
C820 C823 1.539 . S
C821 C817 1.408 1_565 S
C821 C820 1.404 . S
C821 H833 0.930 . S
C822 C818 1.524 . S
C822 H834 0.956 1_556 S
C822 H835 0.961 . S
C822 H836 0.961 . S
C823 C820 1.539 . S
C823 H837 0.958 . S
C823 H838 0.961 . S
C823 H839 0.960 . S
H824 C808 0.931 . S
H825 C813 0.929 . S
H826 C814 0.960 . S
H827 C814 0.962 . S
H828 C814 0.960 . S
H829 C815 0.961 . S
H830 C815 0.961 . S
H831 C815 0.961 . S
H832 C816 0.931 . S
H833 C821 0.930 . S
H834 C822 0.956 1_554 S
H835 C822 0.961 . S
H836 C822 0.961 . S
H837 C823 0.958 . S
H838 C823 0.961 . S
H839 C823 0.960 . S
C840 C841 1.391 . S
C840 C842 1.394 . S
C840 H856 0.931 . S
C841 C840 1.391 . S
C841 C845 1.376 . S
C842 C840 1.394 . S
C842 C843 1.369 . S
C842 C846 1.531 . S
C843 C842 1.369 . S
C843 C844 1.410 . S
C843 C851 1.503 . S
C844 C843 1.410 . S
C844 C845 1.392 . S
C844 C847 1.511 . S
C845 C841 1.376 . S
C845 C844 1.392 . S
C845 H857 0.929 . S
C846 C842 1.531 . S
C846 H858 0.960 . S
C846 H859 0.962 . S
C846 H860 0.960 . S
C847 C844 1.511 . S
C847 H861 0.961 . S
C847 H862 0.961 . S
C847 H863 0.961 . S
C848 C849 1.370 . S
C848 C850 1.363 . S
C848 H864 0.931 . S
C849 C848 1.370 . S
C849 C853 1.408 . S
C850 C848 1.363 . S
C850 C851 1.370 . S
C850 C854 1.524 . S
C851 C843 1.503 . S
C851 C850 1.370 . S
C851 C852 1.403 . S
C852 C851 1.403 . S
C852 C853 1.404 . S
C852 C855 1.539 . S
C853 C849 1.408 . S
C853 C852 1.404 . S
C853 H865 0.930 . S
C854 C850 1.524 . S
C854 H866 0.955 1_556 S
C854 H867 0.961 1_556 S
C854 H868 0.961 1_556 S
C855 C852 1.539 . S
C855 H869 0.958 . S
C855 H870 0.961 . S
C855 H871 0.960 . S
H856 C840 0.931 . S
H857 C845 0.929 . S
H858 C846 0.960 . S
H859 C846 0.962 . S
H860 C846 0.960 . S
H861 C847 0.961 . S
H862 C847 0.961 . S
H863 C847 0.961 . S
H864 C848 0.931 . S
H865 C853 0.930 . S
H866 C854 0.955 1_554 S
H867 C854 0.961 1_554 S
H868 C854 0.961 1_554 S
H869 C855 0.958 . S
H870 C855 0.961 . S
H871 C855 0.960 . S
C872 C873 1.391 . S
C872 C874 1.394 . S
C872 H888 0.931 . S
C873 C872 1.391 . S
C873 C877 1.376 . S
C874 C872 1.394 . S
C874 C875 1.369 . S
C874 C878 1.531 . S
C875 C874 1.369 . S
C875 C876 1.410 . S
C875 C883 1.503 . S
C876 C875 1.410 . S
C876 C877 1.392 . S
C876 C879 1.511 . S
C877 C873 1.376 . S
C877 C876 1.392 . S
C877 H889 0.929 . S
C878 C874 1.531 . S
C878 H890 0.960 . S
C878 H891 0.962 . S
C878 H892 0.960 . S
C879 C876 1.511 . S
C879 H893 0.961 . S
C879 H894 0.961 . S
C879 H895 0.961 . S
C880 C881 1.370 . S
C880 C882 1.363 . S
C880 H896 0.931 . S
C881 C880 1.370 . S
C881 C885 1.408 . S
C882 C880 1.363 . S
C882 C883 1.370 . S
C882 C886 1.524 . S
C883 C875 1.503 . S
C883 C882 1.370 . S
C883 C884 1.403 . S
C884 C883 1.403 . S
C884 C885 1.404 . S
C884 C887 1.539 . S
C885 C881 1.408 . S
C885 C884 1.404 . S
C885 H897 0.930 . S
C886 C882 1.524 . S
C886 H898 0.956 1_556 S
C886 H899 0.961 . S
C886 H900 0.961 1_556 S
C887 C884 1.539 . S
C887 H901 0.958 . S
C887 H902 0.961 . S
C887 H903 0.960 . S
H888 C872 0.931 . S
H889 C877 0.929 . S
H890 C878 0.960 . S
H891 C878 0.962 . S
H892 C878 0.960 . S
H893 C879 0.961 . S
H894 C879 0.961 . S
H895 C879 0.961 . S
H896 C880 0.931 . S
H897 C885 0.930 . S
H898 C886 0.956 1_554 S
H899 C886 0.961 . S
H900 C886 0.961 1_554 S
H901 C887 0.958 . S
H902 C887 0.961 . S
H903 C887 0.960 . S
C904 C905 1.391 1_455 S
C904 C906 1.394 . S
C904 H920 0.931 . S
C905 C904 1.391 1_655 S
C905 C909 1.376 . S
C906 C904 1.394 . S
C906 C907 1.369 1_455 S
C906 C910 1.531 . S
C907 C906 1.369 1_655 S
C907 C908 1.410 . S
C907 C915 1.503 . S
C908 C907 1.410 . S
C908 C909 1.392 . S
C908 C911 1.511 . S
C909 C905 1.376 . S
C909 C908 1.392 . S
C909 H921 0.929 . S
C910 C906 1.531 . S
C910 H922 0.960 . S
C910 H923 0.962 . S
C910 H924 0.960 . S
C911 C908 1.511 . S
C911 H925 0.961 . S
C911 H926 0.961 . S
C911 H927 0.961 . S
C912 C913 1.370 . S
C912 C914 1.363 . S
C912 H928 0.931 . S
C913 C912 1.370 . S
C913 C917 1.408 . S
C914 C912 1.363 . S
C914 C915 1.370 . S
C914 C918 1.524 . S
C915 C907 1.503 . S
C915 C914 1.370 . S
C915 C916 1.403 . S
C916 C915 1.403 . S
C916 C917 1.404 . S
C916 C919 1.539 . S
C917 C913 1.408 . S
C917 C916 1.404 . S
C917 H929 0.930 . S
C918 C914 1.524 . S
C918 H930 0.956 1_655 S
C918 H931 0.961 . S
C918 H932 0.961 . S
C919 C916 1.539 . S
C919 H933 0.958 1_655 S
C919 H934 0.961 . S
C919 H935 0.960 . S
H920 C904 0.931 . S
H921 C909 0.929 . S
H922 C910 0.960 . S
H923 C910 0.962 . S
H924 C910 0.960 . S
H925 C911 0.961 . S
H926 C911 0.961 . S
H927 C911 0.961 . S
H928 C912 0.931 . S
H929 C917 0.930 . S
H930 C918 0.956 1_455 S
H931 C918 0.961 . S
H932 C918 0.961 . S
H933 C919 0.958 1_455 S
H934 C919 0.961 . S
H935 C919 0.960 . S
C936 C937 1.391 . S
C936 C938 1.394 . S
C936 H952 0.931 . S
C937 C936 1.391 . S
C937 C941 1.376 1_565 S
C938 C936 1.394 . S
C938 C939 1.369 . S
C938 C942 1.531 . S
C939 C938 1.369 . S
C939 C940 1.410 1_565 S
C939 C947 1.503 . S
C940 C939 1.410 1_545 S
C940 C941 1.392 . S
C940 C943 1.511 . S
C941 C937 1.376 1_545 S
C941 C940 1.392 . S
C941 H953 0.929 . S
C942 C938 1.531 . S
C942 H954 0.960 . S
C942 H955 0.962 . S
C942 H956 0.960 . S
C943 C940 1.511 . S
C943 H957 0.961 . S
C943 H958 0.961 . S
C943 H959 0.961 . S
C944 C945 1.370 . S
C944 C946 1.363 . S
C944 H960 0.931 . S
C945 C944 1.370 . S
C945 C949 1.408 1_565 S
C946 C944 1.363 . S
C946 C947 1.370 . S
C946 C950 1.524 . S
C947 C939 1.503 . S
C947 C946 1.370 . S
C947 C948 1.403 1_565 S
C948 C947 1.403 1_545 S
C948 C949 1.404 . S
C948 C951 1.539 . S
C949 C945 1.408 1_545 S
C949 C948 1.404 . S
C949 H961 0.930 . S
C950 C946 1.524 . S
C950 H962 0.956 . S
C950 H963 0.961 . S
C950 H964 0.961 . S
C951 C948 1.539 . S
C951 H965 0.958 . S
C951 H966 0.961 . S
C951 H967 0.960 . S
H952 C936 0.931 . S
H953 C941 0.929 . S
H954 C942 0.960 . S
H955 C942 0.962 . S
H956 C942 0.960 . S
H957 C943 0.961 . S
H958 C943 0.961 . S
H959 C943 0.961 . S
H960 C944 0.931 . S
H961 C949 0.930 . S
H962 C950 0.956 . S
H963 C950 0.961 . S
H964 C950 0.961 . S
H965 C951 0.958 . S
H966 C951 0.961 . S
H967 C951 0.960 . S
C968 C969 1.391 . S
C968 C970 1.394 . S
C968 H984 0.931 . S
C969 C968 1.391 . S
C969 C973 1.376 . S
C970 C968 1.394 . S
C970 C971 1.369 . S
C970 C974 1.531 . S
C971 C970 1.369 . S
C971 C972 1.410 . S
C971 C979 1.503 . S
C972 C971 1.410 . S
C972 C973 1.392 . S
C972 C975 1.511 . S
C973 C969 1.376 . S
C973 C972 1.392 . S
C973 H985 0.929 . S
C974 C970 1.531 . S
C974 H986 0.960 . S
C974 H987 0.962 . S
C974 H988 0.960 . S
C975 C972 1.511 . S
C975 H989 0.961 . S
C975 H990 0.961 . S
C975 H991 0.961 . S
C976 C977 1.370 . S
C976 C978 1.363 . S
C976 H992 0.931 . S
C977 C976 1.370 . S
C977 C981 1.408 . S
C978 C976 1.363 . S
C978 C979 1.370 . S
C978 C982 1.524 . S
C979 C971 1.503 . S
C979 C978 1.370 . S
C979 C980 1.403 . S
C980 C979 1.403 . S
C980 C981 1.404 . S
C980 C983 1.539 . S
C981 C977 1.408 . S
C981 C980 1.404 . S
C981 H993 0.930 . S
C982 C978 1.524 . S
C982 H994 0.956 . S
C982 H995 0.961 . S
C982 H996 0.961 . S
C983 C980 1.539 . S
C983 H997 0.958 . S
C983 H998 0.961 . S
C983 H999 0.960 . S
H984 C968 0.931 . S
H985 C973 0.929 . S
H986 C974 0.960 . S
H987 C974 0.962 . S
H988 C974 0.960 . S
H989 C975 0.961 . S
H990 C975 0.961 . S
H991 C975 0.961 . S
H992 C976 0.931 . S
H993 C981 0.930 . S
H994 C982 0.956 . S
H995 C982 0.961 . S
H996 C982 0.961 . S
H997 C983 0.958 . S
H998 C983 0.961 . S
H999 C983 0.960 . S
C1000 C1001 1.391 . S
C1000 C1002 1.394 . S
C1000 H1016 0.931 . S
C1001 C1000 1.391 . S
C1001 C1005 1.376 . S
C1002 C1000 1.394 . S
C1002 C1003 1.369 . S
C1002 C1006 1.531 . S
C1003 C1002 1.369 . S
C1003 C1004 1.410 . S
C1003 C1011 1.503 . S
C1004 C1003 1.410 . S
C1004 C1005 1.392 . S
C1004 C1007 1.511 . S
C1005 C1001 1.376 . S
C1005 C1004 1.392 . S
C1005 H1017 0.929 . S
C1006 C1002 1.531 . S
C1006 H1018 0.960 . S
C1006 H1019 0.962 . S
C1006 H1020 0.960 . S
C1007 C1004 1.511 . S
C1007 H1021 0.961 . S
C1007 H1022 0.961 . S
C1007 H1023 0.961 . S
C1008 C1009 1.370 . S
C1008 C1010 1.363 . S
C1008 H1024 0.931 . S
C1009 C1008 1.370 . S
C1009 C1013 1.408 . S
C1010 C1008 1.363 . S
C1010 C1011 1.370 . S
C1010 C1014 1.524 . S
C1011 C1003 1.503 . S
C1011 C1010 1.370 . S
C1011 C1012 1.403 . S
C1012 C1011 1.403 . S
C1012 C1013 1.404 . S
C1012 C1015 1.539 . S
C1013 C1009 1.408 . S
C1013 C1012 1.404 . S
C1013 H1025 0.930 . S
C1014 C1010 1.524 . S
C1014 H1026 0.956 . S
C1014 H1027 0.961 . S
C1014 H1028 0.961 . S
C1015 C1012 1.539 . S
C1015 H1029 0.958 . S
C1015 H1030 0.961 . S
C1015 H1031 0.960 . S
H1016 C1000 0.931 . S
H1017 C1005 0.929 . S
H1018 C1006 0.960 . S
H1019 C1006 0.962 . S
H1020 C1006 0.960 . S
H1021 C1007 0.961 . S
H1022 C1007 0.961 . S
H1023 C1007 0.961 . S
H1024 C1008 0.931 . S
H1025 C1013 0.930 . S
H1026 C1014 0.956 . S
H1027 C1014 0.961 . S
H1028 C1014 0.961 . S
H1029 C1015 0.958 . S
H1030 C1015 0.961 . S
H1031 C1015 0.960 . S
C265 C82 1.706 . S
C273 C114 1.953 1_545 S
C305 C154 1.953 . S
C297 C95 1.720 . S
C337 C194 1.953 . S
C329 C56 1.721 . S
C369 C234 1.953 1_455 S
C361 C69 1.724 . S
C401 C123 1.959 1_565 S
C393 C30 1.689 1_565 S
C425 C43 1.630 . S
C433 C163 1.954 . S
C457 C4 1.681 . S
C465 C203 1.951 . S
C489 C17 1.711 1_655 S
C497 C243 1.954 1_655 S
C529 C120 0.516 . S
C521 C74 0.490 . S
C561 C160 0.541 . S
C553 C87 0.606 . S
C593 C200 0.526 . S
C585 C100 0.472 . S
C617 C61 0.606 . S
C625 C240 0.507 . S
C649 C22 0.504 . S
C657 C111 0.533 . S
C689 C151 0.527 . S
C681 C35 0.494 . S
C721 C191 0.538 . S
C713 C48 0.597 . S
C745 C9 0.580 . S
C753 C231 0.545 . S
C777 C73 1.974 . S
C785 C115 2.241 . S
C809 C86 2.036 . S
C817 C155 2.247 . S
C849 C195 2.252 . S
C841 C99 2.042 . S
C881 C235 2.248 . S
C873 C60 2.040 . S
C905 C21 1.970 . S
C913 C106 2.258 . S
C945 C146 2.246 . S
C937 C34 2.032 . S
C977 C186 2.253 . S
C969 C47 1.969 . S
C1001 C8 1.984 . S
C1009 C226 2.255 . S
