# Generated by pormake.
# Topology dag, (6,3)-cn, num edge types: 1
# Building blocks:
#     Node 0, Type 0, BuildingBlock: OJICUG_clean_sbu_0, # of connection points: 6
#     Node 1, Type 0, BuildingBlock: OJICUG_clean_sbu_0, # of connection points: 6
#     Node 2, Type 0, BuildingBlock: OJICUG_clean_sbu_0, # of connection points: 6
#     Node 3, Type 0, BuildingBlock: OJICUG_clean_sbu_0, # of connection points: 6
#     Node 4, Type 1, BuildingBlock: MIDCAF_clean_linker_0, # of connection points: 3
#     Node 5, Type 1, BuildingBlock: MIDCAF_clean_linker_0, # of connection points: 3
#     Node 6, Type 1, BuildingBlock: MIDCAF_clean_linker_0, # of connection points: 3
#     Node 7, Type 1, BuildingBlock: MIDCAF_clean_linker_0, # of connection points: 3
#     Node 8, Type 1, BuildingBlock: MIDCAF_clean_linker_0, # of connection points: 3
#     Node 9, Type 1, BuildingBlock: MIDCAF_clean_linker_0, # of connection points: 3
#     Node 10, Type 1, BuildingBlock: MIDCAF_clean_linker_0, # of connection points: 3
#     Node 11, Type 1, BuildingBlock: MIDCAF_clean_linker_0, # of connection points: 3
#     Edge 12, Type (0, 1), BuildingBlock: XIVTED_clean_linker_0, # of connection points: 2
#     Edge 13, Type (0, 1), BuildingBlock: XIVTED_clean_linker_0, # of connection points: 2
#     Edge 14, Type (0, 1), BuildingBlock: XIVTED_clean_linker_0, # of connection points: 2
#     Edge 15, Type (0, 1), BuildingBlock: XIVTED_clean_linker_0, # of connection points: 2
#     Edge 16, Type (0, 1), BuildingBlock: XIVTED_clean_linker_0, # of connection points: 2
#     Edge 17, Type (0, 1), BuildingBlock: XIVTED_clean_linker_0, # of connection points: 2
#     Edge 18, Type (0, 1), BuildingBlock: XIVTED_clean_linker_0, # of connection points: 2
#     Edge 19, Type (0, 1), BuildingBlock: XIVTED_clean_linker_0, # of connection points: 2
#     Edge 20, Type (0, 1), BuildingBlock: XIVTED_clean_linker_0, # of connection points: 2
#     Edge 21, Type (0, 1), BuildingBlock: XIVTED_clean_linker_0, # of connection points: 2
#     Edge 22, Type (0, 1), BuildingBlock: XIVTED_clean_linker_0, # of connection points: 2
#     Edge 23, Type (0, 1), BuildingBlock: XIVTED_clean_linker_0, # of connection points: 2
#     Edge 24, Type (0, 1), BuildingBlock: XIVTED_clean_linker_0, # of connection points: 2
#     Edge 25, Type (0, 1), BuildingBlock: XIVTED_clean_linker_0, # of connection points: 2
#     Edge 26, Type (0, 1), BuildingBlock: XIVTED_clean_linker_0, # of connection points: 2
#     Edge 27, Type (0, 1), BuildingBlock: XIVTED_clean_linker_0, # of connection points: 2
#     Edge 28, Type (0, 1), BuildingBlock: XIVTED_clean_linker_0, # of connection points: 2
#     Edge 29, Type (0, 1), BuildingBlock: XIVTED_clean_linker_0, # of connection points: 2
#     Edge 30, Type (0, 1), BuildingBlock: XIVTED_clean_linker_0, # of connection points: 2
#     Edge 31, Type (0, 1), BuildingBlock: XIVTED_clean_linker_0, # of connection points: 2
#     Edge 32, Type (0, 1), BuildingBlock: XIVTED_clean_linker_0, # of connection points: 2
#     Edge 33, Type (0, 1), BuildingBlock: XIVTED_clean_linker_0, # of connection points: 2
#     Edge 34, Type (0, 1), BuildingBlock: XIVTED_clean_linker_0, # of connection points: 2
#     Edge 35, Type (0, 1), BuildingBlock: XIVTED_clean_linker_0, # of connection points: 2
# Relax obj value: 0.257
# Max RMSD: 0.201
# Mean RMSD: 0.166
data_MOF--net-dag--node1-OJICUG_clean_sbu_0--node2-MIDCAF_clean_linker_0--edge1-XIVTED_clean_linker_0
_symmetry_space_group_name_H-M    P1
_symmetry_Int_Tables_number       1
_symmetry_cell_setting            triclinic
loop_
_symmetry_equiv_pos_as_xyz
'x, y, z'
_cell_length_a     45.758686
_cell_length_b     43.678685
_cell_length_c     44.82188
_cell_angle_alpha  89.796533
_cell_angle_beta   95.249461
_cell_angle_gamma 89.939912
loop_
_atom_site_label
_atom_site_type_symbol
_atom_site_fract_x
_atom_site_fract_y
_atom_site_fract_z
_atom_type_partial_charge
Sc0 Sc 0.15887 0.87803 0.02671 0.0
Sc1 Sc 0.17801 0.81368 0.98621 0.0
Sc2 Sc 0.23364 0.86198 0.02059 0.0
O3 O 0.19025 0.85121 0.01118 0.0
C4 C 0.20545 0.92822 0.00969 0.0
C5 C 0.13106 0.86359 0.96051 0.0
C6 C 0.23062 0.84135 0.95216 0.0
C7 C 0.13175 0.81134 0.03492 0.0
C8 C 0.20706 0.87436 0.0828 0.0
C9 C 0.2341 0.7889 0.02679 0.0
O10 O 0.17979 0.91972 0.0146 0.0
O11 O 0.14481 0.83847 0.95845 0.0
O12 O 0.24294 0.85597 0.9744 0.0
O13 O 0.13389 0.83972 0.04076 0.0
O14 O 0.22881 0.86924 0.06772 0.0
O15 O 0.20988 0.78474 0.01105 0.0
O16 O 0.18094 0.8779 0.07101 0.0
O17 O 0.14637 0.79836 0.01577 0.0
O18 O 0.24528 0.81527 0.03156 0.0
O19 O 0.13404 0.88039 0.98368 0.0
O20 O 0.22731 0.91016 0.01116 0.0
O21 O 0.20779 0.8251 0.9537 0.0
Sc22 Sc 0.72685 0.63895 0.52731 0.0
Sc23 Sc 0.67311 0.68684 0.48856 0.0
Sc24 Sc 0.65139 0.62502 0.53138 0.0
O25 O 0.68386 0.65028 0.51575 0.0
C26 C 0.6976 0.57322 0.51721 0.0
C27 C 0.72756 0.65782 0.45857 0.0
C28 C 0.6261 0.63716 0.46357 0.0
C29 C 0.7275 0.7122 0.53104 0.0
C30 C 0.69799 0.62865 0.58874 0.0
C31 C 0.62474 0.69225 0.5351 0.0
O32 O 0.71988 0.59071 0.51907 0.0
O33 O 0.70473 0.67437 0.45842 0.0
O34 O 0.62719 0.62233 0.4881 0.0
O35 O 0.73839 0.68584 0.53709 0.0
O36 O 0.67217 0.62545 0.57617 0.0
O37 O 0.63956 0.70357 0.51514 0.0
O38 O 0.72031 0.63301 0.5743 0.0
O39 O 0.70389 0.71625 0.51414 0.0
O40 O 0.62706 0.66449 0.54349 0.0
O41 O 0.73855 0.64347 0.4817 0.0
O42 O 0.67187 0.58251 0.52096 0.0
O43 O 0.64142 0.66099 0.46013 0.0
Sc44 Sc 0.82558 0.19451 0.08992 0.0
Sc45 Sc 0.7711 0.14338 0.05848 0.0
Sc46 Sc 0.8457 0.13109 0.04882 0.0
O47 O 0.81405 0.15635 0.06576 0.0
C48 C 0.87266 0.1979 0.04214 0.0
C49 C 0.76878 0.21634 0.04903 0.0
C50 C 0.79605 0.13222 0.99473 0.0
C51 C 0.77326 0.1682 0.12532 0.0
C52 C 0.87265 0.14472 0.11562 0.0
C53 C 0.80166 0.07854 0.06739 0.0
O54 O 0.85764 0.21021 0.06124 0.0
O55 O 0.758 0.18951 0.04601 0.0
O56 O 0.8229 0.1322 0.00493 0.0
O57 O 0.79544 0.18489 0.12227 0.0
O58 O 0.87034 0.12842 0.09201 0.0
O59 O 0.77976 0.09592 0.07 0.0
O60 O 0.85855 0.16965 0.11807 0.0
O61 O 0.76203 0.15084 0.10463 0.0
O62 O 0.82572 0.08836 0.05906 0.0
O63 O 0.79333 0.22185 0.06379 0.0
O64 O 0.87058 0.16975 0.03554 0.0
O65 O 0.77493 0.1342 0.01131 0.0
Sc66 Sc 0.34063 0.37129 0.54574 0.0
Sc67 Sc 0.26561 0.35621 0.55156 0.0
Sc68 Sc 0.32051 0.30704 0.58599 0.0
O69 O 0.30884 0.34487 0.56109 0.0
C70 C 0.36869 0.30542 0.53881 0.0
C71 C 0.29242 0.36991 0.48959 0.0
C72 C 0.26609 0.28311 0.54345 0.0
C73 C 0.29469 0.4217 0.56377 0.0
C74 C 0.36672 0.35633 0.61292 0.0
C75 C 0.26554 0.33172 0.61832 0.0
O76 O 0.36498 0.33309 0.5306 0.0
O77 O 0.27068 0.36415 0.5045 0.0
O78 O 0.29081 0.27863 0.55827 0.0
O79 O 0.32034 0.41285 0.55915 0.0
O80 O 0.35102 0.33266 0.61605 0.0
O81 O 0.2554 0.34974 0.59753 0.0
O82 O 0.36587 0.37151 0.58858 0.0
O83 O 0.27247 0.40414 0.56141 0.0
O84 O 0.28783 0.31487 0.61617 0.0
O85 O 0.31848 0.37318 0.50154 0.0
O86 O 0.35492 0.29339 0.55918 0.0
O87 O 0.25411 0.30942 0.54038 0.0
C88 C 0.02468 0.03295 0.27425 0.0
C89 C 0.00988 0.05958 0.28203 0.0
C90 C 0.01968 0.07475 0.30871 0.0
C91 C 0.04455 0.06438 0.32638 0.0
H92 H 0.10106 0.08326 0.40227 0.0
H93 H 0.12346 0.12064 0.43726 0.0
H94 H 0.20929 0.08463 0.42402 0.0
H95 H 0.18685 0.04662 0.38953 0.0
H96 H 0.19245 0.99705 0.33566 0.0
H97 H 0.21996 0.96378 0.30436 0.0
H98 H 0.13906 0.91956 0.27109 0.0
H99 H 0.11196 0.95214 0.30236 0.0
H100 H 0.06068 0.00253 0.28453 0.0
H101 H 0.01807 0.02084 0.2537 0.0
H102 H 0.00849 0.09501 0.31566 0.0
H103 H 0.05204 0.0772 0.34626 0.0
N104 N 0.10095 0.04727 0.35677 0.0
N105 N 0.14453 0.0186 0.35804 0.0
N106 N 0.10474 0.00689 0.32328 0.0
C107 C 0.12867 0.0416 0.3692 0.0
C108 C 0.13247 0.0009 0.33528 0.0
C109 C 0.08882 0.03003 0.33376 0.0
C110 C 0.14217 0.06213 0.39279 0.0
C111 C 0.1247 0.08308 0.40699 0.0
C112 C 0.13755 0.10464 0.42697 0.0
C113 C 0.16819 0.10592 0.43312 0.0
C114 C 0.1856 0.08413 0.41995 0.0
C115 C 0.17272 0.0624 0.40005 0.0
C116 C 0.14999 0.97748 0.32115 0.0
C117 C 0.18073 0.97964 0.32223 0.0
C118 C 0.19646 0.96073 0.30419 0.0
C119 C 0.18173 0.93912 0.28508 0.0
C120 C 0.15125 0.93563 0.28575 0.0
C121 C 0.1356 0.95459 0.3035 0.0
C122 C 0.06014 0.03859 0.31775 0.0
C123 C 0.04938 0.02253 0.29192 0.0
C124 C 0.30232 0.66219 0.5911 0.0
C125 C 0.2899 0.64404 0.61254 0.0
C126 C 0.28421 0.65714 0.63998 0.0
C127 C 0.29217 0.68742 0.64647 0.0
H128 H 0.27423 0.76735 0.69514 0.0
H129 H 0.25988 0.78948 0.74111 0.0
H130 H 0.3408 0.84079 0.75151 0.0
H131 H 0.35557 0.8182 0.70534 0.0
H132 H 0.40585 0.80007 0.66122 0.0
H133 H 0.45528 0.8035 0.64487 0.0
H134 H 0.42484 0.76029 0.56126 0.0
H135 H 0.37563 0.75679 0.57748 0.0
H136 H 0.32165 0.7053 0.58139 0.0
H137 H 0.30707 0.65252 0.56984 0.0
H138 H 0.27455 0.64357 0.65681 0.0
H139 H 0.28859 0.69643 0.66833 0.0
N140 N 0.311 0.75005 0.6588 0.0
N141 N 0.34983 0.78485 0.65686 0.0
N142 N 0.34384 0.74479 0.62209 0.0
C143 C 0.32557 0.77534 0.66967 0.0
C144 C 0.35889 0.76981 0.63283 0.0
C145 C 0.31994 0.7347 0.63499 0.0
C146 C 0.31614 0.79085 0.69654 0.0
C147 C 0.28898 0.78348 0.70701 0.0
C148 C 0.28061 0.7964 0.73331 0.0
C149 C 0.29917 0.81699 0.74991 0.0
C150 C 0.32613 0.82484 0.73927 0.0
C151 C 0.33448 0.81203 0.71274 0.0
C152 C 0.38695 0.77775 0.6208 0.0
C153 C 0.40954 0.79206 0.63903 0.0
C154 C 0.43786 0.7939 0.62976 0.0
C155 C 0.44393 0.78194 0.60191 0.0
C156 C 0.4208 0.7699 0.58275 0.0
C157 C 0.39264 0.76768 0.59215 0.0
C158 C 0.30653 0.70496 0.62588 0.0
C159 C 0.31079 0.69231 0.59779 0.0
C160 C 0.79109 0.70934 0.24571 0.0
C161 C 0.80892 0.68867 0.26323 0.0
C162 C 0.83654 0.68088 0.25411 0.0
C163 C 0.84603 0.69347 0.22789 0.0
H164 H 0.92142 0.70949 0.17906 0.0
H165 H 0.97101 0.70711 0.16276 0.0
H166 H 0.93691 0.73416 0.07352 0.0
H167 H 0.88766 0.73663 0.08971 0.0
H168 H 0.8318 0.78705 0.08743 0.0
H169 H 0.81717 0.83781 0.06914 0.0
H170 H 0.78642 0.85915 0.15501 0.0
H171 H 0.80008 0.80784 0.17294 0.0
H172 H 0.78623 0.73799 0.20696 0.0
H173 H 0.7699 0.71622 0.2524 0.0
H174 H 0.85069 0.66491 0.26711 0.0
H175 H 0.86745 0.68705 0.22148 0.0
N176 N 0.86322 0.71862 0.17179 0.0
N177 N 0.85643 0.75503 0.13321 0.0
N178 N 0.82293 0.75224 0.16953 0.0
C179 C 0.87225 0.7317 0.14665 0.0
C180 C 0.83186 0.76554 0.14452 0.0
C181 C 0.83823 0.72847 0.18307 0.0
C182 C 0.90075 0.72361 0.13572 0.0
C183 C 0.92444 0.71405 0.15577 0.0
C184 C 0.95282 0.71286 0.14651 0.0
C185 C 0.95784 0.72068 0.11694 0.0
C186 C 0.93375 0.72778 0.09638 0.0
C187 C 0.90554 0.72941 0.10571 0.0
C188 C 0.81756 0.79365 0.13178 0.0
C189 C 0.82133 0.80235 0.1022 0.0
C190 C 0.81309 0.83151 0.09178 0.0
C191 C 0.80132 0.85285 0.11085 0.0
C192 C 0.79538 0.84331 0.13969 0.0
C193 C 0.80329 0.81389 0.15001 0.0
C194 C 0.8282 0.71435 0.21048 0.0
C195 C 0.8006 0.72204 0.21972 0.0
C196 C 0.68018 0.4117 0.92258 0.0
C197 C 0.66393 0.38884 0.93578 0.0
C198 C 0.63325 0.38861 0.92976 0.0
C199 C 0.61925 0.40985 0.90999 0.0
H200 H 0.55399 0.40713 0.83782 0.0
H201 H 0.51246 0.38987 0.80422 0.0
H202 H 0.49937 0.48223 0.77069 0.0
H203 H 0.54146 0.49925 0.80349 0.0
H204 H 0.59934 0.54233 0.80604 0.0
H205 H 0.62505 0.57647 0.77483 0.0
H206 H 0.70793 0.53721 0.80999 0.0
H207 H 0.68189 0.50229 0.84113 0.0
H208 H 0.67939 0.44985 0.89243 0.0
H209 H 0.70387 0.41238 0.92656 0.0
H210 H 0.62001 0.37175 0.94007 0.0
H211 H 0.59563 0.40856 0.90547 0.0
N212 N 0.59318 0.44605 0.86083 0.0
N213 N 0.59441 0.48803 0.82845 0.0
N214 N 0.6354 0.47675 0.86197 0.0
C215 C 0.5798 0.46373 0.83868 0.0
C216 C 0.62214 0.49476 0.83991 0.0
C217 C 0.62083 0.45259 0.87286 0.0
C218 C 0.55136 0.45447 0.82293 0.0
C219 C 0.5419 0.42387 0.8237 0.0
C220 C 0.518 0.41397 0.80447 0.0
C221 C 0.50293 0.43454 0.7843 0.0
C222 C 0.51101 0.4656 0.78532 0.0
C223 C 0.53505 0.47541 0.80427 0.0
C224 C 0.6385 0.51924 0.82573 0.0
C225 C 0.62309 0.54127 0.80759 0.0
C226 C 0.63793 0.56113 0.78985 0.0
C227 C 0.66861 0.5595 0.78973 0.0
C228 C 0.68426 0.53881 0.80934 0.0
C229 C 0.66935 0.51895 0.82731 0.0
C230 C 0.63556 0.432 0.89589 0.0
C231 C 0.66613 0.43312 0.9029 0.0
C232 C 0.57292 0.22695 0.4922 0.0
C233 C 0.55032 0.21816 0.47062 0.0
C234 C 0.55757 0.20818 0.44244 0.0
C235 C 0.58673 0.20869 0.43542 0.0
H236 H 0.64229 0.18919 0.3685 0.0
H237 H 0.65804 0.17442 0.31986 0.0
H238 H 0.74567 0.20609 0.34771 0.0
H239 H 0.72991 0.22146 0.39575 0.0
H240 H 0.71464 0.29761 0.42039 0.0
H241 H 0.72811 0.3502 0.43365 0.0
H242 H 0.68843 0.34044 0.51682 0.0
H243 H 0.67434 0.2879 0.50347 0.0
H244 H 0.61867 0.23632 0.50166 0.0
H245 H 0.56798 0.23499 0.51402 0.0
H246 H 0.54056 0.20111 0.42548 0.0
H247 H 0.59149 0.20229 0.41304 0.0
N248 N 0.64862 0.21222 0.42315 0.0
N249 N 0.6895 0.24486 0.42618 0.0
N250 N 0.654 0.2502 0.46016 0.0
C251 C 0.67446 0.22092 0.41298 0.0
C252 C 0.67945 0.2596 0.44979 0.0
C253 C 0.63851 0.22653 0.44708 0.0
C254 C 0.68473 0.20707 0.38574 0.0
C255 C 0.66504 0.19248 0.3644 0.0
C256 C 0.67406 0.18393 0.33657 0.0
C257 C 0.70292 0.18969 0.32975 0.0
C258 C 0.72306 0.2021 0.35201 0.0
C259 C 0.71405 0.21084 0.37959 0.0
C260 C 0.69309 0.28867 0.46074 0.0
C261 C 0.70942 0.30631 0.44187 0.0
C262 C 0.71706 0.33646 0.44935 0.0
C263 C 0.70911 0.3493 0.47611 0.0
C264 C 0.69491 0.33095 0.49611 0.0
C265 C 0.68674 0.30096 0.48839 0.0
C266 C 0.60901 0.21973 0.45629 0.0
C267 C 0.60194 0.2279 0.48505 0.0
C268 C 0.22011 0.30122 0.84498 0.0
C269 C 0.19918 0.31486 0.82416 0.0
C270 C 0.17124 0.32169 0.83301 0.0
C271 C 0.16372 0.31286 0.8614 0.0
H272 H 0.0929 0.30257 0.91305 0.0
H273 H 0.0426 0.30385 0.92733 0.0
H274 H 0.07222 0.2652 0.01363 0.0
H275 H 0.12232 0.26375 0.99945 0.0
H276 H 0.17727 0.21202 0.99761 0.0
H277 H 0.19209 0.15914 0.009 0.0
H278 H 0.23015 0.15333 0.92463 0.0
H279 H 0.21593 0.20624 0.91331 0.0
H280 H 0.22897 0.28067 0.88812 0.0
H281 H 0.24206 0.29633 0.83902 0.0
H282 H 0.15468 0.33218 0.8174 0.0
H283 H 0.14153 0.31691 0.86704 0.0
N284 N 0.14972 0.29108 0.92041 0.0
N285 N 0.15631 0.2519 0.9564 0.0
N286 N 0.19033 0.25816 0.92097 0.0
C287 C 0.14051 0.27607 0.94448 0.0
C288 C 0.18119 0.24272 0.94472 0.0
C289 C 0.17497 0.28256 0.90891 0.0
C290 C 0.1115 0.28272 0.95502 0.0
C291 C 0.08879 0.2951 0.93536 0.0
C292 C 0.05998 0.29569 0.94343 0.0
C293 C 0.05351 0.28442 0.97148 0.0
C294 C 0.07657 0.27423 0.99194 0.0
C295 C 0.10525 0.27321 0.98373 0.0
C296 C 0.19513 0.21326 0.95442 0.0
C297 C 0.18945 0.19974 0.98182 0.0
C298 C 0.19804 0.16954 0.98843 0.0
C299 C 0.21201 0.15222 0.96755 0.0
C300 C 0.21926 0.16625 0.941 0.0
C301 C 0.21118 0.19658 0.93463 0.0
C302 C 0.18404 0.29698 0.88128 0.0
C303 C 0.21261 0.2923 0.87314 0.0
C304 C 0.36042 0.60983 0.14636 0.0
C305 C 0.32976 0.61152 0.14045 0.0
C306 C 0.31227 0.59017 0.15421 0.0
C307 C 0.32513 0.56842 0.17434 0.0
H308 H 0.30634 0.50161 0.23903 0.0
H309 H 0.27953 0.46777 0.2706 0.0
H310 H 0.36087 0.42262 0.30145 0.0
H311 H 0.38727 0.45574 0.26989 0.0
H312 H 0.44666 0.49726 0.27444 0.0
H313 H 0.48951 0.51258 0.30707 0.0
H314 H 0.48035 0.6051 0.27295 0.0
H315 H 0.4381 0.5895 0.23952 0.0
H316 H 0.3969 0.58812 0.17097 0.0
H317 H 0.37458 0.62546 0.13563 0.0
H318 H 0.28857 0.59097 0.15034 0.0
H319 H 0.31098 0.55291 0.18524 0.0
N320 N 0.35373 0.5236 0.21577 0.0
N321 N 0.39422 0.51078 0.24941 0.0
N322 N 0.39729 0.55219 0.21667 0.0
C323 C 0.36623 0.50526 0.23799 0.0
C324 C 0.40987 0.5342 0.23901 0.0
C325 C 0.36939 0.54685 0.20466 0.0
C326 C 0.34898 0.48159 0.25227 0.0
C327 C 0.3183 0.48389 0.25198 0.0
C328 C 0.30297 0.46466 0.2702 0.0
C329 C 0.31803 0.4426 0.28872 0.0
C330 C 0.34842 0.43905 0.28729 0.0
C331 C 0.36367 0.4583 0.26935 0.0
C332 C 0.43869 0.54225 0.25471 0.0
C333 C 0.4541 0.52075 0.27351 0.0
C334 C 0.47857 0.5296 0.29236 0.0
C335 C 0.48801 0.56024 0.29316 0.0
C336 C 0.4738 0.58129 0.27288 0.0
C337 C 0.44946 0.57235 0.25374 0.0
C338 C 0.35572 0.5677 0.18124 0.0
C339 C 0.37323 0.58829 0.16657 0.0
C340 C 0.8424 0.05964 0.79175 0.0
C341 C 0.81221 0.05588 0.79428 0.0
C342 C 0.79696 0.03308 0.77709 0.0
C343 C 0.81197 0.01337 0.75912 0.0
H344 H 0.80504 0.94443 0.69155 0.0
H345 H 0.78316 0.90659 0.6564 0.0
H346 H 0.86964 0.87343 0.64159 0.0
H347 H 0.89144 0.91054 0.67717 0.0
H348 H 0.94074 0.9163 0.73356 0.0
H349 H 0.98552 0.9002 0.7632 0.0
H350 H 0.97585 0.97522 0.82417 0.0
H351 H 0.93203 0.99184 0.79427 0.0
H352 H 0.88085 0.04265 0.77384 0.0
H353 H 0.855 0.07664 0.80491 0.0
H354 H 0.77366 0.02976 0.77839 0.0
H355 H 0.79997 0.9951 0.74723 0.0
N356 N 0.84745 0.97391 0.72222 0.0
N357 N 0.89122 0.9455 0.72335 0.0
N358 N 0.88757 0.98632 0.75635 0.0
C359 C 0.86334 0.95086 0.71117 0.0
C360 C 0.90348 0.96311 0.74602 0.0
C361 C 0.8597 0.99199 0.74461 0.0
C362 C 0.84998 0.93026 0.68752 0.0
C363 C 0.8194 0.92927 0.68056 0.0
C364 C 0.80685 0.90766 0.66029 0.0
C365 C 0.82463 0.88671 0.64645 0.0
C366 C 0.85526 0.88873 0.65239 0.0
C367 C 0.86777 0.91013 0.67274 0.0
C368 C 0.93254 0.95523 0.76161 0.0
C369 C 0.94844 0.92964 0.75302 0.0
C370 C 0.97403 0.92026 0.77015 0.0
C371 C 0.98424 0.93624 0.79625 0.0
C372 C 0.96897 0.96254 0.80404 0.0
C373 C 0.94357 0.97198 0.78691 0.0
C374 C 0.84253 0.01594 0.75842 0.0
C375 C 0.85734 0.0399 0.77412 0.0
H376 H 0.17392 0.84822 0.12276 0.0
H377 H 0.22275 0.96212 0.25004 0.0
H378 H 0.25014 0.90512 0.11715 0.0
H379 H 0.17454 0.87969 0.26605 0.0
H380 H 0.23727 0.93983 0.20371 0.0
H381 H 0.17662 0.85729 0.1766 0.0
C382 C 0.1915 0.86231 0.13308 0.0
C383 C 0.21169 0.87619 0.11565 0.0
C384 C 0.22412 0.92633 0.21775 0.0
C385 C 0.21461 0.88725 0.17711 0.0
C386 C 0.21593 0.93898 0.24434 0.0
C387 C 0.19681 0.92302 0.26166 0.0
C388 C 0.21276 0.89778 0.20827 0.0
C389 C 0.18858 0.89318 0.25295 0.0
C390 C 0.19315 0.86738 0.16381 0.0
C391 C 0.23418 0.89407 0.12997 0.0
N392 N 0.19605 0.8818 0.22654 0.0
N393 N 0.23467 0.8997 0.15989 0.0
H394 H 0.6024 0.6851 0.58911 0.0
H395 H 0.46684 0.79363 0.54848 0.0
H396 H 0.59666 0.74319 0.51068 0.0
H397 H 0.4904 0.75998 0.63808 0.0
H398 H 0.51498 0.77742 0.53438 0.0
H399 H 0.56212 0.71369 0.60793 0.0
C400 C 0.5928 0.70406 0.57597 0.0
C401 C 0.60268 0.71159 0.54815 0.0
C402 C 0.50982 0.77415 0.55728 0.0
C403 C 0.55635 0.74424 0.56942 0.0
C404 C 0.48236 0.78333 0.5653 0.0
C405 C 0.47459 0.77797 0.59443 0.0
C406 C 0.52934 0.75898 0.57841 0.0
C407 C 0.49554 0.76471 0.61542 0.0
C408 C 0.5699 0.72048 0.58679 0.0
C409 C 0.58966 0.73658 0.53221 0.0
N410 N 0.52176 0.7552 0.60686 0.0
N411 N 0.56681 0.75172 0.54285 0.0
H412 H 0.75612 0.04659 0.08966 0.0
H413 H 0.83936 0.88609 0.08041 0.0
H414 H 0.84217 0.03434 0.059 0.0
H415 H 0.75819 0.89481 0.12182 0.0
H416 H 0.83756 0.94025 0.06868 0.0
H417 H 0.75389 0.99117 0.09889 0.0
C418 C 0.7745 0.03236 0.08487 0.0
C419 C 0.7994 0.04528 0.07358 0.0
C420 C 0.81999 0.93043 0.08021 0.0
C421 C 0.79686 0.98204 0.08389 0.0
C422 C 0.82082 0.89928 0.08664 0.0
C423 C 0.79876 0.88566 0.10195 0.0
C424 C 0.79701 0.94849 0.08923 0.0
C425 C 0.77577 0.90436 0.11015 0.0
C426 C 0.77319 0.00076 0.09014 0.0
C427 C 0.82253 0.02565 0.06779 0.0
N428 N 0.7755 0.93489 0.10373 0.0
N429 N 0.82064 0.99518 0.07297 0.0
H430 H 0.40526 0.40406 0.61363 0.0
H431 H 0.46065 0.38982 0.78775 0.0
H432 H 0.37333 0.3343 0.67099 0.0
H433 H 0.49564 0.45302 0.72585 0.0
H434 H 0.42699 0.37009 0.74653 0.0
H435 H 0.43693 0.42319 0.65574 0.0
C436 C 0.4049 0.39265 0.63508 0.0
C437 C 0.38654 0.36741 0.63864 0.0
C438 C 0.44197 0.38838 0.74211 0.0
C439 C 0.42304 0.38949 0.68737 0.0
C440 C 0.46122 0.39961 0.76559 0.0
C441 C 0.48092 0.42329 0.76037 0.0
C442 C 0.44249 0.4009 0.71325 0.0
C443 C 0.48049 0.43524 0.73121 0.0
C444 C 0.42307 0.40366 0.65922 0.0
C445 C 0.38717 0.35374 0.66714 0.0
N446 N 0.46168 0.4239 0.70886 0.0
N447 N 0.40512 0.36498 0.69046 0.0
H448 H 0.65945 0.53688 0.48358 0.0
H449 H 0.73493 0.37909 0.52558 0.0
H450 H 0.74423 0.53562 0.53437 0.0
H451 H 0.68879 0.39492 0.43864 0.0
H452 H 0.73478 0.43472 0.53473 0.0
H453 H 0.66522 0.48253 0.47234 0.0
C454 C 0.67927 0.5251 0.49239 0.0
C455 C 0.70142 0.54065 0.5099 0.0
C456 C 0.72506 0.4259 0.51355 0.0
C457 C 0.7079 0.47857 0.49753 0.0
C458 C 0.72508 0.39434 0.50838 0.0
C459 C 0.71201 0.38261 0.48127 0.0
C460 C 0.71109 0.44552 0.49181 0.0
C461 C 0.69936 0.40315 0.45969 0.0
C462 C 0.6826 0.49422 0.48583 0.0
C463 C 0.72674 0.5244 0.52064 0.0
N464 N 0.69884 0.43359 0.46558 0.0
N465 N 0.72917 0.49402 0.5146 0.0
H466 H 0.89802 0.25149 0.06281 0.0
H467 H 0.00912 0.25868 0.93535 0.0
H468 H 0.89806 0.18665 0.99032 0.0
H469 H 0.02828 0.29809 0.02308 0.0
H470 H 0.96106 0.24273 0.94951 0.0
H471 H 0.93874 0.27866 0.04266 0.0
C472 C 0.90628 0.24323 0.04242 0.0
C473 C 0.89485 0.21655 0.02839 0.0
C474 C 0.97562 0.25527 0.96549 0.0
C475 C 0.9412 0.24762 0.00525 0.0
C476 C 0.00292 0.26462 0.95735 0.0
C477 C 0.02273 0.27958 0.97816 0.0
C478 C 0.968 0.26111 0.99455 0.0
C479 C 0.01372 0.28632 0.00651 0.0
C480 C 0.92957 0.25868 0.03104 0.0
C481 C 0.90645 0.20689 0.00206 0.0
N482 N 0.98704 0.27686 0.01397 0.0
N483 N 0.92906 0.22235 0.9914 0.0
H484 H 0.32547 0.34509 0.44892 0.0
H485 H 0.27747 0.4645 0.32486 0.0
H486 H 0.24975 0.40246 0.4561 0.0
H487 H 0.32573 0.38272 0.30669 0.0
H488 H 0.26313 0.44064 0.3707 0.0
H489 H 0.32324 0.35662 0.39547 0.0
C490 C 0.30807 0.35979 0.43901 0.0
C491 C 0.28788 0.37305 0.45679 0.0
C492 C 0.27629 0.42766 0.35631 0.0
C493 C 0.28555 0.38697 0.3958 0.0
C494 C 0.28438 0.4412 0.33 0.0
C495 C 0.30339 0.42585 0.31217 0.0
C496 C 0.28764 0.39878 0.36502 0.0
C497 C 0.31176 0.39577 0.32019 0.0
C498 C 0.30672 0.36629 0.4085 0.0
C499 C 0.26568 0.39182 0.44299 0.0
N500 N 0.30435 0.38348 0.34631 0.0
N501 N 0.26547 0.39881 0.41332 0.0
H502 H 0.11091 0.92168 0.9488 0.0
H503 H 0.99856 0.8765 0.81073 0.0
H504 H 0.10625 0.82996 0.91306 0.0
H505 H 0.02725 0.96938 0.8285 0.0
H506 H 0.03656 0.8584 0.84855 0.0
H507 H 0.07805 0.9391 0.90622 0.0
C508 C 0.10292 0.90515 0.93204 0.0
C509 C 0.11122 0.87424 0.93462 0.0
C510 C 0.03468 0.88271 0.84392 0.0
C511 C 0.07353 0.89413 0.88572 0.0
C512 C 0.01311 0.89309 0.82216 0.0
C513 C 0.00942 0.92461 0.81653 0.0
C514 C 0.05247 0.90397 0.86043 0.0
C515 C 0.02874 0.94496 0.83251 0.0
C516 C 0.08432 0.91519 0.9076 0.0
C517 C 0.1004 0.85398 0.91198 0.0
N518 N 0.04918 0.93432 0.85393 0.0
N519 N 0.08189 0.86423 0.88858 0.0
H520 H 0.82552 0.1576 0.95109 0.0
H521 H 0.77364 0.03456 0.83292 0.0
H522 H 0.75267 0.09816 0.96446 0.0
H523 H 0.81941 0.11638 0.80972 0.0
H524 H 0.76117 0.05937 0.87884 0.0
H525 H 0.82038 0.14519 0.89786 0.0
C526 C 0.80813 0.14226 0.94263 0.0
C527 C 0.78966 0.12863 0.96211 0.0
C528 C 0.77334 0.07215 0.86336 0.0
C529 C 0.78398 0.11376 0.90133 0.0
C530 C 0.78034 0.05806 0.83698 0.0
C531 C 0.79819 0.07316 0.81771 0.0
C532 C 0.78462 0.10134 0.87065 0.0
C533 C 0.80635 0.10354 0.82435 0.0
C534 C 0.8051 0.13525 0.91223 0.0
C535 C 0.76734 0.10908 0.95007 0.0
N536 N 0.80005 0.11638 0.85055 0.0
N537 N 0.76551 0.10165 0.92048 0.0
H538 H 0.3941 0.25172 0.55969 0.0
H539 H 0.5073 0.24619 0.43418 0.0
H540 H 0.39466 0.31707 0.48721 0.0
H541 H 0.52328 0.20265 0.52069 0.0
H542 H 0.45906 0.26254 0.44752 0.0
H543 H 0.43477 0.22449 0.5398 0.0
C544 C 0.4025 0.26015 0.53939 0.0
C545 C 0.39118 0.28697 0.5253 0.0
C546 C 0.47296 0.24903 0.4634 0.0
C547 C 0.43759 0.25579 0.50243 0.0
C548 C 0.50035 0.23943 0.45571 0.0
C549 C 0.51935 0.2232 0.47646 0.0
C550 C 0.46444 0.24218 0.49196 0.0
C551 C 0.50939 0.21543 0.5042 0.0
C552 C 0.42576 0.24462 0.52813 0.0
C553 C 0.40295 0.29674 0.49903 0.0
N554 N 0.48267 0.22518 0.51124 0.0
N555 N 0.4256 0.28123 0.48853 0.0
H556 H 0.25271 0.96494 0.02602 0.0
H557 H 0.19215 0.10769 0.92889 0.0
H558 H 0.16772 0.96501 0.97567 0.0
H559 H 0.23898 0.12095 0.01581 0.0
H560 H 0.19319 0.05228 0.93764 0.0
H561 H 0.25754 0.01985 0.01462 0.0
C562 C 0.23527 0.97645 0.01234 0.0
C563 C 0.20972 0.96061 0.00185 0.0
C564 C 0.20351 0.06734 0.95462 0.0
C565 C 0.21537 0.02265 0.9884 0.0
C566 C 0.20312 0.09883 0.94959 0.0
C567 C 0.21553 0.11877 0.97168 0.0
C568 C 0.21686 0.05568 0.98169 0.0
C569 C 0.22912 0.10622 0.99831 0.0
C570 C 0.23798 0.00765 0.00602 0.0
C571 C 0.18765 0.97651 0.98436 0.0
N572 N 0.22953 0.07534 0.00259 0.0
N573 N 0.19106 0.00663 0.978 0.0
H574 H 0.58795 0.58901 0.46322 0.0
H575 H 0.53191 0.60308 0.28921 0.0
H576 H 0.61938 0.65864 0.4054 0.0
H577 H 0.49514 0.54182 0.3517 0.0
H578 H 0.56633 0.62197 0.33015 0.0
H579 H 0.55609 0.56964 0.42123 0.0
C580 C 0.58817 0.60032 0.44169 0.0
C581 C 0.60638 0.62564 0.43797 0.0
C582 C 0.55079 0.60428 0.33477 0.0
C583 C 0.56974 0.60332 0.38946 0.0
C584 C 0.5311 0.59352 0.31145 0.0
C585 C 0.51061 0.57069 0.31691 0.0
C586 C 0.54998 0.59211 0.36373 0.0
C587 C 0.51083 0.55897 0.34615 0.0
C588 C 0.56991 0.58918 0.41765 0.0
C589 C 0.60564 0.63917 0.4094 0.0
N590 N 0.53011 0.56984 0.36837 0.0
N591 N 0.5876 0.62783 0.38621 0.0
H592 H 0.2475 0.45935 0.5493 0.0
H593 H 0.31144 0.59814 0.64916 0.0
H594 H 0.33326 0.45705 0.59807 0.0
H595 H 0.26084 0.61451 0.56464 0.0
H596 H 0.31007 0.54311 0.63884 0.0
H597 H 0.24315 0.51374 0.56256 0.0
C598 C 0.26524 0.47023 0.563 0.0
C599 C 0.29084 0.45387 0.5725 0.0
C600 C 0.29901 0.55876 0.62273 0.0
C601 C 0.28575 0.51534 0.58807 0.0
C602 C 0.29959 0.59004 0.62868 0.0
C603 C 0.28621 0.61075 0.60768 0.0
C604 C 0.28453 0.54809 0.59586 0.0
C605 C 0.27148 0.59917 0.58128 0.0
C606 C 0.26279 0.50115 0.57039 0.0
C607 C 0.31327 0.46897 0.59009 0.0
N608 N 0.27095 0.56848 0.5761 0.0
N609 N 0.31013 0.49882 0.59748 0.0
H610 H 0.10947 0.82412 0.08798 0.0
H611 H 0.98142 0.70274 0.06556 0.0
H612 H 0.10559 0.75701 0.01726 0.0
H613 H 0.00247 0.75124 0.1484 0.0
H614 H 0.02782 0.72019 0.04812 0.0
H615 H 0.07121 0.79629 0.11115 0.0
C616 C 0.10068 0.80341 0.07741 0.0
C617 C 0.11052 0.79305 0.05046 0.0
C618 C 0.02253 0.72652 0.07034 0.0
C619 C 0.06651 0.76114 0.07682 0.0
C620 C 0.99606 0.7166 0.08026 0.0
C621 C 0.98802 0.7257 0.10839 0.0
C622 C 0.04081 0.74611 0.08847 0.0
C623 C 0.00786 0.74352 0.12664 0.0
C624 C 0.07893 0.78742 0.09075 0.0
C625 C 0.09858 0.76585 0.03799 0.0
N626 N 0.0331 0.75355 0.11617 0.0
N627 N 0.07688 0.75106 0.05104 0.0
H628 H 0.66268 0.65349 0.62744 0.0
H629 H 0.71208 0.53944 0.75619 0.0
H630 H 0.74087 0.59883 0.62459 0.0
H631 H 0.65802 0.61835 0.76969 0.0
H632 H 0.72701 0.5631 0.71054 0.0
H633 H 0.66356 0.64353 0.68108 0.0
C634 C 0.68032 0.63973 0.63832 0.0
C635 C 0.70158 0.62671 0.62168 0.0
C636 C 0.71241 0.57554 0.72386 0.0
C637 C 0.70243 0.61462 0.68294 0.0
C638 C 0.70398 0.56212 0.75008 0.0
C639 C 0.68323 0.57663 0.76652 0.0
C640 C 0.69969 0.60343 0.71383 0.0
C641 C 0.67338 0.60591 0.75727 0.0
C642 C 0.6809 0.63414 0.66896 0.0
C643 C 0.72408 0.60924 0.63676 0.0
N644 N 0.68121 0.61805 0.73124 0.0
N645 N 0.72357 0.6031 0.66652 0.0
H646 H 0.89605 0.17687 0.16478 0.0
H647 H 0.96681 0.02856 0.24768 0.0
H648 H 0.892 0.08625 0.12641 0.0
H649 H 0.9981 0.12002 0.26832 0.0
H650 H 0.93186 0.04974 0.2086 0.0
H651 H 0.92685 0.15656 0.20807 0.0
C652 C 0.9016 0.15275 0.16545 0.0
C653 C 0.89164 0.13328 0.14181 0.0
C654 C 0.94628 0.06516 0.22184 0.0
C655 C 0.92632 0.10994 0.19135 0.0
C656 C 0.9663 0.0531 0.24412 0.0
C657 C 0.9858 0.07245 0.26112 0.0
C658 C 0.94548 0.09685 0.21661 0.0
C659 C 0.98345 0.10418 0.25597 0.0
C660 C 0.91916 0.14122 0.19012 0.0
C661 C 0.89945 0.1022 0.14391 0.0
N662 N 0.96378 0.11538 0.23405 0.0
N663 N 0.91622 0.0915 0.16827 0.0
H664 H 0.28661 0.78809 0.0614 0.0
H665 H 0.28163 0.60889 0.09882 0.0
H666 H 0.21695 0.72849 0.02521 0.0
H667 H 0.34672 0.67146 0.13892 0.0
H668 H 0.25895 0.65138 0.06928 0.0
H669 H 0.31056 0.74444 0.08711 0.0
C670 C 0.27635 0.76581 0.05871 0.0
C671 C 0.24958 0.76209 0.04116 0.0
C672 C 0.27828 0.65572 0.08445 0.0
C673 C 0.27702 0.71179 0.0708 0.0
C674 C 0.29116 0.63152 0.10142 0.0
C675 C 0.31618 0.63655 0.12137 0.0
C676 C 0.29049 0.68517 0.08749 0.0
C677 C 0.32777 0.66631 0.12352 0.0
C678 C 0.29008 0.74084 0.07348 0.0
C679 C 0.23751 0.73252 0.03854 0.0
N680 N 0.31481 0.68942 0.10687 0.0
N681 N 0.25127 0.70853 0.0533 0.0
H682 H 0.71032 0.7727 0.52791 0.0
H683 H 0.84249 0.82706 0.64483 0.0
H684 H 0.77915 0.71327 0.567 0.0
H685 H 0.77634 0.889 0.60489 0.0
H686 H 0.82016 0.7857 0.61466 0.0
H687 H 0.73465 0.81607 0.55416 0.0
C688 C 0.7306 0.76874 0.54183 0.0
C689 C 0.74259 0.73917 0.54531 0.0
C690 C 0.81054 0.80834 0.61232 0.0
C691 C 0.77045 0.78871 0.57546 0.0
C692 C 0.82344 0.83209 0.62944 0.0
C693 C 0.8114 0.86168 0.62733 0.0
C694 C 0.78522 0.81399 0.59296 0.0
C695 C 0.78622 0.86651 0.60747 0.0
C696 C 0.74445 0.79353 0.55684 0.0
C697 C 0.76894 0.73553 0.56367 0.0
N698 N 0.77392 0.84289 0.59107 0.0
N699 N 0.78186 0.75994 0.57808 0.0
H700 H 0.73274 0.12977 0.14877 0.0
H701 H 0.7345 0.2292 0.29872 0.0
H702 H 0.7842 0.21135 0.16825 0.0
H703 H 0.6902 0.14207 0.29006 0.0
H704 H 0.74955 0.2235 0.24867 0.0
H705 H 0.71357 0.13424 0.19823 0.0
C706 C 0.73991 0.14859 0.16329 0.0
C707 C 0.76027 0.17009 0.15435 0.0
C708 C 0.73664 0.20544 0.25758 0.0
C709 C 0.73848 0.17534 0.21052 0.0
C710 C 0.72819 0.20862 0.28636 0.0
C711 C 0.71155 0.1858 0.29887 0.0
C712 C 0.72842 0.17924 0.24082 0.0
C713 C 0.70315 0.16014 0.28126 0.0
C714 C 0.72905 0.15107 0.19148 0.0
C715 C 0.76881 0.19401 0.17408 0.0
N716 N 0.71182 0.15743 0.25308 0.0
N717 N 0.75791 0.19591 0.20105 0.0
H718 H 0.26597 0.28255 0.65505 0.0
H719 H 0.18744 0.36416 0.78594 0.0
H720 H 0.23246 0.37482 0.64563 0.0
H721 H 0.22521 0.27352 0.79026 0.0
H722 H 0.19989 0.36862 0.73372 0.0
H723 H 0.24688 0.27868 0.70344 0.0
C724 C 0.25449 0.30209 0.6632 0.0
C725 C 0.25115 0.32921 0.64642 0.0
C726 C 0.20537 0.34781 0.7462 0.0
C727 C 0.22918 0.32501 0.70246 0.0
C728 C 0.19827 0.34524 0.7759 0.0
C729 C 0.20579 0.31863 0.79259 0.0
C730 C 0.21977 0.32345 0.73325 0.0
C731 C 0.21966 0.29475 0.77854 0.0
C732 C 0.24351 0.29985 0.69095 0.0
C733 C 0.23556 0.35353 0.65795 0.0
N734 N 0.22621 0.29778 0.74986 0.0
N735 N 0.22536 0.351 0.68553 0.0
H736 H 0.78578 0.64852 0.44979 0.0
H737 H 0.75439 0.66705 0.27192 0.0
H738 H 0.70016 0.66123 0.40248 0.0
H739 H 0.84004 0.68173 0.31833 0.0
H740 H 0.73579 0.6531 0.31936 0.0
H741 H 0.80742 0.64955 0.40144 0.0
C742 C 0.77156 0.65112 0.42926 0.0
C743 C 0.74122 0.65522 0.43009 0.0
C744 C 0.75872 0.65914 0.31919 0.0
C745 C 0.76559 0.65611 0.37513 0.0
C746 C 0.76933 0.66718 0.29212 0.0
C747 C 0.79866 0.67613 0.29126 0.0
C748 C 0.77752 0.66006 0.34574 0.0
C749 C 0.81724 0.67506 0.31802 0.0
C750 C 0.78388 0.65182 0.40177 0.0
C751 C 0.72372 0.6585 0.40289 0.0
N752 N 0.80627 0.66754 0.3443 0.0
N753 N 0.73615 0.65895 0.37661 0.0
H754 H 0.71661 0.21413 0.01386 0.0
H755 H 0.71159 0.39378 0.97769 0.0
H756 H 0.78313 0.27749 0.0498 0.0
H757 H 0.6507 0.32781 0.93612 0.0
H758 H 0.73671 0.35229 0.00662 0.0
H759 H 0.69053 0.25643 0.98789 0.0
C760 C 0.72574 0.23694 0.01641 0.0
C761 C 0.75223 0.24215 0.03403 0.0
C762 C 0.71778 0.34696 0.99124 0.0
C763 C 0.72234 0.29087 0.00415 0.0
C764 C 0.7035 0.37061 0.97463 0.0
C765 C 0.67893 0.36432 0.95447 0.0
C766 C 0.70741 0.31682 0.98765 0.0
C767 C 0.66922 0.33389 0.95173 0.0
C768 C 0.7108 0.26113 0.0015 0.0
C769 C 0.76285 0.27231 0.03643 0.0
N770 N 0.6835 0.31133 0.96807 0.0
N771 N 0.7479 0.29552 0.0216 0.0
H772 H 0.21381 0.28308 0.50835 0.0
H773 H 0.21605 0.10317 0.47503 0.0
H774 H 0.28302 0.22266 0.54484 0.0
H775 H 0.15195 0.16619 0.43314 0.0
H776 H 0.23948 0.14583 0.50324 0.0
H777 H 0.18927 0.23958 0.48328 0.0
C778 C 0.22387 0.26067 0.51119 0.0
C779 C 0.25064 0.25663 0.52871 0.0
C780 C 0.2202 0.15025 0.48796 0.0
C781 C 0.22251 0.20655 0.49991 0.0
C782 C 0.20689 0.12594 0.47177 0.0
C783 C 0.18195 0.13106 0.45169 0.0
C784 C 0.20851 0.17989 0.48402 0.0
C785 C 0.17082 0.161 0.44869 0.0
C786 C 0.2098 0.23579 0.4968 0.0
C787 C 0.26248 0.22694 0.53151 0.0
N788 N 0.18421 0.18423 0.46459 0.0
N789 N 0.24836 0.20305 0.51721 0.0
H790 H 0.28747 0.85257 0.93934 0.0
H791 H 0.24531 0.83757 0.76267 0.0
H792 H 0.20014 0.83601 0.89766 0.0
H793 H 0.33351 0.82316 0.80317 0.0
H794 H 0.22966 0.8493 0.81193 0.0
H795 H 0.30576 0.85309 0.88932 0.0
C796 C 0.27216 0.84933 0.91971 0.0
C797 C 0.24234 0.84381 0.92262 0.0
C798 C 0.25251 0.84384 0.81003 0.0
C799 C 0.26288 0.84484 0.86577 0.0
C800 C 0.26144 0.83709 0.78193 0.0
C801 C 0.29064 0.8288 0.77889 0.0
C802 C 0.27289 0.84234 0.83539 0.0
C803 C 0.31077 0.82937 0.80452 0.0
C804 C 0.28259 0.84957 0.89128 0.0
C805 C 0.22339 0.83982 0.8965 0.0
N806 N 0.30145 0.83565 0.83183 0.0
N807 N 0.23398 0.84039 0.86926 0.0
loop_
_geom_bond_atom_site_label_1
_geom_bond_atom_site_label_2
_geom_bond_distance
_geom_bond_site_symmetry_2
_ccdc_geom_bond_type
Sc0 O3 2.025 . S
Sc0 O10 2.105 . S
Sc0 O13 2.105 . S
Sc0 O16 2.105 . S
Sc0 O19 2.105 1_554 S
Sc1 O3 2.025 1_556 S
Sc1 O11 2.105 . S
Sc1 O15 2.105 1_556 S
Sc1 O17 2.105 1_556 S
Sc1 O21 2.105 . S
Sc2 O3 2.025 . S
Sc2 O12 2.105 1_554 S
Sc2 O14 2.105 . S
Sc2 O18 2.105 . S
Sc2 O20 2.105 . S
O3 Sc0 2.025 . S
O3 Sc1 2.025 1_554 S
O3 Sc2 2.025 . S
C4 O10 1.268 1_556 S
C4 O20 1.268 1_556 S
C5 O11 1.268 . S
C5 O19 1.268 . S
C6 O12 1.268 . S
C6 O21 1.268 . S
C7 O13 1.268 . S
C7 O17 1.268 . S
C8 O14 1.268 . S
C8 O16 1.268 . S
C9 O15 1.268 . S
C9 O18 1.268 . S
O10 Sc0 2.105 . S
O10 C4 1.268 1_554 S
O11 Sc1 2.105 . S
O11 C5 1.268 . S
O12 Sc2 2.105 1_556 S
O12 C6 1.268 . S
O13 Sc0 2.105 . S
O13 C7 1.268 . S
O14 Sc2 2.105 . S
O14 C8 1.268 . S
O15 Sc1 2.105 1_554 S
O15 C9 1.268 . S
O16 Sc0 2.105 . S
O16 C8 1.268 . S
O17 Sc1 2.105 1_554 S
O17 C7 1.268 . S
O18 Sc2 2.105 . S
O18 C9 1.268 . S
O19 Sc0 2.105 1_556 S
O19 C5 1.268 . S
O20 Sc2 2.105 . S
O20 C4 1.268 1_554 S
O21 Sc1 2.105 . S
O21 C6 1.268 . S
Sc22 O25 2.025 . S
Sc22 O32 2.105 . S
Sc22 O35 2.105 . S
Sc22 O38 2.105 . S
Sc22 O41 2.105 . S
Sc23 O25 2.025 . S
Sc23 O33 2.105 . S
Sc23 O37 2.105 . S
Sc23 O39 2.105 . S
Sc23 O43 2.105 . S
Sc24 O25 2.025 . S
Sc24 O34 2.105 . S
Sc24 O36 2.105 . S
Sc24 O40 2.105 . S
Sc24 O42 2.105 . S
O25 Sc22 2.025 . S
O25 Sc23 2.025 . S
O25 Sc24 2.025 . S
C26 O32 1.268 . S
C26 O42 1.268 . S
C27 O33 1.268 . S
C27 O41 1.268 . S
C28 O34 1.268 . S
C28 O43 1.268 . S
C29 O35 1.268 . S
C29 O39 1.268 . S
C30 O36 1.268 . S
C30 O38 1.268 . S
C31 O37 1.268 . S
C31 O40 1.268 . S
O32 Sc22 2.105 . S
O32 C26 1.268 . S
O33 Sc23 2.105 . S
O33 C27 1.268 . S
O34 Sc24 2.105 . S
O34 C28 1.268 . S
O35 Sc22 2.105 . S
O35 C29 1.268 . S
O36 Sc24 2.105 . S
O36 C30 1.268 . S
O37 Sc23 2.105 . S
O37 C31 1.268 . S
O38 Sc22 2.105 . S
O38 C30 1.268 . S
O39 Sc23 2.105 . S
O39 C29 1.268 . S
O40 Sc24 2.105 . S
O40 C31 1.268 . S
O41 Sc22 2.105 . S
O41 C27 1.268 . S
O42 Sc24 2.105 . S
O42 C26 1.268 . S
O43 Sc23 2.105 . S
O43 C28 1.268 . S
Sc44 O47 2.025 . S
Sc44 O54 2.105 . S
Sc44 O57 2.105 . S
Sc44 O60 2.105 . S
Sc44 O63 2.105 . S
Sc45 O47 2.025 . S
Sc45 O55 2.105 . S
Sc45 O59 2.105 . S
Sc45 O61 2.105 . S
Sc45 O65 2.105 . S
Sc46 O47 2.025 . S
Sc46 O56 2.105 . S
Sc46 O58 2.105 . S
Sc46 O62 2.105 . S
Sc46 O64 2.105 . S
O47 Sc44 2.025 . S
O47 Sc45 2.025 . S
O47 Sc46 2.025 . S
C48 O54 1.268 . S
C48 O64 1.268 . S
C49 O55 1.268 . S
C49 O63 1.268 . S
C50 O56 1.275 . S
C50 O65 1.277 . S
C51 O57 1.268 . S
C51 O61 1.268 . S
C52 O58 1.268 . S
C52 O60 1.268 . S
C53 O59 1.268 . S
C53 O62 1.268 . S
O54 Sc44 2.105 . S
O54 C48 1.268 . S
O55 Sc45 2.105 . S
O55 C49 1.268 . S
O56 Sc46 2.105 . S
O56 C50 1.275 . S
O57 Sc44 2.105 . S
O57 C51 1.268 . S
O58 Sc46 2.105 . S
O58 C52 1.268 . S
O59 Sc45 2.105 . S
O59 C53 1.268 . S
O60 Sc44 2.105 . S
O60 C52 1.268 . S
O61 Sc45 2.105 . S
O61 C51 1.268 . S
O62 Sc46 2.105 . S
O62 C53 1.268 . S
O63 Sc44 2.105 . S
O63 C49 1.268 . S
O64 Sc46 2.105 . S
O64 C48 1.268 . S
O65 Sc45 2.105 . S
O65 C50 1.277 . S
Sc66 O69 2.025 . S
Sc66 O76 2.105 . S
Sc66 O79 2.105 . S
Sc66 O82 2.105 . S
Sc66 O85 2.105 . S
Sc67 O69 2.025 . S
Sc67 O77 2.105 . S
Sc67 O81 2.105 . S
Sc67 O83 2.105 . S
Sc67 O87 2.105 . S
Sc68 O69 2.025 . S
Sc68 O78 2.105 . S
Sc68 O80 2.105 . S
Sc68 O84 2.105 . S
Sc68 O86 2.105 . S
O69 Sc66 2.025 . S
O69 Sc67 2.025 . S
O69 Sc68 2.025 . S
C70 O76 1.268 . S
C70 O86 1.268 . S
C71 O77 1.268 . S
C71 O85 1.268 . S
C72 O78 1.268 . S
C72 O87 1.268 . S
C73 O79 1.268 . S
C73 O83 1.268 . S
C74 O80 1.268 . S
C74 O82 1.268 . S
C75 O81 1.268 . S
C75 O84 1.268 . S
O76 Sc66 2.105 . S
O76 C70 1.268 . S
O77 Sc67 2.105 . S
O77 C71 1.268 . S
O78 Sc68 2.105 . S
O78 C72 1.268 . S
O79 Sc66 2.105 . S
O79 C73 1.268 . S
O80 Sc68 2.105 . S
O80 C74 1.268 . S
O81 Sc67 2.105 . S
O81 C75 1.268 . S
O82 Sc66 2.105 . S
O82 C74 1.268 . S
O83 Sc67 2.105 . S
O83 C73 1.268 . S
O84 Sc68 2.105 . S
O84 C75 1.268 . S
O85 Sc66 2.105 . S
O85 C71 1.268 . S
O86 Sc68 2.105 . S
O86 C70 1.268 . S
O87 Sc67 2.105 . S
O87 C72 1.268 . S
C88 C89 1.384 . S
C88 H101 0.947 . S
C88 C123 1.382 . S
C89 C88 1.384 . S
C89 C90 1.378 . S
C90 C89 1.378 . S
C90 C91 1.378 . S
C90 H102 0.952 . S
C91 C90 1.378 . S
C91 H103 0.950 . S
C91 C122 1.383 . S
H92 C111 0.947 . S
H93 C112 0.946 . S
H94 C114 0.953 . S
H95 C115 0.945 . S
H96 C117 0.960 . S
H97 C118 0.949 . S
H98 C120 0.950 . S
H99 C121 0.947 . S
H100 C123 0.951 . S
H101 C88 0.947 . S
H102 C90 0.952 . S
H103 C91 0.950 . S
N104 C107 1.382 . S
N104 C109 1.363 . S
N105 C107 1.371 . S
N105 C108 1.372 . S
N106 C108 1.361 . S
N106 C109 1.377 . S
C107 N104 1.382 . S
C107 N105 1.371 . S
C107 C110 1.480 . S
C108 N105 1.372 . S
C108 N106 1.361 . S
C108 C116 1.457 . S
C109 N104 1.363 . S
C109 N106 1.377 . S
C109 C122 1.479 . S
C110 C107 1.480 . S
C110 C111 1.383 . S
C110 C115 1.385 . S
C111 H92 0.947 . S
C111 C110 1.383 . S
C111 C112 1.388 . S
C112 H93 0.946 . S
C112 C111 1.388 . S
C112 C113 1.384 . S
C113 C112 1.384 . S
C113 C114 1.377 . S
C114 H94 0.953 . S
C114 C113 1.377 . S
C114 C115 1.369 . S
C115 H95 0.945 . S
C115 C110 1.385 . S
C115 C114 1.369 . S
C116 C108 1.457 . S
C116 C117 1.379 . S
C116 C121 1.364 . S
C117 H96 0.960 . S
C117 C116 1.379 . S
C117 C118 1.373 1_545 S
C118 H97 0.949 . S
C118 C117 1.373 1_565 S
C118 C119 1.387 . S
C119 C118 1.387 . S
C119 C120 1.372 . S
C120 H98 0.950 . S
C120 C119 1.372 . S
C120 C121 1.380 1_565 S
C121 H99 0.947 . S
C121 C116 1.364 . S
C121 C120 1.380 1_545 S
C122 C91 1.383 . S
C122 C109 1.479 . S
C122 C123 1.398 . S
C123 C88 1.382 . S
C123 H100 0.951 . S
C123 C122 1.398 . S
C124 C125 1.384 . S
C124 H137 0.947 . S
C124 C159 1.382 . S
C125 C124 1.384 . S
C125 C126 1.378 . S
C126 C125 1.378 . S
C126 C127 1.378 . S
C126 H138 0.952 . S
C127 C126 1.378 . S
C127 H139 0.950 . S
C127 C158 1.383 . S
H128 C147 0.947 . S
H129 C148 0.946 . S
H130 C150 0.953 . S
H131 C151 0.945 . S
H132 C153 0.952 . S
H133 C154 0.949 . S
H134 C156 0.950 . S
H135 C157 0.948 . S
H136 C159 0.951 . S
H137 C124 0.947 . S
H138 C126 0.952 . S
H139 C127 0.950 . S
N140 C143 1.382 . S
N140 C145 1.363 . S
N141 C143 1.371 . S
N141 C144 1.372 . S
N142 C144 1.361 . S
N142 C145 1.377 . S
C143 N140 1.382 . S
C143 N141 1.371 . S
C143 C146 1.480 . S
C144 N141 1.372 . S
C144 N142 1.361 . S
C144 C152 1.457 . S
C145 N140 1.363 . S
C145 N142 1.377 . S
C145 C158 1.479 . S
C146 C143 1.480 . S
C146 C147 1.383 . S
C146 C151 1.385 . S
C147 H128 0.947 . S
C147 C146 1.383 . S
C147 C148 1.388 . S
C148 H129 0.946 . S
C148 C147 1.388 . S
C148 C149 1.384 . S
C149 C148 1.384 . S
C149 C150 1.377 . S
C150 H130 0.953 . S
C150 C149 1.377 . S
C150 C151 1.369 . S
C151 H131 0.945 . S
C151 C146 1.385 . S
C151 C150 1.369 . S
C152 C144 1.457 . S
C152 C153 1.372 . S
C152 C157 1.364 . S
C153 H132 0.952 . S
C153 C152 1.372 . S
C153 C154 1.389 . S
C154 H133 0.949 . S
C154 C153 1.389 . S
C154 C155 1.387 . S
C155 C154 1.387 . S
C155 C156 1.372 . S
C156 H134 0.950 . S
C156 C155 1.372 . S
C156 C157 1.379 . S
C157 H135 0.948 . S
C157 C152 1.364 . S
C157 C156 1.379 . S
C158 C127 1.383 . S
C158 C145 1.479 . S
C158 C159 1.398 . S
C159 C124 1.382 . S
C159 H136 0.951 . S
C159 C158 1.398 . S
C160 C161 1.384 . S
C160 H173 0.947 . S
C160 C195 1.382 . S
C161 C160 1.384 . S
C161 C162 1.378 . S
C162 C161 1.378 . S
C162 C163 1.378 . S
C162 H174 0.952 . S
C163 C162 1.378 . S
C163 H175 0.950 . S
C163 C194 1.383 . S
H164 C183 0.947 . S
H165 C184 0.946 . S
H166 C186 0.953 . S
H167 C187 0.945 . S
H168 C189 0.952 . S
H169 C190 0.949 . S
H170 C192 0.950 . S
H171 C193 0.948 . S
H172 C195 0.951 . S
H173 C160 0.947 . S
H174 C162 0.952 . S
H175 C163 0.950 . S
N176 C179 1.382 . S
N176 C181 1.363 . S
N177 C179 1.371 . S
N177 C180 1.372 . S
N178 C180 1.361 . S
N178 C181 1.377 . S
C179 N176 1.382 . S
C179 N177 1.371 . S
C179 C182 1.480 . S
C180 N177 1.372 . S
C180 N178 1.361 . S
C180 C188 1.457 . S
C181 N176 1.363 . S
C181 N178 1.377 . S
C181 C194 1.479 . S
C182 C179 1.480 . S
C182 C183 1.383 . S
C182 C187 1.385 . S
C183 H164 0.947 . S
C183 C182 1.383 . S
C183 C184 1.388 . S
C184 H165 0.946 . S
C184 C183 1.388 . S
C184 C185 1.384 . S
C185 C184 1.384 . S
C185 C186 1.377 . S
C186 H166 0.953 . S
C186 C185 1.377 . S
C186 C187 1.369 . S
C187 H167 0.945 . S
C187 C182 1.385 . S
C187 C186 1.369 . S
C188 C180 1.457 . S
C188 C189 1.372 . S
C188 C193 1.364 . S
C189 H168 0.952 . S
C189 C188 1.372 . S
C189 C190 1.389 . S
C190 H169 0.949 . S
C190 C189 1.389 . S
C190 C191 1.387 . S
C191 C190 1.387 . S
C191 C192 1.372 . S
C192 H170 0.950 . S
C192 C191 1.372 . S
C192 C193 1.379 . S
C193 H171 0.948 . S
C193 C188 1.364 . S
C193 C192 1.379 . S
C194 C163 1.383 . S
C194 C181 1.479 . S
C194 C195 1.398 . S
C195 C160 1.382 . S
C195 H172 0.951 . S
C195 C194 1.398 . S
C196 C197 1.384 . S
C196 H209 0.947 . S
C196 C231 1.382 . S
C197 C196 1.384 . S
C197 C198 1.378 . S
C198 C197 1.378 . S
C198 C199 1.378 . S
C198 H210 0.952 . S
C199 C198 1.378 . S
C199 H211 0.950 . S
C199 C230 1.383 . S
H200 C219 0.947 . S
H201 C220 0.946 . S
H202 C222 0.953 . S
H203 C223 0.945 . S
H204 C225 0.952 . S
H205 C226 0.949 . S
H206 C228 0.950 . S
H207 C229 0.948 . S
H208 C231 0.951 . S
H209 C196 0.947 . S
H210 C198 0.952 . S
H211 C199 0.950 . S
N212 C215 1.382 . S
N212 C217 1.363 . S
N213 C215 1.371 . S
N213 C216 1.372 . S
N214 C216 1.361 . S
N214 C217 1.377 . S
C215 N212 1.382 . S
C215 N213 1.371 . S
C215 C218 1.480 . S
C216 N213 1.372 . S
C216 N214 1.361 . S
C216 C224 1.457 . S
C217 N212 1.363 . S
C217 N214 1.377 . S
C217 C230 1.479 . S
C218 C215 1.480 . S
C218 C219 1.383 . S
C218 C223 1.385 . S
C219 H200 0.947 . S
C219 C218 1.383 . S
C219 C220 1.388 . S
C220 H201 0.946 . S
C220 C219 1.388 . S
C220 C221 1.384 . S
C221 C220 1.384 . S
C221 C222 1.377 . S
C222 H202 0.953 . S
C222 C221 1.377 . S
C222 C223 1.369 . S
C223 H203 0.945 . S
C223 C218 1.385 . S
C223 C222 1.369 . S
C224 C216 1.457 . S
C224 C225 1.372 . S
C224 C229 1.364 . S
C225 H204 0.952 . S
C225 C224 1.372 . S
C225 C226 1.389 . S
C226 H205 0.949 . S
C226 C225 1.389 . S
C226 C227 1.387 . S
C227 C226 1.387 . S
C227 C228 1.372 . S
C228 H206 0.950 . S
C228 C227 1.372 . S
C228 C229 1.379 . S
C229 H207 0.948 . S
C229 C224 1.364 . S
C229 C228 1.379 . S
C230 C199 1.383 . S
C230 C217 1.479 . S
C230 C231 1.398 . S
C231 C196 1.382 . S
C231 H208 0.951 . S
C231 C230 1.398 . S
C232 C233 1.384 . S
C232 H245 0.947 . S
C232 C267 1.382 . S
C233 C232 1.384 . S
C233 C234 1.378 . S
C234 C233 1.378 . S
C234 C235 1.378 . S
C234 H246 0.952 . S
C235 C234 1.378 . S
C235 H247 0.950 . S
C235 C266 1.383 . S
H236 C255 0.947 . S
H237 C256 0.946 . S
H238 C258 0.953 . S
H239 C259 0.945 . S
H240 C261 0.952 . S
H241 C262 0.949 . S
H242 C264 0.950 . S
H243 C265 0.948 . S
H244 C267 0.951 . S
H245 C232 0.947 . S
H246 C234 0.952 . S
H247 C235 0.950 . S
N248 C251 1.382 . S
N248 C253 1.363 . S
N249 C251 1.371 . S
N249 C252 1.372 . S
N250 C252 1.361 . S
N250 C253 1.377 . S
C251 N248 1.382 . S
C251 N249 1.371 . S
C251 C254 1.480 . S
C252 N249 1.372 . S
C252 N250 1.361 . S
C252 C260 1.457 . S
C253 N248 1.363 . S
C253 N250 1.377 . S
C253 C266 1.479 . S
C254 C251 1.480 . S
C254 C255 1.383 . S
C254 C259 1.385 . S
C255 H236 0.947 . S
C255 C254 1.383 . S
C255 C256 1.388 . S
C256 H237 0.946 . S
C256 C255 1.388 . S
C256 C257 1.384 . S
C257 C256 1.384 . S
C257 C258 1.377 . S
C258 H238 0.953 . S
C258 C257 1.377 . S
C258 C259 1.369 . S
C259 H239 0.945 . S
C259 C254 1.385 . S
C259 C258 1.369 . S
C260 C252 1.457 . S
C260 C261 1.372 . S
C260 C265 1.364 . S
C261 H240 0.952 . S
C261 C260 1.372 . S
C261 C262 1.389 . S
C262 H241 0.949 . S
C262 C261 1.389 . S
C262 C263 1.387 . S
C263 C262 1.387 . S
C263 C264 1.372 . S
C264 H242 0.950 . S
C264 C263 1.372 . S
C264 C265 1.379 . S
C265 H243 0.948 . S
C265 C260 1.364 . S
C265 C264 1.379 . S
C266 C235 1.383 . S
C266 C253 1.479 . S
C266 C267 1.398 . S
C267 C232 1.382 . S
C267 H244 0.951 . S
C267 C266 1.398 . S
C268 C269 1.384 . S
C268 H281 0.947 . S
C268 C303 1.382 . S
C269 C268 1.384 . S
C269 C270 1.378 . S
C270 C269 1.378 . S
C270 C271 1.378 . S
C270 H282 0.952 . S
C271 C270 1.378 . S
C271 H283 0.950 . S
C271 C302 1.383 . S
H272 C291 0.947 . S
H273 C292 0.946 . S
H274 C294 0.953 . S
H275 C295 0.945 . S
H276 C297 0.952 . S
H277 C298 0.949 . S
H278 C300 0.950 . S
H279 C301 0.948 . S
H280 C303 0.951 . S
H281 C268 0.947 . S
H282 C270 0.952 . S
H283 C271 0.950 . S
N284 C287 1.382 . S
N284 C289 1.363 . S
N285 C287 1.371 . S
N285 C288 1.372 . S
N286 C288 1.361 . S
N286 C289 1.377 . S
C287 N284 1.382 . S
C287 N285 1.371 . S
C287 C290 1.480 . S
C288 N285 1.372 . S
C288 N286 1.361 . S
C288 C296 1.457 . S
C289 N284 1.363 . S
C289 N286 1.377 . S
C289 C302 1.479 . S
C290 C287 1.480 . S
C290 C291 1.383 . S
C290 C295 1.385 . S
C291 H272 0.947 . S
C291 C290 1.383 . S
C291 C292 1.388 . S
C292 H273 0.946 . S
C292 C291 1.388 . S
C292 C293 1.384 . S
C293 C292 1.384 . S
C293 C294 1.377 . S
C294 H274 0.953 . S
C294 C293 1.377 . S
C294 C295 1.369 . S
C295 H275 0.945 . S
C295 C290 1.385 . S
C295 C294 1.369 . S
C296 C288 1.457 . S
C296 C297 1.372 . S
C296 C301 1.364 . S
C297 H276 0.952 . S
C297 C296 1.372 . S
C297 C298 1.389 . S
C298 H277 0.949 . S
C298 C297 1.389 . S
C298 C299 1.387 . S
C299 C298 1.387 . S
C299 C300 1.372 . S
C300 H278 0.950 . S
C300 C299 1.372 . S
C300 C301 1.379 . S
C301 H279 0.948 . S
C301 C296 1.364 . S
C301 C300 1.379 . S
C302 C271 1.383 . S
C302 C289 1.479 . S
C302 C303 1.398 . S
C303 C268 1.382 . S
C303 H280 0.951 . S
C303 C302 1.398 . S
C304 C305 1.384 . S
C304 H317 0.947 . S
C304 C339 1.382 . S
C305 C304 1.384 . S
C305 C306 1.378 . S
C306 C305 1.378 . S
C306 C307 1.378 . S
C306 H318 0.952 . S
C307 C306 1.378 . S
C307 H319 0.950 . S
C307 C338 1.383 . S
H308 C327 0.947 . S
H309 C328 0.946 . S
H310 C330 0.953 . S
H311 C331 0.945 . S
H312 C333 0.952 . S
H313 C334 0.949 . S
H314 C336 0.950 . S
H315 C337 0.948 . S
H316 C339 0.951 . S
H317 C304 0.947 . S
H318 C306 0.952 . S
H319 C307 0.950 . S
N320 C323 1.382 . S
N320 C325 1.363 . S
N321 C323 1.371 . S
N321 C324 1.372 . S
N322 C324 1.361 . S
N322 C325 1.377 . S
C323 N320 1.382 . S
C323 N321 1.371 . S
C323 C326 1.480 . S
C324 N321 1.372 . S
C324 N322 1.361 . S
C324 C332 1.457 . S
C325 N320 1.363 . S
C325 N322 1.377 . S
C325 C338 1.479 . S
C326 C323 1.480 . S
C326 C327 1.383 . S
C326 C331 1.385 . S
C327 H308 0.947 . S
C327 C326 1.383 . S
C327 C328 1.388 . S
C328 H309 0.946 . S
C328 C327 1.388 . S
C328 C329 1.384 . S
C329 C328 1.384 . S
C329 C330 1.377 . S
C330 H310 0.953 . S
C330 C329 1.377 . S
C330 C331 1.369 . S
C331 H311 0.945 . S
C331 C326 1.385 . S
C331 C330 1.369 . S
C332 C324 1.457 . S
C332 C333 1.372 . S
C332 C337 1.364 . S
C333 H312 0.952 . S
C333 C332 1.372 . S
C333 C334 1.389 . S
C334 H313 0.949 . S
C334 C333 1.389 . S
C334 C335 1.387 . S
C335 C334 1.387 . S
C335 C336 1.372 . S
C336 H314 0.950 . S
C336 C335 1.372 . S
C336 C337 1.379 . S
C337 H315 0.948 . S
C337 C332 1.364 . S
C337 C336 1.379 . S
C338 C307 1.383 . S
C338 C325 1.479 . S
C338 C339 1.398 . S
C339 C304 1.382 . S
C339 H316 0.951 . S
C339 C338 1.398 . S
C340 C341 1.384 . S
C340 H353 0.947 . S
C340 C375 1.382 . S
C341 C340 1.384 . S
C341 C342 1.378 . S
C342 C341 1.378 . S
C342 C343 1.378 1_545 S
C342 H354 0.952 . S
C343 C342 1.378 1_565 S
C343 H355 0.950 . S
C343 C374 1.383 . S
H344 C363 0.947 . S
H345 C364 0.946 . S
H346 C366 0.953 . S
H347 C367 0.945 . S
H348 C369 0.952 . S
H349 C370 0.949 . S
H350 C372 0.950 . S
H351 C373 0.948 . S
H352 C375 0.959 . S
H353 C340 0.947 . S
H354 C342 0.952 . S
H355 C343 0.950 . S
N356 C359 1.382 . S
N356 C361 1.363 . S
N357 C359 1.371 . S
N357 C360 1.372 . S
N358 C360 1.361 . S
N358 C361 1.377 . S
C359 N356 1.382 . S
C359 N357 1.371 . S
C359 C362 1.480 . S
C360 N357 1.372 . S
C360 N358 1.361 . S
C360 C368 1.457 . S
C361 N356 1.363 . S
C361 N358 1.377 . S
C361 C374 1.479 . S
C362 C359 1.480 . S
C362 C363 1.383 . S
C362 C367 1.385 . S
C363 H344 0.947 . S
C363 C362 1.383 . S
C363 C364 1.388 . S
C364 H345 0.946 . S
C364 C363 1.388 . S
C364 C365 1.384 . S
C365 C364 1.384 . S
C365 C366 1.377 . S
C366 H346 0.953 . S
C366 C365 1.377 . S
C366 C367 1.369 . S
C367 H347 0.945 . S
C367 C362 1.385 . S
C367 C366 1.369 . S
C368 C360 1.457 . S
C368 C369 1.372 . S
C368 C373 1.364 . S
C369 H348 0.952 . S
C369 C368 1.372 . S
C369 C370 1.389 . S
C370 H349 0.949 . S
C370 C369 1.389 . S
C370 C371 1.387 . S
C371 C370 1.387 . S
C371 C372 1.372 . S
C372 H350 0.950 . S
C372 C371 1.372 . S
C372 C373 1.379 . S
C373 H351 0.948 . S
C373 C368 1.364 . S
C373 C372 1.379 . S
C374 C343 1.383 . S
C374 C361 1.479 . S
C374 C375 1.398 1_565 S
C375 C340 1.382 . S
C375 H352 0.959 . S
C375 C374 1.398 1_545 S
H376 C382 0.930 . S
H377 C386 0.930 . S
H378 C391 0.929 . S
H379 C389 0.929 . S
H380 C384 0.929 . S
H381 C390 0.929 . S
C382 H376 0.930 . S
C382 C383 1.367 . S
C382 C390 1.378 . S
C383 C382 1.367 . S
C383 C391 1.433 . S
C384 H380 0.929 . S
C384 C386 1.378 . S
C384 C388 1.350 . S
C385 C388 1.463 . S
C385 C390 1.350 . S
C385 N393 1.427 . S
C386 H377 0.930 . S
C386 C384 1.378 . S
C386 C387 1.367 . S
C387 C386 1.367 . S
C387 C389 1.433 . S
C388 C384 1.350 . S
C388 C385 1.463 . S
C388 N392 1.427 . S
C389 H379 0.929 . S
C389 C387 1.433 . S
C389 N392 1.384 . S
C390 H381 0.929 . S
C390 C382 1.378 . S
C390 C385 1.350 . S
C391 H378 0.929 . S
C391 C383 1.433 . S
C391 N393 1.384 . S
N392 C388 1.427 . S
N392 C389 1.384 . S
N393 C385 1.427 . S
N393 C391 1.384 . S
H394 C400 0.930 . S
H395 C404 0.930 . S
H396 C409 0.929 . S
H397 C407 0.929 . S
H398 C402 0.929 . S
H399 C408 0.929 . S
C400 H394 0.930 . S
C400 C401 1.367 . S
C400 C408 1.378 . S
C401 C400 1.367 . S
C401 C409 1.433 . S
C402 H398 0.929 . S
C402 C404 1.378 . S
C402 C406 1.350 . S
C403 C406 1.463 . S
C403 C408 1.350 . S
C403 N411 1.427 . S
C404 H395 0.930 . S
C404 C402 1.378 . S
C404 C405 1.367 . S
C405 C404 1.367 . S
C405 C407 1.433 . S
C406 C402 1.350 . S
C406 C403 1.463 . S
C406 N410 1.427 . S
C407 H397 0.929 . S
C407 C405 1.433 . S
C407 N410 1.384 . S
C408 H399 0.929 . S
C408 C400 1.378 . S
C408 C403 1.350 . S
C409 H396 0.929 . S
C409 C401 1.433 . S
C409 N411 1.384 . S
N410 C406 1.427 . S
N410 C407 1.384 . S
N411 C403 1.427 . S
N411 C409 1.384 . S
H412 C418 0.930 . S
H413 C422 0.930 . S
H414 C427 0.929 . S
H415 C425 0.929 . S
H416 C420 0.929 . S
H417 C426 0.929 . S
C418 H412 0.930 . S
C418 C419 1.367 . S
C418 C426 1.378 . S
C419 C418 1.367 . S
C419 C427 1.433 . S
C420 H416 0.929 . S
C420 C422 1.378 . S
C420 C424 1.350 . S
C421 C424 1.463 . S
C421 C426 1.350 1_565 S
C421 N429 1.422 1_565 S
C422 H413 0.930 . S
C422 C420 1.378 . S
C422 C423 1.367 . S
C423 C422 1.367 . S
C423 C425 1.433 . S
C424 C420 1.350 . S
C424 C421 1.463 . S
C424 N428 1.427 . S
C425 H415 0.929 . S
C425 C423 1.433 . S
C425 N428 1.384 . S
C426 H417 0.929 . S
C426 C418 1.378 . S
C426 C421 1.350 1_545 S
C427 H414 0.929 . S
C427 C419 1.433 . S
C427 N429 1.400 . S
N428 C424 1.427 . S
N428 C425 1.384 . S
N429 C421 1.422 1_545 S
N429 C427 1.400 . S
H430 C436 0.930 . S
H431 C440 0.930 . S
H432 C445 0.929 . S
H433 C443 0.929 . S
H434 C438 0.929 . S
H435 C444 0.929 . S
C436 H430 0.930 . S
C436 C437 1.367 . S
C436 C444 1.378 . S
C437 C436 1.367 . S
C437 C445 1.433 . S
C438 H434 0.929 . S
C438 C440 1.378 . S
C438 C442 1.350 . S
C439 C442 1.463 . S
C439 C444 1.350 . S
C439 N447 1.427 . S
C440 H431 0.930 . S
C440 C438 1.378 . S
C440 C441 1.367 . S
C441 C440 1.367 . S
C441 C443 1.433 . S
C442 C438 1.350 . S
C442 C439 1.463 . S
C442 N446 1.427 . S
C443 H433 0.929 . S
C443 C441 1.433 . S
C443 N446 1.384 . S
C444 H435 0.929 . S
C444 C436 1.378 . S
C444 C439 1.350 . S
C445 H432 0.929 . S
C445 C437 1.433 . S
C445 N447 1.384 . S
N446 C442 1.427 . S
N446 C443 1.384 . S
N447 C439 1.427 . S
N447 C445 1.384 . S
H448 C454 0.930 . S
H449 C458 0.930 . S
H450 C463 0.929 . S
H451 C461 0.929 . S
H452 C456 0.929 . S
H453 C462 0.929 . S
C454 H448 0.930 . S
C454 C455 1.367 . S
C454 C462 1.378 . S
C455 C454 1.367 . S
C455 C463 1.433 . S
C456 H452 0.929 . S
C456 C458 1.378 . S
C456 C460 1.350 . S
C457 C460 1.463 . S
C457 C462 1.350 . S
C457 N465 1.427 . S
C458 H449 0.930 . S
C458 C456 1.378 . S
C458 C459 1.367 . S
C459 C458 1.367 . S
C459 C461 1.433 . S
C460 C456 1.350 . S
C460 C457 1.463 . S
C460 N464 1.427 . S
C461 H451 0.929 . S
C461 C459 1.433 . S
C461 N464 1.384 . S
C462 H453 0.929 . S
C462 C454 1.378 . S
C462 C457 1.350 . S
C463 H450 0.929 . S
C463 C455 1.433 . S
C463 N465 1.384 . S
N464 C460 1.427 . S
N464 C461 1.384 . S
N465 C457 1.427 . S
N465 C463 1.384 . S
H466 C472 0.930 . S
H467 C476 0.930 . S
H468 C481 0.929 . S
H469 C479 0.929 1_554 S
H470 C474 0.929 . S
H471 C480 0.929 . S
C472 H466 0.930 . S
C472 C473 1.367 . S
C472 C480 1.378 . S
C473 C472 1.367 . S
C473 C481 1.433 1_554 S
C474 H470 0.929 . S
C474 C476 1.378 1_655 S
C474 C478 1.350 . S
C475 C478 1.463 . S
C475 C480 1.350 1_556 S
C475 N483 1.427 . S
C476 H467 0.930 . S
C476 C474 1.378 1_455 S
C476 C477 1.367 . S
C477 C476 1.367 . S
C477 C479 1.433 . S
C478 C474 1.350 . S
C478 C475 1.463 . S
C478 N482 1.427 1_556 S
C479 H469 0.929 1_556 S
C479 C477 1.433 . S
C479 N482 1.384 1_456 S
C480 H471 0.929 . S
C480 C472 1.378 . S
C480 C475 1.350 1_554 S
C481 H468 0.929 . S
C481 C473 1.433 1_556 S
C481 N483 1.384 . S
N482 C478 1.427 1_554 S
N482 C479 1.384 1_654 S
N483 C475 1.427 . S
N483 C481 1.384 . S
H484 C490 0.930 . S
H485 C494 0.930 . S
H486 C499 0.929 . S
H487 C497 0.929 . S
H488 C492 0.929 . S
H489 C498 0.929 . S
C490 H484 0.930 . S
C490 C491 1.367 . S
C490 C498 1.378 . S
C491 C490 1.367 . S
C491 C499 1.433 . S
C492 H488 0.929 . S
C492 C494 1.378 . S
C492 C496 1.350 . S
C493 C496 1.463 . S
C493 C498 1.350 . S
C493 N501 1.427 . S
C494 H485 0.930 . S
C494 C492 1.378 . S
C494 C495 1.367 . S
C495 C494 1.367 . S
C495 C497 1.433 . S
C496 C492 1.350 . S
C496 C493 1.463 . S
C496 N500 1.427 . S
C497 H487 0.929 . S
C497 C495 1.433 . S
C497 N500 1.384 . S
C498 H489 0.929 . S
C498 C490 1.378 . S
C498 C493 1.350 . S
C499 H486 0.929 . S
C499 C491 1.433 . S
C499 N501 1.384 . S
N500 C496 1.427 . S
N500 C497 1.384 . S
N501 C493 1.427 . S
N501 C499 1.384 . S
H502 C508 0.930 . S
H503 C512 0.930 1_655 S
H504 C517 0.929 . S
H505 C515 0.929 . S
H506 C510 0.929 . S
H507 C516 0.929 . S
C508 H502 0.930 . S
C508 C509 1.367 . S
C508 C516 1.378 . S
C509 C508 1.367 . S
C509 C517 1.433 . S
C510 H506 0.929 . S
C510 C512 1.378 . S
C510 C514 1.350 . S
C511 C514 1.463 . S
C511 C516 1.350 . S
C511 N519 1.427 . S
C512 H503 0.930 1_455 S
C512 C510 1.378 . S
C512 C513 1.367 . S
C513 C512 1.367 . S
C513 C515 1.433 . S
C514 C510 1.350 . S
C514 C511 1.463 . S
C514 N518 1.427 . S
C515 H505 0.929 . S
C515 C513 1.433 . S
C515 N518 1.384 . S
C516 H507 0.929 . S
C516 C508 1.378 . S
C516 C511 1.350 . S
C517 H504 0.929 . S
C517 C509 1.433 . S
C517 N519 1.384 . S
N518 C514 1.427 . S
N518 C515 1.384 . S
N519 C511 1.427 . S
N519 C517 1.384 . S
H520 C526 0.930 . S
H521 C530 0.930 . S
H522 C535 0.929 . S
H523 C533 0.929 . S
H524 C528 0.929 . S
H525 C534 0.929 . S
C526 H520 0.930 . S
C526 C527 1.367 . S
C526 C534 1.378 . S
C527 C526 1.367 . S
C527 C535 1.433 . S
C528 H524 0.929 . S
C528 C530 1.378 . S
C528 C532 1.350 . S
C529 C532 1.463 . S
C529 C534 1.350 . S
C529 N537 1.427 . S
C530 H521 0.930 . S
C530 C528 1.378 . S
C530 C531 1.367 . S
C531 C530 1.367 . S
C531 C533 1.433 . S
C532 C528 1.350 . S
C532 C529 1.463 . S
C532 N536 1.427 . S
C533 H523 0.929 . S
C533 C531 1.433 . S
C533 N536 1.384 . S
C534 H525 0.929 . S
C534 C526 1.378 . S
C534 C529 1.350 . S
C535 H522 0.929 . S
C535 C527 1.433 . S
C535 N537 1.384 . S
N536 C532 1.427 . S
N536 C533 1.384 . S
N537 C529 1.427 . S
N537 C535 1.384 . S
H538 C544 0.930 . S
H539 C548 0.930 . S
H540 C553 0.929 . S
H541 C551 0.929 . S
H542 C546 0.929 . S
H543 C552 0.929 . S
C544 H538 0.930 . S
C544 C545 1.367 . S
C544 C552 1.378 . S
C545 C544 1.367 . S
C545 C553 1.433 . S
C546 H542 0.929 . S
C546 C548 1.378 . S
C546 C550 1.350 . S
C547 C550 1.463 . S
C547 C552 1.350 . S
C547 N555 1.427 . S
C548 H539 0.930 . S
C548 C546 1.378 . S
C548 C549 1.367 . S
C549 C548 1.367 . S
C549 C551 1.433 . S
C550 C546 1.350 . S
C550 C547 1.463 . S
C550 N554 1.427 . S
C551 H541 0.929 . S
C551 C549 1.433 . S
C551 N554 1.384 . S
C552 H543 0.929 . S
C552 C544 1.378 . S
C552 C547 1.350 . S
C553 H540 0.929 . S
C553 C545 1.433 . S
C553 N555 1.384 . S
N554 C550 1.427 . S
N554 C551 1.384 . S
N555 C547 1.427 . S
N555 C553 1.384 . S
H556 C562 0.930 . S
H557 C566 0.930 . S
H558 C571 0.929 . S
H559 C569 0.929 . S
H560 C564 0.929 . S
H561 C570 0.900 1_544 S
C562 H556 0.930 . S
C562 C563 1.367 1_554 S
C562 C570 1.396 1_554 S
C563 C562 1.367 1_556 S
C563 C571 1.433 . S
C564 H560 0.929 . S
C564 C566 1.378 . S
C564 C568 1.350 . S
C565 C568 1.463 . S
C565 C570 1.360 1_545 S
C565 N573 1.427 1_545 S
C566 H557 0.930 . S
C566 C564 1.378 . S
C566 C567 1.367 . S
C567 C566 1.367 . S
C567 C569 1.433 . S
C568 C564 1.350 . S
C568 C565 1.463 . S
C568 N572 1.427 . S
C569 H559 0.929 . S
C569 C567 1.433 . S
C569 N572 1.384 . S
C570 H561 0.900 1_566 S
C570 C562 1.396 1_556 S
C570 C565 1.360 1_565 S
C571 H558 0.929 . S
C571 C563 1.433 . S
C571 N573 1.384 . S
N572 C568 1.427 . S
N572 C569 1.384 . S
N573 C565 1.427 1_565 S
N573 C571 1.384 . S
H574 C580 0.930 . S
H575 C584 0.930 . S
H576 C589 0.929 . S
H577 C587 0.929 . S
H578 C582 0.929 . S
H579 C588 0.929 . S
C580 H574 0.930 . S
C580 C581 1.367 . S
C580 C588 1.378 . S
C581 C580 1.367 . S
C581 C589 1.433 . S
C582 H578 0.929 . S
C582 C584 1.378 . S
C582 C586 1.350 . S
C583 C586 1.463 . S
C583 C588 1.350 . S
C583 N591 1.427 . S
C584 H575 0.930 . S
C584 C582 1.378 . S
C584 C585 1.367 . S
C585 C584 1.367 . S
C585 C587 1.433 . S
C586 C582 1.350 . S
C586 C583 1.463 . S
C586 N590 1.427 . S
C587 H577 0.929 . S
C587 C585 1.433 . S
C587 N590 1.384 . S
C588 H579 0.929 . S
C588 C580 1.378 . S
C588 C583 1.350 . S
C589 H576 0.929 . S
C589 C581 1.433 . S
C589 N591 1.384 . S
N590 C586 1.427 . S
N590 C587 1.384 . S
N591 C583 1.427 . S
N591 C589 1.384 . S
H592 C598 0.930 . S
H593 C602 0.930 . S
H594 C607 0.929 . S
H595 C605 0.929 . S
H596 C600 0.929 . S
H597 C606 0.929 . S
C598 H592 0.930 . S
C598 C599 1.367 . S
C598 C606 1.378 . S
C599 C598 1.367 . S
C599 C607 1.433 . S
C600 H596 0.929 . S
C600 C602 1.378 . S
C600 C604 1.350 . S
C601 C604 1.463 . S
C601 C606 1.350 . S
C601 N609 1.427 . S
C602 H593 0.930 . S
C602 C600 1.378 . S
C602 C603 1.367 . S
C603 C602 1.367 . S
C603 C605 1.433 . S
C604 C600 1.350 . S
C604 C601 1.463 . S
C604 N608 1.427 . S
C605 H595 0.929 . S
C605 C603 1.433 . S
C605 N608 1.384 . S
C606 H597 0.929 . S
C606 C598 1.378 . S
C606 C601 1.350 . S
C607 H594 0.929 . S
C607 C599 1.433 . S
C607 N609 1.384 . S
N608 C604 1.427 . S
N608 C605 1.384 . S
N609 C601 1.427 . S
N609 C607 1.384 . S
H610 C616 0.930 . S
H611 C620 0.930 . S
H612 C625 0.929 . S
H613 C623 0.929 . S
H614 C618 0.929 . S
H615 C624 0.929 . S
C616 H610 0.930 . S
C616 C617 1.367 . S
C616 C624 1.378 . S
C617 C616 1.367 . S
C617 C625 1.433 . S
C618 H614 0.929 . S
C618 C620 1.378 1_455 S
C618 C622 1.350 . S
C619 C622 1.463 . S
C619 C624 1.350 . S
C619 N627 1.427 . S
C620 H611 0.930 . S
C620 C618 1.378 1_655 S
C620 C621 1.367 . S
C621 C620 1.367 . S
C621 C623 1.433 . S
C622 C618 1.350 . S
C622 C619 1.463 . S
C622 N626 1.427 . S
C623 H613 0.929 . S
C623 C621 1.433 . S
C623 N626 1.384 1_655 S
C624 H615 0.929 . S
C624 C616 1.378 . S
C624 C619 1.350 . S
C625 H612 0.929 . S
C625 C617 1.433 . S
C625 N627 1.384 . S
N626 C622 1.427 . S
N626 C623 1.384 1_455 S
N627 C619 1.427 . S
N627 C625 1.384 . S
H628 C634 0.930 . S
H629 C638 0.930 . S
H630 C643 0.929 . S
H631 C641 0.929 . S
H632 C636 0.929 . S
H633 C642 0.929 . S
C634 H628 0.930 . S
C634 C635 1.367 . S
C634 C642 1.378 . S
C635 C634 1.367 . S
C635 C643 1.433 . S
C636 H632 0.929 . S
C636 C638 1.378 . S
C636 C640 1.350 . S
C637 C640 1.463 . S
C637 C642 1.350 . S
C637 N645 1.427 . S
C638 H629 0.930 . S
C638 C636 1.378 . S
C638 C639 1.367 . S
C639 C638 1.367 . S
C639 C641 1.433 . S
C640 C636 1.350 . S
C640 C637 1.463 . S
C640 N644 1.427 . S
C641 H631 0.929 . S
C641 C639 1.433 . S
C641 N644 1.384 . S
C642 H633 0.929 . S
C642 C634 1.378 . S
C642 C637 1.350 . S
C643 H630 0.929 . S
C643 C635 1.433 . S
C643 N645 1.384 . S
N644 C640 1.427 . S
N644 C641 1.384 . S
N645 C637 1.427 . S
N645 C643 1.384 . S
H646 C652 0.930 . S
H647 C656 0.930 . S
H648 C661 0.929 . S
H649 C659 0.929 . S
H650 C654 0.929 . S
H651 C660 0.929 . S
C652 H646 0.930 . S
C652 C653 1.367 . S
C652 C660 1.378 . S
C653 C652 1.367 . S
C653 C661 1.433 . S
C654 H650 0.929 . S
C654 C656 1.378 . S
C654 C658 1.350 . S
C655 C658 1.463 . S
C655 C660 1.350 . S
C655 N663 1.427 . S
C656 H647 0.930 . S
C656 C654 1.378 . S
C656 C657 1.367 . S
C657 C656 1.367 . S
C657 C659 1.433 . S
C658 C654 1.350 . S
C658 C655 1.463 . S
C658 N662 1.427 . S
C659 H649 0.929 . S
C659 C657 1.433 . S
C659 N662 1.384 . S
C660 H651 0.929 . S
C660 C652 1.378 . S
C660 C655 1.350 . S
C661 H648 0.929 . S
C661 C653 1.433 . S
C661 N663 1.384 . S
N662 C658 1.427 . S
N662 C659 1.384 . S
N663 C655 1.427 . S
N663 C661 1.384 . S
H664 C670 0.930 . S
H665 C674 0.930 . S
H666 C679 0.929 . S
H667 C677 0.929 . S
H668 C672 0.929 . S
H669 C678 0.929 . S
C670 H664 0.930 . S
C670 C671 1.367 . S
C670 C678 1.378 . S
C671 C670 1.367 . S
C671 C679 1.433 . S
C672 H668 0.929 . S
C672 C674 1.378 . S
C672 C676 1.350 . S
C673 C676 1.463 . S
C673 C678 1.350 . S
C673 N681 1.427 . S
C674 H665 0.930 . S
C674 C672 1.378 . S
C674 C675 1.367 . S
C675 C674 1.367 . S
C675 C677 1.433 . S
C676 C672 1.350 . S
C676 C673 1.463 . S
C676 N680 1.427 . S
C677 H667 0.929 . S
C677 C675 1.433 . S
C677 N680 1.384 . S
C678 H669 0.929 . S
C678 C670 1.378 . S
C678 C673 1.350 . S
C679 H666 0.929 . S
C679 C671 1.433 . S
C679 N681 1.384 . S
N680 C676 1.427 . S
N680 C677 1.384 . S
N681 C673 1.427 . S
N681 C679 1.384 . S
H682 C688 0.930 . S
H683 C692 0.930 . S
H684 C697 0.929 . S
H685 C695 0.929 . S
H686 C690 0.929 . S
H687 C696 0.929 . S
C688 H682 0.930 . S
C688 C689 1.367 . S
C688 C696 1.378 . S
C689 C688 1.367 . S
C689 C697 1.433 . S
C690 H686 0.929 . S
C690 C692 1.378 . S
C690 C694 1.350 . S
C691 C694 1.463 . S
C691 C696 1.350 . S
C691 N699 1.427 . S
C692 H683 0.930 . S
C692 C690 1.378 . S
C692 C693 1.367 . S
C693 C692 1.367 . S
C693 C695 1.433 . S
C694 C690 1.350 . S
C694 C691 1.463 . S
C694 N698 1.427 . S
C695 H685 0.929 . S
C695 C693 1.433 . S
C695 N698 1.384 . S
C696 H687 0.929 . S
C696 C688 1.378 . S
C696 C691 1.350 . S
C697 H684 0.929 . S
C697 C689 1.433 . S
C697 N699 1.384 . S
N698 C694 1.427 . S
N698 C695 1.384 . S
N699 C691 1.427 . S
N699 C697 1.384 . S
H700 C706 0.930 . S
H701 C710 0.930 . S
H702 C715 0.929 . S
H703 C713 0.929 . S
H704 C708 0.929 . S
H705 C714 0.929 . S
C706 H700 0.930 . S
C706 C707 1.367 . S
C706 C714 1.378 . S
C707 C706 1.367 . S
C707 C715 1.433 . S
C708 H704 0.929 . S
C708 C710 1.378 . S
C708 C712 1.350 . S
C709 C712 1.463 . S
C709 C714 1.350 . S
C709 N717 1.427 . S
C710 H701 0.930 . S
C710 C708 1.378 . S
C710 C711 1.367 . S
C711 C710 1.367 . S
C711 C713 1.433 . S
C712 C708 1.350 . S
C712 C709 1.463 . S
C712 N716 1.427 . S
C713 H703 0.929 . S
C713 C711 1.433 . S
C713 N716 1.384 . S
C714 H705 0.929 . S
C714 C706 1.378 . S
C714 C709 1.350 . S
C715 H702 0.929 . S
C715 C707 1.433 . S
C715 N717 1.384 . S
N716 C712 1.427 . S
N716 C713 1.384 . S
N717 C709 1.427 . S
N717 C715 1.384 . S
H718 C724 0.930 . S
H719 C728 0.930 . S
H720 C733 0.929 . S
H721 C731 0.929 . S
H722 C726 0.929 . S
H723 C732 0.929 . S
C724 H718 0.930 . S
C724 C725 1.367 . S
C724 C732 1.378 . S
C725 C724 1.367 . S
C725 C733 1.433 . S
C726 H722 0.929 . S
C726 C728 1.378 . S
C726 C730 1.350 . S
C727 C730 1.463 . S
C727 C732 1.350 . S
C727 N735 1.427 . S
C728 H719 0.930 . S
C728 C726 1.378 . S
C728 C729 1.367 . S
C729 C728 1.367 . S
C729 C731 1.433 . S
C730 C726 1.350 . S
C730 C727 1.463 . S
C730 N734 1.427 . S
C731 H721 0.929 . S
C731 C729 1.433 . S
C731 N734 1.384 . S
C732 H723 0.929 . S
C732 C724 1.378 . S
C732 C727 1.350 . S
C733 H720 0.929 . S
C733 C725 1.433 . S
C733 N735 1.384 . S
N734 C730 1.427 . S
N734 C731 1.384 . S
N735 C727 1.427 . S
N735 C733 1.384 . S
H736 C742 0.930 . S
H737 C746 0.930 . S
H738 C751 0.929 . S
H739 C749 0.929 . S
H740 C744 0.929 . S
H741 C750 0.929 . S
C742 H736 0.930 . S
C742 C743 1.367 . S
C742 C750 1.378 . S
C743 C742 1.367 . S
C743 C751 1.433 . S
C744 H740 0.929 . S
C744 C746 1.378 . S
C744 C748 1.350 . S
C745 C748 1.463 . S
C745 C750 1.350 . S
C745 N753 1.427 . S
C746 H737 0.930 . S
C746 C744 1.378 . S
C746 C747 1.367 . S
C747 C746 1.367 . S
C747 C749 1.433 . S
C748 C744 1.350 . S
C748 C745 1.463 . S
C748 N752 1.427 . S
C749 H739 0.929 . S
C749 C747 1.433 . S
C749 N752 1.384 . S
C750 H741 0.929 . S
C750 C742 1.378 . S
C750 C745 1.350 . S
C751 H738 0.929 . S
C751 C743 1.433 . S
C751 N753 1.384 . S
N752 C748 1.427 . S
N752 C749 1.384 . S
N753 C745 1.427 . S
N753 C751 1.384 . S
H754 C760 0.930 . S
H755 C764 0.930 . S
H756 C769 0.929 . S
H757 C767 0.929 . S
H758 C762 0.929 . S
H759 C768 0.929 . S
C760 H754 0.930 . S
C760 C761 1.367 1_556 S
C760 C768 1.378 . S
C761 C760 1.367 1_554 S
C761 C769 1.433 . S
C762 H758 0.929 . S
C762 C764 1.378 . S
C762 C766 1.350 . S
C763 C766 1.463 . S
C763 C768 1.350 . S
C763 N771 1.427 1_556 S
C764 H755 0.930 . S
C764 C762 1.378 . S
C764 C765 1.367 . S
C765 C764 1.367 . S
C765 C767 1.433 . S
C766 C762 1.350 . S
C766 C763 1.463 . S
C766 N770 1.427 . S
C767 H757 0.929 . S
C767 C765 1.433 . S
C767 N770 1.384 . S
C768 H759 0.929 . S
C768 C760 1.378 . S
C768 C763 1.350 . S
C769 H756 0.929 . S
C769 C761 1.433 . S
C769 N771 1.384 . S
N770 C766 1.427 . S
N770 C767 1.384 . S
N771 C763 1.427 1_554 S
N771 C769 1.384 . S
H772 C778 0.930 . S
H773 C782 0.930 . S
H774 C787 0.929 . S
H775 C785 0.929 . S
H776 C780 0.929 . S
H777 C786 0.929 . S
C778 H772 0.930 . S
C778 C779 1.367 . S
C778 C786 1.378 . S
C779 C778 1.367 . S
C779 C787 1.433 . S
C780 H776 0.929 . S
C780 C782 1.378 . S
C780 C784 1.350 . S
C781 C784 1.463 . S
C781 C786 1.350 . S
C781 N789 1.427 . S
C782 H773 0.930 . S
C782 C780 1.378 . S
C782 C783 1.367 . S
C783 C782 1.367 . S
C783 C785 1.433 . S
C784 C780 1.350 . S
C784 C781 1.463 . S
C784 N788 1.427 . S
C785 H775 0.929 . S
C785 C783 1.433 . S
C785 N788 1.384 . S
C786 H777 0.929 . S
C786 C778 1.378 . S
C786 C781 1.350 . S
C787 H774 0.929 . S
C787 C779 1.433 . S
C787 N789 1.384 . S
N788 C784 1.427 . S
N788 C785 1.384 . S
N789 C781 1.427 . S
N789 C787 1.384 . S
H790 C796 0.930 . S
H791 C800 0.930 . S
H792 C805 0.929 . S
H793 C803 0.929 . S
H794 C798 0.929 . S
H795 C804 0.929 . S
C796 H790 0.930 . S
C796 C797 1.367 . S
C796 C804 1.378 . S
C797 C796 1.367 . S
C797 C805 1.433 . S
C798 H794 0.929 . S
C798 C800 1.378 . S
C798 C802 1.350 . S
C799 C802 1.463 . S
C799 C804 1.350 . S
C799 N807 1.427 . S
C800 H791 0.930 . S
C800 C798 1.378 . S
C800 C801 1.367 . S
C801 C800 1.367 . S
C801 C803 1.433 . S
C802 C798 1.350 . S
C802 C799 1.463 . S
C802 N806 1.427 . S
C803 H793 0.929 . S
C803 C801 1.433 . S
C803 N806 1.384 . S
C804 H795 0.929 . S
C804 C796 1.378 . S
C804 C799 1.350 . S
C805 H792 0.929 . S
C805 C797 1.433 . S
C805 N807 1.384 . S
N806 C802 1.427 . S
N806 C803 1.384 . S
N807 C799 1.427 . S
N807 C805 1.384 . S
C383 C8 1.532 . S
C387 C119 1.374 . S
C401 C31 1.807 . S
C405 C155 1.712 . S
C419 C53 1.448 . S
C423 C191 1.415 . S
C441 C221 1.484 . S
C437 C74 1.587 . S
C459 C263 1.468 . S
C455 C26 1.469 . S
C473 C48 1.789 . S
C477 C293 1.680 . S
C491 C71 1.522 . S
C495 C329 1.356 . S
C509 C5 1.610 . S
C513 C371 1.498 1_455 S
C527 C50 1.500 1_556 S
C531 C341 1.400 . S
C549 C233 1.710 . S
C545 C70 1.786 . S
C567 C299 1.453 . S
C563 C4 1.433 . S
C581 C28 1.615 . S
C585 C335 1.526 . S
C603 C125 1.458 . S
C599 C73 1.443 . S
C617 C7 1.801 . S
C621 C185 1.645 . S
C639 C227 1.408 . S
C635 C30 1.542 . S
C657 C89 1.505 1_655 S
C653 C52 1.586 . S
C675 C305 1.358 . S
C671 C9 1.385 . S
C693 C365 1.328 . S
C689 C29 1.377 . S
C707 C51 1.566 . S
C711 C257 1.512 . S
C729 C269 1.517 . S
C725 C75 1.550 . S
C747 C161 1.486 . S
C743 C27 1.557 . S
C761 C49 1.389 . S
C765 C197 1.354 . S
C783 C113 1.349 . S
C779 C72 1.382 . S
C801 C149 1.537 . S
C797 C6 1.575 . S
