# Generated by pormake.
# Topology ant, (3,6)-cn, num edge types: 1
# Building blocks:
#     Node 0, Type 0, BuildingBlock: KAKCAD_clean_linker_0, # of connection points: 3
#     Node 1, Type 0, BuildingBlock: KAKCAD_clean_linker_0, # of connection points: 3
#     Node 2, Type 0, BuildingBlock: KAKCAD_clean_linker_0, # of connection points: 3
#     Node 3, Type 0, BuildingBlock: KAKCAD_clean_linker_0, # of connection points: 3
#     Node 4, Type 0, BuildingBlock: KAKCAD_clean_linker_0, # of connection points: 3
#     Node 5, Type 0, BuildingBlock: KAKCAD_clean_linker_0, # of connection points: 3
#     Node 6, Type 0, BuildingBlock: KAKCAD_clean_linker_0, # of connection points: 3
#     Node 7, Type 0, BuildingBlock: KAKCAD_clean_linker_0, # of connection points: 3
#     Node 8, Type 1, BuildingBlock: MIDCAF_clean_sbu_0, # of connection points: 6
#     Node 9, Type 1, BuildingBlock: MIDCAF_clean_sbu_0, # of connection points: 6
#     Node 10, Type 1, BuildingBlock: MIDCAF_clean_sbu_0, # of connection points: 6
#     Node 11, Type 1, BuildingBlock: MIDCAF_clean_sbu_0, # of connection points: 6
#     Edge 12, Type (0, 1), BuildingBlock: UVAHIK_clean_linker_0, # of connection points: 2
#     Edge 13, Type (0, 1), BuildingBlock: UVAHIK_clean_linker_0, # of connection points: 2
#     Edge 14, Type (0, 1), BuildingBlock: UVAHIK_clean_linker_0, # of connection points: 2
#     Edge 15, Type (0, 1), BuildingBlock: UVAHIK_clean_linker_0, # of connection points: 2
#     Edge 16, Type (0, 1), BuildingBlock: UVAHIK_clean_linker_0, # of connection points: 2
#     Edge 17, Type (0, 1), BuildingBlock: UVAHIK_clean_linker_0, # of connection points: 2
#     Edge 18, Type (0, 1), BuildingBlock: UVAHIK_clean_linker_0, # of connection points: 2
#     Edge 19, Type (0, 1), BuildingBlock: UVAHIK_clean_linker_0, # of connection points: 2
#     Edge 20, Type (0, 1), BuildingBlock: UVAHIK_clean_linker_0, # of connection points: 2
#     Edge 21, Type (0, 1), BuildingBlock: UVAHIK_clean_linker_0, # of connection points: 2
#     Edge 22, Type (0, 1), BuildingBlock: UVAHIK_clean_linker_0, # of connection points: 2
#     Edge 23, Type (0, 1), BuildingBlock: UVAHIK_clean_linker_0, # of connection points: 2
#     Edge 24, Type (0, 1), BuildingBlock: UVAHIK_clean_linker_0, # of connection points: 2
#     Edge 25, Type (0, 1), BuildingBlock: UVAHIK_clean_linker_0, # of connection points: 2
#     Edge 26, Type (0, 1), BuildingBlock: UVAHIK_clean_linker_0, # of connection points: 2
#     Edge 27, Type (0, 1), BuildingBlock: UVAHIK_clean_linker_0, # of connection points: 2
#     Edge 28, Type (0, 1), BuildingBlock: UVAHIK_clean_linker_0, # of connection points: 2
#     Edge 29, Type (0, 1), BuildingBlock: UVAHIK_clean_linker_0, # of connection points: 2
#     Edge 30, Type (0, 1), BuildingBlock: UVAHIK_clean_linker_0, # of connection points: 2
#     Edge 31, Type (0, 1), BuildingBlock: UVAHIK_clean_linker_0, # of connection points: 2
#     Edge 32, Type (0, 1), BuildingBlock: UVAHIK_clean_linker_0, # of connection points: 2
#     Edge 33, Type (0, 1), BuildingBlock: UVAHIK_clean_linker_0, # of connection points: 2
#     Edge 34, Type (0, 1), BuildingBlock: UVAHIK_clean_linker_0, # of connection points: 2
#     Edge 35, Type (0, 1), BuildingBlock: UVAHIK_clean_linker_0, # of connection points: 2
# Relax obj value: 0.103
# Max RMSD: 0.159
# Mean RMSD: 0.105
data_MOF--net-ant--node1-MIDCAF_clean_sbu_0--node2-KAKCAD_clean_linker_0--edge1-UVAHIK_clean_linker_0
_symmetry_space_group_name_H-M    P1
_symmetry_Int_Tables_number       1
_symmetry_cell_setting            triclinic
loop_
_symmetry_equiv_pos_as_xyz
'x, y, z'
_cell_length_a     42.807838
_cell_length_b     42.524182
_cell_length_c     115.63374
_cell_angle_alpha  90.373896
_cell_angle_beta   93.63046
_cell_angle_gamma 90.034748
loop_
_atom_site_label
_atom_site_type_symbol
_atom_site_fract_x
_atom_site_fract_y
_atom_site_fract_z
_atom_type_partial_charge
C0 C 0.17995 0.19758 0.02626 0.0
C1 C 0.20098 0.21259 0.01923 0.0
C2 C 0.18367 0.20005 0.03829 0.0
C3 C 0.20829 0.21785 0.04358 0.0
C4 C 0.22912 0.23326 0.03663 0.0
C5 C 0.22564 0.23048 0.02456 0.0
C6 C 0.21189 0.22033 0.05636 0.0
C7 C 0.20992 0.19328 0.0631 0.0
C8 C 0.21076 0.19537 0.07521 0.0
C9 C 0.21423 0.22486 0.08064 0.0
C10 C 0.21554 0.25242 0.07398 0.0
C11 C 0.21486 0.24979 0.06182 0.0
C12 C 0.21408 0.28398 0.07954 0.0
C13 C 0.19457 0.28903 0.08872 0.0
C14 C 0.22998 0.3098 0.07513 0.0
C15 C 0.22545 0.3401 0.07946 0.0
C16 C 0.20525 0.34512 0.0884 0.0
C17 C 0.20498 0.16687 0.08199 0.0
C18 C 0.17862 0.14829 0.07893 0.0
C19 C 0.2258 0.15752 0.0912 0.0
C20 C 0.22084 0.12926 0.09697 0.0
C21 C 0.19468 0.11038 0.09374 0.0
C22 C 0.17347 0.12042 0.08476 0.0
C23 C 0.19035 0.31924 0.09313 0.0
H24 H 0.16026 0.18425 0.02248 0.0
H25 H 0.16696 0.1884 0.04347 0.0
H26 H 0.24838 0.247 0.04053 0.0
H27 H 0.24252 0.24202 0.01943 0.0
H28 H 0.20726 0.17046 0.05891 0.0
H29 H 0.21466 0.27075 0.05654 0.0
H30 H 0.2145 0.22637 0.09 0.0
H31 H 0.18142 0.2699 0.09219 0.0
H32 H 0.24556 0.30669 0.06818 0.0
H33 H 0.23753 0.35965 0.07577 0.0
H34 H 0.16211 0.1552 0.07192 0.0
H35 H 0.24628 0.17156 0.09368 0.0
H36 H 0.17438 0.3225 0.09994 0.0
H37 H 0.15336 0.10619 0.08197 0.0
H38 H 0.2375 0.12205 0.10389 0.0
C39 C 0.12201 0.76128 0.27711 0.0
C40 C 0.10854 0.78628 0.27066 0.0
C41 C 0.12514 0.76303 0.28923 0.0
C42 C 0.11421 0.78952 0.29505 0.0
C43 C 0.10115 0.81464 0.28859 0.0
C44 C 0.09862 0.81317 0.2765 0.0
C45 C 0.11429 0.79031 0.30784 0.0
C46 C 0.14225 0.78765 0.31476 0.0
C47 C 0.142 0.78977 0.3269 0.0
C48 C 0.11334 0.79361 0.33206 0.0
C49 C 0.085 0.79522 0.32523 0.0
C50 C 0.0859 0.79393 0.3131 0.0
C51 C 0.05425 0.79654 0.33059 0.0
C52 C 0.04875 0.77814 0.34031 0.0
C53 C 0.02936 0.81426 0.32547 0.0
C54 C -0.00065 0.81219 0.32953 0.0
C55 C 0.99347 0.79256 0.33889 0.0
C56 C 0.1717 0.78814 0.33418 0.0
C57 C 0.19262 0.76312 0.33288 0.0
C58 C 0.17937 0.81171 0.34246 0.0
C59 C 0.20762 0.81048 0.34921 0.0
C60 C 0.22839 0.7853 0.34798 0.0
C61 C 0.22057 0.76154 0.3398 0.0
C62 C 0.01877 0.77627 0.34444 0.0
H63 H 0.12998 0.74037 0.27278 0.0
H64 H 0.13513 0.74333 0.29407 0.0
H65 H 0.09257 0.83528 0.29292 0.0
H66 H 0.08804 0.83268 0.27172 0.0
H67 H 0.16424 0.78491 0.3107 0.0
H68 H 0.06432 0.79467 0.30767 0.0
H69 H 0.11316 0.79502 0.34142 0.0
H70 H 0.06728 0.76409 0.34446 0.0
H71 H 0.03286 0.82918 0.31811 0.0
H72 H 0.98054 0.82502 0.32499 0.0
H73 H 0.18717 0.74463 0.32658 0.0
H74 H 0.16369 0.83134 0.34357 0.0
H75 H 0.01532 0.76145 0.35183 0.0
H76 H 0.23633 0.74202 0.33863 0.0
H77 H 0.21314 0.82904 0.35547 0.0
C78 C 0.67448 0.70235 0.52407 0.0
C79 C 0.68632 0.72356 0.51615 0.0
C80 C 0.6859 0.7024 0.53565 0.0
C81 C 0.70943 0.72366 0.53958 0.0
C82 C 0.72228 0.74388 0.53156 0.0
C83 C 0.71083 0.74385 0.51997 0.0
C84 C 0.71827 0.72681 0.55216 0.0
C85 C 0.72148 0.70027 0.55928 0.0
C86 C 0.72644 0.70354 0.57136 0.0
C87 C 0.72878 0.73376 0.57633 0.0
C88 C 0.72537 0.76061 0.56931 0.0
C89 C 0.72037 0.75678 0.55726 0.0
C90 C 0.7236 0.79267 0.57441 0.0
C91 C 0.7061 0.79827 0.58411 0.0
C92 C 0.73643 0.81845 0.5688 0.0
C93 C 0.73022 0.84912 0.57231 0.0
C94 C 0.7115 0.8547 0.58163 0.0
C95 C 0.72616 0.67529 0.57877 0.0
C96 C 0.70164 0.65351 0.57709 0.0
C97 C 0.75005 0.66969 0.58742 0.0
C98 C 0.74977 0.64222 0.59406 0.0
C99 C 0.72523 0.62039 0.5923 0.0
C100 C 0.7011 0.62646 0.58381 0.0
C101 C 0.70025 0.82905 0.58773 0.0
H102 H 0.65537 0.68664 0.52144 0.0
H103 H 0.67519 0.68684 0.54164 0.0
H104 H 0.74075 0.76023 0.5343 0.0
H105 H 0.72085 0.76006 0.51403 0.0
H106 H 0.7196 0.67697 0.55543 0.0
H107 H 0.71602 0.77725 0.55186 0.0
H108 H 0.73203 0.73633 0.58566 0.0
H109 H 0.69557 0.779 0.58856 0.0
H110 H 0.75053 0.81492 0.56144 0.0
H111 H 0.73968 0.86856 0.56762 0.0
H112 H 0.68278 0.65742 0.57056 0.0
H113 H 0.7692 0.6862 0.58887 0.0
H114 H 0.68576 0.83283 0.59496 0.0
H115 H 0.68212 0.60985 0.58215 0.0
H116 H 0.76865 0.63802 0.60055 0.0
C117 C 0.63339 0.2543 0.77322 0.0
C118 C 0.6124 0.27398 0.76682 0.0
C119 C 0.63753 0.25741 0.78527 0.0
C120 C 0.6205 0.28005 0.79112 0.0
C121 C 0.60075 0.30072 0.78467 0.0
C122 C 0.59681 0.29779 0.77264 0.0
C123 C 0.62065 0.28006 0.80393 0.0
C124 C 0.64871 0.27952 0.81089 0.0
C125 C 0.64819 0.27901 0.82306 0.0
C126 C 0.61929 0.27823 0.82818 0.0
C127 C 0.5912 0.27867 0.82128 0.0
C128 C 0.59208 0.27972 0.8092 0.0
C129 C 0.56066 0.27766 0.82654 0.0
C130 C 0.55437 0.25466 0.83474 0.0
C131 C 0.53687 0.29853 0.82273 0.0
C132 C 0.50698 0.29575 0.82671 0.0
C133 C 0.50019 0.27198 0.83455 0.0
C134 C 0.67774 0.27993 0.83045 0.0
C135 C 0.70339 0.26148 0.82765 0.0
C136 C 0.68065 0.29973 0.84026 0.0
C137 C 0.70888 0.30153 0.84698 0.0
C138 C 0.7347 0.28347 0.84405 0.0
C139 C 0.73155 0.26321 0.83438 0.0
C140 C 0.52428 0.25172 0.83867 0.0
H141 H 0.64604 0.23601 0.76894 0.0
H142 H 0.65283 0.24114 0.79006 0.0
H143 H 0.58755 0.31855 0.78899 0.0
H144 H 0.58042 0.31323 0.76796 0.0
H145 H 0.67084 0.28033 0.80684 0.0
H146 H 0.57035 0.27929 0.80385 0.0
H147 H 0.6186 0.2774 0.83753 0.0
H148 H 0.57236 0.23822 0.83776 0.0
H149 H 0.54125 0.31663 0.81648 0.0
H150 H 0.48886 0.31152 0.82328 0.0
H151 H 0.70173 0.24579 0.82022 0.0
H152 H 0.66133 0.31442 0.84257 0.0
H153 H 0.51974 0.23337 0.8448 0.0
H154 H 0.75118 0.24934 0.83179 0.0
H155 H 0.71061 0.31725 0.8544 0.0
C156 C 0.04984 0.75131 0.97653 0.0
C157 C 0.07332 0.73028 0.98057 0.0
C158 C 0.03896 0.7511 0.96488 0.0
C159 C 0.05134 0.7299 0.95699 0.0
C160 C 0.07404 0.70813 0.9611 0.0
C161 C 0.08491 0.70833 0.97276 0.0
C162 C 0.04204 0.73187 0.94441 0.0
C163 C 0.0398 0.76134 0.93905 0.0
C164 C 0.03224 0.76407 0.92709 0.0
C165 C 0.02669 0.73653 0.92044 0.0
C166 C 0.02937 0.70678 0.92566 0.0
C167 C 0.03698 0.70466 0.93763 0.0
C168 C 0.02581 0.67764 0.91862 0.0
C169 C 0.99817 0.67143 0.91178 0.0
C170 C 0.04999 0.65532 0.91904 0.0
C171 C 0.04658 0.62717 0.91282 0.0
C172 C 0.01869 0.62051 0.9062 0.0
C173 C 0.03247 0.79576 0.92166 0.0
C174 C 0.02157 0.82209 0.92764 0.0
C175 C 0.04632 0.80053 0.91108 0.0
C176 C 0.05061 0.83102 0.90693 0.0
C177 C 0.0415 0.85722 0.91336 0.0
C178 C 0.02635 0.85246 0.92361 0.0
C179 C 0.99447 0.64286 0.90572 0.0
H180 H 0.03997 0.76808 0.98237 0.0
H181 H 0.02106 0.76781 0.96202 0.0
H182 H 0.0843 0.69174 0.95523 0.0
H183 H 0.10323 0.69201 0.97557 0.0
H184 H 0.04546 0.78224 0.94417 0.0
H185 H 0.03881 0.68173 0.94166 0.0
H186 H 0.02102 0.73812 0.91119 0.0
H187 H 0.97918 0.68829 0.91137 0.0
H188 H 0.07156 0.65966 0.92423 0.0
H189 H 0.06548 0.61021 0.91341 0.0
H190 H 0.0101 0.8193 0.93566 0.0
H191 H 0.05521 0.78086 0.90629 0.0
H192 H 0.97277 0.63821 0.90067 0.0
H193 H 0.01862 0.87232 0.9286 0.0
H194 H 0.06232 0.83419 0.89899 0.0
C195 C 0.64448 0.81457 0.22427 0.0
C196 C 0.63043 0.7913 0.23077 0.0
C197 C 0.64247 0.81312 0.21219 0.0
C198 C 0.62602 0.78861 0.20632 0.0
C199 C 0.61126 0.7657 0.21277 0.0
C200 C 0.61372 0.76686 0.22491 0.0
C201 C 0.62561 0.78661 0.1935 0.0
C202 C 0.65391 0.7883 0.18805 0.0
C203 C 0.65443 0.78825 0.17591 0.0
C204 C 0.62588 0.78672 0.16921 0.0
C205 C 0.59729 0.78466 0.17454 0.0
C206 C 0.59735 0.78413 0.1867 0.0
C207 C 0.56731 0.7841 0.16738 0.0
C208 C 0.56069 0.80748 0.15905 0.0
C209 C 0.54505 0.76043 0.16888 0.0
C210 C 0.51681 0.75999 0.16209 0.0
C211 C 0.51005 0.7836 0.15386 0.0
C212 C 0.68496 0.78915 0.1704 0.0
C213 C 0.70971 0.80779 0.17521 0.0
C214 C 0.69029 0.76997 0.16078 0.0
C215 C 0.72004 0.76838 0.15642 0.0
C216 C 0.74522 0.78583 0.16162 0.0
C217 C 0.73945 0.80605 0.17092 0.0
C218 C 0.53218 0.80743 0.15244 0.0
H219 H 0.65766 0.83355 0.22856 0.0
H220 H 0.65392 0.83116 0.2074 0.0
H221 H 0.59854 0.74651 0.20843 0.0
H222 H 0.60251 0.74872 0.22972 0.0
H223 H 0.6757 0.78908 0.19336 0.0
H224 H 0.57538 0.78312 0.19086 0.0
H225 H 0.62581 0.78718 0.15984 0.0
H226 H 0.5774 0.8261 0.15779 0.0
H227 H 0.54966 0.74212 0.17523 0.0
H228 H 0.5 0.74149 0.16339 0.0
H229 H 0.7063 0.82331 0.18248 0.0
H230 H 0.67181 0.75525 0.15687 0.0
H231 H 0.52751 0.82583 0.14613 0.0
H232 H 0.75817 0.81971 0.17521 0.0
H233 H 0.72343 0.753 0.14911 0.0
C234 C 0.54712 0.22387 0.47175 0.0
C235 C 0.56969 0.20293 0.47663 0.0
C236 C 0.54349 0.22789 0.45974 0.0
C237 C 0.56218 0.21091 0.45234 0.0
C238 C 0.58491 0.19024 0.45721 0.0
C239 C 0.58866 0.18634 0.4692 0.0
C240 C 0.55789 0.21438 0.43956 0.0
C241 C 0.5551 0.2443 0.43449 0.0
C242 C 0.5526 0.24769 0.42235 0.0
C243 C 0.55194 0.22049 0.41531 0.0
C244 C 0.5552 0.19063 0.42029 0.0
C245 C 0.55806 0.18771 0.43236 0.0
C246 C 0.5588 0.1625 0.41297 0.0
C247 C 0.53359 0.15045 0.40594 0.0
C248 C 0.58761 0.14677 0.41344 0.0
C249 C 0.59114 0.1191 0.40713 0.0
C250 C 0.56577 0.10633 0.40037 0.0
C251 C 0.55355 0.27955 0.41707 0.0
C252 C 0.53884 0.30539 0.4221 0.0
C253 C 0.57088 0.2847 0.40731 0.0
C254 C 0.57391 0.31489 0.40284 0.0
C255 C 0.56 0.34077 0.40808 0.0
C256 C 0.54218 0.33569 0.41769 0.0
C257 C 0.53695 0.12229 0.39977 0.0
H258 H 0.53183 0.23675 0.47719 0.0
H259 H 0.5256 0.2438 0.45622 0.0
H260 H 0.60009 0.17726 0.45175 0.0
H261 H 0.6067 0.17053 0.47265 0.0
H262 H 0.55659 0.26496 0.44003 0.0
H263 H 0.56058 0.1645 0.43613 0.0
H264 H 0.55002 0.22246 0.40596 0.0
H265 H 0.51115 0.1623 0.40551 0.0
H266 H 0.6073 0.15575 0.41883 0.0
H267 H 0.61347 0.10705 0.40788 0.0
H268 H 0.52492 0.30227 0.42951 0.0
H269 H 0.58311 0.26559 0.40333 0.0
H270 H 0.51704 0.11283 0.39463 0.0
H271 H 0.53087 0.35519 0.42182 0.0
H272 H 0.58812 0.31813 0.39551 0.0
C273 C 0.15577 0.2967 0.72561 0.0
C274 C 0.14185 0.27181 0.73133 0.0
C275 C 0.15099 0.29988 0.71363 0.0
C276 C 0.13204 0.27838 0.70712 0.0
C277 C 0.11665 0.25453 0.71288 0.0
C278 C 0.12165 0.25116 0.72489 0.0
C279 C 0.13135 0.27895 0.6943 0.0
C280 C 0.15974 0.27986 0.68891 0.0
C281 C 0.16028 0.28006 0.67682 0.0
C282 C 0.13202 0.27978 0.67003 0.0
C283 C 0.10328 0.27932 0.67527 0.0
C284 C 0.10307 0.27829 0.68744 0.0
C285 C 0.07362 0.28088 0.66798 0.0
C286 C 0.06984 0.30336 0.65914 0.0
C287 C 0.04898 0.26007 0.6698 0.0
C288 C 0.02108 0.26168 0.66288 0.0
C289 C 0.01717 0.2844 0.65412 0.0
C290 C 0.19066 0.28037 0.67145 0.0
C291 C 0.21368 0.30227 0.67524 0.0
C292 C 0.1977 0.25752 0.66319 0.0
C293 C 0.22782 0.25574 0.65918 0.0
C294 C 0.25113 0.2771 0.66326 0.0
C295 C 0.24356 0.30074 0.67114 0.0
C296 C 0.04179 0.30524 0.65232 0.0
H297 H 0.17154 0.31289 0.73031 0.0
H298 H 0.16296 0.31859 0.70938 0.0
H299 H 0.102 0.23761 0.70804 0.0
H300 H 0.11028 0.232 0.7291 0.0
H301 H 0.18164 0.27961 0.69417 0.0
H302 H 0.08103 0.27806 0.69157 0.0
H303 H 0.13241 0.28015 0.66066 0.0
H304 H 0.08842 0.31986 0.65764 0.0
H305 H 0.05137 0.24244 0.67651 0.0
H306 H 0.00228 0.24559 0.66454 0.0
H307 H 0.20869 0.3202 0.68156 0.0
H308 H 0.1803 0.24031 0.66019 0.0
H309 H 0.03936 0.32294 0.64563 0.0
H310 H 0.26112 0.31735 0.67451 0.0
H311 H 0.23301 0.23744 0.65304 0.0
Zn312 Zn 0.16821 0.71048 0.14018 0.0
Zn313 Zn 0.08936 0.72928 0.11168 0.0
Zn314 Zn 0.12936 0.72723 0.12533 0.0
C315 C 0.14017 0.72084 0.0997 0.0
C316 C 0.12028 0.78824 0.11298 0.0
O317 O 0.11131 0.74746 0.14102 0.0
O318 O 0.14979 0.73292 0.15344 0.0
C319 C 0.14209 0.65685 0.12811 0.0
O320 O 0.1493 0.73826 0.10844 0.0
O321 O 0.11468 0.70592 0.10012 0.0
O322 O 0.09213 0.77874 0.11208 0.0
O323 O 0.14196 0.76774 0.11528 0.0
O324 O 0.15958 0.66431 0.13695 0.0
O325 O 0.12835 0.67824 0.12206 0.0
O326 O 0.17077 0.75227 0.11949 0.0
O327 O 0.20389 0.7315 0.13281 0.0
C328 C 0.19878 0.74906 0.12412 0.0
O329 O 0.08455 0.74124 0.13263 0.0
O330 O 0.05728 0.70891 0.12105 0.0
C331 C 0.12428 0.74732 0.15133 0.0
C332 C 0.05888 0.7263 0.12998 0.0
Zn333 Zn 0.57449 0.70924 0.35829 0.0
Zn334 Zn 0.64721 0.72038 0.38885 0.0
Zn335 Zn 0.61001 0.72561 0.37421 0.0
C336 C 0.63932 0.78445 0.38186 0.0
C337 C 0.68032 0.72474 0.37006 0.0
O338 O 0.61924 0.67658 0.37446 0.0
O339 O 0.5834 0.66284 0.36095 0.0
C340 C 0.54052 0.74306 0.37512 0.0
O341 O 0.63576 0.76914 0.37219 0.0
O342 O 0.64282 0.76874 0.39114 0.0
O343 O 0.6804 0.7051 0.37827 0.0
O344 O 0.65563 0.7416 0.36794 0.0
O345 O 0.53753 0.73002 0.36524 0.0
O346 O 0.56716 0.74351 0.3808 0.0
O347 O 0.62756 0.75495 0.36027 0.0
O348 O 0.59674 0.73313 0.34633 0.0
C349 C 0.61811 0.75249 0.34948 0.0
O350 O 0.59002 0.73377 0.39098 0.0
O351 O 0.61814 0.6942 0.39792 0.0
C352 C 0.60453 0.65522 0.36858 0.0
C353 C 0.59603 0.71357 0.39906 0.0
Zn354 Zn 0.59435 0.27442 0.6084 0.0
Zn355 Zn 0.66333 0.21259 0.63824 0.0
Zn356 Zn 0.63077 0.24017 0.62222 0.0
C357 C 0.69867 0.26354 0.63299 0.0
C358 C 0.65722 0.17043 0.61943 0.0
O359 O 0.58601 0.25139 0.63012 0.0
O360 O 0.5604 0.28513 0.61854 0.0
C361 C 0.65027 0.30656 0.61071 0.0
O362 O 0.67573 0.26584 0.62527 0.0
O363 O 0.69831 0.24258 0.64065 0.0
O364 O 0.6707 0.17443 0.62934 0.0
O365 O 0.64013 0.19261 0.61483 0.0
O366 O 0.62455 0.30751 0.60476 0.0
O367 O 0.65613 0.28378 0.61782 0.0
O368 O 0.62183 0.2109 0.60645 0.0
O369 O 0.58647 0.24051 0.59687 0.0
C370 C 0.60258 0.21567 0.5976 0.0
O371 O 0.60553 0.23692 0.63866 0.0
O372 O 0.63514 0.20789 0.65074 0.0
C373 C 0.56209 0.2692 0.62772 0.0
C374 C 0.61034 0.22317 0.64853 0.0
Zn375 Zn 0.08712 0.21619 0.85738 0.0
Zn376 Zn 0.16415 0.29922 0.88905 0.0
Zn377 Zn 0.11934 0.24431 0.87395 0.0
C378 C 0.14053 0.23179 0.89695 0.0
C379 C 0.10164 0.3189 0.88147 0.0
O380 O 0.14722 0.24026 0.85851 0.0
O381 O 0.11842 0.21207 0.84576 0.0
C382 C 0.09077 0.17458 0.8763 0.0
O383 O 0.12476 0.21536 0.88941 0.0
O384 O 0.14974 0.25816 0.89383 0.0
O385 O 0.1285 0.32747 0.88553 0.0
O386 O 0.09593 0.29052 0.87774 0.0
O387 O 0.07811 0.17819 0.86623 0.0
O388 O 0.10803 0.19669 0.88102 0.0
O389 O 0.07582 0.27054 0.87059 0.0
O390 O 0.0534 0.24788 0.85492 0.0
C391 C 0.05336 0.26886 0.86268 0.0
O392 O 0.16648 0.25543 0.86768 0.0
O393 O 0.19404 0.294 0.8769 0.0
C394 C 0.14346 0.22657 0.84856 0.0
C395 C 0.19115 0.27307 0.86905 0.0
C396 C 0.19071 0.40119 0.08441 0.0
C397 C 0.19847 0.37734 0.09244 0.0
C398 C 0.18244 0.43113 0.08821 0.0
C399 C 0.19152 0.48439 0.11315 0.0
H400 H 0.11748 0.52573 0.09945 0.0
C401 C 0.14931 0.59979 0.13219 0.0
C402 C 0.14058 0.62367 0.12431 0.0
C403 C 0.15293 0.56895 0.12835 0.0
C404 C 0.13837 0.51462 0.10329 0.0
H405 H 0.20429 0.36615 0.1107 0.0
H406 H 0.19013 0.41859 0.11737 0.0
H407 H 0.1322 0.47378 0.09241 0.0
H408 H 0.12724 0.63382 0.10632 0.0
H409 H 0.13425 0.57994 0.09953 0.0
H410 H 0.1983 0.5252 0.12385 0.0
C411 C 0.19036 0.4141 0.10814 0.0
C412 C 0.14677 0.48491 0.09926 0.0
C413 C 0.19829 0.3841 0.10434 0.0
C414 C 0.13387 0.61582 0.11259 0.0
C415 C 0.13786 0.58494 0.10872 0.0
C416 C 0.1833 0.5141 0.11712 0.0
C417 C 0.18213 0.43783 0.10012 0.0
C418 C 0.17336 0.46949 0.1042 0.0
C419 C 0.14834 0.56136 0.11651 0.0
C420 C 0.15653 0.52952 0.11229 0.0
H421 H 0.19035 0.39649 0.07518 0.0
H422 H 0.17646 0.44909 0.08185 0.0
H423 H 0.21241 0.47325 0.11699 0.0
H424 H 0.15426 0.6051 0.14129 0.0
H425 H 0.16016 0.55119 0.13463 0.0
C426 C 0.9388 0.81215 0.34191 0.0
C427 C 0.96083 0.78752 0.34235 0.0
C428 C 0.90772 0.80667 0.34449 0.0
C429 C 0.85862 0.75214 0.35999 0.0
H430 H 0.79018 0.78209 0.33937 0.0
C431 C 0.73404 0.70883 0.36524 0.0
C432 C 0.70974 0.73101 0.36441 0.0
C433 C 0.76364 0.71623 0.36163 0.0
C434 C 0.80898 0.77386 0.34529 0.0
H435 H 0.967 0.73769 0.34577 0.0
H436 H 0.91328 0.72846 0.35053 0.0
H437 H 0.84421 0.79529 0.33551 0.0
H438 H 0.69689 0.77781 0.35852 0.0
H439 H 0.74894 0.79109 0.3524 0.0
H440 H 0.82383 0.7311 0.36988 0.0
C441 C 0.92011 0.75205 0.34826 0.0
C442 C 0.83992 0.78143 0.34307 0.0
C443 C 0.95102 0.75743 0.34559 0.0
C444 C 0.71518 0.76022 0.35927 0.0
C445 C 0.74503 0.7678 0.35575 0.0
C446 C 0.82782 0.74479 0.36225 0.0
C447 C 0.89805 0.77653 0.34768 0.0
C448 C 0.86508 0.77028 0.35033 0.0
C449 C 0.76988 0.7462 0.35723 0.0
C450 C 0.80257 0.7551 0.35484 0.0
H451 H 0.94554 0.83573 0.33961 0.0
H452 H 0.89132 0.82608 0.3441 0.0
H453 H 0.87745 0.7437 0.36586 0.0
H454 H 0.73045 0.68594 0.369 0.0
H455 H 0.78188 0.69862 0.36255 0.0
C456 C 0.6972 0.57984 0.60324 0.0
C457 C 0.72501 0.59037 0.59873 0.0
C458 C 0.69464 0.54898 0.60707 0.0
C459 C 0.73627 0.47431 0.6139 0.0
H460 H 0.66166 0.43798 0.59838 0.0
C461 C 0.6855 0.34757 0.62011 0.0
C462 C 0.67179 0.33342 0.61001 0.0
C463 C 0.69869 0.3777 0.61965 0.0
C464 C 0.68272 0.44768 0.60272 0.0
H465 H 0.77282 0.57785 0.59563 0.0
H466 H 0.76825 0.52353 0.60225 0.0
H467 H 0.67062 0.49411 0.59726 0.0
H468 H 0.66384 0.33786 0.59142 0.0
H469 H 0.68728 0.38996 0.59056 0.0
H470 H 0.74818 0.42719 0.61927 0.0
C471 C 0.74851 0.53924 0.60287 0.0
C472 C 0.68763 0.47996 0.60222 0.0
C473 C 0.75112 0.57029 0.59907 0.0
C474 C 0.67405 0.34843 0.59934 0.0
C475 C 0.68733 0.37826 0.59886 0.0
C476 C 0.73114 0.44176 0.61451 0.0
C477 C 0.71978 0.52793 0.60641 0.0
C478 C 0.71445 0.4937 0.60776 0.0
C479 C 0.69823 0.39388 0.60907 0.0
C480 C 0.70447 0.42815 0.60876 0.0
H481 H 0.6769 0.59504 0.60326 0.0
H482 H 0.67241 0.54109 0.60999 0.0
H483 H 0.75716 0.48433 0.61825 0.0
H484 H 0.68369 0.33659 0.62847 0.0
H485 H 0.70693 0.38923 0.62765 0.0
C486 C 0.77747 0.31729 0.85325 0.0
C487 C 0.76554 0.28715 0.85047 0.0
C488 C 0.80872 0.32111 0.8573 0.0
C489 C 0.88133 0.28404 0.85205 0.0
H490 H 0.92028 0.33614 0.8766 0.0
C491 C 0.01075 0.30058 0.85317 0.0
C492 C 0.02535 0.28839 0.86335 0.0
C493 C 0.97968 0.31039 0.85299 0.0
C494 C 0.90955 0.32177 0.86967 0.0
H495 H 0.77584 0.23725 0.85094 0.0
H496 H 0.83051 0.24398 0.85783 0.0
H497 H 0.86286 0.33009 0.87488 0.0
H498 H 0.02036 0.27923 0.88153 0.0
H499 H 0.96573 0.29612 0.8812 0.0
H500 H 0.92732 0.2754 0.84678 0.0
C501 C 0.81579 0.26461 0.85674 0.0
C502 C 0.87691 0.31825 0.86872 0.0
C503 C 0.78463 0.26078 0.85275 0.0
C504 C 0.00959 0.28904 0.87363 0.0
C505 C 0.97835 0.29868 0.87343 0.0
C506 C 0.91359 0.2879 0.85289 0.0
C507 C 0.82842 0.29485 0.85857 0.0
C508 C 0.86268 0.29897 0.85997 0.0
C509 C 0.96265 0.30751 0.86293 0.0
C510 C 0.92809 0.30668 0.8617 0.0
H511 H 0.76334 0.33807 0.85156 0.0
H512 H 0.81801 0.34465 0.85861 0.0
H513 H 0.8709 0.26944 0.84512 0.0
H514 H 0.02261 0.30028 0.84517 0.0
H515 H 0.96815 0.31757 0.84482 0.0
C516 C 0.98969 0.56986 0.90249 0.0
C517 C 0.01485 0.58968 0.90025 0.0
C518 C 0.98854 0.53902 0.89816 0.0
C519 C 0.0197 0.48528 0.87662 0.0
H520 H 0.02121 0.42278 0.9009 0.0
C521 C 0.08555 0.36993 0.87316 0.0
C522 C 0.07813 0.34386 0.8798 0.0
C523 C 0.06802 0.39745 0.87355 0.0
C524 C 0.01991 0.43957 0.8939 0.0
H525 H 0.05747 0.59364 0.89123 0.0
H526 H 0.0551 0.54004 0.88344 0.0
H527 H 0.00816 0.477 0.90533 0.0
H528 H 0.04615 0.32541 0.8918 0.0
H529 H 0.01408 0.37316 0.89208 0.0
H530 H 0.03176 0.44816 0.86519 0.0
C531 C 0.0364 0.5482 0.88859 0.0
C532 C 0.01256 0.47077 0.89648 0.0
C533 C 0.03788 0.57876 0.89309 0.0
C534 C 0.05175 0.34502 0.88637 0.0
C535 C 0.03381 0.37258 0.88667 0.0
C536 C 0.02646 0.45399 0.87398 0.0
C537 C 0.01216 0.52778 0.89132 0.0
C538 C 0.01362 0.49411 0.88798 0.0
C539 C 0.04248 0.3996 0.88061 0.0
C540 C 0.0281 0.43095 0.8827 0.0
H541 H 0.97176 0.57772 0.90805 0.0
H542 H 0.96961 0.52372 0.90038 0.0
H543 H 0.02027 0.5028 0.86988 0.0
H544 H 0.10618 0.36966 0.86819 0.0
H545 H 0.07601 0.41768 0.86893 0.0
C546 C 0.78835 0.75149 0.15483 0.0
C547 C 0.77771 0.78153 0.1579 0.0
C548 C 0.81937 0.74685 0.15213 0.0
C549 C 0.89851 0.77921 0.15725 0.0
H550 H 0.9169 0.72683 0.131 0.0
C551 C 0.02404 0.76082 0.14126 0.0
C552 C 0.03025 0.73151 0.13623 0.0
C553 C 0.99409 0.76755 0.14489 0.0
C554 C 0.91227 0.74111 0.13849 0.0
H555 H 0.79148 0.83045 0.16014 0.0
H556 H 0.84587 0.82211 0.15561 0.0
H557 H 0.86277 0.73809 0.13472 0.0
H558 H 0.01119 0.68531 0.13207 0.0
H559 H 0.95967 0.69646 0.1388 0.0
H560 H 0.94814 0.78183 0.16111 0.0
C561 C 0.83008 0.80217 0.15541 0.0
C562 C 0.88118 0.7477 0.14056 0.0
C563 C 0.79892 0.80689 0.15801 0.0
C564 C 0.00689 0.70828 0.13576 0.0
C565 C 0.97726 0.71481 0.13951 0.0
C566 C 0.92974 0.77241 0.15522 0.0
C567 C 0.84068 0.77204 0.15251 0.0
C568 C 0.8739 0.76657 0.15002 0.0
C569 C 0.97001 0.74493 0.14365 0.0
C570 C 0.93699 0.75294 0.14588 0.0
H571 H 0.77299 0.73126 0.15486 0.0
H572 H 0.82692 0.72329 0.15005 0.0
H573 H 0.89358 0.79367 0.16467 0.0
H574 H 0.04165 0.77917 0.1417 0.0
H575 H 0.98939 0.79097 0.14807 0.0
C576 C 0.56282 0.37921 0.39182 0.0
C577 C 0.5652 0.37301 0.40376 0.0
C578 C 0.56921 0.40923 0.38772 0.0
C579 C 0.61273 0.48152 0.39532 0.0
H580 H 0.55556 0.52009 0.37227 0.0
C581 C 0.61936 0.61299 0.38286 0.0
C582 C 0.6088 0.62171 0.37158 0.0
C583 C 0.61742 0.58167 0.38637 0.0
C584 C 0.57218 0.5095 0.37853 0.0
H585 H 0.5762 0.39334 0.42077 0.0
H586 H 0.58742 0.44588 0.41359 0.0
H587 H 0.54444 0.46774 0.37929 0.0
H588 H 0.59044 0.6042 0.35487 0.0
H589 H 0.58838 0.54946 0.36081 0.0
H590 H 0.64069 0.52311 0.39448 0.0
C591 C 0.58065 0.42746 0.40742 0.0
C592 C 0.56563 0.47953 0.3826 0.0
C593 C 0.5739 0.39751 0.41153 0.0
C594 C 0.59843 0.59821 0.36366 0.0
C595 C 0.59694 0.56688 0.36711 0.0
C596 C 0.61948 0.51143 0.39115 0.0
C597 C 0.57846 0.43358 0.39547 0.0
C598 C 0.58573 0.46529 0.39108 0.0
C599 C 0.60528 0.55835 0.37863 0.0
C600 C 0.59921 0.52588 0.38273 0.0
H601 H 0.556 0.36082 0.38564 0.0
H602 H 0.56746 0.41325 0.37846 0.0
H603 H 0.62883 0.47092 0.40176 0.0
H604 H 0.62731 0.63062 0.38918 0.0
H605 H 0.62389 0.57611 0.39533 0.0
C606 C 0.97191 0.31639 0.64602 0.0
C607 C 0.98688 0.2871 0.64728 0.0
C608 C 0.94131 0.31829 0.64108 0.0
C609 C 0.87209 0.26883 0.63936 0.0
H610 H 0.8328 0.33785 0.62211 0.0
C611 C 0.74069 0.2869 0.62171 0.0
C612 C 0.72733 0.28238 0.63237 0.0
C613 C 0.77244 0.29485 0.62148 0.0
C614 C 0.84364 0.31844 0.62687 0.0
H615 H 0.98294 0.23732 0.64339 0.0
H616 H 0.92965 0.2406 0.63464 0.0
H617 H 0.89037 0.33432 0.62429 0.0
H618 H 0.73492 0.28673 0.651 0.0
H619 H 0.78998 0.30094 0.65059 0.0
H620 H 0.82581 0.25332 0.64221 0.0
C621 C 0.94121 0.26201 0.63771 0.0
C622 C 0.87641 0.31641 0.62814 0.0
C623 C 0.97165 0.26009 0.64273 0.0
C624 C 0.74484 0.28977 0.64269 0.0
C625 C 0.77628 0.29788 0.64246 0.0
C626 C 0.83967 0.27103 0.63818 0.0
C627 C 0.92524 0.29093 0.63728 0.0
C628 C 0.89091 0.29174 0.63454 0.0
C629 C 0.79076 0.29849 0.63191 0.0
C630 C 0.82516 0.29613 0.63216 0.0
H631 H 0.98315 0.33758 0.64948 0.0
H632 H 0.92959 0.34086 0.64096 0.0
H633 H 0.88236 0.24982 0.64449 0.0
H634 H 0.72759 0.28124 0.61364 0.0
H635 H 0.78323 0.29521 0.61326 0.0
C636 C 0.30095 0.30061 0.65709 0.0
C637 C 0.28381 0.2739 0.65992 0.0
C638 C 0.33268 0.29818 0.65513 0.0
C639 C 0.39436 0.24195 0.64811 0.0
H640 H 0.44924 0.30899 0.65997 0.0
C641 C 0.52577 0.24178 0.64039 0.0
C642 C 0.5354 0.26954 0.63515 0.0
C643 C 0.49741 0.24085 0.64575 0.0
C644 C 0.4342 0.29006 0.65665 0.0
H645 H 0.2862 0.22357 0.6627 0.0
H646 H 0.3418 0.21928 0.65931 0.0
H647 H 0.39404 0.30967 0.66408 0.0
H648 H 0.52405 0.31843 0.63189 0.0
H649 H 0.47466 0.31693 0.64128 0.0
H650 H 0.43451 0.22265 0.64052 0.0
C651 C 0.33063 0.24208 0.6585 0.0
C652 C 0.40257 0.29053 0.65893 0.0
C653 C 0.29879 0.2445 0.6604 0.0
C654 C 0.51712 0.29676 0.63589 0.0
C655 C 0.48897 0.29593 0.64132 0.0
C656 C 0.42606 0.2414 0.64588 0.0
C657 C 0.34804 0.269 0.65603 0.0
C658 C 0.38213 0.26691 0.65444 0.0
C659 C 0.47835 0.26772 0.64599 0.0
C660 C 0.44612 0.26584 0.6499 0.0
H661 H 0.28985 0.32348 0.6565 0.0
H662 H 0.34521 0.31924 0.65294 0.0
H663 H 0.37922 0.22351 0.64446 0.0
H664 H 0.53921 0.22034 0.63977 0.0
H665 H 0.48985 0.21886 0.64935 0.0
C666 C 0.46974 0.75674 0.14062 0.0
C667 C 0.47977 0.7836 0.14691 0.0
C668 C 0.44065 0.75634 0.13439 0.0
C669 C 0.37282 0.80788 0.12435 0.0
H670 H 0.32749 0.72913 0.12519 0.0
C671 C 0.23879 0.79103 0.12449 0.0
C672 C 0.226 0.76369 0.11925 0.0
C673 C 0.27059 0.79796 0.12379 0.0
C674 C 0.33999 0.75117 0.12464 0.0
H675 H 0.46762 0.8312 0.15157 0.0
H676 H 0.41619 0.83014 0.14124 0.0
H677 H 0.38159 0.73128 0.13256 0.0
H678 H 0.23515 0.72372 0.10833 0.0
H679 H 0.2907 0.73581 0.10704 0.0
H680 H 0.32982 0.82801 0.11719 0.0
C681 C 0.43103 0.80966 0.1407 0.0
C682 C 0.37122 0.75245 0.12887 0.0
C683 C 0.46043 0.81025 0.14672 0.0
C684 C 0.24449 0.7452 0.11229 0.0
C685 C 0.2763 0.75194 0.11166 0.0
C686 C 0.34125 0.80669 0.1203 0.0
C687 C 0.42052 0.78256 0.13454 0.0
C688 C 0.38805 0.7809 0.12896 0.0
C689 C 0.29002 0.77729 0.11799 0.0
C690 C 0.32444 0.77836 0.12054 0.0
H691 H 0.48446 0.73604 0.14051 0.0
H692 H 0.43391 0.73529 0.12954 0.0
H693 H 0.38506 0.83011 0.12403 0.0
H694 H 0.225 0.80526 0.13007 0.0
H695 H 0.28052 0.81757 0.1288 0.0
C696 C 0.44899 0.29371 0.84011 0.0
C697 C 0.46758 0.26751 0.83779 0.0
C698 C 0.41723 0.29003 0.84172 0.0
C699 C 0.35749 0.23418 0.84956 0.0
H700 H 0.30143 0.2946 0.83416 0.0
C701 C 0.22652 0.23855 0.85817 0.0
C702 C 0.21737 0.26875 0.86158 0.0
C703 C 0.25444 0.2344 0.85268 0.0
C704 C 0.31676 0.27745 0.83846 0.0
H705 H 0.46778 0.21675 0.83578 0.0
H706 H 0.41207 0.2103 0.8388 0.0
H707 H 0.35686 0.29494 0.83043 0.0
H708 H 0.229 0.31832 0.86147 0.0
H709 H 0.27755 0.31119 0.85198 0.0
H710 H 0.31757 0.21756 0.85797 0.0
C711 C 0.42219 0.23365 0.83931 0.0
C712 C 0.34847 0.27774 0.83637 0.0
C713 C 0.45406 0.23735 0.83765 0.0
C714 C 0.23559 0.2948 0.85892 0.0
C715 C 0.26325 0.29071 0.85339 0.0
C716 C 0.32571 0.23395 0.85169 0.0
C717 C 0.40338 0.26007 0.84109 0.0
C718 C 0.3693 0.25682 0.8422 0.0
C719 C 0.27342 0.26042 0.8505 0.0
C720 C 0.30527 0.25631 0.84645 0.0
H721 H 0.45891 0.31716 0.84048 0.0
H722 H 0.40342 0.31072 0.84339 0.0
H723 H 0.37307 0.21779 0.85416 0.0
H724 H 0.21295 0.21808 0.86026 0.0
H725 H 0.26167 0.21082 0.85049 0.0
C726 C 0.27915 0.80965 0.35534 0.0
C727 C 0.25845 0.78401 0.35505 0.0
C728 C 0.30849 0.80764 0.36134 0.0
C729 C 0.36556 0.74762 0.37248 0.0
H730 H 0.41097 0.82116 0.38435 0.0
C731 C 0.49442 0.73674 0.38678 0.0
C732 C 0.51233 0.75595 0.37994 0.0
C733 C 0.46272 0.74337 0.38788 0.0
C734 C 0.39842 0.80038 0.38119 0.0
H735 H 0.25129 0.73686 0.36129 0.0
H736 H 0.30185 0.73365 0.37219 0.0
H737 H 0.35547 0.82563 0.37817 0.0
H738 H 0.51243 0.79824 0.36967 0.0
H739 H 0.4573 0.81037 0.37181 0.0
H740 H 0.40853 0.72252 0.37536 0.0
C741 C 0.29613 0.75497 0.36745 0.0
C742 C 0.3667 0.80294 0.37753 0.0
C743 C 0.26706 0.75679 0.36125 0.0
C744 C 0.49908 0.78346 0.37516 0.0
C745 C 0.46752 0.79032 0.37637 0.0
C746 C 0.39702 0.74499 0.3763 0.0
C747 C 0.3176 0.7801 0.36737 0.0
C748 C 0.35006 0.77677 0.37278 0.0
C749 C 0.44862 0.76937 0.38219 0.0
C750 C 0.41404 0.77148 0.3804 0.0
H751 H 0.2731 0.83084 0.35056 0.0
H752 H 0.32441 0.8273 0.36086 0.0
H753 H 0.35397 0.72701 0.36871 0.0
H754 H 0.50415 0.71514 0.39038 0.0
H755 H 0.44873 0.72696 0.39248 0.0
C756 C 0.69057 0.90768 0.57603 0.0
C757 C 0.70293 0.88725 0.58467 0.0
C758 C 0.68341 0.93881 0.57876 0.0
C759 C 0.70908 0.00111 0.59812 0.0
H760 H 0.62774 0.03999 0.5921 0.0
C761 C 0.68056 0.11691 0.61959 0.0
C762 C 0.6614 0.1394 0.61375 0.0
C763 C 0.68461 0.08719 0.61489 0.0
C764 C 0.65074 0.02968 0.59363 0.0
H765 H 0.717 0.88292 0.6029 0.0
H766 H 0.70528 0.93778 0.60763 0.0
H767 H 0.63586 0.98519 0.58624 0.0
H768 H 0.6308 0.14742 0.59848 0.0
H769 H 0.63909 0.09554 0.58984 0.0
H770 H 0.72453 0.04524 0.6052 0.0
C771 C 0.7009 0.92953 0.59879 0.0
C772 C 0.65527 0.99831 0.59035 0.0
C773 C 0.70751 0.89826 0.59611 0.0
C774 C 0.64625 0.13109 0.60304 0.0
C775 C 0.6507 0.10116 0.59819 0.0
C776 C 0.70478 0.03246 0.60118 0.0
C777 C 0.68905 0.95009 0.59012 0.0
C778 C 0.68429 0.98364 0.59285 0.0
C779 C 0.67014 0.07894 0.60407 0.0
C780 C 0.67533 0.04692 0.5993 0.0
H781 H 0.68653 0.89957 0.56716 0.0
H782 H 0.67438 0.9543 0.57194 0.0
H783 H 0.73185 0.99045 0.59989 0.0
H784 H 0.69238 0.12199 0.62795 0.0
H785 H 0.69889 0.07049 0.61989 0.0
C786 C 0.16019 0.0697 0.10189 0.0
C787 C 0.19017 0.07925 0.09906 0.0
C788 C 0.15466 0.03864 0.105 0.0
C789 C 0.18533 0.95981 0.0999 0.0
H790 H 0.12565 0.93466 0.12197 0.0
C791 C 0.15996 0.82986 0.10989 0.0
C792 C 0.12857 0.82141 0.11103 0.0
C793 C 0.16846 0.86137 0.10896 0.0
C794 C 0.14216 0.94138 0.11571 0.0
H795 H 0.23829 0.06433 0.09794 0.0
H796 H 0.22876 0.01004 0.10358 0.0
H797 H 0.14024 0.98997 0.12058 0.0
H798 H 0.08135 0.83928 0.11187 0.0
H799 H 0.09619 0.89451 0.11013 0.0
H800 H 0.18701 0.91133 0.09494 0.0
C801 C 0.20942 0.0265 0.1032 0.0
C802 C 0.1506 0.97301 0.11494 0.0
C803 C 0.21496 0.05763 0.10011 0.0
C804 C 0.10572 0.84509 0.11098 0.0
C805 C 0.11426 0.8767 0.1101 0.0
C806 C 0.17694 0.92821 0.10068 0.0
C807 C 0.17901 0.01646 0.10534 0.0
C808 C 0.17206 0.98262 0.10695 0.0
C809 C 0.14577 0.88516 0.10918 0.0
C810 C 0.15505 0.91868 0.10852 0.0
H811 H 0.14072 0.086 0.10127 0.0
H812 H 0.13095 0.03169 0.10654 0.0
H813 H 0.20146 0.96649 0.0935 0.0
H814 H 0.17812 0.81217 0.10983 0.0
H815 H 0.19295 0.86712 0.10834 0.0
C816 C 0.54868 0.05058 0.39696 0.0
C817 C 0.56928 0.07525 0.39474 0.0
C818 C 0.55539 0.01981 0.39355 0.0
C819 C 0.58617 0.96411 0.3759 0.0
H820 H 0.63356 0.92482 0.4016 0.0
C821 C 0.63688 0.83773 0.37247 0.0
C822 C 0.63577 0.81899 0.38239 0.0
C823 C 0.63006 0.86996 0.37301 0.0
C824 C 0.62005 0.93516 0.39436 0.0
H825 H 0.61167 0.08762 0.38652 0.0
H826 H 0.62316 0.03368 0.38046 0.0
H827 H 0.61562 0.97883 0.40346 0.0
H828 H 0.6262 0.81917 0.4006 0.0
H829 H 0.61334 0.87439 0.40145 0.0
H830 H 0.58961 0.9202 0.36687 0.0
C831 C 0.60201 0.03827 0.38486 0.0
C832 C 0.61 0.96616 0.39543 0.0
C833 C 0.5955 0.06897 0.38837 0.0
C834 C 0.62795 0.83306 0.39284 0.0
C835 C 0.62063 0.86492 0.39333 0.0
C836 C 0.59595 0.93281 0.37484 0.0
C837 C 0.58248 0.01344 0.38773 0.0
C838 C 0.59287 0.98074 0.38626 0.0
C839 C 0.62151 0.8839 0.38344 0.0
C840 C 0.61277 0.91781 0.38412 0.0
H841 H 0.52852 0.05474 0.40197 0.0
H842 H 0.54029 0.00079 0.39595 0.0
H843 H 0.57304 0.97517 0.36871 0.0
H844 H 0.64268 0.82744 0.36428 0.0
H845 H 0.63138 0.88387 0.36525 0.0
C846 C 0.03868 0.90075 0.89881 0.0
C847 C 0.04899 0.88956 0.90978 0.0
C848 C 0.04431 0.93199 0.8958 0.0
C849 C 0.09554 0.99903 0.90098 0.0
H850 H 0.02255 0.05023 0.89306 0.0
C851 C 0.10647 0.13231 0.89084 0.0
C852 C 0.08562 0.14409 0.88205 0.0
C853 C 0.10228 0.10198 0.89525 0.0
C854 C 0.04332 0.03629 0.89505 0.0
H855 H 0.0743 0.90153 0.92603 0.0
H856 H 0.08498 0.95597 0.92062 0.0
H857 H 0.01599 0.99501 0.89774 0.0
H858 H 0.04409 0.1331 0.87099 0.0
H859 H 0.03777 0.08059 0.87814 0.0
H860 H 0.12309 0.03972 0.8978 0.0
C861 C 0.07218 0.94073 0.91444 0.0
C862 C 0.03943 0.00465 0.89779 0.0
C863 C 0.06595 0.90975 0.91754 0.0
C864 C 0.06053 0.12499 0.87784 0.0
C865 C 0.05667 0.09475 0.88206 0.0
C866 C 0.09952 0.03059 0.89798 0.0
C867 C 0.06099 0.95225 0.90362 0.0
C868 C 0.06548 0.98571 0.90071 0.0
C869 C 0.07744 0.08265 0.89082 0.0
C870 C 0.07344 0.04964 0.89487 0.0
H871 H 0.02555 0.88559 0.8927 0.0
H872 H 0.03555 0.9404 0.88739 0.0
H873 H 0.11598 0.98479 0.90323 0.0
H874 H 0.12659 0.14599 0.89398 0.0
H875 H 0.1187 0.09363 0.90205 0.0
C876 C 0.18636 0.18134 0.00117 0.0
C877 C 0.19691 0.20972 0.00641 0.0
C878 C 0.18146 0.17894 0.98915 0.0
C879 C 0.2059 0.21125 0.96228 0.0
H880 H 0.12409 0.18707 0.94872 0.0
C881 C 0.16888 0.24172 0.91588 0.0
C882 C 0.1485 0.22223 0.90903 0.0
C883 C 0.17592 0.23527 0.92747 0.0
C884 C 0.14728 0.19312 0.95233 0.0
H885 H 0.21059 0.25782 0.00303 0.0
H886 H 0.20308 0.25314 0.98201 0.0
H887 H 0.13455 0.1855 0.96975 0.0
H888 H 0.11909 0.18086 0.90913 0.0
H889 H 0.13288 0.16829 0.92952 0.0
H890 H 0.21909 0.21847 0.94504 0.0
C891 C 0.19855 0.23287 0.98728 0.0
C892 C 0.15315 0.19244 0.96437 0.0
C893 C 0.20299 0.23546 0.99931 0.0
C894 C 0.1355 0.19576 0.91409 0.0
C895 C 0.14304 0.18892 0.9258 0.0
C896 C 0.20029 0.21133 0.95029 0.0
C897 C 0.18756 0.20466 0.98212 0.0
C898 C 0.18223 0.20234 0.96942 0.0
C899 C 0.16334 0.20874 0.93261 0.0
C900 C 0.17058 0.20333 0.94517 0.0
H901 H 0.18204 0.16084 0.00634 0.0
H902 H 0.17327 0.15687 0.98532 0.0
H903 H 0.22867 0.21849 0.966 0.0
H904 H 0.17918 0.26259 0.91236 0.0
H905 H 0.19074 0.25173 0.93246 0.0
C906 C 0.08815 0.75835 0.2526 0.0
C907 C 0.10389 0.78415 0.25788 0.0
C908 C 0.08251 0.75702 0.24055 0.0
C909 C 0.08419 0.80673 0.21388 0.0
H910 H 0.09041 0.72582 0.19857 0.0
C911 C 0.12447 0.78408 0.16799 0.0
C912 C 0.1088 0.76099 0.16113 0.0
C913 C 0.11495 0.79106 0.17905 0.0
C914 C 0.08797 0.74851 0.20273 0.0
H915 H 0.12656 0.82853 0.25478 0.0
H916 H 0.11828 0.82564 0.23377 0.0
H917 H 0.09315 0.7285 0.21961 0.0
H918 H 0.07023 0.72799 0.16006 0.0
H919 H 0.05393 0.7396 0.17962 0.0
H920 H 0.08141 0.82669 0.19683 0.0
C921 C 0.10909 0.8069 0.23886 0.0
C922 C 0.08952 0.75011 0.21482 0.0
C923 C 0.11418 0.80846 0.25091 0.0
C924 C 0.08225 0.7463 0.16516 0.0
C925 C 0.07313 0.75275 0.17634 0.0
C926 C 0.08327 0.80514 0.20177 0.0
C927 C 0.09302 0.78124 0.23349 0.0
C928 C 0.08831 0.77931 0.22059 0.0
C929 C 0.09013 0.77438 0.18352 0.0
C930 C 0.08567 0.77605 0.1961 0.0
H931 H 0.07959 0.73951 0.25781 0.0
H932 H 0.0696 0.73714 0.23682 0.0
H933 H 0.0823 0.82957 0.21796 0.0
H934 H 0.14529 0.79529 0.16508 0.0
H935 H 0.12862 0.8076 0.18444 0.0
C936 C 0.66569 0.75506 0.49905 0.0
C937 C 0.67188 0.72561 0.50416 0.0
C938 C 0.65027 0.75709 0.48805 0.0
C939 C 0.59909 0.71128 0.46713 0.0
H940 H 0.63004 0.7681 0.4444 0.0
C941 C 0.58475 0.69177 0.41818 0.0
C942 C 0.58469 0.71772 0.41074 0.0
C943 C 0.58564 0.69619 0.43016 0.0
C944 C 0.62053 0.75266 0.45071 0.0
H945 H 0.66765 0.67521 0.50158 0.0
H946 H 0.64095 0.67872 0.48238 0.0
H947 H 0.6535 0.76879 0.46413 0.0
H948 H 0.58213 0.76854 0.40986 0.0
H949 H 0.58358 0.77633 0.43088 0.0
H950 H 0.56692 0.69433 0.45357 0.0
C951 C 0.64737 0.70028 0.48698 0.0
C952 C 0.63413 0.75294 0.46202 0.0
C953 C 0.66279 0.69825 0.49796 0.0
C954 C 0.58198 0.7481 0.41541 0.0
C955 C 0.58325 0.75257 0.42744 0.0
C956 C 0.58551 0.71098 0.45582 0.0
C957 C 0.64066 0.72972 0.48194 0.0
C958 C 0.62413 0.73168 0.47028 0.0
C959 C 0.58678 0.72669 0.43494 0.0
C960 C 0.59662 0.73109 0.4474 0.0
H961 H 0.67198 0.77661 0.50367 0.0
H962 H 0.64528 0.78013 0.48445 0.0
H963 H 0.59039 0.6951 0.47337 0.0
H964 H 0.58688 0.66811 0.41478 0.0
H965 H 0.58841 0.67572 0.43566 0.0
C966 C 0.5995 0.2377 0.75008 0.0
C967 C 0.60511 0.26839 0.75426 0.0
C968 C 0.59151 0.23228 0.73834 0.0
C969 C 0.5632 0.27134 0.71097 0.0
H970 H 0.60475 0.20114 0.69696 0.0
C971 C 0.58494 0.25849 0.6623 0.0
C972 C 0.58967 0.22801 0.65805 0.0
C973 C 0.57647 0.26292 0.6737 0.0
C974 C 0.59224 0.22041 0.70072 0.0
H975 H 0.60669 0.31751 0.74944 0.0
H976 H 0.5934 0.30799 0.72885 0.0
H977 H 0.61231 0.21002 0.71761 0.0
H978 H 0.58521 0.17839 0.66156 0.0
H979 H 0.56879 0.18596 0.68119 0.0
H980 H 0.54405 0.28223 0.69385 0.0
C981 C 0.59454 0.28816 0.73469 0.0
C982 C 0.59673 0.22558 0.71262 0.0
C983 C 0.60237 0.29361 0.74646 0.0
C984 C 0.58184 0.20212 0.66472 0.0
C985 C 0.57281 0.2065 0.67599 0.0
C986 C 0.55872 0.26617 0.69899 0.0
C987 C 0.58914 0.2574 0.73048 0.0
C988 C 0.58258 0.25126 0.71789 0.0
C989 C 0.57237 0.23684 0.6809 0.0
C990 C 0.57345 0.24076 0.69372 0.0
H991 H 0.60073 0.21786 0.75592 0.0
H992 H 0.587 0.20834 0.73544 0.0
H993 H 0.55164 0.29113 0.71479 0.0
H994 H 0.59106 0.27879 0.65729 0.0
H995 H 0.5762 0.28662 0.67717 0.0
C996 C 0.09352 0.70437 0.99904 0.0
C997 C 0.08649 0.73195 0.99278 0.0
C998 C 0.10678 0.706 0.01039 0.0
C999 C 0.11628 0.75893 0.03578 0.0
H1000 H 0.17823 0.69724 0.04634 0.0
C1001 C 0.15856 0.75374 0.08372 0.0
C1002 C 0.15322 0.72384 0.08828 0.0
C1003 C 0.15957 0.75764 0.07172 0.0
C1004 C 0.1611 0.71475 0.0435 0.0
H1005 H 0.08817 0.78292 0.99352 0.0
H1006 H 0.11121 0.78575 0.01334 0.0
H1007 H 0.15973 0.69836 0.02593 0.0
H1008 H 0.14813 0.67431 0.08419 0.0
H1009 H 0.15082 0.68084 0.06339 0.0
H1010 H 0.11695 0.7747 0.0534 0.0
C1011 C 0.10615 0.76285 0.00952 0.0
C1012 C 0.15032 0.71526 0.03183 0.0
C1013 C 0.09286 0.76122 0.99817 0.0
C1014 C 0.15244 0.69758 0.08086 0.0
C1015 C 0.15394 0.70138 0.06893 0.0
C1016 C 0.12712 0.75846 0.04745 0.0
C1017 C 0.11341 0.73525 0.01575 0.0
C1018 C 0.12717 0.73681 0.02789 0.0
C1019 C 0.1558 0.7316 0.06417 0.0
C1020 C 0.14906 0.73584 0.0515 0.0
H1021 H 0.08846 0.68147 0.99521 0.0
H1022 H 0.1114 0.68428 0.01502 0.0
H1023 H 0.09826 0.77567 0.03308 0.0
H1024 H 0.15888 0.7744 0.08927 0.0
H1025 H 0.1614 0.78118 0.0683 0.0
C1026 C 0.62836 0.8206 0.2496 0.0
C1027 C 0.63384 0.79245 0.24362 0.0
C1028 C 0.63235 0.82199 0.26169 0.0
C1029 C 0.67262 0.78419 0.28688 0.0
H1030 H 0.60381 0.81562 0.30385 0.0
C1031 C 0.65344 0.74905 0.33357 0.0
C1032 C 0.63474 0.7678 0.34035 0.0
C1033 C 0.66062 0.75879 0.32255 0.0
C1034 C 0.62372 0.80757 0.29933 0.0
H1035 H 0.6482 0.74383 0.24557 0.0
H1036 H 0.65545 0.74632 0.26674 0.0
H1037 H 0.60093 0.81858 0.28283 0.0
H1038 H 0.61105 0.81243 0.34154 0.0
H1039 H 0.62464 0.83037 0.32239 0.0
H1040 H 0.69547 0.77304 0.30334 0.0
C1041 C 0.64803 0.76728 0.26205 0.0
C1042 C 0.62188 0.80904 0.28724 0.0
C1043 C 0.64356 0.76575 0.24997 0.0
C1044 C 0.62579 0.79777 0.33646 0.0
C1045 C 0.63317 0.80772 0.32542 0.0
C1046 C 0.6747 0.78313 0.29901 0.0
C1047 C 0.64239 0.7954 0.26803 0.0
C1048 C 0.64592 0.79662 0.28088 0.0
C1049 C 0.64916 0.78755 0.31807 0.0
C1050 C 0.64986 0.79397 0.3054 0.0
H1051 H 0.62074 0.84149 0.24491 0.0
H1052 H 0.62786 0.84396 0.26607 0.0
H1053 H 0.69174 0.77491 0.28219 0.0
H1054 H 0.66023 0.72564 0.3364 0.0
H1055 H 0.67278 0.74242 0.31722 0.0
C1056 C 0.57098 0.22387 0.49705 0.0
C1057 C 0.57339 0.19828 0.4894 0.0
C1058 C 0.57425 0.21945 0.50903 0.0
C1059 C 0.60696 0.16608 0.53164 0.0
H1060 H 0.54915 0.20955 0.55066 0.0
C1061 C 0.57191 0.18657 0.58221 0.0
C1062 C 0.60129 0.19526 0.58729 0.0
C1063 C 0.56856 0.17808 0.57053 0.0
C1064 C 0.56521 0.19678 0.5455 0.0
H1065 H 0.58092 0.14788 0.48842 0.0
H1066 H 0.58698 0.14032 0.50935 0.0
H1067 H 0.54305 0.21405 0.52971 0.0
H1068 H 0.6506 0.19952 0.58452 0.0
H1069 H 0.64485 0.18486 0.56399 0.0
H1070 H 0.62938 0.14919 0.54755 0.0
C1071 C 0.58283 0.16382 0.50604 0.0
C1072 C 0.56196 0.19977 0.53348 0.0
C1073 C 0.5794 0.1682 0.49405 0.0
C1074 C 0.62778 0.1924 0.58081 0.0
C1075 C 0.62441 0.18414 0.56905 0.0
C1076 C 0.61036 0.16323 0.54373 0.0
C1077 C 0.58012 0.18937 0.51366 0.0
C1078 C 0.58298 0.18479 0.52641 0.0
C1079 C 0.59448 0.1787 0.56364 0.0
C1080 C 0.58961 0.17874 0.55079 0.0
H1081 H 0.56696 0.24743 0.4938 0.0
H1082 H 0.57254 0.23971 0.51469 0.0
H1083 H 0.62361 0.15436 0.52642 0.0
H1084 H 0.55114 0.18886 0.58705 0.0
H1085 H 0.5453 0.17329 0.56668 0.0
C1086 C 0.15738 0.23596 0.74781 0.0
C1087 C 0.15003 0.26637 0.74383 0.0
C1088 C 0.16636 0.23084 0.75947 0.0
C1089 C 0.19412 0.2713 0.78687 0.0
H1090 H 0.15588 0.1997 0.80096 0.0
C1091 C 0.1704 0.26111 0.83517 0.0
C1092 C 0.16567 0.23091 0.83954 0.0
C1093 C 0.18018 0.26475 0.82393 0.0
C1094 C 0.16756 0.21937 0.79718 0.0
H1095 H 0.14629 0.31527 0.74895 0.0
H1096 H 0.16132 0.30627 0.76939 0.0
H1097 H 0.14795 0.20743 0.78031 0.0
H1098 H 0.17167 0.18113 0.83653 0.0
H1099 H 0.19049 0.18738 0.8172 0.0
H1100 H 0.21273 0.28376 0.80396 0.0
C1101 C 0.16082 0.28646 0.76345 0.0
C1102 C 0.16283 0.22388 0.78528 0.0
C1103 C 0.15199 0.29159 0.75176 0.0
C1104 C 0.17499 0.20464 0.83326 0.0
C1105 C 0.1854 0.20827 0.82215 0.0
C1106 C 0.19888 0.26677 0.79885 0.0
C1107 C 0.16802 0.25599 0.76745 0.0
C1108 C 0.17556 0.25016 0.77999 0.0
C1109 C 0.18562 0.23817 0.81702 0.0
C1110 C 0.18521 0.24097 0.80418 0.0
H1111 H 0.15675 0.21614 0.74187 0.0
H1112 H 0.17218 0.20715 0.76222 0.0
H1113 H 0.20464 0.29156 0.78303 0.0
H1114 H 0.16318 0.28169 0.83989 0.0
H1115 H 0.18026 0.28816 0.82031 0.0
loop_
_geom_bond_atom_site_label_1
_geom_bond_atom_site_label_2
_geom_bond_distance
_geom_bond_site_symmetry_2
_ccdc_geom_bond_type
C0 C1 1.386 . S
C0 C2 1.397 . S
C0 H24 0.931 . S
C1 C0 1.386 . S
C1 C5 1.397 . S
C2 C0 1.397 . S
C2 C3 1.384 . S
C2 H25 0.930 . S
C3 C2 1.384 . S
C3 C4 1.377 . S
C3 C6 1.481 . S
C4 C3 1.377 . S
C4 C5 1.389 . S
C4 H26 0.929 . S
C5 C1 1.397 . S
C5 C4 1.389 . S
C5 H27 0.931 . S
C6 C3 1.481 . S
C6 C7 1.387 . S
C6 C11 1.390 . S
C7 C6 1.387 . S
C7 C8 1.401 . S
C7 H28 0.930 . S
C8 C7 1.401 . S
C8 C9 1.376 . S
C8 C17 1.511 . S
C9 C8 1.376 . S
C9 C10 1.392 . S
C9 H30 0.931 . S
C10 C9 1.392 . S
C10 C11 1.361 . S
C10 C12 1.500 . S
C11 C6 1.390 . S
C11 C10 1.361 . S
C11 H29 0.931 . S
C12 C10 1.500 . S
C12 C13 1.371 . S
C12 C14 1.365 . S
C13 C12 1.371 . S
C13 C23 1.386 . S
C13 H31 0.931 . S
C14 C12 1.365 . S
C14 C15 1.409 . S
C14 H32 0.929 . S
C15 C14 1.409 . S
C15 C16 1.380 . S
C15 H33 0.930 . S
C16 C15 1.380 . S
C16 C23 1.357 . S
C17 C8 1.511 . S
C17 C18 1.341 . S
C17 C19 1.371 . S
C18 C17 1.341 . S
C18 C22 1.394 . S
C18 H34 0.930 . S
C19 C17 1.371 . S
C19 C20 1.392 . S
C19 H35 0.931 . S
C20 C19 1.392 . S
C20 C21 1.331 . S
C20 H38 0.932 . S
C21 C20 1.331 . S
C21 C22 1.336 . S
C22 C18 1.394 . S
C22 C21 1.336 . S
C22 H37 0.929 . S
C23 C13 1.386 . S
C23 C16 1.357 . S
C23 H36 0.928 . S
H24 C0 0.931 . S
H25 C2 0.930 . S
H26 C4 0.929 . S
H27 C5 0.931 . S
H28 C7 0.930 . S
H29 C11 0.931 . S
H30 C9 0.931 . S
H31 C13 0.931 . S
H32 C14 0.929 . S
H33 C15 0.930 . S
H34 C18 0.930 . S
H35 C19 0.931 . S
H36 C23 0.928 . S
H37 C22 0.929 . S
H38 C20 0.932 . S
C39 C40 1.386 . S
C39 C41 1.397 . S
C39 H63 0.931 . S
C40 C39 1.386 . S
C40 C44 1.397 . S
C41 C39 1.397 . S
C41 C42 1.384 . S
C41 H64 0.930 . S
C42 C41 1.384 . S
C42 C43 1.377 . S
C42 C45 1.481 . S
C43 C42 1.377 . S
C43 C44 1.389 . S
C43 H65 0.929 . S
C44 C40 1.397 . S
C44 C43 1.389 . S
C44 H66 0.931 . S
C45 C42 1.481 . S
C45 C46 1.387 . S
C45 C50 1.390 . S
C46 C45 1.387 . S
C46 C47 1.401 . S
C46 H67 0.930 . S
C47 C46 1.401 . S
C47 C48 1.376 . S
C47 C56 1.511 . S
C48 C47 1.376 . S
C48 C49 1.392 . S
C48 H69 0.931 . S
C49 C48 1.392 . S
C49 C50 1.361 . S
C49 C51 1.500 . S
C50 C45 1.390 . S
C50 C49 1.361 . S
C50 H68 0.931 . S
C51 C49 1.500 . S
C51 C52 1.371 . S
C51 C53 1.365 . S
C52 C51 1.371 . S
C52 C62 1.386 . S
C52 H70 0.931 . S
C53 C51 1.365 . S
C53 C54 1.409 . S
C53 H71 0.929 . S
C54 C53 1.409 . S
C54 C55 1.380 1_455 S
C54 H72 0.930 1_455 S
C55 C54 1.380 1_655 S
C55 C62 1.355 1_655 S
C56 C47 1.511 . S
C56 C57 1.341 . S
C56 C58 1.371 . S
C57 C56 1.341 . S
C57 C61 1.394 . S
C57 H73 0.930 . S
C58 C56 1.371 . S
C58 C59 1.392 . S
C58 H74 0.931 . S
C59 C58 1.392 . S
C59 C60 1.331 . S
C59 H77 0.932 . S
C60 C59 1.331 . S
C60 C61 1.336 . S
C61 C57 1.394 . S
C61 C60 1.336 . S
C61 H76 0.929 . S
C62 C52 1.386 . S
C62 C55 1.355 1_455 S
C62 H75 0.928 . S
H63 C39 0.931 . S
H64 C41 0.930 . S
H65 C43 0.929 . S
H66 C44 0.931 . S
H67 C46 0.930 . S
H68 C50 0.931 . S
H69 C48 0.931 . S
H70 C52 0.931 . S
H71 C53 0.929 . S
H72 C54 0.930 1_655 S
H73 C57 0.930 . S
H74 C58 0.931 . S
H75 C62 0.928 . S
H76 C61 0.929 . S
H77 C59 0.932 . S
C78 C79 1.386 . S
C78 C80 1.397 . S
C78 H102 0.931 . S
C79 C78 1.386 . S
C79 C83 1.397 . S
C80 C78 1.397 . S
C80 C81 1.384 . S
C80 H103 0.930 . S
C81 C80 1.384 . S
C81 C82 1.377 . S
C81 C84 1.481 . S
C82 C81 1.377 . S
C82 C83 1.389 . S
C82 H104 0.929 . S
C83 C79 1.397 . S
C83 C82 1.389 . S
C83 H105 0.931 . S
C84 C81 1.481 . S
C84 C85 1.387 . S
C84 C89 1.390 . S
C85 C84 1.387 . S
C85 C86 1.401 . S
C85 H106 0.930 . S
C86 C85 1.401 . S
C86 C87 1.376 . S
C86 C95 1.511 . S
C87 C86 1.376 . S
C87 C88 1.392 . S
C87 H108 0.931 . S
C88 C87 1.392 . S
C88 C89 1.361 . S
C88 C90 1.500 . S
C89 C84 1.390 . S
C89 C88 1.361 . S
C89 H107 0.931 . S
C90 C88 1.500 . S
C90 C91 1.371 . S
C90 C92 1.365 . S
C91 C90 1.371 . S
C91 C101 1.386 . S
C91 H109 0.931 . S
C92 C90 1.365 . S
C92 C93 1.409 . S
C92 H110 0.929 . S
C93 C92 1.409 . S
C93 C94 1.380 . S
C93 H111 0.930 . S
C94 C93 1.380 . S
C94 C101 1.357 . S
C95 C86 1.511 . S
C95 C96 1.341 . S
C95 C97 1.371 . S
C96 C95 1.341 . S
C96 C100 1.394 . S
C96 H112 0.930 . S
C97 C95 1.371 . S
C97 C98 1.392 . S
C97 H113 0.931 . S
C98 C97 1.392 . S
C98 C99 1.331 . S
C98 H116 0.932 . S
C99 C98 1.331 . S
C99 C100 1.336 . S
C100 C96 1.394 . S
C100 C99 1.336 . S
C100 H115 0.929 . S
C101 C91 1.386 . S
C101 C94 1.357 . S
C101 H114 0.928 . S
H102 C78 0.931 . S
H103 C80 0.930 . S
H104 C82 0.929 . S
H105 C83 0.931 . S
H106 C85 0.930 . S
H107 C89 0.931 . S
H108 C87 0.931 . S
H109 C91 0.931 . S
H110 C92 0.929 . S
H111 C93 0.930 . S
H112 C96 0.930 . S
H113 C97 0.931 . S
H114 C101 0.928 . S
H115 C100 0.929 . S
H116 C98 0.932 . S
C117 C118 1.386 . S
C117 C119 1.397 . S
C117 H141 0.931 . S
C118 C117 1.386 . S
C118 C122 1.397 . S
C119 C117 1.397 . S
C119 C120 1.384 . S
C119 H142 0.930 . S
C120 C119 1.384 . S
C120 C121 1.377 . S
C120 C123 1.481 . S
C121 C120 1.377 . S
C121 C122 1.389 . S
C121 H143 0.929 . S
C122 C118 1.397 . S
C122 C121 1.389 . S
C122 H144 0.931 . S
C123 C120 1.481 . S
C123 C124 1.387 . S
C123 C128 1.390 . S
C124 C123 1.387 . S
C124 C125 1.401 . S
C124 H145 0.930 . S
C125 C124 1.401 . S
C125 C126 1.376 . S
C125 C134 1.511 . S
C126 C125 1.376 . S
C126 C127 1.392 . S
C126 H147 0.931 . S
C127 C126 1.392 . S
C127 C128 1.361 . S
C127 C129 1.500 . S
C128 C123 1.390 . S
C128 C127 1.361 . S
C128 H146 0.931 . S
C129 C127 1.500 . S
C129 C130 1.371 . S
C129 C131 1.365 . S
C130 C129 1.371 . S
C130 C140 1.386 . S
C130 H148 0.931 . S
C131 C129 1.365 . S
C131 C132 1.409 . S
C131 H149 0.929 . S
C132 C131 1.409 . S
C132 C133 1.380 . S
C132 H150 0.930 . S
C133 C132 1.380 . S
C133 C140 1.357 . S
C134 C125 1.511 . S
C134 C135 1.341 . S
C134 C136 1.371 . S
C135 C134 1.341 . S
C135 C139 1.394 . S
C135 H151 0.930 . S
C136 C134 1.371 . S
C136 C137 1.392 . S
C136 H152 0.931 . S
C137 C136 1.392 . S
C137 C138 1.331 . S
C137 H155 0.932 . S
C138 C137 1.331 . S
C138 C139 1.336 . S
C139 C135 1.394 . S
C139 C138 1.336 . S
C139 H154 0.929 . S
C140 C130 1.386 . S
C140 C133 1.357 . S
C140 H153 0.928 . S
H141 C117 0.931 . S
H142 C119 0.930 . S
H143 C121 0.929 . S
H144 C122 0.931 . S
H145 C124 0.930 . S
H146 C128 0.931 . S
H147 C126 0.931 . S
H148 C130 0.931 . S
H149 C131 0.929 . S
H150 C132 0.930 . S
H151 C135 0.930 . S
H152 C136 0.931 . S
H153 C140 0.928 . S
H154 C139 0.929 . S
H155 C137 0.932 . S
C156 C157 1.386 . S
C156 C158 1.397 . S
C156 H180 0.931 . S
C157 C156 1.386 . S
C157 C161 1.397 . S
C158 C156 1.397 . S
C158 C159 1.384 . S
C158 H181 0.930 . S
C159 C158 1.384 . S
C159 C160 1.377 . S
C159 C162 1.481 . S
C160 C159 1.377 . S
C160 C161 1.389 . S
C160 H182 0.929 . S
C161 C157 1.397 . S
C161 C160 1.389 . S
C161 H183 0.931 . S
C162 C159 1.481 . S
C162 C163 1.387 . S
C162 C167 1.390 . S
C163 C162 1.387 . S
C163 C164 1.401 . S
C163 H184 0.930 . S
C164 C163 1.401 . S
C164 C165 1.376 . S
C164 C173 1.511 . S
C165 C164 1.376 . S
C165 C166 1.392 . S
C165 H186 0.931 . S
C166 C165 1.392 . S
C166 C167 1.361 . S
C166 C168 1.500 . S
C167 C162 1.390 . S
C167 C166 1.361 . S
C167 H185 0.931 . S
C168 C166 1.500 . S
C168 C169 1.371 . S
C168 C170 1.365 . S
C169 C168 1.371 . S
C169 C179 1.386 . S
C169 H187 0.931 . S
C170 C168 1.365 . S
C170 C171 1.409 . S
C170 H188 0.929 . S
C171 C170 1.409 . S
C171 C172 1.380 . S
C171 H189 0.930 . S
C172 C171 1.380 . S
C172 C179 1.357 . S
C173 C164 1.511 . S
C173 C174 1.341 . S
C173 C175 1.371 . S
C174 C173 1.341 . S
C174 C178 1.394 . S
C174 H190 0.930 . S
C175 C173 1.371 . S
C175 C176 1.392 . S
C175 H191 0.931 . S
C176 C175 1.392 . S
C176 C177 1.331 . S
C176 H194 0.932 . S
C177 C176 1.331 . S
C177 C178 1.336 . S
C178 C174 1.394 . S
C178 C177 1.336 . S
C178 H193 0.929 . S
C179 C169 1.386 . S
C179 C172 1.357 . S
C179 H192 0.928 . S
H180 C156 0.931 . S
H181 C158 0.930 . S
H182 C160 0.929 . S
H183 C161 0.931 . S
H184 C163 0.930 . S
H185 C167 0.931 . S
H186 C165 0.931 . S
H187 C169 0.931 . S
H188 C170 0.929 . S
H189 C171 0.930 . S
H190 C174 0.930 . S
H191 C175 0.931 . S
H192 C179 0.928 . S
H193 C178 0.929 . S
H194 C176 0.932 . S
C195 C196 1.386 . S
C195 C197 1.397 . S
C195 H219 0.931 . S
C196 C195 1.386 . S
C196 C200 1.397 . S
C197 C195 1.397 . S
C197 C198 1.384 . S
C197 H220 0.930 . S
C198 C197 1.384 . S
C198 C199 1.377 . S
C198 C201 1.481 . S
C199 C198 1.377 . S
C199 C200 1.389 . S
C199 H221 0.929 . S
C200 C196 1.397 . S
C200 C199 1.389 . S
C200 H222 0.931 . S
C201 C198 1.481 . S
C201 C202 1.387 . S
C201 C206 1.390 . S
C202 C201 1.387 . S
C202 C203 1.401 . S
C202 H223 0.930 . S
C203 C202 1.401 . S
C203 C204 1.376 . S
C203 C212 1.511 . S
C204 C203 1.376 . S
C204 C205 1.392 . S
C204 H225 0.931 . S
C205 C204 1.392 . S
C205 C206 1.361 . S
C205 C207 1.500 . S
C206 C201 1.390 . S
C206 C205 1.361 . S
C206 H224 0.931 . S
C207 C205 1.500 . S
C207 C208 1.371 . S
C207 C209 1.365 . S
C208 C207 1.371 . S
C208 C218 1.386 . S
C208 H226 0.931 . S
C209 C207 1.365 . S
C209 C210 1.409 . S
C209 H227 0.929 . S
C210 C209 1.409 . S
C210 C211 1.380 . S
C210 H228 0.930 . S
C211 C210 1.380 . S
C211 C218 1.357 . S
C212 C203 1.511 . S
C212 C213 1.341 . S
C212 C214 1.371 . S
C213 C212 1.341 . S
C213 C217 1.394 . S
C213 H229 0.930 . S
C214 C212 1.371 . S
C214 C215 1.392 . S
C214 H230 0.931 . S
C215 C214 1.392 . S
C215 C216 1.331 . S
C215 H233 0.932 . S
C216 C215 1.331 . S
C216 C217 1.336 . S
C217 C213 1.394 . S
C217 C216 1.336 . S
C217 H232 0.929 . S
C218 C208 1.386 . S
C218 C211 1.357 . S
C218 H231 0.928 . S
H219 C195 0.931 . S
H220 C197 0.930 . S
H221 C199 0.929 . S
H222 C200 0.931 . S
H223 C202 0.930 . S
H224 C206 0.931 . S
H225 C204 0.931 . S
H226 C208 0.931 . S
H227 C209 0.929 . S
H228 C210 0.930 . S
H229 C213 0.930 . S
H230 C214 0.931 . S
H231 C218 0.928 . S
H232 C217 0.929 . S
H233 C215 0.932 . S
C234 C235 1.386 . S
C234 C236 1.397 . S
C234 H258 0.931 . S
C235 C234 1.386 . S
C235 C239 1.397 . S
C236 C234 1.397 . S
C236 C237 1.384 . S
C236 H259 0.930 . S
C237 C236 1.384 . S
C237 C238 1.377 . S
C237 C240 1.481 . S
C238 C237 1.377 . S
C238 C239 1.389 . S
C238 H260 0.929 . S
C239 C235 1.397 . S
C239 C238 1.389 . S
C239 H261 0.931 . S
C240 C237 1.481 . S
C240 C241 1.387 . S
C240 C245 1.390 . S
C241 C240 1.387 . S
C241 C242 1.401 . S
C241 H262 0.930 . S
C242 C241 1.401 . S
C242 C243 1.376 . S
C242 C251 1.511 . S
C243 C242 1.376 . S
C243 C244 1.392 . S
C243 H264 0.931 . S
C244 C243 1.392 . S
C244 C245 1.361 . S
C244 C246 1.500 . S
C245 C240 1.390 . S
C245 C244 1.361 . S
C245 H263 0.931 . S
C246 C244 1.500 . S
C246 C247 1.371 . S
C246 C248 1.365 . S
C247 C246 1.371 . S
C247 C257 1.386 . S
C247 H265 0.931 . S
C248 C246 1.365 . S
C248 C249 1.409 . S
C248 H266 0.929 . S
C249 C248 1.409 . S
C249 C250 1.380 . S
C249 H267 0.930 . S
C250 C249 1.380 . S
C250 C257 1.357 . S
C251 C242 1.511 . S
C251 C252 1.341 . S
C251 C253 1.371 . S
C252 C251 1.341 . S
C252 C256 1.394 . S
C252 H268 0.930 . S
C253 C251 1.371 . S
C253 C254 1.392 . S
C253 H269 0.931 . S
C254 C253 1.392 . S
C254 C255 1.331 . S
C254 H272 0.932 . S
C255 C254 1.331 . S
C255 C256 1.336 . S
C256 C252 1.394 . S
C256 C255 1.336 . S
C256 H271 0.929 . S
C257 C247 1.386 . S
C257 C250 1.357 . S
C257 H270 0.928 . S
H258 C234 0.931 . S
H259 C236 0.930 . S
H260 C238 0.929 . S
H261 C239 0.931 . S
H262 C241 0.930 . S
H263 C245 0.931 . S
H264 C243 0.931 . S
H265 C247 0.931 . S
H266 C248 0.929 . S
H267 C249 0.930 . S
H268 C252 0.930 . S
H269 C253 0.931 . S
H270 C257 0.928 . S
H271 C256 0.929 . S
H272 C254 0.932 . S
C273 C274 1.386 . S
C273 C275 1.397 . S
C273 H297 0.931 . S
C274 C273 1.386 . S
C274 C278 1.397 . S
C275 C273 1.397 . S
C275 C276 1.384 . S
C275 H298 0.930 . S
C276 C275 1.384 . S
C276 C277 1.377 . S
C276 C279 1.481 . S
C277 C276 1.377 . S
C277 C278 1.389 . S
C277 H299 0.929 . S
C278 C274 1.397 . S
C278 C277 1.389 . S
C278 H300 0.931 . S
C279 C276 1.481 . S
C279 C280 1.387 . S
C279 C284 1.390 . S
C280 C279 1.387 . S
C280 C281 1.401 . S
C280 H301 0.930 . S
C281 C280 1.401 . S
C281 C282 1.376 . S
C281 C290 1.511 . S
C282 C281 1.376 . S
C282 C283 1.392 . S
C282 H303 0.931 . S
C283 C282 1.392 . S
C283 C284 1.361 . S
C283 C285 1.500 . S
C284 C279 1.390 . S
C284 C283 1.361 . S
C284 H302 0.931 . S
C285 C283 1.500 . S
C285 C286 1.371 . S
C285 C287 1.365 . S
C286 C285 1.371 . S
C286 C296 1.386 . S
C286 H304 0.931 . S
C287 C285 1.365 . S
C287 C288 1.409 . S
C287 H305 0.929 . S
C288 C287 1.409 . S
C288 C289 1.380 . S
C288 H306 0.930 . S
C289 C288 1.380 . S
C289 C296 1.357 . S
C290 C281 1.511 . S
C290 C291 1.341 . S
C290 C292 1.371 . S
C291 C290 1.341 . S
C291 C295 1.394 . S
C291 H307 0.930 . S
C292 C290 1.371 . S
C292 C293 1.392 . S
C292 H308 0.931 . S
C293 C292 1.392 . S
C293 C294 1.331 . S
C293 H311 0.932 . S
C294 C293 1.331 . S
C294 C295 1.336 . S
C295 C291 1.394 . S
C295 C294 1.336 . S
C295 H310 0.929 . S
C296 C286 1.386 . S
C296 C289 1.357 . S
C296 H309 0.928 . S
H297 C273 0.931 . S
H298 C275 0.930 . S
H299 C277 0.929 . S
H300 C278 0.931 . S
H301 C280 0.930 . S
H302 C284 0.931 . S
H303 C282 0.931 . S
H304 C286 0.931 . S
H305 C287 0.929 . S
H306 C288 0.930 . S
H307 C291 0.930 . S
H308 C292 0.931 . S
H309 C296 0.928 . S
H310 C295 0.929 . S
H311 C293 0.932 . S
Zn312 O318 1.920 . S
Zn312 O324 1.898 . S
Zn312 O327 1.905 . S
Zn313 O321 1.905 . S
Zn313 O322 1.898 . S
Zn313 O330 1.920 . S
Zn314 O317 2.080 . S
Zn314 O320 2.114 . S
Zn314 O323 2.120 . S
Zn314 O325 2.120 . S
Zn314 O326 2.114 . S
Zn314 O329 2.080 . S
C315 O320 1.166 . S
C315 O321 1.182 . S
C316 O322 1.167 . S
C316 O323 1.299 . S
O317 Zn314 2.080 . S
O317 C331 1.305 . S
O318 Zn312 1.920 . S
O318 C331 1.234 . S
C319 O324 1.167 . S
C319 O325 1.299 . S
O320 Zn314 2.114 . S
O320 C315 1.166 . S
O321 Zn313 1.905 . S
O321 C315 1.182 . S
O322 Zn313 1.898 . S
O322 C316 1.167 . S
O323 Zn314 2.120 . S
O323 C316 1.299 . S
O324 Zn312 1.898 . S
O324 C319 1.167 . S
O325 Zn314 2.120 . S
O325 C319 1.299 . S
O326 Zn314 2.114 . S
O326 C328 1.166 . S
O327 Zn312 1.905 . S
O327 C328 1.182 . S
C328 O326 1.166 . S
C328 O327 1.182 . S
O329 Zn314 2.080 . S
O329 C332 1.305 . S
O330 Zn313 1.920 . S
O330 C332 1.234 . S
C331 O317 1.305 . S
C331 O318 1.234 . S
C332 O329 1.305 . S
C332 O330 1.234 . S
Zn333 O339 1.920 . S
Zn333 O345 1.898 . S
Zn333 O348 1.905 . S
Zn334 O342 1.905 . S
Zn334 O343 1.898 . S
Zn334 O351 1.920 . S
Zn335 O338 2.080 . S
Zn335 O341 2.114 . S
Zn335 O344 2.120 . S
Zn335 O346 2.120 . S
Zn335 O347 2.114 . S
Zn335 O350 2.080 . S
C336 O341 1.166 . S
C336 O342 1.182 . S
C337 O343 1.167 . S
C337 O344 1.299 . S
O338 Zn335 2.080 . S
O338 C352 1.305 . S
O339 Zn333 1.920 . S
O339 C352 1.234 . S
C340 O345 1.167 . S
C340 O346 1.299 . S
O341 Zn335 2.114 . S
O341 C336 1.166 . S
O342 Zn334 1.905 . S
O342 C336 1.182 . S
O343 Zn334 1.898 . S
O343 C337 1.167 . S
O344 Zn335 2.120 . S
O344 C337 1.299 . S
O345 Zn333 1.898 . S
O345 C340 1.167 . S
O346 Zn335 2.120 . S
O346 C340 1.299 . S
O347 Zn335 2.114 . S
O347 C349 1.166 . S
O348 Zn333 1.905 . S
O348 C349 1.182 . S
C349 O347 1.166 . S
C349 O348 1.182 . S
O350 Zn335 2.080 . S
O350 C353 1.305 . S
O351 Zn334 1.920 . S
O351 C353 1.234 . S
C352 O338 1.305 . S
C352 O339 1.234 . S
C353 O350 1.305 . S
C353 O351 1.234 . S
Zn354 O360 1.920 . S
Zn354 O366 1.898 . S
Zn354 O369 1.905 . S
Zn355 O363 1.905 . S
Zn355 O364 1.898 . S
Zn355 O372 1.920 . S
Zn356 O359 2.080 . S
Zn356 O362 2.114 . S
Zn356 O365 2.120 . S
Zn356 O367 2.120 . S
Zn356 O368 2.114 . S
Zn356 O371 2.080 . S
C357 O362 1.166 . S
C357 O363 1.182 . S
C358 O364 1.167 . S
C358 O365 1.299 . S
O359 Zn356 2.080 . S
O359 C373 1.305 . S
O360 Zn354 1.920 . S
O360 C373 1.234 . S
C361 O366 1.167 . S
C361 O367 1.299 . S
O362 Zn356 2.114 . S
O362 C357 1.166 . S
O363 Zn355 1.905 . S
O363 C357 1.182 . S
O364 Zn355 1.898 . S
O364 C358 1.167 . S
O365 Zn356 2.120 . S
O365 C358 1.299 . S
O366 Zn354 1.898 . S
O366 C361 1.167 . S
O367 Zn356 2.120 . S
O367 C361 1.299 . S
O368 Zn356 2.114 . S
O368 C370 1.166 . S
O369 Zn354 1.905 . S
O369 C370 1.182 . S
C370 O368 1.166 . S
C370 O369 1.182 . S
O371 Zn356 2.080 . S
O371 C374 1.305 . S
O372 Zn355 1.920 . S
O372 C374 1.234 . S
C373 O359 1.305 . S
C373 O360 1.234 . S
C374 O371 1.305 . S
C374 O372 1.234 . S
Zn375 O381 1.920 . S
Zn375 O387 1.898 . S
Zn375 O390 1.905 . S
Zn376 O384 1.905 . S
Zn376 O385 1.898 . S
Zn376 O393 1.920 . S
Zn377 O380 2.080 . S
Zn377 O383 2.114 . S
Zn377 O386 2.120 . S
Zn377 O388 2.120 . S
Zn377 O389 2.114 . S
Zn377 O392 2.080 . S
C378 O383 1.166 . S
C378 O384 1.182 . S
C379 O385 1.167 . S
C379 O386 1.299 . S
O380 Zn377 2.080 . S
O380 C394 1.305 . S
O381 Zn375 1.920 . S
O381 C394 1.234 . S
C382 O387 1.167 . S
C382 O388 1.299 . S
O383 Zn377 2.114 . S
O383 C378 1.166 . S
O384 Zn376 1.905 . S
O384 C378 1.182 . S
O385 Zn376 1.898 . S
O385 C379 1.167 . S
O386 Zn377 2.120 . S
O386 C379 1.299 . S
O387 Zn375 1.898 . S
O387 C382 1.167 . S
O388 Zn377 2.120 . S
O388 C382 1.299 . S
O389 Zn377 2.114 . S
O389 C391 1.166 . S
O390 Zn375 1.905 . S
O390 C391 1.182 . S
C391 O389 1.166 . S
C391 O390 1.182 . S
O392 Zn377 2.080 . S
O392 C395 1.305 . S
O393 Zn376 1.920 . S
O393 C395 1.234 . S
C394 O380 1.305 . S
C394 O381 1.234 . S
C395 O392 1.305 . S
C395 O393 1.234 . S
C396 C397 1.349 . S
C396 C398 1.327 . S
C396 H421 0.950 . S
C397 C396 1.349 . S
C397 C413 1.349 . S
C398 C396 1.327 . S
C398 C417 1.429 . S
C398 H422 0.950 . S
C399 C416 1.574 . S
C399 C418 1.368 . S
C399 H423 0.949 . S
H400 C404 0.949 . S
C401 C402 1.349 . S
C401 C403 1.327 . S
C401 H424 0.950 . S
C402 C401 1.349 . S
C402 C414 1.349 . S
C403 C401 1.327 . S
C403 C419 1.429 . S
C403 H425 0.950 . S
C404 H400 0.949 . S
C404 C412 1.574 . S
C404 C420 1.368 . S
H405 C413 0.950 . S
H406 C411 0.950 . S
H407 C412 0.949 . S
H408 C414 0.950 . S
H409 C415 0.950 . S
H410 C416 0.949 . S
C411 H406 0.950 . S
C411 C413 1.327 . S
C411 C417 1.429 . S
C412 C404 1.574 . S
C412 H407 0.949 . S
C412 C418 1.368 . S
C413 C397 1.349 . S
C413 H405 0.950 . S
C413 C411 1.327 . S
C414 C402 1.349 . S
C414 H408 0.950 . S
C414 C415 1.327 . S
C415 H409 0.950 . S
C415 C414 1.327 . S
C415 C419 1.429 . S
C416 C399 1.574 . S
C416 H410 0.949 . S
C416 C420 1.368 . S
C417 C398 1.429 . S
C417 C411 1.429 . S
C417 C418 1.523 . S
C418 C399 1.368 . S
C418 C412 1.368 . S
C418 C417 1.523 . S
C419 C403 1.429 . S
C419 C415 1.429 . S
C419 C420 1.523 . S
C420 C404 1.368 . S
C420 C416 1.368 . S
C420 C419 1.523 . S
H421 C396 0.950 . S
H422 C398 0.950 . S
H423 C399 0.949 . S
H424 C401 0.950 . S
H425 C403 0.950 . S
C426 C427 1.349 . S
C426 C428 1.327 . S
C426 H451 0.950 . S
C427 C426 1.349 . S
C427 C443 1.349 . S
C428 C426 1.327 . S
C428 C447 1.429 . S
C428 H452 0.950 . S
C429 C446 1.574 . S
C429 C448 1.368 . S
C429 H453 0.949 . S
H430 C434 0.949 . S
C431 C432 1.349 . S
C431 C433 1.327 . S
C431 H454 0.950 . S
C432 C431 1.349 . S
C432 C444 1.349 . S
C433 C431 1.327 . S
C433 C449 1.429 . S
C433 H455 0.950 . S
C434 H430 0.949 . S
C434 C442 1.574 . S
C434 C450 1.368 . S
H435 C443 0.950 . S
H436 C441 0.950 . S
H437 C442 0.949 . S
H438 C444 0.950 . S
H439 C445 0.950 . S
H440 C446 0.949 . S
C441 H436 0.950 . S
C441 C443 1.327 . S
C441 C447 1.429 . S
C442 C434 1.574 . S
C442 H437 0.949 . S
C442 C448 1.368 . S
C443 C427 1.349 . S
C443 H435 0.950 . S
C443 C441 1.327 . S
C444 C432 1.349 . S
C444 H438 0.950 . S
C444 C445 1.327 . S
C445 H439 0.950 . S
C445 C444 1.327 . S
C445 C449 1.429 . S
C446 C429 1.574 . S
C446 H440 0.949 . S
C446 C450 1.368 . S
C447 C428 1.429 . S
C447 C441 1.429 . S
C447 C448 1.523 . S
C448 C429 1.368 . S
C448 C442 1.368 . S
C448 C447 1.523 . S
C449 C433 1.429 . S
C449 C445 1.429 . S
C449 C450 1.523 . S
C450 C434 1.368 . S
C450 C446 1.368 . S
C450 C449 1.523 . S
H451 C426 0.950 . S
H452 C428 0.950 . S
H453 C429 0.949 . S
H454 C431 0.950 . S
H455 C433 0.950 . S
C456 C457 1.349 . S
C456 C458 1.327 . S
C456 H481 0.950 . S
C457 C456 1.349 . S
C457 C473 1.349 . S
C458 C456 1.327 . S
C458 C477 1.429 . S
C458 H482 0.950 . S
C459 C476 1.574 . S
C459 C478 1.368 . S
C459 H483 0.949 . S
H460 C464 0.949 . S
C461 C462 1.349 . S
C461 C463 1.327 . S
C461 H484 0.950 . S
C462 C461 1.349 . S
C462 C474 1.349 . S
C463 C461 1.327 . S
C463 C479 1.429 . S
C463 H485 0.950 . S
C464 H460 0.949 . S
C464 C472 1.574 . S
C464 C480 1.368 . S
H465 C473 0.950 . S
H466 C471 0.950 . S
H467 C472 0.949 . S
H468 C474 0.950 . S
H469 C475 0.950 . S
H470 C476 0.949 . S
C471 H466 0.950 . S
C471 C473 1.327 . S
C471 C477 1.429 . S
C472 C464 1.574 . S
C472 H467 0.949 . S
C472 C478 1.368 . S
C473 C457 1.349 . S
C473 H465 0.950 . S
C473 C471 1.327 . S
C474 C462 1.349 . S
C474 H468 0.950 . S
C474 C475 1.327 . S
C475 H469 0.950 . S
C475 C474 1.327 . S
C475 C479 1.429 . S
C476 C459 1.574 . S
C476 H470 0.949 . S
C476 C480 1.368 . S
C477 C458 1.429 . S
C477 C471 1.429 . S
C477 C478 1.523 . S
C478 C459 1.368 . S
C478 C472 1.368 . S
C478 C477 1.523 . S
C479 C463 1.429 . S
C479 C475 1.429 . S
C479 C480 1.523 . S
C480 C464 1.368 . S
C480 C476 1.368 . S
C480 C479 1.523 . S
H481 C456 0.950 . S
H482 C458 0.950 . S
H483 C459 0.949 . S
H484 C461 0.950 . S
H485 C463 0.950 . S
C486 C487 1.349 . S
C486 C488 1.327 . S
C486 H511 0.950 . S
C487 C486 1.349 . S
C487 C503 1.349 . S
C488 C486 1.327 . S
C488 C507 1.429 . S
C488 H512 0.950 . S
C489 C506 1.574 . S
C489 C508 1.368 . S
C489 H513 0.949 . S
H490 C494 0.949 . S
C491 C492 1.349 . S
C491 C493 1.327 1_455 S
C491 H514 0.950 . S
C492 C491 1.349 . S
C492 C504 1.349 . S
C493 C491 1.327 1_655 S
C493 C509 1.429 . S
C493 H515 0.950 . S
C494 H490 0.949 . S
C494 C502 1.574 . S
C494 C510 1.368 . S
H495 C503 0.950 . S
H496 C501 0.950 . S
H497 C502 0.949 . S
H498 C504 0.950 . S
H499 C505 0.950 . S
H500 C506 0.949 . S
C501 H496 0.950 . S
C501 C503 1.327 . S
C501 C507 1.429 . S
C502 C494 1.574 . S
C502 H497 0.949 . S
C502 C508 1.368 . S
C503 C487 1.349 . S
C503 H495 0.950 . S
C503 C501 1.327 . S
C504 C492 1.349 . S
C504 H498 0.950 . S
C504 C505 1.327 1_455 S
C505 H499 0.950 . S
C505 C504 1.327 1_655 S
C505 C509 1.429 . S
C506 C489 1.574 . S
C506 H500 0.949 . S
C506 C510 1.368 . S
C507 C488 1.429 . S
C507 C501 1.429 . S
C507 C508 1.523 . S
C508 C489 1.368 . S
C508 C502 1.368 . S
C508 C507 1.523 . S
C509 C493 1.429 . S
C509 C505 1.429 . S
C509 C510 1.523 . S
C510 C494 1.368 . S
C510 C506 1.368 . S
C510 C509 1.523 . S
H511 C486 0.950 . S
H512 C488 0.950 . S
H513 C489 0.949 . S
H514 C491 0.950 . S
H515 C493 0.950 . S
C516 C517 1.349 . S
C516 C518 1.327 . S
C516 H541 0.950 . S
C517 C516 1.349 . S
C517 C533 1.349 . S
C518 C516 1.327 . S
C518 C537 1.429 . S
C518 H542 0.950 . S
C519 C536 1.574 . S
C519 C538 1.368 . S
C519 H543 0.949 . S
H520 C524 0.949 . S
C521 C522 1.349 . S
C521 C523 1.327 . S
C521 H544 0.950 . S
C522 C521 1.349 . S
C522 C534 1.349 . S
C523 C521 1.327 . S
C523 C539 1.429 . S
C523 H545 0.950 . S
C524 H520 0.949 . S
C524 C532 1.574 . S
C524 C540 1.368 . S
H525 C533 0.950 . S
H526 C531 0.950 . S
H527 C532 0.949 . S
H528 C534 0.950 . S
H529 C535 0.950 . S
H530 C536 0.949 . S
C531 H526 0.950 . S
C531 C533 1.327 . S
C531 C537 1.429 . S
C532 C524 1.574 . S
C532 H527 0.949 . S
C532 C538 1.368 . S
C533 C517 1.349 . S
C533 H525 0.950 . S
C533 C531 1.327 . S
C534 C522 1.349 . S
C534 H528 0.950 . S
C534 C535 1.327 . S
C535 H529 0.950 . S
C535 C534 1.327 . S
C535 C539 1.429 . S
C536 C519 1.574 . S
C536 H530 0.949 . S
C536 C540 1.368 . S
C537 C518 1.429 . S
C537 C531 1.429 . S
C537 C538 1.523 . S
C538 C519 1.368 . S
C538 C532 1.368 . S
C538 C537 1.523 . S
C539 C523 1.429 . S
C539 C535 1.429 . S
C539 C540 1.523 . S
C540 C524 1.368 . S
C540 C536 1.368 . S
C540 C539 1.523 . S
H541 C516 0.950 . S
H542 C518 0.950 . S
H543 C519 0.949 . S
H544 C521 0.950 . S
H545 C523 0.950 . S
C546 C547 1.349 . S
C546 C548 1.327 . S
C546 H571 0.950 . S
C547 C546 1.349 . S
C547 C563 1.349 . S
C548 C546 1.327 . S
C548 C567 1.429 . S
C548 H572 0.950 . S
C549 C566 1.574 . S
C549 C568 1.368 . S
C549 H573 0.949 . S
H550 C554 0.949 . S
C551 C552 1.349 . S
C551 C553 1.327 1_455 S
C551 H574 0.950 . S
C552 C551 1.349 . S
C552 C564 1.349 . S
C553 C551 1.327 1_655 S
C553 C569 1.429 . S
C553 H575 0.950 . S
C554 H550 0.949 . S
C554 C562 1.574 . S
C554 C570 1.368 . S
H555 C563 0.950 . S
H556 C561 0.950 . S
H557 C562 0.949 . S
H558 C564 0.950 . S
H559 C565 0.950 . S
H560 C566 0.949 . S
C561 H556 0.950 . S
C561 C563 1.327 . S
C561 C567 1.429 . S
C562 C554 1.574 . S
C562 H557 0.949 . S
C562 C568 1.368 . S
C563 C547 1.349 . S
C563 H555 0.950 . S
C563 C561 1.327 . S
C564 C552 1.349 . S
C564 H558 0.950 . S
C564 C565 1.327 1_455 S
C565 H559 0.950 . S
C565 C564 1.327 1_655 S
C565 C569 1.429 . S
C566 C549 1.574 . S
C566 H560 0.949 . S
C566 C570 1.368 . S
C567 C548 1.429 . S
C567 C561 1.429 . S
C567 C568 1.523 . S
C568 C549 1.368 . S
C568 C562 1.368 . S
C568 C567 1.523 . S
C569 C553 1.429 . S
C569 C565 1.429 . S
C569 C570 1.523 . S
C570 C554 1.368 . S
C570 C566 1.368 . S
C570 C569 1.523 . S
H571 C546 0.950 . S
H572 C548 0.950 . S
H573 C549 0.949 . S
H574 C551 0.950 . S
H575 C553 0.950 . S
C576 C577 1.349 . S
C576 C578 1.327 . S
C576 H601 0.950 . S
C577 C576 1.349 . S
C577 C593 1.349 . S
C578 C576 1.327 . S
C578 C597 1.429 . S
C578 H602 0.950 . S
C579 C596 1.574 . S
C579 C598 1.368 . S
C579 H603 0.949 . S
H580 C584 0.949 . S
C581 C582 1.349 . S
C581 C583 1.327 . S
C581 H604 0.950 . S
C582 C581 1.349 . S
C582 C594 1.349 . S
C583 C581 1.327 . S
C583 C599 1.429 . S
C583 H605 0.950 . S
C584 H580 0.949 . S
C584 C592 1.574 . S
C584 C600 1.368 . S
H585 C593 0.950 . S
H586 C591 0.950 . S
H587 C592 0.949 . S
H588 C594 0.950 . S
H589 C595 0.950 . S
H590 C596 0.949 . S
C591 H586 0.950 . S
C591 C593 1.327 . S
C591 C597 1.429 . S
C592 C584 1.574 . S
C592 H587 0.949 . S
C592 C598 1.368 . S
C593 C577 1.349 . S
C593 H585 0.950 . S
C593 C591 1.327 . S
C594 C582 1.349 . S
C594 H588 0.950 . S
C594 C595 1.327 . S
C595 H589 0.950 . S
C595 C594 1.327 . S
C595 C599 1.429 . S
C596 C579 1.574 . S
C596 H590 0.949 . S
C596 C600 1.368 . S
C597 C578 1.429 . S
C597 C591 1.429 . S
C597 C598 1.523 . S
C598 C579 1.368 . S
C598 C592 1.368 . S
C598 C597 1.523 . S
C599 C583 1.429 . S
C599 C595 1.429 . S
C599 C600 1.523 . S
C600 C584 1.368 . S
C600 C596 1.368 . S
C600 C599 1.523 . S
H601 C576 0.950 . S
H602 C578 0.950 . S
H603 C579 0.949 . S
H604 C581 0.950 . S
H605 C583 0.950 . S
C606 C607 1.349 . S
C606 C608 1.327 . S
C606 H631 0.950 . S
C607 C606 1.349 . S
C607 C623 1.349 . S
C608 C606 1.327 . S
C608 C627 1.429 . S
C608 H632 0.950 . S
C609 C626 1.574 . S
C609 C628 1.368 . S
C609 H633 0.949 . S
H610 C614 0.949 . S
C611 C612 1.349 . S
C611 C613 1.327 . S
C611 H634 0.950 . S
C612 C611 1.349 . S
C612 C624 1.349 . S
C613 C611 1.327 . S
C613 C629 1.429 . S
C613 H635 0.950 . S
C614 H610 0.949 . S
C614 C622 1.574 . S
C614 C630 1.368 . S
H615 C623 0.950 . S
H616 C621 0.950 . S
H617 C622 0.949 . S
H618 C624 0.950 . S
H619 C625 0.950 . S
H620 C626 0.949 . S
C621 H616 0.950 . S
C621 C623 1.327 . S
C621 C627 1.429 . S
C622 C614 1.574 . S
C622 H617 0.949 . S
C622 C628 1.368 . S
C623 C607 1.349 . S
C623 H615 0.950 . S
C623 C621 1.327 . S
C624 C612 1.349 . S
C624 H618 0.950 . S
C624 C625 1.327 . S
C625 H619 0.950 . S
C625 C624 1.327 . S
C625 C629 1.429 . S
C626 C609 1.574 . S
C626 H620 0.949 . S
C626 C630 1.368 . S
C627 C608 1.429 . S
C627 C621 1.429 . S
C627 C628 1.523 . S
C628 C609 1.368 . S
C628 C622 1.368 . S
C628 C627 1.523 . S
C629 C613 1.429 . S
C629 C625 1.429 . S
C629 C630 1.523 . S
C630 C614 1.368 . S
C630 C626 1.368 . S
C630 C629 1.523 . S
H631 C606 0.950 . S
H632 C608 0.950 . S
H633 C609 0.949 . S
H634 C611 0.950 . S
H635 C613 0.950 . S
C636 C637 1.349 . S
C636 C638 1.327 . S
C636 H661 0.950 . S
C637 C636 1.349 . S
C637 C653 1.349 . S
C638 C636 1.327 . S
C638 C657 1.429 . S
C638 H662 0.950 . S
C639 C656 1.574 . S
C639 C658 1.368 . S
C639 H663 0.949 . S
H640 C644 0.949 . S
C641 C642 1.349 . S
C641 C643 1.327 . S
C641 H664 0.950 . S
C642 C641 1.349 . S
C642 C654 1.349 . S
C643 C641 1.327 . S
C643 C659 1.429 . S
C643 H665 0.950 . S
C644 H640 0.949 . S
C644 C652 1.574 . S
C644 C660 1.368 . S
H645 C653 0.950 . S
H646 C651 0.950 . S
H647 C652 0.949 . S
H648 C654 0.950 . S
H649 C655 0.950 . S
H650 C656 0.949 . S
C651 H646 0.950 . S
C651 C653 1.327 . S
C651 C657 1.429 . S
C652 C644 1.574 . S
C652 H647 0.949 . S
C652 C658 1.368 . S
C653 C637 1.349 . S
C653 H645 0.950 . S
C653 C651 1.327 . S
C654 C642 1.349 . S
C654 H648 0.950 . S
C654 C655 1.327 . S
C655 H649 0.950 . S
C655 C654 1.327 . S
C655 C659 1.429 . S
C656 C639 1.574 . S
C656 H650 0.949 . S
C656 C660 1.368 . S
C657 C638 1.429 . S
C657 C651 1.429 . S
C657 C658 1.523 . S
C658 C639 1.368 . S
C658 C652 1.368 . S
C658 C657 1.523 . S
C659 C643 1.429 . S
C659 C655 1.429 . S
C659 C660 1.523 . S
C660 C644 1.368 . S
C660 C656 1.368 . S
C660 C659 1.523 . S
H661 C636 0.950 . S
H662 C638 0.950 . S
H663 C639 0.949 . S
H664 C641 0.950 . S
H665 C643 0.950 . S
C666 C667 1.349 . S
C666 C668 1.327 . S
C666 H691 0.950 . S
C667 C666 1.349 . S
C667 C683 1.349 . S
C668 C666 1.327 . S
C668 C687 1.429 . S
C668 H692 0.950 . S
C669 C686 1.574 . S
C669 C688 1.368 . S
C669 H693 0.949 . S
H670 C674 0.949 . S
C671 C672 1.349 . S
C671 C673 1.327 . S
C671 H694 0.950 . S
C672 C671 1.349 . S
C672 C684 1.349 . S
C673 C671 1.327 . S
C673 C689 1.429 . S
C673 H695 0.950 . S
C674 H670 0.949 . S
C674 C682 1.574 . S
C674 C690 1.368 . S
H675 C683 0.950 . S
H676 C681 0.950 . S
H677 C682 0.949 . S
H678 C684 0.950 . S
H679 C685 0.950 . S
H680 C686 0.949 . S
C681 H676 0.950 . S
C681 C683 1.327 . S
C681 C687 1.429 . S
C682 C674 1.574 . S
C682 H677 0.949 . S
C682 C688 1.368 . S
C683 C667 1.349 . S
C683 H675 0.950 . S
C683 C681 1.327 . S
C684 C672 1.349 . S
C684 H678 0.950 . S
C684 C685 1.327 . S
C685 H679 0.950 . S
C685 C684 1.327 . S
C685 C689 1.429 . S
C686 C669 1.574 . S
C686 H680 0.949 . S
C686 C690 1.368 . S
C687 C668 1.429 . S
C687 C681 1.429 . S
C687 C688 1.523 . S
C688 C669 1.368 . S
C688 C682 1.368 . S
C688 C687 1.523 . S
C689 C673 1.429 . S
C689 C685 1.429 . S
C689 C690 1.523 . S
C690 C674 1.368 . S
C690 C686 1.368 . S
C690 C689 1.523 . S
H691 C666 0.950 . S
H692 C668 0.950 . S
H693 C669 0.949 . S
H694 C671 0.950 . S
H695 C673 0.950 . S
C696 C697 1.349 . S
C696 C698 1.327 . S
C696 H721 0.950 . S
C697 C696 1.349 . S
C697 C713 1.349 . S
C698 C696 1.327 . S
C698 C717 1.429 . S
C698 H722 0.950 . S
C699 C716 1.574 . S
C699 C718 1.368 . S
C699 H723 0.949 . S
H700 C704 0.949 . S
C701 C702 1.349 . S
C701 C703 1.327 . S
C701 H724 0.950 . S
C702 C701 1.349 . S
C702 C714 1.349 . S
C703 C701 1.327 . S
C703 C719 1.429 . S
C703 H725 0.950 . S
C704 H700 0.949 . S
C704 C712 1.574 . S
C704 C720 1.368 . S
H705 C713 0.950 . S
H706 C711 0.950 . S
H707 C712 0.949 . S
H708 C714 0.950 . S
H709 C715 0.950 . S
H710 C716 0.949 . S
C711 H706 0.950 . S
C711 C713 1.327 . S
C711 C717 1.429 . S
C712 C704 1.574 . S
C712 H707 0.949 . S
C712 C718 1.368 . S
C713 C697 1.349 . S
C713 H705 0.950 . S
C713 C711 1.327 . S
C714 C702 1.349 . S
C714 H708 0.950 . S
C714 C715 1.327 . S
C715 H709 0.950 . S
C715 C714 1.327 . S
C715 C719 1.429 . S
C716 C699 1.574 . S
C716 H710 0.949 . S
C716 C720 1.368 . S
C717 C698 1.429 . S
C717 C711 1.429 . S
C717 C718 1.523 . S
C718 C699 1.368 . S
C718 C712 1.368 . S
C718 C717 1.523 . S
C719 C703 1.429 . S
C719 C715 1.429 . S
C719 C720 1.523 . S
C720 C704 1.368 . S
C720 C716 1.368 . S
C720 C719 1.523 . S
H721 C696 0.950 . S
H722 C698 0.950 . S
H723 C699 0.949 . S
H724 C701 0.950 . S
H725 C703 0.950 . S
C726 C727 1.349 . S
C726 C728 1.327 . S
C726 H751 0.950 . S
C727 C726 1.349 . S
C727 C743 1.349 . S
C728 C726 1.327 . S
C728 C747 1.429 . S
C728 H752 0.950 . S
C729 C746 1.574 . S
C729 C748 1.368 . S
C729 H753 0.949 . S
H730 C734 0.949 . S
C731 C732 1.349 . S
C731 C733 1.327 . S
C731 H754 0.950 . S
C732 C731 1.349 . S
C732 C744 1.349 . S
C733 C731 1.327 . S
C733 C749 1.429 . S
C733 H755 0.950 . S
C734 H730 0.949 . S
C734 C742 1.574 . S
C734 C750 1.368 . S
H735 C743 0.950 . S
H736 C741 0.950 . S
H737 C742 0.949 . S
H738 C744 0.950 . S
H739 C745 0.950 . S
H740 C746 0.949 . S
C741 H736 0.950 . S
C741 C743 1.327 . S
C741 C747 1.429 . S
C742 C734 1.574 . S
C742 H737 0.949 . S
C742 C748 1.368 . S
C743 C727 1.349 . S
C743 H735 0.950 . S
C743 C741 1.327 . S
C744 C732 1.349 . S
C744 H738 0.950 . S
C744 C745 1.327 . S
C745 H739 0.950 . S
C745 C744 1.327 . S
C745 C749 1.429 . S
C746 C729 1.574 . S
C746 H740 0.949 . S
C746 C750 1.368 . S
C747 C728 1.429 . S
C747 C741 1.429 . S
C747 C748 1.523 . S
C748 C729 1.368 . S
C748 C742 1.368 . S
C748 C747 1.523 . S
C749 C733 1.429 . S
C749 C745 1.429 . S
C749 C750 1.523 . S
C750 C734 1.368 . S
C750 C746 1.368 . S
C750 C749 1.523 . S
H751 C726 0.950 . S
H752 C728 0.950 . S
H753 C729 0.949 . S
H754 C731 0.950 . S
H755 C733 0.950 . S
C756 C757 1.349 . S
C756 C758 1.327 . S
C756 H781 0.950 . S
C757 C756 1.349 . S
C757 C773 1.349 . S
C758 C756 1.327 . S
C758 C777 1.429 . S
C758 H782 0.950 . S
C759 C776 1.574 1_565 S
C759 C778 1.368 . S
C759 H783 0.949 . S
H760 C764 0.949 . S
C761 C762 1.349 . S
C761 C763 1.327 . S
C761 H784 0.950 . S
C762 C761 1.349 . S
C762 C774 1.349 . S
C763 C761 1.327 . S
C763 C779 1.429 . S
C763 H785 0.950 . S
C764 H760 0.949 . S
C764 C772 1.574 1_545 S
C764 C780 1.368 . S
H765 C773 0.950 . S
H766 C771 0.950 . S
H767 C772 0.949 . S
H768 C774 0.950 . S
H769 C775 0.950 . S
H770 C776 0.949 . S
C771 H766 0.950 . S
C771 C773 1.327 . S
C771 C777 1.429 . S
C772 C764 1.574 1_565 S
C772 H767 0.949 . S
C772 C778 1.368 . S
C773 C757 1.349 . S
C773 H765 0.950 . S
C773 C771 1.327 . S
C774 C762 1.349 . S
C774 H768 0.950 . S
C774 C775 1.327 . S
C775 H769 0.950 . S
C775 C774 1.327 . S
C775 C779 1.429 . S
C776 C759 1.574 1_545 S
C776 H770 0.949 . S
C776 C780 1.368 . S
C777 C758 1.429 . S
C777 C771 1.429 . S
C777 C778 1.523 . S
C778 C759 1.368 . S
C778 C772 1.368 . S
C778 C777 1.523 . S
C779 C763 1.429 . S
C779 C775 1.429 . S
C779 C780 1.523 . S
C780 C764 1.368 . S
C780 C776 1.368 . S
C780 C779 1.523 . S
H781 C756 0.950 . S
H782 C758 0.950 . S
H783 C759 0.949 . S
H784 C761 0.950 . S
H785 C763 0.950 . S
C786 C787 1.349 . S
C786 C788 1.327 . S
C786 H811 0.950 . S
C787 C786 1.349 . S
C787 C803 1.349 . S
C788 C786 1.327 . S
C788 C807 1.429 . S
C788 H812 0.950 . S
C789 C806 1.574 . S
C789 C808 1.368 . S
C789 H813 0.949 . S
H790 C794 0.949 . S
C791 C792 1.349 . S
C791 C793 1.327 . S
C791 H814 0.950 . S
C792 C791 1.349 . S
C792 C804 1.349 . S
C793 C791 1.327 . S
C793 C809 1.429 . S
C793 H815 0.950 . S
C794 H790 0.949 . S
C794 C802 1.574 . S
C794 C810 1.368 . S
H795 C803 0.950 . S
H796 C801 0.950 . S
H797 C802 0.949 1_545 S
H798 C804 0.950 . S
H799 C805 0.950 . S
H800 C806 0.949 . S
C801 H796 0.950 . S
C801 C803 1.327 . S
C801 C807 1.429 . S
C802 C794 1.574 . S
C802 H797 0.949 1_565 S
C802 C808 1.368 . S
C803 C787 1.349 . S
C803 H795 0.950 . S
C803 C801 1.327 . S
C804 C792 1.349 . S
C804 H798 0.950 . S
C804 C805 1.327 . S
C805 H799 0.950 . S
C805 C804 1.327 . S
C805 C809 1.429 . S
C806 C789 1.574 . S
C806 H800 0.949 . S
C806 C810 1.368 . S
C807 C788 1.429 . S
C807 C801 1.429 . S
C807 C808 1.523 1_545 S
C808 C789 1.368 . S
C808 C802 1.368 . S
C808 C807 1.523 1_565 S
C809 C793 1.429 . S
C809 C805 1.429 . S
C809 C810 1.523 . S
C810 C794 1.368 . S
C810 C806 1.368 . S
C810 C809 1.523 . S
H811 C786 0.950 . S
H812 C788 0.950 . S
H813 C789 0.949 . S
H814 C791 0.950 . S
H815 C793 0.950 . S
C816 C817 1.349 . S
C816 C818 1.327 . S
C816 H841 0.950 . S
C817 C816 1.349 . S
C817 C833 1.349 . S
C818 C816 1.327 . S
C818 C837 1.429 . S
C818 H842 0.950 . S
C819 C836 1.574 . S
C819 C838 1.368 . S
C819 H843 0.949 1_565 S
H820 C824 0.949 . S
C821 C822 1.349 . S
C821 C823 1.327 . S
C821 H844 0.950 . S
C822 C821 1.349 . S
C822 C834 1.349 . S
C823 C821 1.327 . S
C823 C839 1.429 . S
C823 H845 0.950 . S
C824 H820 0.949 . S
C824 C832 1.574 . S
C824 C840 1.368 . S
H825 C833 0.950 . S
H826 C831 0.950 . S
H827 C832 0.949 . S
H828 C834 0.950 . S
H829 C835 0.950 . S
H830 C836 0.949 . S
C831 H826 0.950 . S
C831 C833 1.327 . S
C831 C837 1.429 . S
C832 C824 1.574 . S
C832 H827 0.949 . S
C832 C838 1.368 . S
C833 C817 1.349 . S
C833 H825 0.950 . S
C833 C831 1.327 . S
C834 C822 1.349 . S
C834 H828 0.950 . S
C834 C835 1.327 . S
C835 H829 0.950 . S
C835 C834 1.327 . S
C835 C839 1.429 . S
C836 C819 1.574 . S
C836 H830 0.949 . S
C836 C840 1.368 . S
C837 C818 1.429 . S
C837 C831 1.429 . S
C837 C838 1.523 1_545 S
C838 C819 1.368 . S
C838 C832 1.368 . S
C838 C837 1.523 1_565 S
C839 C823 1.429 . S
C839 C835 1.429 . S
C839 C840 1.523 . S
C840 C824 1.368 . S
C840 C836 1.368 . S
C840 C839 1.523 . S
H841 C816 0.950 . S
H842 C818 0.950 . S
H843 C819 0.949 1_545 S
H844 C821 0.950 . S
H845 C823 0.950 . S
C846 C847 1.349 . S
C846 C848 1.327 . S
C846 H871 0.950 . S
C847 C846 1.349 . S
C847 C863 1.349 . S
C848 C846 1.327 . S
C848 C867 1.429 . S
C848 H872 0.950 . S
C849 C866 1.574 1_565 S
C849 C868 1.368 . S
C849 H873 0.949 . S
H850 C854 0.949 . S
C851 C852 1.349 . S
C851 C853 1.327 . S
C851 H874 0.950 . S
C852 C851 1.349 . S
C852 C864 1.349 . S
C853 C851 1.327 . S
C853 C869 1.429 . S
C853 H875 0.950 . S
C854 H850 0.949 . S
C854 C862 1.574 1_545 S
C854 C870 1.368 . S
H855 C863 0.950 . S
H856 C861 0.950 . S
H857 C862 0.949 . S
H858 C864 0.950 . S
H859 C865 0.950 . S
H860 C866 0.949 . S
C861 H856 0.950 . S
C861 C863 1.327 . S
C861 C867 1.429 . S
C862 C854 1.574 1_565 S
C862 H857 0.949 . S
C862 C868 1.368 . S
C863 C847 1.349 . S
C863 H855 0.950 . S
C863 C861 1.327 . S
C864 C852 1.349 . S
C864 H858 0.950 . S
C864 C865 1.327 . S
C865 H859 0.950 . S
C865 C864 1.327 . S
C865 C869 1.429 . S
C866 C849 1.574 1_545 S
C866 H860 0.949 . S
C866 C870 1.368 . S
C867 C848 1.429 . S
C867 C861 1.429 . S
C867 C868 1.523 . S
C868 C849 1.368 . S
C868 C862 1.368 . S
C868 C867 1.523 . S
C869 C853 1.429 . S
C869 C865 1.429 . S
C869 C870 1.523 . S
C870 C854 1.368 . S
C870 C866 1.368 . S
C870 C869 1.523 . S
H871 C846 0.950 . S
H872 C848 0.950 . S
H873 C849 0.949 . S
H874 C851 0.950 . S
H875 C853 0.950 . S
C876 C877 1.349 . S
C876 C878 1.327 1_554 S
C876 H901 0.950 . S
C877 C876 1.349 . S
C877 C893 1.352 . S
C878 C876 1.327 1_556 S
C878 C897 1.429 . S
C878 H902 0.950 . S
C879 C896 1.574 . S
C879 C898 1.368 . S
C879 H903 0.949 . S
H880 C884 0.949 . S
C881 C882 1.349 . S
C881 C883 1.327 . S
C881 H904 0.950 . S
C882 C881 1.349 . S
C882 C894 1.349 . S
C883 C881 1.327 . S
C883 C899 1.429 . S
C883 H905 0.950 . S
C884 H880 0.949 . S
C884 C892 1.574 . S
C884 C900 1.368 . S
H885 C893 0.952 . S
H886 C891 0.950 . S
H887 C892 0.949 . S
H888 C894 0.950 . S
H889 C895 0.950 . S
H890 C896 0.949 . S
C891 H886 0.950 . S
C891 C893 1.321 1_556 S
C891 C897 1.429 . S
C892 C884 1.574 . S
C892 H887 0.949 . S
C892 C898 1.368 . S
C893 C877 1.352 . S
C893 H885 0.952 . S
C893 C891 1.321 1_554 S
C894 C882 1.349 . S
C894 H888 0.950 . S
C894 C895 1.327 . S
C895 H889 0.950 . S
C895 C894 1.327 . S
C895 C899 1.429 . S
C896 C879 1.574 . S
C896 H890 0.949 . S
C896 C900 1.368 . S
C897 C878 1.429 . S
C897 C891 1.429 . S
C897 C898 1.523 . S
C898 C879 1.368 . S
C898 C892 1.368 . S
C898 C897 1.523 . S
C899 C883 1.429 . S
C899 C895 1.429 . S
C899 C900 1.523 . S
C900 C884 1.368 . S
C900 C896 1.368 . S
C900 C899 1.523 . S
H901 C876 0.950 . S
H902 C878 0.950 . S
H903 C879 0.949 . S
H904 C881 0.950 . S
H905 C883 0.950 . S
C906 C907 1.349 . S
C906 C908 1.327 . S
C906 H931 0.950 . S
C907 C906 1.349 . S
C907 C923 1.349 . S
C908 C906 1.327 . S
C908 C927 1.429 . S
C908 H932 0.950 . S
C909 C926 1.574 . S
C909 C928 1.368 . S
C909 H933 0.949 . S
H910 C914 0.949 . S
C911 C912 1.349 . S
C911 C913 1.327 . S
C911 H934 0.950 . S
C912 C911 1.349 . S
C912 C924 1.349 . S
C913 C911 1.327 . S
C913 C929 1.429 . S
C913 H935 0.950 . S
C914 H910 0.949 . S
C914 C922 1.574 . S
C914 C930 1.368 . S
H915 C923 0.950 . S
H916 C921 0.950 . S
H917 C922 0.949 . S
H918 C924 0.950 . S
H919 C925 0.950 . S
H920 C926 0.949 . S
C921 H916 0.950 . S
C921 C923 1.327 . S
C921 C927 1.429 . S
C922 C914 1.574 . S
C922 H917 0.949 . S
C922 C928 1.368 . S
C923 C907 1.349 . S
C923 H915 0.950 . S
C923 C921 1.327 . S
C924 C912 1.349 . S
C924 H918 0.950 . S
C924 C925 1.327 . S
C925 H919 0.950 . S
C925 C924 1.327 . S
C925 C929 1.429 . S
C926 C909 1.574 . S
C926 H920 0.949 . S
C926 C930 1.368 . S
C927 C908 1.429 . S
C927 C921 1.429 . S
C927 C928 1.523 . S
C928 C909 1.368 . S
C928 C922 1.368 . S
C928 C927 1.523 . S
C929 C913 1.429 . S
C929 C925 1.429 . S
C929 C930 1.523 . S
C930 C914 1.368 . S
C930 C926 1.368 . S
C930 C929 1.523 . S
H931 C906 0.950 . S
H932 C908 0.950 . S
H933 C909 0.949 . S
H934 C911 0.950 . S
H935 C913 0.950 . S
C936 C937 1.349 . S
C936 C938 1.327 . S
C936 H961 0.950 . S
C937 C936 1.349 . S
C937 C953 1.349 . S
C938 C936 1.327 . S
C938 C957 1.429 . S
C938 H962 0.950 . S
C939 C956 1.574 . S
C939 C958 1.368 . S
C939 H963 0.949 . S
H940 C944 0.949 . S
C941 C942 1.349 . S
C941 C943 1.327 . S
C941 H964 0.950 . S
C942 C941 1.349 . S
C942 C954 1.349 . S
C943 C941 1.327 . S
C943 C959 1.429 . S
C943 H965 0.950 . S
C944 H940 0.949 . S
C944 C952 1.574 . S
C944 C960 1.368 . S
H945 C953 0.950 . S
H946 C951 0.950 . S
H947 C952 0.949 . S
H948 C954 0.950 . S
H949 C955 0.950 . S
H950 C956 0.949 . S
C951 H946 0.950 . S
C951 C953 1.327 . S
C951 C957 1.429 . S
C952 C944 1.574 . S
C952 H947 0.949 . S
C952 C958 1.368 . S
C953 C937 1.349 . S
C953 H945 0.950 . S
C953 C951 1.327 . S
C954 C942 1.349 . S
C954 H948 0.950 . S
C954 C955 1.327 . S
C955 H949 0.950 . S
C955 C954 1.327 . S
C955 C959 1.429 . S
C956 C939 1.574 . S
C956 H950 0.949 . S
C956 C960 1.368 . S
C957 C938 1.429 . S
C957 C951 1.429 . S
C957 C958 1.523 . S
C958 C939 1.368 . S
C958 C952 1.368 . S
C958 C957 1.523 . S
C959 C943 1.429 . S
C959 C955 1.429 . S
C959 C960 1.523 . S
C960 C944 1.368 . S
C960 C956 1.368 . S
C960 C959 1.523 . S
H961 C936 0.950 . S
H962 C938 0.950 . S
H963 C939 0.949 . S
H964 C941 0.950 . S
H965 C943 0.950 . S
C966 C967 1.349 . S
C966 C968 1.327 . S
C966 H991 0.950 . S
C967 C966 1.349 . S
C967 C983 1.349 . S
C968 C966 1.327 . S
C968 C987 1.429 . S
C968 H992 0.950 . S
C969 C986 1.574 . S
C969 C988 1.368 . S
C969 H993 0.949 . S
H970 C974 0.949 . S
C971 C972 1.349 . S
C971 C973 1.327 . S
C971 H994 0.950 . S
C972 C971 1.349 . S
C972 C984 1.349 . S
C973 C971 1.327 . S
C973 C989 1.429 . S
C973 H995 0.950 . S
C974 H970 0.949 . S
C974 C982 1.574 . S
C974 C990 1.368 . S
H975 C983 0.950 . S
H976 C981 0.950 . S
H977 C982 0.949 . S
H978 C984 0.950 . S
H979 C985 0.950 . S
H980 C986 0.949 . S
C981 H976 0.950 . S
C981 C983 1.327 . S
C981 C987 1.429 . S
C982 C974 1.574 . S
C982 H977 0.949 . S
C982 C988 1.368 . S
C983 C967 1.349 . S
C983 H975 0.950 . S
C983 C981 1.327 . S
C984 C972 1.349 . S
C984 H978 0.950 . S
C984 C985 1.327 . S
C985 H979 0.950 . S
C985 C984 1.327 . S
C985 C989 1.429 . S
C986 C969 1.574 . S
C986 H980 0.949 . S
C986 C990 1.368 . S
C987 C968 1.429 . S
C987 C981 1.429 . S
C987 C988 1.523 . S
C988 C969 1.368 . S
C988 C982 1.368 . S
C988 C987 1.523 . S
C989 C973 1.429 . S
C989 C985 1.429 . S
C989 C990 1.523 . S
C990 C974 1.368 . S
C990 C986 1.368 . S
C990 C989 1.523 . S
H991 C966 0.950 . S
H992 C968 0.950 . S
H993 C969 0.949 . S
H994 C971 0.950 . S
H995 C973 0.950 . S
C996 C997 1.349 . S
C996 C998 1.327 1_556 S
C996 H1021 0.950 . S
C997 C996 1.349 . S
C997 C1013 1.349 . S
C998 C996 1.327 1_554 S
C998 C1017 1.429 . S
C998 H1022 0.950 . S
C999 C1016 1.574 . S
C999 C1018 1.368 . S
C999 H1023 0.949 . S
H1000 C1004 0.949 . S
C1001 C1002 1.349 . S
C1001 C1003 1.327 . S
C1001 H1024 0.950 . S
C1002 C1001 1.349 . S
C1002 C1014 1.349 . S
C1003 C1001 1.327 . S
C1003 C1019 1.429 . S
C1003 H1025 0.950 . S
C1004 H1000 0.949 . S
C1004 C1012 1.574 . S
C1004 C1020 1.368 . S
H1005 C1013 0.950 . S
H1006 C1011 0.950 . S
H1007 C1012 0.949 . S
H1008 C1014 0.950 . S
H1009 C1015 0.950 . S
H1010 C1016 0.949 . S
C1011 H1006 0.950 . S
C1011 C1013 1.327 1_554 S
C1011 C1017 1.429 . S
C1012 C1004 1.574 . S
C1012 H1007 0.949 . S
C1012 C1018 1.368 . S
C1013 C997 1.349 . S
C1013 H1005 0.950 . S
C1013 C1011 1.327 1_556 S
C1014 C1002 1.349 . S
C1014 H1008 0.950 . S
C1014 C1015 1.327 . S
C1015 H1009 0.950 . S
C1015 C1014 1.327 . S
C1015 C1019 1.429 . S
C1016 C999 1.574 . S
C1016 H1010 0.949 . S
C1016 C1020 1.368 . S
C1017 C998 1.429 . S
C1017 C1011 1.429 . S
C1017 C1018 1.523 . S
C1018 C999 1.368 . S
C1018 C1012 1.368 . S
C1018 C1017 1.523 . S
C1019 C1003 1.429 . S
C1019 C1015 1.429 . S
C1019 C1020 1.523 . S
C1020 C1004 1.368 . S
C1020 C1016 1.368 . S
C1020 C1019 1.523 . S
H1021 C996 0.950 . S
H1022 C998 0.950 . S
H1023 C999 0.949 . S
H1024 C1001 0.950 . S
H1025 C1003 0.950 . S
C1026 C1027 1.349 . S
C1026 C1028 1.327 . S
C1026 H1051 0.950 . S
C1027 C1026 1.349 . S
C1027 C1043 1.349 . S
C1028 C1026 1.327 . S
C1028 C1047 1.429 . S
C1028 H1052 0.950 . S
C1029 C1046 1.574 . S
C1029 C1048 1.368 . S
C1029 H1053 0.949 . S
H1030 C1034 0.949 . S
C1031 C1032 1.349 . S
C1031 C1033 1.327 . S
C1031 H1054 0.950 . S
C1032 C1031 1.349 . S
C1032 C1044 1.349 . S
C1033 C1031 1.327 . S
C1033 C1049 1.429 . S
C1033 H1055 0.950 . S
C1034 H1030 0.949 . S
C1034 C1042 1.574 . S
C1034 C1050 1.368 . S
H1035 C1043 0.950 . S
H1036 C1041 0.950 . S
H1037 C1042 0.949 . S
H1038 C1044 0.950 . S
H1039 C1045 0.950 . S
H1040 C1046 0.949 . S
C1041 H1036 0.950 . S
C1041 C1043 1.327 . S
C1041 C1047 1.429 . S
C1042 C1034 1.574 . S
C1042 H1037 0.949 . S
C1042 C1048 1.368 . S
C1043 C1027 1.349 . S
C1043 H1035 0.950 . S
C1043 C1041 1.327 . S
C1044 C1032 1.349 . S
C1044 H1038 0.950 . S
C1044 C1045 1.327 . S
C1045 H1039 0.950 . S
C1045 C1044 1.327 . S
C1045 C1049 1.429 . S
C1046 C1029 1.574 . S
C1046 H1040 0.949 . S
C1046 C1050 1.368 . S
C1047 C1028 1.429 . S
C1047 C1041 1.429 . S
C1047 C1048 1.523 . S
C1048 C1029 1.368 . S
C1048 C1042 1.368 . S
C1048 C1047 1.523 . S
C1049 C1033 1.429 . S
C1049 C1045 1.429 . S
C1049 C1050 1.523 . S
C1050 C1034 1.368 . S
C1050 C1046 1.368 . S
C1050 C1049 1.523 . S
H1051 C1026 0.950 . S
H1052 C1028 0.950 . S
H1053 C1029 0.949 . S
H1054 C1031 0.950 . S
H1055 C1033 0.950 . S
C1056 C1057 1.349 . S
C1056 C1058 1.327 . S
C1056 H1081 0.950 . S
C1057 C1056 1.349 . S
C1057 C1073 1.349 . S
C1058 C1056 1.327 . S
C1058 C1077 1.429 . S
C1058 H1082 0.950 . S
C1059 C1076 1.574 . S
C1059 C1078 1.368 . S
C1059 H1083 0.949 . S
H1060 C1064 0.949 . S
C1061 C1062 1.349 . S
C1061 C1063 1.327 . S
C1061 H1084 0.950 . S
C1062 C1061 1.349 . S
C1062 C1074 1.349 . S
C1063 C1061 1.327 . S
C1063 C1079 1.429 . S
C1063 H1085 0.950 . S
C1064 H1060 0.949 . S
C1064 C1072 1.574 . S
C1064 C1080 1.368 . S
H1065 C1073 0.950 . S
H1066 C1071 0.950 . S
H1067 C1072 0.949 . S
H1068 C1074 0.950 . S
H1069 C1075 0.950 . S
H1070 C1076 0.949 . S
C1071 H1066 0.950 . S
C1071 C1073 1.327 . S
C1071 C1077 1.429 . S
C1072 C1064 1.574 . S
C1072 H1067 0.949 . S
C1072 C1078 1.368 . S
C1073 C1057 1.349 . S
C1073 H1065 0.950 . S
C1073 C1071 1.327 . S
C1074 C1062 1.349 . S
C1074 H1068 0.950 . S
C1074 C1075 1.327 . S
C1075 H1069 0.950 . S
C1075 C1074 1.327 . S
C1075 C1079 1.429 . S
C1076 C1059 1.574 . S
C1076 H1070 0.949 . S
C1076 C1080 1.368 . S
C1077 C1058 1.429 . S
C1077 C1071 1.429 . S
C1077 C1078 1.523 . S
C1078 C1059 1.368 . S
C1078 C1072 1.368 . S
C1078 C1077 1.523 . S
C1079 C1063 1.429 . S
C1079 C1075 1.429 . S
C1079 C1080 1.523 . S
C1080 C1064 1.368 . S
C1080 C1076 1.368 . S
C1080 C1079 1.523 . S
H1081 C1056 0.950 . S
H1082 C1058 0.950 . S
H1083 C1059 0.949 . S
H1084 C1061 0.950 . S
H1085 C1063 0.950 . S
C1086 C1087 1.349 . S
C1086 C1088 1.327 . S
C1086 H1111 0.950 . S
C1087 C1086 1.349 . S
C1087 C1103 1.349 . S
C1088 C1086 1.327 . S
C1088 C1107 1.429 . S
C1088 H1112 0.950 . S
C1089 C1106 1.574 . S
C1089 C1108 1.368 . S
C1089 H1113 0.949 . S
H1090 C1094 0.949 . S
C1091 C1092 1.349 . S
C1091 C1093 1.327 . S
C1091 H1114 0.950 . S
C1092 C1091 1.349 . S
C1092 C1104 1.349 . S
C1093 C1091 1.327 . S
C1093 C1109 1.429 . S
C1093 H1115 0.950 . S
C1094 H1090 0.949 . S
C1094 C1102 1.574 . S
C1094 C1110 1.368 . S
H1095 C1103 0.950 . S
H1096 C1101 0.950 . S
H1097 C1102 0.949 . S
H1098 C1104 0.950 . S
H1099 C1105 0.950 . S
H1100 C1106 0.949 . S
C1101 H1096 0.950 . S
C1101 C1103 1.327 . S
C1101 C1107 1.429 . S
C1102 C1094 1.574 . S
C1102 H1097 0.949 . S
C1102 C1108 1.368 . S
C1103 C1087 1.349 . S
C1103 H1095 0.950 . S
C1103 C1101 1.327 . S
C1104 C1092 1.349 . S
C1104 H1098 0.950 . S
C1104 C1105 1.327 . S
C1105 H1099 0.950 . S
C1105 C1104 1.327 . S
C1105 C1109 1.429 . S
C1106 C1089 1.574 . S
C1106 H1100 0.949 . S
C1106 C1110 1.368 . S
C1107 C1088 1.429 . S
C1107 C1101 1.429 . S
C1107 C1108 1.523 . S
C1108 C1089 1.368 . S
C1108 C1102 1.368 . S
C1108 C1107 1.523 . S
C1109 C1093 1.429 . S
C1109 C1105 1.429 . S
C1109 C1110 1.523 . S
C1110 C1094 1.368 . S
C1110 C1106 1.368 . S
C1110 C1109 1.523 . S
H1111 C1086 0.950 . S
H1112 C1088 0.950 . S
H1113 C1089 0.949 . S
H1114 C1091 0.950 . S
H1115 C1093 0.950 . S
C402 C319 1.515 . S
C397 C16 1.649 . S
C432 C337 1.280 . S
C427 C55 1.369 . S
C457 C99 1.342 . S
C462 C361 1.248 . S
C492 C391 1.265 . S
C487 C138 1.403 . S
C522 C379 1.254 . S
C517 C172 1.349 . S
C547 C216 1.355 . S
C552 C332 1.275 . S
C577 C255 1.639 . S
C582 C352 1.510 . S
C607 C289 1.424 1_655 S
C612 C357 1.283 . S
C637 C294 1.344 . S
C642 C373 1.263 . S
C667 C211 1.426 . S
C672 C328 1.280 . S
C702 C395 1.285 . S
C697 C133 1.365 . S
C732 C340 1.264 . S
C727 C60 1.409 . S
C757 C94 1.642 . S
C762 C358 1.509 . S
C787 C21 1.357 . S
C792 C316 1.262 . S
C822 C336 1.242 . S
C817 C250 1.330 . S
C852 C382 1.522 . S
C847 C177 1.660 . S
C882 C378 1.321 . S
C877 C1 1.484 . S
C912 C331 1.324 . S
C907 C40 1.418 . S
C937 C79 1.464 . S
C942 C353 1.297 . S
C967 C118 1.443 . S
C972 C374 1.345 . S
C1002 C315 1.320 . S
C997 C157 1.490 . S
C1027 C196 1.466 . S
C1032 C349 1.363 . S
C1062 C370 1.336 . S
C1057 C235 1.508 . S
C1092 C394 1.338 . S
C1087 C274 1.441 . S
