# Generated by pormake.
# Topology ptr, (4,4)-cn, num edge types: 1
# Building blocks:
#     Node 0, Type 0, BuildingBlock: CEKHIL_clean_sbu_0, # of connection points: 4
#     Node 1, Type 0, BuildingBlock: CEKHIL_clean_sbu_0, # of connection points: 4
#     Node 2, Type 0, BuildingBlock: CEKHIL_clean_sbu_0, # of connection points: 4
#     Node 3, Type 0, BuildingBlock: CEKHIL_clean_sbu_0, # of connection points: 4
#     Node 4, Type 0, BuildingBlock: CEKHIL_clean_sbu_0, # of connection points: 4
#     Node 5, Type 0, BuildingBlock: CEKHIL_clean_sbu_0, # of connection points: 4
#     Node 6, Type 0, BuildingBlock: CEKHIL_clean_sbu_0, # of connection points: 4
#     Node 7, Type 0, BuildingBlock: CEKHIL_clean_sbu_0, # of connection points: 4
#     Node 8, Type 0, BuildingBlock: CEKHIL_clean_sbu_0, # of connection points: 4
#     Node 9, Type 0, BuildingBlock: CEKHIL_clean_sbu_0, # of connection points: 4
#     Node 10, Type 0, BuildingBlock: CEKHIL_clean_sbu_0, # of connection points: 4
#     Node 11, Type 0, BuildingBlock: CEKHIL_clean_sbu_0, # of connection points: 4
#     Node 12, Type 0, BuildingBlock: CEKHIL_clean_sbu_0, # of connection points: 4
#     Node 13, Type 0, BuildingBlock: CEKHIL_clean_sbu_0, # of connection points: 4
#     Node 14, Type 0, BuildingBlock: CEKHIL_clean_sbu_0, # of connection points: 4
#     Node 15, Type 0, BuildingBlock: CEKHIL_clean_sbu_0, # of connection points: 4
#     Node 16, Type 0, BuildingBlock: CEKHIL_clean_sbu_0, # of connection points: 4
#     Node 17, Type 0, BuildingBlock: CEKHIL_clean_sbu_0, # of connection points: 4
#     Node 18, Type 1, BuildingBlock: GIZVER_clean_linker_0, # of connection points: 4
#     Node 19, Type 1, BuildingBlock: GIZVER_clean_linker_0, # of connection points: 4
#     Node 20, Type 1, BuildingBlock: GIZVER_clean_linker_0, # of connection points: 4
#     Node 21, Type 1, BuildingBlock: GIZVER_clean_linker_0, # of connection points: 4
#     Node 22, Type 1, BuildingBlock: GIZVER_clean_linker_0, # of connection points: 4
#     Node 23, Type 1, BuildingBlock: GIZVER_clean_linker_0, # of connection points: 4
#     Node 24, Type 1, BuildingBlock: GIZVER_clean_linker_0, # of connection points: 4
#     Node 25, Type 1, BuildingBlock: GIZVER_clean_linker_0, # of connection points: 4
#     Node 26, Type 1, BuildingBlock: GIZVER_clean_linker_0, # of connection points: 4
#     Node 27, Type 1, BuildingBlock: GIZVER_clean_linker_0, # of connection points: 4
#     Node 28, Type 1, BuildingBlock: GIZVER_clean_linker_0, # of connection points: 4
#     Node 29, Type 1, BuildingBlock: GIZVER_clean_linker_0, # of connection points: 4
#     Node 30, Type 1, BuildingBlock: GIZVER_clean_linker_0, # of connection points: 4
#     Node 31, Type 1, BuildingBlock: GIZVER_clean_linker_0, # of connection points: 4
#     Node 32, Type 1, BuildingBlock: GIZVER_clean_linker_0, # of connection points: 4
#     Node 33, Type 1, BuildingBlock: GIZVER_clean_linker_0, # of connection points: 4
#     Node 34, Type 1, BuildingBlock: GIZVER_clean_linker_0, # of connection points: 4
#     Node 35, Type 1, BuildingBlock: GIZVER_clean_linker_0, # of connection points: 4
#     Edge 36, Type (0, 1), BuildingBlock: OJICUG_clean_linker_0, # of connection points: 2
#     Edge 37, Type (0, 1), BuildingBlock: OJICUG_clean_linker_0, # of connection points: 2
#     Edge 38, Type (0, 1), BuildingBlock: OJICUG_clean_linker_0, # of connection points: 2
#     Edge 39, Type (0, 1), BuildingBlock: OJICUG_clean_linker_0, # of connection points: 2
#     Edge 40, Type (0, 1), BuildingBlock: OJICUG_clean_linker_0, # of connection points: 2
#     Edge 41, Type (0, 1), BuildingBlock: OJICUG_clean_linker_0, # of connection points: 2
#     Edge 42, Type (0, 1), BuildingBlock: OJICUG_clean_linker_0, # of connection points: 2
#     Edge 43, Type (0, 1), BuildingBlock: OJICUG_clean_linker_0, # of connection points: 2
#     Edge 44, Type (0, 1), BuildingBlock: OJICUG_clean_linker_0, # of connection points: 2
#     Edge 45, Type (0, 1), BuildingBlock: OJICUG_clean_linker_0, # of connection points: 2
#     Edge 46, Type (0, 1), BuildingBlock: OJICUG_clean_linker_0, # of connection points: 2
#     Edge 47, Type (0, 1), BuildingBlock: OJICUG_clean_linker_0, # of connection points: 2
#     Edge 48, Type (0, 1), BuildingBlock: OJICUG_clean_linker_0, # of connection points: 2
#     Edge 49, Type (0, 1), BuildingBlock: OJICUG_clean_linker_0, # of connection points: 2
#     Edge 50, Type (0, 1), BuildingBlock: OJICUG_clean_linker_0, # of connection points: 2
#     Edge 51, Type (0, 1), BuildingBlock: OJICUG_clean_linker_0, # of connection points: 2
#     Edge 52, Type (0, 1), BuildingBlock: OJICUG_clean_linker_0, # of connection points: 2
#     Edge 53, Type (0, 1), BuildingBlock: OJICUG_clean_linker_0, # of connection points: 2
#     Edge 54, Type (0, 1), BuildingBlock: OJICUG_clean_linker_0, # of connection points: 2
#     Edge 55, Type (0, 1), BuildingBlock: OJICUG_clean_linker_0, # of connection points: 2
#     Edge 56, Type (0, 1), BuildingBlock: OJICUG_clean_linker_0, # of connection points: 2
#     Edge 57, Type (0, 1), BuildingBlock: OJICUG_clean_linker_0, # of connection points: 2
#     Edge 58, Type (0, 1), BuildingBlock: OJICUG_clean_linker_0, # of connection points: 2
#     Edge 59, Type (0, 1), BuildingBlock: OJICUG_clean_linker_0, # of connection points: 2
#     Edge 60, Type (0, 1), BuildingBlock: OJICUG_clean_linker_0, # of connection points: 2
#     Edge 61, Type (0, 1), BuildingBlock: OJICUG_clean_linker_0, # of connection points: 2
#     Edge 62, Type (0, 1), BuildingBlock: OJICUG_clean_linker_0, # of connection points: 2
#     Edge 63, Type (0, 1), BuildingBlock: OJICUG_clean_linker_0, # of connection points: 2
#     Edge 64, Type (0, 1), BuildingBlock: OJICUG_clean_linker_0, # of connection points: 2
#     Edge 65, Type (0, 1), BuildingBlock: OJICUG_clean_linker_0, # of connection points: 2
#     Edge 66, Type (0, 1), BuildingBlock: OJICUG_clean_linker_0, # of connection points: 2
#     Edge 67, Type (0, 1), BuildingBlock: OJICUG_clean_linker_0, # of connection points: 2
#     Edge 68, Type (0, 1), BuildingBlock: OJICUG_clean_linker_0, # of connection points: 2
#     Edge 69, Type (0, 1), BuildingBlock: OJICUG_clean_linker_0, # of connection points: 2
#     Edge 70, Type (0, 1), BuildingBlock: OJICUG_clean_linker_0, # of connection points: 2
#     Edge 71, Type (0, 1), BuildingBlock: OJICUG_clean_linker_0, # of connection points: 2
#     Edge 72, Type (0, 1), BuildingBlock: OJICUG_clean_linker_0, # of connection points: 2
#     Edge 73, Type (0, 1), BuildingBlock: OJICUG_clean_linker_0, # of connection points: 2
#     Edge 74, Type (0, 1), BuildingBlock: OJICUG_clean_linker_0, # of connection points: 2
#     Edge 75, Type (0, 1), BuildingBlock: OJICUG_clean_linker_0, # of connection points: 2
#     Edge 76, Type (0, 1), BuildingBlock: OJICUG_clean_linker_0, # of connection points: 2
#     Edge 77, Type (0, 1), BuildingBlock: OJICUG_clean_linker_0, # of connection points: 2
#     Edge 78, Type (0, 1), BuildingBlock: OJICUG_clean_linker_0, # of connection points: 2
#     Edge 79, Type (0, 1), BuildingBlock: OJICUG_clean_linker_0, # of connection points: 2
#     Edge 80, Type (0, 1), BuildingBlock: OJICUG_clean_linker_0, # of connection points: 2
#     Edge 81, Type (0, 1), BuildingBlock: OJICUG_clean_linker_0, # of connection points: 2
#     Edge 82, Type (0, 1), BuildingBlock: OJICUG_clean_linker_0, # of connection points: 2
#     Edge 83, Type (0, 1), BuildingBlock: OJICUG_clean_linker_0, # of connection points: 2
#     Edge 84, Type (0, 1), BuildingBlock: OJICUG_clean_linker_0, # of connection points: 2
#     Edge 85, Type (0, 1), BuildingBlock: OJICUG_clean_linker_0, # of connection points: 2
#     Edge 86, Type (0, 1), BuildingBlock: OJICUG_clean_linker_0, # of connection points: 2
#     Edge 87, Type (0, 1), BuildingBlock: OJICUG_clean_linker_0, # of connection points: 2
#     Edge 88, Type (0, 1), BuildingBlock: OJICUG_clean_linker_0, # of connection points: 2
#     Edge 89, Type (0, 1), BuildingBlock: OJICUG_clean_linker_0, # of connection points: 2
#     Edge 90, Type (0, 1), BuildingBlock: OJICUG_clean_linker_0, # of connection points: 2
#     Edge 91, Type (0, 1), BuildingBlock: OJICUG_clean_linker_0, # of connection points: 2
#     Edge 92, Type (0, 1), BuildingBlock: OJICUG_clean_linker_0, # of connection points: 2
#     Edge 93, Type (0, 1), BuildingBlock: OJICUG_clean_linker_0, # of connection points: 2
#     Edge 94, Type (0, 1), BuildingBlock: OJICUG_clean_linker_0, # of connection points: 2
#     Edge 95, Type (0, 1), BuildingBlock: OJICUG_clean_linker_0, # of connection points: 2
#     Edge 96, Type (0, 1), BuildingBlock: OJICUG_clean_linker_0, # of connection points: 2
#     Edge 97, Type (0, 1), BuildingBlock: OJICUG_clean_linker_0, # of connection points: 2
#     Edge 98, Type (0, 1), BuildingBlock: OJICUG_clean_linker_0, # of connection points: 2
#     Edge 99, Type (0, 1), BuildingBlock: OJICUG_clean_linker_0, # of connection points: 2
#     Edge 100, Type (0, 1), BuildingBlock: OJICUG_clean_linker_0, # of connection points: 2
#     Edge 101, Type (0, 1), BuildingBlock: OJICUG_clean_linker_0, # of connection points: 2
#     Edge 102, Type (0, 1), BuildingBlock: OJICUG_clean_linker_0, # of connection points: 2
#     Edge 103, Type (0, 1), BuildingBlock: OJICUG_clean_linker_0, # of connection points: 2
#     Edge 104, Type (0, 1), BuildingBlock: OJICUG_clean_linker_0, # of connection points: 2
#     Edge 105, Type (0, 1), BuildingBlock: OJICUG_clean_linker_0, # of connection points: 2
#     Edge 106, Type (0, 1), BuildingBlock: OJICUG_clean_linker_0, # of connection points: 2
#     Edge 107, Type (0, 1), BuildingBlock: OJICUG_clean_linker_0, # of connection points: 2
# Relax obj value: 0.048
# Max RMSD: 0.108
# Mean RMSD: 0.077
data_MOF--net-ptr--node1-CEKHIL_clean_sbu_0--node2-GIZVER_clean_linker_0--edge1-OJICUG_clean_linker_0
_symmetry_space_group_name_H-M    P1
_symmetry_Int_Tables_number       1
_symmetry_cell_setting            triclinic
loop_
_symmetry_equiv_pos_as_xyz
'x, y, z'
_cell_length_a     58.954529
_cell_length_b     58.221886
_cell_length_c     36.64806
_cell_angle_alpha  91.211041
_cell_angle_beta   89.867141
_cell_angle_gamma 121.13303
loop_
_atom_site_label
_atom_site_type_symbol
_atom_site_fract_x
_atom_site_fract_y
_atom_site_fract_z
_atom_type_partial_charge
Co0 Co 0.02193 0.37994 -0.00361 0.0
O1 O 0.03605 0.36368 0.0268 0.0
O2 O 0.05966 0.39626 0.98812 0.0
C3 C 0.98597 0.34075 0.97862 0.0
O4 O 0.01439 0.40095 0.95928 0.0
Co5 Co 0.96745 0.37432 0.01131 0.0
O6 O 0.97324 0.39367 0.96541 0.0
C7 C 0.01425 0.41223 0.05572 0.0
C8 C 0.0588 0.37972 0.01216 0.0
C9 C 0.99548 0.40453 0.94936 0.0
O10 O 0.02927 0.4075 0.03556 0.0
O11 O 0.98904 0.39997 0.05191 0.0
O12 O 0.00855 0.3495 0.96243 0.0
O13 O 0.98607 0.35505 0.00608 0.0
Co14 Co 0.63877 0.63529 -0.00053 0.0
O15 O 0.66806 0.64891 0.96637 0.0
O16 O 0.6585 0.61728 0.00638 0.0
C17 C 0.6466 0.67622 0.01676 0.0
O18 O 0.61111 0.61701 0.03928 0.0
Co19 Co 0.59236 0.64537 0.98873 0.0
O20 O 0.5814 0.6302 0.03779 0.0
C21 C 0.59403 0.603 0.94478 0.0
C22 C 0.67428 0.63286 0.98128 0.0
C23 C 0.59092 0.61729 0.05235 0.0
O24 O 0.61458 0.60699 0.96264 0.0
O25 O 0.58353 0.61736 0.94953 0.0
O26 O 0.65962 0.66633 0.03159 0.0
O27 O 0.63048 0.66196 0.9906 0.0
Co28 Co 0.36616 1.00192 0.00078 0.0
O29 O 0.35165 0.02003 0.97516 0.0
O30 O 0.3867 0.04026 0.01189 0.0
C31 C 0.3273 0.96781 0.02078 0.0
O32 O 0.38598 0.99001 0.03349 0.0
Co33 Co 0.352 0.94404 0.97845 0.0
O34 O 0.37043 0.94597 0.02453 0.0
C35 C 0.3925 0.99033 0.93728 0.0
C36 C 0.37015 0.04214 0.99056 0.0
C37 C 0.38512 0.96814 0.04167 0.0
O38 O 0.39037 0.00678 0.95894 0.0
O39 O 0.37786 0.96479 0.93927 0.0
O40 O 0.33908 0.99095 0.0379 0.0
O41 O 0.33784 0.96672 0.9904 0.0
Co42 Co 0.99704 0.63402 0.00486 0.0
O43 O 0.98093 0.64942 0.97674 0.0
O44 O 0.95891 0.6148 0.01283 0.0
C45 C 0.03112 0.67398 0.02562 0.0
O46 O 0.00718 0.61337 0.0394 0.0
Co47 Co 0.05403 0.64634 0.98782 0.0
O48 O 0.05039 0.62725 0.03338 0.0
C49 C 0.00845 0.60609 0.94276 0.0
C50 C 0.9585 0.63175 0.99066 0.0
C51 C 0.02811 0.61303 0.04883 0.0
O52 O 0.99205 0.60854 0.96326 0.0
O53 O 0.03365 0.62049 0.94683 0.0
O54 O 0.00821 0.66285 0.0415 0.0
O55 O 0.03219 0.66165 -0.00337 0.0
Co56 Co 0.36896 0.35903 0.00892 0.0
O57 O 0.33899 0.34768 0.04019 0.0
O58 O 0.35196 0.37913 -0.00141 0.0
C59 C 0.35915 0.31705 -0.00542 0.0
O60 O 0.39787 0.37536 0.97038 0.0
Co61 Co 0.41292 0.34587 0.02363 0.0
O62 O 0.42685 0.36145 0.97544 0.0
C63 C 0.41235 0.38974 0.06539 0.0
C64 C 0.33509 0.36481 0.02351 0.0
C65 C 0.41827 0.37465 0.95927 0.0
O66 O 0.39301 0.38711 0.0459 0.0
O67 O 0.42162 0.37418 0.06222 0.0
O68 O 0.34756 0.32759 0.97745 0.0
O69 O 0.37511 0.33148 0.02075 0.0
Co70 Co 0.63965 0.00948 0.01066 0.0
O71 O 0.65383 0.99289 0.04051 0.0
O72 O 0.62203 0.97125 -0.00093 0.0
C73 C 0.67961 0.04491 -0.00425 0.0
O74 O 0.62099 0.01972 0.97298 0.0
Co75 Co 0.64832 0.0655 0.02978 0.0
O76 O 0.63459 0.06345 0.97986 0.0
C77 C 0.60778 0.01825 0.06942 0.0
C78 C 0.6378 0.97058 0.02318 0.0
C79 C 0.62186 0.04114 0.96234 0.0
O80 O 0.61188 1.00277 0.04839 0.0
O81 O 0.62149 0.0439 0.06788 0.0
O82 O 0.66994 0.02198 0.97851 0.0
O83 O 0.66594 0.04536 0.0231 0.0
Co84 Co 0.68702 0.71203 0.33009 0.0
O85 O 0.70106 0.69622 0.36154 0.0
O86 O 0.72496 0.72888 0.32314 0.0
C87 C 0.65171 0.67252 0.31172 0.0
O88 O 0.67966 0.73265 0.29207 0.0
Co89 Co 0.63169 0.70522 0.34241 0.0
O90 O 0.63809 0.7245 0.2963 0.0
C91 C 0.67734 0.74358 0.38835 0.0
C92 C 0.72398 0.71246 0.34746 0.0
C93 C 0.66066 0.73574 0.2811 0.0
O94 O 0.69312 0.73945 0.36893 0.0
O95 O 0.65219 0.73078 0.3836 0.0
O96 O 0.67459 0.68153 0.29629 0.0
O97 O 0.65116 0.68678 0.33873 0.0
Co98 Co 0.30288 0.96955 0.33289 0.0
O99 O 0.33184 0.98348 0.29897 0.0
O100 O 0.32159 0.95018 0.33622 0.0
C101 C 0.31243 0.01044 0.35391 0.0
O102 O 0.27559 0.95033 0.37276 0.0
Co103 Co 0.25776 0.98219 0.32809 0.0
O104 O 0.24567 0.96323 0.37475 0.0
C105 C 0.25674 0.9405 0.27926 0.0
C106 C 0.3375 0.96639 0.31175 0.0
C107 C 0.25519 0.94959 0.38689 0.0
O108 O 0.27739 0.94302 0.29527 0.0
O109 O 0.24734 0.95555 0.2866 0.0
O110 O 0.3249 0.99926 0.36657 0.0
O111 O 0.29572 0.9974 0.32777 0.0
Co112 Co 0.03127 0.33383 0.33078 0.0
O113 O 0.01831 0.35199 0.30177 0.0
O114 O 0.0506 0.37205 0.34281 0.0
C115 C 0.99081 0.29918 0.34589 0.0
O116 O 0.0493 0.32203 0.36731 0.0
Co117 Co 0.01922 0.2763 0.31051 0.0
O118 O 0.03624 0.27859 0.35795 0.0
C119 C 0.06114 0.3231 0.27143 0.0
C120 C 0.03546 0.37399 0.31889 0.0
C121 C 0.04928 0.30065 0.37597 0.0
O122 O 0.05822 0.3394 0.29241 0.0
O123 O 0.04637 0.29753 0.27288 0.0
O124 O 1.00123 0.32208 0.36351 0.0
O125 O 1.00405 0.29855 0.31821 0.0
Co126 Co 0.66385 0.96793 0.33874 0.0
O127 O 0.64694 0.98276 0.31121 0.0
O128 O 0.62556 0.94702 0.34555 0.0
C129 C 0.69622 0.00776 0.36175 0.0
O130 O 0.67495 0.9478 0.3728 0.0
Co131 Co 0.72186 0.98345 0.32296 0.0
O132 O 0.71888 0.96479 0.36879 0.0
C133 C 0.67807 0.9431 0.27562 0.0
C134 C 0.62462 0.96411 0.32422 0.0
C135 C 0.69656 0.94926 0.38342 0.0
O136 O 0.66077 0.94405 0.29605 0.0
O137 O 0.7031 0.95835 0.28061 0.0
O138 O 0.67307 0.99514 0.37695 0.0
O139 O 0.69855 0.99706 0.33191 0.0
Co140 Co 0.03599 0.69641 0.34543 0.0
O141 O 1.00425 0.68316 0.37337 0.0
O142 O 0.02163 0.71944 0.33942 0.0
C143 C 0.02549 0.65634 0.32131 0.0
O144 O 0.06735 0.71537 0.31117 0.0
Co145 Co 0.07631 0.67829 0.35864 0.0
O146 O 0.09286 0.69715 0.31295 0.0
C147 C 0.07646 0.7195 0.40733 0.0
C148 C 1.00272 0.70295 0.36064 0.0
C149 C 0.08687 0.71334 0.29947 0.0
O150 O 0.0583 0.71931 0.38778 0.0
O151 O 0.08506 0.70357 0.4015 0.0
O152 O 0.01614 0.67008 0.30713 0.0
O153 O 0.03917 0.66613 0.35108 0.0
Co154 Co 0.30829 0.34107 0.33871 0.0
O155 O 0.32158 0.32333 0.36793 0.0
O156 O 0.28916 0.3028 0.32708 0.0
C157 C 0.3487 0.3754 0.32311 0.0
O158 O 0.29025 0.35245 0.30176 0.0
Co159 Co 0.31976 0.39824 0.35791 0.0
O160 O 0.30574 0.39662 0.3083 0.0
C161 C 0.27828 0.35187 0.39809 0.0
C162 C 0.30474 0.30128 0.35068 0.0
C163 C 0.292 0.37428 0.29115 0.0
O164 O 0.28132 0.33567 0.37704 0.0
O165 O 0.29289 0.37745 0.39634 0.0
O166 O 0.33806 0.35237 0.30589 0.0
O167 O 0.33566 0.37653 0.35081 0.0
Co168 Co 0.35311 0.04679 0.66685 0.0
O169 O 0.36891 0.03213 0.69711 0.0
O170 O 0.39135 0.06696 0.66128 0.0
C171 C 0.32066 0.00643 0.64549 0.0
O172 O 0.34395 0.06689 0.63045 0.0
Co173 Co 0.29514 0.03331 0.67753 0.0
O174 O 0.30096 0.05429 0.63309 0.0
C175 C 0.33777 0.07194 0.72753 0.0
C176 C 0.39151 0.05021 0.68403 0.0
C177 C 0.32391 0.06814 0.6193 0.0
O178 O 0.35555 0.07165 0.70746 0.0
O179 O 0.31285 0.05649 0.72183 0.0
O180 O 0.34401 0.01816 0.6308 0.0
O181 O 0.31803 0.01872 0.67333 0.0
Co182 Co 0.97657 0.30343 0.67081 0.0
O183 O 0.00636 0.31877 0.63846 0.0
O184 O 0.99789 0.28716 0.67797 0.0
C185 C 0.98166 0.34319 0.68841 0.0
O186 O 0.94855 0.28351 0.70984 0.0
Co187 Co 0.92806 0.30983 0.65832 0.0
O188 O 0.91645 0.29337 0.70652 0.0
C189 C 0.93355 0.2698 0.61452 0.0
C190 C 0.01335 0.30322 0.65301 0.0
C191 C 0.92713 0.28178 0.72179 0.0
O192 O 0.95422 0.27504 0.63309 0.0
O193 O 0.92132 0.28251 0.61897 0.0
O194 O 0.99556 0.33442 0.70359 0.0
O195 O 0.96636 0.32863 0.66172 0.0
Co196 Co 0.69552 0.66482 0.66555 0.0
O197 O 0.68198 0.6825 0.63667 0.0
O198 O 0.71444 0.7031 0.67738 0.0
C199 C 0.65548 0.62979 0.68115 0.0
O200 O 0.71406 0.65341 0.70174 0.0
Co201 Co 0.6842 0.60759 0.64457 0.0
O202 O 0.70165 0.61017 0.69173 0.0
C203 C 0.72575 0.65484 0.60591 0.0
C204 C 0.69904 0.70468 0.65351 0.0
C205 C 0.71447 0.63217 0.70995 0.0
O206 O 0.72245 0.67081 0.62703 0.0
O207 O 0.71132 0.62924 0.60711 0.0
O208 O 0.66561 0.65272 0.69862 0.0
O209 O 0.66862 0.62938 0.65321 0.0
Co210 Co 0.33048 0.29905 0.67083 0.0
O211 O 0.31488 0.31396 0.64069 0.0
O212 O 0.29273 0.28217 0.6808 0.0
C213 C 0.36629 0.33893 0.68722 0.0
O214 O 0.34056 0.28008 0.70831 0.0
Co215 Co 0.38513 0.30614 0.65138 0.0
O216 O 0.38139 0.28726 0.69725 0.0
C217 C 0.33777 0.26919 0.60796 0.0
C218 C 0.29259 0.29809 0.6565 0.0
C219 C 0.36035 0.27728 0.71607 0.0
O220 O 0.32279 0.27083 0.63205 0.0
O221 O 0.36305 0.28377 0.60866 0.0
O222 O 0.34389 0.33002 0.70393 0.0
O223 O 0.36586 0.32455 0.65959 0.0
Co224 Co 0.7034 0.03204 0.67752 0.0
O225 O 0.67209 0.01795 0.70663 0.0
O226 O 0.68652 0.05256 0.6699 0.0
C227 C 0.69493 0.99157 0.65711 0.0
O228 O 0.73383 0.05169 0.64203 0.0
Co229 Co 0.74728 0.01861 0.69098 0.0
O230 O 0.76325 0.03827 0.64568 0.0
C231 C 0.74441 0.05904 0.73799 0.0
C232 C 0.66872 0.03625 0.69251 0.0
C233 C 0.75499 0.05239 0.63136 0.0
O234 O 0.72561 0.05736 0.71823 0.0
O235 O 0.75421 0.04407 0.73297 0.0
O236 O 0.68377 0.00317 0.64159 0.0
O237 O 0.70954 0.00392 0.68537 0.0
Co238 Co 0.97633 0.68047 0.67904 0.0
O239 O 0.99006 0.6637 0.70941 0.0
O240 O 0.95859 0.64224 0.66749 0.0
C241 C 0.01645 0.7157 0.66461 0.0
O242 O 0.95811 0.69087 0.64095 0.0
Co243 Co 0.98532 0.73673 0.6977 0.0
O244 O 0.97154 0.73456 0.64777 0.0
C245 C 0.9443 0.68959 0.73699 0.0
C246 C 0.97407 0.64141 0.69197 0.0
C247 C 0.95891 0.71224 0.63027 0.0
O248 O 0.94833 0.67397 0.71616 0.0
O249 O 0.95825 0.71523 0.73558 0.0
O250 O 0.00686 0.69276 0.64741 0.0
O251 O 1.00263 0.71627 0.69167 0.0
H252 H 0.15764 0.34109 0.16641 0.0
H253 H 0.15957 0.36152 0.05388 0.0
H254 H 0.11423 0.37733 0.131 0.0
H255 H 0.16802 0.3185 0.1161 0.0
H256 H 0.17374 0.33125 0.07115 0.0
H257 H 0.20102 0.35206 0.1682 0.0
H258 H 0.28119 0.38596 0.13287 0.0
H259 H 0.21818 0.35387 0.05353 0.0
C260 C 0.1531 0.35097 0.14545 0.0
C261 C 0.13576 0.36017 0.15342 0.0
C262 C 0.16255 0.35209 0.10986 0.0
C263 C 0.15425 0.36251 0.08196 0.0
C264 C 0.13722 0.37209 0.08981 0.0
C265 C 0.12885 0.37169 0.1257 0.0
C266 C 0.17686 0.33738 0.10054 0.0
C267 C 0.20621 0.35353 0.10954 0.0
C268 C 0.21511 0.35866 0.14617 0.0
C269 C 0.24222 0.37089 0.15456 0.0
C270 C 0.26047 0.37806 0.12628 0.0
C271 C 0.25189 0.37156 0.08996 0.0
C272 C 0.22484 0.35974 0.08157 0.0
H273 H 0.68096 0.82813 0.15652 0.0
H274 H 0.66362 0.80008 0.04404 0.0
H275 H 0.65667 0.74713 0.1288 0.0
H276 H 0.69957 0.85924 0.09875 0.0
H277 H 0.6824 0.84635 0.05653 0.0
H278 H 0.66766 0.8555 0.1552 0.0
H279 H 0.63226 0.90046 0.12551 0.0
H280 H 0.65804 0.86676 0.04191 0.0
C281 C 0.67305 0.81218 0.13615 0.0
C282 C 0.66733 0.78675 0.14679 0.0
C283 C 0.6704 0.81709 0.09915 0.0
C284 C 0.66376 0.79631 0.07285 0.0
C285 C 0.65955 0.77137 0.08361 0.0
C286 C 0.66028 0.76655 0.12053 0.0
C287 C 0.67963 0.8454 0.08661 0.0
C288 C 0.66203 0.85652 0.09719 0.0
C289 C 0.65927 0.86154 0.13418 0.0
C290 C 0.64876 0.87746 0.14462 0.0
C291 C 0.63904 0.88692 0.11775 0.0
C292 C 0.6424 0.88325 0.08072 0.0
C293 C 0.65384 0.86801 0.07044 0.0
H294 H 0.1774 0.78652 0.17524 0.0
H295 H 0.15207 0.77923 0.06299 0.0
H296 H 0.09497 0.74051 0.14795 0.0
H297 H 0.20897 0.79771 0.12233 0.0
H298 H 0.19852 0.7996 0.07723 0.0
H299 H 0.19512 0.831 0.1688 0.0
H300 H 0.24551 0.91079 0.13303 0.0
H301 H 0.23167 0.84463 0.06286 0.0
C302 C 0.16177 0.7799 0.15496 0.0
C303 C 0.13531 0.76444 0.16579 0.0
C304 C 0.16806 0.78684 0.11808 0.0
C305 C 0.14743 0.77553 0.09168 0.0
C306 C 0.12091 0.75851 0.10226 0.0
C307 C 0.11519 0.75404 0.13943 0.0
C308 C 0.19686 0.80375 0.10658 0.0
C309 C 0.209 0.83382 0.11299 0.0
C310 C 0.20633 0.84409 0.14695 0.0
C311 C 0.21931 0.87176 0.15378 0.0
C312 C 0.23519 0.88936 0.12704 0.0
C313 C 0.24102 0.87995 0.09514 0.0
C314 C 0.22716 0.8521 0.08745 0.0
H315 H 0.39446 0.22089 0.8364 0.0
H316 H 0.38008 0.21834 0.95176 0.0
H317 H 0.34009 0.24275 0.87879 0.0
H318 H 0.42316 0.21594 0.88149 0.0
H319 H 0.41574 0.21346 0.92913 0.0
H320 H 0.38695 0.17646 0.8394 0.0
H321 H 0.35983 0.09929 0.88393 0.0
H322 H 0.39846 0.16955 0.95425 0.0
C323 C 0.38345 0.22255 0.85894 0.0
C324 C 0.36657 0.23263 0.85305 0.0
C325 C 0.38738 0.21604 0.89446 0.0
C326 C 0.37549 0.22124 0.92423 0.0
C327 C 0.3594 0.23215 0.91882 0.0
C328 C 0.35331 0.23535 0.88307 0.0
C329 C 0.4067 0.20672 0.90142 0.0
C330 C 0.39339 0.17655 0.89756 0.0
C331 C 0.38434 0.16438 0.8629 0.0
C332 C 0.37189 0.1366 0.85837 0.0
C333 C 0.36888 0.12081 0.88814 0.0
C334 C 0.37852 0.13236 0.92272 0.0
C335 C 0.39086 0.16041 0.92757 0.0
H336 H 0.85842 0.18916 0.8483 0.0
H337 H 0.87835 0.21536 0.96106 0.0
H338 H 0.91202 0.27171 0.87474 0.0
H339 H 0.85639 0.1587 0.90644 0.0
H340 H 0.85048 0.16923 0.94934 0.0
H341 H 0.82453 0.15017 0.85295 0.0
H342 H 0.74373 0.10631 0.88596 0.0
H343 H 0.80516 0.1495 0.96619 0.0
C344 C 0.86732 0.20475 0.86905 0.0
C345 C 0.88417 0.23115 0.85778 0.0
C346 C 0.86361 0.19879 0.90666 0.0
C347 C 0.87884 0.21971 0.93236 0.0
C348 C 0.89644 0.24586 0.92066 0.0
C349 C 0.89798 0.25155 0.8837 0.0
C350 C 0.84781 0.16992 0.91942 0.0
C351 C 0.81838 0.15496 0.90999 0.0
C352 C 0.81008 0.14595 0.87386 0.0
C353 C 0.78323 0.12889 0.8649 0.0
C354 C 0.76433 0.12093 0.89237 0.0
C355 C 0.77207 0.12775 0.92894 0.0
C356 C 0.79908 0.1452 0.93777 0.0
H357 H 0.83158 0.62624 0.83223 0.0
H358 H 0.83657 0.60667 0.94399 0.0
H359 H 0.90721 0.65497 0.88232 0.0
H360 H 0.79383 0.58236 0.86867 0.0
H361 H 0.79395 0.58742 0.91664 0.0
H362 H 0.78811 0.61221 0.82548 0.0
H363 H 0.74153 0.64363 0.86754 0.0
H364 H 0.77573 0.61331 0.94151 0.0
C365 C 0.84299 0.6283 0.8564 0.0
C366 C 0.87072 0.64278 0.85439 0.0
C367 C 0.83026 0.61591 0.88915 0.0
C368 C 0.84595 0.61721 0.91926 0.0
C369 C 0.8738 0.6315 0.91704 0.0
C370 C 0.8858 0.64455 0.88474 0.0
C371 C 0.80022 0.59818 0.89041 0.0
C372 C 0.78552 0.61295 0.88444 0.0
C373 C 0.78081 0.61821 0.84868 0.0
C374 C 0.76552 0.62995 0.84258 0.0
C375 C 0.75462 0.63605 0.87241 0.0
C376 C 0.75782 0.62986 0.908 0.0
C377 C 0.77357 0.61857 0.91408 0.0
H378 H 0.82442 0.67639 0.50303 0.0
H379 H 0.82636 0.69665 0.3904 0.0
H380 H 0.77923 0.71048 0.46677 0.0
H381 H 0.83585 0.65454 0.45294 0.0
H382 H 0.8418 0.66749 0.40813 0.0
H383 H 0.86796 0.68768 0.50578 0.0
H384 H 0.94864 0.72385 0.47173 0.0
H385 H 0.88632 0.69189 0.3913 0.0
C386 C 0.81963 0.68599 0.48194 0.0
C387 C 0.80159 0.69435 0.48955 0.0
C388 C 0.82943 0.68748 0.44651 0.0
C389 C 0.82077 0.69743 0.4184 0.0
C390 C 0.80306 0.70623 0.42595 0.0
C391 C 0.79435 0.70548 0.46171 0.0
C392 C 0.84448 0.67349 0.43756 0.0
C393 C 0.87371 0.69018 0.44721 0.0
C394 C 0.88226 0.69491 0.484 0.0
C395 C 0.90936 0.70765 0.49281 0.0
C396 C 0.92791 0.71561 0.46481 0.0
C397 C 0.91971 0.70952 0.42829 0.0
C398 C 0.89268 0.69736 0.41951 0.0
H399 H 0.34336 0.1626 0.49608 0.0
H400 H 0.33241 0.13423 0.38369 0.0
H401 H 0.32204 0.08191 0.47127 0.0
H402 H 0.36474 0.19388 0.4397 0.0
H403 H 0.35087 0.18082 0.39568 0.0
H404 H 0.33157 0.19179 0.49026 0.0
H405 H 0.28673 0.22468 0.44952 0.0
H406 H 0.3247 0.19773 0.37485 0.0
C407 C 0.3372 0.14665 0.47591 0.0
C408 C 0.3313 0.1214 0.48757 0.0
C409 C 0.33656 0.15139 0.4383 0.0
C410 C 0.33136 0.1306 0.4127 0.0
C411 C 0.32687 0.10579 0.42468 0.0
C412 C 0.3259 0.1012 0.46198 0.0
C413 C 0.34593 0.17954 0.42517 0.0
C414 C 0.32663 0.18918 0.43172 0.0
C415 C 0.32186 0.19478 0.46756 0.0
C416 C 0.30787 0.20795 0.47413 0.0
C417 C 0.29704 0.21397 0.44453 0.0
C418 C 0.30401 0.21153 0.4088 0.0
C419 C 0.31832 0.19858 0.40234 0.0
H420 H 0.84432 0.12429 0.50716 0.0
H421 H 0.81567 0.10716 0.39677 0.0
H422 H 0.762 0.09071 0.48561 0.0
H423 H 0.87202 0.12564 0.45021 0.0
H424 H 0.86216 0.13054 0.40652 0.0
H425 H 0.87818 0.16277 0.5026 0.0
H426 H 0.92706 0.24164 0.46384 0.0
H427 H 0.88803 0.17568 0.38632 0.0
C428 C 0.8287 0.11947 0.4877 0.0
C429 C 0.80282 0.1085 0.50063 0.0
C430 C 0.83391 0.12232 0.44993 0.0
C431 C 0.81211 0.10888 0.42541 0.0
C432 C 0.78591 0.09548 0.43868 0.0
C433 C 0.78201 0.0992 0.47553 0.0
C434 C 0.86225 0.13505 0.43618 0.0
C435 C 0.8792 0.16528 0.44339 0.0
C436 C 0.88533 0.17566 0.47951 0.0
C437 C 0.90201 0.20309 0.48646 0.0
C438 C 0.91353 0.22047 0.4577 0.0
C439 C 0.90873 0.21096 0.4215 0.0
C440 C 0.89148 0.18323 0.41427 0.0
H441 H 0.05416 0.545 0.16697 0.0
H442 H 0.04736 0.56268 0.27905 0.0
H443 H 1.00028 0.57032 0.19649 0.0
H444 H 0.08791 0.55278 0.2211 0.0
H445 H 0.07509 0.54603 0.26615 0.0
H446 H 0.06348 0.51447 0.17139 0.0
H447 H 0.04065 0.43708 0.21019 0.0
H448 H 0.05768 0.50082 0.28752 0.0
C449 C 0.04365 0.54883 0.18799 0.0
C450 C 0.02602 0.55701 0.17738 0.0
C451 C 0.04926 0.54796 0.22531 0.0
C452 C 0.03997 0.55936 0.25125 0.0
C453 C 0.02376 0.56927 0.24037 0.0
C454 C 0.01396 0.56413 0.20447 0.0
C455 C 0.06949 0.54055 0.23691 0.0
C456 C 0.06048 0.51117 0.23026 0.0
C457 C 0.05858 0.50144 0.19427 0.0
C458 C 0.051 0.47479 0.18723 0.0
C459 C 0.0465 0.4578 0.21603 0.0
C460 C 0.04889 0.46689 0.25222 0.0
C461 C 0.0558 0.49367 0.25952 0.0
H462 H 0.52431 0.52422 0.17647 0.0
H463 H 0.54643 0.54646 0.28973 0.0
H464 H 0.57552 0.60637 0.20773 0.0
H465 H 0.52569 0.49253 0.23139 0.0
H466 H 0.51888 0.50063 0.27541 0.0
H467 H 0.49354 0.48303 0.17888 0.0
H468 H 0.41258 0.43701 0.21109 0.0
H469 H 0.47334 0.48019 0.29215 0.0
C470 C 0.53321 0.53909 0.19812 0.0
C471 C 0.54871 0.56608 0.18848 0.0
C472 C 0.5307 0.53168 0.23513 0.0
C473 C 0.54589 0.55181 0.26174 0.0
C474 C 0.56212 0.57864 0.25163 0.0
C475 C 0.56234 0.58569 0.21549 0.0
C476 C 0.51617 0.50235 0.24576 0.0
C477 C 0.48681 0.48661 0.23608 0.0
C478 C 0.47884 0.47807 0.19972 0.0
C479 C 0.45209 0.46077 0.19037 0.0
C480 C 0.43306 0.45188 0.21777 0.0
C481 C 0.44059 0.45821 0.25447 0.0
C482 C 0.46741 0.47612 0.26366 0.0
H483 H 0.49613 0.95698 0.16731 0.0
H484 H 0.50186 0.93925 0.27985 0.0
H485 H 0.57184 0.98348 0.21535 0.0
H486 H 0.45773 0.91413 0.20691 0.0
H487 H 0.45898 0.92146 0.25434 0.0
H488 H 0.4543 0.94462 0.16093 0.0
H489 H 0.40795 0.97743 0.19802 0.0
H490 H 0.43899 0.94628 0.27591 0.0
C491 C 0.50761 0.95897 0.19132 0.0
C492 C 0.53526 0.97222 0.18833 0.0
C493 C 0.49511 0.9477 0.22473 0.0
C494 C 0.51101 0.94889 0.25453 0.0
C495 C 0.53876 0.96196 0.25131 0.0
C496 C 0.55052 0.97386 0.21834 0.0
C497 C 0.46496 0.93097 0.22724 0.0
C498 C 0.45068 0.946 0.2197 0.0
C499 C 0.44691 0.95112 0.18342 0.0
C500 C 0.43231 0.96334 0.17575 0.0
C501 C 0.42059 0.96956 0.20436 0.0
C502 C 0.42235 0.96309 0.24039 0.0
C503 C 0.4378 0.95164 0.24815 0.0
H504 H 0.4889 0.00864 0.83309 0.0
H505 H 0.49344 0.0325 0.72177 0.0
H506 H 0.44823 0.04807 0.7995 0.0
H507 H 0.49956 0.98699 0.78209 0.0
H508 H 0.50665 1.00115 0.73793 0.0
H509 H 0.53184 0.01845 0.83652 0.0
H510 H 0.61271 0.05311 0.80397 0.0
H511 H 0.55141 0.02395 0.72232 0.0
C512 C 0.48524 0.01952 0.81263 0.0
C513 C 0.46837 0.02919 0.82088 0.0
C514 C 0.49523 0.0214 0.77727 0.0
C515 C 0.48782 0.03297 0.74982 0.0
C516 C 0.47126 0.04311 0.75806 0.0
C517 C 0.46254 0.04205 0.79389 0.0
C518 C 0.50915 0.00637 0.76762 0.0
C519 C 0.53827 0.02171 0.77805 0.0
C520 C 0.54638 0.02558 0.81504 0.0
C521 C 0.57332 0.0375 0.82438 0.0
C522 C 0.59212 0.0454 0.79674 0.0
C523 C 0.58428 0.04012 0.76006 0.0
C524 C 0.55746 0.02876 0.75072 0.0
H525 H 0.01401 0.49604 0.82312 0.0
H526 H 0.99376 0.46524 0.71212 0.0
H527 H 0.98944 0.41448 0.79837 0.0
H528 H 0.02979 0.52574 0.76468 0.0
H529 H 0.01215 0.51161 0.72298 0.0
H530 H 0.99256 0.51612 0.82134 0.0
H531 H 0.96379 0.56726 0.793 0.0
H532 H 0.99185 0.53619 0.70908 0.0
C533 C 1.0055 0.4795 0.80356 0.0
C534 C 1.00016 0.45438 0.81505 0.0
C535 C 1.00154 0.48339 0.76661 0.0
C536 C 0.99461 0.46213 0.74101 0.0
C537 C 0.99108 0.43762 0.7525 0.0
C538 C 0.99261 0.43362 0.78953 0.0
C539 C 0.00982 0.51125 0.75314 0.0
C540 C 0.99183 0.522 0.7634 0.0
C541 C 0.98674 0.52467 0.80034 0.0
C542 C 0.97729 0.54144 0.81136 0.0
C543 C 0.96995 0.55329 0.78476 0.0
C544 C 0.97489 0.55129 0.74785 0.0
C545 C 0.98603 0.53585 0.73723 0.0
H546 H 0.50971 0.44812 0.83849 0.0
H547 H 0.48948 0.44254 0.7242 0.0
H548 H 0.42848 0.40462 0.80439 0.0
H549 H 0.54308 0.45796 0.78818 0.0
H550 H 0.535 0.46064 0.74214 0.0
H551 H 0.53867 0.49221 0.83612 0.0
H552 H 0.58366 0.57198 0.79756 0.0
H553 H 0.55818 0.5055 0.7217 0.0
C554 C 0.49507 0.4423 0.81698 0.0
C555 C 0.46808 0.42714 0.82571 0.0
C556 C 0.50308 0.44926 0.7805 0.0
C557 C 0.48361 0.43887 0.75253 0.0
C558 C 0.45661 0.42272 0.7611 0.0
C559 C 0.44919 0.41784 0.79771 0.0
C560 C 0.53233 0.46491 0.77105 0.0
C561 C 0.5452 0.49498 0.7776 0.0
C562 C 0.54694 0.50537 0.81327 0.0
C563 C 0.56018 0.53306 0.81988 0.0
C564 C 0.57237 0.55059 0.79134 0.0
C565 C 0.57205 0.54109 0.75584 0.0
C566 C 0.55824 0.51311 0.74896 0.0
H567 H 0.72242 0.88149 0.50293 0.0
H568 H 0.70978 0.88893 0.61733 0.0
H569 H 0.67883 0.91803 0.53628 0.0
H570 H 0.75281 0.88223 0.55556 0.0
H571 H 0.74057 0.87642 0.60095 0.0
H572 H 0.7228 0.84453 0.50601 0.0
H573 H 0.70024 0.76682 0.5435 0.0
H574 H 0.72243 0.83129 0.62179 0.0
C575 C 0.71264 0.8859 0.52448 0.0
C576 C 0.69792 0.89784 0.51537 0.0
C577 C 0.71598 0.8813 0.56134 0.0
C578 C 0.70584 0.89063 0.58895 0.0
C579 C 0.69284 0.90439 0.58016 0.0
C580 C 0.68788 0.90656 0.54341 0.0
C581 C 0.73439 0.87133 0.57181 0.0
C582 C 0.72284 0.84149 0.56486 0.0
C583 C 0.71875 0.8315 0.52871 0.0
C584 C 0.71059 0.80473 0.52128 0.0
C585 C 0.70653 0.78761 0.54975 0.0
C586 C 0.71048 0.79679 0.58605 0.0
C587 C 0.71883 0.82391 0.59375 0.0
H588 H 0.18841 0.85369 0.51321 0.0
H589 H 0.21892 0.88031 0.62312 0.0
H590 H 0.24668 0.9358 0.5355 0.0
H591 H 0.19363 0.82397 0.57115 0.0
H592 H 0.18776 0.83456 0.61394 0.0
H593 H 0.16073 0.81079 0.5194 0.0
H594 H 0.08008 0.77143 0.5539 0.0
H595 H 0.14272 0.8181 0.63132 0.0
C596 C 0.20003 0.86929 0.53316 0.0
C597 C 0.21657 0.89547 0.52086 0.0
C598 C 0.19974 0.86355 0.57062 0.0
C599 C 0.21737 0.88447 0.59485 0.0
C600 C 0.23454 0.91033 0.5819 0.0
C601 C 0.23321 0.91578 0.54543 0.0
C602 C 0.18468 0.83488 0.58406 0.0
C603 C 0.15521 0.8193 0.57528 0.0
C604 C 0.14647 0.80806 0.54008 0.0
C605 C 0.1194 0.79145 0.53199 0.0
C606 C 0.10089 0.78575 0.55948 0.0
C607 C 0.10912 0.79466 0.59542 0.0
C608 C 0.13628 0.81194 0.60327 0.0
H609 H 0.1665 0.29245 0.4958 0.0
H610 H 0.17196 0.27547 0.60869 0.0
H611 H 0.24231 0.32063 0.54514 0.0
H612 H 0.12852 0.25044 0.53327 0.0
H613 H 0.12926 0.25562 0.58128 0.0
H614 H 0.12304 0.28061 0.49059 0.0
H615 H 0.07792 0.31324 0.53437 0.0
H616 H 0.11284 0.28287 0.60701 0.0
C617 C 0.17808 0.29482 0.51994 0.0
C618 C 0.20578 0.30862 0.51745 0.0
C619 C 0.16551 0.28347 0.55322 0.0
C620 C 0.18128 0.28518 0.58348 0.0
C621 C 0.20908 0.2988 0.58083 0.0
C622 C 0.22096 0.31076 0.54789 0.0
C623 C 0.13547 0.26633 0.55501 0.0
C624 C 0.12136 0.28173 0.5496 0.0
C625 C 0.11621 0.2869 0.51403 0.0
C626 C 0.10104 0.29886 0.50848 0.0
C627 C 0.09091 0.30549 0.53875 0.0
C628 C 0.09475 0.29962 0.57425 0.0
C629 C 0.11027 0.28798 0.57968 0.0
C630 C 0.01435 0.44575 0.0991 0.0
C631 C 0.02645 0.43186 0.08598 0.0
H632 H 0.01354 0.47122 0.14146 0.0
C633 C 0.04913 0.43533 0.10378 0.0
H634 H 0.997 0.44357 0.08558 0.0
C635 C 0.05831 0.45082 0.13588 0.0
C636 C 0.04533 0.46353 0.14991 0.0
H637 H 0.05878 0.4248 0.09417 0.0
H638 H 0.07477 0.45194 0.15063 0.0
C639 C 0.02391 0.46171 0.13072 0.0
C640 C 0.55955 0.60607 0.10443 0.0
C641 C 0.5778 0.60171 0.08533 0.0
H642 H 0.5356 0.59762 0.15212 0.0
C643 C 0.58334 0.58251 0.09822 0.0
H644 H 0.55472 0.62061 0.09525 0.0
C645 C 0.57178 0.56888 0.13037 0.0
C646 C 0.55468 0.57437 0.15024 0.0
H647 H 0.59708 0.57847 0.08398 0.0
H648 H 0.57742 0.55526 0.14087 0.0
C649 C 0.54831 0.5927 0.13673 0.0
C650 C 0.41477 0.99127 0.09597 0.0
C651 C 0.40106 0.96838 0.07307 0.0
H652 H 0.4361 0.00776 0.14626 0.0
C653 C 0.4015 0.94515 0.0817 0.0
H654 H 0.41512 0.00959 0.09001 0.0
C655 C 0.41374 0.94423 0.11379 0.0
C656 C 0.42569 0.96647 0.13793 0.0
H657 H 0.39143 0.92723 0.06447 0.0
H658 H 0.41227 0.92553 0.12088 0.0
C659 C 0.42691 0.99029 0.12809 0.0
C660 C 0.41985 0.9839 0.89085 0.0
C661 C 0.41344 1.00117 0.90934 0.0
H662 H 0.44241 0.97934 0.84888 0.0
C663 C 0.42731 0.02857 0.90097 0.0
H664 H 0.40982 0.96275 0.89687 0.0
C665 C 0.44637 0.03818 0.87349 0.0
C666 C 0.45204 0.02063 0.85422 0.0
H667 H 0.423 0.04243 0.91494 0.0
H668 H 0.45616 0.05918 0.8666 0.0
C669 C 0.43892 0.99351 0.86369 0.0
C670 C 0.98081 0.42927 0.90984 0.0
C671 C 0.9994 0.42169 0.91777 0.0
H672 H 0.96715 0.44668 0.87105 0.0
C673 C 0.021 0.42969 0.89431 0.0
H674 H 0.96412 0.42378 0.92756 0.0
C675 C 0.02275 0.44301 0.86219 0.0
C676 C 1.00317 0.4489 0.85323 0.0
H677 H 0.03577 0.4244 0.8997 0.0
H678 H 0.03842 0.44715 0.84312 0.0
C679 C 0.98271 0.44279 0.87784 0.0
C680 C 0.59313 0.56514 0.90918 0.0
C681 C 0.58225 0.58131 0.91649 0.0
H682 H 0.59382 0.53618 0.87267 0.0
C683 C 0.5607 0.5775 0.89512 0.0
H684 H 0.60956 0.56736 0.92527 0.0
C685 C 0.55167 0.55955 0.8654 0.0
C686 C 0.56375 0.54483 0.85678 0.0
H687 H 0.55162 0.58935 0.90014 0.0
H688 H 0.53639 0.55841 0.84773 0.0
C689 C 0.58392 0.54703 0.87946 0.0
C690 C 0.01464 0.57758 0.89718 0.0
C691 C 0.99813 0.58585 0.91265 0.0
H692 H 0.02088 0.5569 0.85355 0.0
C693 C 0.97264 0.5757 0.89776 0.0
H694 H 0.03422 0.58463 0.90836 0.0
C695 C 0.96472 0.55928 0.86621 0.0
C696 C 0.98208 0.5526 0.8493 0.0
H697 H 0.95938 0.58154 0.90933 0.0
H698 H 0.94557 0.55289 0.85405 0.0
C699 C 0.00674 0.56118 0.86598 0.0
C700 C 0.42456 0.40586 0.90883 0.0
C701 C 0.43277 0.39028 0.92688 0.0
H702 H 0.42996 0.43046 0.86313 0.0
C703 C 0.45502 0.38983 0.91366 0.0
H704 H 0.40779 0.40702 0.91845 0.0
C705 C 0.46788 0.40355 0.88211 0.0
C706 C 0.45873 0.41791 0.86314 0.0
H707 H 0.46208 0.37827 0.92705 0.0
H708 H 0.48403 0.40168 0.87145 0.0
C709 C 0.43739 0.4195 0.87732 0.0
C710 C 0.58765 0.01544 0.91311 0.0
C711 C 0.6075 0.04008 0.92854 0.0
H712 H 0.56054 0.99546 0.86827 0.0
C713 C 0.61383 0.06397 0.91108 0.0
H714 H 0.58217 0.99671 0.92597 0.0
C715 C 0.60152 0.06318 0.87818 0.0
C716 C 0.58223 0.03857 0.86237 0.0
H717 H 0.62901 0.0833 0.92216 0.0
H718 H 0.60767 0.08177 0.86439 0.0
C719 C 0.575 0.01472 0.88041 0.0
C720 C 0.58262 0.0225 0.12193 0.0
C721 C 0.58651 0.00605 0.09715 0.0
H722 H 0.56278 0.02442 0.17002 0.0
C723 C 0.57045 0.97798 0.10006 0.0
H724 H 0.59446 0.04417 0.12054 0.0
C725 C 0.55194 0.96677 0.12817 0.0
C726 C 0.54913 0.98338 0.15375 0.0
H727 H 0.57278 0.96467 0.08143 0.0
H728 H 0.54088 0.94518 0.13113 0.0
C729 C 0.56426 0.01127 0.15006 0.0
C730 C 1.00241 0.5769 0.09457 0.0
C731 C 0.02668 0.59542 0.0787 0.0
H732 H 0.98289 0.5489 0.13734 0.0
C733 C 0.05001 0.59731 0.09198 0.0
H734 H 0.984 0.57451 0.08461 0.0
C735 C 0.04935 0.58259 0.12198 0.0
C736 C 0.02535 0.56549 0.13951 0.0
H737 H 0.06909 0.61111 0.08027 0.0
H738 H 0.06797 0.58621 0.13307 0.0
C739 C 1.00174 0.56201 0.12453 0.0
C740 C 0.41084 0.42385 0.10666 0.0
C741 C 0.42427 0.41125 0.09369 0.0
H742 H 0.40949 0.45006 0.14746 0.0
C743 C 0.44871 0.41817 0.10963 0.0
H744 H 0.39204 0.41906 0.09476 0.0
C745 C 0.45866 0.43587 0.13948 0.0
C746 C 0.44442 0.44711 0.15409 0.0
H747 H 0.45975 0.40911 0.09995 0.0
H748 H 0.47667 0.43934 0.1525 0.0
C749 C 0.42081 0.44159 0.13675 0.0
C750 C 0.67492 0.77532 0.43256 0.0
C751 C 0.6885 0.76303 0.41901 0.0
H752 H 0.67202 0.79908 0.47572 0.0
C753 C 0.71162 0.76774 0.43689 0.0
H754 H 0.65718 0.77218 0.41902 0.0
C755 C 0.71983 0.78282 0.46938 0.0
C756 C 0.70539 0.79385 0.48381 0.0
H757 H 0.72243 0.75848 0.42701 0.0
H758 H 0.73675 0.78491 0.4841 0.0
C759 C 0.68346 0.79083 0.46467 0.0
C760 C 0.2497 0.91424 0.43038 0.0
C761 C 0.242 0.93204 0.41836 0.0
H762 H 0.24647 0.8875 0.47222 0.0
C763 C 0.22183 0.93332 0.43724 0.0
H764 H 0.26492 0.91249 0.41628 0.0
C765 C 0.21111 0.91874 0.46892 0.0
C766 C 0.22003 0.90231 0.48202 0.0
H767 H 0.21522 0.94661 0.42865 0.0
H768 H 0.19721 0.92174 0.4846 0.0
C769 C 0.23878 0.8995 0.46194 0.0
C770 C 0.0781 0.32433 0.43105 0.0
C771 C 0.06515 0.30146 0.40797 0.0
H772 H 0.10032 0.3417 0.48055 0.0
C773 C 0.06713 0.279 0.41608 0.0
H774 H 0.07729 0.34209 0.42548 0.0
C775 C 0.08051 0.27889 0.44746 0.0
C776 C 0.09215 0.30118 0.47155 0.0
H777 H 0.0577 0.26112 0.39874 0.0
H778 H 0.08043 0.26077 0.45389 0.0
C779 C 0.09141 0.32417 0.4625 0.0
C780 C 0.09007 0.31695 0.2275 0.0
C781 C 0.08262 0.334 0.24417 0.0
H782 H 0.11276 0.31192 0.18622 0.0
C783 C 0.09526 0.36092 0.23364 0.0
H784 H 0.08103 0.29619 0.23524 0.0
C785 C 0.11385 0.37009 0.20548 0.0
C786 C 0.1203 0.35256 0.18769 0.0
H787 H 0.0901 0.37462 0.24613 0.0
H788 H 0.12255 0.39061 0.19681 0.0
C789 C 0.10866 0.32611 0.19968 0.0
C790 C 0.68676 0.76096 0.22644 0.0
C791 C 0.66489 0.75288 0.24938 0.0
H792 H 0.70489 0.77876 0.17569 0.0
C793 C 0.64637 0.76045 0.24088 0.0
H794 H 0.70147 0.75566 0.23226 0.0
C795 C 0.64871 0.77416 0.20891 0.0
C796 C 0.66952 0.78047 0.18488 0.0
H797 H 0.62947 0.75489 0.2582 0.0
H798 H 0.63328 0.77817 0.20174 0.0
C799 C 0.68893 0.77445 0.19431 0.0
C800 C 0.22503 0.9203 0.22654 0.0
C801 C 0.24323 0.91948 0.25047 0.0
H802 H 0.20243 0.90492 0.17691 0.0
C803 C 0.24891 0.89895 0.24579 0.0
H804 H 0.22002 0.9357 0.22952 0.0
C805 C 0.23814 0.88087 0.2162 0.0
C806 C 0.22177 0.88323 0.19071 0.0
H807 H 0.26251 0.89751 0.26408 0.0
H808 H 0.24438 0.86652 0.21154 0.0
C809 C 0.21458 0.90246 0.19673 0.0
C810 C 0.68695 0.91769 0.22798 0.0
C811 C 0.66898 0.92349 0.24476 0.0
H812 H 0.69457 0.89854 0.18361 0.0
C813 C 0.64293 0.91112 0.23093 0.0
H814 H 0.70706 0.92655 0.23818 0.0
C815 C 0.63558 0.89458 0.19954 0.0
C816 C 0.65408 0.88996 0.18175 0.0
H817 H 0.62857 0.91505 0.24343 0.0
H818 H 0.61577 0.88621 0.1884 0.0
C819 C 0.67961 0.90117 0.19693 0.0
C820 C 0.12325 0.72752 0.25349 0.0
C821 C 0.10249 0.72993 0.26839 0.0
H822 H 0.15048 0.73726 0.20927 0.0
C823 C 0.09586 0.74735 0.25206 0.0
H824 H 0.12905 0.71448 0.26555 0.0
C825 C 0.10831 0.76047 0.22014 0.0
C826 C 0.12772 0.75659 0.20397 0.0
H827 H 0.08025 0.74999 0.26297 0.0
H828 H 0.10176 0.77255 0.20691 0.0
C829 C 0.13579 0.74079 0.22154 0.0
C830 C 0.25635 0.3492 0.24365 0.0
C831 C 0.27744 0.37359 0.25783 0.0
H832 H 0.22801 0.32947 0.2001 0.0
C833 C 0.28481 0.39745 0.23955 0.0
H834 H 0.25006 0.33052 0.25721 0.0
C835 C 0.27225 0.39677 0.20692 0.0
C836 C 0.25172 0.37233 0.1923 0.0
H837 H 0.30096 0.41658 0.24972 0.0
H838 H 0.27915 0.41524 0.19243 0.0
C839 C 0.24348 0.34862 0.21129 0.0
C840 C 0.25524 0.3578 0.4519 0.0
C841 C 0.25715 0.34063 0.42607 0.0
H842 H 0.23693 0.36089 0.50088 0.0
C843 C 0.23918 0.31279 0.42804 0.0
H844 H 0.26859 0.37933 0.45125 0.0
C845 C 0.22065 0.30235 0.45623 0.0
C846 C 0.21983 0.31955 0.4829 0.0
H847 H 0.23994 0.29898 0.40853 0.0
H848 H 0.20802 0.28079 0.45841 0.0
C849 C 0.23692 0.34734 0.48014 0.0
C850 C 0.67234 0.916 0.43292 0.0
C851 C 0.69595 0.9327 0.41426 0.0
H852 H 0.65434 0.89107 0.47906 0.0
C853 C 0.71946 0.93434 0.42633 0.0
H854 H 0.65382 0.91395 0.42423 0.0
C855 C 0.71969 0.92107 0.45759 0.0
C856 C 0.69644 0.90585 0.47757 0.0
H857 H 0.73803 0.94677 0.4125 0.0
H858 H 0.73842 0.92418 0.46742 0.0
C859 C 0.6726 0.90273 0.4642 0.0
C860 C 0.11132 0.74347 0.45553 0.0
C861 C 0.0884 0.73939 0.43769 0.0
H862 H 0.13922 0.7634 0.49909 0.0
C863 C 0.07712 0.75449 0.44915 0.0
H864 H 0.12068 0.73239 0.44719 0.0
C865 C 0.08797 0.77249 0.47878 0.0
C866 C 0.11039 0.77589 0.49724 0.0
H867 H 0.05955 0.75195 0.43584 0.0
H868 H 0.07848 0.7833 0.48787 0.0
C869 C 0.12222 0.76156 0.48495 0.0
C870 C 0.32782 0.0874 0.78602 0.0
C871 C 0.34631 0.09063 0.75925 0.0
H872 H 0.3217 0.0999 0.83857 0.0
C873 C 0.37293 0.11132 0.76368 0.0
H874 H 0.30716 0.07173 0.78342 0.0
C875 C 0.38106 0.12773 0.79508 0.0
C876 C 0.36272 0.12342 0.82245 0.0
H877 H 0.38758 0.11445 0.74336 0.0
H878 H 0.40183 0.14283 0.79885 0.0
C879 C 0.33602 0.10355 0.81747 0.0
C880 C 0.92386 0.25116 0.77176 0.0
C881 C 0.91396 0.26558 0.7544 0.0
H882 H 0.92131 0.22801 0.81812 0.0
C883 C 0.89142 0.26479 0.76895 0.0
H884 H 0.94103 0.25114 0.76123 0.0
C885 C 0.88006 0.25131 0.80117 0.0
C886 C 0.89075 0.23805 0.81923 0.0
H887 H 0.88309 0.27547 0.75628 0.0
H888 H 0.86385 0.2525 0.81308 0.0
C889 C 0.91235 0.23755 0.80395 0.0
C890 C 0.74332 0.65583 0.76496 0.0
C891 C 0.73048 0.63303 0.74176 0.0
H892 H 0.76527 0.67301 0.81469 0.0
C893 C 0.73259 0.61062 0.74968 0.0
H894 H 0.74243 0.67356 0.75952 0.0
C895 C 0.74586 0.61041 0.78111 0.0
C896 C 0.75725 0.63257 0.80541 0.0
H897 H 0.72327 0.59279 0.73221 0.0
H898 H 0.74579 0.59229 0.78748 0.0
C899 C 0.75654 0.65558 0.79645 0.0
C900 C 0.75544 0.64974 0.56218 0.0
C901 C 0.74739 0.66628 0.57896 0.0
H902 H 0.779 0.64576 0.52124 0.0
C903 C 0.75976 0.69331 0.569 0.0
H904 H 0.74661 0.62892 0.5695 0.0
C905 C 0.77869 0.7031 0.54132 0.0
C906 C 0.78577 0.68611 0.52345 0.0
H907 H 0.75413 0.70662 0.58161 0.0
H908 H 0.78715 0.72368 0.53304 0.0
C909 C 0.77439 0.65953 0.53484 0.0
C910 C 0.35166 0.09988 0.57032 0.0
C911 C 0.32746 0.08613 0.58893 0.0
H912 H 0.37201 0.12285 0.52349 0.0
C913 C 0.30625 0.08887 0.57722 0.0
H914 H 0.36848 0.09844 0.57872 0.0
C915 C 0.30854 0.10328 0.54601 0.0
C916 C 0.33208 0.1153 0.52611 0.0
H917 H 0.28741 0.07886 0.59112 0.0
H918 H 0.29132 0.10335 0.5359 0.0
C919 C 0.35389 0.11423 0.53906 0.0
C920 C 0.89799 0.23729 0.57155 0.0
C921 C 0.92394 0.24884 0.58548 0.0
H922 H 0.87043 0.21273 0.52928 0.0
C923 C 0.94115 0.24156 0.56964 0.0
H924 H 0.8842 0.24228 0.58346 0.0
C925 C 0.9332 0.22473 0.53868 0.0
C926 C 0.90781 0.21452 0.5237 0.0
H927 H 0.96124 0.25011 0.57979 0.0
H928 H 0.94732 0.22085 0.52525 0.0
C929 C 0.88996 0.22016 0.54092 0.0
C930 C 0.31691 0.22448 0.57592 0.0
C931 C 0.32551 0.2519 0.57572 0.0
H932 H 0.30396 0.18855 0.54347 0.0
C933 C 0.32555 0.26385 0.54308 0.0
H934 H 0.31705 0.21509 0.60105 0.0
C935 C 0.31823 0.24898 0.51054 0.0
C936 C 0.31072 0.22172 0.50993 0.0
H937 H 0.33244 0.28508 0.54251 0.0
H938 H 0.32012 0.25942 0.48556 0.0
C939 C 0.30957 0.20944 0.54311 0.0
C940 C 0.76371 0.08845 0.58738 0.0
C941 C 0.77036 0.07031 0.60123 0.0
H942 H 0.76982 0.11594 0.54519 0.0
C943 C 0.79141 0.06899 0.58534 0.0
H944 H 0.74797 0.09041 0.59941 0.0
C945 C 0.80404 0.08382 0.55448 0.0
C946 C 0.79593 0.1003 0.53897 0.0
H947 H 0.79728 0.05549 0.59555 0.0
H948 H 0.8187 0.08072 0.54115 0.0
C949 C 0.77642 0.10334 0.55662 0.0
C950 C 0.92428 0.68634 0.58172 0.0
C951 C 0.94446 0.71104 0.59653 0.0
H952 H 0.89663 0.66609 0.53754 0.0
C953 C 0.95093 0.7348 0.57862 0.0
H954 H 0.91868 0.66771 0.59498 0.0
C955 C 0.93837 0.7338 0.54584 0.0
C956 C 0.91872 0.7091 0.53066 0.0
H957 H 0.96636 0.75416 0.58925 0.0
H958 H 0.94459 0.75226 0.5317 0.0
C959 C 0.91139 0.68541 0.54918 0.0
C960 C 0.9052 0.64954 0.76524 0.0
C961 C 0.9228 0.67751 0.76436 0.0
H962 H 0.87408 0.61658 0.79431 0.0
C963 C 0.92022 0.69391 0.79077 0.0
H964 H 0.90648 0.6363 0.74524 0.0
C965 C 0.90163 0.68257 0.81857 0.0
C966 C 0.88494 0.65466 0.82027 0.0
H967 H 0.93329 0.71551 0.79094 0.0
H968 H 0.90115 0.69554 0.83983 0.0
C969 C 0.88639 0.63823 0.79296 0.0
C970 C 0.36444 0.24274 0.75043 0.0
C971 C 0.3601 0.26432 0.75024 0.0
H972 H 0.36893 0.215 0.78288 0.0
C973 C 0.35839 0.27558 0.78336 0.0
H974 H 0.36629 0.23409 0.72496 0.0
C975 C 0.36123 0.26571 0.81625 0.0
C976 C 0.36464 0.24339 0.81708 0.0
H977 H 0.35598 0.29283 0.78382 0.0
H978 H 0.36129 0.27617 0.84103 0.0
C979 C 0.36628 0.23207 0.78357 0.0
C980 C 0.74232 0.09217 0.78074 0.0
C981 C 0.75549 0.0792 0.76812 0.0
H982 H 0.74109 0.11863 0.82127 0.0
C983 C 0.77927 0.0851 0.78524 0.0
H984 H 0.72403 0.08816 0.76797 0.0
C985 C 0.78902 0.10254 0.81536 0.0
C986 C 0.77526 0.11455 0.82912 0.0
H987 H 0.7901 0.07571 0.77597 0.0
H988 H 0.80663 0.10547 0.82901 0.0
C989 C 0.75208 0.10962 0.81113 0.0
C990 C 0.10493 0.40267 0.03734 0.0
C991 C 0.08244 0.37928 0.02367 0.0
H992 H 0.14056 0.41874 0.06968 0.0
C993 C 0.08101 0.35457 0.02617 0.0
H994 H 0.1062 0.42188 0.03604 0.0
C995 C 0.10099 0.35294 0.04406 0.0
C996 C 0.12232 0.3759 0.06065 0.0
H997 H 0.06374 0.33628 0.01593 0.0
H998 H 0.09854 0.33337 0.04781 0.0
C999 C 0.12459 0.40092 0.05632 0.0
C1000 C 0.67516 0.72159 0.0446 0.0
C1001 C 0.65093 0.7026 0.02827 0.0
H1002 H 0.69719 0.75928 0.07322 0.0
C1003 C 0.63097 0.70883 0.02433 0.0
H1004 H 0.69102 0.71749 0.04743 0.0
C1005 C 0.63448 0.73284 0.03939 0.0
C1006 C 0.65821 0.751 0.05767 0.0
H1007 H 0.61216 0.6945 0.01161 0.0
H1008 H 0.61816 0.73636 0.0389 0.0
C1009 C 0.67884 0.74565 0.05881 0.0
C1010 C 0.30764 0.94081 0.07564 0.0
C1011 C 0.30616 0.94355 0.03808 0.0
H1012 H 0.28901 0.9176 0.1224 0.0
C1013 C 0.28442 0.92333 0.01794 0.0
H1014 H 0.32456 0.95574 0.09155 0.0
C1015 C 0.26339 0.90158 0.03586 0.0
C1016 C 0.2643 0.89972 0.07393 0.0
H1017 H 0.28314 0.92498 0.98873 0.0
H1018 H 0.24608 0.88701 0.02032 0.0
C1019 C 0.28725 0.91893 0.0932 0.0
C1020 C 0.39722 0.09187 0.98018 0.0
C1021 C 0.3724 0.06804 0.98257 0.0
H1022 H 0.4187 0.13189 0.95941 0.0
C1023 C 0.34952 0.06834 0.97303 0.0
H1024 H 0.41516 0.09216 0.98745 0.0
C1025 C 0.35149 0.09117 0.95817 0.0
C1026 C 0.37642 0.11401 0.95176 0.0
H1027 H 0.33011 0.05038 0.9751 0.0
H1028 H 0.33361 0.09006 0.94836 0.0
C1029 C 0.39924 0.11471 0.96457 0.0
C1030 C 0.93669 0.30991 0.97515 0.0
C1031 C 0.96231 0.31483 0.96845 0.0
H1032 H 0.89491 0.28333 0.96519 0.0
C1033 C 0.96533 0.29474 0.95163 0.0
H1034 H 0.93393 0.32511 0.98831 0.0
C1035 C 0.94317 0.27066 0.93995 0.0
C1036 C 0.91764 0.26646 0.94422 0.0
H1037 H 0.98485 0.29787 0.94671 0.0
H1038 H 0.94604 0.25606 0.92513 0.0
C1039 C 0.91442 0.28595 0.96256 0.0
C1040 C 0.70021 0.60988 0.97094 0.0
C1041 C 0.69852 0.63308 0.97005 0.0
H1042 H 0.72112 0.59073 0.952 0.0
C1043 C 0.71967 0.65656 0.95556 0.0
H1044 H 0.68423 0.59156 0.98221 0.0
C1045 C 0.74099 0.65632 0.93943 0.0
C1046 C 0.7414 0.63243 0.93671 0.0
H1047 H 0.71918 0.6749 0.95519 0.0
H1048 H 0.7561 0.67427 0.92627 0.0
C1049 C 0.72147 0.6095 0.95411 0.0
C1050 C 0.93563 0.65557 0.97263 0.0
C1051 C 0.93399 0.6313 0.98063 0.0
H1052 H 0.91697 0.67462 0.94791 0.0
C1053 C 0.90986 0.60708 0.97458 0.0
H1054 H 0.95388 0.67456 0.97753 0.0
C1055 C 0.88864 0.60709 0.95713 0.0
C1056 C 0.89131 0.63137 0.94605 0.0
H1057 H 0.90812 0.5881 0.98057 0.0
H1058 H 0.87115 0.5881 0.94953 0.0
C1059 C 0.91443 0.65562 0.95594 0.0
C1060 C 0.33339 0.27215 0.96359 0.0
C1061 C 0.35611 0.29129 0.98289 0.0
H1062 H 0.31533 0.23615 0.93075 0.0
C1063 C 0.37668 0.28635 0.98894 0.0
H1064 H 0.31687 0.2751 0.95964 0.0
C1065 C 0.37616 0.2645 0.97169 0.0
C1066 C 0.35482 0.24701 0.94859 0.0
H1067 H 0.39419 0.30055 0.00444 0.0
H1068 H 0.39373 0.26308 0.97351 0.0
C1069 C 0.33248 0.24979 0.94731 0.0
C1070 C 0.72613 0.06422 0.97579 0.0
C1071 C 0.70544 0.06824 0.98578 0.0
H1072 H 0.76451 0.08101 0.95191 0.0
C1073 C 0.70917 0.09403 0.98335 0.0
H1074 H 0.72378 0.04455 0.97764 0.0
C1075 C 0.73241 0.11488 0.96793 0.0
C1076 C 0.75252 0.11036 0.95621 0.0
H1077 H 0.6934 0.09754 0.99084 0.0
H1078 H 0.73394 0.13391 0.96302 0.0
C1079 C 0.74958 0.08516 0.96163 0.0
C1080 C 0.66294 0.94803 0.03602 0.0
C1081 C 0.63844 0.94603 0.03026 0.0
H1082 H 0.68318 0.92866 0.0546 0.0
C1083 C 0.61501 0.92112 0.03452 0.0
H1084 H 0.68129 0.967 0.03268 0.0
C1085 C 0.6161 0.89923 0.0477 0.0
C1086 C 0.64067 0.90176 0.05539 0.0
H1087 H 0.59589 0.91915 0.03033 0.0
H1088 H 0.59783 0.88095 0.05415 0.0
C1089 C 0.66405 0.92601 0.04799 0.0
C1090 C 0.08033 0.70516 0.03086 0.0
C1091 C 0.05458 0.69857 0.04047 0.0
H1092 H 0.1219 0.72979 0.04282 0.0
C1093 C 0.05139 0.71525 0.06545 0.0
H1094 H 0.08336 0.69283 0.01128 0.0
C1095 C 0.07345 0.73694 0.0825 0.0
C1096 C 0.09913 0.74197 0.0757 0.0
H1097 H 0.0318 0.71104 0.0727 0.0
H1098 H 0.07029 0.74871 0.10291 0.0
C1099 C 0.10245 0.72659 0.0485 0.0
C1100 C 0.31535 0.39259 0.04008 0.0
C1101 C 0.31223 0.36735 0.03278 0.0
H1102 H 0.29806 0.41383 0.06449 0.0
C1103 C 0.28755 0.34408 0.03827 0.0
H1104 H 0.33433 0.41076 0.03615 0.0
C1105 C 0.26667 0.34586 0.053 0.0
C1106 C 0.27042 0.37092 0.06345 0.0
H1107 H 0.28476 0.32442 0.03264 0.0
H1108 H 0.24835 0.32752 0.0592 0.0
C1109 C 0.29465 0.39436 0.05597 0.0
C1110 C 0.74606 0.68747 0.36325 0.0
C1111 C 0.7476 0.71216 0.35956 0.0
H1112 H 0.76371 0.66666 0.38585 0.0
C1113 C 0.77035 0.73579 0.37211 0.0
H1114 H 0.72863 0.669 0.35382 0.0
C1115 C 0.7902 0.73438 0.39117 0.0
C1116 C 0.78786 0.70944 0.39663 0.0
H1117 H 0.77175 0.75501 0.36984 0.0
H1118 H 0.80642 0.75247 0.40367 0.0
C1119 C 0.76621 0.68616 0.38119 0.0
C1120 C 0.30009 0.04574 0.36023 0.0
C1121 C 0.31751 0.03666 0.36802 0.0
H1122 H 0.2896 0.07548 0.37197 0.0
C1123 C 0.33993 0.05276 0.38997 0.0
H1124 H 0.28276 0.03378 0.34308 0.0
C1125 C 0.34411 0.0767 0.40551 0.0
C1126 C 0.3258 0.08492 0.39986 0.0
H1127 H 0.35394 0.04656 0.39594 0.0
H1128 H 0.36093 0.08811 0.42375 0.0
C1129 C 0.30414 0.0697 0.37626 0.0
C1130 C 0.94774 0.27811 0.37827 0.0
C1131 C 0.96645 0.27512 0.35848 0.0
H1132 H 0.91334 0.25931 0.41174 0.0
C1133 C 0.96242 0.24926 0.35305 0.0
H1134 H 0.95006 0.29771 0.3822 0.0
C1135 C 0.94152 0.2272 0.3705 0.0
C1136 C 0.92417 0.23072 0.393 0.0
H1137 H 0.97646 0.24639 0.33756 0.0
H1138 H 0.9403 0.208 0.36885 0.0
C1139 C 0.92658 0.25607 0.39483 0.0
C1140 C 0.06215 0.42433 0.3137 0.0
C1141 C 0.03781 0.3999 0.31031 0.0
H1142 H 0.08476 0.46568 0.29813 0.0
C1143 C 0.01596 0.39996 0.29526 0.0
H1144 H 0.07929 0.42486 0.32532 0.0
C1145 C 0.01889 0.42337 0.28091 0.0
C1146 C 0.04384 0.44714 0.28069 0.0
H1147 H 0.99687 0.38154 0.29277 0.0
H1148 H 1.00221 0.42225 0.26678 0.0
C1149 C 0.06521 0.44778 0.29865 0.0
C1150 C 0.60251 0.6416 0.30799 0.0
C1151 C 0.62816 0.64677 0.30066 0.0
H1152 H 0.56074 0.61511 0.29816 0.0
C1153 C 0.6312 0.62711 0.28251 0.0
H1154 H 0.5997 0.65645 0.32215 0.0
C1155 C 0.60902 0.60323 0.27024 0.0
C1156 C 0.58348 0.59882 0.27537 0.0
H1157 H 0.65073 0.63044 0.27701 0.0
H1158 H 0.61186 0.58898 0.25442 0.0
C1159 C 0.58026 0.61788 0.2949 0.0
C1160 C 0.36354 0.94339 0.3015 0.0
C1161 C 0.36151 0.96638 0.2995 0.0
H1162 H 0.38501 0.92437 0.28451 0.0
C1163 C 0.38247 0.9896 0.28418 0.0
H1164 H 0.34779 0.92527 0.31349 0.0
C1165 C 0.40402 0.98935 0.26877 0.0
C1166 C 0.40495 0.96569 0.26758 0.0
H1167 H 0.38182 0.00783 0.28296 0.0
H1168 H 0.41909 0.00717 0.25535 0.0
C1169 C 0.38503 0.94299 0.28541 0.0
C1170 C 0.5759 0.93847 0.30814 0.0
C1171 C 0.59975 0.96298 0.3143 0.0
H1172 H 0.53709 0.91888 0.28323 0.0
C1173 C 0.60074 0.98701 0.30666 0.0
H1174 H 0.57465 0.91968 0.31384 0.0
C1175 C 0.57924 0.98658 0.29015 0.0
C1176 C 0.55639 0.9621 0.28029 0.0
H1177 H 0.61873 0.0062 0.31163 0.0
H1178 H 0.58132 0.0054 0.28222 0.0
C1179 C 0.55435 0.93803 0.29096 0.0
C1180 C 0.02374 0.61236 0.32043 0.0
C1181 C 0.02365 0.63317 0.30182 0.0
H1182 H 0.0225 0.57489 0.31585 0.0
C1183 C 0.02264 0.63236 0.26377 0.0
H1184 H 0.02452 0.6127 0.34998 0.0
C1185 C 0.02243 0.61155 0.2444 0.0
C1186 C 0.0221 0.59018 0.26249 0.0
H1187 H 0.0231 0.64845 0.24879 0.0
H1188 H 0.02352 0.613 0.21499 0.0
C1189 C 0.02265 0.59081 0.30091 0.0
C1190 C 0.3939 0.39349 0.29843 0.0
C1191 C 0.37447 0.39833 0.31205 0.0
H1192 H 0.43109 0.4096 0.27134 0.0
C1193 C 0.37935 0.42467 0.31252 0.0
H1194 H 0.39069 0.3734 0.29805 0.0
C1195 C 0.40242 0.44542 0.29661 0.0
C1196 C 0.42118 0.44013 0.28136 0.0
H1197 H 0.36459 0.42883 0.32288 0.0
H1198 H 0.40482 0.46506 0.29423 0.0
C1199 C 0.41715 0.41424 0.28367 0.0
C1200 C 0.2801 0.25149 0.36013 0.0
C1201 C 0.30415 0.27604 0.35739 0.0
H1202 H 0.26106 0.21089 0.37865 0.0
C1203 C 0.32801 0.2769 0.36419 0.0
H1204 H 0.26146 0.25035 0.35498 0.0
C1205 C 0.32782 0.25416 0.37603 0.0
C1206 C 0.30375 0.23029 0.38235 0.0
H1207 H 0.34683 0.29555 0.36192 0.0
H1208 H 0.34646 0.25604 0.38372 0.0
C1209 C 0.27988 0.22886 0.37316 0.0
C1210 C 0.72166 0.03005 0.41796 0.0
C1211 C 0.71918 0.03052 0.38021 0.0
H1212 H 0.74508 0.04864 0.46514 0.0
C1213 C 0.7389 0.05233 0.36077 0.0
H1214 H 0.70708 0.01312 0.43338 0.0
C1215 C 0.76052 0.07391 0.37933 0.0
C1216 C 0.76296 0.07356 0.41749 0.0
H1217 H 0.73733 0.05289 0.3314 0.0
H1218 H 0.77511 0.09077 0.3639 0.0
C1219 C 0.74347 0.05085 0.43618 0.0
C1220 C 0.95491 0.68315 0.37291 0.0
C1221 C 0.98026 0.70609 0.37031 0.0
H1222 H 0.91529 0.66671 0.39199 0.0
C1223 C 0.98423 0.73124 0.38078 0.0
H1224 H 0.95143 0.66358 0.36474 0.0
C1225 C 0.96361 0.73298 0.39698 0.0
C1226 C 0.93867 0.7097 0.40175 0.0
H1227 H 1.00369 0.74915 0.37906 0.0
H1228 H 0.96755 0.75217 0.40786 0.0
C1229 C 0.93419 0.68499 0.38805 0.0
C1230 C 0.41629 0.02699 0.69307 0.0
C1231 C 0.41591 0.05088 0.69456 0.0
H1232 H 0.43555 0.00642 0.71065 0.0
C1233 C 0.43728 0.07399 0.71078 0.0
H1234 H 0.39993 0.00894 0.68069 0.0
C1235 C 0.45746 0.07243 0.72856 0.0
C1236 C 0.45684 0.04796 0.72924 0.0
H1237 H 0.4372 0.09255 0.71244 0.0
H1238 H 0.47241 0.0897 0.74409 0.0
C1239 C 0.43681 0.02565 0.7098 0.0
C1240 C 0.96381 0.37395 0.69582 0.0
C1241 C 0.98477 0.36916 0.69935 0.0
H1242 H 0.9494 0.40023 0.71004 0.0
C1243 C 0.00895 0.3893 0.7145 0.0
H1244 H 0.94501 0.3587 0.68399 0.0
C1245 C 0.01171 0.41317 0.72788 0.0
C1246 C 0.99018 0.41717 0.72715 0.0
H1247 H 0.02554 0.38629 0.71697 0.0
H1248 H 0.03013 0.42776 0.74137 0.0
C1249 C 0.96639 0.39776 0.71014 0.0
C1250 C 0.61169 0.60817 0.71156 0.0
C1251 C 0.63138 0.60559 0.69392 0.0
H1252 H 0.57613 0.58902 0.74262 0.0
C1253 C 0.62849 0.58009 0.69071 0.0
H1254 H 0.61316 0.62749 0.7137 0.0
C1255 C 0.60755 0.55805 0.7081 0.0
C1256 C 0.58896 0.56116 0.72831 0.0
H1257 H 0.64335 0.57756 0.67692 0.0
H1258 H 0.60709 0.53921 0.70801 0.0
C1259 C 0.59044 0.58609 0.72793 0.0
C1260 C 0.72521 0.75499 0.64737 0.0
C1261 C 0.701 0.73036 0.64458 0.0
H1262 H 0.74722 0.79622 0.63113 0.0
C1263 C 0.67888 0.72994 0.62967 0.0
H1264 H 0.74257 0.75588 0.65885 0.0
C1265 C 0.68136 0.75304 0.61494 0.0
C1266 C 0.70613 0.77701 0.6142 0.0
H1267 H 0.65988 0.71136 0.62764 0.0
H1268 H 0.66441 0.75156 0.60111 0.0
C1269 C 0.72781 0.77815 0.63196 0.0
C1270 C 0.30345 0.96534 0.60607 0.0
C1271 C 0.29871 0.98021 0.63225 0.0
H1272 H 0.28648 0.93064 0.57066 0.0
C1273 C 0.27286 0.96977 0.64568 0.0
H1274 H 0.32319 0.97266 0.59566 0.0
C1275 C 0.25183 0.94556 0.63146 0.0
C1276 C 0.25653 0.93152 0.60395 0.0
H1277 H 0.26873 0.98075 0.66618 0.0
H1278 H 0.23183 0.93863 0.64044 0.0
C1279 C 0.28256 0.94117 0.59215 0.0
C1280 C 0.03964 0.2808 0.64155 0.0
C1281 C 0.0375 0.30373 0.6405 0.0
H1282 H 0.06017 0.26158 0.62135 0.0
C1283 C 0.05772 0.32687 0.62404 0.0
H1284 H 0.02437 0.26272 0.65424 0.0
C1285 C 0.07842 0.32644 0.60617 0.0
C1286 C 0.07912 0.3027 0.60375 0.0
H1287 H 0.05687 0.34501 0.6234 0.0
H1288 H 0.09274 0.34408 0.59166 0.0
C1289 C 0.06028 0.28023 0.62309 0.0
C1290 C 0.24383 0.27455 0.64154 0.0
C1291 C 0.26853 0.29838 0.6461 0.0
H1292 H 0.20497 0.25595 0.61705 0.0
C1293 C 0.27116 0.32273 0.63593 0.0
H1294 H 0.24135 0.25551 0.64918 0.0
C1295 C 0.25032 0.32308 0.61859 0.0
C1296 C 0.22656 0.299 0.61018 0.0
H1297 H 0.28988 0.34144 0.63963 0.0
H1298 H 0.25357 0.34202 0.60899 0.0
C1299 C 0.22297 0.27483 0.62342 0.0
C1300 C 0.71149 0.96008 0.64954 0.0
C1301 C 0.69194 0.96638 0.64262 0.0
H1302 H 0.7271 0.93524 0.63515 0.0
C1303 C 0.66996 0.94884 0.62078 0.0
H1304 H 0.72847 0.97311 0.66673 0.0
C1305 C 0.66854 0.92641 0.6039 0.0
C1306 C 0.68956 0.92169 0.60748 0.0
H1307 H 0.65425 0.95289 0.61587 0.0
H1308 H 0.65185 0.91382 0.58599 0.0
C1309 C 0.71045 0.93806 0.63188 0.0
C1310 C 0.04521 0.76373 0.64696 0.0
C1311 C 0.04237 0.73889 0.65495 0.0
H1312 H 0.06947 0.80176 0.62141 0.0
C1313 C 0.06396 0.73534 0.65007 0.0
H1314 H 0.02871 0.7668 0.65041 0.0
C1315 C 0.08752 0.75566 0.63525 0.0
C1316 C 0.08961 0.77957 0.624 0.0
H1317 H 0.06219 0.71634 0.65616 0.0
H1318 H 0.10319 0.75164 0.62929 0.0
C1319 C 0.06857 0.78381 0.63087 0.0
C1320 C 0.95078 0.59148 0.69985 0.0
C1321 C 0.97432 0.61669 0.69944 0.0
H1322 H 0.93245 0.5503 0.7158 0.0
C1323 C 0.99833 0.6186 0.70883 0.0
H1324 H 0.93203 0.58953 0.69277 0.0
C1325 C 0.99868 0.59609 0.72042 0.0
C1326 C 0.97497 0.57134 0.72367 0.0
H1327 H 0.01678 0.63777 0.70845 0.0
H1328 H 0.01726 0.59851 0.7297 0.0
C1329 C 0.95104 0.56903 0.71257 0.0
C1330 C 0.41577 0.36789 0.69224 0.0
C1331 C 0.39053 0.36375 0.69951 0.0
H1332 H 0.45719 0.39066 0.70604 0.0
C1333 C 0.3884 0.38291 0.72064 0.0
H1334 H 0.41793 0.35353 0.67564 0.0
C1335 C 0.41086 0.40455 0.73691 0.0
C1336 C 0.43578 0.40706 0.73316 0.0
H1337 H 0.36922 0.38053 0.72594 0.0
H1338 H 0.40841 0.41806 0.75503 0.0
C1339 C 0.43829 0.38935 0.70917 0.0
C1340 C 0.64847 0.06314 0.71124 0.0
C1341 C 0.64563 0.03822 0.70238 0.0
H1342 H 0.63063 0.08338 0.73711 0.0
C1343 C 0.62098 0.01464 0.70665 0.0
H1344 H 0.66741 0.08154 0.70824 0.0
C1345 C 0.59985 0.01578 0.72172 0.0
C1346 C 0.6033 0.04044 0.73366 0.0
H1347 H 0.6184 0.99523 0.69976 0.0
H1348 H 0.58151 0.99717 0.7269 0.0
C1349 C 0.62749 0.06422 0.72744 0.0
loop_
_geom_bond_atom_site_label_1
_geom_bond_atom_site_label_2
_geom_bond_distance
_geom_bond_site_symmetry_2
_ccdc_geom_bond_type
Co0 O1 2.216 . S
Co0 O2 2.091 . S
Co0 O4 2.004 1_554 S
Co0 O10 2.021 . S
Co0 O12 2.137 1_454 S
Co0 O13 2.244 1_455 S
O1 Co0 2.216 . S
O1 C8 1.247 . S
O2 Co0 2.091 . S
O2 C8 1.261 . S
C3 O12 1.247 . S
C3 O13 1.272 1_556 S
O4 Co0 2.004 1_556 S
O4 C9 1.259 1_455 S
Co5 O6 2.061 1_554 S
Co5 O11 2.052 . S
Co5 O13 2.135 . S
O6 Co5 2.061 1_556 S
O6 C9 1.235 . S
C7 O10 1.238 1_655 S
C7 O11 1.241 . S
C8 O1 1.247 . S
C8 O2 1.261 . S
C9 O4 1.259 1_655 S
C9 O6 1.235 . S
O10 Co0 2.021 . S
O10 C7 1.238 1_455 S
O11 Co5 2.052 . S
O11 C7 1.241 . S
O12 Co0 2.137 1_656 S
O12 C3 1.247 . S
O13 Co0 2.244 1_655 S
O13 C3 1.272 1_554 S
O13 Co5 2.135 . S
Co14 O15 2.216 1_554 S
Co14 O16 2.091 . S
Co14 O18 2.004 . S
Co14 O24 2.021 1_554 S
Co14 O26 2.137 . S
Co14 O27 2.244 . S
O15 Co14 2.216 1_556 S
O15 C22 1.247 . S
O16 Co14 2.091 . S
O16 C22 1.261 1_554 S
C17 O26 1.247 . S
C17 O27 1.272 . S
O18 Co14 2.004 . S
O18 C23 1.259 . S
Co19 O20 2.061 . S
Co19 O25 2.052 1_554 S
Co19 O27 2.135 . S
O20 Co19 2.061 . S
O20 C23 1.235 . S
C21 O24 1.238 . S
C21 O25 1.241 . S
C22 O15 1.247 . S
C22 O16 1.261 1_556 S
C23 O18 1.259 . S
C23 O20 1.235 . S
O24 Co14 2.021 1_556 S
O24 C21 1.238 . S
O25 Co19 2.052 1_556 S
O25 C21 1.241 . S
O26 Co14 2.137 . S
O26 C17 1.247 . S
O27 Co14 2.244 . S
O27 C17 1.272 . S
O27 Co19 2.135 . S
Co28 O29 2.216 1_554 S
Co28 O30 2.091 . S
Co28 O32 2.004 . S
Co28 O38 2.021 1_554 S
Co28 O40 2.137 1_545 S
Co28 O41 2.244 1_545 S
O29 Co28 2.216 1_556 S
O29 C36 1.247 . S
O30 Co28 2.091 . S
O30 C36 1.261 1_554 S
C31 O40 1.247 . S
C31 O41 1.272 . S
O32 Co28 2.004 . S
O32 C37 1.287 . S
Co33 O34 2.061 . S
Co33 O39 2.052 1_554 S
Co33 O41 2.135 . S
O34 Co33 2.061 . S
O34 C37 1.209 1_565 S
C35 O38 1.238 1_565 S
C35 O39 1.241 . S
C36 O29 1.247 . S
C36 O30 1.261 1_556 S
C37 O32 1.287 . S
C37 O34 1.209 1_545 S
O38 Co28 2.021 1_556 S
O38 C35 1.238 1_545 S
O39 Co33 2.052 1_556 S
O39 C35 1.241 . S
O40 Co28 2.137 1_565 S
O40 C31 1.247 . S
O41 Co28 2.244 1_565 S
O41 C31 1.272 . S
O41 Co33 2.135 . S
Co42 O43 2.216 1_554 S
Co42 O44 2.091 . S
Co42 O46 2.004 . S
Co42 O52 2.021 1_554 S
Co42 O54 2.137 1_655 S
Co42 O55 2.244 1_655 S
O43 Co42 2.216 1_556 S
O43 C50 1.247 . S
O44 Co42 2.091 . S
O44 C50 1.261 1_554 S
C45 O54 1.247 . S
C45 O55 1.272 . S
O46 Co42 2.004 . S
O46 C51 1.259 1_655 S
Co47 O48 2.061 . S
Co47 O53 2.052 1_554 S
Co47 O55 2.135 . S
O48 Co47 2.061 . S
O48 C51 1.235 . S
C49 O52 1.238 1_455 S
C49 O53 1.241 . S
C50 O43 1.247 . S
C50 O44 1.261 1_556 S
C51 O46 1.259 1_455 S
C51 O48 1.235 . S
O52 Co42 2.021 1_556 S
O52 C49 1.238 1_655 S
O53 Co47 2.052 1_556 S
O53 C49 1.241 . S
O54 Co42 2.137 1_455 S
O54 C45 1.247 . S
O55 Co42 2.244 1_455 S
O55 C45 1.272 . S
O55 Co47 2.135 . S
Co56 O57 2.216 . S
Co56 O58 2.091 . S
Co56 O60 2.004 1_554 S
Co56 O66 2.021 . S
Co56 O68 2.137 1_554 S
Co56 O69 2.243 1_554 S
O57 Co56 2.216 . S
O57 C64 1.247 . S
O58 Co56 2.091 . S
O58 C64 1.261 . S
C59 O68 1.247 . S
C59 O69 1.284 . S
O60 Co56 2.004 1_556 S
O60 C65 1.259 . S
Co61 O62 2.059 . S
Co61 O67 2.055 1_556 S
Co61 O69 2.135 . S
O62 Co61 2.059 . S
O62 C65 1.235 . S
C63 O66 1.238 . S
C63 O67 1.241 . S
C64 O57 1.247 . S
C64 O58 1.261 . S
C65 O60 1.259 . S
C65 O62 1.235 . S
O66 Co56 2.021 . S
O66 C63 1.238 . S
O67 Co61 2.055 1_554 S
O67 C63 1.241 . S
O68 Co56 2.137 1_556 S
O68 C59 1.247 . S
O69 Co56 2.243 1_556 S
O69 C59 1.284 . S
O69 Co61 2.135 . S
Co70 O71 2.216 . S
Co70 O72 2.091 . S
Co70 O74 2.004 1_554 S
Co70 O80 2.021 . S
Co70 O82 2.137 1_564 S
Co70 O83 2.244 1_565 S
O71 Co70 2.216 . S
O71 C78 1.247 . S
O72 Co70 2.091 . S
O72 C78 1.261 . S
C73 O82 1.247 . S
C73 O83 1.272 1_556 S
O74 Co70 2.004 1_556 S
O74 C79 1.259 1_565 S
Co75 O76 2.061 1_554 S
Co75 O81 2.052 . S
Co75 O83 2.135 . S
O76 Co75 2.061 1_556 S
O76 C79 1.235 . S
C77 O80 1.238 1_545 S
C77 O81 1.241 . S
C78 O71 1.247 . S
C78 O72 1.261 . S
C79 O74 1.259 1_545 S
C79 O76 1.235 . S
O80 Co70 2.021 . S
O80 C77 1.238 1_565 S
O81 Co75 2.052 . S
O81 C77 1.241 . S
O82 Co70 2.137 1_546 S
O82 C73 1.247 . S
O83 Co70 2.244 1_545 S
O83 C73 1.272 1_554 S
O83 Co75 2.135 . S
Co84 O85 2.216 . S
Co84 O86 2.091 . S
Co84 O88 2.004 . S
Co84 O94 2.021 . S
Co84 O96 2.137 . S
Co84 O97 2.244 . S
O85 Co84 2.216 . S
O85 C92 1.247 . S
O86 Co84 2.091 . S
O86 C92 1.261 . S
C87 O96 1.247 . S
C87 O97 1.272 . S
O88 Co84 2.004 . S
O88 C93 1.259 . S
Co89 O90 2.061 . S
Co89 O95 2.052 . S
Co89 O97 2.135 . S
O90 Co89 2.061 . S
O90 C93 1.235 . S
C91 O94 1.238 . S
C91 O95 1.241 . S
C92 O85 1.247 . S
C92 O86 1.261 . S
C93 O88 1.259 . S
C93 O90 1.235 . S
O94 Co84 2.021 . S
O94 C91 1.238 . S
O95 Co89 2.052 . S
O95 C91 1.241 . S
O96 Co84 2.137 . S
O96 C87 1.247 . S
O97 Co84 2.244 . S
O97 C87 1.272 . S
O97 Co89 2.135 . S
Co98 O99 2.216 1_565 S
Co98 O100 2.091 . S
Co98 O102 2.004 . S
Co98 O108 2.021 . S
Co98 O110 2.137 1_565 S
Co98 O111 2.244 1_565 S
O99 Co98 2.216 1_545 S
O99 C106 1.247 1_545 S
O100 Co98 2.091 . S
O100 C106 1.261 . S
C101 O110 1.247 . S
C101 O111 1.272 . S
O102 Co98 2.004 . S
O102 C107 1.259 . S
Co103 O104 2.061 . S
Co103 O109 2.052 . S
Co103 O111 2.135 1_565 S
O104 Co103 2.061 . S
O104 C107 1.235 . S
C105 O108 1.238 . S
C105 O109 1.241 . S
C106 O99 1.247 1_565 S
C106 O100 1.261 . S
C107 O102 1.259 . S
C107 O104 1.235 . S
O108 Co98 2.021 . S
O108 C105 1.238 . S
O109 Co103 2.052 . S
O109 C105 1.241 . S
O110 Co98 2.137 1_545 S
O110 C101 1.247 . S
O111 Co98 2.244 1_545 S
O111 C101 1.272 . S
O111 Co103 2.135 1_545 S
Co112 O113 2.216 1_455 S
Co112 O114 2.091 . S
Co112 O116 2.004 . S
Co112 O122 2.021 . S
Co112 O124 2.137 1_455 S
Co112 O125 2.244 1_455 S
O113 Co112 2.216 1_655 S
O113 C120 1.247 1_655 S
O114 Co112 2.091 . S
O114 C120 1.261 . S
C115 O124 1.247 . S
C115 O125 1.272 . S
O116 Co112 2.004 . S
O116 C121 1.259 . S
Co117 O118 2.061 . S
Co117 O123 2.052 . S
Co117 O125 2.135 1_455 S
O118 Co117 2.061 . S
O118 C121 1.235 . S
C119 O122 1.238 . S
C119 O123 1.241 . S
C120 O113 1.247 1_455 S
C120 O114 1.261 . S
C121 O116 1.259 . S
C121 O118 1.235 . S
O122 Co112 2.021 . S
O122 C119 1.238 . S
O123 Co117 2.052 . S
O123 C119 1.241 . S
O124 Co112 2.137 1_655 S
O124 C115 1.247 . S
O125 Co112 2.244 1_655 S
O125 C115 1.272 . S
O125 Co117 2.135 1_655 S
Co126 O127 2.216 1_565 S
Co126 O128 2.091 . S
Co126 O130 2.004 . S
Co126 O136 2.021 . S
Co126 O138 2.137 1_565 S
Co126 O139 2.244 1_565 S
O127 Co126 2.216 1_545 S
O127 C134 1.247 1_545 S
O128 Co126 2.091 . S
O128 C134 1.261 . S
C129 O138 1.247 . S
C129 O139 1.272 . S
O130 Co126 2.004 . S
O130 C135 1.259 . S
Co131 O132 2.061 . S
Co131 O137 2.052 . S
Co131 O139 2.135 1_565 S
O132 Co131 2.061 . S
O132 C135 1.235 . S
C133 O136 1.238 . S
C133 O137 1.241 . S
C134 O127 1.247 1_565 S
C134 O128 1.261 . S
C135 O130 1.259 . S
C135 O132 1.235 . S
O136 Co126 2.021 . S
O136 C133 1.238 . S
O137 Co131 2.052 . S
O137 C133 1.241 . S
O138 Co126 2.137 1_545 S
O138 C129 1.247 . S
O139 Co126 2.244 1_545 S
O139 C129 1.272 . S
O139 Co131 2.135 1_545 S
Co140 O141 2.216 1_455 S
Co140 O142 2.091 1_455 S
Co140 O144 2.004 . S
Co140 O150 2.021 . S
Co140 O152 2.137 1_455 S
Co140 O153 2.244 . S
O141 Co140 2.216 1_655 S
O141 C148 1.247 . S
O142 Co140 2.091 1_655 S
O142 C148 1.261 . S
C143 O152 1.247 1_455 S
C143 O153 1.272 . S
O144 Co140 2.004 . S
O144 C149 1.259 . S
Co145 O146 2.061 . S
Co145 O151 2.052 . S
Co145 O153 2.135 . S
O146 Co145 2.061 . S
O146 C149 1.235 . S
C147 O150 1.238 . S
C147 O151 1.241 . S
C148 O141 1.247 . S
C148 O142 1.261 . S
C149 O144 1.259 . S
C149 O146 1.235 . S
O150 Co140 2.021 . S
O150 C147 1.238 . S
O151 Co145 2.052 . S
O151 C147 1.241 . S
O152 Co140 2.137 1_655 S
O152 C143 1.247 1_655 S
O153 Co140 2.244 . S
O153 C143 1.272 . S
O153 Co145 2.135 . S
Co154 O155 2.216 . S
Co154 O156 2.091 . S
Co154 O158 2.004 . S
Co154 O164 2.021 . S
Co154 O166 2.137 . S
Co154 O167 2.244 . S
O155 Co154 2.216 . S
O155 C162 1.247 . S
O156 Co154 2.091 . S
O156 C162 1.261 . S
C157 O166 1.247 . S
C157 O167 1.272 . S
O158 Co154 2.004 . S
O158 C163 1.259 . S
Co159 O160 2.061 . S
Co159 O165 2.052 . S
Co159 O167 2.135 . S
O160 Co159 2.061 . S
O160 C163 1.235 . S
C161 O164 1.238 . S
C161 O165 1.241 . S
C162 O155 1.247 . S
C162 O156 1.261 . S
C163 O158 1.259 . S
C163 O160 1.235 . S
O164 Co154 2.021 . S
O164 C161 1.238 . S
O165 Co159 2.052 . S
O165 C161 1.241 . S
O166 Co154 2.137 . S
O166 C157 1.247 . S
O167 Co154 2.244 . S
O167 C157 1.272 . S
O167 Co159 2.135 . S
Co168 O169 2.216 1_545 S
Co168 O170 2.091 . S
Co168 O172 2.004 . S
Co168 O178 2.021 . S
Co168 O180 2.137 1_545 S
Co168 O181 2.244 1_545 S
O169 Co168 2.216 1_565 S
O169 C176 1.247 1_565 S
O170 Co168 2.091 . S
O170 C176 1.261 . S
C171 O180 1.247 . S
C171 O181 1.272 . S
O172 Co168 2.004 . S
O172 C177 1.259 . S
Co173 O174 2.061 . S
Co173 O179 2.052 . S
Co173 O181 2.135 1_545 S
O174 Co173 2.061 . S
O174 C177 1.235 . S
C175 O178 1.238 . S
C175 O179 1.241 . S
C176 O169 1.247 1_545 S
C176 O170 1.261 . S
C177 O172 1.259 . S
C177 O174 1.235 . S
O178 Co168 2.021 . S
O178 C175 1.238 . S
O179 Co173 2.052 . S
O179 C175 1.241 . S
O180 Co168 2.137 1_565 S
O180 C171 1.247 . S
O181 Co168 2.244 1_565 S
O181 C171 1.272 . S
O181 Co173 2.135 1_565 S
Co182 O183 2.216 1_655 S
Co182 O184 2.091 1_655 S
Co182 O186 2.004 . S
Co182 O192 2.021 . S
Co182 O194 2.137 1_655 S
Co182 O195 2.244 . S
O183 Co182 2.216 1_455 S
O183 C190 1.247 . S
O184 Co182 2.091 1_455 S
O184 C190 1.261 . S
C185 O194 1.247 1_655 S
C185 O195 1.272 . S
O186 Co182 2.004 . S
O186 C191 1.259 . S
Co187 O188 2.061 . S
Co187 O193 2.052 . S
Co187 O195 2.135 . S
O188 Co187 2.061 . S
O188 C191 1.235 . S
C189 O192 1.238 . S
C189 O193 1.241 . S
C190 O183 1.247 . S
C190 O184 1.261 . S
C191 O186 1.259 . S
C191 O188 1.235 . S
O192 Co182 2.021 . S
O192 C189 1.238 . S
O193 Co187 2.052 . S
O193 C189 1.241 . S
O194 Co182 2.137 1_455 S
O194 C185 1.247 1_455 S
O195 Co182 2.244 . S
O195 C185 1.272 . S
O195 Co187 2.135 . S
Co196 O197 2.216 . S
Co196 O198 2.091 . S
Co196 O200 2.004 . S
Co196 O206 2.021 . S
Co196 O208 2.137 . S
Co196 O209 2.244 . S
O197 Co196 2.216 . S
O197 C204 1.247 . S
O198 Co196 2.091 . S
O198 C204 1.261 . S
C199 O208 1.247 . S
C199 O209 1.272 . S
O200 Co196 2.004 . S
O200 C205 1.259 . S
Co201 O202 2.061 . S
Co201 O207 2.052 . S
Co201 O209 2.135 . S
O202 Co201 2.061 . S
O202 C205 1.235 . S
C203 O206 1.238 . S
C203 O207 1.241 . S
C204 O197 1.247 . S
C204 O198 1.261 . S
C205 O200 1.259 . S
C205 O202 1.235 . S
O206 Co196 2.021 . S
O206 C203 1.238 . S
O207 Co201 2.052 . S
O207 C203 1.241 . S
O208 Co196 2.137 . S
O208 C199 1.247 . S
O209 Co196 2.244 . S
O209 C199 1.272 . S
O209 Co201 2.135 . S
Co210 O211 2.216 . S
Co210 O212 2.091 . S
Co210 O214 2.004 . S
Co210 O220 2.021 . S
Co210 O222 2.137 . S
Co210 O223 2.244 . S
O211 Co210 2.216 . S
O211 C218 1.247 . S
O212 Co210 2.091 . S
O212 C218 1.261 . S
C213 O222 1.247 . S
C213 O223 1.272 . S
O214 Co210 2.004 . S
O214 C219 1.259 . S
Co215 O216 2.061 . S
Co215 O221 2.052 . S
Co215 O223 2.135 . S
O216 Co215 2.061 . S
O216 C219 1.235 . S
C217 O220 1.238 . S
C217 O221 1.241 . S
C218 O211 1.247 . S
C218 O212 1.261 . S
C219 O214 1.259 . S
C219 O216 1.235 . S
O220 Co210 2.021 . S
O220 C217 1.238 . S
O221 Co215 2.052 . S
O221 C217 1.241 . S
O222 Co210 2.137 . S
O222 C213 1.247 . S
O223 Co210 2.244 . S
O223 C213 1.272 . S
O223 Co215 2.135 . S
Co224 O225 2.216 1_545 S
Co224 O226 2.091 . S
Co224 O228 2.004 . S
Co224 O234 2.021 . S
Co224 O236 2.137 1_545 S
Co224 O237 2.244 1_545 S
O225 Co224 2.216 1_565 S
O225 C232 1.247 1_565 S
O226 Co224 2.091 . S
O226 C232 1.261 . S
C227 O236 1.247 . S
C227 O237 1.272 . S
O228 Co224 2.004 . S
O228 C233 1.259 . S
Co229 O230 2.061 . S
Co229 O235 2.052 . S
Co229 O237 2.135 1_545 S
O230 Co229 2.061 . S
O230 C233 1.235 . S
C231 O234 1.238 . S
C231 O235 1.241 . S
C232 O225 1.247 1_545 S
C232 O226 1.261 . S
C233 O228 1.259 . S
C233 O230 1.235 . S
O234 Co224 2.021 . S
O234 C231 1.238 . S
O235 Co229 2.052 . S
O235 C231 1.241 . S
O236 Co224 2.137 1_565 S
O236 C227 1.247 . S
O237 Co224 2.244 1_565 S
O237 C227 1.272 . S
O237 Co229 2.135 1_565 S
Co238 O239 2.216 1_655 S
Co238 O240 2.091 . S
Co238 O242 2.004 . S
Co238 O248 2.021 . S
Co238 O250 2.137 1_655 S
Co238 O251 2.244 1_655 S
O239 Co238 2.216 1_455 S
O239 C246 1.247 1_455 S
O240 Co238 2.091 . S
O240 C246 1.261 . S
C241 O250 1.247 . S
C241 O251 1.272 . S
O242 Co238 2.004 . S
O242 C247 1.259 . S
Co243 O244 2.061 . S
Co243 O249 2.052 . S
Co243 O251 2.135 1_655 S
O244 Co243 2.061 . S
O244 C247 1.235 . S
C245 O248 1.238 . S
C245 O249 1.241 . S
C246 O239 1.247 1_655 S
C246 O240 1.261 . S
C247 O242 1.259 . S
C247 O244 1.235 . S
O248 Co238 2.021 . S
O248 C245 1.238 . S
O249 Co243 2.052 . S
O249 C245 1.241 . S
O250 Co238 2.137 1_455 S
O250 C241 1.247 . S
O251 Co238 2.244 1_455 S
O251 C241 1.272 . S
O251 Co243 2.135 1_455 S
H252 C260 0.930 . S
H253 C263 0.930 . S
H254 C265 0.930 . S
H255 C266 0.970 . S
H256 C266 0.970 . S
H257 C268 0.930 . S
H258 C270 0.930 . S
H259 C272 0.930 . S
C260 H252 0.930 . S
C260 C261 1.382 . S
C260 C262 1.426 . S
C261 C260 1.382 . S
C261 C265 1.389 . S
C262 C260 1.426 . S
C262 C263 1.375 . S
C262 C266 1.532 . S
C263 H253 0.930 . S
C263 C262 1.375 . S
C263 C264 1.416 . S
C264 C263 1.416 . S
C264 C265 1.371 . S
C265 H254 0.930 . S
C265 C261 1.389 . S
C265 C264 1.371 . S
C266 H255 0.970 . S
C266 H256 0.970 . S
C266 C262 1.532 . S
C266 C267 1.499 . S
C267 C266 1.499 . S
C267 C268 1.370 . S
C267 C272 1.415 . S
C268 H257 0.930 . S
C268 C267 1.370 . S
C268 C269 1.407 . S
C269 C268 1.407 . S
C269 C270 1.365 . S
C270 H258 0.930 . S
C270 C269 1.365 . S
C270 C271 1.393 . S
C271 C270 1.393 . S
C271 C272 1.387 . S
C272 H259 0.930 . S
C272 C267 1.415 . S
C272 C271 1.387 . S
H273 C281 0.930 . S
H274 C284 0.930 . S
H275 C286 0.930 . S
H276 C287 0.970 . S
H277 C287 0.970 . S
H278 C289 0.930 . S
H279 C291 0.930 . S
H280 C293 0.930 . S
C281 H273 0.930 . S
C281 C282 1.382 . S
C281 C283 1.426 . S
C282 C281 1.382 . S
C282 C286 1.389 . S
C283 C281 1.426 . S
C283 C284 1.375 . S
C283 C287 1.532 . S
C284 H274 0.930 . S
C284 C283 1.375 . S
C284 C285 1.416 . S
C285 C284 1.416 . S
C285 C286 1.371 . S
C286 H275 0.930 . S
C286 C282 1.389 . S
C286 C285 1.371 . S
C287 H276 0.970 . S
C287 H277 0.970 . S
C287 C283 1.532 . S
C287 C288 1.499 . S
C288 C287 1.499 . S
C288 C289 1.370 . S
C288 C293 1.415 . S
C289 H278 0.930 . S
C289 C288 1.370 . S
C289 C290 1.407 . S
C290 C289 1.407 . S
C290 C291 1.365 . S
C291 H279 0.930 . S
C291 C290 1.365 . S
C291 C292 1.393 . S
C292 C291 1.393 . S
C292 C293 1.387 . S
C293 H280 0.930 . S
C293 C288 1.415 . S
C293 C292 1.387 . S
H294 C302 0.930 . S
H295 C305 0.930 . S
H296 C307 0.930 . S
H297 C308 0.970 . S
H298 C308 0.970 . S
H299 C310 0.930 . S
H300 C312 0.930 . S
H301 C314 0.930 . S
C302 H294 0.930 . S
C302 C303 1.382 . S
C302 C304 1.426 . S
C303 C302 1.382 . S
C303 C307 1.389 . S
C304 C302 1.426 . S
C304 C305 1.375 . S
C304 C308 1.532 . S
C305 H295 0.930 . S
C305 C304 1.375 . S
C305 C306 1.416 . S
C306 C305 1.416 . S
C306 C307 1.371 . S
C307 H296 0.930 . S
C307 C303 1.389 . S
C307 C306 1.371 . S
C308 H297 0.970 . S
C308 H298 0.970 . S
C308 C304 1.532 . S
C308 C309 1.499 . S
C309 C308 1.499 . S
C309 C310 1.370 . S
C309 C314 1.415 . S
C310 H299 0.930 . S
C310 C309 1.370 . S
C310 C311 1.407 . S
C311 C310 1.407 . S
C311 C312 1.365 . S
C312 H300 0.930 . S
C312 C311 1.365 . S
C312 C313 1.393 . S
C313 C312 1.393 . S
C313 C314 1.387 . S
C314 H301 0.930 . S
C314 C309 1.415 . S
C314 C313 1.387 . S
H315 C323 0.930 . S
H316 C326 0.930 . S
H317 C328 0.930 . S
H318 C329 0.970 . S
H319 C329 0.970 . S
H320 C331 0.930 . S
H321 C333 0.930 . S
H322 C335 0.930 . S
C323 H315 0.930 . S
C323 C324 1.382 . S
C323 C325 1.426 . S
C324 C323 1.382 . S
C324 C328 1.389 . S
C325 C323 1.426 . S
C325 C326 1.375 . S
C325 C329 1.532 . S
C326 H316 0.930 . S
C326 C325 1.375 . S
C326 C327 1.416 . S
C327 C326 1.416 . S
C327 C328 1.371 . S
C328 H317 0.930 . S
C328 C324 1.389 . S
C328 C327 1.371 . S
C329 H318 0.970 . S
C329 H319 0.970 . S
C329 C325 1.532 . S
C329 C330 1.499 . S
C330 C329 1.499 . S
C330 C331 1.370 . S
C330 C335 1.415 . S
C331 H320 0.930 . S
C331 C330 1.370 . S
C331 C332 1.407 . S
C332 C331 1.407 . S
C332 C333 1.365 . S
C333 H321 0.930 . S
C333 C332 1.365 . S
C333 C334 1.393 . S
C334 C333 1.393 . S
C334 C335 1.387 . S
C335 H322 0.930 . S
C335 C330 1.415 . S
C335 C334 1.387 . S
H336 C344 0.930 . S
H337 C347 0.930 . S
H338 C349 0.930 . S
H339 C350 0.970 . S
H340 C350 0.970 . S
H341 C352 0.930 . S
H342 C354 0.930 . S
H343 C356 0.930 . S
C344 H336 0.930 . S
C344 C345 1.382 . S
C344 C346 1.426 . S
C345 C344 1.382 . S
C345 C349 1.389 . S
C346 C344 1.426 . S
C346 C347 1.375 . S
C346 C350 1.532 . S
C347 H337 0.930 . S
C347 C346 1.375 . S
C347 C348 1.416 . S
C348 C347 1.416 . S
C348 C349 1.371 . S
C349 H338 0.930 . S
C349 C345 1.389 . S
C349 C348 1.371 . S
C350 H339 0.970 . S
C350 H340 0.970 . S
C350 C346 1.532 . S
C350 C351 1.499 . S
C351 C350 1.499 . S
C351 C352 1.370 . S
C351 C356 1.415 . S
C352 H341 0.930 . S
C352 C351 1.370 . S
C352 C353 1.407 . S
C353 C352 1.407 . S
C353 C354 1.365 . S
C354 H342 0.930 . S
C354 C353 1.365 . S
C354 C355 1.393 . S
C355 C354 1.393 . S
C355 C356 1.387 . S
C356 H343 0.930 . S
C356 C351 1.415 . S
C356 C355 1.387 . S
H357 C365 0.930 . S
H358 C368 0.930 . S
H359 C370 0.930 . S
H360 C371 0.970 . S
H361 C371 0.970 . S
H362 C373 0.930 . S
H363 C375 0.930 . S
H364 C377 0.930 . S
C365 H357 0.930 . S
C365 C366 1.382 . S
C365 C367 1.426 . S
C366 C365 1.382 . S
C366 C370 1.389 . S
C367 C365 1.426 . S
C367 C368 1.375 . S
C367 C371 1.532 . S
C368 H358 0.930 . S
C368 C367 1.375 . S
C368 C369 1.416 . S
C369 C368 1.416 . S
C369 C370 1.371 . S
C370 H359 0.930 . S
C370 C366 1.389 . S
C370 C369 1.371 . S
C371 H360 0.970 . S
C371 H361 0.970 . S
C371 C367 1.532 . S
C371 C372 1.499 . S
C372 C371 1.499 . S
C372 C373 1.370 . S
C372 C377 1.415 . S
C373 H362 0.930 . S
C373 C372 1.370 . S
C373 C374 1.407 . S
C374 C373 1.407 . S
C374 C375 1.365 . S
C375 H363 0.930 . S
C375 C374 1.365 . S
C375 C376 1.393 . S
C376 C375 1.393 . S
C376 C377 1.387 . S
C377 H364 0.930 . S
C377 C372 1.415 . S
C377 C376 1.387 . S
H378 C386 0.930 . S
H379 C389 0.930 . S
H380 C391 0.930 . S
H381 C392 0.970 . S
H382 C392 0.970 . S
H383 C394 0.930 . S
H384 C396 0.930 . S
H385 C398 0.930 . S
C386 H378 0.930 . S
C386 C387 1.382 . S
C386 C388 1.426 . S
C387 C386 1.382 . S
C387 C391 1.389 . S
C388 C386 1.426 . S
C388 C389 1.375 . S
C388 C392 1.532 . S
C389 H379 0.930 . S
C389 C388 1.375 . S
C389 C390 1.416 . S
C390 C389 1.416 . S
C390 C391 1.371 . S
C391 H380 0.930 . S
C391 C387 1.389 . S
C391 C390 1.371 . S
C392 H381 0.970 . S
C392 H382 0.970 . S
C392 C388 1.532 . S
C392 C393 1.499 . S
C393 C392 1.499 . S
C393 C394 1.370 . S
C393 C398 1.415 . S
C394 H383 0.930 . S
C394 C393 1.370 . S
C394 C395 1.407 . S
C395 C394 1.407 . S
C395 C396 1.365 . S
C396 H384 0.930 . S
C396 C395 1.365 . S
C396 C397 1.393 . S
C397 C396 1.393 . S
C397 C398 1.387 . S
C398 H385 0.930 . S
C398 C393 1.415 . S
C398 C397 1.387 . S
H399 C407 0.930 . S
H400 C410 0.930 . S
H401 C412 0.930 . S
H402 C413 0.970 . S
H403 C413 0.970 . S
H404 C415 0.930 . S
H405 C417 0.930 . S
H406 C419 0.930 . S
C407 H399 0.930 . S
C407 C408 1.382 . S
C407 C409 1.426 . S
C408 C407 1.382 . S
C408 C412 1.389 . S
C409 C407 1.426 . S
C409 C410 1.375 . S
C409 C413 1.532 . S
C410 H400 0.930 . S
C410 C409 1.375 . S
C410 C411 1.416 . S
C411 C410 1.416 . S
C411 C412 1.371 . S
C412 H401 0.930 . S
C412 C408 1.389 . S
C412 C411 1.371 . S
C413 H402 0.970 . S
C413 H403 0.970 . S
C413 C409 1.532 . S
C413 C414 1.499 . S
C414 C413 1.499 . S
C414 C415 1.370 . S
C414 C419 1.415 . S
C415 H404 0.930 . S
C415 C414 1.370 . S
C415 C416 1.407 . S
C416 C415 1.407 . S
C416 C417 1.365 . S
C417 H405 0.930 . S
C417 C416 1.365 . S
C417 C418 1.393 . S
C418 C417 1.393 . S
C418 C419 1.387 . S
C419 H406 0.930 . S
C419 C414 1.415 . S
C419 C418 1.387 . S
H420 C428 0.930 . S
H421 C431 0.930 . S
H422 C433 0.930 . S
H423 C434 0.970 . S
H424 C434 0.970 . S
H425 C436 0.930 . S
H426 C438 0.930 . S
H427 C440 0.930 . S
C428 H420 0.930 . S
C428 C429 1.382 . S
C428 C430 1.426 . S
C429 C428 1.382 . S
C429 C433 1.389 . S
C430 C428 1.426 . S
C430 C431 1.375 . S
C430 C434 1.532 . S
C431 H421 0.930 . S
C431 C430 1.375 . S
C431 C432 1.416 . S
C432 C431 1.416 . S
C432 C433 1.371 . S
C433 H422 0.930 . S
C433 C429 1.389 . S
C433 C432 1.371 . S
C434 H423 0.970 . S
C434 H424 0.970 . S
C434 C430 1.532 . S
C434 C435 1.499 . S
C435 C434 1.499 . S
C435 C436 1.370 . S
C435 C440 1.415 . S
C436 H425 0.930 . S
C436 C435 1.370 . S
C436 C437 1.407 . S
C437 C436 1.407 . S
C437 C438 1.365 . S
C438 H426 0.930 . S
C438 C437 1.365 . S
C438 C439 1.393 . S
C439 C438 1.393 . S
C439 C440 1.387 . S
C440 H427 0.930 . S
C440 C435 1.415 . S
C440 C439 1.387 . S
H441 C449 0.930 . S
H442 C452 0.930 . S
H443 C454 0.930 . S
H444 C455 0.970 . S
H445 C455 0.970 . S
H446 C457 0.930 . S
H447 C459 0.930 . S
H448 C461 0.930 . S
C449 H441 0.930 . S
C449 C450 1.382 . S
C449 C451 1.426 . S
C450 C449 1.382 . S
C450 C454 1.389 1_455 S
C451 C449 1.426 . S
C451 C452 1.375 . S
C451 C455 1.532 . S
C452 H442 0.930 . S
C452 C451 1.375 . S
C452 C453 1.416 . S
C453 C452 1.416 . S
C453 C454 1.371 1_455 S
C454 H443 0.930 . S
C454 C450 1.389 1_655 S
C454 C453 1.371 1_655 S
C455 H444 0.970 . S
C455 H445 0.970 . S
C455 C451 1.532 . S
C455 C456 1.499 . S
C456 C455 1.499 . S
C456 C457 1.370 . S
C456 C461 1.415 . S
C457 H446 0.930 . S
C457 C456 1.370 . S
C457 C458 1.407 . S
C458 C457 1.407 . S
C458 C459 1.365 1_455 S
C459 H447 0.930 . S
C459 C458 1.365 1_655 S
C459 C460 1.393 1_655 S
C460 C459 1.393 1_455 S
C460 C461 1.387 . S
C461 H448 0.930 . S
C461 C456 1.415 . S
C461 C460 1.387 . S
H462 C470 0.930 . S
H463 C473 0.930 . S
H464 C475 0.930 . S
H465 C476 0.970 . S
H466 C476 0.970 . S
H467 C478 0.930 . S
H468 C480 0.930 . S
H469 C482 0.930 . S
C470 H462 0.930 . S
C470 C471 1.382 . S
C470 C472 1.426 . S
C471 C470 1.382 . S
C471 C475 1.389 . S
C472 C470 1.426 . S
C472 C473 1.375 . S
C472 C476 1.532 . S
C473 H463 0.930 . S
C473 C472 1.375 . S
C473 C474 1.416 . S
C474 C473 1.416 . S
C474 C475 1.371 . S
C475 H464 0.930 . S
C475 C471 1.389 . S
C475 C474 1.371 . S
C476 H465 0.970 . S
C476 H466 0.970 . S
C476 C472 1.532 . S
C476 C477 1.499 . S
C477 C476 1.499 . S
C477 C478 1.370 . S
C477 C482 1.415 . S
C478 H467 0.930 . S
C478 C477 1.370 . S
C478 C479 1.407 . S
C479 C478 1.407 . S
C479 C480 1.365 . S
C480 H468 0.930 . S
C480 C479 1.365 . S
C480 C481 1.393 . S
C481 C480 1.393 . S
C481 C482 1.387 . S
C482 H469 0.930 . S
C482 C477 1.415 . S
C482 C481 1.387 . S
H483 C491 0.930 . S
H484 C494 0.930 . S
H485 C496 0.930 . S
H486 C497 0.970 . S
H487 C497 0.970 . S
H488 C499 0.930 . S
H489 C501 0.930 . S
H490 C503 0.930 . S
C491 H483 0.930 . S
C491 C492 1.382 . S
C491 C493 1.426 . S
C492 C491 1.382 . S
C492 C496 1.389 1_565 S
C493 C491 1.426 . S
C493 C494 1.375 . S
C493 C497 1.532 . S
C494 H484 0.930 . S
C494 C493 1.375 . S
C494 C495 1.416 . S
C495 C494 1.416 . S
C495 C496 1.371 1_565 S
C496 H485 0.930 . S
C496 C492 1.389 1_545 S
C496 C495 1.371 1_545 S
C497 H486 0.970 . S
C497 H487 0.970 . S
C497 C493 1.532 . S
C497 C498 1.499 . S
C498 C497 1.499 . S
C498 C499 1.370 . S
C498 C503 1.415 . S
C499 H488 0.930 . S
C499 C498 1.370 . S
C499 C500 1.439 . S
C500 C499 1.439 . S
C500 C501 1.353 1_565 S
C501 H489 0.930 . S
C501 C500 1.353 1_545 S
C501 C502 1.393 1_545 S
C502 C501 1.393 1_565 S
C502 C503 1.387 . S
C503 H490 0.930 . S
C503 C498 1.415 . S
C503 C502 1.387 . S
H504 C512 0.930 . S
H505 C515 0.930 . S
H506 C517 0.930 . S
H507 C518 0.970 . S
H508 C518 0.970 . S
H509 C520 0.930 . S
H510 C522 0.930 . S
H511 C524 0.930 . S
C512 H504 0.930 . S
C512 C513 1.382 . S
C512 C514 1.426 . S
C513 C512 1.382 . S
C513 C517 1.389 1_565 S
C514 C512 1.426 . S
C514 C515 1.375 . S
C514 C518 1.532 . S
C515 H505 0.930 . S
C515 C514 1.375 . S
C515 C516 1.416 . S
C516 C515 1.416 . S
C516 C517 1.371 1_565 S
C517 H506 0.930 . S
C517 C513 1.389 1_545 S
C517 C516 1.371 1_545 S
C518 H507 0.970 . S
C518 H508 0.970 . S
C518 C514 1.532 . S
C518 C519 1.499 . S
C519 C518 1.499 . S
C519 C520 1.370 . S
C519 C524 1.415 . S
C520 H509 0.930 . S
C520 C519 1.370 . S
C520 C521 1.407 . S
C521 C520 1.407 . S
C521 C522 1.365 1_565 S
C522 H510 0.930 . S
C522 C521 1.365 1_545 S
C522 C523 1.393 1_545 S
C523 C522 1.393 1_565 S
C523 C524 1.387 . S
C524 H511 0.930 . S
C524 C519 1.415 . S
C524 C523 1.387 . S
H525 C533 0.930 . S
H526 C536 0.930 . S
H527 C538 0.930 . S
H528 C539 0.970 . S
H529 C539 0.970 . S
H530 C541 0.930 . S
H531 C543 0.930 . S
H532 C545 0.930 . S
C533 H525 0.930 . S
C533 C534 1.382 . S
C533 C535 1.426 . S
C534 C533 1.382 . S
C534 C538 1.389 1_455 S
C535 C533 1.426 . S
C535 C536 1.375 . S
C535 C539 1.532 . S
C536 H526 0.930 . S
C536 C535 1.375 . S
C536 C537 1.416 . S
C537 C536 1.416 . S
C537 C538 1.371 1_455 S
C538 H527 0.930 . S
C538 C534 1.389 1_655 S
C538 C537 1.371 1_655 S
C539 H528 0.970 . S
C539 H529 0.970 . S
C539 C535 1.532 . S
C539 C540 1.499 . S
C540 C539 1.499 . S
C540 C541 1.370 . S
C540 C545 1.415 . S
C541 H530 0.930 . S
C541 C540 1.370 . S
C541 C542 1.407 . S
C542 C541 1.407 . S
C542 C543 1.365 1_455 S
C543 H531 0.930 . S
C543 C542 1.365 1_655 S
C543 C544 1.393 1_655 S
C544 C543 1.393 1_455 S
C544 C545 1.387 . S
C545 H532 0.930 . S
C545 C540 1.415 . S
C545 C544 1.387 . S
H546 C554 0.930 . S
H547 C557 0.930 . S
H548 C559 0.930 . S
H549 C560 0.970 . S
H550 C560 0.970 . S
H551 C562 0.930 . S
H552 C564 0.930 . S
H553 C566 0.930 . S
C554 H546 0.930 . S
C554 C555 1.382 . S
C554 C556 1.426 . S
C555 C554 1.382 . S
C555 C559 1.389 . S
C556 C554 1.426 . S
C556 C557 1.375 . S
C556 C560 1.532 . S
C557 H547 0.930 . S
C557 C556 1.375 . S
C557 C558 1.416 . S
C558 C557 1.416 . S
C558 C559 1.371 . S
C559 H548 0.930 . S
C559 C555 1.389 . S
C559 C558 1.371 . S
C560 H549 0.970 . S
C560 H550 0.970 . S
C560 C556 1.532 . S
C560 C561 1.499 . S
C561 C560 1.499 . S
C561 C562 1.370 . S
C561 C566 1.415 . S
C562 H551 0.930 . S
C562 C561 1.370 . S
C562 C563 1.407 . S
C563 C562 1.407 . S
C563 C564 1.365 . S
C564 H552 0.930 . S
C564 C563 1.365 . S
C564 C565 1.393 . S
C565 C564 1.393 . S
C565 C566 1.387 . S
C566 H553 0.930 . S
C566 C561 1.415 . S
C566 C565 1.387 . S
H567 C575 0.930 . S
H568 C578 0.930 . S
H569 C580 0.930 . S
H570 C581 0.970 . S
H571 C581 0.970 . S
H572 C583 0.930 . S
H573 C585 0.930 . S
H574 C587 0.930 . S
C575 H567 0.930 . S
C575 C576 1.382 . S
C575 C577 1.426 . S
C576 C575 1.382 . S
C576 C580 1.389 . S
C577 C575 1.426 . S
C577 C578 1.375 . S
C577 C581 1.532 . S
C578 H568 0.930 . S
C578 C577 1.375 . S
C578 C579 1.416 . S
C579 C578 1.416 . S
C579 C580 1.371 . S
C580 H569 0.930 . S
C580 C576 1.389 . S
C580 C579 1.371 . S
C581 H570 0.970 . S
C581 H571 0.970 . S
C581 C577 1.532 . S
C581 C582 1.499 . S
C582 C581 1.499 . S
C582 C583 1.370 . S
C582 C587 1.415 . S
C583 H572 0.930 . S
C583 C582 1.370 . S
C583 C584 1.407 . S
C584 C583 1.407 . S
C584 C585 1.365 . S
C585 H573 0.930 . S
C585 C584 1.365 . S
C585 C586 1.393 . S
C586 C585 1.393 . S
C586 C587 1.387 . S
C587 H574 0.930 . S
C587 C582 1.415 . S
C587 C586 1.387 . S
H588 C596 0.930 . S
H589 C599 0.930 . S
H590 C601 0.930 . S
H591 C602 0.970 . S
H592 C602 0.970 . S
H593 C604 0.930 . S
H594 C606 0.930 . S
H595 C608 0.930 . S
C596 H588 0.930 . S
C596 C597 1.382 . S
C596 C598 1.426 . S
C597 C596 1.382 . S
C597 C601 1.389 . S
C598 C596 1.426 . S
C598 C599 1.375 . S
C598 C602 1.532 . S
C599 H589 0.930 . S
C599 C598 1.375 . S
C599 C600 1.416 . S
C600 C599 1.416 . S
C600 C601 1.371 . S
C601 H590 0.930 . S
C601 C597 1.389 . S
C601 C600 1.371 . S
C602 H591 0.970 . S
C602 H592 0.970 . S
C602 C598 1.532 . S
C602 C603 1.499 . S
C603 C602 1.499 . S
C603 C604 1.370 . S
C603 C608 1.415 . S
C604 H593 0.930 . S
C604 C603 1.370 . S
C604 C605 1.407 . S
C605 C604 1.407 . S
C605 C606 1.365 . S
C606 H594 0.930 . S
C606 C605 1.365 . S
C606 C607 1.393 . S
C607 C606 1.393 . S
C607 C608 1.387 . S
C608 H595 0.930 . S
C608 C603 1.415 . S
C608 C607 1.387 . S
H609 C617 0.930 . S
H610 C620 0.930 . S
H611 C622 0.930 . S
H612 C623 0.970 . S
H613 C623 0.970 . S
H614 C625 0.930 . S
H615 C627 0.930 . S
H616 C629 0.930 . S
C617 H609 0.930 . S
C617 C618 1.382 . S
C617 C619 1.426 . S
C618 C617 1.382 . S
C618 C622 1.389 . S
C619 C617 1.426 . S
C619 C620 1.375 . S
C619 C623 1.532 . S
C620 H610 0.930 . S
C620 C619 1.375 . S
C620 C621 1.416 . S
C621 C620 1.416 . S
C621 C622 1.371 . S
C622 H611 0.930 . S
C622 C618 1.389 . S
C622 C621 1.371 . S
C623 H612 0.970 . S
C623 H613 0.970 . S
C623 C619 1.532 . S
C623 C624 1.499 . S
C624 C623 1.499 . S
C624 C625 1.370 . S
C624 C629 1.415 . S
C625 H614 0.930 . S
C625 C624 1.370 . S
C625 C626 1.407 . S
C626 C625 1.407 . S
C626 C627 1.365 . S
C627 H615 0.930 . S
C627 C626 1.365 . S
C627 C628 1.393 . S
C628 C627 1.393 . S
C628 C629 1.387 . S
C629 H616 0.930 . S
C629 C624 1.415 . S
C629 C628 1.387 . S
C630 C631 1.387 . S
C630 H634 0.950 . S
C630 C639 1.390 . S
C631 C630 1.387 . S
C631 C633 1.385 1_655 S
H632 C639 0.950 . S
C633 C631 1.385 1_455 S
C633 C635 1.373 1_455 S
C633 H637 0.959 . S
H634 C630 0.950 . S
C635 C633 1.373 1_655 S
C635 C636 1.402 . S
C635 H638 0.946 1_655 S
C636 C635 1.402 . S
C636 C639 1.387 . S
H637 C633 0.959 . S
H638 C635 0.946 1_455 S
C639 C630 1.390 . S
C639 H632 0.950 . S
C639 C636 1.387 . S
C640 C641 1.387 . S
C640 H644 0.950 . S
C640 C649 1.390 . S
C641 C640 1.387 . S
C641 C643 1.387 . S
H642 C649 0.950 . S
C643 C641 1.387 . S
C643 C645 1.390 . S
C643 H647 0.950 . S
H644 C640 0.950 . S
C645 C643 1.390 . S
C645 C646 1.387 . S
C645 H648 0.950 . S
C646 C645 1.387 . S
C646 C649 1.387 . S
H647 C643 0.950 . S
H648 C645 0.950 . S
C649 C640 1.390 . S
C649 H642 0.950 . S
C649 C646 1.387 . S
C650 C651 1.387 . S
C650 H654 0.950 . S
C650 C659 1.390 . S
C651 C650 1.387 . S
C651 C653 1.387 1_545 S
H652 C659 0.950 . S
C653 C651 1.387 1_565 S
C653 C655 1.390 . S
C653 H657 0.950 . S
H654 C650 0.950 . S
C655 C653 1.390 . S
C655 C656 1.387 1_565 S
C655 H658 0.950 . S
C656 C655 1.387 1_545 S
C656 C659 1.387 . S
H657 C653 0.950 . S
H658 C655 0.950 . S
C659 C650 1.390 . S
C659 H652 0.950 . S
C659 C656 1.387 . S
C660 C661 1.387 . S
C660 H664 0.950 . S
C660 C669 1.390 . S
C661 C660 1.387 . S
C661 C663 1.387 1_565 S
H662 C669 0.950 . S
C663 C661 1.387 1_545 S
C663 C665 1.390 . S
C663 H667 0.950 . S
H664 C660 0.950 . S
C665 C663 1.390 . S
C665 C666 1.387 1_545 S
C665 H668 0.950 . S
C666 C665 1.387 1_565 S
C666 C669 1.387 . S
H667 C663 0.950 . S
H668 C665 0.950 . S
C669 C660 1.390 . S
C669 H662 0.950 . S
C669 C666 1.387 . S
C670 C671 1.387 . S
C670 H674 0.950 . S
C670 C679 1.390 . S
C671 C670 1.387 . S
C671 C673 1.387 1_455 S
H672 C679 0.950 . S
C673 C671 1.387 1_655 S
C673 C675 1.390 . S
C673 H677 0.950 . S
H674 C670 0.950 . S
C675 C673 1.390 . S
C675 C676 1.387 1_655 S
C675 H678 0.950 . S
C676 C675 1.387 1_455 S
C676 C679 1.387 . S
H677 C673 0.950 . S
H678 C675 0.950 . S
C679 C670 1.390 . S
C679 H672 0.950 . S
C679 C676 1.387 . S
C680 C681 1.387 . S
C680 H684 0.950 . S
C680 C689 1.390 . S
C681 C680 1.387 . S
C681 C683 1.387 . S
H682 C689 0.950 . S
C683 C681 1.387 . S
C683 C685 1.390 . S
C683 H687 0.950 . S
H684 C680 0.950 . S
C685 C683 1.390 . S
C685 C686 1.387 . S
C685 H688 0.950 . S
C686 C685 1.387 . S
C686 C689 1.387 . S
H687 C683 0.950 . S
H688 C685 0.950 . S
C689 C680 1.390 . S
C689 H682 0.950 . S
C689 C686 1.387 . S
C690 C691 1.387 . S
C690 H694 0.950 . S
C690 C699 1.390 . S
C691 C690 1.387 . S
C691 C693 1.387 1_455 S
H692 C699 0.950 . S
C693 C691 1.387 1_655 S
C693 C695 1.390 . S
C693 H697 0.950 . S
H694 C690 0.950 . S
C695 C693 1.390 . S
C695 C696 1.387 1_655 S
C695 H698 0.950 . S
C696 C695 1.387 1_455 S
C696 C699 1.387 . S
H697 C693 0.950 . S
H698 C695 0.950 . S
C699 C690 1.390 . S
C699 H692 0.950 . S
C699 C696 1.387 . S
C700 C701 1.387 . S
C700 H704 0.950 . S
C700 C709 1.390 . S
C701 C700 1.387 . S
C701 C703 1.387 . S
H702 C709 0.950 . S
C703 C701 1.387 . S
C703 C705 1.390 . S
C703 H707 0.950 . S
H704 C700 0.950 . S
C705 C703 1.390 . S
C705 C706 1.387 . S
C705 H708 0.950 . S
C706 C705 1.387 . S
C706 C709 1.387 . S
H707 C703 0.950 . S
H708 C705 0.950 . S
C709 C700 1.390 . S
C709 H702 0.950 . S
C709 C706 1.387 . S
C710 C711 1.387 . S
C710 H714 0.950 . S
C710 C719 1.390 . S
C711 C710 1.387 . S
C711 C713 1.387 1_565 S
H712 C719 0.950 . S
C713 C711 1.387 1_545 S
C713 C715 1.390 . S
C713 H717 0.950 . S
H714 C710 0.950 . S
C715 C713 1.390 . S
C715 C716 1.371 1_545 S
C715 H718 0.950 . S
C716 C715 1.371 1_565 S
C716 C719 1.427 . S
H717 C713 0.950 . S
H718 C715 0.950 . S
C719 C710 1.390 . S
C719 H712 0.950 . S
C719 C716 1.427 . S
C720 C721 1.387 . S
C720 H724 0.950 . S
C720 C729 1.390 . S
C721 C720 1.387 . S
C721 C723 1.387 1_545 S
H722 C729 0.950 . S
C723 C721 1.387 1_565 S
C723 C725 1.390 . S
C723 H727 0.950 . S
H724 C720 0.950 . S
C725 C723 1.390 . S
C725 C726 1.387 1_565 S
C725 H728 0.950 . S
C726 C725 1.387 1_545 S
C726 C729 1.387 . S
H727 C723 0.950 . S
H728 C725 0.950 . S
C729 C720 1.390 . S
C729 H722 0.950 . S
C729 C726 1.387 . S
C730 C731 1.387 . S
C730 H734 0.950 . S
C730 C739 1.390 . S
C731 C730 1.387 . S
C731 C733 1.387 1_655 S
H732 C739 0.950 . S
C733 C731 1.387 1_455 S
C733 C735 1.390 . S
C733 H737 0.950 . S
H734 C730 0.950 . S
C735 C733 1.390 . S
C735 C736 1.387 1_455 S
C735 H738 0.950 . S
C736 C735 1.387 1_655 S
C736 C739 1.387 . S
H737 C733 0.950 . S
H738 C735 0.950 . S
C739 C730 1.390 . S
C739 H732 0.950 . S
C739 C736 1.387 . S
C740 C741 1.387 . S
C740 H744 0.950 . S
C740 C749 1.390 . S
C741 C740 1.387 . S
C741 C743 1.387 . S
H742 C749 0.950 . S
C743 C741 1.387 . S
C743 C745 1.390 . S
C743 H747 0.950 . S
H744 C740 0.950 . S
C745 C743 1.390 . S
C745 C746 1.387 . S
C745 H748 0.950 . S
C746 C745 1.387 . S
C746 C749 1.387 . S
H747 C743 0.950 . S
H748 C745 0.950 . S
C749 C740 1.390 . S
C749 H742 0.950 . S
C749 C746 1.387 . S
C750 C751 1.387 . S
C750 H754 0.950 . S
C750 C759 1.390 . S
C751 C750 1.387 . S
C751 C753 1.387 . S
H752 C759 0.950 . S
C753 C751 1.387 . S
C753 C755 1.390 . S
C753 H757 0.950 . S
H754 C750 0.950 . S
C755 C753 1.390 . S
C755 C756 1.387 . S
C755 H758 0.950 . S
C756 C755 1.387 . S
C756 C759 1.387 . S
H757 C753 0.950 . S
H758 C755 0.950 . S
C759 C750 1.390 . S
C759 H752 0.950 . S
C759 C756 1.387 . S
C760 C761 1.387 . S
C760 H764 0.950 . S
C760 C769 1.390 . S
C761 C760 1.387 . S
C761 C763 1.387 . S
H762 C769 0.950 . S
C763 C761 1.387 . S
C763 C765 1.390 . S
C763 H767 0.950 . S
H764 C760 0.950 . S
C765 C763 1.390 . S
C765 C766 1.387 . S
C765 H768 0.950 . S
C766 C765 1.387 . S
C766 C769 1.387 . S
H767 C763 0.950 . S
H768 C765 0.950 . S
C769 C760 1.390 . S
C769 H762 0.950 . S
C769 C766 1.387 . S
C770 C771 1.387 . S
C770 H774 0.950 . S
C770 C779 1.390 . S
C771 C770 1.387 . S
C771 C773 1.387 . S
H772 C779 0.950 . S
C773 C771 1.387 . S
C773 C775 1.390 . S
C773 H777 0.950 . S
H774 C770 0.950 . S
C775 C773 1.390 . S
C775 C776 1.387 . S
C775 H778 0.950 . S
C776 C775 1.387 . S
C776 C779 1.387 . S
H777 C773 0.950 . S
H778 C775 0.950 . S
C779 C770 1.390 . S
C779 H772 0.950 . S
C779 C776 1.387 . S
C780 C781 1.387 . S
C780 H784 0.950 . S
C780 C789 1.390 . S
C781 C780 1.387 . S
C781 C783 1.387 . S
H782 C789 0.950 . S
C783 C781 1.387 . S
C783 C785 1.390 . S
C783 H787 0.950 . S
H784 C780 0.950 . S
C785 C783 1.390 . S
C785 C786 1.387 . S
C785 H788 0.950 . S
C786 C785 1.387 . S
C786 C789 1.387 . S
H787 C783 0.950 . S
H788 C785 0.950 . S
C789 C780 1.390 . S
C789 H782 0.950 . S
C789 C786 1.387 . S
C790 C791 1.387 . S
C790 H794 0.950 . S
C790 C799 1.390 . S
C791 C790 1.387 . S
C791 C793 1.387 . S
H792 C799 0.950 . S
C793 C791 1.387 . S
C793 C795 1.390 . S
C793 H797 0.950 . S
H794 C790 0.950 . S
C795 C793 1.390 . S
C795 C796 1.387 . S
C795 H798 0.950 . S
C796 C795 1.387 . S
C796 C799 1.387 . S
H797 C793 0.950 . S
H798 C795 0.950 . S
C799 C790 1.390 . S
C799 H792 0.950 . S
C799 C796 1.387 . S
C800 C801 1.387 . S
C800 H804 0.950 . S
C800 C809 1.390 . S
C801 C800 1.387 . S
C801 C803 1.387 . S
H802 C809 0.950 . S
C803 C801 1.387 . S
C803 C805 1.390 . S
C803 H807 0.950 . S
H804 C800 0.950 . S
C805 C803 1.390 . S
C805 C806 1.387 . S
C805 H808 0.950 . S
C806 C805 1.387 . S
C806 C809 1.387 . S
H807 C803 0.950 . S
H808 C805 0.950 . S
C809 C800 1.390 . S
C809 H802 0.950 . S
C809 C806 1.387 . S
C810 C811 1.387 . S
C810 H814 0.950 . S
C810 C819 1.390 . S
C811 C810 1.387 . S
C811 C813 1.387 . S
H812 C819 0.950 . S
C813 C811 1.387 . S
C813 C815 1.390 . S
C813 H817 0.950 . S
H814 C810 0.950 . S
C815 C813 1.390 . S
C815 C816 1.387 . S
C815 H818 0.950 . S
C816 C815 1.387 . S
C816 C819 1.387 . S
H817 C813 0.950 . S
H818 C815 0.950 . S
C819 C810 1.390 . S
C819 H812 0.950 . S
C819 C816 1.387 . S
C820 C821 1.387 . S
C820 H824 0.950 . S
C820 C829 1.390 . S
C821 C820 1.387 . S
C821 C823 1.387 . S
H822 C829 0.950 . S
C823 C821 1.387 . S
C823 C825 1.390 . S
C823 H827 0.950 . S
H824 C820 0.950 . S
C825 C823 1.390 . S
C825 C826 1.387 . S
C825 H828 0.950 . S
C826 C825 1.387 . S
C826 C829 1.387 . S
H827 C823 0.950 . S
H828 C825 0.950 . S
C829 C820 1.390 . S
C829 H822 0.950 . S
C829 C826 1.387 . S
C830 C831 1.387 . S
C830 H834 0.950 . S
C830 C839 1.390 . S
C831 C830 1.387 . S
C831 C833 1.387 . S
H832 C839 0.950 . S
C833 C831 1.387 . S
C833 C835 1.390 . S
C833 H837 0.950 . S
H834 C830 0.950 . S
C835 C833 1.390 . S
C835 C836 1.387 . S
C835 H838 0.950 . S
C836 C835 1.387 . S
C836 C839 1.387 . S
H837 C833 0.950 . S
H838 C835 0.950 . S
C839 C830 1.390 . S
C839 H832 0.950 . S
C839 C836 1.387 . S
C840 C841 1.387 . S
C840 H844 0.950 . S
C840 C849 1.390 . S
C841 C840 1.387 . S
C841 C843 1.387 . S
H842 C849 0.950 . S
C843 C841 1.387 . S
C843 C845 1.390 . S
C843 H847 0.950 . S
H844 C840 0.950 . S
C845 C843 1.390 . S
C845 C846 1.387 . S
C845 H848 0.950 . S
C846 C845 1.387 . S
C846 C849 1.387 . S
H847 C843 0.950 . S
H848 C845 0.950 . S
C849 C840 1.390 . S
C849 H842 0.950 . S
C849 C846 1.387 . S
C850 C851 1.387 . S
C850 H854 0.950 . S
C850 C859 1.390 . S
C851 C850 1.387 . S
C851 C853 1.387 . S
H852 C859 0.950 . S
C853 C851 1.387 . S
C853 C855 1.390 . S
C853 H857 0.950 . S
H854 C850 0.950 . S
C855 C853 1.390 . S
C855 C856 1.387 . S
C855 H858 0.950 . S
C856 C855 1.387 . S
C856 C859 1.387 . S
H857 C853 0.950 . S
H858 C855 0.950 . S
C859 C850 1.390 . S
C859 H852 0.950 . S
C859 C856 1.387 . S
C860 C861 1.387 . S
C860 H864 0.950 . S
C860 C869 1.390 . S
C861 C860 1.387 . S
C861 C863 1.387 . S
H862 C869 0.950 . S
C863 C861 1.387 . S
C863 C865 1.390 . S
C863 H867 0.950 . S
H864 C860 0.950 . S
C865 C863 1.390 . S
C865 C866 1.387 . S
C865 H868 0.950 . S
C866 C865 1.387 . S
C866 C869 1.387 . S
H867 C863 0.950 . S
H868 C865 0.950 . S
C869 C860 1.390 . S
C869 H862 0.950 . S
C869 C866 1.387 . S
C870 C871 1.387 . S
C870 H874 0.950 . S
C870 C879 1.390 . S
C871 C870 1.387 . S
C871 C873 1.387 . S
H872 C879 0.950 . S
C873 C871 1.387 . S
C873 C875 1.390 . S
C873 H877 0.950 . S
H874 C870 0.950 . S
C875 C873 1.390 . S
C875 C876 1.387 . S
C875 H878 0.950 . S
C876 C875 1.387 . S
C876 C879 1.387 . S
H877 C873 0.950 . S
H878 C875 0.950 . S
C879 C870 1.390 . S
C879 H872 0.950 . S
C879 C876 1.387 . S
C880 C881 1.387 . S
C880 H884 0.950 . S
C880 C889 1.390 . S
C881 C880 1.387 . S
C881 C883 1.387 . S
H882 C889 0.950 . S
C883 C881 1.387 . S
C883 C885 1.390 . S
C883 H887 0.950 . S
H884 C880 0.950 . S
C885 C883 1.390 . S
C885 C886 1.387 . S
C885 H888 0.950 . S
C886 C885 1.387 . S
C886 C889 1.387 . S
H887 C883 0.950 . S
H888 C885 0.950 . S
C889 C880 1.390 . S
C889 H882 0.950 . S
C889 C886 1.387 . S
C890 C891 1.387 . S
C890 H894 0.950 . S
C890 C899 1.390 . S
C891 C890 1.387 . S
C891 C893 1.387 . S
H892 C899 0.950 . S
C893 C891 1.387 . S
C893 C895 1.390 . S
C893 H897 0.950 . S
H894 C890 0.950 . S
C895 C893 1.390 . S
C895 C896 1.387 . S
C895 H898 0.950 . S
C896 C895 1.387 . S
C896 C899 1.387 . S
H897 C893 0.950 . S
H898 C895 0.950 . S
C899 C890 1.390 . S
C899 H892 0.950 . S
C899 C896 1.387 . S
C900 C901 1.387 . S
C900 H904 0.950 . S
C900 C909 1.390 . S
C901 C900 1.387 . S
C901 C903 1.387 . S
H902 C909 0.950 . S
C903 C901 1.387 . S
C903 C905 1.390 . S
C903 H907 0.950 . S
H904 C900 0.950 . S
C905 C903 1.390 . S
C905 C906 1.387 . S
C905 H908 0.950 . S
C906 C905 1.387 . S
C906 C909 1.387 . S
H907 C903 0.950 . S
H908 C905 0.950 . S
C909 C900 1.390 . S
C909 H902 0.950 . S
C909 C906 1.387 . S
C910 C911 1.387 . S
C910 H914 0.950 . S
C910 C919 1.390 . S
C911 C910 1.387 . S
C911 C913 1.387 . S
H912 C919 0.950 . S
C913 C911 1.387 . S
C913 C915 1.390 . S
C913 H917 0.950 . S
H914 C910 0.950 . S
C915 C913 1.390 . S
C915 C916 1.387 . S
C915 H918 0.950 . S
C916 C915 1.387 . S
C916 C919 1.387 . S
H917 C913 0.950 . S
H918 C915 0.950 . S
C919 C910 1.390 . S
C919 H912 0.950 . S
C919 C916 1.387 . S
C920 C921 1.387 . S
C920 H924 0.950 . S
C920 C929 1.390 . S
C921 C920 1.387 . S
C921 C923 1.387 . S
H922 C929 0.950 . S
C923 C921 1.387 . S
C923 C925 1.390 . S
C923 H927 0.950 . S
H924 C920 0.950 . S
C925 C923 1.390 . S
C925 C926 1.387 . S
C925 H928 0.950 . S
C926 C925 1.387 . S
C926 C929 1.387 . S
H927 C923 0.950 . S
H928 C925 0.950 . S
C929 C920 1.390 . S
C929 H922 0.950 . S
C929 C926 1.387 . S
C930 C931 1.387 . S
C930 H934 0.950 . S
C930 C939 1.390 . S
C931 C930 1.387 . S
C931 C933 1.387 . S
H932 C939 0.950 . S
C933 C931 1.387 . S
C933 C935 1.390 . S
C933 H937 0.950 . S
H934 C930 0.950 . S
C935 C933 1.390 . S
C935 C936 1.387 . S
C935 H938 0.950 . S
C936 C935 1.387 . S
C936 C939 1.387 . S
H937 C933 0.950 . S
H938 C935 0.950 . S
C939 C930 1.390 . S
C939 H932 0.950 . S
C939 C936 1.387 . S
C940 C941 1.387 . S
C940 H944 0.950 . S
C940 C949 1.390 . S
C941 C940 1.387 . S
C941 C943 1.387 . S
H942 C949 0.950 . S
C943 C941 1.387 . S
C943 C945 1.390 . S
C943 H947 0.950 . S
H944 C940 0.950 . S
C945 C943 1.390 . S
C945 C946 1.387 . S
C945 H948 0.950 . S
C946 C945 1.387 . S
C946 C949 1.387 . S
H947 C943 0.950 . S
H948 C945 0.950 . S
C949 C940 1.390 . S
C949 H942 0.950 . S
C949 C946 1.387 . S
C950 C951 1.387 . S
C950 H954 0.950 . S
C950 C959 1.390 . S
C951 C950 1.387 . S
C951 C953 1.387 . S
H952 C959 0.950 . S
C953 C951 1.387 . S
C953 C955 1.390 . S
C953 H957 0.950 . S
H954 C950 0.950 . S
C955 C953 1.390 . S
C955 C956 1.387 . S
C955 H958 0.950 . S
C956 C955 1.387 . S
C956 C959 1.387 . S
H957 C953 0.950 . S
H958 C955 0.950 . S
C959 C950 1.390 . S
C959 H952 0.950 . S
C959 C956 1.387 . S
C960 C961 1.387 . S
C960 H964 0.950 . S
C960 C969 1.390 . S
C961 C960 1.387 . S
C961 C963 1.387 . S
H962 C969 0.950 . S
C963 C961 1.387 . S
C963 C965 1.390 . S
C963 H967 0.950 . S
H964 C960 0.950 . S
C965 C963 1.390 . S
C965 C966 1.387 . S
C965 H968 0.950 . S
C966 C965 1.387 . S
C966 C969 1.387 . S
H967 C963 0.950 . S
H968 C965 0.950 . S
C969 C960 1.390 . S
C969 H962 0.950 . S
C969 C966 1.387 . S
C970 C971 1.387 . S
C970 H974 0.950 . S
C970 C979 1.390 . S
C971 C970 1.387 . S
C971 C973 1.387 . S
H972 C979 0.950 . S
C973 C971 1.387 . S
C973 C975 1.390 . S
C973 H977 0.950 . S
H974 C970 0.950 . S
C975 C973 1.390 . S
C975 C976 1.387 . S
C975 H978 0.950 . S
C976 C975 1.387 . S
C976 C979 1.387 . S
H977 C973 0.950 . S
H978 C975 0.950 . S
C979 C970 1.390 . S
C979 H972 0.950 . S
C979 C976 1.387 . S
C980 C981 1.387 . S
C980 H984 0.950 . S
C980 C989 1.390 . S
C981 C980 1.387 . S
C981 C983 1.387 . S
H982 C989 0.950 . S
C983 C981 1.387 . S
C983 C985 1.390 . S
C983 H987 0.950 . S
H984 C980 0.950 . S
C985 C983 1.390 . S
C985 C986 1.387 . S
C985 H988 0.950 . S
C986 C985 1.387 . S
C986 C989 1.387 . S
H987 C983 0.950 . S
H988 C985 0.950 . S
C989 C980 1.390 . S
C989 H982 0.950 . S
C989 C986 1.387 . S
C990 C991 1.387 . S
C990 H994 0.950 . S
C990 C999 1.390 . S
C991 C990 1.387 . S
C991 C993 1.387 . S
H992 C999 0.950 . S
C993 C991 1.387 . S
C993 C995 1.390 . S
C993 H997 0.950 . S
H994 C990 0.950 . S
C995 C993 1.390 . S
C995 C996 1.387 . S
C995 H998 0.950 . S
C996 C995 1.387 . S
C996 C999 1.387 . S
H997 C993 0.950 . S
H998 C995 0.950 . S
C999 C990 1.390 . S
C999 H992 0.950 . S
C999 C996 1.387 . S
C1000 C1001 1.387 . S
C1000 H1004 0.950 . S
C1000 C1009 1.390 . S
C1001 C1000 1.387 . S
C1001 C1003 1.387 . S
H1002 C1009 0.950 . S
C1003 C1001 1.387 . S
C1003 C1005 1.390 . S
C1003 H1007 0.950 . S
H1004 C1000 0.950 . S
C1005 C1003 1.390 . S
C1005 C1006 1.387 . S
C1005 H1008 0.950 . S
C1006 C1005 1.387 . S
C1006 C1009 1.387 . S
H1007 C1003 0.950 . S
H1008 C1005 0.950 . S
C1009 C1000 1.390 . S
C1009 H1002 0.950 . S
C1009 C1006 1.387 . S
C1010 C1011 1.387 . S
C1010 H1014 0.950 . S
C1010 C1019 1.390 . S
C1011 C1010 1.387 . S
C1011 C1013 1.387 . S
H1012 C1019 0.950 . S
C1013 C1011 1.387 . S
C1013 C1015 1.390 . S
C1013 H1017 0.950 . S
H1014 C1010 0.950 . S
C1015 C1013 1.390 . S
C1015 C1016 1.387 . S
C1015 H1018 0.950 . S
C1016 C1015 1.387 . S
C1016 C1019 1.387 . S
H1017 C1013 0.950 . S
H1018 C1015 0.950 . S
C1019 C1010 1.390 . S
C1019 H1012 0.950 . S
C1019 C1016 1.387 . S
C1020 C1021 1.387 . S
C1020 H1024 0.950 . S
C1020 C1029 1.390 . S
C1021 C1020 1.387 . S
C1021 C1023 1.387 . S
H1022 C1029 0.950 . S
C1023 C1021 1.387 . S
C1023 C1025 1.390 . S
C1023 H1027 0.950 1_556 S
H1024 C1020 0.950 . S
C1025 C1023 1.390 . S
C1025 C1026 1.387 . S
C1025 H1028 0.950 . S
C1026 C1025 1.387 . S
C1026 C1029 1.387 . S
H1027 C1023 0.950 1_554 S
H1028 C1025 0.950 . S
C1029 C1020 1.390 . S
C1029 H1022 0.950 . S
C1029 C1026 1.387 . S
C1030 C1031 1.387 . S
C1030 H1034 0.950 1_556 S
C1030 C1039 1.390 . S
C1031 C1030 1.387 . S
C1031 C1033 1.387 . S
H1032 C1039 0.950 . S
C1033 C1031 1.387 . S
C1033 C1035 1.390 . S
C1033 H1037 0.950 . S
H1034 C1030 0.950 1_554 S
C1035 C1033 1.390 . S
C1035 C1036 1.387 . S
C1035 H1038 0.950 . S
C1036 C1035 1.387 . S
C1036 C1039 1.387 . S
H1037 C1033 0.950 . S
H1038 C1035 0.950 . S
C1039 C1030 1.390 . S
C1039 H1032 0.950 . S
C1039 C1036 1.387 . S
C1040 C1041 1.387 . S
C1040 H1044 0.950 . S
C1040 C1049 1.390 . S
C1041 C1040 1.387 . S
C1041 C1043 1.387 . S
H1042 C1049 0.950 . S
C1043 C1041 1.387 . S
C1043 C1045 1.390 . S
C1043 H1047 0.950 1_556 S
H1044 C1040 0.950 . S
C1045 C1043 1.390 . S
C1045 C1046 1.387 . S
C1045 H1048 0.950 . S
C1046 C1045 1.387 . S
C1046 C1049 1.387 . S
H1047 C1043 0.950 1_554 S
H1048 C1045 0.950 . S
C1049 C1040 1.390 . S
C1049 H1042 0.950 . S
C1049 C1046 1.387 . S
C1050 C1051 1.387 . S
C1050 H1054 0.950 . S
C1050 C1059 1.390 . S
C1051 C1050 1.387 . S
C1051 C1053 1.387 . S
H1052 C1059 0.950 . S
C1053 C1051 1.387 . S
C1053 C1055 1.390 . S
C1053 H1057 0.950 . S
H1054 C1050 0.950 . S
C1055 C1053 1.390 . S
C1055 C1056 1.387 . S
C1055 H1058 0.950 . S
C1056 C1055 1.387 . S
C1056 C1059 1.387 . S
H1057 C1053 0.950 . S
H1058 C1055 0.950 . S
C1059 C1050 1.390 . S
C1059 H1052 0.950 . S
C1059 C1056 1.387 . S
C1060 C1061 1.387 . S
C1060 H1064 0.950 . S
C1060 C1069 1.390 . S
C1061 C1060 1.387 . S
C1061 C1063 1.387 . S
H1062 C1069 0.950 . S
C1063 C1061 1.387 . S
C1063 C1065 1.390 . S
C1063 H1067 0.950 1_556 S
H1064 C1060 0.950 . S
C1065 C1063 1.390 . S
C1065 C1066 1.387 . S
C1065 H1068 0.950 . S
C1066 C1065 1.387 . S
C1066 C1069 1.387 . S
H1067 C1063 0.950 1_554 S
H1068 C1065 0.950 . S
C1069 C1060 1.390 . S
C1069 H1062 0.950 . S
C1069 C1066 1.387 . S
C1070 C1071 1.387 . S
C1070 H1074 0.950 . S
C1070 C1079 1.390 . S
C1071 C1070 1.387 . S
C1071 C1073 1.387 . S
H1072 C1079 0.950 . S
C1073 C1071 1.387 . S
C1073 C1075 1.390 . S
C1073 H1077 0.950 1_556 S
H1074 C1070 0.950 . S
C1075 C1073 1.390 . S
C1075 C1076 1.387 . S
C1075 H1078 0.950 . S
C1076 C1075 1.387 . S
C1076 C1079 1.387 . S
H1077 C1073 0.950 1_554 S
H1078 C1075 0.950 . S
C1079 C1070 1.390 . S
C1079 H1072 0.950 . S
C1079 C1076 1.387 . S
C1080 C1081 1.387 . S
C1080 H1084 0.950 . S
C1080 C1089 1.390 . S
C1081 C1080 1.387 . S
C1081 C1083 1.387 . S
H1082 C1089 0.950 . S
C1083 C1081 1.387 . S
C1083 C1085 1.390 . S
C1083 H1087 0.950 . S
H1084 C1080 0.950 . S
C1085 C1083 1.390 . S
C1085 C1086 1.387 . S
C1085 H1088 0.950 . S
C1086 C1085 1.387 . S
C1086 C1089 1.387 . S
H1087 C1083 0.950 . S
H1088 C1085 0.950 . S
C1089 C1080 1.390 . S
C1089 H1082 0.950 . S
C1089 C1086 1.387 . S
C1090 C1091 1.387 . S
C1090 H1094 0.950 . S
C1090 C1099 1.390 . S
C1091 C1090 1.387 . S
C1091 C1093 1.387 . S
H1092 C1099 0.950 . S
C1093 C1091 1.387 . S
C1093 C1095 1.390 . S
C1093 H1097 0.950 . S
H1094 C1090 0.950 . S
C1095 C1093 1.390 . S
C1095 C1096 1.387 . S
C1095 H1098 0.950 . S
C1096 C1095 1.387 . S
C1096 C1099 1.387 . S
H1097 C1093 0.950 . S
H1098 C1095 0.950 . S
C1099 C1090 1.390 . S
C1099 H1092 0.950 . S
C1099 C1096 1.387 . S
C1100 C1101 1.387 . S
C1100 H1104 0.950 . S
C1100 C1109 1.390 . S
C1101 C1100 1.387 . S
C1101 C1103 1.387 . S
H1102 C1109 0.950 . S
C1103 C1101 1.387 . S
C1103 C1105 1.390 . S
C1103 H1107 0.950 . S
H1104 C1100 0.950 . S
C1105 C1103 1.390 . S
C1105 C1106 1.387 . S
C1105 H1108 0.950 . S
C1106 C1105 1.387 . S
C1106 C1109 1.387 . S
H1107 C1103 0.950 . S
H1108 C1105 0.950 . S
C1109 C1100 1.390 . S
C1109 H1102 0.950 . S
C1109 C1106 1.387 . S
C1110 C1111 1.387 . S
C1110 H1114 0.950 . S
C1110 C1119 1.390 . S
C1111 C1110 1.387 . S
C1111 C1113 1.387 . S
H1112 C1119 0.950 . S
C1113 C1111 1.387 . S
C1113 C1115 1.390 . S
C1113 H1117 0.950 . S
H1114 C1110 0.950 . S
C1115 C1113 1.390 . S
C1115 C1116 1.387 . S
C1115 H1118 0.950 . S
C1116 C1115 1.387 . S
C1116 C1119 1.387 . S
H1117 C1113 0.950 . S
H1118 C1115 0.950 . S
C1119 C1110 1.390 . S
C1119 H1112 0.950 . S
C1119 C1116 1.387 . S
C1120 C1121 1.387 . S
C1120 H1124 0.950 . S
C1120 C1129 1.390 . S
C1121 C1120 1.387 . S
C1121 C1123 1.387 . S
H1122 C1129 0.950 . S
C1123 C1121 1.387 . S
C1123 C1125 1.390 . S
C1123 H1127 0.950 . S
H1124 C1120 0.950 . S
C1125 C1123 1.390 . S
C1125 C1126 1.387 . S
C1125 H1128 0.950 . S
C1126 C1125 1.387 . S
C1126 C1129 1.387 . S
H1127 C1123 0.950 . S
H1128 C1125 0.950 . S
C1129 C1120 1.390 . S
C1129 H1122 0.950 . S
C1129 C1126 1.387 . S
C1130 C1131 1.387 . S
C1130 H1134 0.950 . S
C1130 C1139 1.390 . S
C1131 C1130 1.387 . S
C1131 C1133 1.387 . S
H1132 C1139 0.950 . S
C1133 C1131 1.387 . S
C1133 C1135 1.390 . S
C1133 H1137 0.950 . S
H1134 C1130 0.950 . S
C1135 C1133 1.390 . S
C1135 C1136 1.387 . S
C1135 H1138 0.950 . S
C1136 C1135 1.387 . S
C1136 C1139 1.387 . S
H1137 C1133 0.950 . S
H1138 C1135 0.950 . S
C1139 C1130 1.390 . S
C1139 H1132 0.950 . S
C1139 C1136 1.387 . S
C1140 C1141 1.387 . S
C1140 H1144 0.950 . S
C1140 C1149 1.390 . S
C1141 C1140 1.387 . S
C1141 C1143 1.387 . S
H1142 C1149 0.950 . S
C1143 C1141 1.387 . S
C1143 C1145 1.390 . S
C1143 H1147 0.950 . S
H1144 C1140 0.950 . S
C1145 C1143 1.390 . S
C1145 C1146 1.387 . S
C1145 H1148 0.950 . S
C1146 C1145 1.387 . S
C1146 C1149 1.387 . S
H1147 C1143 0.950 . S
H1148 C1145 0.950 . S
C1149 C1140 1.390 . S
C1149 H1142 0.950 . S
C1149 C1146 1.387 . S
C1150 C1151 1.387 . S
C1150 H1154 0.950 . S
C1150 C1159 1.390 . S
C1151 C1150 1.387 . S
C1151 C1153 1.387 . S
H1152 C1159 0.950 . S
C1153 C1151 1.387 . S
C1153 C1155 1.390 . S
C1153 H1157 0.950 . S
H1154 C1150 0.950 . S
C1155 C1153 1.390 . S
C1155 C1156 1.387 . S
C1155 H1158 0.950 . S
C1156 C1155 1.387 . S
C1156 C1159 1.387 . S
H1157 C1153 0.950 . S
H1158 C1155 0.950 . S
C1159 C1150 1.390 . S
C1159 H1152 0.950 . S
C1159 C1156 1.387 . S
C1160 C1161 1.387 . S
C1160 H1164 0.950 . S
C1160 C1169 1.390 . S
C1161 C1160 1.387 . S
C1161 C1163 1.387 1_565 S
H1162 C1169 0.950 . S
C1163 C1161 1.387 1_545 S
C1163 C1165 1.390 . S
C1163 H1167 0.950 . S
H1164 C1160 0.950 . S
C1165 C1163 1.390 . S
C1165 C1166 1.387 1_545 S
C1165 H1168 0.950 . S
C1166 C1165 1.387 1_565 S
C1166 C1169 1.387 . S
H1167 C1163 0.950 . S
H1168 C1165 0.950 . S
C1169 C1160 1.390 . S
C1169 H1162 0.950 . S
C1169 C1166 1.387 . S
C1170 C1171 1.387 . S
C1170 H1174 0.950 . S
C1170 C1179 1.390 . S
C1171 C1170 1.387 . S
C1171 C1173 1.387 1_565 S
H1172 C1179 0.950 . S
C1173 C1171 1.387 1_545 S
C1173 C1175 1.390 . S
C1173 H1177 0.950 . S
H1174 C1170 0.950 . S
C1175 C1173 1.390 . S
C1175 C1176 1.387 1_545 S
C1175 H1178 0.950 . S
C1176 C1175 1.387 1_565 S
C1176 C1179 1.387 . S
H1177 C1173 0.950 . S
H1178 C1175 0.950 . S
C1179 C1170 1.390 . S
C1179 H1172 0.950 . S
C1179 C1176 1.387 . S
C1180 C1181 1.377 . S
C1180 H1184 0.942 1_455 S
C1180 C1189 1.431 1_455 S
C1181 C1180 1.377 . S
C1181 C1183 1.387 . S
H1182 C1189 0.937 . S
C1183 C1181 1.387 . S
C1183 C1185 1.390 . S
C1183 H1187 0.950 . S
H1184 C1180 0.942 1_655 S
C1185 C1183 1.390 . S
C1185 C1186 1.387 . S
C1185 H1188 0.950 . S
C1186 C1185 1.387 . S
C1186 C1189 1.381 1_455 S
H1187 C1183 0.950 . S
H1188 C1185 0.950 . S
C1189 C1180 1.431 1_655 S
C1189 H1182 0.937 . S
C1189 C1186 1.381 1_655 S
C1190 C1191 1.387 . S
C1190 H1194 0.950 . S
C1190 C1199 1.390 . S
C1191 C1190 1.387 . S
C1191 C1193 1.387 . S
H1192 C1199 0.950 . S
C1193 C1191 1.387 . S
C1193 C1195 1.390 . S
C1193 H1197 0.950 . S
H1194 C1190 0.950 . S
C1195 C1193 1.390 . S
C1195 C1196 1.387 . S
C1195 H1198 0.950 . S
C1196 C1195 1.387 . S
C1196 C1199 1.387 . S
H1197 C1193 0.950 . S
H1198 C1195 0.950 . S
C1199 C1190 1.390 . S
C1199 H1192 0.950 . S
C1199 C1196 1.387 . S
C1200 C1201 1.387 . S
C1200 H1204 0.950 . S
C1200 C1209 1.390 . S
C1201 C1200 1.387 . S
C1201 C1203 1.387 . S
H1202 C1209 0.950 . S
C1203 C1201 1.387 . S
C1203 C1205 1.390 . S
C1203 H1207 0.950 . S
H1204 C1200 0.950 . S
C1205 C1203 1.390 . S
C1205 C1206 1.387 . S
C1205 H1208 0.950 . S
C1206 C1205 1.387 . S
C1206 C1209 1.387 . S
H1207 C1203 0.950 . S
H1208 C1205 0.950 . S
C1209 C1200 1.390 . S
C1209 H1202 0.950 . S
C1209 C1206 1.387 . S
C1210 C1211 1.387 . S
C1210 H1214 0.950 . S
C1210 C1219 1.390 . S
C1211 C1210 1.387 . S
C1211 C1213 1.387 . S
H1212 C1219 0.950 . S
C1213 C1211 1.387 . S
C1213 C1215 1.390 . S
C1213 H1217 0.950 . S
H1214 C1210 0.950 . S
C1215 C1213 1.390 . S
C1215 C1216 1.387 . S
C1215 H1218 0.950 . S
C1216 C1215 1.387 . S
C1216 C1219 1.387 . S
H1217 C1213 0.950 . S
H1218 C1215 0.950 . S
C1219 C1210 1.390 . S
C1219 H1212 0.950 . S
C1219 C1216 1.387 . S
C1220 C1221 1.387 . S
C1220 H1224 0.950 . S
C1220 C1229 1.390 . S
C1221 C1220 1.387 . S
C1221 C1223 1.387 . S
H1222 C1229 0.950 . S
C1223 C1221 1.387 . S
C1223 C1225 1.390 . S
C1223 H1227 0.950 . S
H1224 C1220 0.950 . S
C1225 C1223 1.390 . S
C1225 C1226 1.387 . S
C1225 H1228 0.950 . S
C1226 C1225 1.387 . S
C1226 C1229 1.387 . S
H1227 C1223 0.950 . S
H1228 C1225 0.950 . S
C1229 C1220 1.390 . S
C1229 H1222 0.950 . S
C1229 C1226 1.387 . S
C1230 C1231 1.387 1_565 S
C1230 H1234 0.950 . S
C1230 C1239 1.390 . S
C1231 C1230 1.387 1_545 S
C1231 C1233 1.387 . S
H1232 C1239 0.950 . S
C1233 C1231 1.387 . S
C1233 C1235 1.390 . S
C1233 H1237 0.950 . S
H1234 C1230 0.950 . S
C1235 C1233 1.390 . S
C1235 C1236 1.387 . S
C1235 H1238 0.950 . S
C1236 C1235 1.387 . S
C1236 C1239 1.387 1_545 S
H1237 C1233 0.950 . S
H1238 C1235 0.950 . S
C1239 C1230 1.390 . S
C1239 H1232 0.950 . S
C1239 C1236 1.387 1_565 S
C1240 C1241 1.387 . S
C1240 H1244 0.950 . S
C1240 C1249 1.390 . S
C1241 C1240 1.387 . S
C1241 C1243 1.386 1_655 S
H1242 C1249 0.950 . S
C1243 C1241 1.386 1_455 S
C1243 C1245 1.388 . S
C1243 H1247 0.960 . S
H1244 C1240 0.950 . S
C1245 C1243 1.388 . S
C1245 C1246 1.379 1_455 S
C1245 H1248 0.951 . S
C1246 C1245 1.379 1_655 S
C1246 C1249 1.387 . S
H1247 C1243 0.960 . S
H1248 C1245 0.951 . S
C1249 C1240 1.390 . S
C1249 H1242 0.950 . S
C1249 C1246 1.387 . S
C1250 C1251 1.387 . S
C1250 H1254 0.950 . S
C1250 C1259 1.390 . S
C1251 C1250 1.387 . S
C1251 C1253 1.387 . S
H1252 C1259 0.950 . S
C1253 C1251 1.387 . S
C1253 C1255 1.390 . S
C1253 H1257 0.950 . S
H1254 C1250 0.950 . S
C1255 C1253 1.390 . S
C1255 C1256 1.387 . S
C1255 H1258 0.950 . S
C1256 C1255 1.387 . S
C1256 C1259 1.387 . S
H1257 C1253 0.950 . S
H1258 C1255 0.950 . S
C1259 C1250 1.390 . S
C1259 H1252 0.950 . S
C1259 C1256 1.387 . S
C1260 C1261 1.387 . S
C1260 H1264 0.950 . S
C1260 C1269 1.390 . S
C1261 C1260 1.387 . S
C1261 C1263 1.387 . S
H1262 C1269 0.950 . S
C1263 C1261 1.387 . S
C1263 C1265 1.390 . S
C1263 H1267 0.950 . S
H1264 C1260 0.950 . S
C1265 C1263 1.390 . S
C1265 C1266 1.387 . S
C1265 H1268 0.950 . S
C1266 C1265 1.387 . S
C1266 C1269 1.387 . S
H1267 C1263 0.950 . S
H1268 C1265 0.950 . S
C1269 C1260 1.390 . S
C1269 H1262 0.950 . S
C1269 C1266 1.387 . S
C1270 C1271 1.387 . S
C1270 H1274 0.950 . S
C1270 C1279 1.390 . S
C1271 C1270 1.387 . S
C1271 C1273 1.387 . S
H1272 C1279 0.950 . S
C1273 C1271 1.387 . S
C1273 C1275 1.390 . S
C1273 H1277 0.950 . S
H1274 C1270 0.950 . S
C1275 C1273 1.390 . S
C1275 C1276 1.387 . S
C1275 H1278 0.950 . S
C1276 C1275 1.387 . S
C1276 C1279 1.387 . S
H1277 C1273 0.950 . S
H1278 C1275 0.950 . S
C1279 C1270 1.390 . S
C1279 H1272 0.950 . S
C1279 C1276 1.387 . S
C1280 C1281 1.387 . S
C1280 H1284 0.950 . S
C1280 C1289 1.390 . S
C1281 C1280 1.387 . S
C1281 C1283 1.387 . S
H1282 C1289 0.950 . S
C1283 C1281 1.387 . S
C1283 C1285 1.390 . S
C1283 H1287 0.950 . S
H1284 C1280 0.950 . S
C1285 C1283 1.390 . S
C1285 C1286 1.387 . S
C1285 H1288 0.950 . S
C1286 C1285 1.387 . S
C1286 C1289 1.387 . S
H1287 C1283 0.950 . S
H1288 C1285 0.950 . S
C1289 C1280 1.390 . S
C1289 H1282 0.950 . S
C1289 C1286 1.387 . S
C1290 C1291 1.387 . S
C1290 H1294 0.950 . S
C1290 C1299 1.390 . S
C1291 C1290 1.387 . S
C1291 C1293 1.387 . S
H1292 C1299 0.950 . S
C1293 C1291 1.387 . S
C1293 C1295 1.390 . S
C1293 H1297 0.950 . S
H1294 C1290 0.950 . S
C1295 C1293 1.390 . S
C1295 C1296 1.387 . S
C1295 H1298 0.950 . S
C1296 C1295 1.387 . S
C1296 C1299 1.387 . S
H1297 C1293 0.950 . S
H1298 C1295 0.950 . S
C1299 C1290 1.390 . S
C1299 H1292 0.950 . S
C1299 C1296 1.387 . S
C1300 C1301 1.387 . S
C1300 H1304 0.950 . S
C1300 C1309 1.390 . S
C1301 C1300 1.387 . S
C1301 C1303 1.387 . S
H1302 C1309 0.950 . S
C1303 C1301 1.387 . S
C1303 C1305 1.390 . S
C1303 H1307 0.950 . S
H1304 C1300 0.950 . S
C1305 C1303 1.390 . S
C1305 C1306 1.387 . S
C1305 H1308 0.950 . S
C1306 C1305 1.387 . S
C1306 C1309 1.387 . S
H1307 C1303 0.950 . S
H1308 C1305 0.950 . S
C1309 C1300 1.390 . S
C1309 H1302 0.950 . S
C1309 C1306 1.387 . S
C1310 C1311 1.387 . S
C1310 H1314 0.950 . S
C1310 C1319 1.390 . S
C1311 C1310 1.387 . S
C1311 C1313 1.387 . S
H1312 C1319 0.950 . S
C1313 C1311 1.387 . S
C1313 C1315 1.390 . S
C1313 H1317 0.950 . S
H1314 C1310 0.950 . S
C1315 C1313 1.390 . S
C1315 C1316 1.387 . S
C1315 H1318 0.950 . S
C1316 C1315 1.387 . S
C1316 C1319 1.387 . S
H1317 C1313 0.950 . S
H1318 C1315 0.950 . S
C1319 C1310 1.390 . S
C1319 H1312 0.950 . S
C1319 C1316 1.387 . S
C1320 C1321 1.387 . S
C1320 H1324 0.950 . S
C1320 C1329 1.390 . S
C1321 C1320 1.387 . S
C1321 C1323 1.387 1_655 S
H1322 C1329 0.950 . S
C1323 C1321 1.387 1_455 S
C1323 C1325 1.390 . S
C1323 H1327 0.950 . S
H1324 C1320 0.950 . S
C1325 C1323 1.390 . S
C1325 C1326 1.387 1_455 S
C1325 H1328 0.950 . S
C1326 C1325 1.387 1_655 S
C1326 C1329 1.387 . S
H1327 C1323 0.950 . S
H1328 C1325 0.950 . S
C1329 C1320 1.390 . S
C1329 H1322 0.950 . S
C1329 C1326 1.387 . S
C1330 C1331 1.387 . S
C1330 H1334 0.950 . S
C1330 C1339 1.390 . S
C1331 C1330 1.387 . S
C1331 C1333 1.387 . S
H1332 C1339 0.950 . S
C1333 C1331 1.387 . S
C1333 C1335 1.390 . S
C1333 H1337 0.950 . S
H1334 C1330 0.950 . S
C1335 C1333 1.390 . S
C1335 C1336 1.387 . S
C1335 H1338 0.950 . S
C1336 C1335 1.387 . S
C1336 C1339 1.387 . S
H1337 C1333 0.950 . S
H1338 C1335 0.950 . S
C1339 C1330 1.390 . S
C1339 H1332 0.950 . S
C1339 C1336 1.387 . S
C1340 C1341 1.387 . S
C1340 H1344 0.950 . S
C1340 C1349 1.390 . S
C1341 C1340 1.387 . S
C1341 C1343 1.387 1_545 S
H1342 C1349 0.950 . S
C1343 C1341 1.387 1_565 S
C1343 C1345 1.390 . S
C1343 H1347 0.950 . S
H1344 C1340 0.950 . S
C1345 C1343 1.390 . S
C1345 C1346 1.387 1_565 S
C1345 H1348 0.950 . S
C1346 C1345 1.387 1_545 S
C1346 C1349 1.387 . S
H1347 C1343 0.950 . S
H1348 C1345 0.950 . S
C1349 C1340 1.390 . S
C1349 H1342 0.950 . S
C1349 C1346 1.387 . S
C631 C7 1.521 . S
C636 C458 1.495 1_655 S
C641 C23 1.581 . S
C646 C471 1.559 . S
C656 C500 1.462 1_545 S
C651 C37 1.521 . S
C661 C35 1.509 . S
C666 C513 1.506 . S
C671 C9 1.545 1_455 S
C676 C534 1.526 . S
C681 C21 1.543 . S
C686 C563 1.504 . S
C691 C49 1.521 . S
C696 C542 1.498 . S
C706 C555 1.500 . S
C701 C65 1.557 . S
C716 C521 1.485 . S
C711 C79 1.527 1_565 S
C721 C77 1.507 . S
C726 C492 1.490 1_545 S
C736 C450 1.506 1_655 S
C731 C51 1.536 1_655 S
C741 C63 1.527 . S
C746 C479 1.533 . S
C751 C91 1.576 . S
C756 C584 1.535 . S
C761 C107 1.613 . S
C766 C597 1.590 . S
C776 C626 1.510 . S
C771 C121 1.618 . S
C781 C119 1.560 . S
C786 C261 1.586 . S
C791 C93 1.625 . S
C796 C282 1.601 . S
C801 C105 1.564 . S
C806 C311 1.520 . S
C811 C133 1.534 . S
C816 C290 1.540 . S
C821 C149 1.574 . S
C826 C303 1.514 . S
C836 C269 1.553 . S
C831 C163 1.584 . S
C846 C618 1.532 . S
C841 C161 1.567 . S
C856 C576 1.518 . S
C851 C135 1.597 . S
C866 C605 1.572 . S
C861 C147 1.558 . S
C871 C175 1.549 . S
C876 C332 1.506 . S
C881 C191 1.597 . S
C886 C345 1.577 . S
C891 C205 1.610 . S
C896 C374 1.507 . S
C901 C203 1.584 . S
C906 C387 1.613 . S
C916 C408 1.604 . S
C911 C177 1.629 . S
C926 C437 1.534 . S
C921 C189 1.572 . S
C936 C416 1.574 . S
C931 C217 1.561 . S
C946 C429 1.525 . S
C941 C233 1.589 . S
C951 C247 1.589 . S
C956 C395 1.557 . S
C966 C366 1.503 . S
C961 C245 1.539 . S
C971 C219 1.594 . S
C976 C324 1.521 . S
C986 C353 1.559 . S
C981 C231 1.550 . S
C996 C264 1.427 . S
C991 C8 1.524 . S
C1001 C17 1.488 . S
C1006 C285 1.375 . S
C1016 C313 1.412 . S
C1011 C31 1.528 . S
C1026 C334 1.411 . S
C1021 C36 1.527 . S
C1036 C348 1.407 . S
C1031 C3 1.519 . S
C1046 C376 1.365 . S
C1041 C22 1.491 . S
C1051 C50 1.551 . S
C1056 C369 1.374 . S
C1061 C59 1.504 . S
C1066 C327 1.324 . S
C1071 C73 1.535 . S
C1076 C355 1.460 . S
C1081 C78 1.555 . S
C1086 C292 1.477 . S
C1096 C306 1.361 . S
C1091 C45 1.534 . S
C1101 C64 1.515 . S
C1106 C271 1.431 . S
C1116 C390 1.420 . S
C1111 C92 1.530 . S
C1121 C101 1.547 . S
C1126 C411 1.422 . S
C1131 C115 1.560 . S
C1136 C439 1.434 . S
C1146 C460 1.391 . S
C1141 C120 1.481 . S
C1151 C87 1.520 . S
C1156 C474 1.397 . S
C1161 C106 1.470 . S
C1166 C502 1.381 . S
C1171 C134 1.493 . S
C1176 C495 1.365 . S
C1181 C143 1.486 . S
C1186 C453 1.348 . S
C1196 C481 1.450 . S
C1191 C157 1.543 . S
C1201 C162 1.540 . S
C1206 C418 1.451 . S
C1211 C129 1.574 . S
C1216 C432 1.389 . S
C1226 C397 1.468 . S
C1221 C148 1.560 . S
C1236 C516 1.365 1_545 S
C1231 C176 1.491 . S
C1241 C185 1.484 . S
C1246 C537 1.346 1_655 S
C1251 C199 1.527 . S
C1256 C565 1.409 . S
C1266 C586 1.390 . S
C1261 C204 1.515 . S
C1276 C600 1.429 . S
C1271 C171 1.558 . S
C1281 C190 1.540 . S
C1286 C628 1.413 . S
C1291 C218 1.552 . S
C1296 C621 1.372 . S
C1301 C227 1.562 . S
C1306 C579 1.384 . S
C1316 C607 1.475 . S
C1311 C241 1.570 . S
C1326 C544 1.394 1_655 S
C1321 C246 1.482 . S
C1336 C558 1.364 . S
C1331 C213 1.536 . S
C1341 C232 1.475 . S
C1346 C523 1.385 1_545 S
