# Generated by pormake.
# Topology zzz, (3,6)-cn, num edge types: 1
# Building blocks:
#     Node 0, Type 0, BuildingBlock: KAKCAD_clean_linker_0, # of connection points: 3
#     Node 1, Type 0, BuildingBlock: KAKCAD_clean_linker_0, # of connection points: 3
#     Node 2, Type 0, BuildingBlock: KAKCAD_clean_linker_0, # of connection points: 3
#     Node 3, Type 0, BuildingBlock: KAKCAD_clean_linker_0, # of connection points: 3
#     Node 4, Type 0, BuildingBlock: KAKCAD_clean_linker_0, # of connection points: 3
#     Node 5, Type 0, BuildingBlock: KAKCAD_clean_linker_0, # of connection points: 3
#     Node 6, Type 0, BuildingBlock: KAKCAD_clean_linker_0, # of connection points: 3
#     Node 7, Type 0, BuildingBlock: KAKCAD_clean_linker_0, # of connection points: 3
#     Node 8, Type 1, BuildingBlock: KUMBUR_clean_sbu_0, # of connection points: 6
#     Node 9, Type 1, BuildingBlock: KUMBUR_clean_sbu_0, # of connection points: 6
#     Node 10, Type 1, BuildingBlock: KUMBUR_clean_sbu_0, # of connection points: 6
#     Node 11, Type 1, BuildingBlock: KUMBUR_clean_sbu_0, # of connection points: 6
#     Edge 12, Type (0, 1), BuildingBlock: CIFDUS_clean_linker_0, # of connection points: 2
#     Edge 13, Type (0, 1), BuildingBlock: CIFDUS_clean_linker_0, # of connection points: 2
#     Edge 14, Type (0, 1), BuildingBlock: CIFDUS_clean_linker_0, # of connection points: 2
#     Edge 15, Type (0, 1), BuildingBlock: CIFDUS_clean_linker_0, # of connection points: 2
#     Edge 16, Type (0, 1), BuildingBlock: CIFDUS_clean_linker_0, # of connection points: 2
#     Edge 17, Type (0, 1), BuildingBlock: CIFDUS_clean_linker_0, # of connection points: 2
#     Edge 18, Type (0, 1), BuildingBlock: CIFDUS_clean_linker_0, # of connection points: 2
#     Edge 19, Type (0, 1), BuildingBlock: CIFDUS_clean_linker_0, # of connection points: 2
#     Edge 20, Type (0, 1), BuildingBlock: CIFDUS_clean_linker_0, # of connection points: 2
#     Edge 21, Type (0, 1), BuildingBlock: CIFDUS_clean_linker_0, # of connection points: 2
#     Edge 22, Type (0, 1), BuildingBlock: CIFDUS_clean_linker_0, # of connection points: 2
#     Edge 23, Type (0, 1), BuildingBlock: CIFDUS_clean_linker_0, # of connection points: 2
#     Edge 24, Type (0, 1), BuildingBlock: CIFDUS_clean_linker_0, # of connection points: 2
#     Edge 25, Type (0, 1), BuildingBlock: CIFDUS_clean_linker_0, # of connection points: 2
#     Edge 26, Type (0, 1), BuildingBlock: CIFDUS_clean_linker_0, # of connection points: 2
#     Edge 27, Type (0, 1), BuildingBlock: CIFDUS_clean_linker_0, # of connection points: 2
#     Edge 28, Type (0, 1), BuildingBlock: CIFDUS_clean_linker_0, # of connection points: 2
#     Edge 29, Type (0, 1), BuildingBlock: CIFDUS_clean_linker_0, # of connection points: 2
#     Edge 30, Type (0, 1), BuildingBlock: CIFDUS_clean_linker_0, # of connection points: 2
#     Edge 31, Type (0, 1), BuildingBlock: CIFDUS_clean_linker_0, # of connection points: 2
#     Edge 32, Type (0, 1), BuildingBlock: CIFDUS_clean_linker_0, # of connection points: 2
#     Edge 33, Type (0, 1), BuildingBlock: CIFDUS_clean_linker_0, # of connection points: 2
#     Edge 34, Type (0, 1), BuildingBlock: CIFDUS_clean_linker_0, # of connection points: 2
#     Edge 35, Type (0, 1), BuildingBlock: CIFDUS_clean_linker_0, # of connection points: 2
# Relax obj value: 0.310
# Max RMSD: 0.223
# Mean RMSD: 0.212
data_MOF--net-zzz--node1-KUMBUR_clean_sbu_0--node2-KAKCAD_clean_linker_0--edge1-CIFDUS_clean_linker_0
_symmetry_space_group_name_H-M    P1
_symmetry_Int_Tables_number       1
_symmetry_cell_setting            triclinic
loop_
_symmetry_equiv_pos_as_xyz
'x, y, z'
_cell_length_a     51.174146
_cell_length_b     51.230106
_cell_length_c     17.87501
_cell_angle_alpha  90.652221
_cell_angle_beta   90.166947
_cell_angle_gamma 89.936045
loop_
_atom_site_label
_atom_site_type_symbol
_atom_site_fract_x
_atom_site_fract_y
_atom_site_fract_z
_atom_type_partial_charge
C0 C 0.79026 0.61265 1.00965 0.0
C1 C 0.81512 0.60197 0.02236 0.0
C2 C 0.77153 0.61263 0.06672 0.0
C3 C 0.77729 0.60118 0.13619 0.0
C4 C 0.80267 0.59152 0.14868 0.0
C5 C 0.8213 0.59222 0.09312 0.0
C6 C 0.75665 0.59504 0.19161 0.0
C7 C 0.73201 0.58651 0.16791 0.0
C8 C 0.71518 0.57277 0.2156 0.0
C9 C 0.72578 0.56447 0.28635 0.0
C10 C 0.75079 0.57406 0.31155 0.0
C11 C 0.76382 0.5918 0.26622 0.0
C12 C 0.76739 0.56383 0.37551 0.0
C13 C 0.77995 0.58176 0.42466 0.0
C14 C 0.77823 0.53859 0.37067 0.0
C15 C 0.80144 0.53204 0.40964 0.0
C16 C 0.81499 0.55049 0.45496 0.0
C17 C 0.68814 0.56641 0.18381 0.0
C18 C 0.67549 0.58465 0.13693 0.0
C19 C 0.67626 0.54179 0.18981 0.0
C20 C 0.65387 0.53518 0.14638 0.0
C21 C 0.64269 0.55268 0.0936 0.0
C22 C 0.65376 0.57791 0.09221 0.0
C23 C 0.80326 0.57532 0.46308 0.0
H24 H 0.78502 0.61989 0.95492 0.0
H25 H 0.75227 0.62039 0.05517 0.0
H26 H 0.80791 0.5814 0.1994 0.0
H27 H 0.83996 0.58291 0.10384 0.0
H28 H 0.72649 0.58902 0.10992 0.0
H29 H 0.78229 0.59992 0.28518 0.0
H30 H 0.71485 0.55122 0.32105 0.0
H31 H 0.77284 0.60165 0.42867 0.0
H32 H 0.77001 0.52448 0.33166 0.0
H33 H 0.80956 0.51277 0.40036 0.0
H34 H 0.68327 0.60421 0.13178 0.0
H35 H 0.68488 0.52716 0.22549 0.0
H36 H 0.81242 0.59017 0.49777 0.0
H37 H 0.64655 0.59257 0.05445 0.0
H38 H 0.64588 0.51591 0.1539 0.0
C39 C 0.93694 0.7977 1.00332 0.0
C40 C 0.9366 0.82354 0.02926 0.0
C41 C 0.93344 0.77736 0.0534 0.0
C42 C 0.92941 0.78272 0.13022 0.0
C43 C 0.92263 0.80864 0.15052 0.0
C44 C 0.92753 0.82902 0.10147 0.0
C45 C 0.94003 0.76429 0.18787 0.0
C46 C 0.94668 0.73842 0.16889 0.0
C47 C 0.96548 0.72416 0.2092 0.0
C48 C 0.97695 0.73639 0.27445 0.0
C49 C 0.96796 0.76164 0.29934 0.0
C50 C 0.9493 0.77447 0.25602 0.0
C51 C 0.97803 0.77813 0.36448 0.0
C52 C 0.96017 0.78584 0.42068 0.0
C53 C 0.99989 0.79443 0.35451 0.0
C54 C 1.00297 0.8181 0.39573 0.0
C55 C 0.98397 0.82701 0.4479 0.0
C56 C 0.97265 0.69757 0.17552 0.0
C57 C 0.9524 0.68 0.15588 0.0
C58 C 0.99757 0.69222 0.1451 0.0
C59 C 1.00154 0.67113 0.09369 0.0
C60 C 0.98066 0.65482 0.06982 0.0
C61 C 0.95625 0.65928 0.10432 0.0
C62 C 0.96289 0.80966 0.46075 0.0
H63 H 0.94337 0.79313 0.94697 0.0
H64 H 0.93736 0.75794 0.03234 0.0
H65 H 0.9165 0.81379 0.20659 0.0
H66 H 0.9265 0.84899 0.12196 0.0
H67 H 0.93835 0.72956 0.11912 0.0
H68 H 0.94409 0.79401 0.27357 0.0
H69 H 0.99206 0.72639 0.30549 0.0
H70 H 0.94246 0.77461 0.42845 0.0
H71 H 0.01365 0.78994 0.31028 0.0
H72 H 0.02001 0.82976 0.38401 0.0
H73 H 0.93285 0.68333 0.1771 0.0
H74 H 0.01363 0.70538 0.15707 0.0
H75 H 0.94726 0.8149 0.49851 0.0
H76 H 0.93965 0.64711 0.08994 0.0
H77 H 0.02073 0.66858 0.06933 0.0
C78 C 0.73564 0.92834 0.02746 0.0
C79 C 0.71205 0.94215 0.03535 0.0
C80 C 0.7532 0.92703 0.08746 0.0
C81 C 0.74752 0.93991 0.15545 0.0
C82 C 0.72296 0.9519 0.16426 0.0
C83 C 0.70548 0.95285 0.10535 0.0
C84 C 0.76812 0.94586 0.21158 0.0
C85 C 0.79283 0.95376 0.18794 0.0
C86 C 0.80953 0.96853 0.23443 0.0
C87 C 0.7989 0.9782 0.30405 0.0
C88 C 0.77386 0.96901 0.3296 0.0
C89 C 0.76079 0.95049 0.28551 0.0
C90 C 0.75694 0.98085 0.39079 0.0
C91 C 0.74403 0.96435 0.44207 0.0
C92 C 0.74595 1.00568 0.38009 0.0
C93 C 0.72234 0.01314 0.41525 0.0
C94 C 0.70859 0.99623 0.46373 0.0
C95 C 0.83654 0.97391 0.2021 0.0
C96 C 0.84951 0.95345 0.16311 0.0
C97 C 0.8473 0.99915 0.19592 0.0
C98 C 0.86913 1.00377 0.14871 0.0
C99 C 0.88041 0.98345 0.10516 0.0
C100 C 0.87056 0.95817 0.11473 0.0
C101 C 0.7204 0.97182 0.47761 0.0
H102 H 0.74112 0.91995 0.97389 0.0
H103 H 0.77183 0.9174 0.07908 0.0
H104 H 0.71793 0.96287 0.21432 0.0
H105 H 0.68787 0.96433 0.11309 0.0
H106 H 0.79852 0.95 0.13048 0.0
H107 H 0.74202 0.94314 0.30388 0.0
H108 H 0.80977 0.99222 0.33746 0.0
H109 H 0.7512 0.94468 0.4502 0.0
H110 H 0.75434 0.01857 0.339 0.0
H111 H 0.71421 0.03185 0.40034 0.0
H112 H 0.84232 0.93362 0.16672 0.0
H113 H 0.83805 0.0155 0.22417 0.0
H114 H 0.71111 0.95807 0.51452 0.0
H115 H 0.87893 0.94194 0.08363 0.0
H116 H 0.87644 0.0235 0.14358 0.0
C117 C 0.53442 0.73472 0.43349 0.0
C118 C 0.55276 0.71496 0.45209 0.0
C119 C 0.54177 0.75708 0.3929 0.0
C120 C 0.56784 0.76083 0.37104 0.0
C121 C 0.58653 0.74272 0.39686 0.0
C122 C 0.57917 0.72014 0.43542 0.0
C123 C 0.5751 0.77896 0.30826 0.0
C124 C 0.567 0.80561 0.30143 0.0
C125 C 0.57483 0.82036 0.23779 0.0
C126 C 0.5895 0.80805 0.18179 0.0
C127 C 0.59475 0.78152 0.18401 0.0
C128 C 0.5887 0.76745 0.2481 0.0
C129 C 0.59885 0.76728 0.11312 0.0
C130 C 0.5803 0.77053 0.05593 0.0
C131 C 0.61693 0.74683 0.10802 0.0
C132 C 0.61438 0.72807 0.0513 0.0
C133 C 0.59291 0.72892 1.00181 0.0
C134 C 0.56513 0.84686 0.21665 0.0
C135 C 0.54053 0.84858 0.18163 0.0
C136 C 0.58375 0.86633 0.20033 0.0
C137 C 0.57896 0.88503 0.14477 0.0
C138 C 0.5554 0.8848 0.10418 0.0
C139 C 0.53582 0.86715 0.12565 0.0
C140 C 0.57726 0.75146 1.00084 0.0
H141 H 0.51401 0.73268 0.44768 0.0
H142 H 0.52675 0.77047 0.37447 0.0
H143 H 0.6069 0.74497 0.38192 0.0
H144 H 0.59435 0.70614 0.44771 0.0
H145 H 0.55487 0.81457 0.34412 0.0
H146 H 0.59234 0.74658 0.24787 0.0
H147 H 0.59409 0.81848 0.13091 0.0
H148 H 0.56598 0.78613 0.05883 0.0
H149 H 0.63153 0.74416 0.15128 0.0
H150 H 0.62735 0.71135 0.05176 0.0
H151 H 0.52601 0.8336 0.19096 0.0
H152 H 0.60322 0.8651 0.2241 0.0
H153 H 0.5605 0.75298 0.96403 0.0
H154 H 0.51742 0.86658 0.09559 0.0
H155 H 0.59452 0.89822 0.12923 0.0
C156 C 0.25701 0.44026 0.30972 0.0
C157 C 0.23032 0.43717 0.2954 0.0
C158 C 0.27499 0.43436 0.25393 0.0
C159 C 0.26632 0.42512 0.18329 0.0
C160 C 0.24057 0.4155 0.17808 0.0
C161 C 0.22239 0.42213 0.23335 0.0
C162 C 0.28027 0.43412 0.11471 0.0
C163 C 0.30649 0.4416 0.12017 0.0
C164 C 0.31612 0.46249 0.07886 0.0
C165 C 0.30037 0.47283 0.01991 0.0
C166 C 0.27533 0.46166 1.00374 0.0
C167 C 0.26567 0.4428 0.05294 0.0
C168 C 0.25662 0.47058 0.9432 0.0
C169 C 0.24796 0.49658 0.93909 0.0
C170 C 0.24299 0.45178 0.89977 0.0
C171 C 0.22076 0.45838 0.85715 0.0
C172 C 0.21097 0.48415 0.85616 0.0
C173 C 0.34046 0.47479 0.11061 0.0
C174 C 0.33814 0.49177 0.17296 0.0
C175 C 0.36502 0.46321 0.09758 0.0
C176 C 0.38645 0.46834 0.14542 0.0
C177 C 0.38389 0.48468 0.20923 0.0
C178 C 0.35943 0.49656 0.22157 0.0
C179 C 0.22554 0.50323 0.89667 0.0
H180 H 0.26356 0.4512 0.35855 0.0
H181 H 0.29471 0.4412 0.26333 0.0
H182 H 0.2335 0.40638 0.12701 0.0
H183 H 0.20183 0.41883 0.22216 0.0
H184 H 0.31856 0.43373 0.16449 0.0
H185 H 0.24545 0.43702 0.04672 0.0
H186 H 0.30737 0.48917 0.98779 0.0
H187 H 0.25747 0.51156 0.97256 0.0
H188 H 0.24889 0.43148 0.90152 0.0
H189 H 0.21108 0.44296 0.82596 0.0
H190 H 0.31927 0.50007 0.18693 0.0
H191 H 0.36726 0.449 0.0527 0.0
H192 H 0.21902 0.5233 0.89902 0.0
H193 H 0.35662 0.50938 0.26947 0.0
H194 H 0.40483 0.45859 0.13413 0.0
C195 C 0.09068 0.24375 0.2985 0.0
C196 C 0.09988 0.21961 0.27201 0.0
C197 C 0.09299 0.2657 0.25388 0.0
C198 C 0.10463 0.26345 0.18285 0.0
C199 C 0.11962 0.24103 0.16661 0.0
C200 C 0.11653 0.21879 0.20998 0.0
C201 C 0.09275 0.27834 0.12058 0.0
C202 C 0.08441 0.30397 0.13216 0.0
C203 C 0.06476 0.31514 0.08797 0.0
C204 C 0.05441 0.3 0.02604 0.0
C205 C 0.06485 0.27445 1.00885 0.0
C206 C 0.08365 0.26442 0.05796 0.0
C207 C 0.05581 0.25537 0.94742 0.0
C208 C 0.02936 0.24949 0.93505 0.0
C209 C 0.07419 0.23845 0.91246 0.0
C210 C 0.06668 0.21518 0.87492 0.0
C211 C 0.04017 0.20783 0.8676 0.0
C212 C 0.0553 0.34159 0.11622 0.0
C213 C 0.03185 0.34392 0.15722 0.0
C214 C 0.0737 0.36196 0.12531 0.0
C215 C 0.06981 0.38262 0.1771 0.0
C216 C 0.04715 0.38413 0.22173 0.0
C217 C 0.02773 0.36496 0.20842 0.0
C218 C 0.02173 0.22657 0.89526 0.0
H219 H 0.07789 0.24476 0.34671 0.0
H220 H 0.08172 0.2828 0.26962 0.0
H221 H 0.12978 0.23917 0.11372 0.0
H222 H 0.12401 0.2003 0.18924 0.0
H223 H 0.09171 0.31459 0.18076 0.0
H224 H 0.08934 0.24416 0.0514 0.0
H225 H 0.03886 0.30796 0.99201 0.0
H226 H 0.01441 0.26178 0.95984 0.0
H227 H 0.09491 0.24231 0.91863 0.0
H228 H 0.08213 0.20267 0.85446 0.0
H229 H 0.01755 0.32839 0.15424 0.0
H230 H 0.09228 0.36072 0.09657 0.0
H231 H 1.001 0.22367 0.88897 0.0
H232 H 1.01001 0.36519 0.24132 0.0
H233 H 0.08516 0.39699 0.18412 0.0
C234 C 0.29555 0.08086 0.2876 0.0
C235 C 0.31916 0.09407 0.2747 0.0
C236 C 0.27501 0.0827 0.23718 0.0
C237 C 0.27766 0.09756 0.17215 0.0
C238 C 0.29977 0.11355 0.16432 0.0
C239 C 0.32045 0.11177 0.21527 0.0
C240 C 0.26142 0.09032 0.10659 0.0
C241 C 0.23531 0.0834 0.11671 0.0
C242 C 0.22263 0.06609 0.06747 0.0
C243 C 0.23655 0.05704 1.00237 0.0
C244 C 0.26232 0.0667 0.98724 0.0
C245 C 0.27405 0.08325 0.04025 0.0
C246 C 0.27998 0.05889 0.92304 0.0
C247 C 0.2938 0.03512 0.92479 0.0
C248 C 0.29006 0.07864 0.87682 0.0
C249 C 0.31384 0.07544 0.83787 0.0
C250 C 0.32874 0.05232 0.84351 0.0
C251 C 0.1967 0.05603 0.09536 0.0
C252 C 0.19522 0.03118 0.1276 0.0
C253 C 0.17654 0.07393 0.11311 0.0
C254 C 0.15642 0.06768 0.16386 0.0
C255 C 0.15569 0.04327 0.19985 0.0
C256 C 0.17523 0.02495 0.17882 0.0
C257 C 0.31764 0.03185 0.88565 0.0
H258 H 0.29374 0.06674 0.33189 0.0
H259 H 0.25846 0.06985 0.24488 0.0
H260 H 0.30212 0.12549 0.11518 0.0
H261 H 0.33818 0.12263 0.20476 0.0
H262 H 0.22571 0.08923 0.16835 0.0
H263 H 0.29442 0.08846 0.03296 0.0
H264 H 0.2276 0.04295 0.96471 0.0
H265 H 0.28735 0.01976 0.96155 0.0
H266 H 0.28052 0.09752 0.87552 0.0
H267 H 0.32092 0.09163 0.80529 0.0
H268 H 0.21078 0.0172 0.11806 0.0
H269 H 0.17734 0.09356 0.09135 0.0
H270 H 0.32816 0.01372 0.89276 0.0
H271 H 0.1762 1.00607 0.20509 0.0
H272 H 0.14185 0.08242 0.17621 0.0
C273 C 0.45614 0.30809 0.82746 0.0
C274 C 0.47842 0.32287 0.84614 0.0
C275 C 0.45112 0.28417 0.86299 0.0
C276 C 0.4684 0.27419 0.91744 0.0
C277 C 0.49181 0.2879 0.93074 0.0
C278 C 0.49663 0.31199 0.89616 0.0
C279 C 0.45806 0.25694 0.97796 0.0
C280 C 0.46936 0.23277 1.00009 0.0
C281 C 0.46162 0.22125 0.06871 0.0
C282 C 0.44554 0.23559 0.1174 0.0
C283 C 0.43564 0.26021 0.09817 0.0
C284 C 0.43932 0.26862 0.02451 0.0
C285 C 0.4278 0.27944 0.15813 0.0
C286 C 0.4223 0.27128 0.23179 0.0
C287 C 0.43158 0.30643 0.14655 0.0
C288 C 0.43336 0.32371 0.20662 0.0
C289 C 0.43217 0.31453 0.27979 0.0
C290 C 0.47146 0.19577 0.09813 0.0
C291 C 0.45621 0.17313 0.08896 0.0
C292 C 0.49041 0.19598 0.15526 0.0
C293 C 0.49307 0.17485 0.20437 0.0
C294 C 0.47692 0.15254 0.19804 0.0
C295 C 0.45907 0.15178 0.13743 0.0
C296 C 0.42544 0.28852 0.29242 0.0
H297 H 0.44156 0.31602 0.78993 0.0
H298 H 0.4325 0.27467 0.85308 0.0
H299 H 0.50517 0.28138 0.97381 0.0
H300 H 0.51392 0.32293 0.91201 0.0
H301 H 0.48402 0.2234 0.96545 0.0
H302 H 0.43015 0.28646 1.00601 0.0
H303 H 0.44246 0.22787 0.17269 0.0
H304 H 0.4177 0.2512 0.24396 0.0
H305 H 0.43608 0.31441 0.09251 0.0
H306 H 0.4389 0.34376 0.19595 0.0
H307 H 0.44079 0.17262 0.0473 0.0
H308 H 0.50177 0.21347 0.16589 0.0
H309 H 0.42442 0.28118 0.34892 0.0
H310 H 0.44654 0.13503 0.1285 0.0
H311 H 0.50678 0.17695 0.25017 0.0
Tb312 Tb 0.04215 1.00712 0.71002 0.0
C313 C 0.94345 0.99575 0.52814 0.0
C314 C 0.95868 0.97402 0.41514 0.0
C315 C 0.91277 0.9721 0.44792 0.0
C316 C 0.96368 0.98923 0.48012 0.0
C317 C 0.91764 0.98772 0.51144 0.0
C318 C 0.93326 0.9652 0.40005 0.0
C319 C 0.90252 0.01438 0.61462 0.0
N320 N 0.94858 1.01188 0.58715 0.0
C321 C 0.92822 0.02228 0.62788 0.0
C322 C 0.89721 0.99683 0.55652 0.0
Tb323 Tb 0.99029 0.02845 0.59211 0.0
N324 N 0.98777 0.99938 0.49379 0.0
C325 C 1.00742 0.99541 0.44308 0.0
C326 C 0.97908 0.96919 0.36507 0.0
C327 C 1.0035 0.9801 0.37891 0.0
H328 H 0.93196 0.03669 0.67139 0.0
H329 H 0.0194 0.97681 0.34008 0.0
H330 H 0.92908 0.95374 0.35011 0.0
H331 H 0.88677 0.02228 0.64822 0.0
H332 H 0.0264 1.0035 0.45108 0.0
H333 H 1.0063 0.06462 0.94816 0.0
H334 H 0.976 0.95764 0.31466 0.0
H335 H 0.10198 1.00748 0.62499 0.0
H336 H 1.00103 0.03876 0.83561 0.0
H337 H 0.14473 0.02578 0.65027 0.0
H338 H 0.89308 0.96594 0.43405 0.0
H339 H 0.04986 0.08048 0.98626 0.0
H340 H 0.09743 0.08367 0.95997 0.0
H341 H 0.87717 0.99122 0.54512 0.0
H342 H 0.13458 0.07411 0.87773 0.0
N343 N 0.04188 0.03718 0.80808 0.0
C344 C 0.02063 0.04386 0.85127 0.0
C345 C 0.04784 0.0685 0.93624 0.0
C346 C 0.06937 0.06263 0.89135 0.0
C347 C 0.02331 0.05945 0.91527 0.0
C348 C 0.06574 0.04707 0.82622 0.0
H349 H 0.1521 0.05352 0.76181 0.0
N350 N 0.0825 0.02766 0.7155 0.0
C351 C 0.12848 0.03106 0.68601 0.0
C352 C 0.08659 0.04225 0.77857 0.0
C353 C 0.10355 0.02138 0.67066 0.0
C354 C 0.13259 0.0465 0.74925 0.0
C355 C 0.11168 0.0521 0.79676 0.0
O356 O 0.07335 0.98079 0.71472 0.0
O357 O 0.01415 0.99604 0.62406 0.0
O358 O 0.97216 1.00787 0.68729 0.0
O359 O 1.00564 0.99996 0.77308 0.0
O360 O 0.03405 0.96682 0.67042 0.0
O361 O 0.04797 0.9869 0.81034 0.0
O362 O 0.9644 0.05995 0.58567 0.0
O363 O 0.02287 0.0417 0.66336 0.0
O364 O 0.05883 0.01441 0.59739 0.0
O365 O 0.02748 0.03989 0.53777 0.0
O366 O 0.98729 0.05933 0.67731 0.0
O367 O 0.98662 0.0475 0.48891 0.0
C368 C 0.01584 0.97115 0.62325 0.0
C369 C 0.06794 0.94502 0.79433 0.0
C370 C 0.04996 0.90552 0.84772 0.0
C371 C 0.04789 0.93226 0.83304 0.0
C372 C 0.07172 0.89137 0.82227 0.0
C373 C 0.08959 0.93058 0.76892 0.0
C374 C 0.09135 0.90387 0.78241 0.0
C375 C 0.98049 1.00072 0.75452 0.0
C376 C 0.06741 0.9734 0.78208 0.0
C377 C 0.1154 0.06675 0.86265 0.0
C378 C 0.09429 0.07209 0.90965 0.0
C379 C 1.01146 0.06064 0.69684 0.0
C380 C 0.97131 0.0913 0.49453 0.0
C381 C 0.99521 0.1028 0.47615 0.0
C382 C 0.9957 0.12872 0.45236 0.0
C383 C 0.97245 0.14325 0.44878 0.0
C384 C 0.94819 0.10602 0.49166 0.0
C385 C 0.9488 0.13195 0.46912 0.0
C386 C 0.05157 0.0303 0.5429 0.0
C387 C 0.96941 0.06395 0.5156 0.0
H388 H 0.03109 0.94308 0.85354 0.0
H389 H 0.07353 0.87072 0.83366 0.0
H390 H 0.10531 0.94004 0.73915 0.0
H391 H 0.10814 0.89292 0.76285 0.0
H392 H 0.01316 0.09155 0.47824 0.0
H393 H 0.97265 0.1633 0.43017 0.0
H394 H 0.92962 0.09734 0.5063 0.0
H395 H 0.93091 0.1432 0.46658 0.0
Tb396 Tb 0.52354 0.0466 0.70843 0.0
C397 C 0.54238 0.94556 0.52692 0.0
C398 C 0.56474 0.96196 0.41792 0.0
C399 C 0.56501 0.91549 0.44283 0.0
C400 C 0.54921 0.96623 0.4821 0.0
C401 C 0.55015 0.91991 0.50764 0.0
C402 C 0.57236 0.93649 0.39822 0.0
C403 C 0.5266 0.90449 0.61504 0.0
N404 N 0.52765 0.95051 0.58841 0.0
C405 C 0.51903 0.93013 0.63112 0.0
C406 C 0.54224 0.89933 0.55298 0.0
Tb407 Tb 0.51006 0.99177 0.59613 0.0
N408 N 0.54093 0.99053 0.50192 0.0
C409 C 0.54843 1.01152 0.46002 0.0
C410 C 0.57212 0.98338 0.37522 0.0
C411 C 0.5642 1.00829 0.39702 0.0
H412 H 0.50555 0.93355 0.67677 0.0
H413 H 0.57013 0.0251 0.3651 0.0
H414 H 0.58393 0.93282 0.34851 0.0
H415 H 0.51976 0.88865 0.64943 0.0
H416 H 0.54331 0.03116 0.47546 0.0
H417 H 0.46389 0.01353 0.94118 0.0
H418 H 0.58411 0.98091 0.32578 0.0
H419 H 0.5279 0.10515 0.62722 0.0
H420 H 0.49216 1.00737 0.83436 0.0
H421 H 0.51121 0.14935 0.6497 0.0
H422 H 0.57087 0.89591 0.42665 0.0
H423 H 0.44682 0.05728 0.97331 0.0
H424 H 0.44447 0.10476 0.94489 0.0
H425 H 0.54768 0.87936 0.53974 0.0
H426 H 0.45659 0.14137 0.86463 0.0
N427 N 0.49238 0.04765 0.80206 0.0
C428 C 0.48574 0.02692 0.84635 0.0
C429 C 0.45949 0.0548 0.92528 0.0
C430 C 0.46612 0.07595 0.8806 0.0
C431 C 0.46914 0.03015 0.90754 0.0
C432 C 0.48258 0.07171 0.81823 0.0
H433 H 0.48076 0.15801 0.75395 0.0
N434 N 0.50465 0.08748 0.71232 0.0
C435 C 0.50437 0.13342 0.68372 0.0
C436 C 0.4888 0.0922 0.77175 0.0
C437 C 0.51335 0.10809 0.67034 0.0
C438 C 0.4873 0.13823 0.74273 0.0
C439 C 0.47958 0.11763 0.78821 0.0
O440 O 0.55264 0.07512 0.71805 0.0
O441 O 0.54119 0.01395 0.64741 0.0
O442 O 0.52821 0.97532 0.69934 0.0
O443 O 0.53211 1.01208 0.77612 0.0
O444 O 0.55794 0.04947 0.63516 0.0
O445 O 0.54133 0.05231 0.81341 0.0
O446 O 0.48035 0.96382 0.5869 0.0
O447 O 0.49128 0.02423 0.65805 0.0
O448 O 0.5087 0.06277 0.60404 0.0
O449 O 0.5015 0.02664 0.52673 0.0
O450 O 0.47992 0.98681 0.67926 0.0
O451 O 0.49061 0.98761 0.49277 0.0
C452 C 0.56069 0.02522 0.61831 0.0
C453 C 0.58512 0.06679 0.80545 0.0
C454 C 0.62222 0.03996 0.84022 0.0
C455 C 0.59563 0.04238 0.82291 0.0
C456 C 0.63839 0.06215 0.83766 0.0
C457 C 0.60142 0.08874 0.80282 0.0
C458 C 0.628 0.08636 0.81853 0.0
C459 C 0.53304 0.98644 0.76568 0.0
C460 C 0.55743 0.06975 0.7875 0.0
C461 C 0.46363 0.12195 0.85086 0.0
C462 C 0.45683 0.10114 0.89674 0.0
C463 C 0.47404 1.01081 0.69205 0.0
C464 C 0.4477 0.97029 0.49816 0.0
C465 C 0.43453 0.99401 0.48856 0.0
C466 C 0.4078 0.9939 0.47168 0.0
C467 C 0.39434 0.97013 0.46432 0.0
C468 C 0.43412 0.94663 0.49054 0.0
C469 C 0.40753 0.94657 0.4736 0.0
C470 C 0.50248 0.05226 0.53878 0.0
C471 C 0.47538 0.96927 0.51767 0.0
H472 H 0.58316 0.02529 0.82331 0.0
H473 H 0.65891 0.06095 0.85218 0.0
H474 H 0.59355 0.10768 0.78845 0.0
H475 H 0.64051 0.10337 0.81681 0.0
H476 H 0.44488 0.01239 0.49449 0.0
H477 H 0.37374 0.96983 0.45018 0.0
H478 H 0.44413 0.92817 0.49793 0.0
H479 H 0.39716 0.92827 0.46744 0.0
Tb480 Tb 0.54292 0.50434 0.57714 0.0
C481 C 0.43596 0.52181 0.71248 0.0
C482 C 0.4158 0.55003 0.62055 0.0
C483 C 0.38854 0.52679 0.70808 0.0
C484 C 0.43845 0.53915 0.65372 0.0
C485 C 0.41087 0.51576 0.7406 0.0
C486 C 0.391 0.54381 0.64816 0.0
C487 C 0.43136 0.48956 0.83507 0.0
N488 N 0.45789 0.51135 0.74325 0.0
C489 C 0.45571 0.49622 0.8062 0.0
C490 C 0.40881 0.49922 0.80186 0.0
Tb491 Tb 0.49683 0.52787 0.69881 0.0
N492 N 0.46277 0.54493 0.62794 0.0
C493 C 0.46516 0.56115 0.56743 0.0
C494 C 0.41856 0.56678 0.5601 0.0
C495 C 0.44334 0.57215 0.53308 0.0
H496 H 0.47285 0.48911 0.83502 0.0
H497 H 0.44571 0.58465 0.48516 0.0
H498 H 0.37354 0.55212 0.62352 0.0
H499 H 0.43005 0.4773 0.88383 0.0
H500 H 0.48367 0.56496 0.54164 0.0
H501 H 0.5862 0.44152 0.78763 0.0
H502 H 0.40166 0.57538 0.53323 0.0
H503 H 0.57007 0.54662 0.45943 0.0
H504 H 0.55042 0.46043 0.7166 0.0
H505 H 0.61401 0.56307 0.43139 0.0
H506 H 0.36923 0.52237 0.72917 0.0
H507 H 0.63154 0.45601 0.7661 0.0
H508 H 0.66253 0.48466 0.69688 0.0
H509 H 0.38993 0.49424 0.82494 0.0
H510 H 0.66993 0.51825 0.60223 0.0
N511 N 0.57453 0.48575 0.65241 0.0
C512 C 0.56979 0.46702 0.70476 0.0
C513 C 0.61572 0.46458 0.73426 0.0
C514 C 0.62052 0.48396 0.68165 0.0
C515 C 0.5902 0.45626 0.74629 0.0
C516 C 0.59923 0.49462 0.64193 0.0
H517 H 0.65204 0.54783 0.50434 0.0
N518 N 0.58235 0.52414 0.55335 0.0
C519 C 0.61126 0.54968 0.4771 0.0
C520 C 0.60326 0.5143 0.59064 0.0
C521 C 0.58633 0.54049 0.49392 0.0
C522 C 0.63264 0.54099 0.51829 0.0
C523 C 0.62891 0.52274 0.57483 0.0
O524 O 0.55048 0.50005 0.46251 0.0
O525 O 0.50032 0.50756 0.59103 0.0
O526 O 0.49273 0.48527 0.71105 0.0
O527 O 0.52051 0.46983 0.6171 0.0
O528 O 0.51646 0.51914 0.49205 0.0
O529 O 0.55678 0.46811 0.53844 0.0
O530 O 0.49962 0.52736 0.81625 0.0
O531 O 0.53787 0.51905 0.69126 0.0
O532 O 0.54641 0.54793 0.57957 0.0
O533 O 0.51021 0.56376 0.6454 0.0
O534 O 0.53763 0.51936 0.69254 0.0
O535 O 0.49288 0.56379 0.75572 0.0
C536 C 0.49466 0.51497 0.52528 0.0
C537 C 0.55097 0.45797 0.40959 0.0
C538 C 0.53343 0.41665 0.3663 0.0
C539 C 0.53724 0.43495 0.42383 0.0
C540 C 0.54289 0.42163 0.29418 0.0
C541 C 0.56013 0.46295 0.33725 0.0
C542 C 0.55601 0.44485 0.2797 0.0
C543 C 0.50348 0.46584 0.67228 0.0
C544 C 0.55825 0.47608 0.46958 0.0
C545 C 0.65013 0.51202 0.6138 0.0
C546 C 0.64594 0.4928 0.66739 0.0
C547 C 0.55736 0.52738 0.73277 0.0
C548 C 0.49297 0.56625 0.89043 0.0
C549 C 0.50708 0.58929 0.89864 0.0
C550 C 0.50814 0.602 0.96789 0.0
C551 C 0.49309 0.59271 0.0276 0.0
C552 C 0.47809 0.55676 0.94986 0.0
C553 C 0.47778 0.57033 0.01806 0.0
C554 C 0.53127 0.5674 0.60377 0.0
C555 C 0.4944 0.55214 0.8199 0.0
H556 H 0.53014 0.43093 0.47947 0.0
H557 H 0.5398 0.4077 0.24897 0.0
H558 H 0.57092 0.48064 0.32568 0.0
H559 H 0.56321 0.44871 0.22405 0.0
H560 H 0.51856 0.59645 0.85231 0.0
H561 H 0.49351 0.60252 0.08158 0.0
H562 H 0.46674 0.53903 0.94336 0.0
H563 H 0.46621 0.56316 0.06402 0.0
Tb564 Tb 0.02586 0.5446 0.59835 0.0
C565 C 0.0165 0.43197 0.69526 0.0
C566 C 0.98843 0.41175 0.60171 0.0
C567 C 0.01596 0.38468 0.67992 0.0
C568 C 0.9983 0.43433 0.63807 0.0
C569 C 0.02507 0.40703 0.7178 0.0
C570 C 0.99772 0.38704 0.62199 0.0
C571 C 0.04812 0.42759 0.82063 0.0
N572 N 0.02413 0.45383 0.73292 0.0
C573 C 0.03879 0.45179 0.79719 0.0
C574 C 0.04145 0.40513 0.7803 0.0
Tb575 Tb 1.00309 0.49151 0.69976 0.0
N576 N 0.98871 0.45841 0.62222 0.0
C577 C 0.96847 0.46084 0.57224 0.0
C578 C 0.96855 0.41446 0.54865 0.0
C579 C 0.95838 0.43909 0.53441 0.0
H580 H 0.04359 0.46907 0.82976 0.0
H581 H 0.94271 0.4414 0.4942 0.0
H582 H 0.99026 0.36955 0.59483 0.0
H583 H 0.06014 0.42627 0.87038 0.0
H584 H 0.9602 0.47948 0.55876 0.0
H585 H 0.08747 0.59075 0.80951 0.0
H586 H 0.96042 0.39759 0.51984 0.0
H587 H 0.98502 0.5699 0.47307 0.0
H588 H 0.06847 0.55398 0.74313 0.0
H589 H 0.96999 0.61358 0.43617 0.0
H590 H 0.02227 0.36541 0.69661 0.0
H591 H 0.07207 0.6355 0.78529 0.0
H592 H 0.04367 0.66534 0.71159 0.0
H593 H 0.0483 0.38632 0.79942 0.0
H594 H 1.01165 0.67157 0.61076 0.0
N595 N 0.04166 0.57669 0.6779 0.0
C596 C 0.06139 0.57304 0.72901 0.0
C597 C 0.06339 0.61922 0.75506 0.0
C598 C 0.04387 0.62316 0.70162 0.0
C599 C 0.07227 0.59406 0.76845 0.0
C600 C 0.03319 0.60129 0.66358 0.0
H601 H 0.98421 0.65252 0.50812 0.0
N602 N 1.00621 0.58356 0.56894 0.0
C603 C 0.98238 0.61142 0.48487 0.0
C604 C 0.01494 0.60483 0.60729 0.0
C605 C 0.99085 0.58671 0.50635 0.0
C606 C 0.99042 0.63331 0.52567 0.0
C607 C 1.00719 0.63026 0.58688 0.0
O608 O 0.03236 0.55445 0.48713 0.0
O609 O 0.02162 0.50208 0.59528 0.0
O610 O 0.04539 0.48425 0.68681 0.0
O611 O 0.06033 0.52479 0.65 0.0
O612 O 1.01016 0.52201 0.50307 0.0
O613 O 0.06421 0.55479 0.56666 0.0
O614 O 0.99554 0.48365 0.81217 0.0
O615 O 1.00678 0.53412 0.70223 0.0
O616 O 0.98321 0.55116 0.60812 0.0
O617 O 0.9684 0.51082 0.64748 0.0
O618 O 0.01823 0.51452 0.79502 0.0
O619 O 0.96589 0.47727 0.72771 0.0
C620 C 0.01306 0.49895 0.5289 0.0
C621 C 0.07398 0.55165 0.43611 0.0
C622 C 0.10932 0.52654 0.38159 0.0
C623 C 0.0929 0.532 0.44241 0.0
C624 C 0.10629 0.54028 0.31443 0.0
C625 C 0.07115 0.56522 0.36878 0.0
C626 C 0.08718 0.55946 0.3081 0.0
C627 C 0.06463 0.50129 0.6784 0.0
C628 C 0.05694 0.55922 0.49788 0.0
C629 C 0.01731 0.65193 0.62583 0.0
C630 C 0.03556 0.64839 0.68317 0.0
C631 C 0.01505 0.53751 0.76886 0.0
C632 C 0.95257 0.48208 0.85315 0.0
C633 C 0.94093 0.50675 0.85377 0.0
C634 C 0.92276 0.51293 0.90926 0.0
C635 C 0.91636 0.4946 0.96409 0.0
C636 C 0.94629 0.4638 0.90802 0.0
C637 C 0.92819 0.47008 0.96345 0.0
C638 C 0.96401 0.5341 0.61763 0.0
C639 C 0.97216 0.47508 0.79813 0.0
H640 H 0.09524 0.52152 0.49438 0.0
H641 H 0.11872 0.53613 0.26679 0.0
H642 H 0.05652 0.58041 0.36332 0.0
H643 H 0.08491 0.56999 0.25633 0.0
H644 H 0.94593 0.52095 0.81157 0.0
H645 H 0.90216 0.49929 1.00705 0.0
H646 H 0.95551 0.44474 0.90813 0.0
H647 H 0.92333 0.45597 1.00579 0.0
H648 H 0.12888 0.07704 0.29821 0.0
H649 H 0.13547 0.99522 0.23925 0.0
H650 H 0.10624 0.9842 0.34076 0.0
H651 H 0.07849 0.99706 0.4488 0.0
H652 H 0.06722 0.07869 0.49857 0.0
H653 H 0.09799 0.09024 0.39911 0.0
C654 C 0.12383 0.05675 0.3063 0.0
C655 C 0.1355 0.03709 0.26027 0.0
C656 C 0.10599 0.05034 0.36444 0.0
C657 C 0.12812 1.01101 0.27393 0.0
C658 C 0.11099 1.00455 0.33222 0.0
C659 C 0.0829 0.01738 0.4381 0.0
C660 C 0.07079 0.03695 0.48235 0.0
C661 C 0.09999 0.02394 0.37855 0.0
C662 C 0.07633 0.06319 0.46614 0.0
C663 C 0.09396 0.0698 0.40894 0.0
H664 H 0.51826 0.13691 0.28784 0.0
H665 H 0.43702 0.11947 0.24362 0.0
H666 H 0.4379 0.0861 0.3395 0.0
H667 H 0.4613 0.06216 0.44092 0.0
H668 H 0.54073 0.08381 0.49263 0.0
H669 H 0.54063 0.11516 0.39086 0.0
C670 C 0.50049 0.12621 0.2991 0.0
C671 C 0.47768 0.13116 0.25649 0.0
C672 C 0.50072 0.10749 0.35673 0.0
C673 C 0.45525 0.11615 0.27278 0.0
C674 C 0.45558 0.09702 0.3287 0.0
C675 C 0.47857 0.07367 0.4294 0.0
C676 C 0.5011 0.07046 0.47417 0.0
C677 C 0.47817 0.09249 0.37147 0.0
C678 C 0.52317 0.08584 0.45911 0.0
C679 C 0.52314 0.10382 0.40076 0.0
H680 H 0.38606 0.48447 0.36521 0.0
H681 H 0.43399 0.49608 0.17016 0.0
H682 H 0.47135 0.50646 0.25 0.0
H683 H 0.4903 0.51435 0.37397 0.0
H684 H 0.44601 0.4958 0.57068 0.0
H685 H 0.40732 0.48718 0.49244 0.0
C686 C 0.40466 0.48938 0.34019 0.0
C687 C 0.40685 0.48986 0.26092 0.0
C688 C 0.42663 0.49477 0.38707 0.0
C689 C 0.43144 0.49561 0.23026 0.0
C690 C 0.4529 0.50169 0.27612 0.0
C691 C 0.47222 0.50848 0.40036 0.0
C692 C 0.47086 0.50745 0.47939 0.0
C693 C 0.45068 0.50169 0.35444 0.0
C694 C 0.44739 0.49856 0.51103 0.0
C695 C 0.42531 0.49311 0.46578 0.0
H696 H 1.00452 0.41457 0.26335 0.0
H697 H 0.08479 0.40018 0.32331 0.0
H698 H 0.08142 0.43168 0.42689 0.0
H699 H 0.05537 0.46453 0.5024 0.0
H700 H 0.97783 0.4835 0.42604 0.0
H701 H 0.98016 0.4492 0.3308 0.0
C702 C 0.02129 0.41814 0.29919 0.0
C703 C 0.04481 0.40442 0.28476 0.0
C704 C 0.01951 0.43713 0.35795 0.0
C705 C 0.06635 0.41016 0.33188 0.0
C706 C 0.06441 0.42826 0.39192 0.0
C707 C 0.03879 0.46075 0.46598 0.0
C708 C 0.01563 0.47578 0.47546 0.0
C709 C 0.041 0.44193 0.40617 0.0
C710 C 0.99534 0.47162 0.42325 0.0
C711 C 0.99675 0.45206 0.36777 0.0
H712 H 0.87945 0.97583 0.95259 0.0
H713 H 0.93044 1.00101 0.13113 0.0
H714 H 0.96626 1.00659 0.04136 0.0
H715 H 0.98324 1.0048 0.9105 0.0
H716 H 0.93096 0.98195 0.73183 0.0
H717 H 0.89601 0.97516 0.82202 0.0
C718 C 0.89837 0.98269 0.97184 0.0
C719 C 0.90202 0.98816 0.04904 0.0
C720 C 0.91885 0.98634 0.91927 0.0
C721 C 0.92681 0.99696 0.07241 0.0
C722 C 0.94741 1.00002 0.02083 0.0
C723 C 0.96425 0.99831 0.89094 0.0
C724 C 0.96001 0.99433 0.81297 0.0
C725 C 0.94373 0.99483 0.94383 0.0
C726 C 0.93502 0.98575 0.79035 0.0
C727 C 0.91489 0.9817 0.84237 0.0
H728 H 0.55111 0.93793 0.08902 0.0
H729 H 0.55367 0.86632 0.96111 0.0
H730 H 0.54836 0.89067 0.84459 0.0
H731 H 0.54134 0.93266 0.77849 0.0
H732 H 0.53821 1.00397 0.90953 0.0
H733 H 0.54504 0.97966 0.02323 0.0
C734 C 0.5505 0.92771 0.03557 0.0
C735 C 0.55248 0.9003 0.03394 0.0
C736 C 0.54712 0.94188 0.96857 0.0
C737 C 0.55178 0.88738 0.96405 0.0
C738 C 0.5488 0.90133 0.89728 0.0
C739 C 0.5422 0.94293 0.83168 0.0
C740 C 0.53911 0.97037 0.83388 0.0
C741 C 0.54614 0.92865 0.89861 0.0
C742 C 0.54054 0.98302 0.90446 0.0
C743 C 0.54443 0.96907 0.97042 0.0
H744 H 0.60914 0.58332 1.00251 0.0
H745 H 0.62607 0.50253 0.0537 0.0
H746 H 0.59454 0.48859 0.96143 0.0
H747 H 0.56656 0.49799 0.8529 0.0
H748 H 0.55557 0.57734 0.78525 0.0
H749 H 0.57939 0.59279 0.89642 0.0
C750 C 0.60638 0.56257 0.99436 0.0
C751 C 0.62098 0.54438 0.0381 0.0
C752 C 0.5885 0.55418 0.93746 0.0
C753 C 0.61561 0.51764 0.02453 0.0
C754 C 0.59738 0.50936 0.97027 0.0
C755 C 0.56803 0.51875 0.8647 0.0
C756 C 0.55746 0.53646 0.81232 0.0
C757 C 0.58406 0.52733 0.92529 0.0
C758 C 0.56164 0.56321 0.82648 0.0
C759 C 0.57615 0.57201 0.8892 0.0
H760 H 0.02222 0.62119 0.03712 0.0
H761 H 0.94523 0.64152 0.9584 0.0
H762 H 0.94901 0.6095 0.85675 0.0
H763 H 0.97444 0.57473 0.78716 0.0
H764 H 0.04876 0.55116 0.87781 0.0
H765 H 0.04612 0.58532 0.97344 0.0
C766 C 1.00629 0.61892 0.99752 0.0
C767 C 0.98351 0.6344 1.00679 0.0
C768 C 1.00835 0.59984 0.93885 0.0
C769 C 0.96306 0.63019 0.95451 0.0
C770 C 0.96526 0.61181 0.89525 0.0
C771 C 0.99029 0.57743 0.82685 0.0
C772 C 1.01257 0.5609 0.82187 0.0
C773 C 0.9879 0.59646 0.88613 0.0
C774 C 0.0319 0.56397 0.87764 0.0
C775 C 0.03031 0.58351 0.93326 0.0
H776 H 0.09783 0.19334 0.40314 0.0
H777 H 0.06527 0.19662 0.18081 0.0
H778 H 0.03044 0.16678 0.21591 0.0
H779 H 1.00656 0.1441 0.31383 0.0
H780 H 0.03904 0.13924 0.53572 0.0
H781 H 0.07713 0.16483 0.4969 0.0
C782 C 0.08363 0.18663 0.36211 0.0
C783 C 0.08417 0.19659 0.28955 0.0
C784 C 0.06362 0.1695 0.38278 0.0
C785 C 0.06544 0.18849 0.23656 0.0
C786 C 0.04539 0.17174 0.25676 0.0
C787 C 0.02226 0.14838 0.35305 0.0
C788 C 0.02016 0.14048 0.42738 0.0
C789 C 0.04389 0.16278 0.33024 0.0
C790 C 0.04048 0.14555 0.47822 0.0
C791 C 0.06209 0.16014 0.45611 0.0
H792 H 0.32417 0.07992 0.42011 0.0
H793 H 0.36785 0.08676 0.21491 0.0
H794 H 0.4024 0.05959 0.26592 0.0
H795 H 0.41581 0.02687 0.35823 0.0
H796 H 0.36817 0.01439 0.55285 0.0
H797 H 0.33924 0.05016 0.51633 0.0
C798 C 0.34145 0.07581 0.38698 0.0
C799 C 0.34312 0.08505 0.31345 0.0
C800 C 0.36028 0.05857 0.41434 0.0
C801 C 0.36599 0.08014 0.27195 0.0
C802 C 0.38564 0.06419 0.30062 0.0
C803 C 0.39946 0.0326 0.39335 0.0
C804 C 0.39385 0.01835 0.45779 0.0
C805 C 0.38235 0.05228 0.37014 0.0
C806 C 0.37259 0.02536 0.50297 0.0
C807 C 0.35613 0.04569 0.48204 0.0
H808 H 0.48103 0.30897 0.32567 0.0
H809 H 0.4126 0.35693 0.3537 0.0
H810 H 0.43959 0.3928 0.40235 0.0
H811 H 0.48298 0.41325 0.40534 0.0
H812 H 0.55115 0.36702 0.35477 0.0
H813 H 0.52435 0.32755 0.34694 0.0
C814 C 0.47203 0.32685 0.34637 0.0
C815 C 0.44503 0.33046 0.33756 0.0
C816 C 0.48785 0.34787 0.36781 0.0
C817 C 0.43336 0.35381 0.36171 0.0
C818 C 0.44884 0.37437 0.38813 0.0
C819 C 0.49189 0.39432 0.39509 0.0
C820 C 0.51868 0.39269 0.37979 0.0
C821 C 0.47617 0.37212 0.38674 0.0
C822 C 0.53038 0.36839 0.36598 0.0
C823 C 0.5151 0.34595 0.36144 0.0
H824 H 0.18314 0.42899 0.36246 0.0
H825 H 0.23647 0.48911 0.29237 0.0
H826 H 0.20436 0.52258 0.32138 0.0
H827 H 0.15986 0.53445 0.3538 0.0
H828 H 0.10532 0.47551 0.42242 0.0
H829 H 0.1393 0.44185 0.40946 0.0
C830 C 0.18778 0.44948 0.35563 0.0
C831 C 0.21214 0.45665 0.32671 0.0
C832 C 0.16907 0.46875 0.37192 0.0
C833 C 0.21803 0.4832 0.31658 0.0
C834 C 0.19963 0.50236 0.33241 0.0
C835 C 0.15561 0.51425 0.36678 0.0
C836 C 0.1303 0.50712 0.38739 0.0
C837 C 0.17495 0.49529 0.35834 0.0
C838 C 0.12483 0.48115 0.40579 0.0
C839 C 0.14415 0.462 0.39797 0.0
H840 H 0.98158 0.84396 0.0763 0.0
H841 H 0.92742 0.84426 0.8915 0.0
H842 H 0.95747 0.87165 0.81955 0.0
H843 H 1.00052 0.89314 0.80747 0.0
H844 H 0.05591 0.88877 0.98888 0.0
H845 H 0.02409 0.86529 0.06483 0.0
C846 C 0.97616 0.85066 0.02095 0.0
C847 C 0.95219 0.84297 0.98945 0.0
C848 C 0.99388 0.86531 0.9795 0.0
C849 C 0.94561 0.85064 0.91684 0.0
C850 C 0.96283 0.86605 0.87583 0.0
C851 C 1.00533 0.88717 0.86392 0.0
C852 C 0.0302 0.89254 0.89336 0.0
C853 C 0.98718 0.87317 0.90623 0.0
C854 C 0.03671 0.88467 0.96587 0.0
C855 C 0.01859 0.87134 1.00904 0.0
H856 H 0.65942 0.9438 0.02268 0.0
H857 H 0.73049 0.96063 0.90344 0.0
H858 H 0.70673 0.98992 0.82106 0.0
H859 H 0.66839 0.01769 0.80209 0.0
H860 H 0.5995 1.00588 0.93638 0.0
H861 H 0.61964 0.968 0.99403 0.0
C862 C 0.66948 0.95331 0.97711 0.0
C863 C 0.69665 0.95046 0.9699 0.0
C864 C 0.6562 0.9717 0.93419 0.0
C865 C 0.70953 0.96242 0.91002 0.0
C866 C 0.69605 0.97959 0.8638 0.0
C867 C 0.65774 1.00662 0.84342 0.0
C868 C 0.63275 0.01476 0.8658 0.0
C869 C 0.66982 0.98555 0.87857 0.0
C870 C 0.61879 0.99996 0.91803 0.0
C871 C 0.63033 0.97836 0.95134 0.0
H872 H 0.59413 0.68133 0.06433 0.0
H873 H 0.56601 0.72168 0.86887 0.0
H874 H 0.53666 0.68524 0.84044 0.0
H875 H 0.51557 0.6444 0.88076 0.0
H876 H 0.5446 0.60508 0.07641 0.0
H877 H 0.57759 0.63886 0.09469 0.0
C878 C 0.58254 0.68193 1.01353 0.0
C879 C 0.58217 0.70444 0.96929 0.0
C880 C 0.56543 0.6614 0.99874 0.0
C881 C 0.56644 0.70474 0.90455 0.0
C882 C 0.54954 0.68401 0.88853 0.0
C883 C 0.52918 0.64336 0.9273 0.0
C884 C 0.52726 0.62297 0.97895 0.0
C885 C 0.54815 0.66276 0.93715 0.0
C886 C 0.54518 0.6213 0.03808 0.0
C887 C 0.56421 0.64033 0.04782 0.0
H888 H 0.86658 0.61248 0.0168 0.0
H889 H 0.80397 0.57523 0.89459 0.0
H890 H 0.83512 0.54616 0.8328 0.0
H891 H 0.87746 0.52386 0.84249 0.0
H892 H 0.93851 0.55721 0.97928 0.0
H893 H 0.91097 0.59518 1.00759 0.0
C894 C 0.86007 0.59885 0.97369 0.0
C895 C 0.83318 0.59557 0.96096 0.0
C896 C 0.87777 0.58085 0.94353 0.0
C897 C 0.82465 0.57807 0.90509 0.0
C898 C 0.8424 0.56106 0.87101 0.0
C899 C 0.88486 0.54002 0.87617 0.0
C900 C 0.90954 0.53813 0.90951 0.0
C901 C 0.86859 0.56107 0.89418 0.0
C902 C 0.91936 0.55865 0.95357 0.0
C903 C 0.90364 0.58019 0.96973 0.0
H904 H 0.07008 0.16695 0.79659 0.0
H905 H 0.99054 0.18495 0.86363 0.0
H906 H 0.97658 0.14324 0.81857 0.0
H907 H 0.98529 0.10025 0.76429 0.0
H908 H 0.06279 0.08058 0.68999 0.0
H909 H 0.0788 0.12314 0.73678 0.0
C910 C 0.04963 0.1622 0.80232 0.0
C911 C 0.03184 0.18082 0.83506 0.0
C912 C 0.04111 0.13696 0.7763 0.0
C913 C 1.00543 0.17274 0.83918 0.0
C914 C 0.99709 0.14815 0.81354 0.0
C915 C 1.0058 0.10506 0.75835 0.0
C916 C 0.02284 0.08636 0.72583 0.0
C917 C 0.01461 0.13001 0.78276 0.0
C918 C 0.04922 0.09374 0.7174 0.0
C919 C 0.05831 0.11844 0.74339 0.0
H920 H 0.35435 1.00845 0.78899 0.0
H921 H 0.36598 0.09122 0.82031 0.0
H922 H 0.41017 0.08729 0.76966 0.0
H923 H 0.44689 0.05956 0.71696 0.0
H924 H 0.43492 0.97617 0.70483 0.0
H925 H 0.39018 0.98158 0.74258 0.0
C926 C 0.36641 0.02577 0.78577 0.0
C927 C 0.35606 0.05009 0.80925 0.0
C928 C 0.39234 0.02334 0.75847 0.0
C929 C 0.37257 0.07212 0.80201 0.0
C930 C 0.39823 0.06989 0.77325 0.0
C931 C 0.43494 0.0425 0.7252 0.0
C932 C 0.44563 0.01729 0.71101 0.0
C933 C 0.40862 0.04547 0.75171 0.0
C934 C 0.42835 0.99587 0.71692 0.0
C935 C 0.40234 0.99883 0.73889 0.0
H936 H 0.48597 0.34303 0.70486 0.0
H937 H 0.47611 0.3658 0.93571 0.0
H938 H 0.48083 0.41182 0.90278 0.0
H939 H 0.49015 0.44579 0.80927 0.0
H940 H 0.50194 0.42316 0.57908 0.0
H941 H 0.49445 0.37743 0.61031 0.0
C942 C 0.48483 0.35811 0.74777 0.0
C943 C 0.4809 0.35087 0.82292 0.0
C944 C 0.48815 0.38473 0.72848 0.0
C945 C 0.47942 0.37074 0.87773 0.0
C946 C 0.48207 0.39712 0.85883 0.0
C947 C 0.4907 0.43095 0.76567 0.0
C948 C 0.4967 0.43817 0.69159 0.0
C949 C 0.48676 0.40442 0.78452 0.0
C950 C 0.49774 0.41834 0.63651 0.0
C951 C 0.49335 0.39207 0.65444 0.0
H952 H 0.16771 0.45257 0.82327 0.0
H953 H 0.19581 0.5313 0.79395 0.0
H954 H 0.15437 0.54333 0.73687 0.0
H955 H 0.10896 0.53232 0.69754 0.0
H956 H 0.08307 0.45256 0.71437 0.0
H957 H 0.12443 0.44048 0.77211 0.0
C958 C 0.16525 0.47233 0.80358 0.0
C959 C 0.18552 0.49094 0.81539 0.0
C960 C 0.14126 0.47919 0.76835 0.0
C961 C 0.1809 0.51644 0.78897 0.0
C962 C 0.15703 0.52341 0.75515 0.0
C963 C 0.11231 0.51223 0.71331 0.0
C964 C 0.09194 0.49369 0.70379 0.0
C965 C 0.13685 0.50508 0.74514 0.0
C966 C 0.09744 0.46769 0.72365 0.0
C967 C 0.12144 0.46062 0.7562 0.0
H968 H 0.013 0.87157 0.40892 0.0
H969 H 0.95856 0.84566 0.57719 0.0
H970 H 0.95958 0.88856 0.63536 0.0
H971 H 0.97812 0.93364 0.64614 0.0
H972 H 0.03853 0.95583 0.49336 0.0
H973 H 0.03282 0.91514 0.42305 0.0
C974 C 1.0014 0.87475 0.45865 0.0
C975 C 0.98547 0.8542 0.48632 0.0
C976 C 1.00272 0.89973 0.49477 0.0
C977 C 0.97064 0.86024 0.55123 0.0
C978 C 0.97131 0.88517 0.58578 0.0
C979 C 0.98916 0.93008 0.59534 0.0
C980 C 1.0068 0.94958 0.57069 0.0
C981 C 0.9873 0.9052 0.55837 0.0
C982 C 0.02283 0.94291 0.50939 0.0
C983 C 0.02012 0.91904 0.47027 0.0
H984 H 0.66551 0.96551 0.51072 0.0
H985 H 0.69137 0.04573 0.49916 0.0
H986 H 0.64893 0.06056 0.54047 0.0
H987 H 0.60371 0.05208 0.57627 0.0
H988 H 0.5787 0.97323 0.61367 0.0
H989 H 0.62077 0.95683 0.56551 0.0
C990 C 0.66213 0.98627 0.51769 0.0
C991 C 0.68221 1.00431 0.49779 0.0
C992 C 0.63729 0.99508 0.54515 0.0
C993 C 0.67667 0.03106 0.50929 0.0
C994 C 0.65218 0.03974 0.53416 0.0
C995 C 0.60727 0.03122 0.574 0.0
C996 C 0.587 0.01396 0.59443 0.0
C997 C 0.6322 0.02209 0.55103 0.0
C998 C 0.59295 0.98708 0.59398 0.0
C999 C 0.61738 0.97771 0.5675 0.0
H1000 H 0.58178 0.67778 0.53197 0.0
H1001 H 0.50441 0.6907 0.44089 0.0
H1002 H 0.49082 0.64837 0.48475 0.0
H1003 H 0.50063 0.60633 0.54441 0.0
H1004 H 0.57917 0.59024 0.61805 0.0
H1005 H 0.59236 0.63464 0.58466 0.0
C1006 C 0.56197 0.67157 0.52036 0.0
C1007 C 0.54432 0.68858 0.48303 0.0
C1008 C 0.55433 0.64615 0.54263 0.0
C1009 C 0.51862 0.67928 0.4711 0.0
C1010 C 0.51073 0.65457 0.49548 0.0
C1011 C 0.52064 0.61242 0.55321 0.0
C1012 C 0.53884 0.59476 0.58402 0.0
C1013 C 0.52839 0.63772 0.53087 0.0
C1014 C 0.56474 0.60327 0.59429 0.0
C1015 C 0.57229 0.62874 0.57517 0.0
H1016 H 0.85815 0.58268 0.48463 0.0
H1017 H 0.83199 0.50322 0.5102 0.0
H1018 H 0.8743 0.49138 0.56277 0.0
H1019 H 0.9198 0.5028 0.5997 0.0
H1020 H 0.94503 0.5827 0.58111 0.0
H1021 H 0.90273 0.59472 0.52886 0.0
C1022 C 0.8614 0.56278 0.50233 0.0
C1023 C 0.84127 0.54393 0.49166 0.0
C1024 C 0.88612 0.55594 0.53383 0.0
C1025 C 0.84673 0.51826 0.51518 0.0
C1026 C 0.87111 0.51141 0.54615 0.0
C1027 C 0.91613 0.52291 0.58468 0.0
C1028 C 0.93648 0.54155 0.59297 0.0
C1029 C 0.89115 0.52995 0.5553 0.0
C1030 C 0.9306 0.56753 0.57347 0.0
C1031 C 0.90605 0.57456 0.54397 0.0
loop_
_geom_bond_atom_site_label_1
_geom_bond_atom_site_label_2
_geom_bond_distance
_geom_bond_site_symmetry_2
_ccdc_geom_bond_type
C0 C1 1.386 . S
C0 C2 1.397 . S
C0 H24 0.931 1_554 S
C1 C0 1.386 . S
C1 C5 1.397 . S
C2 C0 1.397 . S
C2 C3 1.384 . S
C2 H25 0.930 . S
C3 C2 1.384 . S
C3 C4 1.377 . S
C3 C6 1.481 . S
C4 C3 1.377 . S
C4 C5 1.389 . S
C4 H26 0.929 . S
C5 C1 1.397 . S
C5 C4 1.389 . S
C5 H27 0.931 . S
C6 C3 1.481 . S
C6 C7 1.387 . S
C6 C11 1.390 . S
C7 C6 1.387 . S
C7 C8 1.401 . S
C7 H28 0.930 . S
C8 C7 1.401 . S
C8 C9 1.376 . S
C8 C17 1.511 . S
C9 C8 1.376 . S
C9 C10 1.392 . S
C9 H30 0.931 . S
C10 C9 1.392 . S
C10 C11 1.361 . S
C10 C12 1.500 . S
C11 C6 1.390 . S
C11 C10 1.361 . S
C11 H29 0.931 . S
C12 C10 1.500 . S
C12 C13 1.371 . S
C12 C14 1.365 . S
C13 C12 1.371 . S
C13 C23 1.386 . S
C13 H31 0.931 . S
C14 C12 1.365 . S
C14 C15 1.409 . S
C14 H32 0.929 . S
C15 C14 1.409 . S
C15 C16 1.380 . S
C15 H33 0.930 . S
C16 C15 1.380 . S
C16 C23 1.357 . S
C17 C8 1.511 . S
C17 C18 1.341 . S
C17 C19 1.371 . S
C18 C17 1.341 . S
C18 C22 1.394 . S
C18 H34 0.930 . S
C19 C17 1.371 . S
C19 C20 1.392 . S
C19 H35 0.931 . S
C20 C19 1.392 . S
C20 C21 1.331 . S
C20 H38 0.932 . S
C21 C20 1.331 . S
C21 C22 1.336 . S
C22 C18 1.394 . S
C22 C21 1.336 . S
C22 H37 0.929 . S
C23 C13 1.386 . S
C23 C16 1.357 . S
C23 H36 0.928 . S
H24 C0 0.931 1_556 S
H25 C2 0.930 . S
H26 C4 0.929 . S
H27 C5 0.931 . S
H28 C7 0.930 . S
H29 C11 0.931 . S
H30 C9 0.931 . S
H31 C13 0.931 . S
H32 C14 0.929 . S
H33 C15 0.930 . S
H34 C18 0.930 . S
H35 C19 0.931 . S
H36 C23 0.928 . S
H37 C22 0.929 . S
H38 C20 0.932 . S
C39 C40 1.386 . S
C39 C41 1.397 . S
C39 H63 0.931 1_554 S
C40 C39 1.386 . S
C40 C44 1.397 . S
C41 C39 1.397 . S
C41 C42 1.384 . S
C41 H64 0.930 . S
C42 C41 1.384 . S
C42 C43 1.377 . S
C42 C45 1.481 . S
C43 C42 1.377 . S
C43 C44 1.389 . S
C43 H65 0.929 . S
C44 C40 1.397 . S
C44 C43 1.389 . S
C44 H66 0.931 . S
C45 C42 1.481 . S
C45 C46 1.387 . S
C45 C50 1.390 . S
C46 C45 1.387 . S
C46 C47 1.401 . S
C46 H67 0.930 . S
C47 C46 1.401 . S
C47 C48 1.376 . S
C47 C56 1.511 . S
C48 C47 1.376 . S
C48 C49 1.392 . S
C48 H69 0.931 . S
C49 C48 1.392 . S
C49 C50 1.361 . S
C49 C51 1.500 . S
C50 C45 1.390 . S
C50 C49 1.361 . S
C50 H68 0.931 . S
C51 C49 1.500 . S
C51 C52 1.371 . S
C51 C53 1.365 . S
C52 C51 1.371 . S
C52 C62 1.386 . S
C52 H70 0.931 . S
C53 C51 1.365 . S
C53 C54 1.409 . S
C53 H71 0.929 . S
C54 C53 1.409 . S
C54 C55 1.380 . S
C54 H72 0.930 . S
C55 C54 1.380 . S
C55 C62 1.357 . S
C56 C47 1.511 . S
C56 C57 1.341 . S
C56 C58 1.371 . S
C57 C56 1.341 . S
C57 C61 1.394 . S
C57 H73 0.930 . S
C58 C56 1.371 . S
C58 C59 1.392 . S
C58 H74 0.931 . S
C59 C58 1.392 . S
C59 C60 1.331 . S
C59 H77 0.932 . S
C60 C59 1.331 . S
C60 C61 1.336 . S
C61 C57 1.394 . S
C61 C60 1.336 . S
C61 H76 0.929 . S
C62 C52 1.386 . S
C62 C55 1.357 . S
C62 H75 0.928 . S
H63 C39 0.931 1_556 S
H64 C41 0.930 . S
H65 C43 0.929 . S
H66 C44 0.931 . S
H67 C46 0.930 . S
H68 C50 0.931 . S
H69 C48 0.931 . S
H70 C52 0.931 . S
H71 C53 0.929 . S
H72 C54 0.930 . S
H73 C57 0.930 . S
H74 C58 0.931 . S
H75 C62 0.928 . S
H76 C61 0.929 . S
H77 C59 0.932 . S
C78 C79 1.386 . S
C78 C80 1.397 . S
C78 H102 0.931 1_554 S
C79 C78 1.386 . S
C79 C83 1.397 . S
C80 C78 1.397 . S
C80 C81 1.384 . S
C80 H103 0.930 . S
C81 C80 1.384 . S
C81 C82 1.377 . S
C81 C84 1.481 . S
C82 C81 1.377 . S
C82 C83 1.389 . S
C82 H104 0.929 . S
C83 C79 1.397 . S
C83 C82 1.389 . S
C83 H105 0.931 . S
C84 C81 1.481 . S
C84 C85 1.387 . S
C84 C89 1.390 . S
C85 C84 1.387 . S
C85 C86 1.401 . S
C85 H106 0.930 . S
C86 C85 1.401 . S
C86 C87 1.376 . S
C86 C95 1.511 . S
C87 C86 1.376 . S
C87 C88 1.392 . S
C87 H108 0.931 . S
C88 C87 1.392 . S
C88 C89 1.361 . S
C88 C90 1.500 . S
C89 C84 1.390 . S
C89 C88 1.361 . S
C89 H107 0.931 . S
C90 C88 1.500 . S
C90 C91 1.371 . S
C90 C92 1.365 . S
C91 C90 1.371 . S
C91 C101 1.386 . S
C91 H109 0.931 . S
C92 C90 1.365 . S
C92 C93 1.409 . S
C92 H110 0.929 . S
C93 C92 1.409 . S
C93 C94 1.380 . S
C93 H111 0.930 . S
C94 C93 1.380 . S
C94 C101 1.357 . S
C95 C86 1.511 . S
C95 C96 1.341 . S
C95 C97 1.371 . S
C96 C95 1.341 . S
C96 C100 1.394 . S
C96 H112 0.930 . S
C97 C95 1.371 . S
C97 C98 1.392 . S
C97 H113 0.931 . S
C98 C97 1.392 . S
C98 C99 1.331 . S
C98 H116 0.932 . S
C99 C98 1.331 . S
C99 C100 1.336 . S
C100 C96 1.394 . S
C100 C99 1.336 . S
C100 H115 0.929 . S
C101 C91 1.386 . S
C101 C94 1.357 . S
C101 H114 0.928 . S
H102 C78 0.931 1_556 S
H103 C80 0.930 . S
H104 C82 0.929 . S
H105 C83 0.931 . S
H106 C85 0.930 . S
H107 C89 0.931 . S
H108 C87 0.931 . S
H109 C91 0.931 . S
H110 C92 0.929 . S
H111 C93 0.930 . S
H112 C96 0.930 . S
H113 C97 0.931 . S
H114 C101 0.928 . S
H115 C100 0.929 . S
H116 C98 0.932 . S
C117 C118 1.386 . S
C117 C119 1.397 . S
C117 H141 0.931 . S
C118 C117 1.386 . S
C118 C122 1.397 . S
C119 C117 1.397 . S
C119 C120 1.384 . S
C119 H142 0.930 . S
C120 C119 1.384 . S
C120 C121 1.377 . S
C120 C123 1.481 . S
C121 C120 1.377 . S
C121 C122 1.389 . S
C121 H143 0.929 . S
C122 C118 1.397 . S
C122 C121 1.389 . S
C122 H144 0.931 . S
C123 C120 1.481 . S
C123 C124 1.387 . S
C123 C128 1.390 . S
C124 C123 1.387 . S
C124 C125 1.401 . S
C124 H145 0.930 . S
C125 C124 1.401 . S
C125 C126 1.376 . S
C125 C134 1.511 . S
C126 C125 1.376 . S
C126 C127 1.392 . S
C126 H147 0.931 . S
C127 C126 1.392 . S
C127 C128 1.361 . S
C127 C129 1.500 . S
C128 C123 1.390 . S
C128 C127 1.361 . S
C128 H146 0.931 . S
C129 C127 1.500 . S
C129 C130 1.371 . S
C129 C131 1.365 . S
C130 C129 1.371 . S
C130 C140 1.386 . S
C130 H148 0.931 . S
C131 C129 1.365 . S
C131 C132 1.409 . S
C131 H149 0.929 . S
C132 C131 1.409 . S
C132 C133 1.380 . S
C132 H150 0.930 . S
C133 C132 1.380 . S
C133 C140 1.357 . S
C134 C125 1.511 . S
C134 C135 1.341 . S
C134 C136 1.371 . S
C135 C134 1.341 . S
C135 C139 1.394 . S
C135 H151 0.930 . S
C136 C134 1.371 . S
C136 C137 1.392 . S
C136 H152 0.931 . S
C137 C136 1.392 . S
C137 C138 1.331 . S
C137 H155 0.932 . S
C138 C137 1.331 . S
C138 C139 1.336 . S
C139 C135 1.394 . S
C139 C138 1.336 . S
C139 H154 0.929 . S
C140 C130 1.386 . S
C140 C133 1.357 . S
C140 H153 0.928 1_554 S
H141 C117 0.931 . S
H142 C119 0.930 . S
H143 C121 0.929 . S
H144 C122 0.931 . S
H145 C124 0.930 . S
H146 C128 0.931 . S
H147 C126 0.931 . S
H148 C130 0.931 . S
H149 C131 0.929 . S
H150 C132 0.930 . S
H151 C135 0.930 . S
H152 C136 0.931 . S
H153 C140 0.928 1_556 S
H154 C139 0.929 . S
H155 C137 0.932 . S
C156 C157 1.386 . S
C156 C158 1.397 . S
C156 H180 0.931 . S
C157 C156 1.386 . S
C157 C161 1.397 . S
C158 C156 1.397 . S
C158 C159 1.384 . S
C158 H181 0.930 . S
C159 C158 1.384 . S
C159 C160 1.377 . S
C159 C162 1.481 . S
C160 C159 1.377 . S
C160 C161 1.389 . S
C160 H182 0.929 . S
C161 C157 1.397 . S
C161 C160 1.389 . S
C161 H183 0.931 . S
C162 C159 1.481 . S
C162 C163 1.387 . S
C162 C167 1.390 . S
C163 C162 1.387 . S
C163 C164 1.401 . S
C163 H184 0.930 . S
C164 C163 1.401 . S
C164 C165 1.376 1_554 S
C164 C173 1.511 . S
C165 C164 1.376 1_556 S
C165 C166 1.392 . S
C165 H186 0.931 . S
C166 C165 1.392 . S
C166 C167 1.361 1_556 S
C166 C168 1.500 . S
C167 C162 1.390 . S
C167 C166 1.361 1_554 S
C167 H185 0.931 1_554 S
C168 C166 1.500 . S
C168 C169 1.371 . S
C168 C170 1.365 . S
C169 C168 1.371 . S
C169 C179 1.386 . S
C169 H187 0.931 . S
C170 C168 1.365 . S
C170 C171 1.409 . S
C170 H188 0.929 . S
C171 C170 1.409 . S
C171 C172 1.380 . S
C171 H189 0.930 . S
C172 C171 1.380 . S
C172 C179 1.357 . S
C173 C164 1.511 . S
C173 C174 1.341 . S
C173 C175 1.371 . S
C174 C173 1.341 . S
C174 C178 1.394 . S
C174 H190 0.930 . S
C175 C173 1.371 . S
C175 C176 1.392 . S
C175 H191 0.931 1_554 S
C176 C175 1.392 . S
C176 C177 1.331 . S
C176 H194 0.932 1_554 S
C177 C176 1.331 . S
C177 C178 1.336 . S
C178 C174 1.394 . S
C178 C177 1.336 . S
C178 H193 0.929 . S
C179 C169 1.386 . S
C179 C172 1.357 . S
C179 H192 0.928 . S
H180 C156 0.931 . S
H181 C158 0.930 . S
H182 C160 0.929 . S
H183 C161 0.931 . S
H184 C163 0.930 . S
H185 C167 0.931 1_556 S
H186 C165 0.931 . S
H187 C169 0.931 . S
H188 C170 0.929 . S
H189 C171 0.930 . S
H190 C174 0.930 . S
H191 C175 0.931 1_556 S
H192 C179 0.928 . S
H193 C178 0.929 . S
H194 C176 0.932 1_556 S
C195 C196 1.386 . S
C195 C197 1.397 . S
C195 H219 0.931 . S
C196 C195 1.386 . S
C196 C200 1.397 . S
C197 C195 1.397 . S
C197 C198 1.384 . S
C197 H220 0.930 . S
C198 C197 1.384 . S
C198 C199 1.377 . S
C198 C201 1.481 . S
C199 C198 1.377 . S
C199 C200 1.389 . S
C199 H221 0.929 . S
C200 C196 1.397 . S
C200 C199 1.389 . S
C200 H222 0.931 . S
C201 C198 1.481 . S
C201 C202 1.387 . S
C201 C206 1.390 . S
C202 C201 1.387 . S
C202 C203 1.401 . S
C202 H223 0.930 . S
C203 C202 1.401 . S
C203 C204 1.376 1_554 S
C203 C212 1.511 . S
C204 C203 1.376 1_556 S
C204 C205 1.392 . S
C204 H225 0.931 . S
C205 C204 1.392 . S
C205 C206 1.361 1_556 S
C205 C207 1.500 . S
C206 C201 1.390 . S
C206 C205 1.361 1_554 S
C206 H224 0.931 1_554 S
C207 C205 1.500 . S
C207 C208 1.371 . S
C207 C209 1.365 . S
C208 C207 1.371 . S
C208 C218 1.386 . S
C208 H226 0.931 . S
C209 C207 1.365 . S
C209 C210 1.409 . S
C209 H227 0.929 . S
C210 C209 1.409 . S
C210 C211 1.380 . S
C210 H228 0.930 . S
C211 C210 1.380 . S
C211 C218 1.357 . S
C212 C203 1.511 . S
C212 C213 1.341 . S
C212 C214 1.371 . S
C213 C212 1.341 . S
C213 C217 1.394 . S
C213 H229 0.930 . S
C214 C212 1.371 . S
C214 C215 1.392 . S
C214 H230 0.931 1_554 S
C215 C214 1.392 . S
C215 C216 1.331 . S
C215 H233 0.932 1_554 S
C216 C215 1.331 . S
C216 C217 1.336 . S
C217 C213 1.394 . S
C217 C216 1.336 . S
C217 H232 0.929 . S
C218 C208 1.386 . S
C218 C211 1.357 . S
C218 H231 0.928 . S
H219 C195 0.931 . S
H220 C197 0.930 . S
H221 C199 0.929 . S
H222 C200 0.931 . S
H223 C202 0.930 . S
H224 C206 0.931 1_556 S
H225 C204 0.931 . S
H226 C208 0.931 . S
H227 C209 0.929 . S
H228 C210 0.930 . S
H229 C213 0.930 . S
H230 C214 0.931 1_556 S
H231 C218 0.928 . S
H232 C217 0.929 . S
H233 C215 0.932 1_556 S
C234 C235 1.386 . S
C234 C236 1.397 . S
C234 H258 0.931 . S
C235 C234 1.386 . S
C235 C239 1.397 . S
C236 C234 1.397 . S
C236 C237 1.384 . S
C236 H259 0.930 . S
C237 C236 1.384 . S
C237 C238 1.377 . S
C237 C240 1.481 . S
C238 C237 1.377 . S
C238 C239 1.389 . S
C238 H260 0.929 . S
C239 C235 1.397 . S
C239 C238 1.389 . S
C239 H261 0.931 . S
C240 C237 1.481 . S
C240 C241 1.387 . S
C240 C245 1.390 . S
C241 C240 1.387 . S
C241 C242 1.401 . S
C241 H262 0.930 . S
C242 C241 1.401 . S
C242 C243 1.376 1_554 S
C242 C251 1.511 . S
C243 C242 1.376 1_556 S
C243 C244 1.392 . S
C243 H264 0.931 . S
C244 C243 1.392 . S
C244 C245 1.361 1_556 S
C244 C246 1.500 . S
C245 C240 1.390 . S
C245 C244 1.361 1_554 S
C245 H263 0.931 1_554 S
C246 C244 1.500 . S
C246 C247 1.371 . S
C246 C248 1.365 . S
C247 C246 1.371 . S
C247 C257 1.386 . S
C247 H265 0.931 . S
C248 C246 1.365 . S
C248 C249 1.409 . S
C248 H266 0.929 . S
C249 C248 1.409 . S
C249 C250 1.380 . S
C249 H267 0.930 . S
C250 C249 1.380 . S
C250 C257 1.357 . S
C251 C242 1.511 . S
C251 C252 1.341 . S
C251 C253 1.371 . S
C252 C251 1.341 . S
C252 C256 1.394 . S
C252 H268 0.930 . S
C253 C251 1.371 . S
C253 C254 1.392 . S
C253 H269 0.931 1_554 S
C254 C253 1.392 . S
C254 C255 1.331 . S
C254 H272 0.932 1_554 S
C255 C254 1.331 . S
C255 C256 1.336 . S
C256 C252 1.394 . S
C256 C255 1.336 . S
C256 H271 0.929 . S
C257 C247 1.386 . S
C257 C250 1.357 . S
C257 H270 0.928 . S
H258 C234 0.931 . S
H259 C236 0.930 . S
H260 C238 0.929 . S
H261 C239 0.931 . S
H262 C241 0.930 . S
H263 C245 0.931 1_556 S
H264 C243 0.931 . S
H265 C247 0.931 . S
H266 C248 0.929 . S
H267 C249 0.930 . S
H268 C252 0.930 . S
H269 C253 0.931 1_556 S
H270 C257 0.928 . S
H271 C256 0.929 . S
H272 C254 0.932 1_556 S
C273 C274 1.386 . S
C273 C275 1.397 . S
C273 H297 0.931 . S
C274 C273 1.386 . S
C274 C278 1.397 . S
C275 C273 1.397 . S
C275 C276 1.384 . S
C275 H298 0.930 . S
C276 C275 1.384 . S
C276 C277 1.377 . S
C276 C279 1.481 . S
C277 C276 1.377 . S
C277 C278 1.389 . S
C277 H299 0.929 . S
C278 C274 1.397 . S
C278 C277 1.389 . S
C278 H300 0.931 . S
C279 C276 1.481 . S
C279 C280 1.387 . S
C279 C284 1.390 1_556 S
C280 C279 1.387 . S
C280 C281 1.401 1_556 S
C280 H301 0.930 . S
C281 C280 1.401 1_554 S
C281 C282 1.376 . S
C281 C290 1.511 . S
C282 C281 1.376 . S
C282 C283 1.392 . S
C282 H303 0.931 . S
C283 C282 1.392 . S
C283 C284 1.361 . S
C283 C285 1.500 . S
C284 C279 1.390 1_554 S
C284 C283 1.361 . S
C284 H302 0.931 1_554 S
C285 C283 1.500 . S
C285 C286 1.371 . S
C285 C287 1.365 . S
C286 C285 1.371 . S
C286 C296 1.386 . S
C286 H304 0.931 . S
C287 C285 1.365 . S
C287 C288 1.409 . S
C287 H305 0.929 . S
C288 C287 1.409 . S
C288 C289 1.380 . S
C288 H306 0.930 . S
C289 C288 1.380 . S
C289 C296 1.357 . S
C290 C281 1.511 . S
C290 C291 1.341 . S
C290 C292 1.371 . S
C291 C290 1.341 . S
C291 C295 1.394 . S
C291 H307 0.930 1_554 S
C292 C290 1.371 . S
C292 C293 1.392 . S
C292 H308 0.931 . S
C293 C292 1.392 . S
C293 C294 1.331 . S
C293 H311 0.932 . S
C294 C293 1.331 . S
C294 C295 1.336 . S
C295 C291 1.394 . S
C295 C294 1.336 . S
C295 H310 0.929 1_554 S
C296 C286 1.386 . S
C296 C289 1.357 . S
C296 H309 0.928 . S
H297 C273 0.931 . S
H298 C275 0.930 . S
H299 C277 0.929 . S
H300 C278 0.931 . S
H301 C280 0.930 . S
H302 C284 0.931 1_556 S
H303 C282 0.931 . S
H304 C286 0.931 . S
H305 C287 0.929 . S
H306 C288 0.930 . S
H307 C291 0.930 1_556 S
H308 C292 0.931 . S
H309 C296 0.928 . S
H310 C295 0.929 1_556 S
H311 C293 0.932 . S
Tb312 N343 2.660 1_565 S
Tb312 N350 2.600 . S
Tb312 O356 2.546 . S
Tb312 O357 2.610 1_455 S
Tb312 O359 2.320 1_455 S
Tb312 O360 2.552 . S
Tb312 O361 2.413 . S
Tb312 O363 2.362 1_565 S
Tb312 O364 2.421 . S
Tb312 C376 2.833 . S
C313 C316 1.432 1_545 S
C313 C317 1.414 1_545 S
C313 N320 1.359 . S
C314 C316 1.417 . S
C314 C318 1.432 . S
C314 C326 1.410 . S
C315 C317 1.444 . S
C315 C318 1.317 . S
C315 H338 0.929 . S
C316 C313 1.432 1_565 S
C316 C314 1.417 . S
C316 N324 1.360 . S
C317 C313 1.414 1_565 S
C317 C315 1.444 . S
C317 C322 1.385 1_565 S
C318 C314 1.432 . S
C318 C315 1.317 . S
C318 H330 0.930 . S
C319 C321 1.392 . S
C319 C322 1.370 . S
C319 H331 0.931 . S
N320 C313 1.359 . S
N320 C321 1.327 . S
N320 Tb323 2.600 . S
C321 C319 1.392 . S
C321 N320 1.327 . S
C321 H328 0.930 . S
C322 C317 1.385 1_545 S
C322 C319 1.370 . S
C322 H341 0.930 . S
Tb323 N320 2.600 . S
Tb323 N324 2.660 1_545 S
Tb323 O357 2.362 1_545 S
Tb323 O358 2.421 . S
Tb323 O362 2.546 . S
Tb323 O363 2.610 1_655 S
Tb323 O365 2.320 1_655 S
Tb323 O366 2.552 1_655 S
Tb323 O367 2.413 . S
Tb323 C387 2.833 . S
N324 C316 1.360 . S
N324 Tb323 2.660 1_565 S
N324 C325 1.313 . S
C325 N324 1.313 . S
C325 C327 1.408 . S
C325 H332 0.921 1_655 S
C326 C314 1.410 . S
C326 C327 1.345 . S
C326 H334 0.930 . S
C327 C325 1.408 . S
C327 C326 1.345 . S
C327 H329 0.930 1_655 S
H328 C321 0.930 . S
H329 C327 0.930 1_455 S
H330 C318 0.930 . S
H331 C319 0.931 . S
H332 C325 0.921 1_455 S
H333 C347 0.930 1_655 S
H334 C326 0.930 . S
H335 C353 0.930 . S
H336 C344 0.930 1_655 S
H337 C351 0.931 . S
H338 C315 0.929 . S
H339 C345 0.930 . S
H340 C378 0.930 . S
H341 C322 0.930 . S
H342 C377 0.929 . S
N343 Tb312 2.660 1_545 S
N343 C344 1.305 . S
N343 C348 1.360 . S
C344 H336 0.930 1_455 S
C344 N343 1.305 . S
C344 C347 1.407 . S
C345 H339 0.930 . S
C345 C346 1.410 . S
C345 C347 1.345 . S
C346 C345 1.410 . S
C346 C348 1.417 . S
C346 C378 1.432 . S
C347 H333 0.930 1_455 S
C347 C344 1.407 . S
C347 C345 1.345 . S
C348 N343 1.360 . S
C348 C346 1.417 . S
C348 C352 1.432 . S
H349 C354 0.935 . S
N350 Tb312 2.600 . S
N350 C352 1.359 1_565 S
N350 C353 1.327 . S
C351 H337 0.931 . S
C351 C353 1.392 . S
C351 C354 1.347 1_565 S
C352 C348 1.432 . S
C352 N350 1.359 1_545 S
C352 C355 1.414 . S
C353 H335 0.930 . S
C353 N350 1.327 . S
C353 C351 1.392 . S
C354 H349 0.935 . S
C354 C351 1.347 1_545 S
C354 C355 1.404 . S
C355 C352 1.414 . S
C355 C354 1.404 . S
C355 C377 1.444 . S
O356 Tb312 2.546 . S
O356 C376 1.251 . S
O357 Tb312 2.610 1_655 S
O357 Tb323 2.362 1_565 S
O357 C368 1.283 . S
O358 Tb323 2.421 . S
O358 C375 1.262 . S
O359 Tb312 2.320 1_655 S
O359 C375 1.260 1_565 S
O360 Tb312 2.552 . S
O360 C368 1.243 1_455 S
O361 Tb312 2.413 . S
O361 C376 1.256 . S
O362 Tb323 2.546 . S
O362 C387 1.251 . S
O363 Tb312 2.362 1_545 S
O363 Tb323 2.610 1_455 S
O363 C379 1.283 . S
O364 Tb312 2.421 . S
O364 C386 1.262 1_565 S
O365 Tb323 2.320 1_455 S
O365 C386 1.260 . S
O366 Tb323 2.552 1_455 S
O366 C379 1.243 . S
O367 Tb323 2.413 . S
O367 C387 1.256 . S
C368 O357 1.283 . S
C368 O360 1.243 1_655 S
C369 C371 1.382 . S
C369 C373 1.393 . S
C369 C376 1.500 . S
C370 C371 1.400 . S
C370 C372 1.384 . S
C371 C369 1.382 . S
C371 C370 1.400 . S
C371 H388 0.973 . S
C372 C370 1.384 . S
C372 C374 1.392 . S
C372 H389 0.931 . S
C373 C369 1.393 . S
C373 C374 1.401 . S
C373 H390 0.930 . S
C374 C372 1.392 . S
C374 C373 1.401 . S
C374 H391 0.930 . S
C375 O358 1.262 . S
C375 O359 1.260 1_545 S
C376 Tb312 2.833 . S
C376 O356 1.251 . S
C376 O361 1.256 . S
C376 C369 1.500 . S
C377 H342 0.929 . S
C377 C355 1.444 . S
C377 C378 1.317 . S
C378 H340 0.930 . S
C378 C346 1.432 . S
C378 C377 1.317 . S
C379 O363 1.283 . S
C379 O366 1.243 . S
C380 C381 1.382 . S
C380 C384 1.393 . S
C380 C387 1.500 . S
C381 C380 1.382 . S
C381 C382 1.400 . S
C381 H392 0.930 1_655 S
C382 C381 1.400 . S
C382 C383 1.384 . S
C383 C382 1.384 . S
C383 C385 1.392 . S
C383 H393 0.931 . S
C384 C380 1.393 . S
C384 C385 1.401 . S
C384 H394 0.930 . S
C385 C383 1.392 . S
C385 C384 1.401 . S
C385 H395 0.930 . S
C386 O364 1.262 1_545 S
C386 O365 1.260 . S
C387 Tb323 2.833 . S
C387 O362 1.251 . S
C387 O367 1.256 . S
C387 C380 1.500 . S
H388 C371 0.973 . S
H389 C372 0.931 . S
H390 C373 0.930 . S
H391 C374 0.930 . S
H392 C381 0.930 1_455 S
H393 C383 0.931 . S
H394 C384 0.930 . S
H395 C385 0.930 . S
Tb396 N427 2.660 . S
Tb396 N434 2.600 . S
Tb396 O440 2.546 . S
Tb396 O441 2.610 1_545 S
Tb396 O443 2.320 1_545 S
Tb396 O444 2.552 . S
Tb396 O445 2.413 . S
Tb396 O447 2.362 . S
Tb396 O448 2.421 . S
Tb396 C460 2.833 . S
C397 C400 1.432 . S
C397 C401 1.414 . S
C397 N404 1.359 . S
C398 C400 1.417 . S
C398 C402 1.432 . S
C398 C410 1.410 . S
C399 C401 1.444 . S
C399 C402 1.317 . S
C399 H422 0.929 . S
C400 C397 1.432 . S
C400 C398 1.417 . S
C400 N408 1.360 . S
C401 C397 1.414 . S
C401 C399 1.444 . S
C401 C406 1.385 . S
C402 C398 1.432 . S
C402 C399 1.317 . S
C402 H414 0.930 . S
C403 C405 1.392 . S
C403 C406 1.370 . S
C403 H415 0.931 . S
N404 C397 1.359 . S
N404 C405 1.327 . S
N404 Tb407 2.600 . S
C405 C403 1.392 . S
C405 N404 1.327 . S
C405 H412 0.930 . S
C406 C401 1.385 . S
C406 C403 1.370 . S
C406 H425 0.930 . S
Tb407 N404 2.600 . S
Tb407 N408 2.660 . S
Tb407 O441 2.362 . S
Tb407 O442 2.421 . S
Tb407 O446 2.546 . S
Tb407 O447 2.610 1_565 S
Tb407 O449 2.320 1_565 S
Tb407 O450 2.552 1_565 S
Tb407 O451 2.413 . S
Tb407 C471 2.833 . S
N408 C400 1.360 . S
N408 Tb407 2.660 . S
N408 C409 1.305 1_565 S
C409 N408 1.305 1_545 S
C409 C411 1.407 . S
C409 H416 0.930 . S
C410 C398 1.410 . S
C410 C411 1.345 1_565 S
C410 H418 0.930 . S
C411 C409 1.407 . S
C411 C410 1.345 1_545 S
C411 H413 0.930 . S
H412 C405 0.930 . S
H413 C411 0.930 . S
H414 C402 0.930 . S
H415 C403 0.931 . S
H416 C409 0.930 . S
H417 C431 0.930 1_565 S
H418 C410 0.930 . S
H419 C437 0.930 . S
H420 C428 0.930 1_565 S
H421 C435 0.931 . S
H422 C399 0.929 . S
H423 C429 0.930 . S
H424 C462 0.930 . S
H425 C406 0.930 . S
H426 C461 0.929 . S
N427 Tb396 2.660 . S
N427 C428 1.305 . S
N427 C432 1.360 . S
C428 H420 0.930 1_545 S
C428 N427 1.305 . S
C428 C431 1.407 . S
C429 H423 0.930 . S
C429 C430 1.410 . S
C429 C431 1.345 . S
C430 C429 1.410 . S
C430 C432 1.417 . S
C430 C462 1.432 . S
C431 H417 0.930 1_545 S
C431 C428 1.407 . S
C431 C429 1.345 . S
C432 N427 1.360 . S
C432 C430 1.417 . S
C432 C436 1.432 . S
H433 C438 0.930 . S
N434 Tb396 2.600 . S
N434 C436 1.359 . S
N434 C437 1.327 . S
C435 H421 0.931 . S
C435 C437 1.392 . S
C435 C438 1.370 . S
C436 C432 1.432 . S
C436 N434 1.359 . S
C436 C439 1.414 . S
C437 H419 0.930 . S
C437 N434 1.327 . S
C437 C435 1.392 . S
C438 H433 0.930 . S
C438 C435 1.370 . S
C438 C439 1.385 . S
C439 C436 1.414 . S
C439 C438 1.385 . S
C439 C461 1.444 . S
O440 Tb396 2.546 . S
O440 C460 1.251 . S
O441 Tb396 2.610 1_565 S
O441 Tb407 2.362 . S
O441 C452 1.283 . S
O442 Tb407 2.421 . S
O442 C459 1.262 . S
O443 Tb396 2.320 1_565 S
O443 C459 1.260 . S
O444 Tb396 2.552 . S
O444 C452 1.243 1_545 S
O445 Tb396 2.413 . S
O445 C460 1.256 . S
O446 Tb407 2.546 . S
O446 C471 1.251 . S
O447 Tb396 2.362 . S
O447 Tb407 2.610 1_545 S
O447 C463 1.283 . S
O448 Tb396 2.421 . S
O448 C470 1.262 . S
O449 Tb407 2.320 1_545 S
O449 C470 1.260 . S
O450 Tb407 2.552 1_545 S
O450 C463 1.243 . S
O451 Tb407 2.413 . S
O451 C471 1.256 . S
C452 O441 1.283 . S
C452 O444 1.243 1_565 S
C453 C455 1.382 . S
C453 C457 1.393 . S
C453 C460 1.500 . S
C454 C455 1.400 . S
C454 C456 1.384 . S
C455 C453 1.382 . S
C455 C454 1.400 . S
C455 H472 0.930 . S
C456 C454 1.384 . S
C456 C458 1.392 . S
C456 H473 0.931 . S
C457 C453 1.393 . S
C457 C458 1.401 . S
C457 H474 0.930 . S
C458 C456 1.392 . S
C458 C457 1.401 . S
C458 H475 0.930 . S
C459 O442 1.262 . S
C459 O443 1.260 . S
C460 Tb396 2.833 . S
C460 O440 1.251 . S
C460 O445 1.256 . S
C460 C453 1.500 . S
C461 H426 0.929 . S
C461 C439 1.444 . S
C461 C462 1.317 . S
C462 H424 0.930 . S
C462 C430 1.432 . S
C462 C461 1.317 . S
C463 O447 1.283 . S
C463 O450 1.243 . S
C464 C465 1.382 . S
C464 C468 1.393 . S
C464 C471 1.500 . S
C465 C464 1.382 . S
C465 C466 1.400 . S
C465 H476 0.930 1_565 S
C466 C465 1.400 . S
C466 C467 1.384 . S
C467 C466 1.384 . S
C467 C469 1.392 . S
C467 H477 0.931 . S
C468 C464 1.393 . S
C468 C469 1.401 . S
C468 H478 0.930 . S
C469 C467 1.392 . S
C469 C468 1.401 . S
C469 H479 0.930 . S
C470 O448 1.262 . S
C470 O449 1.260 . S
C471 Tb407 2.833 . S
C471 O446 1.251 . S
C471 O451 1.256 . S
C471 C464 1.500 . S
H472 C455 0.930 . S
H473 C456 0.931 . S
H474 C457 0.930 . S
H475 C458 0.930 . S
H476 C465 0.930 1_545 S
H477 C467 0.931 . S
H478 C468 0.930 . S
H479 C469 0.930 . S
Tb480 N511 2.660 . S
Tb480 N518 2.600 . S
Tb480 O524 2.546 . S
Tb480 O525 2.610 . S
Tb480 O527 2.320 . S
Tb480 O528 2.552 . S
Tb480 O529 2.413 . S
Tb480 O531 2.362 . S
Tb480 O532 2.421 . S
Tb480 C544 2.833 . S
C481 C484 1.432 . S
C481 C485 1.414 . S
C481 N488 1.359 . S
C482 C484 1.417 . S
C482 C486 1.432 . S
C482 C494 1.410 . S
C483 C485 1.444 . S
C483 C486 1.317 . S
C483 H506 0.929 . S
C484 C481 1.432 . S
C484 C482 1.417 . S
C484 N492 1.360 . S
C485 C481 1.414 . S
C485 C483 1.444 . S
C485 C490 1.385 . S
C486 C482 1.432 . S
C486 C483 1.317 . S
C486 H498 0.930 . S
C487 C489 1.392 . S
C487 C490 1.370 . S
C487 H499 0.931 . S
N488 C481 1.359 . S
N488 C489 1.327 . S
N488 Tb491 2.600 . S
C489 C487 1.392 . S
C489 N488 1.327 . S
C489 H496 0.930 . S
C490 C485 1.385 . S
C490 C487 1.370 . S
C490 H509 0.930 . S
Tb491 N488 2.600 . S
Tb491 N492 2.660 . S
Tb491 O525 2.362 . S
Tb491 O526 2.421 . S
Tb491 O530 2.546 . S
Tb491 O531 2.610 . S
Tb491 O533 2.320 . S
Tb491 O534 2.552 . S
Tb491 O535 2.413 . S
Tb491 C555 2.833 . S
N492 C484 1.360 . S
N492 Tb491 2.660 . S
N492 C493 1.305 . S
C493 N492 1.305 . S
C493 C495 1.407 . S
C493 H500 0.930 . S
C494 C482 1.410 . S
C494 C495 1.345 . S
C494 H502 0.930 . S
C495 C493 1.407 . S
C495 C494 1.345 . S
C495 H497 0.930 . S
H496 C489 0.930 . S
H497 C495 0.930 . S
H498 C486 0.930 . S
H499 C487 0.931 . S
H500 C493 0.930 . S
H501 C515 0.930 . S
H502 C494 0.930 . S
H503 C521 0.930 . S
H504 C512 0.930 . S
H505 C519 0.931 . S
H506 C483 0.929 . S
H507 C513 0.930 . S
H508 C546 0.930 . S
H509 C490 0.930 . S
H510 C545 0.929 . S
N511 Tb480 2.660 . S
N511 C512 1.305 . S
N511 C516 1.360 . S
C512 H504 0.930 . S
C512 N511 1.305 . S
C512 C515 1.407 . S
C513 H507 0.930 . S
C513 C514 1.410 . S
C513 C515 1.345 . S
C514 C513 1.410 . S
C514 C516 1.417 . S
C514 C546 1.432 . S
C515 H501 0.930 . S
C515 C512 1.407 . S
C515 C513 1.345 . S
C516 N511 1.360 . S
C516 C514 1.417 . S
C516 C520 1.432 . S
H517 C522 0.930 . S
N518 Tb480 2.600 . S
N518 C520 1.359 . S
N518 C521 1.327 . S
C519 H505 0.931 . S
C519 C521 1.392 . S
C519 C522 1.370 . S
C520 C516 1.432 . S
C520 N518 1.359 . S
C520 C523 1.414 . S
C521 H503 0.930 . S
C521 N518 1.327 . S
C521 C519 1.392 . S
C522 H517 0.930 . S
C522 C519 1.370 . S
C522 C523 1.385 . S
C523 C520 1.414 . S
C523 C522 1.385 . S
C523 C545 1.444 . S
O524 Tb480 2.546 . S
O524 C544 1.251 . S
O525 Tb480 2.610 . S
O525 Tb491 2.362 . S
O525 C536 1.283 . S
O526 Tb491 2.421 . S
O526 C543 1.262 . S
O527 Tb480 2.320 . S
O527 C543 1.260 . S
O528 Tb480 2.552 . S
O528 C536 1.243 . S
O529 Tb480 2.413 . S
O529 C544 1.256 . S
O530 Tb491 2.546 . S
O530 C555 1.251 . S
O531 Tb480 2.362 . S
O531 Tb491 2.610 . S
O531 C547 1.283 . S
O532 Tb480 2.421 . S
O532 C554 1.262 . S
O533 Tb491 2.320 . S
O533 C554 1.260 . S
O534 Tb491 2.552 . S
O534 C547 1.243 . S
O535 Tb491 2.413 . S
O535 C555 1.256 . S
C536 O525 1.283 . S
C536 O528 1.243 . S
C537 C539 1.382 . S
C537 C541 1.393 . S
C537 C544 1.500 . S
C538 C539 1.400 . S
C538 C540 1.384 . S
C539 C537 1.382 . S
C539 C538 1.400 . S
C539 H556 0.930 . S
C540 C538 1.384 . S
C540 C542 1.392 . S
C540 H557 0.931 . S
C541 C537 1.393 . S
C541 C542 1.401 . S
C541 H558 0.930 . S
C542 C540 1.392 . S
C542 C541 1.401 . S
C542 H559 0.930 . S
C543 O526 1.262 . S
C543 O527 1.260 . S
C544 Tb480 2.833 . S
C544 O524 1.251 . S
C544 O529 1.256 . S
C544 C537 1.500 . S
C545 H510 0.929 . S
C545 C523 1.444 . S
C545 C546 1.317 . S
C546 H508 0.930 . S
C546 C514 1.432 . S
C546 C545 1.317 . S
C547 O531 1.283 . S
C547 O534 1.243 . S
C548 C549 1.382 . S
C548 C552 1.393 . S
C548 C555 1.500 . S
C549 C548 1.382 . S
C549 C550 1.400 . S
C549 H560 0.930 . S
C550 C549 1.400 . S
C550 C551 1.384 . S
C551 C550 1.384 . S
C551 C553 1.392 . S
C551 H561 0.931 1_556 S
C552 C548 1.393 . S
C552 C553 1.401 . S
C552 H562 0.930 . S
C553 C551 1.392 . S
C553 C552 1.401 . S
C553 H563 0.930 1_556 S
C554 O532 1.262 . S
C554 O533 1.260 . S
C555 Tb491 2.833 . S
C555 O530 1.251 . S
C555 O535 1.256 . S
C555 C548 1.500 . S
H556 C539 0.930 . S
H557 C540 0.931 . S
H558 C541 0.930 . S
H559 C542 0.930 . S
H560 C549 0.930 . S
H561 C551 0.931 1_554 S
H562 C552 0.930 . S
H563 C553 0.930 1_554 S
Tb564 N595 2.660 . S
Tb564 N602 2.600 . S
Tb564 O608 2.546 . S
Tb564 O609 2.610 . S
Tb564 O611 2.320 . S
Tb564 O612 2.552 . S
Tb564 O613 2.413 . S
Tb564 O615 2.361 1_455 S
Tb564 O616 2.421 1_455 S
Tb564 C628 2.833 . S
C565 C568 1.432 . S
C565 C569 1.414 . S
C565 N572 1.359 . S
C566 C568 1.417 . S
C566 C570 1.432 . S
C566 C578 1.410 . S
C567 C569 1.444 . S
C567 C570 1.317 . S
C567 H590 0.929 . S
C568 C565 1.432 . S
C568 C566 1.417 . S
C568 N576 1.360 . S
C569 C565 1.414 . S
C569 C567 1.444 . S
C569 C574 1.385 . S
C570 C566 1.432 . S
C570 C567 1.317 . S
C570 H582 0.930 . S
C571 C573 1.392 . S
C571 C574 1.370 1_455 S
C571 H583 0.931 . S
N572 C565 1.359 . S
N572 C573 1.327 1_655 S
N572 Tb575 2.600 . S
C573 C571 1.392 . S
C573 N572 1.327 1_455 S
C573 H580 0.930 . S
C574 C569 1.385 . S
C574 C571 1.370 1_655 S
C574 H593 0.928 1_655 S
Tb575 N572 2.600 . S
Tb575 N576 2.660 . S
Tb575 O609 2.362 1_655 S
Tb575 O610 2.421 1_655 S
Tb575 O614 2.546 . S
Tb575 O615 2.610 . S
Tb575 O617 2.320 . S
Tb575 O618 2.552 . S
Tb575 O619 2.413 . S
Tb575 C639 2.833 . S
N576 C568 1.360 . S
N576 Tb575 2.660 . S
N576 C577 1.305 . S
C577 N576 1.305 . S
C577 C579 1.407 . S
C577 H584 0.930 . S
C578 C566 1.410 . S
C578 C579 1.345 . S
C578 H586 0.930 . S
C579 C577 1.407 . S
C579 C578 1.345 . S
C579 H581 0.930 . S
H580 C573 0.930 . S
H581 C579 0.930 . S
H582 C570 0.930 . S
H583 C571 0.931 . S
H584 C577 0.930 . S
H585 C599 0.930 . S
H586 C578 0.930 . S
H587 C605 0.912 1_655 S
H588 C596 0.930 . S
H589 C603 0.931 . S
H590 C567 0.929 . S
H591 C597 0.930 . S
H592 C630 0.930 . S
H593 C574 0.928 1_455 S
H594 C629 0.929 . S
N595 Tb564 2.660 . S
N595 C596 1.305 . S
N595 C600 1.360 . S
C596 H588 0.930 . S
C596 N595 1.305 . S
C596 C599 1.407 . S
C597 H591 0.930 . S
C597 C598 1.410 . S
C597 C599 1.345 . S
C598 C597 1.410 . S
C598 C600 1.417 . S
C598 C630 1.432 . S
C599 H585 0.930 . S
C599 C596 1.407 . S
C599 C597 1.345 . S
C600 N595 1.360 . S
C600 C598 1.417 . S
C600 C604 1.432 . S
H601 C606 0.930 . S
N602 Tb564 2.600 . S
N602 C604 1.359 . S
N602 C605 1.348 . S
C603 H589 0.931 . S
C603 C605 1.389 1_655 S
C603 C606 1.370 1_655 S
C604 C600 1.432 . S
C604 N602 1.359 . S
C604 C607 1.414 . S
C605 H587 0.912 1_455 S
C605 N602 1.348 . S
C605 C603 1.389 1_455 S
C606 H601 0.930 . S
C606 C603 1.370 1_455 S
C606 C607 1.385 . S
C607 C604 1.414 . S
C607 C606 1.385 . S
C607 C629 1.444 . S
O608 Tb564 2.546 . S
O608 C628 1.251 . S
O609 Tb564 2.610 . S
O609 Tb575 2.362 1_455 S
O609 C620 1.283 . S
O610 Tb575 2.421 1_455 S
O610 C627 1.262 . S
O611 Tb564 2.320 . S
O611 C627 1.260 . S
O612 Tb564 2.552 . S
O612 C620 1.243 . S
O613 Tb564 2.413 . S
O613 C628 1.256 . S
O614 Tb575 2.546 . S
O614 C639 1.251 . S
O615 Tb564 2.361 1_655 S
O615 Tb575 2.610 . S
O615 C631 1.283 . S
O616 Tb564 2.421 1_655 S
O616 C638 1.262 . S
O617 Tb575 2.320 . S
O617 C638 1.260 . S
O618 Tb575 2.552 . S
O618 C631 1.243 . S
O619 Tb575 2.413 . S
O619 C639 1.256 . S
C620 O609 1.283 . S
C620 O612 1.243 . S
C621 C623 1.382 . S
C621 C625 1.393 . S
C621 C628 1.500 . S
C622 C623 1.400 . S
C622 C624 1.384 . S
C623 C621 1.382 . S
C623 C622 1.400 . S
C623 H640 0.930 . S
C624 C622 1.384 . S
C624 C626 1.392 . S
C624 H641 0.931 . S
C625 C621 1.393 . S
C625 C626 1.401 . S
C625 H642 0.930 . S
C626 C624 1.392 . S
C626 C625 1.401 . S
C626 H643 0.930 . S
C627 O610 1.262 . S
C627 O611 1.260 . S
C628 Tb564 2.833 . S
C628 O608 1.251 . S
C628 O613 1.256 . S
C628 C621 1.500 . S
C629 H594 0.929 . S
C629 C607 1.444 . S
C629 C630 1.317 . S
C630 H592 0.930 . S
C630 C598 1.432 . S
C630 C629 1.317 . S
C631 O615 1.283 . S
C631 O618 1.243 . S
C632 C633 1.382 . S
C632 C636 1.393 . S
C632 C639 1.500 . S
C633 C632 1.382 . S
C633 C634 1.400 . S
C633 H644 0.930 . S
C634 C633 1.400 . S
C634 C635 1.384 . S
C635 C634 1.384 . S
C635 C637 1.392 . S
C635 H645 0.931 1_556 S
C636 C632 1.393 . S
C636 C637 1.401 . S
C636 H646 0.930 . S
C637 C635 1.392 . S
C637 C636 1.401 . S
C637 H647 0.930 1_556 S
C638 O616 1.262 . S
C638 O617 1.260 . S
C639 Tb575 2.833 . S
C639 O614 1.251 . S
C639 O619 1.256 . S
C639 C632 1.500 . S
H640 C623 0.930 . S
H641 C624 0.931 . S
H642 C625 0.930 . S
H643 C626 0.930 . S
H644 C633 0.930 . S
H645 C635 0.931 1_554 S
H646 C636 0.930 . S
H647 C637 0.930 1_554 S
H648 C654 0.930 . S
H649 C657 0.930 . S
H650 C658 0.930 1_565 S
H651 C659 0.930 1_565 S
H652 C662 0.930 . S
H653 C663 0.930 . S
C654 H648 0.930 . S
C654 C655 1.355 . S
C654 C656 1.415 . S
C655 C654 1.355 . S
C655 C657 1.419 . S
C656 C654 1.415 . S
C656 C661 1.425 . S
C656 C663 1.409 . S
C657 H649 0.930 . S
C657 C655 1.419 . S
C657 C658 1.362 . S
C658 H650 0.930 1_545 S
C658 C657 1.362 . S
C658 C661 1.409 . S
C659 H651 0.930 1_545 S
C659 C660 1.355 . S
C659 C661 1.415 . S
C660 C659 1.355 . S
C660 C662 1.419 . S
C661 C656 1.425 . S
C661 C658 1.409 . S
C661 C659 1.415 . S
C662 H652 0.930 . S
C662 C660 1.419 . S
C662 C663 1.362 . S
C663 H653 0.930 . S
C663 C656 1.409 . S
C663 C662 1.362 . S
H664 C670 0.930 . S
H665 C673 0.930 . S
H666 C674 0.930 . S
H667 C675 0.930 . S
H668 C678 0.930 . S
H669 C679 0.930 . S
C670 H664 0.930 . S
C670 C671 1.355 . S
C670 C672 1.415 . S
C671 C670 1.355 . S
C671 C673 1.419 . S
C672 C670 1.415 . S
C672 C677 1.425 . S
C672 C679 1.409 . S
C673 H665 0.930 . S
C673 C671 1.419 . S
C673 C674 1.362 . S
C674 H666 0.930 . S
C674 C673 1.362 . S
C674 C677 1.409 . S
C675 H667 0.930 . S
C675 C676 1.355 . S
C675 C677 1.415 . S
C676 C675 1.355 . S
C676 C678 1.419 . S
C677 C672 1.425 . S
C677 C674 1.409 . S
C677 C675 1.415 . S
C678 H668 0.930 . S
C678 C676 1.419 . S
C678 C679 1.362 . S
C679 H669 0.930 . S
C679 C672 1.409 . S
C679 C678 1.362 . S
H680 C686 0.930 . S
H681 C689 0.930 . S
H682 C690 0.930 . S
H683 C691 0.930 . S
H684 C694 0.930 . S
H685 C695 0.930 . S
C686 H680 0.930 . S
C686 C687 1.355 . S
C686 C688 1.415 . S
C687 C686 1.355 . S
C687 C689 1.419 . S
C688 C686 1.415 . S
C688 C693 1.425 . S
C688 C695 1.409 . S
C689 H681 0.930 . S
C689 C687 1.419 . S
C689 C690 1.362 . S
C690 H682 0.930 . S
C690 C689 1.362 . S
C690 C693 1.409 . S
C691 H683 0.930 . S
C691 C692 1.355 . S
C691 C693 1.415 . S
C692 C691 1.355 . S
C692 C694 1.419 . S
C693 C688 1.425 . S
C693 C690 1.409 . S
C693 C691 1.415 . S
C694 H684 0.930 . S
C694 C692 1.419 . S
C694 C695 1.362 . S
C695 H685 0.930 . S
C695 C688 1.409 . S
C695 C694 1.362 . S
H696 C702 0.930 . S
H697 C705 0.930 . S
H698 C706 0.930 . S
H699 C707 0.930 . S
H700 C710 0.930 1_655 S
H701 C711 0.930 1_655 S
C702 H696 0.930 . S
C702 C703 1.355 . S
C702 C704 1.415 . S
C703 C702 1.355 . S
C703 C705 1.419 . S
C704 C702 1.415 . S
C704 C709 1.425 . S
C704 C711 1.409 . S
C705 H697 0.930 . S
C705 C703 1.419 . S
C705 C706 1.362 . S
C706 H698 0.930 . S
C706 C705 1.362 . S
C706 C709 1.409 . S
C707 H699 0.930 . S
C707 C708 1.355 . S
C707 C709 1.415 . S
C708 C707 1.355 . S
C708 C710 1.419 . S
C709 C704 1.425 . S
C709 C706 1.409 . S
C709 C707 1.415 . S
C710 H700 0.930 1_455 S
C710 C708 1.419 . S
C710 C711 1.362 . S
C711 H701 0.930 1_455 S
C711 C704 1.409 . S
C711 C710 1.362 . S
H712 C718 0.930 . S
H713 C721 0.930 . S
H714 C722 0.930 . S
H715 C723 0.930 . S
H716 C726 0.930 . S
H717 C727 0.930 . S
C718 H712 0.930 . S
C718 C719 1.355 . S
C718 C720 1.415 1_554 S
C719 C718 1.355 . S
C719 C721 1.419 . S
C720 C718 1.415 1_556 S
C720 C725 1.425 . S
C720 C727 1.409 . S
C721 H713 0.930 . S
C721 C719 1.419 . S
C721 C722 1.362 . S
C722 H714 0.930 . S
C722 C721 1.362 . S
C722 C725 1.409 1_554 S
C723 H715 0.930 . S
C723 C724 1.355 . S
C723 C725 1.415 . S
C724 C723 1.355 . S
C724 C726 1.419 . S
C725 C720 1.425 . S
C725 C722 1.409 1_556 S
C725 C723 1.415 . S
C726 H716 0.930 . S
C726 C724 1.419 . S
C726 C727 1.362 . S
C727 H717 0.930 . S
C727 C720 1.409 . S
C727 C726 1.362 . S
H728 C734 0.930 . S
H729 C737 0.930 . S
H730 C738 0.930 . S
H731 C739 0.930 . S
H732 C742 0.930 . S
H733 C743 0.930 . S
C734 H728 0.930 . S
C734 C735 1.355 . S
C734 C736 1.415 1_554 S
C735 C734 1.355 . S
C735 C737 1.419 . S
C736 C734 1.415 1_556 S
C736 C741 1.425 . S
C736 C743 1.409 . S
C737 H729 0.930 . S
C737 C735 1.419 . S
C737 C738 1.362 1_554 S
C738 H730 0.930 . S
C738 C737 1.362 1_556 S
C738 C741 1.409 . S
C739 H731 0.930 . S
C739 C740 1.355 . S
C739 C741 1.415 . S
C740 C739 1.355 . S
C740 C742 1.419 . S
C741 C736 1.425 . S
C741 C738 1.409 . S
C741 C739 1.415 . S
C742 H732 0.930 . S
C742 C740 1.419 . S
C742 C743 1.362 . S
C743 H733 0.930 . S
C743 C736 1.409 . S
C743 C742 1.362 . S
H744 C750 0.930 . S
H745 C753 0.930 . S
H746 C754 0.930 . S
H747 C755 0.930 . S
H748 C758 0.930 . S
H749 C759 0.930 . S
C750 H744 0.930 . S
C750 C751 1.355 . S
C750 C752 1.415 1_554 S
C751 C750 1.355 . S
C751 C753 1.419 . S
C752 C750 1.415 1_556 S
C752 C757 1.425 . S
C752 C759 1.409 . S
C753 H745 0.930 . S
C753 C751 1.419 . S
C753 C754 1.362 1_554 S
C754 H746 0.930 . S
C754 C753 1.362 1_556 S
C754 C757 1.409 . S
C755 H747 0.930 . S
C755 C756 1.355 . S
C755 C757 1.415 . S
C756 C755 1.355 . S
C756 C758 1.419 . S
C757 C752 1.425 . S
C757 C754 1.409 . S
C757 C755 1.415 . S
C758 H748 0.930 . S
C758 C756 1.419 . S
C758 C759 1.362 . S
C759 H749 0.930 . S
C759 C752 1.409 . S
C759 C758 1.362 . S
H760 C766 0.930 . S
H761 C769 0.930 . S
H762 C770 0.930 . S
H763 C771 0.930 . S
H764 C774 0.930 . S
H765 C775 0.895 1_455 S
C766 H760 0.930 . S
C766 C767 1.355 . S
C766 C768 1.415 1_554 S
C767 C766 1.355 . S
C767 C769 1.419 . S
C768 C766 1.415 1_556 S
C768 C773 1.425 . S
C768 C775 1.450 . S
C769 H761 0.930 . S
C769 C767 1.419 . S
C769 C770 1.362 1_554 S
C770 H762 0.930 . S
C770 C769 1.362 1_556 S
C770 C773 1.409 . S
C771 H763 0.930 . S
C771 C772 1.355 . S
C771 C773 1.415 . S
C772 C771 1.355 . S
C772 C774 1.419 1_655 S
C773 C768 1.425 . S
C773 C770 1.409 . S
C773 C771 1.415 . S
C774 H764 0.930 . S
C774 C772 1.419 1_455 S
C774 C775 1.357 1_455 S
C775 H765 0.895 1_655 S
C775 C768 1.450 . S
C775 C774 1.357 1_655 S
H776 C782 0.930 . S
H777 C785 0.930 . S
H778 C786 0.930 . S
H779 C787 0.930 1_655 S
H780 C790 0.930 . S
H781 C791 0.930 . S
C782 H776 0.930 . S
C782 C783 1.355 . S
C782 C784 1.415 . S
C783 C782 1.355 . S
C783 C785 1.419 . S
C784 C782 1.415 . S
C784 C789 1.425 . S
C784 C791 1.409 . S
C785 H777 0.930 . S
C785 C783 1.419 . S
C785 C786 1.362 . S
C786 H778 0.930 . S
C786 C785 1.362 . S
C786 C789 1.409 . S
C787 H779 0.930 1_455 S
C787 C788 1.355 . S
C787 C789 1.415 . S
C788 C787 1.355 . S
C788 C790 1.419 . S
C789 C784 1.425 . S
C789 C786 1.409 . S
C789 C787 1.415 . S
C790 H780 0.930 . S
C790 C788 1.419 . S
C790 C791 1.362 . S
C791 H781 0.930 . S
C791 C784 1.409 . S
C791 C790 1.362 . S
H792 C798 0.930 . S
H793 C801 0.930 . S
H794 C802 0.930 . S
H795 C803 0.930 . S
H796 C806 0.930 1_565 S
H797 C807 0.930 . S
C798 H792 0.930 . S
C798 C799 1.355 . S
C798 C800 1.415 . S
C799 C798 1.355 . S
C799 C801 1.419 . S
C800 C798 1.415 . S
C800 C805 1.425 . S
C800 C807 1.409 . S
C801 H793 0.930 . S
C801 C799 1.419 . S
C801 C802 1.362 . S
C802 H794 0.930 . S
C802 C801 1.362 . S
C802 C805 1.409 . S
C803 H795 0.930 . S
C803 C804 1.333 1_545 S
C803 C805 1.415 . S
C804 C803 1.333 1_565 S
C804 C806 1.416 1_565 S
C805 C800 1.425 . S
C805 C802 1.409 . S
C805 C803 1.415 . S
C806 H796 0.930 1_545 S
C806 C804 1.416 1_545 S
C806 C807 1.362 . S
C807 H797 0.930 . S
C807 C800 1.409 . S
C807 C806 1.362 . S
H808 C814 0.930 . S
H809 C817 0.930 . S
H810 C818 0.930 . S
H811 C819 0.930 . S
H812 C822 0.930 . S
H813 C823 0.930 . S
C814 H808 0.930 . S
C814 C815 1.355 . S
C814 C816 1.415 . S
C815 C814 1.355 . S
C815 C817 1.419 . S
C816 C814 1.415 . S
C816 C821 1.425 . S
C816 C823 1.409 . S
C817 H809 0.930 . S
C817 C815 1.419 . S
C817 C818 1.362 . S
C818 H810 0.930 . S
C818 C817 1.362 . S
C818 C821 1.409 . S
C819 H811 0.930 . S
C819 C820 1.355 . S
C819 C821 1.415 . S
C820 C819 1.355 . S
C820 C822 1.419 . S
C821 C816 1.425 . S
C821 C818 1.409 . S
C821 C819 1.415 . S
C822 H812 0.930 . S
C822 C820 1.419 . S
C822 C823 1.362 . S
C823 H813 0.930 . S
C823 C816 1.409 . S
C823 C822 1.362 . S
H824 C830 0.930 . S
H825 C833 0.930 . S
H826 C834 0.930 . S
H827 C835 0.930 . S
H828 C838 0.930 . S
H829 C839 0.930 . S
C830 H824 0.930 . S
C830 C831 1.355 . S
C830 C832 1.415 . S
C831 C830 1.355 . S
C831 C833 1.419 . S
C832 C830 1.415 . S
C832 C837 1.425 . S
C832 C839 1.409 . S
C833 H825 0.930 . S
C833 C831 1.419 . S
C833 C834 1.362 . S
C834 H826 0.930 . S
C834 C833 1.362 . S
C834 C837 1.409 . S
C835 H827 0.930 . S
C835 C836 1.355 . S
C835 C837 1.415 . S
C836 C835 1.355 . S
C836 C838 1.419 . S
C837 C832 1.425 . S
C837 C834 1.409 . S
C837 C835 1.415 . S
C838 H828 0.930 . S
C838 C836 1.419 . S
C838 C839 1.362 . S
C839 H829 0.930 . S
C839 C832 1.409 . S
C839 C838 1.362 . S
H840 C846 0.930 . S
H841 C849 0.930 . S
H842 C850 0.930 . S
H843 C851 0.930 . S
H844 C854 0.930 . S
H845 C855 0.930 . S
C846 H840 0.930 . S
C846 C847 1.355 1_554 S
C846 C848 1.415 1_554 S
C847 C846 1.355 1_556 S
C847 C849 1.419 . S
C848 C846 1.415 1_556 S
C848 C853 1.425 . S
C848 C855 1.409 1_656 S
C849 H841 0.930 . S
C849 C847 1.419 . S
C849 C850 1.362 . S
C850 H842 0.930 . S
C850 C849 1.362 . S
C850 C853 1.409 . S
C851 H843 0.930 . S
C851 C852 1.355 1_655 S
C851 C853 1.415 . S
C852 C851 1.355 1_455 S
C852 C854 1.419 . S
C853 C848 1.425 . S
C853 C850 1.409 . S
C853 C851 1.415 . S
C854 H844 0.930 . S
C854 C852 1.419 . S
C854 C855 1.362 1_556 S
C855 H845 0.930 . S
C855 C848 1.409 1_454 S
C855 C854 1.362 1_554 S
H856 C862 0.930 . S
H857 C865 0.930 . S
H858 C866 0.930 . S
H859 C867 0.930 . S
H860 C870 0.930 1_554 S
H861 C871 0.930 . S
C862 H856 0.930 . S
C862 C863 1.355 1_554 S
C862 C864 1.415 1_554 S
C863 C862 1.355 1_556 S
C863 C865 1.419 . S
C864 C862 1.415 1_556 S
C864 C869 1.425 . S
C864 C871 1.409 1_556 S
C865 H857 0.930 . S
C865 C863 1.419 . S
C865 C866 1.362 . S
C866 H858 0.930 . S
C866 C865 1.362 . S
C866 C869 1.409 . S
C867 H859 0.930 . S
C867 C868 1.355 . S
C867 C869 1.415 1_545 S
C868 C867 1.355 . S
C868 C870 1.419 . S
C869 C864 1.425 . S
C869 C866 1.409 . S
C869 C867 1.415 1_565 S
C870 H860 0.930 1_556 S
C870 C868 1.419 . S
C870 C871 1.362 1_546 S
C871 H861 0.930 . S
C871 C864 1.409 1_554 S
C871 C870 1.362 1_564 S
H872 C878 0.930 1_554 S
H873 C881 0.930 . S
H874 C882 0.930 . S
H875 C883 0.930 . S
H876 C886 0.930 . S
H877 C887 0.936 . S
C878 H872 0.930 1_556 S
C878 C879 1.355 . S
C878 C880 1.415 . S
C879 C878 1.355 . S
C879 C881 1.419 . S
C880 C878 1.415 . S
C880 C885 1.425 . S
C880 C887 1.409 . S
C881 H873 0.930 . S
C881 C879 1.419 . S
C881 C882 1.362 . S
C882 H874 0.930 . S
C882 C881 1.362 . S
C882 C885 1.409 . S
C883 H875 0.930 . S
C883 C884 1.355 . S
C883 C885 1.415 . S
C884 C883 1.355 . S
C884 C886 1.419 . S
C885 C880 1.425 . S
C885 C882 1.409 . S
C885 C883 1.415 . S
C886 H876 0.930 . S
C886 C884 1.419 . S
C886 C887 1.362 . S
C887 H877 0.936 . S
C887 C880 1.409 . S
C887 C886 1.362 . S
H888 C894 0.930 . S
H889 C897 0.930 . S
H890 C898 0.930 . S
H891 C899 0.930 . S
H892 C902 0.930 1_554 S
H893 C903 0.930 . S
C894 H888 0.930 . S
C894 C895 1.355 1_554 S
C894 C896 1.415 1_554 S
C895 C894 1.355 1_556 S
C895 C897 1.419 . S
C896 C894 1.415 1_556 S
C896 C901 1.425 . S
C896 C903 1.409 1_556 S
C897 H889 0.930 . S
C897 C895 1.419 . S
C897 C898 1.362 . S
C898 H890 0.930 . S
C898 C897 1.362 . S
C898 C901 1.409 . S
C899 H891 0.930 . S
C899 C900 1.355 . S
C899 C901 1.415 . S
C900 C899 1.355 . S
C900 C902 1.419 . S
C901 C896 1.425 . S
C901 C898 1.409 . S
C901 C899 1.415 . S
C902 H892 0.930 1_556 S
C902 C900 1.419 . S
C902 C903 1.362 1_556 S
C903 H893 0.930 . S
C903 C896 1.409 1_554 S
C903 C902 1.362 1_554 S
H904 C910 0.930 . S
H905 C913 0.930 . S
H906 C914 0.930 . S
H907 C915 0.930 . S
H908 C918 0.930 . S
H909 C919 0.930 . S
C910 H904 0.930 . S
C910 C911 1.355 . S
C910 C912 1.415 . S
C911 C910 1.355 . S
C911 C913 1.419 . S
C912 C910 1.415 . S
C912 C917 1.425 . S
C912 C919 1.409 . S
C913 H905 0.930 . S
C913 C911 1.419 . S
C913 C914 1.362 . S
C914 H906 0.930 . S
C914 C913 1.362 . S
C914 C917 1.409 . S
C915 H907 0.930 . S
C915 C916 1.355 . S
C915 C917 1.415 . S
C916 C915 1.355 . S
C916 C918 1.419 . S
C917 C912 1.425 . S
C917 C914 1.409 . S
C917 C915 1.415 . S
C918 H908 0.930 . S
C918 C916 1.419 . S
C918 C919 1.362 . S
C919 H909 0.930 . S
C919 C912 1.409 . S
C919 C918 1.362 . S
H920 C926 0.930 . S
H921 C929 0.930 . S
H922 C930 0.930 . S
H923 C931 0.930 . S
H924 C934 0.930 1_565 S
H925 C935 0.930 1_565 S
C926 H920 0.930 . S
C926 C927 1.355 . S
C926 C928 1.415 . S
C927 C926 1.355 . S
C927 C929 1.419 . S
C928 C926 1.415 . S
C928 C933 1.425 . S
C928 C935 1.409 . S
C929 H921 0.930 . S
C929 C927 1.419 . S
C929 C930 1.362 . S
C930 H922 0.930 . S
C930 C929 1.362 . S
C930 C933 1.409 . S
C931 H923 0.930 . S
C931 C932 1.355 . S
C931 C933 1.415 . S
C932 C931 1.355 . S
C932 C934 1.419 . S
C933 C928 1.425 . S
C933 C930 1.409 . S
C933 C931 1.415 . S
C934 H924 0.930 1_545 S
C934 C932 1.419 . S
C934 C935 1.362 . S
C935 H925 0.930 1_545 S
C935 C928 1.409 . S
C935 C934 1.362 . S
H936 C942 0.930 . S
H937 C945 0.930 . S
H938 C946 0.930 . S
H939 C947 0.930 . S
H940 C950 0.930 . S
H941 C951 0.930 . S
C942 H936 0.930 . S
C942 C943 1.355 . S
C942 C944 1.415 . S
C943 C942 1.355 . S
C943 C945 1.419 . S
C944 C942 1.415 . S
C944 C949 1.425 . S
C944 C951 1.409 . S
C945 H937 0.930 . S
C945 C943 1.419 . S
C945 C946 1.362 . S
C946 H938 0.930 . S
C946 C945 1.362 . S
C946 C949 1.409 . S
C947 H939 0.930 . S
C947 C948 1.355 . S
C947 C949 1.415 . S
C948 C947 1.355 . S
C948 C950 1.419 . S
C949 C944 1.425 . S
C949 C946 1.409 . S
C949 C947 1.415 . S
C950 H940 0.930 . S
C950 C948 1.419 . S
C950 C951 1.362 . S
C951 H941 0.930 . S
C951 C944 1.409 . S
C951 C950 1.362 . S
H952 C958 0.930 . S
H953 C961 0.930 . S
H954 C962 0.930 . S
H955 C963 0.930 . S
H956 C966 0.930 . S
H957 C967 0.930 . S
C958 H952 0.930 . S
C958 C959 1.355 . S
C958 C960 1.415 . S
C959 C958 1.355 . S
C959 C961 1.419 . S
C960 C958 1.415 . S
C960 C965 1.425 . S
C960 C967 1.409 . S
C961 H953 0.930 . S
C961 C959 1.419 . S
C961 C962 1.362 . S
C962 H954 0.930 . S
C962 C961 1.362 . S
C962 C965 1.409 . S
C963 H955 0.930 . S
C963 C964 1.355 . S
C963 C965 1.415 . S
C964 C963 1.355 . S
C964 C966 1.419 . S
C965 C960 1.425 . S
C965 C962 1.409 . S
C965 C963 1.415 . S
C966 H956 0.930 . S
C966 C964 1.419 . S
C966 C967 1.362 . S
C967 H957 0.930 . S
C967 C960 1.409 . S
C967 C966 1.362 . S
H968 C974 0.930 . S
H969 C977 0.930 . S
H970 C978 0.930 . S
H971 C979 0.930 . S
H972 C982 0.930 . S
H973 C983 0.930 . S
C974 H968 0.930 . S
C974 C975 1.355 . S
C974 C976 1.415 . S
C975 C974 1.355 . S
C975 C977 1.419 . S
C976 C974 1.415 . S
C976 C981 1.425 . S
C976 C983 1.409 . S
C977 H969 0.930 . S
C977 C975 1.419 . S
C977 C978 1.362 . S
C978 H970 0.930 . S
C978 C977 1.362 . S
C978 C981 1.409 . S
C979 H971 0.930 . S
C979 C980 1.355 . S
C979 C981 1.415 . S
C980 C979 1.355 . S
C980 C982 1.419 . S
C981 C976 1.425 . S
C981 C978 1.409 . S
C981 C979 1.415 . S
C982 H972 0.930 . S
C982 C980 1.419 . S
C982 C983 1.362 . S
C983 H973 0.930 . S
C983 C976 1.409 . S
C983 C982 1.362 . S
H984 C990 0.930 . S
H985 C993 0.930 . S
H986 C994 0.930 1_545 S
H987 C995 0.930 1_545 S
H988 C998 0.930 . S
H989 C999 0.930 . S
C990 H984 0.930 . S
C990 C991 1.355 . S
C990 C992 1.415 . S
C991 C990 1.355 . S
C991 C993 1.419 . S
C992 C990 1.415 . S
C992 C997 1.425 . S
C992 C999 1.409 . S
C993 H985 0.930 . S
C993 C991 1.419 . S
C993 C994 1.362 . S
C994 H986 0.930 1_565 S
C994 C993 1.362 . S
C994 C997 1.409 . S
C995 H987 0.930 1_565 S
C995 C996 1.355 . S
C995 C997 1.415 . S
C996 C995 1.355 . S
C996 C998 1.419 . S
C997 C992 1.425 . S
C997 C994 1.409 . S
C997 C995 1.415 . S
C998 H988 0.930 . S
C998 C996 1.419 . S
C998 C999 1.362 . S
C999 H989 0.930 . S
C999 C992 1.409 . S
C999 C998 1.362 . S
H1000 C1006 0.930 . S
H1001 C1009 0.930 . S
H1002 C1010 0.930 . S
H1003 C1011 0.930 . S
H1004 C1014 0.930 . S
H1005 C1015 0.930 . S
C1006 H1000 0.930 . S
C1006 C1007 1.355 . S
C1006 C1008 1.415 . S
C1007 C1006 1.355 . S
C1007 C1009 1.419 . S
C1008 C1006 1.415 . S
C1008 C1013 1.425 . S
C1008 C1015 1.409 . S
C1009 H1001 0.930 . S
C1009 C1007 1.419 . S
C1009 C1010 1.362 . S
C1010 H1002 0.930 . S
C1010 C1009 1.362 . S
C1010 C1013 1.409 . S
C1011 H1003 0.930 . S
C1011 C1012 1.355 . S
C1011 C1013 1.415 . S
C1012 C1011 1.355 . S
C1012 C1014 1.419 . S
C1013 C1008 1.425 . S
C1013 C1010 1.409 . S
C1013 C1011 1.415 . S
C1014 H1004 0.930 . S
C1014 C1012 1.419 . S
C1014 C1015 1.362 . S
C1015 H1005 0.930 . S
C1015 C1008 1.409 . S
C1015 C1014 1.362 . S
H1016 C1022 0.930 . S
H1017 C1025 0.930 . S
H1018 C1026 0.930 . S
H1019 C1027 0.930 . S
H1020 C1030 0.930 . S
H1021 C1031 0.930 . S
C1022 H1016 0.930 . S
C1022 C1023 1.355 . S
C1022 C1024 1.415 . S
C1023 C1022 1.355 . S
C1023 C1025 1.419 . S
C1024 C1022 1.415 . S
C1024 C1029 1.425 . S
C1024 C1031 1.409 . S
C1025 H1017 0.930 . S
C1025 C1023 1.419 . S
C1025 C1026 1.362 . S
C1026 H1018 0.930 . S
C1026 C1025 1.362 . S
C1026 C1029 1.409 . S
C1027 H1019 0.930 . S
C1027 C1028 1.355 . S
C1027 C1029 1.415 . S
C1028 C1027 1.355 . S
C1028 C1030 1.419 . S
C1029 C1024 1.425 . S
C1029 C1026 1.409 . S
C1029 C1027 1.415 . S
C1030 H1020 0.930 . S
C1030 C1028 1.419 . S
C1030 C1031 1.362 . S
C1031 H1021 0.930 . S
C1031 C1024 1.409 . S
C1031 C1030 1.362 . S
C655 C255 2.368 . S
C660 C386 2.497 . S
C676 C470 2.502 . S
C671 C294 2.394 . S
C692 C536 2.411 . S
C687 C177 2.523 . S
C708 C620 2.395 . S
C703 C216 2.516 . S
C724 C375 2.521 1_565 S
C719 C99 2.438 . S
C735 C138 2.340 . S
C740 C459 2.490 . S
C751 C21 2.498 . S
C756 C547 2.364 . S
C767 C60 2.495 . S
C772 C631 2.357 . S
C788 C382 0.843 1_455 S
C783 C196 0.718 . S
C804 C466 0.781 . S
C799 C235 0.774 . S
C820 C538 0.703 . S
C815 C289 0.841 . S
C831 C157 0.684 . S
C836 C622 0.819 . S
C847 C40 0.897 1_556 S
C852 C370 0.810 . S
C868 C454 0.757 . S
C863 C79 0.822 1_556 S
C884 C550 0.690 . S
C879 C133 0.740 1_556 S
C895 C1 0.839 1_556 S
C900 C634 0.754 . S
C911 C211 2.857 . S
C916 C379 3.063 . S
C927 C250 2.814 . S
C932 C463 2.984 . S
C948 C543 3.126 . S
C943 C274 2.701 . S
C964 C627 3.162 . S
C959 C172 2.749 . S
C975 C55 2.897 . S
C980 C368 3.065 . S
C996 C452 3.009 . S
C991 C94 2.799 . S
C1012 C554 3.126 . S
C1007 C118 2.694 . S
C1023 C16 2.725 . S
C1028 C638 3.159 . S
