# Generated by pormake.
# Topology pyr, (3,6)-cn, num edge types: 1
# Building blocks:
#     Node 0, Type 0, BuildingBlock: QEWDON_clean_linker_0, # of connection points: 3
#     Node 1, Type 0, BuildingBlock: QEWDON_clean_linker_0, # of connection points: 3
#     Node 2, Type 0, BuildingBlock: QEWDON_clean_linker_0, # of connection points: 3
#     Node 3, Type 0, BuildingBlock: QEWDON_clean_linker_0, # of connection points: 3
#     Node 4, Type 0, BuildingBlock: QEWDON_clean_linker_0, # of connection points: 3
#     Node 5, Type 0, BuildingBlock: QEWDON_clean_linker_0, # of connection points: 3
#     Node 6, Type 0, BuildingBlock: QEWDON_clean_linker_0, # of connection points: 3
#     Node 7, Type 0, BuildingBlock: QEWDON_clean_linker_0, # of connection points: 3
#     Node 8, Type 1, BuildingBlock: BETGAK_clean_sbu_0, # of connection points: 6
#     Node 9, Type 1, BuildingBlock: BETGAK_clean_sbu_0, # of connection points: 6
#     Node 10, Type 1, BuildingBlock: BETGAK_clean_sbu_0, # of connection points: 6
#     Node 11, Type 1, BuildingBlock: BETGAK_clean_sbu_0, # of connection points: 6
#     Edge 12, Type (0, 1), None
#     Edge 13, Type (0, 1), None
#     Edge 14, Type (0, 1), None
#     Edge 15, Type (0, 1), None
#     Edge 16, Type (0, 1), None
#     Edge 17, Type (0, 1), None
#     Edge 18, Type (0, 1), None
#     Edge 19, Type (0, 1), None
#     Edge 20, Type (0, 1), None
#     Edge 21, Type (0, 1), None
#     Edge 22, Type (0, 1), None
#     Edge 23, Type (0, 1), None
#     Edge 24, Type (0, 1), None
#     Edge 25, Type (0, 1), None
#     Edge 26, Type (0, 1), None
#     Edge 27, Type (0, 1), None
#     Edge 28, Type (0, 1), None
#     Edge 29, Type (0, 1), None
#     Edge 30, Type (0, 1), None
#     Edge 31, Type (0, 1), None
#     Edge 32, Type (0, 1), None
#     Edge 33, Type (0, 1), None
#     Edge 34, Type (0, 1), None
#     Edge 35, Type (0, 1), None
# Relax obj value: 0.396
# Max RMSD: 0.268
# Mean RMSD: 0.202
data_MOF--net-pyr--node1-BETGAK_clean_sbu_0--node2-QEWDON_clean_linker_0--edge1-none
_symmetry_space_group_name_H-M    P1
_symmetry_Int_Tables_number       1
_symmetry_cell_setting            triclinic
loop_
_symmetry_equiv_pos_as_xyz
'x, y, z'
_cell_length_a     18.541485
_cell_length_b     18.94871
_cell_length_c     17.928005
_cell_angle_alpha  91.569423
_cell_angle_beta   86.240144
_cell_angle_gamma 118.01356
loop_
_atom_site_label
_atom_site_type_symbol
_atom_site_fract_x
_atom_site_fract_y
_atom_site_fract_z
_atom_type_partial_charge
H0 H 0.60786 0.48512 0.26046 0.0
C1 C 0.59762 0.48239 0.32083 0.0
C2 C 0.59683 0.41884 0.36081 0.0
C3 C 0.57314 0.53503 0.35713 0.0
H4 H 0.56317 0.35478 0.46315 0.0
C5 C 0.57254 0.40933 0.43658 0.0
C6 C 0.54343 0.45891 0.47222 0.0
C7 C 0.55136 0.5257 0.43347 0.0
C8 C 0.55191 0.58811 0.31492 0.0
H9 H 0.53068 0.56554 0.46 0.0
C10 C 0.47121 0.57789 0.32207 0.0
C11 C 0.45007 0.63104 0.28758 0.0
C12 C 0.61176 0.65142 0.27209 0.0
H13 H 0.67403 0.66042 0.26637 0.0
C14 C 0.59184 0.70473 0.23792 0.0
H15 H 0.42482 0.52771 0.35428 0.0
C16 C 0.51183 0.69465 0.245 0.0
H17 H 0.49916 0.73799 0.21852 0.0
H18 H 0.63893 0.75441 0.20596 0.0
H19 H 0.07739 1.0066 0.98396 0.0
C20 C 0.12027 0.98534 0.96363 0.0
C21 C 0.19028 1.00661 1.00111 0.0
C22 C 0.10822 0.94388 0.89675 0.0
H23 H 0.30382 1.00206 1.00195 0.0
C24 C 0.24795 0.98282 0.97343 0.0
C25 C 0.23753 0.94106 0.90545 0.0
C26 C 0.16622 0.92072 0.86721 0.0
C27 C 1.04658 0.94636 0.8521 0.0
H28 H 0.15916 0.89324 0.81252 0.0
C29 C 0.06075 1.02161 0.82715 0.0
C30 C 1.00062 1.03041 0.79215 0.0
C31 C 0.97034 0.87943 0.845 0.0
H32 H 0.95783 0.82181 0.86688 0.0
C33 C 0.90958 0.88754 0.81008 0.0
H34 H 0.12064 1.07297 0.83188 0.0
C35 C 0.92561 0.96201 0.78207 0.0
H36 H 0.88115 0.96484 0.74868 0.0
H37 H 0.85099 0.83574 0.80249 0.0
H38 H 0.83217 0.67403 1.06084 0.0
C39 C 0.79886 0.61014 1.06862 0.0
C40 C 0.82808 0.57277 1.11851 0.0
C41 C 0.72445 0.56792 1.03208 0.0
H42 H 0.7978 0.45991 0.17146 0.0
C43 C 0.77868 0.48956 0.13236 0.0
C44 C 0.70351 0.44458 1.09734 0.0
C45 C 0.6784 0.48479 1.04699 0.0
C46 C 0.68181 0.61365 1.00372 0.0
H47 H 0.61892 0.45255 1.02388 0.0
C48 C 0.67753 0.63435 0.92707 0.0
C49 C 0.63453 0.67907 0.91069 0.0
C50 C 0.64143 0.6365 1.06041 0.0
H51 H 0.64199 0.62133 1.11809 0.0
C52 C 0.59931 0.67795 1.04468 0.0
H53 H 0.70703 0.61659 0.88179 0.0
C54 C 0.59654 0.69935 0.97207 0.0
H55 H 0.56188 0.73111 0.96457 0.0
H56 H 0.56754 0.69369 1.08923 0.0
H57 H 0.96863 1.0011 0.47707 0.0
C58 C 0.91551 0.96733 0.51445 0.0
C59 C 0.89475 1.0072 0.57327 0.0
C60 C 0.86516 0.88452 0.5014 0.0
H61 H 0.80398 0.99171 0.66212 0.0
C62 C 0.8229 0.96218 0.61882 0.0
C63 C 0.77539 0.87918 0.61175 0.0
C64 C 0.79573 0.84104 0.55117 0.0
C65 C 0.87347 0.84822 0.4276 0.0
H66 H 0.75639 0.77811 0.5413 0.0
C67 C 0.92985 0.81756 0.41009 0.0
C68 C 0.93357 0.78502 0.33774 0.0
C69 C 0.82128 0.84449 0.37267 0.0
H70 H 0.77742 0.8667 0.38421 0.0
C71 C 0.82455 0.81235 0.30253 0.0
H72 H 0.9694 0.81816 0.45223 0.0
C73 C 0.8799 0.78304 0.28519 0.0
H74 H 0.87921 0.75715 0.23069 0.0
H75 H 0.78325 0.80957 0.26129 0.0
H76 H 0.65186 0.87937 0.16181 0.0
C77 C 0.65345 0.885 1.10173 0.0
C78 C 0.71953 0.887 1.05567 0.0
C79 C 0.59081 0.89347 1.06818 0.0
H80 H 0.78447 0.9249 0.94942 0.0
C81 C 0.72721 0.91005 0.98083 0.0
C82 C 0.66813 0.92511 0.95032 0.0
C83 C 0.59481 0.90342 0.99097 0.0
C84 C 0.53428 0.91784 1.10798 0.0
H85 H 0.54776 0.9123 0.96615 0.0
C86 C 0.55736 1.00011 1.10454 0.0
C87 C 0.49851 1.02685 1.10151 0.0
C88 C 0.451 0.8624 1.11528 0.0
H89 H 0.43178 0.79886 1.11428 0.0
C90 C 0.39192 0.88841 1.11525 0.0
H91 H 0.62183 1.04275 1.09712 0.0
C92 C 0.41525 0.96969 1.10712 0.0
H93 H 0.36795 0.9878 1.10721 0.0
H94 H 0.3277 0.8451 1.11887 0.0
H95 H 0.10157 0.49478 0.60987 0.0
C96 C 0.08031 0.46583 0.55682 0.0
C97 C 0.06893 0.38799 0.54471 0.0
C98 C 1.05118 0.50069 0.50708 0.0
H99 H 1.03298 0.2901 0.46797 0.0
C100 C 1.0404 0.34987 0.47709 0.0
C101 C 1.00783 0.38225 0.42786 0.0
C102 C 1.01322 0.45772 0.44362 0.0
C103 C 1.04446 0.57291 0.53046 0.0
H104 H 0.98273 0.48079 0.40964 0.0
C105 C 0.96722 0.56977 0.53564 0.0
C106 C 0.95648 0.63259 0.56808 0.0
C107 C 0.1121 0.64116 0.55592 0.0
H108 H 0.17219 0.64454 0.55296 0.0
C109 C 0.10205 0.70486 0.58673 0.0
H110 H 0.91424 0.51618 0.51843 0.0
C111 C 1.02438 0.70035 0.59369 0.0
H112 H 1.01726 0.74947 0.61898 0.0
H113 H 0.15429 0.75717 0.60659 0.0
H114 H 0.50631 1.02295 0.38989 0.0
C115 C 0.44815 0.98798 0.36514 0.0
C116 C 0.41944 1.02637 0.31688 0.0
C117 C 0.40799 0.9039 0.37599 0.0
H118 H 0.32393 1.0052 0.24253 0.0
C119 C 0.34611 0.97759 0.28043 0.0
C120 C 0.30266 0.893 0.29062 0.0
C121 C 0.33545 0.85772 0.33844 0.0
C122 C 0.45618 0.8647 0.40398 0.0
H123 H 0.30666 0.79324 0.3439 0.0
C124 C 0.44651 0.82919 0.47671 0.0
C125 C 0.49728 0.79394 0.49515 0.0
C126 C 0.51733 0.86579 0.35297 0.0
H127 H 0.5271 0.89269 0.29813 0.0
C128 C 0.56731 0.83352 0.37121 0.0
H129 H 0.40095 0.82916 0.51768 0.0
C130 C 0.55661 0.79698 0.44006 0.0
H131 H 0.59801 0.77333 0.45081 0.0
H132 H 0.61543 0.83718 0.33141 0.0
H133 H 0.3503 0.66477 0.85983 0.0
C134 C 0.30835 0.60715 0.83776 0.0
C135 C 0.33214 0.57745 0.77141 0.0
C136 C 0.23121 0.55999 0.87695 0.0
H137 H 0.29756 0.4754 0.69822 0.0
C138 C 0.27926 0.49926 0.7472 0.0
C139 C 0.20394 0.45028 0.78518 0.0
C140 C 0.17933 0.48293 0.84724 0.0
C141 C 0.20721 0.57759 0.95612 0.0
H142 H 0.12037 0.44583 0.87575 0.0
C143 C 0.19639 0.64571 0.98173 0.0
C144 C 0.15038 0.64104 1.05184 0.0
C145 C 0.18192 0.51335 1.00637 0.0
H146 H 0.19362 0.4634 0.99274 0.0
C147 C 0.13172 0.50619 1.06924 0.0
H148 H 0.21895 0.69835 0.94677 0.0
C149 C 0.11158 0.56635 1.08769 0.0
H150 H 0.06391 0.55346 0.13046 0.0
H151 H 0.10491 0.45169 1.10206 0.0
La152 La 0.11546 0.21658 0.64873 0.0
La153 La 0.9834 0.2325 0.71736 0.0
C154 C 0.25386 0.23608 0.60486 0.0
C155 C 0.33252 0.30698 0.59411 0.0
C156 C 0.40435 0.30393 0.60777 0.0
C157 C 0.47947 0.36496 0.58086 0.0
C158 C 0.48159 0.42583 0.53599 0.0
C159 C 0.41092 0.4361 0.53645 0.0
C160 C 0.33669 0.37676 0.56555 0.0
C161 C 1.0283 1.09761 0.74037 0.0
C162 C 0.15088 0.36605 0.75811 0.0
C163 C 0.84922 0.20526 0.78374 0.0
C164 C 0.78588 1.12769 0.8104 0.0
C165 C 0.71913 1.11963 0.85695 0.0
C166 C 0.67312 1.04869 0.8973 0.0
C167 C 0.69351 0.98542 0.89031 0.0
C168 C 0.75463 0.99187 0.83738 0.0
C169 C 0.80173 1.06296 0.79975 0.0
C170 C 0.06001 0.33947 0.61014 0.0
C171 C 0.94906 1.09295 0.59475 0.0
O172 O 0.2257 0.22071 0.67447 0.0
O173 O 0.19806 0.22853 0.55912 0.0
O174 O 0.06547 1.09362 0.67894 0.0
O175 O 1.04651 0.17027 0.75465 0.0
O176 O 0.17663 0.33761 0.69985 0.0
O177 O 0.07479 0.32471 0.78501 0.0
O178 O 0.86227 0.21215 0.71116 0.0
O179 O 0.91725 0.22943 0.81741 0.0
O180 O 1.02699 0.35096 0.67161 0.0
O181 O 1.04445 0.26711 0.60751 0.0
O182 O 0.92178 1.12203 0.65138 0.0
O183 O 1.02781 1.13009 0.57316 0.0
H184 H 0.40192 0.25192 0.63394 0.0
H185 H 0.53395 0.3587 0.58673 0.0
H186 H 0.40895 0.48344 0.50586 0.0
H187 H 0.2817 0.38197 0.55881 0.0
H188 H 0.70707 0.16987 0.86697 0.0
H189 H 0.62731 1.04704 0.93886 0.0
H190 H 0.77189 0.94491 0.83125 0.0
H191 H 0.85602 1.07012 0.76849 0.0
La192 La 0.61774 0.22329 0.23244 0.0
La193 La 0.50022 0.24954 0.18178 0.0
C194 C 0.73952 0.2007 0.24943 0.0
C195 C 0.81829 0.24232 0.28359 0.0
C196 C 0.83106 0.20639 0.34504 0.0
C197 C 0.89646 0.25022 0.38916 0.0
C198 C 0.95156 0.33044 0.37143 0.0
C199 C 0.94318 0.36321 0.30523 0.0
C200 C 0.87652 0.31995 0.26192 0.0
C201 C 0.47238 1.11509 0.29814 0.0
C202 C 0.58493 0.34669 0.31981 0.0
C203 C 0.3743 0.26353 0.16506 0.0
C204 C 0.29458 0.1982 0.14953 0.0
C205 C 0.25613 0.20655 1.08838 0.0
C206 C 0.21382 0.1407 1.04331 0.0
C207 C 0.2103 1.06695 1.05972 0.0
C208 C 0.23715 1.05627 0.12728 0.0
C209 C 0.27739 1.12156 0.1733 0.0
C210 C 0.64612 0.35788 1.1187 0.0
C211 C 0.52366 1.11398 1.10399 0.0
O212 O 0.67617 0.1775 0.29672 0.0
O213 O 0.72973 0.23148 0.189 0.0
O214 O 0.53963 0.15728 0.33088 0.0
O215 O 0.48647 0.14062 0.23156 0.0
O216 O 0.64567 0.33211 0.29742 0.0
O217 O 0.51425 0.30593 0.29055 0.0
O218 O 0.42976 0.27488 1.11129 0.0
O219 O 0.40027 0.26153 0.23053 0.0
O220 O 0.57967 0.31662 1.08475 0.0
O221 O 0.63063 0.3332 0.18567 0.0
O222 O 0.46697 0.13446 0.12652 0.0
O223 O 0.59787 0.16243 0.12373 0.0
H224 H 0.78698 0.14613 0.36218 0.0
H225 H 0.89954 0.22266 0.44012 0.0
H226 H 0.98539 0.42374 0.28927 0.0
H227 H 0.86856 0.34874 0.21406 0.0
H228 H 0.26893 0.2653 1.06929 0.0
H229 H 0.19251 0.14974 0.99133 0.0
H230 H 0.23362 0.99953 0.14077 0.0
H231 H 0.30576 1.11414 0.22121 0.0
La232 La 0.56364 0.66347 0.66724 0.0
La233 La 0.5547 0.79779 0.73583 0.0
C234 C 0.62432 0.58114 0.60492 0.0
C235 C 0.70877 0.59255 0.59757 0.0
C236 C 0.75847 0.6147 0.65887 0.0
C237 C 0.84026 0.63069 0.649 0.0
C238 C 0.87316 0.62422 0.57787 0.0
C239 C 0.82389 0.60345 0.51664 0.0
C240 C 0.7428 0.58854 0.52632 0.0
C241 C 0.41284 0.62255 0.72684 0.0
C242 C 0.62075 0.70402 0.8339 0.0
C243 C 0.51347 0.89515 0.80071 0.0
C244 C 0.44114 0.9071 0.81763 0.0
C245 C 0.45329 0.98156 0.84475 0.0
C246 C 0.38684 0.99261 0.87112 0.0
C247 C 0.30644 0.92926 0.87112 0.0
C248 C 0.29385 0.85531 0.84086 0.0
C249 C 0.36088 0.84414 0.81463 0.0
C250 C 0.70266 0.83544 0.66613 0.0
C251 C 0.49869 0.75855 0.57025 0.0
O252 O 0.58573 0.56402 0.67093 0.0
O253 O 0.61381 0.63494 0.57073 0.0
O254 O 0.43093 0.59166 0.66746 0.0
O255 O 0.47974 0.67143 0.7536 0.0
O256 O 0.62833 0.67019 0.77046 0.0
O257 O 0.58954 0.75429 0.83292 0.0
O258 O 0.54321 0.90357 0.73164 0.0
O259 O 0.51236 0.83387 0.83285 0.0
O260 O 0.68971 0.86764 0.72659 0.0
O261 O 0.63288 0.78759 0.64644 0.0
O262 O 0.48712 0.789 0.6346 0.0
O263 O 0.5318 0.70971 0.57015 0.0
H264 H 0.73447 0.61993 0.71424 0.0
H265 H 0.87717 0.64614 0.69712 0.0
H266 H 0.84826 0.59879 0.46118 0.0
H267 H 0.70725 0.57482 0.47766 0.0
H268 H 0.51456 1.03084 0.84752 0.0
H269 H 0.39862 1.05082 0.89258 0.0
H270 H 0.23266 0.80554 0.84004 0.0
H271 H 0.35031 0.78599 0.79405 0.0
La272 La 1.05902 0.66521 0.25679 0.0
La273 La 0.0729 0.79815 0.15713 0.0
C274 C 0.115 0.58382 0.31684 0.0
C275 C 0.20027 0.59547 0.31001 0.0
C276 C 0.2344 0.57764 0.36967 0.0
C277 C 0.31541 0.58995 0.36292 0.0
C278 C 0.36425 0.62001 0.296 0.0
C279 C 0.3299 0.63885 0.2368 0.0
C280 C 0.24946 0.62737 0.24398 0.0
C281 C 0.98541 0.74491 0.31759 0.0
C282 C 0.22327 0.84028 0.25248 0.0
C283 C 1.02557 0.89384 1.11316 0.0
C284 C 0.94352 0.88703 1.10334 0.0
C285 C 0.89415 0.83744 1.04805 0.0
C286 C 0.81756 0.83171 1.03843 0.0
C287 C 0.78855 0.87689 1.08244 0.0
C288 C 0.83681 0.92525 0.13914 0.0
C289 C 0.91365 0.93022 0.14948 0.0
C290 C 0.13277 0.705 1.09086 0.0
C291 C 0.90901 0.6233 0.15593 0.0
O292 O 0.10372 0.63928 0.3524 0.0
O293 O 0.07513 0.56284 0.2561 0.0
O294 O 0.96259 0.67005 0.33181 0.0
O295 O 1.05026 0.77202 0.27461 0.0
O296 O 0.1873 0.76192 0.26441 0.0
O297 O 0.18855 0.87132 0.21097 0.0
O298 O 1.05011 0.85266 1.06803 0.0
O299 O 1.04317 0.89096 0.18196 0.0
O300 O 0.15914 0.78009 1.07296 0.0
O301 O 0.07432 0.68802 0.13967 0.0
O302 O 0.94723 0.70125 0.14052 0.0
O303 O 0.9431 0.59175 0.19924 0.0
H304 H 0.19882 0.55462 0.42173 0.0
H305 H 0.3399 0.57658 0.41061 0.0
H306 H 0.36459 0.6614 0.18415 0.0
H307 H 0.22578 0.64365 0.19757 0.0
H308 H 0.91531 0.8042 1.01078 0.0
H309 H 0.78296 0.79557 0.99293 0.0
H310 H 0.81728 0.96233 0.17264 0.0
H311 H 0.95055 0.96916 0.19258 0.0
loop_
_geom_bond_atom_site_label_1
_geom_bond_atom_site_label_2
_geom_bond_distance
_geom_bond_site_symmetry_2
_ccdc_geom_bond_type
H0 C1 0.949 . S
C1 H0 0.949 . S
C1 C2 1.395 . S
C1 C3 1.391 . S
C2 C1 1.395 . S
C2 C5 1.390 . S
C3 C1 1.391 . S
C3 C7 1.387 . S
C3 C8 1.491 . S
H4 C5 0.950 . S
C5 C2 1.390 . S
C5 H4 0.950 . S
C5 C6 1.378 . S
C6 C5 1.378 . S
C6 C7 1.409 . S
C7 C3 1.387 . S
C7 C6 1.409 . S
C7 H9 0.951 . S
C8 C3 1.491 . S
C8 C10 1.382 . S
C8 C12 1.404 . S
H9 C7 0.951 . S
C10 C8 1.382 . S
C10 C11 1.390 . S
C10 H15 0.949 . S
C11 C10 1.390 . S
C11 C16 1.399 . S
C12 C8 1.404 . S
C12 H13 0.950 . S
C12 C14 1.375 . S
H13 C12 0.950 . S
C14 C12 1.375 . S
C14 C16 1.382 . S
C14 H18 0.950 . S
H15 C10 0.949 . S
C16 C11 1.399 . S
C16 C14 1.382 . S
C16 H17 0.952 . S
H17 C16 0.952 . S
H18 C14 0.950 . S
H19 C20 0.949 . S
C20 H19 0.949 . S
C20 C21 1.395 . S
C20 C22 1.391 . S
C21 C20 1.395 . S
C21 C24 1.390 . S
C22 C20 1.391 . S
C22 C26 1.387 . S
C22 C27 1.491 . S
H23 C24 0.950 . S
C24 C21 1.390 . S
C24 H23 0.950 . S
C24 C25 1.378 . S
C25 C24 1.378 . S
C25 C26 1.409 . S
C26 C22 1.387 . S
C26 C25 1.409 . S
C26 H28 0.951 . S
C27 C22 1.491 . S
C27 C29 1.382 . S
C27 C31 1.404 1_455 S
H28 C26 0.951 . S
C29 C27 1.382 . S
C29 C30 1.390 1_455 S
C29 H34 0.949 . S
C30 C29 1.390 1_655 S
C30 C35 1.399 . S
C31 C27 1.404 1_655 S
C31 H32 0.950 . S
C31 C33 1.375 . S
H32 C31 0.950 . S
C33 C31 1.375 . S
C33 C35 1.382 . S
C33 H37 0.950 . S
H34 C29 0.949 . S
C35 C30 1.399 . S
C35 C33 1.382 . S
C35 H36 0.952 . S
H36 C35 0.952 . S
H37 C33 0.950 . S
H38 C39 0.949 . S
C39 H38 0.949 . S
C39 C40 1.395 . S
C39 C41 1.391 . S
C40 C39 1.395 . S
C40 C43 1.390 1_556 S
C41 C39 1.391 . S
C41 C45 1.387 . S
C41 C46 1.491 . S
H42 C43 0.950 . S
C43 C40 1.390 1_554 S
C43 H42 0.950 . S
C43 C44 1.378 1_554 S
C44 C43 1.378 1_556 S
C44 C45 1.409 . S
C45 C41 1.387 . S
C45 C44 1.409 . S
C45 H47 0.951 . S
C46 C41 1.491 . S
C46 C48 1.382 . S
C46 C50 1.404 . S
H47 C45 0.951 . S
C48 C46 1.382 . S
C48 C49 1.390 . S
C48 H53 0.949 . S
C49 C48 1.390 . S
C49 C54 1.399 . S
C50 C46 1.404 . S
C50 H51 0.950 . S
C50 C52 1.375 . S
H51 C50 0.950 . S
C52 C50 1.375 . S
C52 C54 1.382 . S
C52 H56 0.950 . S
H53 C48 0.949 . S
C54 C49 1.399 . S
C54 C52 1.382 . S
C54 H55 0.952 . S
H55 C54 0.952 . S
H56 C52 0.950 . S
H57 C58 0.949 . S
C58 H57 0.949 . S
C58 C59 1.395 . S
C58 C60 1.391 . S
C59 C58 1.395 . S
C59 C62 1.390 . S
C60 C58 1.391 . S
C60 C64 1.387 . S
C60 C65 1.491 . S
H61 C62 0.950 . S
C62 C59 1.390 . S
C62 H61 0.950 . S
C62 C63 1.378 . S
C63 C62 1.378 . S
C63 C64 1.409 . S
C64 C60 1.387 . S
C64 C63 1.409 . S
C64 H66 0.951 . S
C65 C60 1.491 . S
C65 C67 1.382 . S
C65 C69 1.404 . S
H66 C64 0.951 . S
C67 C65 1.382 . S
C67 C68 1.390 . S
C67 H72 0.949 . S
C68 C67 1.390 . S
C68 C73 1.399 . S
C69 C65 1.404 . S
C69 H70 0.950 . S
C69 C71 1.375 . S
H70 C69 0.950 . S
C71 C69 1.375 . S
C71 C73 1.382 . S
C71 H75 0.950 . S
H72 C67 0.949 . S
C73 C68 1.399 . S
C73 C71 1.382 . S
C73 H74 0.952 . S
H74 C73 0.952 . S
H75 C71 0.950 . S
H76 C77 0.949 . S
C77 H76 0.949 . S
C77 C78 1.395 . S
C77 C79 1.391 . S
C78 C77 1.395 . S
C78 C81 1.390 . S
C79 C77 1.391 . S
C79 C83 1.387 . S
C79 C84 1.491 . S
H80 C81 0.950 . S
C81 C78 1.390 . S
C81 H80 0.950 . S
C81 C82 1.378 . S
C82 C81 1.378 . S
C82 C83 1.409 . S
C83 C79 1.387 . S
C83 C82 1.409 . S
C83 H85 0.951 . S
C84 C79 1.491 . S
C84 C86 1.382 . S
C84 C88 1.404 . S
H85 C83 0.951 . S
C86 C84 1.382 . S
C86 C87 1.390 . S
C86 H91 0.949 . S
C87 C86 1.390 . S
C87 C92 1.399 . S
C88 C84 1.404 . S
C88 H89 0.950 . S
C88 C90 1.375 . S
H89 C88 0.950 . S
C90 C88 1.375 . S
C90 C92 1.382 . S
C90 H94 0.950 . S
H91 C86 0.949 . S
C92 C87 1.399 . S
C92 C90 1.382 . S
C92 H93 0.952 . S
H93 C92 0.952 . S
H94 C90 0.950 . S
H95 C96 0.949 . S
C96 H95 0.949 . S
C96 C97 1.395 . S
C96 C98 1.391 . S
C97 C96 1.395 . S
C97 C100 1.390 . S
C98 C96 1.391 . S
C98 C102 1.387 . S
C98 C103 1.491 . S
H99 C100 0.950 . S
C100 C97 1.390 . S
C100 H99 0.950 . S
C100 C101 1.378 . S
C101 C100 1.378 . S
C101 C102 1.409 . S
C102 C98 1.387 . S
C102 C101 1.409 . S
C102 H104 0.951 . S
C103 C98 1.491 . S
C103 C105 1.382 . S
C103 C107 1.404 . S
H104 C102 0.951 . S
C105 C103 1.382 . S
C105 C106 1.390 . S
C105 H110 0.949 . S
C106 C105 1.390 . S
C106 C111 1.399 . S
C107 C103 1.404 . S
C107 H108 0.950 . S
C107 C109 1.375 . S
H108 C107 0.950 . S
C109 C107 1.375 . S
C109 C111 1.382 . S
C109 H113 0.950 . S
H110 C105 0.949 . S
C111 C106 1.399 . S
C111 C109 1.382 . S
C111 H112 0.952 . S
H112 C111 0.952 . S
H113 C109 0.950 . S
H114 C115 0.949 . S
C115 H114 0.949 . S
C115 C116 1.395 . S
C115 C117 1.391 . S
C116 C115 1.395 . S
C116 C119 1.390 . S
C117 C115 1.391 . S
C117 C121 1.387 . S
C117 C122 1.491 . S
H118 C119 0.950 . S
C119 C116 1.390 . S
C119 H118 0.950 . S
C119 C120 1.378 . S
C120 C119 1.378 . S
C120 C121 1.409 . S
C121 C117 1.387 . S
C121 C120 1.409 . S
C121 H123 0.951 . S
C122 C117 1.491 . S
C122 C124 1.382 . S
C122 C126 1.404 . S
H123 C121 0.951 . S
C124 C122 1.382 . S
C124 C125 1.390 . S
C124 H129 0.949 . S
C125 C124 1.390 . S
C125 C130 1.399 . S
C126 C122 1.404 . S
C126 H127 0.950 . S
C126 C128 1.375 . S
H127 C126 0.950 . S
C128 C126 1.375 . S
C128 C130 1.382 . S
C128 H132 0.950 . S
H129 C124 0.949 . S
C130 C125 1.399 . S
C130 C128 1.382 . S
C130 H131 0.952 . S
H131 C130 0.952 . S
H132 C128 0.950 . S
H133 C134 0.949 . S
C134 H133 0.949 . S
C134 C135 1.395 . S
C134 C136 1.391 . S
C135 C134 1.395 . S
C135 C138 1.390 . S
C136 C134 1.391 . S
C136 C140 1.387 . S
C136 C141 1.491 . S
H137 C138 0.950 . S
C138 C135 1.390 . S
C138 H137 0.950 . S
C138 C139 1.378 . S
C139 C138 1.378 . S
C139 C140 1.409 . S
C140 C136 1.387 . S
C140 C139 1.409 . S
C140 H142 0.951 . S
C141 C136 1.491 . S
C141 C143 1.382 . S
C141 C145 1.404 . S
H142 C140 0.951 . S
C143 C141 1.382 . S
C143 C144 1.390 . S
C143 H148 0.949 . S
C144 C143 1.390 . S
C144 C149 1.399 . S
C145 C141 1.404 . S
C145 H146 0.950 . S
C145 C147 1.375 . S
H146 C145 0.950 . S
C147 C145 1.375 . S
C147 C149 1.382 . S
C147 H151 0.950 . S
H148 C143 0.949 . S
C149 C144 1.399 . S
C149 C147 1.382 . S
C149 H150 0.952 . S
H150 C149 0.952 . S
H151 C147 0.950 . S
La152 C154 2.928 . S
La152 O172 2.521 . S
La152 O173 2.628 . S
La152 O174 2.554 . S
La152 O175 2.757 . S
La152 O176 2.470 . S
La152 O181 2.482 1_455 S
La152 O183 2.503 1_445 S
La153 C163 2.928 1_545 S
La153 O175 2.482 1_655 S
La153 O177 2.503 1_655 S
La153 O178 2.521 1_545 S
La153 O179 2.628 1_545 S
La153 O180 2.554 . S
La153 O181 2.757 . S
La153 O182 2.470 1_545 S
C154 La152 2.928 . S
C154 C155 1.503 . S
C154 O172 1.261 . S
C154 O173 1.243 . S
C155 C154 1.503 . S
C155 C156 1.394 . S
C155 C160 1.373 . S
C156 C155 1.394 . S
C156 C157 1.380 . S
C156 H184 0.930 . S
C157 C156 1.380 . S
C157 C158 1.376 . S
C157 H185 0.930 . S
C158 C157 1.376 . S
C158 C159 1.370 . S
C159 C158 1.370 . S
C159 C160 1.396 . S
C159 H186 0.929 . S
C160 C155 1.373 . S
C160 C159 1.396 . S
C160 H187 0.929 . S
C161 O174 1.240 . S
C161 O175 1.289 . S
C162 O176 1.258 . S
C162 O177 1.256 . S
C163 La153 2.928 1_565 S
C163 C164 1.503 . S
C163 O178 1.261 . S
C163 O179 1.243 . S
C164 C163 1.503 . S
C164 C165 1.394 . S
C164 C169 1.373 . S
C165 C164 1.394 . S
C165 C166 1.380 . S
C165 H188 0.930 . S
C166 C165 1.380 . S
C166 C167 1.376 . S
C166 H189 0.930 . S
C167 C166 1.376 . S
C167 C168 1.370 . S
C168 C167 1.370 . S
C168 C169 1.396 . S
C168 H190 0.929 . S
C169 C164 1.373 . S
C169 C168 1.396 . S
C169 H191 0.929 . S
C170 O180 1.240 . S
C170 O181 1.289 . S
C171 O182 1.258 . S
C171 O183 1.256 . S
O172 La152 2.521 . S
O172 C154 1.261 . S
O173 La152 2.628 . S
O173 C154 1.243 . S
O174 La152 2.554 . S
O174 C161 1.240 . S
O175 La152 2.757 . S
O175 La153 2.482 1_455 S
O175 C161 1.289 . S
O176 La152 2.470 . S
O176 C162 1.258 . S
O177 La153 2.503 1_455 S
O177 C162 1.256 . S
O178 La153 2.521 1_565 S
O178 C163 1.261 . S
O179 La153 2.628 1_565 S
O179 C163 1.243 . S
O180 La153 2.554 . S
O180 C170 1.240 . S
O181 La152 2.482 1_655 S
O181 La153 2.757 . S
O181 C170 1.289 . S
O182 La153 2.470 1_565 S
O182 C171 1.258 . S
O183 La152 2.503 1_665 S
O183 C171 1.256 . S
H184 C156 0.930 . S
H185 C157 0.930 . S
H186 C159 0.929 . S
H187 C160 0.929 . S
H188 C165 0.930 . S
H189 C166 0.930 . S
H190 C168 0.929 . S
H191 C169 0.929 . S
La192 C194 2.928 . S
La192 O212 2.521 . S
La192 O213 2.628 . S
La192 O214 2.554 1_545 S
La192 O215 2.757 1_545 S
La192 O216 2.470 . S
La192 O221 2.482 . S
La192 O223 2.503 1_545 S
La193 C203 2.928 1_544 S
La193 O215 2.482 1_545 S
La193 O217 2.503 . S
La193 O218 2.521 1_554 S
La193 O219 2.628 1_544 S
La193 O220 2.554 1_554 S
La193 O221 2.757 . S
La193 O222 2.470 1_554 S
C194 La192 2.928 . S
C194 C195 1.503 . S
C194 O212 1.261 . S
C194 O213 1.243 . S
C195 C194 1.503 . S
C195 C196 1.394 . S
C195 C200 1.373 . S
C196 C195 1.394 . S
C196 C197 1.380 . S
C196 H224 0.930 . S
C197 C196 1.380 . S
C197 C198 1.376 . S
C197 H225 0.930 . S
C198 C197 1.376 . S
C198 C199 1.370 . S
C199 C198 1.370 . S
C199 C200 1.396 . S
C199 H226 0.929 . S
C200 C195 1.373 . S
C200 C199 1.396 . S
C200 H227 0.929 . S
C201 O214 1.240 . S
C201 O215 1.289 . S
C202 O216 1.258 . S
C202 O217 1.256 . S
C203 La193 2.928 1_566 S
C203 C204 1.503 . S
C203 O218 1.261 1_565 S
C203 O219 1.243 . S
C204 C203 1.503 . S
C204 C205 1.394 . S
C204 C209 1.373 . S
C205 C204 1.394 . S
C205 C206 1.380 . S
C205 H228 0.930 1_565 S
C206 C205 1.380 . S
C206 C207 1.376 . S
C206 H229 0.930 . S
C207 C206 1.376 . S
C207 C208 1.370 . S
C208 C207 1.370 . S
C208 C209 1.396 . S
C208 H230 0.929 . S
C209 C204 1.373 . S
C209 C208 1.396 . S
C209 H231 0.929 . S
C210 O220 1.240 1_554 S
C210 O221 1.289 . S
C211 O222 1.258 1_564 S
C211 O223 1.256 . S
O212 La192 2.521 . S
O212 C194 1.261 . S
O213 La192 2.628 . S
O213 C194 1.243 . S
O214 La192 2.554 1_565 S
O214 C201 1.240 . S
O215 La192 2.757 1_565 S
O215 La193 2.482 1_565 S
O215 C201 1.289 . S
O216 La192 2.470 . S
O216 C202 1.258 . S
O217 La193 2.503 . S
O217 C202 1.256 . S
O218 La193 2.521 1_556 S
O218 C203 1.261 1_545 S
O219 La193 2.628 1_566 S
O219 C203 1.243 . S
O220 La193 2.554 1_556 S
O220 C210 1.240 1_556 S
O221 La192 2.482 . S
O221 La193 2.757 . S
O221 C210 1.289 . S
O222 La193 2.470 1_556 S
O222 C211 1.258 1_546 S
O223 La192 2.503 1_565 S
O223 C211 1.256 . S
H224 C196 0.930 . S
H225 C197 0.930 . S
H226 C199 0.929 . S
H227 C200 0.929 . S
H228 C205 0.930 1_545 S
H229 C206 0.930 . S
H230 C208 0.929 . S
H231 C209 0.929 . S
La232 C234 2.928 . S
La232 O252 2.521 . S
La232 O253 2.628 . S
La232 O254 2.554 . S
La232 O255 2.757 . S
La232 O256 2.470 . S
La232 O261 2.482 . S
La232 O263 2.503 . S
La233 C243 2.928 . S
La233 O255 2.482 . S
La233 O257 2.503 . S
La233 O258 2.521 . S
La233 O259 2.628 . S
La233 O260 2.554 . S
La233 O261 2.757 . S
La233 O262 2.470 . S
C234 La232 2.928 . S
C234 C235 1.503 . S
C234 O252 1.261 . S
C234 O253 1.243 . S
C235 C234 1.503 . S
C235 C236 1.394 . S
C235 C240 1.373 . S
C236 C235 1.394 . S
C236 C237 1.380 . S
C236 H264 0.930 . S
C237 C236 1.380 . S
C237 C238 1.376 . S
C237 H265 0.930 . S
C238 C237 1.376 . S
C238 C239 1.370 . S
C239 C238 1.370 . S
C239 C240 1.396 . S
C239 H266 0.929 . S
C240 C235 1.373 . S
C240 C239 1.396 . S
C240 H267 0.929 . S
C241 O254 1.240 . S
C241 O255 1.289 . S
C242 O256 1.258 . S
C242 O257 1.256 . S
C243 La233 2.928 . S
C243 C244 1.503 . S
C243 O258 1.261 . S
C243 O259 1.243 . S
C244 C243 1.503 . S
C244 C245 1.394 . S
C244 C249 1.373 . S
C245 C244 1.394 . S
C245 C246 1.380 . S
C245 H268 0.930 . S
C246 C245 1.380 . S
C246 C247 1.376 . S
C246 H269 0.930 1_565 S
C247 C246 1.376 . S
C247 C248 1.370 . S
C248 C247 1.370 . S
C248 C249 1.396 . S
C248 H270 0.929 . S
C249 C244 1.373 . S
C249 C248 1.396 . S
C249 H271 0.929 . S
C250 O260 1.240 . S
C250 O261 1.289 . S
C251 O262 1.258 . S
C251 O263 1.256 . S
O252 La232 2.521 . S
O252 C234 1.261 . S
O253 La232 2.628 . S
O253 C234 1.243 . S
O254 La232 2.554 . S
O254 C241 1.240 . S
O255 La232 2.757 . S
O255 La233 2.482 . S
O255 C241 1.289 . S
O256 La232 2.470 . S
O256 C242 1.258 . S
O257 La233 2.503 . S
O257 C242 1.256 . S
O258 La233 2.521 . S
O258 C243 1.261 . S
O259 La233 2.628 . S
O259 C243 1.243 . S
O260 La233 2.554 . S
O260 C250 1.240 . S
O261 La232 2.482 . S
O261 La233 2.757 . S
O261 C250 1.289 . S
O262 La233 2.470 . S
O262 C251 1.258 . S
O263 La232 2.503 . S
O263 C251 1.256 . S
H264 C236 0.930 . S
H265 C237 0.930 . S
H266 C239 0.929 . S
H267 C240 0.929 . S
H268 C245 0.930 . S
H269 C246 0.930 1_545 S
H270 C248 0.929 . S
H271 C249 0.929 . S
La272 C274 2.928 . S
La272 O292 2.521 . S
La272 O293 2.628 . S
La272 O294 2.554 1_455 S
La272 O295 2.757 1_455 S
La272 O296 2.470 . S
La272 O301 2.482 1_554 S
La272 O303 2.503 1_455 S
La273 C283 2.928 1_455 S
La273 O295 2.482 1_456 S
La273 O297 2.503 1_556 S
La273 O298 2.521 1_455 S
La273 O299 2.628 1_455 S
La273 O300 2.554 . S
La273 O301 2.757 . S
La273 O302 2.470 1_455 S
C274 La272 2.928 . S
C274 C275 1.503 . S
C274 O292 1.261 . S
C274 O293 1.243 . S
C275 C274 1.503 . S
C275 C276 1.394 . S
C275 C280 1.373 . S
C276 C275 1.394 . S
C276 C277 1.380 . S
C276 H304 0.930 . S
C277 C276 1.380 . S
C277 C278 1.376 . S
C277 H305 0.930 . S
C278 C277 1.376 . S
C278 C279 1.370 . S
C279 C278 1.370 . S
C279 C280 1.396 . S
C279 H306 0.929 . S
C280 C275 1.373 . S
C280 C279 1.396 . S
C280 H307 0.929 . S
C281 O294 1.240 . S
C281 O295 1.289 . S
C282 O296 1.258 . S
C282 O297 1.256 . S
C283 La273 2.928 1_655 S
C283 C284 1.503 . S
C283 O298 1.261 . S
C283 O299 1.243 . S
C284 C283 1.503 . S
C284 C285 1.394 . S
C284 C289 1.373 . S
C285 C284 1.394 . S
C285 C286 1.380 . S
C285 H308 0.930 . S
C286 C285 1.380 . S
C286 C287 1.376 . S
C286 H309 0.930 . S
C287 C286 1.376 . S
C287 C288 1.370 . S
C288 C287 1.370 . S
C288 C289 1.396 . S
C288 H310 0.929 . S
C289 C284 1.373 . S
C289 C288 1.396 . S
C289 H311 0.929 . S
C290 O300 1.240 . S
C290 O301 1.289 . S
C291 O302 1.258 . S
C291 O303 1.256 1_556 S
O292 La272 2.521 . S
O292 C274 1.261 . S
O293 La272 2.628 . S
O293 C274 1.243 . S
O294 La272 2.554 1_655 S
O294 C281 1.240 . S
O295 La272 2.757 1_655 S
O295 La273 2.482 1_654 S
O295 C281 1.289 . S
O296 La272 2.470 . S
O296 C282 1.258 . S
O297 La273 2.503 1_554 S
O297 C282 1.256 . S
O298 La273 2.521 1_655 S
O298 C283 1.261 . S
O299 La273 2.628 1_655 S
O299 C283 1.243 . S
O300 La273 2.554 . S
O300 C290 1.240 . S
O301 La272 2.482 1_556 S
O301 La273 2.757 . S
O301 C290 1.289 . S
O302 La273 2.470 1_655 S
O302 C291 1.258 . S
O303 La272 2.503 1_655 S
O303 C291 1.256 1_554 S
H304 C276 0.930 . S
H305 C277 0.930 . S
H306 C279 0.929 . S
H307 C280 0.929 . S
H308 C285 0.930 . S
H309 C286 0.930 . S
H310 C288 0.929 . S
H311 C289 0.929 . S
C6 C158 1.771 . S
C21 C207 1.942 . S
C242 C49 3.331 . S
C68 C281 3.154 . S
C202 C2 3.851 . S
C161 C30 2.839 1_445 S
C291 C40 3.131 . S
C250 C63 2.781 . S
C11 C278 1.881 . S
C210 C44 3.954 1_554 S
C59 C171 2.922 . S
C25 C247 3.649 . S
C167 C82 1.146 . S
C101 C198 2.367 . S
C125 C251 3.270 . S
C144 C290 3.232 . S
C87 C211 3.964 1_556 S
C170 C97 1.702 . S
C282 C120 2.469 . S
C241 C135 2.751 . S
C78 C287 3.143 . S
C201 C116 2.771 . S
C162 C139 4.055 . S
C106 C238 1.492 . S
