# Generated by pormake.
# Topology tbo, (3,4)-cn, num edge types: 1
# Building blocks:
#     Node 0, Type 0, BuildingBlock: WUSLED_clean_sbu_0, # of connection points: 3
#     Node 1, Type 0, BuildingBlock: WUSLED_clean_sbu_0, # of connection points: 3
#     Node 2, Type 0, BuildingBlock: WUSLED_clean_sbu_0, # of connection points: 3
#     Node 3, Type 0, BuildingBlock: WUSLED_clean_sbu_0, # of connection points: 3
#     Node 4, Type 0, BuildingBlock: WUSLED_clean_sbu_0, # of connection points: 3
#     Node 5, Type 0, BuildingBlock: WUSLED_clean_sbu_0, # of connection points: 3
#     Node 6, Type 0, BuildingBlock: WUSLED_clean_sbu_0, # of connection points: 3
#     Node 7, Type 0, BuildingBlock: WUSLED_clean_sbu_0, # of connection points: 3
#     Node 8, Type 0, BuildingBlock: WUSLED_clean_sbu_0, # of connection points: 3
#     Node 9, Type 0, BuildingBlock: WUSLED_clean_sbu_0, # of connection points: 3
#     Node 10, Type 0, BuildingBlock: WUSLED_clean_sbu_0, # of connection points: 3
#     Node 11, Type 0, BuildingBlock: WUSLED_clean_sbu_0, # of connection points: 3
#     Node 12, Type 0, BuildingBlock: WUSLED_clean_sbu_0, # of connection points: 3
#     Node 13, Type 0, BuildingBlock: WUSLED_clean_sbu_0, # of connection points: 3
#     Node 14, Type 0, BuildingBlock: WUSLED_clean_sbu_0, # of connection points: 3
#     Node 15, Type 0, BuildingBlock: WUSLED_clean_sbu_0, # of connection points: 3
#     Node 16, Type 0, BuildingBlock: WUSLED_clean_sbu_0, # of connection points: 3
#     Node 17, Type 0, BuildingBlock: WUSLED_clean_sbu_0, # of connection points: 3
#     Node 18, Type 0, BuildingBlock: WUSLED_clean_sbu_0, # of connection points: 3
#     Node 19, Type 0, BuildingBlock: WUSLED_clean_sbu_0, # of connection points: 3
#     Node 20, Type 0, BuildingBlock: WUSLED_clean_sbu_0, # of connection points: 3
#     Node 21, Type 0, BuildingBlock: WUSLED_clean_sbu_0, # of connection points: 3
#     Node 22, Type 0, BuildingBlock: WUSLED_clean_sbu_0, # of connection points: 3
#     Node 23, Type 0, BuildingBlock: WUSLED_clean_sbu_0, # of connection points: 3
#     Node 24, Type 0, BuildingBlock: WUSLED_clean_sbu_0, # of connection points: 3
#     Node 25, Type 0, BuildingBlock: WUSLED_clean_sbu_0, # of connection points: 3
#     Node 26, Type 0, BuildingBlock: WUSLED_clean_sbu_0, # of connection points: 3
#     Node 27, Type 0, BuildingBlock: WUSLED_clean_sbu_0, # of connection points: 3
#     Node 28, Type 0, BuildingBlock: WUSLED_clean_sbu_0, # of connection points: 3
#     Node 29, Type 0, BuildingBlock: WUSLED_clean_sbu_0, # of connection points: 3
#     Node 30, Type 0, BuildingBlock: WUSLED_clean_sbu_0, # of connection points: 3
#     Node 31, Type 0, BuildingBlock: WUSLED_clean_sbu_0, # of connection points: 3
#     Node 32, Type 1, BuildingBlock: KUFVIS_clean_linker_0, # of connection points: 4
#     Node 33, Type 1, BuildingBlock: KUFVIS_clean_linker_0, # of connection points: 4
#     Node 34, Type 1, BuildingBlock: KUFVIS_clean_linker_0, # of connection points: 4
#     Node 35, Type 1, BuildingBlock: KUFVIS_clean_linker_0, # of connection points: 4
#     Node 36, Type 1, BuildingBlock: KUFVIS_clean_linker_0, # of connection points: 4
#     Node 37, Type 1, BuildingBlock: KUFVIS_clean_linker_0, # of connection points: 4
#     Node 38, Type 1, BuildingBlock: KUFVIS_clean_linker_0, # of connection points: 4
#     Node 39, Type 1, BuildingBlock: KUFVIS_clean_linker_0, # of connection points: 4
#     Node 40, Type 1, BuildingBlock: KUFVIS_clean_linker_0, # of connection points: 4
#     Node 41, Type 1, BuildingBlock: KUFVIS_clean_linker_0, # of connection points: 4
#     Node 42, Type 1, BuildingBlock: KUFVIS_clean_linker_0, # of connection points: 4
#     Node 43, Type 1, BuildingBlock: KUFVIS_clean_linker_0, # of connection points: 4
#     Node 44, Type 1, BuildingBlock: KUFVIS_clean_linker_0, # of connection points: 4
#     Node 45, Type 1, BuildingBlock: KUFVIS_clean_linker_0, # of connection points: 4
#     Node 46, Type 1, BuildingBlock: KUFVIS_clean_linker_0, # of connection points: 4
#     Node 47, Type 1, BuildingBlock: KUFVIS_clean_linker_0, # of connection points: 4
#     Node 48, Type 1, BuildingBlock: KUFVIS_clean_linker_0, # of connection points: 4
#     Node 49, Type 1, BuildingBlock: KUFVIS_clean_linker_0, # of connection points: 4
#     Node 50, Type 1, BuildingBlock: KUFVIS_clean_linker_0, # of connection points: 4
#     Node 51, Type 1, BuildingBlock: KUFVIS_clean_linker_0, # of connection points: 4
#     Node 52, Type 1, BuildingBlock: KUFVIS_clean_linker_0, # of connection points: 4
#     Node 53, Type 1, BuildingBlock: KUFVIS_clean_linker_0, # of connection points: 4
#     Node 54, Type 1, BuildingBlock: KUFVIS_clean_linker_0, # of connection points: 4
#     Node 55, Type 1, BuildingBlock: KUFVIS_clean_linker_0, # of connection points: 4
#     Edge 56, Type (0, 1), BuildingBlock: ZUJKAS_clean_linker_0, # of connection points: 2
#     Edge 57, Type (0, 1), BuildingBlock: ZUJKAS_clean_linker_0, # of connection points: 2
#     Edge 58, Type (0, 1), BuildingBlock: ZUJKAS_clean_linker_0, # of connection points: 2
#     Edge 59, Type (0, 1), BuildingBlock: ZUJKAS_clean_linker_0, # of connection points: 2
#     Edge 60, Type (0, 1), BuildingBlock: ZUJKAS_clean_linker_0, # of connection points: 2
#     Edge 61, Type (0, 1), BuildingBlock: ZUJKAS_clean_linker_0, # of connection points: 2
#     Edge 62, Type (0, 1), BuildingBlock: ZUJKAS_clean_linker_0, # of connection points: 2
#     Edge 63, Type (0, 1), BuildingBlock: ZUJKAS_clean_linker_0, # of connection points: 2
#     Edge 64, Type (0, 1), BuildingBlock: ZUJKAS_clean_linker_0, # of connection points: 2
#     Edge 65, Type (0, 1), BuildingBlock: ZUJKAS_clean_linker_0, # of connection points: 2
#     Edge 66, Type (0, 1), BuildingBlock: ZUJKAS_clean_linker_0, # of connection points: 2
#     Edge 67, Type (0, 1), BuildingBlock: ZUJKAS_clean_linker_0, # of connection points: 2
#     Edge 68, Type (0, 1), BuildingBlock: ZUJKAS_clean_linker_0, # of connection points: 2
#     Edge 69, Type (0, 1), BuildingBlock: ZUJKAS_clean_linker_0, # of connection points: 2
#     Edge 70, Type (0, 1), BuildingBlock: ZUJKAS_clean_linker_0, # of connection points: 2
#     Edge 71, Type (0, 1), BuildingBlock: ZUJKAS_clean_linker_0, # of connection points: 2
#     Edge 72, Type (0, 1), BuildingBlock: ZUJKAS_clean_linker_0, # of connection points: 2
#     Edge 73, Type (0, 1), BuildingBlock: ZUJKAS_clean_linker_0, # of connection points: 2
#     Edge 74, Type (0, 1), BuildingBlock: ZUJKAS_clean_linker_0, # of connection points: 2
#     Edge 75, Type (0, 1), BuildingBlock: ZUJKAS_clean_linker_0, # of connection points: 2
#     Edge 76, Type (0, 1), BuildingBlock: ZUJKAS_clean_linker_0, # of connection points: 2
#     Edge 77, Type (0, 1), BuildingBlock: ZUJKAS_clean_linker_0, # of connection points: 2
#     Edge 78, Type (0, 1), BuildingBlock: ZUJKAS_clean_linker_0, # of connection points: 2
#     Edge 79, Type (0, 1), BuildingBlock: ZUJKAS_clean_linker_0, # of connection points: 2
#     Edge 80, Type (0, 1), BuildingBlock: ZUJKAS_clean_linker_0, # of connection points: 2
#     Edge 81, Type (0, 1), BuildingBlock: ZUJKAS_clean_linker_0, # of connection points: 2
#     Edge 82, Type (0, 1), BuildingBlock: ZUJKAS_clean_linker_0, # of connection points: 2
#     Edge 83, Type (0, 1), BuildingBlock: ZUJKAS_clean_linker_0, # of connection points: 2
#     Edge 84, Type (0, 1), BuildingBlock: ZUJKAS_clean_linker_0, # of connection points: 2
#     Edge 85, Type (0, 1), BuildingBlock: ZUJKAS_clean_linker_0, # of connection points: 2
#     Edge 86, Type (0, 1), BuildingBlock: ZUJKAS_clean_linker_0, # of connection points: 2
#     Edge 87, Type (0, 1), BuildingBlock: ZUJKAS_clean_linker_0, # of connection points: 2
#     Edge 88, Type (0, 1), BuildingBlock: ZUJKAS_clean_linker_0, # of connection points: 2
#     Edge 89, Type (0, 1), BuildingBlock: ZUJKAS_clean_linker_0, # of connection points: 2
#     Edge 90, Type (0, 1), BuildingBlock: ZUJKAS_clean_linker_0, # of connection points: 2
#     Edge 91, Type (0, 1), BuildingBlock: ZUJKAS_clean_linker_0, # of connection points: 2
#     Edge 92, Type (0, 1), BuildingBlock: ZUJKAS_clean_linker_0, # of connection points: 2
#     Edge 93, Type (0, 1), BuildingBlock: ZUJKAS_clean_linker_0, # of connection points: 2
#     Edge 94, Type (0, 1), BuildingBlock: ZUJKAS_clean_linker_0, # of connection points: 2
#     Edge 95, Type (0, 1), BuildingBlock: ZUJKAS_clean_linker_0, # of connection points: 2
#     Edge 96, Type (0, 1), BuildingBlock: ZUJKAS_clean_linker_0, # of connection points: 2
#     Edge 97, Type (0, 1), BuildingBlock: ZUJKAS_clean_linker_0, # of connection points: 2
#     Edge 98, Type (0, 1), BuildingBlock: ZUJKAS_clean_linker_0, # of connection points: 2
#     Edge 99, Type (0, 1), BuildingBlock: ZUJKAS_clean_linker_0, # of connection points: 2
#     Edge 100, Type (0, 1), BuildingBlock: ZUJKAS_clean_linker_0, # of connection points: 2
#     Edge 101, Type (0, 1), BuildingBlock: ZUJKAS_clean_linker_0, # of connection points: 2
#     Edge 102, Type (0, 1), BuildingBlock: ZUJKAS_clean_linker_0, # of connection points: 2
#     Edge 103, Type (0, 1), BuildingBlock: ZUJKAS_clean_linker_0, # of connection points: 2
#     Edge 104, Type (0, 1), BuildingBlock: ZUJKAS_clean_linker_0, # of connection points: 2
#     Edge 105, Type (0, 1), BuildingBlock: ZUJKAS_clean_linker_0, # of connection points: 2
#     Edge 106, Type (0, 1), BuildingBlock: ZUJKAS_clean_linker_0, # of connection points: 2
#     Edge 107, Type (0, 1), BuildingBlock: ZUJKAS_clean_linker_0, # of connection points: 2
#     Edge 108, Type (0, 1), BuildingBlock: ZUJKAS_clean_linker_0, # of connection points: 2
#     Edge 109, Type (0, 1), BuildingBlock: ZUJKAS_clean_linker_0, # of connection points: 2
#     Edge 110, Type (0, 1), BuildingBlock: ZUJKAS_clean_linker_0, # of connection points: 2
#     Edge 111, Type (0, 1), BuildingBlock: ZUJKAS_clean_linker_0, # of connection points: 2
#     Edge 112, Type (0, 1), BuildingBlock: ZUJKAS_clean_linker_0, # of connection points: 2
#     Edge 113, Type (0, 1), BuildingBlock: ZUJKAS_clean_linker_0, # of connection points: 2
#     Edge 114, Type (0, 1), BuildingBlock: ZUJKAS_clean_linker_0, # of connection points: 2
#     Edge 115, Type (0, 1), BuildingBlock: ZUJKAS_clean_linker_0, # of connection points: 2
#     Edge 116, Type (0, 1), BuildingBlock: ZUJKAS_clean_linker_0, # of connection points: 2
#     Edge 117, Type (0, 1), BuildingBlock: ZUJKAS_clean_linker_0, # of connection points: 2
#     Edge 118, Type (0, 1), BuildingBlock: ZUJKAS_clean_linker_0, # of connection points: 2
#     Edge 119, Type (0, 1), BuildingBlock: ZUJKAS_clean_linker_0, # of connection points: 2
#     Edge 120, Type (0, 1), BuildingBlock: ZUJKAS_clean_linker_0, # of connection points: 2
#     Edge 121, Type (0, 1), BuildingBlock: ZUJKAS_clean_linker_0, # of connection points: 2
#     Edge 122, Type (0, 1), BuildingBlock: ZUJKAS_clean_linker_0, # of connection points: 2
#     Edge 123, Type (0, 1), BuildingBlock: ZUJKAS_clean_linker_0, # of connection points: 2
#     Edge 124, Type (0, 1), BuildingBlock: ZUJKAS_clean_linker_0, # of connection points: 2
#     Edge 125, Type (0, 1), BuildingBlock: ZUJKAS_clean_linker_0, # of connection points: 2
#     Edge 126, Type (0, 1), BuildingBlock: ZUJKAS_clean_linker_0, # of connection points: 2
#     Edge 127, Type (0, 1), BuildingBlock: ZUJKAS_clean_linker_0, # of connection points: 2
#     Edge 128, Type (0, 1), BuildingBlock: ZUJKAS_clean_linker_0, # of connection points: 2
#     Edge 129, Type (0, 1), BuildingBlock: ZUJKAS_clean_linker_0, # of connection points: 2
#     Edge 130, Type (0, 1), BuildingBlock: ZUJKAS_clean_linker_0, # of connection points: 2
#     Edge 131, Type (0, 1), BuildingBlock: ZUJKAS_clean_linker_0, # of connection points: 2
#     Edge 132, Type (0, 1), BuildingBlock: ZUJKAS_clean_linker_0, # of connection points: 2
#     Edge 133, Type (0, 1), BuildingBlock: ZUJKAS_clean_linker_0, # of connection points: 2
#     Edge 134, Type (0, 1), BuildingBlock: ZUJKAS_clean_linker_0, # of connection points: 2
#     Edge 135, Type (0, 1), BuildingBlock: ZUJKAS_clean_linker_0, # of connection points: 2
#     Edge 136, Type (0, 1), BuildingBlock: ZUJKAS_clean_linker_0, # of connection points: 2
#     Edge 137, Type (0, 1), BuildingBlock: ZUJKAS_clean_linker_0, # of connection points: 2
#     Edge 138, Type (0, 1), BuildingBlock: ZUJKAS_clean_linker_0, # of connection points: 2
#     Edge 139, Type (0, 1), BuildingBlock: ZUJKAS_clean_linker_0, # of connection points: 2
#     Edge 140, Type (0, 1), BuildingBlock: ZUJKAS_clean_linker_0, # of connection points: 2
#     Edge 141, Type (0, 1), BuildingBlock: ZUJKAS_clean_linker_0, # of connection points: 2
#     Edge 142, Type (0, 1), BuildingBlock: ZUJKAS_clean_linker_0, # of connection points: 2
#     Edge 143, Type (0, 1), BuildingBlock: ZUJKAS_clean_linker_0, # of connection points: 2
#     Edge 144, Type (0, 1), BuildingBlock: ZUJKAS_clean_linker_0, # of connection points: 2
#     Edge 145, Type (0, 1), BuildingBlock: ZUJKAS_clean_linker_0, # of connection points: 2
#     Edge 146, Type (0, 1), BuildingBlock: ZUJKAS_clean_linker_0, # of connection points: 2
#     Edge 147, Type (0, 1), BuildingBlock: ZUJKAS_clean_linker_0, # of connection points: 2
#     Edge 148, Type (0, 1), BuildingBlock: ZUJKAS_clean_linker_0, # of connection points: 2
#     Edge 149, Type (0, 1), BuildingBlock: ZUJKAS_clean_linker_0, # of connection points: 2
#     Edge 150, Type (0, 1), BuildingBlock: ZUJKAS_clean_linker_0, # of connection points: 2
#     Edge 151, Type (0, 1), BuildingBlock: ZUJKAS_clean_linker_0, # of connection points: 2
# Relax obj value: 0.000
# Max RMSD: 0.054
# Mean RMSD: 0.026
data_MOF--net-tbo--node1-WUSLED_clean_sbu_0--node2-KUFVIS_clean_linker_0--edge1-ZUJKAS_clean_linker_0
_symmetry_space_group_name_H-M    P1
_symmetry_Int_Tables_number       1
_symmetry_cell_setting            triclinic
loop_
_symmetry_equiv_pos_as_xyz
'x, y, z'
_cell_length_a     115.97835
_cell_length_b     116.4125
_cell_length_c     116.12392
_cell_angle_alpha  89.645112
_cell_angle_beta   90.347327
_cell_angle_gamma 90.739712
loop_
_atom_site_label
_atom_site_type_symbol
_atom_site_fract_x
_atom_site_fract_y
_atom_site_fract_z
_atom_type_partial_charge
C0 C 0.17717 0.14702 0.19898 0.0
C1 C 0.18578 0.14217 0.19217 0.0
C2 C 0.18925 0.12745 0.20687 0.0
C3 C 0.19176 0.13247 0.19607 0.0
C4 C 0.18061 0.13242 0.21363 0.0
C5 C 0.17465 0.14208 0.20972 0.0
U6 U 0.17185 0.17248 0.17833 0.0
O7 O 0.15543 0.17926 0.17171 0.0
O8 O 0.16674 0.19018 0.18231 0.0
C9 C 0.15675 0.18915 0.17699 0.0
C10 C 0.17073 0.15722 0.19512 0.0
C11 C 0.14663 0.19339 0.18326 0.0
C12 C 0.13219 0.19167 0.19834 0.0
C13 C 0.14183 0.18734 0.1926 0.0
C14 C 0.13211 0.20809 0.18544 0.0
C15 C 0.12723 0.20214 0.19485 0.0
C16 C 0.14169 0.20376 0.17973 0.0
C17 C 0.19245 0.17717 0.15251 0.0
C18 C 0.19173 0.19303 0.13876 0.0
C19 C 0.2062 0.17837 0.13681 0.0
C20 C 0.20184 0.17272 0.14655 0.0
C21 C 0.20126 0.18865 0.13281 0.0
C22 C 0.18737 0.18735 0.14855 0.0
C23 C 0.18829 0.17105 0.16289 0.0
O24 O 0.17621 0.16712 0.19604 0.0
O25 O 0.16501 0.15618 0.18536 0.0
O26 O 0.17829 0.16569 0.16194 0.0
O27 O 0.18954 0.17652 0.17269 0.0
H28 H 0.18785 0.14586 0.18383 0.0
H29 H 0.19825 0.12884 0.19057 0.0
H30 H 0.17857 0.12896 0.22207 0.0
H31 H 0.16808 0.14573 0.21513 0.0
H32 H 0.12874 0.18691 0.20561 0.0
H33 H 0.14554 0.17932 0.19547 0.0
H34 H 0.12844 0.21606 0.18238 0.0
H35 H 0.14525 0.20853 0.17251 0.0
H36 H 0.18777 0.20096 0.13599 0.0
H37 H 0.2134 0.17462 0.13236 0.0
H38 H 0.20585 0.16484 0.14944 0.0
H39 H 0.18011 0.19093 0.15306 0.0
C40 C 0.83389 0.17785 0.14929 0.0
C41 C 0.83749 0.18932 0.1478 0.0
C42 C 0.82627 0.19068 0.12999 0.0
C43 C 0.8337 0.19569 0.13824 0.0
C44 C 0.8229 0.1791 0.13145 0.0
C45 C 0.82666 0.17278 0.141 0.0
U46 U 0.85366 0.17179 0.17528 0.0
O47 O 0.8491 0.16601 0.19277 0.0
O48 O 0.85994 0.15525 0.18194 0.0
C49 C 0.85425 0.15609 0.19165 0.0
C50 C 0.83734 0.17108 0.15948 0.0
C51 C 0.84746 0.14587 0.19507 0.0
C52 C 0.83112 0.1328 0.19252 0.0
C53 C 0.83743 0.14256 0.18906 0.0
C54 C 0.84481 0.12958 0.208 0.0
C55 C 0.83474 0.12616 0.20204 0.0
C56 C 0.85109 0.13932 0.20454 0.0
C57 C 0.8797 0.19172 0.18139 0.0
C58 C 0.89074 0.19235 0.19928 0.0
C59 C 0.89776 0.2025 0.18241 0.0
C60 C 0.88814 0.19866 0.17615 0.0
C61 C 0.89915 0.1995 0.1941 0.0
C62 C 0.88111 0.18848 0.19298 0.0
C63 C 0.86947 0.18817 0.17465 0.0
O64 O 0.84705 0.16548 0.15861 0.0
O65 O 0.83616 0.17614 0.16949 0.0
O66 O 0.85945 0.18927 0.17974 0.0
O67 O 0.87035 0.17848 0.16899 0.0
H68 H 0.8431 0.19339 0.1541 0.0
H69 H 0.83639 0.2046 0.13747 0.0
H70 H 0.81736 0.17489 0.12519 0.0
H71 H 0.82384 0.16391 0.14197 0.0
H72 H 0.82347 0.13037 0.18767 0.0
H73 H 0.83451 0.14752 0.18169 0.0
H74 H 0.84776 0.12481 0.21547 0.0
H75 H 0.85878 0.14178 0.20931 0.0
H76 H 0.89144 0.18995 0.20828 0.0
H77 H 0.90415 0.2078 0.17806 0.0
H78 H 0.88724 0.20119 0.16719 0.0
H79 H 0.87469 0.18309 0.19718 0.0
C80 C 0.83244 0.84502 0.15166 0.0
C81 C 0.84044 0.83876 0.14527 0.0
C82 C 0.82512 0.83216 0.13223 0.0
C83 C 0.83682 0.83242 0.13562 0.0
C84 C 0.81717 0.83838 0.13875 0.0
C85 C 0.8208 0.84473 0.14834 0.0
U86 U 0.85207 0.85277 0.17766 0.0
O87 O 0.85772 0.86984 0.18376 0.0
O88 O 0.84705 0.85877 0.19484 0.0
C89 C 0.85182 0.86898 0.19338 0.0
C90 C 0.83593 0.85211 0.16163 0.0
C91 C 0.84491 0.87907 0.19687 0.0
C92 C 0.84147 0.89974 0.19644 0.0
C93 C 0.8471 0.89007 0.19218 0.0
C94 C 0.83122 0.88767 0.21007 0.0
C95 C 0.83357 0.8987 0.20556 0.0
C96 C 0.83684 0.87801 0.20582 0.0
C97 C 0.8784 0.83367 0.18519 0.0
C98 C 0.89834 0.83658 0.19147 0.0
C99 C 0.88815 0.81907 0.19667 0.0
C100 C 0.87834 0.82295 0.19082 0.0
C101 C 0.89833 0.82578 0.19699 0.0
C102 C 0.8885 0.84049 0.18564 0.0
C103 C 0.86819 0.83705 0.17821 0.0
O104 O 0.83473 0.84729 0.17182 0.0
O105 O 0.84557 0.8581 0.16063 0.0
O106 O 0.869 0.84657 0.17209 0.0
O107 O 0.85806 0.83566 0.18309 0.0
H108 H 0.84947 0.83882 0.1477 0.0
H109 H 0.84316 0.82763 0.13089 0.0
H110 H 0.80814 0.83854 0.13633 0.0
H111 H 0.81449 0.84953 0.15311 0.0
H112 H 0.84361 0.90809 0.19283 0.0
H113 H 0.85339 0.89127 0.18541 0.0
H114 H 0.82509 0.88649 0.21698 0.0
H115 H 0.83504 0.86973 0.20975 0.0
H116 H 0.90598 0.84203 0.19164 0.0
H117 H 0.88785 0.81064 0.20067 0.0
H118 H 0.87076 0.81743 0.19048 0.0
H119 H 0.88888 0.84878 0.18137 0.0
C120 C 0.14653 0.83432 0.18099 0.0
C121 C 0.14394 0.83975 0.1914 0.0
C122 C 0.12691 0.82741 0.19377 0.0
C123 C 0.13423 0.83631 0.19775 0.0
C124 C 0.12957 0.82206 0.18329 0.0
C125 C 0.13927 0.82549 0.17698 0.0
U126 U 0.17276 0.85386 0.1747 0.0
O127 O 0.19019 0.84921 0.16913 0.0
O128 O 0.17944 0.86005 0.15803 0.0
C129 C 0.18909 0.85433 0.15907 0.0
C130 C 0.15676 0.83765 0.17421 0.0
C131 C 0.19245 0.84755 0.14897 0.0
C132 C 0.19037 0.8308 0.13665 0.0
C133 C 0.18693 0.8371 0.14627 0.0
C134 C 0.20483 0.84537 0.13233 0.0
C135 C 0.19937 0.83487 0.12954 0.0
C136 C 0.20139 0.85163 0.14193 0.0
C137 C 0.17896 0.87977 0.19458 0.0
C138 C 0.19614 0.892 0.19405 0.0
C139 C 0.18063 0.89634 0.20713 0.0
C140 C 0.17438 0.88683 0.20308 0.0
C141 C 0.19165 0.899 0.20277 0.0
C142 C 0.18985 0.88245 0.19 0.0
C143 C 0.17228 0.86958 0.19087 0.0
O144 O 0.156 0.84732 0.16837 0.0
O145 O 0.16676 0.83646 0.17943 0.0
O146 O 0.17739 0.85963 0.19215 0.0
O147 O 0.1667 0.87052 0.18103 0.0
H148 H 0.14944 0.84663 0.19462 0.0
H149 H 0.13239 0.84069 0.20572 0.0
H150 H 0.12425 0.81507 0.18004 0.0
H151 H 0.14115 0.82117 0.16898 0.0
H152 H 0.18591 0.82281 0.13471 0.0
H153 H 0.17997 0.83383 0.15159 0.0
H154 H 0.2119 0.84869 0.12719 0.0
H155 H 0.20578 0.85966 0.1439 0.0
H156 H 0.20463 0.89374 0.19056 0.0
H157 H 0.1768 0.90163 0.21369 0.0
H158 H 0.16596 0.88494 0.20668 0.0
H159 H 0.19353 0.87709 0.18341 0.0
C160 C 0.14738 0.83281 0.85395 0.0
C161 C 0.14326 0.83815 0.84389 0.0
C162 C 0.12787 0.8237 0.84229 0.0
C163 C 0.13357 0.83363 0.83811 0.0
C164 C 0.13204 0.81848 0.85243 0.0
C165 C 0.14169 0.823 0.85818 0.0
U166 U 0.17248 0.85441 0.85866 0.0
O167 O 0.17916 0.86145 0.87501 0.0
O168 O 0.19032 0.85109 0.8641 0.0
C169 C 0.18909 0.85624 0.87406 0.0
C170 C 0.15759 0.83724 0.86018 0.0
C171 C 0.19308 0.8499 0.88438 0.0
C172 C 0.19734 0.83207 0.89453 0.0
C173 C 0.19304 0.83783 0.88482 0.0
C174 C 0.2015 0.85034 0.90362 0.0
C175 C 0.20168 0.83826 0.90403 0.0
C176 C 0.19727 0.85608 0.89388 0.0
C177 C 0.17711 0.88012 0.83812 0.0
C178 C 0.19497 0.89081 0.83471 0.0
C179 C 0.17669 0.899 0.82902 0.0
C180 C 0.17093 0.8892 0.8332 0.0
C181 C 0.18879 0.89988 0.82963 0.0
C182 C 0.18918 0.88104 0.83896 0.0
C183 C 0.17081 0.86969 0.84199 0.0
O184 O 0.16746 0.83655 0.85475 0.0
O185 O 0.15631 0.84707 0.86551 0.0
O186 O 0.16527 0.87052 0.85179 0.0
O187 O 0.17622 0.8599 0.84091 0.0
H188 H 0.14757 0.84574 0.84049 0.0
H189 H 0.13067 0.83781 0.83028 0.0
H190 H 0.12777 0.81095 0.85602 0.0
H191 H 0.14471 0.81879 0.86597 0.0
H192 H 0.19723 0.82277 0.89463 0.0
H193 H 0.18976 0.83285 0.87763 0.0
H194 H 0.20488 0.85537 0.91073 0.0
H195 H 0.1974 0.86539 0.89372 0.0
H196 H 0.20427 0.89128 0.83544 0.0
H197 H 0.17168 0.90576 0.82506 0.0
H198 H 0.16162 0.88866 0.83245 0.0
H199 H 0.19415 0.87418 0.8428 0.0
C200 C 0.14679 0.17847 0.83696 0.0
C201 C 0.14363 0.18832 0.84304 0.0
C202 C 0.12718 0.19112 0.83009 0.0
C203 C 0.13393 0.19459 0.83963 0.0
C204 C 0.13041 0.1812 0.82409 0.0
C205 C 0.14011 0.17496 0.8275 0.0
U206 U 0.17288 0.17245 0.8566 0.0
O207 O 0.17978 0.15594 0.86268 0.0
O208 O 0.1905 0.16739 0.85202 0.0
C209 C 0.18958 0.15734 0.85717 0.0
C210 C 0.15706 0.17181 0.84025 0.0
C211 C 0.19369 0.14736 0.85064 0.0
C212 C 0.19134 0.13277 0.83582 0.0
C213 C 0.18713 0.1423 0.84178 0.0
C214 C 0.2087 0.13333 0.8475 0.0
C215 C 0.20222 0.12818 0.83858 0.0
C216 C 0.20448 0.1428 0.85343 0.0
C217 C 0.17818 0.1926 0.88269 0.0
C218 C 0.1941 0.19153 0.89642 0.0
C219 C 0.17981 0.20637 0.89828 0.0
C220 C 0.174 0.20212 0.88859 0.0
C221 C 0.18998 0.2012 0.90231 0.0
C222 C 0.18826 0.18728 0.88667 0.0
C223 C 0.17187 0.18855 0.87238 0.0
O224 O 0.16703 0.17718 0.83915 0.0
O225 O 0.15627 0.16587 0.84989 0.0
O226 O 0.16653 0.17856 0.8733 0.0
O227 O 0.17714 0.18995 0.86248 0.0
H228 H 0.14868 0.19116 0.85039 0.0
H229 H 0.13165 0.20211 0.84453 0.0
H230 H 0.12558 0.17836 0.8166 0.0
H231 H 0.14243 0.16741 0.82267 0.0
H232 H 0.18616 0.12911 0.82894 0.0
H233 H 0.17878 0.14572 0.83947 0.0
H234 H 0.217 0.12994 0.85002 0.0
H235 H 0.20966 0.14654 0.86028 0.0
H236 H 0.20194 0.18738 0.89922 0.0
H237 H 0.17625 0.21368 0.90269 0.0
H238 H 0.16621 0.20632 0.88568 0.0
H239 H 0.19163 0.17991 0.8822 0.0
C240 C 0.83285 0.14646 0.85423 0.0
C241 C 0.83412 0.1458 0.84223 0.0
C242 C 0.82497 0.12678 0.84217 0.0
C243 C 0.83017 0.13607 0.83625 0.0
C244 C 0.82393 0.12742 0.85422 0.0
C245 C 0.82782 0.13716 0.86016 0.0
U246 U 0.85217 0.17315 0.85991 0.0
O247 O 0.84716 0.19036 0.86564 0.0
O248 O 0.85853 0.17991 0.87649 0.0
C249 C 0.85252 0.18937 0.8756 0.0
C250 C 0.83632 0.15681 0.86074 0.0
C251 C 0.84581 0.19251 0.88583 0.0
C252 C 0.82936 0.18986 0.89854 0.0
C253 C 0.83565 0.18656 0.88885 0.0
C254 C 0.84334 0.20502 0.90229 0.0
C255 C 0.83313 0.19915 0.90539 0.0
C256 C 0.8496 0.20173 0.89262 0.0
C257 C 0.87775 0.18034 0.83962 0.0
C258 C 0.89725 0.18796 0.84243 0.0
C259 C 0.88756 0.19066 0.82412 0.0
C260 C 0.87787 0.18474 0.82833 0.0
C261 C 0.89743 0.19225 0.83107 0.0
C262 C 0.88751 0.18209 0.84667 0.0
C263 C 0.86768 0.17334 0.84348 0.0
O264 O 0.84618 0.15625 0.86635 0.0
O265 O 0.83477 0.16676 0.85557 0.0
O266 O 0.8575 0.17807 0.84234 0.0
O267 O 0.86883 0.16752 0.85315 0.0
H268 H 0.83804 0.15285 0.83747 0.0
H269 H 0.83123 0.1358 0.827 0.0
H270 H 0.81985 0.12052 0.85905 0.0
H271 H 0.82673 0.1375 0.86942 0.0
H272 H 0.8216 0.18507 0.90072 0.0
H273 H 0.8326 0.17939 0.88371 0.0
H274 H 0.84642 0.21232 0.90722 0.0
H275 H 0.85739 0.20646 0.8904 0.0
H276 H 0.90464 0.18915 0.84806 0.0
H277 H 0.88744 0.19371 0.81529 0.0
H278 H 0.87052 0.18341 0.82267 0.0
H279 H 0.88771 0.17881 0.85542 0.0
C280 C 0.84662 0.87907 0.83564 0.0
C281 C 0.84536 0.8887 0.84278 0.0
C282 C 0.83464 0.89871 0.82767 0.0
C283 C 0.83945 0.89841 0.83883 0.0
C284 C 0.83576 0.889 0.82064 0.0
C285 C 0.84171 0.87933 0.82456 0.0
U286 U 0.85409 0.85303 0.85524 0.0
O287 O 0.86024 0.83595 0.85032 0.0
O288 O 0.87116 0.84711 0.86107 0.0
C289 C 0.87045 0.83757 0.85508 0.0
C290 C 0.85365 0.86905 0.83916 0.0
C291 C 0.8807 0.83463 0.84809 0.0
C292 C 0.88934 0.82667 0.8308 0.0
C293 C 0.8796 0.83021 0.83687 0.0
C294 C 0.90151 0.83205 0.84691 0.0
C295 C 0.90043 0.82745 0.83577 0.0
C296 C 0.89178 0.83554 0.853 0.0
C297 C 0.83429 0.84619 0.88143 0.0
C298 C 0.83746 0.83199 0.89658 0.0
C299 C 0.81966 0.84262 0.89599 0.0
C300 C 0.82346 0.84846 0.88613 0.0
C301 C 0.82662 0.83434 0.90141 0.0
C302 C 0.84128 0.83788 0.88668 0.0
C303 C 0.83801 0.85277 0.87116 0.0
O304 O 0.85971 0.86998 0.84874 0.0
O305 O 0.84882 0.85886 0.8379 0.0
O306 O 0.83685 0.84757 0.8612 0.0
O307 O 0.84772 0.85865 0.87209 0.0
H308 H 0.84905 0.88881 0.85137 0.0
H309 H 0.83865 0.90568 0.84452 0.0
H310 H 0.8323 0.88897 0.81195 0.0
H311 H 0.84266 0.8721 0.81883 0.0
H312 H 0.88811 0.82303 0.82232 0.0
H313 H 0.87121 0.82927 0.83283 0.0
H314 H 0.90989 0.83296 0.85098 0.0
H315 H 0.89291 0.83883 0.86164 0.0
H316 H 0.84309 0.82574 0.90055 0.0
H317 H 0.81119 0.84451 0.89928 0.0
H318 H 0.81792 0.8548 0.88218 0.0
H319 H 0.84967 0.83601 0.88317 0.0
C320 C 0.17875 0.64666 0.69829 0.0
C321 C 0.18901 0.64307 0.69314 0.0
C322 C 0.19025 0.62696 0.70672 0.0
C323 C 0.1947 0.63329 0.69731 0.0
C324 C 0.17988 0.63059 0.71171 0.0
C325 C 0.17423 0.64032 0.70754 0.0
U326 U 0.17368 0.67264 0.67786 0.0
O327 O 0.15719 0.67961 0.67171 0.0
O328 O 0.16868 0.69024 0.68241 0.0
C329 C 0.15859 0.68935 0.67725 0.0
C330 C 0.17264 0.65704 0.69436 0.0
C331 C 0.14857 0.69337 0.68383 0.0
C332 C 0.13312 0.69032 0.69767 0.0
C333 C 0.14279 0.68628 0.69179 0.0
C334 C 0.13498 0.70859 0.68775 0.0
C335 C 0.12904 0.70153 0.69568 0.0
C336 C 0.14462 0.70455 0.6819 0.0
C337 C 0.19337 0.67824 0.65158 0.0
C338 C 0.19781 0.69624 0.64161 0.0
C339 C 0.20133 0.67813 0.63221 0.0
C340 C 0.19719 0.67223 0.64192 0.0
C341 C 0.2018 0.69022 0.63196 0.0
C342 C 0.1936 0.69032 0.65131 0.0
C343 C 0.18966 0.67169 0.66192 0.0
O344 O 0.17833 0.66683 0.69534 0.0
O345 O 0.16687 0.65618 0.68463 0.0
O346 O 0.17972 0.6662 0.66114 0.0
O347 O 0.19125 0.67672 0.67193 0.0
H348 H 0.19265 0.64787 0.68599 0.0
H349 H 0.2027 0.63082 0.69332 0.0
H350 H 0.17607 0.62585 0.71881 0.0
H351 H 0.16629 0.64292 0.71159 0.0
H352 H 0.12873 0.68459 0.70363 0.0
H353 H 0.14571 0.67761 0.6934 0.0
H354 H 0.13227 0.71732 0.68615 0.0
H355 H 0.14898 0.71018 0.67582 0.0
H356 H 0.1979 0.70554 0.64166 0.0
H357 H 0.20444 0.67321 0.62502 0.0
H358 H 0.19714 0.66292 0.64194 0.0
H359 H 0.19065 0.69518 0.65862 0.0
C360 C 0.83282 0.67733 0.65032 0.0
C361 C 0.83853 0.68725 0.64627 0.0
C362 C 0.82388 0.68961 0.63125 0.0
C363 C 0.8341 0.69333 0.63679 0.0
C364 C 0.81831 0.67959 0.63533 0.0
C365 C 0.82274 0.67353 0.64476 0.0
U366 U 0.85371 0.67203 0.67582 0.0
O367 O 0.8496 0.66579 0.69326 0.0
O368 O 0.86064 0.6556 0.68209 0.0
C369 C 0.85499 0.65605 0.69185 0.0
C370 C 0.83708 0.67082 0.66035 0.0
C371 C 0.84839 0.64562 0.69501 0.0
C372 C 0.83184 0.63279 0.69259 0.0
C373 C 0.83812 0.64262 0.68926 0.0
C374 C 0.8461 0.62883 0.70736 0.0
C375 C 0.83575 0.62578 0.7017 0.0
C376 C 0.85235 0.63865 0.70404 0.0
C377 C 0.87892 0.69277 0.68246 0.0
C378 C 0.89584 0.68864 0.69423 0.0
C379 C 0.891 0.70835 0.68979 0.0
C380 C 0.8814 0.70454 0.68346 0.0
C381 C 0.89837 0.70045 0.69522 0.0
C382 C 0.88617 0.68483 0.68795 0.0
C383 C 0.86882 0.68905 0.67556 0.0
O384 O 0.8471 0.66582 0.65914 0.0
O385 O 0.83592 0.67578 0.6704 0.0
O386 O 0.85878 0.68966 0.6807 0.0
O387 O 0.86999 0.6796 0.66955 0.0
H388 H 0.84633 0.69032 0.65048 0.0
H389 H 0.83855 0.70107 0.63394 0.0
H390 H 0.81054 0.67637 0.63119 0.0
H391 H 0.81825 0.66586 0.64774 0.0
H392 H 0.82398 0.63064 0.68796 0.0
H393 H 0.83495 0.6479 0.68224 0.0
H394 H 0.84928 0.62375 0.71452 0.0
H395 H 0.86023 0.64086 0.70861 0.0
H396 H 0.90126 0.68234 0.69841 0.0
H397 H 0.89276 0.7175 0.69025 0.0
H398 H 0.87592 0.71081 0.67929 0.0
H399 H 0.88438 0.67569 0.68736 0.0
C400 C 0.83348 0.34934 0.65139 0.0
C401 C 0.83884 0.33933 0.64756 0.0
C402 C 0.8249 0.33765 0.63173 0.0
C403 C 0.8346 0.33354 0.6378 0.0
C404 C 0.81968 0.34776 0.63562 0.0
C405 C 0.82392 0.35351 0.64533 0.0
U406 U 0.85408 0.35462 0.67731 0.0
O407 O 0.86069 0.37111 0.68404 0.0
O408 O 0.84974 0.36006 0.69487 0.0
C409 C 0.8552 0.36997 0.69385 0.0
C410 C 0.83756 0.3556 0.6617 0.0
C411 C 0.84899 0.38016 0.69789 0.0
C412 C 0.83297 0.39347 0.6969 0.0
C413 C 0.83872 0.38383 0.69266 0.0
C414 C 0.84774 0.39584 0.71155 0.0
C415 C 0.83738 0.39955 0.70646 0.0
C416 C 0.85346 0.38626 0.70731 0.0
C417 C 0.8798 0.33484 0.68338 0.0
C418 C 0.89225 0.33637 0.70028 0.0
C419 C 0.89638 0.32239 0.68556 0.0
C420 C 0.88676 0.32604 0.67925 0.0
C421 C 0.89925 0.32748 0.69619 0.0
C422 C 0.88262 0.34002 0.69393 0.0
C423 C 0.86962 0.33836 0.6766 0.0
O424 O 0.83645 0.35018 0.6716 0.0
O425 O 0.84745 0.36115 0.66073 0.0
O426 O 0.87062 0.34813 0.67096 0.0
O427 O 0.8596 0.33711 0.68173 0.0
H428 H 0.84624 0.33597 0.65214 0.0
H429 H 0.83878 0.32575 0.63513 0.0
H430 H 0.81234 0.35131 0.63108 0.0
H431 H 0.8197 0.36126 0.64811 0.0
H432 H 0.82498 0.39602 0.69282 0.0
H433 H 0.83513 0.37922 0.68537 0.0
H434 H 0.85152 0.4004 0.71877 0.0
H435 H 0.8614 0.38358 0.71143 0.0
H436 H 0.89425 0.34056 0.70836 0.0
H437 H 0.90143 0.31542 0.68221 0.0
H438 H 0.88471 0.3219 0.67114 0.0
H439 H 0.87737 0.34687 0.69725 0.0
C440 C 0.14655 0.33245 0.68122 0.0
C441 C 0.14205 0.33906 0.69016 0.0
C442 C 0.12654 0.32492 0.69304 0.0
C443 C 0.13213 0.33532 0.69603 0.0
C444 C 0.13117 0.31836 0.68408 0.0
C445 C 0.14105 0.32209 0.67825 0.0
U446 U 0.17273 0.35252 0.67544 0.0
O447 O 0.19033 0.34783 0.67031 0.0
O448 O 0.17972 0.35845 0.65884 0.0
C449 C 0.18934 0.3527 0.66012 0.0
C450 C 0.15693 0.3361 0.67484 0.0
C451 C 0.19297 0.34573 0.65022 0.0
C452 C 0.18868 0.33422 0.63323 0.0
C453 C 0.18493 0.34044 0.64278 0.0
C454 C 0.20852 0.33829 0.63857 0.0
C455 C 0.20054 0.33309 0.631 0.0
C456 C 0.20477 0.34455 0.64805 0.0
C457 C 0.17879 0.3788 0.69466 0.0
C458 C 0.19527 0.39178 0.69239 0.0
C459 C 0.18124 0.39525 0.70729 0.0
C460 C 0.17498 0.38549 0.70384 0.0
C461 C 0.19147 0.39854 0.70162 0.0
C462 C 0.18897 0.382 0.68894 0.0
C463 C 0.17202 0.36855 0.69129 0.0
O464 O 0.15614 0.34573 0.66893 0.0
O465 O 0.16679 0.33515 0.68038 0.0
O466 O 0.17708 0.35862 0.69286 0.0
O467 O 0.1665 0.36924 0.6814 0.0
H468 H 0.14619 0.34709 0.69257 0.0
H469 H 0.12876 0.34064 0.70281 0.0
H470 H 0.12726 0.31022 0.68167 0.0
H471 H 0.14444 0.31685 0.6714 0.0
H472 H 0.18231 0.33021 0.62765 0.0
H473 H 0.17577 0.34116 0.64432 0.0
H474 H 0.2177 0.33772 0.63704 0.0
H475 H 0.21112 0.34858 0.65366 0.0
H476 H 0.20303 0.3941 0.68775 0.0
H477 H 0.17814 0.40011 0.71454 0.0
H478 H 0.16717 0.38314 0.7084 0.0
H479 H 0.19204 0.37694 0.6818 0.0
C480 C 0.14687 0.3335 0.35318 0.0
C481 C 0.14051 0.34077 0.34593 0.0
C482 C 0.12708 0.32505 0.34147 0.0
C483 C 0.13069 0.33659 0.34013 0.0
C484 C 0.13361 0.31781 0.34867 0.0
C485 C 0.14338 0.322 0.35447 0.0
U486 U 0.17196 0.35487 0.35819 0.0
O487 O 0.17872 0.36186 0.37453 0.0
O488 O 0.18984 0.35156 0.36352 0.0
C489 C 0.18866 0.35668 0.3735 0.0
C490 C 0.15708 0.3377 0.35959 0.0
C491 C 0.19264 0.35022 0.38372 0.0
C492 C 0.19521 0.3323 0.39428 0.0
C493 C 0.19097 0.33829 0.38467 0.0
C494 C 0.20258 0.35014 0.40222 0.0
C495 C 0.20112 0.33816 0.40315 0.0
C496 C 0.19841 0.3561 0.39259 0.0
C497 C 0.17637 0.38046 0.33754 0.0
C498 C 0.19173 0.39473 0.3397 0.0
C499 C 0.17879 0.39565 0.32327 0.0
C500 C 0.1729 0.38589 0.32731 0.0
C501 C 0.1883 0.4002 0.32939 0.0
C502 C 0.18581 0.38494 0.34373 0.0
C503 C 0.17013 0.37008 0.34146 0.0
O504 O 0.16698 0.33699 0.3542 0.0
O505 O 0.15588 0.34744 0.36509 0.0
O506 O 0.16471 0.37092 0.35132 0.0
O507 O 0.1757 0.36038 0.34043 0.0
H508 H 0.14308 0.34968 0.3448 0.0
H509 H 0.12584 0.34244 0.33475 0.0
H510 H 0.13126 0.30883 0.34974 0.0
H511 H 0.14822 0.31624 0.35998 0.0
H512 H 0.19381 0.3231 0.39479 0.0
H513 H 0.18646 0.33358 0.37796 0.0
H514 H 0.20719 0.3549 0.40883 0.0
H515 H 0.19979 0.36531 0.39201 0.0
H516 H 0.19893 0.39805 0.34469 0.0
H517 H 0.17602 0.3995 0.31522 0.0
H518 H 0.16566 0.38251 0.32239 0.0
H519 H 0.18861 0.38085 0.35166 0.0
C520 C 0.14882 0.67934 0.3363 0.0
C521 C 0.13805 0.67804 0.34173 0.0
C522 C 0.12907 0.69084 0.32763 0.0
C523 C 0.12832 0.68374 0.33747 0.0
C524 C 0.13989 0.69228 0.32235 0.0
C525 C 0.1496 0.68657 0.32659 0.0
U526 U 0.17499 0.67255 0.35616 0.0
O527 O 0.1813 0.65579 0.36225 0.0
O528 O 0.19232 0.66677 0.35141 0.0
C529 C 0.1911 0.65681 0.35668 0.0
C530 C 0.15898 0.6725 0.34 0.0
C531 C 0.1949 0.64663 0.35029 0.0
C532 C 0.19305 0.63296 0.33457 0.0
C533 C 0.18901 0.64259 0.34048 0.0
C534 C 0.20881 0.63134 0.34823 0.0
C535 C 0.20306 0.62726 0.33833 0.0
C536 C 0.20477 0.64091 0.35412 0.0
C537 C 0.18212 0.69231 0.38221 0.0
C538 C 0.18573 0.69195 0.40296 0.0
C539 C 0.19605 0.70559 0.39094 0.0
C540 C 0.19028 0.70131 0.38121 0.0
C541 C 0.19375 0.70107 0.40198 0.0
C542 C 0.17996 0.68765 0.39322 0.0
C543 C 0.1752 0.68865 0.37199 0.0
O544 O 0.16918 0.67739 0.33871 0.0
O545 O 0.15809 0.66658 0.34965 0.0
O546 O 0.16916 0.67905 0.3729 0.0
O547 O 0.18008 0.68991 0.36186 0.0
H548 H 0.13705 0.67243 0.34913 0.0
H549 H 0.12013 0.6823 0.3417 0.0
H550 H 0.14087 0.6978 0.31487 0.0
H551 H 0.15772 0.68768 0.32212 0.0
H552 H 0.18846 0.63011 0.32693 0.0
H553 H 0.18137 0.64691 0.33739 0.0
H554 H 0.2164 0.62708 0.35151 0.0
H555 H 0.2094 0.64387 0.36169 0.0
H556 H 0.18361 0.68835 0.41132 0.0
H557 H 0.20228 0.71251 0.3898 0.0
H558 H 0.19207 0.70521 0.37291 0.0
H559 H 0.1736 0.68086 0.39437 0.0
C560 C 0.83344 0.64795 0.35005 0.0
C561 C 0.84164 0.64024 0.34592 0.0
C562 C 0.82641 0.62862 0.33695 0.0
C563 C 0.83815 0.63064 0.33947 0.0
C564 C 0.81826 0.63646 0.34101 0.0
C565 C 0.82175 0.64599 0.3475 0.0
U566 U 0.85334 0.67351 0.35819 0.0
O567 O 0.84866 0.69095 0.36365 0.0
O568 O 0.85859 0.67983 0.37527 0.0
C569 C 0.85309 0.68958 0.37401 0.0
C570 C 0.83673 0.65795 0.35723 0.0
C571 C 0.84591 0.69335 0.38377 0.0
C572 C 0.83639 0.68985 0.40215 0.0
C573 C 0.84243 0.68577 0.39261 0.0
C574 C 0.83698 0.70905 0.39405 0.0
C575 C 0.83366 0.70156 0.40303 0.0
C576 C 0.84305 0.70499 0.38457 0.0
C577 C 0.88071 0.67966 0.34017 0.0
C578 C 0.89127 0.69773 0.33772 0.0
C579 C 0.89997 0.67988 0.33199 0.0
C580 C 0.89012 0.67384 0.3356 0.0
C581 C 0.90062 0.69193 0.33284 0.0
C582 C 0.88141 0.69166 0.34137 0.0
C583 C 0.87014 0.67307 0.3431 0.0
O584 O 0.84598 0.65688 0.36374 0.0
O585 O 0.83606 0.66806 0.35219 0.0
O586 O 0.86028 0.67823 0.34121 0.0
O587 O 0.87036 0.66726 0.35284 0.0
H588 H 0.85074 0.64159 0.34771 0.0
H589 H 0.84466 0.62484 0.33637 0.0
H590 H 0.80915 0.63511 0.33937 0.0
H591 H 0.81526 0.65181 0.35062 0.0
H592 H 0.83386 0.68382 0.40884 0.0
H593 H 0.84448 0.67673 0.39223 0.0
H594 H 0.83516 0.71814 0.3945 0.0
H595 H 0.84571 0.71102 0.37792 0.0
H596 H 0.89141 0.707 0.33843 0.0
H597 H 0.90706 0.67509 0.32848 0.0
H598 H 0.88978 0.66458 0.33464 0.0
H599 H 0.87425 0.69635 0.3449 0.0
C600 C 0.8477 0.38075 0.3363 0.0
C601 C 0.83717 0.38322 0.34158 0.0
C602 C 0.83499 0.40026 0.32936 0.0
C603 C 0.83086 0.39288 0.33813 0.0
C604 C 0.84558 0.3977 0.32415 0.0
C605 C 0.85184 0.38806 0.32758 0.0
U606 U 0.85457 0.35461 0.35575 0.0
O607 O 0.86051 0.33745 0.35081 0.0
O608 O 0.87149 0.34844 0.36168 0.0
C609 C 0.87057 0.33877 0.35595 0.0
C610 C 0.85453 0.37062 0.33963 0.0
C611 C 0.88078 0.33541 0.34929 0.0
C612 C 0.89298 0.33669 0.33232 0.0
C613 C 0.88327 0.34024 0.33847 0.0
C614 C 0.8978 0.32353 0.34779 0.0
C615 C 0.90039 0.32828 0.33691 0.0
C616 C 0.88812 0.32706 0.35389 0.0
C617 C 0.8354 0.34774 0.3821 0.0
C618 C 0.83762 0.33124 0.39488 0.0
C619 C 0.82312 0.34542 0.39888 0.0
C620 C 0.82647 0.35164 0.38908 0.0
C621 C 0.82865 0.33514 0.40195 0.0
C622 C 0.84098 0.3375 0.38505 0.0
C623 C 0.83865 0.35453 0.37182 0.0
O624 O 0.86047 0.3715 0.34926 0.0
O625 O 0.84938 0.36057 0.33846 0.0
O626 O 0.83732 0.3494 0.36184 0.0
O627 O 0.84834 0.36046 0.37259 0.0
H628 H 0.83384 0.37769 0.34836 0.0
H629 H 0.82281 0.39463 0.34241 0.0
H630 H 0.84895 0.40304 0.31725 0.0
H631 H 0.85993 0.38628 0.32337 0.0
H632 H 0.89475 0.34062 0.32403 0.0
H633 H 0.87772 0.34673 0.33478 0.0
H634 H 0.90315 0.31691 0.35153 0.0
H635 H 0.88631 0.3232 0.3622 0.0
H636 H 0.84214 0.32342 0.39701 0.0
H637 H 0.81606 0.34861 0.40397 0.0
H638 H 0.82202 0.3595 0.38693 0.0
H639 H 0.84792 0.33436 0.37977 0.0
C640 C 0.6793 0.147 0.69619 0.0
C641 C 0.6904 0.14495 0.69194 0.0
C642 C 0.69169 0.12748 0.70365 0.0
C643 C 0.69653 0.13527 0.69564 0.0
C644 C 0.68047 0.12951 0.70767 0.0
C645 C 0.67437 0.13916 0.70399 0.0
U646 U 0.67292 0.17339 0.67686 0.0
O647 O 0.65612 0.18024 0.67149 0.0
O648 O 0.66782 0.19078 0.68207 0.0
C649 C 0.65753 0.1898 0.67734 0.0
C650 C 0.67278 0.15734 0.69293 0.0
C651 C 0.64772 0.19339 0.68449 0.0
C652 C 0.63137 0.18911 0.69698 0.0
C653 C 0.64092 0.18543 0.69067 0.0
C654 C 0.63544 0.20875 0.69118 0.0
C655 C 0.62849 0.20083 0.69729 0.0
C656 C 0.64492 0.20506 0.68486 0.0
C657 C 0.69185 0.17965 0.65005 0.0
C658 C 0.69602 0.19774 0.64015 0.0
C659 C 0.6997 0.17973 0.63063 0.0
C660 C 0.69567 0.17374 0.64033 0.0
C661 C 0.70004 0.19182 0.63044 0.0
C662 C 0.69194 0.19173 0.64984 0.0
C663 C 0.6884 0.17299 0.66039 0.0
O664 O 0.67827 0.16722 0.694 0.0
O665 O 0.66661 0.15665 0.68342 0.0
O666 O 0.67847 0.16745 0.65978 0.0
O667 O 0.69021 0.17789 0.67043 0.0
H668 H 0.69436 0.15091 0.6859 0.0
H669 H 0.70517 0.13404 0.69242 0.0
H670 H 0.67636 0.12361 0.71366 0.0
H671 H 0.6658 0.14055 0.70732 0.0
H672 H 0.6263 0.18279 0.70168 0.0
H673 H 0.64294 0.17637 0.69056 0.0
H674 H 0.63342 0.2178 0.69107 0.0
H675 H 0.65002 0.21134 0.68013 0.0
H676 H 0.69602 0.20705 0.64025 0.0
H677 H 0.70284 0.17487 0.62341 0.0
H678 H 0.69574 0.16443 0.64031 0.0
H679 H 0.68899 0.19651 0.65721 0.0
C680 C 0.33363 0.17776 0.6483 0.0
C681 C 0.33784 0.18899 0.64658 0.0
C682 C 0.32625 0.19078 0.62905 0.0
C683 C 0.33418 0.19545 0.63704 0.0
C684 C 0.32222 0.17944 0.63076 0.0
C685 C 0.32587 0.17302 0.6403 0.0
U686 U 0.35309 0.17196 0.6745 0.0
O687 O 0.34843 0.16589 0.69186 0.0
O688 O 0.35975 0.15553 0.68112 0.0
C689 C 0.35385 0.15612 0.69073 0.0
C690 C 0.33706 0.17091 0.65843 0.0
C691 C 0.34724 0.14571 0.69395 0.0
C692 C 0.33033 0.13323 0.6922 0.0
C693 C 0.33659 0.14304 0.68876 0.0
C694 C 0.34539 0.12861 0.70594 0.0
C695 C 0.33465 0.1259 0.70086 0.0
C696 C 0.35161 0.13841 0.70251 0.0
C697 C 0.37828 0.19312 0.68127 0.0
C698 C 0.3982 0.19153 0.68791 0.0
C699 C 0.3874 0.20863 0.69214 0.0
C700 C 0.37781 0.204 0.68638 0.0
C701 C 0.39779 0.20254 0.69285 0.0
C702 C 0.38856 0.18688 0.68218 0.0
C703 C 0.36827 0.18892 0.67441 0.0
O704 O 0.34698 0.16565 0.65766 0.0
O705 O 0.33553 0.17578 0.66848 0.0
O706 O 0.35811 0.18962 0.6793 0.0
O707 O 0.36957 0.17937 0.66858 0.0
H708 H 0.34386 0.1928 0.65267 0.0
H709 H 0.33737 0.20419 0.63607 0.0
H710 H 0.31628 0.17548 0.62471 0.0
H711 H 0.32258 0.16433 0.64145 0.0
H712 H 0.32215 0.13135 0.68803 0.0
H713 H 0.33309 0.14857 0.68209 0.0
H714 H 0.34891 0.12327 0.71274 0.0
H715 H 0.3598 0.14035 0.70664 0.0
H716 H 0.40607 0.18663 0.68819 0.0
H717 H 0.38667 0.21702 0.69602 0.0
H718 H 0.37003 0.20903 0.68578 0.0
H719 H 0.38926 0.17849 0.67829 0.0
C720 C 0.33227 0.85009 0.65279 0.0
C721 C 0.3377 0.84013 0.64891 0.0
C722 C 0.3238 0.83845 0.63306 0.0
C723 C 0.33352 0.83437 0.63912 0.0
C724 C 0.31851 0.8485 0.63698 0.0
C725 C 0.3227 0.85423 0.64673 0.0
U726 U 0.35273 0.85484 0.67882 0.0
O727 O 0.35954 0.87113 0.68584 0.0
O728 O 0.34841 0.86005 0.69646 0.0
C729 C 0.35394 0.86994 0.6956 0.0
C730 C 0.3363 0.85627 0.66315 0.0
C731 C 0.3477 0.88011 0.69963 0.0
C732 C 0.33217 0.89394 0.69799 0.0
C733 C 0.33798 0.88432 0.69379 0.0
C734 C 0.34577 0.89523 0.71383 0.0
C735 C 0.33596 0.89949 0.70811 0.0
C736 C 0.35155 0.88566 0.70964 0.0
C737 C 0.37799 0.83392 0.68411 0.0
C738 C 0.39269 0.83568 0.6991 0.0
C739 C 0.3923 0.81902 0.68672 0.0
C740 C 0.38271 0.8234 0.6809 0.0
C741 C 0.39742 0.82506 0.69593 0.0
C742 C 0.38303 0.84006 0.69326 0.0
C743 C 0.36786 0.83821 0.67772 0.0
O744 O 0.33505 0.85079 0.673 0.0
O745 O 0.34626 0.86171 0.66231 0.0
O746 O 0.36916 0.84815 0.67242 0.0
O747 O 0.35788 0.83712 0.68294 0.0
H748 H 0.34511 0.83679 0.6535 0.0
H749 H 0.33776 0.82661 0.63642 0.0
H750 H 0.31115 0.85202 0.63246 0.0
H751 H 0.31841 0.86193 0.64956 0.0
H752 H 0.3246 0.8969 0.69341 0.0
H753 H 0.33485 0.88013 0.68605 0.0
H754 H 0.34908 0.89936 0.72152 0.0
H755 H 0.35907 0.88258 0.71424 0.0
H756 H 0.39633 0.84052 0.70621 0.0
H757 H 0.39579 0.81094 0.68389 0.0
H758 H 0.37897 0.81856 0.67383 0.0
H759 H 0.3795 0.84819 0.69588 0.0
C760 C 0.64587 0.83379 0.68248 0.0
C761 C 0.64336 0.83882 0.69311 0.0
C762 C 0.62647 0.82622 0.69524 0.0
C763 C 0.63372 0.83508 0.69944 0.0
C764 C 0.62897 0.8214 0.68447 0.0
C765 C 0.63856 0.82514 0.67817 0.0
U766 U 0.6724 0.85316 0.67636 0.0
O767 O 0.68984 0.84815 0.67105 0.0
O768 O 0.67938 0.85909 0.65975 0.0
C769 C 0.68889 0.85314 0.66091 0.0
C770 C 0.65618 0.83716 0.67583 0.0
C771 C 0.69262 0.84631 0.65089 0.0
C772 C 0.68945 0.83842 0.63169 0.0
C773 C 0.68536 0.84426 0.64135 0.0
C774 C 0.70803 0.83638 0.64103 0.0
C775 C 0.70086 0.83445 0.63139 0.0
C776 C 0.70396 0.84226 0.65063 0.0
C777 C 0.67939 0.87907 0.69613 0.0
C778 C 0.68632 0.89877 0.69339 0.0
C779 C 0.69069 0.88864 0.71111 0.0
C780 C 0.68466 0.87897 0.70705 0.0
C781 C 0.69151 0.8987 0.70438 0.0
C782 C 0.68034 0.88906 0.6893 0.0
C783 C 0.67237 0.86897 0.69244 0.0
O784 O 0.65553 0.84686 0.67003 0.0
O785 O 0.66613 0.83587 0.68112 0.0
O786 O 0.67708 0.85885 0.69387 0.0
O787 O 0.66661 0.86989 0.68268 0.0
H788 H 0.64892 0.84552 0.69658 0.0
H789 H 0.63213 0.83892 0.70773 0.0
H790 H 0.62348 0.81471 0.68086 0.0
H791 H 0.64033 0.82118 0.66996 0.0
H792 H 0.68367 0.83698 0.62448 0.0
H793 H 0.67656 0.84727 0.64128 0.0
H794 H 0.7169 0.83359 0.64105 0.0
H795 H 0.70977 0.84381 0.65781 0.0
H796 H 0.68689 0.90633 0.68794 0.0
H797 H 0.69443 0.88833 0.71967 0.0
H798 H 0.68395 0.87145 0.71256 0.0
H799 H 0.67636 0.88946 0.68085 0.0
C800 C 0.64707 0.83259 0.35334 0.0
C801 C 0.63927 0.84014 0.34805 0.0
C802 C 0.62739 0.82394 0.34159 0.0
C803 C 0.62949 0.83586 0.34228 0.0
C804 C 0.6353 0.81643 0.34679 0.0
C805 C 0.64502 0.82072 0.35262 0.0
U806 U 0.67232 0.85381 0.35833 0.0
O807 O 0.67908 0.86094 0.37458 0.0
O808 O 0.69013 0.85032 0.36382 0.0
C809 C 0.68899 0.85567 0.37367 0.0
C810 C 0.65726 0.83681 0.35979 0.0
C811 C 0.69283 0.8493 0.38397 0.0
C812 C 0.69178 0.83269 0.39677 0.0
C813 C 0.68782 0.83868 0.38704 0.0
C814 C 0.7057 0.84793 0.40049 0.0
C815 C 0.70083 0.83721 0.40359 0.0
C816 C 0.70174 0.85389 0.39078 0.0
C817 C 0.67692 0.87907 0.33715 0.0
C818 C 0.69195 0.89373 0.33908 0.0
C819 C 0.67946 0.89364 0.32228 0.0
C820 C 0.67364 0.88396 0.32661 0.0
C821 C 0.68873 0.89863 0.32842 0.0
C822 C 0.68611 0.88401 0.3434 0.0
C823 C 0.6707 0.86878 0.34136 0.0
O824 O 0.66721 0.83592 0.35454 0.0
O825 O 0.65614 0.84661 0.36523 0.0
O826 O 0.66528 0.86984 0.3512 0.0
O827 O 0.67622 0.85904 0.34051 0.0
H828 H 0.64071 0.84935 0.34842 0.0
H829 H 0.62364 0.84186 0.33825 0.0
H830 H 0.63389 0.80722 0.34654 0.0
H831 H 0.65091 0.81474 0.35665 0.0
H832 H 0.6879 0.82442 0.39882 0.0
H833 H 0.68091 0.835 0.38186 0.0
H834 H 0.71253 0.85178 0.40563 0.0
H835 H 0.70567 0.8621 0.38858 0.0
H836 H 0.6991 0.89729 0.34398 0.0
H837 H 0.67663 0.89727 0.31415 0.0
H838 H 0.66655 0.88029 0.32169 0.0
H839 H 0.68879 0.88031 0.35155 0.0
C840 C 0.64794 0.17761 0.33563 0.0
C841 C 0.64403 0.18746 0.34124 0.0
C842 C 0.62845 0.18945 0.32709 0.0
C843 C 0.63436 0.19332 0.33702 0.0
C844 C 0.63242 0.17952 0.3216 0.0
C845 C 0.64204 0.17369 0.32582 0.0
U846 U 0.67379 0.17226 0.3562 0.0
O847 O 0.68013 0.15571 0.36293 0.0
O848 O 0.69123 0.16647 0.35194 0.0
C849 C 0.68987 0.15653 0.35723 0.0
C850 C 0.65811 0.17124 0.33973 0.0
C851 C 0.69338 0.14618 0.35083 0.0
C852 C 0.69745 0.13619 0.33295 0.0
C853 C 0.69339 0.14586 0.33873 0.0
C854 C 0.70126 0.12688 0.35125 0.0
C855 C 0.70152 0.12659 0.33914 0.0
C856 C 0.69727 0.13657 0.35701 0.0
C857 C 0.67986 0.19302 0.38158 0.0
C858 C 0.69326 0.19004 0.39753 0.0
C859 C 0.6841 0.20847 0.39502 0.0
C860 C 0.6783 0.20432 0.38528 0.0
C861 C 0.69162 0.20138 0.40135 0.0
C862 C 0.68742 0.1859 0.38773 0.0
C863 C 0.67333 0.18892 0.3714 0.0
O864 O 0.66814 0.17647 0.33854 0.0
O865 O 0.65703 0.16588 0.34967 0.0
O866 O 0.66761 0.17917 0.37261 0.0
O867 O 0.67861 0.18985 0.36145 0.0
H868 H 0.64849 0.19063 0.34883 0.0
H869 H 0.63162 0.20098 0.34142 0.0
H870 H 0.62801 0.17615 0.31407 0.0
H871 H 0.64489 0.16607 0.32139 0.0
H872 H 0.69739 0.13621 0.32362 0.0
H873 H 0.69038 0.15313 0.33374 0.0
H874 H 0.70444 0.11972 0.3563 0.0
H875 H 0.69739 0.13662 0.36634 0.0
H876 H 0.6989 0.1843 0.40221 0.0
H877 H 0.68278 0.2173 0.39752 0.0
H878 H 0.67254 0.20998 0.38062 0.0
H879 H 0.68876 0.17713 0.38501 0.0
C880 C 0.33346 0.14634 0.35228 0.0
C881 C 0.33967 0.14329 0.34244 0.0
C882 C 0.32688 0.12671 0.33946 0.0
C883 C 0.33639 0.13357 0.33607 0.0
C884 C 0.32072 0.12987 0.34933 0.0
C885 C 0.32398 0.13958 0.35566 0.0
U886 U 0.35253 0.17286 0.35902 0.0
O887 O 0.34739 0.18991 0.36507 0.0
O888 O 0.35861 0.17923 0.37585 0.0
C889 C 0.35264 0.18872 0.37506 0.0
C890 C 0.33668 0.15649 0.35918 0.0
C891 C 0.34589 0.19177 0.38529 0.0
C892 C 0.32901 0.18957 0.39751 0.0
C893 C 0.33534 0.1863 0.38783 0.0
C894 C 0.34376 0.20372 0.40221 0.0
C895 C 0.33315 0.19834 0.40483 0.0
C896 C 0.35005 0.20046 0.39256 0.0
C897 C 0.37834 0.1808 0.3395 0.0
C898 C 0.39653 0.19059 0.34389 0.0
C899 C 0.38927 0.19038 0.32431 0.0
C900 C 0.37963 0.18398 0.3279 0.0
C901 C 0.39789 0.1937 0.33224 0.0
C902 C 0.38684 0.18424 0.3475 0.0
C903 C 0.36831 0.17354 0.34286 0.0
O904 O 0.34646 0.15583 0.36492 0.0
O905 O 0.33522 0.16652 0.35415 0.0
O906 O 0.35812 0.17823 0.34166 0.0
O907 O 0.36933 0.16747 0.35239 0.0
H908 H 0.34703 0.14842 0.33972 0.0
H909 H 0.3414 0.13134 0.32859 0.0
H910 H 0.31324 0.12494 0.35209 0.0
H911 H 0.31906 0.14182 0.3632 0.0
H912 H 0.32093 0.18517 0.39932 0.0
H913 H 0.332 0.17954 0.38232 0.0
H914 H 0.34714 0.21062 0.40751 0.0
H915 H 0.35815 0.20481 0.3907 0.0
H916 H 0.40295 0.19311 0.35024 0.0
H917 H 0.39009 0.1925 0.31526 0.0
H918 H 0.37324 0.18138 0.32156 0.0
H919 H 0.38605 0.18195 0.35652 0.0
C920 C 0.34759 0.88008 0.33745 0.0
C921 C 0.33755 0.88312 0.34334 0.0
C922 C 0.33501 0.89968 0.33053 0.0
C923 C 0.3313 0.89282 0.33989 0.0
C924 C 0.34508 0.89652 0.3247 0.0
C925 C 0.35128 0.88684 0.32813 0.0
U926 U 0.35441 0.85399 0.35698 0.0
O927 O 0.36027 0.83679 0.35207 0.0
O928 O 0.37134 0.84777 0.36285 0.0
C929 C 0.37037 0.8381 0.35712 0.0
C930 C 0.35437 0.86994 0.34081 0.0
C931 C 0.38051 0.83476 0.35035 0.0
C932 C 0.39245 0.83599 0.33319 0.0
C933 C 0.38281 0.83952 0.33945 0.0
C934 C 0.39761 0.82302 0.34871 0.0
C935 C 0.39999 0.82768 0.33774 0.0
C936 C 0.388 0.82653 0.35492 0.0
C937 C 0.33533 0.84725 0.38344 0.0
C938 C 0.33754 0.83078 0.39625 0.0
C939 C 0.32308 0.84501 0.40025 0.0
C940 C 0.32642 0.85119 0.39043 0.0
C941 C 0.32859 0.83471 0.40332 0.0
C942 C 0.34089 0.83701 0.3864 0.0
C943 C 0.33857 0.85401 0.37313 0.0
O944 O 0.36034 0.87083 0.35042 0.0
O945 O 0.34917 0.8599 0.3397 0.0
O946 O 0.33718 0.84885 0.36317 0.0
O947 O 0.34829 0.85989 0.37384 0.0
H948 H 0.33456 0.87801 0.35058 0.0
H949 H 0.32365 0.89504 0.34465 0.0
H950 H 0.34811 0.90143 0.31734 0.0
H951 H 0.35899 0.88461 0.32345 0.0
H952 H 0.39405 0.83984 0.32483 0.0
H953 H 0.37714 0.84592 0.33578 0.0
H954 H 0.40308 0.81649 0.35243 0.0
H955 H 0.38635 0.82273 0.3633 0.0
H956 H 0.34204 0.82295 0.3984 0.0
H957 H 0.31603 0.84822 0.40534 0.0
H958 H 0.32199 0.85906 0.38826 0.0
H959 H 0.34782 0.83384 0.38112 0.0
C960 C 0.67699 0.64761 0.19751 0.0
C961 C 0.68714 0.64395 0.19218 0.0
C962 C 0.68879 0.62813 0.20605 0.0
C963 C 0.69298 0.63428 0.19641 0.0
C964 C 0.67855 0.63182 0.21123 0.0
C965 C 0.67274 0.64143 0.207 0.0
U966 U 0.6714 0.67344 0.17699 0.0
O967 O 0.65474 0.68012 0.17093 0.0
O968 O 0.66615 0.69095 0.18151 0.0
C969 C 0.65608 0.68993 0.17633 0.0
C970 C 0.67072 0.65787 0.19354 0.0
C971 C 0.64602 0.69405 0.18276 0.0
C972 C 0.63238 0.6927 0.19861 0.0
C973 C 0.64196 0.68845 0.19272 0.0
C974 C 0.63086 0.70814 0.18463 0.0
C975 C 0.62674 0.70266 0.19466 0.0
C976 C 0.64038 0.70388 0.17877 0.0
C977 C 0.69058 0.67968 0.15057 0.0
C978 C 0.69517 0.69789 0.14106 0.0
C979 C 0.69715 0.68007 0.13067 0.0
C980 C 0.69343 0.67393 0.1404 0.0
C981 C 0.69819 0.69213 0.1309 0.0
C982 C 0.69137 0.69174 0.15077 0.0
C983 C 0.68724 0.67288 0.16089 0.0
O984 O 0.67625 0.66775 0.19446 0.0
O985 O 0.66494 0.65687 0.18382 0.0
O986 O 0.67743 0.66714 0.16021 0.0
O987 O 0.68886 0.6778 0.17095 0.0
H988 H 0.69057 0.64862 0.18484 0.0
H989 H 0.70088 0.63176 0.19226 0.0
H990 H 0.67494 0.62721 0.21852 0.0
H991 H 0.6649 0.64409 0.21121 0.0
H992 H 0.62952 0.68832 0.20634 0.0
H993 H 0.64622 0.68083 0.19594 0.0
H994 H 0.62664 0.71568 0.1812 0.0
H995 H 0.64334 0.70829 0.17107 0.0
H996 H 0.69572 0.70717 0.14149 0.0
H997 H 0.69951 0.67534 0.12306 0.0
H998 H 0.69293 0.66464 0.14004 0.0
H999 H 0.68916 0.69643 0.15846 0.0
C1000 C 0.33463 0.67834 0.14924 0.0
C1001 C 0.33988 0.68901 0.14681 0.0
C1002 C 0.32773 0.69119 0.12969 0.0
C1003 C 0.33644 0.6954 0.13713 0.0
C1004 C 0.32257 0.68046 0.13219 0.0
C1005 C 0.32599 0.67412 0.14186 0.0
U1006 U 0.35427 0.67206 0.17524 0.0
O1007 O 0.34967 0.6661 0.19265 0.0
O1008 O 0.36054 0.65545 0.18174 0.0
C1009 C 0.35481 0.65619 0.19143 0.0
C1010 C 0.33797 0.6715 0.15941 0.0
C1011 C 0.348 0.64593 0.19472 0.0
C1012 C 0.33103 0.63357 0.19282 0.0
C1013 C 0.33738 0.64334 0.18943 0.0
C1014 C 0.3459 0.62887 0.20673 0.0
C1015 C 0.33522 0.62621 0.20152 0.0
C1016 C 0.35222 0.63863 0.20336 0.0
C1017 C 0.38032 0.69177 0.18166 0.0
C1018 C 0.3925 0.68997 0.19869 0.0
C1019 C 0.39743 0.70384 0.18383 0.0
C1020 C 0.38772 0.70041 0.17748 0.0
C1021 C 0.39995 0.69868 0.19453 0.0
C1022 C 0.38278 0.68652 0.1923 0.0
C1023 C 0.3701 0.68842 0.17481 0.0
O1024 O 0.34767 0.66587 0.15854 0.0
O1025 O 0.3368 0.67655 0.16942 0.0
O1026 O 0.3601 0.68948 0.17994 0.0
O1027 O 0.37095 0.6788 0.16903 0.0
H1028 H 0.3466 0.69239 0.1524 0.0
H1029 H 0.34067 0.70357 0.13541 0.0
H1030 H 0.31573 0.67703 0.12678 0.0
H1031 H 0.32182 0.66591 0.14363 0.0
H1032 H 0.32289 0.63173 0.18855 0.0
H1033 H 0.33401 0.64887 0.1827 0.0
H1034 H 0.34932 0.62352 0.21357 0.0
H1035 H 0.36039 0.64051 0.20756 0.0
H1036 H 0.39424 0.68574 0.20684 0.0
H1037 H 0.40286 0.71068 0.18044 0.0
H1038 H 0.38594 0.70458 0.16929 0.0
H1039 H 0.37717 0.67979 0.19564 0.0
C1040 C 0.33275 0.3484 0.15164 0.0
C1041 C 0.33928 0.33944 0.14711 0.0
C1042 C 0.32481 0.33625 0.132 0.0
C1043 C 0.33534 0.33341 0.13738 0.0
C1044 C 0.31833 0.34524 0.13666 0.0
C1045 C 0.32227 0.35123 0.14635 0.0
U1046 U 0.35325 0.3543 0.17736 0.0
O1047 O 0.3597 0.3709 0.18395 0.0
O1048 O 0.34897 0.35978 0.19493 0.0
C1049 C 0.3543 0.36975 0.19381 0.0
C1050 C 0.33662 0.35492 0.16184 0.0
C1051 C 0.34799 0.37989 0.19783 0.0
C1052 C 0.33206 0.39329 0.19656 0.0
C1053 C 0.33786 0.38365 0.19239 0.0
C1054 C 0.34649 0.39547 0.21157 0.0
C1055 C 0.33628 0.39929 0.20626 0.0
C1056 C 0.35226 0.38589 0.2074 0.0
C1057 C 0.37937 0.33465 0.18315 0.0
C1058 C 0.38923 0.32998 0.20115 0.0
C1059 C 0.39886 0.3271 0.18299 0.0
C1060 C 0.38915 0.33118 0.1771 0.0
C1061 C 0.39899 0.32633 0.19509 0.0
C1062 C 0.37953 0.33413 0.19525 0.0
C1063 C 0.369 0.33825 0.1766 0.0
O1064 O 0.33563 0.3496 0.17181 0.0
O1065 O 0.34641 0.36065 0.16081 0.0
O1066 O 0.36986 0.348 0.17089 0.0
O1067 O 0.35899 0.33687 0.18174 0.0
H1068 H 0.34741 0.33712 0.15108 0.0
H1069 H 0.34062 0.32662 0.134 0.0
H1070 H 0.3101 0.34754 0.13292 0.0
H1071 H 0.31708 0.35808 0.14975 0.0
H1072 H 0.32418 0.39591 0.19231 0.0
H1073 H 0.33442 0.37912 0.18498 0.0
H1074 H 0.35013 0.39996 0.21891 0.0
H1075 H 0.36009 0.38315 0.21168 0.0
H1076 H 0.38908 0.32964 0.21047 0.0
H1077 H 0.40615 0.32425 0.17802 0.0
H1078 H 0.38922 0.33146 0.16778 0.0
H1079 H 0.37213 0.33681 0.20016 0.0
C1080 C 0.64781 0.3336 0.18352 0.0
C1081 C 0.64052 0.34159 0.1887 0.0
C1082 C 0.62855 0.326 0.1965 0.0
C1083 C 0.63095 0.33782 0.1951 0.0
C1084 C 0.63598 0.31807 0.1914 0.0
C1085 C 0.64548 0.32184 0.18497 0.0
U1086 U 0.67318 0.35393 0.17576 0.0
O1087 O 0.69049 0.3497 0.16955 0.0
O1088 O 0.67896 0.35999 0.15871 0.0
C1089 C 0.68884 0.35462 0.15946 0.0
C1090 C 0.65769 0.33724 0.17632 0.0
C1091 C 0.69209 0.34784 0.14933 0.0
C1092 C 0.69065 0.33065 0.13755 0.0
C1093 C 0.68724 0.33695 0.14719 0.0
C1094 C 0.70368 0.34613 0.13207 0.0
C1095 C 0.69892 0.33517 0.12985 0.0
C1096 C 0.70029 0.35238 0.14169 0.0
C1097 C 0.67958 0.38042 0.19469 0.0
C1098 C 0.6963 0.39312 0.19269 0.0
C1099 C 0.68146 0.39751 0.20651 0.0
C1100 C 0.67531 0.38764 0.20323 0.0
C1101 C 0.69206 0.40039 0.20131 0.0
C1102 C 0.69011 0.38323 0.18939 0.0
C1103 C 0.67297 0.36997 0.19163 0.0
O1104 O 0.65642 0.34673 0.17026 0.0
O1105 O 0.66793 0.33643 0.18113 0.0
O1106 O 0.6784 0.3602 0.19288 0.0
O1107 O 0.66688 0.37051 0.18206 0.0
H1108 H 0.64217 0.35072 0.18776 0.0
H1109 H 0.62548 0.34416 0.19901 0.0
H1110 H 0.63433 0.30892 0.19217 0.0
H1111 H 0.65097 0.31553 0.18102 0.0
H1112 H 0.68672 0.3223 0.13606 0.0
H1113 H 0.68085 0.33331 0.15298 0.0
H1114 H 0.71019 0.34982 0.12646 0.0
H1115 H 0.70416 0.36076 0.14322 0.0
H1116 H 0.70437 0.39512 0.18843 0.0
H1117 H 0.67801 0.40278 0.21329 0.0
H1118 H 0.66723 0.38559 0.20745 0.0
H1119 H 0.69353 0.37776 0.18275 0.0
C1120 C 0.64636 0.33427 0.85241 0.0
C1121 C 0.64323 0.34025 0.84236 0.0
C1122 C 0.62706 0.32696 0.83924 0.0
C1123 C 0.63367 0.33662 0.83583 0.0
C1124 C 0.63024 0.32106 0.84937 0.0
C1125 C 0.6398 0.32468 0.85587 0.0
U1126 U 0.67193 0.35451 0.85834 0.0
O1127 O 0.67851 0.36134 0.87484 0.0
O1128 O 0.68958 0.3507 0.86408 0.0
C1129 C 0.68833 0.3559 0.87401 0.0
C1130 C 0.65644 0.33785 0.85932 0.0
C1131 C 0.69207 0.34947 0.88437 0.0
C1132 C 0.69553 0.33153 0.89465 0.0
C1133 C 0.69136 0.33742 0.88495 0.0
C1134 C 0.70086 0.34966 0.90345 0.0
C1135 C 0.7004 0.33758 0.90399 0.0
C1136 C 0.69677 0.35552 0.89372 0.0
C1137 C 0.67736 0.37993 0.8376 0.0
C1138 C 0.69217 0.39465 0.84037 0.0
C1139 C 0.6808 0.39439 0.82281 0.0
C1140 C 0.67476 0.38472 0.82682 0.0
C1141 C 0.68959 0.39951 0.82952 0.0
C1142 C 0.68611 0.38494 0.84438 0.0
C1143 C 0.67086 0.3697 0.84153 0.0
O1144 O 0.6665 0.3368 0.85429 0.0
O1145 O 0.65543 0.34761 0.86483 0.0
O1146 O 0.6653 0.37074 0.85129 0.0
O1147 O 0.67623 0.35988 0.84066 0.0
H1148 H 0.64819 0.3477 0.83957 0.0
H1149 H 0.6314 0.34145 0.82815 0.0
H1150 H 0.62548 0.31349 0.85217 0.0
H1151 H 0.64211 0.31994 0.86359 0.0
H1152 H 0.69491 0.32224 0.89485 0.0
H1153 H 0.68769 0.33255 0.87787 0.0
H1154 H 0.70466 0.35458 0.91042 0.0
H1155 H 0.69742 0.36481 0.89344 0.0
H1156 H 0.6988 0.39841 0.84582 0.0
H1157 H 0.67871 0.39774 0.81434 0.0
H1158 H 0.66807 0.38092 0.82145 0.0
H1159 H 0.68823 0.38134 0.85274 0.0
C1160 C 0.64692 0.67729 0.83573 0.0
C1161 C 0.64326 0.68721 0.8414 0.0
C1162 C 0.62742 0.68937 0.82757 0.0
C1163 C 0.63358 0.69319 0.83736 0.0
C1164 C 0.63114 0.67937 0.82202 0.0
C1165 C 0.64077 0.67342 0.82606 0.0
U1166 U 0.67288 0.67114 0.85602 0.0
O1167 O 0.67908 0.65434 0.8622 0.0
O1168 O 0.69022 0.66532 0.85147 0.0
C1169 C 0.68881 0.65525 0.85651 0.0
C1170 C 0.65709 0.67079 0.83962 0.0
C1171 C 0.6923 0.64503 0.8499 0.0
C1172 C 0.69664 0.63546 0.83186 0.0
C1173 C 0.69254 0.64502 0.8378 0.0
C1174 C 0.70004 0.62568 0.84999 0.0
C1175 C 0.70053 0.62569 0.83788 0.0
C1176 C 0.696 0.63524 0.85591 0.0
C1177 C 0.67961 0.69048 0.88213 0.0
C1178 C 0.69592 0.68786 0.89515 0.0
C1179 C 0.68256 0.70331 0.89837 0.0
C1180 C 0.67619 0.6999 0.88867 0.0
C1181 C 0.69252 0.69735 0.90176 0.0
C1182 C 0.68952 0.68445 0.88543 0.0
C1183 C 0.67276 0.68719 0.87189 0.0
O1184 O 0.66715 0.67602 0.83856 0.0
O1185 O 0.65603 0.66512 0.84939 0.0
O1186 O 0.66683 0.67752 0.87273 0.0
O1187 O 0.67792 0.68844 0.86191 0.0
H1188 H 0.64791 0.69034 0.84889 0.0
H1189 H 0.63103 0.7009 0.8418 0.0
H1190 H 0.62653 0.67603 0.8146 0.0
H1191 H 0.64342 0.66575 0.8216 0.0
H1192 H 0.69676 0.63571 0.82253 0.0
H1193 H 0.68968 0.65243 0.83293 0.0
H1194 H 0.70308 0.61838 0.85493 0.0
H1195 H 0.69596 0.63507 0.86524 0.0
H1196 H 0.70347 0.683 0.89755 0.0
H1197 H 0.67977 0.71075 0.9031 0.0
H1198 H 0.6686 0.70469 0.88623 0.0
H1199 H 0.69229 0.67713 0.8805 0.0
C1200 C 0.33224 0.64686 0.84966 0.0
C1201 C 0.34056 0.6394 0.8453 0.0
C1202 C 0.32545 0.62743 0.83658 0.0
C1203 C 0.33719 0.62975 0.83886 0.0
C1204 C 0.31719 0.63502 0.84086 0.0
C1205 C 0.32055 0.6446 0.84734 0.0
U1206 U 0.3517 0.67273 0.85797 0.0
O1207 O 0.34664 0.68996 0.86372 0.0
O1208 O 0.35687 0.67891 0.87512 0.0
C1209 C 0.35108 0.6885 0.87406 0.0
C1210 C 0.3354 0.65685 0.85689 0.0
C1211 C 0.3437 0.69176 0.88385 0.0
C1212 C 0.33362 0.68725 0.90172 0.0
C1213 C 0.34002 0.68372 0.8922 0.0
C1214 C 0.33423 0.70683 0.89459 0.0
C1215 C 0.33069 0.69887 0.90306 0.0
C1216 C 0.34068 0.70331 0.88513 0.0
C1217 C 0.37884 0.6796 0.8399 0.0
C1218 C 0.39094 0.69675 0.84169 0.0
C1219 C 0.39641 0.68158 0.82872 0.0
C1220 C 0.38658 0.67525 0.83186 0.0
C1221 C 0.39873 0.69243 0.83356 0.0
C1222 C 0.38109 0.69038 0.84485 0.0
C1223 C 0.36841 0.67281 0.84275 0.0
O1224 O 0.34471 0.65589 0.86333 0.0
O1225 O 0.33451 0.66698 0.85195 0.0
O1226 O 0.3585 0.67792 0.84105 0.0
O1227 O 0.36878 0.6669 0.85242 0.0
H1228 H 0.34965 0.64098 0.84692 0.0
H1229 H 0.34379 0.62415 0.83559 0.0
H1230 H 0.30807 0.63344 0.83941 0.0
H1231 H 0.31398 0.65022 0.85065 0.0
H1232 H 0.33092 0.68088 0.90802 0.0
H1233 H 0.34218 0.67474 0.89143 0.0
H1234 H 0.33226 0.71586 0.89541 0.0
H1235 H 0.34347 0.70968 0.87886 0.0
H1236 H 0.39251 0.70501 0.84568 0.0
H1237 H 0.40208 0.67804 0.8223 0.0
H1238 H 0.38496 0.66698 0.82791 0.0
H1239 H 0.37521 0.69387 0.8511 0.0
C1240 C 0.34561 0.37667 0.83627 0.0
C1241 C 0.34121 0.38447 0.84429 0.0
C1242 C 0.3329 0.396 0.82872 0.0
C1243 C 0.33496 0.39405 0.84054 0.0
C1244 C 0.3372 0.38807 0.82077 0.0
C1245 C 0.34349 0.37855 0.82451 0.0
U1246 U 0.35314 0.3508 0.85593 0.0
O1247 O 0.35932 0.33369 0.85106 0.0
O1248 O 0.37012 0.34486 0.86191 0.0
C1249 C 0.3693 0.33511 0.85629 0.0
C1250 C 0.35276 0.36678 0.83981 0.0
C1251 C 0.37959 0.33159 0.84984 0.0
C1252 C 0.39446 0.33492 0.83543 0.0
C1253 C 0.38457 0.33855 0.84125 0.0
C1254 C 0.39439 0.31735 0.8467 0.0
C1255 C 0.39954 0.32428 0.83813 0.0
C1256 C 0.38455 0.32098 0.85247 0.0
C1257 C 0.33367 0.34306 0.8819 0.0
C1258 C 0.3382 0.33306 0.89985 0.0
C1259 C 0.3184 0.3341 0.89326 0.0
C1260 C 0.32198 0.34036 0.88356 0.0
C1261 C 0.32645 0.33042 0.90157 0.0
C1262 C 0.34179 0.33929 0.89009 0.0
C1263 C 0.33702 0.35015 0.87178 0.0
O1264 O 0.35866 0.3678 0.84947 0.0
O1265 O 0.34802 0.35655 0.83852 0.0
O1266 O 0.33584 0.34523 0.86168 0.0
O1267 O 0.34654 0.35635 0.87271 0.0
H1268 H 0.34268 0.38321 0.85343 0.0
H1269 H 0.33167 0.3999 0.84691 0.0
H1270 H 0.33593 0.38935 0.81161 0.0
H1271 H 0.34684 0.3727 0.81816 0.0
H1272 H 0.39822 0.34052 0.82895 0.0
H1273 H 0.38086 0.34678 0.83908 0.0
H1274 H 0.39788 0.30903 0.84887 0.0
H1275 H 0.3808 0.31545 0.85904 0.0
H1276 H 0.34464 0.33026 0.906 0.0
H1277 H 0.30928 0.33236 0.89436 0.0
H1278 H 0.31556 0.34322 0.87741 0.0
H1279 H 0.35088 0.3412 0.889 0.0
H1280 H 0.2593 0.26573 0.97789 0.0
H1281 H 0.27728 0.27371 1.00908 0.0
H1282 H 0.24665 0.25179 1.00955 0.0
H1283 H 0.25232 0.24612 0.02613 0.0
H1284 H 0.26575 0.25883 0.05797 0.0
H1285 H 0.27393 0.2769 0.02692 0.0
C1286 C 0.25995 0.26501 0.98719 0.0
C1287 C 0.25219 0.25787 0.99312 0.0
C1288 C 0.26881 0.2709 0.99296 0.0
C1289 C 0.27006 0.26944 1.00495 0.0
C1290 C 0.26207 0.26266 0.0114 0.0
C1291 C 0.25313 0.2569 1.00518 0.0
C1292 C 0.26304 0.26163 0.02445 0.0
C1293 C 0.25732 0.25262 0.03057 0.0
C1294 C 0.25817 0.25166 0.04264 0.0
C1295 C 0.26516 0.25947 0.04866 0.0
C1296 C 0.27104 0.26838 0.04299 0.0
C1297 C 0.26969 0.26964 0.03099 0.0
H1298 H 0.76315 0.26437 0.05758 0.0
H1299 H 0.77774 0.25344 0.02584 0.0
H1300 H 0.74623 0.27317 0.02598 0.0
H1301 H 0.75104 0.27817 1.00862 0.0
H1302 H 0.75969 0.26141 0.97728 0.0
H1303 H 0.77179 0.24741 1.00922 0.0
C1304 C 0.76281 0.2641 0.04825 0.0
C1305 C 0.75391 0.2697 0.04239 0.0
C1306 C 0.77123 0.25805 0.04231 0.0
C1307 C 0.77087 0.2578 0.03021 0.0
C1308 C 0.76196 0.26332 0.02393 0.0
C1309 C 0.75346 0.2692 0.03028 0.0
C1310 C 0.76146 0.26284 1.01089 0.0
C1311 C 0.75522 0.2711 1.00442 0.0
C1312 C 0.75419 0.2703 0.99238 0.0
C1313 C 0.76003 0.26163 0.98661 0.0
C1314 C 0.76665 0.25358 0.99262 0.0
C1315 C 0.76713 0.25407 1.00473 0.0
H1316 H 0.76708 0.75877 0.97594 0.0
H1317 H 0.75376 0.74531 1.00753 0.0
H1318 H 0.77594 0.7757 1.00736 0.0
H1319 H 0.77981 0.77148 0.025 0.0
H1320 H 0.76285 0.76201 0.05627 0.0
H1321 H 0.74849 0.75059 0.02432 0.0
C1322 C 0.7666 0.75914 0.98526 0.0
C1323 C 0.77271 0.76777 0.9911 0.0
C1324 C 0.75955 0.75126 0.99113 0.0
C1325 C 0.75883 0.75186 1.00321 0.0
C1326 C 0.76481 0.76055 1.00951 0.0
C1327 C 0.77151 0.76867 1.00313 0.0
C1328 C 0.76419 0.76105 0.02259 0.0
C1329 C 0.7726 0.76723 0.02913 0.0
C1330 C 0.77209 0.76768 0.04124 0.0
C1331 C 0.76322 0.76176 0.04694 0.0
C1332 C 0.75488 0.75543 0.04088 0.0
C1333 C 0.7553 0.7552 0.02876 0.0
H1334 H 0.26391 0.76373 0.05747 0.0
H1335 H 0.27943 0.75408 0.02577 0.0
H1336 H 0.24777 0.77358 0.02581 0.0
H1337 H 0.25241 0.77883 1.00868 0.0
H1338 H 0.26347 0.76433 0.97698 0.0
H1339 H 0.2747 0.74911 1.00861 0.0
C1340 C 0.26381 0.76376 0.04814 0.0
C1341 C 0.25507 0.76959 0.04225 0.0
C1342 C 0.27242 0.75796 0.04221 0.0
C1343 C 0.27238 0.75818 0.0301 0.0
C1344 C 0.26359 0.76384 0.02377 0.0
C1345 C 0.2549 0.76946 0.03012 0.0
C1346 C 0.26353 0.76393 1.01069 0.0
C1347 C 0.25718 0.77223 1.00437 0.0
C1348 C 0.25678 0.77209 0.99226 0.0
C1349 C 0.26347 0.7642 0.98633 0.0
C1350 C 0.27022 0.7562 0.99222 0.0
C1351 C 0.26987 0.75577 1.00432 0.0
H1352 H 0.05327 0.26261 0.26728 0.0
H1353 H 0.02128 0.25341 0.25102 0.0
H1354 H 0.02171 0.27263 0.28294 0.0
H1355 H 1.00492 0.27886 0.27699 0.0
H1356 H 0.97279 0.2632 0.26714 0.0
H1357 H 1.00422 0.24757 0.25686 0.0
C1358 C 0.04392 0.26272 0.26718 0.0
C1359 C 0.03812 0.26844 0.27593 0.0
C1360 C 0.0379 0.25717 0.2583 0.0
C1361 C 0.02576 0.2574 0.25818 0.0
C1362 C 0.01956 0.26304 0.26698 0.0
C1363 C 0.02599 0.26852 0.27586 0.0
C1364 C 1.0065 0.26317 0.26696 0.0
C1365 C 1.00037 0.27188 0.27278 0.0
C1366 C 0.98823 0.27189 0.27293 0.0
C1367 C 0.98214 0.26323 0.26709 0.0
C1368 C 0.98787 0.25461 0.26115 0.0
C1369 C 1.0 0.25455 0.26117 0.0
H1370 H 0.76304 0.97287 0.26751 0.0
H1371 H 0.77884 1.00478 0.25751 0.0
H1372 H 0.74663 1.00424 0.27637 0.0
H1373 H 0.75163 0.02151 0.28173 0.0
H1374 H 0.76082 0.053 0.26483 0.0
H1375 H 0.77302 0.02137 0.25119 0.0
C1376 C 0.76299 0.98219 0.26738 0.0
C1377 C 0.75405 0.98795 0.27283 0.0
C1378 C 0.77182 0.98821 0.26169 0.0
C1379 C 0.77172 1.00031 0.2616 0.0
C1380 C 0.76272 1.00647 0.26695 0.0
C1381 C 0.7539 1.00002 0.27252 0.0
C1382 C 0.76238 0.01949 0.26652 0.0
C1383 C 0.756 0.02581 0.27469 0.0
C1384 C 0.75506 0.03783 0.27381 0.0
C1385 C 0.7611 0.04369 0.26515 0.0
C1386 C 0.76784 0.03782 0.2572 0.0
C1387 C 0.76826 0.02575 0.25778 0.0
H1388 H 0.05416 0.76242 0.266 0.0
H1389 H 0.02219 0.74727 0.27679 0.0
H1390 H 0.02262 0.77882 0.25671 0.0
H1391 H 1.00551 0.77311 0.25092 0.0
H1392 H 0.9737 0.7634 0.26688 0.0
H1393 H 1.00544 0.75336 0.28274 0.0
C1394 C 0.04482 0.76264 0.26625 0.0
C1395 C 0.03903 0.77146 0.26048 0.0
C1396 C 0.03881 0.75405 0.2723 0.0
C1397 C 0.02668 0.75423 0.27245 0.0
C1398 C 0.02047 0.76306 0.26674 0.0
C1399 C 0.0269 0.7717 0.26086 0.0
C1400 C 1.00741 0.76322 0.26683 0.0
C1401 C 1.00112 0.76898 0.25804 0.0
C1402 C 0.98898 0.76915 0.2581 0.0
C1403 C 0.98305 0.76338 0.2669 0.0
C1404 C 0.98892 0.75755 0.27568 0.0
C1405 C 1.00106 0.75757 0.27567 0.0
H1406 H 0.26595 0.05324 0.26476 0.0
H1407 H 0.24853 0.02197 0.25602 0.0
H1408 H 0.27921 0.02165 0.27772 0.0
H1409 H 0.2741 1.00492 0.28306 0.0
H1410 H 0.26053 0.97315 0.27042 0.0
H1411 H 0.25151 1.00418 0.25304 0.0
C1412 C 0.26552 0.04394 0.26519 0.0
C1413 C 0.27338 0.03803 0.27213 0.0
C1414 C 0.25678 0.03814 0.25915 0.0
C1415 C 0.2557 0.02612 0.26035 0.0
C1416 C 0.26376 0.01971 0.26699 0.0
C1417 C 0.27264 0.02597 0.27278 0.0
C1418 C 0.26291 1.00666 0.26791 0.0
C1419 C 0.26895 1.00052 0.27666 0.0
C1420 C 0.26823 0.98846 0.27752 0.0
C1421 C 0.26105 0.98245 0.26989 0.0
C1422 C 0.25481 0.98813 0.26128 0.0
C1423 C 0.25604 1.00013 0.26008 0.0
H1424 H 0.054 0.75928 0.77062 0.0
H1425 H 0.02301 0.75185 0.75194 0.0
H1426 H 0.02228 0.77257 0.78294 0.0
H1427 H 1.0059 0.7784 0.77729 0.0
H1428 H 0.97406 0.7663 0.76292 0.0
H1429 H 1.005 0.74878 0.75468 0.0
C1430 C 0.04471 0.75997 0.76983 0.0
C1431 C 0.03873 0.7668 0.77758 0.0
C1432 C 0.03902 0.75436 0.76078 0.0
C1433 C 0.02706 0.75586 0.75931 0.0
C1434 C 0.02056 0.76235 0.76728 0.0
C1435 C 0.02669 0.76774 0.77644 0.0
C1436 C 1.00754 0.76347 0.76609 0.0
C1437 C 1.00145 0.77216 0.772 0.0
C1438 C 0.98939 0.77312 0.77102 0.0
C1439 C 0.98336 0.76569 0.76365 0.0
C1440 C 0.98902 0.75711 0.75759 0.0
C1441 C 1.00098 0.7558 0.75909 0.0
H1442 H 0.26498 0.97368 0.7704 0.0
H1443 H 0.27891 1.00539 0.75747 0.0
H1444 H 0.24786 1.00498 0.77817 0.0
H1445 H 0.2532 0.02239 0.78297 0.0
H1446 H 0.26261 0.05372 0.76584 0.0
H1447 H 0.27253 0.02177 0.7511 0.0
C1448 C 0.26464 0.98297 0.76977 0.0
C1449 C 0.25582 0.98876 0.77538 0.0
C1450 C 0.27277 0.98889 0.76306 0.0
C1451 C 0.2722 1.00095 0.76222 0.0
C1452 C 0.26333 1.00714 0.76775 0.0
C1453 C 0.25499 1.00075 0.77409 0.0
C1454 C 0.26288 0.02013 0.76709 0.0
C1455 C 0.25719 0.0266 0.77566 0.0
C1456 C 0.25697 0.03869 0.77517 0.0
C1457 C 0.26261 0.0444 0.76614 0.0
C1458 C 0.26839 0.03835 0.75759 0.0
C1459 C 0.26837 0.02627 0.75802 0.0
H1460 H 0.0531 0.26534 0.76946 0.0
H1461 H 0.02146 0.25235 0.78332 0.0
H1462 H 0.02142 0.2746 0.75314 0.0
H1463 H 1.00402 0.27874 0.75787 0.0
H1464 H 0.97255 0.26183 0.76738 0.0
H1465 H 1.00449 0.24701 0.77777 0.0
C1466 C 0.04375 0.26497 0.76924 0.0
C1467 C 0.03783 0.27116 0.76076 0.0
C1468 C 0.0379 0.25798 0.77717 0.0
C1469 C 0.02577 0.25738 0.77674 0.0
C1470 C 0.0194 0.26344 0.76819 0.0
C1471 C 0.02574 0.27011 0.76005 0.0
C1472 C 1.0063 0.26292 0.76784 0.0
C1473 C 0.99982 0.27149 0.76199 0.0
C1474 C 0.98768 0.27105 0.76172 0.0
C1475 C 0.9819 0.26213 0.76748 0.0
C1476 C 0.98794 0.2536 0.77342 0.0
C1477 C 1.00007 0.25395 0.77348 0.0
H1478 H 0.75963 0.05352 0.7701 0.0
H1479 H 0.75127 0.02229 0.75263 0.0
H1480 H 0.77283 0.0219 0.78333 0.0
H1481 H 0.77894 1.00558 0.77689 0.0
H1482 H 0.76386 0.97359 0.76632 0.0
H1483 H 0.74672 1.00478 0.75766 0.0
C1484 C 0.76024 0.04424 0.7696 0.0
C1485 C 0.76716 0.03835 0.77752 0.0
C1486 C 0.75432 0.03845 0.76082 0.0
C1487 C 0.75559 0.0265 0.75975 0.0
C1488 C 0.76218 0.02014 0.76787 0.0
C1489 C 0.76794 0.02633 0.77675 0.0
C1490 C 0.76279 1.00715 0.76728 0.0
C1491 C 0.77192 1.00106 0.77265 0.0
C1492 C 0.77227 0.98898 0.77241 0.0
C1493 C 0.76359 0.9829 0.76656 0.0
C1494 C 0.7545 0.98858 0.76109 0.0
C1495 C 0.75408 1.00064 0.76154 0.0
H1496 H 0.2646 0.76386 0.47765 0.0
H1497 H 0.24833 0.75405 0.50917 0.0
H1498 H 0.28014 0.77415 0.50954 0.0
H1499 H 0.27432 0.7801 0.52621 0.0
H1500 H 0.26166 0.76624 0.55796 0.0
H1501 H 0.25322 0.74901 0.52657 0.0
C1502 C 0.26456 0.76387 0.48699 0.0
C1503 C 0.27327 0.76982 0.49296 0.0
C1504 C 0.25572 0.75803 0.4928 0.0
C1505 C 0.25553 0.75822 0.50492 0.0
C1506 C 0.26422 0.7641 0.51134 0.0
C1507 C 0.27313 0.76982 0.5051 0.0
C1508 C 0.26382 0.7645 0.5244 0.0
C1509 C 0.26955 0.77338 0.53063 0.0
C1510 C 0.26888 0.77398 0.54272 0.0
C1511 C 0.26216 0.76585 0.54865 0.0
C1512 C 0.25633 0.75701 0.54285 0.0
C1513 C 0.25746 0.75615 0.53081 0.0
H1514 H 0.76228 0.76348 0.5574 0.0
H1515 H 0.77277 0.74826 0.52581 0.0
H1516 H 0.75413 0.7804 0.5257 0.0
H1517 H 0.74954 0.77619 0.5082 0.0
H1518 H 0.76655 0.76691 0.47715 0.0
H1519 H 0.77907 0.75363 0.50917 0.0
C1520 C 0.76259 0.76371 0.54806 0.0
C1521 C 0.7573 0.77271 0.54211 0.0
C1522 C 0.76833 0.75503 0.54221 0.0
C1523 C 0.76866 0.75531 0.53011 0.0
C1524 C 0.76351 0.76437 0.52373 0.0
C1525 C 0.75786 0.77308 0.53002 0.0
C1526 C 0.7642 0.76484 0.51069 0.0
C1527 C 0.75643 0.77161 0.50411 0.0
C1528 C 0.75755 0.77272 0.4921 0.0
C1529 C 0.766 0.76645 0.48646 0.0
C1530 C 0.77355 0.75935 0.49256 0.0
C1531 C 0.77276 0.75871 0.50464 0.0
H1532 H 0.76468 0.26407 0.47611 0.0
H1533 H 0.74839 0.25424 0.5076 0.0
H1534 H 0.78022 0.27433 0.50799 0.0
H1535 H 0.77466 0.28018 0.52468 0.0
H1536 H 0.7617 0.26667 0.55644 0.0
H1537 H 0.7529 0.24951 0.52511 0.0
C1538 C 0.76465 0.26407 0.48545 0.0
C1539 C 0.77335 0.27001 0.49143 0.0
C1540 C 0.75581 0.25822 0.49126 0.0
C1541 C 0.7556 0.25841 0.50337 0.0
C1542 C 0.76427 0.26431 0.50981 0.0
C1543 C 0.7732 0.27001 0.50356 0.0
C1544 C 0.76384 0.26477 0.52288 0.0
C1545 C 0.76975 0.27356 0.5291 0.0
C1546 C 0.76908 0.27422 0.54119 0.0
C1547 C 0.76219 0.26625 0.54712 0.0
C1548 C 0.75616 0.25752 0.54134 0.0
C1549 C 0.75729 0.25659 0.52932 0.0
H1550 H 0.26689 0.26757 0.55627 0.0
H1551 H 0.24881 0.27541 0.52512 0.0
H1552 H 0.27892 0.25361 0.52469 0.0
H1553 H 0.27255 0.2476 0.50843 0.0
H1554 H 0.25999 0.26085 0.47639 0.0
H1555 H 0.25259 0.27889 0.5073 0.0
C1556 C 0.26617 0.26686 0.54699 0.0
C1557 C 0.27368 0.25971 0.54108 0.0
C1558 C 0.25738 0.27271 0.54121 0.0
C1559 C 0.25598 0.2712 0.52927 0.0
C1560 C 0.26376 0.26443 0.52287 0.0
C1561 C 0.27262 0.25872 0.52906 0.0
C1562 C 0.26267 0.26337 0.50988 0.0
C1563 C 0.26792 0.25423 0.50388 0.0
C1564 C 0.26713 0.25336 0.49181 0.0
C1565 C 0.26054 0.26136 0.4857 0.0
C1566 C 0.25507 0.27036 0.49131 0.0
C1567 C 0.25645 0.27154 0.50329 0.0
H1568 H 0.76719 0.47306 0.7698 0.0
H1569 H 0.74919 0.50379 0.77759 0.0
H1570 H 0.77982 0.50495 0.75623 0.0
H1571 H 0.7737 0.52117 0.75021 0.0
H1572 H 0.76066 0.55276 0.76297 0.0
H1573 H 0.75262 0.52163 0.78098 0.0
C1574 C 0.76655 0.48233 0.76912 0.0
C1575 C 0.77432 0.48842 0.76215 0.0
C1576 C 0.7577 0.48789 0.7749 0.0
C1577 C 0.75641 0.49981 0.77343 0.0
C1578 C 0.76436 0.50641 0.76679 0.0
C1579 C 0.77334 0.50043 0.76119 0.0
C1580 C 0.76329 0.51937 0.76573 0.0
C1581 C 0.76884 0.52555 0.75671 0.0
C1582 C 0.76807 0.53757 0.75578 0.0
C1583 C 0.76119 0.54348 0.76356 0.0
C1584 C 0.75539 0.53772 0.77244 0.0
C1585 C 0.75675 0.52577 0.77372 0.0
H1586 H 0.2601 0.55156 0.77018 0.0
H1587 H 0.24756 0.52011 0.75577 0.0
H1588 H 0.27809 0.52065 0.77772 0.0
H1589 H 0.27522 0.5027 0.7804 0.0
H1590 H 0.26659 0.47194 0.76236 0.0
H1591 H 0.2529 0.50368 0.75021 0.0
C1592 C 0.26075 0.54231 0.76931 0.0
C1593 C 0.26958 0.53658 0.77512 0.0
C1594 C 0.25304 0.53644 0.76208 0.0
C1595 C 0.25401 0.52445 0.76094 0.0
C1596 C 0.26294 0.51827 0.76663 0.0
C1597 C 0.27088 0.5247 0.77349 0.0
C1598 C 0.26395 0.50529 0.76545 0.0
C1599 C 0.2708 0.49873 0.77322 0.0
C1600 C 0.27214 0.48681 0.77182 0.0
C1601 C 0.26603 0.4812 0.76305 0.0
C1602 C 0.25885 0.48723 0.75548 0.0
C1603 C 0.25805 0.49923 0.75655 0.0
H1604 H 0.26571 0.47314 0.26871 0.0
H1605 H 0.24854 0.50417 0.2773 0.0
H1606 H 0.2791 0.50505 0.25586 0.0
H1607 H 0.27283 0.52149 0.24998 0.0
H1608 H 0.26267 0.55319 0.26504 0.0
H1609 H 0.25334 0.52167 0.28178 0.0
C1610 C 0.26528 0.48243 0.26823 0.0
C1611 C 0.2732 0.48848 0.2614 0.0
C1612 C 0.25658 0.48808 0.27416 0.0
C1613 C 0.2556 0.50006 0.27299 0.0
C1614 C 0.26371 0.50659 0.26649 0.0
C1615 C 0.27252 0.50053 0.2607 0.0
C1616 C 0.26314 0.5196 0.26594 0.0
C1617 C 0.26862 0.52587 0.25694 0.0
C1618 C 0.26858 0.53795 0.25665 0.0
C1619 C 0.26272 0.54388 0.26522 0.0
C1620 C 0.25704 0.53803 0.27413 0.0
C1621 C 0.25734 0.52594 0.27452 0.0
H1622 H 0.76005 0.55382 0.26972 0.0
H1623 H 0.74693 0.52221 0.25608 0.0
H1624 H 0.77742 0.5227 0.27801 0.0
H1625 H 0.77301 0.50505 0.28201 0.0
H1626 H 0.76394 0.47387 0.26477 0.0
H1627 H 0.7529 0.50577 0.25035 0.0
C1628 C 0.76055 0.54455 0.26904 0.0
C1629 C 0.76927 0.53879 0.27501 0.0
C1630 C 0.75271 0.53865 0.26197 0.0
C1631 C 0.75347 0.52661 0.26111 0.0
C1632 C 0.76227 0.52043 0.26695 0.0
C1633 C 0.77033 0.52685 0.27366 0.0
C1634 C 0.76291 0.50742 0.26625 0.0
C1635 C 0.76893 0.50092 0.27472 0.0
C1636 C 0.76943 0.48885 0.27414 0.0
C1637 C 0.76369 0.48316 0.26517 0.0
C1638 C 0.75755 0.48922 0.25674 0.0
C1639 C 0.75732 0.50129 0.25722 0.0
H1640 H 0.47354 0.26696 0.76234 0.0
H1641 H 0.50501 0.27491 0.78015 0.0
H1642 H 0.50513 0.25399 0.74931 0.0
H1643 H 0.52165 0.24798 0.75546 0.0
H1644 H 0.55382 0.26286 0.76624 0.0
H1645 H 0.52257 0.27938 0.77547 0.0
C1646 C 0.48286 0.26639 0.76296 0.0
C1647 C 0.48873 0.25965 0.75505 0.0
C1648 C 0.4887 0.2721 0.77186 0.0
C1649 C 0.50072 0.27079 0.77297 0.0
C1650 C 0.50707 0.26437 0.76482 0.0
C1651 C 0.50079 0.2588 0.75589 0.0
C1652 C 0.52012 0.26374 0.76543 0.0
C1653 C 0.52621 0.25486 0.75984 0.0
C1654 C 0.53835 0.25456 0.76001 0.0
C1655 C 0.54448 0.26305 0.76605 0.0
C1656 C 0.5388 0.27183 0.77179 0.0
C1657 C 0.52669 0.27221 0.77139 0.0
H1658 H 0.55231 0.7598 0.76519 0.0
H1659 H 0.52036 0.74727 0.77878 0.0
H1660 H 0.52133 0.77751 0.75665 0.0
H1661 H 0.50358 0.77298 0.75244 0.0
H1662 H 0.4721 0.76421 0.76949 0.0
H1663 H 0.50402 0.75375 0.78459 0.0
C1664 C 0.54301 0.76046 0.76584 0.0
C1665 C 0.53738 0.7692 0.75979 0.0
C1666 C 0.53695 0.75276 0.7729 0.0
C1667 C 0.52489 0.7537 0.77375 0.0
C1668 C 0.51884 0.76253 0.76783 0.0
C1669 C 0.5254 0.77044 0.76108 0.0
C1670 C 0.5058 0.7633 0.76846 0.0
C1671 C 0.49936 0.7691 0.75979 0.0
C1672 C 0.48723 0.76955 0.76022 0.0
C1673 C 0.48144 0.76403 0.76927 0.0
C1674 C 0.48744 0.75816 0.77792 0.0
C1675 C 0.49957 0.75796 0.77758 0.0
H1676 H 0.4725 0.76263 0.26739 0.0
H1677 H 0.5042 0.77928 0.27686 0.0
H1678 H 0.5043 0.74761 0.25733 0.0
H1679 H 0.52105 0.75338 0.25133 0.0
H1680 H 0.55299 0.76543 0.26559 0.0
H1681 H 0.52152 0.77459 0.28195 0.0
C1682 C 0.48185 0.76285 0.26734 0.0
C1683 C 0.48779 0.75431 0.26148 0.0
C1684 C 0.48773 0.77172 0.27308 0.0
C1685 C 0.49987 0.77207 0.27281 0.0
C1686 C 0.50623 0.76349 0.26707 0.0
C1687 C 0.49992 0.75457 0.26151 0.0
C1688 C 0.51931 0.7639 0.26672 0.0
C1689 C 0.5255 0.75808 0.25804 0.0
C1690 C 0.53763 0.75855 0.25765 0.0
C1691 C 0.54364 0.76517 0.26578 0.0
C1692 C 0.53786 0.77118 0.27434 0.0
C1693 C 0.52577 0.77024 0.27499 0.0
H1694 H 0.55331 0.25918 0.26349 0.0
H1695 H 0.5222 0.27649 0.25497 0.0
H1696 H 0.5216 0.24606 0.27693 0.0
H1697 H 0.50445 0.25001 0.2811 0.0
H1698 H 0.47283 0.26262 0.26742 0.0
H1699 H 0.50436 0.27391 0.25211 0.0
C1700 C 0.54399 0.25969 0.2641 0.0
C1701 C 0.53802 0.25187 0.27111 0.0
C1702 C 0.53825 0.26837 0.25812 0.0
C1703 C 0.52625 0.26941 0.25937 0.0
C1704 C 0.51972 0.26136 0.26601 0.0
C1705 C 0.52594 0.2526 0.2719 0.0
C1706 C 0.50659 0.26192 0.26656 0.0
C1707 C 0.50022 0.25533 0.27476 0.0
C1708 C 0.48809 0.25526 0.27478 0.0
C1709 C 0.48218 0.26249 0.26722 0.0
C1710 C 0.48807 0.26947 0.25932 0.0
C1711 C 0.50017 0.26886 0.25873 0.0
H1712 H 0.18969 0.19942 0.11507 0.0
H1713 H 0.19794 0.20887 0.09801 0.0
H1714 H 0.23216 0.20115 0.11025 0.0
H1715 H 0.22403 0.19179 0.12728 0.0
H1716 H 0.21304 0.2274 0.09615 0.0
H1717 H 0.23282 0.1887 0.07762 0.0
H1718 H 0.22227 0.1879 0.08898 0.0
H1719 H 0.23714 0.19114 0.09227 0.0
C1720 C 0.19898 0.19979 0.11416 0.0
C1721 C 0.20618 0.19472 0.12253 0.0
C1722 C 0.20368 0.20514 0.10437 0.0
C1723 C 0.21567 0.20549 0.10269 0.0
C1724 C 0.22287 0.20069 0.11115 0.0
H1725 H 0.2662 0.23734 0.0595 0.0
H1726 H 0.25487 0.22556 0.07289 0.0
C1727 C 0.2182 0.19534 0.12092 0.0
C1728 C 0.22074 0.21116 0.09231 0.0
H1729 H 0.23927 0.20681 0.06999 0.0
C1730 C 0.21864 0.22286 0.09033 0.0
C1731 C 0.22802 0.20524 0.08467 0.0
C1732 C 0.23012 0.19252 0.0859 0.0
C1733 C 0.22405 0.22892 0.08128 0.0
C1734 C 0.23164 0.22307 0.07388 0.0
C1735 C 0.23347 0.2113 0.07565 0.0
C1736 C 0.23844 0.22924 0.06487 0.0
C1737 C 0.22202 0.24165 0.08004 0.0
C1738 C 0.23303 0.23488 0.05559 0.0
C1739 C 0.23953 0.24162 0.04786 0.0
C1740 C 0.25153 0.24284 0.04931 0.0
C1741 C 0.25696 0.23664 0.05821 0.0
C1742 C 0.25049 0.2299 0.06587 0.0
H1743 H 0.21771 0.24525 0.08771 0.0
H1744 H 0.2303 0.24636 0.07867 0.0
H1745 H 0.21643 0.24321 0.07242 0.0
H1746 H 0.22376 0.23433 0.05452 0.0
H1747 H 0.2351 0.24633 0.04113 0.0
H1748 H 0.8045 0.19019 0.12069 0.0
H1749 H 0.79706 0.20135 0.10449 0.0
H1750 H 0.83011 0.21834 0.10085 0.0
H1751 H 0.83778 0.20685 0.11682 0.0
H1752 H 0.7951 0.22449 0.10284 0.0
H1753 H 0.82305 0.20875 0.06783 0.0
H1754 H 0.82192 0.20156 0.08161 0.0
H1755 H 0.8308 0.21424 0.0801 0.0
C1756 C 0.81028 0.19613 0.11633 0.0
C1757 C 0.82179 0.19753 0.12004 0.0
C1758 C 0.80597 0.20258 0.1071 0.0
C1759 C 0.81306 0.21057 0.10132 0.0
C1760 C 0.82453 0.21206 0.10501 0.0
H1761 H 0.78497 0.26609 0.05972 0.0
H1762 H 0.79629 0.25473 0.0734 0.0
C1763 C 0.82887 0.20558 0.11425 0.0
C1764 C 0.80819 0.2177 0.09183 0.0
H1765 H 0.81102 0.22456 0.06327 0.0
C1766 C 0.79859 0.22449 0.09419 0.0
C1767 C 0.81266 0.21761 0.0805 0.0
C1768 C 0.8226 0.21008 0.07729 0.0
C1769 C 0.79337 0.23123 0.08561 0.0
C1770 C 0.79802 0.23141 0.07436 0.0
C1771 C 0.80756 0.22453 0.07193 0.0
C1772 C 0.79284 0.23849 0.06502 0.0
C1773 C 0.78274 0.23791 0.08862 0.0
C1774 C 0.78774 0.23324 0.05535 0.0
C1775 C 0.78136 0.23975 0.04742 0.0
C1776 C 0.77997 0.25161 0.04908 0.0
C1777 C 0.78579 0.25694 0.05831 0.0
C1778 C 0.79221 0.25046 0.06616 0.0
H1779 H 0.77863 0.2346 0.09662 0.0
H1780 H 0.78519 0.24704 0.09005 0.0
H1781 H 0.77629 0.23757 0.08152 0.0
H1782 H 0.78817 0.22402 0.05426 0.0
H1783 H 0.77693 0.23542 0.04042 0.0
H1784 H 0.83578 0.83025 0.11122 0.0
H1785 H 0.82871 0.82011 0.09408 0.0
H1786 H 0.79848 0.80896 0.11269 0.0
H1787 H 0.80548 0.819 0.12982 0.0
H1788 H 0.82324 0.79719 0.0903 0.0
H1789 H 0.78455 0.82395 0.08413 0.0
H1790 H 0.79623 0.82803 0.09367 0.0
H1791 H 0.78543 0.81779 0.0983 0.0
C1792 C 0.82767 0.82556 0.1117 0.0
C1793 C 0.82116 0.82556 0.1219 0.0
C1794 C 0.82361 0.81981 0.10187 0.0
C1795 C 0.81293 0.81397 0.102 0.0
C1796 C 0.80659 0.81367 0.11226 0.0
H1797 H 0.78377 0.76055 0.06041 0.0
H1798 H 0.795 0.77229 0.07385 0.0
C1799 C 0.81062 0.81942 0.12207 0.0
C1800 C 0.80843 0.80808 0.09149 0.0
H1801 H 0.78491 0.80632 0.07368 0.0
C1802 C 0.81491 0.79927 0.08659 0.0
C1803 C 0.79767 0.81092 0.08647 0.0
C1804 C 0.79061 0.82077 0.09083 0.0
C1805 C 0.81068 0.79289 0.07717 0.0
C1806 C 0.7996 0.79526 0.07262 0.0
C1807 C 0.79336 0.80442 0.07719 0.0
C1808 C 0.79395 0.7879 0.06369 0.0
C1809 C 0.81813 0.78364 0.07221 0.0
C1810 C 0.78958 0.79271 0.05343 0.0
C1811 C 0.78306 0.78598 0.04572 0.0
C1812 C 0.78065 0.77436 0.04822 0.0
C1813 C 0.78543 0.76949 0.05826 0.0
C1814 C 0.79194 0.77618 0.06592 0.0
H1815 H 0.82743 0.78542 0.07388 0.0
H1816 H 0.81591 0.7753 0.07636 0.0
H1817 H 0.81676 0.7828 0.06278 0.0
H1818 H 0.79094 0.80175 0.05155 0.0
H1819 H 0.77941 0.79 0.03812 0.0
H1820 H 0.20555 0.84304 0.1082 0.0
H1821 H 0.21285 0.8322 0.09187 0.0
H1822 H 0.20931 0.80075 0.11139 0.0
H1823 H 0.20205 0.81153 0.12779 0.0
H1824 H 0.23234 0.81911 0.09129 0.0
H1825 H 0.19401 0.7921 0.08096 0.0
H1826 H 0.19328 0.80455 0.09012 0.0
H1827 H 0.19846 0.79113 0.09576 0.0
C1828 C 0.20631 0.83381 0.10904 0.0
C1829 C 0.20321 0.82817 0.11935 0.0
C1830 C 0.21043 0.82762 0.09966 0.0
C1831 C 0.21149 0.81563 0.10032 0.0
C1832 C 0.20831 0.80995 0.11055 0.0
H1833 H 0.24323 0.76232 0.06131 0.0
H1834 H 0.23185 0.77396 0.07438 0.0
C1835 C 0.20417 0.81614 0.11994 0.0
C1836 C 0.21657 0.80919 0.09058 0.0
H1837 H 0.21171 0.78682 0.07215 0.0
C1838 C 0.22778 0.81214 0.08701 0.0
C1839 C 0.21063 0.80007 0.085 0.0
C1840 C 0.19839 0.79683 0.08807 0.0
C1841 C 0.23335 0.80599 0.07833 0.0
C1842 C 0.22748 0.79675 0.07287 0.0
C1843 C 0.2162 0.79391 0.0763 0.0
C1844 C 0.23322 0.78949 0.06414 0.0
C1845 C 0.24566 0.80914 0.0754 0.0
C1846 C 0.23739 0.79422 0.05377 0.0
C1847 C 0.24396 0.78757 0.04627 0.0
C1848 C 0.24644 0.77607 0.04901 0.0
C1849 C 0.24162 0.7712 0.05904 0.0
C1850 C 0.23507 0.77783 0.0665 0.0
H1851 H 0.24973 0.81469 0.08208 0.0
H1852 H 0.25094 0.80132 0.07443 0.0
H1853 H 0.24582 0.81393 0.06711 0.0
H1854 H 0.23587 0.80314 0.05165 0.0
H1855 H 0.24756 0.79158 0.03864 0.0
H1856 H 0.19849 0.84296 0.92691 0.0
H1857 H 0.20715 0.83328 0.94361 0.0
H1858 H 0.22458 0.81011 0.92095 0.0
H1859 H 0.21609 0.81981 0.90422 0.0
H1860 H 0.20555 0.80916 0.94993 0.0
H1861 H 0.25056 0.82379 0.94195 0.0
H1862 H 0.23824 0.83067 0.93543 0.0
H1863 H 0.24344 0.8174 0.92973 0.0
C1864 C 0.20422 0.83585 0.92548 0.0
C1865 C 0.20663 0.83218 0.91422 0.0
C1866 C 0.20912 0.8303 0.93503 0.0
C1867 C 0.21662 0.82108 0.93351 0.0
C1868 C 0.21893 0.81731 0.92231 0.0
H1869 H 0.24122 0.76643 0.97564 0.0
H1870 H 0.23071 0.77932 0.96275 0.0
C1871 C 0.21398 0.82279 0.91276 0.0
C1872 C 0.22195 0.81527 0.94361 0.0
H1873 H 0.24796 0.80889 0.95588 0.0
C1874 C 0.21481 0.80919 0.95131 0.0
C1875 C 0.23401 0.81545 0.94549 0.0
C1876 C 0.24203 0.82226 0.93779 0.0
C1877 C 0.21948 0.80287 0.96055 0.0
C1878 C 0.23159 0.80259 0.96208 0.0
C1879 C 0.23868 0.80908 0.95468 0.0
C1880 C 0.23712 0.79492 0.97071 0.0
C1881 C 0.21143 0.79644 0.96853 0.0
C1882 C 0.24422 0.7994 0.9795 0.0
C1883 C 0.25022 0.79201 0.98694 0.0
C1884 C 0.24937 0.78004 0.98553 0.0
C1885 C 0.24205 0.77562 0.9769 0.0
C1886 C 0.23599 0.78297 0.96957 0.0
H1887 H 0.2026 0.80003 0.96824 0.0
H1888 H 0.21085 0.78732 0.96584 0.0
H1889 H 0.21466 0.79669 0.97755 0.0
H1890 H 0.24527 0.8086 0.98046 0.0
H1891 H 0.25589 0.79563 0.99345 0.0
H1892 H 0.19376 0.22382 0.9077 0.0
H1893 H 0.20329 0.23176 0.92474 0.0
H1894 H 0.20989 0.19752 0.93727 0.0
H1895 H 0.20029 0.18947 0.92021 0.0
H1896 H 0.19757 0.22883 0.94778 0.0
H1897 H 0.24169 0.21286 0.93945 0.0
H1898 H 0.23054 0.21285 0.92854 0.0
H1899 H 0.23051 0.20203 0.93965 0.0
C1900 C 0.19718 0.21795 0.91409 0.0
C1901 C 0.19621 0.20598 0.91256 0.0
C1902 C 0.20268 0.22252 0.92382 0.0
C1903 C 0.20741 0.21526 0.93226 0.0
C1904 C 0.2065 0.20331 0.93078 0.0
H1905 H 0.24735 0.23478 0.9941 0.0
H1906 H 0.23538 0.22356 0.98059 0.0
C1907 C 0.20101 0.19872 0.92101 0.0
C1908 C 0.21308 0.22032 0.94266 0.0
H1909 H 0.23896 0.22298 0.95672 0.0
C1910 C 0.20661 0.2275 0.94976 0.0
C1911 C 0.22486 0.21854 0.9453 0.0
C1912 C 0.23236 0.21123 0.93781 0.0
C1913 C 0.21162 0.23306 0.95932 0.0
C1914 C 0.22347 0.23156 0.96176 0.0
C1915 C 0.22986 0.22411 0.95487 0.0
C1916 C 0.22963 0.23833 0.97081 0.0
C1917 C 0.20416 0.24052 0.9667 0.0
C1918 C 0.23024 0.25035 0.96994 0.0
C1919 C 0.23703 0.25674 0.97763 0.0
C1920 C 0.24341 0.25125 0.98637 0.0
C1921 C 0.24243 0.23925 0.98755 0.0
C1922 C 0.23566 0.23283 0.97978 0.0
H1923 H 0.19491 0.23799 0.96599 0.0
H1924 H 0.20681 0.24004 0.9759 0.0
H1925 H 0.20502 0.24958 0.96378 0.0
H1926 H 0.22585 0.25479 0.963 0.0
H1927 H 0.23763 0.26597 0.9765 0.0
H1928 H 0.8414 0.2062 0.92642 0.0
H1929 H 0.83046 0.21333 0.94278 0.0
H1930 H 0.79874 0.20772 0.92399 0.0
H1931 H 0.80961 0.20065 0.90755 0.0
H1932 H 0.81629 0.23211 0.94303 0.0
H1933 H 0.79148 0.19287 0.95504 0.0
H1934 H 0.80385 0.19253 0.94568 0.0
H1935 H 0.79003 0.1968 0.94013 0.0
C1936 C 0.83209 0.20647 0.92575 0.0
C1937 C 0.82641 0.20285 0.91563 0.0
C1938 C 0.82585 0.21049 0.93515 0.0
C1939 C 0.81376 0.21092 0.9347 0.0
C1940 C 0.80804 0.20721 0.92466 0.0
H1941 H 0.75946 0.2407 0.97422 0.0
H1942 H 0.77139 0.22961 0.96117 0.0
C1943 C 0.81428 0.20318 0.91525 0.0
C1944 C 0.80722 0.21592 0.94443 0.0
H1945 H 0.78547 0.21043 0.96351 0.0
C1946 C 0.80964 0.22732 0.9476 0.0
C1947 C 0.79853 0.20969 0.95038 0.0
C1948 C 0.79587 0.19726 0.94773 0.0
C1949 C 0.80336 0.23279 0.95626 0.0
C1950 C 0.79455 0.22661 0.96211 0.0
C1951 C 0.79224 0.21515 0.95907 0.0
C1952 C 0.78718 0.23217 0.97088 0.0
C1953 C 0.80591 0.24528 0.95874 0.0
C1954 C 0.79197 0.23692 0.98096 0.0
C1955 C 0.78516 0.24333 0.98844 0.0
C1956 C 0.77342 0.24509 0.98597 0.0
C1957 C 0.76851 0.23967 0.97627 0.0
C1958 C 0.77531 0.23328 0.96882 0.0
H1959 H 0.81104 0.24944 0.95178 0.0
H1960 H 0.7978 0.25013 0.95981 0.0
H1961 H 0.81094 0.24595 0.96687 0.0
H1962 H 0.80106 0.23597 0.98286 0.0
H1963 H 0.7892 0.2474 0.99582 0.0
H1964 H 0.8148 0.84328 0.91963 0.0
H1965 H 0.80709 0.83314 0.93645 0.0
H1966 H 0.82121 0.80146 0.92413 0.0
H1967 H 0.8289 0.81152 0.90722 0.0
H1968 H 0.79129 0.81539 0.93689 0.0
H1969 H 0.83207 0.80163 0.95753 0.0
H1970 H 0.83165 0.81242 0.94631 0.0
H1971 H 0.83079 0.79742 0.94273 0.0
C1972 C 0.81627 0.83415 0.92046 0.0
C1973 C 0.82247 0.82823 0.91201 0.0
C1974 C 0.8119 0.82837 0.93014 0.0
C1975 C 0.81368 0.81656 0.93167 0.0
C1976 C 0.81994 0.81063 0.92331 0.0
H1977 H 0.78866 0.76206 0.97512 0.0
H1978 H 0.79892 0.77479 0.96175 0.0
C1979 C 0.82433 0.8164 0.91362 0.0
C1980 C 0.80846 0.81035 0.94168 0.0
H1981 H 0.81475 0.79289 0.96461 0.0
C1982 C 0.79643 0.81058 0.94303 0.0
C1983 C 0.81516 0.80408 0.94971 0.0
C1984 C 0.82814 0.80394 0.94909 0.0
C1985 C 0.7909 0.80439 0.9519 0.0
C1986 C 0.79758 0.79793 0.9598 0.0
C1987 C 0.80963 0.79787 0.95859 0.0
C1988 C 0.79215 0.79046 0.96879 0.0
C1989 C 0.7779 0.80442 0.95244 0.0
C1990 C 0.7852 0.79503 0.97749 0.0
C1991 C 0.77929 0.78773 0.9852 0.0
C1992 C 0.78022 0.77574 0.98429 0.0
C1993 C 0.78766 0.77126 0.97595 0.0
C1994 C 0.79356 0.77853 0.96832 0.0
H1995 H 0.77397 0.80783 0.94439 0.0
H1996 H 0.77444 0.79561 0.954 0.0
H1997 H 0.77517 0.80993 0.95967 0.0
H1998 H 0.78415 0.80423 0.97817 0.0
H1999 H 0.77363 0.79143 0.99151 0.0
H2000 H 0.10813 0.19059 0.20324 0.0
H2001 H 0.09122 0.19873 0.21261 0.0
H2002 H 0.10636 0.23262 0.20968 0.0
H2003 H 0.12326 0.2246 0.20041 0.0
H2004 H 0.08935 0.21138 0.23268 0.0
H2005 H 0.07462 0.23722 0.19535 0.0
H2006 H 0.08521 0.22608 0.19406 0.0
H2007 H 0.08939 0.2401 0.19916 0.0
C2008 C 0.1079 0.19977 0.20465 0.0
C2009 C 0.11704 0.20694 0.20094 0.0
C2010 C 0.09818 0.20442 0.20996 0.0
C2011 C 0.09737 0.21633 0.21162 0.0
C2012 C 0.10661 0.22345 0.20819 0.0
H2013 H 0.05619 0.26544 0.246 0.0
H2014 H 0.06938 0.25463 0.23398 0.0
C2015 C 0.11629 0.21883 0.20289 0.0
C2016 C 0.08705 0.22134 0.21719 0.0
H2017 H 0.0664 0.2418 0.21359 0.0
C2018 C 0.08422 0.21791 0.22845 0.0
C2019 C 0.08031 0.22984 0.21166 0.0
C2020 C 0.08245 0.23345 0.19935 0.0
C2021 C 0.07524 0.22313 0.23452 0.0
C2022 C 0.06876 0.23191 0.22912 0.0
C2023 C 0.07135 0.23508 0.21774 0.0
C2024 C 0.05994 0.23854 0.23547 0.0
C2025 C 0.0731 0.21959 0.24686 0.0
C2026 C 0.04997 0.23322 0.23998 0.0
C2027 C 0.04235 0.23943 0.24686 0.0
C2028 C 0.04462 0.25105 0.24936 0.0
C2029 C 0.05427 0.25648 0.24431 0.0
C2030 C 0.06181 0.2503 0.23742 0.0
H2031 H 0.0802 0.2143 0.25041 0.0
H2032 H 0.07208 0.22726 0.25238 0.0
H2033 H 0.065 0.21443 0.24731 0.0
H2034 H 0.04823 0.2242 0.23841 0.0
H2035 H 0.03502 0.23502 0.25066 0.0
H2036 H 0.84307 0.10546 0.20956 0.0
H2037 H 0.83214 0.08887 0.21682 0.0
H2038 H 0.80036 0.10674 0.21053 0.0
H2039 H 0.81123 0.1234 0.20332 0.0
H2040 H 0.81757 0.08834 0.23547 0.0
H2041 H 0.79372 0.07551 0.19599 0.0
H2042 H 0.80603 0.08517 0.19568 0.0
H2043 H 0.79207 0.09036 0.19965 0.0
C2044 C 0.83375 0.10588 0.20971 0.0
C2045 C 0.82804 0.1158 0.20586 0.0
C2046 C 0.82751 0.09635 0.2138 0.0
C2047 C 0.81542 0.09648 0.21408 0.0
C2048 C 0.80967 0.10631 0.21014 0.0
H2049 H 0.76082 0.056 0.24397 0.0
H2050 H 0.77291 0.06922 0.23274 0.0
C2051 C 0.81591 0.11586 0.20604 0.0
C2052 C 0.80887 0.08662 0.21914 0.0
H2053 H 0.78738 0.06699 0.21365 0.0
C2054 C 0.81107 0.08358 0.23066 0.0
C2055 C 0.80036 0.08042 0.21287 0.0
C2056 C 0.79796 0.08294 0.20033 0.0
C2057 C 0.80473 0.0748 0.2362 0.0
C2058 C 0.7961 0.06871 0.22998 0.0
C2059 C 0.79402 0.07162 0.2184 0.0
C2060 C 0.78866 0.05984 0.2356 0.0
C2061 C 0.80702 0.07245 0.2488 0.0
C2062 C 0.7934 0.0499 0.24056 0.0
C2063 C 0.78649 0.04233 0.24704 0.0
C2064 C 0.77473 0.04457 0.24866 0.0
C2065 C 0.76989 0.05413 0.24304 0.0
C2066 C 0.77678 0.06167 0.23658 0.0
H2067 H 0.81206 0.07952 0.25291 0.0
H2068 H 0.79881 0.07125 0.25356 0.0
H2069 H 0.81205 0.06444 0.24969 0.0
H2070 H 0.80251 0.04819 0.23972 0.0
H2071 H 0.79048 0.03506 0.25127 0.0
H2072 H 0.89994 0.81403 0.2175 0.0
H2073 H 0.91715 0.80589 0.22646 0.0
H2074 H 0.93799 0.81933 0.19875 0.0
H2075 H 0.92074 0.82728 0.18956 0.0
H2076 H 0.94246 0.79637 0.20388 0.0
H2077 H 0.94335 0.8225 0.24359 0.0
H2078 H 0.92969 0.81552 0.24103 0.0
H2079 H 0.93483 0.82632 0.23111 0.0
C2080 C 0.90817 0.81526 0.21329 0.0
C2081 C 0.90893 0.82134 0.20279 0.0
C2082 C 0.91804 0.8107 0.2185 0.0
C2083 C 0.92891 0.81213 0.21338 0.0
C2084 C 0.92971 0.81819 0.20291 0.0
H2085 H 0.99164 0.79152 0.25095 0.0
H2086 H 0.97834 0.8026 0.23875 0.0
C2087 C 0.91985 0.82281 0.19771 0.0
C2088 C 0.93931 0.80686 0.21871 0.0
H2089 H 0.95507 0.80574 0.24366 0.0
C2090 C 0.94529 0.79851 0.21253 0.0
C2091 C 0.94315 0.80976 0.22993 0.0
C2092 C 0.9375 0.8191 0.23677 0.0
C2093 C 0.95466 0.79263 0.21746 0.0
C2094 C 0.95807 0.79508 0.22892 0.0
C2095 C 0.95242 0.80379 0.23491 0.0
C2096 C 0.96692 0.7882 0.23513 0.0
C2097 C 0.96077 0.7838 0.21036 0.0
C2098 C 0.96503 0.77641 0.23702 0.0
C2099 C 0.97259 0.7701 0.24395 0.0
C2100 C 0.98221 0.77544 0.24919 0.0
C2101 C 0.98438 0.78715 0.24692 0.0
C2102 C 0.97674 0.79349 0.24003 0.0
H2103 H 0.95961 0.78543 0.20099 0.0
H2104 H 0.97014 0.78371 0.21237 0.0
H2105 H 0.9571 0.77516 0.21232 0.0
H2106 H 0.95744 0.77215 0.23353 0.0
H2107 H 0.9707 0.76109 0.24553 0.0
H2108 H 0.20509 0.91489 0.19114 0.0
H2109 H 0.21626 0.931 0.19928 0.0
H2110 H 0.20455 0.92167 0.23328 0.0
H2111 H 0.19367 0.90547 0.22531 0.0
H2112 H 0.20859 0.94998 0.21275 0.0
H2113 H 0.2398 0.9232 0.23682 0.0
H2114 H 0.23071 0.9175 0.22549 0.0
H2115 H 0.22504 0.91942 0.23972 0.0
C2116 C 0.20499 0.9162 0.20037 0.0
C2117 C 0.19848 0.90885 0.20757 0.0
C2118 C 0.21131 0.92546 0.20499 0.0
C2119 C 0.21135 0.92746 0.2169 0.0
C2120 C 0.20479 0.9202 0.22408 0.0
H2121 H 0.23845 0.97268 0.26795 0.0
H2122 H 0.22784 0.95892 0.25599 0.0
C2123 C 0.19847 0.911 0.21948 0.0
C2124 C 0.21818 0.93711 0.22196 0.0
H2125 H 0.23904 0.94296 0.24204 0.0
C2126 C 0.21536 0.94847 0.21905 0.0
C2127 C 0.22706 0.93513 0.23012 0.0
C2128 C 0.23093 0.92315 0.23315 0.0
C2129 C 0.22078 0.95789 0.22452 0.0
C2130 C 0.22932 0.95587 0.23301 0.0
C2131 C 0.23242 0.94451 0.23559 0.0
C2132 C 0.23476 0.96526 0.23987 0.0
C2133 C 0.217 0.9699 0.22154 0.0
C2134 C 0.24198 0.97363 0.23477 0.0
C2135 C 0.24806 0.98158 0.24164 0.0
C2136 C 0.24707 0.98119 0.2537 0.0
C2137 C 0.23944 0.97313 0.25869 0.0
C2138 C 0.23338 0.96526 0.25186 0.0
H2139 H 0.2089 0.96991 0.2164 0.0
H2140 H 0.21569 0.97497 0.22949 0.0
H2141 H 0.22384 0.97427 0.21643 0.0
H2142 H 0.2433 0.9737 0.22555 0.0
H2143 H 0.25396 0.98763 0.23758 0.0
H2144 H 0.10982 0.83504 0.832 0.0
H2145 H 0.0929 0.82662 0.82232 0.0
H2146 H 0.10592 0.79267 0.82892 0.0
H2147 H 0.12284 0.80098 0.8385 0.0
H2148 H 0.09161 0.81234 0.80322 0.0
H2149 H 0.07316 0.79025 0.84138 0.0
H2150 H 0.08427 0.8012 0.84251 0.0
H2151 H 0.08795 0.7867 0.83892 0.0
C2152 C 0.10911 0.82578 0.83134 0.0
C2153 C 0.11766 0.81869 0.83614 0.0
C2154 C 0.0994 0.82098 0.82586 0.0
C2155 C 0.098 0.809 0.82512 0.0
C2156 C 0.10663 0.80193 0.82968 0.0
H2157 H 0.05559 0.75866 0.79187 0.0
H2158 H 0.06882 0.76984 0.80401 0.0
C2159 C 0.11632 0.8067 0.83515 0.0
C2160 C 0.08774 0.80385 0.81927 0.0
H2161 H 0.06567 0.78447 0.82303 0.0
C2162 C 0.08583 0.80638 0.80758 0.0
C2163 C 0.08019 0.79608 0.82498 0.0
C2164 C 0.08141 0.79347 0.83767 0.0
C2165 C 0.07691 0.80094 0.80132 0.0
C2166 C 0.06957 0.7929 0.80696 0.0
C2167 C 0.07128 0.79063 0.81872 0.0
C2168 C 0.06068 0.78613 0.80057 0.0
C2169 C 0.07574 0.80345 0.7886 0.0
C2170 C 0.05141 0.7915 0.79495 0.0
C2171 C 0.04381 0.7851 0.78798 0.0
C2172 C 0.04537 0.77324 0.78652 0.0
C2173 C 0.05426 0.76781 0.79271 0.0
C2174 C 0.06181 0.77418 0.79968 0.0
H2175 H 0.08342 0.80808 0.78514 0.0
H2176 H 0.07445 0.79538 0.78369 0.0
H2177 H 0.0681 0.80891 0.78711 0.0
H2178 H 0.05025 0.80068 0.79569 0.0
H2179 H 0.03708 0.78953 0.7833 0.0
H2180 H 0.22444 0.12471 0.83157 0.0
H2181 H 0.23229 0.10793 0.822 0.0
H2182 H 0.19857 0.09192 0.82167 0.0
H2183 H 0.19062 0.1087 0.83133 0.0
H2184 H 0.23251 0.08521 0.82961 0.0
H2185 H 0.20861 0.08891 0.78814 0.0
H2186 H 0.20945 0.10051 0.79837 0.0
H2187 H 0.19981 0.08856 0.80082 0.0
C2188 C 0.21867 0.11762 0.82951 0.0
C2189 C 0.20687 0.11809 0.83227 0.0
C2190 C 0.22318 0.10803 0.82399 0.0
C2191 C 0.21603 0.09868 0.821 0.0
C2192 C 0.20424 0.09911 0.82367 0.0
H2193 H 0.23476 0.03622 0.78298 0.0
H2194 H 0.22419 0.04958 0.79529 0.0
C2195 C 0.1997 0.10873 0.82921 0.0
C2196 C 0.22106 0.08845 0.81532 0.0
H2197 H 0.22071 0.07292 0.7904 0.0
C2198 C 0.22989 0.0825 0.82105 0.0
C2199 C 0.2176 0.08483 0.80419 0.0
C2200 C 0.20841 0.09106 0.79745 0.0
C2201 C 0.23544 0.07317 0.81592 0.0
C2202 C 0.23223 0.06978 0.80465 0.0
C2203 C 0.22316 0.07549 0.79905 0.0
C2204 C 0.23878 0.06101 0.79816 0.0
C2205 C 0.24471 0.06704 0.82263 0.0
C2206 C 0.25051 0.06289 0.79579 0.0
C2207 C 0.25652 0.0553 0.78882 0.0
C2208 C 0.25095 0.04564 0.78399 0.0
C2209 C 0.23931 0.04351 0.78668 0.0
C2210 C 0.23325 0.05118 0.79363 0.0
H2211 H 0.24361 0.06812 0.83206 0.0
H2212 H 0.2447 0.05771 0.82065 0.0
H2213 H 0.25325 0.07072 0.82027 0.0
H2214 H 0.25494 0.07048 0.79899 0.0
H2215 H 0.26549 0.05716 0.78692 0.0
H2216 H 0.92005 0.18612 0.83387 0.0
H2217 H 0.9372 0.19543 0.8256 0.0
H2218 H 0.91574 0.22069 0.80908 0.0
H2219 H 0.89858 0.21158 0.81747 0.0
H2220 H 0.94212 0.19903 0.80193 0.0
H2221 H 0.94065 0.2402 0.82561 0.0
H2222 H 0.9327 0.22755 0.83015 0.0
H2223 H 0.92733 0.23635 0.81859 0.0
C2224 C 0.91899 0.19376 0.82861 0.0
C2225 C 0.90792 0.19812 0.82637 0.0
C2226 C 0.9288 0.19902 0.82383 0.0
C2227 C 0.92778 0.20883 0.81683 0.0
C2228 C 0.91676 0.21323 0.8146 0.0
H2229 H 0.97025 0.24021 0.76533 0.0
H2230 H 0.95696 0.22818 0.77653 0.0
C2231 C 0.90695 0.20794 0.81932 0.0
C2232 C 0.93816 0.21426 0.81149 0.0
H2233 H 0.95316 0.23964 0.80938 0.0
C2234 C 0.94461 0.20787 0.80365 0.0
C2235 C 0.94151 0.22574 0.81384 0.0
C2236 C 0.93526 0.23285 0.82259 0.0
C2237 C 0.95402 0.21282 0.79774 0.0
C2238 C 0.957 0.22448 0.79967 0.0
C2239 C 0.95084 0.23071 0.80786 0.0
C2240 C 0.96594 0.23062 0.79274 0.0
C2241 C 0.96064 0.20554 0.78944 0.0
C2242 C 0.9755 0.23594 0.79808 0.0
C2243 C 0.98316 0.24282 0.79165 0.0
C2244 C 0.98126 0.24464 0.77982 0.0
C2245 C 0.97193 0.23895 0.77443 0.0
C2246 C 0.96435 0.23203 0.78082 0.0
H2247 H 0.95957 0.19623 0.79141 0.0
H2248 H 0.95735 0.20707 0.78058 0.0
H2249 H 0.96998 0.20778 0.78962 0.0
H2250 H 0.97685 0.23503 0.80728 0.0
H2251 H 0.99019 0.24721 0.79605 0.0
H2252 H 0.84123 0.92129 0.83031 0.0
H2253 H 0.83182 0.93841 0.82248 0.0
H2254 H 0.80553 0.917 0.80689 0.0
H2255 H 0.81473 0.89988 0.81485 0.0
H2256 H 0.82742 0.94377 0.79914 0.0
H2257 H 0.78686 0.94126 0.82409 0.0
H2258 H 0.79958 0.93335 0.82813 0.0
H2259 H 0.79026 0.92817 0.81682 0.0
C2260 C 0.83334 0.92023 0.82536 0.0
C2261 C 0.82872 0.90919 0.82325 0.0
C2262 C 0.82802 0.93003 0.82083 0.0
C2263 C 0.81789 0.92901 0.81421 0.0
C2264 C 0.81323 0.91802 0.81212 0.0
H2265 H 0.78546 0.97182 0.76386 0.0
H2266 H 0.79772 0.95859 0.77466 0.0
C2267 C 0.81857 0.90823 0.81659 0.0
C2268 C 0.8124 0.93938 0.80912 0.0
H2269 H 0.78702 0.95395 0.80786 0.0
C2270 C 0.81863 0.94607 0.80113 0.0
C2271 C 0.80098 0.9425 0.81183 0.0
C2272 C 0.79405 0.93602 0.82077 0.0
C2273 C 0.81359 0.95547 0.79544 0.0
C2274 C 0.80197 0.95821 0.79771 0.0
C2275 C 0.7959 0.95183 0.80606 0.0
C2276 C 0.79569 0.96713 0.791 0.0
C2277 C 0.82072 0.96235 0.78697 0.0
C2278 C 0.79051 0.97643 0.79655 0.0
C2279 C 0.78349 0.98405 0.79036 0.0
C2280 C 0.78139 0.98239 0.77855 0.0
C2281 C 0.78693 0.97333 0.77295 0.0
C2282 C 0.79399 0.96579 0.77911 0.0
H2283 H 0.8301 0.96145 0.78872 0.0
H2284 H 0.81896 0.95916 0.77814 0.0
H2285 H 0.81852 0.9716 0.78724 0.0
H2286 H 0.79164 0.9776 0.80574 0.0
H2287 H 0.77922 0.99087 0.79492 0.0
H2288 H 0.18079 0.10877 0.21891 0.0
H2289 H 0.19155 0.09263 0.22697 0.0
H2290 H 0.2229 0.10642 0.21234 0.0
H2291 H 0.21232 0.12281 0.20462 0.0
H2292 H 0.20493 0.07581 0.21672 0.0
H2293 H 0.23145 0.10268 0.24624 0.0
H2294 H 0.21882 0.10807 0.23894 0.0
H2295 H 0.2323 0.10714 0.23144 0.0
C2296 C 0.19 0.10845 0.21748 0.0
C2297 C 0.19568 0.11721 0.2112 0.0
C2298 C 0.19612 0.09914 0.22202 0.0
C2299 C 0.20807 0.09839 0.22044 0.0
C2300 C 0.21372 0.10692 0.21388 0.0
H2301 H 0.26274 0.05393 0.24287 0.0
H2302 H 0.25027 0.06759 0.23294 0.0
C2303 C 0.20761 0.11623 0.20934 0.0
C2304 C 0.21466 0.0888 0.22579 0.0
H2305 H 0.23684 0.0832 0.24442 0.0
C2306 C 0.21187 0.07741 0.22282 0.0
C2307 C 0.22367 0.09087 0.23383 0.0
C2308 C 0.22669 0.10284 0.2379 0.0
C2309 C 0.21808 0.06808 0.22738 0.0
C2310 C 0.22723 0.07019 0.23524 0.0
C2311 C 0.22988 0.08157 0.23834 0.0
C2312 C 0.23443 0.06084 0.2402 0.0
C2313 C 0.21503 0.05607 0.22351 0.0
C2314 C 0.22967 0.05227 0.24741 0.0
C2315 C 0.23683 0.04437 0.2531 0.0
C2316 C 0.24887 0.04501 0.25175 0.0
C2317 C 0.25351 0.05328 0.24414 0.0
C2318 C 0.24639 0.0611 0.23846 0.0
H2319 H 0.20967 0.0561 0.21555 0.0
H2320 H 0.22293 0.05105 0.22191 0.0
H2321 H 0.21005 0.05163 0.23039 0.0
H2322 H 0.22049 0.052 0.24905 0.0
H2323 H 0.23303 0.03818 0.259 0.0
H2324 H 0.1831 0.9226 0.83154 0.0
H2325 H 0.19289 0.93931 0.82289 0.0
H2326 H 0.21819 0.91706 0.80809 0.0
H2327 H 0.20838 0.90032 0.81657 0.0
H2328 H 0.21661 0.94679 0.82582 0.0
H2329 H 0.20582 0.9363 0.78041 0.0
H2330 H 0.19824 0.92995 0.79247 0.0
H2331 H 0.21216 0.92474 0.78847 0.0
C2332 C 0.19071 0.92126 0.82639 0.0
C2333 C 0.19493 0.91011 0.82472 0.0
C2334 C 0.19632 0.93082 0.8215 0.0
C2335 C 0.20617 0.92941 0.81472 0.0
C2336 C 0.2105 0.91833 0.81316 0.0
H2337 H 0.26104 0.97337 0.79224 0.0
H2338 H 0.24792 0.96028 0.80241 0.0
C2339 C 0.20495 0.90877 0.8181 0.0
C2340 C 0.21204 0.93952 0.80938 0.0
H2341 H 0.21997 0.951 0.78342 0.0
C2342 C 0.21726 0.94778 0.81655 0.0
C2343 C 0.21274 0.94089 0.79729 0.0
C2344 C 0.20686 0.93257 0.78918 0.0
C2345 C 0.22357 0.9571 0.81193 0.0
C2346 C 0.22473 0.95816 0.79985 0.0
C2347 C 0.21911 0.95017 0.79268 0.0
C2348 C 0.23244 0.96695 0.79448 0.0
C2349 C 0.22902 0.96571 0.82003 0.0
C2350 C 0.22811 0.97509 0.78663 0.0
C2351 C 0.23563 0.98264 0.78081 0.0
C2352 C 0.2476 0.982 0.7826 0.0
C2353 C 0.25185 0.97404 0.79067 0.0
C2354 C 0.24436 0.9666 0.79655 0.0
H2355 H 0.22471 0.96562 0.82855 0.0
H2356 H 0.23821 0.9635 0.82141 0.0
H2357 H 0.22868 0.97453 0.81637 0.0
H2358 H 0.21894 0.97545 0.78486 0.0
H2359 H 0.23214 0.98862 0.77455 0.0
H2360 H 0.12494 0.21458 0.82915 0.0
H2361 H 0.10848 0.2256 0.82214 0.0
H2362 H 0.08998 0.19411 0.81479 0.0
H2363 H 0.10624 0.18303 0.82213 0.0
H2364 H 0.09922 0.22518 0.80023 0.0
H2365 H 0.06579 0.21233 0.83193 0.0
H2366 H 0.08096 0.20984 0.83433 0.0
H2367 H 0.0727 0.20049 0.82508 0.0
C2368 C 0.11729 0.20998 0.82626 0.0
C2369 C 0.11695 0.19789 0.82625 0.0
C2370 C 0.1079 0.21631 0.82218 0.0
C2371 C 0.0979 0.21071 0.81807 0.0
C2372 C 0.09749 0.19865 0.81812 0.0
H2373 H 0.03643 0.23485 0.78169 0.0
H2374 H 0.05049 0.2232 0.79239 0.0
C2375 C 0.10688 0.19231 0.82219 0.0
C2376 C 0.08823 0.2175 0.81309 0.0
H2377 H 0.0594 0.22291 0.81555 0.0
C2378 C 0.09054 0.22473 0.80364 0.0
C2379 C 0.07686 0.21684 0.81745 0.0
C2380 C 0.07391 0.20954 0.82782 0.0
C2381 C 0.08181 0.23121 0.79837 0.0
C2382 C 0.07046 0.23066 0.80279 0.0
C2383 C 0.0681 0.22336 0.81218 0.0
C2384 C 0.06103 0.23771 0.79774 0.0
C2385 C 0.0848 0.23843 0.78793 0.0
C2386 C 0.06197 0.24974 0.79767 0.0
C2387 C 0.05398 0.25637 0.7916 0.0
C2388 C 0.0448 0.25112 0.78554 0.0
C2389 C 0.04337 0.23913 0.78632 0.0
C2390 C 0.05144 0.23247 0.79238 0.0
H2391 H 0.09292 0.23561 0.78385 0.0
H2392 H 0.07777 0.23806 0.7814 0.0
H2393 H 0.086 0.24751 0.79058 0.0
H2394 H 0.06913 0.25399 0.80198 0.0
H2395 H 0.05523 0.2656 0.79126 0.0
H2396 H 0.81284 0.12647 0.82183 0.0
H2397 H 0.80429 0.10986 0.81201 0.0
H2398 H 0.81793 0.08741 0.83829 0.0
H2399 H 0.82649 0.10399 0.84818 0.0
H2400 H 0.81391 0.0904 0.80297 0.0
H2401 H 0.7838 0.07882 0.83832 0.0
H2402 H 0.79159 0.09233 0.83787 0.0
H2403 H 0.79872 0.07948 0.84253 0.0
C2404 C 0.81413 0.11799 0.82547 0.0
C2405 C 0.8203 0.11659 0.83585 0.0
C2406 C 0.80919 0.1085 0.81987 0.0
C2407 C 0.81029 0.09739 0.82451 0.0
C2408 C 0.81672 0.09592 0.83469 0.0
H2409 H 0.78992 0.03653 0.78382 0.0
H2410 H 0.80113 0.0497 0.79613 0.0
C2411 C 0.82163 0.10541 0.84032 0.0
C2412 C 0.80461 0.08742 0.81871 0.0
H2413 H 0.78412 0.06635 0.82235 0.0
C2414 C 0.80744 0.0851 0.80723 0.0
C2415 C 0.79608 0.08057 0.82424 0.0
C2416 C 0.79226 0.08296 0.83638 0.0
C2417 C 0.80191 0.07621 0.80108 0.0
C2418 C 0.79345 0.06929 0.80663 0.0
C2419 C 0.7907 0.07155 0.81815 0.0
C2420 C 0.78663 0.0604 0.80031 0.0
C2421 C 0.80485 0.07459 0.78855 0.0
C2422 C 0.77467 0.06165 0.79908 0.0
C2423 C 0.76826 0.05409 0.7922 0.0
C2424 C 0.77365 0.04506 0.78638 0.0
C2425 C 0.78552 0.04338 0.78819 0.0
C2426 C 0.79195 0.05099 0.7951 0.0
H2427 H 0.80965 0.08211 0.78497 0.0
H2428 H 0.81035 0.06692 0.78768 0.0
H2429 H 0.79692 0.07319 0.78332 0.0
H2430 H 0.77034 0.06877 0.80309 0.0
H2431 H 0.7591 0.05551 0.79112 0.0
H2432 H 0.91909 0.81596 0.84464 0.0
H2433 H 0.93581 0.80876 0.83438 0.0
H2434 H 0.92173 0.82139 0.80235 0.0
H2435 H 0.90522 0.82909 0.8126 0.0
H2436 H 0.93649 0.79269 0.81784 0.0
H2437 H 0.95443 0.83346 0.80037 0.0
H2438 H 0.94355 0.83308 0.81142 0.0
H2439 H 0.93956 0.8312 0.79654 0.0
C2440 C 0.91963 0.81744 0.83545 0.0
C2441 C 0.91077 0.8232 0.82949 0.0
C2442 C 0.92919 0.81323 0.82957 0.0
C2443 C 0.93017 0.81468 0.8176 0.0
C2444 C 0.92134 0.82038 0.81161 0.0
H2445 H 0.97236 0.78756 0.76372 0.0
H2446 H 0.95899 0.79831 0.77565 0.0
C2447 C 0.9118 0.82464 0.81749 0.0
C2448 C 0.94012 0.8097 0.81132 0.0
H2449 H 0.96181 0.81616 0.79242 0.0
C2450 C 0.9421 0.79785 0.81239 0.0
C2451 C 0.94747 0.81641 0.80419 0.0
C2452 C 0.94624 0.82926 0.80314 0.0
C2453 C 0.95096 0.7925 0.80627 0.0
C2454 C 0.95817 0.79918 0.79899 0.0
C2455 C 0.9563 0.81105 0.79802 0.0
C2456 C 0.96722 0.79384 0.7918 0.0
C2457 C 0.95226 0.77965 0.80734 0.0
C2458 C 0.9766 0.78812 0.79686 0.0
C2459 C 0.98431 0.78198 0.79003 0.0
C2460 C 0.98273 0.78141 0.77803 0.0
C2461 C 0.97374 0.78773 0.77295 0.0
C2462 C 0.9661 0.7939 0.77976 0.0
H2463 H 0.94463 0.77549 0.81143 0.0
H2464 H 0.95356 0.77575 0.79875 0.0
H2465 H 0.95994 0.77776 0.81274 0.0
H2466 H 0.97776 0.78811 0.80612 0.0
H2467 H 0.99111 0.77717 0.7942 0.0
H2468 H 0.82532 0.91787 0.19435 0.0
H2469 H 0.8167 0.93493 0.20286 0.0
H2470 H 0.82055 0.92 0.2367 0.0
H2471 H 0.82948 0.90314 0.22834 0.0
H2472 H 0.797 0.93668 0.21589 0.0
H2473 H 0.83478 0.95172 0.24123 0.0
H2474 H 0.83588 0.94109 0.23005 0.0
H2475 H 0.83098 0.93701 0.24419 0.0
C2476 C 0.82447 0.91827 0.20362 0.0
C2477 C 0.82814 0.90909 0.21064 0.0
C2478 C 0.81948 0.92802 0.20847 0.0
C2479 C 0.81815 0.92887 0.22045 0.0
C2480 C 0.8217 0.91968 0.22746 0.0
H2481 H 0.78429 0.97025 0.27009 0.0
H2482 H 0.79629 0.95705 0.25926 0.0
C2483 C 0.82667 0.90995 0.22263 0.0
C2484 C 0.81267 0.93913 0.22563 0.0
H2485 H 0.81659 0.95985 0.24611 0.0
C2486 C 0.80134 0.94186 0.22237 0.0
C2487 C 0.81833 0.94591 0.23409 0.0
C2488 C 0.83071 0.94387 0.23752 0.0
C2489 C 0.79535 0.95081 0.2277 0.0
C2490 C 0.8009 0.95736 0.23641 0.0
C2491 C 0.81234 0.95484 0.23944 0.0
C2492 C 0.79467 0.96622 0.24308 0.0
C2493 C 0.78295 0.95284 0.22433 0.0
C2494 C 0.79012 0.97605 0.23771 0.0
C2495 C 0.78325 0.98366 0.24393 0.0
C2496 C 0.7808 0.98154 0.2556 0.0
C2497 C 0.78593 0.97205 0.26108 0.0
C2498 C 0.7928 0.96451 0.2549 0.0
H2499 H 0.77929 0.94567 0.21915 0.0
H2500 H 0.77754 0.95395 0.23209 0.0
H2501 H 0.78244 0.96083 0.2191 0.0
H2502 H 0.79161 0.97766 0.22865 0.0
H2503 H 0.77939 0.99086 0.23947 0.0
H2504 H 0.10538 0.82142 0.18569 0.0
H2505 H 0.0889 0.8141 0.19669 0.0
H2506 H 0.10864 0.81723 0.22812 0.0
H2507 H 0.12518 0.8245 0.21719 0.0
H2508 H 0.08789 0.79457 0.20998 0.0
H2509 H 0.07858 0.83252 0.23678 0.0
H2510 H 0.08772 0.83333 0.22426 0.0
H2511 H 0.09331 0.82804 0.23774 0.0
C2512 C 0.10623 0.82057 0.19495 0.0
C2513 C 0.11664 0.82356 0.20054 0.0
C2514 C 0.09676 0.81644 0.20123 0.0
C2515 C 0.09745 0.81527 0.21326 0.0
C2516 C 0.10779 0.81833 0.21888 0.0
H2517 H 0.0585 0.78307 0.26734 0.0
H2518 H 0.07162 0.79453 0.25538 0.0
C2519 C 0.11726 0.82248 0.21261 0.0
C2520 C 0.08761 0.81018 0.21981 0.0
H2521 H 0.06949 0.81482 0.24238 0.0
C2522 C 0.08377 0.79906 0.21697 0.0
C2523 C 0.08224 0.81602 0.22894 0.0
C2524 C 0.08559 0.82818 0.23206 0.0
C2525 C 0.07502 0.79346 0.22328 0.0
C2526 C 0.06978 0.79922 0.23255 0.0
C2527 C 0.07347 0.81043 0.23526 0.0
C2528 C 0.06105 0.79342 0.24001 0.0
C2529 C 0.07179 0.78124 0.22025 0.0
C2530 C 0.05051 0.78935 0.23548 0.0
C2531 C 0.04298 0.78274 0.24231 0.0
C2532 C 0.04588 0.7801 0.2538 0.0
C2533 C 0.05611 0.7848 0.25848 0.0
C2534 C 0.0636 0.7914 0.25166 0.0
H2535 H 0.07829 0.77725 0.21459 0.0
H2536 H 0.07086 0.77588 0.22814 0.0
H2537 H 0.06339 0.78115 0.21561 0.0
H2538 H 0.04826 0.791 0.22656 0.0
H2539 H 0.03518 0.77924 0.23845 0.0
H2540 H 0.9089 0.22104 0.19306 0.0
H2541 H 0.92527 0.22858 0.20407 0.0
H2542 H 0.92822 0.19616 0.22193 0.0
H2543 H 0.91208 0.18837 0.2106 0.0
H2544 H 0.92696 0.23129 0.22716 0.0
H2545 H 0.96142 0.20241 0.21225 0.0
H2546 H 0.94766 0.20348 0.20499 0.0
H2547 H 0.94898 0.19502 0.21793 0.0
C2548 C 0.91314 0.21542 0.19917 0.0
C2549 C 0.90919 0.20405 0.20086 0.0
C2550 C 0.92247 0.21978 0.20552 0.0
C2551 C 0.92811 0.2129 0.21371 0.0
C2552 C 0.92417 0.20157 0.21549 0.0
H2553 H 0.96994 0.2415 0.26911 0.0
H2554 H 0.95607 0.2303 0.2577 0.0
C2555 C 0.91483 0.19718 0.20911 0.0
C2556 C 0.9377 0.21785 0.22075 0.0
H2557 H 0.96617 0.21475 0.22788 0.0
C2558 C 0.93553 0.22767 0.2273 0.0
C2559 C 0.94894 0.21321 0.22084 0.0
C2560 C 0.95196 0.20301 0.21355 0.0
C2561 C 0.9442 0.23292 0.23399 0.0
C2562 C 0.95535 0.22809 0.23436 0.0
C2563 C 0.9576 0.21835 0.2277 0.0
C2564 C 0.96474 0.23325 0.24148 0.0
C2565 C 0.9414 0.24376 0.24042 0.0
C2566 C 0.97461 0.23804 0.23628 0.0
C2567 C 0.98265 0.24436 0.24282 0.0
C2568 C 0.9809 0.24598 0.25467 0.0
C2569 C 0.97143 0.24049 0.25997 0.0
C2570 C 0.96347 0.23414 0.25345 0.0
H2571 H 0.93354 0.24792 0.23692 0.0
H2572 H 0.93981 0.24161 0.2496 0.0
H2573 H 0.94868 0.25004 0.24002 0.0
H2574 H 0.9758 0.2374 0.22706 0.0
H2575 H 0.98984 0.24854 0.23852 0.0
H2576 H 0.19845 0.68555 0.609 0.0
H2577 H 0.20712 0.69538 0.59239 0.0
H2578 H 0.22473 0.71894 0.61518 0.0
H2579 H 0.21629 0.70905 0.63183 0.0
H2580 H 0.20561 0.7187 0.58547 0.0
H2581 H 0.2508 0.70657 0.59485 0.0
H2582 H 0.23861 0.69947 0.60154 0.0
H2583 H 0.24363 0.71318 0.60673 0.0
C2584 C 0.20423 0.69277 0.61049 0.0
C2585 C 0.2067 0.69646 0.62178 0.0
C2586 C 0.20914 0.69842 0.60098 0.0
C2587 C 0.21671 0.70779 0.60253 0.0
C2588 C 0.21906 0.71161 0.61376 0.0
H2589 H 0.23984 0.76234 0.55838 0.0
H2590 H 0.22963 0.74943 0.5716 0.0
C2591 C 0.21412 0.70601 0.62328 0.0
C2592 C 0.22205 0.71369 0.59242 0.0
H2593 H 0.24804 0.72109 0.58056 0.0
C2594 C 0.21488 0.71914 0.58434 0.0
C2595 C 0.23414 0.71411 0.59083 0.0
C2596 C 0.24226 0.70793 0.59888 0.0
C2597 C 0.21949 0.72539 0.57499 0.0
C2598 C 0.23161 0.72629 0.57373 0.0
C2599 C 0.23876 0.72045 0.58155 0.0
C2600 C 0.23705 0.7339 0.56489 0.0
C2601 C 0.21135 0.73102 0.56657 0.0
C2602 C 0.24466 0.72951 0.55666 0.0
C2603 C 0.25052 0.73692 0.54903 0.0
C2604 C 0.24902 0.74887 0.54966 0.0
C2605 C 0.24118 0.75318 0.55771 0.0
C2606 C 0.23528 0.7458 0.56523 0.0
H2607 H 0.2027 0.7268 0.56666 0.0
H2608 H 0.21026 0.74015 0.569 0.0
H2609 H 0.21479 0.73078 0.55767 0.0
H2610 H 0.24621 0.72036 0.55629 0.0
H2611 H 0.25658 0.73337 0.543 0.0
H2612 H 0.83519 0.69966 0.61295 0.0
H2613 H 0.82673 0.71033 0.59674 0.0
H2614 H 0.79282 0.7048 0.6109 0.0
H2615 H 0.80118 0.69442 0.6272 0.0
H2616 H 0.80956 0.70281 0.58033 0.0
H2617 H 0.79483 0.73983 0.60595 0.0
H2618 H 0.80532 0.72977 0.61131 0.0
H2619 H 0.79021 0.72613 0.61156 0.0
C2620 C 0.82595 0.70083 0.61267 0.0
C2621 C 0.81888 0.69619 0.6214 0.0
C2622 C 0.82112 0.70685 0.60336 0.0
C2623 C 0.80916 0.70846 0.60267 0.0
C2624 C 0.80209 0.70379 0.61133 0.0
H2625 H 0.75933 0.74194 0.55957 0.0
H2626 H 0.7698 0.72985 0.57326 0.0
C2627 C 0.80688 0.69776 0.62059 0.0
C2628 C 0.80396 0.71498 0.59294 0.0
H2629 H 0.78739 0.7383 0.58689 0.0
C2630 C 0.8048 0.71063 0.58172 0.0
C2631 C 0.79779 0.72519 0.59477 0.0
C2632 C 0.79705 0.73058 0.60653 0.0
C2633 C 0.79922 0.71599 0.57235 0.0
C2634 C 0.79279 0.72605 0.57426 0.0
C2635 C 0.79222 0.73053 0.58544 0.0
C2636 C 0.78633 0.73202 0.56492 0.0
C2637 C 0.79992 0.71064 0.56058 0.0
C2638 C 0.79206 0.73702 0.55546 0.0
C2639 C 0.78604 0.7439 0.54755 0.0
C2640 C 0.77424 0.74599 0.54906 0.0
C2641 C 0.76844 0.74053 0.55822 0.0
C2642 C 0.77442 0.73363 0.56606 0.0
H2643 H 0.80279 0.70159 0.56106 0.0
H2644 H 0.79143 0.7109 0.55611 0.0
H2645 H 0.80623 0.71557 0.5553 0.0
H2646 H 0.80128 0.73608 0.5545 0.0
H2647 H 0.79075 0.74813 0.54066 0.0
H2648 H 0.83673 0.32725 0.6142 0.0
H2649 H 0.8287 0.3177 0.59711 0.0
H2650 H 0.7943 0.32445 0.60894 0.0
H2651 H 0.8022 0.33391 0.626 0.0
H2652 H 0.81403 0.2988 0.59514 0.0
H2653 H 0.79333 0.33718 0.57624 0.0
H2654 H 0.80388 0.33812 0.5877 0.0
H2655 H 0.78909 0.33452 0.59085 0.0
C2656 C 0.82745 0.32665 0.6132 0.0
C2657 C 0.82013 0.33148 0.62145 0.0
C2658 C 0.82287 0.32124 0.60338 0.0
C2659 C 0.81089 0.32058 0.60158 0.0
C2660 C 0.80358 0.32514 0.60994 0.0
H2661 H 0.76093 0.28817 0.55798 0.0
H2662 H 0.77211 0.29999 0.57146 0.0
C2663 C 0.80813 0.33055 0.61972 0.0
C2664 C 0.80595 0.31489 0.59115 0.0
H2665 H 0.78729 0.319 0.56861 0.0
C2666 C 0.80832 0.30325 0.58924 0.0
C2667 C 0.79852 0.3207 0.58341 0.0
C2668 C 0.79614 0.33335 0.58457 0.0
C2669 C 0.80303 0.29715 0.58015 0.0
C2670 C 0.7953 0.30288 0.57265 0.0
C2671 C 0.79321 0.3146 0.57435 0.0
C2672 C 0.78858 0.29664 0.5636 0.0
C2673 C 0.80535 0.28449 0.57898 0.0
C2674 C 0.79405 0.29116 0.5544 0.0
C2675 C 0.78764 0.28441 0.54662 0.0
C2676 C 0.77565 0.283 0.54795 0.0
C2677 C 0.77016 0.28901 0.55679 0.0
C2678 C 0.77654 0.29578 0.5645 0.0
H2679 H 0.80977 0.28092 0.5867 0.0
H2680 H 0.79718 0.27961 0.57757 0.0
H2681 H 0.81095 0.28312 0.57142 0.0
H2682 H 0.80331 0.29187 0.5534 0.0
H2683 H 0.79211 0.27985 0.53992 0.0
H2684 H 0.21844 0.31802 0.62988 0.0
H2685 H 0.22583 0.30827 0.6129 0.0
H2686 H 0.19923 0.32357 0.59198 0.0
H2687 H 0.1919 0.33355 0.60892 0.0
H2688 H 0.21425 0.2927 0.59745 0.0
H2689 H 0.2298 0.33255 0.5755 0.0
H2690 H 0.22628 0.33214 0.59062 0.0
H2691 H 0.21499 0.33233 0.57999 0.0
C2692 C 0.21419 0.31937 0.62166 0.0
C2693 C 0.20463 0.32665 0.62076 0.0
C2694 C 0.21837 0.31372 0.61197 0.0
C2695 C 0.21317 0.31529 0.60115 0.0
C2696 C 0.20347 0.32235 0.60023 0.0
H2697 H 0.23367 0.27283 0.54184 0.0
H2698 H 0.22152 0.28357 0.55524 0.0
C2699 C 0.19923 0.32797 0.60994 0.0
C2700 C 0.21806 0.30962 0.59086 0.0
H2701 H 0.23274 0.31507 0.56593 0.0
C2702 C 0.21818 0.29757 0.59048 0.0
C2703 C 0.22326 0.31602 0.58183 0.0
C2704 C 0.22369 0.32898 0.58196 0.0
C2705 C 0.22354 0.29174 0.58144 0.0
C2706 C 0.22885 0.29814 0.57247 0.0
C2707 C 0.22855 0.31019 0.57274 0.0
C2708 C 0.23582 0.29249 0.56346 0.0
C2709 C 0.22393 0.27879 0.5818 0.0
C2710 C 0.2478 0.29428 0.56334 0.0
C2711 C 0.25469 0.28821 0.55573 0.0
C2712 C 0.24976 0.28027 0.54799 0.0
C2713 C 0.23769 0.27892 0.54768 0.0
C2714 C 0.23077 0.28497 0.55539 0.0
H2715 H 0.22104 0.27525 0.59021 0.0
H2716 H 0.2182 0.27525 0.57496 0.0
H2717 H 0.23281 0.27579 0.58012 0.0
H2718 H 0.25187 0.30007 0.56944 0.0
H2719 H 0.26395 0.28949 0.5561 0.0
H2720 H 0.2127 0.31781 0.40312 0.0
H2721 H 0.22099 0.30754 0.4196 0.0
H2722 H 0.20907 0.33389 0.44239 0.0
H2723 H 0.2006 0.34415 0.42596 0.0
H2724 H 0.23803 0.31656 0.43576 0.0
H2725 H 0.19703 0.303 0.45679 0.0
H2726 H 0.19768 0.30739 0.44186 0.0
H2727 H 0.19846 0.31796 0.45303 0.0
C2728 C 0.21171 0.32136 0.41165 0.0
C2729 C 0.20594 0.33179 0.41322 0.0
C2730 C 0.21652 0.31552 0.42105 0.0
C2731 C 0.21557 0.31991 0.43222 0.0
C2732 C 0.2098 0.33029 0.43385 0.0
H2733 H 0.25616 0.29397 0.49114 0.0
H2734 H 0.24619 0.30705 0.47778 0.0
C2735 C 0.20505 0.33618 0.42444 0.0
C2736 C 0.22083 0.3137 0.44211 0.0
H2737 H 0.21433 0.29815 0.46633 0.0
C2738 C 0.23287 0.31261 0.4425 0.0
C2739 C 0.21406 0.3085 0.45084 0.0
C2740 C 0.20108 0.30916 0.45064 0.0
C2741 C 0.23831 0.30635 0.45134 0.0
C2742 C 0.23154 0.30112 0.46005 0.0
C2743 C 0.21951 0.30228 0.45971 0.0
C2744 C 0.23674 0.29354 0.46896 0.0
C2745 C 0.25123 0.30504 0.45107 0.0
C2746 C 0.23442 0.2817 0.46868 0.0
C2747 C 0.24007 0.27427 0.47626 0.0
C2748 C 0.2481 0.27853 0.48435 0.0
C2749 C 0.25 0.29046 0.48502 0.0
C2750 C 0.24438 0.29791 0.47734 0.0
H2751 H 0.25499 0.30805 0.44279 0.0
H2752 H 0.25519 0.31016 0.45813 0.0
H2753 H 0.25359 0.29592 0.45246 0.0
H2754 H 0.22853 0.27815 0.46232 0.0
H2755 H 0.23836 0.26512 0.47562 0.0
H2756 H 0.19832 0.72379 0.40651 0.0
H2757 H 0.20767 0.73209 0.42349 0.0
H2758 H 0.21089 0.69829 0.43845 0.0
H2759 H 0.20191 0.68985 0.42128 0.0
H2760 H 0.20093 0.73125 0.44633 0.0
H2761 H 0.2437 0.71099 0.44114 0.0
H2762 H 0.23302 0.71114 0.42978 0.0
H2763 H 0.23167 0.70112 0.44154 0.0
C2764 C 0.20117 0.71808 0.41331 0.0
C2765 C 0.19944 0.70612 0.41242 0.0
C2766 C 0.20643 0.72286 0.42308 0.0
C2767 C 0.21013 0.71582 0.43221 0.0
C2768 C 0.2083 0.70389 0.43144 0.0
H2769 H 0.24865 0.73554 0.49489 0.0
H2770 H 0.23636 0.72461 0.48139 0.0
C2771 C 0.20304 0.69909 0.42166 0.0
C2772 C 0.21578 0.72106 0.44252 0.0
H2773 H 0.24111 0.72224 0.45773 0.0
C2774 C 0.20971 0.72924 0.44884 0.0
C2775 C 0.22721 0.7184 0.44586 0.0
C2776 C 0.23435 0.71001 0.43919 0.0
C2777 C 0.21477 0.73491 0.4583 0.0
C2778 C 0.2263 0.73248 0.46146 0.0
C2779 C 0.23227 0.72407 0.45535 0.0
C2780 C 0.23264 0.73921 0.47041 0.0
C2781 C 0.20774 0.74349 0.46484 0.0
C2782 C 0.23451 0.75104 0.46882 0.0
C2783 C 0.24149 0.75725 0.47648 0.0
C2784 C 0.2468 0.75177 0.48591 0.0
C2785 C 0.24457 0.74001 0.48778 0.0
C2786 C 0.23762 0.73376 0.48003 0.0
H2787 H 0.19834 0.74183 0.46374 0.0
H2788 H 0.20987 0.74329 0.47417 0.0
H2789 H 0.20966 0.75225 0.46149 0.0
H2790 H 0.23094 0.75542 0.46137 0.0
H2791 H 0.24307 0.7663 0.47481 0.0
H2792 H 0.81631 0.71732 0.40371 0.0
H2793 H 0.80724 0.72556 0.42069 0.0
H2794 H 0.82807 0.70419 0.44273 0.0
H2795 H 0.83737 0.69605 0.42578 0.0
H2796 H 0.79486 0.71443 0.43888 0.0
H2797 H 0.83428 0.7372 0.45468 0.0
H2798 H 0.83301 0.73173 0.44021 0.0
H2799 H 0.83569 0.72208 0.45202 0.0
C2800 C 0.81902 0.7144 0.41217 0.0
C2801 C 0.82764 0.70607 0.41336 0.0
C2802 C 0.81377 0.71907 0.42187 0.0
C2803 C 0.81708 0.7156 0.43299 0.0
C2804 C 0.8255 0.70711 0.43424 0.0
H2805 H 0.77758 0.73623 0.49411 0.0
H2806 H 0.78897 0.72461 0.48082 0.0
C2807 C 0.83072 0.70239 0.42453 0.0
C2808 C 0.81175 0.72099 0.44322 0.0
H2809 H 0.8175 0.73883 0.46589 0.0
C2810 C 0.79982 0.71968 0.44485 0.0
C2811 C 0.81823 0.72792 0.45094 0.0
C2812 C 0.831 0.72993 0.44939 0.0
C2813 C 0.79417 0.72522 0.45391 0.0
C2814 C 0.80063 0.73218 0.46161 0.0
C2815 C 0.81259 0.73339 0.46006 0.0
C2816 C 0.79495 0.73911 0.47063 0.0
C2817 C 0.78125 0.72394 0.4549 0.0
C2818 C 0.79497 0.75112 0.46963 0.0
C2819 C 0.78854 0.75774 0.4772 0.0
C2820 C 0.78201 0.75249 0.486 0.0
C2821 C 0.78257 0.74051 0.48745 0.0
C2822 C 0.78897 0.73387 0.4798 0.0
H2823 H 0.77732 0.71991 0.44714 0.0
H2824 H 0.77916 0.71846 0.46247 0.0
H2825 H 0.77723 0.73244 0.45621 0.0
H2826 H 0.79956 0.75536 0.46267 0.0
H2827 H 0.78833 0.76697 0.47593 0.0
H2828 H 0.82248 0.34354 0.42304 0.0
H2829 H 0.81531 0.33282 0.43976 0.0
H2830 H 0.81911 0.30107 0.42134 0.0
H2831 H 0.82622 0.31173 0.40454 0.0
H2832 H 0.79594 0.31907 0.44088 0.0
H2833 H 0.83452 0.29363 0.45205 0.0
H2834 H 0.83512 0.30588 0.44245 0.0
H2835 H 0.83003 0.29217 0.4373 0.0
C2836 C 0.8218 0.33427 0.42252 0.0
C2837 C 0.82493 0.32852 0.41239 0.0
C2838 C 0.81775 0.32815 0.43213 0.0
C2839 C 0.8168 0.31612 0.4319 0.0
C2840 C 0.82002 0.31032 0.42186 0.0
H2841 H 0.78565 0.26265 0.47293 0.0
H2842 H 0.79704 0.27436 0.45954 0.0
C2843 C 0.82408 0.31645 0.41223 0.0
C2844 C 0.8118 0.30972 0.44189 0.0
H2845 H 0.81691 0.288 0.46115 0.0
C2846 C 0.80058 0.31237 0.4454 0.0
C2847 C 0.81783 0.30095 0.44779 0.0
C2848 C 0.83009 0.29804 0.4448 0.0
C2849 C 0.79509 0.30625 0.45435 0.0
C2850 C 0.80106 0.29737 0.46015 0.0
C2851 C 0.81235 0.29483 0.45676 0.0
C2852 C 0.7954 0.29011 0.46916 0.0
C2853 C 0.78275 0.30905 0.45718 0.0
C2854 C 0.79108 0.29492 0.47932 0.0
C2855 C 0.78451 0.28822 0.48701 0.0
C2856 C 0.78216 0.27658 0.48468 0.0
C2857 C 0.78717 0.27163 0.4749 0.0
C2858 C 0.79372 0.27831 0.46725 0.0
H2859 H 0.77862 0.31426 0.4503 0.0
H2860 H 0.77755 0.30108 0.45849 0.0
H2861 H 0.78257 0.31406 0.46528 0.0
H2862 H 0.79247 0.30396 0.48111 0.0
H2863 H 0.78076 0.29229 0.49444 0.0
H2864 H 0.11171 0.71507 0.68711 0.0
H2865 H 0.09547 0.72319 0.69749 0.0
H2866 H 0.10637 0.70578 0.72848 0.0
H2867 H 0.12287 0.69793 0.71828 0.0
H2868 H 0.07712 0.71288 0.70938 0.0
H2869 H 0.10442 0.73915 0.73877 0.0
H2870 H 0.11006 0.73249 0.72603 0.0
H2871 H 0.10781 0.72415 0.73893 0.0
C2872 C 0.11074 0.71303 0.69616 0.0
C2873 C 0.11873 0.70593 0.70187 0.0
C2874 C 0.10137 0.71762 0.70206 0.0
C2875 C 0.09978 0.71526 0.71382 0.0
C2876 C 0.10752 0.7079 0.71946 0.0
H2877 H 0.05357 0.73732 0.76704 0.0
H2878 H 0.06736 0.72731 0.75499 0.0
C2879 C 0.1169 0.70331 0.71357 0.0
C2880 C 0.09015 0.72064 0.72021 0.0
H2881 H 0.08446 0.73819 0.7429 0.0
C2882 C 0.07871 0.71845 0.71669 0.0
C2883 C 0.09222 0.72798 0.72969 0.0
C2884 C 0.10429 0.73119 0.73353 0.0
C2885 C 0.06931 0.72312 0.72261 0.0
C2886 C 0.07139 0.73032 0.7322 0.0
C2887 C 0.08284 0.73262 0.7356 0.0
C2888 C 0.06193 0.73541 0.73908 0.0
C2889 C 0.05722 0.72006 0.71875 0.0
C2890 C 0.05405 0.74313 0.73414 0.0
C2891 C 0.04605 0.74884 0.74105 0.0
C2892 C 0.04593 0.74701 0.75303 0.0
C2893 C 0.05351 0.73894 0.75784 0.0
C2894 C 0.06141 0.73323 0.75097 0.0
H2895 H 0.05704 0.71231 0.7132 0.0
H2896 H 0.05152 0.71848 0.72626 0.0
H2897 H 0.05365 0.72732 0.71369 0.0
H2898 H 0.0544 0.74513 0.72503 0.0
H2899 H 0.04041 0.75511 0.73713 0.0
H2900 H 0.81227 0.62345 0.70385 0.0
H2901 H 0.80134 0.60679 0.71103 0.0
H2902 H 0.83292 0.58808 0.71534 0.0
H2903 H 0.84392 0.60465 0.7081 0.0
H2904 H 0.79999 0.58366 0.7033 0.0
H2905 H 0.81838 0.5867 0.74751 0.0
H2906 H 0.81974 0.5982 0.73709 0.0
H2907 H 0.82883 0.58586 0.7362 0.0
C2908 C 0.81689 0.61575 0.70619 0.0
C2909 C 0.829 0.61545 0.70548 0.0
C2910 C 0.81063 0.60625 0.71034 0.0
C2911 C 0.81633 0.59626 0.7139 0.0
C2912 C 0.82836 0.59578 0.71287 0.0
H2913 H 0.79083 0.53514 0.7503 0.0
H2914 H 0.8028 0.54819 0.73864 0.0
C2915 C 0.83463 0.60528 0.70875 0.0
C2916 C 0.80969 0.58645 0.71892 0.0
H2917 H 0.80595 0.57098 0.74374 0.0
C2918 C 0.8013 0.58086 0.71214 0.0
C2919 C 0.81144 0.58279 0.73044 0.0
C2920 C 0.82001 0.58874 0.73829 0.0
C2921 C 0.79462 0.57169 0.71655 0.0
C2922 C 0.79624 0.56815 0.72813 0.0
C2923 C 0.80476 0.57363 0.73485 0.0
C2924 C 0.78876 0.55931 0.73374 0.0
C2925 C 0.78596 0.56582 0.70875 0.0
C2926 C 0.77685 0.56106 0.73468 0.0
C2927 C 0.77 0.55359 0.74126 0.0
C2928 C 0.77492 0.54423 0.74715 0.0
C2929 C 0.78676 0.54218 0.74578 0.0
C2930 C 0.79362 0.54969 0.73919 0.0
H2931 H 0.78827 0.56697 0.69954 0.0
H2932 H 0.78528 0.55649 0.7107 0.0
H2933 H 0.77736 0.56967 0.71004 0.0
H2934 H 0.77291 0.56852 0.73075 0.0
H2935 H 0.7609 0.55537 0.74209 0.0
H2936 H 0.90091 0.32421 0.71959 0.0
H2937 H 0.91719 0.31661 0.73062 0.0
H2938 H 0.93663 0.31327 0.69933 0.0
H2939 H 0.92054 0.32119 0.68827 0.0
H2940 H 0.92681 0.29516 0.72819 0.0
H2941 H 0.95999 0.32908 0.72057 0.0
H2942 H 0.94486 0.33126 0.71767 0.0
H2943 H 0.9535 0.32342 0.70769 0.0
C2944 C 0.90872 0.32208 0.71506 0.0
C2945 C 0.90938 0.32334 0.70302 0.0
C2946 C 0.91801 0.31766 0.72138 0.0
C2947 C 0.92822 0.3145 0.71584 0.0
C2948 C 0.92896 0.31585 0.70385 0.0
H2949 H 0.98975 0.27806 0.73921 0.0
H2950 H 0.9758 0.28935 0.72796 0.0
C2951 C 0.91967 0.32025 0.69751 0.0
C2952 C 0.93777 0.30912 0.72254 0.0
H2953 H 0.96635 0.31191 0.72969 0.0
C2954 C 0.93543 0.29887 0.72856 0.0
C2955 C 0.94906 0.31389 0.72295 0.0
C2956 C 0.95202 0.32507 0.71696 0.0
C2957 C 0.94406 0.29321 0.73488 0.0
C2958 C 0.95532 0.29803 0.73541 0.0
C2959 C 0.95772 0.30824 0.72931 0.0
C2960 C 0.96461 0.29259 0.7424 0.0
C2961 C 0.94107 0.28196 0.74074 0.0
C2962 C 0.96326 0.29114 0.75432 0.0
C2963 C 0.97117 0.28472 0.76072 0.0
C2964 C 0.9807 0.27971 0.75536 0.0
C2965 C 0.98252 0.28186 0.74357 0.0
C2966 C 0.97453 0.28825 0.73714 0.0
H2967 H 0.93316 0.27794 0.737 0.0
H2968 H 0.94825 0.27579 0.74006 0.0
H2969 H 0.93946 0.28352 0.75 0.0
H2970 H 0.95583 0.29464 0.75863 0.0
H2971 H 0.96962 0.28332 0.76981 0.0
H2972 H 0.21499 0.40131 0.70347 0.0
H2973 H 0.22578 0.41802 0.71071 0.0
H2974 H 0.19394 0.43595 0.71576 0.0
H2975 H 0.18309 0.41936 0.70844 0.0
H2976 H 0.22641 0.44139 0.70323 0.0
H2977 H 0.20938 0.437 0.74769 0.0
H2978 H 0.20799 0.42569 0.7372 0.0
H2979 H 0.19858 0.43782 0.73657 0.0
C2980 C 0.21028 0.40885 0.70598 0.0
C2981 C 0.19814 0.40891 0.70546 0.0
C2982 C 0.21646 0.41838 0.71017 0.0
C2983 C 0.21067 0.42817 0.71396 0.0
C2984 C 0.19859 0.4284 0.71312 0.0
H2985 H 0.2358 0.48919 0.7506 0.0
H2986 H 0.22374 0.47606 0.7391 0.0
C2987 C 0.1924 0.41889 0.70895 0.0
C2988 C 0.21723 0.43802 0.71898 0.0
H2989 H 0.22127 0.45313 0.74385 0.0
C2990 C 0.22528 0.44397 0.71211 0.0
C2991 C 0.21572 0.44143 0.73055 0.0
C2992 C 0.20753 0.43512 0.73849 0.0
C2993 C 0.23183 0.45325 0.71649 0.0
C2994 C 0.23046 0.45653 0.72812 0.0
C2995 C 0.22228 0.45068 0.73492 0.0
C2996 C 0.2379 0.46547 0.73368 0.0
C2997 C 0.24008 0.4595 0.70857 0.0
C2998 C 0.24989 0.46405 0.73428 0.0
C2999 C 0.25678 0.47157 0.74076 0.0
C3000 C 0.25183 0.48064 0.7469 0.0
C3001 C 0.23989 0.48238 0.74588 0.0
C3002 C 0.23298 0.47482 0.73938 0.0
H3003 H 0.23748 0.45854 0.6994 0.0
H3004 H 0.24062 0.4688 0.71062 0.0
H3005 H 0.24881 0.45582 0.7096 0.0
H3006 H 0.25389 0.4568 0.73016 0.0
H3007 H 0.26596 0.47003 0.74133 0.0
H3008 H 0.11975 0.32987 0.31943 0.0
H3009 H 0.10298 0.32186 0.30927 0.0
H3010 H 0.09432 0.30149 0.3392 0.0
H3011 H 0.11073 0.30982 0.34959 0.0
H3012 H 0.09902 0.29986 0.30373 0.0
H3013 H 0.06329 0.31467 0.33105 0.0
H3014 H 0.07775 0.32048 0.33223 0.0
H3015 H 0.07402 0.30706 0.33912 0.0
C3016 C 0.11414 0.32387 0.32395 0.0
C3017 C 0.11663 0.32051 0.33536 0.0
C3018 C 0.10459 0.31924 0.31809 0.0
C3019 C 0.09726 0.31119 0.32351 0.0
C3020 C 0.09967 0.30788 0.33491 0.0
H3021 H 0.05567 0.25986 0.28894 0.0
H3022 H 0.06932 0.27061 0.30102 0.0
C3023 C 0.10919 0.31252 0.34078 0.0
C3024 C 0.08762 0.30566 0.31698 0.0
H3025 H 0.05867 0.29963 0.3177 0.0
C3026 C 0.09019 0.2999 0.30675 0.0
C3027 C 0.07604 0.30582 0.32082 0.0
C3028 C 0.07257 0.31244 0.33134 0.0
C3029 C 0.08162 0.29404 0.30044 0.0
C3030 C 0.07016 0.29369 0.30459 0.0
C3031 C 0.06748 0.29975 0.31462 0.0
C3032 C 0.06096 0.28697 0.29861 0.0
C3033 C 0.08492 0.28834 0.28931 0.0
C3034 C 0.0513 0.29245 0.29382 0.0
C3035 C 0.04338 0.28627 0.28701 0.0
C3036 C 0.04503 0.27453 0.28489 0.0
C3037 C 0.05428 0.26894 0.29032 0.0
C3038 C 0.06212 0.27508 0.29716 0.0
H3039 H 0.09302 0.29207 0.28574 0.0
H3040 H 0.08634 0.27907 0.29093 0.0
H3041 H 0.07798 0.28918 0.28273 0.0
H3042 H 0.05019 0.3016 0.29491 0.0
H3043 H 0.03636 0.29079 0.28289 0.0
H3044 H 0.19095 0.6092 0.32862 0.0
H3045 H 0.19874 0.59231 0.31896 0.0
H3046 H 0.23325 0.60561 0.32399 0.0
H3047 H 0.22558 0.62244 0.33358 0.0
H3048 H 0.21216 0.59042 0.2995 0.0
H3049 H 0.23581 0.57339 0.33731 0.0
H3050 H 0.22511 0.58444 0.3385 0.0
H3051 H 0.23958 0.58807 0.33416 0.0
C3052 C 0.2002 0.60856 0.32761 0.0
C3053 C 0.20764 0.61714 0.33202 0.0
C3054 C 0.20464 0.59886 0.32214 0.0
C3055 C 0.2166 0.59753 0.32099 0.0
C3056 C 0.22401 0.60624 0.32508 0.0
H3057 H 0.26545 0.55612 0.28652 0.0
H3058 H 0.25465 0.56935 0.29854 0.0
C3059 C 0.2196 0.61589 0.33056 0.0
C3060 C 0.22142 0.58721 0.31529 0.0
H3061 H 0.241 0.56574 0.31896 0.0
C3062 C 0.21833 0.58491 0.3038 0.0
C3063 C 0.22944 0.57997 0.32091 0.0
C3064 C 0.2326 0.58151 0.33344 0.0
C3065 C 0.22346 0.57595 0.29765 0.0
C3066 C 0.23181 0.56901 0.30315 0.0
C3067 C 0.23462 0.57107 0.31474 0.0
C3068 C 0.23839 0.56022 0.29676 0.0
C3069 C 0.22032 0.57431 0.28513 0.0
C3070 C 0.23293 0.55043 0.29209 0.0
C3071 C 0.23913 0.54278 0.28525 0.0
C3072 C 0.25087 0.54485 0.28293 0.0
C3073 C 0.2564 0.55435 0.28809 0.0
C3074 C 0.25024 0.56191 0.29496 0.0
H3075 H 0.21519 0.58156 0.28165 0.0
H3076 H 0.22821 0.57345 0.27985 0.0
H3077 H 0.21513 0.5663 0.28419 0.0
H3078 H 0.22383 0.54886 0.2935 0.0
H3079 H 0.23464 0.53556 0.28134 0.0
H3080 H 0.91266 0.68774 0.31311 0.0
H3081 H 0.92915 0.69842 0.30535 0.0
H3082 H 0.92796 0.72179 0.33395 0.0
H3083 H 0.91166 0.7109 0.34202 0.0
H3084 H 0.92961 0.72097 0.29852 0.0
H3085 H 0.96218 0.71375 0.33294 0.0
H3086 H 0.94908 0.70527 0.33179 0.0
H3087 H 0.94878 0.7194 0.33793 0.0
C3088 C 0.91602 0.69501 0.3179 0.0
C3089 C 0.91084 0.69839 0.32826 0.0
C3090 C 0.92542 0.70116 0.3134 0.0
C3091 C 0.92992 0.71082 0.31914 0.0
C3092 C 0.9248 0.71424 0.32948 0.0
H3093 H 0.97052 0.7653 0.28781 0.0
H3094 H 0.9569 0.75387 0.29926 0.0
C3095 C 0.91537 0.70808 0.334 0.0
C3096 C 0.93951 0.71764 0.3139 0.0
H3097 H 0.96712 0.72745 0.3184 0.0
C3098 C 0.93782 0.72235 0.30287 0.0
C3099 C 0.95027 0.71936 0.31952 0.0
C3100 C 0.95277 0.7141 0.33116 0.0
C3101 C 0.94648 0.72887 0.29739 0.0
C3102 C 0.95711 0.73085 0.30313 0.0
C3103 C 0.95892 0.72599 0.31407 0.0
C3104 C 0.96632 0.73805 0.29778 0.0
C3105 C 0.94423 0.73352 0.28544 0.0
C3106 C 0.97642 0.73305 0.2936 0.0
C3107 C 0.98425 0.73958 0.28702 0.0
C3108 C 0.98207 0.7512 0.28453 0.0
C3109 C 0.97235 0.75633 0.28944 0.0
C3110 C 0.96456 0.74982 0.29598 0.0
H3111 H 0.93665 0.72927 0.2813 0.0
H3112 H 0.9425 0.74286 0.28596 0.0
H3113 H 0.95187 0.73238 0.27987 0.0
H3114 H 0.97794 0.72398 0.29493 0.0
H3115 H 0.99162 0.73538 0.28332 0.0
H3116 H 0.84327 0.42175 0.32363 0.0
H3117 H 0.83247 0.4382 0.31635 0.0
H3118 H 0.80081 0.41856 0.31899 0.0
H3119 H 0.81156 0.40204 0.32622 0.0
H3120 H 0.81935 0.43948 0.2967 0.0
H3121 H 0.7922 0.44838 0.33462 0.0
H3122 H 0.80463 0.43923 0.33541 0.0
H3123 H 0.79114 0.43377 0.32984 0.0
C3124 C 0.834 0.42091 0.32267 0.0
C3125 C 0.82831 0.41052 0.32552 0.0
C3126 C 0.82783 0.43036 0.31856 0.0
C3127 C 0.81579 0.42971 0.31726 0.0
C3128 C 0.81005 0.4194 0.32018 0.0
H3129 H 0.76228 0.46941 0.28547 0.0
H3130 H 0.77404 0.45609 0.29671 0.0
C3131 C 0.81623 0.40993 0.32431 0.0
C3132 C 0.80935 0.43959 0.31225 0.0
H3133 H 0.78692 0.45772 0.31703 0.0
C3134 C 0.81235 0.44356 0.3012 0.0
C3135 C 0.8002 0.44492 0.31811 0.0
C3136 C 0.7969 0.44145 0.33019 0.0
C3137 C 0.80621 0.4524 0.2957 0.0
C3138 C 0.79693 0.45761 0.30148 0.0
C3139 C 0.79405 0.45377 0.31261 0.0
C3140 C 0.78962 0.46645 0.29577 0.0
C3141 C 0.80942 0.45576 0.28355 0.0
C3142 C 0.79432 0.47696 0.29187 0.0
C3143 C 0.78759 0.48462 0.28539 0.0
C3144 C 0.77604 0.48189 0.28271 0.0
C3145 C 0.7712 0.47169 0.28725 0.0
C3146 C 0.7779 0.46408 0.29371 0.0
H3147 H 0.81501 0.44928 0.27947 0.0
H3148 H 0.80159 0.45685 0.27812 0.0
H3149 H 0.81421 0.46407 0.28368 0.0
H3150 H 0.80329 0.4791 0.29355 0.0
H3151 H 0.79158 0.4924 0.28201 0.0
H3152 H 0.20127 0.60987 0.69489 0.0
H3153 H 0.21073 0.59283 0.70285 0.0
H3154 H 0.20259 0.60381 0.7372 0.0
H3155 H 0.19321 0.62083 0.72937 0.0
H3156 H 0.22918 0.5909 0.71796 0.0
H3157 H 0.19018 0.57098 0.73723 0.0
H3158 H 0.18946 0.58261 0.72691 0.0
H3159 H 0.19255 0.58551 0.74182 0.0
C3160 C 0.20154 0.6087 0.70414 0.0
C3161 C 0.19634 0.6167 0.71146 0.0
C3162 C 0.20691 0.59891 0.70868 0.0
C3163 C 0.20715 0.59687 0.72062 0.0
C3164 C 0.20222 0.60498 0.72795 0.0
H3165 H 0.23856 0.5527 0.77037 0.0
H3166 H 0.22689 0.56624 0.75928 0.0
C3167 C 0.19686 0.61474 0.72343 0.0
C3168 C 0.21281 0.58648 0.72552 0.0
H3169 H 0.20831 0.56355 0.74358 0.0
C3170 C 0.22459 0.58482 0.72342 0.0
C3171 C 0.20681 0.57851 0.73263 0.0
C3172 C 0.19403 0.57941 0.7347 0.0
C3173 C 0.23063 0.57575 0.72868 0.0
C3174 C 0.2247 0.56801 0.73609 0.0
C3175 C 0.21286 0.56948 0.73791 0.0
C3176 C 0.23084 0.55891 0.74272 0.0
C3177 C 0.24343 0.57485 0.72667 0.0
C3178 C 0.23659 0.54997 0.73715 0.0
C3179 C 0.24326 0.54215 0.7435 0.0
C3180 C 0.24431 0.54318 0.75553 0.0
C3181 C 0.23801 0.55175 0.7611 0.0
C3182 C 0.23132 0.55949 0.75478 0.0
H3183 H 0.24708 0.58272 0.72256 0.0
H3184 H 0.24808 0.57329 0.73491 0.0
H3185 H 0.24506 0.56748 0.72091 0.0
H3186 H 0.23617 0.54921 0.72786 0.0
H3187 H 0.24805 0.53569 0.73896 0.0
H3188 H 0.21169 0.40406 0.32929 0.0
H3189 H 0.22224 0.42046 0.3211 0.0
H3190 H 0.19016 0.43569 0.31053 0.0
H3191 H 0.17951 0.41953 0.31905 0.0
H3192 H 0.22211 0.42723 0.29833 0.0
H3193 H 0.20677 0.46268 0.32586 0.0
H3194 H 0.20485 0.44773 0.32973 0.0
H3195 H 0.19549 0.45426 0.31925 0.0
C3196 C 0.20685 0.411 0.32544 0.0
C3197 C 0.19473 0.41045 0.32486 0.0
C3198 C 0.2129 0.42034 0.32069 0.0
C3199 C 0.207 0.42939 0.31532 0.0
C3200 C 0.19491 0.42894 0.31481 0.0
H3201 H 0.23284 0.48817 0.27471 0.0
H3202 H 0.22015 0.4745 0.28502 0.0
C3203 C 0.18883 0.4196 0.31957 0.0
C3204 C 0.21355 0.43891 0.30965 0.0
H3205 H 0.21811 0.46801 0.30967 0.0
C3206 C 0.22125 0.43614 0.30084 0.0
C3207 C 0.21235 0.45055 0.31286 0.0
C3208 C 0.2045 0.45402 0.32251 0.0
C3209 C 0.22777 0.44466 0.29516 0.0
C3210 C 0.22672 0.45627 0.29848 0.0
C3211 C 0.21889 0.4591 0.30715 0.0
C3212 C 0.23412 0.46543 0.29332 0.0
C3213 C 0.23569 0.44116 0.28556 0.0
C3214 C 0.2461 0.46513 0.29495 0.0
C3215 C 0.2533 0.47287 0.28913 0.0
C3216 C 0.24868 0.48114 0.28158 0.0
C3217 C 0.23663 0.48191 0.28048 0.0
C3218 C 0.22939 0.47409 0.28633 0.0
H3219 H 0.23335 0.43255 0.28212 0.0
H3220 H 0.2355 0.4475 0.27839 0.0
H3221 H 0.24466 0.44078 0.28892 0.0
H3222 H 0.24991 0.45866 0.30048 0.0
H3223 H 0.26254 0.4722 0.29029 0.0
H3224 H 0.11105 0.70069 0.33917 0.0
H3225 H 0.09382 0.70962 0.33094 0.0
H3226 H 0.10631 0.70307 0.29674 0.0
H3227 H 0.12327 0.69376 0.30485 0.0
H3228 H 0.09203 0.72844 0.31694 0.0
H3229 H 0.0737 0.69052 0.29453 0.0
H3230 H 0.08507 0.68939 0.30514 0.0
H3231 H 0.08836 0.69345 0.29053 0.0
C3232 C 0.11006 0.70099 0.32989 0.0
C3233 C 0.11859 0.69645 0.3227 0.0
C3234 C 0.10022 0.70617 0.3252 0.0
C3235 C 0.09863 0.70684 0.31321 0.0
C3236 C 0.10717 0.70243 0.30601 0.0
H3237 H 0.05612 0.74098 0.26381 0.0
H3238 H 0.06944 0.72882 0.27463 0.0
C3239 C 0.11699 0.69725 0.31069 0.0
C3240 C 0.0883 0.71257 0.30818 0.0
H3241 H 0.06618 0.70882 0.28888 0.0
C3242 C 0.08628 0.7241 0.31093 0.0
C3243 C 0.08075 0.70691 0.30036 0.0
C3244 C 0.082 0.69435 0.29755 0.0
C3245 C 0.07726 0.73025 0.30571 0.0
C3246 C 0.06996 0.72469 0.29761 0.0
C3247 C 0.07178 0.71308 0.29508 0.0
C3248 C 0.061 0.73105 0.29101 0.0
C3249 C 0.07594 0.74281 0.3085 0.0
C3250 C 0.05153 0.73602 0.29652 0.0
C3251 C 0.04384 0.74296 0.29031 0.0
C3252 C 0.04553 0.74508 0.2785 0.0
C3253 C 0.05465 0.73958 0.27292 0.0
C3254 C 0.06227 0.73262 0.27909 0.0
H3255 H 0.08349 0.74631 0.31332 0.0
H3256 H 0.07477 0.74795 0.3005 0.0
H3257 H 0.06816 0.7439 0.31389 0.0
H3258 H 0.05028 0.73478 0.30568 0.0
H3259 H 0.03693 0.74712 0.29485 0.0
H3260 H 0.83398 0.60643 0.33898 0.0
H3261 H 0.827 0.58944 0.32854 0.0
H3262 H 0.80298 0.61044 0.30966 0.0
H3263 H 0.81004 0.62746 0.31986 0.0
H3264 H 0.80447 0.58045 0.32827 0.0
H3265 H 0.81849 0.59206 0.28415 0.0
H3266 H 0.8242 0.59911 0.29682 0.0
H3267 H 0.81043 0.60316 0.29097 0.0
C3268 C 0.82734 0.60747 0.33247 0.0
C3269 C 0.82258 0.61833 0.33026 0.0
C3270 C 0.82332 0.59773 0.32655 0.0
C3271 C 0.81456 0.59868 0.3182 0.0
C3272 C 0.80987 0.60952 0.31591 0.0
H3273 H 0.76302 0.55352 0.29181 0.0
H3274 H 0.77535 0.56662 0.30285 0.0
C3275 C 0.81384 0.61923 0.32185 0.0
C3276 C 0.80986 0.58829 0.31231 0.0
H3277 H 0.80416 0.5771 0.2857 0.0
C3278 C 0.80454 0.57964 0.31897 0.0
C3279 C 0.81009 0.58713 0.30018 0.0
C3280 C 0.81621 0.5958 0.29261 0.0
C3281 C 0.79894 0.57019 0.3138 0.0
C3282 C 0.79856 0.5694 0.30165 0.0
C3283 C 0.80439 0.57773 0.29501 0.0
C3284 C 0.79133 0.56061 0.29565 0.0
C3285 C 0.79334 0.56119 0.3214 0.0
C3286 C 0.79618 0.55284 0.28788 0.0
C3287 C 0.7891 0.54528 0.28154 0.0
C3288 C 0.77705 0.54554 0.28272 0.0
C3289 C 0.77228 0.55314 0.2907 0.0
C3290 C 0.77933 0.56059 0.29708 0.0
H3291 H 0.7973 0.56107 0.33014 0.0
H3292 H 0.78407 0.56318 0.32236 0.0
H3293 H 0.79402 0.5525 0.31759 0.0
H3294 H 0.80542 0.55277 0.28658 0.0
H3295 H 0.79299 0.53959 0.27537 0.0
H3296 H 0.90221 0.32418 0.31368 0.0
H3297 H 0.91876 0.31658 0.30332 0.0
H3298 H 0.93838 0.31568 0.33494 0.0
H3299 H 0.92194 0.32335 0.34535 0.0
H3300 H 0.94176 0.3248 0.301 0.0
H3301 H 0.9402 0.28252 0.32343 0.0
H3302 H 0.92849 0.29255 0.32398 0.0
H3303 H 0.94113 0.29474 0.33277 0.0
C3304 C 0.91008 0.3225 0.31843 0.0
C3305 C 0.91066 0.32429 0.3304 0.0
C3306 C 0.91953 0.3181 0.31248 0.0
C3307 C 0.92975 0.31535 0.31838 0.0
C3308 C 0.9305 0.31747 0.33025 0.0
H3309 H 0.99137 0.27917 0.29518 0.0
H3310 H 0.97834 0.29114 0.30647 0.0
C3311 C 0.92107 0.32185 0.33619 0.0
C3312 C 0.93955 0.3101 0.31214 0.0
H3313 H 0.95561 0.28574 0.3106 0.0
C3314 C 0.94481 0.31627 0.30311 0.0
C3315 C 0.94357 0.29898 0.31492 0.0
C3316 C 0.93802 0.29175 0.32423 0.0
C3317 C 0.95396 0.31163 0.2968 0.0
C3318 C 0.95783 0.30042 0.29944 0.0
C3319 C 0.95271 0.29435 0.30861 0.0
C3320 C 0.96658 0.29447 0.29233 0.0
C3321 C 0.95944 0.31883 0.28743 0.0
C3322 C 0.96444 0.29251 0.28059 0.0
C3323 C 0.97188 0.28575 0.27415 0.0
C3324 C 0.9816 0.28069 0.27931 0.0
C3325 C 0.98402 0.28304 0.29094 0.0
C3326 C 0.97653 0.28981 0.29741 0.0
H3327 H 0.95824 0.32815 0.28896 0.0
H3328 H 0.96882 0.31714 0.28677 0.0
H3329 H 0.9553 0.3167 0.27906 0.0
H3330 H 0.95673 0.2958 0.2765 0.0
H3331 H 0.96979 0.28414 0.2652 0.0
H3332 H 0.8264 0.41693 0.69468 0.0
H3333 H 0.8169 0.43377 0.70272 0.0
H3334 H 0.82491 0.42189 0.73704 0.0
H3335 H 0.83431 0.40508 0.72913 0.0
H3336 H 0.79839 0.43527 0.7176 0.0
H3337 H 0.83734 0.45473 0.73766 0.0
H3338 H 0.83809 0.44337 0.72718 0.0
H3339 H 0.83498 0.44008 0.74201 0.0
C3340 C 0.82609 0.41786 0.70394 0.0
C3341 C 0.83125 0.40968 0.71124 0.0
C3342 C 0.8207 0.42754 0.70853 0.0
C3343 C 0.82042 0.42926 0.72049 0.0
C3344 C 0.82531 0.42096 0.72778 0.0
H3345 H 0.78874 0.4719 0.7704 0.0
H3346 H 0.80049 0.45872 0.75927 0.0
C3347 C 0.83069 0.41132 0.72323 0.0
C3348 C 0.81474 0.43952 0.72543 0.0
H3349 H 0.81919 0.46197 0.74387 0.0
C3350 C 0.80297 0.44122 0.7232 0.0
C3351 C 0.82072 0.4473 0.73273 0.0
C3352 C 0.83351 0.44637 0.73495 0.0
C3353 C 0.7969 0.45013 0.7285 0.0
C3354 C 0.80281 0.45768 0.7361 0.0
C3355 C 0.81466 0.45619 0.73805 0.0
C3356 C 0.79665 0.46657 0.74278 0.0
C3357 C 0.78411 0.45108 0.72634 0.0
C3358 C 0.79093 0.47568 0.73728 0.0
C3359 C 0.78422 0.48329 0.74365 0.0
C3360 C 0.78309 0.48188 0.75564 0.0
C3361 C 0.78936 0.47315 0.76117 0.0
C3362 C 0.79609 0.46561 0.75482 0.0
H3363 H 0.78048 0.44333 0.72203 0.0
H3364 H 0.77945 0.45237 0.73455 0.0
H3365 H 0.78247 0.45862 0.7207 0.0
H3366 H 0.79141 0.47672 0.72802 0.0
H3367 H 0.77945 0.4899 0.73915 0.0
H3368 H 0.10721 0.31442 0.68398 0.0
H3369 H 0.09043 0.30677 0.69428 0.0
H3370 H 0.10512 0.31836 0.72642 0.0
H3371 H 0.122 0.32595 0.71622 0.0
H3372 H 0.09015 0.28997 0.71128 0.0
H3373 H 0.07227 0.33049 0.72795 0.0
H3374 H 0.08286 0.33023 0.71662 0.0
H3375 H 0.08723 0.32859 0.73142 0.0
C3376 C 0.1069 0.31535 0.69325 0.0
C3377 C 0.11601 0.32081 0.69926 0.0
C3378 C 0.09726 0.31101 0.69911 0.0
C3379 C 0.09642 0.31212 0.71111 0.0
C3380 C 0.10543 0.31764 0.71713 0.0
H3381 H 0.05483 0.28652 0.76632 0.0
H3382 H 0.06792 0.29679 0.75335 0.0
C3383 C 0.11509 0.32198 0.71128 0.0
C3384 C 0.08644 0.30695 0.71737 0.0
H3385 H 0.06479 0.31307 0.73612 0.0
C3386 C 0.0845 0.29504 0.7166 0.0
C3387 C 0.07908 0.31356 0.7243 0.0
C3388 C 0.08037 0.32644 0.72506 0.0
C3389 C 0.07573 0.2895 0.72293 0.0
C3390 C 0.06852 0.29608 0.73007 0.0
C3391 C 0.07028 0.30803 0.73063 0.0
C3392 C 0.05975 0.29061 0.73773 0.0
C3393 C 0.07459 0.27659 0.72233 0.0
C3394 C 0.05053 0.28399 0.7333 0.0
C3395 C 0.04301 0.27805 0.74074 0.0
C3396 C 0.04461 0.27863 0.75273 0.0
C3397 C 0.05348 0.28576 0.75711 0.0
C3398 C 0.06094 0.29167 0.74971 0.0
H3399 H 0.08229 0.27263 0.7184 0.0
H3400 H 0.07333 0.27282 0.73104 0.0
H3401 H 0.06697 0.27428 0.71697 0.0
H3402 H 0.0493 0.28323 0.72408 0.0
H3403 H 0.03627 0.27263 0.73711 0.0
H3404 H 0.89981 0.71851 0.71018 0.0
H3405 H 0.91692 0.7259 0.72026 0.0
H3406 H 0.93734 0.69914 0.70546 0.0
H3407 H 0.92028 0.69177 0.69517 0.0
H3408 H 0.93205 0.7142 0.73623 0.0
H3409 H 0.95454 0.72964 0.69674 0.0
H3410 H 0.9393 0.72628 0.6969 0.0
H3411 H 0.94961 0.71492 0.6968 0.0
C3412 C 0.90795 0.71422 0.70901 0.0
C3413 C 0.90868 0.70459 0.70179 0.0
C3414 C 0.9177 0.71841 0.71484 0.0
C3415 C 0.92843 0.71315 0.71352 0.0
C3416 C 0.92918 0.70341 0.7065 0.0
H3417 H 0.98813 0.7335 0.75701 0.0
H3418 H 0.97454 0.72143 0.7459 0.0
C3419 C 0.9194 0.69916 0.70071 0.0
C3420 C 0.93879 0.71802 0.7194 0.0
H3421 H 0.96402 0.73269 0.71446 0.0
C3422 C 0.93911 0.71812 0.73148 0.0
C3423 C 0.94795 0.72321 0.71317 0.0
C3424 C 0.94787 0.72362 0.70018 0.0
C3425 C 0.94824 0.72347 0.73752 0.0
C3426 C 0.95733 0.72878 0.73129 0.0
C3427 C 0.95711 0.7285 0.71921 0.0
C3428 C 0.96644 0.73572 0.73715 0.0
C3429 C 0.94786 0.72383 0.75049 0.0
C3430 C 0.96668 0.74767 0.7356 0.0
C3431 C 0.97439 0.75452 0.74189 0.0
C3432 C 0.98211 0.74957 0.74981 0.0
C3433 C 0.9823 0.73754 0.75094 0.0
C3434 C 0.97449 0.73066 0.74467 0.0
H3435 H 0.9394 0.72085 0.75391 0.0
H3436 H 0.95465 0.71821 0.7541 0.0
H3437 H 0.94959 0.7327 0.75359 0.0
H3438 H 0.96059 0.75176 0.72982 0.0
H3439 H 0.97411 0.76377 0.74079 0.0
H3440 H 0.71432 0.21079 0.6304 0.0
H3441 H 0.72272 0.2208 0.61379 0.0
H3442 H 0.70554 0.19702 0.59091 0.0
H3443 H 0.69688 0.18711 0.60746 0.0
H3444 H 0.73723 0.21155 0.59673 0.0
H3445 H 0.69687 0.22874 0.57766 0.0
H3446 H 0.69767 0.22344 0.59228 0.0
H3447 H 0.69681 0.21355 0.5805 0.0
C3448 C 0.71217 0.20778 0.62183 0.0
C3449 C 0.70487 0.19816 0.62029 0.0
C3450 C 0.71706 0.21346 0.61234 0.0
C3451 C 0.71469 0.20973 0.60109 0.0
C3452 C 0.70738 0.20015 0.5995 0.0
H3453 H 0.75571 0.23385 0.54149 0.0
H3454 H 0.74516 0.22118 0.55494 0.0
C3455 C 0.70252 0.19443 0.60899 0.0
C3456 C 0.72009 0.21573 0.59107 0.0
H3457 H 0.71403 0.23197 0.5672 0.0
C3458 C 0.73216 0.21596 0.59023 0.0
C3459 C 0.71346 0.22154 0.58263 0.0
C3460 C 0.70049 0.22192 0.5833 0.0
C3461 C 0.7378 0.22191 0.58126 0.0
C3462 C 0.73117 0.2277 0.5728 0.0
C3463 C 0.71909 0.2274 0.57359 0.0
C3464 C 0.73667 0.23502 0.56376 0.0
C3465 C 0.7508 0.2223 0.58114 0.0
C3466 C 0.73504 0.24694 0.56392 0.0
C3467 C 0.74099 0.25413 0.55626 0.0
C3468 C 0.74867 0.24958 0.54819 0.0
C3469 C 0.74984 0.23759 0.54759 0.0
C3470 C 0.7439 0.23037 0.55534 0.0
H3471 H 0.75459 0.21919 0.58938 0.0
H3472 H 0.75395 0.21677 0.57411 0.0
H3473 H 0.754 0.23119 0.57949 0.0
H3474 H 0.72947 0.25073 0.57028 0.0
H3475 H 0.73983 0.26332 0.55685 0.0
H3476 H 0.30427 0.19156 0.62031 0.0
H3477 H 0.29719 0.2029 0.60406 0.0
H3478 H 0.33116 0.21757 0.59928 0.0
H3479 H 0.33845 0.20591 0.6153 0.0
H3480 H 0.29684 0.22621 0.60194 0.0
H3481 H 0.32256 0.20758 0.56667 0.0
H3482 H 0.32124 0.2008 0.58063 0.0
H3483 H 0.33099 0.21277 0.57862 0.0
C3484 C 0.31031 0.19704 0.61569 0.0
C3485 C 0.32197 0.19774 0.6191 0.0
C3486 C 0.30622 0.20358 0.60643 0.0
C3487 C 0.31367 0.21096 0.60032 0.0
C3488 C 0.32529 0.21176 0.60371 0.0
H3489 H 0.28857 0.26727 0.55779 0.0
H3490 H 0.29943 0.25552 0.57152 0.0
C3491 C 0.32941 0.20519 0.61298 0.0
C3492 C 0.30906 0.21819 0.59078 0.0
H3493 H 0.31154 0.22407 0.56198 0.0
C3494 C 0.30007 0.22574 0.59321 0.0
C3495 C 0.31318 0.21748 0.57935 0.0
C3496 C 0.32245 0.20915 0.57609 0.0
C3497 C 0.29512 0.23262 0.58458 0.0
C3498 C 0.29943 0.23215 0.57322 0.0
C3499 C 0.30835 0.22453 0.57073 0.0
C3500 C 0.29448 0.23931 0.56381 0.0
C3501 C 0.28512 0.24016 0.58769 0.0
C3502 C 0.28867 0.23414 0.5545 0.0
C3503 C 0.28254 0.24086 0.54655 0.0
C3504 C 0.28212 0.25285 0.54783 0.0
C3505 C 0.28863 0.25804 0.55668 0.0
C3506 C 0.29479 0.25133 0.56456 0.0
H3507 H 0.28105 0.23742 0.59591 0.0
H3508 H 0.28827 0.24914 0.58871 0.0
H3509 H 0.27843 0.24005 0.5808 0.0
H3510 H 0.28837 0.22487 0.55372 0.0
H3511 H 0.27756 0.23662 0.53986 0.0
H3512 H 0.33573 0.82822 0.6155 0.0
H3513 H 0.3278 0.81856 0.59843 0.0
H3514 H 0.29333 0.82496 0.61026 0.0
H3515 H 0.30114 0.83453 0.6273 0.0
H3516 H 0.31346 0.79952 0.59653 0.0
H3517 H 0.29207 0.83747 0.57753 0.0
H3518 H 0.3026 0.83863 0.589 0.0
H3519 H 0.28786 0.83479 0.59216 0.0
C3520 C 0.32646 0.82752 0.6145 0.0
C3521 C 0.31909 0.83228 0.62275 0.0
C3522 C 0.32194 0.82205 0.6047 0.0
C3523 C 0.30996 0.82126 0.6029 0.0
C3524 C 0.3026 0.82576 0.61125 0.0
H3525 H 0.26049 0.78769 0.55962 0.0
H3526 H 0.27147 0.79975 0.57304 0.0
C3527 C 0.3071 0.83123 0.62102 0.0
C3528 C 0.30508 0.81545 0.59251 0.0
H3529 H 0.28628 0.81915 0.57002 0.0
C3530 C 0.30765 0.80385 0.59063 0.0
C3531 C 0.29753 0.82111 0.58477 0.0
C3532 C 0.29493 0.83372 0.58588 0.0
C3533 C 0.30245 0.79763 0.58158 0.0
C3534 C 0.29459 0.8032 0.57408 0.0
C3535 C 0.29229 0.81488 0.57576 0.0
C3536 C 0.28797 0.79681 0.56508 0.0
C3537 C 0.30499 0.78501 0.58043 0.0
C3538 C 0.29352 0.79147 0.55584 0.0
C3539 C 0.28722 0.78457 0.54809 0.0
C3540 C 0.27528 0.78288 0.54949 0.0
C3541 C 0.26969 0.78875 0.55838 0.0
C3542 C 0.27596 0.79565 0.56605 0.0
H3543 H 0.30953 0.78155 0.58813 0.0
H3544 H 0.29691 0.77998 0.57909 0.0
H3545 H 0.31057 0.78372 0.57283 0.0
H3546 H 0.30276 0.79239 0.5548 0.0
H3547 H 0.29177 0.78013 0.54136 0.0
H3548 H 0.7146 0.81548 0.63067 0.0
H3549 H 0.72292 0.80643 0.61373 0.0
H3550 H 0.70569 0.83077 0.59168 0.0
H3551 H 0.69747 0.84004 0.60861 0.0
H3552 H 0.71151 0.79655 0.59406 0.0
H3553 H 0.74018 0.83342 0.58234 0.0
H3554 H 0.73363 0.83202 0.59635 0.0
H3555 H 0.72517 0.83659 0.58421 0.0
C3556 C 0.71261 0.81896 0.62223 0.0
C3557 C 0.70542 0.82855 0.62102 0.0
C3558 C 0.71733 0.81373 0.61254 0.0
C3559 C 0.71504 0.818 0.60145 0.0
C3560 C 0.70769 0.82742 0.60017 0.0
H3561 H 0.73511 0.78007 0.5392 0.0
H3562 H 0.72405 0.79205 0.55246 0.0
C3563 C 0.70291 0.83263 0.60986 0.0
C3564 C 0.72047 0.81261 0.59128 0.0
H3565 H 0.7406 0.81721 0.57028 0.0
C3566 C 0.71778 0.80109 0.58879 0.0
C3567 C 0.72873 0.81853 0.58446 0.0
C3568 C 0.73221 0.8308 0.58697 0.0
C3569 C 0.72323 0.79529 0.57977 0.0
C3570 C 0.73153 0.8012 0.57299 0.0
C3571 C 0.73413 0.81275 0.5754 0.0
C3572 C 0.73836 0.79517 0.56412 0.0
C3573 C 0.72039 0.78277 0.57783 0.0
C3574 C 0.75015 0.79337 0.56602 0.0
C3575 C 0.75645 0.78658 0.55849 0.0
C3576 C 0.7511 0.78153 0.54883 0.0
C3577 C 0.73945 0.7839 0.54654 0.0
C3578 C 0.73312 0.79065 0.55416 0.0
H3579 H 0.7152 0.779 0.58496 0.0
H3580 H 0.71537 0.78185 0.56971 0.0
H3581 H 0.72841 0.77775 0.57695 0.0
H3582 H 0.75439 0.79682 0.57362 0.0
H3583 H 0.76543 0.78496 0.56043 0.0
H3584 H 0.68857 0.8248 0.41976 0.0
H3585 H 0.69612 0.81451 0.43663 0.0
H3586 H 0.73071 0.82473 0.42736 0.0
H3587 H 0.7233 0.83489 0.41049 0.0
H3588 H 0.71198 0.79653 0.43784 0.0
H3589 H 0.72873 0.83474 0.46099 0.0
H3590 H 0.71871 0.83578 0.44908 0.0
H3591 H 0.73384 0.83394 0.44646 0.0
C3592 C 0.6978 0.82481 0.42128 0.0
C3593 C 0.70531 0.83078 0.4138 0.0
C3594 C 0.70209 0.81897 0.43096 0.0
C3595 C 0.71396 0.81905 0.4334 0.0
C3596 C 0.72149 0.82481 0.42584 0.0
H3597 H 0.76447 0.78836 0.47604 0.0
H3598 H 0.75251 0.79972 0.46301 0.0
C3599 C 0.71723 0.83063 0.41618 0.0
C3600 C 0.71861 0.81286 0.44363 0.0
H3601 H 0.73578 0.8165 0.46737 0.0
C3602 C 0.71702 0.8009 0.44441 0.0
C3603 C 0.72514 0.81859 0.45223 0.0
C3604 C 0.72662 0.83149 0.45224 0.0
C3605 C 0.72234 0.79445 0.45319 0.0
C3606 C 0.72928 0.80014 0.46152 0.0
C3607 C 0.73048 0.81215 0.46099 0.0
C3608 C 0.7363 0.79372 0.4701 0.0
C3609 C 0.72099 0.78154 0.45316 0.0
C3610 C 0.73117 0.78678 0.47866 0.0
C3611 C 0.73803 0.78024 0.48616 0.0
C3612 C 0.75011 0.78052 0.48518 0.0
C3613 C 0.75518 0.78784 0.4769 0.0
C3614 C 0.74836 0.79437 0.46948 0.0
H3615 H 0.71699 0.77836 0.44505 0.0
H3616 H 0.72949 0.77739 0.45433 0.0
H3617 H 0.7154 0.77883 0.46043 0.0
H3618 H 0.72187 0.7863 0.47942 0.0
H3619 H 0.73389 0.77467 0.49245 0.0
H3620 H 0.68312 0.21553 0.41804 0.0
H3621 H 0.69344 0.22407 0.43435 0.0
H3622 H 0.72404 0.20571 0.42514 0.0
H3623 H 0.71392 0.19747 0.40851 0.0
H3624 H 0.70438 0.21483 0.45338 0.0
H3625 H 0.73564 0.2388 0.426 0.0
H3626 H 0.72288 0.23193 0.42017 0.0
H3627 H 0.73537 0.22357 0.42366 0.0
C3628 C 0.69208 0.21337 0.41939 0.0
C3629 C 0.69771 0.20592 0.41181 0.0
C3630 C 0.69794 0.21818 0.42881 0.0
C3631 C 0.70958 0.2157 0.43089 0.0
C3632 C 0.71513 0.20794 0.4236 0.0
H3633 H 0.74931 0.23552 0.4927 0.0
H3634 H 0.73747 0.2247 0.47877 0.0
C3635 C 0.70928 0.20313 0.41415 0.0
C3636 C 0.71595 0.22151 0.44047 0.0
H3637 H 0.73865 0.23966 0.4461 0.0
C3638 C 0.71188 0.22024 0.4518 0.0
C3639 C 0.72566 0.22871 0.43841 0.0
C3640 C 0.7301 0.23095 0.4264 0.0
C3641 C 0.71727 0.22595 0.4611 0.0
C3642 C 0.7271 0.233 0.45904 0.0
C3643 C 0.73115 0.23423 0.44771 0.0
C3644 C 0.73315 0.23955 0.46835 0.0
C3645 C 0.7122 0.22464 0.47297 0.0
C3646 C 0.7346 0.2515 0.46725 0.0
C3647 C 0.7414 0.25764 0.47513 0.0
C3648 C 0.74691 0.25199 0.48432 0.0
C3649 C 0.74503 0.24011 0.48579 0.0
C3650 C 0.73827 0.23393 0.47782 0.0
H3651 H 0.70312 0.22149 0.47262 0.0
H3652 H 0.7173 0.2183 0.47795 0.0
H3653 H 0.71249 0.23292 0.47766 0.0
H3654 H 0.73073 0.25605 0.46007 0.0
H3655 H 0.74269 0.26678 0.47379 0.0
H3656 H 0.30972 0.20116 0.4065 0.0
H3657 H 0.2989 0.20844 0.42291 0.0
H3658 H 0.33039 0.21136 0.44263 0.0
H3659 H 0.34126 0.20399 0.42634 0.0
H3660 H 0.29697 0.20052 0.44615 0.0
H3661 H 0.31724 0.24397 0.44355 0.0
H3662 H 0.31823 0.23367 0.43206 0.0
H3663 H 0.32719 0.23232 0.44466 0.0
C3664 C 0.31434 0.2032 0.41437 0.0
C3665 C 0.3264 0.20209 0.41503 0.0
C3666 C 0.30813 0.20741 0.42374 0.0
C3667 C 0.31385 0.21063 0.43393 0.0
C3668 C 0.32582 0.20917 0.43476 0.0
H3669 H 0.28969 0.24719 0.49464 0.0
H3670 H 0.3012 0.23535 0.48177 0.0
C3671 C 0.33203 0.20497 0.42542 0.0
C3672 C 0.30735 0.21578 0.44358 0.0
H3673 H 0.30461 0.24046 0.45905 0.0
C3674 C 0.29864 0.20925 0.44899 0.0
C3675 C 0.30956 0.22716 0.44731 0.0
C3676 C 0.31849 0.23475 0.44155 0.0
C3677 C 0.29213 0.21378 0.45805 0.0
C3678 C 0.29423 0.22522 0.46166 0.0
C3679 C 0.30304 0.23167 0.45635 0.0
C3680 C 0.28697 0.23096 0.47041 0.0
C3681 C 0.28315 0.20621 0.46375 0.0
C3682 C 0.2751 0.23225 0.46847 0.0
C3683 C 0.26851 0.23894 0.47585 0.0
C3684 C 0.27366 0.24459 0.48529 0.0
C3685 C 0.28544 0.24286 0.48753 0.0
C3686 C 0.29205 0.23617 0.48012 0.0
H3687 H 0.2851 0.19696 0.46268 0.0
H3688 H 0.28251 0.20808 0.47309 0.0
H3689 H 0.27463 0.20781 0.45969 0.0
H3690 H 0.27101 0.22853 0.46094 0.0
H3691 H 0.25944 0.24004 0.47392 0.0
H3692 H 0.32245 0.84318 0.42441 0.0
H3693 H 0.31528 0.83251 0.44116 0.0
H3694 H 0.319 0.80071 0.42281 0.0
H3695 H 0.32612 0.81132 0.40598 0.0
H3696 H 0.29588 0.81879 0.44233 0.0
H3697 H 0.33444 0.79332 0.45352 0.0
H3698 H 0.33505 0.80555 0.4439 0.0
H3699 H 0.32994 0.79184 0.43878 0.0
C3700 C 0.32176 0.83391 0.42391 0.0
C3701 C 0.32486 0.82813 0.41379 0.0
C3702 C 0.31771 0.82781 0.43354 0.0
C3703 C 0.31674 0.81578 0.43333 0.0
C3704 C 0.31993 0.80996 0.4233 0.0
H3705 H 0.28557 0.76243 0.47449 0.0
H3706 H 0.29697 0.77411 0.46107 0.0
C3707 C 0.32399 0.81605 0.41366 0.0
C3708 C 0.31173 0.80942 0.44335 0.0
H3709 H 0.31683 0.78773 0.46265 0.0
C3710 C 0.30052 0.81209 0.44686 0.0
C3711 C 0.31776 0.80066 0.44926 0.0
C3712 C 0.33001 0.79772 0.44626 0.0
C3713 C 0.29502 0.806 0.45582 0.0
C3714 C 0.30099 0.79711 0.46163 0.0
C3715 C 0.31228 0.79456 0.45825 0.0
C3716 C 0.29532 0.78987 0.47066 0.0
C3717 C 0.2827 0.80881 0.45865 0.0
C3718 C 0.29101 0.79471 0.48081 0.0
C3719 C 0.28444 0.78803 0.48851 0.0
C3720 C 0.28208 0.77638 0.4862 0.0
C3721 C 0.28709 0.77141 0.47644 0.0
C3722 C 0.29364 0.77808 0.46877 0.0
H3723 H 0.27856 0.81402 0.45176 0.0
H3724 H 0.27749 0.80085 0.45998 0.0
H3725 H 0.28252 0.81384 0.46674 0.0
H3726 H 0.2924 0.80375 0.48258 0.0
H3727 H 0.28069 0.79211 0.49594 0.0
H3728 H 0.60699 0.19066 0.69881 0.0
H3729 H 0.58996 0.19785 0.70874 0.0
H3730 H 0.60967 0.22722 0.72044 0.0
H3731 H 0.62669 0.22011 0.7106 0.0
H3732 H 0.58591 0.2028 0.73163 0.0
H3733 H 0.58203 0.24218 0.70498 0.0
H3734 H 0.59117 0.23043 0.70102 0.0
H3735 H 0.59603 0.2408 0.71147 0.0
C3736 C 0.60773 0.1986 0.70358 0.0
C3737 C 0.61822 0.20485 0.70379 0.0
C3738 C 0.59797 0.20273 0.70921 0.0
C3739 C 0.59845 0.21321 0.71514 0.0
C3740 C 0.60898 0.21928 0.71566 0.0
H3741 H 0.55648 0.24188 0.76781 0.0
H3742 H 0.56973 0.23053 0.75643 0.0
C3743 C 0.61872 0.21519 0.71002 0.0
C3744 C 0.588 0.2178 0.72087 0.0
H3745 H 0.57111 0.24159 0.72237 0.0
C3746 C 0.5826 0.21123 0.72953 0.0
C3747 C 0.5835 0.22871 0.71799 0.0
C3748 C 0.5884 0.23589 0.70828 0.0
C3749 C 0.57318 0.21549 0.73571 0.0
C3750 C 0.56914 0.22669 0.73331 0.0
C3751 C 0.57423 0.23304 0.7243 0.0
C3752 C 0.5602 0.23233 0.74045 0.0
C3753 C 0.56765 0.20793 0.74478 0.0
C3754 C 0.55033 0.23714 0.73533 0.0
C3755 C 0.54274 0.24374 0.74185 0.0
C3756 C 0.54496 0.24577 0.75359 0.0
C3757 C 0.55455 0.24051 0.75878 0.0
C3758 C 0.5621 0.23392 0.75229 0.0
H3759 H 0.56897 0.19869 0.74293 0.0
H3760 H 0.57169 0.2098 0.75326 0.0
H3761 H 0.55825 0.20951 0.74541 0.0
H3762 H 0.5487 0.23609 0.7262 0.0
H3763 H 0.5355 0.24777 0.73758 0.0
H3764 H 0.31133 0.12397 0.7045 0.0
H3765 H 0.30055 0.10736 0.71203 0.0
H3766 H 0.3319 0.08792 0.71373 0.0
H3767 H 0.34274 0.10444 0.70615 0.0
H3768 H 0.29804 0.08454 0.70395 0.0
H3769 H 0.31971 0.08592 0.74675 0.0
H3770 H 0.32066 0.09764 0.73655 0.0
H3771 H 0.32927 0.08507 0.73469 0.0
C3772 C 0.31592 0.11612 0.70634 0.0
C3773 C 0.32794 0.11559 0.70481 0.0
C3774 C 0.30975 0.10664 0.71069 0.0
C3775 C 0.31545 0.09645 0.71363 0.0
C3776 C 0.32736 0.09577 0.71176 0.0
H3777 H 0.29055 0.03512 0.75038 0.0
H3778 H 0.30217 0.04802 0.73817 0.0
C3779 C 0.33355 0.10524 0.70744 0.0
C3780 C 0.30895 0.08666 0.71887 0.0
H3781 H 0.3066 0.07063 0.74351 0.0
C3782 C 0.29993 0.08147 0.71259 0.0
C3783 C 0.31144 0.08263 0.73014 0.0
C3784 C 0.32072 0.08814 0.73749 0.0
C3785 C 0.29332 0.07238 0.71727 0.0
C3786 C 0.29567 0.06849 0.7286 0.0
C3787 C 0.30484 0.07355 0.7348 0.0
C3788 C 0.28829 0.05979 0.73457 0.0
C3789 C 0.28393 0.06697 0.70999 0.0
C3790 C 0.27658 0.06198 0.73643 0.0
C3791 C 0.26994 0.05461 0.74334 0.0
C3792 C 0.27488 0.04492 0.74862 0.0
C3793 C 0.28647 0.04244 0.74633 0.0
C3794 C 0.29313 0.04985 0.73942 0.0
H3795 H 0.2856 0.06825 0.70065 0.0
H3796 H 0.28307 0.05761 0.71177 0.0
H3797 H 0.27559 0.07106 0.71198 0.0
H3798 H 0.27268 0.06968 0.73297 0.0
H3799 H 0.26102 0.05673 0.7449 0.0
H3800 H 0.41684 0.83646 0.70389 0.0
H3801 H 0.43378 0.82822 0.71344 0.0
H3802 H 0.41804 0.79453 0.71162 0.0
H3803 H 0.40112 0.80265 0.70218 0.0
H3804 H 0.43582 0.81588 0.73387 0.0
H3805 H 0.44942 0.78916 0.69724 0.0
H3806 H 0.43899 0.80045 0.69568 0.0
H3807 H 0.43468 0.78659 0.70122 0.0
C3808 C 0.41694 0.8273 0.70559 0.0
C3809 C 0.40763 0.82022 0.70213 0.0
C3810 C 0.42667 0.82259 0.71099 0.0
C3811 C 0.42732 0.8107 0.71301 0.0
C3812 C 0.41792 0.80367 0.70985 0.0
H3813 H 0.46846 0.76146 0.74842 0.0
H3814 H 0.45513 0.77233 0.7363 0.0
C3815 C 0.40822 0.80835 0.70445 0.0
C3816 C 0.43767 0.80561 0.71867 0.0
H3817 H 0.45791 0.78476 0.71556 0.0
C3818 C 0.44076 0.8092 0.72981 0.0
C3819 C 0.44416 0.79691 0.71336 0.0
C3820 C 0.44173 0.79312 0.70117 0.0
C3821 C 0.44977 0.80393 0.73598 0.0
C3822 C 0.456 0.79496 0.73081 0.0
C3823 C 0.45314 0.79163 0.71953 0.0
C3824 C 0.46483 0.78829 0.73729 0.0
C3825 C 0.45221 0.80766 0.74819 0.0
C3826 C 0.47498 0.79352 0.74156 0.0
C3827 C 0.48267 0.78727 0.7485 0.0
C3828 C 0.48031 0.77571 0.75131 0.0
C3829 C 0.47045 0.77038 0.74651 0.0
C3830 C 0.46283 0.77658 0.73956 0.0
H3831 H 0.44526 0.81312 0.75164 0.0
H3832 H 0.45321 0.80007 0.75394 0.0
H3833 H 0.46039 0.81269 0.74844 0.0
H3834 H 0.47682 0.80249 0.73975 0.0
H3835 H 0.49017 0.79162 0.7521 0.0
H3836 H 0.68463 0.92113 0.70286 0.0
H3837 H 0.69421 0.93817 0.71096 0.0
H3838 H 0.72128 0.91695 0.72465 0.0
H3839 H 0.7119 0.89992 0.71641 0.0
H3840 H 0.69948 0.94232 0.73441 0.0
H3841 H 0.73894 0.94285 0.70768 0.0
H3842 H 0.72614 0.93473 0.7038 0.0
H3843 H 0.73597 0.92924 0.71446 0.0
C3844 C 0.69272 0.92011 0.70744 0.0
C3845 C 0.69751 0.90914 0.70895 0.0
C3846 C 0.69814 0.92985 0.71213 0.0
C3847 C 0.70853 0.92886 0.7183 0.0
C3848 C 0.71337 0.91795 0.71977 0.0
H3849 H 0.74256 0.96991 0.76913 0.0
H3850 H 0.73024 0.95669 0.75816 0.0
C3851 C 0.70793 0.9082 0.71515 0.0
C3852 C 0.71411 0.93914 0.7236 0.0
H3853 H 0.73932 0.95464 0.72444 0.0
C3854 C 0.70815 0.94509 0.73214 0.0
C3855 C 0.72535 0.94286 0.72054 0.0
C3856 C 0.73195 0.93717 0.71104 0.0
C3857 C 0.71332 0.95435 0.73805 0.0
C3858 C 0.72478 0.95768 0.7354 0.0
C3859 C 0.73055 0.95204 0.72652 0.0
C3860 C 0.73122 0.96643 0.74226 0.0
C3861 C 0.7065 0.96043 0.74714 0.0
C3862 C 0.73585 0.97636 0.73699 0.0
C3863 C 0.7429 0.98397 0.74328 0.0
C3864 C 0.74559 0.98166 0.75488 0.0
C3865 C 0.74065 0.9719 0.7602 0.0
C3866 C 0.73355 0.96437 0.75396 0.0
H3867 H 0.69707 0.95919 0.74583 0.0
H3868 H 0.70877 0.95686 0.75573 0.0
H3869 H 0.70851 0.96978 0.74717 0.0
H3870 H 0.73422 0.97807 0.72796 0.0
H3871 H 0.74669 0.99135 0.73894 0.0
H3872 H 0.60518 0.83172 0.34258 0.0
H3873 H 0.58802 0.82372 0.33299 0.0
H3874 H 0.60891 0.79785 0.31722 0.0
H3875 H 0.62603 0.80572 0.32684 0.0
H3876 H 0.5827 0.82129 0.31053 0.0
H3877 H 0.58352 0.77834 0.33108 0.0
H3878 H 0.59227 0.79021 0.3362 0.0
H3879 H 0.59691 0.78179 0.32415 0.0
C3880 C 0.60612 0.82435 0.33704 0.0
C3881 C 0.61697 0.81931 0.33555 0.0
C3882 C 0.59629 0.81975 0.3316 0.0
C3883 C 0.59711 0.81001 0.32458 0.0
C3884 C 0.60798 0.80514 0.32288 0.0
H3885 H 0.55526 0.78616 0.26905 0.0
H3886 H 0.56821 0.79633 0.28219 0.0
C3887 C 0.61778 0.80968 0.32836 0.0
C3888 C 0.58671 0.80515 0.31871 0.0
H3889 H 0.57191 0.78004 0.31396 0.0
C3890 C 0.58026 0.8123 0.3114 0.0
C3891 C 0.58332 0.79349 0.32002 0.0
C3892 C 0.58929 0.78555 0.32839 0.0
C3893 C 0.57091 0.80797 0.30492 0.0
C3894 C 0.56807 0.79611 0.30558 0.0
C3895 C 0.57414 0.7891 0.31334 0.0
C3896 C 0.5595 0.79064 0.29768 0.0
C3897 C 0.56421 0.81615 0.29739 0.0
C3898 C 0.55031 0.78389 0.30197 0.0
C3899 C 0.54293 0.7779 0.29442 0.0
C3900 C 0.54471 0.77846 0.28246 0.0
C3901 C 0.55372 0.78547 0.27822 0.0
C3902 C 0.56106 0.79141 0.28573 0.0
H3903 H 0.56464 0.82503 0.30082 0.0
H3904 H 0.56803 0.81634 0.28865 0.0
H3905 H 0.55502 0.81346 0.29662 0.0
H3906 H 0.54899 0.78309 0.31117 0.0
H3907 H 0.53614 0.7725 0.29795 0.0
H3908 H 0.69819 0.10368 0.34412 0.0
H3909 H 0.70665 0.08713 0.33451 0.0
H3910 H 0.72397 0.10991 0.31066 0.0
H3911 H 0.71572 0.1265 0.32032 0.0
H3912 H 0.70479 0.08027 0.31107 0.0
H3913 H 0.75015 0.08969 0.32358 0.0
H3914 H 0.73805 0.09627 0.33056 0.0
H3915 H 0.74292 0.10153 0.31682 0.0
C3916 C 0.70386 0.10518 0.33688 0.0
C3917 C 0.7063 0.11645 0.33304 0.0
C3918 C 0.70865 0.0957 0.33136 0.0
C3919 C 0.71609 0.09727 0.32197 0.0
C3920 C 0.71841 0.10848 0.31801 0.0
H3921 H 0.73877 0.05343 0.26801 0.0
H3922 H 0.72868 0.0666 0.28066 0.0
C3923 C 0.71358 0.11796 0.32347 0.0
C3924 C 0.72131 0.08721 0.31621 0.0
H3925 H 0.74717 0.0754 0.30922 0.0
C3926 C 0.71405 0.07915 0.31075 0.0
C3927 C 0.73339 0.08563 0.31594 0.0
C3928 C 0.7416 0.09367 0.32212 0.0
C3929 C 0.71856 0.06984 0.30462 0.0
C3930 C 0.73066 0.06859 0.30388 0.0
C3931 C 0.7379 0.07638 0.30974 0.0
C3932 C 0.73599 0.05977 0.29642 0.0
C3933 C 0.71033 0.06146 0.29894 0.0
C3934 C 0.74348 0.05149 0.30104 0.0
C3935 C 0.74926 0.04389 0.29378 0.0
C3936 C 0.74779 0.04459 0.28177 0.0
C3937 C 0.74007 0.05269 0.27723 0.0
C3938 C 0.73425 0.06019 0.28446 0.0
H3939 H 0.70168 0.06159 0.303 0.0
H3940 H 0.70929 0.06385 0.28974 0.0
H3941 H 0.71368 0.05257 0.29939 0.0
H3942 H 0.74502 0.05106 0.31024 0.0
H3943 H 0.75524 0.03781 0.2975 0.0
H3944 H 0.42047 0.19034 0.33849 0.0
H3945 H 0.43765 0.20048 0.33127 0.0
H3946 H 0.41619 0.22157 0.30957 0.0
H3947 H 0.39899 0.21164 0.31687 0.0
H3948 H 0.44502 0.20181 0.30822 0.0
H3949 H 0.43731 0.24517 0.3258 0.0
H3950 H 0.42992 0.23246 0.33109 0.0
H3951 H 0.4252 0.23932 0.318 0.0
C3952 C 0.41939 0.19726 0.33232 0.0
C3953 C 0.40833 0.20018 0.32827 0.0
C3954 C 0.42923 0.203 0.32816 0.0
C3955 C 0.42821 0.21188 0.31999 0.0
C3956 C 0.41719 0.21488 0.31601 0.0
H3957 H 0.47144 0.24011 0.26817 0.0
H3958 H 0.45837 0.22886 0.28035 0.0
C3959 C 0.40736 0.20911 0.32011 0.0
C3960 C 0.43865 0.21762 0.31513 0.0
H3961 H 0.45129 0.24396 0.31076 0.0
C3962 C 0.44648 0.21101 0.3089 0.0
C3963 C 0.44066 0.22959 0.31615 0.0
C3964 C 0.43289 0.23705 0.32321 0.0
C3965 C 0.45591 0.21613 0.30319 0.0
C3966 C 0.45751 0.22819 0.30365 0.0
C3967 C 0.45003 0.23473 0.31035 0.0
C3968 C 0.46622 0.23427 0.29641 0.0
C3969 C 0.46398 0.2086 0.29656 0.0
C3970 C 0.47501 0.24109 0.30137 0.0
C3971 C 0.48256 0.24753 0.29437 0.0
C3972 C 0.48127 0.2474 0.28233 0.0
C3973 C 0.47262 0.24037 0.27742 0.0
C3974 C 0.46519 0.23389 0.28438 0.0
H3975 H 0.46368 0.19959 0.29976 0.0
H3976 H 0.46135 0.20856 0.28736 0.0
H3977 H 0.473 0.21188 0.29713 0.0
H3978 H 0.4759 0.24157 0.31065 0.0
H3979 H 0.48909 0.25295 0.29836 0.0
H3980 H 0.31148 0.90225 0.32912 0.0
H3981 H 0.30083 0.91888 0.32194 0.0
H3982 H 0.33286 0.93713 0.31613 0.0
H3983 H 0.34357 0.92061 0.32336 0.0
H3984 H 0.30058 0.94208 0.32919 0.0
H3985 H 0.31697 0.93846 0.28453 0.0
H3986 H 0.31843 0.92707 0.29503 0.0
H3987 H 0.32797 0.93936 0.29545 0.0
C3988 C 0.31628 0.90984 0.32643 0.0
C3989 C 0.32842 0.91 0.32672 0.0
C3990 C 0.31016 0.91933 0.32228 0.0
C3991 C 0.31604 0.92919 0.31829 0.0
C3992 C 0.32814 0.92953 0.3189 0.0
H3993 H 0.29136 0.99065 0.28221 0.0
H3994 H 0.30336 0.9774 0.29346 0.0
C3995 C 0.33425 0.92005 0.32303 0.0
C3996 C 0.30954 0.93904 0.31335 0.0
H3997 H 0.30546 0.95449 0.28855 0.0
C3998 C 0.30165 0.94481 0.32031 0.0
C3999 C 0.31097 0.94264 0.30176 0.0
C4000 C 0.31896 0.93652 0.29371 0.0
C4001 C 0.29519 0.95408 0.31603 0.0
C4002 C 0.29649 0.95756 0.30439 0.0
C4003 C 0.30451 0.9519 0.29749 0.0
C4004 C 0.28913 0.96652 0.29894 0.0
C4005 C 0.28712 0.96013 0.32405 0.0
C4006 C 0.27711 0.96497 0.29844 0.0
C4007 C 0.27026 0.97254 0.29209 0.0
C4008 C 0.27526 0.98181 0.28599 0.0
C4009 C 0.28723 0.98367 0.28691 0.0
C4010 C 0.29411 0.97605 0.29327 0.0
H4011 H 0.28979 0.95902 0.33319 0.0
H4012 H 0.28673 0.96946 0.32205 0.0
H4013 H 0.27832 0.95639 0.32307 0.0
H4014 H 0.27305 0.95759 0.30254 0.0
H4015 H 0.26105 0.97089 0.29158 0.0
H4016 H 0.69257 0.11901 0.7257 0.0
H4017 H 0.70293 0.10229 0.73288 0.0
H4018 H 0.71623 0.09629 0.69889 0.0
H4019 H 0.70579 0.11303 0.69157 0.0
H4020 H 0.70079 0.07941 0.72604 0.0
H4021 H 0.7454 0.09597 0.71896 0.0
H4022 H 0.73301 0.10519 0.71855 0.0
H4023 H 0.73606 0.09607 0.70656 0.0
C4024 C 0.69763 0.11412 0.7197 0.0
C4025 C 0.6983 0.11739 0.70803 0.0
C4026 C 0.7036 0.10457 0.72385 0.0
C4027 C 0.71046 0.09807 0.71647 0.0
C4028 C 0.71117 0.10128 0.7048 0.0
H4029 H 0.75427 0.0396 0.73712 0.0
H4030 H 0.74307 0.05281 0.72486 0.0
C4031 C 0.70519 0.11087 0.70063 0.0
C4032 C 0.71663 0.08786 0.72107 0.0
H4033 H 0.74348 0.07735 0.72682 0.0
C4034 C 0.71012 0.07893 0.72613 0.0
C4035 C 0.72881 0.08717 0.72111 0.0
C4036 C 0.73628 0.09663 0.71609 0.0
C4037 C 0.71545 0.06949 0.73146 0.0
C4038 C 0.72763 0.06902 0.7319 0.0
C4039 C 0.73414 0.0777 0.72645 0.0
C4040 C 0.73373 0.06027 0.73899 0.0
C4041 C 0.70798 0.06015 0.73669 0.0
C4042 C 0.73215 0.06003 0.75096 0.0
C4043 C 0.73851 0.05257 0.75791 0.0
C4044 C 0.74663 0.04517 0.75307 0.0
C4045 C 0.74798 0.04513 0.74105 0.0
C4046 C 0.74165 0.05271 0.73407 0.0
H4047 H 0.69927 0.05988 0.73265 0.0
H4048 H 0.71199 0.0516 0.73579 0.0
H4049 H 0.70688 0.06188 0.74601 0.0
H4050 H 0.72624 0.06589 0.75499 0.0
H4051 H 0.73729 0.05279 0.76715 0.0
H4052 H 0.69514 0.90256 0.30607 0.0
H4053 H 0.70495 0.91946 0.29804 0.0
H4054 H 0.70635 0.93479 0.33173 0.0
H4055 H 0.69648 0.91788 0.33986 0.0
H4056 H 0.69803 0.94224 0.29799 0.0
H4057 H 0.7398 0.93745 0.32116 0.0
H4058 H 0.72915 0.92603 0.3205 0.0
H4059 H 0.72728 0.93784 0.33017 0.0
C4060 C 0.69748 0.90954 0.31179 0.0
C4061 C 0.695 0.90884 0.32363 0.0
C4062 C 0.70313 0.91918 0.30718 0.0
C4063 C 0.7065 0.92836 0.31429 0.0
C4064 C 0.70404 0.92773 0.32611 0.0
H4065 H 0.74622 0.99047 0.29488 0.0
H4066 H 0.73342 0.97727 0.30559 0.0
C4067 C 0.6984 0.91805 0.33075 0.0
C4068 C 0.71241 0.93859 0.30919 0.0
H4069 H 0.73789 0.95369 0.3091 0.0
C4070 C 0.70672 0.94477 0.30046 0.0
C4071 C 0.72373 0.94196 0.31247 0.0
C4072 C 0.73042 0.93544 0.32152 0.0
C4073 C 0.71211 0.95409 0.29481 0.0
C4074 C 0.72355 0.95722 0.29784 0.0
C4075 C 0.7291 0.95129 0.30681 0.0
C4076 C 0.73025 0.96594 0.29117 0.0
C4077 C 0.70551 0.96046 0.28559 0.0
C4078 C 0.73261 0.96404 0.2795 0.0
C4079 C 0.73988 0.97152 0.27342 0.0
C4080 C 0.745 0.98108 0.27887 0.0
C4081 C 0.74231 0.98324 0.29044 0.0
C4082 C 0.73506 0.97567 0.29657 0.0
H4083 H 0.69605 0.95943 0.28673 0.0
H4084 H 0.70774 0.96977 0.28562 0.0
H4085 H 0.70775 0.95695 0.27704 0.0
H4086 H 0.72916 0.9565 0.2752 0.0
H4087 H 0.74178 0.96966 0.2645 0.0
H4088 H 0.62303 0.19374 0.30447 0.0
H4089 H 0.60604 0.20329 0.29666 0.0
H4090 H 0.59366 0.2089 0.33107 0.0
H4091 H 0.61065 0.19927 0.33899 0.0
H4092 H 0.58284 0.19731 0.29931 0.0
H4093 H 0.59183 0.24096 0.31661 0.0
H4094 H 0.60263 0.22994 0.31633 0.0
H4095 H 0.5916 0.22956 0.32712 0.0
C4096 C 0.61669 0.19695 0.31041 0.0
C4097 C 0.61824 0.19569 0.32239 0.0
C4098 C 0.60698 0.20246 0.30592 0.0
C4099 C 0.5986 0.20692 0.31326 0.0
C4100 C 0.60011 0.20573 0.32522 0.0
H4101 H 0.53714 0.24682 0.2942 0.0
H4102 H 0.55057 0.23481 0.30531 0.0
C4103 C 0.60984 0.20022 0.32974 0.0
C4104 C 0.58824 0.21261 0.30828 0.0
H4105 H 0.57448 0.23836 0.30622 0.0
C4106 C 0.58099 0.20627 0.30087 0.0
C4107 C 0.58575 0.22429 0.31037 0.0
C4108 C 0.59339 0.23165 0.31796 0.0
C4109 C 0.57146 0.21132 0.29537 0.0
C4110 C 0.56918 0.22308 0.29717 0.0
C4111 C 0.5762 0.22933 0.30486 0.0
C4112 C 0.56018 0.2293 0.29045 0.0
C4113 C 0.56391 0.20398 0.28766 0.0
C4114 C 0.561 0.23008 0.27842 0.0
C4115 C 0.55336 0.23689 0.2721 0.0
C4116 C 0.54473 0.24313 0.27766 0.0
C4117 C 0.54361 0.24201 0.28967 0.0
C4118 C 0.55133 0.23522 0.29602 0.0
H4119 H 0.56447 0.19474 0.29001 0.0
H4120 H 0.55475 0.20661 0.2881 0.0
H4121 H 0.56684 0.20498 0.27863 0.0
H4122 H 0.56786 0.22578 0.27393 0.0
H4123 H 0.55445 0.23758 0.26286 0.0
H4124 H 0.31935 0.10579 0.3477 0.0
H4125 H 0.3124 0.08923 0.3367 0.0
H4126 H 0.3192 0.1075 0.30502 0.0
H4127 H 0.32609 0.12416 0.31595 0.0
H4128 H 0.29399 0.08861 0.32157 0.0
H4129 H 0.33406 0.07651 0.29913 0.0
H4130 H 0.33408 0.08604 0.31134 0.0
H4131 H 0.33032 0.09132 0.29724 0.0
C4132 C 0.31938 0.10631 0.33839 0.0
C4133 C 0.32327 0.11636 0.33273 0.0
C4134 C 0.31545 0.09679 0.33211 0.0
C4135 C 0.31541 0.09704 0.32003 0.0
C4136 C 0.3194 0.10699 0.31433 0.0
H4137 H 0.28687 0.05622 0.26515 0.0
H4138 H 0.29784 0.06955 0.27732 0.0
C4139 C 0.32333 0.11653 0.3206 0.0
C4140 C 0.31052 0.08717 0.31342 0.0
H4141 H 0.31659 0.06772 0.29243 0.0
C4142 C 0.29897 0.08395 0.31529 0.0
C4143 C 0.31701 0.08111 0.30521 0.0
C4144 C 0.32959 0.08383 0.30316 0.0
C4145 C 0.29362 0.07512 0.30892 0.0
C4146 C 0.30006 0.06915 0.3006 0.0
C4147 C 0.31167 0.07225 0.29884 0.0
C4148 C 0.29465 0.06019 0.29315 0.0
C4149 C 0.28098 0.07259 0.31084 0.0
C4150 C 0.28962 0.0502 0.29791 0.0
C4151 C 0.28328 0.04256 0.29096 0.0
C4152 C 0.2819 0.04477 0.27911 0.0
C4153 C 0.28763 0.05437 0.27427 0.0
C4154 C 0.29394 0.06198 0.28121 0.0
H4155 H 0.2767 0.07961 0.31558 0.0
H4156 H 0.27639 0.07129 0.30252 0.0
H4157 H 0.28005 0.06459 0.31602 0.0
H4158 H 0.29026 0.04851 0.30708 0.0
H4159 H 0.27896 0.03528 0.29496 0.0
H4160 H 0.40144 0.82332 0.31454 0.0
H4161 H 0.41788 0.81576 0.30397 0.0
H4162 H 0.43806 0.81542 0.33526 0.0
H4163 H 0.42173 0.82305 0.34587 0.0
H4164 H 0.4407 0.82416 0.30111 0.0
H4165 H 0.44008 0.78218 0.32414 0.0
H4166 H 0.42827 0.7921 0.32481 0.0
H4167 H 0.44107 0.79453 0.33331 0.0
C4168 C 0.40941 0.82177 0.31916 0.0
C4169 C 0.41019 0.8237 0.33111 0.0
C4170 C 0.4188 0.8174 0.31311 0.0
C4171 C 0.42915 0.81482 0.31885 0.0
C4172 C 0.43008 0.81708 0.33069 0.0
H4173 H 0.49098 0.77938 0.29518 0.0
H4174 H 0.47786 0.79124 0.30647 0.0
C4175 C 0.42071 0.82144 0.33674 0.0
C4176 C 0.43889 0.8096 0.31251 0.0
H4177 H 0.45525 0.78543 0.31103 0.0
C4178 C 0.44389 0.8157 0.30329 0.0
C4179 C 0.44311 0.79857 0.31537 0.0
C4180 C 0.43781 0.79139 0.32488 0.0
C4181 C 0.45299 0.81108 0.29688 0.0
C4182 C 0.45707 0.79997 0.29962 0.0
C4183 C 0.45219 0.79397 0.30896 0.0
C4184 C 0.4658 0.79406 0.29247 0.0
C4185 C 0.45821 0.81821 0.2873 0.0
C4186 C 0.46351 0.79184 0.28081 0.0
C4187 C 0.471 0.78514 0.27436 0.0
C4188 C 0.48092 0.7804 0.27944 0.0
C4189 C 0.48347 0.783 0.29099 0.0
C4190 C 0.47594 0.7897 0.29747 0.0
H4191 H 0.45685 0.82753 0.28867 0.0
H4192 H 0.4676 0.81668 0.28654 0.0
H4193 H 0.45399 0.81584 0.27903 0.0
H4194 H 0.45567 0.7949 0.27678 0.0
H4195 H 0.46881 0.78334 0.26546 0.0
H4196 H 0.33131 0.9043 0.73069 0.0
H4197 H 0.32169 0.92107 0.73849 0.0
H4198 H 0.31685 0.93445 0.70413 0.0
H4199 H 0.32654 0.91769 0.69623 0.0
H4200 H 0.32777 0.94414 0.7366 0.0
H4201 H 0.28442 0.93611 0.7174 0.0
H4202 H 0.29542 0.92529 0.71781 0.0
H4203 H 0.29609 0.93667 0.7073 0.0
C4204 C 0.32826 0.91082 0.72477 0.0
C4205 C 0.32974 0.90961 0.71281 0.0
C4206 C 0.32271 0.9204 0.72925 0.0
C4207 C 0.31843 0.929 0.72192 0.0
C4208 C 0.31987 0.92784 0.70997 0.0
H4209 H 0.27862 0.99023 0.74022 0.0
H4210 H 0.2908 0.97692 0.72949 0.0
C4211 C 0.32542 0.91823 0.70546 0.0
C4212 C 0.31265 0.9392 0.72688 0.0
H4213 H 0.2869 0.95313 0.7281 0.0
C4214 C 0.31884 0.94612 0.7347 0.0
C4215 C 0.30102 0.94187 0.72436 0.0
C4216 C 0.29379 0.93456 0.71634 0.0
C4217 C 0.3137 0.95551 0.74016 0.0
C4218 C 0.30199 0.95797 0.73789 0.0
C4219 C 0.29589 0.95127 0.72982 0.0
C4220 C 0.29564 0.96685 0.74444 0.0
C4221 C 0.32089 0.96271 0.74831 0.0
C4222 C 0.29442 0.96573 0.75642 0.0
C4223 C 0.28751 0.9733 0.76253 0.0
C4224 C 0.2816 0.98217 0.75681 0.0
C4225 C 0.28317 0.98357 0.74488 0.0
C4226 C 0.29005 0.97592 0.73874 0.0
H4227 H 0.33023 0.96207 0.7464 0.0
H4228 H 0.3184 0.97188 0.74787 0.0
H4229 H 0.31952 0.95958 0.75725 0.0
H4230 H 0.29847 0.95871 0.76101 0.0
H4231 H 0.28649 0.972 0.77171 0.0
H4232 H 0.6195 0.80386 0.69818 0.0
H4233 H 0.60314 0.79645 0.70921 0.0
H4234 H 0.59472 0.83088 0.71936 0.0
H4235 H 0.61096 0.83844 0.70805 0.0
H4236 H 0.59938 0.79886 0.73292 0.0
H4237 H 0.56365 0.81792 0.70728 0.0
H4238 H 0.57816 0.81696 0.70183 0.0
H4239 H 0.5747 0.8277 0.71224 0.0
C4240 C 0.61409 0.8099 0.70261 0.0
C4241 C 0.61652 0.82178 0.70213 0.0
C4242 C 0.60477 0.80563 0.70898 0.0
C4243 C 0.59759 0.81311 0.71499 0.0
C4244 C 0.60001 0.82496 0.71463 0.0
H4245 H 0.53864 0.79285 0.7591 0.0
H4246 H 0.55271 0.80474 0.74835 0.0
C4247 C 0.60938 0.82926 0.70826 0.0
C4248 C 0.58787 0.80831 0.7219 0.0
H4249 H 0.55843 0.80668 0.72347 0.0
C4250 C 0.59044 0.80063 0.73089 0.0
C4251 C 0.57619 0.8107 0.71931 0.0
C4252 C 0.57293 0.8187 0.7096 0.0
C4253 C 0.58167 0.79511 0.7372 0.0
C4254 C 0.56999 0.79713 0.73433 0.0
C4255 C 0.56739 0.80512 0.72563 0.0
C4256 C 0.56052 0.79035 0.73979 0.0
C4257 C 0.585 0.78703 0.74685 0.0
C4258 C 0.55995 0.77844 0.73816 0.0
C4259 C 0.55198 0.77171 0.74423 0.0
C4260 C 0.54434 0.77674 0.75203 0.0
C4261 C 0.5444 0.78876 0.75313 0.0
C4262 C 0.55246 0.79554 0.74704 0.0
H4263 H 0.59391 0.7888 0.75001 0.0
H4264 H 0.57896 0.78769 0.7542 0.0
H4265 H 0.58465 0.77807 0.74366 0.0
H4266 H 0.56593 0.77428 0.73245 0.0
H4267 H 0.55203 0.76247 0.7431 0.0
H4268 H 0.41406 0.19203 0.70658 0.0
H4269 H 0.43086 0.20092 0.71605 0.0
H4270 H 0.42183 0.23376 0.70151 0.0
H4271 H 0.40522 0.22497 0.69181 0.0
H4272 H 0.45003 0.21487 0.70576 0.0
H4273 H 0.4236 0.23859 0.73726 0.0
H4274 H 0.41807 0.22637 0.72936 0.0
H4275 H 0.4193 0.24017 0.72244 0.0
C4276 C 0.4157 0.20112 0.70528 0.0
C4277 C 0.40818 0.20779 0.6985 0.0
C4278 C 0.4253 0.20619 0.71073 0.0
C4279 C 0.42751 0.21802 0.70958 0.0
C4280 C 0.42017 0.22465 0.70265 0.0
H4281 H 0.47312 0.26847 0.73994 0.0
H4282 H 0.45928 0.25785 0.72796 0.0
C4283 C 0.41063 0.2196 0.69717 0.0
C4284 C 0.4373 0.22356 0.71579 0.0
H4285 H 0.44348 0.24323 0.73667 0.0
C4286 C 0.44864 0.22103 0.71257 0.0
C4287 C 0.43544 0.23157 0.72466 0.0
C4288 C 0.42346 0.2343 0.72874 0.0
C4289 C 0.45817 0.22661 0.71775 0.0
C4290 C 0.4563 0.23474 0.72655 0.0
C4291 C 0.44494 0.23707 0.72987 0.0
C4292 C 0.46587 0.24108 0.73242 0.0
C4293 C 0.47012 0.224 0.71352 0.0
C4294 C 0.47443 0.23523 0.73868 0.0
C4295 C 0.48246 0.24133 0.74543 0.0
C4296 C 0.48194 0.25335 0.74617 0.0
C4297 C 0.4737 0.2592 0.73952 0.0
C4298 C 0.46578 0.25314 0.73271 0.0
H4299 H 0.46991 0.22014 0.70479 0.0
H4300 H 0.47561 0.23188 0.71327 0.0
H4301 H 0.47421 0.21775 0.71948 0.0
H4302 H 0.47455 0.22593 0.73881 0.0
H4303 H 0.48862 0.23661 0.7506 0.0
H4304 H 0.71374 0.71006 0.13061 0.0
H4305 H 0.72156 0.72032 0.11386 0.0
H4306 H 0.70096 0.69901 0.0913 0.0
H4307 H 0.69296 0.68879 0.10803 0.0
H4308 H 0.73385 0.7102 0.09498 0.0
H4309 H 0.69415 0.73256 0.08058 0.0
H4310 H 0.6958 0.72674 0.09494 0.0
H4311 H 0.69278 0.71734 0.08308 0.0
C4312 C 0.71074 0.70765 0.1221 0.0
C4313 C 0.70268 0.69861 0.12069 0.0
C4314 C 0.71528 0.71348 0.11252 0.0
C4315 C 0.71178 0.7105 0.10132 0.0
C4316 C 0.70369 0.70154 0.09986 0.0
H4317 H 0.74943 0.73253 0.03922 0.0
H4318 H 0.73798 0.72094 0.05287 0.0
C4319 C 0.6992 0.69565 0.10944 0.0
C4320 C 0.7169 0.71656 0.09121 0.0
H4321 H 0.71067 0.73487 0.06893 0.0
C4322 C 0.72877 0.71554 0.08924 0.0
C4323 C 0.71027 0.72358 0.08377 0.0
C4324 C 0.69755 0.72524 0.08568 0.0
C4325 C 0.7342 0.72137 0.08008 0.0
C4326 C 0.72758 0.72837 0.07261 0.0
C4327 C 0.7157 0.72939 0.07456 0.0
C4328 C 0.73308 0.73538 0.06334 0.0
C4329 C 0.74707 0.7203 0.07866 0.0
C4330 C 0.73369 0.74737 0.06438 0.0
C4331 C 0.74018 0.75398 0.05661 0.0
C4332 C 0.74613 0.74874 0.04755 0.0
C4333 C 0.74489 0.73681 0.04606 0.0
C4334 C 0.73844 0.73018 0.05391 0.0
H4335 H 0.7512 0.71616 0.08626 0.0
H4336 H 0.74884 0.71499 0.07098 0.0
H4337 H 0.75114 0.72888 0.07728 0.0
H4338 H 0.72959 0.75158 0.07155 0.0
H4339 H 0.74095 0.76316 0.05795 0.0
H4340 H 0.32424 0.71444 0.12815 0.0
H4341 H 0.31689 0.72535 0.11162 0.0
H4342 H 0.31513 0.69431 0.0916 0.0
H4343 H 0.32252 0.68335 0.10803 0.0
H4344 H 0.32519 0.72806 0.08888 0.0
H4345 H 0.28218 0.70649 0.08951 0.0
H4346 H 0.29228 0.70542 0.10134 0.0
H4347 H 0.29419 0.69695 0.08861 0.0
C4348 C 0.32242 0.70994 0.12019 0.0
C4349 C 0.32388 0.69798 0.11947 0.0
C4350 C 0.31818 0.71619 0.11076 0.0
C4351 C 0.31527 0.71062 0.10044 0.0
C4352 C 0.31707 0.69875 0.09956 0.0
H4353 H 0.27949 0.73589 0.03883 0.0
H4354 H 0.29141 0.72421 0.05181 0.0
C4355 C 0.32128 0.6925 0.10898 0.0
C4356 C 0.31016 0.71718 0.09068 0.0
H4357 H 0.28568 0.71964 0.07438 0.0
C4358 C 0.31656 0.72621 0.08568 0.0
C4359 C 0.29891 0.71474 0.0865 0.0
C4360 C 0.29142 0.70544 0.09181 0.0
C4361 C 0.31203 0.73286 0.07661 0.0
C4362 C 0.3007 0.73054 0.07256 0.0
C4363 C 0.29438 0.72138 0.07743 0.0
C4364 C 0.29489 0.73795 0.06386 0.0
C4365 C 0.31943 0.74226 0.0714 0.0
C4366 C 0.29305 0.74959 0.0662 0.0
C4367 C 0.28631 0.75626 0.0588 0.0
C4368 C 0.28116 0.75142 0.04892 0.0
C4369 C 0.28342 0.73989 0.04631 0.0
C4370 C 0.29016 0.7332 0.05375 0.0
H4371 H 0.32875 0.74061 0.07279 0.0
H4372 H 0.31777 0.74316 0.06201 0.0
H4373 H 0.31741 0.75054 0.07557 0.0
H4374 H 0.29641 0.75342 0.07403 0.0
H4375 H 0.28478 0.76514 0.06101 0.0
H4376 H 0.32585 0.31306 0.12783 0.0
H4377 H 0.31801 0.3025 0.11133 0.0
H4378 H 0.3056 0.33413 0.0966 0.0
H4379 H 0.31376 0.3448 0.11284 0.0
H4380 H 0.2953 0.30102 0.10462 0.0
H4381 H 0.32138 0.3198 0.06913 0.0
H4382 H 0.32527 0.32154 0.0841 0.0
H4383 H 0.31418 0.33023 0.07775 0.0
C4384 C 0.32166 0.31782 0.12098 0.0
C4385 C 0.32046 0.32982 0.12171 0.0
C4386 C 0.31711 0.31175 0.11157 0.0
C4387 C 0.31133 0.31752 0.10262 0.0
C4388 C 0.31021 0.32949 0.10326 0.0
H4389 H 0.2712 0.29205 0.04337 0.0
H4390 H 0.28134 0.30452 0.05731 0.0
C4391 C 0.31475 0.33557 0.11266 0.0
C4392 C 0.30592 0.31091 0.09299 0.0
H4393 H 0.30558 0.30773 0.06369 0.0
C4394 C 0.2976 0.30247 0.09569 0.0
C4395 C 0.30883 0.31286 0.08129 0.0
C4396 C 0.31797 0.32152 0.07786 0.0
C4397 C 0.29208 0.29597 0.08706 0.0
C4398 C 0.29509 0.2978 0.07538 0.0
C4399 C 0.30329 0.30634 0.07264 0.0
C4400 C 0.29002 0.29058 0.06604 0.0
C4401 C 0.28296 0.28728 0.09052 0.0
C4402 C 0.29193 0.27871 0.06601 0.0
C4403 C 0.2862 0.27164 0.0581 0.0
C4404 C 0.27848 0.27627 0.04997 0.0
C4405 C 0.27712 0.28825 0.04951 0.0
C4406 C 0.28286 0.29536 0.05749 0.0
H4407 H 0.27952 0.28902 0.09924 0.0
H4408 H 0.27567 0.28721 0.08427 0.0
H4409 H 0.28677 0.27859 0.09068 0.0
H4410 H 0.2976 0.27486 0.07234 0.0
H4411 H 0.28754 0.26245 0.05856 0.0
H4412 H 0.70326 0.31206 0.12856 0.0
H4413 H 0.71058 0.3014 0.11208 0.0
H4414 H 0.71064 0.33241 0.09161 0.0
H4415 H 0.70326 0.34312 0.10798 0.0
H4416 H 0.70174 0.29833 0.0895 0.0
H4417 H 0.74397 0.32142 0.08907 0.0
H4418 H 0.73419 0.32215 0.10106 0.0
H4419 H 0.73159 0.3305 0.08826 0.0
C4420 C 0.7047 0.3166 0.12052 0.0
C4421 C 0.70276 0.32849 0.11966 0.0
C4422 C 0.70893 0.3105 0.11111 0.0
C4423 C 0.71136 0.31614 0.10066 0.0
C4424 C 0.70909 0.32792 0.09966 0.0
H4425 H 0.74628 0.29165 0.03878 0.0
H4426 H 0.73447 0.30313 0.05179 0.0
C4427 C 0.70488 0.33403 0.10905 0.0
C4428 C 0.71643 0.30974 0.0909 0.0
H4429 H 0.74052 0.30808 0.07421 0.0
C4430 C 0.7102 0.30048 0.08613 0.0
C4431 C 0.72746 0.31256 0.08648 0.0
C4432 C 0.73476 0.32213 0.09152 0.0
C4433 C 0.71471 0.29397 0.07707 0.0
C4434 C 0.72584 0.29666 0.0728 0.0
C4435 C 0.73196 0.30605 0.07743 0.0
C4436 C 0.73168 0.28938 0.06414 0.0
C4437 C 0.70748 0.28432 0.07212 0.0
C4438 C 0.73389 0.27781 0.06665 0.0
C4439 C 0.74056 0.27126 0.05923 0.0
C4440 C 0.74528 0.27615 0.04917 0.0
C4441 C 0.74268 0.28761 0.04641 0.0
C4442 C 0.736 0.29419 0.05387 0.0
H4443 H 0.69814 0.2857 0.07358 0.0
H4444 H 0.70894 0.28341 0.06273 0.0
H4445 H 0.70984 0.27614 0.07643 0.0
H4446 H 0.73086 0.27394 0.0746 0.0
H4447 H 0.74236 0.26243 0.06157 0.0
H4448 H 0.6981 0.34275 0.92688 0.0
H4449 H 0.70669 0.33284 0.94348 0.0
H4450 H 0.72212 0.3084 0.9207 0.0
H4451 H 0.71372 0.31833 0.90407 0.0
H4452 H 0.70397 0.30905 0.95032 0.0
H4453 H 0.74943 0.32084 0.94064 0.0
H4454 H 0.73735 0.32828 0.93432 0.0
H4455 H 0.74159 0.31459 0.9288 0.0
C4456 C 0.70338 0.3353 0.9254 0.0
C4457 C 0.70525 0.33135 0.91414 0.0
C4458 C 0.70823 0.32962 0.9349 0.0
C4459 C 0.71517 0.31998 0.93331 0.0
C4460 C 0.71693 0.31592 0.92211 0.0
H4461 H 0.73783 0.265 0.97638 0.0
H4462 H 0.72772 0.27806 0.96334 0.0
C4463 C 0.71203 0.32154 0.91262 0.0
C4464 C 0.72046 0.31404 0.94335 0.0
H4465 H 0.74642 0.30642 0.95499 0.0
C4466 C 0.71325 0.30856 0.95141 0.0
C4467 C 0.73256 0.31355 0.94486 0.0
C4468 C 0.74071 0.31971 0.93677 0.0
C4469 C 0.71783 0.30219 0.96066 0.0
C4470 C 0.72993 0.30124 0.96184 0.0
C4471 C 0.73714 0.30712 0.95406 0.0
C4472 C 0.73528 0.29353 0.97054 0.0
C4473 C 0.70968 0.29645 0.96905 0.0
C4474 C 0.7429 0.29787 0.97896 0.0
C4475 C 0.74869 0.29039 0.98648 0.0
C4476 C 0.74708 0.27844 0.98554 0.0
C4477 C 0.73925 0.27417 0.97728 0.0
C4478 C 0.73341 0.28162 0.96987 0.0
H4479 H 0.70108 0.30054 0.96892 0.0
H4480 H 0.70849 0.2873 0.96663 0.0
H4481 H 0.71321 0.29675 0.97795 0.0
H4482 H 0.74453 0.30704 0.97957 0.0
H4483 H 0.75475 0.29391 0.9927 0.0
H4484 H 0.71609 0.69838 0.90431 0.0
H4485 H 0.72725 0.70546 0.92081 0.0
H4486 H 0.69574 0.71259 0.93877 0.0
H4487 H 0.68453 0.70517 0.92249 0.0
H4488 H 0.72691 0.72729 0.9297 0.0
H4489 H 0.71413 0.69577 0.96345 0.0
H4490 H 0.71153 0.69331 0.94831 0.0
H4491 H 0.70219 0.70249 0.95631 0.0
C4492 C 0.71152 0.70123 0.91185 0.0
C4493 C 0.69938 0.70117 0.91203 0.0
C4494 C 0.71792 0.70535 0.92127 0.0
C4495 C 0.71236 0.70943 0.93112 0.0
C4496 C 0.70026 0.70929 0.93138 0.0
H4497 H 0.73634 0.74653 0.99214 0.0
H4498 H 0.72476 0.73556 0.97808 0.0
C4499 C 0.69384 0.70518 0.92197 0.0
C4500 C 0.71922 0.71449 0.94079 0.0
H4501 H 0.72464 0.71232 0.96974 0.0
C4502 C 0.72646 0.72395 0.93843 0.0
C4503 C 0.71857 0.71021 0.95223 0.0
C4504 C 0.71127 0.69982 0.95525 0.0
C4505 C 0.73295 0.72934 0.94717 0.0
C4506 C 0.73238 0.72503 0.95859 0.0
C4507 C 0.72509 0.71561 0.96099 0.0
C4508 C 0.7394 0.73024 0.96805 0.0
C4509 C 0.74017 0.73979 0.94412 0.0
C4510 C 0.75148 0.73042 0.9674 0.0
C4511 C 0.75807 0.73664 0.97539 0.0
C4512 C 0.75274 0.74275 0.98427 0.0
C4513 C 0.74069 0.74187 0.98543 0.0
C4514 C 0.73407 0.73566 0.97737 0.0
H4515 H 0.73737 0.74374 0.93584 0.0
H4516 H 0.73974 0.74638 0.95097 0.0
H4517 H 0.7493 0.73723 0.9432 0.0
H4518 H 0.7558 0.72609 0.96045 0.0
H4519 H 0.76734 0.73706 0.97436 0.0
H4520 H 0.33372 0.69244 0.92566 0.0
H4521 H 0.32361 0.69958 0.9426 0.0
H4522 H 0.30313 0.7215 0.92077 0.0
H4523 H 0.31302 0.71426 0.9038 0.0
H4524 H 0.32286 0.7224 0.95014 0.0
H4525 H 0.27885 0.70553 0.94115 0.0
H4526 H 0.29147 0.7002 0.93399 0.0
H4527 H 0.28499 0.71338 0.92927 0.0
C4528 C 0.32693 0.69864 0.92444 0.0
C4529 C 0.32418 0.70276 0.91335 0.0
C4530 C 0.3212 0.70275 0.93415 0.0
C4531 C 0.3125 0.71097 0.93296 0.0
C4532 C 0.30966 0.71501 0.9219 0.0
H4533 H 0.28574 0.76269 0.97599 0.0
H4534 H 0.29662 0.75049 0.96306 0.0
C4535 C 0.31542 0.71096 0.91221 0.0
C4536 C 0.30682 0.7158 0.94328 0.0
H4537 H 0.28043 0.72045 0.95523 0.0
C4538 C 0.3136 0.72184 0.95134 0.0
C4539 C 0.29475 0.71494 0.94495 0.0
C4540 C 0.28709 0.70807 0.93695 0.0
C4541 C 0.30858 0.72752 0.96067 0.0
C4542 C 0.29645 0.72725 0.96194 0.0
C4543 C 0.28972 0.72073 0.95422 0.0
C4544 C 0.29052 0.73448 0.97054 0.0
C4545 C 0.31629 0.73394 0.969 0.0
C4546 C 0.28343 0.72956 0.97908 0.0
C4547 C 0.27719 0.73657 0.98655 0.0
C4548 C 0.2778 0.74859 0.98544 0.0
C4549 C 0.28509 0.75345 0.97703 0.0
C4550 C 0.29137 0.74648 0.96968 0.0
H4551 H 0.32522 0.73058 0.96894 0.0
H4552 H 0.31669 0.74314 0.96646 0.0
H4553 H 0.31289 0.73335 0.97791 0.0
H4554 H 0.28259 0.72031 0.97984 0.0
H4555 H 0.27156 0.73261 0.99288 0.0
H4556 H 0.33377 0.33317 0.92395 0.0
H4557 H 0.32661 0.32323 0.94122 0.0
H4558 H 0.30278 0.30361 0.92029 0.0
H4559 H 0.31005 0.31329 0.903 0.0
H4560 H 0.3042 0.32307 0.94972 0.0
H4561 H 0.31792 0.27879 0.94013 0.0
H4562 H 0.32367 0.29121 0.93262 0.0
H4563 H 0.30986 0.28522 0.92857 0.0
C4564 C 0.32714 0.32659 0.923 0.0
C4565 C 0.3225 0.32403 0.91206 0.0
C4566 C 0.32301 0.32097 0.93289 0.0
C4567 C 0.31426 0.31256 0.93205 0.0
C4568 C 0.30968 0.30991 0.92115 0.0
H4569 H 0.26263 0.28764 0.97784 0.0
H4570 H 0.27495 0.29834 0.96446 0.0
C4571 C 0.31376 0.31556 0.91127 0.0
C4572 C 0.30946 0.30695 0.94258 0.0
H4573 H 0.30357 0.28072 0.95475 0.0
C4574 C 0.3042 0.31382 0.9509 0.0
C4575 C 0.30959 0.29489 0.94424 0.0
C4576 C 0.31567 0.28709 0.93598 0.0
C4577 C 0.29859 0.30893 0.96049 0.0
C4578 C 0.2981 0.29683 0.96175 0.0
C4579 C 0.30386 0.28999 0.95376 0.0
C4580 C 0.2909 0.29108 0.97072 0.0
C4581 C 0.2931 0.31677 0.96911 0.0
C4582 C 0.29573 0.28339 0.97875 0.0
C4583 C 0.28866 0.27723 0.98646 0.0
C4584 C 0.27662 0.27853 0.98613 0.0
C4585 C 0.27188 0.28646 0.97829 0.0
C4586 C 0.27892 0.29264 0.97068 0.0
H4587 H 0.29721 0.32544 0.96901 0.0
H4588 H 0.28385 0.31778 0.96689 0.0
H4589 H 0.2937 0.31317 0.97797 0.0
H4590 H 0.30494 0.28198 0.97888 0.0
H4591 H 0.29253 0.2711 0.99232 0.0
H4592 H 0.60862 0.69092 0.20478 0.0
H4593 H 0.59176 0.69899 0.21432 0.0
H4594 H 0.60515 0.73319 0.20826 0.0
H4595 H 0.622 0.72525 0.19883 0.0
H4596 H 0.59017 0.71311 0.23349 0.0
H4597 H 0.57264 0.73521 0.19498 0.0
H4598 H 0.58366 0.72445 0.19408 0.0
H4599 H 0.58742 0.739 0.19786 0.0
C4600 C 0.60802 0.70016 0.20554 0.0
C4601 C 0.61664 0.70742 0.2009 0.0
C4602 C 0.59834 0.70476 0.21095 0.0
C4603 C 0.59704 0.71671 0.21178 0.0
C4604 C 0.60577 0.72395 0.20743 0.0
H4605 H 0.55514 0.76659 0.24412 0.0
H4606 H 0.56836 0.75543 0.23243 0.0
C4607 C 0.61542 0.71938 0.20204 0.0
C4608 C 0.58673 0.72168 0.2174 0.0
H4609 H 0.56502 0.7409 0.21316 0.0
C4610 C 0.58456 0.71905 0.22901 0.0
C4611 C 0.57936 0.72941 0.21153 0.0
C4612 C 0.5808 0.7321 0.19889 0.0
C4613 C 0.57561 0.72436 0.23506 0.0
C4614 C 0.56851 0.7324 0.22929 0.0
C4615 C 0.57046 0.73475 0.21759 0.0
C4616 C 0.55968 0.73914 0.23549 0.0
C4617 C 0.57417 0.72174 0.24771 0.0
C4618 C 0.55013 0.73378 0.24077 0.0
C4619 C 0.54251 0.74019 0.24746 0.0
C4620 C 0.54434 0.75205 0.249 0.0
C4621 C 0.55356 0.75745 0.24319 0.0
C4622 C 0.56112 0.75108 0.23649 0.0
H4623 H 0.58164 0.71703 0.25134 0.0
H4624 H 0.57308 0.72978 0.25266 0.0
H4625 H 0.56632 0.71634 0.24895 0.0
H4626 H 0.54873 0.72461 0.23996 0.0
H4627 H 0.53551 0.73578 0.25185 0.0
H4628 H 0.31186 0.62427 0.20489 0.0
H4629 H 0.30099 0.6076 0.21216 0.0
H4630 H 0.33232 0.58814 0.21404 0.0
H4631 H 0.34325 0.60473 0.20673 0.0
H4632 H 0.2986 0.58485 0.20383 0.0
H4633 H 0.31973 0.58585 0.2469 0.0
H4634 H 0.32079 0.59767 0.23681 0.0
H4635 H 0.32945 0.58513 0.23495 0.0
C4636 C 0.31643 0.61641 0.20672 0.0
C4637 C 0.32846 0.61589 0.20532 0.0
C4638 C 0.3102 0.60689 0.21091 0.0
C4639 C 0.31587 0.59668 0.21382 0.0
C4640 C 0.3278 0.59601 0.21209 0.0
H4641 H 0.29081 0.53488 0.24958 0.0
H4642 H 0.30248 0.54797 0.23762 0.0
C4643 C 0.33404 0.60552 0.20792 0.0
C4644 C 0.30932 0.58684 0.2189 0.0
H4645 H 0.30673 0.57054 0.24334 0.0
C4646 C 0.30038 0.5817 0.21246 0.0
C4647 C 0.31168 0.58271 0.23015 0.0
C4648 C 0.32086 0.58817 0.23767 0.0
C4649 C 0.29375 0.57253 0.21696 0.0
C4650 C 0.29599 0.56853 0.22828 0.0
C4651 C 0.30506 0.57355 0.23463 0.0
C4652 C 0.28859 0.55972 0.23405 0.0
C4653 C 0.28446 0.56717 0.20951 0.0
C4654 C 0.27685 0.56185 0.23583 0.0
C4655 C 0.27018 0.55438 0.2426 0.0
C4656 C 0.27511 0.54465 0.24781 0.0
C4657 C 0.28673 0.54223 0.24558 0.0
C4658 C 0.29342 0.54975 0.23882 0.0
H4659 H 0.28622 0.56859 0.20021 0.0
H4660 H 0.28364 0.55779 0.21117 0.0
H4661 H 0.27609 0.57119 0.21149 0.0
H4662 H 0.27295 0.56958 0.23244 0.0
H4663 H 0.26123 0.55644 0.24411 0.0
H4664 H 0.39901 0.31131 0.21337 0.0
H4665 H 0.41564 0.3029 0.22322 0.0
H4666 H 0.4386 0.3215 0.20056 0.0
H4667 H 0.42202 0.33012 0.19078 0.0
H4668 H 0.4333 0.28929 0.21322 0.0
H4669 H 0.45098 0.32907 0.23329 0.0
H4670 H 0.4364 0.32803 0.22781 0.0
H4671 H 0.44824 0.32983 0.21805 0.0
C4672 C 0.40759 0.31375 0.21057 0.0
C4673 C 0.40915 0.32144 0.2013 0.0
C4674 C 0.41709 0.30886 0.21616 0.0
C4675 C 0.42838 0.31164 0.2127 0.0
C4676 C 0.42999 0.31933 0.20348 0.0
H4677 H 0.48865 0.27161 0.2357 0.0
H4678 H 0.47521 0.28246 0.2234 0.0
C4679 C 0.42048 0.32418 0.19783 0.0
C4680 C 0.4384 0.30626 0.21862 0.0
H4681 H 0.4617 0.31213 0.2359 0.0
C4682 C 0.43956 0.29428 0.21811 0.0
C4683 C 0.44652 0.31279 0.22506 0.0
C4684 C 0.44549 0.32563 0.2262 0.0
C4685 C 0.44855 0.28864 0.22395 0.0
C4686 C 0.45667 0.29517 0.2304 0.0
C4687 C 0.45556 0.30716 0.23083 0.0
C4688 C 0.4657 0.28957 0.2376 0.0
C4689 C 0.44904 0.27571 0.22353 0.0
C4690 C 0.46511 0.29034 0.24963 0.0
C4691 C 0.47276 0.28422 0.25662 0.0
C4692 C 0.48123 0.27724 0.25175 0.0
C4693 C 0.48224 0.27695 0.23969 0.0
C4694 C 0.4745 0.28305 0.23267 0.0
H4695 H 0.441 0.27185 0.21989 0.0
H4696 H 0.45635 0.27314 0.21803 0.0
H4697 H 0.45048 0.27208 0.23227 0.0
H4698 H 0.45845 0.29535 0.25364 0.0
H4699 H 0.47184 0.28468 0.26588 0.0
H4700 H 0.71545 0.40281 0.20461 0.0
H4701 H 0.72606 0.41961 0.2119 0.0
H4702 H 0.69433 0.43836 0.21387 0.0
H4703 H 0.68367 0.42166 0.20651 0.0
H4704 H 0.72779 0.44264 0.20365 0.0
H4705 H 0.70735 0.44032 0.24678 0.0
H4706 H 0.70647 0.42865 0.23664 0.0
H4707 H 0.69744 0.44097 0.23485 0.0
C4708 C 0.71073 0.41055 0.20645 0.0
C4709 C 0.69867 0.41082 0.20507 0.0
C4710 C 0.71681 0.42014 0.21067 0.0
C4711 C 0.71097 0.43018 0.21362 0.0
C4712 C 0.69899 0.43062 0.21189 0.0
H4713 H 0.73507 0.49184 0.24993 0.0
H4714 H 0.72349 0.47871 0.23793 0.0
C4715 C 0.69291 0.42105 0.20769 0.0
C4716 C 0.71736 0.44009 0.21875 0.0
H4717 H 0.71993 0.456 0.24329 0.0
C4718 C 0.72606 0.44558 0.21231 0.0
C4719 C 0.71508 0.44396 0.23003 0.0
C4720 C 0.70615 0.43813 0.23754 0.0
C4721 C 0.73252 0.45484 0.21684 0.0
C4722 C 0.73037 0.45858 0.2282 0.0
C4723 C 0.72153 0.4532 0.23456 0.0
C4724 C 0.73765 0.46748 0.23401 0.0
C4725 C 0.74152 0.46059 0.20938 0.0
C4726 C 0.74949 0.46568 0.23562 0.0
C4727 C 0.75611 0.47319 0.2424 0.0
C4728 C 0.75101 0.48262 0.24782 0.0
C4729 C 0.73926 0.48473 0.24577 0.0
C4730 C 0.73263 0.47718 0.23899 0.0
H4731 H 0.73959 0.45937 0.20008 0.0
H4732 H 0.74218 0.46994 0.21114 0.0
H4733 H 0.75003 0.45671 0.21121 0.0
H4734 H 0.75354 0.45816 0.23208 0.0
H4735 H 0.76515 0.47135 0.24377 0.0
H4736 H 0.60606 0.31885 0.84678 0.0
H4737 H 0.59011 0.31106 0.8352 0.0
H4738 H 0.60918 0.31835 0.8042 0.0
H4739 H 0.6253 0.32583 0.8157 0.0
H4740 H 0.57666 0.32112 0.81725 0.0
H4741 H 0.60157 0.28384 0.80192 0.0
H4742 H 0.6063 0.2926 0.81385 0.0
H4743 H 0.60836 0.29755 0.79931 0.0
C4744 C 0.6069 0.31874 0.8375 0.0
C4745 C 0.61704 0.32288 0.83219 0.0
C4746 C 0.59773 0.31437 0.83089 0.0
C4747 C 0.59851 0.31398 0.81885 0.0
C4748 C 0.60845 0.31841 0.8135 0.0
H4749 H 0.55733 0.28424 0.76412 0.0
H4750 H 0.57095 0.29564 0.7756 0.0
C4751 C 0.61763 0.32279 0.82009 0.0
C4752 C 0.58907 0.30866 0.81191 0.0
H4753 H 0.5832 0.28657 0.7935 0.0
C4754 C 0.57806 0.31355 0.81207 0.0
C4755 C 0.59091 0.29876 0.8052 0.0
C4756 C 0.60239 0.29279 0.8051 0.0
C4757 C 0.5689 0.30894 0.80546 0.0
C4758 C 0.57078 0.29909 0.79869 0.0
C4759 C 0.58178 0.29417 0.79863 0.0
C4760 C 0.56155 0.29362 0.79154 0.0
C4761 C 0.55739 0.31482 0.8056 0.0
C4762 C 0.55155 0.28893 0.79661 0.0
C4763 C 0.54369 0.28245 0.79001 0.0
C4764 C 0.54579 0.28043 0.77829 0.0
C4765 C 0.55552 0.28559 0.77315 0.0
C4766 C 0.56332 0.2921 0.77971 0.0
H4767 H 0.55819 0.32381 0.80867 0.0
H4768 H 0.55338 0.31486 0.79689 0.0
H4769 H 0.55152 0.31009 0.81152 0.0
H4770 H 0.5501 0.28979 0.80576 0.0
H4771 H 0.53633 0.27846 0.79422 0.0
H4772 H 0.69705 0.60269 0.8423 0.0
H4773 H 0.70574 0.58634 0.83257 0.0
H4774 H 0.72351 0.60958 0.8095 0.0
H4775 H 0.71506 0.62597 0.81931 0.0
H4776 H 0.7044 0.57977 0.80917 0.0
H4777 H 0.74951 0.58934 0.82248 0.0
H4778 H 0.73726 0.59583 0.82929 0.0
H4779 H 0.74237 0.6012 0.81567 0.0
C4780 C 0.70287 0.60433 0.83521 0.0
C4781 C 0.70539 0.61568 0.83164 0.0
C4782 C 0.70779 0.59497 0.82962 0.0
C4783 C 0.71542 0.59672 0.82042 0.0
C4784 C 0.7178 0.60801 0.8167 0.0
H4785 H 0.73895 0.55314 0.76649 0.0
H4786 H 0.72866 0.56625 0.77903 0.0
C4787 C 0.71285 0.61738 0.82224 0.0
C4788 C 0.72081 0.58678 0.81461 0.0
H4789 H 0.74685 0.57522 0.80789 0.0
C4790 C 0.71368 0.57872 0.80897 0.0
C4791 C 0.7329 0.58528 0.8145 0.0
C4792 C 0.74097 0.5933 0.8209 0.0
C4793 C 0.71834 0.56949 0.80284 0.0
C4794 C 0.73046 0.56833 0.80226 0.0
C4795 C 0.73757 0.57613 0.80828 0.0
C4796 C 0.73597 0.55958 0.79486 0.0
C4797 C 0.71025 0.56108 0.79702 0.0
C4798 C 0.74355 0.55143 0.79955 0.0
C4799 C 0.74947 0.54388 0.79236 0.0
C4800 C 0.74805 0.5445 0.78033 0.0
C4801 C 0.74024 0.55248 0.77572 0.0
C4802 C 0.73429 0.55993 0.78288 0.0
H4803 H 0.70157 0.56108 0.80101 0.0
H4804 H 0.70924 0.56358 0.78783 0.0
H4805 H 0.71369 0.55223 0.79739 0.0
H4806 H 0.74504 0.55106 0.80876 0.0
H4807 H 0.75551 0.53791 0.79615 0.0
H4808 H 0.4005 0.71565 0.82937 0.0
H4809 H 0.41723 0.72648 0.82214 0.0
H4810 H 0.43717 0.69549 0.82215 0.0
H4811 H 0.42055 0.68462 0.82947 0.0
H4812 H 0.44018 0.72925 0.831 0.0
H4813 H 0.43947 0.70716 0.7887 0.0
H4814 H 0.42751 0.7064 0.79856 0.0
H4815 H 0.44005 0.69781 0.80105 0.0
C4816 C 0.40848 0.71115 0.82799 0.0
C4817 C 0.40911 0.69922 0.8299 0.0
C4818 C 0.41803 0.71735 0.82381 0.0
C4819 C 0.42839 0.71176 0.82142 0.0
C4820 C 0.42919 0.69994 0.8237 0.0
H4821 H 0.49038 0.73603 0.7855 0.0
H4822 H 0.47722 0.72462 0.79762 0.0
C4823 C 0.41966 0.69374 0.82786 0.0
C4824 C 0.43826 0.71823 0.81627 0.0
H4825 H 0.45472 0.72031 0.79202 0.0
C4826 C 0.44338 0.72729 0.82248 0.0
C4827 C 0.44247 0.71564 0.80518 0.0
C4828 C 0.43706 0.70629 0.79791 0.0
C4829 C 0.45261 0.7338 0.81791 0.0
C4830 C 0.45668 0.73134 0.80673 0.0
C4831 C 0.45167 0.72216 0.80061 0.0
C4832 C 0.46556 0.7386 0.80085 0.0
C4833 C 0.45797 0.74319 0.82516 0.0
C4834 C 0.46354 0.7503 0.79881 0.0
C4835 C 0.47107 0.75683 0.79197 0.0
C4836 C 0.48075 0.75179 0.7869 0.0
C4837 C 0.48307 0.7402 0.78937 0.0
C4838 C 0.47551 0.73365 0.79623 0.0
H4839 H 0.4566 0.74155 0.83449 0.0
H4840 H 0.46737 0.74405 0.82355 0.0
H4841 H 0.45386 0.75148 0.82295 0.0
H4842 H 0.45584 0.75429 0.80207 0.0
H4843 H 0.46907 0.76575 0.79028 0.0
H4844 H 0.31661 0.3972 0.81154 0.0
H4845 H 0.30692 0.41424 0.80404 0.0
H4846 H 0.32463 0.4352 0.82917 0.0
H4847 H 0.33458 0.41821 0.83658 0.0
H4848 H 0.2925 0.43014 0.81526 0.0
H4849 H 0.33228 0.45113 0.79821 0.0
H4850 H 0.33172 0.43616 0.80234 0.0
H4851 H 0.33266 0.44708 0.81317 0.0
C4852 C 0.31851 0.40543 0.81545 0.0
C4853 C 0.32647 0.40632 0.82461 0.0
C4854 C 0.31289 0.41517 0.81119 0.0
C4855 C 0.31514 0.42604 0.81594 0.0
C4856 C 0.32287 0.42694 0.82526 0.0
H4857 H 0.27284 0.48582 0.79554 0.0
H4858 H 0.28371 0.47218 0.80758 0.0
C4859 C 0.32847 0.41719 0.82956 0.0
C4860 C 0.30948 0.43638 0.81095 0.0
H4861 H 0.31489 0.46113 0.79578 0.0
C4862 C 0.2974 0.43698 0.8111 0.0
C4863 C 0.31588 0.44526 0.80544 0.0
C4864 C 0.32885 0.4449 0.80466 0.0
C4865 C 0.29153 0.44609 0.80574 0.0
C4866 C 0.29792 0.45494 0.80016 0.0
C4867 C 0.31001 0.45443 0.80017 0.0
C4868 C 0.29217 0.46407 0.79325 0.0
C4869 C 0.27852 0.44594 0.80566 0.0
C4870 C 0.29367 0.46437 0.78127 0.0
C4871 C 0.28754 0.47214 0.77444 0.0
C4872 C 0.27981 0.47987 0.77941 0.0
C4873 C 0.27876 0.48 0.79147 0.0
C4874 C 0.28487 0.47214 0.79833 0.0
H4875 H 0.2749 0.43755 0.8086 0.0
H4876 H 0.27536 0.45271 0.8115 0.0
H4877 H 0.27515 0.4478 0.79688 0.0
H4878 H 0.29929 0.4583 0.77714 0.0
H4879 H 0.28861 0.4719 0.76518 0.0
H4880 H 0.69956 0.61082 0.19429 0.0
H4881 H 0.70924 0.59395 0.20236 0.0
H4882 H 0.70197 0.60564 0.23667 0.0
H4883 H 0.69237 0.62248 0.22873 0.0
H4884 H 0.72807 0.59228 0.21705 0.0
H4885 H 0.68954 0.57283 0.23768 0.0
H4886 H 0.68858 0.58425 0.22715 0.0
H4887 H 0.69203 0.58745 0.24192 0.0
C4888 C 0.70007 0.60984 0.20356 0.0
C4889 C 0.69505 0.61798 0.21084 0.0
C4890 C 0.70556 0.60014 0.20816 0.0
C4891 C 0.70611 0.59836 0.22013 0.0
C4892 C 0.70136 0.60662 0.22741 0.0
H4893 H 0.73858 0.55528 0.27012 0.0
H4894 H 0.72677 0.56863 0.25896 0.0
C4895 C 0.69588 0.61628 0.22284 0.0
C4896 C 0.71189 0.58806 0.2251 0.0
H4897 H 0.70782 0.56554 0.24377 0.0
C4898 C 0.7236 0.58633 0.22276 0.0
C4899 C 0.70606 0.58025 0.23253 0.0
C4900 C 0.69333 0.5812 0.23489 0.0
C4901 C 0.72977 0.57737 0.22806 0.0
C4902 C 0.72402 0.56981 0.23579 0.0
C4903 C 0.71223 0.57133 0.23786 0.0
C4904 C 0.73031 0.56087 0.2425 0.0
C4905 C 0.74251 0.5764 0.22576 0.0
C4906 C 0.73591 0.55177 0.23702 0.0
C4907 C 0.74267 0.54407 0.24343 0.0
C4908 C 0.74397 0.54537 0.2554 0.0
C4909 C 0.73784 0.55412 0.2609 0.0
C4910 C 0.73107 0.56175 0.25452 0.0
H4911 H 0.74606 0.58416 0.22136 0.0
H4912 H 0.74736 0.57505 0.23392 0.0
H4913 H 0.74399 0.56888 0.22016 0.0
H4914 H 0.73528 0.55079 0.22777 0.0
H4915 H 0.74731 0.53745 0.23895 0.0
H4916 H 0.68124 0.41802 0.81746 0.0
H4917 H 0.6922 0.43405 0.80903 0.0
H4918 H 0.72358 0.42046 0.82341 0.0
H4919 H 0.71278 0.40418 0.83151 0.0
H4920 H 0.70643 0.45097 0.81891 0.0
H4921 H 0.73101 0.42346 0.78919 0.0
H4922 H 0.71844 0.4183 0.79681 0.0
H4923 H 0.73218 0.41922 0.80403 0.0
C4924 C 0.69049 0.41838 0.81876 0.0
C4925 C 0.69613 0.40971 0.82507 0.0
C4926 C 0.69673 0.42761 0.81401 0.0
C4927 C 0.70873 0.42836 0.81542 0.0
C4928 C 0.71435 0.41995 0.82203 0.0
H4929 H 0.7638 0.47234 0.7913 0.0
H4930 H 0.7513 0.45882 0.80167 0.0
C4931 C 0.70813 0.4107 0.82677 0.0
C4932 C 0.71542 0.43779 0.80978 0.0
H4933 H 0.73703 0.44295 0.79051 0.0
C4934 C 0.71309 0.44924 0.81266 0.0
C4935 C 0.72403 0.43552 0.80155 0.0
C4936 C 0.72651 0.42347 0.79761 0.0
C4937 C 0.71941 0.45845 0.80779 0.0
C4938 C 0.72817 0.45614 0.79974 0.0
C4939 C 0.73036 0.44471 0.79675 0.0
C4940 C 0.73543 0.46534 0.79445 0.0
C4941 C 0.71688 0.47054 0.81152 0.0
C4942 C 0.73065 0.47369 0.78709 0.0
C4943 C 0.73781 0.48148 0.78114 0.0
C4944 C 0.74986 0.48094 0.78236 0.0
C4945 C 0.75455 0.47288 0.79009 0.0
C4946 C 0.74742 0.46516 0.79603 0.0
H4947 H 0.71175 0.47068 0.81957 0.0
H4948 H 0.72501 0.4755 0.81291 0.0
H4949 H 0.71187 0.47492 0.80466 0.0
H4950 H 0.72143 0.47387 0.78559 0.0
H4951 H 0.73397 0.48752 0.77516 0.0
H4952 H 0.62159 0.69363 0.80504 0.0
H4953 H 0.60457 0.70335 0.79753 0.0
H4954 H 0.59299 0.7093 0.83216 0.0
H4955 H 0.61001 0.69949 0.83978 0.0
H4956 H 0.58136 0.69766 0.80069 0.0
H4957 H 0.59124 0.74131 0.81754 0.0
H4958 H 0.6019 0.73016 0.81709 0.0
H4959 H 0.5911 0.72997 0.82811 0.0
C4960 C 0.61541 0.69695 0.81109 0.0
C4961 C 0.6172 0.69573 0.82304 0.0
C4962 C 0.60569 0.70255 0.80676 0.0
C4963 C 0.59752 0.70716 0.81425 0.0
C4964 C 0.59927 0.70602 0.82619 0.0
H4965 H 0.5363 0.74785 0.79603 0.0
H4966 H 0.54971 0.73568 0.80701 0.0
C4967 C 0.60902 0.7004 0.83054 0.0
C4968 C 0.58713 0.71295 0.80946 0.0
H4969 H 0.57368 0.73887 0.80749 0.0
C4970 C 0.57966 0.70666 0.80223 0.0
C4971 C 0.58483 0.72467 0.81151 0.0
C4972 C 0.59272 0.73198 0.81891 0.0
C4973 C 0.57008 0.71179 0.79688 0.0
C4974 C 0.56799 0.7236 0.79864 0.0
C4975 C 0.57525 0.72981 0.80616 0.0
C4976 C 0.55897 0.7299 0.79204 0.0
C4977 C 0.5623 0.7045 0.78937 0.0
C4978 C 0.55959 0.73057 0.77998 0.0
C4979 C 0.55197 0.73747 0.77374 0.0
C4980 C 0.54355 0.74391 0.7794 0.0
C4981 C 0.54261 0.74288 0.79143 0.0
C4982 C 0.55032 0.73601 0.79771 0.0
H4983 H 0.56276 0.69527 0.79178 0.0
H4984 H 0.55319 0.70726 0.78994 0.0
H4985 H 0.56508 0.70538 0.78028 0.0
H4986 H 0.5663 0.72613 0.77541 0.0
H4987 H 0.55292 0.73809 0.76448 0.0
H4988 H 0.33368 0.60546 0.83833 0.0
H4989 H 0.32693 0.58833 0.82797 0.0
H4990 H 0.30189 0.60873 0.80976 0.0
H4991 H 0.30873 0.62589 0.81987 0.0
H4992 H 0.30466 0.57871 0.82816 0.0
H4993 H 0.31735 0.59094 0.7838 0.0
H4994 H 0.32313 0.59809 0.79638 0.0
H4995 H 0.30912 0.60176 0.79086 0.0
C4996 C 0.32687 0.60634 0.83198 0.0
C4997 C 0.32176 0.61707 0.82993 0.0
C4998 C 0.32297 0.59652 0.82611 0.0
C4999 C 0.314 0.59726 0.81797 0.0
C5000 C 0.30896 0.60797 0.81584 0.0
H5001 H 0.26324 0.55075 0.79237 0.0
H5002 H 0.27542 0.56406 0.80335 0.0
C5003 C 0.3128 0.61776 0.82173 0.0
C5004 C 0.30946 0.58678 0.81212 0.0
H5005 H 0.30351 0.57557 0.78558 0.0
C5006 C 0.30455 0.57795 0.81885 0.0
C5007 C 0.30946 0.58568 0.79999 0.0
C5008 C 0.31515 0.59457 0.79233 0.0
C5009 C 0.29912 0.56836 0.81376 0.0
C5010 C 0.29849 0.56762 0.80161 0.0
C5011 C 0.30392 0.57616 0.79489 0.0
C5012 C 0.29141 0.55865 0.79571 0.0
C5013 C 0.29396 0.55917 0.82143 0.0
C5014 C 0.29633 0.55113 0.78773 0.0
C5015 C 0.28934 0.54345 0.78143 0.0
C5016 C 0.27732 0.54333 0.78288 0.0
C5017 C 0.27249 0.55066 0.79108 0.0
C5018 C 0.27945 0.55822 0.79741 0.0
H5019 H 0.29813 0.55911 0.83007 0.0
H5020 H 0.28466 0.56088 0.82262 0.0
H5021 H 0.29479 0.55053 0.81754 0.0
H5022 H 0.30553 0.55138 0.78621 0.0
H5023 H 0.29327 0.53799 0.77508 0.0
H5024 H 0.41813 0.31299 0.84733 0.0
H5025 H 0.43488 0.30553 0.83727 0.0
H5026 H 0.42177 0.31902 0.80519 0.0
H5027 H 0.40491 0.32642 0.81516 0.0
H5028 H 0.43507 0.2896 0.81975 0.0
H5029 H 0.45516 0.33052 0.80502 0.0
H5030 H 0.44417 0.32994 0.81597 0.0
H5031 H 0.44025 0.329 0.80099 0.0
C5032 C 0.41877 0.31437 0.83812 0.0
C5033 C 0.4101 0.32031 0.83207 0.0
C5034 C 0.42841 0.31014 0.8324 0.0
C5035 C 0.42969 0.31182 0.82049 0.0
C5036 C 0.42113 0.31783 0.81442 0.0
H5037 H 0.47265 0.28803 0.76611 0.0
H5038 H 0.45941 0.29792 0.77882 0.0
C5039 C 0.41147 0.32207 0.82014 0.0
C5040 C 0.43966 0.30676 0.81435 0.0
H5041 H 0.46228 0.31336 0.79664 0.0
C5042 C 0.44111 0.29481 0.81481 0.0
C5043 C 0.44755 0.31355 0.8079 0.0
C5044 C 0.4468 0.32648 0.8075 0.0
C5045 C 0.44991 0.28941 0.80864 0.0
C5046 C 0.45767 0.29618 0.80201 0.0
C5047 C 0.45637 0.30817 0.80175 0.0
C5048 C 0.46657 0.29091 0.79455 0.0
C5049 C 0.45052 0.27647 0.8089 0.0
C5050 C 0.47532 0.28394 0.79916 0.0
C5051 C 0.48294 0.27821 0.79186 0.0
C5052 C 0.48192 0.27936 0.77984 0.0
C5053 C 0.47355 0.28683 0.77533 0.0
C5054 C 0.46599 0.29253 0.78259 0.0
H5055 H 0.44249 0.27246 0.81234 0.0
H5056 H 0.45204 0.27305 0.80014 0.0
H5057 H 0.4578 0.27383 0.81452 0.0
H5058 H 0.47609 0.28274 0.80839 0.0
H5059 H 0.48928 0.27253 0.7956 0.0
H5060 H 0.32569 0.4168 0.19431 0.0
H5061 H 0.31619 0.4337 0.2022 0.0
H5062 H 0.32334 0.42164 0.23664 0.0
H5063 H 0.33274 0.40476 0.22888 0.0
H5064 H 0.29737 0.43539 0.21674 0.0
H5065 H 0.33617 0.45435 0.23755 0.0
H5066 H 0.33697 0.44302 0.22704 0.0
H5067 H 0.33357 0.4397 0.24181 0.0
C5068 C 0.32518 0.4177 0.20356 0.0
C5069 C 0.33011 0.40944 0.21094 0.0
C5070 C 0.3198 0.42742 0.20806 0.0
C5071 C 0.31928 0.4291 0.22002 0.0
C5072 C 0.32393 0.42073 0.22739 0.0
H5073 H 0.2873 0.47171 0.26965 0.0
H5074 H 0.29905 0.45851 0.25855 0.0
C5075 C 0.3293 0.41105 0.22292 0.0
C5076 C 0.31362 0.43942 0.22488 0.0
H5077 H 0.31798 0.46175 0.24348 0.0
C5078 C 0.30191 0.44126 0.22245 0.0
C5079 C 0.31956 0.44712 0.2323 0.0
C5080 C 0.33229 0.44604 0.23475 0.0
C5081 C 0.29585 0.45022 0.22768 0.0
C5082 C 0.3017 0.45767 0.23542 0.0
C5083 C 0.31349 0.45604 0.23756 0.0
C5084 C 0.29551 0.46655 0.24209 0.0
C5085 C 0.2831 0.45131 0.2253 0.0
C5086 C 0.28995 0.47577 0.23659 0.0
C5087 C 0.28324 0.48339 0.24295 0.0
C5088 C 0.28194 0.48189 0.25491 0.0
C5089 C 0.28804 0.47303 0.26043 0.0
C5090 C 0.29477 0.46548 0.2541 0.0
H5091 H 0.27947 0.44364 0.22085 0.0
H5092 H 0.27831 0.45256 0.23344 0.0
H5093 H 0.28164 0.45893 0.21972 0.0
H5094 H 0.29056 0.47689 0.22735 0.0
H5095 H 0.27861 0.4901 0.23846 0.0
H5096 H 0.62723 0.30815 0.21193 0.0
H5097 H 0.61016 0.3007 0.22192 0.0
H5098 H 0.58955 0.32716 0.20624 0.0
H5099 H 0.60657 0.33454 0.19602 0.0
H5100 H 0.59493 0.31205 0.23741 0.0
H5101 H 0.57254 0.29672 0.19776 0.0
H5102 H 0.58773 0.30031 0.19805 0.0
H5103 H 0.57723 0.3115 0.19777 0.0
C5104 C 0.61906 0.31236 0.21055 0.0
C5105 C 0.61827 0.32189 0.20309 0.0
C5106 C 0.60932 0.30814 0.21633 0.0
C5107 C 0.59855 0.31329 0.21473 0.0
C5108 C 0.59775 0.32296 0.2075 0.0
H5109 H 0.53908 0.29201 0.25782 0.0
H5110 H 0.55256 0.30438 0.24689 0.0
C5111 C 0.60751 0.32723 0.20174 0.0
C5112 C 0.5882 0.30834 0.22052 0.0
H5113 H 0.56301 0.29361 0.21537 0.0
C5114 C 0.58788 0.30814 0.2326 0.0
C5115 C 0.57905 0.30316 0.21422 0.0
C5116 C 0.57911 0.30282 0.20123 0.0
C5117 C 0.57878 0.3027 0.23856 0.0
C5118 C 0.5697 0.2974 0.23226 0.0
C5119 C 0.56991 0.29779 0.22017 0.0
C5120 C 0.56065 0.29031 0.23804 0.0
C5121 C 0.57919 0.30221 0.25154 0.0
C5122 C 0.56043 0.27839 0.23637 0.0
C5123 C 0.55277 0.27138 0.24254 0.0
C5124 C 0.54509 0.27614 0.25048 0.0
C5125 C 0.54488 0.28814 0.25173 0.0
C5126 C 0.55264 0.29518 0.24558 0.0
H5127 H 0.58766 0.30517 0.25503 0.0
H5128 H 0.57241 0.30781 0.25506 0.0
H5129 H 0.57747 0.29332 0.25466 0.0
H5130 H 0.56648 0.27445 0.23057 0.0
H5131 H 0.55307 0.26217 0.24134 0.0
H5132 H 0.40158 0.70213 0.21786 0.0
H5133 H 0.41817 0.70951 0.22881 0.0
H5134 H 0.43814 0.71138 0.19765 0.0
H5135 H 0.42164 0.70396 0.18665 0.0
H5136 H 0.44095 0.70135 0.2314 0.0
H5137 H 0.44029 0.74422 0.21009 0.0
H5138 H 0.42844 0.73409 0.20898 0.0
H5139 H 0.44115 0.73227 0.20044 0.0
C5140 C 0.40954 0.70398 0.21335 0.0
C5141 C 0.41022 0.70255 0.20134 0.0
C5142 C 0.419 0.70824 0.21961 0.0
C5143 C 0.42934 0.71118 0.21402 0.0
C5144 C 0.43018 0.70941 0.20211 0.0
H5145 H 0.4911 0.74723 0.23931 0.0
H5146 H 0.47807 0.73523 0.22761 0.0
C5147 C 0.42072 0.70518 0.19583 0.0
C5148 C 0.43913 0.71633 0.22061 0.0
H5149 H 0.45548 0.74081 0.2232 0.0
C5150 C 0.44415 0.70997 0.2296 0.0
C5151 C 0.44332 0.72756 0.21823 0.0
C5152 C 0.43798 0.735 0.20898 0.0
C5153 C 0.45326 0.71454 0.23626 0.0
C5154 C 0.45733 0.72584 0.234 0.0
C5155 C 0.45242 0.73212 0.22488 0.0
C5156 C 0.46608 0.73168 0.24143 0.0
C5157 C 0.45851 0.70719 0.24562 0.0
C5158 C 0.46379 0.7335 0.25313 0.0
C5159 C 0.47123 0.74029 0.25981 0.0
C5160 C 0.48108 0.7455 0.25493 0.0
C5161 C 0.48365 0.74325 0.24335 0.0
C5162 C 0.47617 0.73646 0.23664 0.0
H5163 H 0.45709 0.69789 0.2439 0.0
H5164 H 0.46791 0.70889 0.24649 0.0
H5165 H 0.45436 0.70918 0.25394 0.0
H5166 H 0.45597 0.7301 0.25698 0.0
H5167 H 0.46905 0.74182 0.26873 0.0
loop_
_geom_bond_atom_site_label_1
_geom_bond_atom_site_label_2
_geom_bond_distance
_geom_bond_site_symmetry_2
_ccdc_geom_bond_type
C0 C1 1.264 . S
C0 C5 1.479 . S
C0 C10 1.465 . S
C1 C0 1.264 . S
C1 C3 1.339 . S
C1 H28 0.931 . S
C2 C3 1.395 . S
C2 C4 1.320 . S
C3 C1 1.339 . S
C3 C2 1.395 . S
C3 H29 0.929 . S
C4 C2 1.320 . S
C4 C5 1.405 . S
C4 H30 0.930 . S
C5 C0 1.479 . S
C5 C4 1.405 . S
C5 H31 0.931 . S
U6 O7 2.454 . S
U6 O8 2.458 . S
U6 C9 2.984 . S
U6 C10 2.847 . S
U6 C23 2.882 . S
U6 O24 2.441 . S
U6 O25 2.420 . S
U6 O26 2.455 . S
U6 O27 2.449 . S
O7 U6 2.454 . S
O7 C9 1.353 . S
O8 U6 2.458 . S
O8 C9 1.286 . S
C9 U6 2.984 . S
C9 O7 1.353 . S
C9 O8 1.286 . S
C9 C11 1.363 . S
C10 C0 1.465 . S
C10 U6 2.847 . S
C10 O24 1.249 . S
C10 O25 1.202 . S
C11 C9 1.363 . S
C11 C13 1.408 . S
C11 C16 1.342 . S
C12 C13 1.310 . S
C12 C15 1.461 . S
C12 H32 0.932 . S
C13 C11 1.408 . S
C13 C12 1.310 . S
C13 H33 0.930 . S
C14 C15 1.474 . S
C14 C16 1.285 . S
C14 H34 0.929 . S
C15 C12 1.461 . S
C15 C14 1.474 . S
C16 C11 1.342 . S
C16 C14 1.285 . S
C16 H35 0.930 . S
C17 C20 1.424 . S
C17 C22 1.245 . S
C17 C23 1.428 . S
C18 C21 1.260 . S
C18 C22 1.477 . S
C18 H36 0.932 . S
C19 C20 1.384 . S
C19 C21 1.479 . S
C19 H37 0.929 . S
C20 C17 1.424 . S
C20 C19 1.384 . S
C20 H38 0.928 . S
C21 C18 1.260 . S
C21 C19 1.479 . S
C22 C17 1.245 . S
C22 C18 1.477 . S
C22 H39 0.932 . S
C23 U6 2.882 . S
C23 C17 1.428 . S
C23 O26 1.301 . S
C23 O27 1.282 . S
O24 U6 2.441 . S
O24 C10 1.249 . S
O25 U6 2.420 . S
O25 C10 1.202 . S
O26 U6 2.455 . S
O26 C23 1.301 . S
O27 U6 2.449 . S
O27 C23 1.282 . S
H28 C1 0.931 . S
H29 C3 0.929 . S
H30 C4 0.930 . S
H31 C5 0.931 . S
H32 C12 0.932 . S
H33 C13 0.930 . S
H34 C14 0.929 . S
H35 C16 0.930 . S
H36 C18 0.932 . S
H37 C19 0.929 . S
H38 C20 0.928 . S
H39 C22 0.932 . S
C40 C41 1.264 . S
C40 C45 1.479 . S
C40 C50 1.465 . S
C41 C40 1.264 . S
C41 C43 1.339 . S
C41 H68 0.931 . S
C42 C43 1.395 . S
C42 C44 1.320 . S
C43 C41 1.339 . S
C43 C42 1.395 . S
C43 H69 0.929 . S
C44 C42 1.320 . S
C44 C45 1.405 . S
C44 H70 0.930 . S
C45 C40 1.479 . S
C45 C44 1.405 . S
C45 H71 0.931 . S
U46 O47 2.454 . S
U46 O48 2.458 . S
U46 C49 2.984 . S
U46 C50 2.847 . S
U46 C63 2.882 . S
U46 O64 2.441 . S
U46 O65 2.420 . S
U46 O66 2.455 . S
U46 O67 2.449 . S
O47 U46 2.454 . S
O47 C49 1.353 . S
O48 U46 2.458 . S
O48 C49 1.286 . S
C49 U46 2.984 . S
C49 O47 1.353 . S
C49 O48 1.286 . S
C49 C51 1.363 . S
C50 C40 1.465 . S
C50 U46 2.847 . S
C50 O64 1.249 . S
C50 O65 1.202 . S
C51 C49 1.363 . S
C51 C53 1.408 . S
C51 C56 1.342 . S
C52 C53 1.310 . S
C52 C55 1.461 . S
C52 H72 0.932 . S
C53 C51 1.408 . S
C53 C52 1.310 . S
C53 H73 0.930 . S
C54 C55 1.474 . S
C54 C56 1.285 . S
C54 H74 0.929 . S
C55 C52 1.461 . S
C55 C54 1.474 . S
C56 C51 1.342 . S
C56 C54 1.285 . S
C56 H75 0.930 . S
C57 C60 1.424 . S
C57 C62 1.245 . S
C57 C63 1.428 . S
C58 C61 1.260 . S
C58 C62 1.477 . S
C58 H76 0.932 . S
C59 C60 1.384 . S
C59 C61 1.479 . S
C59 H77 0.929 . S
C60 C57 1.424 . S
C60 C59 1.384 . S
C60 H78 0.928 . S
C61 C58 1.260 . S
C61 C59 1.479 . S
C62 C57 1.245 . S
C62 C58 1.477 . S
C62 H79 0.932 . S
C63 U46 2.882 . S
C63 C57 1.428 . S
C63 O66 1.301 . S
C63 O67 1.282 . S
O64 U46 2.441 . S
O64 C50 1.249 . S
O65 U46 2.420 . S
O65 C50 1.202 . S
O66 U46 2.455 . S
O66 C63 1.301 . S
O67 U46 2.449 . S
O67 C63 1.282 . S
H68 C41 0.931 . S
H69 C43 0.929 . S
H70 C44 0.930 . S
H71 C45 0.931 . S
H72 C52 0.932 . S
H73 C53 0.930 . S
H74 C54 0.929 . S
H75 C56 0.930 . S
H76 C58 0.932 . S
H77 C59 0.929 . S
H78 C60 0.928 . S
H79 C62 0.932 . S
C80 C81 1.264 . S
C80 C85 1.479 . S
C80 C90 1.465 . S
C81 C80 1.264 . S
C81 C83 1.339 . S
C81 H108 0.931 . S
C82 C83 1.395 . S
C82 C84 1.320 . S
C83 C81 1.339 . S
C83 C82 1.395 . S
C83 H109 0.929 . S
C84 C82 1.320 . S
C84 C85 1.405 . S
C84 H110 0.930 . S
C85 C80 1.479 . S
C85 C84 1.405 . S
C85 H111 0.931 . S
U86 O87 2.454 . S
U86 O88 2.458 . S
U86 C89 2.984 . S
U86 C90 2.847 . S
U86 C103 2.882 . S
U86 O104 2.441 . S
U86 O105 2.420 . S
U86 O106 2.455 . S
U86 O107 2.449 . S
O87 U86 2.454 . S
O87 C89 1.353 . S
O88 U86 2.458 . S
O88 C89 1.286 . S
C89 U86 2.984 . S
C89 O87 1.353 . S
C89 O88 1.286 . S
C89 C91 1.363 . S
C90 C80 1.465 . S
C90 U86 2.847 . S
C90 O104 1.249 . S
C90 O105 1.202 . S
C91 C89 1.363 . S
C91 C93 1.408 . S
C91 C96 1.342 . S
C92 C93 1.310 . S
C92 C95 1.461 . S
C92 H112 0.932 . S
C93 C91 1.408 . S
C93 C92 1.310 . S
C93 H113 0.930 . S
C94 C95 1.474 . S
C94 C96 1.285 . S
C94 H114 0.929 . S
C95 C92 1.461 . S
C95 C94 1.474 . S
C96 C91 1.342 . S
C96 C94 1.285 . S
C96 H115 0.930 . S
C97 C100 1.424 . S
C97 C102 1.245 . S
C97 C103 1.428 . S
C98 C101 1.260 . S
C98 C102 1.477 . S
C98 H116 0.932 . S
C99 C100 1.384 . S
C99 C101 1.479 . S
C99 H117 0.929 . S
C100 C97 1.424 . S
C100 C99 1.384 . S
C100 H118 0.928 . S
C101 C98 1.260 . S
C101 C99 1.479 . S
C102 C97 1.245 . S
C102 C98 1.477 . S
C102 H119 0.932 . S
C103 U86 2.882 . S
C103 C97 1.428 . S
C103 O106 1.301 . S
C103 O107 1.282 . S
O104 U86 2.441 . S
O104 C90 1.249 . S
O105 U86 2.420 . S
O105 C90 1.202 . S
O106 U86 2.455 . S
O106 C103 1.301 . S
O107 U86 2.449 . S
O107 C103 1.282 . S
H108 C81 0.931 . S
H109 C83 0.929 . S
H110 C84 0.930 . S
H111 C85 0.931 . S
H112 C92 0.932 . S
H113 C93 0.930 . S
H114 C94 0.929 . S
H115 C96 0.930 . S
H116 C98 0.932 . S
H117 C99 0.929 . S
H118 C100 0.928 . S
H119 C102 0.932 . S
C120 C121 1.264 . S
C120 C125 1.479 . S
C120 C130 1.465 . S
C121 C120 1.264 . S
C121 C123 1.339 . S
C121 H148 0.931 . S
C122 C123 1.395 . S
C122 C124 1.320 . S
C123 C121 1.339 . S
C123 C122 1.395 . S
C123 H149 0.929 . S
C124 C122 1.320 . S
C124 C125 1.405 . S
C124 H150 0.930 . S
C125 C120 1.479 . S
C125 C124 1.405 . S
C125 H151 0.931 . S
U126 O127 2.454 . S
U126 O128 2.458 . S
U126 C129 2.984 . S
U126 C130 2.847 . S
U126 C143 2.882 . S
U126 O144 2.441 . S
U126 O145 2.420 . S
U126 O146 2.455 . S
U126 O147 2.449 . S
O127 U126 2.454 . S
O127 C129 1.353 . S
O128 U126 2.458 . S
O128 C129 1.286 . S
C129 U126 2.984 . S
C129 O127 1.353 . S
C129 O128 1.286 . S
C129 C131 1.363 . S
C130 C120 1.465 . S
C130 U126 2.847 . S
C130 O144 1.249 . S
C130 O145 1.202 . S
C131 C129 1.363 . S
C131 C133 1.408 . S
C131 C136 1.342 . S
C132 C133 1.310 . S
C132 C135 1.461 . S
C132 H152 0.932 . S
C133 C131 1.408 . S
C133 C132 1.310 . S
C133 H153 0.930 . S
C134 C135 1.474 . S
C134 C136 1.285 . S
C134 H154 0.929 . S
C135 C132 1.461 . S
C135 C134 1.474 . S
C136 C131 1.342 . S
C136 C134 1.285 . S
C136 H155 0.930 . S
C137 C140 1.424 . S
C137 C142 1.245 . S
C137 C143 1.428 . S
C138 C141 1.260 . S
C138 C142 1.477 . S
C138 H156 0.932 . S
C139 C140 1.384 . S
C139 C141 1.479 . S
C139 H157 0.929 . S
C140 C137 1.424 . S
C140 C139 1.384 . S
C140 H158 0.928 . S
C141 C138 1.260 . S
C141 C139 1.479 . S
C142 C137 1.245 . S
C142 C138 1.477 . S
C142 H159 0.932 . S
C143 U126 2.882 . S
C143 C137 1.428 . S
C143 O146 1.301 . S
C143 O147 1.282 . S
O144 U126 2.441 . S
O144 C130 1.249 . S
O145 U126 2.420 . S
O145 C130 1.202 . S
O146 U126 2.455 . S
O146 C143 1.301 . S
O147 U126 2.449 . S
O147 C143 1.282 . S
H148 C121 0.931 . S
H149 C123 0.929 . S
H150 C124 0.930 . S
H151 C125 0.931 . S
H152 C132 0.932 . S
H153 C133 0.930 . S
H154 C134 0.929 . S
H155 C136 0.930 . S
H156 C138 0.932 . S
H157 C139 0.929 . S
H158 C140 0.928 . S
H159 C142 0.932 . S
C160 C161 1.264 . S
C160 C165 1.479 . S
C160 C170 1.465 . S
C161 C160 1.264 . S
C161 C163 1.339 . S
C161 H188 0.931 . S
C162 C163 1.395 . S
C162 C164 1.320 . S
C163 C161 1.339 . S
C163 C162 1.395 . S
C163 H189 0.929 . S
C164 C162 1.320 . S
C164 C165 1.405 . S
C164 H190 0.930 . S
C165 C160 1.479 . S
C165 C164 1.405 . S
C165 H191 0.931 . S
U166 O167 2.454 . S
U166 O168 2.458 . S
U166 C169 2.984 . S
U166 C170 2.847 . S
U166 C183 2.882 . S
U166 O184 2.441 . S
U166 O185 2.420 . S
U166 O186 2.455 . S
U166 O187 2.449 . S
O167 U166 2.454 . S
O167 C169 1.353 . S
O168 U166 2.458 . S
O168 C169 1.286 . S
C169 U166 2.984 . S
C169 O167 1.353 . S
C169 O168 1.286 . S
C169 C171 1.363 . S
C170 C160 1.465 . S
C170 U166 2.847 . S
C170 O184 1.249 . S
C170 O185 1.202 . S
C171 C169 1.363 . S
C171 C173 1.408 . S
C171 C176 1.342 . S
C172 C173 1.310 . S
C172 C175 1.461 . S
C172 H192 0.932 . S
C173 C171 1.408 . S
C173 C172 1.310 . S
C173 H193 0.930 . S
C174 C175 1.474 . S
C174 C176 1.285 . S
C174 H194 0.929 . S
C175 C172 1.461 . S
C175 C174 1.474 . S
C176 C171 1.342 . S
C176 C174 1.285 . S
C176 H195 0.930 . S
C177 C180 1.424 . S
C177 C182 1.245 . S
C177 C183 1.428 . S
C178 C181 1.260 . S
C178 C182 1.477 . S
C178 H196 0.932 . S
C179 C180 1.384 . S
C179 C181 1.479 . S
C179 H197 0.929 . S
C180 C177 1.424 . S
C180 C179 1.384 . S
C180 H198 0.928 . S
C181 C178 1.260 . S
C181 C179 1.479 . S
C182 C177 1.245 . S
C182 C178 1.477 . S
C182 H199 0.932 . S
C183 U166 2.882 . S
C183 C177 1.428 . S
C183 O186 1.301 . S
C183 O187 1.282 . S
O184 U166 2.441 . S
O184 C170 1.249 . S
O185 U166 2.420 . S
O185 C170 1.202 . S
O186 U166 2.455 . S
O186 C183 1.301 . S
O187 U166 2.449 . S
O187 C183 1.282 . S
H188 C161 0.931 . S
H189 C163 0.929 . S
H190 C164 0.930 . S
H191 C165 0.931 . S
H192 C172 0.932 . S
H193 C173 0.930 . S
H194 C174 0.929 . S
H195 C176 0.930 . S
H196 C178 0.932 . S
H197 C179 0.929 . S
H198 C180 0.928 . S
H199 C182 0.932 . S
C200 C201 1.264 . S
C200 C205 1.479 . S
C200 C210 1.465 . S
C201 C200 1.264 . S
C201 C203 1.339 . S
C201 H228 0.931 . S
C202 C203 1.395 . S
C202 C204 1.320 . S
C203 C201 1.339 . S
C203 C202 1.395 . S
C203 H229 0.929 . S
C204 C202 1.320 . S
C204 C205 1.405 . S
C204 H230 0.930 . S
C205 C200 1.479 . S
C205 C204 1.405 . S
C205 H231 0.931 . S
U206 O207 2.454 . S
U206 O208 2.458 . S
U206 C209 2.984 . S
U206 C210 2.847 . S
U206 C223 2.882 . S
U206 O224 2.441 . S
U206 O225 2.420 . S
U206 O226 2.455 . S
U206 O227 2.449 . S
O207 U206 2.454 . S
O207 C209 1.353 . S
O208 U206 2.458 . S
O208 C209 1.286 . S
C209 U206 2.984 . S
C209 O207 1.353 . S
C209 O208 1.286 . S
C209 C211 1.363 . S
C210 C200 1.465 . S
C210 U206 2.847 . S
C210 O224 1.249 . S
C210 O225 1.202 . S
C211 C209 1.363 . S
C211 C213 1.408 . S
C211 C216 1.342 . S
C212 C213 1.310 . S
C212 C215 1.461 . S
C212 H232 0.932 . S
C213 C211 1.408 . S
C213 C212 1.310 . S
C213 H233 0.930 . S
C214 C215 1.474 . S
C214 C216 1.285 . S
C214 H234 0.929 . S
C215 C212 1.461 . S
C215 C214 1.474 . S
C216 C211 1.342 . S
C216 C214 1.285 . S
C216 H235 0.930 . S
C217 C220 1.424 . S
C217 C222 1.245 . S
C217 C223 1.428 . S
C218 C221 1.260 . S
C218 C222 1.477 . S
C218 H236 0.932 . S
C219 C220 1.384 . S
C219 C221 1.479 . S
C219 H237 0.929 . S
C220 C217 1.424 . S
C220 C219 1.384 . S
C220 H238 0.928 . S
C221 C218 1.260 . S
C221 C219 1.479 . S
C222 C217 1.245 . S
C222 C218 1.477 . S
C222 H239 0.932 . S
C223 U206 2.882 . S
C223 C217 1.428 . S
C223 O226 1.301 . S
C223 O227 1.282 . S
O224 U206 2.441 . S
O224 C210 1.249 . S
O225 U206 2.420 . S
O225 C210 1.202 . S
O226 U206 2.455 . S
O226 C223 1.301 . S
O227 U206 2.449 . S
O227 C223 1.282 . S
H228 C201 0.931 . S
H229 C203 0.929 . S
H230 C204 0.930 . S
H231 C205 0.931 . S
H232 C212 0.932 . S
H233 C213 0.930 . S
H234 C214 0.929 . S
H235 C216 0.930 . S
H236 C218 0.932 . S
H237 C219 0.929 . S
H238 C220 0.928 . S
H239 C222 0.932 . S
C240 C241 1.264 . S
C240 C245 1.479 . S
C240 C250 1.465 . S
C241 C240 1.264 . S
C241 C243 1.339 . S
C241 H268 0.931 . S
C242 C243 1.395 . S
C242 C244 1.320 . S
C243 C241 1.339 . S
C243 C242 1.395 . S
C243 H269 0.929 . S
C244 C242 1.320 . S
C244 C245 1.405 . S
C244 H270 0.930 . S
C245 C240 1.479 . S
C245 C244 1.405 . S
C245 H271 0.931 . S
U246 O247 2.454 . S
U246 O248 2.458 . S
U246 C249 2.984 . S
U246 C250 2.847 . S
U246 C263 2.882 . S
U246 O264 2.441 . S
U246 O265 2.420 . S
U246 O266 2.455 . S
U246 O267 2.449 . S
O247 U246 2.454 . S
O247 C249 1.353 . S
O248 U246 2.458 . S
O248 C249 1.286 . S
C249 U246 2.984 . S
C249 O247 1.353 . S
C249 O248 1.286 . S
C249 C251 1.363 . S
C250 C240 1.465 . S
C250 U246 2.847 . S
C250 O264 1.249 . S
C250 O265 1.202 . S
C251 C249 1.363 . S
C251 C253 1.408 . S
C251 C256 1.342 . S
C252 C253 1.310 . S
C252 C255 1.461 . S
C252 H272 0.932 . S
C253 C251 1.408 . S
C253 C252 1.310 . S
C253 H273 0.930 . S
C254 C255 1.474 . S
C254 C256 1.285 . S
C254 H274 0.929 . S
C255 C252 1.461 . S
C255 C254 1.474 . S
C256 C251 1.342 . S
C256 C254 1.285 . S
C256 H275 0.930 . S
C257 C260 1.424 . S
C257 C262 1.245 . S
C257 C263 1.428 . S
C258 C261 1.260 . S
C258 C262 1.477 . S
C258 H276 0.932 . S
C259 C260 1.384 . S
C259 C261 1.479 . S
C259 H277 0.929 . S
C260 C257 1.424 . S
C260 C259 1.384 . S
C260 H278 0.928 . S
C261 C258 1.260 . S
C261 C259 1.479 . S
C262 C257 1.245 . S
C262 C258 1.477 . S
C262 H279 0.932 . S
C263 U246 2.882 . S
C263 C257 1.428 . S
C263 O266 1.301 . S
C263 O267 1.282 . S
O264 U246 2.441 . S
O264 C250 1.249 . S
O265 U246 2.420 . S
O265 C250 1.202 . S
O266 U246 2.455 . S
O266 C263 1.301 . S
O267 U246 2.449 . S
O267 C263 1.282 . S
H268 C241 0.931 . S
H269 C243 0.929 . S
H270 C244 0.930 . S
H271 C245 0.931 . S
H272 C252 0.932 . S
H273 C253 0.930 . S
H274 C254 0.929 . S
H275 C256 0.930 . S
H276 C258 0.932 . S
H277 C259 0.929 . S
H278 C260 0.928 . S
H279 C262 0.932 . S
C280 C281 1.264 . S
C280 C285 1.479 . S
C280 C290 1.465 . S
C281 C280 1.264 . S
C281 C283 1.339 . S
C281 H308 0.931 . S
C282 C283 1.395 . S
C282 C284 1.320 . S
C283 C281 1.339 . S
C283 C282 1.395 . S
C283 H309 0.929 . S
C284 C282 1.320 . S
C284 C285 1.405 . S
C284 H310 0.930 . S
C285 C280 1.479 . S
C285 C284 1.405 . S
C285 H311 0.931 . S
U286 O287 2.454 . S
U286 O288 2.458 . S
U286 C289 2.984 . S
U286 C290 2.847 . S
U286 C303 2.882 . S
U286 O304 2.441 . S
U286 O305 2.420 . S
U286 O306 2.455 . S
U286 O307 2.449 . S
O287 U286 2.454 . S
O287 C289 1.353 . S
O288 U286 2.458 . S
O288 C289 1.286 . S
C289 U286 2.984 . S
C289 O287 1.353 . S
C289 O288 1.286 . S
C289 C291 1.363 . S
C290 C280 1.465 . S
C290 U286 2.847 . S
C290 O304 1.249 . S
C290 O305 1.202 . S
C291 C289 1.363 . S
C291 C293 1.408 . S
C291 C296 1.342 . S
C292 C293 1.310 . S
C292 C295 1.461 . S
C292 H312 0.932 . S
C293 C291 1.408 . S
C293 C292 1.310 . S
C293 H313 0.930 . S
C294 C295 1.474 . S
C294 C296 1.285 . S
C294 H314 0.929 . S
C295 C292 1.461 . S
C295 C294 1.474 . S
C296 C291 1.342 . S
C296 C294 1.285 . S
C296 H315 0.930 . S
C297 C300 1.424 . S
C297 C302 1.245 . S
C297 C303 1.428 . S
C298 C301 1.260 . S
C298 C302 1.477 . S
C298 H316 0.932 . S
C299 C300 1.384 . S
C299 C301 1.479 . S
C299 H317 0.929 . S
C300 C297 1.424 . S
C300 C299 1.384 . S
C300 H318 0.928 . S
C301 C298 1.260 . S
C301 C299 1.479 . S
C302 C297 1.245 . S
C302 C298 1.477 . S
C302 H319 0.932 . S
C303 U286 2.882 . S
C303 C297 1.428 . S
C303 O306 1.301 . S
C303 O307 1.282 . S
O304 U286 2.441 . S
O304 C290 1.249 . S
O305 U286 2.420 . S
O305 C290 1.202 . S
O306 U286 2.455 . S
O306 C303 1.301 . S
O307 U286 2.449 . S
O307 C303 1.282 . S
H308 C281 0.931 . S
H309 C283 0.929 . S
H310 C284 0.930 . S
H311 C285 0.931 . S
H312 C292 0.932 . S
H313 C293 0.930 . S
H314 C294 0.929 . S
H315 C296 0.930 . S
H316 C298 0.932 . S
H317 C299 0.929 . S
H318 C300 0.928 . S
H319 C302 0.932 . S
C320 C321 1.264 . S
C320 C325 1.479 . S
C320 C330 1.465 . S
C321 C320 1.264 . S
C321 C323 1.339 . S
C321 H348 0.931 . S
C322 C323 1.395 . S
C322 C324 1.320 . S
C323 C321 1.339 . S
C323 C322 1.395 . S
C323 H349 0.929 . S
C324 C322 1.320 . S
C324 C325 1.405 . S
C324 H350 0.930 . S
C325 C320 1.479 . S
C325 C324 1.405 . S
C325 H351 0.931 . S
U326 O327 2.454 . S
U326 O328 2.458 . S
U326 C329 2.984 . S
U326 C330 2.847 . S
U326 C343 2.882 . S
U326 O344 2.441 . S
U326 O345 2.420 . S
U326 O346 2.455 . S
U326 O347 2.449 . S
O327 U326 2.454 . S
O327 C329 1.353 . S
O328 U326 2.458 . S
O328 C329 1.286 . S
C329 U326 2.984 . S
C329 O327 1.353 . S
C329 O328 1.286 . S
C329 C331 1.363 . S
C330 C320 1.465 . S
C330 U326 2.847 . S
C330 O344 1.249 . S
C330 O345 1.202 . S
C331 C329 1.363 . S
C331 C333 1.408 . S
C331 C336 1.342 . S
C332 C333 1.310 . S
C332 C335 1.461 . S
C332 H352 0.932 . S
C333 C331 1.408 . S
C333 C332 1.310 . S
C333 H353 0.930 . S
C334 C335 1.474 . S
C334 C336 1.285 . S
C334 H354 0.929 . S
C335 C332 1.461 . S
C335 C334 1.474 . S
C336 C331 1.342 . S
C336 C334 1.285 . S
C336 H355 0.930 . S
C337 C340 1.424 . S
C337 C342 1.245 . S
C337 C343 1.428 . S
C338 C341 1.260 . S
C338 C342 1.477 . S
C338 H356 0.932 . S
C339 C340 1.384 . S
C339 C341 1.479 . S
C339 H357 0.929 . S
C340 C337 1.424 . S
C340 C339 1.384 . S
C340 H358 0.928 . S
C341 C338 1.260 . S
C341 C339 1.479 . S
C342 C337 1.245 . S
C342 C338 1.477 . S
C342 H359 0.932 . S
C343 U326 2.882 . S
C343 C337 1.428 . S
C343 O346 1.301 . S
C343 O347 1.282 . S
O344 U326 2.441 . S
O344 C330 1.249 . S
O345 U326 2.420 . S
O345 C330 1.202 . S
O346 U326 2.455 . S
O346 C343 1.301 . S
O347 U326 2.449 . S
O347 C343 1.282 . S
H348 C321 0.931 . S
H349 C323 0.929 . S
H350 C324 0.930 . S
H351 C325 0.931 . S
H352 C332 0.932 . S
H353 C333 0.930 . S
H354 C334 0.929 . S
H355 C336 0.930 . S
H356 C338 0.932 . S
H357 C339 0.929 . S
H358 C340 0.928 . S
H359 C342 0.932 . S
C360 C361 1.264 . S
C360 C365 1.479 . S
C360 C370 1.465 . S
C361 C360 1.264 . S
C361 C363 1.339 . S
C361 H388 0.931 . S
C362 C363 1.395 . S
C362 C364 1.320 . S
C363 C361 1.339 . S
C363 C362 1.395 . S
C363 H389 0.929 . S
C364 C362 1.320 . S
C364 C365 1.405 . S
C364 H390 0.930 . S
C365 C360 1.479 . S
C365 C364 1.405 . S
C365 H391 0.931 . S
U366 O367 2.454 . S
U366 O368 2.458 . S
U366 C369 2.984 . S
U366 C370 2.847 . S
U366 C383 2.882 . S
U366 O384 2.441 . S
U366 O385 2.420 . S
U366 O386 2.455 . S
U366 O387 2.449 . S
O367 U366 2.454 . S
O367 C369 1.353 . S
O368 U366 2.458 . S
O368 C369 1.286 . S
C369 U366 2.984 . S
C369 O367 1.353 . S
C369 O368 1.286 . S
C369 C371 1.363 . S
C370 C360 1.465 . S
C370 U366 2.847 . S
C370 O384 1.249 . S
C370 O385 1.202 . S
C371 C369 1.363 . S
C371 C373 1.408 . S
C371 C376 1.342 . S
C372 C373 1.310 . S
C372 C375 1.461 . S
C372 H392 0.932 . S
C373 C371 1.408 . S
C373 C372 1.310 . S
C373 H393 0.930 . S
C374 C375 1.474 . S
C374 C376 1.285 . S
C374 H394 0.929 . S
C375 C372 1.461 . S
C375 C374 1.474 . S
C376 C371 1.342 . S
C376 C374 1.285 . S
C376 H395 0.930 . S
C377 C380 1.424 . S
C377 C382 1.245 . S
C377 C383 1.428 . S
C378 C381 1.260 . S
C378 C382 1.477 . S
C378 H396 0.932 . S
C379 C380 1.384 . S
C379 C381 1.479 . S
C379 H397 0.929 . S
C380 C377 1.424 . S
C380 C379 1.384 . S
C380 H398 0.928 . S
C381 C378 1.260 . S
C381 C379 1.479 . S
C382 C377 1.245 . S
C382 C378 1.477 . S
C382 H399 0.932 . S
C383 U366 2.882 . S
C383 C377 1.428 . S
C383 O386 1.301 . S
C383 O387 1.282 . S
O384 U366 2.441 . S
O384 C370 1.249 . S
O385 U366 2.420 . S
O385 C370 1.202 . S
O386 U366 2.455 . S
O386 C383 1.301 . S
O387 U366 2.449 . S
O387 C383 1.282 . S
H388 C361 0.931 . S
H389 C363 0.929 . S
H390 C364 0.930 . S
H391 C365 0.931 . S
H392 C372 0.932 . S
H393 C373 0.930 . S
H394 C374 0.929 . S
H395 C376 0.930 . S
H396 C378 0.932 . S
H397 C379 0.929 . S
H398 C380 0.928 . S
H399 C382 0.932 . S
C400 C401 1.264 . S
C400 C405 1.479 . S
C400 C410 1.465 . S
C401 C400 1.264 . S
C401 C403 1.339 . S
C401 H428 0.931 . S
C402 C403 1.395 . S
C402 C404 1.320 . S
C403 C401 1.339 . S
C403 C402 1.395 . S
C403 H429 0.929 . S
C404 C402 1.320 . S
C404 C405 1.405 . S
C404 H430 0.930 . S
C405 C400 1.479 . S
C405 C404 1.405 . S
C405 H431 0.931 . S
U406 O407 2.454 . S
U406 O408 2.458 . S
U406 C409 2.984 . S
U406 C410 2.847 . S
U406 C423 2.882 . S
U406 O424 2.441 . S
U406 O425 2.420 . S
U406 O426 2.455 . S
U406 O427 2.449 . S
O407 U406 2.454 . S
O407 C409 1.353 . S
O408 U406 2.458 . S
O408 C409 1.286 . S
C409 U406 2.984 . S
C409 O407 1.353 . S
C409 O408 1.286 . S
C409 C411 1.363 . S
C410 C400 1.465 . S
C410 U406 2.847 . S
C410 O424 1.249 . S
C410 O425 1.202 . S
C411 C409 1.363 . S
C411 C413 1.408 . S
C411 C416 1.342 . S
C412 C413 1.310 . S
C412 C415 1.461 . S
C412 H432 0.932 . S
C413 C411 1.408 . S
C413 C412 1.310 . S
C413 H433 0.930 . S
C414 C415 1.474 . S
C414 C416 1.285 . S
C414 H434 0.929 . S
C415 C412 1.461 . S
C415 C414 1.474 . S
C416 C411 1.342 . S
C416 C414 1.285 . S
C416 H435 0.930 . S
C417 C420 1.424 . S
C417 C422 1.245 . S
C417 C423 1.428 . S
C418 C421 1.260 . S
C418 C422 1.477 . S
C418 H436 0.932 . S
C419 C420 1.384 . S
C419 C421 1.479 . S
C419 H437 0.929 . S
C420 C417 1.424 . S
C420 C419 1.384 . S
C420 H438 0.928 . S
C421 C418 1.260 . S
C421 C419 1.479 . S
C422 C417 1.245 . S
C422 C418 1.477 . S
C422 H439 0.932 . S
C423 U406 2.882 . S
C423 C417 1.428 . S
C423 O426 1.301 . S
C423 O427 1.282 . S
O424 U406 2.441 . S
O424 C410 1.249 . S
O425 U406 2.420 . S
O425 C410 1.202 . S
O426 U406 2.455 . S
O426 C423 1.301 . S
O427 U406 2.449 . S
O427 C423 1.282 . S
H428 C401 0.931 . S
H429 C403 0.929 . S
H430 C404 0.930 . S
H431 C405 0.931 . S
H432 C412 0.932 . S
H433 C413 0.930 . S
H434 C414 0.929 . S
H435 C416 0.930 . S
H436 C418 0.932 . S
H437 C419 0.929 . S
H438 C420 0.928 . S
H439 C422 0.932 . S
C440 C441 1.264 . S
C440 C445 1.479 . S
C440 C450 1.465 . S
C441 C440 1.264 . S
C441 C443 1.339 . S
C441 H468 0.931 . S
C442 C443 1.395 . S
C442 C444 1.320 . S
C443 C441 1.339 . S
C443 C442 1.395 . S
C443 H469 0.929 . S
C444 C442 1.320 . S
C444 C445 1.405 . S
C444 H470 0.930 . S
C445 C440 1.479 . S
C445 C444 1.405 . S
C445 H471 0.931 . S
U446 O447 2.454 . S
U446 O448 2.458 . S
U446 C449 2.984 . S
U446 C450 2.847 . S
U446 C463 2.882 . S
U446 O464 2.441 . S
U446 O465 2.420 . S
U446 O466 2.455 . S
U446 O467 2.449 . S
O447 U446 2.454 . S
O447 C449 1.353 . S
O448 U446 2.458 . S
O448 C449 1.286 . S
C449 U446 2.984 . S
C449 O447 1.353 . S
C449 O448 1.286 . S
C449 C451 1.363 . S
C450 C440 1.465 . S
C450 U446 2.847 . S
C450 O464 1.249 . S
C450 O465 1.202 . S
C451 C449 1.363 . S
C451 C453 1.408 . S
C451 C456 1.342 . S
C452 C453 1.310 . S
C452 C455 1.461 . S
C452 H472 0.932 . S
C453 C451 1.408 . S
C453 C452 1.310 . S
C453 H473 0.930 . S
C454 C455 1.474 . S
C454 C456 1.285 . S
C454 H474 0.929 . S
C455 C452 1.461 . S
C455 C454 1.474 . S
C456 C451 1.342 . S
C456 C454 1.285 . S
C456 H475 0.930 . S
C457 C460 1.424 . S
C457 C462 1.245 . S
C457 C463 1.428 . S
C458 C461 1.260 . S
C458 C462 1.477 . S
C458 H476 0.932 . S
C459 C460 1.384 . S
C459 C461 1.479 . S
C459 H477 0.929 . S
C460 C457 1.424 . S
C460 C459 1.384 . S
C460 H478 0.928 . S
C461 C458 1.260 . S
C461 C459 1.479 . S
C462 C457 1.245 . S
C462 C458 1.477 . S
C462 H479 0.932 . S
C463 U446 2.882 . S
C463 C457 1.428 . S
C463 O466 1.301 . S
C463 O467 1.282 . S
O464 U446 2.441 . S
O464 C450 1.249 . S
O465 U446 2.420 . S
O465 C450 1.202 . S
O466 U446 2.455 . S
O466 C463 1.301 . S
O467 U446 2.449 . S
O467 C463 1.282 . S
H468 C441 0.931 . S
H469 C443 0.929 . S
H470 C444 0.930 . S
H471 C445 0.931 . S
H472 C452 0.932 . S
H473 C453 0.930 . S
H474 C454 0.929 . S
H475 C456 0.930 . S
H476 C458 0.932 . S
H477 C459 0.929 . S
H478 C460 0.928 . S
H479 C462 0.932 . S
C480 C481 1.264 . S
C480 C485 1.479 . S
C480 C490 1.465 . S
C481 C480 1.264 . S
C481 C483 1.339 . S
C481 H508 0.931 . S
C482 C483 1.395 . S
C482 C484 1.320 . S
C483 C481 1.339 . S
C483 C482 1.395 . S
C483 H509 0.929 . S
C484 C482 1.320 . S
C484 C485 1.405 . S
C484 H510 0.930 . S
C485 C480 1.479 . S
C485 C484 1.405 . S
C485 H511 0.931 . S
U486 O487 2.454 . S
U486 O488 2.458 . S
U486 C489 2.984 . S
U486 C490 2.847 . S
U486 C503 2.882 . S
U486 O504 2.441 . S
U486 O505 2.420 . S
U486 O506 2.455 . S
U486 O507 2.449 . S
O487 U486 2.454 . S
O487 C489 1.353 . S
O488 U486 2.458 . S
O488 C489 1.286 . S
C489 U486 2.984 . S
C489 O487 1.353 . S
C489 O488 1.286 . S
C489 C491 1.363 . S
C490 C480 1.465 . S
C490 U486 2.847 . S
C490 O504 1.249 . S
C490 O505 1.202 . S
C491 C489 1.363 . S
C491 C493 1.408 . S
C491 C496 1.342 . S
C492 C493 1.310 . S
C492 C495 1.461 . S
C492 H512 0.932 . S
C493 C491 1.408 . S
C493 C492 1.310 . S
C493 H513 0.930 . S
C494 C495 1.474 . S
C494 C496 1.285 . S
C494 H514 0.929 . S
C495 C492 1.461 . S
C495 C494 1.474 . S
C496 C491 1.342 . S
C496 C494 1.285 . S
C496 H515 0.930 . S
C497 C500 1.424 . S
C497 C502 1.245 . S
C497 C503 1.428 . S
C498 C501 1.260 . S
C498 C502 1.477 . S
C498 H516 0.932 . S
C499 C500 1.384 . S
C499 C501 1.479 . S
C499 H517 0.929 . S
C500 C497 1.424 . S
C500 C499 1.384 . S
C500 H518 0.928 . S
C501 C498 1.260 . S
C501 C499 1.479 . S
C502 C497 1.245 . S
C502 C498 1.477 . S
C502 H519 0.932 . S
C503 U486 2.882 . S
C503 C497 1.428 . S
C503 O506 1.301 . S
C503 O507 1.282 . S
O504 U486 2.441 . S
O504 C490 1.249 . S
O505 U486 2.420 . S
O505 C490 1.202 . S
O506 U486 2.455 . S
O506 C503 1.301 . S
O507 U486 2.449 . S
O507 C503 1.282 . S
H508 C481 0.931 . S
H509 C483 0.929 . S
H510 C484 0.930 . S
H511 C485 0.931 . S
H512 C492 0.932 . S
H513 C493 0.930 . S
H514 C494 0.929 . S
H515 C496 0.930 . S
H516 C498 0.932 . S
H517 C499 0.929 . S
H518 C500 0.928 . S
H519 C502 0.932 . S
C520 C521 1.264 . S
C520 C525 1.479 . S
C520 C530 1.465 . S
C521 C520 1.264 . S
C521 C523 1.339 . S
C521 H548 0.931 . S
C522 C523 1.395 . S
C522 C524 1.320 . S
C523 C521 1.339 . S
C523 C522 1.395 . S
C523 H549 0.929 . S
C524 C522 1.320 . S
C524 C525 1.405 . S
C524 H550 0.930 . S
C525 C520 1.479 . S
C525 C524 1.405 . S
C525 H551 0.931 . S
U526 O527 2.454 . S
U526 O528 2.458 . S
U526 C529 2.984 . S
U526 C530 2.847 . S
U526 C543 2.882 . S
U526 O544 2.441 . S
U526 O545 2.420 . S
U526 O546 2.455 . S
U526 O547 2.449 . S
O527 U526 2.454 . S
O527 C529 1.353 . S
O528 U526 2.458 . S
O528 C529 1.286 . S
C529 U526 2.984 . S
C529 O527 1.353 . S
C529 O528 1.286 . S
C529 C531 1.363 . S
C530 C520 1.465 . S
C530 U526 2.847 . S
C530 O544 1.249 . S
C530 O545 1.202 . S
C531 C529 1.363 . S
C531 C533 1.408 . S
C531 C536 1.342 . S
C532 C533 1.310 . S
C532 C535 1.461 . S
C532 H552 0.932 . S
C533 C531 1.408 . S
C533 C532 1.310 . S
C533 H553 0.930 . S
C534 C535 1.474 . S
C534 C536 1.285 . S
C534 H554 0.929 . S
C535 C532 1.461 . S
C535 C534 1.474 . S
C536 C531 1.342 . S
C536 C534 1.285 . S
C536 H555 0.930 . S
C537 C540 1.424 . S
C537 C542 1.245 . S
C537 C543 1.428 . S
C538 C541 1.260 . S
C538 C542 1.477 . S
C538 H556 0.932 . S
C539 C540 1.384 . S
C539 C541 1.479 . S
C539 H557 0.929 . S
C540 C537 1.424 . S
C540 C539 1.384 . S
C540 H558 0.928 . S
C541 C538 1.260 . S
C541 C539 1.479 . S
C542 C537 1.245 . S
C542 C538 1.477 . S
C542 H559 0.932 . S
C543 U526 2.882 . S
C543 C537 1.428 . S
C543 O546 1.301 . S
C543 O547 1.282 . S
O544 U526 2.441 . S
O544 C530 1.249 . S
O545 U526 2.420 . S
O545 C530 1.202 . S
O546 U526 2.455 . S
O546 C543 1.301 . S
O547 U526 2.449 . S
O547 C543 1.282 . S
H548 C521 0.931 . S
H549 C523 0.929 . S
H550 C524 0.930 . S
H551 C525 0.931 . S
H552 C532 0.932 . S
H553 C533 0.930 . S
H554 C534 0.929 . S
H555 C536 0.930 . S
H556 C538 0.932 . S
H557 C539 0.929 . S
H558 C540 0.928 . S
H559 C542 0.932 . S
C560 C561 1.264 . S
C560 C565 1.479 . S
C560 C570 1.465 . S
C561 C560 1.264 . S
C561 C563 1.339 . S
C561 H588 0.931 . S
C562 C563 1.395 . S
C562 C564 1.320 . S
C563 C561 1.339 . S
C563 C562 1.395 . S
C563 H589 0.929 . S
C564 C562 1.320 . S
C564 C565 1.405 . S
C564 H590 0.930 . S
C565 C560 1.479 . S
C565 C564 1.405 . S
C565 H591 0.931 . S
U566 O567 2.454 . S
U566 O568 2.458 . S
U566 C569 2.984 . S
U566 C570 2.847 . S
U566 C583 2.882 . S
U566 O584 2.441 . S
U566 O585 2.420 . S
U566 O586 2.455 . S
U566 O587 2.449 . S
O567 U566 2.454 . S
O567 C569 1.353 . S
O568 U566 2.458 . S
O568 C569 1.286 . S
C569 U566 2.984 . S
C569 O567 1.353 . S
C569 O568 1.286 . S
C569 C571 1.363 . S
C570 C560 1.465 . S
C570 U566 2.847 . S
C570 O584 1.249 . S
C570 O585 1.202 . S
C571 C569 1.363 . S
C571 C573 1.408 . S
C571 C576 1.342 . S
C572 C573 1.310 . S
C572 C575 1.461 . S
C572 H592 0.932 . S
C573 C571 1.408 . S
C573 C572 1.310 . S
C573 H593 0.930 . S
C574 C575 1.474 . S
C574 C576 1.285 . S
C574 H594 0.929 . S
C575 C572 1.461 . S
C575 C574 1.474 . S
C576 C571 1.342 . S
C576 C574 1.285 . S
C576 H595 0.930 . S
C577 C580 1.424 . S
C577 C582 1.245 . S
C577 C583 1.428 . S
C578 C581 1.260 . S
C578 C582 1.477 . S
C578 H596 0.932 . S
C579 C580 1.384 . S
C579 C581 1.479 . S
C579 H597 0.929 . S
C580 C577 1.424 . S
C580 C579 1.384 . S
C580 H598 0.928 . S
C581 C578 1.260 . S
C581 C579 1.479 . S
C582 C577 1.245 . S
C582 C578 1.477 . S
C582 H599 0.932 . S
C583 U566 2.882 . S
C583 C577 1.428 . S
C583 O586 1.301 . S
C583 O587 1.282 . S
O584 U566 2.441 . S
O584 C570 1.249 . S
O585 U566 2.420 . S
O585 C570 1.202 . S
O586 U566 2.455 . S
O586 C583 1.301 . S
O587 U566 2.449 . S
O587 C583 1.282 . S
H588 C561 0.931 . S
H589 C563 0.929 . S
H590 C564 0.930 . S
H591 C565 0.931 . S
H592 C572 0.932 . S
H593 C573 0.930 . S
H594 C574 0.929 . S
H595 C576 0.930 . S
H596 C578 0.932 . S
H597 C579 0.929 . S
H598 C580 0.928 . S
H599 C582 0.932 . S
C600 C601 1.264 . S
C600 C605 1.479 . S
C600 C610 1.465 . S
C601 C600 1.264 . S
C601 C603 1.339 . S
C601 H628 0.931 . S
C602 C603 1.395 . S
C602 C604 1.320 . S
C603 C601 1.339 . S
C603 C602 1.395 . S
C603 H629 0.929 . S
C604 C602 1.320 . S
C604 C605 1.405 . S
C604 H630 0.930 . S
C605 C600 1.479 . S
C605 C604 1.405 . S
C605 H631 0.931 . S
U606 O607 2.454 . S
U606 O608 2.458 . S
U606 C609 2.984 . S
U606 C610 2.847 . S
U606 C623 2.882 . S
U606 O624 2.441 . S
U606 O625 2.420 . S
U606 O626 2.455 . S
U606 O627 2.449 . S
O607 U606 2.454 . S
O607 C609 1.353 . S
O608 U606 2.458 . S
O608 C609 1.286 . S
C609 U606 2.984 . S
C609 O607 1.353 . S
C609 O608 1.286 . S
C609 C611 1.363 . S
C610 C600 1.465 . S
C610 U606 2.847 . S
C610 O624 1.249 . S
C610 O625 1.202 . S
C611 C609 1.363 . S
C611 C613 1.408 . S
C611 C616 1.342 . S
C612 C613 1.310 . S
C612 C615 1.461 . S
C612 H632 0.932 . S
C613 C611 1.408 . S
C613 C612 1.310 . S
C613 H633 0.930 . S
C614 C615 1.474 . S
C614 C616 1.285 . S
C614 H634 0.929 . S
C615 C612 1.461 . S
C615 C614 1.474 . S
C616 C611 1.342 . S
C616 C614 1.285 . S
C616 H635 0.930 . S
C617 C620 1.424 . S
C617 C622 1.245 . S
C617 C623 1.428 . S
C618 C621 1.260 . S
C618 C622 1.477 . S
C618 H636 0.932 . S
C619 C620 1.384 . S
C619 C621 1.479 . S
C619 H637 0.929 . S
C620 C617 1.424 . S
C620 C619 1.384 . S
C620 H638 0.928 . S
C621 C618 1.260 . S
C621 C619 1.479 . S
C622 C617 1.245 . S
C622 C618 1.477 . S
C622 H639 0.932 . S
C623 U606 2.882 . S
C623 C617 1.428 . S
C623 O626 1.301 . S
C623 O627 1.282 . S
O624 U606 2.441 . S
O624 C610 1.249 . S
O625 U606 2.420 . S
O625 C610 1.202 . S
O626 U606 2.455 . S
O626 C623 1.301 . S
O627 U606 2.449 . S
O627 C623 1.282 . S
H628 C601 0.931 . S
H629 C603 0.929 . S
H630 C604 0.930 . S
H631 C605 0.931 . S
H632 C612 0.932 . S
H633 C613 0.930 . S
H634 C614 0.929 . S
H635 C616 0.930 . S
H636 C618 0.932 . S
H637 C619 0.929 . S
H638 C620 0.928 . S
H639 C622 0.932 . S
C640 C641 1.264 . S
C640 C645 1.479 . S
C640 C650 1.465 . S
C641 C640 1.264 . S
C641 C643 1.339 . S
C641 H668 0.931 . S
C642 C643 1.395 . S
C642 C644 1.320 . S
C643 C641 1.339 . S
C643 C642 1.395 . S
C643 H669 0.929 . S
C644 C642 1.320 . S
C644 C645 1.405 . S
C644 H670 0.930 . S
C645 C640 1.479 . S
C645 C644 1.405 . S
C645 H671 0.931 . S
U646 O647 2.454 . S
U646 O648 2.458 . S
U646 C649 2.984 . S
U646 C650 2.847 . S
U646 C663 2.882 . S
U646 O664 2.441 . S
U646 O665 2.420 . S
U646 O666 2.455 . S
U646 O667 2.449 . S
O647 U646 2.454 . S
O647 C649 1.353 . S
O648 U646 2.458 . S
O648 C649 1.286 . S
C649 U646 2.984 . S
C649 O647 1.353 . S
C649 O648 1.286 . S
C649 C651 1.363 . S
C650 C640 1.465 . S
C650 U646 2.847 . S
C650 O664 1.249 . S
C650 O665 1.202 . S
C651 C649 1.363 . S
C651 C653 1.408 . S
C651 C656 1.342 . S
C652 C653 1.310 . S
C652 C655 1.461 . S
C652 H672 0.932 . S
C653 C651 1.408 . S
C653 C652 1.310 . S
C653 H673 0.930 . S
C654 C655 1.474 . S
C654 C656 1.285 . S
C654 H674 0.929 . S
C655 C652 1.461 . S
C655 C654 1.474 . S
C656 C651 1.342 . S
C656 C654 1.285 . S
C656 H675 0.930 . S
C657 C660 1.424 . S
C657 C662 1.245 . S
C657 C663 1.428 . S
C658 C661 1.260 . S
C658 C662 1.477 . S
C658 H676 0.932 . S
C659 C660 1.384 . S
C659 C661 1.479 . S
C659 H677 0.929 . S
C660 C657 1.424 . S
C660 C659 1.384 . S
C660 H678 0.928 . S
C661 C658 1.260 . S
C661 C659 1.479 . S
C662 C657 1.245 . S
C662 C658 1.477 . S
C662 H679 0.932 . S
C663 U646 2.882 . S
C663 C657 1.428 . S
C663 O666 1.301 . S
C663 O667 1.282 . S
O664 U646 2.441 . S
O664 C650 1.249 . S
O665 U646 2.420 . S
O665 C650 1.202 . S
O666 U646 2.455 . S
O666 C663 1.301 . S
O667 U646 2.449 . S
O667 C663 1.282 . S
H668 C641 0.931 . S
H669 C643 0.929 . S
H670 C644 0.930 . S
H671 C645 0.931 . S
H672 C652 0.932 . S
H673 C653 0.930 . S
H674 C654 0.929 . S
H675 C656 0.930 . S
H676 C658 0.932 . S
H677 C659 0.929 . S
H678 C660 0.928 . S
H679 C662 0.932 . S
C680 C681 1.264 . S
C680 C685 1.479 . S
C680 C690 1.465 . S
C681 C680 1.264 . S
C681 C683 1.339 . S
C681 H708 0.931 . S
C682 C683 1.395 . S
C682 C684 1.320 . S
C683 C681 1.339 . S
C683 C682 1.395 . S
C683 H709 0.929 . S
C684 C682 1.320 . S
C684 C685 1.405 . S
C684 H710 0.930 . S
C685 C680 1.479 . S
C685 C684 1.405 . S
C685 H711 0.931 . S
U686 O687 2.454 . S
U686 O688 2.458 . S
U686 C689 2.984 . S
U686 C690 2.847 . S
U686 C703 2.882 . S
U686 O704 2.441 . S
U686 O705 2.420 . S
U686 O706 2.455 . S
U686 O707 2.449 . S
O687 U686 2.454 . S
O687 C689 1.353 . S
O688 U686 2.458 . S
O688 C689 1.286 . S
C689 U686 2.984 . S
C689 O687 1.353 . S
C689 O688 1.286 . S
C689 C691 1.363 . S
C690 C680 1.465 . S
C690 U686 2.847 . S
C690 O704 1.249 . S
C690 O705 1.202 . S
C691 C689 1.363 . S
C691 C693 1.408 . S
C691 C696 1.342 . S
C692 C693 1.310 . S
C692 C695 1.461 . S
C692 H712 0.932 . S
C693 C691 1.408 . S
C693 C692 1.310 . S
C693 H713 0.930 . S
C694 C695 1.474 . S
C694 C696 1.285 . S
C694 H714 0.929 . S
C695 C692 1.461 . S
C695 C694 1.474 . S
C696 C691 1.342 . S
C696 C694 1.285 . S
C696 H715 0.930 . S
C697 C700 1.424 . S
C697 C702 1.245 . S
C697 C703 1.428 . S
C698 C701 1.260 . S
C698 C702 1.477 . S
C698 H716 0.932 . S
C699 C700 1.384 . S
C699 C701 1.479 . S
C699 H717 0.929 . S
C700 C697 1.424 . S
C700 C699 1.384 . S
C700 H718 0.928 . S
C701 C698 1.260 . S
C701 C699 1.479 . S
C702 C697 1.245 . S
C702 C698 1.477 . S
C702 H719 0.932 . S
C703 U686 2.882 . S
C703 C697 1.428 . S
C703 O706 1.301 . S
C703 O707 1.282 . S
O704 U686 2.441 . S
O704 C690 1.249 . S
O705 U686 2.420 . S
O705 C690 1.202 . S
O706 U686 2.455 . S
O706 C703 1.301 . S
O707 U686 2.449 . S
O707 C703 1.282 . S
H708 C681 0.931 . S
H709 C683 0.929 . S
H710 C684 0.930 . S
H711 C685 0.931 . S
H712 C692 0.932 . S
H713 C693 0.930 . S
H714 C694 0.929 . S
H715 C696 0.930 . S
H716 C698 0.932 . S
H717 C699 0.929 . S
H718 C700 0.928 . S
H719 C702 0.932 . S
C720 C721 1.264 . S
C720 C725 1.479 . S
C720 C730 1.465 . S
C721 C720 1.264 . S
C721 C723 1.339 . S
C721 H748 0.931 . S
C722 C723 1.395 . S
C722 C724 1.320 . S
C723 C721 1.339 . S
C723 C722 1.395 . S
C723 H749 0.929 . S
C724 C722 1.320 . S
C724 C725 1.405 . S
C724 H750 0.930 . S
C725 C720 1.479 . S
C725 C724 1.405 . S
C725 H751 0.931 . S
U726 O727 2.454 . S
U726 O728 2.458 . S
U726 C729 2.984 . S
U726 C730 2.847 . S
U726 C743 2.882 . S
U726 O744 2.441 . S
U726 O745 2.420 . S
U726 O746 2.455 . S
U726 O747 2.449 . S
O727 U726 2.454 . S
O727 C729 1.353 . S
O728 U726 2.458 . S
O728 C729 1.286 . S
C729 U726 2.984 . S
C729 O727 1.353 . S
C729 O728 1.286 . S
C729 C731 1.363 . S
C730 C720 1.465 . S
C730 U726 2.847 . S
C730 O744 1.249 . S
C730 O745 1.202 . S
C731 C729 1.363 . S
C731 C733 1.408 . S
C731 C736 1.342 . S
C732 C733 1.310 . S
C732 C735 1.461 . S
C732 H752 0.932 . S
C733 C731 1.408 . S
C733 C732 1.310 . S
C733 H753 0.930 . S
C734 C735 1.474 . S
C734 C736 1.285 . S
C734 H754 0.929 . S
C735 C732 1.461 . S
C735 C734 1.474 . S
C736 C731 1.342 . S
C736 C734 1.285 . S
C736 H755 0.930 . S
C737 C740 1.424 . S
C737 C742 1.245 . S
C737 C743 1.428 . S
C738 C741 1.260 . S
C738 C742 1.477 . S
C738 H756 0.932 . S
C739 C740 1.384 . S
C739 C741 1.479 . S
C739 H757 0.929 . S
C740 C737 1.424 . S
C740 C739 1.384 . S
C740 H758 0.928 . S
C741 C738 1.260 . S
C741 C739 1.479 . S
C742 C737 1.245 . S
C742 C738 1.477 . S
C742 H759 0.932 . S
C743 U726 2.882 . S
C743 C737 1.428 . S
C743 O746 1.301 . S
C743 O747 1.282 . S
O744 U726 2.441 . S
O744 C730 1.249 . S
O745 U726 2.420 . S
O745 C730 1.202 . S
O746 U726 2.455 . S
O746 C743 1.301 . S
O747 U726 2.449 . S
O747 C743 1.282 . S
H748 C721 0.931 . S
H749 C723 0.929 . S
H750 C724 0.930 . S
H751 C725 0.931 . S
H752 C732 0.932 . S
H753 C733 0.930 . S
H754 C734 0.929 . S
H755 C736 0.930 . S
H756 C738 0.932 . S
H757 C739 0.929 . S
H758 C740 0.928 . S
H759 C742 0.932 . S
C760 C761 1.264 . S
C760 C765 1.479 . S
C760 C770 1.465 . S
C761 C760 1.264 . S
C761 C763 1.339 . S
C761 H788 0.931 . S
C762 C763 1.395 . S
C762 C764 1.320 . S
C763 C761 1.339 . S
C763 C762 1.395 . S
C763 H789 0.929 . S
C764 C762 1.320 . S
C764 C765 1.405 . S
C764 H790 0.930 . S
C765 C760 1.479 . S
C765 C764 1.405 . S
C765 H791 0.931 . S
U766 O767 2.454 . S
U766 O768 2.458 . S
U766 C769 2.984 . S
U766 C770 2.847 . S
U766 C783 2.882 . S
U766 O784 2.441 . S
U766 O785 2.420 . S
U766 O786 2.455 . S
U766 O787 2.449 . S
O767 U766 2.454 . S
O767 C769 1.353 . S
O768 U766 2.458 . S
O768 C769 1.286 . S
C769 U766 2.984 . S
C769 O767 1.353 . S
C769 O768 1.286 . S
C769 C771 1.363 . S
C770 C760 1.465 . S
C770 U766 2.847 . S
C770 O784 1.249 . S
C770 O785 1.202 . S
C771 C769 1.363 . S
C771 C773 1.408 . S
C771 C776 1.342 . S
C772 C773 1.310 . S
C772 C775 1.461 . S
C772 H792 0.932 . S
C773 C771 1.408 . S
C773 C772 1.310 . S
C773 H793 0.930 . S
C774 C775 1.474 . S
C774 C776 1.285 . S
C774 H794 0.929 . S
C775 C772 1.461 . S
C775 C774 1.474 . S
C776 C771 1.342 . S
C776 C774 1.285 . S
C776 H795 0.930 . S
C777 C780 1.424 . S
C777 C782 1.245 . S
C777 C783 1.428 . S
C778 C781 1.260 . S
C778 C782 1.477 . S
C778 H796 0.932 . S
C779 C780 1.384 . S
C779 C781 1.479 . S
C779 H797 0.929 . S
C780 C777 1.424 . S
C780 C779 1.384 . S
C780 H798 0.928 . S
C781 C778 1.260 . S
C781 C779 1.479 . S
C782 C777 1.245 . S
C782 C778 1.477 . S
C782 H799 0.932 . S
C783 U766 2.882 . S
C783 C777 1.428 . S
C783 O786 1.301 . S
C783 O787 1.282 . S
O784 U766 2.441 . S
O784 C770 1.249 . S
O785 U766 2.420 . S
O785 C770 1.202 . S
O786 U766 2.455 . S
O786 C783 1.301 . S
O787 U766 2.449 . S
O787 C783 1.282 . S
H788 C761 0.931 . S
H789 C763 0.929 . S
H790 C764 0.930 . S
H791 C765 0.931 . S
H792 C772 0.932 . S
H793 C773 0.930 . S
H794 C774 0.929 . S
H795 C776 0.930 . S
H796 C778 0.932 . S
H797 C779 0.929 . S
H798 C780 0.928 . S
H799 C782 0.932 . S
C800 C801 1.264 . S
C800 C805 1.479 . S
C800 C810 1.465 . S
C801 C800 1.264 . S
C801 C803 1.339 . S
C801 H828 0.931 . S
C802 C803 1.395 . S
C802 C804 1.320 . S
C803 C801 1.339 . S
C803 C802 1.395 . S
C803 H829 0.929 . S
C804 C802 1.320 . S
C804 C805 1.405 . S
C804 H830 0.930 . S
C805 C800 1.479 . S
C805 C804 1.405 . S
C805 H831 0.931 . S
U806 O807 2.454 . S
U806 O808 2.458 . S
U806 C809 2.984 . S
U806 C810 2.847 . S
U806 C823 2.882 . S
U806 O824 2.441 . S
U806 O825 2.420 . S
U806 O826 2.455 . S
U806 O827 2.449 . S
O807 U806 2.454 . S
O807 C809 1.353 . S
O808 U806 2.458 . S
O808 C809 1.286 . S
C809 U806 2.984 . S
C809 O807 1.353 . S
C809 O808 1.286 . S
C809 C811 1.363 . S
C810 C800 1.465 . S
C810 U806 2.847 . S
C810 O824 1.249 . S
C810 O825 1.202 . S
C811 C809 1.363 . S
C811 C813 1.408 . S
C811 C816 1.342 . S
C812 C813 1.310 . S
C812 C815 1.461 . S
C812 H832 0.932 . S
C813 C811 1.408 . S
C813 C812 1.310 . S
C813 H833 0.930 . S
C814 C815 1.474 . S
C814 C816 1.285 . S
C814 H834 0.929 . S
C815 C812 1.461 . S
C815 C814 1.474 . S
C816 C811 1.342 . S
C816 C814 1.285 . S
C816 H835 0.930 . S
C817 C820 1.424 . S
C817 C822 1.245 . S
C817 C823 1.428 . S
C818 C821 1.260 . S
C818 C822 1.477 . S
C818 H836 0.932 . S
C819 C820 1.384 . S
C819 C821 1.479 . S
C819 H837 0.929 . S
C820 C817 1.424 . S
C820 C819 1.384 . S
C820 H838 0.928 . S
C821 C818 1.260 . S
C821 C819 1.479 . S
C822 C817 1.245 . S
C822 C818 1.477 . S
C822 H839 0.932 . S
C823 U806 2.882 . S
C823 C817 1.428 . S
C823 O826 1.301 . S
C823 O827 1.282 . S
O824 U806 2.441 . S
O824 C810 1.249 . S
O825 U806 2.420 . S
O825 C810 1.202 . S
O826 U806 2.455 . S
O826 C823 1.301 . S
O827 U806 2.449 . S
O827 C823 1.282 . S
H828 C801 0.931 . S
H829 C803 0.929 . S
H830 C804 0.930 . S
H831 C805 0.931 . S
H832 C812 0.932 . S
H833 C813 0.930 . S
H834 C814 0.929 . S
H835 C816 0.930 . S
H836 C818 0.932 . S
H837 C819 0.929 . S
H838 C820 0.928 . S
H839 C822 0.932 . S
C840 C841 1.264 . S
C840 C845 1.479 . S
C840 C850 1.465 . S
C841 C840 1.264 . S
C841 C843 1.339 . S
C841 H868 0.931 . S
C842 C843 1.395 . S
C842 C844 1.320 . S
C843 C841 1.339 . S
C843 C842 1.395 . S
C843 H869 0.929 . S
C844 C842 1.320 . S
C844 C845 1.405 . S
C844 H870 0.930 . S
C845 C840 1.479 . S
C845 C844 1.405 . S
C845 H871 0.931 . S
U846 O847 2.454 . S
U846 O848 2.458 . S
U846 C849 2.984 . S
U846 C850 2.847 . S
U846 C863 2.882 . S
U846 O864 2.441 . S
U846 O865 2.420 . S
U846 O866 2.455 . S
U846 O867 2.449 . S
O847 U846 2.454 . S
O847 C849 1.353 . S
O848 U846 2.458 . S
O848 C849 1.286 . S
C849 U846 2.984 . S
C849 O847 1.353 . S
C849 O848 1.286 . S
C849 C851 1.363 . S
C850 C840 1.465 . S
C850 U846 2.847 . S
C850 O864 1.249 . S
C850 O865 1.202 . S
C851 C849 1.363 . S
C851 C853 1.408 . S
C851 C856 1.342 . S
C852 C853 1.310 . S
C852 C855 1.461 . S
C852 H872 0.932 . S
C853 C851 1.408 . S
C853 C852 1.310 . S
C853 H873 0.930 . S
C854 C855 1.474 . S
C854 C856 1.285 . S
C854 H874 0.929 . S
C855 C852 1.461 . S
C855 C854 1.474 . S
C856 C851 1.342 . S
C856 C854 1.285 . S
C856 H875 0.930 . S
C857 C860 1.424 . S
C857 C862 1.245 . S
C857 C863 1.428 . S
C858 C861 1.260 . S
C858 C862 1.477 . S
C858 H876 0.932 . S
C859 C860 1.384 . S
C859 C861 1.479 . S
C859 H877 0.929 . S
C860 C857 1.424 . S
C860 C859 1.384 . S
C860 H878 0.928 . S
C861 C858 1.260 . S
C861 C859 1.479 . S
C862 C857 1.245 . S
C862 C858 1.477 . S
C862 H879 0.932 . S
C863 U846 2.882 . S
C863 C857 1.428 . S
C863 O866 1.301 . S
C863 O867 1.282 . S
O864 U846 2.441 . S
O864 C850 1.249 . S
O865 U846 2.420 . S
O865 C850 1.202 . S
O866 U846 2.455 . S
O866 C863 1.301 . S
O867 U846 2.449 . S
O867 C863 1.282 . S
H868 C841 0.931 . S
H869 C843 0.929 . S
H870 C844 0.930 . S
H871 C845 0.931 . S
H872 C852 0.932 . S
H873 C853 0.930 . S
H874 C854 0.929 . S
H875 C856 0.930 . S
H876 C858 0.932 . S
H877 C859 0.929 . S
H878 C860 0.928 . S
H879 C862 0.932 . S
C880 C881 1.264 . S
C880 C885 1.479 . S
C880 C890 1.465 . S
C881 C880 1.264 . S
C881 C883 1.339 . S
C881 H908 0.931 . S
C882 C883 1.395 . S
C882 C884 1.320 . S
C883 C881 1.339 . S
C883 C882 1.395 . S
C883 H909 0.929 . S
C884 C882 1.320 . S
C884 C885 1.405 . S
C884 H910 0.930 . S
C885 C880 1.479 . S
C885 C884 1.405 . S
C885 H911 0.931 . S
U886 O887 2.454 . S
U886 O888 2.458 . S
U886 C889 2.984 . S
U886 C890 2.847 . S
U886 C903 2.882 . S
U886 O904 2.441 . S
U886 O905 2.420 . S
U886 O906 2.455 . S
U886 O907 2.449 . S
O887 U886 2.454 . S
O887 C889 1.353 . S
O888 U886 2.458 . S
O888 C889 1.286 . S
C889 U886 2.984 . S
C889 O887 1.353 . S
C889 O888 1.286 . S
C889 C891 1.363 . S
C890 C880 1.465 . S
C890 U886 2.847 . S
C890 O904 1.249 . S
C890 O905 1.202 . S
C891 C889 1.363 . S
C891 C893 1.408 . S
C891 C896 1.342 . S
C892 C893 1.310 . S
C892 C895 1.461 . S
C892 H912 0.932 . S
C893 C891 1.408 . S
C893 C892 1.310 . S
C893 H913 0.930 . S
C894 C895 1.474 . S
C894 C896 1.285 . S
C894 H914 0.929 . S
C895 C892 1.461 . S
C895 C894 1.474 . S
C896 C891 1.342 . S
C896 C894 1.285 . S
C896 H915 0.930 . S
C897 C900 1.424 . S
C897 C902 1.245 . S
C897 C903 1.428 . S
C898 C901 1.260 . S
C898 C902 1.477 . S
C898 H916 0.932 . S
C899 C900 1.384 . S
C899 C901 1.479 . S
C899 H917 0.929 . S
C900 C897 1.424 . S
C900 C899 1.384 . S
C900 H918 0.928 . S
C901 C898 1.260 . S
C901 C899 1.479 . S
C902 C897 1.245 . S
C902 C898 1.477 . S
C902 H919 0.932 . S
C903 U886 2.882 . S
C903 C897 1.428 . S
C903 O906 1.301 . S
C903 O907 1.282 . S
O904 U886 2.441 . S
O904 C890 1.249 . S
O905 U886 2.420 . S
O905 C890 1.202 . S
O906 U886 2.455 . S
O906 C903 1.301 . S
O907 U886 2.449 . S
O907 C903 1.282 . S
H908 C881 0.931 . S
H909 C883 0.929 . S
H910 C884 0.930 . S
H911 C885 0.931 . S
H912 C892 0.932 . S
H913 C893 0.930 . S
H914 C894 0.929 . S
H915 C896 0.930 . S
H916 C898 0.932 . S
H917 C899 0.929 . S
H918 C900 0.928 . S
H919 C902 0.932 . S
C920 C921 1.264 . S
C920 C925 1.479 . S
C920 C930 1.465 . S
C921 C920 1.264 . S
C921 C923 1.339 . S
C921 H948 0.931 . S
C922 C923 1.395 . S
C922 C924 1.320 . S
C923 C921 1.339 . S
C923 C922 1.395 . S
C923 H949 0.929 . S
C924 C922 1.320 . S
C924 C925 1.405 . S
C924 H950 0.930 . S
C925 C920 1.479 . S
C925 C924 1.405 . S
C925 H951 0.931 . S
U926 O927 2.454 . S
U926 O928 2.458 . S
U926 C929 2.984 . S
U926 C930 2.847 . S
U926 C943 2.882 . S
U926 O944 2.441 . S
U926 O945 2.420 . S
U926 O946 2.455 . S
U926 O947 2.449 . S
O927 U926 2.454 . S
O927 C929 1.353 . S
O928 U926 2.458 . S
O928 C929 1.286 . S
C929 U926 2.984 . S
C929 O927 1.353 . S
C929 O928 1.286 . S
C929 C931 1.363 . S
C930 C920 1.465 . S
C930 U926 2.847 . S
C930 O944 1.249 . S
C930 O945 1.202 . S
C931 C929 1.363 . S
C931 C933 1.408 . S
C931 C936 1.342 . S
C932 C933 1.310 . S
C932 C935 1.461 . S
C932 H952 0.932 . S
C933 C931 1.408 . S
C933 C932 1.310 . S
C933 H953 0.930 . S
C934 C935 1.474 . S
C934 C936 1.285 . S
C934 H954 0.929 . S
C935 C932 1.461 . S
C935 C934 1.474 . S
C936 C931 1.342 . S
C936 C934 1.285 . S
C936 H955 0.930 . S
C937 C940 1.424 . S
C937 C942 1.245 . S
C937 C943 1.428 . S
C938 C941 1.260 . S
C938 C942 1.477 . S
C938 H956 0.932 . S
C939 C940 1.384 . S
C939 C941 1.479 . S
C939 H957 0.929 . S
C940 C937 1.424 . S
C940 C939 1.384 . S
C940 H958 0.928 . S
C941 C938 1.260 . S
C941 C939 1.479 . S
C942 C937 1.245 . S
C942 C938 1.477 . S
C942 H959 0.932 . S
C943 U926 2.882 . S
C943 C937 1.428 . S
C943 O946 1.301 . S
C943 O947 1.282 . S
O944 U926 2.441 . S
O944 C930 1.249 . S
O945 U926 2.420 . S
O945 C930 1.202 . S
O946 U926 2.455 . S
O946 C943 1.301 . S
O947 U926 2.449 . S
O947 C943 1.282 . S
H948 C921 0.931 . S
H949 C923 0.929 . S
H950 C924 0.930 . S
H951 C925 0.931 . S
H952 C932 0.932 . S
H953 C933 0.930 . S
H954 C934 0.929 . S
H955 C936 0.930 . S
H956 C938 0.932 . S
H957 C939 0.929 . S
H958 C940 0.928 . S
H959 C942 0.932 . S
C960 C961 1.264 . S
C960 C965 1.479 . S
C960 C970 1.465 . S
C961 C960 1.264 . S
C961 C963 1.339 . S
C961 H988 0.931 . S
C962 C963 1.395 . S
C962 C964 1.320 . S
C963 C961 1.339 . S
C963 C962 1.395 . S
C963 H989 0.929 . S
C964 C962 1.320 . S
C964 C965 1.405 . S
C964 H990 0.930 . S
C965 C960 1.479 . S
C965 C964 1.405 . S
C965 H991 0.931 . S
U966 O967 2.454 . S
U966 O968 2.458 . S
U966 C969 2.984 . S
U966 C970 2.847 . S
U966 C983 2.882 . S
U966 O984 2.441 . S
U966 O985 2.420 . S
U966 O986 2.455 . S
U966 O987 2.449 . S
O967 U966 2.454 . S
O967 C969 1.353 . S
O968 U966 2.458 . S
O968 C969 1.286 . S
C969 U966 2.984 . S
C969 O967 1.353 . S
C969 O968 1.286 . S
C969 C971 1.363 . S
C970 C960 1.465 . S
C970 U966 2.847 . S
C970 O984 1.249 . S
C970 O985 1.202 . S
C971 C969 1.363 . S
C971 C973 1.408 . S
C971 C976 1.342 . S
C972 C973 1.310 . S
C972 C975 1.461 . S
C972 H992 0.932 . S
C973 C971 1.408 . S
C973 C972 1.310 . S
C973 H993 0.930 . S
C974 C975 1.474 . S
C974 C976 1.285 . S
C974 H994 0.929 . S
C975 C972 1.461 . S
C975 C974 1.474 . S
C976 C971 1.342 . S
C976 C974 1.285 . S
C976 H995 0.930 . S
C977 C980 1.424 . S
C977 C982 1.245 . S
C977 C983 1.428 . S
C978 C981 1.260 . S
C978 C982 1.477 . S
C978 H996 0.932 . S
C979 C980 1.384 . S
C979 C981 1.479 . S
C979 H997 0.929 . S
C980 C977 1.424 . S
C980 C979 1.384 . S
C980 H998 0.928 . S
C981 C978 1.260 . S
C981 C979 1.479 . S
C982 C977 1.245 . S
C982 C978 1.477 . S
C982 H999 0.932 . S
C983 U966 2.882 . S
C983 C977 1.428 . S
C983 O986 1.301 . S
C983 O987 1.282 . S
O984 U966 2.441 . S
O984 C970 1.249 . S
O985 U966 2.420 . S
O985 C970 1.202 . S
O986 U966 2.455 . S
O986 C983 1.301 . S
O987 U966 2.449 . S
O987 C983 1.282 . S
H988 C961 0.931 . S
H989 C963 0.929 . S
H990 C964 0.930 . S
H991 C965 0.931 . S
H992 C972 0.932 . S
H993 C973 0.930 . S
H994 C974 0.929 . S
H995 C976 0.930 . S
H996 C978 0.932 . S
H997 C979 0.929 . S
H998 C980 0.928 . S
H999 C982 0.932 . S
C1000 C1001 1.264 . S
C1000 C1005 1.479 . S
C1000 C1010 1.465 . S
C1001 C1000 1.264 . S
C1001 C1003 1.339 . S
C1001 H1028 0.931 . S
C1002 C1003 1.395 . S
C1002 C1004 1.320 . S
C1003 C1001 1.339 . S
C1003 C1002 1.395 . S
C1003 H1029 0.929 . S
C1004 C1002 1.320 . S
C1004 C1005 1.405 . S
C1004 H1030 0.930 . S
C1005 C1000 1.479 . S
C1005 C1004 1.405 . S
C1005 H1031 0.931 . S
U1006 O1007 2.454 . S
U1006 O1008 2.458 . S
U1006 C1009 2.984 . S
U1006 C1010 2.847 . S
U1006 C1023 2.882 . S
U1006 O1024 2.441 . S
U1006 O1025 2.420 . S
U1006 O1026 2.455 . S
U1006 O1027 2.449 . S
O1007 U1006 2.454 . S
O1007 C1009 1.353 . S
O1008 U1006 2.458 . S
O1008 C1009 1.286 . S
C1009 U1006 2.984 . S
C1009 O1007 1.353 . S
C1009 O1008 1.286 . S
C1009 C1011 1.363 . S
C1010 C1000 1.465 . S
C1010 U1006 2.847 . S
C1010 O1024 1.249 . S
C1010 O1025 1.202 . S
C1011 C1009 1.363 . S
C1011 C1013 1.408 . S
C1011 C1016 1.342 . S
C1012 C1013 1.310 . S
C1012 C1015 1.461 . S
C1012 H1032 0.932 . S
C1013 C1011 1.408 . S
C1013 C1012 1.310 . S
C1013 H1033 0.930 . S
C1014 C1015 1.474 . S
C1014 C1016 1.285 . S
C1014 H1034 0.929 . S
C1015 C1012 1.461 . S
C1015 C1014 1.474 . S
C1016 C1011 1.342 . S
C1016 C1014 1.285 . S
C1016 H1035 0.930 . S
C1017 C1020 1.424 . S
C1017 C1022 1.245 . S
C1017 C1023 1.428 . S
C1018 C1021 1.260 . S
C1018 C1022 1.477 . S
C1018 H1036 0.932 . S
C1019 C1020 1.384 . S
C1019 C1021 1.479 . S
C1019 H1037 0.929 . S
C1020 C1017 1.424 . S
C1020 C1019 1.384 . S
C1020 H1038 0.928 . S
C1021 C1018 1.260 . S
C1021 C1019 1.479 . S
C1022 C1017 1.245 . S
C1022 C1018 1.477 . S
C1022 H1039 0.932 . S
C1023 U1006 2.882 . S
C1023 C1017 1.428 . S
C1023 O1026 1.301 . S
C1023 O1027 1.282 . S
O1024 U1006 2.441 . S
O1024 C1010 1.249 . S
O1025 U1006 2.420 . S
O1025 C1010 1.202 . S
O1026 U1006 2.455 . S
O1026 C1023 1.301 . S
O1027 U1006 2.449 . S
O1027 C1023 1.282 . S
H1028 C1001 0.931 . S
H1029 C1003 0.929 . S
H1030 C1004 0.930 . S
H1031 C1005 0.931 . S
H1032 C1012 0.932 . S
H1033 C1013 0.930 . S
H1034 C1014 0.929 . S
H1035 C1016 0.930 . S
H1036 C1018 0.932 . S
H1037 C1019 0.929 . S
H1038 C1020 0.928 . S
H1039 C1022 0.932 . S
C1040 C1041 1.264 . S
C1040 C1045 1.479 . S
C1040 C1050 1.465 . S
C1041 C1040 1.264 . S
C1041 C1043 1.339 . S
C1041 H1068 0.931 . S
C1042 C1043 1.395 . S
C1042 C1044 1.320 . S
C1043 C1041 1.339 . S
C1043 C1042 1.395 . S
C1043 H1069 0.929 . S
C1044 C1042 1.320 . S
C1044 C1045 1.405 . S
C1044 H1070 0.930 . S
C1045 C1040 1.479 . S
C1045 C1044 1.405 . S
C1045 H1071 0.931 . S
U1046 O1047 2.454 . S
U1046 O1048 2.458 . S
U1046 C1049 2.984 . S
U1046 C1050 2.847 . S
U1046 C1063 2.882 . S
U1046 O1064 2.441 . S
U1046 O1065 2.420 . S
U1046 O1066 2.455 . S
U1046 O1067 2.449 . S
O1047 U1046 2.454 . S
O1047 C1049 1.353 . S
O1048 U1046 2.458 . S
O1048 C1049 1.286 . S
C1049 U1046 2.984 . S
C1049 O1047 1.353 . S
C1049 O1048 1.286 . S
C1049 C1051 1.363 . S
C1050 C1040 1.465 . S
C1050 U1046 2.847 . S
C1050 O1064 1.249 . S
C1050 O1065 1.202 . S
C1051 C1049 1.363 . S
C1051 C1053 1.408 . S
C1051 C1056 1.342 . S
C1052 C1053 1.310 . S
C1052 C1055 1.461 . S
C1052 H1072 0.932 . S
C1053 C1051 1.408 . S
C1053 C1052 1.310 . S
C1053 H1073 0.930 . S
C1054 C1055 1.474 . S
C1054 C1056 1.285 . S
C1054 H1074 0.929 . S
C1055 C1052 1.461 . S
C1055 C1054 1.474 . S
C1056 C1051 1.342 . S
C1056 C1054 1.285 . S
C1056 H1075 0.930 . S
C1057 C1060 1.424 . S
C1057 C1062 1.245 . S
C1057 C1063 1.428 . S
C1058 C1061 1.260 . S
C1058 C1062 1.477 . S
C1058 H1076 0.932 . S
C1059 C1060 1.384 . S
C1059 C1061 1.479 . S
C1059 H1077 0.929 . S
C1060 C1057 1.424 . S
C1060 C1059 1.384 . S
C1060 H1078 0.928 . S
C1061 C1058 1.260 . S
C1061 C1059 1.479 . S
C1062 C1057 1.245 . S
C1062 C1058 1.477 . S
C1062 H1079 0.932 . S
C1063 U1046 2.882 . S
C1063 C1057 1.428 . S
C1063 O1066 1.301 . S
C1063 O1067 1.282 . S
O1064 U1046 2.441 . S
O1064 C1050 1.249 . S
O1065 U1046 2.420 . S
O1065 C1050 1.202 . S
O1066 U1046 2.455 . S
O1066 C1063 1.301 . S
O1067 U1046 2.449 . S
O1067 C1063 1.282 . S
H1068 C1041 0.931 . S
H1069 C1043 0.929 . S
H1070 C1044 0.930 . S
H1071 C1045 0.931 . S
H1072 C1052 0.932 . S
H1073 C1053 0.930 . S
H1074 C1054 0.929 . S
H1075 C1056 0.930 . S
H1076 C1058 0.932 . S
H1077 C1059 0.929 . S
H1078 C1060 0.928 . S
H1079 C1062 0.932 . S
C1080 C1081 1.264 . S
C1080 C1085 1.479 . S
C1080 C1090 1.465 . S
C1081 C1080 1.264 . S
C1081 C1083 1.339 . S
C1081 H1108 0.931 . S
C1082 C1083 1.395 . S
C1082 C1084 1.320 . S
C1083 C1081 1.339 . S
C1083 C1082 1.395 . S
C1083 H1109 0.929 . S
C1084 C1082 1.320 . S
C1084 C1085 1.405 . S
C1084 H1110 0.930 . S
C1085 C1080 1.479 . S
C1085 C1084 1.405 . S
C1085 H1111 0.931 . S
U1086 O1087 2.454 . S
U1086 O1088 2.458 . S
U1086 C1089 2.984 . S
U1086 C1090 2.847 . S
U1086 C1103 2.882 . S
U1086 O1104 2.441 . S
U1086 O1105 2.420 . S
U1086 O1106 2.455 . S
U1086 O1107 2.449 . S
O1087 U1086 2.454 . S
O1087 C1089 1.353 . S
O1088 U1086 2.458 . S
O1088 C1089 1.286 . S
C1089 U1086 2.984 . S
C1089 O1087 1.353 . S
C1089 O1088 1.286 . S
C1089 C1091 1.363 . S
C1090 C1080 1.465 . S
C1090 U1086 2.847 . S
C1090 O1104 1.249 . S
C1090 O1105 1.202 . S
C1091 C1089 1.363 . S
C1091 C1093 1.408 . S
C1091 C1096 1.342 . S
C1092 C1093 1.310 . S
C1092 C1095 1.461 . S
C1092 H1112 0.932 . S
C1093 C1091 1.408 . S
C1093 C1092 1.310 . S
C1093 H1113 0.930 . S
C1094 C1095 1.474 . S
C1094 C1096 1.285 . S
C1094 H1114 0.929 . S
C1095 C1092 1.461 . S
C1095 C1094 1.474 . S
C1096 C1091 1.342 . S
C1096 C1094 1.285 . S
C1096 H1115 0.930 . S
C1097 C1100 1.424 . S
C1097 C1102 1.245 . S
C1097 C1103 1.428 . S
C1098 C1101 1.260 . S
C1098 C1102 1.477 . S
C1098 H1116 0.932 . S
C1099 C1100 1.384 . S
C1099 C1101 1.479 . S
C1099 H1117 0.929 . S
C1100 C1097 1.424 . S
C1100 C1099 1.384 . S
C1100 H1118 0.928 . S
C1101 C1098 1.260 . S
C1101 C1099 1.479 . S
C1102 C1097 1.245 . S
C1102 C1098 1.477 . S
C1102 H1119 0.932 . S
C1103 U1086 2.882 . S
C1103 C1097 1.428 . S
C1103 O1106 1.301 . S
C1103 O1107 1.282 . S
O1104 U1086 2.441 . S
O1104 C1090 1.249 . S
O1105 U1086 2.420 . S
O1105 C1090 1.202 . S
O1106 U1086 2.455 . S
O1106 C1103 1.301 . S
O1107 U1086 2.449 . S
O1107 C1103 1.282 . S
H1108 C1081 0.931 . S
H1109 C1083 0.929 . S
H1110 C1084 0.930 . S
H1111 C1085 0.931 . S
H1112 C1092 0.932 . S
H1113 C1093 0.930 . S
H1114 C1094 0.929 . S
H1115 C1096 0.930 . S
H1116 C1098 0.932 . S
H1117 C1099 0.929 . S
H1118 C1100 0.928 . S
H1119 C1102 0.932 . S
C1120 C1121 1.264 . S
C1120 C1125 1.479 . S
C1120 C1130 1.465 . S
C1121 C1120 1.264 . S
C1121 C1123 1.339 . S
C1121 H1148 0.931 . S
C1122 C1123 1.395 . S
C1122 C1124 1.320 . S
C1123 C1121 1.339 . S
C1123 C1122 1.395 . S
C1123 H1149 0.929 . S
C1124 C1122 1.320 . S
C1124 C1125 1.405 . S
C1124 H1150 0.930 . S
C1125 C1120 1.479 . S
C1125 C1124 1.405 . S
C1125 H1151 0.931 . S
U1126 O1127 2.454 . S
U1126 O1128 2.458 . S
U1126 C1129 2.984 . S
U1126 C1130 2.847 . S
U1126 C1143 2.882 . S
U1126 O1144 2.441 . S
U1126 O1145 2.420 . S
U1126 O1146 2.455 . S
U1126 O1147 2.449 . S
O1127 U1126 2.454 . S
O1127 C1129 1.353 . S
O1128 U1126 2.458 . S
O1128 C1129 1.286 . S
C1129 U1126 2.984 . S
C1129 O1127 1.353 . S
C1129 O1128 1.286 . S
C1129 C1131 1.363 . S
C1130 C1120 1.465 . S
C1130 U1126 2.847 . S
C1130 O1144 1.249 . S
C1130 O1145 1.202 . S
C1131 C1129 1.363 . S
C1131 C1133 1.408 . S
C1131 C1136 1.342 . S
C1132 C1133 1.310 . S
C1132 C1135 1.461 . S
C1132 H1152 0.932 . S
C1133 C1131 1.408 . S
C1133 C1132 1.310 . S
C1133 H1153 0.930 . S
C1134 C1135 1.474 . S
C1134 C1136 1.285 . S
C1134 H1154 0.929 . S
C1135 C1132 1.461 . S
C1135 C1134 1.474 . S
C1136 C1131 1.342 . S
C1136 C1134 1.285 . S
C1136 H1155 0.930 . S
C1137 C1140 1.424 . S
C1137 C1142 1.245 . S
C1137 C1143 1.428 . S
C1138 C1141 1.260 . S
C1138 C1142 1.477 . S
C1138 H1156 0.932 . S
C1139 C1140 1.384 . S
C1139 C1141 1.479 . S
C1139 H1157 0.929 . S
C1140 C1137 1.424 . S
C1140 C1139 1.384 . S
C1140 H1158 0.928 . S
C1141 C1138 1.260 . S
C1141 C1139 1.479 . S
C1142 C1137 1.245 . S
C1142 C1138 1.477 . S
C1142 H1159 0.932 . S
C1143 U1126 2.882 . S
C1143 C1137 1.428 . S
C1143 O1146 1.301 . S
C1143 O1147 1.282 . S
O1144 U1126 2.441 . S
O1144 C1130 1.249 . S
O1145 U1126 2.420 . S
O1145 C1130 1.202 . S
O1146 U1126 2.455 . S
O1146 C1143 1.301 . S
O1147 U1126 2.449 . S
O1147 C1143 1.282 . S
H1148 C1121 0.931 . S
H1149 C1123 0.929 . S
H1150 C1124 0.930 . S
H1151 C1125 0.931 . S
H1152 C1132 0.932 . S
H1153 C1133 0.930 . S
H1154 C1134 0.929 . S
H1155 C1136 0.930 . S
H1156 C1138 0.932 . S
H1157 C1139 0.929 . S
H1158 C1140 0.928 . S
H1159 C1142 0.932 . S
C1160 C1161 1.264 . S
C1160 C1165 1.479 . S
C1160 C1170 1.465 . S
C1161 C1160 1.264 . S
C1161 C1163 1.339 . S
C1161 H1188 0.931 . S
C1162 C1163 1.395 . S
C1162 C1164 1.320 . S
C1163 C1161 1.339 . S
C1163 C1162 1.395 . S
C1163 H1189 0.929 . S
C1164 C1162 1.320 . S
C1164 C1165 1.405 . S
C1164 H1190 0.930 . S
C1165 C1160 1.479 . S
C1165 C1164 1.405 . S
C1165 H1191 0.931 . S
U1166 O1167 2.454 . S
U1166 O1168 2.458 . S
U1166 C1169 2.984 . S
U1166 C1170 2.847 . S
U1166 C1183 2.882 . S
U1166 O1184 2.441 . S
U1166 O1185 2.420 . S
U1166 O1186 2.455 . S
U1166 O1187 2.449 . S
O1167 U1166 2.454 . S
O1167 C1169 1.353 . S
O1168 U1166 2.458 . S
O1168 C1169 1.286 . S
C1169 U1166 2.984 . S
C1169 O1167 1.353 . S
C1169 O1168 1.286 . S
C1169 C1171 1.363 . S
C1170 C1160 1.465 . S
C1170 U1166 2.847 . S
C1170 O1184 1.249 . S
C1170 O1185 1.202 . S
C1171 C1169 1.363 . S
C1171 C1173 1.408 . S
C1171 C1176 1.342 . S
C1172 C1173 1.310 . S
C1172 C1175 1.461 . S
C1172 H1192 0.932 . S
C1173 C1171 1.408 . S
C1173 C1172 1.310 . S
C1173 H1193 0.930 . S
C1174 C1175 1.474 . S
C1174 C1176 1.285 . S
C1174 H1194 0.929 . S
C1175 C1172 1.461 . S
C1175 C1174 1.474 . S
C1176 C1171 1.342 . S
C1176 C1174 1.285 . S
C1176 H1195 0.930 . S
C1177 C1180 1.424 . S
C1177 C1182 1.245 . S
C1177 C1183 1.428 . S
C1178 C1181 1.260 . S
C1178 C1182 1.477 . S
C1178 H1196 0.932 . S
C1179 C1180 1.384 . S
C1179 C1181 1.479 . S
C1179 H1197 0.929 . S
C1180 C1177 1.424 . S
C1180 C1179 1.384 . S
C1180 H1198 0.928 . S
C1181 C1178 1.260 . S
C1181 C1179 1.479 . S
C1182 C1177 1.245 . S
C1182 C1178 1.477 . S
C1182 H1199 0.932 . S
C1183 U1166 2.882 . S
C1183 C1177 1.428 . S
C1183 O1186 1.301 . S
C1183 O1187 1.282 . S
O1184 U1166 2.441 . S
O1184 C1170 1.249 . S
O1185 U1166 2.420 . S
O1185 C1170 1.202 . S
O1186 U1166 2.455 . S
O1186 C1183 1.301 . S
O1187 U1166 2.449 . S
O1187 C1183 1.282 . S
H1188 C1161 0.931 . S
H1189 C1163 0.929 . S
H1190 C1164 0.930 . S
H1191 C1165 0.931 . S
H1192 C1172 0.932 . S
H1193 C1173 0.930 . S
H1194 C1174 0.929 . S
H1195 C1176 0.930 . S
H1196 C1178 0.932 . S
H1197 C1179 0.929 . S
H1198 C1180 0.928 . S
H1199 C1182 0.932 . S
C1200 C1201 1.264 . S
C1200 C1205 1.479 . S
C1200 C1210 1.465 . S
C1201 C1200 1.264 . S
C1201 C1203 1.339 . S
C1201 H1228 0.931 . S
C1202 C1203 1.395 . S
C1202 C1204 1.320 . S
C1203 C1201 1.339 . S
C1203 C1202 1.395 . S
C1203 H1229 0.929 . S
C1204 C1202 1.320 . S
C1204 C1205 1.405 . S
C1204 H1230 0.930 . S
C1205 C1200 1.479 . S
C1205 C1204 1.405 . S
C1205 H1231 0.931 . S
U1206 O1207 2.454 . S
U1206 O1208 2.458 . S
U1206 C1209 2.984 . S
U1206 C1210 2.847 . S
U1206 C1223 2.882 . S
U1206 O1224 2.441 . S
U1206 O1225 2.420 . S
U1206 O1226 2.455 . S
U1206 O1227 2.449 . S
O1207 U1206 2.454 . S
O1207 C1209 1.353 . S
O1208 U1206 2.458 . S
O1208 C1209 1.286 . S
C1209 U1206 2.984 . S
C1209 O1207 1.353 . S
C1209 O1208 1.286 . S
C1209 C1211 1.363 . S
C1210 C1200 1.465 . S
C1210 U1206 2.847 . S
C1210 O1224 1.249 . S
C1210 O1225 1.202 . S
C1211 C1209 1.363 . S
C1211 C1213 1.408 . S
C1211 C1216 1.342 . S
C1212 C1213 1.310 . S
C1212 C1215 1.461 . S
C1212 H1232 0.932 . S
C1213 C1211 1.408 . S
C1213 C1212 1.310 . S
C1213 H1233 0.930 . S
C1214 C1215 1.474 . S
C1214 C1216 1.285 . S
C1214 H1234 0.929 . S
C1215 C1212 1.461 . S
C1215 C1214 1.474 . S
C1216 C1211 1.342 . S
C1216 C1214 1.285 . S
C1216 H1235 0.930 . S
C1217 C1220 1.424 . S
C1217 C1222 1.245 . S
C1217 C1223 1.428 . S
C1218 C1221 1.260 . S
C1218 C1222 1.477 . S
C1218 H1236 0.932 . S
C1219 C1220 1.384 . S
C1219 C1221 1.479 . S
C1219 H1237 0.929 . S
C1220 C1217 1.424 . S
C1220 C1219 1.384 . S
C1220 H1238 0.928 . S
C1221 C1218 1.260 . S
C1221 C1219 1.479 . S
C1222 C1217 1.245 . S
C1222 C1218 1.477 . S
C1222 H1239 0.932 . S
C1223 U1206 2.882 . S
C1223 C1217 1.428 . S
C1223 O1226 1.301 . S
C1223 O1227 1.282 . S
O1224 U1206 2.441 . S
O1224 C1210 1.249 . S
O1225 U1206 2.420 . S
O1225 C1210 1.202 . S
O1226 U1206 2.455 . S
O1226 C1223 1.301 . S
O1227 U1206 2.449 . S
O1227 C1223 1.282 . S
H1228 C1201 0.931 . S
H1229 C1203 0.929 . S
H1230 C1204 0.930 . S
H1231 C1205 0.931 . S
H1232 C1212 0.932 . S
H1233 C1213 0.930 . S
H1234 C1214 0.929 . S
H1235 C1216 0.930 . S
H1236 C1218 0.932 . S
H1237 C1219 0.929 . S
H1238 C1220 0.928 . S
H1239 C1222 0.932 . S
C1240 C1241 1.264 . S
C1240 C1245 1.479 . S
C1240 C1250 1.465 . S
C1241 C1240 1.264 . S
C1241 C1243 1.339 . S
C1241 H1268 0.931 . S
C1242 C1243 1.395 . S
C1242 C1244 1.320 . S
C1243 C1241 1.339 . S
C1243 C1242 1.395 . S
C1243 H1269 0.929 . S
C1244 C1242 1.320 . S
C1244 C1245 1.405 . S
C1244 H1270 0.930 . S
C1245 C1240 1.479 . S
C1245 C1244 1.405 . S
C1245 H1271 0.931 . S
U1246 O1247 2.454 . S
U1246 O1248 2.458 . S
U1246 C1249 2.984 . S
U1246 C1250 2.847 . S
U1246 C1263 2.882 . S
U1246 O1264 2.441 . S
U1246 O1265 2.420 . S
U1246 O1266 2.455 . S
U1246 O1267 2.449 . S
O1247 U1246 2.454 . S
O1247 C1249 1.353 . S
O1248 U1246 2.458 . S
O1248 C1249 1.286 . S
C1249 U1246 2.984 . S
C1249 O1247 1.353 . S
C1249 O1248 1.286 . S
C1249 C1251 1.363 . S
C1250 C1240 1.465 . S
C1250 U1246 2.847 . S
C1250 O1264 1.249 . S
C1250 O1265 1.202 . S
C1251 C1249 1.363 . S
C1251 C1253 1.408 . S
C1251 C1256 1.342 . S
C1252 C1253 1.310 . S
C1252 C1255 1.461 . S
C1252 H1272 0.932 . S
C1253 C1251 1.408 . S
C1253 C1252 1.310 . S
C1253 H1273 0.930 . S
C1254 C1255 1.474 . S
C1254 C1256 1.285 . S
C1254 H1274 0.929 . S
C1255 C1252 1.461 . S
C1255 C1254 1.474 . S
C1256 C1251 1.342 . S
C1256 C1254 1.285 . S
C1256 H1275 0.930 . S
C1257 C1260 1.424 . S
C1257 C1262 1.245 . S
C1257 C1263 1.428 . S
C1258 C1261 1.260 . S
C1258 C1262 1.477 . S
C1258 H1276 0.932 . S
C1259 C1260 1.384 . S
C1259 C1261 1.479 . S
C1259 H1277 0.929 . S
C1260 C1257 1.424 . S
C1260 C1259 1.384 . S
C1260 H1278 0.928 . S
C1261 C1258 1.260 . S
C1261 C1259 1.479 . S
C1262 C1257 1.245 . S
C1262 C1258 1.477 . S
C1262 H1279 0.932 . S
C1263 U1246 2.882 . S
C1263 C1257 1.428 . S
C1263 O1266 1.301 . S
C1263 O1267 1.282 . S
O1264 U1246 2.441 . S
O1264 C1250 1.249 . S
O1265 U1246 2.420 . S
O1265 C1250 1.202 . S
O1266 U1246 2.455 . S
O1266 C1263 1.301 . S
O1267 U1246 2.449 . S
O1267 C1263 1.282 . S
H1268 C1241 0.931 . S
H1269 C1243 0.929 . S
H1270 C1244 0.930 . S
H1271 C1245 0.931 . S
H1272 C1252 0.932 . S
H1273 C1253 0.930 . S
H1274 C1254 0.929 . S
H1275 C1256 0.930 . S
H1276 C1258 0.932 . S
H1277 C1259 0.929 . S
H1278 C1260 0.928 . S
H1279 C1262 0.932 . S
H1280 C1286 0.930 . S
H1281 C1289 0.931 . S
H1282 C1291 0.931 . S
H1283 C1293 0.930 . S
H1284 C1295 0.930 . S
H1285 C1297 0.931 . S
C1286 H1280 0.930 . S
C1286 C1287 1.380 . S
C1286 C1288 1.394 . S
C1287 C1286 1.380 . S
C1287 C1291 1.382 . S
C1288 C1286 1.394 . S
C1288 C1289 1.400 . S
C1289 H1281 0.931 . S
C1289 C1288 1.400 . S
C1289 C1290 1.375 . S
C1290 C1289 1.375 . S
C1290 C1291 1.415 . S
C1290 C1292 1.501 1_556 S
C1291 H1282 0.931 . S
C1291 C1287 1.382 . S
C1291 C1290 1.415 . S
C1292 C1290 1.501 1_554 S
C1292 C1293 1.384 . S
C1292 C1297 1.408 . S
C1293 H1283 0.930 . S
C1293 C1292 1.384 . S
C1293 C1294 1.389 . S
C1294 C1293 1.389 . S
C1294 C1295 1.405 . S
C1295 H1284 0.930 . S
C1295 C1294 1.405 . S
C1295 C1296 1.364 . S
C1296 C1295 1.364 . S
C1296 C1297 1.400 . S
C1297 H1285 0.931 . S
C1297 C1292 1.408 . S
C1297 C1296 1.400 . S
H1298 C1304 0.930 . S
H1299 C1307 0.931 . S
H1300 C1309 0.931 . S
H1301 C1311 0.930 . S
H1302 C1313 0.930 . S
H1303 C1315 0.931 . S
C1304 H1298 0.930 . S
C1304 C1305 1.380 . S
C1304 C1306 1.394 . S
C1305 C1304 1.380 . S
C1305 C1309 1.382 . S
C1306 C1304 1.394 . S
C1306 C1307 1.400 . S
C1307 H1299 0.931 . S
C1307 C1306 1.400 . S
C1307 C1308 1.375 . S
C1308 C1307 1.375 . S
C1308 C1309 1.415 . S
C1308 C1310 1.553 . S
C1309 H1300 0.931 . S
C1309 C1305 1.382 . S
C1309 C1308 1.415 . S
C1310 C1308 1.553 . S
C1310 C1311 1.357 1_554 S
C1310 C1315 1.382 1_554 S
C1311 H1301 0.930 . S
C1311 C1310 1.357 1_556 S
C1311 C1312 1.389 . S
C1312 C1311 1.389 . S
C1312 C1313 1.405 . S
C1313 H1302 0.930 . S
C1313 C1312 1.405 . S
C1313 C1314 1.364 . S
C1314 C1313 1.364 . S
C1314 C1315 1.400 . S
C1315 H1303 0.931 . S
C1315 C1310 1.382 1_556 S
C1315 C1314 1.400 . S
H1316 C1322 0.930 . S
H1317 C1325 0.931 . S
H1318 C1327 0.931 . S
H1319 C1329 0.930 . S
H1320 C1331 0.930 . S
H1321 C1333 0.931 . S
C1322 H1316 0.930 . S
C1322 C1323 1.380 . S
C1322 C1324 1.394 . S
C1323 C1322 1.380 . S
C1323 C1327 1.382 . S
C1324 C1322 1.394 . S
C1324 C1325 1.400 . S
C1325 H1317 0.931 . S
C1325 C1324 1.400 . S
C1325 C1326 1.375 . S
C1326 C1325 1.375 . S
C1326 C1327 1.415 . S
C1326 C1328 1.501 1_556 S
C1327 H1318 0.931 . S
C1327 C1323 1.382 . S
C1327 C1326 1.415 . S
C1328 C1326 1.501 1_554 S
C1328 C1329 1.384 . S
C1328 C1333 1.408 . S
C1329 H1319 0.930 . S
C1329 C1328 1.384 . S
C1329 C1330 1.389 . S
C1330 C1329 1.389 . S
C1330 C1331 1.405 . S
C1331 H1320 0.930 . S
C1331 C1330 1.405 . S
C1331 C1332 1.364 . S
C1332 C1331 1.364 . S
C1332 C1333 1.400 . S
C1333 H1321 0.931 . S
C1333 C1328 1.408 . S
C1333 C1332 1.400 . S
H1334 C1340 0.930 . S
H1335 C1343 0.931 . S
H1336 C1345 0.931 . S
H1337 C1347 0.930 . S
H1338 C1349 0.930 . S
H1339 C1351 0.931 . S
C1340 H1334 0.930 . S
C1340 C1341 1.380 . S
C1340 C1342 1.394 . S
C1341 C1340 1.380 . S
C1341 C1345 1.382 . S
C1342 C1340 1.394 . S
C1342 C1343 1.400 . S
C1343 H1335 0.931 . S
C1343 C1342 1.400 . S
C1343 C1344 1.375 . S
C1344 C1343 1.375 . S
C1344 C1345 1.415 . S
C1344 C1346 1.550 . S
C1345 H1336 0.931 . S
C1345 C1341 1.382 . S
C1345 C1344 1.415 . S
C1346 C1344 1.550 . S
C1346 C1347 1.359 1_554 S
C1346 C1351 1.383 1_554 S
C1347 H1337 0.930 . S
C1347 C1346 1.359 1_556 S
C1347 C1348 1.389 . S
C1348 C1347 1.389 . S
C1348 C1349 1.405 . S
C1349 H1338 0.930 . S
C1349 C1348 1.405 . S
C1349 C1350 1.364 . S
C1350 C1349 1.364 . S
C1350 C1351 1.400 . S
C1351 H1339 0.931 . S
C1351 C1346 1.383 1_556 S
C1351 C1350 1.400 . S
H1352 C1358 0.930 . S
H1353 C1361 0.931 . S
H1354 C1363 0.931 . S
H1355 C1365 0.930 . S
H1356 C1367 0.930 . S
H1357 C1369 0.931 . S
C1358 H1352 0.930 . S
C1358 C1359 1.380 . S
C1358 C1360 1.394 . S
C1359 C1358 1.380 . S
C1359 C1363 1.382 . S
C1360 C1358 1.394 . S
C1360 C1361 1.400 . S
C1361 H1353 0.931 . S
C1361 C1360 1.400 . S
C1361 C1362 1.375 . S
C1362 C1361 1.375 . S
C1362 C1363 1.415 . S
C1362 C1364 1.501 1_455 S
C1363 H1354 0.931 . S
C1363 C1359 1.382 . S
C1363 C1362 1.415 . S
C1364 C1362 1.501 1_655 S
C1364 C1365 1.384 . S
C1364 C1369 1.408 . S
C1365 H1355 0.930 . S
C1365 C1364 1.384 . S
C1365 C1366 1.389 . S
C1366 C1365 1.389 . S
C1366 C1367 1.405 . S
C1367 H1356 0.930 . S
C1367 C1366 1.405 . S
C1367 C1368 1.364 . S
C1368 C1367 1.364 . S
C1368 C1369 1.400 . S
C1369 H1357 0.931 . S
C1369 C1364 1.408 . S
C1369 C1368 1.400 . S
H1370 C1376 0.930 . S
H1371 C1379 0.931 . S
H1372 C1381 0.931 . S
H1373 C1383 0.930 . S
H1374 C1385 0.930 . S
H1375 C1387 0.931 . S
C1376 H1370 0.930 . S
C1376 C1377 1.380 . S
C1376 C1378 1.394 . S
C1377 C1376 1.380 . S
C1377 C1381 1.382 . S
C1378 C1376 1.394 . S
C1378 C1379 1.400 . S
C1379 H1371 0.931 . S
C1379 C1378 1.400 . S
C1379 C1380 1.375 . S
C1380 C1379 1.375 . S
C1380 C1381 1.415 . S
C1380 C1382 1.501 1_565 S
C1381 H1372 0.931 . S
C1381 C1377 1.382 . S
C1381 C1380 1.415 . S
C1382 C1380 1.501 1_545 S
C1382 C1383 1.384 . S
C1382 C1387 1.408 . S
C1383 H1373 0.930 . S
C1383 C1382 1.384 . S
C1383 C1384 1.389 . S
C1384 C1383 1.389 . S
C1384 C1385 1.405 . S
C1385 H1374 0.930 . S
C1385 C1384 1.405 . S
C1385 C1386 1.364 . S
C1386 C1385 1.364 . S
C1386 C1387 1.400 . S
C1387 H1375 0.931 . S
C1387 C1382 1.408 . S
C1387 C1386 1.400 . S
H1388 C1394 0.930 . S
H1389 C1397 0.931 . S
H1390 C1399 0.931 . S
H1391 C1401 0.930 . S
H1392 C1403 0.930 . S
H1393 C1405 0.931 . S
C1394 H1388 0.930 . S
C1394 C1395 1.380 . S
C1394 C1396 1.394 . S
C1395 C1394 1.380 . S
C1395 C1399 1.382 . S
C1396 C1394 1.394 . S
C1396 C1397 1.400 . S
C1397 H1389 0.931 . S
C1397 C1396 1.400 . S
C1397 C1398 1.375 . S
C1398 C1397 1.375 . S
C1398 C1399 1.415 . S
C1398 C1400 1.501 1_455 S
C1399 H1390 0.931 . S
C1399 C1395 1.382 . S
C1399 C1398 1.415 . S
C1400 C1398 1.501 1_655 S
C1400 C1401 1.384 . S
C1400 C1405 1.408 . S
C1401 H1391 0.930 . S
C1401 C1400 1.384 . S
C1401 C1402 1.389 . S
C1402 C1401 1.389 . S
C1402 C1403 1.405 . S
C1403 H1392 0.930 . S
C1403 C1402 1.405 . S
C1403 C1404 1.364 . S
C1404 C1403 1.364 . S
C1404 C1405 1.400 . S
C1405 H1393 0.931 . S
C1405 C1400 1.408 . S
C1405 C1404 1.400 . S
H1406 C1412 0.930 . S
H1407 C1415 0.931 . S
H1408 C1417 0.931 . S
H1409 C1419 0.930 . S
H1410 C1421 0.930 . S
H1411 C1423 0.931 . S
C1412 H1406 0.930 . S
C1412 C1413 1.380 . S
C1412 C1414 1.394 . S
C1413 C1412 1.380 . S
C1413 C1417 1.382 . S
C1414 C1412 1.394 . S
C1414 C1415 1.400 . S
C1415 H1407 0.931 . S
C1415 C1414 1.400 . S
C1415 C1416 1.375 . S
C1416 C1415 1.375 . S
C1416 C1417 1.415 . S
C1416 C1418 1.501 1_545 S
C1417 H1408 0.931 . S
C1417 C1413 1.382 . S
C1417 C1416 1.415 . S
C1418 C1416 1.501 1_565 S
C1418 C1419 1.384 . S
C1418 C1423 1.408 . S
C1419 H1409 0.930 . S
C1419 C1418 1.384 . S
C1419 C1420 1.389 . S
C1420 C1419 1.389 . S
C1420 C1421 1.405 . S
C1421 H1410 0.930 . S
C1421 C1420 1.405 . S
C1421 C1422 1.364 . S
C1422 C1421 1.364 . S
C1422 C1423 1.400 . S
C1423 H1411 0.931 . S
C1423 C1418 1.408 . S
C1423 C1422 1.400 . S
H1424 C1430 0.930 . S
H1425 C1433 0.931 . S
H1426 C1435 0.931 . S
H1427 C1437 0.930 . S
H1428 C1439 0.930 . S
H1429 C1441 0.931 . S
C1430 H1424 0.930 . S
C1430 C1431 1.380 . S
C1430 C1432 1.394 . S
C1431 C1430 1.380 . S
C1431 C1435 1.382 . S
C1432 C1430 1.394 . S
C1432 C1433 1.400 . S
C1433 H1425 0.931 . S
C1433 C1432 1.400 . S
C1433 C1434 1.375 . S
C1434 C1433 1.375 . S
C1434 C1435 1.415 . S
C1434 C1436 1.501 1_455 S
C1435 H1426 0.931 . S
C1435 C1431 1.382 . S
C1435 C1434 1.415 . S
C1436 C1434 1.501 1_655 S
C1436 C1437 1.384 . S
C1436 C1441 1.408 . S
C1437 H1427 0.930 . S
C1437 C1436 1.384 . S
C1437 C1438 1.389 . S
C1438 C1437 1.389 . S
C1438 C1439 1.405 . S
C1439 H1428 0.930 . S
C1439 C1438 1.405 . S
C1439 C1440 1.364 . S
C1440 C1439 1.364 . S
C1440 C1441 1.400 . S
C1441 H1429 0.931 . S
C1441 C1436 1.408 . S
C1441 C1440 1.400 . S
H1442 C1448 0.930 . S
H1443 C1451 0.931 . S
H1444 C1453 0.931 . S
H1445 C1455 0.930 . S
H1446 C1457 0.930 . S
H1447 C1459 0.931 . S
C1448 H1442 0.930 . S
C1448 C1449 1.380 . S
C1448 C1450 1.394 . S
C1449 C1448 1.380 . S
C1449 C1453 1.382 . S
C1450 C1448 1.394 . S
C1450 C1451 1.400 . S
C1451 H1443 0.931 . S
C1451 C1450 1.400 . S
C1451 C1452 1.375 . S
C1452 C1451 1.375 . S
C1452 C1453 1.415 . S
C1452 C1454 1.501 1_565 S
C1453 H1444 0.931 . S
C1453 C1449 1.382 . S
C1453 C1452 1.415 . S
C1454 C1452 1.501 1_545 S
C1454 C1455 1.384 . S
C1454 C1459 1.408 . S
C1455 H1445 0.930 . S
C1455 C1454 1.384 . S
C1455 C1456 1.389 . S
C1456 C1455 1.389 . S
C1456 C1457 1.405 . S
C1457 H1446 0.930 . S
C1457 C1456 1.405 . S
C1457 C1458 1.364 . S
C1458 C1457 1.364 . S
C1458 C1459 1.400 . S
C1459 H1447 0.931 . S
C1459 C1454 1.408 . S
C1459 C1458 1.400 . S
H1460 C1466 0.930 . S
H1461 C1469 0.931 . S
H1462 C1471 0.931 . S
H1463 C1473 0.930 . S
H1464 C1475 0.930 . S
H1465 C1477 0.931 . S
C1466 H1460 0.930 . S
C1466 C1467 1.380 . S
C1466 C1468 1.394 . S
C1467 C1466 1.380 . S
C1467 C1471 1.382 . S
C1468 C1466 1.394 . S
C1468 C1469 1.400 . S
C1469 H1461 0.931 . S
C1469 C1468 1.400 . S
C1469 C1470 1.375 . S
C1470 C1469 1.375 . S
C1470 C1471 1.415 . S
C1470 C1472 1.501 1_455 S
C1471 H1462 0.931 . S
C1471 C1467 1.382 . S
C1471 C1470 1.415 . S
C1472 C1470 1.501 1_655 S
C1472 C1473 1.384 . S
C1472 C1477 1.408 . S
C1473 H1463 0.930 . S
C1473 C1472 1.384 . S
C1473 C1474 1.389 . S
C1474 C1473 1.389 . S
C1474 C1475 1.405 . S
C1475 H1464 0.930 . S
C1475 C1474 1.405 . S
C1475 C1476 1.364 . S
C1476 C1475 1.364 . S
C1476 C1477 1.400 . S
C1477 H1465 0.931 . S
C1477 C1472 1.408 . S
C1477 C1476 1.400 . S
H1478 C1484 0.930 . S
H1479 C1487 0.931 . S
H1480 C1489 0.931 . S
H1481 C1491 0.930 . S
H1482 C1493 0.930 . S
H1483 C1495 0.931 . S
C1484 H1478 0.930 . S
C1484 C1485 1.380 . S
C1484 C1486 1.394 . S
C1485 C1484 1.380 . S
C1485 C1489 1.382 . S
C1486 C1484 1.394 . S
C1486 C1487 1.400 . S
C1487 H1479 0.931 . S
C1487 C1486 1.400 . S
C1487 C1488 1.375 . S
C1488 C1487 1.375 . S
C1488 C1489 1.415 . S
C1488 C1490 1.501 1_545 S
C1489 H1480 0.931 . S
C1489 C1485 1.382 . S
C1489 C1488 1.415 . S
C1490 C1488 1.501 1_565 S
C1490 C1491 1.384 . S
C1490 C1495 1.408 . S
C1491 H1481 0.930 . S
C1491 C1490 1.384 . S
C1491 C1492 1.389 . S
C1492 C1491 1.389 . S
C1492 C1493 1.405 . S
C1493 H1482 0.930 . S
C1493 C1492 1.405 . S
C1493 C1494 1.364 . S
C1494 C1493 1.364 . S
C1494 C1495 1.400 . S
C1495 H1483 0.931 . S
C1495 C1490 1.408 . S
C1495 C1494 1.400 . S
H1496 C1502 0.930 . S
H1497 C1505 0.931 . S
H1498 C1507 0.931 . S
H1499 C1509 0.930 . S
H1500 C1511 0.930 . S
H1501 C1513 0.931 . S
C1502 H1496 0.930 . S
C1502 C1503 1.380 . S
C1502 C1504 1.394 . S
C1503 C1502 1.380 . S
C1503 C1507 1.382 . S
C1504 C1502 1.394 . S
C1504 C1505 1.400 . S
C1505 H1497 0.931 . S
C1505 C1504 1.400 . S
C1505 C1506 1.375 . S
C1506 C1505 1.375 . S
C1506 C1507 1.415 . S
C1506 C1508 1.501 . S
C1507 H1498 0.931 . S
C1507 C1503 1.382 . S
C1507 C1506 1.415 . S
C1508 C1506 1.501 . S
C1508 C1509 1.384 . S
C1508 C1513 1.408 . S
C1509 H1499 0.930 . S
C1509 C1508 1.384 . S
C1509 C1510 1.389 . S
C1510 C1509 1.389 . S
C1510 C1511 1.405 . S
C1511 H1500 0.930 . S
C1511 C1510 1.405 . S
C1511 C1512 1.364 . S
C1512 C1511 1.364 . S
C1512 C1513 1.400 . S
C1513 H1501 0.931 . S
C1513 C1508 1.408 . S
C1513 C1512 1.400 . S
H1514 C1520 0.930 . S
H1515 C1523 0.931 . S
H1516 C1525 0.931 . S
H1517 C1527 0.930 . S
H1518 C1529 0.930 . S
H1519 C1531 0.931 . S
C1520 H1514 0.930 . S
C1520 C1521 1.380 . S
C1520 C1522 1.394 . S
C1521 C1520 1.380 . S
C1521 C1525 1.382 . S
C1522 C1520 1.394 . S
C1522 C1523 1.400 . S
C1523 H1515 0.931 . S
C1523 C1522 1.400 . S
C1523 C1524 1.375 . S
C1524 C1523 1.375 . S
C1524 C1525 1.415 . S
C1524 C1526 1.501 . S
C1525 H1516 0.931 . S
C1525 C1521 1.382 . S
C1525 C1524 1.415 . S
C1526 C1524 1.501 . S
C1526 C1527 1.384 . S
C1526 C1531 1.408 . S
C1527 H1517 0.930 . S
C1527 C1526 1.384 . S
C1527 C1528 1.389 . S
C1528 C1527 1.389 . S
C1528 C1529 1.405 . S
C1529 H1518 0.930 . S
C1529 C1528 1.405 . S
C1529 C1530 1.364 . S
C1530 C1529 1.364 . S
C1530 C1531 1.400 . S
C1531 H1519 0.931 . S
C1531 C1526 1.408 . S
C1531 C1530 1.400 . S
H1532 C1538 0.930 . S
H1533 C1541 0.931 . S
H1534 C1543 0.931 . S
H1535 C1545 0.930 . S
H1536 C1547 0.930 . S
H1537 C1549 0.931 . S
C1538 H1532 0.930 . S
C1538 C1539 1.380 . S
C1538 C1540 1.394 . S
C1539 C1538 1.380 . S
C1539 C1543 1.382 . S
C1540 C1538 1.394 . S
C1540 C1541 1.400 . S
C1541 H1533 0.931 . S
C1541 C1540 1.400 . S
C1541 C1542 1.375 . S
C1542 C1541 1.375 . S
C1542 C1543 1.415 . S
C1542 C1544 1.501 . S
C1543 H1534 0.931 . S
C1543 C1539 1.382 . S
C1543 C1542 1.415 . S
C1544 C1542 1.501 . S
C1544 C1545 1.384 . S
C1544 C1549 1.408 . S
C1545 H1535 0.930 . S
C1545 C1544 1.384 . S
C1545 C1546 1.389 . S
C1546 C1545 1.389 . S
C1546 C1547 1.405 . S
C1547 H1536 0.930 . S
C1547 C1546 1.405 . S
C1547 C1548 1.364 . S
C1548 C1547 1.364 . S
C1548 C1549 1.400 . S
C1549 H1537 0.931 . S
C1549 C1544 1.408 . S
C1549 C1548 1.400 . S
H1550 C1556 0.930 . S
H1551 C1559 0.931 . S
H1552 C1561 0.931 . S
H1553 C1563 0.930 . S
H1554 C1565 0.930 . S
H1555 C1567 0.931 . S
C1556 H1550 0.930 . S
C1556 C1557 1.380 . S
C1556 C1558 1.394 . S
C1557 C1556 1.380 . S
C1557 C1561 1.382 . S
C1558 C1556 1.394 . S
C1558 C1559 1.400 . S
C1559 H1551 0.931 . S
C1559 C1558 1.400 . S
C1559 C1560 1.375 . S
C1560 C1559 1.375 . S
C1560 C1561 1.415 . S
C1560 C1562 1.501 . S
C1561 H1552 0.931 . S
C1561 C1557 1.382 . S
C1561 C1560 1.415 . S
C1562 C1560 1.501 . S
C1562 C1563 1.384 . S
C1562 C1567 1.408 . S
C1563 H1553 0.930 . S
C1563 C1562 1.384 . S
C1563 C1564 1.389 . S
C1564 C1563 1.389 . S
C1564 C1565 1.405 . S
C1565 H1554 0.930 . S
C1565 C1564 1.405 . S
C1565 C1566 1.364 . S
C1566 C1565 1.364 . S
C1566 C1567 1.400 . S
C1567 H1555 0.931 . S
C1567 C1562 1.408 . S
C1567 C1566 1.400 . S
H1568 C1574 0.930 . S
H1569 C1577 0.931 . S
H1570 C1579 0.931 . S
H1571 C1581 0.930 . S
H1572 C1583 0.930 . S
H1573 C1585 0.931 . S
C1574 H1568 0.930 . S
C1574 C1575 1.380 . S
C1574 C1576 1.394 . S
C1575 C1574 1.380 . S
C1575 C1579 1.382 . S
C1576 C1574 1.394 . S
C1576 C1577 1.400 . S
C1577 H1569 0.931 . S
C1577 C1576 1.400 . S
C1577 C1578 1.375 . S
C1578 C1577 1.375 . S
C1578 C1579 1.415 . S
C1578 C1580 1.501 . S
C1579 H1570 0.931 . S
C1579 C1575 1.382 . S
C1579 C1578 1.415 . S
C1580 C1578 1.501 . S
C1580 C1581 1.384 . S
C1580 C1585 1.408 . S
C1581 H1571 0.930 . S
C1581 C1580 1.384 . S
C1581 C1582 1.389 . S
C1582 C1581 1.389 . S
C1582 C1583 1.405 . S
C1583 H1572 0.930 . S
C1583 C1582 1.405 . S
C1583 C1584 1.364 . S
C1584 C1583 1.364 . S
C1584 C1585 1.400 . S
C1585 H1573 0.931 . S
C1585 C1580 1.408 . S
C1585 C1584 1.400 . S
H1586 C1592 0.930 . S
H1587 C1595 0.931 . S
H1588 C1597 0.931 . S
H1589 C1599 0.930 . S
H1590 C1601 0.930 . S
H1591 C1603 0.931 . S
C1592 H1586 0.930 . S
C1592 C1593 1.380 . S
C1592 C1594 1.394 . S
C1593 C1592 1.380 . S
C1593 C1597 1.382 . S
C1594 C1592 1.394 . S
C1594 C1595 1.400 . S
C1595 H1587 0.931 . S
C1595 C1594 1.400 . S
C1595 C1596 1.375 . S
C1596 C1595 1.375 . S
C1596 C1597 1.415 . S
C1596 C1598 1.501 . S
C1597 H1588 0.931 . S
C1597 C1593 1.382 . S
C1597 C1596 1.415 . S
C1598 C1596 1.501 . S
C1598 C1599 1.384 . S
C1598 C1603 1.408 . S
C1599 H1589 0.930 . S
C1599 C1598 1.384 . S
C1599 C1600 1.389 . S
C1600 C1599 1.389 . S
C1600 C1601 1.405 . S
C1601 H1590 0.930 . S
C1601 C1600 1.405 . S
C1601 C1602 1.364 . S
C1602 C1601 1.364 . S
C1602 C1603 1.400 . S
C1603 H1591 0.931 . S
C1603 C1598 1.408 . S
C1603 C1602 1.400 . S
H1604 C1610 0.930 . S
H1605 C1613 0.931 . S
H1606 C1615 0.931 . S
H1607 C1617 0.930 . S
H1608 C1619 0.930 . S
H1609 C1621 0.931 . S
C1610 H1604 0.930 . S
C1610 C1611 1.380 . S
C1610 C1612 1.394 . S
C1611 C1610 1.380 . S
C1611 C1615 1.382 . S
C1612 C1610 1.394 . S
C1612 C1613 1.400 . S
C1613 H1605 0.931 . S
C1613 C1612 1.400 . S
C1613 C1614 1.375 . S
C1614 C1613 1.375 . S
C1614 C1615 1.415 . S
C1614 C1616 1.501 . S
C1615 H1606 0.931 . S
C1615 C1611 1.382 . S
C1615 C1614 1.415 . S
C1616 C1614 1.501 . S
C1616 C1617 1.384 . S
C1616 C1621 1.408 . S
C1617 H1607 0.930 . S
C1617 C1616 1.384 . S
C1617 C1618 1.389 . S
C1618 C1617 1.389 . S
C1618 C1619 1.405 . S
C1619 H1608 0.930 . S
C1619 C1618 1.405 . S
C1619 C1620 1.364 . S
C1620 C1619 1.364 . S
C1620 C1621 1.400 . S
C1621 H1609 0.931 . S
C1621 C1616 1.408 . S
C1621 C1620 1.400 . S
H1622 C1628 0.930 . S
H1623 C1631 0.931 . S
H1624 C1633 0.931 . S
H1625 C1635 0.930 . S
H1626 C1637 0.930 . S
H1627 C1639 0.931 . S
C1628 H1622 0.930 . S
C1628 C1629 1.380 . S
C1628 C1630 1.394 . S
C1629 C1628 1.380 . S
C1629 C1633 1.382 . S
C1630 C1628 1.394 . S
C1630 C1631 1.400 . S
C1631 H1623 0.931 . S
C1631 C1630 1.400 . S
C1631 C1632 1.375 . S
C1632 C1631 1.375 . S
C1632 C1633 1.415 . S
C1632 C1634 1.501 . S
C1633 H1624 0.931 . S
C1633 C1629 1.382 . S
C1633 C1632 1.415 . S
C1634 C1632 1.501 . S
C1634 C1635 1.384 . S
C1634 C1639 1.408 . S
C1635 H1625 0.930 . S
C1635 C1634 1.384 . S
C1635 C1636 1.389 . S
C1636 C1635 1.389 . S
C1636 C1637 1.405 . S
C1637 H1626 0.930 . S
C1637 C1636 1.405 . S
C1637 C1638 1.364 . S
C1638 C1637 1.364 . S
C1638 C1639 1.400 . S
C1639 H1627 0.931 . S
C1639 C1634 1.408 . S
C1639 C1638 1.400 . S
H1640 C1646 0.930 . S
H1641 C1649 0.931 . S
H1642 C1651 0.931 . S
H1643 C1653 0.930 . S
H1644 C1655 0.930 . S
H1645 C1657 0.931 . S
C1646 H1640 0.930 . S
C1646 C1647 1.380 . S
C1646 C1648 1.394 . S
C1647 C1646 1.380 . S
C1647 C1651 1.382 . S
C1648 C1646 1.394 . S
C1648 C1649 1.400 . S
C1649 H1641 0.931 . S
C1649 C1648 1.400 . S
C1649 C1650 1.375 . S
C1650 C1649 1.375 . S
C1650 C1651 1.415 . S
C1650 C1652 1.501 . S
C1651 H1642 0.931 . S
C1651 C1647 1.382 . S
C1651 C1650 1.415 . S
C1652 C1650 1.501 . S
C1652 C1653 1.384 . S
C1652 C1657 1.408 . S
C1653 H1643 0.930 . S
C1653 C1652 1.384 . S
C1653 C1654 1.389 . S
C1654 C1653 1.389 . S
C1654 C1655 1.405 . S
C1655 H1644 0.930 . S
C1655 C1654 1.405 . S
C1655 C1656 1.364 . S
C1656 C1655 1.364 . S
C1656 C1657 1.400 . S
C1657 H1645 0.931 . S
C1657 C1652 1.408 . S
C1657 C1656 1.400 . S
H1658 C1664 0.930 . S
H1659 C1667 0.931 . S
H1660 C1669 0.931 . S
H1661 C1671 0.930 . S
H1662 C1673 0.930 . S
H1663 C1675 0.931 . S
C1664 H1658 0.930 . S
C1664 C1665 1.380 . S
C1664 C1666 1.394 . S
C1665 C1664 1.380 . S
C1665 C1669 1.382 . S
C1666 C1664 1.394 . S
C1666 C1667 1.400 . S
C1667 H1659 0.931 . S
C1667 C1666 1.400 . S
C1667 C1668 1.375 . S
C1668 C1667 1.375 . S
C1668 C1669 1.415 . S
C1668 C1670 1.501 . S
C1669 H1660 0.931 . S
C1669 C1665 1.382 . S
C1669 C1668 1.415 . S
C1670 C1668 1.501 . S
C1670 C1671 1.384 . S
C1670 C1675 1.408 . S
C1671 H1661 0.930 . S
C1671 C1670 1.384 . S
C1671 C1672 1.389 . S
C1672 C1671 1.389 . S
C1672 C1673 1.405 . S
C1673 H1662 0.930 . S
C1673 C1672 1.405 . S
C1673 C1674 1.364 . S
C1674 C1673 1.364 . S
C1674 C1675 1.400 . S
C1675 H1663 0.931 . S
C1675 C1670 1.408 . S
C1675 C1674 1.400 . S
H1676 C1682 0.930 . S
H1677 C1685 0.931 . S
H1678 C1687 0.931 . S
H1679 C1689 0.930 . S
H1680 C1691 0.930 . S
H1681 C1693 0.931 . S
C1682 H1676 0.930 . S
C1682 C1683 1.380 . S
C1682 C1684 1.394 . S
C1683 C1682 1.380 . S
C1683 C1687 1.382 . S
C1684 C1682 1.394 . S
C1684 C1685 1.400 . S
C1685 H1677 0.931 . S
C1685 C1684 1.400 . S
C1685 C1686 1.375 . S
C1686 C1685 1.375 . S
C1686 C1687 1.415 . S
C1686 C1688 1.501 . S
C1687 H1678 0.931 . S
C1687 C1683 1.382 . S
C1687 C1686 1.415 . S
C1688 C1686 1.501 . S
C1688 C1689 1.384 . S
C1688 C1693 1.408 . S
C1689 H1679 0.930 . S
C1689 C1688 1.384 . S
C1689 C1690 1.389 . S
C1690 C1689 1.389 . S
C1690 C1691 1.405 . S
C1691 H1680 0.930 . S
C1691 C1690 1.405 . S
C1691 C1692 1.364 . S
C1692 C1691 1.364 . S
C1692 C1693 1.400 . S
C1693 H1681 0.931 . S
C1693 C1688 1.408 . S
C1693 C1692 1.400 . S
H1694 C1700 0.930 . S
H1695 C1703 0.931 . S
H1696 C1705 0.931 . S
H1697 C1707 0.930 . S
H1698 C1709 0.930 . S
H1699 C1711 0.931 . S
C1700 H1694 0.930 . S
C1700 C1701 1.380 . S
C1700 C1702 1.394 . S
C1701 C1700 1.380 . S
C1701 C1705 1.382 . S
C1702 C1700 1.394 . S
C1702 C1703 1.400 . S
C1703 H1695 0.931 . S
C1703 C1702 1.400 . S
C1703 C1704 1.375 . S
C1704 C1703 1.375 . S
C1704 C1705 1.415 . S
C1704 C1706 1.501 . S
C1705 H1696 0.931 . S
C1705 C1701 1.382 . S
C1705 C1704 1.415 . S
C1706 C1704 1.501 . S
C1706 C1707 1.384 . S
C1706 C1711 1.408 . S
C1707 H1697 0.930 . S
C1707 C1706 1.384 . S
C1707 C1708 1.389 . S
C1708 C1707 1.389 . S
C1708 C1709 1.405 . S
C1709 H1698 0.930 . S
C1709 C1708 1.405 . S
C1709 C1710 1.364 . S
C1710 C1709 1.364 . S
C1710 C1711 1.400 . S
C1711 H1699 0.931 . S
C1711 C1706 1.408 . S
C1711 C1710 1.400 . S
H1712 C1720 0.929 . S
H1713 C1722 0.930 . S
H1714 C1724 0.930 . S
H1715 C1727 0.929 . S
H1716 C1730 0.930 . S
H1717 C1732 0.960 . S
H1718 C1732 0.960 . S
H1719 C1732 0.960 . S
C1720 H1712 0.929 . S
C1720 C1721 1.377 . S
C1720 C1722 1.384 . S
C1721 C1720 1.377 . S
C1721 C1727 1.390 . S
C1722 H1713 0.930 . S
C1722 C1720 1.384 . S
C1722 C1723 1.372 . S
C1723 C1722 1.372 . S
C1723 C1724 1.400 . S
C1723 C1728 1.490 . S
C1724 H1714 0.930 . S
C1724 C1723 1.400 . S
C1724 C1727 1.386 . S
H1725 C1741 0.930 . S
H1726 C1742 0.931 . S
C1727 H1715 0.929 . S
C1727 C1721 1.390 . S
C1727 C1724 1.386 . S
C1728 C1723 1.490 . S
C1728 C1730 1.395 . S
C1728 C1731 1.403 . S
H1729 C1735 0.930 . S
C1730 H1716 0.930 . S
C1730 C1728 1.395 . S
C1730 C1733 1.403 . S
C1731 C1728 1.403 . S
C1731 C1732 1.524 . S
C1731 C1735 1.400 . S
C1732 H1717 0.960 . S
C1732 H1718 0.960 . S
C1732 H1719 0.960 . S
C1732 C1731 1.524 . S
C1733 C1730 1.403 . S
C1733 C1734 1.392 . S
C1733 C1737 1.495 . S
C1734 C1733 1.392 . S
C1734 C1735 1.385 . S
C1734 C1736 1.478 . S
C1735 H1729 0.930 . S
C1735 C1731 1.400 . S
C1735 C1734 1.385 . S
C1736 C1734 1.478 . S
C1736 C1738 1.381 . S
C1736 C1742 1.383 . S
C1737 C1733 1.495 . S
C1737 H1743 0.959 . S
C1737 H1744 0.961 . S
C1737 H1745 0.960 . S
C1738 C1736 1.381 . S
C1738 C1739 1.394 . S
C1738 H1746 0.930 . S
C1739 C1738 1.394 . S
C1739 C1740 1.383 . S
C1739 H1747 0.929 . S
C1740 C1739 1.383 . S
C1740 C1741 1.377 . S
C1741 H1725 0.930 . S
C1741 C1740 1.377 . S
C1741 C1742 1.379 . S
C1742 H1726 0.931 . S
C1742 C1736 1.383 . S
C1742 C1741 1.379 . S
H1743 C1737 0.959 . S
H1744 C1737 0.961 . S
H1745 C1737 0.960 . S
H1746 C1738 0.930 . S
H1747 C1739 0.929 . S
H1748 C1756 0.929 . S
H1749 C1758 0.930 . S
H1750 C1760 0.930 . S
H1751 C1763 0.929 . S
H1752 C1766 0.930 . S
H1753 C1768 0.960 . S
H1754 C1768 0.960 . S
H1755 C1768 0.960 . S
C1756 H1748 0.929 . S
C1756 C1757 1.377 . S
C1756 C1758 1.384 . S
C1757 C1756 1.377 . S
C1757 C1763 1.390 . S
C1758 H1749 0.930 . S
C1758 C1756 1.384 . S
C1758 C1759 1.372 . S
C1759 C1758 1.372 . S
C1759 C1760 1.400 . S
C1759 C1764 1.490 . S
C1760 H1750 0.930 . S
C1760 C1759 1.400 . S
C1760 C1763 1.386 . S
H1761 C1777 0.930 . S
H1762 C1778 0.931 . S
C1763 H1751 0.929 . S
C1763 C1757 1.390 . S
C1763 C1760 1.386 . S
C1764 C1759 1.490 . S
C1764 C1766 1.395 . S
C1764 C1767 1.403 . S
H1765 C1771 0.930 . S
C1766 H1752 0.930 . S
C1766 C1764 1.395 . S
C1766 C1769 1.403 . S
C1767 C1764 1.403 . S
C1767 C1768 1.524 . S
C1767 C1771 1.400 . S
C1768 H1753 0.960 . S
C1768 H1754 0.960 . S
C1768 H1755 0.960 . S
C1768 C1767 1.524 . S
C1769 C1766 1.403 . S
C1769 C1770 1.392 . S
C1769 C1773 1.495 . S
C1770 C1769 1.392 . S
C1770 C1771 1.385 . S
C1770 C1772 1.478 . S
C1771 H1765 0.930 . S
C1771 C1767 1.400 . S
C1771 C1770 1.385 . S
C1772 C1770 1.478 . S
C1772 C1774 1.381 . S
C1772 C1778 1.383 . S
C1773 C1769 1.495 . S
C1773 H1779 0.959 . S
C1773 H1780 0.961 . S
C1773 H1781 0.960 . S
C1774 C1772 1.381 . S
C1774 C1775 1.394 . S
C1774 H1782 0.930 . S
C1775 C1774 1.394 . S
C1775 C1776 1.383 . S
C1775 H1783 0.929 . S
C1776 C1775 1.383 . S
C1776 C1777 1.377 . S
C1777 H1761 0.930 . S
C1777 C1776 1.377 . S
C1777 C1778 1.379 . S
C1778 H1762 0.931 . S
C1778 C1772 1.383 . S
C1778 C1777 1.379 . S
H1779 C1773 0.959 . S
H1780 C1773 0.961 . S
H1781 C1773 0.960 . S
H1782 C1774 0.930 . S
H1783 C1775 0.929 . S
H1784 C1792 0.929 . S
H1785 C1794 0.930 . S
H1786 C1796 0.930 . S
H1787 C1799 0.929 . S
H1788 C1802 0.930 . S
H1789 C1804 0.960 . S
H1790 C1804 0.960 . S
H1791 C1804 0.960 . S
C1792 H1784 0.929 . S
C1792 C1793 1.377 . S
C1792 C1794 1.384 . S
C1793 C1792 1.377 . S
C1793 C1799 1.390 . S
C1794 H1785 0.930 . S
C1794 C1792 1.384 . S
C1794 C1795 1.372 . S
C1795 C1794 1.372 . S
C1795 C1796 1.400 . S
C1795 C1800 1.490 . S
C1796 H1786 0.930 . S
C1796 C1795 1.400 . S
C1796 C1799 1.386 . S
H1797 C1813 0.930 . S
H1798 C1814 0.931 . S
C1799 H1787 0.929 . S
C1799 C1793 1.390 . S
C1799 C1796 1.386 . S
C1800 C1795 1.490 . S
C1800 C1802 1.395 . S
C1800 C1803 1.403 . S
H1801 C1807 0.930 . S
C1802 H1788 0.930 . S
C1802 C1800 1.395 . S
C1802 C1805 1.403 . S
C1803 C1800 1.403 . S
C1803 C1804 1.524 . S
C1803 C1807 1.400 . S
C1804 H1789 0.960 . S
C1804 H1790 0.960 . S
C1804 H1791 0.960 . S
C1804 C1803 1.524 . S
C1805 C1802 1.403 . S
C1805 C1806 1.392 . S
C1805 C1809 1.495 . S
C1806 C1805 1.392 . S
C1806 C1807 1.385 . S
C1806 C1808 1.478 . S
C1807 H1801 0.930 . S
C1807 C1803 1.400 . S
C1807 C1806 1.385 . S
C1808 C1806 1.478 . S
C1808 C1810 1.381 . S
C1808 C1814 1.383 . S
C1809 C1805 1.495 . S
C1809 H1815 0.959 . S
C1809 H1816 0.961 . S
C1809 H1817 0.960 . S
C1810 C1808 1.381 . S
C1810 C1811 1.394 . S
C1810 H1818 0.930 . S
C1811 C1810 1.394 . S
C1811 C1812 1.383 . S
C1811 H1819 0.929 . S
C1812 C1811 1.383 . S
C1812 C1813 1.377 . S
C1813 H1797 0.930 . S
C1813 C1812 1.377 . S
C1813 C1814 1.379 . S
C1814 H1798 0.931 . S
C1814 C1808 1.383 . S
C1814 C1813 1.379 . S
H1815 C1809 0.959 . S
H1816 C1809 0.961 . S
H1817 C1809 0.960 . S
H1818 C1810 0.930 . S
H1819 C1811 0.929 . S
H1820 C1828 0.929 . S
H1821 C1830 0.930 . S
H1822 C1832 0.930 . S
H1823 C1835 0.929 . S
H1824 C1838 0.930 . S
H1825 C1840 0.960 . S
H1826 C1840 0.960 . S
H1827 C1840 0.960 . S
C1828 H1820 0.929 . S
C1828 C1829 1.377 . S
C1828 C1830 1.384 . S
C1829 C1828 1.377 . S
C1829 C1835 1.390 . S
C1830 H1821 0.930 . S
C1830 C1828 1.384 . S
C1830 C1831 1.372 . S
C1831 C1830 1.372 . S
C1831 C1832 1.400 . S
C1831 C1836 1.490 . S
C1832 H1822 0.930 . S
C1832 C1831 1.400 . S
C1832 C1835 1.386 . S
H1833 C1849 0.930 . S
H1834 C1850 0.931 . S
C1835 H1823 0.929 . S
C1835 C1829 1.390 . S
C1835 C1832 1.386 . S
C1836 C1831 1.490 . S
C1836 C1838 1.395 . S
C1836 C1839 1.403 . S
H1837 C1843 0.930 . S
C1838 H1824 0.930 . S
C1838 C1836 1.395 . S
C1838 C1841 1.403 . S
C1839 C1836 1.403 . S
C1839 C1840 1.524 . S
C1839 C1843 1.400 . S
C1840 H1825 0.960 . S
C1840 H1826 0.960 . S
C1840 H1827 0.960 . S
C1840 C1839 1.524 . S
C1841 C1838 1.403 . S
C1841 C1842 1.392 . S
C1841 C1845 1.495 . S
C1842 C1841 1.392 . S
C1842 C1843 1.385 . S
C1842 C1844 1.478 . S
C1843 H1837 0.930 . S
C1843 C1839 1.400 . S
C1843 C1842 1.385 . S
C1844 C1842 1.478 . S
C1844 C1846 1.381 . S
C1844 C1850 1.383 . S
C1845 C1841 1.495 . S
C1845 H1851 0.959 . S
C1845 H1852 0.961 . S
C1845 H1853 0.960 . S
C1846 C1844 1.381 . S
C1846 C1847 1.394 . S
C1846 H1854 0.930 . S
C1847 C1846 1.394 . S
C1847 C1848 1.383 . S
C1847 H1855 0.929 . S
C1848 C1847 1.383 . S
C1848 C1849 1.377 . S
C1849 H1833 0.930 . S
C1849 C1848 1.377 . S
C1849 C1850 1.379 . S
C1850 H1834 0.931 . S
C1850 C1844 1.383 . S
C1850 C1849 1.379 . S
H1851 C1845 0.959 . S
H1852 C1845 0.961 . S
H1853 C1845 0.960 . S
H1854 C1846 0.930 . S
H1855 C1847 0.929 . S
H1856 C1864 0.929 . S
H1857 C1866 0.930 . S
H1858 C1868 0.930 . S
H1859 C1871 0.929 . S
H1860 C1874 0.930 . S
H1861 C1876 0.960 . S
H1862 C1876 0.960 . S
H1863 C1876 0.960 . S
C1864 H1856 0.929 . S
C1864 C1865 1.377 . S
C1864 C1866 1.384 . S
C1865 C1864 1.377 . S
C1865 C1871 1.390 . S
C1866 H1857 0.930 . S
C1866 C1864 1.384 . S
C1866 C1867 1.372 . S
C1867 C1866 1.372 . S
C1867 C1868 1.400 . S
C1867 C1872 1.490 . S
C1868 H1858 0.930 . S
C1868 C1867 1.400 . S
C1868 C1871 1.386 . S
H1869 C1885 0.930 . S
H1870 C1886 0.931 . S
C1871 H1859 0.929 . S
C1871 C1865 1.390 . S
C1871 C1868 1.386 . S
C1872 C1867 1.490 . S
C1872 C1874 1.395 . S
C1872 C1875 1.403 . S
H1873 C1879 0.930 . S
C1874 H1860 0.930 . S
C1874 C1872 1.395 . S
C1874 C1877 1.403 . S
C1875 C1872 1.403 . S
C1875 C1876 1.524 . S
C1875 C1879 1.400 . S
C1876 H1861 0.960 . S
C1876 H1862 0.960 . S
C1876 H1863 0.960 . S
C1876 C1875 1.524 . S
C1877 C1874 1.403 . S
C1877 C1878 1.392 . S
C1877 C1881 1.495 . S
C1878 C1877 1.392 . S
C1878 C1879 1.385 . S
C1878 C1880 1.478 . S
C1879 H1873 0.930 . S
C1879 C1875 1.400 . S
C1879 C1878 1.385 . S
C1880 C1878 1.478 . S
C1880 C1882 1.381 . S
C1880 C1886 1.383 . S
C1881 C1877 1.495 . S
C1881 H1887 0.959 . S
C1881 H1888 0.961 . S
C1881 H1889 0.960 . S
C1882 C1880 1.381 . S
C1882 C1883 1.394 . S
C1882 H1890 0.930 . S
C1883 C1882 1.394 . S
C1883 C1884 1.383 . S
C1883 H1891 0.929 . S
C1884 C1883 1.383 . S
C1884 C1885 1.377 . S
C1885 H1869 0.930 . S
C1885 C1884 1.377 . S
C1885 C1886 1.379 . S
C1886 H1870 0.931 . S
C1886 C1880 1.383 . S
C1886 C1885 1.379 . S
H1887 C1881 0.959 . S
H1888 C1881 0.961 . S
H1889 C1881 0.960 . S
H1890 C1882 0.930 . S
H1891 C1883 0.929 . S
H1892 C1900 0.929 . S
H1893 C1902 0.930 . S
H1894 C1904 0.930 . S
H1895 C1907 0.929 . S
H1896 C1910 0.930 . S
H1897 C1912 0.960 . S
H1898 C1912 0.960 . S
H1899 C1912 0.960 . S
C1900 H1892 0.929 . S
C1900 C1901 1.377 . S
C1900 C1902 1.384 . S
C1901 C1900 1.377 . S
C1901 C1907 1.390 . S
C1902 H1893 0.930 . S
C1902 C1900 1.384 . S
C1902 C1903 1.372 . S
C1903 C1902 1.372 . S
C1903 C1904 1.400 . S
C1903 C1908 1.490 . S
C1904 H1894 0.930 . S
C1904 C1903 1.400 . S
C1904 C1907 1.386 . S
H1905 C1921 0.930 . S
H1906 C1922 0.931 . S
C1907 H1895 0.929 . S
C1907 C1901 1.390 . S
C1907 C1904 1.386 . S
C1908 C1903 1.490 . S
C1908 C1910 1.395 . S
C1908 C1911 1.403 . S
H1909 C1915 0.930 . S
C1910 H1896 0.930 . S
C1910 C1908 1.395 . S
C1910 C1913 1.403 . S
C1911 C1908 1.403 . S
C1911 C1912 1.524 . S
C1911 C1915 1.400 . S
C1912 H1897 0.960 . S
C1912 H1898 0.960 . S
C1912 H1899 0.960 . S
C1912 C1911 1.524 . S
C1913 C1910 1.403 . S
C1913 C1914 1.392 . S
C1913 C1917 1.495 . S
C1914 C1913 1.392 . S
C1914 C1915 1.385 . S
C1914 C1916 1.478 . S
C1915 H1909 0.930 . S
C1915 C1911 1.400 . S
C1915 C1914 1.385 . S
C1916 C1914 1.478 . S
C1916 C1918 1.381 . S
C1916 C1922 1.383 . S
C1917 C1913 1.495 . S
C1917 H1923 0.959 . S
C1917 H1924 0.961 . S
C1917 H1925 0.960 . S
C1918 C1916 1.381 . S
C1918 C1919 1.394 . S
C1918 H1926 0.930 . S
C1919 C1918 1.394 . S
C1919 C1920 1.383 . S
C1919 H1927 0.929 . S
C1920 C1919 1.383 . S
C1920 C1921 1.377 . S
C1921 H1905 0.930 . S
C1921 C1920 1.377 . S
C1921 C1922 1.379 . S
C1922 H1906 0.931 . S
C1922 C1916 1.383 . S
C1922 C1921 1.379 . S
H1923 C1917 0.959 . S
H1924 C1917 0.961 . S
H1925 C1917 0.960 . S
H1926 C1918 0.930 . S
H1927 C1919 0.929 . S
H1928 C1936 0.929 . S
H1929 C1938 0.930 . S
H1930 C1940 0.930 . S
H1931 C1943 0.929 . S
H1932 C1946 0.930 . S
H1933 C1948 0.960 . S
H1934 C1948 0.960 . S
H1935 C1948 0.960 . S
C1936 H1928 0.929 . S
C1936 C1937 1.377 . S
C1936 C1938 1.384 . S
C1937 C1936 1.377 . S
C1937 C1943 1.390 . S
C1938 H1929 0.930 . S
C1938 C1936 1.384 . S
C1938 C1939 1.372 . S
C1939 C1938 1.372 . S
C1939 C1940 1.400 . S
C1939 C1944 1.490 . S
C1940 H1930 0.930 . S
C1940 C1939 1.400 . S
C1940 C1943 1.386 . S
H1941 C1957 0.930 . S
H1942 C1958 0.931 . S
C1943 H1931 0.929 . S
C1943 C1937 1.390 . S
C1943 C1940 1.386 . S
C1944 C1939 1.490 . S
C1944 C1946 1.395 . S
C1944 C1947 1.403 . S
H1945 C1951 0.930 . S
C1946 H1932 0.930 . S
C1946 C1944 1.395 . S
C1946 C1949 1.403 . S
C1947 C1944 1.403 . S
C1947 C1948 1.524 . S
C1947 C1951 1.400 . S
C1948 H1933 0.960 . S
C1948 H1934 0.960 . S
C1948 H1935 0.960 . S
C1948 C1947 1.524 . S
C1949 C1946 1.403 . S
C1949 C1950 1.392 . S
C1949 C1953 1.495 . S
C1950 C1949 1.392 . S
C1950 C1951 1.385 . S
C1950 C1952 1.478 . S
C1951 H1945 0.930 . S
C1951 C1947 1.400 . S
C1951 C1950 1.385 . S
C1952 C1950 1.478 . S
C1952 C1954 1.381 . S
C1952 C1958 1.383 . S
C1953 C1949 1.495 . S
C1953 H1959 0.959 . S
C1953 H1960 0.961 . S
C1953 H1961 0.960 . S
C1954 C1952 1.381 . S
C1954 C1955 1.394 . S
C1954 H1962 0.930 . S
C1955 C1954 1.394 . S
C1955 C1956 1.383 . S
C1955 H1963 0.929 . S
C1956 C1955 1.383 . S
C1956 C1957 1.377 . S
C1957 H1941 0.930 . S
C1957 C1956 1.377 . S
C1957 C1958 1.379 . S
C1958 H1942 0.931 . S
C1958 C1952 1.383 . S
C1958 C1957 1.379 . S
H1959 C1953 0.959 . S
H1960 C1953 0.961 . S
H1961 C1953 0.960 . S
H1962 C1954 0.930 . S
H1963 C1955 0.929 . S
H1964 C1972 0.929 . S
H1965 C1974 0.930 . S
H1966 C1976 0.930 . S
H1967 C1979 0.929 . S
H1968 C1982 0.930 . S
H1969 C1984 0.960 . S
H1970 C1984 0.960 . S
H1971 C1984 0.960 . S
C1972 H1964 0.929 . S
C1972 C1973 1.377 . S
C1972 C1974 1.384 . S
C1973 C1972 1.377 . S
C1973 C1979 1.390 . S
C1974 H1965 0.930 . S
C1974 C1972 1.384 . S
C1974 C1975 1.372 . S
C1975 C1974 1.372 . S
C1975 C1976 1.400 . S
C1975 C1980 1.490 . S
C1976 H1966 0.930 . S
C1976 C1975 1.400 . S
C1976 C1979 1.386 . S
H1977 C1993 0.930 . S
H1978 C1994 0.931 . S
C1979 H1967 0.929 . S
C1979 C1973 1.390 . S
C1979 C1976 1.386 . S
C1980 C1975 1.490 . S
C1980 C1982 1.395 . S
C1980 C1983 1.403 . S
H1981 C1987 0.930 . S
C1982 H1968 0.930 . S
C1982 C1980 1.395 . S
C1982 C1985 1.403 . S
C1983 C1980 1.403 . S
C1983 C1984 1.524 . S
C1983 C1987 1.400 . S
C1984 H1969 0.960 . S
C1984 H1970 0.960 . S
C1984 H1971 0.960 . S
C1984 C1983 1.524 . S
C1985 C1982 1.403 . S
C1985 C1986 1.392 . S
C1985 C1989 1.495 . S
C1986 C1985 1.392 . S
C1986 C1987 1.385 . S
C1986 C1988 1.478 . S
C1987 H1981 0.930 . S
C1987 C1983 1.400 . S
C1987 C1986 1.385 . S
C1988 C1986 1.478 . S
C1988 C1990 1.381 . S
C1988 C1994 1.383 . S
C1989 C1985 1.495 . S
C1989 H1995 0.959 . S
C1989 H1996 0.961 . S
C1989 H1997 0.960 . S
C1990 C1988 1.381 . S
C1990 C1991 1.394 . S
C1990 H1998 0.930 . S
C1991 C1990 1.394 . S
C1991 C1992 1.383 . S
C1991 H1999 0.929 . S
C1992 C1991 1.383 . S
C1992 C1993 1.377 . S
C1993 H1977 0.930 . S
C1993 C1992 1.377 . S
C1993 C1994 1.379 . S
C1994 H1978 0.931 . S
C1994 C1988 1.383 . S
C1994 C1993 1.379 . S
H1995 C1989 0.959 . S
H1996 C1989 0.961 . S
H1997 C1989 0.960 . S
H1998 C1990 0.930 . S
H1999 C1991 0.929 . S
H2000 C2008 0.929 . S
H2001 C2010 0.930 . S
H2002 C2012 0.930 . S
H2003 C2015 0.929 . S
H2004 C2018 0.930 . S
H2005 C2020 0.960 . S
H2006 C2020 0.960 . S
H2007 C2020 0.960 . S
C2008 H2000 0.929 . S
C2008 C2009 1.377 . S
C2008 C2010 1.384 . S
C2009 C2008 1.377 . S
C2009 C2015 1.390 . S
C2010 H2001 0.930 . S
C2010 C2008 1.384 . S
C2010 C2011 1.372 . S
C2011 C2010 1.372 . S
C2011 C2012 1.400 . S
C2011 C2016 1.490 . S
C2012 H2002 0.930 . S
C2012 C2011 1.400 . S
C2012 C2015 1.386 . S
H2013 C2029 0.930 . S
H2014 C2030 0.931 . S
C2015 H2003 0.929 . S
C2015 C2009 1.390 . S
C2015 C2012 1.386 . S
C2016 C2011 1.490 . S
C2016 C2018 1.395 . S
C2016 C2019 1.403 . S
H2017 C2023 0.930 . S
C2018 H2004 0.930 . S
C2018 C2016 1.395 . S
C2018 C2021 1.403 . S
C2019 C2016 1.403 . S
C2019 C2020 1.524 . S
C2019 C2023 1.400 . S
C2020 H2005 0.960 . S
C2020 H2006 0.960 . S
C2020 H2007 0.960 . S
C2020 C2019 1.524 . S
C2021 C2018 1.403 . S
C2021 C2022 1.392 . S
C2021 C2025 1.495 . S
C2022 C2021 1.392 . S
C2022 C2023 1.385 . S
C2022 C2024 1.478 . S
C2023 H2017 0.930 . S
C2023 C2019 1.400 . S
C2023 C2022 1.385 . S
C2024 C2022 1.478 . S
C2024 C2026 1.381 . S
C2024 C2030 1.383 . S
C2025 C2021 1.495 . S
C2025 H2031 0.959 . S
C2025 H2032 0.961 . S
C2025 H2033 0.960 . S
C2026 C2024 1.381 . S
C2026 C2027 1.394 . S
C2026 H2034 0.930 . S
C2027 C2026 1.394 . S
C2027 C2028 1.383 . S
C2027 H2035 0.929 . S
C2028 C2027 1.383 . S
C2028 C2029 1.377 . S
C2029 H2013 0.930 . S
C2029 C2028 1.377 . S
C2029 C2030 1.379 . S
C2030 H2014 0.931 . S
C2030 C2024 1.383 . S
C2030 C2029 1.379 . S
H2031 C2025 0.959 . S
H2032 C2025 0.961 . S
H2033 C2025 0.960 . S
H2034 C2026 0.930 . S
H2035 C2027 0.929 . S
H2036 C2044 0.929 . S
H2037 C2046 0.930 . S
H2038 C2048 0.930 . S
H2039 C2051 0.929 . S
H2040 C2054 0.930 . S
H2041 C2056 0.960 . S
H2042 C2056 0.960 . S
H2043 C2056 0.960 . S
C2044 H2036 0.929 . S
C2044 C2045 1.377 . S
C2044 C2046 1.384 . S
C2045 C2044 1.377 . S
C2045 C2051 1.390 . S
C2046 H2037 0.930 . S
C2046 C2044 1.384 . S
C2046 C2047 1.372 . S
C2047 C2046 1.372 . S
C2047 C2048 1.400 . S
C2047 C2052 1.490 . S
C2048 H2038 0.930 . S
C2048 C2047 1.400 . S
C2048 C2051 1.386 . S
H2049 C2065 0.930 . S
H2050 C2066 0.931 . S
C2051 H2039 0.929 . S
C2051 C2045 1.390 . S
C2051 C2048 1.386 . S
C2052 C2047 1.490 . S
C2052 C2054 1.395 . S
C2052 C2055 1.403 . S
H2053 C2059 0.930 . S
C2054 H2040 0.930 . S
C2054 C2052 1.395 . S
C2054 C2057 1.403 . S
C2055 C2052 1.403 . S
C2055 C2056 1.524 . S
C2055 C2059 1.400 . S
C2056 H2041 0.960 . S
C2056 H2042 0.960 . S
C2056 H2043 0.960 . S
C2056 C2055 1.524 . S
C2057 C2054 1.403 . S
C2057 C2058 1.392 . S
C2057 C2061 1.495 . S
C2058 C2057 1.392 . S
C2058 C2059 1.385 . S
C2058 C2060 1.478 . S
C2059 H2053 0.930 . S
C2059 C2055 1.400 . S
C2059 C2058 1.385 . S
C2060 C2058 1.478 . S
C2060 C2062 1.381 . S
C2060 C2066 1.383 . S
C2061 C2057 1.495 . S
C2061 H2067 0.959 . S
C2061 H2068 0.961 . S
C2061 H2069 0.960 . S
C2062 C2060 1.381 . S
C2062 C2063 1.394 . S
C2062 H2070 0.930 . S
C2063 C2062 1.394 . S
C2063 C2064 1.383 . S
C2063 H2071 0.929 . S
C2064 C2063 1.383 . S
C2064 C2065 1.377 . S
C2065 H2049 0.930 . S
C2065 C2064 1.377 . S
C2065 C2066 1.379 . S
C2066 H2050 0.931 . S
C2066 C2060 1.383 . S
C2066 C2065 1.379 . S
H2067 C2061 0.959 . S
H2068 C2061 0.961 . S
H2069 C2061 0.960 . S
H2070 C2062 0.930 . S
H2071 C2063 0.929 . S
H2072 C2080 0.929 . S
H2073 C2082 0.930 . S
H2074 C2084 0.930 . S
H2075 C2087 0.929 . S
H2076 C2090 0.930 . S
H2077 C2092 0.960 . S
H2078 C2092 0.960 . S
H2079 C2092 0.960 . S
C2080 H2072 0.929 . S
C2080 C2081 1.377 . S
C2080 C2082 1.384 . S
C2081 C2080 1.377 . S
C2081 C2087 1.390 . S
C2082 H2073 0.930 . S
C2082 C2080 1.384 . S
C2082 C2083 1.372 . S
C2083 C2082 1.372 . S
C2083 C2084 1.400 . S
C2083 C2088 1.490 . S
C2084 H2074 0.930 . S
C2084 C2083 1.400 . S
C2084 C2087 1.386 . S
H2085 C2101 0.930 . S
H2086 C2102 0.931 . S
C2087 H2075 0.929 . S
C2087 C2081 1.390 . S
C2087 C2084 1.386 . S
C2088 C2083 1.490 . S
C2088 C2090 1.395 . S
C2088 C2091 1.403 . S
H2089 C2095 0.930 . S
C2090 H2076 0.930 . S
C2090 C2088 1.395 . S
C2090 C2093 1.403 . S
C2091 C2088 1.403 . S
C2091 C2092 1.524 . S
C2091 C2095 1.400 . S
C2092 H2077 0.960 . S
C2092 H2078 0.960 . S
C2092 H2079 0.960 . S
C2092 C2091 1.524 . S
C2093 C2090 1.403 . S
C2093 C2094 1.392 . S
C2093 C2097 1.495 . S
C2094 C2093 1.392 . S
C2094 C2095 1.385 . S
C2094 C2096 1.478 . S
C2095 H2089 0.930 . S
C2095 C2091 1.400 . S
C2095 C2094 1.385 . S
C2096 C2094 1.478 . S
C2096 C2098 1.381 . S
C2096 C2102 1.383 . S
C2097 C2093 1.495 . S
C2097 H2103 0.959 . S
C2097 H2104 0.961 . S
C2097 H2105 0.960 . S
C2098 C2096 1.381 . S
C2098 C2099 1.394 . S
C2098 H2106 0.930 . S
C2099 C2098 1.394 . S
C2099 C2100 1.383 . S
C2099 H2107 0.929 . S
C2100 C2099 1.383 . S
C2100 C2101 1.377 . S
C2101 H2085 0.930 . S
C2101 C2100 1.377 . S
C2101 C2102 1.379 . S
C2102 H2086 0.931 . S
C2102 C2096 1.383 . S
C2102 C2101 1.379 . S
H2103 C2097 0.959 . S
H2104 C2097 0.961 . S
H2105 C2097 0.960 . S
H2106 C2098 0.930 . S
H2107 C2099 0.929 . S
H2108 C2116 0.929 . S
H2109 C2118 0.930 . S
H2110 C2120 0.930 . S
H2111 C2123 0.929 . S
H2112 C2126 0.930 . S
H2113 C2128 0.960 . S
H2114 C2128 0.960 . S
H2115 C2128 0.960 . S
C2116 H2108 0.929 . S
C2116 C2117 1.377 . S
C2116 C2118 1.384 . S
C2117 C2116 1.377 . S
C2117 C2123 1.390 . S
C2118 H2109 0.930 . S
C2118 C2116 1.384 . S
C2118 C2119 1.372 . S
C2119 C2118 1.372 . S
C2119 C2120 1.400 . S
C2119 C2124 1.490 . S
C2120 H2110 0.930 . S
C2120 C2119 1.400 . S
C2120 C2123 1.386 . S
H2121 C2137 0.930 . S
H2122 C2138 0.931 . S
C2123 H2111 0.929 . S
C2123 C2117 1.390 . S
C2123 C2120 1.386 . S
C2124 C2119 1.490 . S
C2124 C2126 1.395 . S
C2124 C2127 1.403 . S
H2125 C2131 0.930 . S
C2126 H2112 0.930 . S
C2126 C2124 1.395 . S
C2126 C2129 1.403 . S
C2127 C2124 1.403 . S
C2127 C2128 1.524 . S
C2127 C2131 1.400 . S
C2128 H2113 0.960 . S
C2128 H2114 0.960 . S
C2128 H2115 0.960 . S
C2128 C2127 1.524 . S
C2129 C2126 1.403 . S
C2129 C2130 1.392 . S
C2129 C2133 1.495 . S
C2130 C2129 1.392 . S
C2130 C2131 1.385 . S
C2130 C2132 1.478 . S
C2131 H2125 0.930 . S
C2131 C2127 1.400 . S
C2131 C2130 1.385 . S
C2132 C2130 1.478 . S
C2132 C2134 1.381 . S
C2132 C2138 1.383 . S
C2133 C2129 1.495 . S
C2133 H2139 0.959 . S
C2133 H2140 0.961 . S
C2133 H2141 0.960 . S
C2134 C2132 1.381 . S
C2134 C2135 1.394 . S
C2134 H2142 0.930 . S
C2135 C2134 1.394 . S
C2135 C2136 1.383 . S
C2135 H2143 0.929 . S
C2136 C2135 1.383 . S
C2136 C2137 1.377 . S
C2137 H2121 0.930 . S
C2137 C2136 1.377 . S
C2137 C2138 1.379 . S
C2138 H2122 0.931 . S
C2138 C2132 1.383 . S
C2138 C2137 1.379 . S
H2139 C2133 0.959 . S
H2140 C2133 0.961 . S
H2141 C2133 0.960 . S
H2142 C2134 0.930 . S
H2143 C2135 0.929 . S
H2144 C2152 0.929 . S
H2145 C2154 0.930 . S
H2146 C2156 0.930 . S
H2147 C2159 0.929 . S
H2148 C2162 0.930 . S
H2149 C2164 0.960 . S
H2150 C2164 0.960 . S
H2151 C2164 0.960 . S
C2152 H2144 0.929 . S
C2152 C2153 1.377 . S
C2152 C2154 1.384 . S
C2153 C2152 1.377 . S
C2153 C2159 1.390 . S
C2154 H2145 0.930 . S
C2154 C2152 1.384 . S
C2154 C2155 1.372 . S
C2155 C2154 1.372 . S
C2155 C2156 1.400 . S
C2155 C2160 1.490 . S
C2156 H2146 0.930 . S
C2156 C2155 1.400 . S
C2156 C2159 1.386 . S
H2157 C2173 0.930 . S
H2158 C2174 0.931 . S
C2159 H2147 0.929 . S
C2159 C2153 1.390 . S
C2159 C2156 1.386 . S
C2160 C2155 1.490 . S
C2160 C2162 1.395 . S
C2160 C2163 1.403 . S
H2161 C2167 0.930 . S
C2162 H2148 0.930 . S
C2162 C2160 1.395 . S
C2162 C2165 1.403 . S
C2163 C2160 1.403 . S
C2163 C2164 1.524 . S
C2163 C2167 1.400 . S
C2164 H2149 0.960 . S
C2164 H2150 0.960 . S
C2164 H2151 0.960 . S
C2164 C2163 1.524 . S
C2165 C2162 1.403 . S
C2165 C2166 1.392 . S
C2165 C2169 1.495 . S
C2166 C2165 1.392 . S
C2166 C2167 1.385 . S
C2166 C2168 1.478 . S
C2167 H2161 0.930 . S
C2167 C2163 1.400 . S
C2167 C2166 1.385 . S
C2168 C2166 1.478 . S
C2168 C2170 1.381 . S
C2168 C2174 1.383 . S
C2169 C2165 1.495 . S
C2169 H2175 0.959 . S
C2169 H2176 0.961 . S
C2169 H2177 0.960 . S
C2170 C2168 1.381 . S
C2170 C2171 1.394 . S
C2170 H2178 0.930 . S
C2171 C2170 1.394 . S
C2171 C2172 1.383 . S
C2171 H2179 0.929 . S
C2172 C2171 1.383 . S
C2172 C2173 1.377 . S
C2173 H2157 0.930 . S
C2173 C2172 1.377 . S
C2173 C2174 1.379 . S
C2174 H2158 0.931 . S
C2174 C2168 1.383 . S
C2174 C2173 1.379 . S
H2175 C2169 0.959 . S
H2176 C2169 0.961 . S
H2177 C2169 0.960 . S
H2178 C2170 0.930 . S
H2179 C2171 0.929 . S
H2180 C2188 0.929 . S
H2181 C2190 0.930 . S
H2182 C2192 0.930 . S
H2183 C2195 0.929 . S
H2184 C2198 0.930 . S
H2185 C2200 0.960 . S
H2186 C2200 0.960 . S
H2187 C2200 0.960 . S
C2188 H2180 0.929 . S
C2188 C2189 1.377 . S
C2188 C2190 1.384 . S
C2189 C2188 1.377 . S
C2189 C2195 1.390 . S
C2190 H2181 0.930 . S
C2190 C2188 1.384 . S
C2190 C2191 1.372 . S
C2191 C2190 1.372 . S
C2191 C2192 1.400 . S
C2191 C2196 1.490 . S
C2192 H2182 0.930 . S
C2192 C2191 1.400 . S
C2192 C2195 1.386 . S
H2193 C2209 0.930 . S
H2194 C2210 0.931 . S
C2195 H2183 0.929 . S
C2195 C2189 1.390 . S
C2195 C2192 1.386 . S
C2196 C2191 1.490 . S
C2196 C2198 1.395 . S
C2196 C2199 1.403 . S
H2197 C2203 0.930 . S
C2198 H2184 0.930 . S
C2198 C2196 1.395 . S
C2198 C2201 1.403 . S
C2199 C2196 1.403 . S
C2199 C2200 1.524 . S
C2199 C2203 1.400 . S
C2200 H2185 0.960 . S
C2200 H2186 0.960 . S
C2200 H2187 0.960 . S
C2200 C2199 1.524 . S
C2201 C2198 1.403 . S
C2201 C2202 1.392 . S
C2201 C2205 1.495 . S
C2202 C2201 1.392 . S
C2202 C2203 1.385 . S
C2202 C2204 1.478 . S
C2203 H2197 0.930 . S
C2203 C2199 1.400 . S
C2203 C2202 1.385 . S
C2204 C2202 1.478 . S
C2204 C2206 1.381 . S
C2204 C2210 1.383 . S
C2205 C2201 1.495 . S
C2205 H2211 0.959 . S
C2205 H2212 0.961 . S
C2205 H2213 0.960 . S
C2206 C2204 1.381 . S
C2206 C2207 1.394 . S
C2206 H2214 0.930 . S
C2207 C2206 1.394 . S
C2207 C2208 1.383 . S
C2207 H2215 0.929 . S
C2208 C2207 1.383 . S
C2208 C2209 1.377 . S
C2209 H2193 0.930 . S
C2209 C2208 1.377 . S
C2209 C2210 1.379 . S
C2210 H2194 0.931 . S
C2210 C2204 1.383 . S
C2210 C2209 1.379 . S
H2211 C2205 0.959 . S
H2212 C2205 0.961 . S
H2213 C2205 0.960 . S
H2214 C2206 0.930 . S
H2215 C2207 0.929 . S
H2216 C2224 0.929 . S
H2217 C2226 0.930 . S
H2218 C2228 0.930 . S
H2219 C2231 0.929 . S
H2220 C2234 0.930 . S
H2221 C2236 0.960 . S
H2222 C2236 0.960 . S
H2223 C2236 0.960 . S
C2224 H2216 0.929 . S
C2224 C2225 1.377 . S
C2224 C2226 1.384 . S
C2225 C2224 1.377 . S
C2225 C2231 1.390 . S
C2226 H2217 0.930 . S
C2226 C2224 1.384 . S
C2226 C2227 1.372 . S
C2227 C2226 1.372 . S
C2227 C2228 1.400 . S
C2227 C2232 1.490 . S
C2228 H2218 0.930 . S
C2228 C2227 1.400 . S
C2228 C2231 1.386 . S
H2229 C2245 0.930 . S
H2230 C2246 0.931 . S
C2231 H2219 0.929 . S
C2231 C2225 1.390 . S
C2231 C2228 1.386 . S
C2232 C2227 1.490 . S
C2232 C2234 1.395 . S
C2232 C2235 1.403 . S
H2233 C2239 0.930 . S
C2234 H2220 0.930 . S
C2234 C2232 1.395 . S
C2234 C2237 1.403 . S
C2235 C2232 1.403 . S
C2235 C2236 1.524 . S
C2235 C2239 1.400 . S
C2236 H2221 0.960 . S
C2236 H2222 0.960 . S
C2236 H2223 0.960 . S
C2236 C2235 1.524 . S
C2237 C2234 1.403 . S
C2237 C2238 1.392 . S
C2237 C2241 1.495 . S
C2238 C2237 1.392 . S
C2238 C2239 1.385 . S
C2238 C2240 1.478 . S
C2239 H2233 0.930 . S
C2239 C2235 1.400 . S
C2239 C2238 1.385 . S
C2240 C2238 1.478 . S
C2240 C2242 1.381 . S
C2240 C2246 1.383 . S
C2241 C2237 1.495 . S
C2241 H2247 0.959 . S
C2241 H2248 0.961 . S
C2241 H2249 0.960 . S
C2242 C2240 1.381 . S
C2242 C2243 1.394 . S
C2242 H2250 0.930 . S
C2243 C2242 1.394 . S
C2243 C2244 1.383 . S
C2243 H2251 0.929 . S
C2244 C2243 1.383 . S
C2244 C2245 1.377 . S
C2245 H2229 0.930 . S
C2245 C2244 1.377 . S
C2245 C2246 1.379 . S
C2246 H2230 0.931 . S
C2246 C2240 1.383 . S
C2246 C2245 1.379 . S
H2247 C2241 0.959 . S
H2248 C2241 0.961 . S
H2249 C2241 0.960 . S
H2250 C2242 0.930 . S
H2251 C2243 0.929 . S
H2252 C2260 0.929 . S
H2253 C2262 0.930 . S
H2254 C2264 0.930 . S
H2255 C2267 0.929 . S
H2256 C2270 0.930 . S
H2257 C2272 0.960 . S
H2258 C2272 0.960 . S
H2259 C2272 0.960 . S
C2260 H2252 0.929 . S
C2260 C2261 1.377 . S
C2260 C2262 1.384 . S
C2261 C2260 1.377 . S
C2261 C2267 1.390 . S
C2262 H2253 0.930 . S
C2262 C2260 1.384 . S
C2262 C2263 1.372 . S
C2263 C2262 1.372 . S
C2263 C2264 1.400 . S
C2263 C2268 1.490 . S
C2264 H2254 0.930 . S
C2264 C2263 1.400 . S
C2264 C2267 1.386 . S
H2265 C2281 0.930 . S
H2266 C2282 0.931 . S
C2267 H2255 0.929 . S
C2267 C2261 1.390 . S
C2267 C2264 1.386 . S
C2268 C2263 1.490 . S
C2268 C2270 1.395 . S
C2268 C2271 1.403 . S
H2269 C2275 0.930 . S
C2270 H2256 0.930 . S
C2270 C2268 1.395 . S
C2270 C2273 1.403 . S
C2271 C2268 1.403 . S
C2271 C2272 1.524 . S
C2271 C2275 1.400 . S
C2272 H2257 0.960 . S
C2272 H2258 0.960 . S
C2272 H2259 0.960 . S
C2272 C2271 1.524 . S
C2273 C2270 1.403 . S
C2273 C2274 1.392 . S
C2273 C2277 1.495 . S
C2274 C2273 1.392 . S
C2274 C2275 1.385 . S
C2274 C2276 1.478 . S
C2275 H2269 0.930 . S
C2275 C2271 1.400 . S
C2275 C2274 1.385 . S
C2276 C2274 1.478 . S
C2276 C2278 1.381 . S
C2276 C2282 1.383 . S
C2277 C2273 1.495 . S
C2277 H2283 0.959 . S
C2277 H2284 0.961 . S
C2277 H2285 0.960 . S
C2278 C2276 1.381 . S
C2278 C2279 1.394 . S
C2278 H2286 0.930 . S
C2279 C2278 1.394 . S
C2279 C2280 1.383 . S
C2279 H2287 0.929 . S
C2280 C2279 1.383 . S
C2280 C2281 1.377 . S
C2281 H2265 0.930 . S
C2281 C2280 1.377 . S
C2281 C2282 1.379 . S
C2282 H2266 0.931 . S
C2282 C2276 1.383 . S
C2282 C2281 1.379 . S
H2283 C2277 0.959 . S
H2284 C2277 0.961 . S
H2285 C2277 0.960 . S
H2286 C2278 0.930 . S
H2287 C2279 0.929 . S
H2288 C2296 0.929 . S
H2289 C2298 0.930 . S
H2290 C2300 0.930 . S
H2291 C2303 0.929 . S
H2292 C2306 0.930 . S
H2293 C2308 0.960 . S
H2294 C2308 0.960 . S
H2295 C2308 0.960 . S
C2296 H2288 0.929 . S
C2296 C2297 1.377 . S
C2296 C2298 1.384 . S
C2297 C2296 1.377 . S
C2297 C2303 1.390 . S
C2298 H2289 0.930 . S
C2298 C2296 1.384 . S
C2298 C2299 1.372 . S
C2299 C2298 1.372 . S
C2299 C2300 1.400 . S
C2299 C2304 1.490 . S
C2300 H2290 0.930 . S
C2300 C2299 1.400 . S
C2300 C2303 1.386 . S
H2301 C2317 0.930 . S
H2302 C2318 0.931 . S
C2303 H2291 0.929 . S
C2303 C2297 1.390 . S
C2303 C2300 1.386 . S
C2304 C2299 1.490 . S
C2304 C2306 1.395 . S
C2304 C2307 1.403 . S
H2305 C2311 0.930 . S
C2306 H2292 0.930 . S
C2306 C2304 1.395 . S
C2306 C2309 1.403 . S
C2307 C2304 1.403 . S
C2307 C2308 1.524 . S
C2307 C2311 1.400 . S
C2308 H2293 0.960 . S
C2308 H2294 0.960 . S
C2308 H2295 0.960 . S
C2308 C2307 1.524 . S
C2309 C2306 1.403 . S
C2309 C2310 1.392 . S
C2309 C2313 1.495 . S
C2310 C2309 1.392 . S
C2310 C2311 1.385 . S
C2310 C2312 1.478 . S
C2311 H2305 0.930 . S
C2311 C2307 1.400 . S
C2311 C2310 1.385 . S
C2312 C2310 1.478 . S
C2312 C2314 1.381 . S
C2312 C2318 1.383 . S
C2313 C2309 1.495 . S
C2313 H2319 0.959 . S
C2313 H2320 0.961 . S
C2313 H2321 0.960 . S
C2314 C2312 1.381 . S
C2314 C2315 1.394 . S
C2314 H2322 0.930 . S
C2315 C2314 1.394 . S
C2315 C2316 1.383 . S
C2315 H2323 0.929 . S
C2316 C2315 1.383 . S
C2316 C2317 1.377 . S
C2317 H2301 0.930 . S
C2317 C2316 1.377 . S
C2317 C2318 1.379 . S
C2318 H2302 0.931 . S
C2318 C2312 1.383 . S
C2318 C2317 1.379 . S
H2319 C2313 0.959 . S
H2320 C2313 0.961 . S
H2321 C2313 0.960 . S
H2322 C2314 0.930 . S
H2323 C2315 0.929 . S
H2324 C2332 0.929 . S
H2325 C2334 0.930 . S
H2326 C2336 0.930 . S
H2327 C2339 0.929 . S
H2328 C2342 0.930 . S
H2329 C2344 0.960 . S
H2330 C2344 0.960 . S
H2331 C2344 0.960 . S
C2332 H2324 0.929 . S
C2332 C2333 1.377 . S
C2332 C2334 1.384 . S
C2333 C2332 1.377 . S
C2333 C2339 1.390 . S
C2334 H2325 0.930 . S
C2334 C2332 1.384 . S
C2334 C2335 1.372 . S
C2335 C2334 1.372 . S
C2335 C2336 1.400 . S
C2335 C2340 1.490 . S
C2336 H2326 0.930 . S
C2336 C2335 1.400 . S
C2336 C2339 1.386 . S
H2337 C2353 0.930 . S
H2338 C2354 0.931 . S
C2339 H2327 0.929 . S
C2339 C2333 1.390 . S
C2339 C2336 1.386 . S
C2340 C2335 1.490 . S
C2340 C2342 1.395 . S
C2340 C2343 1.403 . S
H2341 C2347 0.930 . S
C2342 H2328 0.930 . S
C2342 C2340 1.395 . S
C2342 C2345 1.403 . S
C2343 C2340 1.403 . S
C2343 C2344 1.524 . S
C2343 C2347 1.400 . S
C2344 H2329 0.960 . S
C2344 H2330 0.960 . S
C2344 H2331 0.960 . S
C2344 C2343 1.524 . S
C2345 C2342 1.403 . S
C2345 C2346 1.392 . S
C2345 C2349 1.495 . S
C2346 C2345 1.392 . S
C2346 C2347 1.385 . S
C2346 C2348 1.478 . S
C2347 H2341 0.930 . S
C2347 C2343 1.400 . S
C2347 C2346 1.385 . S
C2348 C2346 1.478 . S
C2348 C2350 1.381 . S
C2348 C2354 1.383 . S
C2349 C2345 1.495 . S
C2349 H2355 0.959 . S
C2349 H2356 0.961 . S
C2349 H2357 0.960 . S
C2350 C2348 1.381 . S
C2350 C2351 1.394 . S
C2350 H2358 0.930 . S
C2351 C2350 1.394 . S
C2351 C2352 1.383 . S
C2351 H2359 0.929 . S
C2352 C2351 1.383 . S
C2352 C2353 1.377 . S
C2353 H2337 0.930 . S
C2353 C2352 1.377 . S
C2353 C2354 1.379 . S
C2354 H2338 0.931 . S
C2354 C2348 1.383 . S
C2354 C2353 1.379 . S
H2355 C2349 0.959 . S
H2356 C2349 0.961 . S
H2357 C2349 0.960 . S
H2358 C2350 0.930 . S
H2359 C2351 0.929 . S
H2360 C2368 0.929 . S
H2361 C2370 0.930 . S
H2362 C2372 0.930 . S
H2363 C2375 0.929 . S
H2364 C2378 0.930 . S
H2365 C2380 0.960 . S
H2366 C2380 0.960 . S
H2367 C2380 0.960 . S
C2368 H2360 0.929 . S
C2368 C2369 1.377 . S
C2368 C2370 1.384 . S
C2369 C2368 1.377 . S
C2369 C2375 1.390 . S
C2370 H2361 0.930 . S
C2370 C2368 1.384 . S
C2370 C2371 1.372 . S
C2371 C2370 1.372 . S
C2371 C2372 1.400 . S
C2371 C2376 1.490 . S
C2372 H2362 0.930 . S
C2372 C2371 1.400 . S
C2372 C2375 1.386 . S
H2373 C2389 0.930 . S
H2374 C2390 0.931 . S
C2375 H2363 0.929 . S
C2375 C2369 1.390 . S
C2375 C2372 1.386 . S
C2376 C2371 1.490 . S
C2376 C2378 1.395 . S
C2376 C2379 1.403 . S
H2377 C2383 0.930 . S
C2378 H2364 0.930 . S
C2378 C2376 1.395 . S
C2378 C2381 1.403 . S
C2379 C2376 1.403 . S
C2379 C2380 1.524 . S
C2379 C2383 1.400 . S
C2380 H2365 0.960 . S
C2380 H2366 0.960 . S
C2380 H2367 0.960 . S
C2380 C2379 1.524 . S
C2381 C2378 1.403 . S
C2381 C2382 1.392 . S
C2381 C2385 1.495 . S
C2382 C2381 1.392 . S
C2382 C2383 1.385 . S
C2382 C2384 1.478 . S
C2383 H2377 0.930 . S
C2383 C2379 1.400 . S
C2383 C2382 1.385 . S
C2384 C2382 1.478 . S
C2384 C2386 1.381 . S
C2384 C2390 1.383 . S
C2385 C2381 1.495 . S
C2385 H2391 0.959 . S
C2385 H2392 0.961 . S
C2385 H2393 0.960 . S
C2386 C2384 1.381 . S
C2386 C2387 1.394 . S
C2386 H2394 0.930 . S
C2387 C2386 1.394 . S
C2387 C2388 1.383 . S
C2387 H2395 0.929 . S
C2388 C2387 1.383 . S
C2388 C2389 1.377 . S
C2389 H2373 0.930 . S
C2389 C2388 1.377 . S
C2389 C2390 1.379 . S
C2390 H2374 0.931 . S
C2390 C2384 1.383 . S
C2390 C2389 1.379 . S
H2391 C2385 0.959 . S
H2392 C2385 0.961 . S
H2393 C2385 0.960 . S
H2394 C2386 0.930 . S
H2395 C2387 0.929 . S
H2396 C2404 0.929 . S
H2397 C2406 0.930 . S
H2398 C2408 0.930 . S
H2399 C2411 0.929 . S
H2400 C2414 0.930 . S
H2401 C2416 0.960 . S
H2402 C2416 0.960 . S
H2403 C2416 0.960 . S
C2404 H2396 0.929 . S
C2404 C2405 1.377 . S
C2404 C2406 1.384 . S
C2405 C2404 1.377 . S
C2405 C2411 1.390 . S
C2406 H2397 0.930 . S
C2406 C2404 1.384 . S
C2406 C2407 1.372 . S
C2407 C2406 1.372 . S
C2407 C2408 1.400 . S
C2407 C2412 1.490 . S
C2408 H2398 0.930 . S
C2408 C2407 1.400 . S
C2408 C2411 1.386 . S
H2409 C2425 0.930 . S
H2410 C2426 0.931 . S
C2411 H2399 0.929 . S
C2411 C2405 1.390 . S
C2411 C2408 1.386 . S
C2412 C2407 1.490 . S
C2412 C2414 1.395 . S
C2412 C2415 1.403 . S
H2413 C2419 0.930 . S
C2414 H2400 0.930 . S
C2414 C2412 1.395 . S
C2414 C2417 1.403 . S
C2415 C2412 1.403 . S
C2415 C2416 1.524 . S
C2415 C2419 1.400 . S
C2416 H2401 0.960 . S
C2416 H2402 0.960 . S
C2416 H2403 0.960 . S
C2416 C2415 1.524 . S
C2417 C2414 1.403 . S
C2417 C2418 1.392 . S
C2417 C2421 1.495 . S
C2418 C2417 1.392 . S
C2418 C2419 1.385 . S
C2418 C2420 1.478 . S
C2419 H2413 0.930 . S
C2419 C2415 1.400 . S
C2419 C2418 1.385 . S
C2420 C2418 1.478 . S
C2420 C2422 1.381 . S
C2420 C2426 1.383 . S
C2421 C2417 1.495 . S
C2421 H2427 0.959 . S
C2421 H2428 0.961 . S
C2421 H2429 0.960 . S
C2422 C2420 1.381 . S
C2422 C2423 1.394 . S
C2422 H2430 0.930 . S
C2423 C2422 1.394 . S
C2423 C2424 1.383 . S
C2423 H2431 0.929 . S
C2424 C2423 1.383 . S
C2424 C2425 1.377 . S
C2425 H2409 0.930 . S
C2425 C2424 1.377 . S
C2425 C2426 1.379 . S
C2426 H2410 0.931 . S
C2426 C2420 1.383 . S
C2426 C2425 1.379 . S
H2427 C2421 0.959 . S
H2428 C2421 0.961 . S
H2429 C2421 0.960 . S
H2430 C2422 0.930 . S
H2431 C2423 0.929 . S
H2432 C2440 0.929 . S
H2433 C2442 0.930 . S
H2434 C2444 0.930 . S
H2435 C2447 0.929 . S
H2436 C2450 0.930 . S
H2437 C2452 0.960 . S
H2438 C2452 0.960 . S
H2439 C2452 0.960 . S
C2440 H2432 0.929 . S
C2440 C2441 1.377 . S
C2440 C2442 1.384 . S
C2441 C2440 1.377 . S
C2441 C2447 1.390 . S
C2442 H2433 0.930 . S
C2442 C2440 1.384 . S
C2442 C2443 1.372 . S
C2443 C2442 1.372 . S
C2443 C2444 1.400 . S
C2443 C2448 1.490 . S
C2444 H2434 0.930 . S
C2444 C2443 1.400 . S
C2444 C2447 1.386 . S
H2445 C2461 0.930 . S
H2446 C2462 0.931 . S
C2447 H2435 0.929 . S
C2447 C2441 1.390 . S
C2447 C2444 1.386 . S
C2448 C2443 1.490 . S
C2448 C2450 1.395 . S
C2448 C2451 1.403 . S
H2449 C2455 0.930 . S
C2450 H2436 0.930 . S
C2450 C2448 1.395 . S
C2450 C2453 1.403 . S
C2451 C2448 1.403 . S
C2451 C2452 1.524 . S
C2451 C2455 1.400 . S
C2452 H2437 0.960 . S
C2452 H2438 0.960 . S
C2452 H2439 0.960 . S
C2452 C2451 1.524 . S
C2453 C2450 1.403 . S
C2453 C2454 1.392 . S
C2453 C2457 1.495 . S
C2454 C2453 1.392 . S
C2454 C2455 1.385 . S
C2454 C2456 1.478 . S
C2455 H2449 0.930 . S
C2455 C2451 1.400 . S
C2455 C2454 1.385 . S
C2456 C2454 1.478 . S
C2456 C2458 1.381 . S
C2456 C2462 1.383 . S
C2457 C2453 1.495 . S
C2457 H2463 0.959 . S
C2457 H2464 0.961 . S
C2457 H2465 0.960 . S
C2458 C2456 1.381 . S
C2458 C2459 1.394 . S
C2458 H2466 0.930 . S
C2459 C2458 1.394 . S
C2459 C2460 1.383 . S
C2459 H2467 0.929 . S
C2460 C2459 1.383 . S
C2460 C2461 1.377 . S
C2461 H2445 0.930 . S
C2461 C2460 1.377 . S
C2461 C2462 1.379 . S
C2462 H2446 0.931 . S
C2462 C2456 1.383 . S
C2462 C2461 1.379 . S
H2463 C2457 0.959 . S
H2464 C2457 0.961 . S
H2465 C2457 0.960 . S
H2466 C2458 0.930 . S
H2467 C2459 0.929 . S
H2468 C2476 0.929 . S
H2469 C2478 0.930 . S
H2470 C2480 0.930 . S
H2471 C2483 0.929 . S
H2472 C2486 0.930 . S
H2473 C2488 0.960 . S
H2474 C2488 0.960 . S
H2475 C2488 0.960 . S
C2476 H2468 0.929 . S
C2476 C2477 1.377 . S
C2476 C2478 1.384 . S
C2477 C2476 1.377 . S
C2477 C2483 1.390 . S
C2478 H2469 0.930 . S
C2478 C2476 1.384 . S
C2478 C2479 1.372 . S
C2479 C2478 1.372 . S
C2479 C2480 1.400 . S
C2479 C2484 1.490 . S
C2480 H2470 0.930 . S
C2480 C2479 1.400 . S
C2480 C2483 1.386 . S
H2481 C2497 0.930 . S
H2482 C2498 0.931 . S
C2483 H2471 0.929 . S
C2483 C2477 1.390 . S
C2483 C2480 1.386 . S
C2484 C2479 1.490 . S
C2484 C2486 1.395 . S
C2484 C2487 1.403 . S
H2485 C2491 0.930 . S
C2486 H2472 0.930 . S
C2486 C2484 1.395 . S
C2486 C2489 1.403 . S
C2487 C2484 1.403 . S
C2487 C2488 1.524 . S
C2487 C2491 1.400 . S
C2488 H2473 0.960 . S
C2488 H2474 0.960 . S
C2488 H2475 0.960 . S
C2488 C2487 1.524 . S
C2489 C2486 1.403 . S
C2489 C2490 1.392 . S
C2489 C2493 1.495 . S
C2490 C2489 1.392 . S
C2490 C2491 1.385 . S
C2490 C2492 1.478 . S
C2491 H2485 0.930 . S
C2491 C2487 1.400 . S
C2491 C2490 1.385 . S
C2492 C2490 1.478 . S
C2492 C2494 1.381 . S
C2492 C2498 1.383 . S
C2493 C2489 1.495 . S
C2493 H2499 0.959 . S
C2493 H2500 0.961 . S
C2493 H2501 0.960 . S
C2494 C2492 1.381 . S
C2494 C2495 1.394 . S
C2494 H2502 0.930 . S
C2495 C2494 1.394 . S
C2495 C2496 1.383 . S
C2495 H2503 0.929 . S
C2496 C2495 1.383 . S
C2496 C2497 1.377 . S
C2497 H2481 0.930 . S
C2497 C2496 1.377 . S
C2497 C2498 1.379 . S
C2498 H2482 0.931 . S
C2498 C2492 1.383 . S
C2498 C2497 1.379 . S
H2499 C2493 0.959 . S
H2500 C2493 0.961 . S
H2501 C2493 0.960 . S
H2502 C2494 0.930 . S
H2503 C2495 0.929 . S
H2504 C2512 0.929 . S
H2505 C2514 0.930 . S
H2506 C2516 0.930 . S
H2507 C2519 0.929 . S
H2508 C2522 0.930 . S
H2509 C2524 0.960 . S
H2510 C2524 0.960 . S
H2511 C2524 0.960 . S
C2512 H2504 0.929 . S
C2512 C2513 1.377 . S
C2512 C2514 1.384 . S
C2513 C2512 1.377 . S
C2513 C2519 1.390 . S
C2514 H2505 0.930 . S
C2514 C2512 1.384 . S
C2514 C2515 1.372 . S
C2515 C2514 1.372 . S
C2515 C2516 1.400 . S
C2515 C2520 1.490 . S
C2516 H2506 0.930 . S
C2516 C2515 1.400 . S
C2516 C2519 1.386 . S
H2517 C2533 0.930 . S
H2518 C2534 0.931 . S
C2519 H2507 0.929 . S
C2519 C2513 1.390 . S
C2519 C2516 1.386 . S
C2520 C2515 1.490 . S
C2520 C2522 1.395 . S
C2520 C2523 1.403 . S
H2521 C2527 0.930 . S
C2522 H2508 0.930 . S
C2522 C2520 1.395 . S
C2522 C2525 1.403 . S
C2523 C2520 1.403 . S
C2523 C2524 1.524 . S
C2523 C2527 1.400 . S
C2524 H2509 0.960 . S
C2524 H2510 0.960 . S
C2524 H2511 0.960 . S
C2524 C2523 1.524 . S
C2525 C2522 1.403 . S
C2525 C2526 1.392 . S
C2525 C2529 1.495 . S
C2526 C2525 1.392 . S
C2526 C2527 1.385 . S
C2526 C2528 1.478 . S
C2527 H2521 0.930 . S
C2527 C2523 1.400 . S
C2527 C2526 1.385 . S
C2528 C2526 1.478 . S
C2528 C2530 1.381 . S
C2528 C2534 1.383 . S
C2529 C2525 1.495 . S
C2529 H2535 0.959 . S
C2529 H2536 0.961 . S
C2529 H2537 0.960 . S
C2530 C2528 1.381 . S
C2530 C2531 1.394 . S
C2530 H2538 0.930 . S
C2531 C2530 1.394 . S
C2531 C2532 1.383 . S
C2531 H2539 0.929 . S
C2532 C2531 1.383 . S
C2532 C2533 1.377 . S
C2533 H2517 0.930 . S
C2533 C2532 1.377 . S
C2533 C2534 1.379 . S
C2534 H2518 0.931 . S
C2534 C2528 1.383 . S
C2534 C2533 1.379 . S
H2535 C2529 0.959 . S
H2536 C2529 0.961 . S
H2537 C2529 0.960 . S
H2538 C2530 0.930 . S
H2539 C2531 0.929 . S
H2540 C2548 0.929 . S
H2541 C2550 0.930 . S
H2542 C2552 0.930 . S
H2543 C2555 0.929 . S
H2544 C2558 0.930 . S
H2545 C2560 0.960 . S
H2546 C2560 0.960 . S
H2547 C2560 0.960 . S
C2548 H2540 0.929 . S
C2548 C2549 1.377 . S
C2548 C2550 1.384 . S
C2549 C2548 1.377 . S
C2549 C2555 1.390 . S
C2550 H2541 0.930 . S
C2550 C2548 1.384 . S
C2550 C2551 1.372 . S
C2551 C2550 1.372 . S
C2551 C2552 1.400 . S
C2551 C2556 1.490 . S
C2552 H2542 0.930 . S
C2552 C2551 1.400 . S
C2552 C2555 1.386 . S
H2553 C2569 0.930 . S
H2554 C2570 0.931 . S
C2555 H2543 0.929 . S
C2555 C2549 1.390 . S
C2555 C2552 1.386 . S
C2556 C2551 1.490 . S
C2556 C2558 1.395 . S
C2556 C2559 1.403 . S
H2557 C2563 0.930 . S
C2558 H2544 0.930 . S
C2558 C2556 1.395 . S
C2558 C2561 1.403 . S
C2559 C2556 1.403 . S
C2559 C2560 1.524 . S
C2559 C2563 1.400 . S
C2560 H2545 0.960 . S
C2560 H2546 0.960 . S
C2560 H2547 0.960 . S
C2560 C2559 1.524 . S
C2561 C2558 1.403 . S
C2561 C2562 1.392 . S
C2561 C2565 1.495 . S
C2562 C2561 1.392 . S
C2562 C2563 1.385 . S
C2562 C2564 1.478 . S
C2563 H2557 0.930 . S
C2563 C2559 1.400 . S
C2563 C2562 1.385 . S
C2564 C2562 1.478 . S
C2564 C2566 1.381 . S
C2564 C2570 1.383 . S
C2565 C2561 1.495 . S
C2565 H2571 0.959 . S
C2565 H2572 0.961 . S
C2565 H2573 0.960 . S
C2566 C2564 1.381 . S
C2566 C2567 1.394 . S
C2566 H2574 0.930 . S
C2567 C2566 1.394 . S
C2567 C2568 1.383 . S
C2567 H2575 0.929 . S
C2568 C2567 1.383 . S
C2568 C2569 1.377 . S
C2569 H2553 0.930 . S
C2569 C2568 1.377 . S
C2569 C2570 1.379 . S
C2570 H2554 0.931 . S
C2570 C2564 1.383 . S
C2570 C2569 1.379 . S
H2571 C2565 0.959 . S
H2572 C2565 0.961 . S
H2573 C2565 0.960 . S
H2574 C2566 0.930 . S
H2575 C2567 0.929 . S
H2576 C2584 0.929 . S
H2577 C2586 0.930 . S
H2578 C2588 0.930 . S
H2579 C2591 0.929 . S
H2580 C2594 0.930 . S
H2581 C2596 0.960 . S
H2582 C2596 0.960 . S
H2583 C2596 0.960 . S
C2584 H2576 0.929 . S
C2584 C2585 1.377 . S
C2584 C2586 1.384 . S
C2585 C2584 1.377 . S
C2585 C2591 1.390 . S
C2586 H2577 0.930 . S
C2586 C2584 1.384 . S
C2586 C2587 1.372 . S
C2587 C2586 1.372 . S
C2587 C2588 1.400 . S
C2587 C2592 1.490 . S
C2588 H2578 0.930 . S
C2588 C2587 1.400 . S
C2588 C2591 1.386 . S
H2589 C2605 0.930 . S
H2590 C2606 0.931 . S
C2591 H2579 0.929 . S
C2591 C2585 1.390 . S
C2591 C2588 1.386 . S
C2592 C2587 1.490 . S
C2592 C2594 1.395 . S
C2592 C2595 1.403 . S
H2593 C2599 0.930 . S
C2594 H2580 0.930 . S
C2594 C2592 1.395 . S
C2594 C2597 1.403 . S
C2595 C2592 1.403 . S
C2595 C2596 1.524 . S
C2595 C2599 1.400 . S
C2596 H2581 0.960 . S
C2596 H2582 0.960 . S
C2596 H2583 0.960 . S
C2596 C2595 1.524 . S
C2597 C2594 1.403 . S
C2597 C2598 1.392 . S
C2597 C2601 1.495 . S
C2598 C2597 1.392 . S
C2598 C2599 1.385 . S
C2598 C2600 1.478 . S
C2599 H2593 0.930 . S
C2599 C2595 1.400 . S
C2599 C2598 1.385 . S
C2600 C2598 1.478 . S
C2600 C2602 1.381 . S
C2600 C2606 1.383 . S
C2601 C2597 1.495 . S
C2601 H2607 0.959 . S
C2601 H2608 0.961 . S
C2601 H2609 0.960 . S
C2602 C2600 1.381 . S
C2602 C2603 1.394 . S
C2602 H2610 0.930 . S
C2603 C2602 1.394 . S
C2603 C2604 1.383 . S
C2603 H2611 0.929 . S
C2604 C2603 1.383 . S
C2604 C2605 1.377 . S
C2605 H2589 0.930 . S
C2605 C2604 1.377 . S
C2605 C2606 1.379 . S
C2606 H2590 0.931 . S
C2606 C2600 1.383 . S
C2606 C2605 1.379 . S
H2607 C2601 0.959 . S
H2608 C2601 0.961 . S
H2609 C2601 0.960 . S
H2610 C2602 0.930 . S
H2611 C2603 0.929 . S
H2612 C2620 0.929 . S
H2613 C2622 0.930 . S
H2614 C2624 0.930 . S
H2615 C2627 0.929 . S
H2616 C2630 0.930 . S
H2617 C2632 0.960 . S
H2618 C2632 0.960 . S
H2619 C2632 0.960 . S
C2620 H2612 0.929 . S
C2620 C2621 1.377 . S
C2620 C2622 1.384 . S
C2621 C2620 1.377 . S
C2621 C2627 1.390 . S
C2622 H2613 0.930 . S
C2622 C2620 1.384 . S
C2622 C2623 1.372 . S
C2623 C2622 1.372 . S
C2623 C2624 1.400 . S
C2623 C2628 1.490 . S
C2624 H2614 0.930 . S
C2624 C2623 1.400 . S
C2624 C2627 1.386 . S
H2625 C2641 0.930 . S
H2626 C2642 0.931 . S
C2627 H2615 0.929 . S
C2627 C2621 1.390 . S
C2627 C2624 1.386 . S
C2628 C2623 1.490 . S
C2628 C2630 1.395 . S
C2628 C2631 1.403 . S
H2629 C2635 0.930 . S
C2630 H2616 0.930 . S
C2630 C2628 1.395 . S
C2630 C2633 1.403 . S
C2631 C2628 1.403 . S
C2631 C2632 1.524 . S
C2631 C2635 1.400 . S
C2632 H2617 0.960 . S
C2632 H2618 0.960 . S
C2632 H2619 0.960 . S
C2632 C2631 1.524 . S
C2633 C2630 1.403 . S
C2633 C2634 1.392 . S
C2633 C2637 1.495 . S
C2634 C2633 1.392 . S
C2634 C2635 1.385 . S
C2634 C2636 1.478 . S
C2635 H2629 0.930 . S
C2635 C2631 1.400 . S
C2635 C2634 1.385 . S
C2636 C2634 1.478 . S
C2636 C2638 1.381 . S
C2636 C2642 1.383 . S
C2637 C2633 1.495 . S
C2637 H2643 0.959 . S
C2637 H2644 0.961 . S
C2637 H2645 0.960 . S
C2638 C2636 1.381 . S
C2638 C2639 1.394 . S
C2638 H2646 0.930 . S
C2639 C2638 1.394 . S
C2639 C2640 1.383 . S
C2639 H2647 0.929 . S
C2640 C2639 1.383 . S
C2640 C2641 1.377 . S
C2641 H2625 0.930 . S
C2641 C2640 1.377 . S
C2641 C2642 1.379 . S
C2642 H2626 0.931 . S
C2642 C2636 1.383 . S
C2642 C2641 1.379 . S
H2643 C2637 0.959 . S
H2644 C2637 0.961 . S
H2645 C2637 0.960 . S
H2646 C2638 0.930 . S
H2647 C2639 0.929 . S
H2648 C2656 0.929 . S
H2649 C2658 0.930 . S
H2650 C2660 0.930 . S
H2651 C2663 0.929 . S
H2652 C2666 0.930 . S
H2653 C2668 0.960 . S
H2654 C2668 0.960 . S
H2655 C2668 0.960 . S
C2656 H2648 0.929 . S
C2656 C2657 1.377 . S
C2656 C2658 1.384 . S
C2657 C2656 1.377 . S
C2657 C2663 1.390 . S
C2658 H2649 0.930 . S
C2658 C2656 1.384 . S
C2658 C2659 1.372 . S
C2659 C2658 1.372 . S
C2659 C2660 1.400 . S
C2659 C2664 1.490 . S
C2660 H2650 0.930 . S
C2660 C2659 1.400 . S
C2660 C2663 1.386 . S
H2661 C2677 0.930 . S
H2662 C2678 0.931 . S
C2663 H2651 0.929 . S
C2663 C2657 1.390 . S
C2663 C2660 1.386 . S
C2664 C2659 1.490 . S
C2664 C2666 1.395 . S
C2664 C2667 1.403 . S
H2665 C2671 0.930 . S
C2666 H2652 0.930 . S
C2666 C2664 1.395 . S
C2666 C2669 1.403 . S
C2667 C2664 1.403 . S
C2667 C2668 1.524 . S
C2667 C2671 1.400 . S
C2668 H2653 0.960 . S
C2668 H2654 0.960 . S
C2668 H2655 0.960 . S
C2668 C2667 1.524 . S
C2669 C2666 1.403 . S
C2669 C2670 1.392 . S
C2669 C2673 1.495 . S
C2670 C2669 1.392 . S
C2670 C2671 1.385 . S
C2670 C2672 1.478 . S
C2671 H2665 0.930 . S
C2671 C2667 1.400 . S
C2671 C2670 1.385 . S
C2672 C2670 1.478 . S
C2672 C2674 1.381 . S
C2672 C2678 1.383 . S
C2673 C2669 1.495 . S
C2673 H2679 0.959 . S
C2673 H2680 0.961 . S
C2673 H2681 0.960 . S
C2674 C2672 1.381 . S
C2674 C2675 1.394 . S
C2674 H2682 0.930 . S
C2675 C2674 1.394 . S
C2675 C2676 1.383 . S
C2675 H2683 0.929 . S
C2676 C2675 1.383 . S
C2676 C2677 1.377 . S
C2677 H2661 0.930 . S
C2677 C2676 1.377 . S
C2677 C2678 1.379 . S
C2678 H2662 0.931 . S
C2678 C2672 1.383 . S
C2678 C2677 1.379 . S
H2679 C2673 0.959 . S
H2680 C2673 0.961 . S
H2681 C2673 0.960 . S
H2682 C2674 0.930 . S
H2683 C2675 0.929 . S
H2684 C2692 0.929 . S
H2685 C2694 0.930 . S
H2686 C2696 0.930 . S
H2687 C2699 0.929 . S
H2688 C2702 0.930 . S
H2689 C2704 0.960 . S
H2690 C2704 0.960 . S
H2691 C2704 0.960 . S
C2692 H2684 0.929 . S
C2692 C2693 1.377 . S
C2692 C2694 1.384 . S
C2693 C2692 1.377 . S
C2693 C2699 1.390 . S
C2694 H2685 0.930 . S
C2694 C2692 1.384 . S
C2694 C2695 1.372 . S
C2695 C2694 1.372 . S
C2695 C2696 1.400 . S
C2695 C2700 1.490 . S
C2696 H2686 0.930 . S
C2696 C2695 1.400 . S
C2696 C2699 1.386 . S
H2697 C2713 0.930 . S
H2698 C2714 0.931 . S
C2699 H2687 0.929 . S
C2699 C2693 1.390 . S
C2699 C2696 1.386 . S
C2700 C2695 1.490 . S
C2700 C2702 1.395 . S
C2700 C2703 1.403 . S
H2701 C2707 0.930 . S
C2702 H2688 0.930 . S
C2702 C2700 1.395 . S
C2702 C2705 1.403 . S
C2703 C2700 1.403 . S
C2703 C2704 1.524 . S
C2703 C2707 1.400 . S
C2704 H2689 0.960 . S
C2704 H2690 0.960 . S
C2704 H2691 0.960 . S
C2704 C2703 1.524 . S
C2705 C2702 1.403 . S
C2705 C2706 1.392 . S
C2705 C2709 1.495 . S
C2706 C2705 1.392 . S
C2706 C2707 1.385 . S
C2706 C2708 1.478 . S
C2707 H2701 0.930 . S
C2707 C2703 1.400 . S
C2707 C2706 1.385 . S
C2708 C2706 1.478 . S
C2708 C2710 1.381 . S
C2708 C2714 1.383 . S
C2709 C2705 1.495 . S
C2709 H2715 0.959 . S
C2709 H2716 0.961 . S
C2709 H2717 0.960 . S
C2710 C2708 1.381 . S
C2710 C2711 1.394 . S
C2710 H2718 0.930 . S
C2711 C2710 1.394 . S
C2711 C2712 1.383 . S
C2711 H2719 0.929 . S
C2712 C2711 1.383 . S
C2712 C2713 1.377 . S
C2713 H2697 0.930 . S
C2713 C2712 1.377 . S
C2713 C2714 1.379 . S
C2714 H2698 0.931 . S
C2714 C2708 1.383 . S
C2714 C2713 1.379 . S
H2715 C2709 0.959 . S
H2716 C2709 0.961 . S
H2717 C2709 0.960 . S
H2718 C2710 0.930 . S
H2719 C2711 0.929 . S
H2720 C2728 0.929 . S
H2721 C2730 0.930 . S
H2722 C2732 0.930 . S
H2723 C2735 0.929 . S
H2724 C2738 0.930 . S
H2725 C2740 0.960 . S
H2726 C2740 0.960 . S
H2727 C2740 0.960 . S
C2728 H2720 0.929 . S
C2728 C2729 1.377 . S
C2728 C2730 1.384 . S
C2729 C2728 1.377 . S
C2729 C2735 1.390 . S
C2730 H2721 0.930 . S
C2730 C2728 1.384 . S
C2730 C2731 1.372 . S
C2731 C2730 1.372 . S
C2731 C2732 1.400 . S
C2731 C2736 1.490 . S
C2732 H2722 0.930 . S
C2732 C2731 1.400 . S
C2732 C2735 1.386 . S
H2733 C2749 0.930 . S
H2734 C2750 0.931 . S
C2735 H2723 0.929 . S
C2735 C2729 1.390 . S
C2735 C2732 1.386 . S
C2736 C2731 1.490 . S
C2736 C2738 1.395 . S
C2736 C2739 1.403 . S
H2737 C2743 0.930 . S
C2738 H2724 0.930 . S
C2738 C2736 1.395 . S
C2738 C2741 1.403 . S
C2739 C2736 1.403 . S
C2739 C2740 1.524 . S
C2739 C2743 1.400 . S
C2740 H2725 0.960 . S
C2740 H2726 0.960 . S
C2740 H2727 0.960 . S
C2740 C2739 1.524 . S
C2741 C2738 1.403 . S
C2741 C2742 1.392 . S
C2741 C2745 1.495 . S
C2742 C2741 1.392 . S
C2742 C2743 1.385 . S
C2742 C2744 1.478 . S
C2743 H2737 0.930 . S
C2743 C2739 1.400 . S
C2743 C2742 1.385 . S
C2744 C2742 1.478 . S
C2744 C2746 1.381 . S
C2744 C2750 1.383 . S
C2745 C2741 1.495 . S
C2745 H2751 0.959 . S
C2745 H2752 0.961 . S
C2745 H2753 0.960 . S
C2746 C2744 1.381 . S
C2746 C2747 1.394 . S
C2746 H2754 0.930 . S
C2747 C2746 1.394 . S
C2747 C2748 1.383 . S
C2747 H2755 0.929 . S
C2748 C2747 1.383 . S
C2748 C2749 1.377 . S
C2749 H2733 0.930 . S
C2749 C2748 1.377 . S
C2749 C2750 1.379 . S
C2750 H2734 0.931 . S
C2750 C2744 1.383 . S
C2750 C2749 1.379 . S
H2751 C2745 0.959 . S
H2752 C2745 0.961 . S
H2753 C2745 0.960 . S
H2754 C2746 0.930 . S
H2755 C2747 0.929 . S
H2756 C2764 0.929 . S
H2757 C2766 0.930 . S
H2758 C2768 0.930 . S
H2759 C2771 0.929 . S
H2760 C2774 0.930 . S
H2761 C2776 0.960 . S
H2762 C2776 0.960 . S
H2763 C2776 0.960 . S
C2764 H2756 0.929 . S
C2764 C2765 1.377 . S
C2764 C2766 1.384 . S
C2765 C2764 1.377 . S
C2765 C2771 1.390 . S
C2766 H2757 0.930 . S
C2766 C2764 1.384 . S
C2766 C2767 1.372 . S
C2767 C2766 1.372 . S
C2767 C2768 1.400 . S
C2767 C2772 1.490 . S
C2768 H2758 0.930 . S
C2768 C2767 1.400 . S
C2768 C2771 1.386 . S
H2769 C2785 0.930 . S
H2770 C2786 0.931 . S
C2771 H2759 0.929 . S
C2771 C2765 1.390 . S
C2771 C2768 1.386 . S
C2772 C2767 1.490 . S
C2772 C2774 1.395 . S
C2772 C2775 1.403 . S
H2773 C2779 0.930 . S
C2774 H2760 0.930 . S
C2774 C2772 1.395 . S
C2774 C2777 1.403 . S
C2775 C2772 1.403 . S
C2775 C2776 1.524 . S
C2775 C2779 1.400 . S
C2776 H2761 0.960 . S
C2776 H2762 0.960 . S
C2776 H2763 0.960 . S
C2776 C2775 1.524 . S
C2777 C2774 1.403 . S
C2777 C2778 1.392 . S
C2777 C2781 1.495 . S
C2778 C2777 1.392 . S
C2778 C2779 1.385 . S
C2778 C2780 1.478 . S
C2779 H2773 0.930 . S
C2779 C2775 1.400 . S
C2779 C2778 1.385 . S
C2780 C2778 1.478 . S
C2780 C2782 1.381 . S
C2780 C2786 1.383 . S
C2781 C2777 1.495 . S
C2781 H2787 0.959 . S
C2781 H2788 0.961 . S
C2781 H2789 0.960 . S
C2782 C2780 1.381 . S
C2782 C2783 1.394 . S
C2782 H2790 0.930 . S
C2783 C2782 1.394 . S
C2783 C2784 1.383 . S
C2783 H2791 0.929 . S
C2784 C2783 1.383 . S
C2784 C2785 1.377 . S
C2785 H2769 0.930 . S
C2785 C2784 1.377 . S
C2785 C2786 1.379 . S
C2786 H2770 0.931 . S
C2786 C2780 1.383 . S
C2786 C2785 1.379 . S
H2787 C2781 0.959 . S
H2788 C2781 0.961 . S
H2789 C2781 0.960 . S
H2790 C2782 0.930 . S
H2791 C2783 0.929 . S
H2792 C2800 0.929 . S
H2793 C2802 0.930 . S
H2794 C2804 0.930 . S
H2795 C2807 0.929 . S
H2796 C2810 0.930 . S
H2797 C2812 0.960 . S
H2798 C2812 0.960 . S
H2799 C2812 0.960 . S
C2800 H2792 0.929 . S
C2800 C2801 1.377 . S
C2800 C2802 1.384 . S
C2801 C2800 1.377 . S
C2801 C2807 1.390 . S
C2802 H2793 0.930 . S
C2802 C2800 1.384 . S
C2802 C2803 1.372 . S
C2803 C2802 1.372 . S
C2803 C2804 1.400 . S
C2803 C2808 1.490 . S
C2804 H2794 0.930 . S
C2804 C2803 1.400 . S
C2804 C2807 1.386 . S
H2805 C2821 0.930 . S
H2806 C2822 0.931 . S
C2807 H2795 0.929 . S
C2807 C2801 1.390 . S
C2807 C2804 1.386 . S
C2808 C2803 1.490 . S
C2808 C2810 1.395 . S
C2808 C2811 1.403 . S
H2809 C2815 0.930 . S
C2810 H2796 0.930 . S
C2810 C2808 1.395 . S
C2810 C2813 1.403 . S
C2811 C2808 1.403 . S
C2811 C2812 1.524 . S
C2811 C2815 1.400 . S
C2812 H2797 0.960 . S
C2812 H2798 0.960 . S
C2812 H2799 0.960 . S
C2812 C2811 1.524 . S
C2813 C2810 1.403 . S
C2813 C2814 1.392 . S
C2813 C2817 1.495 . S
C2814 C2813 1.392 . S
C2814 C2815 1.385 . S
C2814 C2816 1.478 . S
C2815 H2809 0.930 . S
C2815 C2811 1.400 . S
C2815 C2814 1.385 . S
C2816 C2814 1.478 . S
C2816 C2818 1.381 . S
C2816 C2822 1.383 . S
C2817 C2813 1.495 . S
C2817 H2823 0.959 . S
C2817 H2824 0.961 . S
C2817 H2825 0.960 . S
C2818 C2816 1.381 . S
C2818 C2819 1.394 . S
C2818 H2826 0.930 . S
C2819 C2818 1.394 . S
C2819 C2820 1.383 . S
C2819 H2827 0.929 . S
C2820 C2819 1.383 . S
C2820 C2821 1.377 . S
C2821 H2805 0.930 . S
C2821 C2820 1.377 . S
C2821 C2822 1.379 . S
C2822 H2806 0.931 . S
C2822 C2816 1.383 . S
C2822 C2821 1.379 . S
H2823 C2817 0.959 . S
H2824 C2817 0.961 . S
H2825 C2817 0.960 . S
H2826 C2818 0.930 . S
H2827 C2819 0.929 . S
H2828 C2836 0.929 . S
H2829 C2838 0.930 . S
H2830 C2840 0.930 . S
H2831 C2843 0.929 . S
H2832 C2846 0.930 . S
H2833 C2848 0.960 . S
H2834 C2848 0.960 . S
H2835 C2848 0.960 . S
C2836 H2828 0.929 . S
C2836 C2837 1.377 . S
C2836 C2838 1.384 . S
C2837 C2836 1.377 . S
C2837 C2843 1.390 . S
C2838 H2829 0.930 . S
C2838 C2836 1.384 . S
C2838 C2839 1.372 . S
C2839 C2838 1.372 . S
C2839 C2840 1.400 . S
C2839 C2844 1.490 . S
C2840 H2830 0.930 . S
C2840 C2839 1.400 . S
C2840 C2843 1.386 . S
H2841 C2857 0.930 . S
H2842 C2858 0.931 . S
C2843 H2831 0.929 . S
C2843 C2837 1.390 . S
C2843 C2840 1.386 . S
C2844 C2839 1.490 . S
C2844 C2846 1.395 . S
C2844 C2847 1.403 . S
H2845 C2851 0.930 . S
C2846 H2832 0.930 . S
C2846 C2844 1.395 . S
C2846 C2849 1.403 . S
C2847 C2844 1.403 . S
C2847 C2848 1.524 . S
C2847 C2851 1.400 . S
C2848 H2833 0.960 . S
C2848 H2834 0.960 . S
C2848 H2835 0.960 . S
C2848 C2847 1.524 . S
C2849 C2846 1.403 . S
C2849 C2850 1.392 . S
C2849 C2853 1.495 . S
C2850 C2849 1.392 . S
C2850 C2851 1.385 . S
C2850 C2852 1.478 . S
C2851 H2845 0.930 . S
C2851 C2847 1.400 . S
C2851 C2850 1.385 . S
C2852 C2850 1.478 . S
C2852 C2854 1.381 . S
C2852 C2858 1.383 . S
C2853 C2849 1.495 . S
C2853 H2859 0.959 . S
C2853 H2860 0.961 . S
C2853 H2861 0.960 . S
C2854 C2852 1.381 . S
C2854 C2855 1.394 . S
C2854 H2862 0.930 . S
C2855 C2854 1.394 . S
C2855 C2856 1.383 . S
C2855 H2863 0.929 . S
C2856 C2855 1.383 . S
C2856 C2857 1.377 . S
C2857 H2841 0.930 . S
C2857 C2856 1.377 . S
C2857 C2858 1.379 . S
C2858 H2842 0.931 . S
C2858 C2852 1.383 . S
C2858 C2857 1.379 . S
H2859 C2853 0.959 . S
H2860 C2853 0.961 . S
H2861 C2853 0.960 . S
H2862 C2854 0.930 . S
H2863 C2855 0.929 . S
H2864 C2872 0.929 . S
H2865 C2874 0.930 . S
H2866 C2876 0.930 . S
H2867 C2879 0.929 . S
H2868 C2882 0.930 . S
H2869 C2884 0.960 . S
H2870 C2884 0.960 . S
H2871 C2884 0.960 . S
C2872 H2864 0.929 . S
C2872 C2873 1.377 . S
C2872 C2874 1.384 . S
C2873 C2872 1.377 . S
C2873 C2879 1.390 . S
C2874 H2865 0.930 . S
C2874 C2872 1.384 . S
C2874 C2875 1.372 . S
C2875 C2874 1.372 . S
C2875 C2876 1.400 . S
C2875 C2880 1.490 . S
C2876 H2866 0.930 . S
C2876 C2875 1.400 . S
C2876 C2879 1.386 . S
H2877 C2893 0.930 . S
H2878 C2894 0.931 . S
C2879 H2867 0.929 . S
C2879 C2873 1.390 . S
C2879 C2876 1.386 . S
C2880 C2875 1.490 . S
C2880 C2882 1.395 . S
C2880 C2883 1.403 . S
H2881 C2887 0.930 . S
C2882 H2868 0.930 . S
C2882 C2880 1.395 . S
C2882 C2885 1.403 . S
C2883 C2880 1.403 . S
C2883 C2884 1.524 . S
C2883 C2887 1.400 . S
C2884 H2869 0.960 . S
C2884 H2870 0.960 . S
C2884 H2871 0.960 . S
C2884 C2883 1.524 . S
C2885 C2882 1.403 . S
C2885 C2886 1.392 . S
C2885 C2889 1.495 . S
C2886 C2885 1.392 . S
C2886 C2887 1.385 . S
C2886 C2888 1.478 . S
C2887 H2881 0.930 . S
C2887 C2883 1.400 . S
C2887 C2886 1.385 . S
C2888 C2886 1.478 . S
C2888 C2890 1.381 . S
C2888 C2894 1.383 . S
C2889 C2885 1.495 . S
C2889 H2895 0.959 . S
C2889 H2896 0.961 . S
C2889 H2897 0.960 . S
C2890 C2888 1.381 . S
C2890 C2891 1.394 . S
C2890 H2898 0.930 . S
C2891 C2890 1.394 . S
C2891 C2892 1.383 . S
C2891 H2899 0.929 . S
C2892 C2891 1.383 . S
C2892 C2893 1.377 . S
C2893 H2877 0.930 . S
C2893 C2892 1.377 . S
C2893 C2894 1.379 . S
C2894 H2878 0.931 . S
C2894 C2888 1.383 . S
C2894 C2893 1.379 . S
H2895 C2889 0.959 . S
H2896 C2889 0.961 . S
H2897 C2889 0.960 . S
H2898 C2890 0.930 . S
H2899 C2891 0.929 . S
H2900 C2908 0.929 . S
H2901 C2910 0.930 . S
H2902 C2912 0.930 . S
H2903 C2915 0.929 . S
H2904 C2918 0.930 . S
H2905 C2920 0.960 . S
H2906 C2920 0.960 . S
H2907 C2920 0.960 . S
C2908 H2900 0.929 . S
C2908 C2909 1.377 . S
C2908 C2910 1.384 . S
C2909 C2908 1.377 . S
C2909 C2915 1.390 . S
C2910 H2901 0.930 . S
C2910 C2908 1.384 . S
C2910 C2911 1.372 . S
C2911 C2910 1.372 . S
C2911 C2912 1.400 . S
C2911 C2916 1.490 . S
C2912 H2902 0.930 . S
C2912 C2911 1.400 . S
C2912 C2915 1.386 . S
H2913 C2929 0.930 . S
H2914 C2930 0.931 . S
C2915 H2903 0.929 . S
C2915 C2909 1.390 . S
C2915 C2912 1.386 . S
C2916 C2911 1.490 . S
C2916 C2918 1.395 . S
C2916 C2919 1.403 . S
H2917 C2923 0.930 . S
C2918 H2904 0.930 . S
C2918 C2916 1.395 . S
C2918 C2921 1.403 . S
C2919 C2916 1.403 . S
C2919 C2920 1.524 . S
C2919 C2923 1.400 . S
C2920 H2905 0.960 . S
C2920 H2906 0.960 . S
C2920 H2907 0.960 . S
C2920 C2919 1.524 . S
C2921 C2918 1.403 . S
C2921 C2922 1.392 . S
C2921 C2925 1.495 . S
C2922 C2921 1.392 . S
C2922 C2923 1.385 . S
C2922 C2924 1.478 . S
C2923 H2917 0.930 . S
C2923 C2919 1.400 . S
C2923 C2922 1.385 . S
C2924 C2922 1.478 . S
C2924 C2926 1.381 . S
C2924 C2930 1.383 . S
C2925 C2921 1.495 . S
C2925 H2931 0.959 . S
C2925 H2932 0.961 . S
C2925 H2933 0.960 . S
C2926 C2924 1.381 . S
C2926 C2927 1.394 . S
C2926 H2934 0.930 . S
C2927 C2926 1.394 . S
C2927 C2928 1.383 . S
C2927 H2935 0.929 . S
C2928 C2927 1.383 . S
C2928 C2929 1.377 . S
C2929 H2913 0.930 . S
C2929 C2928 1.377 . S
C2929 C2930 1.379 . S
C2930 H2914 0.931 . S
C2930 C2924 1.383 . S
C2930 C2929 1.379 . S
H2931 C2925 0.959 . S
H2932 C2925 0.961 . S
H2933 C2925 0.960 . S
H2934 C2926 0.930 . S
H2935 C2927 0.929 . S
H2936 C2944 0.929 . S
H2937 C2946 0.930 . S
H2938 C2948 0.930 . S
H2939 C2951 0.929 . S
H2940 C2954 0.930 . S
H2941 C2956 0.960 . S
H2942 C2956 0.960 . S
H2943 C2956 0.960 . S
C2944 H2936 0.929 . S
C2944 C2945 1.377 . S
C2944 C2946 1.384 . S
C2945 C2944 1.377 . S
C2945 C2951 1.390 . S
C2946 H2937 0.930 . S
C2946 C2944 1.384 . S
C2946 C2947 1.372 . S
C2947 C2946 1.372 . S
C2947 C2948 1.400 . S
C2947 C2952 1.490 . S
C2948 H2938 0.930 . S
C2948 C2947 1.400 . S
C2948 C2951 1.386 . S
H2949 C2965 0.930 . S
H2950 C2966 0.931 . S
C2951 H2939 0.929 . S
C2951 C2945 1.390 . S
C2951 C2948 1.386 . S
C2952 C2947 1.490 . S
C2952 C2954 1.395 . S
C2952 C2955 1.403 . S
H2953 C2959 0.930 . S
C2954 H2940 0.930 . S
C2954 C2952 1.395 . S
C2954 C2957 1.403 . S
C2955 C2952 1.403 . S
C2955 C2956 1.524 . S
C2955 C2959 1.400 . S
C2956 H2941 0.960 . S
C2956 H2942 0.960 . S
C2956 H2943 0.960 . S
C2956 C2955 1.524 . S
C2957 C2954 1.403 . S
C2957 C2958 1.392 . S
C2957 C2961 1.495 . S
C2958 C2957 1.392 . S
C2958 C2959 1.385 . S
C2958 C2960 1.478 . S
C2959 H2953 0.930 . S
C2959 C2955 1.400 . S
C2959 C2958 1.385 . S
C2960 C2958 1.478 . S
C2960 C2962 1.381 . S
C2960 C2966 1.383 . S
C2961 C2957 1.495 . S
C2961 H2967 0.959 . S
C2961 H2968 0.961 . S
C2961 H2969 0.960 . S
C2962 C2960 1.381 . S
C2962 C2963 1.394 . S
C2962 H2970 0.930 . S
C2963 C2962 1.394 . S
C2963 C2964 1.383 . S
C2963 H2971 0.929 . S
C2964 C2963 1.383 . S
C2964 C2965 1.377 . S
C2965 H2949 0.930 . S
C2965 C2964 1.377 . S
C2965 C2966 1.379 . S
C2966 H2950 0.931 . S
C2966 C2960 1.383 . S
C2966 C2965 1.379 . S
H2967 C2961 0.959 . S
H2968 C2961 0.961 . S
H2969 C2961 0.960 . S
H2970 C2962 0.930 . S
H2971 C2963 0.929 . S
H2972 C2980 0.929 . S
H2973 C2982 0.930 . S
H2974 C2984 0.930 . S
H2975 C2987 0.929 . S
H2976 C2990 0.930 . S
H2977 C2992 0.960 . S
H2978 C2992 0.960 . S
H2979 C2992 0.960 . S
C2980 H2972 0.929 . S
C2980 C2981 1.377 . S
C2980 C2982 1.384 . S
C2981 C2980 1.377 . S
C2981 C2987 1.390 . S
C2982 H2973 0.930 . S
C2982 C2980 1.384 . S
C2982 C2983 1.372 . S
C2983 C2982 1.372 . S
C2983 C2984 1.400 . S
C2983 C2988 1.490 . S
C2984 H2974 0.930 . S
C2984 C2983 1.400 . S
C2984 C2987 1.386 . S
H2985 C3001 0.930 . S
H2986 C3002 0.931 . S
C2987 H2975 0.929 . S
C2987 C2981 1.390 . S
C2987 C2984 1.386 . S
C2988 C2983 1.490 . S
C2988 C2990 1.395 . S
C2988 C2991 1.403 . S
H2989 C2995 0.930 . S
C2990 H2976 0.930 . S
C2990 C2988 1.395 . S
C2990 C2993 1.403 . S
C2991 C2988 1.403 . S
C2991 C2992 1.524 . S
C2991 C2995 1.400 . S
C2992 H2977 0.960 . S
C2992 H2978 0.960 . S
C2992 H2979 0.960 . S
C2992 C2991 1.524 . S
C2993 C2990 1.403 . S
C2993 C2994 1.392 . S
C2993 C2997 1.495 . S
C2994 C2993 1.392 . S
C2994 C2995 1.385 . S
C2994 C2996 1.478 . S
C2995 H2989 0.930 . S
C2995 C2991 1.400 . S
C2995 C2994 1.385 . S
C2996 C2994 1.478 . S
C2996 C2998 1.381 . S
C2996 C3002 1.383 . S
C2997 C2993 1.495 . S
C2997 H3003 0.959 . S
C2997 H3004 0.961 . S
C2997 H3005 0.960 . S
C2998 C2996 1.381 . S
C2998 C2999 1.394 . S
C2998 H3006 0.930 . S
C2999 C2998 1.394 . S
C2999 C3000 1.383 . S
C2999 H3007 0.929 . S
C3000 C2999 1.383 . S
C3000 C3001 1.377 . S
C3001 H2985 0.930 . S
C3001 C3000 1.377 . S
C3001 C3002 1.379 . S
C3002 H2986 0.931 . S
C3002 C2996 1.383 . S
C3002 C3001 1.379 . S
H3003 C2997 0.959 . S
H3004 C2997 0.961 . S
H3005 C2997 0.960 . S
H3006 C2998 0.930 . S
H3007 C2999 0.929 . S
H3008 C3016 0.929 . S
H3009 C3018 0.930 . S
H3010 C3020 0.930 . S
H3011 C3023 0.929 . S
H3012 C3026 0.930 . S
H3013 C3028 0.960 . S
H3014 C3028 0.960 . S
H3015 C3028 0.960 . S
C3016 H3008 0.929 . S
C3016 C3017 1.377 . S
C3016 C3018 1.384 . S
C3017 C3016 1.377 . S
C3017 C3023 1.390 . S
C3018 H3009 0.930 . S
C3018 C3016 1.384 . S
C3018 C3019 1.372 . S
C3019 C3018 1.372 . S
C3019 C3020 1.400 . S
C3019 C3024 1.490 . S
C3020 H3010 0.930 . S
C3020 C3019 1.400 . S
C3020 C3023 1.386 . S
H3021 C3037 0.930 . S
H3022 C3038 0.931 . S
C3023 H3011 0.929 . S
C3023 C3017 1.390 . S
C3023 C3020 1.386 . S
C3024 C3019 1.490 . S
C3024 C3026 1.395 . S
C3024 C3027 1.403 . S
H3025 C3031 0.930 . S
C3026 H3012 0.930 . S
C3026 C3024 1.395 . S
C3026 C3029 1.403 . S
C3027 C3024 1.403 . S
C3027 C3028 1.524 . S
C3027 C3031 1.400 . S
C3028 H3013 0.960 . S
C3028 H3014 0.960 . S
C3028 H3015 0.960 . S
C3028 C3027 1.524 . S
C3029 C3026 1.403 . S
C3029 C3030 1.392 . S
C3029 C3033 1.495 . S
C3030 C3029 1.392 . S
C3030 C3031 1.385 . S
C3030 C3032 1.478 . S
C3031 H3025 0.930 . S
C3031 C3027 1.400 . S
C3031 C3030 1.385 . S
C3032 C3030 1.478 . S
C3032 C3034 1.381 . S
C3032 C3038 1.383 . S
C3033 C3029 1.495 . S
C3033 H3039 0.959 . S
C3033 H3040 0.961 . S
C3033 H3041 0.960 . S
C3034 C3032 1.381 . S
C3034 C3035 1.394 . S
C3034 H3042 0.930 . S
C3035 C3034 1.394 . S
C3035 C3036 1.383 . S
C3035 H3043 0.929 . S
C3036 C3035 1.383 . S
C3036 C3037 1.377 . S
C3037 H3021 0.930 . S
C3037 C3036 1.377 . S
C3037 C3038 1.379 . S
C3038 H3022 0.931 . S
C3038 C3032 1.383 . S
C3038 C3037 1.379 . S
H3039 C3033 0.959 . S
H3040 C3033 0.961 . S
H3041 C3033 0.960 . S
H3042 C3034 0.930 . S
H3043 C3035 0.929 . S
H3044 C3052 0.929 . S
H3045 C3054 0.930 . S
H3046 C3056 0.930 . S
H3047 C3059 0.929 . S
H3048 C3062 0.930 . S
H3049 C3064 0.960 . S
H3050 C3064 0.960 . S
H3051 C3064 0.960 . S
C3052 H3044 0.929 . S
C3052 C3053 1.377 . S
C3052 C3054 1.384 . S
C3053 C3052 1.377 . S
C3053 C3059 1.390 . S
C3054 H3045 0.930 . S
C3054 C3052 1.384 . S
C3054 C3055 1.372 . S
C3055 C3054 1.372 . S
C3055 C3056 1.400 . S
C3055 C3060 1.490 . S
C3056 H3046 0.930 . S
C3056 C3055 1.400 . S
C3056 C3059 1.386 . S
H3057 C3073 0.930 . S
H3058 C3074 0.931 . S
C3059 H3047 0.929 . S
C3059 C3053 1.390 . S
C3059 C3056 1.386 . S
C3060 C3055 1.490 . S
C3060 C3062 1.395 . S
C3060 C3063 1.403 . S
H3061 C3067 0.930 . S
C3062 H3048 0.930 . S
C3062 C3060 1.395 . S
C3062 C3065 1.403 . S
C3063 C3060 1.403 . S
C3063 C3064 1.524 . S
C3063 C3067 1.400 . S
C3064 H3049 0.960 . S
C3064 H3050 0.960 . S
C3064 H3051 0.960 . S
C3064 C3063 1.524 . S
C3065 C3062 1.403 . S
C3065 C3066 1.392 . S
C3065 C3069 1.495 . S
C3066 C3065 1.392 . S
C3066 C3067 1.385 . S
C3066 C3068 1.478 . S
C3067 H3061 0.930 . S
C3067 C3063 1.400 . S
C3067 C3066 1.385 . S
C3068 C3066 1.478 . S
C3068 C3070 1.381 . S
C3068 C3074 1.383 . S
C3069 C3065 1.495 . S
C3069 H3075 0.959 . S
C3069 H3076 0.961 . S
C3069 H3077 0.960 . S
C3070 C3068 1.381 . S
C3070 C3071 1.394 . S
C3070 H3078 0.930 . S
C3071 C3070 1.394 . S
C3071 C3072 1.383 . S
C3071 H3079 0.929 . S
C3072 C3071 1.383 . S
C3072 C3073 1.377 . S
C3073 H3057 0.930 . S
C3073 C3072 1.377 . S
C3073 C3074 1.379 . S
C3074 H3058 0.931 . S
C3074 C3068 1.383 . S
C3074 C3073 1.379 . S
H3075 C3069 0.959 . S
H3076 C3069 0.961 . S
H3077 C3069 0.960 . S
H3078 C3070 0.930 . S
H3079 C3071 0.929 . S
H3080 C3088 0.929 . S
H3081 C3090 0.930 . S
H3082 C3092 0.930 . S
H3083 C3095 0.929 . S
H3084 C3098 0.930 . S
H3085 C3100 0.960 . S
H3086 C3100 0.960 . S
H3087 C3100 0.960 . S
C3088 H3080 0.929 . S
C3088 C3089 1.377 . S
C3088 C3090 1.384 . S
C3089 C3088 1.377 . S
C3089 C3095 1.390 . S
C3090 H3081 0.930 . S
C3090 C3088 1.384 . S
C3090 C3091 1.372 . S
C3091 C3090 1.372 . S
C3091 C3092 1.400 . S
C3091 C3096 1.490 . S
C3092 H3082 0.930 . S
C3092 C3091 1.400 . S
C3092 C3095 1.386 . S
H3093 C3109 0.930 . S
H3094 C3110 0.931 . S
C3095 H3083 0.929 . S
C3095 C3089 1.390 . S
C3095 C3092 1.386 . S
C3096 C3091 1.490 . S
C3096 C3098 1.395 . S
C3096 C3099 1.403 . S
H3097 C3103 0.930 . S
C3098 H3084 0.930 . S
C3098 C3096 1.395 . S
C3098 C3101 1.403 . S
C3099 C3096 1.403 . S
C3099 C3100 1.524 . S
C3099 C3103 1.400 . S
C3100 H3085 0.960 . S
C3100 H3086 0.960 . S
C3100 H3087 0.960 . S
C3100 C3099 1.524 . S
C3101 C3098 1.403 . S
C3101 C3102 1.392 . S
C3101 C3105 1.495 . S
C3102 C3101 1.392 . S
C3102 C3103 1.385 . S
C3102 C3104 1.478 . S
C3103 H3097 0.930 . S
C3103 C3099 1.400 . S
C3103 C3102 1.385 . S
C3104 C3102 1.478 . S
C3104 C3106 1.381 . S
C3104 C3110 1.383 . S
C3105 C3101 1.495 . S
C3105 H3111 0.959 . S
C3105 H3112 0.961 . S
C3105 H3113 0.960 . S
C3106 C3104 1.381 . S
C3106 C3107 1.394 . S
C3106 H3114 0.930 . S
C3107 C3106 1.394 . S
C3107 C3108 1.383 . S
C3107 H3115 0.929 . S
C3108 C3107 1.383 . S
C3108 C3109 1.377 . S
C3109 H3093 0.930 . S
C3109 C3108 1.377 . S
C3109 C3110 1.379 . S
C3110 H3094 0.931 . S
C3110 C3104 1.383 . S
C3110 C3109 1.379 . S
H3111 C3105 0.959 . S
H3112 C3105 0.961 . S
H3113 C3105 0.960 . S
H3114 C3106 0.930 . S
H3115 C3107 0.929 . S
H3116 C3124 0.929 . S
H3117 C3126 0.930 . S
H3118 C3128 0.930 . S
H3119 C3131 0.929 . S
H3120 C3134 0.930 . S
H3121 C3136 0.960 . S
H3122 C3136 0.960 . S
H3123 C3136 0.960 . S
C3124 H3116 0.929 . S
C3124 C3125 1.377 . S
C3124 C3126 1.384 . S
C3125 C3124 1.377 . S
C3125 C3131 1.390 . S
C3126 H3117 0.930 . S
C3126 C3124 1.384 . S
C3126 C3127 1.372 . S
C3127 C3126 1.372 . S
C3127 C3128 1.400 . S
C3127 C3132 1.490 . S
C3128 H3118 0.930 . S
C3128 C3127 1.400 . S
C3128 C3131 1.386 . S
H3129 C3145 0.930 . S
H3130 C3146 0.931 . S
C3131 H3119 0.929 . S
C3131 C3125 1.390 . S
C3131 C3128 1.386 . S
C3132 C3127 1.490 . S
C3132 C3134 1.395 . S
C3132 C3135 1.403 . S
H3133 C3139 0.930 . S
C3134 H3120 0.930 . S
C3134 C3132 1.395 . S
C3134 C3137 1.403 . S
C3135 C3132 1.403 . S
C3135 C3136 1.524 . S
C3135 C3139 1.400 . S
C3136 H3121 0.960 . S
C3136 H3122 0.960 . S
C3136 H3123 0.960 . S
C3136 C3135 1.524 . S
C3137 C3134 1.403 . S
C3137 C3138 1.392 . S
C3137 C3141 1.495 . S
C3138 C3137 1.392 . S
C3138 C3139 1.385 . S
C3138 C3140 1.478 . S
C3139 H3133 0.930 . S
C3139 C3135 1.400 . S
C3139 C3138 1.385 . S
C3140 C3138 1.478 . S
C3140 C3142 1.381 . S
C3140 C3146 1.383 . S
C3141 C3137 1.495 . S
C3141 H3147 0.959 . S
C3141 H3148 0.961 . S
C3141 H3149 0.960 . S
C3142 C3140 1.381 . S
C3142 C3143 1.394 . S
C3142 H3150 0.930 . S
C3143 C3142 1.394 . S
C3143 C3144 1.383 . S
C3143 H3151 0.929 . S
C3144 C3143 1.383 . S
C3144 C3145 1.377 . S
C3145 H3129 0.930 . S
C3145 C3144 1.377 . S
C3145 C3146 1.379 . S
C3146 H3130 0.931 . S
C3146 C3140 1.383 . S
C3146 C3145 1.379 . S
H3147 C3141 0.959 . S
H3148 C3141 0.961 . S
H3149 C3141 0.960 . S
H3150 C3142 0.930 . S
H3151 C3143 0.929 . S
H3152 C3160 0.929 . S
H3153 C3162 0.930 . S
H3154 C3164 0.930 . S
H3155 C3167 0.929 . S
H3156 C3170 0.930 . S
H3157 C3172 0.960 . S
H3158 C3172 0.960 . S
H3159 C3172 0.960 . S
C3160 H3152 0.929 . S
C3160 C3161 1.377 . S
C3160 C3162 1.384 . S
C3161 C3160 1.377 . S
C3161 C3167 1.390 . S
C3162 H3153 0.930 . S
C3162 C3160 1.384 . S
C3162 C3163 1.372 . S
C3163 C3162 1.372 . S
C3163 C3164 1.400 . S
C3163 C3168 1.490 . S
C3164 H3154 0.930 . S
C3164 C3163 1.400 . S
C3164 C3167 1.386 . S
H3165 C3181 0.930 . S
H3166 C3182 0.931 . S
C3167 H3155 0.929 . S
C3167 C3161 1.390 . S
C3167 C3164 1.386 . S
C3168 C3163 1.490 . S
C3168 C3170 1.395 . S
C3168 C3171 1.403 . S
H3169 C3175 0.930 . S
C3170 H3156 0.930 . S
C3170 C3168 1.395 . S
C3170 C3173 1.403 . S
C3171 C3168 1.403 . S
C3171 C3172 1.524 . S
C3171 C3175 1.400 . S
C3172 H3157 0.960 . S
C3172 H3158 0.960 . S
C3172 H3159 0.960 . S
C3172 C3171 1.524 . S
C3173 C3170 1.403 . S
C3173 C3174 1.392 . S
C3173 C3177 1.495 . S
C3174 C3173 1.392 . S
C3174 C3175 1.385 . S
C3174 C3176 1.478 . S
C3175 H3169 0.930 . S
C3175 C3171 1.400 . S
C3175 C3174 1.385 . S
C3176 C3174 1.478 . S
C3176 C3178 1.381 . S
C3176 C3182 1.383 . S
C3177 C3173 1.495 . S
C3177 H3183 0.959 . S
C3177 H3184 0.961 . S
C3177 H3185 0.960 . S
C3178 C3176 1.381 . S
C3178 C3179 1.394 . S
C3178 H3186 0.930 . S
C3179 C3178 1.394 . S
C3179 C3180 1.383 . S
C3179 H3187 0.929 . S
C3180 C3179 1.383 . S
C3180 C3181 1.377 . S
C3181 H3165 0.930 . S
C3181 C3180 1.377 . S
C3181 C3182 1.379 . S
C3182 H3166 0.931 . S
C3182 C3176 1.383 . S
C3182 C3181 1.379 . S
H3183 C3177 0.959 . S
H3184 C3177 0.961 . S
H3185 C3177 0.960 . S
H3186 C3178 0.930 . S
H3187 C3179 0.929 . S
H3188 C3196 0.929 . S
H3189 C3198 0.930 . S
H3190 C3200 0.930 . S
H3191 C3203 0.929 . S
H3192 C3206 0.930 . S
H3193 C3208 0.960 . S
H3194 C3208 0.960 . S
H3195 C3208 0.960 . S
C3196 H3188 0.929 . S
C3196 C3197 1.377 . S
C3196 C3198 1.384 . S
C3197 C3196 1.377 . S
C3197 C3203 1.390 . S
C3198 H3189 0.930 . S
C3198 C3196 1.384 . S
C3198 C3199 1.372 . S
C3199 C3198 1.372 . S
C3199 C3200 1.400 . S
C3199 C3204 1.490 . S
C3200 H3190 0.930 . S
C3200 C3199 1.400 . S
C3200 C3203 1.386 . S
H3201 C3217 0.930 . S
H3202 C3218 0.931 . S
C3203 H3191 0.929 . S
C3203 C3197 1.390 . S
C3203 C3200 1.386 . S
C3204 C3199 1.490 . S
C3204 C3206 1.395 . S
C3204 C3207 1.403 . S
H3205 C3211 0.930 . S
C3206 H3192 0.930 . S
C3206 C3204 1.395 . S
C3206 C3209 1.403 . S
C3207 C3204 1.403 . S
C3207 C3208 1.524 . S
C3207 C3211 1.400 . S
C3208 H3193 0.960 . S
C3208 H3194 0.960 . S
C3208 H3195 0.960 . S
C3208 C3207 1.524 . S
C3209 C3206 1.403 . S
C3209 C3210 1.392 . S
C3209 C3213 1.495 . S
C3210 C3209 1.392 . S
C3210 C3211 1.385 . S
C3210 C3212 1.478 . S
C3211 H3205 0.930 . S
C3211 C3207 1.400 . S
C3211 C3210 1.385 . S
C3212 C3210 1.478 . S
C3212 C3214 1.381 . S
C3212 C3218 1.383 . S
C3213 C3209 1.495 . S
C3213 H3219 0.959 . S
C3213 H3220 0.961 . S
C3213 H3221 0.960 . S
C3214 C3212 1.381 . S
C3214 C3215 1.394 . S
C3214 H3222 0.930 . S
C3215 C3214 1.394 . S
C3215 C3216 1.383 . S
C3215 H3223 0.929 . S
C3216 C3215 1.383 . S
C3216 C3217 1.377 . S
C3217 H3201 0.930 . S
C3217 C3216 1.377 . S
C3217 C3218 1.379 . S
C3218 H3202 0.931 . S
C3218 C3212 1.383 . S
C3218 C3217 1.379 . S
H3219 C3213 0.959 . S
H3220 C3213 0.961 . S
H3221 C3213 0.960 . S
H3222 C3214 0.930 . S
H3223 C3215 0.929 . S
H3224 C3232 0.929 . S
H3225 C3234 0.930 . S
H3226 C3236 0.930 . S
H3227 C3239 0.929 . S
H3228 C3242 0.930 . S
H3229 C3244 0.960 . S
H3230 C3244 0.960 . S
H3231 C3244 0.960 . S
C3232 H3224 0.929 . S
C3232 C3233 1.377 . S
C3232 C3234 1.384 . S
C3233 C3232 1.377 . S
C3233 C3239 1.390 . S
C3234 H3225 0.930 . S
C3234 C3232 1.384 . S
C3234 C3235 1.372 . S
C3235 C3234 1.372 . S
C3235 C3236 1.400 . S
C3235 C3240 1.490 . S
C3236 H3226 0.930 . S
C3236 C3235 1.400 . S
C3236 C3239 1.386 . S
H3237 C3253 0.930 . S
H3238 C3254 0.931 . S
C3239 H3227 0.929 . S
C3239 C3233 1.390 . S
C3239 C3236 1.386 . S
C3240 C3235 1.490 . S
C3240 C3242 1.395 . S
C3240 C3243 1.403 . S
H3241 C3247 0.930 . S
C3242 H3228 0.930 . S
C3242 C3240 1.395 . S
C3242 C3245 1.403 . S
C3243 C3240 1.403 . S
C3243 C3244 1.524 . S
C3243 C3247 1.400 . S
C3244 H3229 0.960 . S
C3244 H3230 0.960 . S
C3244 H3231 0.960 . S
C3244 C3243 1.524 . S
C3245 C3242 1.403 . S
C3245 C3246 1.392 . S
C3245 C3249 1.495 . S
C3246 C3245 1.392 . S
C3246 C3247 1.385 . S
C3246 C3248 1.478 . S
C3247 H3241 0.930 . S
C3247 C3243 1.400 . S
C3247 C3246 1.385 . S
C3248 C3246 1.478 . S
C3248 C3250 1.381 . S
C3248 C3254 1.383 . S
C3249 C3245 1.495 . S
C3249 H3255 0.959 . S
C3249 H3256 0.961 . S
C3249 H3257 0.960 . S
C3250 C3248 1.381 . S
C3250 C3251 1.394 . S
C3250 H3258 0.930 . S
C3251 C3250 1.394 . S
C3251 C3252 1.383 . S
C3251 H3259 0.929 . S
C3252 C3251 1.383 . S
C3252 C3253 1.377 . S
C3253 H3237 0.930 . S
C3253 C3252 1.377 . S
C3253 C3254 1.379 . S
C3254 H3238 0.931 . S
C3254 C3248 1.383 . S
C3254 C3253 1.379 . S
H3255 C3249 0.959 . S
H3256 C3249 0.961 . S
H3257 C3249 0.960 . S
H3258 C3250 0.930 . S
H3259 C3251 0.929 . S
H3260 C3268 0.929 . S
H3261 C3270 0.930 . S
H3262 C3272 0.930 . S
H3263 C3275 0.929 . S
H3264 C3278 0.930 . S
H3265 C3280 0.960 . S
H3266 C3280 0.960 . S
H3267 C3280 0.960 . S
C3268 H3260 0.929 . S
C3268 C3269 1.377 . S
C3268 C3270 1.384 . S
C3269 C3268 1.377 . S
C3269 C3275 1.390 . S
C3270 H3261 0.930 . S
C3270 C3268 1.384 . S
C3270 C3271 1.372 . S
C3271 C3270 1.372 . S
C3271 C3272 1.400 . S
C3271 C3276 1.490 . S
C3272 H3262 0.930 . S
C3272 C3271 1.400 . S
C3272 C3275 1.386 . S
H3273 C3289 0.930 . S
H3274 C3290 0.931 . S
C3275 H3263 0.929 . S
C3275 C3269 1.390 . S
C3275 C3272 1.386 . S
C3276 C3271 1.490 . S
C3276 C3278 1.395 . S
C3276 C3279 1.403 . S
H3277 C3283 0.930 . S
C3278 H3264 0.930 . S
C3278 C3276 1.395 . S
C3278 C3281 1.403 . S
C3279 C3276 1.403 . S
C3279 C3280 1.524 . S
C3279 C3283 1.400 . S
C3280 H3265 0.960 . S
C3280 H3266 0.960 . S
C3280 H3267 0.960 . S
C3280 C3279 1.524 . S
C3281 C3278 1.403 . S
C3281 C3282 1.392 . S
C3281 C3285 1.495 . S
C3282 C3281 1.392 . S
C3282 C3283 1.385 . S
C3282 C3284 1.478 . S
C3283 H3277 0.930 . S
C3283 C3279 1.400 . S
C3283 C3282 1.385 . S
C3284 C3282 1.478 . S
C3284 C3286 1.381 . S
C3284 C3290 1.383 . S
C3285 C3281 1.495 . S
C3285 H3291 0.959 . S
C3285 H3292 0.961 . S
C3285 H3293 0.960 . S
C3286 C3284 1.381 . S
C3286 C3287 1.394 . S
C3286 H3294 0.930 . S
C3287 C3286 1.394 . S
C3287 C3288 1.383 . S
C3287 H3295 0.929 . S
C3288 C3287 1.383 . S
C3288 C3289 1.377 . S
C3289 H3273 0.930 . S
C3289 C3288 1.377 . S
C3289 C3290 1.379 . S
C3290 H3274 0.931 . S
C3290 C3284 1.383 . S
C3290 C3289 1.379 . S
H3291 C3285 0.959 . S
H3292 C3285 0.961 . S
H3293 C3285 0.960 . S
H3294 C3286 0.930 . S
H3295 C3287 0.929 . S
H3296 C3304 0.929 . S
H3297 C3306 0.930 . S
H3298 C3308 0.930 . S
H3299 C3311 0.929 . S
H3300 C3314 0.930 . S
H3301 C3316 0.960 . S
H3302 C3316 0.960 . S
H3303 C3316 0.960 . S
C3304 H3296 0.929 . S
C3304 C3305 1.377 . S
C3304 C3306 1.384 . S
C3305 C3304 1.377 . S
C3305 C3311 1.390 . S
C3306 H3297 0.930 . S
C3306 C3304 1.384 . S
C3306 C3307 1.372 . S
C3307 C3306 1.372 . S
C3307 C3308 1.400 . S
C3307 C3312 1.490 . S
C3308 H3298 0.930 . S
C3308 C3307 1.400 . S
C3308 C3311 1.386 . S
H3309 C3325 0.930 . S
H3310 C3326 0.931 . S
C3311 H3299 0.929 . S
C3311 C3305 1.390 . S
C3311 C3308 1.386 . S
C3312 C3307 1.490 . S
C3312 C3314 1.395 . S
C3312 C3315 1.403 . S
H3313 C3319 0.930 . S
C3314 H3300 0.930 . S
C3314 C3312 1.395 . S
C3314 C3317 1.403 . S
C3315 C3312 1.403 . S
C3315 C3316 1.524 . S
C3315 C3319 1.400 . S
C3316 H3301 0.960 . S
C3316 H3302 0.960 . S
C3316 H3303 0.960 . S
C3316 C3315 1.524 . S
C3317 C3314 1.403 . S
C3317 C3318 1.392 . S
C3317 C3321 1.495 . S
C3318 C3317 1.392 . S
C3318 C3319 1.385 . S
C3318 C3320 1.478 . S
C3319 H3313 0.930 . S
C3319 C3315 1.400 . S
C3319 C3318 1.385 . S
C3320 C3318 1.478 . S
C3320 C3322 1.381 . S
C3320 C3326 1.383 . S
C3321 C3317 1.495 . S
C3321 H3327 0.959 . S
C3321 H3328 0.961 . S
C3321 H3329 0.960 . S
C3322 C3320 1.381 . S
C3322 C3323 1.394 . S
C3322 H3330 0.930 . S
C3323 C3322 1.394 . S
C3323 C3324 1.383 . S
C3323 H3331 0.929 . S
C3324 C3323 1.383 . S
C3324 C3325 1.377 . S
C3325 H3309 0.930 . S
C3325 C3324 1.377 . S
C3325 C3326 1.379 . S
C3326 H3310 0.931 . S
C3326 C3320 1.383 . S
C3326 C3325 1.379 . S
H3327 C3321 0.959 . S
H3328 C3321 0.961 . S
H3329 C3321 0.960 . S
H3330 C3322 0.930 . S
H3331 C3323 0.929 . S
H3332 C3340 0.929 . S
H3333 C3342 0.930 . S
H3334 C3344 0.930 . S
H3335 C3347 0.929 . S
H3336 C3350 0.930 . S
H3337 C3352 0.960 . S
H3338 C3352 0.960 . S
H3339 C3352 0.960 . S
C3340 H3332 0.929 . S
C3340 C3341 1.377 . S
C3340 C3342 1.384 . S
C3341 C3340 1.377 . S
C3341 C3347 1.390 . S
C3342 H3333 0.930 . S
C3342 C3340 1.384 . S
C3342 C3343 1.372 . S
C3343 C3342 1.372 . S
C3343 C3344 1.400 . S
C3343 C3348 1.490 . S
C3344 H3334 0.930 . S
C3344 C3343 1.400 . S
C3344 C3347 1.386 . S
H3345 C3361 0.930 . S
H3346 C3362 0.931 . S
C3347 H3335 0.929 . S
C3347 C3341 1.390 . S
C3347 C3344 1.386 . S
C3348 C3343 1.490 . S
C3348 C3350 1.395 . S
C3348 C3351 1.403 . S
H3349 C3355 0.930 . S
C3350 H3336 0.930 . S
C3350 C3348 1.395 . S
C3350 C3353 1.403 . S
C3351 C3348 1.403 . S
C3351 C3352 1.524 . S
C3351 C3355 1.400 . S
C3352 H3337 0.960 . S
C3352 H3338 0.960 . S
C3352 H3339 0.960 . S
C3352 C3351 1.524 . S
C3353 C3350 1.403 . S
C3353 C3354 1.392 . S
C3353 C3357 1.495 . S
C3354 C3353 1.392 . S
C3354 C3355 1.385 . S
C3354 C3356 1.478 . S
C3355 H3349 0.930 . S
C3355 C3351 1.400 . S
C3355 C3354 1.385 . S
C3356 C3354 1.478 . S
C3356 C3358 1.381 . S
C3356 C3362 1.383 . S
C3357 C3353 1.495 . S
C3357 H3363 0.959 . S
C3357 H3364 0.961 . S
C3357 H3365 0.960 . S
C3358 C3356 1.381 . S
C3358 C3359 1.394 . S
C3358 H3366 0.930 . S
C3359 C3358 1.394 . S
C3359 C3360 1.383 . S
C3359 H3367 0.929 . S
C3360 C3359 1.383 . S
C3360 C3361 1.377 . S
C3361 H3345 0.930 . S
C3361 C3360 1.377 . S
C3361 C3362 1.379 . S
C3362 H3346 0.931 . S
C3362 C3356 1.383 . S
C3362 C3361 1.379 . S
H3363 C3357 0.959 . S
H3364 C3357 0.961 . S
H3365 C3357 0.960 . S
H3366 C3358 0.930 . S
H3367 C3359 0.929 . S
H3368 C3376 0.929 . S
H3369 C3378 0.930 . S
H3370 C3380 0.930 . S
H3371 C3383 0.929 . S
H3372 C3386 0.930 . S
H3373 C3388 0.960 . S
H3374 C3388 0.960 . S
H3375 C3388 0.960 . S
C3376 H3368 0.929 . S
C3376 C3377 1.377 . S
C3376 C3378 1.384 . S
C3377 C3376 1.377 . S
C3377 C3383 1.390 . S
C3378 H3369 0.930 . S
C3378 C3376 1.384 . S
C3378 C3379 1.372 . S
C3379 C3378 1.372 . S
C3379 C3380 1.400 . S
C3379 C3384 1.490 . S
C3380 H3370 0.930 . S
C3380 C3379 1.400 . S
C3380 C3383 1.386 . S
H3381 C3397 0.930 . S
H3382 C3398 0.931 . S
C3383 H3371 0.929 . S
C3383 C3377 1.390 . S
C3383 C3380 1.386 . S
C3384 C3379 1.490 . S
C3384 C3386 1.395 . S
C3384 C3387 1.403 . S
H3385 C3391 0.930 . S
C3386 H3372 0.930 . S
C3386 C3384 1.395 . S
C3386 C3389 1.403 . S
C3387 C3384 1.403 . S
C3387 C3388 1.524 . S
C3387 C3391 1.400 . S
C3388 H3373 0.960 . S
C3388 H3374 0.960 . S
C3388 H3375 0.960 . S
C3388 C3387 1.524 . S
C3389 C3386 1.403 . S
C3389 C3390 1.392 . S
C3389 C3393 1.495 . S
C3390 C3389 1.392 . S
C3390 C3391 1.385 . S
C3390 C3392 1.478 . S
C3391 H3385 0.930 . S
C3391 C3387 1.400 . S
C3391 C3390 1.385 . S
C3392 C3390 1.478 . S
C3392 C3394 1.381 . S
C3392 C3398 1.383 . S
C3393 C3389 1.495 . S
C3393 H3399 0.959 . S
C3393 H3400 0.961 . S
C3393 H3401 0.960 . S
C3394 C3392 1.381 . S
C3394 C3395 1.394 . S
C3394 H3402 0.930 . S
C3395 C3394 1.394 . S
C3395 C3396 1.383 . S
C3395 H3403 0.929 . S
C3396 C3395 1.383 . S
C3396 C3397 1.377 . S
C3397 H3381 0.930 . S
C3397 C3396 1.377 . S
C3397 C3398 1.379 . S
C3398 H3382 0.931 . S
C3398 C3392 1.383 . S
C3398 C3397 1.379 . S
H3399 C3393 0.959 . S
H3400 C3393 0.961 . S
H3401 C3393 0.960 . S
H3402 C3394 0.930 . S
H3403 C3395 0.929 . S
H3404 C3412 0.929 . S
H3405 C3414 0.930 . S
H3406 C3416 0.930 . S
H3407 C3419 0.929 . S
H3408 C3422 0.930 . S
H3409 C3424 0.960 . S
H3410 C3424 0.960 . S
H3411 C3424 0.960 . S
C3412 H3404 0.929 . S
C3412 C3413 1.377 . S
C3412 C3414 1.384 . S
C3413 C3412 1.377 . S
C3413 C3419 1.390 . S
C3414 H3405 0.930 . S
C3414 C3412 1.384 . S
C3414 C3415 1.372 . S
C3415 C3414 1.372 . S
C3415 C3416 1.400 . S
C3415 C3420 1.490 . S
C3416 H3406 0.930 . S
C3416 C3415 1.400 . S
C3416 C3419 1.386 . S
H3417 C3433 0.930 . S
H3418 C3434 0.931 . S
C3419 H3407 0.929 . S
C3419 C3413 1.390 . S
C3419 C3416 1.386 . S
C3420 C3415 1.490 . S
C3420 C3422 1.395 . S
C3420 C3423 1.403 . S
H3421 C3427 0.930 . S
C3422 H3408 0.930 . S
C3422 C3420 1.395 . S
C3422 C3425 1.403 . S
C3423 C3420 1.403 . S
C3423 C3424 1.524 . S
C3423 C3427 1.400 . S
C3424 H3409 0.960 . S
C3424 H3410 0.960 . S
C3424 H3411 0.960 . S
C3424 C3423 1.524 . S
C3425 C3422 1.403 . S
C3425 C3426 1.392 . S
C3425 C3429 1.495 . S
C3426 C3425 1.392 . S
C3426 C3427 1.385 . S
C3426 C3428 1.478 . S
C3427 H3421 0.930 . S
C3427 C3423 1.400 . S
C3427 C3426 1.385 . S
C3428 C3426 1.478 . S
C3428 C3430 1.381 . S
C3428 C3434 1.383 . S
C3429 C3425 1.495 . S
C3429 H3435 0.959 . S
C3429 H3436 0.961 . S
C3429 H3437 0.960 . S
C3430 C3428 1.381 . S
C3430 C3431 1.394 . S
C3430 H3438 0.930 . S
C3431 C3430 1.394 . S
C3431 C3432 1.383 . S
C3431 H3439 0.929 . S
C3432 C3431 1.383 . S
C3432 C3433 1.377 . S
C3433 H3417 0.930 . S
C3433 C3432 1.377 . S
C3433 C3434 1.379 . S
C3434 H3418 0.931 . S
C3434 C3428 1.383 . S
C3434 C3433 1.379 . S
H3435 C3429 0.959 . S
H3436 C3429 0.961 . S
H3437 C3429 0.960 . S
H3438 C3430 0.930 . S
H3439 C3431 0.929 . S
H3440 C3448 0.929 . S
H3441 C3450 0.930 . S
H3442 C3452 0.930 . S
H3443 C3455 0.929 . S
H3444 C3458 0.930 . S
H3445 C3460 0.960 . S
H3446 C3460 0.960 . S
H3447 C3460 0.960 . S
C3448 H3440 0.929 . S
C3448 C3449 1.377 . S
C3448 C3450 1.384 . S
C3449 C3448 1.377 . S
C3449 C3455 1.390 . S
C3450 H3441 0.930 . S
C3450 C3448 1.384 . S
C3450 C3451 1.372 . S
C3451 C3450 1.372 . S
C3451 C3452 1.400 . S
C3451 C3456 1.490 . S
C3452 H3442 0.930 . S
C3452 C3451 1.400 . S
C3452 C3455 1.386 . S
H3453 C3469 0.930 . S
H3454 C3470 0.931 . S
C3455 H3443 0.929 . S
C3455 C3449 1.390 . S
C3455 C3452 1.386 . S
C3456 C3451 1.490 . S
C3456 C3458 1.395 . S
C3456 C3459 1.403 . S
H3457 C3463 0.930 . S
C3458 H3444 0.930 . S
C3458 C3456 1.395 . S
C3458 C3461 1.403 . S
C3459 C3456 1.403 . S
C3459 C3460 1.524 . S
C3459 C3463 1.400 . S
C3460 H3445 0.960 . S
C3460 H3446 0.960 . S
C3460 H3447 0.960 . S
C3460 C3459 1.524 . S
C3461 C3458 1.403 . S
C3461 C3462 1.392 . S
C3461 C3465 1.495 . S
C3462 C3461 1.392 . S
C3462 C3463 1.385 . S
C3462 C3464 1.478 . S
C3463 H3457 0.930 . S
C3463 C3459 1.400 . S
C3463 C3462 1.385 . S
C3464 C3462 1.478 . S
C3464 C3466 1.381 . S
C3464 C3470 1.383 . S
C3465 C3461 1.495 . S
C3465 H3471 0.959 . S
C3465 H3472 0.961 . S
C3465 H3473 0.960 . S
C3466 C3464 1.381 . S
C3466 C3467 1.394 . S
C3466 H3474 0.930 . S
C3467 C3466 1.394 . S
C3467 C3468 1.383 . S
C3467 H3475 0.929 . S
C3468 C3467 1.383 . S
C3468 C3469 1.377 . S
C3469 H3453 0.930 . S
C3469 C3468 1.377 . S
C3469 C3470 1.379 . S
C3470 H3454 0.931 . S
C3470 C3464 1.383 . S
C3470 C3469 1.379 . S
H3471 C3465 0.959 . S
H3472 C3465 0.961 . S
H3473 C3465 0.960 . S
H3474 C3466 0.930 . S
H3475 C3467 0.929 . S
H3476 C3484 0.929 . S
H3477 C3486 0.930 . S
H3478 C3488 0.930 . S
H3479 C3491 0.929 . S
H3480 C3494 0.930 . S
H3481 C3496 0.960 . S
H3482 C3496 0.960 . S
H3483 C3496 0.960 . S
C3484 H3476 0.929 . S
C3484 C3485 1.377 . S
C3484 C3486 1.384 . S
C3485 C3484 1.377 . S
C3485 C3491 1.390 . S
C3486 H3477 0.930 . S
C3486 C3484 1.384 . S
C3486 C3487 1.372 . S
C3487 C3486 1.372 . S
C3487 C3488 1.400 . S
C3487 C3492 1.490 . S
C3488 H3478 0.930 . S
C3488 C3487 1.400 . S
C3488 C3491 1.386 . S
H3489 C3505 0.930 . S
H3490 C3506 0.931 . S
C3491 H3479 0.929 . S
C3491 C3485 1.390 . S
C3491 C3488 1.386 . S
C3492 C3487 1.490 . S
C3492 C3494 1.395 . S
C3492 C3495 1.403 . S
H3493 C3499 0.930 . S
C3494 H3480 0.930 . S
C3494 C3492 1.395 . S
C3494 C3497 1.403 . S
C3495 C3492 1.403 . S
C3495 C3496 1.524 . S
C3495 C3499 1.400 . S
C3496 H3481 0.960 . S
C3496 H3482 0.960 . S
C3496 H3483 0.960 . S
C3496 C3495 1.524 . S
C3497 C3494 1.403 . S
C3497 C3498 1.392 . S
C3497 C3501 1.495 . S
C3498 C3497 1.392 . S
C3498 C3499 1.385 . S
C3498 C3500 1.478 . S
C3499 H3493 0.930 . S
C3499 C3495 1.400 . S
C3499 C3498 1.385 . S
C3500 C3498 1.478 . S
C3500 C3502 1.381 . S
C3500 C3506 1.383 . S
C3501 C3497 1.495 . S
C3501 H3507 0.959 . S
C3501 H3508 0.961 . S
C3501 H3509 0.960 . S
C3502 C3500 1.381 . S
C3502 C3503 1.394 . S
C3502 H3510 0.930 . S
C3503 C3502 1.394 . S
C3503 C3504 1.383 . S
C3503 H3511 0.929 . S
C3504 C3503 1.383 . S
C3504 C3505 1.377 . S
C3505 H3489 0.930 . S
C3505 C3504 1.377 . S
C3505 C3506 1.379 . S
C3506 H3490 0.931 . S
C3506 C3500 1.383 . S
C3506 C3505 1.379 . S
H3507 C3501 0.959 . S
H3508 C3501 0.961 . S
H3509 C3501 0.960 . S
H3510 C3502 0.930 . S
H3511 C3503 0.929 . S
H3512 C3520 0.929 . S
H3513 C3522 0.930 . S
H3514 C3524 0.930 . S
H3515 C3527 0.929 . S
H3516 C3530 0.930 . S
H3517 C3532 0.960 . S
H3518 C3532 0.960 . S
H3519 C3532 0.960 . S
C3520 H3512 0.929 . S
C3520 C3521 1.377 . S
C3520 C3522 1.384 . S
C3521 C3520 1.377 . S
C3521 C3527 1.390 . S
C3522 H3513 0.930 . S
C3522 C3520 1.384 . S
C3522 C3523 1.372 . S
C3523 C3522 1.372 . S
C3523 C3524 1.400 . S
C3523 C3528 1.490 . S
C3524 H3514 0.930 . S
C3524 C3523 1.400 . S
C3524 C3527 1.386 . S
H3525 C3541 0.930 . S
H3526 C3542 0.931 . S
C3527 H3515 0.929 . S
C3527 C3521 1.390 . S
C3527 C3524 1.386 . S
C3528 C3523 1.490 . S
C3528 C3530 1.395 . S
C3528 C3531 1.403 . S
H3529 C3535 0.930 . S
C3530 H3516 0.930 . S
C3530 C3528 1.395 . S
C3530 C3533 1.403 . S
C3531 C3528 1.403 . S
C3531 C3532 1.524 . S
C3531 C3535 1.400 . S
C3532 H3517 0.960 . S
C3532 H3518 0.960 . S
C3532 H3519 0.960 . S
C3532 C3531 1.524 . S
C3533 C3530 1.403 . S
C3533 C3534 1.392 . S
C3533 C3537 1.495 . S
C3534 C3533 1.392 . S
C3534 C3535 1.385 . S
C3534 C3536 1.478 . S
C3535 H3529 0.930 . S
C3535 C3531 1.400 . S
C3535 C3534 1.385 . S
C3536 C3534 1.478 . S
C3536 C3538 1.381 . S
C3536 C3542 1.383 . S
C3537 C3533 1.495 . S
C3537 H3543 0.959 . S
C3537 H3544 0.961 . S
C3537 H3545 0.960 . S
C3538 C3536 1.381 . S
C3538 C3539 1.394 . S
C3538 H3546 0.930 . S
C3539 C3538 1.394 . S
C3539 C3540 1.383 . S
C3539 H3547 0.929 . S
C3540 C3539 1.383 . S
C3540 C3541 1.377 . S
C3541 H3525 0.930 . S
C3541 C3540 1.377 . S
C3541 C3542 1.379 . S
C3542 H3526 0.931 . S
C3542 C3536 1.383 . S
C3542 C3541 1.379 . S
H3543 C3537 0.959 . S
H3544 C3537 0.961 . S
H3545 C3537 0.960 . S
H3546 C3538 0.930 . S
H3547 C3539 0.929 . S
H3548 C3556 0.929 . S
H3549 C3558 0.930 . S
H3550 C3560 0.930 . S
H3551 C3563 0.929 . S
H3552 C3566 0.930 . S
H3553 C3568 0.960 . S
H3554 C3568 0.960 . S
H3555 C3568 0.960 . S
C3556 H3548 0.929 . S
C3556 C3557 1.377 . S
C3556 C3558 1.384 . S
C3557 C3556 1.377 . S
C3557 C3563 1.390 . S
C3558 H3549 0.930 . S
C3558 C3556 1.384 . S
C3558 C3559 1.372 . S
C3559 C3558 1.372 . S
C3559 C3560 1.400 . S
C3559 C3564 1.490 . S
C3560 H3550 0.930 . S
C3560 C3559 1.400 . S
C3560 C3563 1.386 . S
H3561 C3577 0.930 . S
H3562 C3578 0.931 . S
C3563 H3551 0.929 . S
C3563 C3557 1.390 . S
C3563 C3560 1.386 . S
C3564 C3559 1.490 . S
C3564 C3566 1.395 . S
C3564 C3567 1.403 . S
H3565 C3571 0.930 . S
C3566 H3552 0.930 . S
C3566 C3564 1.395 . S
C3566 C3569 1.403 . S
C3567 C3564 1.403 . S
C3567 C3568 1.524 . S
C3567 C3571 1.400 . S
C3568 H3553 0.960 . S
C3568 H3554 0.960 . S
C3568 H3555 0.960 . S
C3568 C3567 1.524 . S
C3569 C3566 1.403 . S
C3569 C3570 1.392 . S
C3569 C3573 1.495 . S
C3570 C3569 1.392 . S
C3570 C3571 1.385 . S
C3570 C3572 1.478 . S
C3571 H3565 0.930 . S
C3571 C3567 1.400 . S
C3571 C3570 1.385 . S
C3572 C3570 1.478 . S
C3572 C3574 1.381 . S
C3572 C3578 1.383 . S
C3573 C3569 1.495 . S
C3573 H3579 0.959 . S
C3573 H3580 0.961 . S
C3573 H3581 0.960 . S
C3574 C3572 1.381 . S
C3574 C3575 1.394 . S
C3574 H3582 0.930 . S
C3575 C3574 1.394 . S
C3575 C3576 1.383 . S
C3575 H3583 0.929 . S
C3576 C3575 1.383 . S
C3576 C3577 1.377 . S
C3577 H3561 0.930 . S
C3577 C3576 1.377 . S
C3577 C3578 1.379 . S
C3578 H3562 0.931 . S
C3578 C3572 1.383 . S
C3578 C3577 1.379 . S
H3579 C3573 0.959 . S
H3580 C3573 0.961 . S
H3581 C3573 0.960 . S
H3582 C3574 0.930 . S
H3583 C3575 0.929 . S
H3584 C3592 0.929 . S
H3585 C3594 0.930 . S
H3586 C3596 0.930 . S
H3587 C3599 0.929 . S
H3588 C3602 0.930 . S
H3589 C3604 0.960 . S
H3590 C3604 0.960 . S
H3591 C3604 0.960 . S
C3592 H3584 0.929 . S
C3592 C3593 1.377 . S
C3592 C3594 1.384 . S
C3593 C3592 1.377 . S
C3593 C3599 1.390 . S
C3594 H3585 0.930 . S
C3594 C3592 1.384 . S
C3594 C3595 1.372 . S
C3595 C3594 1.372 . S
C3595 C3596 1.400 . S
C3595 C3600 1.490 . S
C3596 H3586 0.930 . S
C3596 C3595 1.400 . S
C3596 C3599 1.386 . S
H3597 C3613 0.930 . S
H3598 C3614 0.931 . S
C3599 H3587 0.929 . S
C3599 C3593 1.390 . S
C3599 C3596 1.386 . S
C3600 C3595 1.490 . S
C3600 C3602 1.395 . S
C3600 C3603 1.403 . S
H3601 C3607 0.930 . S
C3602 H3588 0.930 . S
C3602 C3600 1.395 . S
C3602 C3605 1.403 . S
C3603 C3600 1.403 . S
C3603 C3604 1.524 . S
C3603 C3607 1.400 . S
C3604 H3589 0.960 . S
C3604 H3590 0.960 . S
C3604 H3591 0.960 . S
C3604 C3603 1.524 . S
C3605 C3602 1.403 . S
C3605 C3606 1.392 . S
C3605 C3609 1.495 . S
C3606 C3605 1.392 . S
C3606 C3607 1.385 . S
C3606 C3608 1.478 . S
C3607 H3601 0.930 . S
C3607 C3603 1.400 . S
C3607 C3606 1.385 . S
C3608 C3606 1.478 . S
C3608 C3610 1.381 . S
C3608 C3614 1.383 . S
C3609 C3605 1.495 . S
C3609 H3615 0.959 . S
C3609 H3616 0.961 . S
C3609 H3617 0.960 . S
C3610 C3608 1.381 . S
C3610 C3611 1.394 . S
C3610 H3618 0.930 . S
C3611 C3610 1.394 . S
C3611 C3612 1.383 . S
C3611 H3619 0.929 . S
C3612 C3611 1.383 . S
C3612 C3613 1.377 . S
C3613 H3597 0.930 . S
C3613 C3612 1.377 . S
C3613 C3614 1.379 . S
C3614 H3598 0.931 . S
C3614 C3608 1.383 . S
C3614 C3613 1.379 . S
H3615 C3609 0.959 . S
H3616 C3609 0.961 . S
H3617 C3609 0.960 . S
H3618 C3610 0.930 . S
H3619 C3611 0.929 . S
H3620 C3628 0.929 . S
H3621 C3630 0.930 . S
H3622 C3632 0.930 . S
H3623 C3635 0.929 . S
H3624 C3638 0.930 . S
H3625 C3640 0.960 . S
H3626 C3640 0.960 . S
H3627 C3640 0.960 . S
C3628 H3620 0.929 . S
C3628 C3629 1.377 . S
C3628 C3630 1.384 . S
C3629 C3628 1.377 . S
C3629 C3635 1.390 . S
C3630 H3621 0.930 . S
C3630 C3628 1.384 . S
C3630 C3631 1.372 . S
C3631 C3630 1.372 . S
C3631 C3632 1.400 . S
C3631 C3636 1.490 . S
C3632 H3622 0.930 . S
C3632 C3631 1.400 . S
C3632 C3635 1.386 . S
H3633 C3649 0.930 . S
H3634 C3650 0.931 . S
C3635 H3623 0.929 . S
C3635 C3629 1.390 . S
C3635 C3632 1.386 . S
C3636 C3631 1.490 . S
C3636 C3638 1.395 . S
C3636 C3639 1.403 . S
H3637 C3643 0.930 . S
C3638 H3624 0.930 . S
C3638 C3636 1.395 . S
C3638 C3641 1.403 . S
C3639 C3636 1.403 . S
C3639 C3640 1.524 . S
C3639 C3643 1.400 . S
C3640 H3625 0.960 . S
C3640 H3626 0.960 . S
C3640 H3627 0.960 . S
C3640 C3639 1.524 . S
C3641 C3638 1.403 . S
C3641 C3642 1.392 . S
C3641 C3645 1.495 . S
C3642 C3641 1.392 . S
C3642 C3643 1.385 . S
C3642 C3644 1.478 . S
C3643 H3637 0.930 . S
C3643 C3639 1.400 . S
C3643 C3642 1.385 . S
C3644 C3642 1.478 . S
C3644 C3646 1.381 . S
C3644 C3650 1.383 . S
C3645 C3641 1.495 . S
C3645 H3651 0.959 . S
C3645 H3652 0.961 . S
C3645 H3653 0.960 . S
C3646 C3644 1.381 . S
C3646 C3647 1.394 . S
C3646 H3654 0.930 . S
C3647 C3646 1.394 . S
C3647 C3648 1.383 . S
C3647 H3655 0.929 . S
C3648 C3647 1.383 . S
C3648 C3649 1.377 . S
C3649 H3633 0.930 . S
C3649 C3648 1.377 . S
C3649 C3650 1.379 . S
C3650 H3634 0.931 . S
C3650 C3644 1.383 . S
C3650 C3649 1.379 . S
H3651 C3645 0.959 . S
H3652 C3645 0.961 . S
H3653 C3645 0.960 . S
H3654 C3646 0.930 . S
H3655 C3647 0.929 . S
H3656 C3664 0.929 . S
H3657 C3666 0.930 . S
H3658 C3668 0.930 . S
H3659 C3671 0.929 . S
H3660 C3674 0.930 . S
H3661 C3676 0.960 . S
H3662 C3676 0.960 . S
H3663 C3676 0.960 . S
C3664 H3656 0.929 . S
C3664 C3665 1.377 . S
C3664 C3666 1.384 . S
C3665 C3664 1.377 . S
C3665 C3671 1.390 . S
C3666 H3657 0.930 . S
C3666 C3664 1.384 . S
C3666 C3667 1.372 . S
C3667 C3666 1.372 . S
C3667 C3668 1.400 . S
C3667 C3672 1.490 . S
C3668 H3658 0.930 . S
C3668 C3667 1.400 . S
C3668 C3671 1.386 . S
H3669 C3685 0.930 . S
H3670 C3686 0.931 . S
C3671 H3659 0.929 . S
C3671 C3665 1.390 . S
C3671 C3668 1.386 . S
C3672 C3667 1.490 . S
C3672 C3674 1.395 . S
C3672 C3675 1.403 . S
H3673 C3679 0.930 . S
C3674 H3660 0.930 . S
C3674 C3672 1.395 . S
C3674 C3677 1.403 . S
C3675 C3672 1.403 . S
C3675 C3676 1.524 . S
C3675 C3679 1.400 . S
C3676 H3661 0.960 . S
C3676 H3662 0.960 . S
C3676 H3663 0.960 . S
C3676 C3675 1.524 . S
C3677 C3674 1.403 . S
C3677 C3678 1.392 . S
C3677 C3681 1.495 . S
C3678 C3677 1.392 . S
C3678 C3679 1.385 . S
C3678 C3680 1.478 . S
C3679 H3673 0.930 . S
C3679 C3675 1.400 . S
C3679 C3678 1.385 . S
C3680 C3678 1.478 . S
C3680 C3682 1.381 . S
C3680 C3686 1.383 . S
C3681 C3677 1.495 . S
C3681 H3687 0.959 . S
C3681 H3688 0.961 . S
C3681 H3689 0.960 . S
C3682 C3680 1.381 . S
C3682 C3683 1.394 . S
C3682 H3690 0.930 . S
C3683 C3682 1.394 . S
C3683 C3684 1.383 . S
C3683 H3691 0.929 . S
C3684 C3683 1.383 . S
C3684 C3685 1.377 . S
C3685 H3669 0.930 . S
C3685 C3684 1.377 . S
C3685 C3686 1.379 . S
C3686 H3670 0.931 . S
C3686 C3680 1.383 . S
C3686 C3685 1.379 . S
H3687 C3681 0.959 . S
H3688 C3681 0.961 . S
H3689 C3681 0.960 . S
H3690 C3682 0.930 . S
H3691 C3683 0.929 . S
H3692 C3700 0.929 . S
H3693 C3702 0.930 . S
H3694 C3704 0.930 . S
H3695 C3707 0.929 . S
H3696 C3710 0.930 . S
H3697 C3712 0.960 . S
H3698 C3712 0.960 . S
H3699 C3712 0.960 . S
C3700 H3692 0.929 . S
C3700 C3701 1.377 . S
C3700 C3702 1.384 . S
C3701 C3700 1.377 . S
C3701 C3707 1.390 . S
C3702 H3693 0.930 . S
C3702 C3700 1.384 . S
C3702 C3703 1.372 . S
C3703 C3702 1.372 . S
C3703 C3704 1.400 . S
C3703 C3708 1.490 . S
C3704 H3694 0.930 . S
C3704 C3703 1.400 . S
C3704 C3707 1.386 . S
H3705 C3721 0.930 . S
H3706 C3722 0.931 . S
C3707 H3695 0.929 . S
C3707 C3701 1.390 . S
C3707 C3704 1.386 . S
C3708 C3703 1.490 . S
C3708 C3710 1.395 . S
C3708 C3711 1.403 . S
H3709 C3715 0.930 . S
C3710 H3696 0.930 . S
C3710 C3708 1.395 . S
C3710 C3713 1.403 . S
C3711 C3708 1.403 . S
C3711 C3712 1.524 . S
C3711 C3715 1.400 . S
C3712 H3697 0.960 . S
C3712 H3698 0.960 . S
C3712 H3699 0.960 . S
C3712 C3711 1.524 . S
C3713 C3710 1.403 . S
C3713 C3714 1.392 . S
C3713 C3717 1.495 . S
C3714 C3713 1.392 . S
C3714 C3715 1.385 . S
C3714 C3716 1.478 . S
C3715 H3709 0.930 . S
C3715 C3711 1.400 . S
C3715 C3714 1.385 . S
C3716 C3714 1.478 . S
C3716 C3718 1.381 . S
C3716 C3722 1.383 . S
C3717 C3713 1.495 . S
C3717 H3723 0.959 . S
C3717 H3724 0.961 . S
C3717 H3725 0.960 . S
C3718 C3716 1.381 . S
C3718 C3719 1.394 . S
C3718 H3726 0.930 . S
C3719 C3718 1.394 . S
C3719 C3720 1.383 . S
C3719 H3727 0.929 . S
C3720 C3719 1.383 . S
C3720 C3721 1.377 . S
C3721 H3705 0.930 . S
C3721 C3720 1.377 . S
C3721 C3722 1.379 . S
C3722 H3706 0.931 . S
C3722 C3716 1.383 . S
C3722 C3721 1.379 . S
H3723 C3717 0.959 . S
H3724 C3717 0.961 . S
H3725 C3717 0.960 . S
H3726 C3718 0.930 . S
H3727 C3719 0.929 . S
H3728 C3736 0.929 . S
H3729 C3738 0.930 . S
H3730 C3740 0.930 . S
H3731 C3743 0.929 . S
H3732 C3746 0.930 . S
H3733 C3748 0.960 . S
H3734 C3748 0.960 . S
H3735 C3748 0.960 . S
C3736 H3728 0.929 . S
C3736 C3737 1.377 . S
C3736 C3738 1.384 . S
C3737 C3736 1.377 . S
C3737 C3743 1.390 . S
C3738 H3729 0.930 . S
C3738 C3736 1.384 . S
C3738 C3739 1.372 . S
C3739 C3738 1.372 . S
C3739 C3740 1.400 . S
C3739 C3744 1.490 . S
C3740 H3730 0.930 . S
C3740 C3739 1.400 . S
C3740 C3743 1.386 . S
H3741 C3757 0.930 . S
H3742 C3758 0.931 . S
C3743 H3731 0.929 . S
C3743 C3737 1.390 . S
C3743 C3740 1.386 . S
C3744 C3739 1.490 . S
C3744 C3746 1.395 . S
C3744 C3747 1.403 . S
H3745 C3751 0.930 . S
C3746 H3732 0.930 . S
C3746 C3744 1.395 . S
C3746 C3749 1.403 . S
C3747 C3744 1.403 . S
C3747 C3748 1.524 . S
C3747 C3751 1.400 . S
C3748 H3733 0.960 . S
C3748 H3734 0.960 . S
C3748 H3735 0.960 . S
C3748 C3747 1.524 . S
C3749 C3746 1.403 . S
C3749 C3750 1.392 . S
C3749 C3753 1.495 . S
C3750 C3749 1.392 . S
C3750 C3751 1.385 . S
C3750 C3752 1.478 . S
C3751 H3745 0.930 . S
C3751 C3747 1.400 . S
C3751 C3750 1.385 . S
C3752 C3750 1.478 . S
C3752 C3754 1.381 . S
C3752 C3758 1.383 . S
C3753 C3749 1.495 . S
C3753 H3759 0.959 . S
C3753 H3760 0.961 . S
C3753 H3761 0.960 . S
C3754 C3752 1.381 . S
C3754 C3755 1.394 . S
C3754 H3762 0.930 . S
C3755 C3754 1.394 . S
C3755 C3756 1.383 . S
C3755 H3763 0.929 . S
C3756 C3755 1.383 . S
C3756 C3757 1.377 . S
C3757 H3741 0.930 . S
C3757 C3756 1.377 . S
C3757 C3758 1.379 . S
C3758 H3742 0.931 . S
C3758 C3752 1.383 . S
C3758 C3757 1.379 . S
H3759 C3753 0.959 . S
H3760 C3753 0.961 . S
H3761 C3753 0.960 . S
H3762 C3754 0.930 . S
H3763 C3755 0.929 . S
H3764 C3772 0.929 . S
H3765 C3774 0.930 . S
H3766 C3776 0.930 . S
H3767 C3779 0.929 . S
H3768 C3782 0.930 . S
H3769 C3784 0.960 . S
H3770 C3784 0.960 . S
H3771 C3784 0.960 . S
C3772 H3764 0.929 . S
C3772 C3773 1.377 . S
C3772 C3774 1.384 . S
C3773 C3772 1.377 . S
C3773 C3779 1.390 . S
C3774 H3765 0.930 . S
C3774 C3772 1.384 . S
C3774 C3775 1.372 . S
C3775 C3774 1.372 . S
C3775 C3776 1.400 . S
C3775 C3780 1.490 . S
C3776 H3766 0.930 . S
C3776 C3775 1.400 . S
C3776 C3779 1.386 . S
H3777 C3793 0.930 . S
H3778 C3794 0.931 . S
C3779 H3767 0.929 . S
C3779 C3773 1.390 . S
C3779 C3776 1.386 . S
C3780 C3775 1.490 . S
C3780 C3782 1.395 . S
C3780 C3783 1.403 . S
H3781 C3787 0.930 . S
C3782 H3768 0.930 . S
C3782 C3780 1.395 . S
C3782 C3785 1.403 . S
C3783 C3780 1.403 . S
C3783 C3784 1.524 . S
C3783 C3787 1.400 . S
C3784 H3769 0.960 . S
C3784 H3770 0.960 . S
C3784 H3771 0.960 . S
C3784 C3783 1.524 . S
C3785 C3782 1.403 . S
C3785 C3786 1.392 . S
C3785 C3789 1.495 . S
C3786 C3785 1.392 . S
C3786 C3787 1.385 . S
C3786 C3788 1.478 . S
C3787 H3781 0.930 . S
C3787 C3783 1.400 . S
C3787 C3786 1.385 . S
C3788 C3786 1.478 . S
C3788 C3790 1.381 . S
C3788 C3794 1.383 . S
C3789 C3785 1.495 . S
C3789 H3795 0.959 . S
C3789 H3796 0.961 . S
C3789 H3797 0.960 . S
C3790 C3788 1.381 . S
C3790 C3791 1.394 . S
C3790 H3798 0.930 . S
C3791 C3790 1.394 . S
C3791 C3792 1.383 . S
C3791 H3799 0.929 . S
C3792 C3791 1.383 . S
C3792 C3793 1.377 . S
C3793 H3777 0.930 . S
C3793 C3792 1.377 . S
C3793 C3794 1.379 . S
C3794 H3778 0.931 . S
C3794 C3788 1.383 . S
C3794 C3793 1.379 . S
H3795 C3789 0.959 . S
H3796 C3789 0.961 . S
H3797 C3789 0.960 . S
H3798 C3790 0.930 . S
H3799 C3791 0.929 . S
H3800 C3808 0.929 . S
H3801 C3810 0.930 . S
H3802 C3812 0.930 . S
H3803 C3815 0.929 . S
H3804 C3818 0.930 . S
H3805 C3820 0.960 . S
H3806 C3820 0.960 . S
H3807 C3820 0.960 . S
C3808 H3800 0.929 . S
C3808 C3809 1.377 . S
C3808 C3810 1.384 . S
C3809 C3808 1.377 . S
C3809 C3815 1.390 . S
C3810 H3801 0.930 . S
C3810 C3808 1.384 . S
C3810 C3811 1.372 . S
C3811 C3810 1.372 . S
C3811 C3812 1.400 . S
C3811 C3816 1.490 . S
C3812 H3802 0.930 . S
C3812 C3811 1.400 . S
C3812 C3815 1.386 . S
H3813 C3829 0.930 . S
H3814 C3830 0.931 . S
C3815 H3803 0.929 . S
C3815 C3809 1.390 . S
C3815 C3812 1.386 . S
C3816 C3811 1.490 . S
C3816 C3818 1.395 . S
C3816 C3819 1.403 . S
H3817 C3823 0.930 . S
C3818 H3804 0.930 . S
C3818 C3816 1.395 . S
C3818 C3821 1.403 . S
C3819 C3816 1.403 . S
C3819 C3820 1.524 . S
C3819 C3823 1.400 . S
C3820 H3805 0.960 . S
C3820 H3806 0.960 . S
C3820 H3807 0.960 . S
C3820 C3819 1.524 . S
C3821 C3818 1.403 . S
C3821 C3822 1.392 . S
C3821 C3825 1.495 . S
C3822 C3821 1.392 . S
C3822 C3823 1.385 . S
C3822 C3824 1.478 . S
C3823 H3817 0.930 . S
C3823 C3819 1.400 . S
C3823 C3822 1.385 . S
C3824 C3822 1.478 . S
C3824 C3826 1.381 . S
C3824 C3830 1.383 . S
C3825 C3821 1.495 . S
C3825 H3831 0.959 . S
C3825 H3832 0.961 . S
C3825 H3833 0.960 . S
C3826 C3824 1.381 . S
C3826 C3827 1.394 . S
C3826 H3834 0.930 . S
C3827 C3826 1.394 . S
C3827 C3828 1.383 . S
C3827 H3835 0.929 . S
C3828 C3827 1.383 . S
C3828 C3829 1.377 . S
C3829 H3813 0.930 . S
C3829 C3828 1.377 . S
C3829 C3830 1.379 . S
C3830 H3814 0.931 . S
C3830 C3824 1.383 . S
C3830 C3829 1.379 . S
H3831 C3825 0.959 . S
H3832 C3825 0.961 . S
H3833 C3825 0.960 . S
H3834 C3826 0.930 . S
H3835 C3827 0.929 . S
H3836 C3844 0.929 . S
H3837 C3846 0.930 . S
H3838 C3848 0.930 . S
H3839 C3851 0.929 . S
H3840 C3854 0.930 . S
H3841 C3856 0.960 . S
H3842 C3856 0.960 . S
H3843 C3856 0.960 . S
C3844 H3836 0.929 . S
C3844 C3845 1.377 . S
C3844 C3846 1.384 . S
C3845 C3844 1.377 . S
C3845 C3851 1.390 . S
C3846 H3837 0.930 . S
C3846 C3844 1.384 . S
C3846 C3847 1.372 . S
C3847 C3846 1.372 . S
C3847 C3848 1.400 . S
C3847 C3852 1.490 . S
C3848 H3838 0.930 . S
C3848 C3847 1.400 . S
C3848 C3851 1.386 . S
H3849 C3865 0.930 . S
H3850 C3866 0.931 . S
C3851 H3839 0.929 . S
C3851 C3845 1.390 . S
C3851 C3848 1.386 . S
C3852 C3847 1.490 . S
C3852 C3854 1.395 . S
C3852 C3855 1.403 . S
H3853 C3859 0.930 . S
C3854 H3840 0.930 . S
C3854 C3852 1.395 . S
C3854 C3857 1.403 . S
C3855 C3852 1.403 . S
C3855 C3856 1.524 . S
C3855 C3859 1.400 . S
C3856 H3841 0.960 . S
C3856 H3842 0.960 . S
C3856 H3843 0.960 . S
C3856 C3855 1.524 . S
C3857 C3854 1.403 . S
C3857 C3858 1.392 . S
C3857 C3861 1.495 . S
C3858 C3857 1.392 . S
C3858 C3859 1.385 . S
C3858 C3860 1.478 . S
C3859 H3853 0.930 . S
C3859 C3855 1.400 . S
C3859 C3858 1.385 . S
C3860 C3858 1.478 . S
C3860 C3862 1.381 . S
C3860 C3866 1.383 . S
C3861 C3857 1.495 . S
C3861 H3867 0.959 . S
C3861 H3868 0.961 . S
C3861 H3869 0.960 . S
C3862 C3860 1.381 . S
C3862 C3863 1.394 . S
C3862 H3870 0.930 . S
C3863 C3862 1.394 . S
C3863 C3864 1.383 . S
C3863 H3871 0.929 . S
C3864 C3863 1.383 . S
C3864 C3865 1.377 . S
C3865 H3849 0.930 . S
C3865 C3864 1.377 . S
C3865 C3866 1.379 . S
C3866 H3850 0.931 . S
C3866 C3860 1.383 . S
C3866 C3865 1.379 . S
H3867 C3861 0.959 . S
H3868 C3861 0.961 . S
H3869 C3861 0.960 . S
H3870 C3862 0.930 . S
H3871 C3863 0.929 . S
H3872 C3880 0.929 . S
H3873 C3882 0.930 . S
H3874 C3884 0.930 . S
H3875 C3887 0.929 . S
H3876 C3890 0.930 . S
H3877 C3892 0.960 . S
H3878 C3892 0.960 . S
H3879 C3892 0.960 . S
C3880 H3872 0.929 . S
C3880 C3881 1.377 . S
C3880 C3882 1.384 . S
C3881 C3880 1.377 . S
C3881 C3887 1.390 . S
C3882 H3873 0.930 . S
C3882 C3880 1.384 . S
C3882 C3883 1.372 . S
C3883 C3882 1.372 . S
C3883 C3884 1.400 . S
C3883 C3888 1.490 . S
C3884 H3874 0.930 . S
C3884 C3883 1.400 . S
C3884 C3887 1.386 . S
H3885 C3901 0.930 . S
H3886 C3902 0.931 . S
C3887 H3875 0.929 . S
C3887 C3881 1.390 . S
C3887 C3884 1.386 . S
C3888 C3883 1.490 . S
C3888 C3890 1.395 . S
C3888 C3891 1.403 . S
H3889 C3895 0.930 . S
C3890 H3876 0.930 . S
C3890 C3888 1.395 . S
C3890 C3893 1.403 . S
C3891 C3888 1.403 . S
C3891 C3892 1.524 . S
C3891 C3895 1.400 . S
C3892 H3877 0.960 . S
C3892 H3878 0.960 . S
C3892 H3879 0.960 . S
C3892 C3891 1.524 . S
C3893 C3890 1.403 . S
C3893 C3894 1.392 . S
C3893 C3897 1.495 . S
C3894 C3893 1.392 . S
C3894 C3895 1.385 . S
C3894 C3896 1.478 . S
C3895 H3889 0.930 . S
C3895 C3891 1.400 . S
C3895 C3894 1.385 . S
C3896 C3894 1.478 . S
C3896 C3898 1.381 . S
C3896 C3902 1.383 . S
C3897 C3893 1.495 . S
C3897 H3903 0.959 . S
C3897 H3904 0.961 . S
C3897 H3905 0.960 . S
C3898 C3896 1.381 . S
C3898 C3899 1.394 . S
C3898 H3906 0.930 . S
C3899 C3898 1.394 . S
C3899 C3900 1.383 . S
C3899 H3907 0.929 . S
C3900 C3899 1.383 . S
C3900 C3901 1.377 . S
C3901 H3885 0.930 . S
C3901 C3900 1.377 . S
C3901 C3902 1.379 . S
C3902 H3886 0.931 . S
C3902 C3896 1.383 . S
C3902 C3901 1.379 . S
H3903 C3897 0.959 . S
H3904 C3897 0.961 . S
H3905 C3897 0.960 . S
H3906 C3898 0.930 . S
H3907 C3899 0.929 . S
H3908 C3916 0.929 . S
H3909 C3918 0.930 . S
H3910 C3920 0.930 . S
H3911 C3923 0.929 . S
H3912 C3926 0.930 . S
H3913 C3928 0.960 . S
H3914 C3928 0.960 . S
H3915 C3928 0.960 . S
C3916 H3908 0.929 . S
C3916 C3917 1.377 . S
C3916 C3918 1.384 . S
C3917 C3916 1.377 . S
C3917 C3923 1.390 . S
C3918 H3909 0.930 . S
C3918 C3916 1.384 . S
C3918 C3919 1.372 . S
C3919 C3918 1.372 . S
C3919 C3920 1.400 . S
C3919 C3924 1.490 . S
C3920 H3910 0.930 . S
C3920 C3919 1.400 . S
C3920 C3923 1.386 . S
H3921 C3937 0.930 . S
H3922 C3938 0.931 . S
C3923 H3911 0.929 . S
C3923 C3917 1.390 . S
C3923 C3920 1.386 . S
C3924 C3919 1.490 . S
C3924 C3926 1.395 . S
C3924 C3927 1.403 . S
H3925 C3931 0.930 . S
C3926 H3912 0.930 . S
C3926 C3924 1.395 . S
C3926 C3929 1.403 . S
C3927 C3924 1.403 . S
C3927 C3928 1.524 . S
C3927 C3931 1.400 . S
C3928 H3913 0.960 . S
C3928 H3914 0.960 . S
C3928 H3915 0.960 . S
C3928 C3927 1.524 . S
C3929 C3926 1.403 . S
C3929 C3930 1.392 . S
C3929 C3933 1.495 . S
C3930 C3929 1.392 . S
C3930 C3931 1.385 . S
C3930 C3932 1.478 . S
C3931 H3925 0.930 . S
C3931 C3927 1.400 . S
C3931 C3930 1.385 . S
C3932 C3930 1.478 . S
C3932 C3934 1.381 . S
C3932 C3938 1.383 . S
C3933 C3929 1.495 . S
C3933 H3939 0.959 . S
C3933 H3940 0.961 . S
C3933 H3941 0.960 . S
C3934 C3932 1.381 . S
C3934 C3935 1.394 . S
C3934 H3942 0.930 . S
C3935 C3934 1.394 . S
C3935 C3936 1.383 . S
C3935 H3943 0.929 . S
C3936 C3935 1.383 . S
C3936 C3937 1.377 . S
C3937 H3921 0.930 . S
C3937 C3936 1.377 . S
C3937 C3938 1.379 . S
C3938 H3922 0.931 . S
C3938 C3932 1.383 . S
C3938 C3937 1.379 . S
H3939 C3933 0.959 . S
H3940 C3933 0.961 . S
H3941 C3933 0.960 . S
H3942 C3934 0.930 . S
H3943 C3935 0.929 . S
H3944 C3952 0.929 . S
H3945 C3954 0.930 . S
H3946 C3956 0.930 . S
H3947 C3959 0.929 . S
H3948 C3962 0.930 . S
H3949 C3964 0.960 . S
H3950 C3964 0.960 . S
H3951 C3964 0.960 . S
C3952 H3944 0.929 . S
C3952 C3953 1.377 . S
C3952 C3954 1.384 . S
C3953 C3952 1.377 . S
C3953 C3959 1.390 . S
C3954 H3945 0.930 . S
C3954 C3952 1.384 . S
C3954 C3955 1.372 . S
C3955 C3954 1.372 . S
C3955 C3956 1.400 . S
C3955 C3960 1.490 . S
C3956 H3946 0.930 . S
C3956 C3955 1.400 . S
C3956 C3959 1.386 . S
H3957 C3973 0.930 . S
H3958 C3974 0.931 . S
C3959 H3947 0.929 . S
C3959 C3953 1.390 . S
C3959 C3956 1.386 . S
C3960 C3955 1.490 . S
C3960 C3962 1.395 . S
C3960 C3963 1.403 . S
H3961 C3967 0.930 . S
C3962 H3948 0.930 . S
C3962 C3960 1.395 . S
C3962 C3965 1.403 . S
C3963 C3960 1.403 . S
C3963 C3964 1.524 . S
C3963 C3967 1.400 . S
C3964 H3949 0.960 . S
C3964 H3950 0.960 . S
C3964 H3951 0.960 . S
C3964 C3963 1.524 . S
C3965 C3962 1.403 . S
C3965 C3966 1.392 . S
C3965 C3969 1.495 . S
C3966 C3965 1.392 . S
C3966 C3967 1.385 . S
C3966 C3968 1.478 . S
C3967 H3961 0.930 . S
C3967 C3963 1.400 . S
C3967 C3966 1.385 . S
C3968 C3966 1.478 . S
C3968 C3970 1.381 . S
C3968 C3974 1.383 . S
C3969 C3965 1.495 . S
C3969 H3975 0.959 . S
C3969 H3976 0.961 . S
C3969 H3977 0.960 . S
C3970 C3968 1.381 . S
C3970 C3971 1.394 . S
C3970 H3978 0.930 . S
C3971 C3970 1.394 . S
C3971 C3972 1.383 . S
C3971 H3979 0.929 . S
C3972 C3971 1.383 . S
C3972 C3973 1.377 . S
C3973 H3957 0.930 . S
C3973 C3972 1.377 . S
C3973 C3974 1.379 . S
C3974 H3958 0.931 . S
C3974 C3968 1.383 . S
C3974 C3973 1.379 . S
H3975 C3969 0.959 . S
H3976 C3969 0.961 . S
H3977 C3969 0.960 . S
H3978 C3970 0.930 . S
H3979 C3971 0.929 . S
H3980 C3988 0.929 . S
H3981 C3990 0.930 . S
H3982 C3992 0.930 . S
H3983 C3995 0.929 . S
H3984 C3998 0.930 . S
H3985 C4000 0.960 . S
H3986 C4000 0.960 . S
H3987 C4000 0.960 . S
C3988 H3980 0.929 . S
C3988 C3989 1.377 . S
C3988 C3990 1.384 . S
C3989 C3988 1.377 . S
C3989 C3995 1.390 . S
C3990 H3981 0.930 . S
C3990 C3988 1.384 . S
C3990 C3991 1.372 . S
C3991 C3990 1.372 . S
C3991 C3992 1.400 . S
C3991 C3996 1.490 . S
C3992 H3982 0.930 . S
C3992 C3991 1.400 . S
C3992 C3995 1.386 . S
H3993 C4009 0.930 . S
H3994 C4010 0.931 . S
C3995 H3983 0.929 . S
C3995 C3989 1.390 . S
C3995 C3992 1.386 . S
C3996 C3991 1.490 . S
C3996 C3998 1.395 . S
C3996 C3999 1.403 . S
H3997 C4003 0.930 . S
C3998 H3984 0.930 . S
C3998 C3996 1.395 . S
C3998 C4001 1.403 . S
C3999 C3996 1.403 . S
C3999 C4000 1.524 . S
C3999 C4003 1.400 . S
C4000 H3985 0.960 . S
C4000 H3986 0.960 . S
C4000 H3987 0.960 . S
C4000 C3999 1.524 . S
C4001 C3998 1.403 . S
C4001 C4002 1.392 . S
C4001 C4005 1.495 . S
C4002 C4001 1.392 . S
C4002 C4003 1.385 . S
C4002 C4004 1.478 . S
C4003 H3997 0.930 . S
C4003 C3999 1.400 . S
C4003 C4002 1.385 . S
C4004 C4002 1.478 . S
C4004 C4006 1.381 . S
C4004 C4010 1.383 . S
C4005 C4001 1.495 . S
C4005 H4011 0.959 . S
C4005 H4012 0.961 . S
C4005 H4013 0.960 . S
C4006 C4004 1.381 . S
C4006 C4007 1.394 . S
C4006 H4014 0.930 . S
C4007 C4006 1.394 . S
C4007 C4008 1.383 . S
C4007 H4015 0.929 . S
C4008 C4007 1.383 . S
C4008 C4009 1.377 . S
C4009 H3993 0.930 . S
C4009 C4008 1.377 . S
C4009 C4010 1.379 . S
C4010 H3994 0.931 . S
C4010 C4004 1.383 . S
C4010 C4009 1.379 . S
H4011 C4005 0.959 . S
H4012 C4005 0.961 . S
H4013 C4005 0.960 . S
H4014 C4006 0.930 . S
H4015 C4007 0.929 . S
H4016 C4024 0.929 . S
H4017 C4026 0.930 . S
H4018 C4028 0.930 . S
H4019 C4031 0.929 . S
H4020 C4034 0.930 . S
H4021 C4036 0.960 . S
H4022 C4036 0.960 . S
H4023 C4036 0.960 . S
C4024 H4016 0.929 . S
C4024 C4025 1.377 . S
C4024 C4026 1.384 . S
C4025 C4024 1.377 . S
C4025 C4031 1.390 . S
C4026 H4017 0.930 . S
C4026 C4024 1.384 . S
C4026 C4027 1.372 . S
C4027 C4026 1.372 . S
C4027 C4028 1.400 . S
C4027 C4032 1.490 . S
C4028 H4018 0.930 . S
C4028 C4027 1.400 . S
C4028 C4031 1.386 . S
H4029 C4045 0.930 . S
H4030 C4046 0.931 . S
C4031 H4019 0.929 . S
C4031 C4025 1.390 . S
C4031 C4028 1.386 . S
C4032 C4027 1.490 . S
C4032 C4034 1.395 . S
C4032 C4035 1.403 . S
H4033 C4039 0.930 . S
C4034 H4020 0.930 . S
C4034 C4032 1.395 . S
C4034 C4037 1.403 . S
C4035 C4032 1.403 . S
C4035 C4036 1.524 . S
C4035 C4039 1.400 . S
C4036 H4021 0.960 . S
C4036 H4022 0.960 . S
C4036 H4023 0.960 . S
C4036 C4035 1.524 . S
C4037 C4034 1.403 . S
C4037 C4038 1.392 . S
C4037 C4041 1.495 . S
C4038 C4037 1.392 . S
C4038 C4039 1.385 . S
C4038 C4040 1.478 . S
C4039 H4033 0.930 . S
C4039 C4035 1.400 . S
C4039 C4038 1.385 . S
C4040 C4038 1.478 . S
C4040 C4042 1.381 . S
C4040 C4046 1.383 . S
C4041 C4037 1.495 . S
C4041 H4047 0.959 . S
C4041 H4048 0.961 . S
C4041 H4049 0.960 . S
C4042 C4040 1.381 . S
C4042 C4043 1.394 . S
C4042 H4050 0.930 . S
C4043 C4042 1.394 . S
C4043 C4044 1.383 . S
C4043 H4051 0.929 . S
C4044 C4043 1.383 . S
C4044 C4045 1.377 . S
C4045 H4029 0.930 . S
C4045 C4044 1.377 . S
C4045 C4046 1.379 . S
C4046 H4030 0.931 . S
C4046 C4040 1.383 . S
C4046 C4045 1.379 . S
H4047 C4041 0.959 . S
H4048 C4041 0.961 . S
H4049 C4041 0.960 . S
H4050 C4042 0.930 . S
H4051 C4043 0.929 . S
H4052 C4060 0.929 . S
H4053 C4062 0.930 . S
H4054 C4064 0.930 . S
H4055 C4067 0.929 . S
H4056 C4070 0.930 . S
H4057 C4072 0.960 . S
H4058 C4072 0.960 . S
H4059 C4072 0.960 . S
C4060 H4052 0.929 . S
C4060 C4061 1.377 . S
C4060 C4062 1.384 . S
C4061 C4060 1.377 . S
C4061 C4067 1.390 . S
C4062 H4053 0.930 . S
C4062 C4060 1.384 . S
C4062 C4063 1.372 . S
C4063 C4062 1.372 . S
C4063 C4064 1.400 . S
C4063 C4068 1.490 . S
C4064 H4054 0.930 . S
C4064 C4063 1.400 . S
C4064 C4067 1.386 . S
H4065 C4081 0.930 . S
H4066 C4082 0.931 . S
C4067 H4055 0.929 . S
C4067 C4061 1.390 . S
C4067 C4064 1.386 . S
C4068 C4063 1.490 . S
C4068 C4070 1.395 . S
C4068 C4071 1.403 . S
H4069 C4075 0.930 . S
C4070 H4056 0.930 . S
C4070 C4068 1.395 . S
C4070 C4073 1.403 . S
C4071 C4068 1.403 . S
C4071 C4072 1.524 . S
C4071 C4075 1.400 . S
C4072 H4057 0.960 . S
C4072 H4058 0.960 . S
C4072 H4059 0.960 . S
C4072 C4071 1.524 . S
C4073 C4070 1.403 . S
C4073 C4074 1.392 . S
C4073 C4077 1.495 . S
C4074 C4073 1.392 . S
C4074 C4075 1.385 . S
C4074 C4076 1.478 . S
C4075 H4069 0.930 . S
C4075 C4071 1.400 . S
C4075 C4074 1.385 . S
C4076 C4074 1.478 . S
C4076 C4078 1.381 . S
C4076 C4082 1.383 . S
C4077 C4073 1.495 . S
C4077 H4083 0.959 . S
C4077 H4084 0.961 . S
C4077 H4085 0.960 . S
C4078 C4076 1.381 . S
C4078 C4079 1.394 . S
C4078 H4086 0.930 . S
C4079 C4078 1.394 . S
C4079 C4080 1.383 . S
C4079 H4087 0.929 . S
C4080 C4079 1.383 . S
C4080 C4081 1.377 . S
C4081 H4065 0.930 . S
C4081 C4080 1.377 . S
C4081 C4082 1.379 . S
C4082 H4066 0.931 . S
C4082 C4076 1.383 . S
C4082 C4081 1.379 . S
H4083 C4077 0.959 . S
H4084 C4077 0.961 . S
H4085 C4077 0.960 . S
H4086 C4078 0.930 . S
H4087 C4079 0.929 . S
H4088 C4096 0.929 . S
H4089 C4098 0.930 . S
H4090 C4100 0.930 . S
H4091 C4103 0.929 . S
H4092 C4106 0.930 . S
H4093 C4108 0.960 . S
H4094 C4108 0.960 . S
H4095 C4108 0.960 . S
C4096 H4088 0.929 . S
C4096 C4097 1.377 . S
C4096 C4098 1.384 . S
C4097 C4096 1.377 . S
C4097 C4103 1.390 . S
C4098 H4089 0.930 . S
C4098 C4096 1.384 . S
C4098 C4099 1.372 . S
C4099 C4098 1.372 . S
C4099 C4100 1.400 . S
C4099 C4104 1.490 . S
C4100 H4090 0.930 . S
C4100 C4099 1.400 . S
C4100 C4103 1.386 . S
H4101 C4117 0.930 . S
H4102 C4118 0.931 . S
C4103 H4091 0.929 . S
C4103 C4097 1.390 . S
C4103 C4100 1.386 . S
C4104 C4099 1.490 . S
C4104 C4106 1.395 . S
C4104 C4107 1.403 . S
H4105 C4111 0.930 . S
C4106 H4092 0.930 . S
C4106 C4104 1.395 . S
C4106 C4109 1.403 . S
C4107 C4104 1.403 . S
C4107 C4108 1.524 . S
C4107 C4111 1.400 . S
C4108 H4093 0.960 . S
C4108 H4094 0.960 . S
C4108 H4095 0.960 . S
C4108 C4107 1.524 . S
C4109 C4106 1.403 . S
C4109 C4110 1.392 . S
C4109 C4113 1.495 . S
C4110 C4109 1.392 . S
C4110 C4111 1.385 . S
C4110 C4112 1.478 . S
C4111 H4105 0.930 . S
C4111 C4107 1.400 . S
C4111 C4110 1.385 . S
C4112 C4110 1.478 . S
C4112 C4114 1.381 . S
C4112 C4118 1.383 . S
C4113 C4109 1.495 . S
C4113 H4119 0.959 . S
C4113 H4120 0.961 . S
C4113 H4121 0.960 . S
C4114 C4112 1.381 . S
C4114 C4115 1.394 . S
C4114 H4122 0.930 . S
C4115 C4114 1.394 . S
C4115 C4116 1.383 . S
C4115 H4123 0.929 . S
C4116 C4115 1.383 . S
C4116 C4117 1.377 . S
C4117 H4101 0.930 . S
C4117 C4116 1.377 . S
C4117 C4118 1.379 . S
C4118 H4102 0.931 . S
C4118 C4112 1.383 . S
C4118 C4117 1.379 . S
H4119 C4113 0.959 . S
H4120 C4113 0.961 . S
H4121 C4113 0.960 . S
H4122 C4114 0.930 . S
H4123 C4115 0.929 . S
H4124 C4132 0.929 . S
H4125 C4134 0.930 . S
H4126 C4136 0.930 . S
H4127 C4139 0.929 . S
H4128 C4142 0.930 . S
H4129 C4144 0.960 . S
H4130 C4144 0.960 . S
H4131 C4144 0.960 . S
C4132 H4124 0.929 . S
C4132 C4133 1.377 . S
C4132 C4134 1.384 . S
C4133 C4132 1.377 . S
C4133 C4139 1.390 . S
C4134 H4125 0.930 . S
C4134 C4132 1.384 . S
C4134 C4135 1.372 . S
C4135 C4134 1.372 . S
C4135 C4136 1.400 . S
C4135 C4140 1.490 . S
C4136 H4126 0.930 . S
C4136 C4135 1.400 . S
C4136 C4139 1.386 . S
H4137 C4153 0.930 . S
H4138 C4154 0.931 . S
C4139 H4127 0.929 . S
C4139 C4133 1.390 . S
C4139 C4136 1.386 . S
C4140 C4135 1.490 . S
C4140 C4142 1.395 . S
C4140 C4143 1.403 . S
H4141 C4147 0.930 . S
C4142 H4128 0.930 . S
C4142 C4140 1.395 . S
C4142 C4145 1.403 . S
C4143 C4140 1.403 . S
C4143 C4144 1.524 . S
C4143 C4147 1.400 . S
C4144 H4129 0.960 . S
C4144 H4130 0.960 . S
C4144 H4131 0.960 . S
C4144 C4143 1.524 . S
C4145 C4142 1.403 . S
C4145 C4146 1.392 . S
C4145 C4149 1.495 . S
C4146 C4145 1.392 . S
C4146 C4147 1.385 . S
C4146 C4148 1.478 . S
C4147 H4141 0.930 . S
C4147 C4143 1.400 . S
C4147 C4146 1.385 . S
C4148 C4146 1.478 . S
C4148 C4150 1.381 . S
C4148 C4154 1.383 . S
C4149 C4145 1.495 . S
C4149 H4155 0.959 . S
C4149 H4156 0.961 . S
C4149 H4157 0.960 . S
C4150 C4148 1.381 . S
C4150 C4151 1.394 . S
C4150 H4158 0.930 . S
C4151 C4150 1.394 . S
C4151 C4152 1.383 . S
C4151 H4159 0.929 . S
C4152 C4151 1.383 . S
C4152 C4153 1.377 . S
C4153 H4137 0.930 . S
C4153 C4152 1.377 . S
C4153 C4154 1.379 . S
C4154 H4138 0.931 . S
C4154 C4148 1.383 . S
C4154 C4153 1.379 . S
H4155 C4149 0.959 . S
H4156 C4149 0.961 . S
H4157 C4149 0.960 . S
H4158 C4150 0.930 . S
H4159 C4151 0.929 . S
H4160 C4168 0.929 . S
H4161 C4170 0.930 . S
H4162 C4172 0.930 . S
H4163 C4175 0.929 . S
H4164 C4178 0.930 . S
H4165 C4180 0.960 . S
H4166 C4180 0.960 . S
H4167 C4180 0.960 . S
C4168 H4160 0.929 . S
C4168 C4169 1.377 . S
C4168 C4170 1.384 . S
C4169 C4168 1.377 . S
C4169 C4175 1.390 . S
C4170 H4161 0.930 . S
C4170 C4168 1.384 . S
C4170 C4171 1.372 . S
C4171 C4170 1.372 . S
C4171 C4172 1.400 . S
C4171 C4176 1.490 . S
C4172 H4162 0.930 . S
C4172 C4171 1.400 . S
C4172 C4175 1.386 . S
H4173 C4189 0.930 . S
H4174 C4190 0.931 . S
C4175 H4163 0.929 . S
C4175 C4169 1.390 . S
C4175 C4172 1.386 . S
C4176 C4171 1.490 . S
C4176 C4178 1.395 . S
C4176 C4179 1.403 . S
H4177 C4183 0.930 . S
C4178 H4164 0.930 . S
C4178 C4176 1.395 . S
C4178 C4181 1.403 . S
C4179 C4176 1.403 . S
C4179 C4180 1.524 . S
C4179 C4183 1.400 . S
C4180 H4165 0.960 . S
C4180 H4166 0.960 . S
C4180 H4167 0.960 . S
C4180 C4179 1.524 . S
C4181 C4178 1.403 . S
C4181 C4182 1.392 . S
C4181 C4185 1.495 . S
C4182 C4181 1.392 . S
C4182 C4183 1.385 . S
C4182 C4184 1.478 . S
C4183 H4177 0.930 . S
C4183 C4179 1.400 . S
C4183 C4182 1.385 . S
C4184 C4182 1.478 . S
C4184 C4186 1.381 . S
C4184 C4190 1.383 . S
C4185 C4181 1.495 . S
C4185 H4191 0.959 . S
C4185 H4192 0.961 . S
C4185 H4193 0.960 . S
C4186 C4184 1.381 . S
C4186 C4187 1.394 . S
C4186 H4194 0.930 . S
C4187 C4186 1.394 . S
C4187 C4188 1.383 . S
C4187 H4195 0.929 . S
C4188 C4187 1.383 . S
C4188 C4189 1.377 . S
C4189 H4173 0.930 . S
C4189 C4188 1.377 . S
C4189 C4190 1.379 . S
C4190 H4174 0.931 . S
C4190 C4184 1.383 . S
C4190 C4189 1.379 . S
H4191 C4185 0.959 . S
H4192 C4185 0.961 . S
H4193 C4185 0.960 . S
H4194 C4186 0.930 . S
H4195 C4187 0.929 . S
H4196 C4204 0.929 . S
H4197 C4206 0.930 . S
H4198 C4208 0.930 . S
H4199 C4211 0.929 . S
H4200 C4214 0.930 . S
H4201 C4216 0.960 . S
H4202 C4216 0.960 . S
H4203 C4216 0.960 . S
C4204 H4196 0.929 . S
C4204 C4205 1.377 . S
C4204 C4206 1.384 . S
C4205 C4204 1.377 . S
C4205 C4211 1.390 . S
C4206 H4197 0.930 . S
C4206 C4204 1.384 . S
C4206 C4207 1.372 . S
C4207 C4206 1.372 . S
C4207 C4208 1.400 . S
C4207 C4212 1.490 . S
C4208 H4198 0.930 . S
C4208 C4207 1.400 . S
C4208 C4211 1.386 . S
H4209 C4225 0.930 . S
H4210 C4226 0.931 . S
C4211 H4199 0.929 . S
C4211 C4205 1.390 . S
C4211 C4208 1.386 . S
C4212 C4207 1.490 . S
C4212 C4214 1.395 . S
C4212 C4215 1.403 . S
H4213 C4219 0.930 . S
C4214 H4200 0.930 . S
C4214 C4212 1.395 . S
C4214 C4217 1.403 . S
C4215 C4212 1.403 . S
C4215 C4216 1.524 . S
C4215 C4219 1.400 . S
C4216 H4201 0.960 . S
C4216 H4202 0.960 . S
C4216 H4203 0.960 . S
C4216 C4215 1.524 . S
C4217 C4214 1.403 . S
C4217 C4218 1.392 . S
C4217 C4221 1.495 . S
C4218 C4217 1.392 . S
C4218 C4219 1.385 . S
C4218 C4220 1.478 . S
C4219 H4213 0.930 . S
C4219 C4215 1.400 . S
C4219 C4218 1.385 . S
C4220 C4218 1.478 . S
C4220 C4222 1.381 . S
C4220 C4226 1.383 . S
C4221 C4217 1.495 . S
C4221 H4227 0.959 . S
C4221 H4228 0.961 . S
C4221 H4229 0.960 . S
C4222 C4220 1.381 . S
C4222 C4223 1.394 . S
C4222 H4230 0.930 . S
C4223 C4222 1.394 . S
C4223 C4224 1.383 . S
C4223 H4231 0.929 . S
C4224 C4223 1.383 . S
C4224 C4225 1.377 . S
C4225 H4209 0.930 . S
C4225 C4224 1.377 . S
C4225 C4226 1.379 . S
C4226 H4210 0.931 . S
C4226 C4220 1.383 . S
C4226 C4225 1.379 . S
H4227 C4221 0.959 . S
H4228 C4221 0.961 . S
H4229 C4221 0.960 . S
H4230 C4222 0.930 . S
H4231 C4223 0.929 . S
H4232 C4240 0.929 . S
H4233 C4242 0.930 . S
H4234 C4244 0.930 . S
H4235 C4247 0.929 . S
H4236 C4250 0.930 . S
H4237 C4252 0.960 . S
H4238 C4252 0.960 . S
H4239 C4252 0.960 . S
C4240 H4232 0.929 . S
C4240 C4241 1.377 . S
C4240 C4242 1.384 . S
C4241 C4240 1.377 . S
C4241 C4247 1.390 . S
C4242 H4233 0.930 . S
C4242 C4240 1.384 . S
C4242 C4243 1.372 . S
C4243 C4242 1.372 . S
C4243 C4244 1.400 . S
C4243 C4248 1.490 . S
C4244 H4234 0.930 . S
C4244 C4243 1.400 . S
C4244 C4247 1.386 . S
H4245 C4261 0.930 . S
H4246 C4262 0.931 . S
C4247 H4235 0.929 . S
C4247 C4241 1.390 . S
C4247 C4244 1.386 . S
C4248 C4243 1.490 . S
C4248 C4250 1.395 . S
C4248 C4251 1.403 . S
H4249 C4255 0.930 . S
C4250 H4236 0.930 . S
C4250 C4248 1.395 . S
C4250 C4253 1.403 . S
C4251 C4248 1.403 . S
C4251 C4252 1.524 . S
C4251 C4255 1.400 . S
C4252 H4237 0.960 . S
C4252 H4238 0.960 . S
C4252 H4239 0.960 . S
C4252 C4251 1.524 . S
C4253 C4250 1.403 . S
C4253 C4254 1.392 . S
C4253 C4257 1.495 . S
C4254 C4253 1.392 . S
C4254 C4255 1.385 . S
C4254 C4256 1.478 . S
C4255 H4249 0.930 . S
C4255 C4251 1.400 . S
C4255 C4254 1.385 . S
C4256 C4254 1.478 . S
C4256 C4258 1.381 . S
C4256 C4262 1.383 . S
C4257 C4253 1.495 . S
C4257 H4263 0.959 . S
C4257 H4264 0.961 . S
C4257 H4265 0.960 . S
C4258 C4256 1.381 . S
C4258 C4259 1.394 . S
C4258 H4266 0.930 . S
C4259 C4258 1.394 . S
C4259 C4260 1.383 . S
C4259 H4267 0.929 . S
C4260 C4259 1.383 . S
C4260 C4261 1.377 . S
C4261 H4245 0.930 . S
C4261 C4260 1.377 . S
C4261 C4262 1.379 . S
C4262 H4246 0.931 . S
C4262 C4256 1.383 . S
C4262 C4261 1.379 . S
H4263 C4257 0.959 . S
H4264 C4257 0.961 . S
H4265 C4257 0.960 . S
H4266 C4258 0.930 . S
H4267 C4259 0.929 . S
H4268 C4276 0.929 . S
H4269 C4278 0.930 . S
H4270 C4280 0.930 . S
H4271 C4283 0.929 . S
H4272 C4286 0.930 . S
H4273 C4288 0.960 . S
H4274 C4288 0.960 . S
H4275 C4288 0.960 . S
C4276 H4268 0.929 . S
C4276 C4277 1.377 . S
C4276 C4278 1.384 . S
C4277 C4276 1.377 . S
C4277 C4283 1.390 . S
C4278 H4269 0.930 . S
C4278 C4276 1.384 . S
C4278 C4279 1.372 . S
C4279 C4278 1.372 . S
C4279 C4280 1.400 . S
C4279 C4284 1.490 . S
C4280 H4270 0.930 . S
C4280 C4279 1.400 . S
C4280 C4283 1.386 . S
H4281 C4297 0.930 . S
H4282 C4298 0.931 . S
C4283 H4271 0.929 . S
C4283 C4277 1.390 . S
C4283 C4280 1.386 . S
C4284 C4279 1.490 . S
C4284 C4286 1.395 . S
C4284 C4287 1.403 . S
H4285 C4291 0.930 . S
C4286 H4272 0.930 . S
C4286 C4284 1.395 . S
C4286 C4289 1.403 . S
C4287 C4284 1.403 . S
C4287 C4288 1.524 . S
C4287 C4291 1.400 . S
C4288 H4273 0.960 . S
C4288 H4274 0.960 . S
C4288 H4275 0.960 . S
C4288 C4287 1.524 . S
C4289 C4286 1.403 . S
C4289 C4290 1.392 . S
C4289 C4293 1.495 . S
C4290 C4289 1.392 . S
C4290 C4291 1.385 . S
C4290 C4292 1.478 . S
C4291 H4285 0.930 . S
C4291 C4287 1.400 . S
C4291 C4290 1.385 . S
C4292 C4290 1.478 . S
C4292 C4294 1.381 . S
C4292 C4298 1.383 . S
C4293 C4289 1.495 . S
C4293 H4299 0.959 . S
C4293 H4300 0.961 . S
C4293 H4301 0.960 . S
C4294 C4292 1.381 . S
C4294 C4295 1.394 . S
C4294 H4302 0.930 . S
C4295 C4294 1.394 . S
C4295 C4296 1.383 . S
C4295 H4303 0.929 . S
C4296 C4295 1.383 . S
C4296 C4297 1.377 . S
C4297 H4281 0.930 . S
C4297 C4296 1.377 . S
C4297 C4298 1.379 . S
C4298 H4282 0.931 . S
C4298 C4292 1.383 . S
C4298 C4297 1.379 . S
H4299 C4293 0.959 . S
H4300 C4293 0.961 . S
H4301 C4293 0.960 . S
H4302 C4294 0.930 . S
H4303 C4295 0.929 . S
H4304 C4312 0.929 . S
H4305 C4314 0.930 . S
H4306 C4316 0.930 . S
H4307 C4319 0.929 . S
H4308 C4322 0.930 . S
H4309 C4324 0.960 . S
H4310 C4324 0.960 . S
H4311 C4324 0.960 . S
C4312 H4304 0.929 . S
C4312 C4313 1.377 . S
C4312 C4314 1.384 . S
C4313 C4312 1.377 . S
C4313 C4319 1.390 . S
C4314 H4305 0.930 . S
C4314 C4312 1.384 . S
C4314 C4315 1.372 . S
C4315 C4314 1.372 . S
C4315 C4316 1.400 . S
C4315 C4320 1.490 . S
C4316 H4306 0.930 . S
C4316 C4315 1.400 . S
C4316 C4319 1.386 . S
H4317 C4333 0.930 . S
H4318 C4334 0.931 . S
C4319 H4307 0.929 . S
C4319 C4313 1.390 . S
C4319 C4316 1.386 . S
C4320 C4315 1.490 . S
C4320 C4322 1.395 . S
C4320 C4323 1.403 . S
H4321 C4327 0.930 . S
C4322 H4308 0.930 . S
C4322 C4320 1.395 . S
C4322 C4325 1.403 . S
C4323 C4320 1.403 . S
C4323 C4324 1.524 . S
C4323 C4327 1.400 . S
C4324 H4309 0.960 . S
C4324 H4310 0.960 . S
C4324 H4311 0.960 . S
C4324 C4323 1.524 . S
C4325 C4322 1.403 . S
C4325 C4326 1.392 . S
C4325 C4329 1.495 . S
C4326 C4325 1.392 . S
C4326 C4327 1.385 . S
C4326 C4328 1.478 . S
C4327 H4321 0.930 . S
C4327 C4323 1.400 . S
C4327 C4326 1.385 . S
C4328 C4326 1.478 . S
C4328 C4330 1.381 . S
C4328 C4334 1.383 . S
C4329 C4325 1.495 . S
C4329 H4335 0.959 . S
C4329 H4336 0.961 . S
C4329 H4337 0.960 . S
C4330 C4328 1.381 . S
C4330 C4331 1.394 . S
C4330 H4338 0.930 . S
C4331 C4330 1.394 . S
C4331 C4332 1.383 . S
C4331 H4339 0.929 . S
C4332 C4331 1.383 . S
C4332 C4333 1.377 . S
C4333 H4317 0.930 . S
C4333 C4332 1.377 . S
C4333 C4334 1.379 . S
C4334 H4318 0.931 . S
C4334 C4328 1.383 . S
C4334 C4333 1.379 . S
H4335 C4329 0.959 . S
H4336 C4329 0.961 . S
H4337 C4329 0.960 . S
H4338 C4330 0.930 . S
H4339 C4331 0.929 . S
H4340 C4348 0.929 . S
H4341 C4350 0.930 . S
H4342 C4352 0.930 . S
H4343 C4355 0.929 . S
H4344 C4358 0.930 . S
H4345 C4360 0.960 . S
H4346 C4360 0.960 . S
H4347 C4360 0.960 . S
C4348 H4340 0.929 . S
C4348 C4349 1.377 . S
C4348 C4350 1.384 . S
C4349 C4348 1.377 . S
C4349 C4355 1.390 . S
C4350 H4341 0.930 . S
C4350 C4348 1.384 . S
C4350 C4351 1.372 . S
C4351 C4350 1.372 . S
C4351 C4352 1.400 . S
C4351 C4356 1.490 . S
C4352 H4342 0.930 . S
C4352 C4351 1.400 . S
C4352 C4355 1.386 . S
H4353 C4369 0.930 . S
H4354 C4370 0.931 . S
C4355 H4343 0.929 . S
C4355 C4349 1.390 . S
C4355 C4352 1.386 . S
C4356 C4351 1.490 . S
C4356 C4358 1.395 . S
C4356 C4359 1.403 . S
H4357 C4363 0.930 . S
C4358 H4344 0.930 . S
C4358 C4356 1.395 . S
C4358 C4361 1.403 . S
C4359 C4356 1.403 . S
C4359 C4360 1.524 . S
C4359 C4363 1.400 . S
C4360 H4345 0.960 . S
C4360 H4346 0.960 . S
C4360 H4347 0.960 . S
C4360 C4359 1.524 . S
C4361 C4358 1.403 . S
C4361 C4362 1.392 . S
C4361 C4365 1.495 . S
C4362 C4361 1.392 . S
C4362 C4363 1.385 . S
C4362 C4364 1.478 . S
C4363 H4357 0.930 . S
C4363 C4359 1.400 . S
C4363 C4362 1.385 . S
C4364 C4362 1.478 . S
C4364 C4366 1.381 . S
C4364 C4370 1.383 . S
C4365 C4361 1.495 . S
C4365 H4371 0.959 . S
C4365 H4372 0.961 . S
C4365 H4373 0.960 . S
C4366 C4364 1.381 . S
C4366 C4367 1.394 . S
C4366 H4374 0.930 . S
C4367 C4366 1.394 . S
C4367 C4368 1.383 . S
C4367 H4375 0.929 . S
C4368 C4367 1.383 . S
C4368 C4369 1.377 . S
C4369 H4353 0.930 . S
C4369 C4368 1.377 . S
C4369 C4370 1.379 . S
C4370 H4354 0.931 . S
C4370 C4364 1.383 . S
C4370 C4369 1.379 . S
H4371 C4365 0.959 . S
H4372 C4365 0.961 . S
H4373 C4365 0.960 . S
H4374 C4366 0.930 . S
H4375 C4367 0.929 . S
H4376 C4384 0.929 . S
H4377 C4386 0.930 . S
H4378 C4388 0.930 . S
H4379 C4391 0.929 . S
H4380 C4394 0.930 . S
H4381 C4396 0.960 . S
H4382 C4396 0.960 . S
H4383 C4396 0.960 . S
C4384 H4376 0.929 . S
C4384 C4385 1.377 . S
C4384 C4386 1.384 . S
C4385 C4384 1.377 . S
C4385 C4391 1.390 . S
C4386 H4377 0.930 . S
C4386 C4384 1.384 . S
C4386 C4387 1.372 . S
C4387 C4386 1.372 . S
C4387 C4388 1.400 . S
C4387 C4392 1.490 . S
C4388 H4378 0.930 . S
C4388 C4387 1.400 . S
C4388 C4391 1.386 . S
H4389 C4405 0.930 . S
H4390 C4406 0.931 . S
C4391 H4379 0.929 . S
C4391 C4385 1.390 . S
C4391 C4388 1.386 . S
C4392 C4387 1.490 . S
C4392 C4394 1.395 . S
C4392 C4395 1.403 . S
H4393 C4399 0.930 . S
C4394 H4380 0.930 . S
C4394 C4392 1.395 . S
C4394 C4397 1.403 . S
C4395 C4392 1.403 . S
C4395 C4396 1.524 . S
C4395 C4399 1.400 . S
C4396 H4381 0.960 . S
C4396 H4382 0.960 . S
C4396 H4383 0.960 . S
C4396 C4395 1.524 . S
C4397 C4394 1.403 . S
C4397 C4398 1.392 . S
C4397 C4401 1.495 . S
C4398 C4397 1.392 . S
C4398 C4399 1.385 . S
C4398 C4400 1.478 . S
C4399 H4393 0.930 . S
C4399 C4395 1.400 . S
C4399 C4398 1.385 . S
C4400 C4398 1.478 . S
C4400 C4402 1.381 . S
C4400 C4406 1.383 . S
C4401 C4397 1.495 . S
C4401 H4407 0.959 . S
C4401 H4408 0.961 . S
C4401 H4409 0.960 . S
C4402 C4400 1.381 . S
C4402 C4403 1.394 . S
C4402 H4410 0.930 . S
C4403 C4402 1.394 . S
C4403 C4404 1.383 . S
C4403 H4411 0.929 . S
C4404 C4403 1.383 . S
C4404 C4405 1.377 . S
C4405 H4389 0.930 . S
C4405 C4404 1.377 . S
C4405 C4406 1.379 . S
C4406 H4390 0.931 . S
C4406 C4400 1.383 . S
C4406 C4405 1.379 . S
H4407 C4401 0.959 . S
H4408 C4401 0.961 . S
H4409 C4401 0.960 . S
H4410 C4402 0.930 . S
H4411 C4403 0.929 . S
H4412 C4420 0.929 . S
H4413 C4422 0.930 . S
H4414 C4424 0.930 . S
H4415 C4427 0.929 . S
H4416 C4430 0.930 . S
H4417 C4432 0.960 . S
H4418 C4432 0.960 . S
H4419 C4432 0.960 . S
C4420 H4412 0.929 . S
C4420 C4421 1.377 . S
C4420 C4422 1.384 . S
C4421 C4420 1.377 . S
C4421 C4427 1.390 . S
C4422 H4413 0.930 . S
C4422 C4420 1.384 . S
C4422 C4423 1.372 . S
C4423 C4422 1.372 . S
C4423 C4424 1.400 . S
C4423 C4428 1.490 . S
C4424 H4414 0.930 . S
C4424 C4423 1.400 . S
C4424 C4427 1.386 . S
H4425 C4441 0.930 . S
H4426 C4442 0.931 . S
C4427 H4415 0.929 . S
C4427 C4421 1.390 . S
C4427 C4424 1.386 . S
C4428 C4423 1.490 . S
C4428 C4430 1.395 . S
C4428 C4431 1.403 . S
H4429 C4435 0.930 . S
C4430 H4416 0.930 . S
C4430 C4428 1.395 . S
C4430 C4433 1.403 . S
C4431 C4428 1.403 . S
C4431 C4432 1.524 . S
C4431 C4435 1.400 . S
C4432 H4417 0.960 . S
C4432 H4418 0.960 . S
C4432 H4419 0.960 . S
C4432 C4431 1.524 . S
C4433 C4430 1.403 . S
C4433 C4434 1.392 . S
C4433 C4437 1.495 . S
C4434 C4433 1.392 . S
C4434 C4435 1.385 . S
C4434 C4436 1.478 . S
C4435 H4429 0.930 . S
C4435 C4431 1.400 . S
C4435 C4434 1.385 . S
C4436 C4434 1.478 . S
C4436 C4438 1.381 . S
C4436 C4442 1.383 . S
C4437 C4433 1.495 . S
C4437 H4443 0.959 . S
C4437 H4444 0.961 . S
C4437 H4445 0.960 . S
C4438 C4436 1.381 . S
C4438 C4439 1.394 . S
C4438 H4446 0.930 . S
C4439 C4438 1.394 . S
C4439 C4440 1.383 . S
C4439 H4447 0.929 . S
C4440 C4439 1.383 . S
C4440 C4441 1.377 . S
C4441 H4425 0.930 . S
C4441 C4440 1.377 . S
C4441 C4442 1.379 . S
C4442 H4426 0.931 . S
C4442 C4436 1.383 . S
C4442 C4441 1.379 . S
H4443 C4437 0.959 . S
H4444 C4437 0.961 . S
H4445 C4437 0.960 . S
H4446 C4438 0.930 . S
H4447 C4439 0.929 . S
H4448 C4456 0.929 . S
H4449 C4458 0.930 . S
H4450 C4460 0.930 . S
H4451 C4463 0.929 . S
H4452 C4466 0.930 . S
H4453 C4468 0.960 . S
H4454 C4468 0.960 . S
H4455 C4468 0.960 . S
C4456 H4448 0.929 . S
C4456 C4457 1.377 . S
C4456 C4458 1.384 . S
C4457 C4456 1.377 . S
C4457 C4463 1.390 . S
C4458 H4449 0.930 . S
C4458 C4456 1.384 . S
C4458 C4459 1.372 . S
C4459 C4458 1.372 . S
C4459 C4460 1.400 . S
C4459 C4464 1.490 . S
C4460 H4450 0.930 . S
C4460 C4459 1.400 . S
C4460 C4463 1.386 . S
H4461 C4477 0.930 . S
H4462 C4478 0.931 . S
C4463 H4451 0.929 . S
C4463 C4457 1.390 . S
C4463 C4460 1.386 . S
C4464 C4459 1.490 . S
C4464 C4466 1.395 . S
C4464 C4467 1.403 . S
H4465 C4471 0.930 . S
C4466 H4452 0.930 . S
C4466 C4464 1.395 . S
C4466 C4469 1.403 . S
C4467 C4464 1.403 . S
C4467 C4468 1.524 . S
C4467 C4471 1.400 . S
C4468 H4453 0.960 . S
C4468 H4454 0.960 . S
C4468 H4455 0.960 . S
C4468 C4467 1.524 . S
C4469 C4466 1.403 . S
C4469 C4470 1.392 . S
C4469 C4473 1.495 . S
C4470 C4469 1.392 . S
C4470 C4471 1.385 . S
C4470 C4472 1.478 . S
C4471 H4465 0.930 . S
C4471 C4467 1.400 . S
C4471 C4470 1.385 . S
C4472 C4470 1.478 . S
C4472 C4474 1.381 . S
C4472 C4478 1.383 . S
C4473 C4469 1.495 . S
C4473 H4479 0.959 . S
C4473 H4480 0.961 . S
C4473 H4481 0.960 . S
C4474 C4472 1.381 . S
C4474 C4475 1.394 . S
C4474 H4482 0.930 . S
C4475 C4474 1.394 . S
C4475 C4476 1.383 . S
C4475 H4483 0.929 . S
C4476 C4475 1.383 . S
C4476 C4477 1.377 . S
C4477 H4461 0.930 . S
C4477 C4476 1.377 . S
C4477 C4478 1.379 . S
C4478 H4462 0.931 . S
C4478 C4472 1.383 . S
C4478 C4477 1.379 . S
H4479 C4473 0.959 . S
H4480 C4473 0.961 . S
H4481 C4473 0.960 . S
H4482 C4474 0.930 . S
H4483 C4475 0.929 . S
H4484 C4492 0.929 . S
H4485 C4494 0.930 . S
H4486 C4496 0.930 . S
H4487 C4499 0.929 . S
H4488 C4502 0.930 . S
H4489 C4504 0.960 . S
H4490 C4504 0.960 . S
H4491 C4504 0.960 . S
C4492 H4484 0.929 . S
C4492 C4493 1.377 . S
C4492 C4494 1.384 . S
C4493 C4492 1.377 . S
C4493 C4499 1.390 . S
C4494 H4485 0.930 . S
C4494 C4492 1.384 . S
C4494 C4495 1.372 . S
C4495 C4494 1.372 . S
C4495 C4496 1.400 . S
C4495 C4500 1.490 . S
C4496 H4486 0.930 . S
C4496 C4495 1.400 . S
C4496 C4499 1.386 . S
H4497 C4513 0.930 . S
H4498 C4514 0.931 . S
C4499 H4487 0.929 . S
C4499 C4493 1.390 . S
C4499 C4496 1.386 . S
C4500 C4495 1.490 . S
C4500 C4502 1.395 . S
C4500 C4503 1.403 . S
H4501 C4507 0.930 . S
C4502 H4488 0.930 . S
C4502 C4500 1.395 . S
C4502 C4505 1.403 . S
C4503 C4500 1.403 . S
C4503 C4504 1.524 . S
C4503 C4507 1.400 . S
C4504 H4489 0.960 . S
C4504 H4490 0.960 . S
C4504 H4491 0.960 . S
C4504 C4503 1.524 . S
C4505 C4502 1.403 . S
C4505 C4506 1.392 . S
C4505 C4509 1.495 . S
C4506 C4505 1.392 . S
C4506 C4507 1.385 . S
C4506 C4508 1.478 . S
C4507 H4501 0.930 . S
C4507 C4503 1.400 . S
C4507 C4506 1.385 . S
C4508 C4506 1.478 . S
C4508 C4510 1.381 . S
C4508 C4514 1.383 . S
C4509 C4505 1.495 . S
C4509 H4515 0.959 . S
C4509 H4516 0.961 . S
C4509 H4517 0.960 . S
C4510 C4508 1.381 . S
C4510 C4511 1.394 . S
C4510 H4518 0.930 . S
C4511 C4510 1.394 . S
C4511 C4512 1.383 . S
C4511 H4519 0.929 . S
C4512 C4511 1.383 . S
C4512 C4513 1.377 . S
C4513 H4497 0.930 . S
C4513 C4512 1.377 . S
C4513 C4514 1.379 . S
C4514 H4498 0.931 . S
C4514 C4508 1.383 . S
C4514 C4513 1.379 . S
H4515 C4509 0.959 . S
H4516 C4509 0.961 . S
H4517 C4509 0.960 . S
H4518 C4510 0.930 . S
H4519 C4511 0.929 . S
H4520 C4528 0.929 . S
H4521 C4530 0.930 . S
H4522 C4532 0.930 . S
H4523 C4535 0.929 . S
H4524 C4538 0.930 . S
H4525 C4540 0.960 . S
H4526 C4540 0.960 . S
H4527 C4540 0.960 . S
C4528 H4520 0.929 . S
C4528 C4529 1.377 . S
C4528 C4530 1.384 . S
C4529 C4528 1.377 . S
C4529 C4535 1.390 . S
C4530 H4521 0.930 . S
C4530 C4528 1.384 . S
C4530 C4531 1.372 . S
C4531 C4530 1.372 . S
C4531 C4532 1.400 . S
C4531 C4536 1.490 . S
C4532 H4522 0.930 . S
C4532 C4531 1.400 . S
C4532 C4535 1.386 . S
H4533 C4549 0.930 . S
H4534 C4550 0.931 . S
C4535 H4523 0.929 . S
C4535 C4529 1.390 . S
C4535 C4532 1.386 . S
C4536 C4531 1.490 . S
C4536 C4538 1.395 . S
C4536 C4539 1.403 . S
H4537 C4543 0.930 . S
C4538 H4524 0.930 . S
C4538 C4536 1.395 . S
C4538 C4541 1.403 . S
C4539 C4536 1.403 . S
C4539 C4540 1.524 . S
C4539 C4543 1.400 . S
C4540 H4525 0.960 . S
C4540 H4526 0.960 . S
C4540 H4527 0.960 . S
C4540 C4539 1.524 . S
C4541 C4538 1.403 . S
C4541 C4542 1.392 . S
C4541 C4545 1.495 . S
C4542 C4541 1.392 . S
C4542 C4543 1.385 . S
C4542 C4544 1.478 . S
C4543 H4537 0.930 . S
C4543 C4539 1.400 . S
C4543 C4542 1.385 . S
C4544 C4542 1.478 . S
C4544 C4546 1.381 . S
C4544 C4550 1.383 . S
C4545 C4541 1.495 . S
C4545 H4551 0.959 . S
C4545 H4552 0.961 . S
C4545 H4553 0.960 . S
C4546 C4544 1.381 . S
C4546 C4547 1.394 . S
C4546 H4554 0.930 . S
C4547 C4546 1.394 . S
C4547 C4548 1.383 . S
C4547 H4555 0.929 . S
C4548 C4547 1.383 . S
C4548 C4549 1.377 . S
C4549 H4533 0.930 . S
C4549 C4548 1.377 . S
C4549 C4550 1.379 . S
C4550 H4534 0.931 . S
C4550 C4544 1.383 . S
C4550 C4549 1.379 . S
H4551 C4545 0.959 . S
H4552 C4545 0.961 . S
H4553 C4545 0.960 . S
H4554 C4546 0.930 . S
H4555 C4547 0.929 . S
H4556 C4564 0.929 . S
H4557 C4566 0.930 . S
H4558 C4568 0.930 . S
H4559 C4571 0.929 . S
H4560 C4574 0.930 . S
H4561 C4576 0.960 . S
H4562 C4576 0.960 . S
H4563 C4576 0.960 . S
C4564 H4556 0.929 . S
C4564 C4565 1.377 . S
C4564 C4566 1.384 . S
C4565 C4564 1.377 . S
C4565 C4571 1.390 . S
C4566 H4557 0.930 . S
C4566 C4564 1.384 . S
C4566 C4567 1.372 . S
C4567 C4566 1.372 . S
C4567 C4568 1.400 . S
C4567 C4572 1.490 . S
C4568 H4558 0.930 . S
C4568 C4567 1.400 . S
C4568 C4571 1.386 . S
H4569 C4585 0.930 . S
H4570 C4586 0.931 . S
C4571 H4559 0.929 . S
C4571 C4565 1.390 . S
C4571 C4568 1.386 . S
C4572 C4567 1.490 . S
C4572 C4574 1.395 . S
C4572 C4575 1.403 . S
H4573 C4579 0.930 . S
C4574 H4560 0.930 . S
C4574 C4572 1.395 . S
C4574 C4577 1.403 . S
C4575 C4572 1.403 . S
C4575 C4576 1.524 . S
C4575 C4579 1.400 . S
C4576 H4561 0.960 . S
C4576 H4562 0.960 . S
C4576 H4563 0.960 . S
C4576 C4575 1.524 . S
C4577 C4574 1.403 . S
C4577 C4578 1.392 . S
C4577 C4581 1.495 . S
C4578 C4577 1.392 . S
C4578 C4579 1.385 . S
C4578 C4580 1.478 . S
C4579 H4573 0.930 . S
C4579 C4575 1.400 . S
C4579 C4578 1.385 . S
C4580 C4578 1.478 . S
C4580 C4582 1.381 . S
C4580 C4586 1.383 . S
C4581 C4577 1.495 . S
C4581 H4587 0.959 . S
C4581 H4588 0.961 . S
C4581 H4589 0.960 . S
C4582 C4580 1.381 . S
C4582 C4583 1.394 . S
C4582 H4590 0.930 . S
C4583 C4582 1.394 . S
C4583 C4584 1.383 . S
C4583 H4591 0.929 . S
C4584 C4583 1.383 . S
C4584 C4585 1.377 . S
C4585 H4569 0.930 . S
C4585 C4584 1.377 . S
C4585 C4586 1.379 . S
C4586 H4570 0.931 . S
C4586 C4580 1.383 . S
C4586 C4585 1.379 . S
H4587 C4581 0.959 . S
H4588 C4581 0.961 . S
H4589 C4581 0.960 . S
H4590 C4582 0.930 . S
H4591 C4583 0.929 . S
H4592 C4600 0.929 . S
H4593 C4602 0.930 . S
H4594 C4604 0.930 . S
H4595 C4607 0.929 . S
H4596 C4610 0.930 . S
H4597 C4612 0.960 . S
H4598 C4612 0.960 . S
H4599 C4612 0.960 . S
C4600 H4592 0.929 . S
C4600 C4601 1.377 . S
C4600 C4602 1.384 . S
C4601 C4600 1.377 . S
C4601 C4607 1.390 . S
C4602 H4593 0.930 . S
C4602 C4600 1.384 . S
C4602 C4603 1.372 . S
C4603 C4602 1.372 . S
C4603 C4604 1.400 . S
C4603 C4608 1.490 . S
C4604 H4594 0.930 . S
C4604 C4603 1.400 . S
C4604 C4607 1.386 . S
H4605 C4621 0.930 . S
H4606 C4622 0.931 . S
C4607 H4595 0.929 . S
C4607 C4601 1.390 . S
C4607 C4604 1.386 . S
C4608 C4603 1.490 . S
C4608 C4610 1.395 . S
C4608 C4611 1.403 . S
H4609 C4615 0.930 . S
C4610 H4596 0.930 . S
C4610 C4608 1.395 . S
C4610 C4613 1.403 . S
C4611 C4608 1.403 . S
C4611 C4612 1.524 . S
C4611 C4615 1.400 . S
C4612 H4597 0.960 . S
C4612 H4598 0.960 . S
C4612 H4599 0.960 . S
C4612 C4611 1.524 . S
C4613 C4610 1.403 . S
C4613 C4614 1.392 . S
C4613 C4617 1.495 . S
C4614 C4613 1.392 . S
C4614 C4615 1.385 . S
C4614 C4616 1.478 . S
C4615 H4609 0.930 . S
C4615 C4611 1.400 . S
C4615 C4614 1.385 . S
C4616 C4614 1.478 . S
C4616 C4618 1.381 . S
C4616 C4622 1.383 . S
C4617 C4613 1.495 . S
C4617 H4623 0.959 . S
C4617 H4624 0.961 . S
C4617 H4625 0.960 . S
C4618 C4616 1.381 . S
C4618 C4619 1.394 . S
C4618 H4626 0.930 . S
C4619 C4618 1.394 . S
C4619 C4620 1.383 . S
C4619 H4627 0.929 . S
C4620 C4619 1.383 . S
C4620 C4621 1.377 . S
C4621 H4605 0.930 . S
C4621 C4620 1.377 . S
C4621 C4622 1.379 . S
C4622 H4606 0.931 . S
C4622 C4616 1.383 . S
C4622 C4621 1.379 . S
H4623 C4617 0.959 . S
H4624 C4617 0.961 . S
H4625 C4617 0.960 . S
H4626 C4618 0.930 . S
H4627 C4619 0.929 . S
H4628 C4636 0.929 . S
H4629 C4638 0.930 . S
H4630 C4640 0.930 . S
H4631 C4643 0.929 . S
H4632 C4646 0.930 . S
H4633 C4648 0.960 . S
H4634 C4648 0.960 . S
H4635 C4648 0.960 . S
C4636 H4628 0.929 . S
C4636 C4637 1.377 . S
C4636 C4638 1.384 . S
C4637 C4636 1.377 . S
C4637 C4643 1.390 . S
C4638 H4629 0.930 . S
C4638 C4636 1.384 . S
C4638 C4639 1.372 . S
C4639 C4638 1.372 . S
C4639 C4640 1.400 . S
C4639 C4644 1.490 . S
C4640 H4630 0.930 . S
C4640 C4639 1.400 . S
C4640 C4643 1.386 . S
H4641 C4657 0.930 . S
H4642 C4658 0.931 . S
C4643 H4631 0.929 . S
C4643 C4637 1.390 . S
C4643 C4640 1.386 . S
C4644 C4639 1.490 . S
C4644 C4646 1.395 . S
C4644 C4647 1.403 . S
H4645 C4651 0.930 . S
C4646 H4632 0.930 . S
C4646 C4644 1.395 . S
C4646 C4649 1.403 . S
C4647 C4644 1.403 . S
C4647 C4648 1.524 . S
C4647 C4651 1.400 . S
C4648 H4633 0.960 . S
C4648 H4634 0.960 . S
C4648 H4635 0.960 . S
C4648 C4647 1.524 . S
C4649 C4646 1.403 . S
C4649 C4650 1.392 . S
C4649 C4653 1.495 . S
C4650 C4649 1.392 . S
C4650 C4651 1.385 . S
C4650 C4652 1.478 . S
C4651 H4645 0.930 . S
C4651 C4647 1.400 . S
C4651 C4650 1.385 . S
C4652 C4650 1.478 . S
C4652 C4654 1.381 . S
C4652 C4658 1.383 . S
C4653 C4649 1.495 . S
C4653 H4659 0.959 . S
C4653 H4660 0.961 . S
C4653 H4661 0.960 . S
C4654 C4652 1.381 . S
C4654 C4655 1.394 . S
C4654 H4662 0.930 . S
C4655 C4654 1.394 . S
C4655 C4656 1.383 . S
C4655 H4663 0.929 . S
C4656 C4655 1.383 . S
C4656 C4657 1.377 . S
C4657 H4641 0.930 . S
C4657 C4656 1.377 . S
C4657 C4658 1.379 . S
C4658 H4642 0.931 . S
C4658 C4652 1.383 . S
C4658 C4657 1.379 . S
H4659 C4653 0.959 . S
H4660 C4653 0.961 . S
H4661 C4653 0.960 . S
H4662 C4654 0.930 . S
H4663 C4655 0.929 . S
H4664 C4672 0.929 . S
H4665 C4674 0.930 . S
H4666 C4676 0.930 . S
H4667 C4679 0.929 . S
H4668 C4682 0.930 . S
H4669 C4684 0.960 . S
H4670 C4684 0.960 . S
H4671 C4684 0.960 . S
C4672 H4664 0.929 . S
C4672 C4673 1.377 . S
C4672 C4674 1.384 . S
C4673 C4672 1.377 . S
C4673 C4679 1.390 . S
C4674 H4665 0.930 . S
C4674 C4672 1.384 . S
C4674 C4675 1.372 . S
C4675 C4674 1.372 . S
C4675 C4676 1.400 . S
C4675 C4680 1.490 . S
C4676 H4666 0.930 . S
C4676 C4675 1.400 . S
C4676 C4679 1.386 . S
H4677 C4693 0.930 . S
H4678 C4694 0.931 . S
C4679 H4667 0.929 . S
C4679 C4673 1.390 . S
C4679 C4676 1.386 . S
C4680 C4675 1.490 . S
C4680 C4682 1.395 . S
C4680 C4683 1.403 . S
H4681 C4687 0.930 . S
C4682 H4668 0.930 . S
C4682 C4680 1.395 . S
C4682 C4685 1.403 . S
C4683 C4680 1.403 . S
C4683 C4684 1.524 . S
C4683 C4687 1.400 . S
C4684 H4669 0.960 . S
C4684 H4670 0.960 . S
C4684 H4671 0.960 . S
C4684 C4683 1.524 . S
C4685 C4682 1.403 . S
C4685 C4686 1.392 . S
C4685 C4689 1.495 . S
C4686 C4685 1.392 . S
C4686 C4687 1.385 . S
C4686 C4688 1.478 . S
C4687 H4681 0.930 . S
C4687 C4683 1.400 . S
C4687 C4686 1.385 . S
C4688 C4686 1.478 . S
C4688 C4690 1.381 . S
C4688 C4694 1.383 . S
C4689 C4685 1.495 . S
C4689 H4695 0.959 . S
C4689 H4696 0.961 . S
C4689 H4697 0.960 . S
C4690 C4688 1.381 . S
C4690 C4691 1.394 . S
C4690 H4698 0.930 . S
C4691 C4690 1.394 . S
C4691 C4692 1.383 . S
C4691 H4699 0.929 . S
C4692 C4691 1.383 . S
C4692 C4693 1.377 . S
C4693 H4677 0.930 . S
C4693 C4692 1.377 . S
C4693 C4694 1.379 . S
C4694 H4678 0.931 . S
C4694 C4688 1.383 . S
C4694 C4693 1.379 . S
H4695 C4689 0.959 . S
H4696 C4689 0.961 . S
H4697 C4689 0.960 . S
H4698 C4690 0.930 . S
H4699 C4691 0.929 . S
H4700 C4708 0.929 . S
H4701 C4710 0.930 . S
H4702 C4712 0.930 . S
H4703 C4715 0.929 . S
H4704 C4718 0.930 . S
H4705 C4720 0.960 . S
H4706 C4720 0.960 . S
H4707 C4720 0.960 . S
C4708 H4700 0.929 . S
C4708 C4709 1.377 . S
C4708 C4710 1.384 . S
C4709 C4708 1.377 . S
C4709 C4715 1.390 . S
C4710 H4701 0.930 . S
C4710 C4708 1.384 . S
C4710 C4711 1.372 . S
C4711 C4710 1.372 . S
C4711 C4712 1.400 . S
C4711 C4716 1.490 . S
C4712 H4702 0.930 . S
C4712 C4711 1.400 . S
C4712 C4715 1.386 . S
H4713 C4729 0.930 . S
H4714 C4730 0.931 . S
C4715 H4703 0.929 . S
C4715 C4709 1.390 . S
C4715 C4712 1.386 . S
C4716 C4711 1.490 . S
C4716 C4718 1.395 . S
C4716 C4719 1.403 . S
H4717 C4723 0.930 . S
C4718 H4704 0.930 . S
C4718 C4716 1.395 . S
C4718 C4721 1.403 . S
C4719 C4716 1.403 . S
C4719 C4720 1.524 . S
C4719 C4723 1.400 . S
C4720 H4705 0.960 . S
C4720 H4706 0.960 . S
C4720 H4707 0.960 . S
C4720 C4719 1.524 . S
C4721 C4718 1.403 . S
C4721 C4722 1.392 . S
C4721 C4725 1.495 . S
C4722 C4721 1.392 . S
C4722 C4723 1.385 . S
C4722 C4724 1.478 . S
C4723 H4717 0.930 . S
C4723 C4719 1.400 . S
C4723 C4722 1.385 . S
C4724 C4722 1.478 . S
C4724 C4726 1.381 . S
C4724 C4730 1.383 . S
C4725 C4721 1.495 . S
C4725 H4731 0.959 . S
C4725 H4732 0.961 . S
C4725 H4733 0.960 . S
C4726 C4724 1.381 . S
C4726 C4727 1.394 . S
C4726 H4734 0.930 . S
C4727 C4726 1.394 . S
C4727 C4728 1.383 . S
C4727 H4735 0.929 . S
C4728 C4727 1.383 . S
C4728 C4729 1.377 . S
C4729 H4713 0.930 . S
C4729 C4728 1.377 . S
C4729 C4730 1.379 . S
C4730 H4714 0.931 . S
C4730 C4724 1.383 . S
C4730 C4729 1.379 . S
H4731 C4725 0.959 . S
H4732 C4725 0.961 . S
H4733 C4725 0.960 . S
H4734 C4726 0.930 . S
H4735 C4727 0.929 . S
H4736 C4744 0.929 . S
H4737 C4746 0.930 . S
H4738 C4748 0.930 . S
H4739 C4751 0.929 . S
H4740 C4754 0.930 . S
H4741 C4756 0.960 . S
H4742 C4756 0.960 . S
H4743 C4756 0.960 . S
C4744 H4736 0.929 . S
C4744 C4745 1.377 . S
C4744 C4746 1.384 . S
C4745 C4744 1.377 . S
C4745 C4751 1.390 . S
C4746 H4737 0.930 . S
C4746 C4744 1.384 . S
C4746 C4747 1.372 . S
C4747 C4746 1.372 . S
C4747 C4748 1.400 . S
C4747 C4752 1.490 . S
C4748 H4738 0.930 . S
C4748 C4747 1.400 . S
C4748 C4751 1.386 . S
H4749 C4765 0.930 . S
H4750 C4766 0.931 . S
C4751 H4739 0.929 . S
C4751 C4745 1.390 . S
C4751 C4748 1.386 . S
C4752 C4747 1.490 . S
C4752 C4754 1.395 . S
C4752 C4755 1.403 . S
H4753 C4759 0.930 . S
C4754 H4740 0.930 . S
C4754 C4752 1.395 . S
C4754 C4757 1.403 . S
C4755 C4752 1.403 . S
C4755 C4756 1.524 . S
C4755 C4759 1.400 . S
C4756 H4741 0.960 . S
C4756 H4742 0.960 . S
C4756 H4743 0.960 . S
C4756 C4755 1.524 . S
C4757 C4754 1.403 . S
C4757 C4758 1.392 . S
C4757 C4761 1.495 . S
C4758 C4757 1.392 . S
C4758 C4759 1.385 . S
C4758 C4760 1.478 . S
C4759 H4753 0.930 . S
C4759 C4755 1.400 . S
C4759 C4758 1.385 . S
C4760 C4758 1.478 . S
C4760 C4762 1.381 . S
C4760 C4766 1.383 . S
C4761 C4757 1.495 . S
C4761 H4767 0.959 . S
C4761 H4768 0.961 . S
C4761 H4769 0.960 . S
C4762 C4760 1.381 . S
C4762 C4763 1.394 . S
C4762 H4770 0.930 . S
C4763 C4762 1.394 . S
C4763 C4764 1.383 . S
C4763 H4771 0.929 . S
C4764 C4763 1.383 . S
C4764 C4765 1.377 . S
C4765 H4749 0.930 . S
C4765 C4764 1.377 . S
C4765 C4766 1.379 . S
C4766 H4750 0.931 . S
C4766 C4760 1.383 . S
C4766 C4765 1.379 . S
H4767 C4761 0.959 . S
H4768 C4761 0.961 . S
H4769 C4761 0.960 . S
H4770 C4762 0.930 . S
H4771 C4763 0.929 . S
H4772 C4780 0.929 . S
H4773 C4782 0.930 . S
H4774 C4784 0.930 . S
H4775 C4787 0.929 . S
H4776 C4790 0.930 . S
H4777 C4792 0.960 . S
H4778 C4792 0.960 . S
H4779 C4792 0.960 . S
C4780 H4772 0.929 . S
C4780 C4781 1.377 . S
C4780 C4782 1.384 . S
C4781 C4780 1.377 . S
C4781 C4787 1.390 . S
C4782 H4773 0.930 . S
C4782 C4780 1.384 . S
C4782 C4783 1.372 . S
C4783 C4782 1.372 . S
C4783 C4784 1.400 . S
C4783 C4788 1.490 . S
C4784 H4774 0.930 . S
C4784 C4783 1.400 . S
C4784 C4787 1.386 . S
H4785 C4801 0.930 . S
H4786 C4802 0.931 . S
C4787 H4775 0.929 . S
C4787 C4781 1.390 . S
C4787 C4784 1.386 . S
C4788 C4783 1.490 . S
C4788 C4790 1.395 . S
C4788 C4791 1.403 . S
H4789 C4795 0.930 . S
C4790 H4776 0.930 . S
C4790 C4788 1.395 . S
C4790 C4793 1.403 . S
C4791 C4788 1.403 . S
C4791 C4792 1.524 . S
C4791 C4795 1.400 . S
C4792 H4777 0.960 . S
C4792 H4778 0.960 . S
C4792 H4779 0.960 . S
C4792 C4791 1.524 . S
C4793 C4790 1.403 . S
C4793 C4794 1.392 . S
C4793 C4797 1.495 . S
C4794 C4793 1.392 . S
C4794 C4795 1.385 . S
C4794 C4796 1.478 . S
C4795 H4789 0.930 . S
C4795 C4791 1.400 . S
C4795 C4794 1.385 . S
C4796 C4794 1.478 . S
C4796 C4798 1.381 . S
C4796 C4802 1.383 . S
C4797 C4793 1.495 . S
C4797 H4803 0.959 . S
C4797 H4804 0.961 . S
C4797 H4805 0.960 . S
C4798 C4796 1.381 . S
C4798 C4799 1.394 . S
C4798 H4806 0.930 . S
C4799 C4798 1.394 . S
C4799 C4800 1.383 . S
C4799 H4807 0.929 . S
C4800 C4799 1.383 . S
C4800 C4801 1.377 . S
C4801 H4785 0.930 . S
C4801 C4800 1.377 . S
C4801 C4802 1.379 . S
C4802 H4786 0.931 . S
C4802 C4796 1.383 . S
C4802 C4801 1.379 . S
H4803 C4797 0.959 . S
H4804 C4797 0.961 . S
H4805 C4797 0.960 . S
H4806 C4798 0.930 . S
H4807 C4799 0.929 . S
H4808 C4816 0.929 . S
H4809 C4818 0.930 . S
H4810 C4820 0.930 . S
H4811 C4823 0.929 . S
H4812 C4826 0.930 . S
H4813 C4828 0.960 . S
H4814 C4828 0.960 . S
H4815 C4828 0.960 . S
C4816 H4808 0.929 . S
C4816 C4817 1.377 . S
C4816 C4818 1.384 . S
C4817 C4816 1.377 . S
C4817 C4823 1.390 . S
C4818 H4809 0.930 . S
C4818 C4816 1.384 . S
C4818 C4819 1.372 . S
C4819 C4818 1.372 . S
C4819 C4820 1.400 . S
C4819 C4824 1.490 . S
C4820 H4810 0.930 . S
C4820 C4819 1.400 . S
C4820 C4823 1.386 . S
H4821 C4837 0.930 . S
H4822 C4838 0.931 . S
C4823 H4811 0.929 . S
C4823 C4817 1.390 . S
C4823 C4820 1.386 . S
C4824 C4819 1.490 . S
C4824 C4826 1.395 . S
C4824 C4827 1.403 . S
H4825 C4831 0.930 . S
C4826 H4812 0.930 . S
C4826 C4824 1.395 . S
C4826 C4829 1.403 . S
C4827 C4824 1.403 . S
C4827 C4828 1.524 . S
C4827 C4831 1.400 . S
C4828 H4813 0.960 . S
C4828 H4814 0.960 . S
C4828 H4815 0.960 . S
C4828 C4827 1.524 . S
C4829 C4826 1.403 . S
C4829 C4830 1.392 . S
C4829 C4833 1.495 . S
C4830 C4829 1.392 . S
C4830 C4831 1.385 . S
C4830 C4832 1.478 . S
C4831 H4825 0.930 . S
C4831 C4827 1.400 . S
C4831 C4830 1.385 . S
C4832 C4830 1.478 . S
C4832 C4834 1.381 . S
C4832 C4838 1.383 . S
C4833 C4829 1.495 . S
C4833 H4839 0.959 . S
C4833 H4840 0.961 . S
C4833 H4841 0.960 . S
C4834 C4832 1.381 . S
C4834 C4835 1.394 . S
C4834 H4842 0.930 . S
C4835 C4834 1.394 . S
C4835 C4836 1.383 . S
C4835 H4843 0.929 . S
C4836 C4835 1.383 . S
C4836 C4837 1.377 . S
C4837 H4821 0.930 . S
C4837 C4836 1.377 . S
C4837 C4838 1.379 . S
C4838 H4822 0.931 . S
C4838 C4832 1.383 . S
C4838 C4837 1.379 . S
H4839 C4833 0.959 . S
H4840 C4833 0.961 . S
H4841 C4833 0.960 . S
H4842 C4834 0.930 . S
H4843 C4835 0.929 . S
H4844 C4852 0.929 . S
H4845 C4854 0.930 . S
H4846 C4856 0.930 . S
H4847 C4859 0.929 . S
H4848 C4862 0.930 . S
H4849 C4864 0.960 . S
H4850 C4864 0.960 . S
H4851 C4864 0.960 . S
C4852 H4844 0.929 . S
C4852 C4853 1.377 . S
C4852 C4854 1.384 . S
C4853 C4852 1.377 . S
C4853 C4859 1.390 . S
C4854 H4845 0.930 . S
C4854 C4852 1.384 . S
C4854 C4855 1.372 . S
C4855 C4854 1.372 . S
C4855 C4856 1.400 . S
C4855 C4860 1.490 . S
C4856 H4846 0.930 . S
C4856 C4855 1.400 . S
C4856 C4859 1.386 . S
H4857 C4873 0.930 . S
H4858 C4874 0.931 . S
C4859 H4847 0.929 . S
C4859 C4853 1.390 . S
C4859 C4856 1.386 . S
C4860 C4855 1.490 . S
C4860 C4862 1.395 . S
C4860 C4863 1.403 . S
H4861 C4867 0.930 . S
C4862 H4848 0.930 . S
C4862 C4860 1.395 . S
C4862 C4865 1.403 . S
C4863 C4860 1.403 . S
C4863 C4864 1.524 . S
C4863 C4867 1.400 . S
C4864 H4849 0.960 . S
C4864 H4850 0.960 . S
C4864 H4851 0.960 . S
C4864 C4863 1.524 . S
C4865 C4862 1.403 . S
C4865 C4866 1.392 . S
C4865 C4869 1.495 . S
C4866 C4865 1.392 . S
C4866 C4867 1.385 . S
C4866 C4868 1.478 . S
C4867 H4861 0.930 . S
C4867 C4863 1.400 . S
C4867 C4866 1.385 . S
C4868 C4866 1.478 . S
C4868 C4870 1.381 . S
C4868 C4874 1.383 . S
C4869 C4865 1.495 . S
C4869 H4875 0.959 . S
C4869 H4876 0.961 . S
C4869 H4877 0.960 . S
C4870 C4868 1.381 . S
C4870 C4871 1.394 . S
C4870 H4878 0.930 . S
C4871 C4870 1.394 . S
C4871 C4872 1.383 . S
C4871 H4879 0.929 . S
C4872 C4871 1.383 . S
C4872 C4873 1.377 . S
C4873 H4857 0.930 . S
C4873 C4872 1.377 . S
C4873 C4874 1.379 . S
C4874 H4858 0.931 . S
C4874 C4868 1.383 . S
C4874 C4873 1.379 . S
H4875 C4869 0.959 . S
H4876 C4869 0.961 . S
H4877 C4869 0.960 . S
H4878 C4870 0.930 . S
H4879 C4871 0.929 . S
H4880 C4888 0.929 . S
H4881 C4890 0.930 . S
H4882 C4892 0.930 . S
H4883 C4895 0.929 . S
H4884 C4898 0.930 . S
H4885 C4900 0.960 . S
H4886 C4900 0.960 . S
H4887 C4900 0.960 . S
C4888 H4880 0.929 . S
C4888 C4889 1.377 . S
C4888 C4890 1.384 . S
C4889 C4888 1.377 . S
C4889 C4895 1.390 . S
C4890 H4881 0.930 . S
C4890 C4888 1.384 . S
C4890 C4891 1.372 . S
C4891 C4890 1.372 . S
C4891 C4892 1.400 . S
C4891 C4896 1.490 . S
C4892 H4882 0.930 . S
C4892 C4891 1.400 . S
C4892 C4895 1.386 . S
H4893 C4909 0.930 . S
H4894 C4910 0.931 . S
C4895 H4883 0.929 . S
C4895 C4889 1.390 . S
C4895 C4892 1.386 . S
C4896 C4891 1.490 . S
C4896 C4898 1.395 . S
C4896 C4899 1.403 . S
H4897 C4903 0.930 . S
C4898 H4884 0.930 . S
C4898 C4896 1.395 . S
C4898 C4901 1.403 . S
C4899 C4896 1.403 . S
C4899 C4900 1.524 . S
C4899 C4903 1.400 . S
C4900 H4885 0.960 . S
C4900 H4886 0.960 . S
C4900 H4887 0.960 . S
C4900 C4899 1.524 . S
C4901 C4898 1.403 . S
C4901 C4902 1.392 . S
C4901 C4905 1.495 . S
C4902 C4901 1.392 . S
C4902 C4903 1.385 . S
C4902 C4904 1.478 . S
C4903 H4897 0.930 . S
C4903 C4899 1.400 . S
C4903 C4902 1.385 . S
C4904 C4902 1.478 . S
C4904 C4906 1.381 . S
C4904 C4910 1.383 . S
C4905 C4901 1.495 . S
C4905 H4911 0.959 . S
C4905 H4912 0.961 . S
C4905 H4913 0.960 . S
C4906 C4904 1.381 . S
C4906 C4907 1.394 . S
C4906 H4914 0.930 . S
C4907 C4906 1.394 . S
C4907 C4908 1.383 . S
C4907 H4915 0.929 . S
C4908 C4907 1.383 . S
C4908 C4909 1.377 . S
C4909 H4893 0.930 . S
C4909 C4908 1.377 . S
C4909 C4910 1.379 . S
C4910 H4894 0.931 . S
C4910 C4904 1.383 . S
C4910 C4909 1.379 . S
H4911 C4905 0.959 . S
H4912 C4905 0.961 . S
H4913 C4905 0.960 . S
H4914 C4906 0.930 . S
H4915 C4907 0.929 . S
H4916 C4924 0.929 . S
H4917 C4926 0.930 . S
H4918 C4928 0.930 . S
H4919 C4931 0.929 . S
H4920 C4934 0.930 . S
H4921 C4936 0.960 . S
H4922 C4936 0.960 . S
H4923 C4936 0.960 . S
C4924 H4916 0.929 . S
C4924 C4925 1.377 . S
C4924 C4926 1.384 . S
C4925 C4924 1.377 . S
C4925 C4931 1.390 . S
C4926 H4917 0.930 . S
C4926 C4924 1.384 . S
C4926 C4927 1.372 . S
C4927 C4926 1.372 . S
C4927 C4928 1.400 . S
C4927 C4932 1.490 . S
C4928 H4918 0.930 . S
C4928 C4927 1.400 . S
C4928 C4931 1.386 . S
H4929 C4945 0.930 . S
H4930 C4946 0.931 . S
C4931 H4919 0.929 . S
C4931 C4925 1.390 . S
C4931 C4928 1.386 . S
C4932 C4927 1.490 . S
C4932 C4934 1.395 . S
C4932 C4935 1.403 . S
H4933 C4939 0.930 . S
C4934 H4920 0.930 . S
C4934 C4932 1.395 . S
C4934 C4937 1.403 . S
C4935 C4932 1.403 . S
C4935 C4936 1.524 . S
C4935 C4939 1.400 . S
C4936 H4921 0.960 . S
C4936 H4922 0.960 . S
C4936 H4923 0.960 . S
C4936 C4935 1.524 . S
C4937 C4934 1.403 . S
C4937 C4938 1.392 . S
C4937 C4941 1.495 . S
C4938 C4937 1.392 . S
C4938 C4939 1.385 . S
C4938 C4940 1.478 . S
C4939 H4933 0.930 . S
C4939 C4935 1.400 . S
C4939 C4938 1.385 . S
C4940 C4938 1.478 . S
C4940 C4942 1.381 . S
C4940 C4946 1.383 . S
C4941 C4937 1.495 . S
C4941 H4947 0.959 . S
C4941 H4948 0.961 . S
C4941 H4949 0.960 . S
C4942 C4940 1.381 . S
C4942 C4943 1.394 . S
C4942 H4950 0.930 . S
C4943 C4942 1.394 . S
C4943 C4944 1.383 . S
C4943 H4951 0.929 . S
C4944 C4943 1.383 . S
C4944 C4945 1.377 . S
C4945 H4929 0.930 . S
C4945 C4944 1.377 . S
C4945 C4946 1.379 . S
C4946 H4930 0.931 . S
C4946 C4940 1.383 . S
C4946 C4945 1.379 . S
H4947 C4941 0.959 . S
H4948 C4941 0.961 . S
H4949 C4941 0.960 . S
H4950 C4942 0.930 . S
H4951 C4943 0.929 . S
H4952 C4960 0.929 . S
H4953 C4962 0.930 . S
H4954 C4964 0.930 . S
H4955 C4967 0.929 . S
H4956 C4970 0.930 . S
H4957 C4972 0.960 . S
H4958 C4972 0.960 . S
H4959 C4972 0.960 . S
C4960 H4952 0.929 . S
C4960 C4961 1.377 . S
C4960 C4962 1.384 . S
C4961 C4960 1.377 . S
C4961 C4967 1.390 . S
C4962 H4953 0.930 . S
C4962 C4960 1.384 . S
C4962 C4963 1.372 . S
C4963 C4962 1.372 . S
C4963 C4964 1.400 . S
C4963 C4968 1.490 . S
C4964 H4954 0.930 . S
C4964 C4963 1.400 . S
C4964 C4967 1.386 . S
H4965 C4981 0.930 . S
H4966 C4982 0.931 . S
C4967 H4955 0.929 . S
C4967 C4961 1.390 . S
C4967 C4964 1.386 . S
C4968 C4963 1.490 . S
C4968 C4970 1.395 . S
C4968 C4971 1.403 . S
H4969 C4975 0.930 . S
C4970 H4956 0.930 . S
C4970 C4968 1.395 . S
C4970 C4973 1.403 . S
C4971 C4968 1.403 . S
C4971 C4972 1.524 . S
C4971 C4975 1.400 . S
C4972 H4957 0.960 . S
C4972 H4958 0.960 . S
C4972 H4959 0.960 . S
C4972 C4971 1.524 . S
C4973 C4970 1.403 . S
C4973 C4974 1.392 . S
C4973 C4977 1.495 . S
C4974 C4973 1.392 . S
C4974 C4975 1.385 . S
C4974 C4976 1.478 . S
C4975 H4969 0.930 . S
C4975 C4971 1.400 . S
C4975 C4974 1.385 . S
C4976 C4974 1.478 . S
C4976 C4978 1.381 . S
C4976 C4982 1.383 . S
C4977 C4973 1.495 . S
C4977 H4983 0.959 . S
C4977 H4984 0.961 . S
C4977 H4985 0.960 . S
C4978 C4976 1.381 . S
C4978 C4979 1.394 . S
C4978 H4986 0.930 . S
C4979 C4978 1.394 . S
C4979 C4980 1.383 . S
C4979 H4987 0.929 . S
C4980 C4979 1.383 . S
C4980 C4981 1.377 . S
C4981 H4965 0.930 . S
C4981 C4980 1.377 . S
C4981 C4982 1.379 . S
C4982 H4966 0.931 . S
C4982 C4976 1.383 . S
C4982 C4981 1.379 . S
H4983 C4977 0.959 . S
H4984 C4977 0.961 . S
H4985 C4977 0.960 . S
H4986 C4978 0.930 . S
H4987 C4979 0.929 . S
H4988 C4996 0.929 . S
H4989 C4998 0.930 . S
H4990 C5000 0.930 . S
H4991 C5003 0.929 . S
H4992 C5006 0.930 . S
H4993 C5008 0.960 . S
H4994 C5008 0.960 . S
H4995 C5008 0.960 . S
C4996 H4988 0.929 . S
C4996 C4997 1.377 . S
C4996 C4998 1.384 . S
C4997 C4996 1.377 . S
C4997 C5003 1.390 . S
C4998 H4989 0.930 . S
C4998 C4996 1.384 . S
C4998 C4999 1.372 . S
C4999 C4998 1.372 . S
C4999 C5000 1.400 . S
C4999 C5004 1.490 . S
C5000 H4990 0.930 . S
C5000 C4999 1.400 . S
C5000 C5003 1.386 . S
H5001 C5017 0.930 . S
H5002 C5018 0.931 . S
C5003 H4991 0.929 . S
C5003 C4997 1.390 . S
C5003 C5000 1.386 . S
C5004 C4999 1.490 . S
C5004 C5006 1.395 . S
C5004 C5007 1.403 . S
H5005 C5011 0.930 . S
C5006 H4992 0.930 . S
C5006 C5004 1.395 . S
C5006 C5009 1.403 . S
C5007 C5004 1.403 . S
C5007 C5008 1.524 . S
C5007 C5011 1.400 . S
C5008 H4993 0.960 . S
C5008 H4994 0.960 . S
C5008 H4995 0.960 . S
C5008 C5007 1.524 . S
C5009 C5006 1.403 . S
C5009 C5010 1.392 . S
C5009 C5013 1.495 . S
C5010 C5009 1.392 . S
C5010 C5011 1.385 . S
C5010 C5012 1.478 . S
C5011 H5005 0.930 . S
C5011 C5007 1.400 . S
C5011 C5010 1.385 . S
C5012 C5010 1.478 . S
C5012 C5014 1.381 . S
C5012 C5018 1.383 . S
C5013 C5009 1.495 . S
C5013 H5019 0.959 . S
C5013 H5020 0.961 . S
C5013 H5021 0.960 . S
C5014 C5012 1.381 . S
C5014 C5015 1.394 . S
C5014 H5022 0.930 . S
C5015 C5014 1.394 . S
C5015 C5016 1.383 . S
C5015 H5023 0.929 . S
C5016 C5015 1.383 . S
C5016 C5017 1.377 . S
C5017 H5001 0.930 . S
C5017 C5016 1.377 . S
C5017 C5018 1.379 . S
C5018 H5002 0.931 . S
C5018 C5012 1.383 . S
C5018 C5017 1.379 . S
H5019 C5013 0.959 . S
H5020 C5013 0.961 . S
H5021 C5013 0.960 . S
H5022 C5014 0.930 . S
H5023 C5015 0.929 . S
H5024 C5032 0.929 . S
H5025 C5034 0.930 . S
H5026 C5036 0.930 . S
H5027 C5039 0.929 . S
H5028 C5042 0.930 . S
H5029 C5044 0.960 . S
H5030 C5044 0.960 . S
H5031 C5044 0.960 . S
C5032 H5024 0.929 . S
C5032 C5033 1.377 . S
C5032 C5034 1.384 . S
C5033 C5032 1.377 . S
C5033 C5039 1.390 . S
C5034 H5025 0.930 . S
C5034 C5032 1.384 . S
C5034 C5035 1.372 . S
C5035 C5034 1.372 . S
C5035 C5036 1.400 . S
C5035 C5040 1.490 . S
C5036 H5026 0.930 . S
C5036 C5035 1.400 . S
C5036 C5039 1.386 . S
H5037 C5053 0.930 . S
H5038 C5054 0.931 . S
C5039 H5027 0.929 . S
C5039 C5033 1.390 . S
C5039 C5036 1.386 . S
C5040 C5035 1.490 . S
C5040 C5042 1.395 . S
C5040 C5043 1.403 . S
H5041 C5047 0.930 . S
C5042 H5028 0.930 . S
C5042 C5040 1.395 . S
C5042 C5045 1.403 . S
C5043 C5040 1.403 . S
C5043 C5044 1.524 . S
C5043 C5047 1.400 . S
C5044 H5029 0.960 . S
C5044 H5030 0.960 . S
C5044 H5031 0.960 . S
C5044 C5043 1.524 . S
C5045 C5042 1.403 . S
C5045 C5046 1.392 . S
C5045 C5049 1.495 . S
C5046 C5045 1.392 . S
C5046 C5047 1.385 . S
C5046 C5048 1.478 . S
C5047 H5041 0.930 . S
C5047 C5043 1.400 . S
C5047 C5046 1.385 . S
C5048 C5046 1.478 . S
C5048 C5050 1.381 . S
C5048 C5054 1.383 . S
C5049 C5045 1.495 . S
C5049 H5055 0.959 . S
C5049 H5056 0.961 . S
C5049 H5057 0.960 . S
C5050 C5048 1.381 . S
C5050 C5051 1.394 . S
C5050 H5058 0.930 . S
C5051 C5050 1.394 . S
C5051 C5052 1.383 . S
C5051 H5059 0.929 . S
C5052 C5051 1.383 . S
C5052 C5053 1.377 . S
C5053 H5037 0.930 . S
C5053 C5052 1.377 . S
C5053 C5054 1.379 . S
C5054 H5038 0.931 . S
C5054 C5048 1.383 . S
C5054 C5053 1.379 . S
H5055 C5049 0.959 . S
H5056 C5049 0.961 . S
H5057 C5049 0.960 . S
H5058 C5050 0.930 . S
H5059 C5051 0.929 . S
H5060 C5068 0.929 . S
H5061 C5070 0.930 . S
H5062 C5072 0.930 . S
H5063 C5075 0.929 . S
H5064 C5078 0.930 . S
H5065 C5080 0.960 . S
H5066 C5080 0.960 . S
H5067 C5080 0.960 . S
C5068 H5060 0.929 . S
C5068 C5069 1.377 . S
C5068 C5070 1.384 . S
C5069 C5068 1.377 . S
C5069 C5075 1.390 . S
C5070 H5061 0.930 . S
C5070 C5068 1.384 . S
C5070 C5071 1.372 . S
C5071 C5070 1.372 . S
C5071 C5072 1.400 . S
C5071 C5076 1.490 . S
C5072 H5062 0.930 . S
C5072 C5071 1.400 . S
C5072 C5075 1.386 . S
H5073 C5089 0.930 . S
H5074 C5090 0.931 . S
C5075 H5063 0.929 . S
C5075 C5069 1.390 . S
C5075 C5072 1.386 . S
C5076 C5071 1.490 . S
C5076 C5078 1.395 . S
C5076 C5079 1.403 . S
H5077 C5083 0.930 . S
C5078 H5064 0.930 . S
C5078 C5076 1.395 . S
C5078 C5081 1.403 . S
C5079 C5076 1.403 . S
C5079 C5080 1.524 . S
C5079 C5083 1.400 . S
C5080 H5065 0.960 . S
C5080 H5066 0.960 . S
C5080 H5067 0.960 . S
C5080 C5079 1.524 . S
C5081 C5078 1.403 . S
C5081 C5082 1.392 . S
C5081 C5085 1.495 . S
C5082 C5081 1.392 . S
C5082 C5083 1.385 . S
C5082 C5084 1.478 . S
C5083 H5077 0.930 . S
C5083 C5079 1.400 . S
C5083 C5082 1.385 . S
C5084 C5082 1.478 . S
C5084 C5086 1.381 . S
C5084 C5090 1.383 . S
C5085 C5081 1.495 . S
C5085 H5091 0.959 . S
C5085 H5092 0.961 . S
C5085 H5093 0.960 . S
C5086 C5084 1.381 . S
C5086 C5087 1.394 . S
C5086 H5094 0.930 . S
C5087 C5086 1.394 . S
C5087 C5088 1.383 . S
C5087 H5095 0.929 . S
C5088 C5087 1.383 . S
C5088 C5089 1.377 . S
C5089 H5073 0.930 . S
C5089 C5088 1.377 . S
C5089 C5090 1.379 . S
C5090 H5074 0.931 . S
C5090 C5084 1.383 . S
C5090 C5089 1.379 . S
H5091 C5085 0.959 . S
H5092 C5085 0.961 . S
H5093 C5085 0.960 . S
H5094 C5086 0.930 . S
H5095 C5087 0.929 . S
H5096 C5104 0.929 . S
H5097 C5106 0.930 . S
H5098 C5108 0.930 . S
H5099 C5111 0.929 . S
H5100 C5114 0.930 . S
H5101 C5116 0.960 . S
H5102 C5116 0.960 . S
H5103 C5116 0.960 . S
C5104 H5096 0.929 . S
C5104 C5105 1.377 . S
C5104 C5106 1.384 . S
C5105 C5104 1.377 . S
C5105 C5111 1.390 . S
C5106 H5097 0.930 . S
C5106 C5104 1.384 . S
C5106 C5107 1.372 . S
C5107 C5106 1.372 . S
C5107 C5108 1.400 . S
C5107 C5112 1.490 . S
C5108 H5098 0.930 . S
C5108 C5107 1.400 . S
C5108 C5111 1.386 . S
H5109 C5125 0.930 . S
H5110 C5126 0.931 . S
C5111 H5099 0.929 . S
C5111 C5105 1.390 . S
C5111 C5108 1.386 . S
C5112 C5107 1.490 . S
C5112 C5114 1.395 . S
C5112 C5115 1.403 . S
H5113 C5119 0.930 . S
C5114 H5100 0.930 . S
C5114 C5112 1.395 . S
C5114 C5117 1.403 . S
C5115 C5112 1.403 . S
C5115 C5116 1.524 . S
C5115 C5119 1.400 . S
C5116 H5101 0.960 . S
C5116 H5102 0.960 . S
C5116 H5103 0.960 . S
C5116 C5115 1.524 . S
C5117 C5114 1.403 . S
C5117 C5118 1.392 . S
C5117 C5121 1.495 . S
C5118 C5117 1.392 . S
C5118 C5119 1.385 . S
C5118 C5120 1.478 . S
C5119 H5113 0.930 . S
C5119 C5115 1.400 . S
C5119 C5118 1.385 . S
C5120 C5118 1.478 . S
C5120 C5122 1.381 . S
C5120 C5126 1.383 . S
C5121 C5117 1.495 . S
C5121 H5127 0.959 . S
C5121 H5128 0.961 . S
C5121 H5129 0.960 . S
C5122 C5120 1.381 . S
C5122 C5123 1.394 . S
C5122 H5130 0.930 . S
C5123 C5122 1.394 . S
C5123 C5124 1.383 . S
C5123 H5131 0.929 . S
C5124 C5123 1.383 . S
C5124 C5125 1.377 . S
C5125 H5109 0.930 . S
C5125 C5124 1.377 . S
C5125 C5126 1.379 . S
C5126 H5110 0.931 . S
C5126 C5120 1.383 . S
C5126 C5125 1.379 . S
H5127 C5121 0.959 . S
H5128 C5121 0.961 . S
H5129 C5121 0.960 . S
H5130 C5122 0.930 . S
H5131 C5123 0.929 . S
H5132 C5140 0.929 . S
H5133 C5142 0.930 . S
H5134 C5144 0.930 . S
H5135 C5147 0.929 . S
H5136 C5150 0.930 . S
H5137 C5152 0.960 . S
H5138 C5152 0.960 . S
H5139 C5152 0.960 . S
C5140 H5132 0.929 . S
C5140 C5141 1.377 . S
C5140 C5142 1.384 . S
C5141 C5140 1.377 . S
C5141 C5147 1.390 . S
C5142 H5133 0.930 . S
C5142 C5140 1.384 . S
C5142 C5143 1.372 . S
C5143 C5142 1.372 . S
C5143 C5144 1.400 . S
C5143 C5148 1.490 . S
C5144 H5134 0.930 . S
C5144 C5143 1.400 . S
C5144 C5147 1.386 . S
H5145 C5161 0.930 . S
H5146 C5162 0.931 . S
C5147 H5135 0.929 . S
C5147 C5141 1.390 . S
C5147 C5144 1.386 . S
C5148 C5143 1.490 . S
C5148 C5150 1.395 . S
C5148 C5151 1.403 . S
H5149 C5155 0.930 . S
C5150 H5136 0.930 . S
C5150 C5148 1.395 . S
C5150 C5153 1.403 . S
C5151 C5148 1.403 . S
C5151 C5152 1.524 . S
C5151 C5155 1.400 . S
C5152 H5137 0.960 . S
C5152 H5138 0.960 . S
C5152 H5139 0.960 . S
C5152 C5151 1.524 . S
C5153 C5150 1.403 . S
C5153 C5154 1.392 . S
C5153 C5157 1.495 . S
C5154 C5153 1.392 . S
C5154 C5155 1.385 . S
C5154 C5156 1.478 . S
C5155 H5149 0.930 . S
C5155 C5151 1.400 . S
C5155 C5154 1.385 . S
C5156 C5154 1.478 . S
C5156 C5158 1.381 . S
C5156 C5162 1.383 . S
C5157 C5153 1.495 . S
C5157 H5163 0.959 . S
C5157 H5164 0.961 . S
C5157 H5165 0.960 . S
C5158 C5156 1.381 . S
C5158 C5159 1.394 . S
C5158 H5166 0.930 . S
C5159 C5158 1.394 . S
C5159 C5160 1.383 . S
C5159 H5167 0.929 . S
C5160 C5159 1.383 . S
C5160 C5161 1.377 . S
C5161 H5145 0.930 . S
C5161 C5160 1.377 . S
C5161 C5162 1.379 . S
C5162 H5146 0.931 . S
C5162 C5156 1.383 . S
C5162 C5161 1.379 . S
H5163 C5157 0.959 . S
H5164 C5157 0.961 . S
H5165 C5157 0.960 . S
H5166 C5158 0.930 . S
H5167 C5159 0.929 . S
C1740 C1294 1.503 . S
C1721 C21 1.547 . S
C1776 C1306 1.394 . S
C1757 C42 1.481 . S
C1793 C82 1.527 . S
C1812 C1330 1.502 . S
C1848 C1341 1.471 . S
C1829 C135 1.535 . S
C1865 C175 1.474 . S
C1884 C1348 1.431 . S
C1901 C221 1.551 . S
C1920 C1287 1.509 . S
C1937 C255 1.524 . S
C1956 C1314 1.463 . S
C1992 C1323 1.498 . S
C1973 C301 1.591 . S
C2028 C1360 1.467 . S
C2009 C15 1.539 . S
C2045 C55 1.487 . S
C2064 C1386 1.399 . S
C2081 C101 1.560 . S
C2100 C1402 1.511 . S
C2136 C1422 1.499 . S
C2117 C141 1.545 . S
C2153 C162 1.480 . S
C2172 C1431 1.444 . S
C2208 C1456 1.477 . S
C2189 C215 1.548 . S
C2225 C261 1.545 . S
C2244 C1476 1.502 . S
C2280 C1492 1.516 . S
C2261 C282 1.556 . S
C2297 C2 1.529 . S
C2316 C1414 1.519 . S
C2333 C181 1.461 . S
C2352 C1449 1.446 . S
C2388 C1468 1.484 . S
C2369 C202 1.550 . S
C2405 C242 1.543 . S
C2424 C1485 1.458 . S
C2460 C1438 1.450 . S
C2441 C295 1.542 . S
C2496 C1378 1.459 . S
C2477 C95 1.545 . S
C2513 C122 1.537 . S
C2532 C1395 1.463 . S
C2568 C1368 1.401 . S
C2549 C61 1.507 . S
C2604 C1512 1.531 . S
C2585 C341 1.549 . S
C2621 C362 1.486 . S
C2640 C1522 1.450 . S
C2657 C402 1.532 . S
C2676 C1546 1.480 . S
C2712 C1558 1.450 . S
C2693 C455 1.534 . S
C2729 C495 1.473 . S
C2748 C1566 1.380 . S
C2765 C541 1.545 . S
C2784 C1504 1.527 . S
C2801 C575 1.527 . S
C2820 C1530 1.423 . S
C2837 C621 1.593 . S
C2856 C1539 1.530 . S
C2892 C1432 1.507 . S
C2873 C335 1.543 . S
C2909 C375 1.490 . S
C2928 C1582 1.428 . S
C2964 C1474 1.493 . S
C2945 C421 1.559 . S
C2981 C461 1.541 . S
C3000 C1602 1.453 . S
C3017 C482 1.483 . S
C3036 C1359 1.409 . S
C3072 C1620 1.452 . S
C3053 C535 1.541 . S
C3089 C581 1.545 . S
C3108 C1404 1.448 . S
C3144 C1636 1.482 . S
C3125 C602 1.554 . S
C3161 C322 1.523 . S
C3180 C1594 1.487 . S
C3216 C1612 1.393 . S
C3197 C501 1.456 . S
C3233 C522 1.545 . S
C3252 C1396 1.484 . S
C3288 C1629 1.499 . S
C3269 C562 1.547 . S
C3305 C615 1.542 . S
C3324 C1366 1.481 . S
C3341 C415 1.547 . S
C3360 C1575 1.463 . S
C3377 C442 1.535 . S
C3396 C1467 1.446 . S
C3413 C381 1.508 . S
C3432 C1440 1.402 . S
C3449 C661 1.554 . S
C3468 C1548 1.481 . S
C3504 C1557 1.389 . S
C3485 C682 1.485 . S
C3521 C722 1.527 . S
C3540 C1510 1.475 . S
C3557 C775 1.536 . S
C3576 C1521 1.441 . S
C3593 C815 1.471 . S
C3612 C1528 1.410 . S
C3629 C861 1.547 . S
C3648 C1540 1.534 . S
C3684 C1564 1.445 . S
C3665 C895 1.527 . S
C3701 C941 1.589 . S
C3720 C1503 1.528 . S
C3756 C1654 1.494 . S
C3737 C655 1.544 . S
C3773 C695 1.492 . S
C3792 C1458 1.431 . S
C3828 C1672 1.507 . S
C3809 C741 1.552 . S
C3845 C781 1.546 . S
C3864 C1494 1.493 . S
C3881 C802 1.481 . S
C3900 C1692 1.461 . S
C3917 C855 1.545 . S
C3936 C1384 1.504 . S
C3972 C1708 1.497 . S
C3953 C901 1.547 . S
C3989 C922 1.548 . S
C4008 C1420 1.480 . S
C4044 C1486 1.514 . S
C4025 C642 1.532 . S
C4080 C1377 1.430 . S
C4061 C821 1.466 . S
C4097 C842 1.555 . S
C4116 C1701 1.502 . S
C4133 C882 1.547 . S
C4152 C1413 1.476 . S
C4188 C1684 1.484 . S
C4169 C935 1.539 . S
C4224 C1450 1.497 . S
C4205 C735 1.549 . S
C4260 C1665 1.437 . S
C4241 C762 1.534 . S
C4296 C1647 1.456 . S
C4277 C701 1.508 . S
C4313 C981 1.554 . S
C4332 C1332 1.480 . S
C4349 C1002 1.484 . S
C4368 C1342 1.424 . S
C4404 C1296 1.459 . S
C4385 C1042 1.533 . S
C4440 C1305 1.445 . S
C4421 C1095 1.532 . S
C4476 C1312 1.426 . S
C4457 C1135 1.472 . S
C4512 C1324 1.477 . S
C4493 C1181 1.541 . S
C4548 C1350 1.481 . S
C4529 C1215 1.528 . S
C4565 C1261 1.587 . S
C4584 C1288 1.539 . S
C4601 C975 1.544 . S
C4620 C1690 1.459 . S
C4656 C1618 1.420 . S
C4637 C1015 1.491 . S
C4692 C1710 1.490 . S
C4673 C1061 1.561 . S
C4728 C1638 1.482 . S
C4709 C1101 1.543 . S
C4745 C1122 1.484 . S
C4764 C1656 1.468 . S
C4800 C1584 1.499 . S
C4781 C1175 1.541 . S
C4836 C1674 1.472 . S
C4817 C1221 1.544 . S
C4853 C1242 1.546 . S
C4872 C1600 1.460 . S
C4908 C1630 1.478 . S
C4889 C962 1.526 . S
C4944 C1576 1.449 . S
C4925 C1141 1.463 . S
C4980 C1666 1.527 . S
C4961 C1162 1.550 . S
C4997 C1202 1.546 . S
C5016 C1593 1.502 . S
C5033 C1255 1.535 . S
C5052 C1648 1.456 . S
C5069 C1055 1.545 . S
C5088 C1611 1.466 . S
C5105 C1082 1.532 . S
C5124 C1702 1.445 . S
C5160 C1683 1.431 . S
C5141 C1021 1.506 . S
