# Generated by pormake.
# Topology dag, (6,3)-cn, num edge types: 1
# Building blocks:
#     Node 0, Type 0, BuildingBlock: OJICUG_clean_sbu_0, # of connection points: 6
#     Node 1, Type 0, BuildingBlock: OJICUG_clean_sbu_0, # of connection points: 6
#     Node 2, Type 0, BuildingBlock: OJICUG_clean_sbu_0, # of connection points: 6
#     Node 3, Type 0, BuildingBlock: OJICUG_clean_sbu_0, # of connection points: 6
#     Node 4, Type 1, BuildingBlock: MIDCAF_clean_linker_0, # of connection points: 3
#     Node 5, Type 1, BuildingBlock: MIDCAF_clean_linker_0, # of connection points: 3
#     Node 6, Type 1, BuildingBlock: MIDCAF_clean_linker_0, # of connection points: 3
#     Node 7, Type 1, BuildingBlock: MIDCAF_clean_linker_0, # of connection points: 3
#     Node 8, Type 1, BuildingBlock: MIDCAF_clean_linker_0, # of connection points: 3
#     Node 9, Type 1, BuildingBlock: MIDCAF_clean_linker_0, # of connection points: 3
#     Node 10, Type 1, BuildingBlock: MIDCAF_clean_linker_0, # of connection points: 3
#     Node 11, Type 1, BuildingBlock: MIDCAF_clean_linker_0, # of connection points: 3
#     Edge 12, Type (0, 1), BuildingBlock: XUDNAN_clean_linker_2, # of connection points: 2
#     Edge 13, Type (0, 1), BuildingBlock: XUDNAN_clean_linker_2, # of connection points: 2
#     Edge 14, Type (0, 1), BuildingBlock: XUDNAN_clean_linker_2, # of connection points: 2
#     Edge 15, Type (0, 1), BuildingBlock: XUDNAN_clean_linker_2, # of connection points: 2
#     Edge 16, Type (0, 1), BuildingBlock: XUDNAN_clean_linker_2, # of connection points: 2
#     Edge 17, Type (0, 1), BuildingBlock: XUDNAN_clean_linker_2, # of connection points: 2
#     Edge 18, Type (0, 1), BuildingBlock: XUDNAN_clean_linker_2, # of connection points: 2
#     Edge 19, Type (0, 1), BuildingBlock: XUDNAN_clean_linker_2, # of connection points: 2
#     Edge 20, Type (0, 1), BuildingBlock: XUDNAN_clean_linker_2, # of connection points: 2
#     Edge 21, Type (0, 1), BuildingBlock: XUDNAN_clean_linker_2, # of connection points: 2
#     Edge 22, Type (0, 1), BuildingBlock: XUDNAN_clean_linker_2, # of connection points: 2
#     Edge 23, Type (0, 1), BuildingBlock: XUDNAN_clean_linker_2, # of connection points: 2
#     Edge 24, Type (0, 1), BuildingBlock: XUDNAN_clean_linker_2, # of connection points: 2
#     Edge 25, Type (0, 1), BuildingBlock: XUDNAN_clean_linker_2, # of connection points: 2
#     Edge 26, Type (0, 1), BuildingBlock: XUDNAN_clean_linker_2, # of connection points: 2
#     Edge 27, Type (0, 1), BuildingBlock: XUDNAN_clean_linker_2, # of connection points: 2
#     Edge 28, Type (0, 1), BuildingBlock: XUDNAN_clean_linker_2, # of connection points: 2
#     Edge 29, Type (0, 1), BuildingBlock: XUDNAN_clean_linker_2, # of connection points: 2
#     Edge 30, Type (0, 1), BuildingBlock: XUDNAN_clean_linker_2, # of connection points: 2
#     Edge 31, Type (0, 1), BuildingBlock: XUDNAN_clean_linker_2, # of connection points: 2
#     Edge 32, Type (0, 1), BuildingBlock: XUDNAN_clean_linker_2, # of connection points: 2
#     Edge 33, Type (0, 1), BuildingBlock: XUDNAN_clean_linker_2, # of connection points: 2
#     Edge 34, Type (0, 1), BuildingBlock: XUDNAN_clean_linker_2, # of connection points: 2
#     Edge 35, Type (0, 1), BuildingBlock: XUDNAN_clean_linker_2, # of connection points: 2
# Relax obj value: 0.257
# Max RMSD: 0.201
# Mean RMSD: 0.166
data_MOF--net-dag--node1-OJICUG_clean_sbu_0--node2-MIDCAF_clean_linker_0--edge1-XUDNAN_clean_linker_2
_symmetry_space_group_name_H-M    P1
_symmetry_Int_Tables_number       1
_symmetry_cell_setting            triclinic
loop_
_symmetry_equiv_pos_as_xyz
'x, y, z'
_cell_length_a     45.669596
_cell_length_b     43.624393
_cell_length_c     44.798624
_cell_angle_alpha  89.79298
_cell_angle_beta   95.174649
_cell_angle_gamma 89.903614
loop_
_atom_site_label
_atom_site_type_symbol
_atom_site_fract_x
_atom_site_fract_y
_atom_site_fract_z
_atom_type_partial_charge
Sc0 Sc 0.15664 0.85914 0.02528 0.0
Sc1 Sc 0.17615 0.79491 0.98463 0.0
Sc2 Sc 0.23103 0.83753 0.02747 0.0
O3 O 0.18803 0.83043 0.01254 0.0
C4 C 0.20921 0.9062 0.01734 0.0
C5 C 0.13759 0.85055 0.95591 0.0
C6 C 0.23563 0.81772 0.95937 0.0
C7 C 0.12265 0.79495 0.025 0.0
C8 C 0.19728 0.85095 0.08603 0.0
C9 C 0.22525 0.7644 0.03075 0.0
O10 O 0.18278 0.89932 0.0209 0.0
O11 O 0.14799 0.82355 0.95458 0.0
O12 O 0.24604 0.83074 0.9834 0.0
O13 O 0.12557 0.82316 0.03146 0.0
O14 O 0.22058 0.84589 0.0731 0.0
O15 O 0.2032 0.76297 0.01134 0.0
O16 O 0.17211 0.85449 0.07175 0.0
O17 O 0.14001 0.78092 0.00918 0.0
O18 O 0.23748 0.7896 0.03899 0.0
O19 O 0.13966 0.86659 0.97961 0.0
O20 O 0.22954 0.88622 0.01775 0.0
O21 O 0.21092 0.80422 0.95691 0.0
Sc22 Sc 0.73921 0.65589 0.51466 0.0
Sc23 Sc 0.67967 0.70075 0.48236 0.0
Sc24 Sc 0.66675 0.6274 0.51066 0.0
O25 O 0.69531 0.6613 0.50245 0.0
C26 C 0.72126 0.58827 0.49286 0.0
C27 C 0.73912 0.68874 0.45128 0.0
C28 C 0.64153 0.65009 0.44544 0.0
C29 C 0.72889 0.72668 0.53016 0.0
C30 C 0.70996 0.6285 0.57096 0.0
C31 C 0.63024 0.68668 0.52621 0.0
O32 O 0.74034 0.60901 0.499 0.0
O33 O 0.71444 0.70179 0.45311 0.0
O34 O 0.64443 0.62991 0.4661 0.0
O35 O 0.74404 0.70211 0.53198 0.0
O36 O 0.68605 0.6219 0.55562 0.0
O37 O 0.64325 0.70502 0.50976 0.0
O38 O 0.73163 0.64101 0.55965 0.0
O39 O 0.70467 0.72907 0.51404 0.0
O40 O 0.63647 0.65841 0.52861 0.0
O41 O 0.75077 0.6703 0.47099 0.0
O42 O 0.69404 0.59192 0.49535 0.0
O43 O 0.65303 0.67656 0.44816 0.0
Sc44 Sc 0.81097 0.21078 0.08864 0.0
Sc45 Sc 0.76718 0.15149 0.05476 0.0
Sc46 Sc 0.844 0.14648 0.05892 0.0
O47 O 0.80737 0.16969 0.06733 0.0
C48 C 0.86333 0.21453 0.04569 0.0
C49 C 0.75708 0.2232 0.04075 0.0
C50 C 0.80173 0.13631 0.99858 0.0
C51 C 0.75805 0.1781 0.11888 0.0
C52 C 0.86153 0.1724 0.12483 0.0
C53 C 0.80359 0.092 0.07718 0.0
O54 O 0.84668 0.22649 0.06379 0.0
O55 O 0.74918 0.19526 0.04037 0.0
O56 O 0.82628 0.13465 0.01437 0.0
O57 O 0.77631 0.19978 0.11647 0.0
O58 O 0.86567 0.15565 0.10245 0.0
O59 O 0.77977 0.10514 0.06743 0.0
O60 O 0.84153 0.19279 0.1241 0.0
O61 O 0.75333 0.15737 0.09914 0.0
O62 O 0.82856 0.10475 0.07753 0.0
O63 O 0.78046 0.23256 0.05548 0.0
O64 O 0.8634 0.18601 0.04006 0.0
O65 O 0.77796 0.14392 0.00941 0.0
Sc66 Sc 0.33686 0.36523 0.55976 0.0
Sc67 Sc 0.26435 0.33886 0.56371 0.0
Sc68 Sc 0.32514 0.29594 0.59608 0.0
O69 O 0.30863 0.33339 0.57323 0.0
C70 C 0.3729 0.30502 0.54908 0.0
C71 C 0.28922 0.36159 0.5032 0.0
C72 C 0.2755 0.26722 0.5508 0.0
C73 C 0.28486 0.40723 0.58016 0.0
C74 C 0.36344 0.34962 0.62678 0.0
C75 C 0.26615 0.30813 0.62788 0.0
O76 O 0.36485 0.33201 0.54187 0.0
O77 O 0.26844 0.35146 0.51751 0.0
O78 O 0.30054 0.26578 0.56572 0.0
O79 O 0.31133 0.40213 0.57507 0.0
O80 O 0.35018 0.32411 0.62836 0.0
O81 O 0.2544 0.32685 0.60858 0.0
O82 O 0.36224 0.36585 0.60299 0.0
O83 O 0.26492 0.38678 0.57706 0.0
O84 O 0.29052 0.29489 0.62528 0.0
O85 O 0.31465 0.36763 0.51558 0.0
O86 O 0.36226 0.28997 0.56982 0.0
O87 O 0.25961 0.29142 0.54914 0.0
C88 C 0.00749 0.06207 0.28073 0.0
C89 C 0.00085 0.0929 0.28626 0.0
C90 C 0.01857 0.10892 0.30823 0.0
C91 C 0.04342 0.09494 0.32301 0.0
H92 H 0.105 0.09785 0.3985 0.0
H93 H 0.13491 0.12746 0.43554 0.0
H94 H 0.2124 0.07869 0.41325 0.0
H95 H 0.18234 0.04837 0.37668 0.0
H96 H 0.16967 0.98393 0.33691 0.0
H97 H 0.19136 0.94507 0.30644 0.0
H98 H 0.11769 0.9545 0.2393 0.0
H99 H 0.09567 0.99186 0.26995 0.0
H100 H 0.03737 0.02475 0.28965 0.0
H101 H 0.99386 0.04886 0.26446 0.0
H102 H 0.01414 0.13273 0.31293 0.0
H103 H 0.05734 0.10834 0.33887 0.0
N104 N 0.09595 0.06504 0.351 0.0
N105 N 0.13437 0.03004 0.34623 0.0
N106 N 0.09099 0.02711 0.31415 0.0
C107 C 0.12323 0.05441 0.36042 0.0
C108 C 0.11825 0.01618 0.32308 0.0
C109 C 0.07964 0.05144 0.32798 0.0
C110 C 0.14126 0.0708 0.38444 0.0
C111 C 0.12839 0.09325 0.40157 0.0
C112 C 0.14558 0.11041 0.42272 0.0
C113 C 0.1761 0.10569 0.42717 0.0
C114 C 0.1889 0.08272 0.4106 0.0
C115 C 0.17166 0.06539 0.38953 0.0
C116 C 0.13091 0.99112 0.30594 0.0
C117 C 0.15797 0.97736 0.3158 0.0
C118 C 0.17049 0.95518 0.29825 0.0
C119 C 0.15631 0.94645 0.27037 0.0
C120 C 0.12902 0.95991 0.2609 0.0
C121 C 0.11644 0.98171 0.27849 0.0
C122 C 0.05112 0.06475 0.31594 0.0
C123 C 0.03239 0.04821 0.29528 0.0
C124 C 0.3013 0.64298 0.59869 0.0
C125 C 0.28223 0.62857 0.61725 0.0
C126 C 0.27274 0.64484 0.64161 0.0
C127 C 0.28405 0.67402 0.64867 0.0
H128 H 0.27729 0.75871 0.69938 0.0
H129 H 0.26544 0.77966 0.74705 0.0
H130 H 0.35688 0.80283 0.76878 0.0
H131 H 0.36845 0.7831 0.72044 0.0
H132 H 0.4128 0.77379 0.67064 0.0
H133 H 0.46294 0.77385 0.65581 0.0
H134 H 0.43351 0.72631 0.57425 0.0
H135 H 0.38342 0.72623 0.58887 0.0
H136 H 0.32827 0.68177 0.59162 0.0
H137 H 0.30851 0.6312 0.5794 0.0
H138 H 0.25806 0.63428 0.6563 0.0
H139 H 0.27761 0.68524 0.6686 0.0
N140 N 0.31396 0.73085 0.6663 0.0
N141 N 0.35706 0.7602 0.66666 0.0
N142 N 0.34715 0.72223 0.63032 0.0
C143 C 0.3314 0.75364 0.67852 0.0
C144 C 0.36491 0.74479 0.6423 0.0
C145 C 0.32167 0.71504 0.64214 0.0
C146 C 0.32384 0.76898 0.70623 0.0
C147 C 0.29481 0.76856 0.7142 0.0
C148 C 0.28807 0.78042 0.74167 0.0
C149 C 0.31028 0.7925 0.76209 0.0
C150 C 0.33915 0.79397 0.75359 0.0
C151 C 0.34582 0.78251 0.72587 0.0
C152 C 0.39414 0.7496 0.63114 0.0
C153 C 0.41686 0.76393 0.64924 0.0
C154 C 0.44561 0.76387 0.64084 0.0
C155 C 0.45214 0.74986 0.61402 0.0
C156 C 0.42911 0.73744 0.59497 0.0
C157 C 0.40043 0.7372 0.60349 0.0
C158 C 0.30505 0.68738 0.63148 0.0
C159 C 0.31257 0.67202 0.60571 0.0
C160 C 0.77982 0.72186 0.23194 0.0
C161 C 0.80254 0.70965 0.25155 0.0
C162 C 0.82901 0.70087 0.24036 0.0
C163 C 0.83358 0.70684 0.21034 0.0
H164 H 0.89395 0.70159 0.14419 0.0
H165 H 0.94271 0.69739 0.12572 0.0
H166 H 0.91584 0.76001 0.05363 0.0
H167 H 0.86738 0.76414 0.07154 0.0
H168 H 0.81768 0.81369 0.07982 0.0
H169 H 0.8085 0.8688 0.07556 0.0
H170 H 0.7711 0.86773 0.1606 0.0
H171 H 0.77976 0.81272 0.16489 0.0
H172 H 0.76686 0.73886 0.18803 0.0
H173 H 0.75919 0.72866 0.2402 0.0
H174 H 0.84684 0.69155 0.25527 0.0
H175 H 0.85493 0.70196 0.20273 0.0
N176 N 0.84187 0.72604 0.14826 0.0
N177 N 0.83469 0.76736 0.11464 0.0
N178 N 0.80401 0.76164 0.15319 0.0
C179 C 0.84969 0.74155 0.12376 0.0
C180 C 0.81188 0.77762 0.12922 0.0
C181 C 0.81857 0.73573 0.16271 0.0
C182 C 0.87691 0.7337 0.10973 0.0
C183 C 0.8982 0.71386 0.12398 0.0
C184 C 0.92609 0.7114 0.11344 0.0
C185 C 0.93305 0.72882 0.08863 0.0
C186 C 0.91111 0.74675 0.07313 0.0
C187 C 0.88334 0.74907 0.08345 0.0
C188 C 0.79995 0.80883 0.12294 0.0
C189 C 0.80673 0.825 0.09722 0.0
C190 C 0.80137 0.85651 0.09468 0.0
C191 C 0.78946 0.8724 0.11795 0.0
C192 C 0.78053 0.85592 0.14249 0.0
C193 C 0.78545 0.82438 0.14484 0.0
C194 C 0.81171 0.72177 0.1914 0.0
C195 C 0.7843 0.72777 0.20214 0.0
C196 C 0.67685 0.40904 0.9086 0.0
C197 C 0.65808 0.39265 0.92609 0.0
C198 C 0.62845 0.40154 0.92545 0.0
C199 C 0.61728 0.42459 0.90604 0.0
H200 H 0.54785 0.42272 0.84198 0.0
H201 H 0.50342 0.40447 0.81432 0.0
H202 H 0.50237 0.48426 0.7567 0.0
H203 H 0.54783 0.50204 0.7838 0.0
H204 H 0.60723 0.5533 0.8024 0.0
H205 H 0.63269 0.58543 0.76856 0.0
H206 H 0.70877 0.5261 0.78109 0.0
H207 H 0.68363 0.49486 0.81628 0.0
H208 H 0.68025 0.44361 0.87488 0.0
H209 H 0.69978 0.40267 0.90859 0.0
H210 H 0.6136 0.38991 0.93924 0.0
H211 H 0.59405 0.42998 0.90526 0.0
N212 N 0.59386 0.45536 0.85233 0.0
N213 N 0.59736 0.49418 0.81679 0.0
N214 N 0.63844 0.48158 0.85009 0.0
C215 C 0.58125 0.47214 0.82908 0.0
C216 C 0.62583 0.49914 0.82725 0.0
C217 C 0.62223 0.46002 0.86313 0.0
C218 C 0.55172 0.46374 0.81498 0.0
C219 C 0.53805 0.43669 0.82368 0.0
C220 C 0.5123 0.42625 0.80785 0.0
C221 C 0.49927 0.44275 0.78307 0.0
C222 C 0.5121 0.47063 0.77529 0.0
C223 C 0.53808 0.48096 0.79099 0.0
C224 C 0.64333 0.5214 0.81155 0.0
C225 C 0.62965 0.54757 0.79843 0.0
C226 C 0.64421 0.56586 0.77893 0.0
C227 C 0.67251 0.5579 0.77146 0.0
C228 C 0.68704 0.53298 0.78637 0.0
C229 C 0.67262 0.51499 0.80645 0.0
C230 C 0.63552 0.43958 0.88704 0.0
C231 C 0.66566 0.43243 0.88927 0.0
C232 C 0.57419 0.25465 0.48592 0.0
C233 C 0.55254 0.23824 0.46839 0.0
C234 C 0.56055 0.22212 0.44326 0.0
C235 C 0.58924 0.22387 0.43481 0.0
H236 H 0.63978 0.20076 0.36725 0.0
H237 H 0.65142 0.18017 0.31928 0.0
H238 H 0.738 0.22046 0.33223 0.0
H239 H 0.72608 0.24186 0.37971 0.0
H240 H 0.7337 0.30239 0.42318 0.0
H241 H 0.75488 0.35309 0.43323 0.0
H242 H 0.67882 0.37814 0.47882 0.0
H243 H 0.65867 0.32757 0.4702 0.0
H244 H 0.61856 0.27057 0.49067 0.0
H245 H 0.56865 0.2675 0.50528 0.0
H246 H 0.54435 0.20904 0.42952 0.0
H247 H 0.59436 0.21224 0.4146 0.0
N248 N 0.64829 0.2319 0.41646 0.0
N249 N 0.68891 0.26452 0.41446 0.0
N250 N 0.65488 0.27326 0.44957 0.0
C251 C 0.67336 0.23961 0.40403 0.0
C252 C 0.67979 0.28149 0.43723 0.0
C253 C 0.63911 0.24843 0.43952 0.0
C254 C 0.68185 0.22336 0.37714 0.0
C255 C 0.66145 0.20489 0.36009 0.0
C256 C 0.66816 0.19296 0.33259 0.0
C257 C 0.69548 0.19905 0.32168 0.0
C258 C 0.71646 0.21599 0.33961 0.0
C259 C 0.70968 0.22813 0.36694 0.0
C260 C 0.69445 0.31086 0.44584 0.0
C261 C 0.7218 0.31863 0.4358 0.0
C262 C 0.73385 0.34779 0.44138 0.0
C263 C 0.71865 0.36991 0.45683 0.0
C264 C 0.69166 0.36169 0.46747 0.0
C265 C 0.67989 0.33255 0.46231 0.0
C266 C 0.61038 0.24206 0.45118 0.0
C267 C 0.60277 0.25661 0.47737 0.0
C268 C 0.20905 0.24956 0.84062 0.0
C269 C 0.19129 0.26825 0.8209 0.0
C270 C 0.16709 0.28336 0.83136 0.0
C271 C 0.15969 0.27818 0.86066 0.0
H272 H 0.08397 0.26976 0.90968 0.0
H273 H 0.03478 0.2802 0.92507 0.0
H274 H 0.06694 0.26512 0.01747 0.0
H275 H 0.11591 0.25379 0.00218 0.0
H276 H 0.15352 0.18189 0.99807 0.0
H277 H 0.17139 0.13183 0.01581 0.0
H278 H 0.23876 0.13485 0.95415 0.0
H279 H 0.22136 0.18507 0.93669 0.0
H280 H 0.21568 0.22925 0.88398 0.0
H281 H 0.22811 0.23804 0.83315 0.0
H282 H 0.15312 0.29791 0.81648 0.0
H283 H 0.14016 0.28906 0.86775 0.0
N284 N 0.1419 0.26046 0.91925 0.0
N285 N 0.14701 0.22731 0.96087 0.0
N286 N 0.18146 0.22605 0.92532 0.0
C287 C 0.13209 0.25008 0.94522 0.0
C288 C 0.17176 0.21512 0.95102 0.0
C289 C 0.16689 0.24879 0.90937 0.0
C290 C 0.1037 0.26082 0.95475 0.0
C291 C 0.08067 0.26925 0.93332 0.0
C292 C 0.05257 0.27514 0.94205 0.0
C293 C 0.04728 0.27353 0.97239 0.0
C294 C 0.07063 0.26677 0.99396 0.0
C295 C 0.09854 0.26014 0.9852 0.0
C296 C 0.18564 0.1874 0.96556 0.0
C297 C 0.17249 0.17222 0.98865 0.0
C298 C 0.18263 0.14341 0.99873 0.0
C299 C 0.20619 0.12916 0.98604 0.0
C300 C 0.22063 0.14522 0.96446 0.0
C301 C 0.21048 0.174 0.95432 0.0
C302 C 0.17656 0.25799 0.87991 0.0
C303 C 0.20187 0.24458 0.86979 0.0
C304 C 0.35242 0.60156 0.15663 0.0
C305 C 0.32239 0.59638 0.1487 0.0
C306 C 0.30837 0.57225 0.16261 0.0
C307 C 0.32385 0.5543 0.18466 0.0
H308 H 0.31314 0.48387 0.24665 0.0
H309 H 0.28761 0.44902 0.27848 0.0
H310 H 0.36568 0.44399 0.34052 0.0
H311 H 0.39117 0.47723 0.3087 0.0
H312 H 0.43751 0.52612 0.30926 0.0
H313 H 0.48234 0.54792 0.33279 0.0
H314 H 0.4969 0.5947 0.25014 0.0
H315 H 0.45083 0.57387 0.22686 0.0
H316 H 0.39091 0.58869 0.18448 0.0
H317 H 0.36397 0.61964 0.14595 0.0
H318 H 0.28518 0.56783 0.15718 0.0
H319 H 0.31215 0.5364 0.19542 0.0
N320 N 0.35567 0.52063 0.23317 0.0
N321 N 0.39722 0.51521 0.26742 0.0
N322 N 0.39732 0.55136 0.22879 0.0
C323 C 0.36955 0.50647 0.25759 0.0
C324 C 0.41132 0.53749 0.25323 0.0
C325 C 0.36952 0.54304 0.21855 0.0
C326 C 0.35422 0.48352 0.27508 0.0
C327 C 0.32492 0.47488 0.26687 0.0
C328 C 0.31024 0.45503 0.28517 0.0
C329 C 0.32457 0.44348 0.31202 0.0
C330 C 0.35403 0.45168 0.31971 0.0
C331 C 0.36866 0.47118 0.30147 0.0
C332 C 0.44041 0.5484 0.26618 0.0
C333 C 0.45035 0.54078 0.29589 0.0
C334 C 0.47634 0.55316 0.30939 0.0
C335 C 0.49343 0.57314 0.29344 0.0
C336 C 0.48408 0.57983 0.2633 0.0
C337 C 0.45774 0.56775 0.24988 0.0
C338 C 0.35369 0.56012 0.1933 0.0
C339 C 0.3679 0.58365 0.17864 0.0
C340 C 0.86984 0.05859 0.79614 0.0
C341 C 0.84057 0.05493 0.80299 0.0
C342 C 0.82359 0.03139 0.78877 0.0
C343 C 0.83624 0.01067 0.76992 0.0
H344 H 0.81957 0.94533 0.70394 0.0
H345 H 0.79103 0.91226 0.66909 0.0
H346 H 0.87017 0.86426 0.65051 0.0
H347 H 0.8989 0.89698 0.68616 0.0
H348 H 0.95377 0.90337 0.74036 0.0
H349 H 0.0011 0.88839 0.76616 0.0
H350 H 0.00763 0.97688 0.80928 0.0
H351 H 0.96124 0.99208 0.78314 0.0
H352 H 0.9056 0.04014 0.77416 0.0
H353 H 0.88333 0.07697 0.806 0.0
H354 H 0.80107 0.02771 0.79364 0.0
H355 H 0.82304 0.9918 0.7606 0.0
N356 N 0.86566 0.96899 0.73078 0.0
N357 N 0.90758 0.93824 0.72789 0.0
N358 N 0.90967 0.98154 0.75883 0.0
C359 C 0.87885 0.94438 0.71909 0.0
C360 C 0.92314 0.95681 0.74779 0.0
C361 C 0.88102 0.98779 0.75046 0.0
C362 C 0.86162 0.92397 0.69781 0.0
C363 C 0.83102 0.92779 0.69247 0.0
C364 C 0.8146 0.90889 0.67232 0.0
C365 C 0.82834 0.88579 0.65681 0.0
C366 C 0.85889 0.88169 0.66231 0.0
C367 C 0.87537 0.90056 0.68263 0.0
C368 C 0.9535 0.94883 0.75988 0.0
C369 C 0.96562 0.91982 0.7549 0.0
C370 C 0.99264 0.91114 0.76983 0.0
C371 C 0.00813 0.93135 0.7899 0.0
C372 C 0.9966 0.96083 0.7937 0.0
C373 C 0.96972 0.96947 0.77885 0.0
C374 C 0.86618 0.01285 0.7653 0.0
C375 C 0.88259 0.03758 0.77777 0.0
H376 H 0.15307 0.84872 0.12318 0.0
H377 H 0.24644 0.86656 0.12261 0.0
H378 H 0.24786 0.88543 0.17464 0.0
H379 H 0.13537 0.91341 0.15756 0.0
H380 H 0.10833 0.89729 0.17998 0.0
H381 H 0.11576 0.87911 0.14557 0.0
H382 H 0.12777 0.82808 0.17384 0.0
H383 H 0.12002 0.84602 0.20847 0.0
H384 H 0.15497 0.82753 0.20561 0.0
H385 H 0.23685 0.91211 0.22203 0.0
H386 H 0.215 0.94167 0.26126 0.0
H387 H 0.1294 0.90348 0.23248 0.0
C388 C 0.17403 0.85565 0.13431 0.0
C389 C 0.19963 0.85617 0.11882 0.0
C390 C 0.22658 0.86567 0.1341 0.0
C391 C 0.22759 0.87646 0.16368 0.0
C392 C 0.20162 0.87694 0.17785 0.0
C393 C 0.17545 0.86617 0.16384 0.0
C394 C 0.15005 0.87195 0.18259 0.0
C395 C 0.12599 0.89161 0.16539 0.0
C396 C 0.13747 0.84158 0.19327 0.0
C397 C 0.16565 0.88939 0.20844 0.0
C398 C 0.19546 0.89165 0.20562 0.0
C399 C 0.2137 0.90971 0.22498 0.0
C400 C 0.20107 0.92638 0.24734 0.0
C401 C 0.17041 0.92497 0.25012 0.0
C402 C 0.15285 0.9053 0.23096 0.0
H403 H 0.58184 0.72201 0.50901 0.0
H404 H 0.62865 0.67715 0.58562 0.0
H405 H 0.59066 0.69436 0.61777 0.0
H406 H 0.55167 0.78738 0.54928 0.0
H407 H 0.51669 0.78606 0.52721 0.0
H408 H 0.54963 0.77427 0.51103 0.0
H409 H 0.52594 0.72161 0.49746 0.0
H410 H 0.49299 0.73324 0.51354 0.0
H411 H 0.51183 0.69869 0.52651 0.0
H412 H 0.54679 0.71354 0.64087 0.0
H413 H 0.4971 0.7287 0.65262 0.0
H414 H 0.47652 0.75843 0.56056 0.0
C415 C 0.58428 0.71651 0.5327 0.0
C416 C 0.60822 0.69874 0.54511 0.0
C417 C 0.61046 0.69098 0.57591 0.0
C418 C 0.58912 0.70078 0.59433 0.0
C419 C 0.56552 0.71798 0.58145 0.0
C420 C 0.56273 0.72552 0.5513 0.0
C421 C 0.53352 0.74115 0.54253 0.0
C422 C 0.53817 0.77418 0.53189 0.0
C423 C 0.51498 0.72256 0.5186 0.0
C424 C 0.52016 0.74064 0.5723 0.0
C425 C 0.53931 0.72781 0.59456 0.0
C426 C 0.53168 0.7239 0.62373 0.0
C427 C 0.50347 0.73274 0.63022 0.0
C428 C 0.48307 0.74492 0.60756 0.0
C429 C 0.49174 0.74929 0.57833 0.0
H430 H 0.77428 0.04268 0.05173 0.0
H431 H 0.83058 0.07123 0.12973 0.0
H432 H 0.8292 0.0187 0.15057 0.0
H433 H 0.72986 0.98678 0.08856 0.0
H434 H 0.72923 0.9598 0.05814 0.0
H435 H 0.73199 0.00028 0.05073 0.0
H436 H 0.77954 0.99085 0.02458 0.0
H437 H 0.77686 0.95038 0.03181 0.0
H438 H 0.80989 0.97083 0.04453 0.0
H439 H 0.82218 0.9636 0.16261 0.0
H440 H 0.81518 0.90751 0.16258 0.0
H441 H 0.76702 0.91324 0.07476 0.0
C442 C 0.78592 0.03782 0.07338 0.0
C443 C 0.80222 0.06082 0.08945 0.0
C444 C 0.8179 0.05375 0.11729 0.0
C445 C 0.81709 0.02412 0.12931 0.0
C446 C 0.80093 0.00181 0.11291 0.0
C447 C 0.786 0.00812 0.08533 0.0
C448 C 0.77263 0.9793 0.07109 0.0
C449 C 0.73892 0.98169 0.06689 0.0
C450 C 0.78551 0.97244 0.04124 0.0
C451 C 0.78255 0.95581 0.09489 0.0
C452 C 0.7983 0.96947 0.11908 0.0
C453 C 0.80984 0.95263 0.14385 0.0
C454 C 0.80563 0.92086 0.14371 0.0
C455 C 0.79044 0.90624 0.11876 0.0
C456 C 0.77861 0.92397 0.09412 0.0
H457 H 0.40909 0.39075 0.63063 0.0
H458 H 0.35513 0.33549 0.68488 0.0
H459 H 0.38164 0.35635 0.73079 0.0
H460 H 0.47598 0.37993 0.67714 0.0
H461 H 0.48934 0.41815 0.67135 0.0
H462 H 0.46486 0.40027 0.64287 0.0
H463 H 0.42912 0.44639 0.64406 0.0
H464 H 0.45339 0.46428 0.6728 0.0
H465 H 0.41553 0.45733 0.67905 0.0
H466 H 0.41383 0.38326 0.77075 0.0
H467 H 0.45274 0.41023 0.80205 0.0
H468 H 0.48784 0.44523 0.72167 0.0
C469 C 0.40274 0.38318 0.65217 0.0
C470 C 0.37998 0.36157 0.65418 0.0
C471 C 0.3726 0.35191 0.68279 0.0
C472 C 0.38737 0.3638 0.709 0.0
C473 C 0.40963 0.38512 0.70623 0.0
C474 C 0.41755 0.39446 0.67857 0.0
C475 C 0.44343 0.41624 0.68183 0.0
C476 C 0.46997 0.40283 0.66745 0.0
C477 C 0.43484 0.44794 0.66865 0.0
C478 C 0.44897 0.41747 0.71565 0.0
C479 C 0.42895 0.39974 0.72929 0.0
C480 C 0.42977 0.39707 0.76033 0.0
C481 C 0.45209 0.41235 0.77792 0.0
C482 C 0.47363 0.42972 0.76444 0.0
C483 C 0.47159 0.43259 0.73283 0.0
H484 H 0.71147 0.53659 0.52312 0.0
H485 H 0.75183 0.57064 0.44575 0.0
H486 H 0.76168 0.51705 0.43062 0.0
H487 H 0.76202 0.46951 0.53796 0.0
H488 H 0.73266 0.44612 0.5498 0.0
H489 H 0.73243 0.48694 0.55592 0.0
H490 H 0.68052 0.49049 0.52747 0.0
H491 H 0.68065 0.44986 0.52107 0.0
H492 H 0.67476 0.47592 0.48978 0.0
H493 H 0.75932 0.45966 0.42035 0.0
H494 H 0.74769 0.40451 0.41707 0.0
H495 H 0.71345 0.40861 0.50432 0.0
C496 C 0.72301 0.53266 0.50337 0.0
C497 C 0.73097 0.55735 0.48549 0.0
C498 C 0.74586 0.55176 0.45974 0.0
C499 C 0.75149 0.52149 0.45107 0.0
C500 C 0.74273 0.49744 0.46892 0.0
C501 C 0.72933 0.50283 0.49489 0.0
C502 C 0.72054 0.47334 0.50941 0.0
C503 C 0.73796 0.46871 0.54009 0.0
C504 C 0.68715 0.47236 0.51206 0.0
C505 C 0.72967 0.45042 0.48681 0.0
C506 C 0.74261 0.4646 0.46369 0.0
C507 C 0.74996 0.44824 0.43875 0.0
C508 C 0.74339 0.41679 0.43717 0.0
C509 C 0.72963 0.40198 0.46045 0.0
C510 C 0.7237 0.41908 0.48595 0.0
H511 H 0.89326 0.20184 0.99699 0.0
H512 H 0.88472 0.27016 0.06586 0.0
H513 H 0.92797 0.2974 0.04969 0.0
H514 H 0.96755 0.19509 0.0059 0.0
H515 H 0.97317 0.19069 0.96684 0.0
H516 H 0.93874 0.17967 0.98011 0.0
H517 H 0.91083 0.21569 0.94121 0.0
H518 H 0.94524 0.22672 0.92753 0.0
H519 H 0.92083 0.2556 0.9399 0.0
H520 H 0.97726 0.31115 0.03266 0.0
H521 H 0.02627 0.31271 0.01299 0.0
H522 H 0.00118 0.23728 0.95358 0.0
C523 C 0.89997 0.22301 0.00814 0.0
C524 C 0.88562 0.23385 0.0327 0.0
C525 C 0.8952 0.26154 0.04682 0.0
C526 C 0.91979 0.27716 0.03781 0.0
C527 C 0.93413 0.26515 0.01426 0.0
C528 C 0.9242 0.23903 0.99921 0.0
C529 C 0.94475 0.22942 0.97625 0.0
C530 C 0.95676 0.1968 0.98269 0.0
C531 C 0.9295 0.23203 0.94433 0.0
C532 C 0.96859 0.2533 0.98176 0.0
C533 C 0.962 0.27388 0.00361 0.0
C534 C 0.98226 0.29579 0.01489 0.0
C535 C 0.01001 0.29648 0.00373 0.0
C536 C 0.01703 0.27557 0.98139 0.0
C537 C 0.99587 0.25415 0.96995 0.0
H538 H 0.3272 0.35067 0.4615 0.0
H539 H 0.24012 0.38605 0.47223 0.0
H540 H 0.23564 0.4034 0.41923 0.0
H541 H 0.35136 0.40886 0.42151 0.0
H542 H 0.3718 0.38646 0.39675 0.0
H543 H 0.3656 0.37166 0.43306 0.0
H544 H 0.34157 0.32298 0.40874 0.0
H545 H 0.34788 0.33754 0.37215 0.0
H546 H 0.31132 0.32675 0.38019 0.0
H547 H 0.24551 0.42626 0.36926 0.0
H548 H 0.26762 0.45022 0.32667 0.0
H549 H 0.34637 0.39546 0.34685 0.0
C550 C 0.30685 0.36126 0.45236 0.0
C551 C 0.28401 0.36714 0.47072 0.0
C552 C 0.25772 0.38115 0.45828 0.0
C553 C 0.25502 0.39102 0.42825 0.0
C554 C 0.27847 0.38583 0.41093 0.0
C555 C 0.30362 0.37061 0.42242 0.0
C556 C 0.32676 0.37024 0.40034 0.0
C557 C 0.35554 0.38521 0.41372 0.0
C558 C 0.33219 0.33742 0.38972 0.0
C559 C 0.31159 0.38948 0.37542 0.0
C560 C 0.28359 0.39793 0.38162 0.0
C561 C 0.26702 0.41901 0.36368 0.0
C562 C 0.27974 0.43244 0.3394 0.0
C563 C 0.3088 0.42479 0.33335 0.0
C564 C 0.32419 0.40197 0.3509 0.0
H565 H 0.09464 0.82774 0.91532 0.0
H566 H 0.15061 0.90658 0.93504 0.0
H567 H 0.12803 0.93281 0.88967 0.0
H568 H 0.09001 0.8328 0.83227 0.0
H569 H 0.05159 0.82278 0.82821 0.0
H570 H 0.07516 0.80807 0.85946 0.0
H571 H 0.04039 0.83072 0.89642 0.0
H572 H 0.01667 0.84524 0.86533 0.0
H573 H 0.03133 0.87096 0.89431 0.0
H574 H 0.09787 0.95162 0.84441 0.0
H575 H 0.05793 0.96474 0.80577 0.0
H576 H 0.0184 0.87558 0.8177 0.0
C577 C 0.10245 0.85024 0.90959 0.0
C578 C 0.12452 0.86512 0.92823 0.0
C579 C 0.13376 0.8949 0.92079 0.0
C580 C 0.12125 0.90982 0.895 0.0
C581 C 0.09929 0.89476 0.87714 0.0
C582 C 0.08965 0.86581 0.88425 0.0
C583 C 0.06325 0.85643 0.86337 0.0
C584 C 0.07045 0.82835 0.84472 0.0
C585 C 0.03633 0.85051 0.8809 0.0
C586 C 0.05918 0.88491 0.84393 0.0
C587 C 0.08068 0.90637 0.8518 0.0
C588 C 0.08093 0.93499 0.83797 0.0
C589 C 0.05804 0.94229 0.81618 0.0
C590 C 0.03487 0.92131 0.80882 0.0
C591 C 0.036 0.89194 0.82238 0.0
H592 H 0.84826 0.1187 0.96848 0.0
H593 H 0.75434 0.1364 0.95561 0.0
H594 H 0.75442 0.1217 0.90228 0.0
H595 H 0.86645 0.14569 0.89547 0.0
H596 H 0.89364 0.1161 0.89261 0.0
H597 H 0.88629 0.13042 0.92887 0.0
H598 H 0.87528 0.07517 0.94627 0.0
H599 H 0.88273 0.0607 0.9102 0.0
H600 H 0.84796 0.05267 0.92465 0.0
H601 H 0.76489 0.10183 0.85069 0.0
H602 H 0.78432 0.07744 0.80671 0.0
H603 H 0.87071 0.07215 0.8556 0.0
C604 C 0.82765 0.11986 0.95452 0.0
C605 C 0.80128 0.12875 0.96632 0.0
C606 C 0.77486 0.1297 0.94712 0.0
C607 C 0.77471 0.12149 0.91677 0.0
C608 C 0.80116 0.11257 0.90603 0.0
C609 C 0.82711 0.11177 0.92443 0.0
C610 C 0.85233 0.09978 0.90824 0.0
C611 C 0.87607 0.12448 0.90617 0.0
C612 C 0.86531 0.07034 0.92323 0.0
C613 C 0.83648 0.09329 0.8779 0.0
C614 C 0.80706 0.10109 0.8768 0.0
C615 C 0.78794 0.09585 0.85128 0.0
C616 C 0.79914 0.08184 0.82647 0.0
C617 C 0.82913 0.07304 0.82751 0.0
C618 C 0.84791 0.0793 0.85356 0.0
H619 H 0.42269 0.27394 0.57022 0.0
H620 H 0.37272 0.30466 0.48871 0.0
H621 H 0.41073 0.28353 0.45864 0.0
H622 H 0.49058 0.29655 0.54808 0.0
H623 H 0.5114 0.26519 0.56567 0.0
H624 H 0.47809 0.27769 0.58049 0.0
H625 H 0.45718 0.22259 0.5753 0.0
H626 H 0.4905 0.2099 0.56039 0.0
H627 H 0.45544 0.20373 0.53944 0.0
H628 H 0.45533 0.26322 0.43782 0.0
H629 H 0.50593 0.24998 0.42764 0.0
H630 H 0.52884 0.2348 0.52268 0.0
C631 C 0.41953 0.2754 0.546 0.0
C632 C 0.39474 0.29039 0.53159 0.0
C633 C 0.39158 0.29299 0.49999 0.0
C634 C 0.41292 0.2809 0.48277 0.0
C635 C 0.43741 0.26663 0.49758 0.0
C636 C 0.44102 0.26407 0.52849 0.0
C637 C 0.47109 0.25122 0.53892 0.0
C638 C 0.48883 0.27403 0.55949 0.0
C639 C 0.46838 0.22 0.55442 0.0
C640 C 0.48404 0.24778 0.50913 0.0
C641 C 0.46394 0.25607 0.48556 0.0
C642 C 0.47116 0.25627 0.45602 0.0
C643 C 0.49993 0.24854 0.45045 0.0
C644 C 0.52124 0.24115 0.47434 0.0
C645 C 0.51294 0.2402 0.50398 0.0
H646 H 0.16991 0.9531 0.00752 0.0
H647 H 0.26363 0.93386 0.0168 0.0
H648 H 0.27369 0.98928 0.01081 0.0
H649 H 0.17181 0.01163 0.95144 0.0
H650 H 0.14322 0.03392 0.96626 0.0
H651 H 0.14403 0.99293 0.97108 0.0
H652 H 0.14424 0.99983 0.02858 0.0
H653 H 0.14371 0.04084 0.02397 0.0
H654 H 0.1724 0.02289 0.04827 0.0
H655 H 0.27284 0.04771 0.00398 0.0
H656 H 0.2612 0.10279 0.99575 0.0
H657 H 0.16809 0.08178 0.99109 0.0
C658 C 0.19264 0.96034 0.00835 0.0
C659 C 0.216 0.93904 0.01278 0.0
C660 C 0.24535 0.94971 0.01342 0.0
C661 C 0.25126 0.98115 0.01011 0.0
C662 C 0.22759 0.00149 0.0061 0.0
C663 C 0.19888 0.99136 0.00507 0.0
C664 C 0.17718 0.01748 0.00027 0.0
C665 C 0.15794 0.01376 0.9705 0.0
C666 C 0.15828 0.02042 0.02687 0.0
C667 C 0.1981 0.04411 0.999 0.0
C668 C 0.2271 0.03458 0.00232 0.0
C669 C 0.2502 0.05535 0.00138 0.0
C670 C 0.24339 0.08655 0.99666 0.0
C671 C 0.21374 0.09663 0.99307 0.0
C672 C 0.19097 0.07498 0.99442 0.0
H673 H 0.61734 0.5946 0.42781 0.0
H674 H 0.62386 0.68952 0.39948 0.0
H675 H 0.59065 0.67862 0.35438 0.0
H676 H 0.61332 0.56107 0.35169 0.0
H677 H 0.58745 0.53214 0.36093 0.0
H678 H 0.61412 0.54662 0.38951 0.0
H679 H 0.57216 0.56106 0.42217 0.0
H680 H 0.54541 0.54672 0.39374 0.0
H681 H 0.54276 0.5856 0.40671 0.0
H682 H 0.55245 0.65908 0.3156 0.0
H683 H 0.51262 0.63212 0.28575 0.0
H684 H 0.53321 0.54909 0.33735 0.0
C685 C 0.61216 0.61303 0.41195 0.0
C686 C 0.62324 0.64293 0.41731 0.0
C687 C 0.61576 0.66638 0.39593 0.0
C688 C 0.59694 0.66042 0.37016 0.0
C689 C 0.58607 0.63083 0.36582 0.0
C690 C 0.5936 0.60744 0.38597 0.0
C691 C 0.57764 0.57808 0.37687 0.0
C692 C 0.59944 0.553 0.36929 0.0
C693 C 0.55835 0.56725 0.40132 0.0
C694 C 0.55914 0.58895 0.34909 0.0
C695 C 0.56452 0.61935 0.34294 0.0
C696 C 0.54847 0.63507 0.31977 0.0
C697 C 0.52597 0.61943 0.30278 0.0
C698 C 0.5197 0.58834 0.30898 0.0
C699 C 0.53716 0.57286 0.33204 0.0
H700 H 0.32249 0.45543 0.58855 0.0
H701 H 0.2305 0.43129 0.59081 0.0
H702 H 0.21913 0.48548 0.60197 0.0
H703 H 0.32626 0.51129 0.6479 0.0
H704 H 0.35086 0.53566 0.62935 0.0
H705 H 0.35131 0.49486 0.62346 0.0
H706 H 0.34233 0.50372 0.56608 0.0
H707 H 0.34159 0.54451 0.57177 0.0
H708 H 0.31089 0.52584 0.55128 0.0
H709 H 0.21844 0.54392 0.61164 0.0
H710 H 0.22851 0.5996 0.61814 0.0
H711 H 0.32069 0.58294 0.60796 0.0
C712 C 0.29989 0.46122 0.59161 0.0
C713 C 0.27739 0.43895 0.5888 0.0
C714 C 0.24816 0.44788 0.59293 0.0
C715 C 0.24151 0.47861 0.59925 0.0
C716 C 0.26432 0.50001 0.60135 0.0
C717 C 0.29292 0.49149 0.59769 0.0
C718 C 0.31355 0.51853 0.59996 0.0
C719 C 0.33686 0.51486 0.62676 0.0
C720 C 0.32792 0.52343 0.57052 0.0
C721 C 0.29214 0.54388 0.60516 0.0
C722 C 0.26385 0.53296 0.60617 0.0
C723 C 0.24053 0.55262 0.61085 0.0
C724 C 0.24642 0.58413 0.61453 0.0
C725 C 0.27529 0.59557 0.61311 0.0
C726 C 0.29828 0.575 0.60852 0.0
H727 H 0.07387 0.81958 0.04672 0.0
H728 H 0.11392 0.73253 0.02689 0.0
H729 H 0.07064 0.70528 0.04337 0.0
H730 H 0.03934 0.79481 0.11239 0.0
H731 H 0.007 0.8179 0.10312 0.0
H732 H 0.04197 0.83003 0.09163 0.0
H733 H 0.01948 0.83302 0.03643 0.0
H734 H 0.98449 0.82084 0.04771 0.0
H735 H 0.00163 0.79976 0.01942 0.0
H736 H 0.02181 0.68779 0.06159 0.0
H737 H 0.97113 0.68223 0.07704 0.0
H738 H 0.96384 0.78106 0.08264 0.0
C739 C 0.07381 0.79476 0.04613 0.0
C740 C 0.09739 0.7782 0.03567 0.0
C741 C 0.0961 0.74573 0.03485 0.0
C742 C 0.07167 0.73005 0.04425 0.0
C743 C 0.0487 0.74719 0.05424 0.0
C744 C 0.0496 0.77885 0.05509 0.0
C745 C 0.02165 0.79219 0.06527 0.0
C746 C 0.02787 0.80976 0.09486 0.0
C747 C 0.00589 0.81265 0.04074 0.0
C748 C 0.00465 0.76313 0.06973 0.0
C749 C 0.02062 0.73731 0.06367 0.0
C750 C 0.00912 0.70787 0.06635 0.0
C751 C 0.98045 0.70489 0.07515 0.0
C752 C 0.96366 0.73123 0.08063 0.0
C753 C 0.97612 0.76057 0.07814 0.0
H754 H 0.66422 0.61562 0.6036 0.0
H755 H 0.75909 0.62624 0.61206 0.0
H756 H 0.76027 0.61256 0.66603 0.0
H757 H 0.65119 0.64607 0.67627 0.0
H758 H 0.62204 0.61917 0.68102 0.0
H759 H 0.62912 0.63166 0.64398 0.0
H760 H 0.63516 0.57506 0.62796 0.0
H761 H 0.62804 0.56243 0.66485 0.0
H762 H 0.66139 0.55083 0.64934 0.0
H763 H 0.7503 0.59403 0.719 0.0
H764 H 0.73043 0.57335 0.76471 0.0
H765 H 0.64262 0.57518 0.71877 0.0
C766 C 0.68537 0.61522 0.61665 0.0
C767 C 0.71161 0.62179 0.60351 0.0
C768 C 0.73869 0.62128 0.62166 0.0
C769 C 0.73954 0.61356 0.6523 0.0
C770 C 0.71312 0.6068 0.66436 0.0
C771 C 0.68657 0.60778 0.64695 0.0
C772 C 0.66124 0.59865 0.66445 0.0
C773 C 0.63963 0.62549 0.66656 0.0
C774 C 0.64556 0.57004 0.65084 0.0
C775 C 0.67761 0.59169 0.69445 0.0
C776 C 0.70748 0.59664 0.69425 0.0
C777 C 0.72691 0.59036 0.7194 0.0
C778 C 0.71545 0.57849 0.7452 0.0
C779 C 0.68488 0.57299 0.74555 0.0
C780 C 0.66594 0.57994 0.71975 0.0
H781 H 0.90889 0.13412 0.13275 0.0
H782 H 0.85648 0.19702 0.18092 0.0
H783 H 0.88655 0.18407 0.22811 0.0
H784 H 0.9162 0.07637 0.18833 0.0
H785 H 0.95335 0.0666 0.18143 0.0
H786 H 0.92851 0.08195 0.15159 0.0
H787 H 0.96535 0.12564 0.14309 0.0
H788 H 0.99044 0.11026 0.17271 0.0
H789 H 0.97853 0.1496 0.17413 0.0
H790 H 0.92223 0.16236 0.27052 0.0
H791 H 0.96037 0.13499 0.3034 0.0
H792 H 0.98829 0.0874 0.2259 0.0
C793 C 0.9037 0.14544 0.1531 0.0
C794 C 0.88028 0.16663 0.15306 0.0
C795 C 0.8744 0.1808 0.18033 0.0
C796 C 0.8913 0.17353 0.20725 0.0
C797 C 0.91398 0.15215 0.20643 0.0
C798 C 0.9202 0.13849 0.17995 0.0
C799 C 0.94531 0.11595 0.18476 0.0
C800 C 0.93522 0.08329 0.17601 0.0
C801 C 0.97145 0.12598 0.16766 0.0
C802 C 0.95227 0.11882 0.21819 0.0
C803 C 0.93409 0.13978 0.23044 0.0
C804 C 0.93661 0.14598 0.26109 0.0
C805 C 0.95836 0.1304 0.27957 0.0
C806 C 0.97715 0.10885 0.26728 0.0
C807 C 0.97393 0.10322 0.23616 0.0
H808 H 0.26959 0.75679 0.07614 0.0
H809 H 0.2074 0.70594 0.01618 0.0
H810 H 0.22629 0.65752 0.03889 0.0
H811 H 0.32967 0.70277 0.0758 0.0
H812 H 0.34155 0.70819 0.11489 0.0
H813 H 0.32361 0.73901 0.09347 0.0
H814 H 0.28457 0.74289 0.13186 0.0
H815 H 0.30241 0.71214 0.15342 0.0
H816 H 0.26399 0.70925 0.14047 0.0
H817 H 0.25127 0.61451 0.06863 0.0
H818 H 0.28056 0.5801 0.1037 0.0
H819 H 0.3258 0.65898 0.14457 0.0
C820 C 0.26 0.73551 0.06764 0.0
C821 C 0.237 0.73531 0.04429 0.0
C822 C 0.22502 0.70684 0.03402 0.0
C823 C 0.23562 0.67913 0.04675 0.0
C824 C 0.25822 0.6802 0.06973 0.0
C825 C 0.27027 0.70762 0.08011 0.0
C826 C 0.29399 0.7024 0.10547 0.0
C827 C 0.32398 0.71376 0.09688 0.0
C828 C 0.28573 0.71757 0.13452 0.0
C829 C 0.29329 0.66779 0.10778 0.0
C830 C 0.27256 0.6554 0.08693 0.0
C831 C 0.2676 0.62393 0.08506 0.0
C832 C 0.28422 0.60459 0.10516 0.0
C833 C 0.30551 0.61682 0.12683 0.0
C834 C 0.31005 0.64886 0.12796 0.0
H835 H 0.77548 0.7307 0.57374 0.0
H836 H 0.7077 0.78518 0.52392 0.0
H837 H 0.72646 0.83145 0.55024 0.0
H838 H 0.77324 0.77089 0.64368 0.0
H839 H 0.81234 0.76837 0.6534 0.0
H840 H 0.79387 0.73926 0.63037 0.0
H841 H 0.82948 0.74889 0.58945 0.0
H842 H 0.84797 0.77814 0.6123 0.0
H843 H 0.83304 0.78706 0.57464 0.0
H844 H 0.75255 0.87191 0.58092 0.0
H845 H 0.78342 0.90409 0.61611 0.0
H846 H 0.83342 0.82364 0.64757 0.0
C847 C 0.7646 0.75235 0.56834 0.0
C848 C 0.74012 0.75421 0.54669 0.0
C849 C 0.72643 0.78303 0.54045 0.0
C850 C 0.73696 0.80953 0.55521 0.0
C851 C 0.76113 0.80691 0.57627 0.0
C852 C 0.77471 0.7791 0.58302 0.0
C853 C 0.80002 0.78271 0.60705 0.0
C854 C 0.79453 0.76421 0.6353 0.0
C855 C 0.82936 0.77367 0.59514 0.0
C856 C 0.7985 0.81689 0.61262 0.0
C857 C 0.77596 0.83036 0.59451 0.0
C858 C 0.77016 0.86164 0.59541 0.0
C859 C 0.78771 0.87969 0.6156 0.0
C860 C 0.81069 0.86639 0.6348 0.0
C861 C 0.8162 0.83456 0.63305 0.0
H862 H 0.75852 0.22088 0.16338 0.0
H863 H 0.72449 0.13079 0.13823 0.0
H864 H 0.70378 0.1263 0.1872 0.0
H865 H 0.78062 0.20337 0.23869 0.0
H866 H 0.77039 0.24013 0.25284 0.0
H867 H 0.78084 0.23698 0.21518 0.0
H868 H 0.73133 0.26149 0.19442 0.0
H869 H 0.72085 0.26506 0.23206 0.0
H870 H 0.6973 0.24497 0.20422 0.0
H871 H 0.68926 0.13083 0.24059 0.0
H872 H 0.68046 0.14495 0.2925 0.0
H873 H 0.72351 0.23231 0.28101 0.0
C874 C 0.74646 0.20028 0.1679 0.0
C875 C 0.74315 0.1762 0.14688 0.0
C876 C 0.7272 0.14965 0.15388 0.0
C877 C 0.71544 0.14684 0.18168 0.0
C878 C 0.71968 0.17083 0.20209 0.0
C879 C 0.73459 0.19714 0.19536 0.0
C880 C 0.73679 0.2194 0.22121 0.0
C881 C 0.76907 0.2253 0.23265 0.0
C882 C 0.72059 0.2495 0.21245 0.0
C883 C 0.72106 0.20141 0.24377 0.0
C884 C 0.71129 0.17346 0.23243 0.0
C885 C 0.69661 0.15278 0.24958 0.0
C886 C 0.69165 0.16103 0.279 0.0
C887 C 0.70139 0.18969 0.29093 0.0
C888 C 0.71622 0.21001 0.27286 0.0
H889 H 0.24232 0.34313 0.67088 0.0
H890 H 0.25387 0.24984 0.64093 0.0
H891 H 0.23032 0.23025 0.68452 0.0
H892 H 0.26145 0.3277 0.74668 0.0
H893 H 0.23547 0.35362 0.7612 0.0
H894 H 0.24887 0.36106 0.72532 0.0
H895 H 0.19542 0.3627 0.70052 0.0
H896 H 0.18181 0.35536 0.73642 0.0
H897 H 0.17135 0.33064 0.70511 0.0
H898 H 0.21089 0.22017 0.7326 0.0
H899 H 0.19715 0.21981 0.78452 0.0
H900 H 0.19866 0.31923 0.78571 0.0
C901 C 0.23908 0.31869 0.67327 0.0
C902 C 0.24951 0.29787 0.6526 0.0
C903 C 0.24584 0.266 0.65662 0.0
C904 C 0.23239 0.2547 0.68116 0.0
C905 C 0.22289 0.27561 0.70159 0.0
C906 C 0.22601 0.30692 0.69809 0.0
C907 C 0.21652 0.32395 0.72513 0.0
C908 C 0.24211 0.34268 0.74049 0.0
C909 C 0.18967 0.34437 0.71626 0.0
C910 C 0.20847 0.29723 0.74459 0.0
C911 C 0.21194 0.26965 0.73022 0.0
C912 C 0.20771 0.24158 0.74401 0.0
C913 C 0.2001 0.2416 0.7735 0.0
C914 C 0.19692 0.26946 0.78896 0.0
C915 C 0.20061 0.29767 0.77415 0.0
H916 H 0.76213 0.65006 0.41117 0.0
H917 H 0.75066 0.74586 0.43276 0.0
H918 H 0.77247 0.76104 0.38654 0.0
H919 H 0.83131 0.65886 0.37226 0.0
H920 H 0.81948 0.63114 0.34398 0.0
H921 H 0.80799 0.62749 0.3813 0.0
H922 H 0.75354 0.62675 0.35941 0.0
H923 H 0.7648 0.63054 0.32212 0.0
H924 H 0.73951 0.65787 0.33563 0.0
H925 H 0.78937 0.76619 0.33651 0.0
H926 H 0.79928 0.76121 0.28354 0.0
H927 H 0.79892 0.66221 0.29197 0.0
C928 C 0.76517 0.67416 0.40647 0.0
C929 C 0.75527 0.69692 0.42552 0.0
C930 C 0.75843 0.72824 0.4184 0.0
C931 C 0.7709 0.73704 0.39233 0.0
C932 C 0.77985 0.71418 0.37353 0.0
C933 C 0.77715 0.68336 0.38011 0.0
C934 C 0.78528 0.66366 0.35421 0.0
C935 C 0.81265 0.64413 0.3635 0.0
C936 C 0.75923 0.64353 0.34213 0.0
C937 C 0.79195 0.68826 0.33177 0.0
C938 C 0.78916 0.71719 0.34376 0.0
C939 C 0.79212 0.74372 0.32699 0.0
C940 C 0.79763 0.74069 0.29698 0.0
C941 C 0.80001 0.7114 0.28404 0.0
C942 C 0.79767 0.68481 0.3017 0.0
H943 H 0.76839 0.28394 0.0281 0.0
H944 H 0.7022 0.21273 0.01336 0.0
H945 H 0.67009 0.24869 0.98347 0.0
H946 H 0.71759 0.34706 0.03444 0.0
H947 H 0.73895 0.3739 0.01477 0.0
H948 H 0.75696 0.34281 0.03574 0.0
H949 H 0.78056 0.32507 0.98823 0.0
H950 H 0.7626 0.35607 0.9671 0.0
H951 H 0.75732 0.31713 0.95446 0.0
H952 H 0.6453 0.29114 0.95483 0.0
H953 H 0.62905 0.33838 0.92816 0.0
H954 H 0.71052 0.38313 0.96093 0.0
C955 C 0.74709 0.27596 0.01871 0.0
C956 C 0.7379 0.24543 0.02317 0.0
C957 C 0.70989 0.23591 0.01029 0.0
C958 C 0.69139 0.25618 0.99328 0.0
C959 C 0.70114 0.28595 0.98924 0.0
C960 C 0.72828 0.29592 0.00149 0.0
C961 C 0.7334 0.3291 0.99312 0.0
C962 C 0.73693 0.34942 0.02119 0.0
C963 C 0.76005 0.332 0.97463 0.0
C964 C 0.7049 0.33605 0.97422 0.0
C965 C 0.68666 0.31078 0.97245 0.0
C966 C 0.65926 0.3112 0.9562 0.0
C967 C 0.65015 0.33824 0.9413 0.0
C968 C 0.66833 0.3646 0.94276 0.0
C969 C 0.69616 0.36337 0.95939 0.0
H970 H 0.22786 0.26156 0.50881 0.0
H971 H 0.29816 0.2092 0.55708 0.0
H972 H 0.28012 0.16232 0.53119 0.0
H973 H 0.17203 0.20345 0.50941 0.0
H974 H 0.15601 0.21217 0.47209 0.0
H975 H 0.17421 0.2418 0.49465 0.0
H976 H 0.20845 0.25274 0.45277 0.0
H977 H 0.19031 0.22321 0.43005 0.0
H978 H 0.22959 0.22184 0.43883 0.0
H979 H 0.25443 0.12093 0.50044 0.0
H980 H 0.22324 0.08812 0.46593 0.0
H981 H 0.17077 0.16759 0.43652 0.0
C982 C 0.23942 0.24024 0.51403 0.0
C983 C 0.26442 0.23916 0.53506 0.0
C984 C 0.279 0.21075 0.54103 0.0
C985 C 0.2689 0.18391 0.52649 0.0
C986 C 0.24426 0.1858 0.50592 0.0
C987 C 0.22975 0.21321 0.49959 0.0
C988 C 0.20407 0.20899 0.47614 0.0
C989 C 0.17485 0.21708 0.48884 0.0
C990 C 0.20838 0.22781 0.44777 0.0
C991 C 0.2064 0.17492 0.47041 0.0
C992 C 0.22967 0.16197 0.48786 0.0
C993 C 0.23619 0.13082 0.48654 0.0
C994 C 0.21846 0.1124 0.46674 0.0
C995 C 0.19455 0.12521 0.44846 0.0
C996 C 0.18858 0.15694 0.45046 0.0
H997 H 0.22908 0.77954 0.91128 0.0
H998 H 0.27996 0.8573 0.94683 0.0
H999 H 0.30526 0.8596 0.90017 0.0
H1000 H 0.28741 0.74381 0.87434 0.0
H1001 H 0.26276 0.73087 0.84326 0.0
H1002 H 0.24962 0.73532 0.87971 0.0
H1003 H 0.20839 0.77157 0.85683 0.0
H1004 H 0.22157 0.76748 0.82037 0.0
H1005 H 0.21806 0.80508 0.83622 0.0
H1006 H 0.32295 0.85452 0.84781 0.0
H1007 H 0.33343 0.8408 0.79631 0.0
H1008 H 0.27206 0.76496 0.79754 0.0
C1009 C 0.24561 0.79705 0.90941 0.0
C1010 C 0.25246 0.81835 0.93265 0.0
C1011 C 0.27444 0.84068 0.92933 0.0
C1012 C 0.28882 0.84222 0.90289 0.0
C1013 C 0.28115 0.82107 0.88023 0.0
C1014 C 0.26026 0.79872 0.88347 0.0
C1015 C 0.25586 0.77858 0.85608 0.0
C1016 C 0.26444 0.74517 0.86382 0.0
C1017 C 0.22409 0.78083 0.84153 0.0
C1018 C 0.27727 0.79326 0.83662 0.0
C1019 C 0.29165 0.81778 0.85078 0.0
C1020 C 0.312 0.83517 0.83667 0.0
C1021 C 0.3179 0.82711 0.80745 0.0
C1022 C 0.30356 0.8018 0.7927 0.0
C1023 C 0.28307 0.78477 0.80776 0.0
loop_
_geom_bond_atom_site_label_1
_geom_bond_atom_site_label_2
_geom_bond_distance
_geom_bond_site_symmetry_2
_ccdc_geom_bond_type
Sc0 O3 2.025 . S
Sc0 O10 2.105 . S
Sc0 O13 2.105 . S
Sc0 O16 2.105 . S
Sc0 O19 2.105 1_554 S
Sc1 O3 2.025 1_556 S
Sc1 O11 2.105 . S
Sc1 O15 2.105 1_556 S
Sc1 O17 2.105 1_556 S
Sc1 O21 2.105 . S
Sc2 O3 2.025 . S
Sc2 O12 2.105 1_554 S
Sc2 O14 2.105 . S
Sc2 O18 2.105 . S
Sc2 O20 2.105 . S
O3 Sc0 2.025 . S
O3 Sc1 2.025 1_554 S
O3 Sc2 2.025 . S
C4 O10 1.268 1_556 S
C4 O20 1.268 1_556 S
C5 O11 1.268 . S
C5 O19 1.268 . S
C6 O12 1.268 . S
C6 O21 1.268 . S
C7 O13 1.268 . S
C7 O17 1.268 . S
C8 O14 1.268 . S
C8 O16 1.268 . S
C9 O15 1.268 . S
C9 O18 1.268 . S
O10 Sc0 2.105 . S
O10 C4 1.268 1_554 S
O11 Sc1 2.105 . S
O11 C5 1.268 . S
O12 Sc2 2.105 1_556 S
O12 C6 1.268 . S
O13 Sc0 2.105 . S
O13 C7 1.268 . S
O14 Sc2 2.105 . S
O14 C8 1.268 . S
O15 Sc1 2.105 1_554 S
O15 C9 1.268 . S
O16 Sc0 2.105 . S
O16 C8 1.268 . S
O17 Sc1 2.105 1_554 S
O17 C7 1.268 . S
O18 Sc2 2.105 . S
O18 C9 1.268 . S
O19 Sc0 2.105 1_556 S
O19 C5 1.268 . S
O20 Sc2 2.105 . S
O20 C4 1.268 1_554 S
O21 Sc1 2.105 . S
O21 C6 1.268 . S
Sc22 O25 2.025 . S
Sc22 O32 2.105 . S
Sc22 O35 2.105 . S
Sc22 O38 2.105 . S
Sc22 O41 2.105 . S
Sc23 O25 2.025 . S
Sc23 O33 2.105 . S
Sc23 O37 2.105 . S
Sc23 O39 2.105 . S
Sc23 O43 2.105 . S
Sc24 O25 2.025 . S
Sc24 O34 2.105 . S
Sc24 O36 2.105 . S
Sc24 O40 2.105 . S
Sc24 O42 2.105 . S
O25 Sc22 2.025 . S
O25 Sc23 2.025 . S
O25 Sc24 2.025 . S
C26 O32 1.268 . S
C26 O42 1.268 . S
C27 O33 1.268 . S
C27 O41 1.268 . S
C28 O34 1.268 . S
C28 O43 1.268 . S
C29 O35 1.268 . S
C29 O39 1.268 . S
C30 O36 1.268 . S
C30 O38 1.268 . S
C31 O37 1.268 . S
C31 O40 1.268 . S
O32 Sc22 2.105 . S
O32 C26 1.268 . S
O33 Sc23 2.105 . S
O33 C27 1.268 . S
O34 Sc24 2.105 . S
O34 C28 1.268 . S
O35 Sc22 2.105 . S
O35 C29 1.268 . S
O36 Sc24 2.105 . S
O36 C30 1.268 . S
O37 Sc23 2.105 . S
O37 C31 1.268 . S
O38 Sc22 2.105 . S
O38 C30 1.268 . S
O39 Sc23 2.105 . S
O39 C29 1.268 . S
O40 Sc24 2.105 . S
O40 C31 1.268 . S
O41 Sc22 2.105 . S
O41 C27 1.268 . S
O42 Sc24 2.105 . S
O42 C26 1.268 . S
O43 Sc23 2.105 . S
O43 C28 1.268 . S
Sc44 O47 2.025 . S
Sc44 O54 2.105 . S
Sc44 O57 2.105 . S
Sc44 O60 2.105 . S
Sc44 O63 2.105 . S
Sc45 O47 2.025 . S
Sc45 O55 2.105 . S
Sc45 O59 2.105 . S
Sc45 O61 2.105 . S
Sc45 O65 2.105 . S
Sc46 O47 2.025 . S
Sc46 O56 2.105 . S
Sc46 O58 2.105 . S
Sc46 O62 2.105 . S
Sc46 O64 2.105 . S
O47 Sc44 2.025 . S
O47 Sc45 2.025 . S
O47 Sc46 2.025 . S
C48 O54 1.268 . S
C48 O64 1.268 . S
C49 O55 1.268 . S
C49 O63 1.268 . S
C50 O56 1.274 . S
C50 O65 1.276 . S
C51 O57 1.268 . S
C51 O61 1.268 . S
C52 O58 1.268 . S
C52 O60 1.268 . S
C53 O59 1.268 . S
C53 O62 1.268 . S
O54 Sc44 2.105 . S
O54 C48 1.268 . S
O55 Sc45 2.105 . S
O55 C49 1.268 . S
O56 Sc46 2.105 . S
O56 C50 1.274 . S
O57 Sc44 2.105 . S
O57 C51 1.268 . S
O58 Sc46 2.105 . S
O58 C52 1.268 . S
O59 Sc45 2.105 . S
O59 C53 1.268 . S
O60 Sc44 2.105 . S
O60 C52 1.268 . S
O61 Sc45 2.105 . S
O61 C51 1.268 . S
O62 Sc46 2.105 . S
O62 C53 1.268 . S
O63 Sc44 2.105 . S
O63 C49 1.268 . S
O64 Sc46 2.105 . S
O64 C48 1.268 . S
O65 Sc45 2.105 . S
O65 C50 1.276 . S
Sc66 O69 2.025 . S
Sc66 O76 2.105 . S
Sc66 O79 2.105 . S
Sc66 O82 2.105 . S
Sc66 O85 2.105 . S
Sc67 O69 2.025 . S
Sc67 O77 2.105 . S
Sc67 O81 2.105 . S
Sc67 O83 2.105 . S
Sc67 O87 2.105 . S
Sc68 O69 2.025 . S
Sc68 O78 2.105 . S
Sc68 O80 2.105 . S
Sc68 O84 2.105 . S
Sc68 O86 2.105 . S
O69 Sc66 2.025 . S
O69 Sc67 2.025 . S
O69 Sc68 2.025 . S
C70 O76 1.268 . S
C70 O86 1.268 . S
C71 O77 1.268 . S
C71 O85 1.268 . S
C72 O78 1.268 . S
C72 O87 1.268 . S
C73 O79 1.268 . S
C73 O83 1.268 . S
C74 O80 1.268 . S
C74 O82 1.268 . S
C75 O81 1.268 . S
C75 O84 1.268 . S
O76 Sc66 2.105 . S
O76 C70 1.268 . S
O77 Sc67 2.105 . S
O77 C71 1.268 . S
O78 Sc68 2.105 . S
O78 C72 1.268 . S
O79 Sc66 2.105 . S
O79 C73 1.268 . S
O80 Sc68 2.105 . S
O80 C74 1.268 . S
O81 Sc67 2.105 . S
O81 C75 1.268 . S
O82 Sc66 2.105 . S
O82 C74 1.268 . S
O83 Sc67 2.105 . S
O83 C73 1.268 . S
O84 Sc68 2.105 . S
O84 C75 1.268 . S
O85 Sc66 2.105 . S
O85 C71 1.268 . S
O86 Sc68 2.105 . S
O86 C70 1.268 . S
O87 Sc67 2.105 . S
O87 C72 1.268 . S
C88 C89 1.384 . S
C88 H101 0.947 . S
C88 C123 1.382 . S
C89 C88 1.384 . S
C89 C90 1.378 . S
C90 C89 1.378 . S
C90 C91 1.378 . S
C90 H102 0.952 . S
C91 C90 1.378 . S
C91 H103 0.950 . S
C91 C122 1.383 . S
H92 C111 0.947 . S
H93 C112 0.946 . S
H94 C114 0.953 . S
H95 C115 0.945 . S
H96 C117 0.960 . S
H97 C118 0.949 . S
H98 C120 0.950 . S
H99 C121 0.947 . S
H100 C123 0.951 . S
H101 C88 0.947 . S
H102 C90 0.952 . S
H103 C91 0.950 . S
N104 C107 1.382 . S
N104 C109 1.363 . S
N105 C107 1.371 . S
N105 C108 1.372 . S
N106 C108 1.361 . S
N106 C109 1.377 . S
C107 N104 1.382 . S
C107 N105 1.371 . S
C107 C110 1.480 . S
C108 N105 1.372 . S
C108 N106 1.361 . S
C108 C116 1.457 . S
C109 N104 1.363 . S
C109 N106 1.377 . S
C109 C122 1.479 . S
C110 C107 1.480 . S
C110 C111 1.383 . S
C110 C115 1.385 . S
C111 H92 0.947 . S
C111 C110 1.383 . S
C111 C112 1.388 . S
C112 H93 0.946 . S
C112 C111 1.388 . S
C112 C113 1.384 . S
C113 C112 1.384 . S
C113 C114 1.377 . S
C114 H94 0.953 . S
C114 C113 1.377 . S
C114 C115 1.369 . S
C115 H95 0.945 . S
C115 C110 1.385 . S
C115 C114 1.369 . S
C116 C108 1.457 . S
C116 C117 1.379 . S
C116 C121 1.364 . S
C117 H96 0.960 . S
C117 C116 1.379 . S
C117 C118 1.373 1_545 S
C118 H97 0.949 . S
C118 C117 1.373 1_565 S
C118 C119 1.387 . S
C119 C118 1.387 . S
C119 C120 1.372 . S
C120 H98 0.950 . S
C120 C119 1.372 . S
C120 C121 1.380 1_565 S
C121 H99 0.947 . S
C121 C116 1.364 . S
C121 C120 1.380 1_545 S
C122 C91 1.383 . S
C122 C109 1.479 . S
C122 C123 1.398 . S
C123 C88 1.382 . S
C123 H100 0.951 . S
C123 C122 1.398 . S
C124 C125 1.384 . S
C124 H137 0.947 . S
C124 C159 1.382 . S
C125 C124 1.384 . S
C125 C126 1.378 . S
C126 C125 1.378 . S
C126 C127 1.378 . S
C126 H138 0.952 . S
C127 C126 1.378 . S
C127 H139 0.950 . S
C127 C158 1.383 . S
H128 C147 0.947 . S
H129 C148 0.946 . S
H130 C150 0.953 . S
H131 C151 0.945 . S
H132 C153 0.952 . S
H133 C154 0.949 . S
H134 C156 0.950 . S
H135 C157 0.948 . S
H136 C159 0.951 . S
H137 C124 0.947 . S
H138 C126 0.952 . S
H139 C127 0.950 . S
N140 C143 1.382 . S
N140 C145 1.363 . S
N141 C143 1.371 . S
N141 C144 1.372 . S
N142 C144 1.361 . S
N142 C145 1.377 . S
C143 N140 1.382 . S
C143 N141 1.371 . S
C143 C146 1.480 . S
C144 N141 1.372 . S
C144 N142 1.361 . S
C144 C152 1.457 . S
C145 N140 1.363 . S
C145 N142 1.377 . S
C145 C158 1.479 . S
C146 C143 1.480 . S
C146 C147 1.383 . S
C146 C151 1.385 . S
C147 H128 0.947 . S
C147 C146 1.383 . S
C147 C148 1.388 . S
C148 H129 0.946 . S
C148 C147 1.388 . S
C148 C149 1.384 . S
C149 C148 1.384 . S
C149 C150 1.377 . S
C150 H130 0.953 . S
C150 C149 1.377 . S
C150 C151 1.369 . S
C151 H131 0.945 . S
C151 C146 1.385 . S
C151 C150 1.369 . S
C152 C144 1.457 . S
C152 C153 1.372 . S
C152 C157 1.364 . S
C153 H132 0.952 . S
C153 C152 1.372 . S
C153 C154 1.389 . S
C154 H133 0.949 . S
C154 C153 1.389 . S
C154 C155 1.387 . S
C155 C154 1.387 . S
C155 C156 1.372 . S
C156 H134 0.950 . S
C156 C155 1.372 . S
C156 C157 1.379 . S
C157 H135 0.948 . S
C157 C152 1.364 . S
C157 C156 1.379 . S
C158 C127 1.383 . S
C158 C145 1.479 . S
C158 C159 1.398 . S
C159 C124 1.382 . S
C159 H136 0.951 . S
C159 C158 1.398 . S
C160 C161 1.384 . S
C160 H173 0.947 . S
C160 C195 1.382 . S
C161 C160 1.384 . S
C161 C162 1.378 . S
C162 C161 1.378 . S
C162 C163 1.378 . S
C162 H174 0.952 . S
C163 C162 1.378 . S
C163 H175 0.950 . S
C163 C194 1.383 . S
H164 C183 0.947 . S
H165 C184 0.946 . S
H166 C186 0.953 . S
H167 C187 0.945 . S
H168 C189 0.952 . S
H169 C190 0.949 . S
H170 C192 0.950 . S
H171 C193 0.948 . S
H172 C195 0.951 . S
H173 C160 0.947 . S
H174 C162 0.952 . S
H175 C163 0.950 . S
N176 C179 1.382 . S
N176 C181 1.363 . S
N177 C179 1.371 . S
N177 C180 1.372 . S
N178 C180 1.361 . S
N178 C181 1.377 . S
C179 N176 1.382 . S
C179 N177 1.371 . S
C179 C182 1.480 . S
C180 N177 1.372 . S
C180 N178 1.361 . S
C180 C188 1.457 . S
C181 N176 1.363 . S
C181 N178 1.377 . S
C181 C194 1.479 . S
C182 C179 1.480 . S
C182 C183 1.383 . S
C182 C187 1.385 . S
C183 H164 0.947 . S
C183 C182 1.383 . S
C183 C184 1.388 . S
C184 H165 0.946 . S
C184 C183 1.388 . S
C184 C185 1.384 . S
C185 C184 1.384 . S
C185 C186 1.377 . S
C186 H166 0.953 . S
C186 C185 1.377 . S
C186 C187 1.369 . S
C187 H167 0.945 . S
C187 C182 1.385 . S
C187 C186 1.369 . S
C188 C180 1.457 . S
C188 C189 1.372 . S
C188 C193 1.364 . S
C189 H168 0.952 . S
C189 C188 1.372 . S
C189 C190 1.389 . S
C190 H169 0.949 . S
C190 C189 1.389 . S
C190 C191 1.387 . S
C191 C190 1.387 . S
C191 C192 1.372 . S
C192 H170 0.950 . S
C192 C191 1.372 . S
C192 C193 1.379 . S
C193 H171 0.948 . S
C193 C188 1.364 . S
C193 C192 1.379 . S
C194 C163 1.383 . S
C194 C181 1.479 . S
C194 C195 1.398 . S
C195 C160 1.382 . S
C195 H172 0.951 . S
C195 C194 1.398 . S
C196 C197 1.384 . S
C196 H209 0.947 . S
C196 C231 1.382 . S
C197 C196 1.384 . S
C197 C198 1.378 . S
C198 C197 1.378 . S
C198 C199 1.378 . S
C198 H210 0.952 . S
C199 C198 1.378 . S
C199 H211 0.950 . S
C199 C230 1.383 . S
H200 C219 0.947 . S
H201 C220 0.946 . S
H202 C222 0.953 . S
H203 C223 0.945 . S
H204 C225 0.952 . S
H205 C226 0.949 . S
H206 C228 0.950 . S
H207 C229 0.948 . S
H208 C231 0.951 . S
H209 C196 0.947 . S
H210 C198 0.952 . S
H211 C199 0.950 . S
N212 C215 1.382 . S
N212 C217 1.363 . S
N213 C215 1.371 . S
N213 C216 1.372 . S
N214 C216 1.361 . S
N214 C217 1.377 . S
C215 N212 1.382 . S
C215 N213 1.371 . S
C215 C218 1.480 . S
C216 N213 1.372 . S
C216 N214 1.361 . S
C216 C224 1.457 . S
C217 N212 1.363 . S
C217 N214 1.377 . S
C217 C230 1.479 . S
C218 C215 1.480 . S
C218 C219 1.383 . S
C218 C223 1.385 . S
C219 H200 0.947 . S
C219 C218 1.383 . S
C219 C220 1.388 . S
C220 H201 0.946 . S
C220 C219 1.388 . S
C220 C221 1.384 . S
C221 C220 1.384 . S
C221 C222 1.377 . S
C222 H202 0.953 . S
C222 C221 1.377 . S
C222 C223 1.369 . S
C223 H203 0.945 . S
C223 C218 1.385 . S
C223 C222 1.369 . S
C224 C216 1.457 . S
C224 C225 1.372 . S
C224 C229 1.364 . S
C225 H204 0.952 . S
C225 C224 1.372 . S
C225 C226 1.389 . S
C226 H205 0.949 . S
C226 C225 1.389 . S
C226 C227 1.387 . S
C227 C226 1.387 . S
C227 C228 1.372 . S
C228 H206 0.950 . S
C228 C227 1.372 . S
C228 C229 1.379 . S
C229 H207 0.948 . S
C229 C224 1.364 . S
C229 C228 1.379 . S
C230 C199 1.383 . S
C230 C217 1.479 . S
C230 C231 1.398 . S
C231 C196 1.382 . S
C231 H208 0.951 . S
C231 C230 1.398 . S
C232 C233 1.384 . S
C232 H245 0.947 . S
C232 C267 1.382 . S
C233 C232 1.384 . S
C233 C234 1.378 . S
C234 C233 1.378 . S
C234 C235 1.378 . S
C234 H246 0.952 . S
C235 C234 1.378 . S
C235 H247 0.950 . S
C235 C266 1.383 . S
H236 C255 0.947 . S
H237 C256 0.946 . S
H238 C258 0.953 . S
H239 C259 0.945 . S
H240 C261 0.952 . S
H241 C262 0.949 . S
H242 C264 0.950 . S
H243 C265 0.948 . S
H244 C267 0.951 . S
H245 C232 0.947 . S
H246 C234 0.952 . S
H247 C235 0.950 . S
N248 C251 1.382 . S
N248 C253 1.363 . S
N249 C251 1.371 . S
N249 C252 1.372 . S
N250 C252 1.361 . S
N250 C253 1.377 . S
C251 N248 1.382 . S
C251 N249 1.371 . S
C251 C254 1.480 . S
C252 N249 1.372 . S
C252 N250 1.361 . S
C252 C260 1.457 . S
C253 N248 1.363 . S
C253 N250 1.377 . S
C253 C266 1.479 . S
C254 C251 1.480 . S
C254 C255 1.383 . S
C254 C259 1.385 . S
C255 H236 0.947 . S
C255 C254 1.383 . S
C255 C256 1.388 . S
C256 H237 0.946 . S
C256 C255 1.388 . S
C256 C257 1.384 . S
C257 C256 1.384 . S
C257 C258 1.377 . S
C258 H238 0.953 . S
C258 C257 1.377 . S
C258 C259 1.369 . S
C259 H239 0.945 . S
C259 C254 1.385 . S
C259 C258 1.369 . S
C260 C252 1.457 . S
C260 C261 1.372 . S
C260 C265 1.364 . S
C261 H240 0.952 . S
C261 C260 1.372 . S
C261 C262 1.389 . S
C262 H241 0.949 . S
C262 C261 1.389 . S
C262 C263 1.387 . S
C263 C262 1.387 . S
C263 C264 1.372 . S
C264 H242 0.950 . S
C264 C263 1.372 . S
C264 C265 1.379 . S
C265 H243 0.948 . S
C265 C260 1.364 . S
C265 C264 1.379 . S
C266 C235 1.383 . S
C266 C253 1.479 . S
C266 C267 1.398 . S
C267 C232 1.382 . S
C267 H244 0.951 . S
C267 C266 1.398 . S
C268 C269 1.384 . S
C268 H281 0.947 . S
C268 C303 1.382 . S
C269 C268 1.384 . S
C269 C270 1.378 . S
C270 C269 1.378 . S
C270 C271 1.378 . S
C270 H282 0.952 . S
C271 C270 1.378 . S
C271 H283 0.950 . S
C271 C302 1.383 . S
H272 C291 0.947 . S
H273 C292 0.946 . S
H274 C294 0.953 . S
H275 C295 0.945 . S
H276 C297 0.952 . S
H277 C298 0.949 . S
H278 C300 0.950 . S
H279 C301 0.948 . S
H280 C303 0.951 . S
H281 C268 0.947 . S
H282 C270 0.952 . S
H283 C271 0.950 . S
N284 C287 1.382 . S
N284 C289 1.363 . S
N285 C287 1.371 . S
N285 C288 1.372 . S
N286 C288 1.361 . S
N286 C289 1.377 . S
C287 N284 1.382 . S
C287 N285 1.371 . S
C287 C290 1.480 . S
C288 N285 1.372 . S
C288 N286 1.361 . S
C288 C296 1.457 . S
C289 N284 1.363 . S
C289 N286 1.377 . S
C289 C302 1.479 . S
C290 C287 1.480 . S
C290 C291 1.383 . S
C290 C295 1.385 . S
C291 H272 0.947 . S
C291 C290 1.383 . S
C291 C292 1.388 . S
C292 H273 0.946 . S
C292 C291 1.388 . S
C292 C293 1.384 . S
C293 C292 1.384 . S
C293 C294 1.377 . S
C294 H274 0.953 . S
C294 C293 1.377 . S
C294 C295 1.369 . S
C295 H275 0.945 . S
C295 C290 1.385 . S
C295 C294 1.369 . S
C296 C288 1.457 . S
C296 C297 1.372 . S
C296 C301 1.364 . S
C297 H276 0.952 . S
C297 C296 1.372 . S
C297 C298 1.389 . S
C298 H277 0.949 . S
C298 C297 1.389 . S
C298 C299 1.387 . S
C299 C298 1.387 . S
C299 C300 1.372 . S
C300 H278 0.950 . S
C300 C299 1.372 . S
C300 C301 1.379 . S
C301 H279 0.948 . S
C301 C296 1.364 . S
C301 C300 1.379 . S
C302 C271 1.383 . S
C302 C289 1.479 . S
C302 C303 1.398 . S
C303 C268 1.382 . S
C303 H280 0.951 . S
C303 C302 1.398 . S
C304 C305 1.384 . S
C304 H317 0.947 . S
C304 C339 1.382 . S
C305 C304 1.384 . S
C305 C306 1.378 . S
C306 C305 1.378 . S
C306 C307 1.378 . S
C306 H318 0.952 . S
C307 C306 1.378 . S
C307 H319 0.950 . S
C307 C338 1.383 . S
H308 C327 0.947 . S
H309 C328 0.946 . S
H310 C330 0.953 . S
H311 C331 0.945 . S
H312 C333 0.952 . S
H313 C334 0.949 . S
H314 C336 0.950 . S
H315 C337 0.948 . S
H316 C339 0.951 . S
H317 C304 0.947 . S
H318 C306 0.952 . S
H319 C307 0.950 . S
N320 C323 1.382 . S
N320 C325 1.363 . S
N321 C323 1.371 . S
N321 C324 1.372 . S
N322 C324 1.361 . S
N322 C325 1.377 . S
C323 N320 1.382 . S
C323 N321 1.371 . S
C323 C326 1.480 . S
C324 N321 1.372 . S
C324 N322 1.361 . S
C324 C332 1.457 . S
C325 N320 1.363 . S
C325 N322 1.377 . S
C325 C338 1.479 . S
C326 C323 1.480 . S
C326 C327 1.383 . S
C326 C331 1.385 . S
C327 H308 0.947 . S
C327 C326 1.383 . S
C327 C328 1.388 . S
C328 H309 0.946 . S
C328 C327 1.388 . S
C328 C329 1.384 . S
C329 C328 1.384 . S
C329 C330 1.377 . S
C330 H310 0.953 . S
C330 C329 1.377 . S
C330 C331 1.369 . S
C331 H311 0.945 . S
C331 C326 1.385 . S
C331 C330 1.369 . S
C332 C324 1.457 . S
C332 C333 1.372 . S
C332 C337 1.364 . S
C333 H312 0.952 . S
C333 C332 1.372 . S
C333 C334 1.389 . S
C334 H313 0.949 . S
C334 C333 1.389 . S
C334 C335 1.387 . S
C335 C334 1.387 . S
C335 C336 1.372 . S
C336 H314 0.950 . S
C336 C335 1.372 . S
C336 C337 1.379 . S
C337 H315 0.948 . S
C337 C332 1.364 . S
C337 C336 1.379 . S
C338 C307 1.383 . S
C338 C325 1.479 . S
C338 C339 1.398 . S
C339 C304 1.382 . S
C339 H316 0.951 . S
C339 C338 1.398 . S
C340 C341 1.384 . S
C340 H353 0.947 . S
C340 C375 1.382 . S
C341 C340 1.384 . S
C341 C342 1.378 . S
C342 C341 1.378 . S
C342 C343 1.378 1_545 S
C342 H354 0.952 . S
C343 C342 1.378 1_565 S
C343 H355 0.950 . S
C343 C374 1.383 . S
H344 C363 0.947 . S
H345 C364 0.946 . S
H346 C366 0.953 . S
H347 C367 0.945 . S
H348 C369 0.952 . S
H349 C370 0.949 . S
H350 C372 0.950 . S
H351 C373 0.948 . S
H352 C375 0.959 . S
H353 C340 0.947 . S
H354 C342 0.952 . S
H355 C343 0.950 . S
N356 C359 1.382 . S
N356 C361 1.363 . S
N357 C359 1.371 . S
N357 C360 1.372 . S
N358 C360 1.361 . S
N358 C361 1.377 . S
C359 N356 1.382 . S
C359 N357 1.371 . S
C359 C362 1.480 . S
C360 N357 1.372 . S
C360 N358 1.361 . S
C360 C368 1.457 . S
C361 N356 1.363 . S
C361 N358 1.377 . S
C361 C374 1.479 . S
C362 C359 1.480 . S
C362 C363 1.383 . S
C362 C367 1.385 . S
C363 H344 0.947 . S
C363 C362 1.383 . S
C363 C364 1.388 . S
C364 H345 0.946 . S
C364 C363 1.388 . S
C364 C365 1.384 . S
C365 C364 1.384 . S
C365 C366 1.377 . S
C366 H346 0.953 . S
C366 C365 1.377 . S
C366 C367 1.369 . S
C367 H347 0.945 . S
C367 C362 1.385 . S
C367 C366 1.369 . S
C368 C360 1.457 . S
C368 C369 1.372 . S
C368 C373 1.364 . S
C369 H348 0.952 . S
C369 C368 1.372 . S
C369 C370 1.389 . S
C370 H349 0.949 . S
C370 C369 1.389 . S
C370 C371 1.387 . S
C371 C370 1.387 . S
C371 C372 1.372 . S
C372 H350 0.950 . S
C372 C371 1.372 . S
C372 C373 1.379 . S
C373 H351 0.948 . S
C373 C368 1.364 . S
C373 C372 1.379 . S
C374 C343 1.383 . S
C374 C361 1.479 . S
C374 C375 1.398 1_565 S
C375 C340 1.382 . S
C375 H352 0.959 . S
C375 C374 1.398 1_545 S
H376 C388 0.930 . S
H377 C390 0.930 . S
H378 C391 0.930 . S
H379 C395 0.959 . S
H380 C395 0.959 . S
H381 C395 0.961 . S
H382 C396 0.960 . S
H383 C396 0.961 . S
H384 C396 0.959 . S
H385 C399 0.929 . S
H386 C400 0.931 . S
H387 C402 0.930 . S
C388 H376 0.930 . S
C388 C389 1.399 . S
C388 C393 1.399 . S
C389 C388 1.399 . S
C389 C390 1.376 . S
C390 H377 0.930 . S
C390 C389 1.376 . S
C390 C391 1.388 . S
C391 H378 0.930 . S
C391 C390 1.388 . S
C391 C392 1.390 . S
C392 C391 1.390 . S
C392 C393 1.394 . S
C392 C398 1.465 . S
C393 C388 1.399 . S
C393 C392 1.394 . S
C393 C394 1.516 . S
C394 C393 1.516 . S
C394 C395 1.502 . S
C394 C396 1.561 . S
C394 C397 1.526 . S
C395 H379 0.959 . S
C395 H380 0.959 . S
C395 H381 0.961 . S
C395 C394 1.502 . S
C396 H382 0.960 . S
C396 H383 0.961 . S
C396 H384 0.959 . S
C396 C394 1.561 . S
C397 C394 1.526 . S
C397 C398 1.396 . S
C397 C402 1.390 . S
C398 C392 1.465 . S
C398 C397 1.396 . S
C398 C399 1.399 . S
C399 H385 0.929 . S
C399 C398 1.399 . S
C399 C400 1.385 . S
C400 H386 0.931 . S
C400 C399 1.385 . S
C400 C401 1.389 . S
C401 C400 1.389 . S
C401 C402 1.387 . S
C402 H387 0.930 . S
C402 C397 1.390 . S
C402 C401 1.387 . S
H403 C415 0.930 . S
H404 C417 0.930 . S
H405 C418 0.930 . S
H406 C422 0.959 . S
H407 C422 0.959 . S
H408 C422 0.961 . S
H409 C423 0.960 . S
H410 C423 0.961 . S
H411 C423 0.959 . S
H412 C426 0.929 . S
H413 C427 0.931 . S
H414 C429 0.930 . S
C415 H403 0.930 . S
C415 C416 1.399 . S
C415 C420 1.399 . S
C416 C415 1.399 . S
C416 C417 1.376 . S
C417 H404 0.930 . S
C417 C416 1.376 . S
C417 C418 1.388 . S
C418 H405 0.930 . S
C418 C417 1.388 . S
C418 C419 1.390 . S
C419 C418 1.390 . S
C419 C420 1.394 . S
C419 C425 1.465 . S
C420 C415 1.399 . S
C420 C419 1.394 . S
C420 C421 1.516 . S
C421 C420 1.516 . S
C421 C422 1.502 . S
C421 C423 1.561 . S
C421 C424 1.526 . S
C422 H406 0.959 . S
C422 H407 0.959 . S
C422 H408 0.961 . S
C422 C421 1.502 . S
C423 H409 0.960 . S
C423 H410 0.961 . S
C423 H411 0.959 . S
C423 C421 1.561 . S
C424 C421 1.526 . S
C424 C425 1.396 . S
C424 C429 1.390 . S
C425 C419 1.465 . S
C425 C424 1.396 . S
C425 C426 1.399 . S
C426 H412 0.929 . S
C426 C425 1.399 . S
C426 C427 1.385 . S
C427 H413 0.931 . S
C427 C426 1.385 . S
C427 C428 1.389 . S
C428 C427 1.389 . S
C428 C429 1.387 . S
C429 H414 0.930 . S
C429 C424 1.390 . S
C429 C428 1.387 . S
H430 C442 0.930 . S
H431 C444 0.930 . S
H432 C445 0.930 1_565 S
H433 C449 0.959 . S
H434 C449 0.959 . S
H435 C449 0.961 1_545 S
H436 C450 0.960 . S
H437 C450 0.961 . S
H438 C450 0.959 . S
H439 C453 0.929 . S
H440 C454 0.931 . S
H441 C456 0.930 . S
C442 H430 0.930 . S
C442 C443 1.399 . S
C442 C447 1.399 . S
C443 C442 1.399 . S
C443 C444 1.376 . S
C444 H431 0.930 . S
C444 C443 1.376 . S
C444 C445 1.388 . S
C445 H432 0.930 1_545 S
C445 C444 1.388 . S
C445 C446 1.390 1_545 S
C446 C445 1.390 1_565 S
C446 C447 1.394 1_565 S
C446 C452 1.465 . S
C447 C442 1.399 . S
C447 C446 1.394 1_545 S
C447 C448 1.516 1_545 S
C448 C447 1.516 1_565 S
C448 C449 1.502 . S
C448 C450 1.561 . S
C448 C451 1.526 . S
C449 H433 0.959 . S
C449 H434 0.959 . S
C449 H435 0.961 1_565 S
C449 C448 1.502 . S
C450 H436 0.960 . S
C450 H437 0.961 . S
C450 H438 0.959 . S
C450 C448 1.561 . S
C451 C448 1.526 . S
C451 C452 1.396 . S
C451 C456 1.390 . S
C452 C446 1.465 . S
C452 C451 1.396 . S
C452 C453 1.399 . S
C453 H439 0.929 . S
C453 C452 1.399 . S
C453 C454 1.385 . S
C454 H440 0.931 . S
C454 C453 1.385 . S
C454 C455 1.389 . S
C455 C454 1.389 . S
C455 C456 1.387 . S
C456 H441 0.930 . S
C456 C451 1.390 . S
C456 C455 1.387 . S
H457 C469 0.930 . S
H458 C471 0.930 . S
H459 C472 0.930 . S
H460 C476 0.959 . S
H461 C476 0.959 . S
H462 C476 0.961 . S
H463 C477 0.960 . S
H464 C477 0.961 . S
H465 C477 0.959 . S
H466 C480 0.929 . S
H467 C481 0.931 . S
H468 C483 0.930 . S
C469 H457 0.930 . S
C469 C470 1.399 . S
C469 C474 1.399 . S
C470 C469 1.399 . S
C470 C471 1.376 . S
C471 H458 0.930 . S
C471 C470 1.376 . S
C471 C472 1.388 . S
C472 H459 0.930 . S
C472 C471 1.388 . S
C472 C473 1.390 . S
C473 C472 1.390 . S
C473 C474 1.394 . S
C473 C479 1.465 . S
C474 C469 1.399 . S
C474 C473 1.394 . S
C474 C475 1.516 . S
C475 C474 1.516 . S
C475 C476 1.502 . S
C475 C477 1.561 . S
C475 C478 1.526 . S
C476 H460 0.959 . S
C476 H461 0.959 . S
C476 H462 0.961 . S
C476 C475 1.502 . S
C477 H463 0.960 . S
C477 H464 0.961 . S
C477 H465 0.959 . S
C477 C475 1.561 . S
C478 C475 1.526 . S
C478 C479 1.396 . S
C478 C483 1.390 . S
C479 C473 1.465 . S
C479 C478 1.396 . S
C479 C480 1.399 . S
C480 H466 0.929 . S
C480 C479 1.399 . S
C480 C481 1.385 . S
C481 H467 0.931 . S
C481 C480 1.385 . S
C481 C482 1.389 . S
C482 C481 1.389 . S
C482 C483 1.387 . S
C483 H468 0.930 . S
C483 C478 1.390 . S
C483 C482 1.387 . S
H484 C496 0.930 . S
H485 C498 0.930 . S
H486 C499 0.930 . S
H487 C503 0.959 . S
H488 C503 0.959 . S
H489 C503 0.961 . S
H490 C504 0.960 . S
H491 C504 0.961 . S
H492 C504 0.959 . S
H493 C507 0.929 . S
H494 C508 0.931 . S
H495 C510 0.930 . S
C496 H484 0.930 . S
C496 C497 1.399 . S
C496 C501 1.399 . S
C497 C496 1.399 . S
C497 C498 1.376 . S
C498 H485 0.930 . S
C498 C497 1.376 . S
C498 C499 1.388 . S
C499 H486 0.930 . S
C499 C498 1.388 . S
C499 C500 1.390 . S
C500 C499 1.390 . S
C500 C501 1.394 . S
C500 C506 1.465 . S
C501 C496 1.399 . S
C501 C500 1.394 . S
C501 C502 1.516 . S
C502 C501 1.516 . S
C502 C503 1.502 . S
C502 C504 1.561 . S
C502 C505 1.526 . S
C503 H487 0.959 . S
C503 H488 0.959 . S
C503 H489 0.961 . S
C503 C502 1.502 . S
C504 H490 0.960 . S
C504 H491 0.961 . S
C504 H492 0.959 . S
C504 C502 1.561 . S
C505 C502 1.526 . S
C505 C506 1.396 . S
C505 C510 1.390 . S
C506 C500 1.465 . S
C506 C505 1.396 . S
C506 C507 1.399 . S
C507 H493 0.929 . S
C507 C506 1.399 . S
C507 C508 1.385 . S
C508 H494 0.931 . S
C508 C507 1.385 . S
C508 C509 1.389 . S
C509 C508 1.389 . S
C509 C510 1.387 . S
C510 H495 0.930 . S
C510 C505 1.390 . S
C510 C509 1.387 . S
H511 C523 0.930 . S
H512 C525 0.930 . S
H513 C526 0.930 . S
H514 C530 0.926 1_454 S
H515 C530 0.982 1_455 S
H516 C530 0.952 1_554 S
H517 C531 0.960 . S
H518 C531 0.961 . S
H519 C531 0.959 . S
H520 C534 0.929 . S
H521 C535 0.929 1_455 S
H522 C537 0.930 . S
C523 H511 0.930 . S
C523 C524 1.399 . S
C523 C528 1.399 1_554 S
C524 C523 1.399 . S
C524 C525 1.376 . S
C525 H512 0.930 . S
C525 C524 1.376 . S
C525 C526 1.388 . S
C526 H513 0.930 . S
C526 C525 1.388 . S
C526 C527 1.390 1_554 S
C527 C526 1.390 1_556 S
C527 C528 1.394 . S
C527 C533 1.465 . S
C528 C523 1.399 1_556 S
C528 C527 1.394 . S
C528 C529 1.516 . S
C529 C528 1.516 . S
C529 C530 1.522 . S
C529 C531 1.561 . S
C529 C532 1.526 . S
C530 H514 0.926 1_656 S
C530 H515 0.982 1_655 S
C530 H516 0.952 1_556 S
C530 C529 1.522 . S
C531 H517 0.960 . S
C531 H518 0.961 . S
C531 H519 0.959 . S
C531 C529 1.561 . S
C532 C529 1.526 . S
C532 C533 1.396 . S
C532 C537 1.390 1_655 S
C533 C527 1.465 . S
C533 C532 1.396 . S
C533 C534 1.399 . S
C534 H520 0.929 . S
C534 C533 1.399 . S
C534 C535 1.395 . S
C535 H521 0.929 1_655 S
C535 C534 1.395 . S
C535 C536 1.382 1_655 S
C536 C535 1.382 1_455 S
C536 C537 1.387 . S
C537 H522 0.930 . S
C537 C532 1.390 1_455 S
C537 C536 1.387 . S
H538 C550 0.930 . S
H539 C552 0.930 . S
H540 C553 0.930 . S
H541 C557 0.959 . S
H542 C557 0.959 . S
H543 C557 0.961 . S
H544 C558 0.960 . S
H545 C558 0.961 . S
H546 C558 0.959 . S
H547 C561 0.929 . S
H548 C562 0.931 . S
H549 C564 0.930 . S
C550 H538 0.930 . S
C550 C551 1.399 . S
C550 C555 1.399 . S
C551 C550 1.399 . S
C551 C552 1.376 . S
C552 H539 0.930 . S
C552 C551 1.376 . S
C552 C553 1.388 . S
C553 H540 0.930 . S
C553 C552 1.388 . S
C553 C554 1.390 . S
C554 C553 1.390 . S
C554 C555 1.394 . S
C554 C560 1.465 . S
C555 C550 1.399 . S
C555 C554 1.394 . S
C555 C556 1.516 . S
C556 C555 1.516 . S
C556 C557 1.502 . S
C556 C558 1.561 . S
C556 C559 1.526 . S
C557 H541 0.959 . S
C557 H542 0.959 . S
C557 H543 0.961 . S
C557 C556 1.502 . S
C558 H544 0.960 . S
C558 H545 0.961 . S
C558 H546 0.959 . S
C558 C556 1.561 . S
C559 C556 1.526 . S
C559 C560 1.396 . S
C559 C564 1.390 . S
C560 C554 1.465 . S
C560 C559 1.396 . S
C560 C561 1.399 . S
C561 H547 0.929 . S
C561 C560 1.399 . S
C561 C562 1.385 . S
C562 H548 0.931 . S
C562 C561 1.385 . S
C562 C563 1.389 . S
C563 C562 1.389 . S
C563 C564 1.387 . S
C564 H549 0.930 . S
C564 C559 1.390 . S
C564 C563 1.387 . S
H565 C577 0.930 . S
H566 C579 0.930 . S
H567 C580 0.930 . S
H568 C584 0.959 . S
H569 C584 0.959 . S
H570 C584 0.961 . S
H571 C585 0.960 . S
H572 C585 0.961 . S
H573 C585 0.959 . S
H574 C588 0.929 . S
H575 C589 0.931 . S
H576 C591 0.930 . S
C577 H565 0.930 . S
C577 C578 1.399 . S
C577 C582 1.399 . S
C578 C577 1.399 . S
C578 C579 1.376 . S
C579 H566 0.930 . S
C579 C578 1.376 . S
C579 C580 1.388 . S
C580 H567 0.930 . S
C580 C579 1.388 . S
C580 C581 1.390 . S
C581 C580 1.390 . S
C581 C582 1.394 . S
C581 C587 1.465 . S
C582 C577 1.399 . S
C582 C581 1.394 . S
C582 C583 1.516 . S
C583 C582 1.516 . S
C583 C584 1.502 . S
C583 C585 1.561 . S
C583 C586 1.526 . S
C584 H568 0.959 . S
C584 H569 0.959 . S
C584 H570 0.961 . S
C584 C583 1.502 . S
C585 H571 0.960 . S
C585 H572 0.961 . S
C585 H573 0.959 . S
C585 C583 1.561 . S
C586 C583 1.526 . S
C586 C587 1.396 . S
C586 C591 1.390 . S
C587 C581 1.465 . S
C587 C586 1.396 . S
C587 C588 1.399 . S
C588 H574 0.929 . S
C588 C587 1.399 . S
C588 C589 1.385 . S
C589 H575 0.931 . S
C589 C588 1.385 . S
C589 C590 1.389 . S
C590 C589 1.389 . S
C590 C591 1.387 . S
C591 H576 0.930 . S
C591 C586 1.390 . S
C591 C590 1.387 . S
H592 C604 0.930 . S
H593 C606 0.930 . S
H594 C607 0.930 . S
H595 C611 0.959 . S
H596 C611 0.959 . S
H597 C611 0.961 . S
H598 C612 0.960 . S
H599 C612 0.961 . S
H600 C612 0.959 . S
H601 C615 0.929 . S
H602 C616 0.931 . S
H603 C618 0.930 . S
C604 H592 0.930 . S
C604 C605 1.399 . S
C604 C609 1.399 . S
C605 C604 1.399 . S
C605 C606 1.376 . S
C606 H593 0.930 . S
C606 C605 1.376 . S
C606 C607 1.388 . S
C607 H594 0.930 . S
C607 C606 1.388 . S
C607 C608 1.390 . S
C608 C607 1.390 . S
C608 C609 1.394 . S
C608 C614 1.465 . S
C609 C604 1.399 . S
C609 C608 1.394 . S
C609 C610 1.516 . S
C610 C609 1.516 . S
C610 C611 1.502 . S
C610 C612 1.561 . S
C610 C613 1.526 . S
C611 H595 0.959 . S
C611 H596 0.959 . S
C611 H597 0.961 . S
C611 C610 1.502 . S
C612 H598 0.960 . S
C612 H599 0.961 . S
C612 H600 0.959 . S
C612 C610 1.561 . S
C613 C610 1.526 . S
C613 C614 1.396 . S
C613 C618 1.390 . S
C614 C608 1.465 . S
C614 C613 1.396 . S
C614 C615 1.399 . S
C615 H601 0.929 . S
C615 C614 1.399 . S
C615 C616 1.385 . S
C616 H602 0.931 . S
C616 C615 1.385 . S
C616 C617 1.389 . S
C617 C616 1.389 . S
C617 C618 1.387 . S
C618 H603 0.930 . S
C618 C613 1.390 . S
C618 C617 1.387 . S
H619 C631 0.930 . S
H620 C633 0.930 . S
H621 C634 0.930 . S
H622 C638 0.959 . S
H623 C638 0.959 . S
H624 C638 0.961 . S
H625 C639 0.960 . S
H626 C639 0.961 . S
H627 C639 0.959 . S
H628 C642 0.929 . S
H629 C643 0.931 . S
H630 C645 0.930 . S
C631 H619 0.930 . S
C631 C632 1.399 . S
C631 C636 1.399 . S
C632 C631 1.399 . S
C632 C633 1.376 . S
C633 H620 0.930 . S
C633 C632 1.376 . S
C633 C634 1.388 . S
C634 H621 0.930 . S
C634 C633 1.388 . S
C634 C635 1.390 . S
C635 C634 1.390 . S
C635 C636 1.394 . S
C635 C641 1.465 . S
C636 C631 1.399 . S
C636 C635 1.394 . S
C636 C637 1.516 . S
C637 C636 1.516 . S
C637 C638 1.502 . S
C637 C639 1.561 . S
C637 C640 1.526 . S
C638 H622 0.959 . S
C638 H623 0.959 . S
C638 H624 0.961 . S
C638 C637 1.502 . S
C639 H625 0.960 . S
C639 H626 0.961 . S
C639 H627 0.959 . S
C639 C637 1.561 . S
C640 C637 1.526 . S
C640 C641 1.396 . S
C640 C645 1.390 . S
C641 C635 1.465 . S
C641 C640 1.396 . S
C641 C642 1.399 . S
C642 H628 0.929 . S
C642 C641 1.399 . S
C642 C643 1.385 . S
C643 H629 0.931 . S
C643 C642 1.385 . S
C643 C644 1.389 . S
C644 C643 1.389 . S
C644 C645 1.387 . S
C645 H630 0.930 . S
C645 C640 1.390 . S
C645 C644 1.387 . S
H646 C658 0.930 . S
H647 C660 0.930 . S
H648 C661 0.930 1_545 S
H649 C665 0.959 . S
H650 C665 0.959 . S
H651 C665 0.961 1_565 S
H652 C666 0.960 1_565 S
H653 C666 0.961 . S
H654 C666 0.959 . S
H655 C669 0.929 1_554 S
H656 C670 0.931 . S
H657 C672 0.930 . S
C658 H646 0.930 . S
C658 C659 1.399 . S
C658 C663 1.399 . S
C659 C658 1.399 . S
C659 C660 1.376 1_556 S
C660 H647 0.930 . S
C660 C659 1.376 1_554 S
C660 C661 1.388 . S
C661 H648 0.930 1_565 S
C661 C660 1.388 . S
C661 C662 1.390 1_564 S
C662 C661 1.390 1_546 S
C662 C663 1.394 1_545 S
C662 C668 1.465 . S
C663 C658 1.399 . S
C663 C662 1.394 1_565 S
C663 C664 1.516 1_565 S
C664 C663 1.516 1_545 S
C664 C665 1.502 . S
C664 C666 1.561 . S
C664 C667 1.526 . S
C665 H649 0.959 . S
C665 H650 0.959 . S
C665 H651 0.961 1_545 S
C665 C664 1.502 . S
C666 H652 0.960 1_545 S
C666 H653 0.961 . S
C666 H654 0.959 . S
C666 C664 1.561 . S
C667 C664 1.526 . S
C667 C668 1.396 . S
C667 C672 1.390 . S
C668 C662 1.465 . S
C668 C667 1.396 . S
C668 C669 1.399 . S
C669 H655 0.929 1_556 S
C669 C668 1.399 . S
C669 C670 1.385 . S
C670 H656 0.931 . S
C670 C669 1.385 . S
C670 C671 1.389 . S
C671 C670 1.389 . S
C671 C672 1.387 . S
C672 H657 0.930 . S
C672 C667 1.390 . S
C672 C671 1.387 . S
H673 C685 0.930 . S
H674 C687 0.930 . S
H675 C688 0.930 . S
H676 C692 0.959 . S
H677 C692 0.959 . S
H678 C692 0.961 . S
H679 C693 0.960 . S
H680 C693 0.961 . S
H681 C693 0.959 . S
H682 C696 0.929 . S
H683 C697 0.931 . S
H684 C699 0.930 . S
C685 H673 0.930 . S
C685 C686 1.399 . S
C685 C690 1.399 . S
C686 C685 1.399 . S
C686 C687 1.376 . S
C687 H674 0.930 . S
C687 C686 1.376 . S
C687 C688 1.388 . S
C688 H675 0.930 . S
C688 C687 1.388 . S
C688 C689 1.390 . S
C689 C688 1.390 . S
C689 C690 1.394 . S
C689 C695 1.465 . S
C690 C685 1.399 . S
C690 C689 1.394 . S
C690 C691 1.516 . S
C691 C690 1.516 . S
C691 C692 1.502 . S
C691 C693 1.561 . S
C691 C694 1.526 . S
C692 H676 0.959 . S
C692 H677 0.959 . S
C692 H678 0.961 . S
C692 C691 1.502 . S
C693 H679 0.960 . S
C693 H680 0.961 . S
C693 H681 0.959 . S
C693 C691 1.561 . S
C694 C691 1.526 . S
C694 C695 1.396 . S
C694 C699 1.390 . S
C695 C689 1.465 . S
C695 C694 1.396 . S
C695 C696 1.399 . S
C696 H682 0.929 . S
C696 C695 1.399 . S
C696 C697 1.385 . S
C697 H683 0.931 . S
C697 C696 1.385 . S
C697 C698 1.389 . S
C698 C697 1.389 . S
C698 C699 1.387 . S
C699 H684 0.930 . S
C699 C694 1.390 . S
C699 C698 1.387 . S
H700 C712 0.930 . S
H701 C714 0.930 . S
H702 C715 0.930 . S
H703 C719 0.959 . S
H704 C719 0.959 . S
H705 C719 0.961 . S
H706 C720 0.960 . S
H707 C720 0.961 . S
H708 C720 0.959 . S
H709 C723 0.929 . S
H710 C724 0.931 . S
H711 C726 0.930 . S
C712 H700 0.930 . S
C712 C713 1.399 . S
C712 C717 1.399 . S
C713 C712 1.399 . S
C713 C714 1.376 . S
C714 H701 0.930 . S
C714 C713 1.376 . S
C714 C715 1.388 . S
C715 H702 0.930 . S
C715 C714 1.388 . S
C715 C716 1.390 . S
C716 C715 1.390 . S
C716 C717 1.394 . S
C716 C722 1.465 . S
C717 C712 1.399 . S
C717 C716 1.394 . S
C717 C718 1.516 . S
C718 C717 1.516 . S
C718 C719 1.502 . S
C718 C720 1.561 . S
C718 C721 1.526 . S
C719 H703 0.959 . S
C719 H704 0.959 . S
C719 H705 0.961 . S
C719 C718 1.502 . S
C720 H706 0.960 . S
C720 H707 0.961 . S
C720 H708 0.959 . S
C720 C718 1.561 . S
C721 C718 1.526 . S
C721 C722 1.396 . S
C721 C726 1.390 . S
C722 C716 1.465 . S
C722 C721 1.396 . S
C722 C723 1.399 . S
C723 H709 0.929 . S
C723 C722 1.399 . S
C723 C724 1.385 . S
C724 H710 0.931 . S
C724 C723 1.385 . S
C724 C725 1.389 . S
C725 C724 1.389 . S
C725 C726 1.387 . S
C726 H711 0.930 . S
C726 C721 1.390 . S
C726 C725 1.387 . S
H727 C739 0.930 . S
H728 C741 0.930 . S
H729 C742 0.930 . S
H730 C746 0.959 . S
H731 C746 0.959 1_655 S
H732 C746 0.961 . S
H733 C747 0.960 1_455 S
H734 C747 0.961 . S
H735 C747 0.959 . S
H736 C750 0.929 . S
H737 C751 0.931 1_655 S
H738 C753 0.930 . S
C739 H727 0.930 . S
C739 C740 1.399 . S
C739 C744 1.399 . S
C740 C739 1.399 . S
C740 C741 1.376 . S
C741 H728 0.930 . S
C741 C740 1.376 . S
C741 C742 1.388 . S
C742 H729 0.930 . S
C742 C741 1.388 . S
C742 C743 1.390 . S
C743 C742 1.390 . S
C743 C744 1.394 . S
C743 C749 1.465 . S
C744 C739 1.399 . S
C744 C743 1.394 . S
C744 C745 1.516 . S
C745 C744 1.516 . S
C745 C746 1.502 . S
C745 C747 1.561 1_455 S
C745 C748 1.526 . S
C746 H730 0.959 . S
C746 H731 0.959 1_455 S
C746 H732 0.961 . S
C746 C745 1.502 . S
C747 H733 0.960 1_655 S
C747 H734 0.961 . S
C747 H735 0.959 . S
C747 C745 1.561 1_655 S
C748 C745 1.526 . S
C748 C749 1.396 . S
C748 C753 1.390 1_455 S
C749 C743 1.465 . S
C749 C748 1.396 . S
C749 C750 1.399 . S
C750 H736 0.929 . S
C750 C749 1.399 . S
C750 C751 1.385 . S
C751 H737 0.931 1_455 S
C751 C750 1.385 . S
C751 C752 1.389 1_455 S
C752 C751 1.389 1_655 S
C752 C753 1.387 . S
C753 H738 0.930 . S
C753 C748 1.390 1_655 S
C753 C752 1.387 . S
H754 C766 0.930 . S
H755 C768 0.930 . S
H756 C769 0.930 . S
H757 C773 0.959 . S
H758 C773 0.959 . S
H759 C773 0.961 . S
H760 C774 0.960 . S
H761 C774 0.961 . S
H762 C774 0.959 . S
H763 C777 0.929 . S
H764 C778 0.931 . S
H765 C780 0.930 . S
C766 H754 0.930 . S
C766 C767 1.399 . S
C766 C771 1.399 . S
C767 C766 1.399 . S
C767 C768 1.376 . S
C768 H755 0.930 . S
C768 C767 1.376 . S
C768 C769 1.388 . S
C769 H756 0.930 . S
C769 C768 1.388 . S
C769 C770 1.390 . S
C770 C769 1.390 . S
C770 C771 1.394 . S
C770 C776 1.465 . S
C771 C766 1.399 . S
C771 C770 1.394 . S
C771 C772 1.516 . S
C772 C771 1.516 . S
C772 C773 1.502 . S
C772 C774 1.561 . S
C772 C775 1.526 . S
C773 H757 0.959 . S
C773 H758 0.959 . S
C773 H759 0.961 . S
C773 C772 1.502 . S
C774 H760 0.960 . S
C774 H761 0.961 . S
C774 H762 0.959 . S
C774 C772 1.561 . S
C775 C772 1.526 . S
C775 C776 1.396 . S
C775 C780 1.390 . S
C776 C770 1.465 . S
C776 C775 1.396 . S
C776 C777 1.399 . S
C777 H763 0.929 . S
C777 C776 1.399 . S
C777 C778 1.385 . S
C778 H764 0.931 . S
C778 C777 1.385 . S
C778 C779 1.389 . S
C779 C778 1.389 . S
C779 C780 1.387 . S
C780 H765 0.930 . S
C780 C775 1.390 . S
C780 C779 1.387 . S
H781 C793 0.930 . S
H782 C795 0.930 . S
H783 C796 0.930 . S
H784 C800 0.959 . S
H785 C800 0.959 . S
H786 C800 0.961 . S
H787 C801 0.960 . S
H788 C801 0.961 . S
H789 C801 0.959 . S
H790 C804 0.929 . S
H791 C805 0.931 . S
H792 C807 0.930 . S
C793 H781 0.930 . S
C793 C794 1.399 . S
C793 C798 1.399 . S
C794 C793 1.399 . S
C794 C795 1.376 . S
C795 H782 0.930 . S
C795 C794 1.376 . S
C795 C796 1.388 . S
C796 H783 0.930 . S
C796 C795 1.388 . S
C796 C797 1.390 . S
C797 C796 1.390 . S
C797 C798 1.394 . S
C797 C803 1.465 . S
C798 C793 1.399 . S
C798 C797 1.394 . S
C798 C799 1.516 . S
C799 C798 1.516 . S
C799 C800 1.502 . S
C799 C801 1.561 . S
C799 C802 1.526 . S
C800 H784 0.959 . S
C800 H785 0.959 . S
C800 H786 0.961 . S
C800 C799 1.502 . S
C801 H787 0.960 . S
C801 H788 0.961 . S
C801 H789 0.959 . S
C801 C799 1.561 . S
C802 C799 1.526 . S
C802 C803 1.396 . S
C802 C807 1.390 . S
C803 C797 1.465 . S
C803 C802 1.396 . S
C803 C804 1.399 . S
C804 H790 0.929 . S
C804 C803 1.399 . S
C804 C805 1.385 . S
C805 H791 0.931 . S
C805 C804 1.385 . S
C805 C806 1.389 . S
C806 C805 1.389 . S
C806 C807 1.387 . S
C807 H792 0.930 . S
C807 C802 1.390 . S
C807 C806 1.387 . S
H808 C820 0.930 . S
H809 C822 0.930 . S
H810 C823 0.930 . S
H811 C827 0.959 . S
H812 C827 0.959 . S
H813 C827 0.961 . S
H814 C828 0.960 . S
H815 C828 0.961 . S
H816 C828 0.959 . S
H817 C831 0.929 . S
H818 C832 0.931 . S
H819 C834 0.930 . S
C820 H808 0.930 . S
C820 C821 1.399 . S
C820 C825 1.399 . S
C821 C820 1.399 . S
C821 C822 1.376 . S
C822 H809 0.930 . S
C822 C821 1.376 . S
C822 C823 1.388 . S
C823 H810 0.930 . S
C823 C822 1.388 . S
C823 C824 1.390 . S
C824 C823 1.390 . S
C824 C825 1.394 . S
C824 C830 1.465 . S
C825 C820 1.399 . S
C825 C824 1.394 . S
C825 C826 1.516 . S
C826 C825 1.516 . S
C826 C827 1.502 . S
C826 C828 1.561 . S
C826 C829 1.526 . S
C827 H811 0.959 . S
C827 H812 0.959 . S
C827 H813 0.961 . S
C827 C826 1.502 . S
C828 H814 0.960 . S
C828 H815 0.961 . S
C828 H816 0.959 . S
C828 C826 1.561 . S
C829 C826 1.526 . S
C829 C830 1.396 . S
C829 C834 1.390 . S
C830 C824 1.465 . S
C830 C829 1.396 . S
C830 C831 1.399 . S
C831 H817 0.929 . S
C831 C830 1.399 . S
C831 C832 1.385 . S
C832 H818 0.931 . S
C832 C831 1.385 . S
C832 C833 1.389 . S
C833 C832 1.389 . S
C833 C834 1.387 . S
C834 H819 0.930 . S
C834 C829 1.390 . S
C834 C833 1.387 . S
H835 C847 0.930 . S
H836 C849 0.930 . S
H837 C850 0.930 . S
H838 C854 0.959 . S
H839 C854 0.959 . S
H840 C854 0.961 . S
H841 C855 0.960 . S
H842 C855 0.961 . S
H843 C855 0.959 . S
H844 C858 0.929 . S
H845 C859 0.931 . S
H846 C861 0.930 . S
C847 H835 0.930 . S
C847 C848 1.399 . S
C847 C852 1.399 . S
C848 C847 1.399 . S
C848 C849 1.376 . S
C849 H836 0.930 . S
C849 C848 1.376 . S
C849 C850 1.388 . S
C850 H837 0.930 . S
C850 C849 1.388 . S
C850 C851 1.390 . S
C851 C850 1.390 . S
C851 C852 1.394 . S
C851 C857 1.465 . S
C852 C847 1.399 . S
C852 C851 1.394 . S
C852 C853 1.516 . S
C853 C852 1.516 . S
C853 C854 1.502 . S
C853 C855 1.561 . S
C853 C856 1.526 . S
C854 H838 0.959 . S
C854 H839 0.959 . S
C854 H840 0.961 . S
C854 C853 1.502 . S
C855 H841 0.960 . S
C855 H842 0.961 . S
C855 H843 0.959 . S
C855 C853 1.561 . S
C856 C853 1.526 . S
C856 C857 1.396 . S
C856 C861 1.390 . S
C857 C851 1.465 . S
C857 C856 1.396 . S
C857 C858 1.399 . S
C858 H844 0.929 . S
C858 C857 1.399 . S
C858 C859 1.385 . S
C859 H845 0.931 . S
C859 C858 1.385 . S
C859 C860 1.389 . S
C860 C859 1.389 . S
C860 C861 1.387 . S
C861 H846 0.930 . S
C861 C856 1.390 . S
C861 C860 1.387 . S
H862 C874 0.930 . S
H863 C876 0.930 . S
H864 C877 0.930 . S
H865 C881 0.959 . S
H866 C881 0.959 . S
H867 C881 0.961 . S
H868 C882 0.960 . S
H869 C882 0.961 . S
H870 C882 0.959 . S
H871 C885 0.929 . S
H872 C886 0.931 . S
H873 C888 0.930 . S
C874 H862 0.930 . S
C874 C875 1.399 . S
C874 C879 1.399 . S
C875 C874 1.399 . S
C875 C876 1.376 . S
C876 H863 0.930 . S
C876 C875 1.376 . S
C876 C877 1.388 . S
C877 H864 0.930 . S
C877 C876 1.388 . S
C877 C878 1.390 . S
C878 C877 1.390 . S
C878 C879 1.394 . S
C878 C884 1.465 . S
C879 C874 1.399 . S
C879 C878 1.394 . S
C879 C880 1.516 . S
C880 C879 1.516 . S
C880 C881 1.502 . S
C880 C882 1.561 . S
C880 C883 1.526 . S
C881 H865 0.959 . S
C881 H866 0.959 . S
C881 H867 0.961 . S
C881 C880 1.502 . S
C882 H868 0.960 . S
C882 H869 0.961 . S
C882 H870 0.959 . S
C882 C880 1.561 . S
C883 C880 1.526 . S
C883 C884 1.396 . S
C883 C888 1.390 . S
C884 C878 1.465 . S
C884 C883 1.396 . S
C884 C885 1.399 . S
C885 H871 0.929 . S
C885 C884 1.399 . S
C885 C886 1.385 . S
C886 H872 0.931 . S
C886 C885 1.385 . S
C886 C887 1.389 . S
C887 C886 1.389 . S
C887 C888 1.387 . S
C888 H873 0.930 . S
C888 C883 1.390 . S
C888 C887 1.387 . S
H889 C901 0.930 . S
H890 C903 0.930 . S
H891 C904 0.930 . S
H892 C908 0.959 . S
H893 C908 0.959 . S
H894 C908 0.961 . S
H895 C909 0.960 . S
H896 C909 0.961 . S
H897 C909 0.959 . S
H898 C912 0.929 . S
H899 C913 0.931 . S
H900 C915 0.930 . S
C901 H889 0.930 . S
C901 C902 1.399 . S
C901 C906 1.399 . S
C902 C901 1.399 . S
C902 C903 1.376 . S
C903 H890 0.930 . S
C903 C902 1.376 . S
C903 C904 1.388 . S
C904 H891 0.930 . S
C904 C903 1.388 . S
C904 C905 1.390 . S
C905 C904 1.390 . S
C905 C906 1.394 . S
C905 C911 1.465 . S
C906 C901 1.399 . S
C906 C905 1.394 . S
C906 C907 1.516 . S
C907 C906 1.516 . S
C907 C908 1.502 . S
C907 C909 1.561 . S
C907 C910 1.526 . S
C908 H892 0.959 . S
C908 H893 0.959 . S
C908 H894 0.961 . S
C908 C907 1.502 . S
C909 H895 0.960 . S
C909 H896 0.961 . S
C909 H897 0.959 . S
C909 C907 1.561 . S
C910 C907 1.526 . S
C910 C911 1.396 . S
C910 C915 1.390 . S
C911 C905 1.465 . S
C911 C910 1.396 . S
C911 C912 1.399 . S
C912 H898 0.929 . S
C912 C911 1.399 . S
C912 C913 1.385 . S
C913 H899 0.931 . S
C913 C912 1.385 . S
C913 C914 1.389 . S
C914 C913 1.389 . S
C914 C915 1.387 . S
C915 H900 0.930 . S
C915 C910 1.390 . S
C915 C914 1.387 . S
H916 C928 0.930 . S
H917 C930 0.930 . S
H918 C931 0.930 . S
H919 C935 0.959 . S
H920 C935 0.959 . S
H921 C935 0.961 . S
H922 C936 0.960 . S
H923 C936 0.961 . S
H924 C936 0.959 . S
H925 C939 0.929 . S
H926 C940 0.931 . S
H927 C942 0.930 . S
C928 H916 0.930 . S
C928 C929 1.399 . S
C928 C933 1.399 . S
C929 C928 1.399 . S
C929 C930 1.376 . S
C930 H917 0.930 . S
C930 C929 1.376 . S
C930 C931 1.388 . S
C931 H918 0.930 . S
C931 C930 1.388 . S
C931 C932 1.390 . S
C932 C931 1.390 . S
C932 C933 1.394 . S
C932 C938 1.465 . S
C933 C928 1.399 . S
C933 C932 1.394 . S
C933 C934 1.516 . S
C934 C933 1.516 . S
C934 C935 1.502 . S
C934 C936 1.561 . S
C934 C937 1.526 . S
C935 H919 0.959 . S
C935 H920 0.959 . S
C935 H921 0.961 . S
C935 C934 1.502 . S
C936 H922 0.960 . S
C936 H923 0.961 . S
C936 H924 0.959 . S
C936 C934 1.561 . S
C937 C934 1.526 . S
C937 C938 1.396 . S
C937 C942 1.390 . S
C938 C932 1.465 . S
C938 C937 1.396 . S
C938 C939 1.399 . S
C939 H925 0.929 . S
C939 C938 1.399 . S
C939 C940 1.385 . S
C940 H926 0.931 . S
C940 C939 1.385 . S
C940 C941 1.389 . S
C941 C940 1.389 . S
C941 C942 1.387 . S
C942 H927 0.930 . S
C942 C937 1.390 . S
C942 C941 1.387 . S
H943 C955 0.930 . S
H944 C957 0.930 . S
H945 C958 0.930 . S
H946 C962 0.959 . S
H947 C962 0.959 . S
H948 C962 0.961 . S
H949 C963 0.960 . S
H950 C963 0.961 . S
H951 C963 0.959 . S
H952 C966 0.929 . S
H953 C967 0.931 . S
H954 C969 0.930 . S
C955 H943 0.930 . S
C955 C956 1.399 . S
C955 C960 1.399 . S
C956 C955 1.399 . S
C956 C957 1.376 1_554 S
C957 H944 0.930 . S
C957 C956 1.376 1_556 S
C957 C958 1.388 . S
C958 H945 0.930 . S
C958 C957 1.388 . S
C958 C959 1.390 . S
C959 C958 1.390 . S
C959 C960 1.394 1_556 S
C959 C965 1.465 . S
C960 C955 1.399 . S
C960 C959 1.394 1_554 S
C960 C961 1.516 . S
C961 C960 1.516 . S
C961 C962 1.502 . S
C961 C963 1.561 . S
C961 C964 1.526 1_554 S
C962 H946 0.959 . S
C962 H947 0.959 . S
C962 H948 0.961 . S
C962 C961 1.502 . S
C963 H949 0.960 . S
C963 H950 0.961 . S
C963 H951 0.959 . S
C963 C961 1.561 . S
C964 C961 1.526 1_556 S
C964 C965 1.396 . S
C964 C969 1.390 . S
C965 C959 1.465 . S
C965 C964 1.396 . S
C965 C966 1.399 . S
C966 H952 0.929 . S
C966 C965 1.399 . S
C966 C967 1.385 . S
C967 H953 0.931 . S
C967 C966 1.385 . S
C967 C968 1.389 . S
C968 C967 1.389 . S
C968 C969 1.387 . S
C969 H954 0.930 . S
C969 C964 1.390 . S
C969 C968 1.387 . S
H970 C982 0.930 . S
H971 C984 0.930 . S
H972 C985 0.930 . S
H973 C989 0.959 . S
H974 C989 0.959 . S
H975 C989 0.961 . S
H976 C990 0.960 . S
H977 C990 0.961 . S
H978 C990 0.959 . S
H979 C993 0.929 . S
H980 C994 0.931 . S
H981 C996 0.930 . S
C982 H970 0.930 . S
C982 C983 1.399 . S
C982 C987 1.399 . S
C983 C982 1.399 . S
C983 C984 1.376 . S
C984 H971 0.930 . S
C984 C983 1.376 . S
C984 C985 1.388 . S
C985 H972 0.930 . S
C985 C984 1.388 . S
C985 C986 1.390 . S
C986 C985 1.390 . S
C986 C987 1.394 . S
C986 C992 1.465 . S
C987 C982 1.399 . S
C987 C986 1.394 . S
C987 C988 1.516 . S
C988 C987 1.516 . S
C988 C989 1.502 . S
C988 C990 1.561 . S
C988 C991 1.526 . S
C989 H973 0.959 . S
C989 H974 0.959 . S
C989 H975 0.961 . S
C989 C988 1.502 . S
C990 H976 0.960 . S
C990 H977 0.961 . S
C990 H978 0.959 . S
C990 C988 1.561 . S
C991 C988 1.526 . S
C991 C992 1.396 . S
C991 C996 1.390 . S
C992 C986 1.465 . S
C992 C991 1.396 . S
C992 C993 1.399 . S
C993 H979 0.929 . S
C993 C992 1.399 . S
C993 C994 1.385 . S
C994 H980 0.931 . S
C994 C993 1.385 . S
C994 C995 1.389 . S
C995 C994 1.389 . S
C995 C996 1.387 . S
C996 H981 0.930 . S
C996 C991 1.390 . S
C996 C995 1.387 . S
H997 C1009 0.930 . S
H998 C1011 0.930 . S
H999 C1012 0.930 . S
H1000 C1016 0.959 . S
H1001 C1016 0.959 . S
H1002 C1016 0.961 . S
H1003 C1017 0.960 . S
H1004 C1017 0.961 . S
H1005 C1017 0.959 . S
H1006 C1020 0.929 . S
H1007 C1021 0.931 . S
H1008 C1023 0.930 . S
C1009 H997 0.930 . S
C1009 C1010 1.399 . S
C1009 C1014 1.399 . S
C1010 C1009 1.399 . S
C1010 C1011 1.376 . S
C1011 H998 0.930 . S
C1011 C1010 1.376 . S
C1011 C1012 1.388 . S
C1012 H999 0.930 . S
C1012 C1011 1.388 . S
C1012 C1013 1.390 . S
C1013 C1012 1.390 . S
C1013 C1014 1.394 . S
C1013 C1019 1.465 . S
C1014 C1009 1.399 . S
C1014 C1013 1.394 . S
C1014 C1015 1.516 . S
C1015 C1014 1.516 . S
C1015 C1016 1.502 . S
C1015 C1017 1.561 . S
C1015 C1018 1.526 . S
C1016 H1000 0.959 . S
C1016 H1001 0.959 . S
C1016 H1002 0.961 . S
C1016 C1015 1.502 . S
C1017 H1003 0.960 . S
C1017 H1004 0.961 . S
C1017 H1005 0.959 . S
C1017 C1015 1.561 . S
C1018 C1015 1.526 . S
C1018 C1019 1.396 . S
C1018 C1023 1.390 . S
C1019 C1013 1.465 . S
C1019 C1018 1.396 . S
C1019 C1020 1.399 . S
C1020 H1006 0.929 . S
C1020 C1019 1.399 . S
C1020 C1021 1.385 . S
C1021 H1007 0.931 . S
C1021 C1020 1.385 . S
C1021 C1022 1.389 . S
C1022 C1021 1.389 . S
C1022 C1023 1.387 . S
C1023 H1008 0.930 . S
C1023 C1018 1.390 . S
C1023 C1022 1.387 . S
C389 C8 1.515 . S
C401 C119 1.332 . S
C416 C31 1.818 . S
C428 C155 1.693 . S
C443 C53 1.410 . S
C455 C191 1.385 . S
C482 C221 1.519 . S
C470 C74 1.597 . S
C509 C263 1.444 . S
C497 C26 1.476 . S
C524 C48 1.798 . S
C536 C293 1.723 . S
C551 C71 1.505 . S
C563 C329 1.316 . S
C578 C5 1.589 . S
C590 C371 1.472 1_455 S
C605 C50 1.509 1_556 S
C617 C341 1.453 . S
C644 C233 1.699 . S
C632 C70 1.805 . S
C671 C299 1.436 . S
C659 C4 1.405 . S
C686 C28 1.605 . S
C698 C335 1.496 . S
C725 C125 1.485 . S
C713 C73 1.425 . S
C740 C7 1.784 . S
C752 C185 1.682 . S
C779 C227 1.453 . S
C767 C30 1.544 . S
C806 C89 1.506 1_655 S
C794 C52 1.581 . S
C833 C305 1.395 . S
C821 C9 1.352 . S
C860 C365 1.381 . S
C848 C29 1.345 . S
C875 C51 1.565 . S
C887 C257 1.546 . S
C914 C269 1.474 . S
C902 C75 1.549 . S
C941 C161 1.455 . S
C929 C27 1.542 . S
C956 C49 1.410 . S
C968 C197 1.302 . S
C995 C113 1.376 . S
C983 C72 1.353 . S
C1022 C149 1.563 . S
C1010 C6 1.562 . S
