# Generated by pormake.
# Topology nom, (4,4)-cn, num edge types: 1
# Building blocks:
#     Node 0, Type 0, BuildingBlock: MIFKUJ_clean_linker_1, # of connection points: 4
#     Node 1, Type 0, BuildingBlock: MIFKUJ_clean_linker_1, # of connection points: 4
#     Node 2, Type 0, BuildingBlock: MIFKUJ_clean_linker_1, # of connection points: 4
#     Node 3, Type 0, BuildingBlock: MIFKUJ_clean_linker_1, # of connection points: 4
#     Node 4, Type 0, BuildingBlock: MIFKUJ_clean_linker_1, # of connection points: 4
#     Node 5, Type 0, BuildingBlock: MIFKUJ_clean_linker_1, # of connection points: 4
#     Node 6, Type 1, BuildingBlock: CEKHIL_clean_sbu_0, # of connection points: 4
#     Node 7, Type 1, BuildingBlock: CEKHIL_clean_sbu_0, # of connection points: 4
#     Node 8, Type 1, BuildingBlock: CEKHIL_clean_sbu_0, # of connection points: 4
#     Node 9, Type 1, BuildingBlock: CEKHIL_clean_sbu_0, # of connection points: 4
#     Node 10, Type 1, BuildingBlock: CEKHIL_clean_sbu_0, # of connection points: 4
#     Node 11, Type 1, BuildingBlock: CEKHIL_clean_sbu_0, # of connection points: 4
#     Edge 12, Type (0, 1), BuildingBlock: XUDNAN_clean_linker_2, # of connection points: 2
#     Edge 13, Type (0, 1), BuildingBlock: XUDNAN_clean_linker_2, # of connection points: 2
#     Edge 14, Type (0, 1), BuildingBlock: XUDNAN_clean_linker_2, # of connection points: 2
#     Edge 15, Type (0, 1), BuildingBlock: XUDNAN_clean_linker_2, # of connection points: 2
#     Edge 16, Type (0, 1), BuildingBlock: XUDNAN_clean_linker_2, # of connection points: 2
#     Edge 17, Type (0, 1), BuildingBlock: XUDNAN_clean_linker_2, # of connection points: 2
#     Edge 18, Type (0, 1), BuildingBlock: XUDNAN_clean_linker_2, # of connection points: 2
#     Edge 19, Type (0, 1), BuildingBlock: XUDNAN_clean_linker_2, # of connection points: 2
#     Edge 20, Type (0, 1), BuildingBlock: XUDNAN_clean_linker_2, # of connection points: 2
#     Edge 21, Type (0, 1), BuildingBlock: XUDNAN_clean_linker_2, # of connection points: 2
#     Edge 22, Type (0, 1), BuildingBlock: XUDNAN_clean_linker_2, # of connection points: 2
#     Edge 23, Type (0, 1), BuildingBlock: XUDNAN_clean_linker_2, # of connection points: 2
#     Edge 24, Type (0, 1), BuildingBlock: XUDNAN_clean_linker_2, # of connection points: 2
#     Edge 25, Type (0, 1), BuildingBlock: XUDNAN_clean_linker_2, # of connection points: 2
#     Edge 26, Type (0, 1), BuildingBlock: XUDNAN_clean_linker_2, # of connection points: 2
#     Edge 27, Type (0, 1), BuildingBlock: XUDNAN_clean_linker_2, # of connection points: 2
#     Edge 28, Type (0, 1), BuildingBlock: XUDNAN_clean_linker_2, # of connection points: 2
#     Edge 29, Type (0, 1), BuildingBlock: XUDNAN_clean_linker_2, # of connection points: 2
#     Edge 30, Type (0, 1), BuildingBlock: XUDNAN_clean_linker_2, # of connection points: 2
#     Edge 31, Type (0, 1), BuildingBlock: XUDNAN_clean_linker_2, # of connection points: 2
#     Edge 32, Type (0, 1), BuildingBlock: XUDNAN_clean_linker_2, # of connection points: 2
#     Edge 33, Type (0, 1), BuildingBlock: XUDNAN_clean_linker_2, # of connection points: 2
#     Edge 34, Type (0, 1), BuildingBlock: XUDNAN_clean_linker_2, # of connection points: 2
#     Edge 35, Type (0, 1), BuildingBlock: XUDNAN_clean_linker_2, # of connection points: 2
# Relax obj value: 0.002
# Max RMSD: 0.100
# Mean RMSD: 0.066
data_MOF--net-nom--node1-CEKHIL_clean_sbu_0--node2-MIFKUJ_clean_linker_1--edge1-XUDNAN_clean_linker_2
_symmetry_space_group_name_H-M    P1
_symmetry_Int_Tables_number       1
_symmetry_cell_setting            triclinic
loop_
_symmetry_equiv_pos_as_xyz
'x, y, z'
_cell_length_a     53.531302
_cell_length_b     52.948114
_cell_length_c     56.244553
_cell_angle_alpha  90.044915
_cell_angle_beta   90.029794
_cell_angle_gamma 121.16486
loop_
_atom_site_label
_atom_site_type_symbol
_atom_site_fract_x
_atom_site_fract_y
_atom_site_fract_z
_atom_type_partial_charge
H0 H 0.98438 0.48712 0.28044 0.0
H1 H 0.94727 0.46592 0.24949 0.0
H2 H 0.9242 0.5316 0.26458 0.0
H3 H 0.95968 0.55068 0.29694 0.0
H4 H 0.03244 0.55403 0.28917 0.0
H5 H 0.94224 0.4693 0.318 0.0
H6 H 0.89027 0.44317 0.32567 0.0
H7 H 0.90366 0.51018 0.3769 0.0
H8 H 0.95531 0.53803 0.36674 0.0
H9 H 0.03612 0.57393 0.39265 0.0
H10 H 0.06942 0.58405 0.42594 0.0
H11 H 0.11372 0.5497 0.38499 0.0
H12 H 0.07931 0.53799 0.35253 0.0
H13 H 0.99692 0.52599 0.37202 0.0
H14 H 0.08278 0.61072 0.34714 0.0
H15 H 0.13546 0.64188 0.34098 0.0
H16 H 0.1309 0.58314 0.28565 0.0
H17 H 0.07829 0.55107 0.29258 0.0
C18 C 0.97451 0.52023 0.29106 0.0
C19 C 0.97134 0.49695 0.27691 0.0
C20 C 0.95012 0.48498 0.25904 0.0
C21 C 0.93223 0.49672 0.25435 0.0
C22 C 0.93669 0.52116 0.26794 0.0
C23 C 0.95731 0.5325 0.2863 0.0
C24 C 0.99471 0.53047 0.3116 0.0
C25 C 0.02481 0.54777 0.3073 0.0
C26 C 0.98442 0.52336 0.33529 0.0
C27 C 0.95272 0.50625 0.34109 0.0
C28 C 0.93391 0.47892 0.33027 0.0
C29 C 0.90406 0.46352 0.33522 0.0
C30 C 0.89232 0.47434 0.35202 0.0
C31 C 0.91147 0.50131 0.36344 0.0
C32 C 0.94123 0.51715 0.35789 0.0
C33 C 0.05531 0.55544 0.36994 0.0
C34 C 0.05287 0.56837 0.39095 0.0
C35 C 0.07219 0.57448 0.40988 0.0
C36 C 0.09441 0.5678 0.40822 0.0
C37 C 0.0967 0.5548 0.38713 0.0
C38 C 0.07721 0.54841 0.36836 0.0
C39 C 0.03492 0.54905 0.34968 0.0
C40 C 1.00473 0.53256 0.35398 0.0
C41 C 0.04508 0.55781 0.32607 0.0
C42 C 0.07659 0.57811 0.32072 0.0
C43 C 0.09307 0.60434 0.3338 0.0
C44 C 0.12311 0.62222 0.33021 0.0
C45 C 0.13711 0.61473 0.31297 0.0
C46 C 0.12049 0.58937 0.29901 0.0
C47 C 0.09048 0.5711 0.30295 0.0
H48 H 0.42447 0.95813 0.52089 0.0
H49 H 0.38966 0.9078 0.53325 0.0
H50 H 0.45475 0.88399 0.52148 0.0
H51 H 0.48918 0.93455 0.50793 0.0
H52 H 0.48576 0.99652 0.54296 0.0
H53 H 0.43267 0.94824 0.46713 0.0
H54 H 0.4196 0.91145 0.43562 0.0
H55 H 0.51108 0.94422 0.42345 0.0
H56 H 0.52391 0.98054 0.45522 0.0
H57 H 0.55721 0.07907 0.46575 0.0
H58 H 0.5706 0.12919 0.45346 0.0
H59 H 0.49823 0.12098 0.49394 0.0
H60 H 0.48497 0.07134 0.50598 0.0
H61 H 0.50671 0.02549 0.45804 0.0
H62 H 0.56364 0.07581 0.52243 0.0
H63 H 0.58633 0.11503 0.55191 0.0
H64 H 0.50299 0.08083 0.58677 0.0
H65 H 0.48035 0.04106 0.55714 0.0
C66 C 0.4594 0.95003 0.51377 0.0
C67 C 0.43119 0.94202 0.52093 0.0
C68 C 0.41138 0.91323 0.52812 0.0
C69 C 0.41949 0.89185 0.52881 0.0
C70 C 0.44769 0.8998 0.52108 0.0
C71 C 0.46747 0.9287 0.51352 0.0
C72 C 0.47996 0.98096 0.50677 0.0
C73 C 0.49039 1.0029 0.52443 0.0
C74 C 0.48752 0.98914 0.48274 0.0
C75 C 0.47925 0.96689 0.46365 0.0
C76 C 0.44986 0.94731 0.45778 0.0
C77 C 0.44245 0.92647 0.43965 0.0
C78 C 0.46431 0.92485 0.42709 0.0
C79 C 0.49372 0.94461 0.433 0.0
C80 C 0.5011 0.9655 0.45103 0.0
C81 C 0.52021 0.07157 0.48687 0.0
C82 C 0.54436 0.08819 0.47198 0.0
C83 C 0.55206 0.11679 0.46512 0.0
C84 C 0.53537 0.12886 0.47271 0.0
C85 C 0.51133 0.11215 0.48767 0.0
C86 C 0.50386 0.08386 0.49467 0.0
C87 C 0.51106 0.04104 0.49413 0.0
C88 C 0.50275 0.01919 0.47663 0.0
C89 C 0.50673 0.0329 0.51839 0.0
C90 C 0.52021 0.05567 0.53737 0.0
C91 C 0.55019 0.07673 0.53638 0.0
C92 C 0.56312 0.09928 0.55322 0.0
C93 C 0.54641 0.1014 0.57152 0.0
C94 C 0.5165 0.07977 0.57295 0.0
C95 C 0.50352 0.05705 0.55603 0.0
H96 H 0.51575 0.53763 0.7157 0.0
H97 H 0.49689 0.55151 0.74946 0.0
H98 H 0.41004 0.50226 0.71941 0.0
H99 H 0.42885 0.48684 0.6865 0.0
H100 H 0.50288 0.48328 0.70215 0.0
H101 H 0.4878 0.56141 0.66166 0.0
H102 H 0.45545 0.57826 0.64719 0.0
H103 H 0.3982 0.49188 0.61682 0.0
H104 H 0.43097 0.4759 0.63036 0.0
H105 H 0.48579 0.4575 0.59952 0.0
H106 H 0.50898 0.44642 0.56718 0.0
H107 H 0.58893 0.48425 0.60792 0.0
H108 H 0.5661 0.49675 0.63962 0.0
H109 H 0.49198 0.5034 0.61789 0.0
H110 H 0.48959 0.42246 0.64971 0.0
H111 H 0.50267 0.38645 0.66168 0.0
H112 H 0.56882 0.4509 0.70868 0.0
H113 H 0.55561 0.48713 0.69657 0.0
C114 C 0.47388 0.51165 0.69827 0.0
C115 C 0.49263 0.52979 0.71639 0.0
C116 C 0.48181 0.53795 0.73561 0.0
C117 C 0.45192 0.5283 0.73713 0.0
C118 C 0.43313 0.50997 0.71898 0.0
C119 C 0.44395 0.50152 0.69988 0.0
C120 C 0.4858 0.50261 0.67833 0.0
C121 C 0.5011 0.48832 0.68376 0.0
C122 C 0.4815 0.50696 0.6542 0.0
C123 C 0.4619 0.51753 0.64681 0.0
C124 C 0.46825 0.54625 0.65185 0.0
C125 C 0.44965 0.55575 0.64371 0.0
C126 C 0.42441 0.53659 0.63049 0.0
C127 C 0.41782 0.50756 0.62629 0.0
C128 C 0.43646 0.49829 0.63414 0.0
C129 C 0.52406 0.47782 0.62216 0.0
C130 C 0.50839 0.46363 0.60144 0.0
C131 C 0.52162 0.45698 0.58303 0.0
C132 C 0.55085 0.46427 0.58492 0.0
C133 C 0.56652 0.47856 0.60568 0.0
C134 C 0.55333 0.4854 0.624 0.0
C135 C 0.51005 0.48508 0.64174 0.0
C136 C 0.49441 0.49896 0.6363 0.0
C137 C 0.5121 0.47836 0.66574 0.0
C138 C 0.52176 0.45755 0.67213 0.0
C139 C 0.50718 0.42902 0.66236 0.0
C140 C 0.51452 0.4084 0.66932 0.0
C141 C 0.53667 0.41588 0.68616 0.0
C142 C 0.55178 0.44466 0.69555 0.0
C143 C 0.54418 0.46527 0.68876 0.0
H144 H 0.03176 0.51281 0.77317 0.0
H145 H 0.06469 0.52812 0.73911 0.0
H146 H 0.10582 0.48332 0.76888 0.0
H147 H 0.07185 0.46691 0.80235 0.0
H148 H 0.99109 0.45952 0.79051 0.0
H149 H 0.08308 0.54394 0.82053 0.0
H150 H 0.13579 0.56916 0.82682 0.0
H151 H 0.12439 0.4936 0.86597 0.0
H152 H 0.07159 0.46905 0.86024 0.0
H153 H 0.98934 0.44106 0.89319 0.0
H154 H 0.95783 0.4339 0.92717 0.0
H155 H 0.92097 0.47784 0.88893 0.0
H156 H 0.95337 0.48601 0.85551 0.0
H157 H 0.03159 0.48855 0.87206 0.0
H158 H 0.93962 0.4085 0.85031 0.0
H159 H 0.88663 0.38181 0.84507 0.0
H160 H 0.89629 0.4412 0.78852 0.0
H161 H 0.94933 0.469 0.79459 0.0
C162 C 0.04954 0.48903 0.7905 0.0
C163 C 0.04766 0.50601 0.77223 0.0
C164 C 0.06674 0.51502 0.75288 0.0
C165 C 0.08819 0.50726 0.75135 0.0
C166 C 0.08951 0.48957 0.76938 0.0
C167 C 0.07027 0.48042 0.78868 0.0
C168 C 0.03026 0.48115 0.81167 0.0
C169 C 0.99987 0.46611 0.80833 0.0
C170 C 0.0417 0.48868 0.83503 0.0
C171 C 0.07352 0.50456 0.83975 0.0
C172 C 0.092 0.53293 0.83057 0.0
C173 C 0.12216 0.54721 0.83406 0.0
C174 C 0.13449 0.53333 0.84672 0.0
C175 C 0.11573 0.50513 0.85637 0.0
C176 C 0.08553 0.49098 0.85303 0.0
C177 C 0.97353 0.4638 0.87169 0.0
C178 C 0.97462 0.44935 0.89223 0.0
C179 C 0.95637 0.44501 0.91154 0.0
C180 C 0.93671 0.45514 0.91075 0.0
C181 C 0.936 0.46999 0.89027 0.0
C182 C 0.95434 0.47443 0.87103 0.0
C183 C 0.99232 0.46768 0.85088 0.0
C184 C 0.02263 0.48181 0.8543 0.0
C185 C 0.98065 0.4588 0.82765 0.0
C186 C 0.94857 0.44126 0.82323 0.0
C187 C 0.93042 0.41612 0.83699 0.0
C188 C 0.90016 0.40077 0.83393 0.0
C189 C 0.88749 0.40964 0.81653 0.0
C190 C 0.90562 0.43397 0.80205 0.0
C191 C 0.93589 0.44977 0.80548 0.0
H192 H 0.61054 0.07329 0.02371 0.0
H193 H 0.63986 0.12681 0.02947 0.0
H194 H 0.57018 0.1352 0.99937 0.0
H195 H 0.5412 0.0818 0.99347 0.0
H196 H 0.55558 0.03016 0.03993 0.0
H197 H 0.60197 0.07376 0.96421 0.0
H198 H 0.61314 0.10753 0.93077 0.0
H199 H 0.52126 0.06334 0.91355 0.0
H200 H 0.5102 0.0306 0.94752 0.0
H201 H 0.47369 0.94763 0.96906 0.0
H202 H 0.45229 0.8966 0.95503 0.0
H203 H 0.51674 0.88857 0.99467 0.0
H204 H 0.53914 0.93988 0.00767 0.0
H205 H 0.52514 0.9911 0.95808 0.0
H206 H 0.47845 0.96376 0.03833 0.0
H207 H 0.46195 0.93288 0.07376 0.0
H208 H 0.54683 0.94165 0.07956 0.0
H209 H 0.56361 0.97475 0.04546 0.0
C210 C 0.57387 0.07362 0.00787 0.0
C211 C 0.60153 0.08669 0.01855 0.0
C212 C 0.61823 0.11727 0.02187 0.0
C213 C 0.60749 0.13535 0.01467 0.0
C214 C 0.57937 0.12202 0.00465 0.0
C215 C 0.56271 0.09148 1.00136 0.0
C216 C 0.55705 0.04144 1.00291 0.0
C217 C 0.54921 0.02164 0.02199 0.0
C218 C 0.54792 0.03026 0.9796 0.0
C219 C 0.55519 0.04993 0.95862 0.0
C220 C 0.58424 0.07151 0.95331 0.0
C221 C 0.59062 0.0906 0.93403 0.0
C222 C 0.56808 0.08831 0.91956 0.0
C223 C 0.53911 0.06612 0.92457 0.0
C224 C 0.53276 0.04717 0.94388 0.0
C225 C 0.5078 0.9476 0.98979 0.0
C226 C 0.48292 0.93476 0.97512 0.0
C227 C 0.4706 0.90564 0.96723 0.0
C228 C 0.4827 0.8888 0.97417 0.0
C229 C 0.50673 0.90107 0.9896 0.0
C230 C 0.51937 0.93033 0.99716 0.0
C231 C 0.52357 0.97977 0.99508 0.0
C232 C 0.53139 0.99961 0.97603 0.0
C233 C 0.53222 0.99102 0.01837 0.0
C234 C 0.52217 0.9714 0.03935 0.0
C235 C 0.49343 0.95905 0.04743 0.0
C236 C 0.48397 0.94106 0.06761 0.0
C237 C 0.50289 0.93441 0.07982 0.0
C238 C 0.53166 0.94665 0.07125 0.0
C239 C 0.54133 0.9654 0.05153 0.0
H240 H 0.51786 0.49008 0.21709 0.0
H241 H 0.53692 0.47531 0.25017 0.0
H242 H 0.62379 0.52628 0.22059 0.0
H243 H 0.60466 0.54227 0.18816 0.0
H244 H 0.53124 0.5457 0.20267 0.0
H245 H 0.54943 0.46821 0.17104 0.0
H246 H 0.58565 0.45433 0.16234 0.0
H247 H 0.62978 0.5287 0.11461 0.0
H248 H 0.59485 0.54333 0.12442 0.0
H249 H 0.54361 0.5651 0.09979 0.0
H250 H 0.51944 0.57557 0.0678 0.0
H251 H 0.4399 0.53604 0.10905 0.0
H252 H 0.46385 0.52446 0.14052 0.0
H253 H 0.53774 0.51871 0.1194 0.0
H254 H 0.53485 0.59975 0.14498 0.0
H255 H 0.51453 0.63103 0.15232 0.0
H256 H 0.46138 0.57295 0.20882 0.0
H257 H 0.48078 0.54067 0.20072 0.0
C258 C 0.55972 0.51688 0.19993 0.0
C259 C 0.54106 0.49827 0.21783 0.0
C260 C 0.55198 0.48957 0.23661 0.0
C261 C 0.58188 0.49921 0.23792 0.0
C262 C 0.60069 0.51852 0.22025 0.0
C263 C 0.58975 0.52746 0.20155 0.0
C264 C 0.54733 0.52477 0.17963 0.0
C265 C 0.53223 0.53938 0.1845 0.0
C266 C 0.55034 0.51829 0.15572 0.0
C267 C 0.56976 0.50719 0.14878 0.0
C268 C 0.567 0.48154 0.15878 0.0
C269 C 0.58759 0.47348 0.15362 0.0
C270 C 0.611 0.49073 0.13811 0.0
C271 C 0.6126 0.5154 0.12717 0.0
C272 C 0.59235 0.52359 0.13253 0.0
C273 C 0.50567 0.54417 0.12269 0.0
C274 C 0.52087 0.55837 0.10184 0.0
C275 C 0.50709 0.56467 0.08366 0.0
C276 C 0.47775 0.5569 0.0859 0.0
C277 C 0.46241 0.54216 0.10661 0.0
C278 C 0.47618 0.53575 0.12474 0.0
C279 C 0.52078 0.53877 0.14252 0.0
C280 C 0.53635 0.52468 0.1376 0.0
C281 C 0.51999 0.54757 0.16618 0.0
C282 C 0.50875 0.56734 0.17183 0.0
C283 C 0.51854 0.59342 0.15875 0.0
C284 C 0.50711 0.61141 0.16304 0.0
C285 C 0.48631 0.6042 0.181 0.0
C286 C 0.47746 0.57892 0.19489 0.0
C287 C 0.4885 0.56052 0.19026 0.0
Co288 Co 0.64131 0.38074 0.40863 0.0
O289 O 0.66294 0.37227 0.38609 0.0
O290 O 0.68238 0.41111 0.41004 0.0
C291 C 0.61554 0.33432 0.42302 0.0
O292 O 0.62614 0.39575 0.43514 0.0
Co293 Co 0.57399 0.34996 0.40525 0.0
O294 O 0.5774 0.36616 0.43767 0.0
C295 C 0.61109 0.39748 0.37148 0.0
C296 C 0.68613 0.39576 0.39389 0.0
C297 C 0.60163 0.38706 0.44571 0.0
O298 O 0.6339 0.40366 0.38375 0.0
O299 O 0.58565 0.37537 0.37603 0.0
O300 O 0.64175 0.35252 0.43077 0.0
O301 O 0.6067 0.34398 0.40586 0.0
Co302 Co 0.26972 0.63379 0.58206 0.0
O303 O 0.29913 0.63356 0.60218 0.0
O304 O 0.27453 0.60151 0.57348 0.0
C305 C 0.29546 0.68268 0.57413 0.0
O306 O 0.2396 0.62635 0.55665 0.0
Co307 Co 0.239 0.66862 0.59142 0.0
O308 O 0.22259 0.65701 0.55882 0.0
C309 C 0.22308 0.6151 0.61979 0.0
C310 C 0.29455 0.61078 0.58977 0.0
C311 C 0.22422 0.63659 0.54834 0.0
O312 O 0.23816 0.60867 0.60588 0.0
O313 O 0.22274 0.63903 0.61795 0.0
O314 O 0.30047 0.66467 0.56225 0.0
O315 O 0.2764 0.67095 0.59092 0.0
Co316 Co 0.63829 0.26993 0.74927 0.0
O317 O 0.63963 0.30086 0.73001 0.0
O318 O 0.60143 0.26795 0.75084 0.0
C319 C 0.68183 0.29839 0.76718 0.0
O320 O 0.6283 0.23645 0.77228 0.0
Co321 Co 0.68199 0.24875 0.74503 0.0
O322 O 0.66429 0.22678 0.77503 0.0
C323 C 0.63771 0.23328 0.70774 0.0
C324 C 0.61289 0.29073 0.73685 0.0
C325 C 0.64008 0.22322 0.78213 0.0
O326 O 0.62437 0.24234 0.72103 0.0
O327 O 0.6624 0.23641 0.71305 0.0
O328 O 0.65875 0.29799 0.77494 0.0
O329 O 0.67838 0.28335 0.74806 0.0
Co330 Co 0.38504 0.63756 0.90947 0.0
O331 O 0.36287 0.64232 0.8849 0.0
O332 O 0.34452 0.60573 0.91094 0.0
C333 C 0.40832 0.68523 0.92124 0.0
O334 O 0.40082 0.62577 0.93776 0.0
Co335 Co 0.45236 0.67122 0.90795 0.0
O336 O 0.44935 0.65626 0.94076 0.0
C337 C 0.41812 0.62177 0.87477 0.0
C338 C 0.34031 0.61841 0.89285 0.0
C339 C 0.42521 0.6353 0.94879 0.0
O340 O 0.39476 0.61438 0.88666 0.0
O341 O 0.4427 0.64516 0.87924 0.0
O342 O 0.38253 0.66646 0.92947 0.0
O343 O 0.4184 0.67506 0.9055 0.0
Co344 Co 0.75661 0.38727 0.08091 0.0
O345 O 0.72549 0.3849 0.10012 0.0
O346 O 0.75762 0.42407 0.07952 0.0
C347 C 0.72952 0.34331 0.06271 0.0
O348 O 0.7902 0.39844 0.05797 0.0
Co349 Co 0.77971 0.3453 0.08568 0.0
O350 O 0.79913 0.36167 0.05472 0.0
C351 C 0.7977 0.39266 0.121 0.0
C352 C 0.73519 0.41198 0.09362 0.0
C353 C 0.80281 0.38624 0.04775 0.0
O354 O 0.78367 0.40216 0.10915 0.0
O355 O 0.79818 0.36954 0.11518 0.0
O356 O 0.72936 0.36644 0.05521 0.0
O357 O 0.74423 0.34678 0.08201 0.0
Co358 Co 0.3877 0.75082 0.24899 0.0
O359 O 0.38231 0.72282 0.22486 0.0
O360 O 0.42041 0.74468 0.24915 0.0
C361 C 0.3425 0.72509 0.26436 0.0
O362 O 0.39991 0.78008 0.27642 0.0
Co363 Co 0.35205 0.78163 0.24633 0.0
O364 O 0.36916 0.79705 0.27827 0.0
C365 C 0.40048 0.79921 0.21315 0.0
C366 C 0.40703 0.72631 0.23173 0.0
C367 C 0.39031 0.79519 0.28664 0.0
O368 O 0.40834 0.78394 0.22534 0.0
O369 O 0.3768 0.79895 0.21704 0.0
O370 O 0.36239 0.71941 0.27077 0.0
O371 O 0.34948 0.74372 0.24711 0.0
H372 H 0.16869 0.64002 0.27239 0.0
H373 H 0.17757 0.62944 0.34779 0.0
H374 H 0.23134 0.65811 0.34378 0.0
H375 H 0.2288 0.63407 0.25263 0.0
H376 H 0.24015 0.6619 0.22992 0.0
H377 H 0.20242 0.64082 0.23878 0.0
H378 H 0.20339 0.68923 0.24823 0.0
H379 H 0.24117 0.71048 0.23944 0.0
H380 H 0.23039 0.71556 0.26856 0.0
H381 H 0.28364 0.68455 0.33107 0.0
H382 H 0.33162 0.7104 0.31096 0.0
H383 H 0.28927 0.70748 0.24442 0.0
C384 C 0.18206 0.64387 0.28801 0.0
C385 C 0.16919 0.6326 0.3104 0.0
C386 C 0.18718 0.63812 0.33053 0.0
C387 C 0.21765 0.65428 0.32841 0.0
C388 C 0.22972 0.66511 0.30609 0.0
C389 C 0.21255 0.66045 0.28628 0.0
C390 C 0.23112 0.67475 0.26442 0.0
C391 C 0.22527 0.6515 0.24532 0.0
C392 C 0.22622 0.69894 0.25459 0.0
C393 C 0.2614 0.68782 0.27497 0.0
C394 C 0.26005 0.68175 0.29901 0.0
C395 C 0.28503 0.68984 0.31235 0.0
C396 C 0.31211 0.70441 0.30081 0.0
C397 C 0.31399 0.71116 0.27631 0.0
C398 C 0.28836 0.70307 0.2633 0.0
H399 H 0.58853 0.18088 0.47269 0.0
H400 H 0.49724 0.14321 0.45438 0.0
H401 H 0.5075 0.19224 0.4415 0.0
H402 H 0.59994 0.25013 0.49555 0.0
H403 H 0.63644 0.27185 0.48385 0.0
H404 H 0.62205 0.23381 0.4918 0.0
H405 H 0.63279 0.22285 0.44933 0.0
H406 H 0.64739 0.26089 0.44132 0.0
H407 H 0.61824 0.23195 0.42404 0.0
H408 H 0.52773 0.24452 0.42915 0.0
H409 H 0.55683 0.29726 0.41828 0.0
H410 H 0.63475 0.30187 0.44599 0.0
C411 C 0.57079 0.18301 0.46586 0.0
C412 C 0.54209 0.15833 0.46454 0.0
C413 C 0.51933 0.16194 0.45573 0.0
C414 C 0.52495 0.18965 0.44835 0.0
C415 C 0.5534 0.2136 0.45006 0.0
C416 C 0.57596 0.21065 0.45865 0.0
C417 C 0.60455 0.24003 0.45856 0.0
C418 C 0.61644 0.24951 0.48395 0.0
C419 C 0.62706 0.23885 0.44234 0.0
C420 C 0.59456 0.25982 0.44828 0.0
C421 C 0.56496 0.24408 0.44351 0.0
C422 C 0.55087 0.25717 0.43299 0.0
C423 C 0.56756 0.2871 0.42688 0.0
C424 C 0.59792 0.30362 0.4315 0.0
C425 C 0.61147 0.28986 0.44264 0.0
H426 H 0.4078 0.57368 0.65054 0.0
H427 H 0.39804 0.52269 0.58691 0.0
H428 H 0.36365 0.5357 0.57054 0.0
H429 H 0.33416 0.5565 0.65439 0.0
H430 H 0.34314 0.59294 0.66341 0.0
H431 H 0.36743 0.57999 0.67058 0.0
H432 H 0.41 0.62545 0.64963 0.0
H433 H 0.38591 0.63868 0.64256 0.0
H434 H 0.40574 0.63329 0.61921 0.0
H435 H 0.32866 0.55146 0.56166 0.0
H436 H 0.29787 0.57326 0.55891 0.0
H437 H 0.33173 0.61728 0.62672 0.0
C438 C 0.39871 0.56555 0.63305 0.0
C439 C 0.40529 0.54662 0.62027 0.0
C440 C 0.39279 0.53646 0.59743 0.0
C441 C 0.37334 0.54391 0.58784 0.0
C442 C 0.36684 0.56195 0.60108 0.0
C443 C 0.37938 0.57306 0.62301 0.0
C444 C 0.36867 0.59237 0.63324 0.0
C445 C 0.35238 0.57968 0.6568 0.0
C446 C 0.3941 0.62435 0.63633 0.0
C447 C 0.34797 0.59002 0.61369 0.0
C448 C 0.34721 0.57216 0.59544 0.0
C449 C 0.32921 0.56572 0.57571 0.0
C450 C 0.31169 0.57812 0.57439 0.0
C451 C 0.31242 0.59703 0.59256 0.0
C452 C 0.33083 0.60303 0.61251 0.0
H453 H 0.85565 0.38463 0.7761 0.0
H454 H 0.84721 0.39866 0.85086 0.0
H455 H 0.79341 0.37205 0.8465 0.0
H456 H 0.7965 0.39225 0.75445 0.0
H457 H 0.78477 0.36333 0.73261 0.0
H458 H 0.82251 0.38428 0.74156 0.0
H459 H 0.82056 0.33586 0.75293 0.0
H460 H 0.7828 0.31476 0.74405 0.0
H461 H 0.79326 0.31077 0.77363 0.0
H462 H 0.74057 0.34518 0.83348 0.0
H463 H 0.69249 0.31704 0.81346 0.0
H464 H 0.73555 0.31777 0.74793 0.0
C465 C 0.8424 0.38219 0.79147 0.0
C466 C 0.85538 0.39375 0.81378 0.0
C467 C 0.8375 0.38985 0.83364 0.0
C468 C 0.80702 0.37488 0.8313 0.0
C469 C 0.79482 0.36364 0.80905 0.0
C470 C 0.81193 0.36685 0.78953 0.0
C471 C 0.79336 0.35179 0.76782 0.0
C472 C 0.79966 0.37426 0.74794 0.0
C473 C 0.79776 0.32681 0.75911 0.0
C474 C 0.76314 0.33972 0.77812 0.0
C475 C 0.76443 0.34705 0.80186 0.0
C476 C 0.73929 0.33911 0.81494 0.0
C477 C 0.71212 0.32321 0.80345 0.0
C478 C 0.71037 0.31508 0.77926 0.0
C479 C 0.73624 0.32339 0.76653 0.0
H480 H 0.44829 0.83297 0.99253 0.0
H481 H 0.49641 0.88102 0.92984 0.0
H482 H 0.48366 0.83404 0.91013 0.0
H483 H 0.46657 0.77631 0.99032 0.0
H484 H 0.431 0.74694 0.99953 0.0
H485 H 0.44417 0.78428 0.00905 0.0
H486 H 0.39816 0.78159 0.99137 0.0
H487 H 0.38475 0.74418 0.98195 0.0
H488 H 0.38892 0.77147 0.96059 0.0
H489 H 0.4682 0.78295 0.89815 0.0
H490 H 0.44577 0.72941 0.89215 0.0
H491 H 0.40403 0.71303 0.96121 0.0
C492 C 0.45591 0.83337 0.97462 0.0
C493 C 0.47329 0.86032 0.96253 0.0
C494 C 0.483 0.86039 0.93918 0.0
C495 C 0.47597 0.83391 0.92795 0.0
C496 C 0.45899 0.80762 0.9403 0.0
C497 C 0.44867 0.80699 0.96296 0.0
C498 C 0.43006 0.77549 0.97184 0.0
C499 C 0.44378 0.77047 0.994 0.0
C500 C 0.3986 0.76773 0.97672 0.0
C501 C 0.4315 0.75861 0.95058 0.0
C502 C 0.44877 0.77772 0.93282 0.0
C503 C 0.45441 0.76771 0.9118 0.0
C504 C 0.4417 0.73727 0.90863 0.0
C505 C 0.42311 0.71716 0.92617 0.0
C506 C 0.418 0.72798 0.94746 0.0
H507 H 0.60537 0.43603 0.13261 0.0
H508 H 0.66964 0.53 0.13393 0.0
H509 H 0.7082 0.51969 0.1239 0.0
H510 H 0.65338 0.41308 0.15924 0.0
H511 H 0.63873 0.38027 0.1412 0.0
H512 H 0.61601 0.39482 0.14923 0.0
H513 H 0.605 0.39724 0.1047 0.0
H514 H 0.62779 0.38285 0.09653 0.0
H515 H 0.63487 0.4174 0.0843 0.0
H516 H 0.73913 0.50002 0.11069 0.0
H517 H 0.76142 0.47149 0.09781 0.0
H518 H 0.67846 0.38997 0.1077 0.0
C519 C 0.62761 0.45441 0.13118 0.0
C520 C 0.63431 0.48388 0.13371 0.0
C521 C 0.66374 0.50728 0.13148 0.0
C522 C 0.6859 0.50166 0.12599 0.0
C523 C 0.67847 0.47249 0.12312 0.0
C524 C 0.65016 0.44919 0.12592 0.0
C525 C 0.64819 0.41993 0.12154 0.0
C526 C 0.63851 0.40091 0.14415 0.0
C527 C 0.62776 0.40339 0.10052 0.0
C528 C 0.67973 0.43055 0.11546 0.0
C529 C 0.69675 0.46098 0.11641 0.0
C530 C 0.72617 0.47615 0.1102 0.0
C531 C 0.73859 0.45979 0.10281 0.0
C532 C 0.7217 0.4286 0.10197 0.0
C533 C 0.69195 0.41381 0.10857 0.0
H534 H 0.41015 0.83766 0.51372 0.0
H535 H 0.38238 0.87815 0.56645 0.0
H536 H 0.34679 0.82915 0.58208 0.0
H537 H 0.33974 0.77285 0.50283 0.0
H538 H 0.3534 0.74816 0.50055 0.0
H539 H 0.37649 0.78647 0.49265 0.0
H540 H 0.41567 0.79167 0.52258 0.0
H541 H 0.39279 0.75334 0.53048 0.0
H542 H 0.40567 0.78137 0.5532 0.0
H543 H 0.31417 0.77667 0.59211 0.0
H544 H 0.28789 0.72293 0.59775 0.0
H545 H 0.33745 0.71506 0.5401 0.0
C546 C 0.39673 0.83625 0.52865 0.0
C547 C 0.39882 0.86191 0.53852 0.0
C548 C 0.38073 0.85894 0.55805 0.0
C549 C 0.36053 0.83116 0.56722 0.0
C550 C 0.35877 0.80642 0.55691 0.0
C551 C 0.3765 0.80856 0.53823 0.0
C552 C 0.37049 0.77826 0.53099 0.0
C553 C 0.35937 0.77102 0.50522 0.0
C554 C 0.39778 0.77603 0.53453 0.0
C555 C 0.34663 0.75888 0.54855 0.0
C556 C 0.3402 0.77573 0.56319 0.0
C557 C 0.31903 0.7632 0.58083 0.0
C558 C 0.30419 0.73259 0.58385 0.0
C559 C 0.31062 0.71475 0.5694 0.0
C560 C 0.33203 0.72811 0.55139 0.0
H561 H 0.58999 0.4202 0.69026 0.0
H562 H 0.49715 0.36028 0.70106 0.0
H563 H 0.50661 0.3217 0.71477 0.0
H564 H 0.60492 0.36544 0.66802 0.0
H565 H 0.63998 0.38132 0.68243 0.0
H566 H 0.62609 0.40455 0.67386 0.0
H567 H 0.63178 0.42341 0.71721 0.0
H568 H 0.64577 0.40031 0.72589 0.0
H569 H 0.61461 0.39718 0.74102 0.0
H570 H 0.52598 0.29015 0.72815 0.0
H571 H 0.55402 0.2668 0.73922 0.0
H572 H 0.6343 0.34622 0.71831 0.0
C573 C 0.57173 0.39899 0.69565 0.0
C574 C 0.54283 0.39314 0.69461 0.0
C575 C 0.51942 0.36506 0.70155 0.0
C576 C 0.52458 0.34308 0.70942 0.0
C577 C 0.55327 0.34944 0.7101 0.0
C578 C 0.57648 0.37662 0.70331 0.0
C579 C 0.60514 0.37745 0.70539 0.0
C580 C 0.61989 0.38248 0.68097 0.0
C581 C 0.62552 0.40098 0.72345 0.0
C582 C 0.59439 0.34654 0.7145 0.0
C583 C 0.56441 0.33086 0.71721 0.0
C584 C 0.54945 0.30213 0.72598 0.0
C585 C 0.56556 0.28907 0.73224 0.0
C586 C 0.59627 0.30463 0.72948 0.0
C587 C 0.6108 0.33368 0.72036 0.0
H588 H 0.16596 0.53262 0.88547 0.0
H589 H 0.17633 0.56673 0.8136 0.0
H590 H 0.2297 0.59137 0.81767 0.0
H591 H 0.22808 0.59559 0.91097 0.0
H592 H 0.23796 0.57446 0.92966 0.0
H593 H 0.2004 0.55954 0.92129 0.0
H594 H 0.1984 0.51315 0.90404 0.0
H595 H 0.23597 0.52793 0.91235 0.0
H596 H 0.2247 0.51745 0.88193 0.0
H597 H 0.28172 0.61345 0.82965 0.0
H598 H 0.32947 0.63073 0.84852 0.0
H599 H 0.28598 0.58015 0.91183 0.0
C600 C 0.17938 0.54499 0.87046 0.0
C601 C 0.16677 0.54789 0.84926 0.0
C602 C 0.18532 0.56465 0.83022 0.0
C603 C 0.21571 0.57854 0.83226 0.0
C604 C 0.22734 0.57527 0.85337 0.0
C605 C 0.20981 0.55881 0.87211 0.0
C606 C 0.228 0.55885 0.89283 0.0
C607 C 0.22333 0.57296 0.91499 0.0
C608 C 0.22137 0.52747 0.89809 0.0
C609 C 0.2585 0.57808 0.88284 0.0
C610 C 0.25753 0.58737 0.86007 0.0
C611 C 0.28278 0.60616 0.84739 0.0
C612 C 0.3098 0.61589 0.85829 0.0
C613 C 0.31141 0.60665 0.88157 0.0
C614 C 0.28538 0.58727 0.8939 0.0
H615 H 0.64299 0.16757 0.05215 0.0
H616 H 0.61333 0.17711 0.98272 0.0
H617 H 0.64266 0.23128 0.98694 0.0
H618 H 0.64243 0.22755 0.08011 0.0
H619 H 0.67492 0.239 0.09744 0.0
H620 H 0.65215 0.20094 0.08875 0.0
H621 H 0.69661 0.20249 0.06894 0.0
H622 H 0.71954 0.24059 0.07756 0.0
H623 H 0.7173 0.23014 0.04677 0.0
H624 H 0.67374 0.28428 0.99919 0.0
H625 H 0.70462 0.33259 0.0187 0.0
H626 H 0.71555 0.28886 0.07957 0.0
C627 C 0.64293 0.18103 0.0377 0.0
C628 C 0.6257 0.16802 0.01714 0.0
C629 C 0.62594 0.1865 0.99881 0.0
C630 C 0.64272 0.21731 1.00094 0.0
C631 C 0.6593 0.22938 0.02147 0.0
C632 C 0.65962 0.21185 0.03951 0.0
C633 C 0.67889 0.23043 0.05993 0.0
C634 C 0.66102 0.2241 0.08291 0.0
C635 C 0.70461 0.22562 0.0635 0.0
C636 C 0.68917 0.26114 0.05062 0.0
C637 C 0.67762 0.26001 0.02839 0.0
C638 C 0.68309 0.28546 0.01652 0.0
C639 C 0.70062 0.31279 0.02775 0.0
C640 C 0.71258 0.31447 0.05057 0.0
C641 C 0.70698 0.28828 0.062 0.0
H642 H 0.4835 0.63079 0.22205 0.0
H643 H 0.45965 0.61887 0.14741 0.0
H644 H 0.43787 0.64987 0.15226 0.0
H645 H 0.41986 0.62984 0.24413 0.0
H646 H 0.43963 0.65815 0.26612 0.0
H647 H 0.45296 0.63466 0.25689 0.0
H648 H 0.50265 0.68075 0.2457 0.0
H649 H 0.48942 0.7044 0.25478 0.0
H650 H 0.50355 0.70735 0.22517 0.0
H651 H 0.41699 0.67996 0.16535 0.0
H652 H 0.39995 0.70971 0.18555 0.0
H653 H 0.44009 0.70548 0.25126 0.0
C654 C 0.47356 0.63469 0.20682 0.0
C655 C 0.4731 0.62249 0.18436 0.0
C656 C 0.46025 0.6282 0.16471 0.0
C657 C 0.44782 0.64569 0.16731 0.0
C658 C 0.44878 0.6576 0.18961 0.0
C659 C 0.46147 0.65257 0.20902 0.0
C660 C 0.45997 0.66852 0.23089 0.0
C661 C 0.44203 0.64648 0.25067 0.0
C662 C 0.49073 0.69163 0.23964 0.0
C663 C 0.44422 0.68307 0.22076 0.0
C664 C 0.43781 0.67622 0.19696 0.0
C665 C 0.42213 0.68575 0.18391 0.0
C666 C 0.41253 0.70258 0.19552 0.0
C667 C 0.41901 0.71008 0.21982 0.0
C668 C 0.43534 0.70047 0.23254 0.0
H669 H 0.85698 0.49582 0.36608 0.0
H670 H 0.85482 0.41396 0.35157 0.0
H671 H 0.80209 0.38606 0.35903 0.0
H672 H 0.80659 0.46589 0.41577 0.0
H673 H 0.78996 0.48727 0.40931 0.0
H674 H 0.82753 0.50133 0.40146 0.0
H675 H 0.81607 0.50723 0.35778 0.0
H676 H 0.77842 0.493 0.36544 0.0
H677 H 0.7875 0.47576 0.34211 0.0
H678 H 0.74949 0.36689 0.36639 0.0
H679 H 0.7008 0.35696 0.37787 0.0
H680 H 0.73728 0.45011 0.39245 0.0
C681 C 0.84569 0.47202 0.36473 0.0
C682 C 0.86042 0.45737 0.35768 0.0
C683 C 0.84427 0.42609 0.35603 0.0
C684 C 0.81421 0.40988 0.36048 0.0
C685 C 0.80051 0.42508 0.36711 0.0
C686 C 0.81574 0.45536 0.36969 0.0
C687 C 0.79584 0.46605 0.37815 0.0
C688 C 0.80556 0.48101 0.40263 0.0
C689 C 0.79438 0.48673 0.35977 0.0
C690 C 0.76701 0.43698 0.37974 0.0
C691 C 0.77024 0.41373 0.37294 0.0
C692 C 0.7467 0.38485 0.37199 0.0
C693 C 0.71912 0.37947 0.37843 0.0
C694 C 0.71536 0.40275 0.38613 0.0
C695 C 0.73964 0.4319 0.38682 0.0
H696 H 0.1184 0.61519 0.4393 0.0
H697 H 0.1164 0.53384 0.42335 0.0
H698 H 0.15066 0.54386 0.45625 0.0
H699 H 0.19411 0.65844 0.45635 0.0
H700 H 0.18781 0.67719 0.48024 0.0
H701 H 0.16389 0.66438 0.45479 0.0
H702 H 0.11929 0.63455 0.48241 0.0
H703 H 0.14304 0.64736 0.50795 0.0
H704 H 0.11909 0.60833 0.50296 0.0
H705 H 0.1849 0.5623 0.49073 0.0
H706 H 0.21521 0.58671 0.52594 0.0
H707 H 0.19352 0.65511 0.52118 0.0
C708 C 0.12495 0.59933 0.44279 0.0
C709 C 0.1148 0.57383 0.42844 0.0
C710 C 0.12427 0.55387 0.43362 0.0
C711 C 0.14363 0.55926 0.4524 0.0
C712 C 0.15324 0.5846 0.46605 0.0
C713 C 0.14411 0.60423 0.46163 0.0
C714 C 0.15724 0.62941 0.47945 0.0
C715 C 0.17693 0.65911 0.46696 0.0
C716 C 0.13323 0.62993 0.49406 0.0
C717 C 0.175 0.62072 0.49465 0.0
C718 C 0.17254 0.59492 0.48644 0.0
C719 C 0.18698 0.58249 0.49737 0.0
C720 C 0.20422 0.59663 0.51738 0.0
C721 C 0.20679 0.62288 0.52647 0.0
C722 C 0.19199 0.63507 0.51478 0.0
H723 H 0.53781 0.10019 0.62005 0.0
H724 H 0.5868 0.15921 0.56196 0.0
H725 H 0.61321 0.19998 0.59047 0.0
H726 H 0.53161 0.15563 0.65549 0.0
H727 H 0.5355 0.14121 0.68335 0.0
H728 H 0.51901 0.11692 0.65824 0.0
H729 H 0.55672 0.1004 0.66183 0.0
H730 H 0.57338 0.12467 0.68686 0.0
H731 H 0.59516 0.12783 0.66133 0.0
H732 H 0.63761 0.23305 0.62518 0.0
H733 H 0.65672 0.25704 0.66424 0.0
H734 H 0.5904 0.17812 0.69993 0.0
C735 C 0.55366 0.12183 0.61327 0.0
C736 C 0.56039 0.12636 0.58874 0.0
C737 C 0.58162 0.15498 0.58069 0.0
C738 C 0.59659 0.17838 0.59672 0.0
C739 C 0.58988 0.17302 0.62079 0.0
C740 C 0.56872 0.14557 0.62906 0.0
C741 C 0.56653 0.14558 0.65596 0.0
C742 C 0.53637 0.13948 0.66371 0.0
C743 C 0.57337 0.1233 0.66715 0.0
C744 C 0.59023 0.17711 0.6615 0.0
C745 C 0.60337 0.19254 0.6409 0.0
C746 C 0.62715 0.22141 0.64141 0.0
C747 C 0.63788 0.23483 0.66358 0.0
C748 C 0.62463 0.21949 0.68481 0.0
C749 C 0.60038 0.19041 0.6838 0.0
H750 H 0.47864 0.58165 0.76053 0.0
H751 H 0.39949 0.49506 0.76059 0.0
H752 H 0.38132 0.50978 0.79506 0.0
H753 H 0.48666 0.58817 0.82375 0.0
H754 H 0.50065 0.6273 0.82389 0.0
H755 H 0.50654 0.61038 0.79844 0.0
H756 H 0.48255 0.63144 0.77121 0.0
H757 H 0.47656 0.64842 0.79657 0.0
H758 H 0.44628 0.62361 0.7779 0.0
H759 H 0.37217 0.53415 0.83026 0.0
H760 H 0.37351 0.56561 0.8634 0.0
H761 H 0.45982 0.63482 0.84091 0.0
C762 C 0.45756 0.5656 0.76782 0.0
C763 C 0.44053 0.53717 0.75768 0.0
C764 C 0.41282 0.51715 0.76768 0.0
C765 C 0.40236 0.52523 0.7874 0.0
C766 C 0.41989 0.55335 0.79702 0.0
C767 C 0.44694 0.57316 0.78757 0.0
C768 C 0.46195 0.60174 0.8015 0.0
C769 C 0.49064 0.6072 0.81255 0.0
C770 C 0.46713 0.62784 0.78586 0.0
C771 C 0.43917 0.59491 0.82035 0.0
C772 C 0.41496 0.567 0.81743 0.0
C773 C 0.39106 0.55604 0.83272 0.0
C774 C 0.39201 0.57408 0.85148 0.0
C775 C 0.41682 0.60266 0.8549 0.0
C776 C 0.44059 0.61303 0.839 0.0
H777 H 0.90712 0.4056 0.93875 0.0
H778 H 0.92173 0.49361 0.92908 0.0
H779 H 0.88862 0.48531 0.96261 0.0
H780 H 0.83138 0.36996 0.95445 0.0
H781 H 0.83339 0.34622 0.97634 0.0
H782 H 0.85792 0.35893 0.95133 0.0
H783 H 0.90222 0.38051 0.98 0.0
H784 H 0.87783 0.36782 0.00509 0.0
H785 H 0.90591 0.40622 1.00276 0.0
H786 H 0.85396 0.46745 0.99726 0.0
H787 H 0.82081 0.44167 0.03084 0.0
H788 H 0.82986 0.36575 0.01858 0.0
C789 C 0.90361 0.42327 0.94379 0.0
C790 C 0.91703 0.45026 0.93118 0.0
C791 C 0.91141 0.47258 0.93819 0.0
C792 C 0.89276 0.46815 0.95732 0.0
C793 C 0.87991 0.44129 0.96932 0.0
C794 C 0.88513 0.41925 0.96287 0.0
C795 C 0.8687 0.39247 0.97877 0.0
C796 C 0.84653 0.3653 0.96436 0.0
C797 C 0.88994 0.38641 0.99247 0.0
C798 C 0.85352 0.40295 0.99525 0.0
C799 C 0.86019 0.43112 0.98943 0.0
C800 C 0.84861 0.4454 1.002 0.0
C801 C 0.82976 0.43052 0.02106 0.0
C802 C 0.82271 0.40166 0.02747 0.0
C803 C 0.83484 0.38781 0.01427 0.0
H804 H 0.44692 0.88883 0.0911 0.0
H805 H 0.53576 0.93666 0.11859 0.0
H806 H 0.51954 0.90498 0.15393 0.0
H807 H 0.41374 0.88493 0.14736 0.0
H808 H 0.38214 0.84897 0.14177 0.0
H809 H 0.40114 0.87342 0.11733 0.0
H810 H 0.40781 0.83302 0.09765 0.0
H811 H 0.38896 0.80848 0.12211 0.0
H812 H 0.42514 0.81704 0.11416 0.0
H813 H 0.49396 0.86776 0.18633 0.0
H814 H 0.45973 0.83153 0.21557 0.0
H815 H 0.38685 0.81247 0.16967 0.0
C816 C 0.46311 0.89304 0.10452 0.0
C817 C 0.49289 0.91525 0.10151 0.0
C818 C 0.51305 0.91934 0.11974 0.0
C819 C 0.50401 0.90156 0.14012 0.0
C820 C 0.47461 0.88005 0.1424 0.0
C821 C 0.45437 0.87604 0.12529 0.0
C822 C 0.42375 0.85269 0.13283 0.0
C823 C 0.40404 0.86579 0.13495 0.0
C824 C 0.41065 0.82624 0.11567 0.0
C825 C 0.42995 0.84439 0.15695 0.0
C826 C 0.45952 0.86 0.16188 0.0
C827 C 0.47074 0.85556 0.18276 0.0
C828 C 0.45118 0.83489 0.19919 0.0
C829 C 0.42073 0.81945 0.19489 0.0
C830 C 0.41003 0.82424 0.17347 0.0
H831 H 0.55522 0.44408 0.25812 0.0
H832 H 0.63386 0.53079 0.26237 0.0
H833 H 0.6515 0.51355 0.29559 0.0
H834 H 0.54523 0.43236 0.32033 0.0
H835 H 0.53168 0.39336 0.31844 0.0
H836 H 0.52652 0.41201 0.29391 0.0
H837 H 0.55204 0.39354 0.26571 0.0
H838 H 0.55733 0.37486 0.29019 0.0
H839 H 0.58818 0.40127 0.27283 0.0
H840 H 0.65966 0.4868 0.32956 0.0
H841 H 0.65674 0.45362 0.36183 0.0
H842 H 0.57164 0.38565 0.33585 0.0
C843 C 0.57611 0.45959 0.26604 0.0
C844 C 0.59311 0.48885 0.25754 0.0
C845 C 0.62057 0.50815 0.26828 0.0
C846 C 0.63073 0.49859 0.28725 0.0
C847 C 0.61319 0.46968 0.29531 0.0
C848 C 0.58644 0.45052 0.28503 0.0
C849 C 0.57118 0.42094 0.29747 0.0
C850 C 0.54193 0.4143 0.30818 0.0
C851 C 0.56695 0.3962 0.28054 0.0
C852 C 0.59329 0.42655 0.31664 0.0
C853 C 0.61756 0.45464 0.31499 0.0
C854 C 0.64076 0.46474 0.33097 0.0
C855 C 0.63893 0.44572 0.34922 0.0
C856 C 0.61391 0.41705 0.35148 0.0
C857 C 0.59101 0.40745 0.33477 0.0
H858 H 0.42341 0.90977 0.39187 0.0
H859 H 0.48787 0.89045 0.41837 0.0
H860 H 0.47583 0.85482 0.38557 0.0
H861 H 0.36984 0.83555 0.3737 0.0
H862 H 0.35917 0.84734 0.34754 0.0
H863 H 0.37277 0.87104 0.37324 0.0
H864 H 0.41259 0.91301 0.34728 0.0
H865 H 0.39915 0.88943 0.32152 0.0
H866 H 0.43694 0.90624 0.33006 0.0
H867 H 0.45697 0.8216 0.34941 0.0
H868 H 0.43283 0.79351 0.31288 0.0
H869 H 0.38047 0.83448 0.31056 0.0
C870 C 0.43476 0.8978 0.39095 0.0
C871 C 0.45657 0.90288 0.40771 0.0
C872 C 0.47129 0.88713 0.4056 0.0
C873 C 0.4645 0.86675 0.3871 0.0
C874 C 0.44297 0.86238 0.37083 0.0
C875 C 0.42833 0.87747 0.37259 0.0
C876 C 0.40647 0.86914 0.3526 0.0
C877 C 0.37521 0.85492 0.36236 0.0
C878 C 0.41427 0.89606 0.33694 0.0
C879 C 0.41097 0.84689 0.33939 0.0
C880 C 0.43214 0.8433 0.35013 0.0
C881 C 0.4403 0.82418 0.34088 0.0
C882 C 0.42647 0.80833 0.3201 0.0
C883 C 0.40466 0.81166 0.30879 0.0
C884 C 0.3969 0.83122 0.31874 0.0
H885 H 0.52619 0.41466 0.55667 0.0
H886 H 0.60728 0.4977 0.56844 0.0
H887 H 0.63015 0.48595 0.53554 0.0
H888 H 0.55801 0.37127 0.54067 0.0
H889 H 0.53098 0.35061 0.51818 0.0
H890 H 0.52164 0.36486 0.54354 0.0
H891 H 0.50488 0.39217 0.51553 0.0
H892 H 0.51408 0.37794 0.49009 0.0
H893 H 0.52981 0.41718 0.49345 0.0
H894 H 0.64371 0.46548 0.50021 0.0
H895 H 0.64614 0.43882 0.46498 0.0
H896 H 0.55553 0.37033 0.47597 0.0
C897 C 0.54872 0.43051 0.55232 0.0
C898 C 0.56489 0.4571 0.56529 0.0
C899 C 0.59449 0.47695 0.5591 0.0
C900 C 0.60766 0.47055 0.54034 0.0
C901 C 0.59098 0.44421 0.52787 0.0
C902 C 0.56212 0.42457 0.53361 0.0
C903 C 0.54861 0.39826 0.51701 0.0
C904 C 0.53927 0.36956 0.53067 0.0
C905 C 0.52283 0.39629 0.5032 0.0
C906 C 0.57424 0.40631 0.50082 0.0
C907 C 0.59859 0.43275 0.50745 0.0
C908 C 0.62477 0.44472 0.4949 0.0
C909 C 0.62596 0.42938 0.47492 0.0
C910 C 0.60104 0.40249 0.46759 0.0
C911 C 0.57499 0.39085 0.48096 0.0
H912 H 0.11504 0.56197 0.73052 0.0
H913 H 0.10952 0.47735 0.72669 0.0
H914 H 0.14466 0.49582 0.69332 0.0
H915 H 0.1176 0.57403 0.6678 0.0
H916 H 0.14263 0.61327 0.67019 0.0
H917 H 0.11796 0.59351 0.69423 0.0
H918 H 0.16176 0.61334 0.72333 0.0
H919 H 0.18657 0.6331 0.69935 0.0
H920 H 0.19126 0.60732 0.71683 0.0
H921 H 0.18022 0.52396 0.65943 0.0
H922 H 0.21205 0.55876 0.6282 0.0
H923 H 0.19248 0.6238 0.65448 0.0
C924 C 0.12095 0.54715 0.72259 0.0
C925 C 0.1094 0.51815 0.73127 0.0
C926 C 0.11829 0.49978 0.72057 0.0
C927 C 0.13814 0.51002 0.70152 0.0
C928 C 0.14895 0.53871 0.69336 0.0
C929 C 0.14059 0.55696 0.70359 0.0
C930 C 0.15491 0.58668 0.69143 0.0
C931 C 0.1319 0.59218 0.68025 0.0
C932 C 0.17481 0.61157 0.70877 0.0
C933 C 0.17249 0.5823 0.67261 0.0
C934 C 0.16897 0.5546 0.67399 0.0
C935 C 0.18312 0.54572 0.65823 0.0
C936 C 0.20118 0.56565 0.64056 0.0
C937 C 0.2048 0.59406 0.63875 0.0
C938 C 0.19025 0.6023 0.65518 0.0
H939 H 0.61373 0.1102 0.88756 0.0
H940 H 0.53716 0.11414 0.90648 0.0
H941 H 0.54691 0.14812 0.87309 0.0
H942 H 0.65897 0.18709 0.87139 0.0
H943 H 0.67646 0.17998 0.84712 0.0
H944 H 0.66327 0.15551 0.87233 0.0
H945 H 0.6322 0.11121 0.84425 0.0
H946 H 0.64522 0.13556 0.81896 0.0
H947 H 0.60655 0.11244 0.82422 0.0
H948 H 0.56459 0.1814 0.83785 0.0
H949 H 0.58972 0.213 0.80338 0.0
H950 H 0.65579 0.18879 0.8075 0.0
C951 C 0.59913 0.11838 0.88481 0.0
C952 C 0.57451 0.10925 0.89959 0.0
C953 C 0.55583 0.12031 0.89518 0.0
C954 C 0.56127 0.13978 0.87633 0.0
C955 C 0.58557 0.14814 0.86206 0.0
C956 C 0.60428 0.13793 0.86608 0.0
C957 C 0.62895 0.1506 0.8481 0.0
C958 C 0.65867 0.16942 0.86048 0.0
C959 C 0.62817 0.12598 0.83299 0.0
C960 C 0.62116 0.16956 0.83339 0.0
C961 C 0.596 0.1677 0.84175 0.0
C962 C 0.58434 0.18307 0.83114 0.0
C963 C 0.59882 0.20096 0.8115 0.0
C964 C 0.62481 0.20348 0.80261 0.0
C965 C 0.63601 0.18742 0.81378 0.0
H966 H 0.50141 0.60762 0.0592 0.0
H967 H 0.42153 0.523 0.06906 0.0
H968 H 0.39809 0.53521 0.0369 0.0
H969 H 0.46733 0.64985 0.0451 0.0
H970 H 0.49437 0.67208 0.02313 0.0
H971 H 0.50414 0.65742 0.04796 0.0
H972 H 0.52261 0.63252 0.01898 0.0
H973 H 0.51304 0.64719 0.99409 0.0
H974 H 0.49844 0.60803 0.99624 0.0
H975 H 0.38402 0.55612 1.00232 0.0
H976 H 0.3812 0.58303 0.96751 0.0
H977 H 0.47087 0.65317 0.97993 0.0
C978 C 0.47901 0.59155 0.05459 0.0
C979 C 0.46335 0.56433 0.06675 0.0
C980 C 0.43391 0.54418 0.06029 0.0
C981 C 0.42042 0.55087 0.04197 0.0
C982 C 0.43659 0.57784 0.03028 0.0
C983 C 0.46526 0.59783 0.03635 0.0
C984 C 0.47826 0.6248 0.02052 0.0
C985 C 0.4865 0.65268 0.03505 0.0
C986 C 0.50464 0.62832 0.00663 0.0
C987 C 0.45263 0.61663 0.00424 0.0
C988 C 0.42866 0.58964 0.0103 0.0
C989 C 0.40263 0.57734 0.99748 0.0
C990 C 0.40122 0.59284 0.97775 0.0
C991 C 0.4258 0.62024 0.97088 0.0
C992 C 0.45165 0.6323 0.98461 0.0
H993 H 0.9304 0.467 0.21297 0.0
H994 H 0.87942 0.49433 0.25394 0.0
H995 H 0.84071 0.47222 0.2238 0.0
H996 H 0.90929 0.47567 0.1548 0.0
H997 H 0.90665 0.44266 0.14311 0.0
H998 H 0.93155 0.46245 0.16709 0.0
H999 H 0.90734 0.41491 0.19265 0.0
H1000 H 0.8824 0.39495 0.16874 0.0
H1001 H 0.86851 0.39557 0.19778 0.0
H1002 H 0.80783 0.44831 0.18858 0.0
H1003 H 0.78129 0.42028 0.15264 0.0
H1004 H 0.85052 0.40302 0.13736 0.0
C1005 C 0.91107 0.46819 0.21595 0.0
C1006 C 0.90857 0.48308 0.23595 0.0
C1007 C 0.88271 0.48412 0.23857 0.0
C1008 C 0.86029 0.47128 0.2216 0.0
C1009 C 0.86358 0.45684 0.20227 0.0
C1010 C 0.88811 0.45482 0.19953 0.0
C1011 C 0.88557 0.43678 0.17771 0.0
C1012 C 0.9097 0.45552 0.15961 0.0
C1013 C 0.88597 0.4089 0.18464 0.0
C1014 C 0.85581 0.42911 0.16856 0.0
C1015 C 0.8437 0.44128 0.18282 0.0
C1016 C 0.81693 0.43839 0.17743 0.0
C1017 C 0.80207 0.42252 0.15699 0.0
C1018 C 0.81373 0.40925 0.14246 0.0
C1019 C 0.8409 0.41253 0.14841 0.0
loop_
_geom_bond_atom_site_label_1
_geom_bond_atom_site_label_2
_geom_bond_distance
_geom_bond_site_symmetry_2
_ccdc_geom_bond_type
H0 C19 0.949 . S
H1 C20 0.950 . S
H2 C22 0.950 . S
H3 C23 0.950 . S
H4 C25 0.950 . S
H5 C28 0.950 . S
H6 C29 0.950 . S
H7 C31 0.951 . S
H8 C32 0.949 . S
H9 C34 0.949 . S
H10 C35 0.950 . S
H11 C37 0.950 . S
H12 C38 0.950 . S
H13 C40 0.943 1_655 S
H14 C43 0.950 . S
H15 C44 0.950 . S
H16 C46 0.951 . S
H17 C47 0.949 . S
C18 C19 1.376 . S
C18 C23 1.386 . S
C18 C24 1.483 . S
C19 H0 0.949 . S
C19 C18 1.376 . S
C19 C20 1.397 . S
C20 H1 0.950 . S
C20 C19 1.397 . S
C20 C21 1.391 . S
C21 C20 1.391 . S
C21 C22 1.405 . S
C22 H2 0.950 . S
C22 C21 1.405 . S
C22 C23 1.367 . S
C23 H3 0.950 . S
C23 C18 1.386 . S
C23 C22 1.367 . S
C24 C18 1.483 . S
C24 C25 1.382 1_655 S
C24 C26 1.403 . S
C25 H4 0.950 . S
C25 C24 1.382 1_455 S
C25 C41 1.411 . S
C26 C24 1.403 . S
C26 C27 1.489 . S
C26 C40 1.399 1_655 S
C27 C26 1.489 . S
C27 C28 1.383 . S
C27 C32 1.382 . S
C28 H5 0.950 . S
C28 C27 1.383 . S
C28 C29 1.395 . S
C29 H6 0.950 . S
C29 C28 1.395 . S
C29 C30 1.288 . S
C30 C29 1.288 . S
C30 C31 1.392 . S
C31 H7 0.951 . S
C31 C30 1.392 . S
C31 C32 1.392 . S
C32 H8 0.949 . S
C32 C27 1.382 . S
C32 C31 1.392 . S
C33 C34 1.376 . S
C33 C38 1.386 . S
C33 C39 1.483 . S
C34 H9 0.949 . S
C34 C33 1.376 . S
C34 C35 1.397 . S
C35 H10 0.950 . S
C35 C34 1.397 . S
C35 C36 1.391 . S
C36 C35 1.391 . S
C36 C37 1.405 . S
C37 H11 0.950 . S
C37 C36 1.405 . S
C37 C38 1.367 . S
C38 H12 0.950 . S
C38 C33 1.386 . S
C38 C37 1.367 . S
C39 C33 1.483 . S
C39 C40 1.401 . S
C39 C41 1.403 . S
C40 H13 0.943 1_455 S
C40 C26 1.399 1_455 S
C40 C39 1.401 . S
C41 C25 1.411 . S
C41 C39 1.403 . S
C41 C42 1.489 . S
C42 C41 1.489 . S
C42 C43 1.383 . S
C42 C47 1.382 . S
C43 H14 0.950 . S
C43 C42 1.383 . S
C43 C44 1.395 . S
C44 H15 0.950 . S
C44 C43 1.395 . S
C44 C45 1.288 . S
C45 C44 1.288 . S
C45 C46 1.392 . S
C46 H16 0.951 . S
C46 C45 1.392 . S
C46 C47 1.392 . S
C47 H17 0.949 . S
C47 C42 1.382 . S
C47 C46 1.392 . S
H48 C67 0.949 . S
H49 C68 0.950 . S
H50 C70 0.950 . S
H51 C71 0.950 . S
H52 C73 0.960 . S
H53 C76 0.950 . S
H54 C77 0.950 . S
H55 C79 0.951 . S
H56 C80 0.949 . S
H57 C82 0.949 . S
H58 C83 0.950 . S
H59 C85 0.950 . S
H60 C86 0.950 . S
H61 C88 0.950 . S
H62 C91 0.950 . S
H63 C92 0.950 . S
H64 C94 0.951 . S
H65 C95 0.949 . S
C66 C67 1.376 . S
C66 C71 1.386 . S
C66 C72 1.483 . S
C67 H48 0.949 . S
C67 C66 1.376 . S
C67 C68 1.397 . S
C68 H49 0.950 . S
C68 C67 1.397 . S
C68 C69 1.391 . S
C69 C68 1.391 . S
C69 C70 1.405 . S
C70 H50 0.950 . S
C70 C69 1.405 . S
C70 C71 1.367 . S
C71 H51 0.950 . S
C71 C66 1.386 . S
C71 C70 1.367 . S
C72 C66 1.483 . S
C72 C73 1.410 . S
C72 C74 1.403 . S
C73 H52 0.960 . S
C73 C72 1.410 . S
C73 C89 1.375 1_565 S
C74 C72 1.403 . S
C74 C75 1.489 . S
C74 C88 1.411 1_565 S
C75 C74 1.489 . S
C75 C76 1.383 . S
C75 C80 1.382 . S
C76 H53 0.950 . S
C76 C75 1.383 . S
C76 C77 1.395 . S
C77 H54 0.950 . S
C77 C76 1.395 . S
C77 C78 1.288 . S
C78 C77 1.288 . S
C78 C79 1.392 . S
C79 H55 0.951 . S
C79 C78 1.392 . S
C79 C80 1.392 . S
C80 H56 0.949 . S
C80 C75 1.382 . S
C80 C79 1.392 . S
C81 C82 1.376 . S
C81 C86 1.386 . S
C81 C87 1.483 . S
C82 H57 0.949 . S
C82 C81 1.376 . S
C82 C83 1.397 . S
C83 H58 0.950 . S
C83 C82 1.397 . S
C83 C84 1.391 . S
C84 C83 1.391 . S
C84 C85 1.405 . S
C85 H59 0.950 . S
C85 C84 1.405 . S
C85 C86 1.367 . S
C86 H60 0.950 . S
C86 C81 1.386 . S
C86 C85 1.367 . S
C87 C81 1.483 . S
C87 C88 1.382 . S
C87 C89 1.403 . S
C88 H61 0.950 . S
C88 C74 1.411 1_545 S
C88 C87 1.382 . S
C89 C73 1.375 1_545 S
C89 C87 1.403 . S
C89 C90 1.489 . S
C90 C89 1.489 . S
C90 C91 1.383 . S
C90 C95 1.382 . S
C91 H62 0.950 . S
C91 C90 1.383 . S
C91 C92 1.395 . S
C92 H63 0.950 . S
C92 C91 1.395 . S
C92 C93 1.288 . S
C93 C92 1.288 . S
C93 C94 1.392 . S
C94 H64 0.951 . S
C94 C93 1.392 . S
C94 C95 1.392 . S
C95 H65 0.949 . S
C95 C90 1.382 . S
C95 C94 1.392 . S
H96 C115 0.949 . S
H97 C116 0.950 . S
H98 C118 0.950 . S
H99 C119 0.950 . S
H100 C121 0.950 . S
H101 C124 0.950 . S
H102 C125 0.950 . S
H103 C127 0.951 . S
H104 C128 0.949 . S
H105 C130 0.949 . S
H106 C131 0.950 . S
H107 C133 0.950 . S
H108 C134 0.950 . S
H109 C136 0.950 . S
H110 C139 0.950 . S
H111 C140 0.950 . S
H112 C142 0.951 . S
H113 C143 0.949 . S
C114 C115 1.376 . S
C114 C119 1.386 . S
C114 C120 1.483 . S
C115 H96 0.949 . S
C115 C114 1.376 . S
C115 C116 1.397 . S
C116 H97 0.950 . S
C116 C115 1.397 . S
C116 C117 1.391 . S
C117 C116 1.391 . S
C117 C118 1.405 . S
C118 H98 0.950 . S
C118 C117 1.405 . S
C118 C119 1.367 . S
C119 H99 0.950 . S
C119 C114 1.386 . S
C119 C118 1.367 . S
C120 C114 1.483 . S
C120 C121 1.382 . S
C120 C122 1.403 . S
C121 H100 0.950 . S
C121 C120 1.382 . S
C121 C137 1.411 . S
C122 C120 1.403 . S
C122 C123 1.489 . S
C122 C136 1.411 . S
C123 C122 1.489 . S
C123 C124 1.383 . S
C123 C128 1.382 . S
C124 H101 0.950 . S
C124 C123 1.383 . S
C124 C125 1.395 . S
C125 H102 0.950 . S
C125 C124 1.395 . S
C125 C126 1.288 . S
C126 C125 1.288 . S
C126 C127 1.392 . S
C127 H103 0.951 . S
C127 C126 1.392 . S
C127 C128 1.392 . S
C128 H104 0.949 . S
C128 C123 1.382 . S
C128 C127 1.392 . S
C129 C130 1.376 . S
C129 C134 1.386 . S
C129 C135 1.483 . S
C130 H105 0.949 . S
C130 C129 1.376 . S
C130 C131 1.397 . S
C131 H106 0.950 . S
C131 C130 1.397 . S
C131 C132 1.391 . S
C132 C131 1.391 . S
C132 C133 1.405 . S
C133 H107 0.950 . S
C133 C132 1.405 . S
C133 C134 1.367 . S
C134 H108 0.950 . S
C134 C129 1.386 . S
C134 C133 1.367 . S
C135 C129 1.483 . S
C135 C136 1.382 . S
C135 C137 1.403 . S
C136 H109 0.950 . S
C136 C122 1.411 . S
C136 C135 1.382 . S
C137 C121 1.411 . S
C137 C135 1.403 . S
C137 C138 1.489 . S
C138 C137 1.489 . S
C138 C139 1.383 . S
C138 C143 1.382 . S
C139 H110 0.950 . S
C139 C138 1.383 . S
C139 C140 1.395 . S
C140 H111 0.950 . S
C140 C139 1.395 . S
C140 C141 1.288 . S
C141 C140 1.288 . S
C141 C142 1.392 . S
C142 H112 0.951 . S
C142 C141 1.392 . S
C142 C143 1.392 . S
C143 H113 0.949 . S
C143 C138 1.382 . S
C143 C142 1.392 . S
H144 C163 0.949 . S
H145 C164 0.950 . S
H146 C166 0.950 . S
H147 C167 0.950 . S
H148 C169 0.950 . S
H149 C172 0.950 . S
H150 C173 0.950 . S
H151 C175 0.951 . S
H152 C176 0.949 . S
H153 C178 0.949 . S
H154 C179 0.950 . S
H155 C181 0.950 . S
H156 C182 0.950 . S
H157 C184 0.950 . S
H158 C187 0.950 . S
H159 C188 0.950 . S
H160 C190 0.951 . S
H161 C191 0.949 . S
C162 C163 1.376 . S
C162 C167 1.386 . S
C162 C168 1.483 . S
C163 H144 0.949 . S
C163 C162 1.376 . S
C163 C164 1.397 . S
C164 H145 0.950 . S
C164 C163 1.397 . S
C164 C165 1.391 . S
C165 C164 1.391 . S
C165 C166 1.405 . S
C166 H146 0.950 . S
C166 C165 1.405 . S
C166 C167 1.367 . S
C167 H147 0.950 . S
C167 C162 1.386 . S
C167 C166 1.367 . S
C168 C162 1.483 . S
C168 C169 1.382 1_455 S
C168 C170 1.403 . S
C169 H148 0.950 . S
C169 C168 1.382 1_655 S
C169 C185 1.411 . S
C170 C168 1.403 . S
C170 C171 1.489 . S
C170 C184 1.411 . S
C171 C170 1.489 . S
C171 C172 1.383 . S
C171 C176 1.382 . S
C172 H149 0.950 . S
C172 C171 1.383 . S
C172 C173 1.395 . S
C173 H150 0.950 . S
C173 C172 1.395 . S
C173 C174 1.288 . S
C174 C173 1.288 . S
C174 C175 1.392 . S
C175 H151 0.951 . S
C175 C174 1.392 . S
C175 C176 1.392 . S
C176 H152 0.949 . S
C176 C171 1.382 . S
C176 C175 1.392 . S
C177 C178 1.376 . S
C177 C182 1.386 . S
C177 C183 1.483 . S
C178 H153 0.949 . S
C178 C177 1.376 . S
C178 C179 1.397 . S
C179 H154 0.950 . S
C179 C178 1.397 . S
C179 C180 1.391 . S
C180 C179 1.391 . S
C180 C181 1.405 . S
C181 H155 0.950 . S
C181 C180 1.405 . S
C181 C182 1.367 . S
C182 H156 0.950 . S
C182 C177 1.386 . S
C182 C181 1.367 . S
C183 C177 1.483 . S
C183 C184 1.382 1_655 S
C183 C185 1.403 . S
C184 H157 0.950 . S
C184 C170 1.411 . S
C184 C183 1.382 1_455 S
C185 C169 1.411 . S
C185 C183 1.403 . S
C185 C186 1.489 . S
C186 C185 1.489 . S
C186 C187 1.383 . S
C186 C191 1.382 . S
C187 H158 0.950 . S
C187 C186 1.383 . S
C187 C188 1.395 . S
C188 H159 0.950 . S
C188 C187 1.395 . S
C188 C189 1.288 . S
C189 C188 1.288 . S
C189 C190 1.392 . S
C190 H160 0.951 . S
C190 C189 1.392 . S
C190 C191 1.392 . S
C191 H161 0.949 . S
C191 C186 1.382 . S
C191 C190 1.392 . S
H192 C211 0.949 . S
H193 C212 0.950 . S
H194 C214 0.950 . S
H195 C215 0.952 1_556 S
H196 C217 0.950 . S
H197 C220 0.950 . S
H198 C221 0.950 . S
H199 C223 0.951 . S
H200 C224 0.949 . S
H201 C226 0.949 . S
H202 C227 0.950 . S
H203 C229 0.950 . S
H204 C230 0.950 . S
H205 C232 0.950 . S
H206 C235 0.950 . S
H207 C236 0.950 . S
H208 C238 0.951 . S
H209 C239 0.949 . S
C210 C211 1.376 . S
C210 C215 1.385 . S
C210 C216 1.472 1_554 S
C211 H192 0.949 . S
C211 C210 1.376 . S
C211 C212 1.397 . S
C212 H193 0.950 . S
C212 C211 1.397 . S
C212 C213 1.391 . S
C213 C212 1.391 . S
C213 C214 1.405 . S
C214 H194 0.950 . S
C214 C213 1.405 . S
C214 C215 1.366 . S
C215 H195 0.952 1_554 S
C215 C210 1.385 . S
C215 C214 1.366 . S
C216 C210 1.472 1_556 S
C216 C217 1.346 1_556 S
C216 C218 1.449 . S
C217 H196 0.950 . S
C217 C216 1.346 1_554 S
C217 C233 1.411 1_545 S
C218 C216 1.449 . S
C218 C219 1.489 . S
C218 C232 1.411 1_545 S
C219 C218 1.489 . S
C219 C220 1.383 . S
C219 C224 1.382 . S
C220 H197 0.950 . S
C220 C219 1.383 . S
C220 C221 1.395 . S
C221 H198 0.950 . S
C221 C220 1.395 . S
C221 C222 1.288 . S
C222 C221 1.288 . S
C222 C223 1.392 . S
C223 H199 0.951 . S
C223 C222 1.392 . S
C223 C224 1.392 . S
C224 H200 0.949 . S
C224 C219 1.382 . S
C224 C223 1.392 . S
C225 C226 1.376 . S
C225 C230 1.386 . S
C225 C231 1.483 . S
C226 H201 0.949 . S
C226 C225 1.376 . S
C226 C227 1.397 . S
C227 H202 0.950 . S
C227 C226 1.397 . S
C227 C228 1.391 . S
C228 C227 1.391 . S
C228 C229 1.405 . S
C229 H203 0.950 . S
C229 C228 1.405 . S
C229 C230 1.367 . S
C230 H204 0.950 . S
C230 C225 1.386 . S
C230 C229 1.367 . S
C231 C225 1.483 . S
C231 C232 1.382 . S
C231 C233 1.403 1_556 S
C232 H205 0.950 . S
C232 C218 1.411 1_565 S
C232 C231 1.382 . S
C233 C217 1.411 1_565 S
C233 C231 1.403 1_554 S
C233 C234 1.489 . S
C234 C233 1.489 . S
C234 C235 1.383 . S
C234 C239 1.382 . S
C235 H206 0.950 . S
C235 C234 1.383 . S
C235 C236 1.395 . S
C236 H207 0.950 . S
C236 C235 1.395 . S
C236 C237 1.288 . S
C237 C236 1.288 . S
C237 C238 1.392 . S
C238 H208 0.951 . S
C238 C237 1.392 . S
C238 C239 1.392 . S
C239 H209 0.949 . S
C239 C234 1.382 . S
C239 C238 1.392 . S
H240 C259 0.949 . S
H241 C260 0.950 . S
H242 C262 0.950 . S
H243 C263 0.950 . S
H244 C265 0.950 . S
H245 C268 0.950 . S
H246 C269 0.950 . S
H247 C271 0.951 . S
H248 C272 0.949 . S
H249 C274 0.949 . S
H250 C275 0.950 . S
H251 C277 0.950 . S
H252 C278 0.950 . S
H253 C280 0.950 . S
H254 C283 0.950 . S
H255 C284 0.950 . S
H256 C286 0.951 . S
H257 C287 0.949 . S
C258 C259 1.376 . S
C258 C263 1.386 . S
C258 C264 1.483 . S
C259 H240 0.949 . S
C259 C258 1.376 . S
C259 C260 1.397 . S
C260 H241 0.950 . S
C260 C259 1.397 . S
C260 C261 1.391 . S
C261 C260 1.391 . S
C261 C262 1.405 . S
C262 H242 0.950 . S
C262 C261 1.405 . S
C262 C263 1.367 . S
C263 H243 0.950 . S
C263 C258 1.386 . S
C263 C262 1.367 . S
C264 C258 1.483 . S
C264 C265 1.382 . S
C264 C266 1.403 . S
C265 H244 0.950 . S
C265 C264 1.382 . S
C265 C281 1.411 . S
C266 C264 1.403 . S
C266 C267 1.489 . S
C266 C280 1.411 . S
C267 C266 1.489 . S
C267 C268 1.383 . S
C267 C272 1.382 . S
C268 H245 0.950 . S
C268 C267 1.383 . S
C268 C269 1.395 . S
C269 H246 0.950 . S
C269 C268 1.395 . S
C269 C270 1.288 . S
C270 C269 1.288 . S
C270 C271 1.392 . S
C271 H247 0.951 . S
C271 C270 1.392 . S
C271 C272 1.392 . S
C272 H248 0.949 . S
C272 C267 1.382 . S
C272 C271 1.392 . S
C273 C274 1.376 . S
C273 C278 1.386 . S
C273 C279 1.483 . S
C274 H249 0.949 . S
C274 C273 1.376 . S
C274 C275 1.397 . S
C275 H250 0.950 . S
C275 C274 1.397 . S
C275 C276 1.391 . S
C276 C275 1.391 . S
C276 C277 1.405 . S
C277 H251 0.950 . S
C277 C276 1.405 . S
C277 C278 1.367 . S
C278 H252 0.950 . S
C278 C273 1.386 . S
C278 C277 1.367 . S
C279 C273 1.483 . S
C279 C280 1.382 . S
C279 C281 1.403 . S
C280 H253 0.950 . S
C280 C266 1.411 . S
C280 C279 1.382 . S
C281 C265 1.411 . S
C281 C279 1.403 . S
C281 C282 1.489 . S
C282 C281 1.489 . S
C282 C283 1.383 . S
C282 C287 1.382 . S
C283 H254 0.950 . S
C283 C282 1.383 . S
C283 C284 1.395 . S
C284 H255 0.950 . S
C284 C283 1.395 . S
C284 C285 1.288 . S
C285 C284 1.288 . S
C285 C286 1.392 . S
C286 H256 0.951 . S
C286 C285 1.392 . S
C286 C287 1.392 . S
C287 H257 0.949 . S
C287 C282 1.382 . S
C287 C286 1.392 . S
Co288 O289 2.216 . S
Co288 O290 2.091 . S
Co288 O292 2.004 . S
Co288 O298 2.021 . S
Co288 O300 2.137 . S
Co288 O301 2.244 . S
O289 Co288 2.216 . S
O289 C296 1.247 . S
O290 Co288 2.091 . S
O290 C296 1.261 . S
C291 O300 1.247 . S
C291 O301 1.272 . S
O292 Co288 2.004 . S
O292 C297 1.259 . S
Co293 O294 2.061 . S
Co293 O299 2.052 . S
Co293 O301 2.135 . S
O294 Co293 2.061 . S
O294 C297 1.235 . S
C295 O298 1.238 . S
C295 O299 1.241 . S
C296 O289 1.247 . S
C296 O290 1.261 . S
C297 O292 1.259 . S
C297 O294 1.235 . S
O298 Co288 2.021 . S
O298 C295 1.238 . S
O299 Co293 2.052 . S
O299 C295 1.241 . S
O300 Co288 2.137 . S
O300 C291 1.247 . S
O301 Co288 2.244 . S
O301 C291 1.272 . S
O301 Co293 2.135 . S
Co302 O303 2.216 . S
Co302 O304 2.091 . S
Co302 O306 2.004 . S
Co302 O312 2.021 . S
Co302 O314 2.137 . S
Co302 O315 2.244 . S
O303 Co302 2.216 . S
O303 C310 1.247 . S
O304 Co302 2.091 . S
O304 C310 1.261 . S
C305 O314 1.247 . S
C305 O315 1.272 . S
O306 Co302 2.004 . S
O306 C311 1.259 . S
Co307 O308 2.061 . S
Co307 O313 2.052 . S
Co307 O315 2.135 . S
O308 Co307 2.061 . S
O308 C311 1.235 . S
C309 O312 1.238 . S
C309 O313 1.241 . S
C310 O303 1.247 . S
C310 O304 1.261 . S
C311 O306 1.259 . S
C311 O308 1.235 . S
O312 Co302 2.021 . S
O312 C309 1.238 . S
O313 Co307 2.052 . S
O313 C309 1.241 . S
O314 Co302 2.137 . S
O314 C305 1.247 . S
O315 Co302 2.244 . S
O315 C305 1.272 . S
O315 Co307 2.135 . S
Co316 O317 2.216 . S
Co316 O318 2.091 . S
Co316 O320 2.004 . S
Co316 O326 2.021 . S
Co316 O328 2.137 . S
Co316 O329 2.244 . S
O317 Co316 2.216 . S
O317 C324 1.247 . S
O318 Co316 2.091 . S
O318 C324 1.261 . S
C319 O328 1.247 . S
C319 O329 1.272 . S
O320 Co316 2.004 . S
O320 C325 1.259 . S
Co321 O322 2.061 . S
Co321 O327 2.052 . S
Co321 O329 2.135 . S
O322 Co321 2.061 . S
O322 C325 1.235 . S
C323 O326 1.238 . S
C323 O327 1.241 . S
C324 O317 1.247 . S
C324 O318 1.261 . S
C325 O320 1.259 . S
C325 O322 1.235 . S
O326 Co316 2.021 . S
O326 C323 1.238 . S
O327 Co321 2.052 . S
O327 C323 1.241 . S
O328 Co316 2.137 . S
O328 C319 1.247 . S
O329 Co316 2.244 . S
O329 C319 1.272 . S
O329 Co321 2.135 . S
Co330 O331 2.216 . S
Co330 O332 2.091 . S
Co330 O334 2.004 . S
Co330 O340 2.021 . S
Co330 O342 2.137 . S
Co330 O343 2.244 . S
O331 Co330 2.216 . S
O331 C338 1.247 . S
O332 Co330 2.091 . S
O332 C338 1.261 . S
C333 O342 1.247 . S
C333 O343 1.272 . S
O334 Co330 2.004 . S
O334 C339 1.259 . S
Co335 O336 2.061 . S
Co335 O341 2.052 . S
Co335 O343 2.135 . S
O336 Co335 2.061 . S
O336 C339 1.235 . S
C337 O340 1.238 . S
C337 O341 1.241 . S
C338 O331 1.247 . S
C338 O332 1.261 . S
C339 O334 1.259 . S
C339 O336 1.235 . S
O340 Co330 2.021 . S
O340 C337 1.238 . S
O341 Co335 2.052 . S
O341 C337 1.241 . S
O342 Co330 2.137 . S
O342 C333 1.247 . S
O343 Co330 2.244 . S
O343 C333 1.272 . S
O343 Co335 2.135 . S
Co344 O345 2.216 . S
Co344 O346 2.091 . S
Co344 O348 2.004 . S
Co344 O354 2.021 . S
Co344 O356 2.137 . S
Co344 O357 2.244 . S
O345 Co344 2.216 . S
O345 C352 1.247 . S
O346 Co344 2.091 . S
O346 C352 1.261 . S
C347 O356 1.247 . S
C347 O357 1.272 . S
O348 Co344 2.004 . S
O348 C353 1.259 . S
Co349 O350 2.061 . S
Co349 O355 2.052 . S
Co349 O357 2.135 . S
O350 Co349 2.061 . S
O350 C353 1.235 . S
C351 O354 1.238 . S
C351 O355 1.241 . S
C352 O345 1.247 . S
C352 O346 1.261 . S
C353 O348 1.259 . S
C353 O350 1.235 . S
O354 Co344 2.021 . S
O354 C351 1.238 . S
O355 Co349 2.052 . S
O355 C351 1.241 . S
O356 Co344 2.137 . S
O356 C347 1.247 . S
O357 Co344 2.244 . S
O357 C347 1.272 . S
O357 Co349 2.135 . S
Co358 O359 2.216 . S
Co358 O360 2.091 . S
Co358 O362 2.004 . S
Co358 O368 2.021 . S
Co358 O370 2.137 . S
Co358 O371 2.244 . S
O359 Co358 2.216 . S
O359 C366 1.247 . S
O360 Co358 2.091 . S
O360 C366 1.261 . S
C361 O370 1.247 . S
C361 O371 1.272 . S
O362 Co358 2.004 . S
O362 C367 1.259 . S
Co363 O364 2.061 . S
Co363 O369 2.052 . S
Co363 O371 2.135 . S
O364 Co363 2.061 . S
O364 C367 1.235 . S
C365 O368 1.238 . S
C365 O369 1.241 . S
C366 O359 1.247 . S
C366 O360 1.261 . S
C367 O362 1.259 . S
C367 O364 1.235 . S
O368 Co358 2.021 . S
O368 C365 1.238 . S
O369 Co363 2.052 . S
O369 C365 1.241 . S
O370 Co358 2.137 . S
O370 C361 1.247 . S
O371 Co358 2.244 . S
O371 C361 1.272 . S
O371 Co363 2.135 . S
H372 C384 0.930 . S
H373 C386 0.930 . S
H374 C387 0.930 . S
H375 C391 0.959 . S
H376 C391 0.959 . S
H377 C391 0.961 . S
H378 C392 0.960 . S
H379 C392 0.961 . S
H380 C392 0.959 . S
H381 C395 0.929 . S
H382 C396 0.931 . S
H383 C398 0.930 . S
C384 H372 0.930 . S
C384 C385 1.399 . S
C384 C389 1.399 . S
C385 C384 1.399 . S
C385 C386 1.376 . S
C386 H373 0.930 . S
C386 C385 1.376 . S
C386 C387 1.388 . S
C387 H374 0.930 . S
C387 C386 1.388 . S
C387 C388 1.390 . S
C388 C387 1.390 . S
C388 C389 1.394 . S
C388 C394 1.465 . S
C389 C384 1.399 . S
C389 C388 1.394 . S
C389 C390 1.516 . S
C390 C389 1.516 . S
C390 C391 1.502 . S
C390 C392 1.561 . S
C390 C393 1.526 . S
C391 H375 0.959 . S
C391 H376 0.959 . S
C391 H377 0.961 . S
C391 C390 1.502 . S
C392 H378 0.960 . S
C392 H379 0.961 . S
C392 H380 0.959 . S
C392 C390 1.561 . S
C393 C390 1.526 . S
C393 C394 1.396 . S
C393 C398 1.390 . S
C394 C388 1.465 . S
C394 C393 1.396 . S
C394 C395 1.399 . S
C395 H381 0.929 . S
C395 C394 1.399 . S
C395 C396 1.385 . S
C396 H382 0.931 . S
C396 C395 1.385 . S
C396 C397 1.389 . S
C397 C396 1.389 . S
C397 C398 1.387 . S
C398 H383 0.930 . S
C398 C393 1.390 . S
C398 C397 1.387 . S
H399 C411 0.930 . S
H400 C413 0.930 . S
H401 C414 0.930 . S
H402 C418 0.959 . S
H403 C418 0.959 . S
H404 C418 0.961 . S
H405 C419 0.960 . S
H406 C419 0.961 . S
H407 C419 0.959 . S
H408 C422 0.929 . S
H409 C423 0.931 . S
H410 C425 0.930 . S
C411 H399 0.930 . S
C411 C412 1.399 . S
C411 C416 1.399 . S
C412 C411 1.399 . S
C412 C413 1.376 . S
C413 H400 0.930 . S
C413 C412 1.376 . S
C413 C414 1.388 . S
C414 H401 0.930 . S
C414 C413 1.388 . S
C414 C415 1.390 . S
C415 C414 1.390 . S
C415 C416 1.394 . S
C415 C421 1.465 . S
C416 C411 1.399 . S
C416 C415 1.394 . S
C416 C417 1.516 . S
C417 C416 1.516 . S
C417 C418 1.502 . S
C417 C419 1.561 . S
C417 C420 1.526 . S
C418 H402 0.959 . S
C418 H403 0.959 . S
C418 H404 0.961 . S
C418 C417 1.502 . S
C419 H405 0.960 . S
C419 H406 0.961 . S
C419 H407 0.959 . S
C419 C417 1.561 . S
C420 C417 1.526 . S
C420 C421 1.396 . S
C420 C425 1.390 . S
C421 C415 1.465 . S
C421 C420 1.396 . S
C421 C422 1.399 . S
C422 H408 0.929 . S
C422 C421 1.399 . S
C422 C423 1.385 . S
C423 H409 0.931 . S
C423 C422 1.385 . S
C423 C424 1.389 . S
C424 C423 1.389 . S
C424 C425 1.387 . S
C425 H410 0.930 . S
C425 C420 1.390 . S
C425 C424 1.387 . S
H426 C438 0.930 . S
H427 C440 0.930 . S
H428 C441 0.930 . S
H429 C445 0.959 . S
H430 C445 0.959 . S
H431 C445 0.961 . S
H432 C446 0.960 . S
H433 C446 0.961 . S
H434 C446 0.959 . S
H435 C449 0.929 . S
H436 C450 0.931 . S
H437 C452 0.930 . S
C438 H426 0.930 . S
C438 C439 1.399 . S
C438 C443 1.399 . S
C439 C438 1.399 . S
C439 C440 1.376 . S
C440 H427 0.930 . S
C440 C439 1.376 . S
C440 C441 1.388 . S
C441 H428 0.930 . S
C441 C440 1.388 . S
C441 C442 1.390 . S
C442 C441 1.390 . S
C442 C443 1.394 . S
C442 C448 1.465 . S
C443 C438 1.399 . S
C443 C442 1.394 . S
C443 C444 1.516 . S
C444 C443 1.516 . S
C444 C445 1.502 . S
C444 C446 1.561 . S
C444 C447 1.526 . S
C445 H429 0.959 . S
C445 H430 0.959 . S
C445 H431 0.961 . S
C445 C444 1.502 . S
C446 H432 0.960 . S
C446 H433 0.961 . S
C446 H434 0.959 . S
C446 C444 1.561 . S
C447 C444 1.526 . S
C447 C448 1.396 . S
C447 C452 1.390 . S
C448 C442 1.465 . S
C448 C447 1.396 . S
C448 C449 1.399 . S
C449 H435 0.929 . S
C449 C448 1.399 . S
C449 C450 1.385 . S
C450 H436 0.931 . S
C450 C449 1.385 . S
C450 C451 1.389 . S
C451 C450 1.389 . S
C451 C452 1.387 . S
C452 H437 0.930 . S
C452 C447 1.390 . S
C452 C451 1.387 . S
H453 C465 0.930 . S
H454 C467 0.930 . S
H455 C468 0.930 . S
H456 C472 0.959 . S
H457 C472 0.959 . S
H458 C472 0.961 . S
H459 C473 0.960 . S
H460 C473 0.961 . S
H461 C473 0.959 . S
H462 C476 0.929 . S
H463 C477 0.931 . S
H464 C479 0.930 . S
C465 H453 0.930 . S
C465 C466 1.399 . S
C465 C470 1.399 . S
C466 C465 1.399 . S
C466 C467 1.376 . S
C467 H454 0.930 . S
C467 C466 1.376 . S
C467 C468 1.388 . S
C468 H455 0.930 . S
C468 C467 1.388 . S
C468 C469 1.390 . S
C469 C468 1.390 . S
C469 C470 1.394 . S
C469 C475 1.465 . S
C470 C465 1.399 . S
C470 C469 1.394 . S
C470 C471 1.516 . S
C471 C470 1.516 . S
C471 C472 1.502 . S
C471 C473 1.561 . S
C471 C474 1.526 . S
C472 H456 0.959 . S
C472 H457 0.959 . S
C472 H458 0.961 . S
C472 C471 1.502 . S
C473 H459 0.960 . S
C473 H460 0.961 . S
C473 H461 0.959 . S
C473 C471 1.561 . S
C474 C471 1.526 . S
C474 C475 1.396 . S
C474 C479 1.390 . S
C475 C469 1.465 . S
C475 C474 1.396 . S
C475 C476 1.399 . S
C476 H462 0.929 . S
C476 C475 1.399 . S
C476 C477 1.385 . S
C477 H463 0.931 . S
C477 C476 1.385 . S
C477 C478 1.389 . S
C478 C477 1.389 . S
C478 C479 1.387 . S
C479 H464 0.930 . S
C479 C474 1.390 . S
C479 C478 1.387 . S
H480 C492 0.930 . S
H481 C494 0.930 . S
H482 C495 0.930 . S
H483 C499 0.959 . S
H484 C499 0.959 . S
H485 C499 0.956 1_554 S
H486 C500 0.951 1_554 S
H487 C500 0.961 . S
H488 C500 0.959 . S
H489 C503 0.929 . S
H490 C504 0.931 . S
H491 C506 0.930 . S
C492 H480 0.930 . S
C492 C493 1.399 . S
C492 C497 1.399 . S
C493 C492 1.399 . S
C493 C494 1.376 . S
C494 H481 0.930 . S
C494 C493 1.376 . S
C494 C495 1.388 . S
C495 H482 0.930 . S
C495 C494 1.388 . S
C495 C496 1.390 . S
C496 C495 1.390 . S
C496 C497 1.394 . S
C496 C502 1.465 . S
C497 C492 1.399 . S
C497 C496 1.394 . S
C497 C498 1.516 . S
C498 C497 1.516 . S
C498 C499 1.502 . S
C498 C500 1.561 . S
C498 C501 1.526 . S
C499 H483 0.959 . S
C499 H484 0.959 . S
C499 H485 0.956 1_556 S
C499 C498 1.502 . S
C500 H486 0.951 1_556 S
C500 H487 0.961 . S
C500 H488 0.959 . S
C500 C498 1.561 . S
C501 C498 1.526 . S
C501 C502 1.396 . S
C501 C506 1.390 . S
C502 C496 1.465 . S
C502 C501 1.396 . S
C502 C503 1.399 . S
C503 H489 0.929 . S
C503 C502 1.399 . S
C503 C504 1.385 . S
C504 H490 0.931 . S
C504 C503 1.385 . S
C504 C505 1.389 . S
C505 C504 1.389 . S
C505 C506 1.387 . S
C506 H491 0.930 . S
C506 C501 1.390 . S
C506 C505 1.387 . S
H507 C519 0.930 . S
H508 C521 0.930 . S
H509 C522 0.930 . S
H510 C526 0.959 . S
H511 C526 0.959 . S
H512 C526 0.961 . S
H513 C527 0.960 . S
H514 C527 0.961 . S
H515 C527 0.959 . S
H516 C530 0.929 . S
H517 C531 0.931 . S
H518 C533 0.930 . S
C519 H507 0.930 . S
C519 C520 1.399 . S
C519 C524 1.399 . S
C520 C519 1.399 . S
C520 C521 1.376 . S
C521 H508 0.930 . S
C521 C520 1.376 . S
C521 C522 1.388 . S
C522 H509 0.930 . S
C522 C521 1.388 . S
C522 C523 1.390 . S
C523 C522 1.390 . S
C523 C524 1.394 . S
C523 C529 1.465 . S
C524 C519 1.399 . S
C524 C523 1.394 . S
C524 C525 1.516 . S
C525 C524 1.516 . S
C525 C526 1.502 . S
C525 C527 1.561 . S
C525 C528 1.526 . S
C526 H510 0.959 . S
C526 H511 0.959 . S
C526 H512 0.961 . S
C526 C525 1.502 . S
C527 H513 0.960 . S
C527 H514 0.961 . S
C527 H515 0.959 . S
C527 C525 1.561 . S
C528 C525 1.526 . S
C528 C529 1.396 . S
C528 C533 1.390 . S
C529 C523 1.465 . S
C529 C528 1.396 . S
C529 C530 1.399 . S
C530 H516 0.929 . S
C530 C529 1.399 . S
C530 C531 1.385 . S
C531 H517 0.931 . S
C531 C530 1.385 . S
C531 C532 1.389 . S
C532 C531 1.389 . S
C532 C533 1.387 . S
C533 H518 0.930 . S
C533 C528 1.390 . S
C533 C532 1.387 . S
H534 C546 0.930 . S
H535 C548 0.930 . S
H536 C549 0.930 . S
H537 C553 0.959 . S
H538 C553 0.959 . S
H539 C553 0.961 . S
H540 C554 0.960 . S
H541 C554 0.961 . S
H542 C554 0.959 . S
H543 C557 0.929 . S
H544 C558 0.931 . S
H545 C560 0.930 . S
C546 H534 0.930 . S
C546 C547 1.399 . S
C546 C551 1.399 . S
C547 C546 1.399 . S
C547 C548 1.376 . S
C548 H535 0.930 . S
C548 C547 1.376 . S
C548 C549 1.388 . S
C549 H536 0.930 . S
C549 C548 1.388 . S
C549 C550 1.390 . S
C550 C549 1.390 . S
C550 C551 1.394 . S
C550 C556 1.465 . S
C551 C546 1.399 . S
C551 C550 1.394 . S
C551 C552 1.516 . S
C552 C551 1.516 . S
C552 C553 1.502 . S
C552 C554 1.561 . S
C552 C555 1.526 . S
C553 H537 0.959 . S
C553 H538 0.959 . S
C553 H539 0.961 . S
C553 C552 1.502 . S
C554 H540 0.960 . S
C554 H541 0.961 . S
C554 H542 0.959 . S
C554 C552 1.561 . S
C555 C552 1.526 . S
C555 C556 1.396 . S
C555 C560 1.390 . S
C556 C550 1.465 . S
C556 C555 1.396 . S
C556 C557 1.399 . S
C557 H543 0.929 . S
C557 C556 1.399 . S
C557 C558 1.385 . S
C558 H544 0.931 . S
C558 C557 1.385 . S
C558 C559 1.389 . S
C559 C558 1.389 . S
C559 C560 1.387 . S
C560 H545 0.930 . S
C560 C555 1.390 . S
C560 C559 1.387 . S
H561 C573 0.930 . S
H562 C575 0.930 . S
H563 C576 0.930 . S
H564 C580 0.959 . S
H565 C580 0.959 . S
H566 C580 0.961 . S
H567 C581 0.960 . S
H568 C581 0.961 . S
H569 C581 0.959 . S
H570 C584 0.929 . S
H571 C585 0.931 . S
H572 C587 0.930 . S
C573 H561 0.930 . S
C573 C574 1.399 . S
C573 C578 1.399 . S
C574 C573 1.399 . S
C574 C575 1.376 . S
C575 H562 0.930 . S
C575 C574 1.376 . S
C575 C576 1.388 . S
C576 H563 0.930 . S
C576 C575 1.388 . S
C576 C577 1.390 . S
C577 C576 1.390 . S
C577 C578 1.394 . S
C577 C583 1.465 . S
C578 C573 1.399 . S
C578 C577 1.394 . S
C578 C579 1.516 . S
C579 C578 1.516 . S
C579 C580 1.502 . S
C579 C581 1.561 . S
C579 C582 1.526 . S
C580 H564 0.959 . S
C580 H565 0.959 . S
C580 H566 0.961 . S
C580 C579 1.502 . S
C581 H567 0.960 . S
C581 H568 0.961 . S
C581 H569 0.959 . S
C581 C579 1.561 . S
C582 C579 1.526 . S
C582 C583 1.396 . S
C582 C587 1.390 . S
C583 C577 1.465 . S
C583 C582 1.396 . S
C583 C584 1.399 . S
C584 H570 0.929 . S
C584 C583 1.399 . S
C584 C585 1.385 . S
C585 H571 0.931 . S
C585 C584 1.385 . S
C585 C586 1.389 . S
C586 C585 1.389 . S
C586 C587 1.387 . S
C587 H572 0.930 . S
C587 C582 1.390 . S
C587 C586 1.387 . S
H588 C600 0.930 . S
H589 C602 0.930 . S
H590 C603 0.930 . S
H591 C607 0.959 . S
H592 C607 0.959 . S
H593 C607 0.961 . S
H594 C608 0.960 . S
H595 C608 0.961 . S
H596 C608 0.959 . S
H597 C611 0.929 . S
H598 C612 0.931 . S
H599 C614 0.930 . S
C600 H588 0.930 . S
C600 C601 1.399 . S
C600 C605 1.399 . S
C601 C600 1.399 . S
C601 C602 1.376 . S
C602 H589 0.930 . S
C602 C601 1.376 . S
C602 C603 1.388 . S
C603 H590 0.930 . S
C603 C602 1.388 . S
C603 C604 1.390 . S
C604 C603 1.390 . S
C604 C605 1.394 . S
C604 C610 1.465 . S
C605 C600 1.399 . S
C605 C604 1.394 . S
C605 C606 1.516 . S
C606 C605 1.516 . S
C606 C607 1.502 . S
C606 C608 1.561 . S
C606 C609 1.526 . S
C607 H591 0.959 . S
C607 H592 0.959 . S
C607 H593 0.961 . S
C607 C606 1.502 . S
C608 H594 0.960 . S
C608 H595 0.961 . S
C608 H596 0.959 . S
C608 C606 1.561 . S
C609 C606 1.526 . S
C609 C610 1.396 . S
C609 C614 1.390 . S
C610 C604 1.465 . S
C610 C609 1.396 . S
C610 C611 1.399 . S
C611 H597 0.929 . S
C611 C610 1.399 . S
C611 C612 1.385 . S
C612 H598 0.931 . S
C612 C611 1.385 . S
C612 C613 1.389 . S
C613 C612 1.389 . S
C613 C614 1.387 . S
C614 H599 0.930 . S
C614 C609 1.390 . S
C614 C613 1.387 . S
H615 C627 0.930 . S
H616 C629 0.926 1_556 S
H617 C630 0.930 . S
H618 C634 0.959 . S
H619 C634 0.959 . S
H620 C634 0.961 . S
H621 C635 0.960 . S
H622 C635 0.961 . S
H623 C635 0.959 . S
H624 C638 0.929 . S
H625 C639 0.931 . S
H626 C641 0.930 . S
C627 H615 0.930 . S
C627 C628 1.399 . S
C627 C632 1.399 . S
C628 C627 1.399 . S
C628 C629 1.376 . S
C629 H616 0.926 1_554 S
C629 C628 1.376 . S
C629 C630 1.388 . S
C630 H617 0.930 . S
C630 C629 1.388 . S
C630 C631 1.390 . S
C631 C630 1.390 . S
C631 C632 1.394 . S
C631 C637 1.465 . S
C632 C627 1.399 . S
C632 C631 1.394 . S
C632 C633 1.516 . S
C633 C632 1.516 . S
C633 C634 1.502 . S
C633 C635 1.561 . S
C633 C636 1.526 . S
C634 H618 0.959 . S
C634 H619 0.959 . S
C634 H620 0.961 . S
C634 C633 1.502 . S
C635 H621 0.960 . S
C635 H622 0.961 . S
C635 H623 0.959 . S
C635 C633 1.561 . S
C636 C633 1.526 . S
C636 C637 1.396 . S
C636 C641 1.390 . S
C637 C631 1.465 . S
C637 C636 1.396 . S
C637 C638 1.399 . S
C638 H624 0.929 . S
C638 C637 1.399 . S
C638 C639 1.385 . S
C639 H625 0.931 . S
C639 C638 1.385 . S
C639 C640 1.389 . S
C640 C639 1.389 . S
C640 C641 1.387 . S
C641 H626 0.930 . S
C641 C636 1.390 . S
C641 C640 1.387 . S
H642 C654 0.930 . S
H643 C656 0.930 . S
H644 C657 0.930 . S
H645 C661 0.959 . S
H646 C661 0.959 . S
H647 C661 0.961 . S
H648 C662 0.960 . S
H649 C662 0.961 . S
H650 C662 0.959 . S
H651 C665 0.929 . S
H652 C666 0.931 . S
H653 C668 0.930 . S
C654 H642 0.930 . S
C654 C655 1.399 . S
C654 C659 1.399 . S
C655 C654 1.399 . S
C655 C656 1.376 . S
C656 H643 0.930 . S
C656 C655 1.376 . S
C656 C657 1.388 . S
C657 H644 0.930 . S
C657 C656 1.388 . S
C657 C658 1.390 . S
C658 C657 1.390 . S
C658 C659 1.394 . S
C658 C664 1.465 . S
C659 C654 1.399 . S
C659 C658 1.394 . S
C659 C660 1.516 . S
C660 C659 1.516 . S
C660 C661 1.502 . S
C660 C662 1.561 . S
C660 C663 1.526 . S
C661 H645 0.959 . S
C661 H646 0.959 . S
C661 H647 0.961 . S
C661 C660 1.502 . S
C662 H648 0.960 . S
C662 H649 0.961 . S
C662 H650 0.959 . S
C662 C660 1.561 . S
C663 C660 1.526 . S
C663 C664 1.396 . S
C663 C668 1.390 . S
C664 C658 1.465 . S
C664 C663 1.396 . S
C664 C665 1.399 . S
C665 H651 0.929 . S
C665 C664 1.399 . S
C665 C666 1.385 . S
C666 H652 0.931 . S
C666 C665 1.385 . S
C666 C667 1.389 . S
C667 C666 1.389 . S
C667 C668 1.387 . S
C668 H653 0.930 . S
C668 C663 1.390 . S
C668 C667 1.387 . S
H669 C681 0.930 . S
H670 C683 0.930 . S
H671 C684 0.930 . S
H672 C688 0.959 . S
H673 C688 0.959 . S
H674 C688 0.961 . S
H675 C689 0.960 . S
H676 C689 0.961 . S
H677 C689 0.959 . S
H678 C692 0.929 . S
H679 C693 0.931 . S
H680 C695 0.930 . S
C681 H669 0.930 . S
C681 C682 1.399 . S
C681 C686 1.399 . S
C682 C681 1.399 . S
C682 C683 1.376 . S
C683 H670 0.930 . S
C683 C682 1.376 . S
C683 C684 1.388 . S
C684 H671 0.930 . S
C684 C683 1.388 . S
C684 C685 1.390 . S
C685 C684 1.390 . S
C685 C686 1.394 . S
C685 C691 1.465 . S
C686 C681 1.399 . S
C686 C685 1.394 . S
C686 C687 1.516 . S
C687 C686 1.516 . S
C687 C688 1.502 . S
C687 C689 1.561 . S
C687 C690 1.526 . S
C688 H672 0.959 . S
C688 H673 0.959 . S
C688 H674 0.961 . S
C688 C687 1.502 . S
C689 H675 0.960 . S
C689 H676 0.961 . S
C689 H677 0.959 . S
C689 C687 1.561 . S
C690 C687 1.526 . S
C690 C691 1.396 . S
C690 C695 1.390 . S
C691 C685 1.465 . S
C691 C690 1.396 . S
C691 C692 1.399 . S
C692 H678 0.929 . S
C692 C691 1.399 . S
C692 C693 1.385 . S
C693 H679 0.931 . S
C693 C692 1.385 . S
C693 C694 1.389 . S
C694 C693 1.389 . S
C694 C695 1.387 . S
C695 H680 0.930 . S
C695 C690 1.390 . S
C695 C694 1.387 . S
H696 C708 0.930 . S
H697 C710 0.930 . S
H698 C711 0.930 . S
H699 C715 0.959 . S
H700 C715 0.959 . S
H701 C715 0.961 . S
H702 C716 0.960 . S
H703 C716 0.961 . S
H704 C716 0.959 . S
H705 C719 0.929 . S
H706 C720 0.931 . S
H707 C722 0.930 . S
C708 H696 0.930 . S
C708 C709 1.399 . S
C708 C713 1.399 . S
C709 C708 1.399 . S
C709 C710 1.376 . S
C710 H697 0.930 . S
C710 C709 1.376 . S
C710 C711 1.388 . S
C711 H698 0.930 . S
C711 C710 1.388 . S
C711 C712 1.390 . S
C712 C711 1.390 . S
C712 C713 1.394 . S
C712 C718 1.465 . S
C713 C708 1.399 . S
C713 C712 1.394 . S
C713 C714 1.516 . S
C714 C713 1.516 . S
C714 C715 1.502 . S
C714 C716 1.561 . S
C714 C717 1.526 . S
C715 H699 0.959 . S
C715 H700 0.959 . S
C715 H701 0.961 . S
C715 C714 1.502 . S
C716 H702 0.960 . S
C716 H703 0.961 . S
C716 H704 0.959 . S
C716 C714 1.561 . S
C717 C714 1.526 . S
C717 C718 1.396 . S
C717 C722 1.390 . S
C718 C712 1.465 . S
C718 C717 1.396 . S
C718 C719 1.399 . S
C719 H705 0.929 . S
C719 C718 1.399 . S
C719 C720 1.385 . S
C720 H706 0.931 . S
C720 C719 1.385 . S
C720 C721 1.389 . S
C721 C720 1.389 . S
C721 C722 1.387 . S
C722 H707 0.930 . S
C722 C717 1.390 . S
C722 C721 1.387 . S
H723 C735 0.930 . S
H724 C737 0.930 . S
H725 C738 0.930 . S
H726 C742 0.959 . S
H727 C742 0.959 . S
H728 C742 0.961 . S
H729 C743 0.960 . S
H730 C743 0.961 . S
H731 C743 0.959 . S
H732 C746 0.929 . S
H733 C747 0.931 . S
H734 C749 0.930 . S
C735 H723 0.930 . S
C735 C736 1.399 . S
C735 C740 1.399 . S
C736 C735 1.399 . S
C736 C737 1.376 . S
C737 H724 0.930 . S
C737 C736 1.376 . S
C737 C738 1.388 . S
C738 H725 0.930 . S
C738 C737 1.388 . S
C738 C739 1.390 . S
C739 C738 1.390 . S
C739 C740 1.394 . S
C739 C745 1.465 . S
C740 C735 1.399 . S
C740 C739 1.394 . S
C740 C741 1.516 . S
C741 C740 1.516 . S
C741 C742 1.502 . S
C741 C743 1.561 . S
C741 C744 1.526 . S
C742 H726 0.959 . S
C742 H727 0.959 . S
C742 H728 0.961 . S
C742 C741 1.502 . S
C743 H729 0.960 . S
C743 H730 0.961 . S
C743 H731 0.959 . S
C743 C741 1.561 . S
C744 C741 1.526 . S
C744 C745 1.396 . S
C744 C749 1.390 . S
C745 C739 1.465 . S
C745 C744 1.396 . S
C745 C746 1.399 . S
C746 H732 0.929 . S
C746 C745 1.399 . S
C746 C747 1.385 . S
C747 H733 0.931 . S
C747 C746 1.385 . S
C747 C748 1.389 . S
C748 C747 1.389 . S
C748 C749 1.387 . S
C749 H734 0.930 . S
C749 C744 1.390 . S
C749 C748 1.387 . S
H750 C762 0.930 . S
H751 C764 0.930 . S
H752 C765 0.930 . S
H753 C769 0.959 . S
H754 C769 0.959 . S
H755 C769 0.961 . S
H756 C770 0.960 . S
H757 C770 0.961 . S
H758 C770 0.959 . S
H759 C773 0.929 . S
H760 C774 0.931 . S
H761 C776 0.930 . S
C762 H750 0.930 . S
C762 C763 1.399 . S
C762 C767 1.399 . S
C763 C762 1.399 . S
C763 C764 1.376 . S
C764 H751 0.930 . S
C764 C763 1.376 . S
C764 C765 1.388 . S
C765 H752 0.930 . S
C765 C764 1.388 . S
C765 C766 1.390 . S
C766 C765 1.390 . S
C766 C767 1.394 . S
C766 C772 1.465 . S
C767 C762 1.399 . S
C767 C766 1.394 . S
C767 C768 1.516 . S
C768 C767 1.516 . S
C768 C769 1.502 . S
C768 C770 1.561 . S
C768 C771 1.526 . S
C769 H753 0.959 . S
C769 H754 0.959 . S
C769 H755 0.961 . S
C769 C768 1.502 . S
C770 H756 0.960 . S
C770 H757 0.961 . S
C770 H758 0.959 . S
C770 C768 1.561 . S
C771 C768 1.526 . S
C771 C772 1.396 . S
C771 C776 1.390 . S
C772 C766 1.465 . S
C772 C771 1.396 . S
C772 C773 1.399 . S
C773 H759 0.929 . S
C773 C772 1.399 . S
C773 C774 1.385 . S
C774 H760 0.931 . S
C774 C773 1.385 . S
C774 C775 1.389 . S
C775 C774 1.389 . S
C775 C776 1.387 . S
C776 H761 0.930 . S
C776 C771 1.390 . S
C776 C775 1.387 . S
H777 C789 0.930 . S
H778 C791 0.930 . S
H779 C792 0.930 . S
H780 C796 0.959 . S
H781 C796 0.959 . S
H782 C796 0.961 . S
H783 C797 0.960 . S
H784 C797 0.961 . S
H785 C797 0.959 . S
H786 C800 0.929 . S
H787 C801 0.931 . S
H788 C803 0.930 . S
C789 H777 0.930 . S
C789 C790 1.399 . S
C789 C794 1.399 . S
C790 C789 1.399 . S
C790 C791 1.376 . S
C791 H778 0.930 . S
C791 C790 1.376 . S
C791 C792 1.388 . S
C792 H779 0.930 . S
C792 C791 1.388 . S
C792 C793 1.390 . S
C793 C792 1.390 . S
C793 C794 1.394 . S
C793 C799 1.465 . S
C794 C789 1.399 . S
C794 C793 1.394 . S
C794 C795 1.516 . S
C795 C794 1.516 . S
C795 C796 1.502 . S
C795 C797 1.561 . S
C795 C798 1.526 . S
C796 H780 0.959 . S
C796 H781 0.959 . S
C796 H782 0.961 . S
C796 C795 1.502 . S
C797 H783 0.960 . S
C797 H784 0.961 . S
C797 H785 0.959 . S
C797 C795 1.561 . S
C798 C795 1.526 . S
C798 C799 1.396 . S
C798 C803 1.390 1_556 S
C799 C793 1.465 . S
C799 C798 1.396 . S
C799 C800 1.369 1_556 S
C800 H786 0.929 . S
C800 C799 1.369 1_554 S
C800 C801 1.416 . S
C801 H787 0.931 . S
C801 C800 1.416 . S
C801 C802 1.389 . S
C802 C801 1.389 . S
C802 C803 1.387 . S
C803 H788 0.930 . S
C803 C798 1.390 1_554 S
C803 C802 1.387 . S
H804 C816 0.930 . S
H805 C818 0.930 . S
H806 C819 0.930 . S
H807 C823 0.959 . S
H808 C823 0.959 . S
H809 C823 0.961 . S
H810 C824 0.960 . S
H811 C824 0.961 . S
H812 C824 0.959 . S
H813 C827 0.929 . S
H814 C828 0.931 . S
H815 C830 0.930 . S
C816 H804 0.930 . S
C816 C817 1.399 . S
C816 C821 1.399 . S
C817 C816 1.399 . S
C817 C818 1.376 . S
C818 H805 0.930 . S
C818 C817 1.376 . S
C818 C819 1.388 . S
C819 H806 0.930 . S
C819 C818 1.388 . S
C819 C820 1.390 . S
C820 C819 1.390 . S
C820 C821 1.394 . S
C820 C826 1.465 . S
C821 C816 1.399 . S
C821 C820 1.394 . S
C821 C822 1.516 . S
C822 C821 1.516 . S
C822 C823 1.502 . S
C822 C824 1.561 . S
C822 C825 1.526 . S
C823 H807 0.959 . S
C823 H808 0.959 . S
C823 H809 0.961 . S
C823 C822 1.502 . S
C824 H810 0.960 . S
C824 H811 0.961 . S
C824 H812 0.959 . S
C824 C822 1.561 . S
C825 C822 1.526 . S
C825 C826 1.396 . S
C825 C830 1.390 . S
C826 C820 1.465 . S
C826 C825 1.396 . S
C826 C827 1.399 . S
C827 H813 0.929 . S
C827 C826 1.399 . S
C827 C828 1.385 . S
C828 H814 0.931 . S
C828 C827 1.385 . S
C828 C829 1.389 . S
C829 C828 1.389 . S
C829 C830 1.387 . S
C830 H815 0.930 . S
C830 C825 1.390 . S
C830 C829 1.387 . S
H831 C843 0.930 . S
H832 C845 0.930 . S
H833 C846 0.930 . S
H834 C850 0.959 . S
H835 C850 0.959 . S
H836 C850 0.961 . S
H837 C851 0.960 . S
H838 C851 0.961 . S
H839 C851 0.959 . S
H840 C854 0.929 . S
H841 C855 0.931 . S
H842 C857 0.930 . S
C843 H831 0.930 . S
C843 C844 1.399 . S
C843 C848 1.399 . S
C844 C843 1.399 . S
C844 C845 1.376 . S
C845 H832 0.930 . S
C845 C844 1.376 . S
C845 C846 1.388 . S
C846 H833 0.930 . S
C846 C845 1.388 . S
C846 C847 1.390 . S
C847 C846 1.390 . S
C847 C848 1.394 . S
C847 C853 1.465 . S
C848 C843 1.399 . S
C848 C847 1.394 . S
C848 C849 1.516 . S
C849 C848 1.516 . S
C849 C850 1.502 . S
C849 C851 1.561 . S
C849 C852 1.526 . S
C850 H834 0.959 . S
C850 H835 0.959 . S
C850 H836 0.961 . S
C850 C849 1.502 . S
C851 H837 0.960 . S
C851 H838 0.961 . S
C851 H839 0.959 . S
C851 C849 1.561 . S
C852 C849 1.526 . S
C852 C853 1.396 . S
C852 C857 1.390 . S
C853 C847 1.465 . S
C853 C852 1.396 . S
C853 C854 1.399 . S
C854 H840 0.929 . S
C854 C853 1.399 . S
C854 C855 1.385 . S
C855 H841 0.931 . S
C855 C854 1.385 . S
C855 C856 1.389 . S
C856 C855 1.389 . S
C856 C857 1.387 . S
C857 H842 0.930 . S
C857 C852 1.390 . S
C857 C856 1.387 . S
H858 C870 0.930 . S
H859 C872 0.930 . S
H860 C873 0.930 . S
H861 C877 0.959 . S
H862 C877 0.959 . S
H863 C877 0.961 . S
H864 C878 0.960 . S
H865 C878 0.961 . S
H866 C878 0.959 . S
H867 C881 0.929 . S
H868 C882 0.931 . S
H869 C884 0.930 . S
C870 H858 0.930 . S
C870 C871 1.399 . S
C870 C875 1.399 . S
C871 C870 1.399 . S
C871 C872 1.376 . S
C872 H859 0.930 . S
C872 C871 1.376 . S
C872 C873 1.388 . S
C873 H860 0.930 . S
C873 C872 1.388 . S
C873 C874 1.390 . S
C874 C873 1.390 . S
C874 C875 1.394 . S
C874 C880 1.465 . S
C875 C870 1.399 . S
C875 C874 1.394 . S
C875 C876 1.516 . S
C876 C875 1.516 . S
C876 C877 1.502 . S
C876 C878 1.561 . S
C876 C879 1.526 . S
C877 H861 0.959 . S
C877 H862 0.959 . S
C877 H863 0.961 . S
C877 C876 1.502 . S
C878 H864 0.960 . S
C878 H865 0.961 . S
C878 H866 0.959 . S
C878 C876 1.561 . S
C879 C876 1.526 . S
C879 C880 1.396 . S
C879 C884 1.390 . S
C880 C874 1.465 . S
C880 C879 1.396 . S
C880 C881 1.399 . S
C881 H867 0.929 . S
C881 C880 1.399 . S
C881 C882 1.385 . S
C882 H868 0.931 . S
C882 C881 1.385 . S
C882 C883 1.389 . S
C883 C882 1.389 . S
C883 C884 1.387 . S
C884 H869 0.930 . S
C884 C879 1.390 . S
C884 C883 1.387 . S
H885 C897 0.930 . S
H886 C899 0.930 . S
H887 C900 0.930 . S
H888 C904 0.959 . S
H889 C904 0.959 . S
H890 C904 0.961 . S
H891 C905 0.960 . S
H892 C905 0.961 . S
H893 C905 0.959 . S
H894 C908 0.929 . S
H895 C909 0.931 . S
H896 C911 0.930 . S
C897 H885 0.930 . S
C897 C898 1.399 . S
C897 C902 1.399 . S
C898 C897 1.399 . S
C898 C899 1.376 . S
C899 H886 0.930 . S
C899 C898 1.376 . S
C899 C900 1.388 . S
C900 H887 0.930 . S
C900 C899 1.388 . S
C900 C901 1.390 . S
C901 C900 1.390 . S
C901 C902 1.394 . S
C901 C907 1.465 . S
C902 C897 1.399 . S
C902 C901 1.394 . S
C902 C903 1.516 . S
C903 C902 1.516 . S
C903 C904 1.502 . S
C903 C905 1.561 . S
C903 C906 1.526 . S
C904 H888 0.959 . S
C904 H889 0.959 . S
C904 H890 0.961 . S
C904 C903 1.502 . S
C905 H891 0.960 . S
C905 H892 0.961 . S
C905 H893 0.959 . S
C905 C903 1.561 . S
C906 C903 1.526 . S
C906 C907 1.396 . S
C906 C911 1.390 . S
C907 C901 1.465 . S
C907 C906 1.396 . S
C907 C908 1.399 . S
C908 H894 0.929 . S
C908 C907 1.399 . S
C908 C909 1.385 . S
C909 H895 0.931 . S
C909 C908 1.385 . S
C909 C910 1.389 . S
C910 C909 1.389 . S
C910 C911 1.387 . S
C911 H896 0.930 . S
C911 C906 1.390 . S
C911 C910 1.387 . S
H912 C924 0.930 . S
H913 C926 0.930 . S
H914 C927 0.930 . S
H915 C931 0.959 . S
H916 C931 0.959 . S
H917 C931 0.961 . S
H918 C932 0.960 . S
H919 C932 0.961 . S
H920 C932 0.959 . S
H921 C935 0.929 . S
H922 C936 0.931 . S
H923 C938 0.930 . S
C924 H912 0.930 . S
C924 C925 1.399 . S
C924 C929 1.399 . S
C925 C924 1.399 . S
C925 C926 1.376 . S
C926 H913 0.930 . S
C926 C925 1.376 . S
C926 C927 1.388 . S
C927 H914 0.930 . S
C927 C926 1.388 . S
C927 C928 1.390 . S
C928 C927 1.390 . S
C928 C929 1.394 . S
C928 C934 1.465 . S
C929 C924 1.399 . S
C929 C928 1.394 . S
C929 C930 1.516 . S
C930 C929 1.516 . S
C930 C931 1.502 . S
C930 C932 1.561 . S
C930 C933 1.526 . S
C931 H915 0.959 . S
C931 H916 0.959 . S
C931 H917 0.961 . S
C931 C930 1.502 . S
C932 H918 0.960 . S
C932 H919 0.961 . S
C932 H920 0.959 . S
C932 C930 1.561 . S
C933 C930 1.526 . S
C933 C934 1.396 . S
C933 C938 1.390 . S
C934 C928 1.465 . S
C934 C933 1.396 . S
C934 C935 1.399 . S
C935 H921 0.929 . S
C935 C934 1.399 . S
C935 C936 1.385 . S
C936 H922 0.931 . S
C936 C935 1.385 . S
C936 C937 1.389 . S
C937 C936 1.389 . S
C937 C938 1.387 . S
C938 H923 0.930 . S
C938 C933 1.390 . S
C938 C937 1.387 . S
H939 C951 0.930 . S
H940 C953 0.930 . S
H941 C954 0.930 . S
H942 C958 0.959 . S
H943 C958 0.959 . S
H944 C958 0.961 . S
H945 C959 0.960 . S
H946 C959 0.961 . S
H947 C959 0.959 . S
H948 C962 0.929 . S
H949 C963 0.931 . S
H950 C965 0.930 . S
C951 H939 0.930 . S
C951 C952 1.399 . S
C951 C956 1.399 . S
C952 C951 1.399 . S
C952 C953 1.376 . S
C953 H940 0.930 . S
C953 C952 1.376 . S
C953 C954 1.388 . S
C954 H941 0.930 . S
C954 C953 1.388 . S
C954 C955 1.390 . S
C955 C954 1.390 . S
C955 C956 1.394 . S
C955 C961 1.465 . S
C956 C951 1.399 . S
C956 C955 1.394 . S
C956 C957 1.516 . S
C957 C956 1.516 . S
C957 C958 1.502 . S
C957 C959 1.561 . S
C957 C960 1.526 . S
C958 H942 0.959 . S
C958 H943 0.959 . S
C958 H944 0.961 . S
C958 C957 1.502 . S
C959 H945 0.960 . S
C959 H946 0.961 . S
C959 H947 0.959 . S
C959 C957 1.561 . S
C960 C957 1.526 . S
C960 C961 1.396 . S
C960 C965 1.390 . S
C961 C955 1.465 . S
C961 C960 1.396 . S
C961 C962 1.399 . S
C962 H948 0.929 . S
C962 C961 1.399 . S
C962 C963 1.385 . S
C963 H949 0.931 . S
C963 C962 1.385 . S
C963 C964 1.389 . S
C964 C963 1.389 . S
C964 C965 1.387 . S
C965 H950 0.930 . S
C965 C960 1.390 . S
C965 C964 1.387 . S
H966 C978 0.930 . S
H967 C980 0.930 . S
H968 C981 0.930 . S
H969 C985 0.959 . S
H970 C985 0.959 . S
H971 C985 0.961 . S
H972 C986 0.960 . S
H973 C986 0.961 . S
H974 C986 0.959 . S
H975 C989 0.929 . S
H976 C990 0.931 . S
H977 C992 0.930 . S
C978 H966 0.930 . S
C978 C979 1.399 . S
C978 C983 1.399 . S
C979 C978 1.399 . S
C979 C980 1.376 . S
C980 H967 0.930 . S
C980 C979 1.376 . S
C980 C981 1.388 . S
C981 H968 0.930 . S
C981 C980 1.388 . S
C981 C982 1.390 . S
C982 C981 1.390 . S
C982 C983 1.394 . S
C982 C988 1.465 1_554 S
C983 C978 1.399 . S
C983 C982 1.394 . S
C983 C984 1.516 . S
C984 C983 1.516 . S
C984 C985 1.502 . S
C984 C986 1.561 . S
C984 C987 1.526 . S
C985 H969 0.959 . S
C985 H970 0.959 . S
C985 H971 0.961 . S
C985 C984 1.502 . S
C986 H972 0.960 . S
C986 H973 0.961 . S
C986 H974 0.959 . S
C986 C984 1.561 . S
C987 C984 1.526 . S
C987 C988 1.396 1_554 S
C987 C992 1.390 1_554 S
C988 C982 1.465 1_556 S
C988 C987 1.396 1_556 S
C988 C989 1.399 . S
C989 H975 0.929 . S
C989 C988 1.399 . S
C989 C990 1.385 . S
C990 H976 0.931 . S
C990 C989 1.385 . S
C990 C991 1.389 . S
C991 C990 1.389 . S
C991 C992 1.387 . S
C992 H977 0.930 . S
C992 C987 1.390 1_556 S
C992 C991 1.387 . S
H993 C1005 0.930 . S
H994 C1007 0.930 . S
H995 C1008 0.930 . S
H996 C1012 0.959 . S
H997 C1012 0.959 . S
H998 C1012 0.961 . S
H999 C1013 0.960 . S
H1000 C1013 0.961 . S
H1001 C1013 0.959 . S
H1002 C1016 0.929 . S
H1003 C1017 0.931 . S
H1004 C1019 0.930 . S
C1005 H993 0.930 . S
C1005 C1006 1.399 . S
C1005 C1010 1.399 . S
C1006 C1005 1.399 . S
C1006 C1007 1.376 . S
C1007 H994 0.930 . S
C1007 C1006 1.376 . S
C1007 C1008 1.388 . S
C1008 H995 0.930 . S
C1008 C1007 1.388 . S
C1008 C1009 1.390 . S
C1009 C1008 1.390 . S
C1009 C1010 1.394 . S
C1009 C1015 1.465 . S
C1010 C1005 1.399 . S
C1010 C1009 1.394 . S
C1010 C1011 1.516 . S
C1011 C1010 1.516 . S
C1011 C1012 1.502 . S
C1011 C1013 1.561 . S
C1011 C1014 1.526 . S
C1012 H996 0.959 . S
C1012 H997 0.959 . S
C1012 H998 0.961 . S
C1012 C1011 1.502 . S
C1013 H999 0.960 . S
C1013 H1000 0.961 . S
C1013 H1001 0.959 . S
C1013 C1011 1.561 . S
C1014 C1011 1.526 . S
C1014 C1015 1.396 . S
C1014 C1019 1.390 . S
C1015 C1009 1.465 . S
C1015 C1014 1.396 . S
C1015 C1016 1.399 . S
C1016 H1002 0.929 . S
C1016 C1015 1.399 . S
C1016 C1017 1.385 . S
C1017 H1003 0.931 . S
C1017 C1016 1.385 . S
C1017 C1018 1.389 . S
C1018 C1017 1.389 . S
C1018 C1019 1.387 . S
C1019 H1004 0.930 . S
C1019 C1014 1.390 . S
C1019 C1018 1.387 . S
C397 C361 1.608 . S
C385 C45 1.607 . S
C412 C84 1.601 . S
C424 C291 1.617 . S
C439 C126 1.600 . S
C451 C310 1.621 . S
C466 C189 1.608 . S
C478 C319 1.606 . S
C505 C333 1.605 . S
C493 C228 1.616 . S
C520 C270 1.564 . S
C532 C352 1.640 . S
C547 C69 1.568 . S
C559 C305 1.596 . S
C574 C141 1.601 . S
C586 C324 1.617 . S
C601 C174 1.567 . S
C613 C338 1.612 . S
C640 C347 1.592 . S
C628 C213 1.548 . S
C667 C366 1.615 . S
C655 C285 1.607 . S
C694 C296 1.605 . S
C682 C30 1.589 . S
C709 C36 1.502 . S
C721 C311 1.496 . S
C736 C93 1.499 . S
C748 C323 1.459 . S
C775 C337 1.499 . S
C763 C117 1.499 . S
C790 C180 1.501 . S
C802 C353 1.499 . S
C829 C365 1.472 . S
C817 C237 1.488 . S
C856 C295 1.474 . S
C844 C261 1.505 . S
C883 C367 1.504 . S
C871 C78 1.482 . S
C898 C132 1.518 . S
C910 C297 1.512 . S
C937 C309 1.506 . S
C925 C165 1.506 . S
C952 C222 1.477 . S
C964 C325 1.510 . S
C979 C276 1.516 . S
C991 C339 1.500 . S
C1006 C21 1.498 . S
C1018 C351 1.504 . S
