# Generated by pormake.
# Topology zzz, (3,6)-cn, num edge types: 1
# Building blocks:
#     Node 0, Type 0, BuildingBlock: MIDCAF_clean_linker_0, # of connection points: 3
#     Node 1, Type 0, BuildingBlock: MIDCAF_clean_linker_0, # of connection points: 3
#     Node 2, Type 0, BuildingBlock: MIDCAF_clean_linker_0, # of connection points: 3
#     Node 3, Type 0, BuildingBlock: MIDCAF_clean_linker_0, # of connection points: 3
#     Node 4, Type 0, BuildingBlock: MIDCAF_clean_linker_0, # of connection points: 3
#     Node 5, Type 0, BuildingBlock: MIDCAF_clean_linker_0, # of connection points: 3
#     Node 6, Type 0, BuildingBlock: MIDCAF_clean_linker_0, # of connection points: 3
#     Node 7, Type 0, BuildingBlock: MIDCAF_clean_linker_0, # of connection points: 3
#     Node 8, Type 1, BuildingBlock: FUNLAD_clean_sbu_0, # of connection points: 6
#     Node 9, Type 1, BuildingBlock: FUNLAD_clean_sbu_0, # of connection points: 6
#     Node 10, Type 1, BuildingBlock: FUNLAD_clean_sbu_0, # of connection points: 6
#     Node 11, Type 1, BuildingBlock: FUNLAD_clean_sbu_0, # of connection points: 6
#     Edge 12, Type (0, 1), BuildingBlock: ZUJKAS_clean_linker_0, # of connection points: 2
#     Edge 13, Type (0, 1), BuildingBlock: ZUJKAS_clean_linker_0, # of connection points: 2
#     Edge 14, Type (0, 1), BuildingBlock: ZUJKAS_clean_linker_0, # of connection points: 2
#     Edge 15, Type (0, 1), BuildingBlock: ZUJKAS_clean_linker_0, # of connection points: 2
#     Edge 16, Type (0, 1), BuildingBlock: ZUJKAS_clean_linker_0, # of connection points: 2
#     Edge 17, Type (0, 1), BuildingBlock: ZUJKAS_clean_linker_0, # of connection points: 2
#     Edge 18, Type (0, 1), BuildingBlock: ZUJKAS_clean_linker_0, # of connection points: 2
#     Edge 19, Type (0, 1), BuildingBlock: ZUJKAS_clean_linker_0, # of connection points: 2
#     Edge 20, Type (0, 1), BuildingBlock: ZUJKAS_clean_linker_0, # of connection points: 2
#     Edge 21, Type (0, 1), BuildingBlock: ZUJKAS_clean_linker_0, # of connection points: 2
#     Edge 22, Type (0, 1), BuildingBlock: ZUJKAS_clean_linker_0, # of connection points: 2
#     Edge 23, Type (0, 1), BuildingBlock: ZUJKAS_clean_linker_0, # of connection points: 2
#     Edge 24, Type (0, 1), BuildingBlock: ZUJKAS_clean_linker_0, # of connection points: 2
#     Edge 25, Type (0, 1), BuildingBlock: ZUJKAS_clean_linker_0, # of connection points: 2
#     Edge 26, Type (0, 1), BuildingBlock: ZUJKAS_clean_linker_0, # of connection points: 2
#     Edge 27, Type (0, 1), BuildingBlock: ZUJKAS_clean_linker_0, # of connection points: 2
#     Edge 28, Type (0, 1), BuildingBlock: ZUJKAS_clean_linker_0, # of connection points: 2
#     Edge 29, Type (0, 1), BuildingBlock: ZUJKAS_clean_linker_0, # of connection points: 2
#     Edge 30, Type (0, 1), BuildingBlock: ZUJKAS_clean_linker_0, # of connection points: 2
#     Edge 31, Type (0, 1), BuildingBlock: ZUJKAS_clean_linker_0, # of connection points: 2
#     Edge 32, Type (0, 1), BuildingBlock: ZUJKAS_clean_linker_0, # of connection points: 2
#     Edge 33, Type (0, 1), BuildingBlock: ZUJKAS_clean_linker_0, # of connection points: 2
#     Edge 34, Type (0, 1), BuildingBlock: ZUJKAS_clean_linker_0, # of connection points: 2
#     Edge 35, Type (0, 1), BuildingBlock: ZUJKAS_clean_linker_0, # of connection points: 2
# Relax obj value: 0.291
# Max RMSD: 0.220
# Mean RMSD: 0.192
data_MOF--net-zzz--node1-FUNLAD_clean_sbu_0--node2-MIDCAF_clean_linker_0--edge1-ZUJKAS_clean_linker_0
_symmetry_space_group_name_H-M    P1
_symmetry_Int_Tables_number       1
_symmetry_cell_setting            triclinic
loop_
_symmetry_equiv_pos_as_xyz
'x, y, z'
_cell_length_a     71.329146
_cell_length_b     75.816855
_cell_length_c     27.944429
_cell_angle_alpha  87.341193
_cell_angle_beta   87.975477
_cell_angle_gamma 92.216297
loop_
_atom_site_label
_atom_site_type_symbol
_atom_site_fract_x
_atom_site_fract_y
_atom_site_fract_z
_atom_type_partial_charge
C0 C 0.83924 0.4326 0.34466 0.0
C1 C 0.83295 0.44886 0.35961 0.0
C2 C 0.81796 0.45654 0.33592 0.0
C3 C 0.81015 0.44856 0.29651 0.0
H4 H 0.76118 0.44114 0.20652 0.0
H5 H 0.73238 0.44853 0.16637 0.0
H6 H 0.75388 0.42613 0.03708 0.0
H7 H 0.78212 0.41838 0.07696 0.0
H8 H 0.82201 0.40665 0.06673 0.0
H9 H 0.84908 0.40067 0.01591 0.0
H10 H 0.88264 0.39454 0.14089 0.0
H11 H 0.85563 0.401 0.19191 0.0
H12 H 0.83738 0.41259 0.29363 0.0
H13 H 0.85089 0.42638 0.36156 0.0
H14 H 0.81267 0.46899 0.34689 0.0
H15 H 0.79922 0.45517 0.27758 0.0
N16 N 0.79551 0.42997 0.21319 0.0
N17 N 0.80492 0.41592 0.14363 0.0
N18 N 0.82496 0.41724 0.20771 0.0
C19 C 0.79175 0.42468 0.16843 0.0
C20 C 0.82154 0.41212 0.16296 0.0
C21 C 0.81211 0.42611 0.23314 0.0
C22 C 0.77401 0.4291 0.14517 0.0
C23 C 0.75969 0.43772 0.16961 0.0
C24 C 0.74322 0.44203 0.14653 0.0
C25 C 0.74074 0.43783 0.09855 0.0
C26 C 0.75509 0.42924 0.07431 0.0
C27 C 0.77142 0.42489 0.09727 0.0
C28 C 0.83673 0.40474 0.13338 0.0
C29 C 0.83502 0.40366 0.08362 0.0
C30 C 0.85057 0.40009 0.05437 0.0
C31 C 0.86813 0.3974 0.07426 0.0
C32 C 0.8694 0.39694 0.12438 0.0
C33 C 0.85389 0.4006 0.15363 0.0
C34 C 0.81738 0.43289 0.27985 0.0
C35 C 0.83158 0.42474 0.30531 0.0
C36 C 0.90022 0.81143 0.26157 0.0
C37 C 0.91509 0.80533 0.28867 0.0
C38 C 0.92457 0.79047 0.27375 0.0
C39 C 0.9203 0.78284 0.23051 0.0
H40 H 0.92082 0.73724 0.13844 0.0
H41 H 0.92855 0.70866 0.10753 0.0
H42 H 0.91817 0.72848 0.96392 0.0
H43 H 0.91024 0.75679 0.99443 0.0
H44 H 0.92174 0.8002 0.97978 0.0
H45 H 0.93052 0.82746 0.93395 0.0
H46 H 0.90048 0.85721 0.03804 0.0
H47 H 0.89219 0.82994 0.08474 0.0
H48 H 0.88548 0.8098 0.19656 0.0
H49 H 0.89271 0.82291 0.27173 0.0
H50 H 0.93596 0.78536 0.29419 0.0
H51 H 0.9287 0.77224 0.21816 0.0
N52 N 0.90963 0.76975 0.13476 0.0
N53 N 0.909 0.78094 0.05491 0.0
N54 N 0.90391 0.79962 0.11781 0.0
C55 C 0.91078 0.76704 0.08684 0.0
C56 C 0.90553 0.79726 0.07017 0.0
C57 C 0.90592 0.78606 0.15029 0.0
C58 C 0.91493 0.74939 0.069 0.0
C59 C 0.92007 0.73547 0.10032 0.0
C60 C 0.9246 0.71911 0.0826 0.0
C61 C 0.92394 0.71628 0.03328 0.0
C62 C 0.91858 0.73012 0.00218 0.0
C63 C 0.91416 0.74644 0.01975 0.0
C64 C 0.90661 0.81293 0.03644 0.0
C65 C 0.91657 0.81249 0.99226 0.0
C66 C 0.92156 0.82817 0.96584 0.0
C67 C 0.91653 0.8446 0.98282 0.0
C68 C 0.90501 0.84483 0.02461 0.0
C69 C 0.90017 0.82918 0.05124 0.0
C70 C 0.90666 0.79014 0.20134 0.0
C71 C 0.89612 0.80397 0.21831 0.0
C72 C 0.71144 0.97426 0.26835 0.0
C73 C 0.71695 0.98127 0.31161 0.0
C74 C 0.73474 0.99002 0.31269 0.0
C75 C 0.74622 0.99255 0.27076 0.0
H76 H 0.79942 0.97394 0.15237 0.0
H77 H 0.83109 0.97032 0.11752 0.0
H78 H 0.82741 0.0196 0.03522 0.0
H79 H 0.79602 0.02312 0.06951 0.0
H80 H 0.7525 0.03183 0.03118 0.0
H81 H 0.73059 0.04337 0.97254 0.0
H82 H 0.68612 0.00938 0.03847 0.0
H83 H 0.70763 0.99811 0.09717 0.0
H84 H 0.71749 0.97234 0.19332 0.0
H85 H 0.6978 0.96764 0.26581 0.0
H86 H 0.73949 0.99545 0.34552 0.0
H87 H 0.75931 0.00022 0.27188 0.0
N88 N 0.76775 0.993 0.17094 0.0
N89 N 0.76336 0.00695 0.09518 0.0
N90 N 0.73754 5e-05 0.14724 0.0
C91 C 0.77503 0.99983 0.12771 0.0
C92 C 0.74461 0.00703 0.10467 0.0
C93 C 0.74886 0.99322 0.1807 0.0
C94 C 0.79522 0.99881 0.11367 0.0
C95 C 0.80559 0.98415 0.12764 0.0
C96 C 0.82362 0.982 0.10733 0.0
C97 C 0.83175 0.99465 0.07345 0.0
C98 C 0.82167 0.00969 0.06145 0.0
C99 C 0.80363 0.01167 0.08102 0.0
C100 C 0.73177 0.01407 0.06876 0.0
C101 C 0.73804 0.02685 0.03303 0.0
C102 C 0.72555 0.0335 0.99973 0.0
C103 C 0.70678 0.02716 0.00108 0.0
C104 C 0.70058 0.01437 0.03658 0.0
C105 C 0.71289 0.00799 0.07027 0.0
C106 C 0.73995 0.98658 0.22702 0.0
C107 C 0.72273 0.97697 0.22665 0.0
C108 C 0.55706 0.65973 0.08748 0.0
C109 C 0.54728 0.66483 0.04667 0.0
C110 C 0.54419 0.68285 0.03743 0.0
C111 C 0.55064 0.69547 0.06861 0.0
H112 H 0.54332 0.74678 0.10889 0.0
H113 H 0.54042 0.77757 0.08362 0.0
H114 H 0.58367 0.79272 0.17976 0.0
H115 H 0.58671 0.76159 0.2052 0.0
H116 H 0.56775 0.71534 0.30971 0.0
H117 H 0.57288 0.69591 0.38015 0.0
H118 H 0.61331 0.66778 0.29739 0.0
H119 H 0.60757 0.68672 0.22703 0.0
H120 H 0.57081 0.66776 0.14982 0.0
H121 H 0.55943 0.64593 0.09609 0.0
H122 H 0.53685 0.6872 0.006 0.0
H123 H 0.54792 0.70923 0.06064 0.0
N124 N 0.56335 0.72082 0.13673 0.0
N125 N 0.57645 0.72701 0.21059 0.0
N126 N 0.57471 0.69795 0.18488 0.0
C127 C 0.5684 0.73273 0.16938 0.0
C128 C 0.5797 0.70954 0.21811 0.0
C129 C 0.56645 0.70341 0.14424 0.0
C130 C 0.56535 0.7517 0.15883 0.0
C131 C 0.55211 0.75664 0.12514 0.0
C132 C 0.55032 0.77434 0.1109 0.0
C133 C 0.56182 0.78758 0.12968 0.0
C134 C 0.5747 0.78276 0.1645 0.0
C135 C 0.57635 0.76498 0.17925 0.0
C136 C 0.58717 0.70237 0.26309 0.0
C137 C 0.57825 0.70543 0.30732 0.0
C138 C 0.58117 0.69426 0.34756 0.0
C139 C 0.59317 0.68001 0.34401 0.0
C140 C 0.60361 0.67833 0.30097 0.0
C141 C 0.60048 0.68927 0.26081 0.0
C142 C 0.56027 0.69031 0.10971 0.0
C143 C 0.5635 0.67229 0.11853 0.0
C144 C 0.19546 0.56747 0.05167 0.0
C145 C 0.20113 0.55145 0.03365 0.0
C146 C 0.21631 0.54302 0.05447 0.0
C147 C 0.2252 0.55024 0.09349 0.0
H148 H 0.27235 0.59251 0.27159 0.0
H149 H 0.30029 0.5826 0.31128 0.0
H150 H 0.29431 0.53221 0.24654 0.0
H151 H 0.26646 0.54228 0.20565 0.0
H152 H 0.22579 0.59755 0.32032 0.0
H153 H 0.20142 0.60528 0.37802 0.0
H154 H 0.16102 0.60549 0.26645 0.0
H155 H 0.18532 0.5982 0.20862 0.0
H156 H 0.19904 0.58668 0.10431 0.0
H157 H 0.18368 0.5742 0.03701 0.0
H158 H 0.22106 0.53071 0.04114 0.0
H159 H 0.23647 0.54321 0.10974 0.0
N160 N 0.24318 0.56771 0.17395 0.0
N161 N 0.23796 0.58371 0.24298 0.0
N162 N 0.21523 0.58261 0.18494 0.0
C163 C 0.24922 0.57359 0.21633 0.0
C164 C 0.22089 0.58822 0.22765 0.0
C165 C 0.22624 0.57248 0.15772 0.0
C166 C 0.26724 0.56815 0.23561 0.0
C167 C 0.27715 0.57942 0.26522 0.0
C168 C 0.29317 0.57379 0.28777 0.0
C169 C 0.29937 0.55665 0.28198 0.0
C170 C 0.28974 0.54548 0.25157 0.0
C171 C 0.27392 0.55127 0.22804 0.0
C172 C 0.20744 0.5968 0.25999 0.0
C173 C 0.21183 0.59969 0.30775 0.0
C174 C 0.19785 0.60406 0.34093 0.0
C175 C 0.17921 0.60566 0.32704 0.0
C176 C 0.17523 0.60442 0.27839 0.0
C177 C 0.18919 0.60007 0.24522 0.0
C178 C 0.21889 0.56586 0.11272 0.0
C179 C 0.20419 0.57456 0.09066 0.0
C180 C 0.1246 0.20359 0.08208 0.0
C181 C 0.11359 0.21117 0.04644 0.0
C182 C 0.10309 0.22593 0.05731 0.0
C183 C 0.10231 0.23191 0.10406 0.0
H184 H 0.10061 0.27523 0.21196 0.0
H185 H 0.09713 0.30363 0.24868 0.0
H186 H 0.09131 0.27686 0.3885 0.0
H187 H 0.09491 0.24861 0.35228 0.0
H188 H 0.08774 0.20623 0.36162 0.0
H189 H 0.07577 0.1792 0.40508 0.0
H190 H 0.07551 0.15219 0.27217 0.0
H191 H 0.0881 0.17874 0.22945 0.0
H192 H 0.13104 0.20234 0.15626 0.0
H193 H 0.13269 0.19212 0.07526 0.0
H194 H 0.09458 0.23211 0.03047 0.0
H195 H 0.093 0.24237 0.11252 0.0
N196 N 0.10507 0.2411 0.21034 0.0
N197 N 0.09464 0.22711 0.28403 0.0
N198 N 0.10171 0.2102 0.21851 0.0
C199 C 0.09942 0.2422 0.25724 0.0
C200 C 0.09563 0.21106 0.2647 0.0
C201 C 0.1065 0.22502 0.19123 0.0
C202 C 0.09797 0.25959 0.27909 0.0
C203 C 0.09871 0.27541 0.25056 0.0
C204 C 0.09662 0.29167 0.27153 0.0
C205 C 0.09396 0.29248 0.32147 0.0
C206 C 0.09356 0.27671 0.34998 0.0
C207 C 0.09548 0.26048 0.32907 0.0
C208 C 0.08896 0.19467 0.29208 0.0
C209 C 0.08524 0.19447 0.34183 0.0
C210 C 0.07825 0.17899 0.36667 0.0
C211 C 0.07466 0.16346 0.34219 0.0
C212 C 0.07845 0.16374 0.29248 0.0
C213 C 0.0856 0.17907 0.26785 0.0
C214 C 0.11182 0.22304 0.14047 0.0
C215 C 0.12361 0.20939 0.12864 0.0
C216 C 0.32637 0.9807 0.07224 0.0
C217 C 0.32899 0.99872 0.05838 0.0
C218 C 0.31912 0.01111 0.08461 0.0
C219 C 0.30787 0.00564 0.12539 0.0
H220 H 0.24958 0.00208 0.22321 0.0
H221 H 0.21893 0.00652 0.26325 0.0
H222 H 0.2316 0.96799 0.37489 0.0
H223 H 0.26147 0.96338 0.33547 0.0
H224 H 0.30065 0.94968 0.35029 0.0
H225 H 0.32408 0.93847 0.40407 0.0
H226 H 0.36802 0.9558 0.29987 0.0
H227 H 0.34471 0.9662 0.24574 0.0
H228 H 0.31468 0.96144 0.12437 0.0
H229 H 0.33386 0.97076 0.05362 0.0
H230 H 0.32067 0.02508 0.0747 0.0
H231 H 0.30143 0.0155 0.1467 0.0
N232 N 0.28234 0.98559 0.20832 0.0
N233 N 0.28955 0.97073 0.28083 0.0
N234 N 0.31184 0.97319 0.21765 0.0
C235 C 0.2771 0.97962 0.25405 0.0
C236 C 0.30692 0.96753 0.26311 0.0
C237 C 0.29979 0.98213 0.19001 0.0
C238 C 0.25811 0.98239 0.27592 0.0
C239 C 0.2457 0.99449 0.25609 0.0
C240 C 0.22821 0.9971 0.27917 0.0
C241 C 0.22271 0.9875 0.32214 0.0
C242 C 0.23513 0.97538 0.34147 0.0
C243 C 0.25246 0.97287 0.31883 0.0
C244 C 0.3208 0.95902 0.29388 0.0
C245 C 0.31531 0.95084 0.33864 0.0
C246 C 0.32876 0.94447 0.36957 0.0
C247 C 0.34801 0.94631 0.35664 0.0
C248 C 0.35336 0.95381 0.31096 0.0
C249 C 0.33993 0.95997 0.2799 0.0
C250 C 0.30646 0.98773 0.14075 0.0
C251 C 0.31535 0.97532 0.11294 0.0
C252 C 0.47736 0.33926 0.28059 0.0
C253 C 0.48615 0.33397 0.32284 0.0
C254 C 0.48686 0.31584 0.33529 0.0
C255 C 0.47931 0.30327 0.30556 0.0
H256 H 0.45099 0.25235 0.30098 0.0
H257 H 0.45303 0.22214 0.33191 0.0
H258 H 0.46658 0.20563 0.18935 0.0
H259 H 0.46455 0.23633 0.15791 0.0
H260 H 0.46682 0.2772 0.06573 0.0
H261 H 0.46579 0.29383 0.98831 0.0
H262 H 0.43103 0.33199 0.05459 0.0
H263 H 0.4321 0.31548 0.13088 0.0
H264 H 0.46341 0.33132 0.21831 0.0
H265 H 0.4762 0.35313 0.27051 0.0
H266 H 0.49364 0.31134 0.36744 0.0
H267 H 0.48041 0.28941 0.31577 0.0
N268 N 0.46359 0.27788 0.24206 0.0
N269 N 0.45408 0.2709 0.16513 0.0
N270 N 0.45925 0.3005 0.18463 0.0
C271 C 0.45847 0.2656 0.21058 0.0
C272 C 0.4542 0.28849 0.15247 0.0
C273 C 0.46415 0.29534 0.22929 0.0
C274 C 0.45776 0.24674 0.22703 0.0
C275 C 0.45423 0.2423 0.27597 0.0
C276 C 0.45522 0.22492 0.2937 0.0
C277 C 0.45992 0.21147 0.26308 0.0
C278 C 0.46298 0.21576 0.21378 0.0
C279 C 0.46172 0.23326 0.19577 0.0
C280 C 0.44961 0.29515 0.10408 0.0
C281 C 0.45842 0.28878 0.06302 0.0
C282 C 0.45795 0.29838 0.01894 0.0
C283 C 0.44846 0.31433 0.01534 0.0
C284 C 0.43831 0.31971 0.05576 0.0
C285 C 0.43899 0.3103 0.09963 0.0
C286 C 0.47095 0.30858 0.26266 0.0
C287 C 0.46989 0.32672 0.25082 0.0
C288 C 0.04219 0.97954 0.77158 0.0
N289 N 0.00607 0.96559 0.63112 0.0
C290 C 0.01021 0.96711 0.58318 0.0
C291 C 1.00061 0.9564 0.55192 0.0
C292 C 0.98672 0.94398 0.57031 0.0
C293 C 0.98221 0.94332 0.61969 0.0
C294 C 0.99219 0.9542 0.64958 0.0
Zn295 Zn 0.02305 0.97648 0.67977 0.0
C296 C 0.99695 0.99301 0.7634 0.0
N297 N 0.0453 0.0312 0.75739 0.0
C298 C 0.06411 0.03496 0.75492 0.0
C299 C 0.03311 0.04258 0.77639 0.0
C300 C 0.03974 0.0585 0.79389 0.0
C301 C 0.05909 0.06282 0.79161 0.0
C302 C 0.07135 0.05081 0.77181 0.0
Zn303 Zn 0.03493 0.00862 0.72964 0.0
O304 O 0.04095 0.98188 0.72747 0.0
C305 C 0.0604 0.99302 0.64092 0.0
O306 O 0.0477 0.99326 0.79108 0.0
H307 H 0.01819 0.03941 0.77739 0.0
H308 H 0.02157 0.976 0.56941 0.0
H309 H 0.07351 0.0257 0.73961 0.0
O310 O 0.048 0.98025 0.63581 0.0
O311 O 0.05867 0.00454 0.67409 0.0
H312 H 0.98957 0.95281 0.68795 0.0
O313 O 0.02295 0.02456 0.68031 0.0
O314 O 0.01754 0.00103 0.64057 0.0
O315 O 0.009 0.00584 0.76907 0.0
O316 O 0.99973 0.98117 0.73215 0.0
C317 C 0.0173 0.01764 0.64331 0.0
H318 H 0.00444 0.9574 0.51402 0.0
H319 H 0.97187 0.93375 0.63557 0.0
H320 H 0.02977 0.06748 0.80828 0.0
H321 H 0.08638 0.05354 0.76986 0.0
C322 C 0.50325 0.98156 0.63689 0.0
N323 N 0.5176 0.0356 0.62629 0.0
C324 C 0.51894 0.0336 0.57815 0.0
C325 C 0.51468 0.0474 0.5461 0.0
C326 C 0.50893 0.06347 0.56359 0.0
C327 C 0.5078 0.06523 0.61348 0.0
C328 C 0.51225 0.05106 0.64435 0.0
Zn329 Zn 0.52309 0.0143 0.6707 0.0
C330 C 0.49425 0.00796 0.75082 0.0
N331 N 0.53362 0.96827 0.75828 0.0
C332 C 0.51932 0.95675 0.77355 0.0
C333 C 0.55137 0.96625 0.77342 0.0
C334 C 0.55522 0.95238 0.8058 0.0
C335 C 0.54068 0.94041 0.82259 0.0
C336 C 0.52256 0.94264 0.80572 0.0
Zn337 Zn 0.5282 0.98971 0.71438 0.0
O338 O 0.50616 0.99809 0.62892 0.0
C339 C 0.55704 0.99588 0.63448 0.0
O340 O 0.51096 0.9738 0.67186 0.0
H341 H 0.56255 0.97553 0.76081 0.0
H342 H 0.52308 0.02117 0.56446 0.0
H343 H 0.50529 0.95867 0.76135 0.0
O344 O 0.54717 0.00926 0.62671 0.0
O345 O 0.55227 0.98501 0.66928 0.0
H346 H 0.51129 0.05237 0.68272 0.0
O347 O 0.54512 0.00601 0.7563 0.0
O348 O 0.54042 0.03019 0.71275 0.0
O349 O 0.50429 0.99469 0.75842 0.0
O350 O 0.49887 0.01891 0.71606 0.0
C351 C 0.54822 0.0225 0.74774 0.0
H352 H 0.51548 0.04535 0.508 0.0
H353 H 0.50362 0.07745 0.62852 0.0
H354 H 0.56943 0.95101 0.81742 0.0
H355 H 0.51091 0.93382 0.81812 0.0
C356 C 0.53093 0.47657 0.61392 0.0
N357 N 0.48414 0.50702 0.63467 0.0
C358 C 0.48601 0.51224 0.58745 0.0
C359 C 0.47024 0.51529 0.56068 0.0
C360 C 0.45218 0.51259 0.58217 0.0
C361 C 0.45065 0.50729 0.63116 0.0
C362 C 0.46688 0.50466 0.65689 0.0
Zn363 Zn 0.50819 0.50179 0.66996 0.0
C364 C 0.5042 0.47007 0.73601 0.0
N365 N 0.55968 0.49027 0.73636 0.0
C366 C 0.56421 0.4732 0.74531 0.0
C367 C 0.57011 0.50386 0.75332 0.0
C368 C 0.58548 0.50051 0.7815 0.0
C369 C 0.59011 0.48299 0.7928 0.0
C370 C 0.57937 0.46924 0.77365 0.0
Zn371 Zn 0.5356 0.4956 0.70154 0.0
O372 O 0.51602 0.4852 0.61506 0.0
C373 C 0.53977 0.52728 0.63581 0.0
O374 O 0.54262 0.47824 0.64686 0.0
H375 H 0.56625 0.51735 0.74594 0.0
H376 H 0.4998 0.51388 0.57015 0.0
H377 H 0.55571 0.46257 0.73162 0.0
O378 O 0.5223 0.52375 0.6328 0.0
O379 O 0.54947 0.51725 0.66196 0.0
H380 H 0.46567 0.50044 0.69442 0.0
O381 O 0.52799 0.51284 0.7556 0.0
O382 O 0.50074 0.51852 0.72533 0.0
O383 O 0.52145 0.47424 0.74052 0.0
O384 O 0.49455 0.47952 0.70815 0.0
C385 C 0.51271 0.52092 0.75731 0.0
H386 H 0.47228 0.51975 0.52344 0.0
H387 H 0.43708 0.50482 0.64931 0.0
H388 H 0.59352 0.51156 0.79466 0.0
H389 H 0.58222 0.45552 0.78177 0.0
C390 C 0.03545 0.52913 0.62411 0.0
N391 N 0.03438 0.47364 0.63065 0.0
C392 C 0.03387 0.47491 0.58199 0.0
C393 C 0.04023 0.46126 0.55459 0.0
C394 C 0.0471 0.44603 0.57736 0.0
C395 C 0.04769 0.44519 0.62767 0.0
C396 C 0.04127 0.45921 0.6537 0.0
Zn397 Zn 0.02375 0.49361 0.66902 0.0
C398 C 0.04908 0.50579 0.74318 0.0
N399 N 1.00071 0.53582 0.74554 0.0
C400 C 0.99305 0.54969 0.72177 0.0
C401 C 0.00159 0.53512 0.79416 0.0
C402 C 0.99469 0.54878 0.82077 0.0
C403 C 0.98679 0.56333 0.79719 0.0
C404 C 0.98598 0.56362 0.74697 0.0
Zn405 Zn 0.01146 0.51581 0.70753 0.0
O406 O 0.03718 0.51262 0.62025 0.0
C407 C 0.98609 0.50346 0.63353 0.0
O408 O 0.0251 0.53451 0.65793 0.0
H409 H 0.0077 0.52396 0.81238 0.0
H410 H 0.02833 0.48647 0.56432 0.0
H411 H 0.99254 0.55001 0.6831 0.0
O412 O 0.99946 0.49309 0.62744 0.0
O413 O 0.98731 0.51493 0.66518 0.0
H414 H 0.04153 0.45845 0.69242 0.0
O415 O 0.99804 0.49678 0.75648 0.0
O416 O 0.01017 0.47496 0.71855 0.0
O417 O 0.03578 0.51627 0.74921 0.0
O418 O 0.04783 0.49439 0.71136 0.0
C419 C 0.99985 0.48028 0.75249 0.0
H420 H 0.03977 0.46266 0.51592 0.0
H421 H 0.05264 0.43365 0.64688 0.0
H422 H 0.99541 0.54787 0.85945 0.0
H423 H 0.98024 0.57467 0.72721 0.0
H424 H 0.19861 0.96204 0.36449 0.0
H425 H 0.17085 0.96602 0.41585 0.0
H426 H 0.17723 0.02247 0.39025 0.0
H427 H 0.20539 0.0186 0.33911 0.0
H428 H 0.17128 0.98646 0.50088 0.0
H429 H 0.12038 0.01007 0.3681 0.0
H430 H 0.14089 0.99826 0.3509 0.0
H431 H 0.1433 0.02095 0.36601 0.0
C432 C 0.19412 0.97533 0.36956 0.0
C433 C 0.20439 0.99002 0.34798 0.0
C434 C 0.17819 0.97757 0.39885 0.0
C435 C 0.17196 0.99452 0.40697 0.0
C436 C 0.18169 0.00924 0.38413 0.0
H437 H 0.09202 0.01494 0.64415 0.0
H438 H 0.11929 0.017 0.58787 0.0
C439 C 0.19774 0.00701 0.35478 0.0
C440 C 0.1559 0.9966 0.44142 0.0
H441 H 0.10989 0.00759 0.44923 0.0
C442 C 0.1579 0.99124 0.48971 0.0
C443 C 0.13843 0.00272 0.42669 0.0
C444 C 0.13543 0.00825 0.37509 0.0
C445 C 0.14285 0.99159 0.5235 0.0
C446 C 0.12533 0.99757 0.50873 0.0
C447 C 0.12337 0.00313 0.46055 0.0
C448 C 0.10858 0.99698 0.54214 0.0
C449 C 0.14561 0.98497 0.57443 0.0
C450 C 0.09338 0.98524 0.53477 0.0
C451 C 0.07784 0.98397 0.56688 0.0
C452 C 0.07704 0.99452 0.60704 0.0
C453 C 0.09217 0.00653 0.61386 0.0
C454 C 0.1078 0.00771 0.58176 0.0
H455 H 0.15894 0.97801 0.57809 0.0
H456 H 0.14595 0.99635 0.59804 0.0
H457 H 0.13376 0.97585 0.58731 0.0
H458 H 0.09367 0.97685 0.50443 0.0
H459 H 0.06643 0.97469 0.56007 0.0
H460 H 0.43767 0.19252 0.33013 0.0
H461 H 0.44554 0.1657 0.37589 0.0
H462 H 0.49666 0.16293 0.29009 0.0
H463 H 0.48899 0.18995 0.24431 0.0
H464 H 0.47471 0.12864 0.31575 0.0
H465 H 0.49051 0.16996 0.46979 0.0
H466 H 0.4681 0.17302 0.44377 0.0
H467 H 0.48925 0.17916 0.40926 0.0
C468 C 0.45047 0.18608 0.32057 0.0
C469 C 0.46284 0.19347 0.28403 0.0
C470 C 0.45493 0.17077 0.3467 0.0
C471 C 0.47181 0.16256 0.33682 0.0
C472 C 0.48359 0.16915 0.29829 0.0
H473 H 0.52682 0.07472 0.47862 0.0
H474 H 0.51786 0.09827 0.42219 0.0
C475 C 0.47914 0.18452 0.27204 0.0
C476 C 0.47777 0.14798 0.36917 0.0
H477 H 0.49119 0.13903 0.48351 0.0
C478 C 0.47841 0.13086 0.35237 0.0
C479 C 0.48258 0.151 0.41684 0.0
C480 C 0.48275 0.16928 0.43609 0.0
C481 C 0.48329 0.11654 0.38257 0.0
C482 C 0.48801 0.11956 0.43041 0.0
C483 C 0.48752 0.13674 0.44692 0.0
C484 C 0.49337 0.10511 0.46422 0.0
C485 C 0.48287 0.09825 0.36344 0.0
C486 C 0.48289 0.10147 0.50726 0.0
C487 C 0.48803 0.08808 0.53972 0.0
C488 C 0.5038 0.0781 0.52983 0.0
C489 C 0.51441 0.08195 0.48694 0.0
C490 C 0.50928 0.09537 0.45456 0.0
H491 H 0.47439 0.09751 0.33094 0.0
H492 H 0.4974 0.09471 0.35353 0.0
H493 H 0.47703 0.0883 0.39096 0.0
H494 H 0.47062 0.1089 0.51553 0.0
H495 H 0.47944 0.08534 0.57214 0.0
H496 H 0.29973 0.52707 0.34094 0.0
H497 H 0.32456 0.51829 0.39452 0.0
H498 H 0.35954 0.56281 0.33874 0.0
H499 H 0.33438 0.57202 0.28684 0.0
H500 H 0.35895 0.50856 0.38289 0.0
H501 H 0.36104 0.57084 0.47817 0.0
H502 H 0.3431 0.56572 0.43656 0.0
H503 H 0.36572 0.57489 0.41513 0.0
C504 C 0.3128 0.53487 0.33999 0.0
C505 C 0.31516 0.55027 0.31012 0.0
C506 C 0.32695 0.5299 0.37067 0.0
C507 C 0.34376 0.54015 0.37167 0.0
C508 C 0.34646 0.55504 0.33994 0.0
H509 H 0.44755 0.50574 0.48753 0.0
H510 H 0.42078 0.5119 0.43896 0.0
C511 C 0.33219 0.5602 0.30996 0.0
C512 C 0.35843 0.53528 0.40586 0.0
H513 H 0.38669 0.55196 0.49037 0.0
C514 C 0.36491 0.51802 0.40668 0.0
C515 C 0.36589 0.54744 0.4379 0.0
C516 C 0.35842 0.56568 0.44233 0.0
C517 C 0.379 0.51274 0.43751 0.0
C518 C 0.38737 0.52528 0.4671 0.0
C519 C 0.3805 0.54238 0.46729 0.0
C520 C 0.40355 0.52115 0.49727 0.0
C521 C 0.38447 0.4937 0.43851 0.0
C522 C 0.40317 0.52487 0.54608 0.0
C523 C 0.41882 0.52198 0.57378 0.0
C524 C 0.4352 0.5152 0.55333 0.0
C525 C 0.43539 0.51126 0.50454 0.0
C526 C 0.41987 0.51444 0.47676 0.0
H527 H 0.37267 0.48487 0.42806 0.0
H528 H 0.39632 0.4923 0.41233 0.0
H529 H 0.38888 0.48917 0.4746 0.0
H530 H 0.3908 0.5302 0.56269 0.0
H531 H 0.41819 0.52545 0.61093 0.0
H532 H 0.10953 0.30451 0.40252 0.0
H533 H 0.10259 0.3316 0.44313 0.0
H534 H 0.06488 0.34615 0.33208 0.0
H535 H 0.07156 0.31899 0.2915 0.0
H536 H 0.10548 0.36895 0.40471 0.0
H537 H 0.03312 0.34491 0.46231 0.0
H538 H 0.05103 0.33019 0.44382 0.0
H539 H 0.03947 0.34342 0.3998 0.0
C540 C 0.09977 0.3135 0.38673 0.0
C541 C 0.09099 0.30957 0.34398 0.0
C542 C 0.09591 0.32898 0.40982 0.0
C543 C 0.08308 0.34073 0.39082 0.0
C544 C 0.07469 0.33713 0.34748 0.0
H545 H 0.03099 0.43317 0.4978 0.0
H546 H 0.04076 0.40847 0.45116 0.0
C547 C 0.07864 0.3217 0.32418 0.0
C548 C 0.07803 0.35646 0.41717 0.0
H549 H 0.04204 0.37405 0.48028 0.0
C550 C 0.09163 0.37012 0.42131 0.0
C551 C 0.05996 0.35786 0.43867 0.0
C552 C 0.04503 0.34329 0.4364 0.0
C553 C 0.08751 0.38535 0.44582 0.0
C554 C 0.06944 0.38671 0.4677 0.0
C555 C 0.05587 0.373 0.46348 0.0
C556 C 0.06421 0.40222 0.49508 0.0
C557 C 0.10239 0.4 0.44705 0.0
C558 C 0.07408 0.40689 0.5355 0.0
C559 C 0.06868 0.42119 0.56196 0.0
C560 C 0.05316 0.431 0.54883 0.0
C561 C 0.04323 0.42617 0.50847 0.0
C562 C 0.0487 0.41194 0.48194 0.0
H563 H 0.11319 0.39918 0.41769 0.0
H564 H 0.09613 0.41318 0.44406 0.0
H565 H 0.10955 0.39888 0.4816 0.0
H566 H 0.08584 0.39934 0.54697 0.0
H567 H 0.07674 0.42459 0.59258 0.0
H568 H 0.84373 0.96456 0.03319 0.0
H569 H 0.87251 0.96113 0.9842 0.0
H570 H 0.88968 0.01519 0.0063 0.0
H571 H 0.86108 0.01868 0.0554 0.0
H572 H 0.88305 0.98244 0.89809 0.0
H573 H 0.93703 0.98688 0.03553 0.0
H574 H 0.91257 0.98151 0.05054 0.0
H575 H 0.92035 0.00404 0.03662 0.0
C576 C 0.85384 0.9756 0.02844 0.0
C577 C 0.85013 0.99189 0.04829 0.0
C578 C 0.87021 0.97365 1.00017 0.0
C579 C 0.88333 0.98786 0.99187 0.0
C580 C 0.87989 0.00398 0.01269 0.0
H581 H 0.98433 0.01684 0.82655 0.0
H582 H 0.9567 0.01394 0.88078 0.0
C583 C 0.86347 0.00598 0.04053 0.0
C584 C 0.90004 0.9863 0.95911 0.0
H585 H 0.94796 0.99009 0.95396 0.0
C586 C 0.89727 0.9839 0.9103 0.0
C587 C 0.91856 0.98822 0.97512 0.0
C588 C 0.9224 0.99015 0.02738 0.0
C589 C 0.91248 0.98418 0.87672 0.0
C590 C 0.93103 0.98654 0.89254 0.0
C591 C 0.93378 0.98838 0.94167 0.0
C592 C 0.94772 0.98807 0.85866 0.0
C593 C 0.90845 0.98276 0.82435 0.0
C594 C 0.95201 0.97447 0.82806 0.0
C595 C 0.96784 0.97612 0.79669 0.0
C596 C 0.97977 0.99139 0.79539 0.0
C597 C 0.97547 0.00492 0.82633 0.0
C598 C 0.95967 0.00326 0.85754 0.0
H599 H 0.89362 0.98553 0.81699 0.0
H600 H 0.91775 0.99206 0.80161 0.0
H601 H 0.91104 0.96913 0.81365 0.0
H602 H 0.94331 0.96244 0.82892 0.0
H603 H 0.97086 0.9653 0.774 0.0
H604 H 0.59132 0.81031 0.10213 0.0
H605 H 0.59004 0.83899 0.05847 0.0
H606 H 0.52954 0.83482 0.06683 0.0
H607 H 0.53071 0.80637 0.11127 0.0
H608 H 0.57361 0.84284 0.97001 0.0
H609 H 0.54059 0.8861 0.10053 0.0
H610 H 0.55119 0.86568 0.11847 0.0
H611 H 0.52792 0.86537 0.09564 0.0
C612 C 0.57776 0.81576 0.09591 0.0
C613 C 0.56111 0.80607 0.11004 0.0
C614 C 0.57705 0.83208 0.0707 0.0
C615 C 0.5597 0.8391 0.05972 0.0
C616 C 0.54308 0.82981 0.07559 0.0
H617 H 0.52771 0.90597 0.82296 0.0
H618 H 0.53353 0.88202 0.88164 0.0
C619 C 0.54377 0.81348 0.1006 0.0
C620 C 0.55889 0.85511 0.02746 0.0
H621 H 0.54043 0.89596 0.01773 0.0
C622 C 0.56656 0.85454 0.98062 0.0
C623 C 0.54979 0.8704 0.04147 0.0
C624 C 0.54206 0.87205 0.09192 0.0
C625 C 0.56476 0.8686 0.94686 0.0
C626 C 0.55486 0.88351 0.96018 0.0
C627 C 0.54783 0.8844 0.00752 0.0
C628 C 0.55127 0.89809 0.92502 0.0
C629 C 0.57336 0.86734 0.89709 0.0
C630 C 0.55905 0.91511 0.93052 0.0
C631 C 0.55571 0.92884 0.89711 0.0
C632 C 0.54435 0.92581 0.8579 0.0
C633 C 0.53641 0.90875 0.85289 0.0
C634 C 0.53985 0.89503 0.88615 0.0
H635 H 0.58427 0.85728 0.89606 0.0
H636 H 0.56223 0.86347 0.8724 0.0
H637 H 0.57976 0.88029 0.88358 0.0
H638 H 0.5678 0.91774 0.9605 0.0
H639 H 0.5618 0.94188 0.90233 0.0
H640 H 0.72129 0.41813 0.03579 0.0
H641 H 0.69511 0.42702 0.9876 0.0
H642 H 0.69422 0.47667 0.05682 0.0
H643 H 0.72113 0.46824 0.10357 0.0
H644 H 0.65974 0.4357 0.01084 0.0
H645 H 0.69824 0.49309 0.91701 0.0
H646 H 0.70986 0.47685 0.95329 0.0
H647 H 0.69722 0.49397 0.98111 0.0
C648 C 0.71567 0.43103 0.04052 0.0
C649 C 0.72354 0.44259 0.07303 0.0
C650 C 0.70058 0.43603 0.01318 0.0
C651 C 0.69296 0.45267 0.01781 0.0
C652 C 0.70019 0.46395 0.05177 0.0
H653 H 0.59982 0.50038 0.87284 0.0
H654 H 0.62464 0.49343 0.92802 0.0
C655 C 0.71541 0.459 0.07897 0.0
C656 C 0.67761 0.45813 0.98653 0.0
H657 H 0.66611 0.48892 0.90036 0.0
C658 C 0.66114 0.44735 0.98673 0.0
C659 C 0.67949 0.4733 0.95488 0.0
C660 C 0.69721 0.4849 0.95108 0.0
C661 C 0.64652 0.45132 0.9562 0.0
C662 C 0.64845 0.46642 0.92462 0.0
C663 C 0.66473 0.47737 0.9248 0.0
C664 C 0.6338 0.47085 0.89042 0.0
C665 C 0.62906 0.43939 0.95783 0.0
C666 C 0.63102 0.46059 0.85062 0.0
C667 C 0.61704 0.46466 0.81852 0.0
C668 C 0.60554 0.47905 0.82576 0.0
C669 C 0.60857 0.48939 0.8656 0.0
C670 C 0.62265 0.48538 0.89744 0.0
H671 H 0.6284 0.43 0.98961 0.0
H672 H 0.6163 0.44734 0.95844 0.0
H673 H 0.6289 0.43165 0.92509 0.0
H674 H 0.63969 0.44944 0.84437 0.0
H675 H 0.61535 0.45659 0.78788 0.0
H676 H 0.95357 0.69608 0.05732 0.0
H677 H 0.9636 0.66917 0.02016 0.0
H678 H 0.91644 0.67098 0.92796 0.0
H679 H 0.90629 0.69779 0.96491 0.0
H680 H 0.94491 0.63594 0.01036 0.0
H681 H 0.9618 0.67038 0.83355 0.0
H682 H 0.95791 0.68211 0.88755 0.0
H683 H 0.93832 0.67325 0.85633 0.0
C684 C 0.9452 0.69062 0.02956 0.0
C685 C 0.92924 0.69918 0.01371 0.0
C686 C 0.951 0.6753 0.00824 0.0
C687 C 0.94097 0.6683 0.97066 0.0
C688 C 0.92463 0.67641 0.9561 0.0
H689 H 0.95499 0.58171 0.78245 0.0
H690 H 0.94377 0.60666 0.82633 0.0
C691 C 0.91886 0.69172 0.97727 0.0
C692 C 0.94775 0.65272 0.94604 0.0
H693 H 0.9628 0.63914 0.83687 0.0
C694 C 0.94891 0.63663 0.97249 0.0
C695 C 0.95299 0.65369 0.89663 0.0
C696 C 0.95288 0.67081 0.86686 0.0
C697 C 0.95476 0.62135 0.95056 0.0
C698 C 0.95986 0.62231 0.90108 0.0
C699 C 0.95879 0.63843 0.87474 0.0
C700 C 0.96643 0.60679 0.87578 0.0
C701 C 0.95503 0.60424 0.98026 0.0
C702 C 0.98298 0.59869 0.88877 0.0
C703 C 0.98949 0.58449 0.8636 0.0
C704 C 0.97963 0.57818 0.8247 0.0
C705 C 0.96304 0.58635 0.81183 0.0
C706 C 0.95655 0.60055 0.83703 0.0
H707 H 0.94632 0.60467 0.01391 0.0
H708 H 0.94986 0.59295 0.95971 0.0
H709 H 0.96967 0.60178 0.99011 0.0
H710 H 0.99107 0.60356 0.91783 0.0
H711 H 0.00249 0.57872 0.87393 0.0
H712 H 0.04821 0.16049 0.41628 0.0
H713 H 0.03515 0.13346 0.45779 0.0
H714 H 0.06887 0.10226 0.3655 0.0
H715 H 0.08292 0.12915 0.32597 0.0
H716 H 0.01485 0.10577 0.42549 0.0
H717 H 0.08203 0.08264 0.49518 0.0
H718 H 0.07984 0.10454 0.46856 0.0
H719 H 0.08253 0.08602 0.43121 0.0
C720 C 0.05314 0.14791 0.4054 0.0
C721 C 0.06674 0.14706 0.36792 0.0
C722 C 0.04548 0.13245 0.42879 0.0
C723 C 0.0512 0.11584 0.41513 0.0
C724 C 0.06451 0.11493 0.37728 0.0
H725 H 0.02529 0.01135 0.54971 0.0
H726 H 0.03004 0.03401 0.48447 0.0
C727 C 0.07235 0.13035 0.35428 0.0
C728 C 0.04332 0.09952 0.4408 0.0
H729 H 0.0555 0.06319 0.50755 0.0
C730 C 0.02374 0.09642 0.44329 0.0
C731 C 0.05494 0.08732 0.46399 0.0
C732 C 0.07597 0.09035 0.46508 0.0
C733 C 0.01548 0.08156 0.4689 0.0
C734 C 0.02711 0.06953 0.49236 0.0
C735 C 0.04667 0.07235 0.48879 0.0
C736 C 0.01949 0.05516 0.52587 0.0
C737 C 0.99441 0.0789 0.47127 0.0
C738 C 0.01131 0.05948 0.56992 0.0
C739 C 0.00877 0.04665 0.60723 0.0
C740 C 0.01427 0.02929 0.6009 0.0
C741 C 0.02073 0.02459 0.55534 0.0
C742 C 0.02354 0.03752 0.51815 0.0
H743 H 0.98779 0.08662 0.44209 0.0
H744 H 0.99025 0.06471 0.46899 0.0
H745 H 0.98885 0.08336 0.50608 0.0
H746 H 0.00836 0.07307 0.57679 0.0
H747 H 0.00383 0.05061 0.64209 0.0
H748 H 0.3465 0.9509 0.45353 0.0
H749 H 0.37243 0.9499 0.50783 0.0
H750 H 0.40894 0.933 0.39406 0.0
H751 H 0.38274 0.93271 0.34015 0.0
H752 H 0.41819 0.91889 0.48318 0.0
H753 H 0.40982 0.99141 0.48598 0.0
H754 H 0.38949 0.97847 0.50812 0.0
H755 H 0.39709 0.97771 0.44619 0.0
C756 C 0.35981 0.94631 0.44031 0.0
C757 C 0.36259 0.94229 0.39195 0.0
C758 C 0.37471 0.94595 0.47139 0.0
C759 C 0.39272 0.94194 0.4545 0.0
C760 C 0.39519 0.93637 0.40764 0.0
H761 H 0.49465 0.99001 0.54524 0.0
H762 H 0.46894 0.97757 0.50061 0.0
C763 C 0.38023 0.93643 0.3767 0.0
C764 C 0.40933 0.94572 0.48326 0.0
H765 H 0.43347 0.97961 0.53256 0.0
C766 C 0.42155 0.93213 0.49421 0.0
C767 C 0.41382 0.9631 0.49676 0.0
C768 C 0.40199 0.97856 0.48332 0.0
C769 C 0.43822 0.93551 0.51825 0.0
C770 C 0.44252 0.95285 0.53223 0.0
C771 C 0.43014 0.96632 0.5218 0.0
C772 C 0.46005 0.95782 0.55608 0.0
C773 C 0.45133 0.92067 0.52711 0.0
C774 C 0.46402 0.95043 0.60146 0.0
C775 C 0.47897 0.95738 0.6268 0.0
C776 C 0.48985 0.97202 0.60744 0.0
C777 C 0.4864 0.9788 0.56113 0.0
C778 C 0.47172 0.9717 0.53562 0.0
H779 H 0.44841 0.90948 0.5038 0.0
H780 H 0.4662 0.92535 0.52085 0.0
H781 H 0.44947 0.91564 0.56497 0.0
H782 H 0.45499 0.93996 0.61834 0.0
H783 H 0.48127 0.95202 0.66264 0.0
H784 H 0.485 0.33415 0.421 0.0
H785 H 0.49749 0.3572 0.47091 0.0
H786 H 0.51828 0.38739 0.34416 0.0
H787 H 0.50654 0.36412 0.29409 0.0
H788 H 0.54339 0.38764 0.41977 0.0
H789 H 0.47113 0.40408 0.47882 0.0
H790 H 0.47685 0.38148 0.49074 0.0
H791 H 0.47565 0.38998 0.42984 0.0
C792 C 0.4925 0.34555 0.40377 0.0
C793 C 0.49456 0.34741 0.35353 0.0
C794 C 0.4995 0.35876 0.43232 0.0
C795 C 0.50852 0.3741 0.4111 0.0
C796 C 0.51126 0.37568 0.36116 0.0
H797 H 0.51494 0.47616 0.52737 0.0
H798 H 0.51253 0.45128 0.47536 0.0
C799 C 0.50435 0.36247 0.33262 0.0
C800 C 0.51412 0.389 0.4405 0.0
H801 H 0.49615 0.41983 0.51227 0.0
C802 C 0.53311 0.39468 0.44017 0.0
C803 C 0.50061 0.39824 0.46649 0.0
C804 C 0.4799 0.39328 0.46632 0.0
C805 C 0.53893 0.40947 0.46521 0.0
C806 C 0.52541 0.41859 0.49144 0.0
C807 C 0.50648 0.41278 0.49205 0.0
C808 C 0.5302 0.43456 0.51766 0.0
C809 C 0.55936 0.41548 0.4624 0.0
C810 C 0.54157 0.43363 0.55764 0.0
C811 C 0.54314 0.44797 0.58727 0.0
C812 C 0.5331 0.46325 0.57758 0.0
C813 C 0.52274 0.4645 0.53584 0.0
C814 C 0.52133 0.4503 0.50612 0.0
H815 H 0.56715 0.40954 0.43244 0.0
H816 H 0.56086 0.4301 0.4577 0.0
H817 H 0.56596 0.41146 0.49636 0.0
H818 H 0.54829 0.4215 0.56755 0.0
H819 H 0.55109 0.4466 0.61946 0.0
H820 H 0.1756 0.58619 0.41132 0.0
H821 H 0.14766 0.58153 0.46336 0.0
H822 H 0.11903 0.62005 0.37758 0.0
H823 H 0.14716 0.62479 0.3247 0.0
H824 H 0.12461 0.60185 0.51801 0.0
H825 H 0.08735 0.57473 0.3638 0.0
H826 H 0.11229 0.57974 0.36112 0.0
H827 H 0.09612 0.59728 0.35676 0.0
C828 C 0.16361 0.59411 0.4042 0.0
C829 C 0.16357 0.60576 0.36357 0.0
C830 C 0.14757 0.59136 0.43395 0.0
C831 C 0.13115 0.60018 0.42378 0.0
C832 C 0.13145 0.61283 0.38542 0.0
H833 H 0.03635 0.56537 0.62369 0.0
H834 H 0.05677 0.58603 0.57354 0.0
C835 C 0.14752 0.61554 0.35535 0.0
C836 C 0.11351 0.59458 0.45077 0.0
H837 H 0.0725 0.57064 0.43951 0.0
C838 C 0.11299 0.59534 0.50089 0.0
C839 C 0.09848 0.58598 0.42818 0.0
C840 C 0.09852 0.58422 0.37457 0.0
C841 C 0.09841 0.58682 0.52928 0.0
C842 C 0.0838 0.57761 0.50674 0.0
C843 C 0.08372 0.57778 0.45654 0.0
C844 C 0.07005 0.56564 0.53438 0.0
C845 C 0.09945 0.5867 0.58316 0.0
C846 C 0.07027 0.54743 0.52766 0.0
C847 C 0.05857 0.53565 0.5558 0.0
C848 C 0.0464 0.54185 0.59134 0.0
C849 C 0.04566 0.56018 0.59682 0.0
C850 C 0.05738 0.57199 0.56842 0.0
H851 H 0.1132 0.59206 0.59466 0.0
H852 H 0.0883 0.59493 0.59787 0.0
H853 H 0.09711 0.57306 0.59905 0.0
H854 H 0.07992 0.54226 0.5015 0.0
H855 H 0.05945 0.52164 0.55047 0.0
H856 H 0.92999 0.87327 0.02861 0.0
H857 H 0.94909 0.89832 0.99407 0.0
H858 H 0.94323 0.87851 0.85306 0.0
H859 H 0.92364 0.85347 0.88715 0.0
H860 H 0.98113 0.88327 0.88591 0.0
H861 H 0.93973 0.94332 0.90828 0.0
H862 H 0.93987 0.92778 0.95884 0.0
H863 H 0.92877 0.92152 0.90522 0.0
C864 C 0.93212 0.87452 0.99002 0.0
C865 C 0.92529 0.86128 0.96066 0.0
C866 C 0.9431 0.88888 0.97038 0.0
C867 C 0.94745 0.89031 0.92105 0.0
C868 C 0.93994 0.87763 0.89126 0.0
H869 H 0.0279 0.94952 0.73591 0.0
H870 H 0.00522 0.92816 0.77465 0.0
C871 C 0.92886 0.86329 0.91083 0.0
C872 C 0.96184 0.90354 0.90168 0.0
H873 H 0.97162 0.94777 0.8827 0.0
C874 C 0.97901 0.89738 0.88481 0.0
C875 C 0.95914 0.92191 0.90151 0.0
C876 C 0.94086 0.92913 0.91911 0.0
C877 C 0.99362 0.90909 0.86752 0.0
C878 C 0.99076 0.92747 0.86581 0.0
C879 C 0.9737 0.93367 0.88364 0.0
C880 C 0.00493 0.94033 0.84322 0.0
C881 C 0.01208 0.90163 0.85214 0.0
C882 C 0.01206 0.95453 0.86861 0.0
C883 C 0.02492 0.96697 0.84622 0.0
C884 C 0.03069 0.96542 0.79803 0.0
C885 C 0.0238 0.951 0.77316 0.0
C886 C 0.01088 0.93872 0.79532 0.0
H887 H 0.01411 0.88856 0.8705 0.0
H888 H 0.01219 0.89971 0.81301 0.0
H889 H 0.02412 0.91067 0.85977 0.0
H890 H 0.00753 0.95606 0.90554 0.0
H891 H 0.02985 0.97805 0.86611 0.0
H892 H 0.68584 0.00739 0.94319 0.0
H893 H 0.66077 0.01717 0.89211 0.0
H894 H 0.67193 0.07104 0.92945 0.0
H895 H 0.69735 0.06123 0.98061 0.0
H896 H 0.63341 0.05728 0.94543 0.0
H897 H 0.6609 0.04633 0.76206 0.0
H898 H 0.66487 0.02819 0.80361 0.0
H899 H 0.67601 0.04948 0.81186 0.0
C900 C 0.68317 0.02135 0.93973 0.0
C901 C 0.69344 0.03358 0.96566 0.0
C902 C 0.66896 0.02694 0.91038 0.0
C903 C 0.66467 0.04484 0.90663 0.0
C904 C 0.6752 0.0572 0.93155 0.0
H905 H 0.56838 0.0531 0.72134 0.0
H906 H 0.59605 0.06511 0.76047 0.0
C907 C 0.68968 0.05162 0.96054 0.0
C908 C 0.64784 0.04994 0.88074 0.0
H909 H 0.62705 0.04402 0.77445 0.0
C910 C 0.63211 0.05493 0.90766 0.0
C911 C 0.64626 0.04711 0.83143 0.0
C912 C 0.66298 0.04265 0.80041 0.0
C913 C 0.61437 0.05542 0.88754 0.0
C914 C 0.61244 0.0507 0.83958 0.0
C915 C 0.62852 0.04749 0.8114 0.0
C916 C 0.59391 0.04599 0.82053 0.0
C917 C 0.5977 0.06004 0.91849 0.0
C918 C 0.58341 0.03149 0.84181 0.0
C919 C 0.56781 0.02452 0.81943 0.0
C920 C 0.56237 0.03196 0.77535 0.0
C921 C 0.57219 0.04717 0.75546 0.0
C922 C 0.588 0.05402 0.77768 0.0
H923 H 0.60199 0.069 0.94686 0.0
H924 H 0.58688 0.06645 0.89681 0.0
H925 H 0.59132 0.04778 0.93644 0.0
H926 H 0.58794 0.02486 0.87432 0.0
H927 H 0.56053 0.01281 0.8356 0.0
H928 H 0.56524 0.63595 0.01656 0.0
H929 H 0.55263 0.61224 0.9693 0.0
H930 H 0.50078 0.63913 0.95619 0.0
H931 H 0.51312 0.66285 0.00459 0.0
H932 H 0.5149 0.59216 0.99657 0.0
H933 H 0.52086 0.62612 0.81491 0.0
H934 H 0.5359 0.63262 0.86226 0.0
H935 H 0.51155 0.6376 0.86504 0.0
C936 C 0.55113 0.63683 0.00381 0.0
C937 C 0.54013 0.65122 0.01463 0.0
C938 C 0.544 0.62331 0.97668 0.0
C939 C 0.52582 0.624 0.95948 0.0
C940 C 0.5149 0.63848 0.96907 0.0
H941 H 0.48543 0.5454 0.76189 0.0
H942 H 0.4841 0.57013 0.81528 0.0
C943 C 0.52201 0.65203 0.99645 0.0
C944 C 0.51832 0.60914 0.9327 0.0
H945 H 0.51241 0.59581 0.81921 0.0
C946 C 0.51404 0.59298 0.95785 0.0
C947 C 0.51705 0.6104 0.88239 0.0
C948 C 0.52159 0.62757 0.85419 0.0
C949 C 0.50928 0.57775 0.93363 0.0
C950 C 0.50924 0.5787 0.88299 0.0
C951 C 0.51247 0.59512 0.85806 0.0
C952 C 0.50827 0.56262 0.85501 0.0
C953 C 0.50477 0.5607 0.96245 0.0
C954 C 0.52216 0.55014 0.86008 0.0
C955 C 0.52296 0.53607 0.82982 0.0
C956 C 0.50995 0.53426 0.79356 0.0
C957 C 0.49559 0.54639 0.78964 0.0
C958 C 0.49483 0.56054 0.81998 0.0
H959 H 0.49895 0.56326 0.99877 0.0
H960 H 0.49455 0.55212 0.94425 0.0
H961 H 0.51786 0.55345 0.96701 0.0
H962 H 0.53292 0.55171 0.88611 0.0
H963 H 0.53424 0.527 0.83374 0.0
H964 H 0.87323 0.38178 0.98803 0.0
H965 H 0.89932 0.38775 0.9294 0.0
H966 H 0.9276 0.42009 0.02975 0.0
H967 H 0.90175 0.41436 0.08795 0.0
H968 H 0.90716 0.42087 0.89354 0.0
H969 H 0.9713 0.39522 0.97147 0.0
H970 H 0.94804 0.38781 0.99331 0.0
H971 H 0.95874 0.4079 0.01365 0.0
C972 C 0.88522 0.38983 0.99794 0.0
C973 C 0.88534 0.39766 0.04262 0.0
C974 C 0.90015 0.39315 0.96452 0.0
C975 C 0.91551 0.40421 0.97537 0.0
C976 C 0.91617 0.41112 0.02099 0.0
H977 H 0.97474 0.48741 0.82419 0.0
H978 H 0.95525 0.4663 0.87455 0.0
C979 C 0.90129 0.40784 0.05432 0.0
C980 C 0.92918 0.41103 0.93716 0.0
H981 H 0.97593 0.4206 0.91463 0.0
C982 C 0.92221 0.42041 0.89756 0.0
C983 C 0.94881 0.41037 0.94216 0.0
C984 C 0.95715 0.39961 0.98224 0.0
C985 C 0.93428 0.43018 0.8648 0.0
C986 C 0.95377 0.43072 0.87216 0.0
C987 C 0.96091 0.42035 0.90963 0.0
C988 C 0.96661 0.44318 0.84359 0.0
C989 C 0.92605 0.44043 0.82354 0.0
C990 C 0.97978 0.43708 0.8105 0.0
C991 C 0.99096 0.44913 0.78147 0.0
C992 C 0.98918 0.46744 0.78549 0.0
C993 C 0.97641 0.47342 0.82 0.0
C994 C 0.96523 0.46139 0.84873 0.0
H995 H 0.91174 0.43522 0.81592 0.0
H996 H 0.92503 0.45445 0.8327 0.0
H997 H 0.93515 0.44 0.79056 0.0
H998 H 0.98105 0.42304 0.80631 0.0
H999 H 1.00072 0.44411 0.75534 0.0
H1000 H 0.0804 0.20398 0.00449 0.0
H1001 H 0.07434 0.18157 0.94649 0.0
H1002 H 0.13366 0.17334 0.9312 0.0
H1003 H 0.13992 0.19593 0.98916 0.0
H1004 H 0.08762 0.17344 0.85024 0.0
H1005 H 0.10976 0.12652 0.99485 0.0
H1006 H 0.10504 0.14924 0.00544 0.0
H1007 H 0.12656 0.14387 0.97526 0.0
C1008 C 0.09225 0.19796 0.98743 0.0
C1009 C 0.11064 0.20158 0.00195 0.0
C1010 C 0.08874 0.18505 0.95443 0.0
C1011 C 0.10352 0.17557 0.9354 0.0
C1012 C 0.12204 0.18034 0.94615 0.0
H1013 H 0.08637 0.0858 0.75067 0.0
H1014 H 0.09833 0.11362 0.78185 0.0
C1015 C 0.12559 0.19325 0.97921 0.0
C1016 C 0.09924 0.15927 0.91 0.0
H1017 H 0.09874 0.11429 0.92507 0.0
C1018 C 0.09025 0.16049 0.86617 0.0
C1019 C 0.10243 0.14242 0.93144 0.0
C1020 C 0.11134 0.1403 0.9795 0.0
C1021 C 0.08418 0.14524 0.84341 0.0
C1022 C 0.08727 0.12843 0.86512 0.0
C1023 C 0.09651 0.12723 0.90851 0.0
C1024 C 0.07993 0.11189 0.84524 0.0
C1025 C 0.07389 0.14716 0.79735 0.0
C1026 C 0.06586 0.10162 0.87097 0.0
C1027 C 0.05909 0.08574 0.85348 0.0
C1028 C 0.06637 0.07973 0.81002 0.0
C1029 C 0.08058 0.09001 0.78442 0.0
C1030 C 0.08729 0.10598 0.80189 0.0
H1031 H 0.07008 0.16102 0.7892 0.0
H1032 H 0.08297 0.14291 0.76728 0.0
H1033 H 0.0609 0.13856 0.79923 0.0
H1034 H 0.06011 0.10591 0.90471 0.0
H1035 H 0.04833 0.07802 0.87436 0.0
H1036 H 0.35455 0.02681 0.05692 0.0
H1037 H 0.38118 0.03321 0.0004 0.0
H1038 H 0.3638 0.98899 0.91861 0.0
H1039 H 0.33673 0.98302 0.97355 0.0
H1040 H 0.40959 0.01245 0.98566 0.0
H1041 H 0.37676 0.02498 0.81198 0.0
H1042 H 0.36355 0.02469 0.86834 0.0
H1043 H 0.36827 0.00434 0.84017 0.0
C1044 C 0.35601 0.0188 0.02602 0.0
C1045 C 0.34343 0.00436 0.01998 0.0
C1046 C 0.37139 0.02238 0.99391 0.0
C1047 C 0.37451 0.0117 0.95484 0.0
C1048 C 0.36159 0.99769 0.94775 0.0
H1049 H 0.47966 0.98548 0.82307 0.0
H1050 H 0.45105 0.98821 0.87199 0.0
C1051 C 0.34618 0.99415 0.97967 0.0
C1052 C 0.39214 0.01406 0.92435 0.0
H1053 H 0.40912 0.0168 0.80808 0.0
C1054 C 0.40944 0.01365 0.94684 0.0
C1055 C 0.39211 0.01589 0.87365 0.0
C1056 C 0.37417 0.0177 0.84717 0.0
C1057 C 0.42657 0.01424 0.92019 0.0
C1058 C 0.42648 0.01484 0.86946 0.0
C1059 C 0.40924 0.01607 0.84692 0.0
C1060 C 0.44402 0.01343 0.83938 0.0
C1061 C 0.44461 0.01421 0.94682 0.0
C1062 C 0.44943 0.02644 0.80354 0.0
C1063 C 0.46582 0.02484 0.77497 0.0
C1064 C 0.47708 0.01013 0.78153 0.0
C1065 C 0.4715 0.99709 0.81724 0.0
C1066 C 0.45514 0.99867 0.84556 0.0
H1067 H 0.4427 0.01955 0.98296 0.0
H1068 H 0.44914 0.00043 0.95172 0.0
H1069 H 0.45598 0.02215 0.92673 0.0
H1070 H 0.44102 0.03789 0.79781 0.0
H1071 H 0.46963 0.03509 0.74767 0.0
H1072 H 0.4812 0.32294 0.96466 0.0
H1073 H 0.48738 0.34819 0.90795 0.0
H1074 H 0.42878 0.35998 0.91484 0.0
H1075 H 0.42232 0.33451 0.97112 0.0
H1076 H 0.45805 0.36303 0.81261 0.0
H1077 H 0.47309 0.40006 0.97573 0.0
H1078 H 0.48031 0.3776 0.97231 0.0
H1079 H 0.45583 0.38195 0.97731 0.0
C1080 C 0.46947 0.33045 0.95276 0.0
C1081 C 0.45127 0.32677 0.9727 0.0
C1082 C 0.47307 0.34494 0.92054 0.0
C1083 C 0.45855 0.35593 0.90757 0.0
C1084 C 0.44014 0.35159 0.92449 0.0
H1085 H 0.46814 0.45599 0.73311 0.0
H1086 H 0.45534 0.42843 0.77338 0.0
C1087 C 0.43652 0.3371 0.95676 0.0
C1088 C 0.46308 0.37312 0.88185 0.0
H1089 H 0.47879 0.41518 0.90107 0.0
C1090 C 0.46243 0.37452 0.83175 0.0
C1091 C 0.46878 0.38797 0.9072 0.0
C1092 C 0.46956 0.38701 0.96116 0.0
C1093 C 0.46789 0.39041 0.8061 0.0
C1094 C 0.47389 0.40523 0.83149 0.0
C1095 C 0.47414 0.40383 0.88171 0.0
C1096 C 0.48127 0.42195 0.80681 0.0
C1097 C 0.46789 0.39105 0.75207 0.0
C1098 C 0.4999 0.42766 0.81327 0.0
C1099 C 0.50717 0.44339 0.79079 0.0
C1100 C 0.49594 0.45384 0.7614 0.0
C1101 C 0.47716 0.44824 0.75544 0.0
C1102 C 0.46987 0.43243 0.77808 0.0
H1103 H 0.46649 0.37764 0.73784 0.0
H1104 H 0.45589 0.39874 0.73981 0.0
H1105 H 0.481 0.39772 0.73653 0.0
H1106 H 0.50892 0.41982 0.83545 0.0
H1107 H 0.5217 0.44726 0.7962 0.0
H1108 H 0.18736 0.56747 0.95324 0.0
H1109 H 0.16422 0.55509 0.90039 0.0
H1110 H 0.16698 0.5042 0.97482 0.0
H1111 H 0.18965 0.51666 0.02913 0.0
H1112 H 0.16261 0.52724 0.8391 0.0
H1113 H 0.11194 0.5162 0.99461 0.0
H1114 H 0.13368 0.52893 0.99824 0.0
H1115 H 0.13369 0.50521 0.99974 0.0
C1116 C 0.18316 0.5536 0.95815 0.0
C1117 C 0.1901 0.54313 0.99593 0.0
C1118 C 0.17003 0.54652 0.92771 0.0
C1119 C 0.16358 0.52883 0.93436 0.0
C1120 C 0.1715 0.51798 0.96971 0.0
H1121 H 0.08024 0.48567 0.74007 0.0
H1122 H 0.10865 0.48915 0.78611 0.0
C1123 C 0.18462 0.52508 1.00036 0.0
C1124 C 0.14753 0.52237 0.90677 0.0
H1125 H 0.1012 0.50922 0.91909 0.0
C1126 C 0.14922 0.52309 0.8565 0.0
C1127 C 0.13002 0.5172 0.92968 0.0
C1128 C 0.12707 0.51694 0.98349 0.0
C1129 C 0.13377 0.51918 0.82846 0.0
C1130 C 0.11625 0.51414 0.85142 0.0
C1131 C 0.11469 0.51298 0.90166 0.0
C1132 C 0.09897 0.51148 0.8242 0.0
C1133 C 0.13609 0.52124 0.77458 0.0
C1134 C 0.08391 0.52255 0.83134 0.0
C1135 C 0.06764 0.52053 0.80549 0.0
C1136 C 0.06606 0.50733 0.77194 0.0
C1137 C 0.08104 0.49602 0.76545 0.0
C1138 C 0.09734 0.49805 0.79149 0.0
H1139 H 0.14936 0.52863 0.76301 0.0
H1140 H 0.13636 0.50798 0.75946 0.0
H1141 H 0.12414 0.52825 0.7592 0.0
H1142 H 0.08485 0.53296 0.85654 0.0
H1143 H 0.05638 0.52945 0.81148 0.0
H1144 H 0.95153 0.81466 0.30476 0.0
H1145 H 0.96302 0.83703 0.35792 0.0
H1146 H 0.90647 0.84387 0.41146 0.0
H1147 H 0.89486 0.8212 0.35899 0.0
H1148 H 0.95027 0.87228 0.34913 0.0
H1149 H 0.93783 0.84264 0.53381 0.0
H1150 H 0.93916 0.82944 0.48168 0.0
H1151 H 0.91833 0.84112 0.49495 0.0
C1152 C 0.94159 0.82045 0.32904 0.0
C1153 C 0.92226 0.81614 0.32765 0.0
C1154 C 0.94817 0.83335 0.35908 0.0
C1155 C 0.93561 0.84207 0.38865 0.0
C1156 C 0.91643 0.83716 0.38931 0.0
H1157 H 0.95001 0.93175 0.57019 0.0
H1158 H 0.93696 0.90764 0.52454 0.0
C1159 C 0.90981 0.82428 0.35912 0.0
C1160 C 0.94234 0.85749 0.41484 0.0
H1161 H 0.94741 0.87294 0.52663 0.0
C1162 C 0.94972 0.87242 0.38796 0.0
C1163 C 0.94136 0.85767 0.46539 0.0
C1164 C 0.93388 0.84184 0.49585 0.0
C1165 C 0.95611 0.8876 0.41028 0.0
C1166 C 0.95548 0.8877 0.46091 0.0
C1167 C 0.94788 0.87283 0.48781 0.0
C1168 C 0.96313 0.9029 0.48668 0.0
C1169 C 0.96316 0.9035 0.37935 0.0
C1170 C 0.98215 0.90826 0.48045 0.0
C1171 C 0.98961 0.92204 0.5063 0.0
C1172 C 0.97825 0.93063 0.53934 0.0
C1173 C 0.95914 0.92535 0.54517 0.0
C1174 C 0.95167 0.91159 0.51913 0.0
H1175 H 0.95757 0.90325 0.34277 0.0
H1176 H 0.9592 0.91599 0.39555 0.0
H1177 H 0.9787 0.90348 0.37572 0.0
H1178 H 0.99137 0.90146 0.45648 0.0
H1179 H 0.00446 0.92549 0.50174 0.0
H1180 H 0.69291 0.95395 0.34542 0.0
H1181 H 0.667 0.95511 0.40482 0.0
H1182 H 0.68365 0.0089 0.43149 0.0
H1183 H 0.70953 0.00793 0.37182 0.0
H1184 H 0.67227 0.98785 0.51605 0.0
H1185 H 0.62023 0.98336 0.37336 0.0
H1186 H 0.63651 0.96586 0.37556 0.0
H1187 H 0.64491 0.98813 0.3603 0.0
C1188 C 0.69117 0.966 0.36416 0.0
C1189 C 0.70324 0.98091 0.35338 0.0
C1190 C 0.67632 0.96664 0.39808 0.0
C1191 C 0.67314 0.98221 0.42191 0.0
C1192 C 0.68578 0.99677 0.41338 0.0
H1193 H 0.5698 0.01572 0.55483 0.0
H1194 H 0.59819 0.01201 0.50536 0.0
C1195 C 0.70066 0.99615 0.37943 0.0
C1196 C 0.65612 0.98362 0.45372 0.0
H1197 H 0.60816 0.98305 0.45322 0.0
C1198 C 0.65824 0.98676 0.5024 0.0
C1199 C 0.63782 0.98244 0.43571 0.0
C1200 C 0.63463 0.97992 0.38331 0.0
C1201 C 0.64257 0.98857 0.53362 0.0
C1202 C 0.62426 0.98705 0.51576 0.0
C1203 C 0.62217 0.98405 0.467 0.0
C1204 C 0.60709 0.98917 0.54654 0.0
C1205 C 0.64572 0.99252 0.5852 0.0
C1206 C 0.60246 0.97741 0.58591 0.0
C1207 C 0.58615 0.97946 0.61432 0.0
C1208 C 0.57411 0.9933 0.60385 0.0
C1209 C 0.57873 0.00493 0.56408 0.0
C1210 C 0.59498 0.00284 0.53569 0.0
H1211 H 0.6604 0.99726 0.59056 0.0
H1212 H 0.63604 0.00265 0.5975 0.0
H1213 H 0.64288 0.98029 0.60809 0.0
H1214 H 0.61139 0.96656 0.59448 0.0
H1215 H 0.58302 0.97024 0.64458 0.0
H1216 H 0.59232 0.68243 0.44236 0.0
H1217 H 0.58848 0.65798 0.50321 0.0
H1218 H 0.58812 0.62061 0.39144 0.0
H1219 H 0.59199 0.64467 0.33115 0.0
H1220 H 0.55955 0.63472 0.51573 0.0
H1221 H 0.62309 0.59746 0.4817 0.0
H1222 H 0.62081 0.61981 0.45802 0.0
H1223 H 0.61125 0.60137 0.42696 0.0
C1224 C 0.5917 0.66897 0.43093 0.0
C1225 C 0.59274 0.66552 0.38189 0.0
C1226 C 0.58957 0.65502 0.46568 0.0
C1227 C 0.58846 0.63741 0.45197 0.0
C1228 C 0.58963 0.634 0.4031 0.0
H1229 H 0.52428 0.54835 0.56743 0.0
H1230 H 0.53757 0.57574 0.52879 0.0
C1231 C 0.59183 0.64785 0.36855 0.0
C1232 C 0.58418 0.62257 0.48773 0.0
H1233 H 0.59609 0.58035 0.51726 0.0
C1234 C 0.56776 0.62297 0.51679 0.0
C1235 C 0.59504 0.60732 0.48996 0.0
C1236 C 0.61363 0.60655 0.46284 0.0
C1237 C 0.56125 0.60815 0.54543 0.0
C1238 C 0.57115 0.59234 0.54397 0.0
C1239 C 0.58826 0.59233 0.51759 0.0
C1240 C 0.56341 0.57546 0.56717 0.0
C1241 C 0.54366 0.60953 0.57643 0.0
C1242 C 0.57388 0.56571 0.6 0.0
C1243 C 0.56641 0.54982 0.62166 0.0
C1244 C 0.54836 0.54341 0.61079 0.0
C1245 C 0.53814 0.553 0.57701 0.0
C1246 C 0.54566 0.56877 0.55518 0.0
H1247 H 0.54169 0.62337 0.58644 0.0
H1248 H 0.5313 0.60533 0.5561 0.0
H1249 H 0.54401 0.60098 0.60972 0.0
H1250 H 0.5877 0.57053 0.60937 0.0
H1251 H 0.57463 0.54274 0.64755 0.0
H1252 H 0.84306 0.48413 0.35889 0.0
H1253 H 0.86549 0.49846 0.41037 0.0
H1254 H 0.87007 0.44936 0.4926 0.0
H1255 H 0.84704 0.43515 0.44277 0.0
H1256 H 0.87195 0.47827 0.54896 0.0
H1257 H 0.92051 0.48766 0.38881 0.0
H1258 H 0.89847 0.49813 0.38378 0.0
H1259 H 0.89897 0.47443 0.38848 0.0
C1260 C 0.84838 0.47651 0.38885 0.0
C1261 C 0.84348 0.4584 0.39622 0.0
C1262 C 0.86139 0.48468 0.41787 0.0
C1263 C 0.86985 0.47485 0.45443 0.0
C1264 C 0.86388 0.45716 0.46424 0.0
H1265 H 0.97871 0.47923 0.56685 0.0
H1266 H 0.94977 0.47455 0.5245 0.0
C1267 C 0.8508 0.44902 0.43551 0.0
C1268 C 0.88606 0.48232 0.47975 0.0
H1269 H 0.93189 0.49661 0.46197 0.0
C1270 C 0.88501 0.48249 0.52999 0.0
C1271 C 0.90316 0.48756 0.45486 0.0
C1272 C 0.9055 0.48683 0.40107 0.0
C1273 C 0.90072 0.48736 0.55612 0.0
C1274 C 0.91783 0.49249 0.53118 0.0
C1275 C 0.91871 0.49278 0.48092 0.0
C1276 C 0.93544 0.496 0.55643 0.0
C1277 C 0.89913 0.48615 0.61017 0.0
C1278 C 0.93714 0.50983 0.58792 0.0
C1279 C 0.95372 0.51252 0.61247 0.0
C1280 C 0.96891 0.50149 0.60562 0.0
C1281 C 0.96729 0.48796 0.57307 0.0
C1282 C 0.95074 0.48526 0.54877 0.0
H1283 H 0.88624 0.47855 0.62367 0.0
H1284 H 0.91152 0.47979 0.62532 0.0
H1285 H 0.89859 0.49966 0.62368 0.0
H1286 H 0.92564 0.5185 0.59362 0.0
H1287 H 0.95455 0.52311 0.63711 0.0
loop_
_geom_bond_atom_site_label_1
_geom_bond_atom_site_label_2
_geom_bond_distance
_geom_bond_site_symmetry_2
_ccdc_geom_bond_type
C0 C1 1.384 . S
C0 H13 0.947 . S
C0 C35 1.382 . S
C1 C0 1.384 . S
C1 C2 1.378 . S
C2 C1 1.378 . S
C2 C3 1.378 . S
C2 H14 0.952 . S
C3 C2 1.378 . S
C3 H15 0.950 . S
C3 C34 1.383 . S
H4 C23 0.947 . S
H5 C24 0.946 . S
H6 C26 0.953 . S
H7 C27 0.945 . S
H8 C29 0.952 . S
H9 C30 0.949 . S
H10 C32 0.950 . S
H11 C33 0.948 . S
H12 C35 0.951 . S
H13 C0 0.947 . S
H14 C2 0.952 . S
H15 C3 0.950 . S
N16 C19 1.382 . S
N16 C21 1.363 . S
N17 C19 1.371 . S
N17 C20 1.372 . S
N18 C20 1.361 . S
N18 C21 1.377 . S
C19 N16 1.382 . S
C19 N17 1.371 . S
C19 C22 1.480 . S
C20 N17 1.372 . S
C20 N18 1.361 . S
C20 C28 1.457 . S
C21 N16 1.363 . S
C21 N18 1.377 . S
C21 C34 1.479 . S
C22 C19 1.480 . S
C22 C23 1.383 . S
C22 C27 1.385 . S
C23 H4 0.947 . S
C23 C22 1.383 . S
C23 C24 1.388 . S
C24 H5 0.946 . S
C24 C23 1.388 . S
C24 C25 1.384 . S
C25 C24 1.384 . S
C25 C26 1.377 . S
C26 H6 0.953 . S
C26 C25 1.377 . S
C26 C27 1.369 . S
C27 H7 0.945 . S
C27 C22 1.385 . S
C27 C26 1.369 . S
C28 C20 1.457 . S
C28 C29 1.372 1_554 S
C28 C33 1.364 . S
C29 H8 0.952 . S
C29 C28 1.372 1_556 S
C29 C30 1.389 . S
C30 H9 0.949 . S
C30 C29 1.389 . S
C30 C31 1.387 . S
C31 C30 1.387 . S
C31 C32 1.372 1_556 S
C32 H10 0.950 . S
C32 C31 1.372 1_554 S
C32 C33 1.379 . S
C33 H11 0.948 . S
C33 C28 1.364 . S
C33 C32 1.379 . S
C34 C3 1.383 . S
C34 C21 1.479 . S
C34 C35 1.398 . S
C35 C0 1.382 . S
C35 H12 0.951 . S
C35 C34 1.398 . S
C36 C37 1.384 . S
C36 H49 0.947 . S
C36 C71 1.382 . S
C37 C36 1.384 . S
C37 C38 1.378 . S
C38 C37 1.378 . S
C38 C39 1.378 . S
C38 H50 0.952 . S
C39 C38 1.378 . S
C39 H51 0.950 . S
C39 C70 1.383 . S
H40 C59 0.947 . S
H41 C60 0.946 . S
H42 C62 0.953 . S
H43 C63 0.945 . S
H44 C65 0.952 . S
H45 C66 0.949 . S
H46 C68 0.950 . S
H47 C69 0.948 . S
H48 C71 0.951 . S
H49 C36 0.947 . S
H50 C38 0.952 . S
H51 C39 0.950 . S
N52 C55 1.382 1_554 S
N52 C57 1.363 . S
N53 C55 1.371 . S
N53 C56 1.372 . S
N54 C56 1.361 1_554 S
N54 C57 1.377 . S
C55 N52 1.382 1_556 S
C55 N53 1.371 . S
C55 C58 1.480 . S
C56 N53 1.372 . S
C56 N54 1.361 1_556 S
C56 C64 1.457 . S
C57 N52 1.363 . S
C57 N54 1.377 . S
C57 C70 1.479 . S
C58 C55 1.480 . S
C58 C59 1.383 1_556 S
C58 C63 1.385 . S
C59 H40 0.947 . S
C59 C58 1.383 1_554 S
C59 C60 1.388 . S
C60 H41 0.946 . S
C60 C59 1.388 . S
C60 C61 1.384 1_554 S
C61 C60 1.384 1_556 S
C61 C62 1.377 . S
C62 H42 0.953 . S
C62 C61 1.377 . S
C62 C63 1.369 . S
C63 H43 0.945 . S
C63 C58 1.385 . S
C63 C62 1.369 . S
C64 C56 1.457 . S
C64 C65 1.372 . S
C64 C69 1.364 . S
C65 H44 0.952 . S
C65 C64 1.372 . S
C65 C66 1.389 . S
C66 H45 0.949 . S
C66 C65 1.389 . S
C66 C67 1.387 . S
C67 C66 1.387 . S
C67 C68 1.372 . S
C68 H46 0.950 . S
C68 C67 1.372 . S
C68 C69 1.379 . S
C69 H47 0.948 . S
C69 C64 1.364 . S
C69 C68 1.379 . S
C70 C39 1.383 . S
C70 C57 1.479 . S
C70 C71 1.398 . S
C71 C36 1.382 . S
C71 H48 0.951 . S
C71 C70 1.398 . S
C72 C73 1.381 1_565 S
C72 H85 0.947 . S
C72 C107 1.382 1_565 S
C73 C72 1.381 1_545 S
C73 C74 1.384 . S
C74 C73 1.384 . S
C74 C75 1.378 . S
C74 H86 0.952 . S
C75 C74 1.378 . S
C75 H87 0.950 . S
C75 C106 1.383 . S
H76 C95 0.947 . S
H77 C96 0.952 . S
H78 C98 0.953 . S
H79 C99 0.945 . S
H80 C101 0.949 1_565 S
H81 C102 0.959 . S
H82 C104 0.950 . S
H83 C105 0.948 . S
H84 C107 0.952 1_565 S
H85 C72 0.947 . S
H86 C74 0.952 . S
H87 C75 0.950 . S
N88 C91 1.382 . S
N88 C93 1.363 . S
N89 C91 1.371 . S
N89 C92 1.372 . S
N90 C92 1.361 . S
N90 C93 1.377 . S
C91 N88 1.382 . S
C91 N89 1.371 . S
C91 C94 1.480 . S
C92 N89 1.372 . S
C92 N90 1.361 . S
C92 C100 1.462 . S
C93 N88 1.363 . S
C93 N90 1.377 . S
C93 C106 1.479 . S
C94 C91 1.480 . S
C94 C95 1.383 . S
C94 C99 1.385 1_554 S
C95 H76 0.947 . S
C95 C94 1.383 . S
C95 C96 1.384 1_545 S
C96 H77 0.952 . S
C96 C95 1.384 1_565 S
C96 C97 1.383 1_565 S
C97 C96 1.383 1_545 S
C97 C98 1.377 1_554 S
C98 H78 0.953 . S
C98 C97 1.377 1_556 S
C98 C99 1.369 . S
C99 H79 0.945 . S
C99 C94 1.385 1_556 S
C99 C98 1.369 . S
C100 C92 1.462 . S
C100 C101 1.370 1_554 S
C100 C105 1.366 . S
C101 H80 0.949 1_545 S
C101 C100 1.370 1_556 S
C101 C102 1.386 1_545 S
C102 H81 0.959 . S
C102 C101 1.386 1_565 S
C102 C103 1.381 1_565 S
C103 C102 1.381 1_545 S
C103 C104 1.372 . S
C104 H82 0.950 . S
C104 C103 1.372 . S
C104 C105 1.379 1_556 S
C105 H83 0.948 . S
C105 C100 1.366 . S
C105 C104 1.379 1_554 S
C106 C75 1.383 . S
C106 C93 1.479 . S
C106 C107 1.398 . S
C107 C72 1.382 1_545 S
C107 H84 0.952 1_545 S
C107 C106 1.398 . S
C108 C109 1.384 . S
C108 H121 0.947 . S
C108 C143 1.382 1_556 S
C109 C108 1.384 . S
C109 C110 1.378 . S
C110 C109 1.378 . S
C110 C111 1.378 . S
C110 H122 0.952 . S
C111 C110 1.378 . S
C111 H123 0.950 . S
C111 C142 1.383 1_556 S
H112 C131 0.947 1_556 S
H113 C132 0.943 . S
H114 C134 0.953 . S
H115 C135 0.945 . S
H116 C137 0.952 . S
H117 C138 0.949 . S
H118 C140 0.950 . S
H119 C141 0.948 . S
H120 C143 0.951 . S
H121 C108 0.947 . S
H122 C110 0.952 . S
H123 C111 0.950 . S
N124 C127 1.382 . S
N124 C129 1.363 . S
N125 C127 1.371 . S
N125 C128 1.372 . S
N126 C128 1.361 . S
N126 C129 1.377 . S
C127 N124 1.382 . S
C127 N125 1.371 . S
C127 C130 1.480 . S
C128 N125 1.372 . S
C128 N126 1.361 . S
C128 C136 1.457 . S
C129 N124 1.363 . S
C129 N126 1.377 . S
C129 C142 1.479 . S
C130 C127 1.480 . S
C130 C131 1.383 . S
C130 C135 1.385 . S
C131 H112 0.947 1_554 S
C131 C130 1.383 . S
C131 C132 1.389 1_554 S
C132 H113 0.943 . S
C132 C131 1.389 1_556 S
C132 C133 1.386 1_556 S
C133 C132 1.386 1_554 S
C133 C134 1.377 . S
C134 H114 0.953 . S
C134 C133 1.377 . S
C134 C135 1.369 . S
C135 H115 0.945 . S
C135 C130 1.385 . S
C135 C134 1.369 . S
C136 C128 1.457 . S
C136 C137 1.372 . S
C136 C141 1.364 . S
C137 H116 0.952 . S
C137 C136 1.372 . S
C137 C138 1.389 . S
C138 H117 0.949 . S
C138 C137 1.389 . S
C138 C139 1.387 . S
C139 C138 1.387 . S
C139 C140 1.372 . S
C140 H118 0.950 . S
C140 C139 1.372 . S
C140 C141 1.379 . S
C141 H119 0.948 . S
C141 C136 1.364 . S
C141 C140 1.379 . S
C142 C111 1.383 1_554 S
C142 C129 1.479 . S
C142 C143 1.398 . S
C143 C108 1.382 1_554 S
C143 H120 0.951 . S
C143 C142 1.398 . S
C144 C145 1.384 . S
C144 H157 0.947 . S
C144 C179 1.382 . S
C145 C144 1.384 . S
C145 C146 1.378 . S
C146 C145 1.378 . S
C146 C147 1.378 . S
C146 H158 0.952 . S
C147 C146 1.378 . S
C147 H159 0.950 . S
C147 C178 1.383 . S
H148 C167 0.947 . S
H149 C168 0.946 . S
H150 C170 0.953 . S
H151 C171 0.945 . S
H152 C173 0.952 . S
H153 C174 0.949 . S
H154 C176 0.950 . S
H155 C177 0.948 . S
H156 C179 0.951 . S
H157 C144 0.947 . S
H158 C146 0.952 . S
H159 C147 0.950 . S
N160 C163 1.382 . S
N160 C165 1.363 . S
N161 C163 1.371 . S
N161 C164 1.372 . S
N162 C164 1.361 . S
N162 C165 1.377 . S
C163 N160 1.382 . S
C163 N161 1.371 . S
C163 C166 1.480 . S
C164 N161 1.372 . S
C164 N162 1.361 . S
C164 C172 1.457 . S
C165 N160 1.363 . S
C165 N162 1.377 . S
C165 C178 1.479 . S
C166 C163 1.480 . S
C166 C167 1.383 . S
C166 C171 1.385 . S
C167 H148 0.947 . S
C167 C166 1.383 . S
C167 C168 1.388 . S
C168 H149 0.946 . S
C168 C167 1.388 . S
C168 C169 1.384 . S
C169 C168 1.384 . S
C169 C170 1.377 . S
C170 H150 0.953 . S
C170 C169 1.377 . S
C170 C171 1.369 . S
C171 H151 0.945 . S
C171 C166 1.385 . S
C171 C170 1.369 . S
C172 C164 1.457 . S
C172 C173 1.372 . S
C172 C177 1.364 . S
C173 H152 0.952 . S
C173 C172 1.372 . S
C173 C174 1.389 . S
C174 H153 0.949 . S
C174 C173 1.389 . S
C174 C175 1.387 . S
C175 C174 1.387 . S
C175 C176 1.372 . S
C176 H154 0.950 . S
C176 C175 1.372 . S
C176 C177 1.379 . S
C177 H155 0.948 . S
C177 C172 1.364 . S
C177 C176 1.379 . S
C178 C147 1.383 . S
C178 C165 1.479 . S
C178 C179 1.398 . S
C179 C144 1.382 . S
C179 H156 0.951 . S
C179 C178 1.398 . S
C180 C181 1.384 . S
C180 H193 0.947 . S
C180 C215 1.382 . S
C181 C180 1.384 . S
C181 C182 1.378 . S
C182 C181 1.378 . S
C182 C183 1.378 . S
C182 H194 0.952 . S
C183 C182 1.378 . S
C183 H195 0.950 . S
C183 C214 1.383 . S
H184 C203 0.947 . S
H185 C204 0.946 . S
H186 C206 0.953 . S
H187 C207 0.945 . S
H188 C209 0.952 . S
H189 C210 0.949 . S
H190 C212 0.950 . S
H191 C213 0.948 . S
H192 C215 0.951 . S
H193 C180 0.947 . S
H194 C182 0.952 . S
H195 C183 0.950 . S
N196 C199 1.382 . S
N196 C201 1.363 . S
N197 C199 1.371 . S
N197 C200 1.372 . S
N198 C200 1.361 . S
N198 C201 1.377 . S
C199 N196 1.382 . S
C199 N197 1.371 . S
C199 C202 1.480 . S
C200 N197 1.372 . S
C200 N198 1.361 . S
C200 C208 1.457 . S
C201 N196 1.363 . S
C201 N198 1.377 . S
C201 C214 1.479 . S
C202 C199 1.480 . S
C202 C203 1.383 . S
C202 C207 1.385 . S
C203 H184 0.947 . S
C203 C202 1.383 . S
C203 C204 1.388 . S
C204 H185 0.946 . S
C204 C203 1.388 . S
C204 C205 1.384 . S
C205 C204 1.384 . S
C205 C206 1.377 . S
C206 H186 0.953 . S
C206 C205 1.377 . S
C206 C207 1.369 . S
C207 H187 0.945 . S
C207 C202 1.385 . S
C207 C206 1.369 . S
C208 C200 1.457 . S
C208 C209 1.372 . S
C208 C213 1.364 . S
C209 H188 0.952 . S
C209 C208 1.372 . S
C209 C210 1.389 . S
C210 H189 0.949 . S
C210 C209 1.389 . S
C210 C211 1.387 . S
C211 C210 1.387 . S
C211 C212 1.372 . S
C212 H190 0.950 . S
C212 C211 1.372 . S
C212 C213 1.379 . S
C213 H191 0.948 . S
C213 C208 1.364 . S
C213 C212 1.379 . S
C214 C183 1.383 . S
C214 C201 1.479 . S
C214 C215 1.398 . S
C215 C180 1.382 . S
C215 H192 0.951 . S
C215 C214 1.398 . S
C216 C217 1.384 . S
C216 H229 0.948 1_545 S
C216 C251 1.381 . S
C217 C216 1.384 . S
C217 C218 1.378 . S
C218 C217 1.378 . S
C218 C219 1.378 . S
C218 H230 0.952 . S
C219 C218 1.378 . S
C219 H231 0.950 . S
C219 C250 1.383 . S
H220 C239 0.947 . S
H221 C240 0.948 . S
H222 C242 0.953 . S
H223 C243 0.945 . S
H224 C245 0.949 1_565 S
H225 C246 0.952 . S
H226 C248 0.950 . S
H227 C249 0.948 . S
H228 C251 0.950 1_565 S
H229 C216 0.948 1_565 S
H230 C218 0.952 . S
H231 C219 0.950 . S
N232 C235 1.382 . S
N232 C237 1.363 . S
N233 C235 1.371 . S
N233 C236 1.372 . S
N234 C236 1.361 . S
N234 C237 1.377 . S
C235 N232 1.382 . S
C235 N233 1.371 . S
C235 C238 1.480 . S
C236 N233 1.372 . S
C236 N234 1.361 . S
C236 C244 1.457 . S
C237 N232 1.363 . S
C237 N234 1.377 . S
C237 C250 1.479 . S
C238 C235 1.480 . S
C238 C239 1.383 . S
C238 C243 1.385 . S
C239 H220 0.947 . S
C239 C238 1.383 . S
C239 C240 1.388 1_545 S
C240 H221 0.948 . S
C240 C239 1.388 1_565 S
C240 C241 1.382 1_565 S
C241 C240 1.382 1_545 S
C241 C242 1.377 . S
C242 H222 0.953 . S
C242 C241 1.377 . S
C242 C243 1.369 . S
C243 H223 0.945 . S
C243 C238 1.385 . S
C243 C242 1.369 . S
C244 C236 1.457 . S
C244 C245 1.377 . S
C244 C249 1.364 . S
C245 H224 0.949 1_545 S
C245 C244 1.377 . S
C245 C246 1.387 1_545 S
C246 H225 0.952 . S
C246 C245 1.387 1_565 S
C246 C247 1.385 1_565 S
C247 C246 1.385 1_545 S
C247 C248 1.372 . S
C248 H226 0.950 . S
C248 C247 1.372 . S
C248 C249 1.379 . S
C249 H227 0.948 . S
C249 C244 1.364 . S
C249 C248 1.379 . S
C250 C219 1.383 . S
C250 C237 1.479 . S
C250 C251 1.400 . S
C251 C216 1.381 . S
C251 H228 0.950 1_545 S
C251 C250 1.400 . S
C252 C253 1.384 . S
C252 H265 0.947 . S
C252 C287 1.382 . S
C253 C252 1.384 . S
C253 C254 1.378 . S
C254 C253 1.378 . S
C254 C255 1.378 . S
C254 H266 0.952 . S
C255 C254 1.378 . S
C255 H267 0.950 . S
C255 C286 1.383 . S
H256 C275 0.947 . S
H257 C276 0.946 . S
H258 C278 0.953 . S
H259 C279 0.945 . S
H260 C281 0.952 . S
H261 C282 0.949 . S
H262 C284 0.950 . S
H263 C285 0.948 . S
H264 C287 0.951 . S
H265 C252 0.947 . S
H266 C254 0.952 . S
H267 C255 0.950 . S
N268 C271 1.382 . S
N268 C273 1.363 . S
N269 C271 1.371 . S
N269 C272 1.372 . S
N270 C272 1.361 . S
N270 C273 1.377 . S
C271 N268 1.382 . S
C271 N269 1.371 . S
C271 C274 1.480 . S
C272 N269 1.372 . S
C272 N270 1.361 . S
C272 C280 1.457 . S
C273 N268 1.363 . S
C273 N270 1.377 . S
C273 C286 1.479 . S
C274 C271 1.480 . S
C274 C275 1.383 . S
C274 C279 1.385 . S
C275 H256 0.947 . S
C275 C274 1.383 . S
C275 C276 1.388 . S
C276 H257 0.946 . S
C276 C275 1.388 . S
C276 C277 1.384 . S
C277 C276 1.384 . S
C277 C278 1.377 . S
C278 H258 0.953 . S
C278 C277 1.377 . S
C278 C279 1.369 . S
C279 H259 0.945 . S
C279 C274 1.385 . S
C279 C278 1.369 . S
C280 C272 1.457 . S
C280 C281 1.372 . S
C280 C285 1.364 . S
C281 H260 0.952 . S
C281 C280 1.372 . S
C281 C282 1.389 . S
C282 H261 0.949 . S
C282 C281 1.389 . S
C282 C283 1.387 . S
C283 C282 1.387 . S
C283 C284 1.372 . S
C284 H262 0.950 . S
C284 C283 1.372 . S
C284 C285 1.379 . S
C285 H263 0.948 . S
C285 C280 1.364 . S
C285 C284 1.379 . S
C286 C255 1.383 . S
C286 C273 1.479 . S
C286 C287 1.398 . S
C287 C252 1.382 . S
C287 H264 0.951 . S
C287 C286 1.398 . S
C288 O304 1.251 . S
C288 O306 1.254 . S
N289 C290 1.333 . S
N289 C294 1.307 1_455 S
N289 Zn295 2.020 . S
C290 N289 1.333 . S
C290 C291 1.379 1_455 S
C290 H308 0.952 . S
C291 C290 1.379 1_655 S
C291 C292 1.390 . S
C291 H318 0.949 1_655 S
C292 C291 1.390 . S
C292 C293 1.357 . S
C293 C292 1.357 . S
C293 C294 1.370 . S
C293 H319 0.950 . S
C294 N289 1.307 1_655 S
C294 C293 1.370 . S
C294 H312 0.948 . S
Zn295 N289 2.020 . S
Zn295 O304 2.039 . S
Zn295 O310 2.034 . S
Zn295 O314 2.025 1_565 S
Zn295 O316 2.024 1_455 S
C296 O315 1.246 . S
C296 O316 1.249 1_545 S
N297 C298 1.307 . S
N297 C299 1.333 . S
N297 Zn303 2.020 . S
C298 N297 1.307 . S
C298 C302 1.370 . S
C298 H309 0.948 . S
C299 N297 1.333 . S
C299 C300 1.379 . S
C299 H307 0.952 . S
C300 C299 1.379 . S
C300 C301 1.390 . S
C300 H320 0.949 . S
C301 C300 1.390 . S
C301 C302 1.357 . S
C302 C298 1.370 . S
C302 C301 1.357 . S
C302 H321 0.950 . S
Zn303 N297 2.020 . S
Zn303 O306 2.025 1_545 S
Zn303 O311 2.024 . S
Zn303 O313 2.039 . S
Zn303 O315 2.034 1_455 S
O304 C288 1.251 . S
O304 Zn295 2.039 . S
C305 O310 1.246 . S
C305 O311 1.249 1_565 S
O306 C288 1.254 . S
O306 Zn303 2.025 1_565 S
H307 C299 0.952 . S
H308 C290 0.952 . S
H309 C298 0.948 . S
O310 Zn295 2.034 . S
O310 C305 1.246 . S
O311 Zn303 2.024 . S
O311 C305 1.249 1_545 S
H312 C294 0.948 . S
O313 Zn303 2.039 . S
O313 C317 1.251 . S
O314 Zn295 2.025 1_545 S
O314 C317 1.254 . S
O315 C296 1.246 . S
O315 Zn303 2.034 1_655 S
O316 Zn295 2.024 1_655 S
O316 C296 1.249 1_565 S
C317 O313 1.251 . S
C317 O314 1.254 . S
H318 C291 0.949 1_455 S
H319 C293 0.950 . S
H320 C300 0.949 . S
H321 C302 0.950 . S
C322 O338 1.251 1_565 S
C322 O340 1.254 . S
N323 C324 1.333 . S
N323 C328 1.307 . S
N323 Zn329 2.020 . S
C324 N323 1.333 . S
C324 C325 1.379 . S
C324 H342 0.952 . S
C325 C324 1.379 . S
C325 C326 1.390 . S
C325 H352 0.949 . S
C326 C325 1.390 . S
C326 C327 1.357 . S
C327 C326 1.357 . S
C327 C328 1.370 . S
C327 H353 0.950 . S
C328 N323 1.307 . S
C328 C327 1.370 . S
C328 H346 0.948 . S
Zn329 N323 2.020 . S
Zn329 O338 2.039 . S
Zn329 O344 2.034 . S
Zn329 O348 2.025 . S
Zn329 O350 2.024 . S
C330 O349 1.246 1_545 S
C330 O350 1.249 . S
N331 C332 1.307 . S
N331 C333 1.333 . S
N331 Zn337 2.020 . S
C332 N331 1.307 . S
C332 C336 1.370 . S
C332 H343 0.948 . S
C333 N331 1.333 . S
C333 C334 1.379 . S
C333 H341 0.952 . S
C334 C333 1.379 . S
C334 C335 1.390 . S
C334 H354 0.949 . S
C335 C334 1.390 . S
C335 C336 1.357 . S
C336 C332 1.370 . S
C336 C335 1.357 . S
C336 H355 0.950 . S
Zn337 N331 2.020 . S
Zn337 O340 2.025 . S
Zn337 O345 2.024 . S
Zn337 O347 2.039 . S
Zn337 O349 2.034 . S
O338 C322 1.251 1_545 S
O338 Zn329 2.039 . S
C339 O344 1.246 1_565 S
C339 O345 1.249 . S
O340 C322 1.254 . S
O340 Zn337 2.025 . S
H341 C333 0.952 . S
H342 C324 0.952 . S
H343 C332 0.948 . S
O344 Zn329 2.034 . S
O344 C339 1.246 1_545 S
O345 Zn337 2.024 . S
O345 C339 1.249 . S
H346 C328 0.948 . S
O347 Zn337 2.039 . S
O347 C351 1.251 1_565 S
O348 Zn329 2.025 . S
O348 C351 1.254 . S
O349 C330 1.246 1_565 S
O349 Zn337 2.034 . S
O350 Zn329 2.024 . S
O350 C330 1.249 . S
C351 O347 1.251 1_545 S
C351 O348 1.254 . S
H352 C325 0.949 . S
H353 C327 0.950 . S
H354 C334 0.949 . S
H355 C336 0.950 . S
C356 O372 1.251 . S
C356 O374 1.254 . S
N357 C358 1.333 . S
N357 C362 1.307 . S
N357 Zn363 2.020 . S
C358 N357 1.333 . S
C358 C359 1.379 . S
C358 H376 0.952 . S
C359 C358 1.379 . S
C359 C360 1.390 . S
C359 H386 0.949 . S
C360 C359 1.390 . S
C360 C361 1.357 . S
C361 C360 1.357 . S
C361 C362 1.370 . S
C361 H387 0.950 . S
C362 N357 1.307 . S
C362 C361 1.370 . S
C362 H380 0.948 . S
Zn363 N357 2.020 . S
Zn363 O372 2.039 . S
Zn363 O378 2.034 . S
Zn363 O382 2.025 . S
Zn363 O384 2.024 . S
C364 O383 1.246 . S
C364 O384 1.249 . S
N365 C366 1.307 . S
N365 C367 1.333 . S
N365 Zn371 2.020 . S
C366 N365 1.307 . S
C366 C370 1.370 . S
C366 H377 0.948 . S
C367 N365 1.333 . S
C367 C368 1.379 . S
C367 H375 0.952 . S
C368 C367 1.379 . S
C368 C369 1.390 . S
C368 H388 0.949 . S
C369 C368 1.390 . S
C369 C370 1.357 . S
C370 C366 1.370 . S
C370 C369 1.357 . S
C370 H389 0.950 . S
Zn371 N365 2.020 . S
Zn371 O374 2.025 . S
Zn371 O379 2.024 . S
Zn371 O381 2.039 . S
Zn371 O383 2.034 . S
O372 C356 1.251 . S
O372 Zn363 2.039 . S
C373 O378 1.246 . S
C373 O379 1.249 . S
O374 C356 1.254 . S
O374 Zn371 2.025 . S
H375 C367 0.952 . S
H376 C358 0.952 . S
H377 C366 0.948 . S
O378 Zn363 2.034 . S
O378 C373 1.246 . S
O379 Zn371 2.024 . S
O379 C373 1.249 . S
H380 C362 0.948 . S
O381 Zn371 2.039 . S
O381 C385 1.251 . S
O382 Zn363 2.025 . S
O382 C385 1.254 . S
O383 C364 1.246 . S
O383 Zn371 2.034 . S
O384 Zn363 2.024 . S
O384 C364 1.249 . S
C385 O381 1.251 . S
C385 O382 1.254 . S
H386 C359 0.949 . S
H387 C361 0.950 . S
H388 C368 0.949 . S
H389 C370 0.950 . S
C390 O406 1.251 . S
C390 O408 1.254 . S
N391 C392 1.333 . S
N391 C396 1.307 . S
N391 Zn397 2.020 . S
C392 N391 1.333 . S
C392 C393 1.379 . S
C392 H410 0.952 . S
C393 C392 1.379 . S
C393 C394 1.390 . S
C393 H420 0.949 . S
C394 C393 1.390 . S
C394 C395 1.357 . S
C395 C394 1.357 . S
C395 C396 1.370 . S
C395 H421 0.950 . S
C396 N391 1.307 . S
C396 C395 1.370 . S
C396 H414 0.948 . S
Zn397 N391 2.020 . S
Zn397 O406 2.039 . S
Zn397 O412 2.034 . S
Zn397 O416 2.057 . S
Zn397 O418 2.024 . S
C398 O417 1.246 . S
C398 O418 1.249 . S
N399 C400 1.307 . S
N399 C401 1.333 1_455 S
N399 Zn405 2.020 . S
C400 N399 1.307 . S
C400 C404 1.370 . S
C400 H411 0.948 . S
C401 N399 1.333 1_655 S
C401 C402 1.379 . S
C401 H409 0.952 . S
C402 C401 1.379 . S
C402 C403 1.390 . S
C402 H422 0.949 . S
C403 C402 1.390 . S
C403 C404 1.357 1_655 S
C404 C400 1.370 . S
C404 C403 1.357 1_455 S
C404 H423 0.950 . S
Zn405 N399 2.020 . S
Zn405 O408 2.025 . S
Zn405 O413 2.024 1_455 S
Zn405 O415 2.039 1_455 S
Zn405 O417 2.034 . S
O406 C390 1.251 . S
O406 Zn397 2.039 . S
C407 O412 1.246 1_655 S
C407 O413 1.249 . S
O408 C390 1.254 . S
O408 Zn405 2.025 . S
H409 C401 0.952 . S
H410 C392 0.952 . S
H411 C400 0.948 . S
O412 Zn397 2.034 . S
O412 C407 1.246 1_455 S
O413 Zn405 2.024 1_655 S
O413 C407 1.249 . S
H414 C396 0.948 . S
O415 Zn405 2.039 1_655 S
O415 C419 1.251 . S
O416 Zn397 2.057 . S
O416 C419 1.229 1_455 S
O417 C398 1.246 . S
O417 Zn405 2.034 . S
O418 Zn397 2.024 . S
O418 C398 1.249 . S
C419 O415 1.251 . S
C419 O416 1.229 1_655 S
H420 C393 0.949 . S
H421 C395 0.950 . S
H422 C402 0.949 . S
H423 C404 0.950 . S
H424 C432 0.929 . S
H425 C434 0.930 . S
H426 C436 0.930 . S
H427 C439 0.929 . S
H428 C442 0.930 . S
H429 C444 0.960 . S
H430 C444 0.960 1_565 S
H431 C444 0.960 . S
C432 H424 0.929 . S
C432 C433 1.413 . S
C432 C434 1.384 . S
C433 C432 1.413 . S
C433 C439 1.354 1_565 S
C434 H425 0.930 . S
C434 C432 1.384 . S
C434 C435 1.372 . S
C435 C434 1.372 . S
C435 C436 1.400 1_565 S
C435 C440 1.490 . S
C436 H426 0.930 . S
C436 C435 1.400 1_545 S
C436 C439 1.386 . S
H437 C453 0.930 . S
H438 C454 0.931 . S
C439 H427 0.929 . S
C439 C433 1.354 1_545 S
C439 C436 1.386 . S
C440 C435 1.490 . S
C440 C442 1.395 . S
C440 C443 1.402 1_565 S
H441 C447 0.920 1_545 S
C442 H428 0.930 . S
C442 C440 1.395 . S
C442 C445 1.403 . S
C443 C440 1.402 1_545 S
C443 C444 1.524 . S
C443 C447 1.401 1_545 S
C444 H429 0.960 . S
C444 H430 0.960 1_545 S
C444 H431 0.960 . S
C444 C443 1.524 . S
C445 C442 1.403 . S
C445 C446 1.392 . S
C445 C449 1.495 . S
C446 C445 1.392 . S
C446 C447 1.396 . S
C446 C448 1.478 . S
C447 H441 0.920 1_565 S
C447 C443 1.401 1_565 S
C447 C446 1.396 . S
C448 C446 1.478 . S
C448 C450 1.381 . S
C448 C454 1.383 1_565 S
C449 C445 1.495 . S
C449 H455 0.959 . S
C449 H456 0.961 . S
C449 H457 0.960 . S
C450 C448 1.381 . S
C450 C451 1.394 . S
C450 H458 0.930 . S
C451 C450 1.394 . S
C451 C452 1.383 . S
C451 H459 0.929 . S
C452 C451 1.383 . S
C452 C453 1.377 1_565 S
C453 H437 0.930 . S
C453 C452 1.377 1_545 S
C453 C454 1.379 . S
C454 H438 0.931 . S
C454 C448 1.383 1_545 S
C454 C453 1.379 . S
H455 C449 0.959 . S
H456 C449 0.961 . S
H457 C449 0.960 . S
H458 C450 0.930 . S
H459 C451 0.929 . S
H460 C468 0.929 . S
H461 C470 0.930 . S
H462 C472 0.930 . S
H463 C475 0.929 . S
H464 C478 0.930 . S
H465 C480 0.960 . S
H466 C480 0.960 . S
H467 C480 0.960 . S
C468 H460 0.929 . S
C468 C469 1.377 . S
C468 C470 1.384 . S
C469 C468 1.377 . S
C469 C475 1.390 . S
C470 H461 0.930 . S
C470 C468 1.384 . S
C470 C471 1.372 . S
C471 C470 1.372 . S
C471 C472 1.400 . S
C471 C476 1.490 . S
C472 H462 0.930 . S
C472 C471 1.400 . S
C472 C475 1.386 . S
H473 C489 0.930 . S
H474 C490 0.931 . S
C475 H463 0.929 . S
C475 C469 1.390 . S
C475 C472 1.386 . S
C476 C471 1.490 . S
C476 C478 1.395 . S
C476 C479 1.403 . S
H477 C483 0.930 . S
C478 H464 0.930 . S
C478 C476 1.395 . S
C478 C481 1.403 . S
C479 C476 1.403 . S
C479 C480 1.524 . S
C479 C483 1.400 . S
C480 H465 0.960 . S
C480 H466 0.960 . S
C480 H467 0.960 . S
C480 C479 1.524 . S
C481 C478 1.403 . S
C481 C482 1.392 . S
C481 C485 1.495 . S
C482 C481 1.392 . S
C482 C483 1.385 . S
C482 C484 1.478 . S
C483 H477 0.930 . S
C483 C479 1.400 . S
C483 C482 1.385 . S
C484 C482 1.478 . S
C484 C486 1.381 . S
C484 C490 1.383 . S
C485 C481 1.495 . S
C485 H491 0.959 . S
C485 H492 0.961 . S
C485 H493 0.960 . S
C486 C484 1.381 . S
C486 C487 1.394 . S
C486 H494 0.930 . S
C487 C486 1.394 . S
C487 C488 1.383 . S
C487 H495 0.929 . S
C488 C487 1.383 . S
C488 C489 1.377 . S
C489 H473 0.930 . S
C489 C488 1.377 . S
C489 C490 1.379 . S
C490 H474 0.931 . S
C490 C484 1.383 . S
C490 C489 1.379 . S
H491 C485 0.959 . S
H492 C485 0.961 . S
H493 C485 0.960 . S
H494 C486 0.930 . S
H495 C487 0.929 . S
H496 C504 0.929 . S
H497 C506 0.930 . S
H498 C508 0.930 . S
H499 C511 0.929 . S
H500 C514 0.930 . S
H501 C516 0.960 . S
H502 C516 0.960 . S
H503 C516 0.960 . S
C504 H496 0.929 . S
C504 C505 1.377 . S
C504 C506 1.384 . S
C505 C504 1.377 . S
C505 C511 1.390 . S
C506 H497 0.930 . S
C506 C504 1.384 . S
C506 C507 1.372 . S
C507 C506 1.372 . S
C507 C508 1.400 . S
C507 C512 1.490 . S
C508 H498 0.930 . S
C508 C507 1.400 . S
C508 C511 1.386 . S
H509 C525 0.930 . S
H510 C526 0.931 . S
C511 H499 0.929 . S
C511 C505 1.390 . S
C511 C508 1.386 . S
C512 C507 1.490 . S
C512 C514 1.395 . S
C512 C515 1.403 . S
H513 C519 0.930 . S
C514 H500 0.930 . S
C514 C512 1.395 . S
C514 C517 1.403 . S
C515 C512 1.403 . S
C515 C516 1.524 . S
C515 C519 1.400 . S
C516 H501 0.960 . S
C516 H502 0.960 . S
C516 H503 0.960 . S
C516 C515 1.524 . S
C517 C514 1.403 . S
C517 C518 1.392 . S
C517 C521 1.495 . S
C518 C517 1.392 . S
C518 C519 1.385 . S
C518 C520 1.478 . S
C519 H513 0.930 . S
C519 C515 1.400 . S
C519 C518 1.385 . S
C520 C518 1.478 . S
C520 C522 1.381 . S
C520 C526 1.383 . S
C521 C517 1.495 . S
C521 H527 0.959 . S
C521 H528 0.961 . S
C521 H529 0.960 . S
C522 C520 1.381 . S
C522 C523 1.394 . S
C522 H530 0.930 . S
C523 C522 1.394 . S
C523 C524 1.383 . S
C523 H531 0.929 . S
C524 C523 1.383 . S
C524 C525 1.377 . S
C525 H509 0.930 . S
C525 C524 1.377 . S
C525 C526 1.379 . S
C526 H510 0.931 . S
C526 C520 1.383 . S
C526 C525 1.379 . S
H527 C521 0.959 . S
H528 C521 0.961 . S
H529 C521 0.960 . S
H530 C522 0.930 . S
H531 C523 0.929 . S
H532 C540 0.929 . S
H533 C542 0.930 . S
H534 C544 0.930 . S
H535 C547 0.929 . S
H536 C550 0.930 . S
H537 C552 0.960 . S
H538 C552 0.960 . S
H539 C552 0.960 . S
C540 H532 0.929 . S
C540 C541 1.377 . S
C540 C542 1.384 . S
C541 C540 1.377 . S
C541 C547 1.390 . S
C542 H533 0.930 . S
C542 C540 1.384 . S
C542 C543 1.372 . S
C543 C542 1.372 . S
C543 C544 1.400 . S
C543 C548 1.490 . S
C544 H534 0.930 . S
C544 C543 1.400 . S
C544 C547 1.386 . S
H545 C561 0.930 . S
H546 C562 0.931 . S
C547 H535 0.929 . S
C547 C541 1.390 . S
C547 C544 1.386 . S
C548 C543 1.490 . S
C548 C550 1.395 . S
C548 C551 1.403 . S
H549 C555 0.930 . S
C550 H536 0.930 . S
C550 C548 1.395 . S
C550 C553 1.403 . S
C551 C548 1.403 . S
C551 C552 1.524 . S
C551 C555 1.400 . S
C552 H537 0.960 . S
C552 H538 0.960 . S
C552 H539 0.960 . S
C552 C551 1.524 . S
C553 C550 1.403 . S
C553 C554 1.392 . S
C553 C557 1.495 . S
C554 C553 1.392 . S
C554 C555 1.385 . S
C554 C556 1.478 . S
C555 H549 0.930 . S
C555 C551 1.400 . S
C555 C554 1.385 . S
C556 C554 1.478 . S
C556 C558 1.381 . S
C556 C562 1.383 . S
C557 C553 1.495 . S
C557 H563 0.959 . S
C557 H564 0.961 . S
C557 H565 0.960 . S
C558 C556 1.381 . S
C558 C559 1.394 . S
C558 H566 0.930 . S
C559 C558 1.394 . S
C559 C560 1.383 . S
C559 H567 0.929 . S
C560 C559 1.383 . S
C560 C561 1.377 . S
C561 H545 0.930 . S
C561 C560 1.377 . S
C561 C562 1.379 . S
C562 H546 0.931 . S
C562 C556 1.383 . S
C562 C561 1.379 . S
H563 C557 0.959 . S
H564 C557 0.961 . S
H565 C557 0.960 . S
H566 C558 0.930 . S
H567 C559 0.929 . S
H568 C576 0.929 . S
H569 C578 0.930 . S
H570 C580 0.930 . S
H571 C583 0.929 . S
H572 C586 0.930 . S
H573 C588 0.960 . S
H574 C588 0.960 . S
H575 C588 0.960 . S
C576 H568 0.929 . S
C576 C577 1.355 1_565 S
C576 C578 1.384 . S
C577 C576 1.355 1_545 S
C577 C583 1.411 . S
C578 H569 0.930 . S
C578 C576 1.384 . S
C578 C579 1.372 1_565 S
C579 C578 1.372 1_545 S
C579 C580 1.400 . S
C579 C584 1.490 . S
C580 H570 0.930 . S
C580 C579 1.400 . S
C580 C583 1.386 . S
H581 C597 0.930 . S
H582 C598 0.931 . S
C583 H571 0.929 . S
C583 C577 1.411 . S
C583 C580 1.386 . S
C584 C579 1.490 . S
C584 C586 1.395 1_545 S
C584 C587 1.403 . S
H585 C591 0.930 . S
C586 H572 0.930 . S
C586 C584 1.395 1_565 S
C586 C589 1.403 . S
C587 C584 1.403 . S
C587 C588 1.524 . S
C587 C591 1.400 . S
C588 H573 0.960 . S
C588 H574 0.960 . S
C588 H575 0.960 . S
C588 C587 1.524 . S
C589 C586 1.403 . S
C589 C590 1.392 1_565 S
C589 C593 1.495 . S
C590 C589 1.392 1_545 S
C590 C591 1.385 . S
C590 C592 1.478 . S
C591 H585 0.930 . S
C591 C587 1.400 . S
C591 C590 1.385 . S
C592 C590 1.478 . S
C592 C594 1.381 1_545 S
C592 C598 1.383 . S
C593 C589 1.495 . S
C593 H599 0.959 . S
C593 H600 0.950 1_565 S
C593 H601 0.960 . S
C594 C592 1.381 1_565 S
C594 C595 1.394 . S
C594 H602 0.930 . S
C595 C594 1.394 . S
C595 C596 1.383 1_565 S
C595 H603 0.929 . S
C596 C595 1.383 1_545 S
C596 C597 1.377 . S
C597 H581 0.930 . S
C597 C596 1.377 . S
C597 C598 1.379 . S
C598 H582 0.931 . S
C598 C592 1.383 . S
C598 C597 1.379 . S
H599 C593 0.959 . S
H600 C593 0.950 1_545 S
H601 C593 0.960 . S
H602 C594 0.930 . S
H603 C595 0.929 . S
H604 C612 0.929 . S
H605 C614 0.930 1_554 S
H606 C616 0.930 . S
H607 C619 0.929 . S
H608 C622 0.930 . S
H609 C624 0.960 . S
H610 C624 0.960 . S
H611 C624 0.960 . S
C612 H604 0.929 . S
C612 C613 1.377 . S
C612 C614 1.384 1_554 S
C613 C612 1.377 . S
C613 C619 1.390 1_554 S
C614 H605 0.930 1_556 S
C614 C612 1.384 1_556 S
C614 C615 1.372 . S
C615 C614 1.372 . S
C615 C616 1.400 . S
C615 C620 1.490 . S
C616 H606 0.930 . S
C616 C615 1.400 . S
C616 C619 1.386 . S
H617 C633 0.930 . S
H618 C634 0.931 . S
C619 H607 0.929 . S
C619 C613 1.390 1_556 S
C619 C616 1.386 . S
C620 C615 1.490 . S
C620 C622 1.395 . S
C620 C623 1.403 . S
H621 C627 0.930 . S
C622 H608 0.930 . S
C622 C620 1.395 . S
C622 C625 1.403 . S
C623 C620 1.403 . S
C623 C624 1.524 . S
C623 C627 1.400 . S
C624 H609 0.960 . S
C624 H610 0.960 . S
C624 H611 0.960 . S
C624 C623 1.524 . S
C625 C622 1.403 . S
C625 C626 1.392 . S
C625 C629 1.495 . S
C626 C625 1.392 . S
C626 C627 1.385 . S
C626 C628 1.478 . S
C627 H621 0.930 . S
C627 C623 1.400 . S
C627 C626 1.385 . S
C628 C626 1.478 . S
C628 C630 1.381 . S
C628 C634 1.383 . S
C629 C625 1.495 . S
C629 H635 0.959 . S
C629 H636 0.961 . S
C629 H637 0.960 . S
C630 C628 1.381 . S
C630 C631 1.394 . S
C630 H638 0.930 . S
C631 C630 1.394 . S
C631 C632 1.383 . S
C631 H639 0.929 . S
C632 C631 1.383 . S
C632 C633 1.377 . S
C633 H617 0.930 . S
C633 C632 1.377 . S
C633 C634 1.379 . S
C634 H618 0.931 . S
C634 C628 1.383 . S
C634 C633 1.379 . S
H635 C629 0.959 . S
H636 C629 0.961 . S
H637 C629 0.960 . S
H638 C630 0.930 . S
H639 C631 0.929 . S
H640 C648 0.929 1_556 S
H641 C650 0.930 . S
H642 C652 0.930 . S
H643 C655 0.929 . S
H644 C658 0.930 . S
H645 C660 0.960 . S
H646 C660 0.960 . S
H647 C660 0.960 . S
C648 H640 0.929 1_554 S
C648 C649 1.377 . S
C648 C650 1.384 1_554 S
C649 C648 1.377 . S
C649 C655 1.390 . S
C650 H641 0.930 . S
C650 C648 1.384 1_556 S
C650 C651 1.372 . S
C651 C650 1.372 . S
C651 C652 1.400 1_556 S
C651 C656 1.490 . S
C652 H642 0.930 . S
C652 C651 1.400 1_554 S
C652 C655 1.386 . S
H653 C669 0.930 . S
H654 C670 0.931 . S
C655 H643 0.929 . S
C655 C649 1.390 . S
C655 C652 1.386 . S
C656 C651 1.490 . S
C656 C658 1.395 . S
C656 C659 1.403 . S
H657 C663 0.930 . S
C658 H644 0.930 . S
C658 C656 1.395 . S
C658 C661 1.403 . S
C659 C656 1.403 . S
C659 C660 1.524 . S
C659 C663 1.400 . S
C660 H645 0.960 . S
C660 H646 0.960 . S
C660 H647 0.960 . S
C660 C659 1.524 . S
C661 C658 1.403 . S
C661 C662 1.392 . S
C661 C665 1.495 . S
C662 C661 1.392 . S
C662 C663 1.385 . S
C662 C664 1.478 . S
C663 H657 0.930 . S
C663 C659 1.400 . S
C663 C662 1.385 . S
C664 C662 1.478 . S
C664 C666 1.381 . S
C664 C670 1.383 . S
C665 C661 1.495 . S
C665 H671 0.959 . S
C665 H672 0.961 . S
C665 H673 0.960 . S
C666 C664 1.381 . S
C666 C667 1.394 . S
C666 H674 0.930 . S
C667 C666 1.394 . S
C667 C668 1.383 . S
C667 H675 0.929 . S
C668 C667 1.383 . S
C668 C669 1.377 . S
C669 H653 0.930 . S
C669 C668 1.377 . S
C669 C670 1.379 . S
C670 H654 0.931 . S
C670 C664 1.383 . S
C670 C669 1.379 . S
H671 C665 0.959 . S
H672 C665 0.961 . S
H673 C665 0.960 . S
H674 C666 0.930 . S
H675 C667 0.929 . S
H676 C684 0.929 . S
H677 C686 0.930 . S
H678 C688 0.930 . S
H679 C691 0.929 . S
H680 C694 0.930 . S
H681 C696 0.960 . S
H682 C696 0.960 . S
H683 C696 0.960 . S
C684 H676 0.929 . S
C684 C685 1.377 . S
C684 C686 1.384 . S
C685 C684 1.377 . S
C685 C691 1.390 . S
C686 H677 0.930 . S
C686 C684 1.384 . S
C686 C687 1.372 . S
C687 C686 1.372 . S
C687 C688 1.400 . S
C687 C692 1.490 . S
C688 H678 0.930 . S
C688 C687 1.400 . S
C688 C691 1.386 . S
H689 C705 0.930 . S
H690 C706 0.931 . S
C691 H679 0.929 . S
C691 C685 1.390 . S
C691 C688 1.386 . S
C692 C687 1.490 . S
C692 C694 1.395 . S
C692 C695 1.403 . S
H693 C699 0.930 . S
C694 H680 0.930 . S
C694 C692 1.395 . S
C694 C697 1.403 . S
C695 C692 1.403 . S
C695 C696 1.524 . S
C695 C699 1.400 . S
C696 H681 0.960 . S
C696 H682 0.960 . S
C696 H683 0.960 . S
C696 C695 1.524 . S
C697 C694 1.403 . S
C697 C698 1.392 . S
C697 C701 1.495 . S
C698 C697 1.392 . S
C698 C699 1.385 . S
C698 C700 1.478 . S
C699 H693 0.930 . S
C699 C695 1.400 . S
C699 C698 1.385 . S
C700 C698 1.478 . S
C700 C702 1.381 . S
C700 C706 1.383 . S
C701 C697 1.495 . S
C701 H707 0.959 . S
C701 H708 0.961 . S
C701 H709 0.960 . S
C702 C700 1.381 . S
C702 C703 1.394 . S
C702 H710 0.966 . S
C703 C702 1.394 . S
C703 C704 1.383 . S
C703 H711 0.929 1_655 S
C704 C703 1.383 . S
C704 C705 1.377 . S
C705 H689 0.930 . S
C705 C704 1.377 . S
C705 C706 1.379 . S
C706 H690 0.931 . S
C706 C700 1.383 . S
C706 C705 1.379 . S
H707 C701 0.959 . S
H708 C701 0.961 . S
H709 C701 0.960 . S
H710 C702 0.966 . S
H711 C703 0.929 1_455 S
H712 C720 0.929 . S
H713 C722 0.930 . S
H714 C724 0.930 . S
H715 C727 0.929 . S
H716 C730 0.930 . S
H717 C732 0.960 . S
H718 C732 0.960 . S
H719 C732 0.960 . S
C720 H712 0.929 . S
C720 C721 1.377 . S
C720 C722 1.384 . S
C721 C720 1.377 . S
C721 C727 1.390 . S
C722 H713 0.930 . S
C722 C720 1.384 . S
C722 C723 1.372 . S
C723 C722 1.372 . S
C723 C724 1.400 . S
C723 C728 1.490 . S
C724 H714 0.930 . S
C724 C723 1.400 . S
C724 C727 1.386 . S
H725 C741 0.930 . S
H726 C742 0.931 . S
C727 H715 0.929 . S
C727 C721 1.390 . S
C727 C724 1.386 . S
C728 C723 1.490 . S
C728 C730 1.395 . S
C728 C731 1.403 . S
H729 C735 0.930 . S
C730 H716 0.930 . S
C730 C728 1.395 . S
C730 C733 1.403 . S
C731 C728 1.403 . S
C731 C732 1.524 . S
C731 C735 1.400 . S
C732 H717 0.960 . S
C732 H718 0.960 . S
C732 H719 0.960 . S
C732 C731 1.524 . S
C733 C730 1.403 . S
C733 C734 1.392 . S
C733 C737 1.495 . S
C734 C733 1.392 . S
C734 C735 1.385 . S
C734 C736 1.478 . S
C735 H729 0.930 . S
C735 C731 1.400 . S
C735 C734 1.385 . S
C736 C734 1.478 . S
C736 C738 1.381 . S
C736 C742 1.383 . S
C737 C733 1.495 . S
C737 H743 0.959 . S
C737 H744 0.961 . S
C737 H745 0.960 . S
C738 C736 1.381 . S
C738 C739 1.394 . S
C738 H746 0.930 . S
C739 C738 1.394 . S
C739 C740 1.383 . S
C739 H747 0.929 . S
C740 C739 1.383 . S
C740 C741 1.377 . S
C741 H725 0.930 . S
C741 C740 1.377 . S
C741 C742 1.379 . S
C742 H726 0.931 . S
C742 C736 1.383 . S
C742 C741 1.379 . S
H743 C737 0.959 . S
H744 C737 0.961 . S
H745 C737 0.960 . S
H746 C738 0.930 . S
H747 C739 0.929 . S
H748 C756 0.929 . S
H749 C758 0.930 . S
H750 C760 0.930 . S
H751 C763 0.929 . S
H752 C766 0.930 . S
H753 C768 0.960 . S
H754 C768 0.960 . S
H755 C768 0.960 . S
C756 H748 0.929 . S
C756 C757 1.406 . S
C756 C758 1.384 . S
C757 C756 1.406 . S
C757 C763 1.360 1_545 S
C758 H749 0.930 . S
C758 C756 1.384 . S
C758 C759 1.343 1_545 S
C759 C758 1.343 1_565 S
C759 C760 1.426 . S
C759 C764 1.497 . S
C760 H750 0.930 . S
C760 C759 1.426 . S
C760 C763 1.386 . S
H761 C777 0.930 . S
H762 C778 0.931 . S
C763 H751 0.929 . S
C763 C757 1.360 1_565 S
C763 C760 1.386 . S
C764 C759 1.497 . S
C764 C766 1.395 . S
C764 C767 1.403 1_565 S
H765 C771 0.930 . S
C766 H752 0.930 . S
C766 C764 1.395 . S
C766 C769 1.403 . S
C767 C764 1.403 1_545 S
C767 C768 1.524 . S
C767 C771 1.400 . S
C768 H753 0.960 . S
C768 H754 0.960 . S
C768 H755 0.960 . S
C768 C767 1.524 . S
C769 C766 1.403 . S
C769 C770 1.392 . S
C769 C773 1.495 . S
C770 C769 1.392 . S
C770 C771 1.385 1_565 S
C770 C772 1.478 . S
C771 H765 0.930 . S
C771 C767 1.400 . S
C771 C770 1.385 1_545 S
C772 C770 1.478 . S
C772 C774 1.382 1_565 S
C772 C778 1.383 . S
C773 C769 1.495 . S
C773 H779 0.959 . S
C773 H780 0.961 . S
C773 H781 0.960 . S
C774 C772 1.382 1_545 S
C774 C775 1.394 1_545 S
C774 H782 0.929 . S
C775 C774 1.394 1_565 S
C775 C776 1.392 . S
C775 H783 0.921 1_565 S
C776 C775 1.392 . S
C776 C777 1.377 . S
C777 H761 0.930 . S
C777 C776 1.377 . S
C777 C778 1.379 . S
C778 H762 0.931 . S
C778 C772 1.383 . S
C778 C777 1.379 . S
H779 C773 0.959 . S
H780 C773 0.961 . S
H781 C773 0.960 . S
H782 C774 0.929 . S
H783 C775 0.921 1_545 S
H784 C792 0.929 . S
H785 C794 0.930 . S
H786 C796 0.930 . S
H787 C799 0.929 . S
H788 C802 0.930 . S
H789 C804 0.960 . S
H790 C804 0.960 . S
H791 C804 0.960 . S
C792 H784 0.929 . S
C792 C793 1.377 . S
C792 C794 1.384 . S
C793 C792 1.377 . S
C793 C799 1.390 . S
C794 H785 0.930 . S
C794 C792 1.384 . S
C794 C795 1.372 . S
C795 C794 1.372 . S
C795 C796 1.400 . S
C795 C800 1.490 . S
C796 H786 0.930 . S
C796 C795 1.400 . S
C796 C799 1.386 . S
H797 C813 0.930 . S
H798 C814 0.931 . S
C799 H787 0.929 . S
C799 C793 1.390 . S
C799 C796 1.386 . S
C800 C795 1.490 . S
C800 C802 1.395 . S
C800 C803 1.403 . S
H801 C807 0.930 . S
C802 H788 0.930 . S
C802 C800 1.395 . S
C802 C805 1.403 . S
C803 C800 1.403 . S
C803 C804 1.524 . S
C803 C807 1.400 . S
C804 H789 0.960 . S
C804 H790 0.960 . S
C804 H791 0.960 . S
C804 C803 1.524 . S
C805 C802 1.403 . S
C805 C806 1.392 . S
C805 C809 1.495 . S
C806 C805 1.392 . S
C806 C807 1.385 . S
C806 C808 1.478 . S
C807 H801 0.930 . S
C807 C803 1.400 . S
C807 C806 1.385 . S
C808 C806 1.478 . S
C808 C810 1.381 . S
C808 C814 1.383 . S
C809 C805 1.495 . S
C809 H815 0.959 . S
C809 H816 0.961 . S
C809 H817 0.960 . S
C810 C808 1.381 . S
C810 C811 1.394 . S
C810 H818 0.930 . S
C811 C810 1.394 . S
C811 C812 1.383 . S
C811 H819 0.929 . S
C812 C811 1.383 . S
C812 C813 1.377 . S
C813 H797 0.930 . S
C813 C812 1.377 . S
C813 C814 1.379 . S
C814 H798 0.931 . S
C814 C808 1.383 . S
C814 C813 1.379 . S
H815 C809 0.959 . S
H816 C809 0.961 . S
H817 C809 0.960 . S
H818 C810 0.930 . S
H819 C811 0.929 . S
H820 C828 0.929 . S
H821 C830 0.930 . S
H822 C832 0.930 . S
H823 C835 0.929 . S
H824 C838 0.930 . S
H825 C840 0.960 . S
H826 C840 0.960 . S
H827 C840 0.960 . S
C828 H820 0.929 . S
C828 C829 1.377 . S
C828 C830 1.384 . S
C829 C828 1.377 . S
C829 C835 1.390 . S
C830 H821 0.930 . S
C830 C828 1.384 . S
C830 C831 1.372 . S
C831 C830 1.372 . S
C831 C832 1.400 . S
C831 C836 1.490 . S
C832 H822 0.930 . S
C832 C831 1.400 . S
C832 C835 1.386 . S
H833 C849 0.930 . S
H834 C850 0.931 . S
C835 H823 0.929 . S
C835 C829 1.390 . S
C835 C832 1.386 . S
C836 C831 1.490 . S
C836 C838 1.395 . S
C836 C839 1.403 . S
H837 C843 0.930 . S
C838 H824 0.930 . S
C838 C836 1.395 . S
C838 C841 1.403 . S
C839 C836 1.403 . S
C839 C840 1.524 . S
C839 C843 1.400 . S
C840 H825 0.960 . S
C840 H826 0.960 . S
C840 H827 0.960 . S
C840 C839 1.524 . S
C841 C838 1.403 . S
C841 C842 1.392 . S
C841 C845 1.495 . S
C842 C841 1.392 . S
C842 C843 1.385 . S
C842 C844 1.478 . S
C843 H837 0.930 . S
C843 C839 1.400 . S
C843 C842 1.385 . S
C844 C842 1.478 . S
C844 C846 1.381 . S
C844 C850 1.383 . S
C845 C841 1.495 . S
C845 H851 0.959 . S
C845 H852 0.961 . S
C845 H853 0.960 . S
C846 C844 1.381 . S
C846 C847 1.394 . S
C846 H854 0.930 . S
C847 C846 1.394 . S
C847 C848 1.383 . S
C847 H855 0.929 . S
C848 C847 1.383 . S
C848 C849 1.377 . S
C849 H833 0.930 . S
C849 C848 1.377 . S
C849 C850 1.379 . S
C850 H834 0.931 . S
C850 C844 1.383 . S
C850 C849 1.379 . S
H851 C845 0.959 . S
H852 C845 0.961 . S
H853 C845 0.960 . S
H854 C846 0.930 . S
H855 C847 0.929 . S
H856 C864 0.929 . S
H857 C866 0.930 . S
H858 C868 0.930 . S
H859 C871 0.929 . S
H860 C874 0.930 . S
H861 C876 0.960 . S
H862 C876 0.960 . S
H863 C876 0.960 . S
C864 H856 0.929 . S
C864 C865 1.377 . S
C864 C866 1.384 . S
C865 C864 1.377 . S
C865 C871 1.390 . S
C866 H857 0.930 . S
C866 C864 1.384 . S
C866 C867 1.372 . S
C867 C866 1.372 . S
C867 C868 1.400 . S
C867 C872 1.490 . S
C868 H858 0.930 . S
C868 C867 1.400 . S
C868 C871 1.386 . S
H869 C885 0.930 . S
H870 C886 0.931 . S
C871 H859 0.929 . S
C871 C865 1.390 . S
C871 C868 1.386 . S
C872 C867 1.490 . S
C872 C874 1.395 . S
C872 C875 1.403 . S
H873 C879 0.930 . S
C874 H860 0.930 . S
C874 C872 1.395 . S
C874 C877 1.403 . S
C875 C872 1.403 . S
C875 C876 1.524 . S
C875 C879 1.400 . S
C876 H861 0.960 . S
C876 H862 0.960 . S
C876 H863 0.960 . S
C876 C875 1.524 . S
C877 C874 1.403 . S
C877 C878 1.392 . S
C877 C881 1.495 1_655 S
C878 C877 1.392 . S
C878 C879 1.385 . S
C878 C880 1.478 . S
C879 H873 0.930 . S
C879 C875 1.400 . S
C879 C878 1.385 . S
C880 C878 1.478 . S
C880 C882 1.381 1_655 S
C880 C886 1.383 . S
C881 C877 1.495 1_455 S
C881 H887 0.959 . S
C881 H888 0.961 . S
C881 H889 0.960 . S
C882 C880 1.381 1_455 S
C882 C883 1.394 . S
C882 H890 0.930 . S
C883 C882 1.394 . S
C883 C884 1.383 . S
C883 H891 0.929 . S
C884 C883 1.383 . S
C884 C885 1.377 . S
C885 H869 0.930 . S
C885 C884 1.377 . S
C885 C886 1.379 1_455 S
C886 H870 0.931 . S
C886 C880 1.383 . S
C886 C885 1.379 1_655 S
H887 C881 0.959 . S
H888 C881 0.961 . S
H889 C881 0.960 . S
H890 C882 0.930 . S
H891 C883 0.929 . S
H892 C900 0.929 . S
H893 C902 0.930 . S
H894 C904 0.930 . S
H895 C907 0.929 . S
H896 C910 0.929 1_565 S
H897 C912 0.960 . S
H898 C912 0.960 1_565 S
H899 C912 0.960 . S
C900 H892 0.929 . S
C900 C901 1.415 . S
C900 C902 1.384 . S
C901 C900 1.415 . S
C901 C907 1.350 1_565 S
C902 H893 0.930 . S
C902 C900 1.384 . S
C902 C903 1.331 1_565 S
C903 C902 1.331 1_545 S
C903 C904 1.438 . S
C903 C908 1.495 . S
C904 H894 0.930 . S
C904 C903 1.438 . S
C904 C907 1.386 . S
H905 C921 0.930 . S
H906 C922 0.931 . S
C907 H895 0.929 . S
C907 C901 1.350 1_545 S
C907 C904 1.386 . S
C908 C903 1.495 . S
C908 C910 1.395 . S
C908 C911 1.403 . S
H909 C915 0.930 . S
C910 H896 0.929 1_545 S
C910 C908 1.395 . S
C910 C913 1.404 . S
C911 C908 1.403 . S
C911 C912 1.524 . S
C911 C915 1.400 . S
C912 H897 0.960 . S
C912 H898 0.960 1_545 S
C912 H899 0.960 . S
C912 C911 1.524 . S
C913 C910 1.404 . S
C913 C914 1.392 . S
C913 C917 1.495 1_545 S
C914 C913 1.392 . S
C914 C915 1.385 . S
C914 C916 1.478 . S
C915 H909 0.930 . S
C915 C911 1.400 . S
C915 C914 1.385 . S
C916 C914 1.478 . S
C916 C918 1.381 1_545 S
C916 C922 1.383 . S
C917 C913 1.495 1_565 S
C917 H923 0.960 . S
C917 H924 0.953 1_565 S
C917 H925 0.967 . S
C918 C916 1.381 1_565 S
C918 C919 1.394 . S
C918 H926 0.930 . S
C919 C918 1.394 . S
C919 C920 1.383 1_565 S
C919 H927 0.929 . S
C920 C919 1.383 1_545 S
C920 C921 1.377 . S
C921 H905 0.930 . S
C921 C920 1.377 . S
C921 C922 1.379 . S
C922 H906 0.931 . S
C922 C916 1.383 . S
C922 C921 1.379 . S
H923 C917 0.960 . S
H924 C917 0.953 1_545 S
H925 C917 0.967 . S
H926 C918 0.930 . S
H927 C919 0.929 . S
H928 C936 0.929 . S
H929 C938 0.930 . S
H930 C940 0.930 . S
H931 C943 0.929 . S
H932 C946 0.930 . S
H933 C948 0.960 . S
H934 C948 0.960 . S
H935 C948 0.960 . S
C936 H928 0.929 . S
C936 C937 1.377 . S
C936 C938 1.384 . S
C937 C936 1.377 . S
C937 C943 1.390 . S
C938 H929 0.930 . S
C938 C936 1.384 . S
C938 C939 1.372 . S
C939 C938 1.372 . S
C939 C940 1.400 . S
C939 C944 1.490 . S
C940 H930 0.930 . S
C940 C939 1.400 . S
C940 C943 1.386 . S
H941 C957 0.930 . S
H942 C958 0.931 . S
C943 H931 0.929 . S
C943 C937 1.390 . S
C943 C940 1.386 . S
C944 C939 1.490 . S
C944 C946 1.395 . S
C944 C947 1.403 . S
H945 C951 0.930 . S
C946 H932 0.930 . S
C946 C944 1.395 . S
C946 C949 1.403 . S
C947 C944 1.403 . S
C947 C948 1.524 . S
C947 C951 1.400 . S
C948 H933 0.960 . S
C948 H934 0.960 . S
C948 H935 0.960 . S
C948 C947 1.524 . S
C949 C946 1.403 . S
C949 C950 1.392 . S
C949 C953 1.495 . S
C950 C949 1.392 . S
C950 C951 1.385 . S
C950 C952 1.478 . S
C951 H945 0.930 . S
C951 C947 1.400 . S
C951 C950 1.385 . S
C952 C950 1.478 . S
C952 C954 1.381 . S
C952 C958 1.383 . S
C953 C949 1.495 . S
C953 H959 0.959 . S
C953 H960 0.961 . S
C953 H961 0.960 . S
C954 C952 1.381 . S
C954 C955 1.394 . S
C954 H962 0.930 . S
C955 C954 1.394 . S
C955 C956 1.383 . S
C955 H963 0.929 . S
C956 C955 1.383 . S
C956 C957 1.377 . S
C957 H941 0.930 . S
C957 C956 1.377 . S
C957 C958 1.379 . S
C958 H942 0.931 . S
C958 C952 1.383 . S
C958 C957 1.379 . S
H959 C953 0.959 . S
H960 C953 0.961 . S
H961 C953 0.960 . S
H962 C954 0.930 . S
H963 C955 0.929 . S
H964 C972 0.929 . S
H965 C974 0.930 . S
H966 C976 0.930 . S
H967 C979 0.929 1_554 S
H968 C982 0.930 . S
H969 C984 0.960 . S
H970 C984 0.960 . S
H971 C984 0.960 . S
C972 H964 0.929 . S
C972 C973 1.377 . S
C972 C974 1.384 . S
C973 C972 1.377 . S
C973 C979 1.390 . S
C974 H965 0.930 . S
C974 C972 1.384 . S
C974 C975 1.372 . S
C975 C974 1.372 . S
C975 C976 1.400 . S
C975 C980 1.490 . S
C976 H966 0.930 . S
C976 C975 1.400 . S
C976 C979 1.386 . S
H977 C993 0.933 . S
H978 C994 0.931 . S
C979 H967 0.929 1_556 S
C979 C973 1.390 . S
C979 C976 1.386 . S
C980 C975 1.490 . S
C980 C982 1.395 . S
C980 C983 1.403 . S
H981 C987 0.930 . S
C982 H968 0.930 . S
C982 C980 1.395 . S
C982 C985 1.403 . S
C983 C980 1.403 . S
C983 C984 1.524 . S
C983 C987 1.400 . S
C984 H969 0.960 . S
C984 H970 0.960 . S
C984 H971 0.960 . S
C984 C983 1.524 . S
C985 C982 1.403 . S
C985 C986 1.392 . S
C985 C989 1.495 . S
C986 C985 1.392 . S
C986 C987 1.385 . S
C986 C988 1.478 . S
C987 H981 0.930 . S
C987 C983 1.400 . S
C987 C986 1.385 . S
C988 C986 1.478 . S
C988 C990 1.381 . S
C988 C994 1.383 . S
C989 C985 1.495 . S
C989 H995 0.959 . S
C989 H996 0.961 . S
C989 H997 0.960 . S
C990 C988 1.381 . S
C990 C991 1.394 . S
C990 H998 0.930 . S
C991 C990 1.394 . S
C991 C992 1.383 . S
C991 H999 0.929 . S
C992 C991 1.383 . S
C992 C993 1.377 . S
C993 H977 0.933 . S
C993 C992 1.377 . S
C993 C994 1.379 . S
C994 H978 0.931 . S
C994 C988 1.383 . S
C994 C993 1.379 . S
H995 C989 0.959 . S
H996 C989 0.961 . S
H997 C989 0.960 . S
H998 C990 0.930 . S
H999 C991 0.929 . S
H1000 C1008 0.929 . S
H1001 C1010 0.930 . S
H1002 C1012 0.930 . S
H1003 C1015 0.929 . S
H1004 C1018 0.930 . S
H1005 C1020 0.960 . S
H1006 C1020 0.960 . S
H1007 C1020 0.960 . S
C1008 H1000 0.929 . S
C1008 C1009 1.377 . S
C1008 C1010 1.384 . S
C1009 C1008 1.377 . S
C1009 C1015 1.390 . S
C1010 H1001 0.930 . S
C1010 C1008 1.384 . S
C1010 C1011 1.372 . S
C1011 C1010 1.372 . S
C1011 C1012 1.400 . S
C1011 C1016 1.490 . S
C1012 H1002 0.930 . S
C1012 C1011 1.400 . S
C1012 C1015 1.386 . S
H1013 C1029 0.930 . S
H1014 C1030 0.931 . S
C1015 H1003 0.929 . S
C1015 C1009 1.390 . S
C1015 C1012 1.386 . S
C1016 C1011 1.490 . S
C1016 C1018 1.395 1_554 S
C1016 C1019 1.403 . S
H1017 C1023 0.930 . S
C1018 H1004 0.930 . S
C1018 C1016 1.395 1_556 S
C1018 C1021 1.403 . S
C1019 C1016 1.403 . S
C1019 C1020 1.524 . S
C1019 C1023 1.400 . S
C1020 H1005 0.960 . S
C1020 H1006 0.960 . S
C1020 H1007 0.960 . S
C1020 C1019 1.524 . S
C1021 C1018 1.403 . S
C1021 C1022 1.392 . S
C1021 C1025 1.495 . S
C1022 C1021 1.392 . S
C1022 C1023 1.385 1_556 S
C1022 C1024 1.478 . S
C1023 H1017 0.930 . S
C1023 C1019 1.400 . S
C1023 C1022 1.385 1_554 S
C1024 C1022 1.478 . S
C1024 C1026 1.381 . S
C1024 C1030 1.383 . S
C1025 C1021 1.495 . S
C1025 H1031 0.959 . S
C1025 H1032 0.961 . S
C1025 H1033 0.960 . S
C1026 C1024 1.381 . S
C1026 C1027 1.394 . S
C1026 H1034 0.930 . S
C1027 C1026 1.394 . S
C1027 C1028 1.383 . S
C1027 H1035 0.929 . S
C1028 C1027 1.383 . S
C1028 C1029 1.377 . S
C1029 H1013 0.930 . S
C1029 C1028 1.377 . S
C1029 C1030 1.379 . S
C1030 H1014 0.931 . S
C1030 C1024 1.383 . S
C1030 C1029 1.379 . S
H1031 C1025 0.959 . S
H1032 C1025 0.961 . S
H1033 C1025 0.960 . S
H1034 C1026 0.930 . S
H1035 C1027 0.929 . S
H1036 C1044 0.929 . S
H1037 C1046 0.930 . S
H1038 C1048 0.930 . S
H1039 C1051 0.929 . S
H1040 C1054 0.930 1_554 S
H1041 C1056 0.968 . S
H1042 C1056 0.920 1_545 S
H1043 C1056 0.997 . S
C1044 H1036 0.929 . S
C1044 C1045 1.410 . S
C1044 C1046 1.384 . S
C1045 C1044 1.410 . S
C1045 C1051 1.356 1_545 S
C1046 H1037 0.930 . S
C1046 C1044 1.384 . S
C1046 C1047 1.372 1_554 S
C1047 C1046 1.372 1_556 S
C1047 C1048 1.400 1_545 S
C1047 C1052 1.490 . S
C1048 H1038 0.930 . S
C1048 C1047 1.400 1_565 S
C1048 C1051 1.386 1_556 S
H1049 C1065 0.930 . S
H1050 C1066 0.931 . S
C1051 H1039 0.929 . S
C1051 C1045 1.356 1_565 S
C1051 C1048 1.386 1_554 S
C1052 C1047 1.490 . S
C1052 C1054 1.395 . S
C1052 C1055 1.411 . S
H1053 C1059 0.921 1_565 S
C1054 H1040 0.930 1_556 S
C1054 C1052 1.395 . S
C1054 C1057 1.403 . S
C1055 C1052 1.411 . S
C1055 C1056 1.521 1_545 S
C1055 C1059 1.400 . S
C1056 H1041 0.968 . S
C1056 H1042 0.920 1_565 S
C1056 H1043 0.997 . S
C1056 C1055 1.521 1_565 S
C1057 C1054 1.403 . S
C1057 C1058 1.392 . S
C1057 C1061 1.495 . S
C1058 C1057 1.392 . S
C1058 C1059 1.393 . S
C1058 C1060 1.478 . S
C1059 H1053 0.921 1_545 S
C1059 C1055 1.400 . S
C1059 C1058 1.393 . S
C1060 C1058 1.478 . S
C1060 C1062 1.381 . S
C1060 C1066 1.383 1_545 S
C1061 C1057 1.495 . S
C1061 H1067 0.959 1_556 S
C1061 H1068 0.961 1_545 S
C1061 H1069 0.960 . S
C1062 C1060 1.381 . S
C1062 C1063 1.394 . S
C1062 H1070 0.930 . S
C1063 C1062 1.394 . S
C1063 C1064 1.383 . S
C1063 H1071 0.929 . S
C1064 C1063 1.383 . S
C1064 C1065 1.377 1_545 S
C1065 H1049 0.930 . S
C1065 C1064 1.377 1_565 S
C1065 C1066 1.379 . S
C1066 H1050 0.931 . S
C1066 C1060 1.383 1_565 S
C1066 C1065 1.379 . S
H1067 C1061 0.959 1_554 S
H1068 C1061 0.961 1_565 S
H1069 C1061 0.960 . S
H1070 C1062 0.930 . S
H1071 C1063 0.929 . S
H1072 C1080 0.929 1_556 S
H1073 C1082 0.930 . S
H1074 C1084 0.930 . S
H1075 C1087 0.929 . S
H1076 C1090 0.930 . S
H1077 C1092 0.960 . S
H1078 C1092 0.960 . S
H1079 C1092 0.960 1_554 S
C1080 H1072 0.929 1_554 S
C1080 C1081 1.377 . S
C1080 C1082 1.384 1_554 S
C1081 C1080 1.377 . S
C1081 C1087 1.390 . S
C1082 H1073 0.930 . S
C1082 C1080 1.384 1_556 S
C1082 C1083 1.372 . S
C1083 C1082 1.372 . S
C1083 C1084 1.400 1_556 S
C1083 C1088 1.490 . S
C1084 H1074 0.930 . S
C1084 C1083 1.400 1_554 S
C1084 C1087 1.386 . S
H1085 C1101 0.930 . S
H1086 C1102 0.931 . S
C1087 H1075 0.929 . S
C1087 C1081 1.390 . S
C1087 C1084 1.386 . S
C1088 C1083 1.490 . S
C1088 C1090 1.395 . S
C1088 C1091 1.403 . S
H1089 C1095 0.930 . S
C1090 H1076 0.930 . S
C1090 C1088 1.395 . S
C1090 C1093 1.403 . S
C1091 C1088 1.403 . S
C1091 C1092 1.524 . S
C1091 C1095 1.400 . S
C1092 H1077 0.960 . S
C1092 H1078 0.960 . S
C1092 H1079 0.960 1_556 S
C1092 C1091 1.524 . S
C1093 C1090 1.403 . S
C1093 C1094 1.392 . S
C1093 C1097 1.495 . S
C1094 C1093 1.392 . S
C1094 C1095 1.385 . S
C1094 C1096 1.478 . S
C1095 H1089 0.930 . S
C1095 C1091 1.400 . S
C1095 C1094 1.385 . S
C1096 C1094 1.478 . S
C1096 C1098 1.381 . S
C1096 C1102 1.383 . S
C1097 C1093 1.495 . S
C1097 H1103 0.959 . S
C1097 H1104 0.961 . S
C1097 H1105 0.960 . S
C1098 C1096 1.381 . S
C1098 C1099 1.394 . S
C1098 H1106 0.930 . S
C1099 C1098 1.394 . S
C1099 C1100 1.383 . S
C1099 H1107 0.929 . S
C1100 C1099 1.383 . S
C1100 C1101 1.377 . S
C1101 H1085 0.930 . S
C1101 C1100 1.377 . S
C1101 C1102 1.379 . S
C1102 H1086 0.931 . S
C1102 C1096 1.383 . S
C1102 C1101 1.379 . S
H1103 C1097 0.959 . S
H1104 C1097 0.961 . S
H1105 C1097 0.960 . S
H1106 C1098 0.930 . S
H1107 C1099 0.929 . S
H1108 C1116 0.933 . S
H1109 C1118 0.930 . S
H1110 C1120 0.930 . S
H1111 C1123 0.929 . S
H1112 C1126 0.930 . S
H1113 C1128 0.960 1_554 S
H1114 C1128 0.960 1_554 S
H1115 C1128 0.960 1_554 S
C1116 H1108 0.933 . S
C1116 C1117 1.381 . S
C1116 C1118 1.377 1_554 S
C1117 C1116 1.381 . S
C1117 C1123 1.390 . S
C1118 H1109 0.930 . S
C1118 C1116 1.377 1_556 S
C1118 C1119 1.372 . S
C1119 C1118 1.372 . S
C1119 C1120 1.400 . S
C1119 C1124 1.490 . S
C1120 H1110 0.930 . S
C1120 C1119 1.400 . S
C1120 C1123 1.386 1_556 S
H1121 C1137 0.930 . S
H1122 C1138 0.931 . S
C1123 H1111 0.929 . S
C1123 C1117 1.390 . S
C1123 C1120 1.386 1_554 S
C1124 C1119 1.490 . S
C1124 C1126 1.395 . S
C1124 C1127 1.403 . S
H1125 C1131 0.930 . S
C1126 H1112 0.930 . S
C1126 C1124 1.395 . S
C1126 C1129 1.403 . S
C1127 C1124 1.403 . S
C1127 C1128 1.524 . S
C1127 C1131 1.400 . S
C1128 H1113 0.960 1_556 S
C1128 H1114 0.960 1_556 S
C1128 H1115 0.960 1_556 S
C1128 C1127 1.524 . S
C1129 C1126 1.403 . S
C1129 C1130 1.392 . S
C1129 C1133 1.495 . S
C1130 C1129 1.392 . S
C1130 C1131 1.385 . S
C1130 C1132 1.478 . S
C1131 H1125 0.930 . S
C1131 C1127 1.400 . S
C1131 C1130 1.385 . S
C1132 C1130 1.478 . S
C1132 C1134 1.381 . S
C1132 C1138 1.383 . S
C1133 C1129 1.495 . S
C1133 H1139 0.959 . S
C1133 H1140 0.961 . S
C1133 H1141 0.960 . S
C1134 C1132 1.381 . S
C1134 C1135 1.394 . S
C1134 H1142 0.930 . S
C1135 C1134 1.394 . S
C1135 C1136 1.383 . S
C1135 H1143 0.929 . S
C1136 C1135 1.383 . S
C1136 C1137 1.377 . S
C1137 H1121 0.930 . S
C1137 C1136 1.377 . S
C1137 C1138 1.379 . S
C1138 H1122 0.931 . S
C1138 C1132 1.383 . S
C1138 C1137 1.379 . S
H1139 C1133 0.959 . S
H1140 C1133 0.961 . S
H1141 C1133 0.960 . S
H1142 C1134 0.930 . S
H1143 C1135 0.929 . S
H1144 C1152 0.929 . S
H1145 C1154 0.930 . S
H1146 C1156 0.930 . S
H1147 C1159 0.929 . S
H1148 C1162 0.930 . S
H1149 C1164 0.960 . S
H1150 C1164 0.960 . S
H1151 C1164 0.960 . S
C1152 H1144 0.929 . S
C1152 C1153 1.377 . S
C1152 C1154 1.384 . S
C1153 C1152 1.377 . S
C1153 C1159 1.390 . S
C1154 H1145 0.930 . S
C1154 C1152 1.384 . S
C1154 C1155 1.372 . S
C1155 C1154 1.372 . S
C1155 C1156 1.400 . S
C1155 C1160 1.490 . S
C1156 H1146 0.930 . S
C1156 C1155 1.400 . S
C1156 C1159 1.386 . S
H1157 C1173 0.930 . S
H1158 C1174 0.931 . S
C1159 H1147 0.929 . S
C1159 C1153 1.390 . S
C1159 C1156 1.386 . S
C1160 C1155 1.490 . S
C1160 C1162 1.395 . S
C1160 C1163 1.403 . S
H1161 C1167 0.930 . S
C1162 H1148 0.930 . S
C1162 C1160 1.395 . S
C1162 C1165 1.403 . S
C1163 C1160 1.403 . S
C1163 C1164 1.524 . S
C1163 C1167 1.400 . S
C1164 H1149 0.960 . S
C1164 H1150 0.960 . S
C1164 H1151 0.960 . S
C1164 C1163 1.524 . S
C1165 C1162 1.403 . S
C1165 C1166 1.392 . S
C1165 C1169 1.521 . S
C1166 C1165 1.392 . S
C1166 C1167 1.385 . S
C1166 C1168 1.478 . S
C1167 H1161 0.930 . S
C1167 C1163 1.400 . S
C1167 C1166 1.385 . S
C1168 C1166 1.478 . S
C1168 C1170 1.381 . S
C1168 C1174 1.383 . S
C1169 C1165 1.521 . S
C1169 H1175 0.948 1_655 S
C1169 H1176 0.957 1_655 S
C1169 H1177 0.950 1_655 S
C1170 C1168 1.381 . S
C1170 C1171 1.394 . S
C1170 H1178 0.930 . S
C1171 C1170 1.394 . S
C1171 C1172 1.383 . S
C1171 H1179 0.929 . S
C1172 C1171 1.383 . S
C1172 C1173 1.377 . S
C1173 H1157 0.930 . S
C1173 C1172 1.377 . S
C1173 C1174 1.379 . S
C1174 H1158 0.931 . S
C1174 C1168 1.383 . S
C1174 C1173 1.379 . S
H1175 C1169 0.948 1_455 S
H1176 C1169 0.957 1_455 S
H1177 C1169 0.950 1_455 S
H1178 C1170 0.930 . S
H1179 C1171 0.929 . S
H1180 C1188 0.929 . S
H1181 C1190 0.930 . S
H1182 C1192 0.930 . S
H1183 C1195 0.929 . S
H1184 C1198 0.930 . S
H1185 C1200 0.960 . S
H1186 C1200 0.960 . S
H1187 C1200 0.960 . S
C1188 H1180 0.929 . S
C1188 C1189 1.393 . S
C1188 C1190 1.384 . S
C1189 C1188 1.393 . S
C1189 C1195 1.374 1_565 S
C1190 H1181 0.930 . S
C1190 C1188 1.384 . S
C1190 C1191 1.372 . S
C1191 C1190 1.372 . S
C1191 C1192 1.400 1_565 S
C1191 C1196 1.490 . S
C1192 H1182 0.930 . S
C1192 C1191 1.400 1_545 S
C1192 C1195 1.386 . S
H1193 C1209 0.930 . S
H1194 C1210 0.931 . S
C1195 H1183 0.929 . S
C1195 C1189 1.374 1_545 S
C1195 C1192 1.386 . S
C1196 C1191 1.490 . S
C1196 C1198 1.395 1_565 S
C1196 C1199 1.403 . S
H1197 C1203 0.930 . S
C1198 H1184 0.930 . S
C1198 C1196 1.395 1_545 S
C1198 C1201 1.403 . S
C1199 C1196 1.403 . S
C1199 C1200 1.524 . S
C1199 C1203 1.400 . S
C1200 H1185 0.960 . S
C1200 H1186 0.960 . S
C1200 H1187 0.960 . S
C1200 C1199 1.524 . S
C1201 C1198 1.403 . S
C1201 C1202 1.374 1_545 S
C1201 C1205 1.495 . S
C1202 C1201 1.374 1_565 S
C1202 C1203 1.411 . S
C1202 C1204 1.477 . S
C1203 H1197 0.930 . S
C1203 C1199 1.400 . S
C1203 C1202 1.411 . S
C1204 C1202 1.477 . S
C1204 C1206 1.414 . S
C1204 C1210 1.350 1_565 S
C1205 C1201 1.495 . S
C1205 H1211 0.959 . S
C1205 H1212 0.961 . S
C1205 H1213 0.960 . S
C1206 C1204 1.414 . S
C1206 C1207 1.394 . S
C1206 H1214 0.930 . S
C1207 C1206 1.394 . S
C1207 C1208 1.383 . S
C1207 H1215 0.929 . S
C1208 C1207 1.383 . S
C1208 C1209 1.377 1_565 S
C1209 H1193 0.930 . S
C1209 C1208 1.377 1_545 S
C1209 C1210 1.379 . S
C1210 H1194 0.931 . S
C1210 C1204 1.350 1_545 S
C1210 C1209 1.379 . S
H1211 C1205 0.959 . S
H1212 C1205 0.961 . S
H1213 C1205 0.960 . S
H1214 C1206 0.930 . S
H1215 C1207 0.929 . S
H1216 C1224 0.929 . S
H1217 C1226 0.930 . S
H1218 C1228 0.930 . S
H1219 C1231 0.929 . S
H1220 C1234 0.930 . S
H1221 C1236 0.960 . S
H1222 C1236 0.960 . S
H1223 C1236 0.960 . S
C1224 H1216 0.929 . S
C1224 C1225 1.377 . S
C1224 C1226 1.384 . S
C1225 C1224 1.377 . S
C1225 C1231 1.390 . S
C1226 H1217 0.930 . S
C1226 C1224 1.384 . S
C1226 C1227 1.372 . S
C1227 C1226 1.372 . S
C1227 C1228 1.400 . S
C1227 C1232 1.490 . S
C1228 H1218 0.930 . S
C1228 C1227 1.400 . S
C1228 C1231 1.386 . S
H1229 C1245 0.930 . S
H1230 C1246 0.931 . S
C1231 H1219 0.929 . S
C1231 C1225 1.390 . S
C1231 C1228 1.386 . S
C1232 C1227 1.490 . S
C1232 C1234 1.395 . S
C1232 C1235 1.403 . S
H1233 C1239 0.930 . S
C1234 H1220 0.930 . S
C1234 C1232 1.395 . S
C1234 C1237 1.403 . S
C1235 C1232 1.403 . S
C1235 C1236 1.524 . S
C1235 C1239 1.400 . S
C1236 H1221 0.960 . S
C1236 H1222 0.960 . S
C1236 H1223 0.960 . S
C1236 C1235 1.524 . S
C1237 C1234 1.403 . S
C1237 C1238 1.392 . S
C1237 C1241 1.495 . S
C1238 C1237 1.392 . S
C1238 C1239 1.385 . S
C1238 C1240 1.478 . S
C1239 H1233 0.930 . S
C1239 C1235 1.400 . S
C1239 C1238 1.385 . S
C1240 C1238 1.478 . S
C1240 C1242 1.381 . S
C1240 C1246 1.383 . S
C1241 C1237 1.495 . S
C1241 H1247 0.959 . S
C1241 H1248 0.961 . S
C1241 H1249 0.960 . S
C1242 C1240 1.381 . S
C1242 C1243 1.394 . S
C1242 H1250 0.930 . S
C1243 C1242 1.394 . S
C1243 C1244 1.383 . S
C1243 H1251 0.929 . S
C1244 C1243 1.383 . S
C1244 C1245 1.377 . S
C1245 H1229 0.930 . S
C1245 C1244 1.377 . S
C1245 C1246 1.379 . S
C1246 H1230 0.931 . S
C1246 C1240 1.383 . S
C1246 C1245 1.379 . S
H1247 C1241 0.959 . S
H1248 C1241 0.961 . S
H1249 C1241 0.960 . S
H1250 C1242 0.930 . S
H1251 C1243 0.929 . S
H1252 C1260 0.929 . S
H1253 C1262 0.930 . S
H1254 C1264 0.930 . S
H1255 C1267 0.929 . S
H1256 C1270 0.930 . S
H1257 C1272 0.960 . S
H1258 C1272 0.960 . S
H1259 C1272 0.960 . S
C1260 H1252 0.929 . S
C1260 C1261 1.377 . S
C1260 C1262 1.384 . S
C1261 C1260 1.377 . S
C1261 C1267 1.390 . S
C1262 H1253 0.930 . S
C1262 C1260 1.384 . S
C1262 C1263 1.372 . S
C1263 C1262 1.372 . S
C1263 C1264 1.400 . S
C1263 C1268 1.490 . S
C1264 H1254 0.930 . S
C1264 C1263 1.400 . S
C1264 C1267 1.386 . S
H1265 C1281 0.930 . S
H1266 C1282 0.931 . S
C1267 H1255 0.929 . S
C1267 C1261 1.390 . S
C1267 C1264 1.386 . S
C1268 C1263 1.490 . S
C1268 C1270 1.395 . S
C1268 C1271 1.403 . S
H1269 C1275 0.930 . S
C1270 H1256 0.930 . S
C1270 C1268 1.395 . S
C1270 C1273 1.403 . S
C1271 C1268 1.403 . S
C1271 C1272 1.524 . S
C1271 C1275 1.400 . S
C1272 H1257 0.960 . S
C1272 H1258 0.960 . S
C1272 H1259 0.960 . S
C1272 C1271 1.524 . S
C1273 C1270 1.403 . S
C1273 C1274 1.392 . S
C1273 C1277 1.495 . S
C1274 C1273 1.392 . S
C1274 C1275 1.385 . S
C1274 C1276 1.478 . S
C1275 H1269 0.930 . S
C1275 C1271 1.400 . S
C1275 C1274 1.385 . S
C1276 C1274 1.478 . S
C1276 C1278 1.381 . S
C1276 C1282 1.383 . S
C1277 C1273 1.495 . S
C1277 H1283 0.959 . S
C1277 H1284 0.961 . S
C1277 H1285 0.960 . S
C1278 C1276 1.381 . S
C1278 C1279 1.394 . S
C1278 H1286 0.930 . S
C1279 C1278 1.394 . S
C1279 C1280 1.383 . S
C1279 H1287 0.929 . S
C1280 C1279 1.383 . S
C1280 C1281 1.377 . S
C1281 H1265 0.930 . S
C1281 C1280 1.377 . S
C1281 C1282 1.379 . S
C1282 H1266 0.931 . S
C1282 C1276 1.383 . S
C1282 C1281 1.379 . S
H1283 C1277 0.959 . S
H1284 C1277 0.961 . S
H1285 C1277 0.960 . S
H1286 C1278 0.930 . S
H1287 C1279 0.929 . S
C433 C241 1.791 1_565 S
C452 C305 1.831 . S
C488 C326 1.671 . S
C469 C277 1.641 . S
C524 C360 1.450 . S
C505 C169 1.384 . S
C560 C394 1.669 . S
C541 C205 1.650 . S
C596 C296 1.829 . S
C577 C97 1.789 1_556 S
C613 C133 1.685 . S
C632 C335 1.685 . S
C649 C25 1.398 . S
C668 C369 1.426 . S
C685 C61 1.606 . S
C704 C403 1.663 . S
C740 C317 0.542 . S
C721 C211 0.613 . S
C776 C322 0.234 . S
C757 C247 0.290 . S
C812 C356 0.344 . S
C793 C253 0.430 . S
C829 C175 0.475 . S
C848 C390 0.249 . S
C865 C67 0.748 . S
C884 C288 0.534 . S
C920 C351 0.245 . S
C901 C103 0.296 1_565 S
C956 C385 0.266 . S
C937 C109 0.316 . S
C973 C31 0.348 . S
C992 C419 0.250 . S
C1009 C181 1.639 . S
C1028 C301 1.679 . S
C1045 C217 2.008 . S
C1064 C330 2.079 . S
C1100 C364 1.830 . S
C1081 C283 1.711 . S
C1136 C398 1.830 . S
C1117 C145 1.740 . S
C1153 C37 1.617 . S
C1172 C292 1.695 . S
C1208 C339 2.072 . S
C1189 C73 2.009 1_565 S
C1244 C373 1.825 . S
C1225 C139 1.745 . S
C1261 C1 1.766 . S
C1280 C407 1.840 . S
