# Generated by pormake.
# Topology zzz, (3,6)-cn, num edge types: 1
# Building blocks:
#     Node 0, Type 0, BuildingBlock: MIDCAF_clean_linker_0, # of connection points: 3
#     Node 1, Type 0, BuildingBlock: MIDCAF_clean_linker_0, # of connection points: 3
#     Node 2, Type 0, BuildingBlock: MIDCAF_clean_linker_0, # of connection points: 3
#     Node 3, Type 0, BuildingBlock: MIDCAF_clean_linker_0, # of connection points: 3
#     Node 4, Type 0, BuildingBlock: MIDCAF_clean_linker_0, # of connection points: 3
#     Node 5, Type 0, BuildingBlock: MIDCAF_clean_linker_0, # of connection points: 3
#     Node 6, Type 0, BuildingBlock: MIDCAF_clean_linker_0, # of connection points: 3
#     Node 7, Type 0, BuildingBlock: MIDCAF_clean_linker_0, # of connection points: 3
#     Node 8, Type 1, BuildingBlock: INOVEN_clean_sbu_0, # of connection points: 6
#     Node 9, Type 1, BuildingBlock: INOVEN_clean_sbu_0, # of connection points: 6
#     Node 10, Type 1, BuildingBlock: INOVEN_clean_sbu_0, # of connection points: 6
#     Node 11, Type 1, BuildingBlock: INOVEN_clean_sbu_0, # of connection points: 6
#     Edge 12, Type (0, 1), BuildingBlock: TEMPAE_clean_linker_10, # of connection points: 2
#     Edge 13, Type (0, 1), BuildingBlock: TEMPAE_clean_linker_10, # of connection points: 2
#     Edge 14, Type (0, 1), BuildingBlock: TEMPAE_clean_linker_10, # of connection points: 2
#     Edge 15, Type (0, 1), BuildingBlock: TEMPAE_clean_linker_10, # of connection points: 2
#     Edge 16, Type (0, 1), BuildingBlock: TEMPAE_clean_linker_10, # of connection points: 2
#     Edge 17, Type (0, 1), BuildingBlock: TEMPAE_clean_linker_10, # of connection points: 2
#     Edge 18, Type (0, 1), BuildingBlock: TEMPAE_clean_linker_10, # of connection points: 2
#     Edge 19, Type (0, 1), BuildingBlock: TEMPAE_clean_linker_10, # of connection points: 2
#     Edge 20, Type (0, 1), BuildingBlock: TEMPAE_clean_linker_10, # of connection points: 2
#     Edge 21, Type (0, 1), BuildingBlock: TEMPAE_clean_linker_10, # of connection points: 2
#     Edge 22, Type (0, 1), BuildingBlock: TEMPAE_clean_linker_10, # of connection points: 2
#     Edge 23, Type (0, 1), BuildingBlock: TEMPAE_clean_linker_10, # of connection points: 2
#     Edge 24, Type (0, 1), BuildingBlock: TEMPAE_clean_linker_10, # of connection points: 2
#     Edge 25, Type (0, 1), BuildingBlock: TEMPAE_clean_linker_10, # of connection points: 2
#     Edge 26, Type (0, 1), BuildingBlock: TEMPAE_clean_linker_10, # of connection points: 2
#     Edge 27, Type (0, 1), BuildingBlock: TEMPAE_clean_linker_10, # of connection points: 2
#     Edge 28, Type (0, 1), BuildingBlock: TEMPAE_clean_linker_10, # of connection points: 2
#     Edge 29, Type (0, 1), BuildingBlock: TEMPAE_clean_linker_10, # of connection points: 2
#     Edge 30, Type (0, 1), BuildingBlock: TEMPAE_clean_linker_10, # of connection points: 2
#     Edge 31, Type (0, 1), BuildingBlock: TEMPAE_clean_linker_10, # of connection points: 2
#     Edge 32, Type (0, 1), BuildingBlock: TEMPAE_clean_linker_10, # of connection points: 2
#     Edge 33, Type (0, 1), BuildingBlock: TEMPAE_clean_linker_10, # of connection points: 2
#     Edge 34, Type (0, 1), BuildingBlock: TEMPAE_clean_linker_10, # of connection points: 2
#     Edge 35, Type (0, 1), BuildingBlock: TEMPAE_clean_linker_10, # of connection points: 2
# Relax obj value: 0.432
# Max RMSD: 0.271
# Mean RMSD: 0.253
data_MOF--net-zzz--node1-INOVEN_clean_sbu_0--node2-MIDCAF_clean_linker_0--edge1-TEMPAE_clean_linker_10
_symmetry_space_group_name_H-M    P1
_symmetry_Int_Tables_number       1
_symmetry_cell_setting            triclinic
loop_
_symmetry_equiv_pos_as_xyz
'x, y, z'
_cell_length_a     60.454559
_cell_length_b     60.439507
_cell_length_c     18.582137
_cell_angle_alpha  89.849007
_cell_angle_beta   90.028629
_cell_angle_gamma 90.092094
loop_
_atom_site_label
_atom_site_type_symbol
_atom_site_fract_x
_atom_site_fract_y
_atom_site_fract_z
_atom_type_partial_charge
C0 C 0.79976 0.54731 0.41998 0.0
C1 C 0.80286 0.52589 0.44792 0.0
C2 C 0.78678 0.50964 0.43174 0.0
C3 C 0.76867 0.51454 0.38653 0.0
H4 H 0.67645 0.55107 0.25895 0.0
H5 H 0.64265 0.54133 0.19402 0.0
H6 H 0.67597 0.48504 0.10142 0.0
H7 H 0.70956 0.49473 0.16774 0.0
H8 H 0.77064 0.59553 0.18809 0.0
H9 H 0.79426 0.60736 0.08889 0.0
H10 H 0.76187 0.55976 0.95025 0.0
H11 H 0.73721 0.54991 0.04669 0.0
H12 H 0.78068 0.56865 0.35259 0.0
H13 H 0.81177 0.56025 0.43004 0.0
H14 H 0.78842 0.49301 0.45284 0.0
H15 H 0.75715 0.50148 0.37276 0.0
N16 N 0.73037 0.52961 0.29023 0.0
N17 N 0.72383 0.54871 0.18149 0.0
N18 N 0.75639 0.55522 0.24543 0.0
C19 C 0.71698 0.53423 0.23258 0.0
C20 C 0.74341 0.55932 0.18755 0.0
C21 C 0.75019 0.54051 0.29712 0.0
C22 C 0.69545 0.52334 0.21987 0.0
C23 C 0.67613 0.53595 0.22776 0.0
C24 C 0.6569 0.5306 0.18929 0.0
C25 C 0.65663 0.51262 0.14123 0.0
C26 C 0.67544 0.4989 0.13817 0.0
C27 C 0.69468 0.50429 0.17682 0.0
C28 C 0.75263 0.57135 0.12541 0.0
C29 C 0.76808 0.58838 0.13531 0.0
C30 C 0.78175 0.59496 0.07846 0.0
C31 C 0.78102 0.58366 0.01214 0.0
C32 C 0.76338 0.56884 1.00009 0.0
C33 C 0.74918 0.56295 0.05603 0.0
C34 C 0.76637 0.53572 0.35592 0.0
C35 C 0.78189 0.55211 0.37487 0.0
C36 C 0.99646 0.78762 0.39313 0.0
C37 C 0.00966 0.79506 0.45082 0.0
C38 C 0.02735 0.78172 0.4736 0.0
C39 C 0.03301 0.7626 0.43575 0.0
H40 H 0.05913 0.67519 0.20713 0.0
H41 H 0.04793 0.64335 0.13677 0.0
H42 H 0.98058 0.66701 0.13507 0.0
H43 H 0.99192 0.69915 0.20773 0.0
H44 H 0.08411 0.72661 0.12089 0.0
H45 H 0.10907 0.75069 0.05349 0.0
H46 H 0.11366 0.79418 0.23722 0.0
H47 H 0.08952 0.76997 0.30465 0.0
H48 H 0.99303 0.76411 0.30679 0.0
H49 H 0.98274 0.79755 0.37417 0.0
H50 H 0.03762 0.78673 0.51851 0.0
H51 H 0.04782 0.75371 0.45133 0.0
N52 N 0.02312 0.723 0.29315 0.0
N53 N 0.0551 0.71817 0.2221 0.0
N54 N 0.05261 0.7484 0.2991 0.0
C55 C 0.0349 0.71084 0.24416 0.0
C56 C 0.06403 0.73693 0.24915 0.0
C57 C 0.03234 0.74176 0.32154 0.0
C58 C 0.02647 0.68989 0.21232 0.0
C59 C 0.04184 0.67355 0.19265 0.0
C60 C 0.03544 0.65531 0.15182 0.0
C61 C 0.01346 0.65285 0.12857 0.0
C62 C 0.99768 0.66843 0.15191 0.0
C63 C 0.00413 0.68681 0.19362 0.0
C64 C 0.08417 0.74686 0.21718 0.0
C65 C 0.09117 0.74085 0.14779 0.0
C66 C 0.10545 0.75469 0.10903 0.0
C67 C 0.11285 0.77474 0.13902 0.0
C68 C 0.10831 0.77896 0.21194 0.0
C69 C 0.09414 0.76516 0.25058 0.0
C70 C 0.02108 0.75618 0.37432 0.0
C71 C 1.00218 0.76835 0.35496 0.0
C72 C 0.70869 0.97203 0.40545 0.0
C73 C 0.7022 0.98951 0.45079 0.0
C74 C 0.71649 0.00783 0.45736 0.0
C75 C 0.73569 0.00947 0.41528 0.0
H76 H 0.81168 0.9624 0.23929 0.0
H77 H 0.84809 0.95648 0.18372 0.0
H78 H 0.85333 0.02679 0.14334 0.0
H79 H 0.81791 0.03245 0.20052 0.0
H80 H 0.77048 0.02808 0.05499 0.0
H81 H 0.74865 0.04279 0.95439 0.0
H82 H 0.69134 0.04614 0.09219 0.0
H83 H 0.71269 0.03156 0.192 0.0
H84 H 0.73124 0.96104 0.32359 0.0
H85 H 0.69806 0.95776 0.39842 0.0
H86 H 0.71222 0.02148 0.49233 0.0
H87 H 0.74524 0.02464 0.41698 0.0
N88 N 0.77688 0.99429 0.29631 0.0
N89 N 0.77709 0.01269 0.18414 0.0
N90 N 0.7443 0.01012 0.24945 0.0
C91 C 0.78808 1.00147 0.2364 0.0
C92 C 0.75526 0.01702 0.19004 0.0
C93 C 0.75476 0.99889 0.30259 0.0
C94 C 0.81206 0.9979 0.22475 0.0
C95 C 0.82119 0.97658 0.22132 0.0
C96 C 0.84188 0.9732 0.18821 0.0
C97 C 0.85378 0.9911 0.15792 0.0
C98 C 0.84512 0.01254 0.16654 0.0
C99 C 0.82465 0.01584 0.19942 0.0
C100 C 0.74321 0.02826 0.13125 0.0
C101 C 0.75329 0.03223 0.06402 0.0
C102 C 0.74091 0.0407 0.00653 0.0
C103 C 0.71836 0.04519 0.01571 0.0
C104 C 0.70868 0.04242 0.08375 0.0
C105 C 0.72093 0.03404 0.14086 0.0
C106 C 0.7412 0.99281 0.36589 0.0
C107 C 0.72787 0.97376 0.36306 0.0
C108 C 0.40526 0.70957 0.16047 0.0
C109 C 0.40463 0.7133 0.08586 0.0
C110 C 0.41437 0.73261 0.05788 0.0
C111 C 0.42688 0.74642 0.10238 0.0
H112 H 0.51835 0.78802 0.17267 0.0
H113 H 0.52761 0.82106 0.1007 0.0
H114 H 0.46309 0.84815 0.14608 0.0
H115 H 0.45391 0.81532 0.21608 0.0
H116 H 0.45774 0.73033 0.41861 0.0
H117 H 0.46777 0.69779 0.48891 0.0
H118 H 0.52878 0.69244 0.36962 0.0
H119 H 0.51873 0.72557 0.29977 0.0
H120 H 0.41977 0.71875 0.26098 0.0
H121 H 0.398 0.69476 0.18351 0.0
H122 H 0.41403 0.73587 1.00053 0.0
H123 H 0.4358 0.76008 0.07808 0.0
N124 N 0.45784 0.77002 0.19507 0.0
N125 N 0.48734 0.76485 0.27661 0.0
N126 N 0.45856 0.73866 0.26827 0.0
C127 C 0.47693 0.77743 0.22528 0.0
C128 C 0.47776 0.74544 0.29891 0.0
C129 C 0.44861 0.75066 0.216 0.0
C130 C 0.48542 0.79913 0.19993 0.0
C131 C 0.50653 0.80143 0.16913 0.0
C132 C 0.51174 0.82028 0.12759 0.0
C133 C 0.49589 0.83705 0.11626 0.0
C134 C 0.4755 0.83536 0.15213 0.0
C135 C 0.47031 0.81664 0.19295 0.0
C136 C 0.48754 0.73064 0.35418 0.0
C137 C 0.47369 0.72269 0.4092 0.0
C138 C 0.4793 0.70382 0.44878 0.0
C139 C 0.49885 0.6921 0.43393 0.0
C140 C 0.5136 0.70103 0.3826 0.0
C141 C 0.50797 0.72013 0.34293 0.0
C142 C 0.43003 0.74089 0.17522 0.0
C143 C 0.41796 0.72319 0.20475 0.0
C144 C 0.1979 0.51177 0.04086 0.0
C145 C 0.19801 0.4977 0.9808 0.0
C146 C 0.21724 0.48497 0.96828 0.0
C147 C 0.23557 0.48607 0.01552 0.0
H148 H 0.3237 0.52263 0.14974 0.0
H149 H 0.36025 0.51777 0.20382 0.0
H150 H 0.34354 0.45034 0.25805 0.0
H151 H 0.30706 0.45532 0.20366 0.0
H152 H 0.28355 0.52942 0.3602 0.0
H153 H 0.26975 0.53979 0.48015 0.0
H154 H 0.20856 0.50544 0.43514 0.0
H155 H 0.22188 0.49589 0.31638 0.0
H156 H 0.21473 0.52373 0.13351 0.0
H157 H 0.18345 0.52156 0.05374 0.0
H158 H 0.21808 0.47403 0.92232 0.0
H159 H 0.24983 0.47572 0.0055 0.0
N160 N 0.27417 0.49417 0.12139 0.0
N161 N 0.28232 0.50165 0.2433 0.0
N162 N 0.24624 0.50559 0.20129 0.0
C163 C 0.28911 0.49534 0.17701 0.0
C164 C 0.26098 0.50663 0.25592 0.0
C165 C 0.25247 0.4997 0.13376 0.0
C166 C 0.31265 0.48922 0.17108 0.0
C167 C 0.3284 0.50634 0.16884 0.0
C168 C 0.34927 0.50363 0.20087 0.0
C169 C 0.35466 0.4838 0.23665 0.0
C170 C 0.3398 0.46592 0.2318 0.0
C171 C 0.31904 0.4686 0.19923 0.0
C172 C 0.2536 0.5121 0.32909 0.0
C173 C 0.26723 0.52402 0.37672 0.0
C174 C 0.25945 0.52985 0.44513 0.0
C175 C 0.23827 0.52315 0.4673 0.0
C176 C 0.22512 0.51054 0.4202 0.0
C177 C 0.2326 0.50529 0.35172 0.0
C178 C 0.23494 0.49976 0.07668 0.0
C179 C 0.21596 0.51283 0.08751 0.0
C180 C 0.00978 0.20023 0.02309 0.0
C181 C 0.02172 0.19349 0.96179 0.0
C182 C 0.03818 0.20776 0.93478 0.0
C183 C 0.04408 0.227 0.97195 0.0
H184 H 0.00853 0.29538 0.17422 0.0
H185 H 0.99775 0.32918 0.23875 0.0
H186 H 0.06588 0.33969 0.29979 0.0
H187 H 0.07654 0.30673 0.23533 0.0
H188 H 0.09363 0.25453 0.30198 0.0
H189 H 0.10938 0.22553 0.37735 0.0
H190 H 0.1144 0.18294 0.19179 0.0
H191 H 0.09941 0.21196 0.11651 0.0
H192 H 0.0077 0.2232 0.11108 0.0
H193 H 0.99707 0.18965 0.04568 0.0
H194 H 0.04743 0.20339 0.88699 0.0
H195 H 0.0582 0.23648 0.95334 0.0
N196 N 0.03826 0.26587 0.11629 0.0
N197 N 0.06933 0.26721 0.19301 0.0
N198 N 0.0649 0.23756 0.11446 0.0
C199 C 0.05044 0.2767 0.16766 0.0
C200 C 0.07668 0.24769 0.16669 0.0
C201 C 0.04588 0.24632 0.08885 0.0
C202 C 0.04339 0.29818 0.19971 0.0
C203 C 0.02119 0.30515 0.20051 0.0
C204 C 0.015 0.32442 0.23799 0.0
C205 C 0.03094 0.33727 0.27457 0.0
C206 C 0.05315 0.33054 0.27159 0.0
C207 C 0.05925 0.31138 0.23491 0.0
C208 C 0.09426 0.23509 0.20399 0.0
C209 C 0.09912 0.23939 0.2766 0.0
C210 C 0.10813 0.22274 0.31992 0.0
C211 C 0.1122 0.20161 0.29116 0.0
C212 C 0.11117 0.19887 0.21615 0.0
C213 C 0.10229 0.21551 0.17287 0.0
C214 C 0.0335 0.23269 0.03656 0.0
C215 C 0.01567 0.21962 0.06023 0.0
C216 C 0.29029 1.00155 0.98068 0.0
C217 C 0.29916 0.01709 0.93169 0.0
C218 C 0.28773 0.03712 0.92148 0.0
C219 C 0.2693 0.04234 0.9636 0.0
H220 H 0.1761 0.05133 0.13964 0.0
H221 H 0.14349 0.0418 0.211 0.0
H222 H 0.18088 0.99051 0.3184 0.0
H223 H 0.2131 0.99966 0.2444 0.0
H224 H 0.23716 0.07376 0.31003 0.0
H225 H 0.2651 0.08701 0.39397 0.0
H226 H 0.30915 0.10033 0.2159 0.0
H227 H 0.2811 0.08808 0.13252 0.0
H228 H 0.26631 0.99529 0.06407 0.0
H229 H 0.29865 0.98599 0.99031 0.0
H230 H 0.29366 0.04929 0.88318 0.0
H231 H 0.26198 0.05862 0.95813 0.0
N232 N 0.22866 0.02662 0.0993 0.0
N233 N 0.22625 0.05329 0.19165 0.0
N234 N 0.25569 0.05441 0.11059 0.0
C235 C 0.21762 0.03552 0.15673 0.0
C236 C 0.24532 0.06282 0.16892 0.0
C237 C 0.24768 0.03651 0.07542 0.0
C238 C 0.19691 0.02589 0.1854 0.0
C239 C 0.17699 0.03747 0.17662 0.0
C240 C 0.15843 0.03223 0.21858 0.0
C241 C 0.15947 0.01555 0.27168 0.0
C242 C 0.17921 1.00326 0.27775 0.0
C243 C 0.19772 0.0084 0.23513 0.0
C244 C 0.25738 0.0788 0.21489 0.0
C245 C 0.2524 0.0805 0.28856 0.0
C246 C 0.26848 0.08805 0.33681 0.0
C247 C 0.28976 0.0937 0.31201 0.0
C248 C 0.29313 0.09578 0.23742 0.0
C249 C 0.27703 0.08845 0.18928 0.0
C250 C 0.26148 0.02758 0.01633 0.0
C251 C 0.27161 0.00676 0.02263 0.0
C252 C 0.39737 0.29144 0.18992 0.0
C253 C 0.39728 0.28771 0.26461 0.0
C254 C 0.39875 0.26581 0.29 0.0
C255 C 0.4047 0.2488 0.2431 0.0
H256 H 0.42002 0.18037 0.19467 0.0
H257 H 0.42831 0.14717 0.26186 0.0
H258 H 0.4969 0.15215 0.19867 0.0
H259 H 0.48857 0.18634 0.13213 0.0
H260 H 0.44545 0.24888 0.9123 0.0
H261 H 0.45828 0.28147 0.84648 0.0
H262 H 0.50608 0.29434 0.01412 0.0
H263 H 0.49353 0.26124 0.07838 0.0
H264 H 0.40579 0.27848 0.08684 0.0
H265 H 0.39599 0.30803 0.16822 0.0
H266 H 0.39811 0.26236 0.3472 0.0
H267 H 0.40851 0.23271 0.26569 0.0
N268 N 0.43049 0.21933 0.15382 0.0
N269 N 0.46126 0.21861 0.07593 0.0
N270 N 0.43733 0.24929 0.07791 0.0
C271 C 0.44831 0.20841 0.12687 0.0
C272 C 0.45534 0.23906 0.05051 0.0
C273 C 0.42488 0.23971 0.12975 0.0
C274 C 0.45367 0.18629 0.15826 0.0
C275 C 0.43691 0.17441 0.19427 0.0
C276 C 0.44164 0.15509 0.23255 0.0
C277 C 0.46331 0.1468 0.23616 0.0
C278 C 0.48004 0.15815 0.19786 0.0
C279 C 0.47526 0.17764 0.15906 0.0
C280 C 0.46886 0.25217 0.99955 0.0
C281 C 0.45949 0.25803 0.93302 0.0
C282 C 0.46654 0.27704 0.89618 0.0
C283 C 0.48291 0.29096 0.92557 0.0
C284 C 0.49354 0.28406 0.98937 0.0
C285 C 0.48653 0.2649 0.026 0.0
C286 C 0.40913 0.25359 0.17043 0.0
C287 C 0.40324 0.27446 0.14309 0.0
Gd288 Gd 0.01872 0.9847 0.78356 0.0
Gd289 Gd 0.99241 1.00318 0.6408 0.0
C290 C 1.00141 0.95024 0.65816 0.0
C291 C 0.02977 0.96794 0.90566 0.0
C292 C 0.04685 0.95205 0.92702 0.0
C293 C 0.05267 0.94972 0.99952 0.0
C294 C 0.0571 0.93876 0.87504 0.0
C295 C 0.07748 0.91945 0.96886 0.0
C296 C 0.07225 0.92255 0.89579 0.0
C297 C 0.06793 0.93358 0.02034 0.0
C298 C 0.04677 0.99441 0.67161 0.0
C299 C 0.00856 0.03666 0.76673 0.0
C300 C 0.98756 0.02222 0.51858 0.0
C301 C 1.00163 0.03996 0.48865 0.0
C302 C 0.00632 0.05876 0.53033 0.0
C303 C 0.01304 0.03682 0.42368 0.0
C304 C 0.03498 0.06983 0.44661 0.0
C305 C 0.02952 0.05178 0.40246 0.0
C306 C 0.02294 0.07342 0.50989 0.0
C307 C 0.96448 0.99392 0.75285 0.0
O308 O 0.01007 0.95323 0.72341 0.0
O309 O 0.99425 0.96671 0.61658 0.0
O310 O 0.03709 0.9872 0.8832 0.0
O311 O 0.01383 0.95984 0.86554 0.0
O312 O 0.05335 0.98682 0.7334 0.0
O313 O 0.02613 0.99633 0.67547 0.0
O314 O 0.00608 0.0336 0.69642 0.0
O315 O 0.00999 0.01984 0.81252 0.0
O316 O 0.97567 0.02752 0.57507 0.0
O317 O 0.99722 1.00291 0.52516 0.0
O318 O 0.95773 1.00069 0.68999 0.0
O319 O 0.98512 0.99201 0.7494 0.0
H320 H 0.04507 0.96005 0.04013 0.0
H321 H 0.05287 0.94049 0.81862 0.0
H322 H 0.07907 0.91179 0.85491 0.0
H323 H 0.07185 0.93179 0.07694 0.0
H324 H 0.99766 0.06181 0.58017 0.0
H325 H 0.00976 0.02241 0.39081 0.0
H326 H 0.03851 0.04886 0.35299 0.0
H327 H 0.0265 0.08752 0.5439 0.0
Gd328 Gd 0.50424 0.0084 0.74003 0.0
Gd329 Gd 0.49182 0.98078 0.61961 0.0
C330 C 0.54311 0.99102 0.63093 0.0
C331 C 0.52327 0.02895 0.84394 0.0
C332 C 0.54219 0.04399 0.83895 0.0
C333 C 0.54858 0.05238 0.77145 0.0
C334 C 0.55524 0.04819 0.89937 0.0
C335 C 0.58203 0.06762 0.82396 0.0
C336 C 0.575 0.05992 0.89201 0.0
C337 C 0.56833 0.06415 0.76401 0.0
C338 C 0.49009 0.03188 0.62379 0.0
C339 C 0.45461 0.99716 0.73278 0.0
C340 C 0.47119 0.96805 0.50621 0.0
C341 C 0.45162 0.97909 0.47509 0.0
C342 C 0.43216 0.98111 0.51601 0.0
C343 C 0.45397 0.99189 0.4122 0.0
C344 C 0.41986 0.01119 0.43945 0.0
C345 C 0.43814 0.00782 0.39437 0.0
C346 C 0.41649 0.99708 0.49837 0.0
C347 C 0.50541 0.95649 0.73431 0.0
O348 O 0.53797 1.00014 0.69327 0.0
O349 O 0.52758 0.98313 0.58827 0.0
O350 O 0.50514 0.03608 0.81351 0.0
O351 O 0.5277 0.00834 0.82817 0.0
O352 O 0.48527 0.03667 0.68961 0.0
O353 O 0.50279 0.01538 0.62261 0.0
O354 O 0.45934 0.99483 0.66365 0.0
O355 O 0.47086 0.99833 0.77971 0.0
O356 O 0.46854 0.95832 0.5687 0.0
O357 O 0.48926 0.9799 0.50353 0.0
O358 O 0.5094 0.95145 0.66768 0.0
O359 O 0.49335 0.97354 0.73717 0.0
H360 H 0.5387 0.04908 0.72398 0.0
H361 H 0.55065 0.04159 0.95155 0.0
H362 H 0.5854 0.06178 0.9391 0.0
H363 H 0.57325 0.06985 0.71106 0.0
H364 H 0.42968 0.97146 0.56455 0.0
H365 H 0.46881 0.9907 0.37978 0.0
H366 H 0.4408 0.01828 0.34776 0.0
H367 H 0.40206 0.99895 0.53229 0.0
Gd368 Gd 0.49314 0.5006 0.75346 0.0
Gd369 Gd 0.51989 0.48389 0.6184 0.0
C370 C 0.51214 0.53684 0.64161 0.0
C371 C 0.47556 0.5112 0.87456 0.0
C372 C 0.46018 0.52864 0.89827 0.0
C373 C 0.4387 0.53044 0.86959 0.0
C374 C 0.46752 0.54446 0.94776 0.0
C375 C 0.43271 0.56442 0.93673 0.0
C376 C 0.45404 0.56223 0.96637 0.0
C377 C 0.42507 0.54813 0.88887 0.0
C378 C 0.47004 0.49725 0.62909 0.0
C379 C 0.504 0.44813 0.73695 0.0
C380 C 0.52707 0.46721 0.49388 0.0
C381 C 0.5168 0.4473 0.46267 0.0
C382 C 0.51494 0.42795 0.50438 0.0
C383 C 0.50571 0.44853 0.39641 0.0
C384 C 0.48864 0.41276 0.41946 0.0
C385 C 0.49191 0.4312 0.37444 0.0
C386 C 0.50085 0.41094 0.48327 0.0
C387 C 0.54794 0.49352 0.72996 0.0
O388 O 0.50567 0.53308 0.70886 0.0
O389 O 0.51657 0.52055 0.596 0.0
O390 O 0.46744 0.49577 0.83264 0.0
O391 O 0.49529 0.51801 0.85479 0.0
O392 O 0.46666 0.51231 0.67734 0.0
O393 O 0.48464 0.48383 0.65095 0.0
O394 O 0.50928 0.45158 0.66873 0.0
O395 O 0.49991 0.46472 0.78146 0.0
O396 O 0.54025 0.46381 0.54892 0.0
O397 O 0.51354 0.48392 0.50353 0.0
O398 O 0.55466 0.48707 0.66705 0.0
O399 O 0.52729 0.49501 0.72702 0.0
H400 H 0.43253 0.51846 0.83124 0.0
H401 H 0.48401 0.54344 0.97049 0.0
H402 H 0.46074 0.57466 1.00216 0.0
H403 H 0.40867 0.54917 0.86566 0.0
H404 H 0.52346 0.42638 0.55534 0.0
H405 H 0.50679 0.46334 0.36363 0.0
H406 H 0.48266 0.43289 0.32479 0.0
H407 H 0.49891 0.39667 0.51813 0.0
Gd408 Gd 0.99334 0.48078 0.76121 0.0
Gd409 Gd 0.00776 0.50822 0.64339 0.0
C410 C 0.95712 0.50111 0.6496 0.0
C411 C 0.96973 0.46722 0.86678 0.0
C412 C 0.94901 0.47825 0.88812 0.0
C413 C 0.92863 0.46764 0.87673 0.0
C414 C 0.94925 0.50108 0.90287 0.0
C415 C 0.9097 0.50307 0.88248 0.0
C416 C 0.92982 0.51333 0.89985 0.0
C417 C 0.90907 0.47995 0.87434 0.0
C418 C 0.00682 0.45661 0.64709 0.0
C419 C 0.04473 0.48952 0.75846 0.0
C420 C 0.0301 0.52601 0.54089 0.0
C421 C 0.0525 0.53556 0.54354 0.0
C422 C 0.05842 0.55103 0.59676 0.0
C423 C 0.06893 0.52678 0.49908 0.0
C424 C 0.09711 0.54797 0.5628 0.0
C425 C 0.09098 0.53274 0.50897 0.0
C426 C 0.08052 0.55727 0.60602 0.0
C427 C 0.99458 0.53214 0.7593 0.0
O428 O 0.96169 0.49665 0.71774 0.0
O429 O 0.97337 0.50298 0.6029 0.0
O430 O 0.96905 0.4577 0.8037 0.0
O431 O 0.98788 0.47866 0.87633 0.0
O432 O 0.01092 0.45153 0.71366 0.0
O433 O 0.99517 0.47394 0.64378 0.0
O434 O 0.04057 0.4985 0.6949 0.0
O435 O 0.02847 0.48227 0.79948 0.0
O436 O 0.01466 0.53665 0.57576 0.0
O437 O 0.02922 0.50459 0.55094 0.0
O438 O 0.99021 0.53736 0.69319 0.0
O439 O 0.00622 0.51485 0.76069 0.0
H440 H 0.92802 0.45013 0.86464 0.0
H441 H 0.96461 0.50989 0.91196 0.0
H442 H 0.93069 0.53101 0.90898 0.0
H443 H 0.8937 0.47156 0.86208 0.0
H444 H 0.04612 0.55782 0.6328 0.0
H445 H 0.06482 0.51452 0.45877 0.0
H446 H 0.10331 0.5247 0.47589 0.0
H447 H 0.08461 0.56912 0.64758 0.0
C448 C 0.13546 0.99113 0.35084 0.0
C449 C 0.14079 0.01225 0.32402 0.0
C450 C 0.11905 0.98819 0.40395 0.0
C451 C 0.10747 0.00677 0.43106 0.0
C452 C 0.11226 0.02801 0.40265 0.0
C453 C 0.12885 0.03051 0.35013 0.0
C454 C 0.11449 0.96521 0.4324 0.0
C455 C 0.10032 0.04827 0.42935 0.0
C456 C 0.05398 0.99772 0.53804 0.0
C457 C 0.06158 0.99878 0.60919 0.0
C458 C 0.06862 1.00031 0.47944 0.0
C459 C 0.09144 0.00422 0.4923 0.0
C460 C 0.09908 0.00558 0.56425 0.0
C461 C 0.08414 1.00269 0.62153 0.0
C462 C 0.05979 0.99842 0.40376 0.0
C463 C 0.12316 0.00987 0.58086 0.0
H464 H 0.14424 0.97682 0.33063 0.0
H465 H 0.13294 0.04699 0.33128 0.0
H466 H 0.11909 0.96432 0.49015 0.0
H467 H 0.09658 0.96139 0.42857 0.0
H468 H 0.12387 0.95233 0.40281 0.0
H469 H 0.10413 0.06319 0.3965 0.0
H470 H 0.0822 0.04544 0.42855 0.0
H471 H 0.10513 0.0516 0.48594 0.0
H472 H 0.03679 0.994 0.52813 0.0
H473 H 0.09017 0.00344 0.67643 0.0
H474 H 0.06844 0.98492 0.3749 0.0
H475 H 0.0631 0.01395 0.37372 0.0
H476 H 0.04174 0.995 0.40265 0.0
H477 H 0.13351 0.99655 0.55755 0.0
H478 H 0.12644 0.01073 0.63962 0.0
H479 H 0.12849 0.02569 0.5558 0.0
C480 C 0.48735 0.12687 0.32661 0.0
C481 C 0.46826 0.12725 0.28349 0.0
C482 C 0.49088 0.10994 0.37757 0.0
C483 C 0.47495 0.09288 0.38616 0.0
C484 C 0.45603 0.09271 0.34114 0.0
C485 C 0.45299 0.10977 0.29031 0.0
C486 C 0.51125 0.11084 0.42448 0.0
C487 C 0.43855 0.07498 0.34841 0.0
C488 C 0.49297 0.04162 0.49228 0.0
C489 C 0.48504 0.04646 0.56139 0.0
C490 C 0.48927 0.05621 0.43415 0.0
C491 C 0.47745 0.07616 0.44543 0.0
C492 C 0.46875 0.08067 0.51467 0.0
C493 C 0.47262 0.06578 0.57159 0.0
C494 C 0.4984 0.0505 0.361 0.0
C495 C 0.45578 0.10151 0.52919 0.0
H496 H 0.49914 0.14034 0.32279 0.0
H497 H 0.43836 0.10958 0.25661 0.0
H498 H 0.50632 0.11348 0.48133 0.0
H499 H 0.52026 0.09487 0.42209 0.0
H500 H 0.52273 0.12433 0.40829 0.0
H501 H 0.42591 0.07591 0.30507 0.0
H502 H 0.44626 0.05837 0.34747 0.0
H503 H 0.43004 0.07671 0.40095 0.0
H504 H 0.50239 0.0266 0.48386 0.0
H505 H 0.46622 0.06952 0.62466 0.0
H506 H 0.51101 0.06292 0.345 0.0
H507 H 0.48503 0.05105 0.32011 0.0
H508 H 0.5061 0.03382 0.36004 0.0
H509 H 0.46633 0.11622 0.51883 0.0
H510 H 0.44964 0.1023 0.58547 0.0
H511 H 0.4414 0.10256 0.49226 0.0
C512 C 0.39459 0.4916 0.2692 0.0
C513 C 0.37377 0.48299 0.28782 0.0
C514 C 0.41188 0.49276 0.32014 0.0
C515 C 0.40816 0.48565 0.39193 0.0
C516 C 0.38732 0.4765 0.41046 0.0
C517 C 0.37052 0.47516 0.35828 0.0
C518 C 0.434 0.50206 0.29761 0.0
C519 C 0.38248 0.46884 0.48626 0.0
C520 C 0.45575 0.475 0.5239 0.0
C521 C 0.45572 0.49452 0.56455 0.0
C522 C 0.44057 0.47197 0.46691 0.0
C523 C 0.4254 0.489 0.44906 0.0
C524 C 0.42585 0.50898 0.48874 0.0
C525 C 0.4409 0.51144 0.54586 0.0
C526 C 0.44055 0.45038 0.4266 0.0
C527 C 0.40989 0.52753 0.47243 0.0
H528 H 0.39729 0.49761 0.21489 0.0
H529 H 0.35441 0.46882 0.37365 0.0
H530 H 0.43731 0.51766 0.32707 0.0
H531 H 0.44738 0.49028 0.31186 0.0
H532 H 0.43476 0.50552 0.23891 0.0
H533 H 0.36579 0.46127 0.49135 0.0
H534 H 0.39499 0.45653 0.50379 0.0
H535 H 0.38356 0.48308 0.52366 0.0
H536 H 0.46719 0.46187 0.53786 0.0
H537 H 0.44083 0.52663 0.5768 0.0
H538 H 0.44739 0.45308 0.3719 0.0
H539 H 0.4235 0.44386 0.42021 0.0
H540 H 0.45058 0.43773 0.45473 0.0
H541 H 0.41128 0.53252 0.41512 0.0
H542 H 0.41286 0.5423 0.50658 0.0
H543 H 0.39267 0.52175 0.48128 0.0
C544 C 0.00631 0.3564 0.36478 0.0
C545 C 0.02476 0.35699 0.31892 0.0
C546 C 1.00212 0.37368 0.41375 0.0
C547 C 0.01674 0.39203 0.41729 0.0
C548 C 0.03476 0.39321 0.36875 0.0
C549 C 0.03848 0.37579 0.32019 0.0
C550 C 0.98261 0.37178 0.46404 0.0
C551 C 0.05074 0.41243 0.37027 0.0
C552 C 0.99973 0.44418 0.51982 0.0
C553 C 0.0099 0.44076 0.58684 0.0
C554 C 1.0017 0.42849 0.46413 0.0
C555 C 0.01431 0.409 0.47546 0.0
C556 C 0.02488 0.40572 0.54275 0.0
C557 C 0.02249 0.42157 0.59748 0.0
C558 C 0.99011 0.43262 0.39344 0.0
C559 C 0.03867 0.38538 0.55717 0.0
H560 H 0.99567 0.34195 0.36479 0.0
H561 H 0.05254 0.37667 0.28412 0.0
H562 H 0.98861 0.36938 0.51996 0.0
H563 H 0.97278 0.38727 0.46313 0.0
H564 H 0.97161 0.35771 0.44992 0.0
H565 H 0.06287 0.41178 0.32542 0.0
H566 H 0.04166 0.42833 0.36714 0.0
H567 H 0.05997 0.41233 0.42192 0.0
H568 H 0.98994 0.45896 0.51125 0.0
H569 H 0.03046 0.41885 0.64902 0.0
H570 H 0.97818 0.41906 0.38258 0.0
H571 H 1.00229 0.43267 0.34882 0.0
H572 H 0.98106 0.4486 0.3929 0.0
H573 H 0.02836 0.3703 0.55108 0.0
H574 H 0.04599 0.38538 0.61203 0.0
H575 H 0.05227 0.3843 0.51726 0.0
C576 C 0.8905 0.00384 0.10738 0.0
C577 C 0.87373 0.9877 0.11096 0.0
C578 C 0.90694 1.00324 0.05383 0.0
C579 C 0.90717 0.98571 0.0034 0.0
C580 C 0.89148 0.96838 0.01036 0.0
C581 C 0.87486 0.96968 0.06338 0.0
C582 C 0.92315 0.02221 0.04836 0.0
C583 C 0.89143 0.94906 0.95906 0.0
C584 C 0.92826 0.99876 0.81475 0.0
C585 C 0.95007 0.99092 0.81694 0.0
C586 C 0.91427 0.99713 0.8749 0.0
C587 C 0.92202 0.98692 0.93884 0.0
C588 C 0.94392 0.97853 0.94096 0.0
C589 C 0.95778 0.98089 0.88025 0.0
C590 C 0.89125 0.00674 0.8703 0.0
C591 C 0.95272 0.96708 0.00727 0.0
H592 H 0.89032 0.01753 0.14488 0.0
H593 H 0.86208 0.95711 0.06477 0.0
H594 H 0.94032 0.01593 0.04424 0.0
H595 H 0.91971 0.03186 0.99871 0.0
H596 H 0.9221 0.03353 0.09521 0.0
H597 H 0.88062 0.93538 0.97823 0.0
H598 H 0.88536 0.95459 0.90562 0.0
H599 H 0.90844 0.9426 0.95161 0.0
H600 H 0.92221 0.00665 0.76614 0.0
H601 H 0.97457 0.97482 0.88225 0.0
H602 H 0.88904 0.01947 0.9126 0.0
H603 H 0.87877 0.99361 0.88009 0.0
H604 H 0.88785 0.01443 0.81708 0.0
H605 H 0.95292 0.97874 0.05323 0.0
H606 H 0.96972 0.96059 0.99926 0.0
H607 H 0.94167 0.95313 0.02233 0.0
C608 C 0.48247 0.86067 0.01403 0.0
C609 C 0.49944 0.85523 0.0626 0.0
C610 C 0.48502 0.87767 0.96301 0.0
C611 C 0.50506 0.8898 0.96008 0.0
C612 C 0.52235 0.88442 0.00876 0.0
C613 C 0.5194 0.8671 0.05909 0.0
C614 C 0.46623 0.88254 0.91175 0.0
C615 C 0.5439 0.89703 0.00786 0.0
C616 C 0.51585 0.91899 0.78121 0.0
C617 C 0.50758 0.94028 0.79431 0.0
C618 C 0.51595 0.90267 0.83542 0.0
C619 C 0.50779 0.90777 0.90493 0.0
C620 C 0.50038 0.92957 0.91935 0.0
C621 C 0.50028 0.94552 0.86385 0.0
C622 C 0.52385 0.87967 0.81726 0.0
C623 C 0.49177 0.93584 0.99271 0.0
H624 H 0.46714 0.85133 0.0152 0.0
H625 H 0.53257 0.86309 0.09648 0.0
H626 H 0.46086 0.89998 0.91769 0.0
H627 H 0.47188 0.8804 0.85539 0.0
H628 H 0.45171 0.8716 0.92098 0.0
H629 H 0.55561 0.89106 0.04968 0.0
H630 H 0.55188 0.89545 0.95439 0.0
H631 H 0.54073 0.91489 0.01676 0.0
H632 H 0.52161 0.91481 0.72772 0.0
H633 H 0.49399 0.96198 0.87454 0.0
H634 H 0.50973 0.86794 0.81989 0.0
H635 H 0.53631 0.87404 0.85709 0.0
H636 H 0.53125 0.87879 0.76263 0.0
H637 H 0.47602 0.92697 0.00333 0.0
H638 H 0.48873 0.9539 0.99739 0.0
H639 H 0.50368 0.93077 0.03508 0.0
C640 C 0.62904 0.52835 0.0534 0.0
C641 C 0.63802 0.50979 0.08859 0.0
C642 C 0.6131 0.52609 0.99867 0.0
C643 C 0.60578 0.50474 0.97817 0.0
C644 C 0.6142 0.48597 0.01501 0.0
C645 C 0.63026 0.4887 0.0694 0.0
C646 C 0.60477 0.54657 0.96069 0.0
C647 C 0.60673 0.46291 0.99549 0.0
C648 C 0.55345 0.49981 0.86277 0.0
C649 C 0.56236 0.49714 0.79368 0.0
C650 C 0.5673 0.50221 0.92344 0.0
C651 C 0.59062 0.50203 0.91478 0.0
C652 C 0.59962 0.49949 0.84486 0.0
C653 C 0.58541 0.49699 0.78544 0.0
C654 C 0.55698 0.50474 0.99687 0.0
C655 C 0.62432 0.49939 0.8327 0.0
H656 H 0.63514 0.54471 0.06659 0.0
H657 H 0.6369 0.47427 0.09649 0.0
H658 H 0.6103 0.5464 0.90376 0.0
H659 H 0.58643 0.54681 0.96042 0.0
H660 H 0.61086 0.56202 0.98624 0.0
H661 H 0.61348 0.4502 0.03273 0.0
H662 H 0.58841 0.4619 0.9962 0.0
H663 H 0.6122 0.45895 0.94002 0.0
H664 H 0.53566 0.49965 0.86958 0.0
H665 H 0.59241 0.49488 0.73221 0.0
H666 H 0.56258 0.52043 0.02187 0.0
H667 H 0.56246 0.49105 0.03252 0.0
H668 H 0.53861 0.50472 0.99459 0.0
H669 H 0.63167 0.51505 0.85258 0.0
H670 H 0.62869 0.49744 0.775 0.0
H671 H 0.632 0.48567 0.86361 0.0
C672 C 0.02221 0.63024 0.01927 0.0
C673 C 0.0078 0.63481 0.07662 0.0
C674 C 0.01804 0.61292 0.97091 0.0
C675 C 0.99886 0.59969 0.97938 0.0
C676 C 0.98398 0.60437 0.03637 0.0
C677 C 0.98858 0.62192 0.08419 0.0
C678 C 0.03428 0.60876 0.91067 0.0
C679 C 0.96336 0.59067 0.04726 0.0
C680 C 0.98266 0.56867 0.8091 0.0
C681 C 0.99303 0.54817 0.81956 0.0
C682 C 0.98333 0.58518 0.86234 0.0
C683 C 0.99464 0.58111 0.92787 0.0
C684 C 0.00406 0.55995 0.94025 0.0
C685 C 1.00314 0.54375 0.88598 0.0
C686 C 0.97297 0.60738 0.84675 0.0
C687 C 0.01614 0.5548 0.00936 0.0
H688 H 0.03685 0.64036 0.01186 0.0
H689 H 0.97739 0.62526 0.12837 0.0
H690 H 0.04094 0.59171 0.91491 0.0
H691 H 0.02578 0.61012 0.85792 0.0
H692 H 0.04837 0.62058 0.91133 0.0
H693 H 0.95324 0.59665 0.09313 0.0
H694 H 0.95307 0.591 0.99782 0.0
H695 H 0.96794 0.57317 0.05733 0.0
H696 H 0.97462 0.57214 0.75815 0.0
H697 H 0.01103 0.52787 0.89466 0.0
H698 H 0.98617 0.61999 0.83991 0.0
H699 H 0.96249 0.6127 0.89251 0.0
H700 H 0.9627 0.60713 0.79715 0.0
H701 H 0.03171 0.56452 0.01154 0.0
H702 H 0.02031 0.53696 0.01416 0.0
H703 H 0.006 0.55967 0.05645 0.0
C704 C 0.09324 0.18053 0.38776 0.0
C705 C 0.11057 0.18164 0.33766 0.0
C706 C 0.08551 0.16018 0.41338 0.0
C707 C 0.09563 0.14045 0.3893 0.0
C708 C 0.11501 0.14158 0.3468 0.0
C709 C 0.12219 0.16224 0.32078 0.0
C710 C 0.06485 0.15977 0.45918 0.0
C711 C 0.12695 0.12092 0.32335 0.0
C712 C 0.06928 0.09068 0.47779 0.0
C713 C 0.05294 0.08528 0.42718 0.0
C714 C 0.08495 0.10721 0.46332 0.0
C715 C 0.08349 0.11926 0.39818 0.0
C716 C 0.0677 0.11305 0.3454 0.0
C717 C 0.05278 0.09587 0.36027 0.0
C718 C 0.10218 0.1125 0.51947 0.0
C719 C 0.0654 0.12564 0.27547 0.0
H720 H 0.08403 0.19534 0.40108 0.0
H721 H 0.13586 0.16301 0.28311 0.0
H722 H 0.05087 0.15301 0.42725 0.0
H723 H 0.06715 0.14886 0.50659 0.0
H724 H 0.0602 0.17651 0.47845 0.0
H725 H 0.14428 0.12458 0.30736 0.0
H726 H 0.12703 0.10831 0.36688 0.0
H727 H 0.11832 0.11367 0.27628 0.0
H728 H 0.06961 0.08212 0.52916 0.0
H729 H 0.04009 0.09167 0.32134 0.0
H730 H 0.11796 0.11785 0.49433 0.0
H731 H 0.10545 0.09799 0.55472 0.0
H732 H 0.09617 0.1262 0.5539 0.0
H733 H 0.06003 0.14285 0.28675 0.0
H734 H 0.05316 0.11791 0.23864 0.0
H735 H 0.08155 0.1266 0.24744 0.0
C736 C 0.31022 0.07241 0.4052 0.0
C737 C 0.30939 0.09095 0.35957 0.0
C738 C 0.33045 0.06401 0.42941 0.0
C739 C 0.3503 0.07453 0.40801 0.0
C740 C 0.34944 0.09504 0.37134 0.0
C741 C 0.32891 0.10303 0.34715 0.0
C742 C 0.3306 0.04234 0.47017 0.0
C743 C 0.37029 0.10739 0.35161 0.0
C744 C 0.40021 0.04474 0.48301 0.0
C745 C 0.40458 0.02979 0.42727 0.0
C746 C 0.38387 0.061 0.47539 0.0
C747 C 0.37123 0.06175 0.41135 0.0
C748 C 0.37661 0.04753 0.35327 0.0
C749 C 0.39344 0.03183 0.36178 0.0
C750 C 0.37941 0.07632 0.53766 0.0
C751 C 0.36352 0.04772 0.28399 0.0
H752 H 0.29536 0.06289 0.41562 0.0
H753 H 0.32837 0.11774 0.31367 0.0
H754 H 0.33697 0.02904 0.43469 0.0
H755 H 0.34172 0.04337 0.5175 0.0
H756 H 0.31383 0.03752 0.48904 0.0
H757 H 0.36682 0.125 0.33866 0.0
H758 H 0.38253 0.10661 0.39609 0.0
H759 H 0.37792 0.09962 0.30366 0.0
H760 H 0.40926 0.04339 0.53326 0.0
H761 H 0.39703 0.02031 0.31872 0.0
H762 H 0.36751 0.06832 0.57502 0.0
H763 H 0.37229 0.0923 0.51958 0.0
H764 H 0.39484 0.07966 0.56833 0.0
H765 H 0.34624 0.04245 0.29492 0.0
H766 H 0.37064 0.03649 0.24284 0.0
H767 H 0.3629 0.06469 0.26129 0.0
C768 C 0.42132 0.30436 0.358 0.0
C769 C 0.40282 0.30645 0.3128 0.0
C770 C 0.43231 0.32302 0.38433 0.0
C771 C 0.42438 0.3443 0.36598 0.0
C772 C 0.40418 0.34651 0.32811 0.0
C773 C 0.39366 0.32749 0.30139 0.0
C774 C 0.45381 0.3199 0.42461 0.0
C775 C 0.39477 0.36895 0.31017 0.0
C776 C 0.45563 0.3908 0.45663 0.0
C777 C 0.47123 0.39631 0.40359 0.0
C778 C 0.43927 0.37487 0.44366 0.0
C779 C 0.43902 0.36371 0.37695 0.0
C780 C 0.45443 0.3696 0.32257 0.0
C781 C 0.47021 0.38608 0.33632 0.0
C782 C 0.42276 0.36952 0.50213 0.0
C783 C 0.45489 0.35782 0.25098 0.0
H784 H 0.42869 0.28824 0.36675 0.0
H785 H 0.37921 0.32918 0.26724 0.0
H786 H 0.46782 0.3248 0.38935 0.0
H787 H 0.45439 0.33058 0.47297 0.0
H788 H 0.45632 0.30246 0.4417 0.0
H789 H 0.37705 0.36788 0.2946 0.0
H790 H 0.39642 0.38039 0.35649 0.0
H791 H 0.40409 0.37623 0.26443 0.0
H792 H 0.45622 0.39902 0.50839 0.0
H793 H 0.48227 0.3904 0.29546 0.0
H794 H 0.40583 0.36808 0.47946 0.0
H795 H 0.42268 0.38228 0.54509 0.0
H796 H 0.42695 0.35337 0.52703 0.0
H797 H 0.45871 0.34005 0.25952 0.0
H798 H 0.46742 0.36491 0.21374 0.0
H799 H 0.43843 0.35876 0.22478 0.0
C800 C 0.21486 0.51679 0.5745 0.0
C801 C 0.22805 0.53134 0.53438 0.0
C802 C 0.19587 0.52455 0.60913 0.0
C803 C 0.19072 0.54738 0.6048 0.0
C804 C 0.20726 0.5624 0.58193 0.0
C805 C 0.22572 0.55418 0.54482 0.0
C806 C 0.17967 0.50792 0.63919 0.0
C807 C 0.20367 0.58703 0.5857 0.0
C808 C 0.13519 0.55383 0.51571 0.0
C809 C 0.1209 0.55307 0.5748 0.0
C810 C 0.15809 0.5534 0.52492 0.0
C811 C 0.1671 0.55356 0.59558 0.0
C812 C 0.15281 0.55596 0.65533 0.0
C813 C 0.12978 0.55515 0.64445 0.0
C814 C 0.17237 0.55091 0.45855 0.0
C815 C 0.1616 0.55838 0.73087 0.0
H816 H 0.21747 0.49912 0.56938 0.0
H817 H 0.23646 0.56561 0.51636 0.0
H818 H 0.17592 0.51203 0.69591 0.0
H819 H 0.16397 0.50842 0.60821 0.0
H820 H 0.18618 0.49075 0.63757 0.0
H821 H 0.2197 0.59585 0.59167 0.0
H822 H 0.19583 0.5929 0.53517 0.0
H823 H 0.19268 0.59141 0.63134 0.0
H824 H 0.12843 0.55344 0.46169 0.0
H825 H 0.11891 0.55502 0.69079 0.0
H826 H 0.18233 0.53558 0.46249 0.0
H827 H 0.1839 0.56508 0.45368 0.0
H828 H 0.16248 0.55006 0.40821 0.0
H829 H 0.16181 0.54203 0.75787 0.0
H830 H 0.15068 0.56933 0.76299 0.0
H831 H 0.17865 0.56523 0.73151 0.0
C832 C 0.10795 0.79782 0.0291 0.0
C833 C 0.11998 0.79343 0.09217 0.0
C834 C 0.1075 0.81911 0.99928 0.0
C835 C 0.11936 0.83633 0.03346 0.0
C836 C 0.13437 0.83117 0.08944 0.0
C837 C 0.13453 0.80968 0.1183 0.0
C838 C 0.0918 0.82374 0.93787 0.0
C839 C 0.14813 0.84889 0.12488 0.0
C840 C 0.10933 0.89316 0.95211 0.0
C841 C 0.09078 0.90003 0.99167 0.0
C842 C 0.11996 0.87305 0.96781 0.0
C843 C 0.1116 0.85945 0.02364 0.0
C844 C 0.09368 0.86694 0.06623 0.0
C845 C 0.08354 0.8871 0.04971 0.0
C846 C 0.13927 0.86596 0.922 0.0
C847 C 0.08421 0.85301 0.12659 0.0
H848 H 0.09677 0.78543 0.00771 0.0
H849 H 0.14447 0.80621 0.16557 0.0
H850 H 0.07666 0.83177 0.95916 0.0
H851 H 0.0994 0.83521 0.89832 0.0
H852 H 0.08683 0.80834 0.9096 0.0
H853 H 0.16252 0.84171 0.15384 0.0
H854 H 0.15418 0.86109 0.08467 0.0
H855 H 0.1378 0.85789 0.16449 0.0
H856 H 0.11521 0.90325 0.90772 0.0
H857 H 0.06907 0.89211 0.07996 0.0
H858 H 0.15128 0.85591 0.95314 0.0
H859 H 0.14801 0.8805 0.89874 0.0
H860 H 0.13311 0.85573 0.87674 0.0
H861 H 0.07701 0.83758 0.10427 0.0
H862 H 0.0711 0.86182 0.15698 0.0
H863 H 0.09745 0.8482 0.16484 0.0
C864 C 0.70777 0.0701 0.91313 0.0
C865 C 0.70402 0.05106 0.95453 0.0
C866 C 0.69138 0.07793 0.86575 0.0
C867 C 0.67091 0.06656 0.86146 0.0
C868 C 0.66819 0.04605 0.89788 0.0
C869 C 0.6849 0.03853 0.94338 0.0
C870 C 0.69569 0.099 0.8245 0.0
C871 C 0.64689 0.03289 0.89429 0.0
C872 C 0.61438 0.08886 0.87029 0.0
C873 C 0.60489 0.07616 0.81536 0.0
C874 C 0.63734 0.08937 0.87944 0.0
C875 C 0.65084 0.07723 0.83149 0.0
C876 C 0.64163 0.06893 0.76713 0.0
C877 C 0.61853 0.06796 0.76032 0.0
C878 C 0.64668 0.09973 0.94674 0.0
C879 C 0.65602 0.05822 0.71093 0.0
H880 H 0.72284 0.07955 0.92086 0.0
H881 H 0.68245 0.02343 0.9741 0.0
H882 H 0.68376 0.10155 0.77985 0.0
H883 H 0.69472 0.11328 0.86175 0.0
H884 H 0.71272 0.09882 0.80203 0.0
H885 H 0.64769 0.01734 0.92623 0.0
H886 H 0.63293 0.04292 0.91503 0.0
H887 H 0.64309 0.02843 0.83781 0.0
H888 H 0.60382 0.09626 0.91075 0.0
H889 H 0.61141 0.05871 0.71609 0.0
H890 H 0.66169 0.10951 0.93379 0.0
H891 H 0.65152 0.08651 0.98527 0.0
H892 H 0.63452 0.11072 0.97359 0.0
H893 H 0.67158 0.06776 0.70384 0.0
H894 H 0.64735 0.05702 0.65834 0.0
H895 H 0.66059 0.04129 0.72861 0.0
C896 C 0.41623 0.68706 0.99157 0.0
C897 C 0.39957 0.69443 0.03804 0.0
C898 C 0.41599 0.66549 0.96463 0.0
C899 C 0.3983 0.65117 0.98313 0.0
C900 C 0.37991 0.65956 0.02138 0.0
C901 C 0.38094 0.68105 0.04986 0.0
C902 C 0.43604 0.65728 0.92418 0.0
C903 C 0.36007 0.64528 0.03794 0.0
C904 C 0.40733 0.59521 0.89799 0.0
C905 C 0.41934 0.58447 0.95259 0.0
C906 C 0.3981 0.61622 0.9094 0.0
C907 C 0.40165 0.62695 0.97597 0.0
C908 C 0.4121 0.6154 0.03304 0.0
C909 C 0.42043 0.59416 0.02094 0.0
C910 C 0.38599 0.62744 0.84843 0.0
C911 C 0.41627 0.62616 0.10515 0.0
H912 H 0.43072 0.6973 0.9826 0.0
H913 H 0.36791 0.68684 0.08515 0.0
H914 H 0.44521 0.64526 0.9582 0.0
H915 H 0.43098 0.64858 0.8744 0.0
H916 H 0.44749 0.67093 0.90927 0.0
H917 H 0.34511 0.65552 0.04726 0.0
H918 H 0.3567 0.6335 0.99352 0.0
H919 H 0.36327 0.63554 0.08751 0.0
H920 H 0.40619 0.58786 0.84499 0.0
H921 H 0.42889 0.58559 0.06422 0.0
H922 H 0.39788 0.63733 0.81616 0.0
H923 H 0.37298 0.63876 0.86868 0.0
H924 H 0.37826 0.61509 0.81204 0.0
H925 H 0.4275 0.64055 0.09817 0.0
H926 H 0.42388 0.61459 0.14452 0.0
H927 H 0.40057 0.6324 0.12817 0.0
C928 C 0.79932 0.57571 0.89281 0.0
C929 C 0.80101 0.58263 0.9649 0.0
C930 C 0.81737 0.56582 0.85788 0.0
C931 C 0.83757 0.56347 0.89541 0.0
C932 C 0.84043 0.57404 0.96255 0.0
C933 C 0.8221 0.58335 0.99672 0.0
C934 C 0.81394 0.55561 0.78472 0.0
C935 C 0.86206 0.57279 0.00321 0.0
C936 C 0.86965 0.51036 0.90436 0.0
C937 C 0.88964 0.51675 0.8727 0.0
C938 C 0.8516 0.52482 0.9055 0.0
C939 C 0.85372 0.5462 0.87454 0.0
C940 C 0.87309 0.55185 0.8361 0.0
C941 C 0.89088 0.53701 0.83566 0.0
C942 C 0.83096 0.51792 0.94556 0.0
C943 C 0.87579 0.57415 0.80047 0.0
H944 H 0.78344 0.57614 0.86577 0.0
H945 H 0.82412 0.58885 0.05169 0.0
H946 H 0.82941 0.55563 0.75265 0.0
H947 H 0.80857 0.53817 0.79156 0.0
H948 H 0.80086 0.56448 0.75413 0.0
H949 H 0.86266 0.58474 0.04849 0.0
H950 H 0.86414 0.55587 0.02558 0.0
H951 H 0.87623 0.57612 0.96694 0.0
H952 H 0.86855 0.49463 0.93231 0.0
H953 H 0.90611 0.54165 0.80869 0.0
H954 H 0.81601 0.52167 0.91317 0.0
H955 H 0.82975 0.52738 0.99653 0.0
H956 H 0.83095 0.49999 0.95885 0.0
H957 H 0.85994 0.58009 0.77744 0.0
H958 H 0.88842 0.57361 0.75708 0.0
H959 H 0.88132 0.58638 0.84112 0.0
C960 C 0.0375 0.15819 0.91223 0.0
C961 C 0.01884 0.17079 0.93075 0.0
C962 C 0.03548 0.13651 0.88559 0.0
C963 C 0.01423 0.12699 0.87682 0.0
C964 C 0.99527 0.1396 0.89506 0.0
C965 C 0.9978 0.16127 0.92212 0.0
C966 C 0.05617 0.1237 0.8676 0.0
C967 C 0.97231 0.13019 0.88602 0.0
C968 C 0.00984 0.078 0.74798 0.0
C969 C 0.00976 0.05978 0.79512 0.0
C970 C 0.01086 0.09987 0.77373 0.0
C971 C 0.01199 0.10382 0.84877 0.0
C972 C 0.0119 0.08555 0.89679 0.0
C973 C 0.01075 0.06383 0.86951 0.0
C974 C 0.01094 0.11876 0.72041 0.0
C975 C 0.01327 0.08893 0.97714 0.0
H976 H 0.05387 0.16511 0.92013 0.0
H977 H 0.98327 0.17083 0.93598 0.0
H978 H 0.05694 0.10841 0.9007 0.0
H979 H 0.05581 0.11854 0.81036 0.0
H980 H 0.07146 0.13348 0.87708 0.0
H981 H 0.95925 0.14213 0.90186 0.0
H982 H 0.96962 0.12538 0.8291 0.0
H983 H 0.97049 0.115 0.91915 0.0
H984 H 0.00929 0.07523 0.69058 0.0
H985 H 0.01068 0.05 0.90674 0.0
H986 H 0.99731 0.13042 0.7327 0.0
H987 H 0.00908 0.11299 0.66399 0.0
H988 H 0.02667 0.12814 0.72486 0.0
H989 H 0.02894 0.0975 0.99091 0.0
H990 H 0.01253 0.07307 0.00743 0.0
H991 H 0.99951 0.09965 0.9954 0.0
C992 C 0.33645 0.03111 0.89162 0.0
C993 C 0.32122 0.01355 0.89648 0.0
C994 C 0.3576 0.02819 0.86158 0.0
C995 C 0.36396 0.00714 0.83557 0.0
C996 C 0.34863 0.98937 0.83933 0.0
C997 C 0.32753 0.99275 0.86991 0.0
C998 C 0.37332 0.04763 0.85892 0.0
C999 C 0.35465 0.96671 0.81181 0.0
C1000 C 0.41417 0.00467 0.71005 0.0
C1001 C 0.43124 0.99897 0.75782 0.0
C1002 C 0.39219 0.00722 0.73419 0.0
C1003 C 0.38702 0.00362 0.80781 0.0
C1004 C 0.40419 0.99758 0.85598 0.0
C1005 C 0.42601 0.99546 0.83056 0.0
C1006 C 0.37455 0.01391 0.68091 0.0
C1007 C 0.39957 0.99367 0.93486 0.0
H1008 H 0.33206 0.04716 0.91315 0.0
H1009 H 0.31592 0.9791 0.87278 0.0
H1010 H 0.38812 0.04406 0.89232 0.0
H1011 H 0.37912 0.05036 0.80295 0.0
H1012 H 0.36559 0.06313 0.87867 0.0
H1013 H 0.34072 0.95478 0.81648 0.0
H1014 H 0.35973 0.9678 0.75454 0.0
H1015 H 0.36897 0.96015 0.84249 0.0
H1016 H 0.41808 0.00769 0.65403 0.0
H1017 H 0.43904 0.99098 0.86794 0.0
H1018 H 0.3647 0.02794 0.702 0.0
H1019 H 0.36302 0.99986 0.67246 0.0
H1020 H 0.38161 0.01883 0.62807 0.0
H1021 H 0.39319 0.00907 0.95966 0.0
H1022 H 0.41455 0.98835 0.96487 0.0
H1023 H 0.3866 0.98081 0.94129 0.0
C1024 C 0.50851 0.32271 0.89236 0.0
C1025 C 0.48715 0.3135 0.89401 0.0
C1026 C 0.51225 0.34435 0.86616 0.0
C1027 C 0.49422 0.35725 0.84111 0.0
C1028 C 0.47269 0.34799 0.84204 0.0
C1029 C 0.46943 0.32637 0.86844 0.0
C1030 C 0.5355 0.35348 0.86575 0.0
C1031 C 0.45294 0.36107 0.81621 0.0
C1032 C 0.49842 0.42044 0.83735 0.0
C1033 C 0.50217 0.42485 0.76407 0.0
C1034 C 0.49619 0.39859 0.86322 0.0
C1035 C 0.49771 0.38054 0.81486 0.0
C1036 C 0.50172 0.38486 0.74099 0.0
C1037 C 0.50386 0.40685 0.71661 0.0
C1038 C 0.4919 0.39484 0.94235 0.0
C1039 C 0.50336 0.36623 0.6873 0.0
H1040 H 0.52237 0.31297 0.9114 0.0
H1041 H 0.45277 0.31977 0.87077 0.0
H1042 H 0.54017 0.35852 0.81034 0.0
H1043 H 0.53637 0.36848 0.8999 0.0
H1044 H 0.54779 0.34128 0.88579 0.0
H1045 H 0.43734 0.35136 0.81889 0.0
H1046 H 0.451 0.37617 0.84943 0.0
H1047 H 0.45554 0.36655 0.75981 0.0
H1048 H 0.4971 0.4341 0.87477 0.0
H1049 H 0.50659 0.40991 0.65992 0.0
H1050 H 0.50472 0.38377 0.96529 0.0
H1051 H 0.47569 0.3865 0.94968 0.0
H1052 H 0.4918 0.41053 0.97336 0.0
H1053 H 0.51576 0.35391 0.70544 0.0
H1054 H 0.50803 0.37218 0.63277 0.0
H1055 H 0.48721 0.35755 0.68349 0.0
C1056 C 0.16432 0.51469 0.92195 0.0
C1057 C 0.17758 0.49594 0.93471 0.0
C1058 C 0.14346 0.513 0.88867 0.0
C1059 C 0.13557 0.49209 0.8657 0.0
C1060 C 0.1494 0.4733 0.87414 0.0
C1061 C 0.17011 0.47541 0.90882 0.0
C1062 C 0.1294 0.53352 0.88127 0.0
C1063 C 0.14194 0.45078 0.849 0.0
C1064 C 0.07271 0.48479 0.85797 0.0
C1065 C 0.06806 0.48875 0.78502 0.0
C1066 C 0.09456 0.48546 0.88449 0.0
C1067 C 0.1124 0.48985 0.83692 0.0
C1068 C 0.10784 0.49326 0.76285 0.0
C1069 C 0.08581 0.49285 0.73799 0.0
C1070 C 0.09849 0.4821 0.964 0.0
C1071 C 0.12621 0.49767 0.70991 0.0
H1072 H 0.17003 0.53077 0.93972 0.0
H1073 H 0.18 0.46076 0.91827 0.0
H1074 H 0.12315 0.53523 0.82541 0.0
H1075 H 0.11478 0.53209 0.91709 0.0
H1076 H 0.13862 0.54879 0.89563 0.0
H1077 H 0.15537 0.4383 0.85257 0.0
H1078 H 0.12784 0.44505 0.88243 0.0
H1079 H 0.13605 0.45167 0.7925 0.0
H1080 H 0.05918 0.48174 0.89497 0.0
H1081 H 0.08249 0.49587 0.68146 0.0
H1082 H 0.10599 0.49724 0.98732 0.0
H1083 H 0.11033 0.46836 0.97274 0.0
H1084 H 0.08298 0.47831 0.99366 0.0
H1085 H 0.13547 0.51266 0.72617 0.0
H1086 H 0.12001 0.5001 0.65414 0.0
H1087 H 0.13807 0.48367 0.71031 0.0
C1088 C 0.9859 0.82557 0.50288 0.0
C1089 C 0.00676 0.81762 0.48237 0.0
C1090 C 0.98346 0.84687 0.53295 0.0
C1091 C 1.00226 0.86072 0.54149 0.0
C1092 C 0.02328 0.85284 0.51986 0.0
C1093 C 0.02526 0.83146 0.49106 0.0
C1094 C 0.96081 0.8545 0.55603 0.0
C1095 C 0.04373 0.86708 0.52663 0.0
C1096 C 0.99627 0.92348 0.55572 0.0
C1097 C 1.0002 0.92721 0.62926 0.0
C1098 C 0.99634 0.90195 0.52684 0.0
C1099 C 1.00017 0.88353 0.57251 0.0
C1100 C 0.00349 0.88712 0.64711 0.0
C1101 C 0.00362 0.90885 0.67443 0.0
C1102 C 0.99304 0.899 0.44689 0.0
C1103 C 0.00741 0.868 0.69796 0.0
H1104 H 0.97154 0.81499 0.49646 0.0
H1105 H 0.04139 0.82565 0.47409 0.0
H1106 H 0.961 0.85874 0.61409 0.0
H1107 H 0.95618 0.86971 0.52614 0.0
H1108 H 0.94791 0.84172 0.5467 0.0
H1109 H 0.05881 0.85862 0.50654 0.0
H1110 H 0.0415 0.88268 0.49591 0.0
H1111 H 0.04641 0.87164 0.58376 0.0
H1112 H 0.9937 0.93745 0.52005 0.0
H1113 H 0.00653 0.91143 0.73136 0.0
H1114 H 0.97942 0.88711 0.43657 0.0
H1115 H 0.00826 0.89198 0.42269 0.0
H1116 H 0.98916 0.91483 0.41919 0.0
H1117 H 0.00804 0.87335 0.75508 0.0
H1118 H 0.02327 0.8598 0.6845 0.0
H1119 H 0.99411 0.85546 0.69192 0.0
C1120 C 0.6706 0.97063 0.51634 0.0
C1121 C 0.67967 0.98974 0.48473 0.0
C1122 C 0.64886 0.97049 0.54408 0.0
C1123 C 0.63562 0.9898 0.53923 0.0
C1124 C 0.64481 0.00922 0.50845 0.0
C1125 C 0.66663 0.00897 0.48192 0.0
C1126 C 0.63995 0.94958 0.57789 0.0
C1127 C 0.63138 0.03017 0.50184 0.0
C1128 C 0.57262 0.98351 0.5383 0.0
C1129 C 0.56681 0.9902 0.6081 0.0
C1130 C 0.59486 0.98322 0.51552 0.0
C1131 C 0.61192 0.98955 0.56375 0.0
C1132 C 0.60618 0.99617 0.63449 0.0
C1133 C 0.58379 0.99646 0.65567 0.0
C1134 C 0.60007 0.97645 0.43925 0.0
C1135 C 0.6237 1.00281 0.6882 0.0
H1136 H 0.68052 0.95575 0.5194 0.0
H1137 H 0.67325 0.02375 0.45667 0.0
H1138 H 0.63395 0.95306 0.63313 0.0
H1139 H 0.62563 0.94343 0.54638 0.0
H1140 H 0.6526 0.93629 0.5807 0.0
H1141 H 0.64117 0.04414 0.47936 0.0
H1142 H 0.61691 0.0272 0.46635 0.0
H1143 H 0.62489 0.0351 0.55527 0.0
H1144 H 0.55973 0.97874 0.50084 0.0
H1145 H 0.57961 1.00161 0.70982 0.0
H1146 H 0.61148 0.96209 0.4394 0.0
H1147 H 0.60861 0.9902 0.4109 0.0
H1148 H 0.58499 0.97195 0.40835 0.0
H1149 H 0.6333 0.98798 0.70438 0.0
H1150 H 0.61649 0.0104 0.73729 0.0
H1151 H 0.63548 0.01471 0.66376 0.0
C1152 C 0.48489 0.65469 0.47251 0.0
C1153 C 0.50255 0.66977 0.46727 0.0
C1154 C 0.48771 0.63351 0.50262 0.0
C1155 C 0.50874 0.627 0.52869 0.0
C1156 C 0.52669 0.64211 0.52375 0.0
C1157 C 0.52342 0.66323 0.49276 0.0
C1158 C 0.46813 0.61797 0.50577 0.0
C1159 C 0.54934 0.63594 0.55123 0.0
C1160 C 0.50833 0.5781 0.65994 0.0
C1161 C 0.51324 0.56019 0.61459 0.0
C1162 C 0.50763 0.59998 0.63341 0.0
C1163 C 0.51183 0.6042 0.55954 0.0
C1164 C 0.5174 0.58629 0.51399 0.0
C1165 C 0.51808 0.56461 0.54195 0.0
C1166 C 0.50171 0.61853 0.68408 0.0
C1167 C 0.52189 0.5899 0.4349 0.0
H1168 H 0.46879 0.65931 0.45167 0.0
H1169 H 0.53715 0.67473 0.48928 0.0
H1170 H 0.47176 0.60276 0.47466 0.0
H1171 H 0.46499 0.61285 0.56223 0.0
H1172 H 0.45282 0.62558 0.48385 0.0
H1173 H 0.56148 0.64962 0.54478 0.0
H1174 H 0.54838 0.63139 0.60904 0.0
H1175 H 0.55555 0.62123 0.52197 0.0
H1176 H 0.5046 0.57502 0.71612 0.0
H1177 H 0.52191 0.55104 0.5061 0.0
H1178 H 0.4855 0.62566 0.66842 0.0
H1179 H 0.51416 0.63199 0.68039 0.0
H1180 H 0.50067 0.61286 0.7409 0.0
H1181 H 0.50665 0.59593 0.40797 0.0
H1182 H 0.5274 0.57454 0.4076 0.0
H1183 H 0.53478 0.6028 0.42751 0.0
C1184 C 0.83308 0.53613 0.53623 0.0
C1185 C 0.8236 0.52054 0.48919 0.0
C1186 C 0.854 0.53266 0.56775 0.0
C1187 C 0.86587 0.51301 0.55265 0.0
C1188 C 0.85589 0.49667 0.50858 0.0
C1189 C 0.83501 0.50065 0.47724 0.0
C1190 C 0.86377 0.55041 0.61515 0.0
C1191 C 0.86762 0.47521 0.49265 0.0
C1192 C 0.92909 0.51392 0.55849 0.0
C1193 C 0.93373 0.50445 0.62589 0.0
C1194 C 0.90717 0.51705 0.53482 0.0
C1195 C 0.88925 0.51019 0.5788 0.0
C1196 C 0.8938 0.50056 0.64691 0.0
C1197 C 0.91592 0.49807 0.66994 0.0
C1198 C 0.9032 0.5278 0.46251 0.0
C1199 C 0.87533 0.49284 0.69555 0.0
H1200 H 0.82429 0.55134 0.54744 0.0
H1201 H 0.82806 0.48849 0.4409 0.0
H1202 H 0.86847 0.54333 0.66805 0.0
H1203 H 0.87907 0.55706 0.59009 0.0
H1204 H 0.85212 0.56432 0.62426 0.0
H1205 H 0.85693 0.46339 0.46287 0.0
H1206 H 0.88261 0.47856 0.45996 0.0
H1207 H 0.87313 0.46728 0.54351 0.0
H1208 H 0.94264 0.51909 0.52415 0.0
H1209 H 0.91926 0.49073 0.72205 0.0
H1210 H 0.89263 0.54265 0.46908 0.0
H1211 H 0.89422 0.51618 0.42671 0.0
H1212 H 0.91884 0.53282 0.43565 0.0
H1213 H 0.86714 0.50737 0.72013 0.0
H1214 H 0.88148 0.48201 0.73947 0.0
H1215 H 0.8626 0.48364 0.66463 0.0
loop_
_geom_bond_atom_site_label_1
_geom_bond_atom_site_label_2
_geom_bond_distance
_geom_bond_site_symmetry_2
_ccdc_geom_bond_type
C0 C1 1.384 . S
C0 H13 0.947 . S
C0 C35 1.382 . S
C1 C0 1.384 . S
C1 C2 1.378 . S
C2 C1 1.378 . S
C2 C3 1.378 . S
C2 H14 0.952 . S
C3 C2 1.378 . S
C3 H15 0.950 . S
C3 C34 1.383 . S
H4 C23 0.947 . S
H5 C24 0.946 . S
H6 C26 0.953 . S
H7 C27 0.945 . S
H8 C29 0.952 . S
H9 C30 0.949 . S
H10 C32 0.950 . S
H11 C33 0.948 . S
H12 C35 0.951 . S
H13 C0 0.947 . S
H14 C2 0.952 . S
H15 C3 0.950 . S
N16 C19 1.382 . S
N16 C21 1.363 . S
N17 C19 1.371 . S
N17 C20 1.372 . S
N18 C20 1.361 . S
N18 C21 1.377 . S
C19 N16 1.382 . S
C19 N17 1.371 . S
C19 C22 1.480 . S
C20 N17 1.372 . S
C20 N18 1.361 . S
C20 C28 1.457 . S
C21 N16 1.363 . S
C21 N18 1.377 . S
C21 C34 1.479 . S
C22 C19 1.480 . S
C22 C23 1.383 . S
C22 C27 1.385 . S
C23 H4 0.947 . S
C23 C22 1.383 . S
C23 C24 1.388 . S
C24 H5 0.946 . S
C24 C23 1.388 . S
C24 C25 1.384 . S
C25 C24 1.384 . S
C25 C26 1.377 . S
C26 H6 0.953 . S
C26 C25 1.377 . S
C26 C27 1.369 . S
C27 H7 0.945 . S
C27 C22 1.385 . S
C27 C26 1.369 . S
C28 C20 1.457 . S
C28 C29 1.372 . S
C28 C33 1.364 . S
C29 H8 0.952 . S
C29 C28 1.372 . S
C29 C30 1.389 . S
C30 H9 0.949 . S
C30 C29 1.389 . S
C30 C31 1.387 . S
C31 C30 1.387 . S
C31 C32 1.372 . S
C32 H10 0.950 . S
C32 C31 1.372 . S
C32 C33 1.379 . S
C33 H11 0.948 . S
C33 C28 1.364 . S
C33 C32 1.379 . S
C34 C3 1.383 . S
C34 C21 1.479 . S
C34 C35 1.398 . S
C35 C0 1.382 . S
C35 H12 0.951 . S
C35 C34 1.398 . S
C36 C37 1.384 . S
C36 H49 0.947 . S
C36 C71 1.382 . S
C37 C36 1.384 . S
C37 C38 1.378 1_655 S
C38 C37 1.378 1_455 S
C38 C39 1.378 . S
C38 H50 0.952 . S
C39 C38 1.378 . S
C39 H51 0.950 . S
C39 C70 1.388 . S
H40 C59 0.947 1_455 S
H41 C60 0.946 . S
H42 C62 0.953 . S
H43 C63 0.945 . S
H44 C65 0.952 . S
H45 C66 0.949 . S
H46 C68 0.950 . S
H47 C69 0.948 . S
H48 C71 0.951 . S
H49 C36 0.947 . S
H50 C38 0.952 . S
H51 C39 0.950 . S
N52 C55 1.382 . S
N52 C57 1.363 . S
N53 C55 1.374 . S
N53 C56 1.377 . S
N54 C56 1.361 . S
N54 C57 1.377 . S
C55 N52 1.382 . S
C55 N53 1.374 . S
C55 C58 1.480 . S
C56 N53 1.377 . S
C56 N54 1.361 . S
C56 C64 1.457 . S
C57 N52 1.363 . S
C57 N54 1.377 . S
C57 C70 1.483 . S
C58 C55 1.480 . S
C58 C59 1.381 1_455 S
C58 C63 1.385 . S
C59 H40 0.947 1_655 S
C59 C58 1.381 1_655 S
C59 C60 1.390 . S
C60 H41 0.946 . S
C60 C59 1.390 . S
C60 C61 1.387 . S
C61 C60 1.387 . S
C61 C62 1.374 1_655 S
C62 H42 0.953 . S
C62 C61 1.374 1_455 S
C62 C63 1.369 . S
C63 H43 0.945 . S
C63 C58 1.385 . S
C63 C62 1.369 . S
C64 C56 1.457 . S
C64 C65 1.372 1_455 S
C64 C69 1.364 . S
C65 H44 0.952 . S
C65 C64 1.372 1_655 S
C65 C66 1.389 . S
C66 H45 0.949 . S
C66 C65 1.389 . S
C66 C67 1.390 . S
C67 C66 1.390 . S
C67 C68 1.367 1_655 S
C68 H46 0.950 . S
C68 C67 1.367 1_455 S
C68 C69 1.379 . S
C69 H47 0.948 . S
C69 C64 1.364 . S
C69 C68 1.379 . S
C70 C39 1.388 . S
C70 C57 1.483 . S
C70 C71 1.394 1_455 S
C71 C36 1.382 . S
C71 H48 0.951 . S
C71 C70 1.394 1_655 S
C72 C73 1.384 . S
C72 H85 0.947 . S
C72 C107 1.382 . S
C73 C72 1.384 . S
C73 C74 1.378 1_565 S
C74 C73 1.378 1_545 S
C74 C75 1.378 . S
C74 H86 0.952 . S
C75 C74 1.378 . S
C75 H87 0.950 . S
C75 C106 1.383 . S
H76 C95 0.946 . S
H77 C96 0.946 . S
H78 C98 0.953 . S
H79 C99 0.945 . S
H80 C101 0.952 . S
H81 C102 0.949 . S
H82 C104 0.950 . S
H83 C105 0.948 . S
H84 C107 0.951 . S
H85 C72 0.947 . S
H86 C74 0.952 . S
H87 C75 0.950 . S
N88 C91 1.382 . S
N88 C93 1.363 . S
N89 C91 1.371 . S
N89 C92 1.372 . S
N90 C92 1.361 . S
N90 C93 1.377 . S
C91 N88 1.382 . S
C91 N89 1.371 . S
C91 C94 1.480 . S
C92 N89 1.372 . S
C92 N90 1.361 . S
C92 C100 1.457 . S
C93 N88 1.363 . S
C93 N90 1.377 . S
C93 C106 1.480 . S
C94 C91 1.480 . S
C94 C95 1.379 1_545 S
C94 C99 1.385 . S
C95 H76 0.946 . S
C95 C94 1.379 1_565 S
C95 C96 1.395 . S
C96 H77 0.946 . S
C96 C95 1.395 . S
C96 C97 1.384 . S
C97 C96 1.384 . S
C97 C98 1.377 1_565 S
C98 H78 0.953 . S
C98 C97 1.377 1_545 S
C98 C99 1.369 . S
C99 H79 0.945 . S
C99 C94 1.385 . S
C99 C98 1.369 . S
C100 C92 1.457 . S
C100 C101 1.372 1_545 S
C100 C105 1.364 . S
C101 H80 0.952 . S
C101 C100 1.372 1_565 S
C101 C102 1.389 . S
C102 H81 0.949 . S
C102 C101 1.389 . S
C102 C103 1.387 . S
C103 C102 1.387 . S
C103 C104 1.372 1_565 S
C104 H82 0.950 . S
C104 C103 1.372 1_545 S
C104 C105 1.379 . S
C105 H83 0.948 . S
C105 C100 1.364 . S
C105 C104 1.379 . S
C106 C75 1.383 . S
C106 C93 1.480 . S
C106 C107 1.398 1_545 S
C107 C72 1.382 . S
C107 H84 0.951 . S
C107 C106 1.398 1_565 S
C108 C109 1.384 . S
C108 H121 0.947 . S
C108 C143 1.382 . S
C109 C108 1.384 . S
C109 C110 1.378 . S
C110 C109 1.378 . S
C110 C111 1.378 . S
C110 H122 0.952 . S
C111 C110 1.378 . S
C111 H123 0.950 . S
C111 C142 1.383 . S
H112 C131 0.947 . S
H113 C132 0.946 . S
H114 C134 0.953 . S
H115 C135 0.945 . S
H116 C137 0.952 . S
H117 C138 0.949 . S
H118 C140 0.950 . S
H119 C141 0.948 . S
H120 C143 0.951 . S
H121 C108 0.947 . S
H122 C110 0.952 . S
H123 C111 0.950 . S
N124 C127 1.382 . S
N124 C129 1.363 . S
N125 C127 1.371 . S
N125 C128 1.372 . S
N126 C128 1.361 . S
N126 C129 1.377 . S
C127 N124 1.382 . S
C127 N125 1.371 . S
C127 C130 1.480 . S
C128 N125 1.372 . S
C128 N126 1.361 . S
C128 C136 1.457 . S
C129 N124 1.363 . S
C129 N126 1.377 . S
C129 C142 1.479 . S
C130 C127 1.480 . S
C130 C131 1.383 . S
C130 C135 1.385 . S
C131 H112 0.947 . S
C131 C130 1.383 . S
C131 C132 1.388 . S
C132 H113 0.946 . S
C132 C131 1.388 . S
C132 C133 1.384 . S
C133 C132 1.384 . S
C133 C134 1.377 . S
C134 H114 0.953 . S
C134 C133 1.377 . S
C134 C135 1.369 . S
C135 H115 0.945 . S
C135 C130 1.385 . S
C135 C134 1.369 . S
C136 C128 1.457 . S
C136 C137 1.372 . S
C136 C141 1.364 . S
C137 H116 0.952 . S
C137 C136 1.372 . S
C137 C138 1.389 . S
C138 H117 0.949 . S
C138 C137 1.389 . S
C138 C139 1.387 . S
C139 C138 1.387 . S
C139 C140 1.372 . S
C140 H118 0.950 . S
C140 C139 1.372 . S
C140 C141 1.379 . S
C141 H119 0.948 . S
C141 C136 1.364 . S
C141 C140 1.379 . S
C142 C111 1.383 . S
C142 C129 1.479 . S
C142 C143 1.398 . S
C143 C108 1.382 . S
C143 H120 0.951 . S
C143 C142 1.398 . S
C144 C145 1.384 . S
C144 H157 0.947 . S
C144 C179 1.382 . S
C145 C144 1.384 . S
C145 C146 1.378 . S
C146 C145 1.378 . S
C146 C147 1.378 . S
C146 H158 0.952 . S
C147 C146 1.378 . S
C147 H159 0.950 . S
C147 C178 1.383 . S
H148 C167 0.947 1_556 S
H149 C168 0.946 1_556 S
H150 C170 0.953 . S
H151 C171 0.945 . S
H152 C173 0.952 . S
H153 C174 0.949 . S
H154 C176 0.950 . S
H155 C177 0.948 . S
H156 C179 0.951 . S
H157 C144 0.947 . S
H158 C146 0.952 . S
H159 C147 0.950 . S
N160 C163 1.382 1_556 S
N160 C165 1.363 . S
N161 C163 1.371 . S
N161 C164 1.372 . S
N162 C164 1.361 . S
N162 C165 1.377 1_554 S
C163 N160 1.382 1_554 S
C163 N161 1.371 . S
C163 C166 1.480 . S
C164 N161 1.372 . S
C164 N162 1.361 . S
C164 C172 1.457 . S
C165 N160 1.363 . S
C165 N162 1.377 1_556 S
C165 C178 1.479 . S
C166 C163 1.480 . S
C166 C167 1.383 . S
C166 C171 1.385 . S
C167 H148 0.947 1_554 S
C167 C166 1.383 . S
C167 C168 1.388 . S
C168 H149 0.946 1_554 S
C168 C167 1.388 . S
C168 C169 1.384 . S
C169 C168 1.384 . S
C169 C170 1.377 . S
C170 H150 0.953 . S
C170 C169 1.377 . S
C170 C171 1.369 . S
C171 H151 0.945 . S
C171 C166 1.385 . S
C171 C170 1.369 . S
C172 C164 1.457 . S
C172 C173 1.372 . S
C172 C177 1.364 . S
C173 H152 0.952 . S
C173 C172 1.372 . S
C173 C174 1.389 . S
C174 H153 0.949 . S
C174 C173 1.389 . S
C174 C175 1.387 . S
C175 C174 1.387 . S
C175 C176 1.372 . S
C176 H154 0.950 . S
C176 C175 1.372 . S
C176 C177 1.379 . S
C177 H155 0.948 . S
C177 C172 1.364 . S
C177 C176 1.379 . S
C178 C147 1.383 . S
C178 C165 1.479 . S
C178 C179 1.398 . S
C179 C144 1.382 . S
C179 H156 0.951 . S
C179 C178 1.398 . S
C180 C181 1.384 . S
C180 H193 0.947 . S
C180 C215 1.382 . S
C181 C180 1.384 . S
C181 C182 1.378 . S
C182 C181 1.378 . S
C182 C183 1.378 . S
C182 H194 0.952 . S
C183 C182 1.378 . S
C183 H195 0.950 . S
C183 C214 1.383 . S
H184 C203 0.947 1_556 S
H185 C204 0.936 1_656 S
H186 C206 0.953 . S
H187 C207 0.945 . S
H188 C209 0.961 . S
H189 C210 0.947 1_655 S
H190 C212 0.950 . S
H191 C213 0.948 . S
H192 C215 0.951 . S
H193 C180 0.947 . S
H194 C182 0.952 . S
H195 C183 0.950 . S
N196 C199 1.382 1_556 S
N196 C201 1.363 . S
N197 C199 1.371 . S
N197 C200 1.372 . S
N198 C200 1.361 . S
N198 C201 1.377 1_554 S
C199 N196 1.382 1_554 S
C199 N197 1.371 . S
C199 C202 1.480 . S
C200 N197 1.372 . S
C200 N198 1.361 . S
C200 C208 1.457 . S
C201 N196 1.363 . S
C201 N198 1.377 1_556 S
C201 C214 1.479 . S
C202 C199 1.480 . S
C202 C203 1.383 . S
C202 C207 1.385 . S
C203 H184 0.947 1_554 S
C203 C202 1.383 . S
C203 C204 1.388 . S
C204 H185 0.936 1_454 S
C204 C203 1.388 . S
C204 C205 1.384 . S
C205 C204 1.384 . S
C205 C206 1.377 . S
C206 H186 0.953 . S
C206 C205 1.377 . S
C206 C207 1.369 . S
C207 H187 0.945 . S
C207 C202 1.385 . S
C207 C206 1.369 . S
C208 C200 1.457 . S
C208 C209 1.372 . S
C208 C213 1.364 . S
C209 H188 0.961 . S
C209 C208 1.372 . S
C209 C210 1.389 . S
C210 H189 0.947 1_455 S
C210 C209 1.389 . S
C210 C211 1.387 . S
C211 C210 1.387 . S
C211 C212 1.372 . S
C212 H190 0.950 . S
C212 C211 1.372 . S
C212 C213 1.379 . S
C213 H191 0.948 . S
C213 C208 1.364 . S
C213 C212 1.379 . S
C214 C183 1.383 . S
C214 C201 1.479 . S
C214 C215 1.398 . S
C215 C180 1.382 . S
C215 H192 0.951 . S
C215 C214 1.398 . S
C216 C217 1.384 . S
C216 H229 0.947 . S
C216 C251 1.382 . S
C217 C216 1.384 . S
C217 C218 1.378 . S
C218 C217 1.378 . S
C218 C219 1.378 . S
C218 H230 0.952 . S
C219 C218 1.378 . S
C219 H231 0.950 . S
C219 C250 1.383 . S
H220 C239 0.947 1_556 S
H221 C240 0.946 1_556 S
H222 C242 0.953 . S
H223 C243 0.945 . S
H224 C245 0.952 . S
H225 C246 0.949 . S
H226 C248 0.950 . S
H227 C249 0.948 . S
H228 C251 0.951 . S
H229 C216 0.947 . S
H230 C218 0.952 . S
H231 C219 0.950 . S
N232 C235 1.382 1_556 S
N232 C237 1.363 . S
N233 C235 1.371 . S
N233 C236 1.372 . S
N234 C236 1.361 . S
N234 C237 1.377 1_554 S
C235 N232 1.382 1_554 S
C235 N233 1.371 . S
C235 C238 1.480 . S
C236 N233 1.372 . S
C236 N234 1.361 . S
C236 C244 1.457 . S
C237 N232 1.363 . S
C237 N234 1.377 1_556 S
C237 C250 1.479 . S
C238 C235 1.480 . S
C238 C239 1.383 . S
C238 C243 1.385 . S
C239 H220 0.947 1_554 S
C239 C238 1.383 . S
C239 C240 1.388 . S
C240 H221 0.946 1_554 S
C240 C239 1.388 . S
C240 C241 1.384 . S
C241 C240 1.384 . S
C241 C242 1.377 . S
C242 H222 0.953 . S
C242 C241 1.377 . S
C242 C243 1.369 . S
C243 H223 0.945 . S
C243 C238 1.385 . S
C243 C242 1.369 . S
C244 C236 1.457 . S
C244 C245 1.372 . S
C244 C249 1.364 . S
C245 H224 0.952 . S
C245 C244 1.372 . S
C245 C246 1.389 . S
C246 H225 0.949 . S
C246 C245 1.389 . S
C246 C247 1.387 . S
C247 C246 1.387 . S
C247 C248 1.372 . S
C248 H226 0.950 . S
C248 C247 1.372 . S
C248 C249 1.379 . S
C249 H227 0.948 . S
C249 C244 1.364 . S
C249 C248 1.379 . S
C250 C219 1.383 . S
C250 C237 1.479 . S
C250 C251 1.398 . S
C251 C216 1.382 . S
C251 H228 0.951 . S
C251 C250 1.398 . S
C252 C253 1.384 . S
C252 H265 0.947 . S
C252 C287 1.382 . S
C253 C252 1.384 . S
C253 C254 1.378 . S
C254 C253 1.378 . S
C254 C255 1.378 . S
C254 H266 0.952 . S
C255 C254 1.378 . S
C255 H267 0.950 . S
C255 C286 1.383 . S
H256 C275 0.947 . S
H257 C276 0.946 . S
H258 C278 0.953 1_556 S
H259 C279 0.945 1_556 S
H260 C281 0.952 . S
H261 C282 0.949 . S
H262 C284 0.950 . S
H263 C285 0.948 . S
H264 C287 0.951 . S
H265 C252 0.947 . S
H266 C254 0.952 . S
H267 C255 0.950 . S
N268 C271 1.382 . S
N268 C273 1.363 . S
N269 C271 1.371 1_556 S
N269 C272 1.372 . S
N270 C272 1.361 1_554 S
N270 C273 1.377 . S
C271 N268 1.382 . S
C271 N269 1.371 1_554 S
C271 C274 1.480 . S
C272 N269 1.372 . S
C272 N270 1.361 1_556 S
C272 C280 1.457 . S
C273 N268 1.363 . S
C273 N270 1.377 . S
C273 C286 1.479 . S
C274 C271 1.480 . S
C274 C275 1.383 . S
C274 C279 1.385 . S
C275 H256 0.947 . S
C275 C274 1.383 . S
C275 C276 1.388 . S
C276 H257 0.946 . S
C276 C275 1.388 . S
C276 C277 1.384 . S
C277 C276 1.384 . S
C277 C278 1.377 . S
C278 H258 0.953 1_554 S
C278 C277 1.377 . S
C278 C279 1.369 . S
C279 H259 0.945 1_554 S
C279 C274 1.385 . S
C279 C278 1.369 . S
C280 C272 1.457 . S
C280 C281 1.372 . S
C280 C285 1.364 . S
C281 H260 0.952 . S
C281 C280 1.372 . S
C281 C282 1.389 . S
C282 H261 0.949 . S
C282 C281 1.389 . S
C282 C283 1.387 . S
C283 C282 1.387 . S
C283 C284 1.372 . S
C284 H262 0.950 . S
C284 C283 1.372 . S
C284 C285 1.379 . S
C285 H263 0.948 . S
C285 C280 1.364 . S
C285 C284 1.379 . S
C286 C255 1.383 . S
C286 C273 1.479 . S
C286 C287 1.398 . S
C287 C252 1.382 . S
C287 H264 0.951 . S
C287 C286 1.398 . S
Gd288 C291 2.818 . S
Gd288 O308 2.377 . S
Gd288 O310 2.448 . S
Gd288 O311 2.506 . S
Gd288 O312 2.435 . S
Gd288 O313 2.717 1_565 S
Gd288 O315 2.395 1_565 S
Gd288 O319 2.327 1_455 S
Gd289 C300 2.818 . S
Gd289 O309 2.395 1_545 S
Gd289 O313 2.327 1_655 S
Gd289 O314 2.377 . S
Gd289 O316 2.448 . S
Gd289 O317 2.506 . S
Gd289 O318 2.435 . S
Gd289 O319 2.717 1_545 S
C290 O308 1.240 1_655 S
C290 O309 1.240 . S
C291 Gd288 2.818 . S
C291 C292 1.510 . S
C291 O310 1.249 . S
C291 O311 1.252 . S
C292 C291 1.510 . S
C292 C293 1.404 . S
C292 C294 1.352 . S
C293 C292 1.404 . S
C293 C297 1.389 . S
C293 H320 0.930 . S
C294 C292 1.352 . S
C294 C296 1.374 . S
C294 H321 0.931 1_455 S
C295 C296 1.359 . S
C295 C297 1.364 . S
C296 C294 1.374 . S
C296 C295 1.359 . S
C296 H322 0.931 1_455 S
C297 C293 1.389 . S
C297 C295 1.364 . S
C297 H323 0.931 . S
C298 O312 1.256 1_545 S
C298 O313 1.257 . S
C299 O314 1.240 1_455 S
C299 O315 1.240 . S
C300 Gd289 2.818 . S
C300 C301 1.510 . S
C300 O316 1.249 . S
C300 O317 1.252 . S
C301 C300 1.510 . S
C301 C302 1.404 . S
C301 C303 1.352 . S
C302 C301 1.404 . S
C302 C306 1.389 . S
C302 H324 0.930 . S
C303 C301 1.352 . S
C303 C305 1.374 . S
C303 H325 0.931 1_655 S
C304 C305 1.359 . S
C304 C306 1.364 . S
C305 C303 1.374 . S
C305 C304 1.359 . S
C305 H326 0.931 1_655 S
C306 C302 1.389 . S
C306 C304 1.364 . S
C306 H327 0.931 . S
C307 O318 1.256 . S
C307 O319 1.257 1_545 S
O308 Gd288 2.377 . S
O308 C290 1.240 1_455 S
O309 Gd289 2.395 1_565 S
O309 C290 1.240 . S
O310 Gd288 2.448 . S
O310 C291 1.249 . S
O311 Gd288 2.506 . S
O311 C291 1.252 . S
O312 Gd288 2.435 . S
O312 C298 1.256 1_565 S
O313 Gd288 2.717 1_545 S
O313 Gd289 2.327 1_455 S
O313 C298 1.257 . S
O314 Gd289 2.377 . S
O314 C299 1.240 1_655 S
O315 Gd288 2.395 1_545 S
O315 C299 1.240 . S
O316 Gd289 2.448 . S
O316 C300 1.249 . S
O317 Gd289 2.506 . S
O317 C300 1.252 . S
O318 Gd289 2.435 . S
O318 C307 1.256 . S
O319 Gd288 2.327 1_655 S
O319 Gd289 2.717 1_565 S
O319 C307 1.257 1_565 S
H320 C293 0.930 . S
H321 C294 0.931 1_655 S
H322 C296 0.931 1_655 S
H323 C297 0.931 . S
H324 C302 0.930 . S
H325 C303 0.931 1_455 S
H326 C305 0.931 1_455 S
H327 C306 0.931 . S
Gd328 C331 2.818 . S
Gd328 O348 2.377 . S
Gd328 O350 2.448 . S
Gd328 O351 2.506 . S
Gd328 O352 2.435 . S
Gd328 O353 2.717 . S
Gd328 O355 2.395 . S
Gd328 O359 2.327 1_545 S
Gd329 C340 2.818 . S
Gd329 O349 2.395 . S
Gd329 O353 2.327 1_565 S
Gd329 O354 2.377 . S
Gd329 O356 2.448 . S
Gd329 O357 2.506 . S
Gd329 O358 2.435 . S
Gd329 O359 2.717 . S
C330 O348 1.240 1_565 S
C330 O349 1.240 . S
C331 Gd328 2.818 . S
C331 C332 1.510 . S
C331 O350 1.249 . S
C331 O351 1.252 . S
C332 C331 1.510 . S
C332 C333 1.404 . S
C332 C334 1.352 . S
C333 C332 1.404 . S
C333 C337 1.389 . S
C333 H360 0.930 . S
C334 C332 1.352 . S
C334 C336 1.374 . S
C334 H361 0.931 1_545 S
C335 C336 1.359 . S
C335 C337 1.364 . S
C336 C334 1.374 . S
C336 C335 1.359 . S
C336 H362 0.931 1_545 S
C337 C333 1.389 . S
C337 C335 1.364 . S
C337 H363 0.931 . S
C338 O352 1.256 . S
C338 O353 1.257 . S
C339 O354 1.240 1_545 S
C339 O355 1.240 . S
C340 Gd329 2.818 . S
C340 C341 1.510 . S
C340 O356 1.249 . S
C340 O357 1.252 . S
C341 C340 1.510 . S
C341 C342 1.404 . S
C341 C343 1.352 . S
C342 C341 1.404 . S
C342 C346 1.389 . S
C342 H364 0.930 . S
C343 C341 1.352 . S
C343 C345 1.374 . S
C343 H365 0.931 1_565 S
C344 C345 1.359 . S
C344 C346 1.364 . S
C345 C343 1.374 . S
C345 C344 1.359 . S
C345 H366 0.931 1_565 S
C346 C342 1.389 . S
C346 C344 1.364 . S
C346 H367 0.931 . S
C347 O358 1.256 . S
C347 O359 1.257 . S
O348 Gd328 2.377 . S
O348 C330 1.240 1_545 S
O349 Gd329 2.395 . S
O349 C330 1.240 . S
O350 Gd328 2.448 . S
O350 C331 1.249 . S
O351 Gd328 2.506 . S
O351 C331 1.252 . S
O352 Gd328 2.435 . S
O352 C338 1.256 . S
O353 Gd328 2.717 . S
O353 Gd329 2.327 1_545 S
O353 C338 1.257 . S
O354 Gd329 2.377 . S
O354 C339 1.240 1_565 S
O355 Gd328 2.395 . S
O355 C339 1.240 . S
O356 Gd329 2.448 . S
O356 C340 1.249 . S
O357 Gd329 2.506 . S
O357 C340 1.252 . S
O358 Gd329 2.435 . S
O358 C347 1.256 . S
O359 Gd328 2.327 1_565 S
O359 Gd329 2.717 . S
O359 C347 1.257 . S
H360 C333 0.930 . S
H361 C334 0.931 1_565 S
H362 C336 0.931 1_565 S
H363 C337 0.931 . S
H364 C342 0.930 . S
H365 C343 0.931 1_545 S
H366 C345 0.931 1_545 S
H367 C346 0.931 . S
Gd368 C371 2.818 . S
Gd368 O388 2.377 . S
Gd368 O390 2.448 . S
Gd368 O391 2.506 . S
Gd368 O392 2.435 . S
Gd368 O393 2.717 . S
Gd368 O395 2.395 . S
Gd368 O399 2.327 . S
Gd369 C380 2.818 . S
Gd369 O389 2.395 . S
Gd369 O393 2.327 . S
Gd369 O394 2.377 . S
Gd369 O396 2.448 . S
Gd369 O397 2.506 . S
Gd369 O398 2.435 . S
Gd369 O399 2.717 . S
C370 O388 1.240 . S
C370 O389 1.240 . S
C371 Gd368 2.818 . S
C371 C372 1.510 . S
C371 O390 1.249 . S
C371 O391 1.252 . S
C372 C371 1.510 . S
C372 C373 1.404 . S
C372 C374 1.352 . S
C373 C372 1.404 . S
C373 C377 1.389 . S
C373 H400 0.930 . S
C374 C372 1.352 . S
C374 C376 1.374 . S
C374 H401 0.931 . S
C375 C376 1.359 . S
C375 C377 1.364 . S
C376 C374 1.374 . S
C376 C375 1.359 . S
C376 H402 0.931 . S
C377 C373 1.389 . S
C377 C375 1.364 . S
C377 H403 0.931 . S
C378 O392 1.256 . S
C378 O393 1.257 . S
C379 O394 1.240 . S
C379 O395 1.240 . S
C380 Gd369 2.818 . S
C380 C381 1.510 . S
C380 O396 1.249 . S
C380 O397 1.252 . S
C381 C380 1.510 . S
C381 C382 1.404 . S
C381 C383 1.352 . S
C382 C381 1.404 . S
C382 C386 1.389 . S
C382 H404 0.930 . S
C383 C381 1.352 . S
C383 C385 1.374 . S
C383 H405 0.931 . S
C384 C385 1.359 . S
C384 C386 1.364 . S
C385 C383 1.374 . S
C385 C384 1.359 . S
C385 H406 0.931 . S
C386 C382 1.389 . S
C386 C384 1.364 . S
C386 H407 0.931 . S
C387 O398 1.256 . S
C387 O399 1.257 . S
O388 Gd368 2.377 . S
O388 C370 1.240 . S
O389 Gd369 2.395 . S
O389 C370 1.240 . S
O390 Gd368 2.448 . S
O390 C371 1.249 . S
O391 Gd368 2.506 . S
O391 C371 1.252 . S
O392 Gd368 2.435 . S
O392 C378 1.256 . S
O393 Gd368 2.717 . S
O393 Gd369 2.327 . S
O393 C378 1.257 . S
O394 Gd369 2.377 . S
O394 C379 1.240 . S
O395 Gd368 2.395 . S
O395 C379 1.240 . S
O396 Gd369 2.448 . S
O396 C380 1.249 . S
O397 Gd369 2.506 . S
O397 C380 1.252 . S
O398 Gd369 2.435 . S
O398 C387 1.256 . S
O399 Gd368 2.327 . S
O399 Gd369 2.717 . S
O399 C387 1.257 . S
H400 C373 0.930 . S
H401 C374 0.931 . S
H402 C376 0.931 . S
H403 C377 0.931 . S
H404 C382 0.930 . S
H405 C383 0.931 . S
H406 C385 0.931 . S
H407 C386 0.931 . S
Gd408 C411 2.818 . S
Gd408 O428 2.377 . S
Gd408 O430 2.448 . S
Gd408 O431 2.506 . S
Gd408 O432 2.435 . S
Gd408 O433 2.717 1_655 S
Gd408 O435 2.395 1_655 S
Gd408 O439 2.327 . S
Gd409 C420 2.818 . S
Gd409 O429 2.395 1_455 S
Gd409 O433 2.327 . S
Gd409 O434 2.377 . S
Gd409 O436 2.448 . S
Gd409 O437 2.506 . S
Gd409 O438 2.435 . S
Gd409 O439 2.717 1_455 S
C410 O428 1.240 . S
C410 O429 1.240 . S
C411 Gd408 2.818 . S
C411 C412 1.510 . S
C411 O430 1.249 . S
C411 O431 1.252 . S
C412 C411 1.510 . S
C412 C413 1.404 . S
C412 C414 1.352 . S
C413 C412 1.404 . S
C413 C417 1.389 . S
C413 H440 0.930 . S
C414 C412 1.352 . S
C414 C416 1.374 . S
C414 H441 0.931 . S
C415 C416 1.359 . S
C415 C417 1.364 . S
C416 C414 1.374 . S
C416 C415 1.359 . S
C416 H442 0.931 . S
C417 C413 1.389 . S
C417 C415 1.364 . S
C417 H443 0.931 . S
C418 O432 1.276 . S
C418 O433 1.247 1_655 S
C419 O434 1.240 . S
C419 O435 1.240 . S
C420 Gd409 2.818 . S
C420 C421 1.510 . S
C420 O436 1.249 . S
C420 O437 1.252 . S
C421 C420 1.510 . S
C421 C422 1.404 . S
C421 C423 1.352 . S
C422 C421 1.404 . S
C422 C426 1.389 . S
C422 H444 0.930 . S
C423 C421 1.352 . S
C423 C425 1.374 . S
C423 H445 0.931 . S
C424 C425 1.359 . S
C424 C426 1.364 . S
C425 C423 1.374 . S
C425 C424 1.359 . S
C425 H446 0.931 . S
C426 C422 1.389 . S
C426 C424 1.364 . S
C426 H447 0.931 . S
C427 O438 1.256 . S
C427 O439 1.257 1_455 S
O428 Gd408 2.377 . S
O428 C410 1.240 . S
O429 Gd409 2.395 1_655 S
O429 C410 1.240 . S
O430 Gd408 2.448 . S
O430 C411 1.249 . S
O431 Gd408 2.506 . S
O431 C411 1.252 . S
O432 Gd408 2.435 . S
O432 C418 1.276 . S
O433 Gd408 2.717 1_455 S
O433 Gd409 2.327 . S
O433 C418 1.247 1_455 S
O434 Gd409 2.377 . S
O434 C419 1.240 . S
O435 Gd408 2.395 1_455 S
O435 C419 1.240 . S
O436 Gd409 2.448 . S
O436 C420 1.249 . S
O437 Gd409 2.506 . S
O437 C420 1.252 . S
O438 Gd409 2.435 . S
O438 C427 1.256 . S
O439 Gd408 2.327 . S
O439 Gd409 2.717 1_655 S
O439 C427 1.257 1_655 S
H440 C413 0.930 . S
H441 C414 0.931 . S
H442 C416 0.931 . S
H443 C417 0.931 . S
H444 C422 0.930 . S
H445 C423 0.931 . S
H446 C425 0.931 . S
H447 C426 0.931 . S
C448 C449 1.391 1_565 S
C448 C450 1.394 . S
C448 H464 0.931 . S
C449 C448 1.391 1_545 S
C449 C453 1.376 . S
C450 C448 1.394 . S
C450 C451 1.369 1_565 S
C450 C454 1.531 . S
C451 C450 1.369 1_545 S
C451 C452 1.410 . S
C451 C459 1.503 . S
C452 C451 1.410 . S
C452 C453 1.392 . S
C452 C455 1.511 . S
C453 C449 1.376 . S
C453 C452 1.392 . S
C453 H465 0.929 . S
C454 C450 1.531 . S
C454 H466 0.960 . S
C454 H467 0.962 . S
C454 H468 0.960 . S
C455 C452 1.511 . S
C455 H469 0.961 . S
C455 H470 0.961 . S
C455 H471 0.961 . S
C456 C457 1.370 . S
C456 C458 1.363 . S
C456 H472 0.931 . S
C457 C456 1.370 . S
C457 C461 1.408 1_545 S
C458 C456 1.363 . S
C458 C459 1.370 . S
C458 C462 1.524 . S
C459 C451 1.503 . S
C459 C458 1.370 . S
C459 C460 1.403 1_545 S
C460 C459 1.403 1_565 S
C460 C461 1.404 . S
C460 C463 1.539 . S
C461 C457 1.408 1_565 S
C461 C460 1.404 . S
C461 H473 0.930 . S
C462 C458 1.524 . S
C462 H474 0.956 . S
C462 H475 0.961 . S
C462 H476 0.961 . S
C463 C460 1.539 . S
C463 H477 0.958 . S
C463 H478 0.961 . S
C463 H479 0.960 . S
H464 C448 0.931 . S
H465 C453 0.929 . S
H466 C454 0.960 . S
H467 C454 0.962 . S
H468 C454 0.960 . S
H469 C455 0.961 . S
H470 C455 0.961 . S
H471 C455 0.961 . S
H472 C456 0.931 . S
H473 C461 0.930 . S
H474 C462 0.956 . S
H475 C462 0.961 . S
H476 C462 0.961 . S
H477 C463 0.958 . S
H478 C463 0.961 . S
H479 C463 0.960 . S
C480 C481 1.391 . S
C480 C482 1.394 . S
C480 H496 0.931 . S
C481 C480 1.391 . S
C481 C485 1.376 . S
C482 C480 1.394 . S
C482 C483 1.369 . S
C482 C486 1.531 . S
C483 C482 1.369 . S
C483 C484 1.410 . S
C483 C491 1.503 . S
C484 C483 1.410 . S
C484 C485 1.392 . S
C484 C487 1.511 . S
C485 C481 1.376 . S
C485 C484 1.392 . S
C485 H497 0.929 . S
C486 C482 1.531 . S
C486 H498 0.960 . S
C486 H499 0.962 . S
C486 H500 0.960 . S
C487 C484 1.511 . S
C487 H501 0.961 . S
C487 H502 0.961 . S
C487 H503 0.961 . S
C488 C489 1.370 . S
C488 C490 1.363 . S
C488 H504 0.931 . S
C489 C488 1.370 . S
C489 C493 1.408 . S
C490 C488 1.363 . S
C490 C491 1.370 . S
C490 C494 1.524 . S
C491 C483 1.503 . S
C491 C490 1.370 . S
C491 C492 1.403 . S
C492 C491 1.403 . S
C492 C493 1.404 . S
C492 C495 1.539 . S
C493 C489 1.408 . S
C493 C492 1.404 . S
C493 H505 0.930 . S
C494 C490 1.524 . S
C494 H506 0.956 . S
C494 H507 0.961 . S
C494 H508 0.961 . S
C495 C492 1.539 . S
C495 H509 0.958 . S
C495 H510 0.961 . S
C495 H511 0.960 . S
H496 C480 0.931 . S
H497 C485 0.929 . S
H498 C486 0.960 . S
H499 C486 0.962 . S
H500 C486 0.960 . S
H501 C487 0.961 . S
H502 C487 0.961 . S
H503 C487 0.961 . S
H504 C488 0.931 . S
H505 C493 0.930 . S
H506 C494 0.956 . S
H507 C494 0.961 . S
H508 C494 0.961 . S
H509 C495 0.958 . S
H510 C495 0.961 . S
H511 C495 0.960 . S
C512 C513 1.391 . S
C512 C514 1.394 . S
C512 H528 0.931 . S
C513 C512 1.391 . S
C513 C517 1.376 . S
C514 C512 1.394 . S
C514 C515 1.369 . S
C514 C518 1.531 . S
C515 C514 1.369 . S
C515 C516 1.410 . S
C515 C523 1.503 . S
C516 C515 1.410 . S
C516 C517 1.392 . S
C516 C519 1.511 . S
C517 C513 1.376 . S
C517 C516 1.392 . S
C517 H529 0.929 . S
C518 C514 1.531 . S
C518 H530 0.960 . S
C518 H531 0.962 . S
C518 H532 0.960 . S
C519 C516 1.511 . S
C519 H533 0.961 . S
C519 H534 0.961 . S
C519 H535 0.961 . S
C520 C521 1.370 . S
C520 C522 1.363 . S
C520 H536 0.931 . S
C521 C520 1.370 . S
C521 C525 1.408 . S
C522 C520 1.363 . S
C522 C523 1.370 . S
C522 C526 1.524 . S
C523 C515 1.503 . S
C523 C522 1.370 . S
C523 C524 1.403 . S
C524 C523 1.403 . S
C524 C525 1.404 . S
C524 C527 1.539 . S
C525 C521 1.408 . S
C525 C524 1.404 . S
C525 H537 0.930 . S
C526 C522 1.524 . S
C526 H538 0.956 . S
C526 H539 0.961 . S
C526 H540 0.961 . S
C527 C524 1.539 . S
C527 H541 0.958 . S
C527 H542 0.961 . S
C527 H543 0.960 . S
H528 C512 0.931 . S
H529 C517 0.929 . S
H530 C518 0.960 . S
H531 C518 0.962 . S
H532 C518 0.960 . S
H533 C519 0.961 . S
H534 C519 0.961 . S
H535 C519 0.961 . S
H536 C520 0.931 . S
H537 C525 0.930 . S
H538 C526 0.956 . S
H539 C526 0.961 . S
H540 C526 0.961 . S
H541 C527 0.958 . S
H542 C527 0.961 . S
H543 C527 0.960 . S
C544 C545 1.391 . S
C544 C546 1.394 . S
C544 H560 0.931 . S
C545 C544 1.391 . S
C545 C549 1.376 . S
C546 C544 1.394 . S
C546 C547 1.369 . S
C546 C550 1.531 . S
C547 C546 1.369 . S
C547 C548 1.410 . S
C547 C555 1.503 . S
C548 C547 1.410 . S
C548 C549 1.392 . S
C548 C551 1.511 . S
C549 C545 1.376 . S
C549 C548 1.392 . S
C549 H561 0.929 . S
C550 C546 1.531 . S
C550 H562 0.960 . S
C550 H563 0.962 1_455 S
C550 H564 0.960 . S
C551 C548 1.511 . S
C551 H565 0.961 . S
C551 H566 0.961 . S
C551 H567 0.961 . S
C552 C553 1.370 1_655 S
C552 C554 1.363 . S
C552 H568 0.931 . S
C553 C552 1.370 1_455 S
C553 C557 1.408 . S
C554 C552 1.363 . S
C554 C555 1.370 1_655 S
C554 C558 1.524 . S
C555 C547 1.503 . S
C555 C554 1.370 1_455 S
C555 C556 1.403 . S
C556 C555 1.403 . S
C556 C557 1.404 . S
C556 C559 1.539 . S
C557 C553 1.408 . S
C557 C556 1.404 . S
C557 H569 0.930 . S
C558 C554 1.524 . S
C558 H570 0.956 . S
C558 H571 0.961 . S
C558 H572 0.961 . S
C559 C556 1.539 . S
C559 H573 0.958 . S
C559 H574 0.961 . S
C559 H575 0.960 . S
H560 C544 0.931 . S
H561 C549 0.929 . S
H562 C550 0.960 . S
H563 C550 0.962 1_655 S
H564 C550 0.960 . S
H565 C551 0.961 . S
H566 C551 0.961 . S
H567 C551 0.961 . S
H568 C552 0.931 . S
H569 C557 0.930 . S
H570 C558 0.956 . S
H571 C558 0.961 . S
H572 C558 0.961 . S
H573 C559 0.958 . S
H574 C559 0.961 . S
H575 C559 0.960 . S
C576 C577 1.391 1_545 S
C576 C578 1.394 . S
C576 H592 0.931 . S
C577 C576 1.391 1_565 S
C577 C581 1.376 . S
C578 C576 1.394 . S
C578 C579 1.369 1_545 S
C578 C582 1.531 . S
C579 C578 1.369 1_565 S
C579 C580 1.410 . S
C579 C587 1.503 1_554 S
C580 C579 1.410 . S
C580 C581 1.392 . S
C580 C583 1.511 . S
C581 C577 1.376 . S
C581 C580 1.392 . S
C581 H593 0.929 . S
C582 C578 1.531 . S
C582 H594 0.960 . S
C582 H595 0.962 . S
C582 H596 0.960 . S
C583 C580 1.511 . S
C583 H597 0.961 . S
C583 H598 0.961 . S
C583 H599 0.961 . S
C584 C585 1.370 1_545 S
C584 C586 1.363 . S
C584 H600 0.931 . S
C585 C584 1.370 1_565 S
C585 C589 1.408 . S
C586 C584 1.363 . S
C586 C587 1.370 1_545 S
C586 C590 1.524 . S
C587 C579 1.503 1_556 S
C587 C586 1.370 1_565 S
C587 C588 1.403 . S
C588 C587 1.403 . S
C588 C589 1.404 . S
C588 C591 1.539 1_556 S
C589 C585 1.408 . S
C589 C588 1.404 . S
C589 H601 0.930 . S
C590 C586 1.524 . S
C590 H602 0.956 . S
C590 H603 0.961 1_545 S
C590 H604 0.961 . S
C591 C588 1.539 1_554 S
C591 H605 0.958 . S
C591 H606 0.961 . S
C591 H607 0.960 . S
H592 C576 0.931 . S
H593 C581 0.929 . S
H594 C582 0.960 . S
H595 C582 0.962 . S
H596 C582 0.960 . S
H597 C583 0.961 . S
H598 C583 0.961 . S
H599 C583 0.961 . S
H600 C584 0.931 . S
H601 C589 0.930 . S
H602 C590 0.956 . S
H603 C590 0.961 1_565 S
H604 C590 0.961 . S
H605 C591 0.958 . S
H606 C591 0.961 . S
H607 C591 0.960 . S
C608 C609 1.391 . S
C608 C610 1.394 . S
C608 H624 0.931 . S
C609 C608 1.391 . S
C609 C613 1.376 . S
C610 C608 1.394 . S
C610 C611 1.369 . S
C610 C614 1.531 . S
C611 C610 1.369 . S
C611 C612 1.410 . S
C611 C619 1.503 1_554 S
C612 C611 1.410 . S
C612 C613 1.392 . S
C612 C615 1.511 . S
C613 C609 1.376 . S
C613 C612 1.392 . S
C613 H625 0.929 . S
C614 C610 1.531 . S
C614 H626 0.960 1_554 S
C614 H627 0.962 1_554 S
C614 H628 0.960 . S
C615 C612 1.511 . S
C615 H629 0.961 . S
C615 H630 0.961 . S
C615 H631 0.961 . S
C616 C617 1.370 . S
C616 C618 1.363 . S
C616 H632 0.931 . S
C617 C616 1.370 . S
C617 C621 1.408 . S
C618 C616 1.363 . S
C618 C619 1.370 . S
C618 C622 1.524 . S
C619 C611 1.503 1_556 S
C619 C618 1.370 . S
C619 C620 1.403 . S
C620 C619 1.403 . S
C620 C621 1.404 . S
C620 C623 1.539 1_556 S
C621 C617 1.408 . S
C621 C620 1.404 . S
C621 H633 0.930 . S
C622 C618 1.524 . S
C622 H634 0.956 . S
C622 H635 0.961 1_556 S
C622 H636 0.961 . S
C623 C620 1.539 1_554 S
C623 H637 0.958 1_554 S
C623 H638 0.961 1_554 S
C623 H639 0.960 . S
H624 C608 0.931 . S
H625 C613 0.929 . S
H626 C614 0.960 1_556 S
H627 C614 0.962 1_556 S
H628 C614 0.960 . S
H629 C615 0.961 . S
H630 C615 0.961 . S
H631 C615 0.961 . S
H632 C616 0.931 . S
H633 C621 0.930 . S
H634 C622 0.956 . S
H635 C622 0.961 1_554 S
H636 C622 0.961 . S
H637 C623 0.958 1_556 S
H638 C623 0.961 1_556 S
H639 C623 0.960 . S
C640 C641 1.391 . S
C640 C642 1.394 . S
C640 H656 0.931 . S
C641 C640 1.391 . S
C641 C645 1.376 . S
C642 C640 1.394 . S
C642 C643 1.369 . S
C642 C646 1.531 . S
C643 C642 1.369 . S
C643 C644 1.410 . S
C643 C651 1.503 1_554 S
C644 C643 1.410 . S
C644 C645 1.392 . S
C644 C647 1.511 . S
C645 C641 1.376 . S
C645 C644 1.392 . S
C645 H657 0.929 . S
C646 C642 1.531 . S
C646 H658 0.960 1_554 S
C646 H659 0.962 . S
C646 H660 0.960 . S
C647 C644 1.511 . S
C647 H661 0.961 . S
C647 H662 0.961 . S
C647 H663 0.961 . S
C648 C649 1.370 . S
C648 C650 1.363 . S
C648 H664 0.931 . S
C649 C648 1.370 . S
C649 C653 1.408 . S
C650 C648 1.363 . S
C650 C651 1.370 . S
C650 C654 1.524 1_556 S
C651 C643 1.503 1_556 S
C651 C650 1.370 . S
C651 C652 1.403 . S
C652 C651 1.403 . S
C652 C653 1.404 . S
C652 C655 1.539 . S
C653 C649 1.408 . S
C653 C652 1.404 . S
C653 H665 0.930 . S
C654 C650 1.524 1_554 S
C654 H666 0.956 . S
C654 H667 0.961 . S
C654 H668 0.961 . S
C655 C652 1.539 . S
C655 H669 0.958 . S
C655 H670 0.961 . S
C655 H671 0.960 . S
H656 C640 0.931 . S
H657 C645 0.929 . S
H658 C646 0.960 1_556 S
H659 C646 0.962 . S
H660 C646 0.960 . S
H661 C647 0.961 . S
H662 C647 0.961 . S
H663 C647 0.961 . S
H664 C648 0.931 . S
H665 C653 0.930 . S
H666 C654 0.956 . S
H667 C654 0.961 . S
H668 C654 0.961 . S
H669 C655 0.958 . S
H670 C655 0.961 . S
H671 C655 0.960 . S
C672 C673 1.362 1_455 S
C672 C674 1.394 . S
C672 H688 0.931 . S
C673 C672 1.362 1_655 S
C673 C677 1.402 . S
C674 C672 1.394 . S
C674 C675 1.369 . S
C674 C678 1.531 . S
C675 C674 1.369 . S
C675 C676 1.410 1_455 S
C675 C683 1.506 1_554 S
C676 C675 1.410 1_655 S
C676 C677 1.392 . S
C676 C679 1.511 . S
C677 C673 1.402 . S
C677 C676 1.392 . S
C677 H689 0.929 . S
C678 C674 1.531 . S
C678 H690 0.960 1_554 S
C678 H691 0.962 1_554 S
C678 H692 0.960 . S
C679 C676 1.511 . S
C679 H693 0.961 . S
C679 H694 0.961 . S
C679 H695 0.961 . S
C680 C681 1.370 . S
C680 C682 1.363 . S
C680 H696 0.931 . S
C681 C680 1.370 . S
C681 C685 1.408 1_655 S
C682 C680 1.363 . S
C682 C683 1.343 1_655 S
C682 C686 1.524 . S
C683 C675 1.506 1_556 S
C683 C682 1.343 1_455 S
C683 C684 1.429 . S
C684 C683 1.429 . S
C684 C685 1.404 . S
C684 C687 1.539 1_556 S
C685 C681 1.408 1_455 S
C685 C684 1.404 . S
C685 H697 0.930 . S
C686 C682 1.524 . S
C686 H698 0.956 . S
C686 H699 0.961 1_556 S
C686 H700 0.961 . S
C687 C684 1.539 1_554 S
C687 H701 0.958 . S
C687 H702 0.961 . S
C687 H703 0.960 . S
H688 C672 0.931 . S
H689 C677 0.929 . S
H690 C678 0.960 1_556 S
H691 C678 0.962 1_556 S
H692 C678 0.960 . S
H693 C679 0.961 . S
H694 C679 0.961 . S
H695 C679 0.961 . S
H696 C680 0.931 . S
H697 C685 0.930 . S
H698 C686 0.956 . S
H699 C686 0.961 1_554 S
H700 C686 0.961 . S
H701 C687 0.958 . S
H702 C687 0.961 . S
H703 C687 0.960 . S
C704 C705 1.391 1_655 S
C704 C706 1.394 . S
C704 H720 0.931 . S
C705 C704 1.391 1_455 S
C705 C709 1.376 . S
C706 C704 1.394 . S
C706 C707 1.369 . S
C706 C710 1.531 . S
C707 C706 1.369 . S
C707 C708 1.410 1_655 S
C707 C715 1.503 . S
C708 C707 1.410 1_455 S
C708 C709 1.392 . S
C708 C711 1.511 . S
C709 C705 1.376 . S
C709 C708 1.392 . S
C709 H721 0.929 . S
C710 C706 1.531 . S
C710 H722 0.960 . S
C710 H723 0.962 . S
C710 H724 0.960 . S
C711 C708 1.511 . S
C711 H725 0.961 . S
C711 H726 0.961 . S
C711 H727 0.961 . S
C712 C713 1.370 . S
C712 C714 1.363 . S
C712 H728 0.931 . S
C713 C712 1.370 . S
C713 C717 1.408 . S
C714 C712 1.363 . S
C714 C715 1.370 . S
C714 C718 1.524 . S
C715 C707 1.503 . S
C715 C714 1.370 . S
C715 C716 1.403 . S
C716 C715 1.403 . S
C716 C717 1.404 . S
C716 C719 1.539 1_655 S
C717 C713 1.408 . S
C717 C716 1.404 . S
C717 H729 0.930 . S
C718 C714 1.524 . S
C718 H730 0.956 . S
C718 H731 0.961 . S
C718 H732 0.961 . S
C719 C716 1.539 1_455 S
C719 H733 0.958 . S
C719 H734 0.961 . S
C719 H735 0.960 . S
H720 C704 0.931 . S
H721 C709 0.929 . S
H722 C710 0.960 . S
H723 C710 0.962 . S
H724 C710 0.960 . S
H725 C711 0.961 . S
H726 C711 0.961 . S
H727 C711 0.961 . S
H728 C712 0.931 . S
H729 C717 0.930 . S
H730 C718 0.956 . S
H731 C718 0.961 . S
H732 C718 0.961 . S
H733 C719 0.958 . S
H734 C719 0.961 . S
H735 C719 0.960 . S
C736 C737 1.391 . S
C736 C738 1.392 1_545 S
C736 H752 0.931 . S
C737 C736 1.391 . S
C737 C741 1.376 . S
C738 C736 1.392 1_565 S
C738 C739 1.369 . S
C738 C742 1.532 . S
C739 C738 1.369 . S
C739 C740 1.410 1_565 S
C739 C747 1.503 . S
C740 C739 1.410 1_545 S
C740 C741 1.392 . S
C740 C743 1.511 . S
C741 C737 1.376 . S
C741 C740 1.392 . S
C741 H753 0.929 . S
C742 C738 1.532 . S
C742 H754 0.960 . S
C742 H755 0.962 . S
C742 H756 0.960 1_565 S
C743 C740 1.511 . S
C743 H757 0.961 . S
C743 H758 0.961 1_545 S
C743 H759 0.961 . S
C744 C745 1.370 . S
C744 C746 1.363 . S
C744 H760 0.931 . S
C745 C744 1.370 . S
C745 C749 1.408 . S
C746 C744 1.363 . S
C746 C747 1.370 . S
C746 C750 1.524 . S
C747 C739 1.503 . S
C747 C746 1.370 . S
C747 C748 1.403 1_565 S
C748 C747 1.403 1_545 S
C748 C749 1.404 1_545 S
C748 C751 1.539 . S
C749 C745 1.408 . S
C749 C748 1.404 1_565 S
C749 H761 0.930 1_565 S
C750 C746 1.524 . S
C750 H762 0.956 . S
C750 H763 0.961 . S
C750 H764 0.961 . S
C751 C748 1.539 . S
C751 H765 0.958 . S
C751 H766 0.961 . S
C751 H767 0.960 . S
H752 C736 0.931 . S
H753 C741 0.929 . S
H754 C742 0.960 . S
H755 C742 0.962 . S
H756 C742 0.960 1_545 S
H757 C743 0.961 . S
H758 C743 0.961 1_565 S
H759 C743 0.961 . S
H760 C744 0.931 . S
H761 C749 0.930 1_545 S
H762 C750 0.956 . S
H763 C750 0.961 . S
H764 C750 0.961 . S
H765 C751 0.958 . S
H766 C751 0.961 . S
H767 C751 0.960 . S
C768 C769 1.391 . S
C768 C770 1.394 . S
C768 H784 0.931 . S
C769 C768 1.391 . S
C769 C773 1.376 . S
C770 C768 1.394 . S
C770 C771 1.369 . S
C770 C774 1.531 . S
C771 C770 1.369 . S
C771 C772 1.410 . S
C771 C779 1.503 . S
C772 C771 1.410 . S
C772 C773 1.392 . S
C772 C775 1.511 . S
C773 C769 1.376 . S
C773 C772 1.392 . S
C773 H785 0.929 . S
C774 C770 1.531 . S
C774 H786 0.960 . S
C774 H787 0.962 . S
C774 H788 0.960 . S
C775 C772 1.511 . S
C775 H789 0.961 . S
C775 H790 0.961 . S
C775 H791 0.961 . S
C776 C777 1.370 . S
C776 C778 1.363 . S
C776 H792 0.931 . S
C777 C776 1.370 . S
C777 C781 1.408 . S
C778 C776 1.363 . S
C778 C779 1.370 . S
C778 C782 1.524 . S
C779 C771 1.503 . S
C779 C778 1.370 . S
C779 C780 1.403 . S
C780 C779 1.403 . S
C780 C781 1.404 . S
C780 C783 1.539 . S
C781 C777 1.408 . S
C781 C780 1.404 . S
C781 H793 0.930 . S
C782 C778 1.524 . S
C782 H794 0.956 . S
C782 H795 0.961 . S
C782 H796 0.961 . S
C783 C780 1.539 . S
C783 H797 0.958 . S
C783 H798 0.961 . S
C783 H799 0.960 . S
H784 C768 0.931 . S
H785 C773 0.929 . S
H786 C774 0.960 . S
H787 C774 0.962 . S
H788 C774 0.960 . S
H789 C775 0.961 . S
H790 C775 0.961 . S
H791 C775 0.961 . S
H792 C776 0.931 . S
H793 C781 0.930 . S
H794 C782 0.956 . S
H795 C782 0.961 . S
H796 C782 0.961 . S
H797 C783 0.958 . S
H798 C783 0.961 . S
H799 C783 0.960 . S
C800 C801 1.391 . S
C800 C802 1.394 . S
C800 H816 0.931 . S
C801 C800 1.391 . S
C801 C805 1.376 . S
C802 C800 1.394 . S
C802 C803 1.369 . S
C802 C806 1.531 . S
C803 C802 1.369 . S
C803 C804 1.410 . S
C803 C811 1.503 . S
C804 C803 1.410 . S
C804 C805 1.392 . S
C804 C807 1.511 . S
C805 C801 1.376 . S
C805 C804 1.392 . S
C805 H817 0.929 . S
C806 C802 1.531 . S
C806 H818 0.960 . S
C806 H819 0.962 . S
C806 H820 0.960 . S
C807 C804 1.511 . S
C807 H821 0.961 . S
C807 H822 0.961 . S
C807 H823 0.961 . S
C808 C809 1.370 . S
C808 C810 1.363 . S
C808 H824 0.931 . S
C809 C808 1.370 . S
C809 C813 1.408 . S
C810 C808 1.363 . S
C810 C811 1.370 . S
C810 C814 1.524 . S
C811 C803 1.503 . S
C811 C810 1.370 . S
C811 C812 1.403 . S
C812 C811 1.403 . S
C812 C813 1.404 . S
C812 C815 1.539 . S
C813 C809 1.408 . S
C813 C812 1.404 . S
C813 H825 0.930 . S
C814 C810 1.524 . S
C814 H826 0.956 . S
C814 H827 0.961 . S
C814 H828 0.961 . S
C815 C812 1.539 . S
C815 H829 0.958 . S
C815 H830 0.961 . S
C815 H831 0.960 . S
H816 C800 0.931 . S
H817 C805 0.929 . S
H818 C806 0.960 . S
H819 C806 0.962 . S
H820 C806 0.960 . S
H821 C807 0.961 . S
H822 C807 0.961 . S
H823 C807 0.961 . S
H824 C808 0.931 . S
H825 C813 0.930 . S
H826 C814 0.956 . S
H827 C814 0.961 . S
H828 C814 0.961 . S
H829 C815 0.958 . S
H830 C815 0.961 . S
H831 C815 0.960 . S
C832 C833 1.391 . S
C832 C834 1.394 1_655 S
C832 H848 0.931 . S
C833 C832 1.391 . S
C833 C837 1.376 1_655 S
C834 C832 1.394 1_455 S
C834 C835 1.369 . S
C834 C838 1.534 . S
C835 C834 1.369 . S
C835 C836 1.410 . S
C835 C843 1.503 . S
C836 C835 1.410 . S
C836 C837 1.392 . S
C836 C839 1.511 1_554 S
C837 C833 1.376 1_455 S
C837 C836 1.392 . S
C837 H849 0.929 . S
C838 C834 1.534 . S
C838 H850 0.982 . S
C838 H851 0.938 1_455 S
C838 H852 0.959 1_455 S
C839 C836 1.511 1_556 S
C839 H853 0.961 . S
C839 H854 0.961 . S
C839 H855 0.961 . S
C840 C841 1.370 . S
C840 C842 1.363 . S
C840 H856 0.931 . S
C841 C840 1.370 . S
C841 C845 1.408 . S
C842 C840 1.363 . S
C842 C843 1.370 1_556 S
C842 C846 1.524 1_455 S
C843 C835 1.503 . S
C843 C842 1.370 1_554 S
C843 C844 1.403 . S
C844 C843 1.403 . S
C844 C845 1.404 1_554 S
C844 C847 1.539 . S
C845 C841 1.408 . S
C845 C844 1.404 1_556 S
C845 H857 0.928 1_556 S
C846 C842 1.524 1_655 S
C846 H858 0.956 . S
C846 H859 0.961 . S
C846 H860 0.961 . S
C847 C844 1.539 . S
C847 H861 0.958 . S
C847 H862 0.961 . S
C847 H863 0.960 . S
H848 C832 0.931 . S
H849 C837 0.929 . S
H850 C838 0.982 . S
H851 C838 0.938 1_655 S
H852 C838 0.959 1_655 S
H853 C839 0.961 . S
H854 C839 0.961 . S
H855 C839 0.961 . S
H856 C840 0.931 . S
H857 C845 0.928 1_554 S
H858 C846 0.956 . S
H859 C846 0.961 . S
H860 C846 0.961 . S
H861 C847 0.958 . S
H862 C847 0.961 . S
H863 C847 0.960 . S
C864 C865 1.391 1_545 S
C864 C866 1.394 . S
C864 H880 0.931 . S
C865 C864 1.391 1_565 S
C865 C869 1.376 . S
C866 C864 1.394 . S
C866 C867 1.369 . S
C866 C870 1.531 . S
C867 C866 1.369 . S
C867 C868 1.410 1_545 S
C867 C875 1.503 . S
C868 C867 1.410 1_565 S
C868 C869 1.392 . S
C868 C871 1.511 1_554 S
C869 C865 1.376 . S
C869 C868 1.392 . S
C869 H881 0.929 . S
C870 C866 1.531 . S
C870 H882 0.960 . S
C870 H883 0.962 . S
C870 H884 0.960 . S
C871 C868 1.511 1_556 S
C871 H885 0.961 . S
C871 H886 0.961 . S
C871 H887 0.961 . S
C872 C873 1.380 . S
C872 C874 1.358 1_556 S
C872 H888 0.926 1_556 S
C873 C872 1.380 . S
C873 C877 1.408 . S
C874 C872 1.358 1_554 S
C874 C875 1.370 . S
C874 C878 1.524 1_545 S
C875 C867 1.503 . S
C875 C874 1.370 . S
C875 C876 1.403 1_554 S
C876 C875 1.403 1_556 S
C876 C877 1.404 . S
C876 C879 1.539 . S
C877 C873 1.408 . S
C877 C876 1.404 . S
C877 H889 0.930 . S
C878 C874 1.524 1_565 S
C878 H890 0.956 1_565 S
C878 H891 0.961 . S
C878 H892 0.961 . S
C879 C876 1.539 . S
C879 H893 0.958 . S
C879 H894 0.961 . S
C879 H895 0.960 . S
H880 C864 0.931 . S
H881 C869 0.929 . S
H882 C870 0.960 . S
H883 C870 0.962 . S
H884 C870 0.960 . S
H885 C871 0.961 . S
H886 C871 0.961 . S
H887 C871 0.961 . S
H888 C872 0.926 1_554 S
H889 C877 0.930 . S
H890 C878 0.956 1_545 S
H891 C878 0.961 . S
H892 C878 0.961 . S
H893 C879 0.958 . S
H894 C879 0.961 . S
H895 C879 0.960 . S
C896 C897 1.391 . S
C896 C898 1.394 . S
C896 H912 0.931 . S
C897 C896 1.391 . S
C897 C901 1.376 . S
C898 C896 1.394 . S
C898 C899 1.369 . S
C898 C902 1.531 . S
C899 C898 1.369 . S
C899 C900 1.410 . S
C899 C907 1.503 . S
C900 C899 1.410 . S
C900 C901 1.392 . S
C900 C903 1.511 . S
C901 C897 1.376 . S
C901 C900 1.392 . S
C901 H913 0.929 . S
C902 C898 1.531 . S
C902 H914 0.960 . S
C902 H915 0.962 . S
C902 H916 0.960 . S
C903 C900 1.511 . S
C903 H917 0.961 . S
C903 H918 0.961 1_554 S
C903 H919 0.961 . S
C904 C905 1.370 . S
C904 C906 1.363 . S
C904 H920 0.931 . S
C905 C904 1.370 . S
C905 C909 1.408 1_556 S
C906 C904 1.363 . S
C906 C907 1.370 1_556 S
C906 C910 1.524 . S
C907 C899 1.503 . S
C907 C906 1.370 1_554 S
C907 C908 1.403 . S
C908 C907 1.403 . S
C908 C909 1.404 . S
C908 C911 1.539 . S
C909 C905 1.408 1_554 S
C909 C908 1.404 . S
C909 H921 0.930 . S
C910 C906 1.524 . S
C910 H922 0.956 . S
C910 H923 0.961 . S
C910 H924 0.961 . S
C911 C908 1.539 . S
C911 H925 0.958 . S
C911 H926 0.961 . S
C911 H927 0.960 . S
H912 C896 0.931 . S
H913 C901 0.929 . S
H914 C902 0.960 . S
H915 C902 0.962 . S
H916 C902 0.960 . S
H917 C903 0.961 . S
H918 C903 0.961 1_556 S
H919 C903 0.961 . S
H920 C904 0.931 . S
H921 C909 0.930 . S
H922 C910 0.956 . S
H923 C910 0.961 . S
H924 C910 0.961 . S
H925 C911 0.958 . S
H926 C911 0.961 . S
H927 C911 0.960 . S
C928 C929 1.391 . S
C928 C930 1.394 . S
C928 H944 0.931 . S
C929 C928 1.391 . S
C929 C933 1.376 . S
C930 C928 1.394 . S
C930 C931 1.369 . S
C930 C934 1.531 1_554 S
C931 C930 1.369 . S
C931 C932 1.410 . S
C931 C939 1.503 . S
C932 C931 1.410 . S
C932 C933 1.392 . S
C932 C935 1.511 . S
C933 C929 1.376 . S
C933 C932 1.392 . S
C933 H945 0.929 . S
C934 C930 1.531 1_556 S
C934 H946 0.960 . S
C934 H947 0.962 . S
C934 H948 0.960 . S
C935 C932 1.511 . S
C935 H949 0.961 . S
C935 H950 0.961 . S
C935 H951 0.961 . S
C936 C937 1.370 . S
C936 C938 1.363 1_556 S
C936 H952 0.931 1_556 S
C937 C936 1.370 . S
C937 C941 1.408 . S
C938 C936 1.363 1_554 S
C938 C939 1.370 . S
C938 C942 1.524 . S
C939 C931 1.503 . S
C939 C938 1.370 . S
C939 C940 1.403 1_554 S
C940 C939 1.403 1_556 S
C940 C941 1.404 . S
C940 C943 1.539 . S
C941 C937 1.408 . S
C941 C940 1.404 . S
C941 H953 0.930 . S
C942 C938 1.524 . S
C942 H954 0.956 . S
C942 H955 0.961 . S
C942 H956 0.961 . S
C943 C940 1.539 . S
C943 H957 0.958 . S
C943 H958 0.961 . S
C943 H959 0.960 . S
H944 C928 0.931 . S
H945 C933 0.929 . S
H946 C934 0.960 . S
H947 C934 0.962 . S
H948 C934 0.960 . S
H949 C935 0.961 . S
H950 C935 0.961 . S
H951 C935 0.961 . S
H952 C936 0.931 1_554 S
H953 C941 0.930 . S
H954 C942 0.956 . S
H955 C942 0.961 . S
H956 C942 0.961 . S
H957 C943 0.958 . S
H958 C943 0.961 . S
H959 C943 0.960 . S
C960 C961 1.391 . S
C960 C962 1.394 . S
C960 H976 0.931 . S
C961 C960 1.391 . S
C961 C965 1.376 1_455 S
C962 C960 1.394 . S
C962 C963 1.369 . S
C962 C966 1.531 . S
C963 C962 1.369 . S
C963 C964 1.410 1_455 S
C963 C971 1.503 . S
C964 C963 1.410 1_655 S
C964 C965 1.392 . S
C964 C967 1.511 . S
C965 C961 1.376 1_655 S
C965 C964 1.392 . S
C965 H977 0.929 . S
C966 C962 1.531 . S
C966 H978 0.960 . S
C966 H979 0.962 . S
C966 H980 0.960 . S
C967 C964 1.511 . S
C967 H981 0.961 . S
C967 H982 0.961 . S
C967 H983 0.961 . S
C968 C969 1.370 . S
C968 C970 1.363 . S
C968 H984 0.931 . S
C969 C968 1.370 . S
C969 C973 1.408 . S
C970 C968 1.363 . S
C970 C971 1.370 . S
C970 C974 1.524 . S
C971 C963 1.503 . S
C971 C970 1.370 . S
C971 C972 1.408 . S
C972 C971 1.408 . S
C972 C973 1.405 . S
C972 C975 1.532 1_455 S
C973 C969 1.408 . S
C973 C972 1.405 . S
C973 H985 0.930 1_455 S
C974 C970 1.524 . S
C974 H986 0.956 . S
C974 H987 0.961 . S
C974 H988 0.961 . S
C975 C972 1.532 1_655 S
C975 H989 0.923 1_655 S
C975 H990 0.961 . S
C975 H991 0.960 . S
H976 C960 0.931 . S
H977 C965 0.929 . S
H978 C966 0.960 . S
H979 C966 0.962 . S
H980 C966 0.960 . S
H981 C967 0.961 . S
H982 C967 0.961 . S
H983 C967 0.961 . S
H984 C968 0.931 . S
H985 C973 0.930 1_655 S
H986 C974 0.956 . S
H987 C974 0.961 . S
H988 C974 0.961 . S
H989 C975 0.923 1_455 S
H990 C975 0.961 . S
H991 C975 0.960 . S
C992 C993 1.391 . S
C992 C994 1.394 . S
C992 H1008 0.931 . S
C993 C992 1.391 . S
C993 C997 1.376 1_545 S
C994 C992 1.394 . S
C994 C995 1.369 . S
C994 C998 1.531 . S
C995 C994 1.369 . S
C995 C996 1.410 1_545 S
C995 C1003 1.503 . S
C996 C995 1.410 1_565 S
C996 C997 1.392 . S
C996 C999 1.511 . S
C997 C993 1.376 1_565 S
C997 C996 1.392 . S
C997 H1009 0.929 . S
C998 C994 1.531 . S
C998 H1010 0.960 . S
C998 H1011 0.962 . S
C998 H1012 0.960 . S
C999 C996 1.511 . S
C999 H1013 0.961 . S
C999 H1014 0.961 . S
C999 H1015 0.961 . S
C1000 C1001 1.370 . S
C1000 C1002 1.363 . S
C1000 H1016 0.931 . S
C1001 C1000 1.370 . S
C1001 C1005 1.408 1_545 S
C1002 C1000 1.363 . S
C1002 C1003 1.370 . S
C1002 C1006 1.524 . S
C1003 C995 1.503 . S
C1003 C1002 1.370 . S
C1003 C1004 1.403 1_545 S
C1004 C1003 1.403 1_565 S
C1004 C1005 1.404 . S
C1004 C1007 1.539 . S
C1005 C1001 1.408 1_565 S
C1005 C1004 1.404 . S
C1005 H1017 0.930 . S
C1006 C1002 1.524 . S
C1006 H1018 0.956 . S
C1006 H1019 0.961 . S
C1006 H1020 0.961 . S
C1007 C1004 1.539 . S
C1007 H1021 0.958 . S
C1007 H1022 0.961 . S
C1007 H1023 0.960 . S
H1008 C992 0.931 . S
H1009 C997 0.929 . S
H1010 C998 0.960 . S
H1011 C998 0.962 . S
H1012 C998 0.960 . S
H1013 C999 0.961 . S
H1014 C999 0.961 . S
H1015 C999 0.961 . S
H1016 C1000 0.931 . S
H1017 C1005 0.930 . S
H1018 C1006 0.956 . S
H1019 C1006 0.961 . S
H1020 C1006 0.961 . S
H1021 C1007 0.958 . S
H1022 C1007 0.961 . S
H1023 C1007 0.960 . S
C1024 C1025 1.391 . S
C1024 C1026 1.394 . S
C1024 H1040 0.931 . S
C1025 C1024 1.391 . S
C1025 C1029 1.376 . S
C1026 C1024 1.394 . S
C1026 C1027 1.369 . S
C1026 C1030 1.531 . S
C1027 C1026 1.369 . S
C1027 C1028 1.410 . S
C1027 C1035 1.503 . S
C1028 C1027 1.410 . S
C1028 C1029 1.392 . S
C1028 C1031 1.511 . S
C1029 C1025 1.376 . S
C1029 C1028 1.392 . S
C1029 H1041 0.929 . S
C1030 C1026 1.531 . S
C1030 H1042 0.960 . S
C1030 H1043 0.962 . S
C1030 H1044 0.960 . S
C1031 C1028 1.511 . S
C1031 H1045 0.961 . S
C1031 H1046 0.961 . S
C1031 H1047 0.961 . S
C1032 C1033 1.370 . S
C1032 C1034 1.363 . S
C1032 H1048 0.931 . S
C1033 C1032 1.370 . S
C1033 C1037 1.408 . S
C1034 C1032 1.363 . S
C1034 C1035 1.370 . S
C1034 C1038 1.524 . S
C1035 C1027 1.503 . S
C1035 C1034 1.370 . S
C1035 C1036 1.403 . S
C1036 C1035 1.403 . S
C1036 C1037 1.404 . S
C1036 C1039 1.539 . S
C1037 C1033 1.408 . S
C1037 C1036 1.404 . S
C1037 H1049 0.930 . S
C1038 C1034 1.524 . S
C1038 H1050 0.956 . S
C1038 H1051 0.961 . S
C1038 H1052 0.961 . S
C1039 C1036 1.539 . S
C1039 H1053 0.958 . S
C1039 H1054 0.961 . S
C1039 H1055 0.960 . S
H1040 C1024 0.931 . S
H1041 C1029 0.929 . S
H1042 C1030 0.960 . S
H1043 C1030 0.962 . S
H1044 C1030 0.960 . S
H1045 C1031 0.961 . S
H1046 C1031 0.961 . S
H1047 C1031 0.961 . S
H1048 C1032 0.931 . S
H1049 C1037 0.930 . S
H1050 C1038 0.956 . S
H1051 C1038 0.961 . S
H1052 C1038 0.961 . S
H1053 C1039 0.958 . S
H1054 C1039 0.961 . S
H1055 C1039 0.960 . S
C1056 C1057 1.391 . S
C1056 C1058 1.394 . S
C1056 H1072 0.931 . S
C1057 C1056 1.391 . S
C1057 C1061 1.376 . S
C1058 C1056 1.394 . S
C1058 C1059 1.369 . S
C1058 C1062 1.531 . S
C1059 C1058 1.369 . S
C1059 C1060 1.410 . S
C1059 C1067 1.503 . S
C1060 C1059 1.410 . S
C1060 C1061 1.392 . S
C1060 C1063 1.511 . S
C1061 C1057 1.376 . S
C1061 C1060 1.392 . S
C1061 H1073 0.929 . S
C1062 C1058 1.531 . S
C1062 H1074 0.960 . S
C1062 H1075 0.962 . S
C1062 H1076 0.960 . S
C1063 C1060 1.511 . S
C1063 H1077 0.961 . S
C1063 H1078 0.961 . S
C1063 H1079 0.961 . S
C1064 C1065 1.370 . S
C1064 C1066 1.363 . S
C1064 H1080 0.931 . S
C1065 C1064 1.370 . S
C1065 C1069 1.408 . S
C1066 C1064 1.363 . S
C1066 C1067 1.370 . S
C1066 C1070 1.524 . S
C1067 C1059 1.503 . S
C1067 C1066 1.370 . S
C1067 C1068 1.403 . S
C1068 C1067 1.403 . S
C1068 C1069 1.404 . S
C1068 C1071 1.539 . S
C1069 C1065 1.408 . S
C1069 C1068 1.404 . S
C1069 H1081 0.930 . S
C1070 C1066 1.524 . S
C1070 H1082 0.956 . S
C1070 H1083 0.961 . S
C1070 H1084 0.961 . S
C1071 C1068 1.539 . S
C1071 H1085 0.958 . S
C1071 H1086 0.961 . S
C1071 H1087 0.960 . S
H1072 C1056 0.931 . S
H1073 C1061 0.929 . S
H1074 C1062 0.960 . S
H1075 C1062 0.962 . S
H1076 C1062 0.960 . S
H1077 C1063 0.961 . S
H1078 C1063 0.961 . S
H1079 C1063 0.961 . S
H1080 C1064 0.931 . S
H1081 C1069 0.930 . S
H1082 C1070 0.956 . S
H1083 C1070 0.961 . S
H1084 C1070 0.961 . S
H1085 C1071 0.958 . S
H1086 C1071 0.961 . S
H1087 C1071 0.960 . S
C1088 C1089 1.391 . S
C1088 C1090 1.394 . S
C1088 H1104 0.931 . S
C1089 C1088 1.391 . S
C1089 C1093 1.376 1_655 S
C1090 C1088 1.394 . S
C1090 C1091 1.369 . S
C1090 C1094 1.531 . S
C1091 C1090 1.369 . S
C1091 C1092 1.410 1_655 S
C1091 C1099 1.503 . S
C1092 C1091 1.410 1_455 S
C1092 C1093 1.392 . S
C1092 C1095 1.511 . S
C1093 C1089 1.376 1_455 S
C1093 C1092 1.392 . S
C1093 H1105 0.929 . S
C1094 C1090 1.531 . S
C1094 H1106 0.960 . S
C1094 H1107 0.962 . S
C1094 H1108 0.960 . S
C1095 C1092 1.511 . S
C1095 H1109 0.961 . S
C1095 H1110 0.961 . S
C1095 H1111 0.961 . S
C1096 C1097 1.370 . S
C1096 C1098 1.363 . S
C1096 H1112 0.931 . S
C1097 C1096 1.370 . S
C1097 C1101 1.408 . S
C1098 C1096 1.363 . S
C1098 C1099 1.370 . S
C1098 C1102 1.524 . S
C1099 C1091 1.503 . S
C1099 C1098 1.370 . S
C1099 C1100 1.403 . S
C1100 C1099 1.403 . S
C1100 C1101 1.404 . S
C1100 C1103 1.539 1_655 S
C1101 C1097 1.408 . S
C1101 C1100 1.404 . S
C1101 H1113 0.930 1_655 S
C1102 C1098 1.524 . S
C1102 H1114 0.956 . S
C1102 H1115 0.961 . S
C1102 H1116 0.961 . S
C1103 C1100 1.539 1_455 S
C1103 H1117 0.958 1_455 S
C1103 H1118 0.961 . S
C1103 H1119 0.960 . S
H1104 C1088 0.931 . S
H1105 C1093 0.929 . S
H1106 C1094 0.960 . S
H1107 C1094 0.962 . S
H1108 C1094 0.960 . S
H1109 C1095 0.961 . S
H1110 C1095 0.961 . S
H1111 C1095 0.961 . S
H1112 C1096 0.931 . S
H1113 C1101 0.930 1_455 S
H1114 C1102 0.956 . S
H1115 C1102 0.961 . S
H1116 C1102 0.961 . S
H1117 C1103 0.958 1_655 S
H1118 C1103 0.961 . S
H1119 C1103 0.960 . S
C1120 C1121 1.391 . S
C1120 C1122 1.394 . S
C1120 H1136 0.931 . S
C1121 C1120 1.391 . S
C1121 C1125 1.376 1_565 S
C1122 C1120 1.394 . S
C1122 C1123 1.369 . S
C1122 C1126 1.531 . S
C1123 C1122 1.369 . S
C1123 C1124 1.410 1_565 S
C1123 C1131 1.503 . S
C1124 C1123 1.410 1_545 S
C1124 C1125 1.392 . S
C1124 C1127 1.511 . S
C1125 C1121 1.376 1_545 S
C1125 C1124 1.392 . S
C1125 H1137 0.929 . S
C1126 C1122 1.531 . S
C1126 H1138 0.960 . S
C1126 H1139 0.962 . S
C1126 H1140 0.960 . S
C1127 C1124 1.511 . S
C1127 H1141 0.961 . S
C1127 H1142 0.961 . S
C1127 H1143 0.961 . S
C1128 C1129 1.370 . S
C1128 C1130 1.363 . S
C1128 H1144 0.931 . S
C1129 C1128 1.370 . S
C1129 C1133 1.408 . S
C1130 C1128 1.363 . S
C1130 C1131 1.370 . S
C1130 C1134 1.524 . S
C1131 C1123 1.503 . S
C1131 C1130 1.370 . S
C1131 C1132 1.403 . S
C1132 C1131 1.403 . S
C1132 C1133 1.404 . S
C1132 C1135 1.539 . S
C1133 C1129 1.408 . S
C1133 C1132 1.404 . S
C1133 H1145 0.930 . S
C1134 C1130 1.524 . S
C1134 H1146 0.956 . S
C1134 H1147 0.961 1_565 S
C1134 H1148 0.961 . S
C1135 C1132 1.539 . S
C1135 H1149 0.958 . S
C1135 H1150 0.961 1_565 S
C1135 H1151 0.960 1_565 S
H1136 C1120 0.931 . S
H1137 C1125 0.929 . S
H1138 C1126 0.960 . S
H1139 C1126 0.962 . S
H1140 C1126 0.960 . S
H1141 C1127 0.961 . S
H1142 C1127 0.961 . S
H1143 C1127 0.961 . S
H1144 C1128 0.931 . S
H1145 C1133 0.930 . S
H1146 C1134 0.956 . S
H1147 C1134 0.961 1_545 S
H1148 C1134 0.961 . S
H1149 C1135 0.958 . S
H1150 C1135 0.961 1_545 S
H1151 C1135 0.960 1_545 S
C1152 C1153 1.391 . S
C1152 C1154 1.394 . S
C1152 H1168 0.931 . S
C1153 C1152 1.391 . S
C1153 C1157 1.376 . S
C1154 C1152 1.394 . S
C1154 C1155 1.369 . S
C1154 C1158 1.531 . S
C1155 C1154 1.369 . S
C1155 C1156 1.410 . S
C1155 C1163 1.503 . S
C1156 C1155 1.410 . S
C1156 C1157 1.392 . S
C1156 C1159 1.511 . S
C1157 C1153 1.376 . S
C1157 C1156 1.392 . S
C1157 H1169 0.929 . S
C1158 C1154 1.531 . S
C1158 H1170 0.960 . S
C1158 H1171 0.962 . S
C1158 H1172 0.960 . S
C1159 C1156 1.511 . S
C1159 H1173 0.961 . S
C1159 H1174 0.961 . S
C1159 H1175 0.961 . S
C1160 C1161 1.370 . S
C1160 C1162 1.363 . S
C1160 H1176 0.931 . S
C1161 C1160 1.370 . S
C1161 C1165 1.408 . S
C1162 C1160 1.363 . S
C1162 C1163 1.370 . S
C1162 C1166 1.524 . S
C1163 C1155 1.503 . S
C1163 C1162 1.370 . S
C1163 C1164 1.403 . S
C1164 C1163 1.403 . S
C1164 C1165 1.404 . S
C1164 C1167 1.539 . S
C1165 C1161 1.408 . S
C1165 C1164 1.404 . S
C1165 H1177 0.930 . S
C1166 C1162 1.524 . S
C1166 H1178 0.956 . S
C1166 H1179 0.961 . S
C1166 H1180 0.961 . S
C1167 C1164 1.539 . S
C1167 H1181 0.958 . S
C1167 H1182 0.961 . S
C1167 H1183 0.960 . S
H1168 C1152 0.931 . S
H1169 C1157 0.929 . S
H1170 C1158 0.960 . S
H1171 C1158 0.962 . S
H1172 C1158 0.960 . S
H1173 C1159 0.961 . S
H1174 C1159 0.961 . S
H1175 C1159 0.961 . S
H1176 C1160 0.931 . S
H1177 C1165 0.930 . S
H1178 C1166 0.956 . S
H1179 C1166 0.961 . S
H1180 C1166 0.961 . S
H1181 C1167 0.958 . S
H1182 C1167 0.961 . S
H1183 C1167 0.960 . S
C1184 C1185 1.391 . S
C1184 C1186 1.394 . S
C1184 H1200 0.931 . S
C1185 C1184 1.391 . S
C1185 C1189 1.376 . S
C1186 C1184 1.394 . S
C1186 C1187 1.369 . S
C1186 C1190 1.531 . S
C1187 C1186 1.369 . S
C1187 C1188 1.410 . S
C1187 C1195 1.503 . S
C1188 C1187 1.410 . S
C1188 C1189 1.392 . S
C1188 C1191 1.511 . S
C1189 C1185 1.376 . S
C1189 C1188 1.392 . S
C1189 H1201 0.929 . S
C1190 C1186 1.531 . S
C1190 H1202 0.960 . S
C1190 H1203 0.962 . S
C1190 H1204 0.960 . S
C1191 C1188 1.511 . S
C1191 H1205 0.961 . S
C1191 H1206 0.961 . S
C1191 H1207 0.961 . S
C1192 C1193 1.370 . S
C1192 C1194 1.363 . S
C1192 H1208 0.931 . S
C1193 C1192 1.370 . S
C1193 C1197 1.408 . S
C1194 C1192 1.363 . S
C1194 C1195 1.370 . S
C1194 C1198 1.524 . S
C1195 C1187 1.503 . S
C1195 C1194 1.370 . S
C1195 C1196 1.403 . S
C1196 C1195 1.403 . S
C1196 C1197 1.404 . S
C1196 C1199 1.539 . S
C1197 C1193 1.408 . S
C1197 C1196 1.404 . S
C1197 H1209 0.930 . S
C1198 C1194 1.524 . S
C1198 H1210 0.956 . S
C1198 H1211 0.961 . S
C1198 H1212 0.961 . S
C1199 C1196 1.539 . S
C1199 H1213 0.958 . S
C1199 H1214 0.961 . S
C1199 H1215 0.960 . S
H1200 C1184 0.931 . S
H1201 C1189 0.929 . S
H1202 C1190 0.960 . S
H1203 C1190 0.962 . S
H1204 C1190 0.960 . S
H1205 C1191 0.961 . S
H1206 C1191 0.961 . S
H1207 C1191 0.961 . S
H1208 C1192 0.931 . S
H1209 C1197 0.930 . S
H1210 C1198 0.956 . S
H1211 C1198 0.961 . S
H1212 C1198 0.961 . S
H1213 C1199 0.958 . S
H1214 C1199 0.961 . S
H1215 C1199 0.960 . S
C449 C241 2.077 . S
C457 C298 2.327 . S
C489 C338 2.347 . S
C481 C277 2.179 . S
C521 C378 2.325 . S
C513 C169 2.103 . S
C553 C418 2.337 1_455 S
C545 C205 2.099 . S
C585 C307 2.328 1_565 S
C577 C97 2.133 . S
C609 C133 2.186 . S
C617 C347 2.340 . S
C641 C25 2.066 . S
C649 C387 2.328 . S
C673 C61 2.127 . S
C681 C427 2.332 1_655 S
C713 C304 0.433 . S
C705 C211 0.430 . S
C745 C344 0.436 . S
C737 C247 0.480 . S
C777 C384 0.433 . S
C769 C253 0.481 . S
C801 C175 0.434 . S
C809 C424 0.519 . S
C833 C67 0.402 . S
C841 C295 0.511 . S
C873 C335 0.496 . S
C865 C103 0.517 . S
C905 C375 0.489 . S
C897 C109 0.336 . S
C929 C31 0.596 . S
C937 C415 0.437 . S
C961 C181 2.789 . S
C969 C299 3.188 . S
C993 C217 2.784 . S
C1001 C339 3.175 . S
C1033 C379 3.184 . S
C1025 C283 2.768 . S
C1065 C419 3.177 . S
C1057 C145 2.833 . S
C1089 C37 2.847 . S
C1097 C290 3.184 . S
C1129 C330 3.175 . S
C1121 C73 2.839 . S
C1161 C370 3.190 . S
C1153 C139 2.703 . S
C1185 C1 2.833 . S
C1193 C410 3.173 . S
