# Generated by pormake.
# Topology zzz, (3,6)-cn, num edge types: 1
# Building blocks:
#     Node 0, Type 0, BuildingBlock: ESEHIV_clean_linker_0, # of connection points: 3
#     Node 1, Type 0, BuildingBlock: ESEHIV_clean_linker_0, # of connection points: 3
#     Node 2, Type 0, BuildingBlock: ESEHIV_clean_linker_0, # of connection points: 3
#     Node 3, Type 0, BuildingBlock: ESEHIV_clean_linker_0, # of connection points: 3
#     Node 4, Type 0, BuildingBlock: ESEHIV_clean_linker_0, # of connection points: 3
#     Node 5, Type 0, BuildingBlock: ESEHIV_clean_linker_0, # of connection points: 3
#     Node 6, Type 0, BuildingBlock: ESEHIV_clean_linker_0, # of connection points: 3
#     Node 7, Type 0, BuildingBlock: ESEHIV_clean_linker_0, # of connection points: 3
#     Node 8, Type 1, BuildingBlock: CIFDUS_clean_sbu_1, # of connection points: 6
#     Node 9, Type 1, BuildingBlock: CIFDUS_clean_sbu_1, # of connection points: 6
#     Node 10, Type 1, BuildingBlock: CIFDUS_clean_sbu_1, # of connection points: 6
#     Node 11, Type 1, BuildingBlock: CIFDUS_clean_sbu_1, # of connection points: 6
#     Edge 12, Type (0, 1), BuildingBlock: EZIPEK_clean_linker_0, # of connection points: 2
#     Edge 13, Type (0, 1), BuildingBlock: EZIPEK_clean_linker_0, # of connection points: 2
#     Edge 14, Type (0, 1), BuildingBlock: EZIPEK_clean_linker_0, # of connection points: 2
#     Edge 15, Type (0, 1), BuildingBlock: EZIPEK_clean_linker_0, # of connection points: 2
#     Edge 16, Type (0, 1), BuildingBlock: EZIPEK_clean_linker_0, # of connection points: 2
#     Edge 17, Type (0, 1), BuildingBlock: EZIPEK_clean_linker_0, # of connection points: 2
#     Edge 18, Type (0, 1), BuildingBlock: EZIPEK_clean_linker_0, # of connection points: 2
#     Edge 19, Type (0, 1), BuildingBlock: EZIPEK_clean_linker_0, # of connection points: 2
#     Edge 20, Type (0, 1), BuildingBlock: EZIPEK_clean_linker_0, # of connection points: 2
#     Edge 21, Type (0, 1), BuildingBlock: EZIPEK_clean_linker_0, # of connection points: 2
#     Edge 22, Type (0, 1), BuildingBlock: EZIPEK_clean_linker_0, # of connection points: 2
#     Edge 23, Type (0, 1), BuildingBlock: EZIPEK_clean_linker_0, # of connection points: 2
#     Edge 24, Type (0, 1), BuildingBlock: EZIPEK_clean_linker_0, # of connection points: 2
#     Edge 25, Type (0, 1), BuildingBlock: EZIPEK_clean_linker_0, # of connection points: 2
#     Edge 26, Type (0, 1), BuildingBlock: EZIPEK_clean_linker_0, # of connection points: 2
#     Edge 27, Type (0, 1), BuildingBlock: EZIPEK_clean_linker_0, # of connection points: 2
#     Edge 28, Type (0, 1), BuildingBlock: EZIPEK_clean_linker_0, # of connection points: 2
#     Edge 29, Type (0, 1), BuildingBlock: EZIPEK_clean_linker_0, # of connection points: 2
#     Edge 30, Type (0, 1), BuildingBlock: EZIPEK_clean_linker_0, # of connection points: 2
#     Edge 31, Type (0, 1), BuildingBlock: EZIPEK_clean_linker_0, # of connection points: 2
#     Edge 32, Type (0, 1), BuildingBlock: EZIPEK_clean_linker_0, # of connection points: 2
#     Edge 33, Type (0, 1), BuildingBlock: EZIPEK_clean_linker_0, # of connection points: 2
#     Edge 34, Type (0, 1), BuildingBlock: EZIPEK_clean_linker_0, # of connection points: 2
#     Edge 35, Type (0, 1), BuildingBlock: EZIPEK_clean_linker_0, # of connection points: 2
# Relax obj value: 0.312
# Max RMSD: 0.222
# Mean RMSD: 0.206
data_MOF--net-zzz--node1-CIFDUS_clean_sbu_1--node2-ESEHIV_clean_linker_0--edge1-EZIPEK_clean_linker_0
_symmetry_space_group_name_H-M    P1
_symmetry_Int_Tables_number       1
_symmetry_cell_setting            triclinic
loop_
_symmetry_equiv_pos_as_xyz
'x, y, z'
_cell_length_a     30.344996
_cell_length_b     32.044277
_cell_length_c     11.710448
_cell_angle_alpha  89.916871
_cell_angle_beta   90.373495
_cell_angle_gamma 88.836391
loop_
_atom_site_label
_atom_site_type_symbol
_atom_site_fract_x
_atom_site_fract_y
_atom_site_fract_z
_atom_type_partial_charge
H0 H 0.84278 0.60292 0.22647 0.0
H1 H 0.74489 0.58401 0.9734 0.0
H2 H 0.70747 0.587 0.32707 0.0
C3 C 0.80776 0.60232 0.20637 0.0
C4 C 0.77754 0.59706 0.29406 0.0
C5 C 0.79618 0.59251 0.09547 0.0
C6 C 0.75236 0.59168 0.06168 0.0
C7 C 0.71905 0.59085 0.14336 0.0
C8 C 0.73188 0.59242 0.26214 0.0
H9 H 0.9697 0.84641 0.26652 0.0
H10 H 0.97847 0.78091 0.95446 0.0
H11 H 0.01197 0.71765 0.2724 0.0
C12 C 0.97377 0.81677 0.22255 0.0
C13 C 0.98864 0.78256 0.28556 0.0
C14 C 0.97964 0.81752 0.10612 0.0
C15 C 0.98068 0.77942 0.04658 0.0
C16 C 0.99071 0.741 0.10342 0.0
C17 C 0.99804 0.744 0.22576 0.0
H18 H 0.66488 0.86968 0.24413 0.0
H19 H 0.74841 0.89346 0.96147 0.0
H20 H 0.77549 0.94815 0.28662 0.0
C21 C 0.69329 0.88361 0.20688 0.0
C22 C 0.71653 0.91061 0.2766 0.0
C23 C 0.69696 0.88817 0.08862 0.0
C24 C 0.74001 0.89652 0.05032 0.0
C25 C 0.77001 0.91766 0.12036 0.0
C26 C 0.75686 0.92671 0.23485 0.0
H27 H 0.50749 0.65714 0.24778 0.0
H28 H 0.49176 0.78798 0.30251 0.0
H29 H 0.51385 0.74128 0.96318 0.0
C30 C 0.50899 0.68831 0.21246 0.0
C31 C 0.51018 0.69392 0.09433 0.0
C32 C 0.50199 0.72078 0.28858 0.0
C33 C 0.49947 0.76234 0.24546 0.0
C34 C 0.5041 0.76971 0.12542 0.0
C35 C 0.51033 0.7351 0.05267 0.0
H36 H 0.16749 0.4069 0.2135 0.0
H37 H 0.27016 0.42413 0.45346 0.0
H38 H 0.30051 0.4178 0.09272 0.0
C39 C 0.20286 0.40729 0.22952 0.0
C40 C 0.23123 0.41246 0.13846 0.0
C41 C 0.21691 0.41679 0.33839 0.0
C42 C 0.26121 0.41696 0.36586 0.0
C43 C 0.29326 0.41621 0.2799 0.0
C44 C 0.27776 0.41507 0.16284 0.0
H45 H 0.96884 0.17521 0.14838 0.0
H46 H 0.96509 0.26122 0.425 0.0
H47 H 0.04828 0.2854 0.13445 0.0
C48 C 0.97796 0.20549 0.18209 0.0
C49 C 0.01012 0.22807 0.12679 0.0
C50 C 0.96531 0.21558 0.2918 0.0
C51 C 0.97573 0.25421 0.33873 0.0
C52 C 0.00432 0.28129 0.2822 0.0
C53 C 0.02339 0.26713 0.17594 0.0
H54 H 0.33966 0.10265 0.24354 0.0
H55 H 0.23139 0.08618 0.46333 0.0
H56 H 0.21098 0.08509 0.09658 0.0
C57 C 0.30402 0.10135 0.25237 0.0
C58 C 0.27846 0.09409 0.15612 0.0
C59 C 0.28727 0.09316 0.35934 0.0
C60 C 0.24242 0.0922 0.37696 0.0
C61 C 0.21292 0.08984 0.28437 0.0
C62 C 0.23159 0.08987 0.17087 0.0
H63 H 0.50071 0.34014 0.19682 0.0
H64 H 0.48506 0.20953 0.11477 0.0
H65 H 0.52435 0.24983 0.45398 0.0
C66 C 0.50091 0.30731 0.22062 0.0
C67 C 0.51499 0.29667 0.32864 0.0
C68 C 0.4878 0.2773 0.14279 0.0
C69 C 0.49177 0.23381 0.17619 0.0
C70 C 0.5063 0.22295 0.29058 0.0
C71 C 0.51503 0.25586 0.3657 0.0
O72 O 0.0159 0.06168 0.79059 0.0
Mn73 Mn 0.99772 0.00368 0.703 0.0
O74 O 0.95893 0.0829 0.88813 0.0
Mn75 Mn 0.92999 0.05302 0.77933 0.0
O76 O 0.99101 0.94422 0.61314 0.0
O77 O 0.05986 0.00884 0.62842 0.0
Mn78 Mn 0.08761 0.96386 0.68648 0.0
O79 O 0.01811 0.96979 0.84172 0.0
O80 O 0.06055 0.91744 0.62524 0.0
O81 O 0.97489 0.03687 0.56179 0.0
O82 O 0.92514 0.07902 0.64099 0.0
O83 O 0.12928 0.98877 0.60106 0.0
O84 O 0.09029 0.96349 0.8443 0.0
C85 C 0.89212 0.00455 0.82476 0.0
C86 C 0.99864 0.08708 0.86437 0.0
C87 C 0.02036 0.91433 0.59379 0.0
C88 C 0.09757 0.0149 0.57574 0.0
C89 C 0.05349 0.95772 0.89076 0.0
C90 C 0.94831 0.06819 0.55705 0.0
O91 O 0.93255 -0.00363 0.78173 0.0
O92 O 0.87855 0.04298 0.831 0.0
O93 O 0.54862 0.98973 0.86139 0.0
Mn94 Mn 0.5037 0.00231 0.7318 0.0
O95 O 0.58712 0.04563 0.884 0.0
Mn96 Mn 0.58272 0.04827 0.72718 0.0
O97 O 0.4601 0.01553 0.604 0.0
O98 O 0.47802 0.94373 0.78987 0.0
Mn99 Mn 0.42445 0.95892 0.73404 0.0
O100 O 0.45902 0.03535 0.84773 0.0
O101 O 0.41645 0.96417 0.58078 0.0
O102 O 0.54773 0.97037 0.61716 0.0
O103 O 0.61007 0.00489 0.65075 0.0
O104 O 0.41451 0.90938 0.78962 0.0
O105 O 0.39705 0.00067 0.81475 0.0
C106 C 0.55016 0.09285 0.6251 0.0
C107 C 0.57724 0.00974 0.91727 0.0
C108 C 0.4289 -0.00043 0.55036 0.0
C109 C 0.45571 0.90957 0.81815 0.0
C110 C 0.41686 0.03024 0.86288 0.0
C111 C 0.58971 0.97556 0.60251 0.0
O112 O 0.52963 0.05888 0.66207 0.0
O113 O 0.59033 0.09713 0.66073 0.0
O114 O 0.47495 0.53719 0.86474 0.0
Mn115 Mn 0.49535 0.50394 0.72657 0.0
O116 O 0.4025 0.54544 0.86456 0.0
Mn117 Mn 0.40296 0.54316 0.70684 0.0
O118 O 0.51785 0.47186 0.58748 0.0
O119 O 0.5609 0.51082 0.79251 0.0
Mn120 Mn 0.57694 0.45511 0.79607 0.0
O121 O 0.482 0.44545 0.81812 0.0
O122 O 0.58188 0.44192 0.64251 0.0
O123 O 0.49983 0.56272 0.63398 0.0
O124 O 0.42983 0.58873 0.64089 0.0
O125 O 0.57914 0.47472 0.9414 0.0
O126 O 0.54495 0.41123 0.84166 0.0
C127 C 0.39659 0.48949 0.60009 0.0
C128 C 0.43971 0.55029 0.91191 0.0
C129 C 0.54911 0.44535 0.57392 0.0
C130 C 0.57648 0.51097 0.89785 0.0
C131 C 0.50395 0.41203 0.84926 0.0
C132 C 0.47 0.59176 0.61033 0.0
O133 O 0.4327 0.49853 0.65675 0.0
O134 O 0.36332 0.51421 0.62066 0.0
O135 O 0.05545 0.47309 0.81655 0.0
Mn136 Mn 0.00356 0.50211 0.71009 0.0
O137 O 0.10847 0.52056 0.82432 0.0
Mn138 Mn 0.07989 0.55758 0.72989 0.0
O139 O 0.95105 0.53002 0.60487 0.0
O140 O 0.98258 0.4435 0.65641 0.0
Mn141 Mn 0.92601 0.44384 0.69555 0.0
O142 O 0.96497 0.50628 0.85056 0.0
O143 O 0.89749 0.48264 0.60446 0.0
O144 O 0.0422 0.49762 0.5684 0.0
O145 O 0.09274 0.54604 0.58101 0.0
O146 O 0.93596 0.39192 0.63655 0.0
O147 O 0.91489 0.45695 0.84561 0.0
C148 C 0.03511 0.59944 0.8027 0.0
C149 C 0.09407 0.48512 0.85191 0.0
C150 C 0.91181 0.51803 0.57414 0.0
C151 C 0.97453 0.40628 0.61314 0.0
C152 C 0.92942 0.49103 0.88458 0.0
C153 C 0.07811 0.51301 0.53694 0.0
O154 O 0.02301 0.56189 0.7669 0.0
O155 O 0.07527 0.61001 0.78086 0.0
C156 C 0.14398 0.04317 0.29525 0.0
C157 C 0.16553 0.08131 0.32045 0.0
C158 C 0.12602 0.08406 0.50417 0.0
C159 C 0.10586 0.04554 0.48077 0.0
N160 N 0.08066 -9e-05 0.33384 0.0
N161 N 0.15982 0.14576 0.42552 0.0
C162 C 0.10948 0.02938 0.36857 0.0
C163 C 0.14923 0.10479 0.41543 0.0
N164 N 0.15813 0.01813 0.20844 0.0
N165 N 0.12613 0.09931 0.61284 0.0
H166 H 0.17738 0.16098 0.36188 0.0
H167 H 0.14765 0.16486 0.49059 0.0
H168 H 0.109 0.08501 0.67882 0.0
H169 H 0.14453 0.12496 0.6373 0.0
H170 H 0.14655 0.98804 0.1962 0.0
H171 H 0.18305 0.0261 0.15283 0.0
H172 H 0.07963 0.98852 0.25052 0.0
H173 H 0.05464 0.99111 0.38602 0.0
C174 C 0.49044 0.14698 0.36042 0.0
C175 C 0.51978 0.18019 0.3393 0.0
C176 C 0.56096 0.15907 0.50966 0.0
C177 C 0.53526 0.12283 0.52807 0.0
N178 N 0.48943 0.07494 0.42256 0.0
N179 N 0.59511 0.20083 0.36444 0.0
C180 C 0.50351 0.11433 0.43988 0.0
C181 C 0.56 0.17879 0.40141 0.0
N182 N 0.45075 0.14596 0.30596 0.0
N183 N 0.58365 0.17726 0.59671 0.0
H184 H 0.59445 0.21631 0.2858 0.0
H185 H 0.62532 0.20009 0.40761 0.0
H186 H 0.57941 0.16888 0.68198 0.0
H187 H 0.60104 0.20472 0.58521 0.0
H188 H 0.42742 0.12352 0.32484 0.0
H189 H 0.44092 0.16869 0.24677 0.0
H190 H 0.46875 0.06728 0.35454 0.0
H191 H 0.50363 0.04977 0.46592 0.0
C192 C 0.36276 0.46083 0.30538 0.0
C193 C 0.33993 0.42305 0.32516 0.0
C194 C 0.37229 0.42006 0.5191 0.0
C195 C 0.39226 0.45914 0.50236 0.0
N196 N 0.42265 0.50559 0.36514 0.0
N197 N 0.34093 0.35863 0.43068 0.0
C198 C 0.39321 0.47544 0.38988 0.0
C199 C 0.35243 0.39945 0.42408 0.0
N200 N 0.35352 0.48449 0.21118 0.0
N201 N 0.36917 0.40416 0.62678 0.0
H202 H 0.32551 0.34381 0.36224 0.0
H203 H 0.35007 0.33922 0.49866 0.0
H204 H 0.38359 0.41858 0.69726 0.0
H205 H 0.35079 0.37797 0.64602 0.0
H206 H 0.36504 0.51466 0.20066 0.0
H207 H 0.33325 0.47466 0.14531 0.0
H208 H 0.4272 0.5172 0.28301 0.0
H209 H 0.44567 0.51526 0.42581 0.0
C210 C 0.03502 0.31713 0.45752 0.0
C211 C 0.01521 0.32118 0.34739 0.0
C212 C 0.98989 0.39231 0.40393 0.0
C213 C 0.00042 0.3837 0.52054 0.0
N214 N 0.03284 0.33652 0.65823 0.0
N215 N 0.97532 0.36461 0.21351 0.0
C216 C 0.02364 0.34593 0.54679 0.0
C217 C 0.99399 0.35986 0.31917 0.0
N218 N 0.06441 0.28511 0.47657 0.0
N219 N 0.97482 0.43135 0.37512 0.0
H220 H 0.97924 0.34222 0.14959 0.0
H221 H 0.95475 0.38969 0.19072 0.0
H222 H 0.97177 0.45514 0.43548 0.0
H223 H 0.96933 0.44114 0.29133 0.0
H224 H 0.08245 0.28154 0.55205 0.0
H225 H 0.07425 0.26513 0.41083 0.0
H226 H 0.04486 0.30743 0.68517 0.0
H227 H 0.02638 0.35754 0.72433 0.0
C228 C 0.79911 0.97924 0.01598 0.0
C229 C 0.8074 0.93846 0.05797 0.0
C230 C 0.87088 0.93341 0.92269 0.0
C231 C 0.86048 0.97423 0.88133 0.0
N232 N 0.79659 0.01844 0.84153 0.0
N233 N 0.84557 0.8726 0.02933 0.0
C234 C 0.81875 0.9915 0.91295 0.0
C235 C 0.84171 0.91412 0.00422 0.0
N236 N 0.77188 0.00652 0.07194 0.0
N237 N 0.90687 0.91257 0.88117 0.0
H238 H 0.82668 0.85866 0.09246 0.0
H239 H 0.86612 0.85183 0.98554 0.0
H240 H 0.92637 0.92507 0.81764 0.0
H241 H 0.91715 0.88298 0.90805 0.0
H242 H 0.76673 0.03722 0.04426 0.0
H243 H 0.75998 0.00063 0.15311 0.0
H244 H 0.76504 0.03011 0.85944 0.0
H245 H 0.80753 0.02439 0.7588 0.0
C246 C 0.52863 0.82965 0.99623 0.0
C247 C 0.49557 0.81143 0.06636 0.0
C248 C 0.44047 0.84664 0.94573 0.0
C249 C 0.47229 0.87313 0.89405 0.0
N250 N 0.54975 0.8852 0.86658 0.0
N251 N 0.41847 0.81136 0.11686 0.0
C252 C 0.51744 0.86379 0.91982 0.0
C253 C 0.45128 0.82407 0.04659 0.0
N254 N 0.57024 0.81264 0.9975 0.0
N255 N 0.40217 0.83715 0.89038 0.0
H256 H 0.42416 0.79355 0.18996 0.0
H257 H 0.38601 0.82227 0.10727 0.0
H258 H 0.39771 0.84179 0.80295 0.0
H259 H 0.37932 0.81668 0.92412 0.0
H260 H 0.59428 0.8201 0.93822 0.0
H261 H 0.58021 0.78974 0.05619 0.0
H262 H 0.58301 0.88173 0.88692 0.0
H263 H 0.54344 0.90641 0.80121 0.0
C264 C 0.67262 0.53119 0.08729 0.0
C265 C 0.67583 0.57499 0.09624 0.0
C266 C 0.61628 0.58065 0.94774 0.0
C267 C 0.61555 0.53657 0.93914 0.0
N268 N 0.66525 0.47669 0.94892 0.0
N269 N 0.65616 0.64193 0.01367 0.0
C270 C 0.65094 0.51405 0.99234 0.0
C271 C 0.64938 0.60003 0.01903 0.0
N272 N 0.69136 0.50534 0.16684 0.0
N273 N 0.58578 0.60363 0.88841 0.0
H274 H 0.6782 0.65667 0.06845 0.0
H275 H 0.6413 0.66151 0.95308 0.0
H276 H 0.56183 0.58901 0.83957 0.0
H277 H 0.5828 0.63601 0.89284 0.0
H278 H 0.68768 0.47303 0.16462 0.0
H279 H 0.70555 0.51655 0.24107 0.0
H280 H 0.69267 0.46046 0.98186 0.0
H281 H 0.65309 0.46514 0.87177 0.0
C282 C 0.98568 0.65981 0.06145 0.0
C283 C 0.99844 0.70113 0.0289 0.0
C284 C 0.01058 0.67242 0.83473 0.0
C285 C 0.00848 0.63081 0.8726 0.0
N286 N 0.99836 0.58498 0.03313 0.0
N287 N 0.04206 0.73713 0.88748 0.0
C288 C 0.99702 0.6244 0.98938 0.0
C289 C 0.01571 0.70492 0.91563 0.0
N290 N 0.96156 0.65402 0.15775 0.0
N291 N 0.01158 0.68077 0.72057 0.0
H292 H 0.05392 0.75727 0.94883 0.0
H293 H 0.05735 0.73951 0.80823 0.0
H294 H 0.00817 0.65727 0.65956 0.0
H295 H 0.01118 0.71123 0.68877 0.0
H296 H 0.94887 0.62515 0.17996 0.0
H297 H 0.95005 0.67872 0.20774 0.0
H298 H 0.99454 0.57875 0.11987 0.0
H299 H 0.00608 0.55902 0.983 0.0
C300 C 0.99752 0.16089 0.41619 0.0
C301 C 0.95922 0.1793 0.36602 0.0
C302 C 0.91763 0.11684 0.41061 0.0
C303 C 0.9547 0.10095 0.47209 0.0
N304 N 0.02655 0.11386 0.55567 0.0
N305 N 0.88196 0.17724 0.32061 0.0
C306 C 0.99377 0.12432 0.48013 0.0
C307 C 0.91884 0.15793 0.36466 0.0
N308 N 0.03842 0.17686 0.3985 0.0
N309 N 0.88168 0.09237 0.39635 0.0
H310 H 0.88243 0.20745 0.28718 0.0
H311 H 0.85057 0.16485 0.32474 0.0
H312 H 0.88073 0.06199 0.42851 0.0
H313 H 0.85461 0.10062 0.34556 0.0
H314 H 0.06741 0.16103 0.42208 0.0
H315 H 0.04423 0.2036 0.35134 0.0
H316 H 0.04963 0.13549 0.58256 0.0
H317 H 0.02881 0.08566 0.59853 0.0
C318 C 0.35124 0.09277 0.48809 0.0
C319 C 0.31728 0.07034 0.43604 0.0
C320 C 0.36413 0.00822 0.42637 0.0
C321 C 0.39645 0.02795 0.49306 0.0
N322 N 0.41756 0.09171 0.59829 0.0
N323 N 0.28874 0.0026 0.38001 0.0
C324 C 0.38954 0.07104 0.52704 0.0
C325 C 0.32245 0.02692 0.41544 0.0
N326 N 0.34751 0.13533 0.49573 0.0
N327 N 0.37272 0.97066 0.37518 0.0
H328 H 0.25595 0.01259 0.37319 0.0
H329 H 0.25595 0.01259 0.37319 0.0
H330 H 0.40437 0.95731 0.37253 0.0
H331 H 0.34896 0.95491 0.32792 0.0
H332 H 0.374 0.15456 0.51319 0.0
H333 H 0.31819 0.1516 0.47679 0.0
H334 H 0.40952 0.12054 0.63404 0.0
H335 H 0.44864 0.0821 0.62472 0.0
C336 C 0.56664 0.35232 0.38057 0.0
C337 C 0.52768 0.33027 0.40448 0.0
C338 C 0.50116 0.38492 0.52891 0.0
C339 C 0.53927 0.4088 0.50246 0.0
N340 N 0.60819 0.41596 0.40475 0.0
N341 N 0.45723 0.3243 0.4961 0.0
C342 C 0.57214 0.39258 0.42855 0.0
C343 C 0.49536 0.34575 0.47902 0.0
N344 N 0.59744 0.33467 0.30965 0.0
N345 N 0.47153 0.39779 0.6087 0.0
H346 H 0.45185 0.29427 0.46601 0.0
H347 H 0.42944 0.33682 0.53597 0.0
H348 H 0.46444 0.42856 0.62656 0.0
H349 H 0.45323 0.37715 0.65711 0.0
H350 H 0.62587 0.34912 0.28255 0.0
H351 H 0.59475 0.30433 0.27834 0.0
H352 H 0.63473 0.40596 0.35558 0.0
H353 H 0.61131 0.44659 0.43337 0.0
C354 C 0.15178 0.4193 0.46161 0.0
C355 C 0.18547 0.44077 0.40664 0.0
C356 C 0.14144 0.5052 0.40825 0.0
C357 C 0.10992 0.48557 0.47683 0.0
N358 N 0.09201 0.42371 0.59116 0.0
N359 N 0.21449 0.50715 0.34055 0.0
C360 C 0.11641 0.44244 0.50897 0.0
C361 C 0.18139 0.48441 0.38568 0.0
N362 N 0.15334 0.37662 0.46782 0.0
N363 N 0.1338 0.54449 0.36598 0.0
H364 H 0.24606 0.49559 0.32321 0.0
H365 H 0.24606 0.49559 0.32321 0.0
H366 H 0.10329 0.5599 0.37279 0.0
H367 H 0.15704 0.56031 0.3179 0.0
H368 H 0.12634 0.35891 0.49082 0.0
H369 H 0.18072 0.35876 0.44256 0.0
H370 H 0.10017 0.39437 0.62407 0.0
H371 H 0.06615 0.43719 0.63505 0.0
C372 C 0.98443 0.89617 0.07925 0.0
C373 C 0.0023 0.85528 0.06187 0.0
C374 C 0.06593 0.88455 0.96627 0.0
C375 C 0.04737 0.92533 0.97899 0.0
N376 N 0.9993 0.97041 0.0871 0.0
N377 N 0.07288 0.81847 0.05999 0.0
C378 C 0.01031 0.93113 0.05074 0.0
C379 C 0.04689 0.85149 0.02645 0.0
N380 N 0.94274 0.90169 0.12041 0.0
N381 N 0.10038 0.87598 0.89498 0.0
H382 H 0.06202 0.79537 0.11486 0.0
H383 H 0.10663 0.8168 0.04345 0.0
H384 H 0.11904 0.89828 0.8544 0.0
H385 H 0.1097 0.84536 0.87451 0.0
H386 H 0.92724 0.9308 0.12868 0.0
H387 H 0.92214 0.87681 0.13693 0.0
H388 H 0.97462 0.97671 0.14636 0.0
H389 H 0.01836 -0.00392 0.06611 0.0
C390 C 0.61746 0.91703 0.08219 0.0
C391 C 0.65766 0.90742 0.02436 0.0
C392 C 0.64854 0.97096 0.91209 0.0
C393 C 0.61056 0.98277 0.97552 0.0
N394 N 0.56096 0.96904 0.12893 0.0
N395 N 0.68766 0.91122 0.83591 0.0
C396 C 0.59563 0.95621 0.06307 0.0
C397 C 0.66598 0.93009 0.92384 0.0
N398 N 0.59741 0.8866 0.14289 0.0
N399 N 0.66865 -0.00145 0.8417 0.0
H400 H 0.69544 0.87931 0.83844 0.0
H401 H 0.69312 0.92596 0.75798 0.0
H402 H 0.65966 0.03002 0.83717 0.0
H403 H 0.69776 0.99105 0.79881 0.0
H404 H 0.56637 0.89002 0.17944 0.0
H405 H 0.60985 0.85604 0.14329 0.0
H406 H 0.5509 0.95315 0.20156 0.0
H407 H 0.54517 -0.00202 0.11668 0.0
C408 C 0.51394 0.61632 0.06933 0.0
C409 C 0.50116 0.65589 0.02272 0.0
C410 C 0.43442 0.62559 0.9452 0.0
C411 C 0.44725 0.58595 0.98864 0.0
N412 N 0.49404 0.54461 0.11086 0.0
N413 N 0.46437 0.68651 0.85859 0.0
C414 C 0.48536 0.58199 0.05834 0.0
C415 C 0.46551 0.65772 0.9443 0.0
N416 N 0.55341 0.61259 0.12553 0.0
N417 N 0.3932 0.63229 0.90109 0.0
H418 H 0.49233 0.70275 0.836 0.0
H419 H 0.43978 0.68741 0.79595 0.0
H420 H 0.36859 0.61021 0.90803 0.0
H421 H 0.38222 0.66157 0.87248 0.0
H422 H 0.56604 0.58506 0.16096 0.0
H423 H 0.57476 0.6377 0.13077 0.0
H424 H 0.52027 0.53884 0.1666 0.0
H425 H 0.47256 0.51969 0.10264 0.0
C426 C 0.85341 0.58432 0.9479 0.0
C427 C 0.82821 0.56649 0.03403 0.0
C428 C 0.87346 0.50253 0.03373 0.0
C429 C 0.89861 0.5194 0.94494 0.0
N430 N 0.91667 0.58058 0.82848 0.0
N431 N 0.80582 0.50544 0.13888 0.0
C432 C 0.88988 0.56141 0.90467 0.0
C433 C 0.83581 0.52468 0.07133 0.0
N434 N 0.84064 0.62219 0.90268 0.0
N435 N 0.88712 0.46637 0.08663 0.0
H436 H 0.77765 0.52043 0.16914 0.0
H437 H 0.8065 0.47348 0.15523 0.0
H438 H 0.91603 0.45025 0.06443 0.0
H439 H 0.87266 0.4548 0.16026 0.0
H440 H 0.85309 0.63451 0.82749 0.0
H441 H 0.81431 0.63998 0.93457 0.0
H442 H 0.91664 0.61271 0.81559 0.0
H443 H 0.94103 0.56617 0.78153 0.0
C444 C 0.05674 0.16881 0.0512 0.0
C445 C 0.02947 0.20445 0.02596 0.0
C446 C 0.99953 0.16637 0.86029 0.0
C447 C 0.01901 0.12811 0.90112 0.0
N448 N 0.07073 0.09378 0.02728 0.0
N449 N 0.98048 0.23966 0.8965 0.0
C450 C 0.04993 0.12984 0.99263 0.0
C451 C 0.00389 0.20423 0.9245 0.0
N452 N 0.08746 0.17226 0.13601 0.0
N453 N 0.97578 0.16606 0.761 0.0
H454 H 0.98477 0.26751 0.94115 0.0
H455 H 0.9566 0.24154 0.8325 0.0
H456 H 0.97106 0.13881 0.71492 0.0
H457 H 0.96343 0.19266 0.72 0.0
H458 H 0.10999 0.14877 0.15893 0.0
H459 H 0.09213 0.20061 0.17792 0.0
H460 H 0.09088 0.0913 0.09927 0.0
H461 H 0.06693 0.06568 0.98365 0.0
C462 C 0.33149 0.10722 0.99207 0.0
C463 C 0.3066 0.07838 0.05748 0.0
C464 C 0.36628 0.02592 0.028 0.0
C465 C 0.38826 0.0524 0.95064 0.0
N466 N 0.3925 0.11936 0.86128 0.0
N467 N 0.29771 0.00727 0.11767 0.0
C468 C 0.37094 0.09348 0.93324 0.0
C469 C 0.32318 0.0367 0.06781 0.0
N470 N 0.31804 0.14811 0.98992 0.0
N471 N 0.38734 0.99017 0.06436 0.0
H472 H 0.26579 0.0139 0.14545 0.0
H473 H 0.30636 0.97566 0.12064 0.0
H474 H 0.41937 0.98231 0.03886 0.0
H475 H 0.37518 0.97094 0.12803 0.0
H476 H 0.33646 0.17195 0.95499 0.0
H477 H 0.28853 0.15815 0.02731 0.0
H478 H 0.3798 0.14806 0.83339 0.0
H479 H 0.42346 0.11123 0.82899 0.0
C480 C 0.44236 0.32909 0.02874 0.0
C481 C 0.47539 0.2966 0.0281 0.0
C482 C 0.50933 0.33282 0.86669 0.0
C483 C 0.48492 0.37074 0.89131 0.0
N484 N 0.42475 0.40268 0.99575 0.0
N485 N 0.53974 0.26727 0.93896 0.0
C486 C 0.44952 0.36797 0.97009 0.0
C487 C 0.50778 0.29783 0.9423 0.0
N488 N 0.4058 0.32349 0.0936 0.0
N489 N 0.53474 0.33017 0.77107 0.0
H490 H 0.53838 0.24032 0.98854 0.0
H491 H 0.5684 0.2696 0.891 0.0
H492 H 0.53783 0.35465 0.71378 0.0
H493 H 0.54929 0.30236 0.74277 0.0
H494 H 0.37885 0.34416 0.09409 0.0
H495 H 0.40134 0.2958 0.13895 0.0
H496 H 0.40227 0.4039 0.06255 0.0
H497 H 0.42796 0.43104 0.95369 0.0
C498 C 0.1777 0.40176 0.97327 0.0
C499 C 0.20636 0.42894 0.03429 0.0
C500 C 0.15105 0.48519 0.00693 0.0
C501 C 0.12542 0.46072 0.93133 0.0
N502 N 0.11343 0.39305 0.8495 0.0
N503 N 0.22362 0.49988 0.08013 0.0
C504 C 0.1386 0.41813 0.91585 0.0
C505 C 0.19427 0.47183 0.03937 0.0
N506 N 0.18694 0.35992 0.97581 0.0
N507 N 0.13307 0.52091 0.05202 0.0
H508 H 0.2558 0.49124 0.10243 0.0
H509 H 0.21734 0.53199 0.07977 0.0
H510 H 0.10031 0.53002 0.03658 0.0
H511 H 0.14881 0.53834 0.11466 0.0
H512 H 0.16557 0.33736 0.94581 0.0
H513 H 0.21598 0.34792 0.01262 0.0
H514 H 0.12335 0.36332 0.82322 0.0
H515 H 0.08228 0.40241 0.82055 0.0
C516 C 0.0436 0.82035 0.39713 0.0
C517 C 0.00494 0.79659 0.40187 0.0
C518 C 0.97888 0.84517 0.55453 0.0
C519 C 0.01157 0.87465 0.52475 0.0
N520 N 0.0714 0.89031 0.39638 0.0
N521 N 0.93636 0.78487 0.4948 0.0
C522 C 0.04321 0.86195 0.44074 0.0
C523 C 0.97314 0.80827 0.48554 0.0
N524 N 0.07935 0.80433 0.34136 0.0
N525 N 0.95451 0.8514 0.6504 0.0
H526 H 0.93289 0.75738 0.44794 0.0
H527 H 0.90939 0.79349 0.54473 0.0
H528 H 0.95918 0.87707 0.7031 0.0
H529 H 0.93306 0.82936 0.68256 0.0
H530 H 0.10951 0.8193 0.33862 0.0
H531 H 0.07941 0.77404 0.30848 0.0
H532 H 0.0917 0.88377 0.32691 0.0
H533 H 0.07083 0.92158 0.42013 0.0
C534 C 0.67818 0.90585 0.46728 0.0
C535 C 0.68852 0.93006 0.3692 0.0
C536 C 0.62523 0.97743 0.41136 0.0
C537 C 0.61597 0.95405 0.51112 0.0
N538 N 0.6283 0.8932 0.62618 0.0
N539 N 0.67048 0.98805 0.2441 0.0
C540 C 0.64102 0.91735 0.53664 0.0
C541 C 0.6617 0.9658 0.3408 0.0
N542 N 0.70431 0.87186 0.49336 0.0
N543 N 0.59759 0.01011 0.38254 0.0
H544 H 0.69255 0.97785 0.18233 0.0
H545 H 0.65632 0.01685 0.22325 0.0
H546 H 0.56989 0.01799 0.43049 0.0
H547 H 0.59973 0.02807 0.30898 0.0
H548 H 0.70034 0.85288 0.5644 0.0
H549 H 0.73201 0.86363 0.44532 0.0
H550 H 0.64294 0.86482 0.64928 0.0
H551 H 0.60083 0.90107 0.67503 0.0
C552 C 0.52085 0.69304 0.48517 0.0
C553 C 0.48799 0.70529 0.40433 0.0
C554 C 0.44674 0.6427 0.45319 0.0
C555 C 0.4788 0.63028 0.53742 0.0
N556 N 0.5385 0.65319 0.65649 0.0
N557 N 0.41297 0.69927 0.3431 0.0
C558 C 0.51368 0.65832 0.56036 0.0
C559 C 0.44805 0.68325 0.4033 0.0
N560 N 0.55962 0.71374 0.48704 0.0
N561 N 0.41687 0.61478 0.41351 0.0
H562 H 0.41438 0.72823 0.30245 0.0
H563 H 0.38196 0.68585 0.34339 0.0
H564 H 0.41631 0.58389 0.44071 0.0
H565 H 0.39611 0.62089 0.34396 0.0
H566 H 0.58693 0.70378 0.53494 0.0
H567 H 0.56442 0.74007 0.43622 0.0
H568 H 0.56205 0.6744 0.68294 0.0
H569 H 0.53124 0.63033 0.71589 0.0
C570 C 0.83412 0.60748 0.45284 0.0
C571 C 0.79996 0.58269 0.40458 0.0
C572 C 0.84604 0.52083 0.44169 0.0
C573 C 0.87873 0.54375 0.50181 0.0
N574 N 0.90091 0.61179 0.5685 0.0
N575 N 0.76786 0.51504 0.41087 0.0
C576 C 0.87183 0.58803 0.50946 0.0
C577 C 0.80404 0.53919 0.41914 0.0
N578 N 0.83154 0.64969 0.43777 0.0
N579 N 0.85543 0.48165 0.40192 0.0
H580 H 0.73632 0.52841 0.40954 0.0
H581 H 0.7692 0.48283 0.42403 0.0
H582 H 0.88728 0.46873 0.40426 0.0
H583 H 0.8329 0.46462 0.35432 0.0
H584 H 0.85731 0.66964 0.45604 0.0
H585 H 0.80365 0.66419 0.40146 0.0
H586 H 0.89464 0.64294 0.58915 0.0
H587 H 0.93094 0.60028 0.59926 0.0
loop_
_geom_bond_atom_site_label_1
_geom_bond_atom_site_label_2
_geom_bond_distance
_geom_bond_site_symmetry_2
_ccdc_geom_bond_type
H0 C3 0.931 . S
H1 C6 0.928 . S
H2 C8 0.930 . S
C3 H0 0.931 . S
C3 C4 1.413 . S
C3 C5 1.360 . S
C4 C3 1.413 . S
C4 C8 1.429 . S
C5 C3 1.360 . S
C5 C6 1.372 1_554 S
C6 H1 0.928 . S
C6 C5 1.372 1_556 S
C6 C7 1.404 1_556 S
C7 C6 1.404 1_554 S
C7 C8 1.391 . S
C8 H2 0.930 . S
C8 C4 1.429 . S
C8 C7 1.391 . S
H9 C12 0.931 . S
H10 C15 0.928 . S
H11 C17 0.930 . S
C12 H9 0.931 . S
C12 C13 1.413 . S
C12 C14 1.360 . S
C13 C12 1.413 . S
C13 C17 1.429 1_655 S
C14 C12 1.360 . S
C14 C15 1.373 1_554 S
C15 H10 0.928 . S
C15 C14 1.373 1_556 S
C15 C16 1.404 1_556 S
C16 C15 1.404 1_554 S
C16 C17 1.390 1_655 S
C17 H11 0.930 . S
C17 C13 1.429 1_455 S
C17 C16 1.390 1_455 S
H18 C21 0.931 . S
H19 C24 0.928 . S
H20 C26 0.930 . S
C21 H18 0.931 . S
C21 C22 1.413 . S
C21 C23 1.360 . S
C22 C21 1.413 . S
C22 C26 1.429 . S
C23 C21 1.360 . S
C23 C24 1.372 1_554 S
C24 H19 0.928 . S
C24 C23 1.372 1_556 S
C24 C25 1.404 1_556 S
C25 C24 1.404 1_554 S
C25 C26 1.391 . S
C26 H20 0.930 . S
C26 C22 1.429 . S
C26 C25 1.391 . S
H27 C30 0.931 . S
H28 C33 0.928 . S
H29 C35 0.925 1_556 S
C30 H27 0.931 . S
C30 C31 1.413 . S
C30 C32 1.360 . S
C31 C30 1.413 . S
C31 C35 1.431 . S
C32 C30 1.360 . S
C32 C33 1.372 . S
C33 H28 0.928 . S
C33 C32 1.372 . S
C33 C34 1.404 . S
C34 C33 1.404 . S
C34 C35 1.395 . S
C35 H29 0.925 1_554 S
C35 C31 1.431 . S
C35 C34 1.395 . S
H36 C39 0.931 . S
H37 C42 0.928 . S
H38 C44 0.930 . S
C39 H36 0.931 . S
C39 C40 1.413 . S
C39 C41 1.360 . S
C40 C39 1.413 . S
C40 C44 1.429 . S
C41 C39 1.360 . S
C41 C42 1.372 . S
C42 H37 0.928 . S
C42 C41 1.372 . S
C42 C43 1.404 . S
C43 C42 1.404 . S
C43 C44 1.391 . S
C44 H38 0.930 . S
C44 C40 1.429 . S
C44 C43 1.391 . S
H45 C48 0.930 . S
H46 C51 0.928 . S
H47 C53 0.931 . S
C48 H45 0.930 . S
C48 C49 1.413 . S
C48 C50 1.360 . S
C49 C48 1.413 . S
C49 C53 1.429 1_655 S
C50 C48 1.360 . S
C50 C51 1.372 . S
C51 H46 0.928 . S
C51 C50 1.372 . S
C51 C52 1.404 . S
C52 C51 1.404 . S
C52 C53 1.391 1_655 S
C53 H47 0.931 . S
C53 C49 1.429 1_455 S
C53 C52 1.391 1_455 S
H54 C57 0.931 . S
H55 C60 0.928 . S
H56 C62 0.930 . S
C57 H54 0.931 . S
C57 C58 1.413 . S
C57 C59 1.360 . S
C58 C57 1.413 . S
C58 C62 1.429 . S
C59 C57 1.360 . S
C59 C60 1.372 . S
C60 H55 0.928 . S
C60 C59 1.372 . S
C60 C61 1.404 . S
C61 C60 1.404 . S
C61 C62 1.391 . S
C62 H56 0.930 . S
C62 C58 1.429 . S
C62 C61 1.391 . S
H63 C66 0.931 . S
H64 C69 0.928 . S
H65 C71 0.930 . S
C66 H63 0.931 . S
C66 C67 1.413 . S
C66 C68 1.360 . S
C67 C66 1.413 . S
C67 C71 1.429 . S
C68 C66 1.360 . S
C68 C69 1.372 . S
C69 H64 0.928 . S
C69 C68 1.372 . S
C69 C70 1.404 . S
C70 C69 1.404 . S
C70 C71 1.391 . S
C71 H65 0.930 . S
C71 C67 1.429 . S
C71 C70 1.391 . S
O72 Mn73 2.163 1_455 S
O72 C86 1.244 . S
Mn73 O72 2.163 1_655 S
Mn73 O76 2.160 1_545 S
Mn73 O77 2.221 1_655 S
Mn73 O79 2.163 1_645 S
Mn73 O81 2.160 . S
Mn73 O91 2.221 . S
O74 Mn75 2.087 . S
O74 C86 1.256 1_655 S
Mn75 O74 2.087 . S
Mn75 O82 2.089 . S
Mn75 O91 2.290 . S
Mn75 O92 2.251 . S
O76 Mn73 2.160 1_565 S
O76 C87 1.239 . S
O77 Mn73 2.221 1_455 S
O77 Mn78 2.290 1_545 S
O77 C88 1.278 . S
Mn78 O77 2.290 1_565 S
Mn78 O80 2.089 . S
Mn78 O83 2.251 . S
Mn78 O84 2.087 . S
O79 Mn73 2.163 1_465 S
O79 C89 1.244 . S
O80 Mn78 2.089 . S
O80 C87 1.256 1_455 S
O81 Mn73 2.160 . S
O81 C90 1.239 . S
O82 Mn75 2.089 . S
O82 C90 1.256 . S
O83 Mn78 2.251 . S
O83 C88 1.241 1_565 S
O84 Mn78 2.087 . S
O84 C89 1.256 . S
C85 O91 1.278 . S
C85 O92 1.241 . S
C86 O72 1.244 . S
C86 O74 1.256 1_455 S
C87 O76 1.239 . S
C87 O80 1.256 1_655 S
C88 O77 1.278 . S
C88 O83 1.241 1_545 S
C89 O79 1.244 . S
C89 O84 1.256 . S
C90 O81 1.239 . S
C90 O82 1.256 . S
O91 Mn73 2.221 . S
O91 Mn75 2.290 . S
O91 C85 1.278 . S
O92 Mn75 2.251 . S
O92 C85 1.241 . S
O93 Mn94 2.163 1_565 S
O93 C107 1.244 1_565 S
Mn94 O93 2.163 1_545 S
Mn94 O97 2.160 . S
Mn94 O98 2.221 1_545 S
Mn94 O100 2.163 . S
Mn94 O102 2.160 1_545 S
Mn94 O112 2.221 . S
O95 Mn96 2.087 . S
O95 C107 1.256 . S
Mn96 O95 2.087 . S
Mn96 O103 2.089 1_545 S
Mn96 O112 2.290 . S
Mn96 O113 2.251 . S
O97 Mn94 2.160 . S
O97 C108 1.239 . S
O98 Mn94 2.221 1_565 S
O98 Mn99 2.290 . S
O98 C109 1.278 . S
Mn99 O98 2.290 . S
Mn99 O101 2.077 1_565 S
Mn99 O104 2.251 . S
Mn99 O105 2.087 1_565 S
O100 Mn94 2.163 . S
O100 C110 1.244 . S
O101 Mn99 2.077 1_545 S
O101 C108 1.263 . S
O102 Mn94 2.160 1_565 S
O102 C111 1.239 . S
O103 Mn96 2.089 1_565 S
O103 C111 1.256 . S
O104 Mn99 2.251 . S
O104 C109 1.241 . S
O105 Mn99 2.087 1_545 S
O105 C110 1.256 . S
C106 O112 1.278 . S
C106 O113 1.241 . S
C107 O93 1.244 1_545 S
C107 O95 1.256 . S
C108 O97 1.239 . S
C108 O101 1.263 . S
C109 O98 1.278 . S
C109 O104 1.241 . S
C110 O100 1.244 . S
C110 O105 1.256 . S
C111 O102 1.239 . S
C111 O103 1.256 . S
O112 Mn94 2.221 . S
O112 Mn96 2.290 . S
O112 C106 1.278 . S
O113 Mn96 2.251 . S
O113 C106 1.241 . S
O114 Mn115 2.163 . S
O114 C128 1.244 . S
Mn115 O114 2.163 . S
Mn115 O118 2.160 . S
Mn115 O119 2.221 . S
Mn115 O121 2.163 . S
Mn115 O123 2.160 . S
Mn115 O133 2.221 . S
O116 Mn117 2.087 . S
O116 C128 1.256 . S
Mn117 O116 2.087 . S
Mn117 O124 2.089 . S
Mn117 O133 2.290 . S
Mn117 O134 2.251 . S
O118 Mn115 2.160 . S
O118 C129 1.239 . S
O119 Mn115 2.221 . S
O119 Mn120 2.290 . S
O119 C130 1.278 . S
Mn120 O119 2.290 . S
Mn120 O122 2.089 . S
Mn120 O125 2.251 . S
Mn120 O126 2.087 . S
O121 Mn115 2.163 . S
O121 C131 1.244 . S
O122 Mn120 2.089 . S
O122 C129 1.256 . S
O123 Mn115 2.160 . S
O123 C132 1.239 . S
O124 Mn117 2.089 . S
O124 C132 1.256 . S
O125 Mn120 2.251 . S
O125 C130 1.241 . S
O126 Mn120 2.087 . S
O126 C131 1.256 . S
C127 O133 1.278 . S
C127 O134 1.241 . S
C128 O114 1.244 . S
C128 O116 1.256 . S
C129 O118 1.239 . S
C129 O122 1.256 . S
C130 O119 1.278 . S
C130 O125 1.241 . S
C131 O121 1.244 . S
C131 O126 1.256 . S
C132 O123 1.239 . S
C132 O124 1.256 . S
O133 Mn115 2.221 . S
O133 Mn117 2.290 . S
O133 C127 1.278 . S
O134 Mn117 2.251 . S
O134 C127 1.241 . S
O135 Mn136 2.163 . S
O135 C149 1.244 . S
Mn136 O135 2.163 . S
Mn136 O139 2.160 1_455 S
Mn136 O140 2.221 1_455 S
Mn136 O142 2.163 1_455 S
Mn136 O144 2.160 . S
Mn136 O154 2.221 . S
O137 Mn138 2.087 . S
O137 C149 1.256 . S
Mn138 O137 2.087 . S
Mn138 O145 2.089 . S
Mn138 O154 2.290 . S
Mn138 O155 2.251 . S
O139 Mn136 2.160 1_655 S
O139 C150 1.239 . S
O140 Mn136 2.221 1_655 S
O140 Mn141 2.290 . S
O140 C151 1.278 . S
Mn141 O140 2.290 . S
Mn141 O143 2.089 . S
Mn141 O146 2.251 . S
Mn141 O147 2.087 . S
O142 Mn136 2.163 1_655 S
O142 C152 1.244 . S
O143 Mn141 2.089 . S
O143 C150 1.256 . S
O144 Mn136 2.160 . S
O144 C153 1.239 . S
O145 Mn138 2.089 . S
O145 C153 1.256 . S
O146 Mn141 2.251 . S
O146 C151 1.241 . S
O147 Mn141 2.087 . S
O147 C152 1.256 . S
C148 O154 1.278 . S
C148 O155 1.241 . S
C149 O135 1.244 . S
C149 O137 1.256 . S
C150 O139 1.239 . S
C150 O143 1.256 . S
C151 O140 1.278 . S
C151 O146 1.241 . S
C152 O142 1.244 . S
C152 O147 1.256 . S
C153 O144 1.239 . S
C153 O145 1.256 . S
O154 Mn136 2.221 . S
O154 Mn138 2.290 . S
O154 C148 1.278 . S
O155 Mn138 2.251 . S
O155 C148 1.241 . S
C156 C157 1.363 . S
C156 C162 1.379 . S
C156 N164 1.356 . S
C157 C156 1.363 . S
C157 C163 1.363 . S
C158 C159 1.363 . S
C158 C163 1.379 . S
C158 N165 1.356 . S
C159 C158 1.363 . S
C159 C162 1.363 . S
N160 C162 1.356 . S
N160 H172 0.984 . S
N160 H173 0.985 . S
N161 C163 1.356 . S
N161 H166 0.984 . S
N161 H167 0.985 . S
C162 C156 1.379 . S
C162 C159 1.363 . S
C162 N160 1.356 . S
C163 C157 1.363 . S
C163 C158 1.379 . S
C163 N161 1.356 . S
N164 C156 1.356 . S
N164 H170 0.984 . S
N164 H171 0.984 . S
N165 C158 1.356 . S
N165 H168 0.984 . S
N165 H169 0.985 . S
H166 N161 0.984 . S
H167 N161 0.985 . S
H168 N165 0.984 . S
H169 N165 0.985 . S
H170 N164 0.984 . S
H171 N164 0.984 . S
H172 N160 0.984 . S
H173 N160 0.985 . S
C174 C175 1.363 . S
C174 C180 1.379 . S
C174 N182 1.356 . S
C175 C174 1.363 . S
C175 C181 1.363 . S
C176 C177 1.363 . S
C176 C181 1.379 . S
C176 N183 1.356 . S
C177 C176 1.363 . S
C177 C180 1.363 . S
N178 C180 1.356 . S
N178 H190 0.984 . S
N178 H191 0.985 . S
N179 C181 1.356 . S
N179 H184 0.984 . S
N179 H185 0.985 . S
C180 C174 1.379 . S
C180 C177 1.363 . S
C180 N178 1.356 . S
C181 C175 1.363 . S
C181 C176 1.379 . S
C181 N179 1.356 . S
N182 C174 1.356 . S
N182 H188 0.984 . S
N182 H189 0.984 . S
N183 C176 1.356 . S
N183 H186 0.984 . S
N183 H187 0.985 . S
H184 N179 0.984 . S
H185 N179 0.985 . S
H186 N183 0.984 . S
H187 N183 0.985 . S
H188 N182 0.984 . S
H189 N182 0.984 . S
H190 N178 0.984 . S
H191 N178 0.985 . S
C192 C193 1.363 . S
C192 C198 1.379 . S
C192 N200 1.356 . S
C193 C192 1.363 . S
C193 C199 1.363 . S
C194 C195 1.363 . S
C194 C199 1.379 . S
C194 N201 1.356 . S
C195 C194 1.363 . S
C195 C198 1.363 . S
N196 C198 1.356 . S
N196 H208 0.984 . S
N196 H209 0.985 . S
N197 C199 1.356 . S
N197 H202 0.984 . S
N197 H203 0.985 . S
C198 C192 1.379 . S
C198 C195 1.363 . S
C198 N196 1.356 . S
C199 C193 1.363 . S
C199 C194 1.379 . S
C199 N197 1.356 . S
N200 C192 1.356 . S
N200 H206 0.984 . S
N200 H207 0.984 . S
N201 C194 1.356 . S
N201 H204 0.984 . S
N201 H205 0.985 . S
H202 N197 0.984 . S
H203 N197 0.985 . S
H204 N201 0.984 . S
H205 N201 0.985 . S
H206 N200 0.984 . S
H207 N200 0.984 . S
H208 N196 0.984 . S
H209 N196 0.985 . S
C210 C211 1.363 . S
C210 C216 1.379 . S
C210 N218 1.355 1_655 S
C211 C210 1.363 . S
C211 C217 1.363 . S
C212 C213 1.363 . S
C212 C217 1.379 . S
C212 N219 1.356 . S
C213 C212 1.363 . S
C213 C216 1.363 . S
N214 C216 1.356 . S
N214 H226 0.983 1_655 S
N214 H227 0.985 . S
N215 C217 1.356 . S
N215 H220 0.984 . S
N215 H221 0.985 . S
C216 C210 1.379 . S
C216 C213 1.363 . S
C216 N214 1.356 . S
C217 C211 1.363 . S
C217 C212 1.379 . S
C217 N215 1.356 . S
N218 C210 1.355 1_455 S
N218 H224 0.984 . S
N218 H225 0.984 . S
N219 C212 1.356 . S
N219 H222 0.984 . S
N219 H223 0.985 . S
H220 N215 0.984 . S
H221 N215 0.985 . S
H222 N219 0.984 . S
H223 N219 0.985 . S
H224 N218 0.984 . S
H225 N218 0.984 . S
H226 N214 0.983 1_455 S
H227 N214 0.985 . S
C228 C229 1.363 . S
C228 C234 1.379 1_554 S
C228 N236 1.356 . S
C229 C228 1.363 . S
C229 C235 1.363 1_554 S
C230 C231 1.363 . S
C230 C235 1.379 . S
C230 N237 1.356 . S
C231 C230 1.363 . S
C231 C234 1.363 . S
N232 C234 1.356 1_545 S
N232 H244 0.984 . S
N232 H245 0.985 . S
N233 C235 1.356 . S
N233 H238 0.984 1_556 S
N233 H239 0.985 . S
C234 C228 1.379 1_556 S
C234 C231 1.363 . S
C234 N232 1.356 1_565 S
C235 C229 1.363 1_556 S
C235 C230 1.379 . S
C235 N233 1.356 . S
N236 C228 1.356 . S
N236 H242 0.984 1_565 S
N236 H243 0.984 . S
N237 C230 1.356 . S
N237 H240 0.984 . S
N237 H241 0.985 . S
H238 N233 0.984 1_554 S
H239 N233 0.985 . S
H240 N237 0.984 . S
H241 N237 0.985 . S
H242 N236 0.984 1_545 S
H243 N236 0.984 . S
H244 N232 0.984 . S
H245 N232 0.985 . S
C246 C247 1.363 1_556 S
C246 C252 1.379 . S
C246 N254 1.356 1_556 S
C247 C246 1.363 1_554 S
C247 C253 1.363 1_554 S
C248 C249 1.363 . S
C248 C253 1.379 . S
C248 N255 1.356 . S
C249 C248 1.363 . S
C249 C252 1.363 . S
N250 C252 1.356 . S
N250 H262 0.984 . S
N250 H263 0.985 . S
N251 C253 1.356 1_554 S
N251 H256 0.984 . S
N251 H257 0.985 . S
C252 C246 1.379 . S
C252 C249 1.363 . S
C252 N250 1.356 . S
C253 C247 1.363 1_556 S
C253 C248 1.379 . S
C253 N251 1.356 1_556 S
N254 C246 1.356 1_554 S
N254 H260 0.984 . S
N254 H261 0.984 . S
N255 C248 1.356 . S
N255 H258 0.984 . S
N255 H259 0.985 . S
H256 N251 0.984 . S
H257 N251 0.985 . S
H258 N255 0.984 . S
H259 N255 0.985 . S
H260 N254 0.984 . S
H261 N254 0.984 . S
H262 N250 0.984 . S
H263 N250 0.985 . S
C264 C265 1.363 . S
C264 C270 1.379 1_554 S
C264 N272 1.356 . S
C265 C264 1.363 . S
C265 C271 1.363 1_554 S
C266 C267 1.363 . S
C266 C271 1.379 . S
C266 N273 1.356 . S
C267 C266 1.363 . S
C267 C270 1.363 . S
N268 C270 1.356 . S
N268 H280 0.984 . S
N268 H281 0.985 . S
N269 C271 1.356 . S
N269 H274 0.984 1_556 S
N269 H275 0.985 . S
C270 C264 1.379 1_556 S
C270 C267 1.363 . S
C270 N268 1.356 . S
C271 C265 1.363 1_556 S
C271 C266 1.379 . S
C271 N269 1.356 . S
N272 C264 1.356 . S
N272 H278 0.984 . S
N272 H279 0.984 . S
N273 C266 1.356 . S
N273 H276 0.984 . S
N273 H277 0.985 . S
H274 N269 0.984 1_554 S
H275 N269 0.985 . S
H276 N273 0.984 . S
H277 N273 0.985 . S
H278 N272 0.984 . S
H279 N272 0.984 . S
H280 N268 0.984 . S
H281 N268 0.985 . S
C282 C283 1.362 1_655 S
C282 C288 1.378 1_654 S
C282 N290 1.359 . S
C283 C282 1.362 1_455 S
C283 C289 1.363 1_554 S
C284 C285 1.363 . S
C284 C289 1.379 . S
C284 N291 1.356 . S
C285 C284 1.363 . S
C285 C288 1.363 . S
N286 C288 1.356 . S
N286 H298 0.984 1_456 S
N286 H299 0.985 . S
N287 C289 1.356 . S
N287 H292 0.984 . S
N287 H293 0.985 . S
C288 C282 1.378 1_456 S
C288 C285 1.363 . S
C288 N286 1.356 . S
C289 C283 1.363 1_556 S
C289 C284 1.379 . S
C289 N287 1.356 . S
N290 C282 1.359 . S
N290 H296 0.984 . S
N290 H297 0.984 . S
N291 C284 1.356 . S
N291 H294 0.984 . S
N291 H295 0.985 . S
H292 N287 0.984 . S
H293 N287 0.985 . S
H294 N291 0.984 . S
H295 N291 0.985 . S
H296 N290 0.984 . S
H297 N290 0.984 . S
H298 N286 0.984 1_654 S
H299 N286 0.985 . S
C300 C301 1.359 1_455 S
C300 C306 1.379 . S
C300 N308 1.356 . S
C301 C300 1.359 1_655 S
C301 C307 1.370 . S
C302 C303 1.363 . S
C302 C307 1.379 . S
C302 N309 1.356 . S
C303 C302 1.363 . S
C303 C306 1.363 1_655 S
N304 C306 1.356 . S
N304 H316 0.984 . S
N304 H317 0.985 . S
N305 C307 1.356 . S
N305 H310 0.984 . S
N305 H311 0.985 . S
C306 C300 1.379 . S
C306 C303 1.363 1_455 S
C306 N304 1.356 . S
C307 C301 1.370 . S
C307 C302 1.379 . S
C307 N305 1.356 . S
N308 C300 1.356 . S
N308 H314 0.984 . S
N308 H315 0.984 . S
N309 C302 1.356 . S
N309 H312 0.984 . S
N309 H313 0.985 . S
H310 N305 0.984 . S
H311 N305 0.985 . S
H312 N309 0.984 . S
H313 N309 0.985 . S
H314 N308 0.984 . S
H315 N308 0.984 . S
H316 N304 0.984 . S
H317 N304 0.985 . S
C318 C319 1.363 . S
C318 C324 1.379 . S
C318 N326 1.356 . S
C319 C318 1.363 . S
C319 C325 1.363 . S
C320 C321 1.363 . S
C320 C325 1.379 . S
C320 N327 1.356 1_545 S
C321 C320 1.363 . S
C321 C324 1.363 . S
N322 C324 1.356 . S
N322 H334 0.984 . S
N322 H335 0.985 . S
N323 C325 1.356 . S
N323 H328 0.984 . S
N323 H329 0.985 . S
C324 C318 1.379 . S
C324 C321 1.363 . S
C324 N322 1.356 . S
C325 C319 1.363 . S
C325 C320 1.379 . S
C325 N323 1.356 . S
N326 C318 1.356 . S
N326 H332 0.984 . S
N326 H333 0.984 . S
N327 C320 1.356 1_565 S
N327 H330 0.984 . S
N327 H331 0.985 . S
H328 N323 0.984 . S
H329 N323 0.985 . S
H330 N327 0.984 . S
H331 N327 0.985 . S
H332 N326 0.984 . S
H333 N326 0.984 . S
H334 N322 0.984 . S
H335 N322 0.985 . S
C336 C337 1.363 . S
C336 C342 1.379 . S
C336 N344 1.356 . S
C337 C336 1.363 . S
C337 C343 1.363 . S
C338 C339 1.363 . S
C338 C343 1.379 . S
C338 N345 1.356 . S
C339 C338 1.363 . S
C339 C342 1.363 . S
N340 C342 1.356 . S
N340 H352 0.984 . S
N340 H353 0.985 . S
N341 C343 1.356 . S
N341 H346 0.984 . S
N341 H347 0.985 . S
C342 C336 1.379 . S
C342 C339 1.363 . S
C342 N340 1.356 . S
C343 C337 1.363 . S
C343 C338 1.379 . S
C343 N341 1.356 . S
N344 C336 1.356 . S
N344 H350 0.984 . S
N344 H351 0.984 . S
N345 C338 1.356 . S
N345 H348 0.984 . S
N345 H349 0.985 . S
H346 N341 0.984 . S
H347 N341 0.985 . S
H348 N345 0.984 . S
H349 N345 0.985 . S
H350 N344 0.984 . S
H351 N344 0.984 . S
H352 N340 0.984 . S
H353 N340 0.985 . S
C354 C355 1.363 . S
C354 C360 1.379 . S
C354 N362 1.356 . S
C355 C354 1.363 . S
C355 C361 1.363 . S
C356 C357 1.363 . S
C356 C361 1.379 . S
C356 N363 1.356 . S
C357 C356 1.363 . S
C357 C360 1.363 . S
N358 C360 1.356 . S
N358 H370 0.984 . S
N358 H371 0.985 . S
N359 C361 1.356 . S
N359 H364 0.984 . S
N359 H365 0.985 . S
C360 C354 1.379 . S
C360 C357 1.363 . S
C360 N358 1.356 . S
C361 C355 1.363 . S
C361 C356 1.379 . S
C361 N359 1.356 . S
N362 C354 1.356 . S
N362 H368 0.984 . S
N362 H369 0.984 . S
N363 C356 1.356 . S
N363 H366 0.984 . S
N363 H367 0.985 . S
H364 N359 0.984 . S
H365 N359 0.985 . S
H366 N363 0.984 . S
H367 N363 0.985 . S
H368 N362 0.984 . S
H369 N362 0.984 . S
H370 N358 0.984 . S
H371 N358 0.985 . S
C372 C373 1.356 1_654 S
C372 C378 1.379 1_554 S
C372 N380 1.356 . S
C373 C372 1.356 1_456 S
C373 C379 1.377 . S
C374 C375 1.363 . S
C374 C379 1.379 . S
C374 N381 1.356 . S
C375 C374 1.363 . S
C375 C378 1.363 1_455 S
N376 C378 1.356 1_554 S
N376 H388 0.984 . S
N376 H389 0.985 1_654 S
N377 C379 1.356 . S
N377 H382 0.984 . S
N377 H383 0.985 . S
C378 C372 1.379 1_556 S
C378 C375 1.363 1_655 S
C378 N376 1.356 1_556 S
C379 C373 1.377 . S
C379 C374 1.379 . S
C379 N377 1.356 . S
N380 C372 1.356 . S
N380 H386 0.984 . S
N380 H387 0.984 . S
N381 C374 1.356 . S
N381 H384 0.984 . S
N381 H385 0.985 . S
H382 N377 0.984 . S
H383 N377 0.985 . S
H384 N381 0.984 . S
H385 N381 0.985 . S
H386 N380 0.984 . S
H387 N380 0.984 . S
H388 N376 0.984 . S
H389 N376 0.985 1_456 S
C390 C391 1.363 1_554 S
C390 C396 1.379 1_554 S
C390 N398 1.356 . S
C391 C390 1.363 1_556 S
C391 C397 1.363 . S
C392 C393 1.363 . S
C392 C397 1.379 . S
C392 N399 1.356 1_565 S
C393 C392 1.363 . S
C393 C396 1.363 . S
N394 C396 1.356 . S
N394 H406 0.984 1_556 S
N394 H407 0.985 . S
N395 C397 1.356 . S
N395 H400 0.984 . S
N395 H401 0.985 . S
C396 C390 1.379 1_556 S
C396 C393 1.363 . S
C396 N394 1.356 . S
C397 C391 1.363 . S
C397 C392 1.379 . S
C397 N395 1.356 . S
N398 C390 1.356 . S
N398 H404 0.984 . S
N398 H405 0.984 . S
N399 C392 1.356 1_545 S
N399 H402 0.984 . S
N399 H403 0.985 . S
H400 N395 0.984 . S
H401 N395 0.985 . S
H402 N399 0.984 . S
H403 N399 0.985 . S
H404 N398 0.984 . S
H405 N398 0.984 . S
H406 N394 0.984 1_554 S
H407 N394 0.985 . S
C408 C409 1.363 1_554 S
C408 C414 1.379 1_554 S
C408 N416 1.356 . S
C409 C408 1.363 1_556 S
C409 C415 1.363 . S
C410 C411 1.363 . S
C410 C415 1.379 . S
C410 N417 1.356 . S
C411 C410 1.363 . S
C411 C414 1.363 . S
N412 C414 1.356 1_554 S
N412 H424 0.984 . S
N412 H425 0.985 1_554 S
N413 C415 1.356 . S
N413 H418 0.984 . S
N413 H419 0.985 . S
C414 C408 1.379 1_556 S
C414 C411 1.363 . S
C414 N412 1.356 1_556 S
C415 C409 1.363 . S
C415 C410 1.379 . S
C415 N413 1.356 . S
N416 C408 1.356 . S
N416 H422 0.984 . S
N416 H423 0.984 . S
N417 C410 1.356 . S
N417 H420 0.984 . S
N417 H421 0.985 . S
H418 N413 0.984 . S
H419 N413 0.985 . S
H420 N417 0.984 . S
H421 N417 0.985 . S
H422 N416 0.984 . S
H423 N416 0.984 . S
H424 N412 0.984 . S
H425 N412 0.985 1_556 S
C426 C427 1.363 . S
C426 C432 1.379 . S
C426 N434 1.356 . S
C427 C426 1.363 . S
C427 C433 1.363 1_556 S
C428 C429 1.363 . S
C428 C433 1.379 1_556 S
C428 N435 1.356 1_556 S
C429 C428 1.363 . S
C429 C432 1.363 . S
N430 C432 1.356 . S
N430 H442 0.984 . S
N430 H443 0.985 . S
N431 C433 1.356 . S
N431 H436 0.984 . S
N431 H437 0.985 . S
C432 C426 1.379 . S
C432 C429 1.363 . S
C432 N430 1.356 . S
C433 C427 1.363 1_554 S
C433 C428 1.379 1_554 S
C433 N431 1.356 . S
N434 C426 1.356 . S
N434 H440 0.984 . S
N434 H441 0.984 . S
N435 C428 1.356 1_554 S
N435 H438 0.984 1_554 S
N435 H439 0.985 . S
H436 N431 0.984 . S
H437 N431 0.985 . S
H438 N435 0.984 1_556 S
H439 N435 0.985 . S
H440 N434 0.984 . S
H441 N434 0.984 . S
H442 N430 0.984 . S
H443 N430 0.985 . S
C444 C445 1.363 . S
C444 C450 1.379 . S
C444 N452 1.356 . S
C445 C444 1.363 . S
C445 C451 1.363 1_455 S
C446 C447 1.363 1_655 S
C446 C451 1.379 1_556 S
C446 N453 1.356 . S
C447 C446 1.363 1_455 S
C447 C450 1.363 1_556 S
N448 C450 1.356 . S
N448 H460 0.984 . S
N448 H461 0.985 1_554 S
N449 C451 1.356 . S
N449 H454 0.984 . S
N449 H455 0.985 1_554 S
C450 C444 1.379 . S
C450 C447 1.363 1_554 S
C450 N448 1.356 . S
C451 C445 1.363 1_655 S
C451 C446 1.379 1_554 S
C451 N449 1.356 . S
N452 C444 1.356 . S
N452 H458 0.984 . S
N452 H459 0.984 . S
N453 C446 1.356 . S
N453 H456 0.984 . S
N453 H457 0.985 . S
H454 N449 0.984 . S
H455 N449 0.985 1_556 S
H456 N453 0.984 . S
H457 N453 0.985 . S
H458 N452 0.984 . S
H459 N452 0.984 . S
H460 N448 0.984 . S
H461 N448 0.985 1_556 S
C462 C463 1.363 . S
C462 C468 1.379 1_554 S
C462 N470 1.356 . S
C463 C462 1.363 . S
C463 C469 1.363 . S
C464 C465 1.363 1_554 S
C464 C469 1.379 . S
C464 N471 1.356 . S
C465 C464 1.363 1_556 S
C465 C468 1.363 . S
N466 C468 1.356 . S
N466 H478 0.984 . S
N466 H479 0.985 . S
N467 C469 1.356 . S
N467 H472 0.984 . S
N467 H473 0.985 . S
C468 C462 1.379 1_556 S
C468 C465 1.363 . S
C468 N466 1.356 . S
C469 C463 1.363 . S
C469 C464 1.379 . S
C469 N467 1.356 . S
N470 C462 1.356 . S
N470 H476 0.984 1_554 S
N470 H477 0.984 . S
N471 C464 1.356 . S
N471 H474 0.984 . S
N471 H475 0.985 1_545 S
H472 N467 0.984 . S
H473 N467 0.985 . S
H474 N471 0.984 . S
H475 N471 0.985 1_565 S
H476 N470 0.984 1_556 S
H477 N470 0.984 . S
H478 N466 0.984 . S
H479 N466 0.985 . S
C480 C481 1.363 . S
C480 C486 1.379 . S
C480 N488 1.356 . S
C481 C480 1.363 . S
C481 C487 1.363 1_554 S
C482 C483 1.363 . S
C482 C487 1.379 . S
C482 N489 1.356 . S
C483 C482 1.363 . S
C483 C486 1.363 1_556 S
N484 C486 1.356 . S
N484 H496 0.984 . S
N484 H497 0.985 . S
N485 C487 1.356 . S
N485 H490 0.984 1_556 S
N485 H491 0.985 . S
C486 C480 1.379 . S
C486 C483 1.363 1_554 S
C486 N484 1.356 . S
C487 C481 1.363 1_556 S
C487 C482 1.379 . S
C487 N485 1.356 . S
N488 C480 1.356 . S
N488 H494 0.984 . S
N488 H495 0.984 . S
N489 C482 1.356 . S
N489 H492 0.984 . S
N489 H493 0.985 . S
H490 N485 0.984 1_554 S
H491 N485 0.985 . S
H492 N489 0.984 . S
H493 N489 0.985 . S
H494 N488 0.984 . S
H495 N488 0.984 . S
H496 N484 0.984 . S
H497 N484 0.985 . S
C498 C499 1.363 . S
C498 C504 1.379 1_554 S
C498 N506 1.356 . S
C499 C498 1.363 . S
C499 C505 1.363 . S
C500 C501 1.363 1_554 S
C500 C505 1.379 . S
C500 N507 1.356 . S
C501 C500 1.363 1_556 S
C501 C504 1.363 . S
N502 C504 1.356 . S
N502 H514 0.984 . S
N502 H515 0.985 . S
N503 C505 1.356 . S
N503 H508 0.984 . S
N503 H509 0.985 . S
C504 C498 1.379 1_556 S
C504 C501 1.363 . S
C504 N502 1.356 . S
C505 C499 1.363 . S
C505 C500 1.379 . S
C505 N503 1.356 . S
N506 C498 1.356 . S
N506 H512 0.984 1_554 S
N506 H513 0.984 . S
N507 C500 1.356 . S
N507 H510 0.984 1_554 S
N507 H511 0.985 . S
H508 N503 0.984 . S
H509 N503 0.985 . S
H510 N507 0.984 1_556 S
H511 N507 0.985 . S
H512 N506 0.984 1_556 S
H513 N506 0.984 . S
H514 N502 0.984 . S
H515 N502 0.985 . S
C516 C517 1.363 1_455 S
C516 C522 1.379 . S
C516 N524 1.356 . S
C517 C516 1.363 1_655 S
C517 C523 1.363 . S
C518 C519 1.363 . S
C518 C523 1.379 . S
C518 N525 1.356 . S
C519 C518 1.363 . S
C519 C522 1.363 1_655 S
N520 C522 1.356 . S
N520 H532 0.984 . S
N520 H533 0.985 . S
N521 C523 1.356 . S
N521 H526 0.984 . S
N521 H527 0.985 . S
C522 C516 1.379 . S
C522 C519 1.363 1_455 S
C522 N520 1.356 . S
C523 C517 1.363 . S
C523 C518 1.379 . S
C523 N521 1.356 . S
N524 C516 1.356 . S
N524 H530 0.984 . S
N524 H531 0.984 . S
N525 C518 1.356 . S
N525 H528 0.984 . S
N525 H529 0.985 . S
H526 N521 0.984 . S
H527 N521 0.985 . S
H528 N525 0.984 . S
H529 N525 0.985 . S
H530 N524 0.984 . S
H531 N524 0.984 . S
H532 N520 0.984 . S
H533 N520 0.985 . S
C534 C535 1.363 . S
C534 C540 1.379 . S
C534 N542 1.356 . S
C535 C534 1.363 . S
C535 C541 1.363 . S
C536 C537 1.363 . S
C536 C541 1.379 . S
C536 N543 1.356 1_565 S
C537 C536 1.363 . S
C537 C540 1.363 . S
N538 C540 1.356 . S
N538 H550 0.984 . S
N538 H551 0.985 . S
N539 C541 1.356 . S
N539 H544 0.984 . S
N539 H545 0.985 1_565 S
C540 C534 1.379 . S
C540 C537 1.363 . S
C540 N538 1.356 . S
C541 C535 1.363 . S
C541 C536 1.379 . S
C541 N539 1.356 . S
N542 C534 1.356 . S
N542 H548 0.984 . S
N542 H549 0.984 . S
N543 C536 1.356 1_545 S
N543 H546 0.984 . S
N543 H547 0.985 . S
H544 N539 0.984 . S
H545 N539 0.985 1_545 S
H546 N543 0.984 . S
H547 N543 0.985 . S
H548 N542 0.984 . S
H549 N542 0.984 . S
H550 N538 0.984 . S
H551 N538 0.985 . S
C552 C553 1.363 . S
C552 C558 1.379 . S
C552 N560 1.356 . S
C553 C552 1.363 . S
C553 C559 1.363 . S
C554 C555 1.363 . S
C554 C559 1.379 . S
C554 N561 1.356 . S
C555 C554 1.363 . S
C555 C558 1.363 . S
N556 C558 1.356 . S
N556 H568 0.984 . S
N556 H569 0.985 . S
N557 C559 1.356 . S
N557 H562 0.984 . S
N557 H563 0.985 . S
C558 C552 1.379 . S
C558 C555 1.363 . S
C558 N556 1.356 . S
C559 C553 1.363 . S
C559 C554 1.379 . S
C559 N557 1.356 . S
N560 C552 1.356 . S
N560 H566 0.984 . S
N560 H567 0.984 . S
N561 C554 1.356 . S
N561 H564 0.984 . S
N561 H565 0.985 . S
H562 N557 0.984 . S
H563 N557 0.985 . S
H564 N561 0.984 . S
H565 N561 0.985 . S
H566 N560 0.984 . S
H567 N560 0.984 . S
H568 N556 0.984 . S
H569 N556 0.985 . S
C570 C571 1.363 . S
C570 C576 1.379 . S
C570 N578 1.356 . S
C571 C570 1.363 . S
C571 C577 1.363 . S
C572 C573 1.363 . S
C572 C577 1.379 . S
C572 N579 1.356 . S
C573 C572 1.363 . S
C573 C576 1.363 . S
N574 C576 1.356 . S
N574 H586 0.984 . S
N574 H587 0.985 . S
N575 C577 1.356 . S
N575 H580 0.984 . S
N575 H581 0.985 . S
C576 C570 1.379 . S
C576 C573 1.363 . S
C576 N574 1.356 . S
C577 C571 1.363 . S
C577 C572 1.379 . S
C577 N575 1.356 . S
N578 C570 1.356 . S
N578 H584 0.984 . S
N578 H585 0.984 . S
N579 C572 1.356 . S
N579 H582 0.984 . S
N579 H583 0.985 . S
H580 N575 0.984 . S
H581 N575 0.985 . S
H582 N579 0.984 . S
H583 N579 0.985 . S
H584 N578 0.984 . S
H585 N578 0.984 . S
H586 N574 0.984 . S
H587 N574 0.985 . S
C157 C61 1.708 . S
C159 C88 1.650 . S
C177 C106 1.418 . S
C175 C70 1.591 . S
C195 C127 1.627 . S
C193 C43 1.697 . S
C213 C151 1.442 . S
C211 C52 1.592 . S
C231 C85 1.517 1_565 S
C229 C25 1.581 . S
C247 C34 1.434 . S
C249 C109 1.273 . S
C265 C7 1.574 . S
C267 C130 1.497 . S
C283 C16 1.438 1_455 S
C285 C148 1.301 . S
C303 C90 0.792 . S
C301 C50 0.793 . S
C321 C108 0.960 . S
C319 C59 0.920 . S
C339 C129 0.786 . S
C337 C67 0.788 . S
C355 C41 0.920 . S
C357 C153 0.961 . S
C373 C14 0.847 1_456 S
C375 C89 0.853 . S
C393 C107 1.023 1_565 S
C391 C23 0.973 1_556 S
C411 C128 0.849 . S
C409 C31 0.847 1_556 S
C427 C5 0.972 1_556 S
C429 C152 1.026 . S
C445 C49 1.577 1_455 S
C447 C86 1.551 . S
C463 C58 1.677 . S
C465 C110 1.664 . S
C483 C131 1.536 . S
C481 C68 1.564 . S
C501 C149 1.677 . S
C499 C40 1.684 . S
C517 C13 1.465 . S
C519 C87 1.440 . S
C537 C111 1.552 . S
C535 C22 1.570 . S
C555 C132 1.424 . S
C553 C32 1.457 . S
C571 C4 1.580 . S
C573 C150 1.566 . S
