# Generated by pormake.
# Topology dag, (6,3)-cn, num edge types: 1
# Building blocks:
#     Node 0, Type 0, BuildingBlock: OJICUG_clean_sbu_0, # of connection points: 6
#     Node 1, Type 0, BuildingBlock: OJICUG_clean_sbu_0, # of connection points: 6
#     Node 2, Type 0, BuildingBlock: OJICUG_clean_sbu_0, # of connection points: 6
#     Node 3, Type 0, BuildingBlock: OJICUG_clean_sbu_0, # of connection points: 6
#     Node 4, Type 1, BuildingBlock: INOVEN_clean_linker_0, # of connection points: 3
#     Node 5, Type 1, BuildingBlock: INOVEN_clean_linker_0, # of connection points: 3
#     Node 6, Type 1, BuildingBlock: INOVEN_clean_linker_0, # of connection points: 3
#     Node 7, Type 1, BuildingBlock: INOVEN_clean_linker_0, # of connection points: 3
#     Node 8, Type 1, BuildingBlock: INOVEN_clean_linker_0, # of connection points: 3
#     Node 9, Type 1, BuildingBlock: INOVEN_clean_linker_0, # of connection points: 3
#     Node 10, Type 1, BuildingBlock: INOVEN_clean_linker_0, # of connection points: 3
#     Node 11, Type 1, BuildingBlock: INOVEN_clean_linker_0, # of connection points: 3
#     Edge 12, Type (0, 1), BuildingBlock: AJUNOK_clean_linker_0, # of connection points: 2
#     Edge 13, Type (0, 1), BuildingBlock: AJUNOK_clean_linker_0, # of connection points: 2
#     Edge 14, Type (0, 1), BuildingBlock: AJUNOK_clean_linker_0, # of connection points: 2
#     Edge 15, Type (0, 1), BuildingBlock: AJUNOK_clean_linker_0, # of connection points: 2
#     Edge 16, Type (0, 1), BuildingBlock: AJUNOK_clean_linker_0, # of connection points: 2
#     Edge 17, Type (0, 1), BuildingBlock: AJUNOK_clean_linker_0, # of connection points: 2
#     Edge 18, Type (0, 1), BuildingBlock: AJUNOK_clean_linker_0, # of connection points: 2
#     Edge 19, Type (0, 1), BuildingBlock: AJUNOK_clean_linker_0, # of connection points: 2
#     Edge 20, Type (0, 1), BuildingBlock: AJUNOK_clean_linker_0, # of connection points: 2
#     Edge 21, Type (0, 1), BuildingBlock: AJUNOK_clean_linker_0, # of connection points: 2
#     Edge 22, Type (0, 1), BuildingBlock: AJUNOK_clean_linker_0, # of connection points: 2
#     Edge 23, Type (0, 1), BuildingBlock: AJUNOK_clean_linker_0, # of connection points: 2
#     Edge 24, Type (0, 1), BuildingBlock: AJUNOK_clean_linker_0, # of connection points: 2
#     Edge 25, Type (0, 1), BuildingBlock: AJUNOK_clean_linker_0, # of connection points: 2
#     Edge 26, Type (0, 1), BuildingBlock: AJUNOK_clean_linker_0, # of connection points: 2
#     Edge 27, Type (0, 1), BuildingBlock: AJUNOK_clean_linker_0, # of connection points: 2
#     Edge 28, Type (0, 1), BuildingBlock: AJUNOK_clean_linker_0, # of connection points: 2
#     Edge 29, Type (0, 1), BuildingBlock: AJUNOK_clean_linker_0, # of connection points: 2
#     Edge 30, Type (0, 1), BuildingBlock: AJUNOK_clean_linker_0, # of connection points: 2
#     Edge 31, Type (0, 1), BuildingBlock: AJUNOK_clean_linker_0, # of connection points: 2
#     Edge 32, Type (0, 1), BuildingBlock: AJUNOK_clean_linker_0, # of connection points: 2
#     Edge 33, Type (0, 1), BuildingBlock: AJUNOK_clean_linker_0, # of connection points: 2
#     Edge 34, Type (0, 1), BuildingBlock: AJUNOK_clean_linker_0, # of connection points: 2
#     Edge 35, Type (0, 1), BuildingBlock: AJUNOK_clean_linker_0, # of connection points: 2
# Relax obj value: 0.098
# Max RMSD: 0.121
# Mean RMSD: 0.102
data_MOF--net-dag--node1-OJICUG_clean_sbu_0--node2-INOVEN_clean_linker_0--edge1-AJUNOK_clean_linker_0
_symmetry_space_group_name_H-M    P1
_symmetry_Int_Tables_number       1
_symmetry_cell_setting            triclinic
loop_
_symmetry_equiv_pos_as_xyz
'x, y, z'
_cell_length_a     26.827045
_cell_length_b     29.25037
_cell_length_c     28.853999
_cell_angle_alpha  94.287399
_cell_angle_beta   89.905883
_cell_angle_gamma 90.02135
loop_
_atom_site_label
_atom_site_type_symbol
_atom_site_fract_x
_atom_site_fract_y
_atom_site_fract_z
_atom_type_partial_charge
Sc0 Sc 0.09537 0.87946 0.0133 0.0
Sc1 Sc 0.12285 0.76419 0.03031 0.0
Sc2 Sc 0.20768 0.85322 0.06659 0.0
O3 O 0.14187 0.83221 0.03697 0.0
C4 C 0.20031 0.91955 0.98462 0.0
C5 C 0.08439 0.79886 0.93424 0.0
C6 C 0.23818 0.76381 0.00209 0.0
C7 C 0.01959 0.81098 0.05896 0.0
C8 C 0.13414 0.9311 0.10767 0.0
C9 C 0.17488 0.77397 0.13011 0.0
O10 O 0.15364 0.91449 0.97973 0.0
O11 O 0.09471 0.76639 0.95961 0.0
O12 O 0.24806 0.8015 0.02509 0.0
O13 O 0.03105 0.84904 0.0432 0.0
O14 O 0.1736 0.90747 0.11061 0.0
O15 O 0.1474 0.75243 0.09995 0.0
O16 O 0.10278 0.92473 0.07489 0.0
O17 O 0.04909 0.77693 0.05876 0.0
O18 O 0.19845 0.8101 0.12226 0.0
O19 O 0.08443 0.84064 0.94913 0.0
O20 O 0.22529 0.90035 0.01502 0.0
O21 O 0.19481 0.74596 0.00093 0.0
Sc22 Sc 0.70452 0.63628 0.47365 0.0
Sc23 Sc 0.62298 0.7286 0.50766 0.0
Sc24 Sc 0.5904 0.61494 0.52659 0.0
O25 O 0.63923 0.65999 0.50236 0.0
C26 C 0.62717 0.56166 0.43224 0.0
C27 C 0.67735 0.71626 0.40891 0.0
C28 C 0.51805 0.68587 0.48002 0.0
C29 C 0.73746 0.72492 0.53818 0.0
C30 C 0.69255 0.56952 0.55486 0.0
C31 C 0.58207 0.69667 0.60428 0.0
O32 O 0.66811 0.5833 0.4296 0.0
O33 O 0.64969 0.73876 0.43827 0.0
O34 O 0.52763 0.64819 0.49738 0.0
O35 O 0.74642 0.6866 0.51583 0.0
O36 O 0.6462 0.57664 0.55976 0.0
O37 O 0.5928 0.72823 0.57787 0.0
O38 O 0.71888 0.58832 0.52509 0.0
O39 O 0.69496 0.74437 0.53802 0.0
O40 O 0.5819 0.65452 0.59072 0.0
O41 O 0.69914 0.67952 0.41768 0.0
O42 O 0.59562 0.5696 0.46478 0.0
O43 O 0.54946 0.71825 0.47815 0.0
Sc44 Sc 0.87035 0.22539 0.01029 0.0
Sc45 Sc 0.78487 0.13715 0.97408 0.0
Sc46 Sc 0.89726 0.11097 0.02716 0.0
O47 O 0.85066 0.15792 0.00364 0.0
C48 C 0.97398 0.18081 0.98495 0.0
C49 C 0.81612 0.21765 0.91156 0.0
C50 C 0.86332 0.06387 0.92956 0.0
C51 C 0.75559 0.22655 0.03946 0.0
C52 C 0.90564 0.18911 0.10714 0.0
C53 C 0.79214 0.06761 0.05211 0.0
O54 O 0.94274 0.21252 0.97929 0.0
O55 O 0.79419 0.18038 0.91843 0.0
O56 O 0.89578 0.07165 0.9613 0.0
O57 O 0.7995 0.24313 0.04146 0.0
O58 O 0.90084 0.14705 0.09382 0.0
O59 O 0.7661 0.09032 0.02539 0.0
O60 O 0.90084 0.2212 0.07992 0.0
O61 O 0.7445 0.18947 0.01561 0.0
O62 O 0.83914 0.07074 0.05454 0.0
O63 O 0.84345 0.23885 0.94201 0.0
O64 O 0.96321 0.14468 0.00457 0.0
O65 O 0.82046 0.08283 0.93051 0.0
Sc66 Sc 0.4063 0.37392 0.51625 0.0
Sc67 Sc 0.28926 0.35603 0.56471 0.0
Sc68 Sc 0.36908 0.2615 0.53396 0.0
O69 O 0.35486 0.33033 0.53856 0.0
C70 C 0.41055 0.29345 0.43733 0.0
C71 C 0.30642 0.4216 0.48413 0.0
C72 C 0.25533 0.26698 0.50171 0.0
C73 C 0.37015 0.42594 0.61083 0.0
C74 C 0.47554 0.30001 0.5613 0.0
C75 C 0.31164 0.27618 0.63124 0.0
O76 O 0.41171 0.33561 0.45108 0.0
O77 O 0.27732 0.40197 0.51098 0.0
O78 O 0.29748 0.24706 0.50262 0.0
O79 O 0.40364 0.41568 0.58057 0.0
O80 O 0.44243 0.26938 0.56466 0.0
O81 O 0.29192 0.3136 0.62148 0.0
O82 O 0.46766 0.3375 0.5432 0.0
O83 O 0.32635 0.40898 0.60863 0.0
O84 O 0.33992 0.25282 0.60299 0.0
O85 O 0.35319 0.41594 0.48429 0.0
O86 O 0.40019 0.2618 0.46389 0.0
O87 O 0.2468 0.30578 0.52316 0.0
H88 H 0.04528 0.19842 0.30744 0.0
H89 H 0.02241 0.09999 0.19176 0.0
H90 H 0.14356 0.08196 0.28591 0.0
N91 N 0.12601 0.15552 0.34146 0.0
N92 N 0.11591 0.1909 0.36647 0.0
C93 C 0.05559 0.16648 0.28842 0.0
C94 C 0.02892 0.15154 0.24852 0.0
C95 C 0.09641 0.14054 0.30266 0.0
C96 C 0.11086 0.10064 0.27598 0.0
C97 C 0.08496 0.08636 0.2353 0.0
C98 C 0.04302 0.11109 0.22293 0.0
H99 H 0.36237 0.57295 0.79395 0.0
H100 H 0.47341 0.59936 0.69168 0.0
H101 H 0.44328 0.70076 0.80325 0.0
N102 N 0.37025 0.65198 0.84288 0.0
N103 N 0.37867 0.68818 0.86718 0.0
C104 C 0.39103 0.59476 0.78088 0.0
C105 C 0.41789 0.58017 0.74073 0.0
C106 C 0.4003 0.63779 0.80402 0.0
C107 C 0.43664 0.6669 0.78656 0.0
C108 C 0.46338 0.65257 0.74642 0.0
C109 C 0.45397 0.60936 0.72386 0.0
H110 H 0.7087 0.90374 0.18949 0.0
H111 H 0.82533 0.89557 0.08733 0.0
H112 H 0.80987 0.78883 0.18074 0.0
N113 N 0.73077 0.82667 0.22745 0.0
N114 N 0.73606 0.78611 0.23696 0.0
C115 C 0.73937 0.8851 0.17246 0.0
C116 C 0.76388 0.90301 0.13502 0.0
C117 C 0.75496 0.84334 0.18839 0.0
C118 C 0.79657 0.82036 0.16762 0.0
C119 C 0.82242 0.83917 0.13126 0.0
C120 C 0.80491 0.87991 0.11453 0.0
H121 H 0.77601 0.40738 0.69165 0.0
H122 H 0.66195 0.38928 0.58764 0.0
H123 H 0.68419 0.28593 0.68345 0.0
N124 N 0.76023 0.32917 0.73006 0.0
N125 N 0.75607 0.28895 0.74096 0.0
C126 C 0.74713 0.38646 0.67451 0.0
C127 C 0.72158 0.40218 0.63655 0.0
C128 C 0.73489 0.34392 0.6908 0.0
C129 C 0.69554 0.31787 0.66985 0.0
C130 C 0.6694 0.33388 0.63236 0.0
C131 C 0.68324 0.37571 0.61548 0.0
H132 H 0.5468 0.28859 0.23601 0.0
H133 H 0.51781 0.3864 0.35111 0.0
H134 H 0.638 0.40981 0.25705 0.0
N135 N 0.6244 0.33582 0.20148 0.0
N136 N 0.61634 0.30013 0.17617 0.0
C137 C 0.55524 0.32103 0.255 0.0
C138 C 0.52773 0.33476 0.29485 0.0
C139 C 0.59434 0.34899 0.24058 0.0
C140 C 0.60648 0.3896 0.26718 0.0
C141 C 0.57981 0.40285 0.3078 0.0
C142 C 0.53933 0.37608 0.32021 0.0
H143 H 0.28274 0.08565 0.8481 0.0
H144 H 0.1668 0.09018 0.95103 0.0
H145 H 0.18179 0.20069 0.86228 0.0
N146 N 0.25964 0.16401 0.81269 0.0
N147 N 0.24824 0.20271 0.8008 0.0
C148 C 0.25216 0.1037 0.86592 0.0
C149 C 0.22784 0.08438 0.9027 0.0
C150 C 0.2362 0.14599 0.85149 0.0
C151 C 0.19498 0.16838 0.87366 0.0
C152 C 0.16949 0.14833 0.90943 0.0
C153 C 0.18694 0.10678 0.92427 0.0
H154 H 0.21849 0.58134 0.3423 0.0
H155 H 0.33459 0.59474 0.44439 0.0
H156 H 0.3067 0.70495 0.3576 0.0
N157 N 0.23203 0.6621 0.30858 0.0
N158 N 0.2327 0.70349 0.30113 0.0
C159 C 0.24711 0.60188 0.3603 0.0
C160 C 0.2741 0.58414 0.39628 0.0
C161 C 0.25791 0.64586 0.34683 0.0
C162 C 0.29694 0.67159 0.36888 0.0
C163 C 0.32487 0.65328 0.40414 0.0
C164 C 0.31238 0.60993 0.41813 0.0
H165 H 0.8573 0.91601 0.74649 0.0
H166 H 0.97194 0.8952 0.8467 0.0
H167 H 0.94429 0.79161 0.73662 0.0
N168 N 0.86821 0.83718 0.69773 0.0
N169 N 0.87655 0.80027 0.67456 0.0
C170 C 0.88722 0.89546 0.75923 0.0
C171 C 0.91425 0.91153 0.79873 0.0
C172 C 0.89805 0.85263 0.73628 0.0
C173 C 0.93619 0.82521 0.75329 0.0
C174 C 0.96327 0.84111 0.79267 0.0
C175 C 0.95216 0.88405 0.81508 0.0
C176 C 0.12441 0.96657 0.18894 0.0
C177 C 0.1264 0.97105 0.14081 0.0
C178 C 0.11253 0.00442 0.21992 0.0
C179 C 0.10291 0.0477 0.20349 0.0
H180 H 0.13022 0.9334 0.20244 0.0
H181 H 0.10917 -0.00051 0.25662 0.0
S182 S 0.11241 0.07814 0.08111 0.0
N183 N 0.12331 0.02246 0.07862 0.0
N184 N 0.10274 0.09375 0.13658 0.0
C185 C 0.10809 0.05287 0.15563 0.0
C186 C 0.11936 0.01445 0.12431 0.0
C187 C 0.58036 0.68313 0.68725 0.0
C188 C 0.56133 0.70748 0.65094 0.0
C189 C 0.54942 0.67082 0.72341 0.0
C190 C 0.49876 0.68282 0.72433 0.0
H191 H 0.6174 0.66839 0.68445 0.0
H192 H 0.56364 0.64727 0.74746 0.0
S193 S 0.43374 0.75413 0.6427 0.0
N194 N 0.49122 0.74941 0.62224 0.0
N195 N 0.43296 0.72637 0.69052 0.0
C196 C 0.48124 0.71256 0.69203 0.0
C197 C 0.51278 0.72511 0.65519 0.0
C198 C 0.78244 0.02774 0.1243 0.0
C199 C 0.76858 0.03196 0.07786 0.0
C200 C 0.77415 0.98686 0.14541 0.0
C201 C 0.75266 0.94891 0.12031 0.0
H202 H 0.8033 0.05487 0.14314 0.0
H203 H 0.78932 0.98338 0.17976 0.0
S204 S 0.70498 0.94431 -0.00023 0.0
N205 N 0.72744 -0.00322 0.00922 0.0
N206 N 0.71329 0.91924 0.04863 0.0
C207 C 0.73469 0.95406 0.07539 0.0
C208 C 0.74229 -0.00406 0.05416 0.0
C209 C 0.53473 0.29695 0.62711 0.0
C210 C 0.52601 0.29333 0.57902 0.0
C211 C 0.58291 0.30566 0.64458 0.0
C212 C 0.62341 0.31103 0.61433 0.0
H213 H 0.50371 0.29703 0.65122 0.0
H214 H 0.58766 0.31213 0.68177 0.0
S215 S 0.62069 0.29606 0.48574 0.0
N216 N 0.56206 0.28968 0.50165 0.0
N217 N 0.6527 0.3053 0.5344 0.0
C218 C 0.61564 0.30298 0.56632 0.0
C219 C 0.56679 0.29438 0.54866 0.0
C220 C 0.61717 0.52424 0.35168 0.0
C221 C 0.61837 0.52117 0.40002 0.0
C222 C 0.60559 0.48559 0.32164 0.0
C223 C 0.59554 0.44282 0.33918 0.0
H224 H 0.62372 0.55684 0.33721 0.0
H225 H 0.6032 0.48946 0.28467 0.0
S226 S 0.60235 0.41634 0.46296 0.0
N227 N 0.61346 0.47188 0.46384 0.0
N228 N 0.59376 0.39904 0.40777 0.0
C229 C 0.59952 0.43919 0.38743 0.0
C230 C 0.61041 0.47846 0.41776 0.0
C231 C 0.06537 0.17596 0.99538 0.0
C232 C 0.02478 0.18389 0.96638 0.0
C233 C 0.11318 0.16835 0.97697 0.0
C234 C 0.12187 0.1674 0.92877 0.0
H235 H 0.05964 0.17358 0.03232 0.0
H236 H 0.14306 0.16062 0.00038 0.0
S237 S 0.02759 0.18772 0.83851 0.0
N238 N 0.99618 0.19287 0.88791 0.0
N239 N 0.0858 0.17689 0.85269 0.0
C240 C 0.08189 0.17769 0.8997 0.0
C241 C 0.0333 0.18624 0.91868 0.0
C242 C 0.25133 0.4882 0.4722 0.0
C243 C 0.28651 0.45589 0.45426 0.0
C244 C 0.24258 0.52845 0.44995 0.0
C245 C 0.26787 0.53673 0.40875 0.0
H246 H 0.23405 0.4845 0.50568 0.0
H247 H 0.21925 0.55486 0.46704 0.0
S248 S 0.35664 0.45911 0.34374 0.0
N249 N 0.34157 0.43195 0.38994 0.0
N250 N 0.32444 0.50739 0.34797 0.0
C251 C 0.29899 0.50255 0.38808 0.0
C252 C 0.30847 0.46204 0.41092 0.0
C253 C 0.01762 0.76938 0.88124 0.0
C254 C 0.06497 0.78962 0.88687 0.0
C255 C 0.98606 0.78108 0.84516 0.0
C256 C 0.00137 0.81297 0.81387 0.0
H257 H 0.00241 0.74952 0.90818 0.0
H258 H 0.94767 0.76956 0.84523 0.0
S259 S 0.12563 0.86708 0.80805 0.0
N260 N 0.12872 0.83618 0.8536 0.0
N261 N 0.06942 0.85809 0.78593 0.0
C262 C 0.05095 0.82806 0.81535 0.0
C263 C 0.08293 0.81622 0.85187 0.0
C264 C 0.83863 -0.00017 0.87175 0.0
C265 C 0.87564 0.02954 0.89101 0.0
C266 C 0.85099 0.96302 0.83979 0.0
C267 C 0.9007 0.95496 0.82577 0.0
H268 H 0.80028 0.00357 0.88323 0.0
H269 H 0.82182 0.93939 0.82788 0.0
S270 S 0.00987 0.02787 0.85958 0.0
N271 N 0.96296 0.05185 0.88947 0.0
N272 N 0.98597 0.98325 0.82887 0.0
C273 C 0.9374 0.98641 0.84226 0.0
C274 C 0.92494 0.02354 0.87503 0.0
C275 C 0.41037 0.30962 0.35501 0.0
C276 C 0.42861 0.28265 0.38965 0.0
C277 C 0.44086 0.32081 0.31812 0.0
C278 C 0.49023 0.30503 0.31479 0.0
H279 H 0.37497 0.32721 0.35987 0.0
H280 H 0.42803 0.34661 0.29583 0.0
S281 S 0.55092 0.22432 0.38985 0.0
N282 N 0.49515 0.23327 0.4132 0.0
N283 N 0.55259 0.25419 0.34348 0.0
C284 C 0.50593 0.27228 0.34482 0.0
C285 C 0.47487 0.26094 0.38248 0.0
C286 C 0.20907 0.95958 0.91222 0.0
C287 C 0.22401 0.95486 0.95832 0.0
C288 C 0.2171 0.00061 0.8913 0.0
C289 C 0.23964 0.03816 0.91617 0.0
H290 H 0.18741 0.93283 0.89366 0.0
H291 H 0.20088 0.00459 0.85745 0.0
S292 S 0.29082 0.04138 0.03535 0.0
N293 N 0.26759 0.9892 0.02608 0.0
N294 N 0.28143 0.06684 0.9869 0.0
C295 C 0.25898 0.0324 0.96045 0.0
C296 C 0.25151 0.99043 0.98155 0.0
C297 C 0.42664 0.68412 0.49038 0.0
C298 C 0.46761 0.6911 0.46143 0.0
C299 C 0.37888 0.67702 0.47185 0.0
C300 C 0.37069 0.67566 0.4236 0.0
H301 H 0.43208 0.68145 0.5273 0.0
H302 H 0.34884 0.66903 0.49507 0.0
S303 S 0.46542 0.6966 0.33376 0.0
N304 N 0.49671 0.7009 0.38317 0.0
N305 N 0.40701 0.68601 0.34774 0.0
C306 C 0.41077 0.68629 0.39471 0.0
C307 C 0.45938 0.69423 0.41381 0.0
C308 C 0.34452 0.48948 0.66898 0.0
C309 C 0.38227 0.46105 0.64882 0.0
C310 C 0.35607 0.52667 0.70068 0.0
C311 C 0.4057 0.53652 0.71357 0.0
H312 H 0.30603 0.48437 0.65857 0.0
H313 H 0.32617 0.54916 0.71337 0.0
S314 S 0.51722 0.46792 0.67705 0.0
N315 N 0.47066 0.44211 0.64834 0.0
N316 N 0.49209 0.51159 0.70833 0.0
C317 C 0.44336 0.50654 0.69611 0.0
C318 C 0.43171 0.46892 0.66365 0.0
C319 C 0.92825 0.81112 0.04755 0.0
C320 C 0.96892 0.80682 0.07743 0.0
C321 C 0.87988 0.81724 0.06517 0.0
C322 C 0.8707 0.82025 0.11336 0.0
H323 H 0.93423 0.81193 0.01046 0.0
H324 H 0.84985 0.82247 0.04105 0.0
S325 S 0.96506 0.80862 0.20571 0.0
N326 N 0.99725 0.80287 0.15676 0.0
N327 N 0.90644 0.81596 0.19044 0.0
C328 C 0.9109 0.81329 0.1434 0.0
C329 C 0.96011 0.80636 0.12526 0.0
C330 C 0.69932 0.52716 0.62612 0.0
C331 C 0.71409 0.53233 0.58001 0.0
C332 C 0.70736 0.48587 0.64659 0.0
C333 C 0.72962 0.44843 0.62123 0.0
H334 H 0.67848 0.55409 0.64534 0.0
H335 H 0.69214 0.48188 0.68087 0.0
S336 S 0.77808 0.44545 0.50091 0.0
N337 N 0.75559 0.49781 0.51103 0.0
N338 N 0.76938 0.41973 0.54934 0.0
C339 C 0.74765 0.45417 0.57642 0.0
C340 C 0.74027 0.49639 0.55582 0.0
C341 C 0.90977 0.17138 0.18938 0.0
C342 C 0.92623 0.19859 0.15415 0.0
C343 C 0.94126 0.16187 0.22606 0.0
C344 C 0.98993 0.17946 0.22853 0.0
H345 H 0.87482 0.15288 0.18552 0.0
H346 H 0.92982 0.13614 0.24905 0.0
S347 S 0.04661 0.26017 0.15081 0.0
N348 N 0.99073 0.24935 0.12862 0.0
N349 N 0.05001 0.23134 0.1978 0.0
C350 C 0.00394 0.212 0.19759 0.0
C351 C 0.97188 0.22173 0.16019 0.0
C352 C 0.18139 0.70837 0.1809 0.0
C353 C 0.18196 0.7559 0.17611 0.0
C354 C 0.19583 0.6907 0.22276 0.0
C355 C 0.21091 0.72021 0.26103 0.0
H356 H 0.17224 0.68464 0.15151 0.0
H357 H 0.19725 0.65387 0.22442 0.0
S358 S 0.21172 0.84683 0.26875 0.0
N359 N 0.19331 0.832 0.21513 0.0
N360 N 0.22094 0.7983 0.29326 0.0
C361 C 0.20861 0.76747 0.25755 0.0
C362 C 0.19397 0.78552 0.21525 0.0
C363 C 0.76867 0.78973 0.59214 0.0
C364 C 0.77687 0.7462 0.56897 0.0
C365 C 0.80202 0.80836 0.62575 0.0
C366 C 0.84495 0.78412 0.63746 0.0
H367 H 0.73552 0.80923 0.58528 0.0
H368 H 0.79333 0.84135 0.64344 0.0
S369 S 0.8862 0.67101 0.58579 0.0
N370 N 0.83334 0.68073 0.55898 0.0
N371 N 0.89556 0.71634 0.62239 0.0
C372 C 0.85478 0.74178 0.61356 0.0
C373 C 0.82098 0.72265 0.57924 0.0
C374 C 0.67458 0.22411 0.08237 0.0
C375 C 0.71672 0.24916 0.06974 0.0
C376 C 0.641 0.24228 0.1161 0.0
C377 C 0.64813 0.28598 0.13838 0.0
H378 H 0.66854 0.18938 0.06767 0.0
H379 H 0.61014 0.22132 0.12625 0.0
S380 S 0.74822 0.36846 0.11307 0.0
N381 N 0.76057 0.32221 0.07869 0.0
N382 N 0.69748 0.35619 0.14208 0.0
C383 C 0.68837 0.31267 0.12422 0.0
C384 C 0.72262 0.29422 0.08987 0.0
C385 C 0.31441 0.21458 0.68766 0.0
C386 C 0.29893 0.25864 0.67687 0.0
C387 C 0.29921 0.19617 0.729 0.0
C388 C 0.26813 0.2214 0.76085 0.0
H389 H 0.3374 0.19366 0.66358 0.0
H390 H 0.31086 0.16178 0.73543 0.0
S391 S 0.21944 0.33839 0.75168 0.0
N392 N 0.25245 0.32754 0.7038 0.0
N393 N 0.22408 0.29204 0.78065 0.0
C394 C 0.25374 0.26549 0.75141 0.0
C395 C 0.26906 0.28443 0.7097 0.0
C396 C 0.68254 0.7809 0.35656 0.0
C397 C 0.68645 0.73374 0.36279 0.0
C398 C 0.69696 0.79841 0.31456 0.0
C399 C 0.7155 0.76911 0.27753 0.0
H400 H 0.67025 0.80467 0.38487 0.0
H401 H 0.69529 0.83508 0.31175 0.0
S402 S 0.72696 0.64306 0.2735 0.0
N403 N 0.70546 0.65785 0.32615 0.0
N404 N 0.73317 0.6914 0.24794 0.0
C405 C 0.71718 0.72208 0.28245 0.0
C406 C 0.70246 0.70414 0.32485 0.0
C407 C 0.7876 0.20856 0.82935 0.0
C408 C 0.80734 0.23712 0.86634 0.0
C409 C 0.77299 0.22624 0.7879 0.0
C410 C 0.77765 0.27291 0.7815 0.0
H411 H 0.7821 0.17227 0.83273 0.0
H412 H 0.75636 0.20341 0.76093 0.0
S413 S 0.83049 0.36223 0.8657 0.0
N414 N 0.8335 0.31447 0.89268 0.0
N415 N 0.80603 0.34767 0.81422 0.0
C416 C 0.79945 0.30191 0.81708 0.0
C417 C 0.8144 0.28388 0.85961 0.0
C418 C 0.22477 0.20235 0.4474 0.0
C419 C 0.21587 0.2454 0.47132 0.0
C420 C 0.19129 0.18349 0.41412 0.0
C421 C 0.14745 0.20695 0.40359 0.0
H422 H 0.25862 0.18348 0.4533 0.0
H423 H 0.20057 0.15098 0.39572 0.0
S424 S 0.10385 0.31817 0.45799 0.0
N425 N 0.15763 0.30933 0.48362 0.0
N426 N 0.09505 0.27322 0.42079 0.0
C427 C 0.1368 0.24863 0.42841 0.0
C428 C 0.17082 0.26806 0.46236 0.0
C429 C 0.26799 0.69968 0.94646 0.0
C430 C 0.27774 0.74173 0.97199 0.0
C431 C 0.30179 0.68097 0.91319 0.0
C432 C 0.34666 0.70369 0.90424 0.0
H433 H 0.2333 0.6816 0.95106 0.0
H434 H 0.2919 0.64934 0.89345 0.0
S435 S 0.39257 0.81201 0.96316 0.0
N436 N 0.33789 0.8037 0.98751 0.0
N437 N 0.40075 0.76805 0.92457 0.0
C438 C 0.35799 0.7443 0.9306 0.0
C439 C 0.32381 0.76346 0.96462 0.0
loop_
_geom_bond_atom_site_label_1
_geom_bond_atom_site_label_2
_geom_bond_distance
_geom_bond_site_symmetry_2
_ccdc_geom_bond_type
Sc0 O3 2.025 . S
Sc0 O10 2.105 1_554 S
Sc0 O13 2.105 . S
Sc0 O16 2.105 . S
Sc0 O19 2.105 1_554 S
Sc1 O3 2.025 . S
Sc1 O11 2.105 1_554 S
Sc1 O15 2.105 . S
Sc1 O17 2.105 . S
Sc1 O21 2.105 1_554 S
Sc2 O3 2.025 . S
Sc2 O12 2.105 . S
Sc2 O14 2.105 . S
Sc2 O18 2.105 . S
Sc2 O20 2.105 . S
O3 Sc0 2.025 . S
O3 Sc1 2.025 . S
O3 Sc2 2.025 . S
C4 O10 1.268 . S
C4 O20 1.268 1_556 S
C5 O11 1.268 . S
C5 O19 1.268 . S
C6 O12 1.268 1_556 S
C6 O21 1.268 . S
C7 O13 1.268 . S
C7 O17 1.268 . S
C8 O14 1.268 . S
C8 O16 1.268 . S
C9 O15 1.268 . S
C9 O18 1.268 . S
O10 Sc0 2.105 1_556 S
O10 C4 1.268 . S
O11 Sc1 2.105 1_556 S
O11 C5 1.268 . S
O12 Sc2 2.105 . S
O12 C6 1.268 1_554 S
O13 Sc0 2.105 . S
O13 C7 1.268 . S
O14 Sc2 2.105 . S
O14 C8 1.268 . S
O15 Sc1 2.105 . S
O15 C9 1.268 . S
O16 Sc0 2.105 . S
O16 C8 1.268 . S
O17 Sc1 2.105 . S
O17 C7 1.268 . S
O18 Sc2 2.105 . S
O18 C9 1.268 . S
O19 Sc0 2.105 1_556 S
O19 C5 1.268 . S
O20 Sc2 2.105 . S
O20 C4 1.268 1_554 S
O21 Sc1 2.105 1_556 S
O21 C6 1.268 . S
Sc22 O25 2.025 . S
Sc22 O32 2.105 . S
Sc22 O35 2.105 . S
Sc22 O38 2.105 . S
Sc22 O41 2.105 . S
Sc23 O25 2.025 . S
Sc23 O33 2.105 . S
Sc23 O37 2.105 . S
Sc23 O39 2.105 . S
Sc23 O43 2.105 . S
Sc24 O25 2.025 . S
Sc24 O34 2.105 . S
Sc24 O36 2.105 . S
Sc24 O40 2.105 . S
Sc24 O42 2.105 . S
O25 Sc22 2.025 . S
O25 Sc23 2.025 . S
O25 Sc24 2.025 . S
C26 O32 1.268 . S
C26 O42 1.268 . S
C27 O33 1.268 . S
C27 O41 1.268 . S
C28 O34 1.268 . S
C28 O43 1.268 . S
C29 O35 1.268 . S
C29 O39 1.268 . S
C30 O36 1.268 . S
C30 O38 1.268 . S
C31 O37 1.268 . S
C31 O40 1.268 . S
O32 Sc22 2.105 . S
O32 C26 1.268 . S
O33 Sc23 2.105 . S
O33 C27 1.268 . S
O34 Sc24 2.105 . S
O34 C28 1.268 . S
O35 Sc22 2.105 . S
O35 C29 1.268 . S
O36 Sc24 2.105 . S
O36 C30 1.268 . S
O37 Sc23 2.105 . S
O37 C31 1.268 . S
O38 Sc22 2.105 . S
O38 C30 1.268 . S
O39 Sc23 2.105 . S
O39 C29 1.268 . S
O40 Sc24 2.105 . S
O40 C31 1.268 . S
O41 Sc22 2.105 . S
O41 C27 1.268 . S
O42 Sc24 2.105 . S
O42 C26 1.268 . S
O43 Sc23 2.105 . S
O43 C28 1.268 . S
Sc44 O47 2.026 . S
Sc44 O54 2.105 1_554 S
Sc44 O57 2.105 . S
Sc44 O60 2.105 . S
Sc44 O63 2.105 1_554 S
Sc45 O47 2.024 1_556 S
Sc45 O55 2.105 . S
Sc45 O59 2.105 1_556 S
Sc45 O61 2.105 1_556 S
Sc45 O65 2.105 . S
Sc46 O47 2.027 . S
Sc46 O56 2.105 1_554 S
Sc46 O58 2.105 . S
Sc46 O62 2.105 . S
Sc46 O64 2.105 1_554 S
O47 Sc44 2.026 . S
O47 Sc45 2.024 1_554 S
O47 Sc46 2.027 . S
C48 O54 1.268 . S
C48 O64 1.268 . S
C49 O55 1.268 . S
C49 O63 1.268 . S
C50 O56 1.268 . S
C50 O65 1.268 . S
C51 O57 1.268 . S
C51 O61 1.268 . S
C52 O58 1.268 . S
C52 O60 1.268 . S
C53 O59 1.268 . S
C53 O62 1.268 . S
O54 Sc44 2.105 1_556 S
O54 C48 1.268 . S
O55 Sc45 2.105 . S
O55 C49 1.268 . S
O56 Sc46 2.105 1_556 S
O56 C50 1.268 . S
O57 Sc44 2.105 . S
O57 C51 1.268 . S
O58 Sc46 2.105 . S
O58 C52 1.268 . S
O59 Sc45 2.105 1_554 S
O59 C53 1.268 . S
O60 Sc44 2.105 . S
O60 C52 1.268 . S
O61 Sc45 2.105 1_554 S
O61 C51 1.268 . S
O62 Sc46 2.105 . S
O62 C53 1.268 . S
O63 Sc44 2.105 1_556 S
O63 C49 1.268 . S
O64 Sc46 2.105 1_556 S
O64 C48 1.268 . S
O65 Sc45 2.105 . S
O65 C50 1.268 . S
Sc66 O69 2.025 . S
Sc66 O76 2.105 . S
Sc66 O79 2.105 . S
Sc66 O82 2.105 . S
Sc66 O85 2.105 . S
Sc67 O69 2.025 . S
Sc67 O77 2.105 . S
Sc67 O81 2.105 . S
Sc67 O83 2.105 . S
Sc67 O87 2.105 . S
Sc68 O69 2.025 . S
Sc68 O78 2.105 . S
Sc68 O80 2.105 . S
Sc68 O84 2.105 . S
Sc68 O86 2.105 . S
O69 Sc66 2.025 . S
O69 Sc67 2.025 . S
O69 Sc68 2.025 . S
C70 O76 1.268 . S
C70 O86 1.268 . S
C71 O77 1.268 . S
C71 O85 1.268 . S
C72 O78 1.268 . S
C72 O87 1.268 . S
C73 O79 1.268 . S
C73 O83 1.268 . S
C74 O80 1.268 . S
C74 O82 1.268 . S
C75 O81 1.268 . S
C75 O84 1.268 . S
O76 Sc66 2.105 . S
O76 C70 1.268 . S
O77 Sc67 2.105 . S
O77 C71 1.268 . S
O78 Sc68 2.105 . S
O78 C72 1.268 . S
O79 Sc66 2.105 . S
O79 C73 1.268 . S
O80 Sc68 2.105 . S
O80 C74 1.268 . S
O81 Sc67 2.105 . S
O81 C75 1.268 . S
O82 Sc66 2.105 . S
O82 C74 1.268 . S
O83 Sc67 2.105 . S
O83 C73 1.268 . S
O84 Sc68 2.105 . S
O84 C75 1.268 . S
O85 Sc66 2.105 . S
O85 C71 1.268 . S
O86 Sc68 2.105 . S
O86 C70 1.268 . S
O87 Sc67 2.105 . S
O87 C72 1.268 . S
H88 C93 0.929 . S
H89 C98 0.931 . S
H90 C96 0.930 . S
N91 N92 1.234 . S
N91 C95 1.453 . S
N92 N91 1.234 . S
C93 H88 0.929 . S
C93 C94 1.373 . S
C93 C95 1.368 . S
C94 C93 1.373 . S
C94 C98 1.397 . S
C95 N91 1.453 . S
C95 C93 1.368 . S
C95 C96 1.373 . S
C96 H90 0.930 . S
C96 C95 1.373 . S
C96 C97 1.371 . S
C97 C96 1.371 . S
C97 C98 1.383 . S
C98 H89 0.931 . S
C98 C94 1.397 . S
C98 C97 1.383 . S
H99 C104 0.929 . S
H100 C109 0.931 . S
H101 C107 0.930 . S
N102 N103 1.234 . S
N102 C106 1.453 . S
N103 N102 1.234 . S
C104 H99 0.929 . S
C104 C105 1.373 . S
C104 C106 1.368 . S
C105 C104 1.373 . S
C105 C109 1.397 . S
C106 N102 1.453 . S
C106 C104 1.368 . S
C106 C107 1.373 . S
C107 H101 0.930 . S
C107 C106 1.373 . S
C107 C108 1.371 . S
C108 C107 1.371 . S
C108 C109 1.383 . S
C109 H100 0.931 . S
C109 C105 1.397 . S
C109 C108 1.383 . S
H110 C115 0.929 . S
H111 C120 0.931 . S
H112 C118 0.930 . S
N113 N114 1.234 . S
N113 C117 1.453 . S
N114 N113 1.234 . S
C115 H110 0.929 . S
C115 C116 1.373 . S
C115 C117 1.368 . S
C116 C115 1.373 . S
C116 C120 1.397 . S
C117 N113 1.453 . S
C117 C115 1.368 . S
C117 C118 1.373 . S
C118 H112 0.930 . S
C118 C117 1.373 . S
C118 C119 1.371 . S
C119 C118 1.371 . S
C119 C120 1.383 . S
C120 H111 0.931 . S
C120 C116 1.397 . S
C120 C119 1.383 . S
H121 C126 0.929 . S
H122 C131 0.931 . S
H123 C129 0.930 . S
N124 N125 1.234 . S
N124 C128 1.453 . S
N125 N124 1.234 . S
C126 H121 0.929 . S
C126 C127 1.373 . S
C126 C128 1.368 . S
C127 C126 1.373 . S
C127 C131 1.397 . S
C128 N124 1.453 . S
C128 C126 1.368 . S
C128 C129 1.373 . S
C129 H123 0.930 . S
C129 C128 1.373 . S
C129 C130 1.371 . S
C130 C129 1.371 . S
C130 C131 1.383 . S
C131 H122 0.931 . S
C131 C127 1.397 . S
C131 C130 1.383 . S
H132 C137 0.929 . S
H133 C142 0.931 . S
H134 C140 0.930 . S
N135 N136 1.234 . S
N135 C139 1.453 . S
N136 N135 1.234 . S
C137 H132 0.929 . S
C137 C138 1.373 . S
C137 C139 1.368 . S
C138 C137 1.373 . S
C138 C142 1.397 . S
C139 N135 1.453 . S
C139 C137 1.368 . S
C139 C140 1.373 . S
C140 H134 0.930 . S
C140 C139 1.373 . S
C140 C141 1.371 . S
C141 C140 1.371 . S
C141 C142 1.383 . S
C142 H133 0.931 . S
C142 C138 1.397 . S
C142 C141 1.383 . S
H143 C148 0.929 . S
H144 C153 0.931 . S
H145 C151 0.930 . S
N146 N147 1.234 . S
N146 C150 1.453 . S
N147 N146 1.234 . S
C148 H143 0.929 . S
C148 C149 1.373 . S
C148 C150 1.368 . S
C149 C148 1.373 . S
C149 C153 1.397 . S
C150 N146 1.453 . S
C150 C148 1.368 . S
C150 C151 1.373 . S
C151 H145 0.930 . S
C151 C150 1.373 . S
C151 C152 1.371 . S
C152 C151 1.371 . S
C152 C153 1.383 . S
C153 H144 0.931 . S
C153 C149 1.397 . S
C153 C152 1.383 . S
H154 C159 0.929 . S
H155 C164 0.931 . S
H156 C162 0.930 . S
N157 N158 1.234 . S
N157 C161 1.453 . S
N158 N157 1.234 . S
C159 H154 0.929 . S
C159 C160 1.373 . S
C159 C161 1.368 . S
C160 C159 1.373 . S
C160 C164 1.397 . S
C161 N157 1.453 . S
C161 C159 1.368 . S
C161 C162 1.373 . S
C162 H156 0.930 . S
C162 C161 1.373 . S
C162 C163 1.371 . S
C163 C162 1.371 . S
C163 C164 1.383 . S
C164 H155 0.931 . S
C164 C160 1.397 . S
C164 C163 1.383 . S
H165 C170 0.929 . S
H166 C175 0.931 . S
H167 C173 0.930 . S
N168 N169 1.234 . S
N168 C172 1.453 . S
N169 N168 1.234 . S
C170 H165 0.929 . S
C170 C171 1.373 . S
C170 C172 1.368 . S
C171 C170 1.373 . S
C171 C175 1.397 . S
C172 N168 1.453 . S
C172 C170 1.368 . S
C172 C173 1.373 . S
C173 H167 0.930 . S
C173 C172 1.373 . S
C173 C174 1.371 . S
C174 C173 1.371 . S
C174 C175 1.383 . S
C175 H166 0.931 . S
C175 C171 1.397 . S
C175 C174 1.383 . S
C176 C177 1.369 . S
C176 C178 1.419 1_565 S
C176 H180 0.930 . S
C177 C176 1.369 . S
C177 C186 1.429 1_565 S
C178 C176 1.419 1_545 S
C178 C179 1.363 . S
C178 H181 0.929 . S
C179 C178 1.363 . S
C179 C185 1.428 . S
H180 C176 0.930 . S
H181 C178 0.929 . S
S182 N183 1.613 . S
S182 N184 1.610 . S
N183 S182 1.613 . S
N183 C186 1.350 . S
N184 S182 1.610 . S
N184 C185 1.351 . S
C185 C179 1.428 . S
C185 N184 1.351 . S
C185 C186 1.434 . S
C186 C177 1.429 1_545 S
C186 N183 1.350 . S
C186 C185 1.434 . S
C187 C188 1.369 . S
C187 C189 1.419 . S
C187 H191 0.930 . S
C188 C187 1.369 . S
C188 C197 1.429 . S
C189 C187 1.419 . S
C189 C190 1.363 . S
C189 H192 0.929 . S
C190 C189 1.363 . S
C190 C196 1.428 . S
H191 C187 0.930 . S
H192 C189 0.929 . S
S193 N194 1.613 . S
S193 N195 1.610 . S
N194 S193 1.613 . S
N194 C197 1.350 . S
N195 S193 1.610 . S
N195 C196 1.351 . S
C196 C190 1.428 . S
C196 N195 1.351 . S
C196 C197 1.434 . S
C197 C188 1.429 . S
C197 N194 1.350 . S
C197 C196 1.434 . S
C198 C199 1.369 . S
C198 C200 1.419 1_545 S
C198 H202 0.930 . S
C199 C198 1.369 . S
C199 C208 1.429 1_545 S
C200 C198 1.419 1_565 S
C200 C201 1.363 . S
C200 H203 0.929 . S
C201 C200 1.363 . S
C201 C207 1.428 . S
H202 C198 0.930 . S
H203 C200 0.929 . S
S204 N205 1.613 1_565 S
S204 N206 1.610 . S
N205 S204 1.613 1_545 S
N205 C208 1.350 1_545 S
N206 S204 1.610 . S
N206 C207 1.351 . S
C207 C201 1.428 . S
C207 N206 1.351 . S
C207 C208 1.434 . S
C208 C199 1.429 1_565 S
C208 N205 1.350 1_565 S
C208 C207 1.434 . S
C209 C210 1.369 . S
C209 C211 1.419 . S
C209 H213 0.930 . S
C210 C209 1.369 . S
C210 C219 1.429 . S
C211 C209 1.419 . S
C211 C212 1.363 . S
C211 H214 0.929 . S
C212 C211 1.363 . S
C212 C218 1.428 . S
H213 C209 0.930 . S
H214 C211 0.929 . S
S215 N216 1.613 . S
S215 N217 1.610 . S
N216 S215 1.613 . S
N216 C219 1.350 . S
N217 S215 1.610 . S
N217 C218 1.351 . S
C218 C212 1.428 . S
C218 N217 1.351 . S
C218 C219 1.434 . S
C219 C210 1.429 . S
C219 N216 1.350 . S
C219 C218 1.434 . S
C220 C221 1.369 . S
C220 C222 1.419 . S
C220 H224 0.930 . S
C221 C220 1.369 . S
C221 C230 1.429 . S
C222 C220 1.419 . S
C222 C223 1.363 . S
C222 H225 0.929 . S
C223 C222 1.363 . S
C223 C229 1.428 . S
H224 C220 0.930 . S
H225 C222 0.929 . S
S226 N227 1.613 . S
S226 N228 1.610 . S
N227 S226 1.613 . S
N227 C230 1.350 . S
N228 S226 1.610 . S
N228 C229 1.351 . S
C229 C223 1.428 . S
C229 N228 1.351 . S
C229 C230 1.434 . S
C230 C221 1.429 . S
C230 N227 1.350 . S
C230 C229 1.434 . S
C231 C232 1.369 . S
C231 C233 1.419 . S
C231 H235 0.930 . S
C232 C231 1.369 . S
C232 C241 1.429 . S
C233 C231 1.419 . S
C233 C234 1.363 . S
C233 H236 0.929 . S
C234 C233 1.363 . S
C234 C240 1.428 . S
H235 C231 0.930 . S
H236 C233 0.929 . S
S237 N238 1.613 . S
S237 N239 1.610 . S
N238 S237 1.613 . S
N238 C241 1.350 . S
N239 S237 1.610 . S
N239 C240 1.351 . S
C240 C234 1.428 . S
C240 N239 1.351 . S
C240 C241 1.434 . S
C241 C232 1.429 . S
C241 N238 1.350 . S
C241 C240 1.434 . S
C242 C243 1.369 . S
C242 C244 1.419 . S
C242 H246 0.930 . S
C243 C242 1.369 . S
C243 C252 1.429 . S
C244 C242 1.419 . S
C244 C245 1.363 . S
C244 H247 0.929 . S
C245 C244 1.363 . S
C245 C251 1.428 . S
H246 C242 0.930 . S
H247 C244 0.929 . S
S248 N249 1.613 . S
S248 N250 1.610 . S
N249 S248 1.613 . S
N249 C252 1.350 . S
N250 S248 1.610 . S
N250 C251 1.351 . S
C251 C245 1.428 . S
C251 N250 1.351 . S
C251 C252 1.434 . S
C252 C243 1.429 . S
C252 N249 1.350 . S
C252 C251 1.434 . S
C253 C254 1.369 . S
C253 C255 1.419 1_455 S
C253 H257 0.930 1_455 S
C254 C253 1.369 . S
C254 C263 1.429 . S
C255 C253 1.419 1_655 S
C255 C256 1.363 . S
C255 H258 0.929 . S
C256 C255 1.363 . S
C256 C262 1.428 1_655 S
H257 C253 0.930 1_655 S
H258 C255 0.929 . S
S259 N260 1.613 . S
S259 N261 1.610 . S
N260 S259 1.613 . S
N260 C263 1.350 . S
N261 S259 1.610 . S
N261 C262 1.351 . S
C262 C256 1.428 1_455 S
C262 N261 1.351 . S
C262 C263 1.434 . S
C263 C254 1.429 . S
C263 N260 1.350 . S
C263 C262 1.434 . S
C264 C265 1.369 1_565 S
C264 C266 1.419 . S
C264 H268 0.930 . S
C265 C264 1.369 1_545 S
C265 C274 1.429 . S
C266 C264 1.419 . S
C266 C267 1.363 . S
C266 H269 0.929 . S
C267 C266 1.363 . S
C267 C273 1.428 1_565 S
H268 C264 0.930 . S
H269 C266 0.929 . S
S270 N271 1.613 . S
S270 N272 1.610 . S
N271 S270 1.613 . S
N271 C274 1.350 . S
N272 S270 1.610 . S
N272 C273 1.351 . S
C273 C267 1.428 1_545 S
C273 N272 1.351 . S
C273 C274 1.434 . S
C274 C265 1.429 . S
C274 N271 1.350 . S
C274 C273 1.434 . S
C275 C276 1.369 . S
C275 C277 1.419 . S
C275 H279 0.930 . S
C276 C275 1.369 . S
C276 C285 1.429 . S
C277 C275 1.419 . S
C277 C278 1.363 . S
C277 H280 0.929 . S
C278 C277 1.363 . S
C278 C284 1.428 . S
H279 C275 0.930 . S
H280 C277 0.929 . S
S281 N282 1.613 . S
S281 N283 1.610 . S
N282 S281 1.613 . S
N282 C285 1.350 . S
N283 S281 1.610 . S
N283 C284 1.351 . S
C284 C278 1.428 . S
C284 N283 1.351 . S
C284 C285 1.434 . S
C285 C276 1.429 . S
C285 N282 1.350 . S
C285 C284 1.434 . S
C286 C287 1.369 . S
C286 C288 1.419 1_565 S
C286 H290 0.930 . S
C287 C286 1.369 . S
C287 C296 1.429 1_565 S
C288 C286 1.419 1_545 S
C288 C289 1.363 . S
C288 H291 0.929 . S
C289 C288 1.363 . S
C289 C295 1.428 . S
H290 C286 0.930 . S
H291 C288 0.929 . S
S292 N293 1.613 . S
S292 N294 1.610 1_554 S
N293 S292 1.613 . S
N293 C296 1.350 1_554 S
N294 S292 1.610 1_556 S
N294 C295 1.351 . S
C295 C289 1.428 . S
C295 N294 1.351 . S
C295 C296 1.434 . S
C296 C287 1.429 1_545 S
C296 N293 1.350 1_556 S
C296 C295 1.434 . S
C297 C298 1.369 . S
C297 C299 1.419 . S
C297 H301 0.930 . S
C298 C297 1.369 . S
C298 C307 1.429 . S
C299 C297 1.419 . S
C299 C300 1.363 . S
C299 H302 0.929 . S
C300 C299 1.363 . S
C300 C306 1.428 . S
H301 C297 0.930 . S
H302 C299 0.929 . S
S303 N304 1.613 . S
S303 N305 1.610 . S
N304 S303 1.613 . S
N304 C307 1.350 . S
N305 S303 1.610 . S
N305 C306 1.351 . S
C306 C300 1.428 . S
C306 N305 1.351 . S
C306 C307 1.434 . S
C307 C298 1.429 . S
C307 N304 1.350 . S
C307 C306 1.434 . S
C308 C309 1.369 . S
C308 C310 1.419 . S
C308 H312 0.930 . S
C309 C308 1.369 . S
C309 C318 1.429 . S
C310 C308 1.419 . S
C310 C311 1.363 . S
C310 H313 0.929 . S
C311 C310 1.363 . S
C311 C317 1.428 . S
H312 C308 0.930 . S
H313 C310 0.929 . S
S314 N315 1.613 . S
S314 N316 1.610 . S
N315 S314 1.613 . S
N315 C318 1.350 . S
N316 S314 1.610 . S
N316 C317 1.351 . S
C317 C311 1.428 . S
C317 N316 1.351 . S
C317 C318 1.434 . S
C318 C309 1.429 . S
C318 N315 1.350 . S
C318 C317 1.434 . S
C319 C320 1.369 . S
C319 C321 1.419 . S
C319 H323 0.930 . S
C320 C319 1.369 . S
C320 C329 1.429 . S
C321 C319 1.419 . S
C321 C322 1.363 . S
C321 H324 0.929 . S
C322 C321 1.363 . S
C322 C328 1.428 . S
H323 C319 0.930 . S
H324 C321 0.929 . S
S325 N326 1.613 . S
S325 N327 1.610 . S
N326 S325 1.613 . S
N326 C329 1.350 . S
N327 S325 1.610 . S
N327 C328 1.351 . S
C328 C322 1.428 . S
C328 N327 1.351 . S
C328 C329 1.434 . S
C329 C320 1.429 . S
C329 N326 1.350 . S
C329 C328 1.434 . S
C330 C331 1.369 . S
C330 C332 1.419 . S
C330 H334 0.930 . S
C331 C330 1.369 . S
C331 C340 1.429 . S
C332 C330 1.419 . S
C332 C333 1.363 . S
C332 H335 0.929 . S
C333 C332 1.363 . S
C333 C339 1.428 . S
H334 C330 0.930 . S
H335 C332 0.929 . S
S336 N337 1.613 . S
S336 N338 1.610 . S
N337 S336 1.613 . S
N337 C340 1.350 . S
N338 S336 1.610 . S
N338 C339 1.351 . S
C339 C333 1.428 . S
C339 N338 1.351 . S
C339 C340 1.434 . S
C340 C331 1.429 . S
C340 N337 1.350 . S
C340 C339 1.434 . S
C341 C342 1.369 . S
C341 C343 1.419 . S
C341 H345 0.930 . S
C342 C341 1.369 . S
C342 C351 1.429 1_655 S
C343 C341 1.419 . S
C343 C344 1.363 1_655 S
C343 H346 0.929 . S
C344 C343 1.363 1_455 S
C344 C350 1.428 . S
H345 C341 0.930 . S
H346 C343 0.929 . S
S347 N348 1.613 . S
S347 N349 1.610 . S
N348 S347 1.613 . S
N348 C351 1.350 . S
N349 S347 1.610 . S
N349 C350 1.351 . S
C350 C344 1.428 . S
C350 N349 1.351 . S
C350 C351 1.434 . S
C351 C342 1.429 1_455 S
C351 N348 1.350 . S
C351 C350 1.434 . S
C352 C353 1.369 . S
C352 C354 1.419 . S
C352 H356 0.930 . S
C353 C352 1.369 . S
C353 C362 1.429 . S
C354 C352 1.419 . S
C354 C355 1.363 . S
C354 H357 0.929 . S
C355 C354 1.363 . S
C355 C361 1.428 . S
H356 C352 0.930 . S
H357 C354 0.929 . S
S358 N359 1.613 . S
S358 N360 1.610 . S
N359 S358 1.613 . S
N359 C362 1.350 . S
N360 S358 1.610 . S
N360 C361 1.351 . S
C361 C355 1.428 . S
C361 N360 1.351 . S
C361 C362 1.434 . S
C362 C353 1.429 . S
C362 N359 1.350 . S
C362 C361 1.434 . S
C363 C364 1.369 . S
C363 C365 1.419 . S
C363 H367 0.930 . S
C364 C363 1.369 . S
C364 C373 1.429 . S
C365 C363 1.419 . S
C365 C366 1.363 . S
C365 H368 0.929 . S
C366 C365 1.363 . S
C366 C372 1.428 . S
H367 C363 0.930 . S
H368 C365 0.929 . S
S369 N370 1.613 . S
S369 N371 1.610 . S
N370 S369 1.613 . S
N370 C373 1.350 . S
N371 S369 1.610 . S
N371 C372 1.351 . S
C372 C366 1.428 . S
C372 N371 1.351 . S
C372 C373 1.434 . S
C373 C364 1.429 . S
C373 N370 1.350 . S
C373 C372 1.434 . S
C374 C375 1.369 . S
C374 C376 1.419 . S
C374 H378 0.930 . S
C375 C374 1.369 . S
C375 C384 1.429 . S
C376 C374 1.419 . S
C376 C377 1.363 . S
C376 H379 0.929 . S
C377 C376 1.363 . S
C377 C383 1.428 . S
H378 C374 0.930 . S
H379 C376 0.929 . S
S380 N381 1.613 . S
S380 N382 1.610 . S
N381 S380 1.613 . S
N381 C384 1.350 . S
N382 S380 1.610 . S
N382 C383 1.351 . S
C383 C377 1.428 . S
C383 N382 1.351 . S
C383 C384 1.434 . S
C384 C375 1.429 . S
C384 N381 1.350 . S
C384 C383 1.434 . S
C385 C386 1.369 . S
C385 C387 1.419 . S
C385 H389 0.930 . S
C386 C385 1.369 . S
C386 C395 1.429 . S
C387 C385 1.419 . S
C387 C388 1.363 . S
C387 H390 0.929 . S
C388 C387 1.363 . S
C388 C394 1.428 . S
H389 C385 0.930 . S
H390 C387 0.929 . S
S391 N392 1.613 . S
S391 N393 1.610 . S
N392 S391 1.613 . S
N392 C395 1.350 . S
N393 S391 1.610 . S
N393 C394 1.351 . S
C394 C388 1.428 . S
C394 N393 1.351 . S
C394 C395 1.434 . S
C395 C386 1.429 . S
C395 N392 1.350 . S
C395 C394 1.434 . S
C396 C397 1.369 . S
C396 C398 1.419 . S
C396 H400 0.930 . S
C397 C396 1.369 . S
C397 C406 1.429 . S
C398 C396 1.419 . S
C398 C399 1.363 . S
C398 H401 0.929 . S
C399 C398 1.363 . S
C399 C405 1.428 . S
H400 C396 0.930 . S
H401 C398 0.929 . S
S402 N403 1.613 . S
S402 N404 1.610 . S
N403 S402 1.613 . S
N403 C406 1.350 . S
N404 S402 1.610 . S
N404 C405 1.351 . S
C405 C399 1.428 . S
C405 N404 1.351 . S
C405 C406 1.434 . S
C406 C397 1.429 . S
C406 N403 1.350 . S
C406 C405 1.434 . S
C407 C408 1.369 . S
C407 C409 1.419 . S
C407 H411 0.930 . S
C408 C407 1.369 . S
C408 C417 1.429 . S
C409 C407 1.419 . S
C409 C410 1.363 . S
C409 H412 0.929 . S
C410 C409 1.363 . S
C410 C416 1.428 . S
H411 C407 0.930 . S
H412 C409 0.929 . S
S413 N414 1.613 . S
S413 N415 1.610 . S
N414 S413 1.613 . S
N414 C417 1.350 . S
N415 S413 1.610 . S
N415 C416 1.351 . S
C416 C410 1.428 . S
C416 N415 1.351 . S
C416 C417 1.434 . S
C417 C408 1.429 . S
C417 N414 1.350 . S
C417 C416 1.434 . S
C418 C419 1.369 . S
C418 C420 1.419 . S
C418 H422 0.930 . S
C419 C418 1.369 . S
C419 C428 1.429 . S
C420 C418 1.419 . S
C420 C421 1.363 . S
C420 H423 0.929 . S
C421 C420 1.363 . S
C421 C427 1.428 . S
H422 C418 0.930 . S
H423 C420 0.929 . S
S424 N425 1.613 . S
S424 N426 1.610 . S
N425 S424 1.613 . S
N425 C428 1.350 . S
N426 S424 1.610 . S
N426 C427 1.351 . S
C427 C421 1.428 . S
C427 N426 1.351 . S
C427 C428 1.434 . S
C428 C419 1.429 . S
C428 N425 1.350 . S
C428 C427 1.434 . S
C429 C430 1.369 . S
C429 C431 1.419 . S
C429 H433 0.930 . S
C430 C429 1.369 . S
C430 C439 1.429 . S
C431 C429 1.419 . S
C431 C432 1.363 . S
C431 H434 0.929 . S
C432 C431 1.363 . S
C432 C438 1.428 . S
H433 C429 0.930 . S
H434 C431 0.929 . S
S435 N436 1.613 . S
S435 N437 1.610 . S
N436 S435 1.613 . S
N436 C439 1.350 . S
N437 S435 1.610 . S
N437 C438 1.351 . S
C438 C432 1.428 . S
C438 N437 1.351 . S
C438 C439 1.434 . S
C439 C430 1.429 . S
C439 N436 1.350 . S
C439 C438 1.434 . S
C177 C8 1.503 . S
C179 C97 1.433 . S
C188 C31 1.478 . S
C190 C108 1.380 . S
C199 C53 1.438 . S
C201 C116 1.390 . S
C212 C130 1.411 . S
C210 C74 1.406 . S
C223 C141 1.433 . S
C221 C26 1.503 . S
C232 C48 1.412 1_455 S
C234 C152 1.410 . S
C243 C71 1.436 . S
C245 C160 1.383 . S
C254 C5 1.481 . S
C256 C174 1.385 . S
C265 C50 1.367 . S
C267 C171 1.337 . S
C278 C138 1.246 . S
C276 C70 1.297 . S
C289 C149 1.368 . S
C287 C4 1.402 . S
C298 C28 1.421 . S
C300 C163 1.409 . S
C311 C105 1.336 . S
C309 C73 1.366 . S
C320 C7 1.424 1_655 S
C322 C119 1.412 . S
C333 C127 1.369 . S
C331 C30 1.402 . S
C344 C94 1.247 . S
C342 C52 1.297 . S
C355 N158 1.463 . S
C353 C9 1.505 . S
C366 N169 1.474 . S
C364 C29 1.462 . S
C375 C51 1.412 . S
C377 N136 1.415 . S
C388 N147 1.414 . S
C386 C75 1.468 . S
C399 N114 1.465 . S
C397 C27 1.505 . S
C408 C49 1.468 . S
C410 N125 1.413 . S
C421 N92 1.419 . S
C419 C72 1.407 . S
C432 N103 1.474 . S
C430 C6 1.462 . S
