# Generated by pormake.
# Topology pto, (3,4)-cn, num edge types: 1
# Building blocks:
#     Node 0, Type 0, BuildingBlock: BETDAH_clean_linker_0, # of connection points: 3
#     Node 1, Type 0, BuildingBlock: BETDAH_clean_linker_0, # of connection points: 3
#     Node 2, Type 0, BuildingBlock: BETDAH_clean_linker_0, # of connection points: 3
#     Node 3, Type 0, BuildingBlock: BETDAH_clean_linker_0, # of connection points: 3
#     Node 4, Type 0, BuildingBlock: BETDAH_clean_linker_0, # of connection points: 3
#     Node 5, Type 0, BuildingBlock: BETDAH_clean_linker_0, # of connection points: 3
#     Node 6, Type 0, BuildingBlock: BETDAH_clean_linker_0, # of connection points: 3
#     Node 7, Type 0, BuildingBlock: BETDAH_clean_linker_0, # of connection points: 3
#     Node 8, Type 1, BuildingBlock: KOZSID_clean_sbu_0, # of connection points: 4
#     Node 9, Type 1, BuildingBlock: KOZSID_clean_sbu_0, # of connection points: 4
#     Node 10, Type 1, BuildingBlock: KOZSID_clean_sbu_0, # of connection points: 4
#     Node 11, Type 1, BuildingBlock: KOZSID_clean_sbu_0, # of connection points: 4
#     Node 12, Type 1, BuildingBlock: KOZSID_clean_sbu_0, # of connection points: 4
#     Node 13, Type 1, BuildingBlock: KOZSID_clean_sbu_0, # of connection points: 4
#     Edge 14, Type (0, 1), BuildingBlock: XUDNAN_clean_linker_2, # of connection points: 2
#     Edge 15, Type (0, 1), BuildingBlock: XUDNAN_clean_linker_2, # of connection points: 2
#     Edge 16, Type (0, 1), BuildingBlock: XUDNAN_clean_linker_2, # of connection points: 2
#     Edge 17, Type (0, 1), BuildingBlock: XUDNAN_clean_linker_2, # of connection points: 2
#     Edge 18, Type (0, 1), BuildingBlock: XUDNAN_clean_linker_2, # of connection points: 2
#     Edge 19, Type (0, 1), BuildingBlock: XUDNAN_clean_linker_2, # of connection points: 2
#     Edge 20, Type (0, 1), BuildingBlock: XUDNAN_clean_linker_2, # of connection points: 2
#     Edge 21, Type (0, 1), BuildingBlock: XUDNAN_clean_linker_2, # of connection points: 2
#     Edge 22, Type (0, 1), BuildingBlock: XUDNAN_clean_linker_2, # of connection points: 2
#     Edge 23, Type (0, 1), BuildingBlock: XUDNAN_clean_linker_2, # of connection points: 2
#     Edge 24, Type (0, 1), BuildingBlock: XUDNAN_clean_linker_2, # of connection points: 2
#     Edge 25, Type (0, 1), BuildingBlock: XUDNAN_clean_linker_2, # of connection points: 2
#     Edge 26, Type (0, 1), BuildingBlock: XUDNAN_clean_linker_2, # of connection points: 2
#     Edge 27, Type (0, 1), BuildingBlock: XUDNAN_clean_linker_2, # of connection points: 2
#     Edge 28, Type (0, 1), BuildingBlock: XUDNAN_clean_linker_2, # of connection points: 2
#     Edge 29, Type (0, 1), BuildingBlock: XUDNAN_clean_linker_2, # of connection points: 2
#     Edge 30, Type (0, 1), BuildingBlock: XUDNAN_clean_linker_2, # of connection points: 2
#     Edge 31, Type (0, 1), BuildingBlock: XUDNAN_clean_linker_2, # of connection points: 2
#     Edge 32, Type (0, 1), BuildingBlock: XUDNAN_clean_linker_2, # of connection points: 2
#     Edge 33, Type (0, 1), BuildingBlock: XUDNAN_clean_linker_2, # of connection points: 2
#     Edge 34, Type (0, 1), BuildingBlock: XUDNAN_clean_linker_2, # of connection points: 2
#     Edge 35, Type (0, 1), BuildingBlock: XUDNAN_clean_linker_2, # of connection points: 2
#     Edge 36, Type (0, 1), BuildingBlock: XUDNAN_clean_linker_2, # of connection points: 2
#     Edge 37, Type (0, 1), BuildingBlock: XUDNAN_clean_linker_2, # of connection points: 2
# Relax obj value: 0.010
# Max RMSD: 0.120
# Mean RMSD: 0.061
data_MOF--net-pto--node1-KOZSID_clean_sbu_0--node2-BETDAH_clean_linker_0--edge1-XUDNAN_clean_linker_2
_symmetry_space_group_name_H-M    P1
_symmetry_Int_Tables_number       1
_symmetry_cell_setting            triclinic
loop_
_symmetry_equiv_pos_as_xyz
'x, y, z'
_cell_length_a     38.524408
_cell_length_b     50.035109
_cell_length_c     44.942377
_cell_angle_alpha  102.44122
_cell_angle_beta   93.706798
_cell_angle_gamma 103.59508
loop_
_atom_site_label
_atom_site_type_symbol
_atom_site_fract_x
_atom_site_fract_y
_atom_site_fract_z
_atom_type_partial_charge
H0 H 0.36429 0.22485 0.38888 0.0
H1 H 0.30782 0.2882 0.38117 0.0
H2 H 0.27329 0.23049 0.43825 0.0
C3 C 0.34294 0.23495 0.39515 0.0
C4 C 0.31933 0.22477 0.41506 0.0
C5 C 0.339 0.25776 0.38281 0.0
C6 C 0.31104 0.27068 0.3907 0.0
C7 C 0.28764 0.26102 0.41119 0.0
C8 C 0.29198 0.23819 0.42311 0.0
N9 N 0.25912 0.2733 0.42026 0.0
C10 C 0.25107 0.29627 0.41125 0.0
H11 H 0.27958 0.76124 0.8245 0.0
H12 H 0.32218 0.83038 0.78347 0.0
H13 H 0.22213 0.77025 0.74346 0.0
C14 C 0.27762 0.77219 0.80635 0.0
C15 C 0.24726 0.76279 0.7842 0.0
C16 C 0.30481 0.79645 0.80619 0.0
C17 C 0.30138 0.81161 0.78362 0.0
C18 C 0.27143 0.80192 0.76086 0.0
C19 C 0.24491 0.77756 0.76124 0.0
N20 N 0.26679 0.81566 0.73693 0.0
C21 C 0.28671 0.8422 0.73527 0.0
H22 H 0.86012 0.75027 0.42448 0.0
H23 H 0.79432 0.76414 0.35134 0.0
H24 H 0.84764 0.697 0.33314 0.0
C25 C 0.84942 0.74468 0.40042 0.0
C26 C 0.8567 0.72144 0.38024 0.0
C27 C 0.82698 0.76006 0.38999 0.0
C28 C 0.81188 0.75237 0.35912 0.0
C29 C 0.81948 0.72958 0.33856 0.0
C30 C 0.84179 0.71438 0.34927 0.0
N31 N 0.8051 0.72108 0.30705 0.0
C32 C 0.78261 0.73398 0.29297 0.0
H33 H 0.83514 0.26363 0.83952 0.0
H34 H 0.77488 0.23229 0.90783 0.0
H35 H 0.82321 0.32141 0.9218 0.0
C36 C 0.82415 0.26755 0.86118 0.0
C37 C 0.83117 0.29534 0.87911 0.0
C38 C 0.804 0.24466 0.87134 0.0
C39 C 0.79007 0.24984 0.89965 0.0
C40 C 0.79674 0.2777 0.91769 0.0
C41 C 0.81742 0.30013 0.90739 0.0
N42 N 0.78479 0.284 0.94701 0.0
C43 C 0.75488 0.26773 0.95629 0.0
H44 H 0.79955 0.72968 0.84676 0.0
H45 H 0.79757 0.74331 0.75515 0.0
H46 H 0.73619 0.78243 0.8192 0.0
C47 C 0.79128 0.74022 0.82989 0.0
C48 C 0.76745 0.7574 0.83707 0.0
C49 C 0.80224 0.73476 0.80036 0.0
C50 C 0.78997 0.7476 0.77816 0.0
C51 C 0.76617 0.76478 0.78515 0.0
C52 C 0.75493 0.7694 0.81435 0.0
N53 N 0.74947 0.7746 0.76217 0.0
C54 C 0.76815 0.79208 0.74517 0.0
H55 H 0.78782 0.27618 0.36758 0.0
H56 H 0.82151 0.25061 0.44831 0.0
H57 H 0.72324 0.20313 0.39119 0.0
C58 C 0.78337 0.26203 0.38293 0.0
C59 C 0.75294 0.239 0.3761 0.0
C60 C 0.80844 0.26659 0.40892 0.0
C61 C 0.80297 0.24717 0.42786 0.0
C62 C 0.77207 0.22429 0.42141 0.0
C63 C 0.74728 0.2205 0.39571 0.0
N64 N 0.76295 0.20652 0.44191 0.0
C65 C 0.78619 0.19359 0.45501 0.0
H66 H 0.3208 0.25056 0.85441 0.0
H67 H 0.25828 0.31176 0.87083 0.0
H68 H 0.26422 0.26872 0.77835 0.0
C69 C 0.30403 0.26231 0.84539 0.0
C70 C 0.29429 0.25691 0.81357 0.0
C71 C 0.29143 0.28217 0.86606 0.0
C72 C 0.2682 0.29659 0.85488 0.0
C73 C 0.25835 0.29151 0.82305 0.0
C74 C 0.27155 0.27189 0.80277 0.0
N75 N 0.23523 0.30549 0.81024 0.0
C76 C 0.22222 0.32729 0.82639 0.0
H77 H 0.28901 0.74172 0.38368 0.0
H78 H 0.3613 0.77275 0.3226 0.0
H79 H 0.33167 0.68382 0.32005 0.0
C80 C 0.30563 0.73769 0.3655 0.0
C81 C 0.30767 0.70991 0.35308 0.0
C82 C 0.32498 0.76036 0.35457 0.0
C83 C 0.34636 0.75518 0.33089 0.0
C84 C 0.34914 0.7275 0.31871 0.0
C85 C 0.32988 0.70514 0.32996 0.0
N86 N 0.37108 0.72122 0.29533 0.0
C87 C 0.38863 0.74053 0.2797 0.0
C88 C 0.11536 0.5548 0.43007 0.0
C89 C 0.13712 0.57162 0.45647 0.0
C90 C 0.12225 0.56304 0.48066 0.0
C91 C 0.09238 0.5416 0.46774 0.0
N92 N 0.08712 0.53602 0.43671 0.0
Co93 Co 0.04728 0.50626 0.40868 0.0
N94 N 0.02697 0.49232 0.44415 0.0
C95 C 0.0382 0.50369 0.47436 0.0
C96 C 0.01971 0.48885 0.49325 0.0
C97 C 0.99568 0.46635 0.47395 0.0
C98 C 1.00107 0.46874 0.4443 0.0
N99 N 0.0078 0.47602 0.38069 0.0
C100 C 0.984 0.45377 0.38688 0.0
C101 C 0.96293 0.43638 0.3604 0.0
C102 C 0.97401 0.44786 0.33665 0.0
C103 C 1.00124 0.4714 0.34982 0.0
N104 N 0.06743 0.52026 0.37316 0.0
C105 C 0.0537 0.51076 0.34322 0.0
C106 C 0.07343 0.52444 0.3241 0.0
C107 C 0.10149 0.54384 0.34292 0.0
C108 C 0.09718 0.54089 0.37259 0.0
N109 N 0.07817 0.47939 0.40506 0.0
C110 C 0.12307 0.44186 0.39974 0.0
C111 C 0.10426 0.44532 0.37377 0.0
C112 C 0.08212 0.46398 0.37692 0.0
C113 C 0.11876 0.45743 0.42847 0.0
C114 C 0.09639 0.47594 0.43059 0.0
N115 N 0.01651 0.53367 0.4122 0.0
C116 C 0.97991 0.55816 0.38778 0.0
C117 C 0.98171 0.57801 0.41534 0.0
C118 C 0.99939 0.5742 0.44165 0.0
C119 C 0.0162 0.55203 0.43962 0.0
C120 C 0.9971 0.53632 0.38679 0.0
H121 H 0.02928 0.55062 0.46053 0.0
H122 H 0.99491 0.52233 0.36497 0.0
H123 H 0.06838 0.4656 0.35627 0.0
H124 H 0.0943 0.48735 0.4531 0.0
C125 C 0.06887 0.5262 0.48406 0.0
C126 C 0.12246 0.55775 0.39931 0.0
C127 C 0.98209 0.44742 0.41707 0.0
C128 C 0.02324 0.48804 0.3336 0.0
H129 H 0.16122 0.58841 0.45806 0.0
H130 H 0.13208 0.57139 0.50479 0.0
H131 H 0.02428 0.49316 0.51803 0.0
H132 H 0.97704 0.4496 0.48084 0.0
H133 H 0.94247 0.41689 0.35823 0.0
H134 H 0.96443 0.43935 0.31248 0.0
H135 H 0.06834 0.52046 0.29937 0.0
H136 H 0.1229 0.55831 0.33558 0.0
H137 H 0.10619 0.4334 0.35103 0.0
H138 H 0.13297 0.45571 0.44928 0.0
H139 H 0.96644 0.55998 0.36667 0.0
H140 H 1.00063 0.58843 0.46381 0.0
C141 C 0.07459 0.58727 0.84084 0.0
C142 C 0.08987 0.60864 0.86676 0.0
C143 C 0.07249 0.60153 0.89055 0.0
C144 C 0.04769 0.57636 0.87781 0.0
N145 N 0.04865 0.56666 0.84744 0.0
Co146 Co 0.01559 0.53211 0.81938 0.0
N147 N 0.98905 0.52209 0.85408 0.0
C148 C 0.99539 0.53663 0.88382 0.0
C149 C 0.97516 0.52315 0.90281 0.0
C150 C 0.95542 0.49812 0.88427 0.0
C151 C 0.96462 0.4979 0.85487 0.0
N152 N 0.98194 0.49806 0.79119 0.0
C153 C 0.95729 0.47677 0.79797 0.0
C154 C 0.93991 0.45659 0.77176 0.0
C155 C 0.95496 0.46505 0.74754 0.0
C156 C 0.98042 0.48988 0.76032 0.0
N157 N 0.04286 0.54138 0.78481 0.0
C158 C 0.037 0.52639 0.75524 0.0
C159 C 0.05989 0.53829 0.73679 0.0
C160 C 0.08131 0.56252 0.7556 0.0
C161 C 0.07008 0.56401 0.78449 0.0
N162 N 0.04841 0.50865 0.82769 0.0
C163 C 0.09222 0.47331 0.83972 0.0
C164 C 0.07589 0.47026 0.81007 0.0
C165 C 0.05435 0.48798 0.80462 0.0
C166 C 0.08662 0.49468 0.86319 0.0
C167 C 0.06479 0.51196 0.85672 0.0
N168 N 0.9827 0.55574 0.811 0.0
C169 C 0.95208 0.57502 0.7752 0.0
C170 C 0.93971 0.59192 0.79903 0.0
C171 C 0.94891 0.59001 0.82899 0.0
C172 C 0.9703 0.57207 0.8344 0.0
C173 C 0.97297 0.55713 0.78159 0.0
H174 H 0.97657 0.57199 0.85778 0.0
H175 H 0.98124 0.54492 0.76226 0.0
H176 H 0.04258 0.48443 0.78156 0.0
H177 H 0.06122 0.52766 0.87564 0.0
C178 C 0.02266 0.56168 0.89356 0.0
C179 C 0.08407 0.58836 0.81022 0.0
C180 C 0.95198 0.47347 0.82888 0.0
C181 C 0.00713 0.5032 0.74486 0.0
H182 H 0.11082 0.62772 0.86813 0.0
H183 H 0.07685 0.61358 0.91415 0.0
H184 H 0.97597 0.53007 0.92744 0.0
H185 H 0.93739 0.48156 0.8919 0.0
H186 H 0.91973 0.43712 0.77052 0.0
H187 H 0.9496 0.45354 0.7237 0.0
H188 H 0.05991 0.53091 0.71231 0.0
H189 H 0.10199 0.57792 0.74867 0.0
H190 H 0.07992 0.45441 0.79095 0.0
H191 H 0.09847 0.49779 0.88659 0.0
H192 H 0.94628 0.57582 0.75156 0.0
H193 H 0.93951 0.60214 0.84834 0.0
C194 C 0.36326 0.00318 0.61668 0.0
C195 C 0.39589 0.9989 0.62684 0.0
C196 C 0.41993 0.00785 0.60764 0.0
C197 C 0.40077 0.01714 0.58697 0.0
N198 N 0.36625 0.01482 0.59211 0.0
Co199 Co 0.32931 0.0253 0.56733 0.0
N200 N 0.36656 0.04885 0.5486 0.0
C201 C 0.40106 0.04759 0.54811 0.0
C202 C 0.42058 0.06655 0.53363 0.0
C203 C 0.3968 0.08042 0.52418 0.0
C204 C 0.3639 0.06897 0.53332 0.0
N205 N 0.2924 0.03568 0.54243 0.0
C206 C 0.29591 0.05679 0.5275 0.0
C207 C 0.26306 0.05613 0.51227 0.0
C208 C 0.23831 0.03367 0.51773 0.0
C209 C 0.25731 0.02189 0.53591 0.0
N210 N 0.29204 1.00165 0.58592 0.0
C211 C 0.25698 0.99144 0.57479 0.0
C212 C 0.2377 0.97536 0.59228 0.0
C213 C 0.26223 0.97523 0.6157 0.0
C214 C 0.29526 0.9913 0.61114 0.0
N215 N 0.33111 0.05813 0.60061 0.0
C216 C 0.33367 0.10404 0.65003 0.0
C217 C 0.30071 0.08554 0.63558 0.0
C218 C 0.30002 0.06307 0.61079 0.0
C219 C 0.36527 0.09909 0.63865 0.0
C220 C 0.36343 0.07594 0.61428 0.0
N221 N 0.32745 0.9923 0.53405 0.0
C222 C 0.32717 0.97142 0.48046 0.0
C223 C 0.32427 0.94464 0.48651 0.0
C224 C 0.32299 0.94246 0.51707 0.0
C225 C 0.32512 0.96645 0.54037 0.0
C226 C 0.32829 0.99479 0.50438 0.0
H227 H 0.32463 0.96393 0.56355 0.0
H228 H 0.32995 0.01492 0.49882 0.0
H229 H 0.27425 0.04942 0.60012 0.0
H230 H 0.38824 0.07239 0.60661 0.0
C231 C 0.4153 0.03185 0.56562 0.0
C232 C 0.32948 0.99363 0.62915 0.0
C233 C 0.33021 0.07592 0.52478 0.0
C234 C 0.24243 1.0009 0.5509 0.0
H235 H 0.40161 0.98992 0.64589 0.0
H236 H 0.44823 0.00831 0.60918 0.0
H237 H 0.44898 0.07055 0.53119 0.0
H238 H 0.40292 0.09688 0.51173 0.0
H239 H 0.25765 0.07017 0.49832 0.0
H240 H 0.20972 0.02723 0.51009 0.0
H241 H 0.20908 0.96557 0.58893 0.0
H242 H 0.25657 0.96417 0.63375 0.0
H243 H 0.27546 0.08791 0.64359 0.0
H244 H 0.39143 0.11297 0.64832 0.0
H245 H 0.32895 0.97457 0.45747 0.0
H246 H 0.31992 0.92234 0.52318 0.0
C247 C 0.53238 0.82778 0.1088 0.0
C248 C 0.53349 0.8553 0.12396 0.0
C249 C 0.55306 0.87275 0.10787 0.0
C250 C 0.56303 0.85502 0.08403 0.0
N251 N 0.55101 0.82758 0.08426 0.0
Co252 Co 0.56072 0.79493 0.05534 0.0
N253 N 0.60248 0.81954 0.0426 0.0
C254 C 0.60898 0.84781 0.04647 0.0
C255 C 0.63929 0.85915 0.0344 0.0
C256 C 0.65242 0.83658 0.02188 0.0
C257 C 0.62929 0.8126 0.02706 0.0
N258 N 0.57024 0.76212 0.02658 0.0
C259 C 0.60001 0.75985 0.01285 0.0
C260 C 0.59518 0.73282 0.99436 0.0
C261 C 0.56087 0.71803 0.99604 0.0
C262 C 0.54674 0.73666 0.01556 0.0
N263 N 0.51872 0.77049 0.06776 0.0
C264 C 0.49993 0.74457 0.05187 0.0
C265 C 0.47187 0.73301 0.06635 0.0
C266 C 0.47319 0.75297 0.09296 0.0
C267 C 0.50222 0.77559 0.09321 0.0
N268 N 0.52927 0.80061 0.0225 0.0
C269 C 0.4848 0.80976 0.97603 0.0
C270 C 0.51672 0.80215 0.96978 0.0
C271 C 0.53878 0.79801 0.99339 0.0
C272 C 0.47539 0.81254 0.00587 0.0
C273 C 0.49773 0.80753 0.02866 0.0
N274 N 0.59201 0.78942 0.08827 0.0
C275 C 0.60864 0.75935 0.1189 0.0
C276 C 0.63293 0.78272 0.13875 0.0
C277 C 0.63696 0.80934 0.13219 0.0
C278 C 0.61641 0.81221 0.10689 0.0
C279 C 0.58846 0.76315 0.09383 0.0
H280 H 0.61981 0.83303 0.10274 0.0
H281 H 0.56944 0.74493 0.0793 0.0
H282 H 0.5636 0.7928 0.98803 0.0
H283 H 0.48949 0.80934 0.05133 0.0
C284 C 0.58918 0.86322 0.06523 0.0
C285 C 0.51237 0.80211 0.117 0.0
C286 C 0.6314 0.78354 0.014 0.0
C287 C 0.51377 0.72992 0.02722 0.0
H288 H 0.52178 0.86215 0.14457 0.0
H289 H 0.56073 0.89566 0.11388 0.0
H290 H 0.65097 0.88124 0.03524 0.0
H291 H 0.67592 0.8376 0.0098 0.0
H292 H 0.61418 0.72477 0.98057 0.0
H293 H 0.5481 0.69612 0.98493 0.0
H294 H 0.45371 0.71207 0.05923 0.0
H295 H 0.45501 0.75107 0.11021 0.0
H296 H 0.52485 0.79989 0.94693 0.0
H297 H 0.45067 0.81814 0.01143 0.0
H298 H 0.60449 0.73839 0.12313 0.0
H299 H 0.6559 0.82792 0.14651 0.0
C300 C 0.84188 0.97087 0.65019 0.0
C301 C 0.87322 0.96854 0.66531 0.0
C302 C 0.89926 0.99266 0.66565 0.0
C303 C 0.88239 0.00831 0.65083 0.0
N304 N 0.84746 0.99549 0.64119 0.0
Co305 Co 0.81318 0.01062 0.61909 0.0
N306 N 0.85288 0.03729 0.60626 0.0
C307 C 0.88744 0.04539 0.61905 0.0
C308 C 0.90876 0.0648 0.60614 0.0
C309 C 0.88613 0.06944 0.58409 0.0
C310 C 0.85211 0.05251 0.58475 0.0
N311 N 0.7788 0.02619 0.59757 0.0
C312 C 0.78414 0.04235 0.57682 0.0
C313 C 0.75233 0.04841 0.56752 0.0
C314 C 0.72663 0.03633 0.58372 0.0
C315 C 0.74391 0.02334 0.60174 0.0
N316 N 0.77363 0.98373 0.63177 0.0
C317 C 0.73934 0.98538 0.63236 0.0
C318 C 0.718 0.96329 0.64164 0.0
C319 C 0.74038 0.94682 0.64732 0.0
C320 C 0.77426 0.95992 0.64128 0.0
N321 N 0.81395 0.03918 0.65681 0.0
C322 C 0.81183 0.07925 0.71078 0.0
C323 C 0.80827 0.05069 0.71083 0.0
C324 C 0.80987 0.03122 0.68389 0.0
C325 C 0.81692 0.08722 0.68292 0.0
C326 C 0.81755 0.06691 0.65628 0.0
N327 N 0.81207 0.98168 0.58171 0.0
C328 C 0.77711 0.94328 0.54116 0.0
C329 C 0.80746 0.93292 0.53526 0.0
C330 C 0.84076 0.949 0.5517 0.0
C331 C 0.84254 0.97349 0.57445 0.0
C332 C 0.7799 0.96734 0.56457 0.0
H333 H 0.86833 0.98499 0.5872 0.0
H334 H 0.7556 0.97356 0.56963 0.0
H335 H 0.80731 0.00954 0.68498 0.0
H336 H 0.82078 0.07371 0.63522 0.0
C337 C 0.8995 0.03192 0.64045 0.0
C338 C 0.80688 0.95034 0.64643 0.0
C339 C 0.81929 0.05404 0.56736 0.0
C340 C 0.72718 0.00476 0.61887 0.0
H341 H 0.87686 0.95125 0.67505 0.0
H342 H 0.92743 0.99754 0.6744 0.0
H343 H 0.93741 0.07415 0.61174 0.0
H344 H 0.89364 0.08417 0.56974 0.0
H345 H 0.74807 0.06047 0.55095 0.0
H346 H 0.69844 0.03621 0.58176 0.0
H347 H 0.68931 0.95895 0.6428 0.0
H348 H 0.73259 0.92742 0.65497 0.0
H349 H 0.80364 0.04309 0.73138 0.0
H350 H 0.82064 0.10901 0.68152 0.0
H351 H 0.75095 0.93248 0.52843 0.0
H352 H 0.86514 0.94217 0.54816 0.0
C353 C 0.4789 0.29689 0.19018 0.0
C354 C 0.48195 0.32474 0.20533 0.0
C355 C 0.50053 0.34137 0.18795 0.0
C356 C 0.50765 0.32275 0.16325 0.0
N357 N 0.49476 0.29556 0.16411 0.0
Co358 Co 0.4992 0.26188 0.13355 0.0
N359 N 0.5399 0.28468 0.11755 0.0
C360 C 0.54803 0.31303 0.12145 0.0
C361 C 0.57642 0.32305 0.10653 0.0
C362 C 0.58651 0.29956 0.09203 0.0
C363 C 0.56369 0.27632 0.09902 0.0
N364 N 0.50371 0.22799 0.10316 0.0
C365 C 0.53112 0.22412 0.08664 0.0
C366 C 0.52343 0.19659 0.06877 0.0
C367 C 0.48961 0.18322 0.07349 0.0
C368 C 0.47865 0.20308 0.09421 0.0
N369 N 0.45802 0.23939 0.14932 0.0
C370 C 0.43713 0.2137 0.13482 0.0
C371 C 0.41134 0.20317 0.15196 0.0
C372 C 0.41634 0.22354 0.17884 0.0
C373 C 0.44489 0.24553 0.17647 0.0
N374 N 0.46559 0.26904 0.10342 0.0
C375 C 0.41761 0.27874 0.05958 0.0
C376 C 0.44838 0.26994 0.05131 0.0
C377 C 0.47204 0.26557 0.07347 0.0
C378 C 0.41146 0.28249 0.09049 0.0
C379 C 0.43556 0.27733 0.11194 0.0
N380 N 0.53275 0.25468 0.16354 0.0
C381 C 0.55122 0.22254 0.1902 0.0
C382 C 0.58093 0.244 0.20639 0.0
C383 C 0.58564 0.27107 0.20071 0.0
C384 C 0.56119 0.27599 0.17943 0.0
C385 C 0.52779 0.22823 0.1688 0.0
H386 H 0.56539 0.29704 0.17573 0.0
H387 H 0.50556 0.21116 0.15654 0.0
H388 H 0.49549 0.25914 0.06614 0.0
H389 H 0.42989 0.28007 0.13544 0.0
C390 C 0.53151 0.32969 0.14226 0.0
C391 C 0.45866 0.27219 0.19978 0.0
C392 C 0.56266 0.2467 0.08473 0.0
C393 C 0.44759 0.19797 0.10886 0.0
H394 H 0.4717 0.33219 0.22659 0.0
H395 H 0.50911 0.36425 0.19338 0.0
H396 H 0.58871 0.34486 0.10656 0.0
H397 H 0.60767 0.29961 0.07734 0.0
H398 H 0.54019 0.18724 0.05345 0.0
H399 H 0.47518 0.1614 0.06364 0.0
H400 H 0.39259 0.18245 0.14642 0.0
H401 H 0.40105 0.22203 0.19802 0.0
H402 H 0.45412 0.26594 0.02774 0.0
H403 H 0.38837 0.28954 0.09825 0.0
H404 H 0.54573 0.20143 0.19411 0.0
H405 H 0.60832 0.28834 0.21223 0.0
H406 H 0.20589 0.32102 0.44313 0.0
H407 H 0.26632 0.32319 0.36534 0.0
H408 H 0.24115 0.36194 0.35424 0.0
H409 H 0.12644 0.33234 0.4085 0.0
H410 H 0.11739 0.35403 0.44319 0.0
H411 H 0.1413 0.32749 0.44539 0.0
H412 H 0.19399 0.36567 0.48046 0.0
H413 H 0.1702 0.39233 0.47838 0.0
H414 H 0.21508 0.39664 0.46759 0.0
H415 H 0.2076 0.3996 0.35128 0.0
H416 H 0.16928 0.43324 0.35663 0.0
H417 H 0.13038 0.40547 0.43625 0.0
C418 C 0.21398 0.3299 0.42392 0.0
C419 C 0.23802 0.31953 0.40508 0.0
C420 C 0.24798 0.33119 0.38001 0.0
C421 C 0.23382 0.35311 0.3736 0.0
C422 C 0.20986 0.3629 0.39257 0.0
C423 C 0.20011 0.35168 0.41727 0.0
C424 C 0.17338 0.3654 0.43377 0.0
C425 C 0.13751 0.34351 0.43263 0.0
C426 C 0.18912 0.38094 0.46702 0.0
C427 C 0.16937 0.38604 0.41444 0.0
C428 C 0.19063 0.38434 0.39082 0.0
C429 C 0.19089 0.4011 0.36972 0.0
C430 C 0.16885 0.42002 0.37283 0.0
C431 C 0.14677 0.42204 0.39686 0.0
C432 C 0.14727 0.40478 0.4179 0.0
H433 H 0.25195 0.71261 0.79821 0.0
H434 H 0.17489 0.75767 0.77399 0.0
H435 H 0.12507 0.71749 0.77685 0.0
H436 H 0.20151 0.64266 0.75686 0.0
H437 H 0.21408 0.62568 0.7859 0.0
H438 H 0.2439 0.65764 0.78101 0.0
H439 H 0.24448 0.68143 0.83835 0.0
H440 H 0.21468 0.64955 0.84341 0.0
H441 H 0.20248 0.6827 0.8534 0.0
H442 H 0.08351 0.673 0.78318 0.0
H443 H 0.05307 0.62675 0.79294 0.0
H444 H 0.15661 0.61102 0.81423 0.0
C445 C 0.22461 0.7141 0.79362 0.0
C446 C 0.2174 0.73827 0.78563 0.0
C447 C 0.18117 0.7392 0.77956 0.0
C448 C 0.15265 0.71656 0.78133 0.0
C449 C 0.16072 0.69312 0.78928 0.0
C450 C 0.19577 0.6917 0.79537 0.0
C451 C 0.19702 0.66421 0.80388 0.0
C452 C 0.2152 0.6465 0.78051 0.0
C453 C 0.21577 0.66982 0.83671 0.0
C454 C 0.15718 0.65048 0.80177 0.0
C455 C 0.13672 0.66751 0.79323 0.0
C456 C 0.09922 0.65947 0.78985 0.0
C457 C 0.08219 0.63332 0.79541 0.0
C458 C 0.10272 0.61574 0.80426 0.0
C459 C 0.14059 0.62432 0.80745 0.0
H460 H 0.84654 0.66358 0.36385 0.0
H461 H 0.91823 0.74016 0.42156 0.0
H462 H 0.95629 0.7116 0.43879 0.0
H463 H 0.85325 0.61749 0.41476 0.0
H464 H 0.85247 0.5875 0.38394 0.0
H465 H 0.82993 0.61383 0.37743 0.0
H466 H 0.86664 0.62134 0.33225 0.0
H467 H 0.88927 0.59504 0.33859 0.0
H468 H 0.91509 0.63014 0.3387 0.0
H469 H 0.98794 0.67468 0.44808 0.0
H470 H 0.01098 0.63267 0.44826 0.0
H471 H 0.9187 0.5803 0.38414 0.0
C472 C 0.87032 0.67445 0.38002 0.0
C473 C 0.87932 0.70423 0.39131 0.0
C474 C 0.91043 0.7174 0.41284 0.0
C475 C 0.93233 0.70135 0.42266 0.0
C476 C 0.92279 0.67211 0.41082 0.0
C477 C 0.8925 0.6588 0.38997 0.0
C478 C 0.88866 0.6272 0.3801 0.0
C479 C 0.85402 0.61053 0.38964 0.0
C480 C 0.89001 0.61789 0.34535 0.0
C481 C 0.9218 0.62482 0.39835 0.0
C482 C 0.94101 0.65093 0.41608 0.0
C483 C 0.97294 0.6541 0.43447 0.0
C484 C 0.98569 0.63003 0.43457 0.0
C485 C 0.96664 0.60304 0.41634 0.0
C486 C 0.93411 0.60057 0.39818 0.0
H487 H 0.81886 0.34735 0.87987 0.0
H488 H 0.89516 0.29723 0.85552 0.0
H489 H 0.93385 0.3371 0.83927 0.0
H490 H 0.82804 0.38208 0.81706 0.0
H491 H 0.82409 0.4154 0.83974 0.0
H492 H 0.80225 0.38282 0.84917 0.0
H493 H 0.83534 0.40169 0.90454 0.0
H494 H 0.85733 0.43431 0.89525 0.0
H495 H 0.88375 0.41377 0.91025 0.0
H496 H 0.96517 0.3829 0.82724 0.0
H497 H 0.986 0.43124 0.81897 0.0
H498 H 0.88867 0.45102 0.84966 0.0
C499 C 0.84376 0.34482 0.87119 0.0
C500 C 0.85401 0.31919 0.86889 0.0
C501 C 0.88661 0.31657 0.85713 0.0
C502 C 0.90883 0.33913 0.84799 0.0
C503 C 0.89797 0.36411 0.8506 0.0
C504 C 0.86613 0.36706 0.86175 0.0
C505 C 0.86064 0.39613 0.8621 0.0
C506 C 0.82675 0.39397 0.84074 0.0
C507 C 0.85919 0.41243 0.89499 0.0
C508 C 0.8945 0.40915 0.84964 0.0
C509 C 0.91573 0.39035 0.84322 0.0
C510 C 0.94871 0.39775 0.83206 0.0
C511 C 0.96031 0.42512 0.82744 0.0
C512 C 0.93897 0.44463 0.83394 0.0
C513 C 0.90552 0.43645 0.84485 0.0
H514 H 0.31333 0.21639 0.47342 0.0
H515 H 0.33208 0.17589 0.38242 0.0
H516 H 0.33734 0.13387 0.40087 0.0
H517 H 0.37453 0.18987 0.51588 0.0
H518 H 0.34606 0.1847 0.54552 0.0
H519 H 0.34391 0.21181 0.52533 0.0
H520 H 0.27537 0.19012 0.51019 0.0
H521 H 0.27731 0.16296 0.53038 0.0
H522 H 0.25913 0.15332 0.49045 0.0
H523 H 0.3398 0.09603 0.42864 0.0
H524 H 0.34011 0.06491 0.46464 0.0
H525 H 0.31953 0.12934 0.53761 0.0
C526 C 0.31833 0.19861 0.45734 0.0
C527 C 0.32251 0.19954 0.42648 0.0
C528 C 0.32938 0.17591 0.40626 0.0
C529 C 0.33218 0.15185 0.41647 0.0
C530 C 0.32801 0.15167 0.44698 0.0
C531 C 0.32125 0.17439 0.46716 0.0
C532 C 0.31794 0.16868 0.49881 0.0
C533 C 0.34737 0.19004 0.5228 0.0
C534 C 0.28019 0.16877 0.50799 0.0
C535 C 0.32391 0.13921 0.49323 0.0
C536 C 0.32961 0.12981 0.46312 0.0
C537 C 0.33553 0.10319 0.45228 0.0
C538 C 0.33573 0.08573 0.47279 0.0
C539 C 0.3303 0.09505 0.50373 0.0
C540 C 0.32408 0.12201 0.51406 0.0
H541 H 0.34829 0.76485 0.82262 0.0
H542 H 0.33078 0.84898 0.84471 0.0
H543 H 0.37788 0.86275 0.8894 0.0
H544 H 0.36007 0.757 0.89744 0.0
H545 H 0.39492 0.73855 0.89149 0.0
H546 H 0.3624 0.73624 0.85983 0.0
H547 H 0.41369 0.75435 0.8289 0.0
H548 H 0.44646 0.7565 0.86039 0.0
H549 H 0.44676 0.78723 0.8455 0.0
H550 H 0.42133 0.8651 0.93514 0.0
H551 H 0.46224 0.85743 0.97557 0.0
H552 H 0.45361 0.77261 0.92187 0.0
C553 C 0.35488 0.78632 0.8366 0.0
C554 C 0.33606 0.80592 0.83035 0.0
C555 C 0.34523 0.8338 0.84904 0.0
C556 C 0.37178 0.84172 0.87449 0.0
C557 C 0.38923 0.82162 0.8805 0.0
C558 C 0.38159 0.79464 0.86175 0.0
C559 C 0.40338 0.77675 0.87363 0.0
C560 C 0.37871 0.7506 0.88104 0.0
C561 C 0.42911 0.76821 0.85074 0.0
C562 C 0.42379 0.79759 0.9025 0.0
C563 C 0.41521 0.82335 0.90614 0.0
C564 C 0.42877 0.84523 0.93223 0.0
C565 C 0.45178 0.84068 0.95509 0.0
C566 C 0.46124 0.8146 0.95151 0.0
C567 C 0.44726 0.79292 0.92479 0.0
H568 H 0.86934 0.81351 0.41552 0.0
H569 H 0.76344 0.75846 0.41295 0.0
H570 H 0.74697 0.79665 0.44981 0.0
H571 H 0.88123 0.8492 0.49556 0.0
H572 H 0.90309 0.88339 0.48972 0.0
H573 H 0.90679 0.85166 0.46359 0.0
H574 H 0.88178 0.8684 0.41789 0.0
H575 H 0.87808 0.90021 0.44388 0.0
H576 H 0.83918 0.87746 0.41865 0.0
H577 H 0.74311 0.83979 0.48832 0.0
H578 H 0.74999 0.88598 0.52368 0.0
H579 H 0.85691 0.91521 0.49817 0.0
C580 C 0.84276 0.80966 0.42286 0.0
C581 C 0.81757 0.78318 0.41175 0.0
C582 C 0.78294 0.77869 0.42142 0.0
C583 C 0.77344 0.8002 0.4423 0.0
C584 C 0.79882 0.82615 0.45293 0.0
C585 C 0.83264 0.83111 0.44336 0.0
C586 C 0.85442 0.86118 0.45778 0.0
C587 C 0.88839 0.86135 0.47786 0.0
C588 C 0.86391 0.87779 0.43307 0.0
C589 C 0.82768 0.87224 0.47717 0.0
C590 C 0.79592 0.85158 0.47413 0.0
C591 C 0.76762 0.85631 0.49047 0.0
C592 C 0.77174 0.88289 0.51035 0.0
C593 C 0.80375 0.90483 0.51353 0.0
C594 C 0.83207 0.89916 0.49656 0.0
H595 H 0.74958 0.26798 0.01586 0.0
H596 H 0.68873 0.24226 0.9255 0.0
H597 H 0.63236 0.22866 0.94857 0.0
H598 H 0.69288 0.21283 0.04945 0.0
H599 H 0.69761 0.23722 0.08628 0.0
H600 H 0.73332 0.24102 0.06227 0.0
H601 H 0.73105 0.29284 0.06487 0.0
H602 H 0.69527 0.28913 0.08866 0.0
H603 H 0.68908 0.29998 0.05339 0.0
H604 H 0.58262 0.22496 0.98193 0.0
H605 H 0.54298 0.2289 0.02289 0.0
H606 H 0.63591 0.25499 0.09187 0.0
C607 C 0.72443 0.25858 1.00097 0.0
C608 C 0.72315 0.25556 0.96898 0.0
C609 C 0.68998 0.24414 0.95004 0.0
C610 C 0.65796 0.23645 0.96297 0.0
C611 C 0.65985 0.24023 0.99479 0.0
C612 C 0.6923 0.25073 0.01354 0.0
C613 C 0.68669 0.25483 0.04716 0.0
C614 C 0.70363 0.2353 0.06217 0.0
C615 C 0.70139 0.28604 0.06452 0.0
C616 C 0.646 0.24584 0.04447 0.0
C617 C 0.63105 0.23737 0.01405 0.0
C618 C 0.59399 0.23071 0.00578 0.0
C619 C 0.57168 0.23289 0.02916 0.0
C620 C 0.58642 0.24128 0.06044 0.0
C621 C 0.62403 0.24761 0.06812 0.0
H622 H 0.30866 0.84978 0.68164 0.0
H623 H 0.29539 0.8944 0.77228 0.0
H624 H 0.31079 0.93994 0.75641 0.0
H625 H 0.38317 0.90613 0.66634 0.0
H626 H 0.36539 0.89867 0.62649 0.0
H627 H 0.3587 0.87068 0.64658 0.0
H628 H 0.28983 0.85956 0.63141 0.0
H629 H 0.29628 0.88764 0.61159 0.0
H630 H 0.26712 0.88734 0.64138 0.0
H631 H 0.32021 0.97952 0.72822 0.0
H632 H 0.32491 0.00979 0.69066 0.0
H633 H 0.33179 0.93878 0.61885 0.0
C634 C 0.31028 0.86933 0.69837 0.0
C635 C 0.30171 0.86902 0.72827 0.0
C636 C 0.3027 0.8946 0.74943 0.0
C637 C 0.31129 0.92043 0.74057 0.0
C638 C 0.3188 0.92008 0.71052 0.0
C639 C 0.31872 0.89516 0.68984 0.0
C640 C 0.32474 0.89998 0.65826 0.0
C641 C 0.36011 0.89348 0.64887 0.0
C642 C 0.29257 0.8826 0.63427 0.0
C643 C 0.32726 0.93132 0.66409 0.0
C644 C 0.32408 0.94268 0.69439 0.0
C645 C 0.32339 0.97095 0.7046 0.0
C646 C 0.32599 0.98795 0.68325 0.0
C647 C 0.32918 0.97649 0.65227 0.0
C648 C 0.33001 0.94796 0.64267 0.0
H649 H 0.75378 0.71224 0.23401 0.0
H650 H 0.75968 0.78132 0.31268 0.0
H651 H 0.72059 0.80104 0.28197 0.0
H652 H 0.75703 0.75275 0.17715 0.0
H653 H 0.72599 0.72502 0.14868 0.0
H654 H 0.75346 0.71617 0.17714 0.0
H655 H 0.69627 0.68681 0.19361 0.0
H656 H 0.66862 0.6956 0.16519 0.0
H657 H 0.66076 0.70331 0.20487 0.0
H658 H 0.68178 0.81339 0.24213 0.0
H659 H 0.64625 0.81774 0.19648 0.0
H660 H 0.66633 0.7406 0.14358 0.0
C661 C 0.74661 0.73145 0.24469 0.0
C662 C 0.75938 0.74537 0.27554 0.0
C663 C 0.74987 0.77045 0.289 0.0
C664 C 0.72775 0.78173 0.27175 0.0
C665 C 0.71552 0.76755 0.2412 0.0
C666 C 0.72459 0.74293 0.2278 0.0
C667 C 0.70841 0.73202 0.19448 0.0
C668 C 0.73799 0.73147 0.17311 0.0
C669 C 0.68194 0.7027 0.18924 0.0
C670 C 0.68896 0.75441 0.19111 0.0
C671 C 0.69333 0.77469 0.21832 0.0
C672 C 0.67822 0.79765 0.22071 0.0
C673 C 0.65827 0.80003 0.19459 0.0
C674 C 0.6536 0.77958 0.16638 0.0
C675 C 0.66907 0.75642 0.16483 0.0
H676 H 0.78154 0.22346 0.80989 0.0
H677 H 0.81979 0.20059 0.89137 0.0
H678 H 0.82322 0.15452 0.85949 0.0
H679 H 0.72749 0.15116 0.76987 0.0
H680 H 0.73867 0.15626 0.73281 0.0
H681 H 0.73599 0.18602 0.76256 0.0
H682 H 0.80089 0.21206 0.75678 0.0
H683 H 0.80401 0.18226 0.7274 0.0
H684 H 0.83694 0.19529 0.76095 0.0
H685 H 0.83024 0.11407 0.81786 0.0
H686 H 0.834 0.07983 0.77069 0.0
H687 H 0.78658 0.12741 0.71647 0.0
C688 C 0.78989 0.20845 0.82104 0.0
C689 C 0.80028 0.21544 0.85307 0.0
C690 C 0.81125 0.19543 0.86692 0.0
C691 C 0.8135 0.16932 0.84897 0.0
C692 C 0.80412 0.16344 0.8173 0.0
C693 C 0.79182 0.1822 0.80352 0.0
C694 C 0.78443 0.17115 0.76898 0.0
C695 C 0.74425 0.16583 0.75791 0.0
C696 C 0.80798 0.1914 0.75257 0.0
C697 C 0.79552 0.14363 0.76535 0.0
C698 C 0.80684 0.13959 0.79346 0.0
C699 C 0.82055 0.11664 0.79577 0.0
C700 C 0.82236 0.09714 0.76869 0.0
C701 C 0.81013 0.10039 0.73949 0.0
C702 C 0.79645 0.12409 0.73812 0.0
H703 H 0.32155 0.26433 0.32512 0.0
H704 H 0.4123 0.27076 0.39089 0.0
H705 H 0.45363 0.27956 0.35223 0.0
H706 H 0.35118 0.22617 0.26231 0.0
H707 H 0.33537 0.24298 0.2344 0.0
H708 H 0.3133 0.24126 0.26828 0.0
H709 H 0.32388 0.29581 0.28219 0.0
H710 H 0.34568 0.29769 0.24811 0.0
H711 H 0.36882 0.318 0.28513 0.0
H712 H 0.4843 0.28253 0.30507 0.0
H713 H 0.50193 0.27986 0.2526 0.0
H714 H 0.3917 0.2718 0.21738 0.0
C715 C 0.35023 0.26849 0.33159 0.0
C716 C 0.36385 0.26711 0.36102 0.0
C717 C 0.40142 0.2718 0.36845 0.0
C718 C 0.42507 0.27689 0.34669 0.0
C719 C 0.41075 0.27729 0.31757 0.0
C720 C 0.37423 0.27341 0.31001 0.0
C721 C 0.36553 0.27257 0.27638 0.0
C722 C 0.33983 0.24405 0.25935 0.0
C723 C 0.35007 0.29751 0.27275 0.0
C724 C 0.40266 0.27579 0.26607 0.0
C725 C 0.42844 0.27877 0.29025 0.0
C726 C 0.46442 0.28055 0.28604 0.0
C727 C 0.4742 0.27896 0.25628 0.0
C728 C 0.44806 0.27536 0.23124 0.0
C729 C 0.41204 0.27437 0.23629 0.0
H730 H 0.86043 0.72823 0.83434 0.0
H731 H 0.79033 0.69199 0.74839 0.0
H732 H 0.81985 0.65277 0.7375 0.0
H733 H 0.94096 0.70792 0.80668 0.0
H734 H 0.95433 0.70043 0.84255 0.0
H735 H 0.92993 0.727 0.84211 0.0
H736 H 0.88163 0.701 0.87082 0.0
H737 H 0.90562 0.6742 0.87105 0.0
H738 H 0.85913 0.66426 0.85469 0.0
H739 H 0.85248 0.61496 0.73857 0.0
H740 H 0.88877 0.58301 0.74959 0.0
H741 H 0.93942 0.64459 0.83406 0.0
C742 C 0.85164 0.71225 0.81302 0.0
C743 C 0.82317 0.71329 0.79213 0.0
C744 C 0.81247 0.69195 0.76449 0.0
C745 C 0.82891 0.66946 0.7582 0.0
C746 C 0.85624 0.6687 0.77965 0.0
C747 C 0.86788 0.68972 0.80631 0.0
C748 C 0.89694 0.68339 0.82603 0.0
C749 C 0.93266 0.70603 0.82954 0.0
C750 C 0.8851 0.68054 0.8575 0.0
C751 C 0.89918 0.65517 0.80664 0.0
C752 C 0.87554 0.64712 0.77997 0.0
C753 C 0.87159 0.6213 0.75911 0.0
C754 C 0.89255 0.60332 0.76554 0.0
C755 C 0.91742 0.61122 0.79258 0.0
C756 C 0.92061 0.63764 0.81329 0.0
H757 H 0.80829 0.32051 0.40518 0.0
H758 H 0.87909 0.27028 0.42839 0.0
H759 H 0.93124 0.31194 0.43578 0.0
H760 H 0.86581 0.35712 0.36116 0.0
H761 H 0.85373 0.39009 0.37364 0.0
H762 H 0.82193 0.35715 0.37288 0.0
H763 H 0.81599 0.37494 0.43045 0.0
H764 H 0.84767 0.40803 0.43136 0.0
H765 H 0.85581 0.38732 0.45804 0.0
H766 H 0.97623 0.35856 0.43681 0.0
H767 H 0.00964 0.40626 0.43269 0.0
H768 H 0.90905 0.42533 0.40857 0.0
C769 C 0.83474 0.31823 0.41193 0.0
C770 C 0.83961 0.29204 0.41607 0.0
C771 C 0.87464 0.29016 0.42535 0.0
C772 C 0.90442 0.31368 0.42945 0.0
C773 C 0.89868 0.33897 0.42442 0.0
C774 C 0.86461 0.34138 0.41608 0.0
C775 C 0.86558 0.37049 0.41096 0.0
C776 C 0.8509 0.36858 0.37769 0.0
C777 C 0.84505 0.38611 0.43409 0.0
C778 C 0.90561 0.38402 0.41718 0.0
C779 C 0.92432 0.36559 0.42505 0.0
C780 C 0.96179 0.37317 0.43088 0.0
C781 C 0.98052 0.40019 0.42846 0.0
C782 C 0.96177 0.41914 0.42015 0.0
C783 C 0.92388 0.41106 0.41483 0.0
H784 H 0.15595 0.33053 0.80835 0.0
H785 H 0.25392 0.37618 0.86849 0.0
H786 H 0.22906 0.41816 0.88231 0.0
H787 H 0.14429 0.38634 0.77809 0.0
H788 H 0.09591 0.37751 0.77583 0.0
H789 H 0.11933 0.35017 0.77403 0.0
H790 H 0.08918 0.33561 0.82004 0.0
H791 H 0.06534 0.36278 0.82181 0.0
H792 H 0.09294 0.3619 0.85535 0.0
H793 H 0.19544 0.45641 0.88519 0.0
H794 H 0.15619 0.48756 0.87743 0.0
H795 H 0.08002 0.4162 0.81553 0.0
C796 C 0.17164 0.34916 0.82509 0.0
C797 C 0.20644 0.35031 0.83786 0.0
C798 C 0.2269 0.37504 0.85897 0.0
C799 C 0.21301 0.39888 0.86685 0.0
C800 C 0.17868 0.39738 0.85338 0.0
C801 C 0.15817 0.37303 0.83311 0.0
C802 C 0.12323 0.37738 0.82011 0.0
C803 C 0.12057 0.37257 0.78494 0.0
C804 C 0.09075 0.35829 0.82992 0.0
C805 C 0.12766 0.40821 0.83548 0.0
C806 C 0.15958 0.41933 0.85484 0.0
C807 C 0.17014 0.44779 0.87043 0.0
C808 C 0.14761 0.46531 0.86595 0.0
C809 C 0.11498 0.45437 0.84587 0.0
C810 C 0.10489 0.42532 0.83082 0.0
H811 H 0.23624 0.69898 0.36125 0.0
H812 H 0.33022 0.66594 0.36792 0.0
H813 H 0.29344 0.62412 0.38232 0.0
H814 H 0.19546 0.67467 0.42508 0.0
H815 H 0.15032 0.66599 0.40586 0.0
H816 H 0.18454 0.69406 0.39787 0.0
H817 H 0.1717 0.66938 0.33989 0.0
H818 H 0.1376 0.6412 0.34772 0.0
H819 H 0.17417 0.6332 0.32746 0.0
H820 H 0.24597 0.58509 0.39417 0.0
H821 H 0.19072 0.55147 0.40212 0.0
H822 H 0.12782 0.60967 0.38724 0.0
C823 C 0.24918 0.68317 0.36628 0.0
C824 C 0.2861 0.68572 0.3636 0.0
C825 C 0.30193 0.6643 0.3697 0.0
C826 C 0.28131 0.64056 0.37801 0.0
C827 C 0.24488 0.63853 0.38006 0.0
C828 C 0.22894 0.65926 0.3744 0.0
C829 C 0.18897 0.65139 0.37692 0.0
C830 C 0.17926 0.6728 0.40299 0.0
C831 C 0.16682 0.64863 0.34616 0.0
C832 C 0.18486 0.6229 0.38464 0.0
C833 C 0.21747 0.61592 0.38653 0.0
C834 C 0.22033 0.59038 0.39288 0.0
C835 C 0.18899 0.57146 0.39732 0.0
C836 C 0.15546 0.5782 0.39521 0.0
C837 C 0.15336 0.60424 0.38896 0.0
H838 H 0.77048 0.84741 0.76024 0.0
H839 H 0.79349 0.78201 0.68997 0.0
H840 H 0.80858 0.8162 0.6571 0.0
H841 H 0.72719 0.87794 0.7107 0.0
H842 H 0.74472 0.91394 0.73261 0.0
H843 H 0.73937 0.88528 0.7516 0.0
H844 H 0.80676 0.90228 0.77382 0.0
H845 H 0.81222 0.93123 0.75519 0.0
H846 H 0.84059 0.90713 0.74818 0.0
H847 H 0.81705 0.85718 0.63076 0.0
H848 H 0.81953 0.90166 0.61381 0.0
H849 H 0.79043 0.93962 0.70148 0.0
C850 C 0.77957 0.84059 0.73821 0.0
C851 C 0.78151 0.81244 0.72759 0.0
C852 C 0.7925 0.80376 0.69847 0.0
C853 C 0.80097 0.82298 0.67972 0.0
C854 C 0.79819 0.85065 0.69059 0.0
C855 C 0.788 0.85946 0.71929 0.0
C856 C 0.78537 0.88982 0.7251 0.0
C857 C 0.74688 0.89184 0.7303 0.0
C858 C 0.81288 0.90873 0.75218 0.0
C859 C 0.79503 0.89666 0.69503 0.0
C860 C 0.80254 0.87389 0.67542 0.0
C861 C 0.81137 0.87514 0.64601 0.0
C862 C 0.81259 0.90031 0.63651 0.0
C863 C 0.80471 0.92361 0.65628 0.0
C864 C 0.79616 0.92183 0.68593 0.0
H865 H 0.72011 0.27711 0.3584 0.0
H866 H 0.72736 0.19018 0.33166 0.0
H867 H 0.68489 0.18218 0.28497 0.0
H868 H 0.62508 0.26208 0.3334 0.0
H869 H 0.62889 0.29422 0.32045 0.0
H870 H 0.66046 0.29321 0.35129 0.0
H871 H 0.7133 0.30988 0.32118 0.0
H872 H 0.68188 0.31084 0.29019 0.0
H873 H 0.71415 0.29006 0.28276 0.0
H874 H 0.64346 0.18423 0.24051 0.0
H875 H 0.60256 0.19485 0.20295 0.0
H876 H 0.61864 0.27961 0.26058 0.0
C877 C 0.71281 0.25646 0.34259 0.0
C878 C 0.72704 0.23425 0.34844 0.0
C879 C 0.71658 0.20738 0.32756 0.0
C880 C 0.69264 0.20271 0.30098 0.0
C881 C 0.67913 0.22504 0.29583 0.0
C882 C 0.68852 0.2513 0.31619 0.0
C883 C 0.66924 0.27142 0.3057 0.0
C884 C 0.64444 0.28078 0.3291 0.0
C885 C 0.69626 0.29706 0.29959 0.0
C886 C 0.64775 0.25243 0.27614 0.0
C887 C 0.65407 0.22586 0.27079 0.0
C888 C 0.63792 0.20486 0.24465 0.0
C889 C 0.61442 0.21108 0.22354 0.0
C890 C 0.60676 0.238 0.22876 0.0
C891 C 0.62394 0.2589 0.25553 0.0
H892 H 0.25899 0.22123 0.7587 0.0
H893 H 0.35992 0.24399 0.81859 0.0
H894 H 0.3806 0.20732 0.78376 0.0
H895 H 0.24952 0.1474 0.73592 0.0
H896 H 0.23248 0.14403 0.69662 0.0
H897 H 0.2251 0.17172 0.72656 0.0
H898 H 0.25498 0.20938 0.69812 0.0
H899 H 0.2622 0.18178 0.66795 0.0
H900 H 0.29964 0.21057 0.68769 0.0
H901 H 0.3891 0.16648 0.74357 0.0
H902 H 0.3867 0.12706 0.6994 0.0
H903 H 0.28348 0.13525 0.66261 0.0
C904 C 0.2857 0.21897 0.76442 0.0
C905 C 0.30754 0.23552 0.79179 0.0
C906 C 0.34212 0.23124 0.7983 0.0
C907 C 0.35431 0.21058 0.77849 0.0
C908 C 0.33196 0.19463 0.75191 0.0
C909 C 0.29861 0.19886 0.74463 0.0
C910 C 0.28014 0.17929 0.7143 0.0
C911 C 0.24472 0.15944 0.71863 0.0
C912 C 0.27388 0.19627 0.69062 0.0
C913 C 0.30818 0.16317 0.70584 0.0
C914 C 0.33773 0.17218 0.72794 0.0
C915 C 0.36637 0.1596 0.72582 0.0
C916 C 0.36485 0.13729 0.70037 0.0
C917 C 0.3351 0.12796 0.67697 0.0
C918 C 0.30653 0.14138 0.67996 0.0
H919 H 0.45027 0.73708 0.2561 0.0
H920 H 0.36673 0.78199 0.26013 0.0
H921 H 0.39447 0.80804 0.22286 0.0
H922 H 0.52493 0.79614 0.24615 0.0
H923 H 0.54392 0.77241 0.21996 0.0
H924 H 0.52034 0.76036 0.24991 0.0
H925 H 0.47791 0.71871 0.20923 0.0
H926 H 0.50138 0.73063 0.17929 0.0
H927 H 0.45343 0.72613 0.1777 0.0
H928 H 0.42637 0.82384 0.18011 0.0
H929 H 0.46046 0.82884 0.13592 0.0
H930 H 0.52461 0.77496 0.16108 0.0
C931 C 0.43853 0.753 0.24967 0.0
C932 C 0.40685 0.75803 0.26097 0.0
C933 C 0.39137 0.77831 0.25177 0.0
C934 C 0.40695 0.79315 0.23072 0.0
C935 C 0.43804 0.78743 0.21944 0.0
C936 C 0.45382 0.76798 0.22878 0.0
C937 C 0.48533 0.76397 0.2114 0.0
C938 C 0.52073 0.77382 0.23316 0.0
C939 C 0.47911 0.73303 0.19334 0.0
C940 C 0.48415 0.78349 0.19013 0.0
C941 C 0.4569 0.79705 0.19528 0.0
C942 C 0.44847 0.81405 0.17649 0.0
C943 C 0.46809 0.81696 0.15162 0.0
C944 C 0.49597 0.80318 0.14603 0.0
C945 C 0.50425 0.78651 0.1657 0.0
H946 H 0.78617 0.18868 0.51359 0.0
H947 H 0.82011 0.15565 0.42625 0.0
H948 H 0.83748 0.11788 0.44698 0.0
H949 H 0.85598 0.17186 0.56328 0.0
H950 H 0.82463 0.16254 0.58973 0.0
H951 H 0.81991 0.18901 0.56927 0.0
H952 H 0.75429 0.16058 0.54854 0.0
H953 H 0.75896 0.13387 0.56854 0.0
H954 H 0.74561 0.12413 0.52768 0.0
H955 H 0.84392 0.08035 0.47552 0.0
H956 H 0.84123 0.04755 0.5102 0.0
H957 H 0.80414 0.10575 0.57905 0.0
C958 C 0.7985 0.17406 0.49929 0.0
C959 C 0.80269 0.17524 0.46865 0.0
C960 C 0.81757 0.1553 0.45005 0.0
C961 C 0.82732 0.13377 0.4616 0.0
C962 C 0.82205 0.13264 0.4918 0.0
C963 C 0.80839 0.15251 0.51053 0.0
C964 C 0.80286 0.14549 0.54132 0.0
C965 C 0.82731 0.1686 0.56745 0.0
C966 C 0.76307 0.14073 0.54682 0.0
C967 C 0.81452 0.11816 0.53674 0.0
C968 C 0.8257 0.11112 0.50812 0.0
C969 C 0.83566 0.08587 0.49812 0.0
C970 C 0.83396 0.06735 0.51781 0.0
C971 C 0.82217 0.07413 0.54697 0.0
C972 C 0.81305 0.1001 0.55672 0.0
H973 H 0.35991 0.29889 0.89465 0.0
H974 H 0.24874 0.27551 0.91169 0.0
H975 H 0.26879 0.27653 0.96564 0.0
H976 H 0.39214 0.25741 0.93548 0.0
H977 H 0.43484 0.28231 0.95069 0.0
H978 H 0.41182 0.28342 0.91505 0.0
H979 H 0.41328 0.3361 0.93681 0.0
H980 H 0.43676 0.33528 0.97249 0.0
H981 H 0.3954 0.34622 0.97242 0.0
H982 H 0.30157 0.27312 0.01509 0.0
H983 H 0.34361 0.26887 0.05656 0.0
H984 H 0.43342 0.29842 0.008 0.0
C985 C 0.33987 0.29473 0.91004 0.0
C986 C 0.30286 0.28725 0.8993 0.0
C987 C 0.27723 0.28161 0.91978 0.0
C988 C 0.2884 0.28206 0.95034 0.0
C989 C 0.32524 0.28873 0.96004 0.0
C990 C 0.35056 0.29551 0.94059 0.0
C991 C 0.3884 0.30049 0.95593 0.0
C992 C 0.40792 0.27966 0.93824 0.0
C993 C 0.40971 0.33136 0.95964 0.0
C994 C 0.38048 0.29433 0.98664 0.0
C995 C 0.34397 0.2877 0.98872 0.0
C996 C 0.33027 0.27897 0.014 0.0
C997 C 0.35447 0.27675 0.03758 0.0
C998 C 0.39209 0.28333 0.03584 0.0
C999 C 0.40496 0.29284 0.01016 0.0
H1000 H 0.34614 0.78966 0.41393 0.0
H1001 H 0.30014 0.79641 0.32617 0.0
H1002 H 0.29524 0.84478 0.35 0.0
H1003 H 0.29382 0.82665 0.46151 0.0
H1004 H 0.33032 0.84439 0.49165 0.0
H1005 H 0.33005 0.81052 0.4676 0.0
H1006 H 0.39297 0.83181 0.45313 0.0
H1007 H 0.39351 0.86572 0.47727 0.0
H1008 H 0.39981 0.86263 0.43739 0.0
H1009 H 0.29197 0.89112 0.38467 0.0
H1010 H 0.29483 0.93318 0.42591 0.0
H1011 H 0.34912 0.89763 0.48966 0.0
C1012 C 0.3351 0.80144 0.39983 0.0
C1013 C 0.32323 0.78951 0.36838 0.0
C1014 C 0.3093 0.80541 0.35035 0.0
C1015 C 0.30638 0.83276 0.3637 0.0
C1016 C 0.31814 0.84394 0.39491 0.0
C1017 C 0.33271 0.82891 0.41262 0.0
C1018 C 0.34415 0.84592 0.44541 0.0
C1019 C 0.32334 0.83097 0.46786 0.0
C1020 C 0.38504 0.85187 0.45378 0.0
C1021 C 0.33318 0.87269 0.44357 0.0
C1022 C 0.318 0.87109 0.41435 0.0
C1023 C 0.3044 0.89281 0.40752 0.0
C1024 C 0.30645 0.9168 0.43117 0.0
C1025 C 0.32247 0.91917 0.46131 0.0
C1026 C 0.3362 0.89669 0.46722 0.0
H1027 H 0.69853 0.75716 0.84923 0.0
H1028 H 0.80546 0.76655 0.89393 0.0
H1029 H 0.78241 0.77332 0.94444 0.0
H1030 H 0.67554 0.81059 0.90561 0.0
H1031 H 0.62905 0.79134 0.90221 0.0
H1032 H 0.65402 0.78649 0.86981 0.0
H1033 H 0.63823 0.73242 0.86587 0.0
H1034 H 0.61333 0.73713 0.89834 0.0
H1035 H 0.64914 0.71959 0.89891 0.0
H1036 H 0.74713 0.77995 0.99047 0.0
H1037 H 0.70251 0.78563 0.02744 0.0
H1038 H 0.62014 0.77314 0.95193 0.0
C1039 C 0.71729 0.76093 0.8696 0.0
C1040 C 0.75389 0.76146 0.86758 0.0
C1041 C 0.77725 0.76583 0.89487 0.0
C1042 C 0.76444 0.76982 0.92366 0.0
C1043 C 0.72822 0.76936 0.92477 0.0
C1044 C 0.70503 0.76503 0.8984 0.0
C1045 C 0.6674 0.76569 0.90562 0.0
C1046 C 0.65584 0.78997 0.8952 0.0
C1047 C 0.64045 0.737 0.89134 0.0
C1048 C 0.67297 0.7712 0.9402 0.0
C1049 C 0.70815 0.77317 0.95094 0.0
C1050 C 0.7195 0.77832 0.98227 0.0
C1051 C 0.69415 0.78148 0.00305 0.0
C1052 C 0.65813 0.7794 0.99227 0.0
C1053 C 0.64756 0.77441 0.96054 0.0
loop_
_geom_bond_atom_site_label_1
_geom_bond_atom_site_label_2
_geom_bond_distance
_geom_bond_site_symmetry_2
_ccdc_geom_bond_type
H0 C3 0.929 . S
H1 C6 0.929 . S
H2 C8 0.930 . S
C3 H0 0.929 . S
C3 C4 1.398 . S
C3 C5 1.396 . S
C4 C3 1.398 . S
C4 C8 1.407 . S
C5 C3 1.396 . S
C5 C6 1.394 . S
C6 H1 0.929 . S
C6 C5 1.394 . S
C6 C7 1.382 . S
C7 C6 1.382 . S
C7 C8 1.392 . S
C7 N9 1.420 . S
C8 H2 0.930 . S
C8 C4 1.407 . S
C8 C7 1.392 . S
N9 C7 1.420 . S
N9 C10 1.244 . S
C10 N9 1.244 . S
H11 C14 0.929 . S
H12 C17 0.929 . S
H13 C19 0.930 . S
C14 H11 0.929 . S
C14 C15 1.398 . S
C14 C16 1.396 . S
C15 C14 1.398 . S
C15 C19 1.407 . S
C16 C14 1.396 . S
C16 C17 1.394 . S
C17 H12 0.929 . S
C17 C16 1.394 . S
C17 C18 1.382 . S
C18 C17 1.382 . S
C18 C19 1.392 . S
C18 N20 1.420 . S
C19 H13 0.930 . S
C19 C15 1.407 . S
C19 C18 1.392 . S
N20 C18 1.420 . S
N20 C21 1.244 . S
C21 N20 1.244 . S
H22 C25 0.929 . S
H23 C28 0.929 . S
H24 C30 0.930 . S
C25 H22 0.929 . S
C25 C26 1.398 . S
C25 C27 1.396 . S
C26 C25 1.398 . S
C26 C30 1.407 . S
C27 C25 1.396 . S
C27 C28 1.394 . S
C28 H23 0.929 . S
C28 C27 1.394 . S
C28 C29 1.382 . S
C29 C28 1.382 . S
C29 C30 1.392 . S
C29 N31 1.420 . S
C30 H24 0.930 . S
C30 C26 1.407 . S
C30 C29 1.392 . S
N31 C29 1.420 . S
N31 C32 1.244 . S
C32 N31 1.244 . S
H33 C36 0.929 . S
H34 C39 0.929 . S
H35 C41 0.930 . S
C36 H33 0.929 . S
C36 C37 1.398 . S
C36 C38 1.396 . S
C37 C36 1.398 . S
C37 C41 1.407 . S
C38 C36 1.396 . S
C38 C39 1.394 . S
C39 H34 0.929 . S
C39 C38 1.394 . S
C39 C40 1.382 . S
C40 C39 1.382 . S
C40 C41 1.392 . S
C40 N42 1.420 . S
C41 H35 0.930 . S
C41 C37 1.407 . S
C41 C40 1.392 . S
N42 C40 1.420 . S
N42 C43 1.244 . S
C43 N42 1.244 . S
H44 C47 0.929 . S
H45 C50 0.929 . S
H46 C52 0.930 . S
C47 H44 0.929 . S
C47 C48 1.398 . S
C47 C49 1.396 . S
C48 C47 1.398 . S
C48 C52 1.407 . S
C49 C47 1.396 . S
C49 C50 1.394 . S
C50 H45 0.929 . S
C50 C49 1.394 . S
C50 C51 1.382 . S
C51 C50 1.382 . S
C51 C52 1.392 . S
C51 N53 1.420 . S
C52 H46 0.930 . S
C52 C48 1.407 . S
C52 C51 1.392 . S
N53 C51 1.420 . S
N53 C54 1.244 . S
C54 N53 1.244 . S
H55 C58 0.929 . S
H56 C61 0.929 . S
H57 C63 0.930 . S
C58 H55 0.929 . S
C58 C59 1.398 . S
C58 C60 1.396 . S
C59 C58 1.398 . S
C59 C63 1.407 . S
C60 C58 1.396 . S
C60 C61 1.394 . S
C61 H56 0.929 . S
C61 C60 1.394 . S
C61 C62 1.382 . S
C62 C61 1.382 . S
C62 C63 1.392 . S
C62 N64 1.420 . S
C63 H57 0.930 . S
C63 C59 1.407 . S
C63 C62 1.392 . S
N64 C62 1.420 . S
N64 C65 1.244 . S
C65 N64 1.244 . S
H66 C69 0.929 . S
H67 C72 0.929 . S
H68 C74 0.930 . S
C69 H66 0.929 . S
C69 C70 1.398 . S
C69 C71 1.396 . S
C70 C69 1.398 . S
C70 C74 1.407 . S
C71 C69 1.396 . S
C71 C72 1.394 . S
C72 H67 0.929 . S
C72 C71 1.394 . S
C72 C73 1.382 . S
C73 C72 1.382 . S
C73 C74 1.392 . S
C73 N75 1.420 . S
C74 H68 0.930 . S
C74 C70 1.407 . S
C74 C73 1.392 . S
N75 C73 1.420 . S
N75 C76 1.244 . S
C76 N75 1.244 . S
H77 C80 0.929 . S
H78 C83 0.929 . S
H79 C85 0.930 . S
C80 H77 0.929 . S
C80 C81 1.398 . S
C80 C82 1.396 . S
C81 C80 1.398 . S
C81 C85 1.407 . S
C82 C80 1.396 . S
C82 C83 1.394 . S
C83 H78 0.929 . S
C83 C82 1.394 . S
C83 C84 1.382 . S
C84 C83 1.382 . S
C84 C85 1.392 . S
C84 N86 1.420 . S
C85 H79 0.930 . S
C85 C81 1.407 . S
C85 C84 1.392 . S
N86 C84 1.420 . S
N86 C87 1.244 . S
C87 N86 1.244 . S
C88 C89 1.443 . S
C88 N92 1.376 . S
C88 C126 1.389 . S
C89 C88 1.443 . S
C89 C90 1.340 . S
C89 H129 0.951 . S
C90 C89 1.340 . S
C90 C91 1.439 . S
C90 H130 0.950 . S
C91 C90 1.439 . S
C91 N92 1.374 . S
C91 C125 1.395 . S
N92 C88 1.376 . S
N92 C91 1.374 . S
N92 Co93 2.008 . S
Co93 N92 2.008 . S
Co93 N94 1.995 . S
Co93 N99 2.008 . S
Co93 N104 1.995 . S
Co93 N109 2.282 . S
Co93 N115 2.282 . S
N94 Co93 1.995 . S
N94 C95 1.376 . S
N94 C98 1.383 . S
C95 N94 1.376 . S
C95 C96 1.446 . S
C95 C125 1.391 . S
C96 C95 1.446 . S
C96 C97 1.339 . S
C96 H131 0.949 . S
C97 C96 1.339 . S
C97 C98 1.439 . S
C97 H132 0.946 1_455 S
C98 N94 1.383 . S
C98 C97 1.439 . S
C98 C127 1.392 . S
N99 Co93 2.008 . S
N99 C100 1.376 . S
N99 C103 1.374 . S
C100 N99 1.376 . S
C100 C101 1.443 1_455 S
C100 C127 1.389 . S
C101 C100 1.443 1_655 S
C101 C102 1.340 . S
C101 H133 0.951 . S
C102 C101 1.340 . S
C102 C103 1.439 1_655 S
C102 H134 0.950 . S
C103 N99 1.374 . S
C103 C102 1.439 1_455 S
C103 C128 1.395 . S
N104 Co93 1.995 . S
N104 C105 1.376 . S
N104 C108 1.383 . S
C105 N104 1.376 . S
C105 C106 1.446 . S
C105 C128 1.391 . S
C106 C105 1.446 . S
C106 C107 1.339 . S
C106 H135 0.949 . S
C107 C106 1.339 . S
C107 C108 1.439 . S
C107 H136 0.950 . S
C108 N104 1.383 . S
C108 C107 1.439 . S
C108 C126 1.392 . S
N109 Co93 2.282 . S
N109 C112 1.332 . S
N109 C114 1.332 . S
C110 C111 1.386 . S
C110 C113 1.388 . S
C111 C110 1.386 . S
C111 C112 1.382 . S
C111 H137 0.950 . S
C112 N109 1.332 . S
C112 C111 1.382 . S
C112 H123 0.952 . S
C113 C110 1.388 . S
C113 C114 1.382 . S
C113 H138 0.950 . S
C114 N109 1.332 . S
C114 C113 1.382 . S
C114 H124 0.948 . S
N115 Co93 2.282 . S
N115 C119 1.332 . S
N115 C120 1.332 . S
C116 C117 1.388 . S
C116 C120 1.382 1_655 S
C116 H139 0.950 . S
C117 C116 1.388 . S
C117 C118 1.386 . S
C118 C117 1.386 . S
C118 C119 1.382 1_655 S
C118 H140 0.950 . S
C119 N115 1.332 . S
C119 C118 1.382 1_455 S
C119 H121 0.952 . S
C120 N115 1.332 . S
C120 C116 1.382 1_455 S
C120 H122 0.948 . S
H121 C119 0.952 . S
H122 C120 0.948 . S
H123 C112 0.952 . S
H124 C114 0.948 . S
C125 C91 1.395 . S
C125 C95 1.391 . S
C126 C88 1.389 . S
C126 C108 1.392 . S
C127 C98 1.392 . S
C127 C100 1.389 . S
C128 C103 1.395 . S
C128 C105 1.391 . S
H129 C89 0.951 . S
H130 C90 0.950 . S
H131 C96 0.949 . S
H132 C97 0.946 1_655 S
H133 C101 0.951 . S
H134 C102 0.950 . S
H135 C106 0.949 . S
H136 C107 0.950 . S
H137 C111 0.950 . S
H138 C113 0.950 . S
H139 C116 0.950 . S
H140 C118 0.950 . S
C141 C142 1.443 . S
C141 N145 1.376 . S
C141 C179 1.389 . S
C142 C141 1.443 . S
C142 C143 1.340 . S
C142 H182 0.951 . S
C143 C142 1.340 . S
C143 C144 1.439 . S
C143 H183 0.950 . S
C144 C143 1.439 . S
C144 N145 1.374 . S
C144 C178 1.395 . S
N145 C141 1.376 . S
N145 C144 1.374 . S
N145 Co146 2.008 . S
Co146 N145 2.008 . S
Co146 N147 1.995 1_455 S
Co146 N152 2.008 1_455 S
Co146 N157 1.995 . S
Co146 N162 2.282 . S
Co146 N168 2.282 1_455 S
N147 Co146 1.995 1_655 S
N147 C148 1.376 . S
N147 C151 1.383 . S
C148 N147 1.376 . S
C148 C149 1.446 . S
C148 C178 1.391 1_655 S
C149 C148 1.446 . S
C149 C150 1.339 . S
C149 H184 0.949 . S
C150 C149 1.339 . S
C150 C151 1.439 . S
C150 H185 0.950 . S
C151 N147 1.383 . S
C151 C150 1.439 . S
C151 C180 1.392 . S
N152 Co146 2.008 1_655 S
N152 C153 1.376 . S
N152 C156 1.374 . S
C153 N152 1.376 . S
C153 C154 1.443 . S
C153 C180 1.389 . S
C154 C153 1.443 . S
C154 C155 1.340 . S
C154 H186 0.951 . S
C155 C154 1.340 . S
C155 C156 1.439 . S
C155 H187 0.950 . S
C156 N152 1.374 . S
C156 C155 1.439 . S
C156 C181 1.395 . S
N157 Co146 1.995 . S
N157 C158 1.376 . S
N157 C161 1.383 . S
C158 N157 1.376 . S
C158 C159 1.446 . S
C158 C181 1.391 1_455 S
C159 C158 1.446 . S
C159 C160 1.339 . S
C159 H188 0.949 . S
C160 C159 1.339 . S
C160 C161 1.439 . S
C160 H189 0.950 . S
C161 N157 1.383 . S
C161 C160 1.439 . S
C161 C179 1.392 . S
N162 Co146 2.282 . S
N162 C165 1.332 . S
N162 C167 1.332 . S
C163 C164 1.386 . S
C163 C166 1.388 . S
C164 C163 1.386 . S
C164 C165 1.382 . S
C164 H190 0.950 . S
C165 N162 1.332 . S
C165 C164 1.382 . S
C165 H176 0.952 . S
C166 C163 1.388 . S
C166 C167 1.382 . S
C166 H191 0.950 . S
C167 N162 1.332 . S
C167 C166 1.382 . S
C167 H177 0.948 . S
N168 Co146 2.282 1_655 S
N168 C172 1.332 . S
N168 C173 1.332 . S
C169 C170 1.388 . S
C169 C173 1.382 . S
C169 H192 0.950 . S
C170 C169 1.388 . S
C170 C171 1.386 . S
C171 C170 1.386 . S
C171 C172 1.382 . S
C171 H193 0.950 . S
C172 N168 1.332 . S
C172 C171 1.382 . S
C172 H174 0.952 . S
C173 N168 1.332 . S
C173 C169 1.382 . S
C173 H175 0.948 . S
H174 C172 0.952 . S
H175 C173 0.948 . S
H176 C165 0.952 . S
H177 C167 0.948 . S
C178 C144 1.395 . S
C178 C148 1.391 1_455 S
C179 C141 1.389 . S
C179 C161 1.392 . S
C180 C151 1.392 . S
C180 C153 1.389 . S
C181 C156 1.395 . S
C181 C158 1.391 1_655 S
H182 C142 0.951 . S
H183 C143 0.950 . S
H184 C149 0.949 . S
H185 C150 0.950 . S
H186 C154 0.951 . S
H187 C155 0.950 . S
H188 C159 0.949 . S
H189 C160 0.950 . S
H190 C164 0.950 . S
H191 C166 0.950 . S
H192 C169 0.950 . S
H193 C171 0.950 . S
C194 C195 1.443 . S
C194 N198 1.376 1_565 S
C194 C232 1.389 . S
C195 C194 1.443 . S
C195 C196 1.340 1_565 S
C195 H235 0.951 . S
C196 C195 1.340 1_545 S
C196 C197 1.439 . S
C196 H236 0.950 . S
C197 C196 1.439 . S
C197 N198 1.374 . S
C197 C231 1.395 . S
N198 C194 1.376 1_545 S
N198 C197 1.374 . S
N198 Co199 2.008 . S
Co199 N198 2.008 . S
Co199 N200 1.995 . S
Co199 N205 2.008 . S
Co199 N210 1.995 . S
Co199 N215 2.282 . S
Co199 N221 2.282 1_545 S
N200 Co199 1.995 . S
N200 C201 1.376 . S
N200 C204 1.383 . S
C201 N200 1.376 . S
C201 C202 1.446 . S
C201 C231 1.391 . S
C202 C201 1.446 . S
C202 C203 1.339 . S
C202 H237 0.949 . S
C203 C202 1.339 . S
C203 C204 1.439 . S
C203 H238 0.950 . S
C204 N200 1.383 . S
C204 C203 1.439 . S
C204 C233 1.392 . S
N205 Co199 2.008 . S
N205 C206 1.376 . S
N205 C209 1.374 . S
C206 N205 1.376 . S
C206 C207 1.443 . S
C206 C233 1.389 . S
C207 C206 1.443 . S
C207 C208 1.340 . S
C207 H239 0.951 . S
C208 C207 1.340 . S
C208 C209 1.439 . S
C208 H240 0.950 . S
C209 N205 1.374 . S
C209 C208 1.439 . S
C209 C234 1.395 . S
N210 Co199 1.995 . S
N210 C211 1.376 . S
N210 C214 1.383 1_545 S
C211 N210 1.376 . S
C211 C212 1.445 1_545 S
C211 C234 1.393 . S
C212 C211 1.445 1_565 S
C212 C213 1.339 . S
C212 H241 0.949 . S
C213 C212 1.339 . S
C213 C214 1.439 . S
C213 H242 0.950 . S
C214 N210 1.383 1_565 S
C214 C213 1.439 . S
C214 C232 1.392 . S
N215 Co199 2.282 . S
N215 C218 1.332 . S
N215 C220 1.332 . S
C216 C217 1.386 . S
C216 C219 1.388 . S
C217 C216 1.386 . S
C217 C218 1.382 . S
C217 H243 0.950 . S
C218 N215 1.332 . S
C218 C217 1.382 . S
C218 H229 0.952 . S
C219 C216 1.388 . S
C219 C220 1.382 . S
C219 H244 0.950 . S
C220 N215 1.332 . S
C220 C219 1.382 . S
C220 H230 0.948 . S
N221 Co199 2.282 1_565 S
N221 C225 1.332 . S
N221 C226 1.332 . S
C222 C223 1.388 . S
C222 C226 1.382 . S
C222 H245 0.950 . S
C223 C222 1.388 . S
C223 C224 1.386 . S
C224 C223 1.386 . S
C224 C225 1.382 . S
C224 H246 0.950 . S
C225 N221 1.332 . S
C225 C224 1.382 . S
C225 H227 0.952 1_565 S
C226 N221 1.332 . S
C226 C222 1.382 . S
C226 H228 0.948 . S
H227 C225 0.952 1_545 S
H228 C226 0.948 . S
H229 C218 0.952 . S
H230 C220 0.948 . S
C231 C197 1.395 . S
C231 C201 1.391 . S
C232 C194 1.389 . S
C232 C214 1.392 . S
C233 C204 1.392 . S
C233 C206 1.389 . S
C234 C209 1.395 . S
C234 C211 1.393 . S
H235 C195 0.951 . S
H236 C196 0.950 . S
H237 C202 0.949 . S
H238 C203 0.950 . S
H239 C207 0.951 . S
H240 C208 0.950 . S
H241 C212 0.949 . S
H242 C213 0.950 . S
H243 C217 0.950 . S
H244 C219 0.950 . S
H245 C222 0.950 . S
H246 C224 0.950 . S
C247 C248 1.443 . S
C247 N251 1.376 . S
C247 C285 1.389 . S
C248 C247 1.443 . S
C248 C249 1.340 . S
C248 H288 0.951 . S
C249 C248 1.340 . S
C249 C250 1.439 . S
C249 H289 0.950 . S
C250 C249 1.439 . S
C250 N251 1.374 . S
C250 C284 1.395 . S
N251 C247 1.376 . S
N251 C250 1.374 . S
N251 Co252 2.008 . S
Co252 N251 2.008 . S
Co252 N253 1.995 1_554 S
Co252 N258 2.008 1_554 S
Co252 N263 1.995 . S
Co252 N268 2.282 1_554 S
Co252 N274 2.282 . S
N253 Co252 1.995 1_556 S
N253 C254 1.376 1_556 S
N253 C257 1.383 . S
C254 N253 1.376 1_554 S
C254 C255 1.446 1_554 S
C254 C284 1.391 . S
C255 C254 1.446 1_556 S
C255 C256 1.339 . S
C255 H290 0.949 . S
C256 C255 1.339 . S
C256 C257 1.439 . S
C256 H291 0.950 . S
C257 N253 1.383 . S
C257 C256 1.439 . S
C257 C286 1.392 . S
N258 Co252 2.008 1_556 S
N258 C259 1.376 . S
N258 C262 1.374 . S
C259 N258 1.376 . S
C259 C260 1.443 . S
C259 C286 1.389 . S
C260 C259 1.443 . S
C260 C261 1.340 . S
C260 H292 0.951 . S
C261 C260 1.340 . S
C261 C262 1.439 . S
C261 H293 0.950 . S
C262 N258 1.374 . S
C262 C261 1.439 . S
C262 C287 1.395 . S
N263 Co252 1.995 . S
N263 C264 1.376 . S
N263 C267 1.383 . S
C264 N263 1.376 . S
C264 C265 1.446 . S
C264 C287 1.391 1_554 S
C265 C264 1.446 . S
C265 C266 1.339 . S
C265 H294 0.949 . S
C266 C265 1.339 . S
C266 C267 1.439 . S
C266 H295 0.950 . S
C267 N263 1.383 . S
C267 C266 1.439 . S
C267 C285 1.392 . S
N268 Co252 2.282 1_556 S
N268 C271 1.332 . S
N268 C273 1.332 . S
C269 C270 1.386 . S
C269 C272 1.388 . S
C270 C269 1.386 . S
C270 C271 1.382 . S
C270 H296 0.950 . S
C271 N268 1.332 . S
C271 C270 1.382 . S
C271 H282 0.952 . S
C272 C269 1.388 . S
C272 C273 1.382 . S
C272 H297 0.950 . S
C273 N268 1.332 . S
C273 C272 1.382 . S
C273 H283 0.948 . S
N274 Co252 2.282 . S
N274 C278 1.332 . S
N274 C279 1.332 . S
C275 C276 1.388 . S
C275 C279 1.382 . S
C275 H298 0.950 . S
C276 C275 1.388 . S
C276 C277 1.386 . S
C277 C276 1.386 . S
C277 C278 1.382 . S
C277 H299 0.950 . S
C278 N274 1.332 . S
C278 C277 1.382 . S
C278 H280 0.952 . S
C279 N274 1.332 . S
C279 C275 1.382 . S
C279 H281 0.948 . S
H280 C278 0.952 . S
H281 C279 0.948 . S
H282 C271 0.952 . S
H283 C273 0.948 . S
C284 C250 1.395 . S
C284 C254 1.391 . S
C285 C247 1.389 . S
C285 C267 1.392 . S
C286 C257 1.392 . S
C286 C259 1.389 . S
C287 C262 1.395 . S
C287 C264 1.391 1_556 S
H288 C248 0.951 . S
H289 C249 0.950 . S
H290 C255 0.949 . S
H291 C256 0.950 . S
H292 C260 0.951 . S
H293 C261 0.950 . S
H294 C265 0.949 . S
H295 C266 0.950 . S
H296 C270 0.950 . S
H297 C272 0.950 . S
H298 C275 0.950 . S
H299 C277 0.950 . S
C300 C301 1.443 . S
C300 N304 1.376 1_565 S
C300 C338 1.389 . S
C301 C300 1.443 . S
C301 C302 1.340 1_565 S
C301 H341 0.951 . S
C302 C301 1.340 1_545 S
C302 C303 1.439 . S
C302 H342 0.950 1_655 S
C303 C302 1.439 . S
C303 N304 1.374 . S
C303 C337 1.395 . S
N304 C300 1.376 1_545 S
N304 C303 1.374 . S
N304 Co305 2.008 . S
Co305 N304 2.008 . S
Co305 N306 1.995 . S
Co305 N311 2.008 . S
Co305 N316 1.995 . S
Co305 N321 2.282 . S
Co305 N327 2.282 . S
N306 Co305 1.995 . S
N306 C307 1.376 . S
N306 C310 1.383 . S
C307 N306 1.376 . S
C307 C308 1.446 . S
C307 C337 1.391 . S
C308 C307 1.446 . S
C308 C309 1.339 . S
C308 H343 0.949 1_655 S
C309 C308 1.339 . S
C309 C310 1.439 . S
C309 H344 0.950 . S
C310 N306 1.383 . S
C310 C309 1.439 . S
C310 C339 1.392 . S
N311 Co305 2.008 . S
N311 C312 1.376 . S
N311 C315 1.374 . S
C312 N311 1.376 . S
C312 C313 1.443 . S
C312 C339 1.389 . S
C313 C312 1.443 . S
C313 C314 1.340 . S
C313 H345 0.951 . S
C314 C313 1.340 . S
C314 C315 1.439 . S
C314 H346 0.950 . S
C315 N311 1.374 . S
C315 C314 1.439 . S
C315 C340 1.395 . S
N316 Co305 1.995 . S
N316 C317 1.376 . S
N316 C320 1.383 1_545 S
C317 N316 1.376 . S
C317 C318 1.446 1_545 S
C317 C340 1.391 . S
C318 C317 1.446 1_565 S
C318 C319 1.339 . S
C318 H347 0.949 . S
C319 C318 1.339 . S
C319 C320 1.439 . S
C319 H348 0.950 . S
C320 N316 1.383 1_565 S
C320 C319 1.439 . S
C320 C338 1.392 . S
N321 Co305 2.282 . S
N321 C324 1.332 . S
N321 C326 1.332 . S
C322 C323 1.386 . S
C322 C325 1.388 . S
C323 C322 1.386 . S
C323 C324 1.382 . S
C323 H349 0.950 . S
C324 N321 1.332 . S
C324 C323 1.382 . S
C324 H335 0.952 . S
C325 C322 1.388 . S
C325 C326 1.382 . S
C325 H350 0.950 . S
C326 N321 1.332 . S
C326 C325 1.382 . S
C326 H336 0.948 . S
N327 Co305 2.282 . S
N327 C331 1.332 . S
N327 C332 1.332 1_545 S
C328 C329 1.388 . S
C328 C332 1.382 . S
C328 H351 0.950 . S
C329 C328 1.388 . S
C329 C330 1.386 . S
C330 C329 1.386 . S
C330 C331 1.382 1_565 S
C330 H352 0.950 . S
C331 N327 1.332 . S
C331 C330 1.382 1_545 S
C331 H333 0.952 . S
C332 N327 1.332 1_565 S
C332 C328 1.382 . S
C332 H334 0.948 . S
H333 C331 0.952 . S
H334 C332 0.948 . S
H335 C324 0.952 . S
H336 C326 0.948 . S
C337 C303 1.395 . S
C337 C307 1.391 . S
C338 C300 1.389 . S
C338 C320 1.392 . S
C339 C310 1.392 . S
C339 C312 1.389 . S
C340 C315 1.395 . S
C340 C317 1.391 . S
H341 C301 0.951 . S
H342 C302 0.950 1_455 S
H343 C308 0.949 1_455 S
H344 C309 0.950 . S
H345 C313 0.951 . S
H346 C314 0.950 . S
H347 C318 0.949 . S
H348 C319 0.950 . S
H349 C323 0.950 . S
H350 C325 0.950 . S
H351 C328 0.950 . S
H352 C330 0.950 . S
C353 C354 1.443 . S
C353 N357 1.376 . S
C353 C391 1.389 . S
C354 C353 1.443 . S
C354 C355 1.340 . S
C354 H394 0.951 . S
C355 C354 1.340 . S
C355 C356 1.439 . S
C355 H395 0.950 . S
C356 C355 1.439 . S
C356 N357 1.374 . S
C356 C390 1.395 . S
N357 C353 1.376 . S
N357 C356 1.374 . S
N357 Co358 2.008 . S
Co358 N357 2.008 . S
Co358 N359 1.995 . S
Co358 N364 2.008 . S
Co358 N369 1.995 . S
Co358 N374 2.282 . S
Co358 N380 2.282 . S
N359 Co358 1.995 . S
N359 C360 1.376 . S
N359 C363 1.383 . S
C360 N359 1.376 . S
C360 C361 1.446 . S
C360 C390 1.391 . S
C361 C360 1.446 . S
C361 C362 1.339 . S
C361 H396 0.949 . S
C362 C361 1.339 . S
C362 C363 1.439 . S
C362 H397 0.950 . S
C363 N359 1.383 . S
C363 C362 1.439 . S
C363 C392 1.392 . S
N364 Co358 2.008 . S
N364 C365 1.376 . S
N364 C368 1.374 . S
C365 N364 1.376 . S
C365 C366 1.443 . S
C365 C392 1.389 . S
C366 C365 1.443 . S
C366 C367 1.340 . S
C366 H398 0.951 . S
C367 C366 1.340 . S
C367 C368 1.439 . S
C367 H399 0.950 . S
C368 N364 1.374 . S
C368 C367 1.439 . S
C368 C393 1.395 . S
N369 Co358 1.995 . S
N369 C370 1.376 . S
N369 C373 1.383 . S
C370 N369 1.376 . S
C370 C371 1.446 . S
C370 C393 1.391 . S
C371 C370 1.446 . S
C371 C372 1.339 . S
C371 H400 0.949 . S
C372 C371 1.339 . S
C372 C373 1.439 . S
C372 H401 0.950 . S
C373 N369 1.383 . S
C373 C372 1.439 . S
C373 C391 1.392 . S
N374 Co358 2.282 . S
N374 C377 1.332 . S
N374 C379 1.332 . S
C375 C376 1.386 . S
C375 C378 1.388 . S
C376 C375 1.386 . S
C376 C377 1.382 . S
C376 H402 0.950 . S
C377 N374 1.332 . S
C377 C376 1.382 . S
C377 H388 0.952 . S
C378 C375 1.388 . S
C378 C379 1.382 . S
C378 H403 0.950 . S
C379 N374 1.332 . S
C379 C378 1.382 . S
C379 H389 0.948 . S
N380 Co358 2.282 . S
N380 C384 1.332 . S
N380 C385 1.332 . S
C381 C382 1.388 . S
C381 C385 1.382 . S
C381 H404 0.950 . S
C382 C381 1.388 . S
C382 C383 1.386 . S
C383 C382 1.386 . S
C383 C384 1.382 . S
C383 H405 0.950 . S
C384 N380 1.332 . S
C384 C383 1.382 . S
C384 H386 0.952 . S
C385 N380 1.332 . S
C385 C381 1.382 . S
C385 H387 0.948 . S
H386 C384 0.952 . S
H387 C385 0.948 . S
H388 C377 0.952 . S
H389 C379 0.948 . S
C390 C356 1.395 . S
C390 C360 1.391 . S
C391 C353 1.389 . S
C391 C373 1.392 . S
C392 C363 1.392 . S
C392 C365 1.389 . S
C393 C368 1.395 . S
C393 C370 1.391 . S
H394 C354 0.951 . S
H395 C355 0.950 . S
H396 C361 0.949 . S
H397 C362 0.950 . S
H398 C366 0.951 . S
H399 C367 0.950 . S
H400 C371 0.949 . S
H401 C372 0.950 . S
H402 C376 0.950 . S
H403 C378 0.950 . S
H404 C381 0.950 . S
H405 C383 0.950 . S
H406 C418 0.930 . S
H407 C420 0.930 . S
H408 C421 0.930 . S
H409 C425 0.959 . S
H410 C425 0.959 . S
H411 C425 0.961 . S
H412 C426 0.960 . S
H413 C426 0.961 . S
H414 C426 0.959 . S
H415 C429 0.929 . S
H416 C430 0.931 . S
H417 C432 0.930 . S
C418 H406 0.930 . S
C418 C419 1.399 . S
C418 C423 1.399 . S
C419 C418 1.399 . S
C419 C420 1.376 . S
C420 H407 0.930 . S
C420 C419 1.376 . S
C420 C421 1.388 . S
C421 H408 0.930 . S
C421 C420 1.388 . S
C421 C422 1.390 . S
C422 C421 1.390 . S
C422 C423 1.394 . S
C422 C428 1.465 . S
C423 C418 1.399 . S
C423 C422 1.394 . S
C423 C424 1.516 . S
C424 C423 1.516 . S
C424 C425 1.502 . S
C424 C426 1.561 . S
C424 C427 1.526 . S
C425 H409 0.959 . S
C425 H410 0.959 . S
C425 H411 0.961 . S
C425 C424 1.502 . S
C426 H412 0.960 . S
C426 H413 0.961 . S
C426 H414 0.959 . S
C426 C424 1.561 . S
C427 C424 1.526 . S
C427 C428 1.396 . S
C427 C432 1.390 . S
C428 C422 1.465 . S
C428 C427 1.396 . S
C428 C429 1.399 . S
C429 H415 0.929 . S
C429 C428 1.399 . S
C429 C430 1.385 . S
C430 H416 0.931 . S
C430 C429 1.385 . S
C430 C431 1.389 . S
C431 C430 1.389 . S
C431 C432 1.387 . S
C432 H417 0.930 . S
C432 C427 1.390 . S
C432 C431 1.387 . S
H433 C445 0.930 . S
H434 C447 0.930 . S
H435 C448 0.930 . S
H436 C452 0.959 . S
H437 C452 0.959 . S
H438 C452 0.961 . S
H439 C453 0.960 . S
H440 C453 0.961 . S
H441 C453 0.959 . S
H442 C456 0.929 . S
H443 C457 0.931 . S
H444 C459 0.930 . S
C445 H433 0.930 . S
C445 C446 1.399 . S
C445 C450 1.399 . S
C446 C445 1.399 . S
C446 C447 1.376 . S
C447 H434 0.930 . S
C447 C446 1.376 . S
C447 C448 1.388 . S
C448 H435 0.930 . S
C448 C447 1.388 . S
C448 C449 1.390 . S
C449 C448 1.390 . S
C449 C450 1.394 . S
C449 C455 1.465 . S
C450 C445 1.399 . S
C450 C449 1.394 . S
C450 C451 1.516 . S
C451 C450 1.516 . S
C451 C452 1.502 . S
C451 C453 1.561 . S
C451 C454 1.526 . S
C452 H436 0.959 . S
C452 H437 0.959 . S
C452 H438 0.961 . S
C452 C451 1.502 . S
C453 H439 0.960 . S
C453 H440 0.961 . S
C453 H441 0.959 . S
C453 C451 1.561 . S
C454 C451 1.526 . S
C454 C455 1.396 . S
C454 C459 1.390 . S
C455 C449 1.465 . S
C455 C454 1.396 . S
C455 C456 1.399 . S
C456 H442 0.929 . S
C456 C455 1.399 . S
C456 C457 1.385 . S
C457 H443 0.931 . S
C457 C456 1.385 . S
C457 C458 1.389 . S
C458 C457 1.389 . S
C458 C459 1.387 . S
C459 H444 0.930 . S
C459 C454 1.390 . S
C459 C458 1.387 . S
H460 C472 0.930 . S
H461 C474 0.930 . S
H462 C475 0.930 . S
H463 C479 0.959 . S
H464 C479 0.959 . S
H465 C479 0.961 . S
H466 C480 0.960 . S
H467 C480 0.961 . S
H468 C480 0.959 . S
H469 C483 0.929 . S
H470 C484 0.931 . S
H471 C486 0.930 . S
C472 H460 0.930 . S
C472 C473 1.399 . S
C472 C477 1.399 . S
C473 C472 1.399 . S
C473 C474 1.376 . S
C474 H461 0.930 . S
C474 C473 1.376 . S
C474 C475 1.388 . S
C475 H462 0.930 . S
C475 C474 1.388 . S
C475 C476 1.390 . S
C476 C475 1.390 . S
C476 C477 1.394 . S
C476 C482 1.465 . S
C477 C472 1.399 . S
C477 C476 1.394 . S
C477 C478 1.516 . S
C478 C477 1.516 . S
C478 C479 1.502 . S
C478 C480 1.561 . S
C478 C481 1.526 . S
C479 H463 0.959 . S
C479 H464 0.959 . S
C479 H465 0.961 . S
C479 C478 1.502 . S
C480 H466 0.960 . S
C480 H467 0.961 . S
C480 H468 0.959 . S
C480 C478 1.561 . S
C481 C478 1.526 . S
C481 C482 1.396 . S
C481 C486 1.390 . S
C482 C476 1.465 . S
C482 C481 1.396 . S
C482 C483 1.399 . S
C483 H469 0.929 . S
C483 C482 1.399 . S
C483 C484 1.385 . S
C484 H470 0.931 . S
C484 C483 1.385 . S
C484 C485 1.389 . S
C485 C484 1.389 . S
C485 C486 1.387 . S
C486 H471 0.930 . S
C486 C481 1.390 . S
C486 C485 1.387 . S
H487 C499 0.930 . S
H488 C501 0.930 . S
H489 C502 0.930 . S
H490 C506 0.959 . S
H491 C506 0.959 . S
H492 C506 0.961 . S
H493 C507 0.960 . S
H494 C507 0.961 . S
H495 C507 0.959 . S
H496 C510 0.929 . S
H497 C511 0.931 . S
H498 C513 0.930 . S
C499 H487 0.930 . S
C499 C500 1.399 . S
C499 C504 1.399 . S
C500 C499 1.399 . S
C500 C501 1.376 . S
C501 H488 0.930 . S
C501 C500 1.376 . S
C501 C502 1.388 . S
C502 H489 0.930 . S
C502 C501 1.388 . S
C502 C503 1.390 . S
C503 C502 1.390 . S
C503 C504 1.394 . S
C503 C509 1.465 . S
C504 C499 1.399 . S
C504 C503 1.394 . S
C504 C505 1.516 . S
C505 C504 1.516 . S
C505 C506 1.502 . S
C505 C507 1.561 . S
C505 C508 1.526 . S
C506 H490 0.959 . S
C506 H491 0.959 . S
C506 H492 0.961 . S
C506 C505 1.502 . S
C507 H493 0.960 . S
C507 H494 0.961 . S
C507 H495 0.959 . S
C507 C505 1.561 . S
C508 C505 1.526 . S
C508 C509 1.396 . S
C508 C513 1.390 . S
C509 C503 1.465 . S
C509 C508 1.396 . S
C509 C510 1.399 . S
C510 H496 0.929 . S
C510 C509 1.399 . S
C510 C511 1.385 . S
C511 H497 0.931 . S
C511 C510 1.385 . S
C511 C512 1.389 . S
C512 C511 1.389 . S
C512 C513 1.387 . S
C513 H498 0.930 . S
C513 C508 1.390 . S
C513 C512 1.387 . S
H514 C526 0.930 . S
H515 C528 0.930 . S
H516 C529 0.930 . S
H517 C533 0.959 . S
H518 C533 0.959 . S
H519 C533 0.961 . S
H520 C534 0.960 . S
H521 C534 0.961 . S
H522 C534 0.959 . S
H523 C537 0.929 . S
H524 C538 0.931 . S
H525 C540 0.930 . S
C526 H514 0.930 . S
C526 C527 1.399 . S
C526 C531 1.399 . S
C527 C526 1.399 . S
C527 C528 1.376 . S
C528 H515 0.930 . S
C528 C527 1.376 . S
C528 C529 1.388 . S
C529 H516 0.930 . S
C529 C528 1.388 . S
C529 C530 1.390 . S
C530 C529 1.390 . S
C530 C531 1.394 . S
C530 C536 1.465 . S
C531 C526 1.399 . S
C531 C530 1.394 . S
C531 C532 1.516 . S
C532 C531 1.516 . S
C532 C533 1.502 . S
C532 C534 1.561 . S
C532 C535 1.526 . S
C533 H517 0.959 . S
C533 H518 0.959 . S
C533 H519 0.961 . S
C533 C532 1.502 . S
C534 H520 0.960 . S
C534 H521 0.961 . S
C534 H522 0.959 . S
C534 C532 1.561 . S
C535 C532 1.526 . S
C535 C536 1.396 . S
C535 C540 1.390 . S
C536 C530 1.465 . S
C536 C535 1.396 . S
C536 C537 1.399 . S
C537 H523 0.929 . S
C537 C536 1.399 . S
C537 C538 1.385 . S
C538 H524 0.931 . S
C538 C537 1.385 . S
C538 C539 1.389 . S
C539 C538 1.389 . S
C539 C540 1.387 . S
C540 H525 0.930 . S
C540 C535 1.390 . S
C540 C539 1.387 . S
H541 C553 0.930 . S
H542 C555 0.930 . S
H543 C556 0.930 . S
H544 C560 0.959 . S
H545 C560 0.959 . S
H546 C560 0.961 . S
H547 C561 0.960 . S
H548 C561 0.961 . S
H549 C561 0.959 . S
H550 C564 0.929 . S
H551 C565 0.931 . S
H552 C567 0.930 . S
C553 H541 0.930 . S
C553 C554 1.399 . S
C553 C558 1.399 . S
C554 C553 1.399 . S
C554 C555 1.376 . S
C555 H542 0.930 . S
C555 C554 1.376 . S
C555 C556 1.388 . S
C556 H543 0.930 . S
C556 C555 1.388 . S
C556 C557 1.390 . S
C557 C556 1.390 . S
C557 C558 1.394 . S
C557 C563 1.465 . S
C558 C553 1.399 . S
C558 C557 1.394 . S
C558 C559 1.516 . S
C559 C558 1.516 . S
C559 C560 1.502 . S
C559 C561 1.561 . S
C559 C562 1.526 . S
C560 H544 0.959 . S
C560 H545 0.959 . S
C560 H546 0.961 . S
C560 C559 1.502 . S
C561 H547 0.960 . S
C561 H548 0.961 . S
C561 H549 0.959 . S
C561 C559 1.561 . S
C562 C559 1.526 . S
C562 C563 1.396 . S
C562 C567 1.390 . S
C563 C557 1.465 . S
C563 C562 1.396 . S
C563 C564 1.399 . S
C564 H550 0.929 . S
C564 C563 1.399 . S
C564 C565 1.385 . S
C565 H551 0.931 . S
C565 C564 1.385 . S
C565 C566 1.389 . S
C566 C565 1.389 . S
C566 C567 1.387 . S
C567 H552 0.930 . S
C567 C562 1.390 . S
C567 C566 1.387 . S
H568 C580 0.930 . S
H569 C582 0.930 . S
H570 C583 0.930 . S
H571 C587 0.959 . S
H572 C587 0.959 . S
H573 C587 0.961 . S
H574 C588 0.960 . S
H575 C588 0.961 . S
H576 C588 0.959 . S
H577 C591 0.929 . S
H578 C592 0.931 . S
H579 C594 0.930 . S
C580 H568 0.930 . S
C580 C581 1.399 . S
C580 C585 1.399 . S
C581 C580 1.399 . S
C581 C582 1.376 . S
C582 H569 0.930 . S
C582 C581 1.376 . S
C582 C583 1.388 . S
C583 H570 0.930 . S
C583 C582 1.388 . S
C583 C584 1.390 . S
C584 C583 1.390 . S
C584 C585 1.394 . S
C584 C590 1.465 . S
C585 C580 1.399 . S
C585 C584 1.394 . S
C585 C586 1.516 . S
C586 C585 1.516 . S
C586 C587 1.502 . S
C586 C588 1.561 . S
C586 C589 1.526 . S
C587 H571 0.959 . S
C587 H572 0.959 . S
C587 H573 0.961 . S
C587 C586 1.502 . S
C588 H574 0.960 . S
C588 H575 0.961 . S
C588 H576 0.959 . S
C588 C586 1.561 . S
C589 C586 1.526 . S
C589 C590 1.396 . S
C589 C594 1.390 . S
C590 C584 1.465 . S
C590 C589 1.396 . S
C590 C591 1.399 . S
C591 H577 0.929 . S
C591 C590 1.399 . S
C591 C592 1.385 . S
C592 H578 0.931 . S
C592 C591 1.385 . S
C592 C593 1.389 . S
C593 C592 1.389 . S
C593 C594 1.387 . S
C594 H579 0.930 . S
C594 C589 1.390 . S
C594 C593 1.387 . S
H595 C607 0.930 . S
H596 C609 0.930 . S
H597 C610 0.930 . S
H598 C614 0.959 . S
H599 C614 0.959 . S
H600 C614 0.961 . S
H601 C615 0.960 . S
H602 C615 0.961 . S
H603 C615 0.959 . S
H604 C618 0.929 1_556 S
H605 C619 0.931 . S
H606 C621 0.930 . S
C607 H595 0.930 . S
C607 C608 1.399 . S
C607 C612 1.399 1_556 S
C608 C607 1.399 . S
C608 C609 1.376 . S
C609 H596 0.930 . S
C609 C608 1.376 . S
C609 C610 1.388 . S
C610 H597 0.930 . S
C610 C609 1.388 . S
C610 C611 1.390 . S
C611 C610 1.390 . S
C611 C612 1.394 1_556 S
C611 C617 1.465 1_556 S
C612 C607 1.399 1_554 S
C612 C611 1.394 1_554 S
C612 C613 1.516 . S
C613 C612 1.516 . S
C613 C614 1.502 . S
C613 C615 1.561 . S
C613 C616 1.526 . S
C614 H598 0.959 . S
C614 H599 0.959 . S
C614 H600 0.961 . S
C614 C613 1.502 . S
C615 H601 0.960 . S
C615 H602 0.961 . S
C615 H603 0.959 . S
C615 C613 1.561 . S
C616 C613 1.526 . S
C616 C617 1.396 . S
C616 C621 1.390 . S
C617 C611 1.465 1_554 S
C617 C616 1.396 . S
C617 C618 1.399 . S
C618 H604 0.929 1_554 S
C618 C617 1.399 . S
C618 C619 1.385 . S
C619 H605 0.931 . S
C619 C618 1.385 . S
C619 C620 1.389 . S
C620 C619 1.389 . S
C620 C621 1.387 . S
C621 H606 0.930 . S
C621 C616 1.390 . S
C621 C620 1.387 . S
H622 C634 0.930 . S
H623 C636 0.930 . S
H624 C637 0.930 . S
H625 C641 0.959 . S
H626 C641 0.959 . S
H627 C641 0.961 . S
H628 C642 0.960 . S
H629 C642 0.961 . S
H630 C642 0.959 . S
H631 C645 0.929 . S
H632 C646 0.931 . S
H633 C648 0.930 . S
C634 H622 0.930 . S
C634 C635 1.399 . S
C634 C639 1.399 . S
C635 C634 1.399 . S
C635 C636 1.376 . S
C636 H623 0.930 . S
C636 C635 1.376 . S
C636 C637 1.388 . S
C637 H624 0.930 . S
C637 C636 1.388 . S
C637 C638 1.390 . S
C638 C637 1.390 . S
C638 C639 1.394 . S
C638 C644 1.465 . S
C639 C634 1.399 . S
C639 C638 1.394 . S
C639 C640 1.516 . S
C640 C639 1.516 . S
C640 C641 1.502 . S
C640 C642 1.561 . S
C640 C643 1.526 . S
C641 H625 0.959 . S
C641 H626 0.959 . S
C641 H627 0.961 . S
C641 C640 1.502 . S
C642 H628 0.960 . S
C642 H629 0.961 . S
C642 H630 0.959 . S
C642 C640 1.561 . S
C643 C640 1.526 . S
C643 C644 1.396 . S
C643 C648 1.390 . S
C644 C638 1.465 . S
C644 C643 1.396 . S
C644 C645 1.399 . S
C645 H631 0.929 . S
C645 C644 1.399 . S
C645 C646 1.385 . S
C646 H632 0.931 . S
C646 C645 1.385 . S
C646 C647 1.389 . S
C647 C646 1.389 . S
C647 C648 1.387 . S
C648 H633 0.930 . S
C648 C643 1.390 . S
C648 C647 1.387 . S
H649 C661 0.930 . S
H650 C663 0.930 . S
H651 C664 0.930 . S
H652 C668 0.959 . S
H653 C668 0.959 . S
H654 C668 0.961 . S
H655 C669 0.960 . S
H656 C669 0.961 . S
H657 C669 0.959 . S
H658 C672 0.929 . S
H659 C673 0.931 . S
H660 C675 0.930 . S
C661 H649 0.930 . S
C661 C662 1.399 . S
C661 C666 1.399 . S
C662 C661 1.399 . S
C662 C663 1.376 . S
C663 H650 0.930 . S
C663 C662 1.376 . S
C663 C664 1.388 . S
C664 H651 0.930 . S
C664 C663 1.388 . S
C664 C665 1.390 . S
C665 C664 1.390 . S
C665 C666 1.394 . S
C665 C671 1.465 . S
C666 C661 1.399 . S
C666 C665 1.394 . S
C666 C667 1.516 . S
C667 C666 1.516 . S
C667 C668 1.502 . S
C667 C669 1.561 . S
C667 C670 1.526 . S
C668 H652 0.959 . S
C668 H653 0.959 . S
C668 H654 0.961 . S
C668 C667 1.502 . S
C669 H655 0.960 . S
C669 H656 0.961 . S
C669 H657 0.959 . S
C669 C667 1.561 . S
C670 C667 1.526 . S
C670 C671 1.396 . S
C670 C675 1.390 . S
C671 C665 1.465 . S
C671 C670 1.396 . S
C671 C672 1.399 . S
C672 H658 0.929 . S
C672 C671 1.399 . S
C672 C673 1.385 . S
C673 H659 0.931 . S
C673 C672 1.385 . S
C673 C674 1.389 . S
C674 C673 1.389 . S
C674 C675 1.387 . S
C675 H660 0.930 . S
C675 C670 1.390 . S
C675 C674 1.387 . S
H676 C688 0.930 . S
H677 C690 0.930 . S
H678 C691 0.930 . S
H679 C695 0.959 . S
H680 C695 0.959 . S
H681 C695 0.961 . S
H682 C696 0.960 . S
H683 C696 0.961 . S
H684 C696 0.959 . S
H685 C699 0.929 . S
H686 C700 0.931 . S
H687 C702 0.930 . S
C688 H676 0.930 . S
C688 C689 1.399 . S
C688 C693 1.399 . S
C689 C688 1.399 . S
C689 C690 1.376 . S
C690 H677 0.930 . S
C690 C689 1.376 . S
C690 C691 1.388 . S
C691 H678 0.930 . S
C691 C690 1.388 . S
C691 C692 1.390 . S
C692 C691 1.390 . S
C692 C693 1.394 . S
C692 C698 1.465 . S
C693 C688 1.399 . S
C693 C692 1.394 . S
C693 C694 1.516 . S
C694 C693 1.516 . S
C694 C695 1.502 . S
C694 C696 1.561 . S
C694 C697 1.526 . S
C695 H679 0.959 . S
C695 H680 0.959 . S
C695 H681 0.961 . S
C695 C694 1.502 . S
C696 H682 0.960 . S
C696 H683 0.961 . S
C696 H684 0.959 . S
C696 C694 1.561 . S
C697 C694 1.526 . S
C697 C698 1.396 . S
C697 C702 1.390 . S
C698 C692 1.465 . S
C698 C697 1.396 . S
C698 C699 1.399 . S
C699 H685 0.929 . S
C699 C698 1.399 . S
C699 C700 1.385 . S
C700 H686 0.931 . S
C700 C699 1.385 . S
C700 C701 1.389 . S
C701 C700 1.389 . S
C701 C702 1.387 . S
C702 H687 0.930 . S
C702 C697 1.390 . S
C702 C701 1.387 . S
H703 C715 0.930 . S
H704 C717 0.930 . S
H705 C718 0.930 . S
H706 C722 0.959 . S
H707 C722 0.959 . S
H708 C722 0.961 . S
H709 C723 0.960 . S
H710 C723 0.961 . S
H711 C723 0.959 . S
H712 C726 0.929 . S
H713 C727 0.931 . S
H714 C729 0.930 . S
C715 H703 0.930 . S
C715 C716 1.399 . S
C715 C720 1.399 . S
C716 C715 1.399 . S
C716 C717 1.376 . S
C717 H704 0.930 . S
C717 C716 1.376 . S
C717 C718 1.388 . S
C718 H705 0.930 . S
C718 C717 1.388 . S
C718 C719 1.390 . S
C719 C718 1.390 . S
C719 C720 1.394 . S
C719 C725 1.465 . S
C720 C715 1.399 . S
C720 C719 1.394 . S
C720 C721 1.516 . S
C721 C720 1.516 . S
C721 C722 1.502 . S
C721 C723 1.561 . S
C721 C724 1.526 . S
C722 H706 0.959 . S
C722 H707 0.959 . S
C722 H708 0.961 . S
C722 C721 1.502 . S
C723 H709 0.960 . S
C723 H710 0.961 . S
C723 H711 0.959 . S
C723 C721 1.561 . S
C724 C721 1.526 . S
C724 C725 1.396 . S
C724 C729 1.390 . S
C725 C719 1.465 . S
C725 C724 1.396 . S
C725 C726 1.399 . S
C726 H712 0.929 . S
C726 C725 1.399 . S
C726 C727 1.385 . S
C727 H713 0.931 . S
C727 C726 1.385 . S
C727 C728 1.389 . S
C728 C727 1.389 . S
C728 C729 1.387 . S
C729 H714 0.930 . S
C729 C724 1.390 . S
C729 C728 1.387 . S
H730 C742 0.930 . S
H731 C744 0.930 . S
H732 C745 0.930 . S
H733 C749 0.959 . S
H734 C749 0.959 . S
H735 C749 0.961 . S
H736 C750 0.960 . S
H737 C750 0.961 . S
H738 C750 0.959 . S
H739 C753 0.929 . S
H740 C754 0.931 . S
H741 C756 0.930 . S
C742 H730 0.930 . S
C742 C743 1.399 . S
C742 C747 1.399 . S
C743 C742 1.399 . S
C743 C744 1.376 . S
C744 H731 0.930 . S
C744 C743 1.376 . S
C744 C745 1.388 . S
C745 H732 0.930 . S
C745 C744 1.388 . S
C745 C746 1.390 . S
C746 C745 1.390 . S
C746 C747 1.394 . S
C746 C752 1.465 . S
C747 C742 1.399 . S
C747 C746 1.394 . S
C747 C748 1.516 . S
C748 C747 1.516 . S
C748 C749 1.502 . S
C748 C750 1.561 . S
C748 C751 1.526 . S
C749 H733 0.959 . S
C749 H734 0.959 . S
C749 H735 0.961 . S
C749 C748 1.502 . S
C750 H736 0.960 . S
C750 H737 0.961 . S
C750 H738 0.959 . S
C750 C748 1.561 . S
C751 C748 1.526 . S
C751 C752 1.396 . S
C751 C756 1.390 . S
C752 C746 1.465 . S
C752 C751 1.396 . S
C752 C753 1.399 . S
C753 H739 0.929 . S
C753 C752 1.399 . S
C753 C754 1.385 . S
C754 H740 0.931 . S
C754 C753 1.385 . S
C754 C755 1.389 . S
C755 C754 1.389 . S
C755 C756 1.387 . S
C756 H741 0.930 . S
C756 C751 1.390 . S
C756 C755 1.387 . S
H757 C769 0.930 . S
H758 C771 0.930 . S
H759 C772 0.930 . S
H760 C776 0.959 . S
H761 C776 0.959 . S
H762 C776 0.961 . S
H763 C777 0.960 . S
H764 C777 0.961 . S
H765 C777 0.959 . S
H766 C780 0.929 . S
H767 C781 0.931 1_455 S
H768 C783 0.930 . S
C769 H757 0.930 . S
C769 C770 1.399 . S
C769 C774 1.399 . S
C770 C769 1.399 . S
C770 C771 1.376 . S
C771 H758 0.930 . S
C771 C770 1.376 . S
C771 C772 1.388 . S
C772 H759 0.930 . S
C772 C771 1.388 . S
C772 C773 1.390 . S
C773 C772 1.390 . S
C773 C774 1.394 . S
C773 C779 1.465 . S
C774 C769 1.399 . S
C774 C773 1.394 . S
C774 C775 1.516 . S
C775 C774 1.516 . S
C775 C776 1.502 . S
C775 C777 1.561 . S
C775 C778 1.526 . S
C776 H760 0.959 . S
C776 H761 0.959 . S
C776 H762 0.961 . S
C776 C775 1.502 . S
C777 H763 0.960 . S
C777 H764 0.961 . S
C777 H765 0.959 . S
C777 C775 1.561 . S
C778 C775 1.526 . S
C778 C779 1.396 . S
C778 C783 1.390 . S
C779 C773 1.465 . S
C779 C778 1.396 . S
C779 C780 1.399 . S
C780 H766 0.929 . S
C780 C779 1.399 . S
C780 C781 1.385 . S
C781 H767 0.931 1_655 S
C781 C780 1.385 . S
C781 C782 1.389 . S
C782 C781 1.389 . S
C782 C783 1.387 . S
C783 H768 0.930 . S
C783 C778 1.390 . S
C783 C782 1.387 . S
H784 C796 0.930 . S
H785 C798 0.930 . S
H786 C799 0.930 . S
H787 C803 0.959 . S
H788 C803 0.959 . S
H789 C803 0.961 . S
H790 C804 0.960 . S
H791 C804 0.961 . S
H792 C804 0.959 . S
H793 C807 0.929 . S
H794 C808 0.931 . S
H795 C810 0.930 . S
C796 H784 0.930 . S
C796 C797 1.399 . S
C796 C801 1.399 . S
C797 C796 1.399 . S
C797 C798 1.376 . S
C798 H785 0.930 . S
C798 C797 1.376 . S
C798 C799 1.388 . S
C799 H786 0.930 . S
C799 C798 1.388 . S
C799 C800 1.390 . S
C800 C799 1.390 . S
C800 C801 1.394 . S
C800 C806 1.465 . S
C801 C796 1.399 . S
C801 C800 1.394 . S
C801 C802 1.516 . S
C802 C801 1.516 . S
C802 C803 1.502 . S
C802 C804 1.561 . S
C802 C805 1.526 . S
C803 H787 0.959 . S
C803 H788 0.959 . S
C803 H789 0.961 . S
C803 C802 1.502 . S
C804 H790 0.960 . S
C804 H791 0.961 . S
C804 H792 0.959 . S
C804 C802 1.561 . S
C805 C802 1.526 . S
C805 C806 1.396 . S
C805 C810 1.390 . S
C806 C800 1.465 . S
C806 C805 1.396 . S
C806 C807 1.399 . S
C807 H793 0.929 . S
C807 C806 1.399 . S
C807 C808 1.385 . S
C808 H794 0.931 . S
C808 C807 1.385 . S
C808 C809 1.389 . S
C809 C808 1.389 . S
C809 C810 1.387 . S
C810 H795 0.930 . S
C810 C805 1.390 . S
C810 C809 1.387 . S
H811 C823 0.930 . S
H812 C825 0.930 . S
H813 C826 0.930 . S
H814 C830 0.959 . S
H815 C830 0.959 . S
H816 C830 0.961 . S
H817 C831 0.960 . S
H818 C831 0.961 . S
H819 C831 0.959 . S
H820 C834 0.929 . S
H821 C835 0.931 . S
H822 C837 0.930 . S
C823 H811 0.930 . S
C823 C824 1.399 . S
C823 C828 1.399 . S
C824 C823 1.399 . S
C824 C825 1.376 . S
C825 H812 0.930 . S
C825 C824 1.376 . S
C825 C826 1.388 . S
C826 H813 0.930 . S
C826 C825 1.388 . S
C826 C827 1.390 . S
C827 C826 1.390 . S
C827 C828 1.394 . S
C827 C833 1.465 . S
C828 C823 1.399 . S
C828 C827 1.394 . S
C828 C829 1.516 . S
C829 C828 1.516 . S
C829 C830 1.502 . S
C829 C831 1.561 . S
C829 C832 1.526 . S
C830 H814 0.959 . S
C830 H815 0.959 . S
C830 H816 0.961 . S
C830 C829 1.502 . S
C831 H817 0.960 . S
C831 H818 0.961 . S
C831 H819 0.959 . S
C831 C829 1.561 . S
C832 C829 1.526 . S
C832 C833 1.396 . S
C832 C837 1.390 . S
C833 C827 1.465 . S
C833 C832 1.396 . S
C833 C834 1.399 . S
C834 H820 0.929 . S
C834 C833 1.399 . S
C834 C835 1.385 . S
C835 H821 0.931 . S
C835 C834 1.385 . S
C835 C836 1.389 . S
C836 C835 1.389 . S
C836 C837 1.387 . S
C837 H822 0.930 . S
C837 C832 1.390 . S
C837 C836 1.387 . S
H838 C850 0.930 . S
H839 C852 0.930 . S
H840 C853 0.930 . S
H841 C857 0.959 . S
H842 C857 0.959 . S
H843 C857 0.961 . S
H844 C858 0.960 . S
H845 C858 0.961 . S
H846 C858 0.959 . S
H847 C861 0.929 . S
H848 C862 0.931 . S
H849 C864 0.930 . S
C850 H838 0.930 . S
C850 C851 1.399 . S
C850 C855 1.399 . S
C851 C850 1.399 . S
C851 C852 1.376 . S
C852 H839 0.930 . S
C852 C851 1.376 . S
C852 C853 1.388 . S
C853 H840 0.930 . S
C853 C852 1.388 . S
C853 C854 1.390 . S
C854 C853 1.390 . S
C854 C855 1.394 . S
C854 C860 1.465 . S
C855 C850 1.399 . S
C855 C854 1.394 . S
C855 C856 1.516 . S
C856 C855 1.516 . S
C856 C857 1.502 . S
C856 C858 1.561 . S
C856 C859 1.526 . S
C857 H841 0.959 . S
C857 H842 0.959 . S
C857 H843 0.961 . S
C857 C856 1.502 . S
C858 H844 0.960 . S
C858 H845 0.961 . S
C858 H846 0.959 . S
C858 C856 1.561 . S
C859 C856 1.526 . S
C859 C860 1.396 . S
C859 C864 1.390 . S
C860 C854 1.465 . S
C860 C859 1.396 . S
C860 C861 1.399 . S
C861 H847 0.929 . S
C861 C860 1.399 . S
C861 C862 1.385 . S
C862 H848 0.931 . S
C862 C861 1.385 . S
C862 C863 1.389 . S
C863 C862 1.389 . S
C863 C864 1.387 . S
C864 H849 0.930 . S
C864 C859 1.390 . S
C864 C863 1.387 . S
H865 C877 0.930 . S
H866 C879 0.930 . S
H867 C880 0.930 . S
H868 C884 0.959 . S
H869 C884 0.959 . S
H870 C884 0.961 . S
H871 C885 0.960 . S
H872 C885 0.961 . S
H873 C885 0.959 . S
H874 C888 0.929 . S
H875 C889 0.931 . S
H876 C891 0.930 . S
C877 H865 0.930 . S
C877 C878 1.399 . S
C877 C882 1.399 . S
C878 C877 1.399 . S
C878 C879 1.376 . S
C879 H866 0.930 . S
C879 C878 1.376 . S
C879 C880 1.388 . S
C880 H867 0.930 . S
C880 C879 1.388 . S
C880 C881 1.390 . S
C881 C880 1.390 . S
C881 C882 1.394 . S
C881 C887 1.465 . S
C882 C877 1.399 . S
C882 C881 1.394 . S
C882 C883 1.516 . S
C883 C882 1.516 . S
C883 C884 1.502 . S
C883 C885 1.561 . S
C883 C886 1.526 . S
C884 H868 0.959 . S
C884 H869 0.959 . S
C884 H870 0.961 . S
C884 C883 1.502 . S
C885 H871 0.960 . S
C885 H872 0.961 . S
C885 H873 0.959 . S
C885 C883 1.561 . S
C886 C883 1.526 . S
C886 C887 1.396 . S
C886 C891 1.390 . S
C887 C881 1.465 . S
C887 C886 1.396 . S
C887 C888 1.399 . S
C888 H874 0.929 . S
C888 C887 1.399 . S
C888 C889 1.385 . S
C889 H875 0.931 . S
C889 C888 1.385 . S
C889 C890 1.389 . S
C890 C889 1.389 . S
C890 C891 1.387 . S
C891 H876 0.930 . S
C891 C886 1.390 . S
C891 C890 1.387 . S
H892 C904 0.930 . S
H893 C906 0.930 . S
H894 C907 0.930 . S
H895 C911 0.959 . S
H896 C911 0.959 . S
H897 C911 0.961 . S
H898 C912 0.960 . S
H899 C912 0.961 . S
H900 C912 0.959 . S
H901 C915 0.929 . S
H902 C916 0.931 . S
H903 C918 0.930 . S
C904 H892 0.930 . S
C904 C905 1.399 . S
C904 C909 1.399 . S
C905 C904 1.399 . S
C905 C906 1.376 . S
C906 H893 0.930 . S
C906 C905 1.376 . S
C906 C907 1.388 . S
C907 H894 0.930 . S
C907 C906 1.388 . S
C907 C908 1.390 . S
C908 C907 1.390 . S
C908 C909 1.394 . S
C908 C914 1.465 . S
C909 C904 1.399 . S
C909 C908 1.394 . S
C909 C910 1.516 . S
C910 C909 1.516 . S
C910 C911 1.502 . S
C910 C912 1.561 . S
C910 C913 1.526 . S
C911 H895 0.959 . S
C911 H896 0.959 . S
C911 H897 0.961 . S
C911 C910 1.502 . S
C912 H898 0.960 . S
C912 H899 0.961 . S
C912 H900 0.959 . S
C912 C910 1.561 . S
C913 C910 1.526 . S
C913 C914 1.396 . S
C913 C918 1.390 . S
C914 C908 1.465 . S
C914 C913 1.396 . S
C914 C915 1.399 . S
C915 H901 0.929 . S
C915 C914 1.399 . S
C915 C916 1.385 . S
C916 H902 0.931 . S
C916 C915 1.385 . S
C916 C917 1.389 . S
C917 C916 1.389 . S
C917 C918 1.387 . S
C918 H903 0.930 . S
C918 C913 1.390 . S
C918 C917 1.387 . S
H919 C931 0.930 . S
H920 C933 0.930 . S
H921 C934 0.930 . S
H922 C938 0.959 . S
H923 C938 0.959 . S
H924 C938 0.961 . S
H925 C939 0.960 . S
H926 C939 0.961 . S
H927 C939 0.959 . S
H928 C942 0.929 . S
H929 C943 0.931 . S
H930 C945 0.930 . S
C931 H919 0.930 . S
C931 C932 1.399 . S
C931 C936 1.399 . S
C932 C931 1.399 . S
C932 C933 1.376 . S
C933 H920 0.930 . S
C933 C932 1.376 . S
C933 C934 1.388 . S
C934 H921 0.930 . S
C934 C933 1.388 . S
C934 C935 1.390 . S
C935 C934 1.390 . S
C935 C936 1.394 . S
C935 C941 1.465 . S
C936 C931 1.399 . S
C936 C935 1.394 . S
C936 C937 1.516 . S
C937 C936 1.516 . S
C937 C938 1.502 . S
C937 C939 1.561 . S
C937 C940 1.526 . S
C938 H922 0.959 . S
C938 H923 0.959 . S
C938 H924 0.961 . S
C938 C937 1.502 . S
C939 H925 0.960 . S
C939 H926 0.961 . S
C939 H927 0.959 . S
C939 C937 1.561 . S
C940 C937 1.526 . S
C940 C941 1.396 . S
C940 C945 1.390 . S
C941 C935 1.465 . S
C941 C940 1.396 . S
C941 C942 1.399 . S
C942 H928 0.929 . S
C942 C941 1.399 . S
C942 C943 1.385 . S
C943 H929 0.931 . S
C943 C942 1.385 . S
C943 C944 1.389 . S
C944 C943 1.389 . S
C944 C945 1.387 . S
C945 H930 0.930 . S
C945 C940 1.390 . S
C945 C944 1.387 . S
H946 C958 0.930 . S
H947 C960 0.930 . S
H948 C961 0.930 . S
H949 C965 0.959 . S
H950 C965 0.959 . S
H951 C965 0.961 . S
H952 C966 0.960 . S
H953 C966 0.961 . S
H954 C966 0.959 . S
H955 C969 0.929 . S
H956 C970 0.931 . S
H957 C972 0.930 . S
C958 H946 0.930 . S
C958 C959 1.399 . S
C958 C963 1.399 . S
C959 C958 1.399 . S
C959 C960 1.376 . S
C960 H947 0.930 . S
C960 C959 1.376 . S
C960 C961 1.388 . S
C961 H948 0.930 . S
C961 C960 1.388 . S
C961 C962 1.390 . S
C962 C961 1.390 . S
C962 C963 1.394 . S
C962 C968 1.465 . S
C963 C958 1.399 . S
C963 C962 1.394 . S
C963 C964 1.516 . S
C964 C963 1.516 . S
C964 C965 1.502 . S
C964 C966 1.561 . S
C964 C967 1.526 . S
C965 H949 0.959 . S
C965 H950 0.959 . S
C965 H951 0.961 . S
C965 C964 1.502 . S
C966 H952 0.960 . S
C966 H953 0.961 . S
C966 H954 0.959 . S
C966 C964 1.561 . S
C967 C964 1.526 . S
C967 C968 1.396 . S
C967 C972 1.390 . S
C968 C962 1.465 . S
C968 C967 1.396 . S
C968 C969 1.399 . S
C969 H955 0.929 . S
C969 C968 1.399 . S
C969 C970 1.385 . S
C970 H956 0.931 . S
C970 C969 1.385 . S
C970 C971 1.389 . S
C971 C970 1.389 . S
C971 C972 1.387 . S
C972 H957 0.930 . S
C972 C967 1.390 . S
C972 C971 1.387 . S
H973 C985 0.930 . S
H974 C987 0.930 . S
H975 C988 0.930 . S
H976 C992 0.959 . S
H977 C992 0.959 . S
H978 C992 0.961 . S
H979 C993 0.960 . S
H980 C993 0.961 . S
H981 C993 0.959 . S
H982 C996 0.929 . S
H983 C997 0.931 . S
H984 C999 0.921 1_556 S
C985 H973 0.930 . S
C985 C986 1.399 . S
C985 C990 1.399 . S
C986 C985 1.399 . S
C986 C987 1.376 . S
C987 H974 0.930 . S
C987 C986 1.376 . S
C987 C988 1.388 . S
C988 H975 0.930 . S
C988 C987 1.388 . S
C988 C989 1.390 . S
C989 C988 1.390 . S
C989 C990 1.394 . S
C989 C995 1.465 . S
C990 C985 1.399 . S
C990 C989 1.394 . S
C990 C991 1.516 . S
C991 C990 1.516 . S
C991 C992 1.502 . S
C991 C993 1.561 . S
C991 C994 1.526 . S
C992 H976 0.959 . S
C992 H977 0.959 . S
C992 H978 0.961 . S
C992 C991 1.502 . S
C993 H979 0.960 . S
C993 H980 0.961 . S
C993 H981 0.959 . S
C993 C991 1.561 . S
C994 C991 1.526 . S
C994 C995 1.396 . S
C994 C999 1.373 1_556 S
C995 C989 1.465 . S
C995 C994 1.396 . S
C995 C996 1.399 1_556 S
C996 H982 0.929 . S
C996 C995 1.399 1_554 S
C996 C997 1.385 . S
C997 H983 0.931 . S
C997 C996 1.385 . S
C997 C998 1.389 . S
C998 C997 1.389 . S
C998 C999 1.412 . S
C999 H984 0.921 1_554 S
C999 C994 1.373 1_554 S
C999 C998 1.412 . S
H1000 C1012 0.930 . S
H1001 C1014 0.930 . S
H1002 C1015 0.930 . S
H1003 C1019 0.959 . S
H1004 C1019 0.959 . S
H1005 C1019 0.961 . S
H1006 C1020 0.960 . S
H1007 C1020 0.961 . S
H1008 C1020 0.959 . S
H1009 C1023 0.929 . S
H1010 C1024 0.931 . S
H1011 C1026 0.930 . S
C1012 H1000 0.930 . S
C1012 C1013 1.399 . S
C1012 C1017 1.399 . S
C1013 C1012 1.399 . S
C1013 C1014 1.376 . S
C1014 H1001 0.930 . S
C1014 C1013 1.376 . S
C1014 C1015 1.388 . S
C1015 H1002 0.930 . S
C1015 C1014 1.388 . S
C1015 C1016 1.390 . S
C1016 C1015 1.390 . S
C1016 C1017 1.394 . S
C1016 C1022 1.465 . S
C1017 C1012 1.399 . S
C1017 C1016 1.394 . S
C1017 C1018 1.516 . S
C1018 C1017 1.516 . S
C1018 C1019 1.502 . S
C1018 C1020 1.561 . S
C1018 C1021 1.526 . S
C1019 H1003 0.959 . S
C1019 H1004 0.959 . S
C1019 H1005 0.961 . S
C1019 C1018 1.502 . S
C1020 H1006 0.960 . S
C1020 H1007 0.961 . S
C1020 H1008 0.959 . S
C1020 C1018 1.561 . S
C1021 C1018 1.526 . S
C1021 C1022 1.396 . S
C1021 C1026 1.390 . S
C1022 C1016 1.465 . S
C1022 C1021 1.396 . S
C1022 C1023 1.399 . S
C1023 H1009 0.929 . S
C1023 C1022 1.399 . S
C1023 C1024 1.385 . S
C1024 H1010 0.931 . S
C1024 C1023 1.385 . S
C1024 C1025 1.389 . S
C1025 C1024 1.389 . S
C1025 C1026 1.387 . S
C1026 H1011 0.930 . S
C1026 C1021 1.390 . S
C1026 C1025 1.387 . S
H1027 C1039 0.930 . S
H1028 C1041 0.930 . S
H1029 C1042 0.930 . S
H1030 C1046 0.959 . S
H1031 C1046 0.959 . S
H1032 C1046 0.961 . S
H1033 C1047 0.960 . S
H1034 C1047 0.961 . S
H1035 C1047 0.959 . S
H1036 C1050 0.929 . S
H1037 C1051 0.931 . S
H1038 C1053 0.930 . S
C1039 H1027 0.930 . S
C1039 C1040 1.399 . S
C1039 C1044 1.399 . S
C1040 C1039 1.399 . S
C1040 C1041 1.376 . S
C1041 H1028 0.930 . S
C1041 C1040 1.376 . S
C1041 C1042 1.388 . S
C1042 H1029 0.930 . S
C1042 C1041 1.388 . S
C1042 C1043 1.390 . S
C1043 C1042 1.390 . S
C1043 C1044 1.394 . S
C1043 C1049 1.465 . S
C1044 C1039 1.399 . S
C1044 C1043 1.394 . S
C1044 C1045 1.516 . S
C1045 C1044 1.516 . S
C1045 C1046 1.502 . S
C1045 C1047 1.561 . S
C1045 C1048 1.526 . S
C1046 H1030 0.959 . S
C1046 H1031 0.959 . S
C1046 H1032 0.961 . S
C1046 C1045 1.502 . S
C1047 H1033 0.960 . S
C1047 H1034 0.961 . S
C1047 H1035 0.959 . S
C1047 C1045 1.561 . S
C1048 C1045 1.526 . S
C1048 C1049 1.396 . S
C1048 C1053 1.390 . S
C1049 C1043 1.465 . S
C1049 C1048 1.396 . S
C1049 C1050 1.399 . S
C1050 H1036 0.929 . S
C1050 C1049 1.399 . S
C1050 C1051 1.385 . S
C1051 H1037 0.931 . S
C1051 C1050 1.385 . S
C1051 C1052 1.389 . S
C1052 C1051 1.389 . S
C1052 C1053 1.387 . S
C1053 H1038 0.930 . S
C1053 C1048 1.390 . S
C1053 C1052 1.387 . S
C431 C110 1.633 . S
C419 C10 1.648 . S
C458 C179 1.460 . S
C446 C15 1.396 . S
C485 C117 1.662 . S
C473 C26 1.644 . S
C512 C180 1.452 . S
C500 C37 1.443 . S
C539 C233 1.752 . S
C527 C4 1.776 . S
C566 C269 1.457 . S
C554 C16 1.477 . S
C581 C27 1.773 . S
C593 C329 1.719 . S
C620 C392 1.495 . S
C608 C43 1.479 . S
C647 C232 1.578 . S
C635 C21 1.543 . S
C662 C32 1.426 . S
C674 C276 1.416 . S
C701 C322 1.754 . S
C689 C38 1.743 . S
C728 C391 1.706 . S
C716 C5 1.678 . S
C743 C49 1.495 . S
C755 C170 1.497 . S
C782 C127 1.722 1_655 S
C770 C60 1.752 . S
C797 C76 1.483 . S
C809 C163 1.486 . S
C824 C81 1.702 . S
C836 C126 1.714 . S
C863 C338 1.510 . S
C851 C54 1.541 . S
C890 C382 1.708 . S
C878 C59 1.695 . S
C917 C216 1.600 . S
C905 C70 1.574 . S
C932 C87 1.634 . S
C944 C285 1.603 . S
C971 C339 1.654 . S
C959 C65 1.660 . S
C998 C375 1.723 . S
C986 C71 1.734 . S
C1025 C223 1.557 . S
C1013 C82 1.581 . S
C1040 C48 1.543 . S
C1052 C286 1.540 . S
