# Generated by pormake.
# Topology cml, (3,6)-cn, num edge types: 1
# Building blocks:
#     Node 0, Type 0, BuildingBlock: BETDIP_clean_linker_0, # of connection points: 3
#     Node 1, Type 0, BuildingBlock: BETDIP_clean_linker_0, # of connection points: 3
#     Node 2, Type 0, BuildingBlock: BETDIP_clean_linker_0, # of connection points: 3
#     Node 3, Type 0, BuildingBlock: BETDIP_clean_linker_0, # of connection points: 3
#     Node 4, Type 0, BuildingBlock: BETDIP_clean_linker_0, # of connection points: 3
#     Node 5, Type 0, BuildingBlock: BETDIP_clean_linker_0, # of connection points: 3
#     Node 6, Type 0, BuildingBlock: BETDIP_clean_linker_0, # of connection points: 3
#     Node 7, Type 0, BuildingBlock: BETDIP_clean_linker_0, # of connection points: 3
#     Node 8, Type 1, BuildingBlock: IZENUY_clean_sbu_0, # of connection points: 6
#     Node 9, Type 1, BuildingBlock: IZENUY_clean_sbu_0, # of connection points: 6
#     Node 10, Type 1, BuildingBlock: IZENUY_clean_sbu_0, # of connection points: 6
#     Node 11, Type 1, BuildingBlock: IZENUY_clean_sbu_0, # of connection points: 6
#     Edge 12, Type (0, 1), BuildingBlock: CIFDUS_clean_linker_0, # of connection points: 2
#     Edge 13, Type (0, 1), BuildingBlock: CIFDUS_clean_linker_0, # of connection points: 2
#     Edge 14, Type (0, 1), BuildingBlock: CIFDUS_clean_linker_0, # of connection points: 2
#     Edge 15, Type (0, 1), BuildingBlock: CIFDUS_clean_linker_0, # of connection points: 2
#     Edge 16, Type (0, 1), BuildingBlock: CIFDUS_clean_linker_0, # of connection points: 2
#     Edge 17, Type (0, 1), BuildingBlock: CIFDUS_clean_linker_0, # of connection points: 2
#     Edge 18, Type (0, 1), BuildingBlock: CIFDUS_clean_linker_0, # of connection points: 2
#     Edge 19, Type (0, 1), BuildingBlock: CIFDUS_clean_linker_0, # of connection points: 2
#     Edge 20, Type (0, 1), BuildingBlock: CIFDUS_clean_linker_0, # of connection points: 2
#     Edge 21, Type (0, 1), BuildingBlock: CIFDUS_clean_linker_0, # of connection points: 2
#     Edge 22, Type (0, 1), BuildingBlock: CIFDUS_clean_linker_0, # of connection points: 2
#     Edge 23, Type (0, 1), BuildingBlock: CIFDUS_clean_linker_0, # of connection points: 2
#     Edge 24, Type (0, 1), BuildingBlock: CIFDUS_clean_linker_0, # of connection points: 2
#     Edge 25, Type (0, 1), BuildingBlock: CIFDUS_clean_linker_0, # of connection points: 2
#     Edge 26, Type (0, 1), BuildingBlock: CIFDUS_clean_linker_0, # of connection points: 2
#     Edge 27, Type (0, 1), BuildingBlock: CIFDUS_clean_linker_0, # of connection points: 2
#     Edge 28, Type (0, 1), BuildingBlock: CIFDUS_clean_linker_0, # of connection points: 2
#     Edge 29, Type (0, 1), BuildingBlock: CIFDUS_clean_linker_0, # of connection points: 2
#     Edge 30, Type (0, 1), BuildingBlock: CIFDUS_clean_linker_0, # of connection points: 2
#     Edge 31, Type (0, 1), BuildingBlock: CIFDUS_clean_linker_0, # of connection points: 2
#     Edge 32, Type (0, 1), BuildingBlock: CIFDUS_clean_linker_0, # of connection points: 2
#     Edge 33, Type (0, 1), BuildingBlock: CIFDUS_clean_linker_0, # of connection points: 2
#     Edge 34, Type (0, 1), BuildingBlock: CIFDUS_clean_linker_0, # of connection points: 2
#     Edge 35, Type (0, 1), BuildingBlock: CIFDUS_clean_linker_0, # of connection points: 2
# Relax obj value: 0.003
# Max RMSD: 0.065
# Mean RMSD: 0.052
data_MOF--net-cml--node1-IZENUY_clean_sbu_0--node2-BETDIP_clean_linker_0--edge1-CIFDUS_clean_linker_0
_symmetry_space_group_name_H-M    P1
_symmetry_Int_Tables_number       1
_symmetry_cell_setting            triclinic
loop_
_symmetry_equiv_pos_as_xyz
'x, y, z'
_cell_length_a     32.4816
_cell_length_b     35.45818
_cell_length_c     32.12526
_cell_angle_alpha  90.029702
_cell_angle_beta   89.447381
_cell_angle_gamma 89.881267
loop_
_atom_site_label
_atom_site_type_symbol
_atom_site_fract_x
_atom_site_fract_y
_atom_site_fract_z
_atom_type_partial_charge
H0 H 0.30225 0.33855 0.06138 0.0
H1 H 0.28997 0.42052 0.96321 0.0
H2 H 0.37882 0.43675 0.06017 0.0
H3 H 0.25336 0.37504 0.93116 0.0
C4 C 0.24144 0.35608 0.95485 0.0
C5 C 0.31187 0.36463 0.04664 0.0
C6 C 0.34233 0.38666 0.06503 0.0
C7 C 0.29287 0.37633 0.00986 0.0
C8 C 0.30496 0.41067 0.99108 0.0
C9 C 0.33591 0.43303 0.00927 0.0
C10 C 0.3543 0.42051 0.0462 0.0
N11 N 0.26074 0.35328 0.99425 0.0
H12 H 0.74224 0.67136 0.56774 0.0
H13 H 0.74489 0.61772 0.44726 0.0
H14 H 0.65775 0.58194 0.54047 0.0
H15 H 0.76587 0.67584 0.42718 0.0
C16 C 0.78616 0.6849 0.45191 0.0
C17 C 0.73075 0.65019 0.54646 0.0
C18 C 0.69838 0.62654 0.55886 0.0
C19 C 0.74678 0.64817 0.50583 0.0
C20 C 0.73168 0.62072 0.47814 0.0
C21 C 0.70001 0.59625 0.49068 0.0
C22 C 0.68322 0.59978 0.5309 0.0
N23 N 0.77784 0.67422 0.49377 0.0
H24 H 0.72117 0.35035 0.05957 0.0
H25 H 0.73638 0.42819 0.95711 0.0
H26 H 0.64608 0.45017 0.05181 0.0
H27 H 0.79807 0.40353 0.9518 0.0
C28 C 0.79637 0.37426 0.96148 0.0
C29 C 0.71308 0.37642 0.04407 0.0
C30 C 0.68065 0.3988 0.05987 0.0
C31 C 0.73439 0.38704 0.00749 0.0
C32 C 0.72218 0.42022 0.98636 0.0
C33 C 0.69082 0.44337 0.00273 0.0
C34 C 0.67076 0.43261 0.03956 0.0
N35 N 0.76664 0.36315 0.99202 0.0
H36 H 0.2664 0.65667 0.57909 0.0
H37 H 0.27278 0.59584 0.46298 0.0
H38 H 0.33691 0.55425 0.56939 0.0
H39 H 0.2267 0.63618 0.44113 0.0
C40 C 0.22317 0.65977 0.46235 0.0
C41 C 0.27716 0.63264 0.56113 0.0
C42 C 0.30251 0.60549 0.57969 0.0
C43 C 0.26574 0.6295 0.51933 0.0
C44 C 0.28018 0.59856 0.49555 0.0
C45 C 0.30507 0.57081 0.514 0.0
C46 C 0.3159 0.57456 0.55592 0.0
N47 N 0.24079 0.65875 0.50264 0.0
H48 H 0.79418 0.85007 0.05354 0.0
H49 H 0.78859 0.91271 0.93898 0.0
H50 H 0.88072 0.93897 0.0298 0.0
H51 H 0.75716 0.85918 0.91612 0.0
C52 C 0.74042 0.84778 0.94267 0.0
C53 C 0.80605 0.87218 0.03348 0.0
C54 C 0.83933 0.89416 0.04642 0.0
C55 C 0.78801 0.87808 0.99466 0.0
C56 C 0.80303 0.90708 0.96854 0.0
C57 C 0.83611 0.9298 0.98142 0.0
C58 C 0.85413 0.92279 0.02028 0.0
N59 N 0.75441 0.85461 0.9837 0.0
H60 H 0.24549 0.1692 0.56235 0.0
H61 H 0.22427 0.10897 0.44768 0.0
H62 H 0.16468 0.0738 0.56081 0.0
H63 H 0.26058 0.15257 0.41778 0.0
C64 C 0.27741 0.16924 0.44016 0.0
C65 C 0.23124 0.14625 0.54551 0.0
C66 C 0.20433 0.1217 0.56643 0.0
C67 C 0.23967 0.14156 0.5028 0.0
C68 C 0.21949 0.11254 0.48073 0.0
C69 C 0.19159 0.08847 0.50135 0.0
C70 C 0.18565 0.09251 0.54441 0.0
N71 N 0.2681 0.16686 0.4835 0.0
H72 H 0.2355 0.86426 0.04182 0.0
H73 H 0.2616 0.94882 0.94853 0.0
H74 H 0.16774 0.96836 0.04055 0.0
H75 H 0.31512 0.91439 0.9327 0.0
C76 C 0.31311 0.88638 0.94605 0.0
C77 C 0.23013 0.89198 0.02871 0.0
C78 C 0.19869 0.91488 0.04508 0.0
C79 C 0.25371 0.90388 0.9943 0.0
C80 C 0.24526 0.93942 0.97605 0.0
C81 C 0.21461 0.96307 0.99319 0.0
C82 C 0.19205 0.95062 0.02786 0.0
N83 N 0.28409 0.87849 0.97829 0.0
H84 H 0.78586 0.16847 0.5537 0.0
H85 H 0.79377 0.08908 0.45254 0.0
H86 H 0.87154 0.0764 0.55943 0.0
H87 H 0.76651 0.20728 0.50213 0.0
C88 C 0.74679 0.18998 0.48283 0.0
C89 C 0.79965 0.14381 0.53939 0.0
C90 C 0.82996 0.12389 0.56119 0.0
C91 C 0.78666 0.13141 0.49995 0.0
C92 C 0.80391 0.09857 0.48284 0.0
C93 C 0.83455 0.0784 0.50407 0.0
C94 C 0.84708 0.09112 0.54339 0.0
N95 N 0.75622 0.15117 0.47693 0.0
Fe96 Fe 0.01866 0.83448 0.29679 0.0
Fe97 Fe 0.01994 0.8703 0.38383 0.0
O98 O 0.0222 0.8749 0.32889 0.0
Fe99 Fe 0.02801 0.91993 0.30593 0.0
O100 O 0.97976 0.91552 0.27858 0.0
O101 O 0.99209 0.8587 0.25421 0.0
O102 O 0.9683 0.82326 0.31774 0.0
C103 C 0.96043 0.81795 0.35577 0.0
C104 C 0.07809 0.87316 0.25483 0.0
O105 O 0.98476 0.82968 0.38354 0.0
C106 C 0.08038 0.9272 0.37085 0.0
O107 O 0.04433 0.80293 0.33346 0.0
O108 O 0.06516 0.83985 0.38398 0.0
O109 O 0.05733 0.90293 0.26069 0.0
O110 O 0.06902 0.84306 0.27352 0.0
C111 C 0.97298 0.9337 0.37327 0.0
O112 O 0.05432 0.91031 0.39375 0.0
O113 O 0.07677 0.92741 0.33182 0.0
C114 C 0.06842 0.80968 0.36327 0.0
O115 O 0.97467 0.90054 0.38755 0.0
O116 O 0.99922 0.94509 0.34675 0.0
C117 C 0.97167 0.88916 0.25364 0.0
Fe118 Fe 0.0169 0.16277 0.89448 0.0
Fe119 Fe 0.01343 0.11527 0.81467 0.0
O120 O 0.01113 0.15989 0.83964 0.0
Fe121 Fe 1.00359 0.20133 0.80942 0.0
O122 O 0.0516 0.22156 0.82706 0.0
O123 O 0.04427 0.20804 0.89355 0.0
O124 O 0.0674 0.13979 0.89269 0.0
C125 C 0.07447 0.10818 0.87592 0.0
C126 C 0.95567 0.21548 0.88264 0.0
O127 O 0.04875 0.09384 0.85144 0.0
C128 C 0.95097 0.15289 0.77043 0.0
O129 O 0.99027 0.11809 0.9049 0.0
O130 O 0.96892 0.09832 0.84378 0.0
O131 O 0.97375 0.22649 0.84971 0.0
O132 O 0.96714 0.18584 0.901 0.0
C133 C 0.05963 0.15813 0.76092 0.0
O134 O 0.97845 0.12783 0.77295 0.0
O135 O 0.95486 0.18415 0.78883 0.0
C136 C 0.96599 0.09852 0.88303 0.0
O137 O 0.05822 0.12946 0.78422 0.0
O138 O 0.0325 0.18375 0.76396 0.0
C139 C 0.0624 0.22566 0.8644 0.0
Fe140 Fe 0.5154 0.33241 0.32751 0.0
Fe141 Fe 0.50888 0.37816 0.40886 0.0
O142 O 0.51316 0.37636 0.35399 0.0
Fe143 Fe 0.515 0.41922 0.32571 0.0
O144 O 0.46782 0.40757 0.29986 0.0
O145 O 0.48498 0.3493 0.28263 0.0
O146 O 0.46688 0.31682 0.35027 0.0
C147 C 0.45817 0.31595 0.38857 0.0
C148 C 0.56933 0.37234 0.27911 0.0
O149 O 0.47897 0.33472 0.41433 0.0
C150 C 0.56609 0.43542 0.38972 0.0
O151 O 0.54617 0.30862 0.36812 0.0
O152 O 0.55675 0.35328 0.41455 0.0
O153 O 0.54572 0.40056 0.28219 0.0
O154 O 0.5642 0.344 0.30214 0.0
C155 C 0.4567 0.4354 0.38897 0.0
O156 O 0.53889 0.42156 0.41371 0.0
O157 O 0.56266 0.43313 0.35066 0.0
C158 C 0.56669 0.3223 0.39806 0.0
O159 O 0.46031 0.40374 0.40651 0.0
O160 O 0.48377 0.44633 0.36312 0.0
C161 C 0.46189 0.37814 0.27868 0.0
Fe162 Fe 0.50952 0.65176 0.89256 0.0
Fe163 Fe 0.50215 0.60729 0.81048 0.0
O164 O 0.50466 0.65063 0.83757 0.0
Fe165 Fe 0.50253 0.69335 0.80893 0.0
O166 O 0.55359 0.70568 0.82546 0.0
O167 O 0.54338 0.69388 0.89221 0.0
O168 O 0.55634 0.62335 0.89147 0.0
C169 C 0.56056 0.5918 0.87369 0.0
C170 C 0.45727 0.71171 0.88164 0.0
O171 O 0.53586 0.58144 0.84578 0.0
C172 C 0.4427 0.65325 0.77076 0.0
O173 O 0.47697 0.60969 0.90165 0.0
O174 O 0.45679 0.59298 0.83901 0.0
O175 O 0.47899 0.72134 0.85067 0.0
O176 O 0.46285 0.6801 0.89869 0.0
C177 C 0.54994 0.64664 0.75605 0.0
O178 O 0.46708 0.62523 0.77059 0.0
O179 O 0.45119 0.68292 0.79063 0.0
C180 C 0.45318 0.59116 0.87802 0.0
O181 O 0.54789 0.61841 0.7797 0.0
O182 O 0.52575 0.67416 0.76124 0.0
C183 C 0.56457 0.70865 0.86288 0.0
H184 H 0.20546 0.34609 0.87981 0.0
H185 H 0.19994 0.30838 0.00744 0.0
H186 H 0.14407 0.26545 0.99066 0.0
H187 H 0.09721 0.23788 0.9399 0.0
H188 H 0.10283 0.27424 0.81173 0.0
H189 H 0.15803 0.31822 0.82857 0.0
C190 C 0.19189 0.32848 0.90388 0.0
C191 C 0.20695 0.33041 0.9447 0.0
C192 C 0.15977 0.30353 0.89396 0.0
C193 C 0.18916 0.30743 0.97567 0.0
C194 C 0.15711 0.28282 0.96613 0.0
C195 C 0.11034 0.25548 0.91559 0.0
C196 C 0.09567 0.25273 0.87462 0.0
C197 C 0.14225 0.28054 0.92539 0.0
C198 C 0.11339 0.2757 0.84356 0.0
C199 C 0.14501 0.3009 0.85316 0.0
H200 H 0.80537 0.71224 0.37623 0.0
H201 H 0.84332 0.71559 0.50448 0.0
H202 H 0.89984 0.75795 0.48606 0.0
H203 H 0.93918 0.79313 0.4333 0.0
H204 H 0.90129 0.78936 0.30482 0.0
H205 H 0.844 0.74827 0.32363 0.0
C206 C 0.82605 0.72234 0.40009 0.0
C207 C 0.82028 0.71082 0.44152 0.0
C208 C 0.85847 0.74661 0.38927 0.0
C209 C 0.84713 0.72403 0.47228 0.0
C210 C 0.87946 0.74827 0.46179 0.0
C211 C 0.91834 0.78346 0.40939 0.0
C212 C 0.92474 0.79424 0.36767 0.0
C213 C 0.88551 0.75963 0.42035 0.0
C214 C 0.8973 0.78141 0.33716 0.0
C215 C 0.86448 0.75788 0.34786 0.0
H216 H 0.81338 0.30031 0.9831 0.0
H217 H 0.84743 0.38869 0.89728 0.0
H218 H 0.89849 0.34744 0.86462 0.0
H219 H 0.93442 0.28698 0.86083 0.0
H220 H 0.90303 0.19842 0.9475 0.0
H221 H 0.8502 0.23886 0.97926 0.0
C222 C 0.83191 0.31042 0.95719 0.0
C223 C 0.82655 0.34757 0.94256 0.0
C224 C 0.8618 0.28653 0.9387 0.0
C225 C 0.85099 0.36027 0.90911 0.0
C226 C 0.88021 0.33669 0.89039 0.0
C227 C 0.91597 0.27633 0.88656 0.0
C228 C 0.92283 0.23958 0.90161 0.0
C229 C 0.88601 0.29984 0.90497 0.0
C230 C 0.89861 0.22657 0.93522 0.0
C231 C 0.86832 0.24971 0.95343 0.0
H232 H 0.18133 0.66686 0.39092 0.0
H233 H 0.20704 0.72532 0.50548 0.0
H234 H 0.16262 0.77749 0.48444 0.0
H235 H 0.11478 0.80587 0.43404 0.0
H236 H 0.08878 0.7463 0.31998 0.0
H237 H 0.13491 0.69556 0.34022 0.0
C238 C 0.17724 0.69111 0.41118 0.0
C239 C 0.19726 0.69213 0.44966 0.0
C240 C 0.15149 0.72089 0.39902 0.0
C241 C 0.19183 0.7237 0.47569 0.0
C242 C 0.16643 0.75361 0.46368 0.0
C243 C 0.11936 0.78189 0.41355 0.0
C244 C 0.09805 0.77993 0.37566 0.0
C245 C 0.14585 0.75242 0.4255 0.0
C246 C 0.10443 0.74855 0.3495 0.0
C247 C 0.13089 0.71943 0.36098 0.0
H248 H 0.71583 0.82013 0.86895 0.0
H249 H 0.68838 0.81555 1.00044 0.0
H250 H 0.63242 0.77119 0.98769 0.0
H251 H 0.59047 0.73418 0.93882 0.0
H252 H 0.61895 0.73892 0.80728 0.0
H253 H 0.6752 0.78228 0.82051 0.0
C254 C 0.69753 0.80939 0.89476 0.0
C255 C 0.70618 0.82112 0.93544 0.0
C256 C 0.66555 0.78376 0.88725 0.0
C257 C 0.6824 0.80694 0.96873 0.0
C258 C 0.65036 0.78154 0.96148 0.0
C259 C 0.60911 0.74453 0.91309 0.0
C260 C 0.60016 0.73337 0.87212 0.0
C261 C 0.64159 0.76975 0.92083 0.0
C262 C 0.62478 0.74714 0.83917 0.0
C263 C 0.65706 0.77202 0.84663 0.0
H264 H 0.32555 0.21781 0.48462 0.0
H265 H 0.30157 0.17892 0.35998 0.0
H266 H 0.35495 0.22095 0.33248 0.0
H267 H 0.40889 0.26845 0.344 0.0
H268 H 0.43235 0.30708 0.46908 0.0
H269 H 0.37877 0.26559 0.49604 0.0
C270 C 0.33195 0.21852 0.45144 0.0
C271 C 0.30967 0.19524 0.42433 0.0
C272 C 0.36265 0.24275 0.43586 0.0
C273 C 0.31836 0.1966 0.38144 0.0
C274 C 0.34886 0.22061 0.36571 0.0
C275 C 0.40229 0.26784 0.37715 0.0
C276 C 0.42489 0.29088 0.40436 0.0
C277 C 0.3713 0.24379 0.39264 0.0
C278 C 0.41569 0.28967 0.44727 0.0
C279 C 0.38496 0.2659 0.46283 0.0
H280 H 0.32306 0.81323 0.97339 0.0
H281 H 0.36796 0.89385 0.88327 0.0
H282 H 0.41613 0.84707 0.8555 0.0
H283 H 0.44543 0.78385 0.85658 0.0
H284 H 0.40216 0.7024 0.94664 0.0
H285 H 0.35341 0.74899 0.97471 0.0
C286 C 0.34338 0.82052 0.94768 0.0
C287 C 0.34193 0.85702 0.93031 0.0
C288 C 0.37127 0.79339 0.9319 0.0
C289 C 0.36852 0.86599 0.89711 0.0
C290 C 0.39606 0.83926 0.88122 0.0
C291 C 0.42541 0.77608 0.88237 0.0
C292 C 0.42758 0.73953 0.89942 0.0
C293 C 0.39769 0.80294 0.89835 0.0
C294 C 0.40129 0.73028 0.93291 0.0
C295 C 0.37335 0.75693 0.94896 0.0
H296 H 0.72314 0.26173 0.49163 0.0
H297 H 0.69163 0.15918 0.42743 0.0
H298 H 0.63335 0.19112 0.39452 0.0
H299 H 0.59068 0.24864 0.38489 0.0
H300 H 0.62345 0.35024 0.45105 0.0
H301 H 0.68162 0.31829 0.48204 0.0
C302 C 0.70352 0.2464 0.47035 0.0
C303 C 0.7116 0.2083 0.46197 0.0
C304 C 0.67014 0.2648 0.45189 0.0
C305 C 0.68599 0.18863 0.43443 0.0
C306 C 0.65267 0.20689 0.4156 0.0
C307 C 0.61062 0.26373 0.406 0.0
C308 C 0.60235 0.30177 0.4157 0.0
C309 C 0.64433 0.24503 0.4242 0.0
C310 C 0.62862 0.32089 0.44319 0.0
C311 C 0.66211 0.30269 0.46097 0.0
H312 H 0.34905 0.4477 0.92672 0.0
H313 H 0.35616 0.49914 0.04821 0.0
H314 H 0.3917 0.5534 0.01841 0.0
H315 H 0.42621 0.58389 0.95864 0.0
H316 H 0.41589 0.53356 0.83676 0.0
H317 H 0.37566 0.48198 0.86583 0.0
C318 C 0.35746 0.47113 0.94658 0.0
C319 C 0.35069 0.46878 0.9898 0.0
C320 C 0.37772 0.50253 0.92922 0.0
C321 C 0.36198 0.49958 0.01496 0.0
C322 C 0.38223 0.53078 0.99795 0.0
C323 C 0.41481 0.56183 0.9384 0.0
C324 C 0.42467 0.5625 0.89569 0.0
C325 C 0.39131 0.5321 0.95526 0.0
C326 C 0.40908 0.53386 0.86983 0.0
C327 C 0.38606 0.50416 0.88642 0.0
H328 H 0.68329 0.52347 0.50835 0.0
H329 H 0.67855 0.60478 0.4088 0.0
H330 H 0.64092 0.55974 0.3656 0.0
H331 H 0.60179 0.49996 0.35993 0.0
H332 H 0.60321 0.4216 0.46261 0.0
H333 H 0.64966 0.4626 0.50073 0.0
C334 C 0.67423 0.53124 0.47708 0.0
C335 C 0.68307 0.5675 0.46201 0.0
C336 C 0.65169 0.50577 0.4531 0.0
C337 C 0.67207 0.57695 0.42109 0.0
C338 C 0.65029 0.55133 0.39652 0.0
C339 C 0.61301 0.49167 0.39028 0.0
C340 C 0.59894 0.45805 0.40868 0.0
C341 C 0.63884 0.51603 0.41269 0.0
C342 C 0.61339 0.44758 0.44809 0.0
C343 C 0.63989 0.47099 0.46992 0.0
H344 H 0.66599 0.44913 0.92243 0.0
H345 H 0.68163 0.51413 0.0345 0.0
H346 H 0.64624 0.56777 0.00289 0.0
H347 H 0.60419 0.5936 0.94621 0.0
H348 H 0.58599 0.52714 0.8353 0.0
H349 H 0.62918 0.47713 0.86332 0.0
C350 C 0.66251 0.47539 0.93946 0.0
C351 C 0.67632 0.4777 0.9807 0.0
C352 C 0.64113 0.50578 0.92146 0.0
C353 C 0.67109 0.5117 0.00272 0.0
C354 C 0.65074 0.54231 0.98471 0.0
C355 C 0.61021 0.56846 0.92787 0.0
C356 C 0.59141 0.5641 0.88886 0.0
C357 C 0.63455 0.53931 0.94453 0.0
C358 C 0.59961 0.5312 0.86562 0.0
C359 C 0.62437 0.50248 0.88161 0.0
H360 H 0.34649 0.57479 0.4403 0.0
H361 H 0.3053 0.49622 0.53409 0.0
H362 H 0.34616 0.44602 0.50163 0.0
H363 H 0.39931 0.42638 0.45106 0.0
H364 H 0.44178 0.50578 0.35833 0.0
H365 H 0.39457 0.55338 0.38558 0.0
C366 C 0.34567 0.54642 0.45293 0.0
C367 C 0.32311 0.5392 0.48957 0.0
C368 C 0.36999 0.51792 0.43466 0.0
C369 C 0.32269 0.50244 0.50598 0.0
C370 C 0.34616 0.47379 0.48755 0.0
C371 C 0.39794 0.45394 0.43651 0.0
C372 C 0.42463 0.46255 0.40311 0.0
C373 C 0.37093 0.48149 0.45262 0.0
C374 C 0.42206 0.4984 0.38444 0.0
C375 C 0.39499 0.52574 0.39997 0.0
H376 H 0.85908 0.99986 0.00551 0.0
H377 H 0.85162 0.92847 0.89713 0.0
H378 H 0.88811 0.97604 0.85566 0.0
H379 H 0.92807 0.03545 0.85216 0.0
H380 H 0.93822 0.10412 0.96264 0.0
H381 H 0.89525 0.05992 0.0013 0.0
C382 C 0.86539 0.99466 0.97278 0.0
C383 C 0.85313 0.96041 0.95463 0.0
C384 C 0.88734 0.02153 0.94957 0.0
C385 C 0.8606 0.95461 0.9119 0.0
C386 C 0.88179 0.98168 0.88826 0.0
C387 C 0.92049 0.04089 0.88457 0.0
C388 C 0.93679 0.07286 0.90458 0.0
C389 C 0.8962 0.01488 0.90703 0.0
C390 C 0.92661 0.07951 0.94659 0.0
C391 C 0.90193 0.05428 0.96876 0.0
H392 H 0.21433 0.04136 0.43675 0.0
H393 H 0.11027 0.07412 0.51355 0.0
H394 H 0.06836 0.02571 0.4818 0.0
H395 H 0.06074 0.97375 0.43326 0.0
H396 H 0.16063 0.94371 0.35047 0.0
H397 H 0.20466 0.9915 0.38321 0.0
C398 C 0.18239 0.03812 0.44618 0.0
C399 C 0.16596 0.06073 0.47843 0.0
C400 C 0.15778 1.01058 0.42693 0.0
C401 C 0.12431 0.0563 0.48996 0.0
C402 C 0.1001 0.02876 0.47162 0.0
C403 C 0.09233 0.97742 0.42267 0.0
C404 C 0.1079 0.95488 0.39029 0.0
C405 C 0.11662 1.00549 0.44054 0.0
C406 C 0.14832 0.96061 0.3758 0.0
C407 C 0.17334 0.98793 0.39442 0.0
H408 H 0.19509 0.97432 0.9123 0.0
H409 H 0.20359 0.03179 0.03007 0.0
H410 H 0.16489 0.08529 0.00238 0.0
H411 H 0.11922 0.11093 0.94805 0.0
H412 H 0.10929 0.05157 0.83129 0.0
H413 H 0.15817 1.00426 0.85483 0.0
C414 C 0.1897 0.99913 0.93139 0.0
C415 C 0.20188 0.999 0.97319 0.0
C416 C 0.16638 0.02929 0.91563 0.0
C417 C 0.19423 0.03117 0.99779 0.0
C418 C 0.17188 0.06167 0.98206 0.0
C419 C 0.12851 0.08812 0.92749 0.0
C420 C 0.10996 0.08444 0.88832 0.0
C421 C 0.15625 0.06035 0.94155 0.0
C422 C 0.12246 0.05471 0.86196 0.0
C423 C 0.1505 0.02758 0.87534 0.0
H424 H 0.86376 0.07343 0.42491 0.0
H425 H 0.85328 1.01012 0.53904 0.0
H426 H 0.8928 0.95826 0.50785 0.0
H427 H 0.93374 0.93245 0.44911 0.0
H428 H 0.94587 0.99765 0.33626 0.0
H429 H 0.90188 0.04682 0.3657 0.0
C430 C 0.86951 0.04801 0.44272 0.0
C431 C 0.85555 0.04561 0.48419 0.0
C432 C 0.89273 0.01864 0.42483 0.0
C433 C 0.86394 1.01275 0.50713 0.0
C434 C 0.88646 0.98307 0.48929 0.0
C435 C 0.9263 0.95721 0.43084 0.0
C436 C 0.94322 0.96141 0.39061 0.0
C437 C 0.90154 0.9859 0.44831 0.0
C438 C 0.93355 0.99383 0.36743 0.0
C439 C 0.90836 0.022 0.38422 0.0
H440 H 0.34097 0.42552 0.13661 0.0
H441 H 0.38651 0.32278 0.08134 0.0
H442 H 0.42553 0.30878 0.14467 0.0
H443 H 0.4514 0.32937 0.21329 0.0
H444 H 0.40394 0.43241 0.26755 0.0
H445 H 0.36067 0.44243 0.20736 0.0
C446 C 0.35909 0.39986 0.13879 0.0
C447 C 0.36139 0.37535 0.10463 0.0
C448 C 0.38123 0.39218 0.17498 0.0
C449 C 0.38447 0.34196 0.10754 0.0
C450 C 0.40684 0.33411 0.14358 0.0
C451 C 0.43112 0.35366 0.21221 0.0
C452 C 0.43155 0.38038 0.24465 0.0
C453 C 0.40617 0.35949 0.17719 0.0
C454 C 0.40482 0.41163 0.24281 0.0
C455 C 0.37997 0.41748 0.20837 0.0
H456 H 0.61895 0.6433 0.57279 0.0
H457 H 0.73235 0.61959 0.63606 0.0
H458 H 0.6962 0.62224 0.70362 0.0
H459 H 0.63118 0.63006 0.74431 0.0
H460 H 0.51946 0.6579 0.67966 0.0
H461 H 0.55577 0.6545 0.61287 0.0
C462 C 0.63566 0.63887 0.60148 0.0
C463 C 0.67797 0.63104 0.59982 0.0
C464 C 0.61486 0.64087 0.63978 0.0
C465 C 0.69967 0.62574 0.63693 0.0
C466 C 0.67899 0.62706 0.67538 0.0
C467 C 0.61504 0.63523 0.71546 0.0
C468 C 0.57284 0.64394 0.71653 0.0
C469 C 0.63645 0.63428 0.67716 0.0
C470 C 0.55204 0.65118 0.67929 0.0
C471 C 0.57272 0.64925 0.6412 0.0
H472 H 0.70557 0.37441 0.13711 0.0
H473 H 0.59755 0.39697 0.06393 0.0
H474 H 0.55375 0.3891 0.12515 0.0
H475 H 0.54627 0.38182 0.20032 0.0
H476 H 0.6521 0.35648 0.27499 0.0
H477 H 0.69669 0.35908 0.21258 0.0
C478 C 0.67241 0.37682 0.13456 0.0
C479 C 0.65492 0.38708 0.09618 0.0
C480 C 0.6471 0.37223 0.17021 0.0
C481 C 0.61184 0.38993 0.09328 0.0
C482 C 0.58672 0.38543 0.12825 0.0
C483 C 0.57911 0.37657 0.20278 0.0
C484 C 0.59618 0.36956 0.24196 0.0
C485 C 0.60408 0.3777 0.16701 0.0
C486 C 0.6385 0.3621 0.24496 0.0
C487 C 0.66388 0.36369 0.20935 0.0
H488 H 0.32906 0.67051 0.61593 0.0
H489 H 0.31179 0.55173 0.6398 0.0
H490 H 0.3506 0.55713 0.7041 0.0
H491 H 0.39681 0.59372 0.74836 0.0
H492 H 0.41295 0.71267 0.72598 0.0
H493 H 0.36614 0.70933 0.6668 0.0
C494 C 0.33271 0.64602 0.63576 0.0
C495 C 0.31832 0.61059 0.62257 0.0
C496 C 0.35508 0.6493 0.67277 0.0
C497 C 0.3235 0.57914 0.64868 0.0
C498 C 0.34558 0.58219 0.68551 0.0
C499 C 0.38942 0.61902 0.73091 0.0
C500 C 0.4086 0.65323 0.74092 0.0
C501 C 0.36278 0.61681 0.69699 0.0
C502 C 0.39849 0.686 0.7187 0.0
C503 C 0.37198 0.68403 0.68473 0.0
H504 H 0.86087 0.94484 0.10565 0.0
H505 H 0.86411 0.82609 0.07663 0.0
H506 H 0.90329 0.81374 0.13979 0.0
H507 H 0.94031 0.83726 0.20062 0.0
H508 H 0.93711 0.95614 0.2298 0.0
H509 H 0.89408 0.96784 0.16926 0.0
C510 C 0.87009 0.91627 0.11331 0.0
C511 C 0.85992 0.88645 0.08648 0.0
C512 C 0.89271 0.90943 0.14953 0.0
C513 C 0.87142 0.84946 0.09697 0.0
C514 C 0.894 0.84243 0.13291 0.0
C515 C 0.93003 0.86572 0.1939 0.0
C516 C 0.94234 0.89581 0.21945 0.0
C517 C 0.90536 0.87228 0.15904 0.0
C518 C 0.92824 0.93244 0.2106 0.0
C519 C 0.90372 0.9392 0.1759 0.0
H520 H 0.1643 0.18257 0.59683 0.0
H521 H 0.21167 0.07376 0.63197 0.0
H522 H 0.17333 0.07678 0.6979 0.0
H523 H 0.11946 0.1067 0.74095 0.0
H524 H 0.06939 0.21428 0.70355 0.0
H525 H 0.11555 0.21546 0.64337 0.0
C526 C 0.16723 0.1602 0.61965 0.0
C527 C 0.19092 0.12817 0.60996 0.0
C528 C 0.14381 0.16149 0.65663 0.0
C529 C 0.19385 0.09884 0.63917 0.0
C530 C 0.1716 0.1004 0.67658 0.0
C531 C 0.11887 0.13058 0.71987 0.0
C532 C 0.09038 0.16 0.72649 0.0
C533 C 0.14527 0.13095 0.68492 0.0
C534 C 0.09051 0.19093 0.69902 0.0
C535 C 0.11701 0.19172 0.66456 0.0
H536 H 0.21886 0.88144 0.11907 0.0
H537 H 0.1155 0.91815 0.04586 0.0
H538 H 0.06883 0.90599 0.10399 0.0
H539 H 0.05813 0.89106 0.17728 0.0
H540 H 0.15934 0.85235 0.25161 0.0
H541 H 0.20629 0.85864 0.19136 0.0
C542 C 0.18604 0.88605 0.11576 0.0
C543 C 0.17072 0.90153 0.07864 0.0
C544 C 0.15918 0.87898 0.14952 0.0
C545 C 0.1281 0.90717 0.07453 0.0
C546 C 0.10137 0.90016 0.10767 0.0
C547 C 0.09045 0.88364 0.18003 0.0
C548 C 0.10571 0.87183 0.21849 0.0
C549 C 0.11673 0.88717 0.14557 0.0
C550 C 0.14727 0.86164 0.22201 0.0
C551 C 0.17397 0.86538 0.1877 0.0
H552 H 0.84078 0.08382 0.63202 0.0
H553 H 0.85375 0.19559 0.58102 0.0
H554 H 0.88706 0.21685 0.64494 0.0
H555 H 0.92031 0.20119 0.71199 0.0
H556 H 0.90895 0.08837 0.76069 0.0
H557 H 0.86671 0.07017 0.70167 0.0
C558 C 0.85058 0.11291 0.63512 0.0
C559 C 0.84532 0.13795 0.60174 0.0
C560 C 0.87002 0.12476 0.67167 0.0
C561 C 0.85748 0.17576 0.60635 0.0
C562 C 0.87669 0.18788 0.64282 0.0
C563 C 0.90744 0.17304 0.71018 0.0
C564 C 0.91767 0.14611 0.74049 0.0
C565 C 0.88411 0.16237 0.67532 0.0
C566 C 0.90144 0.1095 0.73758 0.0
C567 C 0.87754 0.099 0.70374 0.0
loop_
_geom_bond_atom_site_label_1
_geom_bond_atom_site_label_2
_geom_bond_distance
_geom_bond_site_symmetry_2
_ccdc_geom_bond_type
H0 C5 0.930 . S
H1 C8 0.930 . S
H2 C10 0.930 . S
H3 C4 1.016 . S
C4 H3 1.016 . S
C4 N11 1.286 . S
C5 H0 0.930 . S
C5 C6 1.397 . S
C5 C7 1.361 . S
C6 C5 1.397 . S
C6 C10 1.390 . S
C7 C5 1.361 . S
C7 C8 1.393 1_554 S
C7 N11 1.413 1_554 S
C8 H1 0.930 . S
C8 C7 1.393 1_556 S
C8 C9 1.399 . S
C9 C8 1.399 . S
C9 C10 1.381 1_556 S
C10 H2 0.930 . S
C10 C6 1.390 . S
C10 C9 1.381 1_554 S
N11 C4 1.286 . S
N11 C7 1.413 1_556 S
H12 C17 0.930 . S
H13 C20 0.930 . S
H14 C22 0.930 . S
H15 C16 1.016 . S
C16 H15 1.016 . S
C16 N23 1.286 . S
C17 H12 0.930 . S
C17 C18 1.397 . S
C17 C19 1.361 . S
C18 C17 1.397 . S
C18 C22 1.390 . S
C19 C17 1.361 . S
C19 C20 1.393 . S
C19 N23 1.413 . S
C20 H13 0.930 . S
C20 C19 1.393 . S
C20 C21 1.399 . S
C21 C20 1.399 . S
C21 C22 1.381 . S
C22 H14 0.930 . S
C22 C18 1.390 . S
C22 C21 1.381 . S
N23 C16 1.286 . S
N23 C19 1.413 . S
H24 C29 0.930 . S
H25 C32 0.930 . S
H26 C34 0.930 . S
H27 C28 1.016 . S
C28 H27 1.016 . S
C28 N35 1.286 1_556 S
C29 H24 0.930 . S
C29 C30 1.397 . S
C29 C31 1.361 . S
C30 C29 1.397 . S
C30 C34 1.390 . S
C31 C29 1.361 . S
C31 C32 1.393 1_554 S
C31 N35 1.413 . S
C32 H25 0.930 . S
C32 C31 1.393 1_556 S
C32 C33 1.399 . S
C33 C32 1.399 . S
C33 C34 1.381 1_556 S
C34 H26 0.930 . S
C34 C30 1.390 . S
C34 C33 1.381 1_554 S
N35 C28 1.286 1_554 S
N35 C31 1.413 . S
H36 C41 0.930 . S
H37 C44 0.930 . S
H38 C46 0.930 . S
H39 C40 1.016 . S
C40 H39 1.016 . S
C40 N47 1.286 . S
C41 H36 0.930 . S
C41 C42 1.397 . S
C41 C43 1.361 . S
C42 C41 1.397 . S
C42 C46 1.390 . S
C43 C41 1.361 . S
C43 C44 1.393 . S
C43 N47 1.413 . S
C44 H37 0.930 . S
C44 C43 1.393 . S
C44 C45 1.399 . S
C45 C44 1.399 . S
C45 C46 1.381 . S
C46 H38 0.930 . S
C46 C42 1.390 . S
C46 C45 1.381 . S
N47 C40 1.286 . S
N47 C43 1.413 . S
H48 C53 0.930 . S
H49 C56 0.930 . S
H50 C58 0.930 . S
H51 C52 1.016 . S
C52 H51 1.016 . S
C52 N59 1.286 . S
C53 H48 0.930 . S
C53 C54 1.397 . S
C53 C55 1.361 . S
C54 C53 1.397 . S
C54 C58 1.390 . S
C55 C53 1.361 . S
C55 C56 1.393 1_554 S
C55 N59 1.413 1_554 S
C56 H49 0.930 . S
C56 C55 1.393 1_556 S
C56 C57 1.399 . S
C57 C56 1.399 . S
C57 C58 1.381 1_556 S
C58 H50 0.930 . S
C58 C54 1.390 . S
C58 C57 1.381 1_554 S
N59 C52 1.286 . S
N59 C55 1.413 1_556 S
H60 C65 0.930 . S
H61 C68 0.930 . S
H62 C70 0.930 . S
H63 C64 1.016 . S
C64 H63 1.016 . S
C64 N71 1.286 . S
C65 H60 0.930 . S
C65 C66 1.397 . S
C65 C67 1.361 . S
C66 C65 1.397 . S
C66 C70 1.390 . S
C67 C65 1.361 . S
C67 C68 1.393 . S
C67 N71 1.413 . S
C68 H61 0.930 . S
C68 C67 1.393 . S
C68 C69 1.399 . S
C69 C68 1.399 . S
C69 C70 1.381 . S
C70 H62 0.930 . S
C70 C66 1.390 . S
C70 C69 1.381 . S
N71 C64 1.286 . S
N71 C67 1.413 . S
H72 C77 0.930 . S
H73 C80 0.930 . S
H74 C82 0.930 . S
H75 C76 1.016 . S
C76 H75 1.016 . S
C76 N83 1.286 1_556 S
C77 H72 0.930 . S
C77 C78 1.397 . S
C77 C79 1.361 . S
C78 C77 1.397 . S
C78 C82 1.390 . S
C79 C77 1.361 . S
C79 C80 1.393 1_554 S
C79 N83 1.413 . S
C80 H73 0.930 . S
C80 C79 1.393 1_556 S
C80 C81 1.399 . S
C81 C80 1.399 . S
C81 C82 1.381 1_556 S
C82 H74 0.930 . S
C82 C78 1.390 . S
C82 C81 1.381 1_554 S
N83 C76 1.286 1_554 S
N83 C79 1.413 . S
H84 C89 0.930 . S
H85 C92 0.930 . S
H86 C94 0.930 . S
H87 C88 1.016 . S
C88 H87 1.016 . S
C88 N95 1.286 . S
C89 H84 0.930 . S
C89 C90 1.397 . S
C89 C91 1.361 . S
C90 C89 1.397 . S
C90 C94 1.390 . S
C91 C89 1.361 . S
C91 C92 1.393 . S
C91 N95 1.413 . S
C92 H85 0.930 . S
C92 C91 1.393 . S
C92 C93 1.399 . S
C93 C92 1.399 . S
C93 C94 1.381 . S
C94 H86 0.930 . S
C94 C90 1.390 . S
C94 C93 1.381 . S
N95 C88 1.286 . S
N95 C91 1.413 . S
Fe96 O98 1.918 . S
Fe96 O101 1.997 1_455 S
Fe96 O102 2.002 1_455 S
Fe96 O107 1.976 . S
Fe96 O110 1.996 . S
Fe97 O98 1.918 . S
Fe97 O105 1.997 1_455 S
Fe97 O108 1.996 . S
Fe97 O112 1.976 . S
Fe97 O115 2.002 1_455 S
O98 Fe96 1.918 . S
O98 Fe97 1.918 . S
O98 Fe99 1.918 . S
Fe99 O98 1.918 . S
Fe99 O100 2.002 1_455 S
Fe99 O109 1.976 . S
Fe99 O113 1.996 . S
Fe99 O116 1.997 1_455 S
O100 Fe99 2.002 1_655 S
O100 C117 1.295 . S
O101 Fe96 1.997 1_655 S
O101 C117 1.235 . S
O102 Fe96 2.002 1_655 S
O102 C103 1.295 . S
C103 O102 1.295 . S
C103 O105 1.235 . S
C104 O109 1.287 . S
C104 O110 1.255 . S
O105 Fe97 1.997 1_655 S
O105 C103 1.235 . S
C106 O112 1.287 . S
C106 O113 1.255 . S
O107 Fe96 1.976 . S
O107 C114 1.287 . S
O108 Fe97 1.996 . S
O108 C114 1.255 . S
O109 Fe99 1.976 . S
O109 C104 1.287 . S
O110 Fe96 1.996 . S
O110 C104 1.255 . S
C111 O115 1.295 . S
C111 O116 1.235 . S
O112 Fe97 1.976 . S
O112 C106 1.287 . S
O113 Fe99 1.996 . S
O113 C106 1.255 . S
C114 O107 1.287 . S
C114 O108 1.255 . S
O115 Fe97 2.002 1_655 S
O115 C111 1.295 . S
O116 Fe99 1.997 1_655 S
O116 C111 1.235 . S
C117 O100 1.295 . S
C117 O101 1.235 . S
Fe118 O120 1.918 1_455 S
Fe118 O123 2.001 . S
Fe118 O124 2.007 . S
Fe118 O129 1.971 1_455 S
Fe118 O132 1.991 1_455 S
Fe119 O120 1.918 1_455 S
Fe119 O127 2.001 . S
Fe119 O130 1.991 1_455 S
Fe119 O134 1.971 1_455 S
Fe119 O137 2.007 . S
O120 Fe118 1.918 1_655 S
O120 Fe119 1.918 1_655 S
O120 Fe121 1.918 1_655 S
Fe121 O120 1.918 1_455 S
Fe121 O122 2.007 . S
Fe121 O131 1.971 1_455 S
Fe121 O135 1.991 1_455 S
Fe121 O138 2.001 . S
O122 Fe121 2.007 . S
O122 C139 1.295 . S
O123 Fe118 2.001 . S
O123 C139 1.235 . S
O124 Fe118 2.007 . S
O124 C125 1.295 . S
C125 O124 1.295 . S
C125 O127 1.235 . S
C126 O131 1.287 . S
C126 O132 1.255 . S
O127 Fe119 2.001 . S
O127 C125 1.235 . S
C128 O134 1.287 . S
C128 O135 1.255 . S
O129 Fe118 1.971 1_655 S
O129 C136 1.287 . S
O130 Fe119 1.991 1_655 S
O130 C136 1.255 . S
O131 Fe121 1.971 1_655 S
O131 C126 1.287 . S
O132 Fe118 1.991 1_655 S
O132 C126 1.255 . S
C133 O137 1.295 . S
C133 O138 1.235 . S
O134 Fe119 1.971 1_655 S
O134 C128 1.287 . S
O135 Fe121 1.991 1_655 S
O135 C128 1.255 . S
C136 O129 1.287 . S
C136 O130 1.255 . S
O137 Fe119 2.007 . S
O137 C133 1.295 . S
O138 Fe121 2.001 . S
O138 C133 1.235 . S
C139 O122 1.295 . S
C139 O123 1.235 . S
Fe140 O142 1.918 . S
Fe140 O145 1.997 . S
Fe140 O146 2.002 . S
Fe140 O151 1.976 . S
Fe140 O154 1.996 . S
Fe141 O142 1.918 . S
Fe141 O149 1.997 . S
Fe141 O152 1.996 . S
Fe141 O156 1.976 . S
Fe141 O159 2.002 . S
O142 Fe140 1.918 . S
O142 Fe141 1.918 . S
O142 Fe143 1.918 . S
Fe143 O142 1.918 . S
Fe143 O144 2.002 . S
Fe143 O153 1.976 . S
Fe143 O157 1.996 . S
Fe143 O160 1.997 . S
O144 Fe143 2.002 . S
O144 C161 1.295 . S
O145 Fe140 1.997 . S
O145 C161 1.235 . S
O146 Fe140 2.002 . S
O146 C147 1.295 . S
C147 O146 1.295 . S
C147 O149 1.235 . S
C148 O153 1.287 . S
C148 O154 1.255 . S
O149 Fe141 1.997 . S
O149 C147 1.235 . S
C150 O156 1.287 . S
C150 O157 1.255 . S
O151 Fe140 1.976 . S
O151 C158 1.287 . S
O152 Fe141 1.996 . S
O152 C158 1.255 . S
O153 Fe143 1.976 . S
O153 C148 1.287 . S
O154 Fe140 1.996 . S
O154 C148 1.255 . S
C155 O159 1.295 . S
C155 O160 1.235 . S
O156 Fe141 1.976 . S
O156 C150 1.287 . S
O157 Fe143 1.996 . S
O157 C150 1.255 . S
C158 O151 1.287 . S
C158 O152 1.255 . S
O159 Fe141 2.002 . S
O159 C155 1.295 . S
O160 Fe143 1.997 . S
O160 C155 1.235 . S
C161 O144 1.295 . S
C161 O145 1.235 . S
Fe162 O164 1.918 . S
Fe162 O167 1.997 . S
Fe162 O168 2.002 . S
Fe162 O173 1.976 . S
Fe162 O176 1.996 . S
Fe163 O164 1.918 . S
Fe163 O171 1.997 . S
Fe163 O174 1.996 . S
Fe163 O178 1.976 . S
Fe163 O181 2.002 . S
O164 Fe162 1.918 . S
O164 Fe163 1.918 . S
O164 Fe165 1.918 . S
Fe165 O164 1.918 . S
Fe165 O166 2.002 . S
Fe165 O175 1.976 . S
Fe165 O179 1.996 . S
Fe165 O182 1.997 . S
O166 Fe165 2.002 . S
O166 C183 1.295 . S
O167 Fe162 1.997 . S
O167 C183 1.235 . S
O168 Fe162 2.002 . S
O168 C169 1.295 . S
C169 O168 1.295 . S
C169 O171 1.235 . S
C170 O175 1.287 . S
C170 O176 1.255 . S
O171 Fe163 1.997 . S
O171 C169 1.235 . S
C172 O178 1.287 . S
C172 O179 1.255 . S
O173 Fe162 1.976 . S
O173 C180 1.287 . S
O174 Fe163 1.996 . S
O174 C180 1.255 . S
O175 Fe165 1.976 . S
O175 C170 1.287 . S
O176 Fe162 1.996 . S
O176 C170 1.255 . S
C177 O181 1.295 . S
C177 O182 1.235 . S
O178 Fe163 1.976 . S
O178 C172 1.287 . S
O179 Fe165 1.996 . S
O179 C172 1.255 . S
C180 O173 1.287 . S
C180 O174 1.255 . S
O181 Fe163 2.002 . S
O181 C177 1.295 . S
O182 Fe165 1.997 . S
O182 C177 1.235 . S
C183 O166 1.295 . S
C183 O167 1.235 . S
H184 C190 0.930 . S
H185 C193 0.930 . S
H186 C194 0.930 . S
H187 C195 0.930 . S
H188 C198 0.930 . S
H189 C199 0.930 . S
C190 H184 0.930 . S
C190 C191 1.355 . S
C190 C192 1.415 . S
C191 C190 1.355 . S
C191 C193 1.419 . S
C192 C190 1.415 . S
C192 C197 1.425 . S
C192 C199 1.409 . S
C193 H185 0.930 . S
C193 C191 1.419 . S
C193 C194 1.362 . S
C194 H186 0.930 . S
C194 C193 1.362 . S
C194 C197 1.409 . S
C195 H187 0.930 . S
C195 C196 1.355 . S
C195 C197 1.415 . S
C196 C195 1.355 . S
C196 C198 1.419 . S
C197 C192 1.425 . S
C197 C194 1.409 . S
C197 C195 1.415 . S
C198 H188 0.930 . S
C198 C196 1.419 . S
C198 C199 1.362 . S
C199 H189 0.930 . S
C199 C192 1.409 . S
C199 C198 1.362 . S
H200 C206 0.930 . S
H201 C209 0.930 . S
H202 C210 0.930 . S
H203 C211 0.930 . S
H204 C214 0.930 . S
H205 C215 0.930 . S
C206 H200 0.930 . S
C206 C207 1.355 . S
C206 C208 1.415 . S
C207 C206 1.355 . S
C207 C209 1.419 . S
C208 C206 1.415 . S
C208 C213 1.425 . S
C208 C215 1.409 . S
C209 H201 0.930 . S
C209 C207 1.419 . S
C209 C210 1.362 . S
C210 H202 0.930 . S
C210 C209 1.362 . S
C210 C213 1.409 . S
C211 H203 0.930 . S
C211 C212 1.355 . S
C211 C213 1.415 . S
C212 C211 1.355 . S
C212 C214 1.419 . S
C213 C208 1.425 . S
C213 C210 1.409 . S
C213 C211 1.415 . S
C214 H204 0.930 . S
C214 C212 1.419 . S
C214 C215 1.362 . S
C215 H205 0.930 . S
C215 C208 1.409 . S
C215 C214 1.362 . S
H216 C222 0.930 . S
H217 C225 0.930 . S
H218 C226 0.930 . S
H219 C227 0.930 . S
H220 C230 0.930 . S
H221 C231 0.930 . S
C222 H216 0.930 . S
C222 C223 1.355 . S
C222 C224 1.415 . S
C223 C222 1.355 . S
C223 C225 1.419 . S
C224 C222 1.415 . S
C224 C229 1.425 . S
C224 C231 1.409 . S
C225 H217 0.930 . S
C225 C223 1.419 . S
C225 C226 1.362 . S
C226 H218 0.930 . S
C226 C225 1.362 . S
C226 C229 1.409 . S
C227 H219 0.930 . S
C227 C228 1.355 . S
C227 C229 1.415 . S
C228 C227 1.355 . S
C228 C230 1.419 . S
C229 C224 1.425 . S
C229 C226 1.409 . S
C229 C227 1.415 . S
C230 H220 0.930 . S
C230 C228 1.419 . S
C230 C231 1.362 . S
C231 H221 0.930 . S
C231 C224 1.409 . S
C231 C230 1.362 . S
H232 C238 0.930 . S
H233 C241 0.930 . S
H234 C242 0.930 . S
H235 C243 0.930 . S
H236 C246 0.930 . S
H237 C247 0.930 . S
C238 H232 0.930 . S
C238 C239 1.355 . S
C238 C240 1.415 . S
C239 C238 1.355 . S
C239 C241 1.419 . S
C240 C238 1.415 . S
C240 C245 1.425 . S
C240 C247 1.409 . S
C241 H233 0.930 . S
C241 C239 1.419 . S
C241 C242 1.362 . S
C242 H234 0.930 . S
C242 C241 1.362 . S
C242 C245 1.409 . S
C243 H235 0.930 . S
C243 C244 1.355 . S
C243 C245 1.415 . S
C244 C243 1.355 . S
C244 C246 1.419 . S
C245 C240 1.425 . S
C245 C242 1.409 . S
C245 C243 1.415 . S
C246 H236 0.930 . S
C246 C244 1.419 . S
C246 C247 1.362 . S
C247 H237 0.930 . S
C247 C240 1.409 . S
C247 C246 1.362 . S
H248 C254 0.930 . S
H249 C257 0.930 . S
H250 C258 0.930 . S
H251 C259 0.930 . S
H252 C262 0.930 . S
H253 C263 0.930 . S
C254 H248 0.930 . S
C254 C255 1.355 . S
C254 C256 1.415 . S
C255 C254 1.355 . S
C255 C257 1.419 . S
C256 C254 1.415 . S
C256 C261 1.425 . S
C256 C263 1.409 . S
C257 H249 0.930 . S
C257 C255 1.419 . S
C257 C258 1.362 . S
C258 H250 0.930 . S
C258 C257 1.362 . S
C258 C261 1.409 . S
C259 H251 0.930 . S
C259 C260 1.355 . S
C259 C261 1.415 . S
C260 C259 1.355 . S
C260 C262 1.419 . S
C261 C256 1.425 . S
C261 C258 1.409 . S
C261 C259 1.415 . S
C262 H252 0.930 . S
C262 C260 1.419 . S
C262 C263 1.362 . S
C263 H253 0.930 . S
C263 C256 1.409 . S
C263 C262 1.362 . S
H264 C270 0.930 . S
H265 C273 0.930 . S
H266 C274 0.930 . S
H267 C275 0.930 . S
H268 C278 0.930 . S
H269 C279 0.930 . S
C270 H264 0.930 . S
C270 C271 1.355 . S
C270 C272 1.415 . S
C271 C270 1.355 . S
C271 C273 1.419 . S
C272 C270 1.415 . S
C272 C277 1.425 . S
C272 C279 1.409 . S
C273 H265 0.930 . S
C273 C271 1.419 . S
C273 C274 1.362 . S
C274 H266 0.930 . S
C274 C273 1.362 . S
C274 C277 1.409 . S
C275 H267 0.930 . S
C275 C276 1.355 . S
C275 C277 1.415 . S
C276 C275 1.355 . S
C276 C278 1.419 . S
C277 C272 1.425 . S
C277 C274 1.409 . S
C277 C275 1.415 . S
C278 H268 0.930 . S
C278 C276 1.419 . S
C278 C279 1.362 . S
C279 H269 0.930 . S
C279 C272 1.409 . S
C279 C278 1.362 . S
H280 C286 0.930 . S
H281 C289 0.930 . S
H282 C290 0.930 . S
H283 C291 0.930 . S
H284 C294 0.930 . S
H285 C295 0.930 . S
C286 H280 0.930 . S
C286 C287 1.355 . S
C286 C288 1.415 . S
C287 C286 1.355 . S
C287 C289 1.419 . S
C288 C286 1.415 . S
C288 C293 1.425 . S
C288 C295 1.409 . S
C289 H281 0.930 . S
C289 C287 1.419 . S
C289 C290 1.362 . S
C290 H282 0.930 . S
C290 C289 1.362 . S
C290 C293 1.409 . S
C291 H283 0.930 . S
C291 C292 1.355 . S
C291 C293 1.415 . S
C292 C291 1.355 . S
C292 C294 1.419 . S
C293 C288 1.425 . S
C293 C290 1.409 . S
C293 C291 1.415 . S
C294 H284 0.930 . S
C294 C292 1.419 . S
C294 C295 1.362 . S
C295 H285 0.930 . S
C295 C288 1.409 . S
C295 C294 1.362 . S
H296 C302 0.930 . S
H297 C305 0.930 . S
H298 C306 0.930 . S
H299 C307 0.930 . S
H300 C310 0.930 . S
H301 C311 0.930 . S
C302 H296 0.930 . S
C302 C303 1.355 . S
C302 C304 1.415 . S
C303 C302 1.355 . S
C303 C305 1.419 . S
C304 C302 1.415 . S
C304 C309 1.425 . S
C304 C311 1.409 . S
C305 H297 0.930 . S
C305 C303 1.419 . S
C305 C306 1.362 . S
C306 H298 0.930 . S
C306 C305 1.362 . S
C306 C309 1.409 . S
C307 H299 0.930 . S
C307 C308 1.355 . S
C307 C309 1.415 . S
C308 C307 1.355 . S
C308 C310 1.419 . S
C309 C304 1.425 . S
C309 C306 1.409 . S
C309 C307 1.415 . S
C310 H300 0.930 . S
C310 C308 1.419 . S
C310 C311 1.362 . S
C311 H301 0.930 . S
C311 C304 1.409 . S
C311 C310 1.362 . S
H312 C318 0.930 . S
H313 C321 0.930 . S
H314 C322 0.930 . S
H315 C323 0.930 . S
H316 C326 0.930 . S
H317 C327 0.930 . S
C318 H312 0.930 . S
C318 C319 1.355 . S
C318 C320 1.415 . S
C319 C318 1.355 . S
C319 C321 1.419 . S
C320 C318 1.415 . S
C320 C325 1.425 . S
C320 C327 1.409 . S
C321 H313 0.930 . S
C321 C319 1.419 . S
C321 C322 1.362 . S
C322 H314 0.930 . S
C322 C321 1.362 . S
C322 C325 1.409 . S
C323 H315 0.930 . S
C323 C324 1.355 . S
C323 C325 1.415 . S
C324 C323 1.355 . S
C324 C326 1.419 . S
C325 C320 1.425 . S
C325 C322 1.409 . S
C325 C323 1.415 . S
C326 H316 0.930 . S
C326 C324 1.419 . S
C326 C327 1.362 . S
C327 H317 0.930 . S
C327 C320 1.409 . S
C327 C326 1.362 . S
H328 C334 0.930 . S
H329 C337 0.930 . S
H330 C338 0.930 . S
H331 C339 0.930 . S
H332 C342 0.930 . S
H333 C343 0.930 . S
C334 H328 0.930 . S
C334 C335 1.355 . S
C334 C336 1.415 . S
C335 C334 1.355 . S
C335 C337 1.419 . S
C336 C334 1.415 . S
C336 C341 1.425 . S
C336 C343 1.409 . S
C337 H329 0.930 . S
C337 C335 1.419 . S
C337 C338 1.362 . S
C338 H330 0.930 . S
C338 C337 1.362 . S
C338 C341 1.409 . S
C339 H331 0.930 . S
C339 C340 1.355 . S
C339 C341 1.415 . S
C340 C339 1.355 . S
C340 C342 1.419 . S
C341 C336 1.425 . S
C341 C338 1.409 . S
C341 C339 1.415 . S
C342 H332 0.930 . S
C342 C340 1.419 . S
C342 C343 1.362 . S
C343 H333 0.930 . S
C343 C336 1.409 . S
C343 C342 1.362 . S
H344 C350 0.930 . S
H345 C353 0.930 . S
H346 C354 0.930 . S
H347 C355 0.930 . S
H348 C358 0.930 . S
H349 C359 0.930 . S
C350 H344 0.930 . S
C350 C351 1.355 . S
C350 C352 1.415 . S
C351 C350 1.355 . S
C351 C353 1.419 . S
C352 C350 1.415 . S
C352 C357 1.425 . S
C352 C359 1.409 . S
C353 H345 0.930 . S
C353 C351 1.419 . S
C353 C354 1.362 . S
C354 H346 0.930 . S
C354 C353 1.362 . S
C354 C357 1.409 . S
C355 H347 0.930 . S
C355 C356 1.355 . S
C355 C357 1.415 . S
C356 C355 1.355 . S
C356 C358 1.419 . S
C357 C352 1.425 . S
C357 C354 1.409 . S
C357 C355 1.415 . S
C358 H348 0.930 . S
C358 C356 1.419 . S
C358 C359 1.362 . S
C359 H349 0.930 . S
C359 C352 1.409 . S
C359 C358 1.362 . S
H360 C366 0.930 . S
H361 C369 0.930 . S
H362 C370 0.930 . S
H363 C371 0.930 . S
H364 C374 0.930 . S
H365 C375 0.930 . S
C366 H360 0.930 . S
C366 C367 1.355 . S
C366 C368 1.415 . S
C367 C366 1.355 . S
C367 C369 1.419 . S
C368 C366 1.415 . S
C368 C373 1.425 . S
C368 C375 1.409 . S
C369 H361 0.930 . S
C369 C367 1.419 . S
C369 C370 1.362 . S
C370 H362 0.930 . S
C370 C369 1.362 . S
C370 C373 1.409 . S
C371 H363 0.930 . S
C371 C372 1.355 . S
C371 C373 1.415 . S
C372 C371 1.355 . S
C372 C374 1.419 . S
C373 C368 1.425 . S
C373 C370 1.409 . S
C373 C371 1.415 . S
C374 H364 0.930 . S
C374 C372 1.419 . S
C374 C375 1.362 . S
C375 H365 0.930 . S
C375 C368 1.409 . S
C375 C374 1.362 . S
H376 C382 0.930 . S
H377 C385 0.930 . S
H378 C386 0.930 . S
H379 C387 0.930 1_565 S
H380 C390 0.930 . S
H381 C391 0.930 . S
C382 H376 0.930 . S
C382 C383 1.355 . S
C382 C384 1.415 . S
C383 C382 1.355 . S
C383 C385 1.419 . S
C384 C382 1.415 . S
C384 C389 1.425 . S
C384 C391 1.409 1_565 S
C385 H377 0.930 . S
C385 C383 1.419 . S
C385 C386 1.362 . S
C386 H378 0.930 . S
C386 C385 1.362 . S
C386 C389 1.409 . S
C387 H379 0.930 1_545 S
C387 C388 1.355 . S
C387 C389 1.415 1_545 S
C388 C387 1.355 . S
C388 C390 1.419 . S
C389 C384 1.425 . S
C389 C386 1.409 . S
C389 C387 1.415 1_565 S
C390 H380 0.930 . S
C390 C388 1.419 . S
C390 C391 1.362 . S
C391 H381 0.930 . S
C391 C384 1.409 1_545 S
C391 C390 1.362 . S
H392 C398 0.930 . S
H393 C401 0.930 . S
H394 C402 0.930 . S
H395 C403 0.930 . S
H396 C406 0.930 . S
H397 C407 0.930 . S
C398 H392 0.930 . S
C398 C399 1.355 . S
C398 C400 1.415 . S
C399 C398 1.355 . S
C399 C401 1.419 . S
C400 C398 1.415 . S
C400 C405 1.425 . S
C400 C407 1.409 1_545 S
C401 H393 0.930 . S
C401 C399 1.419 . S
C401 C402 1.362 . S
C402 H394 0.930 . S
C402 C401 1.362 . S
C402 C405 1.409 . S
C403 H395 0.930 . S
C403 C404 1.355 . S
C403 C405 1.415 1_565 S
C404 C403 1.355 . S
C404 C406 1.419 . S
C405 C400 1.425 . S
C405 C402 1.409 . S
C405 C403 1.415 1_545 S
C406 H396 0.930 . S
C406 C404 1.419 . S
C406 C407 1.362 . S
C407 H397 0.930 . S
C407 C400 1.409 1_565 S
C407 C406 1.362 . S
H408 C414 0.930 . S
H409 C417 0.930 1_554 S
H410 C418 0.930 . S
H411 C419 0.930 . S
H412 C422 0.930 . S
H413 C423 0.930 . S
C414 H408 0.930 . S
C414 C415 1.355 . S
C414 C416 1.415 . S
C415 C414 1.355 . S
C415 C417 1.419 . S
C416 C414 1.415 . S
C416 C421 1.425 1_565 S
C416 C423 1.409 . S
C417 H409 0.930 1_556 S
C417 C415 1.419 . S
C417 C418 1.362 1_565 S
C418 H410 0.930 . S
C418 C417 1.362 1_545 S
C418 C421 1.409 . S
C419 H411 0.930 . S
C419 C420 1.355 . S
C419 C421 1.415 . S
C420 C419 1.355 . S
C420 C422 1.419 1_545 S
C421 C416 1.425 1_545 S
C421 C418 1.409 . S
C421 C419 1.415 . S
C422 H412 0.930 . S
C422 C420 1.419 1_565 S
C422 C423 1.362 . S
C423 H413 0.930 . S
C423 C416 1.409 . S
C423 C422 1.362 . S
H424 C430 0.930 . S
H425 C433 0.930 . S
H426 C434 0.930 . S
H427 C435 0.930 . S
H428 C438 0.930 . S
H429 C439 0.930 . S
C430 H424 0.930 . S
C430 C431 1.355 . S
C430 C432 1.415 . S
C431 C430 1.355 . S
C431 C433 1.419 . S
C432 C430 1.415 . S
C432 C437 1.425 1_545 S
C432 C439 1.409 . S
C433 H425 0.930 . S
C433 C431 1.419 . S
C433 C434 1.362 1_545 S
C434 H426 0.930 . S
C434 C433 1.362 1_565 S
C434 C437 1.409 . S
C435 H427 0.930 . S
C435 C436 1.355 . S
C435 C437 1.415 . S
C436 C435 1.355 . S
C436 C438 1.419 1_565 S
C437 C432 1.425 1_565 S
C437 C434 1.409 . S
C437 C435 1.415 . S
C438 H428 0.930 . S
C438 C436 1.419 1_545 S
C438 C439 1.362 . S
C439 H429 0.930 . S
C439 C432 1.409 . S
C439 C438 1.362 . S
H440 C446 0.930 . S
H441 C449 0.930 . S
H442 C450 0.930 . S
H443 C451 0.930 . S
H444 C454 0.930 . S
H445 C455 0.930 . S
C446 H440 0.930 . S
C446 C447 1.355 . S
C446 C448 1.415 . S
C447 C446 1.355 . S
C447 C449 1.419 . S
C448 C446 1.415 . S
C448 C453 1.425 . S
C448 C455 1.409 . S
C449 H441 0.930 . S
C449 C447 1.419 . S
C449 C450 1.362 . S
C450 H442 0.930 . S
C450 C449 1.362 . S
C450 C453 1.409 . S
C451 H443 0.930 . S
C451 C452 1.355 . S
C451 C453 1.415 . S
C452 C451 1.355 . S
C452 C454 1.419 . S
C453 C448 1.425 . S
C453 C450 1.409 . S
C453 C451 1.415 . S
C454 H444 0.930 . S
C454 C452 1.419 . S
C454 C455 1.362 . S
C455 H445 0.930 . S
C455 C448 1.409 . S
C455 C454 1.362 . S
H456 C462 0.930 . S
H457 C465 0.930 . S
H458 C466 0.930 . S
H459 C467 0.930 . S
H460 C470 0.930 . S
H461 C471 0.930 . S
C462 H456 0.930 . S
C462 C463 1.355 . S
C462 C464 1.415 . S
C463 C462 1.355 . S
C463 C465 1.419 . S
C464 C462 1.415 . S
C464 C469 1.425 . S
C464 C471 1.409 . S
C465 H457 0.930 . S
C465 C463 1.419 . S
C465 C466 1.362 . S
C466 H458 0.930 . S
C466 C465 1.362 . S
C466 C469 1.409 . S
C467 H459 0.930 . S
C467 C468 1.355 . S
C467 C469 1.415 . S
C468 C467 1.355 . S
C468 C470 1.419 . S
C469 C464 1.425 . S
C469 C466 1.409 . S
C469 C467 1.415 . S
C470 H460 0.930 . S
C470 C468 1.419 . S
C470 C471 1.362 . S
C471 H461 0.930 . S
C471 C464 1.409 . S
C471 C470 1.362 . S
H472 C478 0.930 . S
H473 C481 0.930 . S
H474 C482 0.930 . S
H475 C483 0.930 . S
H476 C486 0.930 . S
H477 C487 0.930 . S
C478 H472 0.930 . S
C478 C479 1.355 . S
C478 C480 1.415 . S
C479 C478 1.355 . S
C479 C481 1.419 . S
C480 C478 1.415 . S
C480 C485 1.425 . S
C480 C487 1.409 . S
C481 H473 0.930 . S
C481 C479 1.419 . S
C481 C482 1.362 . S
C482 H474 0.930 . S
C482 C481 1.362 . S
C482 C485 1.409 . S
C483 H475 0.930 . S
C483 C484 1.355 . S
C483 C485 1.415 . S
C484 C483 1.355 . S
C484 C486 1.419 . S
C485 C480 1.425 . S
C485 C482 1.409 . S
C485 C483 1.415 . S
C486 H476 0.930 . S
C486 C484 1.419 . S
C486 C487 1.362 . S
C487 H477 0.930 . S
C487 C480 1.409 . S
C487 C486 1.362 . S
H488 C494 0.930 . S
H489 C497 0.930 . S
H490 C498 0.930 . S
H491 C499 0.930 . S
H492 C502 0.930 . S
H493 C503 0.930 . S
C494 H488 0.930 . S
C494 C495 1.355 . S
C494 C496 1.415 . S
C495 C494 1.355 . S
C495 C497 1.419 . S
C496 C494 1.415 . S
C496 C501 1.425 . S
C496 C503 1.409 . S
C497 H489 0.930 . S
C497 C495 1.419 . S
C497 C498 1.362 . S
C498 H490 0.930 . S
C498 C497 1.362 . S
C498 C501 1.409 . S
C499 H491 0.930 . S
C499 C500 1.355 . S
C499 C501 1.415 . S
C500 C499 1.355 . S
C500 C502 1.419 . S
C501 C496 1.425 . S
C501 C498 1.409 . S
C501 C499 1.415 . S
C502 H492 0.930 . S
C502 C500 1.419 . S
C502 C503 1.362 . S
C503 H493 0.930 . S
C503 C496 1.409 . S
C503 C502 1.362 . S
H504 C510 0.930 . S
H505 C513 0.930 . S
H506 C514 0.930 . S
H507 C515 0.930 . S
H508 C518 0.930 . S
H509 C519 0.930 . S
C510 H504 0.930 . S
C510 C511 1.355 . S
C510 C512 1.415 . S
C511 C510 1.355 . S
C511 C513 1.419 . S
C512 C510 1.415 . S
C512 C517 1.425 . S
C512 C519 1.409 . S
C513 H505 0.930 . S
C513 C511 1.419 . S
C513 C514 1.362 . S
C514 H506 0.930 . S
C514 C513 1.362 . S
C514 C517 1.409 . S
C515 H507 0.930 . S
C515 C516 1.355 . S
C515 C517 1.415 . S
C516 C515 1.355 . S
C516 C518 1.419 . S
C517 C512 1.425 . S
C517 C514 1.409 . S
C517 C515 1.415 . S
C518 H508 0.930 . S
C518 C516 1.419 . S
C518 C519 1.362 . S
C519 H509 0.930 . S
C519 C512 1.409 . S
C519 C518 1.362 . S
H520 C526 0.930 . S
H521 C529 0.930 . S
H522 C530 0.930 . S
H523 C531 0.930 . S
H524 C534 0.930 . S
H525 C535 0.930 . S
C526 H520 0.930 . S
C526 C527 1.355 . S
C526 C528 1.415 . S
C527 C526 1.355 . S
C527 C529 1.419 . S
C528 C526 1.415 . S
C528 C533 1.425 . S
C528 C535 1.409 . S
C529 H521 0.930 . S
C529 C527 1.419 . S
C529 C530 1.362 . S
C530 H522 0.930 . S
C530 C529 1.362 . S
C530 C533 1.409 . S
C531 H523 0.930 . S
C531 C532 1.355 . S
C531 C533 1.415 . S
C532 C531 1.355 . S
C532 C534 1.419 . S
C533 C528 1.425 . S
C533 C530 1.409 . S
C533 C531 1.415 . S
C534 H524 0.930 . S
C534 C532 1.419 . S
C534 C535 1.362 . S
C535 H525 0.930 . S
C535 C528 1.409 . S
C535 C534 1.362 . S
H536 C542 0.930 . S
H537 C545 0.930 . S
H538 C546 0.930 . S
H539 C547 0.930 . S
H540 C550 0.930 . S
H541 C551 0.930 . S
C542 H536 0.930 . S
C542 C543 1.355 . S
C542 C544 1.415 . S
C543 C542 1.355 . S
C543 C545 1.419 . S
C544 C542 1.415 . S
C544 C549 1.425 . S
C544 C551 1.409 . S
C545 H537 0.930 . S
C545 C543 1.419 . S
C545 C546 1.362 . S
C546 H538 0.930 . S
C546 C545 1.362 . S
C546 C549 1.409 . S
C547 H539 0.930 . S
C547 C548 1.355 . S
C547 C549 1.415 . S
C548 C547 1.355 . S
C548 C550 1.419 . S
C549 C544 1.425 . S
C549 C546 1.409 . S
C549 C547 1.415 . S
C550 H540 0.930 . S
C550 C548 1.419 . S
C550 C551 1.362 . S
C551 H541 0.930 . S
C551 C544 1.409 . S
C551 C550 1.362 . S
H552 C558 0.930 . S
H553 C561 0.930 . S
H554 C562 0.930 . S
H555 C563 0.930 . S
H556 C566 0.930 . S
H557 C567 0.930 . S
C558 H552 0.930 . S
C558 C559 1.355 . S
C558 C560 1.415 . S
C559 C558 1.355 . S
C559 C561 1.419 . S
C560 C558 1.415 . S
C560 C565 1.425 . S
C560 C567 1.409 . S
C561 H553 0.930 . S
C561 C559 1.419 . S
C561 C562 1.362 . S
C562 H554 0.930 . S
C562 C561 1.362 . S
C562 C565 1.409 . S
C563 H555 0.930 . S
C563 C564 1.355 . S
C563 C565 1.415 . S
C564 C563 1.355 . S
C564 C566 1.419 . S
C565 C560 1.425 . S
C565 C562 1.409 . S
C565 C563 1.415 . S
C566 H556 0.930 . S
C566 C564 1.419 . S
C566 C567 1.362 . S
C567 H557 0.930 . S
C567 C560 1.409 . S
C567 C566 1.362 . S
C191 C4 1.541 . S
C196 C139 1.516 . S
C212 C103 1.512 . S
C207 C16 1.536 . S
C228 C126 1.544 . S
C223 C28 1.534 . S
C244 C114 1.524 . S
C239 C40 1.506 . S
C260 C183 1.514 . S
C255 C52 1.539 . S
C276 C147 1.537 . S
C271 C64 1.531 . S
C287 C76 1.532 . S
C292 C170 1.544 . S
C308 C158 1.546 . S
C303 C88 1.540 . S
C319 C9 1.500 . S
C324 C180 1.525 . S
C340 C150 1.522 . S
C335 C21 1.510 . S
C351 C33 1.546 . S
C356 C169 1.526 . S
C367 C45 1.544 . S
C372 C155 1.527 . S
C388 C136 1.528 . S
C383 C57 1.468 . S
C399 C69 1.464 . S
C404 C106 1.529 . S
C420 C125 1.534 . S
C415 C81 1.530 . S
C436 C111 1.527 . S
C431 C93 1.543 . S
C452 C161 1.528 . S
C447 C6 1.486 . S
C468 C177 1.499 . S
C463 C18 1.524 . S
C479 C30 1.474 . S
C484 C148 1.498 . S
C500 C172 1.491 . S
C495 C42 1.491 . S
C516 C117 1.530 . S
C511 C54 1.490 . S
C527 C66 1.525 . S
C532 C133 1.499 . S
C543 C78 1.473 . S
C548 C104 1.498 . S
C559 C90 1.476 . S
C564 C128 1.497 . S
