# Generated by pormake.
# Topology pyr, (3,6)-cn, num edge types: 1
# Building blocks:
#     Node 0, Type 0, BuildingBlock: MIDCAF_clean_linker_0, # of connection points: 3
#     Node 1, Type 0, BuildingBlock: MIDCAF_clean_linker_0, # of connection points: 3
#     Node 2, Type 0, BuildingBlock: MIDCAF_clean_linker_0, # of connection points: 3
#     Node 3, Type 0, BuildingBlock: MIDCAF_clean_linker_0, # of connection points: 3
#     Node 4, Type 0, BuildingBlock: MIDCAF_clean_linker_0, # of connection points: 3
#     Node 5, Type 0, BuildingBlock: MIDCAF_clean_linker_0, # of connection points: 3
#     Node 6, Type 0, BuildingBlock: MIDCAF_clean_linker_0, # of connection points: 3
#     Node 7, Type 0, BuildingBlock: MIDCAF_clean_linker_0, # of connection points: 3
#     Node 8, Type 1, BuildingBlock: BETGAK_clean_sbu_0, # of connection points: 6
#     Node 9, Type 1, BuildingBlock: BETGAK_clean_sbu_0, # of connection points: 6
#     Node 10, Type 1, BuildingBlock: BETGAK_clean_sbu_0, # of connection points: 6
#     Node 11, Type 1, BuildingBlock: BETGAK_clean_sbu_0, # of connection points: 6
#     Edge 12, Type (0, 1), BuildingBlock: KIFKEQ_clean_linker_1, # of connection points: 2
#     Edge 13, Type (0, 1), BuildingBlock: KIFKEQ_clean_linker_1, # of connection points: 2
#     Edge 14, Type (0, 1), BuildingBlock: KIFKEQ_clean_linker_1, # of connection points: 2
#     Edge 15, Type (0, 1), BuildingBlock: KIFKEQ_clean_linker_1, # of connection points: 2
#     Edge 16, Type (0, 1), BuildingBlock: KIFKEQ_clean_linker_1, # of connection points: 2
#     Edge 17, Type (0, 1), BuildingBlock: KIFKEQ_clean_linker_1, # of connection points: 2
#     Edge 18, Type (0, 1), BuildingBlock: KIFKEQ_clean_linker_1, # of connection points: 2
#     Edge 19, Type (0, 1), BuildingBlock: KIFKEQ_clean_linker_1, # of connection points: 2
#     Edge 20, Type (0, 1), BuildingBlock: KIFKEQ_clean_linker_1, # of connection points: 2
#     Edge 21, Type (0, 1), BuildingBlock: KIFKEQ_clean_linker_1, # of connection points: 2
#     Edge 22, Type (0, 1), BuildingBlock: KIFKEQ_clean_linker_1, # of connection points: 2
#     Edge 23, Type (0, 1), BuildingBlock: KIFKEQ_clean_linker_1, # of connection points: 2
#     Edge 24, Type (0, 1), BuildingBlock: KIFKEQ_clean_linker_1, # of connection points: 2
#     Edge 25, Type (0, 1), BuildingBlock: KIFKEQ_clean_linker_1, # of connection points: 2
#     Edge 26, Type (0, 1), BuildingBlock: KIFKEQ_clean_linker_1, # of connection points: 2
#     Edge 27, Type (0, 1), BuildingBlock: KIFKEQ_clean_linker_1, # of connection points: 2
#     Edge 28, Type (0, 1), BuildingBlock: KIFKEQ_clean_linker_1, # of connection points: 2
#     Edge 29, Type (0, 1), BuildingBlock: KIFKEQ_clean_linker_1, # of connection points: 2
#     Edge 30, Type (0, 1), BuildingBlock: KIFKEQ_clean_linker_1, # of connection points: 2
#     Edge 31, Type (0, 1), BuildingBlock: KIFKEQ_clean_linker_1, # of connection points: 2
#     Edge 32, Type (0, 1), BuildingBlock: KIFKEQ_clean_linker_1, # of connection points: 2
#     Edge 33, Type (0, 1), BuildingBlock: KIFKEQ_clean_linker_1, # of connection points: 2
#     Edge 34, Type (0, 1), BuildingBlock: KIFKEQ_clean_linker_1, # of connection points: 2
#     Edge 35, Type (0, 1), BuildingBlock: KIFKEQ_clean_linker_1, # of connection points: 2
# Relax obj value: 0.095
# Max RMSD: 0.121
# Mean RMSD: 0.057
data_MOF--net-pyr--node1-BETGAK_clean_sbu_0--node2-MIDCAF_clean_linker_0--edge1-KIFKEQ_clean_linker_1
_symmetry_space_group_name_H-M    P1
_symmetry_Int_Tables_number       1
_symmetry_cell_setting            triclinic
loop_
_symmetry_equiv_pos_as_xyz
'x, y, z'
_cell_length_a     46.85241
_cell_length_b     49.635246
_cell_length_c     45.798609
_cell_angle_alpha  91.209756
_cell_angle_beta   88.828508
_cell_angle_gamma 99.193287
loop_
_atom_site_label
_atom_site_type_symbol
_atom_site_fract_x
_atom_site_fract_y
_atom_site_fract_z
_atom_type_partial_charge
C0 C 0.28903 0.26919 0.33627 0.0
C1 C 0.29125 0.2424 0.34363 0.0
C2 C 0.31359 0.22991 0.33135 0.0
C3 C 0.33199 0.24331 0.30993 0.0
H4 H 0.37693 0.22302 0.2441 0.0
H5 H 0.40241 0.19197 0.21812 0.0
H6 H 0.42811 0.25252 0.15185 0.0
H7 H 0.39983 0.2833 0.17748 0.0
H8 H 0.34177 0.32855 0.17566 0.0
H9 H 0.3108 0.35829 0.15452 0.0
H10 H 0.2682 0.36451 0.23835 0.0
H11 H 0.29936 0.33637 0.25942 0.0
H12 H 0.30404 0.30277 0.30875 0.0
H13 H 0.27182 0.27905 0.34557 0.0
H14 H 0.31542 0.20911 0.33673 0.0
H15 H 0.34777 0.23246 0.29933 0.0
N16 N 0.35968 0.26676 0.2572 0.0
N17 N 0.35712 0.2947 0.21665 0.0
N18 N 0.33125 0.30111 0.26007 0.0
C19 C 0.36797 0.27372 0.22937 0.0
C20 C 0.33868 0.30868 0.23231 0.0
C21 C 0.34145 0.28032 0.27272 0.0
C22 C 0.38593 0.25587 0.21292 0.0
C23 C 0.38797 0.23 0.22398 0.0
C24 C 0.40325 0.21197 0.20897 0.0
C25 C 0.41803 0.21915 0.18247 0.0
C26 C 0.41674 0.24552 0.17173 0.0
C27 C 0.40063 0.26347 0.18657 0.0
C28 C 0.32306 0.32951 0.2192 0.0
C29 C 0.3261 0.33662 0.18961 0.0
C30 C 0.30811 0.35355 0.17746 0.0
C31 C 0.28653 0.36369 0.19454 0.0
C32 C 0.28456 0.35754 0.22437 0.0
C33 C 0.30254 0.34097 0.23647 0.0
C34 C 0.32808 0.26928 0.30049 0.0
C35 C 0.30745 0.28265 0.3151 0.0
C36 C 0.2148 0.93016 0.58916 0.0
C37 C 0.20088 0.91527 0.56568 0.0
C38 C 0.20704 0.88938 0.5582 0.0
C39 C 0.22563 0.87769 0.57534 0.0
H40 H 0.26863 0.8183 0.57327 0.0
H41 H 0.29164 0.78379 0.54775 0.0
H42 H 0.35253 0.78615 0.61746 0.0
H43 H 0.33003 0.82106 0.64333 0.0
H44 H 0.34599 0.88388 0.67128 0.0
H45 H 0.37186 0.91061 0.71041 0.0
H46 H 0.29607 0.94659 0.73235 0.0
H47 H 0.27002 0.92044 0.6923 0.0
H48 H 0.2426 0.92997 0.62513 0.0
H49 H 0.20962 0.94995 0.59576 0.0
H50 H 0.19596 0.87759 0.54043 0.0
H51 H 0.22942 0.85724 0.56972 0.0
N52 N 0.26542 0.85582 0.60954 0.0
N53 N 0.29903 0.85959 0.64689 0.0
N54 N 0.26957 0.89311 0.64188 0.0
C55 C 0.28621 0.84569 0.62359 0.0
C56 C 0.29041 0.8832 0.65626 0.0
C57 C 0.25714 0.87946 0.61838 0.0
C58 C 0.29765 0.82246 0.61036 0.0
C59 C 0.28677 0.8114 0.58344 0.0
C60 C 0.29988 0.79184 0.56865 0.0
C61 C 0.32368 0.78301 0.58079 0.0
C62 C 0.33413 0.79321 0.60794 0.0
C63 C 0.32119 0.81292 0.62271 0.0
C64 C 0.30595 0.8998 0.67929 0.0
C65 C 0.33494 0.89778 0.6841 0.0
C66 C 0.34991 0.91344 0.70593 0.0
C67 C 0.33588 0.93083 0.72353 0.0
C68 C 0.30722 0.93367 0.71829 0.0
C69 C 0.29237 0.91845 0.69587 0.0
C70 C 0.23803 0.89186 0.60009 0.0
C71 C 0.23309 0.91844 0.60642 0.0
C72 C 0.6517 0.26796 0.90528 0.0
C73 C 0.62458 0.25321 0.89729 0.0
C74 C 0.60985 0.26485 0.87516 0.0
C75 C 0.62176 0.28989 0.86173 0.0
H76 H 0.61433 0.34988 0.78954 0.0
H77 H 0.59469 0.37138 0.74873 0.0
H78 H 0.66372 0.44 0.75626 0.0
H79 H 0.68368 0.41788 0.79602 0.0
H80 H 0.73929 0.41664 0.84196 0.0
H81 H 0.78398 0.43785 0.86629 0.0
H82 H 0.77073 0.37535 0.93117 0.0
H83 H 0.72687 0.35388 0.90692 0.0
H84 H 0.68433 0.30299 0.89941 0.0
H85 H 0.66393 0.2606 0.92236 0.0
H86 H 0.58911 0.25443 0.8678 0.0
H87 H 0.60958 0.29778 0.84495 0.0
N88 N 0.65064 0.34355 0.83358 0.0
N89 N 0.68911 0.38087 0.83486 0.0
N90 N 0.68749 0.34524 0.8681 0.0
C91 C 0.66383 0.36822 0.8224 0.0
C92 C 0.70116 0.36958 0.85778 0.0
C93 C 0.66244 0.33181 0.85657 0.0
C94 C 0.65095 0.3817 0.79677 0.0
C95 C 0.62547 0.36953 0.78249 0.0
C96 C 0.61392 0.38228 0.75878 0.0
C97 C 0.62706 0.40808 0.74801 0.0
C98 C 0.65254 0.42017 0.76257 0.0
C99 C 0.66415 0.40735 0.78607 0.0
C100 C 0.7289 0.38334 0.8722 0.0
C101 C 0.74587 0.40728 0.86133 0.0
C102 C 0.77168 0.41947 0.87528 0.0
C103 C 0.78115 0.40848 0.90092 0.0
C104 C 0.76418 0.38467 0.91174 0.0
C105 C 0.73883 0.37227 0.8976 0.0
C106 C 0.64889 0.30454 0.86991 0.0
C107 C 0.66347 0.29285 0.89202 0.0
C108 C 0.77531 0.65796 0.42775 0.0
C109 C 0.75992 0.6328 0.41776 0.0
C110 C 0.77195 0.62008 0.39355 0.0
C111 C 0.79817 0.63209 0.37995 0.0
H112 H 0.85917 0.62252 0.31183 0.0
H113 H 0.87858 0.60107 0.26942 0.0
H114 H 0.94604 0.67083 0.26072 0.0
H115 H 0.927 0.69182 0.30414 0.0
H116 H 0.92753 0.74626 0.35592 0.0
H117 H 0.94682 0.79084 0.37779 0.0
H118 H 0.88135 0.77807 0.44592 0.0
H119 H 0.86196 0.7343 0.42399 0.0
H120 H 0.81214 0.68924 0.42295 0.0
H121 H 0.76698 0.66896 0.44581 0.0
H122 H 0.76132 0.60056 0.3852 0.0
H123 H 0.80647 0.62156 0.36149 0.0
N124 N 0.85339 0.65962 0.35181 0.0
N125 N 0.89139 0.69723 0.35028 0.0
N126 N 0.85477 0.69529 0.38646 0.0
C127 C 0.87846 0.67246 0.33879 0.0
C128 C 0.87963 0.70882 0.37432 0.0
C129 C 0.84132 0.67088 0.37567 0.0
C130 C 0.89116 0.65928 0.31199 0.0
C131 C 0.8782 0.63346 0.30104 0.0
C132 C 0.8894 0.62107 0.2761 0.0
C133 C 0.91413 0.63386 0.26046 0.0
C134 C 0.92726 0.65967 0.27164 0.0
C135 C 0.91609 0.67203 0.29678 0.0
C136 C 0.89288 0.73621 0.38775 0.0
C137 C 0.91723 0.75291 0.37557 0.0
C138 C 0.92844 0.77864 0.38835 0.0
C139 C 0.91575 0.78876 0.41382 0.0
C140 C 0.89165 0.7718 0.4261 0.0
C141 C 0.88052 0.74624 0.41342 0.0
C142 C 0.81342 0.65728 0.39004 0.0
C143 C 0.80144 0.66986 0.41428 0.0
C144 C 0.61714 0.83986 0.84827 0.0
C145 C 0.61683 0.84159 0.87894 0.0
C146 C 0.6307 0.8231 0.89429 0.0
C147 C 0.64586 0.80458 0.8793 0.0
H148 H 0.6967 0.73613 0.88544 0.0
H149 H 0.72793 0.70638 0.90648 0.0
H150 H 0.76789 0.69737 0.82204 0.0
H151 H 0.73747 0.72689 0.80102 0.0
H152 H 0.72807 0.76069 0.74861 0.0
H153 H 0.75809 0.78459 0.71017 0.0
H154 H 0.71881 0.85641 0.72714 0.0
H155 H 0.68863 0.83267 0.76557 0.0
H156 H 0.63251 0.82157 0.80973 0.0
H157 H 0.60606 0.85305 0.83558 0.0
H158 H 0.63098 0.82373 0.91792 0.0
H159 H 0.65728 0.79151 0.89178 0.0
N160 N 0.67949 0.76791 0.84448 0.0
N161 N 0.70585 0.76315 0.80096 0.0
N162 N 0.67505 0.79565 0.8043 0.0
C163 C 0.69874 0.75507 0.82867 0.0
C164 C 0.69427 0.78336 0.78862 0.0
C165 C 0.66719 0.78809 0.83203 0.0
C166 C 0.7146 0.73436 0.84156 0.0
C167 C 0.7119 0.7276 0.8713 0.0
C168 C 0.72978 0.71058 0.88335 0.0
C169 C 0.75035 0.69961 0.86586 0.0
C170 C 0.75207 0.70527 0.83598 0.0
C171 C 0.73457 0.72242 0.82403 0.0
C172 C 0.70646 0.79498 0.76067 0.0
C173 C 0.7252 0.78132 0.74364 0.0
C174 C 0.74228 0.79492 0.72147 0.0
C175 C 0.74103 0.82243 0.71611 0.0
C176 C 0.72036 0.83526 0.73117 0.0
C177 C 0.70305 0.82159 0.75313 0.0
C178 C 0.64759 0.80416 0.84861 0.0
C179 C 0.63226 0.82153 0.83339 0.0
C180 C 0.71657 0.12982 0.34815 0.0
C181 C 0.69487 0.14157 0.33523 0.0
C182 C 0.69168 0.16858 0.34186 0.0
C183 C 0.71 0.18385 0.3615 0.0
H184 H 0.70118 0.2375 0.42293 0.0
H185 H 0.67563 0.26697 0.45281 0.0
H186 H 0.74737 0.28256 0.51177 0.0
H187 H 0.77336 0.25243 0.48197 0.0
H188 H 0.7895 0.19015 0.49629 0.0
H189 H 0.81913 0.16355 0.52382 0.0
H190 H 0.83395 0.11771 0.44519 0.0
H191 H 0.80546 0.14422 0.41775 0.0
H192 H 0.75113 0.13532 0.37819 0.0
H193 H 0.71936 0.10901 0.34282 0.0
H194 H 0.67542 0.17806 0.33131 0.0
H195 H 0.70696 0.20466 0.36639 0.0
N196 N 0.7405 0.21016 0.40983 0.0
N197 N 0.77121 0.20866 0.44916 0.0
N198 N 0.76744 0.17475 0.41265 0.0
C199 C 0.75212 0.22124 0.43503 0.0
C200 C 0.77899 0.18549 0.43787 0.0
C201 C 0.74822 0.18696 0.39849 0.0
C202 C 0.73924 0.24263 0.45021 0.0
C203 C 0.71179 0.24733 0.44204 0.0
C204 C 0.69692 0.26376 0.45938 0.0
C205 C 0.70938 0.27606 0.48487 0.0
C206 C 0.73733 0.27261 0.49244 0.0
C207 C 0.75216 0.25572 0.47528 0.0
C208 C 0.79588 0.16955 0.45484 0.0
C209 C 0.79899 0.17422 0.48506 0.0
C210 C 0.81516 0.1587 0.50094 0.0
C211 C 0.82805 0.13844 0.48664 0.0
C212 C 0.82333 0.13268 0.45686 0.0
C213 C 0.80758 0.14828 0.44101 0.0
C214 C 0.73157 0.17214 0.37493 0.0
C215 C 0.73486 0.14503 0.36798 0.0
C216 C 0.26408 0.64189 0.18048 0.0
C217 C 0.2556 0.65183 0.15373 0.0
C218 C 0.2743 0.67407 0.1416 0.0
C219 C 0.29996 0.68597 0.15557 0.0
H220 H 0.35024 0.75873 0.15955 0.0
H221 H 0.37017 0.80129 0.13666 0.0
H222 H 0.44866 0.804 0.18506 0.0
H223 H 0.4286 0.7605 0.20778 0.0
H224 H 0.42589 0.70608 0.26106 0.0
H225 H 0.44558 0.68406 0.30209 0.0
H226 H 0.3681 0.62453 0.30613 0.0
H227 H 0.34871 0.64587 0.26473 0.0
H228 H 0.29528 0.64555 0.21499 0.0
H229 H 0.25046 0.62509 0.19105 0.0
H230 H 0.2694 0.68224 0.12089 0.0
H231 H 0.31336 0.70295 0.14505 0.0
N232 N 0.34955 0.71435 0.18694 0.0
N233 N 0.38605 0.71616 0.22184 0.0
N234 N 0.34766 0.67876 0.22026 0.0
C235 C 0.37436 0.72791 0.19878 0.0
C236 C 0.37281 0.69147 0.23295 0.0
C237 C 0.33591 0.68996 0.19708 0.0
C238 C 0.38758 0.75544 0.18584 0.0
C239 C 0.37183 0.76816 0.16556 0.0
C240 C 0.38334 0.79315 0.15236 0.0
C241 C 0.41137 0.80696 0.15857 0.0
C242 C 0.42718 0.79435 0.17903 0.0
C243 C 0.41552 0.76923 0.19244 0.0
C244 C 0.38538 0.67815 0.25889 0.0
C245 C 0.41292 0.68825 0.27047 0.0
C246 C 0.42438 0.67545 0.2942 0.0
C247 C 0.40863 0.65229 0.30802 0.0
C248 C 0.38104 0.64235 0.29664 0.0
C249 C 0.36986 0.65474 0.27255 0.0
C250 C 0.30839 0.6762 0.18234 0.0
C251 C 0.28995 0.65377 0.19445 0.0
C252 C 0.14157 0.28865 0.6318 0.0
C253 C 0.11678 0.27224 0.64354 0.0
C254 C 0.10371 0.28282 0.66853 0.0
C255 C 0.11514 0.30846 0.68132 0.0
H256 H 0.10372 0.37082 0.75062 0.0
H257 H 0.08408 0.39213 0.79322 0.0
H258 H 0.15922 0.4554 0.7928 0.0
H259 H 0.17752 0.43483 0.7497 0.0
H260 H 0.22974 0.43591 0.69996 0.0
H261 H 0.27487 0.4571 0.67636 0.0
H262 H 0.26263 0.39554 0.60774 0.0
H263 H 0.21753 0.37509 0.63069 0.0
H264 H 0.17205 0.3256 0.63442 0.0
H265 H 0.15223 0.28205 0.61236 0.0
H266 H 0.08482 0.27107 0.67871 0.0
H267 H 0.10446 0.31549 0.70054 0.0
N268 N 0.14185 0.3633 0.70733 0.0
N269 N 0.18 0.40075 0.70609 0.0
N270 N 0.17826 0.36551 0.67091 0.0
C271 C 0.15495 0.38788 0.71908 0.0
C272 C 0.19183 0.38978 0.68194 0.0
C273 C 0.15346 0.3519 0.68312 0.0
C274 C 0.14243 0.40081 0.74608 0.0
C275 C 0.11598 0.3894 0.75954 0.0
C276 C 0.10471 0.40181 0.78457 0.0
C277 C 0.11946 0.42618 0.79772 0.0
C278 C 0.1461 0.43728 0.78407 0.0
C279 C 0.15709 0.4251 0.75893 0.0
C280 C 0.21957 0.40359 0.6675 0.0
C281 C 0.23657 0.42697 0.67974 0.0
C282 C 0.26278 0.43906 0.6662 0.0
C283 C 0.27299 0.42829 0.63984 0.0
C284 C 0.25577 0.40501 0.62762 0.0
C285 C 0.2297 0.39299 0.6411 0.0
C286 C 0.14012 0.32459 0.66966 0.0
C287 C 0.15294 0.31411 0.64453 0.0
La288 La 0.03013 0.03855 0.4994 0.0
La289 La 1.00031 1.02318 0.55813 0.0
C290 C 0.04846 0.06159 0.45301 0.0
C291 C 0.0732 0.08314 0.44645 0.0
C292 C 0.10089 0.07635 0.44133 0.0
C293 C 0.12446 0.09661 0.43586 0.0
C294 C 0.12098 0.12418 0.43529 0.0
C295 C 0.09329 0.13102 0.44051 0.0
C296 C 0.06961 0.11068 0.44591 0.0
C297 C 0.05961 1.01608 0.5367 0.0
C298 C 0.0371 0.0828 0.55352 0.0
C299 C 0.98301 0.99937 0.60429 0.0
C300 C 0.95891 0.97712 0.61046 0.0
C301 C 0.93003 0.9816 0.6094 0.0
C302 C 0.90737 0.96049 0.61518 0.0
C303 C 0.91312 0.93462 0.6224 0.0
C304 C 0.94185 0.92991 0.62306 0.0
C305 C 0.96459 0.951 0.61701 0.0
C306 C 0.97154 0.04744 0.52189 0.0
C307 C 0.99298 0.97922 0.50372 0.0
O308 O 0.05511 0.03826 0.46118 0.0
O309 O 0.02711 0.06884 0.46874 0.0
O310 O 0.06227 1.01299 0.50873 0.0
O311 O 0.04298 0.03258 0.54248 0.0
O312 O 0.04017 0.07773 0.52495 0.0
O313 O 0.02507 0.06314 0.57141 0.0
O314 O 0.97573 1.02263 0.5967 0.0
O315 O 1.00453 0.9928 0.58828 0.0
O316 O 0.96797 0.04855 0.54997 0.0
O317 O 0.98748 0.03033 0.51535 0.0
O318 O 0.98987 0.98424 0.53228 0.0
O319 O 1.00519 0.99882 0.48593 0.0
H320 H 0.10444 0.05531 0.44141 0.0
H321 H 0.1453 0.09049 0.43128 0.0
H322 H 0.08988 0.15209 0.44043 0.0
H323 H 0.04853 0.11654 0.44975 0.0
H324 H 0.92481 1.00147 0.6044 0.0
H325 H 0.88536 0.96465 0.61508 0.0
H326 H 0.94666 0.91004 0.62867 0.0
H327 H 0.98662 0.94698 0.61775 0.0
La328 La 0.54038 0.03313 0.04449 0.0
La329 La 0.49256 0.03093 1.0069 0.0
C330 C 0.58637 0.0528 0.06817 0.0
C331 C 0.58832 0.06404 0.09778 0.0
C332 C 0.57497 0.04849 0.12103 0.0
C333 C 0.57593 0.0595 0.14904 0.0
C334 C 0.59041 0.08601 0.15409 0.0
C335 C 0.60114 0.10256 0.13069 0.0
C336 C 0.60013 0.09152 0.10249 0.0
C337 C 0.50389 0.98937 0.06273 0.0
C338 C 0.49201 0.0657 0.06593 0.0
C339 C 0.44673 1.02249 0.9797 0.0
C340 C 0.44336 1.00532 0.95324 0.0
C341 C 0.44433 1.01779 0.926 0.0
C342 C 0.44548 1.00233 0.90053 0.0
C343 C 0.44508 0.97408 0.90194 0.0
C344 C 0.44534 0.96167 0.92906 0.0
C345 C 0.44454 0.97719 0.95458 0.0
C346 C 0.53814 0.06759 0.99017 0.0
C347 C 0.53834 0.99452 0.98939 0.0
O348 O 0.5778 1.02646 0.06565 0.0
O349 O 0.57313 0.06665 0.05041 0.0
O350 O 0.52846 0.99902 0.07421 0.0
O351 O 0.49968 1.00493 0.04186 0.0
O352 O 0.51537 0.05609 0.07363 0.0
O353 O 0.4796 0.05864 0.04066 0.0
O354 O 0.4653 0.04491 0.97698 0.0
O355 O 0.45014 1.00993 1.0039 0.0
O356 O 0.52269 0.05032 0.97292 0.0
O357 O 0.52779 0.06281 1.01569 0.0
O358 O 0.51102 0.99725 0.98713 0.0
O359 O 0.55539 1.01009 1.00763 0.0
H360 H 0.5645 1.02758 0.11785 0.0
H361 H 0.56774 0.04656 0.16711 0.0
H362 H 0.61247 0.12309 0.1345 0.0
H363 H 0.60922 0.10414 0.08451 0.0
H364 H 0.44427 0.03954 0.92441 0.0
H365 H 0.44456 1.01214 0.87972 0.0
H366 H 0.44451 0.93979 0.93042 0.0
H367 H 0.44474 0.96706 0.97527 0.0
La368 La 0.51639 0.50851 0.50966 0.0
La369 La 0.51684 0.55257 0.54766 0.0
C370 C 0.53001 0.46973 0.4794 0.0
C371 C 0.54688 0.44844 0.48634 0.0
C372 C 0.53456 0.42091 0.48299 0.0
C373 C 0.55033 0.40048 0.49004 0.0
C374 C 0.57854 0.40759 0.50023 0.0
C375 C 0.59062 0.43502 0.50429 0.0
C376 C 0.57484 0.45537 0.49759 0.0
C377 C 0.46561 0.50734 0.53691 0.0
C378 C 0.54169 0.50427 0.57512 0.0
C379 C 0.5034 0.59171 0.57735 0.0
C380 C 0.4874 0.61336 0.56956 0.0
C381 C 0.50011 0.64063 0.57391 0.0
C382 C 0.48545 0.66155 0.56602 0.0
C383 C 0.45814 0.65527 0.55349 0.0
C384 C 0.4458 0.62809 0.54815 0.0
C385 C 0.46036 0.60717 0.55612 0.0
C386 C 0.56759 0.5538 0.52039 0.0
C387 C 0.49215 0.55695 0.48201 0.0
O388 O 0.5053 0.46844 0.49335 0.0
O389 O 0.54427 0.4946 0.47869 0.0
O390 O 0.46911 0.50244 0.50929 0.0
O391 O 0.49033 0.51315 0.5483 0.0
O392 O 0.53928 0.49407 0.54793 0.0
O393 O 0.53224 0.52747 0.58114 0.0
O394 O 0.52831 0.59251 0.56391 0.0
O395 O 0.48867 0.56701 0.57808 0.0
O396 O 0.5641 0.55888 0.54793 0.0
O397 O 0.54284 0.54798 0.50905 0.0
O398 O 0.49292 0.5663 0.50957 0.0
O399 O 0.50298 0.53448 0.47599 0.0
H400 H 0.51287 0.41529 0.47472 0.0
H401 H 0.54099 0.37926 0.48663 0.0
H402 H 0.6125 0.44064 0.51208 0.0
H403 H 0.58471 0.47645 0.50096 0.0
H404 H 0.52117 0.64568 0.58374 0.0
H405 H 0.49489 0.68256 0.5706 0.0
H406 H 0.42435 0.62308 0.53913 0.0
H407 H 0.45027 0.58625 0.55211 0.0
La408 La 0.02216 0.5056 0.04399 0.0
La409 La 1.01001 0.55343 1.01531 0.0
C410 C 0.04842 0.46797 0.06142 0.0
C411 C 0.07452 0.46422 0.0784 0.0
C412 C 0.07134 0.45107 0.10547 0.0
C413 C 0.09538 0.44391 0.11966 0.0
C414 C 0.12343 0.44959 0.10714 0.0
C415 C 0.12667 0.4639 0.08067 0.0
C416 C 0.10266 0.47096 0.06649 0.0
C417 C 0.9914 0.53574 0.07818 0.0
C418 C 0.06806 0.56136 0.04992 0.0
C419 C 0.98384 0.59115 0.99796 0.0
C420 C 0.95855 0.59529 0.98 0.0
C421 C 0.96324 0.60874 0.95318 0.0
C422 C 0.94015 0.61635 0.93793 0.0
C423 C 0.91159 0.61077 0.94902 0.0
C424 C 0.90669 0.59623 0.97521 0.0
C425 C 0.92984 0.58872 0.99057 0.0
C426 C 0.04085 0.52355 0.98088 0.0
C427 C 0.96451 0.49749 1.00924 0.0
O428 O 0.02644 0.47578 0.07541 0.0
O429 O 0.05285 0.47964 0.03604 0.0
O430 O 0.9876 0.50924 0.07657 0.0
O431 O 1.01234 0.54448 0.06097 0.0
O432 O 0.0626 0.53441 0.05151 0.0
O433 O 0.04873 0.57462 0.03822 0.0
O434 O 1.00637 0.58384 0.98454 0.0
O435 O 0.97856 0.57879 1.02288 0.0
O436 O 0.04393 0.54999 0.98214 0.0
O437 O 0.02009 0.51466 0.99823 0.0
O438 O 0.9691 0.52452 1.00887 0.0
O439 O 0.98463 0.48442 1.01955 0.0
H440 H 0.05004 0.4454 0.11524 0.0
H441 H 0.09165 0.43284 0.13984 0.0
H442 H 0.1478 0.4694 0.07051 0.0
H443 H 0.10618 0.4811 0.04571 0.0
H444 H 0.98499 0.61423 0.94441 0.0
H445 H 0.94476 0.62715 0.91764 0.0
H446 H 0.88508 0.59173 0.98458 0.0
H447 H 0.92526 0.57855 1.01122 0.0
H448 H 0.23897 0.22301 0.32255 0.0
H449 H 0.28982 0.22547 0.4002 0.0
H450 H 0.19802 0.19659 0.34774 0.0
H451 H 0.24817 0.20014 0.4265 0.0
H452 H 0.17761 0.12764 0.45119 0.0
H453 H 0.21925 0.15727 0.43085 0.0
H454 H 0.16208 0.19963 0.38261 0.0
H455 H 0.12076 0.16852 0.40092 0.0
C456 C 0.2411 0.21801 0.34525 0.0
C457 C 0.26722 0.22616 0.35963 0.0
C458 C 0.21758 0.20317 0.35985 0.0
C459 C 0.2195 0.19658 0.3894 0.0
C460 C 0.24593 0.2047 0.40373 0.0
C461 C 0.26971 0.21925 0.38885 0.0
C462 C 0.17397 0.14322 0.43612 0.0
C463 C 0.14586 0.14528 0.42719 0.0
C464 C 0.19787 0.16051 0.42476 0.0
C465 C 0.19416 0.18054 0.40455 0.0
C466 C 0.16588 0.1839 0.3974 0.0
C467 C 0.14205 0.16633 0.40836 0.0
H468 H 0.32251 0.90661 0.77389 0.0
H469 H 0.37997 0.97249 0.73369 0.0
H470 H 0.35327 0.90913 0.81554 0.0
H471 H 0.40942 0.97807 0.77739 0.0
H472 H 0.4702 0.97436 0.84741 0.0
H473 H 0.4432 0.96144 0.80291 0.0
H474 H 0.36835 0.92916 0.85623 0.0
H475 H 0.3963 0.93883 0.89918 0.0
C476 C 0.34112 0.92267 0.77494 0.0
C477 C 0.34896 0.93961 0.75122 0.0
C478 C 0.35894 0.92418 0.79881 0.0
C479 C 0.38425 0.94367 0.80005 0.0
C480 C 0.39077 0.96211 0.77692 0.0
C481 C 0.37353 0.95964 0.75229 0.0
C482 C 0.44848 0.96301 0.84905 0.0
C483 C 0.4351 0.95757 0.87638 0.0
C484 C 0.43267 0.95633 0.82376 0.0
C485 C 0.40308 0.94523 0.82578 0.0
C486 C 0.39098 0.93739 0.85326 0.0
C487 C 0.40711 0.94287 0.8782 0.0
H488 H 0.65393 0.44972 0.71072 0.0
H489 H 0.57082 0.3995 0.72468 0.0
H490 H 0.63416 0.47201 0.67086 0.0
H491 H 0.55157 0.42132 0.68403 0.0
H492 H 0.5304 0.44968 0.59109 0.0
H493 H 0.54994 0.42714 0.63177 0.0
H494 H 0.60314 0.5032 0.65558 0.0
H495 H 0.58288 0.52567 0.61544 0.0
C496 C 0.63138 0.44325 0.70586 0.0
C497 C 0.61452 0.42217 0.72216 0.0
C498 C 0.61989 0.45629 0.68239 0.0
C499 C 0.59092 0.44885 0.67337 0.0
C500 C 0.57404 0.42775 0.68942 0.0
C501 C 0.5854 0.41494 0.71316 0.0
C502 C 0.5464 0.46162 0.60486 0.0
C503 C 0.55496 0.4897 0.59942 0.0
C504 C 0.55758 0.44865 0.62862 0.0
C505 C 0.57853 0.46293 0.64769 0.0
C506 C 0.58739 0.49099 0.64178 0.0
C507 C 0.57559 0.50408 0.61857 0.0
H508 H 0.97035 0.64057 0.23589 0.0
H509 H 0.88486 0.59606 0.22072 0.0
H510 H 0.98839 0.61877 0.19264 0.0
H511 H 0.90297 0.57416 0.178 0.0
H512 H 0.94641 0.51847 0.1162 0.0
H513 H 0.92876 0.54179 0.15859 0.0
H514 H 0.99271 0.61268 0.14146 0.0
H515 H 1.01059 0.58882 0.099 0.0
C516 C 0.9551 0.62636 0.22348 0.0
C517 C 0.92578 0.6204 0.23291 0.0
C518 C 0.96565 0.61363 0.19826 0.0
C519 C 0.94754 0.59412 0.18113 0.0
C520 C 0.91823 0.58838 0.19041 0.0
C521 C 0.90766 0.60116 0.21546 0.0
C522 C 0.95673 0.5391 0.12129 0.0
C523 C 0.98002 0.55152 0.10368 0.0
C524 C 0.94638 0.55276 0.14582 0.0
C525 C 0.95889 0.57961 0.15421 0.0
C526 C 0.98231 0.59208 0.13647 0.0
C527 C 0.99255 0.5784 0.11169 0.0
H528 H 0.43996 0.17441 0.20363 0.0
H529 H 0.43203 0.21653 0.12311 0.0
H530 H 0.45636 0.13774 0.17653 0.0
H531 H 0.45263 0.18161 0.09652 0.0
H532 H 0.45765 0.1019 0.04915 0.0
H533 H 0.44255 0.13926 0.07701 0.0
H534 H 0.48955 0.1181 0.15137 0.0
H535 H 0.50343 0.07978 0.1235 0.0
C536 C 0.44161 0.17618 0.18016 0.0
C537 C 0.43316 0.19856 0.1659 0.0
C538 C 0.45196 0.15507 0.16446 0.0
C539 C 0.45552 0.15592 0.13388 0.0
C540 C 0.44922 0.17927 0.11982 0.0
C541 C 0.43786 0.19995 0.13541 0.0
C542 C 0.46434 0.10489 0.07164 0.0
C543 C 0.48147 0.0875 0.08414 0.0
C544 C 0.4561 0.12685 0.08764 0.0
C545 C 0.4648 0.13235 0.11675 0.0
C546 C 0.48188 0.11471 0.12928 0.0
C547 C 0.49008 0.09265 0.11321 0.0
H548 H 0.14785 0.88597 0.56988 0.0
H549 H 0.19486 0.96363 0.5424 0.0
H550 H 0.10479 0.9068 0.57907 0.0
H551 H 0.15167 0.98437 0.55087 0.0
H552 H 0.0944 1.02709 0.58269 0.0
H553 H 0.12481 0.99471 0.59839 0.0
H554 H 0.07101 0.92996 0.55119 0.0
H555 H 0.04099 0.96223 0.53569 0.0
C556 C 0.14847 0.90721 0.56447 0.0
C557 C 0.17444 0.92354 0.55594 0.0
C558 C 0.12421 0.91918 0.57058 0.0
C559 C 0.12583 0.94734 0.56761 0.0
C560 C 0.15064 0.96283 0.55505 0.0
C561 C 0.1749 0.9509 0.54909 0.0
C562 C 0.08817 1.00558 0.57743 0.0
C563 C 0.0667 0.99682 0.55714 0.0
C564 C 0.10538 0.98713 0.58638 0.0
C565 C 0.10087 0.96051 0.57441 0.0
C566 C 0.0752 0.95064 0.55995 0.0
C567 C 0.05817 0.96907 0.55089 0.0
H568 H 0.83691 0.42382 0.879 0.0
H569 H 0.78709 0.42279 0.95915 0.0
H570 H 0.88073 0.44354 0.90543 0.0
H571 H 0.83056 0.44286 0.98548 0.0
H572 H 0.90864 0.50678 1.01657 0.0
H573 H 0.86518 0.48528 0.99102 0.0
H574 H 0.91584 0.43368 0.94256 0.0
H575 H 0.95922 0.45481 0.96894 0.0
C576 C 0.8352 0.42798 0.90222 0.0
C577 C 0.80818 0.42165 0.91677 0.0
C578 C 0.86049 0.43912 0.91753 0.0
C579 C 0.85961 0.44498 0.94787 0.0
C580 C 0.83244 0.43895 0.96223 0.0
C581 C 0.80736 0.42726 0.94707 0.0
C582 C 0.91046 0.49057 1.00076 0.0
C583 C 0.93753 0.48237 0.99523 0.0
C584 C 0.88542 0.47814 0.98601 0.0
C585 C 0.88657 0.45758 0.9644 0.0
C586 C 0.91379 0.44945 0.95881 0.0
C587 C 0.93873 0.46138 0.97422 0.0
H588 H 0.71177 0.60062 0.39347 0.0
H589 H 0.74289 0.63609 0.47599 0.0
H590 H 0.66669 0.58058 0.4172 0.0
H591 H 0.6972 0.61801 0.49918 0.0
H592 H 0.62172 0.56487 0.54281 0.0
H593 H 0.66722 0.58235 0.51839 0.0
H594 H 0.62223 0.58436 0.43714 0.0
H595 H 0.57686 0.56532 0.46172 0.0
C596 C 0.7092 0.60425 0.41669 0.0
C597 C 0.73161 0.62022 0.43248 0.0
C598 C 0.68282 0.593 0.43039 0.0
C599 C 0.67754 0.59736 0.46049 0.0
C600 C 0.69998 0.61344 0.4762 0.0
C601 C 0.72641 0.62441 0.46259 0.0
C602 C 0.62158 0.56881 0.51964 0.0
C603 C 0.5955 0.56347 0.5043 0.0
C604 C 0.64785 0.57926 0.5055 0.0
C605 C 0.64912 0.58529 0.47543 0.0
C606 C 0.62282 0.57976 0.46008 0.0
C607 C 0.59653 0.56888 0.47423 0.0
H608 H 0.26138 0.4062 0.21846 0.0
H609 H 0.26145 0.35546 0.14074 0.0
H610 H 0.22337 0.4281 0.19828 0.0
H611 H 0.22339 0.37693 0.12075 0.0
H612 H 0.17005 0.43212 0.07923 0.0
H613 H 0.21037 0.4148 0.10005 0.0
H614 H 0.17436 0.42389 0.18661 0.0
H615 H 0.13488 0.44331 0.16576 0.0
C616 C 0.25333 0.39962 0.19705 0.0
C617 C 0.26481 0.37894 0.18129 0.0
C618 C 0.2313 0.41219 0.18545 0.0
C619 C 0.21994 0.40452 0.15767 0.0
C620 C 0.23173 0.38406 0.14187 0.0
C621 C 0.25379 0.37161 0.1534 0.0
C622 C 0.17084 0.43109 0.10276 0.0
C623 C 0.14882 0.43937 0.12059 0.0
C624 C 0.19395 0.42053 0.1148 0.0
C625 C 0.19584 0.41739 0.14517 0.0
C626 C 0.17406 0.42604 0.16315 0.0
C627 C 0.15101 0.4369 0.15107 0.0
H628 H 0.65342 0.21345 0.92023 0.0
H629 H 0.56695 0.23037 0.90858 0.0
H630 H 0.63396 0.1712 0.94445 0.0
H631 H 0.54736 0.18735 0.93157 0.0
H632 H 0.51672 0.11625 0.99322 0.0
H633 H 0.53723 0.16043 0.97254 0.0
H634 H 0.61158 0.12619 0.94131 0.0
H635 H 0.59084 0.08225 0.96227 0.0
C636 C 0.63018 0.2084 0.92274 0.0
C637 C 0.61209 0.22613 0.912 0.0
C638 C 0.61882 0.18355 0.93652 0.0
C639 C 0.5887 0.17495 0.9403 0.0
C640 C 0.57061 0.19275 0.92971 0.0
C641 C 0.58199 0.21763 0.91591 0.0
C642 C 0.53763 0.11828 0.98222 0.0
C643 C 0.55209 0.09548 0.97966 0.0
C644 C 0.54941 0.14374 0.96992 0.0
C645 C 0.57635 0.14765 0.95464 0.0
C646 C 0.59103 0.12477 0.95284 0.0
C647 C 0.57904 0.09925 0.96486 0.0
H648 H 0.97238 0.81616 0.41651 0.0
H649 H 0.88554 0.8256 0.44284 0.0
H650 H 0.99058 0.86069 0.43836 0.0
H651 H 0.90377 0.87 0.4648 0.0
H652 H 0.94856 0.94026 0.52446 0.0
H653 H 0.93024 0.89501 0.50373 0.0
H654 H 0.99363 0.9088 0.43372 0.0
H655 H 1.01164 0.95397 0.4544 0.0
C656 C 0.95697 0.82769 0.42665 0.0
C657 C 0.92724 0.81667 0.42751 0.0
C658 C 0.96753 0.8535 0.43936 0.0
C659 C 0.94887 0.86956 0.45356 0.0
C660 C 0.91916 0.85848 0.45461 0.0
C661 C 0.9086 0.83269 0.44186 0.0
C662 C 0.95863 0.93365 0.50464 0.0
C663 C 0.9816 0.95115 0.49114 0.0
C664 C 0.94795 0.90758 0.49253 0.0
C665 C 0.96023 0.89768 0.46676 0.0
C666 C 0.98352 0.91515 0.4536 0.0
C667 C 0.99379 0.94138 0.46539 0.0
H668 H 0.36594 0.79161 0.53953 0.0
H669 H 0.31333 0.72939 0.5901 0.0
H670 H 0.39868 0.75925 0.52579 0.0
H671 H 0.34565 0.69704 0.5763 0.0
H672 H 0.43544 0.67928 0.59872 0.0
H673 H 0.39888 0.709 0.59747 0.0
H674 H 0.40278 0.70748 0.5031 0.0
H675 H 0.43946 0.67693 0.50445 0.0
C676 C 0.36086 0.77063 0.54653 0.0
C677 C 0.33763 0.76255 0.5658 0.0
C678 C 0.37937 0.75227 0.53868 0.0
C679 C 0.37457 0.72604 0.55037 0.0
C680 C 0.3496 0.71732 0.56723 0.0
C681 C 0.33121 0.73561 0.57505 0.0
C682 C 0.4288 0.68573 0.57778 0.0
C683 C 0.43998 0.67628 0.55169 0.0
C684 C 0.40779 0.70233 0.57703 0.0
C685 C 0.39787 0.70978 0.55015 0.0
C686 C 0.4101 0.70152 0.52394 0.0
C687 C 0.43094 0.68438 0.5247 0.0
H688 H 0.76125 0.81104 0.66127 0.0
H689 H 0.77389 0.86989 0.73253 0.0
H690 H 0.80392 0.83585 0.63582 0.0
H691 H 0.8162 0.89436 0.70736 0.0
H692 H 0.90852 0.90934 0.67425 0.0
H693 H 0.86588 0.88069 0.69473 0.0
H694 H 0.82096 0.8849 0.61395 0.0
H695 H 0.86377 0.91398 0.59351 0.0
C696 C 0.77294 0.82942 0.67124 0.0
C697 C 0.76424 0.83871 0.6987 0.0
C698 C 0.79723 0.84353 0.65676 0.0
C699 C 0.81341 0.86673 0.66989 0.0
C700 C 0.80426 0.87631 0.69698 0.0
C701 C 0.77986 0.86252 0.71118 0.0
C702 C 0.88976 0.9036 0.66069 0.0
C703 C 0.88923 0.91375 0.63242 0.0
C704 C 0.86535 0.88746 0.67244 0.0
C705 C 0.84015 0.88092 0.65596 0.0
C706 C 0.84018 0.88971 0.62702 0.0
C707 C 0.86451 0.90629 0.6154 0.0
H708 H 0.71524 0.12078 0.2861 0.0
H709 H 0.63647 0.13178 0.33224 0.0
H710 H 0.68783 0.10667 0.24239 0.0
H711 H 0.6086 0.11676 0.28854 0.0
H712 H 0.58102 0.12696 0.19238 0.0
H713 H 0.60549 0.13763 0.23927 0.0
H714 H 0.65188 0.06964 0.22485 0.0
H715 H 0.62824 0.0597 0.17845 0.0
C716 C 0.69189 0.11919 0.28702 0.0
C717 C 0.67768 0.12717 0.31209 0.0
C718 C 0.67627 0.11132 0.26212 0.0
C719 C 0.64624 0.11096 0.2623 0.0
C720 C 0.63183 0.11744 0.28796 0.0
C721 C 0.64756 0.1256 0.31284 0.0
C722 C 0.59628 0.11439 0.1997 0.0
C723 C 0.60264 0.09235 0.18266 0.0
C724 C 0.61005 0.12027 0.22629 0.0
C725 C 0.6303 0.10423 0.23545 0.0
C726 C 0.63639 0.08225 0.21816 0.0
C727 C 0.62274 0.07643 0.19189 0.0
H728 H 0.46204 0.63518 0.31336 0.0
H729 H 0.38303 0.63776 0.36211 0.0
H730 H 0.48128 0.61299 0.35431 0.0
H731 H 0.40239 0.61605 0.40345 0.0
H732 H 0.45664 0.59765 0.4842 0.0
H733 H 0.43662 0.62002 0.44361 0.0
H734 H 0.47898 0.57204 0.38199 0.0
H735 H 0.49858 0.54972 0.4223 0.0
C736 C 0.44871 0.63122 0.33288 0.0
C737 C 0.42077 0.6386 0.33391 0.0
C738 C 0.45976 0.61818 0.3566 0.0
C739 C 0.44376 0.61238 0.38298 0.0
C740 C 0.41588 0.62008 0.38407 0.0
C741 C 0.40456 0.63252 0.36004 0.0
C742 C 0.46177 0.59182 0.46203 0.0
C743 C 0.47955 0.57158 0.45714 0.0
C744 C 0.45004 0.60466 0.43845 0.0
C745 C 0.45594 0.59831 0.40877 0.0
C746 C 0.47388 0.57816 0.40406 0.0
C747 C 0.48514 0.56506 0.42753 0.0
H748 H 0.07557 0.40534 0.83846 0.0
H749 H 0.13519 0.4793 0.8212 0.0
H750 H 0.05656 0.42733 0.88033 0.0
H751 H 0.11855 0.50004 0.8643 0.0
H752 H 0.07641 0.54433 0.93586 0.0
H753 H 0.09351 0.52195 0.89337 0.0
H754 H 0.04941 0.44421 0.92439 0.0
H755 H 0.03093 0.46767 0.96645 0.0
C756 C 0.08499 0.42624 0.8432 0.0
C757 C 0.10748 0.43987 0.8251 0.0
C758 C 0.07411 0.43906 0.86819 0.0
C759 C 0.08535 0.46619 0.87704 0.0
C760 C 0.10808 0.47958 0.8591 0.0
C761 C 0.11846 0.46704 0.83385 0.0
C762 C 0.07026 0.52241 0.93371 0.0
C763 C 0.05214 0.5081 0.95509 0.0
C764 C 0.08049 0.50911 0.90895 0.0
C765 C 0.07367 0.48047 0.90423 0.0
C766 C 0.0555 0.46611 0.926 0.0
C767 C 0.04487 0.47962 0.95071 0.0
H768 H 0.61723 0.89452 0.86216 0.0
H769 H 0.58616 0.83882 0.93125 0.0
H770 H 0.59701 0.93075 0.8879 0.0
H771 H 0.56651 0.87548 0.95732 0.0
H772 H 0.5696 0.9575 1.0097 0.0
H773 H 0.58656 0.91975 0.98278 0.0
H774 H 0.54935 0.9442 0.904 0.0
H775 H 0.53165 0.98151 0.93133 0.0
C776 C 0.60576 0.88979 0.88265 0.0
C777 C 0.60343 0.86352 0.89453 0.0
C778 C 0.59422 0.91071 0.89746 0.0
C779 C 0.58023 0.90612 0.92476 0.0
C780 C 0.57754 0.87984 0.93654 0.0
C781 C 0.58889 0.85881 0.9216 0.0
C782 C 0.56522 0.95485 0.98659 0.0
C783 C 0.54957 0.97253 0.97251 0.0
C784 C 0.57466 0.93308 0.97123 0.0
C785 C 0.56932 0.92888 0.94121 0.0
C786 C 0.55393 0.94688 0.92706 0.0
C787 C 0.54377 0.96821 0.94266 0.0
H788 H 0.87553 0.17044 0.50596 0.0
H789 H 0.83699 0.08625 0.49211 0.0
H790 H 0.92346 0.15824 0.49917 0.0
H791 H 0.8848 0.07363 0.4867 0.0
H792 H 0.95292 0.04594 0.46621 0.0
H793 H 0.92452 0.07959 0.44946 0.0
H794 H 0.95581 0.13332 0.5214 0.0
H795 H 0.98439 0.10041 0.53725 0.0
C796 C 0.87748 0.14909 0.50291 0.0
C797 C 0.85296 0.12922 0.49896 0.0
C798 C 0.90478 0.1423 0.49811 0.0
C799 C 0.90765 0.11543 0.49028 0.0
C800 C 0.8831 0.09491 0.49068 0.0
C801 C 0.85584 0.10178 0.49511 0.0
C802 C 0.95504 0.06574 0.47711 0.0
C803 C 0.96875 0.07033 0.50393 0.0
C804 C 0.93898 0.085 0.46757 0.0
C805 C 0.93626 0.10765 0.48582 0.0
C806 C 0.95649 0.11535 0.50774 0.0
C807 C 0.97265 0.09632 0.51709 0.0
H808 H 0.21884 0.67665 0.11965 0.0
H809 H 0.22835 0.59783 0.15234 0.0
H810 H 0.1748 0.65659 0.0954 0.0
H811 H 0.18519 0.57741 0.12742 0.0
H812 H 0.097 0.54332 0.09471 0.0
H813 H 0.13944 0.56506 0.11974 0.0
H814 H 0.1449 0.63435 0.06289 0.0
H815 H 0.10042 0.61283 0.03937 0.0
C816 C 0.21181 0.65489 0.12155 0.0
C817 C 0.22775 0.63917 0.13846 0.0
C818 C 0.18612 0.64311 0.10732 0.0
C819 C 0.17512 0.61487 0.10895 0.0
C820 C 0.19145 0.59921 0.12568 0.0
C821 C 0.21685 0.61107 0.14021 0.0
C822 C 0.10718 0.56326 0.08746 0.0
C823 C 0.09498 0.57604 0.06468 0.0
C824 C 0.13222 0.57592 0.10183 0.0
C825 C 0.14713 0.60182 0.09365 0.0
C826 C 0.1347 0.61469 0.07069 0.0
C827 C 0.10896 0.60221 0.05679 0.0
H828 H 0.28752 0.43066 0.5808 0.0
H829 H 0.32356 0.45498 0.66503 0.0
H830 H 0.33293 0.44842 0.5574 0.0
H831 H 0.3684 0.47531 0.64153 0.0
H832 H 0.45636 0.49551 0.59546 0.0
H833 H 0.41125 0.47643 0.61999 0.0
H834 H 0.36595 0.47988 0.53899 0.0
H835 H 0.41137 0.49687 0.51464 0.0
C836 C 0.30508 0.43988 0.59454 0.0
C837 C 0.30128 0.44095 0.62516 0.0
C838 C 0.33149 0.45081 0.58085 0.0
C839 C 0.35536 0.46396 0.59701 0.0
C840 C 0.35136 0.46526 0.62771 0.0
C841 C 0.32504 0.45387 0.64144 0.0
C842 C 0.43666 0.49216 0.58301 0.0
C843 C 0.43766 0.49777 0.553 0.0
C844 C 0.41038 0.48125 0.59717 0.0
C845 C 0.38391 0.47605 0.58198 0.0
C846 C 0.38523 0.48248 0.55195 0.0
C847 C 0.41154 0.49275 0.53777 0.0
H848 H 0.78981 0.71801 0.90718 0.0
H849 H 0.76027 0.64753 0.85286 0.0
H850 H 0.82841 0.69546 0.92553 0.0
H851 H 0.79874 0.62451 0.87161 0.0
H852 H 0.85554 0.58543 0.93888 0.0
H853 H 0.81584 0.60533 0.91821 0.0
H854 H 0.87355 0.68128 0.90585 0.0
H855 H 0.91293 0.66161 0.92651 0.0
C856 C 0.79133 0.69747 0.89955 0.0
C857 C 0.77188 0.68445 0.87884 0.0
C858 C 0.81363 0.68462 0.90981 0.0
C859 C 0.81686 0.65817 0.89999 0.0
C860 C 0.79687 0.64481 0.87976 0.0
C861 C 0.77485 0.65796 0.86901 0.0
C862 C 0.85975 0.60636 0.93169 0.0
C863 C 0.88753 0.6219 0.93455 0.0
C864 C 0.83702 0.61771 0.91965 0.0
C865 C 0.84134 0.64506 0.91066 0.0
C866 C 0.86926 0.66032 0.91293 0.0
C867 C 0.89198 0.6489 0.92454 0.0
H868 H 0.46866 0.82802 0.14412 0.0
H869 H 0.38288 0.84823 0.138 0.0
H870 H 0.48846 0.87026 0.12049 0.0
H871 H 0.40241 0.88976 0.11247 0.0
H872 H 0.44752 0.97641 0.08534 0.0
H873 H 0.42501 0.9336 0.10783 0.0
H874 H 0.49967 0.897 0.08225 0.0
H875 H 0.5223 0.9401 0.06175 0.0
C876 C 0.45378 0.84134 0.13781 0.0
C877 C 0.42384 0.83388 0.14348 0.0
C878 C 0.46526 0.86585 0.12345 0.0
C879 C 0.44747 0.88434 0.11363 0.0
C880 C 0.41745 0.87688 0.11943 0.0
C881 C 0.40599 0.8524 0.13399 0.0
C882 C 0.45885 0.95902 0.08411 0.0
C883 C 0.48678 0.96194 0.07128 0.0
C884 C 0.44592 0.93413 0.09724 0.0
C885 C 0.46027 0.91095 0.09788 0.0
C886 C 0.48771 0.9139 0.08367 0.0
C887 C 0.50073 0.9388 0.07118 0.0
H888 H 0.05986 0.24553 0.64077 0.0
H889 H 0.14643 0.23492 0.61447 0.0
H890 H 0.04112 0.20111 0.61901 0.0
H891 H 0.12752 0.1908 0.59228 0.0
H892 H 0.08057 0.12202 0.53167 0.0
H893 H 0.09958 0.16707 0.55252 0.0
H894 H 0.03869 0.15252 0.62461 0.0
H895 H 0.02002 0.10749 0.60388 0.0
C896 C 0.0751 0.23381 0.63064 0.0
C897 C 0.10493 0.24446 0.62979 0.0
C898 C 0.06421 0.20809 0.61796 0.0
C899 C 0.0826 0.19185 0.60369 0.0
C900 C 0.11238 0.20254 0.60258 0.0
C901 C 0.12331 0.22817 0.61542 0.0
C902 C 0.0712 0.12841 0.55198 0.0
C903 C 0.04873 0.11077 0.56605 0.0
C904 C 0.08226 0.15434 0.56412 0.0
C905 C 0.07086 0.16392 0.59049 0.0
C906 C 0.04808 0.14633 0.60424 0.0
C907 C 0.03743 0.12023 0.59241 0.0
H908 H 0.65611 0.26357 0.50952 0.0
H909 H 0.72685 0.32953 0.49583 0.0
H910 H 0.62363 0.2965 0.52025 0.0
H911 H 0.69468 0.36252 0.50717 0.0
H912 H 0.62322 0.40066 0.4655 0.0
H913 H 0.65696 0.36876 0.47148 0.0
H914 H 0.60929 0.33671 0.54841 0.0
H915 H 0.57488 0.36867 0.54179 0.0
C916 C 0.66486 0.28515 0.51025 0.0
C917 C 0.6936 0.29434 0.50162 0.0
C918 C 0.6464 0.30391 0.5164 0.0
C919 C 0.65668 0.33189 0.51385 0.0
C920 C 0.68631 0.34095 0.50882 0.0
C921 C 0.70474 0.32219 0.50266 0.0
C922 C 0.62008 0.38674 0.48363 0.0
C923 C 0.59695 0.38691 0.50334 0.0
C924 C 0.63946 0.36882 0.48731 0.0
C925 C 0.63613 0.35101 0.51099 0.0
C926 C 0.61239 0.3506 0.53028 0.0
C927 C 0.59278 0.36859 0.52646 0.0
loop_
_geom_bond_atom_site_label_1
_geom_bond_atom_site_label_2
_geom_bond_distance
_geom_bond_site_symmetry_2
_ccdc_geom_bond_type
C0 C1 1.384 . S
C0 H13 0.947 . S
C0 C35 1.382 . S
C1 C0 1.384 . S
C1 C2 1.378 . S
C2 C1 1.378 . S
C2 C3 1.378 . S
C2 H14 0.952 . S
C3 C2 1.378 . S
C3 H15 0.950 . S
C3 C34 1.383 . S
H4 C23 0.947 . S
H5 C24 0.946 . S
H6 C26 0.953 . S
H7 C27 0.945 . S
H8 C29 0.952 . S
H9 C30 0.949 . S
H10 C32 0.950 . S
H11 C33 0.948 . S
H12 C35 0.951 . S
H13 C0 0.947 . S
H14 C2 0.952 . S
H15 C3 0.950 . S
N16 C19 1.382 . S
N16 C21 1.363 . S
N17 C19 1.371 . S
N17 C20 1.372 . S
N18 C20 1.361 . S
N18 C21 1.377 . S
C19 N16 1.382 . S
C19 N17 1.371 . S
C19 C22 1.480 . S
C20 N17 1.372 . S
C20 N18 1.361 . S
C20 C28 1.457 . S
C21 N16 1.363 . S
C21 N18 1.377 . S
C21 C34 1.479 . S
C22 C19 1.480 . S
C22 C23 1.383 . S
C22 C27 1.385 . S
C23 H4 0.947 . S
C23 C22 1.383 . S
C23 C24 1.388 . S
C24 H5 0.946 . S
C24 C23 1.388 . S
C24 C25 1.384 . S
C25 C24 1.384 . S
C25 C26 1.377 . S
C26 H6 0.953 . S
C26 C25 1.377 . S
C26 C27 1.369 . S
C27 H7 0.945 . S
C27 C22 1.385 . S
C27 C26 1.369 . S
C28 C20 1.457 . S
C28 C29 1.372 . S
C28 C33 1.364 . S
C29 H8 0.952 . S
C29 C28 1.372 . S
C29 C30 1.389 . S
C30 H9 0.949 . S
C30 C29 1.389 . S
C30 C31 1.387 . S
C31 C30 1.387 . S
C31 C32 1.372 . S
C32 H10 0.950 . S
C32 C31 1.372 . S
C32 C33 1.379 . S
C33 H11 0.948 . S
C33 C28 1.364 . S
C33 C32 1.379 . S
C34 C3 1.383 . S
C34 C21 1.479 . S
C34 C35 1.398 . S
C35 C0 1.382 . S
C35 H12 0.951 . S
C35 C34 1.398 . S
C36 C37 1.384 . S
C36 H49 0.947 . S
C36 C71 1.382 . S
C37 C36 1.384 . S
C37 C38 1.378 . S
C38 C37 1.378 . S
C38 C39 1.378 . S
C38 H50 0.952 . S
C39 C38 1.378 . S
C39 H51 0.950 . S
C39 C70 1.383 . S
H40 C59 0.947 . S
H41 C60 0.946 . S
H42 C62 0.953 . S
H43 C63 0.945 . S
H44 C65 0.952 . S
H45 C66 0.949 . S
H46 C68 0.950 . S
H47 C69 0.948 . S
H48 C71 0.951 . S
H49 C36 0.947 . S
H50 C38 0.952 . S
H51 C39 0.950 . S
N52 C55 1.382 . S
N52 C57 1.363 . S
N53 C55 1.371 . S
N53 C56 1.372 . S
N54 C56 1.361 . S
N54 C57 1.377 . S
C55 N52 1.382 . S
C55 N53 1.371 . S
C55 C58 1.480 . S
C56 N53 1.372 . S
C56 N54 1.361 . S
C56 C64 1.457 . S
C57 N52 1.363 . S
C57 N54 1.377 . S
C57 C70 1.479 . S
C58 C55 1.480 . S
C58 C59 1.383 . S
C58 C63 1.385 . S
C59 H40 0.947 . S
C59 C58 1.383 . S
C59 C60 1.388 . S
C60 H41 0.946 . S
C60 C59 1.388 . S
C60 C61 1.384 . S
C61 C60 1.384 . S
C61 C62 1.377 . S
C62 H42 0.953 . S
C62 C61 1.377 . S
C62 C63 1.369 . S
C63 H43 0.945 . S
C63 C58 1.385 . S
C63 C62 1.369 . S
C64 C56 1.457 . S
C64 C65 1.372 . S
C64 C69 1.364 . S
C65 H44 0.952 . S
C65 C64 1.372 . S
C65 C66 1.389 . S
C66 H45 0.949 . S
C66 C65 1.389 . S
C66 C67 1.387 . S
C67 C66 1.387 . S
C67 C68 1.372 . S
C68 H46 0.950 . S
C68 C67 1.372 . S
C68 C69 1.379 . S
C69 H47 0.948 . S
C69 C64 1.364 . S
C69 C68 1.379 . S
C70 C39 1.383 . S
C70 C57 1.479 . S
C70 C71 1.398 . S
C71 C36 1.382 . S
C71 H48 0.951 . S
C71 C70 1.398 . S
C72 C73 1.384 . S
C72 H85 0.947 . S
C72 C107 1.382 . S
C73 C72 1.384 . S
C73 C74 1.378 . S
C74 C73 1.378 . S
C74 C75 1.378 . S
C74 H86 0.952 . S
C75 C74 1.378 . S
C75 H87 0.950 . S
C75 C106 1.383 . S
H76 C95 0.947 . S
H77 C96 0.946 . S
H78 C98 0.953 . S
H79 C99 0.945 . S
H80 C101 0.952 . S
H81 C102 0.949 . S
H82 C104 0.950 . S
H83 C105 0.948 . S
H84 C107 0.951 . S
H85 C72 0.947 . S
H86 C74 0.952 . S
H87 C75 0.950 . S
N88 C91 1.382 . S
N88 C93 1.363 . S
N89 C91 1.371 . S
N89 C92 1.372 . S
N90 C92 1.361 . S
N90 C93 1.377 . S
C91 N88 1.382 . S
C91 N89 1.371 . S
C91 C94 1.480 . S
C92 N89 1.372 . S
C92 N90 1.361 . S
C92 C100 1.457 . S
C93 N88 1.363 . S
C93 N90 1.377 . S
C93 C106 1.479 . S
C94 C91 1.480 . S
C94 C95 1.383 . S
C94 C99 1.385 . S
C95 H76 0.947 . S
C95 C94 1.383 . S
C95 C96 1.388 . S
C96 H77 0.946 . S
C96 C95 1.388 . S
C96 C97 1.384 . S
C97 C96 1.384 . S
C97 C98 1.377 . S
C98 H78 0.953 . S
C98 C97 1.377 . S
C98 C99 1.369 . S
C99 H79 0.945 . S
C99 C94 1.385 . S
C99 C98 1.369 . S
C100 C92 1.457 . S
C100 C101 1.372 . S
C100 C105 1.364 . S
C101 H80 0.952 . S
C101 C100 1.372 . S
C101 C102 1.389 . S
C102 H81 0.949 . S
C102 C101 1.389 . S
C102 C103 1.387 . S
C103 C102 1.387 . S
C103 C104 1.372 . S
C104 H82 0.950 . S
C104 C103 1.372 . S
C104 C105 1.379 . S
C105 H83 0.948 . S
C105 C100 1.364 . S
C105 C104 1.379 . S
C106 C75 1.383 . S
C106 C93 1.479 . S
C106 C107 1.398 . S
C107 C72 1.382 . S
C107 H84 0.951 . S
C107 C106 1.398 . S
C108 C109 1.384 . S
C108 H121 0.947 . S
C108 C143 1.382 . S
C109 C108 1.384 . S
C109 C110 1.378 . S
C110 C109 1.378 . S
C110 C111 1.378 . S
C110 H122 0.952 . S
C111 C110 1.378 . S
C111 H123 0.950 . S
C111 C142 1.383 . S
H112 C131 0.947 . S
H113 C132 0.946 . S
H114 C134 0.953 . S
H115 C135 0.945 . S
H116 C137 0.952 . S
H117 C138 0.949 . S
H118 C140 0.950 . S
H119 C141 0.948 . S
H120 C143 0.951 . S
H121 C108 0.947 . S
H122 C110 0.952 . S
H123 C111 0.950 . S
N124 C127 1.382 . S
N124 C129 1.363 . S
N125 C127 1.371 . S
N125 C128 1.372 . S
N126 C128 1.361 . S
N126 C129 1.377 . S
C127 N124 1.382 . S
C127 N125 1.371 . S
C127 C130 1.480 . S
C128 N125 1.372 . S
C128 N126 1.361 . S
C128 C136 1.457 . S
C129 N124 1.363 . S
C129 N126 1.377 . S
C129 C142 1.479 . S
C130 C127 1.480 . S
C130 C131 1.383 . S
C130 C135 1.385 . S
C131 H112 0.947 . S
C131 C130 1.383 . S
C131 C132 1.388 . S
C132 H113 0.946 . S
C132 C131 1.388 . S
C132 C133 1.384 . S
C133 C132 1.384 . S
C133 C134 1.377 . S
C134 H114 0.953 . S
C134 C133 1.377 . S
C134 C135 1.369 . S
C135 H115 0.945 . S
C135 C130 1.385 . S
C135 C134 1.369 . S
C136 C128 1.457 . S
C136 C137 1.372 . S
C136 C141 1.364 . S
C137 H116 0.952 . S
C137 C136 1.372 . S
C137 C138 1.389 . S
C138 H117 0.949 . S
C138 C137 1.389 . S
C138 C139 1.387 . S
C139 C138 1.387 . S
C139 C140 1.372 . S
C140 H118 0.950 . S
C140 C139 1.372 . S
C140 C141 1.379 . S
C141 H119 0.948 . S
C141 C136 1.364 . S
C141 C140 1.379 . S
C142 C111 1.383 . S
C142 C129 1.479 . S
C142 C143 1.398 . S
C143 C108 1.382 . S
C143 H120 0.951 . S
C143 C142 1.398 . S
C144 C145 1.384 . S
C144 H157 0.947 . S
C144 C179 1.382 . S
C145 C144 1.384 . S
C145 C146 1.378 . S
C146 C145 1.378 . S
C146 C147 1.378 . S
C146 H158 0.952 . S
C147 C146 1.378 . S
C147 H159 0.950 . S
C147 C178 1.383 . S
H148 C167 0.947 . S
H149 C168 0.946 . S
H150 C170 0.953 . S
H151 C171 0.945 . S
H152 C173 0.952 . S
H153 C174 0.949 . S
H154 C176 0.950 . S
H155 C177 0.948 . S
H156 C179 0.951 . S
H157 C144 0.947 . S
H158 C146 0.952 . S
H159 C147 0.950 . S
N160 C163 1.382 . S
N160 C165 1.363 . S
N161 C163 1.371 . S
N161 C164 1.372 . S
N162 C164 1.361 . S
N162 C165 1.377 . S
C163 N160 1.382 . S
C163 N161 1.371 . S
C163 C166 1.480 . S
C164 N161 1.372 . S
C164 N162 1.361 . S
C164 C172 1.457 . S
C165 N160 1.363 . S
C165 N162 1.377 . S
C165 C178 1.479 . S
C166 C163 1.480 . S
C166 C167 1.383 . S
C166 C171 1.385 . S
C167 H148 0.947 . S
C167 C166 1.383 . S
C167 C168 1.388 . S
C168 H149 0.946 . S
C168 C167 1.388 . S
C168 C169 1.384 . S
C169 C168 1.384 . S
C169 C170 1.377 . S
C170 H150 0.953 . S
C170 C169 1.377 . S
C170 C171 1.369 . S
C171 H151 0.945 . S
C171 C166 1.385 . S
C171 C170 1.369 . S
C172 C164 1.457 . S
C172 C173 1.372 . S
C172 C177 1.364 . S
C173 H152 0.952 . S
C173 C172 1.372 . S
C173 C174 1.389 . S
C174 H153 0.949 . S
C174 C173 1.389 . S
C174 C175 1.387 . S
C175 C174 1.387 . S
C175 C176 1.372 . S
C176 H154 0.950 . S
C176 C175 1.372 . S
C176 C177 1.379 . S
C177 H155 0.948 . S
C177 C172 1.364 . S
C177 C176 1.379 . S
C178 C147 1.383 . S
C178 C165 1.479 . S
C178 C179 1.398 . S
C179 C144 1.382 . S
C179 H156 0.951 . S
C179 C178 1.398 . S
C180 C181 1.384 . S
C180 H193 0.947 . S
C180 C215 1.382 . S
C181 C180 1.384 . S
C181 C182 1.378 . S
C182 C181 1.378 . S
C182 C183 1.378 . S
C182 H194 0.952 . S
C183 C182 1.378 . S
C183 H195 0.950 . S
C183 C214 1.383 . S
H184 C203 0.947 . S
H185 C204 0.946 . S
H186 C206 0.953 . S
H187 C207 0.945 . S
H188 C209 0.952 . S
H189 C210 0.949 . S
H190 C212 0.950 . S
H191 C213 0.948 . S
H192 C215 0.951 . S
H193 C180 0.947 . S
H194 C182 0.952 . S
H195 C183 0.950 . S
N196 C199 1.382 . S
N196 C201 1.363 . S
N197 C199 1.371 . S
N197 C200 1.372 . S
N198 C200 1.361 . S
N198 C201 1.377 . S
C199 N196 1.382 . S
C199 N197 1.371 . S
C199 C202 1.480 . S
C200 N197 1.372 . S
C200 N198 1.361 . S
C200 C208 1.457 . S
C201 N196 1.363 . S
C201 N198 1.377 . S
C201 C214 1.479 . S
C202 C199 1.480 . S
C202 C203 1.383 . S
C202 C207 1.385 . S
C203 H184 0.947 . S
C203 C202 1.383 . S
C203 C204 1.388 . S
C204 H185 0.946 . S
C204 C203 1.388 . S
C204 C205 1.384 . S
C205 C204 1.384 . S
C205 C206 1.377 . S
C206 H186 0.953 . S
C206 C205 1.377 . S
C206 C207 1.369 . S
C207 H187 0.945 . S
C207 C202 1.385 . S
C207 C206 1.369 . S
C208 C200 1.457 . S
C208 C209 1.372 . S
C208 C213 1.364 . S
C209 H188 0.952 . S
C209 C208 1.372 . S
C209 C210 1.389 . S
C210 H189 0.949 . S
C210 C209 1.389 . S
C210 C211 1.387 . S
C211 C210 1.387 . S
C211 C212 1.372 . S
C212 H190 0.950 . S
C212 C211 1.372 . S
C212 C213 1.379 . S
C213 H191 0.948 . S
C213 C208 1.364 . S
C213 C212 1.379 . S
C214 C183 1.383 . S
C214 C201 1.479 . S
C214 C215 1.398 . S
C215 C180 1.382 . S
C215 H192 0.951 . S
C215 C214 1.398 . S
C216 C217 1.384 . S
C216 H229 0.947 . S
C216 C251 1.382 . S
C217 C216 1.384 . S
C217 C218 1.378 . S
C218 C217 1.378 . S
C218 C219 1.378 . S
C218 H230 0.952 . S
C219 C218 1.378 . S
C219 H231 0.950 . S
C219 C250 1.383 . S
H220 C239 0.947 . S
H221 C240 0.946 . S
H222 C242 0.953 . S
H223 C243 0.945 . S
H224 C245 0.952 . S
H225 C246 0.949 . S
H226 C248 0.950 . S
H227 C249 0.948 . S
H228 C251 0.951 . S
H229 C216 0.947 . S
H230 C218 0.952 . S
H231 C219 0.950 . S
N232 C235 1.382 . S
N232 C237 1.363 . S
N233 C235 1.371 . S
N233 C236 1.372 . S
N234 C236 1.361 . S
N234 C237 1.377 . S
C235 N232 1.382 . S
C235 N233 1.371 . S
C235 C238 1.480 . S
C236 N233 1.372 . S
C236 N234 1.361 . S
C236 C244 1.457 . S
C237 N232 1.363 . S
C237 N234 1.377 . S
C237 C250 1.479 . S
C238 C235 1.480 . S
C238 C239 1.383 . S
C238 C243 1.385 . S
C239 H220 0.947 . S
C239 C238 1.383 . S
C239 C240 1.388 . S
C240 H221 0.946 . S
C240 C239 1.388 . S
C240 C241 1.384 . S
C241 C240 1.384 . S
C241 C242 1.377 . S
C242 H222 0.953 . S
C242 C241 1.377 . S
C242 C243 1.369 . S
C243 H223 0.945 . S
C243 C238 1.385 . S
C243 C242 1.369 . S
C244 C236 1.457 . S
C244 C245 1.372 . S
C244 C249 1.364 . S
C245 H224 0.952 . S
C245 C244 1.372 . S
C245 C246 1.389 . S
C246 H225 0.949 . S
C246 C245 1.389 . S
C246 C247 1.387 . S
C247 C246 1.387 . S
C247 C248 1.372 . S
C248 H226 0.950 . S
C248 C247 1.372 . S
C248 C249 1.379 . S
C249 H227 0.948 . S
C249 C244 1.364 . S
C249 C248 1.379 . S
C250 C219 1.383 . S
C250 C237 1.479 . S
C250 C251 1.398 . S
C251 C216 1.382 . S
C251 H228 0.951 . S
C251 C250 1.398 . S
C252 C253 1.384 . S
C252 H265 0.947 . S
C252 C287 1.382 . S
C253 C252 1.384 . S
C253 C254 1.378 . S
C254 C253 1.378 . S
C254 C255 1.378 . S
C254 H266 0.952 . S
C255 C254 1.378 . S
C255 H267 0.950 . S
C255 C286 1.383 . S
H256 C275 0.947 . S
H257 C276 0.946 . S
H258 C278 0.953 . S
H259 C279 0.945 . S
H260 C281 0.952 . S
H261 C282 0.949 . S
H262 C284 0.950 . S
H263 C285 0.948 . S
H264 C287 0.951 . S
H265 C252 0.947 . S
H266 C254 0.952 . S
H267 C255 0.950 . S
N268 C271 1.382 . S
N268 C273 1.363 . S
N269 C271 1.371 . S
N269 C272 1.372 . S
N270 C272 1.361 . S
N270 C273 1.377 . S
C271 N268 1.382 . S
C271 N269 1.371 . S
C271 C274 1.480 . S
C272 N269 1.372 . S
C272 N270 1.361 . S
C272 C280 1.457 . S
C273 N268 1.363 . S
C273 N270 1.377 . S
C273 C286 1.479 . S
C274 C271 1.480 . S
C274 C275 1.383 . S
C274 C279 1.385 . S
C275 H256 0.947 . S
C275 C274 1.383 . S
C275 C276 1.388 . S
C276 H257 0.946 . S
C276 C275 1.388 . S
C276 C277 1.384 . S
C277 C276 1.384 . S
C277 C278 1.377 . S
C278 H258 0.953 . S
C278 C277 1.377 . S
C278 C279 1.369 . S
C279 H259 0.945 . S
C279 C274 1.385 . S
C279 C278 1.369 . S
C280 C272 1.457 . S
C280 C281 1.372 . S
C280 C285 1.364 . S
C281 H260 0.952 . S
C281 C280 1.372 . S
C281 C282 1.389 . S
C282 H261 0.949 . S
C282 C281 1.389 . S
C282 C283 1.387 . S
C283 C282 1.387 . S
C283 C284 1.372 . S
C284 H262 0.950 . S
C284 C283 1.372 . S
C284 C285 1.379 . S
C285 H263 0.948 . S
C285 C280 1.364 . S
C285 C284 1.379 . S
C286 C255 1.383 . S
C286 C273 1.479 . S
C286 C287 1.398 . S
C287 C252 1.382 . S
C287 H264 0.951 . S
C287 C286 1.398 . S
La288 C290 2.928 . S
La288 O308 2.521 . S
La288 O309 2.628 . S
La288 O310 2.554 1_545 S
La288 O311 2.757 1_545 S
La288 O312 2.470 . S
La288 O317 2.482 1_455 S
La288 O319 2.503 1_445 S
La289 C299 2.928 . S
La289 O311 2.482 1_655 S
La289 O313 2.503 1_665 S
La289 O314 2.521 . S
La289 O315 2.628 . S
La289 O316 2.554 1_565 S
La289 O317 2.757 1_565 S
La289 O318 2.470 . S
C290 La288 2.928 . S
C290 C291 1.503 . S
C290 O308 1.261 . S
C290 O309 1.243 . S
C291 C290 1.503 . S
C291 C292 1.394 . S
C291 C296 1.373 . S
C292 C291 1.394 . S
C292 C293 1.380 . S
C292 H320 0.930 . S
C293 C292 1.380 . S
C293 C294 1.376 . S
C293 H321 0.930 . S
C294 C293 1.376 . S
C294 C295 1.370 . S
C295 C294 1.370 . S
C295 C296 1.396 . S
C295 H322 0.929 . S
C296 C291 1.373 . S
C296 C295 1.396 . S
C296 H323 0.929 . S
C297 O310 1.240 . S
C297 O311 1.289 . S
C298 O312 1.258 . S
C298 O313 1.256 . S
C299 La289 2.928 . S
C299 C300 1.503 . S
C299 O314 1.261 . S
C299 O315 1.243 . S
C300 C299 1.503 . S
C300 C301 1.394 . S
C300 C305 1.373 . S
C301 C300 1.394 . S
C301 C302 1.380 . S
C301 H324 0.930 . S
C302 C301 1.380 . S
C302 C303 1.376 . S
C302 H325 0.930 . S
C303 C302 1.376 . S
C303 C304 1.370 . S
C304 C303 1.370 . S
C304 C305 1.396 . S
C304 H326 0.929 . S
C305 C300 1.373 . S
C305 C304 1.396 . S
C305 H327 0.929 . S
C306 O316 1.240 . S
C306 O317 1.289 . S
C307 O318 1.258 . S
C307 O319 1.256 . S
O308 La288 2.521 . S
O308 C290 1.261 . S
O309 La288 2.628 . S
O309 C290 1.243 . S
O310 La288 2.554 1_565 S
O310 C297 1.240 . S
O311 La288 2.757 1_565 S
O311 La289 2.482 1_455 S
O311 C297 1.289 . S
O312 La288 2.470 . S
O312 C298 1.258 . S
O313 La289 2.503 1_445 S
O313 C298 1.256 . S
O314 La289 2.521 . S
O314 C299 1.261 . S
O315 La289 2.628 . S
O315 C299 1.243 . S
O316 La289 2.554 1_545 S
O316 C306 1.240 . S
O317 La288 2.482 1_655 S
O317 La289 2.757 1_545 S
O317 C306 1.289 . S
O318 La289 2.470 . S
O318 C307 1.258 . S
O319 La288 2.503 1_665 S
O319 C307 1.256 . S
H320 C292 0.930 . S
H321 C293 0.930 . S
H322 C295 0.929 . S
H323 C296 0.929 . S
H324 C301 0.930 . S
H325 C302 0.930 . S
H326 C304 0.929 . S
H327 C305 0.929 . S
La328 C330 2.920 1_565 S
La328 O348 2.520 1_565 S
La328 O349 2.615 1_565 S
La328 O350 2.565 . S
La328 O351 2.763 . S
La328 O352 2.462 1_565 S
La328 O357 2.471 1_564 S
La328 O359 2.511 1_554 S
La329 C339 2.928 1_545 S
La329 O351 2.482 1_546 S
La329 O353 2.503 1_556 S
La329 O354 2.521 1_545 S
La329 O355 2.628 1_545 S
La329 O356 2.554 . S
La329 O357 2.757 . S
La329 O358 2.470 1_545 S
C330 La328 2.920 1_545 S
C330 C331 1.503 . S
C330 O348 1.261 . S
C330 O349 1.243 . S
C331 C330 1.503 . S
C331 C332 1.394 . S
C331 C336 1.373 . S
C332 C331 1.394 . S
C332 C333 1.380 . S
C332 H360 0.930 . S
C333 C332 1.380 . S
C333 C334 1.376 . S
C333 H361 0.930 . S
C334 C333 1.376 . S
C334 C335 1.370 . S
C335 C334 1.370 . S
C335 C336 1.396 . S
C335 H362 0.929 . S
C336 C331 1.373 . S
C336 C335 1.396 . S
C336 H363 0.929 . S
C337 O350 1.240 . S
C337 O351 1.289 . S
C338 O352 1.258 . S
C338 O353 1.256 . S
C339 La329 2.928 1_565 S
C339 C340 1.503 . S
C339 O354 1.261 . S
C339 O355 1.243 . S
C340 C339 1.503 . S
C340 C341 1.394 . S
C340 C345 1.373 . S
C341 C340 1.394 . S
C341 C342 1.380 . S
C341 H364 0.930 . S
C342 C341 1.380 . S
C342 C343 1.376 . S
C342 H365 0.930 . S
C343 C342 1.376 . S
C343 C344 1.370 . S
C344 C343 1.370 . S
C344 C345 1.396 . S
C344 H366 0.929 . S
C345 C340 1.373 . S
C345 C344 1.396 . S
C345 H367 0.929 . S
C346 O356 1.240 . S
C346 O357 1.289 . S
C347 O358 1.258 . S
C347 O359 1.256 . S
O348 La328 2.520 1_545 S
O348 C330 1.261 . S
O349 La328 2.615 1_545 S
O349 C330 1.243 . S
O350 La328 2.565 . S
O350 C337 1.240 . S
O351 La328 2.763 . S
O351 La329 2.482 1_564 S
O351 C337 1.289 . S
O352 La328 2.462 1_545 S
O352 C338 1.258 . S
O353 La329 2.503 1_554 S
O353 C338 1.256 . S
O354 La329 2.521 1_565 S
O354 C339 1.261 . S
O355 La329 2.628 1_565 S
O355 C339 1.243 . S
O356 La329 2.554 . S
O356 C346 1.240 . S
O357 La328 2.471 1_546 S
O357 La329 2.757 . S
O357 C346 1.289 . S
O358 La329 2.470 1_565 S
O358 C347 1.258 . S
O359 La328 2.511 1_556 S
O359 C347 1.256 . S
H360 C332 0.930 . S
H361 C333 0.930 . S
H362 C335 0.929 . S
H363 C336 0.929 . S
H364 C341 0.930 . S
H365 C342 0.930 . S
H366 C344 0.929 . S
H367 C345 0.929 . S
La368 C370 2.928 . S
La368 O388 2.521 . S
La368 O389 2.628 . S
La368 O390 2.554 . S
La368 O391 2.757 . S
La368 O392 2.470 . S
La368 O397 2.482 . S
La368 O399 2.503 . S
La369 C379 2.928 . S
La369 O391 2.482 . S
La369 O393 2.503 . S
La369 O394 2.521 . S
La369 O395 2.628 . S
La369 O396 2.554 . S
La369 O397 2.757 . S
La369 O398 2.470 . S
C370 La368 2.928 . S
C370 C371 1.503 . S
C370 O388 1.261 . S
C370 O389 1.243 . S
C371 C370 1.503 . S
C371 C372 1.394 . S
C371 C376 1.373 . S
C372 C371 1.394 . S
C372 C373 1.380 . S
C372 H400 0.930 . S
C373 C372 1.380 . S
C373 C374 1.376 . S
C373 H401 0.930 . S
C374 C373 1.376 . S
C374 C375 1.370 . S
C375 C374 1.370 . S
C375 C376 1.396 . S
C375 H402 0.929 . S
C376 C371 1.373 . S
C376 C375 1.396 . S
C376 H403 0.929 . S
C377 O390 1.240 . S
C377 O391 1.289 . S
C378 O392 1.258 . S
C378 O393 1.256 . S
C379 La369 2.928 . S
C379 C380 1.503 . S
C379 O394 1.261 . S
C379 O395 1.243 . S
C380 C379 1.503 . S
C380 C381 1.394 . S
C380 C385 1.373 . S
C381 C380 1.394 . S
C381 C382 1.380 . S
C381 H404 0.930 . S
C382 C381 1.380 . S
C382 C383 1.376 . S
C382 H405 0.930 . S
C383 C382 1.376 . S
C383 C384 1.370 . S
C384 C383 1.370 . S
C384 C385 1.396 . S
C384 H406 0.929 . S
C385 C380 1.373 . S
C385 C384 1.396 . S
C385 H407 0.929 . S
C386 O396 1.240 . S
C386 O397 1.289 . S
C387 O398 1.258 . S
C387 O399 1.256 . S
O388 La368 2.521 . S
O388 C370 1.261 . S
O389 La368 2.628 . S
O389 C370 1.243 . S
O390 La368 2.554 . S
O390 C377 1.240 . S
O391 La368 2.757 . S
O391 La369 2.482 . S
O391 C377 1.289 . S
O392 La368 2.470 . S
O392 C378 1.258 . S
O393 La369 2.503 . S
O393 C378 1.256 . S
O394 La369 2.521 . S
O394 C379 1.261 . S
O395 La369 2.628 . S
O395 C379 1.243 . S
O396 La369 2.554 . S
O396 C386 1.240 . S
O397 La368 2.482 . S
O397 La369 2.757 . S
O397 C386 1.289 . S
O398 La369 2.470 . S
O398 C387 1.258 . S
O399 La368 2.503 . S
O399 C387 1.256 . S
H400 C372 0.930 . S
H401 C373 0.930 . S
H402 C375 0.929 . S
H403 C376 0.929 . S
H404 C381 0.930 . S
H405 C382 0.930 . S
H406 C384 0.929 . S
H407 C385 0.929 . S
La408 C410 2.928 . S
La408 O428 2.521 . S
La408 O429 2.628 . S
La408 O430 2.554 1_455 S
La408 O431 2.757 1_455 S
La408 O432 2.470 . S
La408 O437 2.482 1_554 S
La408 O439 2.503 1_454 S
La409 C419 2.939 . S
La409 O431 2.486 1_556 S
La409 O433 2.492 1_656 S
La409 O434 2.528 . S
La409 O435 2.641 . S
La409 O436 2.547 1_655 S
La409 O437 2.749 1_655 S
La409 O438 2.478 . S
C410 La408 2.928 . S
C410 C411 1.503 . S
C410 O428 1.261 . S
C410 O429 1.243 . S
C411 C410 1.503 . S
C411 C412 1.394 . S
C411 C416 1.373 . S
C412 C411 1.394 . S
C412 C413 1.380 . S
C412 H440 0.930 . S
C413 C412 1.380 . S
C413 C414 1.376 . S
C413 H441 0.930 . S
C414 C413 1.376 . S
C414 C415 1.370 . S
C415 C414 1.370 . S
C415 C416 1.396 . S
C415 H442 0.929 . S
C416 C411 1.373 . S
C416 C415 1.396 . S
C416 H443 0.929 . S
C417 O430 1.240 . S
C417 O431 1.289 . S
C418 O432 1.258 . S
C418 O433 1.256 . S
C419 La409 2.939 . S
C419 C420 1.503 . S
C419 O434 1.261 . S
C419 O435 1.243 . S
C420 C419 1.503 . S
C420 C421 1.394 . S
C420 C425 1.373 . S
C421 C420 1.394 . S
C421 C422 1.380 . S
C421 H444 0.930 . S
C422 C421 1.380 . S
C422 C423 1.376 . S
C422 H445 0.930 . S
C423 C422 1.376 . S
C423 C424 1.370 . S
C424 C423 1.370 . S
C424 C425 1.396 . S
C424 H446 0.929 . S
C425 C420 1.373 . S
C425 C424 1.396 . S
C425 H447 0.929 . S
C426 O436 1.240 . S
C426 O437 1.289 . S
C427 O438 1.258 . S
C427 O439 1.256 . S
O428 La408 2.521 . S
O428 C410 1.261 . S
O429 La408 2.628 . S
O429 C410 1.243 . S
O430 La408 2.554 1_655 S
O430 C417 1.240 . S
O431 La408 2.757 1_655 S
O431 La409 2.486 1_554 S
O431 C417 1.289 . S
O432 La408 2.470 . S
O432 C418 1.258 . S
O433 La409 2.492 1_454 S
O433 C418 1.256 . S
O434 La409 2.528 . S
O434 C419 1.261 . S
O435 La409 2.641 . S
O435 C419 1.243 . S
O436 La409 2.547 1_455 S
O436 C426 1.240 . S
O437 La408 2.482 1_556 S
O437 La409 2.749 1_455 S
O437 C426 1.289 . S
O438 La409 2.478 . S
O438 C427 1.258 . S
O439 La408 2.503 1_656 S
O439 C427 1.256 . S
H440 C412 0.930 . S
H441 C413 0.930 . S
H442 C415 0.929 . S
H443 C416 0.929 . S
H444 C421 0.930 . S
H445 C422 0.930 . S
H446 C424 0.929 . S
H447 C425 0.929 . S
H448 C456 0.950 . S
H449 C461 0.950 . S
H450 C458 0.950 . S
H451 C460 0.950 . S
H452 C462 0.950 . S
H453 C464 0.950 . S
H454 C466 0.950 . S
H455 C467 0.950 . S
C456 H448 0.950 . S
C456 C457 1.386 . S
C456 C458 1.391 . S
C457 C456 1.386 . S
C457 C461 1.393 . S
C458 H450 0.950 . S
C458 C456 1.391 . S
C458 C459 1.400 . S
C459 C458 1.400 . S
C459 C460 1.398 . S
C459 C465 1.491 . S
C460 H451 0.950 . S
C460 C459 1.398 . S
C460 C461 1.391 . S
C461 H449 0.950 . S
C461 C457 1.393 . S
C461 C460 1.391 . S
C462 H452 0.950 . S
C462 C463 1.386 . S
C462 C464 1.391 . S
C463 C462 1.386 . S
C463 C467 1.393 . S
C464 H453 0.950 . S
C464 C462 1.391 . S
C464 C465 1.400 . S
C465 C459 1.491 . S
C465 C464 1.400 . S
C465 C466 1.398 . S
C466 H454 0.950 . S
C466 C465 1.398 . S
C466 C467 1.391 . S
C467 H455 0.950 . S
C467 C463 1.393 . S
C467 C466 1.391 . S
H468 C476 0.950 . S
H469 C481 0.950 . S
H470 C478 0.950 . S
H471 C480 0.950 . S
H472 C482 0.950 . S
H473 C484 0.950 . S
H474 C486 0.950 . S
H475 C487 0.950 . S
C476 H468 0.950 . S
C476 C477 1.386 . S
C476 C478 1.391 . S
C477 C476 1.386 . S
C477 C481 1.393 . S
C478 H470 0.950 . S
C478 C476 1.391 . S
C478 C479 1.400 . S
C479 C478 1.400 . S
C479 C480 1.398 . S
C479 C485 1.491 . S
C480 H471 0.950 . S
C480 C479 1.398 . S
C480 C481 1.391 . S
C481 H469 0.950 . S
C481 C477 1.393 . S
C481 C480 1.391 . S
C482 H472 0.950 . S
C482 C483 1.386 . S
C482 C484 1.391 . S
C483 C482 1.386 . S
C483 C487 1.393 . S
C484 H473 0.950 . S
C484 C482 1.391 . S
C484 C485 1.400 . S
C485 C479 1.491 . S
C485 C484 1.400 . S
C485 C486 1.398 . S
C486 H474 0.950 . S
C486 C485 1.398 . S
C486 C487 1.391 . S
C487 H475 0.950 . S
C487 C483 1.393 . S
C487 C486 1.391 . S
H488 C496 0.950 . S
H489 C501 0.950 . S
H490 C498 0.950 . S
H491 C500 0.950 . S
H492 C502 0.950 . S
H493 C504 0.950 . S
H494 C506 0.950 . S
H495 C507 0.950 . S
C496 H488 0.950 . S
C496 C497 1.386 . S
C496 C498 1.391 . S
C497 C496 1.386 . S
C497 C501 1.393 . S
C498 H490 0.950 . S
C498 C496 1.391 . S
C498 C499 1.400 . S
C499 C498 1.400 . S
C499 C500 1.398 . S
C499 C505 1.491 . S
C500 H491 0.950 . S
C500 C499 1.398 . S
C500 C501 1.391 . S
C501 H489 0.950 . S
C501 C497 1.393 . S
C501 C500 1.391 . S
C502 H492 0.950 . S
C502 C503 1.386 . S
C502 C504 1.391 . S
C503 C502 1.386 . S
C503 C507 1.393 . S
C504 H493 0.950 . S
C504 C502 1.391 . S
C504 C505 1.400 . S
C505 C499 1.491 . S
C505 C504 1.400 . S
C505 C506 1.398 . S
C506 H494 0.950 . S
C506 C505 1.398 . S
C506 C507 1.391 . S
C507 H495 0.950 . S
C507 C503 1.393 . S
C507 C506 1.391 . S
H508 C516 0.950 . S
H509 C521 0.950 . S
H510 C518 0.950 . S
H511 C520 0.950 . S
H512 C522 0.950 . S
H513 C524 0.950 . S
H514 C526 0.950 . S
H515 C527 0.950 . S
C516 H508 0.950 . S
C516 C517 1.386 . S
C516 C518 1.391 . S
C517 C516 1.386 . S
C517 C521 1.393 . S
C518 H510 0.950 . S
C518 C516 1.391 . S
C518 C519 1.400 . S
C519 C518 1.400 . S
C519 C520 1.398 . S
C519 C525 1.491 . S
C520 H511 0.950 . S
C520 C519 1.398 . S
C520 C521 1.391 . S
C521 H509 0.950 . S
C521 C517 1.393 . S
C521 C520 1.391 . S
C522 H512 0.950 . S
C522 C523 1.386 . S
C522 C524 1.391 . S
C523 C522 1.386 . S
C523 C527 1.393 . S
C524 H513 0.950 . S
C524 C522 1.391 . S
C524 C525 1.400 . S
C525 C519 1.491 . S
C525 C524 1.400 . S
C525 C526 1.398 . S
C526 H514 0.950 . S
C526 C525 1.398 . S
C526 C527 1.391 . S
C527 H515 0.950 . S
C527 C523 1.393 . S
C527 C526 1.391 . S
H528 C536 0.950 . S
H529 C541 0.950 . S
H530 C538 0.950 . S
H531 C540 0.950 . S
H532 C542 0.950 . S
H533 C544 0.950 . S
H534 C546 0.950 . S
H535 C547 0.950 . S
C536 H528 0.950 . S
C536 C537 1.386 . S
C536 C538 1.391 . S
C537 C536 1.386 . S
C537 C541 1.393 . S
C538 H530 0.950 . S
C538 C536 1.391 . S
C538 C539 1.400 . S
C539 C538 1.400 . S
C539 C540 1.398 . S
C539 C545 1.491 . S
C540 H531 0.950 . S
C540 C539 1.398 . S
C540 C541 1.391 . S
C541 H529 0.950 . S
C541 C537 1.393 . S
C541 C540 1.391 . S
C542 H532 0.950 . S
C542 C543 1.386 . S
C542 C544 1.391 . S
C543 C542 1.386 . S
C543 C547 1.393 . S
C544 H533 0.950 . S
C544 C542 1.391 . S
C544 C545 1.400 . S
C545 C539 1.491 . S
C545 C544 1.400 . S
C545 C546 1.398 . S
C546 H534 0.950 . S
C546 C545 1.398 . S
C546 C547 1.391 . S
C547 H535 0.950 . S
C547 C543 1.393 . S
C547 C546 1.391 . S
H548 C556 0.950 . S
H549 C561 0.950 . S
H550 C558 0.950 . S
H551 C560 0.950 . S
H552 C562 0.976 . S
H553 C564 0.950 . S
H554 C566 0.950 . S
H555 C567 0.950 . S
C556 H548 0.950 . S
C556 C557 1.386 . S
C556 C558 1.391 . S
C557 C556 1.386 . S
C557 C561 1.393 . S
C558 H550 0.950 . S
C558 C556 1.391 . S
C558 C559 1.400 . S
C559 C558 1.400 . S
C559 C560 1.398 . S
C559 C565 1.491 . S
C560 H551 0.950 . S
C560 C559 1.398 . S
C560 C561 1.391 . S
C561 H549 0.950 . S
C561 C557 1.393 . S
C561 C560 1.391 . S
C562 H552 0.976 . S
C562 C563 1.386 . S
C562 C564 1.391 . S
C563 C562 1.386 . S
C563 C567 1.393 . S
C564 H553 0.950 . S
C564 C562 1.391 . S
C564 C565 1.400 . S
C565 C559 1.491 . S
C565 C564 1.400 . S
C565 C566 1.398 . S
C566 H554 0.950 . S
C566 C565 1.398 . S
C566 C567 1.391 . S
C567 H555 0.950 . S
C567 C563 1.393 . S
C567 C566 1.391 . S
H568 C576 0.950 . S
H569 C581 0.950 . S
H570 C578 0.950 . S
H571 C580 0.950 . S
H572 C582 0.950 . S
H573 C584 0.950 . S
H574 C586 0.950 . S
H575 C587 0.950 . S
C576 H568 0.950 . S
C576 C577 1.386 . S
C576 C578 1.391 . S
C577 C576 1.386 . S
C577 C581 1.393 . S
C578 H570 0.950 . S
C578 C576 1.391 . S
C578 C579 1.400 . S
C579 C578 1.400 . S
C579 C580 1.398 . S
C579 C585 1.491 . S
C580 H571 0.950 . S
C580 C579 1.398 . S
C580 C581 1.391 . S
C581 H569 0.950 . S
C581 C577 1.393 . S
C581 C580 1.391 . S
C582 H572 0.950 . S
C582 C583 1.386 . S
C582 C584 1.391 . S
C583 C582 1.386 . S
C583 C587 1.393 . S
C584 H573 0.950 . S
C584 C582 1.391 . S
C584 C585 1.400 . S
C585 C579 1.491 . S
C585 C584 1.400 . S
C585 C586 1.398 . S
C586 H574 0.950 . S
C586 C585 1.398 . S
C586 C587 1.391 . S
C587 H575 0.950 . S
C587 C583 1.393 . S
C587 C586 1.391 . S
H588 C596 0.950 . S
H589 C601 0.950 . S
H590 C598 0.950 . S
H591 C600 0.950 . S
H592 C602 0.950 . S
H593 C604 0.950 . S
H594 C606 0.950 . S
H595 C607 0.950 . S
C596 H588 0.950 . S
C596 C597 1.386 . S
C596 C598 1.391 . S
C597 C596 1.386 . S
C597 C601 1.393 . S
C598 H590 0.950 . S
C598 C596 1.391 . S
C598 C599 1.400 . S
C599 C598 1.400 . S
C599 C600 1.398 . S
C599 C605 1.491 . S
C600 H591 0.950 . S
C600 C599 1.398 . S
C600 C601 1.391 . S
C601 H589 0.950 . S
C601 C597 1.393 . S
C601 C600 1.391 . S
C602 H592 0.950 . S
C602 C603 1.386 . S
C602 C604 1.391 . S
C603 C602 1.386 . S
C603 C607 1.393 . S
C604 H593 0.950 . S
C604 C602 1.391 . S
C604 C605 1.400 . S
C605 C599 1.491 . S
C605 C604 1.400 . S
C605 C606 1.398 . S
C606 H594 0.950 . S
C606 C605 1.398 . S
C606 C607 1.391 . S
C607 H595 0.950 . S
C607 C603 1.393 . S
C607 C606 1.391 . S
H608 C616 0.950 . S
H609 C621 0.950 . S
H610 C618 0.950 . S
H611 C620 0.950 . S
H612 C622 0.950 . S
H613 C624 0.950 . S
H614 C626 0.950 . S
H615 C627 0.950 . S
C616 H608 0.950 . S
C616 C617 1.386 . S
C616 C618 1.391 . S
C617 C616 1.386 . S
C617 C621 1.393 . S
C618 H610 0.950 . S
C618 C616 1.391 . S
C618 C619 1.400 . S
C619 C618 1.400 . S
C619 C620 1.398 . S
C619 C625 1.491 . S
C620 H611 0.950 . S
C620 C619 1.398 . S
C620 C621 1.391 . S
C621 H609 0.950 . S
C621 C617 1.393 . S
C621 C620 1.391 . S
C622 H612 0.950 . S
C622 C623 1.386 . S
C622 C624 1.391 . S
C623 C622 1.386 . S
C623 C627 1.393 . S
C624 H613 0.950 . S
C624 C622 1.391 . S
C624 C625 1.400 . S
C625 C619 1.491 . S
C625 C624 1.400 . S
C625 C626 1.398 . S
C626 H614 0.950 . S
C626 C625 1.398 . S
C626 C627 1.391 . S
C627 H615 0.950 . S
C627 C623 1.393 . S
C627 C626 1.391 . S
H628 C636 0.950 . S
H629 C641 0.950 . S
H630 C638 0.950 . S
H631 C640 0.950 . S
H632 C642 0.950 . S
H633 C644 0.950 . S
H634 C646 0.950 . S
H635 C647 0.950 . S
C636 H628 0.950 . S
C636 C637 1.386 . S
C636 C638 1.391 . S
C637 C636 1.386 . S
C637 C641 1.393 . S
C638 H630 0.950 . S
C638 C636 1.391 . S
C638 C639 1.400 . S
C639 C638 1.400 . S
C639 C640 1.398 . S
C639 C645 1.491 . S
C640 H631 0.950 . S
C640 C639 1.398 . S
C640 C641 1.391 . S
C641 H629 0.950 . S
C641 C637 1.393 . S
C641 C640 1.391 . S
C642 H632 0.950 . S
C642 C643 1.386 . S
C642 C644 1.391 . S
C643 C642 1.386 . S
C643 C647 1.393 . S
C644 H633 0.950 . S
C644 C642 1.391 . S
C644 C645 1.400 . S
C645 C639 1.491 . S
C645 C644 1.400 . S
C645 C646 1.398 . S
C646 H634 0.950 . S
C646 C645 1.398 . S
C646 C647 1.391 . S
C647 H635 0.950 . S
C647 C643 1.393 . S
C647 C646 1.391 . S
H648 C656 0.950 . S
H649 C661 0.950 . S
H650 C658 0.950 . S
H651 C660 0.950 . S
H652 C662 0.950 . S
H653 C664 0.950 . S
H654 C666 0.950 . S
H655 C667 0.950 . S
C656 H648 0.950 . S
C656 C657 1.386 . S
C656 C658 1.391 . S
C657 C656 1.386 . S
C657 C661 1.393 . S
C658 H650 0.950 . S
C658 C656 1.391 . S
C658 C659 1.400 . S
C659 C658 1.400 . S
C659 C660 1.398 . S
C659 C665 1.491 . S
C660 H651 0.950 . S
C660 C659 1.398 . S
C660 C661 1.391 . S
C661 H649 0.950 . S
C661 C657 1.393 . S
C661 C660 1.391 . S
C662 H652 0.950 . S
C662 C663 1.386 . S
C662 C664 1.391 . S
C663 C662 1.386 . S
C663 C667 1.393 . S
C664 H653 0.950 . S
C664 C662 1.391 . S
C664 C665 1.400 . S
C665 C659 1.491 . S
C665 C664 1.400 . S
C665 C666 1.398 . S
C666 H654 0.950 . S
C666 C665 1.398 . S
C666 C667 1.391 . S
C667 H655 0.950 . S
C667 C663 1.393 . S
C667 C666 1.391 . S
H668 C676 0.950 . S
H669 C681 0.950 . S
H670 C678 0.950 . S
H671 C680 0.950 . S
H672 C682 0.950 . S
H673 C684 0.950 . S
H674 C686 0.950 . S
H675 C687 0.950 . S
C676 H668 0.950 . S
C676 C677 1.386 . S
C676 C678 1.391 . S
C677 C676 1.386 . S
C677 C681 1.393 . S
C678 H670 0.950 . S
C678 C676 1.391 . S
C678 C679 1.400 . S
C679 C678 1.400 . S
C679 C680 1.398 . S
C679 C685 1.491 . S
C680 H671 0.950 . S
C680 C679 1.398 . S
C680 C681 1.391 . S
C681 H669 0.950 . S
C681 C677 1.393 . S
C681 C680 1.391 . S
C682 H672 0.950 . S
C682 C683 1.386 . S
C682 C684 1.391 . S
C683 C682 1.386 . S
C683 C687 1.393 . S
C684 H673 0.950 . S
C684 C682 1.391 . S
C684 C685 1.400 . S
C685 C679 1.491 . S
C685 C684 1.400 . S
C685 C686 1.398 . S
C686 H674 0.950 . S
C686 C685 1.398 . S
C686 C687 1.391 . S
C687 H675 0.950 . S
C687 C683 1.393 . S
C687 C686 1.391 . S
H688 C696 0.950 . S
H689 C701 0.950 . S
H690 C698 0.950 . S
H691 C700 0.950 . S
H692 C702 0.950 . S
H693 C704 0.950 . S
H694 C706 0.950 . S
H695 C707 0.950 . S
C696 H688 0.950 . S
C696 C697 1.386 . S
C696 C698 1.391 . S
C697 C696 1.386 . S
C697 C701 1.393 . S
C698 H690 0.950 . S
C698 C696 1.391 . S
C698 C699 1.400 . S
C699 C698 1.400 . S
C699 C700 1.398 . S
C699 C705 1.491 . S
C700 H691 0.950 . S
C700 C699 1.398 . S
C700 C701 1.391 . S
C701 H689 0.950 . S
C701 C697 1.393 . S
C701 C700 1.391 . S
C702 H692 0.950 . S
C702 C703 1.386 . S
C702 C704 1.391 . S
C703 C702 1.386 . S
C703 C707 1.393 . S
C704 H693 0.950 . S
C704 C702 1.391 . S
C704 C705 1.400 . S
C705 C699 1.491 . S
C705 C704 1.400 . S
C705 C706 1.398 . S
C706 H694 0.950 . S
C706 C705 1.398 . S
C706 C707 1.391 . S
C707 H695 0.950 . S
C707 C703 1.393 . S
C707 C706 1.391 . S
H708 C716 0.950 . S
H709 C721 0.950 . S
H710 C718 0.950 . S
H711 C720 0.950 . S
H712 C722 0.950 . S
H713 C724 0.950 . S
H714 C726 0.950 . S
H715 C727 0.950 . S
C716 H708 0.950 . S
C716 C717 1.386 . S
C716 C718 1.391 . S
C717 C716 1.386 . S
C717 C721 1.393 . S
C718 H710 0.950 . S
C718 C716 1.391 . S
C718 C719 1.400 . S
C719 C718 1.400 . S
C719 C720 1.398 . S
C719 C725 1.491 . S
C720 H711 0.950 . S
C720 C719 1.398 . S
C720 C721 1.391 . S
C721 H709 0.950 . S
C721 C717 1.393 . S
C721 C720 1.391 . S
C722 H712 0.950 . S
C722 C723 1.386 . S
C722 C724 1.391 . S
C723 C722 1.386 . S
C723 C727 1.393 . S
C724 H713 0.950 . S
C724 C722 1.391 . S
C724 C725 1.400 . S
C725 C719 1.491 . S
C725 C724 1.400 . S
C725 C726 1.398 . S
C726 H714 0.950 . S
C726 C725 1.398 . S
C726 C727 1.391 . S
C727 H715 0.950 . S
C727 C723 1.393 . S
C727 C726 1.391 . S
H728 C736 0.950 . S
H729 C741 0.950 . S
H730 C738 0.950 . S
H731 C740 0.950 . S
H732 C742 0.950 . S
H733 C744 0.950 . S
H734 C746 0.950 . S
H735 C747 0.950 . S
C736 H728 0.950 . S
C736 C737 1.386 . S
C736 C738 1.391 . S
C737 C736 1.386 . S
C737 C741 1.393 . S
C738 H730 0.950 . S
C738 C736 1.391 . S
C738 C739 1.400 . S
C739 C738 1.400 . S
C739 C740 1.398 . S
C739 C745 1.491 . S
C740 H731 0.950 . S
C740 C739 1.398 . S
C740 C741 1.391 . S
C741 H729 0.950 . S
C741 C737 1.393 . S
C741 C740 1.391 . S
C742 H732 0.950 . S
C742 C743 1.386 . S
C742 C744 1.391 . S
C743 C742 1.386 . S
C743 C747 1.393 . S
C744 H733 0.950 . S
C744 C742 1.391 . S
C744 C745 1.400 . S
C745 C739 1.491 . S
C745 C744 1.400 . S
C745 C746 1.398 . S
C746 H734 0.950 . S
C746 C745 1.398 . S
C746 C747 1.391 . S
C747 H735 0.950 . S
C747 C743 1.393 . S
C747 C746 1.391 . S
H748 C756 0.950 . S
H749 C761 0.950 . S
H750 C758 0.950 . S
H751 C760 0.950 . S
H752 C762 0.950 . S
H753 C764 0.950 . S
H754 C766 0.950 . S
H755 C767 0.950 . S
C756 H748 0.950 . S
C756 C757 1.386 . S
C756 C758 1.391 . S
C757 C756 1.386 . S
C757 C761 1.393 . S
C758 H750 0.950 . S
C758 C756 1.391 . S
C758 C759 1.400 . S
C759 C758 1.400 . S
C759 C760 1.398 . S
C759 C765 1.491 . S
C760 H751 0.950 . S
C760 C759 1.398 . S
C760 C761 1.391 . S
C761 H749 0.950 . S
C761 C757 1.393 . S
C761 C760 1.391 . S
C762 H752 0.950 . S
C762 C763 1.386 . S
C762 C764 1.391 . S
C763 C762 1.386 . S
C763 C767 1.393 . S
C764 H753 0.950 . S
C764 C762 1.391 . S
C764 C765 1.400 . S
C765 C759 1.491 . S
C765 C764 1.400 . S
C765 C766 1.398 . S
C766 H754 0.950 . S
C766 C765 1.398 . S
C766 C767 1.391 . S
C767 H755 0.950 . S
C767 C763 1.393 . S
C767 C766 1.391 . S
H768 C776 0.950 . S
H769 C781 0.950 . S
H770 C778 0.950 . S
H771 C780 0.950 . S
H772 C782 0.950 . S
H773 C784 0.950 . S
H774 C786 0.950 . S
H775 C787 0.950 . S
C776 H768 0.950 . S
C776 C777 1.386 . S
C776 C778 1.391 . S
C777 C776 1.386 . S
C777 C781 1.393 . S
C778 H770 0.950 . S
C778 C776 1.391 . S
C778 C779 1.400 . S
C779 C778 1.400 . S
C779 C780 1.398 . S
C779 C785 1.491 . S
C780 H771 0.950 . S
C780 C779 1.398 . S
C780 C781 1.391 . S
C781 H769 0.950 . S
C781 C777 1.393 . S
C781 C780 1.391 . S
C782 H772 0.950 . S
C782 C783 1.386 . S
C782 C784 1.391 . S
C783 C782 1.386 . S
C783 C787 1.393 . S
C784 H773 0.950 . S
C784 C782 1.391 . S
C784 C785 1.400 . S
C785 C779 1.491 . S
C785 C784 1.400 . S
C785 C786 1.398 . S
C786 H774 0.950 . S
C786 C785 1.398 . S
C786 C787 1.391 . S
C787 H775 0.950 . S
C787 C783 1.393 . S
C787 C786 1.391 . S
H788 C796 0.950 . S
H789 C801 0.950 . S
H790 C798 0.950 . S
H791 C800 0.950 . S
H792 C802 0.950 . S
H793 C804 0.950 . S
H794 C806 0.950 . S
H795 C807 0.950 . S
C796 H788 0.950 . S
C796 C797 1.386 . S
C796 C798 1.391 . S
C797 C796 1.386 . S
C797 C801 1.393 . S
C798 H790 0.950 . S
C798 C796 1.391 . S
C798 C799 1.400 . S
C799 C798 1.400 . S
C799 C800 1.398 . S
C799 C805 1.491 . S
C800 H791 0.950 . S
C800 C799 1.398 . S
C800 C801 1.391 . S
C801 H789 0.950 . S
C801 C797 1.393 . S
C801 C800 1.391 . S
C802 H792 0.950 . S
C802 C803 1.386 . S
C802 C804 1.391 . S
C803 C802 1.386 . S
C803 C807 1.393 . S
C804 H793 0.950 . S
C804 C802 1.391 . S
C804 C805 1.400 . S
C805 C799 1.491 . S
C805 C804 1.400 . S
C805 C806 1.398 . S
C806 H794 0.950 . S
C806 C805 1.398 . S
C806 C807 1.391 . S
C807 H795 0.950 . S
C807 C803 1.393 . S
C807 C806 1.391 . S
H808 C816 0.950 . S
H809 C821 0.950 . S
H810 C818 0.950 . S
H811 C820 0.950 . S
H812 C822 0.950 . S
H813 C824 0.950 . S
H814 C826 0.950 . S
H815 C827 0.950 . S
C816 H808 0.950 . S
C816 C817 1.386 . S
C816 C818 1.391 . S
C817 C816 1.386 . S
C817 C821 1.393 . S
C818 H810 0.950 . S
C818 C816 1.391 . S
C818 C819 1.400 . S
C819 C818 1.400 . S
C819 C820 1.398 . S
C819 C825 1.491 . S
C820 H811 0.950 . S
C820 C819 1.398 . S
C820 C821 1.391 . S
C821 H809 0.950 . S
C821 C817 1.393 . S
C821 C820 1.391 . S
C822 H812 0.950 . S
C822 C823 1.386 . S
C822 C824 1.391 . S
C823 C822 1.386 . S
C823 C827 1.393 . S
C824 H813 0.950 . S
C824 C822 1.391 . S
C824 C825 1.400 . S
C825 C819 1.491 . S
C825 C824 1.400 . S
C825 C826 1.398 . S
C826 H814 0.950 . S
C826 C825 1.398 . S
C826 C827 1.391 . S
C827 H815 0.950 . S
C827 C823 1.393 . S
C827 C826 1.391 . S
H828 C836 0.950 . S
H829 C841 0.950 . S
H830 C838 0.950 . S
H831 C840 0.950 . S
H832 C842 0.950 . S
H833 C844 0.950 . S
H834 C846 0.950 . S
H835 C847 0.950 . S
C836 H828 0.950 . S
C836 C837 1.386 . S
C836 C838 1.391 . S
C837 C836 1.386 . S
C837 C841 1.393 . S
C838 H830 0.950 . S
C838 C836 1.391 . S
C838 C839 1.400 . S
C839 C838 1.400 . S
C839 C840 1.398 . S
C839 C845 1.491 . S
C840 H831 0.950 . S
C840 C839 1.398 . S
C840 C841 1.391 . S
C841 H829 0.950 . S
C841 C837 1.393 . S
C841 C840 1.391 . S
C842 H832 0.950 . S
C842 C843 1.386 . S
C842 C844 1.391 . S
C843 C842 1.386 . S
C843 C847 1.393 . S
C844 H833 0.950 . S
C844 C842 1.391 . S
C844 C845 1.400 . S
C845 C839 1.491 . S
C845 C844 1.400 . S
C845 C846 1.398 . S
C846 H834 0.950 . S
C846 C845 1.398 . S
C846 C847 1.391 . S
C847 H835 0.950 . S
C847 C843 1.393 . S
C847 C846 1.391 . S
H848 C856 0.950 . S
H849 C861 0.950 . S
H850 C858 0.950 . S
H851 C860 0.950 . S
H852 C862 0.950 . S
H853 C864 0.950 . S
H854 C866 0.950 . S
H855 C867 0.950 . S
C856 H848 0.950 . S
C856 C857 1.386 . S
C856 C858 1.391 . S
C857 C856 1.386 . S
C857 C861 1.393 . S
C858 H850 0.950 . S
C858 C856 1.391 . S
C858 C859 1.400 . S
C859 C858 1.400 . S
C859 C860 1.398 . S
C859 C865 1.491 . S
C860 H851 0.950 . S
C860 C859 1.398 . S
C860 C861 1.391 . S
C861 H849 0.950 . S
C861 C857 1.393 . S
C861 C860 1.391 . S
C862 H852 0.950 . S
C862 C863 1.386 . S
C862 C864 1.391 . S
C863 C862 1.386 . S
C863 C867 1.393 . S
C864 H853 0.950 . S
C864 C862 1.391 . S
C864 C865 1.400 . S
C865 C859 1.491 . S
C865 C864 1.400 . S
C865 C866 1.398 . S
C866 H854 0.950 . S
C866 C865 1.398 . S
C866 C867 1.391 . S
C867 H855 0.950 . S
C867 C863 1.393 . S
C867 C866 1.391 . S
H868 C876 0.950 . S
H869 C881 0.950 . S
H870 C878 0.950 . S
H871 C880 0.950 . S
H872 C882 0.950 . S
H873 C884 0.950 . S
H874 C886 0.950 . S
H875 C887 0.950 . S
C876 H868 0.950 . S
C876 C877 1.386 . S
C876 C878 1.391 . S
C877 C876 1.386 . S
C877 C881 1.393 . S
C878 H870 0.950 . S
C878 C876 1.391 . S
C878 C879 1.400 . S
C879 C878 1.400 . S
C879 C880 1.398 . S
C879 C885 1.491 . S
C880 H871 0.950 . S
C880 C879 1.398 . S
C880 C881 1.391 . S
C881 H869 0.950 . S
C881 C877 1.393 . S
C881 C880 1.391 . S
C882 H872 0.950 . S
C882 C883 1.386 . S
C882 C884 1.391 . S
C883 C882 1.386 . S
C883 C887 1.393 . S
C884 H873 0.950 . S
C884 C882 1.391 . S
C884 C885 1.400 . S
C885 C879 1.491 . S
C885 C884 1.400 . S
C885 C886 1.398 . S
C886 H874 0.950 . S
C886 C885 1.398 . S
C886 C887 1.391 . S
C887 H875 0.950 . S
C887 C883 1.393 . S
C887 C886 1.391 . S
H888 C896 0.950 . S
H889 C901 0.950 . S
H890 C898 0.950 . S
H891 C900 0.950 . S
H892 C902 0.950 . S
H893 C904 0.950 . S
H894 C906 0.950 . S
H895 C907 0.950 . S
C896 H888 0.950 . S
C896 C897 1.386 . S
C896 C898 1.391 . S
C897 C896 1.386 . S
C897 C901 1.393 . S
C898 H890 0.950 . S
C898 C896 1.391 . S
C898 C899 1.400 . S
C899 C898 1.400 . S
C899 C900 1.398 . S
C899 C905 1.491 . S
C900 H891 0.950 . S
C900 C899 1.398 . S
C900 C901 1.391 . S
C901 H889 0.950 . S
C901 C897 1.393 . S
C901 C900 1.391 . S
C902 H892 0.950 . S
C902 C903 1.386 . S
C902 C904 1.391 . S
C903 C902 1.386 . S
C903 C907 1.393 . S
C904 H893 0.950 . S
C904 C902 1.391 . S
C904 C905 1.400 . S
C905 C899 1.491 . S
C905 C904 1.400 . S
C905 C906 1.398 . S
C906 H894 0.950 . S
C906 C905 1.398 . S
C906 C907 1.391 . S
C907 H895 0.950 . S
C907 C903 1.393 . S
C907 C906 1.391 . S
H908 C916 0.950 . S
H909 C921 0.950 . S
H910 C918 0.950 . S
H911 C920 0.950 . S
H912 C922 0.950 . S
H913 C924 0.950 . S
H914 C926 0.950 . S
H915 C927 0.950 . S
C916 H908 0.950 . S
C916 C917 1.386 . S
C916 C918 1.391 . S
C917 C916 1.386 . S
C917 C921 1.393 . S
C918 H910 0.950 . S
C918 C916 1.391 . S
C918 C919 1.400 . S
C919 C918 1.400 . S
C919 C920 1.398 . S
C919 C925 1.491 . S
C920 H911 0.950 . S
C920 C919 1.398 . S
C920 C921 1.391 . S
C921 H909 0.950 . S
C921 C917 1.393 . S
C921 C920 1.391 . S
C922 H912 0.950 . S
C922 C923 1.386 . S
C922 C924 1.391 . S
C923 C922 1.386 . S
C923 C927 1.393 . S
C924 H913 0.950 . S
C924 C922 1.391 . S
C924 C925 1.400 . S
C925 C919 1.491 . S
C925 C924 1.400 . S
C925 C926 1.398 . S
C926 H914 0.950 . S
C926 C925 1.398 . S
C926 C927 1.391 . S
C927 H915 0.950 . S
C927 C923 1.393 . S
C927 C926 1.391 . S
C457 C1 1.226 . S
C463 C294 1.257 . S
C477 C67 0.937 . S
C483 C343 0.933 . S
C503 C378 2.462 . S
C497 C97 2.512 . S
C517 C133 2.423 . S
C523 C417 2.366 . S
C543 C338 2.467 . S
C537 C25 2.382 . S
C563 C297 0.798 . S
C557 C37 0.830 . S
C583 C427 1.885 . S
C577 C103 1.950 . S
C603 C386 1.607 . S
C597 C109 1.646 . S
C617 C31 1.681 . S
C623 C414 1.722 . S
C643 C346 2.310 . S
C637 C73 2.407 . S
C657 C139 2.373 . S
C663 C307 2.359 . S
C677 C61 0.807 . S
C683 C383 0.825 . S
C703 C303 1.261 . S
C697 C175 1.187 . S
C717 C181 0.933 . S
C723 C334 0.933 . S
C737 C247 2.541 . S
C743 C387 2.490 . S
C757 C277 2.410 . S
C763 C426 2.339 . S
C777 C145 2.309 . S
C783 C347 2.456 . S
C803 C306 0.849 . S
C797 C211 0.850 . S
C823 C418 1.867 . S
C817 C217 1.921 . S
C843 C377 1.624 . S
C837 C283 1.664 . S
C857 C169 1.608 . S
C863 C423 1.715 . S
C883 C337 2.315 . S
C877 C241 2.410 . S
C903 C298 2.335 . S
C897 C253 2.359 . S
C917 C205 0.855 . S
C923 C374 0.849 . S
