# Generated by pormake.
# Topology anh, (6,3)-cn, num edge types: 1
# Building blocks:
#     Node 0, Type 0, BuildingBlock: PAMTUU_clean_sbu_0, # of connection points: 6
#     Node 1, Type 0, BuildingBlock: PAMTUU_clean_sbu_0, # of connection points: 6
#     Node 2, Type 0, BuildingBlock: PAMTUU_clean_sbu_0, # of connection points: 6
#     Node 3, Type 1, BuildingBlock: BETDIP_clean_linker_0, # of connection points: 3
#     Node 4, Type 1, BuildingBlock: BETDIP_clean_linker_0, # of connection points: 3
#     Node 5, Type 1, BuildingBlock: BETDIP_clean_linker_0, # of connection points: 3
#     Node 6, Type 1, BuildingBlock: BETDIP_clean_linker_0, # of connection points: 3
#     Node 7, Type 1, BuildingBlock: BETDIP_clean_linker_0, # of connection points: 3
#     Node 8, Type 1, BuildingBlock: BETDIP_clean_linker_0, # of connection points: 3
#     Edge 9, Type (0, 1), BuildingBlock: XUDNAN_clean_linker_2, # of connection points: 2
#     Edge 10, Type (0, 1), BuildingBlock: XUDNAN_clean_linker_2, # of connection points: 2
#     Edge 11, Type (0, 1), BuildingBlock: XUDNAN_clean_linker_2, # of connection points: 2
#     Edge 12, Type (0, 1), BuildingBlock: XUDNAN_clean_linker_2, # of connection points: 2
#     Edge 13, Type (0, 1), BuildingBlock: XUDNAN_clean_linker_2, # of connection points: 2
#     Edge 14, Type (0, 1), BuildingBlock: XUDNAN_clean_linker_2, # of connection points: 2
#     Edge 15, Type (0, 1), BuildingBlock: XUDNAN_clean_linker_2, # of connection points: 2
#     Edge 16, Type (0, 1), BuildingBlock: XUDNAN_clean_linker_2, # of connection points: 2
#     Edge 17, Type (0, 1), BuildingBlock: XUDNAN_clean_linker_2, # of connection points: 2
#     Edge 18, Type (0, 1), BuildingBlock: XUDNAN_clean_linker_2, # of connection points: 2
#     Edge 19, Type (0, 1), BuildingBlock: XUDNAN_clean_linker_2, # of connection points: 2
#     Edge 20, Type (0, 1), BuildingBlock: XUDNAN_clean_linker_2, # of connection points: 2
#     Edge 21, Type (0, 1), BuildingBlock: XUDNAN_clean_linker_2, # of connection points: 2
#     Edge 22, Type (0, 1), BuildingBlock: XUDNAN_clean_linker_2, # of connection points: 2
#     Edge 23, Type (0, 1), BuildingBlock: XUDNAN_clean_linker_2, # of connection points: 2
#     Edge 24, Type (0, 1), BuildingBlock: XUDNAN_clean_linker_2, # of connection points: 2
#     Edge 25, Type (0, 1), BuildingBlock: XUDNAN_clean_linker_2, # of connection points: 2
#     Edge 26, Type (0, 1), BuildingBlock: XUDNAN_clean_linker_2, # of connection points: 2
# Relax obj value: 0.249
# Max RMSD: 0.171
# Mean RMSD: 0.118
data_MOF--net-anh--node1-PAMTUU_clean_sbu_0--node2-BETDIP_clean_linker_0--edge1-XUDNAN_clean_linker_2
_symmetry_space_group_name_H-M    P1
_symmetry_Int_Tables_number       1
_symmetry_cell_setting            triclinic
loop_
_symmetry_equiv_pos_as_xyz
'x, y, z'
_cell_length_a     29.876964
_cell_length_b     29.759722
_cell_length_c     49.632711
_cell_angle_alpha  94.54189
_cell_angle_beta   91.635648
_cell_angle_gamma 120.10755
loop_
_atom_site_label
_atom_site_type_symbol
_atom_site_fract_x
_atom_site_fract_y
_atom_site_fract_z
_atom_type_partial_charge
Tb0 Tb 0.1563 0.74698 0.14961 0.0
Tb1 Tb 0.21817 0.6931 0.17478 0.0
C2 C 0.20993 0.70373 0.112 0.0
C3 C 1.04347 0.75595 0.13651 0.0
C4 C 0.93866 0.68198 0.14167 0.0
C5 C 0.95565 0.69933 0.1163 0.0
C6 C 1.00757 0.7361 0.11378 0.0
C7 C 1.02561 0.74215 0.16221 0.0
C8 C 0.97368 0.70559 0.16476 0.0
C9 C 1.09919 0.77946 0.13253 0.0
O10 O 1.10187 0.66236 0.1446 0.0
O11 O 1.13599 0.6386 0.17873 0.0
O12 O 0.20046 0.72849 0.21008 0.0
O13 O 1.13288 0.7332 0.1902 0.0
O14 O 0.22098 0.62466 0.17768 0.0
O15 O 0.27964 0.69805 0.19904 0.0
O16 O 0.27956 0.76988 0.1654 0.0
O17 O 0.23339 0.81263 0.16353 0.0
O18 O 0.20249 0.74302 0.11794 0.0
O19 O 0.2093 0.67423 0.13059 0.0
C20 C 1.09699 0.62867 0.1616 0.0
O21 O 1.13112 0.80146 0.15427 0.0
O22 O 1.11059 0.74922 0.11742 0.0
C23 C 0.16041 0.73535 0.21173 0.0
C24 C 0.30433 0.6368 0.18429 0.0
C25 C 0.37496 0.60653 0.16652 0.0
C26 C 0.34516 0.58463 0.18837 0.0
C27 C 0.31022 0.59971 0.19717 0.0
C28 C 0.3343 0.65942 0.16272 0.0
C29 C 0.3695 0.64451 0.15394 0.0
C30 C 0.26463 0.64892 0.19272 0.0
C31 C 0.27784 0.8133 0.16534 0.0
H32 H 0.92991 0.68162 0.09799 0.0
H33 H 1.02048 0.74562 0.09375 0.0
H34 H 1.05231 0.75659 0.18016 0.0
H35 H 0.96162 0.69373 0.18462 0.0
H36 H 0.34764 0.55465 0.1982 0.0
H37 H 0.28694 0.58154 0.2137 0.0
H38 H 0.32993 0.68799 0.15247 0.0
H39 H 0.39226 0.66254 0.13725 0.0
Tb40 Tb 0.66489 0.10592 0.4823 0.0
Tb41 Tb 0.79067 0.17138 0.49344 0.0
C42 C 0.73733 0.13789 0.43488 0.0
C43 C 0.52166 1.00924 0.48155 0.0
C44 C 0.42571 0.92624 0.49408 0.0
C45 C 0.43753 0.93341 0.46696 0.0
C46 C 0.48496 0.97455 0.46079 0.0
C47 C 0.51131 1.00057 0.50872 0.0
C48 C 0.46361 0.95944 0.51492 0.0
C49 C 0.56747 1.05676 0.47427 0.0
O50 O 0.68598 1.04448 0.4814 0.0
O51 O 0.77357 1.0916 0.49581 0.0
O52 O 0.7534 0.17662 0.53007 0.0
O53 O 0.68322 1.09548 0.52256 0.0
O54 O 0.86406 0.22169 0.48044 0.0
O55 O 0.85599 0.20033 0.5213 0.0
O56 O 0.76948 0.22788 0.4823 0.0
O57 O 0.68606 0.18793 0.4944 0.0
O58 O 0.69669 0.13656 0.44493 0.0
O59 O 0.77451 0.14008 0.45075 0.0
C60 C 0.73015 1.04694 0.48892 0.0
O61 O 0.59339 1.09457 0.49365 0.0
O62 O 0.59785 1.05042 0.45794 0.0
C63 C 0.71485 0.13598 0.53927 0.0
C64 C 0.90745 0.28956 0.51493 0.0
C65 C 0.92966 0.39388 0.52016 0.0
C66 C 0.96164 0.37975 0.50593 0.0
C67 C 0.95049 0.32789 0.50327 0.0
C68 C 0.87802 0.30452 0.5309 0.0
C69 C 0.88901 0.35609 0.5335 0.0
C70 C 0.88552 0.23402 0.50514 0.0
C71 C 0.72868 0.23039 0.48914 0.0
H72 H 0.40894 0.90919 0.4504 0.0
H73 H 0.492 0.98068 0.43973 0.0
H74 H 0.53911 1.02665 0.52517 0.0
H75 H 0.4557 0.95466 0.53598 0.0
H76 H 0.99364 0.4082 0.49569 0.0
H77 H 0.97318 0.31708 0.49052 0.0
H78 H 0.84388 0.27566 0.53966 0.0
H79 H 0.86306 0.36528 0.54424 0.0
Tb80 Tb 0.71698 0.61929 0.836 0.0
Tb81 Tb 0.78234 0.74164 0.82699 0.0
C82 C 0.73747 0.65221 0.77711 0.0
C83 C 0.6825 0.48522 0.85172 0.0
C84 C 0.69366 0.39693 0.85218 0.0
C85 C 0.7179 0.43285 0.83315 0.0
C86 C 0.71245 0.47681 0.83296 0.0
C87 C 0.66074 0.45118 0.87163 0.0
C88 C 0.66633 0.40741 0.87192 0.0
C89 C 0.67288 0.52877 0.85088 0.0
O90 O 0.80034 0.64327 0.84156 0.0
O91 O 0.83832 0.71688 0.8191 0.0
O92 O 0.79501 0.72826 0.86869 0.0
O93 O 0.7119 0.66825 0.86849 0.0
O94 O 0.80678 0.80548 0.80406 0.0
O95 O 0.82948 0.81756 0.84668 0.0
O96 O 0.70294 0.72575 0.83189 0.0
O97 O 0.65527 0.63586 0.82504 0.0
O98 O 0.72965 0.61663 0.7934 0.0
O99 O 0.7525 0.70093 0.78617 0.0
C100 C 0.84071 0.67941 0.83031 0.0
O101 O 0.70446 0.57086 0.86677 0.0
O102 O 0.66354 0.53921 0.82698 0.0
C103 C 0.75467 0.70223 0.88229 0.0
C104 C 0.79692 0.86834 0.83018 0.0
C105 C 0.72566 0.90416 0.82948 0.0
C106 C 0.76692 0.92318 0.81245 0.0
C107 C 0.80208 0.90508 0.81268 0.0
C108 C 0.75835 0.85264 0.84866 0.0
C109 C 0.72309 0.87021 0.84827 0.0
C110 C 0.82387 0.83867 0.8258 0.0
C111 C 0.65797 0.68172 0.82744 0.0
H112 H 0.73872 0.4256 0.81749 0.0
H113 H 0.73019 0.50326 0.81768 0.0
H114 H 0.63825 0.45773 0.88656 0.0
H115 H 0.64775 0.38076 0.887 0.0
H116 H 0.7706 0.95013 0.79806 0.0
H117 H 0.8313 0.91741 0.79815 0.0
H118 H 0.75298 0.8238 0.86221 0.0
H119 H 0.69157 0.85395 0.86139 0.0
H120 H 0.64953 0.17492 0.16842 0.0
H121 H 0.76408 0.23418 0.23649 0.0
H122 H 0.62163 1.08979 0.23843 0.0
H123 H 0.81908 0.26606 0.20349 0.0
C124 C 0.80071 0.283 0.19208 0.0
C125 C 0.66214 0.17082 0.18829 0.0
C126 C 0.62917 0.12666 0.20175 0.0
C127 C 0.71202 0.20921 0.20021 0.0
C128 C 0.72752 0.20387 0.22628 0.0
C129 C 0.69523 0.16098 0.24008 0.0
C130 C 0.64657 0.12264 0.22761 0.0
N131 N 0.7454 0.25363 0.18641 0.0
H132 H 0.73287 0.60045 0.50029 0.0
H133 H 0.70838 0.67024 0.57371 0.0
H134 H 0.7124 0.52796 0.57411 0.0
H135 H 0.66523 0.69284 0.54029 0.0
C136 C 0.69757 0.70996 0.5276 0.0
C137 C 0.72592 0.59972 0.52159 0.0
C138 C 0.72141 0.55781 0.53539 0.0
C139 C 0.71988 0.63999 0.53509 0.0
C140 C 0.71179 0.63912 0.56295 0.0
C141 C 0.7088 0.59872 0.57717 0.0
C142 C 0.71329 0.55841 0.56311 0.0
N143 N 0.72393 0.68191 0.5208 0.0
H144 H 0.20327 0.67436 0.83546 0.0
H145 H 0.27856 0.66153 0.90721 0.0
H146 H 1.13592 0.66243 0.91231 0.0
H147 H 0.29789 0.61268 0.8724 0.0
C148 C 0.31557 0.64536 0.86028 0.0
C149 C 0.20388 0.67039 0.85695 0.0
C150 C 0.16291 0.66752 0.87211 0.0
C151 C 0.24525 0.66683 0.86933 0.0
C152 C 0.24605 0.66194 0.89726 0.0
C153 C 0.207 0.66069 0.91286 0.0
C154 C 0.16569 0.6631 0.90011 0.0
N155 N 0.28709 0.67082 0.85406 0.0
H156 H 1.01593 0.72865 0.47124 0.0
H157 H 0.96049 0.7088 0.38787 0.0
H158 H 1.11743 0.74751 0.40804 0.0
H159 H 0.88734 0.70677 0.4708 0.0
C160 C 0.91167 0.69222 0.4628 0.0
C161 C 1.02221 0.72707 0.44991 0.0
C162 C 1.0709 0.737 0.44204 0.0
C163 C 0.98212 0.71631 0.4303 0.0
C164 C 0.99136 0.71654 0.4028 0.0
C165 C 1.0399 0.72679 0.39454 0.0
C166 C 1.07917 0.73674 0.41429 0.0
N167 N 0.93307 0.70812 0.43764 0.0
H168 H 0.50466 1.01829 0.78068 0.0
H169 H 0.47897 0.98379 0.694 0.0
H170 H 0.62437 0.11159 0.73004 0.0
H171 H 0.38357 0.90099 0.76772 0.0
C172 C 0.42319 0.9197 0.76192 0.0
C173 C 0.51902 1.02579 0.76079 0.0
C174 C 0.56904 1.06786 0.75836 0.0
C175 C 0.48692 0.99434 0.73765 0.0
C176 C 0.50426 1.00681 0.71189 0.0
C177 C 0.55439 1.04839 0.70921 0.0
C178 C 0.58675 1.07799 0.73242 0.0
N179 N 0.43651 0.95098 0.73991 0.0
H180 H 0.54676 0.39879 0.08229 0.0
H181 H 0.63465 0.42484 0.01247 0.0
H182 H 0.59246 0.53715 0.04287 0.0
H183 H 0.61169 0.32366 0.08241 0.0
C184 C 0.62114 0.36247 0.07798 0.0
C185 C 0.56466 0.42207 0.06585 0.0
C186 C 0.56399 0.46844 0.06372 0.0
C187 C 0.59034 0.40658 0.04741 0.0
C188 C 0.61404 0.43671 0.02622 0.0
C189 C 0.61609 0.48471 0.02469 0.0
C190 C 0.59001 0.49962 0.04326 0.0
N191 N 0.60004 0.36596 0.05257 0.0
H192 H 0.39051 0.58779 0.11355 0.0
H193 H 0.43782 0.58271 0.19627 0.0
H194 H 0.49083 0.54602 0.17904 0.0
H195 H 0.38007 0.46977 0.08536 0.0
H196 H 0.40582 0.49381 0.05382 0.0
H197 H 0.37257 0.52087 0.0726 0.0
H198 H 0.45284 0.61379 0.07355 0.0
H199 H 0.48621 0.58707 0.05455 0.0
H200 H 0.51533 0.62602 0.0866 0.0
H201 H 0.53654 0.50721 0.15268 0.0
H202 H 0.57486 0.47324 0.119 0.0
H203 H 0.49892 0.50576 0.05386 0.0
C204 C 0.41272 0.5799 0.1281 0.0
C205 C 0.40984 0.58803 0.15628 0.0
C206 C 0.4388 0.57615 0.17457 0.0
C207 C 0.46923 0.55553 0.165 0.0
C208 C 0.47056 0.54734 0.13709 0.0
C209 C 0.44343 0.55958 0.11891 0.0
C210 C 0.45111 0.54673 0.08992 0.0
C211 C 0.39931 0.50533 0.07453 0.0
C212 C 0.47798 0.59636 0.0753 0.0
C213 C 0.48647 0.52496 0.09463 0.0
C214 C 0.49719 0.52551 0.12196 0.0
C215 C 0.52848 0.50665 0.13122 0.0
C216 C 0.5497 0.48708 0.112 0.0
C217 C 0.53954 0.48672 0.08392 0.0
C218 C 0.50747 0.50586 0.07523 0.0
H219 H 0.94741 0.44673 0.4754 0.0
H220 H 0.91897 0.45621 0.56036 0.0
H221 H 0.9135 0.53526 0.55517 0.0
H222 H 1.02682 0.5897 0.47254 0.0
H223 H 1.00099 0.58499 0.43853 0.0
H224 H 1.0069 0.53177 0.44952 0.0
H225 H 0.90854 0.46783 0.43627 0.0
H226 H 0.90336 0.5211 0.42495 0.0
H227 H 0.86185 0.48313 0.44979 0.0
H228 H 0.9054 0.60984 0.53982 0.0
H229 H 0.89877 0.67634 0.51572 0.0
H230 H 0.93088 0.61573 0.44099 0.0
C231 C 0.94166 0.46627 0.49315 0.0
C232 C 0.93399 0.44546 0.51835 0.0
C233 C 0.92483 0.47138 0.54084 0.0
C234 C 0.92181 0.51635 0.53811 0.0
C235 C 0.92846 0.53511 0.51283 0.0
C236 C 0.93868 0.51117 0.4908 0.0
C237 C 0.94242 0.53793 0.46559 0.0
C238 C 0.99756 0.56255 0.45599 0.0
C239 C 0.9016 0.50023 0.44284 0.0
C240 C 0.93087 0.57951 0.47666 0.0
C241 C 0.9237 0.57784 0.50402 0.0
C242 C 0.91175 0.61203 0.5185 0.0
C243 C 0.90782 0.6494 0.50467 0.0
C244 C 0.91577 0.65211 0.47675 0.0
C245 C 0.92649 0.61602 0.46255 0.0
H246 H 0.68255 0.91017 0.78142 0.0
H247 H 0.66797 0.91797 0.86825 0.0
H248 H 0.58656 0.91905 0.86039 0.0
H249 H 0.63277 0.99815 0.76812 0.0
H250 H 0.60125 0.96197 0.73579 0.0
H251 H 0.65962 0.96471 0.74874 0.0
H252 H 0.61125 0.86327 0.74366 0.0
H253 H 0.55244 0.86021 0.73133 0.0
H254 H 0.55256 0.82769 0.76045 0.0
H255 H 0.50352 0.91403 0.8425 0.0
H256 H 0.43137 0.91371 0.81618 0.0
H257 H 0.50239 0.9099 0.74177 0.0
C258 C 0.66333 0.91372 0.79893 0.0
C259 C 0.68179 0.9138 0.82546 0.0
C260 C 0.65431 0.91712 0.84767 0.0
C261 C 0.60808 0.91789 0.84343 0.0
C262 C 0.59022 0.91603 0.81692 0.0
C263 C 0.61759 0.91509 0.79511 0.0
C264 C 0.59009 0.91293 0.76858 0.0
C265 C 0.62289 0.96237 0.75449 0.0
C266 C 0.57574 0.86305 0.74992 0.0
C267 C 0.54243 0.91168 0.77882 0.0
C268 C 0.54307 0.91359 0.80674 0.0
C269 C 0.50287 0.91299 0.82065 0.0
C270 C 0.46195 0.91233 0.80561 0.0
C271 C 0.46213 0.91274 0.77716 0.0
C272 C 0.50197 0.91066 0.76361 0.0
H273 H 0.84733 0.65646 0.11386 0.0
H274 H 0.91395 0.6002 0.17178 0.0
H275 H 0.83283 0.51487 0.16702 0.0
H276 H 0.70708 0.57522 0.12969 0.0
H277 H 0.68553 0.56464 0.09428 0.0
H278 H 0.74266 0.62495 0.10774 0.0
H279 H 0.79647 0.60964 0.07163 0.0
H280 H 0.73917 0.55026 0.0583 0.0
H281 H 0.79669 0.54894 0.0689 0.0
H282 H 0.74891 0.43095 0.15024 0.0
H283 H 0.67279 0.3584 0.12268 0.0
H284 H 0.67136 0.47134 0.07286 0.0
C285 C 0.84435 0.6267 0.12612 0.0
C286 C 0.88688 0.63516 0.14324 0.0
C287 C 0.8815 0.5951 0.15892 0.0
C288 C 0.83554 0.54632 0.15629 0.0
C289 C 0.79525 0.53838 0.13807 0.0
C290 C 0.7992 0.5778 0.12344 0.0
C291 C 0.75419 0.55779 0.10237 0.0
C292 C 0.72038 0.58211 0.10893 0.0
C293 C 0.77282 0.56718 0.07363 0.0
C294 C 0.72599 0.50048 0.10631 0.0
C295 C 0.74886 0.49 0.12753 0.0
C296 C 0.73024 0.43905 0.13385 0.0
C297 C 0.68714 0.39806 0.11797 0.0
C298 C 0.66406 0.40794 0.09554 0.0
C299 C 0.68456 0.46026 0.08992 0.0
H300 H 0.36134 0.82692 0.46969 0.0
H301 H 0.36762 0.94294 0.53067 0.0
H302 H 0.27284 0.89111 0.53214 0.0
H303 H 0.26332 0.81335 0.43172 0.0
H304 H 0.23126 0.74405 0.4216 0.0
H305 H 0.29945 0.77968 0.43153 0.0
H306 H 0.28607 0.7177 0.46823 0.0
H307 H 0.21743 0.68126 0.45819 0.0
H308 H 0.23991 0.70771 0.49303 0.0
H309 H 0.17929 0.84279 0.5177 0.0
H310 H 1.0962 0.80071 0.48992 0.0
H311 H 0.14737 0.71194 0.43942 0.0
C312 C 0.34286 0.84019 0.48414 0.0
C313 C 0.37183 0.88881 0.50011 0.0
C314 C 0.34642 0.90536 0.5186 0.0
C315 C 0.29243 0.87613 0.51954 0.0
C316 C 0.26448 0.82999 0.50221 0.0
C317 C 0.28897 0.81146 0.48524 0.0
C318 C 0.25008 0.76579 0.46554 0.0
C319 C 0.26173 0.77642 0.43588 0.0
C320 C 0.24826 0.7151 0.47162 0.0
C321 C 0.20054 0.7647 0.4724 0.0
C322 C 0.20935 0.80101 0.4941 0.0
C323 C 0.17137 0.81286 0.50135 0.0
C324 C 1.12404 0.78856 0.48543 0.0
C325 C 1.11514 0.75294 0.46242 0.0
C326 C 0.15303 0.73907 0.45684 0.0
H327 H 0.60791 0.3024 0.85446 0.0
H328 H 0.77104 0.37542 0.84049 0.0
H329 H 0.75914 0.28879 0.82515 0.0
H330 H 0.5897 0.17007 0.87193 0.0
H331 H 0.52618 0.13662 0.85405 0.0
H332 H 0.55068 0.20063 0.87201 0.0
H333 H 0.5348 0.23374 0.82799 0.0
H334 H 0.51062 0.17041 0.81003 0.0
H335 H 0.56402 0.2267 0.79784 0.0
H336 H 0.72602 0.19957 0.80181 0.0
H337 H 0.67477 0.11901 0.77057 0.0
H338 H 0.53289 0.10557 0.7986 0.0
C339 C 0.64173 0.29988 0.8496 0.0
C340 C 0.69046 0.34544 0.84894 0.0
C341 C 0.73336 0.34087 0.84123 0.0
C342 C 0.72702 0.29175 0.83274 0.0
C343 C 0.67767 0.24766 0.83232 0.0
C344 C 0.63581 0.25134 0.84085 0.0
C345 C 0.58522 0.20053 0.83373 0.0
C346 C 0.56156 0.17548 0.85947 0.0
C347 C 0.54649 0.20836 0.81635 0.0
C348 C 0.60451 0.16915 0.81773 0.0
C349 C 0.6581 0.19607 0.81807 0.0
C350 C 0.68417 0.17766 0.80191 0.0
C351 C 0.65473 0.13208 0.78406 0.0
C352 C 0.59979 0.10613 0.78208 0.0
C353 C 0.57473 0.12365 0.80012 0.0
H354 H 0.65548 0.95194 0.50495 0.0
H355 H 0.80989 1.03097 0.47671 0.0
H356 H 0.81688 0.95247 0.48096 0.0
H357 H 0.68614 0.89025 0.55559 0.0
H358 H 0.62397 0.83075 0.55134 0.0
H359 H 0.62907 0.89126 0.54376 0.0
H360 H 0.58684 0.84952 0.49531 0.0
H361 H 0.58157 0.78882 0.50275 0.0
H362 H 0.61488 0.81981 0.47398 0.0
H363 H 0.8076 0.86441 0.48892 0.0
H364 H 0.78511 0.77784 0.50303 0.0
H365 H 0.63955 0.75775 0.52912 0.0
C366 C 0.69036 0.95232 0.49921 0.0
C367 C 0.7319 0.99764 0.49009 0.0
C368 C 0.77743 0.99685 0.48357 0.0
C369 C 0.78173 0.95227 0.48588 0.0
C370 C 0.74047 0.90848 0.49519 0.0
C371 C 0.69579 0.90832 0.502 0.0
C372 C 0.65864 0.8575 0.51327 0.0
C373 C 0.6489 0.86809 0.54274 0.0
C374 C 0.60745 0.82712 0.49525 0.0
C375 C 0.68931 0.82923 0.51174 0.0
C376 C 0.73617 0.85899 0.50092 0.0
C377 C 0.77097 0.84088 0.49744 0.0
C378 C 0.75785 0.79149 0.50544 0.0
C379 C 0.71057 0.76079 0.51717 0.0
C380 C 0.67599 0.78019 0.52019 0.0
H381 H 0.87252 0.62377 0.86079 0.0
H382 H 0.92534 0.73749 0.80228 0.0
H383 H 1.01059 0.74327 0.80471 0.0
H384 H 0.99222 0.68421 0.9023 0.0
H385 H 0.9877 0.62377 0.90964 0.0
H386 H 0.92953 0.62604 0.90227 0.0
H387 H 0.89994 0.55103 0.86356 0.0
H388 H 0.95803 0.5485 0.87084 0.0
H389 H 0.9424 0.55775 0.83714 0.0
H390 H 1.09267 0.73938 0.8146 0.0
H391 H 0.16407 0.72783 0.83217 0.0
H392 H 1.05915 0.61616 0.884 0.0
C393 C 0.90177 0.64945 0.84825 0.0
C394 C 0.8915 0.68004 0.83123 0.0
C395 C 0.9316 0.71357 0.81549 0.0
C396 C 0.98044 0.7171 0.81668 0.0
C397 C 0.98943 0.68696 0.83377 0.0
C398 C 0.9512 0.65374 0.8493 0.0
C399 C 0.97174 0.62704 0.8667 0.0
C400 C 0.9702 0.64112 0.89702 0.0
C401 C 0.94121 0.56754 0.8591 0.0
C402 C 1.02745 0.65082 0.85876 0.0
C403 C 1.03675 0.68503 0.83958 0.0
C404 C 1.08559 0.71238 0.82951 0.0
C405 C 1.12605 0.70524 0.83951 0.0
C406 C 1.11808 0.67112 0.85961 0.0
C407 C 1.06743 0.64313 0.86893 0.0
H408 H 0.37765 0.83767 0.18233 0.0
H409 H 0.29075 0.90658 0.15196 0.0
H410 H 0.37148 0.99229 0.15475 0.0
H411 H 0.46159 0.94641 0.2307 0.0
H412 H 0.51781 0.93998 0.22606 0.0
H413 H 0.45378 0.88336 0.22004 0.0
H414 H 0.47429 0.86482 0.17147 0.0
H415 H 0.53838 0.92153 0.17732 0.0
H416 H 0.49595 0.91506 0.14886 0.0
H417 H 0.46281 1.07229 0.16171 0.0
H418 H 0.55432 0.13949 0.17552 0.0
H419 H 0.5818 1.01944 0.20216 0.0
C420 C 0.37562 0.87065 0.17601 0.0
C421 C 0.32744 0.86489 0.16676 0.0
C422 C 0.32682 0.90956 0.15912 0.0
C423 C 0.37269 0.95858 0.16053 0.0
C424 C 0.41938 0.96295 0.16981 0.0
C425 C 0.42111 0.9202 0.17761 0.0
C426 C 0.47587 0.93602 0.18818 0.0
C427 C 0.47733 0.92584 0.21801 0.0
C428 C 0.49738 0.90767 0.17039 0.0
C429 C 0.50453 0.99426 0.18529 0.0
C430 C 0.47143 1.009 0.17437 0.0
C431 C 0.48902 1.06101 0.1702 0.0
C432 C 0.54132 0.09901 0.17793 0.0
C433 C 0.5757 1.08522 0.19 0.0
C434 C 0.55675 1.0317 0.19319 0.0
H435 H 0.66282 0.26113 0.51257 0.0
H436 H 0.80568 0.32074 0.47215 0.0
H437 H 0.81671 0.40869 0.47719 0.0
H438 H 0.61794 0.34324 0.48508 0.0
H439 H 0.5936 0.35369 0.51634 0.0
H440 H 0.59517 0.29435 0.50849 0.0
H441 H 0.64939 0.31246 0.55384 0.0
H442 H 0.6478 0.37171 0.56186 0.0
H443 H 0.70917 0.37388 0.5615 0.0
H444 H 0.81201 0.49196 0.48603 0.0
H445 H 0.79638 0.56341 0.50242 0.0
H446 H 0.65933 0.45193 0.53885 0.0
C447 C 0.69597 0.29247 0.50439 0.0
C448 C 0.73281 0.28312 0.49152 0.0
C449 C 0.77634 0.32604 0.48179 0.0
C450 C 0.78302 0.37652 0.48449 0.0
C451 C 0.74601 0.38434 0.49708 0.0
C452 C 0.70357 0.34359 0.50713 0.0
C453 C 0.67111 0.36333 0.52118 0.0
C454 C 0.6162 0.33708 0.50692 0.0
C455 C 0.66928 0.35484 0.55139 0.0
C456 C 0.70178 0.42124 0.51742 0.0
C457 C 0.74457 0.43252 0.50318 0.0
C458 C 0.7786 0.48342 0.49721 0.0
C459 C 0.76928 0.52386 0.50646 0.0
C460 C 0.72677 0.5137 0.52199 0.0
C461 C 0.69233 0.46128 0.52711 0.0
H462 H 0.56092 0.60711 0.84105 0.0
H463 H 0.64448 0.76334 0.81629 0.0
H464 H 0.5658 0.77058 0.8197 0.0
H465 H 0.43442 0.56689 0.80745 0.0
H466 H 0.39926 0.53219 0.83495 0.0
H467 H 0.4611 0.5383 0.82874 0.0
H468 H 0.49554 0.57949 0.87823 0.0
H469 H 0.43383 0.57347 0.88459 0.0
H470 H 0.49242 0.63629 0.8908 0.0
H471 H 0.47539 0.76016 0.82625 0.0
H472 H 0.38635 0.73552 0.83836 0.0
H473 H 0.36411 0.58859 0.86128 0.0
C474 C 0.56247 0.64251 0.83589 0.0
C475 C 0.60907 0.68437 0.828 0.0
C476 C 0.60943 0.73053 0.8222 0.0
C477 C 0.56472 0.73497 0.82404 0.0
C478 C 0.51953 0.69312 0.83204 0.0
C479 C 0.51835 0.64793 0.83808 0.0
C480 C 0.46607 0.60981 0.84779 0.0
C481 C 0.4386 0.55878 0.82858 0.0
C482 C 0.47236 0.59916 0.87709 0.0
C483 C 0.43788 0.64031 0.84622 0.0
C484 C 0.46902 0.68811 0.83681 0.0
C485 C 0.45087 0.72276 0.83363 0.0
C486 C 0.40006 0.70841 0.84047 0.0
C487 C 0.36798 0.66005 0.85071 0.0
C488 C 0.38752 0.62579 0.85344 0.0
H489 H 1.07529 0.54386 0.18914 0.0
H490 H 1.00233 0.60074 0.13538 0.0
H491 H 0.91807 0.5193 0.13685 0.0
H492 H 1.00328 0.40927 0.16076 0.0
H493 H 0.99946 0.38428 0.19305 0.0
H494 H 1.05341 0.44707 0.18767 0.0
H495 H 1.03316 0.48985 0.22945 0.0
H496 H 0.9791 0.4272 0.23493 0.0
H497 H 0.96921 0.4814 0.23108 0.0
H498 H 0.83923 0.42967 0.14563 0.0
H499 H 0.77757 0.34172 0.15903 0.0
H500 H 0.90372 0.34458 0.20593 0.0
C501 C 1.04168 0.53941 0.17766 0.0
C502 C 1.04592 0.5791 0.16209 0.0
C503 C 1.00058 0.57109 0.14736 0.0
C504 C 0.95229 0.5249 0.14818 0.0
C505 C 0.94953 0.48668 0.16382 0.0
C506 C 0.99331 0.49355 0.17817 0.0
C507 C 0.98065 0.44659 0.19317 0.0
C508 C 1.011 0.42025 0.18305 0.0
C509 C 0.99115 0.46221 0.22398 0.0
C510 C 0.92298 0.41211 0.18513 0.0
C511 C 0.90534 0.43573 0.1683 0.0
C512 C 0.85294 0.41094 0.15871 0.0
C513 C 0.81806 0.36092 0.16642 0.0
C514 C 0.83576 0.33601 0.18343 0.0
C515 C 0.88895 0.36237 0.19278 0.0
H516 H 0.19476 0.74534 0.06782 0.0
H517 H 0.23636 0.63238 0.09067 0.0
H518 H 0.24096 0.60907 0.04217 0.0
H519 H 1.11261 0.6685 0.00917 0.0
H520 H 1.13158 0.72337 0.98993 0.0
H521 H 1.13385 0.73242 0.02635 0.0
H522 H 0.231 0.80395 0.0283 0.0
H523 H 0.22897 0.79538 0.99187 0.0
H524 H 0.27609 0.7891 0.01222 0.0
H525 H 0.23984 0.59787 0.99043 0.0
H526 H 0.23237 0.59918 0.94072 0.0
H527 H 0.19022 0.71879 0.95271 0.0
C528 C 0.2054 0.71603 0.06279 0.0
C529 C 0.21554 0.69092 0.08318 0.0
C530 C 0.22858 0.65229 0.07548 0.0
C531 C 0.23126 0.6388 0.04796 0.0
C532 C 0.22051 0.66408 0.02841 0.0
C533 C 0.20782 0.70188 0.03557 0.0
C534 C 0.19668 0.72249 0.01084 0.0
C535 C 1.14034 0.71099 0.00897 0.0
C536 C 0.23551 0.78121 0.01081 0.0
C537 C 0.20509 0.69046 0.98851 0.0
C538 C 0.21899 0.65709 -0.00102 0.0
C539 C 0.22902 0.62392 0.9821 0.0
C540 C 0.22485 0.62505 0.95389 0.0
C541 C 0.2105 0.65892 0.94277 0.0
C542 C 0.2005 0.6919 0.96049 0.0
H543 H 0.66189 0.12199 0.39664 0.0
H544 H 0.82185 0.15817 0.40586 0.0
H545 H 0.82834 0.16571 0.35655 0.0
H546 H 0.62815 1.04496 0.33127 0.0
H547 H 0.58734 1.06913 0.31953 0.0
H548 H 0.59527 1.0647 0.35516 0.0
H549 H 0.62571 0.16301 0.36562 0.0
H550 H 0.61799 0.16779 0.33005 0.0
H551 H 0.67958 0.21051 0.34896 0.0
H552 H 0.81773 0.17362 0.30611 0.0
H553 H 0.79031 0.17803 0.25929 0.0
H554 H 0.63736 0.13617 0.28417 0.0
C555 C 0.69834 0.1312 0.38839 0.0
C556 C 0.74145 0.13957 0.4052 0.0
C557 C 0.78825 0.15141 0.3934 0.0
C558 C 0.79229 0.15586 0.36542 0.0
C559 C 0.74909 0.14798 0.34954 0.0
C560 C 0.70292 0.13555 0.36066 0.0
C561 C 0.66233 0.12983 0.33954 0.0
C562 C 0.61551 1.07382 0.33618 0.0
C563 C 0.64544 0.1702 0.34646 0.0
C564 C 0.69288 0.14148 0.31472 0.0
C565 C 0.74286 0.1519 0.32081 0.0
C566 C 0.77859 0.16521 0.30115 0.0
C567 C 0.76276 0.16788 0.27466 0.0
C568 C 0.71161 0.15715 0.26803 0.0
C569 C 0.67642 0.14368 0.28844 0.0
H570 H 0.77262 0.71324 0.73457 0.0
H571 H 0.67632 0.55308 0.75261 0.0
H572 H 0.65478 0.52375 0.70381 0.0
H573 H 0.69259 0.70594 0.67587 0.0
H574 H 0.74696 0.74551 0.65697 0.0
H575 H 0.75346 0.75512 0.6935 0.0
H576 H 0.83203 0.74063 0.694 0.0
H577 H 0.826 0.73139 0.6575 0.0
H578 H 0.82501 0.68175 0.67648 0.0
H579 H 0.64279 0.51107 0.65346 0.0
H580 H 0.64735 0.51459 0.60416 0.0
H581 H 0.75512 0.68187 0.61763 0.0
C582 C 0.74683 0.67206 0.72822 0.0
C583 C 0.72609 0.6355 0.74752 0.0
C584 C 0.69295 0.58186 0.73833 0.0
C585 C 0.68016 0.56479 0.7106 0.0
C586 C 0.7011 0.60166 0.69215 0.0
C587 C 0.73417 0.6541 0.70047 0.0
C588 C 0.75325 0.68497 0.67619 0.0
C589 C 0.73549 0.72527 0.67561 0.0
C590 C 0.81259 0.71122 0.67604 0.0
C591 C 0.72589 0.64158 0.65303 0.0
C592 C 0.69554 0.59401 0.6628 0.0
C593 C 0.6667 0.54804 0.64554 0.0
C594 C 0.66979 0.55043 0.61753 0.0
C595 C 0.70204 0.59836 0.60688 0.0
C596 C 0.72975 0.64467 0.62501 0.0
H597 H 0.74148 0.11751 0.58857 0.0
H598 H 0.64047 0.15973 0.54725 0.0
H599 H 0.58937 0.14445 0.58726 0.0
H600 H 0.64754 1.01528 0.61846 0.0
H601 H 0.68355 1.02708 0.65053 0.0
H602 H 0.71747 1.04876 0.62056 0.0
H603 H 0.77025 0.14371 0.6438 0.0
H604 H 0.73748 0.12214 0.67417 0.0
H605 H 0.73654 0.17441 0.65863 0.0
H606 H 0.54165 0.11134 0.62814 0.0
H607 H 0.50772 1.07564 0.67122 0.0
H608 H 0.64148 1.05854 0.68734 0.0
C609 C 0.71006 0.12577 0.5886 0.0
C610 C 0.6953 0.1409 0.56534 0.0
C611 C 0.65277 0.14933 0.56532 0.0
C612 C 0.6234 0.14038 0.58781 0.0
C613 C 0.63753 0.12349 0.61017 0.0
C614 C 0.68062 0.11755 0.6111 0.0
C615 C 0.68559 0.09644 0.63712 0.0
C616 C 0.68339 1.04377 0.6313 0.0
C617 C 0.73542 0.13657 0.65446 0.0
C618 C 0.63767 1.08976 0.65013 0.0
C619 C 0.61041 0.10541 0.63419 0.0
C620 C 0.56312 0.09988 0.64108 0.0
C621 C 0.54385 1.07907 0.66533 0.0
C622 C 0.5721 1.06451 0.68236 0.0
C623 C 0.61943 1.06974 0.67461 0.0
H624 H 0.68504 0.68974 0.91794 0.0
H625 H 0.82837 0.68928 0.90873 0.0
H626 H 0.81246 0.63921 0.94841 0.0
H627 H 0.68358 0.68823 -0.00515 0.0
H628 H 0.61424 0.64482 0.99139 0.0
H629 H 0.6448 0.69278 0.96787 0.0
H630 H 0.60181 0.61883 0.9282 0.0
H631 H 0.57285 0.57032 0.95138 0.0
H632 H 0.61414 0.5653 0.927 0.0
H633 H 0.77073 0.573 0.98211 0.0
H634 H 0.71316 0.50658 0.01097 0.0
H635 H 0.59499 0.54756 -0.00422 0.0
C636 C 0.71461 0.6819 0.92542 0.0
C637 C 0.75841 0.69419 0.91085 0.0
C638 C 0.79545 0.6816 0.92026 0.0
C639 C 0.78626 0.65253 0.94254 0.0
C640 C 0.74027 0.63718 0.95515 0.0
C641 C 0.70567 0.65264 0.94731 0.0
C642 C 0.65593 0.62554 0.96134 0.0
C643 C 0.64927 0.66521 0.97998 0.0
C644 C 0.60844 0.5931 0.94075 0.0
C645 C 0.6669 0.59081 0.97752 0.0
C646 C 0.71582 0.59829 0.97397 0.0
C647 C 0.73282 0.56769 0.98546 0.0
C648 C 0.69948 0.52949 0.00151 0.0
C649 C 0.64956 0.52202 0.00584 0.0
C650 C 0.63325 0.55298 0.99339 0.0
H651 H 0.1724 0.70151 0.2603 0.0
H652 H 1.1075 0.78556 0.22295 0.0
H653 H 1.06891 0.79125 0.26528 0.0
H654 H 1.0638 0.62564 0.29757 0.0
H655 H 1.10165 0.62824 0.32722 0.0
H656 H 1.12693 0.63272 0.29441 0.0
H657 H 0.20916 0.72048 0.31227 0.0
H658 H 0.18435 0.71602 0.34523 0.0
H659 H 0.20222 0.77314 0.32803 0.0
H660 H 1.03485 0.78572 0.31064 0.0
H661 H 1.01101 0.77318 0.35773 0.0
H662 H 1.09576 0.69104 0.36605 0.0
C663 C 0.15083 0.72186 0.26125 0.0
C664 C 0.1428 0.74297 0.23832 0.0
C665 C 1.1137 0.76865 0.24019 0.0
C666 C 1.09169 0.77221 0.26416 0.0
C667 C 1.09908 0.7499 0.28617 0.0
C668 C 1.12819 0.72554 0.28511 0.0
C669 C 1.12889 0.70386 0.31166 0.0
C670 C 1.10382 0.64406 0.30745 0.0
C671 C 0.18446 0.72994 0.32509 0.0
C672 C 1.09571 0.71992 0.32765 0.0
C673 C 1.07889 0.74634 0.3125 0.0
C674 C 1.0477 0.76504 0.32276 0.0
C675 C 1.03393 0.75728 0.34946 0.0
C676 C 1.05128 0.73096 0.36559 0.0
C677 C 1.0822 0.71167 0.35432 0.0
loop_
_geom_bond_atom_site_label_1
_geom_bond_atom_site_label_2
_geom_bond_distance
_geom_bond_site_symmetry_2
_ccdc_geom_bond_type
Tb0 C9 2.764 1_455 S
Tb0 O10 2.325 1_455 S
Tb0 O13 2.303 . S
Tb0 O17 2.322 . S
Tb0 O18 2.349 . S
Tb0 O21 2.415 1_455 S
Tb0 O22 2.399 1_455 S
Tb1 O11 2.322 . S
Tb1 O12 2.349 . S
Tb1 O14 2.415 . S
Tb1 O15 2.399 . S
Tb1 O16 2.325 . S
Tb1 O19 2.303 . S
Tb1 C30 2.764 . S
C2 O18 1.261 . S
C2 O19 1.257 . S
C3 C6 1.358 . S
C3 C7 1.332 . S
C3 C9 1.504 . S
C4 C5 1.373 . S
C4 C8 1.308 . S
C5 C4 1.373 . S
C5 C6 1.429 . S
C5 H32 0.932 . S
C6 C3 1.358 . S
C6 C5 1.429 . S
C6 H33 0.930 . S
C7 C3 1.332 . S
C7 C8 1.394 . S
C7 H34 0.932 . S
C8 C4 1.308 . S
C8 C7 1.394 . S
C8 H35 0.929 . S
C9 Tb0 2.764 1_655 S
C9 C3 1.504 . S
C9 O21 1.239 . S
C9 O22 1.263 . S
O10 Tb0 2.325 1_655 S
O10 C20 1.236 . S
O11 Tb1 2.322 . S
O11 C20 1.257 1_455 S
O12 Tb1 2.349 . S
O12 C23 1.261 . S
O13 Tb0 2.303 . S
O13 C23 1.257 . S
O14 Tb1 2.415 . S
O14 C30 1.239 . S
O15 Tb1 2.399 . S
O15 C30 1.263 . S
O16 Tb1 2.325 . S
O16 C31 1.236 . S
O17 Tb0 2.322 . S
O17 C31 1.257 . S
O18 Tb0 2.349 . S
O18 C2 1.261 . S
O19 Tb1 2.303 . S
O19 C2 1.257 . S
C20 O10 1.236 . S
C20 O11 1.257 1_655 S
O21 Tb0 2.415 1_655 S
O21 C9 1.239 . S
O22 Tb0 2.399 1_655 S
O22 C9 1.263 . S
C23 O12 1.261 . S
C23 O13 1.257 . S
C24 C27 1.358 . S
C24 C28 1.332 . S
C24 C30 1.504 . S
C25 C26 1.373 . S
C25 C29 1.308 . S
C26 C25 1.373 . S
C26 C27 1.429 . S
C26 H36 0.932 . S
C27 C24 1.358 . S
C27 C26 1.429 . S
C27 H37 0.930 . S
C28 C24 1.332 . S
C28 C29 1.394 . S
C28 H38 0.932 . S
C29 C25 1.308 . S
C29 C28 1.394 . S
C29 H39 0.929 . S
C30 Tb1 2.764 . S
C30 O14 1.239 . S
C30 O15 1.263 . S
C30 C24 1.504 . S
C31 O16 1.236 . S
C31 O17 1.257 . S
H32 C5 0.932 . S
H33 C6 0.930 . S
H34 C7 0.932 . S
H35 C8 0.929 . S
H36 C26 0.932 . S
H37 C27 0.930 . S
H38 C28 0.932 . S
H39 C29 0.929 . S
Tb40 C49 2.764 1_545 S
Tb40 O50 2.325 1_545 S
Tb40 O53 2.303 . S
Tb40 O57 2.322 . S
Tb40 O58 2.349 . S
Tb40 O61 2.415 1_545 S
Tb40 O62 2.399 1_545 S
Tb41 O51 2.322 . S
Tb41 O52 2.349 . S
Tb41 O54 2.415 . S
Tb41 O55 2.399 . S
Tb41 O56 2.325 . S
Tb41 O59 2.303 . S
Tb41 C70 2.764 . S
C42 O58 1.261 . S
C42 O59 1.257 . S
C43 C46 1.358 . S
C43 C47 1.332 . S
C43 C49 1.504 . S
C44 C45 1.373 . S
C44 C48 1.308 . S
C45 C44 1.373 . S
C45 C46 1.429 . S
C45 H72 0.932 . S
C46 C43 1.358 . S
C46 C45 1.429 . S
C46 H73 0.930 . S
C47 C43 1.332 . S
C47 C48 1.394 . S
C47 H74 0.932 . S
C48 C44 1.308 . S
C48 C47 1.394 . S
C48 H75 0.929 . S
C49 Tb40 2.764 1_565 S
C49 C43 1.504 . S
C49 O61 1.239 . S
C49 O62 1.263 . S
O50 Tb40 2.325 1_565 S
O50 C60 1.236 . S
O51 Tb41 2.322 . S
O51 C60 1.257 1_545 S
O52 Tb41 2.349 . S
O52 C63 1.261 . S
O53 Tb40 2.303 . S
O53 C63 1.257 . S
O54 Tb41 2.415 . S
O54 C70 1.239 . S
O55 Tb41 2.399 . S
O55 C70 1.263 . S
O56 Tb41 2.325 . S
O56 C71 1.236 . S
O57 Tb40 2.322 . S
O57 C71 1.257 . S
O58 Tb40 2.349 . S
O58 C42 1.261 . S
O59 Tb41 2.303 . S
O59 C42 1.257 . S
C60 O50 1.236 . S
C60 O51 1.257 1_565 S
O61 Tb40 2.415 1_565 S
O61 C49 1.239 . S
O62 Tb40 2.399 1_565 S
O62 C49 1.263 . S
C63 O52 1.261 . S
C63 O53 1.257 . S
C64 C67 1.358 . S
C64 C68 1.332 . S
C64 C70 1.504 . S
C65 C66 1.373 . S
C65 C69 1.308 . S
C66 C65 1.373 . S
C66 C67 1.429 . S
C66 H76 0.932 . S
C67 C64 1.358 . S
C67 C66 1.429 . S
C67 H77 0.930 . S
C68 C64 1.332 . S
C68 C69 1.394 . S
C68 H78 0.932 . S
C69 C65 1.308 . S
C69 C68 1.394 . S
C69 H79 0.929 . S
C70 Tb41 2.764 . S
C70 O54 1.239 . S
C70 O55 1.263 . S
C70 C64 1.504 . S
C71 O56 1.236 . S
C71 O57 1.257 . S
H72 C45 0.932 . S
H73 C46 0.930 . S
H74 C47 0.932 . S
H75 C48 0.929 . S
H76 C66 0.932 . S
H77 C67 0.930 . S
H78 C68 0.932 . S
H79 C69 0.929 . S
Tb80 C89 2.764 . S
Tb80 O90 2.325 . S
Tb80 O93 2.303 . S
Tb80 O97 2.322 . S
Tb80 O98 2.349 . S
Tb80 O101 2.415 . S
Tb80 O102 2.399 . S
Tb81 O91 2.322 . S
Tb81 O92 2.349 . S
Tb81 O94 2.415 . S
Tb81 O95 2.399 . S
Tb81 O96 2.325 . S
Tb81 O99 2.303 . S
Tb81 C110 2.764 . S
C82 O98 1.261 . S
C82 O99 1.257 . S
C83 C86 1.358 . S
C83 C87 1.332 . S
C83 C89 1.504 . S
C84 C85 1.373 . S
C84 C88 1.308 . S
C85 C84 1.373 . S
C85 C86 1.429 . S
C85 H112 0.932 . S
C86 C83 1.358 . S
C86 C85 1.429 . S
C86 H113 0.930 . S
C87 C83 1.332 . S
C87 C88 1.394 . S
C87 H114 0.932 . S
C88 C84 1.308 . S
C88 C87 1.394 . S
C88 H115 0.929 . S
C89 Tb80 2.764 . S
C89 C83 1.504 . S
C89 O101 1.239 . S
C89 O102 1.263 . S
O90 Tb80 2.325 . S
O90 C100 1.236 . S
O91 Tb81 2.322 . S
O91 C100 1.257 . S
O92 Tb81 2.349 . S
O92 C103 1.261 . S
O93 Tb80 2.303 . S
O93 C103 1.257 . S
O94 Tb81 2.415 . S
O94 C110 1.239 . S
O95 Tb81 2.399 . S
O95 C110 1.263 . S
O96 Tb81 2.325 . S
O96 C111 1.236 . S
O97 Tb80 2.322 . S
O97 C111 1.257 . S
O98 Tb80 2.349 . S
O98 C82 1.261 . S
O99 Tb81 2.303 . S
O99 C82 1.257 . S
C100 O90 1.236 . S
C100 O91 1.257 . S
O101 Tb80 2.415 . S
O101 C89 1.239 . S
O102 Tb80 2.399 . S
O102 C89 1.263 . S
C103 O92 1.261 . S
C103 O93 1.257 . S
C104 C107 1.358 . S
C104 C108 1.332 . S
C104 C110 1.504 . S
C105 C106 1.373 . S
C105 C109 1.308 . S
C106 C105 1.373 . S
C106 C107 1.429 . S
C106 H116 0.932 . S
C107 C104 1.358 . S
C107 C106 1.429 . S
C107 H117 0.930 . S
C108 C104 1.332 . S
C108 C109 1.394 . S
C108 H118 0.932 . S
C109 C105 1.308 . S
C109 C108 1.394 . S
C109 H119 0.929 . S
C110 Tb81 2.764 . S
C110 O94 1.239 . S
C110 O95 1.263 . S
C110 C104 1.504 . S
C111 O96 1.236 . S
C111 O97 1.257 . S
H112 C85 0.932 . S
H113 C86 0.930 . S
H114 C87 0.932 . S
H115 C88 0.929 . S
H116 C106 0.932 . S
H117 C107 0.930 . S
H118 C108 0.932 . S
H119 C109 0.929 . S
H120 C125 0.930 . S
H121 C128 0.930 . S
H122 C130 0.930 . S
H123 C124 1.016 . S
C124 H123 1.016 . S
C124 N131 1.286 . S
C125 H120 0.930 . S
C125 C126 1.397 . S
C125 C127 1.361 . S
C126 C125 1.397 . S
C126 C130 1.390 . S
C127 C125 1.361 . S
C127 C128 1.393 . S
C127 N131 1.413 . S
C128 H121 0.930 . S
C128 C127 1.393 . S
C128 C129 1.399 . S
C129 C128 1.399 . S
C129 C130 1.381 . S
C130 H122 0.930 . S
C130 C126 1.390 . S
C130 C129 1.381 . S
N131 C124 1.286 . S
N131 C127 1.413 . S
H132 C137 0.930 . S
H133 C140 0.930 . S
H134 C142 0.930 . S
H135 C136 1.016 . S
C136 H135 1.016 . S
C136 N143 1.286 . S
C137 H132 0.930 . S
C137 C138 1.397 . S
C137 C139 1.361 . S
C138 C137 1.397 . S
C138 C142 1.390 . S
C139 C137 1.361 . S
C139 C140 1.393 . S
C139 N143 1.413 . S
C140 H133 0.930 . S
C140 C139 1.393 . S
C140 C141 1.399 . S
C141 C140 1.399 . S
C141 C142 1.381 . S
C142 H134 0.930 . S
C142 C138 1.390 . S
C142 C141 1.381 . S
N143 C136 1.286 . S
N143 C139 1.413 . S
H144 C149 0.930 . S
H145 C152 0.930 . S
H146 C154 0.930 1_655 S
H147 C148 1.016 . S
C148 H147 1.016 . S
C148 N155 1.286 . S
C149 H144 0.930 . S
C149 C150 1.397 1_455 S
C149 C151 1.361 . S
C150 C149 1.397 1_655 S
C150 C154 1.390 1_655 S
C151 C149 1.361 . S
C151 C152 1.393 . S
C151 N155 1.413 . S
C152 H145 0.930 . S
C152 C151 1.393 . S
C152 C153 1.399 . S
C153 C152 1.399 . S
C153 C154 1.381 . S
C154 H146 0.930 1_455 S
C154 C150 1.390 1_455 S
C154 C153 1.381 . S
N155 C148 1.286 . S
N155 C151 1.413 . S
H156 C161 0.930 . S
H157 C164 0.930 . S
H158 C166 0.930 . S
H159 C160 1.016 . S
C160 H159 1.016 . S
C160 N167 1.286 . S
C161 H156 0.930 . S
C161 C162 1.397 . S
C161 C163 1.361 1_455 S
C162 C161 1.397 . S
C162 C166 1.390 . S
C163 C161 1.361 1_655 S
C163 C164 1.393 . S
C163 N167 1.413 . S
C164 H157 0.930 . S
C164 C163 1.393 . S
C164 C165 1.399 1_655 S
C165 C164 1.399 1_455 S
C165 C166 1.381 . S
C166 H158 0.930 . S
C166 C162 1.390 . S
C166 C165 1.381 . S
N167 C160 1.286 . S
N167 C163 1.413 . S
H168 C173 0.930 . S
H169 C176 0.930 . S
H170 C178 0.930 . S
H171 C172 1.016 . S
C172 H171 1.016 . S
C172 N179 1.286 . S
C173 H168 0.930 . S
C173 C174 1.397 . S
C173 C175 1.361 . S
C174 C173 1.397 . S
C174 C178 1.390 . S
C175 C173 1.361 . S
C175 C176 1.393 1_545 S
C175 N179 1.413 1_545 S
C176 H169 0.930 . S
C176 C175 1.393 1_565 S
C176 C177 1.399 1_565 S
C177 C176 1.399 1_545 S
C177 C178 1.381 . S
C178 H170 0.930 . S
C178 C174 1.390 . S
C178 C177 1.381 . S
N179 C172 1.286 . S
N179 C175 1.413 1_565 S
H180 C185 0.930 . S
H181 C188 0.930 . S
H182 C190 0.930 . S
H183 C184 1.016 . S
C184 H183 1.016 . S
C184 N191 1.286 . S
C185 H180 0.930 . S
C185 C186 1.397 . S
C185 C187 1.361 . S
C186 C185 1.397 . S
C186 C190 1.390 . S
C187 C185 1.361 . S
C187 C188 1.393 . S
C187 N191 1.413 . S
C188 H181 0.930 . S
C188 C187 1.393 . S
C188 C189 1.399 . S
C189 C188 1.399 . S
C189 C190 1.381 . S
C190 H182 0.930 . S
C190 C186 1.390 . S
C190 C189 1.381 . S
N191 C184 1.286 . S
N191 C187 1.413 . S
H192 C204 0.930 . S
H193 C206 0.930 . S
H194 C207 0.930 . S
H195 C211 0.959 . S
H196 C211 0.959 . S
H197 C211 0.961 . S
H198 C212 0.960 . S
H199 C212 0.961 . S
H200 C212 0.959 . S
H201 C215 0.929 . S
H202 C216 0.931 . S
H203 C218 0.930 . S
C204 H192 0.930 . S
C204 C205 1.399 . S
C204 C209 1.399 . S
C205 C204 1.399 . S
C205 C206 1.376 . S
C206 H193 0.930 . S
C206 C205 1.376 . S
C206 C207 1.388 . S
C207 H194 0.930 . S
C207 C206 1.388 . S
C207 C208 1.390 . S
C208 C207 1.390 . S
C208 C209 1.394 . S
C208 C214 1.465 . S
C209 C204 1.399 . S
C209 C208 1.394 . S
C209 C210 1.516 . S
C210 C209 1.516 . S
C210 C211 1.502 . S
C210 C212 1.561 . S
C210 C213 1.526 . S
C211 H195 0.959 . S
C211 H196 0.959 . S
C211 H197 0.961 . S
C211 C210 1.502 . S
C212 H198 0.960 . S
C212 H199 0.961 . S
C212 H200 0.959 . S
C212 C210 1.561 . S
C213 C210 1.526 . S
C213 C214 1.396 . S
C213 C218 1.390 . S
C214 C208 1.465 . S
C214 C213 1.396 . S
C214 C215 1.399 . S
C215 H201 0.929 . S
C215 C214 1.399 . S
C215 C216 1.385 . S
C216 H202 0.931 . S
C216 C215 1.385 . S
C216 C217 1.389 . S
C217 C216 1.389 . S
C217 C218 1.387 . S
C218 H203 0.930 . S
C218 C213 1.390 . S
C218 C217 1.387 . S
H219 C231 0.930 . S
H220 C233 0.930 . S
H221 C234 0.930 . S
H222 C238 0.959 . S
H223 C238 0.959 . S
H224 C238 0.961 . S
H225 C239 0.960 . S
H226 C239 0.961 . S
H227 C239 0.959 . S
H228 C242 0.929 . S
H229 C243 0.931 . S
H230 C245 0.930 . S
C231 H219 0.930 . S
C231 C232 1.399 . S
C231 C236 1.399 . S
C232 C231 1.399 . S
C232 C233 1.376 . S
C233 H220 0.930 . S
C233 C232 1.376 . S
C233 C234 1.388 . S
C234 H221 0.930 . S
C234 C233 1.388 . S
C234 C235 1.390 . S
C235 C234 1.390 . S
C235 C236 1.394 . S
C235 C241 1.465 . S
C236 C231 1.399 . S
C236 C235 1.394 . S
C236 C237 1.516 . S
C237 C236 1.516 . S
C237 C238 1.502 . S
C237 C239 1.561 . S
C237 C240 1.526 . S
C238 H222 0.959 . S
C238 H223 0.959 . S
C238 H224 0.961 . S
C238 C237 1.502 . S
C239 H225 0.960 . S
C239 H226 0.961 . S
C239 H227 0.959 . S
C239 C237 1.561 . S
C240 C237 1.526 . S
C240 C241 1.396 . S
C240 C245 1.390 . S
C241 C235 1.465 . S
C241 C240 1.396 . S
C241 C242 1.399 . S
C242 H228 0.929 . S
C242 C241 1.399 . S
C242 C243 1.385 . S
C243 H229 0.931 . S
C243 C242 1.385 . S
C243 C244 1.389 . S
C244 C243 1.389 . S
C244 C245 1.387 . S
C245 H230 0.930 . S
C245 C240 1.390 . S
C245 C244 1.387 . S
H246 C258 0.930 . S
H247 C260 0.930 . S
H248 C261 0.930 . S
H249 C265 0.959 . S
H250 C265 0.959 . S
H251 C265 0.961 . S
H252 C266 0.960 . S
H253 C266 0.961 . S
H254 C266 0.959 . S
H255 C269 0.929 . S
H256 C270 0.931 . S
H257 C272 0.930 . S
C258 H246 0.930 . S
C258 C259 1.399 . S
C258 C263 1.399 . S
C259 C258 1.399 . S
C259 C260 1.376 . S
C260 H247 0.930 . S
C260 C259 1.376 . S
C260 C261 1.388 . S
C261 H248 0.930 . S
C261 C260 1.388 . S
C261 C262 1.390 . S
C262 C261 1.390 . S
C262 C263 1.394 . S
C262 C268 1.465 . S
C263 C258 1.399 . S
C263 C262 1.394 . S
C263 C264 1.516 . S
C264 C263 1.516 . S
C264 C265 1.502 . S
C264 C266 1.561 . S
C264 C267 1.526 . S
C265 H249 0.959 . S
C265 H250 0.959 . S
C265 H251 0.961 . S
C265 C264 1.502 . S
C266 H252 0.960 . S
C266 H253 0.961 . S
C266 H254 0.959 . S
C266 C264 1.561 . S
C267 C264 1.526 . S
C267 C268 1.396 . S
C267 C272 1.390 . S
C268 C262 1.465 . S
C268 C267 1.396 . S
C268 C269 1.399 . S
C269 H255 0.929 . S
C269 C268 1.399 . S
C269 C270 1.385 . S
C270 H256 0.931 . S
C270 C269 1.385 . S
C270 C271 1.389 . S
C271 C270 1.389 . S
C271 C272 1.387 . S
C272 H257 0.930 . S
C272 C267 1.390 . S
C272 C271 1.387 . S
H273 C285 0.930 . S
H274 C287 0.930 . S
H275 C288 0.930 . S
H276 C292 0.959 . S
H277 C292 0.959 . S
H278 C292 0.961 . S
H279 C293 0.960 . S
H280 C293 0.961 . S
H281 C293 0.959 . S
H282 C296 0.929 . S
H283 C297 0.931 . S
H284 C299 0.930 . S
C285 H273 0.930 . S
C285 C286 1.399 . S
C285 C290 1.399 . S
C286 C285 1.399 . S
C286 C287 1.376 . S
C287 H274 0.930 . S
C287 C286 1.376 . S
C287 C288 1.388 . S
C288 H275 0.930 . S
C288 C287 1.388 . S
C288 C289 1.390 . S
C289 C288 1.390 . S
C289 C290 1.394 . S
C289 C295 1.465 . S
C290 C285 1.399 . S
C290 C289 1.394 . S
C290 C291 1.516 . S
C291 C290 1.516 . S
C291 C292 1.502 . S
C291 C293 1.561 . S
C291 C294 1.526 . S
C292 H276 0.959 . S
C292 H277 0.959 . S
C292 H278 0.961 . S
C292 C291 1.502 . S
C293 H279 0.960 . S
C293 H280 0.961 . S
C293 H281 0.959 . S
C293 C291 1.561 . S
C294 C291 1.526 . S
C294 C295 1.396 . S
C294 C299 1.390 . S
C295 C289 1.465 . S
C295 C294 1.396 . S
C295 C296 1.399 . S
C296 H282 0.929 . S
C296 C295 1.399 . S
C296 C297 1.385 . S
C297 H283 0.931 . S
C297 C296 1.385 . S
C297 C298 1.389 . S
C298 C297 1.389 . S
C298 C299 1.387 . S
C299 H284 0.930 . S
C299 C294 1.390 . S
C299 C298 1.387 . S
H300 C312 0.930 . S
H301 C314 0.930 . S
H302 C315 0.930 . S
H303 C319 0.959 . S
H304 C319 0.959 . S
H305 C319 0.961 . S
H306 C320 0.960 . S
H307 C320 0.961 . S
H308 C320 0.959 . S
H309 C323 0.929 . S
H310 C324 0.931 . S
H311 C326 0.930 . S
C312 H300 0.930 . S
C312 C313 1.399 . S
C312 C317 1.399 . S
C313 C312 1.399 . S
C313 C314 1.376 . S
C314 H301 0.930 . S
C314 C313 1.376 . S
C314 C315 1.388 . S
C315 H302 0.930 . S
C315 C314 1.388 . S
C315 C316 1.390 . S
C316 C315 1.390 . S
C316 C317 1.394 . S
C316 C322 1.465 . S
C317 C312 1.399 . S
C317 C316 1.394 . S
C317 C318 1.516 . S
C318 C317 1.516 . S
C318 C319 1.502 . S
C318 C320 1.561 . S
C318 C321 1.526 . S
C319 H303 0.959 . S
C319 H304 0.959 . S
C319 H305 0.961 . S
C319 C318 1.502 . S
C320 H306 0.960 . S
C320 H307 0.961 . S
C320 H308 0.959 . S
C320 C318 1.561 . S
C321 C318 1.526 . S
C321 C322 1.396 . S
C321 C326 1.390 . S
C322 C316 1.465 . S
C322 C321 1.396 . S
C322 C323 1.399 . S
C323 H309 0.929 . S
C323 C322 1.399 . S
C323 C324 1.385 . S
C324 H310 0.931 . S
C324 C323 1.385 . S
C324 C325 1.389 . S
C325 C324 1.389 . S
C325 C326 1.387 . S
C326 H311 0.930 . S
C326 C321 1.390 . S
C326 C325 1.387 . S
H327 C339 0.930 . S
H328 C341 0.930 . S
H329 C342 0.930 . S
H330 C346 0.959 . S
H331 C346 0.959 . S
H332 C346 0.961 . S
H333 C347 0.960 . S
H334 C347 0.961 . S
H335 C347 0.959 . S
H336 C350 0.929 . S
H337 C351 0.931 . S
H338 C353 0.930 . S
C339 H327 0.930 . S
C339 C340 1.399 . S
C339 C344 1.399 . S
C340 C339 1.399 . S
C340 C341 1.376 . S
C341 H328 0.930 . S
C341 C340 1.376 . S
C341 C342 1.388 . S
C342 H329 0.930 . S
C342 C341 1.388 . S
C342 C343 1.390 . S
C343 C342 1.390 . S
C343 C344 1.394 . S
C343 C349 1.465 . S
C344 C339 1.399 . S
C344 C343 1.394 . S
C344 C345 1.516 . S
C345 C344 1.516 . S
C345 C346 1.502 . S
C345 C347 1.561 . S
C345 C348 1.526 . S
C346 H330 0.959 . S
C346 H331 0.959 . S
C346 H332 0.961 . S
C346 C345 1.502 . S
C347 H333 0.960 . S
C347 H334 0.961 . S
C347 H335 0.959 . S
C347 C345 1.561 . S
C348 C345 1.526 . S
C348 C349 1.396 . S
C348 C353 1.390 . S
C349 C343 1.465 . S
C349 C348 1.396 . S
C349 C350 1.399 . S
C350 H336 0.929 . S
C350 C349 1.399 . S
C350 C351 1.385 . S
C351 H337 0.931 . S
C351 C350 1.385 . S
C351 C352 1.389 . S
C352 C351 1.389 . S
C352 C353 1.387 . S
C353 H338 0.930 . S
C353 C348 1.390 . S
C353 C352 1.387 . S
H354 C366 0.930 . S
H355 C368 0.930 . S
H356 C369 0.930 . S
H357 C373 0.959 . S
H358 C373 0.959 . S
H359 C373 0.961 . S
H360 C374 0.960 . S
H361 C374 0.961 . S
H362 C374 0.959 . S
H363 C377 0.929 . S
H364 C378 0.931 . S
H365 C380 0.930 . S
C366 H354 0.930 . S
C366 C367 1.399 . S
C366 C371 1.399 . S
C367 C366 1.399 . S
C367 C368 1.376 . S
C368 H355 0.930 . S
C368 C367 1.376 . S
C368 C369 1.388 . S
C369 H356 0.930 . S
C369 C368 1.388 . S
C369 C370 1.390 . S
C370 C369 1.390 . S
C370 C371 1.394 . S
C370 C376 1.465 . S
C371 C366 1.399 . S
C371 C370 1.394 . S
C371 C372 1.516 . S
C372 C371 1.516 . S
C372 C373 1.502 . S
C372 C374 1.561 . S
C372 C375 1.526 . S
C373 H357 0.959 . S
C373 H358 0.959 . S
C373 H359 0.961 . S
C373 C372 1.502 . S
C374 H360 0.960 . S
C374 H361 0.961 . S
C374 H362 0.959 . S
C374 C372 1.561 . S
C375 C372 1.526 . S
C375 C376 1.396 . S
C375 C380 1.390 . S
C376 C370 1.465 . S
C376 C375 1.396 . S
C376 C377 1.399 . S
C377 H363 0.929 . S
C377 C376 1.399 . S
C377 C378 1.385 . S
C378 H364 0.931 . S
C378 C377 1.385 . S
C378 C379 1.389 . S
C379 C378 1.389 . S
C379 C380 1.387 . S
C380 H365 0.930 . S
C380 C375 1.390 . S
C380 C379 1.387 . S
H381 C393 0.930 . S
H382 C395 0.930 . S
H383 C396 0.930 . S
H384 C400 0.959 . S
H385 C400 0.959 . S
H386 C400 0.961 . S
H387 C401 0.960 . S
H388 C401 0.961 . S
H389 C401 0.959 . S
H390 C404 0.929 . S
H391 C405 0.931 . S
H392 C407 0.930 . S
C393 H381 0.930 . S
C393 C394 1.399 . S
C393 C398 1.399 . S
C394 C393 1.399 . S
C394 C395 1.376 . S
C395 H382 0.930 . S
C395 C394 1.376 . S
C395 C396 1.388 . S
C396 H383 0.930 . S
C396 C395 1.388 . S
C396 C397 1.390 . S
C397 C396 1.390 . S
C397 C398 1.394 . S
C397 C403 1.465 . S
C398 C393 1.399 . S
C398 C397 1.394 . S
C398 C399 1.516 . S
C399 C398 1.516 . S
C399 C400 1.502 . S
C399 C401 1.561 . S
C399 C402 1.526 . S
C400 H384 0.959 . S
C400 H385 0.959 . S
C400 H386 0.961 . S
C400 C399 1.502 . S
C401 H387 0.960 . S
C401 H388 0.961 . S
C401 H389 0.959 . S
C401 C399 1.561 . S
C402 C399 1.526 . S
C402 C403 1.396 . S
C402 C407 1.390 . S
C403 C397 1.465 . S
C403 C402 1.396 . S
C403 C404 1.399 . S
C404 H390 0.929 . S
C404 C403 1.399 . S
C404 C405 1.385 . S
C405 H391 0.931 . S
C405 C404 1.385 . S
C405 C406 1.389 . S
C406 C405 1.389 . S
C406 C407 1.387 . S
C407 H392 0.930 . S
C407 C402 1.390 . S
C407 C406 1.387 . S
H408 C420 0.930 . S
H409 C422 0.930 . S
H410 C423 0.930 . S
H411 C427 0.959 . S
H412 C427 0.959 . S
H413 C427 0.961 . S
H414 C428 0.960 . S
H415 C428 0.961 . S
H416 C428 0.959 . S
H417 C431 0.929 . S
H418 C432 0.931 . S
H419 C434 0.930 . S
C420 H408 0.930 . S
C420 C421 1.399 . S
C420 C425 1.399 . S
C421 C420 1.399 . S
C421 C422 1.376 . S
C422 H409 0.930 . S
C422 C421 1.376 . S
C422 C423 1.388 . S
C423 H410 0.930 . S
C423 C422 1.388 . S
C423 C424 1.390 . S
C424 C423 1.390 . S
C424 C425 1.394 . S
C424 C430 1.465 . S
C425 C420 1.399 . S
C425 C424 1.394 . S
C425 C426 1.516 . S
C426 C425 1.516 . S
C426 C427 1.502 . S
C426 C428 1.561 . S
C426 C429 1.526 . S
C427 H411 0.959 . S
C427 H412 0.959 . S
C427 H413 0.961 . S
C427 C426 1.502 . S
C428 H414 0.960 . S
C428 H415 0.961 . S
C428 H416 0.959 . S
C428 C426 1.561 . S
C429 C426 1.526 . S
C429 C430 1.396 . S
C429 C434 1.390 . S
C430 C424 1.465 . S
C430 C429 1.396 . S
C430 C431 1.399 . S
C431 H417 0.929 . S
C431 C430 1.399 . S
C431 C432 1.385 . S
C432 H418 0.931 . S
C432 C431 1.385 . S
C432 C433 1.389 . S
C433 C432 1.389 . S
C433 C434 1.387 . S
C434 H419 0.930 . S
C434 C429 1.390 . S
C434 C433 1.387 . S
H435 C447 0.930 . S
H436 C449 0.930 . S
H437 C450 0.930 . S
H438 C454 0.959 . S
H439 C454 0.959 . S
H440 C454 0.961 . S
H441 C455 0.960 . S
H442 C455 0.961 . S
H443 C455 0.959 . S
H444 C458 0.929 . S
H445 C459 0.931 . S
H446 C461 0.930 . S
C447 H435 0.930 . S
C447 C448 1.399 . S
C447 C452 1.399 . S
C448 C447 1.399 . S
C448 C449 1.376 . S
C449 H436 0.930 . S
C449 C448 1.376 . S
C449 C450 1.388 . S
C450 H437 0.930 . S
C450 C449 1.388 . S
C450 C451 1.390 . S
C451 C450 1.390 . S
C451 C452 1.394 . S
C451 C457 1.465 . S
C452 C447 1.399 . S
C452 C451 1.394 . S
C452 C453 1.516 . S
C453 C452 1.516 . S
C453 C454 1.502 . S
C453 C455 1.561 . S
C453 C456 1.526 . S
C454 H438 0.959 . S
C454 H439 0.959 . S
C454 H440 0.961 . S
C454 C453 1.502 . S
C455 H441 0.960 . S
C455 H442 0.961 . S
C455 H443 0.959 . S
C455 C453 1.561 . S
C456 C453 1.526 . S
C456 C457 1.396 . S
C456 C461 1.390 . S
C457 C451 1.465 . S
C457 C456 1.396 . S
C457 C458 1.399 . S
C458 H444 0.929 . S
C458 C457 1.399 . S
C458 C459 1.385 . S
C459 H445 0.931 . S
C459 C458 1.385 . S
C459 C460 1.389 . S
C460 C459 1.389 . S
C460 C461 1.387 . S
C461 H446 0.930 . S
C461 C456 1.390 . S
C461 C460 1.387 . S
H462 C474 0.930 . S
H463 C476 0.930 . S
H464 C477 0.930 . S
H465 C481 0.959 . S
H466 C481 0.959 . S
H467 C481 0.961 . S
H468 C482 0.960 . S
H469 C482 0.961 . S
H470 C482 0.959 . S
H471 C485 0.929 . S
H472 C486 0.931 . S
H473 C488 0.930 . S
C474 H462 0.930 . S
C474 C475 1.399 . S
C474 C479 1.399 . S
C475 C474 1.399 . S
C475 C476 1.376 . S
C476 H463 0.930 . S
C476 C475 1.376 . S
C476 C477 1.388 . S
C477 H464 0.930 . S
C477 C476 1.388 . S
C477 C478 1.390 . S
C478 C477 1.390 . S
C478 C479 1.394 . S
C478 C484 1.465 . S
C479 C474 1.399 . S
C479 C478 1.394 . S
C479 C480 1.516 . S
C480 C479 1.516 . S
C480 C481 1.502 . S
C480 C482 1.561 . S
C480 C483 1.526 . S
C481 H465 0.959 . S
C481 H466 0.959 . S
C481 H467 0.961 . S
C481 C480 1.502 . S
C482 H468 0.960 . S
C482 H469 0.961 . S
C482 H470 0.959 . S
C482 C480 1.561 . S
C483 C480 1.526 . S
C483 C484 1.396 . S
C483 C488 1.390 . S
C484 C478 1.465 . S
C484 C483 1.396 . S
C484 C485 1.399 . S
C485 H471 0.929 . S
C485 C484 1.399 . S
C485 C486 1.385 . S
C486 H472 0.931 . S
C486 C485 1.385 . S
C486 C487 1.389 . S
C487 C486 1.389 . S
C487 C488 1.387 . S
C488 H473 0.930 . S
C488 C483 1.390 . S
C488 C487 1.387 . S
H489 C501 0.930 . S
H490 C503 0.930 . S
H491 C504 0.930 . S
H492 C508 0.959 . S
H493 C508 0.959 . S
H494 C508 0.961 . S
H495 C509 0.960 . S
H496 C509 0.961 . S
H497 C509 0.959 . S
H498 C512 0.929 . S
H499 C513 0.931 . S
H500 C515 0.930 . S
C501 H489 0.930 . S
C501 C502 1.399 . S
C501 C506 1.399 . S
C502 C501 1.399 . S
C502 C503 1.376 . S
C503 H490 0.930 . S
C503 C502 1.376 . S
C503 C504 1.388 . S
C504 H491 0.930 . S
C504 C503 1.388 . S
C504 C505 1.390 . S
C505 C504 1.390 . S
C505 C506 1.394 . S
C505 C511 1.465 . S
C506 C501 1.399 . S
C506 C505 1.394 . S
C506 C507 1.516 . S
C507 C506 1.516 . S
C507 C508 1.502 . S
C507 C509 1.561 . S
C507 C510 1.526 . S
C508 H492 0.959 . S
C508 H493 0.959 . S
C508 H494 0.961 . S
C508 C507 1.502 . S
C509 H495 0.960 . S
C509 H496 0.961 . S
C509 H497 0.959 . S
C509 C507 1.561 . S
C510 C507 1.526 . S
C510 C511 1.396 . S
C510 C515 1.390 . S
C511 C505 1.465 . S
C511 C510 1.396 . S
C511 C512 1.399 . S
C512 H498 0.929 . S
C512 C511 1.399 . S
C512 C513 1.385 . S
C513 H499 0.931 . S
C513 C512 1.385 . S
C513 C514 1.389 . S
C514 C513 1.389 . S
C514 C515 1.387 . S
C515 H500 0.930 . S
C515 C510 1.390 . S
C515 C514 1.387 . S
H516 C528 0.930 . S
H517 C530 0.930 . S
H518 C531 0.930 . S
H519 C535 0.959 . S
H520 C535 0.959 . S
H521 C535 0.961 . S
H522 C536 0.960 . S
H523 C536 0.961 . S
H524 C536 0.959 . S
H525 C539 0.929 . S
H526 C540 0.931 . S
H527 C542 0.930 . S
C528 H516 0.930 . S
C528 C529 1.399 . S
C528 C533 1.399 . S
C529 C528 1.399 . S
C529 C530 1.376 . S
C530 H517 0.930 . S
C530 C529 1.376 . S
C530 C531 1.388 . S
C531 H518 0.930 . S
C531 C530 1.388 . S
C531 C532 1.390 . S
C532 C531 1.390 . S
C532 C533 1.394 . S
C532 C538 1.465 1_554 S
C533 C528 1.399 . S
C533 C532 1.394 . S
C533 C534 1.516 . S
C534 C533 1.516 . S
C534 C535 1.502 . S
C534 C536 1.561 . S
C534 C537 1.526 1_554 S
C535 H519 0.959 . S
C535 H520 0.959 . S
C535 H521 0.961 . S
C535 C534 1.502 . S
C536 H522 0.960 . S
C536 H523 0.961 . S
C536 H524 0.959 . S
C536 C534 1.561 . S
C537 C534 1.526 1_556 S
C537 C538 1.396 . S
C537 C542 1.390 . S
C538 C532 1.465 1_556 S
C538 C537 1.396 . S
C538 C539 1.399 . S
C539 H525 0.929 . S
C539 C538 1.399 . S
C539 C540 1.385 . S
C540 H526 0.931 . S
C540 C539 1.385 . S
C540 C541 1.389 . S
C541 C540 1.389 . S
C541 C542 1.387 . S
C542 H527 0.930 . S
C542 C537 1.390 . S
C542 C541 1.387 . S
H543 C555 0.930 . S
H544 C557 0.930 1_565 S
H545 C558 0.930 1_565 S
H546 C562 0.959 . S
H547 C562 0.959 . S
H548 C562 0.961 . S
H549 C563 0.960 . S
H550 C563 0.961 . S
H551 C563 0.959 . S
H552 C566 0.929 1_565 S
H553 C567 0.931 1_565 S
H554 C569 0.930 . S
C555 H543 0.930 . S
C555 C556 1.399 . S
C555 C560 1.399 . S
C556 C555 1.399 . S
C556 C557 1.376 . S
C557 H544 0.930 1_545 S
C557 C556 1.376 . S
C557 C558 1.388 . S
C558 H545 0.930 1_545 S
C558 C557 1.388 . S
C558 C559 1.390 . S
C559 C558 1.390 . S
C559 C560 1.394 . S
C559 C565 1.465 . S
C560 C555 1.399 . S
C560 C559 1.394 . S
C560 C561 1.516 . S
C561 C560 1.516 . S
C561 C562 1.502 . S
C561 C563 1.561 . S
C561 C564 1.526 . S
C562 H546 0.959 . S
C562 H547 0.959 . S
C562 H548 0.961 . S
C562 C561 1.502 . S
C563 H549 0.960 . S
C563 H550 0.961 . S
C563 H551 0.959 . S
C563 C561 1.561 . S
C564 C561 1.526 . S
C564 C565 1.396 . S
C564 C569 1.390 . S
C565 C559 1.465 . S
C565 C564 1.396 . S
C565 C566 1.399 . S
C566 H552 0.929 1_545 S
C566 C565 1.399 . S
C566 C567 1.385 . S
C567 H553 0.931 1_545 S
C567 C566 1.385 . S
C567 C568 1.389 . S
C568 C567 1.389 . S
C568 C569 1.387 . S
C569 H554 0.930 . S
C569 C564 1.390 . S
C569 C568 1.387 . S
H570 C582 0.930 . S
H571 C584 0.930 . S
H572 C585 0.930 . S
H573 C589 0.959 . S
H574 C589 0.959 . S
H575 C589 0.961 . S
H576 C590 0.960 . S
H577 C590 0.961 . S
H578 C590 0.959 . S
H579 C593 0.929 . S
H580 C594 0.931 . S
H581 C596 0.930 . S
C582 H570 0.930 . S
C582 C583 1.399 . S
C582 C587 1.399 . S
C583 C582 1.399 . S
C583 C584 1.376 . S
C584 H571 0.930 . S
C584 C583 1.376 . S
C584 C585 1.388 . S
C585 H572 0.930 . S
C585 C584 1.388 . S
C585 C586 1.390 . S
C586 C585 1.390 . S
C586 C587 1.394 . S
C586 C592 1.465 . S
C587 C582 1.399 . S
C587 C586 1.394 . S
C587 C588 1.516 . S
C588 C587 1.516 . S
C588 C589 1.502 . S
C588 C590 1.561 . S
C588 C591 1.526 . S
C589 H573 0.959 . S
C589 H574 0.959 . S
C589 H575 0.961 . S
C589 C588 1.502 . S
C590 H576 0.960 . S
C590 H577 0.961 . S
C590 H578 0.959 . S
C590 C588 1.561 . S
C591 C588 1.526 . S
C591 C592 1.396 . S
C591 C596 1.390 . S
C592 C586 1.465 . S
C592 C591 1.396 . S
C592 C593 1.399 . S
C593 H579 0.929 . S
C593 C592 1.399 . S
C593 C594 1.385 . S
C594 H580 0.931 . S
C594 C593 1.385 . S
C594 C595 1.389 . S
C595 C594 1.389 . S
C595 C596 1.387 . S
C596 H581 0.930 . S
C596 C591 1.390 . S
C596 C595 1.387 . S
H597 C609 0.930 . S
H598 C611 0.930 . S
H599 C612 0.930 1_565 S
H600 C616 0.959 . S
H601 C616 0.959 . S
H602 C616 0.961 . S
H603 C617 0.960 . S
H604 C617 0.961 . S
H605 C617 0.959 . S
H606 C620 0.929 . S
H607 C621 0.931 . S
H608 C623 0.930 . S
C609 H597 0.930 . S
C609 C610 1.399 . S
C609 C614 1.399 . S
C610 C609 1.399 . S
C610 C611 1.376 . S
C611 H598 0.930 . S
C611 C610 1.376 . S
C611 C612 1.388 . S
C612 H599 0.930 1_545 S
C612 C611 1.388 . S
C612 C613 1.390 . S
C613 C612 1.390 . S
C613 C614 1.394 . S
C613 C619 1.465 . S
C614 C609 1.399 . S
C614 C613 1.394 . S
C614 C615 1.516 . S
C615 C614 1.516 . S
C615 C616 1.502 . S
C615 C617 1.561 . S
C615 C618 1.526 . S
C616 H600 0.959 . S
C616 H601 0.959 . S
C616 H602 0.961 . S
C616 C615 1.502 . S
C617 H603 0.960 . S
C617 H604 0.961 . S
C617 H605 0.959 . S
C617 C615 1.561 . S
C618 C615 1.526 . S
C618 C619 1.396 . S
C618 C623 1.390 . S
C619 C613 1.465 . S
C619 C618 1.396 . S
C619 C620 1.399 1_545 S
C620 H606 0.929 . S
C620 C619 1.399 1_565 S
C620 C621 1.385 . S
C621 H607 0.931 . S
C621 C620 1.385 . S
C621 C622 1.389 1_565 S
C622 C621 1.389 1_545 S
C622 C623 1.387 . S
C623 H608 0.930 . S
C623 C618 1.390 . S
C623 C622 1.387 . S
H624 C636 0.930 . S
H625 C638 0.930 . S
H626 C639 0.930 . S
H627 C643 0.959 . S
H628 C643 0.959 1_554 S
H629 C643 0.961 . S
H630 C644 0.960 . S
H631 C644 0.961 1_554 S
H632 C644 0.959 . S
H633 C647 0.929 . S
H634 C648 0.931 . S
H635 C650 0.930 . S
C636 H624 0.930 . S
C636 C637 1.399 . S
C636 C641 1.399 . S
C637 C636 1.399 . S
C637 C638 1.376 . S
C638 H625 0.930 . S
C638 C637 1.376 . S
C638 C639 1.388 . S
C639 H626 0.930 . S
C639 C638 1.388 . S
C639 C640 1.390 . S
C640 C639 1.390 . S
C640 C641 1.394 . S
C640 C646 1.465 . S
C641 C636 1.399 . S
C641 C640 1.394 . S
C641 C642 1.516 . S
C642 C641 1.516 . S
C642 C643 1.502 . S
C642 C644 1.561 . S
C642 C645 1.526 1_556 S
C643 H627 0.959 . S
C643 H628 0.959 1_556 S
C643 H629 0.961 . S
C643 C642 1.502 . S
C644 H630 0.960 . S
C644 H631 0.961 1_556 S
C644 H632 0.959 . S
C644 C642 1.561 . S
C645 C642 1.526 1_554 S
C645 C646 1.396 1_554 S
C645 C650 1.390 . S
C646 C640 1.465 . S
C646 C645 1.396 1_556 S
C646 C647 1.399 . S
C647 H633 0.929 . S
C647 C646 1.399 . S
C647 C648 1.385 1_556 S
C648 H634 0.931 . S
C648 C647 1.385 1_554 S
C648 C649 1.389 . S
C649 C648 1.389 . S
C649 C650 1.387 . S
C650 H635 0.930 . S
C650 C645 1.390 . S
C650 C649 1.387 . S
H651 C663 0.930 . S
H652 C665 0.930 1_655 S
H653 C666 0.930 . S
H654 C670 0.959 . S
H655 C670 0.959 . S
H656 C670 0.961 . S
H657 C671 0.960 . S
H658 C671 0.961 . S
H659 C671 0.959 . S
H660 C674 0.929 . S
H661 C675 0.931 . S
H662 C677 0.930 . S
C663 H651 0.930 . S
C663 C664 1.399 . S
C663 C668 1.399 . S
C664 C663 1.399 . S
C664 C665 1.376 . S
C665 H652 0.930 1_455 S
C665 C664 1.376 . S
C665 C666 1.388 1_455 S
C666 H653 0.930 . S
C666 C665 1.388 1_655 S
C666 C667 1.390 1_655 S
C667 C666 1.390 1_455 S
C667 C668 1.394 . S
C667 C673 1.465 . S
C668 C663 1.399 . S
C668 C667 1.394 . S
C668 C669 1.516 . S
C669 C668 1.516 . S
C669 C670 1.502 . S
C669 C671 1.561 . S
C669 C672 1.526 . S
C670 H654 0.959 . S
C670 H655 0.959 . S
C670 H656 0.961 . S
C670 C669 1.502 . S
C671 H657 0.960 . S
C671 H658 0.961 . S
C671 H659 0.959 . S
C671 C669 1.561 . S
C672 C669 1.526 . S
C672 C673 1.396 . S
C672 C677 1.390 . S
C673 C667 1.465 . S
C673 C672 1.396 . S
C673 C674 1.399 1_455 S
C674 H660 0.929 . S
C674 C673 1.399 1_655 S
C674 C675 1.385 . S
C675 H661 0.931 . S
C675 C674 1.385 . S
C675 C676 1.389 1_655 S
C676 C675 1.389 1_455 S
C676 C677 1.387 . S
C677 H662 0.930 . S
C677 C672 1.390 . S
C677 C676 1.387 . S
C205 C25 0.677 . S
C217 C186 0.603 . S
C232 C65 0.427 . S
C244 C160 0.345 . S
C259 C105 0.379 . S
C271 C172 0.337 . S
C286 C4 0.307 . S
C298 C184 0.397 . S
C325 C162 0.167 . S
C313 C44 0.227 . S
C352 C174 0.272 . S
C340 C84 0.332 . S
C367 C60 3.022 . S
C379 C136 2.925 . S
C394 C100 3.332 . S
C406 C150 3.313 . S
C421 C31 2.978 . S
C433 C126 2.923 1_565 S
C460 C138 2.953 . S
C448 C71 2.987 . S
C487 C148 2.615 . S
C475 C111 2.710 . S
C502 C20 3.024 . S
C514 C124 2.961 . S
C541 C153 1.789 . S
C529 C2 1.745 . S
C556 C42 1.740 . S
C568 C129 1.753 . S
C583 C82 1.689 . S
C595 C141 1.727 . S
C622 C177 1.195 . S
C610 C63 1.207 . S
C649 C189 1.230 . S
C637 C103 1.202 . S
C664 C23 1.177 . S
C676 C165 1.185 . S
