# Generated by pormake.
# Topology tsx, (6,3)-cn, num edge types: 1
# Building blocks:
#     Node 0, Type 0, BuildingBlock: VOLQOD_clean_sbu_1, # of connection points: 6
#     Node 1, Type 0, BuildingBlock: VOLQOD_clean_sbu_1, # of connection points: 6
#     Node 2, Type 1, BuildingBlock: ESEHIV_clean_linker_0, # of connection points: 3
#     Node 3, Type 1, BuildingBlock: ESEHIV_clean_linker_0, # of connection points: 3
#     Node 4, Type 1, BuildingBlock: ESEHIV_clean_linker_0, # of connection points: 3
#     Node 5, Type 1, BuildingBlock: ESEHIV_clean_linker_0, # of connection points: 3
#     Edge 6, Type (0, 1), BuildingBlock: KIFKEQ_clean_linker_1, # of connection points: 2
#     Edge 7, Type (0, 1), BuildingBlock: KIFKEQ_clean_linker_1, # of connection points: 2
#     Edge 8, Type (0, 1), BuildingBlock: KIFKEQ_clean_linker_1, # of connection points: 2
#     Edge 9, Type (0, 1), BuildingBlock: KIFKEQ_clean_linker_1, # of connection points: 2
#     Edge 10, Type (0, 1), BuildingBlock: KIFKEQ_clean_linker_1, # of connection points: 2
#     Edge 11, Type (0, 1), BuildingBlock: KIFKEQ_clean_linker_1, # of connection points: 2
#     Edge 12, Type (0, 1), BuildingBlock: KIFKEQ_clean_linker_1, # of connection points: 2
#     Edge 13, Type (0, 1), BuildingBlock: KIFKEQ_clean_linker_1, # of connection points: 2
#     Edge 14, Type (0, 1), BuildingBlock: KIFKEQ_clean_linker_1, # of connection points: 2
#     Edge 15, Type (0, 1), BuildingBlock: KIFKEQ_clean_linker_1, # of connection points: 2
#     Edge 16, Type (0, 1), BuildingBlock: KIFKEQ_clean_linker_1, # of connection points: 2
#     Edge 17, Type (0, 1), BuildingBlock: KIFKEQ_clean_linker_1, # of connection points: 2
# Relax obj value: 0.075
# Max RMSD: 0.108
# Mean RMSD: 0.082
data_MOF--net-tsx--node1-VOLQOD_clean_sbu_1--node2-ESEHIV_clean_linker_0--edge1-KIFKEQ_clean_linker_1
_symmetry_space_group_name_H-M    P1
_symmetry_Int_Tables_number       1
_symmetry_cell_setting            triclinic
loop_
_symmetry_equiv_pos_as_xyz
'x, y, z'
_cell_length_a     19.758544
_cell_length_b     20.433908
_cell_length_c     38.875689
_cell_angle_alpha  90.616035
_cell_angle_beta   89.934975
_cell_angle_gamma 90.259911
loop_
_atom_site_label
_atom_site_type_symbol
_atom_site_fract_x
_atom_site_fract_y
_atom_site_fract_z
_atom_type_partial_charge
O0 O 0.04511 0.97498 0.08599 0.0
Zn1 Zn 0.07436 0.97779 0.03635 0.0
O2 O -0.00197 -0.00177 0.00646 0.0
Zn3 Zn 0.97995 0.92463 0.97579 0.0
Zn4 Zn 0.91786 0.01676 0.03467 0.0
Zn5 Zn 0.02047 0.0731 0.97801 0.0
O6 O 0.97867 0.95053 0.92604 0.0
O7 O 0.02464 0.04966 0.9276 0.0
O8 O 0.11864 0.89204 0.02273 0.0
O9 O 0.05307 0.85799 0.97975 0.0
O10 O 0.89243 0.88098 0.98765 0.0
O11 O 0.84719 0.94579 0.02762 0.0
O12 O 0.87627 0.10375 0.02194 0.0
O13 O 0.14494 0.04895 0.0335 0.0
O14 O 0.94786 0.14051 0.9824 0.0
O15 O 0.10859 0.1144 0.99226 0.0
C16 C 0.99246 -0.00505 0.10182 0.0
C17 C 0.00214 0.00048 0.91072 0.0
C18 C 0.8447 0.89483 0.00845 0.0
C19 C 0.1042 0.85048 0.99915 0.0
C20 C 0.89426 0.14696 1.00029 0.0
C21 C 0.15218 0.09948 0.01492 0.0
O22 O 0.94126 0.01625 0.08547 0.0
O23 O 0.5557 0.48281 0.58452 0.0
Zn24 Zn 0.58164 0.48315 0.53421 0.0
O25 O 0.50378 0.5032 0.50522 0.0
Zn26 Zn 0.48181 0.42852 0.47564 0.0
Zn27 Zn 0.42638 0.5241 0.53466 0.0
Zn28 Zn 0.52516 0.57706 0.47576 0.0
O29 O 0.48134 0.45222 0.42552 0.0
O30 O 0.52841 0.55096 0.42568 0.0
O31 O 0.62287 0.39588 0.52103 0.0
O32 O 0.55294 0.35976 0.48028 0.0
O33 O 0.39232 0.38809 0.48828 0.0
O34 O 0.35501 0.45376 0.52996 0.0
O35 O 0.38415 0.61023 0.52142 0.0
O36 O 0.65303 0.55335 0.52936 0.0
O37 O 0.4522 0.6446 0.47975 0.0
O38 O 0.61373 0.61914 0.48898 0.0
C39 C 0.50435 0.50454 0.60083 0.0
C40 C 0.50538 0.50115 0.4095 0.0
C41 C 0.34787 0.40339 0.51067 0.0
C42 C 0.6054 0.35268 0.49883 0.0
C43 C 0.40003 0.65201 0.49864 0.0
C44 C 0.65903 0.60402 0.51074 0.0
O45 O 0.45276 0.52602 0.58491 0.0
H46 H 0.90025 0.04684 0.36775 0.0
H47 H 0.08503 0.93616 0.36603 0.0
H48 H -0.00432 0.99313 0.4627 0.0
C49 C 0.94049 0.02186 0.38119 0.0
C50 C 0.94183 0.02325 0.41733 0.0
C51 C 0.99238 0.99128 0.36234 0.0
C52 C 0.04537 0.96116 0.38022 0.0
C53 C 0.04638 0.96104 0.41636 0.0
C54 C -0.00535 0.99241 0.4348 0.0
H55 H 0.94405 0.91817 0.64668 0.0
H56 H 0.06969 0.08927 0.64692 0.0
H57 H 0.00438 0.00402 0.55058 0.0
C58 C 0.97091 0.95566 0.63255 0.0
C59 C 0.96829 0.95602 0.59639 0.0
C60 C 0.00702 0.00368 0.65086 0.0
C61 C 0.04218 0.05184 0.63269 0.0
C62 C 0.04288 0.05173 0.59649 0.0
C63 C 0.00512 0.00392 0.57844 0.0
H64 H 0.41111 0.55647 0.86619 0.0
H65 H 0.59432 0.44324 0.86579 0.0
H66 H 0.50089 0.49829 0.96176 0.0
C67 C 0.45047 0.53073 0.87988 0.0
C68 C 0.45002 0.53091 0.91602 0.0
C69 C 0.50277 0.49991 0.8614 0.0
C70 C 0.55446 0.46855 0.87967 0.0
C71 C 0.55354 0.46719 0.9158 0.0
C72 C 0.50145 0.49878 0.93386 0.0
H73 H 0.45119 0.40623 0.1448 0.0
H74 H 0.56819 0.58447 0.14503 0.0
H75 H 0.50264 0.49844 0.04925 0.0
C76 C 0.47545 0.44592 0.13111 0.0
C77 C 0.47279 0.44672 0.09503 0.0
C78 C 0.50898 0.49579 0.14957 0.0
C79 C 0.54168 0.54569 0.13129 0.0
C80 C 0.53947 0.54678 0.09522 0.0
C81 C 0.50385 0.49797 0.07715 0.0
H82 H 0.19891 0.19823 0.97403 0.0
H83 H 0.23537 0.10245 0.07079 0.0
H84 H 0.28701 0.27832 0.98763 0.0
H85 H 0.3208 0.18369 0.08507 0.0
H86 H 0.49535 0.31628 0.09983 0.0
H87 H 0.42837 0.22746 0.07464 0.0
H88 H 0.30098 0.3695 0.0247 0.0
H89 H 0.37054 0.45777 0.04865 0.0
C90 C 0.22593 0.19412 0.99814 0.0
C91 C 0.20985 0.14425 0.02144 0.0
C92 C 0.27617 0.24025 0.00603 0.0
C93 C 0.31085 0.23795 0.03757 0.0
C94 C 0.29618 0.1866 0.06028 0.0
C95 C 0.24667 0.14008 0.0522 0.0
C96 C 0.45357 0.32809 0.083 0.0
C97 C 0.43733 0.3935 0.0764 0.0
C98 C 0.41493 0.2774 0.06873 0.0
C99 C 0.35838 0.29115 0.04811 0.0
C100 C 0.34442 0.35684 0.04017 0.0
C101 C 0.38391 0.40753 0.054 0.0
H102 H 0.10486 0.77084 0.9427 0.0
H103 H 0.20724 0.80412 0.03954 0.0
H104 H 0.18544 0.68679 0.92775 0.0
H105 H 0.28683 0.71676 0.02527 0.0
H106 H 0.46682 0.62747 0.96396 0.0
H107 H 0.37956 0.6976 0.98878 0.0
H108 H 0.22584 0.58223 0.93663 0.0
H109 H 0.31392 0.51504 0.91035 0.0
C110 C 0.14385 0.75922 0.9612 0.0
C111 C 0.14984 0.79461 0.99224 0.0
C112 C 0.18999 0.71032 0.95272 0.0
C113 C 0.24293 0.69452 0.97528 0.0
C114 C 0.24744 0.72825 0.00699 0.0
C115 C 0.20161 0.77808 0.01529 0.0
C116 C 0.41419 0.61694 0.95824 0.0
C117 C 0.39679 0.56681 0.9349 0.0
C118 C 0.36403 0.65678 0.97261 0.0
C119 C 0.2954 0.64646 0.96432 0.0
C120 C 0.27815 0.59305 0.94279 0.0
C121 C 0.32839 0.55421 0.92789 0.0
H122 H 0.72523 0.9114 0.04353 0.0
H123 H 0.83861 0.7695 0.98382 0.0
H124 H 0.64296 0.82611 0.05835 0.0
H125 H 0.75712 0.68488 0.99931 0.0
H126 H 0.67453 0.56465 0.09658 0.0
H127 H 0.7404 0.65043 0.06843 0.0
H128 H 0.55738 0.729 0.02499 0.0
H129 H 0.49122 0.64125 0.05253 0.0
C130 C 0.73193 0.86253 0.03305 0.0
C131 C 0.78894 0.84706 0.01287 0.0
C132 C 0.68467 0.81401 0.04136 0.0
C133 C 0.69429 0.74933 0.02999 0.0
C134 C 0.74894 0.73461 0.00829 0.0
C135 C 0.79549 0.78313 0.99952 0.0
C136 C 0.64862 0.5999 0.08073 0.0
C137 C 0.57822 0.59694 0.07665 0.0
C138 C 0.68611 0.64858 0.06458 0.0
C139 C 0.65366 0.69582 0.04463 0.0
C140 C 0.58316 0.69284 0.0403 0.0
C141 C 0.54563 0.64295 0.05589 0.0
H142 H 0.89957 0.22857 0.94558 0.0
H143 H 0.78746 0.19228 0.03901 0.0
H144 H 0.81995 0.31244 0.93002 0.0
H145 H 0.7089 0.27954 0.0243 0.0
H146 H 0.53413 0.36858 0.96109 0.0
H147 H 0.61994 0.29837 0.98617 0.0
H148 H 0.77662 0.41595 0.93894 0.0
H149 H 0.68999 0.4832 0.91226 0.0
C150 C 0.85866 0.23957 0.96326 0.0
C151 C 0.8496 0.20329 0.99343 0.0
C152 C 0.81302 0.28835 0.95444 0.0
C153 C 0.75757 0.30314 0.97583 0.0
C154 C 0.75018 0.26875 0.00684 0.0
C155 C 0.79545 0.219 0.01542 0.0
C156 C 0.58706 0.37951 0.95648 0.0
C157 C 0.60578 0.43043 0.93446 0.0
C158 C 0.6364 0.33965 0.97103 0.0
C159 C 0.70555 0.35073 0.9643 0.0
C160 C 0.72397 0.40459 0.94393 0.0
C161 C 0.67455 0.44346 0.9288 0.0
H162 H 0.74898 0.60285 0.56395 0.0
H163 H 0.69819 0.70908 0.47191 0.0
H164 H 0.83033 0.68815 0.57962 0.0
H165 H 0.78093 0.79396 0.48773 0.0
H166 H -0.00291 0.8881 0.53633 0.0
H167 H 0.92981 0.79934 0.50993 0.0
H168 H 0.77892 0.82202 0.58933 0.0
H169 H 0.84328 0.91195 0.61471 0.0
C170 C 0.75625 0.64343 0.54661 0.0
C171 C 0.71634 0.64958 0.51691 0.0
C172 C 0.80289 0.69208 0.55561 0.0
C173 C 0.8114 0.74716 0.53482 0.0
C174 C 0.77527 0.75147 0.50394 0.0
C175 C 0.72778 0.70313 0.4951 0.0
C176 C 0.94896 0.87495 0.54775 0.0
C177 C 0.92618 0.9063 0.57805 0.0
C178 C 0.91088 0.82407 0.53275 0.0
C179 C 0.85017 0.80367 0.54812 0.0
C180 C 0.82629 0.83646 0.57747 0.0
C181 C 0.86344 0.88761 0.59206 0.0
H182 H 0.70834 0.30615 0.5391 0.0
H183 H 0.6017 0.26948 0.44379 0.0
H184 H 0.78522 0.21618 0.52563 0.0
H185 H 0.67974 0.18267 0.42954 0.0
H186 H 0.80527 0.0084 0.41332 0.0
H187 H 0.71902 0.07803 0.43946 0.0
H188 H 0.87615 0.19365 0.48873 0.0
H189 H 0.9615 0.12127 0.4641 0.0
C190 C 0.70121 0.2788 0.51535 0.0
C191 C 0.6491 0.29517 0.49247 0.0
C192 C 0.74549 0.22744 0.50751 0.0
C193 C 0.73913 0.19201 0.47639 0.0
C194 C 0.68571 0.20757 0.45407 0.0
C195 C 0.64104 0.25802 0.46213 0.0
C196 C 0.82087 0.04811 0.43026 0.0
C197 C 0.88968 0.06013 0.4365 0.0
C198 C 0.77168 0.08836 0.44506 0.0
C199 C 0.79042 0.14255 0.4657 0.0
C200 C 0.85946 0.15226 0.47329 0.0
C201 C 0.90855 0.11108 0.45903 0.0
H202 H 0.30781 0.29765 0.47143 0.0
H203 H 0.25868 0.40591 0.56433 0.0
H204 H 0.22565 0.21296 0.48739 0.0
H205 H 0.17787 0.32078 0.5801 0.0
H206 H 0.16871 0.09615 0.61347 0.0
H207 H 0.23157 0.18615 0.58809 0.0
H208 H 0.07621 0.20874 0.51139 0.0
H209 H 0.01052 0.1199 0.53782 0.0
C210 C 0.27865 0.30411 0.49482 0.0
C211 C 0.29048 0.35814 0.51685 0.0
C212 C 0.2315 0.25586 0.50375 0.0
C213 C 0.19604 0.26079 0.53489 0.0
C214 C 0.20478 0.31639 0.55589 0.0
C215 C 0.25112 0.36494 0.54683 0.0
C216 C 0.14727 0.12048 0.59143 0.0
C217 C 0.08381 0.10169 0.57817 0.0
C218 C 0.18355 0.17166 0.57683 0.0
C219 C 0.15801 0.20439 0.54823 0.0
C220 C 0.09643 0.18401 0.53362 0.0
C221 C 0.05927 0.13309 0.54863 0.0
H222 H 0.3989 0.72957 0.4422 0.0
H223 H 0.29685 0.69922 0.53913 0.0
H224 H 0.31637 0.8112 0.42701 0.0
H225 H 0.21548 0.78414 0.52469 0.0
H226 H 0.03296 0.86574 0.46423 0.0
H227 H 0.12236 0.7987 0.48852 0.0
H228 H 0.27225 0.9148 0.43509 0.0
H229 H 0.18204 0.97887 0.40937 0.0
C230 C 0.35964 0.74145 0.46069 0.0
C231 C 0.35418 0.70743 0.49178 0.0
C232 C 0.31232 0.78891 0.45206 0.0
C233 C 0.2588 0.80457 0.47455 0.0
C234 C 0.25514 0.77257 0.50641 0.0
C235 C 0.30205 0.72417 0.51482 0.0
C236 C 0.0852 0.87708 0.45808 0.0
C237 C 0.10089 0.92656 0.43461 0.0
C238 C 0.13661 0.83903 0.47216 0.0
C239 C 0.20485 0.85051 0.46345 0.0
C240 C 0.22034 0.9031 0.44162 0.0
C241 C 0.16885 0.94016 0.42703 0.0
H242 H 0.08829 0.94525 0.14493 0.0
H243 H 0.89398 0.04163 0.14537 0.0
H244 H 0.08709 0.94336 0.20745 0.0
H245 H 0.89369 0.04122 0.20809 0.0
H246 H 0.88481 0.96886 0.31935 0.0
H247 H 0.88394 0.96913 0.25658 0.0
H248 H 0.09751 0.01569 0.25616 0.0
H249 H 0.09838 0.01462 0.31882 0.0
C250 C 0.04538 0.96634 0.15833 0.0
C251 C 0.99124 0.99367 0.14001 0.0
C252 C 0.04492 0.9656 0.19427 0.0
C253 C 0.99045 0.99238 0.2129 0.0
C254 C 0.9361 0.01944 0.1946 0.0
C255 C 0.93645 0.02 0.15859 0.0
C256 C 0.93146 0.97951 0.30581 0.0
C257 C 0.99171 0.99153 0.32407 0.0
C258 C 0.93096 0.97979 0.26983 0.0
C259 C 0.99067 0.99233 0.25123 0.0
C260 C 0.05084 0.00466 0.26957 0.0
C261 C 0.05137 0.00412 0.30552 0.0
H262 H 0.94995 0.90892 0.86615 0.0
H263 H 0.05717 0.09382 0.86896 0.0
H264 H 0.95134 0.91044 0.80358 0.0
H265 H 0.06012 0.09437 0.80633 0.0
H266 H 0.98765 0.10733 0.69466 0.0
H267 H 0.98668 0.10685 0.75741 0.0
H268 H 0.02804 0.89929 0.75581 0.0
H269 H 0.02794 0.89982 0.69308 0.0
C270 C 0.97416 0.94975 0.85345 0.0
C271 C 0.0034 0.00128 0.87262 0.0
C272 C 0.97532 0.9504 0.81753 0.0
C273 C 0.00598 0.00245 0.7999 0.0
C274 C 0.03528 0.05396 0.81908 0.0
C275 C 0.03391 0.05344 0.85502 0.0
C276 C -0.003 0.06176 0.70778 0.0
C277 C 0.00772 0.0036 0.68901 0.0
C278 C -0.00343 0.06146 0.74372 0.0
C279 C 0.00718 0.003 0.76167 0.0
C280 C 0.01849 0.94494 0.74282 0.0
C281 C 0.01858 0.94522 0.70689 0.0
H282 H 0.40803 0.55382 0.64467 0.0
H283 H 0.60092 0.45485 0.6437 0.0
H284 H 0.40831 0.55351 0.7073 0.0
H285 H 0.60027 0.45305 0.7063 0.0
H286 H 0.61047 0.52172 0.8186 0.0
H287 H 0.61107 0.52359 0.75588 0.0
H288 H 0.39677 0.48038 0.75496 0.0
H289 H 0.39618 0.47932 0.81767 0.0
C290 C 0.45039 0.53172 0.65777 0.0
C291 C 0.50447 0.5044 0.63904 0.0
C292 C 0.45034 0.53119 0.69375 0.0
C293 C 0.50425 0.50314 0.71194 0.0
C294 C 0.55836 0.47589 0.6932 0.0
C295 C 0.55853 0.4766 0.65723 0.0
C296 C 0.56361 0.51219 0.80497 0.0
C297 C 0.50327 0.50046 0.82313 0.0
C298 C 0.56393 0.51317 0.769 0.0
C299 C 0.50396 0.50217 0.75028 0.0
C300 C 0.44367 0.49019 0.7685 0.0
C301 C 0.44331 0.48947 0.80446 0.0
H302 H 0.45301 0.40748 0.36615 0.0
H303 H 0.5608 0.59214 0.36645 0.0
H304 H 0.45517 0.4056 0.30348 0.0
H305 H 0.5622 0.59036 0.30373 0.0
H306 H 0.61434 0.52604 0.19288 0.0
H307 H 0.61398 0.52739 0.25566 0.0
H308 H 0.40434 0.46665 0.25552 0.0
H309 H 0.4043 0.46607 0.19284 0.0
C310 C 0.47708 0.44773 0.3529 0.0
C311 C 0.50667 0.50001 0.37138 0.0
C312 C 0.47799 0.44677 0.31697 0.0
C313 C 0.50879 0.49786 0.29869 0.0
C314 C 0.53872 0.54994 0.31711 0.0
C315 C 0.53752 0.55111 0.35306 0.0
C316 C 0.568 0.51354 0.20623 0.0
C317 C 0.50936 0.49588 0.18781 0.0
C318 C 0.56784 0.51425 0.24219 0.0
C319 C 0.50916 0.49704 0.26051 0.0
C320 C 0.45063 0.47921 0.24212 0.0
C321 C 0.45067 0.47878 0.2062 0.0
loop_
_geom_bond_atom_site_label_1
_geom_bond_atom_site_label_2
_geom_bond_distance
_geom_bond_site_symmetry_2
_ccdc_geom_bond_type
O0 Zn1 1.953 . S
O0 C16 1.225 1_565 S
Zn1 O0 1.953 . S
Zn1 O2 1.949 1_565 S
Zn1 O8 1.919 . S
Zn1 O13 1.924 1_565 S
O2 Zn1 1.949 1_545 S
O2 Zn3 1.923 1_444 S
O2 Zn4 1.950 1_455 S
O2 Zn5 1.945 1_554 S
Zn3 O2 1.923 1_666 S
Zn3 O6 1.933 . S
Zn3 O9 1.941 1_655 S
Zn3 O10 1.965 . S
Zn4 O2 1.950 1_655 S
Zn4 O11 1.938 1_545 S
Zn4 O12 1.906 . S
Zn4 O22 1.953 . S
Zn5 O2 1.945 1_556 S
Zn5 O7 1.932 . S
Zn5 O14 1.977 1_455 S
Zn5 O15 1.910 . S
O6 Zn3 1.933 . S
O6 C17 1.226 1_665 S
O7 Zn5 1.932 . S
O7 C17 1.307 . S
O8 Zn1 1.919 . S
O8 C19 1.253 1_554 S
O9 Zn3 1.941 1_455 S
O9 C19 1.283 . S
O10 Zn3 1.965 . S
O10 C18 1.303 1_556 S
O11 Zn4 1.938 1_565 S
O11 C18 1.247 . S
O12 Zn4 1.906 . S
O12 C20 1.304 1_554 S
O13 Zn1 1.924 1_545 S
O13 C21 1.311 . S
O14 Zn5 1.977 1_655 S
O14 C20 1.272 . S
O15 Zn5 1.910 . S
O15 C21 1.231 1_556 S
C16 O0 1.225 1_545 S
C16 O22 1.298 1_455 S
C17 O6 1.226 1_445 S
C17 O7 1.307 . S
C18 O10 1.303 1_554 S
C18 O11 1.247 . S
C19 O8 1.253 1_556 S
C19 O9 1.283 . S
C20 O12 1.304 1_556 S
C20 O14 1.272 . S
C21 O13 1.311 . S
C21 O15 1.231 1_554 S
O22 Zn4 1.953 . S
O22 C16 1.298 1_655 S
O23 Zn24 1.953 . S
O23 C39 1.225 . S
Zn24 O23 1.953 . S
Zn24 O25 1.949 . S
Zn24 O31 1.919 . S
Zn24 O36 1.924 . S
O25 Zn24 1.949 . S
O25 Zn26 1.923 . S
O25 Zn27 1.950 . S
O25 Zn28 1.945 . S
Zn26 O25 1.923 . S
Zn26 O29 1.933 . S
Zn26 O32 1.941 . S
Zn26 O33 1.965 . S
Zn27 O25 1.950 . S
Zn27 O34 1.938 . S
Zn27 O35 1.906 . S
Zn27 O45 1.953 . S
Zn28 O25 1.945 . S
Zn28 O30 1.932 . S
Zn28 O37 1.977 . S
Zn28 O38 1.910 . S
O29 Zn26 1.933 . S
O29 C40 1.226 . S
O30 Zn28 1.932 . S
O30 C40 1.307 . S
O31 Zn24 1.919 . S
O31 C42 1.253 . S
O32 Zn26 1.941 . S
O32 C42 1.283 . S
O33 Zn26 1.965 . S
O33 C41 1.303 . S
O34 Zn27 1.938 . S
O34 C41 1.247 . S
O35 Zn27 1.906 . S
O35 C43 1.304 . S
O36 Zn24 1.924 . S
O36 C44 1.311 . S
O37 Zn28 1.977 . S
O37 C43 1.272 . S
O38 Zn28 1.910 . S
O38 C44 1.231 . S
C39 O23 1.225 . S
C39 O45 1.298 . S
C40 O29 1.226 . S
C40 O30 1.307 . S
C41 O33 1.303 . S
C41 O34 1.247 . S
C42 O31 1.253 . S
C42 O32 1.283 . S
C43 O35 1.304 . S
C43 O37 1.272 . S
C44 O36 1.311 . S
C44 O38 1.231 . S
O45 Zn27 1.953 . S
O45 C39 1.298 . S
H46 C49 0.931 . S
H47 C52 0.928 . S
H48 C54 0.930 1_545 S
C49 H46 0.931 . S
C49 C50 1.413 . S
C49 C51 1.357 1_545 S
C50 C49 1.413 . S
C50 C54 1.422 1_645 S
C51 C49 1.357 1_565 S
C51 C52 1.376 1_655 S
C52 H47 0.928 . S
C52 C51 1.376 1_455 S
C52 C53 1.404 . S
C53 C52 1.404 . S
C53 C54 1.398 . S
C54 H48 0.930 1_565 S
C54 C50 1.422 1_465 S
C54 C53 1.398 . S
H55 C58 0.931 . S
H56 C61 0.928 . S
H57 C63 0.930 . S
C58 H55 0.931 . S
C58 C59 1.413 . S
C58 C60 1.360 1_665 S
C59 C58 1.413 . S
C59 C63 1.429 1_665 S
C60 C58 1.360 1_445 S
C60 C61 1.372 . S
C61 H56 0.928 . S
C61 C60 1.372 . S
C61 C62 1.404 . S
C62 C61 1.404 . S
C62 C63 1.391 . S
C63 H57 0.930 . S
C63 C59 1.429 1_445 S
C63 C62 1.391 . S
H64 C67 0.931 . S
H65 C70 0.928 . S
H66 C72 0.930 . S
C67 H64 0.931 . S
C67 C68 1.413 . S
C67 C69 1.360 . S
C68 C67 1.413 . S
C68 C72 1.429 . S
C69 C67 1.360 . S
C69 C70 1.372 . S
C70 H65 0.928 . S
C70 C69 1.372 . S
C70 C71 1.404 . S
C71 C70 1.404 . S
C71 C72 1.391 . S
C72 H66 0.930 . S
C72 C68 1.429 . S
C72 C71 1.391 . S
H73 C76 0.931 . S
H74 C79 0.928 . S
H75 C81 0.930 . S
C76 H73 0.931 . S
C76 C77 1.413 . S
C76 C78 1.360 . S
C77 C76 1.413 . S
C77 C81 1.429 . S
C78 C76 1.360 . S
C78 C79 1.372 . S
C79 H74 0.928 . S
C79 C78 1.372 . S
C79 C80 1.404 . S
C80 C79 1.404 . S
C80 C81 1.391 . S
C81 H75 0.930 . S
C81 C77 1.429 . S
C81 C80 1.391 . S
H82 C90 0.950 1_556 S
H83 C95 0.950 . S
H84 C92 0.950 . S
H85 C94 0.950 . S
H86 C96 0.950 . S
H87 C98 0.950 . S
H88 C100 0.950 . S
H89 C101 0.950 . S
C90 H82 0.950 1_554 S
C90 C91 1.386 . S
C90 C92 1.391 . S
C91 C90 1.386 . S
C91 C95 1.393 . S
C92 H84 0.950 . S
C92 C90 1.391 . S
C92 C93 1.400 . S
C93 C92 1.400 . S
C93 C94 1.398 . S
C93 C99 1.491 . S
C94 H85 0.950 . S
C94 C93 1.398 . S
C94 C95 1.391 . S
C95 H83 0.950 . S
C95 C91 1.393 . S
C95 C94 1.391 . S
C96 H86 0.950 . S
C96 C97 1.386 . S
C96 C98 1.391 . S
C97 C96 1.386 . S
C97 C101 1.393 . S
C98 H87 0.950 . S
C98 C96 1.391 . S
C98 C99 1.400 . S
C99 C93 1.491 . S
C99 C98 1.400 . S
C99 C100 1.398 . S
C100 H88 0.950 . S
C100 C99 1.398 . S
C100 C101 1.391 . S
C101 H89 0.950 . S
C101 C97 1.393 . S
C101 C100 1.391 . S
H102 C110 0.950 . S
H103 C115 0.950 . S
H104 C112 0.950 . S
H105 C114 0.950 1_554 S
H106 C116 0.950 . S
H107 C118 0.950 . S
H108 C120 0.950 . S
H109 C121 0.950 . S
C110 H102 0.950 . S
C110 C111 1.386 . S
C110 C112 1.391 . S
C111 C110 1.386 . S
C111 C115 1.393 1_556 S
C112 H104 0.950 . S
C112 C110 1.391 . S
C112 C113 1.400 . S
C113 C112 1.400 . S
C113 C114 1.398 . S
C113 C119 1.491 . S
C114 H105 0.950 1_556 S
C114 C113 1.398 . S
C114 C115 1.391 1_556 S
C115 H103 0.950 . S
C115 C111 1.393 1_554 S
C115 C114 1.391 1_554 S
C116 H106 0.950 . S
C116 C117 1.386 . S
C116 C118 1.391 . S
C117 C116 1.386 . S
C117 C121 1.393 . S
C118 H107 0.950 . S
C118 C116 1.391 . S
C118 C119 1.400 . S
C119 C113 1.491 . S
C119 C118 1.400 . S
C119 C120 1.398 . S
C120 H108 0.950 . S
C120 C119 1.398 . S
C120 C121 1.391 . S
C121 H109 0.950 . S
C121 C117 1.393 . S
C121 C120 1.391 . S
H122 C130 0.950 . S
H123 C135 0.950 . S
H124 C132 0.950 . S
H125 C134 0.950 . S
H126 C136 0.950 . S
H127 C138 0.950 . S
H128 C140 0.950 . S
H129 C141 0.950 . S
C130 H122 0.950 . S
C130 C131 1.386 . S
C130 C132 1.391 . S
C131 C130 1.386 . S
C131 C135 1.393 . S
C132 H124 0.950 . S
C132 C130 1.391 . S
C132 C133 1.400 . S
C133 C132 1.400 . S
C133 C134 1.398 . S
C133 C139 1.491 . S
C134 H125 0.950 . S
C134 C133 1.398 . S
C134 C135 1.391 . S
C135 H123 0.950 . S
C135 C131 1.393 . S
C135 C134 1.391 . S
C136 H126 0.950 . S
C136 C137 1.386 . S
C136 C138 1.391 . S
C137 C136 1.386 . S
C137 C141 1.393 . S
C138 H127 0.950 . S
C138 C136 1.391 . S
C138 C139 1.400 . S
C139 C133 1.491 . S
C139 C138 1.400 . S
C139 C140 1.398 . S
C140 H128 0.950 . S
C140 C139 1.398 . S
C140 C141 1.391 . S
C141 H129 0.950 . S
C141 C137 1.393 . S
C141 C140 1.391 . S
H142 C150 0.950 . S
H143 C155 0.950 1_554 S
H144 C152 0.950 . S
H145 C154 0.950 . S
H146 C156 0.950 . S
H147 C158 0.950 . S
H148 C160 0.950 . S
H149 C161 0.950 . S
C150 H142 0.950 . S
C150 C151 1.386 . S
C150 C152 1.391 . S
C151 C150 1.386 . S
C151 C155 1.393 . S
C152 H144 0.950 . S
C152 C150 1.391 . S
C152 C153 1.400 . S
C153 C152 1.400 . S
C153 C154 1.398 . S
C153 C159 1.491 . S
C154 H145 0.950 . S
C154 C153 1.398 . S
C154 C155 1.391 . S
C155 H143 0.950 1_556 S
C155 C151 1.393 . S
C155 C154 1.391 . S
C156 H146 0.950 . S
C156 C157 1.386 . S
C156 C158 1.391 . S
C157 C156 1.386 . S
C157 C161 1.393 . S
C158 H147 0.950 . S
C158 C156 1.391 . S
C158 C159 1.400 . S
C159 C153 1.491 . S
C159 C158 1.400 . S
C159 C160 1.398 . S
C160 H148 0.950 . S
C160 C159 1.398 . S
C160 C161 1.391 . S
C161 H149 0.950 . S
C161 C157 1.393 . S
C161 C160 1.391 . S
H162 C170 0.950 . S
H163 C175 0.950 . S
H164 C172 0.950 . S
H165 C174 0.950 . S
H166 C176 0.950 . S
H167 C178 0.950 . S
H168 C180 0.950 . S
H169 C181 0.950 . S
C170 H162 0.950 . S
C170 C171 1.386 . S
C170 C172 1.391 . S
C171 C170 1.386 . S
C171 C175 1.393 . S
C172 H164 0.950 . S
C172 C170 1.391 . S
C172 C173 1.400 . S
C173 C172 1.400 . S
C173 C174 1.398 . S
C173 C179 1.491 . S
C174 H165 0.950 . S
C174 C173 1.398 . S
C174 C175 1.391 . S
C175 H163 0.950 . S
C175 C171 1.393 . S
C175 C174 1.391 . S
C176 H166 0.950 . S
C176 C177 1.386 . S
C176 C178 1.391 . S
C177 C176 1.386 . S
C177 C181 1.393 . S
C178 H167 0.950 . S
C178 C176 1.391 . S
C178 C179 1.400 . S
C179 C173 1.491 . S
C179 C178 1.400 . S
C179 C180 1.398 . S
C180 H168 0.950 . S
C180 C179 1.398 . S
C180 C181 1.391 . S
C181 H169 0.950 . S
C181 C177 1.393 . S
C181 C180 1.391 . S
H182 C190 0.950 . S
H183 C195 0.950 . S
H184 C192 0.950 . S
H185 C194 0.950 . S
H186 C196 0.950 . S
H187 C198 0.950 . S
H188 C200 0.950 . S
H189 C201 0.950 . S
C190 H182 0.950 . S
C190 C191 1.386 . S
C190 C192 1.391 . S
C191 C190 1.386 . S
C191 C195 1.393 . S
C192 H184 0.950 . S
C192 C190 1.391 . S
C192 C193 1.400 . S
C193 C192 1.400 . S
C193 C194 1.398 . S
C193 C199 1.491 . S
C194 H185 0.950 . S
C194 C193 1.398 . S
C194 C195 1.391 . S
C195 H183 0.950 . S
C195 C191 1.393 . S
C195 C194 1.391 . S
C196 H186 0.950 . S
C196 C197 1.386 . S
C196 C198 1.391 . S
C197 C196 1.386 . S
C197 C201 1.393 . S
C198 H187 0.950 . S
C198 C196 1.391 . S
C198 C199 1.400 . S
C199 C193 1.491 . S
C199 C198 1.400 . S
C199 C200 1.398 . S
C200 H188 0.950 . S
C200 C199 1.398 . S
C200 C201 1.391 . S
C201 H189 0.950 . S
C201 C197 1.393 . S
C201 C200 1.391 . S
H202 C210 0.950 . S
H203 C215 0.950 . S
H204 C212 0.950 . S
H205 C214 0.950 . S
H206 C216 0.950 . S
H207 C218 0.950 . S
H208 C220 0.950 . S
H209 C221 0.950 . S
C210 H202 0.950 . S
C210 C211 1.386 . S
C210 C212 1.391 . S
C211 C210 1.386 . S
C211 C215 1.393 . S
C212 H204 0.950 . S
C212 C210 1.391 . S
C212 C213 1.400 . S
C213 C212 1.400 . S
C213 C214 1.398 . S
C213 C219 1.491 . S
C214 H205 0.950 . S
C214 C213 1.398 . S
C214 C215 1.391 . S
C215 H203 0.950 . S
C215 C211 1.393 . S
C215 C214 1.391 . S
C216 H206 0.950 . S
C216 C217 1.386 . S
C216 C218 1.391 . S
C217 C216 1.386 . S
C217 C221 1.393 . S
C218 H207 0.950 . S
C218 C216 1.391 . S
C218 C219 1.400 . S
C219 C213 1.491 . S
C219 C218 1.400 . S
C219 C220 1.398 . S
C220 H208 0.950 . S
C220 C219 1.398 . S
C220 C221 1.391 . S
C221 H209 0.950 . S
C221 C217 1.393 . S
C221 C220 1.391 . S
H222 C230 0.950 . S
H223 C235 0.950 . S
H224 C232 0.950 . S
H225 C234 0.950 . S
H226 C236 0.950 . S
H227 C238 0.950 . S
H228 C240 0.950 . S
H229 C241 0.950 . S
C230 H222 0.950 . S
C230 C231 1.386 . S
C230 C232 1.391 . S
C231 C230 1.386 . S
C231 C235 1.393 . S
C232 H224 0.950 . S
C232 C230 1.391 . S
C232 C233 1.400 . S
C233 C232 1.400 . S
C233 C234 1.398 . S
C233 C239 1.491 . S
C234 H225 0.950 . S
C234 C233 1.398 . S
C234 C235 1.391 . S
C235 H223 0.950 . S
C235 C231 1.393 . S
C235 C234 1.391 . S
C236 H226 0.950 . S
C236 C237 1.386 . S
C236 C238 1.391 . S
C237 C236 1.386 . S
C237 C241 1.393 . S
C238 H227 0.950 . S
C238 C236 1.391 . S
C238 C239 1.400 . S
C239 C233 1.491 . S
C239 C238 1.400 . S
C239 C240 1.398 . S
C240 H228 0.950 . S
C240 C239 1.398 . S
C240 C241 1.391 . S
C241 H229 0.950 . S
C241 C237 1.393 . S
C241 C240 1.391 . S
H242 C250 0.950 . S
H243 C255 0.950 . S
H244 C252 0.950 . S
H245 C254 0.950 . S
H246 C256 0.950 . S
H247 C258 0.950 . S
H248 C260 0.950 . S
H249 C261 0.950 . S
C250 H242 0.950 . S
C250 C251 1.386 1_565 S
C250 C252 1.391 . S
C251 C250 1.386 1_545 S
C251 C255 1.393 1_455 S
C252 H244 0.950 . S
C252 C250 1.391 . S
C252 C253 1.400 1_565 S
C253 C252 1.400 1_545 S
C253 C254 1.398 1_455 S
C253 C259 1.491 . S
C254 H245 0.950 . S
C254 C253 1.398 1_655 S
C254 C255 1.391 . S
C255 H243 0.950 . S
C255 C251 1.393 1_655 S
C255 C254 1.391 . S
C256 H246 0.950 . S
C256 C257 1.396 1_545 S
C256 C258 1.391 . S
C257 C256 1.396 1_565 S
C257 C261 1.383 1_655 S
C258 H247 0.950 . S
C258 C256 1.391 . S
C258 C259 1.400 1_655 S
C259 C253 1.491 . S
C259 C258 1.400 1_455 S
C259 C260 1.398 1_545 S
C260 H248 0.950 . S
C260 C259 1.398 1_565 S
C260 C261 1.391 . S
C261 H249 0.950 . S
C261 C257 1.383 1_455 S
C261 C260 1.391 . S
H262 C270 0.950 . S
H263 C275 0.950 . S
H264 C272 0.950 . S
H265 C274 0.950 . S
H266 C276 0.950 . S
H267 C278 0.950 . S
H268 C280 0.950 . S
H269 C281 0.950 . S
C270 H262 0.950 . S
C270 C271 1.386 1_565 S
C270 C272 1.391 . S
C271 C270 1.386 1_545 S
C271 C275 1.393 1_455 S
C272 H264 0.950 . S
C272 C270 1.391 . S
C272 C273 1.400 1_565 S
C273 C272 1.400 1_545 S
C273 C274 1.398 1_455 S
C273 C279 1.491 . S
C274 H265 0.950 . S
C274 C273 1.398 1_655 S
C274 C275 1.391 . S
C275 H263 0.950 . S
C275 C271 1.393 1_655 S
C275 C274 1.391 . S
C276 H266 0.950 . S
C276 C277 1.386 1_655 S
C276 C278 1.391 . S
C277 C276 1.386 1_455 S
C277 C281 1.393 1_545 S
C278 H267 0.950 . S
C278 C276 1.391 . S
C278 C279 1.400 1_655 S
C279 C273 1.491 . S
C279 C278 1.400 1_455 S
C279 C280 1.398 1_545 S
C280 H268 0.950 . S
C280 C279 1.398 1_565 S
C280 C281 1.391 . S
C281 H269 0.950 . S
C281 C277 1.393 1_565 S
C281 C280 1.391 . S
H282 C290 0.950 . S
H283 C295 0.950 . S
H284 C292 0.950 . S
H285 C294 0.950 . S
H286 C296 0.950 . S
H287 C298 0.950 . S
H288 C300 0.950 . S
H289 C301 0.950 . S
C290 H282 0.950 . S
C290 C291 1.386 . S
C290 C292 1.391 . S
C291 C290 1.386 . S
C291 C295 1.393 . S
C292 H284 0.950 . S
C292 C290 1.391 . S
C292 C293 1.400 . S
C293 C292 1.400 . S
C293 C294 1.398 . S
C293 C299 1.491 . S
C294 H285 0.950 . S
C294 C293 1.398 . S
C294 C295 1.391 . S
C295 H283 0.950 . S
C295 C291 1.393 . S
C295 C294 1.391 . S
C296 H286 0.950 . S
C296 C297 1.386 . S
C296 C298 1.391 . S
C297 C296 1.386 . S
C297 C301 1.393 . S
C298 H287 0.950 . S
C298 C296 1.391 . S
C298 C299 1.400 . S
C299 C293 1.491 . S
C299 C298 1.400 . S
C299 C300 1.398 . S
C300 H288 0.950 . S
C300 C299 1.398 . S
C300 C301 1.391 . S
C301 H289 0.950 . S
C301 C297 1.393 . S
C301 C300 1.391 . S
H302 C310 0.950 . S
H303 C315 0.950 . S
H304 C312 0.950 . S
H305 C314 0.950 . S
H306 C316 0.950 . S
H307 C318 0.950 . S
H308 C320 0.950 . S
H309 C321 0.950 . S
C310 H302 0.950 . S
C310 C311 1.386 . S
C310 C312 1.391 . S
C311 C310 1.386 . S
C311 C315 1.393 . S
C312 H304 0.950 . S
C312 C310 1.391 . S
C312 C313 1.400 . S
C313 C312 1.400 . S
C313 C314 1.398 . S
C313 C319 1.491 . S
C314 H305 0.950 . S
C314 C313 1.398 . S
C314 C315 1.391 . S
C315 H303 0.950 . S
C315 C311 1.393 . S
C315 C314 1.391 . S
C316 H306 0.950 . S
C316 C317 1.386 . S
C316 C318 1.391 . S
C317 C316 1.386 . S
C317 C321 1.393 . S
C318 H307 0.950 . S
C318 C316 1.391 . S
C318 C319 1.400 . S
C319 C313 1.491 . S
C319 C318 1.400 . S
C319 C320 1.398 . S
C320 H308 0.950 . S
C320 C319 1.398 . S
C320 C321 1.391 . S
C321 H309 0.950 . S
C321 C317 1.393 . S
C321 C320 1.391 . S
C97 C77 1.424 . S
C91 C21 1.425 . S
C111 C19 1.419 . S
C117 C68 1.417 . S
C131 C18 1.385 . S
C137 C80 1.387 . S
C151 C20 1.412 . S
C157 C71 1.409 . S
C171 C44 1.417 . S
C177 C59 1.420 . S
C191 C42 1.411 . S
C197 C50 1.417 . S
C217 C62 1.390 . S
C211 C41 1.393 . S
C237 C53 1.407 . S
C231 C43 1.412 . S
C251 C16 1.495 . S
C257 C51 1.495 . S
C271 C17 1.462 . S
C277 C60 1.464 . S
C297 C69 1.495 . S
C291 C39 1.494 . S
C311 C40 1.464 . S
C317 C78 1.466 . S
