# Generated by pormake.
# Topology ctn, (3,4)-cn, num edge types: 1
# Building blocks:
#     Node 0, Type 0, BuildingBlock: QEWDON_clean_linker_0, # of connection points: 3
#     Node 1, Type 0, BuildingBlock: QEWDON_clean_linker_0, # of connection points: 3
#     Node 2, Type 0, BuildingBlock: QEWDON_clean_linker_0, # of connection points: 3
#     Node 3, Type 0, BuildingBlock: QEWDON_clean_linker_0, # of connection points: 3
#     Node 4, Type 0, BuildingBlock: QEWDON_clean_linker_0, # of connection points: 3
#     Node 5, Type 0, BuildingBlock: QEWDON_clean_linker_0, # of connection points: 3
#     Node 6, Type 0, BuildingBlock: QEWDON_clean_linker_0, # of connection points: 3
#     Node 7, Type 0, BuildingBlock: QEWDON_clean_linker_0, # of connection points: 3
#     Node 8, Type 0, BuildingBlock: QEWDON_clean_linker_0, # of connection points: 3
#     Node 9, Type 0, BuildingBlock: QEWDON_clean_linker_0, # of connection points: 3
#     Node 10, Type 0, BuildingBlock: QEWDON_clean_linker_0, # of connection points: 3
#     Node 11, Type 0, BuildingBlock: QEWDON_clean_linker_0, # of connection points: 3
#     Node 12, Type 0, BuildingBlock: QEWDON_clean_linker_0, # of connection points: 3
#     Node 13, Type 0, BuildingBlock: QEWDON_clean_linker_0, # of connection points: 3
#     Node 14, Type 0, BuildingBlock: QEWDON_clean_linker_0, # of connection points: 3
#     Node 15, Type 0, BuildingBlock: QEWDON_clean_linker_0, # of connection points: 3
#     Node 16, Type 1, BuildingBlock: KUFVIS_clean_sbu_0, # of connection points: 4
#     Node 17, Type 1, BuildingBlock: KUFVIS_clean_sbu_0, # of connection points: 4
#     Node 18, Type 1, BuildingBlock: KUFVIS_clean_sbu_0, # of connection points: 4
#     Node 19, Type 1, BuildingBlock: KUFVIS_clean_sbu_0, # of connection points: 4
#     Node 20, Type 1, BuildingBlock: KUFVIS_clean_sbu_0, # of connection points: 4
#     Node 21, Type 1, BuildingBlock: KUFVIS_clean_sbu_0, # of connection points: 4
#     Node 22, Type 1, BuildingBlock: KUFVIS_clean_sbu_0, # of connection points: 4
#     Node 23, Type 1, BuildingBlock: KUFVIS_clean_sbu_0, # of connection points: 4
#     Node 24, Type 1, BuildingBlock: KUFVIS_clean_sbu_0, # of connection points: 4
#     Node 25, Type 1, BuildingBlock: KUFVIS_clean_sbu_0, # of connection points: 4
#     Node 26, Type 1, BuildingBlock: KUFVIS_clean_sbu_0, # of connection points: 4
#     Node 27, Type 1, BuildingBlock: KUFVIS_clean_sbu_0, # of connection points: 4
#     Edge 28, Type (0, 1), BuildingBlock: TEMPAE_clean_linker_10, # of connection points: 2
#     Edge 29, Type (0, 1), BuildingBlock: TEMPAE_clean_linker_10, # of connection points: 2
#     Edge 30, Type (0, 1), BuildingBlock: TEMPAE_clean_linker_10, # of connection points: 2
#     Edge 31, Type (0, 1), BuildingBlock: TEMPAE_clean_linker_10, # of connection points: 2
#     Edge 32, Type (0, 1), BuildingBlock: TEMPAE_clean_linker_10, # of connection points: 2
#     Edge 33, Type (0, 1), BuildingBlock: TEMPAE_clean_linker_10, # of connection points: 2
#     Edge 34, Type (0, 1), BuildingBlock: TEMPAE_clean_linker_10, # of connection points: 2
#     Edge 35, Type (0, 1), BuildingBlock: TEMPAE_clean_linker_10, # of connection points: 2
#     Edge 36, Type (0, 1), BuildingBlock: TEMPAE_clean_linker_10, # of connection points: 2
#     Edge 37, Type (0, 1), BuildingBlock: TEMPAE_clean_linker_10, # of connection points: 2
#     Edge 38, Type (0, 1), BuildingBlock: TEMPAE_clean_linker_10, # of connection points: 2
#     Edge 39, Type (0, 1), BuildingBlock: TEMPAE_clean_linker_10, # of connection points: 2
#     Edge 40, Type (0, 1), BuildingBlock: TEMPAE_clean_linker_10, # of connection points: 2
#     Edge 41, Type (0, 1), BuildingBlock: TEMPAE_clean_linker_10, # of connection points: 2
#     Edge 42, Type (0, 1), BuildingBlock: TEMPAE_clean_linker_10, # of connection points: 2
#     Edge 43, Type (0, 1), BuildingBlock: TEMPAE_clean_linker_10, # of connection points: 2
#     Edge 44, Type (0, 1), BuildingBlock: TEMPAE_clean_linker_10, # of connection points: 2
#     Edge 45, Type (0, 1), BuildingBlock: TEMPAE_clean_linker_10, # of connection points: 2
#     Edge 46, Type (0, 1), BuildingBlock: TEMPAE_clean_linker_10, # of connection points: 2
#     Edge 47, Type (0, 1), BuildingBlock: TEMPAE_clean_linker_10, # of connection points: 2
#     Edge 48, Type (0, 1), BuildingBlock: TEMPAE_clean_linker_10, # of connection points: 2
#     Edge 49, Type (0, 1), BuildingBlock: TEMPAE_clean_linker_10, # of connection points: 2
#     Edge 50, Type (0, 1), BuildingBlock: TEMPAE_clean_linker_10, # of connection points: 2
#     Edge 51, Type (0, 1), BuildingBlock: TEMPAE_clean_linker_10, # of connection points: 2
#     Edge 52, Type (0, 1), BuildingBlock: TEMPAE_clean_linker_10, # of connection points: 2
#     Edge 53, Type (0, 1), BuildingBlock: TEMPAE_clean_linker_10, # of connection points: 2
#     Edge 54, Type (0, 1), BuildingBlock: TEMPAE_clean_linker_10, # of connection points: 2
#     Edge 55, Type (0, 1), BuildingBlock: TEMPAE_clean_linker_10, # of connection points: 2
#     Edge 56, Type (0, 1), BuildingBlock: TEMPAE_clean_linker_10, # of connection points: 2
#     Edge 57, Type (0, 1), BuildingBlock: TEMPAE_clean_linker_10, # of connection points: 2
#     Edge 58, Type (0, 1), BuildingBlock: TEMPAE_clean_linker_10, # of connection points: 2
#     Edge 59, Type (0, 1), BuildingBlock: TEMPAE_clean_linker_10, # of connection points: 2
#     Edge 60, Type (0, 1), BuildingBlock: TEMPAE_clean_linker_10, # of connection points: 2
#     Edge 61, Type (0, 1), BuildingBlock: TEMPAE_clean_linker_10, # of connection points: 2
#     Edge 62, Type (0, 1), BuildingBlock: TEMPAE_clean_linker_10, # of connection points: 2
#     Edge 63, Type (0, 1), BuildingBlock: TEMPAE_clean_linker_10, # of connection points: 2
#     Edge 64, Type (0, 1), BuildingBlock: TEMPAE_clean_linker_10, # of connection points: 2
#     Edge 65, Type (0, 1), BuildingBlock: TEMPAE_clean_linker_10, # of connection points: 2
#     Edge 66, Type (0, 1), BuildingBlock: TEMPAE_clean_linker_10, # of connection points: 2
#     Edge 67, Type (0, 1), BuildingBlock: TEMPAE_clean_linker_10, # of connection points: 2
#     Edge 68, Type (0, 1), BuildingBlock: TEMPAE_clean_linker_10, # of connection points: 2
#     Edge 69, Type (0, 1), BuildingBlock: TEMPAE_clean_linker_10, # of connection points: 2
#     Edge 70, Type (0, 1), BuildingBlock: TEMPAE_clean_linker_10, # of connection points: 2
#     Edge 71, Type (0, 1), BuildingBlock: TEMPAE_clean_linker_10, # of connection points: 2
#     Edge 72, Type (0, 1), BuildingBlock: TEMPAE_clean_linker_10, # of connection points: 2
#     Edge 73, Type (0, 1), BuildingBlock: TEMPAE_clean_linker_10, # of connection points: 2
#     Edge 74, Type (0, 1), BuildingBlock: TEMPAE_clean_linker_10, # of connection points: 2
#     Edge 75, Type (0, 1), BuildingBlock: TEMPAE_clean_linker_10, # of connection points: 2
# Relax obj value: 0.125
# Max RMSD: 0.269
# Mean RMSD: 0.161
data_MOF--net-ctn--node1-KUFVIS_clean_sbu_0--node2-QEWDON_clean_linker_0--edge1-TEMPAE_clean_linker_10
_symmetry_space_group_name_H-M    P1
_symmetry_Int_Tables_number       1
_symmetry_cell_setting            triclinic
loop_
_symmetry_equiv_pos_as_xyz
'x, y, z'
_cell_length_a     52.580196
_cell_length_b     54.771737
_cell_length_c     58.629901
_cell_angle_alpha  99.102178
_cell_angle_beta   92.366524
_cell_angle_gamma 96.907246
loop_
_atom_site_label
_atom_site_type_symbol
_atom_site_fract_x
_atom_site_fract_y
_atom_site_fract_z
_atom_type_partial_charge
H0 H 0.1178 0.04064 0.0556 0.0
C1 C 0.10568 0.03506 0.06888 0.0
C2 C 0.10587 0.0112 0.07511 0.0
C3 C 0.09072 0.05218 0.08042 0.0
H4 H 0.09106 0.98674 0.09851 0.0
C5 C 0.09059 1.00468 0.09303 0.0
C6 C 0.07519 0.02153 0.10436 0.0
C7 C 0.07519 0.04502 0.09777 0.0
C8 C 0.09359 0.07863 0.07687 0.0
H9 H 0.06384 0.05825 0.10694 0.0
C10 C 0.08923 0.08555 0.05496 0.0
C11 C 0.09111 0.11107 0.05266 0.0
C12 C 0.10033 0.09731 0.09624 0.0
H13 H 0.104 0.09247 0.11318 0.0
C14 C 0.10235 0.12236 0.09405 0.0
H15 H 0.08411 0.07122 0.03996 0.0
C16 C 0.0976 0.12923 0.07257 0.0
H17 H 0.09853 0.14892 0.07172 0.0
H18 H 0.10732 0.13657 0.10916 0.0
H19 H 0.40204 0.72378 0.22522 0.0
C20 C 0.38546 0.70992 0.22009 0.0
C21 C 0.38281 0.68826 0.23021 0.0
C22 C 0.36606 0.71484 0.20479 0.0
H23 H 0.35847 0.65448 0.23245 0.0
C24 C 0.36086 0.67079 0.22406 0.0
C25 C 0.34136 0.67487 0.20842 0.0
C26 C 0.34435 0.69692 0.1986 0.0
C27 C 0.36716 0.74013 0.1981 0.0
H28 H 0.32924 0.70075 0.18706 0.0
C29 C 0.3602 0.74372 0.17541 0.0
C30 C 0.36189 0.76806 0.16985 0.0
C31 C 0.37498 0.76118 0.21513 0.0
H32 H 0.37969 0.75921 0.23285 0.0
C33 C 0.37639 0.78512 0.20974 0.0
H34 H 0.35407 0.72775 0.1621 0.0
C35 C 0.36997 0.78858 0.18734 0.0
H36 H 0.37088 0.80748 0.1838 0.0
H37 H 0.38232 0.80111 0.22306 0.0
H38 H 0.04512 0.49337 0.0492 0.0
C39 C 0.02868 0.50293 0.04627 0.0
C40 C 0.01794 0.51643 0.06514 0.0
C41 C 0.01911 0.50259 0.02357 0.0
H42 H 0.98862 0.53979 0.07537 0.0
C43 C 0.99666 0.52895 0.06098 0.0
C44 C 0.9869 0.52883 0.03815 0.0
C45 C 0.99829 0.51548 0.01966 0.0
C46 C 0.03209 0.49058 1.00366 0.0
H47 H 0.99099 0.51513 1.00202 0.0
C48 C 0.03431 0.4649 1.00041 0.0
C49 C 0.04539 0.4536 0.98057 0.0
C50 C 0.04175 0.50497 0.98739 0.0
H51 H 0.04034 0.52477 0.98966 0.0
C52 C 0.05341 0.494 0.96814 0.0
H53 H 0.02644 0.45362 0.01269 0.0
C54 C 0.05512 0.46848 0.96465 0.0
H55 H 0.06397 0.46032 0.9494 0.0
H56 H 0.0609 0.50526 0.95573 0.0
H57 H 0.75477 0.83442 0.22776 0.0
C58 C 0.7515 0.82638 0.2096 0.0
C59 C 0.76189 0.83953 0.1927 0.0
C60 C 0.73974 0.80168 0.20329 0.0
H61 H 0.76709 0.8387 0.15646 0.0
C62 C 0.759 0.82835 0.16932 0.0
C63 C 0.74784 0.80345 0.1627 0.0
C64 C 0.73799 0.79039 0.17991 0.0
C65 C 0.73421 0.78587 0.22119 0.0
H66 H 0.73053 0.77081 0.17549 0.0
C67 C 0.714 0.78915 0.23599 0.0
C68 C 0.70832 0.77252 0.25172 0.0
C69 C 0.74915 0.76654 0.22281 0.0
H70 H 0.76484 0.76383 0.21165 0.0
C71 C 0.744 0.75055 0.23877 0.0
H72 H 0.70223 0.80386 0.23465 0.0
C73 C 0.72367 0.75339 0.25304 0.0
H74 H 0.71991 0.7406 0.26519 0.0
H75 H 0.75566 0.73575 0.23993 0.0
H76 H 0.12112 0.96769 0.49484 0.0
C77 C 0.10648 0.97455 0.48492 0.0
C78 C 0.11145 0.9981 0.47801 0.0
C79 C 0.0836 0.95877 0.47697 0.0
H80 H 0.09582 0.02464 0.45974 0.0
C81 C 0.09252 1.00617 0.46433 0.0
C82 C 0.07042 0.99018 0.45498 0.0
C83 C 0.0659 0.96664 0.46184 0.0
C84 C 0.08056 0.93218 0.47998 0.0
H85 H 0.04946 0.95361 0.45423 0.0
C86 C 0.07623 0.92452 0.5016 0.0
C87 C 0.07258 0.89879 0.50325 0.0
C88 C 0.08136 0.91408 0.46028 0.0
H89 H 0.08467 0.91955 0.44357 0.0
C90 C 0.07782 0.88884 0.46184 0.0
H91 H 0.07558 0.9384 0.51686 0.0
C92 C 0.07336 0.88123 0.48303 0.0
H93 H 0.07006 0.86141 0.48348 0.0
H94 H 0.07831 0.87507 0.44648 0.0
H95 H 0.27273 0.65336 0.78692 0.0
C96 C 0.26817 0.66528 0.80239 0.0
C97 C 0.27997 0.66345 0.8239 0.0
C98 C 0.2513 0.68288 0.80024 0.0
H99 H 0.28511 0.67977 0.85996 0.0
C100 C 0.2751 0.68031 0.8436 0.0
C101 C 0.25782 0.69807 0.84203 0.0
C102 C 0.24533 0.69828 0.82023 0.0
C103 C 0.24225 0.68684 0.7768 0.0
H104 H 0.23163 0.71116 0.8184 0.0
C105 C 0.2168 0.69117 0.77176 0.0
C106 C 0.20904 0.69513 0.7494 0.0
C107 C 0.25981 0.68705 0.75932 0.0
H108 H 0.27964 0.6845 0.76272 0.0
C109 C 0.25226 0.69114 0.73735 0.0
H110 H 0.203 0.69093 0.78496 0.0
C111 C 0.22714 0.69514 0.73239 0.0
H112 H 0.22196 0.69864 0.71523 0.0
H113 H 0.26603 0.6914 0.72414 0.0
H114 H 0.986 0.58826 0.46804 0.0
C115 C 0.97696 0.57228 0.47481 0.0
C116 C 0.97122 0.57463 0.49831 0.0
C117 C 0.969 0.5499 0.45955 0.0
H118 H 0.95258 0.55592 0.52404 0.0
C119 C 0.95757 0.55406 0.50619 0.0
C120 C 0.94908 0.53169 0.49108 0.0
C121 C 0.95587 0.52963 0.46798 0.0
C122 C 0.96919 0.54878 0.43411 0.0
H123 H 0.94981 0.51255 0.45596 0.0
C124 C 0.99202 0.54944 0.42223 0.0
C125 C 0.99086 0.54649 0.39774 0.0
C126 C 0.94542 0.5456 0.42147 0.0
H127 H 0.92768 0.54505 0.43026 0.0
C128 C 0.94419 0.54274 0.39745 0.0
H129 H 0.01039 0.55196 0.43195 0.0
C130 C 0.96662 0.54295 0.38566 0.0
H131 H 0.96487 0.53993 0.36693 0.0
H132 H 0.92573 0.54002 0.3879 0.0
H133 H 0.85431 0.84241 0.80594 0.0
C134 C 0.85241 0.8281 0.81681 0.0
C135 C 0.8659 0.80727 0.81219 0.0
C136 C 0.83715 0.83101 0.83591 0.0
H137 H 0.87364 0.77293 0.82337 0.0
C138 C 0.86331 0.78896 0.82674 0.0
C139 C 0.84779 0.79141 0.84582 0.0
C140 C 0.83495 0.81261 0.85018 0.0
C141 C 0.82546 0.85431 0.8427 0.0
H142 H 0.82362 0.81524 0.8652 0.0
C143 C 0.80833 0.86308 0.82755 0.0
C144 C 0.79615 0.88424 0.83547 0.0
C145 C 0.83095 0.86748 0.86531 0.0
H146 H 0.8442 0.8613 0.87716 0.0
C147 C 0.81947 0.88867 0.8729 0.0
H148 H 0.80378 0.85299 0.81014 0.0
C149 C 0.80211 0.89692 0.8582 0.0
H150 H 0.79338 0.91341 0.8646 0.0
H151 H 0.82391 0.89865 0.89035 0.0
H152 H 0.35916 0.35277 0.30905 0.0
C153 C 0.35677 0.33827 0.31968 0.0
C154 C 0.37056 0.3176 0.31545 0.0
C155 C 0.34115 0.34115 0.33855 0.0
H156 H 0.37761 0.28306 0.32661 0.0
C157 C 0.36778 0.2994 0.33012 0.0
C158 C 0.35203 0.30186 0.34899 0.0
C159 C 0.33892 0.3229 0.353 0.0
C160 C 0.32913 0.36432 0.34496 0.0
H161 H 0.32731 0.3255 0.36784 0.0
C162 C 0.31203 0.37269 0.3295 0.0
C163 C 0.2995 0.39373 0.33704 0.0
C164 C 0.33425 0.37776 0.3675 0.0
H165 H 0.34747 0.37188 0.37959 0.0
C166 C 0.32245 0.39884 0.37472 0.0
H167 H 0.30776 0.36238 0.31214 0.0
C168 C 0.30512 0.4067 0.35972 0.0
H169 H 0.29613 0.42311 0.36583 0.0
H170 H 0.32661 0.40904 0.39212 0.0
H171 H 0.54575 0.99584 0.55172 0.0
C172 C 0.52998 1.00636 0.54907 0.0
C173 C 0.51995 0.02017 0.56818 0.0
C174 C 0.52059 1.0069 0.52647 0.0
H175 H 0.49198 0.04492 0.57896 0.0
C176 C 0.49951 0.03388 0.56439 0.0
C177 C 0.48995 0.03463 0.5417 0.0
C178 C 0.50066 0.021 0.52294 0.0
C179 C 0.53285 0.9944 0.50633 0.0
H180 H 0.49346 0.02133 0.50541 0.0
C181 C 0.53406 0.96853 0.50292 0.0
C182 C 0.54449 0.95682 0.4829 0.0
C183 C 0.54286 0.00854 0.49 0.0
H184 H 0.54224 0.02849 0.49238 0.0
C185 C 0.55388 0.99714 0.47055 0.0
H186 H 0.52592 0.95747 0.51525 0.0
C187 C 0.5546 0.97146 0.46693 0.0
H188 H 0.56302 0.96299 0.45155 0.0
H189 H 0.56166 0.00821 0.45811 0.0
H190 H 0.26048 0.33209 0.72674 0.0
C191 C 0.25665 0.32379 0.70869 0.0
C192 C 0.26879 0.33522 0.69147 0.0
C193 C 0.24194 0.30032 0.70288 0.0
H194 H 0.27624 0.33148 0.65542 0.0
C195 C 0.26565 0.32315 0.66832 0.0
C196 C 0.2507 0.29974 0.6621 0.0
C197 C 0.2384 0.28883 0.6796 0.0
C198 C 0.23577 0.28503 0.72102 0.0
H199 H 0.22715 0.27061 0.67547 0.0
C200 C 0.21491 0.28825 0.73505 0.0
C201 C 0.20893 0.27194 0.75101 0.0
C202 C 0.25093 0.26609 0.72357 0.0
H203 H 0.26708 0.26342 0.71294 0.0
C204 C 0.24539 0.25039 0.73968 0.0
H205 H 0.20298 0.30268 0.73302 0.0
C206 C 0.22448 0.25317 0.75323 0.0
H207 H 0.22041 0.24061 0.76555 0.0
H208 H 0.25721 0.23586 0.74153 0.0
H209 H 0.90237 0.21845 0.72687 0.0
C210 C 0.88592 0.20445 0.72162 0.0
C211 C 0.88348 0.18271 0.7316 0.0
C212 C 0.86645 0.20928 0.70638 0.0
H213 H 0.85943 0.14879 0.7338 0.0
C214 C 0.86168 0.16509 0.72539 0.0
C215 C 0.84217 0.169 0.70966 0.0
C216 C 0.84497 0.19113 0.69996 0.0
C217 C 0.86715 0.23467 0.70003 0.0
H218 H 0.8299 0.19487 0.68834 0.0
C219 C 0.86005 0.23846 0.67744 0.0
C220 C 0.86111 0.26289 0.67221 0.0
C221 C 0.87457 0.2556 0.71728 0.0
H222 H 0.87938 0.25345 0.73494 0.0
C223 C 0.8754 0.27963 0.71223 0.0
H224 H 0.85427 0.22257 0.66397 0.0
C225 C 0.86876 0.2833 0.68993 0.0
H226 H 0.86915 0.30226 0.68667 0.0
H227 H 0.88099 0.29553 0.72573 0.0
H228 H 0.62376 0.54081 0.55297 0.0
C229 C 0.6108 0.53679 0.5662 0.0
C230 C 0.60851 0.5132 0.57316 0.0
C231 C 0.59742 0.55567 0.57691 0.0
H232 H 0.59038 0.49065 0.59659 0.0
C233 C 0.59185 0.50852 0.59069 0.0
C234 C 0.57864 0.52751 0.60188 0.0
C235 C 0.58158 0.55102 0.59482 0.0
C236 C 0.60352 0.58139 0.57221 0.0
H237 H 0.57204 0.56595 0.60367 0.0
C238 C 0.59063 0.59008 0.55411 0.0
C239 C 0.59707 0.61485 0.55018 0.0
C240 C 0.6229 0.59736 0.58619 0.0
H241 H 0.63301 0.59092 0.60012 0.0
C242 C 0.62955 0.62164 0.58221 0.0
H243 H 0.5755 0.57778 0.54346 0.0
C244 C 0.61685 0.63033 0.56437 0.0
H245 H 0.62276 0.64919 0.56154 0.0
H246 H 0.64469 0.63378 0.59297 0.0
H247 H 0.61091 0.47021 1.00195 0.0
C248 C 0.59857 0.47602 0.98911 0.0
C249 C 0.60379 0.50007 0.9833 0.0
C250 C 0.57818 0.45899 0.97746 0.0
H251 H 0.59207 0.52532 0.96136 0.0
C252 C 0.58797 0.50697 0.96604 0.0
C253 C 0.56779 0.49019 0.95393 0.0
C254 C 0.56295 0.46629 0.96 0.0
C255 C 0.57496 0.4324 0.98069 0.0
H256 H 0.54805 0.45275 0.95036 0.0
C257 C 0.57073 0.42501 1.00244 0.0
C258 C 0.56724 0.39937 1.00441 0.0
C259 C 0.57587 0.41403 0.96119 0.0
H260 H 0.57929 0.4192 0.94438 0.0
C261 C 0.57248 0.38887 0.96307 0.0
H262 H 0.57002 0.43903 0.01759 0.0
C263 C 0.5681 0.38156 0.98439 0.0
H264 H 0.565 0.3618 0.98513 0.0
H265 H 0.5731 0.37492 0.94787 0.0
H266 H 0.77673 0.15943 0.28539 0.0
C267 C 0.77226 0.17125 0.30095 0.0
C268 C 0.78385 0.16899 0.32244 0.0
C269 C 0.75563 0.18911 0.299 0.0
H270 H 0.78874 0.18475 0.35868 0.0
C271 C 0.77901 0.18566 0.34227 0.0
C272 C 0.76214 0.20376 0.34082 0.0
C273 C 0.74989 0.20449 0.31907 0.0
C274 C 0.7464 0.19323 0.27569 0.0
H275 H 0.73655 0.21778 0.31742 0.0
C276 C 0.72089 0.19753 0.27094 0.0
C277 C 0.71284 0.20168 0.24874 0.0
C278 C 0.76375 0.1936 0.25806 0.0
H279 H 0.7836 0.191 0.26127 0.0
C280 C 0.75594 0.1979 0.23623 0.0
H281 H 0.70724 0.19709 0.28427 0.0
C282 C 0.73075 0.20192 0.23157 0.0
H283 H 0.72536 0.20557 0.21451 0.0
H284 H 0.76955 0.1983 0.2229 0.0
H285 H 0.49054 0.08637 0.97029 0.0
C286 C 0.48156 0.07078 0.97764 0.0
C287 C 0.47831 0.0734 1.00163 0.0
C288 C 0.47099 0.04881 0.96283 0.0
H289 H 0.46357 0.0548 0.02911 0.0
C290 C 0.46555 0.05318 0.01063 0.0
C291 C 0.45416 0.03145 0.99603 0.0
C292 C 0.45736 0.02941 0.97216 0.0
C293 C 0.47 0.04729 0.93732 0.0
H294 H 0.44791 0.01328 0.96043 0.0
C295 C 0.49232 0.04741 0.92474 0.0
C296 C 0.49032 0.04386 0.90024 0.0
C297 C 0.44584 0.04418 0.92534 0.0
H298 H 0.42847 0.04409 0.93467 0.0
C299 C 0.44377 0.0408 0.90129 0.0
H300 H 0.51097 0.04992 0.93396 0.0
C301 C 0.46572 0.0404 0.88882 0.0
H302 H 0.4633 0.03694 0.87011 0.0
H303 H 0.42502 0.03813 0.89225 0.0
Mn304 Mn 0.2699 0.86182 0.01268 0.0
Mn305 Mn 0.26386 0.8865 0.96386 0.0
C306 C 0.25229 0.83692 0.97816 0.0
C307 C 0.29141 0.84211 0.03896 0.0
C308 C 0.22989 0.8965 1.00391 0.0
O309 O 0.29616 0.89345 0.01939 0.0
O310 O 0.29074 0.90729 0.98549 0.0
C311 C 0.31469 0.88001 0.9455 0.0
N312 N 0.28859 0.87603 0.94272 0.0
C313 C 0.29002 0.85792 0.90275 0.0
C314 C 0.31692 0.86177 0.90515 0.0
C315 C 0.3293 0.87267 0.92669 0.0
C316 C 0.27651 0.86502 0.92225 0.0
H317 H 0.32426 0.88884 0.96191 0.0
C318 C 0.30189 0.909 1.00563 0.0
O319 O 0.27364 0.85582 0.04507 0.0
O320 O 0.29728 0.84018 0.01747 0.0
N321 N 0.23874 0.8678 0.94127 0.0
C322 C 0.21279 0.86372 0.94237 0.0
C323 C 0.19753 0.85208 0.9225 0.0
C324 C 0.20909 0.84535 0.90163 0.0
C325 C 0.23585 0.84982 0.90096 0.0
C326 C 0.25009 0.8608 0.92145 0.0
H327 H 0.20382 0.86947 0.95824 0.0
O328 O 0.24628 0.83101 0.99805 0.0
O329 O 0.2674 0.85764 0.97919 0.0
O330 O 0.24013 0.88288 0.0164 0.0
O331 O 0.23711 0.89891 0.98381 0.0
C332 C 0.24898 0.84394 0.88076 0.0
C333 C 0.27606 0.84755 0.88173 0.0
H334 H 0.32824 0.85644 0.89059 0.0
H335 H 0.35005 0.87572 0.92869 0.0
H336 H 0.17689 0.84867 0.92316 0.0
H337 H 0.19724 0.83669 0.88625 0.0
H338 H 0.23844 0.83609 0.86447 0.0
H339 H 0.28594 0.84227 0.86621 0.0
Mn340 Mn 0.16323 0.52666 0.24761 0.0
Mn341 Mn 0.14583 0.58456 0.2545 0.0
C342 C 0.18729 0.55815 0.2323 0.0
C343 C 0.18599 0.49736 0.2621 0.0
C344 C 0.11904 0.54132 0.21914 0.0
O345 O 0.13765 0.52609 0.27311 0.0
O346 O 0.13138 0.56655 0.27885 0.0
C347 C 0.17505 0.60516 0.29905 0.0
N348 N 0.1689 0.60677 0.2766 0.0
C349 C 0.19496 0.64651 0.27986 0.0
C350 C 0.20124 0.64551 0.30314 0.0
C351 C 0.19144 0.62462 0.31271 0.0
C352 C 0.17886 0.62639 0.26703 0.0
H353 H 0.16759 0.5891 0.3064 0.0
C354 C 0.1283 0.54466 0.2842 0.0
O355 O 0.16678 0.4904 0.24685 0.0
O356 O 0.19145 0.52113 0.26919 0.0
N357 N 0.15854 0.6046 0.2325 0.0
C358 C 0.15222 0.60176 0.20937 0.0
C359 C 0.16106 0.62068 0.19697 0.0
C360 C 0.17592 0.64249 0.20853 0.0
C361 C 0.18235 0.6449 0.23231 0.0
C362 C 0.17314 0.62536 0.24372 0.0
H363 H 0.14038 0.58527 0.20047 0.0
O364 O 0.18901 0.53487 0.22472 0.0
O365 O 0.17208 0.56228 0.24898 0.0
O366 O 0.13366 0.52517 0.22301 0.0
O367 O 0.12133 0.56336 0.23081 0.0
C368 C 0.19743 0.66598 0.24517 0.0
C369 C 0.2041 0.66661 0.26884 0.0
H370 H 0.21376 0.66056 0.31377 0.0
H371 H 0.19642 0.62358 0.3306 0.0
H372 H 0.15616 0.61861 0.1786 0.0
H373 H 0.18242 0.65718 0.19895 0.0
H374 H 0.20415 0.68174 0.237 0.0
H375 H 0.21625 0.68265 0.27839 0.0
Mn376 Mn 0.80447 0.64519 0.99824 0.0
Mn377 Mn 0.75254 0.66066 0.97029 0.0
C378 C 0.76416 0.62258 0.99996 0.0
C379 C 0.84098 0.62465 1.00084 0.0
C380 C 0.77631 0.68945 0.01612 0.0
O381 O 0.82046 0.66745 0.97595 0.0
O382 O 0.78435 0.67305 0.95639 0.0
C383 C 0.75528 0.6296 0.92447 0.0
N384 N 0.74177 0.63695 0.94309 0.0
C385 C 0.70269 0.61356 0.92456 0.0
C386 C 0.71614 0.60579 0.90511 0.0
C387 C 0.7426 0.61368 0.90515 0.0
C388 C 0.71649 0.62896 0.94347 0.0
H389 H 0.77551 0.63594 0.92438 0.0
C390 C 0.80876 0.67574 0.95978 0.0
O391 O 0.83842 0.64517 0.01438 0.0
O392 O 0.82267 0.61637 0.98488 0.0
N393 N 0.71998 0.65026 0.98131 0.0
C394 C 0.71012 0.65877 1.00176 0.0
C395 C 0.68378 0.65315 1.00443 0.0
C396 C 0.66785 0.63909 0.98599 0.0
C397 C 0.67854 0.62989 0.96535 0.0
C398 C 0.70485 0.63634 0.96361 0.0
H399 H 0.7221 0.6703 0.01573 0.0
O400 O 0.78268 0.62256 0.01528 0.0
O401 O 0.76983 0.63535 0.98344 0.0
O402 O 0.7933 0.67525 0.01856 0.0
O403 O 0.76102 0.68648 0.99816 0.0
C404 C 0.66406 0.61497 0.9463 0.0
C405 C 0.67618 0.6066 0.92599 0.0
H406 H 0.70637 0.59373 0.89008 0.0
H407 H 0.75313 0.60772 0.89023 0.0
H408 H 0.67568 0.6601 0.02049 0.0
H409 H 0.64742 0.63552 0.9879 0.0
H410 H 0.64365 0.60964 0.94714 0.0
H411 H 0.66494 0.59483 0.91159 0.0
Mn412 Mn 0.93021 0.01168 0.27482 0.0
Mn413 Mn 0.94763 0.9536 0.26784 0.0
C414 C 0.90363 0.97842 0.25265 0.0
C415 C 0.90929 0.04392 0.29393 0.0
C416 C 0.97042 0.9936 0.24153 0.0
O417 O 0.95732 0.01445 0.30167 0.0
O418 O 0.96626 0.97489 0.29532 0.0
C419 C 0.92737 0.93725 0.31015 0.0
N420 N 0.92884 0.93339 0.28675 0.0
C421 C 0.90576 0.89217 0.28316 0.0
C422 C 0.90396 0.89567 0.30724 0.0
C423 C 0.91464 0.9184 0.32076 0.0
C424 C 0.91817 0.91182 0.27354 0.0
H425 H 0.93601 0.9545 0.32063 0.0
C426 C 0.9691 0.99688 0.30715 0.0
O427 O 0.9279 0.04823 0.28069 0.0
O428 O 0.90358 0.02099 0.29701 0.0
N429 N 0.93112 0.93045 0.24219 0.0
C430 C 0.93334 0.93064 0.21916 0.0
C431 C 0.92405 0.9092 0.20321 0.0
C432 C 0.91276 0.88779 0.21113 0.0
C433 C 0.90985 0.88833 0.23487 0.0
C434 C 0.91966 0.91015 0.24994 0.0
H435 H 0.94253 0.94686 0.21303 0.0
O436 O 0.90252 1.0012 0.24952 0.0
O437 O 0.92049 0.97553 0.26857 0.0
O438 O 0.95788 0.01077 0.25076 0.0
O439 O 0.96812 0.97191 0.24707 0.0
C440 C 0.89791 0.868 0.24421 0.0
C441 C 0.89566 0.86999 0.26832 0.0
H442 H 0.89438 0.88108 0.31551 0.0
H443 H 0.91335 0.92124 0.33935 0.0
H444 H 0.926 0.90903 0.18488 0.0
H445 H 0.90619 0.87111 0.19879 0.0
H446 H 0.89018 0.85082 0.23299 0.0
H447 H 0.88608 0.85439 0.27526 0.0
Mn448 Mn 0.30872 0.14993 0.49641 0.0
Mn449 Mn 0.25655 0.16063 0.46547 0.0
C450 C 0.26929 0.12536 0.4972 0.0
C451 C 0.34596 0.13106 0.50123 0.0
C452 C 0.27626 0.19207 0.51148 0.0
O453 O 0.32483 0.17186 0.47402 0.0
O454 O 0.28858 0.17647 0.45419 0.0
C455 C 0.26708 0.13061 0.42109 0.0
N456 N 0.25081 0.13621 0.43806 0.0
C457 C 0.21577 0.10904 0.41634 0.0
C458 C 0.23205 0.10318 0.39847 0.0
C459 C 0.25792 0.11376 0.401 0.0
C460 C 0.22629 0.12515 0.43633 0.0
H461 H 0.28683 0.139 0.42288 0.0
C462 C 0.31295 0.18026 0.45806 0.0
O463 O 0.34232 0.15176 0.51402 0.0
O464 O 0.32846 0.12181 0.48481 0.0
N465 N 0.22354 0.14685 0.47344 0.0
C466 C 0.21006 0.15522 0.4918 0.0
C467 C 0.18388 0.14646 0.49204 0.0
C468 C 0.17153 0.12987 0.47302 0.0
C469 C 0.18549 0.12226 0.4539 0.0
C470 C 0.21172 0.13106 0.45493 0.0
H471 H 0.21925 0.16835 0.50627 0.0
O472 O 0.28712 0.12707 0.51352 0.0
O473 O 0.27512 0.13762 0.48042 0.0
O474 O 0.2952 0.18021 0.51452 0.0
O475 O 0.26042 0.18641 0.49375 0.0
C476 C 0.17419 0.10701 0.43352 0.0
C477 C 0.18941 0.10003 0.4149 0.0
H478 H 0.22488 0.09065 0.38273 0.0
H479 H 0.27066 0.10926 0.38735 0.0
H480 H 0.17316 0.15276 0.50673 0.0
H481 H 0.15123 0.12345 0.47311 0.0
H482 H 0.15387 0.10023 0.43211 0.0
H483 H 0.18061 0.08788 0.39951 0.0
Mn484 Mn 0.43202 0.51263 0.77202 0.0
Mn485 Mn 0.45402 0.45648 0.7641 0.0
C486 C 0.40732 0.47813 0.74981 0.0
C487 C 0.40942 0.54313 0.79187 0.0
C488 C 0.47322 0.49827 0.73838 0.0
O489 O 0.46006 0.51683 0.79844 0.0
O490 O 0.47146 0.47815 0.79183 0.0
C491 C 0.43548 0.4377 0.80592 0.0
N492 N 0.43681 0.43464 0.78251 0.0
C493 C 0.41604 0.39243 0.77807 0.0
C494 C 0.41443 0.3951 0.80213 0.0
C495 C 0.42402 0.4179 0.8161 0.0
C496 C 0.4272 0.41297 0.76889 0.0
H497 H 0.44327 0.45504 0.81673 0.0
C498 C 0.47313 0.50003 0.80374 0.0
O499 O 0.42734 0.54862 0.7783 0.0
O500 O 0.40534 0.52 0.79483 0.0
N501 N 0.43874 0.43312 0.73806 0.0
C502 C 0.44066 0.4341 0.71511 0.0
C503 C 0.43184 0.41286 0.69874 0.0
C504 C 0.42154 0.39078 0.70615 0.0
C505 C 0.41936 0.39035 0.72984 0.0
C506 C 0.42842 0.41209 0.74534 0.0
H507 H 0.44926 0.45081 0.70938 0.0
O508 O 0.40411 0.50066 0.74714 0.0
O509 O 0.42501 0.47628 0.76542 0.0
O510 O 0.45879 0.51384 0.74737 0.0
O511 O 0.47328 0.4767 0.74393 0.0
C512 C 0.40882 0.36915 0.73873 0.0
C513 C 0.40694 0.37026 0.76281 0.0
H514 H 0.40582 0.37979 0.81006 0.0
H515 H 0.42286 0.42011 0.83468 0.0
H516 H 0.4334 0.41337 0.68047 0.0
H517 H 0.41527 0.3743 0.69346 0.0
H518 H 0.4019 0.35194 0.72721 0.0
H519 H 0.39841 0.35398 0.7694 0.0
Mn520 Mn 0.77086 0.35977 0.5166 0.0
Mn521 Mn 0.77 0.38883 0.46999 0.0
C522 C 0.75512 0.33782 0.4804 0.0
C523 C 0.78982 0.33759 0.54226 0.0
C524 C 0.73282 0.39635 0.50782 0.0
O525 O 0.79768 0.39039 0.52647 0.0
O526 O 0.7956 0.40786 0.4941 0.0
C527 C 0.82219 0.38272 0.45471 0.0
N528 N 0.79628 0.37932 0.45016 0.0
C529 C 0.80077 0.3631 0.41016 0.0
C530 C 0.8275 0.36641 0.41439 0.0
C531 C 0.83825 0.3761 0.43681 0.0
C532 C 0.78573 0.36957 0.42877 0.0
H533 H 0.83055 0.39054 0.47181 0.0
C534 C 0.80489 0.40729 0.51451 0.0
O535 O 0.77189 0.35118 0.54821 0.0
O536 O 0.79709 0.33698 0.52127 0.0
N537 N 0.7464 0.37208 0.44519 0.0
C538 C 0.72027 0.3684 0.44443 0.0
C539 C 0.7065 0.35801 0.42341 0.0
C540 C 0.71972 0.35202 0.40335 0.0
C541 C 0.74663 0.35602 0.40461 0.0
C542 C 0.75931 0.36586 0.42612 0.0
H543 H 0.71005 0.37349 0.45971 0.0
O544 O 0.74733 0.33043 0.49923 0.0
O545 O 0.77102 0.35826 0.4834 0.0
O546 O 0.74162 0.38155 0.51994 0.0
O547 O 0.74187 0.40022 0.48868 0.0
C548 C 0.76139 0.35072 0.38535 0.0
C549 C 0.78842 0.35384 0.38818 0.0
H550 H 0.83995 0.36156 0.40056 0.0
H551 H 0.85886 0.37873 0.44022 0.0
H552 H 0.68574 0.35492 0.4226 0.0
H553 H 0.70904 0.34427 0.38711 0.0
H554 H 0.7521 0.34381 0.36833 0.0
H555 H 0.79953 0.34905 0.37334 0.0
Mn556 Mn 0.66313 0.02259 0.75039 0.0
Mn557 Mn 0.64805 0.08144 0.75835 0.0
C558 C 0.68815 0.05359 0.7353 0.0
C559 C 0.68479 0.99211 0.76408 0.0
C560 C 0.62024 0.03973 0.72206 0.0
O561 O 0.6377 0.02231 0.77598 0.0
O562 O 0.63203 0.06286 0.78162 0.0
C563 C 0.67664 0.0991 0.8037 0.0
N564 N 0.67123 0.10205 0.78146 0.0
C565 C 0.69851 0.14127 0.78677 0.0
C566 C 0.70403 0.13891 0.80987 0.0
C567 C 0.69324 0.1176 0.8183 0.0
C568 C 0.68215 0.12204 0.77297 0.0
H569 H 0.66843 0.08272 0.81018 0.0
C570 C 0.62839 0.04097 0.78688 0.0
O571 O 0.66539 0.98599 0.74895 0.0
O572 O 0.69105 0.01572 0.77153 0.0
N573 N 0.6622 0.1023 0.73756 0.0
C574 C 0.65636 0.10085 0.71448 0.0
C575 C 0.66612 0.1204 0.70317 0.0
C576 C 0.68136 0.14142 0.71577 0.0
C577 C 0.68727 0.14242 0.73946 0.0
C578 C 0.67711 0.12233 0.74976 0.0
H579 H 0.64419 0.085 0.70482 0.0
O580 O 0.68892 0.03021 0.72743 0.0
O581 O 0.67337 0.05818 0.75228 0.0
O582 O 0.6336 0.02265 0.7261 0.0
O583 O 0.62362 0.06181 0.73372 0.0
C584 C 0.70271 0.16261 0.75332 0.0
C585 C 0.70866 0.16186 0.77686 0.0
H586 H 0.7167 0.15322 0.82121 0.0
H587 H 0.69762 0.1155 0.83603 0.0
H588 H 0.6616 0.11945 0.68485 0.0
H589 H 0.68847 0.15665 0.70705 0.0
H590 H 0.71032 0.17874 0.74601 0.0
H591 H 0.72107 0.17722 0.78717 0.0
Mn592 Mn 0.04673 0.23074 0.88794 0.0
Mn593 Mn 0.98959 0.2272 0.91201 0.0
C594 C 0.01087 0.20726 0.86744 0.0
C595 C 0.07712 0.2497 0.86604 0.0
C596 C 0.03346 0.20032 0.92627 0.0
O597 O 0.05125 0.26088 0.91398 0.0
O598 O 0.0112 0.25846 0.9266 0.0
C599 C 0.96825 0.27011 0.89697 0.0
N600 N 0.96635 0.2452 0.89757 0.0
C601 C 0.92449 0.2381 0.87775 0.0
C602 C 0.92594 0.26369 0.87697 0.0
C603 C 0.94798 0.27974 0.88652 0.0
C604 C 0.94533 0.22958 0.88829 0.0
H605 H 0.98506 0.28255 0.90444 0.0
C606 C 0.03413 0.26959 0.9267 0.0
O607 O 0.08353 0.23607 0.88101 0.0
O608 O 0.05311 0.25297 0.8643 0.0
N609 N 0.96695 0.19796 0.89872 0.0
C610 C 0.9695 0.17359 0.89921 0.0
C611 C 0.94966 0.15497 0.8893 0.0
C612 C 0.92731 0.16164 0.87926 0.0
C613 C 0.92516 0.18685 0.87897 0.0
C614 C 0.94568 0.20455 0.88884 0.0
H615 H 0.98655 0.1684 0.90707 0.0
O616 O 0.03378 0.20244 0.8625 0.0
O617 O 0.00978 0.22523 0.88457 0.0
O618 O 0.04864 0.20663 0.91123 0.0
O619 O 0.01142 0.20766 0.92841 0.0
C620 C 0.90354 0.19512 0.86913 0.0
C621 C 0.90328 0.2207 0.86832 0.0
H622 H 0.91034 0.27118 0.86894 0.0
H623 H 0.94928 0.29949 0.88591 0.0
H624 H 0.95152 0.13555 0.88951 0.0
H625 H 0.91201 0.14724 0.8717 0.0
H626 H 0.8871 0.18191 0.86192 0.0
H627 H 0.88676 0.22675 0.86025 0.0
Mn628 Mn 0.54432 0.73469 0.38831 0.0
Mn629 Mn 0.48663 0.73066 0.41145 0.0
C630 C 0.50875 0.71113 0.36731 0.0
C631 C 0.57524 0.75329 0.36665 0.0
C632 C 0.53008 0.70363 0.42618 0.0
O633 O 0.54837 0.76494 0.41406 0.0
O634 O 0.50852 0.76143 0.42708 0.0
C635 C 0.46665 0.77466 0.39724 0.0
N636 N 0.46416 0.74962 0.39727 0.0
C637 C 0.42263 0.74379 0.37695 0.0
C638 C 0.42469 0.76952 0.37677 0.0
C639 C 0.44686 0.78499 0.38685 0.0
C640 C 0.44302 0.73453 0.38744 0.0
H641 H 0.48356 0.78666 0.40511 0.0
C642 C 0.53127 0.77299 0.42717 0.0
O643 O 0.58129 0.73993 0.38197 0.0
O644 O 0.55127 0.75655 0.36442 0.0
N645 N 0.46366 0.70203 0.39725 0.0
C646 C 0.46562 0.67745 0.39722 0.0
C647 C 0.44556 0.65937 0.38678 0.0
C648 C 0.4236 0.66676 0.37676 0.0
C649 C 0.42206 0.69218 0.37701 0.0
C650 C 0.44277 0.70933 0.3874 0.0
H651 H 0.48237 0.67169 0.40506 0.0
O652 O 0.53176 0.70616 0.36293 0.0
O653 O 0.50735 0.72912 0.38435 0.0
O654 O 0.5459 0.71114 0.41211 0.0
O655 O 0.50757 0.71001 0.42742 0.0
C656 C 0.40086 0.70118 0.36723 0.0
C657 C 0.40123 0.72693 0.36699 0.0
H658 H 0.40946 0.77757 0.3688 0.0
H659 H 0.44864 0.80486 0.38671 0.0
H660 H 0.44694 0.63978 0.38657 0.0
H661 H 0.40812 0.65277 0.36879 0.0
H662 H 0.38425 0.6884 0.35967 0.0
H663 H 0.38503 0.73355 0.35896 0.0
Mn664 Mn 0.02037 0.76425 0.64731 0.0
Mn665 Mn 0.98803 0.71453 0.66579 0.0
C666 C 0.0159 0.7249 0.62427 0.0
C667 C 0.02328 0.79874 0.62774 0.0
C668 C 0.04257 0.73541 0.68293 0.0
O669 O 1.00001 0.78087 0.67333 0.0
O670 O 0.97979 0.74603 0.6838 0.0
C671 C 0.93573 0.7225 0.65052 0.0
N672 N 0.95466 0.70754 0.65031 0.0
C673 C 0.9268 0.67261 0.62907 0.0
C674 C 0.90699 0.68761 0.62902 0.0
C675 C 0.91156 0.71274 0.6396 0.0
C676 C 0.95077 0.68364 0.63943 0.0
H677 H 0.93901 0.74165 0.65911 0.0
C678 C 0.98472 0.76972 0.68591 0.0
O679 O 0.04015 0.79687 0.64393 0.0
O680 O 1.00393 0.78119 0.62371 0.0
N681 N 0.99356 0.6823 0.65042 0.0
C682 C 0.01415 0.66992 0.65332 0.0
C683 C 0.01268 0.64452 0.64397 0.0
C684 C 0.98974 0.63185 0.63253 0.0
C685 C 0.96845 0.64469 0.63066 0.0
C686 C 0.97127 0.67017 0.63974 0.0
H687 H 0.03159 0.67932 0.66276 0.0
O688 O 0.03425 0.74205 0.62155 0.0
O689 O 1.0004 0.73127 0.64026 0.0
O690 O 0.04444 0.75314 0.6711 0.0
O691 O 0.02228 0.71991 0.68227 0.0
C692 C 0.94424 0.63298 0.62096 0.0
C693 C 0.92353 0.647 0.61982 0.0
H694 H 0.88815 0.67999 0.62108 0.0
H695 H 0.89636 0.72443 0.63969 0.0
H696 H 0.02907 0.63464 0.64589 0.0
H697 H 0.98855 0.61216 0.62566 0.0
H698 H 0.94139 0.61322 0.61412 0.0
H699 H 0.90511 0.63785 0.612 0.0
Mn700 Mn 0.52003 0.26482 0.14843 0.0
Mn701 Mn 0.4912 0.21242 0.16508 0.0
C702 C 0.51957 0.22598 0.12482 0.0
C703 C 0.52047 0.2995 0.12929 0.0
C704 C 0.54378 0.23781 0.18452 0.0
O705 O 0.4974 0.27891 0.17405 0.0
O706 O 0.47859 0.24233 0.18187 0.0
C707 C 0.43827 0.21452 0.14694 0.0
N708 N 0.45897 0.20192 0.14805 0.0
C709 C 0.43501 0.16408 0.12766 0.0
C710 C 0.41338 0.1766 0.12632 0.0
C711 C 0.41512 0.20202 0.13574 0.0
C712 C 0.45785 0.1778 0.1381 0.0
H713 H 0.43935 0.23387 0.15474 0.0
C714 C 0.48141 0.26614 0.18488 0.0
O715 O 0.53721 0.29879 0.14597 0.0
O716 O 0.50249 0.28066 0.12462 0.0
N717 N 0.50097 0.18144 0.15056 0.0
C718 C 0.5231 0.1717 0.15451 0.0
C719 C 0.52464 0.14652 0.146 0.0
C720 C 0.50309 0.13131 0.1344 0.0
C721 C 0.48018 0.14145 0.13144 0.0
C722 C 0.48003 0.16688 0.13959 0.0
H723 H 0.53947 0.18302 0.16414 0.0
O724 O 0.53653 0.24464 0.12287 0.0
O725 O 0.50303 0.23056 0.14031 0.0
O726 O 0.54482 0.2554 0.17257 0.0
O727 O 0.52438 0.22116 0.18337 0.0
C728 C 0.45718 0.12706 0.12162 0.0
C729 C 0.43463 0.1384 0.11963 0.0
H730 H 0.39532 0.16684 0.11822 0.0
H731 H 0.39851 0.21182 0.13481 0.0
H732 H 0.54227 0.13873 0.14876 0.0
H733 H 0.5042 0.11177 0.12826 0.0
H734 H 0.45664 0.10729 0.11542 0.0
H735 H 0.41713 0.12719 0.11182 0.0
C736 C 0.2476 0.74093 0.85894 0.0
C737 C 0.25398 0.71753 0.86247 0.0
C738 C 0.24402 0.75954 0.87743 0.0
C739 C 0.24869 0.75581 0.90046 0.0
C740 C 0.25523 0.73238 0.90441 0.0
C741 C 0.25727 0.71341 0.88546 0.0
C742 C 0.23652 0.78362 0.87174 0.0
C743 C 0.26085 0.72762 0.92865 0.0
C744 C 0.27189 0.81388 0.94472 0.0
C745 C 0.25013 0.81735 0.95729 0.0
C746 C 0.27158 0.7941 0.92623 0.0
C747 C 0.24897 0.77704 0.92014 0.0
C748 C 0.22672 0.78072 0.93251 0.0
C749 C 0.22767 0.80063 0.95118 0.0
C750 C 0.29557 0.79142 0.91328 0.0
C751 C 0.20183 0.76385 0.92576 0.0
H752 H 0.24596 0.74536 0.84165 0.0
H753 H 0.26171 0.69547 0.88882 0.0
H754 H 0.25403 0.79485 0.86731 0.0
H755 H 0.22282 0.78009 0.85628 0.0
H756 H 0.22763 0.79439 0.88621 0.0
H757 H 0.2649 0.70822 0.92896 0.0
H758 H 0.27773 0.74068 0.93681 0.0
H759 H 0.24438 0.73119 0.93937 0.0
H760 H 0.28953 0.82633 0.94979 0.0
H761 H 0.21087 0.80318 0.96095 0.0
H762 H 0.2918 0.79375 0.89504 0.0
H763 H 0.30113 0.77248 0.91311 0.0
H764 H 0.31198 0.80542 0.92097 0.0
H765 H 0.19578 0.76452 0.90752 0.0
H766 H 0.1862 0.76922 0.93695 0.0
H767 H 0.20455 0.74428 0.9268 0.0
C768 C 0.01534 0.5576 0.36423 0.0
C769 C 0.01436 0.54645 0.38422 0.0
C770 C 0.03553 0.55533 0.34949 0.0
C771 C 0.05588 0.54217 0.35508 0.0
C772 C 0.05571 0.53176 0.37574 0.0
C773 C 0.03485 0.53387 0.39001 0.0
C774 C 0.03485 0.56677 0.32767 0.0
C775 C 0.07736 0.51813 0.3826 0.0
C776 C 0.09381 0.52076 0.30325 0.0
C777 C 0.11265 0.54135 0.3042 0.0
C778 C 0.07592 0.52001 0.32047 0.0
C779 C 0.0774 0.54002 0.3393 0.0
C780 C 0.0977 0.55982 0.34119 0.0
C781 C 0.11477 0.56043 0.32346 0.0
C782 C 0.05435 0.49874 0.31758 0.0
C783 C 0.1005 0.5812 0.36121 0.0
H784 H 0.99999 0.56792 0.35987 0.0
H785 H 0.03427 0.52506 0.40531 0.0
H786 H 0.05168 0.58116 0.32807 0.0
H787 H 0.03597 0.55228 0.31234 0.0
H788 H 0.01715 0.57557 0.32539 0.0
H789 H 0.07513 0.51238 0.39982 0.0
H790 H 0.07818 0.50126 0.36955 0.0
H791 H 0.09599 0.53014 0.383 0.0
H792 H 0.09202 0.50605 0.28833 0.0
H793 H 0.12942 0.57631 0.32439 0.0
H794 H 0.03607 0.50566 0.3132 0.0
H795 H 0.05209 0.49125 0.33398 0.0
H796 H 0.05752 0.48333 0.30365 0.0
H797 H 0.08521 0.59317 0.35932 0.0
H798 H 0.11939 0.59293 0.36207 0.0
H799 H 0.09825 0.57417 0.37784 0.0
C800 C 0.86668 0.76161 0.86874 0.0
C801 C 0.84534 0.77246 0.86177 0.0
C802 C 0.86463 0.74485 0.88475 0.0
C803 C 0.84074 0.73886 0.8942 0.0
C804 C 0.8191 0.74949 0.887 0.0
C805 C 0.82163 0.76593 0.87085 0.0
C806 C 0.8881 0.73376 0.89174 0.0
C807 C 0.7932 0.74364 0.8965 0.0
C808 C 0.82185 0.68042 0.92029 0.0
C809 C 0.8233 0.68994 0.94401 0.0
C810 C 0.82933 0.69572 0.90396 0.0
C811 C 0.83793 0.72138 0.91148 0.0
C812 C 0.84083 0.73073 0.93558 0.0
C813 C 0.83353 0.71486 0.95157 0.0
C814 C 0.82627 0.68476 0.87856 0.0
C815 C 0.84971 0.75794 0.94442 0.0
H816 H 0.88517 0.76665 0.86209 0.0
H817 H 0.80488 0.77373 0.86532 0.0
H818 H 0.89291 0.73958 0.91057 0.0
H819 H 0.88414 0.7131 0.88846 0.0
H820 H 0.90505 0.73955 0.88224 0.0
H821 H 0.77837 0.75373 0.88944 0.0
H822 H 0.78666 0.72333 0.89231 0.0
H823 H 0.79469 0.74875 0.91564 0.0
H824 H 0.81367 0.66121 0.9144 0.0
H825 H 0.83412 0.72237 0.96987 0.0
H826 H 0.84355 0.69078 0.86962 0.0
H827 H 0.80968 0.69161 0.8704 0.0
H828 H 0.82293 0.66406 0.8757 0.0
H829 H 0.86717 0.76436 0.93592 0.0
H830 H 0.85391 0.76168 0.96347 0.0
H831 H 0.83453 0.7692 0.94011 0.0
C832 C 0.06607 0.0093 0.4189 0.0
C833 C 0.05434 0.99671 0.43565 0.0
C834 C 0.05204 0.01333 0.39925 0.0
C835 C 0.02563 1.00411 0.39579 0.0
C836 C 0.01336 0.99235 0.41302 0.0
C837 C 0.02781 0.98889 0.43276 0.0
C838 C 0.06594 0.02608 0.38145 0.0
C839 C 0.98525 0.98213 0.40997 0.0
C840 C 0.98488 0.02139 0.34655 0.0
C841 C 0.98541 1.00066 0.32915 0.0
C842 C 0.99807 0.02304 0.36832 0.0
C843 C 0.01196 1.00347 0.3728 0.0
C844 C 0.01306 0.9829 0.35511 0.0
C845 C 0.99998 0.98183 0.33361 0.0
C846 C 0.99676 0.04544 0.38665 0.0
C847 C 0.02768 0.96162 0.35901 0.0
H848 H 0.0866 0.01502 0.42047 0.0
H849 H 0.0184 0.97949 0.44566 0.0
H850 H 0.06822 0.01207 0.36604 0.0
H851 H 0.05469 0.0401 0.37563 0.0
H852 H 0.08529 0.03548 0.38823 0.0
H853 H 0.9779 0.97603 0.42593 0.0
H854 H 0.9737 0.99635 0.40501 0.0
H855 H 0.98229 0.96589 0.39574 0.0
H856 H 0.97363 0.03598 0.34339 0.0
H857 H 1.00078 0.96576 0.32037 0.0
H858 H 0.0164 0.05417 0.39313 0.0
H859 H 0.98689 0.0395 0.40161 0.0
H860 H 0.98633 0.05966 0.38011 0.0
H861 H 0.04818 0.96868 0.36379 0.0
H862 H 0.02658 0.94692 0.34346 0.0
H863 H 0.01992 0.95298 0.37359 0.0
C864 C 0.25076 0.25949 0.63452 0.0
C865 C 0.25073 0.28548 0.63808 0.0
C866 C 0.25302 0.24601 0.61243 0.0
C867 C 0.25627 0.25881 0.59339 0.0
C868 C 0.25582 0.28491 0.59662 0.0
C869 C 0.25264 0.29785 0.61882 0.0
C870 C 0.25282 0.21808 0.60966 0.0
C871 C 0.25977 0.29931 0.57686 0.0
C872 C 0.29175 0.22371 0.5464 0.0
C873 C 0.2716 0.21218 0.53041 0.0
C874 C 0.2872 0.24026 0.56621 0.0
C875 C 0.26177 0.24487 0.57053 0.0
C876 C 0.24151 0.23423 0.55395 0.0
C877 C 0.24676 0.21839 0.53386 0.0
C878 C 0.3095 0.25189 0.58304 0.0
C879 C 0.21406 0.23824 0.55811 0.0
H880 H 0.24997 0.24957 0.6491 0.0
H881 H 0.25218 0.31781 0.62113 0.0
H882 H 0.23919 0.20861 0.59511 0.0
H883 H 0.27217 0.21322 0.6055 0.0
H884 H 0.24737 0.21064 0.62559 0.0
H885 H 0.25737 0.31929 0.58187 0.0
H886 H 0.27941 0.29813 0.57087 0.0
H887 H 0.2461 0.29107 0.56196 0.0
H888 H 0.31109 0.21938 0.54368 0.0
H889 H 0.23112 0.20993 0.52149 0.0
H890 H 0.30823 0.24357 0.59908 0.0
H891 H 0.30886 0.27221 0.58796 0.0
H892 H 0.3283 0.24899 0.57577 0.0
H893 H 0.20754 0.22884 0.57267 0.0
H894 H 0.2009 0.2307 0.54263 0.0
H895 H 0.21251 0.25837 0.56315 0.0
C896 C 0.5439 0.50338 0.6206 0.0
C897 C 0.56334 0.52357 0.62212 0.0
C898 C 0.52904 0.49993 0.63957 0.0
C899 C 0.53416 0.51673 0.66077 0.0
C900 C 0.55404 0.53695 0.66243 0.0
C901 C 0.56818 0.54025 0.64305 0.0
C902 C 0.50775 0.47841 0.63689 0.0
C903 C 0.56061 0.55494 0.68478 0.0
C904 C 0.48261 0.52076 0.70483 0.0
C905 C 0.48976 0.50459 0.7196 0.0
C906 C 0.4968 0.52483 0.68561 0.0
C907 C 0.51903 0.51292 0.6813 0.0
C908 C 0.52676 0.4972 0.69658 0.0
C909 C 0.51189 0.493 0.71532 0.0
C910 C 0.48761 0.54137 0.66954 0.0
C911 C 0.55065 0.48462 0.69304 0.0
H912 H 0.54003 0.49054 0.60441 0.0
H913 H 0.58339 0.55573 0.64437 0.0
H914 H 0.51155 0.46569 0.64924 0.0
H915 H 0.48927 0.48543 0.64109 0.0
H916 H 0.50562 0.46754 0.61909 0.0
H917 H 0.57681 0.56951 0.68333 0.0
H918 H 0.54366 0.56421 0.69007 0.0
H919 H 0.56581 0.54465 0.69879 0.0
H920 H 0.46537 0.52955 0.70783 0.0
H921 H 0.51762 0.48055 0.72667 0.0
H922 H 0.48349 0.53054 0.65184 0.0
H923 H 0.50283 0.55694 0.66843 0.0
H924 H 0.47 0.54929 0.67528 0.0
H925 H 0.5485 0.47166 0.67631 0.0
H926 H 0.55473 0.47395 0.70708 0.0
H927 H 0.56745 0.49874 0.69221 0.0
C928 C 0.8307 0.25589 0.6368 0.0
C929 C 0.8536 0.26787 0.64876 0.0
C930 C 0.82113 0.26403 0.6169 0.0
C931 C 0.8347 0.28472 0.60894 0.0
C932 C 0.85875 0.29561 0.61996 0.0
C933 C 0.86797 0.28692 0.63958 0.0
C934 C 0.79565 0.25159 0.60537 0.0
C935 C 0.87388 0.31772 0.61217 0.0
C936 C 0.81647 0.30482 0.55161 0.0
C937 C 0.8012 0.32355 0.55891 0.0
C938 C 0.82694 0.2914 0.56753 0.0
C939 C 0.82236 0.2972 0.59132 0.0
C940 C 0.8069 0.31606 0.59869 0.0
C941 C 0.79639 0.32884 0.58241 0.0
C942 C 0.843 0.27117 0.55897 0.0
C943 C 0.80181 0.32314 0.6239 0.0
H944 H 0.81948 0.24115 0.64376 0.0
H945 H 0.88599 0.2959 0.64844 0.0
H946 H 0.78069 0.26394 0.60972 0.0
H947 H 0.79652 0.24841 0.58627 0.0
H948 H 0.78966 0.23347 0.61107 0.0
H949 H 0.89341 0.32228 0.62092 0.0
H950 H 0.87571 0.31416 0.5932 0.0
H951 H 0.86356 0.33427 0.6161 0.0
H952 H 0.82009 0.3005 0.53344 0.0
H953 H 0.78465 0.34331 0.58821 0.0
H954 H 0.8353 0.25346 0.5646 0.0
H955 H 0.86294 0.27627 0.56663 0.0
H956 H 0.84352 0.26793 0.53981 0.0
H957 H 0.7927 0.30661 0.63064 0.0
H958 H 0.78912 0.33803 0.62675 0.0
H959 H 0.82021 0.32979 0.63422 0.0
C960 C 0.55923 0.02687 0.59511 0.0
C961 C 0.53243 0.02172 0.59175 0.0
C962 C 0.57168 0.02852 0.61705 0.0
C963 C 0.55705 0.02465 0.63621 0.0
C964 C 0.52995 0.01921 0.63292 0.0
C965 C 0.51793 0.01804 0.61076 0.0
C966 C 0.60053 0.03482 0.61977 0.0
C967 C 0.5137 0.01467 0.65282 0.0
C968 C 0.59625 0.01104 0.68791 0.0
C969 C 0.60134 0.03476 0.70163 0.0
C970 C 0.58071 1.00714 0.66716 0.0
C971 C 0.57027 0.02746 0.65974 0.0
C972 C 0.57449 0.05117 0.67395 0.0
C973 C 0.58974 0.05447 0.69471 0.0
C974 C 0.57633 0.98147 0.6527 0.0
C975 C 0.56402 0.07345 0.66665 0.0
H976 H 0.57052 0.03008 0.58055 0.0
H977 H 0.49723 0.01391 0.60821 0.0
H978 H 0.60578 0.05241 0.63219 0.0
H979 H 0.60919 0.01995 0.62696 0.0
H980 H 0.60912 0.03706 0.60311 0.0
H981 H 0.49303 0.00962 0.64725 0.0
H982 H 0.52029 0.99944 0.66104 0.0
H983 H 0.51588 0.03163 0.66624 0.0
H984 H 0.60491 0.99562 0.69306 0.0
H985 H 0.59336 0.0729 0.70506 0.0
H986 H 0.58667 0.98156 0.63659 0.0
H987 H 0.55563 0.97607 0.64755 0.0
H988 H 0.58317 0.96711 0.66204 0.0
H989 H 0.5733 0.07804 0.65093 0.0
H990 H 0.56743 0.09017 0.68037 0.0
H991 H 0.5431 0.06912 0.66214 0.0
C992 C 0.89307 0.17296 0.77117 0.0
C993 C 0.90205 0.18009 0.75069 0.0
C994 C 0.90984 0.17351 0.79053 0.0
C995 C 0.93631 0.18164 0.78957 0.0
C996 C 0.94573 0.18742 0.76849 0.0
C997 C 0.92849 0.18666 0.74934 0.0
C998 C 0.89844 0.16707 0.81231 0.0
C999 C 0.97389 0.19563 0.7665 0.0
C1000 C 0.97535 0.2174 0.84286 0.0
C1001 C 0.9895 0.19939 0.84963 0.0
C1002 C 0.95713 0.21148 0.82406 0.0
C1003 C 0.95363 0.18711 0.81106 0.0
C1004 C 0.96763 0.16868 0.81798 0.0
C1005 C 0.98555 0.17509 0.83717 0.0
C1006 C 0.94208 0.23151 0.81773 0.0
C1007 C 0.96405 0.14242 0.8048 0.0
H1008 H 0.87264 0.16815 0.77258 0.0
H1009 H 0.93564 0.19183 0.73345 0.0
H1010 H 0.91283 0.16245 0.82478 0.0
H1011 H 0.88949 0.18326 0.82066 0.0
H1012 H 0.883 0.15104 0.80812 0.0
H1013 H 0.97855 0.19671 0.74834 0.0
H1014 H 0.97945 0.21431 0.77712 0.0
H1015 H 0.9857 0.18256 0.77327 0.0
H1016 H 0.97916 0.23647 0.85182 0.0
H1017 H 0.99683 0.16126 0.84217 0.0
H1018 H 0.92121 0.22521 0.81774 0.0
H1019 H 0.94615 0.23495 0.80002 0.0
H1020 H 0.94673 0.24938 0.82989 0.0
H1021 H 0.94354 0.13448 0.80409 0.0
H1022 H 0.97581 0.13007 0.81276 0.0
H1023 H 0.96941 0.14257 0.7867 0.0
C1024 C 0.55224 0.91588 0.49453 0.0
C1025 C 0.54379 0.92929 0.47781 0.0
C1026 C 0.55231 0.8899 0.48929 0.0
C1027 C 0.54338 0.87708 0.46695 0.0
C1028 C 0.53452 0.89056 0.45016 0.0
C1029 C 0.53493 0.91645 0.45577 0.0
C1030 C 0.56207 0.87618 0.50756 0.0
C1031 C 0.52444 0.87762 0.42624 0.0
C1032 C 0.55975 0.81368 0.43977 0.0
C1033 C 0.53664 0.79838 0.44123 0.0
C1034 C 0.56296 0.8391 0.44955 0.0
C1035 C 0.54255 0.8495 0.46093 0.0
C1036 C 0.51993 0.83381 0.46388 0.0
C1037 C 0.5173 0.80848 0.45411 0.0
C1038 C 0.58754 0.85514 0.44633 0.0
C1039 C 0.49766 0.8441 0.47583 0.0
H1040 H 0.55923 0.9258 0.51154 0.0
H1041 H 0.52804 0.9267 0.44291 0.0
H1042 H 0.54677 0.86174 0.51114 0.0
H1043 H 0.57835 0.86643 0.5012 0.0
H1044 H 0.56854 0.88888 0.52402 0.0
H1045 H 0.5182 0.89082 0.41523 0.0
H1046 H 0.53951 0.86778 0.41749 0.0
H1047 H 0.5079 0.86339 0.42751 0.0
H1048 H 0.57492 0.80613 0.43004 0.0
H1049 H 0.49942 0.7969 0.4556 0.0
H1050 H 0.59464 0.86752 0.46277 0.0
H1051 H 0.58385 0.86725 0.43338 0.0
H1052 H 0.60283 0.8438 0.44021 0.0
H1053 H 0.50437 0.85627 0.49247 0.0
H1054 H 0.48285 0.82909 0.47927 0.0
H1055 H 0.48855 0.85569 0.46477 0.0
C1056 C 0.18379 0.29522 0.78074 0.0
C1057 C 0.18635 0.27352 0.76524 0.0
C1058 C 0.16493 0.29518 0.79713 0.0
C1059 C 0.14828 0.27296 0.79783 0.0
C1060 C 0.14984 0.25152 0.78118 0.0
C1061 C 0.16889 0.25206 0.76518 0.0
C1062 C 0.16384 0.31842 0.81452 0.0
C1063 C 0.13232 0.22752 0.78106 0.0
C1064 C 0.12191 0.25623 0.85339 0.0
C1065 C 0.09594 0.25921 0.85034 0.0
C1066 C 0.13946 0.2621 0.83706 0.0
C1067 C 0.13085 0.27105 0.81709 0.0
C1068 C 0.10494 0.27538 0.81454 0.0
C1069 C 0.08779 0.26944 0.83123 0.0
C1070 C 0.16696 0.2574 0.84058 0.0
C1071 C 0.095 0.28492 0.79355 0.0
H1072 H 0.19738 0.31179 0.78086 0.0
H1073 H 0.17077 0.23533 0.75306 0.0
H1074 H 0.14374 0.32243 0.81611 0.0
H1075 H 0.17115 0.31552 0.83178 0.0
H1076 H 0.17556 0.33494 0.80979 0.0
H1077 H 0.13454 0.21327 0.76578 0.0
H1078 H 0.13663 0.21975 0.79694 0.0
H1079 H 0.11199 0.23106 0.78111 0.0
H1080 H 0.12842 0.24853 0.86819 0.0
H1081 H 0.06776 0.27186 0.82876 0.0
H1082 H 0.18031 0.27401 0.8383 0.0
H1083 H 0.17092 0.24165 0.82738 0.0
H1084 H 0.17119 0.25278 0.85801 0.0
H1085 H 0.10812 0.30116 0.79005 0.0
H1086 H 0.07547 0.29047 0.79561 0.0
H1087 H 0.09419 0.27012 0.77815 0.0
C1088 C 0.57814 0.61089 0.50923 0.0
C1089 C 0.58367 0.62497 0.53144 0.0
C1090 C 0.56789 0.62142 0.491 0.0
C1091 C 0.56321 0.64666 0.49502 0.0
C1092 C 0.5679 0.66064 0.51758 0.0
C1093 C 0.57785 0.6496 0.53547 0.0
C1094 C 0.56281 0.60578 0.46728 0.0
C1095 C 0.56317 0.68757 0.52273 0.0
C1096 C 0.56451 0.68533 0.4464 0.0
C1097 C 0.53838 0.6873 0.44238 0.0
C1098 C 0.57276 0.6715 0.46294 0.0
C1099 C 0.55447 0.65901 0.47563 0.0
C1100 C 0.52801 0.66006 0.47098 0.0
C1101 C 0.5203 0.6743 0.45457 0.0
C1102 C 0.60117 0.67109 0.46748 0.0
C1103 C 0.50785 0.64674 0.48384 0.0
H1104 H 0.58265 0.59191 0.50589 0.0
H1105 H 0.58147 0.66049 0.55266 0.0
H1106 H 0.54302 0.60669 0.46043 0.0
H1107 H 0.57617 0.61326 0.45515 0.0
H1108 H 0.56531 0.58595 0.46741 0.0
H1109 H 0.56718 0.69567 0.54131 0.0
H1110 H 0.57555 0.69883 0.51232 0.0
H1111 H 0.54296 0.68925 0.51774 0.0
H1112 H 0.57867 0.69527 0.43714 0.0
H1113 H 0.50005 0.67544 0.45145 0.0
H1114 H 0.60547 0.65159 0.46608 0.0
H1115 H 0.60719 0.68056 0.48538 0.0
H1116 H 0.61285 0.68051 0.45526 0.0
H1117 H 0.51096 0.62696 0.48317 0.0
H1118 H 0.48809 0.64735 0.47666 0.0
H1119 H 0.50939 0.65549 0.50233 0.0
C1120 C 0.90019 0.82586 0.78884 0.0
C1121 C 0.8835 0.80509 0.79276 0.0
C1122 C 0.91761 0.82383 0.77123 0.0
C1123 C 0.91841 0.80047 0.75708 0.0
C1124 C 0.90128 0.77956 0.76067 0.0
C1125 C 0.88413 0.7821 0.77843 0.0
C1126 C 0.93558 0.84654 0.76811 0.0
C1127 C 0.90133 0.75432 0.74592 0.0
C1128 C 0.94866 0.79313 0.69871 0.0
C1129 C 0.97149 0.78398 0.70423 0.0
C1130 C 0.93174 0.79993 0.71596 0.0
C1131 C 0.93785 0.79742 0.73921 0.0
C1132 C 0.96172 0.78965 0.74497 0.0
C1133 C 0.9781 0.7828 0.72737 0.0
C1134 C 0.90653 0.80805 0.709 0.0
C1135 C 0.96919 0.78688 0.76948 0.0
H1136 H 0.90011 0.84364 0.79997 0.0
H1137 H 0.87111 0.76603 0.78109 0.0
H1138 H 0.95571 0.84348 0.77184 0.0
H1139 H 0.93394 0.8497 0.74991 0.0
H1140 H 0.93165 0.86363 0.77966 0.0
H1141 H 0.88615 0.74016 0.75029 0.0
H1142 H 0.8984 0.75574 0.72735 0.0
H1143 H 0.92023 0.74768 0.74828 0.0
H1144 H 0.94321 0.79335 0.68071 0.0
H1145 H 0.99549 0.77515 0.73153 0.0
H1146 H 0.90283 0.82494 0.7209 0.0
H1147 H 0.89069 0.79307 0.71024 0.0
H1148 H 0.90603 0.81205 0.69101 0.0
H1149 H 0.96642 0.80388 0.78169 0.0
H1150 H 0.98948 0.78341 0.77154 0.0
H1151 H 0.95666 0.77103 0.77444 0.0
C1152 C 0.07851 0.8689 0.53074 0.0
C1153 C 0.06722 0.88947 0.52545 0.0
C1154 C 0.07073 0.85686 0.5492 0.0
C1155 C 0.05142 0.86579 0.5632 0.0
C1156 C 0.04107 0.88752 0.55893 0.0
C1157 C 0.049 0.89905 0.54005 0.0
C1158 C 0.08241 0.83383 0.55301 0.0
C1159 C 0.02085 0.89798 0.57372 0.0
C1160 C 0.01411 0.81556 0.59126 0.0
C1161 C 0.02762 0.81832 0.61285 0.0
C1162 C 0.02082 0.83167 0.57538 0.0
C1163 C 0.04131 0.85133 0.58131 0.0
C1164 C 0.05389 0.85518 0.60367 0.0
C1165 C 0.04708 0.83851 0.61906 0.0
C1166 C 0.00701 0.82668 0.5517 0.0
C1167 C 0.07544 0.87616 0.61094 0.0
H1168 H 0.09301 0.86166 0.5199 0.0
H1169 H 0.04009 0.91486 0.53611 0.0
H1170 H 0.09061 0.83606 0.57106 0.0
H1171 H 0.06729 0.81749 0.55038 0.0
H1172 H 0.09778 0.82975 0.54107 0.0
H1173 H 0.01712 0.91658 0.5701 0.0
H1174 H 1.00265 0.8851 0.57039 0.0
H1175 H 0.02676 0.89963 0.59235 0.0
H1176 H 0.9991 0.8 0.58626 0.0
H1177 H 0.05753 0.84091 0.63575 0.0
H1178 H 0.02044 0.82053 0.53849 0.0
H1179 H 1.00036 0.84397 0.54743 0.0
H1180 H 0.9902 0.81204 0.55041 0.0
H1181 H 0.09266 0.872 0.60148 0.0
H1182 H 0.08068 0.87888 0.62981 0.0
H1183 H 0.07002 0.89387 0.60648 0.0
C1184 C 0.17012 0.68804 0.72198 0.0
C1185 C 0.18235 0.69955 0.74337 0.0
C1186 C 0.14642 0.6942 0.71442 0.0
C1187 C 0.13439 0.71221 0.72866 0.0
C1188 C 0.14599 0.72305 0.75078 0.0
C1189 C 0.16987 0.7166 0.75789 0.0
C1190 C 0.13473 0.68205 0.69077 0.0
C1191 C 0.13364 0.74213 0.76657 0.0
C1192 C 0.08952 0.74538 0.69535 0.0
C1193 C 0.06558 0.73152 0.69696 0.0
C1194 C 0.1119 0.74001 0.70646 0.0
C1195 C 0.11038 0.7204 0.71967 0.0
C1196 C 0.08615 0.70716 0.72233 0.0
C1197 C 0.06409 0.7128 0.7109 0.0
C1198 C 0.13736 0.75456 0.70312 0.0
C1199 C 0.08364 0.68629 0.73643 0.0
H1200 H 0.17943 0.67449 0.71085 0.0
H1201 H 0.17925 0.72565 0.77439 0.0
H1202 H 0.11487 0.67318 0.69213 0.0
H1203 H 0.1336 0.69642 0.6795 0.0
H1204 H 0.146 0.66767 0.68222 0.0
H1205 H 0.14377 0.74701 0.784 0.0
H1206 H 0.13377 0.75937 0.75884 0.0
H1207 H 0.1133 0.73509 0.7685 0.0
H1208 H 0.091 0.75991 0.68471 0.0
H1209 H 0.04573 0.70205 0.71246 0.0
H1210 H 0.14939 0.74206 0.69292 0.0
H1211 H 0.1479 0.76179 0.72008 0.0
H1212 H 0.1351 0.77049 0.69393 0.0
H1213 H 0.09247 0.67028 0.7275 0.0
H1214 H 0.06329 0.67977 0.739 0.0
H1215 H 0.09406 0.69239 0.75361 0.0
C1216 C 1.00038 0.61468 0.51379 0.0
C1217 C 0.97738 0.59894 0.51444 0.0
C1218 C 1.00655 0.63686 0.5299 0.0
C1219 C 0.98982 0.64302 0.5478 0.0
C1220 C 0.96598 0.62776 0.54766 0.0
C1221 C 0.95999 0.60636 0.53087 0.0
C1222 C 0.03096 0.65341 0.52716 0.0
C1223 C 0.94614 0.63342 0.56489 0.0
C1224 C 0.02289 0.68321 0.60277 0.0
C1225 C 0.00889 0.70351 0.60545 0.0
C1226 C 0.01646 0.66312 0.58448 0.0
C1227 C 0.9974 0.66462 0.56701 0.0
C1228 C 0.98482 0.68633 0.56873 0.0
C1229 C 0.99001 0.70498 0.58836 0.0
C1230 C 0.02993 0.64025 0.58415 0.0
C1231 C 0.96562 0.69011 0.55016 0.0
H1232 H 0.01383 0.60959 0.50089 0.0
H1233 H 0.94145 0.59529 0.53082 0.0
H1234 H 0.03284 0.67187 0.53846 0.0
H1235 H 0.04773 0.64384 0.53089 0.0
H1236 H 0.03178 0.65644 0.5089 0.0
H1237 H 0.9383 0.61613 0.5712 0.0
H1238 H 0.95358 0.64771 0.57989 0.0
H1239 H 0.92983 0.64006 0.55609 0.0
H1240 H 0.03847 0.68276 0.61532 0.0
H1241 H 0.97991 0.72126 0.58993 0.0
H1242 H 0.04438 0.63995 0.57093 0.0
H1243 H 0.01605 0.62301 0.57968 0.0
H1244 H 0.04011 0.64 0.60107 0.0
H1245 H 0.96833 0.67908 0.53306 0.0
H1246 H 0.96703 0.71011 0.54836 0.0
H1247 H 0.94594 0.68458 0.55526 0.0
C1248 C 0.80583 0.86148 0.19269 0.0
C1249 C 0.78075 0.86214 0.1996 0.0
C1250 C 0.82505 0.88147 0.20001 0.0
C1251 C 0.81915 0.90291 0.21468 0.0
C1252 C 0.79343 0.90424 0.22078 0.0
C1253 C 0.77457 0.88356 0.21356 0.0
C1254 C 0.85178 0.87838 0.19284 0.0
C1255 C 0.78586 0.92744 0.23494 0.0
C1256 C 0.87237 0.94115 0.25583 0.0
C1257 C 0.88268 0.95863 0.24258 0.0
C1258 C 0.8518 0.92286 0.24693 0.0
C1259 C 0.84015 0.92303 0.22474 0.0
C1260 C 0.84957 0.94158 0.21179 0.0
C1261 C 0.87092 0.95899 0.22076 0.0
C1262 C 0.84287 0.90309 0.2611 0.0
C1263 C 0.83735 0.94278 0.18833 0.0
H1264 H 0.81074 0.84479 0.18211 0.0
H1265 H 0.75506 0.88412 0.21872 0.0
H1266 H 0.8513 0.86831 0.17479 0.0
H1267 H 0.86439 0.89629 0.19406 0.0
H1268 H 0.86023 0.86672 0.20421 0.0
H1269 H 0.7647 0.92679 0.23548 0.0
H1270 H 0.79422 0.9297 0.25293 0.0
H1271 H 0.79355 0.94417 0.22768 0.0
H1272 H 0.88024 0.94192 0.27331 0.0
H1273 H 0.87833 0.973 0.21075 0.0
H1274 H 0.84488 0.8844 0.25133 0.0
H1275 H 0.82228 0.9033 0.26433 0.0
H1276 H 0.85388 0.90564 0.27807 0.0
H1277 H 0.8411 0.9264 0.17578 0.0
H1278 H 0.8449 0.95998 0.1817 0.0
H1279 H 0.81622 0.94205 0.18916 0.0
C1280 C 0.79681 0.12657 0.30896 0.0
C1281 C 0.80194 0.14992 0.32335 0.0
C1282 C 0.81496 0.10965 0.30683 0.0
C1283 C 0.83873 0.11571 0.31997 0.0
C1284 C 0.84342 0.13848 0.33571 0.0
C1285 C 0.82512 0.15541 0.33705 0.0
C1286 C 0.80913 0.08575 0.28965 0.0
C1287 C 0.86818 0.14538 0.35052 0.0
C1288 C 0.87657 0.06049 0.32039 0.0
C1289 C 0.89354 0.06373 0.30293 0.0
C1290 C 0.85966 0.07804 0.32716 0.0
C1291 C 0.85917 0.09897 0.31575 0.0
C1292 C 0.87684 0.10269 0.29863 0.0
C1293 C 0.89398 0.08523 0.29266 0.0
C1294 C 0.84172 0.07373 0.34597 0.0
C1295 C 0.87673 0.12442 0.28567 0.0
H1296 H 0.77871 0.12172 0.29877 0.0
H1297 H 0.82947 0.17335 0.34817 0.0
H1298 H 0.82317 0.08553 0.27602 0.0
H1299 H 0.81106 0.06945 0.29836 0.0
H1300 H 0.78949 0.08348 0.28121 0.0
H1301 H 0.86743 0.16185 0.36411 0.0
H1302 H 0.87262 0.12949 0.35895 0.0
H1303 H 0.88421 0.14974 0.3395 0.0
H1304 H 0.87622 0.04401 0.32851 0.0
H1305 H 0.90692 0.08785 0.27908 0.0
H1306 H 0.82179 0.06848 0.33831 0.0
H1307 H 0.84196 0.0911 0.35867 0.0
H1308 H 0.84684 0.05867 0.35527 0.0
H1309 H 0.85813 0.12278 0.27552 0.0
H1310 H 0.89246 0.12534 0.27363 0.0
H1311 H 0.87865 0.14222 0.29798 0.0
C1312 C 0.41912 0.01998 0.02195 0.0
C1313 C 0.43606 0.01248 1.00502 0.0
C1314 C 0.3989 1.00315 0.02753 0.0
C1315 C 0.39504 0.97836 0.0155 0.0
C1316 C 0.41318 0.97016 0.99976 0.0
C1317 C 0.43359 0.98723 0.99491 0.0
C1318 C 0.38046 0.01251 0.04492 0.0
C1319 C 0.40982 0.94389 0.98649 0.0
C1320 C 0.34347 0.92779 0.02832 0.0
C1321 C 0.32395 0.92905 0.01163 0.0
C1322 C 0.3664 0.94452 0.03073 0.0
C1323 C 0.36991 0.9626 0.0159 0.0
C1324 C 0.34967 0.96476 0.99998 0.0
C1325 C 0.32698 0.9482 0.99823 0.0
C1326 C 0.38726 0.94206 0.04836 0.0
C1327 C 0.35242 0.98373 0.98381 0.0
H1328 H 0.42055 0.03939 0.02989 0.0
H1329 H 0.44693 0.981 0.98232 0.0
H1330 H 0.3628 0.01606 0.03565 0.0
H1331 H 0.37476 0.99838 0.05601 0.0
H1332 H 0.38888 0.03015 0.05614 0.0
H1333 H 0.42703 0.93959 0.97701 0.0
H1334 H 0.40579 0.93019 0.99834 0.0
H1335 H 0.39312 0.94143 0.97375 0.0
H1336 H 0.34136 0.9131 0.03877 0.0
H1337 H 0.31191 0.94967 0.98551 0.0
H1338 H 0.39596 0.96068 0.05752 0.0
H1339 H 0.4027 0.93297 0.03945 0.0
H1340 H 0.37991 0.93064 0.06132 0.0
H1341 H 0.35744 1.00277 0.99382 0.0
H1342 H 0.3346 0.98339 0.97284 0.0
H1343 H 0.36824 0.98003 0.97229 0.0
C1344 C 0.28648 0.40881 0.30039 0.0
C1345 C 0.28028 0.40261 0.32196 0.0
C1346 C 0.27018 0.42165 0.28822 0.0
C1347 C 0.24712 0.42826 0.29783 0.0
C1348 C 0.24003 0.42044 0.31883 0.0
C1349 C 0.25668 0.4078 0.33062 0.0
C1350 C 0.27844 0.4295 0.26585 0.0
C1351 C 0.21559 0.42681 0.32966 0.0
C1352 C 0.22253 0.48818 0.28674 0.0
C1353 C 0.20156 0.47936 0.27076 0.0
C1354 C 0.23773 0.47177 0.2952 0.0
C1355 C 0.23192 0.44574 0.28757 0.0
C1356 C 0.21094 0.43667 0.27125 0.0
C1357 C 0.196 0.45358 0.26303 0.0
C1358 C 0.25985 0.48233 0.31261 0.0
C1359 C 0.20408 0.4091 0.2627 0.0
H1360 H 0.30474 0.40493 0.29368 0.0
H1361 H 0.25169 0.40279 0.34718 0.0
H1362 H 0.26228 0.42523 0.25248 0.0
H1363 H 0.28422 0.44997 0.2687 0.0
H1364 H 0.29489 0.42018 0.25914 0.0
H1365 H 0.21145 0.41706 0.34459 0.0
H1366 H 0.21727 0.44721 0.33581 0.0
H1367 H 0.19905 0.42186 0.31671 0.0
H1368 H 0.2271 0.50804 0.29278 0.0
H1369 H 0.17992 0.44658 0.25062 0.0
H1370 H 0.27794 0.47602 0.30624 0.0
H1371 H 0.25657 0.47536 0.32915 0.0
H1372 H 0.26242 0.50304 0.31614 0.0
H1373 H 0.22101 0.40105 0.2555 0.0
H1374 H 0.18802 0.40508 0.24919 0.0
H1375 H 0.19848 0.39947 0.27736 0.0
C1376 C 0.15205 0.01646 0.50295 0.0
C1377 C 0.13739 0.01318 0.48191 0.0
C1378 C 0.17581 0.03202 0.50642 0.0
C1379 C 0.18471 0.0453 0.48867 0.0
C1380 C 0.17063 0.04053 0.46691 0.0
C1381 C 0.1476 0.02438 0.4638 0.0
C1382 C 0.19112 0.03349 0.52904 0.0
C1383 C 0.17948 0.05188 0.44633 0.0
C1384 C 0.22664 0.10761 0.5089 0.0
C1385 C 0.24759 0.10519 0.49518 0.0
C1386 C 0.20596 0.08837 0.50693 0.0
C1387 C 0.20762 0.06503 0.49284 0.0
C1388 C 0.2304 0.06171 0.48111 0.0
C1389 C 0.24955 0.08211 0.48168 0.0
C1390 C 0.18222 0.09339 0.5196 0.0
C1391 C 0.23488 0.03693 0.46761 0.0
H1392 H 0.14487 1.0072 0.51686 0.0
H1393 H 0.13734 0.02072 0.44693 0.0
H1394 H 0.21037 0.04446 0.52975 0.0
H1395 H 0.1802 0.04173 0.54349 0.0
H1396 H 0.19362 0.01436 0.53199 0.0
H1397 H 0.1628 0.05569 0.43581 0.0
H1398 H 0.19284 0.06929 0.45124 0.0
H1399 H 0.18934 0.03826 0.43502 0.0
H1400 H 0.22605 0.12489 0.52065 0.0
H1401 H 0.26652 0.07974 0.47207 0.0
H1402 H 0.18123 0.08341 0.53461 0.0
H1403 H 0.16465 0.08668 0.50808 0.0
H1404 H 0.18228 0.11353 0.52629 0.0
H1405 H 0.22116 0.02114 0.47114 0.0
H1406 H 0.25466 0.03311 0.47181 0.0
H1407 H 0.23349 0.03783 0.44883 0.0
C1408 C 0.81793 0.12589 0.70674 0.0
C1409 C 0.81772 0.15141 0.70604 0.0
C1410 C 0.79517 0.11017 0.70842 0.0
C1411 C 0.77142 0.11991 0.70861 0.0
C1412 C 0.77083 0.14488 0.70529 0.0
C1413 C 0.79393 0.16044 0.70453 0.0
C1414 C 0.79676 0.08353 0.71152 0.0
C1415 C 0.74604 0.1559 0.70424 0.0
C1416 C 0.71162 0.07224 0.70476 0.0
C1417 C 0.70705 0.07269 0.72819 0.0
C1418 C 0.73177 0.08832 0.69794 0.0
C1419 C 0.74798 0.10486 0.71503 0.0
C1420 C 0.74295 0.10573 0.7387 0.0
C1421 C 0.72278 0.08938 0.74498 0.0
C1422 C 0.73621 0.08705 0.67255 0.0
C1423 C 0.75945 0.12332 0.75749 0.0
H1424 H 0.83606 0.11836 0.70701 0.0
H1425 H 0.7932 0.18004 0.70408 0.0
H1426 H 0.7918 0.08114 0.72932 0.0
H1427 H 0.78273 0.07056 0.69932 0.0
H1428 H 0.81624 0.07813 0.70876 0.0
H1429 H 0.74777 0.17203 0.69481 0.0
H1430 H 0.73014 0.14187 0.69575 0.0
H1431 H 0.74125 0.16263 0.72213 0.0
H1432 H 0.69964 0.05902 0.6918 0.0
H1433 H 0.71981 0.08908 0.76313 0.0
H1434 H 0.75446 0.0794 0.66878 0.0
H1435 H 0.73806 0.10601 0.66787 0.0
H1436 H 0.72042 0.07511 0.66139 0.0
H1437 H 0.77942 0.1187 0.75744 0.0
H1438 H 0.7523 0.12245 0.77495 0.0
H1439 H 0.76001 0.14276 0.75414 0.0
C1440 C 0.47216 0.06515 0.51965 0.0
C1441 C 0.46955 0.05029 0.53708 0.0
C1442 C 0.45255 0.07877 0.51382 0.0
C1443 C 0.4296 0.07756 0.52563 0.0
C1444 C 0.42702 0.06299 0.54357 0.0
C1445 C 0.44707 0.04963 0.54916 0.0
C1446 C 0.45631 0.09429 0.4948 0.0
C1447 C 0.40286 0.06113 0.55656 0.0
C1448 C 0.38707 0.12901 0.52371 0.0
C1449 C 0.36807 0.1178 0.50644 0.0
C1450 C 0.40717 0.11618 0.53007 0.0
C1451 C 0.40831 0.09142 0.51904 0.0
C1452 C 0.38931 0.08007 0.50145 0.0
C1453 C 0.36949 0.0934 0.49531 0.0
C1454 C 0.42713 0.12909 0.54873 0.0
C1455 C 0.38976 0.05371 0.48927 0.0
H1456 H 0.48964 0.06608 0.51047 0.0
H1457 H 0.44486 0.03808 0.56254 0.0
H1458 H 0.44142 0.08748 0.48051 0.0
H1459 H 0.45405 0.11398 0.50145 0.0
H1460 H 0.47551 0.09371 0.48765 0.0
H1461 H 0.404 0.04941 0.57031 0.0
H1462 H 0.39912 0.07998 0.56462 0.0
H1463 H 0.3862 0.05302 0.54434 0.0
H1464 H 0.38615 0.14783 0.53244 0.0
H1465 H 0.35482 0.08452 0.48208 0.0
H1466 H 0.44651 0.12965 0.54188 0.0
H1467 H 0.4272 0.11847 0.56335 0.0
H1468 H 0.4237 0.14847 0.55547 0.0
H1469 H 0.40804 0.05224 0.48065 0.0
H1470 H 0.37355 0.04749 0.47607 0.0
H1471 H 0.38885 0.04077 0.50207 0.0
C1472 C 0.61536 0.46936 0.55605 0.0
C1473 C 0.62529 0.49444 0.56349 0.0
C1474 C 0.63124 0.45181 0.54662 0.0
C1475 C 0.65775 0.45944 0.54491 0.0
C1476 C 0.66788 0.48468 0.55273 0.0
C1477 C 0.65156 0.50181 0.56181 0.0
C1478 C 0.61962 0.42517 0.53827 0.0
C1479 C 0.69604 0.49362 0.55157 0.0
C1480 C 0.7063 0.41269 0.54024 0.0
C1481 C 0.71191 0.41065 0.51684 0.0
C1482 C 0.68821 0.4279 0.54946 0.0
C1483 C 0.67507 0.44125 0.53491 0.0
C1484 C 0.67988 0.4385 0.5111 0.0
C1485 C 0.6983 0.42341 0.5024 0.0
C1486 C 0.68389 0.43045 0.57498 0.0
C1487 C 0.6661 0.45211 0.4949 0.0
H1488 H 0.59507 0.46356 0.55723 0.0
H1489 H 0.65948 0.52106 0.56791 0.0
H1490 H 0.6226 0.41991 0.5196 0.0
H1491 H 0.62932 0.41244 0.54762 0.0
H1492 H 0.59872 0.42218 0.54081 0.0
H1493 H 0.70098 0.51374 0.55872 0.0
H1494 H 0.70781 0.48279 0.56136 0.0
H1495 H 0.70145 0.49047 0.53335 0.0
H1496 H 0.71669 0.40302 0.55162 0.0
H1497 H 0.70226 0.42185 0.48426 0.0
H1498 H 0.66313 0.42653 0.57765 0.0
H1499 H 0.69041 0.44991 0.58349 0.0
H1500 H 0.69438 0.4177 0.58367 0.0
H1501 H 0.64506 0.4486 0.49637 0.0
H1502 H 0.67038 0.44642 0.47656 0.0
H1503 H 0.6719 0.47249 0.49979 0.0
C1504 C 0.76032 0.218 0.38418 0.0
C1505 C 0.75845 0.22298 0.36139 0.0
C1506 C 0.75818 0.23662 0.40336 0.0
C1507 C 0.75315 0.26065 0.3998 0.0
C1508 C 0.75011 0.26538 0.37689 0.0
C1509 C 0.75357 0.24695 0.3582 0.0
C1510 C 0.76201 0.23079 0.42748 0.0
C1511 C 0.74444 0.29025 0.37164 0.0
C1512 C 0.73075 0.30406 0.45069 0.0
C1513 C 0.75351 0.3197 0.45857 0.0
C1514 C 0.73015 0.2851 0.43127 0.0
C1515 C 0.75301 0.28126 0.41992 0.0
C1516 C 0.77591 0.29733 0.42771 0.0
C1517 C 0.77589 0.31619 0.44696 0.0
C1518 C 0.70505 0.26931 0.42274 0.0
C1519 C 0.80059 0.29443 0.41589 0.0
H1520 H 0.76364 0.1996 0.38716 0.0
H1521 H 0.75302 0.25185 0.34103 0.0
H1522 H 0.77882 0.24316 0.43668 0.0
H1523 H 0.74503 0.2345 0.43746 0.0
H1524 H 0.76521 0.2111 0.42742 0.0
H1525 H 0.73498 0.30088 0.38582 0.0
H1526 H 0.76283 0.30112 0.36868 0.0
H1527 H 0.73193 0.28792 0.3555 0.0
H1528 H 0.71346 0.30665 0.45974 0.0
H1529 H 0.79371 0.32777 0.4534 0.0
H1530 H 0.70666 0.24941 0.42335 0.0
H1531 H 0.70053 0.27089 0.4044 0.0
H1532 H 0.68889 0.27491 0.43313 0.0
H1533 H 0.8054 0.27519 0.41548 0.0
H1534 H 0.81696 0.30783 0.42463 0.0
H1535 H 0.79815 0.29749 0.39771 0.0
C1536 C 0.51383 0.05342 0.86567 0.0
C1537 C 0.51336 0.04312 0.88614 0.0
C1538 C 0.5339 0.05092 0.8508 0.0
C1539 C 0.55462 0.03838 0.85674 0.0
C1540 C 0.55483 0.02864 0.87774 0.0
C1541 C 0.53412 0.03096 0.89212 0.0
C1542 C 0.5328 0.06162 0.8286 0.0
C1543 C 0.57686 0.01566 0.88493 0.0
C1544 C 0.59375 0.01696 0.80574 0.0
C1545 C 0.61222 0.03783 0.80659 0.0
C1546 C 0.57554 0.01619 0.82268 0.0
C1547 C 0.5763 0.03651 0.84114 0.0
C1548 C 0.59617 0.0567 0.84294 0.0
C1549 C 0.61358 0.05728 0.82549 0.0
C1550 C 0.55445 0.9945 0.81992 0.0
C1551 C 0.59817 0.07845 0.86256 0.0
H1552 H 0.49829 0.06341 0.8611 0.0
H1553 H 0.53392 0.02275 0.90777 0.0
H1554 H 0.54922 0.07641 0.82875 0.0
H1555 H 0.53441 0.04688 0.81358 0.0
H1556 H 0.51474 0.06973 0.82598 0.0
H1557 H 0.57455 0.00979 0.9021 0.0
H1558 H 0.57842 0.99895 0.87191 0.0
H1559 H 0.59518 0.02821 0.88564 0.0
H1560 H 0.59255 1.00196 0.7911 0.0
H1561 H 0.62792 0.0734 0.82636 0.0
H1562 H 0.53598 1.00084 0.81512 0.0
H1563 H 0.55216 0.98734 0.83648 0.0
H1564 H 0.55816 0.97897 0.80633 0.0
H1565 H 0.58239 0.08977 0.86027 0.0
H1566 H 0.61672 0.09072 0.86334 0.0
H1567 H 0.59612 0.07178 0.87938 0.0
C1568 C 0.37085 0.27207 0.37189 0.0
C1569 C 0.3495 0.28287 0.36489 0.0
C1570 C 0.36869 0.25483 0.38742 0.0
C1571 C 0.34463 0.24823 0.39634 0.0
C1572 C 0.32301 0.25897 0.38926 0.0
C1573 C 0.32568 0.27598 0.37362 0.0
C1574 C 0.39216 0.24371 0.39437 0.0
C1575 C 0.29694 0.25247 0.3982 0.0
C1576 C 0.32619 0.18771 0.41925 0.0
C1577 C 0.32716 0.19591 0.44319 0.0
C1578 C 0.33355 0.20419 0.40389 0.0
C1579 C 0.34159 0.2297 0.41264 0.0
C1580 C 0.34397 0.23778 0.43695 0.0
C1581 C 0.33678 0.22074 0.45196 0.0
C1582 C 0.33103 0.19458 0.3782 0.0
C1583 C 0.35229 0.26478 0.44707 0.0
H1584 H 0.38943 0.27743 0.36553 0.0
H1585 H 0.30893 0.28379 0.36809 0.0
H1586 H 0.39622 0.24838 0.41338 0.0
H1587 H 0.38863 0.22309 0.38992 0.0
H1588 H 0.40942 0.25052 0.38574 0.0
H1589 H 0.28219 0.26289 0.39148 0.0
H1590 H 0.29052 0.23221 0.39311 0.0
H1591 H 0.29809 0.25663 0.41739 0.0
H1592 H 0.31859 0.16857 0.41241 0.0
H1593 H 0.33703 0.22723 0.47043 0.0
H1594 H 0.34854 0.2012 0.36987 0.0
H1595 H 0.31464 0.2019 0.37024 0.0
H1596 H 0.32774 0.17388 0.37434 0.0
H1597 H 0.36985 0.27202 0.43916 0.0
H1598 H 0.3561 0.26754 0.46614 0.0
H1599 H 0.33699 0.27606 0.44313 0.0
C1600 C 0.52719 0.48805 0.92866 0.0
C1601 C 0.55334 0.4969 0.9337 0.0
C1602 C 0.51414 0.49223 0.90847 0.0
C1603 C 0.52735 0.50598 0.89305 0.0
C1604 C 0.55328 0.5162 0.89868 0.0
C1605 C 0.56601 0.51128 0.91869 0.0
C1606 C 0.48655 0.48076 0.90303 0.0
C1607 C 0.56805 0.53123 0.88293 0.0
C1608 C 0.50585 0.48663 0.82956 0.0
C1609 C 0.48955 0.50434 0.82572 0.0
C1610 C 0.51847 0.48733 0.85119 0.0
C1611 C 0.51527 0.50652 0.86963 0.0
C1612 C 0.50004 0.52532 0.86567 0.0
C1613 C 0.48721 0.52396 0.84377 0.0
C1614 C 0.53445 0.46684 0.85452 0.0
C1615 C 0.49664 0.54639 0.88477 0.0
H1616 H 0.51698 0.47737 0.94026 0.0
H1617 H 0.58628 0.51793 0.92197 0.0
H1618 H 0.47459 0.49494 0.89871 0.0
H1619 H 0.48536 0.46588 0.88765 0.0
H1620 H 0.47832 0.47249 0.91765 0.0
H1621 H 0.58648 0.54121 0.89147 0.0
H1622 H 0.57235 0.51864 0.8672 0.0
H1623 H 0.55647 0.54507 0.87724 0.0
H1624 H 0.50813 0.4715 0.81577 0.0
H1625 H 0.47469 0.53771 0.84107 0.0
H1626 H 0.52629 0.45637 0.86782 0.0
H1627 H 0.55432 0.47493 0.86082 0.0
H1628 H 0.53531 0.45346 0.8383 0.0
H1629 H 0.48535 0.53898 0.89831 0.0
H1630 H 0.48656 0.5609 0.87834 0.0
H1631 H 0.51556 0.55521 0.8931 0.0
C1632 C 0.77188 0.79516 0.12661 0.0
C1633 C 0.7498 0.79006 0.13867 0.0
C1634 C 0.77541 0.781 0.10511 0.0
C1635 C 0.75679 0.76072 0.09562 0.0
C1636 C 0.73407 0.75592 0.10722 0.0
C1637 C 0.73072 0.77081 0.12844 0.0
C1638 C 0.79972 0.78702 0.09313 0.0
C1639 C 0.7139 0.73425 0.09782 0.0
C1640 C 0.75905 0.72878 0.03318 0.0
C1641 C 0.77261 0.7088 0.03604 0.0
C1642 C 0.75408 0.74613 0.05235 0.0
C1643 C 0.76233 0.74306 0.07491 0.0
C1644 C 0.77606 0.72296 0.07786 0.0
C1645 C 0.78125 0.70628 0.05842 0.0
C1646 C 0.73994 0.76768 0.0485 0.0
C1647 C 0.78487 0.71876 0.10163 0.0
H1648 H 0.78711 0.80954 0.13436 0.0
H1649 H 0.7134 0.76692 0.13733 0.0
H1650 H 0.81233 0.77234 0.09417 0.0
H1651 H 0.79524 0.78733 0.07453 0.0
H1652 H 0.81052 0.80528 0.10106 0.0
H1653 H 0.69653 0.7341 0.10798 0.0
H1654 H 0.70812 0.73482 0.07953 0.0
H1655 H 0.72198 0.71649 0.09818 0.0
H1656 H 0.75231 0.73086 0.01596 0.0
H1657 H 0.79144 0.69073 0.06087 0.0
H1658 H 0.75153 0.78557 0.05628 0.0
H1659 H 0.72162 0.76658 0.05723 0.0
H1660 H 0.73564 0.76796 0.02983 0.0
H1661 H 0.79807 0.73517 0.11044 0.0
H1662 H 0.79491 0.70196 0.10097 0.0
H1663 H 0.76814 0.71657 0.1124 0.0
C1664 C 0.07298 0.0133 0.14508 0.0
C1665 C 0.06028 0.01567 0.12421 0.0
C1666 C 0.05927 0.01041 0.16482 0.0
C1667 C 0.03214 0.00929 0.16349 0.0
C1668 C 0.01924 0.01115 0.14223 0.0
C1669 C 0.0335 0.01469 0.12297 0.0
C1670 C 0.07385 0.00904 0.1872 0.0
C1671 C 0.99036 0.00939 0.13983 0.0
C1672 C 0.99481 0.97777 0.20753 0.0
C1673 C 0.9873 0.99811 0.22235 0.0
C1674 C 0.00925 0.98117 0.18839 0.0
C1675 C 0.01718 1.00558 0.18415 0.0
C1676 C 0.01036 0.02627 0.19937 0.0
C1677 C 0.99524 0.0223 0.2181 0.0
C1678 C 0.01552 0.95854 0.17238 0.0
C1679 C 0.01895 0.05262 0.1958 0.0
H1680 H 0.09374 0.0145 0.14612 0.0
H1681 H 0.02374 0.01671 0.10685 0.0
H1682 H 0.06953 0.02411 0.20094 0.0
H1683 H 0.06765 0.99106 0.19301 0.0
H1684 H 0.09493 0.01081 0.18553 0.0
H1685 H 0.98321 0.01041 0.12195 0.0
H1686 H 0.98156 0.99158 0.14459 0.0
H1687 H 0.98371 0.02472 0.15187 0.0
H1688 H 0.98886 0.95897 0.21051 0.0
H1689 H 0.98973 0.03815 0.22945 0.0
H1690 H 0.03662 0.95905 0.17163 0.0
H1691 H 0.00758 0.95862 0.15456 0.0
H1692 H 0.00767 0.9408 0.17792 0.0
H1693 H 0.04013 0.05559 0.19497 0.0
H1694 H 0.0133 0.06669 0.20984 0.0
H1695 H 0.01046 0.05581 0.17906 0.0
C1696 C 0.33129 0.76177 0.13462 0.0
C1697 C 0.35465 0.77289 0.14627 0.0
C1698 C 0.32207 0.77008 0.11467 0.0
C1699 C 0.33651 0.79004 0.1063 0.0
C1700 C 0.36098 0.79997 0.117 0.0
C1701 C 0.36979 0.79119 0.13673 0.0
C1702 C 0.29607 0.75869 0.10354 0.0
C1703 C 0.37707 0.82124 0.10876 0.0
C1704 C 0.31806 0.80942 0.04862 0.0
C1705 C 0.30361 0.82887 0.05585 0.0
C1706 C 0.32854 0.7962 0.06473 0.0
C1707 C 0.32475 0.80284 0.0886 0.0
C1708 C 0.31034 0.8226 0.09591 0.0
C1709 C 0.29986 0.83521 0.07948 0.0
C1710 C 0.34354 0.7751 0.05623 0.0
C1711 C 0.30611 0.83059 0.1212 0.0
H1712 H 0.31948 0.74764 0.14187 0.0
H1713 H 0.38811 0.79952 0.14539 0.0
H1714 H 0.28195 0.77198 0.10781 0.0
H1715 H 0.29667 0.75499 0.08442 0.0
H1716 H 0.28917 0.741 0.10964 0.0
H1717 H 0.3968 0.82485 0.11715 0.0
H1718 H 0.3784 0.81734 0.08973 0.0
H1719 H 0.36781 0.83846 0.11278 0.0
H1720 H 0.32086 0.80428 0.03036 0.0
H1721 H 0.28877 0.85024 0.08524 0.0
H1722 H 0.33476 0.75767 0.06171 0.0
H1723 H 0.36346 0.77917 0.06408 0.0
H1724 H 0.34427 0.77185 0.03709 0.0
H1725 H 0.29628 0.81468 0.12839 0.0
H1726 H 0.2944 0.84626 0.12402 0.0
H1727 H 0.32486 0.83647 0.13112 0.0
C1728 C 0.05714 0.52565 0.09226 0.0
C1729 C 0.0305 0.51893 0.0888 0.0
C1730 C 0.0697 0.52803 0.11425 0.0
C1731 C 0.05536 0.5233 0.13337 0.0
C1732 C 0.02843 0.51634 0.12999 0.0
C1733 C 0.01627 0.51447 0.10777 0.0
C1734 C 0.09833 0.53598 0.11706 0.0
C1735 C 0.01251 0.51082 0.14983 0.0
C1736 C 0.09615 0.51169 0.185 0.0
C1737 C 0.09997 0.5354 0.1988 0.0
C1738 C 0.08052 0.50706 0.16427 0.0
C1739 C 0.06868 0.52667 0.15693 0.0
C1740 C 0.07159 0.55032 0.17124 0.0
C1741 C 0.08696 0.55432 0.19199 0.0
C1742 C 0.07756 0.48145 0.14972 0.0
C1743 C 0.05962 0.57187 0.16404 0.0
H1744 H 0.06819 0.52944 0.07772 0.0
H1745 H 0.9957 0.50913 0.10515 0.0
H1746 H 0.1026 0.55359 0.1296 0.0
H1747 H 0.10804 0.52166 0.12414 0.0
H1748 H 0.10669 0.5389 0.10046 0.0
H1749 H 0.99197 0.50478 0.14423 0.0
H1750 H 0.02005 0.49595 0.15795 0.0
H1751 H 0.01387 0.52764 0.16334 0.0
H1752 H 0.1059 0.49685 0.19006 0.0
H1753 H 0.08959 0.57274 0.20241 0.0
H1754 H 0.08782 0.48224 0.13364 0.0
H1755 H 0.05703 0.47497 0.1445 0.0
H1756 H 0.08537 0.46754 0.159 0.0
H1757 H 0.06859 0.57713 0.14841 0.0
H1758 H 0.06208 0.58852 0.17786 0.0
H1759 H 0.03883 0.56639 0.15943 0.0
C1760 C 0.42778 0.69223 0.2482 0.0
C1761 C 0.40132 0.68555 0.24936 0.0
C1762 C 0.44492 0.6928 0.26739 0.0
C1763 C 0.43539 0.68668 0.28833 0.0
C1764 C 0.40891 0.67844 0.28909 0.0
C1765 C 0.39224 0.67813 0.2697 0.0
C1766 C 0.47309 0.70112 0.26561 0.0
C1767 C 0.39735 0.67154 0.31064 0.0
C1768 C 0.48409 0.67942 0.33617 0.0
C1769 C 0.48783 0.70355 0.349 0.0
C1770 C 0.46649 0.67332 0.31672 0.0
C1771 C 0.45259 0.69188 0.30991 0.0
C1772 C 0.4559 0.71607 0.32325 0.0
C1773 C 0.47381 0.7217 0.3423 0.0
C1774 C 0.46306 0.64722 0.3032 0.0
C1775 C 0.44093 0.73622 0.31708 0.0
H1776 H 0.43503 0.6976 0.23243 0.0
H1777 H 0.37181 0.67322 0.271 0.0
H1778 H 0.47857 0.71968 0.27648 0.0
H1779 H 0.48487 0.68794 0.27223 0.0
H1780 H 0.47786 0.70251 0.24754 0.0
H1781 H 0.38266 0.65491 0.30616 0.0
H1782 H 0.41174 0.66762 0.32348 0.0
H1783 H 0.38737 0.68717 0.31865 0.0
H1784 H 0.49525 0.66548 0.34111 0.0
H1785 H 0.47745 0.74065 0.35156 0.0
H1786 H 0.46841 0.64768 0.28514 0.0
H1787 H 0.44257 0.63917 0.30241 0.0
H1788 H 0.47488 0.63478 0.31096 0.0
H1789 H 0.44526 0.74 0.29952 0.0
H1790 H 0.44538 0.75392 0.32951 0.0
H1791 H 0.42004 0.72984 0.31678 0.0
C1792 C 0.0546 0.41313 0.99234 0.0
C1793 C 0.04562 0.42618 0.97555 0.0
C1794 C 0.05531 0.38723 0.98723 0.0
C1795 C 0.04644 0.37412 0.96498 0.0
C1796 C 0.03717 0.38726 0.94809 0.0
C1797 C 0.037 0.41308 0.95355 0.0
C1798 C 0.06557 0.3739 1.00559 0.0
C1799 C 0.0271 0.37398 0.92427 0.0
C1800 C 0.0627 0.31042 0.93839 0.0
C1801 C 0.0397 0.29518 0.94035 0.0
C1802 C 0.06596 0.33595 0.94781 0.0
C1803 C 0.04569 0.34652 0.9593 0.0
C1804 C 0.0232 0.3309 0.96272 0.0
C1805 C 0.02054 0.30548 0.95335 0.0
C1806 C 0.09042 0.35191 0.94414 0.0
C1807 C 1.00105 0.34135 0.97476 0.0
H1808 H 0.06143 0.42326 0.00931 0.0
H1809 H 0.02973 0.42306 0.94064 0.0
H1810 H 0.05038 0.35967 0.00973 0.0
H1811 H 0.08164 0.36393 0.99904 0.0
H1812 H 0.07248 0.38688 0.02177 0.0
H1813 H 0.0207 0.38697 0.9131 0.0
H1814 H 0.0422 0.36413 0.9156 0.0
H1815 H 0.01064 0.35972 0.92574 0.0
H1816 H 0.07772 0.30273 0.92855 0.0
H1817 H 1.00275 0.29395 0.95524 0.0
H1818 H 0.09764 0.36462 0.96037 0.0
H1819 H 0.08653 0.36368 0.93095 0.0
H1820 H 0.10569 0.3405 0.93811 0.0
H1821 H 0.00792 0.35364 0.9913 0.0
H1822 H 0.98625 0.32644 0.97841 0.0
H1823 H 0.99186 0.35286 0.96366 0.0
C1824 C 0.66897 0.75264 0.26712 0.0
C1825 C 0.68615 0.77414 0.26651 0.0
C1826 C 0.6499 0.75249 0.28312 0.0
C1827 C 0.648 0.77438 0.29908 0.0
C1828 C 0.66448 0.79655 0.29781 0.0
C1829 C 0.68336 0.7962 0.28143 0.0
C1830 C 0.63257 0.72852 0.28361 0.0
C1831 C 0.66304 0.82025 0.3145 0.0
C1832 C 0.58669 0.77183 0.33136 0.0
C1833 C 0.59444 0.76239 0.35108 0.0
C1834 C 0.60424 0.7772 0.3148 0.0
C1835 C 0.63014 0.77315 0.31811 0.0
C1836 C 0.63833 0.76506 0.33867 0.0
C1837 C 0.62039 0.75971 0.35484 0.0
C1838 C 0.59471 0.78581 0.29315 0.0
C1839 C 0.66581 0.7607 0.34301 0.0
H1840 H 0.67093 0.73565 0.25538 0.0
H1841 H 0.6967 0.81281 0.28103 0.0
H1842 H 0.63659 0.72158 0.30001 0.0
H1843 H 0.61216 0.73182 0.28304 0.0
H1844 H 0.63523 0.71372 0.26893 0.0
H1845 H 0.675 0.83651 0.30955 0.0
H1846 H 0.64291 0.82431 0.31542 0.0
H1847 H 0.66981 0.81792 0.3321 0.0
H1848 H 0.56667 0.774 0.32833 0.0
H1849 H 0.62658 0.75263 0.37012 0.0
H1850 H 0.59435 0.77052 0.2782 0.0
H1851 H 0.60786 0.80189 0.28937 0.0
H1852 H 0.57508 0.79124 0.29455 0.0
H1853 H 0.67009 0.74451 0.33049 0.0
H1854 H 0.66968 0.75691 0.36081 0.0
H1855 H 0.67918 0.77713 0.34033 0.0
C1856 C 0.09934 0.14103 0.02469 0.0
C1857 C 0.08528 0.11943 0.03014 0.0
C1858 C 0.09146 0.1521 1.00603 0.0
C1859 C 0.06936 0.14095 0.99187 0.0
C1860 C 0.05626 0.11805 0.99606 0.0
C1861 C 0.06423 0.10767 0.01527 0.0
C1862 C 0.10593 0.1766 1.00241 0.0
C1863 C 0.03306 0.10516 0.98097 0.0
C1864 C 0.03218 0.18551 0.96451 0.0
C1865 C 0.04184 0.1841 0.94245 0.0
C1866 C 0.04065 0.17124 0.98053 0.0
C1867 C 0.05877 0.15458 0.97421 0.0
C1868 C 0.06789 0.15238 0.95166 0.0
C1869 C 0.05961 0.16743 0.93617 0.0
C1870 C 0.03082 0.17463 1.00453 0.0
C1871 C 0.08663 0.13435 0.944 0.0
H1872 H 0.11609 0.14991 0.03563 0.0
H1873 H 0.05318 0.09102 0.01924 0.0
H1874 H 0.11149 0.17549 0.98428 0.0
H1875 H 0.09333 0.1915 1.00557 0.0
H1876 H 0.12353 0.18213 0.01413 0.0
H1877 H 0.0275 0.08585 0.98421 0.0
H1878 H 0.01659 0.11581 0.98445 0.0
H1879 H 0.03678 0.10451 0.9624 0.0
H1880 H 0.01853 0.19841 0.96954 0.0
H1881 H 0.06693 0.16601 0.91905 0.0
H1882 H 0.04708 0.18154 0.01753 0.0
H1883 H 0.02186 0.1565 0.00844 0.0
H1884 H 0.01647 0.18803 1.00659 0.0
H1885 H 0.1053 0.14034 0.95401 0.0
H1886 H 0.08995 0.13309 0.92528 0.0
H1887 H 0.07946 0.11549 0.94751 0.0
C1888 C 0.38156 0.3213 0.27446 0.0
C1889 C 0.38828 0.31513 0.2961 0.0
C1890 C 0.39745 0.31752 0.25578 0.0
C1891 C 0.42055 0.30712 0.25866 0.0
C1892 C 0.42799 0.30194 0.28072 0.0
C1893 C 0.41188 0.30608 0.29911 0.0
C1894 C 0.38882 0.32346 0.23264 0.0
C1895 C 0.45238 0.29078 0.28464 0.0
C1896 C 0.44299 0.26415 0.20841 0.0
C1897 C 0.4648 0.27845 0.20204 0.0
C1898 C 0.42815 0.27362 0.2262 0.0
C1899 C 0.43497 0.29822 0.23812 0.0
C1900 C 0.45623 0.3133 0.23118 0.0
C1901 C 0.47094 0.30323 0.21318 0.0
C1902 C 0.40566 0.2568 0.23282 0.0
C1903 C 0.46394 0.33973 0.24328 0.0
H1904 H 0.3634 0.32824 0.27183 0.0
H1905 H 0.41766 0.30188 0.31587 0.0
H1906 H 0.40494 0.3337 0.22497 0.0
H1907 H 0.38253 0.30586 0.22052 0.0
H1908 H 0.37261 0.33478 0.23401 0.0
H1909 H 0.45672 0.29008 0.30321 0.0
H1910 H 0.45054 0.27151 0.27485 0.0
H1911 H 0.46887 0.30167 0.2781 0.0
H1912 H 0.43769 0.2451 0.19977 0.0
H1913 H 0.48766 0.31446 0.2084 0.0
H1914 H 0.38794 0.26588 0.23241 0.0
H1915 H 0.40923 0.2534 0.25078 0.0
H1916 H 0.4022 0.2385 0.22115 0.0
H1917 H 0.44702 0.35008 0.24448 0.0
H1918 H 0.47896 0.34988 0.23427 0.0
H1919 H 0.47145 0.3396 0.26122 0.0
C1920 C 0.54327 0.39949 0.04094 0.0
C1921 C 0.56203 0.39035 0.02675 0.0
C1922 C 0.53545 0.38802 0.05989 0.0
C1923 C 0.54652 0.36684 0.06465 0.0
C1924 C 0.56639 0.35843 0.05108 0.0
C1925 C 0.57399 0.37036 0.03251 0.0
C1926 C 0.51457 0.3979 0.07418 0.0
C1927 C 0.57888 0.33603 0.05546 0.0
C1928 C 0.5424 0.34016 0.12081 0.0
C1929 C 0.52387 0.3192 0.11443 0.0
C1930 C 0.54875 0.35687 0.10535 0.0
C1931 C 0.53659 0.35234 0.08279 0.0
C1932 C 0.51689 0.33196 0.07673 0.0
C1933 C 0.51066 0.31576 0.09264 0.0
C1934 C 0.56948 0.37859 0.11276 0.0
C1935 C 0.5035 0.32627 0.05286 0.0
H1936 H 0.53386 0.41485 0.03661 0.0
H1937 H 0.58884 0.36346 0.02192 0.0
H1938 H 0.49676 0.38447 0.07064 0.0
H1939 H 0.52012 0.3999 0.09291 0.0
H1940 H 0.51027 0.41622 0.07025 0.0
H1941 H 0.5947 0.33242 0.0439 0.0
H1942 H 0.58669 0.33873 0.07367 0.0
H1943 H 0.56433 0.31922 0.05271 0.0
H1944 H 0.55262 0.34309 0.13765 0.0
H1945 H 0.49635 0.29962 0.08751 0.0
H1946 H 0.56348 0.39591 0.10787 0.0
H1947 H 0.58712 0.37497 0.10374 0.0
H1948 H 0.57427 0.38175 0.13171 0.0
H1949 H 0.49634 0.34319 0.04821 0.0
H1950 H 0.48711 0.31119 0.05149 0.0
H1951 H 0.51736 0.32042 0.03995 0.0
C1952 C 0.67341 0.22243 0.25809 0.0
C1953 C 0.68602 0.20597 0.24306 0.0
C1954 C 0.64916 0.2285 0.25154 0.0
C1955 C 0.63734 0.2179 0.22946 0.0
C1956 C 0.64958 0.20055 0.21464 0.0
C1957 C 0.67363 0.19473 0.22166 0.0
C1958 C 0.63661 0.24688 0.26792 0.0
C1959 C 0.63764 0.18867 0.19099 0.0
C1960 C 0.56649 0.21635 0.21268 0.0
C1961 C 0.56701 0.23518 0.1989 0.0
C1962 C 0.58903 0.21144 0.22388 0.0
C1963 C 0.61275 0.22556 0.22114 0.0
C1964 C 0.61323 0.24542 0.20829 0.0
C1965 C 0.59039 0.25004 0.1974 0.0
C1966 C 0.58762 0.19028 0.23763 0.0
C1967 C 0.63813 0.26091 0.20489 0.0
H1968 H 0.68289 0.23128 0.27461 0.0
H1969 H 0.68302 0.18161 0.21014 0.0
H1970 H 0.6359 0.26425 0.26054 0.0
H1971 H 0.61653 0.23919 0.27014 0.0
H1972 H 0.6471 0.2517 0.2852 0.0
H1973 H 0.64925 0.17493 0.18188 0.0
H1974 H 0.61812 0.17909 0.19253 0.0
H1975 H 0.63562 0.20329 0.18017 0.0
H1976 H 0.54857 0.20483 0.21416 0.0
H1977 H 0.59111 0.26468 0.1869 0.0
H1978 H 0.59847 0.19629 0.25463 0.0
H1979 H 0.59658 0.17465 0.22818 0.0
H1980 H 0.56752 0.18325 0.2406 0.0
H1981 H 0.64892 0.26793 0.22178 0.0
H1982 H 0.635 0.27707 0.19628 0.0
H1983 H 0.65033 0.24914 0.1941 0.0
C1984 C 0.50796 0.11358 0.01553 0.0
C1985 C 0.48519 0.09791 0.01718 0.0
C1986 C 0.51431 0.13631 0.03089 0.0
C1987 C 0.49785 0.1432 0.04882 0.0
C1988 C 0.4742 0.12794 0.04958 0.0
C1989 C 0.46816 0.10584 0.03372 0.0
C1990 C 0.53848 0.15271 0.02722 0.0
C1991 C 0.45449 0.13457 0.06667 0.0
C1992 C 0.5295 0.18524 0.10337 0.0
C1993 C 0.51454 0.20482 0.10553 0.0
C1994 C 0.52425 0.16497 0.08508 0.0
C1995 C 0.50534 0.1656 0.06721 0.0
C1996 C 0.49213 0.18686 0.06823 0.0
C1997 C 0.4962 0.20567 0.08779 0.0
C1998 C 0.53859 0.14273 0.0853 0.0
C1999 C 0.47329 0.18994 0.04909 0.0
H2000 H 0.52101 0.10804 1.0024 0.0
H2001 H 0.44979 0.09468 0.03436 0.0
H2002 H 0.54068 0.17135 0.03823 0.0
H2003 H 0.5554 0.14322 0.03065 0.0
H2004 H 0.53859 0.15531 0.00881 0.0
H2005 H 0.44515 0.11753 0.0725 0.0
H2006 H 0.46261 0.14817 0.08196 0.0
H2007 H 0.43917 0.14264 0.05792 0.0
H2008 H 0.54483 0.18543 0.11634 0.0
H2009 H 0.48543 0.22148 0.08891 0.0
H2010 H 0.55248 0.14211 0.07159 0.0
H2011 H 0.52509 0.12515 0.0818 0.0
H2012 H 0.5495 0.14351 0.10208 0.0
H2013 H 0.47551 0.17764 0.03254 0.0
H2014 H 0.47565 0.20958 0.04606 0.0
H2015 H 0.45346 0.18582 0.05448 0.0
C2016 C 0.28196 0.37927 0.71167 0.0
C2017 C 0.28805 0.35764 0.69798 0.0
C2018 C 0.30075 0.40006 0.71847 0.0
C2019 C 0.32635 0.39877 0.71207 0.0
C2020 C 0.33223 0.37714 0.69766 0.0
C2021 C 0.31307 0.35691 0.69086 0.0
C2022 C 0.29323 0.42333 0.73255 0.0
C2023 C 0.35893 0.37432 0.69023 0.0
C2024 C 0.37593 0.45661 0.71762 0.0
C2025 C 0.38778 0.45708 0.73957 0.0
C2026 C 0.35557 0.43805 0.70858 0.0
C2027 C 0.34722 0.41925 0.72165 0.0
C2028 C 0.35911 0.41977 0.74387 0.0
C2029 C 0.37868 0.4391 0.7528 0.0
C2030 C 0.34296 0.43858 0.68511 0.0
C2031 C 0.35124 0.39983 0.75819 0.0
H2032 H 0.26251 0.37994 0.71696 0.0
H2033 H 0.31792 0.34008 0.68048 0.0
H2034 H 0.30231 0.42611 0.75033 0.0
H2035 H 0.30022 0.43991 0.72477 0.0
H2036 H 0.27211 0.42241 0.73373 0.0
H2037 H 0.37044 0.39242 0.68939 0.0
H2038 H 0.36866 0.365 0.7029 0.0
H2039 H 0.35844 0.36231 0.67303 0.0
H2040 H 0.38241 0.47096 0.70762 0.0
H2041 H 0.38663 0.44037 0.77034 0.0
H2042 H 0.32187 0.4379 0.68625 0.0
H2043 H 0.34645 0.4219 0.67282 0.0
H2044 H 0.3503 0.4555 0.67796 0.0
H2045 H 0.33065 0.39939 0.76167 0.0
H2046 H 0.36255 0.40278 0.77504 0.0
H2047 H 0.35375 0.38128 0.74842 0.0
C2048 C 0.32189 0.65075 0.8381 0.0
C2049 C 0.29843 0.64471 0.82486 0.0
C2050 C 0.34065 0.63427 0.8364 0.0
C2051 C 0.33613 0.61142 0.82075 0.0
C2052 C 0.31203 0.60473 0.80823 0.0
C2053 C 0.29344 0.62119 0.81073 0.0
C2054 C 0.36575 0.64182 0.85061 0.0
C2055 C 0.30634 0.58075 0.79114 0.0
C2056 C 0.39165 0.58341 0.79139 0.0
C2057 C 0.39275 0.56191 0.80143 0.0
C2058 C 0.37388 0.60003 0.79805 0.0
C2059 C 0.35713 0.59549 0.81568 0.0
C2060 C 0.35912 0.57454 0.8268 0.0
C2061 C 0.37663 0.5578 0.81931 0.0
C2062 C 0.37217 0.62177 0.78535 0.0
C2063 C 0.34223 0.56941 0.84613 0.0
H2064 H 0.32611 0.6688 0.84905 0.0
H2065 H 0.27515 0.61592 0.80092 0.0
H2066 H 0.37126 0.62601 0.85863 0.0
H2067 H 0.38116 0.64698 0.83924 0.0
H2068 H 0.3648 0.65799 0.86448 0.0
H2069 H 0.28633 0.57781 0.78343 0.0
H2070 H 0.31966 0.58104 0.77696 0.0
H2071 H 0.30948 0.56459 0.79968 0.0
H2072 H 0.40392 0.58671 0.77749 0.0
H2073 H 0.37746 0.54132 0.82726 0.0
H2074 H 0.37408 0.63947 0.79779 0.0
H2075 H 0.35306 0.61964 0.77595 0.0
H2076 H 0.38719 0.62326 0.77268 0.0
H2077 H 0.34225 0.58661 0.859 0.0
H2078 H 0.34851 0.55455 0.8551 0.0
H2079 H 0.32216 0.56346 0.83906 0.0
C2080 C 0.91103 0.49828 0.48299 0.0
C2081 C 0.93066 0.5118 0.49862 0.0
C2082 C 0.89251 0.4807 0.48984 0.0
C2083 C 0.89276 0.47708 0.51322 0.0
C2084 C 0.91243 0.49045 0.52917 0.0
C2085 C 0.93137 0.50732 0.52162 0.0
C2086 C 0.87222 0.46643 0.47204 0.0
C2087 C 0.91304 0.48748 0.55434 0.0
C2088 C 0.82589 0.45083 0.52567 0.0
C2089 C 0.82781 0.42528 0.52241 0.0
C2090 C 0.8477 0.46831 0.52538 0.0
C2091 C 0.87169 0.45986 0.52068 0.0
C2092 C 0.87397 0.43413 0.51913 0.0
C2093 C 0.85197 0.41715 0.52029 0.0
C2094 C 0.84453 0.49561 0.52788 0.0
C2095 C 0.89891 0.42413 0.51355 0.0
H2096 H 0.9095 0.50186 0.46538 0.0
H2097 H 0.94654 0.51721 0.53389 0.0
H2098 H 0.87111 0.44612 0.47234 0.0
H2099 H 0.85316 0.47207 0.4762 0.0
H2100 H 0.87607 0.46975 0.45422 0.0
H2101 H 0.93016 0.49847 0.5644 0.0
H2102 H 0.89554 0.49368 0.56214 0.0
H2103 H 0.91293 0.46758 0.556 0.0
H2104 H 0.8071 0.45704 0.52696 0.0
H2105 H 0.85328 0.3973 0.5172 0.0
H2106 H 0.84436 0.50136 0.51057 0.0
H2107 H 0.86081 0.50719 0.53864 0.0
H2108 H 0.82631 0.49955 0.5358 0.0
H2109 H 0.90191 0.42397 0.4949 0.0
H2110 H 0.89882 0.40481 0.51716 0.0
H2111 H 0.91542 0.43616 0.52354 0.0
C2112 C 0.78313 0.90019 0.79929 0.0
C2113 C 0.77696 0.89358 0.82073 0.0
C2114 C 0.76698 0.91355 0.78756 0.0
C2115 C 0.74412 0.9203 0.79747 0.0
C2116 C 0.737 0.91204 0.81829 0.0
C2117 C 0.7535 0.89887 0.82964 0.0
C2118 C 0.77525 0.92186 0.76537 0.0
C2119 C 0.71278 0.91854 0.82943 0.0
C2120 C 0.72093 0.98138 0.78817 0.0
C2121 C 0.6998 0.97339 0.7722 0.0
C2122 C 0.7357 0.96432 0.79606 0.0
C2123 C 0.7293 0.93846 0.78786 0.0
C2124 C 0.70813 0.93021 0.77156 0.0
C2125 C 0.69362 0.94777 0.76391 0.0
C2126 C 0.75803 0.97402 0.81348 0.0
C2127 C 0.70065 0.90284 0.7624 0.0
H2128 H 0.80127 0.89622 0.79239 0.0
H2129 H 0.74854 0.89355 0.84611 0.0
H2130 H 0.75897 0.91823 0.75212 0.0
H2131 H 0.78148 0.94225 0.76864 0.0
H2132 H 0.7914 0.91232 0.75829 0.0
H2133 H 0.70849 0.90834 0.84404 0.0
H2134 H 0.71487 0.93885 0.83611 0.0
H2135 H 0.69616 0.91425 0.81654 0.0
H2136 H 0.72597 1.00111 0.79463 0.0
H2137 H 0.67742 0.94141 0.7515 0.0
H2138 H 0.77591 0.96752 0.80681 0.0
H2139 H 0.75467 0.96658 0.82978 0.0
H2140 H 0.76104 0.99471 0.81754 0.0
H2141 H 0.7173 0.89462 0.75482 0.0
H2142 H 0.68447 0.89949 0.74903 0.0
H2143 H 0.69497 0.89285 0.77682 0.0
C2144 C 0.65121 0.50931 0.99475 0.0
C2145 C 0.62703 0.51757 0.99316 0.0
C2146 C 0.67379 0.52644 0.9993 0.0
C2147 C 0.67222 0.55239 1.00161 0.0
C2148 C 0.6477 0.56067 1.00208 0.0
C2149 C 0.62555 0.54323 0.99808 0.0
C2150 C 0.69937 0.51669 1.00065 0.0
C2151 C 0.64414 0.5878 1.00487 0.0
C2152 C 0.72983 0.60191 0.02132 0.0
C2153 C 0.73986 0.60576 1.00018 0.0
C2154 C 0.70819 0.5843 0.02216 0.0
C2155 C 0.69591 0.57051 1.00131 0.0
C2156 C 0.70611 0.57426 0.97992 0.0
C2157 C 0.72836 0.59129 0.9797 0.0
C2158 C 0.69848 0.58041 0.04534 0.0
C2159 C 0.69345 0.56037 0.95722 0.0
H2160 H 0.65265 0.48951 0.99121 0.0
H2161 H 0.60692 0.54983 0.99761 0.0
H2162 H 0.70906 0.51796 0.98436 0.0
H2163 H 0.71207 0.52805 0.01504 0.0
H2164 H 0.69717 0.4969 1.00324 0.0
H2165 H 0.62808 0.59161 0.01609 0.0
H2166 H 0.66152 0.60044 0.01231 0.0
H2167 H 0.63871 0.59203 0.98758 0.0
H2168 H 0.73913 0.61254 0.03728 0.0
H2169 H 0.73698 0.59305 0.96349 0.0
H2170 H 0.69638 0.56028 0.04667 0.0
H2171 H 0.67923 0.58662 0.04704 0.0
H2172 H 0.71147 0.59088 0.05998 0.0
H2173 H 0.69339 0.54002 0.95646 0.0
H2174 H 0.70331 0.56592 0.9421 0.0
H2175 H 0.67312 0.56386 0.95578 0.0
C2176 C 0.31673 0.63192 0.20525 0.0
C2177 C 0.31676 0.65755 0.20502 0.0
C2178 C 0.29388 0.61631 0.20693 0.0
C2179 C 0.27025 0.62632 0.20771 0.0
C2180 C 0.26991 0.65157 0.20518 0.0
C2181 C 0.29311 0.66693 0.20424 0.0
C2182 C 0.29525 0.58944 0.20931 0.0
C2183 C 0.24548 0.66327 0.20511 0.0
C2184 C 0.21066 0.57818 0.20242 0.0
C2185 C 0.20599 0.57777 0.22572 0.0
C2186 C 0.23065 0.59487 0.19616 0.0
C2187 C 0.24672 0.61099 0.21365 0.0
C2188 C 0.24147 0.61109 0.23718 0.0
C2189 C 0.22136 0.59429 0.24292 0.0
C2190 C 0.23492 0.59496 0.17089 0.0
C2191 C 0.25766 0.62839 0.25637 0.0
H2192 H 0.33477 0.6242 0.2051 0.0
H2193 H 0.29261 0.68664 0.20421 0.0
H2194 H 0.2899 0.58644 0.22687 0.0
H2195 H 0.28136 0.57687 0.19665 0.0
H2196 H 0.31474 0.58404 0.20664 0.0
H2197 H 0.24609 0.6769 0.19292 0.0
H2198 H 0.22833 0.64928 0.20027 0.0
H2199 H 0.2438 0.6737 0.22266 0.0
H2200 H 0.19884 0.56524 0.18913 0.0
H2201 H 0.21819 0.59348 0.26095 0.0
H2202 H 0.25374 0.58867 0.16681 0.0
H2203 H 0.23547 0.61421 0.16703 0.0
H2204 H 0.21967 0.58262 0.1594 0.0
H2205 H 0.27776 0.62413 0.25622 0.0
H2206 H 0.25046 0.62682 0.2737 0.0
H2207 H 0.25786 0.64798 0.25356 0.0
C2208 C 0.96734 0.55761 0.01514 0.0
C2209 C 0.96566 0.54342 0.03313 0.0
C2210 C 0.94719 0.57058 0.00926 0.0
C2211 C 0.92464 0.56945 0.02164 0.0
C2212 C 0.92288 0.55537 0.03999 0.0
C2213 C 0.94344 0.54262 0.04558 0.0
C2214 C 0.95009 0.58559 0.9898 0.0
C2215 C 0.89919 0.55366 0.05363 0.0
C2216 C 0.88292 0.62168 0.02136 0.0
C2217 C 0.86299 0.61078 1.00486 0.0
C2218 C 0.90302 0.60849 0.02691 0.0
C2219 C 0.90329 0.58362 0.01579 0.0
C2220 C 0.8834 0.57256 0.9989 0.0
C2221 C 0.86353 0.58628 0.99359 0.0
C2222 C 0.9239 0.62114 0.04483 0.0
C2223 C 0.88296 0.5461 0.98665 0.0
H2224 H 0.9846 0.55869 1.00566 0.0
H2225 H 0.9419 0.53158 0.05938 0.0
H2226 H 0.93434 0.57895 0.97626 0.0
H2227 H 0.94864 0.60547 0.9964 0.0
H2228 H 0.96872 0.58434 0.9817 0.0
H2229 H 0.90065 0.54174 0.06717 0.0
H2230 H 0.89596 0.57255 0.06205 0.0
H2231 H 0.8821 0.54593 0.04182 0.0
H2232 H 0.88273 0.6406 0.0302 0.0
H2233 H 0.84815 0.57764 0.98094 0.0
H2234 H 0.94288 0.62131 0.03721 0.0
H2235 H 0.9245 0.61058 0.05946 0.0
H2236 H 0.92105 0.64064 0.05174 0.0
H2237 H 0.9008 0.54422 0.97741 0.0
H2238 H 0.86622 0.54018 0.97396 0.0
H2239 H 0.88233 0.53321 0.99948 0.0
C2240 C 0.11402 0.96823 0.05677 0.0
C2241 C 0.12302 0.99362 0.06381 0.0
C2242 C 0.13015 0.95145 0.04642 0.0
C2243 C 0.15606 0.96015 0.04325 0.0
C2244 C 0.16523 0.98576 0.05033 0.0
C2245 C 0.14862 1.00215 0.0604 0.0
C2246 C 0.11947 0.9244 0.03889 0.0
C2247 C 0.19275 0.99583 0.04755 0.0
C2248 C 0.20579 0.91451 0.03748 0.0
C2249 C 0.2096 0.91129 0.01365 0.0
C2250 C 0.18821 0.93002 0.04724 0.0
C2251 C 0.17375 0.94249 0.03287 0.0
C2252 C 0.17691 0.93875 0.00873 0.0
C2253 C 0.19485 0.92336 0.99945 0.0
C2254 C 0.18564 0.9336 0.07307 0.0
C2255 C 0.16168 0.95139 0.99273 0.0
H2256 H 0.09422 0.96151 0.05916 0.0
H2257 H 0.15587 0.02164 0.06608 0.0
H2258 H 0.12195 0.91874 0.02018 0.0
H2259 H 0.13022 0.91248 0.04835 0.0
H2260 H 0.09878 0.92069 0.04205 0.0
H2261 H 0.19689 0.01621 0.05383 0.0
H2262 H 0.20588 0.98619 0.05729 0.0
H2263 H 0.19714 0.99208 0.02908 0.0
H2264 H 0.21709 0.90544 0.04869 0.0
H2265 H 0.19746 0.92095 0.98103 0.0
H2266 H 0.16533 0.9288 0.07689 0.0
H2267 H 0.19142 0.95348 0.08065 0.0
H2268 H 0.19765 0.92201 0.08178 0.0
H2269 H 0.14085 0.9472 0.995 0.0
H2270 H 0.16525 0.94547 0.97425 0.0
H2271 H 0.16676 0.9719 0.99712 0.0
loop_
_geom_bond_atom_site_label_1
_geom_bond_atom_site_label_2
_geom_bond_distance
_geom_bond_site_symmetry_2
_ccdc_geom_bond_type
H0 C1 0.949 . S
C1 H0 0.949 . S
C1 C2 1.395 . S
C1 C3 1.391 . S
C2 C1 1.395 . S
C2 C5 1.400 . S
C3 C1 1.391 . S
C3 C7 1.387 . S
C3 C8 1.491 . S
H4 C5 0.917 1_565 S
C5 C2 1.400 . S
C5 H4 0.917 1_545 S
C5 C6 1.402 . S
C6 C5 1.402 . S
C6 C7 1.409 . S
C7 C3 1.387 . S
C7 C6 1.409 . S
C7 H9 0.951 . S
C8 C3 1.491 . S
C8 C10 1.382 . S
C8 C12 1.404 . S
H9 C7 0.951 . S
C10 C8 1.382 . S
C10 C11 1.390 1_554 S
C10 H15 0.949 1_554 S
C11 C10 1.390 1_556 S
C11 C16 1.399 1_556 S
C12 C8 1.404 . S
C12 H13 0.950 . S
C12 C14 1.375 . S
H13 C12 0.950 . S
C14 C12 1.375 . S
C14 C16 1.382 . S
C14 H18 0.950 . S
H15 C10 0.949 1_556 S
C16 C11 1.399 1_554 S
C16 C14 1.382 . S
C16 H17 0.952 1_554 S
H17 C16 0.952 1_556 S
H18 C14 0.950 . S
H19 C20 0.949 . S
C20 H19 0.949 . S
C20 C21 1.395 . S
C20 C22 1.391 . S
C21 C20 1.395 . S
C21 C24 1.390 . S
C22 C20 1.391 . S
C22 C26 1.387 . S
C22 C27 1.491 . S
H23 C24 0.950 . S
C24 C21 1.390 . S
C24 H23 0.950 . S
C24 C25 1.378 . S
C25 C24 1.378 . S
C25 C26 1.409 . S
C26 C22 1.387 . S
C26 C25 1.409 . S
C26 H28 0.951 . S
C27 C22 1.491 . S
C27 C29 1.382 . S
C27 C31 1.404 . S
H28 C26 0.951 . S
C29 C27 1.382 . S
C29 C30 1.390 . S
C29 H34 0.949 . S
C30 C29 1.390 . S
C30 C35 1.399 . S
C31 C27 1.404 . S
C31 H32 0.950 . S
C31 C33 1.375 . S
H32 C31 0.950 . S
C33 C31 1.375 . S
C33 C35 1.382 . S
C33 H37 0.950 . S
H34 C29 0.949 . S
C35 C30 1.399 . S
C35 C33 1.382 . S
C35 H36 0.952 . S
H36 C35 0.952 . S
H37 C33 0.950 . S
H38 C39 0.949 . S
C39 H38 0.949 . S
C39 C40 1.395 . S
C39 C41 1.391 1_455 S
C40 C39 1.395 . S
C40 C43 1.390 1_455 S
C41 C39 1.391 1_655 S
C41 C45 1.387 . S
C41 C46 1.491 1_554 S
H42 C43 0.950 . S
C43 C40 1.390 1_655 S
C43 H42 0.950 . S
C43 C44 1.378 . S
C44 C43 1.378 . S
C44 C45 1.409 . S
C45 C41 1.387 . S
C45 C44 1.409 . S
C45 H47 0.951 1_554 S
C46 C41 1.491 1_556 S
C46 C48 1.382 1_655 S
C46 C50 1.404 . S
H47 C45 0.951 1_556 S
C48 C46 1.382 1_455 S
C48 C49 1.390 . S
C48 H53 0.949 1_556 S
C49 C48 1.390 . S
C49 C54 1.399 . S
C50 C46 1.404 . S
C50 H51 0.952 . S
C50 C52 1.373 1_655 S
H51 C50 0.952 . S
C52 C50 1.373 1_455 S
C52 C54 1.382 . S
C52 H56 0.950 . S
H53 C48 0.949 1_554 S
C54 C49 1.399 . S
C54 C52 1.382 . S
C54 H55 0.952 . S
H55 C54 0.952 . S
H56 C52 0.950 . S
H57 C58 0.949 . S
C58 H57 0.949 . S
C58 C59 1.395 . S
C58 C60 1.391 . S
C59 C58 1.395 . S
C59 C62 1.390 . S
C60 C58 1.391 . S
C60 C64 1.387 . S
C60 C65 1.491 . S
H61 C62 0.950 . S
C62 C59 1.390 . S
C62 H61 0.950 . S
C62 C63 1.378 . S
C63 C62 1.378 . S
C63 C64 1.409 . S
C64 C60 1.387 . S
C64 C63 1.409 . S
C64 H66 0.951 . S
C65 C60 1.491 . S
C65 C67 1.382 . S
C65 C69 1.404 . S
H66 C64 0.951 . S
C67 C65 1.382 . S
C67 C68 1.390 . S
C67 H72 0.949 . S
C68 C67 1.390 . S
C68 C73 1.399 . S
C69 C65 1.404 . S
C69 H70 0.950 . S
C69 C71 1.375 . S
H70 C69 0.950 . S
C71 C69 1.375 . S
C71 C73 1.382 . S
C71 H75 0.950 . S
H72 C67 0.949 . S
C73 C68 1.399 . S
C73 C71 1.382 . S
C73 H74 0.952 . S
H74 C73 0.952 . S
H75 C71 0.950 . S
H76 C77 0.949 . S
C77 H76 0.949 . S
C77 C78 1.395 . S
C77 C79 1.391 . S
C78 C77 1.395 . S
C78 C81 1.390 . S
C79 C77 1.391 . S
C79 C83 1.387 . S
C79 C84 1.491 . S
H80 C81 0.950 1_545 S
C81 C78 1.390 . S
C81 H80 0.950 1_565 S
C81 C82 1.378 . S
C82 C81 1.378 . S
C82 C83 1.409 . S
C83 C79 1.387 . S
C83 C82 1.409 . S
C83 H85 0.951 . S
C84 C79 1.491 . S
C84 C86 1.382 . S
C84 C88 1.404 . S
H85 C83 0.951 . S
C86 C84 1.382 . S
C86 C87 1.390 . S
C86 H91 0.949 . S
C87 C86 1.390 . S
C87 C92 1.399 . S
C88 C84 1.404 . S
C88 H89 0.950 . S
C88 C90 1.375 . S
H89 C88 0.950 . S
C90 C88 1.375 . S
C90 C92 1.382 . S
C90 H94 0.950 . S
H91 C86 0.949 . S
C92 C87 1.399 . S
C92 C90 1.382 . S
C92 H93 0.952 . S
H93 C92 0.952 . S
H94 C90 0.950 . S
H95 C96 0.949 . S
C96 H95 0.949 . S
C96 C97 1.395 . S
C96 C98 1.391 . S
C97 C96 1.395 . S
C97 C100 1.390 . S
C98 C96 1.391 . S
C98 C102 1.387 . S
C98 C103 1.491 . S
H99 C100 0.950 . S
C100 C97 1.390 . S
C100 H99 0.950 . S
C100 C101 1.378 . S
C101 C100 1.378 . S
C101 C102 1.409 . S
C102 C98 1.387 . S
C102 C101 1.409 . S
C102 H104 0.951 . S
C103 C98 1.491 . S
C103 C105 1.382 . S
C103 C107 1.404 . S
H104 C102 0.951 . S
C105 C103 1.382 . S
C105 C106 1.390 . S
C105 H110 0.949 . S
C106 C105 1.390 . S
C106 C111 1.399 . S
C107 C103 1.404 . S
C107 H108 0.950 . S
C107 C109 1.375 . S
H108 C107 0.950 . S
C109 C107 1.375 . S
C109 C111 1.382 . S
C109 H113 0.950 . S
H110 C105 0.949 . S
C111 C106 1.399 . S
C111 C109 1.382 . S
C111 H112 0.952 . S
H112 C111 0.952 . S
H113 C109 0.950 . S
H114 C115 0.949 1_455 S
C115 H114 0.949 1_655 S
C115 C116 1.395 . S
C115 C117 1.391 . S
C116 C115 1.395 . S
C116 C119 1.390 . S
C117 C115 1.391 . S
C117 C121 1.387 . S
C117 C122 1.491 . S
H118 C119 0.950 . S
C119 C116 1.390 . S
C119 H118 0.950 . S
C119 C120 1.378 . S
C120 C119 1.378 . S
C120 C121 1.409 . S
C121 C117 1.387 . S
C121 C120 1.409 . S
C121 H123 0.951 . S
C122 C117 1.491 . S
C122 C124 1.382 1_655 S
C122 C126 1.404 . S
H123 C121 0.951 . S
C124 C122 1.382 1_455 S
C124 C125 1.390 . S
C124 H129 0.949 . S
C125 C124 1.390 . S
C125 C130 1.399 . S
C126 C122 1.404 . S
C126 H127 0.950 . S
C126 C128 1.375 . S
H127 C126 0.950 . S
C128 C126 1.375 . S
C128 C130 1.382 1_655 S
C128 H132 0.950 . S
H129 C124 0.949 . S
C130 C125 1.399 . S
C130 C128 1.382 1_455 S
C130 H131 0.952 . S
H131 C130 0.952 . S
H132 C128 0.950 . S
H133 C134 0.949 . S
C134 H133 0.949 . S
C134 C135 1.395 . S
C134 C136 1.391 . S
C135 C134 1.395 . S
C135 C138 1.390 . S
C136 C134 1.391 . S
C136 C140 1.387 . S
C136 C141 1.491 . S
H137 C138 0.950 . S
C138 C135 1.390 . S
C138 H137 0.950 . S
C138 C139 1.378 . S
C139 C138 1.378 . S
C139 C140 1.409 . S
C140 C136 1.387 . S
C140 C139 1.409 . S
C140 H142 0.951 . S
C141 C136 1.491 . S
C141 C143 1.382 . S
C141 C145 1.404 . S
H142 C140 0.951 . S
C143 C141 1.382 . S
C143 C144 1.390 . S
C143 H148 0.949 . S
C144 C143 1.390 . S
C144 C149 1.399 . S
C145 C141 1.404 . S
C145 H146 0.950 . S
C145 C147 1.375 . S
H146 C145 0.950 . S
C147 C145 1.375 . S
C147 C149 1.382 . S
C147 H151 0.950 . S
H148 C143 0.949 . S
C149 C144 1.399 . S
C149 C147 1.382 . S
C149 H150 0.952 . S
H150 C149 0.952 . S
H151 C147 0.950 . S
H152 C153 0.949 . S
C153 H152 0.949 . S
C153 C154 1.395 . S
C153 C155 1.391 . S
C154 C153 1.395 . S
C154 C157 1.390 . S
C155 C153 1.391 . S
C155 C159 1.387 . S
C155 C160 1.491 . S
H156 C157 0.950 . S
C157 C154 1.390 . S
C157 H156 0.950 . S
C157 C158 1.378 . S
C158 C157 1.378 . S
C158 C159 1.409 . S
C159 C155 1.387 . S
C159 C158 1.409 . S
C159 H161 0.951 . S
C160 C155 1.491 . S
C160 C162 1.382 . S
C160 C164 1.404 . S
H161 C159 0.951 . S
C162 C160 1.382 . S
C162 C163 1.390 . S
C162 H167 0.949 . S
C163 C162 1.390 . S
C163 C168 1.399 . S
C164 C160 1.404 . S
C164 H165 0.950 . S
C164 C166 1.375 . S
H165 C164 0.950 . S
C166 C164 1.375 . S
C166 C168 1.382 . S
C166 H170 0.950 . S
H167 C162 0.949 . S
C168 C163 1.399 . S
C168 C166 1.382 . S
C168 H169 0.952 . S
H169 C168 0.952 . S
H170 C166 0.950 . S
H171 C172 0.949 . S
C172 H171 0.949 . S
C172 C173 1.395 . S
C172 C174 1.391 . S
C173 C172 1.395 . S
C173 C176 1.390 1_565 S
C174 C172 1.391 . S
C174 C178 1.387 . S
C174 C179 1.491 . S
H175 C176 0.950 . S
C176 C173 1.390 1_545 S
C176 H175 0.950 . S
C176 C177 1.378 . S
C177 C176 1.378 . S
C177 C178 1.409 1_545 S
C178 C174 1.387 . S
C178 C177 1.409 1_565 S
C178 H180 0.951 . S
C179 C174 1.491 . S
C179 C181 1.382 . S
C179 C183 1.404 . S
H180 C178 0.951 . S
C181 C179 1.382 . S
C181 C182 1.390 . S
C181 H186 0.949 . S
C182 C181 1.390 . S
C182 C187 1.399 . S
C183 C179 1.404 . S
C183 H184 0.950 . S
C183 C185 1.375 . S
H184 C183 0.950 . S
C185 C183 1.375 . S
C185 C187 1.382 . S
C185 H189 0.950 . S
H186 C181 0.949 . S
C187 C182 1.399 . S
C187 C185 1.382 . S
C187 H188 0.952 . S
H188 C187 0.952 . S
H189 C185 0.950 . S
H190 C191 0.949 . S
C191 H190 0.949 . S
C191 C192 1.395 . S
C191 C193 1.391 . S
C192 C191 1.395 . S
C192 C195 1.390 . S
C193 C191 1.391 . S
C193 C197 1.387 . S
C193 C198 1.491 . S
H194 C195 0.950 . S
C195 C192 1.390 . S
C195 H194 0.950 . S
C195 C196 1.378 . S
C196 C195 1.378 . S
C196 C197 1.409 . S
C197 C193 1.387 . S
C197 C196 1.409 . S
C197 H199 0.951 . S
C198 C193 1.491 . S
C198 C200 1.382 . S
C198 C202 1.404 . S
H199 C197 0.951 . S
C200 C198 1.382 . S
C200 C201 1.390 . S
C200 H205 0.949 . S
C201 C200 1.390 . S
C201 C206 1.399 . S
C202 C198 1.404 . S
C202 H203 0.950 . S
C202 C204 1.375 . S
H203 C202 0.950 . S
C204 C202 1.375 . S
C204 C206 1.382 . S
C204 H208 0.950 . S
H205 C200 0.949 . S
C206 C201 1.399 . S
C206 C204 1.382 . S
C206 H207 0.952 . S
H207 C206 0.952 . S
H208 C204 0.950 . S
H209 C210 0.949 . S
C210 H209 0.949 . S
C210 C211 1.395 . S
C210 C212 1.391 . S
C211 C210 1.395 . S
C211 C214 1.390 . S
C212 C210 1.391 . S
C212 C216 1.387 . S
C212 C217 1.491 . S
H213 C214 0.950 . S
C214 C211 1.390 . S
C214 H213 0.950 . S
C214 C215 1.378 . S
C215 C214 1.378 . S
C215 C216 1.409 . S
C216 C212 1.387 . S
C216 C215 1.409 . S
C216 H218 0.951 . S
C217 C212 1.491 . S
C217 C219 1.382 . S
C217 C221 1.404 . S
H218 C216 0.951 . S
C219 C217 1.382 . S
C219 C220 1.390 . S
C219 H224 0.949 . S
C220 C219 1.390 . S
C220 C225 1.399 . S
C221 C217 1.404 . S
C221 H222 0.950 . S
C221 C223 1.375 . S
H222 C221 0.950 . S
C223 C221 1.375 . S
C223 C225 1.382 . S
C223 H227 0.950 . S
H224 C219 0.949 . S
C225 C220 1.399 . S
C225 C223 1.382 . S
C225 H226 0.952 . S
H226 C225 0.952 . S
H227 C223 0.950 . S
H228 C229 0.949 . S
C229 H228 0.949 . S
C229 C230 1.395 . S
C229 C231 1.391 . S
C230 C229 1.395 . S
C230 C233 1.390 . S
C231 C229 1.391 . S
C231 C235 1.387 . S
C231 C236 1.491 . S
H232 C233 0.950 . S
C233 C230 1.390 . S
C233 H232 0.950 . S
C233 C234 1.378 . S
C234 C233 1.378 . S
C234 C235 1.409 . S
C235 C231 1.387 . S
C235 C234 1.409 . S
C235 H237 0.951 . S
C236 C231 1.491 . S
C236 C238 1.382 . S
C236 C240 1.404 . S
H237 C235 0.951 . S
C238 C236 1.382 . S
C238 C239 1.390 . S
C238 H243 0.949 . S
C239 C238 1.390 . S
C239 C244 1.399 . S
C240 C236 1.404 . S
C240 H241 0.950 . S
C240 C242 1.375 . S
H241 C240 0.950 . S
C242 C240 1.375 . S
C242 C244 1.382 . S
C242 H246 0.950 . S
H243 C238 0.949 . S
C244 C239 1.399 . S
C244 C242 1.382 . S
C244 H245 0.952 . S
H245 C244 0.952 . S
H246 C242 0.950 . S
H247 C248 0.949 1_554 S
C248 H247 0.949 1_556 S
C248 C249 1.395 . S
C248 C250 1.391 . S
C249 C248 1.395 . S
C249 C252 1.390 . S
C250 C248 1.391 . S
C250 C254 1.387 . S
C250 C255 1.491 . S
H251 C252 0.950 . S
C252 C249 1.390 . S
C252 H251 0.950 . S
C252 C253 1.378 . S
C253 C252 1.378 . S
C253 C254 1.409 . S
C254 C250 1.387 . S
C254 C253 1.409 . S
C254 H256 0.951 . S
C255 C250 1.491 . S
C255 C257 1.382 1_556 S
C255 C259 1.404 . S
H256 C254 0.951 . S
C257 C255 1.382 1_554 S
C257 C258 1.390 . S
C257 H262 0.949 . S
C258 C257 1.390 . S
C258 C263 1.399 . S
C259 C255 1.404 . S
C259 H260 0.950 . S
C259 C261 1.375 . S
H260 C259 0.950 . S
C261 C259 1.375 . S
C261 C263 1.382 1_556 S
C261 H265 0.950 . S
H262 C257 0.949 . S
C263 C258 1.399 . S
C263 C261 1.382 1_554 S
C263 H264 0.952 . S
H264 C263 0.952 . S
H265 C261 0.950 . S
H266 C267 0.949 . S
C267 H266 0.949 . S
C267 C268 1.395 . S
C267 C269 1.391 . S
C268 C267 1.395 . S
C268 C271 1.390 . S
C269 C267 1.391 . S
C269 C273 1.387 . S
C269 C274 1.491 . S
H270 C271 0.950 . S
C271 C268 1.390 . S
C271 H270 0.950 . S
C271 C272 1.378 . S
C272 C271 1.378 . S
C272 C273 1.409 . S
C273 C269 1.387 . S
C273 C272 1.409 . S
C273 H275 0.951 . S
C274 C269 1.491 . S
C274 C276 1.382 . S
C274 C278 1.404 . S
H275 C273 0.951 . S
C276 C274 1.382 . S
C276 C277 1.390 . S
C276 H281 0.949 . S
C277 C276 1.390 . S
C277 C282 1.399 . S
C278 C274 1.404 . S
C278 H279 0.950 . S
C278 C280 1.375 . S
H279 C278 0.950 . S
C280 C278 1.375 . S
C280 C282 1.382 . S
C280 H284 0.950 . S
H281 C276 0.949 . S
C282 C277 1.399 . S
C282 C280 1.382 . S
C282 H283 0.952 . S
H283 C282 0.952 . S
H284 C280 0.950 . S
H285 C286 0.949 . S
C286 H285 0.949 . S
C286 C287 1.395 . S
C286 C288 1.391 . S
C287 C286 1.395 . S
C287 C290 1.390 . S
C288 C286 1.391 . S
C288 C292 1.387 . S
C288 C293 1.491 . S
H289 C290 0.950 1_554 S
C290 C287 1.390 . S
C290 H289 0.950 1_556 S
C290 C291 1.378 . S
C291 C290 1.378 . S
C291 C292 1.409 . S
C292 C288 1.387 . S
C292 C291 1.409 . S
C292 H294 0.951 . S
C293 C288 1.491 . S
C293 C295 1.382 . S
C293 C297 1.404 . S
H294 C292 0.951 . S
C295 C293 1.382 . S
C295 C296 1.390 . S
C295 H300 0.949 . S
C296 C295 1.390 . S
C296 C301 1.399 . S
C297 C293 1.404 . S
C297 H298 0.950 . S
C297 C299 1.375 . S
H298 C297 0.950 . S
C299 C297 1.375 . S
C299 C301 1.382 . S
C299 H303 0.950 . S
H300 C295 0.949 . S
C301 C296 1.399 . S
C301 C299 1.382 . S
C301 H302 0.952 . S
H302 C301 0.952 . S
H303 C299 0.950 . S
Mn304 O309 2.095 . S
Mn304 O319 2.162 . S
Mn304 O320 2.297 . S
Mn304 O328 2.385 . S
Mn304 O329 2.209 . S
Mn304 O330 2.094 . S
Mn305 O310 2.121 1_556 S
Mn305 N312 2.257 . S
Mn305 N321 2.282 . S
Mn305 O329 2.215 1_556 S
Mn305 O331 2.117 1_556 S
C306 O328 1.234 . S
C306 O329 1.283 . S
C307 O319 1.281 . S
C307 O320 1.236 . S
C308 O330 1.240 . S
C308 O331 1.264 . S
O309 Mn304 2.095 . S
O309 C318 1.250 . S
O310 Mn305 2.121 1_554 S
O310 C318 1.258 . S
C311 N312 1.326 . S
C311 C315 1.460 . S
C311 H317 0.929 . S
N312 Mn305 2.257 . S
N312 C311 1.326 . S
N312 C316 1.362 . S
C313 C314 1.258 . S
C313 C316 1.431 . S
C313 C333 1.449 . S
C314 C313 1.258 . S
C314 C315 1.477 . S
C314 H334 0.931 . S
C315 C311 1.460 . S
C315 C314 1.477 . S
C315 H335 0.930 . S
C316 N312 1.362 . S
C316 C313 1.431 . S
C316 C326 1.476 . S
H317 C311 0.929 . S
C318 O309 1.250 . S
C318 O310 1.258 . S
O319 Mn304 2.162 . S
O319 C307 1.281 . S
O320 Mn304 2.297 . S
O320 C307 1.236 . S
N321 Mn305 2.282 . S
N321 C322 1.328 . S
N321 C326 1.318 . S
C322 N321 1.328 . S
C322 C323 1.457 . S
C322 H327 0.929 . S
C323 C322 1.457 . S
C323 C324 1.291 . S
C323 H336 0.931 . S
C324 C323 1.291 . S
C324 C325 1.373 . S
C324 H337 0.929 . S
C325 C324 1.373 . S
C325 C326 1.396 . S
C325 C332 1.403 . S
C326 C316 1.476 . S
C326 N321 1.318 . S
C326 C325 1.396 . S
H327 C322 0.929 . S
O328 Mn304 2.385 . S
O328 C306 1.234 . S
O329 Mn304 2.209 . S
O329 Mn305 2.215 1_554 S
O329 C306 1.283 . S
O330 Mn304 2.094 . S
O330 C308 1.240 . S
O331 Mn305 2.117 1_554 S
O331 C308 1.264 . S
C332 C325 1.403 . S
C332 C333 1.399 . S
C332 H338 0.929 . S
C333 C313 1.449 . S
C333 C332 1.399 . S
C333 H339 0.930 . S
H334 C314 0.931 . S
H335 C315 0.930 . S
H336 C323 0.931 . S
H337 C324 0.929 . S
H338 C332 0.929 . S
H339 C333 0.930 . S
Mn340 O345 2.095 . S
Mn340 O355 2.162 . S
Mn340 O356 2.297 . S
Mn340 O364 2.385 . S
Mn340 O365 2.209 . S
Mn340 O366 2.094 . S
Mn341 O346 2.121 . S
Mn341 N348 2.257 . S
Mn341 N357 2.282 . S
Mn341 O365 2.215 . S
Mn341 O367 2.117 . S
C342 O364 1.234 . S
C342 O365 1.283 . S
C343 O355 1.281 . S
C343 O356 1.236 . S
C344 O366 1.240 . S
C344 O367 1.264 . S
O345 Mn340 2.095 . S
O345 C354 1.250 . S
O346 Mn341 2.121 . S
O346 C354 1.258 . S
C347 N348 1.326 . S
C347 C351 1.460 . S
C347 H353 0.929 . S
N348 Mn341 2.257 . S
N348 C347 1.326 . S
N348 C352 1.362 . S
C349 C350 1.258 . S
C349 C352 1.431 . S
C349 C369 1.449 . S
C350 C349 1.258 . S
C350 C351 1.477 . S
C350 H370 0.931 . S
C351 C347 1.460 . S
C351 C350 1.477 . S
C351 H371 0.930 . S
C352 N348 1.362 . S
C352 C349 1.431 . S
C352 C362 1.476 . S
H353 C347 0.929 . S
C354 O345 1.250 . S
C354 O346 1.258 . S
O355 Mn340 2.162 . S
O355 C343 1.281 . S
O356 Mn340 2.297 . S
O356 C343 1.236 . S
N357 Mn341 2.282 . S
N357 C358 1.328 . S
N357 C362 1.318 . S
C358 N357 1.328 . S
C358 C359 1.457 . S
C358 H363 0.929 . S
C359 C358 1.457 . S
C359 C360 1.291 . S
C359 H372 0.931 . S
C360 C359 1.291 . S
C360 C361 1.373 . S
C360 H373 0.929 . S
C361 C360 1.373 . S
C361 C362 1.396 . S
C361 C368 1.403 . S
C362 C352 1.476 . S
C362 N357 1.318 . S
C362 C361 1.396 . S
H363 C358 0.929 . S
O364 Mn340 2.385 . S
O364 C342 1.234 . S
O365 Mn340 2.209 . S
O365 Mn341 2.215 . S
O365 C342 1.283 . S
O366 Mn340 2.094 . S
O366 C344 1.240 . S
O367 Mn341 2.117 . S
O367 C344 1.264 . S
C368 C361 1.403 . S
C368 C369 1.399 . S
C368 H374 0.929 . S
C369 C349 1.449 . S
C369 C368 1.399 . S
C369 H375 0.930 . S
H370 C350 0.931 . S
H371 C351 0.930 . S
H372 C359 0.931 . S
H373 C360 0.929 . S
H374 C368 0.929 . S
H375 C369 0.930 . S
Mn376 O381 2.095 1_554 S
Mn376 O391 2.162 . S
Mn376 O392 2.297 1_554 S
Mn376 O400 2.385 . S
Mn376 O401 2.209 1_554 S
Mn376 O402 2.094 . S
Mn377 O382 2.121 . S
Mn377 N384 2.257 . S
Mn377 N393 2.282 1_556 S
Mn377 O401 2.215 . S
Mn377 O403 2.117 1_556 S
C378 O400 1.256 . S
C378 O401 1.264 1_554 S
C379 O391 1.258 1_556 S
C379 O392 1.257 . S
C380 O402 1.240 . S
C380 O403 1.264 . S
O381 Mn376 2.095 1_556 S
O381 C390 1.250 . S
O382 Mn377 2.121 . S
O382 C390 1.258 . S
C383 N384 1.326 . S
C383 C387 1.460 . S
C383 H389 0.929 . S
N384 Mn377 2.257 . S
N384 C383 1.326 . S
N384 C388 1.362 . S
C385 C386 1.258 . S
C385 C388 1.431 . S
C385 C405 1.449 . S
C386 C385 1.258 . S
C386 C387 1.477 . S
C386 H406 0.931 . S
C387 C383 1.460 . S
C387 C386 1.477 . S
C387 H407 0.930 . S
C388 N384 1.362 . S
C388 C385 1.431 . S
C388 C398 1.476 . S
H389 C383 0.929 . S
C390 O381 1.250 . S
C390 O382 1.258 . S
O391 Mn376 2.162 . S
O391 C379 1.258 1_554 S
O392 Mn376 2.297 1_556 S
O392 C379 1.257 . S
N393 Mn377 2.282 1_554 S
N393 C394 1.328 . S
N393 C398 1.318 1_554 S
C394 N393 1.328 . S
C394 C395 1.457 . S
C394 H399 0.929 . S
C395 C394 1.457 . S
C395 C396 1.291 . S
C395 H408 0.931 . S
C396 C395 1.291 . S
C396 C397 1.373 1_554 S
C396 H409 0.929 . S
C397 C396 1.373 1_556 S
C397 C398 1.396 . S
C397 C404 1.403 . S
C398 C388 1.476 . S
C398 N393 1.318 1_556 S
C398 C397 1.396 . S
H399 C394 0.929 . S
O400 Mn376 2.385 . S
O400 C378 1.256 . S
O401 Mn376 2.209 1_556 S
O401 Mn377 2.215 . S
O401 C378 1.264 1_556 S
O402 Mn376 2.094 . S
O402 C380 1.240 . S
O403 Mn377 2.117 1_554 S
O403 C380 1.264 . S
C404 C397 1.403 . S
C404 C405 1.399 . S
C404 H410 0.929 . S
C405 C385 1.449 . S
C405 C404 1.399 . S
C405 H411 0.930 . S
H406 C386 0.931 . S
H407 C387 0.930 . S
H408 C395 0.931 . S
H409 C396 0.929 . S
H410 C404 0.929 . S
H411 C405 0.930 . S
Mn412 O417 2.095 . S
Mn412 O427 2.162 . S
Mn412 O428 2.297 . S
Mn412 O436 2.385 . S
Mn412 O437 2.209 1_545 S
Mn412 O438 2.094 . S
Mn413 O418 2.121 . S
Mn413 N420 2.257 . S
Mn413 N429 2.282 . S
Mn413 O437 2.215 . S
Mn413 O439 2.117 1_565 S
C414 O436 1.234 1_565 S
C414 O437 1.283 . S
C415 O427 1.281 . S
C415 O428 1.236 . S
C416 O438 1.240 . S
C416 O439 1.264 . S
O417 Mn412 2.095 . S
O417 C426 1.250 . S
O418 Mn413 2.121 . S
O418 C426 1.258 1_565 S
C419 N420 1.326 . S
C419 C423 1.460 . S
C419 H425 0.929 . S
N420 Mn413 2.257 . S
N420 C419 1.326 . S
N420 C424 1.362 . S
C421 C422 1.258 . S
C421 C424 1.431 . S
C421 C441 1.449 . S
C422 C421 1.258 . S
C422 C423 1.477 . S
C422 H442 0.931 . S
C423 C419 1.460 . S
C423 C422 1.477 . S
C423 H443 0.930 . S
C424 N420 1.362 . S
C424 C421 1.431 . S
C424 C434 1.476 . S
H425 C419 0.929 . S
C426 O417 1.250 . S
C426 O418 1.258 1_545 S
O427 Mn412 2.162 . S
O427 C415 1.281 . S
O428 Mn412 2.297 . S
O428 C415 1.236 . S
N429 Mn413 2.282 . S
N429 C430 1.328 . S
N429 C434 1.318 . S
C430 N429 1.328 . S
C430 C431 1.457 . S
C430 H435 0.929 . S
C431 C430 1.457 . S
C431 C432 1.291 . S
C431 H444 0.931 . S
C432 C431 1.291 . S
C432 C433 1.373 . S
C432 H445 0.929 . S
C433 C432 1.373 . S
C433 C434 1.396 . S
C433 C440 1.403 . S
C434 C424 1.476 . S
C434 N429 1.318 . S
C434 C433 1.396 . S
H435 C430 0.929 . S
O436 Mn412 2.385 . S
O436 C414 1.234 1_545 S
O437 Mn412 2.209 1_565 S
O437 Mn413 2.215 . S
O437 C414 1.283 . S
O438 Mn412 2.094 . S
O438 C416 1.240 . S
O439 Mn413 2.117 1_545 S
O439 C416 1.264 . S
C440 C433 1.403 . S
C440 C441 1.399 . S
C440 H446 0.929 . S
C441 C421 1.449 . S
C441 C440 1.399 . S
C441 H447 0.930 . S
H442 C422 0.931 . S
H443 C423 0.930 . S
H444 C431 0.931 . S
H445 C432 0.929 . S
H446 C440 0.929 . S
H447 C441 0.930 . S
Mn448 O453 2.095 . S
Mn448 O463 2.162 . S
Mn448 O464 2.297 . S
Mn448 O472 2.385 . S
Mn448 O473 2.209 . S
Mn448 O474 2.094 . S
Mn449 O454 2.121 . S
Mn449 N456 2.257 . S
Mn449 N465 2.282 . S
Mn449 O473 2.215 . S
Mn449 O475 2.117 . S
C450 O472 1.234 . S
C450 O473 1.283 . S
C451 O463 1.281 . S
C451 O464 1.236 . S
C452 O474 1.240 . S
C452 O475 1.264 . S
O453 Mn448 2.095 . S
O453 C462 1.250 . S
O454 Mn449 2.121 . S
O454 C462 1.258 . S
C455 N456 1.326 . S
C455 C459 1.460 . S
C455 H461 0.929 . S
N456 Mn449 2.257 . S
N456 C455 1.326 . S
N456 C460 1.362 . S
C457 C458 1.258 . S
C457 C460 1.431 . S
C457 C477 1.449 . S
C458 C457 1.258 . S
C458 C459 1.477 . S
C458 H478 0.931 . S
C459 C455 1.460 . S
C459 C458 1.477 . S
C459 H479 0.930 . S
C460 N456 1.362 . S
C460 C457 1.431 . S
C460 C470 1.476 . S
H461 C455 0.929 . S
C462 O453 1.250 . S
C462 O454 1.258 . S
O463 Mn448 2.162 . S
O463 C451 1.281 . S
O464 Mn448 2.297 . S
O464 C451 1.236 . S
N465 Mn449 2.282 . S
N465 C466 1.328 . S
N465 C470 1.318 . S
C466 N465 1.328 . S
C466 C467 1.457 . S
C466 H471 0.929 . S
C467 C466 1.457 . S
C467 C468 1.291 . S
C467 H480 0.931 . S
C468 C467 1.291 . S
C468 C469 1.373 . S
C468 H481 0.929 . S
C469 C468 1.373 . S
C469 C470 1.396 . S
C469 C476 1.403 . S
C470 C460 1.476 . S
C470 N465 1.318 . S
C470 C469 1.396 . S
H471 C466 0.929 . S
O472 Mn448 2.385 . S
O472 C450 1.234 . S
O473 Mn448 2.209 . S
O473 Mn449 2.215 . S
O473 C450 1.283 . S
O474 Mn448 2.094 . S
O474 C452 1.240 . S
O475 Mn449 2.117 . S
O475 C452 1.264 . S
C476 C469 1.403 . S
C476 C477 1.399 . S
C476 H482 0.929 . S
C477 C457 1.449 . S
C477 C476 1.399 . S
C477 H483 0.930 . S
H478 C458 0.931 . S
H479 C459 0.930 . S
H480 C467 0.931 . S
H481 C468 0.929 . S
H482 C476 0.929 . S
H483 C477 0.930 . S
Mn484 O489 2.095 . S
Mn484 O499 2.162 . S
Mn484 O500 2.297 . S
Mn484 O508 2.385 . S
Mn484 O509 2.209 . S
Mn484 O510 2.094 . S
Mn485 O490 2.121 . S
Mn485 N492 2.257 . S
Mn485 N501 2.282 . S
Mn485 O509 2.215 . S
Mn485 O511 2.117 . S
C486 O508 1.234 . S
C486 O509 1.283 . S
C487 O499 1.281 . S
C487 O500 1.236 . S
C488 O510 1.240 . S
C488 O511 1.264 . S
O489 Mn484 2.095 . S
O489 C498 1.250 . S
O490 Mn485 2.121 . S
O490 C498 1.258 . S
C491 N492 1.326 . S
C491 C495 1.460 . S
C491 H497 0.929 . S
N492 Mn485 2.257 . S
N492 C491 1.326 . S
N492 C496 1.362 . S
C493 C494 1.258 . S
C493 C496 1.431 . S
C493 C513 1.449 . S
C494 C493 1.258 . S
C494 C495 1.477 . S
C494 H514 0.931 . S
C495 C491 1.460 . S
C495 C494 1.477 . S
C495 H515 0.930 . S
C496 N492 1.362 . S
C496 C493 1.431 . S
C496 C506 1.476 . S
H497 C491 0.929 . S
C498 O489 1.250 . S
C498 O490 1.258 . S
O499 Mn484 2.162 . S
O499 C487 1.281 . S
O500 Mn484 2.297 . S
O500 C487 1.236 . S
N501 Mn485 2.282 . S
N501 C502 1.328 . S
N501 C506 1.318 . S
C502 N501 1.328 . S
C502 C503 1.457 . S
C502 H507 0.929 . S
C503 C502 1.457 . S
C503 C504 1.291 . S
C503 H516 0.931 . S
C504 C503 1.291 . S
C504 C505 1.373 . S
C504 H517 0.929 . S
C505 C504 1.373 . S
C505 C506 1.396 . S
C505 C512 1.403 . S
C506 C496 1.476 . S
C506 N501 1.318 . S
C506 C505 1.396 . S
H507 C502 0.929 . S
O508 Mn484 2.385 . S
O508 C486 1.234 . S
O509 Mn484 2.209 . S
O509 Mn485 2.215 . S
O509 C486 1.283 . S
O510 Mn484 2.094 . S
O510 C488 1.240 . S
O511 Mn485 2.117 . S
O511 C488 1.264 . S
C512 C505 1.403 . S
C512 C513 1.399 . S
C512 H518 0.929 . S
C513 C493 1.449 . S
C513 C512 1.399 . S
C513 H519 0.930 . S
H514 C494 0.931 . S
H515 C495 0.930 . S
H516 C503 0.931 . S
H517 C504 0.929 . S
H518 C512 0.929 . S
H519 C513 0.930 . S
Mn520 O525 2.095 . S
Mn520 O535 2.162 . S
Mn520 O536 2.297 . S
Mn520 O544 2.385 . S
Mn520 O545 2.209 . S
Mn520 O546 2.094 . S
Mn521 O526 2.121 . S
Mn521 N528 2.257 . S
Mn521 N537 2.282 . S
Mn521 O545 2.215 . S
Mn521 O547 2.117 . S
C522 O544 1.234 . S
C522 O545 1.283 . S
C523 O535 1.281 . S
C523 O536 1.236 . S
C524 O546 1.240 . S
C524 O547 1.264 . S
O525 Mn520 2.095 . S
O525 C534 1.250 . S
O526 Mn521 2.121 . S
O526 C534 1.258 . S
C527 N528 1.326 . S
C527 C531 1.460 . S
C527 H533 0.929 . S
N528 Mn521 2.257 . S
N528 C527 1.326 . S
N528 C532 1.362 . S
C529 C530 1.258 . S
C529 C532 1.431 . S
C529 C549 1.449 . S
C530 C529 1.258 . S
C530 C531 1.477 . S
C530 H550 0.931 . S
C531 C527 1.460 . S
C531 C530 1.477 . S
C531 H551 0.930 . S
C532 N528 1.362 . S
C532 C529 1.431 . S
C532 C542 1.476 . S
H533 C527 0.929 . S
C534 O525 1.250 . S
C534 O526 1.258 . S
O535 Mn520 2.162 . S
O535 C523 1.281 . S
O536 Mn520 2.297 . S
O536 C523 1.236 . S
N537 Mn521 2.282 . S
N537 C538 1.328 . S
N537 C542 1.318 . S
C538 N537 1.328 . S
C538 C539 1.457 . S
C538 H543 0.929 . S
C539 C538 1.457 . S
C539 C540 1.291 . S
C539 H552 0.931 . S
C540 C539 1.291 . S
C540 C541 1.373 . S
C540 H553 0.929 . S
C541 C540 1.373 . S
C541 C542 1.396 . S
C541 C548 1.403 . S
C542 C532 1.476 . S
C542 N537 1.318 . S
C542 C541 1.396 . S
H543 C538 0.929 . S
O544 Mn520 2.385 . S
O544 C522 1.234 . S
O545 Mn520 2.209 . S
O545 Mn521 2.215 . S
O545 C522 1.283 . S
O546 Mn520 2.094 . S
O546 C524 1.240 . S
O547 Mn521 2.117 . S
O547 C524 1.264 . S
C548 C541 1.403 . S
C548 C549 1.399 . S
C548 H554 0.929 . S
C549 C529 1.449 . S
C549 C548 1.399 . S
C549 H555 0.930 . S
H550 C530 0.931 . S
H551 C531 0.930 . S
H552 C539 0.931 . S
H553 C540 0.929 . S
H554 C548 0.929 . S
H555 C549 0.930 . S
Mn556 O561 2.095 . S
Mn556 O571 2.162 1_545 S
Mn556 O572 2.297 . S
Mn556 O580 2.385 . S
Mn556 O581 2.209 . S
Mn556 O582 2.094 . S
Mn557 O562 2.121 . S
Mn557 N564 2.257 . S
Mn557 N573 2.282 . S
Mn557 O581 2.215 . S
Mn557 O583 2.117 . S
C558 O580 1.234 . S
C558 O581 1.283 . S
C559 O571 1.281 . S
C559 O572 1.236 1_565 S
C560 O582 1.240 . S
C560 O583 1.264 . S
O561 Mn556 2.095 . S
O561 C570 1.250 . S
O562 Mn557 2.121 . S
O562 C570 1.258 . S
C563 N564 1.326 . S
C563 C567 1.460 . S
C563 H569 0.929 . S
N564 Mn557 2.257 . S
N564 C563 1.326 . S
N564 C568 1.362 . S
C565 C566 1.258 . S
C565 C568 1.431 . S
C565 C585 1.449 . S
C566 C565 1.258 . S
C566 C567 1.477 . S
C566 H586 0.931 . S
C567 C563 1.460 . S
C567 C566 1.477 . S
C567 H587 0.930 . S
C568 N564 1.362 . S
C568 C565 1.431 . S
C568 C578 1.476 . S
H569 C563 0.929 . S
C570 O561 1.250 . S
C570 O562 1.258 . S
O571 Mn556 2.162 1_565 S
O571 C559 1.281 . S
O572 Mn556 2.297 . S
O572 C559 1.236 1_545 S
N573 Mn557 2.282 . S
N573 C574 1.328 . S
N573 C578 1.318 . S
C574 N573 1.328 . S
C574 C575 1.457 . S
C574 H579 0.929 . S
C575 C574 1.457 . S
C575 C576 1.291 . S
C575 H588 0.931 . S
C576 C575 1.291 . S
C576 C577 1.373 . S
C576 H589 0.929 . S
C577 C576 1.373 . S
C577 C578 1.396 . S
C577 C584 1.403 . S
C578 C568 1.476 . S
C578 N573 1.318 . S
C578 C577 1.396 . S
H579 C574 0.929 . S
O580 Mn556 2.385 . S
O580 C558 1.234 . S
O581 Mn556 2.209 . S
O581 Mn557 2.215 . S
O581 C558 1.283 . S
O582 Mn556 2.094 . S
O582 C560 1.240 . S
O583 Mn557 2.117 . S
O583 C560 1.264 . S
C584 C577 1.403 . S
C584 C585 1.399 . S
C584 H590 0.929 . S
C585 C565 1.449 . S
C585 C584 1.399 . S
C585 H591 0.930 . S
H586 C566 0.931 . S
H587 C567 0.930 . S
H588 C575 0.931 . S
H589 C576 0.929 . S
H590 C584 0.929 . S
H591 C585 0.930 . S
Mn592 O597 2.095 . S
Mn592 O607 2.162 . S
Mn592 O608 2.297 . S
Mn592 O616 2.385 . S
Mn592 O617 2.209 1_455 S
Mn592 O618 2.094 . S
Mn593 O598 2.121 . S
Mn593 N600 2.257 . S
Mn593 N609 2.282 . S
Mn593 O617 2.215 . S
Mn593 O619 2.117 . S
C594 O616 1.234 1_655 S
C594 O617 1.283 . S
C595 O607 1.281 . S
C595 O608 1.236 . S
C596 O618 1.240 . S
C596 O619 1.264 1_455 S
O597 Mn592 2.095 . S
O597 C606 1.250 . S
O598 Mn593 2.121 . S
O598 C606 1.258 1_655 S
C599 N600 1.326 . S
C599 C603 1.460 . S
C599 H605 0.929 . S
N600 Mn593 2.257 . S
N600 C599 1.326 . S
N600 C604 1.362 . S
C601 C602 1.258 . S
C601 C604 1.431 . S
C601 C621 1.449 . S
C602 C601 1.258 . S
C602 C603 1.477 . S
C602 H622 0.931 . S
C603 C599 1.460 . S
C603 C602 1.477 . S
C603 H623 0.930 . S
C604 N600 1.362 . S
C604 C601 1.431 . S
C604 C614 1.476 . S
H605 C599 0.929 . S
C606 O597 1.250 . S
C606 O598 1.258 1_455 S
O607 Mn592 2.162 . S
O607 C595 1.281 . S
O608 Mn592 2.297 . S
O608 C595 1.236 . S
N609 Mn593 2.282 . S
N609 C610 1.328 . S
N609 C614 1.318 . S
C610 N609 1.328 . S
C610 C611 1.457 . S
C610 H615 0.929 . S
C611 C610 1.457 . S
C611 C612 1.291 . S
C611 H624 0.931 . S
C612 C611 1.291 . S
C612 C613 1.373 . S
C612 H625 0.929 . S
C613 C612 1.373 . S
C613 C614 1.396 . S
C613 C620 1.403 . S
C614 C604 1.476 . S
C614 N609 1.318 . S
C614 C613 1.396 . S
H615 C610 0.929 . S
O616 Mn592 2.385 . S
O616 C594 1.234 1_455 S
O617 Mn592 2.209 1_655 S
O617 Mn593 2.215 . S
O617 C594 1.283 . S
O618 Mn592 2.094 . S
O618 C596 1.240 . S
O619 Mn593 2.117 . S
O619 C596 1.264 1_655 S
C620 C613 1.403 . S
C620 C621 1.399 . S
C620 H626 0.929 . S
C621 C601 1.449 . S
C621 C620 1.399 . S
C621 H627 0.930 . S
H622 C602 0.931 . S
H623 C603 0.930 . S
H624 C611 0.931 . S
H625 C612 0.929 . S
H626 C620 0.929 . S
H627 C621 0.930 . S
Mn628 O633 2.095 . S
Mn628 O643 2.162 . S
Mn628 O644 2.297 . S
Mn628 O652 2.385 . S
Mn628 O653 2.209 . S
Mn628 O654 2.094 . S
Mn629 O634 2.121 . S
Mn629 N636 2.257 . S
Mn629 N645 2.282 . S
Mn629 O653 2.215 . S
Mn629 O655 2.117 . S
C630 O652 1.234 . S
C630 O653 1.283 . S
C631 O643 1.281 . S
C631 O644 1.236 . S
C632 O654 1.240 . S
C632 O655 1.264 . S
O633 Mn628 2.095 . S
O633 C642 1.250 . S
O634 Mn629 2.121 . S
O634 C642 1.258 . S
C635 N636 1.326 . S
C635 C639 1.460 . S
C635 H641 0.929 . S
N636 Mn629 2.257 . S
N636 C635 1.326 . S
N636 C640 1.362 . S
C637 C638 1.258 . S
C637 C640 1.431 . S
C637 C657 1.449 . S
C638 C637 1.258 . S
C638 C639 1.477 . S
C638 H658 0.931 . S
C639 C635 1.460 . S
C639 C638 1.477 . S
C639 H659 0.930 . S
C640 N636 1.362 . S
C640 C637 1.431 . S
C640 C650 1.476 . S
H641 C635 0.929 . S
C642 O633 1.250 . S
C642 O634 1.258 . S
O643 Mn628 2.162 . S
O643 C631 1.281 . S
O644 Mn628 2.297 . S
O644 C631 1.236 . S
N645 Mn629 2.282 . S
N645 C646 1.328 . S
N645 C650 1.318 . S
C646 N645 1.328 . S
C646 C647 1.457 . S
C646 H651 0.929 . S
C647 C646 1.457 . S
C647 C648 1.291 . S
C647 H660 0.931 . S
C648 C647 1.291 . S
C648 C649 1.373 . S
C648 H661 0.929 . S
C649 C648 1.373 . S
C649 C650 1.396 . S
C649 C656 1.403 . S
C650 C640 1.476 . S
C650 N645 1.318 . S
C650 C649 1.396 . S
H651 C646 0.929 . S
O652 Mn628 2.385 . S
O652 C630 1.234 . S
O653 Mn628 2.209 . S
O653 Mn629 2.215 . S
O653 C630 1.283 . S
O654 Mn628 2.094 . S
O654 C632 1.240 . S
O655 Mn629 2.117 . S
O655 C632 1.264 . S
C656 C649 1.403 . S
C656 C657 1.399 . S
C656 H662 0.929 . S
C657 C637 1.449 . S
C657 C656 1.399 . S
C657 H663 0.930 . S
H658 C638 0.931 . S
H659 C639 0.930 . S
H660 C647 0.931 . S
H661 C648 0.929 . S
H662 C656 0.929 . S
H663 C657 0.930 . S
Mn664 O669 2.095 1_455 S
Mn664 O679 2.162 . S
Mn664 O680 2.297 1_455 S
Mn664 O688 2.385 . S
Mn664 O689 2.209 1_455 S
Mn664 O690 2.094 . S
Mn665 O670 2.121 . S
Mn665 N672 2.257 . S
Mn665 N681 2.282 . S
Mn665 O689 2.215 . S
Mn665 O691 2.117 1_655 S
C666 O688 1.234 . S
C666 O689 1.283 1_455 S
C667 O679 1.281 . S
C667 O680 1.236 1_455 S
C668 O690 1.240 . S
C668 O691 1.264 . S
O669 Mn664 2.095 1_655 S
O669 C678 1.250 . S
O670 Mn665 2.121 . S
O670 C678 1.258 . S
C671 N672 1.326 . S
C671 C675 1.460 . S
C671 H677 0.929 . S
N672 Mn665 2.257 . S
N672 C671 1.326 . S
N672 C676 1.362 . S
C673 C674 1.258 . S
C673 C676 1.431 . S
C673 C693 1.449 . S
C674 C673 1.258 . S
C674 C675 1.477 . S
C674 H694 0.931 . S
C675 C671 1.460 . S
C675 C674 1.477 . S
C675 H695 0.930 . S
C676 N672 1.362 . S
C676 C673 1.431 . S
C676 C686 1.476 . S
H677 C671 0.929 . S
C678 O669 1.250 . S
C678 O670 1.258 . S
O679 Mn664 2.162 . S
O679 C667 1.281 . S
O680 Mn664 2.297 1_655 S
O680 C667 1.236 1_655 S
N681 Mn665 2.282 . S
N681 C682 1.328 1_655 S
N681 C686 1.318 . S
C682 N681 1.328 1_455 S
C682 C683 1.457 . S
C682 H687 0.929 . S
C683 C682 1.457 . S
C683 C684 1.291 . S
C683 H696 0.931 . S
C684 C683 1.291 . S
C684 C685 1.373 1_455 S
C684 H697 0.929 . S
C685 C684 1.373 1_655 S
C685 C686 1.396 . S
C685 C692 1.403 . S
C686 C676 1.476 . S
C686 N681 1.318 . S
C686 C685 1.396 . S
H687 C682 0.929 . S
O688 Mn664 2.385 . S
O688 C666 1.234 . S
O689 Mn664 2.209 1_655 S
O689 Mn665 2.215 . S
O689 C666 1.283 1_655 S
O690 Mn664 2.094 . S
O690 C668 1.240 . S
O691 Mn665 2.117 1_455 S
O691 C668 1.264 . S
C692 C685 1.403 . S
C692 C693 1.399 . S
C692 H698 0.929 . S
C693 C673 1.449 . S
C693 C692 1.399 . S
C693 H699 0.930 . S
H694 C674 0.931 . S
H695 C675 0.930 . S
H696 C683 0.931 . S
H697 C684 0.929 . S
H698 C692 0.929 . S
H699 C693 0.930 . S
Mn700 O705 2.095 . S
Mn700 O715 2.162 . S
Mn700 O716 2.297 . S
Mn700 O724 2.385 . S
Mn700 O725 2.209 . S
Mn700 O726 2.094 . S
Mn701 O706 2.121 . S
Mn701 N708 2.257 . S
Mn701 N717 2.282 . S
Mn701 O725 2.215 . S
Mn701 O727 2.117 . S
C702 O724 1.234 . S
C702 O725 1.283 . S
C703 O715 1.281 . S
C703 O716 1.236 . S
C704 O726 1.240 . S
C704 O727 1.264 . S
O705 Mn700 2.095 . S
O705 C714 1.250 . S
O706 Mn701 2.121 . S
O706 C714 1.258 . S
C707 N708 1.326 . S
C707 C711 1.460 . S
C707 H713 0.929 . S
N708 Mn701 2.257 . S
N708 C707 1.326 . S
N708 C712 1.362 . S
C709 C710 1.258 . S
C709 C712 1.431 . S
C709 C729 1.449 . S
C710 C709 1.258 . S
C710 C711 1.477 . S
C710 H730 0.931 . S
C711 C707 1.460 . S
C711 C710 1.477 . S
C711 H731 0.930 . S
C712 N708 1.362 . S
C712 C709 1.431 . S
C712 C722 1.476 . S
H713 C707 0.929 . S
C714 O705 1.250 . S
C714 O706 1.258 . S
O715 Mn700 2.162 . S
O715 C703 1.281 . S
O716 Mn700 2.297 . S
O716 C703 1.236 . S
N717 Mn701 2.282 . S
N717 C718 1.328 . S
N717 C722 1.318 . S
C718 N717 1.328 . S
C718 C719 1.457 . S
C718 H723 0.929 . S
C719 C718 1.457 . S
C719 C720 1.291 . S
C719 H732 0.931 . S
C720 C719 1.291 . S
C720 C721 1.373 . S
C720 H733 0.929 . S
C721 C720 1.373 . S
C721 C722 1.396 . S
C721 C728 1.403 . S
C722 C712 1.476 . S
C722 N717 1.318 . S
C722 C721 1.396 . S
H723 C718 0.929 . S
O724 Mn700 2.385 . S
O724 C702 1.234 . S
O725 Mn700 2.209 . S
O725 Mn701 2.215 . S
O725 C702 1.283 . S
O726 Mn700 2.094 . S
O726 C704 1.240 . S
O727 Mn701 2.117 . S
O727 C704 1.264 . S
C728 C721 1.403 . S
C728 C729 1.399 . S
C728 H734 0.929 . S
C729 C709 1.449 . S
C729 C728 1.399 . S
C729 H735 0.930 . S
H730 C710 0.931 . S
H731 C711 0.930 . S
H732 C719 0.931 . S
H733 C720 0.929 . S
H734 C728 0.929 . S
H735 C729 0.930 . S
C736 C737 1.391 . S
C736 C738 1.394 . S
C736 H752 0.931 . S
C737 C736 1.391 . S
C737 C741 1.376 . S
C738 C736 1.394 . S
C738 C739 1.369 . S
C738 C742 1.531 . S
C739 C738 1.369 . S
C739 C740 1.410 . S
C739 C747 1.503 . S
C740 C739 1.410 . S
C740 C741 1.392 . S
C740 C743 1.511 . S
C741 C737 1.376 . S
C741 C740 1.392 . S
C741 H753 0.929 . S
C742 C738 1.531 . S
C742 H754 0.960 . S
C742 H755 0.962 . S
C742 H756 0.960 . S
C743 C740 1.511 . S
C743 H757 0.961 . S
C743 H758 0.961 . S
C743 H759 0.961 . S
C744 C745 1.370 . S
C744 C746 1.363 . S
C744 H760 0.931 . S
C745 C744 1.370 . S
C745 C749 1.408 . S
C746 C744 1.363 . S
C746 C747 1.370 . S
C746 C750 1.524 . S
C747 C739 1.503 . S
C747 C746 1.370 . S
C747 C748 1.403 . S
C748 C747 1.403 . S
C748 C749 1.404 . S
C748 C751 1.539 . S
C749 C745 1.408 . S
C749 C748 1.404 . S
C749 H761 0.930 . S
C750 C746 1.524 . S
C750 H762 0.956 . S
C750 H763 0.961 . S
C750 H764 0.961 . S
C751 C748 1.539 . S
C751 H765 0.958 . S
C751 H766 0.961 . S
C751 H767 0.960 . S
H752 C736 0.931 . S
H753 C741 0.929 . S
H754 C742 0.960 . S
H755 C742 0.962 . S
H756 C742 0.960 . S
H757 C743 0.961 . S
H758 C743 0.961 . S
H759 C743 0.961 . S
H760 C744 0.931 . S
H761 C749 0.930 . S
H762 C750 0.956 . S
H763 C750 0.961 . S
H764 C750 0.961 . S
H765 C751 0.958 . S
H766 C751 0.961 . S
H767 C751 0.960 . S
C768 C769 1.391 . S
C768 C770 1.394 . S
C768 H784 0.931 . S
C769 C768 1.391 . S
C769 C773 1.376 . S
C770 C768 1.394 . S
C770 C771 1.369 . S
C770 C774 1.531 . S
C771 C770 1.369 . S
C771 C772 1.410 . S
C771 C779 1.503 . S
C772 C771 1.410 . S
C772 C773 1.392 . S
C772 C775 1.511 . S
C773 C769 1.376 . S
C773 C772 1.392 . S
C773 H785 0.929 . S
C774 C770 1.531 . S
C774 H786 0.960 . S
C774 H787 0.962 . S
C774 H788 0.960 . S
C775 C772 1.511 . S
C775 H789 0.961 . S
C775 H790 0.961 . S
C775 H791 0.961 . S
C776 C777 1.370 . S
C776 C778 1.363 . S
C776 H792 0.931 . S
C777 C776 1.370 . S
C777 C781 1.408 . S
C778 C776 1.363 . S
C778 C779 1.370 . S
C778 C782 1.524 . S
C779 C771 1.503 . S
C779 C778 1.370 . S
C779 C780 1.403 . S
C780 C779 1.403 . S
C780 C781 1.404 . S
C780 C783 1.539 . S
C781 C777 1.408 . S
C781 C780 1.404 . S
C781 H793 0.930 . S
C782 C778 1.524 . S
C782 H794 0.956 . S
C782 H795 0.961 . S
C782 H796 0.961 . S
C783 C780 1.539 . S
C783 H797 0.958 . S
C783 H798 0.961 . S
C783 H799 0.960 . S
H784 C768 0.931 . S
H785 C773 0.929 . S
H786 C774 0.960 . S
H787 C774 0.962 . S
H788 C774 0.960 . S
H789 C775 0.961 . S
H790 C775 0.961 . S
H791 C775 0.961 . S
H792 C776 0.931 . S
H793 C781 0.930 . S
H794 C782 0.956 . S
H795 C782 0.961 . S
H796 C782 0.961 . S
H797 C783 0.958 . S
H798 C783 0.961 . S
H799 C783 0.960 . S
C800 C801 1.391 . S
C800 C802 1.394 . S
C800 H816 0.931 . S
C801 C800 1.391 . S
C801 C805 1.376 . S
C802 C800 1.394 . S
C802 C803 1.369 . S
C802 C806 1.531 . S
C803 C802 1.369 . S
C803 C804 1.410 . S
C803 C811 1.503 . S
C804 C803 1.410 . S
C804 C805 1.392 . S
C804 C807 1.511 . S
C805 C801 1.376 . S
C805 C804 1.392 . S
C805 H817 0.929 . S
C806 C802 1.531 . S
C806 H818 0.960 . S
C806 H819 0.962 . S
C806 H820 0.960 . S
C807 C804 1.511 . S
C807 H821 0.961 . S
C807 H822 0.961 . S
C807 H823 0.961 . S
C808 C809 1.370 . S
C808 C810 1.363 . S
C808 H824 0.931 . S
C809 C808 1.370 . S
C809 C813 1.408 . S
C810 C808 1.363 . S
C810 C811 1.370 . S
C810 C814 1.524 . S
C811 C803 1.503 . S
C811 C810 1.370 . S
C811 C812 1.403 . S
C812 C811 1.403 . S
C812 C813 1.404 . S
C812 C815 1.539 . S
C813 C809 1.408 . S
C813 C812 1.404 . S
C813 H825 0.930 . S
C814 C810 1.524 . S
C814 H826 0.956 . S
C814 H827 0.961 . S
C814 H828 0.961 . S
C815 C812 1.539 . S
C815 H829 0.958 . S
C815 H830 0.961 . S
C815 H831 0.960 . S
H816 C800 0.931 . S
H817 C805 0.929 . S
H818 C806 0.960 . S
H819 C806 0.962 . S
H820 C806 0.960 . S
H821 C807 0.961 . S
H822 C807 0.961 . S
H823 C807 0.961 . S
H824 C808 0.931 . S
H825 C813 0.930 . S
H826 C814 0.956 . S
H827 C814 0.961 . S
H828 C814 0.961 . S
H829 C815 0.958 . S
H830 C815 0.961 . S
H831 C815 0.960 . S
C832 C833 1.391 1_545 S
C832 C834 1.394 . S
C832 H848 0.931 . S
C833 C832 1.391 1_565 S
C833 C837 1.376 . S
C834 C832 1.394 . S
C834 C835 1.369 1_545 S
C834 C838 1.531 . S
C835 C834 1.369 1_565 S
C835 C836 1.410 . S
C835 C843 1.503 1_565 S
C836 C835 1.410 . S
C836 C837 1.392 . S
C836 C839 1.511 1_455 S
C837 C833 1.376 . S
C837 C836 1.392 . S
C837 H849 0.929 . S
C838 C834 1.531 . S
C838 H850 0.960 . S
C838 H851 0.962 . S
C838 H852 0.960 . S
C839 C836 1.511 1_655 S
C839 H853 0.961 . S
C839 H854 0.961 . S
C839 H855 0.961 . S
C840 C841 1.370 . S
C840 C842 1.363 1_655 S
C840 H856 0.931 . S
C841 C840 1.370 . S
C841 C845 1.408 1_645 S
C842 C840 1.363 1_455 S
C842 C843 1.370 . S
C842 C846 1.524 . S
C843 C835 1.503 1_545 S
C843 C842 1.370 . S
C843 C844 1.403 1_545 S
C844 C843 1.403 1_565 S
C844 C845 1.404 . S
C844 C847 1.539 . S
C845 C841 1.408 1_465 S
C845 C844 1.404 . S
C845 H857 0.930 . S
C846 C842 1.524 . S
C846 H858 0.956 . S
C846 H859 0.961 . S
C846 H860 0.961 . S
C847 C844 1.539 . S
C847 H861 0.958 . S
C847 H862 0.961 . S
C847 H863 0.960 . S
H848 C832 0.931 . S
H849 C837 0.929 . S
H850 C838 0.960 . S
H851 C838 0.962 . S
H852 C838 0.960 . S
H853 C839 0.961 . S
H854 C839 0.961 . S
H855 C839 0.961 . S
H856 C840 0.931 . S
H857 C845 0.930 . S
H858 C846 0.956 . S
H859 C846 0.961 . S
H860 C846 0.961 . S
H861 C847 0.958 . S
H862 C847 0.961 . S
H863 C847 0.960 . S
C864 C865 1.391 . S
C864 C866 1.394 . S
C864 H880 0.931 . S
C865 C864 1.391 . S
C865 C869 1.376 . S
C866 C864 1.394 . S
C866 C867 1.369 . S
C866 C870 1.531 . S
C867 C866 1.369 . S
C867 C868 1.410 . S
C867 C875 1.503 . S
C868 C867 1.410 . S
C868 C869 1.392 . S
C868 C871 1.511 . S
C869 C865 1.376 . S
C869 C868 1.392 . S
C869 H881 0.929 . S
C870 C866 1.531 . S
C870 H882 0.960 . S
C870 H883 0.962 . S
C870 H884 0.960 . S
C871 C868 1.511 . S
C871 H885 0.961 . S
C871 H886 0.961 . S
C871 H887 0.961 . S
C872 C873 1.370 . S
C872 C874 1.363 . S
C872 H888 0.931 . S
C873 C872 1.370 . S
C873 C877 1.408 . S
C874 C872 1.363 . S
C874 C875 1.370 . S
C874 C878 1.524 . S
C875 C867 1.503 . S
C875 C874 1.370 . S
C875 C876 1.403 . S
C876 C875 1.403 . S
C876 C877 1.404 . S
C876 C879 1.539 . S
C877 C873 1.408 . S
C877 C876 1.404 . S
C877 H889 0.930 . S
C878 C874 1.524 . S
C878 H890 0.956 . S
C878 H891 0.961 . S
C878 H892 0.961 . S
C879 C876 1.539 . S
C879 H893 0.958 . S
C879 H894 0.961 . S
C879 H895 0.960 . S
H880 C864 0.931 . S
H881 C869 0.929 . S
H882 C870 0.960 . S
H883 C870 0.962 . S
H884 C870 0.960 . S
H885 C871 0.961 . S
H886 C871 0.961 . S
H887 C871 0.961 . S
H888 C872 0.931 . S
H889 C877 0.930 . S
H890 C878 0.956 . S
H891 C878 0.961 . S
H892 C878 0.961 . S
H893 C879 0.958 . S
H894 C879 0.961 . S
H895 C879 0.960 . S
C896 C897 1.391 . S
C896 C898 1.394 . S
C896 H912 0.931 . S
C897 C896 1.391 . S
C897 C901 1.376 . S
C898 C896 1.394 . S
C898 C899 1.369 . S
C898 C902 1.531 . S
C899 C898 1.369 . S
C899 C900 1.410 . S
C899 C907 1.503 . S
C900 C899 1.410 . S
C900 C901 1.392 . S
C900 C903 1.511 . S
C901 C897 1.376 . S
C901 C900 1.392 . S
C901 H913 0.929 . S
C902 C898 1.531 . S
C902 H914 0.960 . S
C902 H915 0.962 . S
C902 H916 0.960 . S
C903 C900 1.511 . S
C903 H917 0.961 . S
C903 H918 0.961 . S
C903 H919 0.961 . S
C904 C905 1.370 . S
C904 C906 1.363 . S
C904 H920 0.931 . S
C905 C904 1.370 . S
C905 C909 1.408 . S
C906 C904 1.363 . S
C906 C907 1.370 . S
C906 C910 1.524 . S
C907 C899 1.503 . S
C907 C906 1.370 . S
C907 C908 1.403 . S
C908 C907 1.403 . S
C908 C909 1.404 . S
C908 C911 1.539 . S
C909 C905 1.408 . S
C909 C908 1.404 . S
C909 H921 0.930 . S
C910 C906 1.524 . S
C910 H922 0.956 . S
C910 H923 0.961 . S
C910 H924 0.961 . S
C911 C908 1.539 . S
C911 H925 0.958 . S
C911 H926 0.961 . S
C911 H927 0.960 . S
H912 C896 0.931 . S
H913 C901 0.929 . S
H914 C902 0.960 . S
H915 C902 0.962 . S
H916 C902 0.960 . S
H917 C903 0.961 . S
H918 C903 0.961 . S
H919 C903 0.961 . S
H920 C904 0.931 . S
H921 C909 0.930 . S
H922 C910 0.956 . S
H923 C910 0.961 . S
H924 C910 0.961 . S
H925 C911 0.958 . S
H926 C911 0.961 . S
H927 C911 0.960 . S
C928 C929 1.391 . S
C928 C930 1.394 . S
C928 H944 0.931 . S
C929 C928 1.391 . S
C929 C933 1.376 . S
C930 C928 1.394 . S
C930 C931 1.369 . S
C930 C934 1.531 . S
C931 C930 1.369 . S
C931 C932 1.410 . S
C931 C939 1.503 . S
C932 C931 1.410 . S
C932 C933 1.392 . S
C932 C935 1.511 . S
C933 C929 1.376 . S
C933 C932 1.392 . S
C933 H945 0.929 . S
C934 C930 1.531 . S
C934 H946 0.960 . S
C934 H947 0.962 . S
C934 H948 0.960 . S
C935 C932 1.511 . S
C935 H949 0.961 . S
C935 H950 0.961 . S
C935 H951 0.961 . S
C936 C937 1.370 . S
C936 C938 1.363 . S
C936 H952 0.931 . S
C937 C936 1.370 . S
C937 C941 1.408 . S
C938 C936 1.363 . S
C938 C939 1.370 . S
C938 C942 1.524 . S
C939 C931 1.503 . S
C939 C938 1.370 . S
C939 C940 1.403 . S
C940 C939 1.403 . S
C940 C941 1.404 . S
C940 C943 1.539 . S
C941 C937 1.408 . S
C941 C940 1.404 . S
C941 H953 0.930 . S
C942 C938 1.524 . S
C942 H954 0.956 . S
C942 H955 0.961 . S
C942 H956 0.961 . S
C943 C940 1.539 . S
C943 H957 0.958 . S
C943 H958 0.961 . S
C943 H959 0.960 . S
H944 C928 0.931 . S
H945 C933 0.929 . S
H946 C934 0.960 . S
H947 C934 0.962 . S
H948 C934 0.960 . S
H949 C935 0.961 . S
H950 C935 0.961 . S
H951 C935 0.961 . S
H952 C936 0.931 . S
H953 C941 0.930 . S
H954 C942 0.956 . S
H955 C942 0.961 . S
H956 C942 0.961 . S
H957 C943 0.958 . S
H958 C943 0.961 . S
H959 C943 0.960 . S
C960 C961 1.391 1_545 S
C960 C962 1.394 . S
C960 H976 0.931 . S
C961 C960 1.391 1_565 S
C961 C965 1.376 . S
C962 C960 1.394 . S
C962 C963 1.369 . S
C962 C966 1.531 . S
C963 C962 1.369 . S
C963 C964 1.410 1_545 S
C963 C971 1.503 . S
C964 C963 1.410 1_565 S
C964 C965 1.392 . S
C964 C967 1.511 . S
C965 C961 1.376 . S
C965 C964 1.392 . S
C965 H977 0.929 . S
C966 C962 1.531 . S
C966 H978 0.960 . S
C966 H979 0.962 . S
C966 H980 0.960 . S
C967 C964 1.511 . S
C967 H981 0.961 . S
C967 H982 0.961 . S
C967 H983 0.961 . S
C968 C969 1.348 1_565 S
C968 C970 1.361 . S
C968 H984 0.957 . S
C969 C968 1.348 1_545 S
C969 C973 1.408 . S
C970 C968 1.361 . S
C970 C971 1.370 1_565 S
C970 C974 1.524 . S
C971 C963 1.503 . S
C971 C970 1.370 1_545 S
C971 C972 1.403 . S
C972 C971 1.403 . S
C972 C973 1.404 . S
C972 C975 1.539 . S
C973 C969 1.408 . S
C973 C972 1.404 . S
C973 H985 0.930 . S
C974 C970 1.524 . S
C974 H986 0.956 . S
C974 H987 0.961 . S
C974 H988 0.961 . S
C975 C972 1.539 . S
C975 H989 0.958 . S
C975 H990 0.961 . S
C975 H991 0.960 . S
H976 C960 0.931 . S
H977 C965 0.929 . S
H978 C966 0.960 . S
H979 C966 0.962 . S
H980 C966 0.960 . S
H981 C967 0.961 . S
H982 C967 0.961 . S
H983 C967 0.961 . S
H984 C968 0.957 . S
H985 C973 0.930 . S
H986 C974 0.956 . S
H987 C974 0.961 . S
H988 C974 0.961 . S
H989 C975 0.958 . S
H990 C975 0.961 . S
H991 C975 0.960 . S
C992 C993 1.391 . S
C992 C994 1.394 . S
C992 H1008 0.931 . S
C993 C992 1.391 . S
C993 C997 1.376 . S
C994 C992 1.394 . S
C994 C995 1.369 . S
C994 C998 1.531 . S
C995 C994 1.369 . S
C995 C996 1.410 . S
C995 C1003 1.503 . S
C996 C995 1.410 . S
C996 C997 1.392 . S
C996 C999 1.511 . S
C997 C993 1.376 . S
C997 C996 1.392 . S
C997 H1009 0.929 . S
C998 C994 1.531 . S
C998 H1010 0.960 . S
C998 H1011 0.962 . S
C998 H1012 0.960 . S
C999 C996 1.511 . S
C999 H1013 0.961 . S
C999 H1014 0.961 . S
C999 H1015 0.961 . S
C1000 C1001 1.370 . S
C1000 C1002 1.363 . S
C1000 H1016 0.931 . S
C1001 C1000 1.370 . S
C1001 C1005 1.408 . S
C1002 C1000 1.363 . S
C1002 C1003 1.370 . S
C1002 C1006 1.524 . S
C1003 C995 1.503 . S
C1003 C1002 1.370 . S
C1003 C1004 1.403 . S
C1004 C1003 1.403 . S
C1004 C1005 1.404 . S
C1004 C1007 1.539 . S
C1005 C1001 1.408 . S
C1005 C1004 1.404 . S
C1005 H1017 0.930 . S
C1006 C1002 1.524 . S
C1006 H1018 0.956 . S
C1006 H1019 0.961 . S
C1006 H1020 0.961 . S
C1007 C1004 1.539 . S
C1007 H1021 0.958 . S
C1007 H1022 0.961 . S
C1007 H1023 0.960 . S
H1008 C992 0.931 . S
H1009 C997 0.929 . S
H1010 C998 0.960 . S
H1011 C998 0.962 . S
H1012 C998 0.960 . S
H1013 C999 0.961 . S
H1014 C999 0.961 . S
H1015 C999 0.961 . S
H1016 C1000 0.931 . S
H1017 C1005 0.930 . S
H1018 C1006 0.956 . S
H1019 C1006 0.961 . S
H1020 C1006 0.961 . S
H1021 C1007 0.958 . S
H1022 C1007 0.961 . S
H1023 C1007 0.960 . S
C1024 C1025 1.391 . S
C1024 C1026 1.394 . S
C1024 H1040 0.931 . S
C1025 C1024 1.391 . S
C1025 C1029 1.376 . S
C1026 C1024 1.394 . S
C1026 C1027 1.369 . S
C1026 C1030 1.531 . S
C1027 C1026 1.369 . S
C1027 C1028 1.410 . S
C1027 C1035 1.503 . S
C1028 C1027 1.410 . S
C1028 C1029 1.392 . S
C1028 C1031 1.511 . S
C1029 C1025 1.376 . S
C1029 C1028 1.392 . S
C1029 H1041 0.929 . S
C1030 C1026 1.531 . S
C1030 H1042 0.960 . S
C1030 H1043 0.962 . S
C1030 H1044 0.960 . S
C1031 C1028 1.511 . S
C1031 H1045 0.961 . S
C1031 H1046 0.961 . S
C1031 H1047 0.961 . S
C1032 C1033 1.370 . S
C1032 C1034 1.363 . S
C1032 H1048 0.931 . S
C1033 C1032 1.370 . S
C1033 C1037 1.408 . S
C1034 C1032 1.363 . S
C1034 C1035 1.370 . S
C1034 C1038 1.524 . S
C1035 C1027 1.503 . S
C1035 C1034 1.370 . S
C1035 C1036 1.403 . S
C1036 C1035 1.403 . S
C1036 C1037 1.404 . S
C1036 C1039 1.539 . S
C1037 C1033 1.408 . S
C1037 C1036 1.404 . S
C1037 H1049 0.930 . S
C1038 C1034 1.524 . S
C1038 H1050 0.956 . S
C1038 H1051 0.961 . S
C1038 H1052 0.961 . S
C1039 C1036 1.539 . S
C1039 H1053 0.958 . S
C1039 H1054 0.961 . S
C1039 H1055 0.960 . S
H1040 C1024 0.931 . S
H1041 C1029 0.929 . S
H1042 C1030 0.960 . S
H1043 C1030 0.962 . S
H1044 C1030 0.960 . S
H1045 C1031 0.961 . S
H1046 C1031 0.961 . S
H1047 C1031 0.961 . S
H1048 C1032 0.931 . S
H1049 C1037 0.930 . S
H1050 C1038 0.956 . S
H1051 C1038 0.961 . S
H1052 C1038 0.961 . S
H1053 C1039 0.958 . S
H1054 C1039 0.961 . S
H1055 C1039 0.960 . S
C1056 C1057 1.391 . S
C1056 C1058 1.394 . S
C1056 H1072 0.931 . S
C1057 C1056 1.391 . S
C1057 C1061 1.376 . S
C1058 C1056 1.394 . S
C1058 C1059 1.369 . S
C1058 C1062 1.531 . S
C1059 C1058 1.369 . S
C1059 C1060 1.410 . S
C1059 C1067 1.503 . S
C1060 C1059 1.410 . S
C1060 C1061 1.392 . S
C1060 C1063 1.511 . S
C1061 C1057 1.376 . S
C1061 C1060 1.392 . S
C1061 H1073 0.929 . S
C1062 C1058 1.531 . S
C1062 H1074 0.960 . S
C1062 H1075 0.962 . S
C1062 H1076 0.960 . S
C1063 C1060 1.511 . S
C1063 H1077 0.961 . S
C1063 H1078 0.961 . S
C1063 H1079 0.961 . S
C1064 C1065 1.370 . S
C1064 C1066 1.363 . S
C1064 H1080 0.931 . S
C1065 C1064 1.370 . S
C1065 C1069 1.408 . S
C1066 C1064 1.363 . S
C1066 C1067 1.370 . S
C1066 C1070 1.524 . S
C1067 C1059 1.503 . S
C1067 C1066 1.370 . S
C1067 C1068 1.403 . S
C1068 C1067 1.403 . S
C1068 C1069 1.404 . S
C1068 C1071 1.539 . S
C1069 C1065 1.408 . S
C1069 C1068 1.404 . S
C1069 H1081 0.930 . S
C1070 C1066 1.524 . S
C1070 H1082 0.956 . S
C1070 H1083 0.961 . S
C1070 H1084 0.961 . S
C1071 C1068 1.539 . S
C1071 H1085 0.958 . S
C1071 H1086 0.961 . S
C1071 H1087 0.960 . S
H1072 C1056 0.931 . S
H1073 C1061 0.929 . S
H1074 C1062 0.960 . S
H1075 C1062 0.962 . S
H1076 C1062 0.960 . S
H1077 C1063 0.961 . S
H1078 C1063 0.961 . S
H1079 C1063 0.961 . S
H1080 C1064 0.931 . S
H1081 C1069 0.930 . S
H1082 C1070 0.956 . S
H1083 C1070 0.961 . S
H1084 C1070 0.961 . S
H1085 C1071 0.958 . S
H1086 C1071 0.961 . S
H1087 C1071 0.960 . S
C1088 C1089 1.391 . S
C1088 C1090 1.394 . S
C1088 H1104 0.931 . S
C1089 C1088 1.391 . S
C1089 C1093 1.376 . S
C1090 C1088 1.394 . S
C1090 C1091 1.369 . S
C1090 C1094 1.531 . S
C1091 C1090 1.369 . S
C1091 C1092 1.410 . S
C1091 C1099 1.503 . S
C1092 C1091 1.410 . S
C1092 C1093 1.392 . S
C1092 C1095 1.511 . S
C1093 C1089 1.376 . S
C1093 C1092 1.392 . S
C1093 H1105 0.929 . S
C1094 C1090 1.531 . S
C1094 H1106 0.960 . S
C1094 H1107 0.962 . S
C1094 H1108 0.960 . S
C1095 C1092 1.511 . S
C1095 H1109 0.961 . S
C1095 H1110 0.961 . S
C1095 H1111 0.961 . S
C1096 C1097 1.370 . S
C1096 C1098 1.363 . S
C1096 H1112 0.931 . S
C1097 C1096 1.370 . S
C1097 C1101 1.408 . S
C1098 C1096 1.363 . S
C1098 C1099 1.370 . S
C1098 C1102 1.524 . S
C1099 C1091 1.503 . S
C1099 C1098 1.370 . S
C1099 C1100 1.403 . S
C1100 C1099 1.403 . S
C1100 C1101 1.404 . S
C1100 C1103 1.539 . S
C1101 C1097 1.408 . S
C1101 C1100 1.404 . S
C1101 H1113 0.930 . S
C1102 C1098 1.524 . S
C1102 H1114 0.956 . S
C1102 H1115 0.961 . S
C1102 H1116 0.961 . S
C1103 C1100 1.539 . S
C1103 H1117 0.958 . S
C1103 H1118 0.961 . S
C1103 H1119 0.960 . S
H1104 C1088 0.931 . S
H1105 C1093 0.929 . S
H1106 C1094 0.960 . S
H1107 C1094 0.962 . S
H1108 C1094 0.960 . S
H1109 C1095 0.961 . S
H1110 C1095 0.961 . S
H1111 C1095 0.961 . S
H1112 C1096 0.931 . S
H1113 C1101 0.930 . S
H1114 C1102 0.956 . S
H1115 C1102 0.961 . S
H1116 C1102 0.961 . S
H1117 C1103 0.958 . S
H1118 C1103 0.961 . S
H1119 C1103 0.960 . S
C1120 C1121 1.391 . S
C1120 C1122 1.394 . S
C1120 H1136 0.931 . S
C1121 C1120 1.391 . S
C1121 C1125 1.376 . S
C1122 C1120 1.394 . S
C1122 C1123 1.369 . S
C1122 C1126 1.531 . S
C1123 C1122 1.369 . S
C1123 C1124 1.410 . S
C1123 C1131 1.503 . S
C1124 C1123 1.410 . S
C1124 C1125 1.392 . S
C1124 C1127 1.511 . S
C1125 C1121 1.376 . S
C1125 C1124 1.392 . S
C1125 H1137 0.929 . S
C1126 C1122 1.531 . S
C1126 H1138 0.960 . S
C1126 H1139 0.962 . S
C1126 H1140 0.960 . S
C1127 C1124 1.511 . S
C1127 H1141 0.961 . S
C1127 H1142 0.961 . S
C1127 H1143 0.961 . S
C1128 C1129 1.370 . S
C1128 C1130 1.363 . S
C1128 H1144 0.931 . S
C1129 C1128 1.370 . S
C1129 C1133 1.408 . S
C1130 C1128 1.363 . S
C1130 C1131 1.370 . S
C1130 C1134 1.524 . S
C1131 C1123 1.503 . S
C1131 C1130 1.370 . S
C1131 C1132 1.403 . S
C1132 C1131 1.403 . S
C1132 C1133 1.404 . S
C1132 C1135 1.539 . S
C1133 C1129 1.408 . S
C1133 C1132 1.404 . S
C1133 H1145 0.930 . S
C1134 C1130 1.524 . S
C1134 H1146 0.956 . S
C1134 H1147 0.961 . S
C1134 H1148 0.961 . S
C1135 C1132 1.539 . S
C1135 H1149 0.958 . S
C1135 H1150 0.961 . S
C1135 H1151 0.960 . S
H1136 C1120 0.931 . S
H1137 C1125 0.929 . S
H1138 C1126 0.960 . S
H1139 C1126 0.962 . S
H1140 C1126 0.960 . S
H1141 C1127 0.961 . S
H1142 C1127 0.961 . S
H1143 C1127 0.961 . S
H1144 C1128 0.931 . S
H1145 C1133 0.930 . S
H1146 C1134 0.956 . S
H1147 C1134 0.961 . S
H1148 C1134 0.961 . S
H1149 C1135 0.958 . S
H1150 C1135 0.961 . S
H1151 C1135 0.960 . S
C1152 C1153 1.391 . S
C1152 C1154 1.394 . S
C1152 H1168 0.931 . S
C1153 C1152 1.391 . S
C1153 C1157 1.376 . S
C1154 C1152 1.394 . S
C1154 C1155 1.369 . S
C1154 C1158 1.531 . S
C1155 C1154 1.369 . S
C1155 C1156 1.410 . S
C1155 C1163 1.503 . S
C1156 C1155 1.410 . S
C1156 C1157 1.392 . S
C1156 C1159 1.511 . S
C1157 C1153 1.376 . S
C1157 C1156 1.392 . S
C1157 H1169 0.929 . S
C1158 C1154 1.531 . S
C1158 H1170 0.960 . S
C1158 H1171 0.962 . S
C1158 H1172 0.960 . S
C1159 C1156 1.511 . S
C1159 H1173 0.961 1_455 S
C1159 H1174 0.960 1_455 S
C1159 H1175 0.961 1_455 S
C1160 C1161 1.370 . S
C1160 C1162 1.363 . S
C1160 H1176 0.931 . S
C1161 C1160 1.370 . S
C1161 C1165 1.408 . S
C1162 C1160 1.363 . S
C1162 C1163 1.370 . S
C1162 C1166 1.524 . S
C1163 C1155 1.503 . S
C1163 C1162 1.370 . S
C1163 C1164 1.403 . S
C1164 C1163 1.403 . S
C1164 C1165 1.404 . S
C1164 C1167 1.539 . S
C1165 C1161 1.408 . S
C1165 C1164 1.404 . S
C1165 H1177 0.930 . S
C1166 C1162 1.524 . S
C1166 H1178 0.956 . S
C1166 H1179 0.961 . S
C1166 H1180 0.961 . S
C1167 C1164 1.539 . S
C1167 H1181 0.958 . S
C1167 H1182 0.961 . S
C1167 H1183 0.960 . S
H1168 C1152 0.931 . S
H1169 C1157 0.929 . S
H1170 C1158 0.960 . S
H1171 C1158 0.962 . S
H1172 C1158 0.960 . S
H1173 C1159 0.961 1_655 S
H1174 C1159 0.960 1_655 S
H1175 C1159 0.961 1_655 S
H1176 C1160 0.931 . S
H1177 C1165 0.930 . S
H1178 C1166 0.956 . S
H1179 C1166 0.961 . S
H1180 C1166 0.961 . S
H1181 C1167 0.958 . S
H1182 C1167 0.961 . S
H1183 C1167 0.960 . S
C1184 C1185 1.391 . S
C1184 C1186 1.394 . S
C1184 H1200 0.931 . S
C1185 C1184 1.391 . S
C1185 C1189 1.376 . S
C1186 C1184 1.394 . S
C1186 C1187 1.369 . S
C1186 C1190 1.531 . S
C1187 C1186 1.369 . S
C1187 C1188 1.410 . S
C1187 C1195 1.503 . S
C1188 C1187 1.410 . S
C1188 C1189 1.392 . S
C1188 C1191 1.511 . S
C1189 C1185 1.376 . S
C1189 C1188 1.392 . S
C1189 H1201 0.929 . S
C1190 C1186 1.531 . S
C1190 H1202 0.960 . S
C1190 H1203 0.962 . S
C1190 H1204 0.960 . S
C1191 C1188 1.511 . S
C1191 H1205 0.961 . S
C1191 H1206 0.961 . S
C1191 H1207 0.961 . S
C1192 C1193 1.370 . S
C1192 C1194 1.363 . S
C1192 H1208 0.931 . S
C1193 C1192 1.370 . S
C1193 C1197 1.408 . S
C1194 C1192 1.363 . S
C1194 C1195 1.370 . S
C1194 C1198 1.524 . S
C1195 C1187 1.503 . S
C1195 C1194 1.370 . S
C1195 C1196 1.403 . S
C1196 C1195 1.403 . S
C1196 C1197 1.404 . S
C1196 C1199 1.539 . S
C1197 C1193 1.408 . S
C1197 C1196 1.404 . S
C1197 H1209 0.930 . S
C1198 C1194 1.524 . S
C1198 H1210 0.956 . S
C1198 H1211 0.961 . S
C1198 H1212 0.961 . S
C1199 C1196 1.539 . S
C1199 H1213 0.958 . S
C1199 H1214 0.961 . S
C1199 H1215 0.960 . S
H1200 C1184 0.931 . S
H1201 C1189 0.929 . S
H1202 C1190 0.960 . S
H1203 C1190 0.962 . S
H1204 C1190 0.960 . S
H1205 C1191 0.961 . S
H1206 C1191 0.961 . S
H1207 C1191 0.961 . S
H1208 C1192 0.931 . S
H1209 C1197 0.930 . S
H1210 C1198 0.956 . S
H1211 C1198 0.961 . S
H1212 C1198 0.961 . S
H1213 C1199 0.958 . S
H1214 C1199 0.961 . S
H1215 C1199 0.960 . S
C1216 C1217 1.391 1_455 S
C1216 C1218 1.394 . S
C1216 H1232 0.931 . S
C1217 C1216 1.391 1_655 S
C1217 C1221 1.376 . S
C1218 C1216 1.394 . S
C1218 C1219 1.369 1_455 S
C1218 C1222 1.531 . S
C1219 C1218 1.369 1_655 S
C1219 C1220 1.410 . S
C1219 C1227 1.503 . S
C1220 C1219 1.410 . S
C1220 C1221 1.392 . S
C1220 C1223 1.511 . S
C1221 C1217 1.376 . S
C1221 C1220 1.392 . S
C1221 H1233 0.929 . S
C1222 C1218 1.531 . S
C1222 H1234 0.960 . S
C1222 H1235 0.962 . S
C1222 H1236 0.960 . S
C1223 C1220 1.511 . S
C1223 H1237 0.961 . S
C1223 H1238 0.961 . S
C1223 H1239 0.961 . S
C1224 C1225 1.370 1_455 S
C1224 C1226 1.363 . S
C1224 H1240 0.931 . S
C1225 C1224 1.370 1_655 S
C1225 C1229 1.408 . S
C1226 C1224 1.363 . S
C1226 C1227 1.370 1_455 S
C1226 C1230 1.524 . S
C1227 C1219 1.503 . S
C1227 C1226 1.370 1_655 S
C1227 C1228 1.403 . S
C1228 C1227 1.403 . S
C1228 C1229 1.404 . S
C1228 C1231 1.539 . S
C1229 C1225 1.408 . S
C1229 C1228 1.404 . S
C1229 H1241 0.930 . S
C1230 C1226 1.524 . S
C1230 H1242 0.956 . S
C1230 H1243 0.961 . S
C1230 H1244 0.961 . S
C1231 C1228 1.539 . S
C1231 H1245 0.958 . S
C1231 H1246 0.961 . S
C1231 H1247 0.960 . S
H1232 C1216 0.931 . S
H1233 C1221 0.929 . S
H1234 C1222 0.960 . S
H1235 C1222 0.962 . S
H1236 C1222 0.960 . S
H1237 C1223 0.961 . S
H1238 C1223 0.961 . S
H1239 C1223 0.961 . S
H1240 C1224 0.931 . S
H1241 C1229 0.930 . S
H1242 C1230 0.956 . S
H1243 C1230 0.961 . S
H1244 C1230 0.961 . S
H1245 C1231 0.958 . S
H1246 C1231 0.961 . S
H1247 C1231 0.960 . S
C1248 C1249 1.391 . S
C1248 C1250 1.394 . S
C1248 H1264 0.931 . S
C1249 C1248 1.391 . S
C1249 C1253 1.376 . S
C1250 C1248 1.394 . S
C1250 C1251 1.369 . S
C1250 C1254 1.531 . S
C1251 C1250 1.369 . S
C1251 C1252 1.410 . S
C1251 C1259 1.503 . S
C1252 C1251 1.410 . S
C1252 C1253 1.392 . S
C1252 C1255 1.511 . S
C1253 C1249 1.376 . S
C1253 C1252 1.392 . S
C1253 H1265 0.929 . S
C1254 C1250 1.531 . S
C1254 H1266 0.960 . S
C1254 H1267 0.962 . S
C1254 H1268 0.960 . S
C1255 C1252 1.511 . S
C1255 H1269 0.961 . S
C1255 H1270 0.961 . S
C1255 H1271 0.961 . S
C1256 C1257 1.370 . S
C1256 C1258 1.363 . S
C1256 H1272 0.931 . S
C1257 C1256 1.370 . S
C1257 C1261 1.408 . S
C1258 C1256 1.363 . S
C1258 C1259 1.370 . S
C1258 C1262 1.524 . S
C1259 C1251 1.503 . S
C1259 C1258 1.370 . S
C1259 C1260 1.403 . S
C1260 C1259 1.403 . S
C1260 C1261 1.404 . S
C1260 C1263 1.539 . S
C1261 C1257 1.408 . S
C1261 C1260 1.404 . S
C1261 H1273 0.930 . S
C1262 C1258 1.524 . S
C1262 H1274 0.956 . S
C1262 H1275 0.961 . S
C1262 H1276 0.961 . S
C1263 C1260 1.539 . S
C1263 H1277 0.958 . S
C1263 H1278 0.961 . S
C1263 H1279 0.960 . S
H1264 C1248 0.931 . S
H1265 C1253 0.929 . S
H1266 C1254 0.960 . S
H1267 C1254 0.962 . S
H1268 C1254 0.960 . S
H1269 C1255 0.961 . S
H1270 C1255 0.961 . S
H1271 C1255 0.961 . S
H1272 C1256 0.931 . S
H1273 C1261 0.930 . S
H1274 C1262 0.956 . S
H1275 C1262 0.961 . S
H1276 C1262 0.961 . S
H1277 C1263 0.958 . S
H1278 C1263 0.961 . S
H1279 C1263 0.960 . S
C1280 C1281 1.391 . S
C1280 C1282 1.394 . S
C1280 H1296 0.931 . S
C1281 C1280 1.391 . S
C1281 C1285 1.376 . S
C1282 C1280 1.394 . S
C1282 C1283 1.369 . S
C1282 C1286 1.531 . S
C1283 C1282 1.369 . S
C1283 C1284 1.410 . S
C1283 C1291 1.503 . S
C1284 C1283 1.410 . S
C1284 C1285 1.392 . S
C1284 C1287 1.511 . S
C1285 C1281 1.376 . S
C1285 C1284 1.392 . S
C1285 H1297 0.929 . S
C1286 C1282 1.531 . S
C1286 H1298 0.960 . S
C1286 H1299 0.962 . S
C1286 H1300 0.960 . S
C1287 C1284 1.511 . S
C1287 H1301 0.961 . S
C1287 H1302 0.961 . S
C1287 H1303 0.961 . S
C1288 C1289 1.370 . S
C1288 C1290 1.363 . S
C1288 H1304 0.931 . S
C1289 C1288 1.370 . S
C1289 C1293 1.408 . S
C1290 C1288 1.363 . S
C1290 C1291 1.370 . S
C1290 C1294 1.524 . S
C1291 C1283 1.503 . S
C1291 C1290 1.370 . S
C1291 C1292 1.403 . S
C1292 C1291 1.403 . S
C1292 C1293 1.404 . S
C1292 C1295 1.539 . S
C1293 C1289 1.408 . S
C1293 C1292 1.404 . S
C1293 H1305 0.930 . S
C1294 C1290 1.524 . S
C1294 H1306 0.956 . S
C1294 H1307 0.961 . S
C1294 H1308 0.961 . S
C1295 C1292 1.539 . S
C1295 H1309 0.958 . S
C1295 H1310 0.961 . S
C1295 H1311 0.960 . S
H1296 C1280 0.931 . S
H1297 C1285 0.929 . S
H1298 C1286 0.960 . S
H1299 C1286 0.962 . S
H1300 C1286 0.960 . S
H1301 C1287 0.961 . S
H1302 C1287 0.961 . S
H1303 C1287 0.961 . S
H1304 C1288 0.931 . S
H1305 C1293 0.930 . S
H1306 C1294 0.956 . S
H1307 C1294 0.961 . S
H1308 C1294 0.961 . S
H1309 C1295 0.958 . S
H1310 C1295 0.961 . S
H1311 C1295 0.960 . S
C1312 C1313 1.391 . S
C1312 C1314 1.394 1_556 S
C1312 H1328 0.931 . S
C1313 C1312 1.391 . S
C1313 C1317 1.376 1_545 S
C1314 C1312 1.394 1_554 S
C1314 C1315 1.373 1_544 S
C1314 C1318 1.531 . S
C1315 C1314 1.373 1_566 S
C1315 C1316 1.428 . S
C1315 C1323 1.480 1_556 S
C1316 C1315 1.428 . S
C1316 C1317 1.392 . S
C1316 C1319 1.511 . S
C1317 C1313 1.376 1_565 S
C1317 C1316 1.392 . S
C1317 H1329 0.929 . S
C1318 C1314 1.531 . S
C1318 H1330 0.943 1_545 S
C1318 H1331 0.962 . S
C1318 H1332 0.960 . S
C1319 C1316 1.511 . S
C1319 H1333 0.961 . S
C1319 H1334 0.961 . S
C1319 H1335 0.961 . S
C1320 C1321 1.370 . S
C1320 C1322 1.363 . S
C1320 H1336 0.931 . S
C1321 C1320 1.370 . S
C1321 C1325 1.408 . S
C1322 C1320 1.363 . S
C1322 C1323 1.370 . S
C1322 C1326 1.524 . S
C1323 C1315 1.480 1_554 S
C1323 C1322 1.370 . S
C1323 C1324 1.403 1_554 S
C1324 C1323 1.403 1_556 S
C1324 C1325 1.404 1_556 S
C1324 C1327 1.539 . S
C1325 C1321 1.408 . S
C1325 C1324 1.404 1_554 S
C1325 H1337 0.930 1_554 S
C1326 C1322 1.524 . S
C1326 H1338 0.956 . S
C1326 H1339 0.961 . S
C1326 H1340 0.961 . S
C1327 C1324 1.539 . S
C1327 H1341 0.958 . S
C1327 H1342 0.961 . S
C1327 H1343 0.960 . S
H1328 C1312 0.931 . S
H1329 C1317 0.929 . S
H1330 C1318 0.943 1_565 S
H1331 C1318 0.962 . S
H1332 C1318 0.960 . S
H1333 C1319 0.961 . S
H1334 C1319 0.961 . S
H1335 C1319 0.961 . S
H1336 C1320 0.931 . S
H1337 C1325 0.930 1_556 S
H1338 C1326 0.956 . S
H1339 C1326 0.961 . S
H1340 C1326 0.961 . S
H1341 C1327 0.958 . S
H1342 C1327 0.961 . S
H1343 C1327 0.960 . S
C1344 C1345 1.391 . S
C1344 C1346 1.394 . S
C1344 H1360 0.931 . S
C1345 C1344 1.391 . S
C1345 C1349 1.376 . S
C1346 C1344 1.394 . S
C1346 C1347 1.369 . S
C1346 C1350 1.531 . S
C1347 C1346 1.369 . S
C1347 C1348 1.410 . S
C1347 C1355 1.503 . S
C1348 C1347 1.410 . S
C1348 C1349 1.392 . S
C1348 C1351 1.511 . S
C1349 C1345 1.376 . S
C1349 C1348 1.392 . S
C1349 H1361 0.929 . S
C1350 C1346 1.531 . S
C1350 H1362 0.960 . S
C1350 H1363 0.962 . S
C1350 H1364 0.960 . S
C1351 C1348 1.511 . S
C1351 H1365 0.961 . S
C1351 H1366 0.961 . S
C1351 H1367 0.961 . S
C1352 C1353 1.370 . S
C1352 C1354 1.363 . S
C1352 H1368 0.931 . S
C1353 C1352 1.370 . S
C1353 C1357 1.408 . S
C1354 C1352 1.363 . S
C1354 C1355 1.370 . S
C1354 C1358 1.524 . S
C1355 C1347 1.503 . S
C1355 C1354 1.370 . S
C1355 C1356 1.403 . S
C1356 C1355 1.403 . S
C1356 C1357 1.404 . S
C1356 C1359 1.539 . S
C1357 C1353 1.408 . S
C1357 C1356 1.404 . S
C1357 H1369 0.930 . S
C1358 C1354 1.524 . S
C1358 H1370 0.956 . S
C1358 H1371 0.961 . S
C1358 H1372 0.961 . S
C1359 C1356 1.539 . S
C1359 H1373 0.958 . S
C1359 H1374 0.961 . S
C1359 H1375 0.960 . S
H1360 C1344 0.931 . S
H1361 C1349 0.929 . S
H1362 C1350 0.960 . S
H1363 C1350 0.962 . S
H1364 C1350 0.960 . S
H1365 C1351 0.961 . S
H1366 C1351 0.961 . S
H1367 C1351 0.961 . S
H1368 C1352 0.931 . S
H1369 C1357 0.930 . S
H1370 C1358 0.956 . S
H1371 C1358 0.961 . S
H1372 C1358 0.961 . S
H1373 C1359 0.958 . S
H1374 C1359 0.961 . S
H1375 C1359 0.960 . S
C1376 C1377 1.391 . S
C1376 C1378 1.394 . S
C1376 H1392 0.931 . S
C1377 C1376 1.391 . S
C1377 C1381 1.376 . S
C1378 C1376 1.394 . S
C1378 C1379 1.369 . S
C1378 C1382 1.531 . S
C1379 C1378 1.369 . S
C1379 C1380 1.410 . S
C1379 C1387 1.503 . S
C1380 C1379 1.410 . S
C1380 C1381 1.392 . S
C1380 C1383 1.511 . S
C1381 C1377 1.376 . S
C1381 C1380 1.392 . S
C1381 H1393 0.929 . S
C1382 C1378 1.531 . S
C1382 H1394 0.960 . S
C1382 H1395 0.962 . S
C1382 H1396 0.960 . S
C1383 C1380 1.511 . S
C1383 H1397 0.961 . S
C1383 H1398 0.961 . S
C1383 H1399 0.961 . S
C1384 C1385 1.370 . S
C1384 C1386 1.363 . S
C1384 H1400 0.931 . S
C1385 C1384 1.370 . S
C1385 C1389 1.408 . S
C1386 C1384 1.363 . S
C1386 C1387 1.370 . S
C1386 C1390 1.524 . S
C1387 C1379 1.503 . S
C1387 C1386 1.370 . S
C1387 C1388 1.403 . S
C1388 C1387 1.403 . S
C1388 C1389 1.404 . S
C1388 C1391 1.539 . S
C1389 C1385 1.408 . S
C1389 C1388 1.404 . S
C1389 H1401 0.930 . S
C1390 C1386 1.524 . S
C1390 H1402 0.956 . S
C1390 H1403 0.961 . S
C1390 H1404 0.961 . S
C1391 C1388 1.539 . S
C1391 H1405 0.958 . S
C1391 H1406 0.961 . S
C1391 H1407 0.960 . S
H1392 C1376 0.931 . S
H1393 C1381 0.929 . S
H1394 C1382 0.960 . S
H1395 C1382 0.962 . S
H1396 C1382 0.960 . S
H1397 C1383 0.961 . S
H1398 C1383 0.961 . S
H1399 C1383 0.961 . S
H1400 C1384 0.931 . S
H1401 C1389 0.930 . S
H1402 C1390 0.956 . S
H1403 C1390 0.961 . S
H1404 C1390 0.961 . S
H1405 C1391 0.958 . S
H1406 C1391 0.961 . S
H1407 C1391 0.960 . S
C1408 C1409 1.391 . S
C1408 C1410 1.394 . S
C1408 H1424 0.931 . S
C1409 C1408 1.391 . S
C1409 C1413 1.376 . S
C1410 C1408 1.394 . S
C1410 C1411 1.369 . S
C1410 C1414 1.531 . S
C1411 C1410 1.369 . S
C1411 C1412 1.410 . S
C1411 C1419 1.503 . S
C1412 C1411 1.410 . S
C1412 C1413 1.392 . S
C1412 C1415 1.511 . S
C1413 C1409 1.376 . S
C1413 C1412 1.392 . S
C1413 H1425 0.929 . S
C1414 C1410 1.531 . S
C1414 H1426 0.960 . S
C1414 H1427 0.962 . S
C1414 H1428 0.960 . S
C1415 C1412 1.511 . S
C1415 H1429 0.961 . S
C1415 H1430 0.961 . S
C1415 H1431 0.961 . S
C1416 C1417 1.370 . S
C1416 C1418 1.363 . S
C1416 H1432 0.931 . S
C1417 C1416 1.370 . S
C1417 C1421 1.408 . S
C1418 C1416 1.363 . S
C1418 C1419 1.370 . S
C1418 C1422 1.524 . S
C1419 C1411 1.503 . S
C1419 C1418 1.370 . S
C1419 C1420 1.403 . S
C1420 C1419 1.403 . S
C1420 C1421 1.404 . S
C1420 C1423 1.539 . S
C1421 C1417 1.408 . S
C1421 C1420 1.404 . S
C1421 H1433 0.930 . S
C1422 C1418 1.524 . S
C1422 H1434 0.956 . S
C1422 H1435 0.961 . S
C1422 H1436 0.961 . S
C1423 C1420 1.539 . S
C1423 H1437 0.958 . S
C1423 H1438 0.961 . S
C1423 H1439 0.960 . S
H1424 C1408 0.931 . S
H1425 C1413 0.929 . S
H1426 C1414 0.960 . S
H1427 C1414 0.962 . S
H1428 C1414 0.960 . S
H1429 C1415 0.961 . S
H1430 C1415 0.961 . S
H1431 C1415 0.961 . S
H1432 C1416 0.931 . S
H1433 C1421 0.930 . S
H1434 C1422 0.956 . S
H1435 C1422 0.961 . S
H1436 C1422 0.961 . S
H1437 C1423 0.958 . S
H1438 C1423 0.961 . S
H1439 C1423 0.960 . S
C1440 C1441 1.391 . S
C1440 C1442 1.394 . S
C1440 H1456 0.931 . S
C1441 C1440 1.391 . S
C1441 C1445 1.376 . S
C1442 C1440 1.394 . S
C1442 C1443 1.369 . S
C1442 C1446 1.531 . S
C1443 C1442 1.369 . S
C1443 C1444 1.410 . S
C1443 C1451 1.503 . S
C1444 C1443 1.410 . S
C1444 C1445 1.392 . S
C1444 C1447 1.511 . S
C1445 C1441 1.376 . S
C1445 C1444 1.392 . S
C1445 H1457 0.929 1_545 S
C1446 C1442 1.531 . S
C1446 H1458 0.960 . S
C1446 H1459 0.962 . S
C1446 H1460 0.960 . S
C1447 C1444 1.511 . S
C1447 H1461 0.961 . S
C1447 H1462 0.961 . S
C1447 H1463 0.961 . S
C1448 C1449 1.370 . S
C1448 C1450 1.363 . S
C1448 H1464 0.931 . S
C1449 C1448 1.370 . S
C1449 C1453 1.408 . S
C1450 C1448 1.363 . S
C1450 C1451 1.370 . S
C1450 C1454 1.524 . S
C1451 C1443 1.503 . S
C1451 C1450 1.370 . S
C1451 C1452 1.403 . S
C1452 C1451 1.403 . S
C1452 C1453 1.404 . S
C1452 C1455 1.539 . S
C1453 C1449 1.408 . S
C1453 C1452 1.404 . S
C1453 H1465 0.930 . S
C1454 C1450 1.524 . S
C1454 H1466 0.956 . S
C1454 H1467 0.961 . S
C1454 H1468 0.961 . S
C1455 C1452 1.539 . S
C1455 H1469 0.958 . S
C1455 H1470 0.961 . S
C1455 H1471 0.960 . S
H1456 C1440 0.931 . S
H1457 C1445 0.929 1_565 S
H1458 C1446 0.960 . S
H1459 C1446 0.962 . S
H1460 C1446 0.960 . S
H1461 C1447 0.961 . S
H1462 C1447 0.961 . S
H1463 C1447 0.961 . S
H1464 C1448 0.931 . S
H1465 C1453 0.930 . S
H1466 C1454 0.956 . S
H1467 C1454 0.961 . S
H1468 C1454 0.961 . S
H1469 C1455 0.958 . S
H1470 C1455 0.961 . S
H1471 C1455 0.960 . S
C1472 C1473 1.391 . S
C1472 C1474 1.394 . S
C1472 H1488 0.931 . S
C1473 C1472 1.391 . S
C1473 C1477 1.376 . S
C1474 C1472 1.394 . S
C1474 C1475 1.369 . S
C1474 C1478 1.531 . S
C1475 C1474 1.369 . S
C1475 C1476 1.410 . S
C1475 C1483 1.503 . S
C1476 C1475 1.410 . S
C1476 C1477 1.392 . S
C1476 C1479 1.511 . S
C1477 C1473 1.376 . S
C1477 C1476 1.392 . S
C1477 H1489 0.929 . S
C1478 C1474 1.531 . S
C1478 H1490 0.960 . S
C1478 H1491 0.962 . S
C1478 H1492 0.960 . S
C1479 C1476 1.511 . S
C1479 H1493 0.961 . S
C1479 H1494 0.961 . S
C1479 H1495 0.961 . S
C1480 C1481 1.370 . S
C1480 C1482 1.363 . S
C1480 H1496 0.931 . S
C1481 C1480 1.370 . S
C1481 C1485 1.408 . S
C1482 C1480 1.363 . S
C1482 C1483 1.370 . S
C1482 C1486 1.524 . S
C1483 C1475 1.503 . S
C1483 C1482 1.370 . S
C1483 C1484 1.403 . S
C1484 C1483 1.403 . S
C1484 C1485 1.404 . S
C1484 C1487 1.539 . S
C1485 C1481 1.408 . S
C1485 C1484 1.404 . S
C1485 H1497 0.930 . S
C1486 C1482 1.524 . S
C1486 H1498 0.956 . S
C1486 H1499 0.961 . S
C1486 H1500 0.961 . S
C1487 C1484 1.539 . S
C1487 H1501 0.958 . S
C1487 H1502 0.961 . S
C1487 H1503 0.960 . S
H1488 C1472 0.931 . S
H1489 C1477 0.929 . S
H1490 C1478 0.960 . S
H1491 C1478 0.962 . S
H1492 C1478 0.960 . S
H1493 C1479 0.961 . S
H1494 C1479 0.961 . S
H1495 C1479 0.961 . S
H1496 C1480 0.931 . S
H1497 C1485 0.930 . S
H1498 C1486 0.956 . S
H1499 C1486 0.961 . S
H1500 C1486 0.961 . S
H1501 C1487 0.958 . S
H1502 C1487 0.961 . S
H1503 C1487 0.960 . S
C1504 C1505 1.391 . S
C1504 C1506 1.394 . S
C1504 H1520 0.931 . S
C1505 C1504 1.391 . S
C1505 C1509 1.376 . S
C1506 C1504 1.394 . S
C1506 C1507 1.369 . S
C1506 C1510 1.531 . S
C1507 C1506 1.369 . S
C1507 C1508 1.410 . S
C1507 C1515 1.503 . S
C1508 C1507 1.410 . S
C1508 C1509 1.392 . S
C1508 C1511 1.511 . S
C1509 C1505 1.376 . S
C1509 C1508 1.392 . S
C1509 H1521 0.929 . S
C1510 C1506 1.531 . S
C1510 H1522 0.960 . S
C1510 H1523 0.962 . S
C1510 H1524 0.960 . S
C1511 C1508 1.511 . S
C1511 H1525 0.961 . S
C1511 H1526 0.961 . S
C1511 H1527 0.961 . S
C1512 C1513 1.370 . S
C1512 C1514 1.363 . S
C1512 H1528 0.931 . S
C1513 C1512 1.370 . S
C1513 C1517 1.408 . S
C1514 C1512 1.363 . S
C1514 C1515 1.370 . S
C1514 C1518 1.524 . S
C1515 C1507 1.503 . S
C1515 C1514 1.370 . S
C1515 C1516 1.403 . S
C1516 C1515 1.403 . S
C1516 C1517 1.404 . S
C1516 C1519 1.539 . S
C1517 C1513 1.408 . S
C1517 C1516 1.404 . S
C1517 H1529 0.930 . S
C1518 C1514 1.524 . S
C1518 H1530 0.956 . S
C1518 H1531 0.961 . S
C1518 H1532 0.961 . S
C1519 C1516 1.539 . S
C1519 H1533 0.958 . S
C1519 H1534 0.961 . S
C1519 H1535 0.960 . S
H1520 C1504 0.931 . S
H1521 C1509 0.929 . S
H1522 C1510 0.960 . S
H1523 C1510 0.962 . S
H1524 C1510 0.960 . S
H1525 C1511 0.961 . S
H1526 C1511 0.961 . S
H1527 C1511 0.961 . S
H1528 C1512 0.931 . S
H1529 C1517 0.930 . S
H1530 C1518 0.956 . S
H1531 C1518 0.961 . S
H1532 C1518 0.961 . S
H1533 C1519 0.958 . S
H1534 C1519 0.961 . S
H1535 C1519 0.960 . S
C1536 C1537 1.391 . S
C1536 C1538 1.394 . S
C1536 H1552 0.931 . S
C1537 C1536 1.391 . S
C1537 C1541 1.376 . S
C1538 C1536 1.394 . S
C1538 C1539 1.369 . S
C1538 C1542 1.531 . S
C1539 C1538 1.369 . S
C1539 C1540 1.410 . S
C1539 C1547 1.503 . S
C1540 C1539 1.410 . S
C1540 C1541 1.392 . S
C1540 C1543 1.511 . S
C1541 C1537 1.376 . S
C1541 C1540 1.392 . S
C1541 H1553 0.929 . S
C1542 C1538 1.531 . S
C1542 H1554 0.960 . S
C1542 H1555 0.962 . S
C1542 H1556 0.960 . S
C1543 C1540 1.511 . S
C1543 H1557 0.961 . S
C1543 H1558 0.961 . S
C1543 H1559 0.961 . S
C1544 C1545 1.370 . S
C1544 C1546 1.363 . S
C1544 H1560 0.931 . S
C1545 C1544 1.370 . S
C1545 C1549 1.408 . S
C1546 C1544 1.363 . S
C1546 C1547 1.370 . S
C1546 C1550 1.498 1_545 S
C1547 C1539 1.503 . S
C1547 C1546 1.370 . S
C1547 C1548 1.403 . S
C1548 C1547 1.403 . S
C1548 C1549 1.404 . S
C1548 C1551 1.539 . S
C1549 C1545 1.408 . S
C1549 C1548 1.404 . S
C1549 H1561 0.930 . S
C1550 C1546 1.498 1_565 S
C1550 H1562 0.941 1_565 S
C1550 H1563 0.978 . S
C1550 H1564 0.986 . S
C1551 C1548 1.539 . S
C1551 H1565 0.958 . S
C1551 H1566 0.961 . S
C1551 H1567 0.960 . S
H1552 C1536 0.931 . S
H1553 C1541 0.929 . S
H1554 C1542 0.960 . S
H1555 C1542 0.962 . S
H1556 C1542 0.960 . S
H1557 C1543 0.961 . S
H1558 C1543 0.961 . S
H1559 C1543 0.961 . S
H1560 C1544 0.931 . S
H1561 C1549 0.930 . S
H1562 C1550 0.941 1_545 S
H1563 C1550 0.978 . S
H1564 C1550 0.986 . S
H1565 C1551 0.958 . S
H1566 C1551 0.961 . S
H1567 C1551 0.960 . S
C1568 C1569 1.391 . S
C1568 C1570 1.394 . S
C1568 H1584 0.931 . S
C1569 C1568 1.391 . S
C1569 C1573 1.376 . S
C1570 C1568 1.394 . S
C1570 C1571 1.369 . S
C1570 C1574 1.531 . S
C1571 C1570 1.369 . S
C1571 C1572 1.410 . S
C1571 C1579 1.503 . S
C1572 C1571 1.410 . S
C1572 C1573 1.392 . S
C1572 C1575 1.511 . S
C1573 C1569 1.376 . S
C1573 C1572 1.392 . S
C1573 H1585 0.929 . S
C1574 C1570 1.531 . S
C1574 H1586 0.960 . S
C1574 H1587 0.962 . S
C1574 H1588 0.960 . S
C1575 C1572 1.511 . S
C1575 H1589 0.961 . S
C1575 H1590 0.961 . S
C1575 H1591 0.961 . S
C1576 C1577 1.370 . S
C1576 C1578 1.363 . S
C1576 H1592 0.931 . S
C1577 C1576 1.370 . S
C1577 C1581 1.408 . S
C1578 C1576 1.363 . S
C1578 C1579 1.370 . S
C1578 C1582 1.524 . S
C1579 C1571 1.503 . S
C1579 C1578 1.370 . S
C1579 C1580 1.403 . S
C1580 C1579 1.403 . S
C1580 C1581 1.404 . S
C1580 C1583 1.539 . S
C1581 C1577 1.408 . S
C1581 C1580 1.404 . S
C1581 H1593 0.930 . S
C1582 C1578 1.524 . S
C1582 H1594 0.956 . S
C1582 H1595 0.961 . S
C1582 H1596 0.961 . S
C1583 C1580 1.539 . S
C1583 H1597 0.958 . S
C1583 H1598 0.961 . S
C1583 H1599 0.960 . S
H1584 C1568 0.931 . S
H1585 C1573 0.929 . S
H1586 C1574 0.960 . S
H1587 C1574 0.962 . S
H1588 C1574 0.960 . S
H1589 C1575 0.961 . S
H1590 C1575 0.961 . S
H1591 C1575 0.961 . S
H1592 C1576 0.931 . S
H1593 C1581 0.930 . S
H1594 C1582 0.956 . S
H1595 C1582 0.961 . S
H1596 C1582 0.961 . S
H1597 C1583 0.958 . S
H1598 C1583 0.961 . S
H1599 C1583 0.960 . S
C1600 C1601 1.391 . S
C1600 C1602 1.394 . S
C1600 H1616 0.931 . S
C1601 C1600 1.391 . S
C1601 C1605 1.376 . S
C1602 C1600 1.394 . S
C1602 C1603 1.369 . S
C1602 C1606 1.531 . S
C1603 C1602 1.369 . S
C1603 C1604 1.410 . S
C1603 C1611 1.503 . S
C1604 C1603 1.410 . S
C1604 C1605 1.392 . S
C1604 C1607 1.511 . S
C1605 C1601 1.376 . S
C1605 C1604 1.392 . S
C1605 H1617 0.929 . S
C1606 C1602 1.531 . S
C1606 H1618 0.960 . S
C1606 H1619 0.962 . S
C1606 H1620 0.960 . S
C1607 C1604 1.511 . S
C1607 H1621 0.961 . S
C1607 H1622 0.961 . S
C1607 H1623 0.961 . S
C1608 C1609 1.370 . S
C1608 C1610 1.363 . S
C1608 H1624 0.931 . S
C1609 C1608 1.370 . S
C1609 C1613 1.408 . S
C1610 C1608 1.363 . S
C1610 C1611 1.370 . S
C1610 C1614 1.524 . S
C1611 C1603 1.503 . S
C1611 C1610 1.370 . S
C1611 C1612 1.403 . S
C1612 C1611 1.403 . S
C1612 C1613 1.404 . S
C1612 C1615 1.539 . S
C1613 C1609 1.408 . S
C1613 C1612 1.404 . S
C1613 H1625 0.930 . S
C1614 C1610 1.524 . S
C1614 H1626 0.956 . S
C1614 H1627 0.961 . S
C1614 H1628 0.961 . S
C1615 C1612 1.539 . S
C1615 H1629 0.958 . S
C1615 H1630 0.961 . S
C1615 H1631 0.960 . S
H1616 C1600 0.931 . S
H1617 C1605 0.929 . S
H1618 C1606 0.960 . S
H1619 C1606 0.962 . S
H1620 C1606 0.960 . S
H1621 C1607 0.961 . S
H1622 C1607 0.961 . S
H1623 C1607 0.961 . S
H1624 C1608 0.931 . S
H1625 C1613 0.930 . S
H1626 C1614 0.956 . S
H1627 C1614 0.961 . S
H1628 C1614 0.961 . S
H1629 C1615 0.958 . S
H1630 C1615 0.961 . S
H1631 C1615 0.960 . S
C1632 C1633 1.391 . S
C1632 C1634 1.394 . S
C1632 H1648 0.931 . S
C1633 C1632 1.391 . S
C1633 C1637 1.376 . S
C1634 C1632 1.394 . S
C1634 C1635 1.369 . S
C1634 C1638 1.531 . S
C1635 C1634 1.369 . S
C1635 C1636 1.410 . S
C1635 C1643 1.503 . S
C1636 C1635 1.410 . S
C1636 C1637 1.392 . S
C1636 C1639 1.511 . S
C1637 C1633 1.376 . S
C1637 C1636 1.392 . S
C1637 H1649 0.929 . S
C1638 C1634 1.531 . S
C1638 H1650 0.960 . S
C1638 H1651 0.962 . S
C1638 H1652 0.960 . S
C1639 C1636 1.511 . S
C1639 H1653 0.961 . S
C1639 H1654 0.961 . S
C1639 H1655 0.961 . S
C1640 C1641 1.370 . S
C1640 C1642 1.363 . S
C1640 H1656 0.931 . S
C1641 C1640 1.370 . S
C1641 C1645 1.408 . S
C1642 C1640 1.363 . S
C1642 C1643 1.370 . S
C1642 C1646 1.524 . S
C1643 C1635 1.503 . S
C1643 C1642 1.370 . S
C1643 C1644 1.403 . S
C1644 C1643 1.403 . S
C1644 C1645 1.404 . S
C1644 C1647 1.539 . S
C1645 C1641 1.408 . S
C1645 C1644 1.404 . S
C1645 H1657 0.930 . S
C1646 C1642 1.524 . S
C1646 H1658 0.956 . S
C1646 H1659 0.961 . S
C1646 H1660 0.961 . S
C1647 C1644 1.539 . S
C1647 H1661 0.958 . S
C1647 H1662 0.961 . S
C1647 H1663 0.960 . S
H1648 C1632 0.931 . S
H1649 C1637 0.929 . S
H1650 C1638 0.960 . S
H1651 C1638 0.962 . S
H1652 C1638 0.960 . S
H1653 C1639 0.961 . S
H1654 C1639 0.961 . S
H1655 C1639 0.961 . S
H1656 C1640 0.931 . S
H1657 C1645 0.930 . S
H1658 C1646 0.956 . S
H1659 C1646 0.961 . S
H1660 C1646 0.961 . S
H1661 C1647 0.958 . S
H1662 C1647 0.961 . S
H1663 C1647 0.960 . S
C1664 C1665 1.391 . S
C1664 C1666 1.394 . S
C1664 H1680 0.931 . S
C1665 C1664 1.391 . S
C1665 C1669 1.376 . S
C1666 C1664 1.394 . S
C1666 C1667 1.369 . S
C1666 C1670 1.531 . S
C1667 C1666 1.369 . S
C1667 C1668 1.410 1_455 S
C1667 C1675 1.503 . S
C1668 C1667 1.410 1_655 S
C1668 C1669 1.392 1_655 S
C1668 C1671 1.511 . S
C1669 C1665 1.376 . S
C1669 C1668 1.392 1_455 S
C1669 H1681 0.929 1_455 S
C1670 C1666 1.531 . S
C1670 H1682 0.960 . S
C1670 H1683 0.962 . S
C1670 H1684 0.960 . S
C1671 C1668 1.511 . S
C1671 H1685 0.961 1_545 S
C1671 H1686 0.961 . S
C1671 H1687 0.961 . S
C1672 C1673 1.370 . S
C1672 C1674 1.363 1_655 S
C1672 H1688 0.930 1_645 S
C1673 C1672 1.370 . S
C1673 C1677 1.408 . S
C1674 C1672 1.363 1_455 S
C1674 C1675 1.370 . S
C1674 C1678 1.524 1_545 S
C1675 C1667 1.503 . S
C1675 C1674 1.370 . S
C1675 C1676 1.403 1_455 S
C1676 C1675 1.403 1_655 S
C1676 C1677 1.404 . S
C1676 C1679 1.539 . S
C1677 C1673 1.408 . S
C1677 C1676 1.404 . S
C1677 H1689 0.930 . S
C1678 C1674 1.524 1_565 S
C1678 H1690 0.956 . S
C1678 H1691 0.961 . S
C1678 H1692 0.961 . S
C1679 C1676 1.539 . S
C1679 H1693 0.958 1_655 S
C1679 H1694 0.961 . S
C1679 H1695 0.960 . S
H1680 C1664 0.931 . S
H1681 C1669 0.929 1_655 S
H1682 C1670 0.960 . S
H1683 C1670 0.962 . S
H1684 C1670 0.960 . S
H1685 C1671 0.961 1_565 S
H1686 C1671 0.961 . S
H1687 C1671 0.961 . S
H1688 C1672 0.930 1_465 S
H1689 C1677 0.930 . S
H1690 C1678 0.956 . S
H1691 C1678 0.961 . S
H1692 C1678 0.961 . S
H1693 C1679 0.958 1_455 S
H1694 C1679 0.961 . S
H1695 C1679 0.960 . S
C1696 C1697 1.391 . S
C1696 C1698 1.394 . S
C1696 H1712 0.931 . S
C1697 C1696 1.391 . S
C1697 C1701 1.376 . S
C1698 C1696 1.394 . S
C1698 C1699 1.369 . S
C1698 C1702 1.531 . S
C1699 C1698 1.369 . S
C1699 C1700 1.410 . S
C1699 C1707 1.503 . S
C1700 C1699 1.410 . S
C1700 C1701 1.392 . S
C1700 C1703 1.511 . S
C1701 C1697 1.376 . S
C1701 C1700 1.392 . S
C1701 H1713 0.929 . S
C1702 C1698 1.531 . S
C1702 H1714 0.960 . S
C1702 H1715 0.962 . S
C1702 H1716 0.960 . S
C1703 C1700 1.511 . S
C1703 H1717 0.961 . S
C1703 H1718 0.961 . S
C1703 H1719 0.961 . S
C1704 C1705 1.370 . S
C1704 C1706 1.363 . S
C1704 H1720 0.931 . S
C1705 C1704 1.370 . S
C1705 C1709 1.408 . S
C1706 C1704 1.363 . S
C1706 C1707 1.370 . S
C1706 C1710 1.524 . S
C1707 C1699 1.503 . S
C1707 C1706 1.370 . S
C1707 C1708 1.403 . S
C1708 C1707 1.403 . S
C1708 C1709 1.404 . S
C1708 C1711 1.539 . S
C1709 C1705 1.408 . S
C1709 C1708 1.404 . S
C1709 H1721 0.930 . S
C1710 C1706 1.524 . S
C1710 H1722 0.956 . S
C1710 H1723 0.961 . S
C1710 H1724 0.961 . S
C1711 C1708 1.539 . S
C1711 H1725 0.958 . S
C1711 H1726 0.961 . S
C1711 H1727 0.960 . S
H1712 C1696 0.931 . S
H1713 C1701 0.929 . S
H1714 C1702 0.960 . S
H1715 C1702 0.962 . S
H1716 C1702 0.960 . S
H1717 C1703 0.961 . S
H1718 C1703 0.961 . S
H1719 C1703 0.961 . S
H1720 C1704 0.931 . S
H1721 C1709 0.930 . S
H1722 C1710 0.956 . S
H1723 C1710 0.961 . S
H1724 C1710 0.961 . S
H1725 C1711 0.958 . S
H1726 C1711 0.961 . S
H1727 C1711 0.960 . S
C1728 C1729 1.391 . S
C1728 C1730 1.394 . S
C1728 H1744 0.931 . S
C1729 C1728 1.391 . S
C1729 C1733 1.376 . S
C1730 C1728 1.394 . S
C1730 C1731 1.369 . S
C1730 C1734 1.531 . S
C1731 C1730 1.369 . S
C1731 C1732 1.410 . S
C1731 C1739 1.503 . S
C1732 C1731 1.410 . S
C1732 C1733 1.392 . S
C1732 C1735 1.511 . S
C1733 C1729 1.376 . S
C1733 C1732 1.392 . S
C1733 H1745 0.929 . S
C1734 C1730 1.531 . S
C1734 H1746 0.960 . S
C1734 H1747 0.962 . S
C1734 H1748 0.960 . S
C1735 C1732 1.511 . S
C1735 H1749 0.961 . S
C1735 H1750 0.961 . S
C1735 H1751 0.961 . S
C1736 C1737 1.370 . S
C1736 C1738 1.363 . S
C1736 H1752 0.931 . S
C1737 C1736 1.370 . S
C1737 C1741 1.408 . S
C1738 C1736 1.363 . S
C1738 C1739 1.370 . S
C1738 C1742 1.524 . S
C1739 C1731 1.503 . S
C1739 C1738 1.370 . S
C1739 C1740 1.403 . S
C1740 C1739 1.403 . S
C1740 C1741 1.404 . S
C1740 C1743 1.539 . S
C1741 C1737 1.408 . S
C1741 C1740 1.404 . S
C1741 H1753 0.930 . S
C1742 C1738 1.524 . S
C1742 H1754 0.956 . S
C1742 H1755 0.961 . S
C1742 H1756 0.961 . S
C1743 C1740 1.539 . S
C1743 H1757 0.958 . S
C1743 H1758 0.961 . S
C1743 H1759 0.960 . S
H1744 C1728 0.931 . S
H1745 C1733 0.929 . S
H1746 C1734 0.960 . S
H1747 C1734 0.962 . S
H1748 C1734 0.960 . S
H1749 C1735 0.961 . S
H1750 C1735 0.961 . S
H1751 C1735 0.961 . S
H1752 C1736 0.931 . S
H1753 C1741 0.930 . S
H1754 C1742 0.956 . S
H1755 C1742 0.961 . S
H1756 C1742 0.961 . S
H1757 C1743 0.958 . S
H1758 C1743 0.961 . S
H1759 C1743 0.960 . S
C1760 C1761 1.391 . S
C1760 C1762 1.394 . S
C1760 H1776 0.931 . S
C1761 C1760 1.391 . S
C1761 C1765 1.376 . S
C1762 C1760 1.394 . S
C1762 C1763 1.369 . S
C1762 C1766 1.531 . S
C1763 C1762 1.369 . S
C1763 C1764 1.410 . S
C1763 C1771 1.503 . S
C1764 C1763 1.410 . S
C1764 C1765 1.392 . S
C1764 C1767 1.511 . S
C1765 C1761 1.376 . S
C1765 C1764 1.392 . S
C1765 H1777 0.929 . S
C1766 C1762 1.531 . S
C1766 H1778 0.960 . S
C1766 H1779 0.962 . S
C1766 H1780 0.960 . S
C1767 C1764 1.511 . S
C1767 H1781 0.961 . S
C1767 H1782 0.961 . S
C1767 H1783 0.961 . S
C1768 C1769 1.370 . S
C1768 C1770 1.363 . S
C1768 H1784 0.931 . S
C1769 C1768 1.370 . S
C1769 C1773 1.408 . S
C1770 C1768 1.363 . S
C1770 C1771 1.370 . S
C1770 C1774 1.524 . S
C1771 C1763 1.503 . S
C1771 C1770 1.370 . S
C1771 C1772 1.403 . S
C1772 C1771 1.403 . S
C1772 C1773 1.404 . S
C1772 C1775 1.539 . S
C1773 C1769 1.408 . S
C1773 C1772 1.404 . S
C1773 H1785 0.930 . S
C1774 C1770 1.524 . S
C1774 H1786 0.956 . S
C1774 H1787 0.961 . S
C1774 H1788 0.961 . S
C1775 C1772 1.539 . S
C1775 H1789 0.958 . S
C1775 H1790 0.961 . S
C1775 H1791 0.960 . S
H1776 C1760 0.931 . S
H1777 C1765 0.929 . S
H1778 C1766 0.960 . S
H1779 C1766 0.962 . S
H1780 C1766 0.960 . S
H1781 C1767 0.961 . S
H1782 C1767 0.961 . S
H1783 C1767 0.961 . S
H1784 C1768 0.931 . S
H1785 C1773 0.930 . S
H1786 C1774 0.956 . S
H1787 C1774 0.961 . S
H1788 C1774 0.961 . S
H1789 C1775 0.958 . S
H1790 C1775 0.961 . S
H1791 C1775 0.960 . S
C1792 C1793 1.391 . S
C1792 C1794 1.394 . S
C1792 H1808 0.931 . S
C1793 C1792 1.391 . S
C1793 C1797 1.376 1_455 S
C1794 C1792 1.394 . S
C1794 C1795 1.369 . S
C1794 C1798 1.531 . S
C1795 C1794 1.369 . S
C1795 C1796 1.410 1_455 S
C1795 C1803 1.503 . S
C1796 C1795 1.410 1_655 S
C1796 C1797 1.392 . S
C1796 C1799 1.511 . S
C1797 C1793 1.376 1_655 S
C1797 C1796 1.392 . S
C1797 H1809 0.929 . S
C1798 C1794 1.531 . S
C1798 H1810 0.960 . S
C1798 H1811 0.962 . S
C1798 H1812 0.960 . S
C1799 C1796 1.511 . S
C1799 H1813 0.961 . S
C1799 H1814 0.961 . S
C1799 H1815 0.961 . S
C1800 C1801 1.370 . S
C1800 C1802 1.363 . S
C1800 H1816 0.931 . S
C1801 C1800 1.370 . S
C1801 C1805 1.408 1_455 S
C1802 C1800 1.363 . S
C1802 C1803 1.370 . S
C1802 C1806 1.524 . S
C1803 C1795 1.503 . S
C1803 C1802 1.370 . S
C1803 C1804 1.403 1_455 S
C1804 C1803 1.403 1_655 S
C1804 C1805 1.404 . S
C1804 C1807 1.539 . S
C1805 C1801 1.408 1_655 S
C1805 C1804 1.404 . S
C1805 H1817 0.930 . S
C1806 C1802 1.524 . S
C1806 H1818 0.956 . S
C1806 H1819 0.961 . S
C1806 H1820 0.961 . S
C1807 C1804 1.539 . S
C1807 H1821 0.958 . S
C1807 H1822 0.961 . S
C1807 H1823 0.960 . S
H1808 C1792 0.931 . S
H1809 C1797 0.929 . S
H1810 C1798 0.960 . S
H1811 C1798 0.962 . S
H1812 C1798 0.960 . S
H1813 C1799 0.961 . S
H1814 C1799 0.961 . S
H1815 C1799 0.961 . S
H1816 C1800 0.931 . S
H1817 C1805 0.930 . S
H1818 C1806 0.956 . S
H1819 C1806 0.961 . S
H1820 C1806 0.961 . S
H1821 C1807 0.958 . S
H1822 C1807 0.961 . S
H1823 C1807 0.960 . S
C1824 C1825 1.391 . S
C1824 C1826 1.394 . S
C1824 H1840 0.931 . S
C1825 C1824 1.391 . S
C1825 C1829 1.376 . S
C1826 C1824 1.394 . S
C1826 C1827 1.369 . S
C1826 C1830 1.531 . S
C1827 C1826 1.369 . S
C1827 C1828 1.410 . S
C1827 C1835 1.503 . S
C1828 C1827 1.410 . S
C1828 C1829 1.392 . S
C1828 C1831 1.511 . S
C1829 C1825 1.376 . S
C1829 C1828 1.392 . S
C1829 H1841 0.929 . S
C1830 C1826 1.531 . S
C1830 H1842 0.960 . S
C1830 H1843 0.962 . S
C1830 H1844 0.960 . S
C1831 C1828 1.511 . S
C1831 H1845 0.961 . S
C1831 H1846 0.961 . S
C1831 H1847 0.961 . S
C1832 C1833 1.370 . S
C1832 C1834 1.363 . S
C1832 H1848 0.931 . S
C1833 C1832 1.370 . S
C1833 C1837 1.408 . S
C1834 C1832 1.363 . S
C1834 C1835 1.370 . S
C1834 C1838 1.524 . S
C1835 C1827 1.503 . S
C1835 C1834 1.370 . S
C1835 C1836 1.403 . S
C1836 C1835 1.403 . S
C1836 C1837 1.404 . S
C1836 C1839 1.539 . S
C1837 C1833 1.408 . S
C1837 C1836 1.404 . S
C1837 H1849 0.930 . S
C1838 C1834 1.524 . S
C1838 H1850 0.956 . S
C1838 H1851 0.961 . S
C1838 H1852 0.961 . S
C1839 C1836 1.539 . S
C1839 H1853 0.958 . S
C1839 H1854 0.961 . S
C1839 H1855 0.960 . S
H1840 C1824 0.931 . S
H1841 C1829 0.929 . S
H1842 C1830 0.960 . S
H1843 C1830 0.962 . S
H1844 C1830 0.960 . S
H1845 C1831 0.961 . S
H1846 C1831 0.961 . S
H1847 C1831 0.961 . S
H1848 C1832 0.931 . S
H1849 C1837 0.930 . S
H1850 C1838 0.956 . S
H1851 C1838 0.961 . S
H1852 C1838 0.961 . S
H1853 C1839 0.958 . S
H1854 C1839 0.961 . S
H1855 C1839 0.960 . S
C1856 C1857 1.391 . S
C1856 C1858 1.394 . S
C1856 H1872 0.931 . S
C1857 C1856 1.391 . S
C1857 C1861 1.376 . S
C1858 C1856 1.394 . S
C1858 C1859 1.369 . S
C1858 C1862 1.531 . S
C1859 C1858 1.369 . S
C1859 C1860 1.410 . S
C1859 C1867 1.503 . S
C1860 C1859 1.410 . S
C1860 C1861 1.392 . S
C1860 C1863 1.511 . S
C1861 C1857 1.376 . S
C1861 C1860 1.392 . S
C1861 H1873 0.929 . S
C1862 C1858 1.531 . S
C1862 H1874 0.960 . S
C1862 H1875 0.962 . S
C1862 H1876 0.960 . S
C1863 C1860 1.511 . S
C1863 H1877 0.961 . S
C1863 H1878 0.961 . S
C1863 H1879 0.961 . S
C1864 C1865 1.366 1_655 S
C1864 C1866 1.361 1_655 S
C1864 H1880 0.937 . S
C1865 C1864 1.366 1_455 S
C1865 C1869 1.408 . S
C1866 C1864 1.361 1_455 S
C1866 C1867 1.370 . S
C1866 C1870 1.524 1_455 S
C1867 C1859 1.503 . S
C1867 C1866 1.370 . S
C1867 C1868 1.403 . S
C1868 C1867 1.403 . S
C1868 C1869 1.404 . S
C1868 C1871 1.539 . S
C1869 C1865 1.408 . S
C1869 C1868 1.404 . S
C1869 H1881 0.930 . S
C1870 C1866 1.524 1_655 S
C1870 H1882 0.956 . S
C1870 H1883 0.961 . S
C1870 H1884 0.961 . S
C1871 C1868 1.539 . S
C1871 H1885 0.958 . S
C1871 H1886 0.961 . S
C1871 H1887 0.960 . S
H1872 C1856 0.931 . S
H1873 C1861 0.929 . S
H1874 C1862 0.960 . S
H1875 C1862 0.962 . S
H1876 C1862 0.960 . S
H1877 C1863 0.961 . S
H1878 C1863 0.961 . S
H1879 C1863 0.961 . S
H1880 C1864 0.937 . S
H1881 C1869 0.930 . S
H1882 C1870 0.956 . S
H1883 C1870 0.961 . S
H1884 C1870 0.961 . S
H1885 C1871 0.958 . S
H1886 C1871 0.961 . S
H1887 C1871 0.960 . S
C1888 C1889 1.391 . S
C1888 C1890 1.394 . S
C1888 H1904 0.931 . S
C1889 C1888 1.391 . S
C1889 C1893 1.376 . S
C1890 C1888 1.394 . S
C1890 C1891 1.369 . S
C1890 C1894 1.531 . S
C1891 C1890 1.369 . S
C1891 C1892 1.410 . S
C1891 C1899 1.503 . S
C1892 C1891 1.410 . S
C1892 C1893 1.392 . S
C1892 C1895 1.511 . S
C1893 C1889 1.376 . S
C1893 C1892 1.392 . S
C1893 H1905 0.929 . S
C1894 C1890 1.531 . S
C1894 H1906 0.960 . S
C1894 H1907 0.962 . S
C1894 H1908 0.960 . S
C1895 C1892 1.511 . S
C1895 H1909 0.961 . S
C1895 H1910 0.961 . S
C1895 H1911 0.961 . S
C1896 C1897 1.370 . S
C1896 C1898 1.363 . S
C1896 H1912 0.931 . S
C1897 C1896 1.370 . S
C1897 C1901 1.408 . S
C1898 C1896 1.363 . S
C1898 C1899 1.370 . S
C1898 C1902 1.524 . S
C1899 C1891 1.503 . S
C1899 C1898 1.370 . S
C1899 C1900 1.403 . S
C1900 C1899 1.403 . S
C1900 C1901 1.404 . S
C1900 C1903 1.539 . S
C1901 C1897 1.408 . S
C1901 C1900 1.404 . S
C1901 H1913 0.930 . S
C1902 C1898 1.524 . S
C1902 H1914 0.956 . S
C1902 H1915 0.961 . S
C1902 H1916 0.961 . S
C1903 C1900 1.539 . S
C1903 H1917 0.958 . S
C1903 H1918 0.961 . S
C1903 H1919 0.960 . S
H1904 C1888 0.931 . S
H1905 C1893 0.929 . S
H1906 C1894 0.960 . S
H1907 C1894 0.962 . S
H1908 C1894 0.960 . S
H1909 C1895 0.961 . S
H1910 C1895 0.961 . S
H1911 C1895 0.961 . S
H1912 C1896 0.931 . S
H1913 C1901 0.930 . S
H1914 C1902 0.956 . S
H1915 C1902 0.961 . S
H1916 C1902 0.961 . S
H1917 C1903 0.958 . S
H1918 C1903 0.961 . S
H1919 C1903 0.960 . S
C1920 C1921 1.391 . S
C1920 C1922 1.394 . S
C1920 H1936 0.931 . S
C1921 C1920 1.391 . S
C1921 C1925 1.376 . S
C1922 C1920 1.394 . S
C1922 C1923 1.369 . S
C1922 C1926 1.531 . S
C1923 C1922 1.369 . S
C1923 C1924 1.410 . S
C1923 C1931 1.503 . S
C1924 C1923 1.410 . S
C1924 C1925 1.392 . S
C1924 C1927 1.511 . S
C1925 C1921 1.376 . S
C1925 C1924 1.392 . S
C1925 H1937 0.929 . S
C1926 C1922 1.531 . S
C1926 H1938 0.960 . S
C1926 H1939 0.962 . S
C1926 H1940 0.960 . S
C1927 C1924 1.511 . S
C1927 H1941 0.961 . S
C1927 H1942 0.961 . S
C1927 H1943 0.961 . S
C1928 C1929 1.370 . S
C1928 C1930 1.363 . S
C1928 H1944 0.931 . S
C1929 C1928 1.370 . S
C1929 C1933 1.408 . S
C1930 C1928 1.363 . S
C1930 C1931 1.370 . S
C1930 C1934 1.524 . S
C1931 C1923 1.503 . S
C1931 C1930 1.370 . S
C1931 C1932 1.403 . S
C1932 C1931 1.403 . S
C1932 C1933 1.404 . S
C1932 C1935 1.539 . S
C1933 C1929 1.408 . S
C1933 C1932 1.404 . S
C1933 H1945 0.930 . S
C1934 C1930 1.524 . S
C1934 H1946 0.956 . S
C1934 H1947 0.961 . S
C1934 H1948 0.961 . S
C1935 C1932 1.539 . S
C1935 H1949 0.958 . S
C1935 H1950 0.961 . S
C1935 H1951 0.960 . S
H1936 C1920 0.931 . S
H1937 C1925 0.929 . S
H1938 C1926 0.960 . S
H1939 C1926 0.962 . S
H1940 C1926 0.960 . S
H1941 C1927 0.961 . S
H1942 C1927 0.961 . S
H1943 C1927 0.961 . S
H1944 C1928 0.931 . S
H1945 C1933 0.930 . S
H1946 C1934 0.956 . S
H1947 C1934 0.961 . S
H1948 C1934 0.961 . S
H1949 C1935 0.958 . S
H1950 C1935 0.961 . S
H1951 C1935 0.960 . S
C1952 C1953 1.391 . S
C1952 C1954 1.394 . S
C1952 H1968 0.931 . S
C1953 C1952 1.391 . S
C1953 C1957 1.376 . S
C1954 C1952 1.394 . S
C1954 C1955 1.369 . S
C1954 C1958 1.531 . S
C1955 C1954 1.369 . S
C1955 C1956 1.410 . S
C1955 C1963 1.503 . S
C1956 C1955 1.410 . S
C1956 C1957 1.392 . S
C1956 C1959 1.511 . S
C1957 C1953 1.376 . S
C1957 C1956 1.392 . S
C1957 H1969 0.929 . S
C1958 C1954 1.531 . S
C1958 H1970 0.960 . S
C1958 H1971 0.962 . S
C1958 H1972 0.960 . S
C1959 C1956 1.511 . S
C1959 H1973 0.961 . S
C1959 H1974 0.961 . S
C1959 H1975 0.961 . S
C1960 C1961 1.370 . S
C1960 C1962 1.363 . S
C1960 H1976 0.931 . S
C1961 C1960 1.370 . S
C1961 C1965 1.408 . S
C1962 C1960 1.363 . S
C1962 C1963 1.370 . S
C1962 C1966 1.524 . S
C1963 C1955 1.503 . S
C1963 C1962 1.370 . S
C1963 C1964 1.403 . S
C1964 C1963 1.403 . S
C1964 C1965 1.404 . S
C1964 C1967 1.539 . S
C1965 C1961 1.408 . S
C1965 C1964 1.404 . S
C1965 H1977 0.930 . S
C1966 C1962 1.524 . S
C1966 H1978 0.956 . S
C1966 H1979 0.961 . S
C1966 H1980 0.961 . S
C1967 C1964 1.539 . S
C1967 H1981 0.958 . S
C1967 H1982 0.961 . S
C1967 H1983 0.960 . S
H1968 C1952 0.931 . S
H1969 C1957 0.929 . S
H1970 C1958 0.960 . S
H1971 C1958 0.962 . S
H1972 C1958 0.960 . S
H1973 C1959 0.961 . S
H1974 C1959 0.961 . S
H1975 C1959 0.961 . S
H1976 C1960 0.931 . S
H1977 C1965 0.930 . S
H1978 C1966 0.956 . S
H1979 C1966 0.961 . S
H1980 C1966 0.961 . S
H1981 C1967 0.958 . S
H1982 C1967 0.961 . S
H1983 C1967 0.960 . S
C1984 C1985 1.391 . S
C1984 C1986 1.394 . S
C1984 H2000 0.931 . S
C1985 C1984 1.391 . S
C1985 C1989 1.376 . S
C1986 C1984 1.394 . S
C1986 C1987 1.369 . S
C1986 C1990 1.531 . S
C1987 C1986 1.369 . S
C1987 C1988 1.410 . S
C1987 C1995 1.503 . S
C1988 C1987 1.410 . S
C1988 C1989 1.392 . S
C1988 C1991 1.511 . S
C1989 C1985 1.376 . S
C1989 C1988 1.392 . S
C1989 H2001 0.929 . S
C1990 C1986 1.531 . S
C1990 H2002 0.960 . S
C1990 H2003 0.962 . S
C1990 H2004 0.960 . S
C1991 C1988 1.511 . S
C1991 H2005 0.961 . S
C1991 H2006 0.961 . S
C1991 H2007 0.961 . S
C1992 C1993 1.370 . S
C1992 C1994 1.363 . S
C1992 H2008 0.931 . S
C1993 C1992 1.370 . S
C1993 C1997 1.408 . S
C1994 C1992 1.363 . S
C1994 C1995 1.370 . S
C1994 C1998 1.524 . S
C1995 C1987 1.503 . S
C1995 C1994 1.370 . S
C1995 C1996 1.403 . S
C1996 C1995 1.403 . S
C1996 C1997 1.404 . S
C1996 C1999 1.539 . S
C1997 C1993 1.408 . S
C1997 C1996 1.404 . S
C1997 H2009 0.930 . S
C1998 C1994 1.524 . S
C1998 H2010 0.956 . S
C1998 H2011 0.961 . S
C1998 H2012 0.961 . S
C1999 C1996 1.539 . S
C1999 H2013 0.958 . S
C1999 H2014 0.961 . S
C1999 H2015 0.960 . S
H2000 C1984 0.931 . S
H2001 C1989 0.929 . S
H2002 C1990 0.960 . S
H2003 C1990 0.962 . S
H2004 C1990 0.960 . S
H2005 C1991 0.961 . S
H2006 C1991 0.961 . S
H2007 C1991 0.961 . S
H2008 C1992 0.931 . S
H2009 C1997 0.930 . S
H2010 C1998 0.956 . S
H2011 C1998 0.961 . S
H2012 C1998 0.961 . S
H2013 C1999 0.958 . S
H2014 C1999 0.961 . S
H2015 C1999 0.960 . S
C2016 C2017 1.391 . S
C2016 C2018 1.394 . S
C2016 H2032 0.931 . S
C2017 C2016 1.391 . S
C2017 C2021 1.376 . S
C2018 C2016 1.394 . S
C2018 C2019 1.369 . S
C2018 C2022 1.531 . S
C2019 C2018 1.369 . S
C2019 C2020 1.410 . S
C2019 C2027 1.503 . S
C2020 C2019 1.410 . S
C2020 C2021 1.392 . S
C2020 C2023 1.511 . S
C2021 C2017 1.376 . S
C2021 C2020 1.392 . S
C2021 H2033 0.929 . S
C2022 C2018 1.531 . S
C2022 H2034 0.960 . S
C2022 H2035 0.962 . S
C2022 H2036 0.960 . S
C2023 C2020 1.511 . S
C2023 H2037 0.961 . S
C2023 H2038 0.961 . S
C2023 H2039 0.961 . S
C2024 C2025 1.370 . S
C2024 C2026 1.363 . S
C2024 H2040 0.931 . S
C2025 C2024 1.370 . S
C2025 C2029 1.408 . S
C2026 C2024 1.363 . S
C2026 C2027 1.370 . S
C2026 C2030 1.524 . S
C2027 C2019 1.503 . S
C2027 C2026 1.370 . S
C2027 C2028 1.403 . S
C2028 C2027 1.403 . S
C2028 C2029 1.404 . S
C2028 C2031 1.539 . S
C2029 C2025 1.408 . S
C2029 C2028 1.404 . S
C2029 H2041 0.930 . S
C2030 C2026 1.524 . S
C2030 H2042 0.956 . S
C2030 H2043 0.961 . S
C2030 H2044 0.961 . S
C2031 C2028 1.539 . S
C2031 H2045 0.958 . S
C2031 H2046 0.961 . S
C2031 H2047 0.960 . S
H2032 C2016 0.931 . S
H2033 C2021 0.929 . S
H2034 C2022 0.960 . S
H2035 C2022 0.962 . S
H2036 C2022 0.960 . S
H2037 C2023 0.961 . S
H2038 C2023 0.961 . S
H2039 C2023 0.961 . S
H2040 C2024 0.931 . S
H2041 C2029 0.930 . S
H2042 C2030 0.956 . S
H2043 C2030 0.961 . S
H2044 C2030 0.961 . S
H2045 C2031 0.958 . S
H2046 C2031 0.961 . S
H2047 C2031 0.960 . S
C2048 C2049 1.391 . S
C2048 C2050 1.394 . S
C2048 H2064 0.931 . S
C2049 C2048 1.391 . S
C2049 C2053 1.376 . S
C2050 C2048 1.394 . S
C2050 C2051 1.369 . S
C2050 C2054 1.531 . S
C2051 C2050 1.369 . S
C2051 C2052 1.410 . S
C2051 C2059 1.503 . S
C2052 C2051 1.410 . S
C2052 C2053 1.392 . S
C2052 C2055 1.511 . S
C2053 C2049 1.376 . S
C2053 C2052 1.392 . S
C2053 H2065 0.929 . S
C2054 C2050 1.531 . S
C2054 H2066 0.960 . S
C2054 H2067 0.962 . S
C2054 H2068 0.960 . S
C2055 C2052 1.511 . S
C2055 H2069 0.961 . S
C2055 H2070 0.961 . S
C2055 H2071 0.961 . S
C2056 C2057 1.370 . S
C2056 C2058 1.363 . S
C2056 H2072 0.931 . S
C2057 C2056 1.370 . S
C2057 C2061 1.408 . S
C2058 C2056 1.363 . S
C2058 C2059 1.370 . S
C2058 C2062 1.524 . S
C2059 C2051 1.503 . S
C2059 C2058 1.370 . S
C2059 C2060 1.403 . S
C2060 C2059 1.403 . S
C2060 C2061 1.404 . S
C2060 C2063 1.539 . S
C2061 C2057 1.408 . S
C2061 C2060 1.404 . S
C2061 H2073 0.930 . S
C2062 C2058 1.524 . S
C2062 H2074 0.956 . S
C2062 H2075 0.961 . S
C2062 H2076 0.961 . S
C2063 C2060 1.539 . S
C2063 H2077 0.958 . S
C2063 H2078 0.961 . S
C2063 H2079 0.960 . S
H2064 C2048 0.931 . S
H2065 C2053 0.929 . S
H2066 C2054 0.960 . S
H2067 C2054 0.962 . S
H2068 C2054 0.960 . S
H2069 C2055 0.961 . S
H2070 C2055 0.961 . S
H2071 C2055 0.961 . S
H2072 C2056 0.931 . S
H2073 C2061 0.930 . S
H2074 C2062 0.956 . S
H2075 C2062 0.961 . S
H2076 C2062 0.961 . S
H2077 C2063 0.958 . S
H2078 C2063 0.961 . S
H2079 C2063 0.960 . S
C2080 C2081 1.391 . S
C2080 C2082 1.394 . S
C2080 H2096 0.931 . S
C2081 C2080 1.391 . S
C2081 C2085 1.376 . S
C2082 C2080 1.394 . S
C2082 C2083 1.369 . S
C2082 C2086 1.531 . S
C2083 C2082 1.369 . S
C2083 C2084 1.410 . S
C2083 C2091 1.503 . S
C2084 C2083 1.410 . S
C2084 C2085 1.392 . S
C2084 C2087 1.511 . S
C2085 C2081 1.376 . S
C2085 C2084 1.392 . S
C2085 H2097 0.929 . S
C2086 C2082 1.531 . S
C2086 H2098 0.960 . S
C2086 H2099 0.962 . S
C2086 H2100 0.960 . S
C2087 C2084 1.511 . S
C2087 H2101 0.961 . S
C2087 H2102 0.961 . S
C2087 H2103 0.961 . S
C2088 C2089 1.370 . S
C2088 C2090 1.363 . S
C2088 H2104 0.931 . S
C2089 C2088 1.370 . S
C2089 C2093 1.408 . S
C2090 C2088 1.363 . S
C2090 C2091 1.370 . S
C2090 C2094 1.524 . S
C2091 C2083 1.503 . S
C2091 C2090 1.370 . S
C2091 C2092 1.403 . S
C2092 C2091 1.403 . S
C2092 C2093 1.404 . S
C2092 C2095 1.539 . S
C2093 C2089 1.408 . S
C2093 C2092 1.404 . S
C2093 H2105 0.930 . S
C2094 C2090 1.524 . S
C2094 H2106 0.956 . S
C2094 H2107 0.961 . S
C2094 H2108 0.961 . S
C2095 C2092 1.539 . S
C2095 H2109 0.958 . S
C2095 H2110 0.961 . S
C2095 H2111 0.960 . S
H2096 C2080 0.931 . S
H2097 C2085 0.929 . S
H2098 C2086 0.960 . S
H2099 C2086 0.962 . S
H2100 C2086 0.960 . S
H2101 C2087 0.961 . S
H2102 C2087 0.961 . S
H2103 C2087 0.961 . S
H2104 C2088 0.931 . S
H2105 C2093 0.930 . S
H2106 C2094 0.956 . S
H2107 C2094 0.961 . S
H2108 C2094 0.961 . S
H2109 C2095 0.958 . S
H2110 C2095 0.961 . S
H2111 C2095 0.960 . S
C2112 C2113 1.391 . S
C2112 C2114 1.394 . S
C2112 H2128 0.931 . S
C2113 C2112 1.391 . S
C2113 C2117 1.376 . S
C2114 C2112 1.394 . S
C2114 C2115 1.369 . S
C2114 C2118 1.531 . S
C2115 C2114 1.369 . S
C2115 C2116 1.410 . S
C2115 C2123 1.503 . S
C2116 C2115 1.410 . S
C2116 C2117 1.392 . S
C2116 C2119 1.511 . S
C2117 C2113 1.376 . S
C2117 C2116 1.392 . S
C2117 H2129 0.929 . S
C2118 C2114 1.531 . S
C2118 H2130 0.960 . S
C2118 H2131 0.962 . S
C2118 H2132 0.960 . S
C2119 C2116 1.511 . S
C2119 H2133 0.961 . S
C2119 H2134 0.961 . S
C2119 H2135 0.961 . S
C2120 C2121 1.370 . S
C2120 C2122 1.363 . S
C2120 H2136 0.931 . S
C2121 C2120 1.370 . S
C2121 C2125 1.408 . S
C2122 C2120 1.363 . S
C2122 C2123 1.370 . S
C2122 C2126 1.524 . S
C2123 C2115 1.503 . S
C2123 C2122 1.370 . S
C2123 C2124 1.403 . S
C2124 C2123 1.403 . S
C2124 C2125 1.404 . S
C2124 C2127 1.539 . S
C2125 C2121 1.408 . S
C2125 C2124 1.404 . S
C2125 H2137 0.930 . S
C2126 C2122 1.524 . S
C2126 H2138 0.956 . S
C2126 H2139 0.961 . S
C2126 H2140 0.961 . S
C2127 C2124 1.539 . S
C2127 H2141 0.958 . S
C2127 H2142 0.961 . S
C2127 H2143 0.960 . S
H2128 C2112 0.931 . S
H2129 C2117 0.929 . S
H2130 C2118 0.960 . S
H2131 C2118 0.962 . S
H2132 C2118 0.960 . S
H2133 C2119 0.961 . S
H2134 C2119 0.961 . S
H2135 C2119 0.961 . S
H2136 C2120 0.931 . S
H2137 C2125 0.930 . S
H2138 C2126 0.956 . S
H2139 C2126 0.961 . S
H2140 C2126 0.961 . S
H2141 C2127 0.958 . S
H2142 C2127 0.961 . S
H2143 C2127 0.960 . S
C2144 C2145 1.391 . S
C2144 C2146 1.394 . S
C2144 H2160 0.931 . S
C2145 C2144 1.391 . S
C2145 C2149 1.360 1_556 S
C2146 C2144 1.394 . S
C2146 C2147 1.369 . S
C2146 C2150 1.531 . S
C2147 C2146 1.369 . S
C2147 C2148 1.410 1_556 S
C2147 C2155 1.503 . S
C2148 C2147 1.410 1_554 S
C2148 C2149 1.388 . S
C2148 C2151 1.511 . S
C2149 C2145 1.360 1_554 S
C2149 C2148 1.388 . S
C2149 H2161 0.951 . S
C2150 C2146 1.531 . S
C2150 H2162 0.960 . S
C2150 H2163 0.962 . S
C2150 H2164 0.960 . S
C2151 C2148 1.511 . S
C2151 H2165 0.961 . S
C2151 H2166 0.961 . S
C2151 H2167 0.961 . S
C2152 C2153 1.370 1_554 S
C2152 C2154 1.363 . S
C2152 H2168 0.931 . S
C2153 C2152 1.370 1_556 S
C2153 C2157 1.408 . S
C2154 C2152 1.363 . S
C2154 C2155 1.370 1_554 S
C2154 C2158 1.524 . S
C2155 C2147 1.503 . S
C2155 C2154 1.370 1_556 S
C2155 C2156 1.403 . S
C2156 C2155 1.403 . S
C2156 C2157 1.404 . S
C2156 C2159 1.539 . S
C2157 C2153 1.408 . S
C2157 C2156 1.404 . S
C2157 H2169 0.930 . S
C2158 C2154 1.524 . S
C2158 H2170 0.956 . S
C2158 H2171 0.961 . S
C2158 H2172 0.961 . S
C2159 C2156 1.539 . S
C2159 H2173 0.958 . S
C2159 H2174 0.961 . S
C2159 H2175 0.960 . S
H2160 C2144 0.931 . S
H2161 C2149 0.951 . S
H2162 C2150 0.960 . S
H2163 C2150 0.962 . S
H2164 C2150 0.960 . S
H2165 C2151 0.961 . S
H2166 C2151 0.961 . S
H2167 C2151 0.961 . S
H2168 C2152 0.931 . S
H2169 C2157 0.930 . S
H2170 C2158 0.956 . S
H2171 C2158 0.961 . S
H2172 C2158 0.961 . S
H2173 C2159 0.958 . S
H2174 C2159 0.961 . S
H2175 C2159 0.960 . S
C2176 C2177 1.391 . S
C2176 C2178 1.394 . S
C2176 H2192 0.931 . S
C2177 C2176 1.391 . S
C2177 C2181 1.376 . S
C2178 C2176 1.394 . S
C2178 C2179 1.369 . S
C2178 C2182 1.531 . S
C2179 C2178 1.369 . S
C2179 C2180 1.410 . S
C2179 C2187 1.503 . S
C2180 C2179 1.410 . S
C2180 C2181 1.392 . S
C2180 C2183 1.511 . S
C2181 C2177 1.376 . S
C2181 C2180 1.392 . S
C2181 H2193 0.929 . S
C2182 C2178 1.531 . S
C2182 H2194 0.960 . S
C2182 H2195 0.962 . S
C2182 H2196 0.960 . S
C2183 C2180 1.511 . S
C2183 H2197 0.961 . S
C2183 H2198 0.961 . S
C2183 H2199 0.961 . S
C2184 C2185 1.370 . S
C2184 C2186 1.363 . S
C2184 H2200 0.931 . S
C2185 C2184 1.370 . S
C2185 C2189 1.408 . S
C2186 C2184 1.363 . S
C2186 C2187 1.370 . S
C2186 C2190 1.524 . S
C2187 C2179 1.503 . S
C2187 C2186 1.370 . S
C2187 C2188 1.403 . S
C2188 C2187 1.403 . S
C2188 C2189 1.404 . S
C2188 C2191 1.539 . S
C2189 C2185 1.408 . S
C2189 C2188 1.404 . S
C2189 H2201 0.930 . S
C2190 C2186 1.524 . S
C2190 H2202 0.956 . S
C2190 H2203 0.961 . S
C2190 H2204 0.961 . S
C2191 C2188 1.539 . S
C2191 H2205 0.958 . S
C2191 H2206 0.961 . S
C2191 H2207 0.960 . S
H2192 C2176 0.931 . S
H2193 C2181 0.929 . S
H2194 C2182 0.960 . S
H2195 C2182 0.962 . S
H2196 C2182 0.960 . S
H2197 C2183 0.961 . S
H2198 C2183 0.961 . S
H2199 C2183 0.961 . S
H2200 C2184 0.931 . S
H2201 C2189 0.930 . S
H2202 C2190 0.956 . S
H2203 C2190 0.961 . S
H2204 C2190 0.961 . S
H2205 C2191 0.958 . S
H2206 C2191 0.961 . S
H2207 C2191 0.960 . S
C2208 C2209 1.391 . S
C2208 C2210 1.394 . S
C2208 H2224 0.931 . S
C2209 C2208 1.391 . S
C2209 C2213 1.376 . S
C2210 C2208 1.394 . S
C2210 C2211 1.369 . S
C2210 C2214 1.531 . S
C2211 C2210 1.369 . S
C2211 C2212 1.410 1_554 S
C2211 C2219 1.503 . S
C2212 C2211 1.410 1_556 S
C2212 C2213 1.392 1_556 S
C2212 C2215 1.511 . S
C2213 C2209 1.376 . S
C2213 C2212 1.392 1_554 S
C2213 H2225 0.929 1_554 S
C2214 C2210 1.531 . S
C2214 H2226 0.960 . S
C2214 H2227 0.962 . S
C2214 H2228 0.960 . S
C2215 C2212 1.511 . S
C2215 H2229 0.961 . S
C2215 H2230 0.961 . S
C2215 H2231 0.961 . S
C2216 C2217 1.397 . S
C2216 C2218 1.363 . S
C2216 H2232 0.931 . S
C2217 C2216 1.397 . S
C2217 C2221 1.393 1_554 S
C2218 C2216 1.363 . S
C2218 C2219 1.370 . S
C2218 C2222 1.524 . S
C2219 C2211 1.503 . S
C2219 C2218 1.370 . S
C2219 C2220 1.403 1_554 S
C2220 C2219 1.403 1_556 S
C2220 C2221 1.404 . S
C2220 C2223 1.539 . S
C2221 C2217 1.393 1_556 S
C2221 C2220 1.404 . S
C2221 H2233 0.930 . S
C2222 C2218 1.524 . S
C2222 H2234 0.956 . S
C2222 H2235 0.961 . S
C2222 H2236 0.961 . S
C2223 C2220 1.539 . S
C2223 H2237 0.958 . S
C2223 H2238 0.961 . S
C2223 H2239 0.960 . S
H2224 C2208 0.931 . S
H2225 C2213 0.929 1_556 S
H2226 C2214 0.960 . S
H2227 C2214 0.962 . S
H2228 C2214 0.960 . S
H2229 C2215 0.961 . S
H2230 C2215 0.961 . S
H2231 C2215 0.961 . S
H2232 C2216 0.931 . S
H2233 C2221 0.930 . S
H2234 C2222 0.956 . S
H2235 C2222 0.961 . S
H2236 C2222 0.961 . S
H2237 C2223 0.958 . S
H2238 C2223 0.961 . S
H2239 C2223 0.960 . S
C2240 C2241 1.391 . S
C2240 C2242 1.394 . S
C2240 H2256 0.931 . S
C2241 C2240 1.391 . S
C2241 C2245 1.378 . S
C2242 C2240 1.394 . S
C2242 C2243 1.369 . S
C2242 C2246 1.531 . S
C2243 C2242 1.369 . S
C2243 C2244 1.410 . S
C2243 C2251 1.503 . S
C2244 C2243 1.410 . S
C2244 C2245 1.396 . S
C2244 C2247 1.511 1_565 S
C2245 C2241 1.378 . S
C2245 C2244 1.396 . S
C2245 H2257 0.923 1_565 S
C2246 C2242 1.531 . S
C2246 H2258 0.960 . S
C2246 H2259 0.962 . S
C2246 H2260 0.960 1_554 S
C2247 C2244 1.511 1_545 S
C2247 H2261 0.961 . S
C2247 H2262 0.961 1_545 S
C2247 H2263 0.961 . S
C2248 C2249 1.370 . S
C2248 C2250 1.363 . S
C2248 H2264 0.931 . S
C2249 C2248 1.370 . S
C2249 C2253 1.408 . S
C2250 C2248 1.363 . S
C2250 C2251 1.370 . S
C2250 C2254 1.524 . S
C2251 C2243 1.503 . S
C2251 C2250 1.370 . S
C2251 C2252 1.403 . S
C2252 C2251 1.403 . S
C2252 C2253 1.404 . S
C2252 C2255 1.539 . S
C2253 C2249 1.408 . S
C2253 C2252 1.404 . S
C2253 H2265 0.930 . S
C2254 C2250 1.524 . S
C2254 H2266 0.956 . S
C2254 H2267 0.961 . S
C2254 H2268 0.961 . S
C2255 C2252 1.539 . S
C2255 H2269 0.958 1_554 S
C2255 H2270 0.961 . S
C2255 H2271 0.960 . S
H2256 C2240 0.931 . S
H2257 C2245 0.923 1_545 S
H2258 C2246 0.960 . S
H2259 C2246 0.962 . S
H2260 C2246 0.960 1_556 S
H2261 C2247 0.961 . S
H2262 C2247 0.961 1_565 S
H2263 C2247 0.961 . S
H2264 C2248 0.931 . S
H2265 C2253 0.930 . S
H2266 C2254 0.956 . S
H2267 C2254 0.961 . S
H2268 C2254 0.961 . S
H2269 C2255 0.958 1_556 S
H2270 C2255 0.961 . S
H2271 C2255 0.960 . S
C745 C306 1.831 1_556 S
C737 C101 1.788 . S
C777 C354 1.206 . S
C769 C125 1.168 . S
C801 C139 1.912 . S
C809 C390 1.820 . S
C841 C426 1.782 . S
C833 C82 1.869 . S
C873 C452 1.472 . S
C865 C196 1.483 . S
C905 C488 1.912 . S
C897 C234 1.937 . S
C929 C220 0.923 . S
C937 C523 1.053 . S
C969 C560 1.761 . S
C961 C173 1.745 . S
C993 C211 1.098 . S
C1001 C594 1.096 . S
C1033 C642 1.133 . S
C1025 C182 1.122 . S
C1057 C201 1.219 . S
C1065 C595 1.317 . S
C1097 C632 1.484 . S
C1089 C239 1.384 . S
C1121 C135 1.569 . S
C1129 C678 1.511 . S
C1153 C87 1.870 . S
C1161 C667 2.008 . S
C1185 C106 1.200 . S
C1193 C668 1.348 . S
C1217 C116 1.302 . S
C1225 C666 1.310 1_655 S
C1249 C59 1.741 . S
C1257 C414 1.733 . S
C1281 C268 2.168 . S
C1289 C415 2.197 . S
C1321 C318 1.325 . S
C1313 C291 1.437 . S
C1353 C343 1.401 . S
C1345 C163 1.338 . S
C1377 C78 2.154 1_545 S
C1385 C450 2.168 . S
C1417 C558 1.163 . S
C1409 C215 1.210 . S
C1449 C451 1.589 . S
C1441 C177 1.583 . S
C1481 C524 1.893 . S
C1473 C230 1.906 . S
C1513 C522 1.825 . S
C1505 C272 1.820 . S
C1537 C296 1.164 . S
C1545 C570 1.205 . S
C1569 C158 1.912 . S
C1577 C462 1.817 . S
C1609 C498 1.803 . S
C1601 C253 1.870 . S
C1633 C63 1.469 . S
C1641 C380 1.475 . S
C1673 C416 1.915 . S
C1665 C6 1.927 . S
C1705 C307 1.060 . S
C1697 C30 0.867 . S
C1737 C344 1.762 . S
C1729 C40 1.749 . S
C1761 C21 1.088 . S
C1769 C630 1.103 . S
C1793 C49 1.124 . S
C1801 C606 1.132 . S
C1825 C68 1.103 . S
C1833 C631 1.323 . S
C1857 C11 1.368 . S
C1865 C596 1.483 . S
C1897 C714 1.532 . S
C1889 C154 1.589 . S
C1929 C703 2.010 . S
C1921 C258 1.801 . S
C1961 C704 1.354 . S
C1953 C277 1.158 . S
C1985 C287 1.320 1_554 S
C1993 C702 1.302 . S
C2017 C192 1.737 . S
C2025 C486 1.739 . S
C2057 C487 2.197 . S
C2049 C97 2.173 . S
C2089 C534 1.356 . S
C2081 C120 1.433 . S
C2121 C559 1.404 . S
C2113 C144 1.333 . S
C2145 C249 2.138 . S
C2153 C378 2.170 1_556 S
C2185 C342 1.189 . S
C2177 C25 1.156 . S
C2209 C44 1.587 . S
C2217 C379 1.577 1_554 S
C2249 C308 1.896 . S
C2241 C2 1.901 1_565 S
