# Generated by pormake.
# Topology apo, (3,6)-cn, num edge types: 1
# Building blocks:
#     Node 0, Type 0, BuildingBlock: INOVEN_clean_linker_0, # of connection points: 3
#     Node 1, Type 0, BuildingBlock: INOVEN_clean_linker_0, # of connection points: 3
#     Node 2, Type 0, BuildingBlock: INOVEN_clean_linker_0, # of connection points: 3
#     Node 3, Type 0, BuildingBlock: INOVEN_clean_linker_0, # of connection points: 3
#     Node 4, Type 0, BuildingBlock: INOVEN_clean_linker_0, # of connection points: 3
#     Node 5, Type 0, BuildingBlock: INOVEN_clean_linker_0, # of connection points: 3
#     Node 6, Type 0, BuildingBlock: INOVEN_clean_linker_0, # of connection points: 3
#     Node 7, Type 0, BuildingBlock: INOVEN_clean_linker_0, # of connection points: 3
#     Node 8, Type 1, BuildingBlock: MIDCAF_clean_sbu_0, # of connection points: 6
#     Node 9, Type 1, BuildingBlock: MIDCAF_clean_sbu_0, # of connection points: 6
#     Node 10, Type 1, BuildingBlock: MIDCAF_clean_sbu_0, # of connection points: 6
#     Node 11, Type 1, BuildingBlock: MIDCAF_clean_sbu_0, # of connection points: 6
#     Edge 12, Type (0, 1), BuildingBlock: AJUNOK_clean_linker_0, # of connection points: 2
#     Edge 13, Type (0, 1), BuildingBlock: AJUNOK_clean_linker_0, # of connection points: 2
#     Edge 14, Type (0, 1), BuildingBlock: AJUNOK_clean_linker_0, # of connection points: 2
#     Edge 15, Type (0, 1), BuildingBlock: AJUNOK_clean_linker_0, # of connection points: 2
#     Edge 16, Type (0, 1), BuildingBlock: AJUNOK_clean_linker_0, # of connection points: 2
#     Edge 17, Type (0, 1), BuildingBlock: AJUNOK_clean_linker_0, # of connection points: 2
#     Edge 18, Type (0, 1), BuildingBlock: AJUNOK_clean_linker_0, # of connection points: 2
#     Edge 19, Type (0, 1), BuildingBlock: AJUNOK_clean_linker_0, # of connection points: 2
#     Edge 20, Type (0, 1), BuildingBlock: AJUNOK_clean_linker_0, # of connection points: 2
#     Edge 21, Type (0, 1), BuildingBlock: AJUNOK_clean_linker_0, # of connection points: 2
#     Edge 22, Type (0, 1), BuildingBlock: AJUNOK_clean_linker_0, # of connection points: 2
#     Edge 23, Type (0, 1), BuildingBlock: AJUNOK_clean_linker_0, # of connection points: 2
#     Edge 24, Type (0, 1), BuildingBlock: AJUNOK_clean_linker_0, # of connection points: 2
#     Edge 25, Type (0, 1), BuildingBlock: AJUNOK_clean_linker_0, # of connection points: 2
#     Edge 26, Type (0, 1), BuildingBlock: AJUNOK_clean_linker_0, # of connection points: 2
#     Edge 27, Type (0, 1), BuildingBlock: AJUNOK_clean_linker_0, # of connection points: 2
#     Edge 28, Type (0, 1), BuildingBlock: AJUNOK_clean_linker_0, # of connection points: 2
#     Edge 29, Type (0, 1), BuildingBlock: AJUNOK_clean_linker_0, # of connection points: 2
#     Edge 30, Type (0, 1), BuildingBlock: AJUNOK_clean_linker_0, # of connection points: 2
#     Edge 31, Type (0, 1), BuildingBlock: AJUNOK_clean_linker_0, # of connection points: 2
#     Edge 32, Type (0, 1), BuildingBlock: AJUNOK_clean_linker_0, # of connection points: 2
#     Edge 33, Type (0, 1), BuildingBlock: AJUNOK_clean_linker_0, # of connection points: 2
#     Edge 34, Type (0, 1), BuildingBlock: AJUNOK_clean_linker_0, # of connection points: 2
#     Edge 35, Type (0, 1), BuildingBlock: AJUNOK_clean_linker_0, # of connection points: 2
# Relax obj value: 0.015
# Max RMSD: 0.064
# Mean RMSD: 0.051
data_MOF--net-apo--node1-MIDCAF_clean_sbu_0--node2-INOVEN_clean_linker_0--edge1-AJUNOK_clean_linker_0
_symmetry_space_group_name_H-M    P1
_symmetry_Int_Tables_number       1
_symmetry_cell_setting            triclinic
loop_
_symmetry_equiv_pos_as_xyz
'x, y, z'
_cell_length_a     26.738084
_cell_length_b     30.264055
_cell_length_c     24.724701
_cell_angle_alpha  89.370321
_cell_angle_beta   90.094467
_cell_angle_gamma 89.924598
loop_
_atom_site_label
_atom_site_type_symbol
_atom_site_fract_x
_atom_site_fract_y
_atom_site_fract_z
_atom_type_partial_charge
H0 H 0.3461 0.26745 0.43856 0.0
H1 H 0.42897 0.38904 0.43755 0.0
H2 H 0.35058 0.3486 0.29433 0.0
N3 N 0.31222 0.27335 0.33875 0.0
N4 N 0.28844 0.28146 0.29623 0.0
C5 C 0.35943 0.29665 0.41732 0.0
C6 C 0.38914 0.32744 0.4446 0.0
C7 C 0.34484 0.30425 0.36337 0.0
C8 C 0.36154 0.34252 0.33595 0.0
C9 C 0.39266 0.3729 0.36239 0.0
C10 C 0.40597 0.36515 0.41663 0.0
H11 H 0.21958 0.21075 0.94521 0.0
H12 H 0.0878 0.13088 0.95309 0.0
H13 H 0.18918 0.11793 0.81865 0.0
N14 N 0.24981 0.18538 0.84942 0.0
N15 N 0.25633 0.183 0.79954 0.0
C16 C 0.19537 0.18615 0.9274 0.0
C17 C 0.15273 0.17202 0.95517 0.0
C18 C 0.20679 0.16884 0.8764 0.0
C19 C 0.17766 0.13399 0.85553 0.0
C20 C 0.13589 0.11809 0.88471 0.0
C21 C 0.12164 0.14036 0.93187 0.0
H22 H 0.84587 0.23524 0.59616 0.0
H23 H 0.95927 0.13602 0.58512 0.0
H24 H 0.85913 0.13629 0.72189 0.0
N25 N 0.81144 0.21233 0.69196 0.0
N26 N 0.78729 0.19573 0.7303 0.0
C27 C 0.86501 0.20681 0.61344 0.0
C28 C 0.9034 0.18649 0.58452 0.0
C29 C 0.85024 0.18988 0.66411 0.0
C30 C 0.87304 0.15102 0.68482 0.0
C31 C 0.9125 0.13073 0.65629 0.0
C32 C 0.92851 0.15036 0.60745 0.0
H33 H 0.6909 0.26602 0.10609 0.0
H34 H 0.6022 0.38431 0.09671 0.0
H35 H 0.67992 0.35108 0.24425 0.0
N36 N 0.7239 0.2769 0.20569 0.0
N37 N 0.74666 0.28784 0.24764 0.0
C38 C 0.67592 0.29532 0.12502 0.0
C39 C 0.64508 0.32413 0.09521 0.0
C40 C 0.68927 0.30512 0.17857 0.0
C41 C 0.66996 0.34337 0.20292 0.0
C42 C 0.63789 0.37183 0.17376 0.0
C43 C 0.62587 0.36196 0.11994 0.0
H44 H 0.69036 0.71651 0.59679 0.0
H45 H 0.60307 0.59746 0.60039 0.0
H46 H 0.67935 0.63976 0.74417 0.0
N47 N 0.72195 0.71231 0.69773 0.0
N48 N 0.74555 0.70405 0.74033 0.0
C49 C 0.67549 0.68834 0.61888 0.0
C50 C 0.64548 0.65753 0.59207 0.0
C51 C 0.68853 0.68184 0.67351 0.0
C52 C 0.6696 0.64493 0.70203 0.0
C53 C 0.63794 0.61472 0.67599 0.0
C54 C 0.62633 0.62129 0.6211 0.0
H55 H 0.84832 0.86234 0.21907 0.0
H56 H 0.93557 0.87255 0.07306 0.0
H57 H 0.83978 0.76099 0.09799 0.0
N58 N 0.80644 0.78281 0.19375 0.0
N59 N 0.78125 0.79821 0.23164 0.0
C60 C 0.86044 0.84887 0.18086 0.0
C61 C 0.89398 0.87294 0.14795 0.0
C62 C 0.84158 0.80784 0.16325 0.0
C63 C 0.85564 0.79163 0.11242 0.0
C64 C 0.88819 0.81578 0.07929 0.0
C65 C 0.90884 0.85504 0.09831 0.0
H66 H 0.20539 0.77275 0.44548 0.0
H67 H 0.06827 0.84563 0.43923 0.0
H68 H 0.17655 0.85958 0.31059 0.0
N69 N 0.23973 0.79737 0.35063 0.0
N70 N 0.24796 0.79437 0.30107 0.0
C71 C 0.18031 0.79507 0.42408 0.0
C72 C 0.13516 0.8074 0.4479 0.0
C73 C 0.19339 0.8113 0.37264 0.0
C74 C 0.16309 0.84363 0.3471 0.0
C75 C 0.1183 0.85791 0.37192 0.0
C76 C 0.10327 0.8366 0.42021 0.0
H77 H 0.34836 0.63507 0.79462 0.0
H78 H 0.42446 0.59923 0.9423 0.0
H79 H 0.34163 0.72082 0.93242 0.0
N80 N 0.30884 0.71148 0.8327 0.0
N81 N 0.28492 0.70176 0.79106 0.0
C82 C 0.35856 0.64241 0.83596 0.0
C83 C 0.3894 0.61294 0.86522 0.0
C84 C 0.34129 0.68148 0.86016 0.0
C85 C 0.35504 0.69083 0.91371 0.0
C86 C 0.38417 0.66086 0.94386 0.0
C87 C 0.40166 0.62233 0.91914 0.0
Zn88 Zn 0.07099 0.12176 0.34607 0.0
Zn89 Zn 0.9652 0.14238 0.18577 0.0
Zn90 Zn 0.01715 0.12715 0.2664 0.0
C91 C 0.05267 0.17564 0.15267 0.0
C92 C 0.96592 0.05021 0.1984 0.0
O93 O 0.97892 0.16101 0.33614 0.0
O94 O 0.03899 0.16189 0.39728 0.0
C95 C 0.13306 0.16024 0.27493 0.0
O96 O 0.06307 0.15994 0.20025 0.0
O97 O 0.00829 0.17452 0.1357 0.0
O98 O 0.94989 0.08097 0.16829 0.0
O99 O 0.99365 0.05976 0.2394 0.0
O100 O 0.13612 0.14052 0.31986 0.0
O101 O 0.09103 0.16066 0.24901 0.0
O102 O 0.02816 0.05421 0.28283 0.0
O103 O 0.06619 0.05875 0.36174 0.0
C104 C 0.04829 0.03534 0.32461 0.0
O105 O 0.94777 0.16524 0.29092 0.0
O106 O 0.90845 0.17438 0.21287 0.0
C107 C 0.99534 0.17263 0.3831 0.0
C108 C 0.91003 0.17971 0.26318 0.0
Zn109 Zn 0.57132 0.35573 0.69448 0.0
Zn110 Zn 0.45887 0.35077 0.84787 0.0
Zn111 Zn 0.51673 0.35387 0.77134 0.0
C112 C 0.45338 0.43668 0.81377 0.0
C113 C 0.42122 0.2897 0.77963 0.0
O114 O 0.58743 0.31685 0.79284 0.0
O115 O 0.61393 0.30471 0.70979 0.0
C116 C 0.57421 0.43995 0.73259 0.0
O117 O 0.493 0.42318 0.78917 0.0
O118 O 0.42686 0.40948 0.8399 0.0
O119 O 0.41934 0.29924 0.82898 0.0
O120 O 0.45215 0.31003 0.74797 0.0
O121 O 0.6022 0.41416 0.70676 0.0
O122 O 0.53425 0.42484 0.75527 0.0
O123 O 0.47483 0.32535 0.70105 0.0
O124 O 0.52321 0.34983 0.63487 0.0
C125 C 0.48323 0.33162 0.65011 0.0
O126 O 0.56034 0.32515 0.84048 0.0
O127 O 0.50748 0.34049 0.90637 0.0
C128 C 0.61784 0.29778 0.75992 0.0
C129 C 0.54951 0.32628 0.89131 0.0
Zn130 Zn 0.06781 0.85356 0.84556 0.0
Zn131 Zn 0.96238 0.86262 0.685 0.0
Zn132 Zn 0.01603 0.8622 0.7649 0.0
C133 C 0.9785 0.9507 0.70335 0.0
C134 C 0.90215 0.82372 0.75761 0.0
O135 O 0.08745 0.82585 0.74285 0.0
O136 O 0.13013 0.83035 0.81902 0.0
C137 C 0.05698 0.94409 0.83298 0.0
O138 O 1.00072 0.93398 0.74523 0.0
O139 O 0.96161 0.92542 0.66756 0.0
O140 O 0.89876 0.84069 0.7111 0.0
O141 O 0.94372 0.82643 0.7841 0.0
O142 O 0.07264 0.91536 0.86615 0.0
O143 O 0.03449 0.93165 0.78951 0.0
O144 O 0.97264 0.82871 0.83212 0.0
O145 O 0.02987 0.81495 0.89433 0.0
C146 C 0.98505 0.81263 0.87894 0.0
O147 O 0.05706 0.8288 0.69664 0.0
O148 O 0.99777 0.82401 0.63493 0.0
C149 C 0.12786 0.81879 0.77041 0.0
C150 C 0.04195 0.81588 0.6497 0.0
Zn151 Zn 0.57216 0.63513 0.1871 0.0
Zn152 Zn 0.46449 0.63057 0.34269 0.0
Zn153 Zn 0.51626 0.6329 0.26607 0.0
C154 C 0.55371 0.64993 0.38599 0.0
C155 C 0.45333 0.54901 0.3041 0.0
O156 O 0.47157 0.66284 0.19803 0.0
O157 O 0.52341 0.65 0.13036 0.0
C158 C 0.61927 0.68862 0.25728 0.0
O159 O 0.56011 0.65988 0.33556 0.0
O160 O 0.51506 0.6293 0.40068 0.0
O161 O 0.42567 0.57606 0.32842 0.0
O162 O 0.49463 0.56267 0.28285 0.0
O163 O 0.61906 0.68108 0.20731 0.0
O164 O 0.58559 0.67127 0.28824 0.0
O165 O 0.53527 0.56286 0.24826 0.0
O166 O 0.59832 0.57412 0.19225 0.0
C167 C 0.57252 0.54804 0.22081 0.0
O168 O 0.44897 0.67523 0.24708 0.0
O169 O 0.43087 0.68756 0.33239 0.0
C170 C 0.48146 0.66319 0.1469 0.0
C171 C 0.4247 0.69708 0.28312 0.0
C172 C 0.07412 0.92799 0.39586 0.0
C173 C 0.09206 0.89987 0.35504 0.0
C174 C 0.05506 0.96983 0.3841 0.0
C175 C 0.05429 0.98685 0.33109 0.0
H176 H 0.07735 0.91911 0.43824 0.0
H177 H 0.04388 0.99031 0.41771 0.0
S178 S 0.09109 0.92631 0.20782 0.0
N179 N 0.10181 0.89075 0.25775 0.0
N180 N 0.06954 0.97165 0.23628 0.0
C181 C 0.06947 0.95889 0.2891 0.0
C182 C 0.08784 0.91514 0.30096 0.0
C183 C 0.45765 0.55893 0.84335 0.0
C184 C 0.40662 0.57071 0.84152 0.0
C185 C 0.47359 0.51618 0.82972 0.0
C186 C 0.43884 0.48375 0.81475 0.0
H187 H 0.48513 0.58242 0.8575 0.0
H188 H 0.51275 0.50769 0.83442 0.0
S189 S 0.30188 0.49885 0.79907 0.0
N190 N 0.3222 0.54739 0.81954 0.0
N191 N 0.35196 0.4671 0.79466 0.0
C192 C 0.38822 0.49587 0.80989 0.0
C193 C 0.37214 0.53937 0.82304 0.0
C194 C 0.56903 0.56194 0.70051 0.0
C195 C 0.61992 0.57393 0.70361 0.0
C196 C 0.55299 0.51928 0.7153 0.0
C197 C 0.58753 0.48723 0.73293 0.0
H198 H 0.54192 0.58496 0.68374 0.0
H199 H 0.5142 0.51039 0.70889 0.0
S200 S 0.72353 0.50332 0.75446 0.0
N201 N 0.70361 0.55145 0.73076 0.0
N202 N 0.67357 0.47141 0.75817 0.0
C203 C 0.63768 0.49981 0.74005 0.0
C204 C 0.65389 0.54319 0.72555 0.0
C205 C 0.93079 0.928 0.21346 0.0
C206 C 0.91111 0.91828 0.16203 0.0
C207 C 0.94953 0.97041 0.22517 0.0
C208 C 0.95 0.00429 0.1856 0.0
H209 H 0.93207 0.90263 0.24467 0.0
H210 H 0.96288 0.97684 0.26564 0.0
S211 S 0.90007 0.99608 0.04534 0.0
N212 N 0.88974 0.94707 0.07274 0.0
N213 N 0.92822 0.02476 0.09277 0.0
C214 C 0.93019 0.99469 0.13407 0.0
C215 C 0.90996 0.95229 0.12282 0.0
C216 C 0.94394 0.05609 0.63064 0.0
C217 C 0.93343 0.08639 0.67198 0.0
C218 C 0.96226 0.01393 0.64191 0.0
C219 C 0.96935 0.99873 0.69526 0.0
H220 H 0.93648 0.06419 0.58863 0.0
H221 H 0.96887 0.99226 0.60803 0.0
S222 S 0.94793 0.06394 0.81927 0.0
N223 N 0.93416 0.09856 0.76926 0.0
N224 N 0.96404 0.01699 0.79054 0.0
C225 C 0.95948 0.02828 0.73749 0.0
C226 C 0.94221 0.07239 0.72587 0.0
C227 C 0.56877 0.42555 0.19359 0.0
C228 C 0.61981 0.41393 0.19704 0.0
C229 C 0.55238 0.46842 0.206 0.0
C230 C 0.5867 0.50098 0.22154 0.0
H231 H 0.54173 0.4019 0.17889 0.0
H232 H 0.51337 0.47688 0.19991 0.0
S233 S 0.72319 0.48651 0.24165 0.0
N234 N 0.70359 0.43772 0.22123 0.0
N235 N 0.67286 0.51809 0.24417 0.0
C236 C 0.63714 0.48904 0.22829 0.0
C237 C 0.65371 0.4455 0.21622 0.0
C238 C 0.45978 0.42683 0.3361 0.0
C239 C 0.40891 0.41463 0.33565 0.0
C240 C 0.47486 0.46966 0.32093 0.0
C241 C 0.43942 0.50179 0.30568 0.0
H242 H 0.48779 0.40371 0.35074 0.0
H243 H 0.51393 0.47852 0.32495 0.0
S244 S 0.30258 0.48525 0.29215 0.0
N245 N 0.32389 0.437 0.31395 0.0
N246 N 0.35209 0.51748 0.28601 0.0
C247 C 0.38897 0.48913 0.30167 0.0
C248 C 0.37373 0.4455 0.31646 0.0
C249 C 0.10128 0.06334 0.81685 0.0
C250 C 0.11084 0.07534 0.87093 0.0
C251 C 0.08077 0.02174 0.80414 0.0
C252 C 0.06844 0.991 0.84515 0.0
H253 H 0.11057 0.08586 0.78406 0.0
H254 H 0.07637 0.01299 0.76204 0.0
S255 S 0.08452 0.006 0.99308 0.0
N256 N 0.10709 0.05158 0.96552 0.0
N257 N 0.06432 0.97646 0.94193 0.0
C258 C 0.07563 0.00345 0.89927 0.0
C259 C 0.09792 0.04472 0.9121 0.0
C260 C 0.10312 0.21594 0.02027 0.0
C261 C 0.14186 0.1857 1.01116 0.0
C262 C 0.07871 0.21718 0.07038 0.0
C263 C 0.09171 0.18768 0.11271 0.0
H264 H 0.08849 0.23573 0.98704 0.0
H265 H 0.04602 0.23813 0.07405 0.0
S266 S 0.19624 0.10718 0.11113 0.0
N267 N 0.19687 0.13 0.05012 0.0
N268 N 0.15056 0.13176 0.1442 0.0
C269 C 0.13422 0.16096 0.10596 0.0
C270 C 0.15923 0.15991 0.05493 0.0
C271 C 0.3919 0.35517 0.5395 0.0
C272 C 0.40266 0.3214 0.50255 0.0
C273 C 0.41322 0.35511 0.59142 0.0
C274 C 0.44619 0.32142 0.60802 0.0
H275 H 0.36928 0.38321 0.52698 0.0
H276 H 0.4074 0.38359 0.61687 0.0
S277 S 0.48264 0.22343 0.52877 0.0
N278 N 0.44474 0.25138 0.48806 0.0
N279 N 0.48563 0.25186 0.58537 0.0
C280 C 0.45432 0.28591 0.57304 0.0
C281 C 0.43224 0.28569 0.52034 0.0
C282 C 0.59325 0.28552 0.02665 0.0
C283 C 0.63178 0.31543 0.03816 0.0
C284 C 0.57031 0.28539 0.97556 0.0
C285 C 0.5857 0.31464 0.93416 0.0
H286 H 0.57801 0.26475 0.05855 0.0
H287 H 0.53765 0.26479 0.96977 0.0
S288 S 0.68913 0.39544 0.94227 0.0
N289 N 0.68749 0.37212 1.00301 0.0
N290 N 0.64494 0.37113 0.90653 0.0
C291 C 0.62721 0.34175 0.94371 0.0
C292 C 0.65005 0.34242 0.996 0.0
C293 C 0.89216 0.17672 0.48545 0.0
C294 C 0.91588 0.19902 0.52811 0.0
C295 C 0.915 0.17339 0.4344 0.0
C296 C 0.96253 0.19176 0.42503 0.0
H297 H 0.85834 0.15803 0.49317 0.0
H298 H 0.89806 0.15218 0.40449 0.0
S299 S 0.03475 0.26102 0.5202 0.0
N300 N 0.98505 0.24544 0.55509 0.0
N301 N 0.02805 0.2395 0.4595 0.0
C302 C 0.98339 0.2186 0.46539 0.0
C303 C 0.96012 0.22202 0.51703 0.0
C304 C 0.93876 0.77286 1.01365 0.0
C305 C 0.89964 0.80263 0.02321 0.0
C306 C 0.96223 0.77159 0.96296 0.0
C307 C 0.9475 0.80025 0.9204 0.0
H308 H 0.95435 0.75356 0.04679 0.0
H309 H 0.99534 0.75123 0.95878 0.0
S310 S 0.84092 0.87864 0.9232 0.0
N311 N 0.8424 0.85673 0.98468 0.0
N312 N 0.88646 0.85452 0.88942 0.0
C313 C 0.90455 0.82628 0.92782 0.0
C314 C 0.8808 0.82763 0.97948 0.0
C315 C 0.603 0.69676 0.51492 0.0
C316 C 0.63379 0.66209 0.53356 0.0
C317 C 0.5814 0.69559 0.46303 0.0
C318 C 0.59076 0.6602 0.42802 0.0
H319 H 0.5923 0.72298 0.54207 0.0
H320 H 0.55407 0.72058 0.45198 0.0
S321 S 0.674 0.56467 0.45508 0.0
N322 N 0.67665 0.59393 0.51104 0.0
N323 N 0.63639 0.5921 0.41356 0.0
C324 C 0.62485 0.6275 0.44451 0.0
C325 C 0.64634 0.62836 0.49735 0.0
C326 C 0.43237 0.70264 1.0132 0.0
C327 C 0.39764 0.6694 1.00104 0.0
C328 C 0.45535 0.70417 0.06429 0.0
C329 C 0.44357 0.67312 0.10514 0.0
H330 H 0.44492 0.72522 0.98176 0.0
H331 H 0.48552 0.72746 0.07042 0.0
S332 S 0.35012 0.58338 0.09552 0.0
N333 N 0.34876 0.60764 0.03532 0.0
N334 N 0.39153 0.61096 0.13151 0.0
C335 C 0.40554 0.6424 0.09496 0.0
C336 C 0.38272 0.64038 0.04275 0.0
C337 C 0.14485 0.81887 0.54714 0.0
C338 C 0.12277 0.79528 0.50451 0.0
C339 C 0.1221 0.82043 0.59841 0.0
C340 C 0.07644 0.79873 0.60808 0.0
H341 H 0.17702 0.8397 0.53932 0.0
H342 H 0.13726 0.84267 0.62829 0.0
S343 S 0.01021 0.7247 0.51332 0.0
N344 N 0.05793 0.74404 0.47798 0.0
N345 N 0.01535 0.74647 0.57405 0.0
C346 C 0.05781 0.77062 0.56778 0.0
C347 C 0.08082 0.76919 0.51586 0.0
C348 C 0.2084 0.26328 0.25415 0.0
C349 C 0.25494 0.24954 0.27489 0.0
C350 C 0.16936 0.23274 0.24645 0.0
C351 C 0.17633 0.18768 0.25889 0.0
H352 H 0.20073 0.2982 0.24878 0.0
H353 H 0.13244 0.2451 0.23628 0.0
S354 S 0.29555 0.13389 0.29923 0.0
N355 N 0.30885 0.18715 0.29676 0.0
N356 N 0.2361 0.12988 0.28175 0.0
C357 C 0.22478 0.17309 0.27235 0.0
C358 C 0.26404 0.20402 0.28071 0.0
C359 C 0.298 0.24051 0.74616 0.0
C360 C 0.30063 0.2013 0.77708 0.0
C361 C 0.34062 0.26719 0.73872 0.0
C362 C 0.38689 0.2549 0.76155 0.0
H363 H 0.26198 0.25278 0.73264 0.0
H364 H 0.33607 0.29968 0.72051 0.0
S365 S 0.41451 0.1512 0.83679 0.0
N366 N 0.35398 0.1485 0.8237 0.0
N367 N 0.4341 0.19797 0.80904 0.0
C368 C 0.39083 0.21317 0.78663 0.0
C369 C 0.34759 0.18651 0.79477 0.0
C370 C 0.75126 0.26682 0.75798 0.0
C371 C 0.74835 0.22047 0.755 0.0
C372 C 0.70877 0.29221 0.76947 0.0
C373 C 0.66187 0.27225 0.77756 0.0
H374 H 0.78572 0.28364 0.74766 0.0
H375 H 0.71153 0.32787 0.76602 0.0
S376 S 0.63642 0.15207 0.78182 0.0
N377 N 0.69688 0.15549 0.76848 0.0
N378 N 0.6163 0.20345 0.78793 0.0
C379 C 0.65964 0.22594 0.78004 0.0
C380 C 0.70321 0.19998 0.76931 0.0
C381 C 0.82912 0.27643 0.28775 0.0
C382 C 0.78292 0.25905 0.27119 0.0
C383 C 0.87102 0.24874 0.29502 0.0
C384 C 0.86723 0.20296 0.2869 0.0
H385 H 0.83419 0.31189 0.28922 0.0
H386 H 0.90742 0.26374 0.30054 0.0
S387 S 0.75144 0.14053 0.25774 0.0
N388 N 0.73354 0.1928 0.25748 0.0
N389 N 0.8118 0.14088 0.27207 0.0
C390 C 0.81956 0.18491 0.27832 0.0
C391 C 0.77737 0.21295 0.26996 0.0
C392 C 0.82674 0.7213 0.78052 0.0
C393 C 0.7798 0.73551 0.76128 0.0
C394 C 0.86623 0.75152 0.78742 0.0
C395 C 0.85932 0.79672 0.77581 0.0
H396 H 0.83424 0.68629 0.78515 0.0
H397 H 0.90334 0.73887 0.79615 0.0
S398 S 0.73977 0.85156 0.73914 0.0
N399 N 0.726 0.79838 0.74151 0.0
N400 N 0.79962 0.85505 0.75511 0.0
C401 C 0.8107 0.81171 0.76392 0.0
C402 C 0.77098 0.78111 0.75628 0.0
C403 C 0.7505 0.72502 0.25995 0.0
C404 C 0.74473 0.77124 0.25767 0.0
C405 C 0.70945 0.69742 0.26999 0.0
C406 C 0.66129 0.71504 0.27745 0.0
H407 H 0.78596 0.71006 0.24951 0.0
H408 H 0.71436 0.66208 0.26553 0.0
S409 S 0.6287 0.83367 0.285 0.0
N410 N 0.6894 0.83338 0.27231 0.0
N411 N 0.61162 0.78128 0.28954 0.0
C412 C 0.65633 0.76103 0.28168 0.0
C413 C 0.69838 0.78922 0.27218 0.0
C414 C 0.33895 0.79086 0.31204 0.0
C415 C 0.29556 0.7791 0.28353 0.0
C416 C 0.3836 0.76743 0.30541 0.0
C417 C 0.38645 0.73101 0.27058 0.0
H418 H 0.33734 0.8163 0.34247 0.0
H419 H 0.41483 0.77527 0.33161 0.0
S420 S 0.28557 0.69192 0.18023 0.0
N421 N 0.25992 0.7333 0.21347 0.0
N422 N 0.34392 0.68816 0.20203 0.0
C423 C 0.345 0.72202 0.23754 0.0
C424 C 0.29942 0.7464 0.24388 0.0
C425 C 0.25808 0.77847 0.77487 0.0
C426 C 0.25116 0.73289 0.76743 0.0
C427 C 0.21879 0.80827 0.76597 0.0
C428 C 0.17105 0.7935 0.75031 0.0
H429 H 0.29273 0.79072 0.79172 0.0
H430 H 0.22418 0.84237 0.77759 0.0
S431 S 0.13751 0.67895 0.71408 0.0
N432 N 0.19654 0.67553 0.73376 0.0
N433 N 0.12178 0.73163 0.71863 0.0
C434 C 0.16572 0.74904 0.7358 0.0
C435 C 0.20614 0.71864 0.74422 0.0
loop_
_geom_bond_atom_site_label_1
_geom_bond_atom_site_label_2
_geom_bond_distance
_geom_bond_site_symmetry_2
_ccdc_geom_bond_type
H0 C5 0.929 . S
H1 C10 0.931 . S
H2 C8 0.930 . S
N3 N4 1.234 . S
N3 C7 1.453 . S
N4 N3 1.234 . S
C5 H0 0.929 . S
C5 C6 1.373 . S
C5 C7 1.368 . S
C6 C5 1.373 . S
C6 C10 1.397 . S
C7 N3 1.453 . S
C7 C5 1.368 . S
C7 C8 1.373 . S
C8 H2 0.930 . S
C8 C7 1.373 . S
C8 C9 1.371 . S
C9 C8 1.371 . S
C9 C10 1.383 . S
C10 H1 0.931 . S
C10 C6 1.397 . S
C10 C9 1.383 . S
H11 C16 0.929 . S
H12 C21 0.931 . S
H13 C19 0.930 . S
N14 N15 1.234 . S
N14 C18 1.453 . S
N15 N14 1.234 . S
C16 H11 0.929 . S
C16 C17 1.373 . S
C16 C18 1.368 . S
C17 C16 1.373 . S
C17 C21 1.397 . S
C18 N14 1.453 . S
C18 C16 1.368 . S
C18 C19 1.373 . S
C19 H13 0.930 . S
C19 C18 1.373 . S
C19 C20 1.371 . S
C20 C19 1.371 . S
C20 C21 1.383 . S
C21 H12 0.931 . S
C21 C17 1.397 . S
C21 C20 1.383 . S
H22 C27 0.929 . S
H23 C32 0.931 . S
H24 C30 0.930 . S
N25 N26 1.234 . S
N25 C29 1.453 . S
N26 N25 1.234 . S
C27 H22 0.929 . S
C27 C28 1.373 . S
C27 C29 1.368 . S
C28 C27 1.373 . S
C28 C32 1.397 . S
C29 N25 1.453 . S
C29 C27 1.368 . S
C29 C30 1.373 . S
C30 H24 0.930 . S
C30 C29 1.373 . S
C30 C31 1.371 . S
C31 C30 1.371 . S
C31 C32 1.383 . S
C32 H23 0.931 . S
C32 C28 1.397 . S
C32 C31 1.383 . S
H33 C38 0.929 . S
H34 C43 0.931 . S
H35 C41 0.930 . S
N36 N37 1.234 . S
N36 C40 1.453 . S
N37 N36 1.234 . S
C38 H33 0.929 . S
C38 C39 1.373 . S
C38 C40 1.368 . S
C39 C38 1.373 . S
C39 C43 1.397 . S
C40 N36 1.453 . S
C40 C38 1.368 . S
C40 C41 1.373 . S
C41 H35 0.930 . S
C41 C40 1.373 . S
C41 C42 1.371 . S
C42 C41 1.371 . S
C42 C43 1.383 . S
C43 H34 0.931 . S
C43 C39 1.397 . S
C43 C42 1.383 . S
H44 C49 0.929 . S
H45 C54 0.931 . S
H46 C52 0.930 . S
N47 N48 1.234 . S
N47 C51 1.453 . S
N48 N47 1.234 . S
C49 H44 0.929 . S
C49 C50 1.373 . S
C49 C51 1.368 . S
C50 C49 1.373 . S
C50 C54 1.397 . S
C51 N47 1.453 . S
C51 C49 1.368 . S
C51 C52 1.373 . S
C52 H46 0.930 . S
C52 C51 1.373 . S
C52 C53 1.371 . S
C53 C52 1.371 . S
C53 C54 1.383 . S
C54 H45 0.931 . S
C54 C50 1.397 . S
C54 C53 1.383 . S
H55 C60 0.929 . S
H56 C65 0.931 . S
H57 C63 0.930 . S
N58 N59 1.234 . S
N58 C62 1.453 . S
N59 N58 1.234 . S
C60 H55 0.929 . S
C60 C61 1.373 . S
C60 C62 1.368 . S
C61 C60 1.373 . S
C61 C65 1.397 . S
C62 N58 1.453 . S
C62 C60 1.368 . S
C62 C63 1.373 . S
C63 H57 0.930 . S
C63 C62 1.373 . S
C63 C64 1.371 . S
C64 C63 1.371 . S
C64 C65 1.383 . S
C65 H56 0.931 . S
C65 C61 1.397 . S
C65 C64 1.383 . S
H66 C71 0.929 . S
H67 C76 0.931 . S
H68 C74 0.930 . S
N69 N70 1.234 . S
N69 C73 1.453 . S
N70 N69 1.234 . S
C71 H66 0.929 . S
C71 C72 1.373 . S
C71 C73 1.368 . S
C72 C71 1.373 . S
C72 C76 1.397 . S
C73 N69 1.453 . S
C73 C71 1.368 . S
C73 C74 1.373 . S
C74 H68 0.930 . S
C74 C73 1.373 . S
C74 C75 1.371 . S
C75 C74 1.371 . S
C75 C76 1.383 . S
C76 H67 0.931 . S
C76 C72 1.397 . S
C76 C75 1.383 . S
H77 C82 0.929 . S
H78 C87 0.931 . S
H79 C85 0.930 . S
N80 N81 1.234 . S
N80 C84 1.453 . S
N81 N80 1.234 . S
C82 H77 0.929 . S
C82 C83 1.373 . S
C82 C84 1.368 . S
C83 C82 1.373 . S
C83 C87 1.397 . S
C84 N80 1.453 . S
C84 C82 1.368 . S
C84 C85 1.373 . S
C85 H79 0.930 . S
C85 C84 1.373 . S
C85 C86 1.371 . S
C86 C85 1.371 . S
C86 C87 1.383 . S
C87 H78 0.931 . S
C87 C83 1.397 . S
C87 C86 1.383 . S
Zn88 O94 1.920 . S
Zn88 O100 1.898 . S
Zn88 O103 1.905 . S
Zn89 O97 1.905 1_655 S
Zn89 O98 1.898 . S
Zn89 O106 1.920 . S
Zn90 O93 2.080 1_455 S
Zn90 O96 2.114 . S
Zn90 O99 2.120 1_455 S
Zn90 O101 2.120 . S
Zn90 O102 2.114 . S
Zn90 O105 2.080 1_455 S
C91 O96 1.166 . S
C91 O97 1.182 . S
C92 O98 1.167 . S
C92 O99 1.299 . S
O93 Zn90 2.080 1_655 S
O93 C107 1.305 . S
O94 Zn88 1.920 . S
O94 C107 1.234 1_455 S
C95 O100 1.167 . S
C95 O101 1.299 . S
O96 Zn90 2.114 . S
O96 C91 1.166 . S
O97 Zn89 1.905 1_455 S
O97 C91 1.182 . S
O98 Zn89 1.898 . S
O98 C92 1.167 . S
O99 Zn90 2.120 1_655 S
O99 C92 1.299 . S
O100 Zn88 1.898 . S
O100 C95 1.167 . S
O101 Zn90 2.120 . S
O101 C95 1.299 . S
O102 Zn90 2.114 . S
O102 C104 1.166 . S
O103 Zn88 1.905 . S
O103 C104 1.182 . S
C104 O102 1.166 . S
C104 O103 1.182 . S
O105 Zn90 2.080 1_655 S
O105 C108 1.305 . S
O106 Zn89 1.920 . S
O106 C108 1.234 . S
C107 O93 1.305 . S
C107 O94 1.234 1_655 S
C108 O105 1.305 . S
C108 O106 1.234 . S
Zn109 O115 1.920 . S
Zn109 O121 1.898 . S
Zn109 O124 1.905 . S
Zn110 O118 1.905 . S
Zn110 O119 1.898 . S
Zn110 O127 1.920 . S
Zn111 O114 2.080 . S
Zn111 O117 2.114 . S
Zn111 O120 2.120 . S
Zn111 O122 2.120 . S
Zn111 O123 2.114 . S
Zn111 O126 2.080 . S
C112 O117 1.166 . S
C112 O118 1.182 . S
C113 O119 1.167 . S
C113 O120 1.299 . S
O114 Zn111 2.080 . S
O114 C128 1.305 . S
O115 Zn109 1.920 . S
O115 C128 1.234 . S
C116 O121 1.167 . S
C116 O122 1.299 . S
O117 Zn111 2.114 . S
O117 C112 1.166 . S
O118 Zn110 1.905 . S
O118 C112 1.182 . S
O119 Zn110 1.898 . S
O119 C113 1.167 . S
O120 Zn111 2.120 . S
O120 C113 1.299 . S
O121 Zn109 1.898 . S
O121 C116 1.167 . S
O122 Zn111 2.120 . S
O122 C116 1.299 . S
O123 Zn111 2.114 . S
O123 C125 1.166 . S
O124 Zn109 1.905 . S
O124 C125 1.182 . S
C125 O123 1.166 . S
C125 O124 1.182 . S
O126 Zn111 2.080 . S
O126 C129 1.305 . S
O127 Zn110 1.920 . S
O127 C129 1.234 . S
C128 O114 1.305 . S
C128 O115 1.234 . S
C129 O126 1.305 . S
C129 O127 1.234 . S
Zn130 O136 1.920 . S
Zn130 O142 1.898 . S
Zn130 O145 1.905 1_455 S
Zn131 O139 1.905 . S
Zn131 O140 1.898 . S
Zn131 O148 1.920 1_655 S
Zn132 O135 2.080 . S
Zn132 O138 2.114 1_455 S
Zn132 O141 2.120 1_455 S
Zn132 O143 2.120 . S
Zn132 O144 2.114 1_455 S
Zn132 O147 2.080 . S
C133 O138 1.166 . S
C133 O139 1.182 . S
C134 O140 1.167 . S
C134 O141 1.299 . S
O135 Zn132 2.080 . S
O135 C149 1.305 . S
O136 Zn130 1.920 . S
O136 C149 1.234 . S
C137 O142 1.167 . S
C137 O143 1.299 . S
O138 Zn132 2.114 1_655 S
O138 C133 1.166 . S
O139 Zn131 1.905 . S
O139 C133 1.182 . S
O140 Zn131 1.898 . S
O140 C134 1.167 . S
O141 Zn132 2.120 1_655 S
O141 C134 1.299 . S
O142 Zn130 1.898 . S
O142 C137 1.167 . S
O143 Zn132 2.120 . S
O143 C137 1.299 . S
O144 Zn132 2.114 1_655 S
O144 C146 1.166 . S
O145 Zn130 1.905 1_655 S
O145 C146 1.182 . S
C146 O144 1.166 . S
C146 O145 1.182 . S
O147 Zn132 2.080 . S
O147 C150 1.305 . S
O148 Zn131 1.920 1_455 S
O148 C150 1.234 . S
C149 O135 1.305 . S
C149 O136 1.234 . S
C150 O147 1.305 . S
C150 O148 1.234 . S
Zn151 O157 1.920 . S
Zn151 O163 1.898 . S
Zn151 O166 1.905 . S
Zn152 O160 1.905 . S
Zn152 O161 1.898 . S
Zn152 O169 1.920 . S
Zn153 O156 2.080 . S
Zn153 O159 2.114 . S
Zn153 O162 2.120 . S
Zn153 O164 2.120 . S
Zn153 O165 2.114 . S
Zn153 O168 2.080 . S
C154 O159 1.166 . S
C154 O160 1.182 . S
C155 O161 1.167 . S
C155 O162 1.299 . S
O156 Zn153 2.080 . S
O156 C170 1.305 . S
O157 Zn151 1.920 . S
O157 C170 1.234 . S
C158 O163 1.167 . S
C158 O164 1.299 . S
O159 Zn153 2.114 . S
O159 C154 1.166 . S
O160 Zn152 1.905 . S
O160 C154 1.182 . S
O161 Zn152 1.898 . S
O161 C155 1.167 . S
O162 Zn153 2.120 . S
O162 C155 1.299 . S
O163 Zn151 1.898 . S
O163 C158 1.167 . S
O164 Zn153 2.120 . S
O164 C158 1.299 . S
O165 Zn153 2.114 . S
O165 C167 1.166 . S
O166 Zn151 1.905 . S
O166 C167 1.182 . S
C167 O165 1.166 . S
C167 O166 1.182 . S
O168 Zn153 2.080 . S
O168 C171 1.305 . S
O169 Zn152 1.920 . S
O169 C171 1.234 . S
C170 O156 1.305 . S
C170 O157 1.234 . S
C171 O168 1.305 . S
C171 O169 1.234 . S
C172 C173 1.369 . S
C172 C174 1.419 . S
C172 H176 0.930 . S
C173 C172 1.369 . S
C173 C182 1.429 . S
C174 C172 1.419 . S
C174 C175 1.363 . S
C174 H177 0.929 1_565 S
C175 C174 1.363 . S
C175 C181 1.428 . S
H176 C172 0.930 . S
H177 C174 0.929 1_545 S
S178 N179 1.613 . S
S178 N180 1.610 . S
N179 S178 1.613 . S
N179 C182 1.350 . S
N180 S178 1.610 . S
N180 C181 1.351 . S
C181 C175 1.428 . S
C181 N180 1.351 . S
C181 C182 1.434 . S
C182 C173 1.429 . S
C182 N179 1.350 . S
C182 C181 1.434 . S
C183 C184 1.369 . S
C183 C185 1.419 . S
C183 H187 0.930 . S
C184 C183 1.369 . S
C184 C193 1.429 . S
C185 C183 1.419 . S
C185 C186 1.363 . S
C185 H188 0.929 . S
C186 C185 1.363 . S
C186 C192 1.428 . S
H187 C183 0.930 . S
H188 C185 0.929 . S
S189 N190 1.613 . S
S189 N191 1.610 . S
N190 S189 1.613 . S
N190 C193 1.350 . S
N191 S189 1.610 . S
N191 C192 1.351 . S
C192 C186 1.428 . S
C192 N191 1.351 . S
C192 C193 1.434 . S
C193 C184 1.429 . S
C193 N190 1.350 . S
C193 C192 1.434 . S
C194 C195 1.369 . S
C194 C196 1.419 . S
C194 H198 0.930 . S
C195 C194 1.369 . S
C195 C204 1.429 . S
C196 C194 1.419 . S
C196 C197 1.363 . S
C196 H199 0.929 . S
C197 C196 1.363 . S
C197 C203 1.428 . S
H198 C194 0.930 . S
H199 C196 0.929 . S
S200 N201 1.613 . S
S200 N202 1.610 . S
N201 S200 1.613 . S
N201 C204 1.350 . S
N202 S200 1.610 . S
N202 C203 1.351 . S
C203 C197 1.428 . S
C203 N202 1.351 . S
C203 C204 1.434 . S
C204 C195 1.429 . S
C204 N201 1.350 . S
C204 C203 1.434 . S
C205 C206 1.369 . S
C205 C207 1.419 . S
C205 H209 0.930 . S
C206 C205 1.369 . S
C206 C215 1.429 . S
C207 C205 1.419 . S
C207 C208 1.363 . S
C207 H210 0.929 . S
C208 C207 1.363 . S
C208 C214 1.428 . S
H209 C205 0.930 . S
H210 C207 0.929 . S
S211 N212 1.613 1_545 S
S211 N213 1.610 . S
N212 S211 1.613 1_565 S
N212 C215 1.350 . S
N213 S211 1.610 . S
N213 C214 1.351 1_545 S
C214 C208 1.428 . S
C214 N213 1.351 1_565 S
C214 C215 1.434 . S
C215 C206 1.429 . S
C215 N212 1.350 . S
C215 C214 1.434 . S
C216 C217 1.369 . S
C216 C218 1.419 . S
C216 H220 0.930 . S
C217 C216 1.369 . S
C217 C226 1.429 . S
C218 C216 1.419 . S
C218 C219 1.365 . S
C218 H221 0.929 1_545 S
C219 C218 1.365 . S
C219 C225 1.451 . S
H220 C216 0.930 . S
H221 C218 0.929 1_565 S
S222 N223 1.613 . S
S222 N224 1.610 . S
N223 S222 1.613 . S
N223 C226 1.350 . S
N224 S222 1.610 . S
N224 C225 1.351 . S
C225 C219 1.451 . S
C225 N224 1.351 . S
C225 C226 1.434 . S
C226 C217 1.429 . S
C226 N223 1.350 . S
C226 C225 1.434 . S
C227 C228 1.369 . S
C227 C229 1.419 . S
C227 H231 0.930 . S
C228 C227 1.369 . S
C228 C237 1.429 . S
C229 C227 1.419 . S
C229 C230 1.363 . S
C229 H232 0.929 . S
C230 C229 1.363 . S
C230 C236 1.428 . S
H231 C227 0.930 . S
H232 C229 0.929 . S
S233 N234 1.613 . S
S233 N235 1.610 . S
N234 S233 1.613 . S
N234 C237 1.350 . S
N235 S233 1.610 . S
N235 C236 1.351 . S
C236 C230 1.428 . S
C236 N235 1.351 . S
C236 C237 1.434 . S
C237 C228 1.429 . S
C237 N234 1.350 . S
C237 C236 1.434 . S
C238 C239 1.369 . S
C238 C240 1.419 . S
C238 H242 0.930 . S
C239 C238 1.369 . S
C239 C248 1.429 . S
C240 C238 1.419 . S
C240 C241 1.363 . S
C240 H243 0.929 . S
C241 C240 1.363 . S
C241 C247 1.428 . S
H242 C238 0.930 . S
H243 C240 0.929 . S
S244 N245 1.613 . S
S244 N246 1.610 . S
N245 S244 1.613 . S
N245 C248 1.350 . S
N246 S244 1.610 . S
N246 C247 1.351 . S
C247 C241 1.428 . S
C247 N246 1.351 . S
C247 C248 1.434 . S
C248 C239 1.429 . S
C248 N245 1.350 . S
C248 C247 1.434 . S
C249 C250 1.369 . S
C249 C251 1.419 . S
C249 H253 0.930 . S
C250 C249 1.369 . S
C250 C259 1.429 . S
C251 C249 1.419 . S
C251 C252 1.363 . S
C251 H254 0.929 . S
C252 C251 1.363 . S
C252 C258 1.428 1_545 S
H253 C249 0.930 . S
H254 C251 0.929 . S
S255 N256 1.613 1_565 S
S255 N257 1.610 . S
N256 S255 1.613 1_545 S
N256 C259 1.350 . S
N257 S255 1.610 . S
N257 C258 1.351 . S
C258 C252 1.428 1_565 S
C258 N257 1.351 . S
C258 C259 1.434 1_565 S
C259 C250 1.429 . S
C259 N256 1.350 . S
C259 C258 1.434 1_545 S
C260 C261 1.369 . S
C260 C262 1.419 . S
C260 H264 0.930 1_554 S
C261 C260 1.369 . S
C261 C270 1.429 . S
C262 C260 1.419 . S
C262 C263 1.363 . S
C262 H265 0.929 . S
C263 C262 1.363 . S
C263 C269 1.428 . S
H264 C260 0.930 1_556 S
H265 C262 0.929 . S
S266 N267 1.613 . S
S266 N268 1.610 . S
N267 S266 1.613 . S
N267 C270 1.350 . S
N268 S266 1.610 . S
N268 C269 1.351 . S
C269 C263 1.428 . S
C269 N268 1.351 . S
C269 C270 1.434 . S
C270 C261 1.429 . S
C270 N267 1.350 . S
C270 C269 1.434 . S
C271 C272 1.369 . S
C271 C273 1.419 . S
C271 H275 0.930 . S
C272 C271 1.369 . S
C272 C281 1.429 . S
C273 C271 1.419 . S
C273 C274 1.363 . S
C273 H276 0.929 . S
C274 C273 1.363 . S
C274 C280 1.428 . S
H275 C271 0.930 . S
H276 C273 0.929 . S
S277 N278 1.613 . S
S277 N279 1.610 . S
N278 S277 1.613 . S
N278 C281 1.350 . S
N279 S277 1.610 . S
N279 C280 1.351 . S
C280 C274 1.428 . S
C280 N279 1.351 . S
C280 C281 1.434 . S
C281 C272 1.429 . S
C281 N278 1.350 . S
C281 C280 1.434 . S
C282 C283 1.369 . S
C282 C284 1.419 . S
C282 H286 0.930 1_556 S
C283 C282 1.369 . S
C283 C292 1.429 . S
C284 C282 1.419 . S
C284 C285 1.363 . S
C284 H287 0.929 . S
C285 C284 1.363 . S
C285 C291 1.428 . S
H286 C282 0.930 1_554 S
H287 C284 0.929 . S
S288 N289 1.613 . S
S288 N290 1.610 . S
N289 S288 1.613 . S
N289 C292 1.350 . S
N290 S288 1.610 . S
N290 C291 1.351 . S
C291 C285 1.428 . S
C291 N290 1.351 . S
C291 C292 1.434 . S
C292 C283 1.429 . S
C292 N289 1.350 . S
C292 C291 1.434 . S
C293 C294 1.369 . S
C293 C295 1.419 . S
C293 H297 0.930 . S
C294 C293 1.369 . S
C294 C303 1.429 . S
C295 C293 1.419 . S
C295 C296 1.363 . S
C295 H298 0.929 . S
C296 C295 1.363 . S
C296 C302 1.428 . S
H297 C293 0.930 . S
H298 C295 0.929 . S
S299 N300 1.613 . S
S299 N301 1.610 . S
N300 S299 1.613 . S
N300 C303 1.350 . S
N301 S299 1.610 . S
N301 C302 1.351 . S
C302 C296 1.428 . S
C302 N301 1.351 . S
C302 C303 1.434 . S
C303 C294 1.429 . S
C303 N300 1.350 . S
C303 C302 1.434 . S
C304 C305 1.367 1_556 S
C304 C306 1.419 . S
C304 H308 0.930 1_556 S
C305 C304 1.367 1_554 S
C305 C314 1.412 1_554 S
C306 C304 1.419 . S
C306 C307 1.363 . S
C306 H309 0.929 . S
C307 C306 1.363 . S
C307 C313 1.428 . S
H308 C304 0.930 1_554 S
H309 C306 0.929 . S
S310 N311 1.613 . S
S310 N312 1.610 . S
N311 S310 1.613 . S
N311 C314 1.350 . S
N312 S310 1.610 . S
N312 C313 1.351 . S
C313 C307 1.428 . S
C313 N312 1.351 . S
C313 C314 1.434 . S
C314 C305 1.412 1_556 S
C314 N311 1.350 . S
C314 C313 1.434 . S
C315 C316 1.369 . S
C315 C317 1.419 . S
C315 H319 0.930 . S
C316 C315 1.369 . S
C316 C325 1.429 . S
C317 C315 1.419 . S
C317 C318 1.363 . S
C317 H320 0.929 . S
C318 C317 1.363 . S
C318 C324 1.428 . S
H319 C315 0.930 . S
H320 C317 0.929 . S
S321 N322 1.613 . S
S321 N323 1.610 . S
N322 S321 1.613 . S
N322 C325 1.350 . S
N323 S321 1.610 . S
N323 C324 1.351 . S
C324 C318 1.428 . S
C324 N323 1.351 . S
C324 C325 1.434 . S
C325 C316 1.429 . S
C325 N322 1.350 . S
C325 C324 1.434 . S
C326 C327 1.369 1_554 S
C326 C328 1.419 . S
C326 H330 0.930 . S
C327 C326 1.369 1_556 S
C327 C336 1.429 1_556 S
C328 C326 1.419 . S
C328 C329 1.363 . S
C328 H331 0.929 . S
C329 C328 1.363 . S
C329 C335 1.428 . S
H330 C326 0.930 . S
H331 C328 0.929 . S
S332 N333 1.613 1_554 S
S332 N334 1.610 . S
N333 S332 1.613 1_556 S
N333 C336 1.350 1_556 S
N334 S332 1.610 . S
N334 C335 1.351 . S
C335 C329 1.428 . S
C335 N334 1.351 . S
C335 C336 1.434 . S
C336 C327 1.429 1_554 S
C336 N333 1.350 1_554 S
C336 C335 1.434 . S
C337 C338 1.369 . S
C337 C339 1.419 . S
C337 H341 0.930 . S
C338 C337 1.369 . S
C338 C347 1.429 . S
C339 C337 1.419 . S
C339 C340 1.363 . S
C339 H342 0.929 . S
C340 C339 1.363 . S
C340 C346 1.428 . S
H341 C337 0.930 . S
H342 C339 0.929 . S
S343 N344 1.613 . S
S343 N345 1.610 . S
N344 S343 1.613 . S
N344 C347 1.350 . S
N345 S343 1.610 . S
N345 C346 1.351 . S
C346 C340 1.428 . S
C346 N345 1.351 . S
C346 C347 1.434 . S
C347 C338 1.429 . S
C347 N344 1.350 . S
C347 C346 1.434 . S
C348 C349 1.369 . S
C348 C350 1.419 . S
C348 H352 0.930 . S
C349 C348 1.369 . S
C349 C358 1.429 . S
C350 C348 1.419 . S
C350 C351 1.363 . S
C350 H353 0.929 . S
C351 C350 1.363 . S
C351 C357 1.428 . S
H352 C348 0.930 . S
H353 C350 0.929 . S
S354 N355 1.613 . S
S354 N356 1.610 . S
N355 S354 1.613 . S
N355 C358 1.350 . S
N356 S354 1.610 . S
N356 C357 1.351 . S
C357 C351 1.428 . S
C357 N356 1.351 . S
C357 C358 1.434 . S
C358 C349 1.429 . S
C358 N355 1.350 . S
C358 C357 1.434 . S
C359 C360 1.369 . S
C359 C361 1.419 . S
C359 H363 0.930 . S
C360 C359 1.369 . S
C360 C369 1.429 . S
C361 C359 1.419 . S
C361 C362 1.363 . S
C361 H364 0.929 . S
C362 C361 1.363 . S
C362 C368 1.428 . S
H363 C359 0.930 . S
H364 C361 0.929 . S
S365 N366 1.613 . S
S365 N367 1.610 . S
N366 S365 1.613 . S
N366 C369 1.350 . S
N367 S365 1.610 . S
N367 C368 1.351 . S
C368 C362 1.428 . S
C368 N367 1.351 . S
C368 C369 1.434 . S
C369 C360 1.429 . S
C369 N366 1.350 . S
C369 C368 1.434 . S
C370 C371 1.369 . S
C370 C372 1.419 . S
C370 H374 0.930 . S
C371 C370 1.369 . S
C371 C380 1.429 . S
C372 C370 1.419 . S
C372 C373 1.363 . S
C372 H375 0.929 . S
C373 C372 1.363 . S
C373 C379 1.428 . S
H374 C370 0.930 . S
H375 C372 0.929 . S
S376 N377 1.613 . S
S376 N378 1.610 . S
N377 S376 1.613 . S
N377 C380 1.350 . S
N378 S376 1.610 . S
N378 C379 1.351 . S
C379 C373 1.428 . S
C379 N378 1.351 . S
C379 C380 1.434 . S
C380 C371 1.429 . S
C380 N377 1.350 . S
C380 C379 1.434 . S
C381 C382 1.369 . S
C381 C383 1.419 . S
C381 H385 0.930 . S
C382 C381 1.369 . S
C382 C391 1.429 . S
C383 C381 1.419 . S
C383 C384 1.363 . S
C383 H386 0.929 . S
C384 C383 1.363 . S
C384 C390 1.428 . S
H385 C381 0.930 . S
H386 C383 0.929 . S
S387 N388 1.613 . S
S387 N389 1.610 . S
N388 S387 1.613 . S
N388 C391 1.350 . S
N389 S387 1.610 . S
N389 C390 1.351 . S
C390 C384 1.428 . S
C390 N389 1.351 . S
C390 C391 1.434 . S
C391 C382 1.429 . S
C391 N388 1.350 . S
C391 C390 1.434 . S
C392 C393 1.369 . S
C392 C394 1.419 . S
C392 H396 0.930 . S
C393 C392 1.369 . S
C393 C402 1.429 . S
C394 C392 1.419 . S
C394 C395 1.363 . S
C394 H397 0.929 . S
C395 C394 1.363 . S
C395 C401 1.428 . S
H396 C392 0.930 . S
H397 C394 0.929 . S
S398 N399 1.613 . S
S398 N400 1.610 . S
N399 S398 1.613 . S
N399 C402 1.350 . S
N400 S398 1.610 . S
N400 C401 1.351 . S
C401 C395 1.428 . S
C401 N400 1.351 . S
C401 C402 1.434 . S
C402 C393 1.429 . S
C402 N399 1.350 . S
C402 C401 1.434 . S
C403 C404 1.369 . S
C403 C405 1.419 . S
C403 H407 0.930 . S
C404 C403 1.369 . S
C404 C413 1.429 . S
C405 C403 1.419 . S
C405 C406 1.363 . S
C405 H408 0.929 . S
C406 C405 1.363 . S
C406 C412 1.428 . S
H407 C403 0.930 . S
H408 C405 0.929 . S
S409 N410 1.613 . S
S409 N411 1.610 . S
N410 S409 1.613 . S
N410 C413 1.350 . S
N411 S409 1.610 . S
N411 C412 1.351 . S
C412 C406 1.428 . S
C412 N411 1.351 . S
C412 C413 1.434 . S
C413 C404 1.429 . S
C413 N410 1.350 . S
C413 C412 1.434 . S
C414 C415 1.369 . S
C414 C416 1.419 . S
C414 H418 0.930 . S
C415 C414 1.369 . S
C415 C424 1.429 . S
C416 C414 1.419 . S
C416 C417 1.363 . S
C416 H419 0.929 . S
C417 C416 1.363 . S
C417 C423 1.428 . S
H418 C414 0.930 . S
H419 C416 0.929 . S
S420 N421 1.613 . S
S420 N422 1.610 . S
N421 S420 1.613 . S
N421 C424 1.350 . S
N422 S420 1.610 . S
N422 C423 1.351 . S
C423 C417 1.428 . S
C423 N422 1.351 . S
C423 C424 1.434 . S
C424 C415 1.429 . S
C424 N421 1.350 . S
C424 C423 1.434 . S
C425 C426 1.369 . S
C425 C427 1.419 . S
C425 H429 0.930 . S
C426 C425 1.369 . S
C426 C435 1.429 . S
C427 C425 1.419 . S
C427 C428 1.363 . S
C427 H430 0.929 . S
C428 C427 1.363 . S
C428 C434 1.428 . S
H429 C425 0.930 . S
H430 C427 0.929 . S
S431 N432 1.613 . S
S431 N433 1.610 . S
N432 S431 1.613 . S
N432 C435 1.350 . S
N433 S431 1.610 . S
N433 C434 1.351 . S
C434 C428 1.428 . S
C434 N433 1.351 . S
C434 C435 1.434 . S
C435 C426 1.429 . S
C435 N432 1.350 . S
C435 C434 1.434 . S
C173 C75 1.451 . S
C175 C104 1.412 1_565 S
C186 C112 1.298 . S
C184 C83 1.385 . S
C197 C116 1.396 . S
C195 C53 1.442 . S
C206 C61 1.384 . S
C208 C92 1.290 1_565 S
C219 C133 1.357 1_545 S
C217 C31 1.424 . S
C230 C167 1.432 . S
C228 C42 1.471 . S
C239 C9 1.429 . S
C241 C155 1.374 . S
C250 C20 1.465 . S
C252 C137 1.416 1_545 S
C263 C91 1.296 . S
C261 C17 1.438 1_554 S
C274 C125 1.311 . S
C272 C6 1.465 . S
C285 C129 1.294 . S
C283 C39 1.438 1_556 S
C296 C107 1.314 . S
C294 C28 1.465 . S
C307 C146 1.391 . S
C305 C64 1.523 . S
C316 C50 1.507 . S
C318 C154 1.372 . S
C329 C170 1.387 . S
C327 C86 1.499 . S
C338 C72 1.508 . S
C340 C150 1.363 . S
C351 C95 1.324 . S
C349 N4 1.480 . S
C362 C113 1.366 . S
C360 N15 1.529 . S
C371 N26 1.475 . S
C373 C128 1.328 . S
C384 C108 1.372 . S
C382 N37 1.527 . S
C395 C134 1.373 . S
C393 N48 1.557 . S
C404 N59 1.512 . S
C406 C158 1.335 . S
C415 N70 1.552 . S
C417 C171 1.383 . S
C426 N81 1.505 . S
C428 C149 1.339 . S
