# Generated by pormake.
# Topology eea, (3,6)-cn, num edge types: 1
# Building blocks:
#     Node 0, Type 0, BuildingBlock: VETTIZ_charged_linker_0, # of connection points: 3
#     Node 1, Type 0, BuildingBlock: VETTIZ_charged_linker_0, # of connection points: 3
#     Node 2, Type 0, BuildingBlock: VETTIZ_charged_linker_0, # of connection points: 3
#     Node 3, Type 0, BuildingBlock: VETTIZ_charged_linker_0, # of connection points: 3
#     Node 4, Type 0, BuildingBlock: VETTIZ_charged_linker_0, # of connection points: 3
#     Node 5, Type 0, BuildingBlock: VETTIZ_charged_linker_0, # of connection points: 3
#     Node 6, Type 0, BuildingBlock: VETTIZ_charged_linker_0, # of connection points: 3
#     Node 7, Type 0, BuildingBlock: VETTIZ_charged_linker_0, # of connection points: 3
#     Node 8, Type 0, BuildingBlock: VETTIZ_charged_linker_0, # of connection points: 3
#     Node 9, Type 0, BuildingBlock: VETTIZ_charged_linker_0, # of connection points: 3
#     Node 10, Type 0, BuildingBlock: VETTIZ_charged_linker_0, # of connection points: 3
#     Node 11, Type 0, BuildingBlock: VETTIZ_charged_linker_0, # of connection points: 3
#     Node 12, Type 0, BuildingBlock: VETTIZ_charged_linker_0, # of connection points: 3
#     Node 13, Type 0, BuildingBlock: VETTIZ_charged_linker_0, # of connection points: 3
#     Node 14, Type 0, BuildingBlock: VETTIZ_charged_linker_0, # of connection points: 3
#     Node 15, Type 0, BuildingBlock: VETTIZ_charged_linker_0, # of connection points: 3
#     Node 16, Type 0, BuildingBlock: VETTIZ_charged_linker_0, # of connection points: 3
#     Node 17, Type 0, BuildingBlock: VETTIZ_charged_linker_0, # of connection points: 3
#     Node 18, Type 1, BuildingBlock: CUKXOW_clean_sbu_0, # of connection points: 6
#     Node 19, Type 1, BuildingBlock: CUKXOW_clean_sbu_0, # of connection points: 6
#     Node 20, Type 1, BuildingBlock: CUKXOW_clean_sbu_0, # of connection points: 6
#     Node 21, Type 1, BuildingBlock: CUKXOW_clean_sbu_0, # of connection points: 6
#     Node 22, Type 1, BuildingBlock: CUKXOW_clean_sbu_0, # of connection points: 6
#     Node 23, Type 1, BuildingBlock: CUKXOW_clean_sbu_0, # of connection points: 6
#     Node 24, Type 1, BuildingBlock: CUKXOW_clean_sbu_0, # of connection points: 6
#     Node 25, Type 1, BuildingBlock: CUKXOW_clean_sbu_0, # of connection points: 6
#     Node 26, Type 1, BuildingBlock: CUKXOW_clean_sbu_0, # of connection points: 6
#     Edge 27, Type (0, 1), BuildingBlock: CIFDUS_clean_linker_0, # of connection points: 2
#     Edge 28, Type (0, 1), BuildingBlock: CIFDUS_clean_linker_0, # of connection points: 2
#     Edge 29, Type (0, 1), BuildingBlock: CIFDUS_clean_linker_0, # of connection points: 2
#     Edge 30, Type (0, 1), BuildingBlock: CIFDUS_clean_linker_0, # of connection points: 2
#     Edge 31, Type (0, 1), BuildingBlock: CIFDUS_clean_linker_0, # of connection points: 2
#     Edge 32, Type (0, 1), BuildingBlock: CIFDUS_clean_linker_0, # of connection points: 2
#     Edge 33, Type (0, 1), BuildingBlock: CIFDUS_clean_linker_0, # of connection points: 2
#     Edge 34, Type (0, 1), BuildingBlock: CIFDUS_clean_linker_0, # of connection points: 2
#     Edge 35, Type (0, 1), BuildingBlock: CIFDUS_clean_linker_0, # of connection points: 2
#     Edge 36, Type (0, 1), BuildingBlock: CIFDUS_clean_linker_0, # of connection points: 2
#     Edge 37, Type (0, 1), BuildingBlock: CIFDUS_clean_linker_0, # of connection points: 2
#     Edge 38, Type (0, 1), BuildingBlock: CIFDUS_clean_linker_0, # of connection points: 2
#     Edge 39, Type (0, 1), BuildingBlock: CIFDUS_clean_linker_0, # of connection points: 2
#     Edge 40, Type (0, 1), BuildingBlock: CIFDUS_clean_linker_0, # of connection points: 2
#     Edge 41, Type (0, 1), BuildingBlock: CIFDUS_clean_linker_0, # of connection points: 2
#     Edge 42, Type (0, 1), BuildingBlock: CIFDUS_clean_linker_0, # of connection points: 2
#     Edge 43, Type (0, 1), BuildingBlock: CIFDUS_clean_linker_0, # of connection points: 2
#     Edge 44, Type (0, 1), BuildingBlock: CIFDUS_clean_linker_0, # of connection points: 2
#     Edge 45, Type (0, 1), BuildingBlock: CIFDUS_clean_linker_0, # of connection points: 2
#     Edge 46, Type (0, 1), BuildingBlock: CIFDUS_clean_linker_0, # of connection points: 2
#     Edge 47, Type (0, 1), BuildingBlock: CIFDUS_clean_linker_0, # of connection points: 2
#     Edge 48, Type (0, 1), BuildingBlock: CIFDUS_clean_linker_0, # of connection points: 2
#     Edge 49, Type (0, 1), BuildingBlock: CIFDUS_clean_linker_0, # of connection points: 2
#     Edge 50, Type (0, 1), BuildingBlock: CIFDUS_clean_linker_0, # of connection points: 2
#     Edge 51, Type (0, 1), BuildingBlock: CIFDUS_clean_linker_0, # of connection points: 2
#     Edge 52, Type (0, 1), BuildingBlock: CIFDUS_clean_linker_0, # of connection points: 2
#     Edge 53, Type (0, 1), BuildingBlock: CIFDUS_clean_linker_0, # of connection points: 2
#     Edge 54, Type (0, 1), BuildingBlock: CIFDUS_clean_linker_0, # of connection points: 2
#     Edge 55, Type (0, 1), BuildingBlock: CIFDUS_clean_linker_0, # of connection points: 2
#     Edge 56, Type (0, 1), BuildingBlock: CIFDUS_clean_linker_0, # of connection points: 2
#     Edge 57, Type (0, 1), BuildingBlock: CIFDUS_clean_linker_0, # of connection points: 2
#     Edge 58, Type (0, 1), BuildingBlock: CIFDUS_clean_linker_0, # of connection points: 2
#     Edge 59, Type (0, 1), BuildingBlock: CIFDUS_clean_linker_0, # of connection points: 2
#     Edge 60, Type (0, 1), BuildingBlock: CIFDUS_clean_linker_0, # of connection points: 2
#     Edge 61, Type (0, 1), BuildingBlock: CIFDUS_clean_linker_0, # of connection points: 2
#     Edge 62, Type (0, 1), BuildingBlock: CIFDUS_clean_linker_0, # of connection points: 2
#     Edge 63, Type (0, 1), BuildingBlock: CIFDUS_clean_linker_0, # of connection points: 2
#     Edge 64, Type (0, 1), BuildingBlock: CIFDUS_clean_linker_0, # of connection points: 2
#     Edge 65, Type (0, 1), BuildingBlock: CIFDUS_clean_linker_0, # of connection points: 2
#     Edge 66, Type (0, 1), BuildingBlock: CIFDUS_clean_linker_0, # of connection points: 2
#     Edge 67, Type (0, 1), BuildingBlock: CIFDUS_clean_linker_0, # of connection points: 2
#     Edge 68, Type (0, 1), BuildingBlock: CIFDUS_clean_linker_0, # of connection points: 2
#     Edge 69, Type (0, 1), BuildingBlock: CIFDUS_clean_linker_0, # of connection points: 2
#     Edge 70, Type (0, 1), BuildingBlock: CIFDUS_clean_linker_0, # of connection points: 2
#     Edge 71, Type (0, 1), BuildingBlock: CIFDUS_clean_linker_0, # of connection points: 2
#     Edge 72, Type (0, 1), BuildingBlock: CIFDUS_clean_linker_0, # of connection points: 2
#     Edge 73, Type (0, 1), BuildingBlock: CIFDUS_clean_linker_0, # of connection points: 2
#     Edge 74, Type (0, 1), BuildingBlock: CIFDUS_clean_linker_0, # of connection points: 2
#     Edge 75, Type (0, 1), BuildingBlock: CIFDUS_clean_linker_0, # of connection points: 2
#     Edge 76, Type (0, 1), BuildingBlock: CIFDUS_clean_linker_0, # of connection points: 2
#     Edge 77, Type (0, 1), BuildingBlock: CIFDUS_clean_linker_0, # of connection points: 2
#     Edge 78, Type (0, 1), BuildingBlock: CIFDUS_clean_linker_0, # of connection points: 2
#     Edge 79, Type (0, 1), BuildingBlock: CIFDUS_clean_linker_0, # of connection points: 2
#     Edge 80, Type (0, 1), BuildingBlock: CIFDUS_clean_linker_0, # of connection points: 2
# Relax obj value: 0.018
# Max RMSD: 0.127
# Mean RMSD: 0.058
data_MOF--net-eea--node1-CUKXOW_clean_sbu_0--node2-VETTIZ_charged_linker_0--edge1-CIFDUS_clean_linker_0
_symmetry_space_group_name_H-M    P1
_symmetry_Int_Tables_number       1
_symmetry_cell_setting            triclinic
loop_
_symmetry_equiv_pos_as_xyz
'x, y, z'
_cell_length_a     60.249507
_cell_length_b     57.174275
_cell_length_c     65.634423
_cell_angle_alpha  93.183289
_cell_angle_beta   92.925852
_cell_angle_gamma 119.95726
loop_
_atom_site_label
_atom_site_type_symbol
_atom_site_fract_x
_atom_site_fract_y
_atom_site_fract_z
_atom_type_partial_charge
C0 C 0.21131 0.1771 0.40362 0.0
C1 C 0.21879 0.20299 0.41278 0.0
C2 C 0.23529 0.21286 0.43103 0.0
C3 C 0.23594 0.17066 0.43102 0.0
C4 C 0.22032 0.16152 0.41279 0.0
C5 C 0.215 0.13409 0.40437 0.0
H6 H 0.23124 0.0261 0.4123 0.0
C7 C 0.24165 0.14922 0.43643 0.0
C8 C 0.22966 0.12796 0.42063 0.0
H9 H 0.1872 0.03846 0.36448 0.0
H10 H 0.199 0.08215 0.38154 0.0
H11 H 0.28055 0.08884 0.41859 0.0
H12 H 0.21085 0.0443 0.44757 0.0
H13 H 0.23328 0.06774 0.46697 0.0
H14 H 0.23899 0.04241 0.45468 0.0
H15 H 0.27441 0.06191 0.43434 0.0
H16 H 0.28835 0.09648 0.44524 0.0
C17 C 0.22654 0.13708 0.38343 0.0
C18 C 0.1856 0.11419 0.4034 0.0
C19 C 0.2915 0.15784 0.50464 0.0
C20 C 0.29874 0.14042 0.51352 0.0
C21 C 0.29223 0.1157 0.50236 0.0
C22 C 0.27904 0.10845 0.48284 0.0
C23 C 0.27192 0.1259 0.47419 0.0
C24 C 0.27814 0.15017 0.48497 0.0
C25 C 0.26886 0.16599 0.47302 0.0
C26 C 0.25549 0.14679 0.45368 0.0
C27 C 0.25755 0.12342 0.45451 0.0
C28 C 0.29262 0.19281 0.46839 0.0
C29 C 0.24976 0.16997 0.48556 0.0
C30 C 0.22454 0.0385 0.40538 0.0
C31 C 0.20852 0.02906 0.38694 0.0
C32 C 0.19958 0.04538 0.37867 0.0
C33 C 0.20648 0.07074 0.38861 0.0
C34 C 0.2223 0.07982 0.40718 0.0
C35 C 0.23095 0.06371 0.41529 0.0
C36 C 0.24637 0.07594 0.43568 0.0
C37 C 0.24606 0.10236 0.43824 0.0
C38 C 0.23207 0.10457 0.42146 0.0
C39 C 0.27387 0.08098 0.43356 0.0
C40 C 0.23188 0.05668 0.45215 0.0
H41 H 0.25611 0.20516 0.45429 0.0
H42 H 0.19893 0.16926 0.38942 0.0
H43 H 0.17716 0.11919 0.41647 0.0
H44 H 0.18064 0.09298 0.40475 0.0
H45 H 0.17564 0.11515 0.38904 0.0
H46 H 0.24456 0.15698 0.3835 0.0
H47 H 0.21288 0.13585 0.37082 0.0
H48 H 0.23227 0.12189 0.37967 0.0
H49 H 0.29632 0.17706 0.51269 0.0
H50 H 0.29699 0.10159 0.50887 0.0
H51 H 0.27476 0.08937 0.47531 0.0
H52 H 0.3092 0.18983 0.46584 0.0
H53 H 0.29875 0.20874 0.48134 0.0
H54 H 0.28927 0.20048 0.45417 0.0
H55 H 0.23598 0.15067 0.49171 0.0
H56 H 0.23789 0.17593 0.47637 0.0
H57 H 0.26008 0.18551 0.49876 0.0
H58 H 0.24129 0.23288 0.43824 0.0
C59 C 0.24379 0.19675 0.44029 0.0
C60 C 0.952 0.18241 0.40764 0.0
C61 C 0.97208 0.20743 0.41697 0.0
C62 C 0.97033 0.2156 0.43726 0.0
C63 C 0.92896 0.17466 0.43822 0.0
C64 C 0.93081 0.16649 0.41846 0.0
C65 C 0.90798 0.13943 0.41064 0.0
H66 H 0.78968 0.03519 0.42402 0.0
C67 C 0.90403 0.15384 0.44484 0.0
C68 C 0.89163 0.13322 0.42861 0.0
H69 H 0.8357 0.04268 0.37382 0.0
H70 H 0.86976 0.0862 0.38966 0.0
H71 H 0.83685 0.05475 0.45868 0.0
H72 H 0.80181 0.09548 0.42985 0.0
H73 H 0.81109 0.11015 0.45526 0.0
H74 H 0.78775 0.07444 0.45015 0.0
H75 H 0.80529 0.04854 0.46314 0.0
H76 H 0.83357 0.07498 0.47804 0.0
C77 C 0.91741 0.11891 0.40692 0.0
C78 C 0.89469 0.14327 0.39134 0.0
C79 C 0.87757 0.16376 0.51625 0.0
C80 C 0.85455 0.14849 0.52562 0.0
C81 C 0.83347 0.12651 0.51374 0.0
C82 C 0.83552 0.11898 0.49361 0.0
C83 C 0.85879 0.13369 0.48482 0.0
C84 C 0.87913 0.15616 0.49582 0.0
C85 C 0.90153 0.17057 0.48305 0.0
C86 C 0.89164 0.15213 0.46308 0.0
C87 C 0.86667 0.13041 0.46441 0.0
C88 C 0.92524 0.171 0.4937 0.0
C89 C 0.90542 0.19906 0.48019 0.0
C90 C 0.80704 0.0464 0.41641 0.0
C91 C 0.81005 0.03582 0.39761 0.0
C92 C 0.83306 0.05059 0.38831 0.0
C93 C 0.85276 0.07579 0.39755 0.0
C94 C 0.84957 0.08611 0.41645 0.0
C95 C 0.8271 0.07126 0.42565 0.0
C96 C 0.82769 0.08436 0.44633 0.0
C97 C 0.85418 0.10963 0.44801 0.0
C98 C 0.86676 0.11078 0.43036 0.0
C99 C 0.82559 0.06475 0.46251 0.0
C100 C 0.80591 0.09137 0.44556 0.0
H101 H 0.94888 0.2067 0.46329 0.0
H102 H 0.95249 0.17548 0.39207 0.0
H103 H 0.89318 0.16181 0.39385 0.0
H104 H 0.87483 0.12644 0.38737 0.0
H105 H 0.90584 0.14554 0.37788 0.0
H106 H 0.93518 0.12472 0.41695 0.0
H107 H 0.92185 0.11777 0.39079 0.0
H108 H 0.90337 0.09833 0.41076 0.0
H109 H 0.89413 0.18102 0.52462 0.0
H110 H 0.81507 0.11504 0.5199 0.0
H111 H 0.81878 0.10191 0.48566 0.0
H112 H 0.91972 0.15089 0.49918 0.0
H113 H 0.93367 0.18636 0.50718 0.0
H114 H 0.94039 0.17513 0.48334 0.0
H115 H 0.88676 0.1987 0.47961 0.0
H116 H 0.91324 0.20656 0.46555 0.0
H117 H 0.9182 0.21405 0.49305 0.0
H118 H 0.98565 0.23448 0.44503 0.0
C119 C 0.94897 0.19939 0.4479 0.0
C120 C 0.95538 0.75058 0.41305 0.0
C121 C 0.97469 0.74679 0.42247 0.0
C122 C 0.97045 0.735 0.44129 0.0
C123 C 0.92844 0.7312 0.4407 0.0
C124 C 0.93286 0.74316 0.4225 0.0
C125 C 0.91163 0.7479 0.41499 0.0
H126 H 0.8005 0.7447 0.43042 0.0
C127 C 0.90289 0.72586 0.44622 0.0
C128 C 0.89318 0.73589 0.43129 0.0
H129 H 0.85025 0.77921 0.38201 0.0
H130 H 0.87783 0.76337 0.39509 0.0
H131 H 0.79989 0.68978 0.42646 0.0
H132 H 0.84553 0.76133 0.46794 0.0
H133 H 0.83195 0.73234 0.48177 0.0
H134 H 0.81115 0.74024 0.46691 0.0
H135 H 0.78852 0.69467 0.45012 0.0
H136 H 0.80767 0.67847 0.4486 0.0
C137 C 0.89992 0.73171 0.39375 0.0
C138 C 0.92287 0.779 0.41506 0.0
C139 C 0.8657 0.6781 0.50964 0.0
C140 C 0.84174 0.66895 0.51749 0.0
C141 C 0.82286 0.67235 0.50679 0.0
C142 C 0.82805 0.68558 0.48883 0.0
C143 C 0.85231 0.69532 0.48142 0.0
C144 C 0.87041 0.69082 0.49142 0.0
C145 C 0.89449 0.70113 0.48049 0.0
C146 C 0.88796 0.71288 0.46248 0.0
C147 C 0.86344 0.70994 0.46341 0.0
C148 C 0.89746 0.6766 0.47353 0.0
C149 C 0.91735 0.72331 0.49499 0.0
C150 C 0.81725 0.74869 0.42256 0.0
C151 C 0.82343 0.76375 0.40537 0.0
C152 C 0.84539 0.76836 0.3956 0.0
C153 C 0.86136 0.75901 0.40317 0.0
C154 C 0.85541 0.7448 0.42072 0.0
C155 C 0.83343 0.73939 0.42992 0.0
C156 C 0.82991 0.72325 0.44809 0.0
C157 C 0.85415 0.72119 0.44882 0.0
C158 C 0.86893 0.73391 0.43279 0.0
C159 C 0.80518 0.69513 0.44325 0.0
C160 C 0.82948 0.73998 0.46727 0.0
H161 H 0.94538 0.71835 0.46471 0.0
H162 H 0.95753 0.75915 0.39848 0.0
H163 H 0.93995 0.79055 0.42642 0.0
H164 H 0.90925 0.78549 0.41973 0.0
H165 H 0.92905 0.78601 0.39982 0.0
H166 H 0.8988 0.71167 0.3934 0.0
H167 H 0.91184 0.74279 0.38142 0.0
H168 H 0.87995 0.72699 0.38993 0.0
H169 H 0.88044 0.67556 0.51761 0.0
H170 H 0.80437 0.66556 0.51275 0.0
H171 H 0.81313 0.68812 0.48159 0.0
H172 H 0.87846 0.65873 0.46788 0.0
H173 H 0.90569 0.67068 0.48644 0.0
H174 H 0.90947 0.6803 0.46062 0.0
H175 H 0.91128 0.73571 0.50424 0.0
H176 H 0.93321 0.738 0.48668 0.0
H177 H 0.92497 0.71418 0.5058 0.0
H178 H 0.98507 0.73221 0.44917 0.0
C179 C 0.94741 0.72709 0.45039 0.0
C180 C 0.17689 0.24137 0.6046 0.0
C181 C 0.20138 0.24823 0.59865 0.0
C182 C 0.20979 0.26205 0.58101 0.0
C183 C 0.16987 0.26218 0.57557 0.0
C184 C 0.16153 0.24866 0.59288 0.0
C185 C 0.1352 0.2436 0.59707 0.0
H186 H 0.02915 0.24986 0.56706 0.0
C187 C 0.14941 0.26653 0.56666 0.0
C188 C 0.129 0.25575 0.5791 0.0
H189 H 0.04571 0.22252 0.62309 0.0
H190 H 0.08675 0.2325 0.6125 0.0
H191 H 0.08608 0.30409 0.56973 0.0
H192 H 0.05492 0.22541 0.53613 0.0
H193 H 0.07263 0.25064 0.51993 0.0
H194 H 0.04451 0.24881 0.52984 0.0
H195 H 0.06189 0.29265 0.54854 0.0
H196 H 0.09557 0.30855 0.54467 0.0
C197 C 0.13755 0.25923 0.61791 0.0
C198 C 0.11685 0.21257 0.59615 0.0
C199 C 0.16311 0.31248 0.50111 0.0
C200 C 0.14751 0.31785 0.48789 0.0
C201 C 0.12244 0.31039 0.49287 0.0
C202 C 0.11315 0.29779 0.51082 0.0
C203 C 0.12905 0.29243 0.52383 0.0
C204 C 0.15353 0.29972 0.51875 0.0
C205 C 0.16748 0.29148 0.5336 0.0
C206 C 0.1476 0.27842 0.54874 0.0
C207 C 0.12512 0.27905 0.5431 0.0
C208 C 0.19181 0.31756 0.5435 0.0
C209 C 0.17289 0.27071 0.52192 0.0
C210 C 0.0416 0.24613 0.57715 0.0
C211 C 0.03362 0.23479 0.59583 0.0
C212 C 0.0507 0.23033 0.60833 0.0
C213 C 0.07481 0.23645 0.60228 0.0
C214 C 0.08235 0.24757 0.58362 0.0
C215 C 0.06606 0.25261 0.5715 0.0
C216 C 0.07813 0.266 0.55272 0.0
C217 C 0.10425 0.268 0.55562 0.0
C218 C 0.10639 0.25678 0.57364 0.0
C219 C 0.08048 0.29427 0.55375 0.0
C220 C 0.06172 0.24694 0.53354 0.0
H221 H 0.20185 0.27953 0.55625 0.0
H222 H 0.17003 0.23097 0.61821 0.0
H223 H 0.11999 0.20213 0.58274 0.0
H224 H 0.09635 0.20657 0.59423 0.0
H225 H 0.12029 0.20438 0.61017 0.0
H226 H 0.15727 0.27694 0.62166 0.0
H227 H 0.1333 0.246 0.63064 0.0
H228 H 0.12486 0.26805 0.61785 0.0
H229 H 0.18218 0.31727 0.49746 0.0
H230 H 0.11002 0.31427 0.48284 0.0
H231 H 0.09391 0.29249 0.51377 0.0
H232 H 0.18794 0.33459 0.54576 0.0
H233 H 0.20797 0.32408 0.53366 0.0
H234 H 0.19822 0.31532 0.55897 0.0
H235 H 0.1581 0.25907 0.50886 0.0
H236 H 0.17194 0.25499 0.53151 0.0
H237 H 0.19191 0.28099 0.51561 0.0
H238 H 0.2284 0.2672 0.57595 0.0
C239 C 0.19423 0.26906 0.56949 0.0
C240 C 0.78688 0.82259 0.60549 0.0
C241 C 0.77825 0.79609 0.5971 0.0
C242 C 0.7609 0.78568 0.57932 0.0
C243 C 0.76188 0.82864 0.57822 0.0
C244 C 0.7783 0.83828 0.59602 0.0
C245 C 0.78512 0.86646 0.60365 0.0
H246 H 0.77219 0.97604 0.59441 0.0
C247 C 0.75693 0.85043 0.57237 0.0
C248 C 0.77027 0.87241 0.58748 0.0
H249 H 0.81878 0.96479 0.64063 0.0
H250 H 0.80496 0.92006 0.62448 0.0
H251 H 0.78967 0.95522 0.55838 0.0
H252 H 0.72208 0.91434 0.59045 0.0
H253 H 0.7125 0.90531 0.56407 0.0
H254 H 0.72781 0.94044 0.57395 0.0
H255 H 0.76163 0.9576 0.55201 0.0
H256 H 0.76597 0.93115 0.53998 0.0
C257 C 0.81462 0.88521 0.60348 0.0
C258 C 0.77487 0.86537 0.62499 0.0
C259 C 0.70653 0.84137 0.50448 0.0
C260 C 0.69999 0.85912 0.4953 0.0
C261 C 0.70646 0.88387 0.50637 0.0
C262 C 0.7195 0.8911 0.52594 0.0
C263 C 0.72644 0.87356 0.5347 0.0
C264 C 0.71969 0.84898 0.52419 0.0
C265 C 0.72849 0.83293 0.53636 0.0
C266 C 0.74267 0.85261 0.55532 0.0
C267 C 0.74125 0.87631 0.55417 0.0
C268 C 0.74676 0.82757 0.52377 0.0
C269 C 0.70439 0.80686 0.5416 0.0
C270 C 0.77908 0.96368 0.60111 0.0
C271 C 0.79627 0.97356 0.61888 0.0
C272 C 0.80546 0.95739 0.62695 0.0
C273 C 0.79737 0.93146 0.61755 0.0
C274 C 0.78015 0.92176 0.59974 0.0
C275 C 0.77154 0.93793 0.59169 0.0
C276 C 0.75477 0.92505 0.57193 0.0
C277 C 0.75412 0.89811 0.56978 0.0
C278 C 0.76879 0.89625 0.58619 0.0
C279 C 0.76846 0.94311 0.55461 0.0
C280 C 0.72786 0.92115 0.57506 0.0
H281 H 0.73983 0.79312 0.55607 0.0
H282 H 0.79993 0.8309 0.61932 0.0
H283 H 0.75614 0.84638 0.62558 0.0
H284 H 0.77083 0.88185 0.62878 0.0
H285 H 0.78854 0.86589 0.63727 0.0
H286 H 0.8222 0.87807 0.59095 0.0
H287 H 0.82496 0.88571 0.61815 0.0
H288 H 0.82015 0.90616 0.60042 0.0
H289 H 0.70158 0.82206 0.49651 0.0
H290 H 0.70207 0.89814 0.49966 0.0
H291 H 0.72401 0.91032 0.53336 0.0
H292 H 0.76103 0.84646 0.51742 0.0
H293 H 0.73585 0.81196 0.51072 0.0
H294 H 0.75807 0.82094 0.53299 0.0
H295 H 0.68828 0.81064 0.54412 0.0
H296 H 0.7077 0.79953 0.55603 0.0
H297 H 0.69761 0.79039 0.52898 0.0
H298 H 0.75402 0.7652 0.57267 0.0
C299 C 0.75277 0.80191 0.56973 0.0
C300 C 0.04338 0.83002 0.59882 0.0
C301 C 0.02217 0.8052 0.59068 0.0
C302 C 0.02343 0.79345 0.57157 0.0
C303 C 0.06653 0.83137 0.5692 0.0
C304 C 0.06515 0.84255 0.58799 0.0
C305 C 0.08913 0.86882 0.59499 0.0
H306 H 0.2078 0.96809 0.57863 0.0
C307 C 0.09226 0.84971 0.5623 0.0
C308 C 0.10551 0.87148 0.57756 0.0
H309 H 0.16233 0.96437 0.62845 0.0
H310 H 0.12887 0.91978 0.61484 0.0
H311 H 0.19615 0.90722 0.57698 0.0
H312 H 0.1599 0.94355 0.54339 0.0
H313 H 0.16525 0.92273 0.52598 0.0
H314 H 0.19222 0.95083 0.54079 0.0
H315 H 0.20944 0.92493 0.55501 0.0
H316 H 0.18574 0.88917 0.55262 0.0
C317 C 0.10082 0.86525 0.61538 0.0
C318 C 0.08203 0.89149 0.59641 0.0
C319 C 0.11703 0.83195 0.49213 0.0
C320 C 0.14018 0.84518 0.4827 0.0
C321 C 0.16203 0.86704 0.49378 0.0
C322 C 0.16073 0.87635 0.5136 0.0
C323 C 0.13734 0.86366 0.52259 0.0
C324 C 0.11618 0.84126 0.51223 0.0
C325 C 0.09368 0.82913 0.52517 0.0
C326 C 0.10445 0.8489 0.54443 0.0
C327 C 0.12997 0.8693 0.5426 0.0
C328 C 0.08811 0.80045 0.52953 0.0
C329 C 0.07073 0.82949 0.51387 0.0
C330 C 0.1907 0.95735 0.58664 0.0
C331 C 0.18752 0.96954 0.60458 0.0
C332 C 0.165 0.95529 0.61454 0.0
C333 C 0.14559 0.92944 0.60655 0.0
C334 C 0.14849 0.91777 0.58821 0.0
C335 C 0.17081 0.93158 0.5786 0.0
C336 C 0.16989 0.91635 0.55879 0.0
C337 C 0.14322 0.89132 0.55805 0.0
C338 C 0.13095 0.89235 0.57536 0.0
C339 C 0.19147 0.90912 0.56075 0.0
C340 C 0.17206 0.93418 0.54121 0.0
H341 H 0.0452 0.79674 0.5462 0.0
H342 H 0.04327 0.83941 0.61358 0.0
H343 H 0.06497 0.88633 0.58569 0.0
H344 H 0.09737 0.91098 0.59184 0.0
H345 H 0.0774 0.89476 0.6121 0.0
H346 H 0.09836 0.8446 0.61514 0.0
H347 H 0.09129 0.86795 0.62862 0.0
H348 H 0.12178 0.87922 0.61822 0.0
H349 H 0.10008 0.81478 0.48405 0.0
H350 H 0.18 0.8775 0.4868 0.0
H351 H 0.17794 0.89336 0.52105 0.0
H352 H 0.10622 0.79974 0.53125 0.0
H353 H 0.07542 0.7851 0.51682 0.0
H354 H 0.07936 0.79421 0.54409 0.0
H355 H 0.07716 0.84952 0.5079 0.0
H356 H 0.05553 0.82635 0.52392 0.0
H357 H 0.06205 0.81371 0.50067 0.0
H358 H 0.00727 0.77436 0.56491 0.0
C359 C 0.04544 0.80647 0.56075 0.0
C360 C 0.88083 0.51125 0.73252 0.0
C361 C 0.88318 0.53506 0.74194 0.0
C362 C 0.89623 0.54523 0.76162 0.0
C363 C 0.90403 0.50753 0.76237 0.0
C364 C 0.89166 0.49808 0.74285 0.0
C365 C 0.89198 0.47331 0.73448 0.0
H366 H 0.92293 0.37649 0.74762 0.0
C367 C 0.91328 0.48917 0.76862 0.0
C368 C 0.90664 0.4694 0.75215 0.0
H369 H 0.88197 0.38466 0.69505 0.0
H370 H 0.88745 0.42627 0.71135 0.0
H371 H 0.96692 0.43837 0.75555 0.0
H372 H 0.89449 0.39286 0.78097 0.0
H373 H 0.9179 0.41269 0.80124 0.0
H374 H 0.92127 0.38775 0.78596 0.0
H375 H 0.96307 0.41692 0.7756 0.0
H376 H 0.97182 0.45196 0.78111 0.0
C377 C 0.90697 0.48024 0.7151 0.0
C378 C 0.86374 0.44966 0.73076 0.0
C379 C 0.95259 0.49902 0.8415 0.0
C380 C 0.9627 0.48459 0.85135 0.0
C381 C 0.96496 0.46459 0.83954 0.0
C382 C 0.95605 0.45795 0.81879 0.0
C383 C 0.94481 0.47148 0.80947 0.0
C384 C 0.94393 0.49223 0.82056 0.0
C385 C 0.93287 0.50549 0.80748 0.0
C386 C 0.92605 0.48825 0.78713 0.0
C387 C 0.93291 0.4682 0.78853 0.0
C388 C 0.95417 0.53524 0.80594 0.0
C389 C 0.90868 0.50259 0.81687 0.0
C390 C 0.91555 0.38755 0.73953 0.0
C391 C 0.90201 0.37737 0.72005 0.0
C392 C 0.8923 0.39206 0.71013 0.0
C393 C 0.89551 0.41621 0.71964 0.0
C394 C 0.90837 0.42571 0.7394 0.0
C395 C 0.91832 0.41158 0.74895 0.0
C396 C 0.93063 0.42427 0.7702 0.0
C397 C 0.92642 0.44838 0.77179 0.0
C398 C 0.91334 0.44902 0.75372 0.0
C399 C 0.95958 0.43324 0.77085 0.0
C400 C 0.91554 0.40342 0.78553 0.0
H401 H 0.91611 0.53995 0.78702 0.0
H402 H 0.8712 0.50335 0.71724 0.0
H403 H 0.85187 0.45121 0.74263 0.0
H404 H 0.86183 0.42955 0.73189 0.0
H405 H 0.85482 0.44987 0.71559 0.0
H406 H 0.92266 0.50183 0.71654 0.0
H407 H 0.8941 0.47695 0.70119 0.0
H408 H 0.91684 0.46856 0.71258 0.0
H409 H 0.95089 0.51478 0.84994 0.0
H410 H 0.97361 0.45388 0.84637 0.0
H411 H 0.95805 0.4423 0.81085 0.0
H412 H 0.97367 0.53757 0.80764 0.0
H413 H 0.95355 0.54918 0.81808 0.0
H414 H 0.95295 0.54228 0.79079 0.0
H415 H 0.89619 0.48146 0.82079 0.0
H416 H 0.89657 0.50682 0.8063 0.0
H417 H 0.91409 0.51637 0.83113 0.0
H418 H 0.89825 0.5637 0.769 0.0
C419 C 0.90656 0.53146 0.77198 0.0
C420 C 0.61492 0.51724 0.74034 0.0
C421 C 0.63383 0.54273 0.74977 0.0
C422 C 0.62985 0.55154 0.76909 0.0
C423 C 0.58893 0.50971 0.769 0.0
C424 C 0.59308 0.5011 0.75024 0.0
C425 C 0.57227 0.473 0.74247 0.0
H426 H 0.45862 0.3616 0.75353 0.0
C427 C 0.56404 0.48786 0.77486 0.0
C428 C 0.55441 0.46632 0.75934 0.0
H429 H 0.50994 0.3739 0.70642 0.0
H430 H 0.5395 0.41918 0.72194 0.0
H431 H 0.50192 0.38625 0.78996 0.0
H432 H 0.46467 0.42093 0.75576 0.0
H433 H 0.46886 0.43416 0.78134 0.0
H434 H 0.44935 0.39802 0.77478 0.0
H435 H 0.46997 0.37916 0.79384 0.0
H436 H 0.49794 0.4076 0.80773 0.0
C437 C 0.5843 0.45449 0.74116 0.0
C438 C 0.55955 0.47453 0.72184 0.0
C439 C 0.52705 0.49935 0.84057 0.0
C440 C 0.50381 0.48242 0.849 0.0
C441 C 0.4862 0.4571 0.83837 0.0
C442 C 0.49148 0.4487 0.81977 0.0
C443 C 0.5147 0.46566 0.81157 0.0
C444 C 0.53203 0.4906 0.8218 0.0
C445 C 0.55559 0.50584 0.81039 0.0
C446 C 0.54948 0.48576 0.7918 0.0
C447 C 0.52553 0.46225 0.79275 0.0
C448 C 0.57937 0.5105 0.8241 0.0
C449 C 0.55686 0.53223 0.80438 0.0
C450 C 0.47616 0.37424 0.74652 0.0
C451 C 0.48205 0.36443 0.72873 0.0
C452 C 0.50519 0.38114 0.72019 0.0
C453 C 0.52228 0.40738 0.72924 0.0
C454 C 0.51632 0.41688 0.74718 0.0
C455 C 0.49365 0.40034 0.75557 0.0
C456 C 0.49109 0.41337 0.77515 0.0
C457 C 0.51601 0.44047 0.77714 0.0
C458 C 0.53051 0.44245 0.76064 0.0
C459 C 0.48997 0.39575 0.79266 0.0
C460 C 0.4672 0.41671 0.77181 0.0
H461 H 0.60561 0.54297 0.79339 0.0
H462 H 0.61688 0.5098 0.7254 0.0
H463 H 0.55704 0.49256 0.72261 0.0
H464 H 0.54007 0.45698 0.71779 0.0
H465 H 0.57161 0.47626 0.70912 0.0
H466 H 0.60194 0.46256 0.75192 0.0
H467 H 0.58978 0.45269 0.7255 0.0
H468 H 0.57137 0.43397 0.74575 0.0
H469 H 0.54093 0.51897 0.84831 0.0
H470 H 0.46842 0.44342 0.84465 0.0
H471 H 0.47727 0.42915 0.8126 0.0
H472 H 0.57467 0.49245 0.83252 0.0
H473 H 0.5861 0.52819 0.83562 0.0
H474 H 0.59552 0.51347 0.81524 0.0
H475 H 0.53739 0.52827 0.79894 0.0
H476 H 0.56881 0.54086 0.79162 0.0
H477 H 0.56431 0.54782 0.8177 0.0
H478 H 0.64417 0.57089 0.77694 0.0
C479 C 0.60749 0.53522 0.77871 0.0
C480 C 0.63312 0.12114 0.76107 0.0
C481 C 0.65242 0.11733 0.77057 0.0
C482 C 0.64854 0.10671 0.78985 0.0
C483 C 0.60657 0.10313 0.78922 0.0
C484 C 0.61046 0.11361 0.77041 0.0
C485 C 0.5877 0.11486 0.76142 0.0
H486 H 0.46777 0.09357 0.76936 0.0
C487 C 0.58052 0.09672 0.7943 0.0
C488 C 0.56937 0.10333 0.77786 0.0
H489 H 0.51522 0.12512 0.71925 0.0
H490 H 0.54892 0.1209 0.73706 0.0
H491 H 0.47784 0.04634 0.77472 0.0
H492 H 0.5128 0.12646 0.80535 0.0
H493 H 0.50843 0.10454 0.82439 0.0
H494 H 0.48085 0.09993 0.80874 0.0
H495 H 0.46362 0.05426 0.79536 0.0
H496 H 0.48647 0.04296 0.79984 0.0
C497 C 0.57732 0.09639 0.74096 0.0
C498 C 0.5962 0.14499 0.75933 0.0
C499 C 0.54727 0.06162 0.86298 0.0
C500 C 0.52353 0.05397 0.87106 0.0
C501 C 0.50378 0.05393 0.85853 0.0
C502 C 0.50775 0.06254 0.83893 0.0
C503 C 0.53169 0.07113 0.83136 0.0
C504 C 0.55087 0.07006 0.84303 0.0
C505 C 0.57449 0.07866 0.83155 0.0
C506 C 0.56649 0.08604 0.81157 0.0
C507 C 0.5414 0.08165 0.81177 0.0
C508 C 0.57839 0.054 0.82805 0.0
C509 C 0.59746 0.10356 0.84392 0.0
C510 C 0.48526 0.09928 0.76204 0.0
C511 C 0.48872 0.10969 0.74281 0.0
C512 C 0.5121 0.11734 0.73414 0.0
C513 C 0.53161 0.11471 0.74447 0.0
C514 C 0.52778 0.10425 0.7637 0.0
C515 C 0.50484 0.09668 0.77208 0.0
C516 C 0.50394 0.08589 0.79255 0.0
C517 C 0.5302 0.08828 0.79516 0.0
C518 C 0.5441 0.09908 0.77829 0.0
C519 C 0.48178 0.05589 0.79072 0.0
C520 C 0.50119 0.10493 0.80871 0.0
H521 H 0.62398 0.09166 0.81384 0.0
H522 H 0.63542 0.12975 0.74651 0.0
H523 H 0.60981 0.15824 0.77261 0.0
H524 H 0.5801 0.14902 0.75932 0.0
H525 H 0.6061 0.1519 0.7452 0.0
H526 H 0.58 0.07855 0.74166 0.0
H527 H 0.58752 0.10755 0.72797 0.0
H528 H 0.5564 0.08759 0.73737 0.0
H529 H 0.56274 0.06149 0.87202 0.0
H530 H 0.48498 0.04713 0.86388 0.0
H531 H 0.49192 0.06225 0.83048 0.0
H532 H 0.55957 0.03475 0.82555 0.0
H533 H 0.58939 0.05245 0.8415 0.0
H534 H 0.58815 0.05454 0.81415 0.0
H535 H 0.59174 0.11842 0.8493 0.0
H536 H 0.61387 0.11467 0.83479 0.0
H537 H 0.60424 0.09747 0.85761 0.0
H538 H 0.66282 0.10323 0.79754 0.0
C539 C 0.62582 0.09972 0.79924 0.0
C540 C 0.85211 0.57856 0.92751 0.0
C541 C 0.87491 0.58416 0.9187 0.0
C542 C 0.88029 0.59727 0.90047 0.0
C543 C 0.84075 0.59877 0.90025 0.0
C544 C 0.83529 0.5857 0.91794 0.0
C545 C 0.80964 0.57975 0.9247 0.0
H546 H 0.69937 0.58298 0.90844 0.0
C547 C 0.81906 0.60285 0.89403 0.0
C548 C 0.80063 0.59148 0.90815 0.0
H549 H 0.72193 0.54935 0.9574 0.0
H550 H 0.7624 0.56337 0.94362 0.0
H551 H 0.75715 0.63914 0.90858 0.0
H552 H 0.72089 0.56166 0.87241 0.0
H553 H 0.73706 0.58738 0.85622 0.0
H554 H 0.71067 0.58591 0.86904 0.0
H555 H 0.72926 0.62779 0.89085 0.0
H556 H 0.76115 0.64424 0.88247 0.0
C557 C 0.81435 0.59533 0.94603 0.0
C558 C 0.79219 0.54852 0.92415 0.0
C559 C 0.82328 0.65204 0.83113 0.0
C560 C 0.80559 0.65693 0.82028 0.0
C561 C 0.78143 0.64853 0.82767 0.0
C562 C 0.77505 0.63549 0.84581 0.0
C563 C 0.79286 0.63032 0.8564 0.0
C564 C 0.81645 0.6385 0.84889 0.0
C565 C 0.83227 0.62959 0.86102 0.0
C566 C 0.8147 0.61541 0.87746 0.0
C567 C 0.79163 0.61594 0.87484 0.0
C568 C 0.85743 0.65527 0.87011 0.0
C569 C 0.83634 0.60967 0.8468 0.0
C570 C 0.71316 0.57885 0.91624 0.0
C571 C 0.70725 0.56475 0.93397 0.0
C572 C 0.7257 0.55966 0.94354 0.0
C573 C 0.74933 0.56797 0.93556 0.0
C574 C 0.75481 0.58157 0.9177 0.0
C575 C 0.737 0.587 0.90836 0.0
C576 C 0.74639 0.60161 0.8894 0.0
C577 C 0.77269 0.60398 0.889 0.0
C578 C 0.77736 0.59206 0.90562 0.0
C579 C 0.74852 0.62966 0.8928 0.0
C580 C 0.7278 0.58343 0.8707 0.0
H581 H 0.86878 0.61466 0.87753 0.0
H582 H 0.8473 0.56885 0.9416 0.0
H583 H 0.79677 0.53795 0.91175 0.0
H584 H 0.77158 0.54154 0.92061 0.0
H585 H 0.79479 0.54107 0.93885 0.0
H586 H 0.83242 0.61534 0.94717 0.0
H587 H 0.81614 0.58379 0.95845 0.0
H588 H 0.79917 0.60019 0.94912 0.0
H589 H 0.84165 0.65757 0.82537 0.0
H590 H 0.76741 0.65178 0.81924 0.0
H591 H 0.75635 0.62946 0.85068 0.0
H592 H 0.85336 0.67116 0.8762 0.0
H593 H 0.87113 0.66391 0.85823 0.0
H594 H 0.86715 0.65154 0.88318 0.0
H595 H 0.82071 0.59936 0.83412 0.0
H596 H 0.83571 0.59288 0.85486 0.0
H597 H 0.85483 0.62039 0.83975 0.0
H598 H 0.89731 0.60141 0.89298 0.0
C599 C 0.86349 0.60474 0.89133 0.0
C600 C 0.46251 0.1648 0.94094 0.0
C601 C 0.45886 0.1398 0.93273 0.0
C602 C 0.44717 0.1297 0.91265 0.0
C603 C 0.44367 0.1698 0.90899 0.0
C604 C 0.45451 0.17925 0.92894 0.0
C605 C 0.45583 0.20553 0.93566 0.0
H606 H 0.43915 0.31016 0.91271 0.0
C607 C 0.43792 0.18993 0.90061 0.0
C608 C 0.4448 0.21079 0.91627 0.0
H609 H 0.46422 0.29622 0.97132 0.0
H610 H 0.45974 0.25425 0.95658 0.0
H611 H 0.47037 0.28953 0.88466 0.0
H612 H 0.39316 0.25022 0.90263 0.0
H613 H 0.39115 0.23727 0.87733 0.0
H614 H 0.40287 0.27302 0.88292 0.0
H615 H 0.44641 0.29699 0.87495 0.0
H616 H 0.44964 0.26981 0.86298 0.0
C617 C 0.48444 0.22732 0.94122 0.0
C618 C 0.43849 0.20063 0.95349 0.0
C619 C 0.40207 0.17663 0.82603 0.0
C620 C 0.39477 0.19195 0.81426 0.0
C621 C 0.39831 0.21669 0.82327 0.0
C622 C 0.4085 0.22586 0.84366 0.0
C623 C 0.41524 0.21016 0.85537 0.0
C624 C 0.41209 0.18603 0.84655 0.0
C625 C 0.41989 0.17188 0.86161 0.0
C626 C 0.4282 0.19151 0.88082 0.0
C627 C 0.42547 0.21393 0.87702 0.0
C628 C 0.44265 0.1699 0.85356 0.0
C629 C 0.39595 0.14415 0.86437 0.0
C630 C 0.44381 0.29809 0.92229 0.0
C631 C 0.45217 0.30652 0.94317 0.0
C632 C 0.45761 0.29005 0.95523 0.0
C633 C 0.45506 0.26573 0.94662 0.0
C634 C 0.44672 0.25754 0.92571 0.0
C635 C 0.44097 0.27349 0.91397 0.0
C636 C 0.43117 0.2609 0.89229 0.0
C637 C 0.43221 0.23491 0.89292 0.0
C638 C 0.4416 0.23321 0.91247 0.0
C639 C 0.45016 0.28025 0.87781 0.0
C640 C 0.40321 0.25515 0.88837 0.0
H641 H 0.4311 0.13601 0.88543 0.0
H642 H 0.47108 0.17272 0.95649 0.0
H643 H 0.42267 0.17914 0.95262 0.0
H644 H 0.42853 0.21246 0.95302 0.0
H645 H 0.4497 0.20538 0.96861 0.0
H646 H 0.49661 0.22581 0.92962 0.0
H647 H 0.49154 0.22463 0.95637 0.0
H648 H 0.488 0.24822 0.94147 0.0
H649 H 0.39941 0.15744 0.81959 0.0
H650 H 0.39319 0.22905 0.81447 0.0
H651 H 0.41057 0.24479 0.84953 0.0
H652 H 0.45653 0.1892 0.84746 0.0
H653 H 0.43581 0.15341 0.84095 0.0
H654 H 0.45397 0.16657 0.86558 0.0
H655 H 0.37803 0.14526 0.86275 0.0
H656 H 0.39634 0.13753 0.87982 0.0
H657 H 0.39383 0.12815 0.85271 0.0
H658 H 0.44417 0.11039 0.90614 0.0
C659 C 0.4397 0.14463 0.90068 0.0
C660 C 0.70833 0.15529 0.93205 0.0
C661 C 0.68724 0.13242 0.9211 0.0
C662 C 0.68992 0.12495 0.90088 0.0
C663 C 0.7338 0.16264 0.90303 0.0
C664 C 0.7313 0.16981 0.92287 0.0
C665 C 0.75564 0.19397 0.9328 0.0
H666 H 0.87617 0.29675 0.92437 0.0
C667 C 0.76021 0.18199 0.89811 0.0
C668 C 0.77314 0.20024 0.91561 0.0
H669 H 0.83333 0.2794 0.97768 0.0
H670 H 0.79847 0.23844 0.95931 0.0
H671 H 0.86491 0.23762 0.91411 0.0
H672 H 0.82838 0.27968 0.89016 0.0
H673 H 0.83394 0.26284 0.86946 0.0
H674 H 0.86076 0.28807 0.88632 0.0
H675 H 0.87745 0.25896 0.89373 0.0
H676 H 0.85357 0.22339 0.88874 0.0
C677 C 0.76534 0.18508 0.95153 0.0
C678 C 0.74985 0.21702 0.93805 0.0
C679 C 0.78786 0.17613 0.82666 0.0
C680 C 0.8114 0.19105 0.81797 0.0
C681 C 0.83252 0.21221 0.8304 0.0
C682 C 0.8302 0.21883 0.85072 0.0
C683 C 0.80658 0.20405 0.85903 0.0
C684 C 0.78598 0.18284 0.84719 0.0
C685 C 0.76282 0.16852 0.85913 0.0
C686 C 0.77294 0.18491 0.87995 0.0
C687 C 0.7985 0.20588 0.87966 0.0
C688 C 0.75651 0.13883 0.8602 0.0
C689 C 0.74073 0.17133 0.84874 0.0
C690 C 0.85926 0.28401 0.93204 0.0
C691 C 0.85726 0.2913 0.95238 0.0
C692 C 0.83523 0.27408 0.96203 0.0
C693 C 0.81499 0.25044 0.95128 0.0
C694 C 0.81688 0.24386 0.93069 0.0
C695 C 0.83904 0.2602 0.92159 0.0
C696 C 0.8382 0.24947 0.89994 0.0
C697 C 0.8115 0.22447 0.89728 0.0
C698 C 0.799 0.22146 0.91524 0.0
C699 C 0.85968 0.24209 0.8989 0.0
C700 C 0.84057 0.27107 0.88559 0.0
H701 H 0.71374 0.13318 0.87641 0.0
H702 H 0.70707 0.162 0.94748 0.0
H703 H 0.73759 0.2181 0.9253 0.0
H704 H 0.76724 0.23728 0.94023 0.0
H705 H 0.73942 0.21353 0.95206 0.0
H706 H 0.75969 0.16331 0.94916 0.0
H707 H 0.75722 0.18782 0.96568 0.0
H708 H 0.78657 0.19602 0.95417 0.0
H709 H 0.77118 0.15971 0.81772 0.0
H710 H 0.85115 0.22354 0.82457 0.0
H711 H 0.84699 0.23521 0.85919 0.0
H712 H 0.77428 0.13741 0.86041 0.0
H713 H 0.74343 0.12552 0.84676 0.0
H714 H 0.74792 0.13036 0.87441 0.0
H715 H 0.74811 0.19227 0.84428 0.0
H716 H 0.72555 0.16782 0.85891 0.0
H717 H 0.73182 0.15713 0.83464 0.0
H718 H 0.67431 0.10721 0.8921 0.0
C719 C 0.71298 0.13994 0.8918 0.0
C720 C 0.55663 0.85632 0.07339 0.0
C721 C 0.56578 0.88308 0.08173 0.0
C722 C 0.57949 0.89162 0.10131 0.0
C723 C 0.57407 0.84691 0.10404 0.0
C724 C 0.56106 0.83874 0.08469 0.0
C725 C 0.55272 0.80976 0.07788 0.0
H726 H 0.55273 0.6942 0.09555 0.0
C727 C 0.57513 0.82356 0.11171 0.0
C728 C 0.56277 0.80179 0.09634 0.0
H729 H 0.51761 0.70938 0.04279 0.0
H730 H 0.53127 0.75452 0.05813 0.0
H731 H 0.60483 0.75396 0.1032 0.0
H732 H 0.53105 0.71767 0.12728 0.0
H733 H 0.55283 0.74065 0.14722 0.0
H734 H 0.55624 0.7125 0.13757 0.0
H735 H 0.59381 0.72705 0.11974 0.0
H736 H 0.60991 0.76207 0.12995 0.0
C737 C 0.56646 0.80957 0.05861 0.0
C738 C 0.52294 0.79346 0.07454 0.0
C739 C 0.61616 0.83109 0.18359 0.0
C740 C 0.6196 0.8125 0.19465 0.0
C741 C 0.61087 0.78628 0.18511 0.0
C742 C 0.5992 0.77872 0.16503 0.0
C743 C 0.59595 0.79743 0.1542 0.0
C744 C 0.60431 0.82312 0.16345 0.0
C745 C 0.59899 0.84013 0.14943 0.0
C746 C 0.58563 0.82018 0.13049 0.0
C747 C 0.58407 0.79527 0.13341 0.0
C748 C 0.62507 0.86456 0.1451 0.0
C749 C 0.58079 0.84807 0.15965 0.0
C750 C 0.5482 0.70741 0.08731 0.0
C751 C 0.53439 0.69852 0.06789 0.0
C752 C 0.52827 0.71593 0.05777 0.0
C753 C 0.5363 0.74212 0.06668 0.0
C754 C 0.55037 0.75091 0.08604 0.0
C755 C 0.55569 0.73345 0.09616 0.0
C756 C 0.56939 0.74558 0.11713 0.0
C757 C 0.57216 0.77352 0.11767 0.0
C758 C 0.56126 0.77664 0.09936 0.0
C759 C 0.59586 0.74719 0.11775 0.0
C760 C 0.5517 0.72825 0.13323 0.0
H761 H 0.59396 0.88133 0.12738 0.0
H762 H 0.54633 0.84921 0.05829 0.0
H763 H 0.51429 0.80182 0.0852 0.0
H764 H 0.51473 0.77209 0.07782 0.0
H765 H 0.51608 0.79415 0.05867 0.0
H766 H 0.58672 0.82661 0.06026 0.0
H767 H 0.55666 0.81185 0.0447 0.0
H768 H 0.56778 0.7911 0.05594 0.0
H769 H 0.62276 0.85145 0.19036 0.0
H770 H 0.6127 0.77131 0.1933 0.0
H771 H 0.59308 0.75849 0.15876 0.0
H772 H 0.64017 0.8588 0.14455 0.0
H773 H 0.63183 0.8816 0.15723 0.0
H774 H 0.62435 0.87194 0.13001 0.0
H775 H 0.56564 0.83059 0.16681 0.0
H776 H 0.5703 0.85384 0.14866 0.0
H777 H 0.59155 0.86501 0.17185 0.0
H778 H 0.58657 0.91206 0.10815 0.0
C779 C 0.58362 0.87369 0.1125 0.0
C780 C 0.28191 0.84422 0.07687 0.0
C781 C 0.30035 0.86999 0.08624 0.0
C782 C 0.29466 0.88029 0.104 0.0
C783 C 0.25315 0.83916 0.10306 0.0
C784 C 0.2586 0.82924 0.0855 0.0
C785 C 0.23728 0.80129 0.07767 0.0
H786 H 0.1252 0.6893 0.09239 0.0
C787 C 0.22764 0.81814 0.10842 0.0
C788 C 0.21825 0.79591 0.09356 0.0
H789 H 0.17119 0.70246 0.04127 0.0
H790 H 0.20065 0.74859 0.05551 0.0
H791 H 0.17228 0.72148 0.12821 0.0
H792 H 0.12614 0.74464 0.092 0.0
H793 H 0.13294 0.76274 0.11614 0.0
H794 H 0.11467 0.72612 0.11395 0.0
H795 H 0.13873 0.70881 0.13075 0.0
H796 H 0.1632 0.73995 0.14468 0.0
C797 C 0.24817 0.78182 0.07816 0.0
C798 C 0.2264 0.80267 0.05612 0.0
C799 C 0.19233 0.83276 0.1738 0.0
C800 C 0.17015 0.81587 0.1833 0.0
C801 C 0.1521 0.79021 0.17355 0.0
C802 C 0.15627 0.78113 0.15467 0.0
C803 C 0.17891 0.79779 0.14555 0.0
C804 C 0.19632 0.82332 0.15493 0.0
C805 C 0.21952 0.83788 0.14312 0.0
C806 C 0.21311 0.81692 0.12514 0.0
C807 C 0.18939 0.79344 0.12677 0.0
C808 C 0.24359 0.84329 0.1569 0.0
C809 C 0.22042 0.86375 0.13615 0.0
C810 C 0.14176 0.70215 0.08441 0.0
C811 C 0.14624 0.69232 0.06591 0.0
C812 C 0.16753 0.70971 0.0556 0.0
C813 C 0.1846 0.7364 0.06393 0.0
C814 C 0.18018 0.74584 0.08268 0.0
C815 C 0.15874 0.72897 0.09235 0.0
C816 C 0.15629 0.74292 0.11149 0.0
C817 C 0.18014 0.77077 0.11197 0.0
C818 C 0.19427 0.7722 0.09526 0.0
C819 C 0.15751 0.72754 0.12984 0.0
C820 C 0.13118 0.7441 0.10845 0.0
H821 H 0.26805 0.87402 0.12597 0.0
H822 H 0.28573 0.83556 0.06333 0.0
H823 H 0.22857 0.82297 0.05453 0.0
H824 H 0.20549 0.78832 0.05312 0.0
H825 H 0.23657 0.79883 0.04389 0.0
H826 H 0.2608 0.78633 0.09252 0.0
H827 H 0.25983 0.78403 0.06506 0.0
H828 H 0.23317 0.76034 0.07799 0.0
H829 H 0.20666 0.8524 0.18127 0.0
H830 H 0.13507 0.77688 0.18088 0.0
H831 H 0.142 0.76119 0.14818 0.0
H832 H 0.23888 0.82638 0.16665 0.0
H833 H 0.25119 0.86222 0.16725 0.0
H834 H 0.25917 0.84446 0.14809 0.0
H835 H 0.2007 0.85978 0.13164 0.0
H836 H 0.23097 0.87085 0.12245 0.0
H837 H 0.22915 0.88047 0.14869 0.0
H838 H 0.30835 0.90024 0.11136 0.0
C839 C 0.27118 0.86507 0.11242 0.0
C840 C 0.29041 0.43764 0.07973 0.0
C841 C 0.3105 0.43386 0.08765 0.0
C842 C 0.30924 0.42472 0.10734 0.0
C843 C 0.26794 0.42159 0.11015 0.0
C844 C 0.26949 0.43154 0.09125 0.0
C845 C 0.2467 0.43477 0.08536 0.0
H846 H 0.13004 0.41579 0.10652 0.0
C847 C 0.24322 0.41589 0.11771 0.0
C848 C 0.23063 0.42359 0.1033 0.0
H849 H 0.17542 0.45787 0.05762 0.0
H850 H 0.20836 0.44829 0.0692 0.0
H851 H 0.14031 0.36733 0.10449 0.0
H852 H 0.17905 0.44372 0.14167 0.0
H853 H 0.17306 0.41765 0.15747 0.0
H854 H 0.14644 0.4178 0.14397 0.0
H855 H 0.12742 0.37291 0.12709 0.0
H856 H 0.15013 0.36099 0.12819 0.0
C857 C 0.23288 0.4171 0.06502 0.0
C858 C 0.25642 0.4654 0.08435 0.0
C859 C 0.21849 0.37481 0.18541 0.0
C860 C 0.19585 0.36492 0.19536 0.0
C861 C 0.17427 0.36459 0.18576 0.0
C862 C 0.17552 0.37504 0.16677 0.0
C863 C 0.19858 0.38577 0.15726 0.0
C864 C 0.21929 0.38474 0.16627 0.0
C865 C 0.24152 0.39522 0.15321 0.0
C866 C 0.2311 0.40372 0.13528 0.0
C867 C 0.20615 0.39861 0.13794 0.0
C868 C 0.24587 0.3714 0.14673 0.0
C869 C 0.265 0.41987 0.16547 0.0
C870 C 0.14714 0.42325 0.09838 0.0
C871 C 0.14982 0.43751 0.08099 0.0
C872 C 0.1724 0.44636 0.07078 0.0
C873 C 0.19174 0.44106 0.07766 0.0
C874 C 0.18879 0.42701 0.09512 0.0
C875 C 0.16684 0.41852 0.10524 0.0
C876 C 0.16747 0.40485 0.12402 0.0
C877 C 0.19357 0.40692 0.12365 0.0
C878 C 0.20587 0.41965 0.10656 0.0
C879 C 0.14513 0.375 0.121 0.0
C880 C 0.16631 0.42164 0.14287 0.0
H881 H 0.28834 0.41146 0.13331 0.0
H882 H 0.29065 0.44469 0.06473 0.0
H883 H 0.27462 0.47824 0.09432 0.0
H884 H 0.24283 0.47134 0.09012 0.0
H885 H 0.26022 0.47127 0.0685 0.0
H886 H 0.23069 0.39664 0.06553 0.0
H887 H 0.24405 0.42646 0.05187 0.0
H888 H 0.21326 0.41366 0.06186 0.0
H889 H 0.23523 0.37496 0.19246 0.0
H890 H 0.1567 0.35709 0.19332 0.0
H891 H 0.15863 0.37474 0.16039 0.0
H892 H 0.2276 0.35158 0.14571 0.0
H893 H 0.25973 0.37037 0.15794 0.0
H894 H 0.25261 0.37251 0.13128 0.0
H895 H 0.25889 0.43252 0.17433 0.0
H896 H 0.2792 0.43373 0.15557 0.0
H897 H 0.2748 0.41319 0.17654 0.0
H898 H 0.32469 0.42246 0.11423 0.0
C899 C 0.28811 0.41849 0.11853 0.0
C900 C 0.50127 0.88104 0.26273 0.0
C901 C 0.52264 0.88217 0.25415 0.0
C902 C 0.52895 0.89258 0.23497 0.0
C903 C 0.4933 0.90112 0.23365 0.0
C904 C 0.48702 0.89058 0.2523 0.0
C905 C 0.46419 0.89131 0.25968 0.0
H906 H 0.37058 0.92268 0.24671 0.0
C907 C 0.475 0.91011 0.22735 0.0
C908 C 0.45795 0.90439 0.24252 0.0
H909 H 0.38614 0.88412 0.29595 0.0
H910 H 0.42223 0.88735 0.2801 0.0
H911 H 0.43161 0.9682 0.24365 0.0
H912 H 0.38327 0.89074 0.20838 0.0
H913 H 0.39972 0.91657 0.19208 0.0
H914 H 0.37685 0.91822 0.20777 0.0
H915 H 0.40582 0.96278 0.22543 0.0
H916 H 0.43708 0.97143 0.21761 0.0
C917 C 0.47306 0.90957 0.28025 0.0
C918 C 0.44245 0.8616 0.26094 0.0
C919 C 0.48551 0.95568 0.16184 0.0
C920 C 0.4741 0.96923 0.15265 0.0
C921 C 0.45312 0.96897 0.16159 0.0
C922 C 0.44433 0.95614 0.17962 0.0
C923 C 0.45675 0.94361 0.18895 0.0
C924 C 0.47699 0.94362 0.17993 0.0
C925 C 0.4891 0.93087 0.1922 0.0
C926 C 0.4728 0.92298 0.21012 0.0
C927 C 0.4536 0.93014 0.20819 0.0
C928 C 0.5175 0.9528 0.19887 0.0
C929 C 0.4857 0.9057 0.17912 0.0
C930 C 0.38184 0.91492 0.25393 0.0
C931 C 0.37561 0.90334 0.27276 0.0
C932 C 0.39076 0.89358 0.28172 0.0
C933 C 0.41169 0.89528 0.27237 0.0
C934 C 0.41782 0.9069 0.25372 0.0
C935 C 0.40318 0.91663 0.24474 0.0
C936 C 0.41343 0.92885 0.22504 0.0
C937 C 0.43605 0.92402 0.22357 0.0
C938 C 0.43835 0.91119 0.24053 0.0
C939 C 0.42236 0.95941 0.22788 0.0
C940 C 0.39225 0.91295 0.20728 0.0
H941 H 0.52016 0.90968 0.21013 0.0
H942 H 0.49608 0.8735 0.27756 0.0
H943 H 0.44368 0.84745 0.24933 0.0
H944 H 0.42301 0.85862 0.25747 0.0
H945 H 0.44362 0.85471 0.27625 0.0
H946 H 0.49332 0.92636 0.28043 0.0
H947 H 0.472 0.89779 0.29343 0.0
H948 H 0.46197 0.91991 0.28292 0.0
H949 H 0.50118 0.95468 0.15529 0.0
H950 H 0.4439 0.97924 0.15498 0.0
H951 H 0.42849 0.95681 0.1858 0.0
H952 H 0.51978 0.97336 0.20099 0.0
H953 H 0.53043 0.95334 0.1872 0.0
H954 H 0.52459 0.95 0.21387 0.0
H955 H 0.4665 0.89474 0.17022 0.0
H956 H 0.48635 0.89054 0.18846 0.0
H957 H 0.50052 0.91164 0.16803 0.0
H958 H 0.54516 0.8934 0.22792 0.0
C959 C 0.51436 0.90196 0.22465 0.0
C960 C 0.10273 0.47304 0.27328 0.0
C961 C 0.09572 0.44728 0.2639 0.0
C962 C 0.08377 0.43978 0.2437 0.0
C963 C 0.08665 0.48357 0.2425 0.0
C964 C 0.098 0.4907 0.26239 0.0
C965 C 0.10462 0.51888 0.27014 0.0
H966 H 0.10419 0.63477 0.25494 0.0
C967 C 0.08464 0.50669 0.23555 0.0
C968 C 0.09495 0.52733 0.25176 0.0
H969 H 0.13767 0.617 0.30732 0.0
H970 H 0.12315 0.57203 0.2914 0.0
H971 H 0.12527 0.60789 0.22144 0.0
H972 H 0.05189 0.57619 0.24648 0.0
H973 H 0.04602 0.56489 0.22026 0.0
H974 H 0.06173 0.60078 0.22804 0.0
H975 H 0.10382 0.62052 0.21618 0.0
H976 H 0.10073 0.59151 0.20127 0.0
C977 C 0.13427 0.53635 0.27475 0.0
C978 C 0.08924 0.51676 0.28885 0.0
C979 C 0.04904 0.50207 0.16252 0.0
C980 C 0.04338 0.51953 0.15191 0.0
C981 C 0.0474 0.5436 0.16278 0.0
C982 C 0.05756 0.55054 0.18334 0.0
C983 C 0.06363 0.5332 0.19347 0.0
C984 C 0.05877 0.50912 0.1832 0.0
C985 C 0.06468 0.49224 0.19684 0.0
C986 C 0.07483 0.51067 0.21672 0.0
C987 C 0.07448 0.53481 0.21461 0.0
C988 C 0.0857 0.48799 0.18765 0.0
C989 C 0.03921 0.46562 0.19903 0.0
C990 C 0.10809 0.62095 0.26295 0.0
C991 C 0.12186 0.62913 0.28243 0.0
C992 C 0.12705 0.61097 0.29232 0.0
C993 C 0.11862 0.58492 0.28302 0.0
C994 C 0.10517 0.57702 0.26343 0.0
C995 C 0.10024 0.59496 0.25363 0.0
C996 C 0.08699 0.58345 0.23238 0.0
C997 C 0.08472 0.55566 0.23112 0.0
C998 C 0.09517 0.55199 0.24947 0.0
C999 C 0.10491 0.60174 0.21687 0.0
C1000 C 0.0603 0.58131 0.23154 0.0
H1001 H 0.0704 0.45101 0.21757 0.0
H1002 H 0.11171 0.47936 0.28884 0.0
H1003 H 0.06929 0.49919 0.28607 0.0
H1004 H 0.087 0.53458 0.29205 0.0
H1005 H 0.09842 0.51383 0.30283 0.0
H1006 H 0.14433 0.52859 0.26514 0.0
H1007 H 0.14027 0.53636 0.29104 0.0
H1008 H 0.14198 0.55753 0.27103 0.0
H1009 H 0.04626 0.48339 0.15493 0.0
H1010 H 0.04243 0.5571 0.1555 0.0
H1011 H 0.06021 0.56915 0.19061 0.0
H1012 H 0.10091 0.5072 0.18232 0.0
H1013 H 0.07743 0.47245 0.17428 0.0
H1014 H 0.09577 0.48198 0.19883 0.0
H1015 H 0.02234 0.46859 0.19728 0.0
H1016 H 0.03846 0.45836 0.21439 0.0
H1017 H 0.03603 0.4493 0.18722 0.0
H1018 H 0.07843 0.42018 0.23603 0.0
C1019 C 0.07924 0.45777 0.23296 0.0
C1020 C 0.37997 0.49002 0.26088 0.0
C1021 C 0.35968 0.46597 0.2505 0.0
C1022 C 0.36182 0.45943 0.22985 0.0
C1023 C 0.40377 0.50024 0.23059 0.0
C1024 C 0.4015 0.50674 0.25071 0.0
C1025 C 0.4241 0.53323 0.25967 0.0
H1026 H 0.53629 0.64622 0.24702 0.0
C1027 C 0.42887 0.52194 0.22476 0.0
C1028 C 0.44073 0.5413 0.2419 0.0
H1029 H 0.4945 0.62792 0.30085 0.0
H1030 H 0.46295 0.58346 0.28435 0.0
H1031 H 0.53399 0.59168 0.24085 0.0
H1032 H 0.4881 0.62126 0.21317 0.0
H1033 H 0.49589 0.60522 0.19345 0.0
H1034 H 0.5213 0.63329 0.20949 0.0
H1035 H 0.54271 0.60897 0.21812 0.0
H1036 H 0.52231 0.57254 0.21695 0.0
C1037 C 0.43721 0.52781 0.27828 0.0
C1038 C 0.4143 0.55312 0.26484 0.0
C1039 C 0.45878 0.52016 0.15285 0.0
C1040 C 0.48196 0.53791 0.14449 0.0
C1041 C 0.50195 0.55934 0.15751 0.0
C1042 C 0.49863 0.56433 0.17779 0.0
C1043 C 0.47514 0.54763 0.18562 0.0
C1044 C 0.45589 0.52537 0.17359 0.0
C1045 C 0.43306 0.50901 0.18564 0.0
C1046 C 0.44173 0.5258 0.20646 0.0
C1047 C 0.46626 0.54862 0.20598 0.0
C1048 C 0.43008 0.48071 0.18706 0.0
C1049 C 0.4092 0.50829 0.17505 0.0
C1050 C 0.52023 0.6326 0.25516 0.0
C1051 C 0.51744 0.64051 0.275 0.0
C1052 C 0.4968 0.62214 0.28544 0.0
C1053 C 0.47852 0.59647 0.27579 0.0
C1054 C 0.48112 0.58912 0.25557 0.0
C1055 C 0.50209 0.60692 0.24586 0.0
C1056 C 0.50264 0.59556 0.22488 0.0
C1057 C 0.47772 0.56847 0.22302 0.0
C1058 C 0.46515 0.56478 0.24096 0.0
C1059 C 0.52666 0.5921 0.22504 0.0
C1060 C 0.5021 0.61476 0.20931 0.0
H1061 H 0.38408 0.47031 0.20421 0.0
H1062 H 0.37939 0.4957 0.27677 0.0
H1063 H 0.39854 0.5498 0.25333 0.0
H1064 H 0.42915 0.57458 0.26441 0.0
H1065 H 0.40664 0.55029 0.2801 0.0
H1066 H 0.43681 0.50824 0.27535 0.0
H1067 H 0.42725 0.5267 0.29229 0.0
H1068 H 0.45779 0.54322 0.28149 0.0
H1069 H 0.44319 0.50312 0.14346 0.0
H1070 H 0.52041 0.57261 0.15198 0.0
H1071 H 0.51453 0.58138 0.18647 0.0
H1072 H 0.44922 0.48245 0.19005 0.0
H1073 H 0.42072 0.46761 0.17251 0.0
H1074 H 0.41904 0.47024 0.1998 0.0
H1075 H 0.41426 0.52867 0.17039 0.0
H1076 H 0.39363 0.50286 0.18519 0.0
H1077 H 0.40154 0.49378 0.16106 0.0
H1078 H 0.34643 0.44133 0.22126 0.0
C1079 C 0.3837 0.47636 0.2199 0.0
Tb1080 Tb 0.52614 0.02172 0.00612 0.0
C1081 C 0.51192 0.9651 0.02185 0.0
Tb1082 Tb 0.46888 0.98031 0.00987 0.0
O1083 O 0.53427 0.03094 0.03935 0.0
O1084 O 0.49747 0.01751 0.02552 0.0
O1085 O 0.52965 0.98683 0.01373 0.0
C1086 C 0.42378 0.9473 0.02409 0.0
O1087 O 0.48772 0.95943 0.02256 0.0
C1088 C 0.48534 0.98022 0.97348 0.0
C1089 C 0.48283 0.03702 0.99499 0.0
O1090 O 0.44575 0.96063 0.03494 0.0
O1091 O 0.42718 0.95226 0.00511 0.0
O1092 O 0.46163 0.97255 0.9765 0.0
O1093 O 0.49758 0.98459 0.9907 0.0
O1094 O 0.46576 0.01578 0.00395 0.0
O1095 O 0.50691 0.04255 0.99354 0.0
C1096 C 0.5698 0.05278 0.98919 0.0
O1097 O 0.5676 0.05116 0.00872 0.0
O1098 O 0.54746 0.03709 0.97931 0.0
C1099 C 0.51043 0.02256 0.04255 0.0
Tb1100 Tb 0.9836 0.50937 0.99521 0.0
C1101 C 0.04133 0.54935 0.00894 0.0
Tb1102 Tb 0.01727 0.48523 0.00738 0.0
O1103 O 0.98824 0.52747 0.02636 0.0
O1104 O 0.98972 0.49196 0.02127 0.0
O1105 O 0.02102 0.546 0.99745 0.0
C1106 C 0.05039 0.47156 0.02348 0.0
O1107 O 0.0427 0.52876 0.01612 0.0
C1108 C 0.00797 0.48504 0.96783 0.0
C1109 C 0.96023 0.4453 0.99157 0.0
O1110 O 0.05048 0.47987 0.00551 0.0
O1111 O 0.03153 0.47099 0.0327 0.0
O1112 O 0.01198 0.46721 0.97603 0.0
O1113 O 0.01137 0.50304 0.98161 0.0
O1114 O 0.97975 0.44806 0.00395 0.0
O1115 O 0.95954 0.46641 0.98478 0.0
C1116 C 0.95176 0.52292 0.97658 0.0
O1117 O 0.94621 0.50698 0.99116 0.0
O1118 O 0.97529 0.53132 0.9725 0.0
C1119 C 0.99307 0.51031 0.03478 0.0
Tb1120 Tb 0.47434 0.49737 0.00343 0.0
C1121 C 0.49005 0.45787 0.98253 0.0
Tb1122 Tb 0.5322 0.51916 0.99761 0.0
O1123 O 0.46337 0.4914 0.97047 0.0
O1124 O 0.5008 0.52008 0.9824 0.0
O1125 O 0.47284 0.45945 0.99359 0.0
C1126 C 0.57821 0.53675 0.98312 0.0
O1127 O 0.51282 0.47926 0.98007 0.0
C1128 C 0.5182 0.50717 0.03487 0.0
C1129 C 0.51631 0.55955 0.01627 0.0
O1130 O 0.56499 0.51389 0.99103 0.0
O1131 O 0.56567 0.54971 0.98365 0.0
O1132 O 0.54139 0.5248 0.03108 0.0
O1133 O 0.5054 0.49572 0.01805 0.0
O1134 O 0.53353 0.55707 0.006 0.0
O1135 O 0.4933 0.53865 0.01879 0.0
C1136 C 0.43031 0.4827 0.02019 0.0
O1137 O 0.43965 0.50004 0.00661 0.0
O1138 O 0.44559 0.47331 0.02412 0.0
C1139 C 0.48664 0.50795 0.96601 0.0
Tb1140 Tb 0.19894 0.35728 0.33663 0.0
C1141 C 0.18645 0.30176 0.3526 0.0
Tb1142 Tb 0.14069 0.3113 0.3391 0.0
O1143 O 0.20753 0.36382 0.37037 0.0
O1144 O 0.17018 0.34597 0.35686 0.0
O1145 O 0.20188 0.32151 0.34165 0.0
C1146 C 0.09347 0.28018 0.35121 0.0
O1147 O 0.16308 0.29701 0.35612 0.0
C1148 C 0.16081 0.3105 0.30422 0.0
C1149 C 0.15275 0.36807 0.32374 0.0
O1150 O 0.10758 0.27154 0.34316 0.0
O1151 O 0.10573 0.30648 0.35205 0.0
O1152 O 0.14024 0.28988 0.30975 0.0
O1153 O 0.16621 0.33003 0.31698 0.0
O1154 O 0.13473 0.34342 0.32798 0.0
O1155 O 0.17797 0.37692 0.32564 0.0
C1156 C 0.24258 0.38958 0.32017 0.0
O1157 O 0.23147 0.39769 0.33304 0.0
O1158 O 0.22945 0.36328 0.31708 0.0
C1159 C 0.18328 0.35103 0.37371 0.0
Tb1160 Tb 0.65556 0.84289 0.33559 0.0
C1161 C 0.71243 0.88235 0.35378 0.0
Tb1162 Tb 0.69036 0.8189 0.34616 0.0
O1163 O 0.65408 0.85404 0.36796 0.0
O1164 O 0.66151 0.82321 0.3598 0.0
O1165 O 0.6925 0.88002 0.34231 0.0
C1166 C 0.71936 0.80102 0.36362 0.0
O1167 O 0.71397 0.86109 0.35912 0.0
C1168 C 0.68327 0.82234 0.30687 0.0
C1169 C 0.63308 0.77947 0.32959 0.0
O1170 O 0.72784 0.8225 0.35375 0.0
O1171 O 0.69461 0.78967 0.36371 0.0
O1172 O 0.69031 0.80618 0.31411 0.0
O1173 O 0.68419 0.83818 0.3215 0.0
O1174 O 0.65271 0.78229 0.34176 0.0
O1175 O 0.63224 0.80055 0.32291 0.0
C1176 C 0.62674 0.85948 0.31598 0.0
O1177 O 0.61809 0.83867 0.32662 0.0
O1178 O 0.65159 0.87117 0.3167 0.0
C1179 C 0.66163 0.83801 0.37476 0.0
Tb1180 Tb 0.14044 0.8223 0.34001 0.0
C1181 C 0.15345 0.77458 0.3316 0.0
Tb1182 Tb 0.19663 0.83663 0.33499 0.0
O1183 O 0.13517 0.83072 0.3081 0.0
O1184 O 0.1615 0.81933 0.31684 0.0
O1185 O 0.13661 0.78185 0.33728 0.0
C1186 C 0.23954 0.85449 0.3159 0.0
O1187 O 0.17764 0.79259 0.32856 0.0
C1188 C 0.18226 0.8285 0.37221 0.0
C1189 C 0.1838 0.88398 0.34411 0.0
O1190 O 0.23802 0.85089 0.33532 0.0
O1191 O 0.21707 0.84795 0.30747 0.0
O1192 O 0.20079 0.82525 0.36578 0.0
O1193 O 0.17531 0.83895 0.35874 0.0
O1194 O 0.20019 0.87695 0.33705 0.0
O1195 O 0.1605 0.86581 0.34877 0.0
C1196 C 0.09618 0.8048 0.35683 0.0
O1197 O 0.10428 0.82199 0.34303 0.0
O1198 O 0.11272 0.79707 0.36079 0.0
C1199 C 0.15421 0.828 0.30242 0.0
Tb1200 Tb 0.85747 0.68809 0.66926 0.0
C1201 C 0.8471 0.63024 0.68133 0.0
Tb1202 Tb 0.80062 0.63998 0.66969 0.0
O1203 O 0.85765 0.70505 0.70067 0.0
O1204 O 0.83279 0.66493 0.69045 0.0
O1205 O 0.86344 0.65404 0.67481 0.0
C1206 C 0.75457 0.61061 0.68342 0.0
O1207 O 0.82234 0.62215 0.68277 0.0
C1208 C 0.82074 0.64499 0.63442 0.0
C1209 C 0.8109 0.69765 0.65714 0.0
O1210 O 0.76551 0.60108 0.67164 0.0
O1211 O 0.76929 0.63669 0.68698 0.0
O1212 O 0.80064 0.62268 0.63866 0.0
O1213 O 0.82531 0.66297 0.64844 0.0
O1214 O 0.79442 0.67389 0.66372 0.0
O1215 O 0.83571 0.70572 0.65596 0.0
C1216 C 0.9032 0.71426 0.65413 0.0
O1217 O 0.89297 0.72586 0.66468 0.0
O1218 O 0.88797 0.68821 0.65268 0.0
C1219 C 0.83745 0.68261 0.70473 0.0
Tb1220 Tb 0.31447 0.17308 0.66425 0.0
C1221 C 0.36939 0.21926 0.68126 0.0
Tb1222 Tb 0.35743 0.15926 0.6708 0.0
O1223 O 0.31283 0.18089 0.69678 0.0
O1224 O 0.3263 0.15535 0.68708 0.0
O1225 O 0.3478 0.21346 0.67044 0.0
C1226 C 0.39452 0.15068 0.6858 0.0
O1227 O 0.37538 0.20054 0.6854 0.0
C1228 C 0.34721 0.16511 0.63256 0.0
C1229 C 0.30286 0.11327 0.65258 0.0
O1230 O 0.39784 0.16998 0.67459 0.0
O1231 O 0.37029 0.13612 0.68848 0.0
O1232 O 0.358 0.15129 0.63776 0.0
O1233 O 0.34588 0.17751 0.64851 0.0
O1234 O 0.3245 0.11872 0.66325 0.0
O1235 O 0.29684 0.13217 0.64901 0.0
C1236 C 0.27949 0.1851 0.64986 0.0
O1237 O 0.27426 0.16254 0.65735 0.0
O1238 O 0.3042 0.20053 0.65032 0.0
C1239 C 0.32457 0.16829 0.70259 0.0
Tb1240 Tb 0.80572 0.16033 0.67722 0.0
C1241 C 0.81999 0.11641 0.66555 0.0
Tb1242 Tb 0.86154 0.17948 0.66713 0.0
O1243 O 0.79112 0.14224 0.64571 0.0
O1244 O 0.828 0.17577 0.65208 0.0
O1245 O 0.80467 0.12184 0.67616 0.0
C1246 C 0.90359 0.18813 0.64948 0.0
O1247 O 0.84144 0.13562 0.65879 0.0
C1248 C 0.85464 0.18147 0.7061 0.0
C1249 C 0.84638 0.22366 0.67733 0.0
O1250 O 0.89531 0.17487 0.66544 0.0
O1251 O 0.8883 0.19678 0.6435 0.0
O1252 O 0.87622 0.19733 0.69864 0.0
O1253 O 0.83932 0.16393 0.69211 0.0
O1254 O 0.86358 0.21859 0.66939 0.0
O1255 O 0.82356 0.20441 0.68211 0.0
C1256 C 0.76439 0.14954 0.69701 0.0
O1257 O 0.76563 0.15074 0.67737 0.0
O1258 O 0.78642 0.15456 0.70546 0.0
C1259 C 0.81262 0.15818 0.63814 0.0
H1260 H 0.3095 0.87629 0.04612 0.0
H1261 H 0.34793 0.89912 0.10729 0.0
H1262 H 0.3895 0.92469 0.09341 0.0
H1263 H 0.41498 0.94042 0.06389 0.0
H1264 H 0.37669 0.91768 1.00275 0.0
H1265 H 0.33502 0.89173 0.01659 0.0
C1266 C 0.32699 0.88667 0.05641 0.0
C1267 C 0.32557 0.8858 0.07772 0.0
C1268 C 0.35084 0.9012 0.04832 0.0
C1269 C 0.34841 0.89974 0.09085 0.0
C1270 C 0.37221 0.91422 0.08292 0.0
C1271 C 0.3975 0.92968 0.05362 0.0
C1272 C 0.3988 0.93084 0.03236 0.0
C1273 C 0.37366 0.91506 0.0617 0.0
C1274 C 0.37608 0.91698 0.01918 0.0
C1275 C 0.35229 0.90221 0.02709 0.0
H1276 H 0.13417 0.43862 0.04149 0.0
H1277 H 0.11923 0.44967 0.10391 0.0
H1278 H 0.08602 0.45944 0.09175 0.0
H1279 H 0.06201 0.46646 0.06322 0.0
H1280 H 0.08009 0.45903 1.0013 0.0
H1281 H 0.11151 0.44679 0.01346 0.0
C1282 C 0.12397 0.44352 0.05253 0.0
C1283 C 0.12937 0.44336 0.07362 0.0
C1284 C 0.10541 0.44989 0.0455 0.0
C1285 C 0.11533 0.44915 0.08755 0.0
C1286 C 0.09642 0.45498 0.08063 0.0
C1287 C 0.0728 0.46203 0.05246 0.0
C1288 C 0.06875 0.46357 0.03142 0.0
C1289 C 0.09135 0.45555 0.05962 0.0
C1290 C 0.08294 0.45803 0.01759 0.0
C1291 C 0.1009 0.451 0.02452 0.0
H1292 H 0.56533 0.67819 0.05983 0.0
H1293 H 0.48608 0.65813 0.05399 0.0
H1294 H 0.47316 0.61284 0.03798 0.0
H1295 H 0.48464 0.57908 0.02546 0.0
H1296 H 0.56444 0.60068 0.02927 0.0
H1297 H 0.57695 0.64516 0.04623 0.0
C1298 C 0.54524 0.66379 0.05508 0.0
C1299 C 0.52662 0.67125 0.05813 0.0
C1300 C 0.5381 0.63814 0.04549 0.0
C1301 C 0.50069 0.65271 0.05171 0.0
C1302 C 0.49333 0.62686 0.04262 0.0
C1303 C 0.50475 0.59356 0.03001 0.0
C1304 C 0.52358 0.58663 0.02609 0.0
C1305 C 0.51188 0.61936 0.03939 0.0
C1306 C 0.54959 0.60563 0.03194 0.0
C1307 C 0.55677 0.63103 0.04172 0.0
H1308 H 0.87404 0.34032 0.9388 0.0
H1309 H 0.88471 0.30135 0.98961 0.0
H1310 H 0.918 0.34558 0.00652 0.0
H1311 H 0.94432 0.39575 0.00648 0.0
H1312 H 0.93061 0.43358 0.95593 0.0
H1313 H 0.89846 0.3896 0.93938 0.0
C1314 C 0.88378 0.34156 0.95354 0.0
C1315 C 0.87725 0.31776 0.96288 0.0
C1316 C 0.90233 0.36692 0.96325 0.0
C1317 C 0.88956 0.31953 0.98215 0.0
C1318 C 0.90856 0.34477 0.99177 0.0
C1319 C 0.9342 0.39428 0.9919 0.0
C1320 C 0.93991 0.41802 0.98255 0.0
C1321 C 0.91516 0.36868 0.98245 0.0
C1322 C 0.92652 0.41578 0.96366 0.0
C1323 C 0.90814 0.39056 0.95405 0.0
H1324 H 0.6812 0.59205 0.93941 0.0
H1325 H 0.6767 0.51562 0.94817 0.0
H1326 H 0.63686 0.50041 0.96452 0.0
H1327 H 0.60336 0.50893 0.97682 0.0
H1328 H 0.60738 0.58498 0.96764 0.0
H1329 H 0.64711 0.60015 0.95098 0.0
C1330 C 0.67133 0.57196 0.94469 0.0
C1331 C 0.68206 0.55511 0.94267 0.0
C1332 C 0.64836 0.5633 0.95414 0.0
C1333 C 0.66911 0.5292 0.94979 0.0
C1334 C 0.64626 0.52042 0.95911 0.0
C1335 C 0.61303 0.52884 0.97123 0.0
C1336 C 0.60258 0.54588 0.97356 0.0
C1337 C 0.6358 0.53737 0.96153 0.0
C1338 C 0.61514 0.57154 0.9661 0.0
C1339 C 0.63783 0.58021 0.95653 0.0
H1340 H 0.42905 0.09091 0.9468 0.0
H1341 H 0.50781 0.1545 0.94619 0.0
H1342 H 0.52243 0.12866 0.96584 0.0
H1343 H 0.51271 0.08748 0.98255 0.0
H1344 H 0.43357 0.02496 0.98472 0.0
H1345 H 0.41918 0.05094 0.96538 0.0
C1346 C 0.44938 0.09901 0.95105 0.0
C1347 C 0.46741 0.12436 0.94503 0.0
C1348 C 0.45754 0.08432 0.96271 0.0
C1349 C 0.49368 0.13495 0.95072 0.0
C1350 C 0.502 0.1202 0.96192 0.0
C1351 C 0.4923 0.07964 0.97897 0.0
C1352 C 0.47428 0.0543 0.98515 0.0
C1353 C 0.48411 0.09481 0.96795 0.0
C1354 C 0.4479 0.0445 0.98036 0.0
C1355 C 0.43962 0.05927 0.96916 0.0
H1356 H 0.68128 0.12174 0.96119 0.0
H1357 H 0.63766 0.10686 0.90285 0.0
H1358 H 0.5977 0.08045 0.91863 0.0
H1359 H 0.57496 0.06197 0.94916 0.0
H1360 H 0.61854 0.0796 0.00777 0.0
H1361 H 0.65868 0.10519 0.99179 0.0
C1362 C 0.6631 0.11316 0.9519 0.0
C1363 C 0.66272 0.1164 0.93077 0.0
C1364 C 0.64011 0.09858 0.96117 0.0
C1365 C 0.63877 0.10441 0.91904 0.0
C1366 C 0.61581 0.08946 0.9281 0.0
C1367 C 0.59328 0.07151 0.95841 0.0
C1368 C 0.59389 0.06893 0.97959 0.0
C1369 C 0.61625 0.08644 0.94915 0.0
C1370 C 0.61765 0.08139 0.99144 0.0
C1371 C 0.64058 0.09595 0.98231 0.0
H1372 H 0.86278 0.53942 0.93918 0.0
H1373 H 0.92771 0.61076 0.91992 0.0
H1374 H 0.95687 0.59719 0.93491 0.0
H1375 H 0.96425 0.56564 0.9543 0.0
H1376 H 0.89979 0.49698 0.97643 0.0
H1377 H 0.87022 0.50927 0.9599 0.0
C1378 C 0.88331 0.55234 0.93851 0.0
C1379 C 0.89283 0.57609 0.92827 0.0
C1380 C 0.90014 0.54492 0.94776 0.0
C1381 C 0.91959 0.59208 0.92726 0.0
C1382 C 0.9364 0.58447 0.93601 0.0
C1383 C 0.94371 0.55339 0.95543 0.0
C1384 C 0.93412 0.53042 0.96645 0.0
C1385 C 0.9269 0.56097 0.94632 0.0
C1386 C 0.90756 0.51479 0.96801 0.0
C1387 C 0.89066 0.5218 0.95856 0.0
H1388 H 0.47867 0.35628 0.92932 0.0
H1389 H 0.43311 0.31481 0.97793 0.0
H1390 H 0.43948 0.35773 0.9939 0.0
H1391 H 0.45925 0.40745 0.9946 0.0
H1392 H 0.50703 0.44902 0.94699 0.0
H1393 H 0.49847 0.40584 0.93004 0.0
C1394 C 0.46998 0.35668 0.94331 0.0
C1395 C 0.4554 0.33247 0.95242 0.0
C1396 C 0.47419 0.38149 0.95262 0.0
C1397 C 0.44453 0.33325 0.97071 0.0
C1398 C 0.44812 0.35776 0.97981 0.0
C1399 C 0.4676 0.40697 0.98043 0.0
C1400 C 0.48375 0.43138 0.97208 0.0
C1401 C 0.46309 0.38206 0.971 0.0
C1402 C 0.49469 0.43052 0.95383 0.0
C1403 C 0.48976 0.40583 0.94409 0.0
H1404 H 0.12017 0.67456 0.02823 0.0
H1405 H 0.13302 0.6468 0.08496 0.0
H1406 H 0.1032 0.5997 0.07158 0.0
H1407 H 0.07244 0.5667 0.04423 0.0
H1408 H 0.05643 0.59457 0.98864 0.0
H1409 H 0.0888 0.64135 1.00089 0.0
C1410 C 0.11653 0.6581 0.03752 0.0
C1411 C 0.12873 0.66394 0.05746 0.0
C1412 C 0.09891 0.63119 0.0299 0.0
C1413 C 0.12371 0.64263 0.06957 0.0
C1414 C 0.10676 0.61577 0.06191 0.0
C1415 C 0.07625 0.58299 0.0347 0.0
C1416 C 0.06224 0.57724 0.01552 0.0
C1417 C 0.09413 0.60984 0.04216 0.0
C1418 C 0.06704 0.59856 0.00347 0.0
C1419 C 0.08549 0.62527 0.01047 0.0
H1420 H 0.33453 0.47349 0.06173 0.0
H1421 H 0.33626 0.40568 0.08608 0.0
H1422 H 0.3735 0.41506 0.06774 0.0
H1423 H 0.40601 0.44267 0.04495 0.0
H1424 H 0.40268 0.50845 0.01872 0.0
H1425 H 0.36534 0.49931 0.03724 0.0
C1426 C 0.34274 0.46046 0.06283 0.0
C1427 C 0.33262 0.4391 0.07557 0.0
C1428 C 0.36389 0.46554 0.05182 0.0
C1429 C 0.34391 0.42273 0.07688 0.0
C1430 C 0.36514 0.4279 0.06623 0.0
C1431 C 0.39699 0.45488 0.04324 0.0
C1432 C 0.40703 0.4762 0.03057 0.0
C1433 C 0.37538 0.44933 0.05375 0.0
C1434 C 0.39519 0.49186 0.02838 0.0
C1435 C 0.3739 0.48669 0.039 0.0
H1436 H 0.52058 0.87181 0.06163 0.0
H1437 H 0.59902 0.93631 0.07623 0.0
H1438 H 0.58985 0.96709 0.05784 0.0
H1439 H 0.55898 0.97597 0.03838 0.0
H1440 H 0.48021 0.91144 0.02519 0.0
H1441 H 0.49017 0.88033 0.0419 0.0
C1442 C 0.53576 0.89252 0.06059 0.0
C1443 C 0.56045 0.90173 0.07025 0.0
C1444 C 0.53029 0.91011 0.05017 0.0
C1445 C 0.57978 0.92878 0.06908 0.0
C1446 C 0.57458 0.94635 0.05848 0.0
C1447 C 0.54412 0.95501 0.03895 0.0
C1448 C 0.51892 0.94603 0.03048 0.0
C1449 C 0.54984 0.93728 0.04904 0.0
C1450 C 0.49975 0.91891 0.03162 0.0
C1451 C 0.50541 0.90108 0.04119 0.0
H1452 H 0.99717 0.19159 0.39097 0.0
H1453 H 0.99776 0.26286 0.41717 0.0
H1454 H 0.03467 0.29157 0.39869 0.0
H1455 H 0.06731 0.2966 0.37527 0.0
H1456 H 0.0663 0.22521 0.34902 0.0
H1457 H 0.02872 0.19644 0.36688 0.0
C1458 C 0.00512 0.21337 0.39247 0.0
C1459 C 0.9946 0.22494 0.40555 0.0
C1460 C 0.02624 0.2298 0.38164 0.0
C1461 C 0.00561 0.25332 0.40752 0.0
C1462 C 0.02664 0.26979 0.3968 0.0
C1463 C 0.05865 0.27473 0.3733 0.0
C1464 C 0.06947 0.26302 0.36076 0.0
C1465 C 0.03717 0.25828 0.38385 0.0
C1466 C 0.05826 0.23469 0.35852 0.0
C1467 C 0.03682 0.21823 0.3688 0.0
H1468 H 0.7711 0.73965 0.40245 0.0
H1469 H 0.83973 0.81325 0.39107 0.0
H1470 H 0.81361 0.83116 0.37708 0.0
H1471 H 0.77125 0.82579 0.36763 0.0
H1472 H 0.70268 0.75321 0.3803 0.0
H1473 H 0.72881 0.73524 0.39459 0.0
C1474 C 0.78037 0.75975 0.39717 0.0
C1475 C 0.80735 0.77492 0.39764 0.0
C1476 C 0.76525 0.77014 0.38939 0.0
C1477 C 0.81899 0.80084 0.39049 0.0
C1478 C 0.80408 0.81122 0.38261 0.0
C1479 C 0.76209 0.80608 0.37357 0.0
C1480 C 0.73518 0.79074 0.37285 0.0
C1481 C 0.77721 0.79598 0.38186 0.0
C1482 C 0.72344 0.76532 0.38069 0.0
C1483 C 0.73834 0.75504 0.38883 0.0
H1484 H 0.23846 0.00785 0.37673 0.0
H1485 H 0.15958 0.98906 0.37488 0.0
H1486 H 0.14497 0.94281 0.3604 0.0
H1487 H 0.15451 0.90713 0.34999 0.0
H1488 H 0.23345 0.92604 0.35078 0.0
H1489 H 0.24817 0.97287 0.3637 0.0
C1490 C 0.2181 0.99358 0.37305 0.0
C1491 C 0.20008 0.0017 0.37695 0.0
C1492 C 0.20987 0.96711 0.36454 0.0
C1493 C 0.17377 0.98324 0.37192 0.0
C1494 C 0.16542 0.9568 0.36372 0.0
C1495 C 0.17495 0.92154 0.35284 0.0
C1496 C 0.19283 0.91302 0.34958 0.0
C1497 C 0.18328 0.94843 0.3602 0.0
C1498 C 0.21926 0.93204 0.35311 0.0
C1499 C 0.2277 0.95881 0.36062 0.0
H1500 H 0.54974 0.6552 0.30968 0.0
H1501 H 0.52675 0.68757 0.26044 0.0
H1502 H 0.55978 0.7337 0.27354 0.0
H1503 H 0.59647 0.76451 0.29793 0.0
H1504 H 0.62142 0.73223 0.34619 0.0
H1505 H 0.58649 0.68645 0.33457 0.0
C1506 C 0.55185 0.67247 0.30207 0.0
C1507 C 0.53589 0.66823 0.28426 0.0
C1508 C 0.57135 0.69887 0.30939 0.0
C1509 C 0.53889 0.69056 0.27423 0.0
C1510 C 0.55777 0.71685 0.28167 0.0
C1511 C 0.59418 0.74751 0.30602 0.0
C1512 C 0.61153 0.75182 0.32291 0.0
C1513 C 0.57433 0.72122 0.29907 0.0
C1514 C 0.6084 0.72948 0.33308 0.0
C1515 C 0.58839 0.70328 0.32648 0.0
H1516 H 0.32658 0.88413 0.25593 0.0
H1517 H 0.37422 0.9153 0.31323 0.0
H1518 H 0.33638 0.90302 0.33177 0.0
H1519 H 0.28933 0.88044 0.33202 0.0
H1520 H 0.24162 0.85051 0.27477 0.0
H1521 H 0.27971 0.86519 0.25593 0.0
C1522 C 0.32869 0.88875 0.27241 0.0
C1523 C 0.35313 0.9003 0.2832 0.0
C1524 C 0.30676 0.88146 0.28304 0.0
C1525 C 0.35555 0.90603 0.3046 0.0
C1526 C 0.33392 0.89898 0.31523 0.0
C1527 C 0.28736 0.87722 0.31543 0.0
C1528 C 0.2628 0.86417 0.3048 0.0
C1529 C 0.30937 0.88606 0.30468 0.0
C1530 C 0.26041 0.86043 0.28328 0.0
C1531 C 0.28217 0.86884 0.2725 0.0
H1532 H 0.13991 0.46033 0.28657 0.0
H1533 H 0.0649 0.39254 0.26578 0.0
H1534 H 0.07526 0.36209 0.28339 0.0
H1535 H 0.10627 0.35463 0.30401 0.0
H1536 H 0.18152 0.42284 0.32395 0.0
H1537 H 0.17022 0.45321 0.3077 0.0
C1538 C 0.12569 0.43895 0.2861 0.0
C1539 C 0.10166 0.42875 0.27491 0.0
C1540 C 0.13181 0.42161 0.29617 0.0
C1541 C 0.08364 0.40088 0.27413 0.0
C1542 C 0.0895 0.38348 0.28428 0.0
C1543 C 0.12006 0.37618 0.30499 0.0
C1544 C 0.1447 0.3864 0.31519 0.0
C1545 C 0.11361 0.3936 0.29527 0.0
C1546 C 0.16246 0.41436 0.31612 0.0
C1547 C 0.15604 0.4318 0.30682 0.0
H1548 H 0.33594 0.48057 0.27896 0.0
H1549 H 0.33145 0.41024 0.24662 0.0
H1550 H 0.29491 0.38063 0.26505 0.0
H1551 H 0.2647 0.37451 0.29105 0.0
H1552 H 0.27038 0.44479 0.32425 0.0
H1553 H 0.30636 0.47452 0.30519 0.0
C1554 C 0.32725 0.45877 0.27606 0.0
C1555 C 0.33671 0.44782 0.26134 0.0
C1556 C 0.30653 0.44178 0.28705 0.0
C1557 C 0.32454 0.41943 0.25757 0.0
C1558 C 0.30372 0.4024 0.26827 0.0
C1559 C 0.27395 0.39634 0.29419 0.0
C1560 C 0.26502 0.40745 0.30916 0.0
C1561 C 0.29465 0.41333 0.28314 0.0
C1562 C 0.277 0.43575 0.31291 0.0
C1563 C 0.29753 0.45276 0.30197 0.0
H1564 H 0.57484 0.90748 0.25924 0.0
H1565 H 0.50624 0.83712 0.27494 0.0
H1566 H 0.53238 0.82414 0.29579 0.0
H1567 H 0.57476 0.83318 0.31002 0.0
H1568 H 0.64335 0.90307 0.29389 0.0
H1569 H 0.61723 0.91577 0.27262 0.0
C1570 C 0.56563 0.8891 0.26699 0.0
C1571 C 0.53864 0.87334 0.26559 0.0
C1572 C 0.58078 0.88178 0.27897 0.0
C1573 C 0.52698 0.84978 0.27597 0.0
C1574 C 0.54191 0.84231 0.28785 0.0
C1575 C 0.58393 0.85123 0.3019 0.0
C1576 C 0.61085 0.86732 0.30361 0.0
C1577 C 0.5688 0.85828 0.28961 0.0
C1578 C 0.6226 0.89051 0.29288 0.0
C1579 C 0.60769 0.89772 0.28069 0.0
H1580 H 0.09412 0.65184 0.29506 0.0
H1581 H 0.17171 0.66803 0.29198 0.0
H1582 H 0.18861 0.7142 0.30797 0.0
H1583 H 0.18121 0.75034 0.32182 0.0
H1584 H 0.10336 0.73337 0.32629 0.0
H1585 H 0.08672 0.68713 0.3112 0.0
C1586 C 0.1147 0.66559 0.29792 0.0
C1587 C 0.13172 0.65686 0.29222 0.0
C1588 C 0.12422 0.69186 0.30752 0.0
C1589 C 0.15834 0.67453 0.29621 0.0
C1590 C 0.16796 0.70084 0.30536 0.0
C1591 C 0.1606 0.73648 0.3197 0.0
C1592 C 0.14364 0.74551 0.32512 0.0
C1593 C 0.15108 0.70979 0.31099 0.0
C1594 C 0.11697 0.7271 0.32235 0.0
C1595 C 0.10737 0.70061 0.31356 0.0
H1596 H 0.81343 0.99106 0.38813 0.0
H1597 H 0.76039 0.02087 0.3863 0.0
H1598 H 0.7256 0.97626 0.37163 0.0
H1599 H 0.7101 0.92845 0.36019 0.0
H1600 H 0.7625 0.89778 0.36447 0.0
H1601 H 0.79768 0.94291 0.37731 0.0
C1602 C 0.79427 0.98772 0.38433 0.0
C1603 C 0.78939 0.0091 0.38807 0.0
C1604 C 0.77427 0.96186 0.37644 0.0
C1605 C 0.76447 0.0046 0.38347 0.0
C1606 C 0.74464 0.97915 0.37511 0.0
C1607 C 0.72926 0.9317 0.3638 0.0
C1608 C 0.73371 0.90983 0.36127 0.0
C1609 C 0.74927 0.95758 0.37164 0.0
C1610 C 0.75856 0.91427 0.36633 0.0
C1611 C 0.7787 0.94008 0.37364 0.0
H1612 H 1.00012 0.79014 0.40025 0.0
H1613 H 0.00425 0.72246 0.42232 0.0
H1614 H 0.04278 0.73515 0.40462 0.0
H1615 H 0.07425 0.76431 0.38157 0.0
H1616 H 0.06714 0.82887 0.35691 0.0
H1617 H 0.03012 0.81786 0.37636 0.0
C1618 C 0.00905 0.77775 0.40097 0.0
C1619 C 0.99896 0.75517 0.41255 0.0
C1620 C 0.03051 0.78442 0.39006 0.0
C1621 C 0.01161 0.74014 0.41379 0.0
C1622 C 0.03354 0.7472 0.40347 0.0
C1623 C 0.06447 0.77584 0.38042 0.0
C1624 C 0.07321 0.79725 0.36781 0.0
C1625 C 0.04296 0.7691 0.39137 0.0
C1626 C 0.06053 0.81214 0.36641 0.0
C1627 C 0.03949 0.80594 0.37759 0.0
H1628 H 0.24629 0.25003 0.39541 0.0
H1629 H 0.16942 0.19175 0.40813 0.0
H1630 H 0.15244 0.21707 0.39063 0.0
H1631 H 0.15945 0.25543 0.37132 0.0
H1632 H 0.23619 0.31257 0.35695 0.0
H1633 H 0.25317 0.28799 0.37522 0.0
C1634 C 0.22588 0.24313 0.39445 0.0
C1635 C 0.20909 0.21935 0.40318 0.0
C1636 C 0.21622 0.25741 0.38389 0.0
C1637 C 0.18263 0.21017 0.40159 0.0
C1638 C 0.17294 0.22457 0.39155 0.0
C1639 C 0.17989 0.2625 0.37212 0.0
C1640 C 0.19646 0.28585 0.36272 0.0
C1641 C 0.18954 0.24814 0.38254 0.0
C1642 C 0.2229 0.29459 0.36389 0.0
C1643 C 0.23269 0.28061 0.37445 0.0
H1644 H 0.65997 0.5256 0.72621 0.0
H1645 H 0.66102 0.59828 0.7497 0.0
H1646 H 0.69849 0.62563 0.73131 0.0
H1647 H 0.73035 0.6288 0.70781 0.0
H1648 H 0.72696 0.5557 0.68253 0.0
H1649 H 0.69024 0.52847 0.70177 0.0
C1650 C 0.668 0.54737 0.7271 0.0
C1651 C 0.65739 0.55972 0.7393 0.0
C1652 C 0.68894 0.56288 0.71592 0.0
C1653 C 0.66884 0.58813 0.7407 0.0
C1654 C 0.69014 0.6038 0.72999 0.0
C1655 C 0.72138 0.60689 0.7064 0.0
C1656 C 0.73119 0.5942 0.69373 0.0
C1657 C 0.70021 0.59137 0.71743 0.0
C1658 C 0.71958 0.56585 0.69208 0.0
C1659 C 0.6987 0.55032 0.70316 0.0
H1660 H 0.49413 0.15132 0.72108 0.0
H1661 H 0.43673 0.07487 0.74043 0.0
H1662 H 0.40264 0.08099 0.72475 0.0
H1663 H 0.38897 0.10834 0.70597 0.0
H1664 H 0.44616 0.18379 0.68538 0.0
H1665 H 0.48048 0.1776 0.70084 0.0
C1666 C 0.47419 0.13579 0.72161 0.0
C1667 C 0.46808 0.11278 0.73209 0.0
C1668 C 0.45461 0.13927 0.71235 0.0
C1669 C 0.44205 0.09305 0.73283 0.0
C1670 C 0.4225 0.09644 0.72376 0.0
C1671 C 0.40897 0.12335 0.70484 0.0
C1672 C 0.41511 0.14649 0.69463 0.0
C1673 C 0.42854 0.11955 0.71362 0.0
C1674 C 0.44102 0.16579 0.69317 0.0
C1675 C 0.46063 0.16227 0.70202 0.0
H1676 H 0.85598 0.33598 0.70382 0.0
H1677 H 0.93561 0.35881 0.7158 0.0
H1678 H 0.92574 0.31363 0.70193 0.0
H1679 H 0.89394 0.26697 0.68801 0.0
H1680 H 0.81393 0.24372 0.67812 0.0
H1681 H 0.82448 0.28987 0.68928 0.0
C1682 C 0.87122 0.33115 0.7031 0.0
C1683 C 0.89648 0.35064 0.71068 0.0
C1684 C 0.8653 0.3051 0.6955 0.0
C1685 C 0.91599 0.34403 0.71009 0.0
C1686 C 0.91036 0.31827 0.70213 0.0
C1687 C 0.87892 0.27217 0.68799 0.0
C1688 C 0.85323 0.25209 0.68214 0.0
C1689 C 0.88503 0.29855 0.69499 0.0
C1690 C 0.83384 0.25888 0.68257 0.0
C1691 C 0.83985 0.28523 0.68897 0.0
H1692 H 0.2383 0.99026 0.61645 0.0
H1693 H 0.17914 0.01152 0.61032 0.0
H1694 H 0.20976 0.05802 0.62432 0.0
H1695 H 0.25287 0.09221 0.63884 0.0
H1696 H 0.31207 0.07111 0.64676 0.0
H1697 H 0.28192 0.02491 0.63167 0.0
C1698 C 0.23231 0.00523 0.61811 0.0
C1699 C 0.20665 0.9977 0.61239 0.0
C1700 C 0.24991 0.03179 0.62659 0.0
C1701 C 0.19884 0.017 0.61473 0.0
C1702 C 0.2163 0.04351 0.62271 0.0
C1703 C 0.25926 0.07757 0.63723 0.0
C1704 C 0.28469 0.08513 0.64388 0.0
C1705 C 0.24181 0.05108 0.6288 0.0
C1706 C 0.29254 0.06578 0.64186 0.0
C1707 C 0.27534 0.03939 0.63316 0.0
H1708 H 0.00237 0.19301 0.61766 0.0
H1709 H 0.00684 0.26161 0.58951 0.0
H1710 H 0.96602 0.2519 0.6022 0.0
H1711 H 0.93017 0.22552 0.62315 0.0
H1712 H 0.92865 0.16024 0.65414 0.0
H1713 H 0.96753 0.16752 0.63893 0.0
C1714 C 0.99474 0.20618 0.61448 0.0
C1715 C 0.008 0.22817 0.60269 0.0
C1716 C 0.97179 0.20119 0.62252 0.0
C1717 C 0.99709 0.24431 0.59827 0.0
C1718 C 0.9738 0.23895 0.60571 0.0
C1719 C 0.93837 0.21288 0.62647 0.0
C1720 C 0.92669 0.19242 0.63974 0.0
C1721 C 0.96115 0.21766 0.61808 0.0
C1722 C 0.93745 0.17622 0.64404 0.0
C1723 C 0.95963 0.18034 0.63533 0.0
H1724 H 0.75046 0.74775 0.61295 0.0
H1725 H 0.82788 0.80899 0.60393 0.0
H1726 H 0.84493 0.78452 0.62241 0.0
H1727 H 0.8379 0.74604 0.64121 0.0
H1728 H 0.76056 0.68505 0.6513 0.0
H1729 H 0.74346 0.7093 0.63267 0.0
C1730 C 0.77101 0.75547 0.6149 0.0
C1731 C 0.78794 0.77991 0.60699 0.0
C1732 C 0.78071 0.74158 0.62595 0.0
C1733 C 0.81456 0.7901 0.60986 0.0
C1734 C 0.8243 0.7762 0.62047 0.0
C1735 C 0.81729 0.73806 0.63949 0.0
C1736 C 0.8006 0.71369 0.64767 0.0
C1737 C 0.80756 0.75201 0.62868 0.0
C1738 C 0.77394 0.70379 0.64525 0.0
C1739 C 0.7641 0.71757 0.63448 0.0
H1740 H 0.99493 0.75199 0.59797 0.0
H1741 H 0.99814 0.82858 0.61016 0.0
H1742 H 0.96263 0.80777 0.63179 0.0
H1743 H 0.93049 0.76766 0.64741 0.0
H1744 H 0.92683 0.69097 0.63464 0.0
H1745 H 0.96258 0.71187 0.61325 0.0
C1746 C 0.98763 0.76402 0.60516 0.0
C1747 C 0.99922 0.79179 0.60247 0.0
C1748 C 0.96724 0.75195 0.61769 0.0
C1749 C 0.98974 0.8072 0.61213 0.0
C1750 C 0.96941 0.79532 0.62451 0.0
C1751 C 0.93774 0.75566 0.6401 0.0
C1752 C 0.92622 0.72791 0.64273 0.0
C1753 C 0.95812 0.76775 0.62754 0.0
C1754 C 0.93552 0.71245 0.63295 0.0
C1755 C 0.95589 0.72435 0.62063 0.0
H1756 H 0.18875 0.19975 0.61322 0.0
H1757 H 0.25228 0.28085 0.6104 0.0
H1758 H 0.28183 0.26838 0.6264 0.0
H1759 H 0.29005 0.23407 0.63947 0.0
H1760 H 0.22719 0.15291 0.64291 0.0
H1761 H 0.1968 0.16573 0.62848 0.0
C1762 C 0.209 0.21474 0.61643 0.0
C1763 C 0.2184 0.24109 0.61047 0.0
C1764 C 0.22596 0.20738 0.62556 0.0
C1765 C 0.24469 0.26032 0.61458 0.0
C1766 C 0.26158 0.25324 0.62374 0.0
C1767 C 0.26968 0.21921 0.63712 0.0
C1768 C 0.26079 0.19258 0.64203 0.0
C1769 C 0.2525 0.22674 0.62894 0.0
C1770 C 0.23438 0.17354 0.63913 0.0
C1771 C 0.21706 0.18087 0.6309 0.0
H1772 H 0.76671 0.99285 0.63325 0.0
H1773 H 0.84545 0.01524 0.62637 0.0
H1774 H 0.86005 0.06154 0.64098 0.0
H1775 H 0.85008 0.09592 0.65437 0.0
H1776 H 0.77136 0.07289 0.66263 0.0
H1777 H 0.75705 0.02645 0.64904 0.0
C1778 C 0.78705 0.00793 0.63506 0.0
C1779 C 0.80504 1.00095 0.62869 0.0
C1780 C 0.79525 0.03426 0.64373 0.0
C1781 C 0.83136 0.02036 0.63125 0.0
C1782 C 0.83966 0.04675 0.63953 0.0
C1783 C 0.82982 0.08067 0.65334 0.0
C1784 C 0.81181 0.08784 0.65942 0.0
C1785 C 0.82175 0.05398 0.64565 0.0
C1786 C 0.78564 0.06785 0.65817 0.0
C1787 C 0.77741 0.04133 0.65028 0.0
H1788 H 0.43126 0.34187 0.71722 0.0
H1789 H 0.49349 0.32502 0.71937 0.0
H1790 H 0.46401 0.27835 0.70487 0.0
H1791 H 0.42046 0.24232 0.69211 0.0
H1792 H 0.3585 0.25972 0.68844 0.0
H1793 H 0.38795 0.30628 0.70297 0.0
C1794 C 0.43825 0.32788 0.71449 0.0
C1795 C 0.46434 0.33662 0.71937 0.0
C1796 C 0.4213 0.3013 0.7059 0.0
C1797 C 0.47343 0.31861 0.7156 0.0
C1798 C 0.4566 0.29198 0.70739 0.0
C1799 C 0.41341 0.25631 0.6945 0.0
C1800 C 0.38736 0.2476 0.68932 0.0
C1801 C 0.43049 0.28309 0.70257 0.0
C1802 C 0.37852 0.266 0.69225 0.0
C1803 C 0.39531 0.29258 0.70061 0.0
H1804 H 0.65617 0.11135 0.72956 0.0
H1805 H 0.70213 0.13811 0.78782 0.0
H1806 H 0.74063 0.14956 0.7703 0.0
H1807 H 0.76151 0.15322 0.73819 0.0
H1808 H 0.71558 0.12967 0.68016 0.0
H1809 H 0.6769 0.11653 0.69786 0.0
C1810 C 0.6746 0.12014 0.73853 0.0
C1811 C 0.67605 0.12396 0.76007 0.0
C1812 C 0.69676 0.12748 0.72834 0.0
C1813 C 0.70019 0.13457 0.77128 0.0
C1814 C 0.72232 0.14138 0.76124 0.0
C1815 C 0.743 0.14525 0.72947 0.0
C1816 C 0.74131 0.14237 0.70791 0.0
C1817 C 0.72086 0.13807 0.73977 0.0
C1818 C 0.71732 0.13213 0.69675 0.0
C1819 C 0.69521 0.12455 0.70687 0.0
H1820 H 0.90947 0.5835 0.72666 0.0
H1821 H 0.83282 0.51789 0.73209 0.0
H1822 H 0.81461 0.54097 0.71292 0.0
H1823 H 0.82069 0.58021 0.69519 0.0
H1824 H 0.89772 0.64501 0.68855 0.0
H1825 H 0.91558 0.62166 0.70726 0.0
C1826 C 0.8888 0.57446 0.72368 0.0
C1827 C 0.87238 0.54939 0.73092 0.0
C1828 C 0.87858 0.58753 0.71228 0.0
C1829 C 0.84567 0.53738 0.72674 0.0
C1830 C 0.83532 0.5505 0.71576 0.0
C1831 C 0.84139 0.58915 0.69767 0.0
C1832 C 0.85777 0.61443 0.69053 0.0
C1833 C 0.85161 0.57562 0.70848 0.0
C1834 C 0.88457 0.62558 0.69382 0.0
C1835 C 0.89486 0.61232 0.70464 0.0
H1836 H 0.44839 0.97548 0.11917 0.0
H1837 H 0.52455 0.99725 0.14471 0.0
H1838 H 0.54226 0.016 0.11327 0.0
H1839 H 0.53609 0.02352 0.0777 0.0
H1840 H 0.46181 0.00769 0.05293 0.0
H1841 H 0.44351 0.98978 0.08496 0.0
C1842 C 0.46892 0.98473 0.11804 0.0
C1843 C 0.48484 0.98391 0.1342 0.0
C1844 C 0.47934 0.99639 0.09996 0.0
C1845 C 0.51149 0.99635 0.13233 0.0
C1846 C 0.52179 0.00741 0.11437 0.0
C1847 C 0.51594 0.01641 0.07936 0.0
C1848 C 0.5 0.01569 0.06268 0.0
C1849 C 0.50584 0.00698 0.09794 0.0
C1850 C 0.47415 0.00722 0.06528 0.0
C1851 C 0.46376 0.9972 0.08364 0.0
H1852 H 0.0519 0.55457 0.12257 0.0
H1853 H 0.01195 0.46906 0.13089 0.0
H1854 H 0.9952 0.45844 0.09494 0.0
H1855 H 0.98961 0.47355 0.06127 0.0
H1856 H 0.02513 0.55922 0.055 0.0
H1857 H 0.04549 0.56958 0.08991 0.0
C1858 C 0.03919 0.53357 0.11677 0.0
C1859 C 0.03326 0.51278 0.12975 0.0
C1860 C 0.02869 0.52757 0.09627 0.0
C1861 C 0.01734 0.48566 0.12142 0.0
C1862 C 0.00748 0.47949 0.1008 0.0
C1863 C 0.00194 0.49441 0.06761 0.0
C1864 C 0.00596 0.5156 0.05563 0.0
C1865 C 0.01278 0.50029 0.08811 0.0
C1866 C 0.02172 0.54258 0.06399 0.0
C1867 C 0.03336 0.54853 0.08395 0.0
H1868 H 0.46757 0.49148 0.11893 0.0
H1869 H 0.50559 0.57872 0.11997 0.0
H1870 H 0.5208 0.57685 0.08674 0.0
H1871 H 0.52662 0.55112 0.05865 0.0
H1872 H 0.48428 0.4639 0.05414 0.0
H1873 H 0.46751 0.46497 0.08738 0.0
C1874 C 0.47874 0.51001 0.11171 0.0
C1875 C 0.48626 0.53528 0.12244 0.0
C1876 C 0.48704 0.50883 0.09211 0.0
C1877 C 0.5004 0.55903 0.11257 0.0
C1878 C 0.50908 0.55804 0.09347 0.0
C1879 C 0.51357 0.53236 0.0649 0.0
C1880 C 0.50704 0.5075 0.0543 0.0
C1881 C 0.50322 0.53317 0.08341 0.0
C1882 C 0.48976 0.48329 0.06228 0.0
C1883 C 0.48015 0.48392 0.08122 0.0
H1884 H 0.95604 0.44725 0.87776 0.0
H1885 H 0.98655 0.53321 0.87573 0.0
H1886 H 1.00136 0.54092 0.91221 0.0
H1887 H 0.00844 0.52329 0.94427 0.0
H1888 H 0.98103 0.43769 0.94432 0.0
H1889 H 0.96264 0.42987 0.90901 0.0
C1890 C 0.96623 0.46778 0.88514 0.0
C1891 C 0.97051 0.48962 0.87382 0.0
C1892 C 0.97543 0.47214 0.90583 0.0
C1893 C 0.98289 0.51594 0.88399 0.0
C1894 C 0.99156 0.5204 0.90485 0.0
C1895 C 0.9983 0.50298 0.93649 0.0
C1896 C 0.99618 0.48111 0.94677 0.0
C1897 C 0.98833 0.49868 0.91586 0.0
C1898 C 0.98312 0.45487 0.93662 0.0
C1899 C 0.97255 0.45035 0.91645 0.0
H1900 H 0.53601 0.50581 0.88402 0.0
H1901 H 0.45794 0.47626 0.85911 0.0
H1902 H 0.44606 0.48274 0.89305 0.0
H1903 H 0.45703 0.49355 0.93022 0.0
H1904 H 0.53479 0.52339 0.95511 0.0
H1905 H 0.54785 0.52059 0.92091 0.0
C1906 C 0.51655 0.50133 0.88595 0.0
C1907 C 0.49782 0.4902 0.86909 0.0
C1908 C 0.50979 0.50508 0.90556 0.0
C1909 C 0.47261 0.48434 0.87191 0.0
C1910 C 0.4658 0.48809 0.8913 0.0
C1911 C 0.4769 0.49974 0.92808 0.0
C1912 C 0.49509 0.50889 0.94518 0.0
C1913 C 0.48408 0.49786 0.9083 0.0
C1914 C 0.52069 0.51686 0.94222 0.0
C1915 C 0.52804 0.51497 0.92262 0.0
H1916 H 0.53853 0.02319 0.89243 0.0
H1917 H 0.49766 0.06714 0.89787 0.0
H1918 H 0.4819 0.04758 0.92962 0.0
H1919 H 0.47626 0.01489 0.95402 0.0
H1920 H 0.5208 0.97502 0.95223 0.0
H1921 H 0.53848 0.99583 0.92069 0.0
C1922 C 0.5266 0.02888 0.90076 0.0
C1923 C 0.5185 0.04581 0.89227 0.0
C1924 C 0.51789 0.01792 0.91942 0.0
C1925 C 0.50334 0.05328 0.90352 0.0
C1926 C 0.49435 0.04219 0.92176 0.0
C1927 C 0.49009 0.01103 0.94688 0.0
C1928 C 0.49705 0.99329 0.95514 0.0
C1929 C 0.50083 0.02385 0.92946 0.0
C1930 C 0.51506 0.98848 0.94588 0.0
C1931 C 0.52517 1.00043 0.92795 0.0
H1932 H 0.1223 0.30075 0.4499 0.0
H1933 H 0.19465 0.36074 0.48227 0.0
H1934 H 0.21236 0.37651 0.44978 0.0
H1935 H 0.20772 0.3719 0.41189 0.0
H1936 H 0.1357 0.31113 0.38011 0.0
H1937 H 0.11725 0.29714 0.4124 0.0
C1938 C 0.14176 0.31762 0.44985 0.0
C1939 C 0.15712 0.32956 0.46842 0.0
C1940 C 0.1519 0.32635 0.43115 0.0
C1941 C 0.18249 0.3511 0.46811 0.0
C1942 C 0.19264 0.36011 0.44956 0.0
C1943 C 0.18799 0.35567 0.41213 0.0
C1944 C 0.17281 0.34282 0.3936 0.0
C1945 C 0.17765 0.3476 0.43094 0.0
C1946 C 0.14737 0.3218 0.39409 0.0
C1947 C 0.13693 0.31364 0.41262 0.0
H1948 H 0.71075 0.83729 0.46182 0.0
H1949 H 0.66135 0.8674 0.48078 0.0
H1950 H 0.64495 0.86328 0.44522 0.0
H1951 H 0.64637 0.85356 0.40843 0.0
H1952 H 0.69505 0.82286 0.38955 0.0
H1953 H 0.70973 0.82434 0.42521 0.0
C1954 C 0.69602 0.84243 0.45823 0.0
C1955 C 0.68755 0.85295 0.47398 0.0
C1956 C 0.6866 0.83999 0.43769 0.0
C1957 C 0.66859 0.85974 0.46895 0.0
C1958 C 0.65914 0.85734 0.44861 0.0
C1959 C 0.66005 0.84702 0.4122 0.0
C1960 C 0.66946 0.83778 0.39641 0.0
C1961 C 0.66837 0.848 0.43281 0.0
C1962 C 0.68712 0.82937 0.40144 0.0
C1963 C 0.69568 0.83048 0.42186 0.0
H1964 H 0.17344 0.83098 0.46771 0.0
H1965 H 0.11075 0.84346 0.44921 0.0
H1966 H 0.11776 0.83872 0.41312 0.0
H1967 H 0.14465 0.83563 0.38725 0.0
H1968 H 0.20515 0.81952 0.4054 0.0
H1969 H 0.19651 0.82164 0.44129 0.0
C1970 C 0.1611 0.83222 0.45571 0.0
C1971 C 0.14171 0.8377 0.46102 0.0
C1972 C 0.16517 0.82931 0.43503 0.0
C1973 C 0.1257 0.83911 0.44542 0.0
C1974 C 0.12986 0.83664 0.42483 0.0
C1975 C 0.15547 0.83184 0.39897 0.0
C1976 C 0.17545 0.82732 0.39365 0.0
C1977 C 0.14993 0.83237 0.41949 0.0
C1978 C 0.18967 0.82303 0.4091 0.0
C1979 C 0.18475 0.82426 0.42963 0.0
H1980 H 0.65368 0.79959 0.21164 0.0
H1981 H 0.61315 0.84199 0.22595 0.0
H1982 H 0.63077 0.85067 0.26179 0.0
H1983 H 0.65543 0.84321 0.28948 0.0
H1984 H 0.6936 0.79859 0.275 0.0
H1985 H 0.67889 0.79335 0.23886 0.0
C1986 C 0.64857 0.81064 0.22258 0.0
C1987 C 0.63189 0.81987 0.21609 0.0
C1988 C 0.65827 0.81501 0.24318 0.0
C1989 C 0.62606 0.83478 0.23044 0.0
C1990 C 0.63599 0.83958 0.25099 0.0
C1991 C 0.66081 0.8328 0.27839 0.0
C1992 C 0.67567 0.8215 0.28494 0.0
C1993 C 0.65183 0.82944 0.25759 0.0
C1994 C 0.68215 0.8075 0.27037 0.0
C1995 C 0.67375 0.80447 0.24968 0.0
H1996 H 0.1823 0.79943 0.2171 0.0
H1997 H 0.15109 0.84808 0.1964 0.0
H1998 H 0.14347 0.85683 0.23179 0.0
H1999 H 0.14444 0.84888 0.2687 0.0
H2000 H 0.17628 0.8 0.28826 0.0
H2001 H 0.18499 0.79318 0.25344 0.0
C2002 C 0.17404 0.81213 0.22047 0.0
C2003 C 0.16723 0.82314 0.20446 0.0
C2004 C 0.16976 0.81692 0.24064 0.0
C2005 C 0.15649 0.83952 0.2087 0.0
C2006 C 0.15208 0.84441 0.22886 0.0
C2007 C 0.15335 0.83685 0.26525 0.0
C2008 C 0.1598 0.8251 0.28107 0.0
C2009 C 0.1584 0.83294 0.24497 0.0
C2010 C 0.17135 0.80954 0.27645 0.0
C2011 C 0.17629 0.8055 0.25649 0.0
H2012 H 0.16524 0.31556 0.20881 0.0
H2013 H 0.22513 0.39726 0.22891 0.0
H2014 H 0.22086 0.38693 0.26466 0.0
H2015 H 0.19651 0.35634 0.28983 0.0
H2016 H 0.13901 0.27343 0.27056 0.0
H2017 H 0.14552 0.28252 0.23461 0.0
C2018 C 0.17753 0.33086 0.22109 0.0
C2019 C 0.1953 0.35715 0.21645 0.0
C2020 C 0.17518 0.32463 0.24157 0.0
C2021 C 0.21136 0.37691 0.23228 0.0
C2022 C 0.20883 0.37105 0.25265 0.0
C2023 C 0.18624 0.3399 0.27789 0.0
C2024 C 0.16761 0.31418 0.28288 0.0
C2025 C 0.19042 0.34518 0.25745 0.0
C2026 C 0.15359 0.29338 0.26709 0.0
C2027 C 0.15723 0.29861 0.24656 0.0
H2028 H 0.78443 0.62989 0.78336 0.0
H2029 H 0.84125 0.7082 0.81253 0.0
H2030 H 0.85493 0.72447 0.77896 0.0
H2031 H 0.8527 0.71491 0.74122 0.0
H2032 H 0.79934 0.63408 0.7137 0.0
H2033 H 0.78202 0.62048 0.74628 0.0
C2034 C 0.79944 0.65067 0.78225 0.0
C2035 C 0.81158 0.66801 0.80018 0.0
C2036 C 0.80783 0.65939 0.76308 0.0
C2037 C 0.83149 0.69468 0.79877 0.0
C2038 C 0.83936 0.70388 0.77962 0.0
C2039 C 0.83708 0.69448 0.74239 0.0
C2040 C 0.82678 0.67581 0.72483 0.0
C2041 C 0.828 0.68624 0.76164 0.0
C2042 C 0.80696 0.6492 0.72669 0.0
C2043 C 0.79723 0.64122 0.74545 0.0
H2044 H 0.35192 0.19011 0.79781 0.0
H2045 H 0.4108 0.17199 0.78268 0.0
H2046 H 0.39304 0.16046 0.74664 0.0
H2047 H 0.36262 0.15953 0.71894 0.0
H2048 H 0.30479 0.17886 0.73512 0.0
H2049 H 0.32025 0.18598 0.77113 0.0
C2050 C 0.36085 0.18358 0.78663 0.0
C2051 C 0.38283 0.18227 0.79283 0.0
C2052 C 0.35071 0.17728 0.76607 0.0
C2053 C 0.39385 0.17318 0.77827 0.0
C2054 C 0.38377 0.16672 0.75765 0.0
C2055 C 0.35311 0.16464 0.73041 0.0
C2056 C 0.33254 0.16856 0.72434 0.0
C2057 C 0.36243 0.16917 0.75129 0.0
C2058 C 0.32069 0.17578 0.73937 0.0
C2059 C 0.32954 0.17991 0.76 0.0
H2060 H 0.84039 0.22637 0.79104 0.0
H2061 H 0.78909 0.14103 0.7957 0.0
H2062 H 0.79661 0.13059 0.76103 0.0
H2063 H 0.82033 0.1455 0.73012 0.0
H2064 H 0.87386 0.23054 0.72713 0.0
H2065 H 0.86363 0.24116 0.76067 0.0
C2066 C 0.83106 0.2054 0.78469 0.0
C2067 C 0.81445 0.18456 0.79626 0.0
C2068 C 0.83618 0.19943 0.76506 0.0
C2069 C 0.80185 0.15762 0.78725 0.0
C2070 C 0.80635 0.15156 0.76744 0.0
C2071 C 0.82957 0.16632 0.73685 0.0
C2072 C 0.84779 0.18723 0.72626 0.0
C2073 C 0.82382 0.17226 0.75633 0.0
C2074 C 0.85989 0.21411 0.73511 0.0
C2075 C 0.85397 0.2202 0.75423 0.0
H2076 H 0.29073 0.16352 0.54808 0.0
H2077 H 0.33832 0.13265 0.52596 0.0
H2078 H 0.35761 0.13795 0.56064 0.0
H2079 H 0.35935 0.14883 0.59758 0.0
H2080 H 0.31355 0.18145 0.61989 0.0
H2081 H 0.29542 0.17835 0.58499 0.0
C2082 C 0.30564 0.15842 0.55079 0.0
C2083 C 0.31266 0.14722 0.53439 0.0
C2084 C 0.3169 0.16168 0.57088 0.0
C2085 C 0.33202 0.14066 0.53829 0.0
C2086 C 0.34319 0.14379 0.55815 0.0
C2087 C 0.34553 0.15544 0.59477 0.0
C2088 C 0.33765 0.16525 0.61134 0.0
C2089 C 0.33542 0.15376 0.57461 0.0
C2090 C 0.31992 0.17392 0.60744 0.0
C2091 C 0.30951 0.17205 0.58744 0.0
H2092 H 0.82638 0.1133 0.55301 0.0
H2093 H 0.87706 0.19869 0.54796 0.0
H2094 H 0.87038 0.20907 0.58294 0.0
H2095 H 0.84751 0.19407 0.61432 0.0
H2096 H 0.7932 0.10915 0.61697 0.0
H2097 H 0.80333 0.09855 0.58338 0.0
C2098 C 0.8357 0.1343 0.55927 0.0
C2099 C 0.85194 0.15513 0.54748 0.0
C2100 C 0.83087 0.14026 0.57901 0.0
C2101 C 0.86459 0.18208 0.55651 0.0
C2102 C 0.86058 0.18811 0.57652 0.0
C2103 C 0.83802 0.17329 0.60748 0.0
C2104 C 0.81955 0.15241 0.61798 0.0
C2105 C 0.8434 0.1674 0.58781 0.0
C2106 C 0.80727 0.12557 0.60904 0.0
C2107 C 0.81312 0.11949 0.58988 0.0
H2108 H 0.86735 0.69552 0.55355 0.0
H2109 H 0.80498 0.61878 0.5264 0.0
H2110 H 0.79459 0.60299 0.56055 0.0
H2111 H 0.80133 0.61274 0.59831 0.0
H2112 H 0.85997 0.6923 0.62447 0.0
H2113 H 0.87421 0.70511 0.59083 0.0
C2114 C 0.85179 0.67518 0.55519 0.0
C2115 C 0.83707 0.65816 0.53769 0.0
C2116 C 0.84536 0.66679 0.57476 0.0
C2117 C 0.81658 0.63207 0.53982 0.0
C2118 C 0.81064 0.62312 0.55929 0.0
C2119 C 0.81747 0.63268 0.5966 0.0
C2120 C 0.83012 0.65126 0.61396 0.0
C2121 C 0.8246 0.64052 0.57692 0.0
C2122 C 0.85057 0.67728 0.6115 0.0
C2123 C 0.8585 0.68479 0.59219 0.0
loop_
_geom_bond_atom_site_label_1
_geom_bond_atom_site_label_2
_geom_bond_distance
_geom_bond_site_symmetry_2
_ccdc_geom_bond_type
C0 C1 1.391 . S
C0 C4 1.391 . S
C0 H42 0.948 . S
C1 C0 1.391 . S
C1 C2 1.391 . S
C2 C1 1.391 . S
C2 H58 0.947 . S
C2 C59 1.392 . S
C3 C4 1.391 . S
C3 C7 1.397 . S
C3 C59 1.419 . S
C4 C0 1.391 . S
C4 C3 1.391 . S
C4 C5 1.399 . S
C5 C4 1.399 . S
C5 C8 1.396 . S
C5 C17 1.453 . S
C5 C18 1.684 . S
H6 C30 0.948 . S
C7 C3 1.397 . S
C7 C8 1.394 . S
C7 C26 1.723 . S
C8 C5 1.396 . S
C8 C7 1.394 . S
C8 C38 1.723 . S
H9 C32 0.947 . S
H10 C33 0.948 . S
H11 C39 0.982 . S
H12 C40 0.979 . S
H13 C40 0.980 . S
H14 C40 0.983 . S
H15 C39 0.979 . S
H16 C39 0.977 . S
C17 C5 1.453 . S
C17 H46 0.982 . S
C17 H47 0.979 . S
C17 H48 0.977 . S
C18 C5 1.684 . S
C18 H43 0.979 . S
C18 H44 0.980 . S
C18 H45 0.983 . S
C19 C20 1.391 . S
C19 C24 1.391 . S
C19 H49 0.948 . S
C20 C19 1.391 . S
C20 C21 1.391 . S
C21 C20 1.391 . S
C21 C22 1.392 . S
C21 H50 0.947 . S
C22 C21 1.392 . S
C22 C23 1.419 . S
C22 H51 0.948 . S
C23 C22 1.419 . S
C23 C24 1.391 . S
C23 C27 1.397 . S
C24 C19 1.391 . S
C24 C23 1.391 . S
C24 C25 1.399 . S
C25 C24 1.399 . S
C25 C26 1.396 . S
C25 C28 1.453 . S
C25 C29 1.684 . S
C26 C7 1.723 . S
C26 C25 1.396 . S
C26 C27 1.394 . S
C27 C23 1.397 . S
C27 C26 1.394 . S
C27 C37 1.723 . S
C28 C25 1.453 . S
C28 H52 0.982 . S
C28 H53 0.979 . S
C28 H54 0.977 . S
C29 C25 1.684 . S
C29 H55 0.979 . S
C29 H56 0.980 . S
C29 H57 0.983 . S
C30 H6 0.948 . S
C30 C31 1.391 . S
C30 C35 1.391 . S
C31 C30 1.391 . S
C31 C32 1.391 . S
C32 H9 0.947 . S
C32 C31 1.391 . S
C32 C33 1.392 . S
C33 H10 0.948 . S
C33 C32 1.392 . S
C33 C34 1.419 . S
C34 C33 1.419 . S
C34 C35 1.391 . S
C34 C38 1.397 . S
C35 C30 1.391 . S
C35 C34 1.391 . S
C35 C36 1.399 . S
C36 C35 1.399 . S
C36 C37 1.396 . S
C36 C39 1.453 . S
C36 C40 1.684 . S
C37 C27 1.723 . S
C37 C36 1.396 . S
C37 C38 1.394 . S
C38 C8 1.723 . S
C38 C34 1.397 . S
C38 C37 1.394 . S
C39 H11 0.982 . S
C39 H15 0.979 . S
C39 H16 0.977 . S
C39 C36 1.453 . S
C40 H12 0.979 . S
C40 H13 0.980 . S
C40 H14 0.983 . S
C40 C36 1.684 . S
H41 C59 0.948 . S
H42 C0 0.948 . S
H43 C18 0.979 . S
H44 C18 0.980 . S
H45 C18 0.983 . S
H46 C17 0.982 . S
H47 C17 0.979 . S
H48 C17 0.977 . S
H49 C19 0.948 . S
H50 C21 0.947 . S
H51 C22 0.948 . S
H52 C28 0.982 . S
H53 C28 0.979 . S
H54 C28 0.977 . S
H55 C29 0.979 . S
H56 C29 0.980 . S
H57 C29 0.983 . S
H58 C2 0.947 . S
C59 C2 1.392 . S
C59 C3 1.419 . S
C59 H41 0.948 . S
C60 C61 1.391 . S
C60 C64 1.391 . S
C60 H102 0.948 . S
C61 C60 1.391 . S
C61 C62 1.391 . S
C62 C61 1.391 . S
C62 H118 0.947 . S
C62 C119 1.392 . S
C63 C64 1.391 . S
C63 C67 1.397 . S
C63 C119 1.419 . S
C64 C60 1.391 . S
C64 C63 1.391 . S
C64 C65 1.399 . S
C65 C64 1.399 . S
C65 C68 1.396 . S
C65 C77 1.453 . S
C65 C78 1.684 . S
H66 C90 0.948 . S
C67 C63 1.397 . S
C67 C68 1.394 . S
C67 C86 1.723 . S
C68 C65 1.396 . S
C68 C67 1.394 . S
C68 C98 1.723 . S
H69 C92 0.947 . S
H70 C93 0.948 . S
H71 C99 0.982 . S
H72 C100 0.979 . S
H73 C100 0.980 . S
H74 C100 0.983 . S
H75 C99 0.979 . S
H76 C99 0.977 . S
C77 C65 1.453 . S
C77 H106 0.982 . S
C77 H107 0.979 . S
C77 H108 0.977 . S
C78 C65 1.684 . S
C78 H103 0.979 . S
C78 H104 0.980 . S
C78 H105 0.983 . S
C79 C80 1.391 . S
C79 C84 1.391 . S
C79 H109 0.948 . S
C80 C79 1.391 . S
C80 C81 1.391 . S
C81 C80 1.391 . S
C81 C82 1.392 . S
C81 H110 0.947 . S
C82 C81 1.392 . S
C82 C83 1.419 . S
C82 H111 0.948 . S
C83 C82 1.419 . S
C83 C84 1.391 . S
C83 C87 1.397 . S
C84 C79 1.391 . S
C84 C83 1.391 . S
C84 C85 1.399 . S
C85 C84 1.399 . S
C85 C86 1.396 . S
C85 C88 1.453 . S
C85 C89 1.684 . S
C86 C67 1.723 . S
C86 C85 1.396 . S
C86 C87 1.394 . S
C87 C83 1.397 . S
C87 C86 1.394 . S
C87 C97 1.723 . S
C88 C85 1.453 . S
C88 H112 0.982 . S
C88 H113 0.979 . S
C88 H114 0.977 . S
C89 C85 1.684 . S
C89 H115 0.979 . S
C89 H116 0.980 . S
C89 H117 0.983 . S
C90 H66 0.948 . S
C90 C91 1.391 . S
C90 C95 1.391 . S
C91 C90 1.391 . S
C91 C92 1.391 . S
C92 H69 0.947 . S
C92 C91 1.391 . S
C92 C93 1.392 . S
C93 H70 0.948 . S
C93 C92 1.392 . S
C93 C94 1.419 . S
C94 C93 1.419 . S
C94 C95 1.391 . S
C94 C98 1.397 . S
C95 C90 1.391 . S
C95 C94 1.391 . S
C95 C96 1.399 . S
C96 C95 1.399 . S
C96 C97 1.396 . S
C96 C99 1.453 . S
C96 C100 1.684 . S
C97 C87 1.723 . S
C97 C96 1.396 . S
C97 C98 1.394 . S
C98 C68 1.723 . S
C98 C94 1.397 . S
C98 C97 1.394 . S
C99 H71 0.982 . S
C99 H75 0.979 . S
C99 H76 0.977 . S
C99 C96 1.453 . S
C100 H72 0.979 . S
C100 H73 0.980 . S
C100 H74 0.983 . S
C100 C96 1.684 . S
H101 C119 0.948 . S
H102 C60 0.948 . S
H103 C78 0.979 . S
H104 C78 0.980 . S
H105 C78 0.983 . S
H106 C77 0.982 . S
H107 C77 0.979 . S
H108 C77 0.977 . S
H109 C79 0.948 . S
H110 C81 0.947 . S
H111 C82 0.948 . S
H112 C88 0.982 . S
H113 C88 0.979 . S
H114 C88 0.977 . S
H115 C89 0.979 . S
H116 C89 0.980 . S
H117 C89 0.983 . S
H118 C62 0.947 . S
C119 C62 1.392 . S
C119 C63 1.419 . S
C119 H101 0.948 . S
C120 C121 1.391 . S
C120 C124 1.391 . S
C120 H162 0.948 . S
C121 C120 1.391 . S
C121 C122 1.391 . S
C122 C121 1.391 . S
C122 H178 0.947 . S
C122 C179 1.392 . S
C123 C124 1.391 . S
C123 C127 1.397 . S
C123 C179 1.419 . S
C124 C120 1.391 . S
C124 C123 1.391 . S
C124 C125 1.399 . S
C125 C124 1.399 . S
C125 C128 1.396 . S
C125 C137 1.453 . S
C125 C138 1.684 . S
H126 C150 0.948 . S
C127 C123 1.397 . S
C127 C128 1.394 . S
C127 C146 1.723 . S
C128 C125 1.396 . S
C128 C127 1.394 . S
C128 C158 1.723 . S
H129 C152 0.947 . S
H130 C153 0.948 . S
H131 C159 0.982 . S
H132 C160 0.979 . S
H133 C160 0.980 . S
H134 C160 0.983 . S
H135 C159 0.979 . S
H136 C159 0.977 . S
C137 C125 1.453 . S
C137 H166 0.982 . S
C137 H167 0.979 . S
C137 H168 0.977 . S
C138 C125 1.684 . S
C138 H163 0.979 . S
C138 H164 0.980 . S
C138 H165 0.983 . S
C139 C140 1.391 . S
C139 C144 1.391 . S
C139 H169 0.948 . S
C140 C139 1.391 . S
C140 C141 1.391 . S
C141 C140 1.391 . S
C141 C142 1.392 . S
C141 H170 0.947 . S
C142 C141 1.392 . S
C142 C143 1.419 . S
C142 H171 0.948 . S
C143 C142 1.419 . S
C143 C144 1.391 . S
C143 C147 1.397 . S
C144 C139 1.391 . S
C144 C143 1.391 . S
C144 C145 1.399 . S
C145 C144 1.399 . S
C145 C146 1.396 . S
C145 C148 1.453 . S
C145 C149 1.684 . S
C146 C127 1.723 . S
C146 C145 1.396 . S
C146 C147 1.394 . S
C147 C143 1.397 . S
C147 C146 1.394 . S
C147 C157 1.723 . S
C148 C145 1.453 . S
C148 H172 0.982 . S
C148 H173 0.979 . S
C148 H174 0.977 . S
C149 C145 1.684 . S
C149 H175 0.979 . S
C149 H176 0.980 . S
C149 H177 0.983 . S
C150 H126 0.948 . S
C150 C151 1.391 . S
C150 C155 1.391 . S
C151 C150 1.391 . S
C151 C152 1.391 . S
C152 H129 0.947 . S
C152 C151 1.391 . S
C152 C153 1.392 . S
C153 H130 0.948 . S
C153 C152 1.392 . S
C153 C154 1.419 . S
C154 C153 1.419 . S
C154 C155 1.391 . S
C154 C158 1.397 . S
C155 C150 1.391 . S
C155 C154 1.391 . S
C155 C156 1.399 . S
C156 C155 1.399 . S
C156 C157 1.396 . S
C156 C159 1.453 . S
C156 C160 1.684 . S
C157 C147 1.723 . S
C157 C156 1.396 . S
C157 C158 1.394 . S
C158 C128 1.723 . S
C158 C154 1.397 . S
C158 C157 1.394 . S
C159 H131 0.982 . S
C159 H135 0.979 . S
C159 H136 0.977 . S
C159 C156 1.453 . S
C160 H132 0.979 . S
C160 H133 0.980 . S
C160 H134 0.983 . S
C160 C156 1.684 . S
H161 C179 0.948 . S
H162 C120 0.948 . S
H163 C138 0.979 . S
H164 C138 0.980 . S
H165 C138 0.983 . S
H166 C137 0.982 . S
H167 C137 0.979 . S
H168 C137 0.977 . S
H169 C139 0.948 . S
H170 C141 0.947 . S
H171 C142 0.948 . S
H172 C148 0.982 . S
H173 C148 0.979 . S
H174 C148 0.977 . S
H175 C149 0.979 . S
H176 C149 0.980 . S
H177 C149 0.983 . S
H178 C122 0.947 . S
C179 C122 1.392 . S
C179 C123 1.419 . S
C179 H161 0.948 . S
C180 C181 1.391 . S
C180 C184 1.391 . S
C180 H222 0.948 . S
C181 C180 1.391 . S
C181 C182 1.391 . S
C182 C181 1.391 . S
C182 H238 0.947 . S
C182 C239 1.392 . S
C183 C184 1.391 . S
C183 C187 1.397 . S
C183 C239 1.419 . S
C184 C180 1.391 . S
C184 C183 1.391 . S
C184 C185 1.399 . S
C185 C184 1.399 . S
C185 C188 1.396 . S
C185 C197 1.453 . S
C185 C198 1.684 . S
H186 C210 0.948 . S
C187 C183 1.397 . S
C187 C188 1.394 . S
C187 C206 1.723 . S
C188 C185 1.396 . S
C188 C187 1.394 . S
C188 C218 1.723 . S
H189 C212 0.947 . S
H190 C213 0.948 . S
H191 C219 0.982 . S
H192 C220 0.979 . S
H193 C220 0.980 . S
H194 C220 0.983 . S
H195 C219 0.979 . S
H196 C219 0.977 . S
C197 C185 1.453 . S
C197 H226 0.982 . S
C197 H227 0.979 . S
C197 H228 0.977 . S
C198 C185 1.684 . S
C198 H223 0.979 . S
C198 H224 0.980 . S
C198 H225 0.983 . S
C199 C200 1.391 . S
C199 C204 1.391 . S
C199 H229 0.948 . S
C200 C199 1.391 . S
C200 C201 1.391 . S
C201 C200 1.391 . S
C201 C202 1.392 . S
C201 H230 0.947 . S
C202 C201 1.392 . S
C202 C203 1.419 . S
C202 H231 0.948 . S
C203 C202 1.419 . S
C203 C204 1.391 . S
C203 C207 1.397 . S
C204 C199 1.391 . S
C204 C203 1.391 . S
C204 C205 1.399 . S
C205 C204 1.399 . S
C205 C206 1.396 . S
C205 C208 1.453 . S
C205 C209 1.684 . S
C206 C187 1.723 . S
C206 C205 1.396 . S
C206 C207 1.394 . S
C207 C203 1.397 . S
C207 C206 1.394 . S
C207 C217 1.723 . S
C208 C205 1.453 . S
C208 H232 0.982 . S
C208 H233 0.979 . S
C208 H234 0.977 . S
C209 C205 1.684 . S
C209 H235 0.979 . S
C209 H236 0.980 . S
C209 H237 0.983 . S
C210 H186 0.948 . S
C210 C211 1.391 . S
C210 C215 1.391 . S
C211 C210 1.391 . S
C211 C212 1.391 . S
C212 H189 0.947 . S
C212 C211 1.391 . S
C212 C213 1.392 . S
C213 H190 0.948 . S
C213 C212 1.392 . S
C213 C214 1.419 . S
C214 C213 1.419 . S
C214 C215 1.391 . S
C214 C218 1.397 . S
C215 C210 1.391 . S
C215 C214 1.391 . S
C215 C216 1.399 . S
C216 C215 1.399 . S
C216 C217 1.396 . S
C216 C219 1.453 . S
C216 C220 1.684 . S
C217 C207 1.723 . S
C217 C216 1.396 . S
C217 C218 1.394 . S
C218 C188 1.723 . S
C218 C214 1.397 . S
C218 C217 1.394 . S
C219 H191 0.982 . S
C219 H195 0.979 . S
C219 H196 0.977 . S
C219 C216 1.453 . S
C220 H192 0.979 . S
C220 H193 0.980 . S
C220 H194 0.983 . S
C220 C216 1.684 . S
H221 C239 0.948 . S
H222 C180 0.948 . S
H223 C198 0.979 . S
H224 C198 0.980 . S
H225 C198 0.983 . S
H226 C197 0.982 . S
H227 C197 0.979 . S
H228 C197 0.977 . S
H229 C199 0.948 . S
H230 C201 0.947 . S
H231 C202 0.948 . S
H232 C208 0.982 . S
H233 C208 0.979 . S
H234 C208 0.977 . S
H235 C209 0.979 . S
H236 C209 0.980 . S
H237 C209 0.983 . S
H238 C182 0.947 . S
C239 C182 1.392 . S
C239 C183 1.419 . S
C239 H221 0.948 . S
C240 C241 1.391 . S
C240 C244 1.391 . S
C240 H282 0.948 . S
C241 C240 1.391 . S
C241 C242 1.391 . S
C242 C241 1.391 . S
C242 H298 0.947 . S
C242 C299 1.392 . S
C243 C244 1.391 . S
C243 C247 1.397 . S
C243 C299 1.419 . S
C244 C240 1.391 . S
C244 C243 1.391 . S
C244 C245 1.399 . S
C245 C244 1.399 . S
C245 C248 1.396 . S
C245 C257 1.453 . S
C245 C258 1.684 . S
H246 C270 0.948 . S
C247 C243 1.397 . S
C247 C248 1.394 . S
C247 C266 1.723 . S
C248 C245 1.396 . S
C248 C247 1.394 . S
C248 C278 1.723 . S
H249 C272 0.947 . S
H250 C273 0.948 . S
H251 C279 0.982 . S
H252 C280 0.979 . S
H253 C280 0.980 . S
H254 C280 0.983 . S
H255 C279 0.979 . S
H256 C279 0.977 . S
C257 C245 1.453 . S
C257 H286 0.982 . S
C257 H287 0.979 . S
C257 H288 0.977 . S
C258 C245 1.684 . S
C258 H283 0.979 . S
C258 H284 0.980 . S
C258 H285 0.983 . S
C259 C260 1.391 . S
C259 C264 1.391 . S
C259 H289 0.948 . S
C260 C259 1.391 . S
C260 C261 1.391 . S
C261 C260 1.391 . S
C261 C262 1.392 . S
C261 H290 0.947 . S
C262 C261 1.392 . S
C262 C263 1.419 . S
C262 H291 0.948 . S
C263 C262 1.419 . S
C263 C264 1.391 . S
C263 C267 1.397 . S
C264 C259 1.391 . S
C264 C263 1.391 . S
C264 C265 1.399 . S
C265 C264 1.399 . S
C265 C266 1.396 . S
C265 C268 1.453 . S
C265 C269 1.684 . S
C266 C247 1.723 . S
C266 C265 1.396 . S
C266 C267 1.394 . S
C267 C263 1.397 . S
C267 C266 1.394 . S
C267 C277 1.723 . S
C268 C265 1.453 . S
C268 H292 0.982 . S
C268 H293 0.979 . S
C268 H294 0.977 . S
C269 C265 1.684 . S
C269 H295 0.979 . S
C269 H296 0.980 . S
C269 H297 0.983 . S
C270 H246 0.948 . S
C270 C271 1.391 . S
C270 C275 1.391 . S
C271 C270 1.391 . S
C271 C272 1.391 . S
C272 H249 0.947 . S
C272 C271 1.391 . S
C272 C273 1.392 . S
C273 H250 0.948 . S
C273 C272 1.392 . S
C273 C274 1.419 . S
C274 C273 1.419 . S
C274 C275 1.391 . S
C274 C278 1.397 . S
C275 C270 1.391 . S
C275 C274 1.391 . S
C275 C276 1.399 . S
C276 C275 1.399 . S
C276 C277 1.396 . S
C276 C279 1.453 . S
C276 C280 1.684 . S
C277 C267 1.723 . S
C277 C276 1.396 . S
C277 C278 1.394 . S
C278 C248 1.723 . S
C278 C274 1.397 . S
C278 C277 1.394 . S
C279 H251 0.982 . S
C279 H255 0.979 . S
C279 H256 0.977 . S
C279 C276 1.453 . S
C280 H252 0.979 . S
C280 H253 0.980 . S
C280 H254 0.983 . S
C280 C276 1.684 . S
H281 C299 0.948 . S
H282 C240 0.948 . S
H283 C258 0.979 . S
H284 C258 0.980 . S
H285 C258 0.983 . S
H286 C257 0.982 . S
H287 C257 0.979 . S
H288 C257 0.977 . S
H289 C259 0.948 . S
H290 C261 0.947 . S
H291 C262 0.948 . S
H292 C268 0.982 . S
H293 C268 0.979 . S
H294 C268 0.977 . S
H295 C269 0.979 . S
H296 C269 0.980 . S
H297 C269 0.983 . S
H298 C242 0.947 . S
C299 C242 1.392 . S
C299 C243 1.419 . S
C299 H281 0.948 . S
C300 C301 1.391 . S
C300 C304 1.391 . S
C300 H342 0.948 . S
C301 C300 1.391 . S
C301 C302 1.391 . S
C302 C301 1.391 . S
C302 H358 0.947 . S
C302 C359 1.392 . S
C303 C304 1.391 . S
C303 C307 1.397 . S
C303 C359 1.419 . S
C304 C300 1.391 . S
C304 C303 1.391 . S
C304 C305 1.399 . S
C305 C304 1.399 . S
C305 C308 1.396 . S
C305 C317 1.453 . S
C305 C318 1.684 . S
H306 C330 0.948 . S
C307 C303 1.397 . S
C307 C308 1.394 . S
C307 C326 1.723 . S
C308 C305 1.396 . S
C308 C307 1.394 . S
C308 C338 1.723 . S
H309 C332 0.947 . S
H310 C333 0.948 . S
H311 C339 0.982 . S
H312 C340 0.979 . S
H313 C340 0.980 . S
H314 C340 0.983 . S
H315 C339 0.979 . S
H316 C339 0.977 . S
C317 C305 1.453 . S
C317 H346 0.982 . S
C317 H347 0.979 . S
C317 H348 0.977 . S
C318 C305 1.684 . S
C318 H343 0.979 . S
C318 H344 0.980 . S
C318 H345 0.983 . S
C319 C320 1.391 . S
C319 C324 1.391 . S
C319 H349 0.948 . S
C320 C319 1.391 . S
C320 C321 1.391 . S
C321 C320 1.391 . S
C321 C322 1.392 . S
C321 H350 0.947 . S
C322 C321 1.392 . S
C322 C323 1.419 . S
C322 H351 0.948 . S
C323 C322 1.419 . S
C323 C324 1.391 . S
C323 C327 1.397 . S
C324 C319 1.391 . S
C324 C323 1.391 . S
C324 C325 1.399 . S
C325 C324 1.399 . S
C325 C326 1.396 . S
C325 C328 1.453 . S
C325 C329 1.684 . S
C326 C307 1.723 . S
C326 C325 1.396 . S
C326 C327 1.394 . S
C327 C323 1.397 . S
C327 C326 1.394 . S
C327 C337 1.723 . S
C328 C325 1.453 . S
C328 H352 0.982 . S
C328 H353 0.979 . S
C328 H354 0.977 . S
C329 C325 1.684 . S
C329 H355 0.979 . S
C329 H356 0.980 . S
C329 H357 0.983 . S
C330 H306 0.948 . S
C330 C331 1.391 . S
C330 C335 1.391 . S
C331 C330 1.391 . S
C331 C332 1.391 . S
C332 H309 0.947 . S
C332 C331 1.391 . S
C332 C333 1.392 . S
C333 H310 0.948 . S
C333 C332 1.392 . S
C333 C334 1.419 . S
C334 C333 1.419 . S
C334 C335 1.391 . S
C334 C338 1.397 . S
C335 C330 1.391 . S
C335 C334 1.391 . S
C335 C336 1.399 . S
C336 C335 1.399 . S
C336 C337 1.396 . S
C336 C339 1.453 . S
C336 C340 1.684 . S
C337 C327 1.723 . S
C337 C336 1.396 . S
C337 C338 1.394 . S
C338 C308 1.723 . S
C338 C334 1.397 . S
C338 C337 1.394 . S
C339 H311 0.982 . S
C339 H315 0.979 . S
C339 H316 0.977 . S
C339 C336 1.453 . S
C340 H312 0.979 . S
C340 H313 0.980 . S
C340 H314 0.983 . S
C340 C336 1.684 . S
H341 C359 0.948 . S
H342 C300 0.948 . S
H343 C318 0.979 . S
H344 C318 0.980 . S
H345 C318 0.983 . S
H346 C317 0.982 . S
H347 C317 0.979 . S
H348 C317 0.977 . S
H349 C319 0.948 . S
H350 C321 0.947 . S
H351 C322 0.948 . S
H352 C328 0.982 . S
H353 C328 0.979 . S
H354 C328 0.977 . S
H355 C329 0.979 . S
H356 C329 0.980 . S
H357 C329 0.983 . S
H358 C302 0.947 . S
C359 C302 1.392 . S
C359 C303 1.419 . S
C359 H341 0.948 . S
C360 C361 1.391 . S
C360 C364 1.391 . S
C360 H402 0.948 . S
C361 C360 1.391 . S
C361 C362 1.391 . S
C362 C361 1.391 . S
C362 H418 0.947 . S
C362 C419 1.392 . S
C363 C364 1.391 . S
C363 C367 1.397 . S
C363 C419 1.419 . S
C364 C360 1.391 . S
C364 C363 1.391 . S
C364 C365 1.399 . S
C365 C364 1.399 . S
C365 C368 1.396 . S
C365 C377 1.453 . S
C365 C378 1.684 . S
H366 C390 0.948 . S
C367 C363 1.397 . S
C367 C368 1.394 . S
C367 C386 1.723 . S
C368 C365 1.396 . S
C368 C367 1.394 . S
C368 C398 1.723 . S
H369 C392 0.947 . S
H370 C393 0.948 . S
H371 C399 0.982 . S
H372 C400 0.979 . S
H373 C400 0.980 . S
H374 C400 0.983 . S
H375 C399 0.979 . S
H376 C399 0.977 . S
C377 C365 1.453 . S
C377 H406 0.982 . S
C377 H407 0.979 . S
C377 H408 0.977 . S
C378 C365 1.684 . S
C378 H403 0.979 . S
C378 H404 0.980 . S
C378 H405 0.983 . S
C379 C380 1.391 . S
C379 C384 1.391 . S
C379 H409 0.948 . S
C380 C379 1.391 . S
C380 C381 1.391 . S
C381 C380 1.391 . S
C381 C382 1.392 . S
C381 H410 0.947 . S
C382 C381 1.392 . S
C382 C383 1.419 . S
C382 H411 0.948 . S
C383 C382 1.419 . S
C383 C384 1.391 . S
C383 C387 1.397 . S
C384 C379 1.391 . S
C384 C383 1.391 . S
C384 C385 1.399 . S
C385 C384 1.399 . S
C385 C386 1.396 . S
C385 C388 1.453 . S
C385 C389 1.684 . S
C386 C367 1.723 . S
C386 C385 1.396 . S
C386 C387 1.394 . S
C387 C383 1.397 . S
C387 C386 1.394 . S
C387 C397 1.723 . S
C388 C385 1.453 . S
C388 H412 0.982 . S
C388 H413 0.979 . S
C388 H414 0.977 . S
C389 C385 1.684 . S
C389 H415 0.979 . S
C389 H416 0.980 . S
C389 H417 0.983 . S
C390 H366 0.948 . S
C390 C391 1.391 . S
C390 C395 1.391 . S
C391 C390 1.391 . S
C391 C392 1.391 . S
C392 H369 0.947 . S
C392 C391 1.391 . S
C392 C393 1.392 . S
C393 H370 0.948 . S
C393 C392 1.392 . S
C393 C394 1.419 . S
C394 C393 1.419 . S
C394 C395 1.391 . S
C394 C398 1.397 . S
C395 C390 1.391 . S
C395 C394 1.391 . S
C395 C396 1.399 . S
C396 C395 1.399 . S
C396 C397 1.396 . S
C396 C399 1.453 . S
C396 C400 1.684 . S
C397 C387 1.723 . S
C397 C396 1.396 . S
C397 C398 1.394 . S
C398 C368 1.723 . S
C398 C394 1.397 . S
C398 C397 1.394 . S
C399 H371 0.982 . S
C399 H375 0.979 . S
C399 H376 0.977 . S
C399 C396 1.453 . S
C400 H372 0.979 . S
C400 H373 0.980 . S
C400 H374 0.983 . S
C400 C396 1.684 . S
H401 C419 0.948 . S
H402 C360 0.948 . S
H403 C378 0.979 . S
H404 C378 0.980 . S
H405 C378 0.983 . S
H406 C377 0.982 . S
H407 C377 0.979 . S
H408 C377 0.977 . S
H409 C379 0.948 . S
H410 C381 0.947 . S
H411 C382 0.948 . S
H412 C388 0.982 . S
H413 C388 0.979 . S
H414 C388 0.977 . S
H415 C389 0.979 . S
H416 C389 0.980 . S
H417 C389 0.983 . S
H418 C362 0.947 . S
C419 C362 1.392 . S
C419 C363 1.419 . S
C419 H401 0.948 . S
C420 C421 1.391 . S
C420 C424 1.391 . S
C420 H462 0.948 . S
C421 C420 1.391 . S
C421 C422 1.391 . S
C422 C421 1.391 . S
C422 H478 0.947 . S
C422 C479 1.392 . S
C423 C424 1.391 . S
C423 C427 1.397 . S
C423 C479 1.419 . S
C424 C420 1.391 . S
C424 C423 1.391 . S
C424 C425 1.399 . S
C425 C424 1.399 . S
C425 C428 1.396 . S
C425 C437 1.453 . S
C425 C438 1.684 . S
H426 C450 0.948 . S
C427 C423 1.397 . S
C427 C428 1.394 . S
C427 C446 1.723 . S
C428 C425 1.396 . S
C428 C427 1.394 . S
C428 C458 1.723 . S
H429 C452 0.947 . S
H430 C453 0.948 . S
H431 C459 0.982 . S
H432 C460 0.979 . S
H433 C460 0.980 . S
H434 C460 0.983 . S
H435 C459 0.979 . S
H436 C459 0.977 . S
C437 C425 1.453 . S
C437 H466 0.982 . S
C437 H467 0.979 . S
C437 H468 0.977 . S
C438 C425 1.684 . S
C438 H463 0.979 . S
C438 H464 0.980 . S
C438 H465 0.983 . S
C439 C440 1.391 . S
C439 C444 1.391 . S
C439 H469 0.948 . S
C440 C439 1.391 . S
C440 C441 1.391 . S
C441 C440 1.391 . S
C441 C442 1.392 . S
C441 H470 0.947 . S
C442 C441 1.392 . S
C442 C443 1.419 . S
C442 H471 0.948 . S
C443 C442 1.419 . S
C443 C444 1.391 . S
C443 C447 1.397 . S
C444 C439 1.391 . S
C444 C443 1.391 . S
C444 C445 1.399 . S
C445 C444 1.399 . S
C445 C446 1.396 . S
C445 C448 1.453 . S
C445 C449 1.684 . S
C446 C427 1.723 . S
C446 C445 1.396 . S
C446 C447 1.394 . S
C447 C443 1.397 . S
C447 C446 1.394 . S
C447 C457 1.723 . S
C448 C445 1.453 . S
C448 H472 0.982 . S
C448 H473 0.979 . S
C448 H474 0.977 . S
C449 C445 1.684 . S
C449 H475 0.979 . S
C449 H476 0.980 . S
C449 H477 0.983 . S
C450 H426 0.948 . S
C450 C451 1.391 . S
C450 C455 1.391 . S
C451 C450 1.391 . S
C451 C452 1.391 . S
C452 H429 0.947 . S
C452 C451 1.391 . S
C452 C453 1.392 . S
C453 H430 0.948 . S
C453 C452 1.392 . S
C453 C454 1.419 . S
C454 C453 1.419 . S
C454 C455 1.391 . S
C454 C458 1.397 . S
C455 C450 1.391 . S
C455 C454 1.391 . S
C455 C456 1.399 . S
C456 C455 1.399 . S
C456 C457 1.396 . S
C456 C459 1.453 . S
C456 C460 1.684 . S
C457 C447 1.723 . S
C457 C456 1.396 . S
C457 C458 1.394 . S
C458 C428 1.723 . S
C458 C454 1.397 . S
C458 C457 1.394 . S
C459 H431 0.982 . S
C459 H435 0.979 . S
C459 H436 0.977 . S
C459 C456 1.453 . S
C460 H432 0.979 . S
C460 H433 0.980 . S
C460 H434 0.983 . S
C460 C456 1.684 . S
H461 C479 0.948 . S
H462 C420 0.948 . S
H463 C438 0.979 . S
H464 C438 0.980 . S
H465 C438 0.983 . S
H466 C437 0.982 . S
H467 C437 0.979 . S
H468 C437 0.977 . S
H469 C439 0.948 . S
H470 C441 0.947 . S
H471 C442 0.948 . S
H472 C448 0.982 . S
H473 C448 0.979 . S
H474 C448 0.977 . S
H475 C449 0.979 . S
H476 C449 0.980 . S
H477 C449 0.983 . S
H478 C422 0.947 . S
C479 C422 1.392 . S
C479 C423 1.419 . S
C479 H461 0.948 . S
C480 C481 1.391 . S
C480 C484 1.391 . S
C480 H522 0.948 . S
C481 C480 1.391 . S
C481 C482 1.391 . S
C482 C481 1.391 . S
C482 H538 0.947 . S
C482 C539 1.392 . S
C483 C484 1.391 . S
C483 C487 1.397 . S
C483 C539 1.419 . S
C484 C480 1.391 . S
C484 C483 1.391 . S
C484 C485 1.399 . S
C485 C484 1.399 . S
C485 C488 1.396 . S
C485 C497 1.453 . S
C485 C498 1.684 . S
H486 C510 0.948 . S
C487 C483 1.397 . S
C487 C488 1.394 . S
C487 C506 1.723 . S
C488 C485 1.396 . S
C488 C487 1.394 . S
C488 C518 1.723 . S
H489 C512 0.947 . S
H490 C513 0.948 . S
H491 C519 0.982 . S
H492 C520 0.979 . S
H493 C520 0.980 . S
H494 C520 0.983 . S
H495 C519 0.979 . S
H496 C519 0.977 . S
C497 C485 1.453 . S
C497 H526 0.982 . S
C497 H527 0.979 . S
C497 H528 0.977 . S
C498 C485 1.684 . S
C498 H523 0.979 . S
C498 H524 0.980 . S
C498 H525 0.983 . S
C499 C500 1.391 . S
C499 C504 1.391 . S
C499 H529 0.948 . S
C500 C499 1.391 . S
C500 C501 1.391 . S
C501 C500 1.391 . S
C501 C502 1.392 . S
C501 H530 0.947 . S
C502 C501 1.392 . S
C502 C503 1.419 . S
C502 H531 0.948 . S
C503 C502 1.419 . S
C503 C504 1.391 . S
C503 C507 1.397 . S
C504 C499 1.391 . S
C504 C503 1.391 . S
C504 C505 1.399 . S
C505 C504 1.399 . S
C505 C506 1.396 . S
C505 C508 1.453 . S
C505 C509 1.684 . S
C506 C487 1.723 . S
C506 C505 1.396 . S
C506 C507 1.394 . S
C507 C503 1.397 . S
C507 C506 1.394 . S
C507 C517 1.723 . S
C508 C505 1.453 . S
C508 H532 0.982 . S
C508 H533 0.979 . S
C508 H534 0.977 . S
C509 C505 1.684 . S
C509 H535 0.979 . S
C509 H536 0.980 . S
C509 H537 0.983 . S
C510 H486 0.948 . S
C510 C511 1.391 . S
C510 C515 1.391 . S
C511 C510 1.391 . S
C511 C512 1.391 . S
C512 H489 0.947 . S
C512 C511 1.391 . S
C512 C513 1.392 . S
C513 H490 0.948 . S
C513 C512 1.392 . S
C513 C514 1.419 . S
C514 C513 1.419 . S
C514 C515 1.391 . S
C514 C518 1.397 . S
C515 C510 1.391 . S
C515 C514 1.391 . S
C515 C516 1.399 . S
C516 C515 1.399 . S
C516 C517 1.396 . S
C516 C519 1.453 . S
C516 C520 1.684 . S
C517 C507 1.723 . S
C517 C516 1.396 . S
C517 C518 1.394 . S
C518 C488 1.723 . S
C518 C514 1.397 . S
C518 C517 1.394 . S
C519 H491 0.982 . S
C519 H495 0.979 . S
C519 H496 0.977 . S
C519 C516 1.453 . S
C520 H492 0.979 . S
C520 H493 0.980 . S
C520 H494 0.983 . S
C520 C516 1.684 . S
H521 C539 0.948 . S
H522 C480 0.948 . S
H523 C498 0.979 . S
H524 C498 0.980 . S
H525 C498 0.983 . S
H526 C497 0.982 . S
H527 C497 0.979 . S
H528 C497 0.977 . S
H529 C499 0.948 . S
H530 C501 0.947 . S
H531 C502 0.948 . S
H532 C508 0.982 . S
H533 C508 0.979 . S
H534 C508 0.977 . S
H535 C509 0.979 . S
H536 C509 0.980 . S
H537 C509 0.983 . S
H538 C482 0.947 . S
C539 C482 1.392 . S
C539 C483 1.419 . S
C539 H521 0.948 . S
C540 C541 1.391 . S
C540 C544 1.391 . S
C540 H582 0.948 . S
C541 C540 1.391 . S
C541 C542 1.391 . S
C542 C541 1.391 . S
C542 H598 0.947 . S
C542 C599 1.392 . S
C543 C544 1.391 . S
C543 C547 1.397 . S
C543 C599 1.419 . S
C544 C540 1.391 . S
C544 C543 1.391 . S
C544 C545 1.399 . S
C545 C544 1.399 . S
C545 C548 1.396 . S
C545 C557 1.453 . S
C545 C558 1.684 . S
H546 C570 0.948 . S
C547 C543 1.397 . S
C547 C548 1.394 . S
C547 C566 1.723 . S
C548 C545 1.396 . S
C548 C547 1.394 . S
C548 C578 1.723 . S
H549 C572 0.947 . S
H550 C573 0.948 . S
H551 C579 0.982 . S
H552 C580 0.979 . S
H553 C580 0.980 . S
H554 C580 0.983 . S
H555 C579 0.979 . S
H556 C579 0.977 . S
C557 C545 1.453 . S
C557 H586 0.982 . S
C557 H587 0.979 . S
C557 H588 0.977 . S
C558 C545 1.684 . S
C558 H583 0.979 . S
C558 H584 0.980 . S
C558 H585 0.983 . S
C559 C560 1.391 . S
C559 C564 1.391 . S
C559 H589 0.948 . S
C560 C559 1.391 . S
C560 C561 1.391 . S
C561 C560 1.391 . S
C561 C562 1.392 . S
C561 H590 0.947 . S
C562 C561 1.392 . S
C562 C563 1.419 . S
C562 H591 0.948 . S
C563 C562 1.419 . S
C563 C564 1.391 . S
C563 C567 1.397 . S
C564 C559 1.391 . S
C564 C563 1.391 . S
C564 C565 1.399 . S
C565 C564 1.399 . S
C565 C566 1.396 . S
C565 C568 1.453 . S
C565 C569 1.684 . S
C566 C547 1.723 . S
C566 C565 1.396 . S
C566 C567 1.394 . S
C567 C563 1.397 . S
C567 C566 1.394 . S
C567 C577 1.723 . S
C568 C565 1.453 . S
C568 H592 0.982 . S
C568 H593 0.979 . S
C568 H594 0.977 . S
C569 C565 1.684 . S
C569 H595 0.979 . S
C569 H596 0.980 . S
C569 H597 0.983 . S
C570 H546 0.948 . S
C570 C571 1.391 . S
C570 C575 1.391 . S
C571 C570 1.391 . S
C571 C572 1.391 . S
C572 H549 0.947 . S
C572 C571 1.391 . S
C572 C573 1.392 . S
C573 H550 0.948 . S
C573 C572 1.392 . S
C573 C574 1.419 . S
C574 C573 1.419 . S
C574 C575 1.391 . S
C574 C578 1.397 . S
C575 C570 1.391 . S
C575 C574 1.391 . S
C575 C576 1.399 . S
C576 C575 1.399 . S
C576 C577 1.396 . S
C576 C579 1.453 . S
C576 C580 1.684 . S
C577 C567 1.723 . S
C577 C576 1.396 . S
C577 C578 1.394 . S
C578 C548 1.723 . S
C578 C574 1.397 . S
C578 C577 1.394 . S
C579 H551 0.982 . S
C579 H555 0.979 . S
C579 H556 0.977 . S
C579 C576 1.453 . S
C580 H552 0.979 . S
C580 H553 0.980 . S
C580 H554 0.983 . S
C580 C576 1.684 . S
H581 C599 0.948 . S
H582 C540 0.948 . S
H583 C558 0.979 . S
H584 C558 0.980 . S
H585 C558 0.983 . S
H586 C557 0.982 . S
H587 C557 0.979 . S
H588 C557 0.977 . S
H589 C559 0.948 . S
H590 C561 0.947 . S
H591 C562 0.948 . S
H592 C568 0.982 . S
H593 C568 0.979 . S
H594 C568 0.977 . S
H595 C569 0.979 . S
H596 C569 0.980 . S
H597 C569 0.983 . S
H598 C542 0.947 . S
C599 C542 1.392 . S
C599 C543 1.419 . S
C599 H581 0.948 . S
C600 C601 1.391 . S
C600 C604 1.391 . S
C600 H642 0.948 . S
C601 C600 1.391 . S
C601 C602 1.391 . S
C602 C601 1.391 . S
C602 H658 0.947 . S
C602 C659 1.392 . S
C603 C604 1.391 . S
C603 C607 1.397 . S
C603 C659 1.419 . S
C604 C600 1.391 . S
C604 C603 1.391 . S
C604 C605 1.399 . S
C605 C604 1.399 . S
C605 C608 1.396 . S
C605 C617 1.453 . S
C605 C618 1.684 . S
H606 C630 0.948 . S
C607 C603 1.397 . S
C607 C608 1.394 . S
C607 C626 1.723 . S
C608 C605 1.396 . S
C608 C607 1.394 . S
C608 C638 1.723 . S
H609 C632 0.947 . S
H610 C633 0.948 . S
H611 C639 0.982 . S
H612 C640 0.979 . S
H613 C640 0.980 . S
H614 C640 0.983 . S
H615 C639 0.979 . S
H616 C639 0.977 . S
C617 C605 1.453 . S
C617 H646 0.982 . S
C617 H647 0.979 . S
C617 H648 0.977 . S
C618 C605 1.684 . S
C618 H643 0.979 . S
C618 H644 0.980 . S
C618 H645 0.983 . S
C619 C620 1.391 . S
C619 C624 1.391 . S
C619 H649 0.948 . S
C620 C619 1.391 . S
C620 C621 1.391 . S
C621 C620 1.391 . S
C621 C622 1.392 . S
C621 H650 0.947 . S
C622 C621 1.392 . S
C622 C623 1.419 . S
C622 H651 0.948 . S
C623 C622 1.419 . S
C623 C624 1.391 . S
C623 C627 1.397 . S
C624 C619 1.391 . S
C624 C623 1.391 . S
C624 C625 1.399 . S
C625 C624 1.399 . S
C625 C626 1.396 . S
C625 C628 1.453 . S
C625 C629 1.684 . S
C626 C607 1.723 . S
C626 C625 1.396 . S
C626 C627 1.394 . S
C627 C623 1.397 . S
C627 C626 1.394 . S
C627 C637 1.723 . S
C628 C625 1.453 . S
C628 H652 0.982 . S
C628 H653 0.979 . S
C628 H654 0.977 . S
C629 C625 1.684 . S
C629 H655 0.979 . S
C629 H656 0.980 . S
C629 H657 0.983 . S
C630 H606 0.948 . S
C630 C631 1.391 . S
C630 C635 1.391 . S
C631 C630 1.391 . S
C631 C632 1.391 . S
C632 H609 0.947 . S
C632 C631 1.391 . S
C632 C633 1.392 . S
C633 H610 0.948 . S
C633 C632 1.392 . S
C633 C634 1.419 . S
C634 C633 1.419 . S
C634 C635 1.391 . S
C634 C638 1.397 . S
C635 C630 1.391 . S
C635 C634 1.391 . S
C635 C636 1.399 . S
C636 C635 1.399 . S
C636 C637 1.396 . S
C636 C639 1.453 . S
C636 C640 1.684 . S
C637 C627 1.723 . S
C637 C636 1.396 . S
C637 C638 1.394 . S
C638 C608 1.723 . S
C638 C634 1.397 . S
C638 C637 1.394 . S
C639 H611 0.982 . S
C639 H615 0.979 . S
C639 H616 0.977 . S
C639 C636 1.453 . S
C640 H612 0.979 . S
C640 H613 0.980 . S
C640 H614 0.983 . S
C640 C636 1.684 . S
H641 C659 0.948 . S
H642 C600 0.948 . S
H643 C618 0.979 . S
H644 C618 0.980 . S
H645 C618 0.983 . S
H646 C617 0.982 . S
H647 C617 0.979 . S
H648 C617 0.977 . S
H649 C619 0.948 . S
H650 C621 0.947 . S
H651 C622 0.948 . S
H652 C628 0.982 . S
H653 C628 0.979 . S
H654 C628 0.977 . S
H655 C629 0.979 . S
H656 C629 0.980 . S
H657 C629 0.983 . S
H658 C602 0.947 . S
C659 C602 1.392 . S
C659 C603 1.419 . S
C659 H641 0.948 . S
C660 C661 1.391 . S
C660 C664 1.391 . S
C660 H702 0.948 . S
C661 C660 1.391 . S
C661 C662 1.391 . S
C662 C661 1.391 . S
C662 H718 0.947 . S
C662 C719 1.392 . S
C663 C664 1.391 . S
C663 C667 1.397 . S
C663 C719 1.419 . S
C664 C660 1.391 . S
C664 C663 1.391 . S
C664 C665 1.399 . S
C665 C664 1.399 . S
C665 C668 1.396 . S
C665 C677 1.453 . S
C665 C678 1.684 . S
H666 C690 0.948 . S
C667 C663 1.397 . S
C667 C668 1.394 . S
C667 C686 1.723 . S
C668 C665 1.396 . S
C668 C667 1.394 . S
C668 C698 1.723 . S
H669 C692 0.947 . S
H670 C693 0.948 . S
H671 C699 0.982 . S
H672 C700 0.979 . S
H673 C700 0.980 . S
H674 C700 0.983 . S
H675 C699 0.979 . S
H676 C699 0.977 . S
C677 C665 1.453 . S
C677 H706 0.982 . S
C677 H707 0.979 . S
C677 H708 0.977 . S
C678 C665 1.684 . S
C678 H703 0.979 . S
C678 H704 0.980 . S
C678 H705 0.983 . S
C679 C680 1.391 . S
C679 C684 1.391 . S
C679 H709 0.948 . S
C680 C679 1.391 . S
C680 C681 1.391 . S
C681 C680 1.391 . S
C681 C682 1.392 . S
C681 H710 0.947 . S
C682 C681 1.392 . S
C682 C683 1.419 . S
C682 H711 0.948 . S
C683 C682 1.419 . S
C683 C684 1.391 . S
C683 C687 1.397 . S
C684 C679 1.391 . S
C684 C683 1.391 . S
C684 C685 1.399 . S
C685 C684 1.399 . S
C685 C686 1.396 . S
C685 C688 1.453 . S
C685 C689 1.684 . S
C686 C667 1.723 . S
C686 C685 1.396 . S
C686 C687 1.394 . S
C687 C683 1.397 . S
C687 C686 1.394 . S
C687 C697 1.723 . S
C688 C685 1.453 . S
C688 H712 0.982 . S
C688 H713 0.979 . S
C688 H714 0.977 . S
C689 C685 1.684 . S
C689 H715 0.979 . S
C689 H716 0.980 . S
C689 H717 0.983 . S
C690 H666 0.948 . S
C690 C691 1.391 . S
C690 C695 1.391 . S
C691 C690 1.391 . S
C691 C692 1.391 . S
C692 H669 0.947 . S
C692 C691 1.391 . S
C692 C693 1.392 . S
C693 H670 0.948 . S
C693 C692 1.392 . S
C693 C694 1.419 . S
C694 C693 1.419 . S
C694 C695 1.391 . S
C694 C698 1.397 . S
C695 C690 1.391 . S
C695 C694 1.391 . S
C695 C696 1.399 . S
C696 C695 1.399 . S
C696 C697 1.396 . S
C696 C699 1.453 . S
C696 C700 1.684 . S
C697 C687 1.723 . S
C697 C696 1.396 . S
C697 C698 1.394 . S
C698 C668 1.723 . S
C698 C694 1.397 . S
C698 C697 1.394 . S
C699 H671 0.982 . S
C699 H675 0.979 . S
C699 H676 0.977 . S
C699 C696 1.453 . S
C700 H672 0.979 . S
C700 H673 0.980 . S
C700 H674 0.983 . S
C700 C696 1.684 . S
H701 C719 0.948 . S
H702 C660 0.948 . S
H703 C678 0.979 . S
H704 C678 0.980 . S
H705 C678 0.983 . S
H706 C677 0.982 . S
H707 C677 0.979 . S
H708 C677 0.977 . S
H709 C679 0.948 . S
H710 C681 0.947 . S
H711 C682 0.948 . S
H712 C688 0.982 . S
H713 C688 0.979 . S
H714 C688 0.977 . S
H715 C689 0.979 . S
H716 C689 0.980 . S
H717 C689 0.983 . S
H718 C662 0.947 . S
C719 C662 1.392 . S
C719 C663 1.419 . S
C719 H701 0.948 . S
C720 C721 1.391 . S
C720 C724 1.391 . S
C720 H762 0.948 . S
C721 C720 1.391 . S
C721 C722 1.391 . S
C722 C721 1.391 . S
C722 H778 0.947 . S
C722 C779 1.392 . S
C723 C724 1.391 . S
C723 C727 1.397 . S
C723 C779 1.419 . S
C724 C720 1.391 . S
C724 C723 1.391 . S
C724 C725 1.399 . S
C725 C724 1.399 . S
C725 C728 1.396 . S
C725 C737 1.453 . S
C725 C738 1.684 . S
H726 C750 0.948 . S
C727 C723 1.397 . S
C727 C728 1.394 . S
C727 C746 1.723 . S
C728 C725 1.396 . S
C728 C727 1.394 . S
C728 C758 1.723 . S
H729 C752 0.947 . S
H730 C753 0.948 . S
H731 C759 0.982 . S
H732 C760 0.979 . S
H733 C760 0.980 . S
H734 C760 0.983 . S
H735 C759 0.979 . S
H736 C759 0.977 . S
C737 C725 1.453 . S
C737 H766 0.982 . S
C737 H767 0.979 . S
C737 H768 0.977 . S
C738 C725 1.684 . S
C738 H763 0.979 . S
C738 H764 0.980 . S
C738 H765 0.983 . S
C739 C740 1.391 . S
C739 C744 1.391 . S
C739 H769 0.948 . S
C740 C739 1.391 . S
C740 C741 1.391 . S
C741 C740 1.391 . S
C741 C742 1.392 . S
C741 H770 0.947 . S
C742 C741 1.392 . S
C742 C743 1.419 . S
C742 H771 0.948 . S
C743 C742 1.419 . S
C743 C744 1.391 . S
C743 C747 1.397 . S
C744 C739 1.391 . S
C744 C743 1.391 . S
C744 C745 1.399 . S
C745 C744 1.399 . S
C745 C746 1.396 . S
C745 C748 1.453 . S
C745 C749 1.684 . S
C746 C727 1.723 . S
C746 C745 1.396 . S
C746 C747 1.394 . S
C747 C743 1.397 . S
C747 C746 1.394 . S
C747 C757 1.723 . S
C748 C745 1.453 . S
C748 H772 0.982 . S
C748 H773 0.979 . S
C748 H774 0.977 . S
C749 C745 1.684 . S
C749 H775 0.979 . S
C749 H776 0.980 . S
C749 H777 0.983 . S
C750 H726 0.948 . S
C750 C751 1.391 . S
C750 C755 1.391 . S
C751 C750 1.391 . S
C751 C752 1.391 . S
C752 H729 0.947 . S
C752 C751 1.391 . S
C752 C753 1.392 . S
C753 H730 0.948 . S
C753 C752 1.392 . S
C753 C754 1.419 . S
C754 C753 1.419 . S
C754 C755 1.391 . S
C754 C758 1.397 . S
C755 C750 1.391 . S
C755 C754 1.391 . S
C755 C756 1.399 . S
C756 C755 1.399 . S
C756 C757 1.396 . S
C756 C759 1.453 . S
C756 C760 1.684 . S
C757 C747 1.723 . S
C757 C756 1.396 . S
C757 C758 1.394 . S
C758 C728 1.723 . S
C758 C754 1.397 . S
C758 C757 1.394 . S
C759 H731 0.982 . S
C759 H735 0.979 . S
C759 H736 0.977 . S
C759 C756 1.453 . S
C760 H732 0.979 . S
C760 H733 0.980 . S
C760 H734 0.983 . S
C760 C756 1.684 . S
H761 C779 0.948 . S
H762 C720 0.948 . S
H763 C738 0.979 . S
H764 C738 0.980 . S
H765 C738 0.983 . S
H766 C737 0.982 . S
H767 C737 0.979 . S
H768 C737 0.977 . S
H769 C739 0.948 . S
H770 C741 0.947 . S
H771 C742 0.948 . S
H772 C748 0.982 . S
H773 C748 0.979 . S
H774 C748 0.977 . S
H775 C749 0.979 . S
H776 C749 0.980 . S
H777 C749 0.983 . S
H778 C722 0.947 . S
C779 C722 1.392 . S
C779 C723 1.419 . S
C779 H761 0.948 . S
C780 C781 1.391 . S
C780 C784 1.391 . S
C780 H822 0.948 . S
C781 C780 1.391 . S
C781 C782 1.391 . S
C782 C781 1.391 . S
C782 H838 0.947 . S
C782 C839 1.392 . S
C783 C784 1.391 . S
C783 C787 1.397 . S
C783 C839 1.419 . S
C784 C780 1.391 . S
C784 C783 1.391 . S
C784 C785 1.399 . S
C785 C784 1.399 . S
C785 C788 1.396 . S
C785 C797 1.453 . S
C785 C798 1.684 . S
H786 C810 0.948 . S
C787 C783 1.397 . S
C787 C788 1.394 . S
C787 C806 1.723 . S
C788 C785 1.396 . S
C788 C787 1.394 . S
C788 C818 1.723 . S
H789 C812 0.947 . S
H790 C813 0.948 . S
H791 C819 0.982 . S
H792 C820 0.979 . S
H793 C820 0.980 . S
H794 C820 0.983 . S
H795 C819 0.979 . S
H796 C819 0.977 . S
C797 C785 1.453 . S
C797 H826 0.982 . S
C797 H827 0.979 . S
C797 H828 0.977 . S
C798 C785 1.684 . S
C798 H823 0.979 . S
C798 H824 0.980 . S
C798 H825 0.983 . S
C799 C800 1.391 . S
C799 C804 1.391 . S
C799 H829 0.948 . S
C800 C799 1.391 . S
C800 C801 1.391 . S
C801 C800 1.391 . S
C801 C802 1.392 . S
C801 H830 0.947 . S
C802 C801 1.392 . S
C802 C803 1.419 . S
C802 H831 0.948 . S
C803 C802 1.419 . S
C803 C804 1.391 . S
C803 C807 1.397 . S
C804 C799 1.391 . S
C804 C803 1.391 . S
C804 C805 1.399 . S
C805 C804 1.399 . S
C805 C806 1.396 . S
C805 C808 1.453 . S
C805 C809 1.684 . S
C806 C787 1.723 . S
C806 C805 1.396 . S
C806 C807 1.394 . S
C807 C803 1.397 . S
C807 C806 1.394 . S
C807 C817 1.723 . S
C808 C805 1.453 . S
C808 H832 0.982 . S
C808 H833 0.979 . S
C808 H834 0.977 . S
C809 C805 1.684 . S
C809 H835 0.979 . S
C809 H836 0.980 . S
C809 H837 0.983 . S
C810 H786 0.948 . S
C810 C811 1.391 . S
C810 C815 1.391 . S
C811 C810 1.391 . S
C811 C812 1.391 . S
C812 H789 0.947 . S
C812 C811 1.391 . S
C812 C813 1.392 . S
C813 H790 0.948 . S
C813 C812 1.392 . S
C813 C814 1.419 . S
C814 C813 1.419 . S
C814 C815 1.391 . S
C814 C818 1.397 . S
C815 C810 1.391 . S
C815 C814 1.391 . S
C815 C816 1.399 . S
C816 C815 1.399 . S
C816 C817 1.396 . S
C816 C819 1.453 . S
C816 C820 1.684 . S
C817 C807 1.723 . S
C817 C816 1.396 . S
C817 C818 1.394 . S
C818 C788 1.723 . S
C818 C814 1.397 . S
C818 C817 1.394 . S
C819 H791 0.982 . S
C819 H795 0.979 . S
C819 H796 0.977 . S
C819 C816 1.453 . S
C820 H792 0.979 . S
C820 H793 0.980 . S
C820 H794 0.983 . S
C820 C816 1.684 . S
H821 C839 0.948 . S
H822 C780 0.948 . S
H823 C798 0.979 . S
H824 C798 0.980 . S
H825 C798 0.983 . S
H826 C797 0.982 . S
H827 C797 0.979 . S
H828 C797 0.977 . S
H829 C799 0.948 . S
H830 C801 0.947 . S
H831 C802 0.948 . S
H832 C808 0.982 . S
H833 C808 0.979 . S
H834 C808 0.977 . S
H835 C809 0.979 . S
H836 C809 0.980 . S
H837 C809 0.983 . S
H838 C782 0.947 . S
C839 C782 1.392 . S
C839 C783 1.419 . S
C839 H821 0.948 . S
C840 C841 1.391 . S
C840 C844 1.391 . S
C840 H882 0.948 . S
C841 C840 1.391 . S
C841 C842 1.391 . S
C842 C841 1.391 . S
C842 H898 0.947 . S
C842 C899 1.392 . S
C843 C844 1.391 . S
C843 C847 1.397 . S
C843 C899 1.419 . S
C844 C840 1.391 . S
C844 C843 1.391 . S
C844 C845 1.399 . S
C845 C844 1.399 . S
C845 C848 1.396 . S
C845 C857 1.453 . S
C845 C858 1.684 . S
H846 C870 0.948 . S
C847 C843 1.397 . S
C847 C848 1.394 . S
C847 C866 1.723 . S
C848 C845 1.396 . S
C848 C847 1.394 . S
C848 C878 1.723 . S
H849 C872 0.947 . S
H850 C873 0.948 . S
H851 C879 0.982 . S
H852 C880 0.979 . S
H853 C880 0.980 . S
H854 C880 0.983 . S
H855 C879 0.979 . S
H856 C879 0.977 . S
C857 C845 1.453 . S
C857 H886 0.982 . S
C857 H887 0.979 . S
C857 H888 0.977 . S
C858 C845 1.684 . S
C858 H883 0.979 . S
C858 H884 0.980 . S
C858 H885 0.983 . S
C859 C860 1.391 . S
C859 C864 1.391 . S
C859 H889 0.948 . S
C860 C859 1.391 . S
C860 C861 1.391 . S
C861 C860 1.391 . S
C861 C862 1.392 . S
C861 H890 0.947 . S
C862 C861 1.392 . S
C862 C863 1.419 . S
C862 H891 0.948 . S
C863 C862 1.419 . S
C863 C864 1.391 . S
C863 C867 1.397 . S
C864 C859 1.391 . S
C864 C863 1.391 . S
C864 C865 1.399 . S
C865 C864 1.399 . S
C865 C866 1.396 . S
C865 C868 1.453 . S
C865 C869 1.684 . S
C866 C847 1.723 . S
C866 C865 1.396 . S
C866 C867 1.394 . S
C867 C863 1.397 . S
C867 C866 1.394 . S
C867 C877 1.723 . S
C868 C865 1.453 . S
C868 H892 0.982 . S
C868 H893 0.979 . S
C868 H894 0.977 . S
C869 C865 1.684 . S
C869 H895 0.979 . S
C869 H896 0.980 . S
C869 H897 0.983 . S
C870 H846 0.948 . S
C870 C871 1.391 . S
C870 C875 1.391 . S
C871 C870 1.391 . S
C871 C872 1.391 . S
C872 H849 0.947 . S
C872 C871 1.391 . S
C872 C873 1.392 . S
C873 H850 0.948 . S
C873 C872 1.392 . S
C873 C874 1.419 . S
C874 C873 1.419 . S
C874 C875 1.391 . S
C874 C878 1.397 . S
C875 C870 1.391 . S
C875 C874 1.391 . S
C875 C876 1.399 . S
C876 C875 1.399 . S
C876 C877 1.396 . S
C876 C879 1.453 . S
C876 C880 1.684 . S
C877 C867 1.723 . S
C877 C876 1.396 . S
C877 C878 1.394 . S
C878 C848 1.723 . S
C878 C874 1.397 . S
C878 C877 1.394 . S
C879 H851 0.982 . S
C879 H855 0.979 . S
C879 H856 0.977 . S
C879 C876 1.453 . S
C880 H852 0.979 . S
C880 H853 0.980 . S
C880 H854 0.983 . S
C880 C876 1.684 . S
H881 C899 0.948 . S
H882 C840 0.948 . S
H883 C858 0.979 . S
H884 C858 0.980 . S
H885 C858 0.983 . S
H886 C857 0.982 . S
H887 C857 0.979 . S
H888 C857 0.977 . S
H889 C859 0.948 . S
H890 C861 0.947 . S
H891 C862 0.948 . S
H892 C868 0.982 . S
H893 C868 0.979 . S
H894 C868 0.977 . S
H895 C869 0.979 . S
H896 C869 0.980 . S
H897 C869 0.983 . S
H898 C842 0.947 . S
C899 C842 1.392 . S
C899 C843 1.419 . S
C899 H881 0.948 . S
C900 C901 1.391 . S
C900 C904 1.391 . S
C900 H942 0.948 . S
C901 C900 1.391 . S
C901 C902 1.391 . S
C902 C901 1.391 . S
C902 H958 0.947 . S
C902 C959 1.392 . S
C903 C904 1.391 . S
C903 C907 1.397 . S
C903 C959 1.419 . S
C904 C900 1.391 . S
C904 C903 1.391 . S
C904 C905 1.399 . S
C905 C904 1.399 . S
C905 C908 1.396 . S
C905 C917 1.453 . S
C905 C918 1.684 . S
H906 C930 0.948 . S
C907 C903 1.397 . S
C907 C908 1.394 . S
C907 C926 1.723 . S
C908 C905 1.396 . S
C908 C907 1.394 . S
C908 C938 1.723 . S
H909 C932 0.947 . S
H910 C933 0.948 . S
H911 C939 0.982 . S
H912 C940 0.979 . S
H913 C940 0.980 . S
H914 C940 0.983 . S
H915 C939 0.979 . S
H916 C939 0.977 . S
C917 C905 1.453 . S
C917 H946 0.982 . S
C917 H947 0.979 . S
C917 H948 0.977 . S
C918 C905 1.684 . S
C918 H943 0.979 . S
C918 H944 0.980 . S
C918 H945 0.983 . S
C919 C920 1.391 . S
C919 C924 1.391 . S
C919 H949 0.948 . S
C920 C919 1.391 . S
C920 C921 1.391 . S
C921 C920 1.391 . S
C921 C922 1.392 . S
C921 H950 0.947 . S
C922 C921 1.392 . S
C922 C923 1.419 . S
C922 H951 0.948 . S
C923 C922 1.419 . S
C923 C924 1.391 . S
C923 C927 1.397 . S
C924 C919 1.391 . S
C924 C923 1.391 . S
C924 C925 1.399 . S
C925 C924 1.399 . S
C925 C926 1.396 . S
C925 C928 1.453 . S
C925 C929 1.684 . S
C926 C907 1.723 . S
C926 C925 1.396 . S
C926 C927 1.394 . S
C927 C923 1.397 . S
C927 C926 1.394 . S
C927 C937 1.723 . S
C928 C925 1.453 . S
C928 H952 0.982 . S
C928 H953 0.979 . S
C928 H954 0.977 . S
C929 C925 1.684 . S
C929 H955 0.979 . S
C929 H956 0.980 . S
C929 H957 0.983 . S
C930 H906 0.948 . S
C930 C931 1.391 . S
C930 C935 1.391 . S
C931 C930 1.391 . S
C931 C932 1.391 . S
C932 H909 0.947 . S
C932 C931 1.391 . S
C932 C933 1.392 . S
C933 H910 0.948 . S
C933 C932 1.392 . S
C933 C934 1.419 . S
C934 C933 1.419 . S
C934 C935 1.391 . S
C934 C938 1.397 . S
C935 C930 1.391 . S
C935 C934 1.391 . S
C935 C936 1.399 . S
C936 C935 1.399 . S
C936 C937 1.396 . S
C936 C939 1.453 . S
C936 C940 1.684 . S
C937 C927 1.723 . S
C937 C936 1.396 . S
C937 C938 1.394 . S
C938 C908 1.723 . S
C938 C934 1.397 . S
C938 C937 1.394 . S
C939 H911 0.982 . S
C939 H915 0.979 . S
C939 H916 0.977 . S
C939 C936 1.453 . S
C940 H912 0.979 . S
C940 H913 0.980 . S
C940 H914 0.983 . S
C940 C936 1.684 . S
H941 C959 0.948 . S
H942 C900 0.948 . S
H943 C918 0.979 . S
H944 C918 0.980 . S
H945 C918 0.983 . S
H946 C917 0.982 . S
H947 C917 0.979 . S
H948 C917 0.977 . S
H949 C919 0.948 . S
H950 C921 0.947 . S
H951 C922 0.948 . S
H952 C928 0.982 . S
H953 C928 0.979 . S
H954 C928 0.977 . S
H955 C929 0.979 . S
H956 C929 0.980 . S
H957 C929 0.983 . S
H958 C902 0.947 . S
C959 C902 1.392 . S
C959 C903 1.419 . S
C959 H941 0.948 . S
C960 C961 1.391 . S
C960 C964 1.391 . S
C960 H1002 0.948 . S
C961 C960 1.391 . S
C961 C962 1.391 . S
C962 C961 1.391 . S
C962 H1018 0.947 . S
C962 C1019 1.392 . S
C963 C964 1.391 . S
C963 C967 1.397 . S
C963 C1019 1.419 . S
C964 C960 1.391 . S
C964 C963 1.391 . S
C964 C965 1.399 . S
C965 C964 1.399 . S
C965 C968 1.396 . S
C965 C977 1.453 . S
C965 C978 1.684 . S
H966 C990 0.948 . S
C967 C963 1.397 . S
C967 C968 1.394 . S
C967 C986 1.723 . S
C968 C965 1.396 . S
C968 C967 1.394 . S
C968 C998 1.723 . S
H969 C992 0.947 . S
H970 C993 0.948 . S
H971 C999 0.982 . S
H972 C1000 0.979 . S
H973 C1000 0.980 . S
H974 C1000 0.983 . S
H975 C999 0.979 . S
H976 C999 0.977 . S
C977 C965 1.453 . S
C977 H1006 0.982 . S
C977 H1007 0.979 . S
C977 H1008 0.977 . S
C978 C965 1.684 . S
C978 H1003 0.979 . S
C978 H1004 0.980 . S
C978 H1005 0.983 . S
C979 C980 1.391 . S
C979 C984 1.391 . S
C979 H1009 0.948 . S
C980 C979 1.391 . S
C980 C981 1.391 . S
C981 C980 1.391 . S
C981 C982 1.392 . S
C981 H1010 0.947 . S
C982 C981 1.392 . S
C982 C983 1.419 . S
C982 H1011 0.948 . S
C983 C982 1.419 . S
C983 C984 1.391 . S
C983 C987 1.397 . S
C984 C979 1.391 . S
C984 C983 1.391 . S
C984 C985 1.399 . S
C985 C984 1.399 . S
C985 C986 1.396 . S
C985 C988 1.453 . S
C985 C989 1.684 . S
C986 C967 1.723 . S
C986 C985 1.396 . S
C986 C987 1.394 . S
C987 C983 1.397 . S
C987 C986 1.394 . S
C987 C997 1.723 . S
C988 C985 1.453 . S
C988 H1012 0.982 . S
C988 H1013 0.979 . S
C988 H1014 0.977 . S
C989 C985 1.684 . S
C989 H1015 0.979 . S
C989 H1016 0.980 . S
C989 H1017 0.983 . S
C990 H966 0.948 . S
C990 C991 1.391 . S
C990 C995 1.391 . S
C991 C990 1.391 . S
C991 C992 1.391 . S
C992 H969 0.947 . S
C992 C991 1.391 . S
C992 C993 1.392 . S
C993 H970 0.948 . S
C993 C992 1.392 . S
C993 C994 1.419 . S
C994 C993 1.419 . S
C994 C995 1.391 . S
C994 C998 1.397 . S
C995 C990 1.391 . S
C995 C994 1.391 . S
C995 C996 1.399 . S
C996 C995 1.399 . S
C996 C997 1.396 . S
C996 C999 1.453 . S
C996 C1000 1.684 . S
C997 C987 1.723 . S
C997 C996 1.396 . S
C997 C998 1.394 . S
C998 C968 1.723 . S
C998 C994 1.397 . S
C998 C997 1.394 . S
C999 H971 0.982 . S
C999 H975 0.979 . S
C999 H976 0.977 . S
C999 C996 1.453 . S
C1000 H972 0.979 . S
C1000 H973 0.980 . S
C1000 H974 0.983 . S
C1000 C996 1.684 . S
H1001 C1019 0.948 . S
H1002 C960 0.948 . S
H1003 C978 0.979 . S
H1004 C978 0.980 . S
H1005 C978 0.983 . S
H1006 C977 0.982 . S
H1007 C977 0.979 . S
H1008 C977 0.977 . S
H1009 C979 0.948 . S
H1010 C981 0.947 . S
H1011 C982 0.948 . S
H1012 C988 0.982 . S
H1013 C988 0.979 . S
H1014 C988 0.977 . S
H1015 C989 0.979 . S
H1016 C989 0.980 . S
H1017 C989 0.983 . S
H1018 C962 0.947 . S
C1019 C962 1.392 . S
C1019 C963 1.419 . S
C1019 H1001 0.948 . S
C1020 C1021 1.391 . S
C1020 C1024 1.391 . S
C1020 H1062 0.948 . S
C1021 C1020 1.391 . S
C1021 C1022 1.391 . S
C1022 C1021 1.391 . S
C1022 H1078 0.947 . S
C1022 C1079 1.392 . S
C1023 C1024 1.391 . S
C1023 C1027 1.397 . S
C1023 C1079 1.419 . S
C1024 C1020 1.391 . S
C1024 C1023 1.391 . S
C1024 C1025 1.399 . S
C1025 C1024 1.399 . S
C1025 C1028 1.396 . S
C1025 C1037 1.453 . S
C1025 C1038 1.684 . S
H1026 C1050 0.948 . S
C1027 C1023 1.397 . S
C1027 C1028 1.394 . S
C1027 C1046 1.723 . S
C1028 C1025 1.396 . S
C1028 C1027 1.394 . S
C1028 C1058 1.723 . S
H1029 C1052 0.947 . S
H1030 C1053 0.948 . S
H1031 C1059 0.982 . S
H1032 C1060 0.979 . S
H1033 C1060 0.980 . S
H1034 C1060 0.983 . S
H1035 C1059 0.979 . S
H1036 C1059 0.977 . S
C1037 C1025 1.453 . S
C1037 H1066 0.982 . S
C1037 H1067 0.979 . S
C1037 H1068 0.977 . S
C1038 C1025 1.684 . S
C1038 H1063 0.979 . S
C1038 H1064 0.980 . S
C1038 H1065 0.983 . S
C1039 C1040 1.391 . S
C1039 C1044 1.391 . S
C1039 H1069 0.948 . S
C1040 C1039 1.391 . S
C1040 C1041 1.391 . S
C1041 C1040 1.391 . S
C1041 C1042 1.392 . S
C1041 H1070 0.947 . S
C1042 C1041 1.392 . S
C1042 C1043 1.419 . S
C1042 H1071 0.948 . S
C1043 C1042 1.419 . S
C1043 C1044 1.391 . S
C1043 C1047 1.397 . S
C1044 C1039 1.391 . S
C1044 C1043 1.391 . S
C1044 C1045 1.399 . S
C1045 C1044 1.399 . S
C1045 C1046 1.396 . S
C1045 C1048 1.453 . S
C1045 C1049 1.684 . S
C1046 C1027 1.723 . S
C1046 C1045 1.396 . S
C1046 C1047 1.394 . S
C1047 C1043 1.397 . S
C1047 C1046 1.394 . S
C1047 C1057 1.723 . S
C1048 C1045 1.453 . S
C1048 H1072 0.982 . S
C1048 H1073 0.979 . S
C1048 H1074 0.977 . S
C1049 C1045 1.684 . S
C1049 H1075 0.979 . S
C1049 H1076 0.980 . S
C1049 H1077 0.983 . S
C1050 H1026 0.948 . S
C1050 C1051 1.391 . S
C1050 C1055 1.391 . S
C1051 C1050 1.391 . S
C1051 C1052 1.391 . S
C1052 H1029 0.947 . S
C1052 C1051 1.391 . S
C1052 C1053 1.392 . S
C1053 H1030 0.948 . S
C1053 C1052 1.392 . S
C1053 C1054 1.419 . S
C1054 C1053 1.419 . S
C1054 C1055 1.391 . S
C1054 C1058 1.397 . S
C1055 C1050 1.391 . S
C1055 C1054 1.391 . S
C1055 C1056 1.399 . S
C1056 C1055 1.399 . S
C1056 C1057 1.396 . S
C1056 C1059 1.453 . S
C1056 C1060 1.684 . S
C1057 C1047 1.723 . S
C1057 C1056 1.396 . S
C1057 C1058 1.394 . S
C1058 C1028 1.723 . S
C1058 C1054 1.397 . S
C1058 C1057 1.394 . S
C1059 H1031 0.982 . S
C1059 H1035 0.979 . S
C1059 H1036 0.977 . S
C1059 C1056 1.453 . S
C1060 H1032 0.979 . S
C1060 H1033 0.980 . S
C1060 H1034 0.983 . S
C1060 C1056 1.684 . S
H1061 C1079 0.948 . S
H1062 C1020 0.948 . S
H1063 C1038 0.979 . S
H1064 C1038 0.980 . S
H1065 C1038 0.983 . S
H1066 C1037 0.982 . S
H1067 C1037 0.979 . S
H1068 C1037 0.977 . S
H1069 C1039 0.948 . S
H1070 C1041 0.947 . S
H1071 C1042 0.948 . S
H1072 C1048 0.982 . S
H1073 C1048 0.979 . S
H1074 C1048 0.977 . S
H1075 C1049 0.979 . S
H1076 C1049 0.980 . S
H1077 C1049 0.983 . S
H1078 C1022 0.947 . S
C1079 C1022 1.392 . S
C1079 C1023 1.419 . S
C1079 H1061 0.948 . S
Tb1080 O1083 2.453 . S
Tb1080 O1084 2.596 1_545 S
Tb1080 O1085 2.374 1_545 S
Tb1080 O1093 2.343 1_554 S
Tb1080 O1095 2.353 . S
Tb1080 O1097 2.427 1_554 S
Tb1080 O1098 2.513 1_554 S
C1081 O1085 1.251 . S
C1081 O1087 1.263 1_554 S
Tb1082 O1084 2.343 1_556 S
Tb1082 O1087 2.353 . S
Tb1082 O1090 2.427 1_556 S
Tb1082 O1091 2.513 1_556 S
Tb1082 O1092 2.453 . S
Tb1082 O1093 2.596 1_565 S
Tb1082 O1094 2.374 1_565 S
O1083 Tb1080 2.453 . S
O1083 C1099 1.245 . S
O1084 Tb1080 2.596 1_565 S
O1084 Tb1082 2.343 1_554 S
O1084 C1099 1.259 1_565 S
O1085 Tb1080 2.374 1_565 S
O1085 C1081 1.251 . S
C1086 O1090 1.275 . S
C1086 O1091 1.246 . S
O1087 C1081 1.263 1_556 S
O1087 Tb1082 2.353 . S
C1088 O1092 1.245 . S
C1088 O1093 1.259 1_565 S
C1089 O1094 1.250 . S
C1089 O1095 1.263 1_556 S
O1090 Tb1082 2.427 1_554 S
O1090 C1086 1.275 . S
O1091 Tb1082 2.513 1_554 S
O1091 C1086 1.246 . S
O1092 Tb1082 2.453 . S
O1092 C1088 1.245 . S
O1093 Tb1080 2.343 1_556 S
O1093 Tb1082 2.596 1_545 S
O1093 C1088 1.259 1_545 S
O1094 Tb1082 2.374 1_545 S
O1094 C1089 1.250 . S
O1095 Tb1080 2.353 . S
O1095 C1089 1.263 1_554 S
C1096 O1097 1.275 . S
C1096 O1098 1.246 . S
O1097 Tb1080 2.427 1_556 S
O1097 C1096 1.275 . S
O1098 Tb1080 2.513 1_556 S
O1098 C1096 1.246 . S
C1099 O1083 1.245 . S
C1099 O1084 1.259 1_545 S
Tb1100 O1103 2.453 . S
Tb1100 O1104 2.596 1_655 S
Tb1100 O1105 2.374 1_655 S
Tb1100 O1113 2.343 1_554 S
Tb1100 O1115 2.346 1_554 S
Tb1100 O1117 2.427 1_554 S
Tb1100 O1118 2.513 1_554 S
C1101 O1105 1.251 . S
C1101 O1107 1.263 . S
Tb1102 O1104 2.343 1_556 S
Tb1102 O1107 2.353 1_556 S
Tb1102 O1110 2.427 1_556 S
Tb1102 O1111 2.513 1_556 S
Tb1102 O1112 2.453 . S
Tb1102 O1113 2.596 1_455 S
Tb1102 O1114 2.374 1_455 S
O1103 Tb1100 2.453 . S
O1103 C1119 1.245 1_655 S
O1104 Tb1100 2.596 1_455 S
O1104 Tb1102 2.343 1_554 S
O1104 C1119 1.259 . S
O1105 Tb1100 2.374 1_455 S
O1105 C1101 1.251 . S
C1106 O1110 1.275 . S
C1106 O1111 1.246 . S
O1107 C1101 1.263 . S
O1107 Tb1102 2.353 1_554 S
C1108 O1112 1.195 1_655 S
C1108 O1113 1.279 . S
C1109 O1114 1.250 . S
C1109 O1115 1.288 . S
O1110 Tb1102 2.427 1_554 S
O1110 C1106 1.275 . S
O1111 Tb1102 2.513 1_554 S
O1111 C1106 1.246 . S
O1112 Tb1102 2.453 . S
O1112 C1108 1.195 1_455 S
O1113 Tb1100 2.343 1_556 S
O1113 Tb1102 2.596 1_655 S
O1113 C1108 1.279 . S
O1114 Tb1102 2.374 1_655 S
O1114 C1109 1.250 . S
O1115 Tb1100 2.346 1_556 S
O1115 C1109 1.288 . S
C1116 O1117 1.275 . S
C1116 O1118 1.246 . S
O1117 Tb1100 2.427 1_556 S
O1117 C1116 1.275 . S
O1118 Tb1100 2.513 1_556 S
O1118 C1116 1.246 . S
C1119 O1103 1.245 1_455 S
C1119 O1104 1.259 . S
Tb1120 O1123 2.453 . S
Tb1120 O1124 2.596 . S
Tb1120 O1125 2.374 . S
Tb1120 O1133 2.343 1_556 S
Tb1120 O1135 2.353 1_556 S
Tb1120 O1137 2.427 1_556 S
Tb1120 O1138 2.513 1_556 S
C1121 O1125 1.251 . S
C1121 O1127 1.263 1_556 S
Tb1122 O1124 2.343 1_554 S
Tb1122 O1127 2.353 . S
Tb1122 O1130 2.427 1_554 S
Tb1122 O1131 2.513 1_554 S
Tb1122 O1132 2.453 . S
Tb1122 O1133 2.596 . S
Tb1122 O1134 2.374 . S
O1123 Tb1120 2.453 . S
O1123 C1139 1.245 . S
O1124 Tb1120 2.596 . S
O1124 Tb1122 2.343 1_556 S
O1124 C1139 1.259 . S
O1125 Tb1120 2.374 . S
O1125 C1121 1.251 . S
C1126 O1130 1.275 . S
C1126 O1131 1.246 . S
O1127 C1121 1.263 1_554 S
O1127 Tb1122 2.353 . S
C1128 O1132 1.245 . S
C1128 O1133 1.259 . S
C1129 O1134 1.250 . S
C1129 O1135 1.263 . S
O1130 Tb1122 2.427 1_556 S
O1130 C1126 1.275 . S
O1131 Tb1122 2.513 1_556 S
O1131 C1126 1.246 . S
O1132 Tb1122 2.453 . S
O1132 C1128 1.245 . S
O1133 Tb1120 2.343 1_554 S
O1133 Tb1122 2.596 . S
O1133 C1128 1.259 . S
O1134 Tb1122 2.374 . S
O1134 C1129 1.250 . S
O1135 Tb1120 2.353 1_554 S
O1135 C1129 1.263 . S
C1136 O1137 1.275 . S
C1136 O1138 1.246 . S
O1137 Tb1120 2.427 1_554 S
O1137 C1136 1.275 . S
O1138 Tb1120 2.513 1_554 S
O1138 C1136 1.246 . S
C1139 O1123 1.245 . S
C1139 O1124 1.259 . S
Tb1140 O1143 2.453 . S
Tb1140 O1144 2.596 . S
Tb1140 O1145 2.374 . S
Tb1140 O1153 2.343 . S
Tb1140 O1155 2.353 . S
Tb1140 O1157 2.427 . S
Tb1140 O1158 2.513 . S
C1141 O1145 1.251 . S
C1141 O1147 1.263 . S
Tb1142 O1144 2.343 . S
Tb1142 O1147 2.353 . S
Tb1142 O1150 2.427 . S
Tb1142 O1151 2.513 . S
Tb1142 O1152 2.453 . S
Tb1142 O1153 2.596 . S
Tb1142 O1154 2.374 . S
O1143 Tb1140 2.453 . S
O1143 C1159 1.245 . S
O1144 Tb1140 2.596 . S
O1144 Tb1142 2.343 . S
O1144 C1159 1.259 . S
O1145 Tb1140 2.374 . S
O1145 C1141 1.251 . S
C1146 O1150 1.275 . S
C1146 O1151 1.246 . S
O1147 C1141 1.263 . S
O1147 Tb1142 2.353 . S
C1148 O1152 1.245 . S
C1148 O1153 1.259 . S
C1149 O1154 1.250 . S
C1149 O1155 1.263 . S
O1150 Tb1142 2.427 . S
O1150 C1146 1.275 . S
O1151 Tb1142 2.513 . S
O1151 C1146 1.246 . S
O1152 Tb1142 2.453 . S
O1152 C1148 1.245 . S
O1153 Tb1140 2.343 . S
O1153 Tb1142 2.596 . S
O1153 C1148 1.259 . S
O1154 Tb1142 2.374 . S
O1154 C1149 1.250 . S
O1155 Tb1140 2.353 . S
O1155 C1149 1.263 . S
C1156 O1157 1.275 . S
C1156 O1158 1.246 . S
O1157 Tb1140 2.427 . S
O1157 C1156 1.275 . S
O1158 Tb1140 2.513 . S
O1158 C1156 1.246 . S
C1159 O1143 1.245 . S
C1159 O1144 1.259 . S
Tb1160 O1163 2.453 . S
Tb1160 O1164 2.596 . S
Tb1160 O1165 2.374 . S
Tb1160 O1173 2.343 . S
Tb1160 O1175 2.353 . S
Tb1160 O1177 2.427 . S
Tb1160 O1178 2.513 . S
C1161 O1165 1.251 . S
C1161 O1167 1.263 . S
Tb1162 O1164 2.343 . S
Tb1162 O1167 2.353 . S
Tb1162 O1170 2.427 . S
Tb1162 O1171 2.513 . S
Tb1162 O1172 2.453 . S
Tb1162 O1173 2.596 . S
Tb1162 O1174 2.374 . S
O1163 Tb1160 2.453 . S
O1163 C1179 1.245 . S
O1164 Tb1160 2.596 . S
O1164 Tb1162 2.343 . S
O1164 C1179 1.259 . S
O1165 Tb1160 2.374 . S
O1165 C1161 1.251 . S
C1166 O1170 1.275 . S
C1166 O1171 1.246 . S
O1167 C1161 1.263 . S
O1167 Tb1162 2.353 . S
C1168 O1172 1.245 . S
C1168 O1173 1.259 . S
C1169 O1174 1.250 . S
C1169 O1175 1.263 . S
O1170 Tb1162 2.427 . S
O1170 C1166 1.275 . S
O1171 Tb1162 2.513 . S
O1171 C1166 1.246 . S
O1172 Tb1162 2.453 . S
O1172 C1168 1.245 . S
O1173 Tb1160 2.343 . S
O1173 Tb1162 2.596 . S
O1173 C1168 1.259 . S
O1174 Tb1162 2.374 . S
O1174 C1169 1.250 . S
O1175 Tb1160 2.353 . S
O1175 C1169 1.263 . S
C1176 O1177 1.275 . S
C1176 O1178 1.246 . S
O1177 Tb1160 2.427 . S
O1177 C1176 1.275 . S
O1178 Tb1160 2.513 . S
O1178 C1176 1.246 . S
C1179 O1163 1.245 . S
C1179 O1164 1.259 . S
Tb1180 O1183 2.453 . S
Tb1180 O1184 2.596 . S
Tb1180 O1185 2.374 . S
Tb1180 O1193 2.343 . S
Tb1180 O1195 2.353 . S
Tb1180 O1197 2.427 . S
Tb1180 O1198 2.513 . S
C1181 O1185 1.251 . S
C1181 O1187 1.263 . S
Tb1182 O1184 2.343 . S
Tb1182 O1187 2.353 . S
Tb1182 O1190 2.427 . S
Tb1182 O1191 2.513 . S
Tb1182 O1192 2.453 . S
Tb1182 O1193 2.596 . S
Tb1182 O1194 2.374 . S
O1183 Tb1180 2.453 . S
O1183 C1199 1.245 . S
O1184 Tb1180 2.596 . S
O1184 Tb1182 2.343 . S
O1184 C1199 1.259 . S
O1185 Tb1180 2.374 . S
O1185 C1181 1.251 . S
C1186 O1190 1.275 . S
C1186 O1191 1.246 . S
O1187 C1181 1.263 . S
O1187 Tb1182 2.353 . S
C1188 O1192 1.245 . S
C1188 O1193 1.259 . S
C1189 O1194 1.250 . S
C1189 O1195 1.263 . S
O1190 Tb1182 2.427 . S
O1190 C1186 1.275 . S
O1191 Tb1182 2.513 . S
O1191 C1186 1.246 . S
O1192 Tb1182 2.453 . S
O1192 C1188 1.245 . S
O1193 Tb1180 2.343 . S
O1193 Tb1182 2.596 . S
O1193 C1188 1.259 . S
O1194 Tb1182 2.374 . S
O1194 C1189 1.250 . S
O1195 Tb1180 2.353 . S
O1195 C1189 1.263 . S
C1196 O1197 1.275 . S
C1196 O1198 1.246 . S
O1197 Tb1180 2.427 . S
O1197 C1196 1.275 . S
O1198 Tb1180 2.513 . S
O1198 C1196 1.246 . S
C1199 O1183 1.245 . S
C1199 O1184 1.259 . S
Tb1200 O1203 2.453 . S
Tb1200 O1204 2.596 . S
Tb1200 O1205 2.374 . S
Tb1200 O1213 2.343 . S
Tb1200 O1215 2.353 . S
Tb1200 O1217 2.427 . S
Tb1200 O1218 2.513 . S
C1201 O1205 1.251 . S
C1201 O1207 1.263 . S
Tb1202 O1204 2.343 . S
Tb1202 O1207 2.353 . S
Tb1202 O1210 2.427 . S
Tb1202 O1211 2.513 . S
Tb1202 O1212 2.453 . S
Tb1202 O1213 2.596 . S
Tb1202 O1214 2.374 . S
O1203 Tb1200 2.453 . S
O1203 C1219 1.245 . S
O1204 Tb1200 2.596 . S
O1204 Tb1202 2.343 . S
O1204 C1219 1.259 . S
O1205 Tb1200 2.374 . S
O1205 C1201 1.251 . S
C1206 O1210 1.275 . S
C1206 O1211 1.246 . S
O1207 C1201 1.263 . S
O1207 Tb1202 2.353 . S
C1208 O1212 1.245 . S
C1208 O1213 1.259 . S
C1209 O1214 1.250 . S
C1209 O1215 1.263 . S
O1210 Tb1202 2.427 . S
O1210 C1206 1.275 . S
O1211 Tb1202 2.513 . S
O1211 C1206 1.246 . S
O1212 Tb1202 2.453 . S
O1212 C1208 1.245 . S
O1213 Tb1200 2.343 . S
O1213 Tb1202 2.596 . S
O1213 C1208 1.259 . S
O1214 Tb1202 2.374 . S
O1214 C1209 1.250 . S
O1215 Tb1200 2.353 . S
O1215 C1209 1.263 . S
C1216 O1217 1.275 . S
C1216 O1218 1.246 . S
O1217 Tb1200 2.427 . S
O1217 C1216 1.275 . S
O1218 Tb1200 2.513 . S
O1218 C1216 1.246 . S
C1219 O1203 1.245 . S
C1219 O1204 1.259 . S
Tb1220 O1223 2.453 . S
Tb1220 O1224 2.596 . S
Tb1220 O1225 2.374 . S
Tb1220 O1233 2.343 . S
Tb1220 O1235 2.353 . S
Tb1220 O1237 2.427 . S
Tb1220 O1238 2.513 . S
C1221 O1225 1.251 . S
C1221 O1227 1.263 . S
Tb1222 O1224 2.343 . S
Tb1222 O1227 2.353 . S
Tb1222 O1230 2.427 . S
Tb1222 O1231 2.513 . S
Tb1222 O1232 2.453 . S
Tb1222 O1233 2.596 . S
Tb1222 O1234 2.374 . S
O1223 Tb1220 2.453 . S
O1223 C1239 1.245 . S
O1224 Tb1220 2.596 . S
O1224 Tb1222 2.343 . S
O1224 C1239 1.259 . S
O1225 Tb1220 2.374 . S
O1225 C1221 1.251 . S
C1226 O1230 1.275 . S
C1226 O1231 1.246 . S
O1227 C1221 1.263 . S
O1227 Tb1222 2.353 . S
C1228 O1232 1.245 . S
C1228 O1233 1.259 . S
C1229 O1234 1.250 . S
C1229 O1235 1.263 . S
O1230 Tb1222 2.427 . S
O1230 C1226 1.275 . S
O1231 Tb1222 2.513 . S
O1231 C1226 1.246 . S
O1232 Tb1222 2.453 . S
O1232 C1228 1.245 . S
O1233 Tb1220 2.343 . S
O1233 Tb1222 2.596 . S
O1233 C1228 1.259 . S
O1234 Tb1222 2.374 . S
O1234 C1229 1.250 . S
O1235 Tb1220 2.353 . S
O1235 C1229 1.263 . S
C1236 O1237 1.275 . S
C1236 O1238 1.246 . S
O1237 Tb1220 2.427 . S
O1237 C1236 1.275 . S
O1238 Tb1220 2.513 . S
O1238 C1236 1.246 . S
C1239 O1223 1.245 . S
C1239 O1224 1.259 . S
Tb1240 O1243 2.453 . S
Tb1240 O1244 2.596 . S
Tb1240 O1245 2.374 . S
Tb1240 O1253 2.343 . S
Tb1240 O1255 2.353 . S
Tb1240 O1257 2.427 . S
Tb1240 O1258 2.513 . S
C1241 O1245 1.251 . S
C1241 O1247 1.263 . S
Tb1242 O1244 2.343 . S
Tb1242 O1247 2.353 . S
Tb1242 O1250 2.427 . S
Tb1242 O1251 2.513 . S
Tb1242 O1252 2.453 . S
Tb1242 O1253 2.596 . S
Tb1242 O1254 2.374 . S
O1243 Tb1240 2.453 . S
O1243 C1259 1.245 . S
O1244 Tb1240 2.596 . S
O1244 Tb1242 2.343 . S
O1244 C1259 1.259 . S
O1245 Tb1240 2.374 . S
O1245 C1241 1.251 . S
C1246 O1250 1.275 . S
C1246 O1251 1.246 . S
O1247 C1241 1.263 . S
O1247 Tb1242 2.353 . S
C1248 O1252 1.245 . S
C1248 O1253 1.259 . S
C1249 O1254 1.250 . S
C1249 O1255 1.263 . S
O1250 Tb1242 2.427 . S
O1250 C1246 1.275 . S
O1251 Tb1242 2.513 . S
O1251 C1246 1.246 . S
O1252 Tb1242 2.453 . S
O1252 C1248 1.245 . S
O1253 Tb1240 2.343 . S
O1253 Tb1242 2.596 . S
O1253 C1248 1.259 . S
O1254 Tb1242 2.374 . S
O1254 C1249 1.250 . S
O1255 Tb1240 2.353 . S
O1255 C1249 1.263 . S
C1256 O1257 1.275 . S
C1256 O1258 1.246 . S
O1257 Tb1240 2.427 . S
O1257 C1256 1.275 . S
O1258 Tb1240 2.513 . S
O1258 C1256 1.246 . S
C1259 O1243 1.245 . S
C1259 O1244 1.259 . S
H1260 C1266 0.930 . S
H1261 C1269 0.930 . S
H1262 C1270 0.930 . S
H1263 C1271 0.930 . S
H1264 C1274 0.930 . S
H1265 C1275 0.930 . S
C1266 H1260 0.930 . S
C1266 C1267 1.355 . S
C1266 C1268 1.415 . S
C1267 C1266 1.355 . S
C1267 C1269 1.419 . S
C1268 C1266 1.415 . S
C1268 C1273 1.425 . S
C1268 C1275 1.409 . S
C1269 H1261 0.930 . S
C1269 C1267 1.419 . S
C1269 C1270 1.362 . S
C1270 H1262 0.930 . S
C1270 C1269 1.362 . S
C1270 C1273 1.409 . S
C1271 H1263 0.930 . S
C1271 C1272 1.355 . S
C1271 C1273 1.415 . S
C1272 C1271 1.355 . S
C1272 C1274 1.419 . S
C1273 C1268 1.425 . S
C1273 C1270 1.409 . S
C1273 C1271 1.415 . S
C1274 H1264 0.930 . S
C1274 C1272 1.419 . S
C1274 C1275 1.362 . S
C1275 H1265 0.930 . S
C1275 C1268 1.409 . S
C1275 C1274 1.362 . S
H1276 C1282 0.930 . S
H1277 C1285 0.930 . S
H1278 C1286 0.930 . S
H1279 C1287 0.930 . S
H1280 C1290 0.930 . S
H1281 C1291 0.930 . S
C1282 H1276 0.930 . S
C1282 C1283 1.355 . S
C1282 C1284 1.415 . S
C1283 C1282 1.355 . S
C1283 C1285 1.419 . S
C1284 C1282 1.415 . S
C1284 C1289 1.425 . S
C1284 C1291 1.409 . S
C1285 H1277 0.930 . S
C1285 C1283 1.419 . S
C1285 C1286 1.362 . S
C1286 H1278 0.930 . S
C1286 C1285 1.362 . S
C1286 C1289 1.409 . S
C1287 H1279 0.930 . S
C1287 C1288 1.355 . S
C1287 C1289 1.415 . S
C1288 C1287 1.355 . S
C1288 C1290 1.419 . S
C1289 C1284 1.425 . S
C1289 C1286 1.409 . S
C1289 C1287 1.415 . S
C1290 H1280 0.930 . S
C1290 C1288 1.419 . S
C1290 C1291 1.362 . S
C1291 H1281 0.930 . S
C1291 C1284 1.409 . S
C1291 C1290 1.362 . S
H1292 C1298 0.930 . S
H1293 C1301 0.930 . S
H1294 C1302 0.930 . S
H1295 C1303 0.930 . S
H1296 C1306 0.930 . S
H1297 C1307 0.930 . S
C1298 H1292 0.930 . S
C1298 C1299 1.355 . S
C1298 C1300 1.415 . S
C1299 C1298 1.355 . S
C1299 C1301 1.419 . S
C1300 C1298 1.415 . S
C1300 C1305 1.425 . S
C1300 C1307 1.409 . S
C1301 H1293 0.930 . S
C1301 C1299 1.419 . S
C1301 C1302 1.362 . S
C1302 H1294 0.930 . S
C1302 C1301 1.362 . S
C1302 C1305 1.409 . S
C1303 H1295 0.930 . S
C1303 C1304 1.355 . S
C1303 C1305 1.415 . S
C1304 C1303 1.355 . S
C1304 C1306 1.419 . S
C1305 C1300 1.425 . S
C1305 C1302 1.409 . S
C1305 C1303 1.415 . S
C1306 H1296 0.930 . S
C1306 C1304 1.419 . S
C1306 C1307 1.362 . S
C1307 H1297 0.930 . S
C1307 C1300 1.409 . S
C1307 C1306 1.362 . S
H1308 C1314 0.930 . S
H1309 C1317 0.930 . S
H1310 C1318 0.930 . S
H1311 C1319 0.930 . S
H1312 C1322 0.930 . S
H1313 C1323 0.930 . S
C1314 H1308 0.930 . S
C1314 C1315 1.355 . S
C1314 C1316 1.415 . S
C1315 C1314 1.355 . S
C1315 C1317 1.419 . S
C1316 C1314 1.415 . S
C1316 C1321 1.425 . S
C1316 C1323 1.409 . S
C1317 H1309 0.930 . S
C1317 C1315 1.419 . S
C1317 C1318 1.362 . S
C1318 H1310 0.930 . S
C1318 C1317 1.362 . S
C1318 C1321 1.409 . S
C1319 H1311 0.930 . S
C1319 C1320 1.355 . S
C1319 C1321 1.415 . S
C1320 C1319 1.355 . S
C1320 C1322 1.419 . S
C1321 C1316 1.425 . S
C1321 C1318 1.409 . S
C1321 C1319 1.415 . S
C1322 H1312 0.930 . S
C1322 C1320 1.419 . S
C1322 C1323 1.362 . S
C1323 H1313 0.930 . S
C1323 C1316 1.409 . S
C1323 C1322 1.362 . S
H1324 C1330 0.930 . S
H1325 C1333 0.930 . S
H1326 C1334 0.930 . S
H1327 C1335 0.930 . S
H1328 C1338 0.930 . S
H1329 C1339 0.930 . S
C1330 H1324 0.930 . S
C1330 C1331 1.355 . S
C1330 C1332 1.415 . S
C1331 C1330 1.355 . S
C1331 C1333 1.419 . S
C1332 C1330 1.415 . S
C1332 C1337 1.425 . S
C1332 C1339 1.409 . S
C1333 H1325 0.930 . S
C1333 C1331 1.419 . S
C1333 C1334 1.362 . S
C1334 H1326 0.930 . S
C1334 C1333 1.362 . S
C1334 C1337 1.409 . S
C1335 H1327 0.930 . S
C1335 C1336 1.355 . S
C1335 C1337 1.415 . S
C1336 C1335 1.355 . S
C1336 C1338 1.419 . S
C1337 C1332 1.425 . S
C1337 C1334 1.409 . S
C1337 C1335 1.415 . S
C1338 H1328 0.930 . S
C1338 C1336 1.419 . S
C1338 C1339 1.362 . S
C1339 H1329 0.930 . S
C1339 C1332 1.409 . S
C1339 C1338 1.362 . S
H1340 C1346 0.930 . S
H1341 C1349 0.930 . S
H1342 C1350 0.930 . S
H1343 C1351 0.930 . S
H1344 C1354 0.930 . S
H1345 C1355 0.930 . S
C1346 H1340 0.930 . S
C1346 C1347 1.355 . S
C1346 C1348 1.415 . S
C1347 C1346 1.355 . S
C1347 C1349 1.419 . S
C1348 C1346 1.415 . S
C1348 C1353 1.425 . S
C1348 C1355 1.409 . S
C1349 H1341 0.930 . S
C1349 C1347 1.419 . S
C1349 C1350 1.362 . S
C1350 H1342 0.930 . S
C1350 C1349 1.362 . S
C1350 C1353 1.409 . S
C1351 H1343 0.930 . S
C1351 C1352 1.355 . S
C1351 C1353 1.415 . S
C1352 C1351 1.355 . S
C1352 C1354 1.419 . S
C1353 C1348 1.425 . S
C1353 C1350 1.409 . S
C1353 C1351 1.415 . S
C1354 H1344 0.930 . S
C1354 C1352 1.419 . S
C1354 C1355 1.362 . S
C1355 H1345 0.930 . S
C1355 C1348 1.409 . S
C1355 C1354 1.362 . S
H1356 C1362 0.930 . S
H1357 C1365 0.930 . S
H1358 C1366 0.930 . S
H1359 C1367 0.930 . S
H1360 C1370 0.930 1_554 S
H1361 C1371 0.930 . S
C1362 H1356 0.930 . S
C1362 C1363 1.355 . S
C1362 C1364 1.415 . S
C1363 C1362 1.355 . S
C1363 C1365 1.419 . S
C1364 C1362 1.415 . S
C1364 C1369 1.425 . S
C1364 C1371 1.409 . S
C1365 H1357 0.930 . S
C1365 C1363 1.419 . S
C1365 C1366 1.362 . S
C1366 H1358 0.930 . S
C1366 C1365 1.362 . S
C1366 C1369 1.409 . S
C1367 H1359 0.930 . S
C1367 C1368 1.355 . S
C1367 C1369 1.415 . S
C1368 C1367 1.355 . S
C1368 C1370 1.419 . S
C1369 C1364 1.425 . S
C1369 C1366 1.409 . S
C1369 C1367 1.415 . S
C1370 H1360 0.930 1_556 S
C1370 C1368 1.419 . S
C1370 C1371 1.362 . S
C1371 H1361 0.930 . S
C1371 C1364 1.409 . S
C1371 C1370 1.362 . S
H1372 C1378 0.930 . S
H1373 C1381 0.930 . S
H1374 C1382 0.930 . S
H1375 C1383 0.930 . S
H1376 C1386 0.930 . S
H1377 C1387 0.930 . S
C1378 H1372 0.930 . S
C1378 C1379 1.355 . S
C1378 C1380 1.415 . S
C1379 C1378 1.355 . S
C1379 C1381 1.419 . S
C1380 C1378 1.415 . S
C1380 C1385 1.425 . S
C1380 C1387 1.409 . S
C1381 H1373 0.930 . S
C1381 C1379 1.419 . S
C1381 C1382 1.362 . S
C1382 H1374 0.930 . S
C1382 C1381 1.362 . S
C1382 C1385 1.409 . S
C1383 H1375 0.930 . S
C1383 C1384 1.355 . S
C1383 C1385 1.415 . S
C1384 C1383 1.355 . S
C1384 C1386 1.419 . S
C1385 C1380 1.425 . S
C1385 C1382 1.409 . S
C1385 C1383 1.415 . S
C1386 H1376 0.930 . S
C1386 C1384 1.419 . S
C1386 C1387 1.362 . S
C1387 H1377 0.930 . S
C1387 C1380 1.409 . S
C1387 C1386 1.362 . S
H1388 C1394 0.930 . S
H1389 C1397 0.930 . S
H1390 C1398 0.930 1_554 S
H1391 C1399 0.930 1_554 S
H1392 C1402 0.930 . S
H1393 C1403 0.930 . S
C1394 H1388 0.930 . S
C1394 C1395 1.355 . S
C1394 C1396 1.415 . S
C1395 C1394 1.355 . S
C1395 C1397 1.419 . S
C1396 C1394 1.415 . S
C1396 C1401 1.425 . S
C1396 C1403 1.409 . S
C1397 H1389 0.930 . S
C1397 C1395 1.419 . S
C1397 C1398 1.362 . S
C1398 H1390 0.930 1_556 S
C1398 C1397 1.362 . S
C1398 C1401 1.409 . S
C1399 H1391 0.930 1_556 S
C1399 C1400 1.355 . S
C1399 C1401 1.415 . S
C1400 C1399 1.355 . S
C1400 C1402 1.419 . S
C1401 C1396 1.425 . S
C1401 C1398 1.409 . S
C1401 C1399 1.415 . S
C1402 H1392 0.930 . S
C1402 C1400 1.419 . S
C1402 C1403 1.362 . S
C1403 H1393 0.930 . S
C1403 C1396 1.409 . S
C1403 C1402 1.362 . S
H1404 C1410 0.930 . S
H1405 C1413 0.930 . S
H1406 C1414 0.930 . S
H1407 C1415 0.930 . S
H1408 C1418 0.930 1_556 S
H1409 C1419 0.930 1_556 S
C1410 H1404 0.930 . S
C1410 C1411 1.355 . S
C1410 C1412 1.415 . S
C1411 C1410 1.355 . S
C1411 C1413 1.419 . S
C1412 C1410 1.415 . S
C1412 C1417 1.425 . S
C1412 C1419 1.409 . S
C1413 H1405 0.930 . S
C1413 C1411 1.419 . S
C1413 C1414 1.362 . S
C1414 H1406 0.930 . S
C1414 C1413 1.362 . S
C1414 C1417 1.409 . S
C1415 H1407 0.930 . S
C1415 C1416 1.355 . S
C1415 C1417 1.415 . S
C1416 C1415 1.355 . S
C1416 C1418 1.419 . S
C1417 C1412 1.425 . S
C1417 C1414 1.409 . S
C1417 C1415 1.415 . S
C1418 H1408 0.930 1_554 S
C1418 C1416 1.419 . S
C1418 C1419 1.362 . S
C1419 H1409 0.930 1_554 S
C1419 C1412 1.409 . S
C1419 C1418 1.362 . S
H1420 C1426 0.930 . S
H1421 C1429 0.930 . S
H1422 C1430 0.930 . S
H1423 C1431 0.930 . S
H1424 C1434 0.930 . S
H1425 C1435 0.930 . S
C1426 H1420 0.930 . S
C1426 C1427 1.355 . S
C1426 C1428 1.415 . S
C1427 C1426 1.355 . S
C1427 C1429 1.419 . S
C1428 C1426 1.415 . S
C1428 C1433 1.425 . S
C1428 C1435 1.409 . S
C1429 H1421 0.930 . S
C1429 C1427 1.419 . S
C1429 C1430 1.362 . S
C1430 H1422 0.930 . S
C1430 C1429 1.362 . S
C1430 C1433 1.409 . S
C1431 H1423 0.930 . S
C1431 C1432 1.355 . S
C1431 C1433 1.415 . S
C1432 C1431 1.355 . S
C1432 C1434 1.419 . S
C1433 C1428 1.425 . S
C1433 C1430 1.409 . S
C1433 C1431 1.415 . S
C1434 H1424 0.930 . S
C1434 C1432 1.419 . S
C1434 C1435 1.362 . S
C1435 H1425 0.930 . S
C1435 C1428 1.409 . S
C1435 C1434 1.362 . S
H1436 C1442 0.930 . S
H1437 C1445 0.930 . S
H1438 C1446 0.930 . S
H1439 C1447 0.930 . S
H1440 C1450 0.930 . S
H1441 C1451 0.930 . S
C1442 H1436 0.930 . S
C1442 C1443 1.355 . S
C1442 C1444 1.415 . S
C1443 C1442 1.355 . S
C1443 C1445 1.419 . S
C1444 C1442 1.415 . S
C1444 C1449 1.425 . S
C1444 C1451 1.409 . S
C1445 H1437 0.930 . S
C1445 C1443 1.419 . S
C1445 C1446 1.362 . S
C1446 H1438 0.930 . S
C1446 C1445 1.362 . S
C1446 C1449 1.409 . S
C1447 H1439 0.930 . S
C1447 C1448 1.355 . S
C1447 C1449 1.415 . S
C1448 C1447 1.355 . S
C1448 C1450 1.419 . S
C1449 C1444 1.425 . S
C1449 C1446 1.409 . S
C1449 C1447 1.415 . S
C1450 H1440 0.930 . S
C1450 C1448 1.419 . S
C1450 C1451 1.362 . S
C1451 H1441 0.930 . S
C1451 C1444 1.409 . S
C1451 C1450 1.362 . S
H1452 C1458 0.930 . S
H1453 C1461 0.930 . S
H1454 C1462 0.930 . S
H1455 C1463 0.930 . S
H1456 C1466 0.930 . S
H1457 C1467 0.930 . S
C1458 H1452 0.930 . S
C1458 C1459 1.355 . S
C1458 C1460 1.415 1_655 S
C1459 C1458 1.355 . S
C1459 C1461 1.419 . S
C1460 C1458 1.415 1_455 S
C1460 C1465 1.425 . S
C1460 C1467 1.409 . S
C1461 H1453 0.930 . S
C1461 C1459 1.419 . S
C1461 C1462 1.362 1_655 S
C1462 H1454 0.930 . S
C1462 C1461 1.362 1_455 S
C1462 C1465 1.409 . S
C1463 H1455 0.930 . S
C1463 C1464 1.355 . S
C1463 C1465 1.415 . S
C1464 C1463 1.355 . S
C1464 C1466 1.419 . S
C1465 C1460 1.425 . S
C1465 C1462 1.409 . S
C1465 C1463 1.415 . S
C1466 H1456 0.930 . S
C1466 C1464 1.419 . S
C1466 C1467 1.362 . S
C1467 H1457 0.930 . S
C1467 C1460 1.409 . S
C1467 C1466 1.362 . S
H1468 C1474 0.930 . S
H1469 C1477 0.930 . S
H1470 C1478 0.930 . S
H1471 C1479 0.930 . S
H1472 C1482 0.930 . S
H1473 C1483 0.930 . S
C1474 H1468 0.930 . S
C1474 C1475 1.355 . S
C1474 C1476 1.415 . S
C1475 C1474 1.355 . S
C1475 C1477 1.419 . S
C1476 C1474 1.415 . S
C1476 C1481 1.425 . S
C1476 C1483 1.409 . S
C1477 H1469 0.930 . S
C1477 C1475 1.419 . S
C1477 C1478 1.362 . S
C1478 H1470 0.930 . S
C1478 C1477 1.362 . S
C1478 C1481 1.409 . S
C1479 H1471 0.930 . S
C1479 C1480 1.355 . S
C1479 C1481 1.415 . S
C1480 C1479 1.355 . S
C1480 C1482 1.419 . S
C1481 C1476 1.425 . S
C1481 C1478 1.409 . S
C1481 C1479 1.415 . S
C1482 H1472 0.930 . S
C1482 C1480 1.419 . S
C1482 C1483 1.362 . S
C1483 H1473 0.930 . S
C1483 C1476 1.409 . S
C1483 C1482 1.362 . S
H1484 C1490 0.930 . S
H1485 C1493 0.930 . S
H1486 C1494 0.930 . S
H1487 C1495 0.930 . S
H1488 C1498 0.930 . S
H1489 C1499 0.930 . S
C1490 H1484 0.930 . S
C1490 C1491 1.355 . S
C1490 C1492 1.415 1_545 S
C1491 C1490 1.355 . S
C1491 C1493 1.419 . S
C1492 C1490 1.415 1_565 S
C1492 C1497 1.425 . S
C1492 C1499 1.409 . S
C1493 H1485 0.930 . S
C1493 C1491 1.419 . S
C1493 C1494 1.362 1_545 S
C1494 H1486 0.930 . S
C1494 C1493 1.362 1_565 S
C1494 C1497 1.409 . S
C1495 H1487 0.930 . S
C1495 C1496 1.355 . S
C1495 C1497 1.415 . S
C1496 C1495 1.355 . S
C1496 C1498 1.419 . S
C1497 C1492 1.425 . S
C1497 C1494 1.409 . S
C1497 C1495 1.415 . S
C1498 H1488 0.930 . S
C1498 C1496 1.419 . S
C1498 C1499 1.362 . S
C1499 H1489 0.930 . S
C1499 C1492 1.409 . S
C1499 C1498 1.362 . S
H1500 C1506 0.930 . S
H1501 C1509 0.930 . S
H1502 C1510 0.930 . S
H1503 C1511 0.930 . S
H1504 C1514 0.930 . S
H1505 C1515 0.930 . S
C1506 H1500 0.930 . S
C1506 C1507 1.355 . S
C1506 C1508 1.415 . S
C1507 C1506 1.355 . S
C1507 C1509 1.419 . S
C1508 C1506 1.415 . S
C1508 C1513 1.425 . S
C1508 C1515 1.409 . S
C1509 H1501 0.930 . S
C1509 C1507 1.419 . S
C1509 C1510 1.362 . S
C1510 H1502 0.930 . S
C1510 C1509 1.362 . S
C1510 C1513 1.409 . S
C1511 H1503 0.930 . S
C1511 C1512 1.355 . S
C1511 C1513 1.415 . S
C1512 C1511 1.355 . S
C1512 C1514 1.419 . S
C1513 C1508 1.425 . S
C1513 C1510 1.409 . S
C1513 C1511 1.415 . S
C1514 H1504 0.930 . S
C1514 C1512 1.419 . S
C1514 C1515 1.362 . S
C1515 H1505 0.930 . S
C1515 C1508 1.409 . S
C1515 C1514 1.362 . S
H1516 C1522 0.930 . S
H1517 C1525 0.930 . S
H1518 C1526 0.930 . S
H1519 C1527 0.930 . S
H1520 C1530 0.930 . S
H1521 C1531 0.930 . S
C1522 H1516 0.930 . S
C1522 C1523 1.355 . S
C1522 C1524 1.415 . S
C1523 C1522 1.355 . S
C1523 C1525 1.419 . S
C1524 C1522 1.415 . S
C1524 C1529 1.425 . S
C1524 C1531 1.409 . S
C1525 H1517 0.930 . S
C1525 C1523 1.419 . S
C1525 C1526 1.362 . S
C1526 H1518 0.930 . S
C1526 C1525 1.362 . S
C1526 C1529 1.409 . S
C1527 H1519 0.930 . S
C1527 C1528 1.355 . S
C1527 C1529 1.415 . S
C1528 C1527 1.355 . S
C1528 C1530 1.419 . S
C1529 C1524 1.425 . S
C1529 C1526 1.409 . S
C1529 C1527 1.415 . S
C1530 H1520 0.930 . S
C1530 C1528 1.419 . S
C1530 C1531 1.362 . S
C1531 H1521 0.930 . S
C1531 C1524 1.409 . S
C1531 C1530 1.362 . S
H1532 C1538 0.930 . S
H1533 C1541 0.930 . S
H1534 C1542 0.930 . S
H1535 C1543 0.930 . S
H1536 C1546 0.930 . S
H1537 C1547 0.930 . S
C1538 H1532 0.930 . S
C1538 C1539 1.355 . S
C1538 C1540 1.415 . S
C1539 C1538 1.355 . S
C1539 C1541 1.419 . S
C1540 C1538 1.415 . S
C1540 C1545 1.425 . S
C1540 C1547 1.409 . S
C1541 H1533 0.930 . S
C1541 C1539 1.419 . S
C1541 C1542 1.362 . S
C1542 H1534 0.930 . S
C1542 C1541 1.362 . S
C1542 C1545 1.409 . S
C1543 H1535 0.930 . S
C1543 C1544 1.355 . S
C1543 C1545 1.415 . S
C1544 C1543 1.355 . S
C1544 C1546 1.419 . S
C1545 C1540 1.425 . S
C1545 C1542 1.409 . S
C1545 C1543 1.415 . S
C1546 H1536 0.930 . S
C1546 C1544 1.419 . S
C1546 C1547 1.362 . S
C1547 H1537 0.930 . S
C1547 C1540 1.409 . S
C1547 C1546 1.362 . S
H1548 C1554 0.930 . S
H1549 C1557 0.930 . S
H1550 C1558 0.930 . S
H1551 C1559 0.930 . S
H1552 C1562 0.930 . S
H1553 C1563 0.930 . S
C1554 H1548 0.930 . S
C1554 C1555 1.355 . S
C1554 C1556 1.415 . S
C1555 C1554 1.355 . S
C1555 C1557 1.419 . S
C1556 C1554 1.415 . S
C1556 C1561 1.425 . S
C1556 C1563 1.409 . S
C1557 H1549 0.930 . S
C1557 C1555 1.419 . S
C1557 C1558 1.362 . S
C1558 H1550 0.930 . S
C1558 C1557 1.362 . S
C1558 C1561 1.409 . S
C1559 H1551 0.930 . S
C1559 C1560 1.355 . S
C1559 C1561 1.415 . S
C1560 C1559 1.355 . S
C1560 C1562 1.419 . S
C1561 C1556 1.425 . S
C1561 C1558 1.409 . S
C1561 C1559 1.415 . S
C1562 H1552 0.930 . S
C1562 C1560 1.419 . S
C1562 C1563 1.362 . S
C1563 H1553 0.930 . S
C1563 C1556 1.409 . S
C1563 C1562 1.362 . S
H1564 C1570 0.930 . S
H1565 C1573 0.930 . S
H1566 C1574 0.930 . S
H1567 C1575 0.930 . S
H1568 C1578 0.930 . S
H1569 C1579 0.930 . S
C1570 H1564 0.930 . S
C1570 C1571 1.355 . S
C1570 C1572 1.415 . S
C1571 C1570 1.355 . S
C1571 C1573 1.419 . S
C1572 C1570 1.415 . S
C1572 C1577 1.425 . S
C1572 C1579 1.409 . S
C1573 H1565 0.930 . S
C1573 C1571 1.419 . S
C1573 C1574 1.362 . S
C1574 H1566 0.930 . S
C1574 C1573 1.362 . S
C1574 C1577 1.409 . S
C1575 H1567 0.930 . S
C1575 C1576 1.355 . S
C1575 C1577 1.415 . S
C1576 C1575 1.355 . S
C1576 C1578 1.419 . S
C1577 C1572 1.425 . S
C1577 C1574 1.409 . S
C1577 C1575 1.415 . S
C1578 H1568 0.930 . S
C1578 C1576 1.419 . S
C1578 C1579 1.362 . S
C1579 H1569 0.930 . S
C1579 C1572 1.409 . S
C1579 C1578 1.362 . S
H1580 C1586 0.930 . S
H1581 C1589 0.930 . S
H1582 C1590 0.930 . S
H1583 C1591 0.930 . S
H1584 C1594 0.930 . S
H1585 C1595 0.930 . S
C1586 H1580 0.930 . S
C1586 C1587 1.355 . S
C1586 C1588 1.415 . S
C1587 C1586 1.355 . S
C1587 C1589 1.419 . S
C1588 C1586 1.415 . S
C1588 C1593 1.425 . S
C1588 C1595 1.409 . S
C1589 H1581 0.930 . S
C1589 C1587 1.419 . S
C1589 C1590 1.362 . S
C1590 H1582 0.930 . S
C1590 C1589 1.362 . S
C1590 C1593 1.409 . S
C1591 H1583 0.930 . S
C1591 C1592 1.355 . S
C1591 C1593 1.415 . S
C1592 C1591 1.355 . S
C1592 C1594 1.419 . S
C1593 C1588 1.425 . S
C1593 C1590 1.409 . S
C1593 C1591 1.415 . S
C1594 H1584 0.930 . S
C1594 C1592 1.419 . S
C1594 C1595 1.362 . S
C1595 H1585 0.930 . S
C1595 C1588 1.409 . S
C1595 C1594 1.362 . S
H1596 C1602 0.930 1_545 S
H1597 C1605 0.930 . S
H1598 C1606 0.930 . S
H1599 C1607 0.930 . S
H1600 C1610 0.930 . S
H1601 C1611 0.930 . S
C1602 H1596 0.930 1_565 S
C1602 C1603 1.355 1_565 S
C1602 C1604 1.415 . S
C1603 C1602 1.355 1_545 S
C1603 C1605 1.419 . S
C1604 C1602 1.415 . S
C1604 C1609 1.425 . S
C1604 C1611 1.409 . S
C1605 H1597 0.930 . S
C1605 C1603 1.419 . S
C1605 C1606 1.362 1_545 S
C1606 H1598 0.930 . S
C1606 C1605 1.362 1_565 S
C1606 C1609 1.409 . S
C1607 H1599 0.930 . S
C1607 C1608 1.355 . S
C1607 C1609 1.415 . S
C1608 C1607 1.355 . S
C1608 C1610 1.419 . S
C1609 C1604 1.425 . S
C1609 C1606 1.409 . S
C1609 C1607 1.415 . S
C1610 H1600 0.930 . S
C1610 C1608 1.419 . S
C1610 C1611 1.362 . S
C1611 H1601 0.930 . S
C1611 C1604 1.409 . S
C1611 C1610 1.362 . S
H1612 C1618 0.930 1_655 S
H1613 C1621 0.930 1_655 S
H1614 C1622 0.930 . S
H1615 C1623 0.930 . S
H1616 C1626 0.930 . S
H1617 C1627 0.930 . S
C1618 H1612 0.930 1_455 S
C1618 C1619 1.355 1_455 S
C1618 C1620 1.415 . S
C1619 C1618 1.355 1_655 S
C1619 C1621 1.419 1_655 S
C1620 C1618 1.415 . S
C1620 C1625 1.425 . S
C1620 C1627 1.409 . S
C1621 H1613 0.930 1_455 S
C1621 C1619 1.419 1_455 S
C1621 C1622 1.362 . S
C1622 H1614 0.930 . S
C1622 C1621 1.362 . S
C1622 C1625 1.409 . S
C1623 H1615 0.930 . S
C1623 C1624 1.355 . S
C1623 C1625 1.415 . S
C1624 C1623 1.355 . S
C1624 C1626 1.419 . S
C1625 C1620 1.425 . S
C1625 C1622 1.409 . S
C1625 C1623 1.415 . S
C1626 H1616 0.930 . S
C1626 C1624 1.419 . S
C1626 C1627 1.362 . S
C1627 H1617 0.930 . S
C1627 C1620 1.409 . S
C1627 C1626 1.362 . S
H1628 C1634 0.930 . S
H1629 C1637 0.930 . S
H1630 C1638 0.930 . S
H1631 C1639 0.930 . S
H1632 C1642 0.930 . S
H1633 C1643 0.930 . S
C1634 H1628 0.930 . S
C1634 C1635 1.355 . S
C1634 C1636 1.415 . S
C1635 C1634 1.355 . S
C1635 C1637 1.419 . S
C1636 C1634 1.415 . S
C1636 C1641 1.425 . S
C1636 C1643 1.409 . S
C1637 H1629 0.930 . S
C1637 C1635 1.419 . S
C1637 C1638 1.362 . S
C1638 H1630 0.930 . S
C1638 C1637 1.362 . S
C1638 C1641 1.409 . S
C1639 H1631 0.930 . S
C1639 C1640 1.355 . S
C1639 C1641 1.415 . S
C1640 C1639 1.355 . S
C1640 C1642 1.419 . S
C1641 C1636 1.425 . S
C1641 C1638 1.409 . S
C1641 C1639 1.415 . S
C1642 H1632 0.930 . S
C1642 C1640 1.419 . S
C1642 C1643 1.362 . S
C1643 H1633 0.930 . S
C1643 C1636 1.409 . S
C1643 C1642 1.362 . S
H1644 C1650 0.930 . S
H1645 C1653 0.930 . S
H1646 C1654 0.930 . S
H1647 C1655 0.930 . S
H1648 C1658 0.930 . S
H1649 C1659 0.930 . S
C1650 H1644 0.930 . S
C1650 C1651 1.355 . S
C1650 C1652 1.415 . S
C1651 C1650 1.355 . S
C1651 C1653 1.419 . S
C1652 C1650 1.415 . S
C1652 C1657 1.425 . S
C1652 C1659 1.409 . S
C1653 H1645 0.930 . S
C1653 C1651 1.419 . S
C1653 C1654 1.362 . S
C1654 H1646 0.930 . S
C1654 C1653 1.362 . S
C1654 C1657 1.409 . S
C1655 H1647 0.930 . S
C1655 C1656 1.355 . S
C1655 C1657 1.415 . S
C1656 C1655 1.355 . S
C1656 C1658 1.419 . S
C1657 C1652 1.425 . S
C1657 C1654 1.409 . S
C1657 C1655 1.415 . S
C1658 H1648 0.930 . S
C1658 C1656 1.419 . S
C1658 C1659 1.362 . S
C1659 H1649 0.930 . S
C1659 C1652 1.409 . S
C1659 C1658 1.362 . S
H1660 C1666 0.930 . S
H1661 C1669 0.930 . S
H1662 C1670 0.930 . S
H1663 C1671 0.930 . S
H1664 C1674 0.930 . S
H1665 C1675 0.930 . S
C1666 H1660 0.930 . S
C1666 C1667 1.355 . S
C1666 C1668 1.415 . S
C1667 C1666 1.355 . S
C1667 C1669 1.419 . S
C1668 C1666 1.415 . S
C1668 C1673 1.425 . S
C1668 C1675 1.409 . S
C1669 H1661 0.930 . S
C1669 C1667 1.419 . S
C1669 C1670 1.362 . S
C1670 H1662 0.930 . S
C1670 C1669 1.362 . S
C1670 C1673 1.409 . S
C1671 H1663 0.930 . S
C1671 C1672 1.355 . S
C1671 C1673 1.415 . S
C1672 C1671 1.355 . S
C1672 C1674 1.419 . S
C1673 C1668 1.425 . S
C1673 C1670 1.409 . S
C1673 C1671 1.415 . S
C1674 H1664 0.930 . S
C1674 C1672 1.419 . S
C1674 C1675 1.362 . S
C1675 H1665 0.930 . S
C1675 C1668 1.409 . S
C1675 C1674 1.362 . S
H1676 C1682 0.930 . S
H1677 C1685 0.930 . S
H1678 C1686 0.930 . S
H1679 C1687 0.930 . S
H1680 C1690 0.930 . S
H1681 C1691 0.930 . S
C1682 H1676 0.930 . S
C1682 C1683 1.355 . S
C1682 C1684 1.415 . S
C1683 C1682 1.355 . S
C1683 C1685 1.419 . S
C1684 C1682 1.415 . S
C1684 C1689 1.425 . S
C1684 C1691 1.409 . S
C1685 H1677 0.930 . S
C1685 C1683 1.419 . S
C1685 C1686 1.362 . S
C1686 H1678 0.930 . S
C1686 C1685 1.362 . S
C1686 C1689 1.409 . S
C1687 H1679 0.930 . S
C1687 C1688 1.355 . S
C1687 C1689 1.415 . S
C1688 C1687 1.355 . S
C1688 C1690 1.419 . S
C1689 C1684 1.425 . S
C1689 C1686 1.409 . S
C1689 C1687 1.415 . S
C1690 H1680 0.930 . S
C1690 C1688 1.419 . S
C1690 C1691 1.362 . S
C1691 H1681 0.930 . S
C1691 C1684 1.409 . S
C1691 C1690 1.362 . S
H1692 C1698 0.904 1_565 S
H1693 C1701 0.930 . S
H1694 C1702 0.930 . S
H1695 C1703 0.930 . S
H1696 C1706 0.930 . S
H1697 C1707 0.930 . S
C1698 H1692 0.904 1_545 S
C1698 C1699 1.355 1_545 S
C1698 C1700 1.415 . S
C1699 C1698 1.355 1_565 S
C1699 C1701 1.419 . S
C1700 C1698 1.415 . S
C1700 C1705 1.425 . S
C1700 C1707 1.409 . S
C1701 H1693 0.930 . S
C1701 C1699 1.419 . S
C1701 C1702 1.362 1_565 S
C1702 H1694 0.930 . S
C1702 C1701 1.362 1_545 S
C1702 C1705 1.409 . S
C1703 H1695 0.930 . S
C1703 C1704 1.355 . S
C1703 C1705 1.415 . S
C1704 C1703 1.355 . S
C1704 C1706 1.419 . S
C1705 C1700 1.425 . S
C1705 C1702 1.409 . S
C1705 C1703 1.415 . S
C1706 H1696 0.930 . S
C1706 C1704 1.419 . S
C1706 C1707 1.362 . S
C1707 H1697 0.930 . S
C1707 C1700 1.409 . S
C1707 C1706 1.362 . S
H1708 C1714 0.930 1_455 S
H1709 C1717 0.930 1_455 S
H1710 C1718 0.930 . S
H1711 C1719 0.930 . S
H1712 C1722 0.930 . S
H1713 C1723 0.930 . S
C1714 H1708 0.930 1_655 S
C1714 C1715 1.355 1_655 S
C1714 C1716 1.415 . S
C1715 C1714 1.355 1_455 S
C1715 C1717 1.419 1_455 S
C1716 C1714 1.415 . S
C1716 C1721 1.425 . S
C1716 C1723 1.409 . S
C1717 H1709 0.930 1_655 S
C1717 C1715 1.419 1_655 S
C1717 C1718 1.362 . S
C1718 H1710 0.930 . S
C1718 C1717 1.362 . S
C1718 C1721 1.409 . S
C1719 H1711 0.930 . S
C1719 C1720 1.355 . S
C1719 C1721 1.415 . S
C1720 C1719 1.355 . S
C1720 C1722 1.419 . S
C1721 C1716 1.425 . S
C1721 C1718 1.409 . S
C1721 C1719 1.415 . S
C1722 H1712 0.930 . S
C1722 C1720 1.419 . S
C1722 C1723 1.362 . S
C1723 H1713 0.930 . S
C1723 C1716 1.409 . S
C1723 C1722 1.362 . S
H1724 C1730 0.930 . S
H1725 C1733 0.930 . S
H1726 C1734 0.930 . S
H1727 C1735 0.930 . S
H1728 C1738 0.930 . S
H1729 C1739 0.930 . S
C1730 H1724 0.930 . S
C1730 C1731 1.355 . S
C1730 C1732 1.415 . S
C1731 C1730 1.355 . S
C1731 C1733 1.419 . S
C1732 C1730 1.415 . S
C1732 C1737 1.425 . S
C1732 C1739 1.409 . S
C1733 H1725 0.930 . S
C1733 C1731 1.419 . S
C1733 C1734 1.362 . S
C1734 H1726 0.930 . S
C1734 C1733 1.362 . S
C1734 C1737 1.409 . S
C1735 H1727 0.930 . S
C1735 C1736 1.355 . S
C1735 C1737 1.415 . S
C1736 C1735 1.355 . S
C1736 C1738 1.419 . S
C1737 C1732 1.425 . S
C1737 C1734 1.409 . S
C1737 C1735 1.415 . S
C1738 H1728 0.930 . S
C1738 C1736 1.419 . S
C1738 C1739 1.362 . S
C1739 H1729 0.930 . S
C1739 C1732 1.409 . S
C1739 C1738 1.362 . S
H1740 C1746 0.928 1_455 S
H1741 C1749 0.930 . S
H1742 C1750 0.930 . S
H1743 C1751 0.930 . S
H1744 C1754 0.930 . S
H1745 C1755 0.930 . S
C1746 H1740 0.928 1_655 S
C1746 C1747 1.354 1_655 S
C1746 C1748 1.416 . S
C1747 C1746 1.354 1_455 S
C1747 C1749 1.419 . S
C1748 C1746 1.416 . S
C1748 C1753 1.425 . S
C1748 C1755 1.409 . S
C1749 H1741 0.930 . S
C1749 C1747 1.419 . S
C1749 C1750 1.362 1_455 S
C1750 H1742 0.930 . S
C1750 C1749 1.362 1_655 S
C1750 C1753 1.409 . S
C1751 H1743 0.930 . S
C1751 C1752 1.355 . S
C1751 C1753 1.415 . S
C1752 C1751 1.355 . S
C1752 C1754 1.419 . S
C1753 C1748 1.425 . S
C1753 C1750 1.409 . S
C1753 C1751 1.415 . S
C1754 H1744 0.930 . S
C1754 C1752 1.419 . S
C1754 C1755 1.362 . S
C1755 H1745 0.930 . S
C1755 C1748 1.409 . S
C1755 C1754 1.362 . S
H1756 C1762 0.930 . S
H1757 C1765 0.930 . S
H1758 C1766 0.930 . S
H1759 C1767 0.930 . S
H1760 C1770 0.930 . S
H1761 C1771 0.930 . S
C1762 H1756 0.930 . S
C1762 C1763 1.355 . S
C1762 C1764 1.415 . S
C1763 C1762 1.355 . S
C1763 C1765 1.419 . S
C1764 C1762 1.415 . S
C1764 C1769 1.425 . S
C1764 C1771 1.409 . S
C1765 H1757 0.930 . S
C1765 C1763 1.419 . S
C1765 C1766 1.362 . S
C1766 H1758 0.930 . S
C1766 C1765 1.362 . S
C1766 C1769 1.409 . S
C1767 H1759 0.930 . S
C1767 C1768 1.355 . S
C1767 C1769 1.415 . S
C1768 C1767 1.355 . S
C1768 C1770 1.419 . S
C1769 C1764 1.425 . S
C1769 C1766 1.409 . S
C1769 C1767 1.415 . S
C1770 H1760 0.930 . S
C1770 C1768 1.419 . S
C1770 C1771 1.362 . S
C1771 H1761 0.930 . S
C1771 C1764 1.409 . S
C1771 C1770 1.362 . S
H1772 C1778 0.930 1_565 S
H1773 C1781 0.930 . S
H1774 C1782 0.930 . S
H1775 C1783 0.930 . S
H1776 C1786 0.930 . S
H1777 C1787 0.930 . S
C1778 H1772 0.930 1_545 S
C1778 C1779 1.355 1_545 S
C1778 C1780 1.415 . S
C1779 C1778 1.355 1_565 S
C1779 C1781 1.419 . S
C1780 C1778 1.415 . S
C1780 C1785 1.425 . S
C1780 C1787 1.409 . S
C1781 H1773 0.930 . S
C1781 C1779 1.419 . S
C1781 C1782 1.362 1_565 S
C1782 H1774 0.930 . S
C1782 C1781 1.362 1_545 S
C1782 C1785 1.409 . S
C1783 H1775 0.930 . S
C1783 C1784 1.355 . S
C1783 C1785 1.415 . S
C1784 C1783 1.355 . S
C1784 C1786 1.419 . S
C1785 C1780 1.425 . S
C1785 C1782 1.409 . S
C1785 C1783 1.415 . S
C1786 H1776 0.930 . S
C1786 C1784 1.419 . S
C1786 C1787 1.362 . S
C1787 H1777 0.930 . S
C1787 C1780 1.409 . S
C1787 C1786 1.362 . S
H1788 C1794 0.930 . S
H1789 C1797 0.930 . S
H1790 C1798 0.930 . S
H1791 C1799 0.930 . S
H1792 C1802 0.930 . S
H1793 C1803 0.930 . S
C1794 H1788 0.930 . S
C1794 C1795 1.355 . S
C1794 C1796 1.415 . S
C1795 C1794 1.355 . S
C1795 C1797 1.419 . S
C1796 C1794 1.415 . S
C1796 C1801 1.425 . S
C1796 C1803 1.409 . S
C1797 H1789 0.930 . S
C1797 C1795 1.419 . S
C1797 C1798 1.362 . S
C1798 H1790 0.930 . S
C1798 C1797 1.362 . S
C1798 C1801 1.409 . S
C1799 H1791 0.930 . S
C1799 C1800 1.355 . S
C1799 C1801 1.415 . S
C1800 C1799 1.355 . S
C1800 C1802 1.419 . S
C1801 C1796 1.425 . S
C1801 C1798 1.409 . S
C1801 C1799 1.415 . S
C1802 H1792 0.930 . S
C1802 C1800 1.419 . S
C1802 C1803 1.362 . S
C1803 H1793 0.930 . S
C1803 C1796 1.409 . S
C1803 C1802 1.362 . S
H1804 C1810 0.930 . S
H1805 C1813 0.930 . S
H1806 C1814 0.930 . S
H1807 C1815 0.930 . S
H1808 C1818 0.930 . S
H1809 C1819 0.930 . S
C1810 H1804 0.930 . S
C1810 C1811 1.355 . S
C1810 C1812 1.415 . S
C1811 C1810 1.355 . S
C1811 C1813 1.419 . S
C1812 C1810 1.415 . S
C1812 C1817 1.425 . S
C1812 C1819 1.409 . S
C1813 H1805 0.930 . S
C1813 C1811 1.419 . S
C1813 C1814 1.362 . S
C1814 H1806 0.930 . S
C1814 C1813 1.362 . S
C1814 C1817 1.409 . S
C1815 H1807 0.930 . S
C1815 C1816 1.355 . S
C1815 C1817 1.415 . S
C1816 C1815 1.355 . S
C1816 C1818 1.419 . S
C1817 C1812 1.425 . S
C1817 C1814 1.409 . S
C1817 C1815 1.415 . S
C1818 H1808 0.930 . S
C1818 C1816 1.419 . S
C1818 C1819 1.362 . S
C1819 H1809 0.930 . S
C1819 C1812 1.409 . S
C1819 C1818 1.362 . S
H1820 C1826 0.930 . S
H1821 C1829 0.930 . S
H1822 C1830 0.930 . S
H1823 C1831 0.930 . S
H1824 C1834 0.930 . S
H1825 C1835 0.930 . S
C1826 H1820 0.930 . S
C1826 C1827 1.355 . S
C1826 C1828 1.415 . S
C1827 C1826 1.355 . S
C1827 C1829 1.419 . S
C1828 C1826 1.415 . S
C1828 C1833 1.425 . S
C1828 C1835 1.409 . S
C1829 H1821 0.930 . S
C1829 C1827 1.419 . S
C1829 C1830 1.362 . S
C1830 H1822 0.930 . S
C1830 C1829 1.362 . S
C1830 C1833 1.409 . S
C1831 H1823 0.930 . S
C1831 C1832 1.355 . S
C1831 C1833 1.415 . S
C1832 C1831 1.355 . S
C1832 C1834 1.419 . S
C1833 C1828 1.425 . S
C1833 C1830 1.409 . S
C1833 C1831 1.415 . S
C1834 H1824 0.930 . S
C1834 C1832 1.419 . S
C1834 C1835 1.362 . S
C1835 H1825 0.930 . S
C1835 C1828 1.409 . S
C1835 C1834 1.362 . S
H1836 C1842 0.930 . S
H1837 C1845 0.930 . S
H1838 C1846 0.930 1_545 S
H1839 C1847 0.930 1_545 S
H1840 C1850 0.930 . S
H1841 C1851 0.930 . S
C1842 H1836 0.930 . S
C1842 C1843 1.355 . S
C1842 C1844 1.415 . S
C1843 C1842 1.355 . S
C1843 C1845 1.419 . S
C1844 C1842 1.415 . S
C1844 C1849 1.425 . S
C1844 C1851 1.409 . S
C1845 H1837 0.930 . S
C1845 C1843 1.419 . S
C1845 C1846 1.362 . S
C1846 H1838 0.930 1_565 S
C1846 C1845 1.362 . S
C1846 C1849 1.409 . S
C1847 H1839 0.930 1_565 S
C1847 C1848 1.355 . S
C1847 C1849 1.415 . S
C1848 C1847 1.355 . S
C1848 C1850 1.419 . S
C1849 C1844 1.425 . S
C1849 C1846 1.409 . S
C1849 C1847 1.415 . S
C1850 H1840 0.930 . S
C1850 C1848 1.419 . S
C1850 C1851 1.362 . S
C1851 H1841 0.930 . S
C1851 C1844 1.409 . S
C1851 C1850 1.362 . S
H1852 C1858 0.930 . S
H1853 C1861 0.930 . S
H1854 C1862 0.930 . S
H1855 C1863 0.930 . S
H1856 C1866 0.930 . S
H1857 C1867 0.930 . S
C1858 H1852 0.930 . S
C1858 C1859 1.355 . S
C1858 C1860 1.415 . S
C1859 C1858 1.355 . S
C1859 C1861 1.419 . S
C1860 C1858 1.415 . S
C1860 C1865 1.425 . S
C1860 C1867 1.409 . S
C1861 H1853 0.930 . S
C1861 C1859 1.419 . S
C1861 C1862 1.362 . S
C1862 H1854 0.930 . S
C1862 C1861 1.362 . S
C1862 C1865 1.409 . S
C1863 H1855 0.930 . S
C1863 C1864 1.355 . S
C1863 C1865 1.415 . S
C1864 C1863 1.355 . S
C1864 C1866 1.419 . S
C1865 C1860 1.425 . S
C1865 C1862 1.409 . S
C1865 C1863 1.415 . S
C1866 H1856 0.930 . S
C1866 C1864 1.419 . S
C1866 C1867 1.362 . S
C1867 H1857 0.930 . S
C1867 C1860 1.409 . S
C1867 C1866 1.362 . S
H1868 C1874 0.930 . S
H1869 C1877 0.930 . S
H1870 C1878 0.930 . S
H1871 C1879 0.930 . S
H1872 C1882 0.930 . S
H1873 C1883 0.930 . S
C1874 H1868 0.930 . S
C1874 C1875 1.355 . S
C1874 C1876 1.415 . S
C1875 C1874 1.355 . S
C1875 C1877 1.419 . S
C1876 C1874 1.415 . S
C1876 C1881 1.425 . S
C1876 C1883 1.409 . S
C1877 H1869 0.930 . S
C1877 C1875 1.419 . S
C1877 C1878 1.362 . S
C1878 H1870 0.930 . S
C1878 C1877 1.362 . S
C1878 C1881 1.409 . S
C1879 H1871 0.930 . S
C1879 C1880 1.355 . S
C1879 C1881 1.415 . S
C1880 C1879 1.355 . S
C1880 C1882 1.419 . S
C1881 C1876 1.425 . S
C1881 C1878 1.409 . S
C1881 C1879 1.415 . S
C1882 H1872 0.930 . S
C1882 C1880 1.419 . S
C1882 C1883 1.362 . S
C1883 H1873 0.930 . S
C1883 C1876 1.409 . S
C1883 C1882 1.362 . S
H1884 C1890 0.930 . S
H1885 C1893 0.930 . S
H1886 C1894 0.930 . S
H1887 C1895 0.933 . S
H1888 C1898 0.930 . S
H1889 C1899 0.930 . S
C1890 H1884 0.930 . S
C1890 C1891 1.355 . S
C1890 C1892 1.415 . S
C1891 C1890 1.355 . S
C1891 C1893 1.419 1_655 S
C1892 C1890 1.415 . S
C1892 C1897 1.425 . S
C1892 C1899 1.409 . S
C1893 H1885 0.930 . S
C1893 C1891 1.419 1_455 S
C1893 C1894 1.362 . S
C1894 H1886 0.930 . S
C1894 C1893 1.362 . S
C1894 C1897 1.409 1_455 S
C1895 H1887 0.933 . S
C1895 C1896 1.353 1_455 S
C1895 C1897 1.413 1_455 S
C1896 C1895 1.353 1_655 S
C1896 C1898 1.419 . S
C1897 C1892 1.425 . S
C1897 C1894 1.409 1_655 S
C1897 C1895 1.413 1_655 S
C1898 H1888 0.930 . S
C1898 C1896 1.419 . S
C1898 C1899 1.362 . S
C1899 H1889 0.930 . S
C1899 C1892 1.409 . S
C1899 C1898 1.362 . S
H1900 C1906 0.930 . S
H1901 C1909 0.930 . S
H1902 C1910 0.930 . S
H1903 C1911 0.930 . S
H1904 C1914 0.930 . S
H1905 C1915 0.930 . S
C1906 H1900 0.930 . S
C1906 C1907 1.355 . S
C1906 C1908 1.415 . S
C1907 C1906 1.355 . S
C1907 C1909 1.419 . S
C1908 C1906 1.415 . S
C1908 C1913 1.425 . S
C1908 C1915 1.409 . S
C1909 H1901 0.930 . S
C1909 C1907 1.419 . S
C1909 C1910 1.362 . S
C1910 H1902 0.930 . S
C1910 C1909 1.362 . S
C1910 C1913 1.409 . S
C1911 H1903 0.930 . S
C1911 C1912 1.355 . S
C1911 C1913 1.415 . S
C1912 C1911 1.355 . S
C1912 C1914 1.419 . S
C1913 C1908 1.425 . S
C1913 C1910 1.409 . S
C1913 C1911 1.415 . S
C1914 H1904 0.930 . S
C1914 C1912 1.419 . S
C1914 C1915 1.362 . S
C1915 H1905 0.930 . S
C1915 C1908 1.409 . S
C1915 C1914 1.362 . S
H1916 C1922 0.930 1_565 S
H1917 C1925 0.930 . S
H1918 C1926 0.930 . S
H1919 C1927 0.930 . S
H1920 C1930 0.930 . S
H1921 C1931 0.930 . S
C1922 H1916 0.930 1_545 S
C1922 C1923 1.355 . S
C1922 C1924 1.415 . S
C1923 C1922 1.355 . S
C1923 C1925 1.419 . S
C1924 C1922 1.415 . S
C1924 C1929 1.425 . S
C1924 C1931 1.409 1_545 S
C1925 H1917 0.930 . S
C1925 C1923 1.419 . S
C1925 C1926 1.362 . S
C1926 H1918 0.930 . S
C1926 C1925 1.362 . S
C1926 C1929 1.409 . S
C1927 H1919 0.930 . S
C1927 C1928 1.355 . S
C1927 C1929 1.415 . S
C1928 C1927 1.355 . S
C1928 C1930 1.419 1_545 S
C1929 C1924 1.425 . S
C1929 C1926 1.409 . S
C1929 C1927 1.415 . S
C1930 H1920 0.930 . S
C1930 C1928 1.419 1_565 S
C1930 C1931 1.362 . S
C1931 H1921 0.930 . S
C1931 C1924 1.409 1_565 S
C1931 C1930 1.362 . S
H1932 C1938 0.930 . S
H1933 C1941 0.930 . S
H1934 C1942 0.930 . S
H1935 C1943 0.930 . S
H1936 C1946 0.930 . S
H1937 C1947 0.930 . S
C1938 H1932 0.930 . S
C1938 C1939 1.355 . S
C1938 C1940 1.415 . S
C1939 C1938 1.355 . S
C1939 C1941 1.419 . S
C1940 C1938 1.415 . S
C1940 C1945 1.425 . S
C1940 C1947 1.409 . S
C1941 H1933 0.930 . S
C1941 C1939 1.419 . S
C1941 C1942 1.362 . S
C1942 H1934 0.930 . S
C1942 C1941 1.362 . S
C1942 C1945 1.409 . S
C1943 H1935 0.930 . S
C1943 C1944 1.355 . S
C1943 C1945 1.415 . S
C1944 C1943 1.355 . S
C1944 C1946 1.419 . S
C1945 C1940 1.425 . S
C1945 C1942 1.409 . S
C1945 C1943 1.415 . S
C1946 H1936 0.930 . S
C1946 C1944 1.419 . S
C1946 C1947 1.362 . S
C1947 H1937 0.930 . S
C1947 C1940 1.409 . S
C1947 C1946 1.362 . S
H1948 C1954 0.930 . S
H1949 C1957 0.930 . S
H1950 C1958 0.930 . S
H1951 C1959 0.930 . S
H1952 C1962 0.930 . S
H1953 C1963 0.930 . S
C1954 H1948 0.930 . S
C1954 C1955 1.355 . S
C1954 C1956 1.415 . S
C1955 C1954 1.355 . S
C1955 C1957 1.419 . S
C1956 C1954 1.415 . S
C1956 C1961 1.425 . S
C1956 C1963 1.409 . S
C1957 H1949 0.930 . S
C1957 C1955 1.419 . S
C1957 C1958 1.362 . S
C1958 H1950 0.930 . S
C1958 C1957 1.362 . S
C1958 C1961 1.409 . S
C1959 H1951 0.930 . S
C1959 C1960 1.355 . S
C1959 C1961 1.415 . S
C1960 C1959 1.355 . S
C1960 C1962 1.419 . S
C1961 C1956 1.425 . S
C1961 C1958 1.409 . S
C1961 C1959 1.415 . S
C1962 H1952 0.930 . S
C1962 C1960 1.419 . S
C1962 C1963 1.362 . S
C1963 H1953 0.930 . S
C1963 C1956 1.409 . S
C1963 C1962 1.362 . S
H1964 C1970 0.930 . S
H1965 C1973 0.930 . S
H1966 C1974 0.930 . S
H1967 C1975 0.930 . S
H1968 C1978 0.930 . S
H1969 C1979 0.930 . S
C1970 H1964 0.930 . S
C1970 C1971 1.355 . S
C1970 C1972 1.415 . S
C1971 C1970 1.355 . S
C1971 C1973 1.419 . S
C1972 C1970 1.415 . S
C1972 C1977 1.425 . S
C1972 C1979 1.409 . S
C1973 H1965 0.930 . S
C1973 C1971 1.419 . S
C1973 C1974 1.362 . S
C1974 H1966 0.930 . S
C1974 C1973 1.362 . S
C1974 C1977 1.409 . S
C1975 H1967 0.930 . S
C1975 C1976 1.355 . S
C1975 C1977 1.415 . S
C1976 C1975 1.355 . S
C1976 C1978 1.419 . S
C1977 C1972 1.425 . S
C1977 C1974 1.409 . S
C1977 C1975 1.415 . S
C1978 H1968 0.930 . S
C1978 C1976 1.419 . S
C1978 C1979 1.362 . S
C1979 H1969 0.930 . S
C1979 C1972 1.409 . S
C1979 C1978 1.362 . S
H1980 C1986 0.930 . S
H1981 C1989 0.930 . S
H1982 C1990 0.930 . S
H1983 C1991 0.930 . S
H1984 C1994 0.930 . S
H1985 C1995 0.930 . S
C1986 H1980 0.930 . S
C1986 C1987 1.355 . S
C1986 C1988 1.415 . S
C1987 C1986 1.355 . S
C1987 C1989 1.419 . S
C1988 C1986 1.415 . S
C1988 C1993 1.425 . S
C1988 C1995 1.409 . S
C1989 H1981 0.930 . S
C1989 C1987 1.419 . S
C1989 C1990 1.362 . S
C1990 H1982 0.930 . S
C1990 C1989 1.362 . S
C1990 C1993 1.409 . S
C1991 H1983 0.930 . S
C1991 C1992 1.355 . S
C1991 C1993 1.415 . S
C1992 C1991 1.355 . S
C1992 C1994 1.419 . S
C1993 C1988 1.425 . S
C1993 C1990 1.409 . S
C1993 C1991 1.415 . S
C1994 H1984 0.930 . S
C1994 C1992 1.419 . S
C1994 C1995 1.362 . S
C1995 H1985 0.930 . S
C1995 C1988 1.409 . S
C1995 C1994 1.362 . S
H1996 C2002 0.930 . S
H1997 C2005 0.930 . S
H1998 C2006 0.930 . S
H1999 C2007 0.930 . S
H2000 C2010 0.930 . S
H2001 C2011 0.930 . S
C2002 H1996 0.930 . S
C2002 C2003 1.355 . S
C2002 C2004 1.415 . S
C2003 C2002 1.355 . S
C2003 C2005 1.419 . S
C2004 C2002 1.415 . S
C2004 C2009 1.425 . S
C2004 C2011 1.409 . S
C2005 H1997 0.930 . S
C2005 C2003 1.419 . S
C2005 C2006 1.362 . S
C2006 H1998 0.930 . S
C2006 C2005 1.362 . S
C2006 C2009 1.409 . S
C2007 H1999 0.930 . S
C2007 C2008 1.355 . S
C2007 C2009 1.415 . S
C2008 C2007 1.355 . S
C2008 C2010 1.419 . S
C2009 C2004 1.425 . S
C2009 C2006 1.409 . S
C2009 C2007 1.415 . S
C2010 H2000 0.930 . S
C2010 C2008 1.419 . S
C2010 C2011 1.362 . S
C2011 H2001 0.930 . S
C2011 C2004 1.409 . S
C2011 C2010 1.362 . S
H2012 C2018 0.930 . S
H2013 C2021 0.930 . S
H2014 C2022 0.930 . S
H2015 C2023 0.930 . S
H2016 C2026 0.930 . S
H2017 C2027 0.930 . S
C2018 H2012 0.930 . S
C2018 C2019 1.355 . S
C2018 C2020 1.415 . S
C2019 C2018 1.355 . S
C2019 C2021 1.419 . S
C2020 C2018 1.415 . S
C2020 C2025 1.425 . S
C2020 C2027 1.409 . S
C2021 H2013 0.930 . S
C2021 C2019 1.419 . S
C2021 C2022 1.362 . S
C2022 H2014 0.930 . S
C2022 C2021 1.362 . S
C2022 C2025 1.409 . S
C2023 H2015 0.930 . S
C2023 C2024 1.355 . S
C2023 C2025 1.415 . S
C2024 C2023 1.355 . S
C2024 C2026 1.419 . S
C2025 C2020 1.425 . S
C2025 C2022 1.409 . S
C2025 C2023 1.415 . S
C2026 H2016 0.930 . S
C2026 C2024 1.419 . S
C2026 C2027 1.362 . S
C2027 H2017 0.930 . S
C2027 C2020 1.409 . S
C2027 C2026 1.362 . S
H2028 C2034 0.930 . S
H2029 C2037 0.930 . S
H2030 C2038 0.930 . S
H2031 C2039 0.930 . S
H2032 C2042 0.930 . S
H2033 C2043 0.930 . S
C2034 H2028 0.930 . S
C2034 C2035 1.355 . S
C2034 C2036 1.415 . S
C2035 C2034 1.355 . S
C2035 C2037 1.419 . S
C2036 C2034 1.415 . S
C2036 C2041 1.425 . S
C2036 C2043 1.409 . S
C2037 H2029 0.930 . S
C2037 C2035 1.419 . S
C2037 C2038 1.362 . S
C2038 H2030 0.930 . S
C2038 C2037 1.362 . S
C2038 C2041 1.409 . S
C2039 H2031 0.930 . S
C2039 C2040 1.355 . S
C2039 C2041 1.415 . S
C2040 C2039 1.355 . S
C2040 C2042 1.419 . S
C2041 C2036 1.425 . S
C2041 C2038 1.409 . S
C2041 C2039 1.415 . S
C2042 H2032 0.930 . S
C2042 C2040 1.419 . S
C2042 C2043 1.362 . S
C2043 H2033 0.930 . S
C2043 C2036 1.409 . S
C2043 C2042 1.362 . S
H2044 C2050 0.930 . S
H2045 C2053 0.930 . S
H2046 C2054 0.930 . S
H2047 C2055 0.930 . S
H2048 C2058 0.930 . S
H2049 C2059 0.930 . S
C2050 H2044 0.930 . S
C2050 C2051 1.355 . S
C2050 C2052 1.415 . S
C2051 C2050 1.355 . S
C2051 C2053 1.419 . S
C2052 C2050 1.415 . S
C2052 C2057 1.425 . S
C2052 C2059 1.409 . S
C2053 H2045 0.930 . S
C2053 C2051 1.419 . S
C2053 C2054 1.362 . S
C2054 H2046 0.930 . S
C2054 C2053 1.362 . S
C2054 C2057 1.409 . S
C2055 H2047 0.930 . S
C2055 C2056 1.355 . S
C2055 C2057 1.415 . S
C2056 C2055 1.355 . S
C2056 C2058 1.419 . S
C2057 C2052 1.425 . S
C2057 C2054 1.409 . S
C2057 C2055 1.415 . S
C2058 H2048 0.930 . S
C2058 C2056 1.419 . S
C2058 C2059 1.362 . S
C2059 H2049 0.930 . S
C2059 C2052 1.409 . S
C2059 C2058 1.362 . S
H2060 C2066 0.930 . S
H2061 C2069 0.930 . S
H2062 C2070 0.930 . S
H2063 C2071 0.930 . S
H2064 C2074 0.930 . S
H2065 C2075 0.930 . S
C2066 H2060 0.930 . S
C2066 C2067 1.355 . S
C2066 C2068 1.415 . S
C2067 C2066 1.355 . S
C2067 C2069 1.419 . S
C2068 C2066 1.415 . S
C2068 C2073 1.425 . S
C2068 C2075 1.409 . S
C2069 H2061 0.930 . S
C2069 C2067 1.419 . S
C2069 C2070 1.362 . S
C2070 H2062 0.930 . S
C2070 C2069 1.362 . S
C2070 C2073 1.409 . S
C2071 H2063 0.930 . S
C2071 C2072 1.355 . S
C2071 C2073 1.415 . S
C2072 C2071 1.355 . S
C2072 C2074 1.419 . S
C2073 C2068 1.425 . S
C2073 C2070 1.409 . S
C2073 C2071 1.415 . S
C2074 H2064 0.930 . S
C2074 C2072 1.419 . S
C2074 C2075 1.362 . S
C2075 H2065 0.930 . S
C2075 C2068 1.409 . S
C2075 C2074 1.362 . S
H2076 C2082 0.930 . S
H2077 C2085 0.930 . S
H2078 C2086 0.930 . S
H2079 C2087 0.930 . S
H2080 C2090 0.930 . S
H2081 C2091 0.930 . S
C2082 H2076 0.930 . S
C2082 C2083 1.355 . S
C2082 C2084 1.415 . S
C2083 C2082 1.355 . S
C2083 C2085 1.419 . S
C2084 C2082 1.415 . S
C2084 C2089 1.425 . S
C2084 C2091 1.409 . S
C2085 H2077 0.930 . S
C2085 C2083 1.419 . S
C2085 C2086 1.362 . S
C2086 H2078 0.930 . S
C2086 C2085 1.362 . S
C2086 C2089 1.409 . S
C2087 H2079 0.930 . S
C2087 C2088 1.355 . S
C2087 C2089 1.415 . S
C2088 C2087 1.355 . S
C2088 C2090 1.419 . S
C2089 C2084 1.425 . S
C2089 C2086 1.409 . S
C2089 C2087 1.415 . S
C2090 H2080 0.930 . S
C2090 C2088 1.419 . S
C2090 C2091 1.362 . S
C2091 H2081 0.930 . S
C2091 C2084 1.409 . S
C2091 C2090 1.362 . S
H2092 C2098 0.930 . S
H2093 C2101 0.930 . S
H2094 C2102 0.930 . S
H2095 C2103 0.930 . S
H2096 C2106 0.930 . S
H2097 C2107 0.930 . S
C2098 H2092 0.930 . S
C2098 C2099 1.355 . S
C2098 C2100 1.415 . S
C2099 C2098 1.355 . S
C2099 C2101 1.419 . S
C2100 C2098 1.415 . S
C2100 C2105 1.425 . S
C2100 C2107 1.409 . S
C2101 H2093 0.930 . S
C2101 C2099 1.419 . S
C2101 C2102 1.362 . S
C2102 H2094 0.930 . S
C2102 C2101 1.362 . S
C2102 C2105 1.409 . S
C2103 H2095 0.930 . S
C2103 C2104 1.355 . S
C2103 C2105 1.415 . S
C2104 C2103 1.355 . S
C2104 C2106 1.419 . S
C2105 C2100 1.425 . S
C2105 C2102 1.409 . S
C2105 C2103 1.415 . S
C2106 H2096 0.930 . S
C2106 C2104 1.419 . S
C2106 C2107 1.362 . S
C2107 H2097 0.930 . S
C2107 C2100 1.409 . S
C2107 C2106 1.362 . S
H2108 C2114 0.930 . S
H2109 C2117 0.930 . S
H2110 C2118 0.930 . S
H2111 C2119 0.930 . S
H2112 C2122 0.930 . S
H2113 C2123 0.930 . S
C2114 H2108 0.930 . S
C2114 C2115 1.355 . S
C2114 C2116 1.415 . S
C2115 C2114 1.355 . S
C2115 C2117 1.419 . S
C2116 C2114 1.415 . S
C2116 C2121 1.425 . S
C2116 C2123 1.409 . S
C2117 H2109 0.930 . S
C2117 C2115 1.419 . S
C2117 C2118 1.362 . S
C2118 H2110 0.930 . S
C2118 C2117 1.362 . S
C2118 C2121 1.409 . S
C2119 H2111 0.930 . S
C2119 C2120 1.355 . S
C2119 C2121 1.415 . S
C2120 C2119 1.355 . S
C2120 C2122 1.419 . S
C2121 C2116 1.425 . S
C2121 C2118 1.409 . S
C2121 C2119 1.415 . S
C2122 H2112 0.930 . S
C2122 C2120 1.419 . S
C2122 C2123 1.362 . S
C2123 H2113 0.930 . S
C2123 C2116 1.409 . S
C2123 C2122 1.362 . S
C1267 C781 1.581 . S
C1272 C1086 1.542 . S
C1283 C871 1.483 . S
C1288 C1106 1.453 . S
C1299 C751 1.502 . S
C1304 C1129 1.547 . S
C1315 C691 1.478 . S
C1320 C1109 1.492 . S
C1336 C1126 1.442 . S
C1331 C571 1.364 . S
C1347 C601 1.502 . S
C1352 C1089 1.474 . S
C1368 C1096 1.534 . S
C1363 C661 1.507 . S
C1384 C1116 1.500 . S
C1379 C541 1.492 . S
C1395 C631 1.574 . S
C1400 C1121 1.573 . S
C1411 C811 1.499 . S
C1416 C1101 1.466 . S
C1427 C841 1.432 . S
C1432 C1136 1.440 . S
C1448 C1081 1.512 . S
C1443 C721 1.476 . S
C1464 C1146 1.560 . S
C1459 C61 1.570 . S
C1475 C151 1.447 . S
C1480 C1166 1.481 . S
C1491 C31 1.503 . S
C1496 C1189 1.550 . S
C1507 C1051 1.412 . S
C1512 C1169 1.450 . S
C1523 C931 1.407 . S
C1528 C1186 1.463 . S
C1539 C961 1.469 . S
C1544 C1149 1.480 . S
C1555 C1021 1.532 . S
C1560 C1156 1.554 . S
C1571 C901 1.439 . S
C1576 C1176 1.458 . S
C1592 C1181 1.551 . S
C1587 C991 1.570 . S
C1603 C91 1.498 . S
C1608 C1161 1.485 . S
C1624 C1196 1.446 . S
C1619 C121 1.440 . S
C1635 C1 1.431 . S
C1640 C1141 1.470 . S
C1656 C1206 1.547 . S
C1651 C421 1.564 . S
C1667 C511 1.501 . S
C1672 C1226 1.464 . S
C1688 C1249 1.553 . S
C1683 C391 1.549 . S
C1704 C1229 1.477 . S
C1699 C331 1.423 . S
C1720 C1246 1.435 . S
C1715 C211 1.439 . S
C1731 C241 1.502 . S
C1736 C1209 1.474 . S
C1747 C301 1.505 . S
C1752 C1216 1.531 . S
C1763 C181 1.482 . S
C1768 C1236 1.491 . S
C1784 C1241 1.547 . S
C1779 C271 1.570 . S
C1795 C451 1.492 . S
C1800 C1221 1.452 . S
C1811 C481 1.397 . S
C1816 C1256 1.412 . S
C1827 C361 1.419 . S
C1832 C1201 1.465 . S
C1843 C920 1.299 . S
C1848 C1099 1.288 1_565 S
C1864 C1119 1.601 . S
C1859 C980 1.672 . S
C1875 C1040 1.425 . S
C1880 C1128 1.478 . S
C1891 C380 1.635 . S
C1896 C1108 1.621 . S
C1907 C440 1.464 . S
C1912 C1139 1.490 . S
C1928 C1088 1.264 1_545 S
C1923 C500 1.217 . S
C1939 C200 1.307 . S
C1944 C1159 1.301 . S
C1955 C260 1.629 . S
C1960 C1179 1.627 . S
C1971 C320 1.438 . S
C1976 C1188 1.424 . S
C1987 C740 1.582 . S
C1992 C1168 1.562 . S
C2008 C1199 1.493 . S
C2003 C800 1.467 . S
C2019 C860 1.216 . S
C2024 C1148 1.255 . S
C2035 C560 1.301 . S
C2040 C1219 1.298 . S
C2051 C620 1.628 . S
C2056 C1239 1.579 . S
C2072 C1248 1.468 . S
C2067 C680 1.486 . S
C2083 C20 1.595 . S
C2088 C1228 1.629 . S
C2099 C80 1.508 . S
C2104 C1259 1.474 . S
C2115 C140 1.280 . S
C2120 C1208 1.301 . S
