# Generated by pormake.
# Topology rtl, (3,6)-cn, num edge types: 1
# Building blocks:
#     Node 0, Type 0, BuildingBlock: KAKCAD_clean_linker_0, # of connection points: 3
#     Node 1, Type 0, BuildingBlock: KAKCAD_clean_linker_0, # of connection points: 3
#     Node 2, Type 0, BuildingBlock: KAKCAD_clean_linker_0, # of connection points: 3
#     Node 3, Type 0, BuildingBlock: KAKCAD_clean_linker_0, # of connection points: 3
#     Node 4, Type 1, BuildingBlock: KUMBOL_clean_sbu_1, # of connection points: 6
#     Node 5, Type 1, BuildingBlock: KUMBOL_clean_sbu_1, # of connection points: 6
#     Edge 6, Type (0, 1), BuildingBlock: MIFKUJ_clean_linker_0, # of connection points: 2
#     Edge 7, Type (0, 1), BuildingBlock: MIFKUJ_clean_linker_0, # of connection points: 2
#     Edge 8, Type (0, 1), BuildingBlock: MIFKUJ_clean_linker_0, # of connection points: 2
#     Edge 9, Type (0, 1), BuildingBlock: MIFKUJ_clean_linker_0, # of connection points: 2
#     Edge 10, Type (0, 1), BuildingBlock: MIFKUJ_clean_linker_0, # of connection points: 2
#     Edge 11, Type (0, 1), BuildingBlock: MIFKUJ_clean_linker_0, # of connection points: 2
#     Edge 12, Type (0, 1), BuildingBlock: MIFKUJ_clean_linker_0, # of connection points: 2
#     Edge 13, Type (0, 1), BuildingBlock: MIFKUJ_clean_linker_0, # of connection points: 2
#     Edge 14, Type (0, 1), BuildingBlock: MIFKUJ_clean_linker_0, # of connection points: 2
#     Edge 15, Type (0, 1), BuildingBlock: MIFKUJ_clean_linker_0, # of connection points: 2
#     Edge 16, Type (0, 1), BuildingBlock: MIFKUJ_clean_linker_0, # of connection points: 2
#     Edge 17, Type (0, 1), BuildingBlock: MIFKUJ_clean_linker_0, # of connection points: 2
# Relax obj value: 0.017
# Max RMSD: 0.086
# Mean RMSD: 0.053
data_MOF--net-rtl--node1-KUMBOL_clean_sbu_1--node2-KAKCAD_clean_linker_0--edge1-MIFKUJ_clean_linker_0
_symmetry_space_group_name_H-M    P1
_symmetry_Int_Tables_number       1
_symmetry_cell_setting            triclinic
loop_
_symmetry_equiv_pos_as_xyz
'x, y, z'
_cell_length_a     49.578812
_cell_length_b     50.072852
_cell_length_c     42.905084
_cell_angle_alpha  81.907301
_cell_angle_beta   99.714605
_cell_angle_gamma 90.196111
loop_
_atom_site_label
_atom_site_type_symbol
_atom_site_fract_x
_atom_site_fract_y
_atom_site_fract_z
_atom_type_partial_charge
C0 C 0.19685 0.88996 0.90127 0.0
C1 C 0.18676 0.91672 0.89378 0.0
C2 C 0.21126 0.88039 0.9316 0.0
C3 C 0.21641 0.89738 0.95528 0.0
C4 C 0.20697 0.92438 0.94763 0.0
C5 C 0.1923 0.93394 0.91724 0.0
C6 C 0.23089 0.88653 0.98797 0.0
C7 C 0.25232 0.86746 0.99201 0.0
C8 C 0.26427 0.85473 0.0225 0.0
C9 C 0.2559 0.86299 0.04951 0.0
C10 C 0.23485 0.88266 0.04622 0.0
C11 C 0.22221 0.89384 0.01518 0.0
C12 C 0.22523 0.89095 0.07486 0.0
C13 C 0.22635 0.87284 0.10332 0.0
C14 C 0.21427 0.91704 0.07379 0.0
C15 C 0.20394 0.92447 0.09978 0.0
C16 C 0.20511 0.90642 0.12832 0.0
C17 C 0.28404 0.83163 0.02558 0.0
C18 C 0.27992 0.81321 1.00332 0.0
C19 C 0.30658 0.82725 0.05071 0.0
C20 C 0.32448 0.80506 0.05334 0.0
C21 C 0.31995 0.78674 0.03112 0.0
C22 C 0.29764 0.79113 0.00606 0.0
C23 C 0.21693 0.8806 0.12975 0.0
H24 H 0.19352 0.87621 0.8837 0.0
H25 H 0.21783 0.85939 0.93663 0.0
H26 H 0.21083 0.93813 0.96517 0.0
H27 H 0.18476 0.95463 0.91242 0.0
H28 H 0.25955 0.86223 0.97115 0.0
H29 H 0.20479 0.90751 0.01199 0.0
H30 H 0.26548 0.85366 0.07303 0.0
H31 H 0.23412 0.85241 0.1053 0.0
H32 H 0.21351 0.93197 0.05279 0.0
H33 H 0.19466 0.94435 0.09699 0.0
H34 H 0.26258 0.81545 0.98401 0.0
H35 H 0.3105 0.841 0.06822 0.0
H36 H 0.21902 0.8661 0.15126 0.0
H37 H 0.29381 0.7773 0.98859 0.0
H38 H 0.34151 0.80192 0.07301 0.0
C39 C 0.6156 0.7049 0.69304 0.0
C40 C 0.614 0.67658 0.69927 0.0
C41 C 0.62501 0.71733 0.66558 0.0
C42 C 0.6327 0.70172 0.64363 0.0
C43 C 0.63166 0.67349 0.65019 0.0
C44 C 0.62262 0.6611 0.67767 0.0
C45 C 0.64091 0.71449 0.6133 0.0
C46 C 0.6609 0.73453 0.61306 0.0
C47 C 0.66991 0.74503 0.5844 0.0
C48 C 0.65799 0.73555 0.55589 0.0
C49 C 0.63809 0.71548 0.55564 0.0
C50 C 0.6295 0.70537 0.58451 0.0
C51 C 0.62735 0.70424 0.52555 0.0
C52 C 0.62426 0.72068 0.49564 0.0
C53 C 0.62113 0.67667 0.5263 0.0
C54 C 0.61238 0.66589 0.49801 0.0
C55 C 0.61017 0.68226 0.46828 0.0
C56 C 0.69283 0.76459 0.58403 0.0
C57 C 0.69614 0.78486 0.60399 0.0
C58 C 0.71176 0.76304 0.56327 0.0
C59 C 0.73298 0.78129 0.56206 0.0
C60 C 0.73653 0.80137 0.5821 0.0
C61 C 0.71775 0.80303 0.60305 0.0
C62 C 0.61609 0.70975 0.46738 0.0
H63 H 0.60897 0.71755 0.70891 0.0
H64 H 0.6255 0.73915 0.66103 0.0
H65 H 0.63792 0.66091 0.63399 0.0
H66 H 0.62251 0.63928 0.68198 0.0
H67 H 0.67031 0.74092 0.63541 0.0
H68 H 0.61373 0.69035 0.5847 0.0
H69 H 0.66477 0.74344 0.53379 0.0
H70 H 0.62814 0.74207 0.49393 0.0
H71 H 0.6237 0.66315 0.54866 0.0
H72 H 0.60812 0.64457 0.49933 0.0
H73 H 0.68193 0.78686 0.62015 0.0
H74 H 0.71051 0.74746 0.54801 0.0
H75 H 0.61418 0.72288 0.44474 0.0
H76 H 0.71995 0.81813 0.61901 0.0
H77 H 0.74663 0.7796 0.54518 0.0
C78 C 0.79446 0.08883 0.14281 0.0
C79 C 0.82333 0.08963 0.15002 0.0
C80 C 0.7803 0.09961 0.11258 0.0
C81 C 0.79461 0.11071 0.08847 0.0
C82 C 0.82326 0.11123 0.09523 0.0
C83 C 0.83738 0.10125 0.12561 0.0
C84 C 0.77997 0.12156 0.0561 0.0
C85 C 0.75916 0.14133 0.05185 0.0
C86 C 0.74655 0.15301 0.02096 0.0
C87 C 0.75501 0.14408 0.99425 0.0
C88 C 0.77599 0.12435 0.99824 0.0
C89 C 0.78807 0.11312 0.02927 0.0
C90 C 0.78642 0.11612 0.97034 0.0
C91 C 0.76849 0.11136 0.94266 0.0
C92 C 0.81475 0.11258 0.97156 0.0
C93 C 0.82491 0.10444 0.94591 0.0
C94 C 0.80704 0.09958 0.91835 0.0
C95 C 0.72587 0.17555 0.01691 0.0
C96 C 0.70768 0.17609 0.03874 0.0
C97 C 0.72504 0.19747 0.99222 0.0
C98 C 0.70726 0.21962 0.99013 0.0
C99 C 0.68997 0.22059 0.0128 0.0
C100 C 0.69009 0.1983 0.03679 0.0
C101 C 0.7787 0.103 0.91696 0.0
H102 H 0.78257 0.07964 0.16024 0.0
H103 H 0.75817 0.09877 0.10783 0.0
H104 H 0.83479 0.11992 0.0771 0.0
H105 H 0.85936 0.10327 0.12981 0.0
H106 H 0.75379 0.14847 0.07275 0.0
H107 H 0.80394 0.09763 0.03268 0.0
H108 H 0.7457 0.15283 0.97034 0.0
H109 H 0.74657 0.11376 0.94102 0.0
H110 H 0.8292 0.1164 0.9923 0.0
H111 H 0.84683 0.10185 0.94768 0.0
H112 H 0.70712 0.15939 0.05761 0.0
H113 H 0.73887 0.19811 0.97513 0.0
H114 H 0.76451 0.09962 0.89582 0.0
H115 H 0.67664 0.19805 0.05426 0.0
H116 H 0.70789 0.23647 0.97146 0.0
C117 C 0.37229 0.32001 0.34443 0.0
C118 C 0.39942 0.32865 0.34602 0.0
C119 C 0.36299 0.3077 0.37191 0.0
C120 C 0.3807 0.30354 0.40155 0.0
C121 C 0.40813 0.31134 0.40277 0.0
C122 C 0.41732 0.32388 0.37539 0.0
C123 C 0.3704 0.29231 0.43132 0.0
C124 C 0.3511 0.2716 0.43128 0.0
C125 C 0.34076 0.26166 0.45921 0.0
C126 C 0.35033 0.27253 0.48746 0.0
C127 C 0.36959 0.29321 0.48806 0.0
C128 C 0.37935 0.303 0.45982 0.0
C129 C 0.37914 0.30491 0.51802 0.0
C130 C 0.36088 0.30867 0.53889 0.0
C131 C 0.40658 0.31238 0.52608 0.0
C132 C 0.41553 0.32306 0.55439 0.0
C133 C 0.39732 0.3263 0.57543 0.0
C134 C 0.31932 0.24061 0.45887 0.0
C135 C 0.29769 0.24141 0.43282 0.0
C136 C 0.31948 0.22036 0.48528 0.0
C137 C 0.29823 0.20193 0.486 0.0
C138 C 0.27629 0.20343 0.46044 0.0
C139 C 0.27632 0.22311 0.43371 0.0
C140 C 0.36988 0.3191 0.56729 0.0
H141 H 0.35798 0.32362 0.32215 0.0
H142 H 0.34168 0.30228 0.3701 0.0
H143 H 0.42252 0.30793 0.425 0.0
H144 H 0.43847 0.32993 0.37721 0.0
H145 H 0.34439 0.26294 0.40958 0.0
H146 H 0.39331 0.31969 0.45976 0.0
H147 H 0.3425 0.26504 0.50906 0.0
H148 H 0.33948 0.30381 0.53318 0.0
H149 H 0.42132 0.3095 0.51081 0.0
H150 H 0.43685 0.32822 0.56015 0.0
H151 H 0.2967 0.2568 0.4122 0.0
H152 H 0.33593 0.21886 0.50559 0.0
H153 H 0.35525 0.32181 0.58275 0.0
H154 H 0.25955 0.22458 0.41372 0.0
H155 H 0.29849 0.18702 0.50697 0.0
C156 C 0.96195 0.08775 0.50105 0.0
C157 C 0.91424 0.0825 0.47849 0.0
C158 C 0.93946 0.07133 0.4955 0.0
C159 C 0.91245 0.10984 0.46543 0.0
C160 C 0.95983 0.11551 0.48884 0.0
C161 C 0.9353 0.12621 0.47001 0.0
N162 N 0.98458 0.07741 0.52164 0.0
C163 C 0.00419 0.09414 0.53368 0.0
C164 C 0.98161 0.13214 0.49809 0.0
C165 C 0.00361 0.12152 0.5212 0.0
Gd166 Gd 0.02337 0.97488 0.50311 0.0
Gd167 Gd 0.98398 0.03119 0.54061 0.0
N168 N 0.94134 0.04525 0.50985 0.0
C169 C 0.89105 0.06638 0.47705 0.0
C170 C 0.91829 0.0303 0.51098 0.0
C171 C 0.89298 0.04031 0.4939 0.0
H172 H 0.91974 0.01034 0.52423 0.0
H173 H 0.875 0.02799 0.49389 0.0
H174 H 0.08407 0.00086 0.53349 0.0
H175 H 0.0204 0.08628 0.55294 0.0
H176 H 0.12954 0.98384 0.56036 0.0
H177 H 0.87135 0.07426 0.46416 0.0
H178 H 0.89304 0.11883 0.45326 0.0
H179 H 0.98696 0.91978 0.49366 0.0
H180 H 0.98082 0.15351 0.48909 0.0
H181 H 0.01981 0.1345 0.52993 0.0
H182 H 0.11782 0.88883 0.58686 0.0
H183 H 0.93327 0.14748 0.46059 0.0
H184 H 0.03036 0.85226 0.55256 0.0
H185 H 0.9889 0.8714 0.51585 0.0
N186 N 0.02408 0.92873 0.52219 0.0
C187 C 0.04779 0.91844 0.54051 0.0
C188 C 0.00381 0.91202 0.51191 0.0
C189 C 0.02888 0.87373 0.54412 0.0
C190 C 0.0054 0.88446 0.52355 0.0
C191 C 0.05084 0.89057 0.55192 0.0
H192 H 0.07879 0.85886 0.5782 0.0
N193 N 0.06611 0.96228 0.53492 0.0
C194 C 0.06961 0.93553 0.54634 0.0
C195 C 0.11707 0.94253 0.56716 0.0
C196 C 0.09517 0.92499 0.56303 0.0
C197 C 0.08702 0.97963 0.54077 0.0
C198 C 0.11285 0.97003 0.55658 0.0
O199 O 0.96518 0.0189 0.49308 0.0
O200 O 0.00395 0.01287 0.47352 0.0
O201 O 0.05262 0.96679 0.47199 0.0
O202 O 0.00895 0.95804 0.45988 0.0
O203 O 0.97469 0.98698 0.55162 0.0
O204 O 0.97906 0.96574 0.50835 0.0
O205 O 0.02719 0.9729 0.55709 0.0
O206 O 0.02649 0.01748 0.5653 0.0
O207 O 0.97199 0.01571 0.58649 0.0
O208 O 0.9686 0.05812 0.56922 0.0
O209 O 0.04222 0.0157 0.4972 0.0
O210 O 0.02617 0.04493 0.52859 0.0
C211 C 0.97769 0.01803 0.46875 0.0
C212 C 0.96626 0.96953 0.53209 0.0
C213 C 0.0375 0.94708 0.42256 0.0
C214 C 0.063 0.94334 0.37913 0.0
C215 C 0.02046 0.91957 0.38134 0.0
C216 C 0.01778 0.92983 0.40919 0.0
C217 C 0.04285 0.92627 0.36639 0.0
C218 C 0.06037 0.95387 0.40739 0.0
C219 C 0.03321 0.95773 0.45191 0.0
C220 C 0.09825 0.8973 0.57444 0.0
C221 C 0.07603 0.88021 0.5694 0.0
H222 H 0.13733 0.93506 0.57831 0.0
C223 C 0.03412 0.99208 0.575 0.0
C224 C 0.0433 0.03829 0.50988 0.0
C225 C 0.97128 0.04591 0.62448 0.0
C226 C 0.95584 0.05532 0.67321 0.0
C227 C 0.00295 0.06363 0.66556 0.0
C228 C 0.99746 0.05476 0.63581 0.0
C229 C 0.9824 0.06394 0.6841 0.0
C230 C 0.95051 0.04594 0.64332 0.0
C231 C 0.96458 0.03929 0.59183 0.0
H232 H 0.00512 0.90631 0.37132 0.0
H233 H 1.00017 0.92414 0.42035 0.0
H234 H 0.04453 0.91801 0.34474 0.0
H235 H 0.07583 0.9671 0.41735 0.0
H236 H 0.02315 0.07064 0.67416 0.0
H237 H 0.01344 0.05528 0.62135 0.0
H238 H 0.98731 0.07104 0.70706 0.0
H239 H 0.93006 0.03976 0.63415 0.0
C240 C 0.59343 0.53479 0.03601 0.0
C241 C 0.59254 0.58354 0.02208 0.0
C242 C 0.57966 0.55945 0.03226 0.0
C243 C 0.61896 0.58238 0.01459 0.0
C244 C 0.62039 0.5337 0.02963 0.0
C245 C 0.63285 0.55753 0.01835 0.0
N246 N 0.58088 0.51202 0.04701 0.0
C247 C 0.59511 0.48804 0.05488 0.0
C248 C 0.63432 0.50878 0.03556 0.0
C249 C 0.62177 0.48593 0.04872 0.0
Gd250 Gd 0.47569 0.48793 0.99103 0.0
Gd251 Gd 0.53587 0.51792 0.05605 0.0
N252 N 0.55392 0.55996 0.03923 0.0
C253 C 0.57858 0.60814 0.02007 0.0
C254 C 0.54096 0.58398 0.03913 0.0
C255 C 0.55282 0.60835 0.02905 0.0
H256 H 0.5219 0.58451 0.04789 0.0
H257 H 0.54223 0.6273 0.02863 0.0
H258 H 0.49504 0.42345 1.00296 0.0
H259 H 0.58639 0.47055 0.06672 0.0
H260 H 0.47672 0.37907 0.02108 0.0
H261 H 0.58775 0.62706 0.01232 0.0
H262 H 0.62903 0.60065 0.0064 0.0
H263 H 0.42097 0.53174 0.97586 0.0
H264 H 0.65507 0.50712 0.03106 0.0
H265 H 0.63276 0.46676 0.0546 0.0
H266 H 0.38747 0.39994 0.04147 0.0
H267 H 0.65345 0.55702 0.01309 0.0
H268 H 0.35448 0.49114 0.01191 0.0
H269 H 0.37388 0.53234 0.9862 0.0
N270 N 0.43 0.49143 0.9994 0.0
C271 C 0.41907 0.46804 0.01146 0.0
C272 C 0.4136 0.51398 0.98896 0.0
C273 C 0.37563 0.49095 0.00847 0.0
C274 C 0.38651 0.51426 0.99404 0.0
C275 C 0.39166 0.46727 0.0166 0.0
H276 H 0.35979 0.44182 0.03257 0.0
N277 N 0.46049 0.44539 0.00973 0.0
C278 C 0.43459 0.44431 0.01629 0.0
C279 C 0.43889 0.39575 0.02903 0.0
C280 C 0.42322 0.41942 0.02658 0.0
C281 C 0.47525 0.42234 0.01027 0.0
C282 C 0.46484 0.39723 0.02037 0.0
O283 O 0.53921 0.52632 1.00318 0.0
O284 O 0.4949 0.52704 0.97472 0.0
O285 O 0.48422 0.4693 0.94924 0.0
O286 O 0.44589 0.49076 0.94869 0.0
O287 O 0.49712 0.54315 0.04456 0.0
O288 O 0.46683 0.52998 1.00142 0.0
O289 O 0.48368 0.46693 0.04213 0.0
O290 O 0.49531 0.50289 0.06846 0.0
O291 O 0.54211 0.54253 0.09478 0.0
O292 O 0.55736 0.50073 0.10319 0.0
O293 O 0.5203 0.47548 0.99699 0.0
O294 O 0.53783 0.47341 0.05045 0.0
C295 C 0.52101 0.53263 0.97687 0.0
C296 C 0.47477 0.54623 0.02281 0.0
C297 C 0.44897 0.47413 0.89988 0.0
C298 C 0.44638 0.4518 0.85245 0.0
C299 C 0.41451 0.4883 0.85291 0.0
C300 C 0.42677 0.491 0.88387 0.0
C301 C 0.42421 0.46884 0.83728 0.0
C302 C 0.45887 0.45431 0.88398 0.0
C303 C 0.46016 0.4773 0.93335 0.0
C304 C 0.39645 0.41884 0.03326 0.0
C305 C 0.38071 0.4427 0.02827 0.0
H306 H 0.43087 0.37624 0.03678 0.0
C307 C 0.48689 0.47804 0.06842 0.0
C308 C 0.53517 0.46316 0.02336 0.0
C309 C 0.56621 0.52615 0.14846 0.0
C310 C 0.56967 0.5502 0.19486 0.0
C311 C 0.59775 0.51011 0.19724 0.0
C312 C 0.58617 0.50752 0.16592 0.0
C313 C 0.58957 0.53125 0.21163 0.0
C314 C 0.55792 0.54773 0.16308 0.0
C315 C 0.55518 0.52317 0.11488 0.0
H316 H 0.39736 0.5013 0.841 0.0
H317 H 0.41863 0.50638 0.89535 0.0
H318 H 0.4143 0.46697 0.81318 0.0
H319 H 0.47578 0.44097 0.89594 0.0
H320 H 0.61325 0.49573 0.21039 0.0
H321 H 0.59314 0.49105 0.1552 0.0
H322 H 0.59889 0.53291 0.23601 0.0
H323 H 0.54268 0.56245 0.14994 0.0
H324 H 0.27494 0.14849 0.46415 0.0
H325 H 0.23548 0.1194 0.47038 0.0
H326 H 0.18521 0.1898 0.46929 0.0
H327 H 0.22439 0.21877 0.46246 0.0
H328 H 0.18186 0.14963 0.52027 0.0
H329 H 0.1771 0.15739 0.40553 0.0
H330 H 0.19422 0.15274 0.35578 0.0
H331 H 0.20726 0.06764 0.38617 0.0
H332 H 0.19053 0.07187 0.43629 0.0
H333 H 0.05215 0.09186 0.51845 0.0
H334 H 0.09061 0.11945 0.50758 0.0
H335 H 0.12834 0.05147 0.47874 0.0
H336 H 0.08822 0.02525 0.48507 0.0
H337 H 0.14028 0.08942 0.4438 0.0
H338 H 0.14695 0.07912 0.55804 0.0
H339 H 0.13088 0.08156 0.60898 0.0
H340 H 0.11786 0.16718 0.5835 0.0
H341 H 0.13354 0.16517 0.53228 0.0
C342 C 0.25534 0.15762 0.46497 0.0
C343 C 0.25251 0.18577 0.4627 0.0
C344 C 0.23286 0.14108 0.46842 0.0
C345 C 0.20737 0.15246 0.47017 0.0
C346 C 0.20464 0.18061 0.46788 0.0
C347 C 0.22693 0.19712 0.46387 0.0
C348 C 0.18373 0.1352 0.47579 0.0
C349 C 0.17259 0.13657 0.50346 0.0
C350 C 0.17228 0.11744 0.45451 0.0
C351 C 0.18291 0.11503 0.42478 0.0
C352 C 0.18394 0.13776 0.40175 0.0
C353 C 0.19348 0.13518 0.37346 0.0
C354 C 0.20191 0.10993 0.36786 0.0
C355 C 0.20079 0.08719 0.39056 0.0
C356 C 0.19128 0.08967 0.4189 0.0
C357 C 0.06836 0.08273 0.50974 0.0
C358 C 0.06687 0.05589 0.5037 0.0
C359 C 0.09084 0.09853 0.50388 0.0
C360 C 0.11326 0.08746 0.49347 0.0
C361 C 0.11165 0.06075 0.48699 0.0
C362 C 0.08859 0.04551 0.49119 0.0
C363 C 0.13806 0.10365 0.48855 0.0
C364 C 0.14955 0.10212 0.461 0.0
C365 C 0.15034 0.12074 0.51043 0.0
C366 C 0.1412 0.12196 0.54131 0.0
C367 C 0.14054 0.09843 0.56329 0.0
C368 C 0.13151 0.09974 0.59219 0.0
C369 C 0.1233 0.1245 0.59945 0.0
C370 C 0.1242 0.14801 0.57785 0.0
C371 C 0.13318 0.14681 0.54892 0.0
H372 H 0.1163 0.12547 0.62182 0.0
H373 H 0.20923 0.10796 0.3459 0.0
H374 H 0.37503 0.78421 0.03052 0.0
H375 H 0.40291 0.74361 0.03048 0.0
H376 H 0.33215 0.69428 0.03815 0.0
H377 H 0.3044 0.73468 0.03793 0.0
H378 H 0.37779 0.6719 0.07768 0.0
H379 H 0.35257 0.71181 0.96701 0.0
H380 H 0.35055 0.747 0.92023 0.0
H381 H 0.43836 0.74837 0.93436 0.0
H382 H 0.44088 0.71348 0.98154 0.0
H383 H 0.42357 0.54923 0.03736 0.0
H384 H 0.39746 0.59023 0.0396 0.0
H385 H 0.46384 0.63874 0.01121 0.0
H386 H 0.48802 0.59796 0.00518 0.0
H387 H 0.42163 0.66262 0.98401 0.0
H388 H 0.4486 0.62338 0.09389 0.0
H389 H 0.45216 0.58866 0.14137 0.0
H390 H 0.36452 0.58675 0.131 0.0
H391 H 0.36045 0.62123 0.08326 0.0
C392 C 0.36564 0.76461 0.0326 0.0
C393 C 0.33764 0.76243 0.0342 0.0
C394 C 0.38147 0.74151 0.03236 0.0
C395 C 0.36953 0.71593 0.03401 0.0
C396 C 0.34178 0.71377 0.03678 0.0
C397 C 0.32594 0.73681 0.0366 0.0
C398 C 0.38552 0.69133 0.03214 0.0
C399 C 0.38729 0.66976 0.05714 0.0
C400 C 0.39847 0.68877 0.00573 0.0
C401 C 0.3969 0.71033 0.97803 0.0
C402 C 0.37143 0.71988 0.96038 0.0
C403 C 0.3702 0.73971 0.93374 0.0
C404 C 0.39431 0.74998 0.92439 0.0
C405 C 0.4197 0.74046 0.94168 0.0
C406 C 0.42104 0.72068 0.96837 0.0
C407 C 0.43216 0.56874 0.03097 0.0
C408 C 0.458 0.57058 0.02177 0.0
C409 C 0.41754 0.59217 0.0329 0.0
C410 C 0.42898 0.61777 0.02667 0.0
C411 C 0.45456 0.61939 0.01657 0.0
C412 C 0.46867 0.59606 0.01365 0.0
C413 C 0.41426 0.64297 0.02975 0.0
C414 C 0.41254 0.66469 0.00487 0.0
C415 C 0.40177 0.6458 0.05655 0.0
C416 C 0.40423 0.6247 0.08487 0.0
C417 C 0.4301 0.61538 0.10159 0.0
C418 C 0.4322 0.59578 0.12858 0.0
C419 C 0.40858 0.58547 0.13916 0.0
C420 C 0.3828 0.59473 0.12277 0.0
C421 C 0.38058 0.61431 0.09577 0.0
H422 H 0.41026 0.57034 0.16009 0.0
H423 H 0.39331 0.76526 0.90368 0.0
H424 H 0.78875 0.78913 0.57535 0.0
H425 H 0.82635 0.8196 0.56932 0.0
H426 H 0.77638 0.8863 0.58194 0.0
H427 H 0.73784 0.85591 0.5864 0.0
H428 H 0.80351 0.90034 0.53333 0.0
H429 H 0.82951 0.85895 0.64206 0.0
H430 H 0.8385 0.82123 0.68634 0.0
H431 H 0.90021 0.78902 0.642 0.0
H432 H 0.8914 0.82642 0.59732 0.0
H433 H 0.92911 0.97861 0.57028 0.0
H434 H 0.88862 0.9527 0.57939 0.0
H435 H 0.91025 0.89477 0.52207 0.0
H436 H 0.94838 0.92233 0.50923 0.0
H437 H 0.89656 0.87952 0.59586 0.0
H438 H 0.86843 0.91898 0.48556 0.0
H439 H 0.85986 0.95645 0.4412 0.0
H440 H 0.80088 0.99134 0.48712 0.0
H441 H 0.81008 0.9546 0.53259 0.0
C442 C 0.78555 0.8103 0.57663 0.0
C443 C 0.76006 0.82002 0.58109 0.0
C444 C 0.80729 0.82769 0.5736 0.0
C445 C 0.80442 0.85525 0.57558 0.0
C446 C 0.77915 0.86509 0.58043 0.0
C447 C 0.7572 0.84764 0.58328 0.0
C448 C 0.82769 0.87363 0.57155 0.0
C449 C 0.82372 0.89604 0.54743 0.0
C450 C 0.85428 0.86782 0.58944 0.0
C451 C 0.85968 0.84538 0.6163 0.0
C452 C 0.84488 0.84373 0.64169 0.0
C453 C 0.84997 0.82243 0.66687 0.0
C454 C 0.86988 0.80272 0.66696 0.0
C455 C 0.8848 0.8043 0.64191 0.0
C456 C 0.8798 0.82557 0.61669 0.0
C457 C 0.92507 0.96066 0.55897 0.0
C458 C 0.9423 0.95282 0.53867 0.0
C459 C 0.90195 0.9458 0.56445 0.0
C460 C 0.89634 0.92201 0.55112 0.0
C461 C 0.91406 0.91334 0.5322 0.0
C462 C 0.93623 0.92903 0.52519 0.0
C463 C 0.87233 0.9058 0.5575 0.0
C464 C 0.87622 0.88391 0.58209 0.0
C465 C 0.84576 0.91203 0.53995 0.0
C466 C 0.84059 0.93444 0.51298 0.0
C467 C 0.85424 0.93502 0.4867 0.0
C468 C 0.84915 0.95606 0.46124 0.0
C469 C 0.83 0.9764 0.46145 0.0
C470 C 0.81589 0.9757 0.48713 0.0
C471 C 0.82113 0.95482 0.51282 0.0
H472 H 0.82595 0.99259 0.44161 0.0
H473 H 0.87378 0.78624 0.68647 0.0
H474 H 0.6602 0.25266 0.96097 0.0
H475 H 0.63322 0.29361 0.96095 0.0
H476 H 0.6542 0.28525 0.06361 0.0
H477 H 0.68114 0.24453 0.06382 0.0
H478 H 0.60118 0.29668 0.04468 0.0
H479 H 0.68476 0.33165 0.01406 0.0
H480 H 0.72074 0.33619 0.98052 0.0
H481 H 0.6612 0.36695 0.89859 0.0
H482 H 0.62476 0.36211 0.93158 0.0
H483 H 0.56203 0.42685 0.07315 0.0
H484 H 0.58688 0.3854 0.06994 0.0
H485 H 0.56626 0.39975 0.96716 0.0
H486 H 0.54207 0.44142 0.97012 0.0
H487 H 0.61794 0.38493 0.98343 0.0
H488 H 0.53452 0.35047 0.01349 0.0
H489 H 0.49709 0.33802 0.04376 0.0
H490 H 0.5553 0.30321 0.12475 0.0
H491 H 0.59308 0.31583 0.09543 0.0
C492 C 0.6592 0.25964 0.98353 0.0
C493 C 0.67286 0.2452 0.01241 0.0
C494 C 0.64377 0.28309 0.98347 0.0
C495 C 0.64187 0.29277 0.01226 0.0
C496 C 0.65527 0.27823 0.04108 0.0
C497 C 0.67059 0.25481 0.04117 0.0
C498 C 0.62565 0.31774 0.01276 0.0
C499 C 0.60515 0.3161 0.03172 0.0
C500 C 0.6301 0.34289 0.99491 0.0
C501 C 0.65201 0.34626 0.9752 0.0
C502 C 0.67932 0.33921 0.98885 0.0
C503 C 0.69979 0.34184 0.96994 0.0
C504 C 0.69325 0.35178 0.93742 0.0
C505 C 0.66622 0.3592 0.92377 0.0
C506 C 0.64566 0.35652 0.94256 0.0
C507 C 0.56291 0.42129 0.04984 0.0
C508 C 0.5502 0.43771 0.0219 0.0
C509 C 0.57692 0.39738 0.04804 0.0
C510 C 0.57834 0.38919 0.01828 0.0
C511 C 0.56559 0.40555 0.99041 0.0
C512 C 0.55167 0.42942 0.99218 0.0
C513 C 0.59368 0.36404 0.01606 0.0
C514 C 0.61399 0.3656 0.99661 0.0
C515 C 0.58905 0.33873 0.0335 0.0
C516 C 0.56666 0.33445 0.05241 0.0
C517 C 0.53939 0.34087 0.03807 0.0
C518 C 0.5181 0.33379 0.05505 0.0
C519 C 0.52382 0.32033 0.08628 0.0
C520 C 0.55087 0.314 0.10071 0.0
C521 C 0.57223 0.32117 0.084 0.0
H522 H 0.50725 0.31451 0.09911 0.0
H523 H 0.70913 0.35379 0.92281 0.0
H524 H 0.19941 0.9575 0.14497 0.0
H525 H 0.17768 0.97 0.18752 0.0
H526 H 0.16571 0.88598 0.22009 0.0
H527 H 0.18396 0.87341 0.17528 0.0
H528 H 0.12309 0.91044 0.22263 0.0
H529 H 0.21819 0.93047 0.25827 0.0
H530 H 0.26193 0.95272 0.25256 0.0
H531 H 0.22206 0.03042 0.24015 0.0
H532 H 0.17804 0.00861 0.24551 0.0
H533 H 0.10515 0.90935 0.37961 0.0
H534 H 0.13335 0.91037 0.33784 0.0
H535 H 0.10039 0.98933 0.29612 0.0
H536 H 0.07163 0.98812 0.33784 0.0
H537 H 0.16374 0.97366 0.29603 0.0
H538 H 0.06887 0.95215 0.26217 0.0
H539 H 0.02558 0.92886 0.26704 0.0
H540 H 0.06671 0.85214 0.27581 0.0
H541 H 0.11039 0.87502 0.27168 0.0
C542 C 0.19171 0.94153 0.16063 0.0
C543 C 0.19361 0.91426 0.15606 0.0
C544 C 0.17977 0.94881 0.18563 0.0
C545 C 0.17043 0.92899 0.20766 0.0
C546 C 0.17275 0.90179 0.20358 0.0
C547 C 0.18377 0.89455 0.17799 0.0
C548 C 0.15711 0.93629 0.23415 0.0
C549 C 0.13232 0.92403 0.23879 0.0
C550 C 0.16835 0.95483 0.25479 0.0
C551 C 0.19484 0.96792 0.25208 0.0
C552 C 0.21876 0.9523 0.25422 0.0
C553 C 0.24359 0.96483 0.25105 0.0
C554 C 0.24476 0.99296 0.24595 0.0
C555 C 0.22112 0.00863 0.2441 0.0
C556 C 0.19625 0.9962 0.24726 0.0
C557 C 0.10489 0.92745 0.36242 0.0
C558 C 0.08651 0.94878 0.36214 0.0
C559 C 0.12084 0.92794 0.33844 0.0
C560 C 0.1188 0.94983 0.31381 0.0
C561 C 0.10237 0.97233 0.31507 0.0
C562 C 0.08613 0.97172 0.33901 0.0
C563 C 0.13052 0.94701 0.28477 0.0
C564 C 0.15474 0.96015 0.27966 0.0
C565 C 0.11898 0.9291 0.26372 0.0
C566 C 0.09295 0.91529 0.26714 0.0
C567 C 0.06877 0.93031 0.26569 0.0
C568 C 0.04414 0.91719 0.26818 0.0
C569 C 0.04341 0.88903 0.27186 0.0
C570 C 0.06732 0.87394 0.27308 0.0
C571 C 0.09202 0.88698 0.27069 0.0
H572 H 0.02429 0.87891 0.27365 0.0
H573 H 0.264 0.00262 0.24347 0.0
H574 H 0.62022 0.6911 0.75978 0.0
H575 H 0.60321 0.66789 0.80638 0.0
H576 H 0.56759 0.6073 0.7507 0.0
H577 H 0.5827 0.63134 0.70361 0.0
H578 H 0.53414 0.61791 0.78651 0.0
H579 H 0.63073 0.59866 0.80511 0.0
H580 H 0.67963 0.60984 0.81097 0.0
H581 H 0.67206 0.65129 0.89024 0.0
H582 H 0.62297 0.64076 0.8845 0.0
H583 H 0.51226 0.51958 0.91658 0.0
H584 H 0.52782 0.54365 0.86918 0.0
H585 H 0.56432 0.60379 0.92521 0.0
H586 H 0.54929 0.57923 0.97236 0.0
H587 H 0.59755 0.59338 0.88903 0.0
H588 H 0.49983 0.61179 0.86933 0.0
H589 H 0.4509 0.60052 0.86162 0.0
H590 H 0.46104 0.55924 0.78301 0.0
H591 H 0.5101 0.56992 0.79056 0.0
C592 C 0.60841 0.67308 0.75726 0.0
C593 C 0.6032 0.663 0.72784 0.0
C594 C 0.59899 0.65958 0.78413 0.0
C595 C 0.5846 0.63542 0.78238 0.0
C596 C 0.57882 0.62573 0.75287 0.0
C597 C 0.58784 0.63939 0.72596 0.0
C598 C 0.57553 0.62009 0.81109 0.0
C599 C 0.54812 0.61228 0.80882 0.0
C600 C 0.59354 0.61307 0.84046 0.0
C601 C 0.62312 0.61915 0.84416 0.0
C602 C 0.63945 0.61031 0.82366 0.0
C603 C 0.6672 0.61653 0.82696 0.0
C604 C 0.67893 0.63133 0.85091 0.0
C605 C 0.66294 0.63987 0.87166 0.0
C606 C 0.63515 0.63379 0.86839 0.0
C607 C 0.52369 0.53792 0.91864 0.0
C608 C 0.53013 0.54734 0.94827 0.0
C609 C 0.53243 0.5518 0.89151 0.0
C610 C 0.54703 0.57586 0.89331 0.0
C611 C 0.5533 0.58524 0.92303 0.0
C612 C 0.54495 0.5711 0.95016 0.0
C613 C 0.55606 0.59125 0.86453 0.0
C614 C 0.58352 0.59904 0.86676 0.0
C615 C 0.53813 0.59806 0.83501 0.0
C616 C 0.50869 0.59142 0.83074 0.0
C617 C 0.49167 0.60011 0.85059 0.0
C618 C 0.4639 0.59385 0.84621 0.0
C619 C 0.45288 0.57911 0.82191 0.0
C620 C 0.4696 0.57061 0.80188 0.0
C621 C 0.49738 0.57676 0.80619 0.0
H622 H 0.43138 0.57431 0.81854 0.0
H623 H 0.70042 0.63612 0.85343 0.0
H624 H 0.87709 0.07058 0.16726 0.0
H625 H 0.903 0.05832 0.22028 0.0
H626 H 0.83038 0.06813 0.26089 0.0
H627 H 0.80511 0.08431 0.2083 0.0
H628 H 0.86788 0.08847 0.29418 0.0
H629 H 0.86457 0.00243 0.25584 0.0
H630 H 0.87072 0.97095 0.2181 0.0
H631 H 0.95667 0.98729 0.22986 0.0
H632 H 0.95096 0.01905 0.26742 0.0
H633 H 0.92224 0.02377 0.44999 0.0
H634 H 0.89656 0.036 0.3964 0.0
H635 H 0.97168 0.03731 0.35814 0.0
H636 H 0.99768 0.02568 0.41226 0.0
H637 H 0.93364 0.01109 0.32396 0.0
H638 H 0.9362 0.09732 0.36148 0.0
H639 H 0.92883 0.1338 0.39244 0.0
H640 H 0.84292 0.11739 0.3808 0.0
H641 H 0.84981 0.08071 0.34997 0.0
C642 C 0.86648 0.07083 0.18725 0.0
C643 C 0.8387 0.07904 0.18273 0.0
C644 C 0.88137 0.06296 0.21786 0.0
C645 C 0.8687 0.06163 0.24491 0.0
C646 C 0.84081 0.06887 0.24055 0.0
C647 C 0.82614 0.07779 0.21005 0.0
C648 C 0.88477 0.05449 0.27783 0.0
C649 C 0.88174 0.0711 0.30079 0.0
C650 C 0.90381 0.03252 0.28645 0.0
C651 C 0.9073 0.01321 0.26422 0.0
C652 C 0.88475 0.99937 0.25024 0.0
C653 C 0.88816 0.98148 0.22891 0.0
C654 C 0.91406 0.97716 0.22153 0.0
C655 C 0.93662 0.99065 0.23558 0.0
C656 C 0.93332 0.00856 0.25693 0.0
C657 C 0.93344 0.0273 0.43042 0.0
C658 C 0.96213 0.02449 0.43572 0.0
C659 C 0.91866 0.0342 0.3996 0.0
C660 C 0.93217 0.03817 0.37316 0.0
C661 C 0.96079 0.03465 0.37819 0.0
C662 C 0.97564 0.02798 0.40916 0.0
C663 C 0.91627 0.04484 0.34026 0.0
C664 C 0.91944 0.02819 0.31735 0.0
C665 C 0.89709 0.06661 0.33174 0.0
C666 C 0.89356 0.08623 0.35357 0.0
C667 C 0.91584 0.10118 0.36602 0.0
C668 C 0.91169 0.12205 0.38327 0.0
C669 C 0.88536 0.12815 0.38812 0.0
C670 C 0.86325 0.11283 0.3767 0.0
C671 C 0.86726 0.092 0.35938 0.0
H672 H 0.88211 0.14469 0.4009 0.0
H673 H 0.91665 0.96333 0.20497 0.0
H674 H 0.38572 0.30709 0.63432 0.0
H675 H 0.40015 0.32501 0.68443 0.0
H676 H 0.44478 0.38727 0.63596 0.0
H677 H 0.43062 0.36914 0.58567 0.0
H678 H 0.47376 0.368 0.6926 0.0
H679 H 0.38221 0.40064 0.65454 0.0
H680 H 0.33294 0.39757 0.63393 0.0
H681 H 0.32247 0.34652 0.72006 0.0
H682 H 0.3718 0.34894 0.741 0.0
H683 H 0.47759 0.46038 0.80638 0.0
H684 H 0.4759 0.43427 0.76213 0.0
H685 H 0.43051 0.37276 0.81076 0.0
H686 H 0.43169 0.39942 0.85472 0.0
H687 H 0.40304 0.39103 0.75412 0.0
H688 H 0.49634 0.3601 0.79208 0.0
H689 H 0.54569 0.36497 0.81095 0.0
H690 H 0.55248 0.41614 0.72359 0.0
H691 H 0.50311 0.41174 0.70432 0.0
C692 C 0.39851 0.32467 0.63429 0.0
C693 C 0.40683 0.33685 0.60599 0.0
C694 C 0.40678 0.33488 0.66296 0.0
C695 C 0.42321 0.35775 0.66389 0.0
C696 C 0.4321 0.36961 0.63583 0.0
C697 C 0.424 0.35924 0.60712 0.0
C698 C 0.43059 0.36951 0.69406 0.0
C699 C 0.45829 0.37328 0.70593 0.0
C700 C 0.41046 0.37614 0.71165 0.0
C701 C 0.38075 0.37477 0.69921 0.0
C702 C 0.36944 0.3886 0.66899 0.0
C703 C 0.3415 0.387 0.65726 0.0
C704 C 0.3246 0.37181 0.67565 0.0
C705 C 0.3356 0.35825 0.70583 0.0
C706 C 0.36354 0.35974 0.71765 0.0
C707 C 0.46854 0.44061 0.8083 0.0
C708 C 0.45516 0.43164 0.83406 0.0
C709 C 0.46742 0.42572 0.78291 0.0
C710 C 0.45303 0.40149 0.78299 0.0
C711 C 0.44173 0.39139 0.81014 0.0
C712 C 0.44275 0.40638 0.83548 0.0
C713 C 0.44632 0.38898 0.75321 0.0
C714 C 0.4186 0.38541 0.74111 0.0
C715 C 0.46642 0.38291 0.73526 0.0
C716 C 0.49603 0.38572 0.74687 0.0
C717 C 0.50833 0.37254 0.777 0.0
C718 C 0.53631 0.37517 0.78774 0.0
C719 C 0.5522 0.39089 0.76851 0.0
C720 C 0.54015 0.40397 0.73847 0.0
C721 C 0.51219 0.40137 0.7276 0.0
H722 H 0.57386 0.39289 0.77686 0.0
H723 H 0.30297 0.3706 0.66653 0.0
H724 H 0.63637 0.6872 0.41693 0.0
H725 H 0.62337 0.66822 0.36718 0.0
H726 H 0.55255 0.63279 0.40167 0.0
H727 H 0.56626 0.65087 0.4521 0.0
H728 H 0.575 0.59838 0.37374 0.0
H729 H 0.54907 0.69245 0.34335 0.0
H730 H 0.55764 0.74126 0.33974 0.0
H731 H 0.62149 0.73241 0.28542 0.0
H732 H 0.61347 0.68351 0.28897 0.0
H733 H 0.52761 0.55249 0.22799 0.0
H734 H 0.52622 0.58016 0.2706 0.0
H735 H 0.59684 0.62302 0.24514 0.0
H736 H 0.59732 0.59621 0.20186 0.0
H737 H 0.56915 0.65539 0.26836 0.0
H738 H 0.59858 0.56235 0.30152 0.0
H739 H 0.5942 0.51289 0.30817 0.0
H740 H 0.52826 0.51881 0.36033 0.0
H741 H 0.53182 0.56838 0.35332 0.0
C742 C 0.61796 0.67545 0.41377 0.0
C743 C 0.60217 0.67067 0.43818 0.0
C744 C 0.61044 0.66473 0.38526 0.0
C745 C 0.58654 0.64962 0.3802 0.0
C746 C 0.57096 0.64452 0.40484 0.0
C747 C 0.57878 0.65483 0.43362 0.0
C748 C 0.57815 0.63862 0.34955 0.0
C749 C 0.57315 0.61096 0.35069 0.0
C750 C 0.57641 0.65484 0.3194 0.0
C751 C 0.58069 0.68434 0.31647 0.0
C752 C 0.56495 0.70093 0.33066 0.0
C753 C 0.56972 0.7286 0.32865 0.0
C754 C 0.5901 0.73993 0.31237 0.0
C755 C 0.60569 0.72362 0.29798 0.0
C756 C 0.60099 0.69594 0.29991 0.0
C757 C 0.54193 0.56874 0.2306 0.0
C758 C 0.5625 0.57237 0.21164 0.0
C759 C 0.54147 0.58425 0.25531 0.0
C760 C 0.56207 0.60307 0.26198 0.0
C761 C 0.58088 0.60849 0.24087 0.0
C762 C 0.58109 0.59326 0.21596 0.0
C763 C 0.56612 0.61499 0.29246 0.0
C764 C 0.57045 0.64284 0.29136 0.0
C765 C 0.56758 0.59885 0.32273 0.0
C766 C 0.56518 0.56909 0.32644 0.0
C767 C 0.58295 0.55312 0.31409 0.0
C768 C 0.58063 0.52507 0.31795 0.0
C769 C 0.5609 0.51272 0.33456 0.0
C770 C 0.54345 0.52841 0.34734 0.0
C771 C 0.54556 0.55648 0.34337 0.0
H772 H 0.5592 0.49099 0.33763 0.0
H773 H 0.5938 0.76135 0.31088 0.0
H774 H 0.79173 0.05785 0.88439 0.0
H775 H 0.81125 0.04523 0.83927 0.0
H776 H 0.86692 0.11139 0.84555 0.0
H777 H 0.84775 0.12387 0.89047 0.0
H778 H 0.83809 0.10895 0.78378 0.0
H779 H 0.8912 0.05083 0.87254 0.0
H780 H 0.89659 0.01546 0.91947 0.0
H781 H 0.85651 0.95899 0.86132 0.0
H782 H 0.85059 0.99419 0.81407 0.0
H783 H 0.94541 0.09769 0.70279 0.0
H784 H 0.91451 0.10012 0.74044 0.0
H785 H 0.8842 0.02133 0.72498 0.0
H786 H 0.91693 0.01807 0.68828 0.0
H787 H 0.89118 0.02459 0.78644 0.0
H788 H 0.84179 0.08304 0.69598 0.0
H789 H 0.83732 0.11944 0.65007 0.0
H790 H 0.87057 0.1758 0.71245 0.0
H791 H 0.87513 0.13976 0.75866 0.0
C792 C 0.8081 0.06967 0.876 0.0
C793 C 0.81826 0.09183 0.89087 0.0
C794 C 0.81933 0.06234 0.85045 0.0
C795 C 0.84059 0.07733 0.83918 0.0
C796 C 0.85056 0.09953 0.85392 0.0
C797 C 0.83966 0.1066 0.87962 0.0
C798 C 0.8521 0.07084 0.81132 0.0
C799 C 0.84967 0.09048 0.78432 0.0
C800 C 0.86643 0.04639 0.81164 0.0
C801 C 0.87015 0.0252 0.83989 0.0
C802 C 0.88333 0.03093 0.86983 0.0
C803 C 0.88653 0.01091 0.89646 0.0
C804 C 0.87681 0.98502 0.8934 0.0
C805 C 0.86397 0.97907 0.86366 0.0
C806 C 0.86071 0.99904 0.83694 0.0
C807 C 0.93223 0.0808 0.70732 0.0
C808 C 0.93395 0.05756 0.69278 0.0
C809 C 0.91413 0.08239 0.72858 0.0
C810 C 0.8964 0.0612 0.73522 0.0
C811 C 0.89747 0.03808 0.72014 0.0
C812 C 0.91601 0.03632 0.69896 0.0
C813 C 0.87798 0.06322 0.75908 0.0
C814 C 0.87899 0.04275 0.78537 0.0
C815 C 0.8622 0.08696 0.75823 0.0
C816 C 0.85884 0.10874 0.73065 0.0
C817 C 0.84814 0.10321 0.69983 0.0
C818 C 0.84556 0.12377 0.67379 0.0
C819 C 0.85369 0.14991 0.67833 0.0
C820 C 0.86422 0.15558 0.70896 0.0
C821 C 0.86667 0.13514 0.73509 0.0
H822 H 0.85181 0.16577 0.65812 0.0
H823 H 0.8793 0.96954 0.91405 0.0
H824 H 0.42824 0.37515 0.34239 0.0
H825 H 0.44289 0.4004 0.29522 0.0
H826 H 0.40629 0.34129 0.23792 0.0
H827 H 0.39161 0.31585 0.28517 0.0
H828 H 0.45892 0.35553 0.22749 0.0
H829 H 0.3743 0.39966 0.23138 0.0
H830 H 0.34208 0.42184 0.25801 0.0
H831 H 0.39966 0.48457 0.27529 0.0
H832 H 0.43242 0.4625 0.24918 0.0
H833 H 0.46755 0.42673 0.07631 0.0
H834 H 0.45206 0.40226 0.12272 0.0
H835 H 0.47557 0.46837 0.1754 0.0
H836 H 0.48933 0.49394 0.12775 0.0
H837 H 0.42901 0.45064 0.18892 0.0
H838 H 0.51379 0.4075 0.18674 0.0
H839 H 0.54957 0.38307 0.16791 0.0
H840 H 0.49489 0.31772 0.1524 0.0
H841 H 0.45852 0.34208 0.17031 0.0
C842 C 0.42347 0.36744 0.31978 0.0
C843 C 0.40876 0.34354 0.31744 0.0
C844 C 0.43166 0.382 0.29282 0.0
C845 C 0.42542 0.37289 0.263 0.0
C846 C 0.41118 0.34875 0.26068 0.0
C847 C 0.40271 0.33432 0.28761 0.0
C848 C 0.43401 0.38848 0.23434 0.0
C849 C 0.45202 0.37617 0.21863 0.0
C850 C 0.42572 0.41568 0.22356 0.0
C851 C 0.40587 0.42934 0.23856 0.0
C852 C 0.38014 0.41811 0.24103 0.0
C853 C 0.36178 0.43066 0.25601 0.0
C854 C 0.36884 0.45458 0.2684 0.0
C855 C 0.39423 0.46604 0.2657 0.0
C856 C 0.4127 0.45353 0.25078 0.0
C857 C 0.46894 0.43641 0.0974 0.0
C858 C 0.47904 0.46267 0.09778 0.0
C859 C 0.4605 0.4221 0.12431 0.0
C860 C 0.46286 0.43322 0.15289 0.0
C861 C 0.47337 0.45931 0.15364 0.0
C862 C 0.48134 0.4739 0.12637 0.0
C863 C 0.45406 0.41768 0.1817 0.0
C864 C 0.43592 0.42997 0.19752 0.0
C865 C 0.4624 0.39043 0.19278 0.0
C866 C 0.4834 0.37672 0.17959 0.0
C867 C 0.50923 0.38815 0.17872 0.0
C868 C 0.52962 0.37431 0.16829 0.0
C869 C 0.52449 0.34891 0.15899 0.0
C870 C 0.49881 0.33745 0.15952 0.0
C871 C 0.47828 0.35129 0.16975 0.0
H872 H 0.54059 0.33805 0.15176 0.0
H873 H 0.35461 0.46425 0.28003 0.0
H874 H 0.18646 0.96637 0.85642 0.0
H875 H 0.15924 0.9807 0.80346 0.0
H876 H 0.12207 0.90261 0.80596 0.0
H877 H 0.14847 0.88841 0.85885 0.0
H878 H 0.14069 0.91701 0.75144 0.0
H879 H 0.08703 0.95717 0.81513 0.0
H880 H 0.07832 0.98565 0.85488 0.0
H881 H 0.10043 0.05598 0.79574 0.0
H882 H 0.10991 0.0278 0.75591 0.0
H883 H 0.04154 0.94195 0.61055 0.0
H884 H 0.06627 0.93001 0.66487 0.0
H885 H 0.08917 0.01308 0.66717 0.0
H886 H 0.06295 0.02534 0.61351 0.0
H887 H 0.07796 0.9967 0.72055 0.0
H888 H 0.13881 0.95479 0.66196 0.0
H889 H 0.15696 0.92413 0.62995 0.0
H890 H 0.122 0.85649 0.68094 0.0
H891 H 0.10513 0.88655 0.71466 0.0
C892 C 0.17219 0.95238 0.84591 0.0
C893 C 0.16988 0.92612 0.86191 0.0
C894 C 0.15666 0.96061 0.8156 0.0
C895 C 0.13852 0.94276 0.80077 0.0
C896 C 0.13599 0.91671 0.81685 0.0
C897 C 0.15132 0.90855 0.84707 0.0
C898 C 0.12309 0.95043 0.76784 0.0
C899 C 0.12667 0.93426 0.74476 0.0
C900 C 0.10535 0.97329 0.75895 0.0
C901 C 0.09951 0.99032 0.78272 0.0
C902 C 0.09033 0.97867 0.81074 0.0
C903 C 0.08522 0.99476 0.83328 0.0
C904 C 0.0889 0.0226 0.82789 0.0
C905 C 0.09765 0.0344 0.79991 0.0
C906 C 0.10292 0.01837 0.77735 0.0
C907 C 0.05193 0.95768 0.62257 0.0
C908 C 0.05025 0.98462 0.6076 0.0
C909 C 0.0664 0.95076 0.65367 0.0
C910 C 0.08031 0.97045 0.67028 0.0
C911 C 0.07873 0.99737 0.65516 0.0
C912 C 0.06376 0.0044 0.62433 0.0
C913 C 0.09567 0.96327 0.70366 0.0
C914 C 0.09201 0.97949 0.72701 0.0
C915 C 0.11337 0.94032 0.713 0.0
C916 C 0.12031 0.92294 0.69031 0.0
C917 C 0.13457 0.93346 0.66589 0.0
C918 C 0.14477 0.91616 0.6476 0.0
C919 C 0.14013 0.88847 0.65289 0.0
C920 C 0.12539 0.87796 0.67667 0.0
C921 C 0.11573 0.89506 0.69556 0.0
H922 H 0.14824 0.87511 0.63882 0.0
H923 H 0.08491 0.03503 0.84536 0.0
loop_
_geom_bond_atom_site_label_1
_geom_bond_atom_site_label_2
_geom_bond_distance
_geom_bond_site_symmetry_2
_ccdc_geom_bond_type
C0 C1 1.386 . S
C0 C2 1.397 . S
C0 H24 0.931 . S
C1 C0 1.386 . S
C1 C5 1.397 . S
C2 C0 1.397 . S
C2 C3 1.384 . S
C2 H25 0.930 . S
C3 C2 1.384 . S
C3 C4 1.377 . S
C3 C6 1.481 . S
C4 C3 1.377 . S
C4 C5 1.389 . S
C4 H26 0.929 . S
C5 C1 1.397 . S
C5 C4 1.389 . S
C5 H27 0.931 . S
C6 C3 1.481 . S
C6 C7 1.387 . S
C6 C11 1.390 1_556 S
C7 C6 1.387 . S
C7 C8 1.401 1_556 S
C7 H28 0.930 . S
C8 C7 1.401 1_554 S
C8 C9 1.376 . S
C8 C17 1.511 . S
C9 C8 1.376 . S
C9 C10 1.392 . S
C9 H30 0.931 . S
C10 C9 1.392 . S
C10 C11 1.361 . S
C10 C12 1.500 . S
C11 C6 1.390 1_554 S
C11 C10 1.361 . S
C11 H29 0.931 . S
C12 C10 1.500 . S
C12 C13 1.371 . S
C12 C14 1.365 . S
C13 C12 1.371 . S
C13 C23 1.386 . S
C13 H31 0.931 . S
C14 C12 1.365 . S
C14 C15 1.409 . S
C14 H32 0.929 . S
C15 C14 1.409 . S
C15 C16 1.380 . S
C15 H33 0.930 . S
C16 C15 1.380 . S
C16 C23 1.357 . S
C17 C8 1.511 . S
C17 C18 1.341 . S
C17 C19 1.371 . S
C18 C17 1.341 . S
C18 C22 1.394 . S
C18 H34 0.930 1_554 S
C19 C17 1.371 . S
C19 C20 1.392 . S
C19 H35 0.931 . S
C20 C19 1.392 . S
C20 C21 1.331 . S
C20 H38 0.932 . S
C21 C20 1.331 . S
C21 C22 1.336 . S
C22 C18 1.394 . S
C22 C21 1.336 . S
C22 H37 0.929 1_554 S
C23 C13 1.386 . S
C23 C16 1.357 . S
C23 H36 0.928 . S
H24 C0 0.931 . S
H25 C2 0.930 . S
H26 C4 0.929 . S
H27 C5 0.931 . S
H28 C7 0.930 . S
H29 C11 0.931 . S
H30 C9 0.931 . S
H31 C13 0.931 . S
H32 C14 0.929 . S
H33 C15 0.930 . S
H34 C18 0.930 1_556 S
H35 C19 0.931 . S
H36 C23 0.928 . S
H37 C22 0.929 1_556 S
H38 C20 0.932 . S
C39 C40 1.386 . S
C39 C41 1.397 . S
C39 H63 0.931 . S
C40 C39 1.386 . S
C40 C44 1.397 . S
C41 C39 1.397 . S
C41 C42 1.384 . S
C41 H64 0.930 . S
C42 C41 1.384 . S
C42 C43 1.377 . S
C42 C45 1.481 . S
C43 C42 1.377 . S
C43 C44 1.389 . S
C43 H65 0.929 . S
C44 C40 1.397 . S
C44 C43 1.389 . S
C44 H66 0.931 . S
C45 C42 1.481 . S
C45 C46 1.387 . S
C45 C50 1.390 . S
C46 C45 1.387 . S
C46 C47 1.401 . S
C46 H67 0.930 . S
C47 C46 1.401 . S
C47 C48 1.376 . S
C47 C56 1.511 . S
C48 C47 1.376 . S
C48 C49 1.392 . S
C48 H69 0.931 . S
C49 C48 1.392 . S
C49 C50 1.361 . S
C49 C51 1.500 . S
C50 C45 1.390 . S
C50 C49 1.361 . S
C50 H68 0.931 . S
C51 C49 1.500 . S
C51 C52 1.371 . S
C51 C53 1.365 . S
C52 C51 1.371 . S
C52 C62 1.386 . S
C52 H70 0.931 . S
C53 C51 1.365 . S
C53 C54 1.409 . S
C53 H71 0.929 . S
C54 C53 1.409 . S
C54 C55 1.380 . S
C54 H72 0.930 . S
C55 C54 1.380 . S
C55 C62 1.357 . S
C56 C47 1.511 . S
C56 C57 1.341 . S
C56 C58 1.371 . S
C57 C56 1.341 . S
C57 C61 1.394 . S
C57 H73 0.930 . S
C58 C56 1.371 . S
C58 C59 1.392 . S
C58 H74 0.931 . S
C59 C58 1.392 . S
C59 C60 1.331 . S
C59 H77 0.932 . S
C60 C59 1.331 . S
C60 C61 1.336 . S
C61 C57 1.394 . S
C61 C60 1.336 . S
C61 H76 0.929 . S
C62 C52 1.386 . S
C62 C55 1.357 . S
C62 H75 0.928 . S
H63 C39 0.931 . S
H64 C41 0.930 . S
H65 C43 0.929 . S
H66 C44 0.931 . S
H67 C46 0.930 . S
H68 C50 0.931 . S
H69 C48 0.931 . S
H70 C52 0.931 . S
H71 C53 0.929 . S
H72 C54 0.930 . S
H73 C57 0.930 . S
H74 C58 0.931 . S
H75 C62 0.928 . S
H76 C61 0.929 . S
H77 C59 0.932 . S
C78 C79 1.386 . S
C78 C80 1.397 . S
C78 H102 0.931 . S
C79 C78 1.386 . S
C79 C83 1.397 . S
C80 C78 1.397 . S
C80 C81 1.384 . S
C80 H103 0.930 . S
C81 C80 1.384 . S
C81 C82 1.377 . S
C81 C84 1.481 . S
C82 C81 1.377 . S
C82 C83 1.389 . S
C82 H104 0.929 . S
C83 C79 1.397 . S
C83 C82 1.389 . S
C83 H105 0.931 . S
C84 C81 1.481 . S
C84 C85 1.387 . S
C84 C89 1.390 . S
C85 C84 1.387 . S
C85 C86 1.401 . S
C85 H106 0.930 . S
C86 C85 1.401 . S
C86 C87 1.376 1_554 S
C86 C95 1.511 . S
C87 C86 1.376 1_556 S
C87 C88 1.392 . S
C87 H108 0.931 . S
C88 C87 1.392 . S
C88 C89 1.361 1_556 S
C88 C90 1.500 . S
C89 C84 1.390 . S
C89 C88 1.361 1_554 S
C89 H107 0.931 . S
C90 C88 1.500 . S
C90 C91 1.371 . S
C90 C92 1.365 . S
C91 C90 1.371 . S
C91 C101 1.386 . S
C91 H109 0.931 . S
C92 C90 1.365 . S
C92 C93 1.409 . S
C92 H110 0.929 . S
C93 C92 1.409 . S
C93 C94 1.380 . S
C93 H111 0.930 . S
C94 C93 1.380 . S
C94 C101 1.357 . S
C95 C86 1.511 . S
C95 C96 1.341 . S
C95 C97 1.371 1_554 S
C96 C95 1.341 . S
C96 C100 1.394 . S
C96 H112 0.930 . S
C97 C95 1.371 1_556 S
C97 C98 1.392 . S
C97 H113 0.931 . S
C98 C97 1.392 . S
C98 C99 1.331 1_556 S
C98 H116 0.932 . S
C99 C98 1.331 1_554 S
C99 C100 1.336 . S
C100 C96 1.394 . S
C100 C99 1.336 . S
C100 H115 0.929 . S
C101 C91 1.386 . S
C101 C94 1.357 . S
C101 H114 0.928 . S
H102 C78 0.931 . S
H103 C80 0.930 . S
H104 C82 0.929 . S
H105 C83 0.931 . S
H106 C85 0.930 . S
H107 C89 0.931 . S
H108 C87 0.931 . S
H109 C91 0.931 . S
H110 C92 0.929 . S
H111 C93 0.930 . S
H112 C96 0.930 . S
H113 C97 0.931 . S
H114 C101 0.928 . S
H115 C100 0.929 . S
H116 C98 0.932 . S
C117 C118 1.386 . S
C117 C119 1.397 . S
C117 H141 0.931 . S
C118 C117 1.386 . S
C118 C122 1.397 . S
C119 C117 1.397 . S
C119 C120 1.384 . S
C119 H142 0.930 . S
C120 C119 1.384 . S
C120 C121 1.377 . S
C120 C123 1.481 . S
C121 C120 1.377 . S
C121 C122 1.389 . S
C121 H143 0.929 . S
C122 C118 1.397 . S
C122 C121 1.389 . S
C122 H144 0.931 . S
C123 C120 1.481 . S
C123 C124 1.387 . S
C123 C128 1.390 . S
C124 C123 1.387 . S
C124 C125 1.401 . S
C124 H145 0.930 . S
C125 C124 1.401 . S
C125 C126 1.376 . S
C125 C134 1.511 . S
C126 C125 1.376 . S
C126 C127 1.392 . S
C126 H147 0.931 . S
C127 C126 1.392 . S
C127 C128 1.361 . S
C127 C129 1.500 . S
C128 C123 1.390 . S
C128 C127 1.361 . S
C128 H146 0.931 . S
C129 C127 1.500 . S
C129 C130 1.371 . S
C129 C131 1.365 . S
C130 C129 1.371 . S
C130 C140 1.386 . S
C130 H148 0.931 . S
C131 C129 1.365 . S
C131 C132 1.409 . S
C131 H149 0.929 . S
C132 C131 1.409 . S
C132 C133 1.380 . S
C132 H150 0.930 . S
C133 C132 1.380 . S
C133 C140 1.357 . S
C134 C125 1.511 . S
C134 C135 1.341 . S
C134 C136 1.371 . S
C135 C134 1.341 . S
C135 C139 1.394 . S
C135 H151 0.930 . S
C136 C134 1.371 . S
C136 C137 1.392 . S
C136 H152 0.931 . S
C137 C136 1.392 . S
C137 C138 1.331 . S
C137 H155 0.932 . S
C138 C137 1.331 . S
C138 C139 1.336 . S
C139 C135 1.394 . S
C139 C138 1.336 . S
C139 H154 0.929 . S
C140 C130 1.386 . S
C140 C133 1.357 . S
C140 H153 0.928 . S
H141 C117 0.931 . S
H142 C119 0.930 . S
H143 C121 0.929 . S
H144 C122 0.931 . S
H145 C124 0.930 . S
H146 C128 0.931 . S
H147 C126 0.931 . S
H148 C130 0.931 . S
H149 C131 0.929 . S
H150 C132 0.930 . S
H151 C135 0.930 . S
H152 C136 0.931 . S
H153 C140 0.928 . S
H154 C139 0.929 . S
H155 C137 0.932 . S
C156 C158 1.422 . S
C156 C160 1.415 . S
C156 N162 1.369 . S
C157 C158 1.421 . S
C157 C159 1.417 . S
C157 C169 1.422 . S
C158 C156 1.422 . S
C158 C157 1.421 . S
C158 N168 1.359 . S
C159 C157 1.417 . S
C159 C161 1.329 . S
C159 H178 0.930 . S
C160 C156 1.415 . S
C160 C161 1.437 . S
C160 C164 1.413 . S
C161 C159 1.329 . S
C161 C160 1.437 . S
C161 H183 0.929 . S
N162 C156 1.369 . S
N162 C163 1.338 1_655 S
N162 Gd167 2.622 . S
C163 N162 1.338 1_455 S
C163 C165 1.378 . S
C163 H175 0.929 . S
C164 C160 1.413 . S
C164 C165 1.340 1_655 S
C164 H180 0.931 . S
C165 C163 1.378 . S
C165 C164 1.340 1_455 S
C165 H181 0.938 . S
Gd166 N186 2.622 . S
Gd166 N193 2.570 . S
Gd166 O200 2.359 1_455 S
Gd166 O201 2.468 . S
Gd166 O202 2.427 . S
Gd166 O204 2.388 1_455 S
Gd166 O205 2.386 . S
Gd166 O209 2.307 1_565 S
Gd166 C219 2.805 . S
Gd167 N162 2.622 . S
Gd167 N168 2.570 . S
Gd167 O199 2.386 . S
Gd167 O203 2.307 1_545 S
Gd167 O206 2.353 1_655 S
Gd167 O207 2.468 . S
Gd167 O208 2.427 . S
Gd167 O210 2.388 1_655 S
Gd167 C231 2.805 . S
N168 C158 1.359 . S
N168 Gd167 2.570 . S
N168 C170 1.343 . S
C169 C157 1.422 . S
C169 C171 1.321 . S
C169 H177 0.931 . S
C170 N168 1.343 . S
C170 C171 1.390 . S
C170 H172 0.931 . S
C171 C169 1.321 . S
C171 C170 1.390 . S
C171 H173 0.930 . S
H172 C170 0.931 . S
H173 C171 0.930 . S
H174 C197 0.931 . S
H175 C163 0.929 . S
H176 C198 0.930 . S
H177 C169 0.931 . S
H178 C159 0.930 . S
H179 C188 0.929 1_655 S
H180 C164 0.931 . S
H181 C165 0.938 . S
H182 C220 0.930 . S
H183 C161 0.929 . S
H184 C189 0.931 . S
H185 C190 0.930 1_655 S
N186 Gd166 2.622 . S
N186 C187 1.369 . S
N186 C188 1.338 . S
C187 N186 1.369 . S
C187 C191 1.415 . S
C187 C194 1.422 . S
C188 H179 0.929 1_455 S
C188 N186 1.338 . S
C188 C190 1.378 . S
C189 H184 0.931 . S
C189 C190 1.348 . S
C189 C191 1.413 . S
C190 H185 0.930 1_455 S
C190 C188 1.378 . S
C190 C189 1.348 . S
C191 C187 1.415 . S
C191 C189 1.413 . S
C191 C221 1.437 . S
H192 C221 0.929 . S
N193 Gd166 2.570 . S
N193 C194 1.359 . S
N193 C197 1.343 . S
C194 C187 1.422 . S
C194 N193 1.359 . S
C194 C196 1.421 . S
C195 C196 1.422 . S
C195 C198 1.321 . S
C195 H222 0.931 . S
C196 C194 1.421 . S
C196 C195 1.422 . S
C196 C220 1.417 . S
C197 H174 0.931 . S
C197 N193 1.343 . S
C197 C198 1.390 . S
C198 H176 0.930 . S
C198 C195 1.321 . S
C198 C197 1.390 . S
O199 Gd167 2.386 . S
O199 C211 1.265 . S
O200 Gd166 2.359 1_655 S
O200 C211 1.233 1_565 S
O201 Gd166 2.468 . S
O201 C219 1.263 . S
O202 Gd166 2.427 . S
O202 C219 1.252 . S
O203 Gd167 2.307 1_565 S
O203 C212 1.261 . S
O204 Gd166 2.388 1_655 S
O204 C212 1.252 . S
O205 Gd166 2.386 . S
O205 C223 1.265 . S
O206 Gd167 2.353 1_455 S
O206 C223 1.242 1_545 S
O207 Gd167 2.468 . S
O207 C231 1.263 . S
O208 Gd167 2.427 . S
O208 C231 1.252 . S
O209 Gd166 2.307 1_545 S
O209 C224 1.261 . S
O210 Gd167 2.388 1_455 S
O210 C224 1.252 . S
C211 O199 1.265 . S
C211 O200 1.233 1_545 S
C212 O203 1.261 . S
C212 O204 1.252 . S
C213 C216 1.394 . S
C213 C218 1.370 . S
C213 C219 1.500 . S
C214 C217 1.383 . S
C214 C218 1.395 . S
C215 C216 1.396 . S
C215 C217 1.365 . S
C215 H232 0.929 . S
C216 C213 1.394 . S
C216 C215 1.396 . S
C216 H233 0.930 . S
C217 C214 1.383 . S
C217 C215 1.365 . S
C217 H234 0.931 . S
C218 C213 1.370 . S
C218 C214 1.395 . S
C218 H235 0.930 . S
C219 Gd166 2.805 . S
C219 O201 1.263 . S
C219 O202 1.252 . S
C219 C213 1.500 . S
C220 H182 0.930 . S
C220 C196 1.417 . S
C220 C221 1.329 . S
C221 C191 1.437 . S
C221 H192 0.929 . S
C221 C220 1.329 . S
H222 C195 0.931 . S
C223 O205 1.265 . S
C223 O206 1.242 1_565 S
C224 O209 1.261 . S
C224 O210 1.252 . S
C225 C228 1.394 . S
C225 C230 1.370 . S
C225 C231 1.500 . S
C226 C229 1.383 . S
C226 C230 1.395 . S
C227 C228 1.396 . S
C227 C229 1.365 . S
C227 H236 0.929 . S
C228 C225 1.394 . S
C228 C227 1.396 . S
C228 H237 0.930 . S
C229 C226 1.383 . S
C229 C227 1.365 . S
C229 H238 0.931 . S
C230 C225 1.370 . S
C230 C226 1.395 . S
C230 H239 0.930 . S
C231 Gd167 2.805 . S
C231 O207 1.263 . S
C231 O208 1.252 . S
C231 C225 1.500 . S
H232 C215 0.929 . S
H233 C216 0.930 . S
H234 C217 0.931 . S
H235 C218 0.930 . S
H236 C227 0.929 . S
H237 C228 0.930 . S
H238 C229 0.931 . S
H239 C230 0.930 . S
C240 C242 1.422 . S
C240 C244 1.415 . S
C240 N246 1.369 . S
C241 C242 1.421 . S
C241 C243 1.417 . S
C241 C253 1.422 . S
C242 C240 1.422 . S
C242 C241 1.421 . S
C242 N252 1.359 . S
C243 C241 1.417 . S
C243 C245 1.329 . S
C243 H262 0.930 . S
C244 C240 1.415 . S
C244 C245 1.437 . S
C244 C248 1.413 . S
C245 C243 1.329 . S
C245 C244 1.437 . S
C245 H267 0.929 . S
N246 C240 1.369 . S
N246 C247 1.338 . S
N246 Gd251 2.622 . S
C247 N246 1.338 . S
C247 C249 1.378 . S
C247 H259 0.929 . S
C248 C244 1.413 . S
C248 C249 1.348 . S
C248 H264 0.931 . S
C249 C247 1.378 . S
C249 C248 1.348 . S
C249 H265 0.930 . S
Gd250 N270 2.622 . S
Gd250 N277 2.570 1_556 S
Gd250 O284 2.353 . S
Gd250 O285 2.468 . S
Gd250 O286 2.427 . S
Gd250 O288 2.388 . S
Gd250 O289 2.386 1_556 S
Gd250 O293 2.307 1_556 S
Gd250 C303 2.805 . S
Gd251 N246 2.622 . S
Gd251 N252 2.570 . S
Gd251 O283 2.386 1_554 S
Gd251 O287 2.307 . S
Gd251 O290 2.353 . S
Gd251 O291 2.468 . S
Gd251 O292 2.427 . S
Gd251 O294 2.388 . S
Gd251 C315 2.805 . S
N252 C242 1.359 . S
N252 Gd251 2.570 . S
N252 C254 1.343 . S
C253 C241 1.422 . S
C253 C255 1.321 . S
C253 H261 0.931 . S
C254 N252 1.343 . S
C254 C255 1.390 . S
C254 H256 0.931 . S
C255 C253 1.321 . S
C255 C254 1.390 . S
C255 H257 0.930 . S
H256 C254 0.931 . S
H257 C255 0.930 . S
H258 C281 0.931 . S
H259 C247 0.929 . S
H260 C282 0.930 . S
H261 C253 0.931 . S
H262 C243 0.930 . S
H263 C272 0.929 . S
H264 C248 0.931 . S
H265 C249 0.930 . S
H266 C304 0.930 . S
H267 C245 0.929 . S
H268 C273 0.931 . S
H269 C274 0.930 . S
N270 Gd250 2.622 . S
N270 C271 1.369 1_556 S
N270 C272 1.338 . S
C271 N270 1.369 1_554 S
C271 C275 1.415 . S
C271 C278 1.422 . S
C272 H263 0.929 . S
C272 N270 1.338 . S
C272 C274 1.378 . S
C273 H268 0.931 . S
C273 C274 1.348 1_554 S
C273 C275 1.413 . S
C274 H269 0.930 . S
C274 C272 1.378 . S
C274 C273 1.348 1_556 S
C275 C271 1.415 . S
C275 C273 1.413 . S
C275 C305 1.437 . S
H276 C305 0.929 . S
N277 Gd250 2.570 1_554 S
N277 C278 1.359 . S
N277 C281 1.343 . S
C278 C271 1.422 . S
C278 N277 1.359 . S
C278 C280 1.421 . S
C279 C280 1.422 . S
C279 C282 1.321 . S
C279 H306 0.931 . S
C280 C278 1.421 . S
C280 C279 1.422 . S
C280 C304 1.417 . S
C281 H258 0.931 . S
C281 N277 1.343 . S
C281 C282 1.390 . S
C282 H260 0.930 . S
C282 C279 1.321 . S
C282 C281 1.390 . S
O283 Gd251 2.386 1_556 S
O283 C295 1.265 . S
O284 Gd250 2.353 . S
O284 C295 1.242 . S
O285 Gd250 2.468 . S
O285 C303 1.263 . S
O286 Gd250 2.427 . S
O286 C303 1.252 . S
O287 Gd251 2.307 . S
O287 C296 1.261 . S
O288 Gd250 2.388 . S
O288 C296 1.252 1_556 S
O289 Gd250 2.386 1_554 S
O289 C307 1.265 . S
O290 Gd251 2.353 . S
O290 C307 1.242 . S
O291 Gd251 2.468 . S
O291 C315 1.263 . S
O292 Gd251 2.427 . S
O292 C315 1.252 . S
O293 Gd250 2.307 1_554 S
O293 C308 1.261 . S
O294 Gd251 2.388 . S
O294 C308 1.252 . S
C295 O283 1.265 . S
C295 O284 1.242 . S
C296 O287 1.261 . S
C296 O288 1.252 1_554 S
C297 C300 1.394 . S
C297 C302 1.370 . S
C297 C303 1.500 . S
C298 C301 1.383 . S
C298 C302 1.395 . S
C299 C300 1.396 . S
C299 C301 1.365 . S
C299 H316 0.929 . S
C300 C297 1.394 . S
C300 C299 1.396 . S
C300 H317 0.930 . S
C301 C298 1.383 . S
C301 C299 1.365 . S
C301 H318 0.931 . S
C302 C297 1.370 . S
C302 C298 1.395 . S
C302 H319 0.930 . S
C303 Gd250 2.805 . S
C303 O285 1.263 . S
C303 O286 1.252 . S
C303 C297 1.500 . S
C304 H266 0.930 . S
C304 C280 1.417 . S
C304 C305 1.329 . S
C305 C275 1.437 . S
C305 H276 0.929 . S
C305 C304 1.329 . S
H306 C279 0.931 . S
C307 O289 1.265 . S
C307 O290 1.242 . S
C308 O293 1.261 . S
C308 O294 1.252 . S
C309 C312 1.394 . S
C309 C314 1.370 . S
C309 C315 1.500 . S
C310 C313 1.383 . S
C310 C314 1.395 . S
C311 C312 1.396 . S
C311 C313 1.365 . S
C311 H320 0.929 . S
C312 C309 1.394 . S
C312 C311 1.396 . S
C312 H321 0.930 . S
C313 C310 1.383 . S
C313 C311 1.365 . S
C313 H322 0.931 . S
C314 C309 1.370 . S
C314 C310 1.395 . S
C314 H323 0.930 . S
C315 Gd251 2.805 . S
C315 O291 1.263 . S
C315 O292 1.252 . S
C315 C309 1.500 . S
H316 C299 0.929 . S
H317 C300 0.930 . S
H318 C301 0.931 . S
H319 C302 0.930 . S
H320 C311 0.929 . S
H321 C312 0.930 . S
H322 C313 0.931 . S
H323 C314 0.930 . S
H324 C342 0.951 . S
H325 C344 0.951 . S
H326 C346 0.950 . S
H327 C347 0.950 . S
H328 C349 0.950 . S
H329 C352 0.950 . S
H330 C353 0.950 . S
H331 C355 0.950 . S
H332 C356 0.950 . S
H333 C357 0.951 . S
H334 C359 0.951 . S
H335 C361 0.950 . S
H336 C362 0.950 . S
H337 C364 0.950 . S
H338 C367 0.950 . S
H339 C368 0.950 . S
H340 C370 0.950 . S
H341 C371 0.950 . S
C342 H324 0.951 . S
C342 C343 1.366 . S
C342 C344 1.388 . S
C343 C342 1.366 . S
C343 C347 1.385 . S
C344 H325 0.951 . S
C344 C342 1.388 . S
C344 C345 1.366 . S
C345 C344 1.366 . S
C345 C346 1.414 . S
C345 C348 1.499 . S
C346 H326 0.950 . S
C346 C345 1.414 . S
C346 C347 1.374 . S
C347 H327 0.950 . S
C347 C343 1.385 . S
C347 C346 1.374 . S
C348 C345 1.499 . S
C348 C349 1.373 . S
C348 C350 1.389 . S
C349 H328 0.950 . S
C349 C348 1.373 . S
C349 C365 1.377 . S
C350 C348 1.389 . S
C350 C351 1.524 . S
C350 C364 1.377 . S
C351 C350 1.524 . S
C351 C352 1.397 . S
C351 C356 1.363 . S
C352 H329 0.950 . S
C352 C351 1.397 . S
C352 C353 1.334 . S
C353 H330 0.950 . S
C353 C352 1.334 . S
C353 C354 1.287 . S
C354 C353 1.287 . S
C354 C355 1.524 . S
C354 H373 0.913 . S
C355 H331 0.950 . S
C355 C354 1.524 . S
C355 C356 1.415 . S
C356 H332 0.950 . S
C356 C351 1.363 . S
C356 C355 1.415 . S
C357 H333 0.951 . S
C357 C358 1.366 . S
C357 C359 1.388 . S
C358 C357 1.366 . S
C358 C362 1.385 . S
C359 H334 0.951 . S
C359 C357 1.388 . S
C359 C360 1.366 . S
C360 C359 1.366 . S
C360 C361 1.414 . S
C360 C363 1.499 . S
C361 H335 0.950 . S
C361 C360 1.414 . S
C361 C362 1.374 . S
C362 H336 0.950 . S
C362 C358 1.385 . S
C362 C361 1.374 . S
C363 C360 1.499 . S
C363 C364 1.373 . S
C363 C365 1.389 . S
C364 H337 0.950 . S
C364 C350 1.377 . S
C364 C363 1.373 . S
C365 C349 1.377 . S
C365 C363 1.389 . S
C365 C366 1.524 . S
C366 C365 1.524 . S
C366 C367 1.397 . S
C366 C371 1.363 . S
C367 H338 0.950 . S
C367 C366 1.397 . S
C367 C368 1.334 . S
C368 H339 0.950 . S
C368 C367 1.334 . S
C368 C369 1.287 . S
C369 C368 1.287 . S
C369 C370 1.524 . S
C369 H372 0.999 . S
C370 H340 0.950 . S
C370 C369 1.524 . S
C370 C371 1.415 . S
C371 H341 0.950 . S
C371 C366 1.363 . S
C371 C370 1.415 . S
H372 C369 0.999 . S
H373 C354 0.913 . S
H374 C392 0.951 . S
H375 C394 0.951 . S
H376 C396 0.950 . S
H377 C397 0.950 . S
H378 C399 0.950 . S
H379 C402 0.950 . S
H380 C403 0.950 . S
H381 C405 0.950 . S
H382 C406 0.950 . S
H383 C407 0.951 . S
H384 C409 0.951 . S
H385 C411 0.950 . S
H386 C412 0.950 . S
H387 C414 0.950 1_556 S
H388 C417 0.950 . S
H389 C418 0.950 . S
H390 C420 0.950 . S
H391 C421 0.950 . S
C392 H374 0.951 . S
C392 C393 1.366 . S
C392 C394 1.388 . S
C393 C392 1.366 . S
C393 C397 1.385 . S
C394 H375 0.951 . S
C394 C392 1.388 . S
C394 C395 1.366 . S
C395 C394 1.366 . S
C395 C396 1.414 . S
C395 C398 1.499 . S
C396 H376 0.950 . S
C396 C395 1.414 . S
C396 C397 1.374 . S
C397 H377 0.950 . S
C397 C393 1.385 . S
C397 C396 1.374 . S
C398 C395 1.499 . S
C398 C399 1.373 . S
C398 C400 1.389 . S
C399 H378 0.950 . S
C399 C398 1.373 . S
C399 C415 1.377 . S
C400 C398 1.389 . S
C400 C401 1.524 1_554 S
C400 C414 1.377 . S
C401 C400 1.524 1_556 S
C401 C402 1.397 . S
C401 C406 1.363 . S
C402 H379 0.950 . S
C402 C401 1.397 . S
C402 C403 1.334 . S
C403 H380 0.950 . S
C403 C402 1.334 . S
C403 C404 1.287 . S
C404 C403 1.287 . S
C404 C405 1.524 . S
C404 H423 0.913 . S
C405 H381 0.950 . S
C405 C404 1.524 . S
C405 C406 1.415 . S
C406 H382 0.950 . S
C406 C401 1.363 . S
C406 C405 1.415 . S
C407 H383 0.951 . S
C407 C408 1.366 . S
C407 C409 1.388 . S
C408 C407 1.366 . S
C408 C412 1.385 . S
C409 H384 0.951 . S
C409 C407 1.388 . S
C409 C410 1.366 . S
C410 C409 1.366 . S
C410 C411 1.414 . S
C410 C413 1.499 . S
C411 H385 0.950 . S
C411 C410 1.414 . S
C411 C412 1.374 . S
C412 H386 0.950 . S
C412 C408 1.385 . S
C412 C411 1.374 . S
C413 C410 1.499 . S
C413 C414 1.373 . S
C413 C415 1.389 . S
C414 H387 0.950 1_554 S
C414 C400 1.377 . S
C414 C413 1.373 . S
C415 C399 1.377 . S
C415 C413 1.389 . S
C415 C416 1.524 . S
C416 C415 1.524 . S
C416 C417 1.397 . S
C416 C421 1.363 . S
C417 H388 0.950 . S
C417 C416 1.397 . S
C417 C418 1.334 . S
C418 H389 0.950 . S
C418 C417 1.334 . S
C418 C419 1.287 . S
C419 C418 1.287 . S
C419 C420 1.524 . S
C419 H422 0.999 . S
C420 H390 0.950 . S
C420 C419 1.524 . S
C420 C421 1.415 . S
C421 H391 0.950 . S
C421 C416 1.363 . S
C421 C420 1.415 . S
H422 C419 0.999 . S
H423 C404 0.913 . S
H424 C442 0.951 . S
H425 C444 0.951 . S
H426 C446 0.950 . S
H427 C447 0.950 . S
H428 C449 0.950 . S
H429 C452 0.950 . S
H430 C453 0.950 . S
H431 C455 0.950 . S
H432 C456 0.950 . S
H433 C457 0.951 . S
H434 C459 0.951 . S
H435 C461 0.950 . S
H436 C462 0.950 . S
H437 C464 0.950 . S
H438 C467 0.950 . S
H439 C468 0.950 . S
H440 C470 0.950 . S
H441 C471 0.950 . S
C442 H424 0.951 . S
C442 C443 1.366 . S
C442 C444 1.388 . S
C443 C442 1.366 . S
C443 C447 1.385 . S
C444 H425 0.951 . S
C444 C442 1.388 . S
C444 C445 1.366 . S
C445 C444 1.366 . S
C445 C446 1.414 . S
C445 C448 1.499 . S
C446 H426 0.950 . S
C446 C445 1.414 . S
C446 C447 1.374 . S
C447 H427 0.950 . S
C447 C443 1.385 . S
C447 C446 1.374 . S
C448 C445 1.499 . S
C448 C449 1.373 . S
C448 C450 1.389 . S
C449 H428 0.950 . S
C449 C448 1.373 . S
C449 C465 1.377 . S
C450 C448 1.389 . S
C450 C451 1.524 . S
C450 C464 1.377 . S
C451 C450 1.524 . S
C451 C452 1.397 . S
C451 C456 1.363 . S
C452 H429 0.950 . S
C452 C451 1.397 . S
C452 C453 1.334 . S
C453 H430 0.950 . S
C453 C452 1.334 . S
C453 C454 1.287 . S
C454 C453 1.287 . S
C454 C455 1.524 . S
C454 H473 0.913 . S
C455 H431 0.950 . S
C455 C454 1.524 . S
C455 C456 1.415 . S
C456 H432 0.950 . S
C456 C451 1.363 . S
C456 C455 1.415 . S
C457 H433 0.951 . S
C457 C458 1.366 . S
C457 C459 1.388 . S
C458 C457 1.366 . S
C458 C462 1.385 . S
C459 H434 0.951 . S
C459 C457 1.388 . S
C459 C460 1.366 . S
C460 C459 1.366 . S
C460 C461 1.414 . S
C460 C463 1.499 . S
C461 H435 0.950 . S
C461 C460 1.414 . S
C461 C462 1.374 . S
C462 H436 0.950 . S
C462 C458 1.385 . S
C462 C461 1.374 . S
C463 C460 1.499 . S
C463 C464 1.373 . S
C463 C465 1.389 . S
C464 H437 0.950 . S
C464 C450 1.377 . S
C464 C463 1.373 . S
C465 C449 1.377 . S
C465 C463 1.389 . S
C465 C466 1.524 . S
C466 C465 1.524 . S
C466 C467 1.397 . S
C466 C471 1.363 . S
C467 H438 0.950 . S
C467 C466 1.397 . S
C467 C468 1.334 . S
C468 H439 0.950 . S
C468 C467 1.334 . S
C468 C469 1.287 . S
C469 C468 1.287 . S
C469 C470 1.524 . S
C469 H472 0.999 . S
C470 H440 0.950 . S
C470 C469 1.524 . S
C470 C471 1.415 . S
C471 H441 0.950 . S
C471 C466 1.363 . S
C471 C470 1.415 . S
H472 C469 0.999 . S
H473 C454 0.913 . S
H474 C492 0.951 . S
H475 C494 0.951 . S
H476 C496 0.950 . S
H477 C497 0.950 . S
H478 C499 0.950 . S
H479 C502 0.950 1_554 S
H480 C503 0.950 . S
H481 C505 0.950 . S
H482 C506 0.950 . S
H483 C507 0.951 . S
H484 C509 0.951 . S
H485 C511 0.950 . S
H486 C512 0.950 . S
H487 C514 0.950 . S
H488 C517 0.950 . S
H489 C518 0.950 . S
H490 C520 0.950 . S
H491 C521 0.950 . S
C492 H474 0.951 . S
C492 C493 1.366 1_556 S
C492 C494 1.388 . S
C493 C492 1.366 1_554 S
C493 C497 1.385 . S
C494 H475 0.951 . S
C494 C492 1.388 . S
C494 C495 1.366 1_556 S
C495 C494 1.366 1_554 S
C495 C496 1.414 . S
C495 C498 1.499 . S
C496 H476 0.950 . S
C496 C495 1.414 . S
C496 C497 1.374 . S
C497 H477 0.950 . S
C497 C493 1.385 . S
C497 C496 1.374 . S
C498 C495 1.499 . S
C498 C499 1.373 . S
C498 C500 1.389 1_554 S
C499 H478 0.950 . S
C499 C498 1.373 . S
C499 C515 1.377 . S
C500 C498 1.389 1_556 S
C500 C501 1.524 . S
C500 C514 1.377 . S
C501 C500 1.524 . S
C501 C502 1.397 . S
C501 C506 1.363 . S
C502 H479 0.950 1_556 S
C502 C501 1.397 . S
C502 C503 1.334 . S
C503 H480 0.950 . S
C503 C502 1.334 . S
C503 C504 1.287 . S
C504 C503 1.287 . S
C504 C505 1.524 . S
C504 H523 0.913 . S
C505 H481 0.950 . S
C505 C504 1.524 . S
C505 C506 1.415 . S
C506 H482 0.950 . S
C506 C501 1.363 . S
C506 C505 1.415 . S
C507 H483 0.951 . S
C507 C508 1.366 . S
C507 C509 1.388 . S
C508 C507 1.366 . S
C508 C512 1.385 1_554 S
C509 H484 0.951 . S
C509 C507 1.388 . S
C509 C510 1.366 . S
C510 C509 1.366 . S
C510 C511 1.414 1_554 S
C510 C513 1.499 . S
C511 H485 0.950 . S
C511 C510 1.414 1_556 S
C511 C512 1.374 . S
C512 H486 0.950 . S
C512 C508 1.385 1_556 S
C512 C511 1.374 . S
C513 C510 1.499 . S
C513 C514 1.373 1_554 S
C513 C515 1.389 . S
C514 H487 0.950 . S
C514 C500 1.377 . S
C514 C513 1.373 1_556 S
C515 C499 1.377 . S
C515 C513 1.389 . S
C515 C516 1.524 . S
C516 C515 1.524 . S
C516 C517 1.397 . S
C516 C521 1.363 . S
C517 H488 0.950 . S
C517 C516 1.397 . S
C517 C518 1.334 . S
C518 H489 0.950 . S
C518 C517 1.334 . S
C518 C519 1.287 . S
C519 C518 1.287 . S
C519 C520 1.524 . S
C519 H522 0.999 . S
C520 H490 0.950 . S
C520 C519 1.524 . S
C520 C521 1.415 . S
C521 H491 0.950 . S
C521 C516 1.363 . S
C521 C520 1.415 . S
H522 C519 0.999 . S
H523 C504 0.913 . S
H524 C542 0.951 . S
H525 C544 0.951 . S
H526 C546 0.950 . S
H527 C547 0.950 . S
H528 C549 0.950 . S
H529 C552 0.950 . S
H530 C553 0.950 . S
H531 C555 0.950 . S
H532 C556 0.950 1_545 S
H533 C557 0.951 . S
H534 C559 0.951 . S
H535 C561 0.950 . S
H536 C562 0.950 1_545 S
H537 C564 0.950 . S
H538 C567 0.950 . S
H539 C568 0.950 . S
H540 C570 0.950 . S
H541 C571 0.950 . S
C542 H524 0.951 . S
C542 C543 1.366 . S
C542 C544 1.388 . S
C543 C542 1.366 . S
C543 C547 1.385 . S
C544 H525 0.951 . S
C544 C542 1.388 . S
C544 C545 1.366 . S
C545 C544 1.366 . S
C545 C546 1.414 . S
C545 C548 1.499 . S
C546 H526 0.950 . S
C546 C545 1.414 . S
C546 C547 1.374 . S
C547 H527 0.950 . S
C547 C543 1.385 . S
C547 C546 1.374 . S
C548 C545 1.499 . S
C548 C549 1.373 . S
C548 C550 1.389 . S
C549 H528 0.950 . S
C549 C548 1.373 . S
C549 C565 1.377 . S
C550 C548 1.389 . S
C550 C551 1.524 . S
C550 C564 1.377 . S
C551 C550 1.524 . S
C551 C552 1.397 . S
C551 C556 1.363 . S
C552 H529 0.950 . S
C552 C551 1.397 . S
C552 C553 1.334 . S
C553 H530 0.950 . S
C553 C552 1.334 . S
C553 C554 1.287 . S
C554 C553 1.287 . S
C554 C555 1.524 1_565 S
C554 H573 0.913 . S
C555 H531 0.950 . S
C555 C554 1.524 1_545 S
C555 C556 1.415 1_545 S
C556 H532 0.950 1_565 S
C556 C551 1.363 . S
C556 C555 1.415 1_565 S
C557 H533 0.951 . S
C557 C558 1.366 . S
C557 C559 1.388 . S
C558 C557 1.366 . S
C558 C562 1.385 . S
C559 H534 0.951 . S
C559 C557 1.388 . S
C559 C560 1.366 . S
C560 C559 1.366 . S
C560 C561 1.414 . S
C560 C563 1.499 . S
C561 H535 0.950 . S
C561 C560 1.414 . S
C561 C562 1.374 . S
C562 H536 0.950 1_565 S
C562 C558 1.385 . S
C562 C561 1.374 . S
C563 C560 1.499 . S
C563 C564 1.373 . S
C563 C565 1.389 . S
C564 H537 0.950 . S
C564 C550 1.377 . S
C564 C563 1.373 . S
C565 C549 1.377 . S
C565 C563 1.389 . S
C565 C566 1.524 . S
C566 C565 1.524 . S
C566 C567 1.397 . S
C566 C571 1.363 . S
C567 H538 0.950 . S
C567 C566 1.397 . S
C567 C568 1.334 . S
C568 H539 0.950 . S
C568 C567 1.334 . S
C568 C569 1.287 . S
C569 C568 1.287 . S
C569 C570 1.524 . S
C569 H572 0.999 . S
C570 H540 0.950 . S
C570 C569 1.524 . S
C570 C571 1.415 . S
C571 H541 0.950 . S
C571 C566 1.363 . S
C571 C570 1.415 . S
H572 C569 0.999 . S
H573 C554 0.913 . S
H574 C592 0.951 . S
H575 C594 0.951 . S
H576 C596 0.950 . S
H577 C597 0.950 . S
H578 C599 0.950 . S
H579 C602 0.950 . S
H580 C603 0.950 . S
H581 C605 0.950 . S
H582 C606 0.950 . S
H583 C607 0.951 . S
H584 C609 0.951 . S
H585 C611 0.950 . S
H586 C612 0.950 . S
H587 C614 0.950 . S
H588 C617 0.950 . S
H589 C618 0.950 . S
H590 C620 0.950 . S
H591 C621 0.950 . S
C592 H574 0.951 . S
C592 C593 1.366 . S
C592 C594 1.388 . S
C593 C592 1.366 . S
C593 C597 1.385 . S
C594 H575 0.951 . S
C594 C592 1.388 . S
C594 C595 1.366 . S
C595 C594 1.366 . S
C595 C596 1.414 . S
C595 C598 1.499 . S
C596 H576 0.950 . S
C596 C595 1.414 . S
C596 C597 1.374 . S
C597 H577 0.950 . S
C597 C593 1.385 . S
C597 C596 1.374 . S
C598 C595 1.499 . S
C598 C599 1.373 . S
C598 C600 1.389 . S
C599 H578 0.950 . S
C599 C598 1.373 . S
C599 C615 1.377 . S
C600 C598 1.389 . S
C600 C601 1.524 . S
C600 C614 1.377 . S
C601 C600 1.524 . S
C601 C602 1.397 . S
C601 C606 1.363 . S
C602 H579 0.950 . S
C602 C601 1.397 . S
C602 C603 1.334 . S
C603 H580 0.950 . S
C603 C602 1.334 . S
C603 C604 1.287 . S
C604 C603 1.287 . S
C604 C605 1.524 . S
C604 H623 0.913 . S
C605 H581 0.950 . S
C605 C604 1.524 . S
C605 C606 1.415 . S
C606 H582 0.950 . S
C606 C601 1.363 . S
C606 C605 1.415 . S
C607 H583 0.951 . S
C607 C608 1.366 . S
C607 C609 1.388 . S
C608 C607 1.366 . S
C608 C612 1.385 . S
C609 H584 0.951 . S
C609 C607 1.388 . S
C609 C610 1.366 . S
C610 C609 1.366 . S
C610 C611 1.414 . S
C610 C613 1.499 . S
C611 H585 0.950 . S
C611 C610 1.414 . S
C611 C612 1.374 . S
C612 H586 0.950 . S
C612 C608 1.385 . S
C612 C611 1.374 . S
C613 C610 1.499 . S
C613 C614 1.373 . S
C613 C615 1.389 . S
C614 H587 0.950 . S
C614 C600 1.377 . S
C614 C613 1.373 . S
C615 C599 1.377 . S
C615 C613 1.389 . S
C615 C616 1.524 . S
C616 C615 1.524 . S
C616 C617 1.397 . S
C616 C621 1.363 . S
C617 H588 0.950 . S
C617 C616 1.397 . S
C617 C618 1.334 . S
C618 H589 0.950 . S
C618 C617 1.334 . S
C618 C619 1.287 . S
C619 C618 1.287 . S
C619 C620 1.524 . S
C619 H622 0.999 . S
C620 H590 0.950 . S
C620 C619 1.524 . S
C620 C621 1.415 . S
C621 H591 0.950 . S
C621 C616 1.363 . S
C621 C620 1.415 . S
H622 C619 0.999 . S
H623 C604 0.913 . S
H624 C642 0.951 . S
H625 C644 0.951 . S
H626 C646 0.950 . S
H627 C647 0.950 . S
H628 C649 0.950 . S
H629 C652 0.950 . S
H630 C653 0.950 . S
H631 C655 0.950 . S
H632 C656 0.950 . S
H633 C657 0.951 . S
H634 C659 0.951 . S
H635 C661 0.950 . S
H636 C662 0.950 . S
H637 C664 0.950 . S
H638 C667 0.950 . S
H639 C668 0.950 . S
H640 C670 0.950 . S
H641 C671 0.950 . S
C642 H624 0.951 . S
C642 C643 1.366 . S
C642 C644 1.388 . S
C643 C642 1.366 . S
C643 C647 1.385 . S
C644 H625 0.951 . S
C644 C642 1.388 . S
C644 C645 1.366 . S
C645 C644 1.366 . S
C645 C646 1.414 . S
C645 C648 1.499 . S
C646 H626 0.950 . S
C646 C645 1.414 . S
C646 C647 1.374 . S
C647 H627 0.950 . S
C647 C643 1.385 . S
C647 C646 1.374 . S
C648 C645 1.499 . S
C648 C649 1.373 . S
C648 C650 1.389 . S
C649 H628 0.950 . S
C649 C648 1.373 . S
C649 C665 1.377 . S
C650 C648 1.389 . S
C650 C651 1.524 . S
C650 C664 1.377 . S
C651 C650 1.524 . S
C651 C652 1.397 . S
C651 C656 1.363 . S
C652 H629 0.950 . S
C652 C651 1.397 . S
C652 C653 1.334 1_545 S
C653 H630 0.950 . S
C653 C652 1.334 1_565 S
C653 C654 1.287 . S
C654 C653 1.287 . S
C654 C655 1.524 . S
C654 H673 0.913 . S
C655 H631 0.950 . S
C655 C654 1.524 . S
C655 C656 1.415 1_565 S
C656 H632 0.950 . S
C656 C651 1.363 . S
C656 C655 1.415 1_545 S
C657 H633 0.951 . S
C657 C658 1.366 . S
C657 C659 1.388 . S
C658 C657 1.366 . S
C658 C662 1.385 . S
C659 H634 0.951 . S
C659 C657 1.388 . S
C659 C660 1.366 . S
C660 C659 1.366 . S
C660 C661 1.414 . S
C660 C663 1.499 . S
C661 H635 0.950 . S
C661 C660 1.414 . S
C661 C662 1.374 . S
C662 H636 0.950 . S
C662 C658 1.385 . S
C662 C661 1.374 . S
C663 C660 1.499 . S
C663 C664 1.373 . S
C663 C665 1.389 . S
C664 H637 0.950 . S
C664 C650 1.377 . S
C664 C663 1.373 . S
C665 C649 1.377 . S
C665 C663 1.389 . S
C665 C666 1.524 . S
C666 C665 1.524 . S
C666 C667 1.397 . S
C666 C671 1.363 . S
C667 H638 0.950 . S
C667 C666 1.397 . S
C667 C668 1.334 . S
C668 H639 0.950 . S
C668 C667 1.334 . S
C668 C669 1.287 . S
C669 C668 1.287 . S
C669 C670 1.524 . S
C669 H672 0.999 . S
C670 H640 0.950 . S
C670 C669 1.524 . S
C670 C671 1.415 . S
C671 H641 0.950 . S
C671 C666 1.363 . S
C671 C670 1.415 . S
H672 C669 0.999 . S
H673 C654 0.913 . S
H674 C692 0.951 . S
H675 C694 0.951 . S
H676 C696 0.950 . S
H677 C697 0.950 . S
H678 C699 0.950 . S
H679 C702 0.950 . S
H680 C703 0.950 . S
H681 C705 0.950 . S
H682 C706 0.950 . S
H683 C707 0.951 . S
H684 C709 0.951 . S
H685 C711 0.950 . S
H686 C712 0.950 . S
H687 C714 0.950 . S
H688 C717 0.950 . S
H689 C718 0.950 . S
H690 C720 0.950 . S
H691 C721 0.950 . S
C692 H674 0.951 . S
C692 C693 1.366 . S
C692 C694 1.388 . S
C693 C692 1.366 . S
C693 C697 1.385 . S
C694 H675 0.951 . S
C694 C692 1.388 . S
C694 C695 1.366 . S
C695 C694 1.366 . S
C695 C696 1.414 . S
C695 C698 1.499 . S
C696 H676 0.950 . S
C696 C695 1.414 . S
C696 C697 1.374 . S
C697 H677 0.950 . S
C697 C693 1.385 . S
C697 C696 1.374 . S
C698 C695 1.499 . S
C698 C699 1.373 . S
C698 C700 1.389 . S
C699 H678 0.950 . S
C699 C698 1.373 . S
C699 C715 1.377 . S
C700 C698 1.389 . S
C700 C701 1.524 . S
C700 C714 1.377 . S
C701 C700 1.524 . S
C701 C702 1.397 . S
C701 C706 1.363 . S
C702 H679 0.950 . S
C702 C701 1.397 . S
C702 C703 1.334 . S
C703 H680 0.950 . S
C703 C702 1.334 . S
C703 C704 1.287 . S
C704 C703 1.287 . S
C704 C705 1.524 . S
C704 H723 0.913 . S
C705 H681 0.950 . S
C705 C704 1.524 . S
C705 C706 1.415 . S
C706 H682 0.950 . S
C706 C701 1.363 . S
C706 C705 1.415 . S
C707 H683 0.951 . S
C707 C708 1.366 . S
C707 C709 1.388 . S
C708 C707 1.366 . S
C708 C712 1.385 . S
C709 H684 0.951 . S
C709 C707 1.388 . S
C709 C710 1.366 . S
C710 C709 1.366 . S
C710 C711 1.414 . S
C710 C713 1.499 . S
C711 H685 0.950 . S
C711 C710 1.414 . S
C711 C712 1.374 . S
C712 H686 0.950 . S
C712 C708 1.385 . S
C712 C711 1.374 . S
C713 C710 1.499 . S
C713 C714 1.373 . S
C713 C715 1.389 . S
C714 H687 0.950 . S
C714 C700 1.377 . S
C714 C713 1.373 . S
C715 C699 1.377 . S
C715 C713 1.389 . S
C715 C716 1.524 . S
C716 C715 1.524 . S
C716 C717 1.397 . S
C716 C721 1.363 . S
C717 H688 0.950 . S
C717 C716 1.397 . S
C717 C718 1.334 . S
C718 H689 0.950 . S
C718 C717 1.334 . S
C718 C719 1.287 . S
C719 C718 1.287 . S
C719 C720 1.524 . S
C719 H722 0.999 . S
C720 H690 0.950 . S
C720 C719 1.524 . S
C720 C721 1.415 . S
C721 H691 0.950 . S
C721 C716 1.363 . S
C721 C720 1.415 . S
H722 C719 0.999 . S
H723 C704 0.913 . S
H724 C742 0.951 . S
H725 C744 0.951 . S
H726 C746 0.950 . S
H727 C747 0.950 . S
H728 C749 0.950 . S
H729 C752 0.950 . S
H730 C753 0.950 . S
H731 C755 0.950 . S
H732 C756 0.950 . S
H733 C757 0.951 . S
H734 C759 0.951 . S
H735 C761 0.950 . S
H736 C762 0.950 . S
H737 C764 0.950 . S
H738 C767 0.950 . S
H739 C768 0.950 . S
H740 C770 0.950 . S
H741 C771 0.950 . S
C742 H724 0.951 . S
C742 C743 1.366 . S
C742 C744 1.388 . S
C743 C742 1.366 . S
C743 C747 1.385 . S
C744 H725 0.951 . S
C744 C742 1.388 . S
C744 C745 1.366 . S
C745 C744 1.366 . S
C745 C746 1.414 . S
C745 C748 1.499 . S
C746 H726 0.950 . S
C746 C745 1.414 . S
C746 C747 1.374 . S
C747 H727 0.950 . S
C747 C743 1.385 . S
C747 C746 1.374 . S
C748 C745 1.499 . S
C748 C749 1.373 . S
C748 C750 1.389 . S
C749 H728 0.950 . S
C749 C748 1.373 . S
C749 C765 1.377 . S
C750 C748 1.389 . S
C750 C751 1.524 . S
C750 C764 1.377 . S
C751 C750 1.524 . S
C751 C752 1.397 . S
C751 C756 1.363 . S
C752 H729 0.950 . S
C752 C751 1.397 . S
C752 C753 1.334 . S
C753 H730 0.950 . S
C753 C752 1.334 . S
C753 C754 1.287 . S
C754 C753 1.287 . S
C754 C755 1.524 . S
C754 H773 0.913 . S
C755 H731 0.950 . S
C755 C754 1.524 . S
C755 C756 1.415 . S
C756 H732 0.950 . S
C756 C751 1.363 . S
C756 C755 1.415 . S
C757 H733 0.951 . S
C757 C758 1.366 . S
C757 C759 1.388 . S
C758 C757 1.366 . S
C758 C762 1.385 . S
C759 H734 0.951 . S
C759 C757 1.388 . S
C759 C760 1.366 . S
C760 C759 1.366 . S
C760 C761 1.414 . S
C760 C763 1.499 . S
C761 H735 0.950 . S
C761 C760 1.414 . S
C761 C762 1.374 . S
C762 H736 0.950 . S
C762 C758 1.385 . S
C762 C761 1.374 . S
C763 C760 1.499 . S
C763 C764 1.373 . S
C763 C765 1.389 . S
C764 H737 0.950 . S
C764 C750 1.377 . S
C764 C763 1.373 . S
C765 C749 1.377 . S
C765 C763 1.389 . S
C765 C766 1.524 . S
C766 C765 1.524 . S
C766 C767 1.397 . S
C766 C771 1.363 . S
C767 H738 0.950 . S
C767 C766 1.397 . S
C767 C768 1.334 . S
C768 H739 0.950 . S
C768 C767 1.334 . S
C768 C769 1.287 . S
C769 C768 1.287 . S
C769 C770 1.524 . S
C769 H772 0.999 . S
C770 H740 0.950 . S
C770 C769 1.524 . S
C770 C771 1.415 . S
C771 H741 0.950 . S
C771 C766 1.363 . S
C771 C770 1.415 . S
H772 C769 0.999 . S
H773 C754 0.913 . S
H774 C792 0.951 . S
H775 C794 0.951 . S
H776 C796 0.950 . S
H777 C797 0.950 . S
H778 C799 0.950 . S
H779 C802 0.950 . S
H780 C803 0.950 . S
H781 C805 0.950 . S
H782 C806 0.950 . S
H783 C807 0.951 . S
H784 C809 0.951 . S
H785 C811 0.950 . S
H786 C812 0.950 . S
H787 C814 0.950 . S
H788 C817 0.950 . S
H789 C818 0.950 . S
H790 C820 0.950 . S
H791 C821 0.950 . S
C792 H774 0.951 . S
C792 C793 1.366 . S
C792 C794 1.388 . S
C793 C792 1.366 . S
C793 C797 1.385 . S
C794 H775 0.951 . S
C794 C792 1.388 . S
C794 C795 1.366 . S
C795 C794 1.366 . S
C795 C796 1.414 . S
C795 C798 1.499 . S
C796 H776 0.950 . S
C796 C795 1.414 . S
C796 C797 1.374 . S
C797 H777 0.950 . S
C797 C793 1.385 . S
C797 C796 1.374 . S
C798 C795 1.499 . S
C798 C799 1.373 . S
C798 C800 1.389 . S
C799 H778 0.950 . S
C799 C798 1.373 . S
C799 C815 1.377 . S
C800 C798 1.389 . S
C800 C801 1.524 . S
C800 C814 1.377 . S
C801 C800 1.524 . S
C801 C802 1.397 . S
C801 C806 1.363 1_545 S
C802 H779 0.950 . S
C802 C801 1.397 . S
C802 C803 1.334 . S
C803 H780 0.950 . S
C803 C802 1.334 . S
C803 C804 1.287 1_545 S
C804 C803 1.287 1_565 S
C804 C805 1.524 . S
C804 H823 0.913 . S
C805 H781 0.950 . S
C805 C804 1.524 . S
C805 C806 1.415 . S
C806 H782 0.950 . S
C806 C801 1.363 1_565 S
C806 C805 1.415 . S
C807 H783 0.951 . S
C807 C808 1.366 . S
C807 C809 1.388 . S
C808 C807 1.366 . S
C808 C812 1.385 . S
C809 H784 0.951 . S
C809 C807 1.388 . S
C809 C810 1.366 . S
C810 C809 1.366 . S
C810 C811 1.414 . S
C810 C813 1.499 . S
C811 H785 0.950 . S
C811 C810 1.414 . S
C811 C812 1.374 . S
C812 H786 0.950 . S
C812 C808 1.385 . S
C812 C811 1.374 . S
C813 C810 1.499 . S
C813 C814 1.373 . S
C813 C815 1.389 . S
C814 H787 0.950 . S
C814 C800 1.377 . S
C814 C813 1.373 . S
C815 C799 1.377 . S
C815 C813 1.389 . S
C815 C816 1.524 . S
C816 C815 1.524 . S
C816 C817 1.397 . S
C816 C821 1.363 . S
C817 H788 0.950 . S
C817 C816 1.397 . S
C817 C818 1.334 . S
C818 H789 0.950 . S
C818 C817 1.334 . S
C818 C819 1.287 . S
C819 C818 1.287 . S
C819 C820 1.524 . S
C819 H822 0.999 . S
C820 H790 0.950 . S
C820 C819 1.524 . S
C820 C821 1.415 . S
C821 H791 0.950 . S
C821 C816 1.363 . S
C821 C820 1.415 . S
H822 C819 0.999 . S
H823 C804 0.913 . S
H824 C842 0.951 . S
H825 C844 0.951 . S
H826 C846 0.950 . S
H827 C847 0.950 . S
H828 C849 0.950 . S
H829 C852 0.950 . S
H830 C853 0.950 . S
H831 C855 0.950 . S
H832 C856 0.950 . S
H833 C857 0.951 . S
H834 C859 0.951 . S
H835 C861 0.950 . S
H836 C862 0.950 . S
H837 C864 0.950 . S
H838 C867 0.950 . S
H839 C868 0.950 . S
H840 C870 0.950 . S
H841 C871 0.950 . S
C842 H824 0.951 . S
C842 C843 1.366 . S
C842 C844 1.388 . S
C843 C842 1.366 . S
C843 C847 1.385 . S
C844 H825 0.951 . S
C844 C842 1.388 . S
C844 C845 1.366 . S
C845 C844 1.366 . S
C845 C846 1.414 . S
C845 C848 1.499 . S
C846 H826 0.950 . S
C846 C845 1.414 . S
C846 C847 1.374 . S
C847 H827 0.950 . S
C847 C843 1.385 . S
C847 C846 1.374 . S
C848 C845 1.499 . S
C848 C849 1.373 . S
C848 C850 1.389 . S
C849 H828 0.950 . S
C849 C848 1.373 . S
C849 C865 1.377 . S
C850 C848 1.389 . S
C850 C851 1.524 . S
C850 C864 1.377 . S
C851 C850 1.524 . S
C851 C852 1.397 . S
C851 C856 1.363 . S
C852 H829 0.950 . S
C852 C851 1.397 . S
C852 C853 1.334 . S
C853 H830 0.950 . S
C853 C852 1.334 . S
C853 C854 1.287 . S
C854 C853 1.287 . S
C854 C855 1.524 . S
C854 H873 0.913 . S
C855 H831 0.950 . S
C855 C854 1.524 . S
C855 C856 1.415 . S
C856 H832 0.950 . S
C856 C851 1.363 . S
C856 C855 1.415 . S
C857 H833 0.951 . S
C857 C858 1.366 . S
C857 C859 1.388 . S
C858 C857 1.366 . S
C858 C862 1.385 . S
C859 H834 0.951 . S
C859 C857 1.388 . S
C859 C860 1.366 . S
C860 C859 1.366 . S
C860 C861 1.414 . S
C860 C863 1.499 . S
C861 H835 0.950 . S
C861 C860 1.414 . S
C861 C862 1.374 . S
C862 H836 0.950 . S
C862 C858 1.385 . S
C862 C861 1.374 . S
C863 C860 1.499 . S
C863 C864 1.373 . S
C863 C865 1.389 . S
C864 H837 0.950 . S
C864 C850 1.377 . S
C864 C863 1.373 . S
C865 C849 1.377 . S
C865 C863 1.389 . S
C865 C866 1.524 . S
C866 C865 1.524 . S
C866 C867 1.397 . S
C866 C871 1.363 . S
C867 H838 0.950 . S
C867 C866 1.397 . S
C867 C868 1.334 . S
C868 H839 0.950 . S
C868 C867 1.334 . S
C868 C869 1.287 . S
C869 C868 1.287 . S
C869 C870 1.524 . S
C869 H872 0.999 . S
C870 H840 0.950 . S
C870 C869 1.524 . S
C870 C871 1.415 . S
C871 H841 0.950 . S
C871 C866 1.363 . S
C871 C870 1.415 . S
H872 C869 0.999 . S
H873 C854 0.913 . S
H874 C892 0.951 . S
H875 C894 0.951 . S
H876 C896 0.950 . S
H877 C897 0.950 . S
H878 C899 0.950 . S
H879 C902 0.950 . S
H880 C903 0.950 . S
H881 C905 0.950 . S
H882 C906 0.950 . S
H883 C907 0.951 . S
H884 C909 0.951 . S
H885 C911 0.950 1_545 S
H886 C912 0.950 1_545 S
H887 C914 0.950 . S
H888 C917 0.950 . S
H889 C918 0.950 . S
H890 C920 0.950 . S
H891 C921 0.950 . S
C892 H874 0.951 . S
C892 C893 1.366 . S
C892 C894 1.388 . S
C893 C892 1.366 . S
C893 C897 1.385 . S
C894 H875 0.951 . S
C894 C892 1.388 . S
C894 C895 1.366 . S
C895 C894 1.366 . S
C895 C896 1.414 . S
C895 C898 1.499 . S
C896 H876 0.950 . S
C896 C895 1.414 . S
C896 C897 1.374 . S
C897 H877 0.950 . S
C897 C893 1.385 . S
C897 C896 1.374 . S
C898 C895 1.499 . S
C898 C899 1.373 . S
C898 C900 1.389 . S
C899 H878 0.950 . S
C899 C898 1.373 . S
C899 C915 1.377 . S
C900 C898 1.389 . S
C900 C901 1.524 . S
C900 C914 1.377 . S
C901 C900 1.524 . S
C901 C902 1.397 . S
C901 C906 1.363 1_565 S
C902 H879 0.950 . S
C902 C901 1.397 . S
C902 C903 1.334 . S
C903 H880 0.950 . S
C903 C902 1.334 . S
C903 C904 1.287 1_565 S
C904 C903 1.287 1_545 S
C904 C905 1.524 . S
C904 H923 0.913 . S
C905 H881 0.950 . S
C905 C904 1.524 . S
C905 C906 1.415 . S
C906 H882 0.950 . S
C906 C901 1.363 1_545 S
C906 C905 1.415 . S
C907 H883 0.951 . S
C907 C908 1.366 . S
C907 C909 1.388 . S
C908 C907 1.366 . S
C908 C912 1.385 . S
C909 H884 0.951 . S
C909 C907 1.388 . S
C909 C910 1.366 . S
C910 C909 1.366 . S
C910 C911 1.414 . S
C910 C913 1.499 . S
C911 H885 0.950 1_565 S
C911 C910 1.414 . S
C911 C912 1.374 . S
C912 H886 0.950 1_565 S
C912 C908 1.385 . S
C912 C911 1.374 . S
C913 C910 1.499 . S
C913 C914 1.373 . S
C913 C915 1.389 . S
C914 H887 0.950 . S
C914 C900 1.377 . S
C914 C913 1.373 . S
C915 C899 1.377 . S
C915 C913 1.389 . S
C915 C916 1.524 . S
C916 C915 1.524 . S
C916 C917 1.397 . S
C916 C921 1.363 . S
C917 H888 0.950 . S
C917 C916 1.397 . S
C917 C918 1.334 . S
C918 H889 0.950 . S
C918 C917 1.334 . S
C918 C919 1.287 . S
C919 C918 1.287 . S
C919 C920 1.524 . S
C919 H922 0.999 . S
C920 H890 0.950 . S
C920 C919 1.524 . S
C920 C921 1.415 . S
C921 H891 0.950 . S
C921 C916 1.363 . S
C921 C920 1.415 . S
H922 C919 0.999 . S
H923 C904 0.913 . S
C358 C224 1.621 . S
C343 C138 1.622 . S
C393 C21 1.610 . S
C408 C296 1.607 . S
C443 C60 1.628 . S
C458 C212 1.621 . S
C493 C99 1.618 . S
C508 C308 1.608 . S
C558 C214 1.413 . S
C543 C16 1.560 . S
C608 C295 1.609 . S
C593 C40 1.603 . S
C643 C79 1.590 . S
C658 C211 1.601 . S
C693 C133 1.545 . S
C708 C298 1.400 . S
C758 C310 1.402 . S
C743 C55 1.544 . S
C808 C226 1.412 . S
C793 C94 1.558 . S
C858 C307 1.609 . S
C843 C118 1.600 . S
C893 C1 1.586 . S
C908 C223 1.601 . S
