# Generated by pormake.
# Topology nom, (4,4)-cn, num edge types: 1
# Building blocks:
#     Node 0, Type 0, BuildingBlock: GIZVER_clean_linker_0, # of connection points: 4
#     Node 1, Type 0, BuildingBlock: GIZVER_clean_linker_0, # of connection points: 4
#     Node 2, Type 0, BuildingBlock: GIZVER_clean_linker_0, # of connection points: 4
#     Node 3, Type 0, BuildingBlock: GIZVER_clean_linker_0, # of connection points: 4
#     Node 4, Type 0, BuildingBlock: GIZVER_clean_linker_0, # of connection points: 4
#     Node 5, Type 0, BuildingBlock: GIZVER_clean_linker_0, # of connection points: 4
#     Node 6, Type 1, BuildingBlock: KUFVIS_clean_sbu_0, # of connection points: 4
#     Node 7, Type 1, BuildingBlock: KUFVIS_clean_sbu_0, # of connection points: 4
#     Node 8, Type 1, BuildingBlock: KUFVIS_clean_sbu_0, # of connection points: 4
#     Node 9, Type 1, BuildingBlock: KUFVIS_clean_sbu_0, # of connection points: 4
#     Node 10, Type 1, BuildingBlock: KUFVIS_clean_sbu_0, # of connection points: 4
#     Node 11, Type 1, BuildingBlock: KUFVIS_clean_sbu_0, # of connection points: 4
#     Edge 12, Type (0, 1), BuildingBlock: UVAHIK_clean_linker_0, # of connection points: 2
#     Edge 13, Type (0, 1), BuildingBlock: UVAHIK_clean_linker_0, # of connection points: 2
#     Edge 14, Type (0, 1), BuildingBlock: UVAHIK_clean_linker_0, # of connection points: 2
#     Edge 15, Type (0, 1), BuildingBlock: UVAHIK_clean_linker_0, # of connection points: 2
#     Edge 16, Type (0, 1), BuildingBlock: UVAHIK_clean_linker_0, # of connection points: 2
#     Edge 17, Type (0, 1), BuildingBlock: UVAHIK_clean_linker_0, # of connection points: 2
#     Edge 18, Type (0, 1), BuildingBlock: UVAHIK_clean_linker_0, # of connection points: 2
#     Edge 19, Type (0, 1), BuildingBlock: UVAHIK_clean_linker_0, # of connection points: 2
#     Edge 20, Type (0, 1), BuildingBlock: UVAHIK_clean_linker_0, # of connection points: 2
#     Edge 21, Type (0, 1), BuildingBlock: UVAHIK_clean_linker_0, # of connection points: 2
#     Edge 22, Type (0, 1), BuildingBlock: UVAHIK_clean_linker_0, # of connection points: 2
#     Edge 23, Type (0, 1), BuildingBlock: UVAHIK_clean_linker_0, # of connection points: 2
#     Edge 24, Type (0, 1), BuildingBlock: UVAHIK_clean_linker_0, # of connection points: 2
#     Edge 25, Type (0, 1), BuildingBlock: UVAHIK_clean_linker_0, # of connection points: 2
#     Edge 26, Type (0, 1), BuildingBlock: UVAHIK_clean_linker_0, # of connection points: 2
#     Edge 27, Type (0, 1), BuildingBlock: UVAHIK_clean_linker_0, # of connection points: 2
#     Edge 28, Type (0, 1), BuildingBlock: UVAHIK_clean_linker_0, # of connection points: 2
#     Edge 29, Type (0, 1), BuildingBlock: UVAHIK_clean_linker_0, # of connection points: 2
#     Edge 30, Type (0, 1), BuildingBlock: UVAHIK_clean_linker_0, # of connection points: 2
#     Edge 31, Type (0, 1), BuildingBlock: UVAHIK_clean_linker_0, # of connection points: 2
#     Edge 32, Type (0, 1), BuildingBlock: UVAHIK_clean_linker_0, # of connection points: 2
#     Edge 33, Type (0, 1), BuildingBlock: UVAHIK_clean_linker_0, # of connection points: 2
#     Edge 34, Type (0, 1), BuildingBlock: UVAHIK_clean_linker_0, # of connection points: 2
#     Edge 35, Type (0, 1), BuildingBlock: UVAHIK_clean_linker_0, # of connection points: 2
# Relax obj value: 0.005
# Max RMSD: 0.071
# Mean RMSD: 0.051
data_MOF--net-nom--node1-KUFVIS_clean_sbu_0--node2-GIZVER_clean_linker_0--edge1-UVAHIK_clean_linker_0
_symmetry_space_group_name_H-M    P1
_symmetry_Int_Tables_number       1
_symmetry_cell_setting            triclinic
loop_
_symmetry_equiv_pos_as_xyz
'x, y, z'
_cell_length_a     59.318657
_cell_length_b     59.818023
_cell_length_c     59.45191
_cell_angle_alpha  90.615478
_cell_angle_beta   90.57229
_cell_angle_gamma 120.04765
loop_
_atom_site_label
_atom_site_type_symbol
_atom_site_fract_x
_atom_site_fract_y
_atom_site_fract_z
_atom_type_partial_charge
H0 H 0.98177 0.55306 0.33652 0.0
H1 H 0.00732 0.56892 0.26804 0.0
H2 H 0.93384 0.50245 0.28254 0.0
H3 H 0.01543 0.59651 0.32555 0.0
H4 H 0.02543 0.60312 0.29708 0.0
H5 H 0.03119 0.57256 0.34978 0.0
H6 H 0.10879 0.58953 0.33473 0.0
H7 H 0.06399 0.60294 0.28516 0.0
C8 C 0.97888 0.54735 0.3189 0.0
C9 C 0.95563 0.52521 0.31165 0.0
C10 C 0.99782 0.56306 0.30328 0.0
C11 C 0.9935 0.55631 0.28029 0.0
C12 C 0.97065 0.53415 0.27294 0.0
C13 C 0.95215 0.51855 0.28865 0.0
C14 C 0.02067 0.5888 0.31061 0.0
C15 C 0.04447 0.58687 0.31646 0.0
C16 C 0.04694 0.57866 0.33799 0.0
C17 C 0.07009 0.57945 0.34466 0.0
C18 C 0.0906 0.58819 0.32946 0.0
C19 C 0.08886 0.59705 0.30814 0.0
C20 C 0.06541 0.5957 0.30144 0.0
H21 H 0.43906 0.9787 0.5062 0.0
H22 H 0.44953 0.00698 0.4385 0.0
H23 H 0.44275 0.93353 0.45098 0.0
H24 H 0.42864 0.01297 0.49488 0.0
H25 H 0.43593 0.02608 0.4674 0.0
H26 H 0.46378 0.02482 0.52341 0.0
H27 H 0.53161 0.0992 0.51581 0.0
H28 H 0.47791 0.06348 0.46002 0.0
C29 C 0.442 0.97656 0.48852 0.0
C30 C 0.44137 0.95392 0.48066 0.0
C31 C 0.44546 0.99609 0.47343 0.0
C32 C 0.44805 0.99268 0.45036 0.0
C33 C 0.44747 0.9703 0.44242 0.0
C34 C 0.44458 0.95135 0.45758 0.0
C35 C 0.44327 0.01902 0.48133 0.0
C36 C 0.46899 0.04085 0.49019 0.0
C37 C 0.4763 0.04073 0.51273 0.0
C38 C 0.49882 0.06182 0.52196 0.0
C39 C 0.51442 0.08283 0.50838 0.0
C40 C 0.50676 0.08425 0.48625 0.0
C41 C 0.48435 0.06269 0.47696 0.0
H42 H 0.4523 0.49588 0.62041 0.0
H43 H 0.4669 0.48335 0.68888 0.0
H44 H 0.45984 0.5494 0.67272 0.0
H45 H 0.44413 0.45385 0.63135 0.0
H46 H 0.44427 0.44691 0.66037 0.0
H47 H 0.48482 0.47182 0.60945 0.0
H48 H 0.5409 0.45211 0.63424 0.0
H49 H 0.48193 0.44791 0.678 0.0
C50 C 0.45653 0.50243 0.63781 0.0
C51 C 0.4567 0.52516 0.64449 0.0
C52 C 0.4604 0.48734 0.65375 0.0
C53 C 0.46483 0.49538 0.67648 0.0
C54 C 0.46506 0.51803 0.68339 0.0
C55 C 0.46138 0.53288 0.66723 0.0
C56 C 0.45593 0.46093 0.6472 0.0
C57 C 0.48112 0.46079 0.64426 0.0
C58 C 0.49309 0.46626 0.62314 0.0
C59 C 0.51483 0.46332 0.61938 0.0
C60 C 0.52501 0.45574 0.63725 0.0
C61 C 0.51344 0.45027 0.65841 0.0
C62 C 0.49147 0.45288 0.66188 0.0
H63 H 0.97506 0.46937 0.78229 0.0
H64 H 0.9997 0.48606 0.85177 0.0
H65 H 0.92309 0.46963 0.83196 0.0
H66 H 0.01067 0.46432 0.79602 0.0
H67 H 0.0188 0.46784 0.82518 0.0
H68 H 0.02948 0.50244 0.77127 0.0
H69 H 0.10544 0.56227 0.79299 0.0
H70 H 0.05326 0.50811 0.84069 0.0
C71 C 0.97143 0.47297 0.79941 0.0
C72 C 0.94695 0.46971 0.8049 0.0
C73 C 0.99063 0.47903 0.81622 0.0
C74 C 0.98541 0.48247 0.83864 0.0
C75 C 0.96119 0.47963 0.84432 0.0
C76 C 0.94238 0.47367 0.8273 0.0
C77 C 0.01451 0.47718 0.81097 0.0
C78 C 0.03824 0.50314 0.80669 0.0
C79 C 0.04354 0.51275 0.78471 0.0
C80 C 0.06769 0.53442 0.77973 0.0
C81 C 0.08617 0.54681 0.79714 0.0
C82 C 0.08138 0.53749 0.81915 0.0
C83 C 0.05702 0.51594 0.82391 0.0
H84 H 0.57736 0.05105 0.00824 0.0
H85 H 0.55823 0.02781 0.93866 0.0
H86 H 0.57366 0.10278 0.96076 0.0
H87 H 0.58355 0.01662 0.99183 0.0
H88 H 0.57577 0.00722 0.96303 0.0
H89 H 0.54837 1.0011 0.02032 0.0
H90 H 0.48326 0.92602 0.00482 0.0
H91 H 0.53335 0.97195 0.95196 0.0
C92 C 0.57294 0.05482 0.99146 0.0
C93 C 0.57513 0.07884 0.98681 0.0
C94 C 0.56659 0.03618 0.97417 0.0
C95 C 0.56212 0.04167 0.95216 0.0
C96 C 0.5643 0.06559 0.94728 0.0
C97 C 0.57031 0.08372 0.96477 0.0
C98 C 0.56868 0.01241 0.97839 0.0
C99 C 0.54313 0.98953 0.98524 0.0
C100 C 0.53612 0.98635 0.00802 0.0
C101 C 0.51424 0.96357 0.01513 0.0
C102 C 0.49911 0.94426 -0.00087 0.0
C103 C 0.50569 0.94693 0.97632 0.0
C104 C 0.52765 0.96985 0.96942 0.0
H105 H 0.58622 0.5433 0.12329 0.0
H106 H 0.56855 0.54769 0.19273 0.0
H107 H 0.57388 0.48265 0.16817 0.0
H108 H 0.59457 0.58412 0.13978 0.0
H109 H 0.59108 0.58694 0.16926 0.0
H110 H 0.55396 0.56358 0.11444 0.0
H111 H 0.49689 0.5834 0.13505 0.0
H112 H 0.55364 0.58776 0.18294 0.0
C113 C 0.58083 0.53463 0.13971 0.0
C114 C 0.57936 0.51079 0.14347 0.0
C115 C 0.57651 0.54786 0.15738 0.0
C116 C 0.57091 0.53709 0.17893 0.0
C117 C 0.56977 0.51342 0.18297 0.0
C118 C 0.5734 0.50022 0.16499 0.0
C119 C 0.58117 0.57484 0.15403 0.0
C120 C 0.55616 0.57497 0.14936 0.0
C121 C 0.54512 0.56925 0.12751 0.0
C122 C 0.52338 0.57181 0.12234 0.0
C123 C 0.5126 0.57983 0.13933 0.0
C124 C 0.52317 0.58555 0.16122 0.0
C125 C 0.54494 0.5829 0.16621 0.0
Mn126 Mn 0.64395 0.38802 0.40841 0.0
Mn127 Mn 0.67427 0.45131 0.42385 0.0
C128 C 0.62404 0.40298 0.43304 0.0
C129 C 0.63516 0.34558 0.41316 0.0
C130 C 0.64528 0.43085 0.3794 0.0
O131 O 0.68162 0.40081 0.39898 0.0
O132 O 0.69914 0.44205 0.4109 0.0
C133 C 0.70713 0.44923 0.46066 0.0
N134 N 0.68941 0.45572 0.45322 0.0
C135 C 0.69049 0.4757 0.48884 0.0
C136 C 0.70887 0.46937 0.49687 0.0
C137 C 0.7171 0.45594 0.48276 0.0
C138 C 0.68104 0.46825 0.46676 0.0
H139 H 0.71367 0.43911 0.4498 0.0
C140 C 0.70109 0.42355 0.402 0.0
O141 O 0.63168 0.35346 0.39388 0.0
O142 O 0.64479 0.36265 0.42941 0.0
N143 N 0.65328 0.46382 0.43694 0.0
C144 C 0.63469 0.46754 0.4269 0.0
C145 C 0.62402 0.48029 0.43889 0.0
C146 C 0.63301 0.48963 0.46085 0.0
C147 C 0.65242 0.4859 0.47072 0.0
C148 C 0.66218 0.47289 0.45802 0.0
H149 H 0.62807 0.46084 0.40987 0.0
O150 O 0.61046 0.38153 0.42176 0.0
O151 O 0.64911 0.41496 0.43012 0.0
O152 O 0.63855 0.40721 0.38231 0.0
O153 O 0.6589 0.4488 0.39374 0.0
C154 C 0.66236 0.49441 0.49273 0.0
C155 C 0.68116 0.48906 0.50186 0.0
H156 H 0.71672 0.47465 0.51387 0.0
H157 H 0.73122 0.45092 0.48886 0.0
H158 H 0.60906 0.48312 0.43115 0.0
H159 H 0.62479 0.49955 0.47 0.0
H160 H 0.65547 0.50485 0.50288 0.0
H161 H 0.6883 0.49532 0.51893 0.0
Mn162 Mn 0.26999 0.65051 0.55769 0.0
Mn163 Mn 0.23775 0.58706 0.54257 0.0
C164 C 0.23445 0.63452 0.53308 0.0
C165 C 0.30333 0.69321 0.55305 0.0
C166 C 0.2295 0.60723 0.58687 0.0
O167 O 0.29565 0.63875 0.5673 0.0
O168 O 0.27269 0.59746 0.55519 0.0
C169 C 0.27192 0.5899 0.50542 0.0
N170 N 0.24774 0.58284 0.5131 0.0
C171 C 0.22781 0.56259 0.47758 0.0
C172 C 0.25249 0.56953 0.4693 0.0
C173 C 0.27465 0.58337 0.48325 0.0
C174 C 0.22634 0.56985 0.49974 0.0
H175 H 0.28897 0.60035 0.51616 0.0
C176 C 0.2931 0.61643 0.56414 0.0
O177 O 0.29192 0.6852 0.57217 0.0
O178 O 0.29604 0.67621 0.53679 0.0
N179 N 0.20355 0.57353 0.52984 0.0
C180 C 0.1813 0.56913 0.54014 0.0
C181 C 0.15739 0.55574 0.5284 0.0
C182 C 0.15651 0.54654 0.50639 0.0
C183 C 0.17962 0.55104 0.49622 0.0
C184 C 0.20287 0.56455 0.50873 0.0
H185 H 0.18178 0.57576 0.5572 0.0
O186 O 0.24231 0.65605 0.54412 0.0
O187 O 0.24806 0.62314 0.5361 0.0
O188 O 0.24579 0.63105 0.58373 0.0
O189 O 0.2256 0.58933 0.57278 0.0
C190 C 0.18054 0.54284 0.4741 0.0
C191 C 0.20464 0.54882 0.46472 0.0
H192 H 0.25465 0.56442 0.45225 0.0
H193 H 0.29376 0.58885 0.47697 0.0
H194 H 0.13964 0.55233 0.53636 0.0
H195 H 0.138 0.5361 0.49745 0.0
H196 H 0.16286 0.53214 0.46405 0.0
H197 H 0.20512 0.54275 0.44758 0.0
Mn198 Mn 0.63246 0.26544 0.72804 0.0
Mn199 Mn 0.66167 0.2333 0.70793 0.0
C200 C 0.60914 0.22888 0.70561 0.0
C201 C 0.62185 0.29802 0.72494 0.0
C202 C 0.64122 0.22706 0.75531 0.0
O203 O 0.67106 0.29145 0.73331 0.0
O204 O 0.68806 0.26854 0.71846 0.0
C205 C 0.68531 0.26583 0.66818 0.0
N206 N 0.66987 0.24214 0.67712 0.0
C207 C 0.66112 0.22152 0.64057 0.0
C208 C 0.67705 0.24567 0.63099 0.0
C209 C 0.68912 0.26793 0.64485 0.0
C210 C 0.65792 0.22065 0.66391 0.0
H211 H 0.69463 0.28298 0.67876 0.0
C212 C 0.69048 0.28903 0.72779 0.0
O213 O 0.62219 0.28831 0.74429 0.0
O214 O 0.62856 0.28944 0.70762 0.0
N215 N 0.6391 0.19886 0.69683 0.0
C216 C 0.62473 0.17697 0.70877 0.0
C217 C 0.61186 0.15294 0.69746 0.0
C218 C 0.6142 0.1516 0.67407 0.0
C219 C 0.62937 0.17431 0.66219 0.0
C220 C 0.642 0.19768 0.6744 0.0
H221 H 0.62313 0.17781 0.72679 0.0
O222 O 0.59716 0.2371 0.71843 0.0
O223 O 0.63443 0.24273 0.70564 0.0
O224 O 0.63298 0.24306 0.75373 0.0
O225 O 0.65285 0.22253 0.73943 0.0
C226 C 0.63251 0.17468 0.63871 0.0
C227 C 0.64824 0.19829 0.62789 0.0
H228 H 0.68009 0.24737 0.613 0.0
H229 H 0.70137 0.28665 0.63757 0.0
H230 H 0.60027 0.13547 0.70676 0.0
H231 H 0.60442 0.13303 0.66542 0.0
H232 H 0.6228 0.15692 0.6288 0.0
H233 H 0.65036 0.19835 0.60981 0.0
Mn234 Mn 0.39227 0.64166 0.90971 0.0
Mn235 Mn 0.36048 0.57922 0.92576 0.0
C236 C 0.41188 0.62739 0.93526 0.0
C237 C 0.40101 0.68419 0.91307 0.0
C238 C 0.3887 0.59668 0.88161 0.0
O239 O 0.35482 0.6291 0.89926 0.0
O240 O 0.33578 0.58882 0.91261 0.0
C241 C 0.32989 0.58436 0.96244 0.0
N242 N 0.34674 0.57677 0.95511 0.0
C243 C 0.3466 0.5584 0.99092 0.0
C244 C 0.32914 0.5659 -0.00115 0.0
C245 C 0.32087 0.57908 0.98458 0.0
C246 C 0.35514 0.56446 0.96879 0.0
H247 H 0.32332 0.59428 0.95144 0.0
C248 C 0.33471 0.60721 0.90284 0.0
O249 O 0.40486 0.67521 0.89444 0.0
O250 O 0.39164 0.66835 0.92969 0.0
N251 N 0.38122 0.56644 0.93902 0.0
C252 C 0.39885 0.56143 0.92904 0.0
C253 C 0.40928 0.54856 0.94111 0.0
C254 C 0.40107 0.54048 0.96311 0.0
C255 C 0.38272 0.54563 0.97297 0.0
C256 C 0.37308 0.5586 0.96014 0.0
H257 H 0.40485 0.56714 0.91197 0.0
O258 O 0.42564 0.64836 0.92412 0.0
O259 O 0.38675 0.61568 0.93186 0.0
O260 O 0.39698 0.62075 0.8845 0.0
O261 O 0.37434 0.57961 0.89568 0.0
C262 C 0.37375 0.53858 0.99506 0.0
C263 C 0.35592 0.5452 0.00411 0.0
H264 H 0.32203 0.56173 0.01588 0.0
H265 H 0.30745 0.58499 0.99059 0.0
H266 H 0.42343 0.54465 0.9334 0.0
H267 H 0.40905 0.5304 0.97229 0.0
H268 H 0.38063 0.5283 0.00534 0.0
H269 H 0.34949 0.54004 0.02123 0.0
Mn270 Mn 0.76162 0.3928 0.06728 0.0
Mn271 Mn 0.79941 0.36918 0.08626 0.0
C272 C 0.79746 0.41814 0.09019 0.0
C273 C 0.72565 0.39856 0.07067 0.0
C274 C 0.80372 0.39038 0.03948 0.0
O275 O 0.73873 0.35405 0.06113 0.0
O276 O 0.76518 0.34068 0.07524 0.0
C277 C 0.7675 0.34197 0.12555 0.0
N278 N 0.79087 0.35948 0.11688 0.0
C279 C 0.81153 0.36904 0.15351 0.0
C280 C 0.78773 0.351 0.16281 0.0
C281 C 0.76561 0.33747 0.14877 0.0
C282 C 0.81219 0.37282 0.13027 0.0
H283 H 0.75044 0.33154 0.11483 0.0
C284 C 0.74368 0.33621 0.06604 0.0
O285 O 0.7363 0.40009 0.05135 0.0
O286 O 0.73531 0.39276 0.08782 0.0
N287 N 0.83322 0.39402 0.09776 0.0
C288 C 0.85479 0.41051 0.0861 0.0
C289 C 0.87871 0.42511 0.09761 0.0
C290 C 0.88031 0.42235 0.1209 0.0
C291 C 0.85796 0.40503 0.13249 0.0
C292 C 0.83473 0.39076 0.12008 0.0
H293 H 0.85378 0.41248 0.06815 0.0
O294 O 0.78734 0.42862 0.07773 0.0
O295 O 0.78588 0.39303 0.08949 0.0
O296 O 0.78567 0.39594 0.04152 0.0
O297 O 0.80999 0.37968 0.05493 0.0
C298 C 0.85784 0.40137 0.15587 0.0
C299 C 0.8346 0.38351 0.1664 0.0
H300 H 0.7862 0.34744 0.18071 0.0
H301 H 0.74714 0.32359 0.15584 0.0
H302 H 0.89591 0.43837 0.08853 0.0
H303 H 0.89883 0.43349 0.1297 0.0
H304 H 0.87547 0.4123 0.16593 0.0
H305 H 0.83469 0.381 0.18441 0.0
Mn306 Mn 0.39086 0.76831 0.23614 0.0
Mn307 Mn 0.45104 0.8047 0.25942 0.0
C308 C 0.3998 0.80323 0.25922 0.0
C309 C 0.34864 0.73283 0.23721 0.0
C310 C 0.43771 0.81069 0.21136 0.0
O311 O 0.40716 0.74557 0.23147 0.0
O312 O 0.44601 0.77104 0.24843 0.0
C313 C 0.44315 0.77163 0.29866 0.0
N314 N 0.44979 0.79515 0.29015 0.0
C315 C 0.45813 0.81441 0.32726 0.0
C316 C 0.45153 0.79042 0.33641 0.0
C317 C 0.44393 0.76893 0.32204 0.0
C318 C 0.45683 0.81588 0.30383 0.0
H319 H 0.43728 0.75505 0.28768 0.0
C320 C 0.42966 0.75016 0.23808 0.0
O321 O 0.35895 0.74378 0.21835 0.0
O322 O 0.36325 0.74182 0.25516 0.0
N323 N 0.45931 0.83794 0.2711 0.0
C324 C 0.46543 0.85979 0.25957 0.0
C325 C 0.47394 0.88316 0.27144 0.0
C326 C 0.47645 0.88391 0.29499 0.0
C327 C 0.47042 0.8613 0.30646 0.0
C328 C 0.46233 0.83864 0.29372 0.0
H329 H 0.46387 0.85942 0.24144 0.0
O330 O 0.38003 0.79366 0.24537 0.0
O331 O 0.41337 0.79159 0.25978 0.0
O332 O 0.41377 0.79295 0.21169 0.0
O333 O 0.45348 0.81619 0.22806 0.0
C334 C 0.47213 0.86035 0.33005 0.0
C335 C 0.46582 0.83688 0.34045 0.0
H336 H 0.45215 0.78827 0.35444 0.0
H337 H 0.43872 0.75033 0.32898 0.0
H338 H 0.47867 0.90057 0.26246 0.0
H339 H 0.48317 0.90199 0.30409 0.0
H340 H 0.47812 0.87752 0.34036 0.0
H341 H 0.46701 0.83633 0.35862 0.0
C342 C 0.11265 0.60374 0.27146 0.0
C343 C 0.11275 0.60995 0.29438 0.0
C344 C 0.1362 0.61391 0.2598 0.0
C345 C 0.20191 0.63062 0.26849 0.0
H346 H 0.228 0.68717 0.2267 0.0
C347 C 0.31074 0.70126 0.25948 0.0
C348 C 0.3208 0.71273 0.23874 0.0
C349 C 0.28403 0.68468 0.26193 0.0
C350 C 0.22086 0.67096 0.23792 0.0
H351 H 0.13727 0.6333 0.32243 0.0
H352 H 0.17798 0.65029 0.30232 0.0
H353 H 0.18231 0.66594 0.238 0.0
H354 H 0.31077 0.71502 0.204 0.0
H355 H 0.26393 0.68577 0.20823 0.0
H356 H 0.24029 0.63584 0.2691 0.0
C357 C 0.15987 0.63742 0.29348 0.0
C358 C 0.19473 0.65887 0.24436 0.0
C359 C 0.13657 0.62758 0.30496 0.0
C360 C 0.30361 0.70646 0.22022 0.0
C361 C 0.27676 0.68986 0.22268 0.0
C362 C 0.22786 0.64248 0.26195 0.0
C363 C 0.15998 0.63028 0.271 0.0
C364 C 0.18535 0.63918 0.26023 0.0
C365 C 0.2666 0.67908 0.24368 0.0
C366 C 0.23797 0.66347 0.24726 0.0
H367 H 0.09459 0.59027 0.26289 0.0
H368 H 0.13595 0.60827 0.24239 0.0
H369 H 0.19502 0.61545 0.28079 0.0
H370 H 0.3234 0.7057 0.27411 0.0
H371 H 0.27697 0.67713 0.27845 0.0
C372 C 0.52922 0.13263 0.48696 0.0
C373 C 0.52058 0.10951 0.47448 0.0
C374 C 0.54353 0.15658 0.47693 0.0
C375 C 0.5556 0.19235 0.42622 0.0
H376 H 0.62086 0.2408 0.45608 0.0
C377 C 0.61573 0.29954 0.39938 0.0
C378 C 0.62642 0.31796 0.41703 0.0
C379 C 0.60524 0.27317 0.40358 0.0
C380 C 0.60261 0.22766 0.4476 0.0
H381 H 0.51904 0.09379 0.44109 0.0
H382 H 0.54357 0.13623 0.42324 0.0
H383 H 0.597 0.19612 0.46813 0.0
H384 H 0.63489 0.32307 0.45288 0.0
H385 H 0.61629 0.2774 0.46028 0.0
H386 H 0.56038 0.22418 0.40651 0.0
C387 C 0.5396 0.13537 0.44105 0.0
C388 C 0.58908 0.20198 0.4544 0.0
C389 C 0.52552 0.11114 0.45125 0.0
C390 C 0.62698 0.30946 0.43885 0.0
C391 C 0.6164 0.28315 0.44307 0.0
C392 C 0.56901 0.21822 0.41956 0.0
C393 C 0.54918 0.15828 0.45399 0.0
C394 C 0.56516 0.18422 0.44416 0.0
C395 C 0.60513 0.26456 0.42555 0.0
C396 C 0.59239 0.23639 0.43058 0.0
H397 H 0.52493 0.13233 0.50465 0.0
H398 H 0.55011 0.17391 0.48718 0.0
H399 H 0.5371 0.17906 0.41816 0.0
H400 H 0.61502 0.30545 0.38235 0.0
H401 H 0.59709 0.25952 0.3896 0.0
C402 C 0.4597 0.56604 0.63036 0.0
C403 C 0.44813 0.53897 0.62896 0.0
C404 C 0.4481 0.57858 0.6197 0.0
C405 C 0.39746 0.57004 0.57775 0.0
H406 H 0.38678 0.61526 0.61803 0.0
C407 C 0.31173 0.58711 0.56592 0.0
C408 C 0.31472 0.61166 0.57024 0.0
C409 C 0.33173 0.58207 0.57083 0.0
C410 C 0.38999 0.60312 0.60638 0.0
H411 H 0.41618 0.50413 0.61397 0.0
H412 H 0.39625 0.526 0.59507 0.0
H413 H 0.41601 0.59958 0.62937 0.0
H414 H 0.34146 0.6502 0.58325 0.0
H415 H 0.37669 0.64124 0.59197 0.0
H416 H 0.37098 0.57303 0.555 0.0
C417 C 0.4143 0.53756 0.60443 0.0
C418 C 0.40675 0.59412 0.61287 0.0
C419 C 0.42581 0.52499 0.6152 0.0
C420 C 0.33843 0.63107 0.57976 0.0
C421 C 0.35859 0.62593 0.58477 0.0
C422 C 0.38081 0.57911 0.57123 0.0
C423 C 0.42479 0.56438 0.60722 0.0
C424 C 0.41011 0.57689 0.59889 0.0
C425 C 0.35548 0.60136 0.5802 0.0
C426 C 0.37623 0.59511 0.58575 0.0
H427 H 0.47712 0.57742 0.64056 0.0
H428 H 0.45692 0.59931 0.62183 0.0
H429 H 0.39998 0.55717 0.56644 0.0
H430 H 0.29382 0.57154 0.55867 0.0
H431 H 0.32835 0.56277 0.56758 0.0
C432 C 0.92006 0.43637 0.77531 0.0
C433 C 0.92448 0.45777 0.78868 0.0
C434 C 0.89598 0.42102 0.76446 0.0
C435 C 0.83143 0.41512 0.75078 0.0
H436 H 0.80696 0.34234 0.759 0.0
C437 C 0.72229 0.33362 0.74331 0.0
C438 C 0.71741 0.31068 0.73221 0.0
C439 C 0.74795 0.35337 0.74791 0.0
C440 C 0.81355 0.36256 0.75632 0.0
H441 H 0.908 0.48136 0.79908 0.0
H442 H 0.86579 0.45415 0.7808 0.0
H443 H 0.85152 0.37402 0.76929 0.0
H444 H 0.73594 0.2911 0.71656 0.0
H445 H 0.78014 0.32523 0.72457 0.0
H446 H 0.79286 0.40331 0.73835 0.0
C447 C 0.88088 0.44921 0.77859 0.0
C448 C 0.83922 0.38079 0.7621 0.0
C449 C 0.90506 0.46473 0.78924 0.0
C450 C 0.73877 0.30828 0.72538 0.0
C451 C 0.76423 0.32786 0.73002 0.0
C452 C 0.80558 0.39679 0.74509 0.0
C453 C 0.87566 0.42652 0.76689 0.0
C454 C 0.84859 0.40733 0.75937 0.0
C455 C 0.76916 0.35048 0.7416 0.0
C456 C 0.7964 0.37029 0.74775 0.0
H457 H 0.93445 0.43032 0.77449 0.0
H458 H 0.8929 0.40409 0.75505 0.0
H459 H 0.838 0.43537 0.74835 0.0
H460 H 0.70635 0.3362 0.74872 0.0
H461 H 0.75116 0.37056 0.75696 0.0
C462 C 0.4644 0.90769 0.96308 0.0
C463 C 0.49147 0.92399 0.96102 0.0
C464 C 0.45194 0.88278 0.95368 0.0
C465 C 0.45464 0.83735 0.91395 0.0
H466 H 0.42637 0.78843 0.96239 0.0
C467 C 0.42735 0.73042 0.902 0.0
C468 C 0.40809 0.71158 0.91553 0.0
C469 C 0.43545 0.75659 0.90532 0.0
C470 C 0.4335 0.80155 0.94845 0.0
H471 H 0.52609 0.92773 0.94546 0.0
H472 H 0.50397 0.88439 0.92831 0.0
H473 H 0.44317 0.834 0.97018 0.0
H474 H 0.38124 0.70511 0.94238 0.0
H475 H 0.39409 0.75042 0.94738 0.0
H476 H 0.44443 0.80497 0.89202 0.0
C477 C 0.49261 0.89091 0.93756 0.0
C478 C 0.44332 0.82779 0.95302 0.0
C479 C 0.50522 0.91578 0.94728 0.0
C480 C 0.39637 0.71928 0.93189 0.0
C481 C 0.40397 0.74537 0.93485 0.0
C482 C 0.44423 0.81094 0.90923 0.0
C483 C 0.46613 0.87382 0.94159 0.0
C484 C 0.45421 0.84596 0.9359 0.0
C485 C 0.42404 0.76454 0.92195 0.0
C486 C 0.43377 0.79262 0.92648 0.0
H487 H 0.45314 0.9136 0.9732 0.0
H488 H 0.43142 0.87005 0.95677 0.0
H489 H 0.46292 0.85104 0.90047 0.0
H490 H 0.43686 0.72504 0.88933 0.0
H491 H 0.45123 0.77056 0.89527 0.0
C492 C 0.5729 0.47164 0.12218 0.0
C493 C 0.58779 0.49838 0.12638 0.0
C494 C 0.5835 0.45872 0.11055 0.0
C495 C 0.64154 0.46818 0.07829 0.0
H496 H 0.62763 0.40537 0.10822 0.0
C497 C 0.69589 0.4134 0.05509 0.0
C498 C 0.70486 0.40519 0.07345 0.0
C499 C 0.67815 0.42208 0.05827 0.0
C500 C 0.63179 0.42289 0.09967 0.0
H501 H 0.62479 0.53281 0.12055 0.0
H502 H 0.64354 0.51034 0.1006 0.0
H503 H 0.6032 0.42645 0.11837 0.0
H504 H 0.70169 0.399 0.10943 0.0
H505 H 0.67115 0.41434 0.11501 0.0
H506 H 0.67124 0.46531 0.06053 0.0
C507 C 0.62352 0.49927 0.10588 0.0
C508 C 0.61746 0.43483 0.10525 0.0
C509 C 0.61278 0.51223 0.11731 0.0
C510 C 0.69511 0.4051 0.0949 0.0
C511 C 0.67744 0.41379 0.09808 0.0
C512 C 0.65599 0.45627 0.07277 0.0
C513 C 0.60937 0.47219 0.10314 0.0
C514 C 0.62246 0.45793 0.09497 0.0
C515 C 0.66897 0.42272 0.07987 0.0
C516 C 0.65168 0.43378 0.08377 0.0
H517 H 0.55351 0.46054 0.12891 0.0
H518 H 0.57177 0.43797 0.10825 0.0
H519 H 0.64572 0.48575 0.06981 0.0
H520 H 0.703 0.41367 0.03833 0.0
H521 H 0.67179 0.4285 0.04382 0.0
C522 C 0.4456 0.91578 0.49192 0.0
C523 C 0.43427 0.93134 0.49538 0.0
C524 C 0.43494 0.89141 0.50151 0.0
C525 C 0.39315 0.84792 0.54464 0.0
H526 H 0.37035 0.79473 0.49812 0.0
C527 C 0.32187 0.74003 0.56303 0.0
C528 C 0.32226 0.72087 0.54944 0.0
C529 C 0.33786 0.76623 0.55832 0.0
C530 C 0.37703 0.80913 0.51151 0.0
H531 H 0.40417 0.93419 0.51341 0.0
H532 H 0.38617 0.89187 0.5309 0.0
H533 H 0.39518 0.83988 0.48806 0.0
H534 H 0.34066 0.71413 0.52097 0.0
H535 H 0.36968 0.75968 0.5135 0.0
H536 H 0.37575 0.81735 0.56826 0.0
C537 C 0.40308 0.89856 0.52038 0.0
C538 C 0.39114 0.83512 0.50564 0.0
C539 C 0.41351 0.92287 0.51045 0.0
C540 C 0.33976 0.72847 0.53161 0.0
C541 C 0.35623 0.75469 0.52721 0.0
C542 C 0.3795 0.82184 0.55064 0.0
C543 C 0.41306 0.88221 0.51523 0.0
C544 C 0.39917 0.85477 0.52208 0.0
C545 C 0.35512 0.77403 0.54015 0.0
C546 C 0.37097 0.80198 0.53412 0.0
H547 H 0.46195 0.9219 0.48081 0.0
H548 H 0.44322 0.87933 0.49754 0.0
H549 H 0.39923 0.86274 0.55764 0.0
H550 H 0.30841 0.73475 0.5768 0.0
H551 H 0.33593 0.78024 0.56852 0.0
C552 C 0.54942 0.44945 0.68004 0.0
C553 C 0.52263 0.43844 0.67535 0.0
C554 C 0.55897 0.43533 0.69116 0.0
C555 C 0.5427 0.36845 0.69468 0.0
H556 H 0.60206 0.39478 0.73582 0.0
C557 C 0.60697 0.32221 0.70072 0.0
C558 C 0.61226 0.31647 0.72232 0.0
C559 C 0.5956 0.33759 0.69802 0.0
C560 C 0.58535 0.38712 0.72447 0.0
H561 H 0.48466 0.40476 0.67998 0.0
H562 H 0.50133 0.38003 0.6995 0.0
H563 H 0.58171 0.42096 0.72792 0.0
H564 H 0.61063 0.32317 0.75803 0.0
H565 H 0.59115 0.35063 0.75322 0.0
H566 H 0.54676 0.33504 0.69063 0.0
C567 C 0.51495 0.39956 0.69448 0.0
C568 C 0.57377 0.40211 0.71989 0.0
C569 C 0.50537 0.4138 0.68353 0.0
C570 C 0.60676 0.32723 0.74117 0.0
C571 C 0.59567 0.34296 0.73844 0.0
C572 C 0.55445 0.35368 0.69901 0.0
C573 C 0.54193 0.40981 0.69761 0.0
C574 C 0.55249 0.39302 0.70474 0.0
C575 C 0.58951 0.34786 0.71683 0.0
C576 C 0.57613 0.36301 0.71366 0.0
H577 H 0.56313 0.46842 0.67386 0.0
H578 H 0.57985 0.44375 0.69321 0.0
H579 H 0.52658 0.36102 0.6827 0.0
H580 H 0.61097 0.31425 0.68584 0.0
H581 H 0.59142 0.34135 0.68115 0.0
C582 C 0.1229 0.57373 0.83612 0.0
C583 C 0.10368 0.54739 0.83549 0.0
C584 C 0.14705 0.58198 0.84668 0.0
C585 C 0.18915 0.55494 0.85951 0.0
H586 H 0.23405 0.62098 0.88923 0.0
C587 C 0.2865 0.57801 0.8996 0.0
C588 C 0.30847 0.6024 0.89595 0.0
C589 C 0.26163 0.5729 0.89349 0.0
C590 C 0.22178 0.60259 0.88075 0.0
H591 H 0.09401 0.50951 0.84745 0.0
H592 H 0.13552 0.52404 0.86664 0.0
H593 H 0.18926 0.60893 0.87864 0.0
H594 H 0.3212 0.64072 0.88327 0.0
H595 H 0.27734 0.63158 0.87235 0.0
H596 H 0.22144 0.54854 0.86142 0.0
C597 C 0.13227 0.53822 0.8583 0.0
C598 C 0.19612 0.59564 0.87477 0.0
C599 C 0.10823 0.52994 0.8476 0.0
C600 C 0.30476 0.62169 0.88621 0.0
C601 C 0.27965 0.61653 0.88011 0.0
C602 C 0.21462 0.56182 0.86549 0.0
C603 C 0.15241 0.56408 0.85701 0.0
C604 C 0.17944 0.5716 0.86422 0.0
C605 C 0.25786 0.59196 0.88351 0.0
C606 C 0.2312 0.58561 0.87634 0.0
H607 H 0.11985 0.58775 0.82725 0.0
H608 H 0.16204 0.60206 0.84544 0.0
H609 H 0.1772 0.53664 0.85078 0.0
H610 H 0.28839 0.56266 0.90724 0.0
H611 H 0.24523 0.55393 0.89671 0.0
C612 C 0.60912 0.10634 0.01586 0.0
C613 C 0.58651 0.10068 0.00349 0.0
C614 C 0.62369 0.1302 0.02702 0.0
C615 C 0.62473 0.19135 0.04359 0.0
H616 H 0.69854 0.22156 0.0325 0.0
C617 C 0.6995 0.30175 0.05123 0.0
C618 C 0.72383 0.30875 0.06119 0.0
C619 C 0.68129 0.27572 0.04654 0.0
C620 C 0.67803 0.21336 0.03599 0.0
H621 H 0.56005 0.11456 0.99513 0.0
H622 H 0.58571 0.15633 0.01404 0.0
H623 H 0.66899 0.17672 0.0221 0.0
H624 H 0.74762 0.29354 0.07455 0.0
H625 H 0.7161 0.24864 0.06641 0.0
H626 H 0.63402 0.22855 0.05696 0.0
C627 C 0.59226 0.14243 0.01524 0.0
C628 C 0.66104 0.18752 0.03015 0.0
C629 C 0.5776 0.1185 0.00424 0.0
C630 C 0.72926 0.28906 0.06666 0.0
C631 C 0.71118 0.26321 0.06194 0.0
C632 C 0.6418 0.21735 0.04936 0.0
C633 C 0.6161 0.14903 0.02595 0.0
C634 C 0.63414 0.17612 0.03382 0.0
C635 C 0.68709 0.25619 0.05163 0.0
C636 C 0.66866 0.22864 0.0456 0.0
H637 H 0.61662 0.09314 0.01563 0.0
H638 H 0.64159 0.13435 0.03563 0.0
H639 H 0.60417 0.1832 0.04682 0.0
H640 H 0.69459 0.31635 0.04687 0.0
H641 H 0.66293 0.27093 0.03846 0.0
C642 C 0.48605 0.58809 0.17845 0.0
C643 C 0.51298 0.59728 0.17752 0.0
C644 C 0.47663 0.60257 0.18921 0.0
C645 C 0.49927 0.67078 0.2037 0.0
H646 H 0.43102 0.64273 0.23006 0.0
C647 C 0.46326 0.73653 0.2398 0.0
C648 C 0.4379 0.73079 0.23365 0.0
C649 C 0.47175 0.71904 0.23529 0.0
C650 C 0.45005 0.65079 0.2226 0.0
H651 H 0.55094 0.62777 0.18903 0.0
H652 H 0.53447 0.65253 0.20868 0.0
H653 H 0.44768 0.61389 0.22034 0.0
H654 H 0.40139 0.7016 0.21835 0.0
H655 H 0.41637 0.6709 0.21042 0.0
H656 H 0.50166 0.7076 0.20594 0.0
C657 C 0.52064 0.63452 0.20037 0.0
C658 C 0.45964 0.6343 0.21705 0.0
C659 C 0.5301 0.62011 0.18942 0.0
C660 C 0.42106 0.70673 0.22324 0.0
C661 C 0.42958 0.68908 0.21883 0.0
C662 C 0.48979 0.68722 0.20941 0.0
C663 C 0.49389 0.62651 0.19954 0.0
C664 C 0.48434 0.64406 0.20737 0.0
C665 C 0.45515 0.69522 0.22457 0.0
C666 C 0.46503 0.67744 0.2188 0.0
H667 H 0.47232 0.57035 0.1697 0.0
H668 H 0.45594 0.59569 0.18815 0.0
H669 H 0.51805 0.67901 0.19575 0.0
H670 H 0.47683 0.75473 0.24799 0.0
H671 H 0.49143 0.7242 0.24022 0.0
C672 C 0.92656 0.52529 0.34208 0.0
C673 C 0.93309 0.51131 0.32693 0.0
C674 C 0.9025 0.51331 0.35274 0.0
C675 C 0.84272 0.44994 0.36367 0.0
H676 H 0.81044 0.49249 0.36351 0.0
C677 C 0.73209 0.41327 0.38118 0.0
C678 C 0.72766 0.42975 0.39522 0.0
C679 C 0.75739 0.42089 0.37388 0.0
C680 C 0.81921 0.48038 0.36384 0.0
H681 H 0.92034 0.4731 0.31288 0.0
H682 H 0.87809 0.45244 0.33093 0.0
H683 H 0.85465 0.51022 0.35043 0.0
H684 H 0.74681 0.46644 0.41365 0.0
H685 H 0.79015 0.47937 0.40102 0.0
H686 H 0.80664 0.41991 0.37681 0.0
C687 C 0.89157 0.47265 0.33464 0.0
C688 C 0.8447 0.49062 0.35648 0.0
C689 C 0.91576 0.48459 0.32412 0.0
C690 C 0.74919 0.45337 0.40249 0.0
C691 C 0.77419 0.46089 0.39523 0.0
C692 C 0.817 0.43959 0.37098 0.0
C693 C 0.88422 0.48711 0.34839 0.0
C694 C 0.85699 0.47572 0.35655 0.0
C695 C 0.77858 0.44509 0.38046 0.0
C696 C 0.80513 0.45488 0.37141 0.0
H697 H 0.93925 0.54588 0.34466 0.0
H698 H 0.89782 0.52492 0.36373 0.0
H699 H 0.85155 0.43789 0.36397 0.0
H700 H 0.716 0.39491 0.37537 0.0
H701 H 0.76024 0.40829 0.36251 0.0
C702 C 0.06948 0.58667 0.38625 0.0
C703 C 0.07497 0.57483 0.36825 0.0
C704 C 0.08034 0.58832 0.40765 0.0
C705 C 0.12158 0.56805 0.44053 0.0
H706 H 0.14936 0.63599 0.46826 0.0
C707 C 0.21599 0.61886 0.49451 0.0
C708 C 0.21304 0.62575 0.51643 0.0
C709 C 0.1956 0.61046 0.47873 0.0
C710 C 0.1415 0.61687 0.46079 0.0
H711 H 0.09362 0.5529 0.35912 0.0
H712 H 0.11341 0.55666 0.39574 0.0
H713 H 0.11776 0.623 0.4373 0.0
H714 H 0.18777 0.63177 0.53862 0.0
H715 H 0.15215 0.61762 0.51071 0.0
H716 H 0.14709 0.56305 0.46289 0.0
C717 C 0.10059 0.56452 0.39379 0.0
C718 C 0.12317 0.60923 0.44317 0.0
C719 C 0.08941 0.56254 0.37259 0.0
C720 C 0.19014 0.62588 0.52193 0.0
C721 C 0.16987 0.61785 0.50605 0.0
C722 C 0.14039 0.576 0.45769 0.0
C723 C 0.09715 0.57841 0.4114 0.0
C724 C 0.11336 0.58489 0.43243 0.0
C725 C 0.1723 0.60967 0.48445 0.0
C726 C 0.1508 0.60058 0.4677 0.0
H727 H 0.05838 0.59632 0.38349 0.0
H728 H 0.07657 0.59847 0.42093 0.0
H729 H 0.11406 0.54892 0.43321 0.0
H730 H 0.23398 0.61979 0.48964 0.0
H731 H 0.19807 0.6047 0.46202 0.0
C732 C 0.48488 0.0664 0.56009 0.0
C733 C 0.50348 0.06512 0.54654 0.0
C734 C 0.49193 0.07807 0.58143 0.0
C735 C 0.52649 0.12971 0.60702 0.0
H736 H 0.55867 0.11829 0.65937 0.0
C737 C 0.59801 0.21145 0.66653 0.0
C738 C 0.59415 0.20743 0.68967 0.0
C739 C 0.58346 0.19129 0.65121 0.0
C740 C 0.5497 0.12165 0.64484 0.0
H741 H 0.5431 0.07253 0.54534 0.0
H742 H 0.5552 0.09219 0.58314 0.0
H743 H 0.5391 0.08484 0.62957 0.0
H744 H 0.57124 0.18014 0.71516 0.0
H745 H 0.54617 0.14432 0.68825 0.0
H746 H 0.53837 0.16702 0.62143 0.0
C747 C 0.5353 0.08436 0.57714 0.0
C748 C 0.53848 0.10255 0.62793 0.0
C749 C 0.5284 0.07313 0.55559 0.0
C750 C 0.57481 0.18335 0.69733 0.0
C751 C 0.56058 0.16297 0.68202 0.0
C752 C 0.5383 0.14902 0.62356 0.0
C753 C 0.5175 0.08811 0.58967 0.0
C754 C 0.52695 0.10656 0.60885 0.0
C755 C 0.56487 0.16678 0.65883 0.0
C756 C 0.55034 0.14533 0.64245 0.0
H757 H 0.46567 0.06071 0.55337 0.0
H758 H 0.47797 0.08089 0.59084 0.0
H759 H 0.51792 0.13328 0.59229 0.0
H760 H 0.61239 0.23014 0.66032 0.0
H761 H 0.58717 0.19468 0.63341 0.0
C762 C 0.47801 0.5503 0.71515 0.0
C763 C 0.46485 0.52442 0.70759 0.0
C764 C 0.47278 0.55706 0.73622 0.0
C765 C 0.41844 0.53278 0.77543 0.0
H766 H 0.46704 0.59117 0.81267 0.0
C767 C 0.38787 0.56154 0.85763 0.0
C768 C 0.39739 0.58802 0.86169 0.0
C769 C 0.39725 0.55326 0.83985 0.0
C770 C 0.45323 0.57494 0.80232 0.0
H771 H 0.43757 0.48509 0.71703 0.0
H772 H 0.42914 0.49677 0.75411 0.0
H773 H 0.4832 0.5768 0.78126 0.0
H774 H 0.42418 0.62656 0.84995 0.0
H775 H 0.44035 0.612 0.81874 0.0
H776 H 0.38847 0.53106 0.79629 0.0
C777 C 0.44297 0.51195 0.74348 0.0
C778 C 0.46248 0.56665 0.78437 0.0
C779 C 0.44811 0.5052 0.72236 0.0
C780 C 0.41634 0.60601 0.84731 0.0
C781 C 0.4258 0.5977 0.82955 0.0
C782 C 0.40923 0.54099 0.79338 0.0
C783 C 0.45437 0.53804 0.75025 0.0
C784 C 0.44516 0.54559 0.7706 0.0
C785 C 0.41644 0.57123 0.8257 0.0
C786 C 0.42647 0.56229 0.80692 0.0
H787 H 0.49125 0.56552 0.70423 0.0
H788 H 0.48193 0.57735 0.74083 0.0
H789 H 0.40444 0.51689 0.76489 0.0
H790 H 0.37338 0.54709 0.86838 0.0
H791 H 0.38981 0.53275 0.83746 0.0
C792 C 0.93835 0.48962 0.87458 0.0
C793 C 0.95327 0.47842 0.8681 0.0
C794 C 0.925 0.48301 0.89483 0.0
C795 C 0.91705 0.45052 0.94922 0.0
H796 H 0.8442 0.42938 0.93983 0.0
C797 C 0.83935 0.39245 0.01546 0.0
C798 C 0.81987 0.39892 0.01901 0.0
C799 C 0.85635 0.40275 -0.00255 0.0
C800 C 0.86453 0.43552 0.94291 0.0
H801 H 0.96758 0.45312 0.87862 0.0
H802 H 0.94454 0.44184 0.91421 0.0
H803 H 0.87459 0.44899 0.90932 0.0
H804 H 0.80288 0.42111 0.00607 0.0
H805 H 0.83264 0.43926 0.97501 0.0
H806 H 0.90697 0.43712 0.98288 0.0
C807 C 0.94312 0.45569 0.90358 0.0
C808 C 0.88198 0.44681 0.92539 0.0
C809 C 0.95644 0.46226 0.88323 0.0
C810 C 0.81746 0.41547 0.00379 0.0
C811 C 0.83456 0.42589 0.98589 0.0
C812 C 0.8996 0.43939 0.96685 0.0
C813 C 0.92638 0.46513 0.9091 0.0
C814 C 0.90842 0.45442 0.92832 0.0
C815 C 0.8544 0.41988 0.9826 0.0
C816 C 0.87307 0.43167 0.96389 0.0
H817 H 0.93579 0.50236 0.86334 0.0
H818 H 0.91269 0.49103 0.89888 0.0
H819 H 0.93734 0.45628 0.95198 0.0
H820 H 0.84178 0.37974 0.0268 0.0
H821 H 0.87106 0.39729 0.99519 0.0
C822 C 0.48302 0.94448 0.04677 0.0
C823 C 0.50886 0.95763 0.03935 0.0
C824 C 0.47712 0.93291 0.0678 0.0
C825 C 0.50397 0.90533 0.10779 0.0
H826 H 0.44397 0.89264 0.14272 0.0
C827 C 0.47396 0.84535 0.18924 0.0
C828 C 0.44726 0.8274 0.19138 0.0
C829 C 0.48271 0.863 0.17173 0.0
C830 C 0.4607 0.89592 0.13304 0.0
H831 H 0.549 0.97095 0.04899 0.0
H832 H 0.53883 0.9516 0.0861 0.0
H833 H 0.45791 0.92332 0.11205 0.0
H834 H 0.40892 0.81371 0.17641 0.0
H835 H 0.42428 0.8445 0.14586 0.0
H836 H 0.50666 0.87786 0.12881 0.0
C837 C 0.52302 0.94954 0.07537 0.0
C838 C 0.46873 0.91352 0.11549 0.0
C839 C 0.52891 0.96101 0.05424 0.0
C840 C 0.42962 0.82716 0.17527 0.0
C841 C 0.43836 0.84499 0.15788 0.0
C842 C 0.49607 0.88791 0.12546 0.0
C843 C 0.49696 0.93441 0.082 0.0
C844 C 0.49022 0.91814 0.10238 0.0
C845 C 0.46496 0.86328 0.15608 0.0
C846 C 0.4741 0.8827 0.13802 0.0
H847 H 0.46718 0.94179 0.03573 0.0
H848 H 0.45683 0.92139 0.07222 0.0
H849 H 0.52028 0.90796 0.09784 0.0
H850 H 0.48812 0.84614 0.20135 0.0
H851 H 0.50332 0.87693 0.1708 0.0
C852 C 0.58526 0.52127 0.22319 0.0
C853 C 0.56889 0.50411 0.20621 0.0
C854 C 0.58897 0.51192 0.24351 0.0
C855 C 0.58838 0.4544 0.26459 0.0
H856 H 0.60014 0.48894 0.32264 0.0
C857 C 0.61678 0.41875 0.34458 0.0
C858 C 0.63553 0.43788 0.35913 0.0
C859 C 0.60614 0.42553 0.32657 0.0
C860 C 0.59714 0.4792 0.3065 0.0
H861 H 0.54181 0.46386 0.19803 0.0
H862 H 0.54824 0.44752 0.23356 0.0
H863 H 0.58419 0.50306 0.29095 0.0
H864 H 0.65822 0.47925 0.36567 0.0
H865 H 0.64016 0.49097 0.33414 0.0
H866 H 0.60195 0.43099 0.2799 0.0
C867 C 0.55861 0.46817 0.23096 0.0
C868 C 0.58789 0.48724 0.28838 0.0
C869 C 0.55484 0.47753 0.21067 0.0
C870 C 0.64375 0.46394 0.35492 0.0
C871 C 0.63319 0.47069 0.33692 0.0
C872 C 0.59771 0.44642 0.28268 0.0
C873 C 0.57641 0.4852 0.24728 0.0
C874 C 0.58372 0.47514 0.26714 0.0
C875 C 0.61404 0.45158 0.32267 0.0
C876 C 0.60257 0.45897 0.30377 0.0
H877 H 0.59663 0.54181 0.22021 0.0
H878 H 0.60295 0.52554 0.25567 0.0
H879 H 0.58578 0.44494 0.24836 0.0
H880 H 0.60984 0.39849 0.34737 0.0
H881 H 0.59129 0.4103 0.31601 0.0
C882 C 0.42293 0.95852 0.40608 0.0
C883 C 0.44568 0.96418 0.41816 0.0
C884 C 0.41748 0.94575 0.38521 0.0
C885 C 0.44251 0.92653 0.3376 0.0
H886 H 0.38179 0.85838 0.34356 0.0
C887 C 0.40614 0.84686 0.26768 0.0
C888 C 0.40357 0.8236 0.27531 0.0
C889 C 0.40967 0.86623 0.28308 0.0
C890 C 0.39864 0.87741 0.34158 0.0
H891 H 0.48139 0.96272 0.41756 0.0
H892 H 0.47234 0.94124 0.38051 0.0
H893 H 0.39246 0.89127 0.37295 0.0
H894 H 0.40007 0.80102 0.3046 0.0
H895 H 0.4059 0.83474 0.33167 0.0
H896 H 0.4486 0.91266 0.30616 0.0
C897 C 0.45872 0.94654 0.38723 0.0
C898 C 0.40462 0.89623 0.35827 0.0
C899 C 0.46391 0.95881 0.40833 0.0
C900 C 0.4028 0.81919 0.29845 0.0
C901 C 0.40583 0.83832 0.31385 0.0
C902 C 0.43613 0.90787 0.32058 0.0
C903 C 0.43497 0.93895 0.37599 0.0
C904 C 0.42692 0.92072 0.35666 0.0
C905 C 0.4097 0.86217 0.30631 0.0
C906 C 0.41458 0.88291 0.32278 0.0
H907 H 0.40845 0.96213 0.41357 0.0
H908 H 0.39903 0.93998 0.37682 0.0
H909 H 0.45983 0.94531 0.33608 0.0
H910 H 0.40614 0.85029 0.24982 0.0
H911 H 0.41234 0.88435 0.27687 0.0
C912 C 0.55209 0.47484 0.59357 0.0
C913 C 0.52526 0.46481 0.59644 0.0
C914 C 0.56153 0.47117 0.5733 0.0
C915 C 0.53894 0.42681 0.5235 0.0
H916 H 0.61025 0.47145 0.50576 0.0
C917 C 0.5878 0.40997 0.44506 0.0
C918 C 0.61141 0.41085 0.45009 0.0
C919 C 0.57578 0.41741 0.46129 0.0
C920 C 0.5903 0.45889 0.51045 0.0
H921 H 0.48751 0.44492 0.5795 0.0
H922 H 0.50415 0.4398 0.54365 0.0
H923 H 0.5921 0.48586 0.53517 0.0
H924 H 0.63957 0.41742 0.47645 0.0
H925 H 0.61913 0.43142 0.50467 0.0
H926 H 0.53734 0.4002 0.4981 0.0
C927 C 0.51783 0.4496 0.55741 0.0
C928 C 0.57985 0.467 0.52746 0.0
C929 C 0.50832 0.45296 0.57788 0.0
C930 C 0.62202 0.41778 0.47193 0.0
C931 C 0.61024 0.42555 0.48806 0.0
C932 C 0.5493 0.419 0.50605 0.0
C933 C 0.54446 0.4578 0.55511 0.0
C934 C 0.55426 0.45078 0.53473 0.0
C935 C 0.58718 0.42571 0.4828 0.0
C936 C 0.57529 0.43473 0.49979 0.0
H937 H 0.56573 0.48443 0.60742 0.0
H938 H 0.58211 0.47764 0.57245 0.0
H939 H 0.5193 0.41353 0.52874 0.0
H940 H 0.57895 0.40404 0.42843 0.0
H941 H 0.5579 0.4172 0.45691 0.0
C942 C 0.07265 0.52255 0.74031 0.0
C943 C 0.07603 0.54163 0.75615 0.0
C944 C 0.08611 0.52944 0.72007 0.0
C945 C 0.1273 0.58459 0.68305 0.0
H946 H 0.16122 0.54475 0.67094 0.0
C947 C 0.21319 0.61873 0.6216 0.0
C948 C 0.21271 0.59985 0.60695 0.0
C949 C 0.19557 0.61163 0.63925 0.0
C950 C 0.1517 0.55591 0.67389 0.0
H951 H 0.09421 0.5829 0.76229 0.0
H952 H 0.11789 0.59494 0.72712 0.0
H953 H 0.12983 0.5319 0.70097 0.0
H954 H 0.19347 0.55859 0.59979 0.0
H955 H 0.16295 0.54639 0.63037 0.0
H956 H 0.14956 0.6088 0.65606 0.0
C957 C 0.10488 0.57465 0.73026 0.0
C958 C 0.13357 0.54847 0.69106 0.0
C959 C 0.0914 0.56776 0.75047 0.0
C960 C 0.19457 0.57371 0.61073 0.0
C961 C 0.17705 0.56665 0.62835 0.0
C962 C 0.14548 0.59205 0.66583 0.0
C963 C 0.10324 0.55555 0.71525 0.0
C964 C 0.12117 0.56272 0.69591 0.0
C965 C 0.17715 0.58551 0.64271 0.0
C966 C 0.15795 0.57782 0.66109 0.0
H967 H 0.0611 0.50225 0.7442 0.0
H968 H 0.08398 0.51425 0.70864 0.0
H969 H 0.11798 0.59589 0.68625 0.0
H970 H 0.22683 0.63904 0.61919 0.0
H971 H 0.1964 0.62661 0.65022 0.0
C972 C 0.58038 0.07084 0.90781 0.0
C973 C 0.56475 0.07391 0.92375 0.0
C974 C 0.58616 0.08415 0.88757 0.0
C975 C 0.56968 0.12452 0.85111 0.0
H976 H 0.6433 0.15883 0.83768 0.0
C977 C 0.61747 0.21118 0.79163 0.0
C978 C 0.63464 0.21088 0.77563 0.0
C979 C 0.60853 0.19349 0.80913 0.0
C980 C 0.62264 0.1492 0.84104 0.0
H981 H 0.54104 0.09141 0.93011 0.0
H982 H 0.55135 0.11488 0.89501 0.0
H983 H 0.62631 0.12729 0.86751 0.0
H984 H 0.6566 0.19223 0.76612 0.0
H985 H 0.64112 0.16157 0.79665 0.0
H986 H 0.56622 0.14693 0.82486 0.0
C987 C 0.55915 0.1022 0.89802 0.0
C988 C 0.61284 0.13099 0.85807 0.0
C989 C 0.55332 0.08885 0.91821 0.0
C990 C 0.64343 0.1931 0.77811 0.0
C991 C 0.63458 0.17551 0.79565 0.0
C992 C 0.57952 0.14283 0.83411 0.0
C993 C 0.57648 0.10083 0.88286 0.0
C994 C 0.58627 0.11853 0.86343 0.0
C995 C 0.61667 0.17519 0.81112 0.0
C996 C 0.60615 0.15552 0.829 0.0
H997 H 0.58961 0.0596 0.91161 0.0
H998 H 0.59912 0.08223 0.87602 0.0
H999 H 0.54908 0.1151 0.85462 0.0
H1000 H 0.61024 0.22455 0.79029 0.0
H1001 H 0.59508 0.19402 0.82101 0.0
C1002 C 0.53024 0.58102 0.08104 0.0
C1003 C 0.51322 0.56914 0.09893 0.0
C1004 C 0.52064 0.58355 0.06018 0.0
C1005 C 0.45825 0.56437 0.02826 0.0
H1006 H 0.49957 0.63129 0.00104 0.0
C1007 C 0.41506 0.61371 0.97409 0.0
C1008 C 0.42465 0.61949 0.9522 0.0
C1009 C 0.42719 0.60613 0.9901 0.0
C1010 C 0.48795 0.61247 0.00842 0.0
H1011 H 0.47265 0.54841 0.10834 0.0
H1012 H 0.45607 0.55377 0.07276 0.0
H1013 H 0.5183 0.61857 0.03165 0.0
H1014 H 0.45574 0.62446 0.93032 0.0
H1015 H 0.47745 0.6117 0.95863 0.0
H1016 H 0.42739 0.5594 0.0062 0.0
C1017 C 0.47677 0.56091 0.07436 0.0
C1018 C 0.49871 0.60499 0.02581 0.0
C1019 C 0.48631 0.55804 0.09498 0.0
C1020 C 0.44765 0.6194 0.94699 0.0
C1021 C 0.46005 0.6122 0.96311 0.0
C1022 C 0.44736 0.57219 0.01137 0.0
C1023 C 0.49385 0.57447 0.05686 0.0
C1024 C 0.48381 0.58099 0.0363 0.0
C1025 C 0.44964 0.60507 0.98466 0.0
C1026 C 0.46195 0.59638 0.0015 0.0
H1027 H 0.5511 0.58979 0.08354 0.0
H1028 H 0.53435 0.5935 0.04696 0.0
H1029 H 0.44632 0.54547 0.03535 0.0
H1030 H 0.39805 0.61486 0.97873 0.0
H1031 H 0.41909 0.60113 0.00677 0.0
C1032 C 0.95668 0.50544 0.23879 0.0
C1033 C 0.96334 0.52934 0.24886 0.0
C1034 C 0.94358 0.49828 0.21798 0.0
C1035 C 0.89281 0.50191 0.1911 0.0
H1036 H 0.90865 0.47756 0.13609 0.0
C1037 C 0.81428 0.42918 0.1295 0.0
C1038 C 0.81826 0.43414 0.10648 0.0
C1039 C 0.83383 0.44458 0.14515 0.0
C1040 C 0.90402 0.48432 0.15135 0.0
H1041 H 0.96263 0.56493 0.24496 0.0
H1042 H 0.93898 0.55204 0.20877 0.0
H1043 H 0.94213 0.49801 0.16589 0.0
H1044 H 0.84459 0.45981 0.0816 0.0
H1045 H 0.87939 0.48646 0.10903 0.0
H1046 H 0.85433 0.48696 0.17729 0.0
C1047 C 0.94443 0.53919 0.21674 0.0
C1048 C 0.92314 0.49604 0.16829 0.0
C1049 C 0.95804 0.54658 0.23729 0.0
C1050 C 0.84149 0.4554 0.09931 0.0
C1051 C 0.86129 0.47055 0.11493 0.0
C1052 C 0.87352 0.48959 0.17448 0.0
C1053 C 0.93646 0.5147 0.20729 0.0
C1054 C 0.91757 0.50473 0.18833 0.0
C1055 C 0.85767 0.46516 0.13798 0.0
C1056 C 0.87882 0.48033 0.15459 0.0
H1057 H 0.9603 0.49176 0.24762 0.0
H1058 H 0.93735 0.4792 0.21106 0.0
H1059 H 0.88808 0.50832 0.20655 0.0
H1060 H 0.79614 0.41326 0.13536 0.0
H1061 H 0.83058 0.43994 0.16281 0.0
loop_
_geom_bond_atom_site_label_1
_geom_bond_atom_site_label_2
_geom_bond_distance
_geom_bond_site_symmetry_2
_ccdc_geom_bond_type
H0 C8 0.930 . S
H1 C11 0.930 . S
H2 C13 0.930 . S
H3 C14 0.996 . S
H4 C14 0.970 . S
H5 C16 0.930 . S
H6 C18 0.930 . S
H7 C20 0.930 . S
C8 H0 0.930 . S
C8 C9 1.382 . S
C8 C10 1.426 . S
C9 C8 1.382 . S
C9 C13 1.389 . S
C10 C8 1.426 . S
C10 C11 1.375 . S
C10 C14 1.532 1_655 S
C11 H1 0.930 . S
C11 C10 1.375 . S
C11 C12 1.416 . S
C12 C11 1.416 . S
C12 C13 1.371 . S
C13 H2 0.930 . S
C13 C9 1.389 . S
C13 C12 1.371 . S
C14 H3 0.996 . S
C14 H4 0.970 . S
C14 C10 1.532 1_455 S
C14 C15 1.499 . S
C15 C14 1.499 . S
C15 C16 1.370 . S
C15 C20 1.415 . S
C16 H5 0.930 . S
C16 C15 1.370 . S
C16 C17 1.407 . S
C17 C16 1.407 . S
C17 C18 1.365 . S
C18 H6 0.930 . S
C18 C17 1.365 . S
C18 C19 1.393 . S
C19 C18 1.393 . S
C19 C20 1.387 . S
C20 H7 0.930 . S
C20 C15 1.415 . S
C20 C19 1.387 . S
H21 C29 0.930 . S
H22 C32 0.930 . S
H23 C34 0.930 . S
H24 C35 0.970 . S
H25 C35 0.970 . S
H26 C37 0.930 . S
H27 C39 0.930 . S
H28 C41 0.930 . S
C29 H21 0.930 . S
C29 C30 1.382 . S
C29 C31 1.426 . S
C30 C29 1.382 . S
C30 C34 1.389 . S
C31 C29 1.426 . S
C31 C32 1.375 . S
C31 C35 1.532 1_565 S
C32 H22 0.930 . S
C32 C31 1.375 . S
C32 C33 1.416 . S
C33 C32 1.416 . S
C33 C34 1.371 . S
C34 H23 0.930 . S
C34 C30 1.389 . S
C34 C33 1.371 . S
C35 H24 0.970 . S
C35 H25 0.970 . S
C35 C31 1.532 1_545 S
C35 C36 1.499 . S
C36 C35 1.499 . S
C36 C37 1.370 . S
C36 C41 1.415 . S
C37 H26 0.930 . S
C37 C36 1.370 . S
C37 C38 1.407 . S
C38 C37 1.407 . S
C38 C39 1.365 . S
C39 H27 0.930 . S
C39 C38 1.365 . S
C39 C40 1.393 . S
C40 C39 1.393 . S
C40 C41 1.387 . S
C41 H28 0.930 . S
C41 C36 1.415 . S
C41 C40 1.387 . S
H42 C50 0.930 . S
H43 C53 0.930 . S
H44 C55 0.930 . S
H45 C56 0.970 . S
H46 C56 0.970 . S
H47 C58 0.930 . S
H48 C60 0.930 . S
H49 C62 0.930 . S
C50 H42 0.930 . S
C50 C51 1.382 . S
C50 C52 1.426 . S
C51 C50 1.382 . S
C51 C55 1.389 . S
C52 C50 1.426 . S
C52 C53 1.375 . S
C52 C56 1.532 . S
C53 H43 0.930 . S
C53 C52 1.375 . S
C53 C54 1.416 . S
C54 C53 1.416 . S
C54 C55 1.371 . S
C55 H44 0.930 . S
C55 C51 1.389 . S
C55 C54 1.371 . S
C56 H45 0.970 . S
C56 H46 0.970 . S
C56 C52 1.532 . S
C56 C57 1.499 . S
C57 C56 1.499 . S
C57 C58 1.370 . S
C57 C62 1.415 . S
C58 H47 0.930 . S
C58 C57 1.370 . S
C58 C59 1.407 . S
C59 C58 1.407 . S
C59 C60 1.365 . S
C60 H48 0.930 . S
C60 C59 1.365 . S
C60 C61 1.393 . S
C61 C60 1.393 . S
C61 C62 1.387 . S
C62 H49 0.930 . S
C62 C57 1.415 . S
C62 C61 1.387 . S
H63 C71 0.930 . S
H64 C74 0.930 . S
H65 C76 0.930 . S
H66 C77 0.970 . S
H67 C77 0.970 . S
H68 C79 0.930 . S
H69 C81 0.930 . S
H70 C83 0.930 . S
C71 H63 0.930 . S
C71 C72 1.382 . S
C71 C73 1.426 . S
C72 C71 1.382 . S
C72 C76 1.389 . S
C73 C71 1.426 . S
C73 C74 1.375 . S
C73 C77 1.532 1_655 S
C74 H64 0.930 . S
C74 C73 1.375 . S
C74 C75 1.416 . S
C75 C74 1.416 . S
C75 C76 1.371 . S
C76 H65 0.930 . S
C76 C72 1.389 . S
C76 C75 1.371 . S
C77 H66 0.970 . S
C77 H67 0.970 . S
C77 C73 1.532 1_455 S
C77 C78 1.499 . S
C78 C77 1.499 . S
C78 C79 1.370 . S
C78 C83 1.415 . S
C79 H68 0.930 . S
C79 C78 1.370 . S
C79 C80 1.407 . S
C80 C79 1.407 . S
C80 C81 1.365 . S
C81 H69 0.930 . S
C81 C80 1.365 . S
C81 C82 1.393 . S
C82 C81 1.393 . S
C82 C83 1.387 . S
C83 H70 0.930 . S
C83 C78 1.415 . S
C83 C82 1.387 . S
H84 C92 0.930 . S
H85 C95 0.930 . S
H86 C97 0.930 . S
H87 C98 0.970 1_554 S
H88 C98 0.970 . S
H89 C100 0.930 1_545 S
H90 C102 0.930 . S
H91 C104 0.930 . S
C92 H84 0.930 . S
C92 C93 1.382 1_554 S
C92 C94 1.426 1_554 S
C93 C92 1.382 1_556 S
C93 C97 1.389 . S
C94 C92 1.426 1_556 S
C94 C95 1.375 . S
C94 C98 1.532 . S
C95 H85 0.930 . S
C95 C94 1.375 . S
C95 C96 1.416 . S
C96 C95 1.416 . S
C96 C97 1.371 . S
C97 H86 0.930 . S
C97 C93 1.389 . S
C97 C96 1.371 . S
C98 H87 0.970 1_556 S
C98 H88 0.970 . S
C98 C94 1.532 . S
C98 C99 1.499 1_545 S
C99 C98 1.499 1_565 S
C99 C100 1.370 1_556 S
C99 C104 1.415 . S
C100 H89 0.930 1_565 S
C100 C99 1.370 1_554 S
C100 C101 1.407 . S
C101 C100 1.407 . S
C101 C102 1.365 . S
C102 H90 0.930 . S
C102 C101 1.365 . S
C102 C103 1.393 1_554 S
C103 C102 1.393 1_556 S
C103 C104 1.387 . S
C104 H91 0.930 . S
C104 C99 1.415 . S
C104 C103 1.387 . S
H105 C113 0.930 . S
H106 C116 0.930 . S
H107 C118 0.930 . S
H108 C119 0.970 . S
H109 C119 0.970 . S
H110 C121 0.930 . S
H111 C123 0.930 . S
H112 C125 0.930 . S
C113 H105 0.930 . S
C113 C114 1.382 . S
C113 C115 1.426 . S
C114 C113 1.382 . S
C114 C118 1.389 . S
C115 C113 1.426 . S
C115 C116 1.375 . S
C115 C119 1.532 . S
C116 H106 0.930 . S
C116 C115 1.375 . S
C116 C117 1.416 . S
C117 C116 1.416 . S
C117 C118 1.371 . S
C118 H107 0.930 . S
C118 C114 1.389 . S
C118 C117 1.371 . S
C119 H108 0.970 . S
C119 H109 0.970 . S
C119 C115 1.532 . S
C119 C120 1.499 . S
C120 C119 1.499 . S
C120 C121 1.370 . S
C120 C125 1.415 . S
C121 H110 0.930 . S
C121 C120 1.370 . S
C121 C122 1.407 . S
C122 C121 1.407 . S
C122 C123 1.365 . S
C123 H111 0.930 . S
C123 C122 1.365 . S
C123 C124 1.393 . S
C124 C123 1.393 . S
C124 C125 1.387 . S
C125 H112 0.930 . S
C125 C120 1.415 . S
C125 C124 1.387 . S
Mn126 O131 2.095 . S
Mn126 O141 2.162 . S
Mn126 O142 2.297 . S
Mn126 O150 2.385 . S
Mn126 O151 2.209 . S
Mn126 O152 2.094 . S
Mn127 O132 2.121 . S
Mn127 N134 2.257 . S
Mn127 N143 2.282 . S
Mn127 O151 2.215 . S
Mn127 O153 2.117 . S
C128 O150 1.234 . S
C128 O151 1.283 . S
C129 O141 1.281 . S
C129 O142 1.236 . S
C130 O152 1.240 . S
C130 O153 1.264 . S
O131 Mn126 2.095 . S
O131 C140 1.250 . S
O132 Mn127 2.121 . S
O132 C140 1.258 . S
C133 N134 1.326 . S
C133 C137 1.460 . S
C133 H139 0.929 . S
N134 Mn127 2.257 . S
N134 C133 1.326 . S
N134 C138 1.362 . S
C135 C136 1.258 . S
C135 C138 1.431 . S
C135 C155 1.449 . S
C136 C135 1.258 . S
C136 C137 1.477 . S
C136 H156 0.931 . S
C137 C133 1.460 . S
C137 C136 1.477 . S
C137 H157 0.930 . S
C138 N134 1.362 . S
C138 C135 1.431 . S
C138 C148 1.476 . S
H139 C133 0.929 . S
C140 O131 1.250 . S
C140 O132 1.258 . S
O141 Mn126 2.162 . S
O141 C129 1.281 . S
O142 Mn126 2.297 . S
O142 C129 1.236 . S
N143 Mn127 2.282 . S
N143 C144 1.328 . S
N143 C148 1.318 . S
C144 N143 1.328 . S
C144 C145 1.457 . S
C144 H149 0.929 . S
C145 C144 1.457 . S
C145 C146 1.291 . S
C145 H158 0.931 . S
C146 C145 1.291 . S
C146 C147 1.373 . S
C146 H159 0.929 . S
C147 C146 1.373 . S
C147 C148 1.396 . S
C147 C154 1.403 . S
C148 C138 1.476 . S
C148 N143 1.318 . S
C148 C147 1.396 . S
H149 C144 0.929 . S
O150 Mn126 2.385 . S
O150 C128 1.234 . S
O151 Mn126 2.209 . S
O151 Mn127 2.215 . S
O151 C128 1.283 . S
O152 Mn126 2.094 . S
O152 C130 1.240 . S
O153 Mn127 2.117 . S
O153 C130 1.264 . S
C154 C147 1.403 . S
C154 C155 1.399 . S
C154 H160 0.929 . S
C155 C135 1.449 . S
C155 C154 1.399 . S
C155 H161 0.930 . S
H156 C136 0.931 . S
H157 C137 0.930 . S
H158 C145 0.931 . S
H159 C146 0.929 . S
H160 C154 0.929 . S
H161 C155 0.930 . S
Mn162 O167 2.095 . S
Mn162 O177 2.162 . S
Mn162 O178 2.297 . S
Mn162 O186 2.385 . S
Mn162 O187 2.209 . S
Mn162 O188 2.094 . S
Mn163 O168 2.121 . S
Mn163 N170 2.257 . S
Mn163 N179 2.282 . S
Mn163 O187 2.215 . S
Mn163 O189 2.117 . S
C164 O186 1.234 . S
C164 O187 1.283 . S
C165 O177 1.281 . S
C165 O178 1.236 . S
C166 O188 1.240 . S
C166 O189 1.264 . S
O167 Mn162 2.095 . S
O167 C176 1.250 . S
O168 Mn163 2.121 . S
O168 C176 1.258 . S
C169 N170 1.326 . S
C169 C173 1.460 . S
C169 H175 0.929 . S
N170 Mn163 2.257 . S
N170 C169 1.326 . S
N170 C174 1.362 . S
C171 C172 1.258 . S
C171 C174 1.431 . S
C171 C191 1.449 . S
C172 C171 1.258 . S
C172 C173 1.477 . S
C172 H192 0.931 . S
C173 C169 1.460 . S
C173 C172 1.477 . S
C173 H193 0.930 . S
C174 N170 1.362 . S
C174 C171 1.431 . S
C174 C184 1.476 . S
H175 C169 0.929 . S
C176 O167 1.250 . S
C176 O168 1.258 . S
O177 Mn162 2.162 . S
O177 C165 1.281 . S
O178 Mn162 2.297 . S
O178 C165 1.236 . S
N179 Mn163 2.282 . S
N179 C180 1.328 . S
N179 C184 1.318 . S
C180 N179 1.328 . S
C180 C181 1.457 . S
C180 H185 0.929 . S
C181 C180 1.457 . S
C181 C182 1.291 . S
C181 H194 0.931 . S
C182 C181 1.291 . S
C182 C183 1.373 . S
C182 H195 0.929 . S
C183 C182 1.373 . S
C183 C184 1.396 . S
C183 C190 1.403 . S
C184 C174 1.476 . S
C184 N179 1.318 . S
C184 C183 1.396 . S
H185 C180 0.929 . S
O186 Mn162 2.385 . S
O186 C164 1.234 . S
O187 Mn162 2.209 . S
O187 Mn163 2.215 . S
O187 C164 1.283 . S
O188 Mn162 2.094 . S
O188 C166 1.240 . S
O189 Mn163 2.117 . S
O189 C166 1.264 . S
C190 C183 1.403 . S
C190 C191 1.399 . S
C190 H196 0.929 . S
C191 C171 1.449 . S
C191 C190 1.399 . S
C191 H197 0.930 . S
H192 C172 0.931 . S
H193 C173 0.930 . S
H194 C181 0.931 . S
H195 C182 0.929 . S
H196 C190 0.929 . S
H197 C191 0.930 . S
Mn198 O203 2.095 . S
Mn198 O213 2.162 . S
Mn198 O214 2.297 . S
Mn198 O222 2.385 . S
Mn198 O223 2.209 . S
Mn198 O224 2.094 . S
Mn199 O204 2.121 . S
Mn199 N206 2.257 . S
Mn199 N215 2.282 . S
Mn199 O223 2.215 . S
Mn199 O225 2.117 . S
C200 O222 1.234 . S
C200 O223 1.283 . S
C201 O213 1.281 . S
C201 O214 1.236 . S
C202 O224 1.240 . S
C202 O225 1.264 . S
O203 Mn198 2.095 . S
O203 C212 1.250 . S
O204 Mn199 2.121 . S
O204 C212 1.258 . S
C205 N206 1.326 . S
C205 C209 1.460 . S
C205 H211 0.929 . S
N206 Mn199 2.257 . S
N206 C205 1.326 . S
N206 C210 1.362 . S
C207 C208 1.258 . S
C207 C210 1.431 . S
C207 C227 1.449 . S
C208 C207 1.258 . S
C208 C209 1.477 . S
C208 H228 0.931 . S
C209 C205 1.460 . S
C209 C208 1.477 . S
C209 H229 0.930 . S
C210 N206 1.362 . S
C210 C207 1.431 . S
C210 C220 1.476 . S
H211 C205 0.929 . S
C212 O203 1.250 . S
C212 O204 1.258 . S
O213 Mn198 2.162 . S
O213 C201 1.281 . S
O214 Mn198 2.297 . S
O214 C201 1.236 . S
N215 Mn199 2.282 . S
N215 C216 1.328 . S
N215 C220 1.318 . S
C216 N215 1.328 . S
C216 C217 1.457 . S
C216 H221 0.929 . S
C217 C216 1.457 . S
C217 C218 1.291 . S
C217 H230 0.931 . S
C218 C217 1.291 . S
C218 C219 1.373 . S
C218 H231 0.929 . S
C219 C218 1.373 . S
C219 C220 1.396 . S
C219 C226 1.403 . S
C220 C210 1.476 . S
C220 N215 1.318 . S
C220 C219 1.396 . S
H221 C216 0.929 . S
O222 Mn198 2.385 . S
O222 C200 1.234 . S
O223 Mn198 2.209 . S
O223 Mn199 2.215 . S
O223 C200 1.283 . S
O224 Mn198 2.094 . S
O224 C202 1.240 . S
O225 Mn199 2.117 . S
O225 C202 1.264 . S
C226 C219 1.403 . S
C226 C227 1.399 . S
C226 H232 0.929 . S
C227 C207 1.449 . S
C227 C226 1.399 . S
C227 H233 0.930 . S
H228 C208 0.931 . S
H229 C209 0.930 . S
H230 C217 0.931 . S
H231 C218 0.929 . S
H232 C226 0.929 . S
H233 C227 0.930 . S
Mn234 O239 2.095 . S
Mn234 O249 2.162 . S
Mn234 O250 2.297 . S
Mn234 O258 2.385 . S
Mn234 O259 2.209 . S
Mn234 O260 2.094 . S
Mn235 O240 2.121 . S
Mn235 N242 2.257 . S
Mn235 N251 2.282 . S
Mn235 O259 2.215 . S
Mn235 O261 2.117 . S
C236 O258 1.234 . S
C236 O259 1.283 . S
C237 O249 1.281 . S
C237 O250 1.236 . S
C238 O260 1.240 . S
C238 O261 1.264 . S
O239 Mn234 2.095 . S
O239 C248 1.250 . S
O240 Mn235 2.121 . S
O240 C248 1.258 . S
C241 N242 1.326 . S
C241 C245 1.460 . S
C241 H247 0.929 . S
N242 Mn235 2.257 . S
N242 C241 1.326 . S
N242 C246 1.362 . S
C243 C244 1.258 . S
C243 C246 1.431 . S
C243 C263 1.449 . S
C244 C243 1.258 . S
C244 C245 1.477 . S
C244 H264 0.931 . S
C245 C241 1.460 . S
C245 C244 1.477 . S
C245 H265 0.930 . S
C246 N242 1.362 . S
C246 C243 1.431 . S
C246 C256 1.476 . S
H247 C241 0.929 . S
C248 O239 1.250 . S
C248 O240 1.258 . S
O249 Mn234 2.162 . S
O249 C237 1.281 . S
O250 Mn234 2.297 . S
O250 C237 1.236 . S
N251 Mn235 2.282 . S
N251 C252 1.328 . S
N251 C256 1.318 . S
C252 N251 1.328 . S
C252 C253 1.457 . S
C252 H257 0.929 . S
C253 C252 1.457 . S
C253 C254 1.291 . S
C253 H266 0.931 . S
C254 C253 1.291 . S
C254 C255 1.373 . S
C254 H267 0.929 . S
C255 C254 1.373 . S
C255 C256 1.396 . S
C255 C262 1.403 . S
C256 C246 1.476 . S
C256 N251 1.318 . S
C256 C255 1.396 . S
H257 C252 0.929 . S
O258 Mn234 2.385 . S
O258 C236 1.234 . S
O259 Mn234 2.209 . S
O259 Mn235 2.215 . S
O259 C236 1.283 . S
O260 Mn234 2.094 . S
O260 C238 1.240 . S
O261 Mn235 2.117 . S
O261 C238 1.264 . S
C262 C255 1.403 . S
C262 C263 1.399 . S
C262 H268 0.929 . S
C263 C243 1.449 . S
C263 C262 1.399 . S
C263 H269 0.930 . S
H264 C244 0.931 . S
H265 C245 0.930 . S
H266 C253 0.931 . S
H267 C254 0.929 . S
H268 C262 0.929 . S
H269 C263 0.930 . S
Mn270 O275 2.095 . S
Mn270 O285 2.162 . S
Mn270 O286 2.297 . S
Mn270 O294 2.385 . S
Mn270 O295 2.209 . S
Mn270 O296 2.094 . S
Mn271 O276 2.121 . S
Mn271 N278 2.257 . S
Mn271 N287 2.282 . S
Mn271 O295 2.215 . S
Mn271 O297 2.117 . S
C272 O294 1.234 . S
C272 O295 1.283 . S
C273 O285 1.281 . S
C273 O286 1.236 . S
C274 O296 1.240 . S
C274 O297 1.264 . S
O275 Mn270 2.095 . S
O275 C284 1.250 . S
O276 Mn271 2.121 . S
O276 C284 1.258 . S
C277 N278 1.326 . S
C277 C281 1.460 . S
C277 H283 0.929 . S
N278 Mn271 2.257 . S
N278 C277 1.326 . S
N278 C282 1.362 . S
C279 C280 1.258 . S
C279 C282 1.431 . S
C279 C299 1.449 . S
C280 C279 1.258 . S
C280 C281 1.477 . S
C280 H300 0.931 . S
C281 C277 1.460 . S
C281 C280 1.477 . S
C281 H301 0.930 . S
C282 N278 1.362 . S
C282 C279 1.431 . S
C282 C292 1.476 . S
H283 C277 0.929 . S
C284 O275 1.250 . S
C284 O276 1.258 . S
O285 Mn270 2.162 . S
O285 C273 1.281 . S
O286 Mn270 2.297 . S
O286 C273 1.236 . S
N287 Mn271 2.282 . S
N287 C288 1.328 . S
N287 C292 1.318 . S
C288 N287 1.328 . S
C288 C289 1.457 . S
C288 H293 0.929 . S
C289 C288 1.457 . S
C289 C290 1.291 . S
C289 H302 0.931 . S
C290 C289 1.291 . S
C290 C291 1.373 . S
C290 H303 0.929 . S
C291 C290 1.373 . S
C291 C292 1.396 . S
C291 C298 1.403 . S
C292 C282 1.476 . S
C292 N287 1.318 . S
C292 C291 1.396 . S
H293 C288 0.929 . S
O294 Mn270 2.385 . S
O294 C272 1.234 . S
O295 Mn270 2.209 . S
O295 Mn271 2.215 . S
O295 C272 1.283 . S
O296 Mn270 2.094 . S
O296 C274 1.240 . S
O297 Mn271 2.117 . S
O297 C274 1.264 . S
C298 C291 1.403 . S
C298 C299 1.399 . S
C298 H304 0.929 . S
C299 C279 1.449 . S
C299 C298 1.399 . S
C299 H305 0.930 . S
H300 C280 0.931 . S
H301 C281 0.930 . S
H302 C289 0.931 . S
H303 C290 0.929 . S
H304 C298 0.929 . S
H305 C299 0.930 . S
Mn306 O311 2.095 . S
Mn306 O321 2.162 . S
Mn306 O322 2.297 . S
Mn306 O330 2.385 . S
Mn306 O331 2.209 . S
Mn306 O332 2.094 . S
Mn307 O312 2.121 . S
Mn307 N314 2.257 . S
Mn307 N323 2.282 . S
Mn307 O331 2.215 . S
Mn307 O333 2.117 . S
C308 O330 1.234 . S
C308 O331 1.283 . S
C309 O321 1.281 . S
C309 O322 1.236 . S
C310 O332 1.240 . S
C310 O333 1.264 . S
O311 Mn306 2.095 . S
O311 C320 1.250 . S
O312 Mn307 2.121 . S
O312 C320 1.258 . S
C313 N314 1.326 . S
C313 C317 1.460 . S
C313 H319 0.929 . S
N314 Mn307 2.257 . S
N314 C313 1.326 . S
N314 C318 1.362 . S
C315 C316 1.258 . S
C315 C318 1.431 . S
C315 C335 1.449 . S
C316 C315 1.258 . S
C316 C317 1.477 . S
C316 H336 0.931 . S
C317 C313 1.460 . S
C317 C316 1.477 . S
C317 H337 0.930 . S
C318 N314 1.362 . S
C318 C315 1.431 . S
C318 C328 1.476 . S
H319 C313 0.929 . S
C320 O311 1.250 . S
C320 O312 1.258 . S
O321 Mn306 2.162 . S
O321 C309 1.281 . S
O322 Mn306 2.297 . S
O322 C309 1.236 . S
N323 Mn307 2.282 . S
N323 C324 1.328 . S
N323 C328 1.318 . S
C324 N323 1.328 . S
C324 C325 1.457 . S
C324 H329 0.929 . S
C325 C324 1.457 . S
C325 C326 1.291 . S
C325 H338 0.931 . S
C326 C325 1.291 . S
C326 C327 1.373 . S
C326 H339 0.929 . S
C327 C326 1.373 . S
C327 C328 1.396 . S
C327 C334 1.403 . S
C328 C318 1.476 . S
C328 N323 1.318 . S
C328 C327 1.396 . S
H329 C324 0.929 . S
O330 Mn306 2.385 . S
O330 C308 1.234 . S
O331 Mn306 2.209 . S
O331 Mn307 2.215 . S
O331 C308 1.283 . S
O332 Mn306 2.094 . S
O332 C310 1.240 . S
O333 Mn307 2.117 . S
O333 C310 1.264 . S
C334 C327 1.403 . S
C334 C335 1.399 . S
C334 H340 0.929 . S
C335 C315 1.449 . S
C335 C334 1.399 . S
C335 H341 0.930 . S
H336 C316 0.931 . S
H337 C317 0.930 . S
H338 C325 0.931 . S
H339 C326 0.929 . S
H340 C334 0.929 . S
H341 C335 0.930 . S
C342 C343 1.349 . S
C342 C344 1.327 . S
C342 H367 0.950 . S
C343 C342 1.349 . S
C343 C359 1.349 . S
C344 C342 1.327 . S
C344 C363 1.429 . S
C344 H368 0.950 . S
C345 C362 1.574 . S
C345 C364 1.368 . S
C345 H369 0.949 . S
H346 C350 0.949 . S
C347 C348 1.349 . S
C347 C349 1.327 . S
C347 H370 0.950 . S
C348 C347 1.349 . S
C348 C360 1.349 . S
C349 C347 1.327 . S
C349 C365 1.429 . S
C349 H371 0.950 . S
C350 H346 0.949 . S
C350 C358 1.574 . S
C350 C366 1.368 . S
H351 C359 0.950 . S
H352 C357 0.950 . S
H353 C358 0.949 . S
H354 C360 0.950 . S
H355 C361 0.950 . S
H356 C362 0.949 . S
C357 H352 0.950 . S
C357 C359 1.327 . S
C357 C363 1.429 . S
C358 C350 1.574 . S
C358 H353 0.949 . S
C358 C364 1.368 . S
C359 C343 1.349 . S
C359 H351 0.950 . S
C359 C357 1.327 . S
C360 C348 1.349 . S
C360 H354 0.950 . S
C360 C361 1.327 . S
C361 H355 0.950 . S
C361 C360 1.327 . S
C361 C365 1.429 . S
C362 C345 1.574 . S
C362 H356 0.949 . S
C362 C366 1.368 . S
C363 C344 1.429 . S
C363 C357 1.429 . S
C363 C364 1.523 . S
C364 C345 1.368 . S
C364 C358 1.368 . S
C364 C363 1.523 . S
C365 C349 1.429 . S
C365 C361 1.429 . S
C365 C366 1.523 . S
C366 C350 1.368 . S
C366 C362 1.368 . S
C366 C365 1.523 . S
H367 C342 0.950 . S
H368 C344 0.950 . S
H369 C345 0.949 . S
H370 C347 0.950 . S
H371 C349 0.950 . S
C372 C373 1.349 . S
C372 C374 1.327 . S
C372 H397 0.950 . S
C373 C372 1.349 . S
C373 C389 1.349 . S
C374 C372 1.327 . S
C374 C393 1.429 . S
C374 H398 0.950 . S
C375 C392 1.574 . S
C375 C394 1.368 . S
C375 H399 0.949 . S
H376 C380 0.949 . S
C377 C378 1.349 . S
C377 C379 1.327 . S
C377 H400 0.950 . S
C378 C377 1.349 . S
C378 C390 1.349 . S
C379 C377 1.327 . S
C379 C395 1.429 . S
C379 H401 0.950 . S
C380 H376 0.949 . S
C380 C388 1.574 . S
C380 C396 1.368 . S
H381 C389 0.950 . S
H382 C387 0.950 . S
H383 C388 0.949 . S
H384 C390 0.950 . S
H385 C391 0.950 . S
H386 C392 0.949 . S
C387 H382 0.950 . S
C387 C389 1.327 . S
C387 C393 1.429 . S
C388 C380 1.574 . S
C388 H383 0.949 . S
C388 C394 1.368 . S
C389 C373 1.349 . S
C389 H381 0.950 . S
C389 C387 1.327 . S
C390 C378 1.349 . S
C390 H384 0.950 . S
C390 C391 1.327 . S
C391 H385 0.950 . S
C391 C390 1.327 . S
C391 C395 1.429 . S
C392 C375 1.574 . S
C392 H386 0.949 . S
C392 C396 1.368 . S
C393 C374 1.429 . S
C393 C387 1.429 . S
C393 C394 1.523 . S
C394 C375 1.368 . S
C394 C388 1.368 . S
C394 C393 1.523 . S
C395 C379 1.429 . S
C395 C391 1.429 . S
C395 C396 1.523 . S
C396 C380 1.368 . S
C396 C392 1.368 . S
C396 C395 1.523 . S
H397 C372 0.950 . S
H398 C374 0.950 . S
H399 C375 0.949 . S
H400 C377 0.950 . S
H401 C379 0.950 . S
C402 C403 1.349 . S
C402 C404 1.327 . S
C402 H427 0.950 . S
C403 C402 1.349 . S
C403 C419 1.349 . S
C404 C402 1.327 . S
C404 C423 1.429 . S
C404 H428 0.950 . S
C405 C422 1.574 . S
C405 C424 1.368 . S
C405 H429 0.949 . S
H406 C410 0.949 . S
C407 C408 1.349 . S
C407 C409 1.327 . S
C407 H430 0.950 . S
C408 C407 1.349 . S
C408 C420 1.349 . S
C409 C407 1.327 . S
C409 C425 1.429 . S
C409 H431 0.950 . S
C410 H406 0.949 . S
C410 C418 1.574 . S
C410 C426 1.368 . S
H411 C419 0.950 . S
H412 C417 0.950 . S
H413 C418 0.949 . S
H414 C420 0.950 . S
H415 C421 0.950 . S
H416 C422 0.949 . S
C417 H412 0.950 . S
C417 C419 1.327 . S
C417 C423 1.429 . S
C418 C410 1.574 . S
C418 H413 0.949 . S
C418 C424 1.368 . S
C419 C403 1.349 . S
C419 H411 0.950 . S
C419 C417 1.327 . S
C420 C408 1.349 . S
C420 H414 0.950 . S
C420 C421 1.327 . S
C421 H415 0.950 . S
C421 C420 1.327 . S
C421 C425 1.429 . S
C422 C405 1.574 . S
C422 H416 0.949 . S
C422 C426 1.368 . S
C423 C404 1.429 . S
C423 C417 1.429 . S
C423 C424 1.523 . S
C424 C405 1.368 . S
C424 C418 1.368 . S
C424 C423 1.523 . S
C425 C409 1.429 . S
C425 C421 1.429 . S
C425 C426 1.523 . S
C426 C410 1.368 . S
C426 C422 1.368 . S
C426 C425 1.523 . S
H427 C402 0.950 . S
H428 C404 0.950 . S
H429 C405 0.949 . S
H430 C407 0.950 . S
H431 C409 0.950 . S
C432 C433 1.349 . S
C432 C434 1.327 . S
C432 H457 0.950 . S
C433 C432 1.349 . S
C433 C449 1.349 . S
C434 C432 1.327 . S
C434 C453 1.429 . S
C434 H458 0.950 . S
C435 C452 1.574 . S
C435 C454 1.368 . S
C435 H459 0.949 . S
H436 C440 0.949 . S
C437 C438 1.349 . S
C437 C439 1.327 . S
C437 H460 0.950 . S
C438 C437 1.349 . S
C438 C450 1.349 . S
C439 C437 1.327 . S
C439 C455 1.429 . S
C439 H461 0.950 . S
C440 H436 0.949 . S
C440 C448 1.574 . S
C440 C456 1.368 . S
H441 C449 0.950 . S
H442 C447 0.950 . S
H443 C448 0.949 . S
H444 C450 0.950 . S
H445 C451 0.950 . S
H446 C452 0.949 . S
C447 H442 0.950 . S
C447 C449 1.327 . S
C447 C453 1.429 . S
C448 C440 1.574 . S
C448 H443 0.949 . S
C448 C454 1.368 . S
C449 C433 1.349 . S
C449 H441 0.950 . S
C449 C447 1.327 . S
C450 C438 1.349 . S
C450 H444 0.950 . S
C450 C451 1.327 . S
C451 H445 0.950 . S
C451 C450 1.327 . S
C451 C455 1.429 . S
C452 C435 1.574 . S
C452 H446 0.949 . S
C452 C456 1.368 . S
C453 C434 1.429 . S
C453 C447 1.429 . S
C453 C454 1.523 . S
C454 C435 1.368 . S
C454 C448 1.368 . S
C454 C453 1.523 . S
C455 C439 1.429 . S
C455 C451 1.429 . S
C455 C456 1.523 . S
C456 C440 1.368 . S
C456 C452 1.368 . S
C456 C455 1.523 . S
H457 C432 0.950 . S
H458 C434 0.950 . S
H459 C435 0.949 . S
H460 C437 0.950 . S
H461 C439 0.950 . S
C462 C463 1.349 . S
C462 C464 1.327 . S
C462 H487 0.950 . S
C463 C462 1.349 . S
C463 C479 1.349 . S
C464 C462 1.327 . S
C464 C483 1.429 . S
C464 H488 0.950 . S
C465 C482 1.574 . S
C465 C484 1.368 . S
C465 H489 0.949 . S
H466 C470 0.949 . S
C467 C468 1.349 . S
C467 C469 1.327 . S
C467 H490 0.950 . S
C468 C467 1.349 . S
C468 C480 1.349 . S
C469 C467 1.327 . S
C469 C485 1.429 . S
C469 H491 0.950 . S
C470 H466 0.949 . S
C470 C478 1.574 . S
C470 C486 1.368 . S
H471 C479 0.950 . S
H472 C477 0.950 . S
H473 C478 0.949 . S
H474 C480 0.950 . S
H475 C481 0.950 . S
H476 C482 0.949 . S
C477 H472 0.950 . S
C477 C479 1.327 . S
C477 C483 1.429 . S
C478 C470 1.574 . S
C478 H473 0.949 . S
C478 C484 1.368 . S
C479 C463 1.349 . S
C479 H471 0.950 . S
C479 C477 1.327 . S
C480 C468 1.349 . S
C480 H474 0.950 . S
C480 C481 1.327 . S
C481 H475 0.950 . S
C481 C480 1.327 . S
C481 C485 1.429 . S
C482 C465 1.574 . S
C482 H476 0.949 . S
C482 C486 1.368 . S
C483 C464 1.429 . S
C483 C477 1.429 . S
C483 C484 1.523 . S
C484 C465 1.368 . S
C484 C478 1.368 . S
C484 C483 1.523 . S
C485 C469 1.429 . S
C485 C481 1.429 . S
C485 C486 1.523 . S
C486 C470 1.368 . S
C486 C482 1.368 . S
C486 C485 1.523 . S
H487 C462 0.950 . S
H488 C464 0.950 . S
H489 C465 0.949 . S
H490 C467 0.950 . S
H491 C469 0.950 . S
C492 C493 1.349 . S
C492 C494 1.327 . S
C492 H517 0.950 . S
C493 C492 1.349 . S
C493 C509 1.349 . S
C494 C492 1.327 . S
C494 C513 1.429 . S
C494 H518 0.950 . S
C495 C512 1.574 . S
C495 C514 1.368 . S
C495 H519 0.949 . S
H496 C500 0.949 . S
C497 C498 1.349 . S
C497 C499 1.327 . S
C497 H520 0.950 . S
C498 C497 1.349 . S
C498 C510 1.349 . S
C499 C497 1.327 . S
C499 C515 1.429 . S
C499 H521 0.950 . S
C500 H496 0.949 . S
C500 C508 1.574 . S
C500 C516 1.368 . S
H501 C509 0.950 . S
H502 C507 0.950 . S
H503 C508 0.949 . S
H504 C510 0.950 . S
H505 C511 0.950 . S
H506 C512 0.949 . S
C507 H502 0.950 . S
C507 C509 1.327 . S
C507 C513 1.429 . S
C508 C500 1.574 . S
C508 H503 0.949 . S
C508 C514 1.368 . S
C509 C493 1.349 . S
C509 H501 0.950 . S
C509 C507 1.327 . S
C510 C498 1.349 . S
C510 H504 0.950 . S
C510 C511 1.327 . S
C511 H505 0.950 . S
C511 C510 1.327 . S
C511 C515 1.429 . S
C512 C495 1.574 . S
C512 H506 0.949 . S
C512 C516 1.368 . S
C513 C494 1.429 . S
C513 C507 1.429 . S
C513 C514 1.523 . S
C514 C495 1.368 . S
C514 C508 1.368 . S
C514 C513 1.523 . S
C515 C499 1.429 . S
C515 C511 1.429 . S
C515 C516 1.523 . S
C516 C500 1.368 . S
C516 C512 1.368 . S
C516 C515 1.523 . S
H517 C492 0.950 . S
H518 C494 0.950 . S
H519 C495 0.949 . S
H520 C497 0.950 . S
H521 C499 0.950 . S
C522 C523 1.349 . S
C522 C524 1.327 . S
C522 H547 0.950 . S
C523 C522 1.349 . S
C523 C539 1.349 . S
C524 C522 1.327 . S
C524 C543 1.429 . S
C524 H548 0.950 . S
C525 C542 1.574 . S
C525 C544 1.368 . S
C525 H549 0.949 . S
H526 C530 0.949 . S
C527 C528 1.349 . S
C527 C529 1.327 . S
C527 H550 0.950 . S
C528 C527 1.349 . S
C528 C540 1.349 . S
C529 C527 1.327 . S
C529 C545 1.429 . S
C529 H551 0.950 . S
C530 H526 0.949 . S
C530 C538 1.574 . S
C530 C546 1.368 . S
H531 C539 0.950 . S
H532 C537 0.950 . S
H533 C538 0.949 . S
H534 C540 0.950 . S
H535 C541 0.950 . S
H536 C542 0.949 . S
C537 H532 0.950 . S
C537 C539 1.327 . S
C537 C543 1.429 . S
C538 C530 1.574 . S
C538 H533 0.949 . S
C538 C544 1.368 . S
C539 C523 1.349 . S
C539 H531 0.950 . S
C539 C537 1.327 . S
C540 C528 1.349 . S
C540 H534 0.950 . S
C540 C541 1.327 . S
C541 H535 0.950 . S
C541 C540 1.327 . S
C541 C545 1.429 . S
C542 C525 1.574 . S
C542 H536 0.949 . S
C542 C546 1.368 . S
C543 C524 1.429 . S
C543 C537 1.429 . S
C543 C544 1.523 . S
C544 C525 1.368 . S
C544 C538 1.368 . S
C544 C543 1.523 . S
C545 C529 1.429 . S
C545 C541 1.429 . S
C545 C546 1.523 . S
C546 C530 1.368 . S
C546 C542 1.368 . S
C546 C545 1.523 . S
H547 C522 0.950 . S
H548 C524 0.950 . S
H549 C525 0.949 . S
H550 C527 0.950 . S
H551 C529 0.950 . S
C552 C553 1.349 . S
C552 C554 1.327 . S
C552 H577 0.950 . S
C553 C552 1.349 . S
C553 C569 1.349 . S
C554 C552 1.327 . S
C554 C573 1.429 . S
C554 H578 0.950 . S
C555 C572 1.574 . S
C555 C574 1.368 . S
C555 H579 0.949 . S
H556 C560 0.949 . S
C557 C558 1.349 . S
C557 C559 1.327 . S
C557 H580 0.950 . S
C558 C557 1.349 . S
C558 C570 1.349 . S
C559 C557 1.327 . S
C559 C575 1.429 . S
C559 H581 0.950 . S
C560 H556 0.949 . S
C560 C568 1.574 . S
C560 C576 1.368 . S
H561 C569 0.950 . S
H562 C567 0.950 . S
H563 C568 0.949 . S
H564 C570 0.950 . S
H565 C571 0.950 . S
H566 C572 0.949 . S
C567 H562 0.950 . S
C567 C569 1.327 . S
C567 C573 1.429 . S
C568 C560 1.574 . S
C568 H563 0.949 . S
C568 C574 1.368 . S
C569 C553 1.349 . S
C569 H561 0.950 . S
C569 C567 1.327 . S
C570 C558 1.349 . S
C570 H564 0.950 . S
C570 C571 1.327 . S
C571 H565 0.950 . S
C571 C570 1.327 . S
C571 C575 1.429 . S
C572 C555 1.574 . S
C572 H566 0.949 . S
C572 C576 1.368 . S
C573 C554 1.429 . S
C573 C567 1.429 . S
C573 C574 1.523 . S
C574 C555 1.368 . S
C574 C568 1.368 . S
C574 C573 1.523 . S
C575 C559 1.429 . S
C575 C571 1.429 . S
C575 C576 1.523 . S
C576 C560 1.368 . S
C576 C572 1.368 . S
C576 C575 1.523 . S
H577 C552 0.950 . S
H578 C554 0.950 . S
H579 C555 0.949 . S
H580 C557 0.950 . S
H581 C559 0.950 . S
C582 C583 1.349 . S
C582 C584 1.327 . S
C582 H607 0.950 . S
C583 C582 1.349 . S
C583 C599 1.349 . S
C584 C582 1.327 . S
C584 C603 1.429 . S
C584 H608 0.950 . S
C585 C602 1.574 . S
C585 C604 1.368 . S
C585 H609 0.949 . S
H586 C590 0.949 . S
C587 C588 1.349 . S
C587 C589 1.327 . S
C587 H610 0.950 . S
C588 C587 1.349 . S
C588 C600 1.349 . S
C589 C587 1.327 . S
C589 C605 1.429 . S
C589 H611 0.950 . S
C590 H586 0.949 . S
C590 C598 1.574 . S
C590 C606 1.368 . S
H591 C599 0.950 . S
H592 C597 0.950 . S
H593 C598 0.949 . S
H594 C600 0.950 . S
H595 C601 0.950 . S
H596 C602 0.949 . S
C597 H592 0.950 . S
C597 C599 1.327 . S
C597 C603 1.429 . S
C598 C590 1.574 . S
C598 H593 0.949 . S
C598 C604 1.368 . S
C599 C583 1.349 . S
C599 H591 0.950 . S
C599 C597 1.327 . S
C600 C588 1.349 . S
C600 H594 0.950 . S
C600 C601 1.327 . S
C601 H595 0.950 . S
C601 C600 1.327 . S
C601 C605 1.429 . S
C602 C585 1.574 . S
C602 H596 0.949 . S
C602 C606 1.368 . S
C603 C584 1.429 . S
C603 C597 1.429 . S
C603 C604 1.523 . S
C604 C585 1.368 . S
C604 C598 1.368 . S
C604 C603 1.523 . S
C605 C589 1.429 . S
C605 C601 1.429 . S
C605 C606 1.523 . S
C606 C590 1.368 . S
C606 C602 1.368 . S
C606 C605 1.523 . S
H607 C582 0.950 . S
H608 C584 0.950 . S
H609 C585 0.949 . S
H610 C587 0.950 . S
H611 C589 0.950 . S
C612 C613 1.349 1_556 S
C612 C614 1.318 1_556 S
C612 H637 0.950 . S
C613 C612 1.349 1_554 S
C613 C629 1.349 . S
C614 C612 1.318 1_554 S
C614 C633 1.469 . S
C614 H638 0.920 1_554 S
C615 C632 1.574 . S
C615 C634 1.368 . S
C615 H639 0.949 . S
H616 C620 0.949 . S
C617 C618 1.349 . S
C617 C619 1.327 . S
C617 H640 0.950 . S
C618 C617 1.349 . S
C618 C630 1.349 . S
C619 C617 1.327 . S
C619 C635 1.429 . S
C619 H641 0.950 . S
C620 H616 0.949 . S
C620 C628 1.574 . S
C620 C636 1.368 . S
H621 C629 0.950 . S
H622 C627 0.950 . S
H623 C628 0.949 1_556 S
H624 C630 0.950 . S
H625 C631 0.950 . S
H626 C632 0.949 . S
C627 H622 0.950 . S
C627 C629 1.327 . S
C627 C633 1.429 . S
C628 C620 1.574 . S
C628 H623 0.949 1_554 S
C628 C634 1.368 . S
C629 C613 1.349 . S
C629 H621 0.950 . S
C629 C627 1.327 . S
C630 C618 1.349 . S
C630 H624 0.950 . S
C630 C631 1.327 . S
C631 H625 0.950 . S
C631 C630 1.327 . S
C631 C635 1.429 . S
C632 C615 1.574 . S
C632 H626 0.949 . S
C632 C636 1.368 . S
C633 C614 1.469 . S
C633 C627 1.429 . S
C633 C634 1.523 . S
C634 C615 1.368 . S
C634 C628 1.368 . S
C634 C633 1.523 . S
C635 C619 1.429 . S
C635 C631 1.429 . S
C635 C636 1.523 . S
C636 C620 1.368 . S
C636 C632 1.368 . S
C636 C635 1.523 . S
H637 C612 0.950 . S
H638 C614 0.920 1_556 S
H639 C615 0.949 . S
H640 C617 0.950 . S
H641 C619 0.950 . S
C642 C643 1.349 . S
C642 C644 1.327 . S
C642 H667 0.950 . S
C643 C642 1.349 . S
C643 C659 1.349 . S
C644 C642 1.327 . S
C644 C663 1.429 . S
C644 H668 0.950 . S
C645 C662 1.574 . S
C645 C664 1.368 . S
C645 H669 0.949 . S
H646 C650 0.949 . S
C647 C648 1.349 . S
C647 C649 1.327 . S
C647 H670 0.950 . S
C648 C647 1.349 . S
C648 C660 1.349 . S
C649 C647 1.327 . S
C649 C665 1.429 . S
C649 H671 0.950 . S
C650 H646 0.949 . S
C650 C658 1.574 . S
C650 C666 1.368 . S
H651 C659 0.950 . S
H652 C657 0.950 . S
H653 C658 0.949 . S
H654 C660 0.950 . S
H655 C661 0.950 . S
H656 C662 0.949 . S
C657 H652 0.950 . S
C657 C659 1.327 . S
C657 C663 1.429 . S
C658 C650 1.574 . S
C658 H653 0.949 . S
C658 C664 1.368 . S
C659 C643 1.349 . S
C659 H651 0.950 . S
C659 C657 1.327 . S
C660 C648 1.349 . S
C660 H654 0.950 . S
C660 C661 1.327 . S
C661 H655 0.950 . S
C661 C660 1.327 . S
C661 C665 1.429 . S
C662 C645 1.574 . S
C662 H656 0.949 . S
C662 C666 1.368 . S
C663 C644 1.429 . S
C663 C657 1.429 . S
C663 C664 1.523 . S
C664 C645 1.368 . S
C664 C658 1.368 . S
C664 C663 1.523 . S
C665 C649 1.429 . S
C665 C661 1.429 . S
C665 C666 1.523 . S
C666 C650 1.368 . S
C666 C662 1.368 . S
C666 C665 1.523 . S
H667 C642 0.950 . S
H668 C644 0.950 . S
H669 C645 0.949 . S
H670 C647 0.950 . S
H671 C649 0.950 . S
C672 C673 1.349 . S
C672 C674 1.327 . S
C672 H697 0.950 . S
C673 C672 1.349 . S
C673 C689 1.349 . S
C674 C672 1.327 . S
C674 C693 1.429 . S
C674 H698 0.950 . S
C675 C692 1.574 . S
C675 C694 1.368 . S
C675 H699 0.949 . S
H676 C680 0.949 . S
C677 C678 1.349 . S
C677 C679 1.327 . S
C677 H700 0.950 . S
C678 C677 1.349 . S
C678 C690 1.349 . S
C679 C677 1.327 . S
C679 C695 1.429 . S
C679 H701 0.950 . S
C680 H676 0.949 . S
C680 C688 1.574 . S
C680 C696 1.368 . S
H681 C689 0.950 . S
H682 C687 0.950 . S
H683 C688 0.949 . S
H684 C690 0.950 . S
H685 C691 0.950 . S
H686 C692 0.949 . S
C687 H682 0.950 . S
C687 C689 1.327 . S
C687 C693 1.429 . S
C688 C680 1.574 . S
C688 H683 0.949 . S
C688 C694 1.368 . S
C689 C673 1.349 . S
C689 H681 0.950 . S
C689 C687 1.327 . S
C690 C678 1.349 . S
C690 H684 0.950 . S
C690 C691 1.327 . S
C691 H685 0.950 . S
C691 C690 1.327 . S
C691 C695 1.429 . S
C692 C675 1.574 . S
C692 H686 0.949 . S
C692 C696 1.368 . S
C693 C674 1.429 . S
C693 C687 1.429 . S
C693 C694 1.523 . S
C694 C675 1.368 . S
C694 C688 1.368 . S
C694 C693 1.523 . S
C695 C679 1.429 . S
C695 C691 1.429 . S
C695 C696 1.523 . S
C696 C680 1.368 . S
C696 C692 1.368 . S
C696 C695 1.523 . S
H697 C672 0.950 . S
H698 C674 0.950 . S
H699 C675 0.949 . S
H700 C677 0.950 . S
H701 C679 0.950 . S
C702 C703 1.349 . S
C702 C704 1.327 . S
C702 H727 0.950 . S
C703 C702 1.349 . S
C703 C719 1.349 . S
C704 C702 1.327 . S
C704 C723 1.429 . S
C704 H728 0.950 . S
C705 C722 1.574 . S
C705 C724 1.368 . S
C705 H729 0.949 . S
H706 C710 0.949 . S
C707 C708 1.349 . S
C707 C709 1.327 . S
C707 H730 0.950 . S
C708 C707 1.349 . S
C708 C720 1.349 . S
C709 C707 1.327 . S
C709 C725 1.429 . S
C709 H731 0.950 . S
C710 H706 0.949 . S
C710 C718 1.574 . S
C710 C726 1.368 . S
H711 C719 0.950 . S
H712 C717 0.950 . S
H713 C718 0.949 . S
H714 C720 0.950 . S
H715 C721 0.950 . S
H716 C722 0.949 . S
C717 H712 0.950 . S
C717 C719 1.327 . S
C717 C723 1.429 . S
C718 C710 1.574 . S
C718 H713 0.949 . S
C718 C724 1.368 . S
C719 C703 1.349 . S
C719 H711 0.950 . S
C719 C717 1.327 . S
C720 C708 1.349 . S
C720 H714 0.950 . S
C720 C721 1.327 . S
C721 H715 0.950 . S
C721 C720 1.327 . S
C721 C725 1.429 . S
C722 C705 1.574 . S
C722 H716 0.949 . S
C722 C726 1.368 . S
C723 C704 1.429 . S
C723 C717 1.429 . S
C723 C724 1.523 . S
C724 C705 1.368 . S
C724 C718 1.368 . S
C724 C723 1.523 . S
C725 C709 1.429 . S
C725 C721 1.429 . S
C725 C726 1.523 . S
C726 C710 1.368 . S
C726 C722 1.368 . S
C726 C725 1.523 . S
H727 C702 0.950 . S
H728 C704 0.950 . S
H729 C705 0.949 . S
H730 C707 0.950 . S
H731 C709 0.950 . S
C732 C733 1.349 . S
C732 C734 1.327 . S
C732 H757 0.950 . S
C733 C732 1.349 . S
C733 C749 1.349 . S
C734 C732 1.327 . S
C734 C753 1.429 . S
C734 H758 0.950 . S
C735 C752 1.574 . S
C735 C754 1.368 . S
C735 H759 0.949 . S
H736 C740 0.949 . S
C737 C738 1.349 . S
C737 C739 1.327 . S
C737 H760 0.950 . S
C738 C737 1.349 . S
C738 C750 1.349 . S
C739 C737 1.327 . S
C739 C755 1.429 . S
C739 H761 0.950 . S
C740 H736 0.949 . S
C740 C748 1.574 . S
C740 C756 1.368 . S
H741 C749 0.950 . S
H742 C747 0.950 . S
H743 C748 0.949 . S
H744 C750 0.950 . S
H745 C751 0.950 . S
H746 C752 0.949 . S
C747 H742 0.950 . S
C747 C749 1.327 . S
C747 C753 1.429 . S
C748 C740 1.574 . S
C748 H743 0.949 . S
C748 C754 1.368 . S
C749 C733 1.349 . S
C749 H741 0.950 . S
C749 C747 1.327 . S
C750 C738 1.349 . S
C750 H744 0.950 . S
C750 C751 1.327 . S
C751 H745 0.950 . S
C751 C750 1.327 . S
C751 C755 1.429 . S
C752 C735 1.574 . S
C752 H746 0.949 . S
C752 C756 1.368 . S
C753 C734 1.429 . S
C753 C747 1.429 . S
C753 C754 1.523 . S
C754 C735 1.368 . S
C754 C748 1.368 . S
C754 C753 1.523 . S
C755 C739 1.429 . S
C755 C751 1.429 . S
C755 C756 1.523 . S
C756 C740 1.368 . S
C756 C752 1.368 . S
C756 C755 1.523 . S
H757 C732 0.950 . S
H758 C734 0.950 . S
H759 C735 0.949 . S
H760 C737 0.950 . S
H761 C739 0.950 . S
C762 C763 1.349 . S
C762 C764 1.327 . S
C762 H787 0.950 . S
C763 C762 1.349 . S
C763 C779 1.349 . S
C764 C762 1.327 . S
C764 C783 1.429 . S
C764 H788 0.950 . S
C765 C782 1.574 . S
C765 C784 1.368 . S
C765 H789 0.949 . S
H766 C770 0.949 . S
C767 C768 1.349 . S
C767 C769 1.327 . S
C767 H790 0.950 . S
C768 C767 1.349 . S
C768 C780 1.349 . S
C769 C767 1.327 . S
C769 C785 1.429 . S
C769 H791 0.950 . S
C770 H766 0.949 . S
C770 C778 1.574 . S
C770 C786 1.368 . S
H771 C779 0.950 . S
H772 C777 0.950 . S
H773 C778 0.949 . S
H774 C780 0.950 . S
H775 C781 0.950 . S
H776 C782 0.949 . S
C777 H772 0.950 . S
C777 C779 1.327 . S
C777 C783 1.429 . S
C778 C770 1.574 . S
C778 H773 0.949 . S
C778 C784 1.368 . S
C779 C763 1.349 . S
C779 H771 0.950 . S
C779 C777 1.327 . S
C780 C768 1.349 . S
C780 H774 0.950 . S
C780 C781 1.327 . S
C781 H775 0.950 . S
C781 C780 1.327 . S
C781 C785 1.429 . S
C782 C765 1.574 . S
C782 H776 0.949 . S
C782 C786 1.368 . S
C783 C764 1.429 . S
C783 C777 1.429 . S
C783 C784 1.523 . S
C784 C765 1.368 . S
C784 C778 1.368 . S
C784 C783 1.523 . S
C785 C769 1.429 . S
C785 C781 1.429 . S
C785 C786 1.523 . S
C786 C770 1.368 . S
C786 C782 1.368 . S
C786 C785 1.523 . S
H787 C762 0.950 . S
H788 C764 0.950 . S
H789 C765 0.949 . S
H790 C767 0.950 . S
H791 C769 0.950 . S
C792 C793 1.349 . S
C792 C794 1.327 . S
C792 H817 0.950 . S
C793 C792 1.349 . S
C793 C809 1.349 . S
C794 C792 1.327 . S
C794 C813 1.429 . S
C794 H818 0.950 . S
C795 C812 1.574 . S
C795 C814 1.368 . S
C795 H819 0.949 . S
H796 C800 0.949 . S
C797 C798 1.349 . S
C797 C799 1.327 1_554 S
C797 H820 0.950 . S
C798 C797 1.349 . S
C798 C810 1.349 . S
C799 C797 1.327 1_556 S
C799 C815 1.429 . S
C799 H821 0.950 . S
C800 H796 0.949 . S
C800 C808 1.574 . S
C800 C816 1.368 . S
H801 C809 0.950 . S
H802 C807 0.950 . S
H803 C808 0.949 . S
H804 C810 0.950 . S
H805 C811 0.950 . S
H806 C812 0.949 . S
C807 H802 0.950 . S
C807 C809 1.327 . S
C807 C813 1.429 . S
C808 C800 1.574 . S
C808 H803 0.949 . S
C808 C814 1.368 . S
C809 C793 1.349 . S
C809 H801 0.950 . S
C809 C807 1.327 . S
C810 C798 1.349 . S
C810 H804 0.950 . S
C810 C811 1.327 1_554 S
C811 H805 0.950 . S
C811 C810 1.327 1_556 S
C811 C815 1.429 . S
C812 C795 1.574 . S
C812 H806 0.949 . S
C812 C816 1.368 . S
C813 C794 1.429 . S
C813 C807 1.429 . S
C813 C814 1.523 . S
C814 C795 1.368 . S
C814 C808 1.368 . S
C814 C813 1.523 . S
C815 C799 1.429 . S
C815 C811 1.429 . S
C815 C816 1.523 . S
C816 C800 1.368 . S
C816 C812 1.368 . S
C816 C815 1.523 . S
H817 C792 0.950 . S
H818 C794 0.950 . S
H819 C795 0.949 . S
H820 C797 0.950 . S
H821 C799 0.950 . S
C822 C823 1.349 . S
C822 C824 1.327 . S
C822 H847 0.950 . S
C823 C822 1.349 . S
C823 C839 1.349 . S
C824 C822 1.327 . S
C824 C843 1.429 . S
C824 H848 0.950 . S
C825 C842 1.574 . S
C825 C844 1.368 . S
C825 H849 0.949 . S
H826 C830 0.949 . S
C827 C828 1.349 . S
C827 C829 1.327 . S
C827 H850 0.950 . S
C828 C827 1.349 . S
C828 C840 1.349 . S
C829 C827 1.327 . S
C829 C845 1.429 . S
C829 H851 0.950 . S
C830 H826 0.949 . S
C830 C838 1.574 . S
C830 C846 1.368 . S
H831 C839 0.950 . S
H832 C837 0.950 . S
H833 C838 0.949 . S
H834 C840 0.950 . S
H835 C841 0.950 . S
H836 C842 0.949 . S
C837 H832 0.950 . S
C837 C839 1.327 . S
C837 C843 1.429 . S
C838 C830 1.574 . S
C838 H833 0.949 . S
C838 C844 1.368 . S
C839 C823 1.349 . S
C839 H831 0.950 . S
C839 C837 1.327 . S
C840 C828 1.349 . S
C840 H834 0.950 . S
C840 C841 1.327 . S
C841 H835 0.950 . S
C841 C840 1.327 . S
C841 C845 1.429 . S
C842 C825 1.574 . S
C842 H836 0.949 . S
C842 C846 1.368 . S
C843 C824 1.429 . S
C843 C837 1.429 . S
C843 C844 1.523 . S
C844 C825 1.368 . S
C844 C838 1.368 . S
C844 C843 1.523 . S
C845 C829 1.429 . S
C845 C841 1.429 . S
C845 C846 1.523 . S
C846 C830 1.368 . S
C846 C842 1.368 . S
C846 C845 1.523 . S
H847 C822 0.950 . S
H848 C824 0.950 . S
H849 C825 0.949 . S
H850 C827 0.950 . S
H851 C829 0.950 . S
C852 C853 1.349 . S
C852 C854 1.327 . S
C852 H877 0.950 . S
C853 C852 1.349 . S
C853 C869 1.349 . S
C854 C852 1.327 . S
C854 C873 1.429 . S
C854 H878 0.950 . S
C855 C872 1.574 . S
C855 C874 1.368 . S
C855 H879 0.949 . S
H856 C860 0.949 . S
C857 C858 1.349 . S
C857 C859 1.327 . S
C857 H880 0.950 . S
C858 C857 1.349 . S
C858 C870 1.349 . S
C859 C857 1.327 . S
C859 C875 1.429 . S
C859 H881 0.950 . S
C860 H856 0.949 . S
C860 C868 1.574 . S
C860 C876 1.368 . S
H861 C869 0.950 . S
H862 C867 0.950 . S
H863 C868 0.949 . S
H864 C870 0.950 . S
H865 C871 0.950 . S
H866 C872 0.949 . S
C867 H862 0.950 . S
C867 C869 1.327 . S
C867 C873 1.429 . S
C868 C860 1.574 . S
C868 H863 0.949 . S
C868 C874 1.368 . S
C869 C853 1.349 . S
C869 H861 0.950 . S
C869 C867 1.327 . S
C870 C858 1.349 . S
C870 H864 0.950 . S
C870 C871 1.327 . S
C871 H865 0.950 . S
C871 C870 1.327 . S
C871 C875 1.429 . S
C872 C855 1.574 . S
C872 H866 0.949 . S
C872 C876 1.368 . S
C873 C854 1.429 . S
C873 C867 1.429 . S
C873 C874 1.523 . S
C874 C855 1.368 . S
C874 C868 1.368 . S
C874 C873 1.523 . S
C875 C859 1.429 . S
C875 C871 1.429 . S
C875 C876 1.523 . S
C876 C860 1.368 . S
C876 C872 1.368 . S
C876 C875 1.523 . S
H877 C852 0.950 . S
H878 C854 0.950 . S
H879 C855 0.949 . S
H880 C857 0.950 . S
H881 C859 0.950 . S
C882 C883 1.349 . S
C882 C884 1.327 . S
C882 H907 0.950 . S
C883 C882 1.349 . S
C883 C899 1.349 . S
C884 C882 1.327 . S
C884 C903 1.429 . S
C884 H908 0.950 . S
C885 C902 1.574 . S
C885 C904 1.368 . S
C885 H909 0.949 . S
H886 C890 0.949 . S
C887 C888 1.349 . S
C887 C889 1.327 . S
C887 H910 0.950 . S
C888 C887 1.349 . S
C888 C900 1.349 . S
C889 C887 1.327 . S
C889 C905 1.429 . S
C889 H911 0.950 . S
C890 H886 0.949 . S
C890 C898 1.574 . S
C890 C906 1.368 . S
H891 C899 0.950 . S
H892 C897 0.950 . S
H893 C898 0.949 . S
H894 C900 0.950 . S
H895 C901 0.950 . S
H896 C902 0.949 . S
C897 H892 0.950 . S
C897 C899 1.327 . S
C897 C903 1.429 . S
C898 C890 1.574 . S
C898 H893 0.949 . S
C898 C904 1.368 . S
C899 C883 1.349 . S
C899 H891 0.950 . S
C899 C897 1.327 . S
C900 C888 1.349 . S
C900 H894 0.950 . S
C900 C901 1.327 . S
C901 H895 0.950 . S
C901 C900 1.327 . S
C901 C905 1.429 . S
C902 C885 1.574 . S
C902 H896 0.949 . S
C902 C906 1.368 . S
C903 C884 1.429 . S
C903 C897 1.429 . S
C903 C904 1.523 . S
C904 C885 1.368 . S
C904 C898 1.368 . S
C904 C903 1.523 . S
C905 C889 1.429 . S
C905 C901 1.429 . S
C905 C906 1.523 . S
C906 C890 1.368 . S
C906 C902 1.368 . S
C906 C905 1.523 . S
H907 C882 0.950 . S
H908 C884 0.950 . S
H909 C885 0.949 . S
H910 C887 0.950 . S
H911 C889 0.950 . S
C912 C913 1.349 . S
C912 C914 1.327 . S
C912 H937 0.950 . S
C913 C912 1.349 . S
C913 C929 1.349 . S
C914 C912 1.327 . S
C914 C933 1.429 . S
C914 H938 0.950 . S
C915 C932 1.574 . S
C915 C934 1.368 . S
C915 H939 0.949 . S
H916 C920 0.949 . S
C917 C918 1.349 . S
C917 C919 1.327 . S
C917 H940 0.950 . S
C918 C917 1.349 . S
C918 C930 1.349 . S
C919 C917 1.327 . S
C919 C935 1.429 . S
C919 H941 0.950 . S
C920 H916 0.949 . S
C920 C928 1.574 . S
C920 C936 1.368 . S
H921 C929 0.950 . S
H922 C927 0.950 . S
H923 C928 0.949 . S
H924 C930 0.950 . S
H925 C931 0.950 . S
H926 C932 0.949 . S
C927 H922 0.950 . S
C927 C929 1.327 . S
C927 C933 1.429 . S
C928 C920 1.574 . S
C928 H923 0.949 . S
C928 C934 1.368 . S
C929 C913 1.349 . S
C929 H921 0.950 . S
C929 C927 1.327 . S
C930 C918 1.349 . S
C930 H924 0.950 . S
C930 C931 1.327 . S
C931 H925 0.950 . S
C931 C930 1.327 . S
C931 C935 1.429 . S
C932 C915 1.574 . S
C932 H926 0.949 . S
C932 C936 1.368 . S
C933 C914 1.429 . S
C933 C927 1.429 . S
C933 C934 1.523 . S
C934 C915 1.368 . S
C934 C928 1.368 . S
C934 C933 1.523 . S
C935 C919 1.429 . S
C935 C931 1.429 . S
C935 C936 1.523 . S
C936 C920 1.368 . S
C936 C932 1.368 . S
C936 C935 1.523 . S
H937 C912 0.950 . S
H938 C914 0.950 . S
H939 C915 0.949 . S
H940 C917 0.950 . S
H941 C919 0.950 . S
C942 C943 1.349 . S
C942 C944 1.327 . S
C942 H967 0.950 . S
C943 C942 1.349 . S
C943 C959 1.349 . S
C944 C942 1.327 . S
C944 C963 1.429 . S
C944 H968 0.950 . S
C945 C962 1.574 . S
C945 C964 1.368 . S
C945 H969 0.949 . S
H946 C950 0.949 . S
C947 C948 1.349 . S
C947 C949 1.327 . S
C947 H970 0.950 . S
C948 C947 1.349 . S
C948 C960 1.349 . S
C949 C947 1.327 . S
C949 C965 1.429 . S
C949 H971 0.950 . S
C950 H946 0.949 . S
C950 C958 1.574 . S
C950 C966 1.368 . S
H951 C959 0.950 . S
H952 C957 0.950 . S
H953 C958 0.949 . S
H954 C960 0.950 . S
H955 C961 0.950 . S
H956 C962 0.949 . S
C957 H952 0.950 . S
C957 C959 1.327 . S
C957 C963 1.429 . S
C958 C950 1.574 . S
C958 H953 0.949 . S
C958 C964 1.368 . S
C959 C943 1.349 . S
C959 H951 0.950 . S
C959 C957 1.327 . S
C960 C948 1.349 . S
C960 H954 0.950 . S
C960 C961 1.327 . S
C961 H955 0.950 . S
C961 C960 1.327 . S
C961 C965 1.429 . S
C962 C945 1.574 . S
C962 H956 0.949 . S
C962 C966 1.368 . S
C963 C944 1.429 . S
C963 C957 1.429 . S
C963 C964 1.523 . S
C964 C945 1.368 . S
C964 C958 1.368 . S
C964 C963 1.523 . S
C965 C949 1.429 . S
C965 C961 1.429 . S
C965 C966 1.523 . S
C966 C950 1.368 . S
C966 C962 1.368 . S
C966 C965 1.523 . S
H967 C942 0.950 . S
H968 C944 0.950 . S
H969 C945 0.949 . S
H970 C947 0.950 . S
H971 C949 0.950 . S
C972 C973 1.349 . S
C972 C974 1.327 . S
C972 H997 0.950 . S
C973 C972 1.349 . S
C973 C989 1.349 . S
C974 C972 1.327 . S
C974 C993 1.429 . S
C974 H998 0.950 . S
C975 C992 1.574 . S
C975 C994 1.368 . S
C975 H999 0.949 . S
H976 C980 0.949 . S
C977 C978 1.349 . S
C977 C979 1.327 . S
C977 H1000 0.950 . S
C978 C977 1.349 . S
C978 C990 1.349 . S
C979 C977 1.327 . S
C979 C995 1.429 . S
C979 H1001 0.950 . S
C980 H976 0.949 . S
C980 C988 1.574 . S
C980 C996 1.368 . S
H981 C989 0.950 . S
H982 C987 0.950 . S
H983 C988 0.949 . S
H984 C990 0.950 . S
H985 C991 0.950 . S
H986 C992 0.949 . S
C987 H982 0.950 . S
C987 C989 1.327 . S
C987 C993 1.429 . S
C988 C980 1.574 . S
C988 H983 0.949 . S
C988 C994 1.368 . S
C989 C973 1.349 . S
C989 H981 0.950 . S
C989 C987 1.327 . S
C990 C978 1.349 . S
C990 H984 0.950 . S
C990 C991 1.327 . S
C991 H985 0.950 . S
C991 C990 1.327 . S
C991 C995 1.429 . S
C992 C975 1.574 . S
C992 H986 0.949 . S
C992 C996 1.368 . S
C993 C974 1.429 . S
C993 C987 1.429 . S
C993 C994 1.523 . S
C994 C975 1.368 . S
C994 C988 1.368 . S
C994 C993 1.523 . S
C995 C979 1.429 . S
C995 C991 1.429 . S
C995 C996 1.523 . S
C996 C980 1.368 . S
C996 C992 1.368 . S
C996 C995 1.523 . S
H997 C972 0.950 . S
H998 C974 0.950 . S
H999 C975 0.949 . S
H1000 C977 0.950 . S
H1001 C979 0.950 . S
C1002 C1003 1.349 . S
C1002 C1004 1.327 . S
C1002 H1027 0.950 . S
C1003 C1002 1.349 . S
C1003 C1019 1.349 . S
C1004 C1002 1.327 . S
C1004 C1023 1.429 . S
C1004 H1028 0.950 . S
C1005 C1022 1.574 . S
C1005 C1024 1.368 . S
C1005 H1029 0.949 . S
H1006 C1010 0.949 . S
C1007 C1008 1.349 . S
C1007 C1009 1.327 . S
C1007 H1030 0.950 . S
C1008 C1007 1.349 . S
C1008 C1020 1.349 . S
C1009 C1007 1.327 . S
C1009 C1025 1.429 . S
C1009 H1031 0.950 . S
C1010 H1006 0.949 . S
C1010 C1018 1.574 . S
C1010 C1026 1.368 . S
H1011 C1019 0.950 . S
H1012 C1017 0.950 . S
H1013 C1018 0.949 . S
H1014 C1020 0.950 . S
H1015 C1021 0.950 . S
H1016 C1022 0.949 . S
C1017 H1012 0.950 . S
C1017 C1019 1.327 . S
C1017 C1023 1.429 . S
C1018 C1010 1.574 . S
C1018 H1013 0.949 . S
C1018 C1024 1.368 . S
C1019 C1003 1.349 . S
C1019 H1011 0.950 . S
C1019 C1017 1.327 . S
C1020 C1008 1.349 . S
C1020 H1014 0.950 . S
C1020 C1021 1.327 . S
C1021 H1015 0.950 . S
C1021 C1020 1.327 . S
C1021 C1025 1.429 . S
C1022 C1005 1.574 . S
C1022 H1016 0.949 . S
C1022 C1026 1.368 . S
C1023 C1004 1.429 . S
C1023 C1017 1.429 . S
C1023 C1024 1.523 . S
C1024 C1005 1.368 . S
C1024 C1018 1.368 . S
C1024 C1023 1.523 . S
C1025 C1009 1.429 . S
C1025 C1021 1.429 . S
C1025 C1026 1.523 1_556 S
C1026 C1010 1.368 . S
C1026 C1022 1.368 . S
C1026 C1025 1.523 1_554 S
H1027 C1002 0.950 . S
H1028 C1004 0.950 . S
H1029 C1005 0.949 . S
H1030 C1007 0.950 . S
H1031 C1009 0.950 . S
C1032 C1033 1.349 . S
C1032 C1034 1.327 . S
C1032 H1057 0.950 . S
C1033 C1032 1.349 . S
C1033 C1049 1.349 . S
C1034 C1032 1.327 . S
C1034 C1053 1.429 . S
C1034 H1058 0.950 . S
C1035 C1052 1.574 . S
C1035 C1054 1.368 . S
C1035 H1059 0.949 . S
H1036 C1040 0.949 . S
C1037 C1038 1.349 . S
C1037 C1039 1.327 . S
C1037 H1060 0.950 . S
C1038 C1037 1.349 . S
C1038 C1050 1.349 . S
C1039 C1037 1.327 . S
C1039 C1055 1.429 . S
C1039 H1061 0.950 . S
C1040 H1036 0.949 . S
C1040 C1048 1.574 . S
C1040 C1056 1.368 . S
H1041 C1049 0.950 . S
H1042 C1047 0.950 . S
H1043 C1048 0.949 . S
H1044 C1050 0.950 . S
H1045 C1051 0.950 . S
H1046 C1052 0.949 . S
C1047 H1042 0.950 . S
C1047 C1049 1.327 . S
C1047 C1053 1.429 . S
C1048 C1040 1.574 . S
C1048 H1043 0.949 . S
C1048 C1054 1.368 . S
C1049 C1033 1.349 . S
C1049 H1041 0.950 . S
C1049 C1047 1.327 . S
C1050 C1038 1.349 . S
C1050 H1044 0.950 . S
C1050 C1051 1.327 . S
C1051 H1045 0.950 . S
C1051 C1050 1.327 . S
C1051 C1055 1.429 . S
C1052 C1035 1.574 . S
C1052 H1046 0.949 . S
C1052 C1056 1.368 . S
C1053 C1034 1.429 . S
C1053 C1047 1.429 . S
C1053 C1054 1.523 . S
C1054 C1035 1.368 . S
C1054 C1048 1.368 . S
C1054 C1053 1.523 . S
C1055 C1039 1.429 . S
C1055 C1051 1.429 . S
C1055 C1056 1.523 . S
C1056 C1040 1.368 . S
C1056 C1052 1.368 . S
C1056 C1055 1.523 . S
H1057 C1032 0.950 . S
H1058 C1034 0.950 . S
H1059 C1035 0.949 . S
H1060 C1037 0.950 . S
H1061 C1039 0.950 . S
C348 C309 1.607 . S
C343 C19 1.519 . S
C373 C40 1.548 . S
C378 C129 1.642 . S
C403 C51 1.513 . S
C408 C176 1.579 . S
C433 C72 1.464 . S
C438 C212 1.519 . S
C468 C237 1.588 . S
C463 C103 1.499 . S
C493 C114 1.500 . S
C498 C273 1.608 . S
C523 C30 1.533 . S
C528 C165 1.646 . S
C553 C61 1.500 . S
C558 C201 1.586 . S
C583 C82 1.464 . S
C588 C248 1.503 . S
C618 C284 1.544 . S
C613 C93 1.481 1_554 S
C648 C320 1.545 . S
C643 C124 1.501 . S
C678 C140 1.566 . S
C673 C9 1.503 . S
C703 C17 1.434 . S
C708 C164 1.510 . S
C733 C38 1.446 . S
C738 C200 1.524 . S
C768 C238 1.517 . S
C763 C54 1.430 . S
C793 C75 1.439 . S
C798 C274 1.526 . S
C828 C310 1.494 . S
C823 C101 1.411 . S
C858 C130 1.477 . S
C853 C117 1.390 . S
C888 C308 1.498 . S
C883 C33 1.417 . S
C913 C59 1.428 . S
C918 C128 1.502 . S
C948 C166 1.506 . S
C943 C80 1.428 . S
C973 C96 1.429 . S
C978 C202 1.515 . S
C1003 C122 1.473 . S
C1008 C236 1.546 . S
C1033 C12 1.452 . S
C1038 C272 1.531 . S
