# Generated by pormake.
# Topology ftw, (4,12)-cn, num edge types: 1
# Building blocks:
#     Node 0, Type 0, BuildingBlock: AZAVOO_clean_linker_0, # of connection points: 4
#     Node 1, Type 0, BuildingBlock: AZAVOO_clean_linker_0, # of connection points: 4
#     Node 2, Type 0, BuildingBlock: AZAVOO_clean_linker_0, # of connection points: 4
#     Node 3, Type 1, BuildingBlock: QEWDON_clean_sbu_0, # of connection points: 12
#     Edge 4, Type (0, 1), BuildingBlock: TEMPAE_clean_linker_10, # of connection points: 2
#     Edge 5, Type (0, 1), BuildingBlock: TEMPAE_clean_linker_10, # of connection points: 2
#     Edge 6, Type (0, 1), BuildingBlock: TEMPAE_clean_linker_10, # of connection points: 2
#     Edge 7, Type (0, 1), BuildingBlock: TEMPAE_clean_linker_10, # of connection points: 2
#     Edge 8, Type (0, 1), BuildingBlock: TEMPAE_clean_linker_10, # of connection points: 2
#     Edge 9, Type (0, 1), BuildingBlock: TEMPAE_clean_linker_10, # of connection points: 2
#     Edge 10, Type (0, 1), BuildingBlock: TEMPAE_clean_linker_10, # of connection points: 2
#     Edge 11, Type (0, 1), BuildingBlock: TEMPAE_clean_linker_10, # of connection points: 2
#     Edge 12, Type (0, 1), BuildingBlock: TEMPAE_clean_linker_10, # of connection points: 2
#     Edge 13, Type (0, 1), BuildingBlock: TEMPAE_clean_linker_10, # of connection points: 2
#     Edge 14, Type (0, 1), BuildingBlock: TEMPAE_clean_linker_10, # of connection points: 2
#     Edge 15, Type (0, 1), BuildingBlock: TEMPAE_clean_linker_10, # of connection points: 2
# Relax obj value: 0.076
# Max RMSD: 0.223
# Mean RMSD: 0.192
data_MOF--net-ftw--node1-QEWDON_clean_sbu_0--node2-AZAVOO_clean_linker_0--edge1-TEMPAE_clean_linker_10
_symmetry_space_group_name_H-M    P1
_symmetry_Int_Tables_number       1
_symmetry_cell_setting            triclinic
loop_
_symmetry_equiv_pos_as_xyz
'x, y, z'
_cell_length_a     28.008846
_cell_length_b     27.777818
_cell_length_c     29.012744
_cell_angle_alpha  91.495502
_cell_angle_beta   88.40822
_cell_angle_gamma 91.716278
loop_
_atom_site_label
_atom_site_type_symbol
_atom_site_fract_x
_atom_site_fract_y
_atom_site_fract_z
_atom_type_partial_charge
H0 H 0.02845 0.20225 0.44145 0.0
H1 H 0.94081 0.6382 0.7924 0.0
H2 H 0.07756 0.45714 0.42673 0.0
H3 H 0.08085 0.39925 0.36187 0.0
H4 H 0.93516 0.42971 0.33067 0.0
H5 H 0.93204 0.48754 0.39608 0.0
H6 H 0.06064 0.39903 0.51318 0.0
H7 H 0.05983 0.31379 0.48941 0.0
H8 H 0.91707 0.32665 0.43888 0.0
H9 H 0.91818 0.41165 0.46335 0.0
H10 H 0.0541 0.45378 0.60791 0.0
H11 H 0.0424 0.3953 0.66936 0.0
H12 H 0.89505 0.37325 0.63126 0.0
H13 H 0.90755 0.43088 0.56944 0.0
H14 H 0.06713 0.56363 0.60702 0.0
H15 H 0.06444 0.60169 0.68404 0.0
H16 H 0.9113 0.57668 0.69132 0.0
H17 H 0.91451 0.53918 0.61397 0.0
H18 H 0.07678 0.62124 0.52356 0.0
H19 H 0.08644 0.69448 0.57143 0.0
H20 H 0.93359 0.69607 0.59579 0.0
H21 H 0.92454 0.62226 0.54877 0.0
H22 H 0.06598 0.55717 0.40325 0.0
H23 H 0.06577 0.61099 0.33871 0.0
H24 H 0.93736 0.6752 0.39589 0.0
H25 H 0.93457 0.61656 0.45654 0.0
O26 O 0.0274 0.23555 0.45205 0.0
O27 O 0.95424 0.24427 0.42619 0.0
O28 O 0.02181 0.63414 0.75688 0.0
O29 O 0.94307 0.62186 0.7626 0.0
C30 C -0.00202 0.49699 0.46374 0.0
C31 C 0.99193 0.46415 0.50027 0.0
C32 C 0.98889 0.48111 0.54636 0.0
C33 C 0.99222 0.53094 0.55624 0.0
C34 C -0.00365 0.5642 0.51992 0.0
C35 C -0.00138 0.54744 0.47326 0.0
C36 C 0.00454 0.47652 0.41618 0.0
C37 C 0.04701 0.45284 0.40474 0.0
C38 C 0.04865 0.41936 0.36806 0.0
C39 C 0.00801 0.40939 0.34178 0.0
C40 C 0.96705 0.43677 0.35032 0.0
C41 C 0.96529 0.47008 0.38742 0.0
C42 C 0.98953 0.41143 0.48988 0.0
C43 C 0.029 0.38314 0.49757 0.0
C44 C 0.02852 0.33456 0.48371 0.0
C45 C 0.98849 0.31347 0.46197 0.0
C46 C 0.94853 0.34177 0.45538 0.0
C47 C 0.94901 0.39028 0.4694 0.0
C48 C 0.98166 0.44649 0.58429 0.0
C49 C 0.01932 0.43631 0.61302 0.0
C50 C 0.01249 0.40305 0.64817 0.0
C51 C 0.96779 0.37942 0.65522 0.0
C52 C 0.93012 0.3901 0.62637 0.0
C53 C 0.93705 0.42324 0.59122 0.0
C54 C 0.99101 0.54883 0.60498 0.0
C55 C 0.03312 0.56601 0.62553 0.0
C56 C 0.03145 0.58784 0.66945 0.0
C57 C 0.98758 0.59248 0.69375 0.0
C58 C 0.94563 0.57382 0.67352 0.0
C59 C 0.94736 0.55213 0.62949 0.0
C60 C -1e-05 0.61636 0.53268 0.0
C61 C 0.04522 0.63868 0.53745 0.0
C62 C 0.05066 0.68042 0.56515 0.0
C63 C 0.01084 0.70055 0.5883 0.0
C64 C 0.96507 0.68089 0.57929 0.0
C65 C 0.95972 0.63916 0.55177 0.0
C66 C 0.00017 0.58239 0.43489 0.0
C67 C 0.0372 0.58214 0.40131 0.0
C68 C 0.03747 0.61395 0.36466 0.0
C69 C 0.00169 0.64838 0.36149 0.0
C70 C 0.96511 0.64895 0.39589 0.0
C71 C 0.96395 0.61589 0.43151 0.0
C72 C 0.98878 0.26236 0.4457 0.0
C73 C 0.98541 0.61732 0.73966 0.0
H74 H 0.58914 0.92316 0.20922 0.0
H75 H 0.21489 0.07287 0.61076 0.0
H76 H 0.59377 0.90547 0.45506 0.0
H77 H 0.66375 0.90385 0.40282 0.0
H78 H 0.68487 0.05751 0.42357 0.0
H79 H 0.61512 0.05855 0.47641 0.0
H80 H 0.50415 0.90926 0.39513 0.0
H81 H 0.53349 0.9015 0.31504 0.0
H82 H 0.58174 0.05086 0.31989 0.0
H83 H 0.55178 0.05818 0.39973 0.0
H84 H 0.39656 0.92172 0.44789 0.0
H85 H 0.33637 0.9228 0.38808 0.0
H86 H 0.38867 0.06432 0.34915 0.0
H87 H 0.44838 0.06304 0.4091 0.0
H88 H 0.38908 0.92474 0.546 0.0
H89 H 0.30916 0.93676 0.5799 0.0
H90 H 0.32422 0.08914 0.55387 0.0
H91 H 0.40416 0.07653 0.52021 0.0
H92 H 0.46587 0.91905 0.60659 0.0
H93 H 0.4197 0.92641 0.67935 0.0
H94 H 0.43178 0.0815 0.67211 0.0
H95 H 0.47683 0.07365 0.59904 0.0
H96 H 0.57824 0.90628 0.56011 0.0
H97 H 0.64071 0.89886 0.61674 0.0
H98 H 0.64226 0.05306 0.64099 0.0
H99 H 0.57985 0.06007 0.58388 0.0
O100 O 0.57619 0.92746 0.24029 0.0
O101 O 0.60038 0.00439 0.24465 0.0
O102 O 0.23898 0.98799 0.60722 0.0
O103 O 0.24569 0.06684 0.59612 0.0
C104 C 0.54904 0.98564 0.4861 0.0
C105 C 0.51285 0.98728 0.45309 0.0
C106 C 0.46457 0.99079 0.46753 0.0
C107 C 0.45255 0.99335 0.51501 0.0
C108 C 0.48868 0.99175 0.54809 0.0
C109 C 0.53698 0.98758 0.53365 0.0
C110 C 0.59938 0.98212 0.46939 0.0
C111 C 0.6148 0.93837 0.44995 0.0
C112 C 0.6543 0.93769 0.41955 0.0
C113 C 0.67905 0.98077 0.4082 0.0
C114 C 0.66653 0.02376 0.43158 0.0
C115 C 0.62691 0.02438 0.46206 0.0
C116 C 0.52595 0.98421 0.40313 0.0
C117 C 0.52044 0.9404 0.37855 0.0
C118 C 0.53748 0.93603 0.33293 0.0
C119 C 0.56027 0.97548 0.31115 0.0
C120 C 0.56453 0.01973 0.33564 0.0
C121 C 0.54736 0.02405 0.38118 0.0
C122 C 0.4268 0.99229 0.43275 0.0
C123 C 0.39465 0.95309 0.42667 0.0
C124 C 0.36039 0.95375 0.39255 0.0
C125 C 0.35806 0.99349 0.36373 0.0
C126 C 0.3901 0.03288 0.37033 0.0
C127 C 0.42403 0.03233 0.40464 0.0
C128 C 0.4022 -0.00024 0.53063 0.0
C129 C 0.37475 0.96056 0.54718 0.0
C130 C 0.32924 0.96757 0.56666 0.0
C131 C 0.3104 0.01399 0.56983 0.0
C132 C 0.33768 0.05298 0.55209 0.0
C133 C 0.38319 0.04587 0.5326 0.0
C134 C 0.4747 0.99582 0.59768 0.0
C135 C 0.46001 0.95453 0.62169 0.0
C136 C 0.43343 0.95884 0.66311 0.0
C137 C 0.42128 0.00456 0.681 0.0
C138 C 0.43968 0.04578 0.6587 0.0
C139 C 0.46607 0.04143 0.61735 0.0
C140 C 0.57459 0.98365 0.56808 0.0
C141 C 0.59209 0.93839 0.57773 0.0
C142 C 0.62755 0.93425 0.61019 0.0
C143 C 0.6463 0.97538 0.63343 0.0
C144 C 0.62879 0.02079 0.62339 0.0
C145 C 0.59306 0.02485 0.59105 0.0
C146 C 0.5801 0.97022 0.26336 0.0
C147 C 0.26284 0.02193 0.59212 0.0
H148 H 0.24149 0.23533 0.0353 0.0
H149 H 0.77345 0.36803 0.06468 0.0
H150 H 0.36513 0.48218 0.96673 0.0
H151 H 0.27862 0.47283 0.97552 0.0
H152 H 0.28928 0.49669 0.12272 0.0
H153 H 0.3762 0.50466 0.11351 0.0
H154 H 0.38178 0.38303 0.97572 0.0
H155 H 0.31903 0.3208 0.98698 0.0
H156 H 0.33817 0.3317 0.13432 0.0
H157 H 0.40072 0.39402 0.1225 0.0
H158 H 0.47261 0.33579 0.9807 0.0
H159 H 0.50653 0.256 0.98865 0.0
H160 H 0.55111 0.29686 0.12581 0.0
H161 H 0.5168 0.37616 0.11789 0.0
H162 H 0.56369 0.39193 0.96535 0.0
H163 H 0.64393 0.35935 0.96348 0.0
H164 H 0.67067 0.4283 0.09601 0.0
H165 H 0.59 0.45997 0.09778 0.0
H166 H 0.5721 0.50446 0.95408 0.0
H167 H 0.64814 0.55064 0.94943 0.0
H168 H 0.62209 0.60784 0.08731 0.0
H169 H 0.54725 0.56016 0.09251 0.0
H170 H 0.44377 0.55678 0.953 0.0
H171 H 0.41891 0.64033 0.9463 0.0
H172 H 0.43869 0.66452 0.09222 0.0
H173 H 0.46213 0.5806 0.0989 0.0
O174 O 0.26537 0.26102 0.03165 0.0
O175 O 0.27846 0.26652 0.10686 0.0
O176 O 0.72576 0.34528 0.99673 0.0
O177 O 0.74175 0.38084 0.06434 0.0
C178 C 0.42679 0.47785 0.03665 0.0
C179 C 0.43567 0.42841 0.04118 0.0
C180 C 0.48287 0.41266 0.04029 0.0
C181 C 0.52141 0.44586 0.0336 0.0
C182 C 0.51264 0.49536 0.02919 0.0
C183 C 0.4652 0.51143 0.03105 0.0
C184 C 0.37674 0.49336 0.03954 0.0
C185 C 0.34855 0.48797 1.00053 0.0
C186 C 0.29898 0.48274 0.0057 0.0
C187 C 0.27723 0.48288 0.05002 0.0
C188 C 0.30518 0.49559 0.08826 0.0
C189 C 0.35478 0.50051 0.08305 0.0
C190 C 0.39564 0.39292 0.04831 0.0
C191 C 0.37201 0.37218 0.0104 0.0
C192 C 0.33629 0.33659 0.01694 0.0
C193 C 0.32389 0.32095 0.06153 0.0
C194 C 0.34707 0.34267 0.09951 0.0
C195 C 0.38271 0.37831 0.0929 0.0
C196 C 0.49279 0.36164 0.04859 0.0
C197 C 0.48808 0.32675 0.01306 0.0
C198 C 0.50727 0.28132 0.01768 0.0
C199 C 0.53152 0.27072 0.05773 0.0
C200 C 0.53257 0.30441 0.09463 0.0
C201 C 0.51313 0.34954 0.09015 0.0
C202 C 0.57112 0.42836 0.03164 0.0
C203 C 0.58699 0.4 0.99389 0.0
C204 C 0.63282 0.38146 0.99292 0.0
C205 C 0.66372 0.39116 0.02966 0.0
C206 C 0.64781 0.42012 0.06718 0.0
C207 C 0.60185 0.43845 0.0682 0.0
C208 C 0.55374 0.52968 0.02332 0.0
C209 C 0.58245 0.52765 0.98293 0.0
C210 C 0.62592 0.55354 0.98048 0.0
C211 C 0.64079 0.58249 0.0181 0.0
C212 C 0.6111 0.58598 0.05778 0.0
C213 C 0.56813 0.55933 0.06055 0.0
C214 C 0.45524 0.563 0.0263 0.0
C215 C 0.44343 0.5804 0.98331 0.0
C216 C 0.42932 0.62792 0.97956 0.0
C217 C 0.42736 0.65876 0.01871 0.0
C218 C 0.44074 0.64164 0.06145 0.0
C219 C 0.45404 0.59386 0.06531 0.0
C220 C 0.2878 0.28134 0.06824 0.0
C221 C 0.71222 0.371 0.02906 0.0
Zn222 Zn 0.0864 0.09726 0.97319 0.0
Zn223 Zn 0.04831 0.10662 0.07801 0.0
O224 O 0.05089 0.06095 0.02356 0.0
H225 H 0.03104 0.03221 0.01945 0.0
C226 C 0.89349 0.1475 0.9123 0.0
O227 O 0.85698 0.15636 0.94035 0.0
Zn228 Zn 0.95324 0.8941 0.06544 0.0
Zn229 Zn 0.93518 0.90342 0.95726 0.0
O230 O 0.94105 0.94214 0.01705 0.0
H231 H 0.95328 0.975 0.01816 0.0
Zn232 Zn 0.89616 0.06537 0.97246 0.0
O233 O 0.93683 0.06775 0.02931 0.0
Zn234 Zn 0.89455 0.05134 0.08391 0.0
H235 H 0.92069 0.06749 1.00034 0.0
Zn236 Zn 0.13095 0.94377 0.95114 0.0
O237 O 0.08148 0.94231 1.00404 0.0
H238 H 0.04753 0.94522 1.00027 0.0
Zn239 Zn 0.11697 0.95013 0.06317 0.0
C240 C 0.08157 0.92036 0.86265 0.0
O241 O 0.05845 0.95991 0.87269 0.0
O242 O 0.09455 0.1701 0.9874 0.0
O243 O 0.06323 0.17569 0.05868 0.0
O244 O 0.91914 0.83221 0.96947 0.0
O245 O 0.93101 0.8268 0.04463 0.0
O246 O 0.82433 0.06288 0.9902 0.0
O247 O 0.82511 0.05681 0.06662 0.0
C248 C 0.11573 0.04615 0.12127 0.0
O249 O 0.19884 0.93256 0.97407 0.0
O250 O 0.18718 0.93661 0.05032 0.0
O251 O 0.8953 0.93234 0.90595 0.0
C252 C 0.08218 0.19517 0.02296 0.0
O253 O 0.13683 0.06316 0.93073 0.0
C254 C 0.90173 0.95319 0.1312 0.0
O255 O 0.91716 0.10987 0.91809 0.0
C256 C 0.91836 0.80784 0.0061 0.0
O257 O 0.11316 0.90702 0.8899 0.0
C258 C 0.95283 0.11592 0.13563 0.0
O259 O 0.09633 0.08702 0.12415 0.0
O260 O 0.10436 0.01779 0.08786 0.0
C261 C 0.80249 0.06048 0.02928 0.0
O262 O 0.91805 0.91127 0.12501 0.0
O263 O 0.90888 0.98308 0.09912 0.0
C264 C 0.04842 0.88672 0.10824 0.0
O265 O 0.91033 0.09854 0.13615 0.0
O266 O 0.98154 0.09938 0.10482 0.0
C267 C 0.21443 0.93002 0.0148 0.0
O268 O 0.09143 0.9021 0.11007 0.0
O269 O 0.02314 0.90071 0.07589 0.0
C270 C 0.89831 0.91501 0.86503 0.0
O271 O 0.92869 0.88073 0.85563 0.0
C272 C 0.18072 0.0742 0.9361 0.0
O273 O 0.19238 0.1055 0.96893 0.0
C274 C 0.98838 0.36998 0.26537 0.0
C275 C 0.00649 0.36683 0.30968 0.0
C276 C 0.98396 0.32889 0.23627 0.0
C277 C -0.00307 0.28341 0.25231 0.0
C278 C 0.01607 0.28027 0.29675 0.0
C279 C 0.02079 0.32201 0.32477 0.0
C280 C 0.96381 0.33395 0.189 0.0
C281 C 0.02955 0.23252 0.31559 0.0
C282 C 0.93187 0.17432 0.19952 0.0
C283 C 0.96611 0.15644 0.16773 0.0
C284 C 0.94188 0.2149 0.22782 0.0
C285 C 0.98711 0.23878 0.224 0.0
C286 C 0.02225 0.22042 0.19272 0.0
C287 C 0.01153 0.17904 0.16551 0.0
C288 C 0.90363 0.23272 0.26124 0.0
C289 C 0.07096 0.24475 0.18757 0.0
H290 H 0.97738 0.40457 0.25358 0.0
H291 H 0.03408 0.31926 0.35933 0.0
H292 H 0.98391 0.31215 0.16288 0.0
H293 H 0.92616 0.32036 0.18935 0.0
H294 H 0.96465 0.37205 0.1782 0.0
H295 H 0.04853 0.23688 0.34863 0.0
H296 H -0.00321 0.20986 0.32162 0.0
H297 H 0.05267 0.21278 0.29036 0.0
H298 H 0.89674 0.15694 0.20196 0.0
H299 H 0.03857 0.16489 0.14212 0.0
H300 H 0.8931 0.26926 0.25173 0.0
H301 H 0.91762 0.2356 0.29664 0.0
H302 H 0.87123 0.20865 0.26171 0.0
H303 H 0.06746 0.28394 0.18273 0.0
H304 H 0.09212 0.22955 0.15797 0.0
H305 H 0.09111 0.24043 0.21951 0.0
C306 C 0.70264 0.95661 0.32744 0.0
C307 C 0.71389 0.9815 0.36861 0.0
C308 C 0.73443 0.95671 0.28928 0.0
C309 C 0.77868 0.98245 0.29217 0.0
C310 C 0.78982 0.00873 0.33318 0.0
C311 C 0.75722 0.008 0.37096 0.0
C312 C 0.72088 0.9286 0.24608 0.0
C313 C 0.8365 0.03687 0.33739 0.0
C314 C 0.87591 0.93415 0.21174 0.0
C315 C 0.874 0.96479 0.17415 0.0
C316 C 0.84653 0.94085 0.25114 0.0
C317 C 0.81422 0.97911 0.25314 0.0
C318 C 0.81352 0.01146 0.21619 0.0
C319 C 0.84347 0.00388 0.17712 0.0
C320 C 0.8486 0.90554 0.28973 0.0
C321 C 0.77965 0.05276 0.21694 0.0
H322 H 0.6686 0.93723 0.32491 0.0
H323 H 0.76596 0.0275 0.40261 0.0
H324 H 0.72204 0.95268 0.21614 0.0
H325 H 0.747 0.89996 0.23866 0.0
H326 H 0.68458 0.91153 0.24907 0.0
H327 H 0.83855 0.05773 0.37051 0.0
H328 H 0.86667 0.01186 0.33499 0.0
H329 H 0.8413 0.06214 0.30852 0.0
H330 H 0.89974 0.90405 0.21001 0.0
H331 H 0.84155 0.0275 0.14831 0.0
H332 H 0.81472 0.88382 0.29157 0.0
H333 H 0.8524 0.92497 0.32336 0.0
H334 H 0.8787 0.8806 0.28479 0.0
H335 H 0.74252 0.03847 0.21313 0.0
H336 H 0.78789 0.07817 0.18865 0.0
H337 H 0.78101 0.07295 0.2504 0.0
C338 C 0.04654 0.69874 0.30212 0.0
C339 C 0.00286 0.68371 0.32299 0.0
C340 C 0.04836 0.73128 0.26582 0.0
C341 C 0.00572 0.75144 0.25105 0.0
C342 C 0.96157 0.73749 0.27232 0.0
C343 C 0.96054 0.70304 0.30712 0.0
C344 C 0.09622 0.74437 0.24348 0.0
C345 C 0.91542 0.75928 0.25867 0.0
C346 C 0.03102 0.86934 0.19061 0.0
C347 C 0.02882 0.85473 0.14419 0.0
C348 C 0.01971 0.83687 0.22584 0.0
C349 C 0.00812 0.78811 0.21425 0.0
C350 C 0.00389 0.7738 0.1672 0.0
C351 C 0.01364 0.80761 0.13266 0.0
C352 C 0.0223 0.8543 0.27546 0.0
C353 C 0.99259 0.7221 0.15317 0.0
H354 H 0.0798 0.68569 0.31436 0.0
H355 H 0.92627 0.69135 0.32168 0.0
H356 H 0.09463 0.73926 0.20548 0.0
H357 H 0.10531 0.78292 0.25071 0.0
H358 H 0.12543 0.72241 0.25612 0.0
H359 H 0.88499 0.74889 0.28207 0.0
H360 H 0.91922 0.79917 0.25889 0.0
H361 H 0.90668 0.74729 0.22307 0.0
H362 H 0.04264 0.90596 0.19933 0.0
H363 H 0.01248 0.7964 0.09662 0.0
H364 H 0.0541 0.83948 0.29135 0.0
H365 H 0.99031 0.84139 0.29549 0.0
H366 H 0.02488 0.89424 0.27857 0.0
H367 H 0.02279 0.69941 0.16208 0.0
H368 H 0.98651 0.71772 0.11559 0.0
H369 H 0.96043 0.70829 0.17227 0.0
C370 C 0.33597 0.00998 0.28278 0.0
C371 C 0.32237 0.9942 0.32688 0.0
C372 C 0.30221 0.01379 0.24834 0.0
C373 C 0.25361 0.00182 0.25833 0.0
C374 C 0.23992 0.98418 0.30226 0.0
C375 C 0.27451 0.9805 0.33603 0.0
C376 C 0.31831 0.03205 0.2017 0.0
C377 C 0.18847 0.97079 0.31407 0.0
C378 C 0.16332 0.06786 0.19063 0.0
C379 C 0.15006 0.0333 0.15678 0.0
C380 C 0.19632 0.05767 0.22419 0.0
C381 C 0.21674 0.01171 0.22416 0.0
C382 C 0.20292 0.97625 0.1908 0.0
C383 C 0.16986 0.98759 0.15743 0.0
C384 C 0.20982 0.09646 0.25935 0.0
C385 C 0.22375 0.92672 0.18956 0.0
H386 H 0.3731 0.01973 0.2753 0.0
H387 H 0.26381 0.96843 0.37012 0.0
H388 H 0.30617 0.00658 0.17405 0.0
H389 H 0.30191 0.06716 0.19581 0.0
H390 H 0.35777 0.03691 0.19852 0.0
H391 H 0.18423 0.9543 0.34848 0.0
H392 H 0.1666 0.00345 0.31394 0.0
H393 H 0.17395 0.94511 0.28769 0.0
H394 H 0.14823 0.10335 0.19074 0.0
H395 H 0.15975 0.96059 0.13196 0.0
H396 H 0.24853 0.10572 0.25572 0.0
H397 H 0.20322 0.08313 0.29474 0.0
H398 H 0.18949 0.1298 0.25559 0.0
H399 H 0.26084 0.92902 0.17515 0.0
H400 H 0.20273 0.90079 0.16784 0.0
H401 H 0.22536 0.91232 0.22478 0.0
C402 C 0.99186 0.73329 0.66779 0.0
C403 C 0.01749 0.73774 0.62574 0.0
C404 C 0.00044 0.76517 0.70518 0.0
C405 C 0.03578 0.80239 0.70068 0.0
C406 C 0.06095 0.80792 0.65801 0.0
C407 C 0.05157 0.77549 0.62108 0.0
C408 C 0.97281 0.75791 0.75004 0.0
C409 C 0.09875 0.84726 0.65178 0.0
C410 C 0.03528 0.90503 0.79048 0.0
C411 C 0.07041 0.89095 0.82058 0.0
C412 C 0.02393 0.87689 0.75105 0.0
C413 C 0.04823 0.83362 0.74147 0.0
C414 C 0.08386 0.81938 0.77158 0.0
C415 C 0.09457 0.84821 0.81063 0.0
C416 C 0.98594 0.89345 0.71964 0.0
C417 C 0.11038 0.77333 0.76281 0.0
H418 H 0.96615 0.70371 0.67214 0.0
H419 H 0.07128 0.77937 0.58865 0.0
H420 H -0.00259 0.7468 0.77687 0.0
H421 H 0.95682 0.79215 0.76232 0.0
H422 H 0.94383 0.72994 0.74673 0.0
H423 H 0.11312 0.8485 0.61574 0.0
H424 H 0.0839 0.88281 0.66144 0.0
H425 H 0.12875 0.84143 0.67499 0.0
H426 H 0.01641 0.93798 0.79779 0.0
H427 H 0.12176 0.83697 0.83359 0.0
H428 H 0.95835 0.86446 0.71452 0.0
H429 H 0.00216 0.9013 0.68524 0.0
H430 H 0.96825 0.9263 0.73338 0.0
H431 H 0.08477 0.74207 0.76277 0.0
H432 H 0.13756 0.76769 0.78916 0.0
H433 H 0.1285 0.77388 0.72833 0.0
C434 C 0.38813 0.98068 0.75905 0.0
C435 C 0.38617 0.00949 0.72016 0.0
C436 C 0.35483 0.98564 0.79596 0.0
C437 C 0.31887 0.02025 0.7939 0.0
C438 C 0.31611 0.04857 0.75424 0.0
C439 C 0.34961 0.04272 0.71789 0.0
C440 C 0.35861 0.9545 0.83748 0.0
C441 C 0.27819 0.08571 0.75046 0.0
C442 C 0.20645 0.01944 0.87046 0.0
C443 C 0.21766 0.056 0.90302 0.0
C444 C 0.23995 0.00547 0.83607 0.0
C445 C 0.2855 0.02905 0.83392 0.0
C446 C 0.29767 0.06442 0.86796 0.0
C447 C 0.26372 0.07725 0.90222 0.0
C448 C 0.22585 0.96695 0.80095 0.0
C449 C 0.34574 0.09056 0.86685 0.0
H450 H 0.41621 0.95484 0.76096 0.0
H451 H 0.34698 0.06411 0.68738 0.0
H452 H 0.36767 0.97735 0.86811 0.0
H453 H 0.32376 0.93603 0.84531 0.0
H454 H 0.38629 0.9269 0.83236 0.0
H455 H 0.28006 0.10374 0.71669 0.0
H456 H 0.24215 0.06857 0.75503 0.0
H457 H 0.28228 0.1136 0.77827 0.0
H458 H 0.1711 0.00243 0.8712 0.0
H459 H 0.27279 0.10538 0.92734 0.0
H460 H 0.25407 0.93986 0.79692 0.0
H461 H 0.222 0.98344 0.76689 0.0
H462 H 0.19154 0.94822 0.81058 0.0
H463 H 0.37491 0.06438 0.8648 0.0
H464 H 0.35092 0.11454 0.89766 0.0
H465 H 0.34911 0.11274 0.83559 0.0
C466 C 0.93271 0.30154 0.68491 0.0
C467 C 0.96022 0.34393 0.69257 0.0
C468 C 0.92358 0.26866 0.72025 0.0
C469 C 0.94266 0.27813 0.76436 0.0
C470 C 0.97138 0.32024 0.77209 0.0
C471 C 0.9797 0.35268 0.73617 0.0
C472 C 0.89282 0.22415 0.71059 0.0
C473 C 0.9925 0.33154 0.8186 0.0
C474 C 0.87823 0.22059 0.86692 0.0
C475 C 0.90663 0.18099 0.87467 0.0
C476 C 0.88977 0.25257 0.83136 0.0
C477 C 0.93084 0.24495 0.80285 0.0
C478 C 0.95992 0.20529 0.81068 0.0
C479 C 0.94741 0.1737 0.84643 0.0
C480 C 0.85773 0.29433 0.82405 0.0
C481 C 0.00415 0.19614 0.7812 0.0
H482 H 0.91825 0.29399 0.65113 0.0
H483 H 0.00057 0.38553 0.74261 0.0
H484 H 0.91239 0.19138 0.71859 0.0
H485 H 0.86021 0.22459 0.7332 0.0
H486 H 0.88179 0.22136 0.67411 0.0
H487 H 0.01616 0.36436 0.8183 0.0
H488 H 0.9634 0.33702 0.84477 0.0
H489 H 0.01339 0.30079 0.82971 0.0
H490 H 0.84666 0.22657 0.88852 0.0
H491 H 0.96967 0.14331 0.85225 0.0
H492 H 0.84312 0.2917 0.78889 0.0
H493 H 0.87862 0.32882 0.82667 0.0
H494 H 0.82742 0.29554 0.84954 0.0
H495 H 0.99428 0.19025 0.74467 0.0
H496 H 0.0235 0.16429 0.79234 0.0
H497 H 0.0288 0.22813 0.7826 0.0
C498 C 0.67985 0.93424 0.70062 0.0
C499 C 0.68393 0.97066 0.66804 0.0
C500 C 0.71565 0.9282 0.73268 0.0
C501 C 0.75675 0.95918 0.73205 0.0
C502 C 0.76085 0.99643 0.69965 0.0
C503 C 0.7243 0.00183 0.6681 0.0
C504 C 0.70967 0.88834 0.76698 0.0
C505 C 0.80422 0.03001 0.69778 0.0
C506 C 0.82963 0.96349 0.84078 0.0
C507 C 0.86484 0.92985 0.82968 0.0
C508 C 0.79501 0.9745 0.80887 0.0
C509 C 0.79579 0.95156 0.7647 0.0
C510 C 0.83231 0.91898 0.75271 0.0
C511 C 0.86624 0.90838 0.78539 0.0
C512 C 0.75661 0.00936 0.82304 0.0
C513 C 0.83467 0.89411 0.70582 0.0
H514 H 0.64841 0.91051 0.70117 0.0
H515 H 0.72781 0.02978 0.64274 0.0
H516 H 0.73897 0.86257 0.76186 0.0
H517 H 0.71199 0.90348 0.80264 0.0
H518 H 0.67499 0.86823 0.76375 0.0
H519 H 0.80132 0.05802 0.67144 0.0
H520 H 0.80932 0.04809 0.7319 0.0
H521 H 0.83666 0.0091 0.68966 0.0
H522 H 0.8283 0.98036 0.87488 0.0
H523 H 0.89321 0.8823 0.77654 0.0
H524 H 0.72132 0.99011 0.82411 0.0
H525 H 0.75472 0.03806 0.79734 0.0
H526 H 0.7628 0.02649 0.85748 0.0
H527 H 0.80238 0.87054 0.70121 0.0
H528 H 0.86675 0.87177 0.70104 0.0
H529 H 0.83511 0.92115 0.67832 0.0
C530 C 0.19326 0.46314 0.02573 0.0
C531 C 0.23019 0.45764 0.05671 0.0
C532 C 0.15536 0.42897 0.02305 0.0
C533 C 0.15551 0.38795 0.05095 0.0
C534 C 0.18922 0.38567 0.08622 0.0
C535 C 0.22608 0.42066 0.08875 0.0
C536 C 0.11748 0.43491 0.9879 0.0
C537 C 0.18909 0.34389 0.11858 0.0
C538 C 0.07157 0.27873 0.05598 0.0
C539 C 0.0947 0.24725 0.02464 0.0
C540 C 0.08774 0.32687 0.06156 0.0
C541 C 0.12923 0.34294 0.03685 0.0
C542 C 0.1509 0.31202 1.00324 0.0
C543 C 0.13281 0.26486 0.99706 0.0
C544 C 0.06128 0.35948 0.09516 0.0
C545 C 0.19505 0.3276 0.97563 0.0
H546 H 0.19556 0.49237 1.00164 0.0
H547 H 0.25425 0.41615 0.113 0.0
H548 H 0.12887 0.4176 0.95469 0.0
H549 H 0.0829 0.41787 0.99921 0.0
H550 H 0.11209 0.47363 0.9816 0.0
H551 H 0.22009 0.34569 0.14169 0.0
H552 H 0.15592 0.34387 0.14032 0.0
H553 H 0.1895 0.30915 0.09883 0.0
H554 H 0.0414 0.2656 0.0768 0.0
H555 H 0.15059 0.24084 0.97252 0.0
H556 H 0.06838 0.39816 0.08817 0.0
H557 H 0.07221 0.35247 0.13074 0.0
H558 H 0.02219 0.35187 0.09368 0.0
H559 H 0.18608 0.35662 0.95214 0.0
H560 H 0.21022 0.29756 0.95444 0.0
H561 H 0.22313 0.34228 0.99877 0.0
C562 C 0.43033 0.7482 0.0335 0.0
C563 C 0.40647 0.70683 0.01605 0.0
C564 C 0.40866 0.79325 0.03387 0.0
C565 C 0.36161 0.79634 0.0178 0.0
C566 C 0.33788 0.75466 0.99938 0.0
C567 C 0.36083 0.71056 0.99832 0.0
C568 C 0.43569 0.83723 0.05202 0.0
C569 C 0.2875 0.75618 0.98222 0.0
C570 C 0.27009 0.88418 0.06125 0.0
C571 C 0.26161 0.90867 0.02073 0.0
C572 C 0.30618 0.85041 0.06244 0.0
C573 C 0.33521 0.84194 0.02249 0.0
C574 C 0.33123 0.87157 0.98388 0.0
C575 C 0.294 0.90427 0.98319 0.0
C576 C 0.30898 0.81972 0.10443 0.0
C577 C 0.36286 0.86547 0.94134 0.0
H578 H 0.46583 0.74521 0.04695 0.0
H579 H 0.34226 0.67842 0.98526 0.0
H580 H 0.43412 0.86699 0.02736 0.0
H581 H 0.41888 0.84995 0.08501 0.0
H582 H 0.47374 0.82982 0.05809 0.0
H583 H 0.2741 0.72042 0.96929 0.0
H584 H 0.26303 0.76879 0.01046 0.0
H585 H 0.28599 0.7821 0.95389 0.0
H586 H 0.24554 0.88761 0.09059 0.0
H587 H 0.28835 0.92384 0.95203 0.0
H588 H 0.34661 0.81429 0.11337 0.0
H589 H 0.29236 0.7837 0.09684 0.0
H590 H 0.28993 0.83588 0.13489 0.0
H591 H 0.3987 0.85284 0.94984 0.0
H592 H 0.36726 0.89987 0.92285 0.0
H593 H 0.34605 0.83843 0.91757 0.0
C594 C 0.54598 0.18227 0.04779 0.0
C595 C 0.56306 0.2292 0.05772 0.0
C596 C 0.57747 0.14375 0.04466 0.0
C597 C 0.62702 0.15312 0.05007 0.0
C598 C 0.64409 0.20058 0.06053 0.0
C599 C 0.61181 0.23788 0.0646 0.0
C600 C 0.55787 0.09358 0.03427 0.0
C601 C 0.69674 0.2125 0.06575 0.0
C602 C 0.72606 0.07031 0.07479 0.0
C603 C 0.75082 0.07015 0.03206 0.0
C604 C 0.6817 0.09219 0.08013 0.0
C605 C 0.66233 0.11486 0.04203 0.0
C606 C 0.68422 0.10934 0.99774 0.0
C607 C 0.72813 0.08666 0.99322 0.0
C608 C 0.65834 0.09558 0.12755 0.0
C609 C 0.66458 0.13262 0.95608 0.0
H610 H 0.50817 0.17583 0.04228 0.0
H611 H 0.625 0.27443 0.07138 0.0
H612 H 0.56453 0.08434 0.99728 0.0
H613 H 0.57586 0.0666 0.05476 0.0
H614 H 0.51874 0.0906 0.0415 0.0
H615 H 0.70386 0.2513 0.07402 0.0
H616 H 0.71124 0.19103 0.09357 0.0
H617 H 0.71662 0.20303 0.0333 0.0
H618 H 0.74275 0.05646 0.10481 0.0
H619 H 0.74647 0.08578 0.95982 0.0
H620 H 0.61889 0.09176 0.12554 0.0
H621 H 0.66689 0.13149 0.1434 0.0
H622 H 0.67127 0.06764 0.15051 0.0
H623 H 0.62528 0.12708 0.95495 0.0
H624 H 0.68085 0.11828 0.92336 0.0
H625 H 0.67229 0.17204 0.95827 0.0
C626 C 0.69024 0.65797 0.02611 0.0
C627 C 0.68757 0.60842 0.01641 0.0
C628 C 0.73417 0.68338 0.02424 0.0
C629 C 0.77654 0.65834 0.01327 0.0
C630 C 0.77416 0.60798 1.00449 0.0
C631 C 0.72948 0.58362 0.00567 0.0
C632 C 0.73506 0.73724 0.03316 0.0
C633 C 0.81865 0.58001 0.9937 0.0
C634 C 0.87136 0.74323 0.9649 0.0
C635 C 0.89335 0.76006 0.00539 0.0
C636 C 0.83578 0.70675 0.96622 0.0
C637 C 0.82258 0.686 0.00889 0.0
C638 C 0.84887 0.69846 0.04868 0.0
C639 C 0.88392 0.7356 0.04653 0.0
C640 C 0.80883 0.69445 0.92289 0.0
C641 C 0.83696 0.67598 0.09453 0.0
H642 H 0.65771 0.67701 0.03425 0.0
H643 H 0.72729 0.54508 0.99877 0.0
H644 H 0.75845 0.74679 0.06244 0.0
H645 H 0.75012 0.75589 1.00242 0.0
H646 H 0.69891 0.75114 0.04123 0.0
H647 H 0.84507 0.58686 0.02107 0.0
H648 H 0.81096 0.5406 0.99061 0.0
H649 H 0.83557 0.59223 0.96086 0.0
H650 H 0.87898 0.76122 0.9327 0.0
H651 H 0.90134 0.74768 0.07786 0.0
H652 H 0.77333 0.7112 0.92535 0.0
H653 H 0.80265 0.65499 0.91878 0.0
H654 H 0.82807 0.70782 0.89152 0.0
H655 H 0.8045 0.69255 0.10997 0.0
H656 H 0.8665 0.68165 0.11907 0.0
H657 H 0.82922 0.63675 0.09015 0.0
loop_
_geom_bond_atom_site_label_1
_geom_bond_atom_site_label_2
_geom_bond_distance
_geom_bond_site_symmetry_2
_ccdc_geom_bond_type
H0 O26 0.856 . S
H1 O29 0.854 . S
H2 C37 0.930 . S
H3 C38 0.930 . S
H4 C40 0.930 . S
H5 C41 0.930 . S
H6 C43 0.931 . S
H7 C44 0.930 . S
H8 C46 0.930 . S
H9 C47 0.929 . S
H10 C49 0.930 . S
H11 C50 0.931 . S
H12 C52 0.930 . S
H13 C53 0.929 . S
H14 C55 0.931 . S
H15 C56 0.930 . S
H16 C58 0.930 . S
H17 C59 0.932 . S
H18 C61 0.930 . S
H19 C62 0.929 . S
H20 C64 0.931 . S
H21 C65 0.930 . S
H22 C67 0.929 . S
H23 C68 0.931 . S
H24 C70 0.930 . S
H25 C71 0.929 . S
O26 H0 0.856 . S
O26 C72 1.300 1_455 S
O27 C72 1.209 . S
O28 C73 1.199 1_455 S
O29 H1 0.854 . S
O29 C73 1.297 . S
C30 C31 1.404 1_455 S
C30 C35 1.397 . S
C30 C36 1.494 . S
C31 C30 1.404 1_655 S
C31 C32 1.396 . S
C31 C42 1.492 . S
C32 C31 1.396 . S
C32 C33 1.397 . S
C32 C48 1.509 . S
C33 C32 1.397 . S
C33 C34 1.412 1_655 S
C33 C54 1.485 . S
C34 C33 1.412 1_455 S
C34 C35 1.388 . S
C34 C60 1.490 . S
C35 C30 1.397 . S
C35 C34 1.388 . S
C35 C66 1.519 . S
C36 C30 1.494 . S
C36 C37 1.363 . S
C36 C41 1.390 1_455 S
C37 H2 0.930 . S
C37 C36 1.363 . S
C37 C38 1.372 . S
C38 H3 0.930 . S
C38 C37 1.372 . S
C38 C39 1.383 . S
C39 C38 1.383 . S
C39 C40 1.395 1_455 S
C40 H4 0.930 . S
C40 C39 1.395 1_655 S
C40 C41 1.362 . S
C41 H5 0.930 . S
C41 C36 1.390 1_655 S
C41 C40 1.362 . S
C42 C31 1.492 . S
C42 C43 1.377 1_655 S
C42 C47 1.397 . S
C43 H6 0.931 . S
C43 C42 1.377 1_455 S
C43 C44 1.376 . S
C44 H7 0.930 . S
C44 C43 1.376 . S
C44 C45 1.376 1_455 S
C45 C44 1.376 1_655 S
C45 C46 1.378 . S
C45 C72 1.486 . S
C46 H8 0.930 . S
C46 C45 1.378 . S
C46 C47 1.376 . S
C47 H9 0.929 . S
C47 C42 1.397 . S
C47 C46 1.376 . S
C48 C32 1.509 . S
C48 C49 1.391 1_655 S
C48 C53 1.386 . S
C49 H10 0.930 . S
C49 C48 1.391 1_455 S
C49 C50 1.375 . S
C50 H11 0.931 . S
C50 C49 1.375 . S
C50 C51 1.375 1_455 S
C51 C50 1.375 1_655 S
C51 C52 1.361 . S
C52 H12 0.930 . S
C52 C51 1.361 . S
C52 C53 1.399 . S
C53 H13 0.929 . S
C53 C48 1.386 . S
C53 C52 1.399 . S
C54 C33 1.485 . S
C54 C55 1.394 1_655 S
C54 C59 1.360 . S
C55 H14 0.931 . S
C55 C54 1.394 1_455 S
C55 C56 1.372 . S
C56 H15 0.930 . S
C56 C55 1.372 . S
C56 C57 1.397 1_455 S
C57 C56 1.397 1_655 S
C57 C58 1.390 . S
C57 C73 1.476 . S
C58 H16 0.930 . S
C58 C57 1.390 . S
C58 C59 1.366 . S
C59 H17 0.932 . S
C59 C54 1.360 . S
C59 C58 1.366 . S
C60 C34 1.490 . S
C60 C61 1.380 . S
C60 C65 1.386 1_455 S
C61 H18 0.930 . S
C61 C60 1.380 . S
C61 C62 1.381 . S
C62 H19 0.929 . S
C62 C61 1.381 . S
C62 C63 1.371 . S
C63 C62 1.371 . S
C63 C64 1.380 1_455 S
C64 H20 0.931 . S
C64 C63 1.380 1_655 S
C64 C65 1.387 . S
C65 H21 0.930 . S
C65 C60 1.386 1_655 S
C65 C64 1.387 . S
C66 C35 1.519 . S
C66 C67 1.381 . S
C66 C71 1.357 1_455 S
C67 H22 0.929 . S
C67 C66 1.381 . S
C67 C68 1.386 . S
C68 H23 0.931 . S
C68 C67 1.386 . S
C68 C69 1.363 1_455 S
C69 C68 1.363 1_655 S
C69 C70 1.385 . S
C70 H24 0.930 . S
C70 C69 1.385 . S
C70 C71 1.396 . S
C71 H25 0.929 . S
C71 C66 1.357 1_655 S
C71 C70 1.396 . S
C72 O26 1.300 1_655 S
C72 O27 1.209 . S
C72 C45 1.486 . S
C73 O28 1.199 1_655 S
C73 O29 1.297 . S
C73 C57 1.476 . S
H74 O100 0.856 . S
H75 O103 0.854 . S
H76 C111 0.930 . S
H77 C112 0.930 . S
H78 C114 0.930 . S
H79 C115 0.930 . S
H80 C117 0.931 . S
H81 C118 0.930 . S
H82 C120 0.930 . S
H83 C121 0.929 . S
H84 C123 0.930 . S
H85 C124 0.931 . S
H86 C126 0.930 . S
H87 C127 0.929 . S
H88 C129 0.931 . S
H89 C130 0.930 . S
H90 C132 0.930 . S
H91 C133 0.932 . S
H92 C135 0.930 . S
H93 C136 0.929 . S
H94 C138 0.931 . S
H95 C139 0.930 . S
H96 C141 0.929 . S
H97 C142 0.931 . S
H98 C144 0.930 . S
H99 C145 0.929 . S
O100 H74 0.856 . S
O100 C146 1.300 1_565 S
O101 C146 1.209 . S
O102 C147 1.199 1_565 S
O103 H75 0.854 . S
O103 C147 1.297 . S
C104 C105 1.404 . S
C104 C109 1.397 . S
C104 C110 1.492 . S
C105 C104 1.404 . S
C105 C106 1.396 . S
C105 C116 1.492 . S
C106 C105 1.396 . S
C106 C107 1.397 . S
C106 C122 1.509 . S
C107 C106 1.397 . S
C107 C108 1.412 . S
C107 C128 1.485 . S
C108 C107 1.412 . S
C108 C109 1.388 . S
C108 C134 1.490 . S
C109 C104 1.397 . S
C109 C108 1.388 . S
C109 C140 1.519 . S
C110 C104 1.492 . S
C110 C111 1.363 1_545 S
C110 C115 1.390 . S
C111 H76 0.930 . S
C111 C110 1.363 1_565 S
C111 C112 1.372 . S
C112 H77 0.930 . S
C112 C111 1.372 . S
C112 C113 1.383 . S
C113 C112 1.383 . S
C113 C114 1.395 1_565 S
C114 H78 0.930 . S
C114 C113 1.395 1_545 S
C114 C115 1.362 . S
C115 H79 0.930 . S
C115 C110 1.390 . S
C115 C114 1.362 . S
C116 C105 1.492 . S
C116 C117 1.377 1_545 S
C116 C121 1.397 . S
C117 H80 0.931 . S
C117 C116 1.377 1_565 S
C117 C118 1.376 . S
C118 H81 0.930 . S
C118 C117 1.376 . S
C118 C119 1.376 1_565 S
C119 C118 1.376 1_545 S
C119 C120 1.378 . S
C119 C146 1.486 . S
C120 H82 0.930 . S
C120 C119 1.378 . S
C120 C121 1.376 . S
C121 H83 0.929 . S
C121 C116 1.397 . S
C121 C120 1.376 . S
C122 C106 1.509 . S
C122 C123 1.391 1_545 S
C122 C127 1.386 . S
C123 H84 0.930 . S
C123 C122 1.391 1_565 S
C123 C124 1.375 . S
C124 H85 0.931 . S
C124 C123 1.375 . S
C124 C125 1.375 1_565 S
C125 C124 1.375 1_545 S
C125 C126 1.361 . S
C126 H86 0.930 . S
C126 C125 1.361 . S
C126 C127 1.399 . S
C127 H87 0.929 . S
C127 C122 1.386 . S
C127 C126 1.399 . S
C128 C107 1.485 . S
C128 C129 1.394 1_545 S
C128 C133 1.360 . S
C129 H88 0.931 . S
C129 C128 1.394 1_565 S
C129 C130 1.372 . S
C130 H89 0.930 . S
C130 C129 1.372 . S
C130 C131 1.397 1_565 S
C131 C130 1.397 1_545 S
C131 C132 1.390 . S
C131 C147 1.476 . S
C132 H90 0.930 . S
C132 C131 1.390 . S
C132 C133 1.366 . S
C133 H91 0.932 . S
C133 C128 1.360 . S
C133 C132 1.366 . S
C134 C108 1.490 . S
C134 C135 1.380 1_545 S
C134 C139 1.386 . S
C135 H92 0.930 . S
C135 C134 1.380 1_565 S
C135 C136 1.381 . S
C136 H93 0.929 . S
C136 C135 1.381 . S
C136 C137 1.371 . S
C137 C136 1.371 . S
C137 C138 1.380 1_565 S
C138 H94 0.931 . S
C138 C137 1.380 1_545 S
C138 C139 1.387 . S
C139 H95 0.930 . S
C139 C134 1.386 . S
C139 C138 1.387 . S
C140 C109 1.519 . S
C140 C141 1.377 1_545 S
C140 C145 1.361 . S
C141 H96 0.929 . S
C141 C140 1.377 1_565 S
C141 C142 1.386 . S
C142 H97 0.931 . S
C142 C141 1.386 . S
C142 C143 1.363 1_565 S
C143 C142 1.363 1_545 S
C143 C144 1.385 . S
C144 H98 0.930 . S
C144 C143 1.385 . S
C144 C145 1.396 . S
C145 H99 0.929 . S
C145 C140 1.361 . S
C145 C144 1.396 . S
C146 O100 1.300 1_545 S
C146 O101 1.209 . S
C146 C119 1.486 . S
C147 O102 1.199 1_545 S
C147 O103 1.297 . S
C147 C131 1.476 . S
H148 O174 0.856 1_554 S
H149 O177 0.854 . S
H150 C185 0.930 . S
H151 C186 0.930 . S
H152 C188 0.930 . S
H153 C189 0.930 . S
H154 C191 0.931 . S
H155 C192 0.930 . S
H156 C194 0.930 . S
H157 C195 0.929 . S
H158 C197 0.930 . S
H159 C198 0.931 . S
H160 C200 0.930 . S
H161 C201 0.929 . S
H162 C203 0.931 . S
H163 C204 0.930 . S
H164 C206 0.930 . S
H165 C207 0.932 . S
H166 C209 0.930 . S
H167 C210 0.929 . S
H168 C212 0.931 . S
H169 C213 0.930 . S
H170 C215 0.929 . S
H171 C216 0.931 . S
H172 C218 0.930 . S
H173 C219 0.929 . S
O174 H148 0.856 1_556 S
O174 C220 1.300 1_556 S
O175 C220 1.209 . S
O176 C221 1.199 1_556 S
O177 H149 0.854 . S
O177 C221 1.297 . S
C178 C179 1.404 . S
C178 C183 1.397 . S
C178 C184 1.492 . S
C179 C178 1.404 . S
C179 C180 1.396 . S
C179 C190 1.492 . S
C180 C179 1.396 . S
C180 C181 1.397 . S
C180 C196 1.509 . S
C181 C180 1.397 . S
C181 C182 1.412 . S
C181 C202 1.485 . S
C182 C181 1.412 . S
C182 C183 1.388 . S
C182 C208 1.490 . S
C183 C178 1.397 . S
C183 C182 1.388 . S
C183 C214 1.519 . S
C184 C178 1.492 . S
C184 C185 1.363 1_554 S
C184 C189 1.390 . S
C185 H150 0.930 . S
C185 C184 1.363 1_556 S
C185 C186 1.372 . S
C186 H151 0.930 . S
C186 C185 1.372 . S
C186 C187 1.383 . S
C187 C186 1.383 . S
C187 C188 1.395 1_556 S
C188 H152 0.930 . S
C188 C187 1.395 1_554 S
C188 C189 1.362 . S
C189 H153 0.930 . S
C189 C184 1.390 . S
C189 C188 1.362 . S
C190 C179 1.492 . S
C190 C191 1.377 1_554 S
C190 C195 1.397 . S
C191 H154 0.931 . S
C191 C190 1.377 1_556 S
C191 C192 1.376 . S
C192 H155 0.930 . S
C192 C191 1.376 . S
C192 C193 1.376 1_556 S
C193 C192 1.376 1_554 S
C193 C194 1.378 . S
C193 C220 1.486 . S
C194 H156 0.930 . S
C194 C193 1.378 . S
C194 C195 1.376 . S
C195 H157 0.929 . S
C195 C190 1.397 . S
C195 C194 1.376 . S
C196 C180 1.509 . S
C196 C197 1.391 1_554 S
C196 C201 1.386 . S
C197 H158 0.930 . S
C197 C196 1.391 1_556 S
C197 C198 1.375 . S
C198 H159 0.931 . S
C198 C197 1.375 . S
C198 C199 1.375 1_556 S
C199 C198 1.375 1_554 S
C199 C200 1.361 . S
C200 H160 0.930 . S
C200 C199 1.361 . S
C200 C201 1.399 . S
C201 H161 0.929 . S
C201 C196 1.386 . S
C201 C200 1.399 . S
C202 C181 1.485 . S
C202 C203 1.394 1_554 S
C202 C207 1.360 . S
C203 H162 0.931 . S
C203 C202 1.394 1_556 S
C203 C204 1.372 . S
C204 H163 0.930 . S
C204 C203 1.372 . S
C204 C205 1.397 1_556 S
C205 C204 1.397 1_554 S
C205 C206 1.390 . S
C205 C221 1.476 . S
C206 H164 0.930 . S
C206 C205 1.390 . S
C206 C207 1.366 . S
C207 H165 0.932 . S
C207 C202 1.360 . S
C207 C206 1.366 . S
C208 C182 1.490 . S
C208 C209 1.380 1_554 S
C208 C213 1.386 . S
C209 H166 0.930 . S
C209 C208 1.380 1_556 S
C209 C210 1.381 . S
C210 H167 0.929 . S
C210 C209 1.381 . S
C210 C211 1.371 . S
C211 C210 1.371 . S
C211 C212 1.380 1_556 S
C212 H168 0.931 . S
C212 C211 1.380 1_554 S
C212 C213 1.387 . S
C213 H169 0.930 . S
C213 C208 1.386 . S
C213 C212 1.387 . S
C214 C183 1.519 . S
C214 C215 1.377 1_554 S
C214 C219 1.361 . S
C215 H170 0.929 . S
C215 C214 1.377 1_556 S
C215 C216 1.386 . S
C216 H171 0.931 . S
C216 C215 1.386 . S
C216 C217 1.363 1_556 S
C217 C216 1.363 1_554 S
C217 C218 1.385 . S
C218 H172 0.930 . S
C218 C217 1.385 . S
C218 C219 1.396 . S
C219 H173 0.929 . S
C219 C214 1.361 . S
C219 C218 1.396 . S
C220 O174 1.300 1_554 S
C220 O175 1.209 . S
C220 C193 1.486 . S
C221 O176 1.199 1_554 S
C221 O177 1.297 . S
C221 C205 1.476 . S
Zn222 O224 1.933 1_556 S
Zn222 O242 1.985 . S
Zn222 O253 1.955 . S
Zn223 O224 1.911 . S
Zn223 O243 1.970 . S
Zn223 O259 1.945 . S
Zn223 O266 1.981 . S
O224 Zn222 1.933 1_554 S
O224 Zn223 1.911 . S
O224 H225 0.841 . S
H225 O224 0.841 . S
C226 O227 1.246 . S
C226 O255 1.276 1_455 S
O227 C226 1.246 . S
Zn228 O230 1.911 . S
Zn228 O245 1.970 . S
Zn228 O262 1.945 . S
Zn228 O269 1.981 . S
Zn229 O230 1.933 1_556 S
Zn229 O244 1.985 . S
Zn229 O251 1.955 . S
O230 Zn228 1.911 . S
O230 Zn229 1.933 1_554 S
O230 H231 0.841 . S
H231 O230 0.841 . S
Zn232 O233 1.933 1_556 S
Zn232 O246 1.985 . S
Zn232 O255 1.955 . S
O233 Zn232 1.933 1_554 S
O233 Zn234 1.911 . S
O233 H235 0.841 . S
Zn234 O233 1.911 . S
Zn234 O247 1.970 . S
Zn234 O263 1.981 . S
Zn234 O265 1.945 . S
H235 O233 0.841 . S
Zn236 O237 1.933 1_556 S
Zn236 O249 1.985 . S
Zn236 O257 1.955 . S
O237 Zn236 1.933 1_554 S
O237 H238 0.841 . S
O237 Zn239 1.911 . S
H238 O237 0.841 . S
Zn239 O237 1.911 . S
Zn239 O250 1.970 . S
Zn239 O260 1.981 . S
Zn239 O268 1.945 . S
C240 O241 1.246 . S
C240 O257 1.276 1_655 S
O241 C240 1.246 . S
O242 Zn222 1.985 . S
O242 C252 1.245 1_556 S
O243 Zn223 1.970 . S
O243 C252 1.263 . S
O244 Zn229 1.985 . S
O244 C256 1.245 1_556 S
O245 Zn228 1.970 . S
O245 C256 1.263 . S
O246 Zn232 1.985 . S
O246 C261 1.245 1_556 S
O247 Zn234 1.970 . S
O247 C261 1.263 . S
C248 O259 1.262 . S
C248 O260 1.245 1_545 S
O249 Zn236 1.985 . S
O249 C267 1.245 1_556 S
O250 Zn239 1.970 . S
O250 C267 1.263 . S
O251 Zn229 1.955 . S
O251 C270 1.276 1_565 S
C252 O242 1.245 1_554 S
C252 O243 1.263 . S
O253 Zn222 1.955 . S
O253 C272 1.276 . S
C254 O262 1.262 1_545 S
C254 O263 1.245 . S
O255 C226 1.276 1_655 S
O255 Zn232 1.955 . S
C256 O244 1.245 1_554 S
C256 O245 1.263 . S
O257 Zn236 1.955 . S
O257 C240 1.276 1_455 S
C258 O265 1.237 1_455 S
C258 O266 1.258 . S
O259 Zn223 1.945 . S
O259 C248 1.262 . S
O260 Zn239 1.981 . S
O260 C248 1.245 1_565 S
C261 O246 1.245 1_554 S
C261 O247 1.263 . S
O262 Zn228 1.945 . S
O262 C254 1.262 1_565 S
O263 Zn234 1.981 . S
O263 C254 1.245 . S
C264 O268 1.262 1_655 S
C264 O269 1.245 . S
O265 Zn234 1.945 . S
O265 C258 1.237 1_655 S
O266 Zn223 1.981 . S
O266 C258 1.258 . S
C267 O249 1.245 1_554 S
C267 O250 1.263 . S
O268 Zn239 1.945 . S
O268 C264 1.262 1_455 S
O269 Zn228 1.981 . S
O269 C264 1.245 . S
C270 O251 1.276 1_545 S
C270 O271 1.246 . S
O271 C270 1.246 . S
C272 O253 1.276 . S
C272 O273 1.246 1_545 S
O273 C272 1.246 1_565 S
C274 C275 1.391 . S
C274 C276 1.394 . S
C274 H290 0.931 . S
C275 C274 1.391 . S
C275 C279 1.376 1_455 S
C276 C274 1.394 . S
C276 C277 1.369 . S
C276 C280 1.531 . S
C277 C276 1.369 . S
C277 C278 1.410 1_455 S
C277 C285 1.503 . S
C278 C277 1.410 1_655 S
C278 C279 1.392 . S
C278 C281 1.511 . S
C279 C275 1.376 1_655 S
C279 C278 1.392 . S
C279 H291 0.929 . S
C280 C276 1.531 . S
C280 H292 0.960 . S
C280 H293 0.962 . S
C280 H294 0.960 . S
C281 C278 1.511 . S
C281 H295 0.961 . S
C281 H296 0.961 . S
C281 H297 0.961 . S
C282 C283 1.370 1_655 S
C282 C284 1.363 . S
C282 H298 0.931 . S
C283 C282 1.370 1_455 S
C283 C287 1.408 . S
C284 C282 1.363 . S
C284 C285 1.370 1_655 S
C284 C288 1.524 . S
C285 C277 1.503 . S
C285 C284 1.370 1_455 S
C285 C286 1.403 . S
C286 C285 1.403 . S
C286 C287 1.404 . S
C286 C289 1.539 . S
C287 C283 1.408 . S
C287 C286 1.404 . S
C287 H299 0.930 . S
C288 C284 1.524 . S
C288 H300 0.956 . S
C288 H301 0.961 . S
C288 H302 0.961 . S
C289 C286 1.539 . S
C289 H303 0.958 . S
C289 H304 0.961 . S
C289 H305 0.960 . S
H290 C274 0.931 . S
H291 C279 0.929 . S
H292 C280 0.960 . S
H293 C280 0.962 . S
H294 C280 0.960 . S
H295 C281 0.961 . S
H296 C281 0.961 . S
H297 C281 0.961 . S
H298 C282 0.931 . S
H299 C287 0.930 . S
H300 C288 0.956 . S
H301 C288 0.961 . S
H302 C288 0.961 . S
H303 C289 0.958 . S
H304 C289 0.961 . S
H305 C289 0.960 . S
C306 C307 1.391 1_545 S
C306 C308 1.394 . S
C306 H322 0.931 . S
C307 C306 1.391 1_565 S
C307 C311 1.376 . S
C308 C306 1.394 . S
C308 C309 1.369 . S
C308 C312 1.531 . S
C309 C308 1.369 . S
C309 C310 1.410 . S
C309 C317 1.503 . S
C310 C309 1.410 . S
C310 C311 1.392 1_545 S
C310 C313 1.511 . S
C311 C307 1.376 . S
C311 C310 1.392 1_565 S
C311 H323 0.929 . S
C312 C308 1.531 . S
C312 H324 0.960 . S
C312 H325 0.962 1_545 S
C312 H326 0.960 . S
C313 C310 1.511 . S
C313 H327 0.961 1_545 S
C313 H328 0.961 1_545 S
C313 H329 0.961 . S
C314 C315 1.370 1_565 S
C314 C316 1.363 . S
C314 H330 0.931 . S
C315 C314 1.370 1_545 S
C315 C319 1.408 . S
C316 C314 1.363 . S
C316 C317 1.370 1_565 S
C316 C320 1.524 . S
C317 C309 1.503 . S
C317 C316 1.370 1_545 S
C317 C318 1.403 . S
C318 C317 1.403 . S
C318 C319 1.404 . S
C318 C321 1.539 . S
C319 C315 1.408 . S
C319 C318 1.404 . S
C319 H331 0.930 . S
C320 C316 1.524 . S
C320 H332 0.956 . S
C320 H333 0.961 . S
C320 H334 0.961 . S
C321 C318 1.539 . S
C321 H335 0.958 . S
C321 H336 0.961 . S
C321 H337 0.960 . S
H322 C306 0.931 . S
H323 C311 0.929 . S
H324 C312 0.960 . S
H325 C312 0.962 1_565 S
H326 C312 0.960 . S
H327 C313 0.961 1_565 S
H328 C313 0.961 1_565 S
H329 C313 0.961 . S
H330 C314 0.931 . S
H331 C319 0.930 . S
H332 C320 0.956 . S
H333 C320 0.961 . S
H334 C320 0.961 . S
H335 C321 0.958 . S
H336 C321 0.961 . S
H337 C321 0.960 . S
C338 C339 1.391 1_455 S
C338 C340 1.394 . S
C338 H354 0.931 . S
C339 C338 1.391 1_655 S
C339 C343 1.376 . S
C340 C338 1.394 . S
C340 C341 1.369 1_455 S
C340 C344 1.531 . S
C341 C340 1.369 1_655 S
C341 C342 1.410 . S
C341 C349 1.503 . S
C342 C341 1.410 . S
C342 C343 1.392 . S
C342 C345 1.511 . S
C343 C339 1.376 . S
C343 C342 1.392 . S
C343 H355 0.929 . S
C344 C340 1.531 . S
C344 H356 0.960 . S
C344 H357 0.962 . S
C344 H358 0.960 . S
C345 C342 1.511 . S
C345 H359 0.961 . S
C345 H360 0.961 . S
C345 H361 0.961 . S
C346 C347 1.370 . S
C346 C348 1.363 . S
C346 H362 0.930 1_655 S
C347 C346 1.370 . S
C347 C351 1.408 . S
C348 C346 1.363 . S
C348 C349 1.370 . S
C348 C352 1.521 1_655 S
C349 C341 1.503 . S
C349 C348 1.370 . S
C349 C350 1.403 . S
C350 C349 1.403 . S
C350 C351 1.404 . S
C350 C353 1.539 . S
C351 C347 1.408 . S
C351 C350 1.404 . S
C351 H363 0.930 . S
C352 C348 1.521 1_455 S
C352 H364 0.972 . S
C352 H365 0.947 1_455 S
C352 H366 0.961 . S
C353 C350 1.539 . S
C353 H367 0.958 . S
C353 H368 0.961 . S
C353 H369 0.960 . S
H354 C338 0.931 . S
H355 C343 0.929 . S
H356 C344 0.960 . S
H357 C344 0.962 . S
H358 C344 0.960 . S
H359 C345 0.961 . S
H360 C345 0.961 . S
H361 C345 0.961 . S
H362 C346 0.930 1_455 S
H363 C351 0.930 . S
H364 C352 0.972 . S
H365 C352 0.947 1_655 S
H366 C352 0.961 . S
H367 C353 0.958 . S
H368 C353 0.961 . S
H369 C353 0.960 . S
C370 C371 1.391 . S
C370 C372 1.394 . S
C370 H386 0.931 . S
C371 C370 1.391 . S
C371 C375 1.376 1_545 S
C372 C370 1.394 . S
C372 C373 1.369 . S
C372 C376 1.531 . S
C373 C372 1.369 . S
C373 C374 1.410 1_545 S
C373 C381 1.503 . S
C374 C373 1.410 1_565 S
C374 C375 1.392 . S
C374 C377 1.511 . S
C375 C371 1.376 1_565 S
C375 C374 1.392 . S
C375 H387 0.929 . S
C376 C372 1.531 . S
C376 H388 0.960 . S
C376 H389 0.962 . S
C376 H390 0.960 . S
C377 C374 1.511 . S
C377 H391 0.961 . S
C377 H392 0.961 . S
C377 H393 0.961 . S
C378 C379 1.364 1_545 S
C378 C380 1.363 . S
C378 H394 0.931 . S
C379 C378 1.364 1_565 S
C379 C383 1.414 . S
C380 C378 1.363 . S
C380 C381 1.370 . S
C380 C384 1.524 . S
C381 C373 1.503 . S
C381 C380 1.370 . S
C381 C382 1.403 1_545 S
C382 C381 1.403 1_565 S
C382 C383 1.404 . S
C382 C385 1.539 . S
C383 C379 1.414 . S
C383 C382 1.404 . S
C383 H395 0.930 . S
C384 C380 1.524 . S
C384 H396 0.956 . S
C384 H397 0.961 . S
C384 H398 0.961 . S
C385 C382 1.539 . S
C385 H399 0.958 . S
C385 H400 0.961 . S
C385 H401 0.960 . S
H386 C370 0.931 . S
H387 C375 0.929 . S
H388 C376 0.960 . S
H389 C376 0.962 . S
H390 C376 0.960 . S
H391 C377 0.961 . S
H392 C377 0.961 . S
H393 C377 0.961 . S
H394 C378 0.931 . S
H395 C383 0.930 . S
H396 C384 0.956 . S
H397 C384 0.961 . S
H398 C384 0.961 . S
H399 C385 0.958 . S
H400 C385 0.961 . S
H401 C385 0.960 . S
C402 C403 1.391 1_655 S
C402 C404 1.394 . S
C402 H418 0.931 . S
C403 C402 1.391 1_455 S
C403 C407 1.376 . S
C404 C402 1.394 . S
C404 C405 1.369 1_655 S
C404 C408 1.531 . S
C405 C404 1.369 1_455 S
C405 C406 1.410 . S
C405 C413 1.503 . S
C406 C405 1.410 . S
C406 C407 1.392 . S
C406 C409 1.511 . S
C407 C403 1.376 . S
C407 C406 1.392 . S
C407 H419 0.929 . S
C408 C404 1.531 . S
C408 H420 0.960 . S
C408 H421 0.962 . S
C408 H422 0.960 . S
C409 C406 1.511 . S
C409 H423 0.961 . S
C409 H424 0.961 . S
C409 H425 0.961 . S
C410 C411 1.370 . S
C410 C412 1.363 . S
C410 H426 0.931 . S
C411 C410 1.370 . S
C411 C415 1.408 1_655 S
C412 C410 1.363 . S
C412 C413 1.370 1_655 S
C412 C416 1.524 . S
C413 C405 1.503 . S
C413 C412 1.370 1_455 S
C413 C414 1.403 . S
C414 C413 1.403 . S
C414 C415 1.404 . S
C414 C417 1.539 . S
C415 C411 1.408 1_455 S
C415 C414 1.404 . S
C415 H427 0.930 . S
C416 C412 1.524 . S
C416 H428 0.956 . S
C416 H429 0.961 . S
C416 H430 0.961 . S
C417 C414 1.539 . S
C417 H431 0.958 . S
C417 H432 0.961 . S
C417 H433 0.960 . S
H418 C402 0.931 . S
H419 C407 0.929 . S
H420 C408 0.960 . S
H421 C408 0.962 . S
H422 C408 0.960 . S
H423 C409 0.961 . S
H424 C409 0.961 . S
H425 C409 0.961 . S
H426 C410 0.931 . S
H427 C415 0.930 . S
H428 C416 0.956 . S
H429 C416 0.961 . S
H430 C416 0.961 . S
H431 C417 0.958 . S
H432 C417 0.961 . S
H433 C417 0.960 . S
C434 C435 1.391 . S
C434 C436 1.394 . S
C434 H450 0.931 . S
C435 C434 1.391 . S
C435 C439 1.376 1_565 S
C436 C434 1.394 . S
C436 C437 1.369 . S
C436 C440 1.531 . S
C437 C436 1.369 . S
C437 C438 1.410 1_565 S
C437 C445 1.503 . S
C438 C437 1.410 1_545 S
C438 C439 1.392 . S
C438 C441 1.511 . S
C439 C435 1.376 1_545 S
C439 C438 1.392 . S
C439 H451 0.929 . S
C440 C436 1.531 . S
C440 H452 0.960 . S
C440 H453 0.962 . S
C440 H454 0.960 . S
C441 C438 1.511 . S
C441 H455 0.961 . S
C441 H456 0.961 . S
C441 H457 0.961 . S
C442 C443 1.370 . S
C442 C444 1.363 . S
C442 H458 0.931 . S
C443 C442 1.370 . S
C443 C447 1.408 1_565 S
C444 C442 1.363 . S
C444 C445 1.370 . S
C444 C448 1.524 . S
C445 C437 1.503 . S
C445 C444 1.370 . S
C445 C446 1.403 1_565 S
C446 C445 1.403 1_545 S
C446 C447 1.404 . S
C446 C449 1.539 . S
C447 C443 1.408 1_545 S
C447 C446 1.404 . S
C447 H459 0.930 . S
C448 C444 1.524 . S
C448 H460 0.956 . S
C448 H461 0.961 . S
C448 H462 0.961 . S
C449 C446 1.539 . S
C449 H463 0.958 . S
C449 H464 0.961 . S
C449 H465 0.960 . S
H450 C434 0.931 . S
H451 C439 0.929 . S
H452 C440 0.960 . S
H453 C440 0.962 . S
H454 C440 0.960 . S
H455 C441 0.961 . S
H456 C441 0.961 . S
H457 C441 0.961 . S
H458 C442 0.931 . S
H459 C447 0.930 . S
H460 C448 0.956 . S
H461 C448 0.961 . S
H462 C448 0.961 . S
H463 C449 0.958 . S
H464 C449 0.961 . S
H465 C449 0.960 . S
C466 C467 1.391 . S
C466 C468 1.394 . S
C466 H482 0.931 . S
C467 C466 1.391 . S
C467 C471 1.376 1_655 S
C468 C466 1.394 . S
C468 C469 1.369 1_655 S
C468 C472 1.531 . S
C469 C468 1.369 1_455 S
C469 C470 1.410 . S
C469 C477 1.503 . S
C470 C469 1.410 . S
C470 C471 1.392 . S
C470 C473 1.511 . S
C471 C467 1.376 1_455 S
C471 C470 1.392 . S
C471 H483 0.929 . S
C472 C468 1.531 . S
C472 H484 0.964 . S
C472 H485 0.962 . S
C472 H486 0.960 . S
C473 C470 1.511 . S
C473 H487 0.961 . S
C473 H488 0.961 . S
C473 H489 0.961 . S
C474 C475 1.370 1_655 S
C474 C476 1.363 . S
C474 H490 0.931 . S
C475 C474 1.370 1_455 S
C475 C479 1.408 . S
C476 C474 1.363 . S
C476 C477 1.370 1_655 S
C476 C480 1.524 . S
C477 C469 1.503 . S
C477 C476 1.370 1_455 S
C477 C478 1.403 . S
C478 C477 1.403 . S
C478 C479 1.404 . S
C478 C481 1.539 . S
C479 C475 1.408 . S
C479 C478 1.404 . S
C479 H491 0.930 . S
C480 C476 1.524 . S
C480 H492 0.956 . S
C480 H493 0.961 . S
C480 H494 0.961 . S
C481 C478 1.539 . S
C481 H495 0.958 . S
C481 H496 0.961 . S
C481 H497 0.960 . S
H482 C466 0.931 . S
H483 C471 0.929 . S
H484 C472 0.964 . S
H485 C472 0.962 . S
H486 C472 0.960 . S
H487 C473 0.961 . S
H488 C473 0.961 . S
H489 C473 0.961 . S
H490 C474 0.931 . S
H491 C479 0.930 . S
H492 C480 0.956 . S
H493 C480 0.961 . S
H494 C480 0.961 . S
H495 C481 0.958 . S
H496 C481 0.961 . S
H497 C481 0.960 . S
C498 C499 1.391 1_565 S
C498 C500 1.394 . S
C498 H514 0.931 . S
C499 C498 1.391 1_545 S
C499 C503 1.376 . S
C500 C498 1.394 . S
C500 C501 1.369 1_565 S
C500 C504 1.531 . S
C501 C500 1.369 1_545 S
C501 C502 1.410 . S
C501 C509 1.503 . S
C502 C501 1.410 . S
C502 C503 1.392 . S
C502 C505 1.511 . S
C503 C499 1.376 . S
C503 C502 1.392 . S
C503 H515 0.929 . S
C504 C500 1.531 . S
C504 H516 0.960 . S
C504 H517 0.962 . S
C504 H518 0.960 . S
C505 C502 1.511 . S
C505 H519 0.961 . S
C505 H520 0.961 . S
C505 H521 0.961 . S
C506 C507 1.370 . S
C506 C508 1.363 . S
C506 H522 0.931 . S
C507 C506 1.370 . S
C507 C511 1.408 . S
C508 C506 1.363 . S
C508 C509 1.370 . S
C508 C512 1.524 . S
C509 C501 1.503 . S
C509 C508 1.370 . S
C509 C510 1.403 . S
C510 C509 1.403 . S
C510 C511 1.404 . S
C510 C513 1.539 . S
C511 C507 1.408 . S
C511 C510 1.404 . S
C511 H523 0.930 . S
C512 C508 1.524 . S
C512 H524 0.956 1_545 S
C512 H525 0.961 . S
C512 H526 0.961 . S
C513 C510 1.539 . S
C513 H527 0.958 1_545 S
C513 H528 0.961 . S
C513 H529 0.960 . S
H514 C498 0.931 . S
H515 C503 0.929 . S
H516 C504 0.960 . S
H517 C504 0.962 . S
H518 C504 0.960 . S
H519 C505 0.961 . S
H520 C505 0.961 . S
H521 C505 0.961 . S
H522 C506 0.931 . S
H523 C511 0.930 . S
H524 C512 0.956 1_565 S
H525 C512 0.961 . S
H526 C512 0.961 . S
H527 C513 0.958 1_565 S
H528 C513 0.961 . S
H529 C513 0.960 . S
C530 C531 1.391 . S
C530 C532 1.394 . S
C530 H546 0.931 . S
C531 C530 1.391 . S
C531 C535 1.376 1_556 S
C532 C530 1.394 . S
C532 C533 1.369 . S
C532 C536 1.531 . S
C533 C532 1.369 . S
C533 C534 1.410 1_556 S
C533 C541 1.503 . S
C534 C533 1.410 1_554 S
C534 C535 1.392 . S
C534 C537 1.511 . S
C535 C531 1.376 1_554 S
C535 C534 1.392 . S
C535 H547 0.929 . S
C536 C532 1.531 . S
C536 H548 0.960 . S
C536 H549 0.962 . S
C536 H550 0.960 . S
C537 C534 1.511 . S
C537 H551 0.961 . S
C537 H552 0.961 . S
C537 H553 0.961 . S
C538 C539 1.370 . S
C538 C540 1.363 . S
C538 H554 0.931 . S
C539 C538 1.370 . S
C539 C543 1.408 1_554 S
C540 C538 1.363 . S
C540 C541 1.370 1_554 S
C540 C544 1.524 . S
C541 C533 1.503 . S
C541 C540 1.370 1_556 S
C541 C542 1.403 . S
C542 C541 1.403 . S
C542 C543 1.404 . S
C542 C545 1.539 . S
C543 C539 1.408 1_556 S
C543 C542 1.404 . S
C543 H555 0.930 . S
C544 C540 1.524 . S
C544 H556 0.956 . S
C544 H557 0.961 . S
C544 H558 0.961 . S
C545 C542 1.539 . S
C545 H559 0.958 . S
C545 H560 0.961 . S
C545 H561 0.960 . S
H546 C530 0.931 . S
H547 C535 0.929 . S
H548 C536 0.960 . S
H549 C536 0.962 . S
H550 C536 0.960 . S
H551 C537 0.961 . S
H552 C537 0.961 . S
H553 C537 0.961 . S
H554 C538 0.931 . S
H555 C543 0.930 . S
H556 C544 0.956 . S
H557 C544 0.961 . S
H558 C544 0.961 . S
H559 C545 0.958 . S
H560 C545 0.961 . S
H561 C545 0.960 . S
C562 C563 1.391 . S
C562 C564 1.394 . S
C562 H578 0.931 . S
C563 C562 1.391 . S
C563 C567 1.376 . S
C564 C562 1.394 . S
C564 C565 1.369 . S
C564 C568 1.531 1_554 S
C565 C564 1.369 . S
C565 C566 1.410 . S
C565 C573 1.503 . S
C566 C565 1.410 . S
C566 C567 1.392 . S
C566 C569 1.511 . S
C567 C563 1.376 . S
C567 C566 1.392 . S
C567 H579 0.929 . S
C568 C564 1.531 1_556 S
C568 H580 0.960 . S
C568 H581 0.962 1_556 S
C568 H582 0.960 . S
C569 C566 1.511 . S
C569 H583 0.961 . S
C569 H584 0.961 . S
C569 H585 0.966 . S
C570 C571 1.370 . S
C570 C572 1.363 . S
C570 H586 0.931 . S
C571 C570 1.370 . S
C571 C575 1.408 1_554 S
C572 C570 1.363 . S
C572 C573 1.370 . S
C572 C576 1.524 . S
C573 C565 1.503 . S
C573 C572 1.370 . S
C573 C574 1.403 1_554 S
C574 C573 1.403 1_556 S
C574 C575 1.404 . S
C574 C577 1.539 . S
C575 C571 1.408 1_556 S
C575 C574 1.404 . S
C575 H587 0.930 . S
C576 C572 1.524 . S
C576 H588 0.956 . S
C576 H589 0.961 . S
C576 H590 0.961 . S
C577 C574 1.539 . S
C577 H591 0.958 . S
C577 H592 0.961 . S
C577 H593 0.960 . S
H578 C562 0.931 . S
H579 C567 0.929 . S
H580 C568 0.960 . S
H581 C568 0.962 1_554 S
H582 C568 0.960 . S
H583 C569 0.961 . S
H584 C569 0.961 . S
H585 C569 0.966 . S
H586 C570 0.931 . S
H587 C575 0.930 . S
H588 C576 0.956 . S
H589 C576 0.961 . S
H590 C576 0.961 . S
H591 C577 0.958 . S
H592 C577 0.961 . S
H593 C577 0.960 . S
C594 C595 1.392 1_556 S
C594 C596 1.394 . S
C594 H610 0.930 . S
C595 C594 1.392 1_554 S
C595 C599 1.376 . S
C596 C594 1.394 . S
C596 C597 1.369 1_556 S
C596 C600 1.531 . S
C597 C596 1.369 1_554 S
C597 C598 1.410 . S
C597 C605 1.503 . S
C598 C597 1.410 . S
C598 C599 1.392 . S
C598 C601 1.511 . S
C599 C595 1.376 . S
C599 C598 1.392 . S
C599 H611 0.929 . S
C600 C596 1.531 . S
C600 H612 0.960 . S
C600 H613 0.962 . S
C600 H614 0.960 . S
C601 C598 1.511 . S
C601 H615 0.961 . S
C601 H616 0.961 . S
C601 H617 0.961 . S
C602 C603 1.370 . S
C602 C604 1.363 . S
C602 H618 0.931 . S
C603 C602 1.370 . S
C603 C607 1.408 1_554 S
C604 C602 1.363 . S
C604 C605 1.370 . S
C604 C608 1.524 . S
C605 C597 1.503 . S
C605 C604 1.370 . S
C605 C606 1.403 1_554 S
C606 C605 1.403 1_556 S
C606 C607 1.404 . S
C606 C609 1.539 . S
C607 C603 1.408 1_556 S
C607 C606 1.404 . S
C607 H619 0.930 . S
C608 C604 1.524 . S
C608 H620 0.956 . S
C608 H621 0.961 . S
C608 H622 0.961 . S
C609 C606 1.539 . S
C609 H623 0.958 . S
C609 H624 0.961 . S
C609 H625 0.960 . S
H610 C594 0.930 . S
H611 C599 0.929 . S
H612 C600 0.960 . S
H613 C600 0.962 . S
H614 C600 0.960 . S
H615 C601 0.961 . S
H616 C601 0.961 . S
H617 C601 0.961 . S
H618 C602 0.931 . S
H619 C607 0.930 . S
H620 C608 0.956 . S
H621 C608 0.961 . S
H622 C608 0.961 . S
H623 C609 0.958 . S
H624 C609 0.961 . S
H625 C609 0.960 . S
C626 C627 1.391 . S
C626 C628 1.394 . S
C626 H642 0.931 . S
C627 C626 1.391 . S
C627 C631 1.376 1_556 S
C628 C626 1.394 . S
C628 C629 1.369 1_556 S
C628 C632 1.531 . S
C629 C628 1.369 1_554 S
C629 C630 1.410 . S
C629 C637 1.503 . S
C630 C629 1.410 . S
C630 C631 1.392 . S
C630 C633 1.511 . S
C631 C627 1.376 1_554 S
C631 C630 1.392 . S
C631 H643 0.929 . S
C632 C628 1.531 . S
C632 H644 0.960 1_556 S
C632 H645 0.962 . S
C632 H646 0.960 . S
C633 C630 1.511 . S
C633 H647 0.961 . S
C633 H648 0.961 . S
C633 H649 0.961 . S
C634 C635 1.370 1_556 S
C634 C636 1.363 . S
C634 H650 0.931 . S
C635 C634 1.370 1_554 S
C635 C639 1.408 . S
C636 C634 1.363 . S
C636 C637 1.370 1_556 S
C636 C640 1.524 . S
C637 C629 1.503 . S
C637 C636 1.370 1_554 S
C637 C638 1.403 . S
C638 C637 1.403 . S
C638 C639 1.404 . S
C638 C641 1.539 . S
C639 C635 1.408 . S
C639 C638 1.404 . S
C639 H651 0.930 . S
C640 C636 1.524 . S
C640 H652 0.956 . S
C640 H653 0.961 . S
C640 H654 0.961 . S
C641 C638 1.539 . S
C641 H655 0.958 . S
C641 H656 0.961 . S
C641 H657 0.960 . S
H642 C626 0.931 . S
H643 C631 0.929 . S
H644 C632 0.960 1_554 S
H645 C632 0.962 . S
H646 C632 0.960 . S
H647 C633 0.961 . S
H648 C633 0.961 . S
H649 C633 0.961 . S
H650 C634 0.931 . S
H651 C639 0.930 . S
H652 C640 0.956 . S
H653 C640 0.961 . S
H654 C640 0.961 . S
H655 C641 0.958 . S
H656 C641 0.961 . S
H657 C641 0.960 . S
C283 C258 1.746 . S
C275 C39 1.715 . S
C315 C254 1.913 . S
C307 C113 1.828 . S
C347 C264 2.147 . S
C339 C69 2.249 . S
C379 C248 0.970 1_565 S
C371 C125 0.996 . S
C403 C63 1.882 . S
C411 C240 1.918 . S
C443 C272 1.798 1_565 S
C435 C137 1.852 . S
C467 C51 1.114 . S
C475 C226 1.085 . S
C499 C143 2.376 . S
C507 C270 2.282 . S
C531 C187 1.054 . S
C539 C252 1.117 . S
C563 C217 1.581 . S
C571 C267 1.558 . S
C603 C261 0.365 . S
C595 C199 0.310 . S
C635 C256 1.204 . S
C627 C211 1.174 . S
