# Generated by pormake.
# Topology ptr, (4,4)-cn, num edge types: 1
# Building blocks:
#     Node 0, Type 0, BuildingBlock: AZAVOO_clean_sbu_0, # of connection points: 4
#     Node 1, Type 0, BuildingBlock: AZAVOO_clean_sbu_0, # of connection points: 4
#     Node 2, Type 0, BuildingBlock: AZAVOO_clean_sbu_0, # of connection points: 4
#     Node 3, Type 0, BuildingBlock: AZAVOO_clean_sbu_0, # of connection points: 4
#     Node 4, Type 0, BuildingBlock: AZAVOO_clean_sbu_0, # of connection points: 4
#     Node 5, Type 0, BuildingBlock: AZAVOO_clean_sbu_0, # of connection points: 4
#     Node 6, Type 0, BuildingBlock: AZAVOO_clean_sbu_0, # of connection points: 4
#     Node 7, Type 0, BuildingBlock: AZAVOO_clean_sbu_0, # of connection points: 4
#     Node 8, Type 0, BuildingBlock: AZAVOO_clean_sbu_0, # of connection points: 4
#     Node 9, Type 0, BuildingBlock: AZAVOO_clean_sbu_0, # of connection points: 4
#     Node 10, Type 0, BuildingBlock: AZAVOO_clean_sbu_0, # of connection points: 4
#     Node 11, Type 0, BuildingBlock: AZAVOO_clean_sbu_0, # of connection points: 4
#     Node 12, Type 0, BuildingBlock: AZAVOO_clean_sbu_0, # of connection points: 4
#     Node 13, Type 0, BuildingBlock: AZAVOO_clean_sbu_0, # of connection points: 4
#     Node 14, Type 0, BuildingBlock: AZAVOO_clean_sbu_0, # of connection points: 4
#     Node 15, Type 0, BuildingBlock: AZAVOO_clean_sbu_0, # of connection points: 4
#     Node 16, Type 0, BuildingBlock: AZAVOO_clean_sbu_0, # of connection points: 4
#     Node 17, Type 0, BuildingBlock: AZAVOO_clean_sbu_0, # of connection points: 4
#     Node 18, Type 1, BuildingBlock: AZAVOO_clean_linker_0, # of connection points: 4
#     Node 19, Type 1, BuildingBlock: AZAVOO_clean_linker_0, # of connection points: 4
#     Node 20, Type 1, BuildingBlock: AZAVOO_clean_linker_0, # of connection points: 4
#     Node 21, Type 1, BuildingBlock: AZAVOO_clean_linker_0, # of connection points: 4
#     Node 22, Type 1, BuildingBlock: AZAVOO_clean_linker_0, # of connection points: 4
#     Node 23, Type 1, BuildingBlock: AZAVOO_clean_linker_0, # of connection points: 4
#     Node 24, Type 1, BuildingBlock: AZAVOO_clean_linker_0, # of connection points: 4
#     Node 25, Type 1, BuildingBlock: AZAVOO_clean_linker_0, # of connection points: 4
#     Node 26, Type 1, BuildingBlock: AZAVOO_clean_linker_0, # of connection points: 4
#     Node 27, Type 1, BuildingBlock: AZAVOO_clean_linker_0, # of connection points: 4
#     Node 28, Type 1, BuildingBlock: AZAVOO_clean_linker_0, # of connection points: 4
#     Node 29, Type 1, BuildingBlock: AZAVOO_clean_linker_0, # of connection points: 4
#     Node 30, Type 1, BuildingBlock: AZAVOO_clean_linker_0, # of connection points: 4
#     Node 31, Type 1, BuildingBlock: AZAVOO_clean_linker_0, # of connection points: 4
#     Node 32, Type 1, BuildingBlock: AZAVOO_clean_linker_0, # of connection points: 4
#     Node 33, Type 1, BuildingBlock: AZAVOO_clean_linker_0, # of connection points: 4
#     Node 34, Type 1, BuildingBlock: AZAVOO_clean_linker_0, # of connection points: 4
#     Node 35, Type 1, BuildingBlock: AZAVOO_clean_linker_0, # of connection points: 4
#     Edge 36, Type (0, 1), BuildingBlock: FUNLAD_clean_linker_1, # of connection points: 2
#     Edge 37, Type (0, 1), BuildingBlock: FUNLAD_clean_linker_1, # of connection points: 2
#     Edge 38, Type (0, 1), BuildingBlock: FUNLAD_clean_linker_1, # of connection points: 2
#     Edge 39, Type (0, 1), BuildingBlock: FUNLAD_clean_linker_1, # of connection points: 2
#     Edge 40, Type (0, 1), BuildingBlock: FUNLAD_clean_linker_1, # of connection points: 2
#     Edge 41, Type (0, 1), BuildingBlock: FUNLAD_clean_linker_1, # of connection points: 2
#     Edge 42, Type (0, 1), BuildingBlock: FUNLAD_clean_linker_1, # of connection points: 2
#     Edge 43, Type (0, 1), BuildingBlock: FUNLAD_clean_linker_1, # of connection points: 2
#     Edge 44, Type (0, 1), BuildingBlock: FUNLAD_clean_linker_1, # of connection points: 2
#     Edge 45, Type (0, 1), BuildingBlock: FUNLAD_clean_linker_1, # of connection points: 2
#     Edge 46, Type (0, 1), BuildingBlock: FUNLAD_clean_linker_1, # of connection points: 2
#     Edge 47, Type (0, 1), BuildingBlock: FUNLAD_clean_linker_1, # of connection points: 2
#     Edge 48, Type (0, 1), BuildingBlock: FUNLAD_clean_linker_1, # of connection points: 2
#     Edge 49, Type (0, 1), BuildingBlock: FUNLAD_clean_linker_1, # of connection points: 2
#     Edge 50, Type (0, 1), BuildingBlock: FUNLAD_clean_linker_1, # of connection points: 2
#     Edge 51, Type (0, 1), BuildingBlock: FUNLAD_clean_linker_1, # of connection points: 2
#     Edge 52, Type (0, 1), BuildingBlock: FUNLAD_clean_linker_1, # of connection points: 2
#     Edge 53, Type (0, 1), BuildingBlock: FUNLAD_clean_linker_1, # of connection points: 2
#     Edge 54, Type (0, 1), BuildingBlock: FUNLAD_clean_linker_1, # of connection points: 2
#     Edge 55, Type (0, 1), BuildingBlock: FUNLAD_clean_linker_1, # of connection points: 2
#     Edge 56, Type (0, 1), BuildingBlock: FUNLAD_clean_linker_1, # of connection points: 2
#     Edge 57, Type (0, 1), BuildingBlock: FUNLAD_clean_linker_1, # of connection points: 2
#     Edge 58, Type (0, 1), BuildingBlock: FUNLAD_clean_linker_1, # of connection points: 2
#     Edge 59, Type (0, 1), BuildingBlock: FUNLAD_clean_linker_1, # of connection points: 2
#     Edge 60, Type (0, 1), BuildingBlock: FUNLAD_clean_linker_1, # of connection points: 2
#     Edge 61, Type (0, 1), BuildingBlock: FUNLAD_clean_linker_1, # of connection points: 2
#     Edge 62, Type (0, 1), BuildingBlock: FUNLAD_clean_linker_1, # of connection points: 2
#     Edge 63, Type (0, 1), BuildingBlock: FUNLAD_clean_linker_1, # of connection points: 2
#     Edge 64, Type (0, 1), BuildingBlock: FUNLAD_clean_linker_1, # of connection points: 2
#     Edge 65, Type (0, 1), BuildingBlock: FUNLAD_clean_linker_1, # of connection points: 2
#     Edge 66, Type (0, 1), BuildingBlock: FUNLAD_clean_linker_1, # of connection points: 2
#     Edge 67, Type (0, 1), BuildingBlock: FUNLAD_clean_linker_1, # of connection points: 2
#     Edge 68, Type (0, 1), BuildingBlock: FUNLAD_clean_linker_1, # of connection points: 2
#     Edge 69, Type (0, 1), BuildingBlock: FUNLAD_clean_linker_1, # of connection points: 2
#     Edge 70, Type (0, 1), BuildingBlock: FUNLAD_clean_linker_1, # of connection points: 2
#     Edge 71, Type (0, 1), BuildingBlock: FUNLAD_clean_linker_1, # of connection points: 2
#     Edge 72, Type (0, 1), BuildingBlock: FUNLAD_clean_linker_1, # of connection points: 2
#     Edge 73, Type (0, 1), BuildingBlock: FUNLAD_clean_linker_1, # of connection points: 2
#     Edge 74, Type (0, 1), BuildingBlock: FUNLAD_clean_linker_1, # of connection points: 2
#     Edge 75, Type (0, 1), BuildingBlock: FUNLAD_clean_linker_1, # of connection points: 2
#     Edge 76, Type (0, 1), BuildingBlock: FUNLAD_clean_linker_1, # of connection points: 2
#     Edge 77, Type (0, 1), BuildingBlock: FUNLAD_clean_linker_1, # of connection points: 2
#     Edge 78, Type (0, 1), BuildingBlock: FUNLAD_clean_linker_1, # of connection points: 2
#     Edge 79, Type (0, 1), BuildingBlock: FUNLAD_clean_linker_1, # of connection points: 2
#     Edge 80, Type (0, 1), BuildingBlock: FUNLAD_clean_linker_1, # of connection points: 2
#     Edge 81, Type (0, 1), BuildingBlock: FUNLAD_clean_linker_1, # of connection points: 2
#     Edge 82, Type (0, 1), BuildingBlock: FUNLAD_clean_linker_1, # of connection points: 2
#     Edge 83, Type (0, 1), BuildingBlock: FUNLAD_clean_linker_1, # of connection points: 2
#     Edge 84, Type (0, 1), BuildingBlock: FUNLAD_clean_linker_1, # of connection points: 2
#     Edge 85, Type (0, 1), BuildingBlock: FUNLAD_clean_linker_1, # of connection points: 2
#     Edge 86, Type (0, 1), BuildingBlock: FUNLAD_clean_linker_1, # of connection points: 2
#     Edge 87, Type (0, 1), BuildingBlock: FUNLAD_clean_linker_1, # of connection points: 2
#     Edge 88, Type (0, 1), BuildingBlock: FUNLAD_clean_linker_1, # of connection points: 2
#     Edge 89, Type (0, 1), BuildingBlock: FUNLAD_clean_linker_1, # of connection points: 2
#     Edge 90, Type (0, 1), BuildingBlock: FUNLAD_clean_linker_1, # of connection points: 2
#     Edge 91, Type (0, 1), BuildingBlock: FUNLAD_clean_linker_1, # of connection points: 2
#     Edge 92, Type (0, 1), BuildingBlock: FUNLAD_clean_linker_1, # of connection points: 2
#     Edge 93, Type (0, 1), BuildingBlock: FUNLAD_clean_linker_1, # of connection points: 2
#     Edge 94, Type (0, 1), BuildingBlock: FUNLAD_clean_linker_1, # of connection points: 2
#     Edge 95, Type (0, 1), BuildingBlock: FUNLAD_clean_linker_1, # of connection points: 2
#     Edge 96, Type (0, 1), BuildingBlock: FUNLAD_clean_linker_1, # of connection points: 2
#     Edge 97, Type (0, 1), BuildingBlock: FUNLAD_clean_linker_1, # of connection points: 2
#     Edge 98, Type (0, 1), BuildingBlock: FUNLAD_clean_linker_1, # of connection points: 2
#     Edge 99, Type (0, 1), BuildingBlock: FUNLAD_clean_linker_1, # of connection points: 2
#     Edge 100, Type (0, 1), BuildingBlock: FUNLAD_clean_linker_1, # of connection points: 2
#     Edge 101, Type (0, 1), BuildingBlock: FUNLAD_clean_linker_1, # of connection points: 2
#     Edge 102, Type (0, 1), BuildingBlock: FUNLAD_clean_linker_1, # of connection points: 2
#     Edge 103, Type (0, 1), BuildingBlock: FUNLAD_clean_linker_1, # of connection points: 2
#     Edge 104, Type (0, 1), BuildingBlock: FUNLAD_clean_linker_1, # of connection points: 2
#     Edge 105, Type (0, 1), BuildingBlock: FUNLAD_clean_linker_1, # of connection points: 2
#     Edge 106, Type (0, 1), BuildingBlock: FUNLAD_clean_linker_1, # of connection points: 2
#     Edge 107, Type (0, 1), BuildingBlock: FUNLAD_clean_linker_1, # of connection points: 2
# Relax obj value: 0.122
# Max RMSD: 0.324
# Mean RMSD: 0.192
data_MOF--net-ptr--node1-AZAVOO_clean_sbu_0--node2-AZAVOO_clean_linker_0--edge1-FUNLAD_clean_linker_1
_symmetry_space_group_name_H-M    P1
_symmetry_Int_Tables_number       1
_symmetry_cell_setting            triclinic
loop_
_symmetry_equiv_pos_as_xyz
'x, y, z'
_cell_length_a     85.687073
_cell_length_b     83.202333
_cell_length_c     69.325463
_cell_angle_alpha  93.524029
_cell_angle_beta   93.502242
_cell_angle_gamma 120.11527
loop_
_atom_site_label
_atom_site_type_symbol
_atom_site_fract_x
_atom_site_fract_y
_atom_site_fract_z
_atom_type_partial_charge
Mg0 Mg 0.02874 0.36248 0.99985 0.0
O1 O 0.01474 0.37238 0.02072 0.0
O2 O 0.99377 0.3756 0.00336 0.0
Mg3 Mg 0.99439 0.36768 0.97129 0.0
C4 C 0.00232 0.3766 0.01956 0.0
C5 C 0.04175 0.34042 0.02551 0.0
O6 O 0.03422 0.3279 0.01026 0.0
O7 O 0.00398 0.33305 0.99536 0.0
O8 O 0.98431 0.33705 0.97652 0.0
O9 O 0.04874 0.39223 0.99655 0.0
O10 O 0.0229 0.37515 0.97768 0.0
C11 C 0.98869 0.32658 0.98531 0.0
C12 C 0.03732 0.39115 0.9827 0.0
O13 O 0.04144 0.35553 0.0256 0.0
Mg14 Mg 0.65251 0.6385 0.09253 0.0
O15 O 0.63333 0.63089 0.06476 0.0
O16 O 0.6076 0.62917 0.0724 0.0
Mg17 Mg 0.61044 0.63541 0.1056 0.0
C18 C 0.61747 0.62802 0.05993 0.0
C19 C 0.685 0.63765 0.07525 0.0
O20 O 0.68126 0.62501 0.0874 0.0
O21 O 0.65867 0.66847 0.09457 0.0
O22 O 0.63324 0.66594 0.10452 0.0
O23 O 0.64035 0.60823 0.09649 0.0
O24 O 0.63056 0.62637 0.1087 0.0
C25 C 0.64948 0.67576 0.10018 0.0
C26 C 0.62867 0.61004 0.106 0.0
O27 O 0.67568 0.64561 0.07409 0.0
Mg28 Mg 0.36771 0.97668 0.99891 0.0
O29 O 0.38972 0.99148 0.02461 0.0
O30 O 0.41464 0.01444 0.01419 0.0
Mg31 Mg 0.40844 0.01391 0.98146 0.0
C32 C 0.40608 0.00501 0.0277 0.0
C33 C 0.3308 0.96057 0.01527 0.0
O34 O 0.32693 0.96425 0.99807 0.0
O35 O 0.363 0.00117 0.99898 0.0
O36 O 0.38767 0.02312 0.98712 0.0
O37 O 0.37795 0.95721 0.99226 0.0
O38 O 0.38729 0.98406 0.97983 0.0
C39 C 0.37226 0.01742 0.99353 0.0
C40 C 0.38866 0.96947 0.9815 0.0
O41 O 0.34665 0.96353 0.02004 0.0
Mg42 Mg 0.99172 0.65114 0.06979 0.0
O43 O 0.00421 0.64196 0.04617 0.0
O44 O 0.02594 0.63802 0.06059 0.0
Mg45 Mg 0.02805 0.64566 0.09328 0.0
C46 C 0.01638 0.63744 0.04541 0.0
C47 C 0.9612 0.65163 0.04199 0.0
O48 O 0.95039 0.63717 0.05088 0.0
O49 O 0.01617 0.6807 0.07459 0.0
O50 O 0.03757 0.67642 0.08936 0.0
O51 O 0.97258 0.62087 0.07303 0.0
O52 O 0.99942 0.63833 0.09001 0.0
C53 C 0.03225 0.68703 0.08261 0.0
C54 C 0.98513 0.62222 0.08559 0.0
O55 O 0.97824 0.6598 0.04641 0.0
Mg56 Mg 0.35207 0.3751 0.98562 0.0
O57 O 0.37389 0.38215 0.01073 0.0
O58 O 0.39912 0.38675 0.9983 0.0
Mg59 Mg 0.39325 0.38276 0.96506 0.0
C60 C 0.39036 0.38609 0.01279 0.0
C61 C 0.31417 0.35869 1.0002 0.0
O62 O 0.31004 0.3587 0.98166 0.0
O63 O 0.34779 0.34597 0.97952 0.0
O64 O 0.37239 0.35135 0.96512 0.0
O65 O 0.36177 0.40541 0.98516 0.0
O66 O 0.37198 0.39008 0.96779 0.0
C67 C 0.35704 0.34019 0.97088 0.0
C68 C 0.37301 0.40568 0.97335 0.0
O69 O 0.33058 0.36479 0.00663 0.0
Mg70 Mg 0.63082 0.01603 0.0639 0.0
O71 O 0.60848 0.00306 0.03836 0.0
O72 O 0.58452 0.97778 0.0472 0.0
Mg73 Mg 0.59197 0.97429 0.0784 0.0
C74 C 0.59235 0.98916 0.03474 0.0
C75 C 0.66718 0.03677 0.04679 0.0
O76 O 0.67149 0.03052 0.06198 0.0
O77 O 0.63762 0.99317 0.05837 0.0
O78 O 0.61422 0.96852 0.06898 0.0
O79 O 0.6187 0.03251 0.07593 0.0
O80 O 0.61189 0.00445 0.08356 0.0
C81 C 0.62952 0.97617 0.06203 0.0
C82 C 0.60918 0.01827 0.0853 0.0
O83 O 0.6511 0.03365 0.04357 0.0
Mg84 Mg 0.68051 0.69409 0.32628 0.0
O85 O 0.66987 0.70451 0.35078 0.0
O86 O 0.64771 0.70871 0.3381 0.0
Mg87 Mg 0.64378 0.70041 0.30528 0.0
C88 C 0.65799 0.70931 0.3526 0.0
C89 C 0.69488 0.6715 0.35031 0.0
O90 O 0.68374 0.6573 0.33756 0.0
O91 O 0.65542 0.66479 0.32376 0.0
O92 O 0.63411 0.66982 0.31002 0.0
O93 O 0.69974 0.72379 0.32128 0.0
O94 O 0.67198 0.70656 0.30628 0.0
C95 C 0.63916 0.65893 0.31652 0.0
C96 C 0.68674 0.72246 0.30946 0.0
O97 O 0.69617 0.68732 0.34923 0.0
Mg98 Mg 0.31551 0.96692 0.42724 0.0
O99 O 0.29481 0.96056 0.40115 0.0
O100 O 0.26821 0.95365 0.41166 0.0
Mg101 Mg 0.27235 0.95636 0.44497 0.0
C102 C 0.27817 0.95582 0.39795 0.0
C103 C 0.35396 0.99141 0.4134 0.0
O104 O 0.35752 0.99919 0.43139 0.0
O105 O 0.31877 0.9956 0.4345 0.0
O106 O 0.29237 0.98802 0.44611 0.0
O107 O 0.30605 0.93652 0.42608 0.0
O108 O 0.29475 0.95062 0.44364 0.0
C109 C 0.30809 0.00014 0.44203 0.0
C110 C 0.29423 0.93542 0.43749 0.0
O111 O 0.33802 0.97821 0.40738 0.0
Mg112 Mg 0.0407 0.32227 0.3376 0.0
O113 O 0.06453 0.3348 0.36148 0.0
O114 O 0.09049 0.34927 0.34785 0.0
Mg115 Mg 0.08296 0.34702 0.31512 0.0
C116 C 0.08183 0.34411 0.36272 0.0
C117 C 0.00439 0.3078 0.35499 0.0
O118 O 0.99882 0.30223 0.33644 0.0
O119 O 0.04427 0.35087 0.33474 0.0
O120 O 0.06963 0.36496 0.31994 0.0
O121 O 0.04243 0.29638 0.33315 0.0
O122 O 0.05704 0.32123 0.31732 0.0
C123 C 0.05618 0.36486 0.32707 0.0
C124 C 0.05379 0.30485 0.32071 0.0
O125 O 0.02127 0.31676 0.3605 0.0
Mg126 Mg 0.64547 0.97577 0.40133 0.0
O127 O 0.65905 0.96595 0.37965 0.0
O128 O 0.67823 0.95983 0.39653 0.0
Mg129 Mg 0.67742 0.96627 0.42883 0.0
C130 C 0.67063 0.96057 0.38045 0.0
C131 C 0.63023 0.99787 0.38017 0.0
O132 O 0.6337 0.00606 0.39796 0.0
O133 O 0.6713 0.00445 0.40755 0.0
O134 O 0.68964 0.99742 0.4248 0.0
O135 O 0.62405 0.94608 0.40293 0.0
O136 O 0.64971 0.96107 0.42238 0.0
C137 C 0.68645 0.00921 0.4172 0.0
C138 C 0.63477 0.94575 0.41667 0.0
O139 O 0.63406 0.98514 0.37656 0.0
Mg140 Mg 0.03412 0.71357 0.32447 0.0
O141 O 0.05769 0.71899 0.34659 0.0
O142 O 0.0809 0.72301 0.33026 0.0
Mg143 Mg 0.07216 0.72071 0.29774 0.0
C144 C 0.07389 0.72221 0.34615 0.0
C145 C 0.00329 0.70872 0.34812 0.0
O146 O 0.00388 0.72053 0.33604 0.0
O147 O 0.0283 0.68418 0.31542 0.0
O148 O 0.05094 0.68939 0.29752 0.0
O149 O 0.0448 0.74426 0.32627 0.0
O150 O 0.05223 0.72883 0.30515 0.0
C151 C 0.03625 0.6783 0.30452 0.0
C152 C 0.05443 0.74452 0.31249 0.0
O153 O 0.01452 0.70304 0.34749 0.0
Mg154 Mg 0.30456 0.37226 0.39903 0.0
O155 O 0.28193 0.35386 0.3749 0.0
O156 O 0.25879 0.33065 0.3875 0.0
Mg157 Mg 0.26739 0.33401 0.42021 0.0
C158 C 0.26612 0.33939 0.37308 0.0
C159 C 0.33976 0.3889 0.3787 0.0
O160 O 0.34528 0.38516 0.39503 0.0
O161 O 0.31266 0.35019 0.40013 0.0
O162 O 0.29019 0.32778 0.41432 0.0
O163 O 0.29122 0.38909 0.4048 0.0
O164 O 0.28601 0.36423 0.41944 0.0
C165 C 0.30531 0.33446 0.407 0.0
C166 C 0.28232 0.37719 0.41681 0.0
O167 O 0.32364 0.38575 0.37602 0.0
Mg168 Mg 0.35422 0.02817 0.6651 0.0
O169 O 0.3407 0.03932 0.68555 0.0
O170 O 0.32158 0.04438 0.66698 0.0
Mg171 Mg 0.3225 0.03637 0.63519 0.0
C172 C 0.32908 0.04463 0.68355 0.0
C173 C 0.3832 0.02743 0.69203 0.0
O174 O 0.39214 0.03819 0.67885 0.0
O175 O 0.32826 0.99936 0.66006 0.0
O176 O 0.31029 0.00573 0.6412 0.0
O177 O 0.37566 0.05758 0.66215 0.0
O178 O 0.35011 0.0418 0.64267 0.0
C179 C 0.31323 0.9943 0.64996 0.0
C180 C 0.36501 0.05728 0.64792 0.0
O181 O 0.36605 0.02018 0.6909 0.0
Mg182 Mg 0.96916 0.29568 0.74856 0.0
O183 O 0.95084 0.28629 0.71968 0.0
O184 O 0.92334 0.28073 0.72583 0.0
Mg185 Mg 0.92393 0.28617 0.75872 0.0
C186 C 0.93446 0.28137 0.71402 0.0
C187 C 0.00375 0.29821 0.73398 0.0
O188 O 0.99953 0.28533 0.74593 0.0
O189 O 0.9716 0.32433 0.75036 0.0
O190 O 0.94407 0.31755 0.75803 0.0
O191 O 0.96007 0.2659 0.75292 0.0
O192 O 0.94661 0.28105 0.76335 0.0
C193 C 0.96026 0.32928 0.75484 0.0
C194 C 0.94696 0.26579 0.76139 0.0
O195 O 0.99395 0.30558 0.73184 0.0
Mg196 Mg 0.70025 0.64627 0.67208 0.0
O197 O 0.72253 0.65714 0.69742 0.0
O198 O 0.74846 0.67957 0.68813 0.0
Mg199 Mg 0.74291 0.68136 0.65572 0.0
C200 C 0.73928 0.66952 0.70099 0.0
C201 C 0.66242 0.62632 0.68809 0.0
O202 O 0.65683 0.62526 0.66974 0.0
O203 O 0.69945 0.67311 0.67522 0.0
O204 O 0.72448 0.69336 0.6625 0.0
O205 O 0.70602 0.62401 0.66157 0.0
O206 O 0.71933 0.65257 0.65252 0.0
C207 C 0.70969 0.68915 0.66975 0.0
C208 C 0.71779 0.63633 0.65164 0.0
O209 O 0.67925 0.63376 0.69338 0.0
Mg210 Mg 0.31528 0.31076 0.73462 0.0
O211 O 0.32867 0.30168 0.71202 0.0
O212 O 0.34886 0.29651 0.72823 0.0
Mg213 Mg 0.34816 0.30189 0.76088 0.0
C214 C 0.3407 0.2969 0.71237 0.0
C215 C 0.2907 0.3109 0.69885 0.0
O216 O 0.28327 0.2927 0.69863 0.0
O217 O 0.34073 0.33947 0.74127 0.0
O218 O 0.35939 0.33333 0.75911 0.0
O219 O 0.29416 0.28078 0.73561 0.0
O220 O 0.32005 0.29566 0.75467 0.0
C221 C 0.35567 0.34483 0.75159 0.0
C222 C 0.30524 0.28029 0.74879 0.0
O223 O 0.30402 0.32163 0.71134 0.0
Mg224 Mg 0.70606 0.04239 0.65182 0.0
O225 O 0.72899 0.04921 0.6756 0.0
O226 O 0.75241 0.05062 0.66159 0.0
Mg227 Mg 0.74448 0.04498 0.62868 0.0
C228 C 0.745 0.05171 0.67664 0.0
C229 C 0.67115 0.03418 0.67059 0.0
O230 O 0.6666 0.03594 0.65273 0.0
O231 O 0.69906 0.01205 0.64699 0.0
O232 O 0.72251 0.01471 0.6319 0.0
O233 O 0.71776 0.07284 0.64879 0.0
O234 O 0.72479 0.05431 0.63198 0.0
C235 C 0.7073 0.00485 0.63856 0.0
C236 C 0.72735 0.07077 0.6362 0.0
O237 O 0.68655 0.03589 0.67492 0.0
Mg238 Mg 0.96569 0.68961 0.73007 0.0
O239 O 0.94636 0.68041 0.70207 0.0
O240 O 0.91843 0.65995 0.70893 0.0
Mg241 Mg 0.91995 0.6566 0.74145 0.0
C242 C 0.92947 0.66938 0.69696 0.0
C243 C 0.00529 0.70616 0.72144 0.0
O244 O 0.00663 0.7044 0.74006 0.0
O245 O 0.96436 0.66169 0.72822 0.0
O246 O 0.93694 0.6424 0.73727 0.0
O247 O 0.96055 0.71291 0.73807 0.0
O248 O 0.94476 0.68434 0.74671 0.0
C249 C 0.95229 0.64564 0.73228 0.0
C250 C 0.94732 0.70097 0.74691 0.0
O251 O 0.98992 0.70152 0.71269 0.0
H252 H 0.17464 0.33513 0.03959 0.0
H253 H 0.27299 0.30058 0.20586 0.0
H254 H 0.1574 0.3323 0.1421 0.0
H255 H 0.13315 0.33327 0.12316 0.0
H256 H 0.09971 0.27318 0.12102 0.0
H257 H 0.12451 0.27242 0.13997 0.0
H258 H 0.19082 0.33747 0.12325 0.0
H259 H 0.18789 0.34204 0.08898 0.0
H260 H 0.14793 0.2833 0.07605 0.0
H261 H 0.15116 0.2789 0.11035 0.0
H262 H 0.22127 0.33899 0.15157 0.0
H263 H 0.24571 0.34751 0.13066 0.0
H264 H 0.21504 0.29257 0.09865 0.0
H265 H 0.19074 0.28432 0.11952 0.0
H266 H 0.21611 0.33297 0.19493 0.0
H267 H 0.24423 0.33635 0.21029 0.0
H268 H 0.23212 0.28459 0.17789 0.0
H269 H 0.20394 0.28128 0.16281 0.0
H270 H 0.17725 0.3254 0.20895 0.0
H271 H 0.18358 0.32614 0.24401 0.0
H272 H 0.18877 0.27736 0.23423 0.0
H273 H 0.18159 0.27614 0.19918 0.0
H274 H 0.14747 0.3228 0.18072 0.0
H275 H 0.12532 0.31845 0.20352 0.0
H276 H 0.11802 0.26426 0.21254 0.0
H277 H 0.13989 0.26854 0.18937 0.0
O278 O 0.17568 0.33298 0.05306 0.0
O279 O 0.1552 0.30269 0.04717 0.0
O280 O 0.2675 0.32607 0.21639 0.0
O281 O 0.26196 0.29959 0.2 0.0
C282 C 0.15863 0.3019 0.15144 0.0
C283 C 0.1729 0.30519 0.14012 0.0
C284 C 0.18893 0.30654 0.14874 0.0
C285 C 0.19077 0.30468 0.16873 0.0
C286 C 0.17643 0.30122 0.18009 0.0
C287 C 0.16022 0.29955 0.17134 0.0
C288 C 0.14267 0.30232 0.14248 0.0
C289 C 0.14467 0.31939 0.13793 0.0
C290 C 0.13065 0.31989 0.1272 0.0
C291 C 0.11423 0.30326 0.12085 0.0
C292 C 0.11212 0.2862 0.12588 0.0
C293 C 0.12619 0.28574 0.13673 0.0
C294 C 0.17126 0.30785 0.11924 0.0
C295 C 0.18154 0.3256 0.11296 0.0
C296 C 0.17979 0.32817 0.09339 0.0
C297 C 0.16766 0.31303 0.07977 0.0
C298 C 0.15739 0.29525 0.08616 0.0
C299 C 0.15919 0.2927 0.10573 0.0
C300 C 0.20424 0.31108 0.13697 0.0
C301 C 0.21995 0.32878 0.14012 0.0
C302 C 0.23383 0.33362 0.12815 0.0
C303 C 0.23216 0.32095 0.1127 0.0
C304 C 0.21661 0.30296 0.10998 0.0
C305 C 0.20274 0.29811 0.12201 0.0
C306 C 0.20797 0.30684 0.17783 0.0
C307 C 0.21954 0.32235 0.19123 0.0
C308 C 0.2356 0.32426 0.19994 0.0
C309 C 0.24042 0.31072 0.19533 0.0
C310 C 0.22882 0.29526 0.18178 0.0
C311 C 0.21274 0.29335 0.17312 0.0
C312 C 0.17899 0.30073 0.20146 0.0
C313 C 0.17936 0.31462 0.21438 0.0
C314 C 0.18304 0.31509 0.23436 0.0
C315 C 0.18698 0.30205 0.24174 0.0
C316 C 0.18615 0.28783 0.22888 0.0
C317 C 0.18202 0.28709 0.20889 0.0
C318 C 0.14525 0.29596 0.18333 0.0
C319 C 0.14076 0.3098 0.18724 0.0
C320 C 0.12824 0.30736 0.20037 0.0
C321 C 0.1203 0.29125 0.21014 0.0
C322 C 0.12428 0.27707 0.20566 0.0
C323 C 0.13663 0.2794 0.1923 0.0
C324 C 0.16576 0.31584 0.05901 0.0
C325 C 0.25745 0.31266 0.20458 0.0
H326 H 0.67136 0.8402 0.05868 0.0
H327 H 0.73853 0.00323 0.21377 0.0
H328 H 0.67002 0.83809 0.16653 0.0
H329 H 0.65996 0.80557 0.15535 0.0
H330 H 0.71536 0.81773 0.16455 0.0
H331 H 0.72527 0.85031 0.17572 0.0
H332 H 0.67411 0.86775 0.13924 0.0
H333 H 0.66799 0.85579 0.10482 0.0
H334 H 0.72028 0.85951 0.1073 0.0
H335 H 0.7263 0.87165 0.14166 0.0
H336 H 0.68077 0.90398 0.16386 0.0
H337 H 0.67692 0.92145 0.13907 0.0
H338 H 0.72603 0.92981 0.11623 0.0
H339 H 0.73012 0.91268 0.14188 0.0
H340 H 0.68694 0.91029 0.20708 0.0
H341 H 0.69151 0.94116 0.21731 0.0
H342 H 0.74391 0.96697 0.19513 0.0
H343 H 0.73926 0.936 0.18521 0.0
H344 H 0.68269 0.87459 0.22652 0.0
H345 H 0.68161 0.88549 0.25951 0.0
H346 H 0.73689 0.93098 0.26066 0.0
H347 H 0.73805 0.91941 0.22762 0.0
H348 H 0.67931 0.84091 0.2089 0.0
H349 H 0.68102 0.82025 0.23127 0.0
H350 H 0.73904 0.8576 0.24271 0.0
H351 H 0.73714 0.87803 0.21982 0.0
O352 O 0.67409 0.84504 0.07228 0.0
O353 O 0.70105 0.84707 0.07436 0.0
O354 O 0.70945 0.97689 0.2213 0.0
O355 O 0.73638 0.99085 0.20989 0.0
C356 C 0.70408 0.8662 0.17796 0.0
C357 C 0.70433 0.87779 0.1638 0.0
C358 C 0.70739 0.8958 0.16958 0.0
C359 C 0.71016 0.90218 0.18956 0.0
C360 C 0.70997 0.89057 0.20376 0.0
C361 C 0.70731 0.87272 0.19791 0.0
C362 C 0.69835 0.84649 0.1718 0.0
C363 C 0.67996 0.8337 0.16609 0.0
C364 C 0.67426 0.81518 0.15973 0.0
C365 C 0.68687 0.80919 0.15867 0.0
C366 C 0.70534 0.82201 0.16467 0.0
C367 C 0.71102 0.84056 0.17124 0.0
C368 C 0.70069 0.87068 0.14287 0.0
C369 C 0.68427 0.86608 0.13227 0.0
C370 C 0.68079 0.8592 0.11264 0.0
C371 C 0.69366 0.85671 0.1033 0.0
C372 C 0.71009 0.86128 0.11403 0.0
C373 C 0.71356 0.8682 0.13365 0.0
C374 C 0.70573 0.90711 0.1547 0.0
C375 C 0.69076 0.90967 0.15358 0.0
C376 C 0.68842 0.91939 0.13909 0.0
C377 C 0.70089 0.9265 0.12516 0.0
C378 C 0.71609 0.92424 0.12658 0.0
C379 C 0.71846 0.91454 0.14119 0.0
C380 C 0.71284 0.92093 0.19556 0.0
C381 C 0.69944 0.92263 0.20455 0.0
C382 C 0.70206 0.94028 0.21033 0.0
C383 C 0.7181 0.95655 0.20707 0.0
C384 C 0.73142 0.95474 0.19789 0.0
C385 C 0.7288 0.93708 0.19218 0.0
C386 C 0.71042 0.89623 0.22463 0.0
C387 C 0.69468 0.88673 0.234 0.0
C388 C 0.694 0.89323 0.25278 0.0
C389 C 0.70901 0.90957 0.26248 0.0
C390 C 0.72507 0.91851 0.25343 0.0
C391 C 0.72576 0.91193 0.23461 0.0
C392 C 0.70811 0.8609 0.21268 0.0
C393 C 0.69235 0.84468 0.21637 0.0
C394 C 0.69338 0.833 0.22941 0.0
C395 C 0.71022 0.83745 0.23912 0.0
C396 C 0.72589 0.85389 0.23557 0.0
C397 C 0.72484 0.86556 0.22254 0.0
C398 C 0.68989 0.84933 0.08246 0.0
C399 C 0.72097 0.97533 0.21321 0.0
H400 H 0.18013 0.85814 0.04928 0.0
H401 H 0.30413 0.98092 0.22437 0.0
H402 H 0.15272 0.86768 0.1412 0.0
H403 H 0.12807 0.83887 0.12295 0.0
H404 H 0.13873 0.80622 0.16192 0.0
H405 H 0.16421 0.83488 0.17921 0.0
H406 H 0.18888 0.89648 0.12622 0.0
H407 H 0.18522 0.88493 0.09197 0.0
H408 H 0.18501 0.8357 0.10907 0.0
H409 H 0.18891 0.84754 0.14327 0.0
H410 H 0.22248 0.92925 0.15044 0.0
H411 H 0.24696 0.94182 0.12939 0.0
H412 H 0.25203 0.89288 0.133 0.0
H413 H 0.22779 0.88068 0.15432 0.0
H414 H 0.215 0.93665 0.19737 0.0
H415 H 0.24303 0.96511 0.2108 0.0
H416 H 0.27252 0.93577 0.20498 0.0
H417 H 0.24437 0.90737 0.19178 0.0
H418 H 0.18061 0.90751 0.22026 0.0
H419 H 0.1879 0.91814 0.25527 0.0
H420 H 0.2288 0.90219 0.25761 0.0
H421 H 0.22155 0.89185 0.22301 0.0
H422 H 0.14543 0.86956 0.19011 0.0
H423 H 0.12259 0.84939 0.2108 0.0
H424 H 0.16226 0.83934 0.24035 0.0
H425 H 0.18463 0.85878 0.21933 0.0
O426 O 0.18162 0.86247 0.06292 0.0
O427 O 0.18141 0.83733 0.07247 0.0
O428 O 0.27703 0.98428 0.22189 0.0
O429 O 0.29284 0.96986 0.21911 0.0
C430 C 0.17743 0.87062 0.17006 0.0
C431 C 0.19142 0.87999 0.15801 0.0
C432 C 0.20802 0.89583 0.16584 0.0
C433 C 0.21056 0.90278 0.18553 0.0
C434 C 0.19692 0.89314 0.19781 0.0
C435 C 0.18038 0.87695 0.19014 0.0
C436 C 0.16033 0.85346 0.16159 0.0
C437 C 0.1496 0.85433 0.14596 0.0
C438 C 0.13556 0.83794 0.13558 0.0
C439 C 0.13149 0.82048 0.1412 0.0
C440 C 0.14146 0.81959 0.15754 0.0
C441 C 0.15594 0.83595 0.16748 0.0
C442 C 0.18907 0.87281 0.13721 0.0
C443 C 0.18808 0.88323 0.12253 0.0
C444 C 0.18596 0.87658 0.10298 0.0
C445 C 0.18478 0.85937 0.09778 0.0
C446 C 0.18583 0.84899 0.11257 0.0
C447 C 0.18801 0.85569 0.13211 0.0
C448 C 0.2233 0.90401 0.1537 0.0
C449 C 0.22896 0.92133 0.14667 0.0
C450 C 0.24284 0.92837 0.13448 0.0
C451 C 0.25118 0.91808 0.12913 0.0
C452 C 0.24577 0.90102 0.13674 0.0
C453 C 0.23193 0.89402 0.14886 0.0
C454 C 0.22769 0.92002 0.19346 0.0
C455 C 0.22754 0.93643 0.199 0.0
C456 C 0.24356 0.95265 0.20666 0.0
C457 C 0.26004 0.95273 0.20892 0.0
C458 C 0.2601 0.93622 0.20338 0.0
C459 C 0.24406 0.92 0.19576 0.0
C460 C 0.20078 0.89922 0.21904 0.0
C461 C 0.19119 0.90643 0.2284 0.0
C462 C 0.19538 0.91251 0.24832 0.0
C463 C 0.20932 0.91163 0.2591 0.0
C464 C 0.21853 0.90388 0.2497 0.0
C465 C 0.2143 0.89779 0.2299 0.0
C466 C 0.16678 0.86587 0.20339 0.0
C467 C 0.14919 0.86312 0.20118 0.0
C468 C 0.13622 0.85168 0.213 0.0
C469 C 0.14079 0.84323 0.22748 0.0
C470 C 0.15848 0.84618 0.22978 0.0
C471 C 0.17128 0.85726 0.21774 0.0
C472 C 0.1825 0.85233 0.077 0.0
C473 C 0.2771 0.96993 0.21703 0.0
H474 H 0.30674 0.18325 0.00338 0.0
H475 H 0.335 0.04336 0.88189 0.0
H476 H 0.29204 0.16554 0.9016 0.0
H477 H 0.29628 0.19657 0.90998 0.0
H478 H 0.34921 0.22168 0.88908 0.0
H479 H 0.34486 0.19062 0.88088 0.0
H480 H 0.29277 0.13645 0.93057 0.0
H481 H 0.29374 0.15176 0.96229 0.0
H482 H 0.34729 0.19734 0.95533 0.0
H483 H 0.34626 0.18175 0.92378 0.0
H484 H 0.29586 0.09932 0.91678 0.0
H485 H 0.30323 0.08437 0.94226 0.0
H486 H 0.35677 0.13328 0.95432 0.0
H487 H 0.34929 0.14807 0.92879 0.0
H488 H 0.29111 0.08993 0.86942 0.0
H489 H 0.29133 0.06061 0.86614 0.0
H490 H 0.34713 0.08973 0.89184 0.0
H491 H 0.34678 0.11902 0.8948 0.0
H492 H 0.2918 0.11384 0.83679 0.0
H493 H 0.29555 0.10079 0.80597 0.0
H494 H 0.35209 0.12244 0.82563 0.0
H495 H 0.34819 0.13561 0.85622 0.0
H496 H 0.28616 0.14847 0.85472 0.0
H497 H 0.28354 0.16575 0.82906 0.0
H498 H 0.34001 0.18706 0.8206 0.0
H499 H 0.34219 0.16907 0.84623 0.0
O500 O 0.30676 0.17729 0.99095 0.0
O501 O 0.33416 0.20048 0.98652 0.0
O502 O 0.3058 0.04047 0.87017 0.0
O503 O 0.33461 0.0548 0.88286 0.0
C504 C 0.317 0.15739 0.88846 0.0
C505 C 0.31837 0.1491 0.90521 0.0
C506 C 0.31899 0.13246 0.90327 0.0
C507 C 0.31844 0.1242 0.88459 0.0
C508 C 0.31751 0.13273 0.86789 0.0
C509 C 0.31631 0.14904 0.86979 0.0
C510 C 0.31816 0.17584 0.89071 0.0
C511 C 0.30444 0.17777 0.89863 0.0
C512 C 0.30701 0.19554 0.90361 0.0
C513 C 0.32338 0.21164 0.90071 0.0
C514 C 0.33655 0.20954 0.89164 0.0
C515 C 0.33404 0.19182 0.88682 0.0
C516 C 0.31939 0.15804 0.92485 0.0
C517 C 0.30475 0.14967 0.936 0.0
C518 C 0.30532 0.15848 0.95408 0.0
C519 C 0.32056 0.17582 0.96131 0.0
C520 C 0.33533 0.18403 0.95017 0.0
C521 C 0.33476 0.17517 0.93214 0.0
C522 C 0.32211 0.12467 0.9208 0.0
C523 C 0.30906 0.10688 0.92515 0.0
C524 C 0.31337 0.09833 0.93961 0.0
C525 C 0.33082 0.1075 0.94989 0.0
C526 C 0.34328 0.12588 0.94653 0.0
C527 C 0.33903 0.13434 0.932 0.0
C528 C 0.31889 0.10656 0.88242 0.0
C529 C 0.30338 0.08995 0.87426 0.0
C530 C 0.30354 0.07322 0.87245 0.0
C531 C 0.31924 0.07281 0.87878 0.0
C532 C 0.33481 0.08954 0.88685 0.0
C533 C 0.33464 0.10628 0.8886 0.0
C534 C 0.3197 0.12555 0.84873 0.0
C535 C 0.30498 0.11577 0.83434 0.0
C536 C 0.30714 0.10815 0.81682 0.0
C537 C 0.3241 0.1102 0.81352 0.0
C538 C 0.33886 0.12048 0.82782 0.0
C539 C 0.33667 0.12801 0.84527 0.0
C540 C 0.31437 0.15762 0.85238 0.0
C541 C 0.29786 0.15665 0.84707 0.0
C542 C 0.29649 0.16678 0.8324 0.0
C543 C 0.31179 0.17835 0.82294 0.0
C544 C 0.32803 0.17843 0.82767 0.0
C545 C 0.32932 0.16815 0.84225 0.0
C546 C 0.32098 0.18532 0.98034 0.0
C547 C 0.31941 0.05503 0.87698 0.0
H548 H 0.83579 0.17397 0.02402 0.0
H549 H 0.72421 0.01101 0.86946 0.0
H550 H 0.83655 0.17367 0.91576 0.0
H551 H 0.86214 0.20487 0.92711 0.0
H552 H 0.89858 0.18318 0.92586 0.0
H553 H 0.87282 0.15198 0.91437 0.0
H554 H 0.8087 0.1467 0.94221 0.0
H555 H 0.81602 0.15939 0.97646 0.0
H556 H 0.85903 0.14651 0.98141 0.0
H557 H 0.85143 0.13368 0.94719 0.0
H558 H 0.77664 0.11275 0.91792 0.0
H559 H 0.75572 0.0988 0.94211 0.0
H560 H 0.79091 0.08113 0.96862 0.0
H561 H 0.81204 0.09558 0.94422 0.0
H562 H 0.77471 0.10395 0.87412 0.0
H563 H 0.74635 0.07493 0.86293 0.0
H564 H 0.76735 0.04352 0.89077 0.0
H565 H 0.79572 0.07264 0.90168 0.0
H566 H 0.80757 0.13564 0.85535 0.0
H567 H 0.79649 0.12533 0.82099 0.0
H568 H 0.8011 0.0763 0.82648 0.0
H569 H 0.81258 0.08705 0.86065 0.0
H570 H 0.8405 0.16797 0.87511 0.0
H571 H 0.86168 0.18498 0.85199 0.0
H572 H 0.87481 0.1412 0.84527 0.0
H573 H 0.85381 0.1245 0.86905 0.0
O574 O 0.83306 0.16879 0.01053 0.0
O575 O 0.85507 0.16196 0.01228 0.0
O576 O 0.72514 0.03948 0.85957 0.0
O577 O 0.73528 0.0227 0.8737 0.0
C578 C 0.83706 0.14179 0.90789 0.0
C579 C 0.82514 0.13167 0.92146 0.0
C580 C 0.8089 0.11474 0.91514 0.0
C581 C 0.80456 0.10795 0.89521 0.0
C582 C 0.81652 0.11809 0.8816 0.0
C583 C 0.83294 0.13483 0.88802 0.0
C584 C 0.85288 0.16062 0.91432 0.0
C585 C 0.85008 0.17569 0.91796 0.0
C586 C 0.86467 0.19344 0.92444 0.0
C587 C 0.88228 0.19641 0.92774 0.0
C588 C 0.88511 0.18128 0.92394 0.0
C589 C 0.87047 0.1635 0.9172 0.0
C590 C 0.82947 0.13918 0.9423 0.0
C591 C 0.81961 0.14652 0.95077 0.0
C592 C 0.82386 0.15381 0.97031 0.0
C593 C 0.83811 0.15395 0.98168 0.0
C594 C 0.84798 0.1466 0.97308 0.0
C595 C 0.84368 0.13928 0.95355 0.0
C596 C 0.79572 0.10499 0.92921 0.0
C597 C 0.77965 0.10558 0.92876 0.0
C598 C 0.76762 0.09744 0.94263 0.0
C599 C 0.77142 0.0884 0.95718 0.0
C600 C 0.78756 0.08784 0.95751 0.0
C601 C 0.7996 0.09603 0.94362 0.0
C602 C 0.78728 0.09036 0.88859 0.0
C603 C 0.77318 0.09077 0.8777 0.0
C604 C 0.75698 0.07419 0.87137 0.0
C605 C 0.75459 0.05689 0.87593 0.0
C606 C 0.76875 0.05658 0.88698 0.0
C607 C 0.78495 0.07318 0.89326 0.0
C608 C 0.81102 0.11217 0.86045 0.0
C609 C 0.80651 0.12286 0.84899 0.0
C610 C 0.8001 0.11689 0.8294 0.0
C611 C 0.79804 0.10011 0.82081 0.0
C612 C 0.80278 0.08948 0.83231 0.0
C613 C 0.80926 0.09553 0.85196 0.0
C614 C 0.84573 0.14509 0.87382 0.0
C615 C 0.84799 0.1621 0.86867 0.0
C616 C 0.85992 0.17164 0.85516 0.0
C617 C 0.86965 0.16417 0.84635 0.0
C618 C 0.86738 0.14717 0.85167 0.0
C619 C 0.85544 0.13765 0.86522 0.0
C620 C 0.84264 0.16178 0.00241 0.0
C621 C 0.73743 0.03922 0.86921 0.0
H622 H 0.86557 0.70103 0.04243 0.0
H623 H 0.72182 0.68815 0.88898 0.0
H624 H 0.87632 0.71888 0.94407 0.0
H625 H 0.89807 0.7115 0.95881 0.0
H626 H 0.86748 0.65569 0.92853 0.0
H627 H 0.84579 0.66346 0.9138 0.0
H628 H 0.84618 0.72035 0.96853 0.0
H629 H 0.85535 0.71747 0.00169 0.0
H630 H 0.83926 0.65993 0.98456 0.0
H631 H 0.82995 0.66295 0.95155 0.0
H632 H 0.80984 0.72099 0.94907 0.0
H633 H 0.7883 0.71601 0.9731 0.0
H634 H 0.77483 0.65843 0.97224 0.0
H635 H 0.7962 0.66354 0.94849 0.0
H636 H 0.81195 0.72786 0.90266 0.0
H637 H 0.78512 0.73018 0.89374 0.0
H638 H 0.75069 0.67221 0.90298 0.0
H639 H 0.77763 0.67005 0.91166 0.0
H640 H 0.84054 0.72694 0.87638 0.0
H641 H 0.83199 0.72736 0.84203 0.0
H642 H 0.78762 0.67046 0.84061 0.0
H643 H 0.79615 0.67034 0.8747 0.0
H644 H 0.87193 0.72528 0.89559 0.0
H645 H 0.88949 0.72564 0.86886 0.0
H646 H 0.84961 0.66782 0.85024 0.0
H647 H 0.83211 0.66767 0.87701 0.0
O648 O 0.86153 0.70177 0.02935 0.0
O649 O 0.85239 0.67205 0.01998 0.0
O650 O 0.75096 0.71734 0.88779 0.0
O651 O 0.73266 0.68762 0.89242 0.0
C652 C 0.84407 0.69466 0.92282 0.0
C653 C 0.83292 0.69406 0.93732 0.0
C654 C 0.81734 0.69528 0.93244 0.0
C655 C 0.81307 0.69751 0.91313 0.0
C656 C 0.82419 0.69807 0.89865 0.0
C657 C 0.83965 0.6966 0.90351 0.0
C658 C 0.85948 0.69172 0.9279 0.0
C659 C 0.87465 0.70525 0.94023 0.0
C660 C 0.88702 0.70083 0.94883 0.0
C661 C 0.88436 0.68269 0.94526 0.0
C662 C 0.86986 0.6697 0.93172 0.0
C663 C 0.85753 0.67415 0.92314 0.0
C664 C 0.83751 0.6919 0.95765 0.0
C665 C 0.84453 0.70711 0.97203 0.0
C666 C 0.84981 0.70543 0.99093 0.0
C667 C 0.84813 0.68849 0.99576 0.0
C668 C 0.84079 0.67319 0.98133 0.0
C669 C 0.83548 0.67488 0.96247 0.0
C670 C 0.80472 0.69268 0.94726 0.0
C671 C 0.80231 0.70738 0.95425 0.0
C672 C 0.79006 0.70452 0.96794 0.0
C673 C 0.78026 0.68703 0.975 0.0
C674 C 0.78263 0.6723 0.96776 0.0
C675 C 0.79476 0.67514 0.95404 0.0
C676 C 0.79672 0.69883 0.90791 0.0
C677 C 0.79859 0.71569 0.90273 0.0
C678 C 0.78325 0.71697 0.89766 0.0
C679 C 0.76575 0.70138 0.89768 0.0
C680 C 0.76395 0.68449 0.90285 0.0
C681 C 0.77931 0.68323 0.90788 0.0
C682 C 0.81883 0.69868 0.87804 0.0
C683 C 0.82889 0.71467 0.86861 0.0
C684 C 0.82399 0.71487 0.84904 0.0
C685 C 0.80887 0.69918 0.83865 0.0
C686 C 0.79894 0.6831 0.84819 0.0
C687 C 0.80387 0.68291 0.8677 0.0
C688 C 0.85081 0.69647 0.88813 0.0
C689 C 0.86705 0.71272 0.88571 0.0
C690 C 0.87691 0.71295 0.8703 0.0
C691 C 0.87063 0.69683 0.85718 0.0
C692 C 0.8546 0.68046 0.86002 0.0
C693 C 0.84467 0.68032 0.87529 0.0
C694 C 0.8541 0.68686 0.01573 0.0
C695 C 0.7494 0.70267 0.89232 0.0
H696 H 0.81765 0.68146 0.36494 0.0
H697 H 0.94929 0.66669 0.51195 0.0
H698 H 0.8157 0.67709 0.46823 0.0
H699 H 0.78911 0.67405 0.4502 0.0
H700 H 0.7632 0.61381 0.44711 0.0
H701 H 0.79048 0.61722 0.46511 0.0
H702 H 0.8476 0.68694 0.44479 0.0
H703 H 0.83859 0.69032 0.41179 0.0
H704 H 0.80523 0.63021 0.40027 0.0
H705 H 0.81451 0.62704 0.43325 0.0
H706 H 0.88272 0.69364 0.46838 0.0
H707 H 0.90721 0.70404 0.44729 0.0
H708 H 0.88063 0.64846 0.41665 0.0
H709 H 0.85651 0.6382 0.43807 0.0
H710 H 0.88357 0.68759 0.51217 0.0
H711 H 0.9144 0.6952 0.52334 0.0
H712 H 0.90532 0.64519 0.48965 0.0
H713 H 0.87446 0.63764 0.47878 0.0
H714 H 0.84619 0.67506 0.53181 0.0
H715 H 0.85568 0.67581 0.56609 0.0
H716 H 0.86456 0.63002 0.55129 0.0
H717 H 0.85478 0.62915 0.51717 0.0
H718 H 0.80969 0.6664 0.50624 0.0
H719 H 0.79064 0.65995 0.53291 0.0
H720 H 0.796 0.61219 0.54284 0.0
H721 H 0.81391 0.61777 0.5151 0.0
O722 O 0.82142 0.67979 0.37775 0.0
O723 O 0.80452 0.64882 0.37254 0.0
O724 O 0.94106 0.68942 0.52506 0.0
O725 O 0.93714 0.66398 0.50783 0.0
C726 C 0.82281 0.64971 0.47498 0.0
C727 C 0.83615 0.65483 0.46184 0.0
C728 C 0.85374 0.65877 0.46833 0.0
C729 C 0.85808 0.65747 0.48793 0.0
C730 C 0.84477 0.6522 0.50108 0.0
C731 C 0.82697 0.64802 0.49455 0.0
C732 C 0.80498 0.6474 0.46808 0.0
C733 C 0.80405 0.66324 0.4642 0.0
C734 C 0.78865 0.6614 0.45387 0.0
C735 C 0.77373 0.64356 0.44729 0.0
C736 C 0.7744 0.62771 0.45208 0.0
C737 C 0.78988 0.6296 0.46246 0.0
C738 C 0.83175 0.65675 0.44135 0.0
C739 C 0.83854 0.67453 0.43502 0.0
C740 C 0.83328 0.67641 0.4162 0.0
C741 C 0.82112 0.66054 0.40341 0.0
C742 C 0.81459 0.64273 0.40975 0.0
C743 C 0.81988 0.64087 0.42856 0.0
C744 C 0.86799 0.66514 0.45484 0.0
C745 C 0.88228 0.68374 0.45713 0.0
C746 C 0.89621 0.68964 0.44509 0.0
C747 C 0.89616 0.67703 0.43063 0.0
C748 C 0.8815 0.65846 0.42802 0.0
C749 C 0.86755 0.65259 0.44009 0.0
C750 C 0.87678 0.66204 0.49473 0.0
C751 C 0.88825 0.67826 0.50731 0.0
C752 C 0.90586 0.68259 0.51362 0.0
C753 C 0.91233 0.67079 0.50739 0.0
C754 C 0.90078 0.65457 0.49473 0.0
C755 C 0.88316 0.65024 0.48848 0.0
C756 C 0.84988 0.65212 0.52197 0.0
C757 C 0.85007 0.66511 0.53602 0.0
C758 C 0.85553 0.66557 0.55554 0.0
C759 C 0.86128 0.65332 0.56131 0.0
C760 C 0.86076 0.64005 0.54727 0.0
C761 C 0.85506 0.63944 0.52777 0.0
C762 C 0.81309 0.64247 0.50853 0.0
C763 C 0.80608 0.65404 0.51351 0.0
C764 C 0.79532 0.65043 0.52884 0.0
C765 C 0.79186 0.63552 0.53974 0.0
C766 C 0.79845 0.62368 0.5345 0.0
C767 C 0.80865 0.62688 0.51872 0.0
C768 C 0.81516 0.66261 0.38363 0.0
C769 C 0.93104 0.67535 0.514 0.0
H770 H 0.33166 0.16918 0.38866 0.0
H771 H 0.37974 0.32041 0.55429 0.0
H772 H 0.33128 0.15936 0.49086 0.0
H773 H 0.32946 0.13061 0.47766 0.0
H774 H 0.38616 0.15351 0.49755 0.0
H775 H 0.38792 0.18265 0.51029 0.0
H776 H 0.32817 0.18827 0.47029 0.0
H777 H 0.32432 0.17888 0.43538 0.0
H778 H 0.38053 0.19344 0.43831 0.0
H779 H 0.38424 0.20296 0.47319 0.0
H780 H 0.32722 0.21828 0.49902 0.0
H781 H 0.31808 0.2346 0.47705 0.0
H782 H 0.36925 0.25626 0.45249 0.0
H783 H 0.37833 0.24009 0.47486 0.0
H784 H 0.33667 0.22723 0.54218 0.0
H785 H 0.33805 0.25598 0.55515 0.0
H786 H 0.38895 0.28851 0.53115 0.0
H787 H 0.38754 0.25962 0.51854 0.0
H788 H 0.33897 0.19728 0.56164 0.0
H789 H 0.34065 0.21007 0.59486 0.0
H790 H 0.39518 0.25492 0.5903 0.0
H791 H 0.39348 0.2417 0.55711 0.0
H792 H 0.33379 0.16344 0.53587 0.0
H793 H 0.33288 0.14102 0.55768 0.0
H794 H 0.39029 0.17725 0.57519 0.0
H795 H 0.39103 0.19949 0.55317 0.0
O796 O 0.33351 0.17305 0.40246 0.0
O797 O 0.36247 0.18069 0.40477 0.0
O798 O 0.35284 0.29146 0.56168 0.0
O799 O 0.37878 0.30883 0.5492 0.0
C800 C 0.3608 0.19079 0.50877 0.0
C801 C 0.35883 0.20199 0.49542 0.0
C802 C 0.35867 0.21822 0.50231 0.0
C803 C 0.36165 0.22391 0.52245 0.0
C804 C 0.36382 0.21282 0.53582 0.0
C805 C 0.36285 0.19597 0.52899 0.0
C806 C 0.35971 0.17306 0.50153 0.0
C807 C 0.34328 0.15813 0.49242 0.0
C808 C 0.34225 0.14159 0.48509 0.0
C809 C 0.35763 0.13959 0.48696 0.0
C810 C 0.37409 0.15462 0.49605 0.0
C811 C 0.37511 0.1712 0.50337 0.0
C812 C 0.35651 0.19642 0.47421 0.0
C813 C 0.33966 0.18955 0.46332 0.0
C814 C 0.33749 0.18413 0.44341 0.0
C815 C 0.35212 0.18543 0.43404 0.0
C816 C 0.36899 0.19228 0.44506 0.0
C817 C 0.37114 0.19773 0.46497 0.0
C818 C 0.35351 0.22822 0.48867 0.0
C819 C 0.33649 0.22667 0.48897 0.0
C820 C 0.33127 0.23592 0.47635 0.0
C821 C 0.34297 0.24698 0.46321 0.0
C822 C 0.35997 0.24824 0.46267 0.0
C823 C 0.36519 0.23892 0.47536 0.0
C824 C 0.36209 0.24136 0.52959 0.0
C825 C 0.34814 0.24058 0.53981 0.0
C826 C 0.34894 0.25702 0.54716 0.0
C827 C 0.36366 0.27456 0.54426 0.0
C828 C 0.37745 0.27525 0.5337 0.0
C829 C 0.37667 0.25879 0.52643 0.0
C830 C 0.36608 0.21859 0.55697 0.0
C831 C 0.35142 0.20962 0.56799 0.0
C832 C 0.3523 0.21719 0.58687 0.0
C833 C 0.36788 0.23394 0.59497 0.0
C834 C 0.38296 0.24215 0.58433 0.0
C835 C 0.38204 0.23459 0.56545 0.0
C836 C 0.3625 0.18296 0.54286 0.0
C837 C 0.34616 0.16648 0.54442 0.0
C838 C 0.34567 0.15374 0.55688 0.0
C839 C 0.36154 0.15712 0.56785 0.0
C840 C 0.37789 0.1739 0.56657 0.0
C841 C 0.37833 0.18674 0.55415 0.0
C842 C 0.34976 0.17961 0.41289 0.0
C843 C 0.36469 0.29207 0.55225 0.0
H844 H 0.80504 0.18272 0.3656 0.0
H845 H 0.96229 0.30052 0.51905 0.0
H846 H 0.79792 0.19437 0.46753 0.0
H847 H 0.7694 0.16577 0.45518 0.0
H848 H 0.78928 0.13287 0.48174 0.0
H849 H 0.81775 0.16133 0.4934 0.0
H850 H 0.8313 0.22251 0.44379 0.0
H851 H 0.82017 0.21048 0.40964 0.0
H852 H 0.82132 0.16028 0.41975 0.0
H853 H 0.83267 0.17259 0.45379 0.0
H854 H 0.87084 0.25599 0.465 0.0
H855 H 0.89254 0.26952 0.44103 0.0
H856 H 0.89235 0.21762 0.43108 0.0
H857 H 0.87087 0.20432 0.45525 0.0
H858 H 0.87239 0.26331 0.51163 0.0
H859 H 0.90289 0.29023 0.52069 0.0
H860 H 0.92595 0.2565 0.50311 0.0
H861 H 0.89539 0.22966 0.49433 0.0
H862 H 0.84011 0.2366 0.53673 0.0
H863 H 0.85127 0.24808 0.57106 0.0
H864 H 0.89049 0.23014 0.56671 0.0
H865 H 0.87892 0.21833 0.5328 0.0
H866 H 0.80292 0.2016 0.51558 0.0
H867 H 0.78428 0.1848 0.54097 0.0
H868 H 0.82261 0.16716 0.55701 0.0
H869 H 0.84073 0.18376 0.53181 0.0
O870 O 0.80955 0.18726 0.37913 0.0
O871 O 0.81022 0.16165 0.38515 0.0
O872 O 0.93754 0.30681 0.5246 0.0
O873 O 0.95008 0.2901 0.51563 0.0
C874 C 0.82799 0.19695 0.4867 0.0
C875 C 0.83926 0.20569 0.47204 0.0
C876 C 0.85692 0.22118 0.47713 0.0
C877 C 0.86316 0.22827 0.49686 0.0
C878 C 0.85189 0.21959 0.51152 0.0
C879 C 0.83439 0.20381 0.50644 0.0
C880 C 0.80993 0.17991 0.48126 0.0
C881 C 0.79601 0.18095 0.47072 0.0
C882 C 0.77979 0.16464 0.46367 0.0
C883 C 0.77726 0.14702 0.46691 0.0
C884 C 0.79094 0.14611 0.47829 0.0
C885 C 0.80715 0.16241 0.48529 0.0
C886 C 0.83269 0.19838 0.45127 0.0
C887 C 0.82919 0.20895 0.43857 0.0
C888 C 0.82281 0.20202 0.41909 0.0
C889 C 0.81981 0.18439 0.41197 0.0
C890 C 0.82344 0.17389 0.42476 0.0
C891 C 0.82987 0.18086 0.44421 0.0
C892 C 0.86933 0.2292 0.4619 0.0
C893 C 0.87555 0.24759 0.45766 0.0
C894 C 0.88805 0.25532 0.44407 0.0
C895 C 0.89442 0.24468 0.43446 0.0
C896 C 0.88772 0.22612 0.43834 0.0
C897 C 0.87542 0.2185 0.45206 0.0
C898 C 0.8817 0.24458 0.50226 0.0
C899 C 0.88406 0.26178 0.50979 0.0
C900 C 0.90148 0.27712 0.51492 0.0
C901 C 0.91687 0.27552 0.51259 0.0
C902 C 0.91442 0.25823 0.50506 0.0
C903 C 0.89698 0.24289 0.49998 0.0
C904 C 0.85869 0.22661 0.53231 0.0
C905 C 0.85101 0.23504 0.54331 0.0
C906 C 0.85741 0.24159 0.56287 0.0
C907 C 0.8715 0.23972 0.57181 0.0
C908 C 0.87927 0.23138 0.56063 0.0
C909 C 0.87284 0.22481 0.5411 0.0
C910 C 0.82315 0.1939 0.52192 0.0
C911 C 0.8072 0.1941 0.52469 0.0
C912 C 0.79664 0.18457 0.53923 0.0
C913 C 0.80183 0.17465 0.55125 0.0
C914 C 0.81798 0.17462 0.5484 0.0
C915 C 0.82848 0.18415 0.53388 0.0
C916 C 0.81291 0.17702 0.3913 0.0
C917 C 0.93541 0.29179 0.51799 0.0
H918 H 0.99601 0.52489 0.33603 0.0
H919 H 0.00338 0.37837 0.20375 0.0
H920 H 0.96499 0.50257 0.23626 0.0
H921 H 0.97099 0.53407 0.24569 0.0
H922 H 0.01929 0.55691 0.21568 0.0
H923 H 0.01303 0.52525 0.20623 0.0
H924 H 0.96911 0.47499 0.26351 0.0
H925 H 0.9757 0.49192 0.29586 0.0
H926 H 0.02767 0.53433 0.28043 0.0
H927 H 0.02101 0.51712 0.24824 0.0
H928 H 0.96617 0.43613 0.24582 0.0
H929 H 0.97346 0.42008 0.2701 0.0
H930 H 0.02945 0.46513 0.27652 0.0
H931 H 0.02194 0.48078 0.25242 0.0
H932 H 0.95804 0.42419 0.19923 0.0
H933 H 0.95826 0.39489 0.19471 0.0
H934 H 0.01593 0.42486 0.21282 0.0
H935 H 0.01558 0.45408 0.21694 0.0
H936 H 0.95297 0.44864 0.16926 0.0
H937 H 0.95006 0.43261 0.13711 0.0
H938 H 0.00685 0.44935 0.14587 0.0
H939 H 0.00962 0.4656 0.1773 0.0
H940 H 0.95252 0.48575 0.19183 0.0
H941 H 0.94579 0.50144 0.16669 0.0
H942 H 0.99603 0.51473 0.14318 0.0
H943 H 0.00278 0.49944 0.16867 0.0
O944 O 0.9938 0.51826 0.32328 0.0
O945 O 0.02021 0.53985 0.31446 0.0
O946 O 0.97338 0.37507 0.19543 0.0
O947 O 0.00294 0.38977 0.20514 0.0
C948 C 0.98673 0.4929 0.21761 0.0
C949 C 0.99018 0.48499 0.23363 0.0
C950 C 0.98973 0.46784 0.23066 0.0
C951 C 0.9865 0.45892 0.21161 0.0
C952 C 0.98325 0.46693 0.19555 0.0
C953 C 0.98284 0.48366 0.19862 0.0
C954 C 0.98866 0.51166 0.22072 0.0
C955 C 0.97674 0.5144 0.23156 0.0
C956 C 0.98036 0.53248 0.23713 0.0
C957 C 0.99604 0.5481 0.23198 0.0
C958 C 0.00725 0.54517 0.22006 0.0
C959 C 0.00365 0.52711 0.21456 0.0
C960 C 0.99456 0.49486 0.25354 0.0
C961 C 0.98196 0.48786 0.26721 0.0
C962 C 0.98574 0.4976 0.28565 0.0
C963 C 0.00218 0.51453 0.29071 0.0
C964 C 0.01486 0.52136 0.277 0.0
C965 C 0.0111 0.51158 0.25861 0.0
C966 C 0.99355 0.45956 0.24736 0.0
C967 C 0.97991 0.44263 0.25284 0.0
C968 C 0.98411 0.43353 0.26671 0.0
C969 C 0.00199 0.44118 0.27538 0.0
C970 C 0.01547 0.45868 0.27049 0.0
C971 C 0.01123 0.46777 0.25661 0.0
C972 C 0.98677 0.44122 0.20848 0.0
C973 C 0.97072 0.42439 0.20209 0.0
C974 C 0.97088 0.40768 0.19958 0.0
C975 C 0.98711 0.40752 0.20347 0.0
C976 C 0.00319 0.42447 0.20974 0.0
C977 C 0.00303 0.44117 0.21215 0.0
C978 C 0.98152 0.45834 0.17553 0.0
C979 C 0.96481 0.44909 0.16396 0.0
C980 C 0.96317 0.43991 0.14569 0.0
C981 C 0.97823 0.43992 0.13864 0.0
C982 C 0.99501 0.4494 0.15032 0.0
C983 C 0.99662 0.4586 0.16849 0.0
C984 C 0.97818 0.49158 0.18213 0.0
C985 C 0.962 0.49198 0.18116 0.0
C986 C 0.95817 0.5009 0.16678 0.0
C987 C 0.97051 0.50973 0.1532 0.0
C988 C 0.98641 0.5086 0.1537 0.0
C989 C 0.99022 0.49965 0.16813 0.0
C990 C 0.00601 0.52502 0.31017 0.0
C991 C 0.98732 0.38979 0.20107 0.0
H992 H 0.50324 0.50121 0.35179 0.0
H993 H 0.38976 0.34537 0.19062 0.0
H994 H 0.50859 0.50525 0.24752 0.0
H995 H 0.53564 0.53399 0.26158 0.0
H996 H 0.56782 0.50782 0.25361 0.0
H997 H 0.5404 0.47898 0.23912 0.0
H998 H 0.47762 0.47811 0.26914 0.0
H999 H 0.48454 0.48937 0.30377 0.0
H1000 H 0.52487 0.47267 0.30834 0.0
H1001 H 0.51765 0.46127 0.27372 0.0
H1002 H 0.44498 0.44632 0.24208 0.0
H1003 H 0.42351 0.43432 0.26609 0.0
H1004 H 0.455 0.41304 0.29403 0.0
H1005 H 0.47667 0.42547 0.26976 0.0
H1006 H 0.44426 0.43799 0.19823 0.0
H1007 H 0.4155 0.41004 0.18553 0.0
H1008 H 0.43257 0.37581 0.21416 0.0
H1009 H 0.46135 0.40387 0.22657 0.0
H1010 H 0.47746 0.46752 0.18014 0.0
H1011 H 0.46766 0.45691 0.14566 0.0
H1012 H 0.47218 0.40814 0.15316 0.0
H1013 H 0.48248 0.41923 0.18774 0.0
H1014 H 0.5089 0.49979 0.20393 0.0
H1015 H 0.53102 0.5189 0.18249 0.0
H1016 H 0.54602 0.47673 0.17371 0.0
H1017 H 0.52383 0.4577 0.19554 0.0
O1018 O 0.50063 0.49656 0.33814 0.0
O1019 O 0.52127 0.48781 0.33968 0.0
O1020 O 0.39293 0.37486 0.18091 0.0
O1021 O 0.40101 0.35665 0.19545 0.0
C1022 C 0.50568 0.47232 0.23495 0.0
C1023 C 0.49299 0.46215 0.24789 0.0
C1024 C 0.47631 0.44605 0.24072 0.0
C1025 C 0.47248 0.43986 0.22065 0.0
C1026 C 0.48522 0.44999 0.20767 0.0
C1027 C 0.50179 0.46626 0.21485 0.0
C1028 C 0.52253 0.49002 0.24248 0.0
C1029 C 0.52149 0.50573 0.24886 0.0
C1030 C 0.537 0.5221 0.25716 0.0
C1031 C 0.5539 0.52302 0.25938 0.0
C1032 C 0.55496 0.50741 0.25236 0.0
C1033 C 0.53938 0.491 0.24403 0.0
C1034 C 0.49705 0.46877 0.26898 0.0
C1035 C 0.48784 0.47677 0.27769 0.0
C1036 C 0.49187 0.48325 0.29746 0.0
C1037 C 0.50526 0.48191 0.30884 0.0
C1038 C 0.51448 0.4739 0.3 0.0
C1039 C 0.51039 0.46738 0.28025 0.0
C1040 C 0.46228 0.43664 0.25411 0.0
C1041 C 0.44699 0.43868 0.25313 0.0
C1042 C 0.43465 0.43168 0.26693 0.0
C1043 C 0.43734 0.42236 0.28194 0.0
C1044 C 0.45251 0.42004 0.28259 0.0
C1045 C 0.46486 0.42707 0.26876 0.0
C1046 C 0.45491 0.42292 0.2132 0.0
C1047 C 0.44178 0.42443 0.20165 0.0
C1048 C 0.42536 0.40845 0.19447 0.0
C1049 C 0.42175 0.39067 0.1988 0.0
C1050 C 0.43492 0.38926 0.21052 0.0
C1051 C 0.45135 0.40526 0.21766 0.0
C1052 C 0.48064 0.44413 0.18644 0.0
C1053 C 0.47652 0.45465 0.17428 0.0
C1054 C 0.47063 0.44837 0.15461 0.0
C1055 C 0.46861 0.43133 0.14677 0.0
C1056 C 0.47343 0.42121 0.15886 0.0
C1057 C 0.47931 0.4275 0.17855 0.0
C1058 C 0.51479 0.4774 0.20123 0.0
C1059 C 0.51687 0.49463 0.19723 0.0
C1060 C 0.52937 0.50541 0.18476 0.0
C1061 C 0.53999 0.49907 0.17599 0.0
C1062 C 0.53787 0.48181 0.18009 0.0
C1063 C 0.52526 0.47097 0.19252 0.0
C1064 C 0.50958 0.48891 0.32981 0.0
C1065 C 0.40435 0.37364 0.19115 0.0
H1066 H 0.52261 0.01188 0.36952 0.0
H1067 H 0.36649 0.97926 0.22472 0.0
H1068 H 0.52762 0.03187 0.27037 0.0
H1069 H 0.55406 0.03078 0.28373 0.0
H1070 H 0.53215 0.97566 0.25335 0.0
H1071 H 0.5057 0.97698 0.23988 0.0
H1072 H 0.49756 0.02765 0.29655 0.0
H1073 H 0.50877 0.02609 0.32931 0.0
H1074 H 0.50013 0.9713 0.3111 0.0
H1075 H 0.48868 0.97294 0.27851 0.0
H1076 H 0.4625 0.02727 0.27643 0.0
H1077 H 0.44266 0.02445 0.3013 0.0
H1078 H 0.43126 0.96818 0.30706 0.0
H1079 H 0.45092 0.97108 0.28163 0.0
H1080 H 0.45697 0.02862 0.23107 0.0
H1081 H 0.42769 0.02668 0.22401 0.0
H1082 H 0.40019 0.96925 0.23713 0.0
H1083 H 0.42955 0.97133 0.24394 0.0
H1084 H 0.4858 0.03127 0.20376 0.0
H1085 H 0.4739 0.03034 0.17046 0.0
H1086 H 0.43357 0.97207 0.17131 0.0
H1087 H 0.44575 0.97313 0.20454 0.0
H1088 H 0.52408 0.0334 0.22611 0.0
H1089 H 0.54111 0.03823 0.19772 0.0
H1090 H 0.49906 0.9845 0.16984 0.0
H1091 H 0.48263 0.97919 0.1987 0.0
O1092 O 0.51792 0.01211 0.35654 0.0
O1093 O 0.51353 0.98414 0.34633 0.0
O1094 O 0.39304 0.00996 0.22075 0.0
O1095 O 0.37825 0.98042 0.22742 0.0
C1096 C 0.49701 0.00351 0.24985 0.0
C1097 C 0.48615 0.00168 0.26512 0.0
C1098 C 0.46939 0.00086 0.26129 0.0
C1099 C 0.46316 0.00131 0.24212 0.0
C1100 C 0.47374 0.00271 0.22678 0.0
C1101 C 0.49078 0.00396 0.23062 0.0
C1102 C 0.51465 0.00443 0.25432 0.0
C1103 C 0.52871 0.01971 0.26631 0.0
C1104 C 0.54369 0.01892 0.27416 0.0
C1105 C 0.54484 0.00278 0.27016 0.0
C1106 C 0.53147 0.98816 0.25687 0.0
C1107 C 0.51644 0.98893 0.24907 0.0
C1108 C 0.49232 0.00042 0.28518 0.0
C1109 C 0.49796 0.01527 0.29973 0.0
C1110 C 0.50442 0.01436 0.3184 0.0
C1111 C 0.50539 0.99859 0.32281 0.0
C1112 C 0.49958 0.98366 0.30819 0.0
C1113 C 0.49305 0.98456 0.28957 0.0
C1114 C 0.45821 0.99943 0.27733 0.0
C1115 C 0.45584 0.01442 0.28322 0.0
C1116 C 0.44459 0.0128 0.29763 0.0
C1117 C 0.4356 0.99614 0.30652 0.0
C1118 C 0.43811 0.98121 0.30059 0.0
C1119 C 0.44936 0.98285 0.28616 0.0
C1120 C 0.44536 0.00013 0.23803 0.0
C1121 C 0.44459 0.01563 0.23237 0.0
C1122 C 0.42786 0.01449 0.22837 0.0
C1123 C 0.41159 0.9978 0.23002 0.0
C1124 C 0.41245 0.98231 0.23574 0.0
C1125 C 0.42919 0.98346 0.23968 0.0
C1126 C 0.46657 0.0023 0.20657 0.0
C1127 C 0.47435 0.01835 0.19674 0.0
C1128 C 0.46739 0.01781 0.17776 0.0
C1129 C 0.45249 0.00116 0.16837 0.0
C1130 C 0.44494 0.9851 0.17824 0.0
C1131 C 0.45183 0.98568 0.19719 0.0
C1132 C 0.50206 0.00598 0.21446 0.0
C1133 C 0.51878 0.02246 0.2141 0.0
C1134 C 0.52844 0.02524 0.19789 0.0
C1135 C 0.52128 0.01171 0.18167 0.0
C1136 C 0.50474 0.99513 0.18217 0.0
C1137 C 0.49539 0.99211 0.1986 0.0
C1138 C 0.5125 0.99777 0.34257 0.0
C1139 C 0.39378 0.9965 0.22577 0.0
H1140 H 0.50182 0.03044 0.70141 0.0
H1141 H 0.61968 0.98778 0.83429 0.0
H1142 H 0.50238 0.02887 0.80509 0.0
H1143 H 0.47534 0.02934 0.79275 0.0
H1144 H 0.44261 0.97016 0.7975 0.0
H1145 H 0.46992 0.96988 0.81005 0.0
H1146 H 0.53266 0.03257 0.77982 0.0
H1147 H 0.52391 0.03708 0.74723 0.0
H1148 H 0.47982 0.97966 0.7395 0.0
H1149 H 0.48887 0.97529 0.77203 0.0
H1150 H 0.56592 0.0315 0.79967 0.0
H1151 H 0.58616 0.03601 0.7747 0.0
H1152 H 0.54718 0.9813 0.74573 0.0
H1153 H 0.52689 0.97703 0.77087 0.0
H1154 H 0.5675 0.02551 0.8447 0.0
H1155 H 0.59634 0.02669 0.85239 0.0
H1156 H 0.57596 0.97462 0.81601 0.0
H1157 H 0.54712 0.9735 0.80863 0.0
H1158 H 0.53406 0.01895 0.86969 0.0
H1159 H 0.54487 0.0159 0.90198 0.0
H1160 H 0.54181 0.96468 0.87956 0.0
H1161 H 0.53033 0.96745 0.84741 0.0
H1162 H 0.50241 0.02154 0.84862 0.0
H1163 H 0.48353 0.01775 0.87506 0.0
H1164 H 0.47123 0.96063 0.87594 0.0
H1165 H 0.49015 0.96465 0.8497 0.0
O1166 O 0.50515 0.0283 0.71419 0.0
O1167 O 0.48261 0.99872 0.71101 0.0
O1168 O 0.61819 0.01433 0.85015 0.0
O1169 O 0.6084 0.98764 0.83153 0.0
C1170 C 0.50501 0.9987 0.81294 0.0
C1171 C 0.5165 0.00105 0.79823 0.0
C1172 C 0.53286 0.00115 0.80254 0.0
C1173 C 0.53773 0.99876 0.82154 0.0
C1174 C 0.5261 0.99599 0.83621 0.0
C1175 C 0.50972 0.99598 0.83188 0.0
C1176 C 0.48815 0.99931 0.80826 0.0
C1177 C 0.48934 0.01604 0.80364 0.0
C1178 C 0.47388 0.01621 0.79635 0.0
C1179 C 0.45688 0.99959 0.79349 0.0
C1180 C 0.45556 0.9831 0.79932 0.0
C1181 C 0.47109 0.98293 0.80655 0.0
C1182 C 0.51142 0.00361 0.77825 0.0
C1183 C 0.5212 0.02096 0.771 0.0
C1184 C 0.51613 0.02351 0.75241 0.0
C1185 C 0.50115 0.00874 0.74076 0.0
C1186 C 0.49142 0.99133 0.74809 0.0
C1187 C 0.49655 0.98879 0.76665 0.0
C1188 C 0.54503 0.00389 0.78715 0.0
C1189 C 0.56184 0.02045 0.78799 0.0
C1190 C 0.57347 0.02291 0.77375 0.0
C1191 C 0.56847 0.00874 0.75841 0.0
C1192 C 0.55144 0.99235 0.75745 0.0
C1193 C 0.53985 0.9899 0.77174 0.0
C1194 C 0.55524 0.99942 0.82612 0.0
C1195 C 0.56928 0.01435 0.83847 0.0
C1196 C 0.58574 0.015 0.8428 0.0
C1197 C 0.58846 0.00074 0.8348 0.0
C1198 C 0.57433 0.98582 0.82241 0.0
C1199 C 0.55786 0.98517 0.81813 0.0
C1200 C 0.53133 0.9934 0.85617 0.0
C1201 C 0.53528 0.00682 0.87185 0.0
C1202 C 0.54142 0.00503 0.89031 0.0
C1203 C 0.54395 0.98987 0.89331 0.0
C1204 C 0.53987 0.97642 0.87763 0.0
C1205 C 0.53337 0.97801 0.85929 0.0
C1206 C 0.49765 0.99338 0.8473 0.0
C1207 C 0.49555 0.00821 0.85452 0.0
C1208 C 0.48486 0.00604 0.86966 0.0
C1209 C 0.4762 0.98909 0.87796 0.0
C1210 C 0.47809 0.97411 0.87042 0.0
C1211 C 0.48876 0.97628 0.85524 0.0
C1212 C 0.49569 0.01154 0.72109 0.0
C1213 C 0.60593 0.00138 0.83934 0.0
H1214 H 0.98036 0.48457 0.72483 0.0
H1215 H 0.04391 0.64948 0.87917 0.0
H1216 H 0.98595 0.48355 0.82886 0.0
H1217 H 0.98213 0.45391 0.8154 0.0
H1218 H 0.03964 0.47567 0.82881 0.0
H1219 H 0.04324 0.5054 0.84259 0.0
H1220 H 0.984 0.51284 0.80534 0.0
H1221 H 0.97733 0.50016 0.77112 0.0
H1222 H 0.03182 0.5097 0.77125 0.0
H1223 H 0.03836 0.52255 0.80541 0.0
H1224 H 0.98821 0.54816 0.83007 0.0
H1225 H 0.98249 0.56578 0.80684 0.0
H1226 H 0.03237 0.57904 0.78246 0.0
H1227 H 0.03821 0.5616 0.8064 0.0
H1228 H 0.99758 0.55636 0.87424 0.0
H1229 H 0.00066 0.58645 0.88509 0.0
H1230 H 0.05077 0.61485 0.8586 0.0
H1231 H 0.04766 0.58465 0.8481 0.0
H1232 H 0.99947 0.52692 0.89629 0.0
H1233 H 0.00355 0.54202 0.92904 0.0
H1234 H 0.05806 0.58416 0.92002 0.0
H1235 H 0.05391 0.56866 0.88734 0.0
H1236 H 0.99283 0.48996 0.87303 0.0
H1237 H 0.99419 0.46925 0.89583 0.0
H1238 H 0.05199 0.50712 0.90866 0.0
H1239 H 0.05047 0.52749 0.88559 0.0
O1240 O 0.98334 0.48982 0.7383 0.0
O1241 O 0.01146 0.49488 0.73918 0.0
O1242 O 0.01675 0.62213 0.8888 0.0
O1243 O 0.04233 0.63739 0.875 0.0
C1244 C 0.01727 0.51518 0.84283 0.0
C1245 C 0.01553 0.52588 0.82872 0.0
C1246 C 0.01703 0.54319 0.83454 0.0
C1247 C 0.02082 0.55007 0.85443 0.0
C1248 C 0.0228 0.53947 0.86856 0.0
C1249 C 0.02075 0.52187 0.86278 0.0
C1250 C 0.01488 0.49664 0.83651 0.0
C1251 C 0.99771 0.48188 0.82893 0.0
C1252 C 0.99563 0.46502 0.82098 0.0
C1253 C 0.01077 0.46267 0.82037 0.0
C1254 C 0.02782 0.47721 0.82881 0.0
C1255 C 0.02988 0.49412 0.83676 0.0
C1256 C 0.01168 0.51868 0.8078 0.0
C1257 C 0.99451 0.51232 0.79789 0.0
C1258 C 0.99073 0.50502 0.77837 0.0
C1259 C 0.00404 0.5039 0.76844 0.0
C1260 C 0.02126 0.51036 0.77845 0.0
C1261 C 0.02504 0.5177 0.79795 0.0
C1262 C 0.01361 0.55364 0.81991 0.0
C1263 C 0.99785 0.5548 0.81964 0.0
C1264 C 0.99449 0.56468 0.80608 0.0
C1265 C 0.00678 0.57344 0.79233 0.0
C1266 C 0.02257 0.57223 0.79268 0.0
C1267 C 0.02594 0.56234 0.80632 0.0
C1268 C 0.02246 0.56835 0.8605 0.0
C1269 C 0.00924 0.5691 0.87086 0.0
C1270 C 0.01102 0.5863 0.877 0.0
C1271 C 0.026 0.60307 0.87275 0.0
C1272 C 0.03909 0.60222 0.86215 0.0
C1273 C 0.03733 0.585 0.85609 0.0
C1274 C 0.02636 0.54675 0.88943 0.0
C1275 C 0.0124 0.5392 0.90155 0.0
C1276 C 0.01468 0.54808 0.92016 0.0
C1277 C 0.03098 0.56472 0.92689 0.0
C1278 C 0.0453 0.57151 0.91513 0.0
C1279 C 0.04299 0.56266 0.89652 0.0
C1280 C 0.02158 0.51009 0.87753 0.0
C1281 C 0.00576 0.49373 0.88079 0.0
C1282 C 0.00657 0.48197 0.89382 0.0
C1283 C 0.02321 0.48625 0.90371 0.0
C1284 C 0.039 0.50302 0.90089 0.0
C1285 C 0.03816 0.51482 0.88785 0.0
C1286 C -8e-05 0.49595 0.74777 0.0
C1287 C 0.02801 0.62139 0.87936 0.0
H1288 H 0.47078 0.49788 0.72092 0.0
H1289 H 0.63395 0.63774 0.86106 0.0
H1290 H 0.47024 0.519 0.82099 0.0
H1291 H 0.44348 0.48841 0.81081 0.0
H1292 H 0.46931 0.46208 0.8402 0.0
H1293 H 0.49598 0.49284 0.85039 0.0
H1294 H 0.50119 0.5463 0.79432 0.0
H1295 H 0.488 0.53033 0.76162 0.0
H1296 H 0.4945 0.48424 0.77685 0.0
H1297 H 0.50792 0.50048 0.80938 0.0
H1298 H 0.54141 0.58308 0.81156 0.0
H1299 H 0.55977 0.5935 0.78421 0.0
H1300 H 0.56175 0.54254 0.78002 0.0
H1301 H 0.54394 0.53251 0.80769 0.0
H1302 H 0.54371 0.59463 0.85801 0.0
H1303 H 0.57335 0.62333 0.8641 0.0
H1304 H 0.59946 0.59177 0.85001 0.0
H1305 H 0.56976 0.56315 0.84417 0.0
H1306 H 0.51346 0.56919 0.88628 0.0
H1307 H 0.52507 0.58324 0.91996 0.0
H1308 H 0.56653 0.56822 0.91765 0.0
H1309 H 0.55496 0.55449 0.88422 0.0
H1310 H 0.47668 0.53144 0.86646 0.0
H1311 H 0.45715 0.5133 0.89016 0.0
H1312 H 0.49818 0.50125 0.91207 0.0
H1313 H 0.5175 0.51922 0.88773 0.0
O1314 O 0.4763 0.50409 0.73382 0.0
O1315 O 0.4796 0.4806 0.74254 0.0
O1316 O 0.60799 0.64216 0.86606 0.0
O1317 O 0.62207 0.6266 0.85882 0.0
C1318 C 0.50234 0.52633 0.83996 0.0
C1319 C 0.51266 0.53392 0.82435 0.0
C1320 C 0.5299 0.55031 0.82784 0.0
C1321 C 0.53657 0.55948 0.84691 0.0
C1322 C 0.52616 0.55197 0.86255 0.0
C1323 C 0.50909 0.53532 0.85906 0.0
C1324 C 0.48507 0.50811 0.83631 0.0
C1325 C 0.46998 0.50661 0.82539 0.0
C1326 C 0.45478 0.48904 0.81938 0.0
C1327 C 0.45451 0.47269 0.82417 0.0
C1328 C 0.46922 0.4744 0.83611 0.0
C1329 C 0.48441 0.49194 0.84204 0.0
C1330 C 0.5054 0.5245 0.80424 0.0
C1331 C 0.49986 0.53281 0.79051 0.0
C1332 C 0.49228 0.52363 0.77187 0.0
C1333 C 0.49011 0.50596 0.76665 0.0
C1334 C 0.49592 0.4978 0.78041 0.0
C1335 C 0.50356 0.50703 0.799 0.0
C1336 C 0.54135 0.55705 0.81161 0.0
C1337 C 0.54603 0.57431 0.80488 0.0
C1338 C 0.55653 0.58024 0.78931 0.0
C1339 C 0.56229 0.56884 0.78015 0.0
C1340 C 0.55744 0.55154 0.78684 0.0
C1341 C 0.54729 0.54581 0.80259 0.0
C1342 C 0.5546 0.57684 0.85059 0.0
C1343 C 0.55586 0.59395 0.8563 0.0
C1344 C 0.5728 0.61032 0.85973 0.0
C1345 C 0.58879 0.60985 0.8575 0.0
C1346 C 0.58744 0.59264 0.85183 0.0
C1347 C 0.57049 0.57627 0.84844 0.0
C1348 C 0.53349 0.56101 0.88275 0.0
C1349 C 0.52515 0.56913 0.89307 0.0
C1350 C 0.5318 0.57714 0.91226 0.0
C1351 C 0.54698 0.57731 0.92143 0.0
C1352 C 0.55523 0.56902 0.91101 0.0
C1353 C 0.54855 0.561 0.89186 0.0
C1354 C 0.49848 0.52665 0.8754 0.0
C1355 C 0.48157 0.52517 0.87665 0.0
C1356 C 0.47044 0.51483 0.89041 0.0
C1357 C 0.47615 0.50586 0.9033 0.0
C1358 C 0.49346 0.50806 0.90245 0.0
C1359 C 0.50453 0.51836 0.88863 0.0
C1360 C 0.48172 0.49607 0.74697 0.0
C1361 C 0.60681 0.62721 0.86107 0.0
H1362 H 0.64058 0.84184 0.67711 0.0
H1363 H 0.66907 0.71176 0.54197 0.0
H1364 H 0.61513 0.82256 0.5748 0.0
H1365 H 0.61677 0.85177 0.58695 0.0
H1366 H 0.66757 0.88316 0.56249 0.0
H1367 H 0.66613 0.85409 0.55108 0.0
H1368 H 0.62258 0.79661 0.60229 0.0
H1369 H 0.62556 0.81105 0.63519 0.0
H1370 H 0.67585 0.85933 0.62412 0.0
H1371 H 0.67285 0.8446 0.59141 0.0
H1372 H 0.62771 0.76241 0.58632 0.0
H1373 H 0.63864 0.74981 0.61125 0.0
H1374 H 0.6912 0.80041 0.6171 0.0
H1375 H 0.68001 0.81291 0.59229 0.0
H1376 H 0.61859 0.75209 0.53835 0.0
H1377 H 0.62106 0.7241 0.5333 0.0
H1378 H 0.67846 0.75711 0.55254 0.0
H1379 H 0.67585 0.78502 0.55722 0.0
H1380 H 0.61275 0.77798 0.50818 0.0
H1381 H 0.61137 0.76405 0.47539 0.0
H1382 H 0.66843 0.78232 0.48553 0.0
H1383 H 0.66956 0.79593 0.51807 0.0
H1384 H 0.61108 0.81467 0.52719 0.0
H1385 H 0.60944 0.83392 0.50314 0.0
H1386 H 0.66375 0.84952 0.49008 0.0
H1387 H 0.66516 0.83016 0.51446 0.0
O1388 O 0.63979 0.83628 0.66415 0.0
O1389 O 0.6654 0.8609 0.65757 0.0
O1390 O 0.63816 0.70625 0.53401 0.0
O1391 O 0.66775 0.72262 0.54364 0.0
C1392 C 0.64149 0.81899 0.55836 0.0
C1393 C 0.64519 0.81109 0.57423 0.0
C1394 C 0.64728 0.79543 0.57088 0.0
C1395 C 0.64531 0.78737 0.55168 0.0
C1396 C 0.64195 0.79547 0.53575 0.0
C1397 C 0.64016 0.81139 0.5391 0.0
C1398 C 0.64059 0.83624 0.56221 0.0
C1399 C 0.62645 0.83578 0.57185 0.0
C1400 C 0.62742 0.85242 0.57879 0.0
C1401 C 0.64258 0.86972 0.57631 0.0
C1402 C 0.65604 0.87008 0.56535 0.0
C1403 C 0.65509 0.85347 0.55847 0.0
C1404 C 0.64743 0.81961 0.59445 0.0
C1405 C 0.63428 0.81025 0.60706 0.0
C1406 C 0.636 0.81856 0.62582 0.0
C1407 C 0.65091 0.83639 0.63226 0.0
C1408 C 0.66418 0.84562 0.61961 0.0
C1409 C 0.66248 0.83725 0.60091 0.0
C1410 C 0.65313 0.78846 0.58739 0.0
C1411 C 0.64153 0.77078 0.59314 0.0
C1412 C 0.64789 0.76357 0.60729 0.0
C1413 C 0.66604 0.77395 0.61578 0.0
C1414 C 0.67723 0.79206 0.61072 0.0
C1415 C 0.67087 0.79922 0.59658 0.0
C1416 C 0.64702 0.77054 0.54823 0.0
C1417 C 0.6317 0.75325 0.54137 0.0
C1418 C 0.63314 0.73729 0.53855 0.0
C1419 C 0.64996 0.73836 0.54257 0.0
C1420 C 0.66531 0.75578 0.54933 0.0
C1421 C 0.66385 0.77174 0.55206 0.0
C1422 C 0.64119 0.78774 0.51558 0.0
C1423 C 0.62491 0.77893 0.50325 0.0
C1424 C 0.62415 0.77096 0.48459 0.0
C1425 C 0.6396 0.77154 0.47801 0.0
C1426 C 0.65604 0.78089 0.49026 0.0
C1427 C 0.65679 0.78888 0.50886 0.0
C1428 C 0.63822 0.82101 0.52258 0.0
C1429 C 0.62249 0.82204 0.51889 0.0
C1430 C 0.62165 0.83318 0.50504 0.0
C1431 C 0.63663 0.84356 0.49462 0.0
C1432 C 0.65202 0.84177 0.49784 0.0
C1433 C 0.65283 0.83065 0.51169 0.0
C1434 C 0.65254 0.84531 0.65207 0.0
C1435 C 0.65152 0.72141 0.53979 0.0
H1436 H 0.17736 0.84392 0.69303 0.0
H1437 H 0.05497 0.68585 0.52043 0.0
H1438 H 0.18245 0.84478 0.57157 0.0
H1439 H 0.21042 0.87239 0.58597 0.0
H1440 H 0.22577 0.83729 0.61553 0.0
H1441 H 0.19786 0.80957 0.6003 0.0
H1442 H 0.1612 0.83065 0.60843 0.0
H1443 H 0.16798 0.84107 0.64327 0.0
H1444 H 0.16936 0.79113 0.65407 0.0
H1445 H 0.16277 0.78098 0.61915 0.0
H1446 H 0.12074 0.79781 0.59726 0.0
H1447 H 0.09676 0.78405 0.61883 0.0
H1448 H 0.1039 0.73621 0.61979 0.0
H1449 H 0.12785 0.75012 0.5981 0.0
H1450 H 0.10282 0.77453 0.56008 0.0
H1451 H 0.0736 0.7472 0.54733 0.0
H1452 H 0.10048 0.71592 0.53576 0.0
H1453 H 0.12957 0.7433 0.54874 0.0
H1454 H 0.1244 0.79256 0.52853 0.0
H1455 H 0.11355 0.7829 0.49404 0.0
H1456 H 0.14984 0.76128 0.48893 0.0
H1457 H 0.16045 0.77086 0.52359 0.0
H1458 H 0.16175 0.82292 0.52953 0.0
H1459 H 0.18361 0.84195 0.50774 0.0
H1460 H 0.22202 0.82783 0.53272 0.0
H1461 H 0.19965 0.80791 0.5539 0.0
O1462 O 0.17475 0.83957 0.67931 0.0
O1463 O 0.17524 0.81363 0.68409 0.0
O1464 O 0.05312 0.71344 0.53214 0.0
O1465 O 0.06633 0.69682 0.52571 0.0
C1466 C 0.17037 0.80846 0.57715 0.0
C1467 C 0.15744 0.79881 0.59014 0.0
C1468 C 0.14027 0.78348 0.58297 0.0
C1469 C 0.13605 0.77745 0.56291 0.0
C1470 C 0.14869 0.78737 0.5498 0.0
C1471 C 0.1659 0.80288 0.55689 0.0
C1472 C 0.18808 0.82516 0.5849 0.0
C1473 C 0.19195 0.84305 0.58099 0.0
C1474 C 0.20788 0.85888 0.58958 0.0
C1475 C 0.22017 0.85712 0.6025 0.0
C1476 C 0.21649 0.83912 0.60585 0.0
C1477 C 0.20059 0.82329 0.59717 0.0
C1478 C 0.16159 0.80512 0.61129 0.0
C1479 C 0.16307 0.82204 0.61835 0.0
C1480 C 0.1669 0.82793 0.63825 0.0
C1481 C 0.16923 0.81694 0.65146 0.0
C1482 C 0.16766 0.79993 0.6443 0.0
C1483 C 0.16387 0.79409 0.62438 0.0
C1484 C 0.12603 0.77498 0.59628 0.0
C1485 C 0.11717 0.78442 0.60225 0.0
C1486 C 0.1035 0.77654 0.61449 0.0
C1487 C 0.09869 0.75927 0.62125 0.0
C1488 C 0.1076 0.74978 0.61523 0.0
C1489 C 0.12117 0.75759 0.60274 0.0
C1490 C 0.11825 0.76081 0.5555 0.0
C1491 C 0.10232 0.7617 0.55497 0.0
C1492 C 0.08567 0.7461 0.54759 0.0
C1493 C 0.0847 0.72935 0.54054 0.0
C1494 C 0.10074 0.72857 0.54109 0.0
C1495 C 0.11736 0.74417 0.5485 0.0
C1496 C 0.14309 0.78226 0.52857 0.0
C1497 C 0.12997 0.7857 0.51994 0.0
C1498 C 0.12381 0.7802 0.50026 0.0
C1499 C 0.13049 0.77097 0.48879 0.0
C1500 C 0.14399 0.7679 0.49737 0.0
C1501 C 0.15024 0.77353 0.51714 0.0
C1502 C 0.17897 0.81376 0.54311 0.0
C1503 C 0.17465 0.82344 0.52991 0.0
C1504 C 0.18715 0.8343 0.51747 0.0
C1505 C 0.20435 0.83601 0.51834 0.0
C1506 C 0.20875 0.8265 0.53167 0.0
C1507 C 0.19604 0.81522 0.54376 0.0
C1508 C 0.17325 0.82321 0.6726 0.0
C1509 C 0.06707 0.71277 0.53257 0.0
H1510 H 0.18836 0.35482 0.70891 0.0
H1511 H 0.04609 0.34462 0.55798 0.0
H1512 H 0.20168 0.37853 0.61322 0.0
H1513 H 0.22492 0.37156 0.62479 0.0
H1514 H 0.19771 0.31952 0.58729 0.0
H1515 H 0.17455 0.32672 0.57571 0.0
H1516 H 0.17053 0.37812 0.63692 0.0
H1517 H 0.17893 0.37339 0.66958 0.0
H1518 H 0.16638 0.31782 0.6482 0.0
H1519 H 0.15777 0.32263 0.6157 0.0
H1520 H 0.13671 0.38122 0.61649 0.0
H1521 H 0.11455 0.37646 0.63958 0.0
H1522 H 0.10017 0.31861 0.63901 0.0
H1523 H 0.12223 0.32354 0.6161 0.0
H1524 H 0.13648 0.388 0.57258 0.0
H1525 H 0.10886 0.38916 0.56451 0.0
H1526 H 0.07647 0.33001 0.56991 0.0
H1527 H 0.1042 0.32903 0.57777 0.0
H1528 H 0.16295 0.39046 0.54661 0.0
H1529 H 0.15249 0.39237 0.51338 0.0
H1530 H 0.11479 0.33286 0.50716 0.0
H1531 H 0.12496 0.33116 0.5403 0.0
H1532 H 0.20098 0.38665 0.56946 0.0
H1533 H 0.22106 0.39093 0.54403 0.0
H1534 H 0.17878 0.33985 0.5115 0.0
H1535 H 0.15911 0.33523 0.53728 0.0
O1536 O 0.18475 0.35631 0.69594 0.0
O1537 O 0.17787 0.32775 0.68428 0.0
O1538 O 0.0745 0.37492 0.55841 0.0
O1539 O 0.05723 0.34455 0.56108 0.0
C1540 C 0.17058 0.35562 0.58936 0.0
C1541 C 0.15919 0.35397 0.60402 0.0
C1542 C 0.14353 0.3552 0.59966 0.0
C1543 C 0.1391 0.35782 0.58059 0.0
C1544 C 0.15038 0.35935 0.56595 0.0
C1545 C 0.16625 0.35848 0.57034 0.0
C1546 C 0.18632 0.35303 0.59381 0.0
C1547 C 0.2009 0.36575 0.60733 0.0
C1548 C 0.21405 0.36161 0.61409 0.0
C1549 C 0.21278 0.34461 0.60743 0.0
C1550 C 0.1989 0.33259 0.59284 0.0
C1551 C 0.18572 0.33671 0.58615 0.0
C1552 C 0.1636 0.35075 0.62396 0.0
C1553 C 0.16948 0.36489 0.63937 0.0
C1554 C 0.17433 0.36217 0.65798 0.0
C1555 C 0.17338 0.34525 0.66149 0.0
C1556 C 0.16729 0.33103 0.646 0.0
C1557 C 0.16239 0.33374 0.62743 0.0
C1558 C 0.13117 0.35276 0.61476 0.0
C1559 C 0.12891 0.36761 0.6216 0.0
C1560 C 0.11628 0.36487 0.63475 0.0
C1561 C 0.10587 0.34732 0.64149 0.0
C1562 C 0.10832 0.33251 0.63472 0.0
C1563 C 0.12088 0.33524 0.62149 0.0
C1564 C 0.12231 0.35845 0.57576 0.0
C1565 C 0.1234 0.37531 0.57195 0.0
C1566 C 0.10761 0.37593 0.56738 0.0
C1567 C 0.09045 0.35966 0.56658 0.0
C1568 C 0.08945 0.34278 0.57042 0.0
C1569 C 0.10526 0.34219 0.57494 0.0
C1570 C 0.14479 0.36064 0.54571 0.0
C1571 C 0.15253 0.37786 0.53796 0.0
C1572 C 0.14657 0.37893 0.51908 0.0
C1573 C 0.13316 0.36273 0.50761 0.0
C1574 C 0.1255 0.3455 0.51546 0.0
C1575 C 0.13119 0.34451 0.53441 0.0
C1576 C 0.17846 0.3608 0.55507 0.0
C1577 C 0.19608 0.37637 0.55686 0.0
C1578 C 0.20748 0.37884 0.54235 0.0
C1579 C 0.20128 0.36603 0.52561 0.0
C1580 C 0.18371 0.35029 0.52395 0.0
C1581 C 0.17247 0.34761 0.53867 0.0
C1582 C 0.17878 0.3425 0.68122 0.0
C1583 C 0.07363 0.36025 0.56177 0.0
H1584 H 0.00726 0.38605 0.05087 0.0
C1585 C 0.99875 0.38402 0.0376 0.0
H1586 H 0.97804 0.38787 0.02474 0.0
H1587 H 0.98008 0.39961 0.12228 0.0
H1588 H 0.97097 0.3669 0.12152 0.0
H1589 H 0.96722 0.34833 0.09064 0.0
H1590 H 0.97299 0.36254 0.06038 0.0
C1591 C 0.98627 0.3893 0.038 0.0
C1592 C 0.98501 0.39929 0.05592 0.0
C1593 C 0.98063 0.39052 0.07331 0.0
C1594 C 0.9819 0.401 0.09096 0.0
C1595 C 0.97867 0.3922 0.10833 0.0
C1596 C 0.97351 0.37342 0.10812 0.0
C1597 C 0.97146 0.36298 0.09075 0.0
C1598 C 0.97496 0.37135 0.07351 0.0
H1599 H 0.962 0.41854 0.11375 0.0
C1600 C 0.97573 0.42908 0.11965 0.0
H1601 H 0.0033 0.44285 0.11409 0.0
H1602 H 0.99268 0.42 0.02483 0.0
H1603 H 0.99935 0.45198 0.02515 0.0
H1604 H 0.00027 0.46967 0.05547 0.0
H1605 H 0.99442 0.45544 0.08571 0.0
C1606 C 0.98956 0.43157 0.10954 0.0
C1607 C 0.98666 0.41998 0.09097 0.0
C1608 C 0.98985 0.42837 0.07335 0.0
C1609 C 0.98908 0.41805 0.05581 0.0
C1610 C 0.99281 0.42702 0.03854 0.0
C1611 C 0.99673 0.44542 0.03851 0.0
C1612 C 0.99724 0.45539 0.05559 0.0
C1613 C 0.9939 0.44706 0.07285 0.0
H1614 H 0.60452 0.59696 0.12174 0.0
C1615 C 0.61367 0.59421 0.11386 0.0
H1616 H 0.62048 0.57388 0.10502 0.0
H1617 H 0.57617 0.54496 0.18296 0.0
H1618 H 0.60415 0.56967 0.20065 0.0
H1619 H 0.62975 0.59093 0.18324 0.0
H1620 H 0.62735 0.58773 0.148 0.0
C1621 C 0.61169 0.57712 0.11296 0.0
C1622 C 0.59755 0.56242 0.12332 0.0
C1623 C 0.5995 0.56395 0.14393 0.0
C1624 C 0.58502 0.55125 0.15395 0.0
C1625 C 0.58693 0.55379 0.17455 0.0
C1626 C 0.60291 0.56801 0.18492 0.0
C1627 C 0.6173 0.58 0.17512 0.0
C1628 C 0.6157 0.57807 0.15488 0.0
H1629 H 0.56578 0.5088 0.1629 0.0
C1630 C 0.55417 0.51074 0.16363 0.0
H1631 H 0.54157 0.52524 0.15294 0.0
H1632 H 0.59008 0.55495 0.08381 0.0
H1633 H 0.56246 0.5295 0.06599 0.0
H1634 H 0.53759 0.50693 0.08336 0.0
H1635 H 0.54015 0.50971 0.11866 0.0
C1636 C 0.55349 0.52378 0.15371 0.0
C1637 C 0.56891 0.53661 0.1433 0.0
C1638 C 0.56726 0.53465 0.1227 0.0
C1639 C 0.58163 0.54757 0.11269 0.0
C1640 C 0.57956 0.54547 0.09212 0.0
C1641 C 0.5638 0.53092 0.08173 0.0
C1642 C 0.5498 0.51822 0.09151 0.0
C1643 C 0.55142 0.51999 0.11176 0.0
H1644 H 0.4295 0.02171 0.04987 0.0
C1645 C 0.4158 0.00972 0.04739 0.0
H1646 H 0.39476 0.98744 0.05987 0.0
H1647 H 0.46815 0.00945 0.11957 0.0
H1648 H 0.47854 0.99947 0.09202 0.0
H1649 H 0.46129 0.99057 0.05957 0.0
H1650 H 0.43378 0.99192 0.05439 0.0
C1651 C 0.40857 0.99924 0.06197 0.0
C1652 C 0.41872 0.00379 0.08163 0.0
C1653 C 0.43447 0.00227 0.08447 0.0
C1654 C 0.44396 0.00656 0.10335 0.0
C1655 C 0.46007 0.00572 0.10567 0.0
C1656 C 0.46624 0.00011 0.08996 0.0
C1657 C 0.45657 0.99517 0.07168 0.0
C1658 C 0.44084 0.99615 0.06889 0.0
H1659 H 0.43691 0.98588 0.14019 0.0
C1660 C 0.44476 -0.00026 0.14815 0.0
H1661 H 0.4527 0.02824 0.14732 0.0
H1662 H 0.3891 0.0082 0.08122 0.0
H1663 H 0.37815 0.01703 0.10906 0.0
H1664 H 0.39405 0.02341 0.14195 0.0
H1665 H 0.42109 0.02109 0.1472 0.0
C1666 C 0.44619 0.01438 0.13949 0.0
C1667 C 0.43726 0.01154 0.11947 0.0
C1668 C 0.42155 0.01305 0.11664 0.0
C1669 C 0.41226 0.00917 0.0977 0.0
C1670 C 0.39659 0.0108 0.09531 0.0
C1671 C 0.39016 0.01589 0.11116 0.0
C1672 C 0.39913 0.01949 0.12968 0.0
C1673 C 0.41464 0.01812 0.13248 0.0
H1674 H 0.4035 0.95491 0.97402 0.0
C1675 C 0.40198 0.96683 0.97142 0.0
H1676 H 0.40997 0.99024 0.95572 0.0
H1677 H 0.48336 0.00106 0.93189 0.0
H1678 H 0.49456 0.0256 0.95874 0.0
H1679 H 0.4736 0.02733 0.98053 0.0
H1680 H 0.44135 0.00451 0.97566 0.0
C1681 C 0.41129 0.97819 0.95825 0.0
C1682 C 0.42402 0.97538 0.94688 0.0
C1683 C 0.4428 0.98878 0.94999 0.0
C1684 C 0.45485 0.98789 0.93736 0.0
C1685 C 0.47358 0.00135 0.94085 0.0
C1686 C 0.48019 0.01542 0.95627 0.0
C1687 C 0.46839 0.01639 0.96855 0.0
C1688 C 0.44991 0.00325 0.96554 0.0
H1689 H 0.46093 0.99797 0.89598 0.0
C1690 C 0.46498 0.98754 0.89401 0.0
H1691 H 0.46368 0.96381 0.90544 0.0
H1692 H 0.38871 0.94719 0.93685 0.0
H1693 H 0.3779 0.92217 0.91076 0.0
H1694 H 0.39905 0.9202 0.88948 0.0
H1695 H 0.43118 0.9434 0.89412 0.0
C1696 C 0.45991 0.97444 0.90647 0.0
C1697 C 0.44803 0.97371 0.92154 0.0
C1698 C 0.42947 0.95961 0.91917 0.0
C1699 C 0.41735 0.96056 0.93169 0.0
C1700 C 0.39865 0.94693 0.92818 0.0
C1701 C 0.39222 0.93251 0.91315 0.0
C1702 C 0.40413 0.93142 0.90115 0.0
C1703 C 0.42253 0.94482 0.90398 0.0
H1704 H 0.05223 0.42135 0.97943 0.0
C1705 C 0.04026 0.40805 0.97397 0.0
H1706 H 0.01709 0.39406 0.95343 0.0
H1707 H 0.03508 0.48176 0.95609 0.0
H1708 H 0.02812 0.479 0.98958 0.0
H1709 H 0.0223 0.45095 0.00527 0.0
H1710 H 0.02345 0.42558 0.98768 0.0
C1711 C 0.02866 0.40737 0.95957 0.0
C1712 C 0.03197 0.42431 0.95029 0.0
C1713 C 0.03063 0.43875 0.96066 0.0
C1714 C 0.03337 0.45463 0.9514 0.0
C1715 C 0.03259 0.46915 0.96226 0.0
C1716 C 0.02869 0.46778 0.98151 0.0
C1717 C 0.02544 0.45201 0.99035 0.0
C1718 C 0.02629 0.43759 0.98011 0.0
H1719 H 0.01061 0.46232 0.92118 0.0
C1720 C 0.02347 0.47272 0.91657 0.0
H1721 H 0.05107 0.48063 0.91579 0.0
H1722 H 0.03594 0.39937 0.92647 0.0
H1723 H 0.04207 0.40177 0.89276 0.0
H1724 H 0.04576 0.42878 0.87639 0.0
H1725 H 0.04347 0.45362 0.89366 0.0
C1726 C 0.03827 0.47152 0.92132 0.0
C1727 C 0.03681 0.45572 0.93163 0.0
C1728 C 0.03823 0.44134 0.92132 0.0
C1729 C 0.03583 0.42564 0.93066 0.0
C1730 C 0.0374 0.4115 0.92002 0.0
C1731 C 0.04096 0.41272 0.90067 0.0
C1732 C 0.04306 0.42794 0.89146 0.0
C1733 C 0.04173 0.44212 0.90157 0.0
H1734 H 0.61892 0.62092 0.0292 0.0
C1735 C 0.61026 0.62226 0.03924 0.0
H1736 H 0.5845 0.61926 0.04213 0.0
H1737 H 0.5726 0.62356 0.95101 0.0
H1738 H 0.57798 0.65387 0.96396 0.0
H1739 H 0.58713 0.66465 0.99892 0.0
H1740 H 0.59103 0.64518 0.02115 0.0
C1741 C 0.59334 0.6177 0.03256 0.0
C1742 C 0.58635 0.61053 0.01179 0.0
C1743 C 0.58373 0.62187 0.99908 0.0
C1744 C 0.57824 0.61556 0.97895 0.0
C1745 C 0.57639 0.62748 0.96647 0.0
C1746 C 0.57952 0.64496 0.97371 0.0
C1747 C 0.58469 0.65104 0.99339 0.0
C1748 C 0.58686 0.63972 0.00599 0.0
H1749 H 0.54375 0.58691 0.95066 0.0
C1750 C 0.55325 0.58543 0.94207 0.0
H1751 H 0.58006 0.59029 0.94251 0.0
H1752 H 0.58778 0.58426 0.03263 0.0
H1753 H 0.58197 0.55377 0.0198 0.0
H1754 H 0.57305 0.54307 0.9848 0.0
H1755 H 0.56976 0.56276 0.96247 0.0
C1756 C 0.57002 0.59121 0.95055 0.0
C1757 C 0.57513 0.59777 0.97166 0.0
C1758 C 0.5773 0.58623 0.98446 0.0
C1759 C 0.58273 0.59252 0.00458 0.0
C1760 C 0.58419 0.58042 0.01713 0.0
C1761 C 0.58077 0.56281 0.00998 0.0
C1762 C 0.57572 0.55678 0.99029 0.0
C1763 C 0.57393 0.56825 0.97762 0.0
H1764 H 0.00876 0.62792 0.01406 0.0
C1765 C 0.01798 0.62948 0.02649 0.0
H1766 H 0.03778 0.62331 0.03712 0.0
H1767 H 0.01086 0.55143 0.97874 0.0
H1768 H 0.00435 0.53855 0.00968 0.0
H1769 H 0.00823 0.55849 0.03952 0.0
H1770 H 0.01841 0.59132 0.03862 0.0
C1771 C 0.02902 0.62248 0.02462 0.0
C1772 C 0.02745 0.61079 0.0066 0.0
C1773 C 0.0213 0.59152 0.0074 0.0
C1774 C 0.01894 0.57997 0.99018 0.0
C1775 C 0.01278 0.5608 0.99137 0.0
C1776 C 0.00901 0.55322 0.00903 0.0
C1777 C 0.01117 0.56445 0.02583 0.0
C1778 C 0.01714 0.58333 0.0251 0.0
H1779 H 0.04717 0.58548 0.9522 0.0
C1780 C 0.0334 0.57567 0.94573 0.0
H1781 H 0.00558 0.5662 0.94794 0.0
H1782 H 0.04169 0.64753 1.00033 0.0
H1783 H 0.04774 0.66022 0.96927 0.0
H1784 H 0.04194 0.6398 0.93914 0.0
H1785 H 0.03036 0.60664 0.93993 0.0
C1786 C 0.01952 0.57532 0.95416 0.0
C1787 C 0.0227 0.58765 0.97221 0.0
C1788 C 0.02901 0.60693 0.9714 0.0
C1789 C 0.03169 0.61858 0.98867 0.0
C1790 C 0.03876 0.63792 0.98757 0.0
C1791 C 0.04241 0.64541 0.96985 0.0
C1792 C 0.03921 0.63393 0.95289 0.0
C1793 C 0.0326 0.61491 0.95357 0.0
H1794 H 0.3872 0.43621 0.97213 0.0
C1795 C 0.38678 0.4234 0.96688 0.0
H1796 H 0.39734 0.41109 0.94819 0.0
H1797 H 0.42524 0.47251 0.89054 0.0
H1798 H 0.39935 0.44678 0.87085 0.0
H1799 H 0.37811 0.41842 0.8853 0.0
H1800 H 0.38272 0.4156 0.9195 0.0
C1801 C 0.39819 0.42392 0.95417 0.0
C1802 C 0.41066 0.44142 0.94593 0.0
C1803 C 0.40755 0.44295 0.92598 0.0
C1804 C 0.41964 0.45937 0.91771 0.0
C1805 C 0.41641 0.46041 0.89764 0.0
C1806 C 0.40159 0.44573 0.88615 0.0
C1807 C 0.38964 0.42977 0.89428 0.0
C1808 C 0.39249 0.42832 0.91394 0.0
H1809 H 0.46775 0.48305 0.92217 0.0
C1810 C 0.46392 0.49258 0.91632 0.0
H1811 H 0.44333 0.49972 0.91481 0.0
H1812 H 0.42134 0.44245 0.98434 0.0
H1813 H 0.44705 0.46839 0.00407 0.0
H1814 H 0.46716 0.4975 0.99002 0.0
H1815 H 0.46178 0.50071 0.95604 0.0
C1816 C 0.44794 0.49069 0.9202 0.0
C1817 C 0.43479 0.47422 0.92941 0.0
C1818 C 0.43777 0.47283 0.94942 0.0
C1819 C 0.42582 0.45629 0.95766 0.0
C1820 C 0.42961 0.45491 0.97746 0.0
C1821 C 0.4444 0.46967 0.98894 0.0
C1822 C 0.45575 0.48604 0.98101 0.0
C1823 C 0.45255 0.48768 0.96149 0.0
H1824 H 0.56731 0.97707 0.01449 0.0
C1825 C 0.58191 0.98659 0.0159 0.0
H1826 H 0.60433 0.00561 0.00228 0.0
H1827 H 0.53541 0.95836 0.93127 0.0
H1828 H 0.53443 0.9302 0.94029 0.0
H1829 H 0.5547 0.93154 0.96798 0.0
H1830 H 0.5756 0.96092 0.98716 0.0
C1831 C 0.58978 0.9959 0.00082 0.0
C1832 C 0.57895 0.99505 0.98267 0.0
C1833 C 0.56768 0.9779 0.97084 0.0
C1834 C 0.55697 0.97733 0.95398 0.0
C1835 C 0.54465 0.95978 0.94347 0.0
C1836 C 0.54382 0.94347 0.94861 0.0
C1837 C 0.55516 0.94421 0.96425 0.0
C1838 C 0.56699 0.96117 0.97527 0.0
H1839 H 0.56067 0.98239 0.91196 0.0
C1840 C 0.55203 0.98848 0.91221 0.0
H1841 H 0.54008 -9e-05 0.92995 0.0
H1842 H 0.59848 0.03015 0.00243 0.0
H1843 H 0.60078 0.05851 0.99226 0.0
H1844 H 0.58424 0.05792 0.96159 0.0
H1845 H 0.56512 0.02894 0.94105 0.0
C1846 C 0.54893 0.99409 0.92943 0.0
C1847 C 0.55867 0.99413 0.94806 0.0
C1848 C 0.57011 0.0113 0.95975 0.0
C1849 C 0.58006 0.01172 0.97717 0.0
C1850 C 0.59094 0.02901 0.98882 0.0
C1851 C 0.59235 0.04543 0.9832 0.0
C1852 C 0.58301 0.0451 0.96595 0.0
C1853 C 0.57202 0.0283 0.95431 0.0
H1854 H 0.59081 0.00638 0.10755 0.0
C1855 C 0.59576 0.01744 0.09799 0.0
H1856 H 0.59473 0.04081 0.08943 0.0
H1857 H 0.53105 0.98664 0.14697 0.0
H1858 H 0.52011 0.96199 0.12053 0.0
H1859 H 0.5341 0.96785 0.08972 0.0
H1860 H 0.55975 0.99832 0.08569 0.0
C1861 C 0.5897 0.02952 0.09866 0.0
C1862 C 0.57724 0.02835 0.11339 0.0
C1863 C 0.56107 0.01118 0.1147 0.0
C1864 C 0.55192 0.00838 0.13169 0.0
C1865 C 0.53755 0.99016 0.13377 0.0
C1866 C 0.53127 0.97574 0.11876 0.0
C1867 C 0.53921 0.979 0.10147 0.0
C1868 C 0.55398 0.99647 0.09941 0.0
H1869 H 0.52227 0.01073 0.1499 0.0
C1870 C 0.53053 0.01485 0.16382 0.0
H1871 H 0.55657 0.0249 0.17825 0.0
H1872 H 0.60646 0.06382 0.11436 0.0
H1873 H 0.61528 0.08972 0.13888 0.0
H1874 H 0.5975 0.08594 0.16667 0.0
H1875 H 0.57099 0.05611 0.1703 0.0
C1876 C 0.54836 0.02103 0.16433 0.0
C1877 C 0.55765 0.02355 0.1463 0.0
C1878 C 0.57273 0.04131 0.14399 0.0
C1879 C 0.5827 0.04364 0.12767 0.0
C1880 C 0.59822 0.06128 0.12627 0.0
C1881 C 0.60344 0.07631 0.14026 0.0
C1882 C 0.59345 0.07418 0.15591 0.0
C1883 C 0.57828 0.05693 0.15784 0.0
H1884 H 0.99533 0.60865 0.10455 0.0
C1885 C 0.98399 0.60603 0.09426 0.0
H1886 H 0.95843 0.5854 0.07995 0.0
H1887 H 0.97902 0.52286 0.09595 0.0
H1888 H 0.97814 0.52189 0.06076 0.0
H1889 H 0.97331 0.54434 0.04346 0.0
H1890 H 0.96946 0.56798 0.06119 0.0
C1891 C 0.96973 0.58859 0.09056 0.0
C1892 C 0.96974 0.57327 0.10057 0.0
C1893 C 0.97181 0.55946 0.08997 0.0
C1894 C 0.97464 0.54655 0.09996 0.0
C1895 C 0.9769 0.53304 0.08906 0.0
C1896 C 0.97641 0.53232 0.06888 0.0
C1897 C 0.9737 0.54497 0.05914 0.0
C1898 C 0.9715 0.55847 0.06948 0.0
H1899 H 0.95288 0.51828 0.13781 0.0
C1900 C 0.96661 0.52063 0.13949 0.0
H1901 H 0.99349 0.53816 0.13263 0.0
H1902 H 0.96288 0.59571 0.12483 0.0
H1903 H 0.96409 0.597 0.16 0.0
H1904 H 0.97102 0.57605 0.17757 0.0
H1905 H 0.97642 0.55348 0.16011 0.0
C1906 C 0.97948 0.53479 0.13103 0.0
C1907 C 0.9753 0.54744 0.12049 0.0
C1908 C 0.97263 0.56087 0.13106 0.0
C1909 C 0.96942 0.5735 0.12103 0.0
C1910 C 0.96607 0.58628 0.13182 0.0
C1911 C 0.96659 0.58708 0.15199 0.0
C1912 C 0.97043 0.57524 0.16187 0.0
C1913 C 0.97342 0.56227 0.15162 0.0
H1914 H 0.39186 0.39071 0.04466 0.0
C1915 C 0.39963 0.39098 0.03273 0.0
H1916 H 0.42551 0.39782 0.02479 0.0
H1917 H 0.46765 0.45639 0.09856 0.0
H1918 H 0.47613 0.47629 0.07238 0.0
H1919 H 0.46199 0.46345 0.03877 0.0
H1920 H 0.43941 0.43065 0.0311 0.0
C1921 C 0.41734 0.39674 0.03657 0.0
C1922 C 0.42667 0.40407 0.05667 0.0
C1923 C 0.43988 0.4233 0.06088 0.0
C1924 C 0.44783 0.43077 0.08031 0.0
C1925 C 0.46101 0.45003 0.0841 0.0
C1926 C 0.46604 0.46161 0.0692 0.0
C1927 C 0.45809 0.45438 0.05028 0.0
C1928 C 0.44515 0.43548 0.04608 0.0
H1929 H 0.46474 0.4137 0.11954 0.0
C1930 C 0.46141 0.42364 0.12619 0.0
H1931 H 0.44596 0.43686 0.1222 0.0
H1932 H 0.40394 0.36612 0.05316 0.0
H1933 H 0.39487 0.34635 0.07943 0.0
H1934 H 0.40694 0.35969 0.11343 0.0
H1935 H 0.42839 0.39277 0.12132 0.0
C1936 C 0.44994 0.42735 0.11594 0.0
C1937 C 0.44251 0.41905 0.09551 0.0
C1938 C 0.42951 0.39973 0.09127 0.0
C1939 C 0.42189 0.39217 0.07176 0.0
C1940 C 0.40959 0.37271 0.0678 0.0
C1941 C 0.40435 0.36118 0.08273 0.0
C1942 C 0.4112 0.36868 0.10186 0.0
C1943 C 0.4236 0.38771 0.10617 0.0
H1944 H 0.66652 0.71787 0.38398 0.0
C1945 C 0.65702 0.71675 0.3721 0.0
H1946 H 0.63575 0.72179 0.36395 0.0
H1947 H 0.61999 0.72458 0.45292 0.0
H1948 H 0.59517 0.69363 0.44082 0.0
H1949 H 0.59329 0.67987 0.4076 0.0
H1950 H 0.61633 0.69697 0.3863 0.0
C1951 C 0.64561 0.72302 0.37545 0.0
C1952 C 0.64616 0.73184 0.39501 0.0
C1953 C 0.63237 0.72188 0.40709 0.0
C1954 C 0.63331 0.72995 0.42614 0.0
C1955 C 0.61974 0.71935 0.43817 0.0
C1956 C 0.60546 0.70151 0.43144 0.0
C1957 C 0.60441 0.69375 0.41274 0.0
C1958 C 0.6177 0.70372 0.40067 0.0
H1959 H 0.62709 0.76023 0.4477 0.0
C1960 C 0.63817 0.76257 0.45823 0.0
H1961 H 0.66039 0.75826 0.46317 0.0
H1962 H 0.67381 0.75547 0.37481 0.0
H1963 H 0.6984 0.78662 0.38667 0.0
H1964 H 0.70023 0.80051 0.41981 0.0
H1965 H 0.67739 0.78337 0.44125 0.0
C1966 C 0.6494 0.75655 0.45302 0.0
C1967 C 0.64788 0.74814 0.43291 0.0
C1968 C 0.66148 0.75824 0.42067 0.0
C1969 C 0.66055 0.75015 0.40164 0.0
C1970 C 0.67405 0.76077 0.38954 0.0
C1971 C 0.6882 0.77871 0.39613 0.0
C1972 C 0.68922 0.78654 0.41478 0.0
C1973 C 0.67604 0.77652 0.42695 0.0
H1974 H 0.27741 0.90456 0.43398 0.0
C1975 C 0.28003 0.91722 0.44255 0.0
H1976 H 0.27354 0.92888 0.46638 0.0
H1977 H 0.19645 0.86666 0.47835 0.0
H1978 H 0.19071 0.89022 0.46675 0.0
H1979 H 0.2145 0.91738 0.45281 0.0
H1980 H 0.24429 0.92124 0.4507 0.0
C1981 C 0.2709 0.91615 0.45795 0.0
C1982 C 0.25606 0.89818 0.46336 0.0
C1983 C 0.23847 0.89572 0.46378 0.0
C1984 C 0.2246 0.87978 0.47127 0.0
C1985 C 0.20743 0.87823 0.47243 0.0
C1986 C 0.20393 0.89171 0.46584 0.0
C1987 C 0.21733 0.90701 0.45803 0.0
C1988 C 0.23441 0.90908 0.45699 0.0
H1989 H 0.23219 0.85722 0.51354 0.0
C1990 C 0.21834 0.84888 0.50662 0.0
H1991 H 0.20073 0.84221 0.48104 0.0
H1992 H 0.2886 0.89884 0.466 0.0
H1993 H 0.29339 0.87372 0.47435 0.0
H1994 H 0.26811 0.84418 0.48298 0.0
H1995 H 0.23801 0.83994 0.48394 0.0
C1996 C 0.21447 0.8508 0.48812 0.0
C1997 C 0.2282 0.86602 0.4778 0.0
C1998 C 0.2453 0.86766 0.47573 0.0
C1999 C 0.25951 0.88412 0.46932 0.0
C2000 C 0.27698 0.88622 0.46953 0.0
C2001 C 0.27998 0.87194 0.47448 0.0
C2002 C 0.26578 0.85535 0.47944 0.0
C2003 C 0.24862 0.85316 0.4801 0.0
H2004 H 0.10621 0.35117 0.38225 0.0
C2005 C 0.09231 0.34822 0.38185 0.0
H2006 H 0.07112 0.34496 0.39811 0.0
H2007 H 0.09281 0.32008 0.47336 0.0
H2008 H 0.06348 0.29328 0.4617 0.0
H2009 H 0.04821 0.29141 0.42961 0.0
H2010 H 0.06207 0.31644 0.40916 0.0
C2011 C 0.08502 0.34793 0.39855 0.0
C2012 C 0.09463 0.34927 0.41779 0.0
C2013 C 0.08651 0.33422 0.42938 0.0
C2014 C 0.09559 0.33502 0.44761 0.0
C2015 C 0.08682 0.32007 0.45916 0.0
C2016 C 0.06991 0.30458 0.45269 0.0
C2017 C 0.0613 0.30354 0.43465 0.0
C2018 C 0.06942 0.31811 0.42307 0.0
H2019 H 0.12501 0.37603 0.48558 0.0
C2020 C 0.12655 0.36407 0.48789 0.0
H2021 H 0.1242 0.33917 0.47525 0.0
H2022 H 0.11261 0.38205 0.40113 0.0
H2023 H 0.14283 0.40802 0.41177 0.0
H2024 H 0.1603 0.40748 0.44111 0.0
H2025 H 0.14739 0.38126 0.46032 0.0
C2026 C 0.12234 0.35094 0.47301 0.0
C2027 C 0.11302 0.35061 0.45399 0.0
C2028 C 0.1213 0.3655 0.44224 0.0
C2029 C 0.11178 0.36518 0.42453 0.0
C2030 C 0.11967 0.38101 0.41403 0.0
C2031 C 0.13696 0.39611 0.42008 0.0
C2032 C 0.14675 0.39586 0.43665 0.0
C2033 C 0.1391 0.38077 0.44765 0.0
H2034 H 0.05972 0.2822 0.31398 0.0
C2035 C 0.0626 0.29595 0.31061 0.0
H2036 H 0.076 0.31777 0.29295 0.0
H2037 H 0.13367 0.29772 0.26804 0.0
H2038 H 0.15108 0.31814 0.29731 0.0
H2039 H 0.13646 0.32792 0.32122 0.0
H2040 H 0.10427 0.31733 0.31596 0.0
C2041 C 0.07308 0.30407 0.29649 0.0
C2042 C 0.08076 0.29482 0.28464 0.0
C2043 C 0.0994 0.30074 0.28817 0.0
C2044 C 0.10779 0.295 0.27446 0.0
C2045 C 0.12658 0.30158 0.27803 0.0
C2046 C 0.13674 0.3133 0.29478 0.0
C2047 C 0.12851 0.31882 0.30823 0.0
C2048 C 0.11006 0.31269 0.30502 0.0
H2049 H 0.10202 0.29853 0.22442 0.0
C2050 C 0.10841 0.29008 0.22527 0.0
H2051 H 0.11428 0.27368 0.24327 0.0
H2052 H 0.04424 0.27937 0.27454 0.0
H2053 H 0.02652 0.25757 0.24619 0.0
H2054 H 0.04098 0.24695 0.22289 0.0
H2055 H 0.07333 0.25825 0.22775 0.0
C2056 C 0.1069 0.28099 0.24106 0.0
C2057 C 0.09746 0.28348 0.25723 0.0
C2058 C 0.07848 0.27622 0.25458 0.0
C2059 C 0.07012 0.28203 0.26823 0.0
C2060 C 0.05127 0.27523 0.26477 0.0
C2061 C 0.04094 0.26272 0.24855 0.0
C2062 C 0.04908 0.25676 0.23541 0.0
C2063 C 0.06764 0.2634 0.23831 0.0
H2064 H 0.67669 0.73597 0.2901 0.0
C2065 C 0.68814 0.73849 0.30015 0.0
H2066 H 0.71433 0.75875 0.31336 0.0
H2067 H 0.70217 0.79189 0.23208 0.0
H2068 H 0.70762 0.76874 0.2161 0.0
H2069 H 0.71163 0.74656 0.23481 0.0
H2070 H 0.71016 0.74741 0.26968 0.0
C2071 C 0.70287 0.75567 0.30304 0.0
C2072 C 0.70345 0.77092 0.29238 0.0
C2073 C 0.70507 0.77072 0.27214 0.0
C2074 C 0.70339 0.78394 0.26147 0.0
C2075 C 0.70402 0.78269 0.24108 0.0
C2076 C 0.70699 0.76934 0.23166 0.0
C2077 C 0.70922 0.75684 0.24218 0.0
C2078 C 0.70826 0.75743 0.26218 0.0
H2079 H 0.72551 0.82618 0.2544 0.0
C2080 C 0.71217 0.82471 0.25189 0.0
H2081 H 0.68512 0.81004 0.25914 0.0
H2082 H 0.70084 0.77576 0.33117 0.0
H2083 H 0.69671 0.7998 0.34756 0.0
H2084 H 0.69463 0.82331 0.32926 0.0
H2085 H 0.69656 0.82285 0.29444 0.0
C2086 C 0.69835 0.81122 0.26006 0.0
C2087 C 0.70077 0.79777 0.27124 0.0
C2088 C 0.69983 0.79837 0.2916 0.0
C2089 C 0.70119 0.78494 0.30218 0.0
C2090 C 0.69995 0.78569 0.32246 0.0
C2091 C 0.6976 0.79942 0.33204 0.0
C2092 C 0.69642 0.81264 0.32173 0.0
C2093 C 0.69751 0.8122 0.30175 0.0
H2094 H 0.27886 0.95253 0.3663 0.0
C2095 C 0.27018 0.95161 0.37751 0.0
H2096 H 0.24361 0.94478 0.38306 0.0
H2097 H 0.22933 0.95544 0.29353 0.0
H2098 H 0.23307 0.9842 0.30931 0.0
H2099 H 0.2421 0.99269 0.34459 0.0
H2100 H 0.24755 0.97249 0.36432 0.0
C2101 C 0.25261 0.94563 0.37228 0.0
C2102 C 0.245 0.93945 0.35155 0.0
C2103 C 0.24139 0.95113 0.34035 0.0
C2104 C 0.23597 0.94611 0.32003 0.0
C2105 C 0.23317 0.95841 0.30905 0.0
C2106 C 0.23533 0.97499 0.31792 0.0
C2107 C 0.24044 0.97978 0.33779 0.0
C2108 C 0.24351 0.96808 0.34894 0.0
H2109 H 0.20299 0.91796 0.28821 0.0
C2110 C 0.21364 0.91824 0.2802 0.0
H2111 H 0.24122 0.9256 0.28193 0.0
H2112 H 0.24827 0.91266 0.36939 0.0
H2113 H 0.24376 0.8835 0.35384 0.0
H2114 H 0.23466 0.87492 0.31858 0.0
H2115 H 0.22994 0.89541 0.29868 0.0
C2116 C 0.23021 0.92473 0.28963 0.0
C2117 C 0.23394 0.92928 0.31108 0.0
C2118 C 0.23672 0.91719 0.32248 0.0
C2119 C 0.24212 0.92221 0.34276 0.0
C2120 C 0.24451 0.90971 0.35385 0.0
C2121 C 0.24187 0.89287 0.34513 0.0
C2122 C 0.23674 0.88804 0.32528 0.0
C2123 C 0.23414 0.89997 0.31402 0.0
H2124 H 0.66769 0.9545 0.34854 0.0
C2125 C 0.67481 0.95441 0.36204 0.0
H2126 H 0.6933 0.94738 0.3749 0.0
H2127 H 0.67928 0.8866 0.30644 0.0
H2128 H 0.66568 0.86735 0.33237 0.0
H2129 H 0.66249 0.88113 0.36337 0.0
H2130 H 0.67295 0.91421 0.36868 0.0
C2131 C 0.68654 0.94815 0.36151 0.0
C2132 C 0.68906 0.94014 0.34297 0.0
C2133 C 0.68287 0.92075 0.34014 0.0
C2134 C 0.68449 0.91276 0.32219 0.0
C2135 C 0.67821 0.89336 0.31973 0.0
C2136 C 0.67041 0.88215 0.3345 0.0
C2137 C 0.66864 0.88991 0.35196 0.0
C2138 C 0.67474 0.90895 0.35482 0.0
H2139 H 0.72093 0.92701 0.29081 0.0
C2140 C 0.70823 0.91778 0.2818 0.0
H2141 H 0.67978 0.90671 0.27916 0.0
H2142 H 0.70446 0.97815 0.34455 0.0
H2143 H 0.71749 0.99727 0.3184 0.0
H2144 H 0.71864 0.9831 0.28659 0.0
H2145 H 0.70706 0.94981 0.28085 0.0
C2146 C 0.69267 0.91538 0.28795 0.0
C2147 C 0.69225 0.92414 0.3071 0.0
C2148 C 0.69866 0.94358 0.31 0.0
C2149 C 0.69736 0.95164 0.32809 0.0
C2150 C 0.70453 0.9712 0.33089 0.0
C2151 C 0.71215 0.98236 0.31603 0.0
C2152 C 0.71285 0.97439 0.29814 0.0
C2153 C 0.7062 0.95524 0.29507 0.0
H2154 H 0.07171 0.77528 0.31473 0.0
C2155 C 0.06805 0.76232 0.30605 0.0
H2156 H 0.07197 0.74978 0.28087 0.0
H2157 H 0.10581 0.83786 0.26123 0.0
H2158 H 0.07574 0.83322 0.26378 0.0
H2159 H 0.05144 0.80395 0.2741 0.0
H2160 H 0.05719 0.77942 0.28244 0.0
C2161 C 0.0755 0.76275 0.28946 0.0
C2162 C 0.08978 0.78043 0.28293 0.0
C2163 C 0.08584 0.79423 0.27724 0.0
C2164 C 0.09951 0.81062 0.27013 0.0
C2165 C 0.09564 0.82474 0.26575 0.0
C2166 C 0.07848 0.82233 0.2673 0.0
C2167 C 0.06483 0.80588 0.2732 0.0
C2168 C 0.06837 0.79195 0.27809 0.0
H2169 H 0.11292 0.82148 0.23171 0.0
C2170 C 0.12661 0.83015 0.23894 0.0
H2171 H 0.14376 0.83712 0.26501 0.0
H2172 H 0.10224 0.75752 0.2942 0.0
H2173 H 0.132 0.76175 0.29067 0.0
H2174 H 0.155 0.78906 0.27619 0.0
H2175 H 0.14849 0.81238 0.26539 0.0
C2176 C 0.13021 0.82826 0.25755 0.0
C2177 C 0.11666 0.81258 0.26751 0.0
C2178 C 0.1207 0.79897 0.27359 0.0
C2179 C 0.1073 0.78299 0.28148 0.0
C2180 C 0.11178 0.76975 0.28772 0.0
C2181 C 0.12884 0.77202 0.28584 0.0
C2182 C 0.14179 0.78741 0.27773 0.0
C2183 C 0.13786 0.80074 0.27162 0.0
H2184 H 0.26361 0.33963 0.34135 0.0
C2185 C 0.25615 0.33309 0.35347 0.0
H2186 H 0.23059 0.31375 0.36196 0.0
H2187 H 0.21989 0.33786 0.27313 0.0
H2188 H 0.23171 0.36895 0.28929 0.0
H2189 H 0.24107 0.37574 0.32458 0.0
H2190 H 0.23925 0.35155 0.34372 0.0
C2191 C 0.23828 0.32061 0.35012 0.0
C2192 C 0.22877 0.31555 0.33003 0.0
C2193 C 0.22853 0.32948 0.31937 0.0
C2194 C 0.22176 0.32519 0.29936 0.0
C2195 C 0.22361 0.33992 0.28863 0.0
C2196 C 0.23058 0.35794 0.29769 0.0
C2197 C 0.23595 0.36179 0.31753 0.0
C2198 C 0.23499 0.3478 0.32831 0.0
H2199 H 0.18692 0.30992 0.27278 0.0
C2200 C 0.19261 0.30415 0.26279 0.0
H2201 H 0.21248 0.29649 0.25976 0.0
H2202 H 0.22615 0.28532 0.34651 0.0
H2203 H 0.2121 0.25358 0.33103 0.0
H2204 H 0.19828 0.2456 0.297 0.0
H2205 H 0.1986 0.26937 0.27816 0.0
C2206 C 0.20627 0.30177 0.26957 0.0
C2207 C 0.21367 0.30654 0.29047 0.0
C2208 C 0.21304 0.29241 0.30142 0.0
C2209 C 0.22071 0.29694 0.32116 0.0
C2210 C 0.22033 0.28264 0.33155 0.0
C2211 C 0.21232 0.26434 0.32284 0.0
C2212 C 0.20455 0.25986 0.30367 0.0
C2213 C 0.20487 0.27366 0.29302 0.0
H2214 H 0.26309 0.38706 0.42199 0.0
C2215 C 0.26798 0.37802 0.42676 0.0
H2216 H 0.26638 0.3592 0.44666 0.0
H2217 H 0.22878 0.40087 0.49327 0.0
H2218 H 0.2569 0.43014 0.49237 0.0
H2219 H 0.28123 0.43131 0.47415 0.0
H2220 H 0.27739 0.40343 0.45629 0.0
C2221 C 0.26154 0.36834 0.44205 0.0
C2222 C 0.24692 0.36836 0.45255 0.0
C2223 C 0.24986 0.38474 0.46365 0.0
C2224 C 0.23635 0.38386 0.47522 0.0
C2225 C 0.23903 0.40059 0.48513 0.0
C2226 C 0.25503 0.41751 0.48459 0.0
C2227 C 0.26869 0.41818 0.47426 0.0
C2228 C 0.26624 0.40204 0.46393 0.0
H2229 H 0.22804 0.37513 0.51525 0.0
C2230 C 0.21366 0.36891 0.51053 0.0
H2231 H 0.19366 0.35885 0.48647 0.0
H2232 H 0.23606 0.335 0.43119 0.0
H2233 H 0.2082 0.30567 0.43271 0.0
H2234 H 0.18578 0.30369 0.45457 0.0
H2235 H 0.19096 0.33102 0.47486 0.0
C2236 C 0.20792 0.36467 0.49142 0.0
C2237 C 0.22056 0.36641 0.47677 0.0
C2238 C 0.2173 0.35023 0.46506 0.0
C2239 C 0.23041 0.35126 0.4528 0.0
C2240 C 0.22674 0.33492 0.44109 0.0
C2241 C 0.21077 0.31801 0.44175 0.0
C2242 C 0.19813 0.3169 0.45403 0.0
C2243 C 0.20129 0.33275 0.4656 0.0
H2244 H 0.61768 0.91554 0.41919 0.0
C2245 C 0.6303 0.92814 0.4248 0.0
H2246 H 0.65342 0.94012 0.44539 0.0
H2247 H 0.62263 0.88135 0.50539 0.0
H2248 H 0.62439 0.90838 0.52299 0.0
H2249 H 0.63111 0.93633 0.50665 0.0
H2250 H 0.63626 0.93747 0.47263 0.0
C2251 C 0.64118 0.92744 0.43913 0.0
C2252 C 0.63608 0.91004 0.44841 0.0
C2253 C 0.63269 0.90945 0.4682 0.0
C2254 C 0.6285 0.89322 0.47754 0.0
C2255 C 0.62563 0.89321 0.49747 0.0
C2256 C 0.62662 0.90865 0.50778 0.0
C2257 C 0.63043 0.9244 0.49859 0.0
C2258 C 0.63341 0.92487 0.47904 0.0
H2259 H 0.65028 0.86579 0.47538 0.0
C2260 C 0.63749 0.85737 0.48136 0.0
H2261 H 0.61121 0.85358 0.48321 0.0
H2262 H 0.64359 0.90713 0.41085 0.0
H2263 H 0.64113 0.87981 0.39307 0.0
H2264 H 0.63171 0.85087 0.40864 0.0
H2265 H 0.62505 0.84925 0.44224 0.0
C2266 C 0.62411 0.86106 0.47733 0.0
C2267 C 0.62756 0.87754 0.46703 0.0
C2268 C 0.63059 0.87796 0.44713 0.0
C2269 C 0.63523 0.89438 0.43791 0.0
C2270 C 0.63929 0.89481 0.41837 0.0
C2271 C 0.63805 0.87925 0.40802 0.0
C2272 C 0.63281 0.86298 0.4168 0.0
C2273 C 0.62911 0.86226 0.43612 0.0
H2274 H 0.09884 0.72798 0.36389 0.0
C2275 C 0.0854 0.72615 0.36459 0.0
H2276 H 0.06683 0.72677 0.38287 0.0
H2277 H 0.09985 0.71784 0.46175 0.0
H2278 H 0.0728 0.68723 0.45485 0.0
H2279 H 0.05463 0.67757 0.42288 0.0
H2280 H 0.06332 0.69854 0.39765 0.0
C2281 C 0.08031 0.72881 0.3819 0.0
C2282 C 0.09245 0.73411 0.40036 0.0
C2283 C 0.08742 0.72156 0.41482 0.0
C2284 C 0.09805 0.72703 0.43316 0.0
C2285 C 0.0924 0.71437 0.44749 0.0
C2286 C 0.07688 0.69674 0.44373 0.0
C2287 C 0.06664 0.69131 0.42574 0.0
C2288 C 0.07177 0.70351 0.41141 0.0
H2289 H 0.11559 0.77123 0.46177 0.0
C2290 C 0.12298 0.76498 0.46803 0.0
H2291 H 0.12965 0.74387 0.4629 0.0
H2292 H 0.10558 0.76226 0.37643 0.0
H2293 H 0.13345 0.79214 0.38279 0.0
H2294 H 0.15309 0.80053 0.41362 0.0
H2295 H 0.14471 0.77915 0.43845 0.0
C2296 C 0.12359 0.75148 0.45695 0.0
C2297 C 0.11377 0.74502 0.43699 0.0
C2298 C 0.11932 0.75723 0.4222 0.0
C2299 C 0.10844 0.75198 0.40404 0.0
C2300 C 0.11367 0.76507 0.39014 0.0
C2301 C 0.12961 0.78238 0.39365 0.0
C2302 C 0.14063 0.78714 0.41104 0.0
C2303 C 0.13561 0.77478 0.4252 0.0
H2304 H 0.31377 0.0555 0.69845 0.0
C2305 C 0.32435 0.05201 0.70071 0.0
H2306 H 0.34353 0.0519 0.7213 0.0
H2307 H 0.32399 0.11427 0.76078 0.0
H2308 H 0.33861 0.13255 0.73461 0.0
H2309 H 0.34955 0.12008 0.7089 0.0
H2310 H 0.3456 0.08915 0.709 0.0
C2311 C 0.33313 0.05555 0.71857 0.0
C2312 C 0.32843 0.064 0.73517 0.0
C2313 C 0.33164 0.0825 0.73536 0.0
C2314 C 0.3262 0.09008 0.75073 0.0
C2315 C 0.32856 0.10813 0.74994 0.0
C2316 C 0.33683 0.11874 0.73492 0.0
C2317 C 0.34292 0.11169 0.7204 0.0
C2318 C 0.34043 0.09382 0.72056 0.0
H2319 H 0.34116 0.10751 0.79235 0.0
C2320 C 0.32718 0.1021 0.79543 0.0
H2321 H 0.29993 0.08108 0.78648 0.0
H2322 H 0.32051 0.02826 0.73933 0.0
H2323 H 0.30708 0.0105 0.76624 0.0
H2324 H 0.29889 0.02415 0.79363 0.0
H2325 H 0.30394 0.05559 0.79421 0.0
C2326 C 0.31394 0.08787 0.7833 0.0
C2327 C 0.31844 0.07954 0.76642 0.0
C2328 C 0.31548 0.06116 0.76636 0.0
C2329 C 0.32045 0.05338 0.75071 0.0
C2330 C 0.31717 0.03493 0.75094 0.0
C2331 C 0.30945 0.02456 0.76629 0.0
C2332 C 0.30482 0.03225 0.7817 0.0
C2333 C 0.30778 0.05032 0.78183 0.0
H2334 H 0.92142 0.24968 0.77419 0.0
C2335 C 0.93288 0.24907 0.76905 0.0
H2336 H 0.94665 0.23394 0.7683 0.0
H2337 H 0.91067 0.20644 0.84755 0.0
H2338 H 0.94168 0.22883 0.86022 0.0
H2339 H 0.96434 0.24727 0.83833 0.0
H2340 H 0.95596 0.24351 0.80357 0.0
C2341 C 0.93475 0.23435 0.77216 0.0
C2342 C 0.92223 0.22025 0.7843 0.0
C2343 C 0.92757 0.22188 0.80441 0.0
C2344 C 0.91462 0.21086 0.81693 0.0
C2345 C 0.92002 0.21386 0.83719 0.0
C2346 C 0.93779 0.22681 0.84472 0.0
C2347 C 0.95054 0.23723 0.8324 0.0
C2348 C 0.94555 0.23493 0.81249 0.0
H2349 H 0.89337 0.17071 0.83029 0.0
C2350 C 0.88285 0.17414 0.83233 0.0
H2351 H 0.8714 0.19 0.82261 0.0
H2352 H 0.9084 0.21238 0.74615 0.0
H2353 H 0.87758 0.18907 0.73299 0.0
H2354 H 0.85522 0.16927 0.7545 0.0
H2355 H 0.86347 0.1727 0.78928 0.0
C2356 C 0.88248 0.18722 0.82218 0.0
C2357 C 0.89653 0.19768 0.80911 0.0
C2358 C 0.89151 0.19533 0.78881 0.0
C2359 C 0.90438 0.20667 0.7764 0.0
C2360 C 0.89904 0.20419 0.75621 0.0
C2361 C 0.88144 0.19083 0.74848 0.0
C2362 C 0.86885 0.17968 0.76059 0.0
C2363 C 0.87375 0.18183 0.78053 0.0
H2364 H 0.7398 0.66268 0.73111 0.0
C2365 C 0.74799 0.67197 0.72082 0.0
H2366 H 0.77364 0.69498 0.71695 0.0
H2367 H 0.78851 0.72024 0.80828 0.0
H2368 H 0.78525 0.74511 0.79579 0.0
H2369 H 0.77651 0.7438 0.76091 0.0
H2370 H 0.7709 0.71756 0.7383 0.0
C2371 C 0.76532 0.68507 0.72668 0.0
C2372 C 0.77302 0.68706 0.74713 0.0
C2373 C 0.77673 0.70274 0.76004 0.0
C2374 C 0.78196 0.70358 0.78013 0.0
C2375 C 0.78483 0.71903 0.79284 0.0
C2376 C 0.78294 0.73338 0.78587 0.0
C2377 C 0.778 0.73263 0.76623 0.0
C2378 C 0.77484 0.7175 0.75341 0.0
H2379 H 0.8148 0.71004 0.80994 0.0
C2380 C 0.80424 0.69981 0.81778 0.0
H2381 H 0.77655 0.67853 0.81566 0.0
H2382 H 0.76985 0.6566 0.72572 0.0
H2383 H 0.77382 0.63206 0.73804 0.0
H2384 H 0.78236 0.63323 0.77296 0.0
H2385 H 0.78707 0.65899 0.79574 0.0
C2386 C 0.78759 0.68868 0.80832 0.0
C2387 C 0.78372 0.68886 0.78716 0.0
C2388 C 0.78083 0.67361 0.77409 0.0
C2389 C 0.77564 0.67279 0.75401 0.0
C2390 C 0.77331 0.65765 0.74119 0.0
C2391 C 0.77568 0.64354 0.74805 0.0
C2392 C 0.7805 0.64421 0.76771 0.0
C2393 C 0.78311 0.65905 0.78063 0.0
H2394 H 0.72044 0.61702 0.63085 0.0
C2395 C 0.72738 0.63127 0.63783 0.0
H2396 H 0.74978 0.65844 0.63918 0.0
H2397 H 0.76134 0.60268 0.57344 0.0
H2398 H 0.75895 0.58335 0.59918 0.0
H2399 H 0.75362 0.59114 0.63213 0.0
H2400 H 0.7499 0.61786 0.63927 0.0
C2401 C 0.74299 0.64432 0.6319 0.0
C2402 C 0.74937 0.6412 0.61327 0.0
C2403 C 0.75296 0.62642 0.60984 0.0
C2404 C 0.75759 0.62287 0.59132 0.0
C2405 C 0.7591 0.6068 0.58762 0.0
C2406 C 0.75756 0.59546 0.60222 0.0
C2407 C 0.75445 0.59978 0.62073 0.0
C2408 C 0.75217 0.61506 0.62458 0.0
H2409 H 0.79031 0.63326 0.57114 0.0
C2410 C 0.78314 0.63356 0.55781 0.0
H2411 H 0.76026 0.63329 0.54472 0.0
H2412 H 0.74218 0.66998 0.61425 0.0
H2413 H 0.74701 0.69072 0.5895 0.0
H2414 H 0.75878 0.68699 0.55901 0.0
H2415 H 0.76535 0.66222 0.55294 0.0
C2416 C 0.7673 0.63312 0.55823 0.0
C2417 C 0.76045 0.63526 0.57693 0.0
C2418 C 0.75736 0.65035 0.58056 0.0
C2419 C 0.75138 0.65304 0.59853 0.0
C2420 C 0.74741 0.66762 0.60125 0.0
C2421 C 0.75003 0.67963 0.58708 0.0
C2422 C 0.75659 0.67749 0.5699 0.0
C2423 C 0.76024 0.66309 0.5666 0.0
H2424 H 0.38163 0.08741 0.64486 0.0
C2425 C 0.36937 0.07451 0.63904 0.0
H2426 H 0.3469 0.0617 0.61755 0.0
H2427 H 0.37117 0.15143 0.62026 0.0
H2428 H 0.36278 0.14889 0.65323 0.0
H2429 H 0.35398 0.12003 0.66872 0.0
H2430 H 0.3538 0.09369 0.65151 0.0
C2431 C 0.35875 0.07463 0.62405 0.0
C2432 C 0.36351 0.09195 0.61474 0.0
C2433 C 0.36304 0.10701 0.6249 0.0
C2434 C 0.36739 0.12337 0.61571 0.0
C2435 C 0.36745 0.13848 0.62637 0.0
C2436 C 0.36273 0.13724 0.64532 0.0
C2437 C 0.35784 0.12101 0.65407 0.0
C2438 C 0.35792 0.10602 0.64404 0.0
H2439 H 0.34701 0.13271 0.58424 0.0
C2440 C 0.36035 0.14279 0.58038 0.0
H2441 H 0.3877 0.1494 0.58104 0.0
H2442 H 0.36588 0.0657 0.59124 0.0
H2443 H 0.37311 0.06785 0.55787 0.0
H2444 H 0.37972 0.09583 0.54164 0.0
H2445 H 0.37917 0.12185 0.55867 0.0
C2446 C 0.37444 0.14062 0.58584 0.0
C2447 C 0.37154 0.12434 0.59617 0.0
C2448 C 0.37203 0.10931 0.58603 0.0
C2449 C 0.36802 0.09309 0.59533 0.0
C2450 C 0.36861 0.07828 0.58484 0.0
C2451 C 0.3728 0.07934 0.56568 0.0
C2452 C 0.37654 0.0951 0.55655 0.0
C2453 C 0.37618 0.10994 0.56651 0.0
H2454 H 0.93775 0.27566 0.68348 0.0
C2455 C 0.92823 0.27577 0.69309 0.0
H2456 H 0.90143 0.26998 0.69515 0.0
H2457 H 0.91282 0.27554 0.60042 0.0
H2458 H 0.93546 0.30807 0.60977 0.0
H2459 H 0.9438 0.32085 0.6443 0.0
H2460 H 0.92981 0.30107 0.66967 0.0
C2461 C 0.91127 0.27049 0.68566 0.0
C2462 C 0.90492 0.26351 0.66473 0.0
C2463 C 0.91266 0.2755 0.65004 0.0
C2464 C 0.90721 0.26835 0.63009 0.0
C2465 C 0.91592 0.28037 0.61576 0.0
C2466 C 0.92903 0.29907 0.62093 0.0
C2467 C 0.93377 0.30625 0.64037 0.0
C2468 C 0.92572 0.29468 0.65481 0.0
H2469 H 0.87463 0.25712 0.5989 0.0
C2470 C 0.87805 0.24714 0.59258 0.0
H2471 H 0.89007 0.23089 0.59883 0.0
H2472 H 0.88698 0.23682 0.68916 0.0
H2473 H 0.86315 0.20473 0.67974 0.0
H2474 H 0.85272 0.19277 0.64517 0.0
H2475 H 0.86617 0.21281 0.6198 0.0
C2476 C 0.88753 0.24184 0.60405 0.0
C2477 C 0.8934 0.24946 0.62487 0.0
C2478 C 0.88528 0.23763 0.63953 0.0
C2479 C 0.89108 0.24463 0.65947 0.0
C2480 C 0.88294 0.23236 0.67379 0.0
C2481 C 0.86926 0.21387 0.66859 0.0
C2482 C 0.8634 0.20713 0.64913 0.0
C2483 C 0.87127 0.21879 0.63471 0.0
H2484 H 0.33571 0.28891 0.68067 0.0
C2485 C 0.34402 0.29006 0.69377 0.0
H2486 H 0.36373 0.2844 0.7059 0.0
H2487 H 0.34486 0.21685 0.64433 0.0
H2488 H 0.33663 0.20187 0.67399 0.0
H2489 H 0.33716 0.21945 0.70422 0.0
H2490 H 0.34574 0.25203 0.705 0.0
C2491 C 0.35578 0.28387 0.69279 0.0
C2492 C 0.35631 0.27365 0.67464 0.0
C2493 C 0.35106 0.25451 0.67446 0.0
C2494 C 0.3506 0.24429 0.657 0.0
C2495 C 0.34533 0.22521 0.65718 0.0
C2496 C 0.34058 0.21644 0.6741 0.0
C2497 C 0.34087 0.22635 0.69112 0.0
C2498 C 0.34593 0.24511 0.69137 0.0
H2499 H 0.38195 0.2534 0.62173 0.0
C2500 C 0.36867 0.2436 0.61407 0.0
H2501 H 0.34039 0.23303 0.61388 0.0
H2502 H 0.36963 0.31073 0.67059 0.0
H2503 H 0.37756 0.32552 0.6408 0.0
H2504 H 0.37495 0.30729 0.61009 0.0
H2505 H 0.36471 0.27425 0.60906 0.0
C2506 C 0.35387 0.24213 0.62136 0.0
C2507 C 0.35533 0.25317 0.63977 0.0
C2508 C 0.36085 0.27235 0.63998 0.0
C2509 C 0.36167 0.2827 0.65753 0.0
C2510 C 0.36806 0.30204 0.65752 0.0
C2511 C 0.37279 0.31074 0.64055 0.0
C2512 C 0.37137 0.30049 0.62327 0.0
C2513 C 0.36551 0.28153 0.6229 0.0
H2514 H 0.74851 0.08342 0.61658 0.0
C2515 C 0.74067 0.08637 0.62647 0.0
H2516 H 0.73473 0.10675 0.63765 0.0
H2517 H 0.80932 0.17107 0.61099 0.0
H2518 H 0.81618 0.17697 0.64609 0.0
H2519 H 0.79474 0.15567 0.66742 0.0
H2520 H 0.76621 0.12841 0.65378 0.0
C2521 C 0.74228 0.10331 0.62782 0.0
C2522 C 0.75411 0.11744 0.61521 0.0
C2523 C 0.77061 0.13333 0.62341 0.0
C2524 C 0.78305 0.14546 0.61109 0.0
C2525 C 0.79947 0.16126 0.61966 0.0
C2526 C 0.80356 0.16483 0.63978 0.0
C2527 C 0.79148 0.15285 0.6518 0.0
C2528 C 0.77517 0.13725 0.64379 0.0
H2529 H 0.77681 0.1638 0.56604 0.0
C2530 C 0.78955 0.16391 0.56579 0.0
H2531 H 0.80536 0.15358 0.57896 0.0
H2532 H 0.72207 0.09036 0.59506 0.0
H2533 H 0.71538 0.08381 0.56 0.0
H2534 H 0.73808 0.10299 0.53849 0.0
H2535 H 0.76731 0.12902 0.55184 0.0
C2536 C 0.79267 0.15351 0.57785 0.0
C2537 C 0.77896 0.14161 0.59061 0.0
C2538 C 0.76221 0.12591 0.58241 0.0
C2539 C 0.74954 0.11419 0.59477 0.0
C2540 C 0.7325 0.09922 0.58631 0.0
C2541 C 0.72844 0.09537 0.56621 0.0
C2542 C 0.74118 0.10621 0.5541 0.0
C2543 C 0.7579 0.12127 0.56201 0.0
H2544 H 0.93259 0.67481 0.66627 0.0
C2545 C 0.9227 0.6677 0.67641 0.0
H2546 H 0.8949 0.65062 0.67982 0.0
H2547 H 0.89774 0.68679 0.59537 0.0
H2548 H 0.91219 0.7169 0.61463 0.0
H2549 H 0.91962 0.7196 0.65006 0.0
H2550 H 0.91308 0.69226 0.6663 0.0
C2551 C 0.90493 0.65812 0.66997 0.0
C2552 C 0.89851 0.65639 0.64906 0.0
C2553 C 0.9015 0.67241 0.64 0.0
C2554 C 0.89618 0.67069 0.61978 0.0
C2555 C 0.9006 0.68711 0.61083 0.0
C2556 C 0.90904 0.70453 0.6217 0.0
C2557 C 0.9133 0.70606 0.64162 0.0
C2558 C 0.9096 0.69025 0.65074 0.0
H2559 H 0.86246 0.66038 0.59287 0.0
C2560 C 0.86762 0.65472 0.58207 0.0
H2561 H 0.88611 0.64537 0.57754 0.0
H2562 H 0.89064 0.62288 0.66188 0.0
H2563 H 0.8748 0.59255 0.64292 0.0
H2564 H 0.86404 0.58936 0.60831 0.0
H2565 H 0.86919 0.61651 0.5924 0.0
C2566 C 0.8804 0.65068 0.58797 0.0
C2567 C 0.8868 0.6528 0.60893 0.0
C2568 C 0.88349 0.63676 0.61808 0.0
C2569 C 0.88942 0.63856 0.63813 0.0
C2570 C 0.88622 0.62232 0.64678 0.0
C2571 C 0.87716 0.60481 0.63605 0.0
C2572 C 0.87113 0.60301 0.61656 0.0
C2573 C 0.8742 0.61873 0.6076 0.0
H2574 H 0.93999 0.72116 0.75921 0.0
C2575 C 0.93655 0.70664 0.75823 0.0
H2576 H 0.92155 0.68052 0.76904 0.0
H2577 H 0.91786 0.71136 0.85174 0.0
H2578 H 0.94246 0.70528 0.85834 0.0
H2579 H 0.95593 0.69745 0.83149 0.0
H2580 H 0.94495 0.69575 0.79792 0.0
C2581 C 0.92435 0.6948 0.76925 0.0
C2582 C 0.91736 0.70142 0.78505 0.0
C2583 C 0.92394 0.7023 0.80459 0.0
C2584 C 0.91608 0.70661 0.82004 0.0
C2585 C 0.92309 0.70771 0.83944 0.0
C2586 C 0.93728 0.70438 0.84343 0.0
C2587 C 0.94487 0.69998 0.82832 0.0
C2588 C 0.93837 0.69898 0.80911 0.0
H2589 H 0.87912 0.68292 0.83559 0.0
C2590 C 0.88081 0.69636 0.84087 0.0
H2591 H 0.89258 0.72483 0.83578 0.0
H2592 H 0.90229 0.70182 0.74924 0.0
H2593 H 0.87825 0.70879 0.74272 0.0
H2594 H 0.86469 0.71641 0.76963 0.0
H2595 H 0.87507 0.71708 0.80324 0.0
C2596 C 0.89151 0.71144 0.83196 0.0
C2597 C 0.90147 0.70972 0.81592 0.0
C2598 C 0.89559 0.70991 0.79643 0.0
C2599 C 0.90349 0.70565 0.78092 0.0
C2600 C 0.89691 0.70521 0.76155 0.0
C2601 C 0.88309 0.70913 0.75762 0.0
C2602 C 0.87545 0.71341 0.77277 0.0
C2603 C 0.88152 0.71375 0.79199 0.0
H2604 H 0.28851 0.24993 0.75082 0.0
C2605 C 0.30127 0.26251 0.75616 0.0
H2606 H 0.32523 0.27427 0.77546 0.0
H2607 H 0.29847 0.21531 0.83522 0.0
H2608 H 0.30051 0.24197 0.85386 0.0
H2609 H 0.30581 0.26988 0.83818 0.0
H2610 H 0.30921 0.27126 0.80378 0.0
C2611 C 0.31281 0.26164 0.76949 0.0
C2612 C 0.30829 0.24417 0.77831 0.0
C2613 C 0.30599 0.24346 0.79839 0.0
C2614 C 0.30259 0.22726 0.80735 0.0
C2615 C 0.30078 0.22712 0.82755 0.0
C2616 C 0.30197 0.24238 0.83847 0.0
C2617 C 0.30498 0.25809 0.82965 0.0
C2618 C 0.30696 0.2587 0.80987 0.0
H2619 H 0.32443 0.19995 0.80277 0.0
C2620 C 0.31193 0.19154 0.80925 0.0
H2621 H 0.28594 0.18792 0.81276 0.0
H2622 H 0.31338 0.24136 0.73981 0.0
H2623 H 0.31005 0.21415 0.72091 0.0
H2624 H 0.30239 0.18537 0.73609 0.0
H2625 H 0.29805 0.1837 0.77035 0.0
C2626 C 0.29839 0.19517 0.80602 0.0
C2627 C 0.30135 0.21172 0.79619 0.0
C2628 C 0.30326 0.21224 0.77603 0.0
C2629 C 0.30705 0.22861 0.76713 0.0
C2630 C 0.30982 0.22909 0.74719 0.0
C2631 C 0.30811 0.2136 0.73619 0.0
C2632 C 0.30381 0.19741 0.74474 0.0
C2633 C 0.30142 0.19666 0.76443 0.0
H2634 H 0.76908 0.05796 0.69634 0.0
C2635 C 0.7557 0.05647 0.69579 0.0
H2636 H 0.73622 0.05772 0.7121 0.0
H2637 H 0.76501 0.04709 0.79304 0.0
H2638 H 0.73741 0.01704 0.78521 0.0
H2639 H 0.72033 0.00828 0.75267 0.0
H2640 H 0.73069 0.02956 0.72779 0.0
C2641 C 0.74972 0.05958 0.7123 0.0
C2642 C 0.76078 0.0646 0.73147 0.0
C2643 C 0.75469 0.05189 0.74576 0.0
C2644 C 0.76466 0.05684 0.76445 0.0
C2645 C 0.75806 0.044 0.77855 0.0
C2646 C 0.74223 0.02669 0.77426 0.0
C2647 C 0.7326 0.02177 0.75595 0.0
C2648 C 0.73869 0.03415 0.74181 0.0
H2649 H 0.7838 0.10125 0.79373 0.0
C2650 C 0.79007 0.09398 0.80017 0.0
H2651 H 0.79612 0.07242 0.79446 0.0
H2652 H 0.77571 0.09294 0.70798 0.0
H2653 H 0.80404 0.1223 0.71535 0.0
H2654 H 0.82248 0.12982 0.74689 0.0
H2655 H 0.81245 0.10811 0.7714 0.0
C2656 C 0.79013 0.08023 0.78894 0.0
C2657 C 0.78074 0.07447 0.7688 0.0
C2658 C 0.78723 0.0869 0.75426 0.0
C2659 C 0.77703 0.08216 0.73573 0.0
C2660 C 0.78325 0.09541 0.72199 0.0
C2661 C 0.79946 0.11241 0.72608 0.0
C2662 C 0.8098 0.11668 0.74386 0.0
C2663 C 0.80383 0.10413 0.75784 0.0
H2664 H 0.05896 0.34926 0.0535 0.0
C2665 C 0.05173 0.33783 0.04197 0.0
H2666 H 0.0454 0.31054 0.03164 0.0
H2667 H 0.1226 0.34087 0.0869 0.0
H2668 H 0.13631 0.36036 0.06125 0.0
H2669 H 0.11733 0.36177 0.03395 0.0
H2670 H 0.08452 0.34374 0.03218 0.0
C2671 C 0.05286 0.32234 0.04273 0.0
C2672 C 0.06433 0.32089 0.05875 0.0
C2673 C 0.08352 0.33144 0.05947 0.0
C2674 C 0.09445 0.33047 0.0751 0.0
C2675 C 0.1136 0.34112 0.07543 0.0
C2676 C 0.12167 0.35234 0.06076 0.0
C2677 C 0.11099 0.35315 0.0454 0.0
C2678 C 0.09214 0.3428 0.04464 0.0
H2679 H 0.09106 0.29045 0.09781 0.0
C2680 C 0.09991 0.30312 0.10746 0.0
H2681 H 0.10636 0.33088 0.11568 0.0
H2682 H 0.02803 0.29834 0.06122 0.0
H2683 H 0.01425 0.27854 0.08674 0.0
H2684 H 0.03321 0.27719 0.11411 0.0
H2685 H 0.06607 0.29553 0.1161 0.0
C2686 C 0.09795 0.31809 0.10612 0.0
C2687 C 0.08621 0.31874 0.08983 0.0
C2688 C 0.06703 0.308 0.08897 0.0
C2689 C 0.05608 0.30897 0.07332 0.0
C2690 C 0.03697 0.29813 0.0728 0.0
C2691 C 0.02889 0.28673 0.08736 0.0
C2692 C 0.03957 0.28596 0.10276 0.0
C2693 C 0.05842 0.29649 0.10368 0.0
H2694 H 0.67276 0.70439 0.10036 0.0
C2695 C 0.65876 0.69632 0.10358 0.0
H2696 H 0.63749 0.69711 0.11662 0.0
H2697 H 0.68827 0.7682 0.17495 0.0
H2698 H 0.67801 0.74372 0.19649 0.0
H2699 H 0.66058 0.71052 0.18333 0.0
H2700 H 0.65322 0.70156 0.1486 0.0
C2701 C 0.65116 0.70509 0.11244 0.0
C2702 C 0.66209 0.72518 0.12004 0.0
C2703 C 0.66618 0.73016 0.14042 0.0
C2704 C 0.67611 0.74929 0.14803 0.0
C2705 C 0.68037 0.75388 0.16842 0.0
C2706 C 0.67471 0.73997 0.18095 0.0
C2707 C 0.66489 0.72128 0.17354 0.0
C2708 C 0.66069 0.71634 0.15354 0.0
H2709 H 0.66581 0.77939 0.15253 0.0
C2710 C 0.68007 0.78939 0.15163 0.0
H2711 H 0.70402 0.793 0.14058 0.0
H2712 H 0.65627 0.72045 0.08026 0.0
H2713 H 0.6669 0.74496 0.05877 0.0
H2714 H 0.68451 0.77817 0.07198 0.0
H2715 H 0.69155 0.78707 0.10679 0.0
C2716 C 0.69014 0.78333 0.14317 0.0
C2717 C 0.68169 0.7634 0.13524 0.0
C2718 C 0.67815 0.75845 0.11485 0.0
C2719 C 0.66819 0.7393 0.10722 0.0
C2720 C 0.66414 0.73476 0.08683 0.0
C2721 C 0.67007 0.7487 0.07433 0.0
C2722 C 0.67997 0.76739 0.08177 0.0
C2723 C 0.68394 0.77231 0.10178 0.0
H2724 H 0.30387 0.95235 0.02446 0.0
C2725 C 0.31711 0.95434 0.02919 0.0
H2726 H 0.33414 0.95459 0.05271 0.0
H2727 H 0.29245 0.9693 0.11706 0.0
H2728 H 0.3213 0.99851 0.121 0.0
H2729 H 0.34395 0.00488 0.09782 0.0
H2730 H 0.33801 0.98207 0.07067 0.0
C2731 C 0.32073 0.95192 0.04755 0.0
C2732 C 0.30727 0.94767 0.06183 0.0
C2733 C 0.31101 0.96122 0.0776 0.0
C2734 C 0.29789 0.95765 0.09086 0.0
C2735 C 0.30194 0.97136 0.10653 0.0
C2736 C 0.31843 0.98818 0.10896 0.0
C2737 C 0.3312 0.99175 0.09591 0.0
C2738 C 0.3276 0.97851 0.08039 0.0
H2739 H 0.27349 0.91764 0.11521 0.0
C2740 C 0.26538 0.92435 0.11557 0.0
H2741 H 0.25986 0.94343 0.10195 0.0
H2742 H 0.29667 0.91778 0.03457 0.0
H2743 H 0.26757 0.88895 0.03025 0.0
H2744 H 0.24408 0.88364 0.05204 0.0
H2745 H 0.2497 0.90699 0.07847 0.0
C2746 C 0.26777 0.93656 0.10263 0.0
C2747 C 0.28114 0.94057 0.08833 0.0
C2748 C 0.27735 0.92704 0.07251 0.0
C2749 C 0.29058 0.93043 0.05947 0.0
C2750 C 0.28684 0.91627 0.04444 0.0
C2751 C 0.27022 0.89958 0.04188 0.0
C2752 C 0.25703 0.89656 0.05418 0.0
C2753 C 0.26047 0.91007 0.06935 0.0
H2754 H 0.3493 0.02234 0.99377 0.0
C2755 C 0.36377 0.02902 0.99252 0.0
H2756 H 0.38723 0.05335 0.98645 0.0
H2757 H 0.34665 0.07914 0.92924 0.0
H2758 H 0.36527 0.07316 0.90842 0.0
H2759 H 0.38239 0.05856 0.92033 0.0
H2760 H 0.38149 0.05041 0.9533 0.0
C2761 C 0.37283 0.0467 0.98804 0.0
C2762 C 0.36293 0.05614 0.98137 0.0
C2763 C 0.36335 0.06044 0.96184 0.0
C2764 C 0.35306 0.06834 0.95478 0.0
C2765 C 0.35398 0.07285 0.93532 0.0
C2766 C 0.36459 0.06946 0.92316 0.0
C2767 C 0.37429 0.06132 0.9299 0.0
C2768 C 0.37369 0.05677 0.94895 0.0
H2769 H 0.34911 0.10639 0.97303 0.0
C2770 C 0.33719 0.09784 0.96266 0.0
H2771 H 0.32046 0.07086 0.94774 0.0
H2772 H 0.36117 0.0521 0.02024 0.0
H2773 H 0.34269 0.05837 0.04115 0.0
H2774 H 0.32353 0.07047 0.02833 0.0
H2775 H 0.32291 0.0766 0.99455 0.0
C2776 C 0.33121 0.07949 0.95927 0.0
C2777 C 0.34221 0.0717 0.96716 0.0
C2778 C 0.34207 0.0678 0.98677 0.0
C2779 C 0.35267 0.06026 0.99398 0.0
C2780 C 0.35286 0.05719 0.01383 0.0
C2781 C 0.34243 0.06086 0.02602 0.0
C2782 C 0.33167 0.06772 0.01882 0.0
C2783 C 0.33146 0.07121 0.99943 0.0
H2784 H 0.98053 0.29728 0.98929 0.0
C2785 C 0.97627 0.30611 0.98252 0.0
H2786 H 0.9567 0.3069 0.96322 0.0
H2787 H 0.92818 0.23027 0.91409 0.0
H2788 H 0.94621 0.25185 0.89162 0.0
H2789 H 0.9662 0.28542 0.90245 0.0
H2790 H 0.9683 0.29764 0.93578 0.0
C2791 C 0.96067 0.2982 0.9707 0.0
C2792 C 0.94976 0.27769 0.96491 0.0
C2793 C 0.94871 0.27078 0.94535 0.0
C2794 C 0.93713 0.25146 0.93906 0.0
C2795 C 0.9365 0.2449 0.91952 0.0
C2796 C 0.94686 0.2571 0.9065 0.0
C2797 C 0.95812 0.276 0.9126 0.0
C2798 C 0.95913 0.28284 0.93178 0.0
H2799 H 0.89535 0.22716 0.93152 0.0
C2800 C 0.89732 0.21558 0.93457 0.0
H2801 H 0.91467 0.20827 0.94983 0.0
H2802 H 0.94846 0.28622 0.00342 0.0
H2803 H 0.93105 0.26441 0.02595 0.0
H2804 H 0.91155 0.23076 0.01515 0.0
H2805 H 0.90927 0.21873 0.98165 0.0
C2806 C 0.91266 0.21939 0.94519 0.0
C2807 C 0.92652 0.23908 0.9523 0.0
C2808 C 0.9282 0.24579 0.97205 0.0
C2809 C 0.93969 0.26517 0.97835 0.0
C2810 C 0.94034 0.27161 0.99793 0.0
C2811 C 0.93032 0.25924 0.01102 0.0
C2812 C 0.91932 0.2403 0.00493 0.0
C2813 C 0.91815 0.23358 0.98567 0.0
H2814 H 0.70692 0.63457 0.06375 0.0
C2815 C 0.69969 0.64218 0.06279 0.0
H2816 H 0.69746 0.66326 0.04952 0.0
H2817 H 0.77796 0.7014 0.02615 0.0
H2818 H 0.78133 0.72387 0.05246 0.0
H2819 H 0.75619 0.71717 0.07226 0.0
H2820 H 0.72755 0.68788 0.06594 0.0
C2821 C 0.70415 0.65512 0.05024 0.0
C2822 C 0.71893 0.65938 0.03771 0.0
C2823 C 0.73542 0.67673 0.04133 0.0
C2824 C 0.74981 0.68072 0.02972 0.0
C2825 C 0.76641 0.69785 0.03416 0.0
C2826 C 0.76857 0.71083 0.04932 0.0
C2827 C 0.75442 0.70705 0.06048 0.0
C2828 C 0.73804 0.69019 0.05666 0.0
H2829 H 0.76104 0.69307 0.9892 0.0
C2830 C 0.76704 0.68425 0.98914 0.0
H2831 H 0.76831 0.66264 0.00248 0.0
H2832 H 0.68837 0.62555 0.02563 0.0
H2833 H 0.6849 0.6032 0.99917 0.0
H2834 H 0.71 0.60992 0.97931 0.0
H2835 H 0.73869 0.63908 0.98575 0.0
C2836 C 0.76231 0.67142 0.00188 0.0
C2837 C 0.7475 0.66747 0.01427 0.0
C2838 C 0.73094 0.65019 0.01055 0.0
C2839 C 0.71657 0.6462 0.02216 0.0
C2840 C 0.69993 0.62912 0.01764 0.0
C2841 C 0.6977 0.6162 0.00238 0.0
C2842 C 0.71182 0.61999 0.99119 0.0
C2843 C 0.72825 0.63678 0.99509 0.0
H2844 H 0.9634 0.67147 0.02113 0.0
C2845 C 0.95386 0.65905 0.02747 0.0
H2846 H 0.92625 0.63931 0.02897 0.0
H2847 H 0.89611 0.6905 0.00229 0.0
H2848 H 0.89066 0.6892 0.03618 0.0
H2849 H 0.90271 0.67478 0.05803 0.0
H2850 H 0.92025 0.66148 0.0461 0.0
C2851 C 0.93598 0.65134 0.02226 0.0
C2852 C 0.92892 0.66015 0.00888 0.0
C2853 C 0.91883 0.66803 0.01613 0.0
C2854 C 0.91217 0.67666 0.0036 0.0
C2855 C 0.90181 0.68408 0.01119 0.0
C2856 C 0.8985 0.68337 0.03062 0.0
C2857 C 0.90527 0.67523 0.04292 0.0
C2858 C 0.91531 0.66763 0.03586 0.0
H2859 H 0.8912 0.66146 0.95332 0.0
C2860 C 0.89517 0.67608 0.95634 0.0
H2861 H 0.91254 0.70085 0.97507 0.0
H2862 H 0.94601 0.6446 0.98968 0.0
H2863 H 0.9526 0.64705 0.95611 0.0
H2864 H 0.94313 0.66418 0.93509 0.0
H2865 H 0.92669 0.67864 0.94741 0.0
C2866 C 0.90837 0.6864 0.9709 0.0
C2867 C 0.91576 0.67759 0.98386 0.0
C2868 C 0.92605 0.66991 0.97665 0.0
C2869 C 0.93227 0.6608 0.98905 0.0
C2870 C 0.9416 0.65234 0.98116 0.0
C2871 C 0.94537 0.65353 0.96187 0.0
C2872 C 0.93998 0.66311 0.95001 0.0
C2873 C 0.93045 0.67125 0.95724 0.0
H2874 H 0.33632 0.31057 0.97206 0.0
C2875 C 0.34893 0.31984 0.9662 0.0
H2876 H 0.3677 0.32178 0.94674 0.0
H2877 H 0.33137 0.23225 0.95676 0.0
H2878 H 0.34736 0.24247 0.98916 0.0
H2879 H 0.36277 0.27566 0.00234 0.0
H2880 H 0.36229 0.29885 0.98313 0.0
C2881 C 0.35568 0.31266 0.95358 0.0
C2882 C 0.34555 0.29248 0.94628 0.0
C2883 C 0.34578 0.2791 0.95779 0.0
C2884 C 0.33688 0.25996 0.95017 0.0
C2885 C 0.33772 0.24695 0.96182 0.0
C2886 C 0.34691 0.25263 0.98046 0.0
C2887 C 0.35558 0.27131 0.98788 0.0
C2888 C 0.35514 0.28447 0.97672 0.0
H2889 H 0.33873 0.24241 0.90158 0.0
C2890 C 0.3277 0.2308 0.90764 0.0
H2891 H 0.31018 0.22357 0.92988 0.0
H2892 H 0.34179 0.31453 0.92084 0.0
H2893 H 0.32468 0.30418 0.88894 0.0
H2894 H 0.30824 0.27086 0.87625 0.0
H2895 H 0.30908 0.24767 0.8952 0.0
C2896 C 0.32025 0.23467 0.92244 0.0
C2897 C 0.3278 0.25431 0.93104 0.0
C2898 C 0.32685 0.26759 0.9199 0.0
C2899 C 0.33596 0.28674 0.92743 0.0
C2900 C 0.33508 0.29978 0.91586 0.0
C2901 C 0.32527 0.29403 0.89754 0.0
C2902 C 0.31605 0.27527 0.89036 0.0
C2903 C 0.31675 0.26213 0.90135 0.0
H2904 H 0.67598 0.05048 0.0201 0.0
C2905 C 0.68035 0.04611 0.03279 0.0
H2906 H 0.70141 0.04357 0.04702 0.0
H2907 H 0.73584 0.04213 0.96927 0.0
H2908 H 0.72426 0.01043 0.97739 0.0
H2909 H 0.70574 0.99914 0.00474 0.0
H2910 H 0.69866 0.01945 0.0241 0.0
C2911 C 0.6971 0.04852 0.03479 0.0
C2912 C 0.70936 0.05589 0.01927 0.0
C2913 C 0.71363 0.0439 0.00833 0.0
C2914 C 0.72441 0.05044 0.99265 0.0
C2915 C 0.72799 0.038 0.98156 0.0
C2916 C 0.72135 0.01973 0.986 0.0
C2917 C 0.71092 0.01337 0.00139 0.0
C2918 C 0.70699 0.02521 0.01242 0.0
H2919 H 0.76502 0.07745 0.98574 0.0
C2920 C 0.75938 0.08021 0.97272 0.0
H2921 H 0.73554 0.07807 0.95879 0.0
H2922 H 0.70568 0.08322 0.03893 0.0
H2923 H 0.71747 0.11498 0.03095 0.0
H2924 H 0.73551 0.12606 0.00321 0.0
H2925 H 0.74198 0.10547 0.9834 0.0
C2926 C 0.74196 0.07588 0.97151 0.0
C2927 C 0.73104 0.06901 0.98812 0.0
C2928 C 0.72707 0.08111 0.99929 0.0
C2929 C 0.71639 0.07462 0.01504 0.0
C2930 C 0.71324 0.08723 0.02643 0.0
C2931 C 0.72005 0.10555 0.0221 0.0
C2932 C 0.73023 0.1118 0.0065 0.0
C2933 C 0.7338 0.09981 0.99522 0.0
H2934 H 0.63253 0.95201 0.06672 0.0
C2935 C 0.63921 0.96572 0.06145 0.0
H2936 H 0.66391 0.98772 0.05404 0.0
H2937 H 0.70151 0.96803 0.12289 0.0
H2938 H 0.71091 0.00027 0.13236 0.0
H2939 H 0.70115 0.01744 0.11178 0.0
H2940 H 0.68173 0.00229 0.08169 0.0
C2941 C 0.65687 0.97377 0.05865 0.0
C2942 C 0.6677 0.96581 0.06679 0.0
C2943 C 0.68002 0.97527 0.08372 0.0
C2944 C 0.68603 0.96549 0.09533 0.0
C2945 C 0.69698 0.9748 0.11309 0.0
C2946 C 0.70242 0.99336 0.11882 0.0
C2947 C 0.6969 0.00302 0.10725 0.0
C2948 C 0.68572 0.99412 0.08999 0.0
H2949 H 0.71073 0.9471 0.10345 0.0
C2950 C 0.6987 0.93698 0.10963 0.0
H2951 H 0.67013 0.92361 0.10806 0.0
H2952 H 0.6481 0.94561 0.03273 0.0
H2953 H 0.64033 0.91384 0.02169 0.0
H2954 H 0.65102 0.89689 0.04149 0.0
H2955 H 0.66954 0.91154 0.0724 0.0
C2956 C 0.68249 0.93473 0.10338 0.0
C2957 C 0.68022 0.94649 0.08947 0.0
C2958 C 0.66972 0.93786 0.07133 0.0
C2959 C 0.66349 0.94756 0.05996 0.0
C2960 C 0.65287 0.93861 0.04201 0.0
C2961 C 0.64843 0.92049 0.03549 0.0
C2962 C 0.65446 0.91094 0.04664 0.0
C2963 C 0.66499 0.91946 0.06437 0.0
H2964 H 0.03764 0.71572 0.08893 0.0
C2965 C 0.04411 0.70743 0.08707 0.0
H2966 H 0.06839 0.7069 0.08937 0.0
H2967 H 0.08761 0.79624 0.10914 0.0
H2968 H 0.07215 0.79302 0.07742 0.0
H2969 H 0.05839 0.7634 0.056 0.0
H2970 H 0.05936 0.73663 0.06655 0.0
C2971 C 0.06215 0.7154 0.09136 0.0
C2972 C 0.07333 0.73439 0.10229 0.0
C2973 C 0.07398 0.75034 0.09518 0.0
C2974 C 0.08333 0.7679 0.10681 0.0
C2975 C 0.08193 0.78299 0.10032 0.0
C2976 C 0.07291 0.78127 0.08222 0.0
C2977 C 0.06507 0.76456 0.07021 0.0
C2978 C 0.06556 0.74924 0.07653 0.0
H2979 H 0.11964 0.80251 0.11341 0.0
C2980 C 0.11815 0.80326 0.12884 0.0
H2981 H 0.10353 0.78965 0.1517 0.0
H2982 H 0.07412 0.70658 0.12115 0.0
H2983 H 0.09176 0.71049 0.1514 0.0
H2984 H 0.11114 0.74166 0.16944 0.0
H2985 H 0.11262 0.76901 0.15754 0.0
C2986 C 0.10491 0.78857 0.13626 0.0
C2987 C 0.09363 0.76997 0.12461 0.0
C2988 C 0.09353 0.75416 0.13137 0.0
C2989 C 0.08302 0.73631 0.12048 0.0
C2990 C 0.08237 0.72063 0.12828 0.0
C2991 C 0.09238 0.72262 0.14577 0.0
C2992 C 0.10323 0.74015 0.15595 0.0
C2993 C 0.10387 0.75576 0.14893 0.0
H2994 H 0.28598 0.34702 0.00717 0.0
C2995 C 0.29974 0.35161 0.01325 0.0
H2996 H 0.3166 0.35446 0.03836 0.0
H2997 H 0.24389 0.34941 0.07377 0.0
H2998 H 0.25426 0.37984 0.0625 0.0
H2999 H 0.28064 0.39403 0.04364 0.0
H3000 H 0.29661 0.37774 0.03567 0.0
C3001 C 0.30306 0.35058 0.03218 0.0
C3002 C 0.28813 0.34286 0.04488 0.0
C3003 C 0.27935 0.3529 0.04994 0.0
C3004 C 0.26461 0.34505 0.06147 0.0
C3005 C 0.25555 0.35498 0.0656 0.0
C3006 C 0.26129 0.37242 0.05914 0.0
C3007 C 0.27611 0.38038 0.04846 0.0
C3008 C 0.28509 0.37082 0.04389 0.0
H3009 H 0.25992 0.33931 0.10496 0.0
C3010 C 0.24679 0.32717 0.09966 0.0
H3011 H 0.23134 0.30782 0.07501 0.0
H3012 H 0.30216 0.32011 0.03793 0.0
H3013 H 0.2923 0.29006 0.04999 0.0
H3014 H 0.26723 0.27685 0.07071 0.0
H3015 H 0.25181 0.2936 0.07944 0.0
C3016 C 0.24426 0.31965 0.08121 0.0
C3017 C 0.25916 0.32754 0.0685 0.0
C3018 C 0.26802 0.3176 0.06359 0.0
C3019 C 0.28256 0.32528 0.05178 0.0
C3020 C 0.29112 0.315 0.04698 0.0
C3021 C 0.28559 0.29772 0.05379 0.0
C3022 C 0.27146 0.29028 0.06545 0.0
C3023 C 0.26273 0.30003 0.07034 0.0
H3024 H 0.71622 0.68214 0.37497 0.0
C3025 C 0.70651 0.66965 0.36555 0.0
H3026 H 0.69578 0.64058 0.35919 0.0
H3027 H 0.77737 0.67103 0.40656 0.0
H3028 H 0.78896 0.68523 0.37723 0.0
H3029 H 0.76826 0.6842 0.35019 0.0
H3030 H 0.73585 0.66903 0.35237 0.0
C3031 C 0.70576 0.65338 0.36799 0.0
C3032 C 0.71808 0.65237 0.38338 0.0
C3033 C 0.73697 0.66107 0.38173 0.0
C3034 C 0.74887 0.66143 0.3972 0.0
C3035 C 0.76771 0.67036 0.39526 0.0
C3036 C 0.77455 0.67853 0.37848 0.0
C3037 C 0.76289 0.67796 0.36327 0.0
C3038 C 0.74432 0.66932 0.36477 0.0
H3039 H 0.75008 0.62759 0.42502 0.0
C3040 C 0.75828 0.64101 0.43372 0.0
H3041 H 0.76223 0.66825 0.43922 0.0
H3042 H 0.68248 0.63311 0.39044 0.0
H3043 H 0.67079 0.61777 0.41925 0.0
H3044 H 0.69148 0.61838 0.44603 0.0
H3045 H 0.72401 0.63431 0.44417 0.0
C3046 C 0.75465 0.6547 0.43077 0.0
C3047 C 0.74185 0.65283 0.41413 0.0
C3048 C 0.72291 0.64336 0.41539 0.0
C3049 C 0.71099 0.64307 0.39995 0.0
C3050 C 0.69214 0.63372 0.4017 0.0
C3051 C 0.68525 0.62488 0.41817 0.0
C3052 C 0.6969 0.62522 0.43325 0.0
C3053 C 0.71553 0.63438 0.43199 0.0
H3054 H 0.3045 0.02312 0.45366 0.0
C3055 C 0.31416 0.01995 0.44749 0.0
H3056 H 0.34116 0.03135 0.44036 0.0
H3057 H 0.34447 0.11048 0.44009 0.0
H3058 H 0.34354 0.10277 0.40554 0.0
H3059 H 0.33963 0.07244 0.39297 0.0
H3060 H 0.33658 0.04957 0.41491 0.0
C3061 C 0.33118 0.03393 0.44657 0.0
C3062 C 0.33663 0.0533 0.45435 0.0
C3063 C 0.3389 0.06666 0.44142 0.0
C3064 C 0.3413 0.0842 0.4487 0.0
C3065 C 0.34283 0.09703 0.43538 0.0
C3066 C 0.34228 0.09277 0.41551 0.0
C3067 C 0.34007 0.07568 0.40842 0.0
C3068 C 0.33832 0.06269 0.42115 0.0
H3069 H 0.36975 0.12312 0.47601 0.0
C3070 C 0.35707 0.12225 0.47914 0.0
H3071 H 0.32906 0.10377 0.48073 0.0
H3072 H 0.33609 0.03213 0.4833 0.0
H3073 H 0.33802 0.0402 0.51798 0.0
H3074 H 0.34151 0.07034 0.53057 0.0
H3075 H 0.34343 0.09275 0.50859 0.0
C3076 C 0.34172 0.1055 0.4764 0.0
C3077 C 0.34162 0.08834 0.46892 0.0
C3078 C 0.3405 0.07545 0.48196 0.0
C3079 C 0.33818 0.05796 0.47468 0.0
C3080 C 0.33742 0.04543 0.48804 0.0
C3081 C 0.33862 0.04994 0.50798 0.0
C3082 C 0.34064 0.06693 0.51507 0.0
C3083 C 0.34163 0.07962 0.50229 0.0
H3084 H 0.9966 0.30819 0.38469 0.0
C3085 C 0.99133 0.30315 0.36953 0.0
H3086 H 0.96786 0.2876 0.34955 0.0
H3087 H 0.94027 0.25711 0.43483 0.0
H3088 H 0.96102 0.24532 0.43435 0.0
H3089 H 0.98107 0.25171 0.40826 0.0
H3090 H 0.98079 0.27027 0.38283 0.0
C3091 C 0.97336 0.29236 0.36469 0.0
C3092 C 0.96038 0.28721 0.37964 0.0
C3093 C 0.96014 0.27554 0.39385 0.0
C3094 C 0.94785 0.27093 0.40823 0.0
C3095 C 0.9487 0.26028 0.42302 0.0
C3096 C 0.96065 0.25354 0.42301 0.0
C3097 C 0.97198 0.2572 0.40837 0.0
C3098 C 0.97178 0.26803 0.39392 0.0
H3099 H 0.90854 0.24251 0.40971 0.0
C3100 C 0.90807 0.25237 0.42039 0.0
H3101 H 0.92118 0.28083 0.43195 0.0
H3102 H 0.95767 0.31028 0.35483 0.0
H3103 H 0.93619 0.32119 0.35477 0.0
H3104 H 0.91387 0.31191 0.37877 0.0
H3105 H 0.91297 0.29176 0.40308 0.0
C3106 C 0.92086 0.27053 0.42129 0.0
C3107 C 0.93506 0.27702 0.40763 0.0
C3108 C 0.93535 0.28875 0.39351 0.0
C3109 C 0.94806 0.29389 0.37952 0.0
C3110 C 0.94816 0.30575 0.36566 0.0
C3111 C 0.93593 0.31215 0.36548 0.0
C3112 C 0.92337 0.30693 0.379 0.0
C3113 C 0.92301 0.29536 0.39288 0.0
H3114 H 0.06362 0.39222 0.31718 0.0
C3115 C 0.05345 0.38071 0.32417 0.0
H3116 H 0.0274 0.36882 0.33409 0.0
H3117 H 0.02648 0.44505 0.33328 0.0
H3118 H 0.03175 0.44486 0.36808 0.0
H3119 H 0.03809 0.42149 0.38099 0.0
H3120 H 0.03911 0.3981 0.35919 0.0
C3121 C 0.03785 0.38015 0.32719 0.0
C3122 C 0.03374 0.39406 0.3195 0.0
C3123 C 0.03326 0.40763 0.33242 0.0
C3124 C 0.02974 0.42118 0.32497 0.0
C3125 C 0.0292 0.43452 0.33818 0.0
C3126 C 0.03219 0.43455 0.35818 0.0
C3127 C 0.03576 0.42138 0.36545 0.0
C3128 C 0.03631 0.40804 0.35279 0.0
H3129 H 0.99568 0.4149 0.28752 0.0
C3130 C 0.00623 0.42946 0.28754 0.0
H3131 H 0.03359 0.44941 0.29817 0.0
H3132 H 0.03115 0.36834 0.29073 0.0
H3133 H 0.02696 0.36919 0.25602 0.0
H3134 H 0.02357 0.39435 0.24304 0.0
H3135 H 0.02395 0.41851 0.2647 0.0
C3136 C 0.02267 0.43499 0.29679 0.0
C3137 C 0.02672 0.4211 0.30464 0.0
C3138 C 0.02744 0.40765 0.29168 0.0
C3139 C 0.03039 0.39377 0.29914 0.0
C3140 C 0.0298 0.37974 0.2859 0.0
C3141 C 0.02727 0.37996 0.2659 0.0
C3142 C 0.02528 0.39407 0.2586 0.0
C3143 C 0.02539 0.4078 0.27124 0.0
H3144 H 0.61182 0.63464 0.30889 0.0
C3145 C 0.62581 0.63876 0.31348 0.0
H3146 H 0.64446 0.6292 0.3168 0.0
H3147 H 0.57122 0.54743 0.31598 0.0
H3148 H 0.57945 0.55442 0.35088 0.0
H3149 H 0.60496 0.58514 0.36495 0.0
H3150 H 0.62248 0.60907 0.34416 0.0
C3151 C 0.6305 0.62559 0.31307 0.0
C3152 C 0.61697 0.60619 0.30463 0.0
C3153 C 0.60699 0.59238 0.31689 0.0
C3154 C 0.5922 0.57473 0.30875 0.0
C3155 C 0.58243 0.56116 0.32139 0.0
C3156 C 0.58705 0.56497 0.34144 0.0
C3157 C 0.60143 0.58227 0.34937 0.0
C3158 C 0.61133 0.59588 0.3373 0.0
H3159 H 0.5837 0.54206 0.26498 0.0
C3160 C 0.57068 0.5402 0.2683 0.0
H3161 H 0.55787 0.55137 0.28514 0.0
H3162 H 0.63533 0.6286 0.27704 0.0
H3163 H 0.62718 0.62198 0.24213 0.0
H3164 H 0.6003 0.5923 0.22797 0.0
H3165 H 0.58163 0.56901 0.2485 0.0
C3166 C 0.57049 0.55347 0.28025 0.0
C3167 C 0.58738 0.571 0.28834 0.0
C3168 C 0.59787 0.58464 0.27599 0.0
C3169 C 0.61293 0.60208 0.28417 0.0
C3170 C 0.62347 0.61532 0.27158 0.0
C3171 C 0.61898 0.61168 0.25152 0.0
C3172 C 0.60389 0.59495 0.24356 0.0
C3173 C 0.59335 0.5816 0.25556 0.0
H3174 H 0.38224 0.00837 0.40658 0.0
C3175 C 0.3687 0.9973 0.40075 0.0
H3176 H 0.35245 0.97813 0.37647 0.0
H3177 H 0.40554 0.02098 0.31467 0.0
H3178 H 0.38208 0.02863 0.30769 0.0
H3179 H 0.35801 0.02088 0.32935 0.0
H3180 H 0.3572 0.00535 0.35809 0.0
C3181 C 0.36598 0.9889 0.38268 0.0
C3182 C 0.38107 0.99437 0.37031 0.0
C3183 C 0.38145 0.00362 0.3537 0.0
C3184 C 0.39543 0.00827 0.34134 0.0
C3185 C 0.39532 0.01726 0.32467 0.0
C3186 C 0.38193 0.02172 0.32047 0.0
C3187 C 0.36837 0.01735 0.33265 0.0
C3188 C 0.36805 0.0084 0.34909 0.0
H3189 H 0.41317 0.97916 0.32378 0.0
C3190 C 0.42289 0.99344 0.3213 0.0
H3191 H 0.43241 0.022 0.33022 0.0
H3192 H 0.38365 0.9754 0.40023 0.0
H3193 H 0.40772 0.96882 0.40786 0.0
H3194 H 0.43308 0.97877 0.38762 0.0
H3195 H 0.43432 0.99508 0.35942 0.0
C3196 C 0.42289 0.00751 0.33194 0.0
C3197 C 0.409 0.00365 0.34563 0.0
C3198 C 0.40893 0.99487 0.36255 0.0
C3199 C 0.39473 0.98987 0.37469 0.0
C3200 C 0.39443 0.98015 0.39088 0.0
C3201 C 0.40813 0.97618 0.39538 0.0
C3202 C 0.42237 0.98172 0.38395 0.0
C3203 C 0.42285 0.99097 0.36772 0.0
H3204 H 0.61727 0.01316 0.36926 0.0
C3205 C 0.62067 0.00256 0.3651 0.0
H3206 H 0.61779 0.98242 0.34289 0.0
H3207 H 0.54451 0.97402 0.30456 0.0
H3208 H 0.53381 0.94399 0.31675 0.0
H3209 H 0.55469 0.93763 0.33643 0.0
H3210 H 0.58637 0.96137 0.34419 0.0
C3211 C 0.61513 0.99356 0.34704 0.0
C3212 C 0.60322 0.99685 0.33324 0.0
C3213 C 0.58484 0.98259 0.32828 0.0
C3214 C 0.57287 0.98615 0.31661 0.0
C3215 C 0.55436 0.97197 0.31283 0.0
C3216 C 0.54798 0.95466 0.31986 0.0
C3217 C 0.55973 0.95109 0.33097 0.0
C3218 C 0.57792 0.96486 0.33527 0.0
H3219 H 0.56233 0.9903 0.27354 0.0
C3220 C 0.55917 0.00031 0.28034 0.0
H3221 H 0.56346 0.01777 0.30607 0.0
H3222 H 0.63813 0.02633 0.33782 0.0
H3223 H 0.64899 0.05631 0.32522 0.0
H3224 H 0.62817 0.06261 0.30532 0.0
H3225 H 0.59637 0.03891 0.29778 0.0
C3226 C 0.56672 0.00818 0.29855 0.0
C3227 C 0.57941 0.00382 0.3095 0.0
C3228 C 0.59791 0.01786 0.31395 0.0
C3229 C 0.60986 0.01433 0.32569 0.0
C3230 C 0.62836 0.02844 0.32943 0.0
C3231 C 0.6348 0.04567 0.32218 0.0
C3232 C 0.62309 0.04921 0.31095 0.0
C3233 C 0.60486 0.0355 0.30678 0.0
H3234 H 0.01567 0.64868 0.30608 0.0
C3235 C 0.02754 0.65797 0.29911 0.0
H3236 H 0.04435 0.65994 0.2772 0.0
H3237 H 0.01038 0.57074 0.28797 0.0
H3238 H 0.02887 0.58161 0.31902 0.0
H3239 H 0.0449 0.61497 0.33165 0.0
H3240 H 0.04253 0.63767 0.31326 0.0
C3241 C 0.03309 0.6508 0.28502 0.0
C3242 C 0.0228 0.63055 0.27799 0.0
C3243 C 0.02418 0.61745 0.28903 0.0
C3244 C 0.01494 0.59822 0.28172 0.0
C3245 C 0.01691 0.58549 0.29286 0.0
C3246 C 0.02755 0.59155 0.31071 0.0
C3247 C 0.03657 0.61033 0.31782 0.0
C3248 C 0.03502 0.6232 0.30714 0.0
H3249 H 0.01199 0.57881 0.23203 0.0
C3250 C 0.00163 0.56762 0.23922 0.0
H3251 H 0.98666 0.56163 0.26364 0.0
H3252 H 0.01695 0.65202 0.25348 0.0
H3253 H 0.99779 0.64109 0.22279 0.0
H3254 H 0.9809 0.60758 0.21064 0.0
H3255 H 0.98318 0.58485 0.22904 0.0
C3256 C 0.99596 0.57227 0.25518 0.0
C3257 C 0.00439 0.59216 0.26336 0.0
C3258 C 0.0025 0.60519 0.25265 0.0
C3259 C 0.01193 0.62444 0.25985 0.0
C3260 C 0.01007 0.63722 0.24871 0.0
C3261 C 0.99908 0.63113 0.23109 0.0
C3262 C 0.98959 0.61227 0.22424 0.0
C3263 C 0.99114 0.59939 0.23488 0.0
H3264 H 0.34644 0.39833 0.34971 0.0
C3265 C 0.3516 0.39544 0.36297 0.0
H3266 H 0.37301 0.39336 0.37701 0.0
H3267 H 0.39925 0.37915 0.29772 0.0
H3268 H 0.38631 0.34861 0.3094 0.0
H3269 H 0.36983 0.34189 0.33854 0.0
H3270 H 0.36611 0.36565 0.35613 0.0
C3271 C 0.36801 0.39698 0.36419 0.0
C3272 C 0.37881 0.40151 0.34728 0.0
C3273 C 0.38114 0.38755 0.3374 0.0
C3274 C 0.39082 0.39147 0.32073 0.0
C3275 C 0.3924 0.37707 0.31073 0.0
C3276 C 0.38494 0.35943 0.3172 0.0
C3277 C 0.37564 0.35564 0.3336 0.0
C3278 C 0.37365 0.36944 0.34359 0.0
H3279 H 0.4306 0.41308 0.31108 0.0
C3280 C 0.42539 0.41599 0.29785 0.0
H3281 H 0.40277 0.41639 0.28409 0.0
H3282 H 0.37835 0.43197 0.36401 0.0
H3283 H 0.39141 0.46256 0.3524 0.0
H3284 H 0.40774 0.4692 0.32315 0.0
H3285 H 0.4112 0.44533 0.3054 0.0
C3286 C 0.40872 0.41384 0.29694 0.0
C3287 C 0.39838 0.40945 0.31419 0.0
C3288 C 0.39616 0.42345 0.32415 0.0
C3289 C 0.38651 0.41955 0.34084 0.0
C3290 C 0.3851 0.43401 0.35094 0.0
C3291 C 0.39265 0.45168 0.34451 0.0
C3292 C 0.40187 0.45543 0.32806 0.0
C3293 C 0.40371 0.44157 0.31798 0.0
H3294 H 0.32871 0.33085 0.40241 0.0
C3295 C 0.31553 0.32455 0.40797 0.0
H3296 H 0.29671 0.30255 0.42274 0.0
H3297 H 0.32909 0.24995 0.40972 0.0
H3298 H 0.30469 0.2359 0.38326 0.0
H3299 H 0.28785 0.25159 0.37384 0.0
H3300 H 0.29534 0.28145 0.39074 0.0
C3301 C 0.30989 0.30917 0.41723 0.0
C3302 C 0.32159 0.30104 0.42112 0.0
C3303 C 0.31705 0.28366 0.41109 0.0
C3304 C 0.32661 0.27453 0.41665 0.0
C3305 C 0.32195 0.25725 0.4063 0.0
C3306 C 0.30808 0.24911 0.39104 0.0
C3307 C 0.2986 0.25796 0.38572 0.0
C3308 C 0.30299 0.27505 0.39557 0.0
H3309 H 0.32265 0.2533 0.45062 0.0
C3310 C 0.3368 0.25705 0.45076 0.0
H3311 H 0.36212 0.27666 0.44169 0.0
H3312 H 0.33432 0.33475 0.44298 0.0
H3313 H 0.35934 0.34914 0.46847 0.0
H3314 H 0.37624 0.33347 0.47766 0.0
H3315 H 0.36811 0.30325 0.46141 0.0
C3316 C 0.34769 0.27151 0.44116 0.0
C3317 C 0.34048 0.28268 0.43242 0.0
C3318 C 0.34591 0.30069 0.44151 0.0
C3319 C 0.33632 0.30982 0.43602 0.0
C3320 C 0.34134 0.32732 0.44617 0.0
C3321 C 0.35566 0.33573 0.46095 0.0
C3322 C 0.36515 0.3269 0.46613 0.0
C3323 C 0.36034 0.30954 0.45666 0.0
H3324 H 0.71421 0.03211 0.42666 0.0
C3325 C 0.70081 0.02903 0.4208 0.0
H3326 H 0.68418 0.04055 0.41469 0.0
H3327 H 0.73761 0.10642 0.48111 0.0
H3328 H 0.71067 0.08989 0.49763 0.0
H3329 H 0.68395 0.0609 0.48184 0.0
H3330 H 0.68413 0.04817 0.44945 0.0
C3331 C 0.6977 0.04321 0.41927 0.0
C3332 C 0.71219 0.06254 0.42683 0.0
C3333 C 0.71156 0.07028 0.44537 0.0
C3334 C 0.72683 0.08724 0.45428 0.0
C3335 C 0.72625 0.09394 0.47336 0.0
C3336 C 0.71088 0.08451 0.48308 0.0
C3337 C 0.69585 0.06817 0.47421 0.0
C3338 C 0.69614 0.06102 0.45562 0.0
H3339 H 0.74852 0.13116 0.45406 0.0
C3340 C 0.76031 0.12995 0.45816 0.0
H3341 H 0.77119 0.11209 0.45649 0.0
H3342 H 0.71672 0.05267 0.39021 0.0
H3343 H 0.74328 0.06966 0.37303 0.0
H3344 H 0.76962 0.09933 0.38817 0.0
H3345 H 0.76961 0.11217 0.42057 0.0
C3346 C 0.75924 0.11338 0.45414 0.0
C3347 C 0.74248 0.0967 0.44432 0.0
C3348 C 0.74266 0.08948 0.42531 0.0
C3349 C 0.7275 0.07239 0.41657 0.0
C3350 C 0.72802 0.06548 0.39759 0.0
C3351 C 0.74312 0.07513 0.38754 0.0
C3352 C 0.75795 0.09184 0.39607 0.0
C3353 C 0.75779 0.09901 0.41471 0.0
H3354 H 0.98858 0.69074 0.37055 0.0
C3355 C 0.98919 0.70127 0.36157 0.0
H3356 H 0.97701 0.71675 0.35314 0.0
H3357 H 0.89918 0.66075 0.37499 0.0
H3358 H 0.89419 0.65657 0.33975 0.0
H3359 H 0.91995 0.67093 0.32005 0.0
H3360 H 0.95082 0.68965 0.33544 0.0
C3361 C 0.97689 0.7067 0.36252 0.0
C3362 C 0.96157 0.69772 0.3746 0.0
C3363 C 0.94361 0.68668 0.36533 0.0
C3364 C 0.92878 0.67821 0.37666 0.0
C3365 C 0.91096 0.66741 0.36706 0.0
C3366 C 0.9079 0.66489 0.34685 0.0
C3367 C 0.92239 0.67299 0.33576 0.0
C3368 C 0.94006 0.68375 0.3448 0.0
H3369 H 0.91979 0.69893 0.41808 0.0
C3370 C 0.9115 0.68391 0.41851 0.0
H3371 H 0.90871 0.65773 0.4091 0.0
H3372 H 0.99413 0.71924 0.39709 0.0
H3373 H 0.99913 0.72239 0.43225 0.0
H3374 H 0.97354 0.70607 0.45179 0.0
H3375 H 0.94276 0.68674 0.43625 0.0
C3376 C 0.91628 0.67277 0.40892 0.0
C3377 C 0.93193 0.6808 0.3972 0.0
C3378 C 0.94991 0.69147 0.40649 0.0
C3379 C 0.96473 0.70025 0.39519 0.0
C3380 C 0.98243 0.71166 0.40489 0.0
C3381 C 0.98549 0.7137 0.4251 0.0
C3382 C 0.97108 0.70456 0.4361 0.0
C3383 C 0.95346 0.69358 0.42699 0.0
H3384 H 0.40822 0.03227 0.70827 0.0
C3385 C 0.39351 0.02447 0.70783 0.0
H3386 H 0.37122 0.00412 0.72087 0.0
H3387 H 0.42689 0.97749 0.75027 0.0
H3388 H 0.40712 0.95202 0.7257 0.0
H3389 H 0.38259 0.95271 0.70588 0.0
H3390 H 0.37781 0.97905 0.71045 0.0
C3391 C 0.38587 0.01266 0.72127 0.0
C3392 C 0.39771 0.01031 0.73613 0.0
C3393 C 0.39981 0.99448 0.73393 0.0
C3394 C 0.41373 0.99393 0.74567 0.0
C3395 C 0.41626 0.97847 0.74222 0.0
C3396 C 0.40505 0.96377 0.72805 0.0
C3397 C 0.39125 0.96417 0.71687 0.0
C3398 C 0.38866 0.97936 0.71963 0.0
H3399 H 0.42722 0.98806 0.7871 0.0
C3400 C 0.44051 0.99892 0.78395 0.0
H3401 H 0.45459 0.02077 0.76647 0.0
H3402 H 0.3952 0.04113 0.74616 0.0
H3403 H 0.41413 0.0662 0.77165 0.0
H3404 H 0.43817 0.06527 0.79217 0.0
H3405 H 0.44342 0.03927 0.78737 0.0
C3406 C 0.44152 0.01015 0.77031 0.0
C3407 C 0.42518 0.00904 0.75998 0.0
C3408 C 0.42219 0.02424 0.76307 0.0
C3409 C 0.40841 0.02484 0.75119 0.0
C3410 C 0.4057 0.04018 0.75459 0.0
C3411 C 0.4164 0.05459 0.76923 0.0
C3412 C 0.42993 0.05406 0.78079 0.0
C3413 C 0.43284 0.03909 0.77783 0.0
H3414 H 0.95592 0.35283 0.76146 0.0
C3415 C 0.96624 0.34925 0.75874 0.0
H3416 H 0.9945 0.35947 0.76032 0.0
H3417 H 0.00243 0.44179 0.76311 0.0
H3418 H 0.00447 0.43735 0.72862 0.0
H3419 H 0.99938 0.40726 0.7134 0.0
H3420 H 0.99228 0.38142 0.73266 0.0
C3421 C 0.9838 0.36264 0.76214 0.0
C3422 C 0.98878 0.38138 0.77151 0.0
C3423 C 0.99294 0.39629 0.76013 0.0
C3424 C 0.99572 0.41356 0.7689 0.0
C3425 C -4e-05 0.42828 0.75717 0.0
C3426 C 0.00123 0.42594 0.73736 0.0
C3427 C 0.99836 0.409 0.72879 0.0
C3428 C 0.99427 0.39429 0.73998 0.0
H3429 H 0.01964 0.44198 0.81577 0.0
C3430 C 0.00918 0.44517 0.81134 0.0
H3431 H 0.98585 0.43688 0.79179 0.0
H3432 H 0.98344 0.35635 0.79783 0.0
H3433 H 0.9808 0.36035 0.8322 0.0
H3434 H 0.98348 0.38944 0.8471 0.0
H3435 H 0.98909 0.41475 0.82787 0.0
C3436 C 0.99565 0.43337 0.79771 0.0
C3437 C 0.99423 0.41581 0.78904 0.0
C3438 C 0.99042 0.40095 0.80053 0.0
C3439 C 0.98812 0.38388 0.7918 0.0
C3440 C 0.98485 0.36943 0.80364 0.0
C3441 C 0.98335 0.37156 0.82339 0.0
C3442 C 0.98491 0.38796 0.83179 0.0
C3443 C 0.98831 0.40248 0.82056 0.0
H3444 H 0.65521 0.62247 0.71802 0.0
C3445 C 0.6496 0.61969 0.70288 0.0
H3446 H 0.62571 0.60804 0.68342 0.0
H3447 H 0.60474 0.57631 0.7709 0.0
H3448 H 0.62275 0.56178 0.76561 0.0
H3449 H 0.63831 0.56568 0.73597 0.0
H3450 H 0.63641 0.58467 0.71181 0.0
C3451 C 0.63153 0.61052 0.69843 0.0
C3452 C 0.61916 0.6049 0.71405 0.0
C3453 C 0.61933 0.5926 0.72727 0.0
C3454 C 0.60924 0.58919 0.74358 0.0
C3455 C 0.61114 0.5784 0.75759 0.0
C3456 C 0.62161 0.57012 0.75484 0.0
C3457 C 0.63044 0.5724 0.73821 0.0
C3458 C 0.62937 0.58349 0.72455 0.0
H3459 H 0.57172 0.56331 0.75297 0.0
C3460 C 0.5732 0.57437 0.76349 0.0
H3461 H 0.58811 0.60341 0.77238 0.0
H3462 H 0.61542 0.62875 0.69118 0.0
H3463 H 0.59575 0.64154 0.69528 0.0
H3464 H 0.57649 0.63372 0.72223 0.0
H3465 H 0.57695 0.61323 0.74538 0.0
C3466 C 0.58604 0.59209 0.7619 0.0
C3467 C 0.59772 0.59673 0.74569 0.0
C3468 C 0.59704 0.60847 0.73209 0.0
C3469 C 0.60788 0.61268 0.71633 0.0
C3470 C 0.60729 0.62485 0.70326 0.0
C3471 C 0.59607 0.63232 0.70545 0.0
C3472 C 0.58524 0.62793 0.72063 0.0
C3473 C 0.58566 0.61616 0.73384 0.0
H3474 H 0.68866 0.69675 0.67218 0.0
C3475 C 0.70256 0.70199 0.66894 0.0
H3476 H 0.72504 0.72335 0.65734 0.0
H3477 H 0.67745 0.73888 0.59753 0.0
H3478 H 0.69125 0.72629 0.57662 0.0
H3479 H 0.70943 0.7135 0.59039 0.0
H3480 H 0.71415 0.71346 0.62513 0.0
C3481 C 0.71135 0.71827 0.66122 0.0
C3482 C 0.7012 0.72701 0.65331 0.0
C3483 C 0.69846 0.72674 0.63286 0.0
C3484 C 0.68764 0.73371 0.62489 0.0
C3485 C 0.6853 0.73349 0.60442 0.0
C3486 C 0.69317 0.72632 0.5922 0.0
C3487 C 0.70344 0.71917 0.59996 0.0
C3488 C 0.70607 0.71929 0.62 0.0
H3489 H 0.68721 0.77572 0.63722 0.0
C3490 C 0.67423 0.76606 0.62887 0.0
H3491 H 0.65585 0.73758 0.61923 0.0
H3492 H 0.70543 0.7315 0.69307 0.0
H3493 H 0.69127 0.74376 0.71404 0.0
H3494 H 0.67125 0.75442 0.70012 0.0
H3495 H 0.66543 0.75308 0.66516 0.0
C3496 C 0.66793 0.74765 0.62861 0.0
C3497 C 0.67946 0.74078 0.63734 0.0
C3498 C 0.6824 0.74132 0.65777 0.0
C3499 C 0.69349 0.73465 0.66579 0.0
C3500 C 0.69669 0.73587 0.68624 0.0
C3501 C 0.68872 0.74297 0.69843 0.0
C3502 C 0.67749 0.74902 0.69059 0.0
C3503 C 0.67431 0.74824 0.67051 0.0
H3504 H 0.28559 0.97145 0.64015 0.0
C3505 C 0.29864 0.97453 0.64719 0.0
H3506 H 0.31427 0.96282 0.65686 0.0
H3507 H 0.22616 0.89514 0.64552 0.0
H3508 H 0.22395 0.91055 0.67524 0.0
H3509 H 0.25039 0.93973 0.69116 0.0
H3510 H 0.27923 0.95368 0.67741 0.0
C3511 C 0.30109 0.96025 0.65093 0.0
C3512 C 0.28644 0.94078 0.64395 0.0
C3513 C 0.2698 0.93263 0.65229 0.0
C3514 C 0.2546 0.91578 0.64313 0.0
C3515 C 0.2381 0.90803 0.65175 0.0
C3516 C 0.23666 0.91669 0.66885 0.0
C3517 C 0.25154 0.93312 0.67781 0.0
C3518 C 0.26797 0.94104 0.66971 0.0
H3519 H 0.24756 0.87137 0.61893 0.0
C3520 C 0.23696 0.87361 0.61259 0.0
H3521 H 0.2286 0.89346 0.61015 0.0
H3522 H 0.31713 0.95132 0.62588 0.0
H3523 H 0.31965 0.9358 0.59646 0.0
H3524 H 0.29305 0.90728 0.57973 0.0
H3525 H 0.26388 0.89401 0.59237 0.0
C3526 C 0.23942 0.89094 0.61485 0.0
C3527 C 0.25608 0.90705 0.62567 0.0
C3528 C 0.27306 0.91463 0.61794 0.0
C3529 C 0.28833 0.93135 0.62732 0.0
C3530 C 0.30509 0.93874 0.61927 0.0
C3531 C 0.30673 0.92997 0.60239 0.0
C3532 C 0.29176 0.91389 0.593 0.0
C3533 C 0.27508 0.90633 0.60053 0.0
H3534 H 0.02649 0.29567 0.72425 0.0
C3535 C 0.01929 0.30326 0.72267 0.0
H3536 H 0.01788 0.32457 0.70889 0.0
H3537 H 0.1008 0.36031 0.69206 0.0
H3538 H 0.10377 0.38244 0.71853 0.0
H3539 H 0.07754 0.37661 0.73613 0.0
H3540 H 0.04819 0.34852 0.72742 0.0
C3541 C 0.02452 0.31642 0.71031 0.0
C3542 C 0.03991 0.32055 0.69871 0.0
C3543 C 0.05682 0.33725 0.70364 0.0
C3544 C 0.07185 0.34077 0.69326 0.0
C3545 C 0.0888 0.35718 0.69907 0.0
C3546 C 0.09072 0.36994 0.71434 0.0
C3547 C 0.07596 0.36665 0.72426 0.0
C3548 C 0.05919 0.35048 0.7191 0.0
H3549 H 0.0866 0.35418 0.65428 0.0
C3550 C 0.09182 0.34467 0.65454 0.0
H3551 H 0.09034 0.32159 0.66747 0.0
H3552 H 0.00887 0.28804 0.68434 0.0
H3553 H 0.00574 0.26609 0.65759 0.0
H3554 H 0.03184 0.27205 0.63971 0.0
H3555 H 0.06119 0.30003 0.64841 0.0
C3556 C 0.08531 0.33119 0.66657 0.0
C3557 C 0.06979 0.32775 0.67767 0.0
C3558 C 0.05279 0.31117 0.67257 0.0
C3559 C 0.03779 0.30763 0.683 0.0
C3560 C 0.02082 0.29123 0.67721 0.0
C3561 C 0.0188 0.27855 0.6618 0.0
C3562 C 0.03349 0.28192 0.65172 0.0
C3563 C 0.05029 0.29803 0.65692 0.0
H3564 H 0.28919 0.33421 0.68718 0.0
C3565 C 0.28292 0.31908 0.68585 0.0
H3566 H 0.26107 0.2934 0.67251 0.0
H3567 H 0.20919 0.32563 0.6569 0.0
H3568 H 0.19514 0.30568 0.68213 0.0
H3569 H 0.21009 0.29092 0.69895 0.0
H3570 H 0.23911 0.29589 0.69054 0.0
C3571 C 0.26791 0.30855 0.67343 0.0
C3572 C 0.25883 0.31717 0.66276 0.0
C3573 C 0.24189 0.31418 0.66793 0.0
C3574 C 0.23341 0.32293 0.65844 0.0
C3575 C 0.21639 0.31956 0.66379 0.0
C3576 C 0.20813 0.3081 0.67824 0.0
C3577 C 0.21654 0.29977 0.68769 0.0
C3578 C 0.2332 0.30272 0.68268 0.0
H3579 H 0.22597 0.32752 0.60773 0.0
C3580 C 0.22498 0.33845 0.61602 0.0
H3581 H 0.23099 0.35372 0.64366 0.0
H3582 H 0.29027 0.32418 0.64787 0.0
H3583 H 0.30459 0.34453 0.62295 0.0
H3584 H 0.29065 0.36099 0.60768 0.0
H3585 H 0.26219 0.35701 0.61704 0.0
C3586 C 0.23299 0.34405 0.63439 0.0
C3587 C 0.24189 0.33469 0.64382 0.0
C3588 C 0.25876 0.33755 0.63851 0.0
C3589 C 0.26711 0.32856 0.6478 0.0
C3590 C 0.28362 0.33112 0.64173 0.0
C3591 C 0.29193 0.34268 0.62736 0.0
C3592 C 0.28406 0.35191 0.61873 0.0
C3593 C 0.26768 0.34944 0.62418 0.0
H3594 H 0.70689 0.97885 0.62959 0.0
C3595 C 0.69857 0.98441 0.63459 0.0
H3596 H 0.67179 0.9783 0.63761 0.0
H3597 H 0.64777 0.91499 0.56652 0.0
H3598 H 0.64143 0.93706 0.55185 0.0
H3599 H 0.64877 0.96669 0.57042 0.0
H3600 H 0.66266 0.97447 0.60377 0.0
C3601 C 0.68057 0.97289 0.63402 0.0
C3602 C 0.67227 0.95337 0.62476 0.0
C3603 C 0.66338 0.94866 0.60559 0.0
C3604 C 0.65885 0.93142 0.59501 0.0
C3605 C 0.65108 0.92763 0.57545 0.0
C3606 C 0.64745 0.94024 0.56678 0.0
C3607 C 0.65161 0.95693 0.57723 0.0
C3608 C 0.65957 0.96122 0.59637 0.0
H3609 H 0.63226 0.88709 0.58954 0.0
C3610 C 0.64445 0.88706 0.58607 0.0
H3611 H 0.67309 0.90171 0.59062 0.0
H3612 H 0.68628 0.95692 0.66225 0.0
H3613 H 0.69136 0.93421 0.67765 0.0
H3614 H 0.68315 0.90409 0.65952 0.0
H3615 H 0.66987 0.89648 0.62591 0.0
C3616 C 0.66076 0.90209 0.59227 0.0
C3617 C 0.66279 0.91876 0.60387 0.0
C3618 C 0.67036 0.92287 0.62355 0.0
C3619 C 0.6751 0.9402 0.63401 0.0
C3620 C 0.68269 0.94402 0.65361 0.0
C3621 C 0.68558 0.93109 0.66263 0.0
C3622 C 0.68095 0.91413 0.65242 0.0
C3623 C 0.67341 0.90998 0.63312 0.0
H3624 H 0.03458 0.7182 0.71936 0.0
C3625 C 0.02157 0.71336 0.71101 0.0
H3626 H 0.00776 0.70834 0.683 0.0
H3627 H 0.09221 0.77098 0.66943 0.0
H3628 H 0.08768 0.79282 0.68967 0.0
H3629 H 0.05973 0.78201 0.70583 0.0
H3630 H 0.03636 0.74926 0.70216 0.0
C3631 C 0.02074 0.71385 0.69168 0.0
C3632 C 0.03727 0.72063 0.68141 0.0
C3633 C 0.05048 0.73994 0.68321 0.0
C3634 C 0.06616 0.74631 0.67313 0.0
C3635 C 0.07963 0.76551 0.67601 0.0
C3636 C 0.07728 0.77818 0.68773 0.0
C3637 C 0.06159 0.77208 0.69689 0.0
C3638 C 0.0483 0.75321 0.69472 0.0
H3639 H 0.07398 0.75584 0.63299 0.0
C3640 C 0.08398 0.75144 0.63409 0.0
H3641 H 0.09298 0.73592 0.6496 0.0
H3642 H 0.01512 0.68262 0.67591 0.0
H3643 H 0.01956 0.66083 0.65542 0.0
H3644 H 0.04616 0.67203 0.63688 0.0
H3645 H 0.06854 0.70507 0.63882 0.0
C3646 C 0.08308 0.74036 0.64779 0.0
C3647 C 0.06811 0.73348 0.66049 0.0
C3648 C 0.05517 0.71413 0.65915 0.0
C3649 C 0.03973 0.7077 0.66964 0.0
C3650 C 0.02701 0.68828 0.6681 0.0
C3651 C 0.0294 0.67562 0.65641 0.0
C3652 C 0.04439 0.68193 0.64599 0.0
C3653 C 0.05714 0.70094 0.64724 0.0
H3654 H 0.94688 0.61794 0.73907 0.0
C3655 C 0.95692 0.63092 0.73397 0.0
H3656 H 0.98425 0.64737 0.72841 0.0
H3657 H 0.00535 0.61346 0.79811 0.0
H3658 H 0.01773 0.64557 0.81123 0.0
H3659 H 0.01317 0.66748 0.79261 0.0
H3660 H 0.996 0.65723 0.76084 0.0
C3661 C 0.97382 0.63415 0.73266 0.0
C3662 C 0.97956 0.62192 0.74163 0.0
C3663 C 0.99045 0.62841 0.75977 0.0
C3664 C 0.99352 0.61592 0.77024 0.0
C3665 C 0.00321 0.62243 0.78905 0.0
C3666 C 0.01028 0.64085 0.79689 0.0
C3667 C 0.00768 0.65317 0.78644 0.0
C3668 C 0.9978 0.64708 0.76816 0.0
H3669 H 0.01612 0.59582 0.7727 0.0
C3670 C 0.0042 0.58507 0.77852 0.0
H3671 H 0.97564 0.57215 0.77793 0.0
H3672 H 0.96009 0.60592 0.70621 0.0
H3673 H 0.94842 0.57391 0.69234 0.0
H3674 H 0.95414 0.55229 0.71018 0.0
H3675 H 0.97154 0.5625 0.74198 0.0
C3676 C 0.98804 0.58355 0.77366 0.0
C3677 C 0.98628 0.59714 0.76212 0.0
C3678 C 0.97618 0.59096 0.74354 0.0
C3679 C 0.97282 0.60338 0.73327 0.0
C3680 C 0.96276 0.59691 0.71471 0.0
C3681 C 0.95608 0.57863 0.70656 0.0
C3682 C 0.95931 0.56646 0.71661 0.0
C3683 C 0.96926 0.57248 0.73487 0.0
H3684 H 0.36551 0.37471 0.74897 0.0
C3685 C 0.3684 0.3651 0.75617 0.0
H3686 H 0.38484 0.36245 0.77825 0.0
H3687 H 0.44061 0.4508 0.76767 0.0
H3688 H 0.44478 0.43932 0.73658 0.0
H3689 H 0.42551 0.40616 0.72367 0.0
H3690 H 0.40193 0.38425 0.74183 0.0
C3691 C 0.38237 0.37189 0.77017 0.0
C3692 C 0.39322 0.39214 0.77712 0.0
C3693 C 0.40676 0.4048 0.7662 0.0
C3694 C 0.41787 0.42392 0.77366 0.0
C3695 C 0.43163 0.43617 0.76266 0.0
C3696 C 0.43422 0.42976 0.74479 0.0
C3697 C 0.42337 0.41108 0.73752 0.0
C3698 C 0.40984 0.39867 0.74807 0.0
H3699 H 0.43876 0.44193 0.82355 0.0
C3700 C 0.43957 0.45365 0.81656 0.0
H3701 H 0.42931 0.46107 0.79224 0.0
H3702 H 0.36793 0.37166 0.8013 0.0
H3703 H 0.36304 0.38327 0.83194 0.0
H3704 H 0.38155 0.41664 0.84434 0.0
H3705 H 0.40518 0.43856 0.82626 0.0
C3706 C 0.42815 0.44994 0.80052 0.0
C3707 C 0.4154 0.43032 0.79205 0.0
C3708 C 0.40132 0.4178 0.80257 0.0
C3709 C 0.39039 0.39864 0.79522 0.0
C3710 C 0.37664 0.38636 0.80619 0.0
C3711 C 0.37364 0.39285 0.82378 0.0
C3712 C 0.38408 0.41164 0.83077 0.0
C3713 C 0.39771 0.42404 0.82032 0.0
H3714 H 0.66341 0.0298 0.70042 0.0
C3715 C 0.65885 0.03075 0.68577 0.0
H3716 H 0.63801 0.03069 0.66777 0.0
H3717 H 0.59804 0.99098 0.74539 0.0
H3718 H 0.60244 0.96545 0.73435 0.0
H3719 H 0.61933 0.96748 0.70614 0.0
H3720 H 0.63215 0.99517 0.68901 0.0
C3721 C 0.64251 0.02913 0.68217 0.0
C3722 C 0.63093 0.02704 0.69807 0.0
C3723 C 0.62297 0.01045 0.70746 0.0
C3724 C 0.6126 0.00897 0.72322 0.0
C3725 C 0.60552 0.99262 0.73293 0.0
C3726 C 0.60802 0.97788 0.7268 0.0
C3727 C 0.61758 0.97905 0.71097 0.0
C3728 C 0.62497 0.99508 0.70134 0.0
H3729 H 0.57416 0.00174 0.72934 0.0
C3730 C 0.5804 0.01067 0.74297 0.0
H3731 H 0.60542 0.03121 0.75862 0.0
H3732 H 0.64413 0.06066 0.68308 0.0
H3733 H 0.63886 0.08574 0.69347 0.0
H3734 H 0.62008 0.08275 0.72014 0.0
H3735 H 0.60653 0.05468 0.73665 0.0
C3736 C 0.59849 0.02224 0.74521 0.0
C3737 C 0.60965 0.02379 0.72905 0.0
C3738 C 0.61739 0.04024 0.7195 0.0
C3739 C 0.62803 0.04187 0.70398 0.0
C3740 C 0.63576 0.05857 0.69482 0.0
C3741 C 0.63287 0.0731 0.70066 0.0
C3742 C 0.62232 0.07143 0.71568 0.0
C3743 C 0.61463 0.05523 0.72505 0.0
loop_
_geom_bond_atom_site_label_1
_geom_bond_atom_site_label_2
_geom_bond_distance
_geom_bond_site_symmetry_2
_ccdc_geom_bond_type
Mg0 O1 2.028 . S
Mg0 O7 1.986 1_455 S
Mg0 O9 2.114 . S
Mg0 O10 2.251 1_554 S
Mg0 O13 2.010 . S
O1 Mg0 2.028 . S
O1 C4 1.183 1_455 S
O2 Mg3 2.028 . S
O2 C4 1.305 . S
Mg3 O2 2.028 . S
Mg3 O8 2.032 . S
Mg3 O10 2.079 1_654 S
C4 O1 1.183 1_655 S
C4 O2 1.305 . S
C5 O6 1.264 . S
C5 O13 1.249 . S
O6 C5 1.264 . S
O7 Mg0 1.986 1_655 S
O7 C11 1.246 . S
O8 Mg3 2.032 . S
O8 C11 1.259 . S
O9 Mg0 2.114 . S
O9 C12 1.252 1_554 S
O10 Mg0 2.251 1_556 S
O10 Mg3 2.079 1_456 S
O10 C12 1.273 . S
C11 O7 1.246 . S
C11 O8 1.259 . S
C12 O9 1.252 1_556 S
C12 O10 1.273 . S
O13 Mg0 2.010 . S
O13 C5 1.249 . S
Mg14 O15 2.028 . S
Mg14 O21 1.986 . S
Mg14 O23 2.114 . S
Mg14 O24 2.251 . S
Mg14 O27 2.010 . S
O15 Mg14 2.028 . S
O15 C18 1.250 . S
O16 Mg17 2.028 . S
O16 C18 1.248 . S
Mg17 O16 2.028 . S
Mg17 O22 2.032 . S
Mg17 O24 2.079 . S
C18 O15 1.250 . S
C18 O16 1.248 . S
C19 O20 1.264 . S
C19 O27 1.249 . S
O20 C19 1.264 . S
O21 Mg14 1.986 . S
O21 C25 1.246 . S
O22 Mg17 2.032 . S
O22 C25 1.259 . S
O23 Mg14 2.114 . S
O23 C26 1.252 . S
O24 Mg14 2.251 . S
O24 Mg17 2.079 . S
O24 C26 1.273 . S
C25 O21 1.246 . S
C25 O22 1.259 . S
C26 O23 1.252 . S
C26 O24 1.273 . S
O27 Mg14 2.010 . S
O27 C19 1.249 . S
Mg28 O29 2.028 1_565 S
Mg28 O35 1.986 1_565 S
Mg28 O37 2.114 . S
Mg28 O38 2.251 1_564 S
Mg28 O41 2.010 . S
O29 Mg28 2.028 1_545 S
O29 C32 1.250 . S
O30 Mg31 2.028 . S
O30 C32 1.248 . S
Mg31 O30 2.028 . S
Mg31 O36 2.032 . S
Mg31 O38 2.079 1_554 S
C32 O29 1.250 . S
C32 O30 1.248 . S
C33 O34 1.264 . S
C33 O41 1.249 . S
O34 C33 1.264 . S
O35 Mg28 1.986 1_545 S
O35 C39 1.246 . S
O36 Mg31 2.032 . S
O36 C39 1.259 . S
O37 Mg28 2.114 . S
O37 C40 1.252 1_554 S
O38 Mg28 2.251 1_546 S
O38 Mg31 2.079 1_556 S
O38 C40 1.273 1_545 S
C39 O35 1.246 . S
C39 O36 1.259 . S
C40 O37 1.252 1_556 S
C40 O38 1.273 1_565 S
O41 Mg28 2.010 . S
O41 C33 1.249 . S
Mg42 O43 2.017 1_655 S
Mg42 O49 1.986 1_655 S
Mg42 O51 2.114 . S
Mg42 O52 2.251 1_655 S
Mg42 O55 2.010 . S
O43 Mg42 2.017 1_455 S
O43 C46 1.275 . S
O44 Mg45 2.028 . S
O44 C46 1.248 . S
Mg45 O44 2.028 . S
Mg45 O50 2.032 . S
Mg45 O52 2.079 . S
C46 O43 1.275 . S
C46 O44 1.248 . S
C47 O48 1.264 . S
C47 O55 1.249 . S
O48 C47 1.264 . S
O49 Mg42 1.986 1_455 S
O49 C53 1.246 . S
O50 Mg45 2.032 . S
O50 C53 1.259 . S
O51 Mg42 2.114 . S
O51 C54 1.252 . S
O52 Mg42 2.251 1_455 S
O52 Mg45 2.079 . S
O52 C54 1.273 1_455 S
C53 O49 1.246 . S
C53 O50 1.259 . S
C54 O51 1.252 . S
C54 O52 1.273 1_655 S
O55 Mg42 2.010 . S
O55 C47 1.249 . S
Mg56 O57 2.028 1_556 S
Mg56 O63 1.986 . S
Mg56 O65 2.114 . S
Mg56 O66 2.251 . S
Mg56 O69 2.010 1_556 S
O57 Mg56 2.028 1_554 S
O57 C60 1.250 . S
O58 Mg59 2.028 1_554 S
O58 C60 1.248 . S
Mg59 O58 2.028 1_556 S
Mg59 O64 2.032 . S
Mg59 O66 2.079 . S
C60 O57 1.250 . S
C60 O58 1.248 . S
C61 O62 1.264 . S
C61 O69 1.249 . S
O62 C61 1.264 . S
O63 Mg56 1.986 . S
O63 C67 1.246 . S
O64 Mg59 2.032 . S
O64 C67 1.259 . S
O65 Mg56 2.114 . S
O65 C68 1.252 . S
O66 Mg56 2.251 . S
O66 Mg59 2.079 . S
O66 C68 1.273 . S
C67 O63 1.246 . S
C67 O64 1.259 . S
C68 O65 1.252 . S
C68 O66 1.273 . S
O69 Mg56 2.010 1_554 S
O69 C61 1.249 . S
Mg70 O71 2.028 . S
Mg70 O77 1.986 1_545 S
Mg70 O79 2.114 . S
Mg70 O80 2.251 . S
Mg70 O83 2.010 . S
O71 Mg70 2.028 . S
O71 C74 1.250 . S
O72 Mg73 2.028 . S
O72 C74 1.248 1_565 S
Mg73 O72 2.028 . S
Mg73 O78 2.032 . S
Mg73 O80 2.079 1_565 S
C74 O71 1.250 . S
C74 O72 1.248 1_545 S
C75 O76 1.264 . S
C75 O83 1.249 . S
O76 C75 1.264 . S
O77 Mg70 1.986 1_565 S
O77 C81 1.246 . S
O78 Mg73 2.032 . S
O78 C81 1.259 . S
O79 Mg70 2.114 . S
O79 C82 1.252 . S
O80 Mg70 2.251 . S
O80 Mg73 2.079 1_545 S
O80 C82 1.273 . S
C81 O77 1.246 . S
C81 O78 1.259 . S
C82 O79 1.252 . S
C82 O80 1.273 . S
O83 Mg70 2.010 . S
O83 C75 1.249 . S
Mg84 O85 2.028 . S
Mg84 O91 1.986 . S
Mg84 O93 2.114 . S
Mg84 O94 2.251 . S
Mg84 O97 2.010 . S
O85 Mg84 2.028 . S
O85 C88 1.250 . S
O86 Mg87 2.028 . S
O86 C88 1.248 . S
Mg87 O86 2.028 . S
Mg87 O92 2.032 . S
Mg87 O94 2.079 . S
C88 O85 1.250 . S
C88 O86 1.248 . S
C89 O90 1.264 . S
C89 O97 1.249 . S
O90 C89 1.264 . S
O91 Mg84 1.986 . S
O91 C95 1.246 . S
O92 Mg87 2.032 . S
O92 C95 1.259 . S
O93 Mg84 2.114 . S
O93 C96 1.252 . S
O94 Mg84 2.251 . S
O94 Mg87 2.079 . S
O94 C96 1.273 . S
C95 O91 1.246 . S
C95 O92 1.259 . S
C96 O93 1.252 . S
C96 O94 1.273 . S
O97 Mg84 2.010 . S
O97 C89 1.249 . S
Mg98 O99 2.028 . S
Mg98 O105 1.986 . S
Mg98 O107 2.114 . S
Mg98 O108 2.251 . S
Mg98 O111 2.010 . S
O99 Mg98 2.028 . S
O99 C102 1.250 . S
O100 Mg101 2.028 . S
O100 C102 1.248 . S
Mg101 O100 2.028 . S
Mg101 O106 2.032 . S
Mg101 O108 2.079 . S
C102 O99 1.250 . S
C102 O100 1.248 . S
C103 O104 1.264 . S
C103 O111 1.249 . S
O104 C103 1.264 . S
O105 Mg98 1.986 . S
O105 C109 1.249 1_565 S
O106 Mg101 2.032 . S
O106 C109 1.260 1_565 S
O107 Mg98 2.114 . S
O107 C110 1.252 . S
O108 Mg98 2.251 . S
O108 Mg101 2.079 . S
O108 C110 1.273 . S
C109 O105 1.249 1_545 S
C109 O106 1.260 1_545 S
C110 O107 1.252 . S
C110 O108 1.273 . S
O111 Mg98 2.010 . S
O111 C103 1.249 . S
Mg112 O113 2.028 . S
Mg112 O119 1.986 . S
Mg112 O121 2.114 . S
Mg112 O122 2.251 . S
Mg112 O125 2.010 . S
O113 Mg112 2.028 . S
O113 C116 1.250 . S
O114 Mg115 2.028 . S
O114 C116 1.248 . S
Mg115 O114 2.028 . S
Mg115 O120 2.032 . S
Mg115 O122 2.079 . S
C116 O113 1.250 . S
C116 O114 1.248 . S
C117 O118 1.264 . S
C117 O125 1.249 1_655 S
O118 C117 1.264 . S
O119 Mg112 1.986 . S
O119 C123 1.246 . S
O120 Mg115 2.032 . S
O120 C123 1.259 . S
O121 Mg112 2.114 . S
O121 C124 1.252 . S
O122 Mg112 2.251 . S
O122 Mg115 2.079 . S
O122 C124 1.273 . S
C123 O119 1.246 . S
C123 O120 1.259 . S
C124 O121 1.252 . S
C124 O122 1.273 . S
O125 Mg112 2.010 . S
O125 C117 1.249 1_455 S
Mg126 O127 2.028 . S
Mg126 O133 1.986 . S
Mg126 O135 2.114 . S
Mg126 O136 2.251 . S
Mg126 O139 2.010 . S
O127 Mg126 2.028 . S
O127 C130 1.250 . S
O128 Mg129 2.028 . S
O128 C130 1.248 . S
Mg129 O128 2.028 . S
Mg129 O134 2.032 . S
Mg129 O136 2.079 . S
C130 O127 1.250 . S
C130 O128 1.248 . S
C131 O132 1.264 . S
C131 O139 1.249 . S
O132 C131 1.264 . S
O133 Mg126 1.986 . S
O133 C137 1.239 . S
O134 Mg129 2.032 . S
O134 C137 1.318 . S
O135 Mg126 2.114 . S
O135 C138 1.252 . S
O136 Mg126 2.251 . S
O136 Mg129 2.079 . S
O136 C138 1.273 . S
C137 O133 1.239 . S
C137 O134 1.318 . S
C138 O135 1.252 . S
C138 O136 1.273 . S
O139 Mg126 2.010 . S
O139 C131 1.249 . S
Mg140 O141 2.028 . S
Mg140 O147 1.986 . S
Mg140 O149 2.114 . S
Mg140 O150 2.251 . S
Mg140 O153 2.010 . S
O141 Mg140 2.028 . S
O141 C144 1.250 . S
O142 Mg143 2.028 . S
O142 C144 1.248 . S
Mg143 O142 2.028 . S
Mg143 O148 2.032 . S
Mg143 O150 2.079 . S
C144 O141 1.250 . S
C144 O142 1.248 . S
C145 O146 1.264 . S
C145 O153 1.249 1_655 S
O146 C145 1.264 . S
O147 Mg140 1.986 . S
O147 C151 1.246 . S
O148 Mg143 2.032 . S
O148 C151 1.259 . S
O149 Mg140 2.114 . S
O149 C152 1.252 . S
O150 Mg140 2.251 . S
O150 Mg143 2.079 . S
O150 C152 1.273 . S
C151 O147 1.246 . S
C151 O148 1.259 . S
C152 O149 1.252 . S
C152 O150 1.273 . S
O153 Mg140 2.010 . S
O153 C145 1.249 1_455 S
Mg154 O155 2.028 . S
Mg154 O161 1.986 . S
Mg154 O163 2.114 . S
Mg154 O164 2.251 . S
Mg154 O167 2.010 . S
O155 Mg154 2.028 . S
O155 C158 1.250 . S
O156 Mg157 2.028 . S
O156 C158 1.248 . S
Mg157 O156 2.028 . S
Mg157 O162 2.032 . S
Mg157 O164 2.079 . S
C158 O155 1.250 . S
C158 O156 1.248 . S
C159 O160 1.264 . S
C159 O167 1.249 . S
O160 C159 1.264 . S
O161 Mg154 1.986 . S
O161 C165 1.246 . S
O162 Mg157 2.032 . S
O162 C165 1.259 . S
O163 Mg154 2.114 . S
O163 C166 1.252 . S
O164 Mg154 2.251 . S
O164 Mg157 2.079 . S
O164 C166 1.273 . S
C165 O161 1.246 . S
C165 O162 1.259 . S
C166 O163 1.252 . S
C166 O164 1.273 . S
O167 Mg154 2.010 . S
O167 C159 1.249 . S
Mg168 O169 2.028 . S
Mg168 O175 1.986 . S
Mg168 O177 2.114 . S
Mg168 O178 2.251 . S
Mg168 O181 2.010 . S
O169 Mg168 2.028 . S
O169 C172 1.250 . S
O170 Mg171 2.028 . S
O170 C172 1.248 . S
Mg171 O170 2.028 . S
Mg171 O176 2.032 . S
Mg171 O178 2.079 . S
C172 O169 1.250 . S
C172 O170 1.248 . S
C173 O174 1.264 . S
C173 O181 1.249 . S
O174 C173 1.264 . S
O175 Mg168 1.986 . S
O175 C179 1.246 . S
O176 Mg171 2.032 . S
O176 C179 1.259 . S
O177 Mg168 2.114 . S
O177 C180 1.252 . S
O178 Mg168 2.251 . S
O178 Mg171 2.079 . S
O178 C180 1.273 . S
C179 O175 1.246 . S
C179 O176 1.259 . S
C180 O177 1.252 . S
C180 O178 1.273 . S
O181 Mg168 2.010 . S
O181 C173 1.249 . S
Mg182 O183 2.028 . S
Mg182 O189 1.986 . S
Mg182 O191 2.114 . S
Mg182 O192 2.251 . S
Mg182 O195 2.010 . S
O183 Mg182 2.028 . S
O183 C186 1.250 . S
O184 Mg185 2.028 . S
O184 C186 1.248 . S
Mg185 O184 2.028 . S
Mg185 O190 2.032 . S
Mg185 O192 2.079 . S
C186 O183 1.250 . S
C186 O184 1.248 . S
C187 O188 1.264 . S
C187 O195 1.249 1_455 S
O188 C187 1.264 . S
O189 Mg182 1.986 . S
O189 C193 1.246 . S
O190 Mg185 2.032 . S
O190 C193 1.259 . S
O191 Mg182 2.114 . S
O191 C194 1.252 . S
O192 Mg182 2.251 . S
O192 Mg185 2.079 . S
O192 C194 1.273 . S
C193 O189 1.246 . S
C193 O190 1.259 . S
C194 O191 1.252 . S
C194 O192 1.273 . S
O195 Mg182 2.010 . S
O195 C187 1.249 1_655 S
Mg196 O197 2.028 . S
Mg196 O203 1.986 . S
Mg196 O205 2.114 . S
Mg196 O206 2.251 . S
Mg196 O209 2.010 . S
O197 Mg196 2.028 . S
O197 C200 1.250 . S
O198 Mg199 2.028 . S
O198 C200 1.248 . S
Mg199 O198 2.028 . S
Mg199 O204 2.032 . S
Mg199 O206 2.079 . S
C200 O197 1.250 . S
C200 O198 1.248 . S
C201 O202 1.264 . S
C201 O209 1.249 . S
O202 C201 1.264 . S
O203 Mg196 1.986 . S
O203 C207 1.246 . S
O204 Mg199 2.032 . S
O204 C207 1.259 . S
O205 Mg196 2.114 . S
O205 C208 1.252 . S
O206 Mg196 2.251 . S
O206 Mg199 2.079 . S
O206 C208 1.273 . S
C207 O203 1.246 . S
C207 O204 1.259 . S
C208 O205 1.252 . S
C208 O206 1.273 . S
O209 Mg196 2.010 . S
O209 C201 1.249 . S
Mg210 O211 2.028 . S
Mg210 O217 1.986 . S
Mg210 O219 2.114 . S
Mg210 O220 2.251 . S
Mg210 O223 2.010 . S
O211 Mg210 2.028 . S
O211 C214 1.250 . S
O212 Mg213 2.028 . S
O212 C214 1.248 . S
Mg213 O212 2.028 . S
Mg213 O218 2.032 . S
Mg213 O220 2.079 . S
C214 O211 1.250 . S
C214 O212 1.248 . S
C215 O216 1.264 . S
C215 O223 1.249 . S
O216 C215 1.264 . S
O217 Mg210 1.986 . S
O217 C221 1.246 . S
O218 Mg213 2.032 . S
O218 C221 1.259 . S
O219 Mg210 2.114 . S
O219 C222 1.252 . S
O220 Mg210 2.251 . S
O220 Mg213 2.079 . S
O220 C222 1.273 . S
C221 O217 1.246 . S
C221 O218 1.259 . S
C222 O219 1.252 . S
C222 O220 1.273 . S
O223 Mg210 2.010 . S
O223 C215 1.249 . S
Mg224 O225 2.028 . S
Mg224 O231 1.986 . S
Mg224 O233 2.114 . S
Mg224 O234 2.251 . S
Mg224 O237 2.010 . S
O225 Mg224 2.028 . S
O225 C228 1.250 . S
O226 Mg227 2.028 . S
O226 C228 1.248 . S
Mg227 O226 2.028 . S
Mg227 O232 2.032 . S
Mg227 O234 2.079 . S
C228 O225 1.250 . S
C228 O226 1.248 . S
C229 O230 1.264 . S
C229 O237 1.249 . S
O230 C229 1.264 . S
O231 Mg224 1.986 . S
O231 C235 1.246 . S
O232 Mg227 2.032 . S
O232 C235 1.259 . S
O233 Mg224 2.114 . S
O233 C236 1.252 . S
O234 Mg224 2.251 . S
O234 Mg227 2.079 . S
O234 C236 1.273 . S
C235 O231 1.246 . S
C235 O232 1.259 . S
C236 O233 1.252 . S
C236 O234 1.273 . S
O237 Mg224 2.010 . S
O237 C229 1.249 . S
Mg238 O239 2.028 . S
Mg238 O245 1.986 . S
Mg238 O247 2.114 . S
Mg238 O248 2.251 . S
Mg238 O251 2.010 . S
O239 Mg238 2.028 . S
O239 C242 1.250 . S
O240 Mg241 2.028 . S
O240 C242 1.248 . S
Mg241 O240 2.028 . S
Mg241 O246 2.032 . S
Mg241 O248 2.079 . S
C242 O239 1.250 . S
C242 O240 1.248 . S
C243 O244 1.264 . S
C243 O251 1.249 1_455 S
O244 C243 1.264 . S
O245 Mg238 1.986 . S
O245 C249 1.246 . S
O246 Mg241 2.032 . S
O246 C249 1.259 . S
O247 Mg238 2.114 . S
O247 C250 1.252 . S
O248 Mg238 2.251 . S
O248 Mg241 2.079 . S
O248 C250 1.273 . S
C249 O245 1.246 . S
C249 O246 1.259 . S
C250 O247 1.252 . S
C250 O248 1.273 . S
O251 Mg238 2.010 . S
O251 C243 1.249 1_655 S
H252 O278 0.856 . S
H253 O281 0.854 . S
H254 C289 0.930 . S
H255 C290 0.930 . S
H256 C292 0.930 . S
H257 C293 0.930 . S
H258 C295 0.931 . S
H259 C296 0.930 . S
H260 C298 0.930 . S
H261 C299 0.929 . S
H262 C301 0.930 . S
H263 C302 0.931 . S
H264 C304 0.930 . S
H265 C305 0.929 . S
H266 C307 0.931 . S
H267 C308 0.930 . S
H268 C310 0.930 . S
H269 C311 0.932 . S
H270 C313 0.930 . S
H271 C314 0.929 . S
H272 C316 0.931 . S
H273 C317 0.930 . S
H274 C319 0.929 . S
H275 C320 0.931 . S
H276 C322 0.930 . S
H277 C323 0.929 . S
O278 H252 0.856 . S
O278 C324 1.300 . S
O279 C324 1.209 . S
O280 C325 1.199 . S
O281 H253 0.854 . S
O281 C325 1.297 . S
C282 C283 1.404 . S
C282 C287 1.397 . S
C282 C288 1.492 . S
C283 C282 1.404 . S
C283 C284 1.396 . S
C283 C294 1.492 . S
C284 C283 1.396 . S
C284 C285 1.397 . S
C284 C300 1.509 . S
C285 C284 1.397 . S
C285 C286 1.412 . S
C285 C306 1.485 . S
C286 C285 1.412 . S
C286 C287 1.388 . S
C286 C312 1.490 . S
C287 C282 1.397 . S
C287 C286 1.388 . S
C287 C318 1.519 . S
C288 C282 1.492 . S
C288 C289 1.363 . S
C288 C293 1.390 . S
C289 H254 0.930 . S
C289 C288 1.363 . S
C289 C290 1.372 . S
C290 H255 0.930 . S
C290 C289 1.372 . S
C290 C291 1.383 . S
C291 C290 1.383 . S
C291 C292 1.395 . S
C292 H256 0.930 . S
C292 C291 1.395 . S
C292 C293 1.362 . S
C293 H257 0.930 . S
C293 C288 1.390 . S
C293 C292 1.362 . S
C294 C283 1.492 . S
C294 C295 1.377 . S
C294 C299 1.397 . S
C295 H258 0.931 . S
C295 C294 1.377 . S
C295 C296 1.376 . S
C296 H259 0.930 . S
C296 C295 1.376 . S
C296 C297 1.376 . S
C297 C296 1.376 . S
C297 C298 1.378 . S
C297 C324 1.486 . S
C298 H260 0.930 . S
C298 C297 1.378 . S
C298 C299 1.376 . S
C299 H261 0.929 . S
C299 C294 1.397 . S
C299 C298 1.376 . S
C300 C284 1.509 . S
C300 C301 1.391 . S
C300 C305 1.386 . S
C301 H262 0.930 . S
C301 C300 1.391 . S
C301 C302 1.375 . S
C302 H263 0.931 . S
C302 C301 1.375 . S
C302 C303 1.375 . S
C303 C302 1.375 . S
C303 C304 1.361 . S
C304 H264 0.930 . S
C304 C303 1.361 . S
C304 C305 1.399 . S
C305 H265 0.929 . S
C305 C300 1.386 . S
C305 C304 1.399 . S
C306 C285 1.485 . S
C306 C307 1.394 . S
C306 C311 1.360 . S
C307 H266 0.931 . S
C307 C306 1.394 . S
C307 C308 1.372 . S
C308 H267 0.930 . S
C308 C307 1.372 . S
C308 C309 1.397 . S
C309 C308 1.397 . S
C309 C310 1.390 . S
C309 C325 1.476 . S
C310 H268 0.930 . S
C310 C309 1.390 . S
C310 C311 1.366 . S
C311 H269 0.932 . S
C311 C306 1.360 . S
C311 C310 1.366 . S
C312 C286 1.490 . S
C312 C313 1.380 . S
C312 C317 1.386 . S
C313 H270 0.930 . S
C313 C312 1.380 . S
C313 C314 1.381 . S
C314 H271 0.929 . S
C314 C313 1.381 . S
C314 C315 1.371 . S
C315 C314 1.371 . S
C315 C316 1.380 . S
C316 H272 0.931 . S
C316 C315 1.380 . S
C316 C317 1.387 . S
C317 H273 0.930 . S
C317 C312 1.386 . S
C317 C316 1.387 . S
C318 C287 1.519 . S
C318 C319 1.377 . S
C318 C323 1.361 . S
C319 H274 0.929 . S
C319 C318 1.377 . S
C319 C320 1.386 . S
C320 H275 0.931 . S
C320 C319 1.386 . S
C320 C321 1.363 . S
C321 C320 1.363 . S
C321 C322 1.385 . S
C322 H276 0.930 . S
C322 C321 1.385 . S
C322 C323 1.396 . S
C323 H277 0.929 . S
C323 C318 1.361 . S
C323 C322 1.396 . S
C324 O278 1.300 . S
C324 O279 1.209 . S
C324 C297 1.486 . S
C325 O280 1.199 . S
C325 O281 1.297 . S
C325 C309 1.476 . S
H326 O352 0.856 . S
H327 O355 0.854 . S
H328 C363 0.930 . S
H329 C364 0.930 . S
H330 C366 0.930 . S
H331 C367 0.930 . S
H332 C369 0.931 . S
H333 C370 0.930 . S
H334 C372 0.930 . S
H335 C373 0.929 . S
H336 C375 0.930 . S
H337 C376 0.931 . S
H338 C378 0.930 . S
H339 C379 0.929 . S
H340 C381 0.931 . S
H341 C382 0.930 . S
H342 C384 0.930 . S
H343 C385 0.932 . S
H344 C387 0.930 . S
H345 C388 0.929 . S
H346 C390 0.931 . S
H347 C391 0.930 . S
H348 C393 0.929 . S
H349 C394 0.931 . S
H350 C396 0.930 . S
H351 C397 0.929 . S
O352 H326 0.856 . S
O352 C398 1.300 . S
O353 C398 1.209 . S
O354 C399 1.199 . S
O355 H327 0.854 . S
O355 C399 1.297 . S
C356 C357 1.404 . S
C356 C361 1.397 . S
C356 C362 1.492 . S
C357 C356 1.404 . S
C357 C358 1.396 . S
C357 C368 1.492 . S
C358 C357 1.396 . S
C358 C359 1.397 . S
C358 C374 1.509 . S
C359 C358 1.397 . S
C359 C360 1.412 . S
C359 C380 1.485 . S
C360 C359 1.412 . S
C360 C361 1.388 . S
C360 C386 1.490 . S
C361 C356 1.397 . S
C361 C360 1.388 . S
C361 C392 1.519 . S
C362 C356 1.492 . S
C362 C363 1.363 . S
C362 C367 1.390 . S
C363 H328 0.930 . S
C363 C362 1.363 . S
C363 C364 1.372 . S
C364 H329 0.930 . S
C364 C363 1.372 . S
C364 C365 1.383 . S
C365 C364 1.383 . S
C365 C366 1.395 . S
C366 H330 0.930 . S
C366 C365 1.395 . S
C366 C367 1.362 . S
C367 H331 0.930 . S
C367 C362 1.390 . S
C367 C366 1.362 . S
C368 C357 1.492 . S
C368 C369 1.377 . S
C368 C373 1.397 . S
C369 H332 0.931 . S
C369 C368 1.377 . S
C369 C370 1.376 . S
C370 H333 0.930 . S
C370 C369 1.376 . S
C370 C371 1.376 . S
C371 C370 1.376 . S
C371 C372 1.378 . S
C371 C398 1.486 . S
C372 H334 0.930 . S
C372 C371 1.378 . S
C372 C373 1.376 . S
C373 H335 0.929 . S
C373 C368 1.397 . S
C373 C372 1.376 . S
C374 C358 1.509 . S
C374 C375 1.391 . S
C374 C379 1.386 . S
C375 H336 0.930 . S
C375 C374 1.391 . S
C375 C376 1.375 . S
C376 H337 0.931 . S
C376 C375 1.375 . S
C376 C377 1.375 . S
C377 C376 1.375 . S
C377 C378 1.361 . S
C378 H338 0.930 . S
C378 C377 1.361 . S
C378 C379 1.399 . S
C379 H339 0.929 . S
C379 C374 1.386 . S
C379 C378 1.399 . S
C380 C359 1.485 . S
C380 C381 1.394 . S
C380 C385 1.360 . S
C381 H340 0.931 . S
C381 C380 1.394 . S
C381 C382 1.372 . S
C382 H341 0.930 . S
C382 C381 1.372 . S
C382 C383 1.397 . S
C383 C382 1.397 . S
C383 C384 1.390 . S
C383 C399 1.476 . S
C384 H342 0.930 . S
C384 C383 1.390 . S
C384 C385 1.366 . S
C385 H343 0.932 . S
C385 C380 1.360 . S
C385 C384 1.366 . S
C386 C360 1.490 . S
C386 C387 1.380 . S
C386 C391 1.386 . S
C387 H344 0.930 . S
C387 C386 1.380 . S
C387 C388 1.381 . S
C388 H345 0.929 . S
C388 C387 1.381 . S
C388 C389 1.371 . S
C389 C388 1.371 . S
C389 C390 1.380 . S
C390 H346 0.931 . S
C390 C389 1.380 . S
C390 C391 1.387 . S
C391 H347 0.930 . S
C391 C386 1.386 . S
C391 C390 1.387 . S
C392 C361 1.519 . S
C392 C393 1.377 . S
C392 C397 1.361 . S
C393 H348 0.929 . S
C393 C392 1.377 . S
C393 C394 1.386 . S
C394 H349 0.931 . S
C394 C393 1.386 . S
C394 C395 1.363 . S
C395 C394 1.363 . S
C395 C396 1.385 . S
C396 H350 0.930 . S
C396 C395 1.385 . S
C396 C397 1.396 . S
C397 H351 0.929 . S
C397 C392 1.361 . S
C397 C396 1.396 . S
C398 O352 1.300 . S
C398 O353 1.209 . S
C398 C371 1.486 . S
C399 O354 1.199 . S
C399 O355 1.297 . S
C399 C383 1.476 . S
H400 O426 0.856 . S
H401 O429 0.854 . S
H402 C437 0.930 . S
H403 C438 0.930 . S
H404 C440 0.930 . S
H405 C441 0.930 . S
H406 C443 0.931 . S
H407 C444 0.930 . S
H408 C446 0.930 . S
H409 C447 0.929 . S
H410 C449 0.930 . S
H411 C450 0.931 . S
H412 C452 0.930 . S
H413 C453 0.929 . S
H414 C455 0.931 . S
H415 C456 0.930 . S
H416 C458 0.930 . S
H417 C459 0.932 . S
H418 C461 0.930 . S
H419 C462 0.929 . S
H420 C464 0.931 . S
H421 C465 0.930 . S
H422 C467 0.929 . S
H423 C468 0.931 . S
H424 C470 0.930 . S
H425 C471 0.929 . S
O426 H400 0.856 . S
O426 C472 1.300 . S
O427 C472 1.209 . S
O428 C473 1.199 . S
O429 H401 0.854 . S
O429 C473 1.297 . S
C430 C431 1.404 . S
C430 C435 1.397 . S
C430 C436 1.492 . S
C431 C430 1.404 . S
C431 C432 1.396 . S
C431 C442 1.492 . S
C432 C431 1.396 . S
C432 C433 1.397 . S
C432 C448 1.509 . S
C433 C432 1.397 . S
C433 C434 1.412 . S
C433 C454 1.485 . S
C434 C433 1.412 . S
C434 C435 1.388 . S
C434 C460 1.490 . S
C435 C430 1.397 . S
C435 C434 1.388 . S
C435 C466 1.519 . S
C436 C430 1.492 . S
C436 C437 1.363 . S
C436 C441 1.390 . S
C437 H402 0.930 . S
C437 C436 1.363 . S
C437 C438 1.372 . S
C438 H403 0.930 . S
C438 C437 1.372 . S
C438 C439 1.383 . S
C439 C438 1.383 . S
C439 C440 1.395 . S
C440 H404 0.930 . S
C440 C439 1.395 . S
C440 C441 1.362 . S
C441 H405 0.930 . S
C441 C436 1.390 . S
C441 C440 1.362 . S
C442 C431 1.492 . S
C442 C443 1.377 . S
C442 C447 1.397 . S
C443 H406 0.931 . S
C443 C442 1.377 . S
C443 C444 1.376 . S
C444 H407 0.930 . S
C444 C443 1.376 . S
C444 C445 1.376 . S
C445 C444 1.376 . S
C445 C446 1.378 . S
C445 C472 1.486 . S
C446 H408 0.930 . S
C446 C445 1.378 . S
C446 C447 1.376 . S
C447 H409 0.929 . S
C447 C442 1.397 . S
C447 C446 1.376 . S
C448 C432 1.509 . S
C448 C449 1.391 . S
C448 C453 1.386 . S
C449 H410 0.930 . S
C449 C448 1.391 . S
C449 C450 1.375 . S
C450 H411 0.931 . S
C450 C449 1.375 . S
C450 C451 1.375 . S
C451 C450 1.375 . S
C451 C452 1.361 . S
C452 H412 0.930 . S
C452 C451 1.361 . S
C452 C453 1.399 . S
C453 H413 0.929 . S
C453 C448 1.386 . S
C453 C452 1.399 . S
C454 C433 1.485 . S
C454 C455 1.394 . S
C454 C459 1.360 . S
C455 H414 0.931 . S
C455 C454 1.394 . S
C455 C456 1.372 . S
C456 H415 0.930 . S
C456 C455 1.372 . S
C456 C457 1.397 . S
C457 C456 1.397 . S
C457 C458 1.390 . S
C457 C473 1.476 . S
C458 H416 0.930 . S
C458 C457 1.390 . S
C458 C459 1.366 . S
C459 H417 0.932 . S
C459 C454 1.360 . S
C459 C458 1.366 . S
C460 C434 1.490 . S
C460 C461 1.380 . S
C460 C465 1.386 . S
C461 H418 0.930 . S
C461 C460 1.380 . S
C461 C462 1.381 . S
C462 H419 0.929 . S
C462 C461 1.381 . S
C462 C463 1.371 . S
C463 C462 1.371 . S
C463 C464 1.380 . S
C464 H420 0.931 . S
C464 C463 1.380 . S
C464 C465 1.387 . S
C465 H421 0.930 . S
C465 C460 1.386 . S
C465 C464 1.387 . S
C466 C435 1.519 . S
C466 C467 1.377 . S
C466 C471 1.361 . S
C467 H422 0.929 . S
C467 C466 1.377 . S
C467 C468 1.386 . S
C468 H423 0.931 . S
C468 C467 1.386 . S
C468 C469 1.363 . S
C469 C468 1.363 . S
C469 C470 1.385 . S
C470 H424 0.930 . S
C470 C469 1.385 . S
C470 C471 1.396 . S
C471 H425 0.929 . S
C471 C466 1.361 . S
C471 C470 1.396 . S
C472 O426 1.300 . S
C472 O427 1.209 . S
C472 C445 1.486 . S
C473 O428 1.199 . S
C473 O429 1.297 . S
C473 C457 1.476 . S
H474 O500 0.856 . S
H475 O503 0.854 . S
H476 C511 0.930 . S
H477 C512 0.930 . S
H478 C514 0.930 . S
H479 C515 0.930 . S
H480 C517 0.931 . S
H481 C518 0.930 . S
H482 C520 0.930 . S
H483 C521 0.929 . S
H484 C523 0.930 . S
H485 C524 0.931 . S
H486 C526 0.930 . S
H487 C527 0.929 . S
H488 C529 0.931 . S
H489 C530 0.930 . S
H490 C532 0.930 . S
H491 C533 0.932 . S
H492 C535 0.930 . S
H493 C536 0.929 . S
H494 C538 0.931 . S
H495 C539 0.930 . S
H496 C541 0.929 . S
H497 C542 0.931 . S
H498 C544 0.930 . S
H499 C545 0.929 . S
O500 H474 0.856 . S
O500 C546 1.300 1_554 S
O501 C546 1.206 1_554 S
O502 C547 1.199 . S
O503 H475 0.854 . S
O503 C547 1.297 . S
C504 C505 1.404 . S
C504 C509 1.397 . S
C504 C510 1.492 . S
C505 C504 1.404 . S
C505 C506 1.396 . S
C505 C516 1.492 . S
C506 C505 1.396 . S
C506 C507 1.397 . S
C506 C522 1.509 . S
C507 C506 1.397 . S
C507 C508 1.412 . S
C507 C528 1.485 . S
C508 C507 1.412 . S
C508 C509 1.388 . S
C508 C534 1.490 . S
C509 C504 1.397 . S
C509 C508 1.388 . S
C509 C540 1.519 . S
C510 C504 1.492 . S
C510 C511 1.363 . S
C510 C515 1.390 . S
C511 H476 0.930 . S
C511 C510 1.363 . S
C511 C512 1.372 . S
C512 H477 0.930 . S
C512 C511 1.372 . S
C512 C513 1.383 . S
C513 C512 1.383 . S
C513 C514 1.395 . S
C514 H478 0.930 . S
C514 C513 1.395 . S
C514 C515 1.362 . S
C515 H479 0.930 . S
C515 C510 1.390 . S
C515 C514 1.362 . S
C516 C505 1.492 . S
C516 C517 1.377 . S
C516 C521 1.397 . S
C517 H480 0.931 . S
C517 C516 1.377 . S
C517 C518 1.376 . S
C518 H481 0.930 . S
C518 C517 1.376 . S
C518 C519 1.376 . S
C519 C518 1.376 . S
C519 C520 1.378 . S
C519 C546 1.486 . S
C520 H482 0.930 . S
C520 C519 1.378 . S
C520 C521 1.376 . S
C521 H483 0.929 . S
C521 C516 1.397 . S
C521 C520 1.376 . S
C522 C506 1.509 . S
C522 C523 1.391 . S
C522 C527 1.386 . S
C523 H484 0.930 . S
C523 C522 1.391 . S
C523 C524 1.375 . S
C524 H485 0.931 . S
C524 C523 1.375 . S
C524 C525 1.375 . S
C525 C524 1.375 . S
C525 C526 1.361 . S
C526 H486 0.930 . S
C526 C525 1.361 . S
C526 C527 1.399 . S
C527 H487 0.929 . S
C527 C522 1.386 . S
C527 C526 1.399 . S
C528 C507 1.485 . S
C528 C529 1.394 . S
C528 C533 1.360 . S
C529 H488 0.931 . S
C529 C528 1.394 . S
C529 C530 1.372 . S
C530 H489 0.930 . S
C530 C529 1.372 . S
C530 C531 1.397 . S
C531 C530 1.397 . S
C531 C532 1.390 . S
C531 C547 1.476 . S
C532 H490 0.930 . S
C532 C531 1.390 . S
C532 C533 1.366 . S
C533 H491 0.932 . S
C533 C528 1.360 . S
C533 C532 1.366 . S
C534 C508 1.490 . S
C534 C535 1.380 . S
C534 C539 1.386 . S
C535 H492 0.930 . S
C535 C534 1.380 . S
C535 C536 1.381 . S
C536 H493 0.929 . S
C536 C535 1.381 . S
C536 C537 1.371 . S
C537 C536 1.371 . S
C537 C538 1.380 . S
C538 H494 0.931 . S
C538 C537 1.380 . S
C538 C539 1.387 . S
C539 H495 0.930 . S
C539 C534 1.386 . S
C539 C538 1.387 . S
C540 C509 1.519 . S
C540 C541 1.377 . S
C540 C545 1.361 . S
C541 H496 0.929 . S
C541 C540 1.377 . S
C541 C542 1.386 . S
C542 H497 0.931 . S
C542 C541 1.386 . S
C542 C543 1.363 . S
C543 C542 1.363 . S
C543 C544 1.385 . S
C544 H498 0.930 . S
C544 C543 1.385 . S
C544 C545 1.396 . S
C545 H499 0.929 . S
C545 C540 1.361 . S
C545 C544 1.396 . S
C546 O500 1.300 1_556 S
C546 O501 1.206 1_556 S
C546 C519 1.486 . S
C547 O502 1.199 . S
C547 O503 1.297 . S
C547 C531 1.476 . S
H548 O574 0.856 . S
H549 O577 0.854 . S
H550 C585 0.930 . S
H551 C586 0.930 . S
H552 C588 0.930 . S
H553 C589 0.930 . S
H554 C591 0.931 . S
H555 C592 0.930 . S
H556 C594 0.930 . S
H557 C595 0.929 . S
H558 C597 0.930 . S
H559 C598 0.931 . S
H560 C600 0.930 . S
H561 C601 0.929 . S
H562 C603 0.931 . S
H563 C604 0.930 . S
H564 C606 0.930 . S
H565 C607 0.932 . S
H566 C609 0.930 . S
H567 C610 0.929 . S
H568 C612 0.931 . S
H569 C613 0.930 . S
H570 C615 0.929 . S
H571 C616 0.931 . S
H572 C618 0.930 . S
H573 C619 0.929 . S
O574 H548 0.856 . S
O574 C620 1.300 . S
O575 C620 1.209 . S
O576 C621 1.199 . S
O577 H549 0.854 . S
O577 C621 1.297 . S
C578 C579 1.404 . S
C578 C583 1.397 . S
C578 C584 1.492 . S
C579 C578 1.404 . S
C579 C580 1.396 . S
C579 C590 1.492 . S
C580 C579 1.396 . S
C580 C581 1.397 . S
C580 C596 1.509 . S
C581 C580 1.397 . S
C581 C582 1.412 . S
C581 C602 1.485 . S
C582 C581 1.412 . S
C582 C583 1.388 . S
C582 C608 1.490 . S
C583 C578 1.397 . S
C583 C582 1.388 . S
C583 C614 1.519 . S
C584 C578 1.492 . S
C584 C585 1.363 . S
C584 C589 1.390 . S
C585 H550 0.930 . S
C585 C584 1.363 . S
C585 C586 1.372 . S
C586 H551 0.930 . S
C586 C585 1.372 . S
C586 C587 1.383 . S
C587 C586 1.383 . S
C587 C588 1.395 . S
C588 H552 0.930 . S
C588 C587 1.395 . S
C588 C589 1.362 . S
C589 H553 0.930 . S
C589 C584 1.390 . S
C589 C588 1.362 . S
C590 C579 1.492 . S
C590 C591 1.377 . S
C590 C595 1.397 . S
C591 H554 0.931 . S
C591 C590 1.377 . S
C591 C592 1.376 . S
C592 H555 0.930 . S
C592 C591 1.376 . S
C592 C593 1.376 . S
C593 C592 1.376 . S
C593 C594 1.378 . S
C593 C620 1.486 1_556 S
C594 H556 0.930 . S
C594 C593 1.378 . S
C594 C595 1.376 . S
C595 H557 0.929 . S
C595 C590 1.397 . S
C595 C594 1.376 . S
C596 C580 1.509 . S
C596 C597 1.391 . S
C596 C601 1.386 . S
C597 H558 0.930 . S
C597 C596 1.391 . S
C597 C598 1.375 . S
C598 H559 0.931 . S
C598 C597 1.375 . S
C598 C599 1.375 . S
C599 C598 1.375 . S
C599 C600 1.361 . S
C600 H560 0.930 . S
C600 C599 1.361 . S
C600 C601 1.399 . S
C601 H561 0.929 . S
C601 C596 1.386 . S
C601 C600 1.399 . S
C602 C581 1.485 . S
C602 C603 1.394 . S
C602 C607 1.360 . S
C603 H562 0.931 . S
C603 C602 1.394 . S
C603 C604 1.372 . S
C604 H563 0.930 . S
C604 C603 1.372 . S
C604 C605 1.397 . S
C605 C604 1.397 . S
C605 C606 1.390 . S
C605 C621 1.476 . S
C606 H564 0.930 . S
C606 C605 1.390 . S
C606 C607 1.366 . S
C607 H565 0.932 . S
C607 C602 1.360 . S
C607 C606 1.366 . S
C608 C582 1.490 . S
C608 C609 1.380 . S
C608 C613 1.386 . S
C609 H566 0.930 . S
C609 C608 1.380 . S
C609 C610 1.381 . S
C610 H567 0.929 . S
C610 C609 1.381 . S
C610 C611 1.371 . S
C611 C610 1.371 . S
C611 C612 1.380 . S
C612 H568 0.931 . S
C612 C611 1.380 . S
C612 C613 1.387 . S
C613 H569 0.930 . S
C613 C608 1.386 . S
C613 C612 1.387 . S
C614 C583 1.519 . S
C614 C615 1.377 . S
C614 C619 1.361 . S
C615 H570 0.929 . S
C615 C614 1.377 . S
C615 C616 1.386 . S
C616 H571 0.931 . S
C616 C615 1.386 . S
C616 C617 1.363 . S
C617 C616 1.363 . S
C617 C618 1.385 . S
C618 H572 0.930 . S
C618 C617 1.385 . S
C618 C619 1.396 . S
C619 H573 0.929 . S
C619 C614 1.361 . S
C619 C618 1.396 . S
C620 O574 1.300 . S
C620 O575 1.209 . S
C620 C593 1.486 1_554 S
C621 O576 1.199 . S
C621 O577 1.297 . S
C621 C605 1.476 . S
H622 O648 0.856 . S
H623 O651 0.854 . S
H624 C659 0.930 . S
H625 C660 0.930 . S
H626 C662 0.930 . S
H627 C663 0.930 . S
H628 C665 0.931 . S
H629 C666 0.930 . S
H630 C668 0.930 . S
H631 C669 0.929 . S
H632 C671 0.930 . S
H633 C672 0.931 . S
H634 C674 0.930 . S
H635 C675 0.929 . S
H636 C677 0.931 . S
H637 C678 0.930 . S
H638 C680 0.930 . S
H639 C681 0.932 . S
H640 C683 0.930 . S
H641 C684 0.929 . S
H642 C686 0.931 . S
H643 C687 0.930 . S
H644 C689 0.929 . S
H645 C690 0.931 . S
H646 C692 0.930 . S
H647 C693 0.929 . S
O648 H622 0.856 . S
O648 C694 1.300 . S
O649 C694 1.209 . S
O650 C695 1.199 . S
O651 H623 0.854 . S
O651 C695 1.297 . S
C652 C653 1.404 . S
C652 C657 1.397 . S
C652 C658 1.492 . S
C653 C652 1.404 . S
C653 C654 1.396 . S
C653 C664 1.492 . S
C654 C653 1.396 . S
C654 C655 1.397 . S
C654 C670 1.509 . S
C655 C654 1.397 . S
C655 C656 1.412 . S
C655 C676 1.485 . S
C656 C655 1.412 . S
C656 C657 1.388 . S
C656 C682 1.490 . S
C657 C652 1.397 . S
C657 C656 1.388 . S
C657 C688 1.519 . S
C658 C652 1.492 . S
C658 C659 1.363 . S
C658 C663 1.390 . S
C659 H624 0.930 . S
C659 C658 1.363 . S
C659 C660 1.372 . S
C660 H625 0.930 . S
C660 C659 1.372 . S
C660 C661 1.383 . S
C661 C660 1.383 . S
C661 C662 1.395 . S
C662 H626 0.930 . S
C662 C661 1.395 . S
C662 C663 1.362 . S
C663 H627 0.930 . S
C663 C658 1.390 . S
C663 C662 1.362 . S
C664 C653 1.492 . S
C664 C665 1.377 . S
C664 C669 1.397 . S
C665 H628 0.931 . S
C665 C664 1.377 . S
C665 C666 1.376 . S
C666 H629 0.930 . S
C666 C665 1.376 . S
C666 C667 1.376 . S
C667 C666 1.376 . S
C667 C668 1.378 . S
C667 C694 1.486 1_556 S
C668 H630 0.930 . S
C668 C667 1.378 . S
C668 C669 1.376 . S
C669 H631 0.929 . S
C669 C664 1.397 . S
C669 C668 1.376 . S
C670 C654 1.509 . S
C670 C671 1.391 . S
C670 C675 1.386 . S
C671 H632 0.930 . S
C671 C670 1.391 . S
C671 C672 1.375 . S
C672 H633 0.931 . S
C672 C671 1.375 . S
C672 C673 1.375 . S
C673 C672 1.375 . S
C673 C674 1.361 . S
C674 H634 0.930 . S
C674 C673 1.361 . S
C674 C675 1.399 . S
C675 H635 0.929 . S
C675 C670 1.386 . S
C675 C674 1.399 . S
C676 C655 1.485 . S
C676 C677 1.394 . S
C676 C681 1.360 . S
C677 H636 0.931 . S
C677 C676 1.394 . S
C677 C678 1.372 . S
C678 H637 0.930 . S
C678 C677 1.372 . S
C678 C679 1.397 . S
C679 C678 1.397 . S
C679 C680 1.390 . S
C679 C695 1.476 . S
C680 H638 0.930 . S
C680 C679 1.390 . S
C680 C681 1.366 . S
C681 H639 0.932 . S
C681 C676 1.360 . S
C681 C680 1.366 . S
C682 C656 1.490 . S
C682 C683 1.380 . S
C682 C687 1.386 . S
C683 H640 0.930 . S
C683 C682 1.380 . S
C683 C684 1.381 . S
C684 H641 0.929 . S
C684 C683 1.381 . S
C684 C685 1.371 . S
C685 C684 1.371 . S
C685 C686 1.380 . S
C686 H642 0.931 . S
C686 C685 1.380 . S
C686 C687 1.387 . S
C687 H643 0.930 . S
C687 C682 1.386 . S
C687 C686 1.387 . S
C688 C657 1.519 . S
C688 C689 1.377 . S
C688 C693 1.361 . S
C689 H644 0.929 . S
C689 C688 1.377 . S
C689 C690 1.386 . S
C690 H645 0.931 . S
C690 C689 1.386 . S
C690 C691 1.363 . S
C691 C690 1.363 . S
C691 C692 1.385 . S
C692 H646 0.930 . S
C692 C691 1.385 . S
C692 C693 1.396 . S
C693 H647 0.929 . S
C693 C688 1.361 . S
C693 C692 1.396 . S
C694 O648 1.300 . S
C694 O649 1.209 . S
C694 C667 1.486 1_554 S
C695 O650 1.199 . S
C695 O651 1.297 . S
C695 C679 1.476 . S
H696 O722 0.856 . S
H697 O725 0.854 . S
H698 C733 0.930 . S
H699 C734 0.930 . S
H700 C736 0.930 . S
H701 C737 0.930 . S
H702 C739 0.931 . S
H703 C740 0.930 . S
H704 C742 0.930 . S
H705 C743 0.929 . S
H706 C745 0.930 . S
H707 C746 0.931 . S
H708 C748 0.930 . S
H709 C749 0.929 . S
H710 C751 0.931 . S
H711 C752 0.930 . S
H712 C754 0.930 . S
H713 C755 0.932 . S
H714 C757 0.930 . S
H715 C758 0.929 . S
H716 C760 0.931 . S
H717 C761 0.930 . S
H718 C763 0.929 . S
H719 C764 0.931 . S
H720 C766 0.930 . S
H721 C767 0.929 . S
O722 H696 0.856 . S
O722 C768 1.300 . S
O723 C768 1.209 . S
O724 C769 1.199 . S
O725 H697 0.854 . S
O725 C769 1.297 . S
C726 C727 1.404 . S
C726 C731 1.397 . S
C726 C732 1.492 . S
C727 C726 1.404 . S
C727 C728 1.396 . S
C727 C738 1.492 . S
C728 C727 1.396 . S
C728 C729 1.397 . S
C728 C744 1.509 . S
C729 C728 1.397 . S
C729 C730 1.412 . S
C729 C750 1.485 . S
C730 C729 1.412 . S
C730 C731 1.388 . S
C730 C756 1.490 . S
C731 C726 1.397 . S
C731 C730 1.388 . S
C731 C762 1.519 . S
C732 C726 1.492 . S
C732 C733 1.363 . S
C732 C737 1.390 . S
C733 H698 0.930 . S
C733 C732 1.363 . S
C733 C734 1.372 . S
C734 H699 0.930 . S
C734 C733 1.372 . S
C734 C735 1.383 . S
C735 C734 1.383 . S
C735 C736 1.395 . S
C736 H700 0.930 . S
C736 C735 1.395 . S
C736 C737 1.362 . S
C737 H701 0.930 . S
C737 C732 1.390 . S
C737 C736 1.362 . S
C738 C727 1.492 . S
C738 C739 1.377 . S
C738 C743 1.397 . S
C739 H702 0.931 . S
C739 C738 1.377 . S
C739 C740 1.376 . S
C740 H703 0.930 . S
C740 C739 1.376 . S
C740 C741 1.376 . S
C741 C740 1.376 . S
C741 C742 1.378 . S
C741 C768 1.486 . S
C742 H704 0.930 . S
C742 C741 1.378 . S
C742 C743 1.376 . S
C743 H705 0.929 . S
C743 C738 1.397 . S
C743 C742 1.376 . S
C744 C728 1.509 . S
C744 C745 1.391 . S
C744 C749 1.386 . S
C745 H706 0.930 . S
C745 C744 1.391 . S
C745 C746 1.375 . S
C746 H707 0.931 . S
C746 C745 1.375 . S
C746 C747 1.375 . S
C747 C746 1.375 . S
C747 C748 1.361 . S
C748 H708 0.930 . S
C748 C747 1.361 . S
C748 C749 1.399 . S
C749 H709 0.929 . S
C749 C744 1.386 . S
C749 C748 1.399 . S
C750 C729 1.485 . S
C750 C751 1.394 . S
C750 C755 1.360 . S
C751 H710 0.931 . S
C751 C750 1.394 . S
C751 C752 1.372 . S
C752 H711 0.930 . S
C752 C751 1.372 . S
C752 C753 1.397 . S
C753 C752 1.397 . S
C753 C754 1.390 . S
C753 C769 1.476 . S
C754 H712 0.930 . S
C754 C753 1.390 . S
C754 C755 1.366 . S
C755 H713 0.932 . S
C755 C750 1.360 . S
C755 C754 1.366 . S
C756 C730 1.490 . S
C756 C757 1.380 . S
C756 C761 1.386 . S
C757 H714 0.930 . S
C757 C756 1.380 . S
C757 C758 1.381 . S
C758 H715 0.929 . S
C758 C757 1.381 . S
C758 C759 1.371 . S
C759 C758 1.371 . S
C759 C760 1.380 . S
C760 H716 0.931 . S
C760 C759 1.380 . S
C760 C761 1.387 . S
C761 H717 0.930 . S
C761 C756 1.386 . S
C761 C760 1.387 . S
C762 C731 1.519 . S
C762 C763 1.377 . S
C762 C767 1.361 . S
C763 H718 0.929 . S
C763 C762 1.377 . S
C763 C764 1.386 . S
C764 H719 0.931 . S
C764 C763 1.386 . S
C764 C765 1.363 . S
C765 C764 1.363 . S
C765 C766 1.385 . S
C766 H720 0.930 . S
C766 C765 1.385 . S
C766 C767 1.396 . S
C767 H721 0.929 . S
C767 C762 1.361 . S
C767 C766 1.396 . S
C768 O722 1.300 . S
C768 O723 1.209 . S
C768 C741 1.486 . S
C769 O724 1.199 . S
C769 O725 1.297 . S
C769 C753 1.476 . S
H770 O796 0.856 . S
H771 O799 0.854 . S
H772 C807 0.930 . S
H773 C808 0.930 . S
H774 C810 0.930 . S
H775 C811 0.930 . S
H776 C813 0.931 . S
H777 C814 0.930 . S
H778 C816 0.930 . S
H779 C817 0.929 . S
H780 C819 0.930 . S
H781 C820 0.931 . S
H782 C822 0.930 . S
H783 C823 0.929 . S
H784 C825 0.931 . S
H785 C826 0.930 . S
H786 C828 0.930 . S
H787 C829 0.932 . S
H788 C831 0.930 . S
H789 C832 0.929 . S
H790 C834 0.931 . S
H791 C835 0.930 . S
H792 C837 0.929 . S
H793 C838 0.931 . S
H794 C840 0.930 . S
H795 C841 0.929 . S
O796 H770 0.856 . S
O796 C842 1.300 . S
O797 C842 1.209 . S
O798 C843 1.199 . S
O799 H771 0.854 . S
O799 C843 1.297 . S
C800 C801 1.404 . S
C800 C805 1.397 . S
C800 C806 1.492 . S
C801 C800 1.404 . S
C801 C802 1.396 . S
C801 C812 1.492 . S
C802 C801 1.396 . S
C802 C803 1.397 . S
C802 C818 1.509 . S
C803 C802 1.397 . S
C803 C804 1.412 . S
C803 C824 1.485 . S
C804 C803 1.412 . S
C804 C805 1.388 . S
C804 C830 1.490 . S
C805 C800 1.397 . S
C805 C804 1.388 . S
C805 C836 1.519 . S
C806 C800 1.492 . S
C806 C807 1.363 . S
C806 C811 1.390 . S
C807 H772 0.930 . S
C807 C806 1.363 . S
C807 C808 1.372 . S
C808 H773 0.930 . S
C808 C807 1.372 . S
C808 C809 1.383 . S
C809 C808 1.383 . S
C809 C810 1.395 . S
C810 H774 0.930 . S
C810 C809 1.395 . S
C810 C811 1.362 . S
C811 H775 0.930 . S
C811 C806 1.390 . S
C811 C810 1.362 . S
C812 C801 1.492 . S
C812 C813 1.377 . S
C812 C817 1.397 . S
C813 H776 0.931 . S
C813 C812 1.377 . S
C813 C814 1.376 . S
C814 H777 0.930 . S
C814 C813 1.376 . S
C814 C815 1.376 . S
C815 C814 1.376 . S
C815 C816 1.378 . S
C815 C842 1.486 . S
C816 H778 0.930 . S
C816 C815 1.378 . S
C816 C817 1.376 . S
C817 H779 0.929 . S
C817 C812 1.397 . S
C817 C816 1.376 . S
C818 C802 1.509 . S
C818 C819 1.391 . S
C818 C823 1.386 . S
C819 H780 0.930 . S
C819 C818 1.391 . S
C819 C820 1.375 . S
C820 H781 0.931 . S
C820 C819 1.375 . S
C820 C821 1.375 . S
C821 C820 1.375 . S
C821 C822 1.361 . S
C822 H782 0.930 . S
C822 C821 1.361 . S
C822 C823 1.399 . S
C823 H783 0.929 . S
C823 C818 1.386 . S
C823 C822 1.399 . S
C824 C803 1.485 . S
C824 C825 1.394 . S
C824 C829 1.360 . S
C825 H784 0.931 . S
C825 C824 1.394 . S
C825 C826 1.372 . S
C826 H785 0.930 . S
C826 C825 1.372 . S
C826 C827 1.397 . S
C827 C826 1.397 . S
C827 C828 1.390 . S
C827 C843 1.476 . S
C828 H786 0.930 . S
C828 C827 1.390 . S
C828 C829 1.366 . S
C829 H787 0.932 . S
C829 C824 1.360 . S
C829 C828 1.366 . S
C830 C804 1.490 . S
C830 C831 1.380 . S
C830 C835 1.386 . S
C831 H788 0.930 . S
C831 C830 1.380 . S
C831 C832 1.381 . S
C832 H789 0.929 . S
C832 C831 1.381 . S
C832 C833 1.371 . S
C833 C832 1.371 . S
C833 C834 1.380 . S
C834 H790 0.931 . S
C834 C833 1.380 . S
C834 C835 1.387 . S
C835 H791 0.930 . S
C835 C830 1.386 . S
C835 C834 1.387 . S
C836 C805 1.519 . S
C836 C837 1.377 . S
C836 C841 1.361 . S
C837 H792 0.929 . S
C837 C836 1.377 . S
C837 C838 1.386 . S
C838 H793 0.931 . S
C838 C837 1.386 . S
C838 C839 1.363 . S
C839 C838 1.363 . S
C839 C840 1.385 . S
C840 H794 0.930 . S
C840 C839 1.385 . S
C840 C841 1.396 . S
C841 H795 0.929 . S
C841 C836 1.361 . S
C841 C840 1.396 . S
C842 O796 1.300 . S
C842 O797 1.209 . S
C842 C815 1.486 . S
C843 O798 1.199 . S
C843 O799 1.297 . S
C843 C827 1.476 . S
H844 O870 0.856 . S
H845 O873 0.854 . S
H846 C881 0.930 . S
H847 C882 0.930 . S
H848 C884 0.930 . S
H849 C885 0.930 . S
H850 C887 0.931 . S
H851 C888 0.930 . S
H852 C890 0.930 . S
H853 C891 0.929 . S
H854 C893 0.930 . S
H855 C894 0.931 . S
H856 C896 0.930 . S
H857 C897 0.929 . S
H858 C899 0.931 . S
H859 C900 0.930 . S
H860 C902 0.930 . S
H861 C903 0.932 . S
H862 C905 0.930 . S
H863 C906 0.929 . S
H864 C908 0.931 . S
H865 C909 0.930 . S
H866 C911 0.929 . S
H867 C912 0.931 . S
H868 C914 0.930 . S
H869 C915 0.929 . S
O870 H844 0.856 . S
O870 C916 1.300 . S
O871 C916 1.209 . S
O872 C917 1.199 . S
O873 H845 0.854 . S
O873 C917 1.297 . S
C874 C875 1.404 . S
C874 C879 1.397 . S
C874 C880 1.492 . S
C875 C874 1.404 . S
C875 C876 1.396 . S
C875 C886 1.492 . S
C876 C875 1.396 . S
C876 C877 1.397 . S
C876 C892 1.509 . S
C877 C876 1.397 . S
C877 C878 1.412 . S
C877 C898 1.485 . S
C878 C877 1.412 . S
C878 C879 1.388 . S
C878 C904 1.490 . S
C879 C874 1.397 . S
C879 C878 1.388 . S
C879 C910 1.519 . S
C880 C874 1.492 . S
C880 C881 1.363 . S
C880 C885 1.390 . S
C881 H846 0.930 . S
C881 C880 1.363 . S
C881 C882 1.372 . S
C882 H847 0.930 . S
C882 C881 1.372 . S
C882 C883 1.383 . S
C883 C882 1.383 . S
C883 C884 1.395 . S
C884 H848 0.930 . S
C884 C883 1.395 . S
C884 C885 1.362 . S
C885 H849 0.930 . S
C885 C880 1.390 . S
C885 C884 1.362 . S
C886 C875 1.492 . S
C886 C887 1.377 . S
C886 C891 1.397 . S
C887 H850 0.931 . S
C887 C886 1.377 . S
C887 C888 1.376 . S
C888 H851 0.930 . S
C888 C887 1.376 . S
C888 C889 1.376 . S
C889 C888 1.376 . S
C889 C890 1.378 . S
C889 C916 1.486 . S
C890 H852 0.930 . S
C890 C889 1.378 . S
C890 C891 1.376 . S
C891 H853 0.929 . S
C891 C886 1.397 . S
C891 C890 1.376 . S
C892 C876 1.509 . S
C892 C893 1.391 . S
C892 C897 1.386 . S
C893 H854 0.930 . S
C893 C892 1.391 . S
C893 C894 1.375 . S
C894 H855 0.931 . S
C894 C893 1.375 . S
C894 C895 1.375 . S
C895 C894 1.375 . S
C895 C896 1.361 . S
C896 H856 0.930 . S
C896 C895 1.361 . S
C896 C897 1.399 . S
C897 H857 0.929 . S
C897 C892 1.386 . S
C897 C896 1.399 . S
C898 C877 1.485 . S
C898 C899 1.394 . S
C898 C903 1.360 . S
C899 H858 0.931 . S
C899 C898 1.394 . S
C899 C900 1.372 . S
C900 H859 0.930 . S
C900 C899 1.372 . S
C900 C901 1.397 . S
C901 C900 1.397 . S
C901 C902 1.390 . S
C901 C917 1.476 . S
C902 H860 0.930 . S
C902 C901 1.390 . S
C902 C903 1.366 . S
C903 H861 0.932 . S
C903 C898 1.360 . S
C903 C902 1.366 . S
C904 C878 1.490 . S
C904 C905 1.380 . S
C904 C909 1.386 . S
C905 H862 0.930 . S
C905 C904 1.380 . S
C905 C906 1.381 . S
C906 H863 0.929 . S
C906 C905 1.381 . S
C906 C907 1.371 . S
C907 C906 1.371 . S
C907 C908 1.380 . S
C908 H864 0.931 . S
C908 C907 1.380 . S
C908 C909 1.387 . S
C909 H865 0.930 . S
C909 C904 1.386 . S
C909 C908 1.387 . S
C910 C879 1.519 . S
C910 C911 1.377 . S
C910 C915 1.361 . S
C911 H866 0.929 . S
C911 C910 1.377 . S
C911 C912 1.386 . S
C912 H867 0.931 . S
C912 C911 1.386 . S
C912 C913 1.363 . S
C913 C912 1.363 . S
C913 C914 1.385 . S
C914 H868 0.930 . S
C914 C913 1.385 . S
C914 C915 1.396 . S
C915 H869 0.929 . S
C915 C910 1.361 . S
C915 C914 1.396 . S
C916 O870 1.300 . S
C916 O871 1.209 . S
C916 C889 1.486 . S
C917 O872 1.199 . S
C917 O873 1.297 . S
C917 C901 1.476 . S
H918 O944 0.856 . S
H919 O947 0.854 . S
H920 C955 0.930 . S
H921 C956 0.930 . S
H922 C958 0.930 . S
H923 C959 0.930 . S
H924 C961 0.931 . S
H925 C962 0.926 . S
H926 C964 0.930 . S
H927 C965 0.929 . S
H928 C967 0.930 . S
H929 C968 0.934 . S
H930 C970 0.930 . S
H931 C971 0.929 . S
H932 C973 0.931 . S
H933 C974 0.930 . S
H934 C976 0.930 . S
H935 C977 0.932 . S
H936 C979 0.930 . S
H937 C980 0.929 . S
H938 C982 0.931 . S
H939 C983 0.930 . S
H940 C985 0.929 . S
H941 C986 0.931 . S
H942 C988 0.930 . S
H943 C989 0.929 . S
O944 H918 0.856 . S
O944 C990 1.300 . S
O945 C990 1.209 . S
O946 C991 1.199 1_655 S
O947 H919 0.854 . S
O947 C991 1.297 . S
C948 C949 1.404 . S
C948 C953 1.393 . S
C948 C954 1.492 . S
C949 C948 1.404 . S
C949 C950 1.396 . S
C949 C960 1.492 . S
C950 C949 1.396 . S
C950 C951 1.397 . S
C950 C966 1.509 . S
C951 C950 1.397 . S
C951 C952 1.426 . S
C951 C972 1.485 . S
C952 C951 1.426 . S
C952 C953 1.400 . S
C952 C978 1.491 1_455 S
C953 C948 1.393 . S
C953 C952 1.400 . S
C953 C984 1.496 1_455 S
C954 C948 1.492 . S
C954 C955 1.363 1_455 S
C954 C959 1.390 . S
C955 H920 0.930 . S
C955 C954 1.363 1_655 S
C955 C956 1.372 . S
C956 H921 0.930 . S
C956 C955 1.372 . S
C956 C957 1.383 . S
C957 C956 1.383 . S
C957 C958 1.395 1_655 S
C958 H922 0.930 . S
C958 C957 1.395 1_455 S
C958 C959 1.362 . S
C959 H923 0.930 . S
C959 C954 1.390 . S
C959 C958 1.362 . S
C960 C949 1.492 . S
C960 C961 1.377 1_455 S
C960 C965 1.397 . S
C961 H924 0.931 . S
C961 C960 1.377 1_655 S
C961 C962 1.376 . S
C962 H925 0.926 . S
C962 C961 1.376 . S
C962 C963 1.379 1_655 S
C963 C962 1.379 1_455 S
C963 C964 1.378 . S
C963 C990 1.486 . S
C964 H926 0.930 . S
C964 C963 1.378 . S
C964 C965 1.376 . S
C965 H927 0.929 . S
C965 C960 1.397 . S
C965 C964 1.376 . S
C966 C950 1.509 . S
C966 C967 1.391 1_455 S
C966 C971 1.386 . S
C967 H928 0.930 . S
C967 C966 1.391 1_655 S
C967 C968 1.378 . S
C968 H929 0.934 . S
C968 C967 1.378 . S
C968 C969 1.369 1_655 S
C969 C968 1.369 1_455 S
C969 C970 1.361 . S
C970 H930 0.930 . S
C970 C969 1.361 . S
C970 C971 1.399 . S
C971 H931 0.929 . S
C971 C966 1.386 . S
C971 C970 1.399 . S
C972 C951 1.485 . S
C972 C973 1.394 1_455 S
C972 C977 1.360 . S
C973 H932 0.931 . S
C973 C972 1.394 1_655 S
C973 C974 1.372 . S
C974 H933 0.930 . S
C974 C973 1.372 . S
C974 C975 1.397 1_655 S
C975 C974 1.397 1_455 S
C975 C976 1.390 . S
C975 C991 1.476 . S
C976 H934 0.930 . S
C976 C975 1.390 . S
C976 C977 1.366 . S
C977 H935 0.932 . S
C977 C972 1.360 . S
C977 C976 1.366 . S
C978 C952 1.491 1_655 S
C978 C979 1.380 . S
C978 C983 1.386 1_655 S
C979 H936 0.930 . S
C979 C978 1.380 . S
C979 C980 1.381 . S
C980 H937 0.929 . S
C980 C979 1.381 . S
C980 C981 1.371 . S
C981 C980 1.371 . S
C981 C982 1.380 1_655 S
C982 H938 0.931 . S
C982 C981 1.380 1_455 S
C982 C983 1.387 . S
C983 H939 0.930 . S
C983 C978 1.386 1_455 S
C983 C982 1.387 . S
C984 C953 1.496 1_655 S
C984 C985 1.392 . S
C984 C989 1.351 1_655 S
C985 H940 0.929 . S
C985 C984 1.392 . S
C985 C986 1.386 . S
C986 H941 0.931 . S
C986 C985 1.386 . S
C986 C987 1.358 1_655 S
C987 C986 1.358 1_455 S
C987 C988 1.393 . S
C988 H942 0.930 . S
C988 C987 1.393 . S
C988 C989 1.396 . S
C989 H943 0.929 . S
C989 C984 1.351 1_455 S
C989 C988 1.396 . S
C990 O944 1.300 . S
C990 O945 1.209 . S
C990 C963 1.486 . S
C991 O946 1.199 1_455 S
C991 O947 1.297 . S
C991 C975 1.476 . S
H992 O1018 0.856 . S
H993 O1021 0.854 . S
H994 C1029 0.930 . S
H995 C1030 0.930 . S
H996 C1032 0.930 . S
H997 C1033 0.930 . S
H998 C1035 0.931 . S
H999 C1036 0.930 . S
H1000 C1038 0.930 . S
H1001 C1039 0.929 . S
H1002 C1041 0.930 . S
H1003 C1042 0.931 . S
H1004 C1044 0.930 . S
H1005 C1045 0.929 . S
H1006 C1047 0.931 . S
H1007 C1048 0.930 . S
H1008 C1050 0.930 . S
H1009 C1051 0.932 . S
H1010 C1053 0.930 . S
H1011 C1054 0.929 . S
H1012 C1056 0.931 . S
H1013 C1057 0.930 . S
H1014 C1059 0.929 . S
H1015 C1060 0.931 . S
H1016 C1062 0.930 . S
H1017 C1063 0.929 . S
O1018 H992 0.856 . S
O1018 C1064 1.300 . S
O1019 C1064 1.209 . S
O1020 C1065 1.199 . S
O1021 H993 0.854 . S
O1021 C1065 1.297 . S
C1022 C1023 1.404 . S
C1022 C1027 1.397 . S
C1022 C1028 1.492 . S
C1023 C1022 1.404 . S
C1023 C1024 1.396 . S
C1023 C1034 1.492 . S
C1024 C1023 1.396 . S
C1024 C1025 1.397 . S
C1024 C1040 1.509 . S
C1025 C1024 1.397 . S
C1025 C1026 1.412 . S
C1025 C1046 1.485 . S
C1026 C1025 1.412 . S
C1026 C1027 1.388 . S
C1026 C1052 1.490 . S
C1027 C1022 1.397 . S
C1027 C1026 1.388 . S
C1027 C1058 1.519 . S
C1028 C1022 1.492 . S
C1028 C1029 1.363 . S
C1028 C1033 1.390 . S
C1029 H994 0.930 . S
C1029 C1028 1.363 . S
C1029 C1030 1.372 . S
C1030 H995 0.930 . S
C1030 C1029 1.372 . S
C1030 C1031 1.383 . S
C1031 C1030 1.383 . S
C1031 C1032 1.395 . S
C1032 H996 0.930 . S
C1032 C1031 1.395 . S
C1032 C1033 1.362 . S
C1033 H997 0.930 . S
C1033 C1028 1.390 . S
C1033 C1032 1.362 . S
C1034 C1023 1.492 . S
C1034 C1035 1.377 . S
C1034 C1039 1.397 . S
C1035 H998 0.931 . S
C1035 C1034 1.377 . S
C1035 C1036 1.376 . S
C1036 H999 0.930 . S
C1036 C1035 1.376 . S
C1036 C1037 1.376 . S
C1037 C1036 1.376 . S
C1037 C1038 1.378 . S
C1037 C1064 1.486 . S
C1038 H1000 0.930 . S
C1038 C1037 1.378 . S
C1038 C1039 1.376 . S
C1039 H1001 0.929 . S
C1039 C1034 1.397 . S
C1039 C1038 1.376 . S
C1040 C1024 1.509 . S
C1040 C1041 1.391 . S
C1040 C1045 1.386 . S
C1041 H1002 0.930 . S
C1041 C1040 1.391 . S
C1041 C1042 1.375 . S
C1042 H1003 0.931 . S
C1042 C1041 1.375 . S
C1042 C1043 1.375 . S
C1043 C1042 1.375 . S
C1043 C1044 1.361 . S
C1044 H1004 0.930 . S
C1044 C1043 1.361 . S
C1044 C1045 1.399 . S
C1045 H1005 0.929 . S
C1045 C1040 1.386 . S
C1045 C1044 1.399 . S
C1046 C1025 1.485 . S
C1046 C1047 1.394 . S
C1046 C1051 1.360 . S
C1047 H1006 0.931 . S
C1047 C1046 1.394 . S
C1047 C1048 1.372 . S
C1048 H1007 0.930 . S
C1048 C1047 1.372 . S
C1048 C1049 1.397 . S
C1049 C1048 1.397 . S
C1049 C1050 1.390 . S
C1049 C1065 1.476 . S
C1050 H1008 0.930 . S
C1050 C1049 1.390 . S
C1050 C1051 1.366 . S
C1051 H1009 0.932 . S
C1051 C1046 1.360 . S
C1051 C1050 1.366 . S
C1052 C1026 1.490 . S
C1052 C1053 1.380 . S
C1052 C1057 1.386 . S
C1053 H1010 0.930 . S
C1053 C1052 1.380 . S
C1053 C1054 1.381 . S
C1054 H1011 0.929 . S
C1054 C1053 1.381 . S
C1054 C1055 1.371 . S
C1055 C1054 1.371 . S
C1055 C1056 1.380 . S
C1056 H1012 0.931 . S
C1056 C1055 1.380 . S
C1056 C1057 1.387 . S
C1057 H1013 0.930 . S
C1057 C1052 1.386 . S
C1057 C1056 1.387 . S
C1058 C1027 1.519 . S
C1058 C1059 1.377 . S
C1058 C1063 1.361 . S
C1059 H1014 0.929 . S
C1059 C1058 1.377 . S
C1059 C1060 1.386 . S
C1060 H1015 0.931 . S
C1060 C1059 1.386 . S
C1060 C1061 1.363 . S
C1061 C1060 1.363 . S
C1061 C1062 1.385 . S
C1062 H1016 0.930 . S
C1062 C1061 1.385 . S
C1062 C1063 1.396 . S
C1063 H1017 0.929 . S
C1063 C1058 1.361 . S
C1063 C1062 1.396 . S
C1064 O1018 1.300 . S
C1064 O1019 1.209 . S
C1064 C1037 1.486 . S
C1065 O1020 1.199 . S
C1065 O1021 1.297 . S
C1065 C1049 1.476 . S
H1066 O1092 0.856 . S
H1067 O1095 0.854 . S
H1068 C1103 0.930 . S
H1069 C1104 0.930 . S
H1070 C1106 0.930 . S
H1071 C1107 0.930 . S
H1072 C1109 0.931 . S
H1073 C1110 0.934 1_545 S
H1074 C1112 0.930 . S
H1075 C1113 0.929 . S
H1076 C1115 0.930 . S
H1077 C1116 0.943 . S
H1078 C1118 0.930 . S
H1079 C1119 0.929 . S
H1080 C1121 0.931 . S
H1081 C1122 0.930 . S
H1082 C1124 0.930 . S
H1083 C1125 0.932 . S
H1084 C1127 0.930 . S
H1085 C1128 0.929 . S
H1086 C1130 0.931 . S
H1087 C1131 0.930 . S
H1088 C1133 0.929 . S
H1089 C1134 0.931 . S
H1090 C1136 0.930 . S
H1091 C1137 0.929 . S
O1092 H1066 0.856 . S
O1092 C1138 1.300 . S
O1093 C1138 1.209 . S
O1094 C1139 1.199 1_545 S
O1095 H1067 0.854 . S
O1095 C1139 1.297 . S
C1096 C1097 1.404 . S
C1096 C1101 1.415 . S
C1096 C1102 1.492 . S
C1097 C1096 1.404 . S
C1097 C1098 1.396 . S
C1097 C1108 1.492 . S
C1098 C1097 1.396 . S
C1098 C1099 1.397 . S
C1098 C1114 1.509 . S
C1099 C1098 1.397 . S
C1099 C1100 1.408 . S
C1099 C1120 1.485 . S
C1100 C1099 1.408 . S
C1100 C1101 1.376 . S
C1100 C1126 1.481 1_565 S
C1101 C1096 1.415 . S
C1101 C1100 1.376 . S
C1101 C1132 1.538 1_565 S
C1102 C1096 1.492 . S
C1102 C1103 1.363 1_565 S
C1102 C1107 1.390 . S
C1103 H1068 0.930 . S
C1103 C1102 1.363 1_545 S
C1103 C1104 1.372 . S
C1104 H1069 0.930 . S
C1104 C1103 1.372 . S
C1104 C1105 1.383 . S
C1105 C1104 1.383 . S
C1105 C1106 1.395 1_545 S
C1106 H1070 0.930 . S
C1106 C1105 1.395 1_565 S
C1106 C1107 1.362 . S
C1107 H1071 0.930 . S
C1107 C1102 1.390 . S
C1107 C1106 1.362 . S
C1108 C1097 1.492 . S
C1108 C1109 1.377 1_565 S
C1108 C1113 1.397 . S
C1109 H1072 0.931 . S
C1109 C1108 1.377 1_545 S
C1109 C1110 1.378 1_545 S
C1110 H1073 0.934 1_565 S
C1110 C1109 1.378 1_565 S
C1110 C1111 1.369 . S
C1111 C1110 1.369 . S
C1111 C1112 1.378 . S
C1111 C1138 1.486 . S
C1112 H1074 0.930 . S
C1112 C1111 1.378 . S
C1112 C1113 1.376 . S
C1113 H1075 0.929 . S
C1113 C1108 1.397 . S
C1113 C1112 1.376 . S
C1114 C1098 1.509 . S
C1114 C1115 1.391 1_565 S
C1114 C1119 1.386 . S
C1115 H1076 0.930 . S
C1115 C1114 1.391 1_545 S
C1115 C1116 1.373 . S
C1116 H1077 0.943 . S
C1116 C1115 1.373 . S
C1116 C1117 1.365 1_545 S
C1117 C1116 1.365 1_565 S
C1117 C1118 1.361 . S
C1118 H1078 0.930 . S
C1118 C1117 1.361 . S
C1118 C1119 1.399 . S
C1119 H1079 0.929 . S
C1119 C1114 1.386 . S
C1119 C1118 1.399 . S
C1120 C1099 1.485 . S
C1120 C1121 1.394 1_565 S
C1120 C1125 1.360 . S
C1121 H1080 0.931 . S
C1121 C1120 1.394 1_545 S
C1121 C1122 1.372 . S
C1122 H1081 0.930 . S
C1122 C1121 1.372 . S
C1122 C1123 1.397 1_545 S
C1123 C1122 1.397 1_565 S
C1123 C1124 1.390 . S
C1123 C1139 1.476 . S
C1124 H1082 0.930 . S
C1124 C1123 1.390 . S
C1124 C1125 1.366 . S
C1125 H1083 0.932 . S
C1125 C1120 1.360 . S
C1125 C1124 1.366 . S
C1126 C1100 1.481 1_545 S
C1126 C1127 1.380 . S
C1126 C1131 1.386 1_545 S
C1127 H1084 0.930 . S
C1127 C1126 1.380 . S
C1127 C1128 1.381 . S
C1128 H1085 0.929 . S
C1128 C1127 1.381 . S
C1128 C1129 1.371 . S
C1129 C1128 1.371 . S
C1129 C1130 1.380 1_545 S
C1130 H1086 0.931 . S
C1130 C1129 1.380 1_565 S
C1130 C1131 1.387 . S
C1131 H1087 0.930 . S
C1131 C1126 1.386 1_565 S
C1131 C1130 1.387 . S
C1132 C1101 1.538 1_545 S
C1132 C1133 1.382 . S
C1132 C1137 1.351 1_545 S
C1133 H1088 0.929 . S
C1133 C1132 1.382 . S
C1133 C1134 1.386 . S
C1134 H1089 0.931 . S
C1134 C1133 1.386 . S
C1134 C1135 1.356 1_545 S
C1135 C1134 1.356 1_565 S
C1135 C1136 1.389 . S
C1136 H1090 0.930 . S
C1136 C1135 1.389 . S
C1136 C1137 1.396 . S
C1137 H1091 0.929 . S
C1137 C1132 1.351 1_565 S
C1137 C1136 1.396 . S
C1138 O1092 1.300 . S
C1138 O1093 1.209 . S
C1138 C1111 1.486 . S
C1139 O1094 1.199 1_565 S
C1139 O1095 1.297 . S
C1139 C1123 1.476 . S
H1140 O1166 0.856 . S
H1141 O1169 0.854 . S
H1142 C1177 0.930 . S
H1143 C1178 0.930 . S
H1144 C1180 0.930 . S
H1145 C1181 0.930 . S
H1146 C1183 0.931 . S
H1147 C1184 0.930 . S
H1148 C1186 0.930 . S
H1149 C1187 0.929 . S
H1150 C1189 0.930 . S
H1151 C1190 0.931 . S
H1152 C1192 0.930 . S
H1153 C1193 0.929 . S
H1154 C1195 0.931 . S
H1155 C1196 0.930 . S
H1156 C1198 0.930 . S
H1157 C1199 0.932 . S
H1158 C1201 0.930 . S
H1159 C1202 0.929 . S
H1160 C1204 0.931 . S
H1161 C1205 0.930 . S
H1162 C1207 0.929 . S
H1163 C1208 0.931 . S
H1164 C1210 0.930 . S
H1165 C1211 0.929 . S
O1166 H1140 0.856 . S
O1166 C1212 1.300 . S
O1167 C1212 1.209 1_565 S
O1168 C1213 1.199 1_545 S
O1169 H1141 0.854 . S
O1169 C1213 1.297 . S
C1170 C1171 1.404 . S
C1170 C1175 1.397 1_545 S
C1170 C1176 1.492 . S
C1171 C1170 1.404 . S
C1171 C1172 1.424 . S
C1171 C1182 1.492 . S
C1172 C1171 1.424 . S
C1172 C1173 1.384 1_545 S
C1172 C1188 1.503 . S
C1173 C1172 1.384 1_565 S
C1173 C1174 1.415 . S
C1173 C1194 1.490 . S
C1174 C1173 1.415 . S
C1174 C1175 1.378 . S
C1174 C1200 1.493 . S
C1175 C1170 1.397 1_565 S
C1175 C1174 1.378 . S
C1175 C1206 1.519 . S
C1176 C1170 1.492 . S
C1176 C1177 1.363 . S
C1176 C1181 1.390 1_545 S
C1177 H1142 0.930 . S
C1177 C1176 1.363 . S
C1177 C1178 1.372 . S
C1178 H1143 0.930 . S
C1178 C1177 1.372 . S
C1178 C1179 1.383 . S
C1179 C1178 1.383 . S
C1179 C1180 1.395 1_545 S
C1180 H1144 0.930 . S
C1180 C1179 1.395 1_565 S
C1180 C1181 1.362 . S
C1181 H1145 0.930 . S
C1181 C1176 1.390 1_565 S
C1181 C1180 1.362 . S
C1182 C1171 1.492 . S
C1182 C1183 1.377 . S
C1182 C1187 1.397 1_545 S
C1183 H1146 0.931 . S
C1183 C1182 1.377 . S
C1183 C1184 1.376 . S
C1184 H1147 0.930 . S
C1184 C1183 1.376 . S
C1184 C1185 1.376 . S
C1185 C1184 1.376 . S
C1185 C1186 1.378 1_545 S
C1185 C1212 1.486 . S
C1186 H1148 0.930 . S
C1186 C1185 1.378 1_565 S
C1186 C1187 1.376 . S
C1187 H1149 0.929 . S
C1187 C1182 1.397 1_565 S
C1187 C1186 1.376 . S
C1188 C1172 1.503 . S
C1188 C1189 1.405 . S
C1188 C1193 1.363 1_545 S
C1189 H1150 0.930 . S
C1189 C1188 1.405 . S
C1189 C1190 1.375 . S
C1190 H1151 0.931 . S
C1190 C1189 1.375 . S
C1190 C1191 1.379 1_545 S
C1191 C1190 1.379 1_565 S
C1191 C1192 1.359 . S
C1192 H1152 0.930 . S
C1192 C1191 1.359 . S
C1192 C1193 1.399 . S
C1193 H1153 0.929 . S
C1193 C1188 1.363 1_565 S
C1193 C1192 1.399 . S
C1194 C1173 1.490 . S
C1194 C1195 1.394 1_565 S
C1194 C1199 1.360 . S
C1195 H1154 0.931 . S
C1195 C1194 1.394 1_545 S
C1195 C1196 1.372 . S
C1196 H1155 0.930 . S
C1196 C1195 1.372 . S
C1196 C1197 1.397 1_545 S
C1197 C1196 1.397 1_565 S
C1197 C1198 1.390 . S
C1197 C1213 1.476 . S
C1198 H1156 0.930 . S
C1198 C1197 1.390 . S
C1198 C1199 1.366 . S
C1199 H1157 0.932 . S
C1199 C1194 1.360 . S
C1199 C1198 1.366 . S
C1200 C1174 1.493 . S
C1200 C1201 1.377 1_565 S
C1200 C1205 1.389 . S
C1201 H1158 0.930 . S
C1201 C1200 1.377 1_545 S
C1201 C1202 1.381 . S
C1202 H1159 0.929 . S
C1202 C1201 1.381 . S
C1202 C1203 1.371 . S
C1203 C1202 1.371 . S
C1203 C1204 1.380 1_545 S
C1204 H1160 0.931 . S
C1204 C1203 1.380 1_565 S
C1204 C1205 1.387 . S
C1205 H1161 0.930 . S
C1205 C1200 1.389 . S
C1205 C1204 1.387 . S
C1206 C1175 1.519 . S
C1206 C1207 1.377 1_565 S
C1206 C1211 1.361 . S
C1207 H1162 0.929 . S
C1207 C1206 1.377 1_545 S
C1207 C1208 1.386 . S
C1208 H1163 0.931 . S
C1208 C1207 1.386 . S
C1208 C1209 1.363 1_545 S
C1209 C1208 1.363 1_565 S
C1209 C1210 1.385 . S
C1210 H1164 0.930 . S
C1210 C1209 1.385 . S
C1210 C1211 1.396 . S
C1211 H1165 0.929 . S
C1211 C1206 1.361 . S
C1211 C1210 1.396 . S
C1212 O1166 1.300 . S
C1212 O1167 1.209 1_545 S
C1212 C1185 1.486 . S
C1213 O1168 1.199 1_565 S
C1213 O1169 1.297 . S
C1213 C1197 1.476 . S
H1214 O1240 0.856 . S
H1215 O1243 0.854 . S
H1216 C1251 0.930 . S
H1217 C1252 0.930 . S
H1218 C1254 0.930 . S
H1219 C1255 0.930 . S
H1220 C1257 0.931 . S
H1221 C1258 0.930 . S
H1222 C1260 0.930 . S
H1223 C1261 0.929 . S
H1224 C1263 0.930 . S
H1225 C1264 0.931 . S
H1226 C1266 0.930 . S
H1227 C1267 0.929 . S
H1228 C1269 0.931 . S
H1229 C1270 0.930 . S
H1230 C1272 0.930 . S
H1231 C1273 0.932 . S
H1232 C1275 0.930 . S
H1233 C1276 0.929 . S
H1234 C1278 0.931 . S
H1235 C1279 0.930 . S
H1236 C1281 0.929 . S
H1237 C1282 0.931 . S
H1238 C1284 0.930 . S
H1239 C1285 0.929 . S
O1240 H1214 0.856 . S
O1240 C1286 1.300 . S
O1241 C1286 1.209 1_455 S
O1242 C1287 1.199 1_655 S
O1243 H1215 0.854 . S
O1243 C1287 1.297 . S
C1244 C1245 1.404 . S
C1244 C1249 1.396 1_655 S
C1244 C1250 1.492 . S
C1245 C1244 1.404 . S
C1245 C1246 1.396 . S
C1245 C1256 1.492 . S
C1246 C1245 1.396 . S
C1246 C1247 1.397 . S
C1246 C1262 1.509 . S
C1247 C1246 1.397 . S
C1247 C1248 1.399 1_655 S
C1247 C1268 1.486 1_655 S
C1248 C1247 1.399 1_455 S
C1248 C1249 1.412 . S
C1248 C1274 1.485 . S
C1249 C1244 1.396 1_455 S
C1249 C1248 1.412 . S
C1249 C1280 1.515 . S
C1250 C1244 1.492 . S
C1250 C1251 1.363 . S
C1250 C1255 1.390 1_655 S
C1251 H1216 0.930 . S
C1251 C1250 1.363 . S
C1251 C1252 1.372 . S
C1252 H1217 0.930 . S
C1252 C1251 1.372 . S
C1252 C1253 1.383 . S
C1253 C1252 1.383 . S
C1253 C1254 1.395 1_655 S
C1254 H1218 0.930 . S
C1254 C1253 1.395 1_455 S
C1254 C1255 1.362 . S
C1255 H1219 0.930 . S
C1255 C1250 1.390 1_455 S
C1255 C1254 1.362 . S
C1256 C1245 1.492 . S
C1256 C1257 1.377 . S
C1256 C1261 1.397 1_655 S
C1257 H1220 0.931 . S
C1257 C1256 1.377 . S
C1257 C1258 1.376 . S
C1258 H1221 0.930 . S
C1258 C1257 1.376 . S
C1258 C1259 1.376 . S
C1259 C1258 1.376 . S
C1259 C1260 1.378 1_655 S
C1259 C1286 1.486 . S
C1260 H1222 0.930 . S
C1260 C1259 1.378 1_455 S
C1260 C1261 1.376 . S
C1261 H1223 0.929 . S
C1261 C1256 1.397 1_455 S
C1261 C1260 1.376 . S
C1262 C1246 1.509 . S
C1262 C1263 1.391 . S
C1262 C1267 1.386 1_655 S
C1263 H1224 0.930 . S
C1263 C1262 1.391 . S
C1263 C1264 1.375 . S
C1264 H1225 0.931 . S
C1264 C1263 1.375 . S
C1264 C1265 1.375 . S
C1265 C1264 1.375 . S
C1265 C1266 1.361 1_655 S
C1266 H1226 0.930 . S
C1266 C1265 1.361 1_455 S
C1266 C1267 1.399 . S
C1267 H1227 0.929 . S
C1267 C1262 1.386 1_455 S
C1267 C1266 1.399 . S
C1268 C1247 1.486 1_455 S
C1268 C1269 1.394 1_455 S
C1268 C1273 1.360 . S
C1269 H1228 0.931 . S
C1269 C1268 1.394 1_655 S
C1269 C1270 1.372 . S
C1270 H1229 0.930 . S
C1270 C1269 1.372 . S
C1270 C1271 1.397 1_655 S
C1271 C1270 1.397 1_455 S
C1271 C1272 1.390 . S
C1271 C1287 1.476 . S
C1272 H1230 0.930 . S
C1272 C1271 1.390 . S
C1272 C1273 1.366 . S
C1273 H1231 0.932 . S
C1273 C1268 1.360 . S
C1273 C1272 1.366 . S
C1274 C1248 1.485 . S
C1274 C1275 1.380 1_455 S
C1274 C1279 1.386 . S
C1275 H1232 0.930 . S
C1275 C1274 1.380 1_655 S
C1275 C1276 1.381 . S
C1276 H1233 0.929 . S
C1276 C1275 1.381 . S
C1276 C1277 1.371 1_655 S
C1277 C1276 1.371 1_455 S
C1277 C1278 1.380 . S
C1278 H1234 0.931 . S
C1278 C1277 1.380 . S
C1278 C1279 1.387 . S
C1279 H1235 0.930 . S
C1279 C1274 1.386 . S
C1279 C1278 1.387 . S
C1280 C1249 1.515 . S
C1280 C1281 1.377 1_455 S
C1280 C1285 1.361 . S
C1281 H1236 0.929 . S
C1281 C1280 1.377 1_655 S
C1281 C1282 1.386 . S
C1282 H1237 0.931 . S
C1282 C1281 1.386 . S
C1282 C1283 1.363 1_655 S
C1283 C1282 1.363 1_455 S
C1283 C1284 1.385 . S
C1284 H1238 0.930 . S
C1284 C1283 1.385 . S
C1284 C1285 1.396 . S
C1285 H1239 0.929 . S
C1285 C1280 1.361 . S
C1285 C1284 1.396 . S
C1286 O1240 1.300 . S
C1286 O1241 1.209 1_655 S
C1286 C1259 1.486 . S
C1287 O1242 1.199 1_455 S
C1287 O1243 1.297 . S
C1287 C1271 1.476 . S
H1288 O1314 0.856 . S
H1289 O1317 0.854 . S
H1290 C1325 0.930 . S
H1291 C1326 0.930 . S
H1292 C1328 0.930 . S
H1293 C1329 0.930 . S
H1294 C1331 0.931 . S
H1295 C1332 0.930 . S
H1296 C1334 0.930 . S
H1297 C1335 0.929 . S
H1298 C1337 0.930 . S
H1299 C1338 0.931 . S
H1300 C1340 0.930 . S
H1301 C1341 0.929 . S
H1302 C1343 0.931 . S
H1303 C1344 0.930 . S
H1304 C1346 0.930 . S
H1305 C1347 0.932 . S
H1306 C1349 0.930 . S
H1307 C1350 0.929 . S
H1308 C1352 0.931 . S
H1309 C1353 0.930 . S
H1310 C1355 0.929 . S
H1311 C1356 0.931 . S
H1312 C1358 0.930 . S
H1313 C1359 0.929 . S
O1314 H1288 0.856 . S
O1314 C1360 1.300 . S
O1315 C1360 1.209 . S
O1316 C1361 1.199 . S
O1317 H1289 0.854 . S
O1317 C1361 1.297 . S
C1318 C1319 1.404 . S
C1318 C1323 1.397 . S
C1318 C1324 1.492 . S
C1319 C1318 1.404 . S
C1319 C1320 1.396 . S
C1319 C1330 1.492 . S
C1320 C1319 1.396 . S
C1320 C1321 1.397 . S
C1320 C1336 1.509 . S
C1321 C1320 1.397 . S
C1321 C1322 1.412 . S
C1321 C1342 1.485 . S
C1322 C1321 1.412 . S
C1322 C1323 1.388 . S
C1322 C1348 1.490 . S
C1323 C1318 1.397 . S
C1323 C1322 1.388 . S
C1323 C1354 1.519 . S
C1324 C1318 1.492 . S
C1324 C1325 1.363 . S
C1324 C1329 1.390 . S
C1325 H1290 0.930 . S
C1325 C1324 1.363 . S
C1325 C1326 1.372 . S
C1326 H1291 0.930 . S
C1326 C1325 1.372 . S
C1326 C1327 1.383 . S
C1327 C1326 1.383 . S
C1327 C1328 1.395 . S
C1328 H1292 0.930 . S
C1328 C1327 1.395 . S
C1328 C1329 1.362 . S
C1329 H1293 0.930 . S
C1329 C1324 1.390 . S
C1329 C1328 1.362 . S
C1330 C1319 1.492 . S
C1330 C1331 1.377 . S
C1330 C1335 1.397 . S
C1331 H1294 0.931 . S
C1331 C1330 1.377 . S
C1331 C1332 1.376 . S
C1332 H1295 0.930 . S
C1332 C1331 1.376 . S
C1332 C1333 1.376 . S
C1333 C1332 1.376 . S
C1333 C1334 1.378 . S
C1333 C1360 1.486 . S
C1334 H1296 0.930 . S
C1334 C1333 1.378 . S
C1334 C1335 1.376 . S
C1335 H1297 0.929 . S
C1335 C1330 1.397 . S
C1335 C1334 1.376 . S
C1336 C1320 1.509 . S
C1336 C1337 1.391 . S
C1336 C1341 1.386 . S
C1337 H1298 0.930 . S
C1337 C1336 1.391 . S
C1337 C1338 1.375 . S
C1338 H1299 0.931 . S
C1338 C1337 1.375 . S
C1338 C1339 1.375 . S
C1339 C1338 1.375 . S
C1339 C1340 1.361 . S
C1340 H1300 0.930 . S
C1340 C1339 1.361 . S
C1340 C1341 1.399 . S
C1341 H1301 0.929 . S
C1341 C1336 1.386 . S
C1341 C1340 1.399 . S
C1342 C1321 1.485 . S
C1342 C1343 1.394 . S
C1342 C1347 1.360 . S
C1343 H1302 0.931 . S
C1343 C1342 1.394 . S
C1343 C1344 1.372 . S
C1344 H1303 0.930 . S
C1344 C1343 1.372 . S
C1344 C1345 1.397 . S
C1345 C1344 1.397 . S
C1345 C1346 1.390 . S
C1345 C1361 1.476 . S
C1346 H1304 0.930 . S
C1346 C1345 1.390 . S
C1346 C1347 1.366 . S
C1347 H1305 0.932 . S
C1347 C1342 1.360 . S
C1347 C1346 1.366 . S
C1348 C1322 1.490 . S
C1348 C1349 1.380 . S
C1348 C1353 1.386 . S
C1349 H1306 0.930 . S
C1349 C1348 1.380 . S
C1349 C1350 1.381 . S
C1350 H1307 0.929 . S
C1350 C1349 1.381 . S
C1350 C1351 1.371 . S
C1351 C1350 1.371 . S
C1351 C1352 1.380 . S
C1352 H1308 0.931 . S
C1352 C1351 1.380 . S
C1352 C1353 1.387 . S
C1353 H1309 0.930 . S
C1353 C1348 1.386 . S
C1353 C1352 1.387 . S
C1354 C1323 1.519 . S
C1354 C1355 1.377 . S
C1354 C1359 1.361 . S
C1355 H1310 0.929 . S
C1355 C1354 1.377 . S
C1355 C1356 1.386 . S
C1356 H1311 0.931 . S
C1356 C1355 1.386 . S
C1356 C1357 1.363 . S
C1357 C1356 1.363 . S
C1357 C1358 1.385 . S
C1358 H1312 0.930 . S
C1358 C1357 1.385 . S
C1358 C1359 1.396 . S
C1359 H1313 0.929 . S
C1359 C1354 1.361 . S
C1359 C1358 1.396 . S
C1360 O1314 1.300 . S
C1360 O1315 1.209 . S
C1360 C1333 1.486 . S
C1361 O1316 1.199 . S
C1361 O1317 1.297 . S
C1361 C1345 1.476 . S
H1362 O1388 0.856 . S
H1363 O1391 0.854 . S
H1364 C1399 0.930 . S
H1365 C1400 0.930 . S
H1366 C1402 0.930 . S
H1367 C1403 0.930 . S
H1368 C1405 0.931 . S
H1369 C1406 0.930 . S
H1370 C1408 0.930 . S
H1371 C1409 0.929 . S
H1372 C1411 0.930 . S
H1373 C1412 0.931 . S
H1374 C1414 0.930 . S
H1375 C1415 0.929 . S
H1376 C1417 0.931 . S
H1377 C1418 0.930 . S
H1378 C1420 0.930 . S
H1379 C1421 0.932 . S
H1380 C1423 0.930 . S
H1381 C1424 0.929 . S
H1382 C1426 0.931 . S
H1383 C1427 0.930 . S
H1384 C1429 0.929 . S
H1385 C1430 0.931 . S
H1386 C1432 0.930 . S
H1387 C1433 0.929 . S
O1388 H1362 0.856 . S
O1388 C1434 1.300 . S
O1389 C1434 1.209 . S
O1390 C1435 1.199 . S
O1391 H1363 0.854 . S
O1391 C1435 1.297 . S
C1392 C1393 1.404 . S
C1392 C1397 1.397 . S
C1392 C1398 1.492 . S
C1393 C1392 1.404 . S
C1393 C1394 1.396 . S
C1393 C1404 1.492 . S
C1394 C1393 1.396 . S
C1394 C1395 1.397 . S
C1394 C1410 1.509 . S
C1395 C1394 1.397 . S
C1395 C1396 1.412 . S
C1395 C1416 1.485 . S
C1396 C1395 1.412 . S
C1396 C1397 1.388 . S
C1396 C1422 1.490 . S
C1397 C1392 1.397 . S
C1397 C1396 1.388 . S
C1397 C1428 1.519 . S
C1398 C1392 1.492 . S
C1398 C1399 1.363 . S
C1398 C1403 1.390 . S
C1399 H1364 0.930 . S
C1399 C1398 1.363 . S
C1399 C1400 1.372 . S
C1400 H1365 0.930 . S
C1400 C1399 1.372 . S
C1400 C1401 1.383 . S
C1401 C1400 1.383 . S
C1401 C1402 1.395 . S
C1402 H1366 0.930 . S
C1402 C1401 1.395 . S
C1402 C1403 1.362 . S
C1403 H1367 0.930 . S
C1403 C1398 1.390 . S
C1403 C1402 1.362 . S
C1404 C1393 1.492 . S
C1404 C1405 1.377 . S
C1404 C1409 1.397 . S
C1405 H1368 0.931 . S
C1405 C1404 1.377 . S
C1405 C1406 1.376 . S
C1406 H1369 0.930 . S
C1406 C1405 1.376 . S
C1406 C1407 1.376 . S
C1407 C1406 1.376 . S
C1407 C1408 1.378 . S
C1407 C1434 1.486 . S
C1408 H1370 0.930 . S
C1408 C1407 1.378 . S
C1408 C1409 1.376 . S
C1409 H1371 0.929 . S
C1409 C1404 1.397 . S
C1409 C1408 1.376 . S
C1410 C1394 1.509 . S
C1410 C1411 1.391 . S
C1410 C1415 1.386 . S
C1411 H1372 0.930 . S
C1411 C1410 1.391 . S
C1411 C1412 1.375 . S
C1412 H1373 0.931 . S
C1412 C1411 1.375 . S
C1412 C1413 1.375 . S
C1413 C1412 1.375 . S
C1413 C1414 1.361 . S
C1414 H1374 0.930 . S
C1414 C1413 1.361 . S
C1414 C1415 1.399 . S
C1415 H1375 0.929 . S
C1415 C1410 1.386 . S
C1415 C1414 1.399 . S
C1416 C1395 1.485 . S
C1416 C1417 1.394 . S
C1416 C1421 1.360 . S
C1417 H1376 0.931 . S
C1417 C1416 1.394 . S
C1417 C1418 1.372 . S
C1418 H1377 0.930 . S
C1418 C1417 1.372 . S
C1418 C1419 1.397 . S
C1419 C1418 1.397 . S
C1419 C1420 1.390 . S
C1419 C1435 1.476 . S
C1420 H1378 0.930 . S
C1420 C1419 1.390 . S
C1420 C1421 1.366 . S
C1421 H1379 0.932 . S
C1421 C1416 1.360 . S
C1421 C1420 1.366 . S
C1422 C1396 1.490 . S
C1422 C1423 1.380 . S
C1422 C1427 1.386 . S
C1423 H1380 0.930 . S
C1423 C1422 1.380 . S
C1423 C1424 1.381 . S
C1424 H1381 0.929 . S
C1424 C1423 1.381 . S
C1424 C1425 1.371 . S
C1425 C1424 1.371 . S
C1425 C1426 1.380 . S
C1426 H1382 0.931 . S
C1426 C1425 1.380 . S
C1426 C1427 1.387 . S
C1427 H1383 0.930 . S
C1427 C1422 1.386 . S
C1427 C1426 1.387 . S
C1428 C1397 1.519 . S
C1428 C1429 1.377 . S
C1428 C1433 1.361 . S
C1429 H1384 0.929 . S
C1429 C1428 1.377 . S
C1429 C1430 1.386 . S
C1430 H1385 0.931 . S
C1430 C1429 1.386 . S
C1430 C1431 1.363 . S
C1431 C1430 1.363 . S
C1431 C1432 1.385 . S
C1432 H1386 0.930 . S
C1432 C1431 1.385 . S
C1432 C1433 1.396 . S
C1433 H1387 0.929 . S
C1433 C1428 1.361 . S
C1433 C1432 1.396 . S
C1434 O1388 1.300 . S
C1434 O1389 1.209 . S
C1434 C1407 1.486 . S
C1435 O1390 1.199 . S
C1435 O1391 1.297 . S
C1435 C1419 1.476 . S
H1436 O1462 0.856 . S
H1437 O1465 0.854 . S
H1438 C1473 0.930 . S
H1439 C1474 0.930 . S
H1440 C1476 0.930 . S
H1441 C1477 0.930 . S
H1442 C1479 0.931 . S
H1443 C1480 0.930 . S
H1444 C1482 0.930 . S
H1445 C1483 0.929 . S
H1446 C1485 0.930 . S
H1447 C1486 0.931 . S
H1448 C1488 0.930 . S
H1449 C1489 0.929 . S
H1450 C1491 0.931 . S
H1451 C1492 0.930 . S
H1452 C1494 0.930 . S
H1453 C1495 0.932 . S
H1454 C1497 0.930 . S
H1455 C1498 0.929 . S
H1456 C1500 0.931 . S
H1457 C1501 0.930 . S
H1458 C1503 0.929 . S
H1459 C1504 0.931 . S
H1460 C1506 0.930 . S
H1461 C1507 0.929 . S
O1462 H1436 0.856 . S
O1462 C1508 1.300 . S
O1463 C1508 1.209 . S
O1464 C1509 1.199 . S
O1465 H1437 0.854 . S
O1465 C1509 1.297 . S
C1466 C1467 1.404 . S
C1466 C1471 1.397 . S
C1466 C1472 1.492 . S
C1467 C1466 1.404 . S
C1467 C1468 1.396 . S
C1467 C1478 1.492 . S
C1468 C1467 1.396 . S
C1468 C1469 1.397 . S
C1468 C1484 1.509 . S
C1469 C1468 1.397 . S
C1469 C1470 1.412 . S
C1469 C1490 1.485 . S
C1470 C1469 1.412 . S
C1470 C1471 1.388 . S
C1470 C1496 1.490 . S
C1471 C1466 1.397 . S
C1471 C1470 1.388 . S
C1471 C1502 1.519 . S
C1472 C1466 1.492 . S
C1472 C1473 1.363 . S
C1472 C1477 1.390 . S
C1473 H1438 0.930 . S
C1473 C1472 1.363 . S
C1473 C1474 1.372 . S
C1474 H1439 0.930 . S
C1474 C1473 1.372 . S
C1474 C1475 1.383 . S
C1475 C1474 1.383 . S
C1475 C1476 1.395 . S
C1476 H1440 0.930 . S
C1476 C1475 1.395 . S
C1476 C1477 1.362 . S
C1477 H1441 0.930 . S
C1477 C1472 1.390 . S
C1477 C1476 1.362 . S
C1478 C1467 1.492 . S
C1478 C1479 1.377 . S
C1478 C1483 1.397 . S
C1479 H1442 0.931 . S
C1479 C1478 1.377 . S
C1479 C1480 1.376 . S
C1480 H1443 0.930 . S
C1480 C1479 1.376 . S
C1480 C1481 1.376 . S
C1481 C1480 1.376 . S
C1481 C1482 1.378 . S
C1481 C1508 1.486 . S
C1482 H1444 0.930 . S
C1482 C1481 1.378 . S
C1482 C1483 1.376 . S
C1483 H1445 0.929 . S
C1483 C1478 1.397 . S
C1483 C1482 1.376 . S
C1484 C1468 1.509 . S
C1484 C1485 1.391 . S
C1484 C1489 1.386 . S
C1485 H1446 0.930 . S
C1485 C1484 1.391 . S
C1485 C1486 1.375 . S
C1486 H1447 0.931 . S
C1486 C1485 1.375 . S
C1486 C1487 1.375 . S
C1487 C1486 1.375 . S
C1487 C1488 1.361 . S
C1488 H1448 0.930 . S
C1488 C1487 1.361 . S
C1488 C1489 1.399 . S
C1489 H1449 0.929 . S
C1489 C1484 1.386 . S
C1489 C1488 1.399 . S
C1490 C1469 1.485 . S
C1490 C1491 1.394 . S
C1490 C1495 1.360 . S
C1491 H1450 0.931 . S
C1491 C1490 1.394 . S
C1491 C1492 1.372 . S
C1492 H1451 0.930 . S
C1492 C1491 1.372 . S
C1492 C1493 1.397 . S
C1493 C1492 1.397 . S
C1493 C1494 1.390 . S
C1493 C1509 1.476 . S
C1494 H1452 0.930 . S
C1494 C1493 1.390 . S
C1494 C1495 1.366 . S
C1495 H1453 0.932 . S
C1495 C1490 1.360 . S
C1495 C1494 1.366 . S
C1496 C1470 1.490 . S
C1496 C1497 1.380 . S
C1496 C1501 1.386 . S
C1497 H1454 0.930 . S
C1497 C1496 1.380 . S
C1497 C1498 1.381 . S
C1498 H1455 0.929 . S
C1498 C1497 1.381 . S
C1498 C1499 1.371 . S
C1499 C1498 1.371 . S
C1499 C1500 1.380 . S
C1500 H1456 0.931 . S
C1500 C1499 1.380 . S
C1500 C1501 1.387 . S
C1501 H1457 0.930 . S
C1501 C1496 1.386 . S
C1501 C1500 1.387 . S
C1502 C1471 1.519 . S
C1502 C1503 1.377 . S
C1502 C1507 1.361 . S
C1503 H1458 0.929 . S
C1503 C1502 1.377 . S
C1503 C1504 1.386 . S
C1504 H1459 0.931 . S
C1504 C1503 1.386 . S
C1504 C1505 1.363 . S
C1505 C1504 1.363 . S
C1505 C1506 1.385 . S
C1506 H1460 0.930 . S
C1506 C1505 1.385 . S
C1506 C1507 1.396 . S
C1507 H1461 0.929 . S
C1507 C1502 1.361 . S
C1507 C1506 1.396 . S
C1508 O1462 1.300 . S
C1508 O1463 1.209 . S
C1508 C1481 1.486 . S
C1509 O1464 1.199 . S
C1509 O1465 1.297 . S
C1509 C1493 1.476 . S
H1510 O1536 0.856 . S
H1511 O1539 0.854 . S
H1512 C1547 0.930 . S
H1513 C1548 0.930 . S
H1514 C1550 0.930 . S
H1515 C1551 0.930 . S
H1516 C1553 0.931 . S
H1517 C1554 0.930 . S
H1518 C1556 0.930 . S
H1519 C1557 0.929 . S
H1520 C1559 0.930 . S
H1521 C1560 0.931 . S
H1522 C1562 0.930 . S
H1523 C1563 0.929 . S
H1524 C1565 0.931 . S
H1525 C1566 0.930 . S
H1526 C1568 0.930 . S
H1527 C1569 0.932 . S
H1528 C1571 0.930 . S
H1529 C1572 0.929 . S
H1530 C1574 0.931 . S
H1531 C1575 0.930 . S
H1532 C1577 0.929 . S
H1533 C1578 0.931 . S
H1534 C1580 0.930 . S
H1535 C1581 0.929 . S
O1536 H1510 0.856 . S
O1536 C1582 1.300 . S
O1537 C1582 1.209 . S
O1538 C1583 1.199 . S
O1539 H1511 0.854 . S
O1539 C1583 1.297 . S
C1540 C1541 1.404 . S
C1540 C1545 1.397 . S
C1540 C1546 1.492 . S
C1541 C1540 1.404 . S
C1541 C1542 1.396 . S
C1541 C1552 1.492 . S
C1542 C1541 1.396 . S
C1542 C1543 1.397 . S
C1542 C1558 1.509 . S
C1543 C1542 1.397 . S
C1543 C1544 1.412 . S
C1543 C1564 1.485 . S
C1544 C1543 1.412 . S
C1544 C1545 1.388 . S
C1544 C1570 1.490 . S
C1545 C1540 1.397 . S
C1545 C1544 1.388 . S
C1545 C1576 1.519 . S
C1546 C1540 1.492 . S
C1546 C1547 1.363 . S
C1546 C1551 1.390 . S
C1547 H1512 0.930 . S
C1547 C1546 1.363 . S
C1547 C1548 1.372 . S
C1548 H1513 0.930 . S
C1548 C1547 1.372 . S
C1548 C1549 1.383 . S
C1549 C1548 1.383 . S
C1549 C1550 1.395 . S
C1550 H1514 0.930 . S
C1550 C1549 1.395 . S
C1550 C1551 1.362 . S
C1551 H1515 0.930 . S
C1551 C1546 1.390 . S
C1551 C1550 1.362 . S
C1552 C1541 1.492 . S
C1552 C1553 1.377 . S
C1552 C1557 1.397 . S
C1553 H1516 0.931 . S
C1553 C1552 1.377 . S
C1553 C1554 1.376 . S
C1554 H1517 0.930 . S
C1554 C1553 1.376 . S
C1554 C1555 1.376 . S
C1555 C1554 1.376 . S
C1555 C1556 1.378 . S
C1555 C1582 1.486 . S
C1556 H1518 0.930 . S
C1556 C1555 1.378 . S
C1556 C1557 1.376 . S
C1557 H1519 0.929 . S
C1557 C1552 1.397 . S
C1557 C1556 1.376 . S
C1558 C1542 1.509 . S
C1558 C1559 1.391 . S
C1558 C1563 1.386 . S
C1559 H1520 0.930 . S
C1559 C1558 1.391 . S
C1559 C1560 1.375 . S
C1560 H1521 0.931 . S
C1560 C1559 1.375 . S
C1560 C1561 1.375 . S
C1561 C1560 1.375 . S
C1561 C1562 1.361 . S
C1562 H1522 0.930 . S
C1562 C1561 1.361 . S
C1562 C1563 1.399 . S
C1563 H1523 0.929 . S
C1563 C1558 1.386 . S
C1563 C1562 1.399 . S
C1564 C1543 1.485 . S
C1564 C1565 1.394 . S
C1564 C1569 1.360 . S
C1565 H1524 0.931 . S
C1565 C1564 1.394 . S
C1565 C1566 1.372 . S
C1566 H1525 0.930 . S
C1566 C1565 1.372 . S
C1566 C1567 1.397 . S
C1567 C1566 1.397 . S
C1567 C1568 1.390 . S
C1567 C1583 1.476 . S
C1568 H1526 0.930 . S
C1568 C1567 1.390 . S
C1568 C1569 1.366 . S
C1569 H1527 0.932 . S
C1569 C1564 1.360 . S
C1569 C1568 1.366 . S
C1570 C1544 1.490 . S
C1570 C1571 1.380 . S
C1570 C1575 1.386 . S
C1571 H1528 0.930 . S
C1571 C1570 1.380 . S
C1571 C1572 1.381 . S
C1572 H1529 0.929 . S
C1572 C1571 1.381 . S
C1572 C1573 1.371 . S
C1573 C1572 1.371 . S
C1573 C1574 1.380 . S
C1574 H1530 0.931 . S
C1574 C1573 1.380 . S
C1574 C1575 1.387 . S
C1575 H1531 0.930 . S
C1575 C1570 1.386 . S
C1575 C1574 1.387 . S
C1576 C1545 1.519 . S
C1576 C1577 1.377 . S
C1576 C1581 1.361 . S
C1577 H1532 0.929 . S
C1577 C1576 1.377 . S
C1577 C1578 1.386 . S
C1578 H1533 0.931 . S
C1578 C1577 1.386 . S
C1578 C1579 1.363 . S
C1579 C1578 1.363 . S
C1579 C1580 1.385 . S
C1580 H1534 0.930 . S
C1580 C1579 1.385 . S
C1580 C1581 1.396 . S
C1581 H1535 0.929 . S
C1581 C1576 1.361 . S
C1581 C1580 1.396 . S
C1582 O1536 1.300 . S
C1582 O1537 1.209 . S
C1582 C1555 1.486 . S
C1583 O1538 1.199 . S
C1583 O1539 1.297 . S
C1583 C1567 1.476 . S
H1584 C1585 0.976 . S
C1585 H1584 0.976 . S
C1585 C1591 1.217 1_455 S
H1586 C1591 0.950 . S
H1587 C1595 0.944 . S
H1588 C1596 0.950 . S
H1589 C1597 0.969 . S
H1590 C1598 0.951 . S
C1591 C1585 1.217 1_655 S
C1591 H1586 0.950 . S
C1591 C1592 1.478 . S
C1592 C1591 1.478 . S
C1592 C1593 1.397 . S
C1592 C1609 1.394 . S
C1593 C1592 1.397 . S
C1593 C1594 1.438 . S
C1593 C1598 1.429 . S
C1594 C1593 1.438 . S
C1594 C1595 1.428 . S
C1594 C1607 1.394 . S
C1595 H1587 0.944 . S
C1595 C1594 1.428 . S
C1595 C1596 1.345 1_655 S
C1596 H1588 0.950 . S
C1596 C1595 1.345 1_455 S
C1596 C1597 1.410 . S
C1597 H1589 0.969 . S
C1597 C1596 1.410 . S
C1597 C1598 1.344 1_455 S
C1598 H1590 0.951 . S
C1598 C1593 1.429 . S
C1598 C1597 1.344 1_655 S
H1599 C1600 0.951 . S
C1600 H1599 0.951 . S
C1600 C1606 1.265 . S
H1601 C1606 0.950 1_455 S
H1602 C1610 0.949 . S
H1603 C1611 0.950 . S
H1604 C1612 0.951 . S
H1605 C1613 0.951 . S
C1606 C1600 1.265 . S
C1606 H1601 0.950 1_655 S
C1606 C1607 1.478 . S
C1607 C1594 1.394 . S
C1607 C1606 1.478 . S
C1607 C1608 1.397 . S
C1608 C1607 1.397 . S
C1608 C1609 1.438 . S
C1608 C1613 1.429 . S
C1609 C1592 1.394 . S
C1609 C1608 1.438 . S
C1609 C1610 1.428 . S
C1610 H1602 0.949 . S
C1610 C1609 1.428 . S
C1610 C1611 1.345 . S
C1611 H1603 0.950 . S
C1611 C1610 1.345 . S
C1611 C1612 1.424 . S
C1612 H1604 0.951 . S
C1612 C1611 1.424 . S
C1612 C1613 1.347 . S
C1613 H1605 0.951 . S
C1613 C1608 1.429 . S
C1613 C1612 1.347 . S
H1614 C1615 0.951 . S
C1615 H1614 0.951 . S
C1615 C1621 1.265 . S
H1616 C1621 0.950 . S
H1617 C1625 0.949 . S
H1618 C1626 0.950 . S
H1619 C1627 0.951 . S
H1620 C1628 0.951 . S
C1621 C1615 1.265 . S
C1621 H1616 0.950 . S
C1621 C1622 1.478 . S
C1622 C1621 1.478 . S
C1622 C1623 1.397 . S
C1622 C1639 1.394 . S
C1623 C1622 1.397 . S
C1623 C1624 1.438 . S
C1623 C1628 1.429 . S
C1624 C1623 1.438 . S
C1624 C1625 1.428 . S
C1624 C1637 1.394 . S
C1625 H1617 0.949 . S
C1625 C1624 1.428 . S
C1625 C1626 1.345 . S
C1626 H1618 0.950 . S
C1626 C1625 1.345 . S
C1626 C1627 1.424 . S
C1627 H1619 0.951 . S
C1627 C1626 1.424 . S
C1627 C1628 1.347 . S
C1628 H1620 0.951 . S
C1628 C1623 1.429 . S
C1628 C1627 1.347 . S
H1629 C1630 0.951 . S
C1630 H1629 0.951 . S
C1630 C1636 1.265 . S
H1631 C1636 0.950 . S
H1632 C1640 0.949 . S
H1633 C1641 0.950 . S
H1634 C1642 0.951 . S
H1635 C1643 0.951 . S
C1636 C1630 1.265 . S
C1636 H1631 0.950 . S
C1636 C1637 1.478 . S
C1637 C1624 1.394 . S
C1637 C1636 1.478 . S
C1637 C1638 1.397 . S
C1638 C1637 1.397 . S
C1638 C1639 1.438 . S
C1638 C1643 1.429 . S
C1639 C1622 1.394 . S
C1639 C1638 1.438 . S
C1639 C1640 1.428 . S
C1640 H1632 0.949 . S
C1640 C1639 1.428 . S
C1640 C1641 1.345 . S
C1641 H1633 0.950 . S
C1641 C1640 1.345 . S
C1641 C1642 1.424 . S
C1642 H1634 0.951 . S
C1642 C1641 1.424 . S
C1642 C1643 1.347 . S
C1643 H1635 0.951 . S
C1643 C1638 1.429 . S
C1643 C1642 1.347 . S
H1644 C1645 0.951 . S
C1645 H1644 0.951 . S
C1645 C1651 1.265 . S
H1646 C1651 0.950 . S
H1647 C1655 0.949 . S
H1648 C1656 0.950 . S
H1649 C1657 0.951 . S
H1650 C1658 0.951 . S
C1651 C1645 1.265 . S
C1651 H1646 0.950 . S
C1651 C1652 1.478 . S
C1652 C1651 1.478 . S
C1652 C1653 1.397 . S
C1652 C1669 1.394 . S
C1653 C1652 1.397 . S
C1653 C1654 1.438 . S
C1653 C1658 1.429 . S
C1654 C1653 1.438 . S
C1654 C1655 1.428 . S
C1654 C1667 1.394 . S
C1655 H1647 0.949 . S
C1655 C1654 1.428 . S
C1655 C1656 1.345 . S
C1656 H1648 0.950 . S
C1656 C1655 1.345 . S
C1656 C1657 1.424 . S
C1657 H1649 0.951 . S
C1657 C1656 1.424 . S
C1657 C1658 1.347 . S
C1658 H1650 0.951 . S
C1658 C1653 1.429 . S
C1658 C1657 1.347 . S
H1659 C1660 0.951 . S
C1660 H1659 0.951 . S
C1660 C1666 1.265 . S
H1661 C1666 0.950 . S
H1662 C1670 0.949 . S
H1663 C1671 0.950 . S
H1664 C1672 0.951 . S
H1665 C1673 0.951 . S
C1666 C1660 1.265 . S
C1666 H1661 0.950 . S
C1666 C1667 1.478 . S
C1667 C1654 1.394 . S
C1667 C1666 1.478 . S
C1667 C1668 1.397 . S
C1668 C1667 1.397 . S
C1668 C1669 1.438 . S
C1668 C1673 1.429 1_545 S
C1669 C1652 1.394 . S
C1669 C1668 1.438 . S
C1669 C1670 1.428 1_545 S
C1670 H1662 0.949 . S
C1670 C1669 1.428 1_565 S
C1670 C1671 1.345 . S
C1671 H1663 0.950 . S
C1671 C1670 1.345 . S
C1671 C1672 1.424 . S
C1672 H1664 0.951 . S
C1672 C1671 1.424 . S
C1672 C1673 1.347 . S
C1673 H1665 0.951 . S
C1673 C1668 1.429 1_565 S
C1673 C1672 1.347 . S
H1674 C1675 0.951 . S
C1675 H1674 0.951 . S
C1675 C1681 1.265 . S
H1676 C1681 0.950 . S
H1677 C1685 0.949 . S
H1678 C1686 0.950 . S
H1679 C1687 0.951 . S
H1680 C1688 0.951 . S
C1681 C1675 1.265 . S
C1681 H1676 0.950 . S
C1681 C1682 1.478 . S
C1682 C1681 1.478 . S
C1682 C1683 1.397 1_565 S
C1682 C1699 1.394 . S
C1683 C1682 1.397 1_545 S
C1683 C1684 1.438 . S
C1683 C1688 1.429 . S
C1684 C1683 1.438 . S
C1684 C1685 1.428 . S
C1684 C1697 1.394 1_545 S
C1685 H1677 0.949 . S
C1685 C1684 1.428 . S
C1685 C1686 1.345 . S
C1686 H1678 0.950 . S
C1686 C1685 1.345 . S
C1686 C1687 1.424 . S
C1687 H1679 0.951 . S
C1687 C1686 1.424 . S
C1687 C1688 1.347 . S
C1688 H1680 0.951 . S
C1688 C1683 1.429 . S
C1688 C1687 1.347 . S
H1689 C1690 0.951 . S
C1690 H1689 0.951 . S
C1690 C1696 1.265 . S
H1691 C1696 0.950 . S
H1692 C1700 0.949 . S
H1693 C1701 0.950 . S
H1694 C1702 0.951 . S
H1695 C1703 0.951 . S
C1696 C1690 1.265 . S
C1696 H1691 0.950 . S
C1696 C1697 1.478 . S
C1697 C1684 1.394 1_565 S
C1697 C1696 1.478 . S
C1697 C1698 1.397 . S
C1698 C1697 1.397 . S
C1698 C1699 1.438 . S
C1698 C1703 1.429 . S
C1699 C1682 1.394 . S
C1699 C1698 1.438 . S
C1699 C1700 1.428 . S
C1700 H1692 0.949 . S
C1700 C1699 1.428 . S
C1700 C1701 1.345 . S
C1701 H1693 0.950 . S
C1701 C1700 1.345 . S
C1701 C1702 1.424 . S
C1702 H1694 0.951 . S
C1702 C1701 1.424 . S
C1702 C1703 1.347 . S
C1703 H1695 0.951 . S
C1703 C1698 1.429 . S
C1703 C1702 1.347 . S
H1704 C1705 0.951 . S
C1705 H1704 0.951 . S
C1705 C1711 1.265 . S
H1706 C1711 0.950 . S
H1707 C1715 0.949 . S
H1708 C1716 0.950 . S
H1709 C1717 0.919 1_554 S
H1710 C1718 0.951 . S
C1711 C1705 1.265 . S
C1711 H1706 0.950 . S
C1711 C1712 1.478 . S
C1712 C1711 1.478 . S
C1712 C1713 1.397 . S
C1712 C1729 1.394 . S
C1713 C1712 1.397 . S
C1713 C1714 1.438 . S
C1713 C1718 1.429 . S
C1714 C1713 1.438 . S
C1714 C1715 1.428 . S
C1714 C1727 1.394 . S
C1715 H1707 0.949 . S
C1715 C1714 1.428 . S
C1715 C1716 1.345 . S
C1716 H1708 0.950 . S
C1716 C1715 1.345 . S
C1716 C1717 1.424 . S
C1717 H1709 0.919 1_556 S
C1717 C1716 1.424 . S
C1717 C1718 1.347 . S
C1718 H1710 0.951 . S
C1718 C1713 1.429 . S
C1718 C1717 1.347 . S
H1719 C1720 0.951 . S
C1720 H1719 0.951 . S
C1720 C1726 1.265 . S
H1721 C1726 0.950 . S
H1722 C1730 0.949 . S
H1723 C1731 0.950 . S
H1724 C1732 0.951 . S
H1725 C1733 0.951 . S
C1726 C1720 1.265 . S
C1726 H1721 0.950 . S
C1726 C1727 1.478 . S
C1727 C1714 1.394 . S
C1727 C1726 1.478 . S
C1727 C1728 1.397 . S
C1728 C1727 1.397 . S
C1728 C1729 1.438 . S
C1728 C1733 1.429 . S
C1729 C1712 1.394 . S
C1729 C1728 1.438 . S
C1729 C1730 1.428 . S
C1730 H1722 0.949 . S
C1730 C1729 1.428 . S
C1730 C1731 1.345 . S
C1731 H1723 0.950 . S
C1731 C1730 1.345 . S
C1731 C1732 1.424 . S
C1732 H1724 0.951 . S
C1732 C1731 1.424 . S
C1732 C1733 1.347 . S
C1733 H1725 0.951 . S
C1733 C1728 1.429 . S
C1733 C1732 1.347 . S
H1734 C1735 0.951 . S
C1735 H1734 0.951 . S
C1735 C1741 1.265 . S
H1736 C1741 0.950 . S
H1737 C1745 0.949 . S
H1738 C1746 0.950 . S
H1739 C1747 0.951 . S
H1740 C1748 0.951 . S
C1741 C1735 1.265 . S
C1741 H1736 0.950 . S
C1741 C1742 1.478 1_554 S
C1742 C1741 1.478 1_556 S
C1742 C1743 1.397 . S
C1742 C1759 1.394 . S
C1743 C1742 1.397 . S
C1743 C1744 1.438 . S
C1743 C1748 1.429 . S
C1744 C1743 1.438 . S
C1744 C1745 1.428 . S
C1744 C1757 1.394 . S
C1745 H1737 0.949 . S
C1745 C1744 1.428 . S
C1745 C1746 1.345 . S
C1746 H1738 0.950 . S
C1746 C1745 1.345 . S
C1746 C1747 1.424 . S
C1747 H1739 0.951 . S
C1747 C1746 1.424 . S
C1747 C1748 1.347 . S
C1748 H1740 0.951 . S
C1748 C1743 1.429 . S
C1748 C1747 1.347 . S
H1749 C1750 0.951 . S
C1750 H1749 0.951 . S
C1750 C1756 1.265 . S
H1751 C1756 0.950 . S
H1752 C1760 0.949 . S
H1753 C1761 0.952 1_554 S
H1754 C1762 0.951 . S
H1755 C1763 0.951 . S
C1756 C1750 1.265 . S
C1756 H1751 0.950 . S
C1756 C1757 1.478 . S
C1757 C1744 1.394 . S
C1757 C1756 1.478 . S
C1757 C1758 1.397 . S
C1758 C1757 1.397 . S
C1758 C1759 1.438 . S
C1758 C1763 1.429 . S
C1759 C1742 1.394 . S
C1759 C1758 1.438 . S
C1759 C1760 1.428 1_556 S
C1760 H1752 0.949 . S
C1760 C1759 1.428 1_554 S
C1760 C1761 1.345 1_554 S
C1761 H1753 0.952 1_556 S
C1761 C1760 1.345 1_556 S
C1761 C1762 1.421 . S
C1762 H1754 0.951 . S
C1762 C1761 1.421 . S
C1762 C1763 1.347 . S
C1763 H1755 0.951 . S
C1763 C1758 1.429 . S
C1763 C1762 1.347 . S
H1764 C1765 0.951 1_655 S
C1765 H1764 0.951 1_455 S
C1765 C1771 1.265 1_554 S
H1766 C1771 0.950 . S
H1767 C1775 0.949 . S
H1768 C1776 0.950 . S
H1769 C1777 0.951 . S
H1770 C1778 0.951 . S
C1771 C1765 1.265 1_556 S
C1771 H1766 0.950 . S
C1771 C1772 1.478 . S
C1772 C1771 1.478 . S
C1772 C1773 1.397 . S
C1772 C1789 1.394 1_455 S
C1773 C1772 1.397 . S
C1773 C1774 1.438 . S
C1773 C1778 1.429 1_556 S
C1774 C1773 1.438 . S
C1774 C1775 1.428 . S
C1774 C1787 1.408 . S
C1775 H1767 0.949 . S
C1775 C1774 1.428 . S
C1775 C1776 1.345 . S
C1776 H1768 0.950 . S
C1776 C1775 1.345 . S
C1776 C1777 1.424 1_556 S
C1777 H1769 0.951 . S
C1777 C1776 1.424 1_554 S
C1777 C1778 1.347 . S
C1778 H1770 0.951 . S
C1778 C1773 1.429 1_554 S
C1778 C1777 1.347 . S
H1779 C1780 0.951 . S
C1780 H1779 0.951 . S
C1780 C1786 1.265 1_455 S
H1781 C1786 0.950 . S
H1782 C1790 0.949 . S
H1783 C1791 0.950 . S
H1784 C1792 0.951 . S
H1785 C1793 0.951 . S
C1786 C1780 1.265 1_655 S
C1786 H1781 0.950 . S
C1786 C1787 1.482 1_655 S
C1787 C1774 1.408 . S
C1787 C1786 1.482 1_455 S
C1787 C1788 1.379 1_455 S
C1788 C1787 1.379 1_655 S
C1788 C1789 1.438 . S
C1788 C1793 1.429 . S
C1789 C1772 1.394 1_655 S
C1789 C1788 1.438 . S
C1789 C1790 1.428 . S
C1790 H1782 0.949 . S
C1790 C1789 1.428 . S
C1790 C1791 1.345 . S
C1791 H1783 0.950 . S
C1791 C1790 1.345 . S
C1791 C1792 1.424 . S
C1792 H1784 0.951 . S
C1792 C1791 1.424 . S
C1792 C1793 1.347 . S
C1793 H1785 0.951 . S
C1793 C1788 1.429 . S
C1793 C1792 1.347 . S
H1794 C1795 0.951 . S
C1795 H1794 0.951 . S
C1795 C1801 1.265 . S
H1796 C1801 0.950 . S
H1797 C1805 0.949 . S
H1798 C1806 0.950 . S
H1799 C1807 0.951 . S
H1800 C1808 0.951 . S
C1801 C1795 1.265 . S
C1801 H1796 0.950 . S
C1801 C1802 1.478 . S
C1802 C1801 1.478 . S
C1802 C1803 1.397 . S
C1802 C1819 1.394 . S
C1803 C1802 1.397 . S
C1803 C1804 1.438 . S
C1803 C1808 1.429 . S
C1804 C1803 1.438 . S
C1804 C1805 1.428 . S
C1804 C1817 1.394 . S
C1805 H1797 0.949 . S
C1805 C1804 1.428 . S
C1805 C1806 1.345 . S
C1806 H1798 0.950 . S
C1806 C1805 1.345 . S
C1806 C1807 1.424 . S
C1807 H1799 0.951 . S
C1807 C1806 1.424 . S
C1807 C1808 1.347 . S
C1808 H1800 0.951 . S
C1808 C1803 1.429 . S
C1808 C1807 1.347 . S
H1809 C1810 0.951 . S
C1810 H1809 0.951 . S
C1810 C1816 1.265 . S
H1811 C1816 0.950 . S
H1812 C1820 0.949 . S
H1813 C1821 0.950 . S
H1814 C1822 0.951 . S
H1815 C1823 0.951 . S
C1816 C1810 1.265 . S
C1816 H1811 0.950 . S
C1816 C1817 1.478 . S
C1817 C1804 1.394 . S
C1817 C1816 1.478 . S
C1817 C1818 1.397 . S
C1818 C1817 1.397 . S
C1818 C1819 1.438 . S
C1818 C1823 1.429 . S
C1819 C1802 1.394 . S
C1819 C1818 1.438 . S
C1819 C1820 1.428 . S
C1820 H1812 0.949 . S
C1820 C1819 1.428 . S
C1820 C1821 1.345 . S
C1821 H1813 0.950 . S
C1821 C1820 1.345 . S
C1821 C1822 1.424 . S
C1822 H1814 0.951 . S
C1822 C1821 1.424 . S
C1822 C1823 1.347 . S
C1823 H1815 0.951 . S
C1823 C1818 1.429 . S
C1823 C1822 1.347 . S
H1824 C1825 0.951 . S
C1825 H1824 0.951 . S
C1825 C1831 1.265 1_544 S
H1826 C1831 0.954 . S
H1827 C1835 0.949 . S
H1828 C1836 0.950 . S
H1829 C1837 0.951 . S
H1830 C1838 0.951 . S
C1831 C1825 1.265 1_566 S
C1831 H1826 0.954 . S
C1831 C1832 1.474 1_565 S
C1832 C1831 1.474 1_545 S
C1832 C1833 1.397 1_545 S
C1832 C1849 1.394 . S
C1833 C1832 1.397 1_565 S
C1833 C1834 1.438 . S
C1833 C1838 1.429 . S
C1834 C1833 1.438 . S
C1834 C1835 1.428 . S
C1834 C1847 1.394 1_565 S
C1835 H1827 0.949 . S
C1835 C1834 1.428 . S
C1835 C1836 1.345 . S
C1836 H1828 0.950 . S
C1836 C1835 1.345 . S
C1836 C1837 1.424 . S
C1837 H1829 0.951 . S
C1837 C1836 1.424 . S
C1837 C1838 1.347 . S
C1838 H1830 0.951 . S
C1838 C1833 1.429 . S
C1838 C1837 1.347 . S
H1839 C1840 0.948 . S
C1840 H1839 0.948 . S
C1840 C1846 1.265 . S
H1841 C1846 0.950 . S
H1842 C1850 0.949 1_554 S
H1843 C1851 0.950 1_554 S
H1844 C1852 0.951 . S
H1845 C1853 0.951 . S
C1846 C1840 1.265 . S
C1846 H1841 0.950 . S
C1846 C1847 1.478 . S
C1847 C1834 1.394 1_545 S
C1847 C1846 1.478 . S
C1847 C1848 1.397 . S
C1848 C1847 1.397 . S
C1848 C1849 1.438 . S
C1848 C1853 1.429 . S
C1849 C1832 1.394 . S
C1849 C1848 1.438 . S
C1849 C1850 1.428 . S
C1850 H1842 0.949 1_556 S
C1850 C1849 1.428 . S
C1850 C1851 1.345 . S
C1851 H1843 0.950 1_556 S
C1851 C1850 1.345 . S
C1851 C1852 1.424 . S
C1852 H1844 0.951 . S
C1852 C1851 1.424 . S
C1852 C1853 1.347 . S
C1853 H1845 0.951 . S
C1853 C1848 1.429 . S
C1853 C1852 1.347 . S
H1854 C1855 0.951 . S
C1855 H1854 0.951 . S
C1855 C1861 1.265 . S
H1856 C1861 0.950 . S
H1857 C1865 0.949 . S
H1858 C1866 0.950 . S
H1859 C1867 0.951 . S
H1860 C1868 0.951 . S
C1861 C1855 1.265 . S
C1861 H1856 0.950 . S
C1861 C1862 1.478 . S
C1862 C1861 1.478 . S
C1862 C1863 1.397 . S
C1862 C1879 1.394 . S
C1863 C1862 1.397 . S
C1863 C1864 1.438 1_545 S
C1863 C1868 1.429 1_545 S
C1864 C1863 1.438 1_565 S
C1864 C1865 1.428 . S
C1864 C1877 1.394 1_565 S
C1865 H1857 0.949 . S
C1865 C1864 1.428 . S
C1865 C1866 1.345 . S
C1866 H1858 0.950 . S
C1866 C1865 1.345 . S
C1866 C1867 1.424 . S
C1867 H1859 0.951 . S
C1867 C1866 1.424 . S
C1867 C1868 1.347 . S
C1868 H1860 0.951 . S
C1868 C1863 1.429 1_565 S
C1868 C1867 1.347 . S
H1869 C1870 0.951 . S
C1870 H1869 0.951 . S
C1870 C1876 1.265 . S
H1871 C1876 0.950 . S
H1872 C1880 0.949 . S
H1873 C1881 0.950 . S
H1874 C1882 0.951 . S
H1875 C1883 0.951 . S
C1876 C1870 1.265 . S
C1876 H1871 0.950 . S
C1876 C1877 1.478 . S
C1877 C1864 1.394 1_545 S
C1877 C1876 1.478 . S
C1877 C1878 1.397 . S
C1878 C1877 1.397 . S
C1878 C1879 1.438 . S
C1878 C1883 1.429 . S
C1879 C1862 1.394 . S
C1879 C1878 1.438 . S
C1879 C1880 1.428 . S
C1880 H1872 0.949 . S
C1880 C1879 1.428 . S
C1880 C1881 1.345 . S
C1881 H1873 0.950 . S
C1881 C1880 1.345 . S
C1881 C1882 1.424 . S
C1882 H1874 0.951 . S
C1882 C1881 1.424 . S
C1882 C1883 1.347 . S
C1883 H1875 0.951 . S
C1883 C1878 1.429 . S
C1883 C1882 1.347 . S
H1884 C1885 0.951 1_455 S
C1885 H1884 0.951 1_655 S
C1885 C1891 1.265 . S
H1886 C1891 0.950 . S
H1887 C1895 0.949 . S
H1888 C1896 0.950 . S
H1889 C1897 0.951 . S
H1890 C1898 0.946 1_655 S
C1891 C1885 1.265 . S
C1891 H1886 0.950 . S
C1891 C1892 1.478 . S
C1892 C1891 1.478 . S
C1892 C1893 1.397 . S
C1892 C1909 1.394 . S
C1893 C1892 1.397 . S
C1893 C1894 1.438 1_655 S
C1893 C1898 1.424 1_655 S
C1894 C1893 1.438 1_455 S
C1894 C1895 1.428 . S
C1894 C1907 1.381 1_455 S
C1895 H1887 0.949 . S
C1895 C1894 1.428 . S
C1895 C1896 1.345 . S
C1896 H1888 0.950 . S
C1896 C1895 1.345 . S
C1896 C1897 1.424 . S
C1897 H1889 0.951 . S
C1897 C1896 1.424 . S
C1897 C1898 1.357 . S
C1898 H1890 0.946 1_455 S
C1898 C1893 1.424 1_455 S
C1898 C1897 1.357 . S
H1899 C1900 0.951 . S
C1900 H1899 0.951 . S
C1900 C1906 1.265 1_655 S
H1901 C1906 0.950 . S
H1902 C1910 0.949 . S
H1903 C1911 0.950 . S
H1904 C1912 0.951 . S
H1905 C1913 0.951 . S
C1906 C1900 1.265 1_455 S
C1906 H1901 0.950 . S
C1906 C1907 1.461 1_455 S
C1907 C1894 1.381 1_655 S
C1907 C1906 1.461 1_655 S
C1907 C1908 1.428 . S
C1908 C1907 1.428 . S
C1908 C1909 1.438 . S
C1908 C1913 1.429 . S
C1909 C1892 1.394 . S
C1909 C1908 1.438 . S
C1909 C1910 1.428 . S
C1910 H1902 0.949 . S
C1910 C1909 1.428 . S
C1910 C1911 1.345 . S
C1911 H1903 0.950 . S
C1911 C1910 1.345 . S
C1911 C1912 1.424 . S
C1912 H1904 0.951 . S
C1912 C1911 1.424 . S
C1912 C1913 1.347 . S
C1913 H1905 0.951 . S
C1913 C1908 1.429 . S
C1913 C1912 1.347 . S
H1914 C1915 0.951 . S
C1915 H1914 0.951 . S
C1915 C1921 1.265 . S
H1916 C1921 0.950 . S
H1917 C1925 0.949 . S
H1918 C1926 0.950 . S
H1919 C1927 0.951 . S
H1920 C1928 0.951 . S
C1921 C1915 1.265 . S
C1921 H1916 0.950 . S
C1921 C1922 1.478 . S
C1922 C1921 1.478 . S
C1922 C1923 1.397 . S
C1922 C1939 1.394 . S
C1923 C1922 1.397 . S
C1923 C1924 1.438 . S
C1923 C1928 1.429 . S
C1924 C1923 1.438 . S
C1924 C1925 1.428 . S
C1924 C1937 1.394 . S
C1925 H1917 0.949 . S
C1925 C1924 1.428 . S
C1925 C1926 1.345 . S
C1926 H1918 0.950 . S
C1926 C1925 1.345 . S
C1926 C1927 1.424 . S
C1927 H1919 0.951 . S
C1927 C1926 1.424 . S
C1927 C1928 1.347 . S
C1928 H1920 0.951 . S
C1928 C1923 1.429 . S
C1928 C1927 1.347 . S
H1929 C1930 0.951 . S
C1930 H1929 0.951 . S
C1930 C1936 1.265 . S
H1931 C1936 0.950 . S
H1932 C1940 0.949 . S
H1933 C1941 0.950 . S
H1934 C1942 0.951 . S
H1935 C1943 0.951 . S
C1936 C1930 1.265 . S
C1936 H1931 0.950 . S
C1936 C1937 1.478 . S
C1937 C1924 1.394 . S
C1937 C1936 1.478 . S
C1937 C1938 1.397 . S
C1938 C1937 1.397 . S
C1938 C1939 1.438 . S
C1938 C1943 1.429 . S
C1939 C1922 1.394 . S
C1939 C1938 1.438 . S
C1939 C1940 1.428 . S
C1940 H1932 0.949 . S
C1940 C1939 1.428 . S
C1940 C1941 1.345 . S
C1941 H1933 0.950 . S
C1941 C1940 1.345 . S
C1941 C1942 1.424 . S
C1942 H1934 0.951 . S
C1942 C1941 1.424 . S
C1942 C1943 1.347 . S
C1943 H1935 0.951 . S
C1943 C1938 1.429 . S
C1943 C1942 1.347 . S
H1944 C1945 0.951 . S
C1945 H1944 0.951 . S
C1945 C1951 1.265 . S
H1946 C1951 0.950 . S
H1947 C1955 0.949 . S
H1948 C1956 0.950 . S
H1949 C1957 0.951 . S
H1950 C1958 0.951 . S
C1951 C1945 1.265 . S
C1951 H1946 0.950 . S
C1951 C1952 1.478 . S
C1952 C1951 1.478 . S
C1952 C1953 1.397 . S
C1952 C1969 1.394 . S
C1953 C1952 1.397 . S
C1953 C1954 1.438 . S
C1953 C1958 1.429 . S
C1954 C1953 1.438 . S
C1954 C1955 1.428 . S
C1954 C1967 1.394 . S
C1955 H1947 0.949 . S
C1955 C1954 1.428 . S
C1955 C1956 1.345 . S
C1956 H1948 0.950 . S
C1956 C1955 1.345 . S
C1956 C1957 1.424 . S
C1957 H1949 0.951 . S
C1957 C1956 1.424 . S
C1957 C1958 1.347 . S
C1958 H1950 0.951 . S
C1958 C1953 1.429 . S
C1958 C1957 1.347 . S
H1959 C1960 0.951 . S
C1960 H1959 0.951 . S
C1960 C1966 1.265 . S
H1961 C1966 0.950 . S
H1962 C1970 0.949 . S
H1963 C1971 0.950 . S
H1964 C1972 0.951 . S
H1965 C1973 0.951 . S
C1966 C1960 1.265 . S
C1966 H1961 0.950 . S
C1966 C1967 1.478 . S
C1967 C1954 1.394 . S
C1967 C1966 1.478 . S
C1967 C1968 1.397 . S
C1968 C1967 1.397 . S
C1968 C1969 1.438 . S
C1968 C1973 1.429 . S
C1969 C1952 1.394 . S
C1969 C1968 1.438 . S
C1969 C1970 1.428 . S
C1970 H1962 0.949 . S
C1970 C1969 1.428 . S
C1970 C1971 1.345 . S
C1971 H1963 0.950 . S
C1971 C1970 1.345 . S
C1971 C1972 1.424 . S
C1972 H1964 0.951 . S
C1972 C1971 1.424 . S
C1972 C1973 1.347 . S
C1973 H1965 0.951 . S
C1973 C1968 1.429 . S
C1973 C1972 1.347 . S
H1974 C1975 0.951 . S
C1975 H1974 0.951 . S
C1975 C1981 1.265 . S
H1976 C1981 0.950 . S
H1977 C1985 0.949 . S
H1978 C1986 0.950 . S
H1979 C1987 0.951 . S
H1980 C1988 0.951 . S
C1981 C1975 1.265 . S
C1981 H1976 0.950 . S
C1981 C1982 1.478 . S
C1982 C1981 1.478 . S
C1982 C1983 1.397 . S
C1982 C1999 1.394 . S
C1983 C1982 1.397 . S
C1983 C1984 1.438 . S
C1983 C1988 1.429 . S
C1984 C1983 1.438 . S
C1984 C1985 1.428 . S
C1984 C1997 1.394 . S
C1985 H1977 0.949 . S
C1985 C1984 1.428 . S
C1985 C1986 1.345 . S
C1986 H1978 0.950 . S
C1986 C1985 1.345 . S
C1986 C1987 1.424 . S
C1987 H1979 0.951 . S
C1987 C1986 1.424 . S
C1987 C1988 1.347 . S
C1988 H1980 0.951 . S
C1988 C1983 1.429 . S
C1988 C1987 1.347 . S
H1989 C1990 0.951 . S
C1990 H1989 0.951 . S
C1990 C1996 1.265 . S
H1991 C1996 0.950 . S
H1992 C2000 0.949 . S
H1993 C2001 0.950 . S
H1994 C2002 0.951 . S
H1995 C2003 0.951 . S
C1996 C1990 1.265 . S
C1996 H1991 0.950 . S
C1996 C1997 1.478 . S
C1997 C1984 1.394 . S
C1997 C1996 1.478 . S
C1997 C1998 1.397 . S
C1998 C1997 1.397 . S
C1998 C1999 1.438 . S
C1998 C2003 1.429 . S
C1999 C1982 1.394 . S
C1999 C1998 1.438 . S
C1999 C2000 1.428 . S
C2000 H1992 0.949 . S
C2000 C1999 1.428 . S
C2000 C2001 1.345 . S
C2001 H1993 0.950 . S
C2001 C2000 1.345 . S
C2001 C2002 1.424 . S
C2002 H1994 0.951 . S
C2002 C2001 1.424 . S
C2002 C2003 1.347 . S
C2003 H1995 0.951 . S
C2003 C1998 1.429 . S
C2003 C2002 1.347 . S
H2004 C2005 0.951 . S
C2005 H2004 0.951 . S
C2005 C2011 1.265 . S
H2006 C2011 0.950 . S
H2007 C2015 0.949 . S
H2008 C2016 0.950 . S
H2009 C2017 0.951 . S
H2010 C2018 0.951 . S
C2011 C2005 1.265 . S
C2011 H2006 0.950 . S
C2011 C2012 1.478 . S
C2012 C2011 1.478 . S
C2012 C2013 1.397 . S
C2012 C2029 1.394 . S
C2013 C2012 1.397 . S
C2013 C2014 1.438 . S
C2013 C2018 1.429 . S
C2014 C2013 1.438 . S
C2014 C2015 1.428 . S
C2014 C2027 1.394 . S
C2015 H2007 0.949 . S
C2015 C2014 1.428 . S
C2015 C2016 1.345 . S
C2016 H2008 0.950 . S
C2016 C2015 1.345 . S
C2016 C2017 1.424 . S
C2017 H2009 0.951 . S
C2017 C2016 1.424 . S
C2017 C2018 1.347 . S
C2018 H2010 0.951 . S
C2018 C2013 1.429 . S
C2018 C2017 1.347 . S
H2019 C2020 0.951 . S
C2020 H2019 0.951 . S
C2020 C2026 1.265 . S
H2021 C2026 0.950 . S
H2022 C2030 0.949 . S
H2023 C2031 0.950 . S
H2024 C2032 0.951 . S
H2025 C2033 0.951 . S
C2026 C2020 1.265 . S
C2026 H2021 0.950 . S
C2026 C2027 1.478 . S
C2027 C2014 1.394 . S
C2027 C2026 1.478 . S
C2027 C2028 1.397 . S
C2028 C2027 1.397 . S
C2028 C2029 1.438 . S
C2028 C2033 1.429 . S
C2029 C2012 1.394 . S
C2029 C2028 1.438 . S
C2029 C2030 1.428 . S
C2030 H2022 0.949 . S
C2030 C2029 1.428 . S
C2030 C2031 1.345 . S
C2031 H2023 0.950 . S
C2031 C2030 1.345 . S
C2031 C2032 1.424 . S
C2032 H2024 0.951 . S
C2032 C2031 1.424 . S
C2032 C2033 1.347 . S
C2033 H2025 0.951 . S
C2033 C2028 1.429 . S
C2033 C2032 1.347 . S
H2034 C2035 0.951 . S
C2035 H2034 0.951 . S
C2035 C2041 1.265 . S
H2036 C2041 0.950 . S
H2037 C2045 0.949 . S
H2038 C2046 0.950 . S
H2039 C2047 0.951 . S
H2040 C2048 0.951 . S
C2041 C2035 1.265 . S
C2041 H2036 0.950 . S
C2041 C2042 1.478 . S
C2042 C2041 1.478 . S
C2042 C2043 1.397 . S
C2042 C2059 1.394 . S
C2043 C2042 1.397 . S
C2043 C2044 1.438 . S
C2043 C2048 1.429 . S
C2044 C2043 1.438 . S
C2044 C2045 1.428 . S
C2044 C2057 1.394 . S
C2045 H2037 0.949 . S
C2045 C2044 1.428 . S
C2045 C2046 1.345 . S
C2046 H2038 0.950 . S
C2046 C2045 1.345 . S
C2046 C2047 1.424 . S
C2047 H2039 0.951 . S
C2047 C2046 1.424 . S
C2047 C2048 1.347 . S
C2048 H2040 0.951 . S
C2048 C2043 1.429 . S
C2048 C2047 1.347 . S
H2049 C2050 0.951 . S
C2050 H2049 0.951 . S
C2050 C2056 1.265 . S
H2051 C2056 0.950 . S
H2052 C2060 0.949 . S
H2053 C2061 0.950 . S
H2054 C2062 0.951 . S
H2055 C2063 0.951 . S
C2056 C2050 1.265 . S
C2056 H2051 0.950 . S
C2056 C2057 1.478 . S
C2057 C2044 1.394 . S
C2057 C2056 1.478 . S
C2057 C2058 1.397 . S
C2058 C2057 1.397 . S
C2058 C2059 1.438 . S
C2058 C2063 1.429 . S
C2059 C2042 1.394 . S
C2059 C2058 1.438 . S
C2059 C2060 1.428 . S
C2060 H2052 0.949 . S
C2060 C2059 1.428 . S
C2060 C2061 1.345 . S
C2061 H2053 0.950 . S
C2061 C2060 1.345 . S
C2061 C2062 1.424 . S
C2062 H2054 0.951 . S
C2062 C2061 1.424 . S
C2062 C2063 1.347 . S
C2063 H2055 0.951 . S
C2063 C2058 1.429 . S
C2063 C2062 1.347 . S
H2064 C2065 0.951 . S
C2065 H2064 0.951 . S
C2065 C2071 1.265 . S
H2066 C2071 0.950 . S
H2067 C2075 0.949 . S
H2068 C2076 0.950 . S
H2069 C2077 0.951 . S
H2070 C2078 0.951 . S
C2071 C2065 1.265 . S
C2071 H2066 0.950 . S
C2071 C2072 1.478 . S
C2072 C2071 1.478 . S
C2072 C2073 1.397 . S
C2072 C2089 1.394 . S
C2073 C2072 1.397 . S
C2073 C2074 1.438 . S
C2073 C2078 1.429 . S
C2074 C2073 1.438 . S
C2074 C2075 1.428 . S
C2074 C2087 1.394 . S
C2075 H2067 0.949 . S
C2075 C2074 1.428 . S
C2075 C2076 1.345 . S
C2076 H2068 0.950 . S
C2076 C2075 1.345 . S
C2076 C2077 1.424 . S
C2077 H2069 0.951 . S
C2077 C2076 1.424 . S
C2077 C2078 1.347 . S
C2078 H2070 0.951 . S
C2078 C2073 1.429 . S
C2078 C2077 1.347 . S
H2079 C2080 0.951 . S
C2080 H2079 0.951 . S
C2080 C2086 1.265 . S
H2081 C2086 0.950 . S
H2082 C2090 0.949 . S
H2083 C2091 0.950 . S
H2084 C2092 0.951 . S
H2085 C2093 0.951 . S
C2086 C2080 1.265 . S
C2086 H2081 0.950 . S
C2086 C2087 1.478 . S
C2087 C2074 1.394 . S
C2087 C2086 1.478 . S
C2087 C2088 1.397 . S
C2088 C2087 1.397 . S
C2088 C2089 1.438 . S
C2088 C2093 1.429 . S
C2089 C2072 1.394 . S
C2089 C2088 1.438 . S
C2089 C2090 1.428 . S
C2090 H2082 0.949 . S
C2090 C2089 1.428 . S
C2090 C2091 1.345 . S
C2091 H2083 0.950 . S
C2091 C2090 1.345 . S
C2091 C2092 1.424 . S
C2092 H2084 0.951 . S
C2092 C2091 1.424 . S
C2092 C2093 1.347 . S
C2093 H2085 0.951 . S
C2093 C2088 1.429 . S
C2093 C2092 1.347 . S
H2094 C2095 0.951 . S
C2095 H2094 0.951 . S
C2095 C2101 1.265 . S
H2096 C2101 0.950 . S
H2097 C2105 0.949 . S
H2098 C2106 0.950 . S
H2099 C2107 0.951 . S
H2100 C2108 0.951 . S
C2101 C2095 1.265 . S
C2101 H2096 0.950 . S
C2101 C2102 1.478 . S
C2102 C2101 1.478 . S
C2102 C2103 1.397 . S
C2102 C2119 1.394 . S
C2103 C2102 1.397 . S
C2103 C2104 1.438 . S
C2103 C2108 1.429 . S
C2104 C2103 1.438 . S
C2104 C2105 1.428 . S
C2104 C2117 1.394 . S
C2105 H2097 0.949 . S
C2105 C2104 1.428 . S
C2105 C2106 1.345 . S
C2106 H2098 0.950 . S
C2106 C2105 1.345 . S
C2106 C2107 1.424 . S
C2107 H2099 0.951 . S
C2107 C2106 1.424 . S
C2107 C2108 1.347 . S
C2108 H2100 0.951 . S
C2108 C2103 1.429 . S
C2108 C2107 1.347 . S
H2109 C2110 0.951 . S
C2110 H2109 0.951 . S
C2110 C2116 1.265 . S
H2111 C2116 0.950 . S
H2112 C2120 0.949 . S
H2113 C2121 0.950 . S
H2114 C2122 0.951 . S
H2115 C2123 0.951 . S
C2116 C2110 1.265 . S
C2116 H2111 0.950 . S
C2116 C2117 1.478 . S
C2117 C2104 1.394 . S
C2117 C2116 1.478 . S
C2117 C2118 1.397 . S
C2118 C2117 1.397 . S
C2118 C2119 1.438 . S
C2118 C2123 1.429 . S
C2119 C2102 1.394 . S
C2119 C2118 1.438 . S
C2119 C2120 1.428 . S
C2120 H2112 0.949 . S
C2120 C2119 1.428 . S
C2120 C2121 1.345 . S
C2121 H2113 0.950 . S
C2121 C2120 1.345 . S
C2121 C2122 1.424 . S
C2122 H2114 0.951 . S
C2122 C2121 1.424 . S
C2122 C2123 1.347 . S
C2123 H2115 0.951 . S
C2123 C2118 1.429 . S
C2123 C2122 1.347 . S
H2124 C2125 0.951 . S
C2125 H2124 0.951 . S
C2125 C2131 1.265 . S
H2126 C2131 0.950 . S
H2127 C2135 0.949 . S
H2128 C2136 0.950 . S
H2129 C2137 0.951 . S
H2130 C2138 0.951 . S
C2131 C2125 1.265 . S
C2131 H2126 0.950 . S
C2131 C2132 1.478 . S
C2132 C2131 1.478 . S
C2132 C2133 1.397 . S
C2132 C2149 1.394 . S
C2133 C2132 1.397 . S
C2133 C2134 1.438 . S
C2133 C2138 1.429 . S
C2134 C2133 1.438 . S
C2134 C2135 1.428 . S
C2134 C2147 1.394 . S
C2135 H2127 0.949 . S
C2135 C2134 1.428 . S
C2135 C2136 1.345 . S
C2136 H2128 0.950 . S
C2136 C2135 1.345 . S
C2136 C2137 1.424 . S
C2137 H2129 0.951 . S
C2137 C2136 1.424 . S
C2137 C2138 1.347 . S
C2138 H2130 0.951 . S
C2138 C2133 1.429 . S
C2138 C2137 1.347 . S
H2139 C2140 0.951 . S
C2140 H2139 0.951 . S
C2140 C2146 1.265 . S
H2141 C2146 0.950 . S
H2142 C2150 0.949 . S
H2143 C2151 0.950 . S
H2144 C2152 0.951 . S
H2145 C2153 0.951 . S
C2146 C2140 1.265 . S
C2146 H2141 0.950 . S
C2146 C2147 1.478 . S
C2147 C2134 1.394 . S
C2147 C2146 1.478 . S
C2147 C2148 1.397 . S
C2148 C2147 1.397 . S
C2148 C2149 1.438 . S
C2148 C2153 1.429 . S
C2149 C2132 1.394 . S
C2149 C2148 1.438 . S
C2149 C2150 1.428 . S
C2150 H2142 0.949 . S
C2150 C2149 1.428 . S
C2150 C2151 1.345 . S
C2151 H2143 0.950 . S
C2151 C2150 1.345 . S
C2151 C2152 1.424 . S
C2152 H2144 0.951 . S
C2152 C2151 1.424 . S
C2152 C2153 1.347 . S
C2153 H2145 0.951 . S
C2153 C2148 1.429 . S
C2153 C2152 1.347 . S
H2154 C2155 0.951 . S
C2155 H2154 0.951 . S
C2155 C2161 1.265 . S
H2156 C2161 0.950 . S
H2157 C2165 0.949 . S
H2158 C2166 0.950 . S
H2159 C2167 0.951 . S
H2160 C2168 0.951 . S
C2161 C2155 1.265 . S
C2161 H2156 0.950 . S
C2161 C2162 1.478 . S
C2162 C2161 1.478 . S
C2162 C2163 1.397 . S
C2162 C2179 1.394 . S
C2163 C2162 1.397 . S
C2163 C2164 1.438 . S
C2163 C2168 1.429 . S
C2164 C2163 1.438 . S
C2164 C2165 1.428 . S
C2164 C2177 1.394 . S
C2165 H2157 0.949 . S
C2165 C2164 1.428 . S
C2165 C2166 1.345 . S
C2166 H2158 0.950 . S
C2166 C2165 1.345 . S
C2166 C2167 1.424 . S
C2167 H2159 0.951 . S
C2167 C2166 1.424 . S
C2167 C2168 1.347 . S
C2168 H2160 0.951 . S
C2168 C2163 1.429 . S
C2168 C2167 1.347 . S
H2169 C2170 0.951 . S
C2170 H2169 0.951 . S
C2170 C2176 1.265 . S
H2171 C2176 0.950 . S
H2172 C2180 0.949 . S
H2173 C2181 0.950 . S
H2174 C2182 0.951 . S
H2175 C2183 0.951 . S
C2176 C2170 1.265 . S
C2176 H2171 0.950 . S
C2176 C2177 1.478 . S
C2177 C2164 1.394 . S
C2177 C2176 1.478 . S
C2177 C2178 1.397 . S
C2178 C2177 1.397 . S
C2178 C2179 1.438 . S
C2178 C2183 1.429 . S
C2179 C2162 1.394 . S
C2179 C2178 1.438 . S
C2179 C2180 1.428 . S
C2180 H2172 0.949 . S
C2180 C2179 1.428 . S
C2180 C2181 1.345 . S
C2181 H2173 0.950 . S
C2181 C2180 1.345 . S
C2181 C2182 1.424 . S
C2182 H2174 0.951 . S
C2182 C2181 1.424 . S
C2182 C2183 1.347 . S
C2183 H2175 0.951 . S
C2183 C2178 1.429 . S
C2183 C2182 1.347 . S
H2184 C2185 0.951 . S
C2185 H2184 0.951 . S
C2185 C2191 1.265 . S
H2186 C2191 0.950 . S
H2187 C2195 0.949 . S
H2188 C2196 0.950 . S
H2189 C2197 0.951 . S
H2190 C2198 0.951 . S
C2191 C2185 1.265 . S
C2191 H2186 0.950 . S
C2191 C2192 1.478 . S
C2192 C2191 1.478 . S
C2192 C2193 1.397 . S
C2192 C2209 1.394 . S
C2193 C2192 1.397 . S
C2193 C2194 1.438 . S
C2193 C2198 1.429 . S
C2194 C2193 1.438 . S
C2194 C2195 1.428 . S
C2194 C2207 1.394 . S
C2195 H2187 0.949 . S
C2195 C2194 1.428 . S
C2195 C2196 1.345 . S
C2196 H2188 0.950 . S
C2196 C2195 1.345 . S
C2196 C2197 1.424 . S
C2197 H2189 0.951 . S
C2197 C2196 1.424 . S
C2197 C2198 1.347 . S
C2198 H2190 0.951 . S
C2198 C2193 1.429 . S
C2198 C2197 1.347 . S
H2199 C2200 0.951 . S
C2200 H2199 0.951 . S
C2200 C2206 1.265 . S
H2201 C2206 0.950 . S
H2202 C2210 0.949 . S
H2203 C2211 0.950 . S
H2204 C2212 0.951 . S
H2205 C2213 0.951 . S
C2206 C2200 1.265 . S
C2206 H2201 0.950 . S
C2206 C2207 1.478 . S
C2207 C2194 1.394 . S
C2207 C2206 1.478 . S
C2207 C2208 1.397 . S
C2208 C2207 1.397 . S
C2208 C2209 1.438 . S
C2208 C2213 1.429 . S
C2209 C2192 1.394 . S
C2209 C2208 1.438 . S
C2209 C2210 1.428 . S
C2210 H2202 0.949 . S
C2210 C2209 1.428 . S
C2210 C2211 1.345 . S
C2211 H2203 0.950 . S
C2211 C2210 1.345 . S
C2211 C2212 1.424 . S
C2212 H2204 0.951 . S
C2212 C2211 1.424 . S
C2212 C2213 1.347 . S
C2213 H2205 0.951 . S
C2213 C2208 1.429 . S
C2213 C2212 1.347 . S
H2214 C2215 0.951 . S
C2215 H2214 0.951 . S
C2215 C2221 1.265 . S
H2216 C2221 0.950 . S
H2217 C2225 0.949 . S
H2218 C2226 0.950 . S
H2219 C2227 0.951 . S
H2220 C2228 0.951 . S
C2221 C2215 1.265 . S
C2221 H2216 0.950 . S
C2221 C2222 1.478 . S
C2222 C2221 1.478 . S
C2222 C2223 1.397 . S
C2222 C2239 1.394 . S
C2223 C2222 1.397 . S
C2223 C2224 1.438 . S
C2223 C2228 1.429 . S
C2224 C2223 1.438 . S
C2224 C2225 1.428 . S
C2224 C2237 1.394 . S
C2225 H2217 0.949 . S
C2225 C2224 1.428 . S
C2225 C2226 1.345 . S
C2226 H2218 0.950 . S
C2226 C2225 1.345 . S
C2226 C2227 1.424 . S
C2227 H2219 0.951 . S
C2227 C2226 1.424 . S
C2227 C2228 1.347 . S
C2228 H2220 0.951 . S
C2228 C2223 1.429 . S
C2228 C2227 1.347 . S
H2229 C2230 0.951 . S
C2230 H2229 0.951 . S
C2230 C2236 1.265 . S
H2231 C2236 0.950 . S
H2232 C2240 0.949 . S
H2233 C2241 0.950 . S
H2234 C2242 0.951 . S
H2235 C2243 0.951 . S
C2236 C2230 1.265 . S
C2236 H2231 0.950 . S
C2236 C2237 1.478 . S
C2237 C2224 1.394 . S
C2237 C2236 1.478 . S
C2237 C2238 1.397 . S
C2238 C2237 1.397 . S
C2238 C2239 1.438 . S
C2238 C2243 1.429 . S
C2239 C2222 1.394 . S
C2239 C2238 1.438 . S
C2239 C2240 1.428 . S
C2240 H2232 0.949 . S
C2240 C2239 1.428 . S
C2240 C2241 1.345 . S
C2241 H2233 0.950 . S
C2241 C2240 1.345 . S
C2241 C2242 1.424 . S
C2242 H2234 0.951 . S
C2242 C2241 1.424 . S
C2242 C2243 1.347 . S
C2243 H2235 0.951 . S
C2243 C2238 1.429 . S
C2243 C2242 1.347 . S
H2244 C2245 0.951 . S
C2245 H2244 0.951 . S
C2245 C2251 1.265 . S
H2246 C2251 0.950 . S
H2247 C2255 0.949 . S
H2248 C2256 0.950 . S
H2249 C2257 0.951 . S
H2250 C2258 0.951 . S
C2251 C2245 1.265 . S
C2251 H2246 0.950 . S
C2251 C2252 1.478 . S
C2252 C2251 1.478 . S
C2252 C2253 1.397 . S
C2252 C2269 1.394 . S
C2253 C2252 1.397 . S
C2253 C2254 1.438 . S
C2253 C2258 1.429 . S
C2254 C2253 1.438 . S
C2254 C2255 1.428 . S
C2254 C2267 1.394 . S
C2255 H2247 0.949 . S
C2255 C2254 1.428 . S
C2255 C2256 1.345 . S
C2256 H2248 0.950 . S
C2256 C2255 1.345 . S
C2256 C2257 1.424 . S
C2257 H2249 0.951 . S
C2257 C2256 1.424 . S
C2257 C2258 1.347 . S
C2258 H2250 0.951 . S
C2258 C2253 1.429 . S
C2258 C2257 1.347 . S
H2259 C2260 0.951 . S
C2260 H2259 0.951 . S
C2260 C2266 1.265 . S
H2261 C2266 0.950 . S
H2262 C2270 0.949 . S
H2263 C2271 0.950 . S
H2264 C2272 0.951 . S
H2265 C2273 0.951 . S
C2266 C2260 1.265 . S
C2266 H2261 0.950 . S
C2266 C2267 1.478 . S
C2267 C2254 1.394 . S
C2267 C2266 1.478 . S
C2267 C2268 1.397 . S
C2268 C2267 1.397 . S
C2268 C2269 1.438 . S
C2268 C2273 1.429 . S
C2269 C2252 1.394 . S
C2269 C2268 1.438 . S
C2269 C2270 1.428 . S
C2270 H2262 0.949 . S
C2270 C2269 1.428 . S
C2270 C2271 1.345 . S
C2271 H2263 0.950 . S
C2271 C2270 1.345 . S
C2271 C2272 1.424 . S
C2272 H2264 0.951 . S
C2272 C2271 1.424 . S
C2272 C2273 1.347 . S
C2273 H2265 0.951 . S
C2273 C2268 1.429 . S
C2273 C2272 1.347 . S
H2274 C2275 0.951 . S
C2275 H2274 0.951 . S
C2275 C2281 1.265 . S
H2276 C2281 0.950 . S
H2277 C2285 0.949 . S
H2278 C2286 0.950 . S
H2279 C2287 0.951 . S
H2280 C2288 0.951 . S
C2281 C2275 1.265 . S
C2281 H2276 0.950 . S
C2281 C2282 1.478 . S
C2282 C2281 1.478 . S
C2282 C2283 1.397 . S
C2282 C2299 1.394 . S
C2283 C2282 1.397 . S
C2283 C2284 1.438 . S
C2283 C2288 1.429 . S
C2284 C2283 1.438 . S
C2284 C2285 1.428 . S
C2284 C2297 1.394 . S
C2285 H2277 0.949 . S
C2285 C2284 1.428 . S
C2285 C2286 1.345 . S
C2286 H2278 0.950 . S
C2286 C2285 1.345 . S
C2286 C2287 1.424 . S
C2287 H2279 0.951 . S
C2287 C2286 1.424 . S
C2287 C2288 1.347 . S
C2288 H2280 0.951 . S
C2288 C2283 1.429 . S
C2288 C2287 1.347 . S
H2289 C2290 0.951 . S
C2290 H2289 0.951 . S
C2290 C2296 1.265 . S
H2291 C2296 0.950 . S
H2292 C2300 0.949 . S
H2293 C2301 0.950 . S
H2294 C2302 0.951 . S
H2295 C2303 0.951 . S
C2296 C2290 1.265 . S
C2296 H2291 0.950 . S
C2296 C2297 1.478 . S
C2297 C2284 1.394 . S
C2297 C2296 1.478 . S
C2297 C2298 1.397 . S
C2298 C2297 1.397 . S
C2298 C2299 1.438 . S
C2298 C2303 1.429 . S
C2299 C2282 1.394 . S
C2299 C2298 1.438 . S
C2299 C2300 1.428 . S
C2300 H2292 0.949 . S
C2300 C2299 1.428 . S
C2300 C2301 1.345 . S
C2301 H2293 0.950 . S
C2301 C2300 1.345 . S
C2301 C2302 1.424 . S
C2302 H2294 0.951 . S
C2302 C2301 1.424 . S
C2302 C2303 1.347 . S
C2303 H2295 0.951 . S
C2303 C2298 1.429 . S
C2303 C2302 1.347 . S
H2304 C2305 0.951 . S
C2305 H2304 0.951 . S
C2305 C2311 1.265 . S
H2306 C2311 0.950 . S
H2307 C2315 0.949 . S
H2308 C2316 0.950 . S
H2309 C2317 0.951 . S
H2310 C2318 0.951 . S
C2311 C2305 1.265 . S
C2311 H2306 0.950 . S
C2311 C2312 1.478 . S
C2312 C2311 1.478 . S
C2312 C2313 1.397 . S
C2312 C2329 1.394 . S
C2313 C2312 1.397 . S
C2313 C2314 1.438 . S
C2313 C2318 1.429 . S
C2314 C2313 1.438 . S
C2314 C2315 1.428 . S
C2314 C2327 1.394 . S
C2315 H2307 0.949 . S
C2315 C2314 1.428 . S
C2315 C2316 1.345 . S
C2316 H2308 0.950 . S
C2316 C2315 1.345 . S
C2316 C2317 1.424 . S
C2317 H2309 0.951 . S
C2317 C2316 1.424 . S
C2317 C2318 1.347 . S
C2318 H2310 0.951 . S
C2318 C2313 1.429 . S
C2318 C2317 1.347 . S
H2319 C2320 0.951 . S
C2320 H2319 0.951 . S
C2320 C2326 1.265 . S
H2321 C2326 0.950 . S
H2322 C2330 0.949 . S
H2323 C2331 0.950 . S
H2324 C2332 0.951 . S
H2325 C2333 0.951 . S
C2326 C2320 1.265 . S
C2326 H2321 0.950 . S
C2326 C2327 1.478 . S
C2327 C2314 1.394 . S
C2327 C2326 1.478 . S
C2327 C2328 1.397 . S
C2328 C2327 1.397 . S
C2328 C2329 1.438 . S
C2328 C2333 1.429 . S
C2329 C2312 1.394 . S
C2329 C2328 1.438 . S
C2329 C2330 1.428 . S
C2330 H2322 0.949 . S
C2330 C2329 1.428 . S
C2330 C2331 1.345 . S
C2331 H2323 0.950 . S
C2331 C2330 1.345 . S
C2331 C2332 1.424 . S
C2332 H2324 0.951 . S
C2332 C2331 1.424 . S
C2332 C2333 1.347 . S
C2333 H2325 0.951 . S
C2333 C2328 1.429 . S
C2333 C2332 1.347 . S
H2334 C2335 0.951 . S
C2335 H2334 0.951 . S
C2335 C2341 1.265 . S
H2336 C2341 0.950 . S
H2337 C2345 0.949 . S
H2338 C2346 0.950 . S
H2339 C2347 0.951 . S
H2340 C2348 0.951 . S
C2341 C2335 1.265 . S
C2341 H2336 0.950 . S
C2341 C2342 1.478 . S
C2342 C2341 1.478 . S
C2342 C2343 1.397 . S
C2342 C2359 1.394 . S
C2343 C2342 1.397 . S
C2343 C2344 1.438 . S
C2343 C2348 1.429 . S
C2344 C2343 1.438 . S
C2344 C2345 1.428 . S
C2344 C2357 1.394 . S
C2345 H2337 0.949 . S
C2345 C2344 1.428 . S
C2345 C2346 1.345 . S
C2346 H2338 0.950 . S
C2346 C2345 1.345 . S
C2346 C2347 1.424 . S
C2347 H2339 0.951 . S
C2347 C2346 1.424 . S
C2347 C2348 1.347 . S
C2348 H2340 0.951 . S
C2348 C2343 1.429 . S
C2348 C2347 1.347 . S
H2349 C2350 0.951 . S
C2350 H2349 0.951 . S
C2350 C2356 1.265 . S
H2351 C2356 0.950 . S
H2352 C2360 0.949 . S
H2353 C2361 0.950 . S
H2354 C2362 0.951 . S
H2355 C2363 0.951 . S
C2356 C2350 1.265 . S
C2356 H2351 0.950 . S
C2356 C2357 1.478 . S
C2357 C2344 1.394 . S
C2357 C2356 1.478 . S
C2357 C2358 1.397 . S
C2358 C2357 1.397 . S
C2358 C2359 1.438 . S
C2358 C2363 1.429 . S
C2359 C2342 1.394 . S
C2359 C2358 1.438 . S
C2359 C2360 1.428 . S
C2360 H2352 0.949 . S
C2360 C2359 1.428 . S
C2360 C2361 1.345 . S
C2361 H2353 0.950 . S
C2361 C2360 1.345 . S
C2361 C2362 1.424 . S
C2362 H2354 0.951 . S
C2362 C2361 1.424 . S
C2362 C2363 1.347 . S
C2363 H2355 0.951 . S
C2363 C2358 1.429 . S
C2363 C2362 1.347 . S
H2364 C2365 0.951 . S
C2365 H2364 0.951 . S
C2365 C2371 1.265 . S
H2366 C2371 0.950 . S
H2367 C2375 0.949 . S
H2368 C2376 0.950 . S
H2369 C2377 0.951 . S
H2370 C2378 0.951 . S
C2371 C2365 1.265 . S
C2371 H2366 0.950 . S
C2371 C2372 1.478 . S
C2372 C2371 1.478 . S
C2372 C2373 1.397 . S
C2372 C2389 1.394 . S
C2373 C2372 1.397 . S
C2373 C2374 1.438 . S
C2373 C2378 1.429 . S
C2374 C2373 1.438 . S
C2374 C2375 1.428 . S
C2374 C2387 1.394 . S
C2375 H2367 0.949 . S
C2375 C2374 1.428 . S
C2375 C2376 1.345 . S
C2376 H2368 0.950 . S
C2376 C2375 1.345 . S
C2376 C2377 1.424 . S
C2377 H2369 0.951 . S
C2377 C2376 1.424 . S
C2377 C2378 1.347 . S
C2378 H2370 0.951 . S
C2378 C2373 1.429 . S
C2378 C2377 1.347 . S
H2379 C2380 0.951 . S
C2380 H2379 0.951 . S
C2380 C2386 1.265 . S
H2381 C2386 0.950 . S
H2382 C2390 0.949 . S
H2383 C2391 0.950 . S
H2384 C2392 0.951 . S
H2385 C2393 0.951 . S
C2386 C2380 1.265 . S
C2386 H2381 0.950 . S
C2386 C2387 1.478 . S
C2387 C2374 1.394 . S
C2387 C2386 1.478 . S
C2387 C2388 1.397 . S
C2388 C2387 1.397 . S
C2388 C2389 1.438 . S
C2388 C2393 1.429 . S
C2389 C2372 1.394 . S
C2389 C2388 1.438 . S
C2389 C2390 1.428 . S
C2390 H2382 0.949 . S
C2390 C2389 1.428 . S
C2390 C2391 1.345 . S
C2391 H2383 0.950 . S
C2391 C2390 1.345 . S
C2391 C2392 1.424 . S
C2392 H2384 0.951 . S
C2392 C2391 1.424 . S
C2392 C2393 1.347 . S
C2393 H2385 0.951 . S
C2393 C2388 1.429 . S
C2393 C2392 1.347 . S
H2394 C2395 0.951 . S
C2395 H2394 0.951 . S
C2395 C2401 1.265 . S
H2396 C2401 0.950 . S
H2397 C2405 0.949 . S
H2398 C2406 0.950 . S
H2399 C2407 0.951 . S
H2400 C2408 0.951 . S
C2401 C2395 1.265 . S
C2401 H2396 0.950 . S
C2401 C2402 1.478 . S
C2402 C2401 1.478 . S
C2402 C2403 1.397 . S
C2402 C2419 1.394 . S
C2403 C2402 1.397 . S
C2403 C2404 1.438 . S
C2403 C2408 1.429 . S
C2404 C2403 1.438 . S
C2404 C2405 1.428 . S
C2404 C2417 1.394 . S
C2405 H2397 0.949 . S
C2405 C2404 1.428 . S
C2405 C2406 1.345 . S
C2406 H2398 0.950 . S
C2406 C2405 1.345 . S
C2406 C2407 1.424 . S
C2407 H2399 0.951 . S
C2407 C2406 1.424 . S
C2407 C2408 1.347 . S
C2408 H2400 0.951 . S
C2408 C2403 1.429 . S
C2408 C2407 1.347 . S
H2409 C2410 0.951 . S
C2410 H2409 0.951 . S
C2410 C2416 1.265 . S
H2411 C2416 0.950 . S
H2412 C2420 0.949 . S
H2413 C2421 0.950 . S
H2414 C2422 0.951 . S
H2415 C2423 0.951 . S
C2416 C2410 1.265 . S
C2416 H2411 0.950 . S
C2416 C2417 1.478 . S
C2417 C2404 1.394 . S
C2417 C2416 1.478 . S
C2417 C2418 1.397 . S
C2418 C2417 1.397 . S
C2418 C2419 1.438 . S
C2418 C2423 1.429 . S
C2419 C2402 1.394 . S
C2419 C2418 1.438 . S
C2419 C2420 1.428 . S
C2420 H2412 0.949 . S
C2420 C2419 1.428 . S
C2420 C2421 1.345 . S
C2421 H2413 0.950 . S
C2421 C2420 1.345 . S
C2421 C2422 1.424 . S
C2422 H2414 0.951 . S
C2422 C2421 1.424 . S
C2422 C2423 1.347 . S
C2423 H2415 0.951 . S
C2423 C2418 1.429 . S
C2423 C2422 1.347 . S
H2424 C2425 0.951 . S
C2425 H2424 0.951 . S
C2425 C2431 1.265 . S
H2426 C2431 0.950 . S
H2427 C2435 0.949 . S
H2428 C2436 0.950 . S
H2429 C2437 0.951 . S
H2430 C2438 0.951 . S
C2431 C2425 1.265 . S
C2431 H2426 0.950 . S
C2431 C2432 1.478 . S
C2432 C2431 1.478 . S
C2432 C2433 1.397 . S
C2432 C2449 1.394 . S
C2433 C2432 1.397 . S
C2433 C2434 1.438 . S
C2433 C2438 1.429 . S
C2434 C2433 1.438 . S
C2434 C2435 1.428 . S
C2434 C2447 1.394 . S
C2435 H2427 0.949 . S
C2435 C2434 1.428 . S
C2435 C2436 1.345 . S
C2436 H2428 0.950 . S
C2436 C2435 1.345 . S
C2436 C2437 1.424 . S
C2437 H2429 0.951 . S
C2437 C2436 1.424 . S
C2437 C2438 1.347 . S
C2438 H2430 0.951 . S
C2438 C2433 1.429 . S
C2438 C2437 1.347 . S
H2439 C2440 0.951 . S
C2440 H2439 0.951 . S
C2440 C2446 1.265 . S
H2441 C2446 0.950 . S
H2442 C2450 0.949 . S
H2443 C2451 0.950 . S
H2444 C2452 0.951 . S
H2445 C2453 0.951 . S
C2446 C2440 1.265 . S
C2446 H2441 0.950 . S
C2446 C2447 1.478 . S
C2447 C2434 1.394 . S
C2447 C2446 1.478 . S
C2447 C2448 1.397 . S
C2448 C2447 1.397 . S
C2448 C2449 1.438 . S
C2448 C2453 1.429 . S
C2449 C2432 1.394 . S
C2449 C2448 1.438 . S
C2449 C2450 1.428 . S
C2450 H2442 0.949 . S
C2450 C2449 1.428 . S
C2450 C2451 1.345 . S
C2451 H2443 0.950 . S
C2451 C2450 1.345 . S
C2451 C2452 1.424 . S
C2452 H2444 0.951 . S
C2452 C2451 1.424 . S
C2452 C2453 1.347 . S
C2453 H2445 0.951 . S
C2453 C2448 1.429 . S
C2453 C2452 1.347 . S
H2454 C2455 0.951 . S
C2455 H2454 0.951 . S
C2455 C2461 1.265 . S
H2456 C2461 0.950 . S
H2457 C2465 0.949 . S
H2458 C2466 0.950 . S
H2459 C2467 0.951 . S
H2460 C2468 0.951 . S
C2461 C2455 1.265 . S
C2461 H2456 0.950 . S
C2461 C2462 1.478 . S
C2462 C2461 1.478 . S
C2462 C2463 1.397 . S
C2462 C2479 1.394 . S
C2463 C2462 1.397 . S
C2463 C2464 1.438 . S
C2463 C2468 1.429 . S
C2464 C2463 1.438 . S
C2464 C2465 1.428 . S
C2464 C2477 1.394 . S
C2465 H2457 0.949 . S
C2465 C2464 1.428 . S
C2465 C2466 1.345 . S
C2466 H2458 0.950 . S
C2466 C2465 1.345 . S
C2466 C2467 1.424 . S
C2467 H2459 0.951 . S
C2467 C2466 1.424 . S
C2467 C2468 1.347 . S
C2468 H2460 0.951 . S
C2468 C2463 1.429 . S
C2468 C2467 1.347 . S
H2469 C2470 0.951 . S
C2470 H2469 0.951 . S
C2470 C2476 1.265 . S
H2471 C2476 0.950 . S
H2472 C2480 0.949 . S
H2473 C2481 0.950 . S
H2474 C2482 0.951 . S
H2475 C2483 0.951 . S
C2476 C2470 1.265 . S
C2476 H2471 0.950 . S
C2476 C2477 1.478 . S
C2477 C2464 1.394 . S
C2477 C2476 1.478 . S
C2477 C2478 1.397 . S
C2478 C2477 1.397 . S
C2478 C2479 1.438 . S
C2478 C2483 1.429 . S
C2479 C2462 1.394 . S
C2479 C2478 1.438 . S
C2479 C2480 1.428 . S
C2480 H2472 0.949 . S
C2480 C2479 1.428 . S
C2480 C2481 1.345 . S
C2481 H2473 0.950 . S
C2481 C2480 1.345 . S
C2481 C2482 1.424 . S
C2482 H2474 0.951 . S
C2482 C2481 1.424 . S
C2482 C2483 1.347 . S
C2483 H2475 0.951 . S
C2483 C2478 1.429 . S
C2483 C2482 1.347 . S
H2484 C2485 0.951 . S
C2485 H2484 0.951 . S
C2485 C2491 1.265 . S
H2486 C2491 0.950 . S
H2487 C2495 0.949 . S
H2488 C2496 0.950 . S
H2489 C2497 0.951 . S
H2490 C2498 0.951 . S
C2491 C2485 1.265 . S
C2491 H2486 0.950 . S
C2491 C2492 1.478 . S
C2492 C2491 1.478 . S
C2492 C2493 1.397 . S
C2492 C2509 1.394 . S
C2493 C2492 1.397 . S
C2493 C2494 1.438 . S
C2493 C2498 1.429 . S
C2494 C2493 1.438 . S
C2494 C2495 1.428 . S
C2494 C2507 1.394 . S
C2495 H2487 0.949 . S
C2495 C2494 1.428 . S
C2495 C2496 1.345 . S
C2496 H2488 0.950 . S
C2496 C2495 1.345 . S
C2496 C2497 1.424 . S
C2497 H2489 0.951 . S
C2497 C2496 1.424 . S
C2497 C2498 1.347 . S
C2498 H2490 0.951 . S
C2498 C2493 1.429 . S
C2498 C2497 1.347 . S
H2499 C2500 0.951 . S
C2500 H2499 0.951 . S
C2500 C2506 1.265 . S
H2501 C2506 0.950 . S
H2502 C2510 0.949 . S
H2503 C2511 0.950 . S
H2504 C2512 0.951 . S
H2505 C2513 0.951 . S
C2506 C2500 1.265 . S
C2506 H2501 0.950 . S
C2506 C2507 1.478 . S
C2507 C2494 1.394 . S
C2507 C2506 1.478 . S
C2507 C2508 1.397 . S
C2508 C2507 1.397 . S
C2508 C2509 1.438 . S
C2508 C2513 1.429 . S
C2509 C2492 1.394 . S
C2509 C2508 1.438 . S
C2509 C2510 1.428 . S
C2510 H2502 0.949 . S
C2510 C2509 1.428 . S
C2510 C2511 1.345 . S
C2511 H2503 0.950 . S
C2511 C2510 1.345 . S
C2511 C2512 1.424 . S
C2512 H2504 0.951 . S
C2512 C2511 1.424 . S
C2512 C2513 1.347 . S
C2513 H2505 0.951 . S
C2513 C2508 1.429 . S
C2513 C2512 1.347 . S
H2514 C2515 0.951 . S
C2515 H2514 0.951 . S
C2515 C2521 1.265 . S
H2516 C2521 0.950 . S
H2517 C2525 0.949 . S
H2518 C2526 0.950 . S
H2519 C2527 0.951 . S
H2520 C2528 0.951 . S
C2521 C2515 1.265 . S
C2521 H2516 0.950 . S
C2521 C2522 1.478 . S
C2522 C2521 1.478 . S
C2522 C2523 1.397 . S
C2522 C2539 1.394 . S
C2523 C2522 1.397 . S
C2523 C2524 1.438 . S
C2523 C2528 1.429 . S
C2524 C2523 1.438 . S
C2524 C2525 1.428 . S
C2524 C2537 1.394 . S
C2525 H2517 0.949 . S
C2525 C2524 1.428 . S
C2525 C2526 1.345 . S
C2526 H2518 0.950 . S
C2526 C2525 1.345 . S
C2526 C2527 1.424 . S
C2527 H2519 0.951 . S
C2527 C2526 1.424 . S
C2527 C2528 1.347 . S
C2528 H2520 0.951 . S
C2528 C2523 1.429 . S
C2528 C2527 1.347 . S
H2529 C2530 0.951 . S
C2530 H2529 0.951 . S
C2530 C2536 1.265 . S
H2531 C2536 0.950 . S
H2532 C2540 0.949 . S
H2533 C2541 0.950 . S
H2534 C2542 0.951 . S
H2535 C2543 0.951 . S
C2536 C2530 1.265 . S
C2536 H2531 0.950 . S
C2536 C2537 1.478 . S
C2537 C2524 1.394 . S
C2537 C2536 1.478 . S
C2537 C2538 1.397 . S
C2538 C2537 1.397 . S
C2538 C2539 1.438 . S
C2538 C2543 1.429 . S
C2539 C2522 1.394 . S
C2539 C2538 1.438 . S
C2539 C2540 1.428 . S
C2540 H2532 0.949 . S
C2540 C2539 1.428 . S
C2540 C2541 1.345 . S
C2541 H2533 0.950 . S
C2541 C2540 1.345 . S
C2541 C2542 1.424 . S
C2542 H2534 0.951 . S
C2542 C2541 1.424 . S
C2542 C2543 1.347 . S
C2543 H2535 0.951 . S
C2543 C2538 1.429 . S
C2543 C2542 1.347 . S
H2544 C2545 0.951 . S
C2545 H2544 0.951 . S
C2545 C2551 1.265 . S
H2546 C2551 0.950 . S
H2547 C2555 0.949 . S
H2548 C2556 0.950 . S
H2549 C2557 0.951 . S
H2550 C2558 0.951 . S
C2551 C2545 1.265 . S
C2551 H2546 0.950 . S
C2551 C2552 1.478 . S
C2552 C2551 1.478 . S
C2552 C2553 1.397 . S
C2552 C2569 1.394 . S
C2553 C2552 1.397 . S
C2553 C2554 1.438 . S
C2553 C2558 1.429 . S
C2554 C2553 1.438 . S
C2554 C2555 1.428 . S
C2554 C2567 1.394 . S
C2555 H2547 0.949 . S
C2555 C2554 1.428 . S
C2555 C2556 1.345 . S
C2556 H2548 0.950 . S
C2556 C2555 1.345 . S
C2556 C2557 1.424 . S
C2557 H2549 0.951 . S
C2557 C2556 1.424 . S
C2557 C2558 1.347 . S
C2558 H2550 0.951 . S
C2558 C2553 1.429 . S
C2558 C2557 1.347 . S
H2559 C2560 0.951 . S
C2560 H2559 0.951 . S
C2560 C2566 1.265 . S
H2561 C2566 0.950 . S
H2562 C2570 0.949 . S
H2563 C2571 0.950 . S
H2564 C2572 0.951 . S
H2565 C2573 0.951 . S
C2566 C2560 1.265 . S
C2566 H2561 0.950 . S
C2566 C2567 1.478 . S
C2567 C2554 1.394 . S
C2567 C2566 1.478 . S
C2567 C2568 1.397 . S
C2568 C2567 1.397 . S
C2568 C2569 1.438 . S
C2568 C2573 1.429 . S
C2569 C2552 1.394 . S
C2569 C2568 1.438 . S
C2569 C2570 1.428 . S
C2570 H2562 0.949 . S
C2570 C2569 1.428 . S
C2570 C2571 1.345 . S
C2571 H2563 0.950 . S
C2571 C2570 1.345 . S
C2571 C2572 1.424 . S
C2572 H2564 0.951 . S
C2572 C2571 1.424 . S
C2572 C2573 1.347 . S
C2573 H2565 0.951 . S
C2573 C2568 1.429 . S
C2573 C2572 1.347 . S
H2574 C2575 0.951 . S
C2575 H2574 0.951 . S
C2575 C2581 1.265 . S
H2576 C2581 0.950 . S
H2577 C2585 0.949 . S
H2578 C2586 0.950 . S
H2579 C2587 0.951 . S
H2580 C2588 0.951 . S
C2581 C2575 1.265 . S
C2581 H2576 0.950 . S
C2581 C2582 1.478 . S
C2582 C2581 1.478 . S
C2582 C2583 1.397 . S
C2582 C2599 1.394 . S
C2583 C2582 1.397 . S
C2583 C2584 1.438 . S
C2583 C2588 1.429 . S
C2584 C2583 1.438 . S
C2584 C2585 1.428 . S
C2584 C2597 1.394 . S
C2585 H2577 0.949 . S
C2585 C2584 1.428 . S
C2585 C2586 1.345 . S
C2586 H2578 0.950 . S
C2586 C2585 1.345 . S
C2586 C2587 1.424 . S
C2587 H2579 0.951 . S
C2587 C2586 1.424 . S
C2587 C2588 1.347 . S
C2588 H2580 0.951 . S
C2588 C2583 1.429 . S
C2588 C2587 1.347 . S
H2589 C2590 0.951 . S
C2590 H2589 0.951 . S
C2590 C2596 1.265 . S
H2591 C2596 0.950 . S
H2592 C2600 0.949 . S
H2593 C2601 0.950 . S
H2594 C2602 0.951 . S
H2595 C2603 0.951 . S
C2596 C2590 1.265 . S
C2596 H2591 0.950 . S
C2596 C2597 1.478 . S
C2597 C2584 1.394 . S
C2597 C2596 1.478 . S
C2597 C2598 1.397 . S
C2598 C2597 1.397 . S
C2598 C2599 1.438 . S
C2598 C2603 1.429 . S
C2599 C2582 1.394 . S
C2599 C2598 1.438 . S
C2599 C2600 1.428 . S
C2600 H2592 0.949 . S
C2600 C2599 1.428 . S
C2600 C2601 1.345 . S
C2601 H2593 0.950 . S
C2601 C2600 1.345 . S
C2601 C2602 1.424 . S
C2602 H2594 0.951 . S
C2602 C2601 1.424 . S
C2602 C2603 1.347 . S
C2603 H2595 0.951 . S
C2603 C2598 1.429 . S
C2603 C2602 1.347 . S
H2604 C2605 0.951 . S
C2605 H2604 0.951 . S
C2605 C2611 1.265 . S
H2606 C2611 0.950 . S
H2607 C2615 0.949 . S
H2608 C2616 0.950 . S
H2609 C2617 0.951 . S
H2610 C2618 0.951 . S
C2611 C2605 1.265 . S
C2611 H2606 0.950 . S
C2611 C2612 1.478 . S
C2612 C2611 1.478 . S
C2612 C2613 1.397 . S
C2612 C2629 1.394 . S
C2613 C2612 1.397 . S
C2613 C2614 1.438 . S
C2613 C2618 1.429 . S
C2614 C2613 1.438 . S
C2614 C2615 1.428 . S
C2614 C2627 1.394 . S
C2615 H2607 0.949 . S
C2615 C2614 1.428 . S
C2615 C2616 1.345 . S
C2616 H2608 0.950 . S
C2616 C2615 1.345 . S
C2616 C2617 1.424 . S
C2617 H2609 0.951 . S
C2617 C2616 1.424 . S
C2617 C2618 1.347 . S
C2618 H2610 0.951 . S
C2618 C2613 1.429 . S
C2618 C2617 1.347 . S
H2619 C2620 0.951 . S
C2620 H2619 0.951 . S
C2620 C2626 1.265 . S
H2621 C2626 0.950 . S
H2622 C2630 0.949 . S
H2623 C2631 0.950 . S
H2624 C2632 0.951 . S
H2625 C2633 0.951 . S
C2626 C2620 1.265 . S
C2626 H2621 0.950 . S
C2626 C2627 1.478 . S
C2627 C2614 1.394 . S
C2627 C2626 1.478 . S
C2627 C2628 1.397 . S
C2628 C2627 1.397 . S
C2628 C2629 1.438 . S
C2628 C2633 1.429 . S
C2629 C2612 1.394 . S
C2629 C2628 1.438 . S
C2629 C2630 1.428 . S
C2630 H2622 0.949 . S
C2630 C2629 1.428 . S
C2630 C2631 1.345 . S
C2631 H2623 0.950 . S
C2631 C2630 1.345 . S
C2631 C2632 1.424 . S
C2632 H2624 0.951 . S
C2632 C2631 1.424 . S
C2632 C2633 1.347 . S
C2633 H2625 0.951 . S
C2633 C2628 1.429 . S
C2633 C2632 1.347 . S
H2634 C2635 0.951 . S
C2635 H2634 0.951 . S
C2635 C2641 1.265 . S
H2636 C2641 0.950 . S
H2637 C2645 0.949 . S
H2638 C2646 0.950 . S
H2639 C2647 0.951 . S
H2640 C2648 0.951 . S
C2641 C2635 1.265 . S
C2641 H2636 0.950 . S
C2641 C2642 1.478 . S
C2642 C2641 1.478 . S
C2642 C2643 1.397 . S
C2642 C2659 1.394 . S
C2643 C2642 1.397 . S
C2643 C2644 1.438 . S
C2643 C2648 1.429 . S
C2644 C2643 1.438 . S
C2644 C2645 1.428 . S
C2644 C2657 1.394 . S
C2645 H2637 0.949 . S
C2645 C2644 1.428 . S
C2645 C2646 1.345 . S
C2646 H2638 0.950 . S
C2646 C2645 1.345 . S
C2646 C2647 1.424 . S
C2647 H2639 0.951 . S
C2647 C2646 1.424 . S
C2647 C2648 1.347 . S
C2648 H2640 0.951 . S
C2648 C2643 1.429 . S
C2648 C2647 1.347 . S
H2649 C2650 0.951 . S
C2650 H2649 0.951 . S
C2650 C2656 1.265 . S
H2651 C2656 0.950 . S
H2652 C2660 0.949 . S
H2653 C2661 0.950 . S
H2654 C2662 0.951 . S
H2655 C2663 0.951 . S
C2656 C2650 1.265 . S
C2656 H2651 0.950 . S
C2656 C2657 1.478 . S
C2657 C2644 1.394 . S
C2657 C2656 1.478 . S
C2657 C2658 1.397 . S
C2658 C2657 1.397 . S
C2658 C2659 1.438 . S
C2658 C2663 1.429 . S
C2659 C2642 1.394 . S
C2659 C2658 1.438 . S
C2659 C2660 1.428 . S
C2660 H2652 0.949 . S
C2660 C2659 1.428 . S
C2660 C2661 1.345 . S
C2661 H2653 0.950 . S
C2661 C2660 1.345 . S
C2661 C2662 1.424 . S
C2662 H2654 0.951 . S
C2662 C2661 1.424 . S
C2662 C2663 1.347 . S
C2663 H2655 0.951 . S
C2663 C2658 1.429 . S
C2663 C2662 1.347 . S
H2664 C2665 0.951 . S
C2665 H2664 0.951 . S
C2665 C2671 1.265 . S
H2666 C2671 0.950 . S
H2667 C2675 0.949 . S
H2668 C2676 0.950 . S
H2669 C2677 0.951 . S
H2670 C2678 0.951 . S
C2671 C2665 1.265 . S
C2671 H2666 0.950 . S
C2671 C2672 1.478 . S
C2672 C2671 1.478 . S
C2672 C2673 1.397 . S
C2672 C2689 1.394 . S
C2673 C2672 1.397 . S
C2673 C2674 1.438 . S
C2673 C2678 1.429 . S
C2674 C2673 1.438 . S
C2674 C2675 1.428 . S
C2674 C2687 1.394 . S
C2675 H2667 0.949 . S
C2675 C2674 1.428 . S
C2675 C2676 1.345 . S
C2676 H2668 0.950 . S
C2676 C2675 1.345 . S
C2676 C2677 1.424 . S
C2677 H2669 0.951 . S
C2677 C2676 1.424 . S
C2677 C2678 1.347 . S
C2678 H2670 0.951 . S
C2678 C2673 1.429 . S
C2678 C2677 1.347 . S
H2679 C2680 0.951 . S
C2680 H2679 0.951 . S
C2680 C2686 1.265 . S
H2681 C2686 0.950 . S
H2682 C2690 0.949 . S
H2683 C2691 0.950 . S
H2684 C2692 0.951 . S
H2685 C2693 0.951 . S
C2686 C2680 1.265 . S
C2686 H2681 0.950 . S
C2686 C2687 1.478 . S
C2687 C2674 1.394 . S
C2687 C2686 1.478 . S
C2687 C2688 1.397 . S
C2688 C2687 1.397 . S
C2688 C2689 1.438 . S
C2688 C2693 1.429 . S
C2689 C2672 1.394 . S
C2689 C2688 1.438 . S
C2689 C2690 1.428 . S
C2690 H2682 0.949 . S
C2690 C2689 1.428 . S
C2690 C2691 1.345 . S
C2691 H2683 0.950 . S
C2691 C2690 1.345 . S
C2691 C2692 1.424 . S
C2692 H2684 0.951 . S
C2692 C2691 1.424 . S
C2692 C2693 1.347 . S
C2693 H2685 0.951 . S
C2693 C2688 1.429 . S
C2693 C2692 1.347 . S
H2694 C2695 0.951 . S
C2695 H2694 0.951 . S
C2695 C2701 1.265 . S
H2696 C2701 0.950 . S
H2697 C2705 0.949 . S
H2698 C2706 0.950 . S
H2699 C2707 0.951 . S
H2700 C2708 0.951 . S
C2701 C2695 1.265 . S
C2701 H2696 0.950 . S
C2701 C2702 1.478 . S
C2702 C2701 1.478 . S
C2702 C2703 1.397 . S
C2702 C2719 1.394 . S
C2703 C2702 1.397 . S
C2703 C2704 1.438 . S
C2703 C2708 1.429 . S
C2704 C2703 1.438 . S
C2704 C2705 1.428 . S
C2704 C2717 1.394 . S
C2705 H2697 0.949 . S
C2705 C2704 1.428 . S
C2705 C2706 1.345 . S
C2706 H2698 0.950 . S
C2706 C2705 1.345 . S
C2706 C2707 1.424 . S
C2707 H2699 0.951 . S
C2707 C2706 1.424 . S
C2707 C2708 1.347 . S
C2708 H2700 0.951 . S
C2708 C2703 1.429 . S
C2708 C2707 1.347 . S
H2709 C2710 0.951 . S
C2710 H2709 0.951 . S
C2710 C2716 1.265 . S
H2711 C2716 0.950 . S
H2712 C2720 0.949 . S
H2713 C2721 0.950 . S
H2714 C2722 0.951 . S
H2715 C2723 0.951 . S
C2716 C2710 1.265 . S
C2716 H2711 0.950 . S
C2716 C2717 1.478 . S
C2717 C2704 1.394 . S
C2717 C2716 1.478 . S
C2717 C2718 1.397 . S
C2718 C2717 1.397 . S
C2718 C2719 1.438 . S
C2718 C2723 1.429 . S
C2719 C2702 1.394 . S
C2719 C2718 1.438 . S
C2719 C2720 1.428 . S
C2720 H2712 0.949 . S
C2720 C2719 1.428 . S
C2720 C2721 1.345 . S
C2721 H2713 0.950 . S
C2721 C2720 1.345 . S
C2721 C2722 1.424 . S
C2722 H2714 0.951 . S
C2722 C2721 1.424 . S
C2722 C2723 1.347 . S
C2723 H2715 0.951 . S
C2723 C2718 1.429 . S
C2723 C2722 1.347 . S
H2724 C2725 0.951 . S
C2725 H2724 0.951 . S
C2725 C2731 1.265 . S
H2726 C2731 0.950 . S
H2727 C2735 0.949 . S
H2728 C2736 0.950 . S
H2729 C2737 0.951 . S
H2730 C2738 0.951 . S
C2731 C2725 1.265 . S
C2731 H2726 0.950 . S
C2731 C2732 1.478 . S
C2732 C2731 1.478 . S
C2732 C2733 1.397 . S
C2732 C2749 1.394 . S
C2733 C2732 1.397 . S
C2733 C2734 1.438 . S
C2733 C2738 1.429 . S
C2734 C2733 1.438 . S
C2734 C2735 1.428 . S
C2734 C2747 1.394 . S
C2735 H2727 0.949 . S
C2735 C2734 1.428 . S
C2735 C2736 1.345 . S
C2736 H2728 0.950 . S
C2736 C2735 1.345 . S
C2736 C2737 1.424 . S
C2737 H2729 0.951 . S
C2737 C2736 1.424 . S
C2737 C2738 1.347 . S
C2738 H2730 0.951 . S
C2738 C2733 1.429 . S
C2738 C2737 1.347 . S
H2739 C2740 0.951 . S
C2740 H2739 0.951 . S
C2740 C2746 1.265 . S
H2741 C2746 0.950 . S
H2742 C2750 0.949 . S
H2743 C2751 0.950 . S
H2744 C2752 0.951 . S
H2745 C2753 0.951 . S
C2746 C2740 1.265 . S
C2746 H2741 0.950 . S
C2746 C2747 1.478 . S
C2747 C2734 1.394 . S
C2747 C2746 1.478 . S
C2747 C2748 1.397 . S
C2748 C2747 1.397 . S
C2748 C2749 1.438 . S
C2748 C2753 1.429 . S
C2749 C2732 1.394 . S
C2749 C2748 1.438 . S
C2749 C2750 1.428 . S
C2750 H2742 0.949 . S
C2750 C2749 1.428 . S
C2750 C2751 1.345 . S
C2751 H2743 0.950 . S
C2751 C2750 1.345 . S
C2751 C2752 1.424 . S
C2752 H2744 0.951 . S
C2752 C2751 1.424 . S
C2752 C2753 1.347 . S
C2753 H2745 0.951 . S
C2753 C2748 1.429 . S
C2753 C2752 1.347 . S
H2754 C2755 0.951 1_556 S
C2755 H2754 0.951 1_554 S
C2755 C2761 1.265 . S
H2756 C2761 0.950 . S
H2757 C2765 0.949 . S
H2758 C2766 0.950 . S
H2759 C2767 0.951 . S
H2760 C2768 0.951 . S
C2761 C2755 1.265 . S
C2761 H2756 0.950 . S
C2761 C2762 1.478 1_554 S
C2762 C2761 1.478 1_556 S
C2762 C2763 1.397 . S
C2762 C2779 1.394 . S
C2763 C2762 1.397 . S
C2763 C2764 1.438 . S
C2763 C2768 1.429 . S
C2764 C2763 1.438 . S
C2764 C2765 1.428 . S
C2764 C2777 1.394 . S
C2765 H2757 0.949 . S
C2765 C2764 1.428 . S
C2765 C2766 1.345 . S
C2766 H2758 0.950 . S
C2766 C2765 1.345 . S
C2766 C2767 1.424 . S
C2767 H2759 0.951 . S
C2767 C2766 1.424 . S
C2767 C2768 1.347 . S
C2768 H2760 0.951 . S
C2768 C2763 1.429 . S
C2768 C2767 1.347 . S
H2769 C2770 0.951 . S
C2770 H2769 0.951 . S
C2770 C2776 1.265 . S
H2771 C2776 0.950 . S
H2772 C2780 0.949 . S
H2773 C2781 0.950 . S
H2774 C2782 0.951 . S
H2775 C2783 0.951 . S
C2776 C2770 1.265 . S
C2776 H2771 0.950 . S
C2776 C2777 1.478 . S
C2777 C2764 1.394 . S
C2777 C2776 1.478 . S
C2777 C2778 1.397 . S
C2778 C2777 1.397 . S
C2778 C2779 1.438 . S
C2778 C2783 1.429 . S
C2779 C2762 1.394 . S
C2779 C2778 1.438 . S
C2779 C2780 1.428 1_556 S
C2780 H2772 0.949 . S
C2780 C2779 1.428 1_554 S
C2780 C2781 1.345 . S
C2781 H2773 0.950 . S
C2781 C2780 1.345 . S
C2781 C2782 1.424 . S
C2782 H2774 0.951 . S
C2782 C2781 1.424 . S
C2782 C2783 1.347 1_554 S
C2783 H2775 0.951 . S
C2783 C2778 1.429 . S
C2783 C2782 1.347 1_556 S
H2784 C2785 0.951 1_554 S
C2785 H2784 0.951 1_556 S
C2785 C2791 1.265 . S
H2786 C2791 0.950 . S
H2787 C2795 0.949 . S
H2788 C2796 0.950 . S
H2789 C2797 0.951 . S
H2790 C2798 0.951 . S
C2791 C2785 1.265 . S
C2791 H2786 0.950 . S
C2791 C2792 1.478 . S
C2792 C2791 1.478 . S
C2792 C2793 1.397 . S
C2792 C2809 1.394 . S
C2793 C2792 1.397 . S
C2793 C2794 1.438 . S
C2793 C2798 1.429 . S
C2794 C2793 1.438 . S
C2794 C2795 1.428 . S
C2794 C2807 1.394 . S
C2795 H2787 0.949 . S
C2795 C2794 1.428 . S
C2795 C2796 1.345 . S
C2796 H2788 0.950 . S
C2796 C2795 1.345 . S
C2796 C2797 1.424 . S
C2797 H2789 0.951 . S
C2797 C2796 1.424 . S
C2797 C2798 1.347 . S
C2798 H2790 0.951 . S
C2798 C2793 1.429 . S
C2798 C2797 1.347 . S
H2799 C2800 0.951 . S
C2800 H2799 0.951 . S
C2800 C2806 1.265 . S
H2801 C2806 0.950 . S
H2802 C2810 0.949 . S
H2803 C2811 0.950 . S
H2804 C2812 0.951 . S
H2805 C2813 0.951 . S
C2806 C2800 1.265 . S
C2806 H2801 0.950 . S
C2806 C2807 1.478 . S
C2807 C2794 1.394 . S
C2807 C2806 1.478 . S
C2807 C2808 1.397 . S
C2808 C2807 1.397 . S
C2808 C2809 1.438 . S
C2808 C2813 1.429 . S
C2809 C2792 1.394 . S
C2809 C2808 1.438 . S
C2809 C2810 1.428 1_556 S
C2810 H2802 0.949 . S
C2810 C2809 1.428 1_554 S
C2810 C2811 1.345 . S
C2811 H2803 0.950 . S
C2811 C2810 1.345 . S
C2811 C2812 1.424 . S
C2812 H2804 0.951 . S
C2812 C2811 1.424 . S
C2812 C2813 1.347 1_554 S
C2813 H2805 0.951 . S
C2813 C2808 1.429 . S
C2813 C2812 1.347 1_556 S
H2814 C2815 0.951 . S
C2815 H2814 0.951 . S
C2815 C2821 1.265 . S
H2816 C2821 0.950 . S
H2817 C2825 0.949 . S
H2818 C2826 0.950 . S
H2819 C2827 0.951 . S
H2820 C2828 0.951 . S
C2821 C2815 1.265 . S
C2821 H2816 0.950 . S
C2821 C2822 1.478 . S
C2822 C2821 1.478 . S
C2822 C2823 1.397 . S
C2822 C2839 1.394 . S
C2823 C2822 1.397 . S
C2823 C2824 1.438 . S
C2823 C2828 1.429 . S
C2824 C2823 1.438 . S
C2824 C2825 1.428 . S
C2824 C2837 1.394 . S
C2825 H2817 0.949 . S
C2825 C2824 1.428 . S
C2825 C2826 1.345 . S
C2826 H2818 0.950 . S
C2826 C2825 1.345 . S
C2826 C2827 1.424 . S
C2827 H2819 0.951 . S
C2827 C2826 1.424 . S
C2827 C2828 1.347 . S
C2828 H2820 0.951 . S
C2828 C2823 1.429 . S
C2828 C2827 1.347 . S
H2829 C2830 0.951 . S
C2830 H2829 0.951 . S
C2830 C2836 1.265 . S
H2831 C2836 0.950 1_554 S
H2832 C2840 0.949 . S
H2833 C2841 0.950 . S
H2834 C2842 0.966 . S
H2835 C2843 0.951 . S
C2836 C2830 1.265 . S
C2836 H2831 0.950 1_556 S
C2836 C2837 1.478 1_556 S
C2837 C2824 1.394 . S
C2837 C2836 1.478 1_554 S
C2837 C2838 1.397 . S
C2838 C2837 1.397 . S
C2838 C2839 1.438 . S
C2838 C2843 1.429 1_554 S
C2839 C2822 1.394 . S
C2839 C2838 1.438 . S
C2839 C2840 1.428 . S
C2840 H2832 0.949 . S
C2840 C2839 1.428 . S
C2840 C2841 1.345 . S
C2841 H2833 0.950 . S
C2841 C2840 1.345 . S
C2841 C2842 1.400 1_554 S
C2842 H2834 0.966 . S
C2842 C2841 1.400 1_556 S
C2842 C2843 1.360 . S
C2843 H2835 0.951 . S
C2843 C2838 1.429 1_556 S
C2843 C2842 1.360 . S
H2844 C2845 0.951 . S
C2845 H2844 0.951 . S
C2845 C2851 1.265 . S
H2846 C2851 0.950 . S
H2847 C2855 0.949 . S
H2848 C2856 0.950 . S
H2849 C2857 0.951 . S
H2850 C2858 0.951 . S
C2851 C2845 1.265 . S
C2851 H2846 0.950 . S
C2851 C2852 1.478 1_554 S
C2852 C2851 1.478 1_556 S
C2852 C2853 1.397 1_556 S
C2852 C2869 1.394 . S
C2853 C2852 1.397 1_554 S
C2853 C2854 1.438 1_554 S
C2853 C2858 1.429 . S
C2854 C2853 1.438 1_556 S
C2854 C2855 1.428 . S
C2854 C2867 1.394 . S
C2855 H2847 0.949 . S
C2855 C2854 1.428 . S
C2855 C2856 1.345 1_556 S
C2856 H2848 0.950 . S
C2856 C2855 1.345 1_554 S
C2856 C2857 1.424 . S
C2857 H2849 0.951 . S
C2857 C2856 1.424 . S
C2857 C2858 1.347 . S
C2858 H2850 0.951 . S
C2858 C2853 1.429 . S
C2858 C2857 1.347 . S
H2859 C2860 0.951 . S
C2860 H2859 0.951 . S
C2860 C2866 1.265 . S
H2861 C2866 0.950 . S
H2862 C2870 0.949 . S
H2863 C2871 0.950 . S
H2864 C2872 0.951 . S
H2865 C2873 0.951 . S
C2866 C2860 1.265 . S
C2866 H2861 0.950 . S
C2866 C2867 1.478 . S
C2867 C2854 1.394 . S
C2867 C2866 1.478 . S
C2867 C2868 1.397 . S
C2868 C2867 1.397 . S
C2868 C2869 1.438 . S
C2868 C2873 1.429 . S
C2869 C2852 1.394 . S
C2869 C2868 1.438 . S
C2869 C2870 1.428 . S
C2870 H2862 0.949 . S
C2870 C2869 1.428 . S
C2870 C2871 1.345 . S
C2871 H2863 0.950 . S
C2871 C2870 1.345 . S
C2871 C2872 1.424 . S
C2872 H2864 0.951 . S
C2872 C2871 1.424 . S
C2872 C2873 1.347 . S
C2873 H2865 0.951 . S
C2873 C2868 1.429 . S
C2873 C2872 1.347 . S
H2874 C2875 0.951 . S
C2875 H2874 0.951 . S
C2875 C2881 1.265 . S
H2876 C2881 0.950 . S
H2877 C2885 0.949 . S
H2878 C2886 0.950 . S
H2879 C2887 0.951 . S
H2880 C2888 0.951 1_554 S
C2881 C2875 1.265 . S
C2881 H2876 0.950 . S
C2881 C2882 1.478 . S
C2882 C2881 1.478 . S
C2882 C2883 1.397 . S
C2882 C2899 1.394 . S
C2883 C2882 1.397 . S
C2883 C2884 1.438 . S
C2883 C2888 1.429 . S
C2884 C2883 1.438 . S
C2884 C2885 1.428 . S
C2884 C2897 1.394 . S
C2885 H2877 0.949 . S
C2885 C2884 1.428 . S
C2885 C2886 1.345 . S
C2886 H2878 0.950 . S
C2886 C2885 1.345 . S
C2886 C2887 1.424 1_556 S
C2887 H2879 0.951 . S
C2887 C2886 1.424 1_554 S
C2887 C2888 1.347 1_554 S
C2888 H2880 0.951 1_556 S
C2888 C2883 1.429 . S
C2888 C2887 1.347 1_556 S
H2889 C2890 0.951 . S
C2890 H2889 0.951 . S
C2890 C2896 1.265 . S
H2891 C2896 0.950 . S
H2892 C2900 0.949 . S
H2893 C2901 0.950 . S
H2894 C2902 0.951 . S
H2895 C2903 0.951 . S
C2896 C2890 1.265 . S
C2896 H2891 0.950 . S
C2896 C2897 1.478 . S
C2897 C2884 1.394 . S
C2897 C2896 1.478 . S
C2897 C2898 1.397 . S
C2898 C2897 1.397 . S
C2898 C2899 1.438 . S
C2898 C2903 1.429 . S
C2899 C2882 1.394 . S
C2899 C2898 1.438 . S
C2899 C2900 1.428 . S
C2900 H2892 0.949 . S
C2900 C2899 1.428 . S
C2900 C2901 1.345 . S
C2901 H2893 0.950 . S
C2901 C2900 1.345 . S
C2901 C2902 1.424 . S
C2902 H2894 0.951 . S
C2902 C2901 1.424 . S
C2902 C2903 1.347 . S
C2903 H2895 0.951 . S
C2903 C2898 1.429 . S
C2903 C2902 1.347 . S
H2904 C2905 0.951 . S
C2905 H2904 0.951 . S
C2905 C2911 1.265 . S
H2906 C2911 0.950 . S
H2907 C2915 0.949 . S
H2908 C2916 0.950 . S
H2909 C2917 0.939 1_554 S
H2910 C2918 0.951 . S
C2911 C2905 1.265 . S
C2911 H2906 0.950 . S
C2911 C2912 1.478 . S
C2912 C2911 1.478 . S
C2912 C2913 1.397 . S
C2912 C2929 1.394 . S
C2913 C2912 1.397 . S
C2913 C2914 1.438 1_554 S
C2913 C2918 1.429 . S
C2914 C2913 1.438 1_556 S
C2914 C2915 1.428 . S
C2914 C2927 1.394 . S
C2915 H2907 0.949 . S
C2915 C2914 1.428 . S
C2915 C2916 1.345 . S
C2916 H2908 0.950 . S
C2916 C2915 1.345 . S
C2916 C2917 1.451 . S
C2917 H2909 0.939 1_556 S
C2917 C2916 1.451 . S
C2917 C2918 1.333 1_556 S
C2918 H2910 0.951 . S
C2918 C2913 1.429 . S
C2918 C2917 1.333 1_554 S
H2919 C2920 0.951 . S
C2920 H2919 0.951 . S
C2920 C2926 1.265 . S
H2921 C2926 0.950 . S
H2922 C2930 0.949 . S
H2923 C2931 0.950 . S
H2924 C2932 0.951 . S
H2925 C2933 0.951 . S
C2926 C2920 1.265 . S
C2926 H2921 0.950 . S
C2926 C2927 1.478 . S
C2927 C2914 1.394 . S
C2927 C2926 1.478 . S
C2927 C2928 1.397 . S
C2928 C2927 1.397 . S
C2928 C2929 1.438 1_556 S
C2928 C2933 1.429 . S
C2929 C2912 1.394 . S
C2929 C2928 1.438 1_554 S
C2929 C2930 1.428 . S
C2930 H2922 0.949 . S
C2930 C2929 1.428 . S
C2930 C2931 1.345 . S
C2931 H2923 0.950 . S
C2931 C2930 1.345 . S
C2931 C2932 1.424 1_554 S
C2932 H2924 0.951 . S
C2932 C2931 1.424 1_556 S
C2932 C2933 1.347 . S
C2933 H2925 0.951 . S
C2933 C2928 1.429 . S
C2933 C2932 1.347 . S
H2934 C2935 0.951 . S
C2935 H2934 0.951 . S
C2935 C2941 1.265 . S
H2936 C2941 0.950 . S
H2937 C2945 0.949 . S
H2938 C2946 0.950 . S
H2939 C2947 0.951 1_545 S
H2940 C2948 0.951 . S
C2941 C2935 1.265 . S
C2941 H2936 0.950 . S
C2941 C2942 1.478 . S
C2942 C2941 1.478 . S
C2942 C2943 1.397 . S
C2942 C2959 1.394 . S
C2943 C2942 1.397 . S
C2943 C2944 1.438 . S
C2943 C2948 1.429 . S
C2944 C2943 1.438 . S
C2944 C2945 1.428 . S
C2944 C2957 1.394 . S
C2945 H2937 0.949 . S
C2945 C2944 1.428 . S
C2945 C2946 1.345 . S
C2946 H2938 0.950 . S
C2946 C2945 1.345 . S
C2946 C2947 1.424 . S
C2947 H2939 0.951 1_565 S
C2947 C2946 1.424 . S
C2947 C2948 1.347 . S
C2948 H2940 0.951 . S
C2948 C2943 1.429 . S
C2948 C2947 1.347 . S
H2949 C2950 0.951 . S
C2950 H2949 0.951 . S
C2950 C2956 1.265 . S
H2951 C2956 0.950 . S
H2952 C2960 0.949 . S
H2953 C2961 0.950 . S
H2954 C2962 0.951 . S
H2955 C2963 0.951 . S
C2956 C2950 1.265 . S
C2956 H2951 0.950 . S
C2956 C2957 1.478 . S
C2957 C2944 1.394 . S
C2957 C2956 1.478 . S
C2957 C2958 1.397 . S
C2958 C2957 1.397 . S
C2958 C2959 1.438 . S
C2958 C2963 1.429 . S
C2959 C2942 1.394 . S
C2959 C2958 1.438 . S
C2959 C2960 1.428 . S
C2960 H2952 0.949 . S
C2960 C2959 1.428 . S
C2960 C2961 1.345 . S
C2961 H2953 0.950 . S
C2961 C2960 1.345 . S
C2961 C2962 1.424 . S
C2962 H2954 0.951 . S
C2962 C2961 1.424 . S
C2962 C2963 1.347 . S
C2963 H2955 0.951 . S
C2963 C2958 1.429 . S
C2963 C2962 1.347 . S
H2964 C2965 0.951 . S
C2965 H2964 0.951 . S
C2965 C2971 1.265 . S
H2966 C2971 0.950 . S
H2967 C2975 0.949 . S
H2968 C2976 0.950 . S
H2969 C2977 0.951 . S
H2970 C2978 0.951 . S
C2971 C2965 1.265 . S
C2971 H2966 0.950 . S
C2971 C2972 1.478 . S
C2972 C2971 1.478 . S
C2972 C2973 1.397 . S
C2972 C2989 1.394 . S
C2973 C2972 1.397 . S
C2973 C2974 1.438 . S
C2973 C2978 1.429 . S
C2974 C2973 1.438 . S
C2974 C2975 1.428 . S
C2974 C2987 1.394 . S
C2975 H2967 0.949 . S
C2975 C2974 1.428 . S
C2975 C2976 1.345 . S
C2976 H2968 0.950 . S
C2976 C2975 1.345 . S
C2976 C2977 1.424 . S
C2977 H2969 0.951 . S
C2977 C2976 1.424 . S
C2977 C2978 1.347 . S
C2978 H2970 0.951 . S
C2978 C2973 1.429 . S
C2978 C2977 1.347 . S
H2979 C2980 0.951 . S
C2980 H2979 0.951 . S
C2980 C2986 1.265 . S
H2981 C2986 0.950 . S
H2982 C2990 0.949 . S
H2983 C2991 0.950 . S
H2984 C2992 0.951 . S
H2985 C2993 0.951 . S
C2986 C2980 1.265 . S
C2986 H2981 0.950 . S
C2986 C2987 1.478 . S
C2987 C2974 1.394 . S
C2987 C2986 1.478 . S
C2987 C2988 1.397 . S
C2988 C2987 1.397 . S
C2988 C2989 1.438 . S
C2988 C2993 1.429 . S
C2989 C2972 1.394 . S
C2989 C2988 1.438 . S
C2989 C2990 1.428 . S
C2990 H2982 0.949 . S
C2990 C2989 1.428 . S
C2990 C2991 1.345 . S
C2991 H2983 0.950 . S
C2991 C2990 1.345 . S
C2991 C2992 1.424 . S
C2992 H2984 0.951 . S
C2992 C2991 1.424 . S
C2992 C2993 1.347 . S
C2993 H2985 0.951 . S
C2993 C2988 1.429 . S
C2993 C2992 1.347 . S
H2994 C2995 0.951 . S
C2995 H2994 0.951 . S
C2995 C3001 1.265 . S
H2996 C3001 0.950 . S
H2997 C3005 0.949 . S
H2998 C3006 0.950 . S
H2999 C3007 0.951 . S
H3000 C3008 0.951 . S
C3001 C2995 1.265 . S
C3001 H2996 0.950 . S
C3001 C3002 1.478 . S
C3002 C3001 1.478 . S
C3002 C3003 1.397 . S
C3002 C3019 1.394 . S
C3003 C3002 1.397 . S
C3003 C3004 1.438 . S
C3003 C3008 1.429 . S
C3004 C3003 1.438 . S
C3004 C3005 1.428 . S
C3004 C3017 1.394 . S
C3005 H2997 0.949 . S
C3005 C3004 1.428 . S
C3005 C3006 1.345 . S
C3006 H2998 0.950 . S
C3006 C3005 1.345 . S
C3006 C3007 1.424 . S
C3007 H2999 0.951 . S
C3007 C3006 1.424 . S
C3007 C3008 1.347 . S
C3008 H3000 0.951 . S
C3008 C3003 1.429 . S
C3008 C3007 1.347 . S
H3009 C3010 0.951 . S
C3010 H3009 0.951 . S
C3010 C3016 1.265 . S
H3011 C3016 0.950 . S
H3012 C3020 0.949 . S
H3013 C3021 0.950 . S
H3014 C3022 0.951 . S
H3015 C3023 0.951 . S
C3016 C3010 1.265 . S
C3016 H3011 0.950 . S
C3016 C3017 1.478 . S
C3017 C3004 1.394 . S
C3017 C3016 1.478 . S
C3017 C3018 1.397 . S
C3018 C3017 1.397 . S
C3018 C3019 1.438 . S
C3018 C3023 1.429 . S
C3019 C3002 1.394 . S
C3019 C3018 1.438 . S
C3019 C3020 1.428 . S
C3020 H3012 0.949 . S
C3020 C3019 1.428 . S
C3020 C3021 1.345 . S
C3021 H3013 0.950 . S
C3021 C3020 1.345 . S
C3021 C3022 1.424 . S
C3022 H3014 0.951 . S
C3022 C3021 1.424 . S
C3022 C3023 1.347 . S
C3023 H3015 0.951 . S
C3023 C3018 1.429 . S
C3023 C3022 1.347 . S
H3024 C3025 0.951 . S
C3025 H3024 0.951 . S
C3025 C3031 1.265 . S
H3026 C3031 0.950 . S
H3027 C3035 0.949 . S
H3028 C3036 0.950 . S
H3029 C3037 0.951 . S
H3030 C3038 0.951 . S
C3031 C3025 1.265 . S
C3031 H3026 0.950 . S
C3031 C3032 1.478 . S
C3032 C3031 1.478 . S
C3032 C3033 1.397 . S
C3032 C3049 1.394 . S
C3033 C3032 1.397 . S
C3033 C3034 1.438 . S
C3033 C3038 1.429 . S
C3034 C3033 1.438 . S
C3034 C3035 1.428 . S
C3034 C3047 1.394 . S
C3035 H3027 0.949 . S
C3035 C3034 1.428 . S
C3035 C3036 1.345 . S
C3036 H3028 0.950 . S
C3036 C3035 1.345 . S
C3036 C3037 1.424 . S
C3037 H3029 0.951 . S
C3037 C3036 1.424 . S
C3037 C3038 1.347 . S
C3038 H3030 0.951 . S
C3038 C3033 1.429 . S
C3038 C3037 1.347 . S
H3039 C3040 0.951 . S
C3040 H3039 0.951 . S
C3040 C3046 1.265 . S
H3041 C3046 0.950 . S
H3042 C3050 0.949 . S
H3043 C3051 0.950 . S
H3044 C3052 0.951 . S
H3045 C3053 0.951 . S
C3046 C3040 1.265 . S
C3046 H3041 0.950 . S
C3046 C3047 1.478 . S
C3047 C3034 1.394 . S
C3047 C3046 1.478 . S
C3047 C3048 1.397 . S
C3048 C3047 1.397 . S
C3048 C3049 1.438 . S
C3048 C3053 1.429 . S
C3049 C3032 1.394 . S
C3049 C3048 1.438 . S
C3049 C3050 1.428 . S
C3050 H3042 0.949 . S
C3050 C3049 1.428 . S
C3050 C3051 1.345 . S
C3051 H3043 0.950 . S
C3051 C3050 1.345 . S
C3051 C3052 1.424 . S
C3052 H3044 0.951 . S
C3052 C3051 1.424 . S
C3052 C3053 1.347 . S
C3053 H3045 0.951 . S
C3053 C3048 1.429 . S
C3053 C3052 1.347 . S
H3054 C3055 0.951 . S
C3055 H3054 0.951 . S
C3055 C3061 1.265 . S
H3056 C3061 0.950 . S
H3057 C3065 0.949 . S
H3058 C3066 0.950 . S
H3059 C3067 0.951 . S
H3060 C3068 0.951 . S
C3061 C3055 1.265 . S
C3061 H3056 0.950 . S
C3061 C3062 1.478 . S
C3062 C3061 1.478 . S
C3062 C3063 1.397 . S
C3062 C3079 1.394 . S
C3063 C3062 1.397 . S
C3063 C3064 1.438 . S
C3063 C3068 1.429 . S
C3064 C3063 1.438 . S
C3064 C3065 1.428 . S
C3064 C3077 1.394 . S
C3065 H3057 0.949 . S
C3065 C3064 1.428 . S
C3065 C3066 1.345 . S
C3066 H3058 0.950 . S
C3066 C3065 1.345 . S
C3066 C3067 1.424 . S
C3067 H3059 0.951 . S
C3067 C3066 1.424 . S
C3067 C3068 1.347 . S
C3068 H3060 0.951 . S
C3068 C3063 1.429 . S
C3068 C3067 1.347 . S
H3069 C3070 0.951 . S
C3070 H3069 0.951 . S
C3070 C3076 1.265 . S
H3071 C3076 0.950 . S
H3072 C3080 0.949 . S
H3073 C3081 0.950 . S
H3074 C3082 0.951 . S
H3075 C3083 0.951 . S
C3076 C3070 1.265 . S
C3076 H3071 0.950 . S
C3076 C3077 1.478 . S
C3077 C3064 1.394 . S
C3077 C3076 1.478 . S
C3077 C3078 1.397 . S
C3078 C3077 1.397 . S
C3078 C3079 1.438 . S
C3078 C3083 1.429 . S
C3079 C3062 1.394 . S
C3079 C3078 1.438 . S
C3079 C3080 1.428 . S
C3080 H3072 0.949 . S
C3080 C3079 1.428 . S
C3080 C3081 1.345 . S
C3081 H3073 0.950 . S
C3081 C3080 1.345 . S
C3081 C3082 1.424 . S
C3082 H3074 0.951 . S
C3082 C3081 1.424 . S
C3082 C3083 1.347 . S
C3083 H3075 0.951 . S
C3083 C3078 1.429 . S
C3083 C3082 1.347 . S
H3084 C3085 0.951 . S
C3085 H3084 0.951 . S
C3085 C3091 1.265 . S
H3086 C3091 0.950 . S
H3087 C3095 0.949 . S
H3088 C3096 0.950 . S
H3089 C3097 0.951 . S
H3090 C3098 0.951 . S
C3091 C3085 1.265 . S
C3091 H3086 0.950 . S
C3091 C3092 1.478 . S
C3092 C3091 1.478 . S
C3092 C3093 1.397 . S
C3092 C3109 1.394 . S
C3093 C3092 1.397 . S
C3093 C3094 1.438 . S
C3093 C3098 1.429 . S
C3094 C3093 1.438 . S
C3094 C3095 1.428 . S
C3094 C3107 1.394 . S
C3095 H3087 0.949 . S
C3095 C3094 1.428 . S
C3095 C3096 1.345 . S
C3096 H3088 0.950 . S
C3096 C3095 1.345 . S
C3096 C3097 1.424 . S
C3097 H3089 0.951 . S
C3097 C3096 1.424 . S
C3097 C3098 1.347 . S
C3098 H3090 0.951 . S
C3098 C3093 1.429 . S
C3098 C3097 1.347 . S
H3099 C3100 0.951 . S
C3100 H3099 0.951 . S
C3100 C3106 1.265 . S
H3101 C3106 0.950 . S
H3102 C3110 0.949 . S
H3103 C3111 0.950 . S
H3104 C3112 0.951 . S
H3105 C3113 0.951 . S
C3106 C3100 1.265 . S
C3106 H3101 0.950 . S
C3106 C3107 1.478 . S
C3107 C3094 1.394 . S
C3107 C3106 1.478 . S
C3107 C3108 1.397 . S
C3108 C3107 1.397 . S
C3108 C3109 1.438 . S
C3108 C3113 1.429 . S
C3109 C3092 1.394 . S
C3109 C3108 1.438 . S
C3109 C3110 1.428 . S
C3110 H3102 0.949 . S
C3110 C3109 1.428 . S
C3110 C3111 1.345 . S
C3111 H3103 0.950 . S
C3111 C3110 1.345 . S
C3111 C3112 1.424 . S
C3112 H3104 0.951 . S
C3112 C3111 1.424 . S
C3112 C3113 1.347 . S
C3113 H3105 0.951 . S
C3113 C3108 1.429 . S
C3113 C3112 1.347 . S
H3114 C3115 0.951 . S
C3115 H3114 0.951 . S
C3115 C3121 1.265 . S
H3116 C3121 0.950 . S
H3117 C3125 0.949 . S
H3118 C3126 0.913 1_655 S
H3119 C3127 0.935 1_655 S
H3120 C3128 0.951 . S
C3121 C3115 1.265 . S
C3121 H3116 0.950 . S
C3121 C3122 1.478 . S
C3122 C3121 1.478 . S
C3122 C3123 1.397 . S
C3122 C3139 1.394 . S
C3123 C3122 1.397 . S
C3123 C3124 1.438 . S
C3123 C3128 1.429 . S
C3124 C3123 1.438 . S
C3124 C3125 1.428 . S
C3124 C3137 1.394 . S
C3125 H3117 0.949 . S
C3125 C3124 1.428 . S
C3125 C3126 1.363 . S
C3126 H3118 0.913 1_455 S
C3126 C3125 1.363 . S
C3126 C3127 1.426 . S
C3127 H3119 0.935 1_455 S
C3127 C3126 1.426 . S
C3127 C3128 1.380 . S
C3128 H3120 0.951 . S
C3128 C3123 1.429 . S
C3128 C3127 1.380 . S
H3129 C3130 0.951 . S
C3130 H3129 0.951 . S
C3130 C3136 1.265 . S
H3131 C3136 0.950 . S
H3132 C3140 0.949 . S
H3133 C3141 0.950 . S
H3134 C3142 0.951 . S
H3135 C3143 0.951 . S
C3136 C3130 1.265 . S
C3136 H3131 0.950 . S
C3136 C3137 1.478 . S
C3137 C3124 1.394 . S
C3137 C3136 1.478 . S
C3137 C3138 1.397 . S
C3138 C3137 1.397 . S
C3138 C3139 1.438 . S
C3138 C3143 1.429 . S
C3139 C3122 1.394 . S
C3139 C3138 1.438 . S
C3139 C3140 1.428 . S
C3140 H3132 0.949 . S
C3140 C3139 1.428 . S
C3140 C3141 1.345 . S
C3141 H3133 0.950 . S
C3141 C3140 1.345 . S
C3141 C3142 1.424 . S
C3142 H3134 0.951 . S
C3142 C3141 1.424 . S
C3142 C3143 1.347 . S
C3143 H3135 0.951 . S
C3143 C3138 1.429 . S
C3143 C3142 1.347 . S
H3144 C3145 0.951 . S
C3145 H3144 0.951 . S
C3145 C3151 1.265 . S
H3146 C3151 0.950 . S
H3147 C3155 0.949 . S
H3148 C3156 0.950 . S
H3149 C3157 0.951 . S
H3150 C3158 0.951 . S
C3151 C3145 1.265 . S
C3151 H3146 0.950 . S
C3151 C3152 1.478 . S
C3152 C3151 1.478 . S
C3152 C3153 1.397 . S
C3152 C3169 1.394 . S
C3153 C3152 1.397 . S
C3153 C3154 1.438 . S
C3153 C3158 1.429 . S
C3154 C3153 1.438 . S
C3154 C3155 1.428 . S
C3154 C3167 1.394 . S
C3155 H3147 0.949 . S
C3155 C3154 1.428 . S
C3155 C3156 1.345 . S
C3156 H3148 0.950 . S
C3156 C3155 1.345 . S
C3156 C3157 1.424 . S
C3157 H3149 0.951 . S
C3157 C3156 1.424 . S
C3157 C3158 1.347 . S
C3158 H3150 0.951 . S
C3158 C3153 1.429 . S
C3158 C3157 1.347 . S
H3159 C3160 0.951 . S
C3160 H3159 0.951 . S
C3160 C3166 1.265 . S
H3161 C3166 0.950 . S
H3162 C3170 0.949 . S
H3163 C3171 0.950 . S
H3164 C3172 0.951 . S
H3165 C3173 0.951 . S
C3166 C3160 1.265 . S
C3166 H3161 0.950 . S
C3166 C3167 1.478 . S
C3167 C3154 1.394 . S
C3167 C3166 1.478 . S
C3167 C3168 1.397 . S
C3168 C3167 1.397 . S
C3168 C3169 1.438 . S
C3168 C3173 1.429 . S
C3169 C3152 1.394 . S
C3169 C3168 1.438 . S
C3169 C3170 1.428 . S
C3170 H3162 0.949 . S
C3170 C3169 1.428 . S
C3170 C3171 1.345 . S
C3171 H3163 0.950 . S
C3171 C3170 1.345 . S
C3171 C3172 1.424 . S
C3172 H3164 0.951 . S
C3172 C3171 1.424 . S
C3172 C3173 1.347 . S
C3173 H3165 0.951 . S
C3173 C3168 1.429 . S
C3173 C3172 1.347 . S
H3174 C3175 0.951 . S
C3175 H3174 0.951 . S
C3175 C3181 1.265 . S
H3176 C3181 0.950 . S
H3177 C3185 0.949 . S
H3178 C3186 0.950 . S
H3179 C3187 0.951 . S
H3180 C3188 0.943 . S
C3181 C3175 1.265 . S
C3181 H3176 0.950 . S
C3181 C3182 1.478 . S
C3182 C3181 1.478 . S
C3182 C3183 1.397 . S
C3182 C3199 1.394 . S
C3183 C3182 1.397 . S
C3183 C3184 1.438 . S
C3183 C3188 1.429 1_565 S
C3184 C3183 1.438 . S
C3184 C3185 1.428 1_565 S
C3184 C3197 1.394 . S
C3185 H3177 0.949 . S
C3185 C3184 1.428 1_545 S
C3185 C3186 1.345 . S
C3186 H3178 0.950 . S
C3186 C3185 1.345 . S
C3186 C3187 1.424 . S
C3187 H3179 0.951 . S
C3187 C3186 1.424 . S
C3187 C3188 1.347 . S
C3188 H3180 0.943 . S
C3188 C3183 1.429 1_545 S
C3188 C3187 1.347 . S
H3189 C3190 0.951 . S
C3190 H3189 0.951 . S
C3190 C3196 1.265 . S
H3191 C3196 0.950 . S
H3192 C3200 0.949 . S
H3193 C3201 0.950 . S
H3194 C3202 0.951 . S
H3195 C3203 0.951 . S
C3196 C3190 1.265 . S
C3196 H3191 0.950 . S
C3196 C3197 1.478 . S
C3197 C3184 1.394 . S
C3197 C3196 1.478 . S
C3197 C3198 1.397 . S
C3198 C3197 1.397 . S
C3198 C3199 1.438 . S
C3198 C3203 1.429 . S
C3199 C3182 1.394 . S
C3199 C3198 1.438 . S
C3199 C3200 1.428 . S
C3200 H3192 0.949 . S
C3200 C3199 1.428 . S
C3200 C3201 1.345 . S
C3201 H3193 0.950 . S
C3201 C3200 1.345 . S
C3201 C3202 1.424 . S
C3202 H3194 0.951 . S
C3202 C3201 1.424 . S
C3202 C3203 1.347 . S
C3203 H3195 0.951 . S
C3203 C3198 1.429 . S
C3203 C3202 1.347 . S
H3204 C3205 0.951 . S
C3205 H3204 0.951 . S
C3205 C3211 1.265 . S
H3206 C3211 0.950 . S
H3207 C3215 0.949 . S
H3208 C3216 0.950 . S
H3209 C3217 0.951 . S
H3210 C3218 0.951 . S
C3211 C3205 1.265 . S
C3211 H3206 0.950 . S
C3211 C3212 1.478 . S
C3212 C3211 1.478 . S
C3212 C3213 1.397 . S
C3212 C3229 1.394 . S
C3213 C3212 1.397 . S
C3213 C3214 1.438 . S
C3213 C3218 1.429 . S
C3214 C3213 1.438 . S
C3214 C3215 1.428 . S
C3214 C3227 1.394 . S
C3215 H3207 0.949 . S
C3215 C3214 1.428 . S
C3215 C3216 1.345 . S
C3216 H3208 0.950 . S
C3216 C3215 1.345 . S
C3216 C3217 1.424 . S
C3217 H3209 0.951 . S
C3217 C3216 1.424 . S
C3217 C3218 1.347 . S
C3218 H3210 0.951 . S
C3218 C3213 1.429 . S
C3218 C3217 1.347 . S
H3219 C3220 0.939 . S
C3220 H3219 0.939 . S
C3220 C3226 1.237 1_545 S
H3221 C3226 0.950 . S
H3222 C3230 0.949 . S
H3223 C3231 0.950 . S
H3224 C3232 0.951 . S
H3225 C3233 0.951 . S
C3226 C3220 1.237 1_565 S
C3226 H3221 0.950 . S
C3226 C3227 1.478 . S
C3227 C3214 1.394 . S
C3227 C3226 1.478 . S
C3227 C3228 1.397 . S
C3228 C3227 1.397 . S
C3228 C3229 1.438 . S
C3228 C3233 1.429 1_565 S
C3229 C3212 1.394 . S
C3229 C3228 1.438 . S
C3229 C3230 1.428 1_565 S
C3230 H3222 0.949 . S
C3230 C3229 1.428 1_545 S
C3230 C3231 1.345 . S
C3231 H3223 0.950 . S
C3231 C3230 1.345 . S
C3231 C3232 1.424 . S
C3232 H3224 0.951 . S
C3232 C3231 1.424 . S
C3232 C3233 1.347 . S
C3233 H3225 0.951 . S
C3233 C3228 1.429 1_545 S
C3233 C3232 1.347 . S
H3234 C3235 0.951 . S
C3235 H3234 0.951 . S
C3235 C3241 1.265 . S
H3236 C3241 0.950 . S
H3237 C3245 0.949 . S
H3238 C3246 0.950 . S
H3239 C3247 0.951 . S
H3240 C3248 0.951 . S
C3241 C3235 1.265 . S
C3241 H3236 0.950 . S
C3241 C3242 1.478 . S
C3242 C3241 1.478 . S
C3242 C3243 1.397 . S
C3242 C3259 1.394 . S
C3243 C3242 1.397 . S
C3243 C3244 1.438 . S
C3243 C3248 1.429 . S
C3244 C3243 1.438 . S
C3244 C3245 1.428 1_455 S
C3244 C3257 1.394 . S
C3245 H3237 0.949 . S
C3245 C3244 1.428 1_655 S
C3245 C3246 1.345 . S
C3246 H3238 0.950 . S
C3246 C3245 1.345 . S
C3246 C3247 1.424 . S
C3247 H3239 0.951 . S
C3247 C3246 1.424 . S
C3247 C3248 1.347 1_655 S
C3248 H3240 0.951 . S
C3248 C3243 1.429 . S
C3248 C3247 1.347 1_455 S
H3249 C3250 0.953 1_455 S
C3250 H3249 0.953 1_655 S
C3250 C3256 1.237 . S
H3251 C3256 0.980 . S
H3252 C3260 0.949 . S
H3253 C3261 0.950 . S
H3254 C3262 0.951 . S
H3255 C3263 0.951 . S
C3256 C3250 1.237 . S
C3256 H3251 0.980 . S
C3256 C3257 1.479 1_655 S
C3257 C3244 1.394 . S
C3257 C3256 1.479 1_455 S
C3257 C3258 1.397 . S
C3258 C3257 1.397 . S
C3258 C3259 1.438 . S
C3258 C3263 1.429 . S
C3259 C3242 1.394 . S
C3259 C3258 1.438 . S
C3259 C3260 1.428 . S
C3260 H3252 0.949 . S
C3260 C3259 1.428 . S
C3260 C3261 1.345 . S
C3261 H3253 0.950 . S
C3261 C3260 1.345 . S
C3261 C3262 1.424 . S
C3262 H3254 0.951 . S
C3262 C3261 1.424 . S
C3262 C3263 1.347 . S
C3263 H3255 0.951 . S
C3263 C3258 1.429 . S
C3263 C3262 1.347 . S
H3264 C3265 0.951 . S
C3265 H3264 0.951 . S
C3265 C3271 1.265 . S
H3266 C3271 0.950 . S
H3267 C3275 0.949 . S
H3268 C3276 0.950 . S
H3269 C3277 0.951 . S
H3270 C3278 0.951 . S
C3271 C3265 1.265 . S
C3271 H3266 0.950 . S
C3271 C3272 1.478 . S
C3272 C3271 1.478 . S
C3272 C3273 1.397 . S
C3272 C3289 1.394 . S
C3273 C3272 1.397 . S
C3273 C3274 1.438 . S
C3273 C3278 1.429 . S
C3274 C3273 1.438 . S
C3274 C3275 1.428 . S
C3274 C3287 1.394 . S
C3275 H3267 0.949 . S
C3275 C3274 1.428 . S
C3275 C3276 1.345 . S
C3276 H3268 0.950 . S
C3276 C3275 1.345 . S
C3276 C3277 1.424 . S
C3277 H3269 0.951 . S
C3277 C3276 1.424 . S
C3277 C3278 1.347 . S
C3278 H3270 0.951 . S
C3278 C3273 1.429 . S
C3278 C3277 1.347 . S
H3279 C3280 0.951 . S
C3280 H3279 0.951 . S
C3280 C3286 1.265 . S
H3281 C3286 0.950 . S
H3282 C3290 0.949 . S
H3283 C3291 0.950 . S
H3284 C3292 0.951 . S
H3285 C3293 0.951 . S
C3286 C3280 1.265 . S
C3286 H3281 0.950 . S
C3286 C3287 1.478 . S
C3287 C3274 1.394 . S
C3287 C3286 1.478 . S
C3287 C3288 1.397 . S
C3288 C3287 1.397 . S
C3288 C3289 1.438 . S
C3288 C3293 1.429 . S
C3289 C3272 1.394 . S
C3289 C3288 1.438 . S
C3289 C3290 1.428 . S
C3290 H3282 0.949 . S
C3290 C3289 1.428 . S
C3290 C3291 1.345 . S
C3291 H3283 0.950 . S
C3291 C3290 1.345 . S
C3291 C3292 1.424 . S
C3292 H3284 0.951 . S
C3292 C3291 1.424 . S
C3292 C3293 1.347 . S
C3293 H3285 0.951 . S
C3293 C3288 1.429 . S
C3293 C3292 1.347 . S
H3294 C3295 0.951 . S
C3295 H3294 0.951 . S
C3295 C3301 1.265 . S
H3296 C3301 0.950 . S
H3297 C3305 0.949 . S
H3298 C3306 0.950 . S
H3299 C3307 0.951 . S
H3300 C3308 0.951 . S
C3301 C3295 1.265 . S
C3301 H3296 0.950 . S
C3301 C3302 1.478 . S
C3302 C3301 1.478 . S
C3302 C3303 1.397 . S
C3302 C3319 1.394 . S
C3303 C3302 1.397 . S
C3303 C3304 1.438 . S
C3303 C3308 1.429 . S
C3304 C3303 1.438 . S
C3304 C3305 1.428 . S
C3304 C3317 1.394 . S
C3305 H3297 0.949 . S
C3305 C3304 1.428 . S
C3305 C3306 1.345 . S
C3306 H3298 0.950 . S
C3306 C3305 1.345 . S
C3306 C3307 1.424 . S
C3307 H3299 0.951 . S
C3307 C3306 1.424 . S
C3307 C3308 1.347 . S
C3308 H3300 0.951 . S
C3308 C3303 1.429 . S
C3308 C3307 1.347 . S
H3309 C3310 0.951 . S
C3310 H3309 0.951 . S
C3310 C3316 1.265 . S
H3311 C3316 0.950 . S
H3312 C3320 0.949 . S
H3313 C3321 0.950 . S
H3314 C3322 0.951 . S
H3315 C3323 0.951 . S
C3316 C3310 1.265 . S
C3316 H3311 0.950 . S
C3316 C3317 1.478 . S
C3317 C3304 1.394 . S
C3317 C3316 1.478 . S
C3317 C3318 1.397 . S
C3318 C3317 1.397 . S
C3318 C3319 1.438 . S
C3318 C3323 1.429 . S
C3319 C3302 1.394 . S
C3319 C3318 1.438 . S
C3319 C3320 1.428 . S
C3320 H3312 0.949 . S
C3320 C3319 1.428 . S
C3320 C3321 1.345 . S
C3321 H3313 0.950 . S
C3321 C3320 1.345 . S
C3321 C3322 1.424 . S
C3322 H3314 0.951 . S
C3322 C3321 1.424 . S
C3322 C3323 1.347 . S
C3323 H3315 0.951 . S
C3323 C3318 1.429 . S
C3323 C3322 1.347 . S
H3324 C3325 0.951 . S
C3325 H3324 0.951 . S
C3325 C3331 1.265 . S
H3326 C3331 0.950 . S
H3327 C3335 0.949 . S
H3328 C3336 0.950 . S
H3329 C3337 0.951 . S
H3330 C3338 0.951 . S
C3331 C3325 1.265 . S
C3331 H3326 0.950 . S
C3331 C3332 1.478 . S
C3332 C3331 1.478 . S
C3332 C3333 1.397 . S
C3332 C3349 1.394 . S
C3333 C3332 1.397 . S
C3333 C3334 1.438 . S
C3333 C3338 1.429 . S
C3334 C3333 1.438 . S
C3334 C3335 1.428 . S
C3334 C3347 1.394 . S
C3335 H3327 0.949 . S
C3335 C3334 1.428 . S
C3335 C3336 1.345 . S
C3336 H3328 0.950 . S
C3336 C3335 1.345 . S
C3336 C3337 1.424 . S
C3337 H3329 0.951 . S
C3337 C3336 1.424 . S
C3337 C3338 1.347 . S
C3338 H3330 0.951 . S
C3338 C3333 1.429 . S
C3338 C3337 1.347 . S
H3339 C3340 0.951 . S
C3340 H3339 0.951 . S
C3340 C3346 1.265 . S
H3341 C3346 0.950 . S
H3342 C3350 0.949 . S
H3343 C3351 0.950 . S
H3344 C3352 0.951 . S
H3345 C3353 0.951 . S
C3346 C3340 1.265 . S
C3346 H3341 0.950 . S
C3346 C3347 1.478 . S
C3347 C3334 1.394 . S
C3347 C3346 1.478 . S
C3347 C3348 1.397 . S
C3348 C3347 1.397 . S
C3348 C3349 1.438 . S
C3348 C3353 1.429 . S
C3349 C3332 1.394 . S
C3349 C3348 1.438 . S
C3349 C3350 1.428 . S
C3350 H3342 0.949 . S
C3350 C3349 1.428 . S
C3350 C3351 1.345 . S
C3351 H3343 0.950 . S
C3351 C3350 1.345 . S
C3351 C3352 1.424 . S
C3352 H3344 0.951 . S
C3352 C3351 1.424 . S
C3352 C3353 1.347 . S
C3353 H3345 0.951 . S
C3353 C3348 1.429 . S
C3353 C3352 1.347 . S
H3354 C3355 0.951 . S
C3355 H3354 0.951 . S
C3355 C3361 1.265 . S
H3356 C3361 0.950 . S
H3357 C3365 0.949 . S
H3358 C3366 0.950 . S
H3359 C3367 0.951 . S
H3360 C3368 0.951 . S
C3361 C3355 1.265 . S
C3361 H3356 0.950 . S
C3361 C3362 1.478 . S
C3362 C3361 1.478 . S
C3362 C3363 1.397 . S
C3362 C3379 1.394 . S
C3363 C3362 1.397 . S
C3363 C3364 1.438 . S
C3363 C3368 1.429 . S
C3364 C3363 1.438 . S
C3364 C3365 1.428 . S
C3364 C3377 1.394 . S
C3365 H3357 0.949 . S
C3365 C3364 1.428 . S
C3365 C3366 1.345 . S
C3366 H3358 0.950 . S
C3366 C3365 1.345 . S
C3366 C3367 1.424 . S
C3367 H3359 0.951 . S
C3367 C3366 1.424 . S
C3367 C3368 1.347 . S
C3368 H3360 0.951 . S
C3368 C3363 1.429 . S
C3368 C3367 1.347 . S
H3369 C3370 0.951 . S
C3370 H3369 0.951 . S
C3370 C3376 1.265 . S
H3371 C3376 0.950 . S
H3372 C3380 0.949 . S
H3373 C3381 0.950 . S
H3374 C3382 0.951 . S
H3375 C3383 0.951 . S
C3376 C3370 1.265 . S
C3376 H3371 0.950 . S
C3376 C3377 1.478 . S
C3377 C3364 1.394 . S
C3377 C3376 1.478 . S
C3377 C3378 1.397 . S
C3378 C3377 1.397 . S
C3378 C3379 1.438 . S
C3378 C3383 1.429 . S
C3379 C3362 1.394 . S
C3379 C3378 1.438 . S
C3379 C3380 1.428 . S
C3380 H3372 0.949 . S
C3380 C3379 1.428 . S
C3380 C3381 1.345 . S
C3381 H3373 0.950 . S
C3381 C3380 1.345 . S
C3381 C3382 1.424 . S
C3382 H3374 0.951 . S
C3382 C3381 1.424 . S
C3382 C3383 1.347 . S
C3383 H3375 0.951 . S
C3383 C3378 1.429 . S
C3383 C3382 1.347 . S
H3384 C3385 0.951 . S
C3385 H3384 0.951 . S
C3385 C3391 1.265 . S
H3386 C3391 0.950 . S
H3387 C3395 0.949 . S
H3388 C3396 0.950 . S
H3389 C3397 0.951 . S
H3390 C3398 0.951 . S
C3391 C3385 1.265 . S
C3391 H3386 0.950 . S
C3391 C3392 1.478 . S
C3392 C3391 1.478 . S
C3392 C3393 1.397 . S
C3392 C3409 1.394 . S
C3393 C3392 1.397 . S
C3393 C3394 1.438 . S
C3393 C3398 1.429 1_545 S
C3394 C3393 1.438 . S
C3394 C3395 1.428 1_545 S
C3394 C3407 1.394 . S
C3395 H3387 0.949 . S
C3395 C3394 1.428 1_565 S
C3395 C3396 1.345 . S
C3396 H3388 0.950 . S
C3396 C3395 1.345 . S
C3396 C3397 1.424 . S
C3397 H3389 0.951 . S
C3397 C3396 1.424 . S
C3397 C3398 1.347 . S
C3398 H3390 0.951 . S
C3398 C3393 1.429 1_565 S
C3398 C3397 1.347 . S
H3399 C3400 0.951 . S
C3400 H3399 0.951 . S
C3400 C3406 1.265 . S
H3401 C3406 0.950 . S
H3402 C3410 0.949 . S
H3403 C3411 0.950 . S
H3404 C3412 0.951 . S
H3405 C3413 0.951 . S
C3406 C3400 1.265 . S
C3406 H3401 0.950 . S
C3406 C3407 1.478 . S
C3407 C3394 1.394 . S
C3407 C3406 1.478 . S
C3407 C3408 1.397 . S
C3408 C3407 1.397 . S
C3408 C3409 1.438 . S
C3408 C3413 1.429 . S
C3409 C3392 1.394 . S
C3409 C3408 1.438 . S
C3409 C3410 1.428 . S
C3410 H3402 0.949 . S
C3410 C3409 1.428 . S
C3410 C3411 1.345 . S
C3411 H3403 0.950 . S
C3411 C3410 1.345 . S
C3411 C3412 1.424 . S
C3412 H3404 0.951 . S
C3412 C3411 1.424 . S
C3412 C3413 1.347 . S
C3413 H3405 0.951 . S
C3413 C3408 1.429 . S
C3413 C3412 1.347 . S
H3414 C3415 0.951 . S
C3415 H3414 0.951 . S
C3415 C3421 1.265 . S
H3416 C3421 0.950 . S
H3417 C3425 0.935 . S
H3418 C3426 0.950 . S
H3419 C3427 0.951 . S
H3420 C3428 0.952 . S
C3421 C3415 1.265 . S
C3421 H3416 0.950 . S
C3421 C3422 1.478 . S
C3422 C3421 1.478 . S
C3422 C3423 1.397 . S
C3422 C3439 1.394 . S
C3423 C3422 1.397 . S
C3423 C3424 1.438 . S
C3423 C3428 1.384 1_655 S
C3424 C3423 1.438 . S
C3424 C3425 1.423 1_655 S
C3424 C3437 1.394 . S
C3425 H3417 0.935 . S
C3425 C3424 1.423 1_455 S
C3425 C3426 1.366 . S
C3426 H3418 0.950 . S
C3426 C3425 1.366 . S
C3426 C3427 1.424 . S
C3427 H3419 0.951 . S
C3427 C3426 1.424 . S
C3427 C3428 1.361 . S
C3428 H3420 0.952 . S
C3428 C3423 1.384 1_455 S
C3428 C3427 1.361 . S
H3429 C3430 0.951 1_455 S
C3430 H3429 0.951 1_655 S
C3430 C3436 1.265 . S
H3431 C3436 0.950 . S
H3432 C3440 0.949 . S
H3433 C3441 0.950 . S
H3434 C3442 0.951 . S
H3435 C3443 0.951 . S
C3436 C3430 1.265 . S
C3436 H3431 0.950 . S
C3436 C3437 1.478 . S
C3437 C3424 1.394 . S
C3437 C3436 1.478 . S
C3437 C3438 1.397 . S
C3438 C3437 1.397 . S
C3438 C3439 1.438 . S
C3438 C3443 1.429 . S
C3439 C3422 1.394 . S
C3439 C3438 1.438 . S
C3439 C3440 1.428 . S
C3440 H3432 0.949 . S
C3440 C3439 1.428 . S
C3440 C3441 1.345 . S
C3441 H3433 0.950 . S
C3441 C3440 1.345 . S
C3441 C3442 1.424 . S
C3442 H3434 0.951 . S
C3442 C3441 1.424 . S
C3442 C3443 1.347 . S
C3443 H3435 0.951 . S
C3443 C3438 1.429 . S
C3443 C3442 1.347 . S
H3444 C3445 0.951 . S
C3445 H3444 0.951 . S
C3445 C3451 1.265 . S
H3446 C3451 0.950 . S
H3447 C3455 0.949 . S
H3448 C3456 0.950 . S
H3449 C3457 0.951 . S
H3450 C3458 0.951 . S
C3451 C3445 1.265 . S
C3451 H3446 0.950 . S
C3451 C3452 1.478 . S
C3452 C3451 1.478 . S
C3452 C3453 1.397 . S
C3452 C3469 1.394 . S
C3453 C3452 1.397 . S
C3453 C3454 1.438 . S
C3453 C3458 1.429 . S
C3454 C3453 1.438 . S
C3454 C3455 1.428 . S
C3454 C3467 1.394 . S
C3455 H3447 0.949 . S
C3455 C3454 1.428 . S
C3455 C3456 1.345 . S
C3456 H3448 0.950 . S
C3456 C3455 1.345 . S
C3456 C3457 1.424 . S
C3457 H3449 0.951 . S
C3457 C3456 1.424 . S
C3457 C3458 1.347 . S
C3458 H3450 0.951 . S
C3458 C3453 1.429 . S
C3458 C3457 1.347 . S
H3459 C3460 0.951 . S
C3460 H3459 0.951 . S
C3460 C3466 1.265 . S
H3461 C3466 0.950 . S
H3462 C3470 0.949 . S
H3463 C3471 0.950 . S
H3464 C3472 0.951 . S
H3465 C3473 0.951 . S
C3466 C3460 1.265 . S
C3466 H3461 0.950 . S
C3466 C3467 1.478 . S
C3467 C3454 1.394 . S
C3467 C3466 1.478 . S
C3467 C3468 1.397 . S
C3468 C3467 1.397 . S
C3468 C3469 1.438 . S
C3468 C3473 1.429 . S
C3469 C3452 1.394 . S
C3469 C3468 1.438 . S
C3469 C3470 1.428 . S
C3470 H3462 0.949 . S
C3470 C3469 1.428 . S
C3470 C3471 1.345 . S
C3471 H3463 0.950 . S
C3471 C3470 1.345 . S
C3471 C3472 1.424 . S
C3472 H3464 0.951 . S
C3472 C3471 1.424 . S
C3472 C3473 1.347 . S
C3473 H3465 0.951 . S
C3473 C3468 1.429 . S
C3473 C3472 1.347 . S
H3474 C3475 0.951 . S
C3475 H3474 0.951 . S
C3475 C3481 1.265 . S
H3476 C3481 0.950 . S
H3477 C3485 0.949 . S
H3478 C3486 0.950 . S
H3479 C3487 0.951 . S
H3480 C3488 0.951 . S
C3481 C3475 1.265 . S
C3481 H3476 0.950 . S
C3481 C3482 1.478 . S
C3482 C3481 1.478 . S
C3482 C3483 1.397 . S
C3482 C3499 1.394 . S
C3483 C3482 1.397 . S
C3483 C3484 1.438 . S
C3483 C3488 1.429 . S
C3484 C3483 1.438 . S
C3484 C3485 1.428 . S
C3484 C3497 1.394 . S
C3485 H3477 0.949 . S
C3485 C3484 1.428 . S
C3485 C3486 1.345 . S
C3486 H3478 0.950 . S
C3486 C3485 1.345 . S
C3486 C3487 1.424 . S
C3487 H3479 0.951 . S
C3487 C3486 1.424 . S
C3487 C3488 1.347 . S
C3488 H3480 0.951 . S
C3488 C3483 1.429 . S
C3488 C3487 1.347 . S
H3489 C3490 0.951 . S
C3490 H3489 0.951 . S
C3490 C3496 1.265 . S
H3491 C3496 0.950 . S
H3492 C3500 0.949 . S
H3493 C3501 0.950 . S
H3494 C3502 0.951 . S
H3495 C3503 0.951 . S
C3496 C3490 1.265 . S
C3496 H3491 0.950 . S
C3496 C3497 1.478 . S
C3497 C3484 1.394 . S
C3497 C3496 1.478 . S
C3497 C3498 1.397 . S
C3498 C3497 1.397 . S
C3498 C3499 1.438 . S
C3498 C3503 1.429 . S
C3499 C3482 1.394 . S
C3499 C3498 1.438 . S
C3499 C3500 1.428 . S
C3500 H3492 0.949 . S
C3500 C3499 1.428 . S
C3500 C3501 1.345 . S
C3501 H3493 0.950 . S
C3501 C3500 1.345 . S
C3501 C3502 1.424 . S
C3502 H3494 0.951 . S
C3502 C3501 1.424 . S
C3502 C3503 1.347 . S
C3503 H3495 0.951 . S
C3503 C3498 1.429 . S
C3503 C3502 1.347 . S
H3504 C3505 0.951 . S
C3505 H3504 0.951 . S
C3505 C3511 1.265 . S
H3506 C3511 0.950 . S
H3507 C3515 0.949 . S
H3508 C3516 0.950 . S
H3509 C3517 0.951 . S
H3510 C3518 0.951 . S
C3511 C3505 1.265 . S
C3511 H3506 0.950 . S
C3511 C3512 1.478 . S
C3512 C3511 1.478 . S
C3512 C3513 1.397 . S
C3512 C3529 1.394 . S
C3513 C3512 1.397 . S
C3513 C3514 1.438 . S
C3513 C3518 1.429 . S
C3514 C3513 1.438 . S
C3514 C3515 1.428 . S
C3514 C3527 1.394 . S
C3515 H3507 0.949 . S
C3515 C3514 1.428 . S
C3515 C3516 1.345 . S
C3516 H3508 0.950 . S
C3516 C3515 1.345 . S
C3516 C3517 1.424 . S
C3517 H3509 0.951 . S
C3517 C3516 1.424 . S
C3517 C3518 1.347 . S
C3518 H3510 0.951 . S
C3518 C3513 1.429 . S
C3518 C3517 1.347 . S
H3519 C3520 0.951 . S
C3520 H3519 0.951 . S
C3520 C3526 1.265 . S
H3521 C3526 0.950 . S
H3522 C3530 0.949 . S
H3523 C3531 0.950 . S
H3524 C3532 0.951 . S
H3525 C3533 0.951 . S
C3526 C3520 1.265 . S
C3526 H3521 0.950 . S
C3526 C3527 1.478 . S
C3527 C3514 1.394 . S
C3527 C3526 1.478 . S
C3527 C3528 1.397 . S
C3528 C3527 1.397 . S
C3528 C3529 1.438 . S
C3528 C3533 1.429 . S
C3529 C3512 1.394 . S
C3529 C3528 1.438 . S
C3529 C3530 1.428 . S
C3530 H3522 0.949 . S
C3530 C3529 1.428 . S
C3530 C3531 1.345 . S
C3531 H3523 0.950 . S
C3531 C3530 1.345 . S
C3531 C3532 1.424 . S
C3532 H3524 0.951 . S
C3532 C3531 1.424 . S
C3532 C3533 1.347 . S
C3533 H3525 0.951 . S
C3533 C3528 1.429 . S
C3533 C3532 1.347 . S
H3534 C3535 0.951 . S
C3535 H3534 0.951 . S
C3535 C3541 1.265 . S
H3536 C3541 0.950 . S
H3537 C3545 0.949 . S
H3538 C3546 0.950 . S
H3539 C3547 0.951 . S
H3540 C3548 0.951 . S
C3541 C3535 1.265 . S
C3541 H3536 0.950 . S
C3541 C3542 1.478 . S
C3542 C3541 1.478 . S
C3542 C3543 1.397 . S
C3542 C3559 1.394 . S
C3543 C3542 1.397 . S
C3543 C3544 1.438 . S
C3543 C3548 1.429 . S
C3544 C3543 1.438 . S
C3544 C3545 1.428 . S
C3544 C3557 1.394 . S
C3545 H3537 0.949 . S
C3545 C3544 1.428 . S
C3545 C3546 1.345 . S
C3546 H3538 0.950 . S
C3546 C3545 1.345 . S
C3546 C3547 1.424 . S
C3547 H3539 0.951 . S
C3547 C3546 1.424 . S
C3547 C3548 1.347 . S
C3548 H3540 0.951 . S
C3548 C3543 1.429 . S
C3548 C3547 1.347 . S
H3549 C3550 0.951 . S
C3550 H3549 0.951 . S
C3550 C3556 1.265 . S
H3551 C3556 0.950 . S
H3552 C3560 0.949 . S
H3553 C3561 0.950 . S
H3554 C3562 0.951 . S
H3555 C3563 0.951 . S
C3556 C3550 1.265 . S
C3556 H3551 0.950 . S
C3556 C3557 1.478 . S
C3557 C3544 1.394 . S
C3557 C3556 1.478 . S
C3557 C3558 1.397 . S
C3558 C3557 1.397 . S
C3558 C3559 1.438 . S
C3558 C3563 1.429 . S
C3559 C3542 1.394 . S
C3559 C3558 1.438 . S
C3559 C3560 1.428 . S
C3560 H3552 0.949 . S
C3560 C3559 1.428 . S
C3560 C3561 1.345 . S
C3561 H3553 0.950 . S
C3561 C3560 1.345 . S
C3561 C3562 1.424 . S
C3562 H3554 0.951 . S
C3562 C3561 1.424 . S
C3562 C3563 1.347 . S
C3563 H3555 0.951 . S
C3563 C3558 1.429 . S
C3563 C3562 1.347 . S
H3564 C3565 0.951 . S
C3565 H3564 0.951 . S
C3565 C3571 1.265 . S
H3566 C3571 0.950 . S
H3567 C3575 0.949 . S
H3568 C3576 0.950 . S
H3569 C3577 0.951 . S
H3570 C3578 0.951 . S
C3571 C3565 1.265 . S
C3571 H3566 0.950 . S
C3571 C3572 1.478 . S
C3572 C3571 1.478 . S
C3572 C3573 1.397 . S
C3572 C3589 1.394 . S
C3573 C3572 1.397 . S
C3573 C3574 1.438 . S
C3573 C3578 1.429 . S
C3574 C3573 1.438 . S
C3574 C3575 1.428 . S
C3574 C3587 1.394 . S
C3575 H3567 0.949 . S
C3575 C3574 1.428 . S
C3575 C3576 1.345 . S
C3576 H3568 0.950 . S
C3576 C3575 1.345 . S
C3576 C3577 1.424 . S
C3577 H3569 0.951 . S
C3577 C3576 1.424 . S
C3577 C3578 1.347 . S
C3578 H3570 0.951 . S
C3578 C3573 1.429 . S
C3578 C3577 1.347 . S
H3579 C3580 0.951 . S
C3580 H3579 0.951 . S
C3580 C3586 1.265 . S
H3581 C3586 0.950 . S
H3582 C3590 0.949 . S
H3583 C3591 0.950 . S
H3584 C3592 0.951 . S
H3585 C3593 0.951 . S
C3586 C3580 1.265 . S
C3586 H3581 0.950 . S
C3586 C3587 1.478 . S
C3587 C3574 1.394 . S
C3587 C3586 1.478 . S
C3587 C3588 1.397 . S
C3588 C3587 1.397 . S
C3588 C3589 1.438 . S
C3588 C3593 1.429 . S
C3589 C3572 1.394 . S
C3589 C3588 1.438 . S
C3589 C3590 1.428 . S
C3590 H3582 0.949 . S
C3590 C3589 1.428 . S
C3590 C3591 1.345 . S
C3591 H3583 0.950 . S
C3591 C3590 1.345 . S
C3591 C3592 1.424 . S
C3592 H3584 0.951 . S
C3592 C3591 1.424 . S
C3592 C3593 1.347 . S
C3593 H3585 0.951 . S
C3593 C3588 1.429 . S
C3593 C3592 1.347 . S
H3594 C3595 0.951 . S
C3595 H3594 0.951 . S
C3595 C3601 1.265 . S
H3596 C3601 0.950 . S
H3597 C3605 0.949 . S
H3598 C3606 0.950 . S
H3599 C3607 0.951 . S
H3600 C3608 0.951 . S
C3601 C3595 1.265 . S
C3601 H3596 0.950 . S
C3601 C3602 1.478 . S
C3602 C3601 1.478 . S
C3602 C3603 1.397 . S
C3602 C3619 1.394 . S
C3603 C3602 1.397 . S
C3603 C3604 1.438 . S
C3603 C3608 1.429 . S
C3604 C3603 1.438 . S
C3604 C3605 1.428 . S
C3604 C3617 1.394 . S
C3605 H3597 0.949 . S
C3605 C3604 1.428 . S
C3605 C3606 1.345 . S
C3606 H3598 0.950 . S
C3606 C3605 1.345 . S
C3606 C3607 1.424 . S
C3607 H3599 0.951 . S
C3607 C3606 1.424 . S
C3607 C3608 1.347 . S
C3608 H3600 0.951 . S
C3608 C3603 1.429 . S
C3608 C3607 1.347 . S
H3609 C3610 0.951 . S
C3610 H3609 0.951 . S
C3610 C3616 1.265 . S
H3611 C3616 0.950 . S
H3612 C3620 0.949 . S
H3613 C3621 0.950 . S
H3614 C3622 0.951 . S
H3615 C3623 0.951 . S
C3616 C3610 1.265 . S
C3616 H3611 0.950 . S
C3616 C3617 1.478 . S
C3617 C3604 1.394 . S
C3617 C3616 1.478 . S
C3617 C3618 1.397 . S
C3618 C3617 1.397 . S
C3618 C3619 1.438 . S
C3618 C3623 1.429 . S
C3619 C3602 1.394 . S
C3619 C3618 1.438 . S
C3619 C3620 1.428 . S
C3620 H3612 0.949 . S
C3620 C3619 1.428 . S
C3620 C3621 1.345 . S
C3621 H3613 0.950 . S
C3621 C3620 1.345 . S
C3621 C3622 1.424 . S
C3622 H3614 0.951 . S
C3622 C3621 1.424 . S
C3622 C3623 1.347 . S
C3623 H3615 0.951 . S
C3623 C3618 1.429 . S
C3623 C3622 1.347 . S
H3624 C3625 0.951 . S
C3625 H3624 0.951 . S
C3625 C3631 1.265 . S
H3626 C3631 0.950 . S
H3627 C3635 0.949 . S
H3628 C3636 0.950 . S
H3629 C3637 0.951 . S
H3630 C3638 0.951 . S
C3631 C3625 1.265 . S
C3631 H3626 0.950 . S
C3631 C3632 1.478 . S
C3632 C3631 1.478 . S
C3632 C3633 1.397 . S
C3632 C3649 1.394 . S
C3633 C3632 1.397 . S
C3633 C3634 1.438 . S
C3633 C3638 1.429 . S
C3634 C3633 1.438 . S
C3634 C3635 1.428 . S
C3634 C3647 1.394 . S
C3635 H3627 0.949 . S
C3635 C3634 1.428 . S
C3635 C3636 1.345 . S
C3636 H3628 0.950 . S
C3636 C3635 1.345 . S
C3636 C3637 1.424 . S
C3637 H3629 0.951 . S
C3637 C3636 1.424 . S
C3637 C3638 1.347 . S
C3638 H3630 0.951 . S
C3638 C3633 1.429 . S
C3638 C3637 1.347 . S
H3639 C3640 0.951 . S
C3640 H3639 0.951 . S
C3640 C3646 1.265 . S
H3641 C3646 0.950 . S
H3642 C3650 0.949 . S
H3643 C3651 0.950 . S
H3644 C3652 0.951 . S
H3645 C3653 0.951 . S
C3646 C3640 1.265 . S
C3646 H3641 0.950 . S
C3646 C3647 1.478 . S
C3647 C3634 1.394 . S
C3647 C3646 1.478 . S
C3647 C3648 1.397 . S
C3648 C3647 1.397 . S
C3648 C3649 1.438 . S
C3648 C3653 1.429 . S
C3649 C3632 1.394 . S
C3649 C3648 1.438 . S
C3649 C3650 1.428 . S
C3650 H3642 0.949 . S
C3650 C3649 1.428 . S
C3650 C3651 1.345 . S
C3651 H3643 0.950 . S
C3651 C3650 1.345 . S
C3651 C3652 1.424 . S
C3652 H3644 0.951 . S
C3652 C3651 1.424 . S
C3652 C3653 1.347 . S
C3653 H3645 0.951 . S
C3653 C3648 1.429 . S
C3653 C3652 1.347 . S
H3654 C3655 0.951 . S
C3655 H3654 0.951 . S
C3655 C3661 1.265 . S
H3656 C3661 0.950 . S
H3657 C3665 0.949 . S
H3658 C3666 0.937 1_455 S
H3659 C3667 0.951 . S
H3660 C3668 0.951 . S
C3661 C3655 1.265 . S
C3661 H3656 0.950 . S
C3661 C3662 1.478 . S
C3662 C3661 1.478 . S
C3662 C3663 1.397 . S
C3662 C3679 1.394 . S
C3663 C3662 1.397 . S
C3663 C3664 1.438 . S
C3663 C3668 1.429 . S
C3664 C3663 1.438 . S
C3664 C3665 1.428 . S
C3664 C3677 1.394 . S
C3665 H3657 0.949 . S
C3665 C3664 1.428 . S
C3665 C3666 1.345 . S
C3666 H3658 0.937 1_655 S
C3666 C3665 1.345 . S
C3666 C3667 1.424 . S
C3667 H3659 0.951 . S
C3667 C3666 1.424 . S
C3667 C3668 1.347 . S
C3668 H3660 0.951 . S
C3668 C3663 1.429 . S
C3668 C3667 1.347 . S
H3669 C3670 0.951 1_455 S
C3670 H3669 0.951 1_655 S
C3670 C3676 1.265 . S
H3671 C3676 0.950 . S
H3672 C3680 0.949 . S
H3673 C3681 0.950 . S
H3674 C3682 0.951 . S
H3675 C3683 0.951 . S
C3676 C3670 1.265 . S
C3676 H3671 0.950 . S
C3676 C3677 1.478 . S
C3677 C3664 1.394 . S
C3677 C3676 1.478 . S
C3677 C3678 1.397 . S
C3678 C3677 1.397 . S
C3678 C3679 1.438 . S
C3678 C3683 1.429 . S
C3679 C3662 1.394 . S
C3679 C3678 1.438 . S
C3679 C3680 1.428 . S
C3680 H3672 0.949 . S
C3680 C3679 1.428 . S
C3680 C3681 1.345 . S
C3681 H3673 0.950 . S
C3681 C3680 1.345 . S
C3681 C3682 1.424 . S
C3682 H3674 0.951 . S
C3682 C3681 1.424 . S
C3682 C3683 1.347 . S
C3683 H3675 0.951 . S
C3683 C3678 1.429 . S
C3683 C3682 1.347 . S
H3684 C3685 0.951 . S
C3685 H3684 0.951 . S
C3685 C3691 1.265 . S
H3686 C3691 0.950 . S
H3687 C3695 0.949 . S
H3688 C3696 0.950 . S
H3689 C3697 0.951 . S
H3690 C3698 0.951 . S
C3691 C3685 1.265 . S
C3691 H3686 0.950 . S
C3691 C3692 1.478 . S
C3692 C3691 1.478 . S
C3692 C3693 1.397 . S
C3692 C3709 1.394 . S
C3693 C3692 1.397 . S
C3693 C3694 1.438 . S
C3693 C3698 1.429 . S
C3694 C3693 1.438 . S
C3694 C3695 1.428 . S
C3694 C3707 1.394 . S
C3695 H3687 0.949 . S
C3695 C3694 1.428 . S
C3695 C3696 1.345 . S
C3696 H3688 0.950 . S
C3696 C3695 1.345 . S
C3696 C3697 1.424 . S
C3697 H3689 0.951 . S
C3697 C3696 1.424 . S
C3697 C3698 1.347 . S
C3698 H3690 0.951 . S
C3698 C3693 1.429 . S
C3698 C3697 1.347 . S
H3699 C3700 0.951 . S
C3700 H3699 0.951 . S
C3700 C3706 1.265 . S
H3701 C3706 0.950 . S
H3702 C3710 0.949 . S
H3703 C3711 0.950 . S
H3704 C3712 0.951 . S
H3705 C3713 0.951 . S
C3706 C3700 1.265 . S
C3706 H3701 0.950 . S
C3706 C3707 1.478 . S
C3707 C3694 1.394 . S
C3707 C3706 1.478 . S
C3707 C3708 1.397 . S
C3708 C3707 1.397 . S
C3708 C3709 1.438 . S
C3708 C3713 1.429 . S
C3709 C3692 1.394 . S
C3709 C3708 1.438 . S
C3709 C3710 1.428 . S
C3710 H3702 0.949 . S
C3710 C3709 1.428 . S
C3710 C3711 1.345 . S
C3711 H3703 0.950 . S
C3711 C3710 1.345 . S
C3711 C3712 1.424 . S
C3712 H3704 0.951 . S
C3712 C3711 1.424 . S
C3712 C3713 1.347 . S
C3713 H3705 0.951 . S
C3713 C3708 1.429 . S
C3713 C3712 1.347 . S
H3714 C3715 0.951 . S
C3715 H3714 0.951 . S
C3715 C3721 1.265 . S
H3716 C3721 0.950 . S
H3717 C3725 0.949 . S
H3718 C3726 0.950 . S
H3719 C3727 0.951 . S
H3720 C3728 0.951 . S
C3721 C3715 1.265 . S
C3721 H3716 0.950 . S
C3721 C3722 1.478 . S
C3722 C3721 1.478 . S
C3722 C3723 1.397 . S
C3722 C3739 1.394 . S
C3723 C3722 1.397 . S
C3723 C3724 1.438 . S
C3723 C3728 1.429 1_545 S
C3724 C3723 1.438 . S
C3724 C3725 1.428 1_545 S
C3724 C3737 1.394 . S
C3725 H3717 0.949 . S
C3725 C3724 1.428 1_565 S
C3725 C3726 1.345 . S
C3726 H3718 0.950 . S
C3726 C3725 1.345 . S
C3726 C3727 1.424 . S
C3727 H3719 0.951 . S
C3727 C3726 1.424 . S
C3727 C3728 1.347 . S
C3728 H3720 0.951 . S
C3728 C3723 1.429 1_565 S
C3728 C3727 1.347 . S
H3729 C3730 0.925 1_565 S
C3730 H3729 0.925 1_545 S
C3730 C3736 1.282 . S
H3731 C3736 0.950 . S
H3732 C3740 0.949 . S
H3733 C3741 0.950 . S
H3734 C3742 0.951 . S
H3735 C3743 0.951 . S
C3736 C3730 1.282 . S
C3736 H3731 0.950 . S
C3736 C3737 1.478 . S
C3737 C3724 1.394 . S
C3737 C3736 1.478 . S
C3737 C3738 1.397 . S
C3738 C3737 1.397 . S
C3738 C3739 1.438 . S
C3738 C3743 1.429 . S
C3739 C3722 1.394 . S
C3739 C3738 1.438 . S
C3739 C3740 1.428 . S
C3740 H3732 0.949 . S
C3740 C3739 1.428 . S
C3740 C3741 1.345 . S
C3741 H3733 0.950 . S
C3741 C3740 1.345 . S
C3741 C3742 1.424 . S
C3742 H3734 0.951 . S
C3742 C3741 1.424 . S
C3742 C3743 1.347 . S
C3743 H3735 0.951 . S
C3743 C3738 1.429 . S
C3743 C3742 1.347 . S
C1585 C4 1.189 1_455 S
C1600 C981 1.144 . S
C1615 C26 1.567 . S
C1630 C1061 1.563 . S
C1660 C1129 1.240 . S
C1645 C32 1.274 . S
C1675 C40 1.620 . S
C1690 C1209 1.636 . S
C1705 C12 1.473 . S
C1720 C1283 1.444 . S
C1735 C18 1.536 . S
C1750 C1351 1.515 . S
C1765 C46 1.059 . S
C1780 C1277 1.033 . S
C1810 C1357 1.434 . S
C1795 C68 1.451 . S
C1840 C1203 1.215 . S
C1825 C74 1.227 . S
C1855 C82 1.591 . S
C1870 C1135 1.625 1_545 S
C1900 C987 1.460 1_655 S
C1885 C54 1.441 . S
C1915 C60 1.397 . S
C1930 C1055 1.395 . S
C1945 C88 1.417 . S
C1960 C1425 1.387 . S
C1975 C110 1.609 . S
C1990 C1505 1.574 . S
C2020 C1573 1.491 . S
C2005 C116 1.544 . S
C2035 C124 1.744 . S
C2050 C321 1.709 . S
C2065 C96 1.615 . S
C2080 C395 1.612 . S
C2095 C102 1.561 . S
C2110 C463 1.526 . S
C2125 C130 1.109 . S
C2140 C389 1.097 . S
C2155 C152 1.497 . S
C2170 C469 1.524 . S
C2200 C315 1.414 . S
C2185 C158 1.417 . S
C2230 C1579 1.725 . S
C2215 C166 1.708 . S
C2260 C1431 1.434 . S
C2245 C138 1.450 . S
C2290 C1499 1.379 . S
C2275 C144 1.379 . S
C2305 C172 1.245 . S
C2320 C537 1.169 . S
C2335 C194 1.648 . S
C2350 C617 1.629 . S
C2365 C200 1.603 . S
C2380 C685 1.549 . S
C2395 C208 1.791 . S
C2410 C765 1.745 . S
C2440 C839 1.529 . S
C2425 C180 1.607 . S
C2470 C907 1.531 . S
C2455 C186 1.567 . S
C2500 C833 1.241 . S
C2485 C214 1.246 . S
C2530 C913 1.487 . S
C2515 C236 1.463 . S
C2545 C242 1.360 . S
C2560 C759 1.360 . S
C2590 C691 1.592 . S
C2575 C250 1.588 . S
C2605 C222 1.513 . S
C2620 C543 1.497 . S
C2650 C611 1.352 . S
C2635 C228 1.358 . S
C2680 C291 1.860 . S
C2665 C5 1.784 . S
C2695 C25 1.367 . S
C2710 C365 1.324 . S
C2740 C451 1.469 . S
C2725 C33 1.229 . S
C2770 C525 1.088 . S
C2755 C39 1.073 . S
C2800 C587 1.485 . S
C2785 C11 1.520 1_556 S
C2830 C673 1.462 . S
C2815 C19 1.213 . S
C2845 C47 1.936 . S
C2860 C661 2.001 . S
C2875 C67 1.573 . S
C2890 C513 1.444 . S
C2905 C75 1.602 . S
C2920 C599 1.749 . S
C2935 C81 1.416 . S
C2950 C377 1.383 . S
C2980 C439 1.600 . S
C2965 C53 1.709 . S
C2995 C61 1.367 . S
C3010 C303 1.609 . S
C3040 C735 1.802 . S
C3025 C89 1.711 . S
C3055 C109 1.473 . S
C3070 C809 1.494 . S
C3085 C117 1.356 . S
C3100 C895 1.501 . S
C3130 C969 0.920 . S
C3115 C123 0.908 . S
C3145 C95 1.388 . S
C3160 C1031 1.404 . S
C3175 C103 1.071 . S
C3190 C1117 1.288 . S
C3205 C131 1.494 . S
C3220 C1105 1.744 . S
C3235 C151 1.286 . S
C3250 C957 1.217 . S
C3280 C1043 1.615 . S
C3265 C159 1.446 . S
C3295 C165 1.386 . S
C3310 C821 1.263 . S
C3325 C137 1.687 1_545 S
C3340 C883 1.694 . S
C3370 C747 1.674 . S
C3355 C145 1.478 . S
C3400 C1179 1.699 . S
C3385 C173 1.472 . S
C3415 C193 1.116 . S
C3430 C1253 1.148 . S
C3445 C201 1.223 . S
C3460 C1339 1.365 . S
C3490 C1413 1.060 . S
C3475 C207 1.101 . S
C3520 C1475 1.504 . S
C3505 C179 1.519 1_565 S
C3535 C187 1.309 . S
C3550 C1561 1.541 . S
C3565 C215 1.792 . S
C3580 C1549 1.953 . S
C3595 C235 1.694 1_565 S
C3610 C1401 1.650 . S
C3640 C1487 1.619 . S
C3625 C243 1.377 . S
C3670 C1265 1.011 . S
C3655 C249 0.990 . S
C3700 C1327 1.477 . S
C3685 C221 1.602 . S
C3715 C229 1.325 . S
C3730 C1191 1.449 1_545 S
