# Generated by pormake.
# Topology zzz, (3,6)-cn, num edge types: 1
# Building blocks:
#     Node 0, Type 0, BuildingBlock: VETTIZ_charged_linker_0, # of connection points: 3
#     Node 1, Type 0, BuildingBlock: VETTIZ_charged_linker_0, # of connection points: 3
#     Node 2, Type 0, BuildingBlock: VETTIZ_charged_linker_0, # of connection points: 3
#     Node 3, Type 0, BuildingBlock: VETTIZ_charged_linker_0, # of connection points: 3
#     Node 4, Type 0, BuildingBlock: VETTIZ_charged_linker_0, # of connection points: 3
#     Node 5, Type 0, BuildingBlock: VETTIZ_charged_linker_0, # of connection points: 3
#     Node 6, Type 0, BuildingBlock: VETTIZ_charged_linker_0, # of connection points: 3
#     Node 7, Type 0, BuildingBlock: VETTIZ_charged_linker_0, # of connection points: 3
#     Node 8, Type 1, BuildingBlock: KUMBUR_clean_sbu_1, # of connection points: 6
#     Node 9, Type 1, BuildingBlock: KUMBUR_clean_sbu_1, # of connection points: 6
#     Node 10, Type 1, BuildingBlock: KUMBUR_clean_sbu_1, # of connection points: 6
#     Node 11, Type 1, BuildingBlock: KUMBUR_clean_sbu_1, # of connection points: 6
#     Edge 12, Type (0, 1), BuildingBlock: MIFKUJ_clean_linker_0, # of connection points: 2
#     Edge 13, Type (0, 1), BuildingBlock: MIFKUJ_clean_linker_0, # of connection points: 2
#     Edge 14, Type (0, 1), BuildingBlock: MIFKUJ_clean_linker_0, # of connection points: 2
#     Edge 15, Type (0, 1), BuildingBlock: MIFKUJ_clean_linker_0, # of connection points: 2
#     Edge 16, Type (0, 1), BuildingBlock: MIFKUJ_clean_linker_0, # of connection points: 2
#     Edge 17, Type (0, 1), BuildingBlock: MIFKUJ_clean_linker_0, # of connection points: 2
#     Edge 18, Type (0, 1), BuildingBlock: MIFKUJ_clean_linker_0, # of connection points: 2
#     Edge 19, Type (0, 1), BuildingBlock: MIFKUJ_clean_linker_0, # of connection points: 2
#     Edge 20, Type (0, 1), BuildingBlock: MIFKUJ_clean_linker_0, # of connection points: 2
#     Edge 21, Type (0, 1), BuildingBlock: MIFKUJ_clean_linker_0, # of connection points: 2
#     Edge 22, Type (0, 1), BuildingBlock: MIFKUJ_clean_linker_0, # of connection points: 2
#     Edge 23, Type (0, 1), BuildingBlock: MIFKUJ_clean_linker_0, # of connection points: 2
#     Edge 24, Type (0, 1), BuildingBlock: MIFKUJ_clean_linker_0, # of connection points: 2
#     Edge 25, Type (0, 1), BuildingBlock: MIFKUJ_clean_linker_0, # of connection points: 2
#     Edge 26, Type (0, 1), BuildingBlock: MIFKUJ_clean_linker_0, # of connection points: 2
#     Edge 27, Type (0, 1), BuildingBlock: MIFKUJ_clean_linker_0, # of connection points: 2
#     Edge 28, Type (0, 1), BuildingBlock: MIFKUJ_clean_linker_0, # of connection points: 2
#     Edge 29, Type (0, 1), BuildingBlock: MIFKUJ_clean_linker_0, # of connection points: 2
#     Edge 30, Type (0, 1), BuildingBlock: MIFKUJ_clean_linker_0, # of connection points: 2
#     Edge 31, Type (0, 1), BuildingBlock: MIFKUJ_clean_linker_0, # of connection points: 2
#     Edge 32, Type (0, 1), BuildingBlock: MIFKUJ_clean_linker_0, # of connection points: 2
#     Edge 33, Type (0, 1), BuildingBlock: MIFKUJ_clean_linker_0, # of connection points: 2
#     Edge 34, Type (0, 1), BuildingBlock: MIFKUJ_clean_linker_0, # of connection points: 2
#     Edge 35, Type (0, 1), BuildingBlock: MIFKUJ_clean_linker_0, # of connection points: 2
# Relax obj value: 0.294
# Max RMSD: 0.213
# Mean RMSD: 0.183
data_MOF--net-zzz--node1-KUMBUR_clean_sbu_1--node2-VETTIZ_charged_linker_0--edge1-MIFKUJ_clean_linker_0
_symmetry_space_group_name_H-M    P1
_symmetry_Int_Tables_number       1
_symmetry_cell_setting            triclinic
loop_
_symmetry_equiv_pos_as_xyz
'x, y, z'
_cell_length_a     69.653366
_cell_length_b     69.687449
_cell_length_c     25.995592
_cell_angle_alpha  90.111312
_cell_angle_beta   89.856745
_cell_angle_gamma 90.329916
loop_
_atom_site_label
_atom_site_type_symbol
_atom_site_fract_x
_atom_site_fract_y
_atom_site_fract_z
_atom_type_partial_charge
C0 C 0.80017 0.54587 0.25426 0.0
C1 C 0.81843 0.55352 0.26832 0.0
C2 C 0.82515 0.57013 0.24312 0.0
C3 C 0.79881 0.56849 0.18363 0.0
C4 C 0.79033 0.55401 0.21171 0.0
C5 C 0.77019 0.54984 0.19099 0.0
H6 H 0.70311 0.57391 1.00555 0.0
C7 C 0.78654 0.57355 0.14053 0.0
C8 C 0.76889 0.56389 0.14543 0.0
H9 H 0.69546 0.53088 0.12277 0.0
H10 H 0.7276 0.53808 0.15643 0.0
H11 H 0.72703 0.60661 0.07248 0.0
H12 H 0.73503 0.5629 0.96543 0.0
H13 H 0.75936 0.56952 0.97109 0.0
H14 H 0.74191 0.58632 0.94682 0.0
H15 H 0.72199 0.60566 1.00469 0.0
H16 H 0.74483 0.61421 0.02818 0.0
C17 C 0.75541 0.55448 0.23331 0.0
C18 C 0.76925 0.52879 0.17306 0.0
C19 C 0.81738 0.59271 0.97255 0.0
C20 C 0.80958 0.59879 0.92529 0.0
C21 C 0.79039 0.60522 0.92453 0.0
C22 C 0.77868 0.60345 0.96817 0.0
C23 C 0.78612 0.59493 0.0126 0.0
C24 C 0.80546 0.59124 0.01587 0.0
C25 C 0.81117 0.58513 0.06919 0.0
C26 C 0.79138 0.58354 0.09497 0.0
C27 C 0.77685 0.58802 0.06008 0.0
C28 C 0.82434 0.60094 0.09205 0.0
C29 C 0.82135 0.56551 0.06698 0.0
C30 C 0.70808 0.56629 0.03926 0.0
C31 C 0.69652 0.5522 0.06216 0.0
C32 C 0.704 0.54202 0.10467 0.0
C33 C 0.7226 0.54621 0.12416 0.0
C34 C 0.73404 0.56036 0.10002 0.0
C35 C 0.72665 0.56974 0.05754 0.0
C36 C 0.74097 0.58263 0.03187 0.0
C37 C 0.75813 0.58025 0.06699 0.0
C38 C 0.75416 0.56746 0.10796 0.0
C39 C 0.73333 0.60343 0.03403 0.0
C40 C 0.74458 0.5751 0.97611 0.0
H41 H 0.81956 0.59154 0.18704 0.0
H42 H 0.79404 0.53383 0.27492 0.0
H43 H 0.78145 0.52556 0.1468 0.0
H44 H 0.75595 0.52556 0.15169 0.0
H45 H 0.77007 0.5189 0.20646 0.0
H46 H 0.75798 0.56913 0.24895 0.0
H47 H 0.75653 0.5441 0.26555 0.0
H48 H 0.74055 0.55414 0.21879 0.0
H49 H 0.83215 0.58816 0.97537 0.0
H50 H 0.78423 0.61101 0.8897 0.0
H51 H 0.76419 0.60842 0.96574 0.0
H52 H 0.83251 0.60874 0.06172 0.0
H53 H 0.83557 0.5948 0.11719 0.0
H54 H 0.81587 0.61178 0.11362 0.0
H55 H 0.81202 0.55455 0.04829 0.0
H56 H 0.82494 0.56038 0.10612 0.0
H57 H 0.83502 0.56653 0.04503 0.0
H58 H 0.83831 0.57712 0.25549 0.0
C59 C 0.81508 0.57794 0.202 0.0
C60 C 0.93092 0.80893 0.95663 0.0
C61 C 0.92909 0.82906 0.95634 0.0
C62 C 0.93231 0.83912 1.00284 0.0
C63 C 0.94323 0.81001 0.04381 0.0
C64 C 0.93856 0.79985 0.99999 0.0
C65 C 0.94512 0.77937 1.00264 0.0
H66 H 1.00074 0.71117 0.1081 0.0
C67 C 0.95403 0.79711 0.07826 0.0
C68 C 0.95535 0.77921 0.05436 0.0
H69 H 0.96309 0.70799 0.97615 0.0
H70 H 0.95208 0.73969 0.99263 0.0
H71 H 0.01457 0.75857 0.09653 0.0
H72 H 0.96638 0.73548 0.18389 0.0
H73 H 0.98172 0.7508 0.22002 0.0
H74 H 0.99058 0.72815 0.19734 0.0
H75 H 0.01824 0.7412 0.14667 0.0
H76 H 0.01399 0.76596 0.16205 0.0
C77 C 0.95919 0.77594 0.9571 0.0
C78 C 0.92701 0.76626 1.00264 0.0
C79 C 0.97924 0.82506 0.24374 0.0
C80 C 0.99112 0.81869 0.28345 0.0
C81 C 0.99923 0.80017 0.27916 0.0
C82 C 0.99491 0.7881 0.23653 0.0
C83 C 0.98255 0.79472 0.19748 0.0
C84 C 0.97529 0.81313 0.20178 0.0
C85 C 0.96346 0.81885 0.15662 0.0
C86 C 0.96363 0.80057 0.12535 0.0
C87 C 0.9749 0.78618 0.14851 0.0
C88 C 0.97405 0.83561 0.12874 0.0
C89 C 0.94297 0.82371 0.1761 0.0
C90 C 0.99019 0.71752 0.08291 0.0
C91 C 0.98284 0.70701 0.04032 0.0
C92 C 0.9689 0.71561 1.00908 0.0
C93 C 0.96253 0.73416 0.01864 0.0
C94 C 0.97015 0.74469 0.05989 0.0
C95 C 0.98331 0.73637 0.09253 0.0
C96 C 0.98824 0.74993 0.1368 0.0
C97 C 0.97644 0.76779 0.12353 0.0
C98 C 0.96624 0.76441 0.07757 0.0
C99 C 1.00997 0.75416 0.13578 0.0
C100 C 0.98146 0.74064 0.18749 0.0
H101 H 0.94192 0.83837 0.07971 0.0
H102 H 0.92803 0.80053 0.92244 0.0
H103 H 0.91399 0.77408 0.01578 0.0
H104 H 0.92831 0.75411 0.02983 0.0
H105 H 0.92394 0.76058 0.96355 0.0
H106 H 0.96859 0.7887 0.95103 0.0
H107 H 0.95126 0.77326 0.92074 0.0
H108 H 0.9692 0.76399 0.96337 0.0
H109 H 0.97322 0.83937 0.24489 0.0
H110 H 1.00864 0.79495 0.30908 0.0
H111 H 1.00135 0.77415 0.23527 0.0
H112 H 0.98967 0.83591 0.13768 0.0
H113 H 0.96812 0.84975 0.14023 0.0
H114 H 0.97353 0.83429 0.08632 0.0
H115 H 0.93843 0.81362 0.20701 0.0
H116 H 0.93189 0.82226 0.14599 0.0
H117 H 0.94242 0.83848 0.19216 0.0
H118 H 0.93118 0.85457 1.00481 0.0
C119 C 0.93912 0.82968 0.0465 0.0
C120 C 0.82679 0.98822 0.09015 0.0
C121 C 0.83746 0.98144 0.04729 0.0
C122 C 0.82944 0.96711 0.01588 0.0
C123 C 0.80028 0.96707 0.06663 0.0
C124 C 0.80819 0.98051 0.09963 0.0
C125 C 0.7945 0.98481 0.14401 0.0
H126 H 0.70507 0.96723 0.24991 0.0
C127 C 0.78066 0.96238 0.08416 0.0
C128 C 0.777 0.97233 0.13043 0.0
H129 H 0.7489 1.00358 0.31602 0.0
H130 H 0.77004 0.99674 0.24285 0.0
H131 H 0.70871 0.98312 0.14336 0.0
H132 H 0.73192 0.93294 0.21392 0.0
H133 H 0.72395 0.92586 0.1526 0.0
H134 H 0.70705 0.9358 0.19788 0.0
H135 H 0.69522 0.96121 0.14699 0.0
H136 H 0.71047 0.96669 0.0926 0.0
C137 C 0.78965 1.00635 0.14352 0.0
C138 C 0.80399 0.97831 0.19452 0.0
C139 C 0.73695 0.92568 0.96206 0.0
C140 C 0.71699 0.92222 0.9628 0.0
C141 C 0.70698 0.92508 1.00958 0.0
C142 C 0.71623 0.93259 0.05285 0.0
C143 C 0.73566 0.93785 0.0496 0.0
C144 C 0.74584 0.93383 1.00535 0.0
C145 C 0.76617 0.9411 1.00821 0.0
C146 C 0.76613 0.95108 0.06047 0.0
C147 C 0.74828 0.94901 0.08441 0.0
C148 C 0.76923 0.95548 0.96333 0.0
C149 C 0.77974 0.92349 1.00719 0.0
C150 C 0.71936 0.97347 0.2497 0.0
C151 C 0.72536 0.98556 0.28975 0.0
C152 C 0.74387 0.99402 0.286 0.0
C153 C 0.75617 0.98996 0.24367 0.0
C154 C 0.74986 0.97744 0.20433 0.0
C155 C 0.73157 0.96968 0.20821 0.0
C156 C 0.72623 0.95757 0.16298 0.0
C157 C 0.74456 0.95835 0.13184 0.0
C158 C 0.75865 0.97007 0.15535 0.0
C159 C 0.70923 0.96746 0.13499 0.0
C160 C 0.7219 0.93695 0.18249 0.0
H161 H 0.80591 0.94922 0.9992 0.0
H162 H 0.83279 0.99904 0.11545 0.0
H163 H 0.80969 0.96351 0.19043 0.0
H164 H 0.79379 0.97796 0.22699 0.0
H165 H 0.81614 0.98797 0.20477 0.0
H166 H 0.78514 1.01084 0.10436 0.0
H167 H 0.80235 0.01512 0.15469 0.0
H168 H 0.77771 1.00984 0.16982 0.0
H169 H 0.74533 0.92322 0.92761 0.0
H170 H 0.69163 0.92285 0.01226 0.0
H171 H 0.70756 0.93489 0.08637 0.0
H172 H 0.75644 0.96482 0.95882 0.0
H173 H 0.7715 0.9478 0.92634 0.0
H174 H 0.78134 0.96547 0.96926 0.0
H175 H 0.77217 0.91003 0.01859 0.0
H176 H 0.79165 0.92492 0.03519 0.0
H177 H 0.78581 0.9211 0.96817 0.0
H178 H 0.83734 0.96169 0.98298 0.0
C179 C 0.81109 0.95991 0.02533 0.0
C180 C 0.54346 0.73341 0.23668 0.0
C181 C 0.54768 0.71395 0.24875 0.0
C182 C 0.55664 0.70261 0.211 0.0
C183 C 0.55928 0.72971 0.15349 0.0
C184 C 0.54948 0.74104 0.18831 0.0
C185 C 0.54682 0.76124 0.16656 0.0
H186 H 0.56744 0.82239 0.9633 0.0
C187 C 0.56519 0.74152 0.10909 0.0
C188 C 0.55817 0.76029 0.11574 0.0
H189 H 0.52974 0.83539 0.09019 0.0
H190 H 0.5373 0.80431 0.12966 0.0
H191 H 0.60023 0.80546 0.02619 0.0
H192 H 0.55293 0.77936 0.94625 0.0
H193 H 0.57403 0.76728 0.92842 0.0
H194 H 0.57217 0.79242 0.91595 0.0
H195 H 0.60175 0.80001 0.95894 0.0
H196 H 0.60868 0.78281 1.00742 0.0
C197 C 0.55547 0.77607 0.20396 0.0
C198 C 0.52523 0.76431 0.15715 0.0
C199 C 0.60147 0.70953 0.96314 0.0
C200 C 0.60995 0.71651 0.91742 0.0
C201 C 0.61248 0.73656 0.91242 0.0
C202 C 0.60454 0.74923 0.94852 0.0
C203 C 0.59416 0.74188 0.99061 0.0
C204 C 0.59394 0.72241 0.9991 0.0
C205 C 0.58395 0.71723 0.04846 0.0
C206 C 0.57687 0.73678 0.06615 0.0
C207 C 0.58241 0.75101 0.03134 0.0
C208 C 0.59924 0.70876 0.0854 0.0
C209 C 0.56699 0.70349 0.03556 0.0
C210 C 0.56059 0.81859 0.99937 0.0
C211 C 0.54765 0.83119 0.02275 0.0
C212 C 0.53962 0.82584 0.07082 0.0
C213 C 0.54383 0.80774 0.09335 0.0
C214 C 0.5562 0.79489 0.06759 0.0
C215 C 0.56448 0.80081 0.0217 0.0
C216 C 0.57713 0.78599 0.99804 0.0
C217 C 0.57477 0.76971 0.03587 0.0
C218 C 0.56254 0.77463 0.07739 0.0
C219 C 0.59802 0.79391 0.99716 0.0
C220 C 0.56882 0.78095 0.94426 0.0
H221 H 0.56929 0.70062 0.1381 0.0
H222 H 0.53621 0.74245 0.26441 0.0
H223 H 0.51906 0.75204 0.13513 0.0
H224 H 0.52237 0.77732 0.13448 0.0
H225 H 0.51735 0.76541 0.19426 0.0
H226 H 0.57051 0.77222 0.21358 0.0
H227 H 0.54706 0.77662 0.2403 0.0
H228 H 0.55581 0.79062 0.1872 0.0
H229 H 0.59929 0.69436 0.96969 0.0
H230 H 0.61973 0.74259 0.8793 0.0
H231 H 0.60601 0.76427 0.94088 0.0
H232 H 0.61411 0.71293 0.0741 0.0
H233 H 0.59864 0.69284 0.08587 0.0
H234 H 0.59771 0.71422 0.12525 0.0
H235 H 0.55995 0.70779 0.99904 0.0
H236 H 0.55538 0.70378 0.06457 0.0
H237 H 0.572 0.68849 0.03091 0.0
H238 H 0.55946 0.68756 0.21804 0.0
C239 C 0.56244 0.71029 0.16416 0.0
C240 C 0.32461 0.49409 0.17395 0.0
C241 C 0.33714 0.48354 0.20661 0.0
C242 C 0.33226 0.46437 0.21855 0.0
C243 C 0.30201 0.46754 0.17524 0.0
C244 C 0.30717 0.48538 0.15727 0.0
C245 C 0.2926 0.49205 0.11716 0.0
H246 H 0.20485 0.47205 1.00289 0.0
C247 C 0.28332 0.46214 0.15497 0.0
C248 C 0.27774 0.47556 0.11776 0.0
H249 H 0.24085 0.521 0.96917 0.0
H250 H 0.26508 0.5091 0.02948 0.0
H251 H 0.23871 0.44 1.0082 0.0
H252 H 0.21514 0.4619 0.15166 0.0
H253 H 0.20152 0.44638 0.10928 0.0
H254 H 0.20214 0.47135 0.09932 0.0
H255 H 0.21366 0.43716 0.02346 0.0
H256 H 0.23194 0.4253 0.06056 0.0
C257 C 0.30283 0.49365 0.06475 0.0
C258 C 0.28379 0.51115 0.13503 0.0
C259 C 0.23711 0.42803 0.27199 0.0
C260 C 0.21806 0.42164 0.26401 0.0
C261 C 0.21212 0.41774 0.2131 0.0
C262 C 0.22349 0.42343 0.17129 0.0
C263 C 0.24081 0.43309 0.18068 0.0
C264 C 0.24836 0.43334 0.22949 0.0
C265 C 0.26867 0.4409 0.2297 0.0
C266 C 0.27027 0.44831 0.17421 0.0
C267 C 0.25332 0.44469 0.14717 0.0
C268 C 0.28215 0.42391 0.24177 0.0
C269 C 0.27084 0.45723 0.26956 0.0
C270 C 0.21787 0.48039 1.00838 0.0
C271 C 0.22067 0.49763 0.98171 0.0
C272 C 0.2382 0.50765 0.98931 0.0
C273 C 0.25221 0.50078 0.02437 0.0
C274 C 0.24871 0.48368 0.05198 0.0
C275 C 0.23161 0.47396 0.04338 0.0
C276 C 0.2293 0.45648 0.07613 0.0
C277 C 0.24801 0.45688 0.10587 0.0
C278 C 0.25968 0.47276 0.09188 0.0
C279 C 0.22822 0.43872 0.04038 0.0
C280 C 0.21121 0.45903 0.11097 0.0
H281 H 0.31267 0.44121 0.20736 0.0
H282 H 0.32846 0.50839 0.16128 0.0
H283 H 0.27791 0.50971 0.17465 0.0
H284 H 0.27189 0.51569 0.10997 0.0
H285 H 0.29483 0.52273 0.13529 0.0
H286 H 0.31102 0.48034 0.05642 0.0
H287 H 0.31309 0.50592 0.06465 0.0
H288 H 0.29266 0.49553 0.03275 0.0
H289 H 0.24264 0.43037 0.31028 0.0
H290 H 0.19813 0.41153 0.20548 0.0
H291 H 0.21823 0.42077 0.13322 0.0
H292 H 0.27488 0.41274 0.26547 0.0
H293 H 0.29465 0.42849 0.26519 0.0
H294 H 0.28722 0.41683 0.20591 0.0
H295 H 0.26092 0.46915 0.26057 0.0
H296 H 0.28564 0.46309 0.2699 0.0
H297 H 0.26781 0.45202 0.30908 0.0
H298 H 0.34174 0.45556 0.24138 0.0
C299 C 0.31509 0.45625 0.20166 0.0
C300 C 0.0747 0.2228 0.30113 0.0
C301 C 0.08741 0.20759 0.28992 0.0
C302 C 0.09988 0.20968 0.24715 0.0
C303 C 0.08153 0.23682 0.21849 0.0
C304 C 0.07226 0.23741 0.26514 0.0
C305 C 0.05889 0.25423 0.26917 0.0
H306 H 0.04189 0.33899 0.16218 0.0
C307 C 0.07244 0.25072 0.18423 0.0
C308 C 0.05984 0.2617 0.21419 0.0
H309 H 0.03254 0.32063 0.31945 0.0
H310 H 0.03532 0.28758 0.29315 0.0
H311 H 0.07625 0.3064 0.1245 0.0
H312 H 0.01551 0.29363 0.10259 0.0
H313 H 0.03123 0.29858 0.04845 0.0
H314 H 0.02364 0.3177 0.08922 0.0
H315 H 0.06163 0.32363 0.09114 0.0
H316 H 0.06692 0.30088 0.06158 0.0
C317 C 0.06721 0.2686 0.30932 0.0
C318 C 0.03846 0.24696 0.28261 0.0
C319 C 0.06202 0.22776 1.00388 0.0
C320 C 0.04547 0.22935 0.97347 0.0
C321 C 0.03247 0.24436 0.98497 0.0
C322 C 0.03606 0.25736 0.02593 0.0
C323 C 0.05272 0.25534 0.0558 0.0
C324 C 0.06467 0.23987 0.04647 0.0
C325 C 0.07776 0.23588 0.0912 0.0
C326 C 0.07063 0.25074 0.12991 0.0
C327 C 0.05767 0.26349 0.10686 0.0
C328 C 0.09855 0.24016 0.07411 0.0
C329 C 0.07491 0.21481 0.10983 0.0
C330 C 0.04043 0.32781 0.19078 0.0
C331 C 0.03812 0.33257 0.24373 0.0
C332 C 0.03545 0.31753 0.27931 0.0
C333 C 0.03736 0.29843 0.2645 0.0
C334 C 0.04207 0.2941 0.21362 0.0
C335 C 0.04199 0.30818 0.17635 0.0
C336 C 0.04552 0.29929 0.12339 0.0
C337 C 0.04869 0.27805 0.13706 0.0
C338 C 0.04858 0.27607 0.19069 0.0
C339 C 0.06365 0.30809 0.09873 0.0
C340 C 0.02792 0.30236 0.08895 0.0
H341 H 0.10641 0.22551 0.17872 0.0
H342 H 0.06547 0.22269 0.33454 0.0
H343 H 0.03453 0.2344 0.25825 0.0
H344 H 0.02741 0.25799 0.27573 0.0
H345 H 0.03754 0.24251 0.32357 0.0
H346 H 0.07155 0.28239 0.29123 0.0
H347 H 0.08029 0.26307 0.32864 0.0
H348 H 0.0568 0.2716 0.3407 0.0
H349 H 0.07187 0.216 0.9977 0.0
H350 H 0.01927 0.24567 0.96336 0.0
H351 H 0.02519 0.26763 0.0361 0.0
H352 H 0.09952 0.25432 0.05453 0.0
H353 H 0.10365 0.22898 0.04685 0.0
H354 H 0.10851 0.2408 0.10706 0.0
H355 H 0.06356 0.21378 0.13983 0.0
H356 H 0.08837 0.20857 0.12454 0.0
H357 H 0.07057 0.20481 0.07876 0.0
H358 H 0.11102 0.1993 0.23945 0.0
C359 C 0.09703 0.22445 0.21145 0.0
C360 C 0.29967 0.03523 0.99781 0.0
C361 C 0.31606 0.04386 0.97467 0.0
C362 C 0.32091 0.06282 0.98786 0.0
C363 C 0.29577 0.06341 0.05205 0.0
C364 C 0.2894 0.04558 0.03606 0.0
C365 C 0.27109 0.03994 0.0647 0.0
H366 H 0.20903 0.06286 0.2631 0.0
C367 C 0.2841 0.06972 0.09617 0.0
C368 C 0.26898 0.05645 0.10349 0.0
H369 H 0.20159 0.01589 0.15667 0.0
H370 H 0.23174 0.02472 0.11362 0.0
H371 H 0.2502 0.05436 0.28406 0.0
H372 H 0.2232 0.09506 0.18568 0.0
H373 H 0.24203 0.10721 0.21742 0.0
H374 H 0.22326 0.09602 0.25473 0.0
H375 H 0.24454 0.07789 0.30678 0.0
H376 H 0.26759 0.07248 0.27839 0.0
C377 C 0.27408 0.02053 0.09165 0.0
C378 C 0.25445 0.03954 0.0257 0.0
C379 C 0.31389 0.11803 0.21818 0.0
C380 C 0.31003 0.12141 0.27066 0.0
C381 C 0.2913 0.11749 0.28899 0.0
C382 C 0.27789 0.10793 0.2581 0.0
C383 C 0.28336 0.10155 0.20898 0.0
C384 C 0.3008 0.10729 0.1889 0.0
C385 C 0.30493 0.09788 0.13791 0.0
C386 C 0.28757 0.08457 0.13259 0.0
C387 C 0.27501 0.08696 0.17408 0.0
C388 C 0.324 0.08662 0.14325 0.0
C389 C 0.30537 0.11369 0.09588 0.0
C390 C 0.21356 0.05464 0.22983 0.0
C391 C 0.20258 0.03904 0.21255 0.0
C392 C 0.20964 0.02819 0.17048 0.0
C393 C 0.22703 0.03342 0.14528 0.0
C394 C 0.23756 0.04953 0.16266 0.0
C395 C 0.23069 0.05953 0.20492 0.0
C396 C 0.24382 0.07533 0.22168 0.0
C397 C 0.25897 0.07455 0.18004 0.0
C398 C 0.25572 0.05927 0.14531 0.0
C399 C 0.25192 0.06992 0.2755 0.0
C400 C 0.23257 0.09447 0.22024 0.0
H401 H 0.31546 0.0869 0.03464 0.0
H402 H 0.29526 0.02086 0.98707 0.0
H403 H 0.25466 0.05274 1.00169 0.0
H404 H 0.24027 0.03908 0.04452 0.0
H405 H 0.2557 0.02696 0.9996 0.0
H406 H 0.28743 0.0209 0.11504 0.0
H407 H 0.2754 1.00876 0.06298 0.0
H408 H 0.26215 0.01694 0.11799 0.0
H409 H 0.32768 0.12176 0.20166 0.0
H410 H 0.28737 0.12002 0.32869 0.0
H411 H 0.26425 0.10472 0.27522 0.0
H412 H 0.32386 0.0779 0.17906 0.0
H413 H 0.33649 0.09658 0.14509 0.0
H414 H 0.32674 0.07649 0.1117 0.0
H415 H 0.29923 0.12747 0.10974 0.0
H416 H 0.29654 0.10966 0.06201 0.0
H417 H 0.32027 0.11678 0.0829 0.0
H418 H 0.33312 0.06984 0.96985 0.0
C419 C 0.31076 0.07265 0.02577 0.0
C420 C 0.50253 0.29991 0.97627 0.0
C421 C 0.49239 0.31431 0.94868 0.0
C422 C 0.47241 0.31577 0.95614 0.0
C423 C 0.47343 0.29208 0.02344 0.0
C424 C 0.49241 0.28839 0.01268 0.0
C425 C 0.49898 0.27075 0.04276 0.0
H426 H 0.4735 0.20464 0.23068 0.0
C427 C 0.46695 0.27986 0.0658 0.0
C428 C 0.48126 0.26625 0.07636 0.0
H429 H 0.52608 0.2038 0.14294 0.0
H430 H 0.51617 0.23298 0.09738 0.0
H431 H 0.47631 0.24371 0.25942 0.0
H432 H 0.44364 0.21668 0.14243 0.0
H433 H 0.42864 0.23369 0.1727 0.0
H434 H 0.4398 0.21527 0.21071 0.0
H435 H 0.45143 0.23909 0.26954 0.0
H436 H 0.4599 0.26189 0.24511 0.0
C437 C 0.51659 0.27607 0.07552 0.0
C438 C 0.50309 0.25451 1.00407 0.0
C439 C 0.41973 0.3084 0.19035 0.0
C440 C 0.41437 0.30245 0.24007 0.0
C441 C 0.4156 0.28283 0.25249 0.0
C442 C 0.42474 0.27002 0.21902 0.0
C443 C 0.43304 0.27701 0.1734 0.0
C444 C 0.42921 0.29549 0.15774 0.0
C445 C 0.43856 0.30013 0.10692 0.0
C446 C 0.45112 0.28236 0.09944 0.0
C447 C 0.44791 0.2691 0.13885 0.0
C448 C 0.45061 0.31874 0.11258 0.0
C449 C 0.4225 0.30187 0.06585 0.0
C450 C 0.48277 0.21034 0.20078 0.0
C451 C 0.50028 0.2015 0.1895 0.0
C452 C 0.51232 0.21014 0.15198 0.0
C453 C 0.50649 0.22693 0.12526 0.0
C454 C 0.48856 0.2353 0.13662 0.0
C455 C 0.47736 0.227 0.17478 0.0
C456 C 0.45979 0.23831 0.18698 0.0
C457 C 0.46109 0.25395 0.14682 0.0
C458 C 0.47799 0.25249 0.11678 0.0
C459 C 0.46179 0.24614 0.24298 0.0
C460 C 0.44194 0.22536 0.17813 0.0
H461 H 0.4477 0.30569 0.99549 0.0
H462 H 0.51768 0.29764 0.96935 0.0
H463 H 0.49081 0.25265 0.97721 0.0
H464 H 0.5052 0.24057 0.0231 0.0
H465 H 0.51611 0.25787 0.98089 0.0
H466 H 0.51348 0.28885 0.09977 0.0
H467 H 0.52913 0.27951 0.05059 0.0
H468 H 0.52068 0.2643 0.10162 0.0
H469 H 0.41854 0.32331 0.17934 0.0
H470 H 0.41096 0.27775 0.28989 0.0
H471 H 0.42602 0.25543 0.23137 0.0
H472 H 0.46081 0.3175 0.14524 0.0
H473 H 0.44117 0.33127 0.11934 0.0
H474 H 0.45905 0.32216 0.07788 0.0
H475 H 0.40785 0.30169 0.08297 0.0
H476 H 0.42297 0.28979 0.03789 0.0
H477 H 0.42356 0.31562 0.04448 0.0
H478 H 0.46408 0.32609 0.93463 0.0
C479 C 0.46292 0.30447 0.99239 0.0
Tb480 Tb 1.0022 0.03128 0.59336 0.0
C481 C 0.0535 0.03088 0.79035 0.0
N482 N 0.05901 0.03041 0.74043 0.0
C483 C 0.08338 0.05403 0.75724 0.0
C484 C 0.06221 0.04359 0.82561 0.0
C485 C 0.07446 0.04093 0.72401 0.0
C486 C 0.07691 0.05571 0.808 0.0
C487 C 0.03693 0.01488 0.85997 0.0
C488 C 0.04085 0.01694 0.80703 0.0
C489 C 0.04427 0.02845 0.89494 0.0
C490 C 0.05686 0.04286 0.8777 0.0
Tb491 Tb 0.04244 1.01005 0.68788 0.0
N492 N 0.03461 1.0038 0.7722 0.0
C493 C 0.02707 0.99847 0.87649 0.0
C494 C 0.02656 0.98695 0.78887 0.0
C495 C 0.02218 0.98428 0.8409 0.0
H496 H 0.07943 0.03965 0.68472 0.0
H497 H 0.01524 0.97117 0.85355 0.0
H498 H 0.99872 1.0037 0.4912 0.0
H499 H 0.02274 0.10661 0.6069 0.0
H500 H 0.02291 0.97576 0.76183 0.0
H501 H 0.0243 0.99603 0.91687 0.0
H502 H 1.00382 0.07802 0.63022 0.0
H503 H 0.0952 0.06283 0.74369 0.0
H504 H 0.0411 0.02735 0.93566 0.0
H505 H 0.06315 0.05269 0.90535 0.0
H506 H 1.01068 1.00356 0.40114 0.0
H507 H 0.08395 0.06573 0.83381 0.0
H508 H 0.04305 0.10627 0.52866 0.0
N509 N 0.01206 0.03036 0.50943 0.0
C510 C 0.02215 0.04565 0.49168 0.0
C511 C 0.01409 0.01542 0.42641 0.0
C512 C 0.02976 0.04594 0.44148 0.0
C513 C 1.00734 0.01555 0.47723 0.0
C514 C 0.02564 0.03051 0.40872 0.0
N515 N 0.01559 0.0605 0.57064 0.0
C516 C 0.01348 0.0772 0.5978 0.0
C517 C 0.03487 0.07735 0.5077 0.0
C518 C 0.02455 0.06104 0.52421 0.0
C519 C 0.03509 0.09354 0.53947 0.0
C520 C 0.02377 0.09371 0.58383 0.0
H521 H 0.03109 0.03022 0.36967 0.0
H522 H 0.04755 0.06193 0.38787 0.0
H523 H 0.05252 0.08928 0.44664 0.0
O524 O 0.97935 0.04941 0.57454 0.0
O525 O 1.00075 0.99982 0.59603 0.0
O526 O 0.02857 0.98878 0.63679 0.0
O527 O 0.97603 0.01902 0.56822 0.0
O528 O 0.02938 0.01853 0.56622 0.0
O529 O 0.05054 0.02937 0.62535 0.0
O530 O 0.06438 0.99374 0.72211 0.0
O531 O 0.0396 0.04125 0.67711 0.0
O532 O 1.00761 0.0469 0.66619 0.0
O533 O 0.06195 0.99531 0.64042 0.0
O534 O 0.01198 1.00218 0.70443 0.0
O535 O 0.99368 0.02727 0.67374 0.0
C536 C 0.01334 0.98632 0.60702 0.0
C537 C 0.96345 0.03768 0.50088 0.0
C538 C 0.96816 0.05415 0.41907 0.0
C539 C 0.95819 0.03941 0.39367 0.0
C540 C 0.95311 0.02318 0.47531 0.0
C541 C 0.95043 0.02413 0.42196 0.0
C542 C 0.97051 0.05327 0.47243 0.0
C543 C 0.04662 0.02483 0.57769 0.0
C544 C 0.96907 0.03556 0.55537 0.0
C545 C 0.04114 0.06159 0.42587 0.0
C546 C 0.04392 0.07717 0.45929 0.0
C547 C 0.02418 0.05121 0.68794 0.0
C548 C 0.0706 0.96578 0.67422 0.0
C549 C 0.05333 0.93521 0.67873 0.0
C550 C 0.06958 0.92597 0.65836 0.0
C551 C 0.08666 0.9564 0.65408 0.0
C552 C 0.0541 0.95514 0.68654 0.0
C553 C 0.08614 0.93654 0.64627 0.0
C554 C 0.99646 0.01302 0.70608 0.0
C555 C 0.07025 0.98679 0.67848 0.0
H556 H 0.95651 0.0397 0.35227 0.0
H557 H 0.94764 1.01088 0.49627 0.0
H558 H 0.94271 1.01276 0.40236 0.0
H559 H 0.97895 0.06435 0.49124 0.0
H560 H 0.06945 0.91066 0.65123 0.0
H561 H 0.09946 0.96445 0.6439 0.0
H562 H 0.04183 0.96252 0.70212 0.0
H563 H 0.09854 0.92934 0.63039 0.0
Tb564 Tb 0.52833 0.03888 0.66443 0.0
C565 C 0.5165 0.95901 0.54217 0.0
N566 N 0.52024 0.97694 0.52453 0.0
C567 C 0.54063 0.96399 0.45874 0.0
C568 C 0.52522 0.94279 0.5199 0.0
C569 C 0.53125 0.97955 0.48155 0.0
C570 C 0.53788 0.94554 0.4786 0.0
C571 C 0.49677 0.93842 0.59581 0.0
C572 C 0.50256 0.95685 0.57959 0.0
C573 C 0.50614 0.92221 0.57588 0.0
C574 C 0.52039 0.9244 0.53807 0.0
Tb575 Tb 0.50538 1.00138 0.56716 0.0
N576 N 0.49396 0.97286 0.59814 0.0
C577 C 0.48143 0.93688 0.6305 0.0
C578 C 0.47805 0.97139 0.62884 0.0
C579 C 0.47181 0.95343 0.64637 0.0
H580 H 0.53262 0.99364 0.46466 0.0
H581 H 0.45953 0.95235 0.67181 0.0
H582 H 0.48723 0.05804 0.7026 0.0
H583 H 0.58979 0.06887 0.56311 0.0
H584 H 0.47039 0.9841 0.64048 0.0
H585 H 0.47653 0.92298 0.64396 0.0
H586 H 0.57274 0.04461 0.61403 0.0
H587 H 0.54972 0.96618 0.42542 0.0
H588 H 0.5021 0.90792 0.58838 0.0
H589 H 0.52709 0.91175 0.52187 0.0
H590 H 0.4707 0.08903 0.69399 0.0
H591 H 0.54492 0.93347 0.46042 0.0
H592 H 0.57445 0.10004 0.54505 0.0
N593 N 0.51135 0.06658 0.65757 0.0
C594 C 0.52054 0.08132 0.63349 0.0
C595 C 0.48463 0.08699 0.67634 0.0
C596 C 0.51168 0.09934 0.62796 0.0
C597 C 0.49393 0.06933 0.68056 0.0
C598 C 0.49346 0.10201 0.64956 0.0
N599 N 0.54678 0.06051 0.61946 0.0
C600 C 0.56526 0.05747 0.60378 0.0
C601 C 0.54823 0.09275 0.58557 0.0
C602 C 0.53862 0.07804 0.61276 0.0
C603 C 0.56661 0.08914 0.56625 0.0
C604 C 0.57526 0.07152 0.57605 0.0
H605 H 0.48616 0.11563 0.6461 0.0
H606 H 0.51447 0.12781 0.59524 0.0
H607 H 0.54642 0.12202 0.55794 0.0
O608 O 0.54958 0.05248 0.70882 0.0
O609 O 0.51001 0.04593 0.59755 0.0
O610 O 0.51972 0.0263 0.53364 0.0
O611 O 0.52323 0.04297 0.74353 0.0
O612 O 0.54975 0.01989 0.628 0.0
O613 O 0.53582 1.00901 0.55175 0.0
O614 O 0.48226 0.01715 0.53829 0.0
O615 O 0.51115 0.99042 0.64509 0.0
O616 O 0.53588 1.00874 0.67968 0.0
O617 O 0.49031 0.99032 0.50336 0.0
O618 O 0.4859 0.01736 0.61859 0.0
O619 O 0.50204 0.02525 0.69322 0.0
C620 C 0.5158 0.04364 0.54976 0.0
C621 C 0.55132 0.0394 0.79153 0.0
C622 C 0.57325 0.01381 0.81598 0.0
C623 C 0.57077 0.01907 0.86793 0.0
C624 C 0.54895 0.04436 0.84334 0.0
C625 C 0.55869 0.03423 0.88137 0.0
C626 C 0.56349 0.0242 0.77803 0.0
C627 C 0.55098 1.01253 0.58113 0.0
C628 C 0.54047 0.04948 0.75172 0.0
C629 C 0.52113 0.11393 0.60041 0.0
C630 C 0.5393 0.11061 0.57906 0.0
C631 C 0.52527 0.99299 0.6781 0.0
C632 C 0.45705 0.9972 0.51122 0.0
C633 C 0.42337 1.00589 0.52122 0.0
C634 C 0.41846 0.98639 0.52525 0.0
C635 C 0.45195 0.97771 0.5157 0.0
C636 C 0.44266 1.01114 0.51389 0.0
C637 C 0.43274 0.97239 0.52269 0.0
C638 C 0.48621 0.0207 0.66846 0.0
C639 C 0.47723 1.00352 0.50667 0.0
H640 H 0.57838 1.01169 0.89821 0.0
H641 H 0.5395 0.05598 0.85432 0.0
H642 H 0.5569 0.03814 0.9214 0.0
H643 H 0.56499 0.02018 0.73796 0.0
H644 H 0.40364 0.98201 0.53049 0.0
H645 H 0.46276 0.9666 0.51429 0.0
H646 H 0.4465 0.02617 0.50978 0.0
H647 H 0.4289 0.95738 0.52617 0.0
Tb648 Tb 0.54117 0.51154 0.57006 0.0
C649 C 0.49383 0.5033 0.76826 0.0
N650 N 0.48686 0.50532 0.72017 0.0
C651 C 0.46571 0.47847 0.73373 0.0
C652 C 0.48777 0.48824 0.80056 0.0
C653 C 0.47216 0.49383 0.70346 0.0
C654 C 0.4739 0.47537 0.78206 0.0
C655 C 0.51117 0.5179 0.83842 0.0
C656 C 0.50534 0.51773 0.78658 0.0
C657 C 0.50665 0.50212 0.86997 0.0
C658 C 0.49495 0.48724 0.85096 0.0
Tb659 Tb 0.50053 0.52871 0.6699 0.0
N660 N 0.50874 0.53277 0.755 0.0
C661 C 0.52024 0.53439 0.85753 0.0
C662 C 0.51581 0.54957 0.77482 0.0
C663 C 0.52208 0.5505 0.82592 0.0
H664 H 0.46599 0.49607 0.66584 0.0
H665 H 0.52842 0.5636 0.84075 0.0
H666 H 0.57881 0.49395 0.63174 0.0
H667 H 0.5437 0.55338 0.39588 0.0
H668 H 0.51749 0.56198 0.75046 0.0
H669 H 0.52498 0.53516 0.89715 0.0
H670 H 0.53143 0.52796 0.45407 0.0
H671 H 0.45454 0.46898 0.71964 0.0
H672 H 0.51129 0.50176 0.90971 0.0
H673 H 0.49079 0.47559 0.87625 0.0
H674 H 0.6122 0.50402 0.6506 0.0
H675 H 0.46885 0.46353 0.80554 0.0
H676 H 0.57326 0.57144 0.41866 0.0
N677 N 0.57303 0.5182 0.58487 0.0
C678 C 0.58058 0.53355 0.5602 0.0
C679 C 0.60337 0.51266 0.62565 0.0
C680 C 0.59952 0.53982 0.56906 0.0
C681 C 0.58447 0.50701 0.61497 0.0
C682 C 0.61082 0.52936 0.60325 0.0
N683 N 0.55331 0.53228 0.50976 0.0
C684 C 0.54436 0.53575 0.46401 0.0
C685 C 0.57792 0.5554 0.48876 0.0
C686 C 0.57013 0.54103 0.52073 0.0
C687 C 0.56785 0.56041 0.44429 0.0
C688 C 0.55124 0.55015 0.43113 0.0
H689 H 0.6256 0.53342 0.60998 0.0
H690 H 0.62128 0.56075 0.54762 0.0
H691 H 0.60218 0.57456 0.47708 0.0
O692 O 0.52792 0.48592 0.54598 0.0
O693 O 0.52593 0.53865 0.55642 0.0
O694 O 0.51893 0.55146 0.63564 0.0
O695 O 0.5567 0.49364 0.51911 0.0
O696 O 0.51273 0.51901 0.53861 0.0
O697 O 0.49217 0.51071 0.60386 0.0
O698 O 0.47682 0.54206 0.70485 0.0
O699 O 0.50505 0.49833 0.64917 0.0
O700 O 0.53719 0.49432 0.64048 0.0
O701 O 0.48183 0.5449 0.62399 0.0
O702 O 0.53039 0.53869 0.6844 0.0
O703 O 0.54941 0.51476 0.65149 0.0
C704 C 0.52317 0.55358 0.58648 0.0
C705 C 0.54318 0.46338 0.48786 0.0
C706 C 0.52632 0.43585 0.45116 0.0
C707 C 0.54389 0.42885 0.43239 0.0
C708 C 0.56058 0.45632 0.46841 0.0
C709 C 0.56089 0.43908 0.44092 0.0
C710 C 0.52612 0.4531 0.47905 0.0
C711 C 0.49539 0.51442 0.55501 0.0
C712 C 0.54271 0.48121 0.51815 0.0
C713 C 0.60688 0.55539 0.54069 0.0
C714 C 0.59602 0.56325 0.50053 0.0
C715 C 0.52065 0.48873 0.65984 0.0
C716 C 0.46953 0.57152 0.6669 0.0
C717 C 0.48417 0.60282 0.68219 0.0
C718 C 0.46643 0.61155 0.67211 0.0
C719 C 0.45188 0.5803 0.6572 0.0
C720 C 0.48553 0.58281 0.67923 0.0
C721 C 0.45037 0.60029 0.65982 0.0
C722 C 0.54617 0.52837 0.68551 0.0
C723 C 0.47167 0.55069 0.66289 0.0
H724 H 0.54444 0.41563 0.41047 0.0
H725 H 0.57392 0.464 0.47486 0.0
H726 H 0.57435 0.43366 0.42612 0.0
H727 H 0.51265 0.45844 0.49426 0.0
H728 H 0.46494 0.62699 0.67427 0.0
H729 H 0.43938 0.57174 0.64737 0.0
H730 H 0.49919 0.57596 0.68563 0.0
H731 H 0.43673 0.60708 0.65227 0.0
Tb732 Tb 0.02757 0.54696 0.58015 0.0
C733 C 0.014 0.49191 0.78202 0.0
N734 N 0.01954 0.48852 0.73294 0.0
C735 C 0.04194 0.46493 0.76229 0.0
C736 C 0.02271 0.48251 0.82372 0.0
C737 C 0.03263 0.47451 0.72226 0.0
C738 C 0.0372 0.46919 0.81334 0.0
C739 C 0.99085 0.50632 0.83945 0.0
C740 C 0.99839 0.50354 0.78967 0.0
C741 C 1.00015 0.49802 0.8818 0.0
C742 C 0.01609 0.48611 0.87394 0.0
Tb743 Tb 1.00474 0.50597 0.67025 0.0
N744 N 0.98964 0.51077 0.74759 0.0
C745 C 0.97376 0.51661 0.84474 0.0
C746 C 0.97241 0.51991 0.75227 0.0
C747 C 0.96437 0.52322 0.80085 0.0
H748 H 0.03629 0.47121 0.68279 0.0
H749 H 0.95094 0.53085 0.80436 0.0
H750 H 0.03881 0.5845 0.65591 0.0
H751 H 0.99117 0.55215 0.39844 0.0
H752 H 0.96512 0.52521 0.71863 0.0
H753 H 0.96736 0.51895 0.88221 0.0
H754 H 0.01573 0.54015 0.45937 0.0
H755 H 0.05273 0.45426 0.75376 0.0
H756 H 0.99474 0.50016 0.92049 0.0
H757 H 0.02272 0.47923 0.90667 0.0
H758 H 0.02303 0.61431 0.68502 0.0
H759 H 0.0443 0.46166 0.84427 0.0
H760 H 0.96919 0.57817 0.42529 0.0
N761 N 0.01621 0.57664 0.60484 0.0
C762 C 1.00082 0.58317 0.57857 0.0
C763 C 0.01639 0.60551 0.65561 0.0
C764 C 0.99167 0.60044 0.59208 0.0
C765 C 0.02515 0.58847 0.63952 0.0
C766 C 0.9992 0.61123 0.63286 0.0
N767 N 1.00728 0.55897 0.51952 0.0
C768 C 1.00629 0.55168 0.47078 0.0
C769 C 0.9821 0.58134 0.50057 0.0
C770 C 0.99624 0.57397 0.53355 0.0
C771 C 0.9799 0.57297 0.4519 0.0
C772 C 0.99238 0.55836 0.43648 0.0
H773 H 0.99261 0.62459 0.64464 0.0
H774 H 0.96881 0.62008 0.57222 0.0
H775 H 0.96031 0.6032 0.49188 0.0
O776 O 0.05149 0.5382 0.53725 0.0
O777 O 1.00096 0.53153 0.55992 0.0
O778 O 0.98573 0.5277 0.63647 0.0
O779 O 0.04468 0.56804 0.54379 0.0
O780 O 0.02213 0.51856 0.54655 0.0
O781 O 0.02763 0.49869 0.61477 0.0
O782 O 0.98821 0.48125 0.68474 0.0
O783 O 0.03567 0.51042 0.68546 0.0
O784 O 0.04812 0.53638 0.63834 0.0
O785 O 0.99204 0.49143 0.60757 0.0
O786 O 0.99893 0.53621 0.68862 0.0
O787 O 0.02659 0.55151 0.66405 0.0
C788 C 0.98505 0.53131 0.58699 0.0
C789 C 0.07747 0.55911 0.54641 0.0
C790 C 0.11034 0.54747 0.54744 0.0
C791 C 0.11479 0.56042 0.58709 0.0
C792 C 0.08209 0.57224 0.58569 0.0
C793 C 0.10075 0.57298 0.60546 0.0
C794 C 0.09178 0.54713 0.52681 0.0
C795 C 0.02715 0.50175 0.56486 0.0
C796 C 0.05754 0.55563 0.53002 0.0
C797 C 0.9763 0.60703 0.562 0.0
C798 C 0.9715 0.59745 0.51618 0.0
C799 C 0.04976 0.52235 0.67253 0.0
C800 C 0.96282 0.47608 0.62746 0.0
C801 C 0.92993 0.48784 0.6323 0.0
C802 C 0.92331 0.4699 0.61462 0.0
C803 C 0.95603 0.45828 0.61004 0.0
C804 C 0.9498 0.49078 0.63811 0.0
C805 C 0.93632 0.45523 0.60367 0.0
C806 C 0.01223 0.54929 0.69646 0.0
C807 C 0.9834 0.47898 0.63684 0.0
H808 H 0.12903 0.56077 0.60375 0.0
H809 H 0.07125 0.58151 0.60209 0.0
H810 H 0.10418 0.583 0.6359 0.0
H811 H 0.08814 0.53668 0.49733 0.0
H812 H 0.9081 0.46705 0.61037 0.0
H813 H 0.96592 0.44673 0.60185 0.0
H814 H 0.95524 0.50445 0.65142 0.0
H815 H 0.93111 0.44143 0.59042 0.0
H816 H 0.18956 1.00439 0.25118 0.0
H817 H 0.1616 0.99899 0.30764 0.0
H818 H 0.14661 0.05872 0.2944 0.0
H819 H 0.17409 0.06401 0.23773 0.0
H820 H 0.1542 0.01341 0.4006 0.0
H821 H 0.09858 0.06531 0.31008 0.0
H822 H 0.08894 0.07695 0.2245 0.0
H823 H 0.11196 0.02615 0.15454 0.0
H824 H 0.12146 0.01404 0.23975 0.0
H825 H 0.0817 0.04307 0.57987 0.0
H826 H 0.10696 0.04263 0.51381 0.0
H827 H 0.07215 1.00512 0.42012 0.0
H828 H 0.04732 1.00483 0.48684 0.0
H829 H 0.08806 0.03551 0.36378 0.0
H830 H 0.1086 0.98616 0.47745 0.0
H831 H 0.11679 0.97203 0.56133 0.0
H832 H 0.16203 0.01354 0.58056 0.0
H833 H 0.154 0.02802 0.4968 0.0
C834 C 0.18 0.01622 0.25932 0.0
C835 C 0.18409 0.03462 0.23983 0.0
C836 C 0.16412 0.01319 0.29208 0.0
C837 C 0.15182 0.02842 0.30546 0.0
C838 C 0.15559 0.04662 0.28445 0.0
C839 C 0.17141 0.04966 0.25208 0.0
C840 C 0.13568 0.02573 0.34331 0.0
C841 C 0.13975 0.01821 0.39227 0.0
C842 C 0.11664 0.03175 0.33283 0.0
C843 C 0.11092 0.03886 0.28134 0.0
C844 C 0.10153 0.05658 0.27647 0.0
C845 C 0.09609 0.06327 0.228 0.0
C846 C 0.0999 0.05233 0.18409 0.0
C847 C 0.10909 0.03465 0.18856 0.0
C848 C 0.11454 0.02788 0.23694 0.0
C849 C 0.07948 0.03461 0.54538 0.0
C850 C 0.06228 0.02425 0.53836 0.0
C851 C 0.09393 0.03441 0.50753 0.0
C852 C 0.09148 0.0239 0.46169 0.0
C853 C 0.07436 0.01348 0.45479 0.0
C854 C 0.06009 0.01344 0.49294 0.0
C855 C 0.10678 0.02372 0.42109 0.0
C856 C 0.10253 0.03072 0.37182 0.0
C857 C 0.12556 0.01701 0.43098 0.0
C858 C 0.13059 1.00827 0.48109 0.0
C859 C 0.12021 0.99236 0.49973 0.0
C860 C 0.12483 0.98428 0.54724 0.0
C861 C 0.13987 0.99193 0.57641 0.0
C862 C 0.15037 1.00764 0.55797 0.0
C863 C 0.14581 0.01577 0.51042 0.0
H864 H 0.14341 0.98566 0.61321 0.0
H865 H 0.09568 0.05754 0.1466 0.0
H866 H 0.47797 0.1697 0.2037 0.0
H867 H 0.4831 0.14296 0.26248 0.0
H868 H 0.53887 0.16583 0.30129 0.0
H869 H 0.53358 0.19299 0.24255 0.0
H870 H 0.5067 0.11434 0.27204 0.0
H871 H 0.5477 0.15565 0.43079 0.0
H872 H 0.55143 0.18874 0.46344 0.0
H873 H 0.49563 0.20302 0.40556 0.0
H874 H 0.49146 0.16997 0.37326 0.0
H875 H 0.53756 0.0476 0.46269 0.0
H876 H 0.53739 0.07393 0.40018 0.0
H877 H 0.49397 0.10281 0.48926 0.0
H878 H 0.49344 0.07605 0.55042 0.0
H879 H 0.521 0.1284 0.45519 0.0
H880 H 0.48145 0.07914 0.38179 0.0
H881 H 0.47373 0.0463 0.35268 0.0
H882 H 0.52007 0.04877 0.24358 0.0
H883 H 0.52824 0.08155 0.27268 0.0
C884 C 0.49147 0.16894 0.2242 0.0
C885 C 0.50533 0.18359 0.21841 0.0
C886 C 0.49441 0.15356 0.2579 0.0
C887 C 0.51126 0.15234 0.2873 0.0
C888 C 0.52559 0.16648 0.27982 0.0
C889 C 0.52267 0.18192 0.24572 0.0
C890 C 0.51322 0.13668 0.3268 0.0
C891 C 0.51004 0.11749 0.31192 0.0
C892 C 0.51712 0.14055 0.37943 0.0
C893 C 0.51941 0.16042 0.39899 0.0
C894 C 0.53622 0.16585 0.42512 0.0
C895 C 0.53841 0.1846 0.44358 0.0
C896 C 0.52382 0.198 0.43638 0.0
C897 C 0.50696 0.19266 0.41091 0.0
C898 C 0.50469 0.17393 0.39247 0.0
C899 C 0.52789 0.05952 0.46883 0.0
C900 C 0.51571 0.05983 0.5121 0.0
C901 C 0.52786 0.07464 0.43311 0.0
C902 C 0.51563 0.09047 0.43964 0.0
C903 C 0.50364 0.0909 0.48326 0.0
C904 C 0.50344 0.07562 0.5185 0.0
C905 C 0.51476 0.10615 0.40009 0.0
C906 C 0.51803 0.12529 0.41507 0.0
C907 C 0.51052 0.10231 0.34774 0.0
C908 C 0.50558 0.0827 0.32982 0.0
C909 C 0.49008 0.07261 0.3519 0.0
C910 C 0.48561 0.05403 0.33536 0.0
C911 C 0.49644 0.04543 0.2964 0.0
C912 C 0.51172 0.05543 0.27381 0.0
C913 C 0.51627 0.07402 0.2903 0.0
H914 H 0.49296 0.03104 0.28363 0.0
H915 H 0.52554 0.2125 0.45066 0.0
H916 H 0.34271 0.51743 0.26006 0.0
H917 H 0.37038 0.52571 0.31497 0.0
H918 H 0.3997 0.47499 0.26266 0.0
H919 H 0.3726 0.46704 0.20706 0.0
H920 H 0.39662 0.4773 0.37074 0.0
H921 H 0.41661 0.51615 0.22717 0.0
H922 H 0.41308 0.54145 0.16174 0.0
H923 H 0.40599 0.58366 0.28072 0.0
H924 H 0.4092 0.55855 0.3469 0.0
H925 H 0.49714 0.51661 0.44949 0.0
H926 H 0.47077 0.51434 0.38777 0.0
H927 H 0.43039 0.50827 0.51272 0.0
H928 H 0.45675 0.51014 0.57465 0.0
H929 H 0.43887 0.53481 0.36793 0.0
H930 H 0.39328 0.47798 0.47309 0.0
H931 H 0.39737 0.45354 0.54059 0.0
H932 H 0.45653 0.447 0.49784 0.0
H933 H 0.4526 0.47072 0.42849 0.0
C934 C 0.35534 0.50843 0.25894 0.0
C935 C 0.35532 0.49149 0.22933 0.0
C936 C 0.37109 0.51307 0.29077 0.0
C937 C 0.38708 0.5008 0.29373 0.0
C938 C 0.38751 0.48457 0.26174 0.0
C939 C 0.37198 0.48009 0.22969 0.0
C940 C 0.40281 0.50395 0.33222 0.0
C941 C 0.40579 0.48993 0.37018 0.0
C942 C 0.41491 0.52035 0.33167 0.0
C943 C 0.41291 0.53544 0.29197 0.0
C944 C 0.4141 0.5308 0.23938 0.0
C945 C 0.4122 0.54511 0.20216 0.0
C946 C 0.40925 0.56414 0.21706 0.0
C947 C 0.40824 0.56891 0.26923 0.0
C948 C 0.4101 0.55464 0.30661 0.0
C949 C 0.48267 0.5148 0.464 0.0
C950 C 0.4792 0.51334 0.51729 0.0
C951 C 0.46753 0.51361 0.4285 0.0
C952 C 0.44848 0.51093 0.4452 0.0
C953 C 0.44492 0.51003 0.4985 0.0
C954 C 0.46007 0.51108 0.53402 0.0
C955 C 0.43257 0.50823 0.40682 0.0
C956 C 0.42959 0.52226 0.3688 0.0
C957 C 0.42043 0.4918 0.40727 0.0
C958 C 0.42268 0.47635 0.446 0.0
C959 C 0.40709 0.47112 0.47757 0.0
C960 C 0.40938 0.45736 0.51609 0.0
C961 C 0.42721 0.44874 0.52351 0.0
C962 C 0.44272 0.45364 0.49189 0.0
C963 C 0.44044 0.46718 0.45281 0.0
H964 H 0.429 0.43828 0.5538 0.0
H965 H 0.4078 0.57521 0.18818 0.0
H966 H 0.0602 0.34456 0.32336 0.0
H967 H 0.05862 0.37476 0.37057 0.0
H968 H 0.01794 0.39648 0.26085 0.0
H969 H 0.01915 0.36571 0.21341 0.0
H970 H 0.04943 0.42421 0.30058 0.0
H971 H 0.99889 0.38178 0.35976 0.0
H972 H 0.98613 0.3507 0.39001 0.0
H973 H 0.02421 0.35256 0.51958 0.0
H974 H 0.03744 0.38351 0.4896 0.0
H975 H 0.01752 0.50024 0.4628 0.0
H976 H 0.02016 0.47324 0.40342 0.0
H977 H 0.04525 0.43897 0.52349 0.0
H978 H 0.04207 0.46588 0.58375 0.0
H979 H 0.02061 0.4179 0.47459 0.0
H980 H 0.07211 0.45819 0.4191 0.0
H981 H 0.0876 0.48834 0.39099 0.0
H982 H 0.05139 0.48973 0.25768 0.0
H983 H 0.03543 0.45977 0.28549 0.0
C984 C 0.05105 0.35581 0.3087 0.0
C985 C 0.03958 0.35256 0.26488 0.0
C986 C 0.0502 0.37312 0.33583 0.0
C987 C 0.03799 0.38786 0.31983 0.0
C988 C 0.02746 0.38529 0.27405 0.0
C989 C 0.0282 0.36774 0.24682 0.0
C990 C 0.0354 0.40508 0.35365 0.0
C991 C 0.04278 0.42296 0.33821 0.0
C992 C 0.02741 0.40334 0.40365 0.0
C993 C 0.01927 0.38488 0.42218 0.0
C994 C 1.00465 0.37549 0.39448 0.0
C995 C 0.99732 0.35791 0.41161 0.0
C996 C 1.00438 0.34964 0.45662 0.0
C997 C 0.01876 0.35897 0.48469 0.0
C998 C 0.02617 0.37654 0.46767 0.0
C999 C 0.02373 0.48701 0.47667 0.0
C1000 C 0.02961 0.48533 0.52829 0.0
C1001 C 0.02532 0.47152 0.4424 0.0
C1002 C 0.03316 0.45396 0.45834 0.0
C1003 C 0.03912 0.45227 0.5099 0.0
C1004 C 0.03734 0.46772 0.54443 0.0
C1005 C 0.03461 0.43726 0.42176 0.0
C1006 C 0.0271 0.41935 0.43682 0.0
C1007 C 0.04278 0.43895 0.37178 0.0
C1008 C 0.05243 0.45686 0.35468 0.0
C1009 C 0.06735 0.46502 0.38402 0.0
C1010 C 0.07623 0.48205 0.36812 0.0
C1011 C 0.07046 0.49095 0.32265 0.0
C1012 C 0.05582 0.48282 0.29293 0.0
C1013 C 0.04686 0.46582 0.30873 0.0
H1014 H 0.07736 0.50414 0.3104 0.0
H1015 H 0.99869 0.33602 0.46982 0.0
H1016 H 0.8461 0.01582 1.00243 0.0
H1017 H 0.87513 0.02326 0.95218 0.0
H1018 H 0.90055 0.97021 1.00205 0.0
H1019 H 0.8716 0.96287 0.05227 0.0
H1020 H 0.92794 0.99836 0.99229 0.0
H1021 H 0.87653 0.97227 0.89037 0.0
H1022 H 0.84358 0.97096 0.85606 0.0
H1023 H 0.85137 0.02651 0.78766 0.0
H1024 H 0.88428 0.0283 0.8224 0.0
H1025 H 0.98849 0.98085 0.7659 0.0
H1026 H 0.96423 0.97768 0.83424 0.0
H1027 H 0.94507 0.03522 0.80431 0.0
H1028 H 0.96996 0.03901 0.73897 0.0
H1029 H 0.91518 1.00542 0.80565 0.0
H1030 H 0.96689 0.03117 0.90444 0.0
H1031 H 0.99887 0.03391 0.94417 0.0
H1032 H 0.99039 0.97986 0.02 0.0
H1033 H 0.95855 0.97647 0.97952 0.0
C1034 C 0.85823 1.0062 1.00443 0.0
C1035 C 0.85671 0.98893 0.03203 0.0
C1036 C 0.87473 1.01029 0.97506 0.0
C1037 C 0.88999 0.99714 0.97242 0.0
C1038 C 0.88906 0.98061 1.00324 0.0
C1039 C 0.87255 0.97648 0.03233 0.0
C1040 C 0.90602 0.99961 0.93427 0.0
C1041 C 0.92515 0.99968 0.95142 0.0
C1042 C 0.90249 1.00164 0.88084 0.0
C1043 C 0.88279 1.00051 0.85944 0.0
C1044 C 0.87117 0.98427 0.86834 0.0
C1045 C 0.8525 0.98343 0.84879 0.0
C1046 C 0.84537 0.99867 0.8198 0.0
C1047 C 0.85691 0.01474 0.8102 0.0
C1048 C 0.87557 0.01567 0.82981 0.0
C1049 C 0.97961 0.99306 0.77504 0.0
C1050 C 0.98168 1.01035 0.74752 0.0
C1051 C 0.96554 0.99115 0.81377 0.0
C1052 C 0.95287 1.00628 0.82479 0.0
C1053 C 0.95468 0.02337 0.79677 0.0
C1054 C 0.96896 0.02545 0.75912 0.0
C1055 C 0.93711 1.00414 0.86366 0.0
C1056 C 0.918 1.00407 0.84651 0.0
C1057 C 0.94071 1.0021 0.91699 0.0
C1058 C 0.96039 1.00346 0.93843 0.0
C1059 C 0.97196 0.01968 0.92879 0.0
C1060 C 0.99 0.02144 0.9518 0.0
C1061 C 0.99654 1.00719 0.98506 0.0
C1062 C 0.98523 0.99095 0.99451 0.0
C1063 C 0.96722 0.98907 0.97142 0.0
H1064 H 1.01045 1.00866 1.00315 0.0
H1065 H 0.83092 0.99799 0.80468 0.0
H1066 H 0.54785 0.8689 0.05741 0.0
H1067 H 0.54454 0.89814 1.00499 0.0
H1068 H 0.53318 0.86325 0.87117 0.0
H1069 H 0.53658 0.83434 0.92292 0.0
H1070 H 0.55905 0.88915 0.84741 0.0
H1071 H 0.49783 0.89044 0.93453 0.0
H1072 H 0.47623 0.89116 1.00981 0.0
H1073 H 0.50224 0.9439 0.06044 0.0
H1074 H 0.52418 0.94336 0.98574 0.0
H1075 H 0.52371 0.95419 0.66404 0.0
H1076 H 0.52686 0.92881 0.72771 0.0
H1077 H 0.53904 0.97125 0.84433 0.0
H1078 H 0.53436 0.99682 0.78059 0.0
H1079 H 0.51572 0.94382 0.88275 0.0
H1080 H 0.57277 0.94469 0.78327 0.0
H1081 H 0.59228 0.94408 0.70426 0.0
H1082 H 0.57409 0.88616 0.6747 0.0
H1083 H 0.55363 0.88678 0.75211 0.0
C1084 C 0.54424 0.86753 0.01706 0.0
C1085 C 0.54256 0.84923 0.99444 0.0
C1086 C 0.54243 0.88427 0.98693 0.0
C1087 C 0.53871 0.88306 0.93364 0.0
C1088 C 0.53627 0.86475 0.91181 0.0
C1089 C 0.53813 0.84816 0.94164 0.0
C1090 C 0.53796 0.90054 0.89965 0.0
C1091 C 0.5494 0.90099 0.8549 0.0
C1092 C 0.52591 0.91643 0.90995 0.0
C1093 C 0.5128 0.91673 0.95493 0.0
C1094 C 0.49906 0.9021 0.96198 0.0
C1095 C 0.48673 0.90249 1.00448 0.0
C1096 C 0.48791 0.91753 0.03999 0.0
C1097 C 0.50138 0.93224 0.03297 0.0
C1098 C 0.51376 0.9319 0.99055 0.0
C1099 C 0.52665 0.95818 0.70327 0.0
C1100 C 0.5287 0.97759 0.71692 0.0
C1101 C 0.52876 0.94358 0.7398 0.0
C1102 C 0.53343 0.94793 0.79116 0.0
C1103 C 0.5355 0.96738 0.8051 0.0
C1104 C 0.53316 0.98202 0.76839 0.0
C1105 C 0.53634 0.93211 0.82962 0.0
C1106 C 0.52545 0.93203 0.8753 0.0
C1107 C 0.54883 0.91645 0.81991 0.0
C1108 C 0.56151 0.91586 0.77366 0.0
C1109 C 0.57278 0.93188 0.7598 0.0
C1110 C 0.58393 0.93156 0.71505 0.0
C1111 C 0.58449 0.91506 0.68456 0.0
C1112 C 0.57369 0.89893 0.69844 0.0
C1113 C 0.5622 0.8993 0.74263 0.0
H1114 H 0.59328 0.91478 0.65019 0.0
H1115 H 0.47834 0.91782 0.07285 0.0
H1116 H 0.66802 0.57743 0.03861 0.0
H1117 H 0.64023 0.57199 0.98304 0.0
H1118 H 0.65444 0.51197 0.97273 0.0
H1119 H 0.68243 0.51745 0.02848 0.0
H1120 H 0.64999 0.52772 0.87856 0.0
H1121 H 0.61317 0.5274 0.0344 0.0
H1122 H 0.60192 0.53983 0.11799 0.0
H1123 H 0.58059 0.59045 0.04418 0.0
H1124 H 0.59196 0.57846 0.9602 0.0
H1125 H 0.57093 0.50166 0.72322 0.0
H1126 H 0.59447 0.50499 0.79169 0.0
H1127 H 0.57724 0.56367 0.81533 0.0
H1128 H 0.55386 0.56052 0.74518 0.0
H1129 H 0.58252 0.54782 0.90548 0.0
H1130 H 0.62751 0.55469 0.7629 0.0
H1131 H 0.6436 0.5473 0.68074 0.0
H1132 H 0.65078 0.48875 0.72813 0.0
H1133 H 0.63527 0.4961 0.81145 0.0
C1134 C 0.66493 0.56296 0.02563 0.0
C1135 C 0.67743 0.54785 0.03824 0.0
C1136 C 0.64897 0.55984 0.99383 0.0
C1137 C 0.64505 0.54153 0.97352 0.0
C1138 C 0.65704 0.52623 0.98788 0.0
C1139 C 0.67297 0.52932 0.0202 0.0
C1140 C 0.62973 0.53885 0.93346 0.0
C1141 C 0.63514 0.53171 0.88508 0.0
C1142 C 0.61047 0.54487 0.94061 0.0
C1143 C 0.60357 0.55209 0.99104 0.0
C1144 C 0.60622 0.54125 0.03603 0.0
C1145 C 0.59979 0.54821 0.08349 0.0
C1146 C 0.59058 0.56594 0.08641 0.0
C1147 C 0.58774 0.57673 0.04186 0.0
C1148 C 0.59415 0.56985 0.99431 0.0
C1149 C 0.57227 0.51541 0.7423 0.0
C1150 C 0.56039 0.53083 0.72826 0.0
C1151 C 0.58587 0.51732 0.78168 0.0
C1152 C 0.58812 0.53473 0.80848 0.0
C1153 C 0.576 0.55008 0.79534 0.0
C1154 C 0.56247 0.54822 0.75536 0.0
C1155 C 0.60282 0.5366 0.85066 0.0
C1156 C 0.59731 0.54363 0.89931 0.0
C1157 C 0.62214 0.53084 0.84377 0.0
C1158 C 0.62994 0.52584 0.79267 0.0
C1159 C 0.63227 0.5402 0.75536 0.0
C1160 C 0.64148 0.53606 0.70891 0.0
C1161 C 0.64809 0.51751 0.69901 0.0
C1162 C 0.64562 0.5031 0.73578 0.0
C1163 C 0.63674 0.50727 0.78276 0.0
H1164 H 0.65514 0.51432 0.66287 0.0
H1165 H 0.58562 0.5713 0.12319 0.0
H1166 H 0.01904 0.69492 0.01342 0.0
H1167 H 0.02694 0.66555 0.96538 0.0
H1168 H 0.96828 0.64617 0.98055 0.0
H1169 H 0.96062 0.67509 0.02948 0.0
H1170 H 0.99021 0.61606 0.98148 0.0
H1171 H 0.9854 0.67165 0.87291 0.0
H1172 H 0.9936 0.70422 0.84278 0.0
H1173 H 0.0517 0.68668 0.81471 0.0
H1174 H 0.0439 0.65406 0.84542 0.0
H1175 H 0.97977 0.56029 0.74945 0.0
H1176 H 0.97727 0.58437 0.81808 0.0
H1177 H 0.03835 0.5942 0.81 0.0
H1178 H 0.04104 0.56965 0.74299 0.0
H1179 H 0.0175 0.62817 0.80804 0.0
H1180 H 0.02045 0.57105 0.9093 0.0
H1181 H 1.01088 0.53855 0.93693 0.0
H1182 H 0.95462 0.55898 0.97556 0.0
H1183 H 0.96373 0.59156 0.94721 0.0
C1184 C 1.00807 0.68402 1.00823 0.0
C1185 C 0.98922 0.68732 0.02543 0.0
C1186 C 0.01249 0.66733 0.97998 0.0
C1187 C 0.9981 0.65372 0.96789 0.0
C1188 C 0.97968 0.65635 0.98881 0.0
C1189 C 0.9753 0.67291 0.01705 0.0
C1190 C 1.00157 0.63764 0.93033 0.0
C1191 C 0.99608 0.61879 0.94349 0.0
C1192 C 1.00942 0.64092 0.88062 0.0
C1193 C 0.01413 0.66049 0.86205 0.0
C1194 C 0.99996 0.67478 0.86068 0.0
C1195 C 1.00453 0.69325 0.84346 0.0
C1196 C 0.02318 0.69754 0.827 0.0
C1197 C 0.03728 0.68335 0.8276 0.0
C1198 C 0.03279 0.66487 0.84491 0.0
C1199 C 0.99273 0.56724 0.76307 0.0
C1200 C 1.0106 0.56299 0.74052 0.0
C1201 C 0.99127 0.58114 0.80214 0.0
C1202 C 1.00763 0.5912 0.81937 0.0
C1203 C 0.0255 0.58678 0.79734 0.0
C1204 C 0.02699 0.57272 0.75889 0.0
C1205 C 1.00608 0.6067 0.85921 0.0
C1206 C 0.01183 0.62544 0.84627 0.0
C1207 C 0.99828 0.60333 0.9088 0.0
C1208 C 0.99274 0.58374 0.92576 0.0
C1209 C 1.00598 0.56859 0.92324 0.0
C1210 C 1.00066 0.55015 0.93913 0.0
C1211 C 0.98218 0.54672 0.95811 0.0
C1212 C 0.96895 0.56168 0.96097 0.0
C1213 C 0.97418 0.58014 0.94499 0.0
H1214 H 0.97811 0.53245 0.97059 0.0
H1215 H 0.02669 0.71184 0.81365 0.0
H1216 H 0.07287 0.19952 0.38716 0.0
H1217 H 0.05517 0.17085 0.40805 0.0
H1218 H 0.08024 0.14185 0.27738 0.0
H1219 H 0.09522 0.1715 0.25085 0.0
H1220 H 0.04629 0.13701 0.2676 0.0
H1221 H 0.08394 0.12609 0.41768 0.0
H1222 H 0.10122 0.13364 0.49801 0.0
H1223 H 0.04886 0.15349 0.56691 0.0
H1224 H 0.0313 0.14618 0.48685 0.0
H1225 H 0.995 0.05084 0.34337 0.0
H1226 H 0.01821 0.07575 0.31829 0.0
H1227 H 0.9876 0.11712 0.41046 0.0
H1228 H 0.96448 0.09231 0.43548 0.0
H1229 H 0.02519 0.11355 0.43836 0.0
H1230 H 0.98891 0.12212 0.28321 0.0
H1231 H 0.97303 0.11182 0.20302 0.0
H1232 H 0.02687 0.09164 0.14378 0.0
H1233 H 0.04304 0.10158 0.22397 0.0
C1234 C 0.07464 0.18716 0.36242 0.0
C1235 C 0.08455 0.18852 0.31528 0.0
C1236 C 0.06484 0.17036 0.37549 0.0
C1237 C 0.06597 0.15401 0.34388 0.0
C1238 C 0.07861 0.15438 0.30174 0.0
C1239 C 0.08756 0.17148 0.28705 0.0
C1240 C 0.05178 0.13805 0.34951 0.0
C1241 C 0.04229 0.1314 0.30502 0.0
C1242 C 0.04584 0.13104 0.39813 0.0
C1243 C 0.05634 0.13567 0.44619 0.0
C1244 C 0.07615 0.13218 0.44986 0.0
C1245 C 0.08598 0.13638 0.49537 0.0
C1246 C 0.07615 0.14406 0.53751 0.0
C1247 C 0.05646 0.14756 0.53422 0.0
C1248 C 0.04655 0.14337 0.48882 0.0
C1249 C 0.9928 0.06545 0.35633 0.0
C1250 C 0.97804 0.06975 0.39125 0.0
C1251 C 1.0061 0.07962 0.34234 0.0
C1252 C 1.00466 0.0982 0.36297 0.0
C1253 C 0.989 0.10283 0.39446 0.0
C1254 C 0.97574 0.08873 0.40834 0.0
C1255 C 0.02049 0.1122 0.35669 0.0
C1256 C 0.02992 0.1187 0.40107 0.0
C1257 C 0.02686 0.11844 0.30797 0.0
C1258 C 0.01714 0.11241 0.25982 0.0
C1259 C 0.99733 0.11532 0.25329 0.0
C1260 C 0.98829 0.10958 0.20779 0.0
C1261 C 0.99893 0.10103 0.16839 0.0
C1262 C 0.01864 0.09824 0.17437 0.0
C1263 C 0.02776 0.10393 0.21981 0.0
H1264 H 0.9919 0.09661 0.13317 0.0
H1265 H 0.08379 0.14729 0.57271 0.0
H1266 H 0.34756 0.10973 0.25964 0.0
H1267 H 0.36868 0.10136 0.32859 0.0
H1268 H 0.33082 0.12824 0.43801 0.0
H1269 H 0.30975 0.13812 0.36809 0.0
H1270 H 0.3877 0.11205 0.41896 0.0
H1271 H 0.31708 0.09205 0.51346 0.0
H1272 H 0.28266 0.08969 0.49119 0.0
H1273 H 0.29744 0.07338 0.33672 0.0
H1274 H 0.33185 0.07539 0.3584 0.0
H1275 H 0.42273 0.03907 0.57721 0.0
H1276 H 0.4022 0.0669 0.56208 0.0
H1277 H 0.37073 0.03468 0.44774 0.0
H1278 H 0.39089 1.00679 0.46367 0.0
H1279 H 0.34758 0.05974 0.49292 0.0
H1280 H 0.41061 0.06019 0.41325 0.0
H1281 H 0.44593 0.05807 0.41714 0.0
H1282 H 0.4479 0.10766 0.51529 0.0
H1283 H 0.4125 0.10992 0.51247 0.0
C1284 C 0.34398 0.11506 0.29751 0.0
C1285 C 0.32618 0.12384 0.30804 0.0
C1286 C 0.35629 0.11014 0.33737 0.0
C1287 C 0.35097 0.1136 0.38846 0.0
C1288 C 0.33496 0.12512 0.39869 0.0
C1289 C 0.32277 0.13047 0.35856 0.0
C1290 C 0.35901 0.10094 0.42848 0.0
C1291 C 0.37889 0.10102 0.43681 0.0
C1292 C 0.34759 0.08607 0.4499 0.0
C1293 C 0.32695 0.08405 0.43744 0.0
C1294 C 0.31293 0.08786 0.47489 0.0
C1295 C 0.29344 0.08659 0.46235 0.0
C1296 C 0.28786 0.08144 0.41253 0.0
C1297 C 0.30175 0.07739 0.37526 0.0
C1298 C 0.32123 0.07857 0.38767 0.0
C1299 C 0.41106 0.03782 0.54993 0.0
C1300 C 0.40852 0.02094 0.52098 0.0
C1301 C 0.39935 0.05369 0.54139 0.0
C1302 C 0.3852 0.05298 0.50306 0.0
C1303 C 0.38155 0.03556 0.47753 0.0
C1304 C 0.3931 0.01962 0.48653 0.0
C1305 C 0.37632 0.0708 0.48344 0.0
C1306 C 0.35631 0.07147 0.47824 0.0
C1307 C 0.38773 0.0859 0.46298 0.0
C1308 C 0.40897 0.08511 0.46309 0.0
C1309 C 0.4186 0.07063 0.43568 0.0
C1310 C 0.43859 0.06938 0.43774 0.0
C1311 C 0.44911 0.08268 0.46659 0.0
C1312 C 0.43969 0.09735 0.49308 0.0
C1313 C 0.41967 0.09863 0.49126 0.0
H1314 H 0.46455 0.08159 0.46837 0.0
H1315 H 0.27277 0.08057 0.40281 0.0
H1316 H 0.39461 0.33664 0.23884 0.0
H1317 H 0.40192 0.36449 0.29317 0.0
H1318 H 0.43904 0.32945 0.38621 0.0
H1319 H 0.43142 0.30178 0.33365 0.0
H1320 H 0.42731 0.35746 0.4427 0.0
H1321 H 0.45869 0.35352 0.27314 0.0
H1322 H 0.45964 0.35152 0.17854 0.0
H1323 H 0.42246 0.4003 0.16797 0.0
H1324 H 0.42188 0.40295 0.26285 0.0
H1325 H 0.5197 0.39738 0.46048 0.0
H1326 H 0.48994 0.37991 0.44295 0.0
H1327 H 0.46243 0.43277 0.39998 0.0
H1328 H 0.49208 0.4505 0.419 0.0
H1329 H 0.46022 0.40361 0.32662 0.0
H1330 H 0.4468 0.4117 0.50397 0.0
H1331 H 0.45418 0.41183 0.59671 0.0
H1332 H 0.46352 0.351 0.59193 0.0
H1333 H 0.45653 0.35062 0.49898 0.0
C1334 C 0.40371 0.33477 0.27217 0.0
C1335 C 0.41271 0.31709 0.28133 0.0
C1336 C 0.40796 0.3507 0.30303 0.0
C1337 C 0.42157 0.34922 0.34265 0.0
C1338 C 0.42859 0.33105 0.35573 0.0
C1339 C 0.42414 0.31512 0.32551 0.0
C1340 C 0.43129 0.36648 0.3641 0.0
C1341 C 0.43434 0.36771 0.41746 0.0
C1342 C 0.44031 0.38006 0.33136 0.0
C1343 C 0.43999 0.37824 0.27474 0.0
C1344 C 0.45062 0.36371 0.25054 0.0
C1345 C 0.45112 0.36249 0.19693 0.0
C1346 C 0.44088 0.37559 0.16717 0.0
C1347 C 0.43029 0.39009 0.19106 0.0
C1348 C 0.42996 0.39154 0.24473 0.0
C1349 C 0.50723 0.40533 0.4482 0.0
C1350 C 0.50817 0.4253 0.44154 0.0
C1351 C 0.49021 0.39537 0.43856 0.0
C1352 C 0.47391 0.40515 0.42125 0.0
C1353 C 0.47478 0.42507 0.4143 0.0
C1354 C 0.49171 0.43513 0.42504 0.0
C1355 C 0.45684 0.39408 0.40479 0.0
C1356 C 0.45249 0.39401 0.35229 0.0
C1357 C 0.44725 0.38121 0.43823 0.0
C1358 C 0.45112 0.38119 0.49443 0.0
C1359 C 0.4505 0.3984 0.52269 0.0
C1360 C 0.45462 0.3985 0.57529 0.0
C1361 C 0.45926 0.38142 0.60023 0.0
C1362 C 0.45984 0.36422 0.57258 0.0
C1363 C 0.45577 0.36405 0.51992 0.0
H1364 H 0.46242 0.38151 0.64097 0.0
H1365 H 0.44126 0.37457 0.12562 0.0
H1366 H 0.1803 0.43187 0.25613 0.0
H1367 H 0.16083 0.44554 0.32366 0.0
H1368 H 0.20348 0.43057 0.436 0.0
H1369 H 0.22295 0.41566 0.3687 0.0
H1370 H 0.15227 0.43669 0.45463 0.0
H1371 H 0.21881 0.46735 0.41728 0.0
H1372 H 0.24329 0.47443 0.35097 0.0
H1373 H 0.1997 0.49685 0.25156 0.0
H1374 H 0.17503 0.48994 0.31748 0.0
H1375 H 0.12962 0.52085 0.60372 0.0
H1376 H 0.14847 0.49384 0.57003 0.0
H1377 H 0.14037 0.51489 0.41559 0.0
H1378 H 0.12163 0.54171 0.44907 0.0
H1379 H 0.17655 0.50325 0.43055 0.0
H1380 H 0.1127 0.48057 0.45719 0.0
H1381 H 0.08301 0.47404 0.50615 0.0
H1382 H 0.11389 0.43638 0.6065 0.0
H1383 H 0.14386 0.44296 0.55855 0.0
C1384 C 0.18523 0.43028 0.29532 0.0
C1385 C 0.20365 0.42312 0.30639 0.0
C1386 C 0.17393 0.43819 0.33411 0.0
C1387 C 0.18087 0.43926 0.38448 0.0
C1388 C 0.19793 0.42984 0.39716 0.0
C1389 C 0.20918 0.42162 0.35836 0.0
C1390 C 0.17347 0.45464 0.41794 0.0
C1391 C 0.15789 0.45117 0.45092 0.0
C1392 C 0.18024 0.47359 0.41081 0.0
C1393 C 0.19518 0.47817 0.37212 0.0
C1394 C 0.21451 0.47381 0.38127 0.0
C1395 C 0.22839 0.47776 0.34374 0.0
C1396 C 0.22304 0.48607 0.29702 0.0
C1397 C 0.20382 0.49045 0.28776 0.0
C1398 C 0.18991 0.48659 0.32522 0.0
C1399 C 0.13231 0.51987 0.56277 0.0
C1400 C 0.12434 0.53329 0.52884 0.0
C1401 C 0.14286 0.5044 0.54358 0.0
C1402 C 0.14563 0.50233 0.49035 0.0
C1403 C 0.13839 0.51625 0.45679 0.0
C1404 C 0.12775 0.53155 0.47585 0.0
C1405 C 0.15553 0.48544 0.46871 0.0
C1406 C 0.17143 0.4887 0.4368 0.0
C1407 C 0.14854 0.46647 0.47574 0.0
C1408 C 0.13058 0.46247 0.50474 0.0
C1409 C 0.1132 0.47105 0.49001 0.0
C1410 C 0.09631 0.46731 0.51749 0.0
C1411 C 0.09657 0.45484 0.5595 0.0
C1412 C 0.11372 0.44607 0.57402 0.0
C1413 C 0.13067 0.4498 0.54671 0.0
H1414 H 0.08348 0.45195 0.58069 0.0
H1415 H 0.23376 0.48921 0.26802 0.0
H1416 H 0.94308 0.81791 0.86181 0.0
H1417 H 0.95342 0.83923 0.79433 0.0
H1418 H 0.92581 0.88663 0.87027 0.0
H1419 H 0.91385 0.86503 0.93696 0.0
H1420 H 0.94234 0.87477 0.72807 0.0
H1421 H 0.96377 0.91031 0.90899 0.0
H1422 H 0.96447 0.90429 1.00264 0.0
H1423 H 0.98052 0.84574 0.97505 0.0
H1424 H 0.98018 0.85156 0.88135 0.0
H1425 H 0.01571 0.9462 0.6684 0.0
H1426 H 0.98707 0.92974 0.69957 0.0
H1427 H 0.02204 0.8833 0.75471 0.0
H1428 H 0.05088 0.8997 0.72348 0.0
H1429 H 0.99774 0.89915 0.82949 0.0
H1430 H 0.99155 0.8714 0.65477 0.0
H1431 H 0.98927 0.87338 0.56035 0.0
H1432 H 0.94399 0.91462 0.57382 0.0
H1433 H 0.94558 0.91238 0.66862 0.0
C1434 C 0.93797 0.83252 0.86319 0.0
C1435 C 0.92831 0.83982 0.90673 0.0
C1436 C 0.94398 0.84478 0.82398 0.0
C1437 C 0.94078 0.86452 0.82813 0.0
C1438 C 0.92856 0.8714 0.8668 0.0
C1439 C 0.92207 0.85903 0.90548 0.0
C1440 C 0.95478 0.87754 0.80348 0.0
C1441 C 0.95423 0.88054 0.75023 0.0
C1442 C 0.97048 0.88463 0.83235 0.0
C1443 C 0.9719 0.88136 0.88845 0.0
C1444 C 0.96763 0.89623 0.92305 0.0
C1445 C 0.96793 0.89284 0.97607 0.0
C1446 C 0.97254 0.87464 0.99478 0.0
C1447 C 0.977 0.85984 0.96052 0.0
C1448 C 0.97678 0.86318 0.90751 0.0
C1449 C 0.01737 0.93235 0.68623 0.0
C1450 C 0.03569 0.92428 0.69306 0.0
C1451 C 1.00091 0.92293 0.70393 0.0
C1452 C 1.00246 0.90531 0.72927 0.0
C1453 C 0.02059 0.89691 0.73502 0.0
C1454 C 0.03705 0.90624 0.71684 0.0
C1455 C 0.98546 0.89638 0.75373 0.0
C1456 C 0.98557 0.89405 0.80728 0.0
C1457 C 0.96942 0.89 0.72503 0.0
C1458 C 0.96876 0.89181 0.66848 0.0
C1459 C 0.98118 0.88095 0.63751 0.0
C1460 C 0.97996 0.88207 0.58397 0.0
C1461 C 0.96659 0.89421 0.56102 0.0
C1462 C 0.95433 0.9052 0.59164 0.0
C1463 C 0.95528 0.90392 0.64526 0.0
H1464 H 0.96568 0.89503 0.51954 0.0
H1465 H 0.97262 0.872 0.0358 0.0
H1466 H 0.68263 0.90289 0.94851 0.0
H1467 H 0.65972 0.90999 0.88184 0.0
H1468 H 0.70385 0.93937 0.79498 0.0
H1469 H 0.72613 0.93471 0.86488 0.0
H1470 H 0.67969 0.96307 0.80999 0.0
H1471 H 0.67156 0.90157 0.74383 0.0
H1472 H 0.66804 0.86644 0.73814 0.0
H1473 H 0.61454 0.86931 0.82003 0.0
H1474 H 0.61786 0.90438 0.82728 0.0
H1475 H 0.59737 1.01158 0.73228 0.0
H1476 H 0.6217 0.98733 0.71517 0.0
H1477 H 0.60368 0.9562 0.85031 0.0
H1478 H 0.57855 0.97971 0.86605 0.0
H1479 H 0.6173 0.93191 0.77159 0.0
H1480 H 0.63645 0.99173 0.86186 0.0
H1481 H 0.63997 0.02698 0.86472 0.0
H1482 H 0.67373 0.02555 0.72629 0.0
H1483 H 0.67024 0.99029 0.72247 0.0
C1484 C 0.6876 0.91076 0.91514 0.0
C1485 C 0.706 0.9192 0.91405 0.0
C1486 C 0.67448 0.91439 0.8759 0.0
C1487 C 0.67979 0.9257 0.83337 0.0
C1488 C 0.69917 0.93105 0.82792 0.0
C1489 C 0.71207 0.92815 0.86817 0.0
C1490 C 0.66469 0.93586 0.8035 0.0
C1491 C 0.66638 0.95594 0.79944 0.0
C1492 C 0.64708 0.92695 0.78958 0.0
C1493 C 0.64502 0.90572 0.78616 0.0
C1494 C 0.65911 0.89473 0.76106 0.0
C1495 C 0.65714 0.8748 0.75751 0.0
C1496 C 0.64108 0.86565 0.77873 0.0
C1497 C 0.62696 0.87642 0.80356 0.0
C1498 C 0.62887 0.89635 0.80732 0.0
C1499 C 0.5981 0.99925 0.75746 0.0
C1500 C 0.5863 0.99787 0.80143 0.0
C1501 C 0.61207 0.9854 0.74756 0.0
C1502 C 0.61466 0.97014 0.78191 0.0
C1503 C 0.60196 0.96792 0.82344 0.0
C1504 C 0.58783 0.98158 0.83294 0.0
C1505 C 0.63241 0.9586 0.78088 0.0
C1506 C 0.63107 0.93853 0.77933 0.0
C1507 C 0.65049 0.96737 0.78868 0.0
C1508 C 0.65288 0.98847 0.79152 0.0
C1509 C 0.64455 0.99897 0.83195 0.0
C1510 C 0.64654 0.01893 0.83375 0.0
C1511 C 0.65701 0.0285 0.79561 0.0
C1512 C 0.66557 0.01812 0.75571 0.0
C1513 C 0.66359 0.99815 0.7537 0.0
H1514 H 0.65853 0.04396 0.79705 0.0
H1515 H 0.63958 0.85022 0.77589 0.0
H1516 H 0.60815 0.72538 0.81377 0.0
H1517 H 0.59768 0.70351 0.74751 0.0
H1518 H 0.60471 0.65582 0.85078 0.0
H1519 H 0.61752 0.67735 0.91605 0.0
H1520 H 0.60146 0.64331 0.75175 0.0
H1521 H 0.56626 0.68491 0.86831 0.0
H1522 H 0.55949 0.71654 0.90699 0.0
H1523 H 0.5451 0.73889 0.75831 0.0
H1524 H 0.5522 0.70748 0.71857 0.0
H1525 H 0.51061 0.59548 0.75666 0.0
H1526 H 0.54046 0.6128 0.77386 0.0
H1527 H 0.52657 0.65359 0.65519 0.0
H1528 H 0.49682 0.63598 0.63689 0.0
H1529 H 0.53574 0.67027 0.7446 0.0
H1530 H 0.55923 0.61848 0.64377 0.0
H1531 H 0.56767 0.58593 0.61533 0.0
H1532 H 0.60311 0.57887 0.74843 0.0
H1533 H 0.59446 0.61104 0.77885 0.0
C1534 C 0.60877 0.71021 0.82212 0.0
C1535 C 0.61236 0.70338 0.87223 0.0
C1536 C 0.60262 0.69763 0.78366 0.0
C1537 C 0.59923 0.67827 0.79546 0.0
C1538 C 0.60655 0.67087 0.84146 0.0
C1539 C 0.61347 0.68335 0.87932 0.0
C1540 C 0.58373 0.66763 0.76857 0.0
C1541 C 0.58702 0.649 0.75005 0.0
C1542 C 0.56496 0.6753 0.76643 0.0
C1543 C 0.55994 0.69395 0.79043 0.0
C1544 C 0.56167 0.69659 0.84389 0.0
C1545 C 0.55781 0.71447 0.86599 0.0
C1546 C 0.5519 0.72971 0.83514 0.0
C1547 C 0.54973 0.72708 0.78214 0.0
C1548 C 0.55369 0.70926 0.75978 0.0
C1549 C 0.51407 0.60795 0.73363 0.0
C1550 C 0.50149 0.61426 0.69503 0.0
C1551 C 0.53115 0.61779 0.74343 0.0
C1552 C 0.53592 0.6342 0.71498 0.0
C1553 C 0.52319 0.64082 0.67721 0.0
C1554 C 0.50612 0.63091 0.66722 0.0
C1555 C 0.55319 0.64555 0.72832 0.0
C1556 C 0.55016 0.66443 0.74488 0.0
C1557 C 0.5719 0.63757 0.73058 0.0
C1558 C 0.57615 0.6175 0.71368 0.0
C1559 C 0.56851 0.60995 0.66771 0.0
C1560 C 0.57338 0.59149 0.65109 0.0
C1561 C 0.58591 0.58033 0.68 0.0
C1562 C 0.59346 0.58754 0.72586 0.0
C1563 C 0.58854 0.60591 0.74285 0.0
H1564 H 0.58974 0.56609 0.66698 0.0
H1565 H 0.54896 0.74356 0.85232 0.0
H1566 H 0.84859 0.60256 0.90926 0.0
H1567 H 0.86672 0.59006 0.83681 0.0
H1568 H 0.81394 0.57771 0.75635 0.0
H1569 H 0.79567 0.58856 0.83047 0.0
H1570 H 0.83319 0.54755 0.75817 0.0
H1571 H 0.84979 0.61076 0.70957 0.0
H1572 H 0.8605 0.64433 0.71957 0.0
H1573 H 0.91557 0.62525 0.77203 0.0
H1574 H 0.90512 0.59157 0.76311 0.0
H1575 H 0.89621 0.49813 0.58458 0.0
H1576 H 0.87378 0.52327 0.61121 0.0
H1577 H 0.9105 0.53748 0.73925 0.0
H1578 H 0.93244 0.51213 0.71433 0.0
H1579 H 0.89569 0.57011 0.68864 0.0
H1580 H 0.8742 0.50807 0.75835 0.0
H1581 H 0.8634 0.47448 0.74854 0.0
H1582 H 0.81682 0.49279 0.65283 0.0
H1583 H 0.82753 0.52648 0.66162 0.0
C1584 C 0.84078 0.59734 0.87607 0.0
C1585 C 0.8206 0.5962 0.87656 0.0
C1586 C 0.85122 0.59051 0.834 0.0
C1587 C 0.84174 0.58291 0.79079 0.0
C1588 C 0.82161 0.58342 0.78925 0.0
C1589 C 0.81115 0.58986 0.83172 0.0
C1590 C 0.85262 0.57172 0.75174 0.0
C1591 C 0.84654 0.55281 0.74169 0.0
C1592 C 0.87019 0.57833 0.73043 0.0
C1593 C 0.87661 0.5986 0.73581 0.0
C1594 C 0.86414 0.61371 0.72356 0.0
C1595 C 0.87018 0.63277 0.72899 0.0
C1596 C 0.8887 0.63692 0.74646 0.0
C1597 C 0.90124 0.62202 0.75846 0.0
C1598 C 0.89527 0.60293 0.75311 0.0
C1599 C 0.89948 0.50657 0.61847 0.0
C1600 C 0.91628 0.50322 0.64703 0.0
C1601 C 0.88675 0.52104 0.63328 0.0
C1602 C 0.89061 0.53231 0.67692 0.0
C1603 C 0.90745 0.52918 0.70489 0.0
C1604 C 0.92003 0.51469 0.69046 0.0
C1605 C 0.87642 0.5461 0.69718 0.0
C1606 C 0.88194 0.56534 0.70372 0.0
C1607 C 0.85827 0.53991 0.71504 0.0
C1608 C 0.85178 0.51972 0.71012 0.0
C1609 C 0.86174 0.5049 0.73493 0.0
C1610 C 0.85563 0.48586 0.7296 0.0
C1611 C 0.83947 0.4815 0.69994 0.0
C1612 C 0.82936 0.49618 0.67568 0.0
C1613 C 0.83544 0.51525 0.68083 0.0
H1614 H 0.83475 0.46675 0.69586 0.0
H1615 H 0.89334 0.65169 0.75066 0.0
H1616 H 0.0702 0.21205 0.90545 0.0
H1617 H 0.06494 0.18294 0.85505 0.0
H1618 H 1.00572 0.18156 0.90371 0.0
H1619 H 1.01115 0.21043 0.95599 0.0
H1620 H 0.01984 0.14711 0.91273 0.0
H1621 H 0.02035 0.1927 0.77663 0.0
H1622 H 0.03227 0.21952 0.72351 0.0
H1623 H 0.08305 0.18761 0.68669 0.0
H1624 H 0.07159 0.1607 0.74028 0.0
H1625 H 0.99602 0.06947 0.74263 0.0
H1626 H 0.99793 0.1003 0.78774 0.0
H1627 H 0.05771 0.10534 0.74592 0.0
H1628 H 0.05547 0.07507 0.69841 0.0
H1629 H 0.04136 0.13836 0.73233 0.0
H1630 H 0.04041 0.09294 0.87313 0.0
H1631 H 0.02716 0.06648 0.92558 0.0
H1632 H 0.9755 0.09839 0.95089 0.0
H1633 H 0.98831 0.12501 0.89842 0.0
C1634 C 0.05596 0.20572 0.90507 0.0
C1635 C 0.04112 0.21372 0.93506 0.0
C1636 C 0.05292 0.18904 0.87579 0.0
C1637 C 0.03487 0.17989 0.87494 0.0
C1638 C 0.01981 0.18821 0.90347 0.0
C1639 C 0.02287 0.20493 0.93294 0.0
C1640 C 0.03208 0.16119 0.84657 0.0
C1641 C 0.02428 0.14534 0.87299 0.0
C1642 C 0.03815 0.15852 0.79488 0.0
C1643 C 0.04518 0.17475 0.76294 0.0
C1644 C 0.03415 0.19147 0.75762 0.0
C1645 C 0.04081 0.20668 0.72735 0.0
C1646 C 0.05843 0.2053 0.70186 0.0
C1647 C 0.06942 0.18868 0.70653 0.0
C1648 C 0.06284 0.17344 0.73683 0.0
C1649 C 1.00961 0.0771 0.74333 0.0
C1650 C 0.02574 0.06949 0.71791 0.0
C1651 C 1.01074 0.09473 0.76952 0.0
C1652 C 0.02809 0.10519 0.77145 0.0
C1653 C 0.04417 0.09761 0.74571 0.0
C1654 C 0.04299 0.08006 0.71919 0.0
C1655 C 0.02939 0.12423 0.79873 0.0
C1656 C 0.0369 0.14015 0.77206 0.0
C1657 C 0.02293 0.12699 0.85004 0.0
C1658 C 0.01526 0.11092 0.88147 0.0
C1659 C 0.02617 0.09427 0.88957 0.0
C1660 C 0.01875 0.07924 0.91932 0.0
C1661 C 1.0005 0.08072 0.94133 0.0
C1662 C 0.98962 0.09725 0.93375 0.0
C1663 C 0.99696 0.11232 0.90411 0.0
H1664 H 0.9948 0.06911 0.96445 0.0
H1665 H 0.06356 0.21708 0.6784 0.0
H1666 H 0.31581 0.04283 0.86935 0.0
H1667 H 0.34334 0.03533 0.81342 0.0
H1668 H 0.37553 0.01718 0.94593 0.0
H1669 H 0.34797 0.0244 1.00144 0.0
H1670 H 0.39404 0.04575 0.88865 0.0
H1671 H 0.3626 0.98496 0.85709 0.0
H1672 H 0.33581 0.96399 0.83015 0.0
H1673 H 0.33691 0.98922 0.67961 0.0
H1674 H 0.36354 1.01055 0.70587 0.0
H1675 H 0.48084 0.01813 0.77265 0.0
H1676 H 0.45069 0.01853 0.82065 0.0
H1677 H 0.41924 0.0242 0.67874 0.0
H1678 H 0.44943 0.02285 0.63033 0.0
H1679 H 0.39933 1.00235 0.73795 0.0
H1680 H 0.42872 0.06324 0.76442 0.0
H1681 H 0.45462 0.08602 0.78677 0.0
H1682 H 0.45573 0.06401 0.94089 0.0
H1683 H 0.43003 0.04087 0.91925 0.0
C1684 C 0.32845 0.03637 0.88606 0.0
C1685 C 0.32954 0.03367 0.93959 0.0
C1686 C 0.34428 0.03228 0.85417 0.0
C1687 C 0.36163 0.02572 0.87533 0.0
C1688 C 0.36236 0.02219 0.92852 0.0
C1689 C 0.3465 0.02605 0.9602 0.0
C1690 C 0.37952 0.0243 0.84329 0.0
C1691 C 0.39528 0.03603 0.85617 0.0
C1692 C 0.38095 1.01229 0.79942 0.0
C1693 C 0.36493 0.9995 0.78364 0.0
C1694 C 0.35701 0.98617 0.8184 0.0
C1695 C 0.34188 0.97419 0.80321 0.0
C1696 C 0.33462 0.97531 0.75325 0.0
C1697 C 0.34252 0.98839 0.71832 0.0
C1698 C 0.35765 1.00041 0.73333 0.0
C1699 C 0.46752 0.01946 0.75156 0.0
C1700 C 0.46766 0.0207 0.69756 0.0
C1701 C 0.4502 0.01979 0.77917 0.0
C1702 C 0.43249 0.0219 0.75378 0.0
C1703 C 0.43257 0.02267 0.69964 0.0
C1704 C 0.44992 0.02199 0.6719 0.0
C1705 C 0.41406 0.02357 0.78385 0.0
C1706 C 0.39816 1.01204 0.77047 0.0
C1707 C 0.41228 0.03613 0.82665 0.0
C1708 C 0.42756 0.0502 0.84007 0.0
C1709 C 0.43456 0.06318 0.803 0.0
C1710 C 0.44921 0.07615 0.81553 0.0
C1711 C 0.45684 0.07643 0.86517 0.0
C1712 C 0.44981 0.06376 0.90243 0.0
C1713 C 0.4352 0.05072 0.89007 0.0
H1714 H 0.46819 0.08648 0.8748 0.0
H1715 H 0.32291 0.96602 0.74156 0.0
H1716 H 0.52205 0.3396 0.96805 0.0
H1717 H 0.53046 0.3683 0.91769 0.0
H1718 H 0.49032 0.35094 0.80018 0.0
H1719 H 0.48247 0.32214 0.84944 0.0
H1720 H 0.51819 0.36801 0.75445 0.0
H1721 H 0.4792 0.38391 0.90008 0.0
H1722 H 0.47029 0.38566 0.99183 0.0
H1723 H 0.52093 0.41908 0.02318 0.0
H1724 H 0.5303 0.41728 0.93166 0.0
H1725 H 0.49364 0.46021 0.65186 0.0
H1726 H 0.49191 0.42991 0.69992 0.0
H1727 H 0.54304 0.44575 0.78324 0.0
H1728 H 0.54499 0.47591 0.73439 0.0
H1729 H 0.51154 0.43005 0.84661 0.0
H1730 H 0.54877 0.41491 0.69598 0.0
H1731 H 0.55487 0.41442 0.60253 0.0
H1732 H 0.50398 0.38048 0.57929 0.0
H1733 H 0.49744 0.38096 0.67275 0.0
C1734 C 0.51558 0.34157 0.9306 0.0
C1735 C 0.50159 0.32852 0.91286 0.0
C1736 C 0.52013 0.3582 0.9021 0.0
C1737 C 0.51066 0.36227 0.85542 0.0
C1738 C 0.4978 0.34843 0.836 0.0
C1739 C 0.49334 0.33185 0.86425 0.0
C1740 C 0.51307 0.38125 0.82824 0.0
C1741 C 0.51661 0.38151 0.77483 0.0
C1742 C 0.51115 0.39913 0.85415 0.0
C1743 C 0.50558 0.40025 0.90916 0.0
C1744 C 0.48852 0.3915 0.92662 0.0
C1745 C 0.48337 0.39252 0.97856 0.0
C1746 C 0.49507 0.40242 0.01334 0.0
C1747 C 0.51191 0.41137 0.99621 0.0
C1748 C 0.51715 0.41035 0.94431 0.0
C1749 C 0.50447 0.45724 0.68053 0.0
C1750 C 0.51947 0.47043 0.68929 0.0
C1751 C 0.5035 0.43989 0.70794 0.0
C1752 C 0.51736 0.43544 0.7453 0.0
C1753 C 0.53216 0.4488 0.75476 0.0
C1754 C 0.53334 0.46598 0.72658 0.0
C1755 C 0.51667 0.41664 0.77335 0.0
C1756 C 0.51333 0.41648 0.82665 0.0
C1757 C 0.51844 0.39887 0.74727 0.0
C1758 C 0.52253 0.39812 0.69129 0.0
C1759 C 0.53881 0.40744 0.67093 0.0
C1760 C 0.54236 0.40715 0.61801 0.0
C1761 C 0.52981 0.39744 0.58507 0.0
C1762 C 0.51368 0.38799 0.60494 0.0
C1763 C 0.51006 0.38824 0.65789 0.0
H1764 H 0.53268 0.39719 0.54421 0.0
H1765 H 0.49106 0.4032 0.05354 0.0
H1766 H 0.18254 0.49928 1.00496 0.0
H1767 H 0.15566 0.50518 0.94738 0.0
H1768 H 0.19509 0.51792 0.82397 0.0
H1769 H 0.22239 0.51172 0.88191 0.0
H1770 H 0.16144 0.54251 0.82681 0.0
H1771 H 0.17615 0.47539 0.82533 0.0
H1772 H 0.18318 0.44409 0.86487 0.0
H1773 H 0.12799 0.44405 0.93885 0.0
H1774 H 0.12076 0.47553 0.90045 0.0
H1775 H 0.08577 0.53364 0.641 0.0
H1776 H 0.11611 0.53125 0.68793 0.0
H1777 H 0.08621 0.50505 0.81547 0.0
H1778 H 0.05603 0.50727 0.76844 0.0
H1779 H 0.11752 0.4869 0.80319 0.0
H1780 H 0.10344 0.55435 0.81294 0.0
H1781 H 0.0961 0.58648 0.77885 0.0
H1782 H 0.14893 0.58653 0.69338 0.0
H1783 H 0.15648 0.55429 0.72655 0.0
C1784 C 0.1856 0.50348 0.96567 0.0
C1785 C 0.20472 0.50471 0.94799 0.0
C1786 C 0.17014 0.50687 0.9327 0.0
C1787 C 0.17322 0.51166 0.8809 0.0
C1788 C 0.19228 0.51415 0.86369 0.0
C1789 C 0.2079 0.51068 0.8969 0.0
C1790 C 0.15644 0.5128 0.8449 0.0
C1791 C 0.15202 0.53027 0.82087 0.0
C1792 C 0.14381 0.49698 0.83782 0.0
C1793 C 0.14798 0.4779 0.86031 0.0
C1794 C 0.16557 0.46877 0.8503 0.0
C1795 C 0.16958 0.45099 0.87249 0.0
C1796 C 0.15605 0.4421 0.90443 0.0
C1797 C 0.13846 0.45096 0.91413 0.0
C1798 C 0.13439 0.46876 0.89213 0.0
C1799 C 0.08566 0.52747 0.67914 0.0
C1800 C 0.06838 0.52065 0.70074 0.0
C1801 C 0.10308 0.52612 0.70613 0.0
C1802 C 0.10367 0.51815 0.75589 0.0
C1803 C 0.08638 0.5112 0.77724 0.0
C1804 C 0.06902 0.51242 0.75012 0.0
C1805 C 0.12215 0.51678 0.78569 0.0
C1806 C 0.12695 0.49918 0.80861 0.0
C1807 C 0.13498 0.53254 0.79206 0.0
C1808 C 0.13046 0.55187 0.77196 0.0
C1809 C 0.11344 0.56118 0.78666 0.0
C1810 C 0.10926 0.57942 0.76759 0.0
C1811 C 0.12208 0.58857 0.73414 0.0
C1812 C 0.13906 0.57946 0.71948 0.0
C1813 C 0.1433 0.56121 0.73841 0.0
H1814 H 0.11882 0.60269 0.71941 0.0
H1815 H 0.15919 0.42833 0.92159 0.0
H1816 H 0.02557 0.83148 0.32373 0.0
H1817 H 0.03033 0.85804 0.38507 0.0
H1818 H 0.96898 0.86272 0.40375 0.0
H1819 H 0.96428 0.83659 0.34225 0.0
H1820 H 0.98287 0.8965 0.3855 0.0
H1821 H 0.99998 0.84566 0.49929 0.0
H1822 H 0.01768 0.81745 0.53017 0.0
H1823 H 0.07041 0.84964 0.52597 0.0
H1824 H 0.05305 0.87801 0.49436 0.0
H1825 H 0.98005 0.96753 0.57954 0.0
H1826 H 0.97689 0.9371 0.53296 0.0
H1827 H 0.0386 0.93234 0.52623 0.0
H1828 H 0.04171 0.96222 0.57492 0.0
H1829 H 0.02543 0.89857 0.53792 0.0
H1830 H 1.00805 0.94898 0.41939 0.0
H1831 H 0.98969 0.97716 0.39061 0.0
H1832 H 0.93705 0.94537 0.40572 0.0
H1833 H 0.95505 0.91699 0.43469 0.0
C1834 C 0.01316 0.83787 0.34201 0.0
C1835 C 0.99455 0.83191 0.32805 0.0
C1836 C 0.01586 0.85314 0.37702 0.0
C1837 C 1.00001 0.86261 0.39922 0.0
C1838 C 0.98149 0.85592 0.38706 0.0
C1839 C 0.97881 0.84085 0.35205 0.0
C1840 C 1.00239 0.88023 0.43222 0.0
C1841 C 0.99204 0.89679 0.41917 0.0
C1842 C 0.01473 0.88104 0.4755 0.0
C1843 C 0.02524 0.86391 0.49378 0.0
C1844 C 0.01538 0.84668 0.50438 0.0
C1845 C 0.02534 0.83067 0.52216 0.0
C1846 C 0.04517 0.83172 0.52985 0.0
C1847 C 0.05506 0.84882 0.51988 0.0
C1848 C 0.04516 0.86488 0.50205 0.0
C1849 C 0.99292 0.95991 0.56838 0.0
C1850 C 1.01112 0.96735 0.58098 0.0
C1851 C 0.99114 0.94252 0.54133 0.0
C1852 C 1.00751 0.93245 0.52443 0.0
C1853 C 0.02568 0.93968 0.53829 0.0
C1854 C 0.02746 0.95685 0.56622 0.0
C1855 C 1.0058 0.91476 0.49134 0.0
C1856 C 0.01638 0.89827 0.50405 0.0
C1857 C 0.99367 0.91395 0.4476 0.0
C1858 C 0.98288 0.93092 0.42951 0.0
C1859 C 0.99255 0.94803 0.41673 0.0
C1860 C 0.98222 0.96404 0.40043 0.0
C1861 C 0.96224 0.9631 0.39661 0.0
C1862 C 0.95253 0.94609 0.40877 0.0
C1863 C 0.96279 0.93002 0.42499 0.0
H1864 H 0.95428 0.97553 0.38407 0.0
H1865 H 0.05285 0.81931 0.54368 0.0
H1866 H 0.70292 0.95939 0.34065 0.0
H1867 H 0.67634 0.96545 0.39941 0.0
H1868 H 0.69023 0.02584 0.39917 0.0
H1869 H 0.71653 0.01987 0.33808 0.0
H1870 H 0.66911 0.97827 0.49035 0.0
H1871 H 0.64924 0.05204 0.40666 0.0
H1872 H 0.65317 0.07059 0.32647 0.0
H1873 H 0.65724 0.01824 0.23978 0.0
H1874 H 0.6531 0.99941 0.31934 0.0
H1875 H 0.58595 1.01004 0.63061 0.0
H1876 H 0.6179 1.00749 0.59181 0.0
H1877 H 0.59222 1.0053 0.44096 0.0
H1878 H 0.56074 1.00974 0.47915 0.0
H1879 H 0.62106 0.0256 0.43173 0.0
H1880 H 0.61193 0.96418 0.51449 0.0
H1881 H 0.60542 0.94291 0.58833 0.0
H1882 H 0.65537 0.9648 0.6655 0.0
H1883 H 0.662 0.98651 0.59249 0.0
C1884 C 0.70044 0.974 0.35324 0.0
C1885 C 0.71173 0.98919 0.3336 0.0
C1886 C 0.68524 0.97743 0.38738 0.0
C1887 C 0.68082 0.99617 0.40329 0.0
C1888 C 0.69296 1.01126 0.38681 0.0
C1889 C 0.70819 1.00782 0.35221 0.0
C1890 C 0.66272 0.9998 0.43356 0.0
C1891 C 0.65868 0.98873 0.47768 0.0
C1892 C 0.64877 0.01318 0.4171 0.0
C1893 C 0.65112 0.02435 0.36901 0.0
C1894 C 0.65094 0.04451 0.37045 0.0
C1895 C 0.6532 0.05506 0.32512 0.0
C1896 C 0.65553 0.0456 0.27809 0.0
C1897 C 0.65552 0.02556 0.27625 0.0
C1898 C 0.65322 0.01494 0.32145 0.0
C1899 C 0.58712 1.00903 0.58913 0.0
C1900 C 0.57054 1.00972 0.55821 0.0
C1901 C 0.60548 1.00739 0.56687 0.0
C1902 C 0.60774 1.00581 0.51309 0.0
C1903 C 0.59114 1.00642 0.48243 0.0
C1904 C 0.57291 1.00856 0.50454 0.0
C1905 C 0.62718 1.00382 0.48807 0.0
C1906 C 0.63153 0.01526 0.44495 0.0
C1907 C 0.6411 0.99036 0.50462 0.0
C1908 C 0.63737 0.97709 0.54817 0.0
C1909 C 0.62148 0.96453 0.54731 0.0
C1910 C 0.61776 0.95242 0.58904 0.0
C1911 C 0.62996 0.95256 0.63162 0.0
C1912 C 0.64592 0.96478 0.63253 0.0
C1913 C 0.64967 0.97698 0.59098 0.0
H1914 H 0.62708 0.94314 0.66382 0.0
H1915 H 0.6573 0.05379 0.24306 0.0
H1916 H 0.57298 0.69433 0.30725 0.0
H1917 H 0.56607 0.67126 0.37451 0.0
H1918 H 0.50677 0.68898 0.37581 0.0
H1919 H 0.51357 0.71127 0.30452 0.0
H1920 H 0.55657 0.66732 0.46277 0.0
H1921 H 0.47735 0.65251 0.41422 0.0
H1922 H 0.45487 0.65504 0.34127 0.0
H1923 H 0.50181 0.64977 0.23485 0.0
H1924 H 0.52451 0.647 0.30717 0.0
H1925 H 0.52961 0.58951 0.6302 0.0
H1926 H 0.53173 0.62058 0.58532 0.0
H1927 H 0.5192 0.5923 0.44164 0.0
H1928 H 0.51586 0.56195 0.48625 0.0
H1929 H 0.50219 0.62237 0.43624 0.0
H1930 H 0.56727 0.61002 0.48562 0.0
H1931 H 0.59627 0.60519 0.53822 0.0
H1932 H 0.58562 0.65802 0.61833 0.0
H1933 H 0.55646 0.66311 0.56649 0.0
C1934 C 0.55846 0.69354 0.32223 0.0
C1935 C 0.54379 0.70451 0.29969 0.0
C1936 C 0.55449 0.68027 0.36119 0.0
C1937 C 0.53572 0.67768 0.38009 0.0
C1938 C 0.52129 0.69001 0.36111 0.0
C1939 C 0.52523 0.70311 0.3209 0.0
C1940 C 0.53156 0.66132 0.41681 0.0
C1941 C 0.54457 0.65758 0.45698 0.0
C1942 C 0.51611 0.6482 0.40971 0.0
C1943 C 0.50261 0.64983 0.36605 0.0
C1944 C 0.48284 0.65188 0.37523 0.0
C1945 C 0.47008 0.65335 0.33402 0.0
C1946 C 0.47692 0.65265 0.28347 0.0
C1947 C 0.49654 0.65039 0.27402 0.0
C1948 C 0.50936 0.64888 0.31508 0.0
C1949 C 0.52713 0.59001 0.58913 0.0
C1950 C 0.52314 0.57301 0.56173 0.0
C1951 C 0.52854 0.6078 0.56333 0.0
C1952 C 0.52597 0.60907 0.50958 0.0
C1953 C 0.52135 0.59209 0.48288 0.0
C1954 C 0.51977 0.5745 0.50852 0.0
C1955 C 0.5278 0.6278 0.48055 0.0
C1956 C 0.51415 0.63214 0.44237 0.0
C1957 C 0.54328 0.64089 0.48765 0.0
C1958 C 0.55959 0.63686 0.52248 0.0
C1959 C 0.57096 0.62047 0.51494 0.0
C1960 C 0.58753 0.61778 0.54425 0.0
C1961 C 0.59291 0.6314 0.58111 0.0
C1962 C 0.58156 0.64759 0.58935 0.0
C1963 C 0.56498 0.65035 0.56015 0.0
H1964 H 0.60573 0.62927 0.6038 0.0
H1965 H 0.46702 0.6538 0.25162 0.0
H1966 H 0.81344 0.54988 0.37363 0.0
H1967 H 0.8386 0.54254 0.43714 0.0
H1968 H 0.87866 0.53218 0.31344 0.0
H1969 H 0.8536 0.53888 0.25088 0.0
H1970 H 0.88596 0.50818 0.38501 0.0
H1971 H 0.87358 0.57694 0.38419 0.0
H1972 H 0.85382 0.60581 0.39735 0.0
H1973 H 0.84474 0.59019 0.55534 0.0
H1974 H 0.86422 0.56107 0.54288 0.0
H1975 H 0.97792 0.52326 0.48597 0.0
H1976 H 0.9478 0.52526 0.43957 0.0
H1977 H 0.91866 0.54092 0.58003 0.0
H1978 H 0.94937 0.54049 0.62587 0.0
H1979 H 0.90239 0.55882 0.51182 0.0
H1980 H 0.91938 0.49211 0.5144 0.0
H1981 H 0.94008 0.46398 0.49974 0.0
H1982 H 0.94089 0.4755 0.33781 0.0
H1983 H 0.92052 0.50387 0.35133 0.0
C1984 C 0.82745 0.54539 0.36026 0.0
C1985 C 0.83148 0.54477 0.30722 0.0
C1986 C 0.84197 0.5415 0.39655 0.0
C1987 C 0.86084 0.53716 0.38047 0.0
C1988 C 0.86439 0.53549 0.32738 0.0
C1989 C 0.84998 0.53927 0.29144 0.0
C1990 C 0.87731 0.53517 0.41758 0.0
C1991 C 0.88958 0.51932 0.4126 0.0
C1992 C 0.8819 0.54929 0.4551 0.0
C1993 C 0.87011 0.56671 0.46239 0.0
C1994 C 0.86722 0.57958 0.4216 0.0
C1995 C 0.8561 0.596 0.42895 0.0
C1996 C 0.84796 0.59979 0.47709 0.0
C1997 C 0.85099 0.5872 0.51802 0.0
C1998 C 0.86206 0.57074 0.51083 0.0
C1999 C 0.96517 0.5274 0.50701 0.0
C2000 C 0.96618 0.53179 0.55976 0.0
C2001 C 0.94771 0.5281 0.48051 0.0
C2002 C 0.93044 0.5323 0.50631 0.0
C2003 C 0.9315 0.53708 0.55899 0.0
C2004 C 0.94912 0.5368 0.58539 0.0
C2005 C 0.91152 0.53211 0.47803 0.0
C2006 C 0.89872 0.54749 0.48489 0.0
C2007 C 0.90644 0.51751 0.44212 0.0
C2008 C 0.91842 0.50018 0.43399 0.0
C2009 C 0.92398 0.48867 0.47571 0.0
C2010 C 0.93568 0.4727 0.46762 0.0
C2011 C 0.94177 0.46796 0.418 0.0
C2012 C 0.93616 0.47917 0.37625 0.0
C2013 C 0.92452 0.49519 0.38409 0.0
H2014 H 0.95084 0.4556 0.4119 0.0
H2015 H 0.83937 0.61252 0.48272 0.0
loop_
_geom_bond_atom_site_label_1
_geom_bond_atom_site_label_2
_geom_bond_distance
_geom_bond_site_symmetry_2
_ccdc_geom_bond_type
C0 C1 1.391 . S
C0 C4 1.391 . S
C0 H42 0.948 . S
C1 C0 1.391 . S
C1 C2 1.391 . S
C2 C1 1.391 . S
C2 H58 0.947 . S
C2 C59 1.392 . S
C3 C4 1.391 . S
C3 C7 1.397 . S
C3 C59 1.419 . S
C4 C0 1.391 . S
C4 C3 1.391 . S
C4 C5 1.399 . S
C5 C4 1.399 . S
C5 C8 1.396 . S
C5 C17 1.453 . S
C5 C18 1.684 . S
H6 C30 0.948 . S
C7 C3 1.397 . S
C7 C8 1.394 . S
C7 C26 1.723 . S
C8 C5 1.396 . S
C8 C7 1.394 . S
C8 C38 1.723 . S
H9 C32 0.947 . S
H10 C33 0.948 . S
H11 C39 0.982 . S
H12 C40 0.979 . S
H13 C40 0.980 . S
H14 C40 0.983 . S
H15 C39 0.979 . S
H16 C39 0.977 . S
C17 C5 1.453 . S
C17 H46 0.982 . S
C17 H47 0.979 . S
C17 H48 0.977 . S
C18 C5 1.684 . S
C18 H43 0.979 . S
C18 H44 0.980 . S
C18 H45 0.983 . S
C19 C20 1.391 . S
C19 C24 1.391 . S
C19 H49 0.948 . S
C20 C19 1.391 . S
C20 C21 1.391 . S
C21 C20 1.391 . S
C21 C22 1.392 . S
C21 H50 0.947 1_554 S
C22 C21 1.392 . S
C22 C23 1.419 . S
C22 H51 0.948 . S
C23 C22 1.419 . S
C23 C24 1.391 . S
C23 C27 1.397 . S
C24 C19 1.391 . S
C24 C23 1.391 . S
C24 C25 1.399 . S
C25 C24 1.399 . S
C25 C26 1.396 . S
C25 C28 1.453 . S
C25 C29 1.684 . S
C26 C7 1.723 . S
C26 C25 1.396 . S
C26 C27 1.394 . S
C27 C23 1.397 . S
C27 C26 1.394 . S
C27 C37 1.723 . S
C28 C25 1.453 . S
C28 H52 0.982 . S
C28 H53 0.979 . S
C28 H54 0.977 . S
C29 C25 1.684 . S
C29 H55 0.979 . S
C29 H56 0.980 . S
C29 H57 0.983 . S
C30 H6 0.948 . S
C30 C31 1.391 . S
C30 C35 1.391 . S
C31 C30 1.391 . S
C31 C32 1.391 . S
C32 H9 0.947 . S
C32 C31 1.391 . S
C32 C33 1.392 . S
C33 H10 0.948 . S
C33 C32 1.392 . S
C33 C34 1.419 . S
C34 C33 1.419 . S
C34 C35 1.391 . S
C34 C38 1.397 . S
C35 C30 1.391 . S
C35 C34 1.391 . S
C35 C36 1.399 . S
C36 C35 1.399 . S
C36 C37 1.396 . S
C36 C39 1.453 . S
C36 C40 1.684 . S
C37 C27 1.723 . S
C37 C36 1.396 . S
C37 C38 1.394 . S
C38 C8 1.723 . S
C38 C34 1.397 . S
C38 C37 1.394 . S
C39 H11 0.982 . S
C39 H15 0.979 . S
C39 H16 0.977 . S
C39 C36 1.453 . S
C40 H12 0.979 . S
C40 H13 0.980 . S
C40 H14 0.983 . S
C40 C36 1.684 . S
H41 C59 0.948 . S
H42 C0 0.948 . S
H43 C18 0.979 . S
H44 C18 0.980 . S
H45 C18 0.983 . S
H46 C17 0.982 . S
H47 C17 0.979 . S
H48 C17 0.977 . S
H49 C19 0.948 . S
H50 C21 0.947 1_556 S
H51 C22 0.948 . S
H52 C28 0.982 . S
H53 C28 0.979 . S
H54 C28 0.977 . S
H55 C29 0.979 . S
H56 C29 0.980 . S
H57 C29 0.983 . S
H58 C2 0.947 . S
C59 C2 1.392 . S
C59 C3 1.419 . S
C59 H41 0.948 . S
C60 C61 1.391 . S
C60 C64 1.391 . S
C60 H102 0.948 1_554 S
C61 C60 1.391 . S
C61 C62 1.391 . S
C62 C61 1.391 . S
C62 H118 0.947 . S
C62 C119 1.392 . S
C63 C64 1.391 . S
C63 C67 1.397 . S
C63 C119 1.419 . S
C64 C60 1.391 . S
C64 C63 1.391 . S
C64 C65 1.399 . S
C65 C64 1.399 . S
C65 C68 1.396 . S
C65 C77 1.453 . S
C65 C78 1.684 . S
H66 C90 0.948 . S
C67 C63 1.397 . S
C67 C68 1.394 . S
C67 C86 1.723 . S
C68 C65 1.396 . S
C68 C67 1.394 . S
C68 C98 1.723 . S
H69 C92 0.947 . S
H70 C93 0.948 . S
H71 C99 0.982 . S
H72 C100 0.979 . S
H73 C100 0.980 . S
H74 C100 0.983 . S
H75 C99 0.979 . S
H76 C99 0.977 . S
C77 C65 1.453 . S
C77 H106 0.982 . S
C77 H107 0.979 . S
C77 H108 0.977 . S
C78 C65 1.684 . S
C78 H103 0.979 . S
C78 H104 0.980 . S
C78 H105 0.983 1_554 S
C79 C80 1.391 . S
C79 C84 1.391 . S
C79 H109 0.948 . S
C80 C79 1.391 . S
C80 C81 1.391 . S
C81 C80 1.391 . S
C81 C82 1.392 . S
C81 H110 0.947 . S
C82 C81 1.392 . S
C82 C83 1.419 . S
C82 H111 0.948 . S
C83 C82 1.419 . S
C83 C84 1.391 . S
C83 C87 1.397 . S
C84 C79 1.391 . S
C84 C83 1.391 . S
C84 C85 1.399 . S
C85 C84 1.399 . S
C85 C86 1.396 . S
C85 C88 1.453 . S
C85 C89 1.684 . S
C86 C67 1.723 . S
C86 C85 1.396 . S
C86 C87 1.394 . S
C87 C83 1.397 . S
C87 C86 1.394 . S
C87 C97 1.723 . S
C88 C85 1.453 . S
C88 H112 0.982 . S
C88 H113 0.979 . S
C88 H114 0.977 . S
C89 C85 1.684 . S
C89 H115 0.979 . S
C89 H116 0.980 . S
C89 H117 0.983 . S
C90 H66 0.948 . S
C90 C91 1.391 . S
C90 C95 1.391 . S
C91 C90 1.391 . S
C91 C92 1.391 . S
C92 H69 0.947 . S
C92 C91 1.391 . S
C92 C93 1.392 . S
C93 H70 0.948 . S
C93 C92 1.392 . S
C93 C94 1.419 . S
C94 C93 1.419 . S
C94 C95 1.391 . S
C94 C98 1.397 . S
C95 C90 1.391 . S
C95 C94 1.391 . S
C95 C96 1.399 . S
C96 C95 1.399 . S
C96 C97 1.396 . S
C96 C99 1.453 . S
C96 C100 1.684 . S
C97 C87 1.723 . S
C97 C96 1.396 . S
C97 C98 1.394 . S
C98 C68 1.723 . S
C98 C94 1.397 . S
C98 C97 1.394 . S
C99 H71 0.982 . S
C99 H75 0.979 . S
C99 H76 0.977 . S
C99 C96 1.453 . S
C100 H72 0.979 . S
C100 H73 0.980 . S
C100 H74 0.983 . S
C100 C96 1.684 . S
H101 C119 0.948 . S
H102 C60 0.948 1_556 S
H103 C78 0.979 . S
H104 C78 0.980 . S
H105 C78 0.983 1_556 S
H106 C77 0.982 . S
H107 C77 0.979 . S
H108 C77 0.977 . S
H109 C79 0.948 . S
H110 C81 0.947 . S
H111 C82 0.948 . S
H112 C88 0.982 . S
H113 C88 0.979 . S
H114 C88 0.977 . S
H115 C89 0.979 . S
H116 C89 0.980 . S
H117 C89 0.983 . S
H118 C62 0.947 . S
C119 C62 1.392 . S
C119 C63 1.419 . S
C119 H101 0.948 . S
C120 C121 1.391 . S
C120 C124 1.391 . S
C120 H162 0.948 . S
C121 C120 1.391 . S
C121 C122 1.391 . S
C122 C121 1.391 . S
C122 H178 0.947 . S
C122 C179 1.392 . S
C123 C124 1.391 . S
C123 C127 1.397 . S
C123 C179 1.419 . S
C124 C120 1.391 . S
C124 C123 1.391 . S
C124 C125 1.399 . S
C125 C124 1.399 . S
C125 C128 1.396 . S
C125 C137 1.453 . S
C125 C138 1.684 . S
H126 C150 0.948 . S
C127 C123 1.397 . S
C127 C128 1.394 . S
C127 C146 1.723 . S
C128 C125 1.396 . S
C128 C127 1.394 . S
C128 C158 1.723 . S
H129 C152 0.947 . S
H130 C153 0.948 . S
H131 C159 0.982 . S
H132 C160 0.979 . S
H133 C160 0.980 . S
H134 C160 0.983 . S
H135 C159 0.979 . S
H136 C159 0.977 . S
C137 C125 1.453 . S
C137 H166 0.982 . S
C137 H167 0.979 . S
C137 H168 0.977 . S
C138 C125 1.684 . S
C138 H163 0.979 . S
C138 H164 0.980 . S
C138 H165 0.983 . S
C139 C140 1.391 . S
C139 C144 1.391 . S
C139 H169 0.948 1_554 S
C140 C139 1.391 . S
C140 C141 1.391 . S
C141 C140 1.391 . S
C141 C142 1.392 . S
C141 H170 0.947 . S
C142 C141 1.392 . S
C142 C143 1.419 . S
C142 H171 0.948 . S
C143 C142 1.419 . S
C143 C144 1.391 . S
C143 C147 1.397 . S
C144 C139 1.391 . S
C144 C143 1.391 . S
C144 C145 1.399 . S
C145 C144 1.399 . S
C145 C146 1.396 . S
C145 C148 1.453 . S
C145 C149 1.684 . S
C146 C127 1.723 . S
C146 C145 1.396 . S
C146 C147 1.394 . S
C147 C143 1.397 . S
C147 C146 1.394 . S
C147 C157 1.723 . S
C148 C145 1.453 . S
C148 H172 0.982 . S
C148 H173 0.979 . S
C148 H174 0.977 . S
C149 C145 1.684 . S
C149 H175 0.979 . S
C149 H176 0.980 . S
C149 H177 0.983 1_554 S
C150 H126 0.948 . S
C150 C151 1.391 . S
C150 C155 1.391 . S
C151 C150 1.391 . S
C151 C152 1.391 . S
C152 H129 0.947 . S
C152 C151 1.391 . S
C152 C153 1.392 . S
C153 H130 0.948 . S
C153 C152 1.392 . S
C153 C154 1.419 . S
C154 C153 1.419 . S
C154 C155 1.391 . S
C154 C158 1.397 . S
C155 C150 1.391 . S
C155 C154 1.391 . S
C155 C156 1.399 . S
C156 C155 1.399 . S
C156 C157 1.396 . S
C156 C159 1.453 . S
C156 C160 1.684 . S
C157 C147 1.723 . S
C157 C156 1.396 . S
C157 C158 1.394 . S
C158 C128 1.723 . S
C158 C154 1.397 . S
C158 C157 1.394 . S
C159 H131 0.982 . S
C159 H135 0.979 . S
C159 H136 0.977 . S
C159 C156 1.453 . S
C160 H132 0.979 . S
C160 H133 0.980 . S
C160 H134 0.983 . S
C160 C156 1.684 . S
H161 C179 0.948 . S
H162 C120 0.948 . S
H163 C138 0.979 . S
H164 C138 0.980 . S
H165 C138 0.983 . S
H166 C137 0.982 . S
H167 C137 0.979 . S
H168 C137 0.977 . S
H169 C139 0.948 1_556 S
H170 C141 0.947 . S
H171 C142 0.948 . S
H172 C148 0.982 . S
H173 C148 0.979 . S
H174 C148 0.977 . S
H175 C149 0.979 . S
H176 C149 0.980 . S
H177 C149 0.983 1_556 S
H178 C122 0.947 . S
C179 C122 1.392 . S
C179 C123 1.419 . S
C179 H161 0.948 . S
C180 C181 1.391 . S
C180 C184 1.391 . S
C180 H222 0.948 . S
C181 C180 1.391 . S
C181 C182 1.391 . S
C182 C181 1.391 . S
C182 H238 0.947 . S
C182 C239 1.392 . S
C183 C184 1.391 . S
C183 C187 1.397 . S
C183 C239 1.419 . S
C184 C180 1.391 . S
C184 C183 1.391 . S
C184 C185 1.399 . S
C185 C184 1.399 . S
C185 C188 1.396 . S
C185 C197 1.453 . S
C185 C198 1.684 . S
H186 C210 0.948 . S
C187 C183 1.397 . S
C187 C188 1.394 . S
C187 C206 1.723 . S
C188 C185 1.396 . S
C188 C187 1.394 . S
C188 C218 1.723 . S
H189 C212 0.947 . S
H190 C213 0.948 . S
H191 C219 0.982 . S
H192 C220 0.979 . S
H193 C220 0.980 . S
H194 C220 0.983 . S
H195 C219 0.979 . S
H196 C219 0.977 . S
C197 C185 1.453 . S
C197 H226 0.982 . S
C197 H227 0.979 . S
C197 H228 0.977 . S
C198 C185 1.684 . S
C198 H223 0.979 . S
C198 H224 0.980 . S
C198 H225 0.983 . S
C199 C200 1.391 . S
C199 C204 1.391 . S
C199 H229 0.948 . S
C200 C199 1.391 . S
C200 C201 1.391 . S
C201 C200 1.391 . S
C201 C202 1.392 . S
C201 H230 0.947 1_554 S
C202 C201 1.392 . S
C202 C203 1.419 . S
C202 H231 0.948 . S
C203 C202 1.419 . S
C203 C204 1.391 . S
C203 C207 1.397 . S
C204 C199 1.391 . S
C204 C203 1.391 . S
C204 C205 1.399 . S
C205 C204 1.399 . S
C205 C206 1.396 . S
C205 C208 1.453 . S
C205 C209 1.684 . S
C206 C187 1.723 . S
C206 C205 1.396 . S
C206 C207 1.394 . S
C207 C203 1.397 . S
C207 C206 1.394 . S
C207 C217 1.723 . S
C208 C205 1.453 . S
C208 H232 0.982 . S
C208 H233 0.979 . S
C208 H234 0.977 . S
C209 C205 1.684 . S
C209 H235 0.979 . S
C209 H236 0.980 . S
C209 H237 0.983 . S
C210 H186 0.948 . S
C210 C211 1.391 . S
C210 C215 1.391 . S
C211 C210 1.391 . S
C211 C212 1.391 . S
C212 H189 0.947 . S
C212 C211 1.391 . S
C212 C213 1.392 . S
C213 H190 0.948 . S
C213 C212 1.392 . S
C213 C214 1.419 . S
C214 C213 1.419 . S
C214 C215 1.391 . S
C214 C218 1.397 . S
C215 C210 1.391 . S
C215 C214 1.391 . S
C215 C216 1.399 . S
C216 C215 1.399 . S
C216 C217 1.396 . S
C216 C219 1.453 . S
C216 C220 1.684 . S
C217 C207 1.723 . S
C217 C216 1.396 . S
C217 C218 1.394 . S
C218 C188 1.723 . S
C218 C214 1.397 . S
C218 C217 1.394 . S
C219 H191 0.982 . S
C219 H195 0.979 . S
C219 H196 0.977 . S
C219 C216 1.453 . S
C220 H192 0.979 . S
C220 H193 0.980 . S
C220 H194 0.983 . S
C220 C216 1.684 . S
H221 C239 0.948 . S
H222 C180 0.948 . S
H223 C198 0.979 . S
H224 C198 0.980 . S
H225 C198 0.983 . S
H226 C197 0.982 . S
H227 C197 0.979 . S
H228 C197 0.977 . S
H229 C199 0.948 . S
H230 C201 0.947 1_556 S
H231 C202 0.948 . S
H232 C208 0.982 . S
H233 C208 0.979 . S
H234 C208 0.977 . S
H235 C209 0.979 . S
H236 C209 0.980 . S
H237 C209 0.983 . S
H238 C182 0.947 . S
C239 C182 1.392 . S
C239 C183 1.419 . S
C239 H221 0.948 . S
C240 C241 1.391 . S
C240 C244 1.391 . S
C240 H282 0.948 . S
C241 C240 1.391 . S
C241 C242 1.391 . S
C242 C241 1.391 . S
C242 H298 0.947 . S
C242 C299 1.392 . S
C243 C244 1.391 . S
C243 C247 1.397 . S
C243 C299 1.419 . S
C244 C240 1.391 . S
C244 C243 1.391 . S
C244 C245 1.399 1_554 S
C245 C244 1.399 1_556 S
C245 C248 1.396 1_556 S
C245 C257 1.453 . S
C245 C258 1.684 . S
H246 C270 0.948 . S
C247 C243 1.397 . S
C247 C248 1.394 . S
C247 C266 1.723 . S
C248 C245 1.396 1_554 S
C248 C247 1.394 . S
C248 C278 1.723 1_554 S
H249 C272 0.947 . S
H250 C273 0.948 . S
H251 C279 0.982 . S
H252 C280 0.979 . S
H253 C280 0.980 1_554 S
H254 C280 0.983 . S
H255 C279 0.979 . S
H256 C279 0.977 1_554 S
C257 C245 1.453 . S
C257 H286 0.982 . S
C257 H287 0.979 . S
C257 H288 0.977 . S
C258 C245 1.684 . S
C258 H283 0.979 . S
C258 H284 0.980 . S
C258 H285 0.983 . S
C259 C260 1.391 . S
C259 C264 1.391 . S
C259 H289 0.948 . S
C260 C259 1.391 . S
C260 C261 1.391 . S
C261 C260 1.391 . S
C261 C262 1.392 . S
C261 H290 0.947 . S
C262 C261 1.392 . S
C262 C263 1.419 . S
C262 H291 0.948 . S
C263 C262 1.419 . S
C263 C264 1.391 . S
C263 C267 1.397 . S
C264 C259 1.391 . S
C264 C263 1.391 . S
C264 C265 1.399 . S
C265 C264 1.399 . S
C265 C266 1.396 . S
C265 C268 1.453 . S
C265 C269 1.684 . S
C266 C247 1.723 . S
C266 C265 1.396 . S
C266 C267 1.394 . S
C267 C263 1.397 . S
C267 C266 1.394 . S
C267 C277 1.723 . S
C268 C265 1.453 . S
C268 H292 0.982 . S
C268 H293 0.979 . S
C268 H294 0.977 . S
C269 C265 1.684 . S
C269 H295 0.979 . S
C269 H296 0.980 . S
C269 H297 0.983 . S
C270 H246 0.948 . S
C270 C271 1.391 . S
C270 C275 1.391 . S
C271 C270 1.391 . S
C271 C272 1.391 . S
C272 H249 0.947 . S
C272 C271 1.391 . S
C272 C273 1.392 . S
C273 H250 0.948 . S
C273 C272 1.392 . S
C273 C274 1.419 . S
C274 C273 1.419 . S
C274 C275 1.391 . S
C274 C278 1.397 . S
C275 C270 1.391 . S
C275 C274 1.391 . S
C275 C276 1.399 . S
C276 C275 1.399 . S
C276 C277 1.396 1_556 S
C276 C279 1.453 . S
C276 C280 1.684 . S
C277 C267 1.723 . S
C277 C276 1.396 1_554 S
C277 C278 1.394 1_554 S
C278 C248 1.723 1_556 S
C278 C274 1.397 . S
C278 C277 1.394 1_556 S
C279 H251 0.982 . S
C279 H255 0.979 . S
C279 H256 0.977 1_556 S
C279 C276 1.453 . S
C280 H252 0.979 . S
C280 H253 0.980 1_556 S
C280 H254 0.983 . S
C280 C276 1.684 . S
H281 C299 0.948 . S
H282 C240 0.948 . S
H283 C258 0.979 . S
H284 C258 0.980 . S
H285 C258 0.983 . S
H286 C257 0.982 . S
H287 C257 0.979 . S
H288 C257 0.977 . S
H289 C259 0.948 . S
H290 C261 0.947 . S
H291 C262 0.948 . S
H292 C268 0.982 . S
H293 C268 0.979 . S
H294 C268 0.977 . S
H295 C269 0.979 . S
H296 C269 0.980 . S
H297 C269 0.983 . S
H298 C242 0.947 . S
C299 C242 1.392 . S
C299 C243 1.419 . S
C299 H281 0.948 . S
C300 C301 1.391 . S
C300 C304 1.391 . S
C300 H342 0.948 . S
C301 C300 1.391 . S
C301 C302 1.391 . S
C302 C301 1.391 . S
C302 H358 0.947 . S
C302 C359 1.392 . S
C303 C304 1.391 . S
C303 C307 1.397 . S
C303 C359 1.419 . S
C304 C300 1.391 . S
C304 C303 1.391 . S
C304 C305 1.399 . S
C305 C304 1.399 . S
C305 C308 1.396 . S
C305 C317 1.453 . S
C305 C318 1.684 . S
H306 C330 0.948 . S
C307 C303 1.397 . S
C307 C308 1.394 . S
C307 C326 1.723 . S
C308 C305 1.396 . S
C308 C307 1.394 . S
C308 C338 1.723 . S
H309 C332 0.947 . S
H310 C333 0.948 . S
H311 C339 0.982 . S
H312 C340 0.979 . S
H313 C340 0.980 . S
H314 C340 0.983 . S
H315 C339 0.979 . S
H316 C339 0.977 . S
C317 C305 1.453 . S
C317 H346 0.982 . S
C317 H347 0.979 . S
C317 H348 0.977 . S
C318 C305 1.684 . S
C318 H343 0.979 . S
C318 H344 0.980 . S
C318 H345 0.983 . S
C319 C320 1.391 . S
C319 C324 1.391 . S
C319 H349 0.948 . S
C320 C319 1.391 . S
C320 C321 1.391 . S
C321 C320 1.391 . S
C321 C322 1.392 . S
C321 H350 0.947 . S
C322 C321 1.392 . S
C322 C323 1.419 . S
C322 H351 0.948 . S
C323 C322 1.419 . S
C323 C324 1.391 . S
C323 C327 1.397 . S
C324 C319 1.391 . S
C324 C323 1.391 . S
C324 C325 1.399 . S
C325 C324 1.399 . S
C325 C326 1.396 1_556 S
C325 C328 1.453 . S
C325 C329 1.684 . S
C326 C307 1.723 . S
C326 C325 1.396 1_554 S
C326 C327 1.394 1_554 S
C327 C323 1.397 . S
C327 C326 1.394 1_556 S
C327 C337 1.723 1_556 S
C328 C325 1.453 . S
C328 H352 0.982 . S
C328 H353 0.979 . S
C328 H354 0.977 1_556 S
C329 C325 1.684 . S
C329 H355 0.979 . S
C329 H356 0.980 1_556 S
C329 H357 0.983 . S
C330 H306 0.948 . S
C330 C331 1.391 . S
C330 C335 1.391 . S
C331 C330 1.391 . S
C331 C332 1.391 . S
C332 H309 0.947 . S
C332 C331 1.391 . S
C332 C333 1.392 . S
C333 H310 0.948 . S
C333 C332 1.392 . S
C333 C334 1.419 . S
C334 C333 1.419 . S
C334 C335 1.391 . S
C334 C338 1.397 . S
C335 C330 1.391 . S
C335 C334 1.391 . S
C335 C336 1.399 1_554 S
C336 C335 1.399 1_556 S
C336 C337 1.396 1_556 S
C336 C339 1.453 . S
C336 C340 1.684 . S
C337 C327 1.723 1_554 S
C337 C336 1.396 1_554 S
C337 C338 1.394 . S
C338 C308 1.723 . S
C338 C334 1.397 . S
C338 C337 1.394 . S
C339 H311 0.982 . S
C339 H315 0.979 . S
C339 H316 0.977 . S
C339 C336 1.453 . S
C340 H312 0.979 . S
C340 H313 0.980 . S
C340 H314 0.983 . S
C340 C336 1.684 . S
H341 C359 0.948 . S
H342 C300 0.948 . S
H343 C318 0.979 . S
H344 C318 0.980 . S
H345 C318 0.983 . S
H346 C317 0.982 . S
H347 C317 0.979 . S
H348 C317 0.977 . S
H349 C319 0.948 . S
H350 C321 0.947 . S
H351 C322 0.948 . S
H352 C328 0.982 . S
H353 C328 0.979 . S
H354 C328 0.977 1_554 S
H355 C329 0.979 . S
H356 C329 0.980 1_554 S
H357 C329 0.983 . S
H358 C302 0.947 . S
C359 C302 1.392 . S
C359 C303 1.419 . S
C359 H341 0.948 . S
C360 C361 1.391 . S
C360 C364 1.391 . S
C360 H402 0.948 . S
C361 C360 1.391 . S
C361 C362 1.391 . S
C362 C361 1.391 . S
C362 H418 0.947 . S
C362 C419 1.392 . S
C363 C364 1.391 . S
C363 C367 1.397 . S
C363 C419 1.419 . S
C364 C360 1.391 . S
C364 C363 1.391 . S
C364 C365 1.399 . S
C365 C364 1.399 . S
C365 C368 1.396 . S
C365 C377 1.453 . S
C365 C378 1.684 . S
H366 C390 0.948 . S
C367 C363 1.397 . S
C367 C368 1.394 . S
C367 C386 1.723 1_556 S
C368 C365 1.396 . S
C368 C367 1.394 . S
C368 C398 1.723 1_556 S
H369 C392 0.947 . S
H370 C393 0.948 1_556 S
H371 C399 0.982 . S
H372 C400 0.979 . S
H373 C400 0.980 . S
H374 C400 0.983 . S
H375 C399 0.979 . S
H376 C399 0.977 . S
C377 C365 1.453 . S
C377 H406 0.982 . S
C377 H407 0.979 . S
C377 H408 0.977 . S
C378 C365 1.684 . S
C378 H403 0.979 . S
C378 H404 0.980 . S
C378 H405 0.983 . S
C379 C380 1.391 . S
C379 C384 1.391 . S
C379 H409 0.948 . S
C380 C379 1.391 . S
C380 C381 1.391 . S
C381 C380 1.391 . S
C381 C382 1.392 . S
C381 H410 0.947 . S
C382 C381 1.392 . S
C382 C383 1.419 . S
C382 H411 0.948 . S
C383 C382 1.419 . S
C383 C384 1.391 . S
C383 C387 1.397 . S
C384 C379 1.391 . S
C384 C383 1.391 . S
C384 C385 1.399 . S
C385 C384 1.399 . S
C385 C386 1.396 . S
C385 C388 1.453 . S
C385 C389 1.684 . S
C386 C367 1.723 1_554 S
C386 C385 1.396 . S
C386 C387 1.394 . S
C387 C383 1.397 . S
C387 C386 1.394 . S
C387 C397 1.723 . S
C388 C385 1.453 . S
C388 H412 0.982 . S
C388 H413 0.979 . S
C388 H414 0.977 1_554 S
C389 C385 1.684 . S
C389 H415 0.979 . S
C389 H416 0.980 1_554 S
C389 H417 0.983 . S
C390 H366 0.948 . S
C390 C391 1.391 . S
C390 C395 1.391 . S
C391 C390 1.391 . S
C391 C392 1.391 . S
C392 H369 0.947 . S
C392 C391 1.391 . S
C392 C393 1.392 . S
C393 H370 0.948 1_554 S
C393 C392 1.392 . S
C393 C394 1.419 . S
C394 C393 1.419 . S
C394 C395 1.391 . S
C394 C398 1.397 . S
C395 C390 1.391 . S
C395 C394 1.391 . S
C395 C396 1.399 . S
C396 C395 1.399 . S
C396 C397 1.396 . S
C396 C399 1.453 . S
C396 C400 1.684 . S
C397 C387 1.723 . S
C397 C396 1.396 . S
C397 C398 1.394 . S
C398 C368 1.723 1_554 S
C398 C394 1.397 . S
C398 C397 1.394 . S
C399 H371 0.982 . S
C399 H375 0.979 . S
C399 H376 0.977 . S
C399 C396 1.453 . S
C400 H372 0.979 . S
C400 H373 0.980 . S
C400 H374 0.983 . S
C400 C396 1.684 . S
H401 C419 0.948 . S
H402 C360 0.948 . S
H403 C378 0.979 . S
H404 C378 0.980 . S
H405 C378 0.983 . S
H406 C377 0.982 . S
H407 C377 0.979 . S
H408 C377 0.977 . S
H409 C379 0.948 . S
H410 C381 0.947 . S
H411 C382 0.948 . S
H412 C388 0.982 . S
H413 C388 0.979 . S
H414 C388 0.977 1_556 S
H415 C389 0.979 . S
H416 C389 0.980 1_556 S
H417 C389 0.983 . S
H418 C362 0.947 . S
C419 C362 1.392 . S
C419 C363 1.419 . S
C419 H401 0.948 . S
C420 C421 1.391 . S
C420 C424 1.391 . S
C420 H462 0.948 . S
C421 C420 1.391 . S
C421 C422 1.391 . S
C422 C421 1.391 . S
C422 H478 0.947 . S
C422 C479 1.392 . S
C423 C424 1.391 . S
C423 C427 1.397 . S
C423 C479 1.419 . S
C424 C420 1.391 . S
C424 C423 1.391 . S
C424 C425 1.399 . S
C425 C424 1.399 . S
C425 C428 1.396 . S
C425 C437 1.453 . S
C425 C438 1.684 . S
H426 C450 0.948 . S
C427 C423 1.397 . S
C427 C428 1.394 . S
C427 C446 1.723 1_556 S
C428 C425 1.396 . S
C428 C427 1.394 . S
C428 C458 1.723 1_556 S
H429 C452 0.947 1_556 S
H430 C453 0.948 1_556 S
H431 C459 0.982 . S
H432 C460 0.979 . S
H433 C460 0.980 . S
H434 C460 0.983 . S
H435 C459 0.979 . S
H436 C459 0.977 . S
C437 C425 1.453 . S
C437 H466 0.982 . S
C437 H467 0.979 . S
C437 H468 0.977 . S
C438 C425 1.684 . S
C438 H463 0.979 . S
C438 H464 0.980 . S
C438 H465 0.983 . S
C439 C440 1.391 . S
C439 C444 1.391 . S
C439 H469 0.948 . S
C440 C439 1.391 . S
C440 C441 1.391 . S
C441 C440 1.391 . S
C441 C442 1.392 . S
C441 H470 0.947 . S
C442 C441 1.392 . S
C442 C443 1.419 . S
C442 H471 0.948 . S
C443 C442 1.419 . S
C443 C444 1.391 . S
C443 C447 1.397 . S
C444 C439 1.391 . S
C444 C443 1.391 . S
C444 C445 1.399 . S
C445 C444 1.399 . S
C445 C446 1.396 . S
C445 C448 1.453 . S
C445 C449 1.684 . S
C446 C427 1.723 1_554 S
C446 C445 1.396 . S
C446 C447 1.394 . S
C447 C443 1.397 . S
C447 C446 1.394 . S
C447 C457 1.723 . S
C448 C445 1.453 . S
C448 H472 0.982 . S
C448 H473 0.979 . S
C448 H474 0.977 1_554 S
C449 C445 1.684 . S
C449 H475 0.979 . S
C449 H476 0.980 1_554 S
C449 H477 0.983 . S
C450 H426 0.948 . S
C450 C451 1.391 . S
C450 C455 1.391 . S
C451 C450 1.391 . S
C451 C452 1.391 . S
C452 H429 0.947 1_554 S
C452 C451 1.391 . S
C452 C453 1.392 . S
C453 H430 0.948 1_554 S
C453 C452 1.392 . S
C453 C454 1.419 . S
C454 C453 1.419 . S
C454 C455 1.391 . S
C454 C458 1.397 . S
C455 C450 1.391 . S
C455 C454 1.391 . S
C455 C456 1.399 . S
C456 C455 1.399 . S
C456 C457 1.396 . S
C456 C459 1.453 . S
C456 C460 1.684 . S
C457 C447 1.723 . S
C457 C456 1.396 . S
C457 C458 1.394 . S
C458 C428 1.723 1_554 S
C458 C454 1.397 . S
C458 C457 1.394 . S
C459 H431 0.982 . S
C459 H435 0.979 . S
C459 H436 0.977 . S
C459 C456 1.453 . S
C460 H432 0.979 . S
C460 H433 0.980 . S
C460 H434 0.983 . S
C460 C456 1.684 . S
H461 C479 0.948 . S
H462 C420 0.948 . S
H463 C438 0.979 . S
H464 C438 0.980 . S
H465 C438 0.983 . S
H466 C437 0.982 . S
H467 C437 0.979 . S
H468 C437 0.977 . S
H469 C439 0.948 . S
H470 C441 0.947 . S
H471 C442 0.948 . S
H472 C448 0.982 . S
H473 C448 0.979 . S
H474 C448 0.977 1_556 S
H475 C449 0.979 . S
H476 C449 0.980 1_556 S
H477 C449 0.983 . S
H478 C422 0.947 . S
C479 C422 1.392 . S
C479 C423 1.419 . S
C479 H461 0.948 . S
Tb480 N509 2.617 . S
Tb480 N515 2.572 . S
Tb480 O524 2.460 1_655 S
Tb480 O525 2.387 1_545 S
Tb480 O527 2.428 . S
Tb480 O528 2.308 1_655 S
Tb480 O532 2.349 1_655 S
Tb480 O535 2.393 . S
Tb480 C544 2.802 . S
C481 N482 1.379 1_545 S
C481 C484 1.416 . S
C481 C488 1.424 . S
N482 C481 1.379 1_565 S
N482 C485 1.334 . S
N482 Tb491 2.617 . S
C483 C485 1.390 1_545 S
C483 C486 1.339 . S
C483 H503 0.930 . S
C484 C481 1.416 . S
C484 C486 1.416 . S
C484 C490 1.448 . S
C485 N482 1.334 . S
C485 C483 1.390 1_565 S
C485 H496 0.930 . S
C486 C483 1.339 . S
C486 C484 1.416 . S
C486 H507 0.930 . S
C487 C488 1.413 . S
C487 C489 1.427 . S
C487 C493 1.416 . S
C488 C481 1.424 . S
C488 C487 1.413 . S
C488 N492 1.361 . S
C489 C487 1.427 . S
C489 C490 1.328 . S
C489 H504 0.929 . S
C490 C484 1.448 . S
C490 C489 1.328 . S
C490 H505 0.930 . S
Tb491 N482 2.617 . S
Tb491 N492 2.572 1_565 S
Tb491 O526 2.349 . S
Tb491 O529 2.393 . S
Tb491 O530 2.465 . S
Tb491 O531 2.387 1_565 S
Tb491 O533 2.428 . S
Tb491 O534 2.304 1_465 S
Tb491 C555 2.802 . S
N492 C488 1.361 . S
N492 Tb491 2.572 1_545 S
N492 C494 1.340 . S
C493 C487 1.416 . S
C493 C495 1.332 . S
C493 H501 0.931 . S
C494 N492 1.340 . S
C494 C495 1.407 . S
C494 H500 0.879 1_445 S
C495 C493 1.332 . S
C495 C494 1.407 . S
C495 H497 0.981 . S
H496 C485 0.930 . S
H497 C495 0.981 . S
H498 C513 0.930 . S
H499 C520 0.929 1_455 S
H500 C494 0.879 1_665 S
H501 C493 0.931 . S
H502 C516 0.922 1_455 S
H503 C483 0.930 . S
H504 C489 0.929 . S
H505 C490 0.930 . S
H506 C511 0.930 . S
H507 C486 0.930 . S
H508 C519 0.931 . S
N509 Tb480 2.617 . S
N509 C510 1.379 . S
N509 C513 1.334 . S
C510 N509 1.379 . S
C510 C512 1.416 1_545 S
C510 C518 1.424 . S
C511 H506 0.930 . S
C511 C513 1.390 . S
C511 C514 1.333 1_545 S
C512 C510 1.416 1_565 S
C512 C514 1.417 . S
C512 C545 1.448 . S
C513 H498 0.930 . S
C513 N509 1.334 . S
C513 C511 1.390 . S
C514 C511 1.333 1_565 S
C514 C512 1.417 . S
C514 H521 0.935 . S
N515 Tb480 2.572 . S
N515 C516 1.347 . S
N515 C518 1.361 . S
C516 H502 0.922 1_655 S
C516 N515 1.347 . S
C516 C520 1.408 1_545 S
C517 C518 1.413 1_565 S
C517 C519 1.416 . S
C517 C546 1.427 . S
C518 C510 1.424 . S
C518 N515 1.361 . S
C518 C517 1.413 1_545 S
C519 H508 0.931 . S
C519 C517 1.416 . S
C519 C520 1.332 . S
C520 H499 0.929 1_655 S
C520 C516 1.408 1_565 S
C520 C519 1.332 . S
H521 C514 0.935 . S
H522 C545 0.930 . S
H523 C546 0.929 . S
O524 Tb480 2.460 1_455 S
O524 C544 1.251 1_455 S
O525 Tb480 2.387 1_565 S
O525 C536 1.264 . S
O526 Tb491 2.349 . S
O526 C536 1.243 1_455 S
O527 Tb480 2.428 . S
O527 C544 1.256 . S
O528 Tb480 2.308 1_455 S
O528 C543 1.266 . S
O529 Tb491 2.393 . S
O529 C543 1.248 1_565 S
O530 Tb491 2.465 . S
O530 C555 1.264 . S
O531 Tb491 2.387 1_545 S
O531 C547 1.264 . S
O532 Tb480 2.349 1_455 S
O532 C547 1.243 . S
O533 Tb491 2.428 . S
O533 C555 1.256 . S
O534 Tb491 2.304 1_645 S
O534 C554 1.269 . S
O535 Tb480 2.393 . S
O535 C554 1.248 . S
C536 O525 1.264 . S
C536 O526 1.243 1_655 S
C537 C540 1.399 . S
C537 C542 1.383 . S
C537 C544 1.496 . S
C538 C539 1.399 . S
C538 C542 1.389 . S
C539 C538 1.399 . S
C539 C541 1.380 . S
C539 H556 0.929 . S
C540 C537 1.399 . S
C540 C541 1.392 . S
C540 H557 0.929 . S
C541 C539 1.380 . S
C541 C540 1.392 . S
C541 H558 0.929 . S
C542 C537 1.383 . S
C542 C538 1.389 . S
C542 H559 0.931 1_655 S
C543 O528 1.266 . S
C543 O529 1.248 1_545 S
C544 Tb480 2.802 . S
C544 O524 1.251 1_655 S
C544 O527 1.256 . S
C544 C537 1.496 . S
C545 C512 1.448 . S
C545 H522 0.930 . S
C545 C546 1.328 . S
C546 C517 1.427 . S
C546 H523 0.929 . S
C546 C545 1.328 . S
C547 O531 1.264 . S
C547 O532 1.243 . S
C548 C551 1.399 . S
C548 C552 1.383 . S
C548 C555 1.496 . S
C549 C550 1.399 . S
C549 C552 1.389 . S
C550 C549 1.399 . S
C550 C553 1.380 . S
C550 H560 0.929 . S
C551 C548 1.399 . S
C551 C553 1.392 . S
C551 H561 0.929 . S
C552 C548 1.383 . S
C552 C549 1.389 . S
C552 H562 0.960 . S
C553 C550 1.380 . S
C553 C551 1.392 . S
C553 H563 0.929 . S
C554 O534 1.269 . S
C554 O535 1.248 . S
C555 Tb491 2.802 . S
C555 O530 1.264 . S
C555 O533 1.256 . S
C555 C548 1.496 . S
H556 C539 0.929 . S
H557 C540 0.929 . S
H558 C541 0.929 . S
H559 C542 0.931 1_455 S
H560 C550 0.929 . S
H561 C551 0.929 . S
H562 C552 0.960 . S
H563 C553 0.929 . S
Tb564 N593 2.617 . S
Tb564 N599 2.572 . S
Tb564 O608 2.465 . S
Tb564 O609 2.387 . S
Tb564 O611 2.428 . S
Tb564 O612 2.308 . S
Tb564 O616 2.349 1_545 S
Tb564 O619 2.393 . S
Tb564 C628 2.802 . S
C565 N566 1.379 . S
C565 C568 1.416 . S
C565 C572 1.424 . S
N566 C565 1.379 . S
N566 C569 1.334 . S
N566 Tb575 2.617 . S
C567 C569 1.390 . S
C567 C570 1.339 . S
C567 H587 0.930 . S
C568 C565 1.416 . S
C568 C570 1.416 . S
C568 C574 1.448 . S
C569 N566 1.334 . S
C569 C567 1.390 . S
C569 H580 0.930 . S
C570 C567 1.339 . S
C570 C568 1.416 . S
C570 H591 0.930 . S
C571 C572 1.413 . S
C571 C573 1.427 . S
C571 C577 1.416 . S
C572 C565 1.424 . S
C572 C571 1.413 . S
C572 N576 1.361 . S
C573 C571 1.427 . S
C573 C574 1.328 . S
C573 H588 0.929 . S
C574 C568 1.448 . S
C574 C573 1.328 . S
C574 H589 0.930 . S
Tb575 N566 2.617 . S
Tb575 N576 2.572 . S
Tb575 O610 2.349 1_565 S
Tb575 O613 2.393 . S
Tb575 O614 2.465 . S
Tb575 O615 2.387 . S
Tb575 O617 2.428 . S
Tb575 O618 2.308 1_565 S
Tb575 C639 2.802 . S
N576 C572 1.361 . S
N576 Tb575 2.572 . S
N576 C578 1.340 . S
C577 C571 1.416 . S
C577 C579 1.332 . S
C577 H585 0.931 . S
C578 N576 1.340 . S
C578 C579 1.407 . S
C578 H584 0.930 . S
C579 C577 1.332 . S
C579 C578 1.407 . S
C579 H581 0.929 . S
H580 C569 0.930 . S
H581 C579 0.929 . S
H582 C597 0.930 . S
H583 C604 0.929 . S
H584 C578 0.930 . S
H585 C577 0.931 . S
H586 C600 0.930 . S
H587 C567 0.930 . S
H588 C573 0.929 . S
H589 C574 0.930 . S
H590 C595 0.930 . S
H591 C570 0.930 . S
H592 C603 0.931 . S
N593 Tb564 2.617 . S
N593 C594 1.379 . S
N593 C597 1.334 . S
C594 N593 1.379 . S
C594 C596 1.416 . S
C594 C602 1.424 . S
C595 H590 0.930 . S
C595 C597 1.390 . S
C595 C598 1.339 . S
C596 C594 1.416 . S
C596 C598 1.416 . S
C596 C629 1.448 . S
C597 H582 0.930 . S
C597 N593 1.334 . S
C597 C595 1.390 . S
C598 C595 1.339 . S
C598 C596 1.416 . S
C598 H605 0.930 . S
N599 Tb564 2.572 . S
N599 C600 1.340 . S
N599 C602 1.361 . S
C600 H586 0.930 . S
C600 N599 1.340 . S
C600 C604 1.407 . S
C601 C602 1.413 . S
C601 C603 1.416 . S
C601 C630 1.427 . S
C602 C594 1.424 . S
C602 N599 1.361 . S
C602 C601 1.413 . S
C603 H592 0.931 . S
C603 C601 1.416 . S
C603 C604 1.332 . S
C604 H583 0.929 . S
C604 C600 1.407 . S
C604 C603 1.332 . S
H605 C598 0.930 . S
H606 C629 0.930 . S
H607 C630 0.929 . S
O608 Tb564 2.465 . S
O608 C628 1.264 . S
O609 Tb564 2.387 . S
O609 C620 1.264 . S
O610 Tb575 2.349 1_545 S
O610 C620 1.243 . S
O611 Tb564 2.428 . S
O611 C628 1.256 . S
O612 Tb564 2.308 . S
O612 C627 1.266 1_545 S
O613 Tb575 2.393 . S
O613 C627 1.248 . S
O614 Tb575 2.465 . S
O614 C639 1.264 . S
O615 Tb575 2.387 . S
O615 C631 1.264 . S
O616 Tb564 2.349 1_565 S
O616 C631 1.243 . S
O617 Tb575 2.428 . S
O617 C639 1.256 . S
O618 Tb575 2.308 1_545 S
O618 C638 1.266 . S
O619 Tb564 2.393 . S
O619 C638 1.248 . S
C620 O609 1.264 . S
C620 O610 1.243 . S
C621 C624 1.399 . S
C621 C626 1.383 . S
C621 C628 1.496 . S
C622 C623 1.399 . S
C622 C626 1.389 . S
C623 C622 1.399 . S
C623 C625 1.380 . S
C623 H640 0.929 . S
C624 C621 1.399 . S
C624 C625 1.392 . S
C624 H641 0.929 . S
C625 C623 1.380 . S
C625 C624 1.392 . S
C625 H642 0.929 . S
C626 C621 1.383 . S
C626 C622 1.389 . S
C626 H643 0.931 . S
C627 O612 1.266 1_565 S
C627 O613 1.248 . S
C628 Tb564 2.802 . S
C628 O608 1.264 . S
C628 O611 1.256 . S
C628 C621 1.496 . S
C629 C596 1.448 . S
C629 H606 0.930 . S
C629 C630 1.328 . S
C630 C601 1.427 . S
C630 H607 0.929 . S
C630 C629 1.328 . S
C631 O615 1.264 . S
C631 O616 1.243 . S
C632 C635 1.399 . S
C632 C636 1.383 1_565 S
C632 C639 1.496 . S
C633 C634 1.399 1_545 S
C633 C636 1.389 . S
C634 C633 1.399 1_565 S
C634 C637 1.380 . S
C634 H644 0.929 . S
C635 C632 1.399 . S
C635 C637 1.392 . S
C635 H645 0.929 . S
C636 C632 1.383 1_545 S
C636 C633 1.389 . S
C636 H646 0.931 . S
C637 C634 1.380 . S
C637 C635 1.392 . S
C637 H647 0.929 . S
C638 O618 1.266 . S
C638 O619 1.248 . S
C639 Tb575 2.802 . S
C639 O614 1.264 . S
C639 O617 1.256 . S
C639 C632 1.496 . S
H640 C623 0.929 . S
H641 C624 0.929 . S
H642 C625 0.929 . S
H643 C626 0.931 . S
H644 C634 0.929 . S
H645 C635 0.929 . S
H646 C636 0.931 . S
H647 C637 0.929 . S
Tb648 N677 2.617 . S
Tb648 N683 2.572 . S
Tb648 O692 2.465 . S
Tb648 O693 2.387 . S
Tb648 O695 2.428 . S
Tb648 O696 2.308 . S
Tb648 O700 2.349 . S
Tb648 O703 2.393 . S
Tb648 C712 2.802 . S
C649 N650 1.379 . S
C649 C652 1.416 . S
C649 C656 1.424 . S
N650 C649 1.379 . S
N650 C653 1.334 . S
N650 Tb659 2.617 . S
C651 C653 1.390 . S
C651 C654 1.339 . S
C651 H671 0.930 . S
C652 C649 1.416 . S
C652 C654 1.416 . S
C652 C658 1.448 . S
C653 N650 1.334 . S
C653 C651 1.390 . S
C653 H664 0.930 . S
C654 C651 1.339 . S
C654 C652 1.416 . S
C654 H675 0.930 . S
C655 C656 1.413 . S
C655 C657 1.427 . S
C655 C661 1.416 . S
C656 C649 1.424 . S
C656 C655 1.413 . S
C656 N660 1.361 . S
C657 C655 1.427 . S
C657 C658 1.328 . S
C657 H672 0.929 . S
C658 C652 1.448 . S
C658 C657 1.328 . S
C658 H673 0.930 . S
Tb659 N650 2.617 . S
Tb659 N660 2.572 . S
Tb659 O694 2.349 . S
Tb659 O697 2.393 . S
Tb659 O698 2.465 . S
Tb659 O699 2.387 . S
Tb659 O701 2.428 . S
Tb659 O702 2.308 . S
Tb659 C723 2.802 . S
N660 C656 1.361 . S
N660 Tb659 2.572 . S
N660 C662 1.340 . S
C661 C655 1.416 . S
C661 C663 1.332 . S
C661 H669 0.931 . S
C662 N660 1.340 . S
C662 C663 1.407 . S
C662 H668 0.930 . S
C663 C661 1.332 . S
C663 C662 1.407 . S
C663 H665 0.929 . S
H664 C653 0.930 . S
H665 C663 0.929 . S
H666 C681 0.930 . S
H667 C688 0.929 . S
H668 C662 0.930 . S
H669 C661 0.931 . S
H670 C684 0.930 . S
H671 C651 0.930 . S
H672 C657 0.929 . S
H673 C658 0.930 . S
H674 C679 0.930 . S
H675 C654 0.930 . S
H676 C687 0.931 . S
N677 Tb648 2.617 . S
N677 C678 1.379 . S
N677 C681 1.334 . S
C678 N677 1.379 . S
C678 C680 1.416 . S
C678 C686 1.424 . S
C679 H674 0.930 . S
C679 C681 1.390 . S
C679 C682 1.339 . S
C680 C678 1.416 . S
C680 C682 1.416 . S
C680 C713 1.448 . S
C681 H666 0.930 . S
C681 N677 1.334 . S
C681 C679 1.390 . S
C682 C679 1.339 . S
C682 C680 1.416 . S
C682 H689 0.930 . S
N683 Tb648 2.572 . S
N683 C684 1.340 . S
N683 C686 1.361 . S
C684 H670 0.930 . S
C684 N683 1.340 . S
C684 C688 1.407 . S
C685 C686 1.413 . S
C685 C687 1.416 . S
C685 C714 1.427 . S
C686 C678 1.424 . S
C686 N683 1.361 . S
C686 C685 1.413 . S
C687 H676 0.931 . S
C687 C685 1.416 . S
C687 C688 1.332 . S
C688 H667 0.929 . S
C688 C684 1.407 . S
C688 C687 1.332 . S
H689 C682 0.930 . S
H690 C713 0.930 . S
H691 C714 0.929 . S
O692 Tb648 2.465 . S
O692 C712 1.264 . S
O693 Tb648 2.387 . S
O693 C704 1.264 . S
O694 Tb659 2.349 . S
O694 C704 1.243 . S
O695 Tb648 2.428 . S
O695 C712 1.256 . S
O696 Tb648 2.308 . S
O696 C711 1.266 . S
O697 Tb659 2.393 . S
O697 C711 1.248 . S
O698 Tb659 2.465 . S
O698 C723 1.264 . S
O699 Tb659 2.387 . S
O699 C715 1.264 . S
O700 Tb648 2.349 . S
O700 C715 1.243 . S
O701 Tb659 2.428 . S
O701 C723 1.256 . S
O702 Tb659 2.308 . S
O702 C722 1.266 . S
O703 Tb648 2.393 . S
O703 C722 1.248 . S
C704 O693 1.264 . S
C704 O694 1.243 . S
C705 C708 1.399 . S
C705 C710 1.383 . S
C705 C712 1.496 . S
C706 C707 1.399 . S
C706 C710 1.389 . S
C707 C706 1.399 . S
C707 C709 1.380 . S
C707 H724 0.929 . S
C708 C705 1.399 . S
C708 C709 1.392 . S
C708 H725 0.929 . S
C709 C707 1.380 . S
C709 C708 1.392 . S
C709 H726 0.929 . S
C710 C705 1.383 . S
C710 C706 1.389 . S
C710 H727 0.931 . S
C711 O696 1.266 . S
C711 O697 1.248 . S
C712 Tb648 2.802 . S
C712 O692 1.264 . S
C712 O695 1.256 . S
C712 C705 1.496 . S
C713 C680 1.448 . S
C713 H690 0.930 . S
C713 C714 1.328 . S
C714 C685 1.427 . S
C714 H691 0.929 . S
C714 C713 1.328 . S
C715 O699 1.264 . S
C715 O700 1.243 . S
C716 C719 1.399 . S
C716 C720 1.383 . S
C716 C723 1.496 . S
C717 C718 1.399 . S
C717 C720 1.389 . S
C718 C717 1.399 . S
C718 C721 1.380 . S
C718 H728 0.929 . S
C719 C716 1.399 . S
C719 C721 1.392 . S
C719 H729 0.929 . S
C720 C716 1.383 . S
C720 C717 1.389 . S
C720 H730 0.931 . S
C721 C718 1.380 . S
C721 C719 1.392 . S
C721 H731 0.929 . S
C722 O702 1.266 . S
C722 O703 1.248 . S
C723 Tb659 2.802 . S
C723 O698 1.264 . S
C723 O701 1.256 . S
C723 C716 1.496 . S
H724 C707 0.929 . S
H725 C708 0.929 . S
H726 C709 0.929 . S
H727 C710 0.931 . S
H728 C718 0.929 . S
H729 C719 0.929 . S
H730 C720 0.931 . S
H731 C721 0.929 . S
Tb732 N761 2.617 . S
Tb732 N767 2.572 . S
Tb732 O776 2.465 . S
Tb732 O777 2.387 1_455 S
Tb732 O779 2.428 . S
Tb732 O780 2.308 . S
Tb732 O784 2.349 . S
Tb732 O787 2.393 . S
Tb732 C796 2.802 . S
C733 N734 1.379 1_455 S
C733 C736 1.416 . S
C733 C740 1.424 . S
N734 C733 1.379 1_655 S
N734 C737 1.334 . S
N734 Tb743 2.617 . S
C735 C737 1.390 1_455 S
C735 C738 1.339 . S
C735 H755 0.929 1_455 S
C736 C733 1.416 . S
C736 C738 1.416 . S
C736 C742 1.448 . S
C737 N734 1.334 . S
C737 C735 1.390 1_655 S
C737 H748 0.930 . S
C738 C735 1.339 . S
C738 C736 1.416 . S
C738 H759 0.930 . S
C739 C740 1.413 . S
C739 C741 1.427 . S
C739 C745 1.416 . S
C740 C733 1.424 . S
C740 C739 1.413 . S
C740 N744 1.381 . S
C741 C739 1.427 . S
C741 C742 1.328 . S
C741 H756 0.929 . S
C742 C736 1.448 . S
C742 C741 1.328 . S
C742 H757 0.930 . S
Tb743 N734 2.617 . S
Tb743 N744 2.556 1_655 S
Tb743 O778 2.349 . S
Tb743 O781 2.393 . S
Tb743 O782 2.465 . S
Tb743 O783 2.387 1_655 S
Tb743 O785 2.428 . S
Tb743 O786 2.305 1_655 S
Tb743 C807 2.802 . S
N744 C740 1.381 . S
N744 Tb743 2.556 1_455 S
N744 C746 1.348 . S
C745 C739 1.416 . S
C745 C747 1.332 . S
C745 H753 0.931 . S
C746 N744 1.348 . S
C746 C747 1.407 . S
C746 H752 0.930 1_455 S
C747 C745 1.332 . S
C747 C746 1.407 . S
C747 H749 0.929 . S
H748 C737 0.930 . S
H749 C747 0.929 . S
H750 C765 0.930 . S
H751 C772 0.935 . S
H752 C746 0.930 1_655 S
H753 C745 0.931 . S
H754 C768 0.930 . S
H755 C735 0.929 1_655 S
H756 C741 0.929 . S
H757 C742 0.930 . S
H758 C763 0.930 . S
H759 C738 0.930 . S
H760 C771 0.931 . S
N761 Tb732 2.617 . S
N761 C762 1.379 . S
N761 C765 1.334 . S
C762 N761 1.379 . S
C762 C764 1.403 1_455 S
C762 C770 1.424 . S
C763 H758 0.930 . S
C763 C765 1.390 . S
C763 C766 1.366 . S
C764 C762 1.403 1_655 S
C764 C766 1.412 1_655 S
C764 C797 1.466 . S
C765 H750 0.930 . S
C765 N761 1.334 . S
C765 C763 1.390 . S
C766 C763 1.366 . S
C766 C764 1.412 1_455 S
C766 H773 0.911 1_455 S
N767 Tb732 2.572 . S
N767 C768 1.340 . S
N767 C770 1.361 . S
C768 H754 0.930 . S
C768 N767 1.340 . S
C768 C772 1.386 1_455 S
C769 C770 1.413 1_655 S
C769 C771 1.416 . S
C769 C798 1.427 . S
C770 C762 1.424 . S
C770 N767 1.361 . S
C770 C769 1.413 1_455 S
C771 H760 0.931 . S
C771 C769 1.416 . S
C771 C772 1.350 . S
C772 H751 0.935 . S
C772 C768 1.386 1_655 S
C772 C771 1.350 . S
H773 C766 0.911 1_655 S
H774 C797 0.930 . S
H775 C798 0.929 . S
O776 Tb732 2.465 . S
O776 C796 1.264 . S
O777 Tb732 2.387 1_655 S
O777 C788 1.264 . S
O778 Tb743 2.349 . S
O778 C788 1.243 . S
O779 Tb732 2.428 . S
O779 C796 1.256 . S
O780 Tb732 2.308 . S
O780 C795 1.266 . S
O781 Tb743 2.393 . S
O781 C795 1.248 1_655 S
O782 Tb743 2.465 . S
O782 C807 1.264 . S
O783 Tb743 2.387 1_455 S
O783 C799 1.264 . S
O784 Tb732 2.349 . S
O784 C799 1.243 . S
O785 Tb743 2.428 . S
O785 C807 1.256 . S
O786 Tb743 2.305 1_455 S
O786 C806 1.269 . S
O787 Tb732 2.393 . S
O787 C806 1.248 . S
C788 O777 1.264 . S
C788 O778 1.243 . S
C789 C792 1.399 . S
C789 C794 1.383 . S
C789 C796 1.496 . S
C790 C791 1.399 . S
C790 C794 1.389 . S
C791 C790 1.399 . S
C791 C793 1.380 . S
C791 H808 0.929 . S
C792 C789 1.399 . S
C792 C793 1.392 . S
C792 H809 0.929 . S
C793 C791 1.380 . S
C793 C792 1.392 . S
C793 H810 0.929 . S
C794 C789 1.383 . S
C794 C790 1.389 . S
C794 H811 0.931 . S
C795 O780 1.266 . S
C795 O781 1.248 1_455 S
C796 Tb732 2.802 . S
C796 O776 1.264 . S
C796 O779 1.256 . S
C796 C789 1.496 . S
C797 C764 1.466 . S
C797 H774 0.930 . S
C797 C798 1.328 . S
C798 C769 1.427 . S
C798 H775 0.929 . S
C798 C797 1.328 . S
C799 O783 1.264 . S
C799 O784 1.243 . S
C800 C803 1.399 . S
C800 C804 1.383 . S
C800 C807 1.496 . S
C801 C802 1.399 . S
C801 C804 1.389 . S
C802 C801 1.399 . S
C802 C805 1.380 . S
C802 H812 0.929 . S
C803 C800 1.399 . S
C803 C805 1.392 . S
C803 H813 0.929 . S
C804 C800 1.383 . S
C804 C801 1.389 . S
C804 H814 0.931 . S
C805 C802 1.380 . S
C805 C803 1.392 . S
C805 H815 0.929 . S
C806 O786 1.269 . S
C806 O787 1.248 . S
C807 Tb743 2.802 . S
C807 O782 1.264 . S
C807 O785 1.256 . S
C807 C800 1.496 . S
H808 C791 0.929 . S
H809 C792 0.929 . S
H810 C793 0.929 . S
H811 C794 0.931 . S
H812 C802 0.929 . S
H813 C803 0.929 . S
H814 C804 0.931 . S
H815 C805 0.929 . S
H816 C834 0.951 . S
H817 C836 0.951 . S
H818 C838 0.950 . S
H819 C839 0.950 . S
H820 C841 0.950 . S
H821 C844 0.950 . S
H822 C845 0.950 . S
H823 C847 0.950 . S
H824 C848 0.950 . S
H825 C849 0.951 . S
H826 C851 0.951 . S
H827 C853 0.950 . S
H828 C854 0.950 . S
H829 C856 0.950 . S
H830 C859 0.950 . S
H831 C860 0.950 . S
H832 C862 0.950 . S
H833 C863 0.950 . S
C834 H816 0.951 . S
C834 C835 1.366 . S
C834 C836 1.388 . S
C835 C834 1.366 . S
C835 C839 1.385 . S
C836 H817 0.951 . S
C836 C834 1.388 . S
C836 C837 1.366 . S
C837 C836 1.366 . S
C837 C838 1.414 . S
C837 C840 1.499 . S
C838 H818 0.950 . S
C838 C837 1.414 . S
C838 C839 1.374 . S
C839 H819 0.950 . S
C839 C835 1.385 . S
C839 C838 1.374 . S
C840 C837 1.499 . S
C840 C841 1.373 . S
C840 C842 1.389 . S
C841 H820 0.950 . S
C841 C840 1.373 . S
C841 C857 1.377 . S
C842 C840 1.389 . S
C842 C843 1.524 . S
C842 C856 1.377 . S
C843 C842 1.524 . S
C843 C844 1.397 . S
C843 C848 1.363 . S
C844 H821 0.950 . S
C844 C843 1.397 . S
C844 C845 1.334 . S
C845 H822 0.950 . S
C845 C844 1.334 . S
C845 C846 1.287 . S
C846 C845 1.287 . S
C846 C847 1.524 . S
C846 H865 0.913 . S
C847 H823 0.950 . S
C847 C846 1.524 . S
C847 C848 1.415 . S
C848 H824 0.950 . S
C848 C843 1.363 . S
C848 C847 1.415 . S
C849 H825 0.951 . S
C849 C850 1.366 . S
C849 C851 1.388 . S
C850 C849 1.366 . S
C850 C854 1.385 . S
C851 H826 0.951 . S
C851 C849 1.388 . S
C851 C852 1.366 . S
C852 C851 1.366 . S
C852 C853 1.414 . S
C852 C855 1.499 . S
C853 H827 0.950 . S
C853 C852 1.414 . S
C853 C854 1.374 . S
C854 H828 0.950 . S
C854 C850 1.385 . S
C854 C853 1.374 . S
C855 C852 1.499 . S
C855 C856 1.373 . S
C855 C857 1.389 . S
C856 H829 0.950 . S
C856 C842 1.377 . S
C856 C855 1.373 . S
C857 C841 1.377 . S
C857 C855 1.389 . S
C857 C858 1.524 . S
C858 C857 1.524 . S
C858 C859 1.397 1_545 S
C858 C863 1.363 . S
C859 H830 0.950 . S
C859 C858 1.397 1_565 S
C859 C860 1.334 . S
C860 H831 0.950 . S
C860 C859 1.334 . S
C860 C861 1.287 . S
C861 C860 1.287 . S
C861 C862 1.524 . S
C861 H864 0.999 . S
C862 H832 0.950 . S
C862 C861 1.524 . S
C862 C863 1.415 1_565 S
C863 H833 0.950 . S
C863 C858 1.363 . S
C863 C862 1.415 1_545 S
H864 C861 0.999 . S
H865 C846 0.913 . S
H866 C884 0.951 . S
H867 C886 0.951 . S
H868 C888 0.950 . S
H869 C889 0.950 . S
H870 C891 0.950 . S
H871 C894 0.950 . S
H872 C895 0.950 . S
H873 C897 0.950 . S
H874 C898 0.950 . S
H875 C899 0.951 . S
H876 C901 0.951 . S
H877 C903 0.950 . S
H878 C904 0.950 . S
H879 C906 0.950 . S
H880 C909 0.950 . S
H881 C910 0.950 . S
H882 C912 0.950 . S
H883 C913 0.950 . S
C884 H866 0.951 . S
C884 C885 1.366 . S
C884 C886 1.388 . S
C885 C884 1.366 . S
C885 C889 1.385 . S
C886 H867 0.951 . S
C886 C884 1.388 . S
C886 C887 1.366 . S
C887 C886 1.366 . S
C887 C888 1.414 . S
C887 C890 1.499 . S
C888 H868 0.950 . S
C888 C887 1.414 . S
C888 C889 1.374 . S
C889 H869 0.950 . S
C889 C885 1.385 . S
C889 C888 1.374 . S
C890 C887 1.499 . S
C890 C891 1.373 . S
C890 C892 1.389 . S
C891 H870 0.950 . S
C891 C890 1.373 . S
C891 C907 1.377 . S
C892 C890 1.389 . S
C892 C893 1.524 . S
C892 C906 1.377 . S
C893 C892 1.524 . S
C893 C894 1.397 . S
C893 C898 1.363 . S
C894 H871 0.950 . S
C894 C893 1.397 . S
C894 C895 1.334 . S
C895 H872 0.950 . S
C895 C894 1.334 . S
C895 C896 1.287 . S
C896 C895 1.287 . S
C896 C897 1.524 . S
C896 H915 0.913 . S
C897 H873 0.950 . S
C897 C896 1.524 . S
C897 C898 1.415 . S
C898 H874 0.950 . S
C898 C893 1.363 . S
C898 C897 1.415 . S
C899 H875 0.951 . S
C899 C900 1.366 . S
C899 C901 1.388 . S
C900 C899 1.366 . S
C900 C904 1.385 . S
C901 H876 0.951 . S
C901 C899 1.388 . S
C901 C902 1.366 . S
C902 C901 1.366 . S
C902 C903 1.414 . S
C902 C905 1.499 . S
C903 H877 0.950 . S
C903 C902 1.414 . S
C903 C904 1.374 . S
C904 H878 0.950 . S
C904 C900 1.385 . S
C904 C903 1.374 . S
C905 C902 1.499 . S
C905 C906 1.373 . S
C905 C907 1.389 . S
C906 H879 0.950 . S
C906 C892 1.377 . S
C906 C905 1.373 . S
C907 C891 1.377 . S
C907 C905 1.389 . S
C907 C908 1.524 . S
C908 C907 1.524 . S
C908 C909 1.397 . S
C908 C913 1.363 . S
C909 H880 0.950 . S
C909 C908 1.397 . S
C909 C910 1.334 . S
C910 H881 0.950 . S
C910 C909 1.334 . S
C910 C911 1.287 . S
C911 C910 1.287 . S
C911 C912 1.524 . S
C911 H914 0.999 . S
C912 H882 0.950 . S
C912 C911 1.524 . S
C912 C913 1.415 . S
C913 H883 0.950 . S
C913 C908 1.363 . S
C913 C912 1.415 . S
H914 C911 0.999 . S
H915 C896 0.913 . S
H916 C934 0.951 . S
H917 C936 0.951 . S
H918 C938 0.950 . S
H919 C939 0.950 . S
H920 C941 0.950 . S
H921 C944 0.950 . S
H922 C945 0.950 . S
H923 C947 0.950 . S
H924 C948 0.950 . S
H925 C949 0.951 . S
H926 C951 0.951 . S
H927 C953 0.950 . S
H928 C954 0.950 . S
H929 C956 0.950 . S
H930 C959 0.950 . S
H931 C960 0.950 . S
H932 C962 0.950 . S
H933 C963 0.950 . S
C934 H916 0.951 . S
C934 C935 1.366 . S
C934 C936 1.388 . S
C935 C934 1.366 . S
C935 C939 1.385 . S
C936 H917 0.951 . S
C936 C934 1.388 . S
C936 C937 1.366 . S
C937 C936 1.366 . S
C937 C938 1.414 . S
C937 C940 1.499 . S
C938 H918 0.950 . S
C938 C937 1.414 . S
C938 C939 1.374 . S
C939 H919 0.950 . S
C939 C935 1.385 . S
C939 C938 1.374 . S
C940 C937 1.499 . S
C940 C941 1.373 . S
C940 C942 1.389 . S
C941 H920 0.950 . S
C941 C940 1.373 . S
C941 C957 1.377 . S
C942 C940 1.389 . S
C942 C943 1.524 . S
C942 C956 1.377 . S
C943 C942 1.524 . S
C943 C944 1.397 . S
C943 C948 1.363 . S
C944 H921 0.950 . S
C944 C943 1.397 . S
C944 C945 1.334 . S
C945 H922 0.950 . S
C945 C944 1.334 . S
C945 C946 1.287 . S
C946 C945 1.287 . S
C946 C947 1.524 . S
C946 H965 0.913 . S
C947 H923 0.950 . S
C947 C946 1.524 . S
C947 C948 1.415 . S
C948 H924 0.950 . S
C948 C943 1.363 . S
C948 C947 1.415 . S
C949 H925 0.951 . S
C949 C950 1.366 . S
C949 C951 1.388 . S
C950 C949 1.366 . S
C950 C954 1.385 . S
C951 H926 0.951 . S
C951 C949 1.388 . S
C951 C952 1.366 . S
C952 C951 1.366 . S
C952 C953 1.414 . S
C952 C955 1.499 . S
C953 H927 0.950 . S
C953 C952 1.414 . S
C953 C954 1.374 . S
C954 H928 0.950 . S
C954 C950 1.385 . S
C954 C953 1.374 . S
C955 C952 1.499 . S
C955 C956 1.373 . S
C955 C957 1.389 . S
C956 H929 0.950 . S
C956 C942 1.377 . S
C956 C955 1.373 . S
C957 C941 1.377 . S
C957 C955 1.389 . S
C957 C958 1.524 . S
C958 C957 1.524 . S
C958 C959 1.397 . S
C958 C963 1.363 . S
C959 H930 0.950 . S
C959 C958 1.397 . S
C959 C960 1.334 . S
C960 H931 0.950 . S
C960 C959 1.334 . S
C960 C961 1.287 . S
C961 C960 1.287 . S
C961 C962 1.524 . S
C961 H964 0.999 . S
C962 H932 0.950 . S
C962 C961 1.524 . S
C962 C963 1.415 . S
C963 H933 0.950 . S
C963 C958 1.363 . S
C963 C962 1.415 . S
H964 C961 0.999 . S
H965 C946 0.913 . S
H966 C984 0.951 . S
H967 C986 0.951 . S
H968 C988 0.950 . S
H969 C989 0.950 . S
H970 C991 0.950 . S
H971 C994 0.950 . S
H972 C995 0.950 . S
H973 C997 0.950 . S
H974 C998 0.950 . S
H975 C999 0.951 . S
H976 C1001 0.951 . S
H977 C1003 0.950 . S
H978 C1004 0.950 . S
H979 C1006 0.950 . S
H980 C1009 0.950 . S
H981 C1010 0.950 . S
H982 C1012 0.950 . S
H983 C1013 0.950 . S
C984 H966 0.951 . S
C984 C985 1.366 . S
C984 C986 1.388 . S
C985 C984 1.366 . S
C985 C989 1.385 . S
C986 H967 0.951 . S
C986 C984 1.388 . S
C986 C987 1.366 . S
C987 C986 1.366 . S
C987 C988 1.414 . S
C987 C990 1.499 . S
C988 H968 0.950 . S
C988 C987 1.414 . S
C988 C989 1.374 . S
C989 H969 0.950 . S
C989 C985 1.385 . S
C989 C988 1.374 . S
C990 C987 1.499 . S
C990 C991 1.373 . S
C990 C992 1.389 . S
C991 H970 0.950 . S
C991 C990 1.373 . S
C991 C1007 1.377 . S
C992 C990 1.389 . S
C992 C993 1.524 . S
C992 C1006 1.377 . S
C993 C992 1.524 . S
C993 C994 1.397 1_455 S
C993 C998 1.363 . S
C994 H971 0.950 . S
C994 C993 1.397 1_655 S
C994 C995 1.334 . S
C995 H972 0.950 . S
C995 C994 1.334 . S
C995 C996 1.287 . S
C996 C995 1.287 . S
C996 C997 1.524 1_655 S
C996 H1015 0.913 . S
C997 H973 0.950 . S
C997 C996 1.524 1_455 S
C997 C998 1.415 . S
C998 H974 0.950 . S
C998 C993 1.363 . S
C998 C997 1.415 . S
C999 H975 0.951 . S
C999 C1000 1.366 . S
C999 C1001 1.388 . S
C1000 C999 1.366 . S
C1000 C1004 1.385 . S
C1001 H976 0.951 . S
C1001 C999 1.388 . S
C1001 C1002 1.366 . S
C1002 C1001 1.366 . S
C1002 C1003 1.414 . S
C1002 C1005 1.499 . S
C1003 H977 0.950 . S
C1003 C1002 1.414 . S
C1003 C1004 1.374 . S
C1004 H978 0.950 . S
C1004 C1000 1.385 . S
C1004 C1003 1.374 . S
C1005 C1002 1.499 . S
C1005 C1006 1.373 . S
C1005 C1007 1.389 . S
C1006 H979 0.950 . S
C1006 C992 1.377 . S
C1006 C1005 1.373 . S
C1007 C991 1.377 . S
C1007 C1005 1.389 . S
C1007 C1008 1.524 . S
C1008 C1007 1.524 . S
C1008 C1009 1.397 . S
C1008 C1013 1.363 . S
C1009 H980 0.950 . S
C1009 C1008 1.397 . S
C1009 C1010 1.334 . S
C1010 H981 0.950 . S
C1010 C1009 1.334 . S
C1010 C1011 1.287 . S
C1011 C1010 1.287 . S
C1011 C1012 1.524 . S
C1011 H1014 0.999 . S
C1012 H982 0.950 . S
C1012 C1011 1.524 . S
C1012 C1013 1.415 . S
C1013 H983 0.950 . S
C1013 C1008 1.363 . S
C1013 C1012 1.415 . S
H1014 C1011 0.999 . S
H1015 C996 0.913 . S
H1016 C1034 0.951 . S
H1017 C1036 0.951 . S
H1018 C1038 0.950 . S
H1019 C1039 0.950 . S
H1020 C1041 0.950 . S
H1021 C1044 0.950 . S
H1022 C1045 0.950 . S
H1023 C1047 0.950 . S
H1024 C1048 0.950 . S
H1025 C1049 0.951 . S
H1026 C1051 0.951 . S
H1027 C1053 0.950 . S
H1028 C1054 0.949 1_545 S
H1029 C1056 0.950 . S
H1030 C1059 0.950 . S
H1031 C1060 0.950 . S
H1032 C1062 0.950 . S
H1033 C1063 0.950 1_565 S
C1034 H1016 0.951 . S
C1034 C1035 1.366 . S
C1034 C1036 1.388 1_554 S
C1035 C1034 1.366 . S
C1035 C1039 1.385 . S
C1036 H1017 0.951 . S
C1036 C1034 1.388 1_556 S
C1036 C1037 1.366 . S
C1037 C1036 1.366 . S
C1037 C1038 1.414 1_556 S
C1037 C1040 1.499 . S
C1038 H1018 0.950 . S
C1038 C1037 1.414 1_554 S
C1038 C1039 1.374 . S
C1039 H1019 0.950 . S
C1039 C1035 1.385 . S
C1039 C1038 1.374 . S
C1040 C1037 1.499 . S
C1040 C1041 1.373 . S
C1040 C1042 1.389 . S
C1041 H1020 0.950 . S
C1041 C1040 1.373 . S
C1041 C1057 1.377 . S
C1042 C1040 1.389 . S
C1042 C1043 1.524 . S
C1042 C1056 1.377 . S
C1043 C1042 1.524 . S
C1043 C1044 1.397 . S
C1043 C1048 1.363 . S
C1044 H1021 0.950 . S
C1044 C1043 1.397 . S
C1044 C1045 1.334 . S
C1045 H1022 0.950 . S
C1045 C1044 1.334 . S
C1045 C1046 1.287 . S
C1046 C1045 1.287 . S
C1046 C1047 1.524 . S
C1046 H1065 0.913 . S
C1047 H1023 0.950 . S
C1047 C1046 1.524 . S
C1047 C1048 1.415 . S
C1048 H1024 0.950 . S
C1048 C1043 1.363 . S
C1048 C1047 1.415 . S
C1049 H1025 0.951 . S
C1049 C1050 1.366 . S
C1049 C1051 1.388 . S
C1050 C1049 1.366 . S
C1050 C1054 1.385 . S
C1051 H1026 0.951 . S
C1051 C1049 1.388 . S
C1051 C1052 1.366 . S
C1052 C1051 1.366 . S
C1052 C1053 1.414 . S
C1052 C1055 1.499 . S
C1053 H1027 0.950 . S
C1053 C1052 1.414 . S
C1053 C1054 1.374 . S
C1054 H1028 0.949 1_565 S
C1054 C1050 1.385 . S
C1054 C1053 1.374 . S
C1055 C1052 1.499 . S
C1055 C1056 1.373 . S
C1055 C1057 1.389 . S
C1056 H1029 0.950 . S
C1056 C1042 1.377 . S
C1056 C1055 1.373 . S
C1057 C1041 1.377 . S
C1057 C1055 1.389 . S
C1057 C1058 1.524 1_565 S
C1058 C1057 1.524 1_545 S
C1058 C1059 1.397 . S
C1058 C1063 1.363 . S
C1059 H1030 0.950 . S
C1059 C1058 1.397 . S
C1059 C1060 1.334 . S
C1060 H1031 0.950 . S
C1060 C1059 1.334 . S
C1060 C1061 1.287 . S
C1061 C1060 1.287 . S
C1061 C1062 1.524 . S
C1061 H1064 0.999 . S
C1062 H1032 0.950 . S
C1062 C1061 1.524 . S
C1062 C1063 1.415 . S
C1063 H1033 0.950 1_545 S
C1063 C1058 1.363 . S
C1063 C1062 1.415 . S
H1064 C1061 0.999 . S
H1065 C1046 0.913 . S
H1066 C1084 0.951 . S
H1067 C1086 0.951 . S
H1068 C1088 0.950 . S
H1069 C1089 0.950 . S
H1070 C1091 0.950 . S
H1071 C1094 0.950 . S
H1072 C1095 0.950 . S
H1073 C1097 0.950 . S
H1074 C1098 0.950 1_556 S
H1075 C1099 0.951 . S
H1076 C1101 0.951 . S
H1077 C1103 0.950 . S
H1078 C1104 0.950 . S
H1079 C1106 0.950 . S
H1080 C1109 0.950 . S
H1081 C1110 0.950 . S
H1082 C1112 0.950 . S
H1083 C1113 0.950 . S
C1084 H1066 0.951 . S
C1084 C1085 1.366 . S
C1084 C1086 1.388 . S
C1085 C1084 1.366 . S
C1085 C1089 1.385 . S
C1086 H1067 0.951 . S
C1086 C1084 1.388 . S
C1086 C1087 1.366 1_554 S
C1087 C1086 1.366 1_556 S
C1087 C1088 1.414 . S
C1087 C1090 1.499 . S
C1088 H1068 0.950 . S
C1088 C1087 1.414 . S
C1088 C1089 1.374 1_556 S
C1089 H1069 0.950 . S
C1089 C1085 1.385 . S
C1089 C1088 1.374 1_554 S
C1090 C1087 1.499 . S
C1090 C1091 1.373 . S
C1090 C1092 1.389 . S
C1091 H1070 0.950 . S
C1091 C1090 1.373 . S
C1091 C1107 1.377 . S
C1092 C1090 1.389 . S
C1092 C1093 1.524 . S
C1092 C1106 1.377 . S
C1093 C1092 1.524 . S
C1093 C1094 1.397 . S
C1093 C1098 1.363 1_556 S
C1094 H1071 0.950 . S
C1094 C1093 1.397 . S
C1094 C1095 1.334 1_556 S
C1095 H1072 0.950 . S
C1095 C1094 1.334 1_554 S
C1095 C1096 1.287 . S
C1096 C1095 1.287 . S
C1096 C1097 1.524 . S
C1096 H1115 0.913 . S
C1097 H1073 0.950 . S
C1097 C1096 1.524 . S
C1097 C1098 1.415 . S
C1098 H1074 0.950 1_554 S
C1098 C1093 1.363 1_554 S
C1098 C1097 1.415 . S
C1099 H1075 0.951 . S
C1099 C1100 1.366 . S
C1099 C1101 1.388 . S
C1100 C1099 1.366 . S
C1100 C1104 1.385 . S
C1101 H1076 0.951 . S
C1101 C1099 1.388 . S
C1101 C1102 1.366 . S
C1102 C1101 1.366 . S
C1102 C1103 1.414 . S
C1102 C1105 1.499 . S
C1103 H1077 0.950 . S
C1103 C1102 1.414 . S
C1103 C1104 1.374 . S
C1104 H1078 0.950 . S
C1104 C1100 1.385 . S
C1104 C1103 1.374 . S
C1105 C1102 1.499 . S
C1105 C1106 1.373 . S
C1105 C1107 1.389 . S
C1106 H1079 0.950 . S
C1106 C1092 1.377 . S
C1106 C1105 1.373 . S
C1107 C1091 1.377 . S
C1107 C1105 1.389 . S
C1107 C1108 1.524 . S
C1108 C1107 1.524 . S
C1108 C1109 1.397 . S
C1108 C1113 1.363 . S
C1109 H1080 0.950 . S
C1109 C1108 1.397 . S
C1109 C1110 1.334 . S
C1110 H1081 0.950 . S
C1110 C1109 1.334 . S
C1110 C1111 1.287 . S
C1111 C1110 1.287 . S
C1111 C1112 1.524 . S
C1111 H1114 0.999 . S
C1112 H1082 0.950 . S
C1112 C1111 1.524 . S
C1112 C1113 1.415 . S
C1113 H1083 0.950 . S
C1113 C1108 1.363 . S
C1113 C1112 1.415 . S
H1114 C1111 0.999 . S
H1115 C1096 0.913 . S
H1116 C1134 0.951 . S
H1117 C1136 0.951 . S
H1118 C1138 0.960 . S
H1119 C1139 0.950 . S
H1120 C1141 0.950 . S
H1121 C1144 0.950 . S
H1122 C1145 0.950 . S
H1123 C1147 0.950 . S
H1124 C1148 0.950 1_556 S
H1125 C1149 0.951 . S
H1126 C1151 0.951 . S
H1127 C1153 0.950 . S
H1128 C1154 0.950 . S
H1129 C1156 0.950 . S
H1130 C1159 0.950 . S
H1131 C1160 0.950 . S
H1132 C1162 0.950 . S
H1133 C1163 0.950 . S
C1134 H1116 0.951 . S
C1134 C1135 1.366 . S
C1134 C1136 1.388 . S
C1135 C1134 1.366 . S
C1135 C1139 1.385 . S
C1136 H1117 0.951 . S
C1136 C1134 1.388 . S
C1136 C1137 1.366 1_554 S
C1137 C1136 1.366 1_556 S
C1137 C1138 1.415 . S
C1137 C1140 1.499 . S
C1138 H1118 0.960 . S
C1138 C1137 1.415 . S
C1138 C1139 1.363 1_556 S
C1139 H1119 0.950 . S
C1139 C1135 1.385 . S
C1139 C1138 1.363 1_554 S
C1140 C1137 1.499 . S
C1140 C1141 1.373 . S
C1140 C1142 1.389 . S
C1141 H1120 0.950 . S
C1141 C1140 1.373 . S
C1141 C1157 1.377 . S
C1142 C1140 1.389 . S
C1142 C1143 1.524 . S
C1142 C1156 1.377 . S
C1143 C1142 1.524 . S
C1143 C1144 1.397 1_556 S
C1143 C1148 1.363 1_556 S
C1144 H1121 0.950 . S
C1144 C1143 1.397 1_554 S
C1144 C1145 1.334 . S
C1145 H1122 0.950 . S
C1145 C1144 1.334 . S
C1145 C1146 1.287 . S
C1146 C1145 1.287 . S
C1146 C1147 1.524 . S
C1146 H1165 0.913 . S
C1147 H1123 0.950 . S
C1147 C1146 1.524 . S
C1147 C1148 1.415 . S
C1148 H1124 0.950 1_554 S
C1148 C1143 1.363 1_554 S
C1148 C1147 1.415 . S
C1149 H1125 0.951 . S
C1149 C1150 1.366 . S
C1149 C1151 1.388 . S
C1150 C1149 1.366 . S
C1150 C1154 1.385 . S
C1151 H1126 0.951 . S
C1151 C1149 1.388 . S
C1151 C1152 1.366 . S
C1152 C1151 1.366 . S
C1152 C1153 1.414 . S
C1152 C1155 1.499 . S
C1153 H1127 0.950 . S
C1153 C1152 1.414 . S
C1153 C1154 1.374 . S
C1154 H1128 0.950 . S
C1154 C1150 1.385 . S
C1154 C1153 1.374 . S
C1155 C1152 1.499 . S
C1155 C1156 1.373 . S
C1155 C1157 1.389 . S
C1156 H1129 0.950 . S
C1156 C1142 1.377 . S
C1156 C1155 1.373 . S
C1157 C1141 1.377 . S
C1157 C1155 1.389 . S
C1157 C1158 1.524 . S
C1158 C1157 1.524 . S
C1158 C1159 1.397 . S
C1158 C1163 1.363 . S
C1159 H1130 0.950 . S
C1159 C1158 1.397 . S
C1159 C1160 1.334 . S
C1160 H1131 0.950 . S
C1160 C1159 1.334 . S
C1160 C1161 1.287 . S
C1161 C1160 1.287 . S
C1161 C1162 1.524 . S
C1161 H1164 0.999 . S
C1162 H1132 0.950 . S
C1162 C1161 1.524 . S
C1162 C1163 1.415 . S
C1163 H1133 0.950 . S
C1163 C1158 1.363 . S
C1163 C1162 1.415 . S
H1164 C1161 0.999 . S
H1165 C1146 0.913 . S
H1166 C1184 0.951 . S
H1167 C1186 0.951 . S
H1168 C1188 0.950 . S
H1169 C1189 0.950 . S
H1170 C1191 0.950 . S
H1171 C1194 0.950 . S
H1172 C1195 0.950 . S
H1173 C1197 0.950 . S
H1174 C1198 0.950 . S
H1175 C1199 0.951 . S
H1176 C1201 0.951 . S
H1177 C1203 0.950 . S
H1178 C1204 0.950 . S
H1179 C1206 0.951 . S
H1180 C1209 0.950 . S
H1181 C1210 0.950 . S
H1182 C1212 0.950 . S
H1183 C1213 0.950 . S
C1184 H1166 0.951 . S
C1184 C1185 1.366 . S
C1184 C1186 1.388 . S
C1185 C1184 1.366 . S
C1185 C1189 1.385 . S
C1186 H1167 0.951 . S
C1186 C1184 1.388 . S
C1186 C1187 1.366 1_554 S
C1187 C1186 1.366 1_556 S
C1187 C1188 1.414 . S
C1187 C1190 1.499 . S
C1188 H1168 0.950 . S
C1188 C1187 1.414 . S
C1188 C1189 1.374 1_556 S
C1189 H1169 0.950 . S
C1189 C1185 1.385 . S
C1189 C1188 1.374 1_554 S
C1190 C1187 1.499 . S
C1190 C1191 1.373 . S
C1190 C1192 1.389 . S
C1191 H1170 0.950 . S
C1191 C1190 1.373 . S
C1191 C1207 1.377 . S
C1192 C1190 1.389 . S
C1192 C1193 1.524 1_655 S
C1192 C1206 1.376 1_655 S
C1193 C1192 1.524 1_455 S
C1193 C1194 1.397 . S
C1193 C1198 1.363 . S
C1194 H1171 0.950 . S
C1194 C1193 1.397 . S
C1194 C1195 1.334 . S
C1195 H1172 0.950 . S
C1195 C1194 1.334 . S
C1195 C1196 1.287 . S
C1196 C1195 1.287 . S
C1196 C1197 1.524 . S
C1196 H1215 0.913 . S
C1197 H1173 0.950 . S
C1197 C1196 1.524 . S
C1197 C1198 1.415 . S
C1198 H1174 0.950 . S
C1198 C1193 1.363 . S
C1198 C1197 1.415 . S
C1199 H1175 0.951 . S
C1199 C1200 1.366 . S
C1199 C1201 1.388 . S
C1200 C1199 1.366 . S
C1200 C1204 1.385 1_655 S
C1201 H1176 0.951 . S
C1201 C1199 1.388 . S
C1201 C1202 1.366 . S
C1202 C1201 1.366 . S
C1202 C1203 1.414 1_655 S
C1202 C1205 1.499 . S
C1203 H1177 0.950 . S
C1203 C1202 1.414 1_455 S
C1203 C1204 1.374 . S
C1204 H1178 0.950 . S
C1204 C1200 1.385 1_455 S
C1204 C1203 1.374 . S
C1205 C1202 1.499 . S
C1205 C1206 1.373 1_655 S
C1205 C1207 1.389 . S
C1206 H1179 0.951 . S
C1206 C1192 1.376 1_455 S
C1206 C1205 1.373 1_455 S
C1207 C1191 1.377 . S
C1207 C1205 1.389 . S
C1207 C1208 1.524 . S
C1208 C1207 1.524 . S
C1208 C1209 1.397 . S
C1208 C1213 1.363 . S
C1209 H1180 0.950 . S
C1209 C1208 1.397 . S
C1209 C1210 1.334 . S
C1210 H1181 0.950 . S
C1210 C1209 1.334 . S
C1210 C1211 1.287 . S
C1211 C1210 1.287 . S
C1211 C1212 1.524 . S
C1211 H1214 0.999 . S
C1212 H1182 0.950 . S
C1212 C1211 1.524 . S
C1212 C1213 1.415 . S
C1213 H1183 0.950 . S
C1213 C1208 1.363 . S
C1213 C1212 1.415 . S
H1214 C1211 0.999 . S
H1215 C1196 0.913 . S
H1216 C1234 0.951 . S
H1217 C1236 0.951 . S
H1218 C1238 0.950 . S
H1219 C1239 0.950 . S
H1220 C1241 0.950 . S
H1221 C1244 0.950 . S
H1222 C1245 0.950 . S
H1223 C1247 0.950 . S
H1224 C1248 0.950 . S
H1225 C1249 0.951 1_655 S
H1226 C1251 0.951 . S
H1227 C1253 0.950 . S
H1228 C1254 0.950 . S
H1229 C1256 0.950 . S
H1230 C1259 0.950 . S
H1231 C1260 0.950 . S
H1232 C1262 0.950 . S
H1233 C1263 0.950 . S
C1234 H1216 0.951 . S
C1234 C1235 1.366 . S
C1234 C1236 1.388 . S
C1235 C1234 1.366 . S
C1235 C1239 1.385 . S
C1236 H1217 0.951 . S
C1236 C1234 1.388 . S
C1236 C1237 1.366 . S
C1237 C1236 1.366 . S
C1237 C1238 1.414 . S
C1237 C1240 1.499 . S
C1238 H1218 0.950 . S
C1238 C1237 1.414 . S
C1238 C1239 1.374 . S
C1239 H1219 0.950 . S
C1239 C1235 1.385 . S
C1239 C1238 1.374 . S
C1240 C1237 1.499 . S
C1240 C1241 1.373 . S
C1240 C1242 1.389 . S
C1241 H1220 0.950 . S
C1241 C1240 1.373 . S
C1241 C1257 1.377 . S
C1242 C1240 1.389 . S
C1242 C1243 1.524 . S
C1242 C1256 1.377 . S
C1243 C1242 1.524 . S
C1243 C1244 1.397 . S
C1243 C1248 1.363 . S
C1244 H1221 0.950 . S
C1244 C1243 1.397 . S
C1244 C1245 1.334 . S
C1245 H1222 0.950 . S
C1245 C1244 1.334 . S
C1245 C1246 1.287 . S
C1246 C1245 1.287 . S
C1246 C1247 1.524 . S
C1246 H1265 0.913 . S
C1247 H1223 0.950 . S
C1247 C1246 1.524 . S
C1247 C1248 1.415 . S
C1248 H1224 0.950 . S
C1248 C1243 1.363 . S
C1248 C1247 1.415 . S
C1249 H1225 0.951 1_455 S
C1249 C1250 1.366 . S
C1249 C1251 1.388 . S
C1250 C1249 1.366 . S
C1250 C1254 1.385 . S
C1251 H1226 0.951 . S
C1251 C1249 1.388 . S
C1251 C1252 1.366 . S
C1252 C1251 1.366 . S
C1252 C1253 1.414 . S
C1252 C1255 1.499 . S
C1253 H1227 0.950 . S
C1253 C1252 1.414 . S
C1253 C1254 1.374 . S
C1254 H1228 0.950 . S
C1254 C1250 1.385 . S
C1254 C1253 1.374 . S
C1255 C1252 1.499 . S
C1255 C1256 1.373 . S
C1255 C1257 1.389 . S
C1256 H1229 0.950 . S
C1256 C1242 1.377 . S
C1256 C1255 1.373 . S
C1257 C1241 1.377 . S
C1257 C1255 1.389 . S
C1257 C1258 1.524 1_455 S
C1258 C1257 1.524 1_655 S
C1258 C1259 1.397 . S
C1258 C1263 1.363 . S
C1259 H1230 0.950 . S
C1259 C1258 1.397 . S
C1259 C1260 1.334 . S
C1260 H1231 0.950 . S
C1260 C1259 1.334 . S
C1260 C1261 1.287 . S
C1261 C1260 1.287 . S
C1261 C1262 1.524 . S
C1261 H1264 0.999 . S
C1262 H1232 0.950 . S
C1262 C1261 1.524 . S
C1262 C1263 1.415 . S
C1263 H1233 0.950 . S
C1263 C1258 1.363 . S
C1263 C1262 1.415 . S
H1264 C1261 0.999 . S
H1265 C1246 0.913 . S
H1266 C1284 0.951 . S
H1267 C1286 0.951 . S
H1268 C1288 0.950 . S
H1269 C1289 0.950 . S
H1270 C1291 0.950 . S
H1271 C1294 0.945 1_545 S
H1272 C1295 0.950 . S
H1273 C1297 0.950 . S
H1274 C1298 0.950 . S
H1275 C1299 0.951 . S
H1276 C1301 0.951 . S
H1277 C1303 0.950 . S
H1278 C1304 0.950 1_565 S
H1279 C1306 0.950 1_565 S
H1280 C1309 0.950 . S
H1281 C1310 0.950 . S
H1282 C1312 0.950 . S
H1283 C1313 0.950 . S
C1284 H1266 0.951 . S
C1284 C1285 1.366 . S
C1284 C1286 1.388 . S
C1285 C1284 1.366 . S
C1285 C1289 1.385 . S
C1286 H1267 0.951 . S
C1286 C1284 1.388 . S
C1286 C1287 1.366 . S
C1287 C1286 1.366 . S
C1287 C1288 1.414 . S
C1287 C1290 1.499 . S
C1288 H1268 0.950 . S
C1288 C1287 1.414 . S
C1288 C1289 1.374 . S
C1289 H1269 0.950 . S
C1289 C1285 1.385 . S
C1289 C1288 1.374 . S
C1290 C1287 1.499 . S
C1290 C1291 1.373 . S
C1290 C1292 1.389 . S
C1291 H1270 0.950 . S
C1291 C1290 1.373 . S
C1291 C1307 1.377 . S
C1292 C1290 1.389 . S
C1292 C1293 1.553 . S
C1292 C1306 1.377 . S
C1293 C1292 1.553 . S
C1293 C1294 1.385 1_545 S
C1293 C1298 1.346 1_545 S
C1294 H1271 0.945 1_565 S
C1294 C1293 1.385 1_565 S
C1294 C1295 1.334 . S
C1295 H1272 0.950 . S
C1295 C1294 1.334 . S
C1295 C1296 1.287 . S
C1296 C1295 1.287 . S
C1296 C1297 1.524 . S
C1296 H1315 0.913 . S
C1297 H1273 0.950 . S
C1297 C1296 1.524 . S
C1297 C1298 1.415 . S
C1298 H1274 0.950 . S
C1298 C1293 1.346 1_565 S
C1298 C1297 1.415 . S
C1299 H1275 0.951 . S
C1299 C1300 1.366 . S
C1299 C1301 1.388 . S
C1300 C1299 1.366 . S
C1300 C1304 1.385 . S
C1301 H1276 0.951 . S
C1301 C1299 1.388 . S
C1301 C1302 1.366 . S
C1302 C1301 1.366 . S
C1302 C1303 1.414 . S
C1302 C1305 1.499 . S
C1303 H1277 0.950 . S
C1303 C1302 1.414 . S
C1303 C1304 1.374 . S
C1304 H1278 0.950 1_545 S
C1304 C1300 1.385 . S
C1304 C1303 1.374 . S
C1305 C1302 1.499 . S
C1305 C1306 1.373 . S
C1305 C1307 1.389 . S
C1306 H1279 0.950 1_545 S
C1306 C1292 1.377 . S
C1306 C1305 1.373 . S
C1307 C1291 1.377 . S
C1307 C1305 1.389 . S
C1307 C1308 1.524 . S
C1308 C1307 1.524 . S
C1308 C1309 1.397 . S
C1308 C1313 1.363 . S
C1309 H1280 0.950 . S
C1309 C1308 1.397 . S
C1309 C1310 1.334 . S
C1310 H1281 0.950 . S
C1310 C1309 1.334 . S
C1310 C1311 1.287 . S
C1311 C1310 1.287 . S
C1311 C1312 1.524 . S
C1311 H1314 0.999 . S
C1312 H1282 0.950 . S
C1312 C1311 1.524 . S
C1312 C1313 1.415 . S
C1313 H1283 0.950 . S
C1313 C1308 1.363 . S
C1313 C1312 1.415 . S
H1314 C1311 0.999 . S
H1315 C1296 0.913 . S
H1316 C1334 0.951 . S
H1317 C1336 0.951 . S
H1318 C1338 0.950 . S
H1319 C1339 0.950 . S
H1320 C1341 0.950 . S
H1321 C1344 0.950 . S
H1322 C1345 0.950 . S
H1323 C1347 0.950 . S
H1324 C1348 0.950 . S
H1325 C1349 0.951 . S
H1326 C1351 0.951 . S
H1327 C1353 0.950 . S
H1328 C1354 0.950 . S
H1329 C1356 0.950 . S
H1330 C1359 0.950 . S
H1331 C1360 0.950 . S
H1332 C1362 0.950 . S
H1333 C1363 0.950 . S
C1334 H1316 0.951 . S
C1334 C1335 1.366 . S
C1334 C1336 1.388 . S
C1335 C1334 1.366 . S
C1335 C1339 1.385 . S
C1336 H1317 0.951 . S
C1336 C1334 1.388 . S
C1336 C1337 1.366 . S
C1337 C1336 1.366 . S
C1337 C1338 1.414 . S
C1337 C1340 1.499 . S
C1338 H1318 0.950 . S
C1338 C1337 1.414 . S
C1338 C1339 1.374 . S
C1339 H1319 0.950 . S
C1339 C1335 1.385 . S
C1339 C1338 1.374 . S
C1340 C1337 1.499 . S
C1340 C1341 1.373 . S
C1340 C1342 1.389 . S
C1341 H1320 0.950 . S
C1341 C1340 1.373 . S
C1341 C1357 1.377 . S
C1342 C1340 1.389 . S
C1342 C1343 1.524 . S
C1342 C1356 1.377 . S
C1343 C1342 1.524 . S
C1343 C1344 1.397 . S
C1343 C1348 1.363 . S
C1344 H1321 0.950 . S
C1344 C1343 1.397 . S
C1344 C1345 1.334 . S
C1345 H1322 0.950 . S
C1345 C1344 1.334 . S
C1345 C1346 1.287 . S
C1346 C1345 1.287 . S
C1346 C1347 1.524 . S
C1346 H1365 0.913 . S
C1347 H1323 0.950 . S
C1347 C1346 1.524 . S
C1347 C1348 1.415 . S
C1348 H1324 0.950 . S
C1348 C1343 1.363 . S
C1348 C1347 1.415 . S
C1349 H1325 0.951 . S
C1349 C1350 1.366 . S
C1349 C1351 1.388 . S
C1350 C1349 1.366 . S
C1350 C1354 1.385 . S
C1351 H1326 0.951 . S
C1351 C1349 1.388 . S
C1351 C1352 1.366 . S
C1352 C1351 1.366 . S
C1352 C1353 1.414 . S
C1352 C1355 1.499 . S
C1353 H1327 0.950 . S
C1353 C1352 1.414 . S
C1353 C1354 1.374 . S
C1354 H1328 0.950 . S
C1354 C1350 1.385 . S
C1354 C1353 1.374 . S
C1355 C1352 1.499 . S
C1355 C1356 1.373 . S
C1355 C1357 1.389 . S
C1356 H1329 0.950 . S
C1356 C1342 1.377 . S
C1356 C1355 1.373 . S
C1357 C1341 1.377 . S
C1357 C1355 1.389 . S
C1357 C1358 1.524 . S
C1358 C1357 1.524 . S
C1358 C1359 1.397 . S
C1358 C1363 1.363 . S
C1359 H1330 0.950 . S
C1359 C1358 1.397 . S
C1359 C1360 1.334 . S
C1360 H1331 0.950 . S
C1360 C1359 1.334 . S
C1360 C1361 1.287 . S
C1361 C1360 1.287 . S
C1361 C1362 1.524 . S
C1361 H1364 0.999 . S
C1362 H1332 0.950 . S
C1362 C1361 1.524 . S
C1362 C1363 1.415 . S
C1363 H1333 0.950 . S
C1363 C1358 1.363 . S
C1363 C1362 1.415 . S
H1364 C1361 0.999 . S
H1365 C1346 0.913 . S
H1366 C1384 0.951 . S
H1367 C1386 0.951 . S
H1368 C1388 0.950 . S
H1369 C1389 0.950 . S
H1370 C1391 0.950 . S
H1371 C1394 0.950 . S
H1372 C1395 0.950 . S
H1373 C1397 0.950 . S
H1374 C1398 0.950 . S
H1375 C1399 0.951 . S
H1376 C1401 0.951 . S
H1377 C1403 0.950 . S
H1378 C1404 0.950 . S
H1379 C1406 0.950 . S
H1380 C1409 0.950 . S
H1381 C1410 0.950 . S
H1382 C1412 0.950 . S
H1383 C1413 0.950 . S
C1384 H1366 0.951 . S
C1384 C1385 1.366 . S
C1384 C1386 1.388 . S
C1385 C1384 1.366 . S
C1385 C1389 1.385 . S
C1386 H1367 0.951 . S
C1386 C1384 1.388 . S
C1386 C1387 1.366 . S
C1387 C1386 1.366 . S
C1387 C1388 1.414 . S
C1387 C1390 1.499 . S
C1388 H1368 0.950 . S
C1388 C1387 1.414 . S
C1388 C1389 1.374 . S
C1389 H1369 0.950 . S
C1389 C1385 1.385 . S
C1389 C1388 1.374 . S
C1390 C1387 1.499 . S
C1390 C1391 1.373 . S
C1390 C1392 1.389 . S
C1391 H1370 0.950 . S
C1391 C1390 1.373 . S
C1391 C1407 1.377 . S
C1392 C1390 1.389 . S
C1392 C1393 1.524 . S
C1392 C1406 1.377 . S
C1393 C1392 1.524 . S
C1393 C1394 1.397 . S
C1393 C1398 1.363 . S
C1394 H1371 0.950 . S
C1394 C1393 1.397 . S
C1394 C1395 1.334 . S
C1395 H1372 0.950 . S
C1395 C1394 1.334 . S
C1395 C1396 1.287 . S
C1396 C1395 1.287 . S
C1396 C1397 1.524 . S
C1396 H1415 0.913 . S
C1397 H1373 0.950 . S
C1397 C1396 1.524 . S
C1397 C1398 1.415 . S
C1398 H1374 0.950 . S
C1398 C1393 1.363 . S
C1398 C1397 1.415 . S
C1399 H1375 0.951 . S
C1399 C1400 1.366 . S
C1399 C1401 1.388 . S
C1400 C1399 1.366 . S
C1400 C1404 1.385 . S
C1401 H1376 0.951 . S
C1401 C1399 1.388 . S
C1401 C1402 1.366 . S
C1402 C1401 1.366 . S
C1402 C1403 1.414 . S
C1402 C1405 1.499 . S
C1403 H1377 0.950 . S
C1403 C1402 1.414 . S
C1403 C1404 1.374 . S
C1404 H1378 0.950 . S
C1404 C1400 1.385 . S
C1404 C1403 1.374 . S
C1405 C1402 1.499 . S
C1405 C1406 1.373 . S
C1405 C1407 1.389 . S
C1406 H1379 0.950 . S
C1406 C1392 1.377 . S
C1406 C1405 1.373 . S
C1407 C1391 1.377 . S
C1407 C1405 1.389 . S
C1407 C1408 1.524 . S
C1408 C1407 1.524 . S
C1408 C1409 1.397 . S
C1408 C1413 1.363 . S
C1409 H1380 0.950 . S
C1409 C1408 1.397 . S
C1409 C1410 1.334 . S
C1410 H1381 0.950 . S
C1410 C1409 1.334 . S
C1410 C1411 1.287 . S
C1411 C1410 1.287 . S
C1411 C1412 1.524 . S
C1411 H1414 0.999 . S
C1412 H1382 0.950 . S
C1412 C1411 1.524 . S
C1412 C1413 1.415 . S
C1413 H1383 0.950 . S
C1413 C1408 1.363 . S
C1413 C1412 1.415 . S
H1414 C1411 0.999 . S
H1415 C1396 0.913 . S
H1416 C1434 0.951 1_554 S
H1417 C1436 0.951 . S
H1418 C1438 0.950 . S
H1419 C1439 0.950 . S
H1420 C1441 0.950 . S
H1421 C1444 0.950 1_655 S
H1422 C1445 0.950 . S
H1423 C1447 0.950 . S
H1424 C1448 0.950 . S
H1425 C1449 0.951 . S
H1426 C1451 0.951 . S
H1427 C1453 0.950 . S
H1428 C1454 0.950 . S
H1429 C1456 0.950 . S
H1430 C1459 0.950 . S
H1431 C1460 0.950 . S
H1432 C1462 0.950 . S
H1433 C1463 0.950 . S
C1434 H1416 0.951 1_556 S
C1434 C1435 1.366 1_556 S
C1434 C1436 1.388 . S
C1435 C1434 1.366 1_554 S
C1435 C1439 1.385 . S
C1436 H1417 0.951 . S
C1436 C1434 1.388 . S
C1436 C1437 1.366 . S
C1437 C1436 1.366 . S
C1437 C1438 1.414 . S
C1437 C1440 1.499 . S
C1438 H1418 0.950 . S
C1438 C1437 1.414 . S
C1438 C1439 1.374 1_556 S
C1439 H1419 0.950 . S
C1439 C1435 1.385 . S
C1439 C1438 1.374 1_554 S
C1440 C1437 1.499 . S
C1440 C1441 1.373 . S
C1440 C1442 1.389 . S
C1441 H1420 0.950 . S
C1441 C1440 1.373 . S
C1441 C1457 1.377 . S
C1442 C1440 1.389 . S
C1442 C1443 1.524 1_655 S
C1442 C1456 1.377 1_655 S
C1443 C1442 1.524 1_455 S
C1443 C1444 1.397 1_556 S
C1443 C1448 1.363 . S
C1444 H1421 0.950 1_455 S
C1444 C1443 1.397 1_554 S
C1444 C1445 1.334 . S
C1445 H1422 0.950 . S
C1445 C1444 1.334 . S
C1445 C1446 1.287 . S
C1446 C1445 1.287 . S
C1446 C1447 1.524 . S
C1446 H1465 0.913 . S
C1447 H1423 0.950 . S
C1447 C1446 1.524 . S
C1447 C1448 1.415 1_554 S
C1448 H1424 0.950 . S
C1448 C1443 1.363 . S
C1448 C1447 1.415 1_556 S
C1449 H1425 0.951 . S
C1449 C1450 1.366 1_655 S
C1449 C1451 1.388 . S
C1450 C1449 1.366 1_455 S
C1450 C1454 1.385 . S
C1451 H1426 0.951 . S
C1451 C1449 1.388 . S
C1451 C1452 1.366 . S
C1452 C1451 1.366 . S
C1452 C1453 1.414 1_655 S
C1452 C1455 1.499 . S
C1453 H1427 0.950 . S
C1453 C1452 1.414 1_455 S
C1453 C1454 1.374 . S
C1454 H1428 0.950 . S
C1454 C1450 1.385 . S
C1454 C1453 1.374 . S
C1455 C1452 1.499 . S
C1455 C1456 1.373 1_655 S
C1455 C1457 1.389 . S
C1456 H1429 0.950 . S
C1456 C1442 1.377 1_455 S
C1456 C1455 1.373 1_455 S
C1457 C1441 1.377 . S
C1457 C1455 1.389 . S
C1457 C1458 1.524 . S
C1458 C1457 1.524 . S
C1458 C1459 1.397 . S
C1458 C1463 1.363 . S
C1459 H1430 0.950 . S
C1459 C1458 1.397 . S
C1459 C1460 1.334 . S
C1460 H1431 0.950 . S
C1460 C1459 1.334 . S
C1460 C1461 1.287 . S
C1461 C1460 1.287 . S
C1461 C1462 1.524 . S
C1461 H1464 0.999 . S
C1462 H1432 0.950 . S
C1462 C1461 1.524 . S
C1462 C1463 1.415 . S
C1463 H1433 0.950 . S
C1463 C1458 1.363 . S
C1463 C1462 1.415 . S
H1464 C1461 0.999 . S
H1465 C1446 0.913 . S
H1466 C1484 0.951 . S
H1467 C1486 0.951 . S
H1468 C1488 0.950 . S
H1469 C1489 0.950 . S
H1470 C1491 0.950 1_545 S
H1471 C1494 0.950 . S
H1472 C1495 0.950 . S
H1473 C1497 0.950 . S
H1474 C1498 0.950 . S
H1475 C1499 0.951 . S
H1476 C1501 0.951 . S
H1477 C1503 0.950 . S
H1478 C1504 0.950 . S
H1479 C1506 0.950 . S
H1480 C1509 0.950 . S
H1481 C1510 0.950 . S
H1482 C1512 0.950 . S
H1483 C1513 0.950 . S
C1484 H1466 0.951 . S
C1484 C1485 1.366 . S
C1484 C1486 1.388 1_554 S
C1485 C1484 1.366 . S
C1485 C1489 1.385 1_554 S
C1486 H1467 0.951 . S
C1486 C1484 1.388 1_556 S
C1486 C1487 1.366 . S
C1487 C1486 1.366 . S
C1487 C1488 1.414 . S
C1487 C1490 1.499 . S
C1488 H1468 0.950 . S
C1488 C1487 1.414 . S
C1488 C1489 1.374 . S
C1489 H1469 0.950 . S
C1489 C1485 1.385 1_556 S
C1489 C1488 1.374 . S
C1490 C1487 1.499 . S
C1490 C1491 1.373 . S
C1490 C1492 1.389 . S
C1491 H1470 0.950 1_565 S
C1491 C1490 1.373 . S
C1491 C1507 1.377 1_565 S
C1492 C1490 1.389 . S
C1492 C1493 1.524 . S
C1492 C1506 1.377 . S
C1493 C1492 1.524 . S
C1493 C1494 1.397 . S
C1493 C1498 1.363 . S
C1494 H1471 0.950 . S
C1494 C1493 1.397 . S
C1494 C1495 1.334 . S
C1495 H1472 0.950 . S
C1495 C1494 1.334 . S
C1495 C1496 1.287 . S
C1496 C1495 1.287 . S
C1496 C1497 1.524 . S
C1496 H1515 0.913 . S
C1497 H1473 0.950 . S
C1497 C1496 1.524 . S
C1497 C1498 1.415 . S
C1498 H1474 0.950 . S
C1498 C1493 1.363 . S
C1498 C1497 1.415 . S
C1499 H1475 0.951 . S
C1499 C1500 1.366 . S
C1499 C1501 1.388 . S
C1500 C1499 1.366 . S
C1500 C1504 1.385 1_545 S
C1501 H1476 0.951 . S
C1501 C1499 1.388 . S
C1501 C1502 1.366 1_545 S
C1502 C1501 1.366 1_565 S
C1502 C1503 1.414 . S
C1502 C1505 1.499 . S
C1503 H1477 0.950 . S
C1503 C1502 1.414 . S
C1503 C1504 1.374 . S
C1504 H1478 0.950 . S
C1504 C1500 1.385 1_565 S
C1504 C1503 1.374 . S
C1505 C1502 1.499 . S
C1505 C1506 1.373 . S
C1505 C1507 1.389 1_565 S
C1506 H1479 0.950 . S
C1506 C1492 1.377 . S
C1506 C1505 1.373 . S
C1507 C1491 1.377 1_545 S
C1507 C1505 1.389 1_545 S
C1507 C1508 1.524 . S
C1508 C1507 1.524 . S
C1508 C1509 1.397 . S
C1508 C1513 1.363 . S
C1509 H1480 0.950 . S
C1509 C1508 1.397 . S
C1509 C1510 1.334 . S
C1510 H1481 0.950 . S
C1510 C1509 1.334 . S
C1510 C1511 1.287 . S
C1511 C1510 1.287 . S
C1511 C1512 1.524 . S
C1511 H1514 0.999 . S
C1512 H1482 0.950 . S
C1512 C1511 1.524 . S
C1512 C1513 1.415 . S
C1513 H1483 0.950 . S
C1513 C1508 1.363 . S
C1513 C1512 1.415 . S
H1514 C1511 0.999 . S
H1515 C1496 0.913 . S
H1516 C1534 0.951 . S
H1517 C1536 0.951 . S
H1518 C1538 0.950 . S
H1519 C1539 0.950 . S
H1520 C1541 0.950 . S
H1521 C1544 0.950 . S
H1522 C1545 0.950 1_554 S
H1523 C1547 0.950 . S
H1524 C1548 0.950 . S
H1525 C1549 0.951 . S
H1526 C1551 0.951 . S
H1527 C1553 0.950 . S
H1528 C1554 0.950 . S
H1529 C1556 0.950 . S
H1530 C1559 0.950 . S
H1531 C1560 0.950 . S
H1532 C1562 0.950 . S
H1533 C1563 0.950 . S
C1534 H1516 0.951 . S
C1534 C1535 1.366 1_556 S
C1534 C1536 1.388 . S
C1535 C1534 1.366 1_554 S
C1535 C1539 1.385 . S
C1536 H1517 0.951 . S
C1536 C1534 1.388 . S
C1536 C1537 1.366 . S
C1537 C1536 1.366 . S
C1537 C1538 1.414 1_556 S
C1537 C1540 1.499 . S
C1538 H1518 0.950 . S
C1538 C1537 1.414 1_554 S
C1538 C1539 1.374 . S
C1539 H1519 0.950 . S
C1539 C1535 1.385 . S
C1539 C1538 1.374 . S
C1540 C1537 1.499 . S
C1540 C1541 1.373 . S
C1540 C1542 1.389 . S
C1541 H1520 0.950 . S
C1541 C1540 1.373 . S
C1541 C1557 1.377 . S
C1542 C1540 1.389 . S
C1542 C1543 1.524 . S
C1542 C1556 1.377 . S
C1543 C1542 1.524 . S
C1543 C1544 1.397 . S
C1543 C1548 1.363 . S
C1544 H1521 0.950 . S
C1544 C1543 1.397 . S
C1544 C1545 1.334 . S
C1545 H1522 0.950 1_556 S
C1545 C1544 1.334 . S
C1545 C1546 1.287 . S
C1546 C1545 1.287 . S
C1546 C1547 1.524 . S
C1546 H1565 0.913 . S
C1547 H1523 0.950 . S
C1547 C1546 1.524 . S
C1547 C1548 1.415 . S
C1548 H1524 0.950 . S
C1548 C1543 1.363 . S
C1548 C1547 1.415 . S
C1549 H1525 0.951 . S
C1549 C1550 1.366 . S
C1549 C1551 1.388 . S
C1550 C1549 1.366 . S
C1550 C1554 1.385 . S
C1551 H1526 0.951 . S
C1551 C1549 1.388 . S
C1551 C1552 1.366 . S
C1552 C1551 1.366 . S
C1552 C1553 1.414 . S
C1552 C1555 1.499 . S
C1553 H1527 0.950 . S
C1553 C1552 1.414 . S
C1553 C1554 1.374 . S
C1554 H1528 0.950 . S
C1554 C1550 1.385 . S
C1554 C1553 1.374 . S
C1555 C1552 1.499 . S
C1555 C1556 1.373 . S
C1555 C1557 1.389 . S
C1556 H1529 0.950 . S
C1556 C1542 1.377 . S
C1556 C1555 1.373 . S
C1557 C1541 1.377 . S
C1557 C1555 1.389 . S
C1557 C1558 1.524 . S
C1558 C1557 1.524 . S
C1558 C1559 1.397 . S
C1558 C1563 1.363 . S
C1559 H1530 0.950 . S
C1559 C1558 1.397 . S
C1559 C1560 1.334 . S
C1560 H1531 0.950 . S
C1560 C1559 1.334 . S
C1560 C1561 1.287 . S
C1561 C1560 1.287 . S
C1561 C1562 1.524 . S
C1561 H1564 0.999 . S
C1562 H1532 0.950 . S
C1562 C1561 1.524 . S
C1562 C1563 1.415 . S
C1563 H1533 0.950 . S
C1563 C1558 1.363 . S
C1563 C1562 1.415 . S
H1564 C1561 0.999 . S
H1565 C1546 0.913 . S
H1566 C1584 0.951 . S
H1567 C1586 0.951 . S
H1568 C1588 0.950 . S
H1569 C1589 0.950 . S
H1570 C1591 0.950 . S
H1571 C1594 0.950 . S
H1572 C1595 0.950 . S
H1573 C1597 0.950 . S
H1574 C1598 0.950 . S
H1575 C1599 0.951 . S
H1576 C1601 0.951 . S
H1577 C1603 0.950 . S
H1578 C1604 0.950 . S
H1579 C1606 0.950 . S
H1580 C1609 0.950 . S
H1581 C1610 0.950 . S
H1582 C1612 0.950 . S
H1583 C1613 0.950 . S
C1584 H1566 0.951 . S
C1584 C1585 1.366 . S
C1584 C1586 1.388 . S
C1585 C1584 1.366 . S
C1585 C1589 1.385 1_554 S
C1586 H1567 0.951 . S
C1586 C1584 1.388 . S
C1586 C1587 1.366 1_554 S
C1587 C1586 1.366 1_556 S
C1587 C1588 1.414 . S
C1587 C1590 1.499 . S
C1588 H1568 0.950 . S
C1588 C1587 1.414 . S
C1588 C1589 1.374 . S
C1589 H1569 0.950 . S
C1589 C1585 1.385 1_556 S
C1589 C1588 1.374 . S
C1590 C1587 1.499 . S
C1590 C1591 1.373 . S
C1590 C1592 1.389 . S
C1591 H1570 0.950 . S
C1591 C1590 1.373 . S
C1591 C1607 1.377 . S
C1592 C1590 1.389 . S
C1592 C1593 1.524 . S
C1592 C1606 1.377 . S
C1593 C1592 1.524 . S
C1593 C1594 1.397 . S
C1593 C1598 1.363 . S
C1594 H1571 0.950 . S
C1594 C1593 1.397 . S
C1594 C1595 1.334 . S
C1595 H1572 0.950 . S
C1595 C1594 1.334 . S
C1595 C1596 1.287 . S
C1596 C1595 1.287 . S
C1596 C1597 1.524 . S
C1596 H1615 0.913 . S
C1597 H1573 0.950 . S
C1597 C1596 1.524 . S
C1597 C1598 1.415 . S
C1598 H1574 0.950 . S
C1598 C1593 1.363 . S
C1598 C1597 1.415 . S
C1599 H1575 0.951 . S
C1599 C1600 1.366 . S
C1599 C1601 1.388 . S
C1600 C1599 1.366 . S
C1600 C1604 1.385 . S
C1601 H1576 0.951 . S
C1601 C1599 1.388 . S
C1601 C1602 1.366 . S
C1602 C1601 1.366 . S
C1602 C1603 1.414 . S
C1602 C1605 1.499 . S
C1603 H1577 0.950 . S
C1603 C1602 1.414 . S
C1603 C1604 1.374 . S
C1604 H1578 0.950 . S
C1604 C1600 1.385 . S
C1604 C1603 1.374 . S
C1605 C1602 1.499 . S
C1605 C1606 1.373 . S
C1605 C1607 1.389 . S
C1606 H1579 0.950 . S
C1606 C1592 1.377 . S
C1606 C1605 1.373 . S
C1607 C1591 1.377 . S
C1607 C1605 1.389 . S
C1607 C1608 1.524 . S
C1608 C1607 1.524 . S
C1608 C1609 1.397 . S
C1608 C1613 1.363 . S
C1609 H1580 0.950 . S
C1609 C1608 1.397 . S
C1609 C1610 1.334 . S
C1610 H1581 0.950 . S
C1610 C1609 1.334 . S
C1610 C1611 1.287 . S
C1611 C1610 1.287 . S
C1611 C1612 1.524 . S
C1611 H1614 0.999 . S
C1612 H1582 0.950 . S
C1612 C1611 1.524 . S
C1612 C1613 1.415 . S
C1613 H1583 0.950 . S
C1613 C1608 1.363 . S
C1613 C1612 1.415 . S
H1614 C1611 0.999 . S
H1615 C1596 0.913 . S
H1616 C1634 0.951 . S
H1617 C1636 0.951 . S
H1618 C1638 0.950 . S
H1619 C1639 0.950 . S
H1620 C1641 0.950 . S
H1621 C1644 0.950 . S
H1622 C1645 0.950 . S
H1623 C1647 0.950 . S
H1624 C1648 0.950 . S
H1625 C1649 0.951 . S
H1626 C1651 0.951 . S
H1627 C1653 0.950 . S
H1628 C1654 0.950 . S
H1629 C1656 0.950 . S
H1630 C1659 0.950 . S
H1631 C1660 0.950 . S
H1632 C1662 0.950 . S
H1633 C1663 0.950 . S
C1634 H1616 0.951 . S
C1634 C1635 1.366 . S
C1634 C1636 1.388 . S
C1635 C1634 1.366 . S
C1635 C1639 1.385 . S
C1636 H1617 0.951 . S
C1636 C1634 1.388 . S
C1636 C1637 1.366 . S
C1637 C1636 1.366 . S
C1637 C1638 1.414 . S
C1637 C1640 1.499 . S
C1638 H1618 0.950 . S
C1638 C1637 1.414 . S
C1638 C1639 1.374 . S
C1639 H1619 0.950 . S
C1639 C1635 1.385 . S
C1639 C1638 1.374 . S
C1640 C1637 1.499 . S
C1640 C1641 1.373 . S
C1640 C1642 1.389 . S
C1641 H1620 0.950 . S
C1641 C1640 1.373 . S
C1641 C1657 1.377 . S
C1642 C1640 1.389 . S
C1642 C1643 1.524 . S
C1642 C1656 1.377 . S
C1643 C1642 1.524 . S
C1643 C1644 1.397 . S
C1643 C1648 1.363 . S
C1644 H1621 0.950 . S
C1644 C1643 1.397 . S
C1644 C1645 1.334 . S
C1645 H1622 0.950 . S
C1645 C1644 1.334 . S
C1645 C1646 1.287 . S
C1646 C1645 1.287 . S
C1646 C1647 1.524 . S
C1646 H1665 0.913 . S
C1647 H1623 0.950 . S
C1647 C1646 1.524 . S
C1647 C1648 1.415 . S
C1648 H1624 0.950 . S
C1648 C1643 1.363 . S
C1648 C1647 1.415 . S
C1649 H1625 0.951 . S
C1649 C1650 1.366 . S
C1649 C1651 1.388 . S
C1650 C1649 1.366 . S
C1650 C1654 1.385 . S
C1651 H1626 0.951 . S
C1651 C1649 1.388 . S
C1651 C1652 1.366 . S
C1652 C1651 1.366 . S
C1652 C1653 1.414 . S
C1652 C1655 1.499 . S
C1653 H1627 0.950 . S
C1653 C1652 1.414 . S
C1653 C1654 1.374 . S
C1654 H1628 0.950 . S
C1654 C1650 1.385 . S
C1654 C1653 1.374 . S
C1655 C1652 1.499 . S
C1655 C1656 1.373 . S
C1655 C1657 1.389 . S
C1656 H1629 0.950 . S
C1656 C1642 1.377 . S
C1656 C1655 1.373 . S
C1657 C1641 1.377 . S
C1657 C1655 1.389 . S
C1657 C1658 1.524 1_455 S
C1658 C1657 1.524 1_655 S
C1658 C1659 1.397 . S
C1658 C1663 1.363 . S
C1659 H1630 0.950 . S
C1659 C1658 1.397 . S
C1659 C1660 1.334 . S
C1660 H1631 0.950 . S
C1660 C1659 1.334 . S
C1660 C1661 1.287 . S
C1661 C1660 1.287 . S
C1661 C1662 1.524 . S
C1661 H1664 0.999 . S
C1662 H1632 0.950 . S
C1662 C1661 1.524 . S
C1662 C1663 1.415 . S
C1663 H1633 0.950 . S
C1663 C1658 1.363 . S
C1663 C1662 1.415 . S
H1664 C1661 0.999 . S
H1665 C1646 0.913 . S
H1666 C1684 0.951 . S
H1667 C1686 0.951 . S
H1668 C1688 0.950 . S
H1669 C1689 0.950 . S
H1670 C1691 0.950 . S
H1671 C1694 0.950 . S
H1672 C1695 0.933 1_565 S
H1673 C1697 0.950 . S
H1674 C1698 0.950 . S
H1675 C1699 0.951 . S
H1676 C1701 0.951 . S
H1677 C1703 0.950 . S
H1678 C1704 0.950 . S
H1679 C1706 0.950 . S
H1680 C1709 0.950 . S
H1681 C1710 0.950 . S
H1682 C1712 0.950 . S
H1683 C1713 0.950 . S
C1684 H1666 0.951 . S
C1684 C1685 1.366 . S
C1684 C1686 1.388 . S
C1685 C1684 1.366 . S
C1685 C1689 1.385 . S
C1686 H1667 0.951 . S
C1686 C1684 1.388 . S
C1686 C1687 1.366 . S
C1687 C1686 1.366 . S
C1687 C1688 1.414 . S
C1687 C1690 1.499 . S
C1688 H1668 0.950 . S
C1688 C1687 1.414 . S
C1688 C1689 1.374 . S
C1689 H1669 0.950 . S
C1689 C1685 1.385 . S
C1689 C1688 1.374 . S
C1690 C1687 1.499 . S
C1690 C1691 1.373 . S
C1690 C1692 1.389 . S
C1691 H1670 0.950 . S
C1691 C1690 1.373 . S
C1691 C1707 1.377 . S
C1692 C1690 1.389 . S
C1692 C1693 1.524 . S
C1692 C1706 1.377 . S
C1693 C1692 1.524 . S
C1693 C1694 1.397 . S
C1693 C1698 1.363 . S
C1694 H1671 0.950 . S
C1694 C1693 1.397 . S
C1694 C1695 1.344 . S
C1695 H1672 0.933 1_545 S
C1695 C1694 1.344 . S
C1695 C1696 1.295 . S
C1696 C1695 1.295 . S
C1696 C1697 1.524 . S
C1696 H1715 0.913 . S
C1697 H1673 0.950 . S
C1697 C1696 1.524 . S
C1697 C1698 1.415 . S
C1698 H1674 0.950 . S
C1698 C1693 1.363 . S
C1698 C1697 1.415 . S
C1699 H1675 0.951 . S
C1699 C1700 1.366 . S
C1699 C1701 1.388 . S
C1700 C1699 1.366 . S
C1700 C1704 1.385 . S
C1701 H1676 0.951 . S
C1701 C1699 1.388 . S
C1701 C1702 1.366 . S
C1702 C1701 1.366 . S
C1702 C1703 1.414 . S
C1702 C1705 1.499 . S
C1703 H1677 0.950 . S
C1703 C1702 1.414 . S
C1703 C1704 1.374 . S
C1704 H1678 0.950 . S
C1704 C1700 1.385 . S
C1704 C1703 1.374 . S
C1705 C1702 1.499 . S
C1705 C1706 1.373 . S
C1705 C1707 1.389 . S
C1706 H1679 0.950 . S
C1706 C1692 1.377 . S
C1706 C1705 1.373 . S
C1707 C1691 1.377 . S
C1707 C1705 1.389 . S
C1707 C1708 1.524 . S
C1708 C1707 1.524 . S
C1708 C1709 1.397 . S
C1708 C1713 1.363 . S
C1709 H1680 0.950 . S
C1709 C1708 1.397 . S
C1709 C1710 1.334 . S
C1710 H1681 0.950 . S
C1710 C1709 1.334 . S
C1710 C1711 1.287 . S
C1711 C1710 1.287 . S
C1711 C1712 1.524 . S
C1711 H1714 0.999 . S
C1712 H1682 0.950 . S
C1712 C1711 1.524 . S
C1712 C1713 1.415 . S
C1713 H1683 0.950 . S
C1713 C1708 1.363 . S
C1713 C1712 1.415 . S
H1714 C1711 0.999 . S
H1715 C1696 0.913 . S
H1716 C1734 0.951 . S
H1717 C1736 0.951 . S
H1718 C1738 0.950 . S
H1719 C1739 0.950 . S
H1720 C1741 0.950 . S
H1721 C1744 0.950 . S
H1722 C1745 0.950 . S
H1723 C1747 0.950 . S
H1724 C1748 0.950 . S
H1725 C1749 0.951 . S
H1726 C1751 0.951 . S
H1727 C1753 0.950 . S
H1728 C1754 0.950 . S
H1729 C1756 0.950 . S
H1730 C1759 0.950 . S
H1731 C1760 0.950 . S
H1732 C1762 0.950 . S
H1733 C1763 0.950 . S
C1734 H1716 0.951 . S
C1734 C1735 1.366 . S
C1734 C1736 1.388 . S
C1735 C1734 1.366 . S
C1735 C1739 1.385 . S
C1736 H1717 0.951 . S
C1736 C1734 1.388 . S
C1736 C1737 1.366 . S
C1737 C1736 1.366 . S
C1737 C1738 1.414 . S
C1737 C1740 1.499 . S
C1738 H1718 0.950 . S
C1738 C1737 1.414 . S
C1738 C1739 1.374 . S
C1739 H1719 0.950 . S
C1739 C1735 1.385 . S
C1739 C1738 1.374 . S
C1740 C1737 1.499 . S
C1740 C1741 1.373 . S
C1740 C1742 1.389 . S
C1741 H1720 0.950 . S
C1741 C1740 1.373 . S
C1741 C1757 1.377 . S
C1742 C1740 1.389 . S
C1742 C1743 1.524 . S
C1742 C1756 1.377 . S
C1743 C1742 1.524 . S
C1743 C1744 1.397 . S
C1743 C1748 1.363 . S
C1744 H1721 0.950 . S
C1744 C1743 1.397 . S
C1744 C1745 1.334 . S
C1745 H1722 0.950 . S
C1745 C1744 1.334 . S
C1745 C1746 1.287 . S
C1746 C1745 1.287 . S
C1746 C1747 1.524 . S
C1746 H1765 0.913 . S
C1747 H1723 0.950 . S
C1747 C1746 1.524 . S
C1747 C1748 1.415 . S
C1748 H1724 0.950 . S
C1748 C1743 1.363 . S
C1748 C1747 1.415 . S
C1749 H1725 0.951 . S
C1749 C1750 1.366 . S
C1749 C1751 1.388 . S
C1750 C1749 1.366 . S
C1750 C1754 1.385 . S
C1751 H1726 0.951 . S
C1751 C1749 1.388 . S
C1751 C1752 1.366 . S
C1752 C1751 1.366 . S
C1752 C1753 1.414 . S
C1752 C1755 1.499 . S
C1753 H1727 0.950 . S
C1753 C1752 1.414 . S
C1753 C1754 1.374 . S
C1754 H1728 0.950 . S
C1754 C1750 1.385 . S
C1754 C1753 1.374 . S
C1755 C1752 1.499 . S
C1755 C1756 1.373 . S
C1755 C1757 1.389 . S
C1756 H1729 0.950 . S
C1756 C1742 1.377 . S
C1756 C1755 1.373 . S
C1757 C1741 1.377 . S
C1757 C1755 1.389 . S
C1757 C1758 1.524 . S
C1758 C1757 1.524 . S
C1758 C1759 1.397 . S
C1758 C1763 1.363 . S
C1759 H1730 0.950 . S
C1759 C1758 1.397 . S
C1759 C1760 1.334 . S
C1760 H1731 0.950 . S
C1760 C1759 1.334 . S
C1760 C1761 1.287 . S
C1761 C1760 1.287 . S
C1761 C1762 1.524 . S
C1761 H1764 0.999 . S
C1762 H1732 0.950 . S
C1762 C1761 1.524 . S
C1762 C1763 1.415 . S
C1763 H1733 0.950 . S
C1763 C1758 1.363 . S
C1763 C1762 1.415 . S
H1764 C1761 0.999 . S
H1765 C1746 0.913 . S
H1766 C1784 0.951 . S
H1767 C1786 0.951 . S
H1768 C1788 0.950 . S
H1769 C1789 0.950 . S
H1770 C1791 0.950 . S
H1771 C1794 0.950 . S
H1772 C1795 0.950 . S
H1773 C1797 0.950 . S
H1774 C1798 0.950 . S
H1775 C1799 0.951 . S
H1776 C1801 0.951 . S
H1777 C1803 0.950 . S
H1778 C1804 0.950 . S
H1779 C1806 0.950 . S
H1780 C1809 0.950 . S
H1781 C1810 0.950 . S
H1782 C1812 0.950 . S
H1783 C1813 0.950 . S
C1784 H1766 0.951 . S
C1784 C1785 1.366 . S
C1784 C1786 1.388 . S
C1785 C1784 1.366 . S
C1785 C1789 1.385 . S
C1786 H1767 0.951 . S
C1786 C1784 1.388 . S
C1786 C1787 1.366 . S
C1787 C1786 1.366 . S
C1787 C1788 1.414 . S
C1787 C1790 1.499 . S
C1788 H1768 0.950 . S
C1788 C1787 1.414 . S
C1788 C1789 1.374 . S
C1789 H1769 0.950 . S
C1789 C1785 1.385 . S
C1789 C1788 1.374 . S
C1790 C1787 1.499 . S
C1790 C1791 1.373 . S
C1790 C1792 1.389 . S
C1791 H1770 0.950 . S
C1791 C1790 1.373 . S
C1791 C1807 1.377 . S
C1792 C1790 1.389 . S
C1792 C1793 1.524 . S
C1792 C1806 1.377 . S
C1793 C1792 1.524 . S
C1793 C1794 1.397 . S
C1793 C1798 1.363 . S
C1794 H1771 0.950 . S
C1794 C1793 1.397 . S
C1794 C1795 1.334 . S
C1795 H1772 0.950 . S
C1795 C1794 1.334 . S
C1795 C1796 1.287 . S
C1796 C1795 1.287 . S
C1796 C1797 1.524 . S
C1796 H1815 0.913 . S
C1797 H1773 0.950 . S
C1797 C1796 1.524 . S
C1797 C1798 1.415 . S
C1798 H1774 0.950 . S
C1798 C1793 1.363 . S
C1798 C1797 1.415 . S
C1799 H1775 0.951 . S
C1799 C1800 1.366 . S
C1799 C1801 1.388 . S
C1800 C1799 1.366 . S
C1800 C1804 1.385 . S
C1801 H1776 0.951 . S
C1801 C1799 1.388 . S
C1801 C1802 1.366 . S
C1802 C1801 1.366 . S
C1802 C1803 1.414 . S
C1802 C1805 1.499 . S
C1803 H1777 0.950 . S
C1803 C1802 1.414 . S
C1803 C1804 1.374 . S
C1804 H1778 0.950 . S
C1804 C1800 1.385 . S
C1804 C1803 1.374 . S
C1805 C1802 1.499 . S
C1805 C1806 1.373 . S
C1805 C1807 1.389 . S
C1806 H1779 0.950 . S
C1806 C1792 1.377 . S
C1806 C1805 1.373 . S
C1807 C1791 1.377 . S
C1807 C1805 1.389 . S
C1807 C1808 1.524 . S
C1808 C1807 1.524 . S
C1808 C1809 1.397 . S
C1808 C1813 1.363 . S
C1809 H1780 0.950 . S
C1809 C1808 1.397 . S
C1809 C1810 1.334 . S
C1810 H1781 0.950 . S
C1810 C1809 1.334 . S
C1810 C1811 1.287 . S
C1811 C1810 1.287 . S
C1811 C1812 1.524 . S
C1811 H1814 0.999 . S
C1812 H1782 0.950 . S
C1812 C1811 1.524 . S
C1812 C1813 1.415 . S
C1813 H1783 0.950 . S
C1813 C1808 1.363 . S
C1813 C1812 1.415 . S
H1814 C1811 0.999 . S
H1815 C1796 0.913 . S
H1816 C1834 0.951 . S
H1817 C1836 0.957 . S
H1818 C1838 0.950 . S
H1819 C1839 0.950 . S
H1820 C1841 0.950 . S
H1821 C1844 0.950 . S
H1822 C1845 0.950 . S
H1823 C1847 0.950 . S
H1824 C1848 0.950 . S
H1825 C1849 0.951 . S
H1826 C1851 0.951 . S
H1827 C1853 0.950 . S
H1828 C1854 0.950 . S
H1829 C1856 0.950 . S
H1830 C1859 0.950 . S
H1831 C1860 0.950 . S
H1832 C1862 0.950 . S
H1833 C1863 0.950 . S
C1834 H1816 0.951 . S
C1834 C1835 1.366 . S
C1834 C1836 1.388 . S
C1835 C1834 1.366 . S
C1835 C1839 1.385 . S
C1836 H1817 0.957 . S
C1836 C1834 1.388 . S
C1836 C1837 1.366 . S
C1837 C1836 1.366 . S
C1837 C1838 1.414 . S
C1837 C1840 1.499 . S
C1838 H1818 0.950 . S
C1838 C1837 1.414 . S
C1838 C1839 1.374 . S
C1839 H1819 0.950 . S
C1839 C1835 1.385 . S
C1839 C1838 1.374 . S
C1840 C1837 1.499 . S
C1840 C1841 1.373 . S
C1840 C1842 1.389 . S
C1841 H1820 0.950 . S
C1841 C1840 1.373 . S
C1841 C1857 1.377 . S
C1842 C1840 1.389 . S
C1842 C1843 1.524 . S
C1842 C1856 1.377 . S
C1843 C1842 1.524 . S
C1843 C1844 1.397 . S
C1843 C1848 1.363 1_655 S
C1844 H1821 0.950 . S
C1844 C1843 1.397 . S
C1844 C1845 1.334 . S
C1845 H1822 0.950 . S
C1845 C1844 1.334 . S
C1845 C1846 1.287 . S
C1846 C1845 1.287 . S
C1846 C1847 1.524 1_655 S
C1846 H1865 0.913 . S
C1847 H1823 0.950 . S
C1847 C1846 1.524 1_455 S
C1847 C1848 1.415 . S
C1848 H1824 0.950 . S
C1848 C1843 1.363 1_455 S
C1848 C1847 1.415 . S
C1849 H1825 0.951 . S
C1849 C1850 1.366 . S
C1849 C1851 1.388 . S
C1850 C1849 1.366 . S
C1850 C1854 1.385 1_655 S
C1851 H1826 0.951 . S
C1851 C1849 1.388 . S
C1851 C1852 1.366 . S
C1852 C1851 1.366 . S
C1852 C1853 1.414 1_655 S
C1852 C1855 1.499 . S
C1853 H1827 0.950 . S
C1853 C1852 1.414 1_455 S
C1853 C1854 1.374 . S
C1854 H1828 0.950 . S
C1854 C1850 1.385 1_455 S
C1854 C1853 1.374 . S
C1855 C1852 1.499 . S
C1855 C1856 1.373 . S
C1855 C1857 1.389 . S
C1856 H1829 0.950 . S
C1856 C1842 1.377 . S
C1856 C1855 1.373 . S
C1857 C1841 1.377 . S
C1857 C1855 1.389 . S
C1857 C1858 1.524 . S
C1858 C1857 1.524 . S
C1858 C1859 1.397 . S
C1858 C1863 1.363 . S
C1859 H1830 0.950 . S
C1859 C1858 1.397 . S
C1859 C1860 1.334 . S
C1860 H1831 0.950 . S
C1860 C1859 1.334 . S
C1860 C1861 1.287 . S
C1861 C1860 1.287 . S
C1861 C1862 1.524 . S
C1861 H1864 0.999 . S
C1862 H1832 0.950 . S
C1862 C1861 1.524 . S
C1862 C1863 1.415 . S
C1863 H1833 0.950 . S
C1863 C1858 1.363 . S
C1863 C1862 1.415 . S
H1864 C1861 0.999 . S
H1865 C1846 0.913 . S
H1866 C1884 0.951 . S
H1867 C1886 0.951 . S
H1868 C1888 0.950 . S
H1869 C1889 0.950 . S
H1870 C1891 0.950 . S
H1871 C1894 0.950 . S
H1872 C1895 0.950 . S
H1873 C1897 0.950 . S
H1874 C1898 0.950 . S
H1875 C1899 0.951 . S
H1876 C1901 0.951 . S
H1877 C1903 0.950 . S
H1878 C1904 0.950 . S
H1879 C1906 0.950 . S
H1880 C1909 0.950 . S
H1881 C1910 0.950 . S
H1882 C1912 0.950 . S
H1883 C1913 0.950 . S
C1884 H1866 0.951 . S
C1884 C1885 1.366 . S
C1884 C1886 1.388 . S
C1885 C1884 1.366 . S
C1885 C1889 1.385 . S
C1886 H1867 0.951 . S
C1886 C1884 1.388 . S
C1886 C1887 1.366 . S
C1887 C1886 1.366 . S
C1887 C1888 1.414 . S
C1887 C1890 1.499 . S
C1888 H1868 0.950 . S
C1888 C1887 1.414 . S
C1888 C1889 1.374 . S
C1889 H1869 0.950 . S
C1889 C1885 1.385 . S
C1889 C1888 1.374 . S
C1890 C1887 1.499 . S
C1890 C1891 1.373 . S
C1890 C1892 1.389 . S
C1891 H1870 0.950 . S
C1891 C1890 1.373 . S
C1891 C1907 1.377 . S
C1892 C1890 1.389 . S
C1892 C1893 1.524 . S
C1892 C1906 1.377 . S
C1893 C1892 1.524 . S
C1893 C1894 1.397 . S
C1893 C1898 1.363 . S
C1894 H1871 0.950 . S
C1894 C1893 1.397 . S
C1894 C1895 1.334 . S
C1895 H1872 0.950 . S
C1895 C1894 1.334 . S
C1895 C1896 1.287 . S
C1896 C1895 1.287 . S
C1896 C1897 1.524 . S
C1896 H1915 0.913 . S
C1897 H1873 0.950 . S
C1897 C1896 1.524 . S
C1897 C1898 1.415 . S
C1898 H1874 0.950 . S
C1898 C1893 1.363 . S
C1898 C1897 1.415 . S
C1899 H1875 0.951 . S
C1899 C1900 1.366 1_545 S
C1899 C1901 1.388 . S
C1900 C1899 1.366 1_565 S
C1900 C1904 1.385 . S
C1901 H1876 0.951 . S
C1901 C1899 1.388 . S
C1901 C1902 1.366 1_545 S
C1902 C1901 1.366 1_565 S
C1902 C1903 1.414 . S
C1902 C1905 1.499 . S
C1903 H1877 0.950 . S
C1903 C1902 1.414 . S
C1903 C1904 1.374 . S
C1904 H1878 0.950 . S
C1904 C1900 1.385 . S
C1904 C1903 1.374 . S
C1905 C1902 1.499 . S
C1905 C1906 1.373 . S
C1905 C1907 1.389 . S
C1906 H1879 0.950 . S
C1906 C1892 1.377 . S
C1906 C1905 1.373 . S
C1907 C1891 1.377 . S
C1907 C1905 1.389 . S
C1907 C1908 1.524 . S
C1908 C1907 1.524 . S
C1908 C1909 1.397 . S
C1908 C1913 1.363 1_565 S
C1909 H1880 0.950 . S
C1909 C1908 1.397 . S
C1909 C1910 1.334 . S
C1910 H1881 0.950 . S
C1910 C1909 1.334 . S
C1910 C1911 1.287 . S
C1911 C1910 1.287 . S
C1911 C1912 1.524 1_565 S
C1911 H1914 0.999 1_565 S
C1912 H1882 0.950 . S
C1912 C1911 1.524 1_545 S
C1912 C1913 1.415 . S
C1913 H1883 0.950 . S
C1913 C1908 1.363 1_545 S
C1913 C1912 1.415 . S
H1914 C1911 0.999 1_545 S
H1915 C1896 0.913 . S
H1916 C1934 0.951 . S
H1917 C1936 0.951 . S
H1918 C1938 0.950 . S
H1919 C1939 0.950 . S
H1920 C1941 0.950 . S
H1921 C1944 0.950 . S
H1922 C1945 0.950 . S
H1923 C1947 0.950 . S
H1924 C1948 0.950 . S
H1925 C1949 0.951 . S
H1926 C1951 0.951 . S
H1927 C1953 0.950 . S
H1928 C1954 0.950 . S
H1929 C1956 0.950 . S
H1930 C1959 0.950 . S
H1931 C1960 0.950 . S
H1932 C1962 0.950 . S
H1933 C1963 0.950 . S
C1934 H1916 0.951 . S
C1934 C1935 1.366 . S
C1934 C1936 1.388 . S
C1935 C1934 1.366 . S
C1935 C1939 1.385 . S
C1936 H1917 0.951 . S
C1936 C1934 1.388 . S
C1936 C1937 1.366 . S
C1937 C1936 1.366 . S
C1937 C1938 1.414 . S
C1937 C1940 1.499 . S
C1938 H1918 0.950 . S
C1938 C1937 1.414 . S
C1938 C1939 1.374 . S
C1939 H1919 0.950 . S
C1939 C1935 1.385 . S
C1939 C1938 1.374 . S
C1940 C1937 1.499 . S
C1940 C1941 1.373 . S
C1940 C1942 1.389 . S
C1941 H1920 0.950 . S
C1941 C1940 1.373 . S
C1941 C1957 1.377 . S
C1942 C1940 1.389 . S
C1942 C1943 1.524 . S
C1942 C1956 1.377 . S
C1943 C1942 1.524 . S
C1943 C1944 1.397 . S
C1943 C1948 1.363 . S
C1944 H1921 0.950 . S
C1944 C1943 1.397 . S
C1944 C1945 1.334 . S
C1945 H1922 0.950 . S
C1945 C1944 1.334 . S
C1945 C1946 1.287 . S
C1946 C1945 1.287 . S
C1946 C1947 1.524 . S
C1946 H1965 0.913 . S
C1947 H1923 0.950 . S
C1947 C1946 1.524 . S
C1947 C1948 1.415 . S
C1948 H1924 0.950 . S
C1948 C1943 1.363 . S
C1948 C1947 1.415 . S
C1949 H1925 0.951 . S
C1949 C1950 1.366 . S
C1949 C1951 1.388 . S
C1950 C1949 1.366 . S
C1950 C1954 1.385 . S
C1951 H1926 0.951 . S
C1951 C1949 1.388 . S
C1951 C1952 1.366 . S
C1952 C1951 1.366 . S
C1952 C1953 1.414 . S
C1952 C1955 1.499 . S
C1953 H1927 0.950 . S
C1953 C1952 1.414 . S
C1953 C1954 1.374 . S
C1954 H1928 0.950 . S
C1954 C1950 1.385 . S
C1954 C1953 1.374 . S
C1955 C1952 1.499 . S
C1955 C1956 1.373 . S
C1955 C1957 1.389 . S
C1956 H1929 0.950 . S
C1956 C1942 1.377 . S
C1956 C1955 1.373 . S
C1957 C1941 1.377 . S
C1957 C1955 1.389 . S
C1957 C1958 1.524 . S
C1958 C1957 1.524 . S
C1958 C1959 1.397 . S
C1958 C1963 1.363 . S
C1959 H1930 0.950 . S
C1959 C1958 1.397 . S
C1959 C1960 1.334 . S
C1960 H1931 0.950 . S
C1960 C1959 1.334 . S
C1960 C1961 1.287 . S
C1961 C1960 1.287 . S
C1961 C1962 1.524 . S
C1961 H1964 0.999 . S
C1962 H1932 0.950 . S
C1962 C1961 1.524 . S
C1962 C1963 1.415 . S
C1963 H1933 0.950 . S
C1963 C1958 1.363 . S
C1963 C1962 1.415 . S
H1964 C1961 0.999 . S
H1965 C1946 0.913 . S
H1966 C1984 0.951 . S
H1967 C1986 0.951 . S
H1968 C1988 0.950 . S
H1969 C1989 0.950 . S
H1970 C1991 0.950 . S
H1971 C1994 0.950 . S
H1972 C1995 0.950 . S
H1973 C1997 0.950 . S
H1974 C1998 0.950 . S
H1975 C1999 0.951 . S
H1976 C2001 0.951 . S
H1977 C2003 0.950 . S
H1978 C2004 0.950 . S
H1979 C2006 0.950 . S
H1980 C2009 0.950 . S
H1981 C2010 0.950 . S
H1982 C2012 0.950 . S
H1983 C2013 0.950 . S
C1984 H1966 0.951 . S
C1984 C1985 1.366 . S
C1984 C1986 1.388 . S
C1985 C1984 1.366 . S
C1985 C1989 1.385 . S
C1986 H1967 0.951 . S
C1986 C1984 1.388 . S
C1986 C1987 1.366 . S
C1987 C1986 1.366 . S
C1987 C1988 1.414 . S
C1987 C1990 1.499 . S
C1988 H1968 0.950 . S
C1988 C1987 1.414 . S
C1988 C1989 1.374 . S
C1989 H1969 0.950 . S
C1989 C1985 1.385 . S
C1989 C1988 1.374 . S
C1990 C1987 1.499 . S
C1990 C1991 1.373 . S
C1990 C1992 1.389 . S
C1991 H1970 0.950 . S
C1991 C1990 1.373 . S
C1991 C2007 1.377 . S
C1992 C1990 1.389 . S
C1992 C1993 1.524 . S
C1992 C2006 1.377 . S
C1993 C1992 1.524 . S
C1993 C1994 1.397 . S
C1993 C1998 1.363 . S
C1994 H1971 0.950 . S
C1994 C1993 1.397 . S
C1994 C1995 1.334 . S
C1995 H1972 0.950 . S
C1995 C1994 1.334 . S
C1995 C1996 1.287 . S
C1996 C1995 1.287 . S
C1996 C1997 1.524 . S
C1996 H2015 0.913 . S
C1997 H1973 0.950 . S
C1997 C1996 1.524 . S
C1997 C1998 1.415 . S
C1998 H1974 0.950 . S
C1998 C1993 1.363 . S
C1998 C1997 1.415 . S
C1999 H1975 0.951 . S
C1999 C2000 1.366 . S
C1999 C2001 1.388 . S
C2000 C1999 1.366 . S
C2000 C2004 1.385 . S
C2001 H1976 0.951 . S
C2001 C1999 1.388 . S
C2001 C2002 1.366 . S
C2002 C2001 1.366 . S
C2002 C2003 1.414 . S
C2002 C2005 1.499 . S
C2003 H1977 0.950 . S
C2003 C2002 1.414 . S
C2003 C2004 1.374 . S
C2004 H1978 0.950 . S
C2004 C2000 1.385 . S
C2004 C2003 1.374 . S
C2005 C2002 1.499 . S
C2005 C2006 1.373 . S
C2005 C2007 1.389 . S
C2006 H1979 0.950 . S
C2006 C1992 1.377 . S
C2006 C2005 1.373 . S
C2007 C1991 1.377 . S
C2007 C2005 1.389 . S
C2007 C2008 1.524 . S
C2008 C2007 1.524 . S
C2008 C2009 1.397 . S
C2008 C2013 1.363 . S
C2009 H1980 0.950 . S
C2009 C2008 1.397 . S
C2009 C2010 1.334 . S
C2010 H1981 0.950 . S
C2010 C2009 1.334 . S
C2010 C2011 1.287 . S
C2011 C2010 1.287 . S
C2011 C2012 1.524 . S
C2011 H2014 0.999 . S
C2012 H1982 0.950 . S
C2012 C2011 1.524 . S
C2012 C2013 1.415 . S
C2013 H1983 0.950 . S
C2013 C2008 1.363 . S
C2013 C2012 1.415 . S
H2014 C2011 0.999 . S
H2015 C1996 0.913 . S
C835 C391 2.171 . S
C850 C543 2.188 . S
C900 C620 2.206 . S
C885 C451 2.189 . S
C950 C711 2.179 . S
C935 C241 1.902 . S
C1000 C795 2.161 . S
C985 C331 1.889 . S
C1050 C554 2.189 1_565 S
C1035 C121 1.953 . S
C1085 C211 2.154 . S
C1100 C631 2.206 . S
C1135 C31 2.128 . S
C1150 C722 2.179 . S
C1185 C91 1.925 . S
C1200 C806 2.160 1_655 S
C1250 C538 0.429 1_455 S
C1235 C301 0.479 . S
C1300 C633 0.525 . S
C1285 C380 0.201 . S
C1350 C706 0.423 . S
C1335 C440 0.250 . S
C1385 C260 0.481 . S
C1400 C790 0.419 . S
C1435 C61 0.384 . S
C1450 C549 0.427 . S
C1500 C622 0.527 . S
C1485 C140 0.373 . S
C1550 C717 0.423 . S
C1535 C200 0.389 . S
C1585 C20 0.368 . S
C1600 C801 0.424 . S
C1635 C320 2.515 . S
C1650 C547 2.650 . S
C1685 C361 2.228 . S
C1700 C638 2.660 . S
C1750 C715 2.676 . S
C1735 C421 2.263 . S
C1800 C799 2.678 . S
C1785 C271 2.543 . S
C1835 C80 2.544 . S
C1850 C536 2.649 . S
C1900 C627 2.660 . S
C1885 C151 2.535 . S
C1950 C704 2.676 . S
C1935 C181 2.227 . S
C1985 C1 2.231 . S
C2000 C788 2.678 . S
