# Generated by pormake.
# Topology pto, (3,4)-cn, num edge types: 1
# Building blocks:
#     Node 0, Type 0, BuildingBlock: VETTIZ_charged_linker_0, # of connection points: 3
#     Node 1, Type 0, BuildingBlock: VETTIZ_charged_linker_0, # of connection points: 3
#     Node 2, Type 0, BuildingBlock: VETTIZ_charged_linker_0, # of connection points: 3
#     Node 3, Type 0, BuildingBlock: VETTIZ_charged_linker_0, # of connection points: 3
#     Node 4, Type 0, BuildingBlock: VETTIZ_charged_linker_0, # of connection points: 3
#     Node 5, Type 0, BuildingBlock: VETTIZ_charged_linker_0, # of connection points: 3
#     Node 6, Type 0, BuildingBlock: VETTIZ_charged_linker_0, # of connection points: 3
#     Node 7, Type 0, BuildingBlock: VETTIZ_charged_linker_0, # of connection points: 3
#     Node 8, Type 1, BuildingBlock: KOZSID_clean_sbu_0, # of connection points: 4
#     Node 9, Type 1, BuildingBlock: KOZSID_clean_sbu_0, # of connection points: 4
#     Node 10, Type 1, BuildingBlock: KOZSID_clean_sbu_0, # of connection points: 4
#     Node 11, Type 1, BuildingBlock: KOZSID_clean_sbu_0, # of connection points: 4
#     Node 12, Type 1, BuildingBlock: KOZSID_clean_sbu_0, # of connection points: 4
#     Node 13, Type 1, BuildingBlock: KOZSID_clean_sbu_0, # of connection points: 4
#     Edge 14, Type (0, 1), BuildingBlock: UVAHIK_clean_linker_0, # of connection points: 2
#     Edge 15, Type (0, 1), BuildingBlock: UVAHIK_clean_linker_0, # of connection points: 2
#     Edge 16, Type (0, 1), BuildingBlock: UVAHIK_clean_linker_0, # of connection points: 2
#     Edge 17, Type (0, 1), BuildingBlock: UVAHIK_clean_linker_0, # of connection points: 2
#     Edge 18, Type (0, 1), BuildingBlock: UVAHIK_clean_linker_0, # of connection points: 2
#     Edge 19, Type (0, 1), BuildingBlock: UVAHIK_clean_linker_0, # of connection points: 2
#     Edge 20, Type (0, 1), BuildingBlock: UVAHIK_clean_linker_0, # of connection points: 2
#     Edge 21, Type (0, 1), BuildingBlock: UVAHIK_clean_linker_0, # of connection points: 2
#     Edge 22, Type (0, 1), BuildingBlock: UVAHIK_clean_linker_0, # of connection points: 2
#     Edge 23, Type (0, 1), BuildingBlock: UVAHIK_clean_linker_0, # of connection points: 2
#     Edge 24, Type (0, 1), BuildingBlock: UVAHIK_clean_linker_0, # of connection points: 2
#     Edge 25, Type (0, 1), BuildingBlock: UVAHIK_clean_linker_0, # of connection points: 2
#     Edge 26, Type (0, 1), BuildingBlock: UVAHIK_clean_linker_0, # of connection points: 2
#     Edge 27, Type (0, 1), BuildingBlock: UVAHIK_clean_linker_0, # of connection points: 2
#     Edge 28, Type (0, 1), BuildingBlock: UVAHIK_clean_linker_0, # of connection points: 2
#     Edge 29, Type (0, 1), BuildingBlock: UVAHIK_clean_linker_0, # of connection points: 2
#     Edge 30, Type (0, 1), BuildingBlock: UVAHIK_clean_linker_0, # of connection points: 2
#     Edge 31, Type (0, 1), BuildingBlock: UVAHIK_clean_linker_0, # of connection points: 2
#     Edge 32, Type (0, 1), BuildingBlock: UVAHIK_clean_linker_0, # of connection points: 2
#     Edge 33, Type (0, 1), BuildingBlock: UVAHIK_clean_linker_0, # of connection points: 2
#     Edge 34, Type (0, 1), BuildingBlock: UVAHIK_clean_linker_0, # of connection points: 2
#     Edge 35, Type (0, 1), BuildingBlock: UVAHIK_clean_linker_0, # of connection points: 2
#     Edge 36, Type (0, 1), BuildingBlock: UVAHIK_clean_linker_0, # of connection points: 2
#     Edge 37, Type (0, 1), BuildingBlock: UVAHIK_clean_linker_0, # of connection points: 2
# Relax obj value: 0.000
# Max RMSD: 0.018
# Mean RMSD: 0.008
data_MOF--net-pto--node1-KOZSID_clean_sbu_0--node2-VETTIZ_charged_linker_0--edge1-UVAHIK_clean_linker_0
_symmetry_space_group_name_H-M    P1
_symmetry_Int_Tables_number       1
_symmetry_cell_setting            triclinic
loop_
_symmetry_equiv_pos_as_xyz
'x, y, z'
_cell_length_a     56.959311
_cell_length_b     77.055993
_cell_length_c     67.129634
_cell_angle_alpha  88.126311
_cell_angle_beta   87.811858
_cell_angle_gamma 92.106117
loop_
_atom_site_label
_atom_site_type_symbol
_atom_site_fract_x
_atom_site_fract_y
_atom_site_fract_z
_atom_type_partial_charge
C0 C 0.24947 0.20894 0.35593 0.0
C1 C 0.25876 0.19282 0.35133 0.0
C2 C 0.27396 0.19181 0.33437 0.0
C3 C 0.27019 0.22254 0.32687 0.0
C4 C 0.25535 0.22354 0.34353 0.0
C5 C 0.24657 0.24154 0.34605 0.0
H6 H 0.23854 0.32372 0.30906 0.0
C7 C 0.27254 0.24 0.31707 0.0
C8 C 0.2588 0.25122 0.32827 0.0
H9 H 0.20458 0.30036 0.36257 0.0
H10 H 0.2253 0.27397 0.35757 0.0
H11 H 0.23399 0.29001 0.28149 0.0
H12 H 0.28898 0.31009 0.31747 0.0
H13 H 0.30314 0.30007 0.29747 0.0
H14 H 0.28518 0.31848 0.29262 0.0
H15 H 0.24999 0.31027 0.2762 0.0
H16 H 0.26089 0.29016 0.26756 0.0
C17 C 0.21949 0.24062 0.34441 0.0
C18 C 0.25517 0.24833 0.36609 0.0
C19 C 0.32231 0.24933 0.25288 0.0
C20 C 0.32841 0.26416 0.24079 0.0
C21 C 0.31991 0.28036 0.2462 0.0
C22 C 0.30512 0.28171 0.26321 0.0
C23 C 0.2989 0.26673 0.27503 0.0
C24 C 0.3078 0.25095 0.26998 0.0
C25 C 0.30029 0.23661 0.28486 0.0
C26 C 0.28519 0.24636 0.29953 0.0
C27 C 0.28416 0.26393 0.29353 0.0
C28 C 0.2857 0.22276 0.27393 0.0
C29 C 0.32259 0.22972 0.29451 0.0
C30 C 0.23559 0.31288 0.31966 0.0
C31 C 0.21974 0.314 0.33609 0.0
C32 C 0.21675 0.29979 0.34982 0.0
C33 C 0.22865 0.28444 0.34679 0.0
C34 C 0.24375 0.28327 0.32986 0.0
C35 C 0.24743 0.29749 0.31689 0.0
C36 C 0.26463 0.29406 0.30004 0.0
C37 C 0.26994 0.27521 0.30462 0.0
C38 C 0.25752 0.26893 0.32201 0.0
C39 C 0.25191 0.2963 0.28019 0.0
C40 C 0.28661 0.30633 0.30179 0.0
H41 H 0.29141 0.20492 0.30949 0.0
H42 H 0.23752 0.21012 0.36872 0.0
H43 H 0.27278 0.2434 0.36935 0.0
H44 H 0.25757 0.26263 0.36597 0.0
H45 H 0.24289 0.24403 0.37869 0.0
H46 H 0.21418 0.23131 0.33292 0.0
H47 H 0.21064 0.23618 0.35881 0.0
H48 H 0.21224 0.25307 0.33955 0.0
H49 H 0.32895 0.23678 0.24923 0.0
H50 H 0.32441 0.29193 0.23704 0.0
H51 H 0.299 0.29435 0.26642 0.0
H52 H 0.27435 0.22904 0.26288 0.0
H53 H 0.29734 0.21393 0.26574 0.0
H54 H 0.27344 0.21491 0.28401 0.0
H55 H 0.33624 0.24032 0.29567 0.0
H56 H 0.31921 0.22472 0.31 0.0
H57 H 0.33046 0.2194 0.28553 0.0
H58 H 0.28161 0.17961 0.33064 0.0
C59 C 0.27975 0.20656 0.32216 0.0
C60 C 0.21512 0.7064 0.72146 0.0
C61 C 0.19948 0.70475 0.70585 0.0
C62 C 0.19741 0.71893 0.69227 0.0
C63 C 0.22578 0.736 0.71015 0.0
C64 C 0.22802 0.72204 0.72331 0.0
C65 C 0.24512 0.72597 0.73923 0.0
H66 H 0.31882 0.78365 0.78156 0.0
C67 C 0.24126 0.75044 0.71651 0.0
C68 C 0.25268 0.74462 0.73352 0.0
H69 H 0.30218 0.73024 0.80025 0.0
H70 H 0.2768 0.72701 0.77254 0.0
H71 H 0.26614 0.79327 0.77134 0.0
H72 H 0.32462 0.77666 0.73527 0.0
H73 H 0.31061 0.79234 0.72091 0.0
H74 H 0.32326 0.79835 0.74406 0.0
H75 H 0.29152 0.80712 0.76496 0.0
H76 H 0.26687 0.80575 0.74895 0.0
C77 C 0.23158 0.7245 0.75972 0.0
C78 C 0.26576 0.71352 0.73707 0.0
C79 C 0.2437 0.80871 0.67847 0.0
C80 C 0.25614 0.82455 0.68106 0.0
C81 C 0.27163 0.82578 0.69689 0.0
C82 C 0.27464 0.81156 0.70994 0.0
C83 C 0.26201 0.79586 0.70722 0.0
C84 C 0.24692 0.7946 0.69166 0.0
C85 C 0.23505 0.77686 0.69106 0.0
C86 C 0.2455 0.76772 0.70886 0.0
C87 C 0.2612 0.77895 0.71827 0.0
C88 C 0.20821 0.77891 0.69414 0.0
C89 C 0.24252 0.76865 0.67114 0.0
C90 C 0.30956 0.7713 0.77976 0.0
C91 C 0.31244 0.7572 0.79316 0.0
C92 C 0.30041 0.74126 0.79005 0.0
C93 C 0.28558 0.73944 0.77401 0.0
C94 C 0.28272 0.75371 0.76085 0.0
C95 C 0.29474 0.76926 0.76378 0.0
C96 C 0.28983 0.78295 0.74818 0.0
C97 C 0.27274 0.77309 0.73548 0.0
C98 C 0.26857 0.756 0.74301 0.0
C99 C 0.27812 0.79819 0.75876 0.0
C100 C 0.31321 0.78803 0.7365 0.0
H101 H 0.20806 0.74479 0.68353 0.0
H102 H 0.21697 0.69586 0.7323 0.0
H103 H 0.26953 0.7107 0.72114 0.0
H104 H 0.28248 0.71913 0.74226 0.0
H105 H 0.26162 0.70093 0.74521 0.0
H106 H 0.2136 0.72953 0.75856 0.0
H107 H 0.22971 0.71076 0.76528 0.0
H108 H 0.23985 0.73235 0.77119 0.0
H109 H 0.23187 0.80725 0.66633 0.0
H110 H 0.28119 0.83787 0.6994 0.0
H111 H 0.2866 0.81339 0.72171 0.0
H112 H 0.20445 0.78915 0.70501 0.0
H113 H 0.20015 0.78272 0.67991 0.0
H114 H 0.19892 0.76707 0.70053 0.0
H115 H 0.26104 0.77253 0.66667 0.0
H116 H 0.24218 0.75431 0.67213 0.0
H117 H 0.23127 0.77292 0.65889 0.0
H118 H 0.18577 0.71794 0.67994 0.0
C119 C 0.21047 0.7345 0.69432 0.0
C120 C 0.81276 0.7119 0.32581 0.0
C121 C 0.81171 0.69753 0.31345 0.0
C122 C 0.79689 0.69786 0.29712 0.0
C123 C 0.78482 0.72666 0.30541 0.0
C124 C 0.79933 0.72631 0.32145 0.0
C125 C 0.79921 0.74298 0.3325 0.0
H126 H 0.75742 0.8234 0.34275 0.0
C127 C 0.77364 0.74365 0.30477 0.0
C128 C 0.78205 0.7533 0.32057 0.0
H129 H 0.81018 0.79842 0.37722 0.0
H130 H 0.80621 0.77289 0.35774 0.0
H131 H 0.72246 0.78947 0.33879 0.0
H132 H 0.77878 0.81295 0.30147 0.0
H133 H 0.75759 0.80521 0.28534 0.0
H134 H 0.75006 0.82176 0.30265 0.0
H135 H 0.72031 0.80998 0.32563 0.0
H136 H 0.7133 0.78976 0.31405 0.0
C137 C 0.78967 0.73875 0.35409 0.0
C138 C 0.8244 0.75141 0.33101 0.0
C139 C 0.71669 0.75751 0.25051 0.0
C140 C 0.70408 0.77234 0.24579 0.0
C141 C 0.70585 0.78683 0.258 0.0
C142 C 0.72002 0.78658 0.27461 0.0
C143 C 0.73272 0.77173 0.27902 0.0
C144 C 0.7309 0.75751 0.26707 0.0
C145 C 0.74603 0.74301 0.27379 0.0
C146 C 0.75725 0.75088 0.29173 0.0
C147 C 0.74934 0.76767 0.29474 0.0
C148 C 0.72971 0.72703 0.27982 0.0
C149 C 0.76443 0.73985 0.2568 0.0
C150 C 0.76831 0.81253 0.34607 0.0
C151 C 0.78408 0.81304 0.36171 0.0
C152 C 0.79757 0.79837 0.36556 0.0
C153 C 0.7954 0.78356 0.35409 0.0
C154 C 0.77974 0.78338 0.33842 0.0
C155 C 0.76661 0.79774 0.33458 0.0
C156 C 0.7516 0.79554 0.31683 0.0
C157 C 0.75776 0.77743 0.31073 0.0
C158 C 0.77411 0.77032 0.32351 0.0
C159 C 0.7255 0.79632 0.32402 0.0
C160 C 0.75966 0.80961 0.30069 0.0
H161 H 0.77249 0.71176 0.28042 0.0
H162 H 0.82427 0.7121 0.33829 0.0
H163 H 0.83383 0.74806 0.31691 0.0
H164 H 0.82448 0.76577 0.33051 0.0
H165 H 0.83501 0.74691 0.34358 0.0
H166 H 0.77453 0.7292 0.35415 0.0
H167 H 0.80343 0.73303 0.36328 0.0
H168 H 0.78288 0.75017 0.36159 0.0
H169 H 0.71592 0.74625 0.24126 0.0
H170 H 0.6961 0.79833 0.25478 0.0
H171 H 0.7206 0.798 0.28332 0.0
H172 H 0.71323 0.73111 0.28746 0.0
H173 H 0.7247 0.71975 0.26652 0.0
H174 H 0.73754 0.71804 0.29061 0.0
H175 H 0.76959 0.75217 0.24839 0.0
H176 H 0.7811 0.73504 0.26233 0.0
H177 H 0.75733 0.73059 0.24599 0.0
H178 H 0.79568 0.68688 0.28749 0.0
C179 C 0.78339 0.7123 0.29308 0.0
C180 C 0.71679 0.26718 0.79845 0.0
C181 C 0.7054 0.25139 0.8049 0.0
C182 C 0.7089 0.23642 0.79386 0.0
C183 C 0.73503 0.25298 0.77038 0.0
C184 C 0.73167 0.26763 0.78133 0.0
C185 C 0.74625 0.28308 0.77307 0.0
H186 H 0.82782 0.31674 0.70511 0.0
C187 C 0.75204 0.25771 0.75376 0.0
C188 C 0.75886 0.27528 0.75534 0.0
H189 H 0.79347 0.34266 0.75376 0.0
H190 H 0.77089 0.31638 0.76302 0.0
H191 H 0.77988 0.29627 0.6911 0.0
H192 H 0.83621 0.28187 0.72855 0.0
H193 H 0.82879 0.2636 0.71481 0.0
H194 H 0.83983 0.28331 0.70186 0.0
H195 H 0.80916 0.29295 0.68148 0.0
H196 H 0.78778 0.27519 0.68506 0.0
C197 C 0.72934 0.29729 0.7665 0.0
C198 C 0.76353 0.28872 0.78915 0.0
C199 C 0.77379 0.21262 0.70342 0.0
C200 C 0.78983 0.21279 0.68691 0.0
C201 C 0.80339 0.22817 0.68209 0.0
C202 C 0.80085 0.24306 0.69331 0.0
C203 C 0.78471 0.24263 0.70969 0.0
C204 C 0.77168 0.22753 0.71461 0.0
C205 C 0.75614 0.2292 0.73301 0.0
C206 C 0.76158 0.24794 0.73803 0.0
C207 C 0.77821 0.25577 0.72426 0.0
C208 C 0.73027 0.22631 0.7272 0.0
C209 C 0.76417 0.21622 0.74933 0.0
C210 C 0.81524 0.31682 0.71762 0.0
C211 C 0.81254 0.33181 0.72876 0.0
C212 C 0.79617 0.33124 0.74511 0.0
C213 C 0.78298 0.31597 0.75041 0.0
C214 C 0.78615 0.30103 0.73931 0.0
C215 C 0.80194 0.30166 0.72312 0.0
C216 C 0.80295 0.28454 0.71304 0.0
C217 C 0.78532 0.27351 0.72594 0.0
C218 C 0.77557 0.28323 0.74132 0.0
C219 C 0.79469 0.28725 0.69148 0.0
C220 C 0.82824 0.27793 0.71443 0.0
H221 H 0.72541 0.22533 0.76875 0.0
H222 H 0.71464 0.27882 0.80686 0.0
H223 H 0.76941 0.27725 0.79787 0.0
H224 H 0.77993 0.29509 0.78277 0.0
H225 H 0.75511 0.29753 0.79983 0.0
H226 H 0.71336 0.29138 0.76001 0.0
H227 H 0.72349 0.30498 0.77937 0.0
H228 H 0.7371 0.30621 0.75462 0.0
H229 H 0.76289 0.20116 0.70756 0.0
H230 H 0.81625 0.22867 0.66977 0.0
H231 H 0.8117 0.2543 0.68885 0.0
H232 H 0.72718 0.23316 0.71274 0.0
H233 H 0.72589 0.21228 0.72552 0.0
H234 H 0.71754 0.23154 0.73803 0.0
H235 H 0.78306 0.21331 0.74709 0.0
H236 H 0.7629 0.22148 0.76446 0.0
H237 H 0.7539 0.20369 0.74924 0.0
H238 H 0.70018 0.22416 0.79857 0.0
C239 C 0.72353 0.23715 0.77657 0.0
C240 C 0.77315 0.8104 0.68121 0.0
C241 C 0.76299 0.82638 0.68502 0.0
C242 C 0.7478 0.82761 0.70196 0.0
C243 C 0.75386 0.79751 0.71131 0.0
C244 C 0.76841 0.79622 0.69452 0.0
C245 C 0.7784 0.77848 0.69303 0.0
H246 H 0.79365 0.69902 0.73537 0.0
C247 C 0.75336 0.78066 0.72248 0.0
C248 C 0.76769 0.76944 0.71185 0.0
H249 H 0.82192 0.71971 0.67845 0.0
H250 H 0.80079 0.74604 0.68289 0.0
H251 H 0.79993 0.73383 0.75944 0.0
H252 H 0.74128 0.71174 0.72916 0.0
H253 H 0.72972 0.72082 0.75089 0.0
H254 H 0.74981 0.70332 0.75293 0.0
H255 H 0.78348 0.71474 0.76872 0.0
H256 H 0.77458 0.73622 0.77471 0.0
C257 C 0.80552 0.78056 0.69362 0.0
C258 C 0.76937 0.77015 0.67392 0.0
C259 C 0.70675 0.77326 0.78848 0.0
C260 C 0.70392 0.75949 0.80273 0.0
C261 C 0.71533 0.74388 0.79924 0.0
C262 C 0.72935 0.74203 0.78189 0.0
C263 C 0.73212 0.75595 0.76785 0.0
C264 C 0.7209 0.77123 0.77126 0.0
C265 C 0.7262 0.78475 0.75488 0.0
C266 C 0.7422 0.77498 0.74094 0.0
C267 C 0.74563 0.75814 0.74863 0.0
C268 C 0.73922 0.80047 0.76398 0.0
C269 C 0.70281 0.78912 0.74515 0.0
C270 C 0.79532 0.70927 0.72391 0.0
C271 C 0.80962 0.70742 0.70664 0.0
C272 C 0.81096 0.72086 0.69186 0.0
C273 C 0.7988 0.73616 0.69453 0.0
C274 C 0.78509 0.73803 0.71215 0.0
C275 C 0.78317 0.72456 0.72629 0.0
C276 C 0.76722 0.72858 0.74377 0.0
C277 C 0.76025 0.74682 0.73798 0.0
C278 C 0.77095 0.75235 0.71955 0.0
C279 C 0.78185 0.72825 0.76276 0.0
C280 C 0.74592 0.71543 0.74445 0.0
H281 H 0.73153 0.81509 0.72773 0.0
H282 H 0.78504 0.80906 0.66842 0.0
H283 H 0.75156 0.77463 0.6705 0.0
H284 H 0.76718 0.75585 0.67547 0.0
H285 H 0.78125 0.77364 0.66078 0.0
H286 H 0.81067 0.79028 0.70472 0.0
H287 H 0.81331 0.7851 0.67886 0.0
H288 H 0.81396 0.76853 0.69831 0.0
H289 H 0.69847 0.78551 0.79083 0.0
H290 H 0.71323 0.73301 0.80989 0.0
H291 H 0.73754 0.72983 0.78013 0.0
H292 H 0.75035 0.79616 0.77635 0.0
H293 H 0.72659 0.80974 0.77014 0.0
H294 H 0.7516 0.8075 0.75323 0.0
H295 H 0.69123 0.77724 0.74425 0.0
H296 H 0.70532 0.79418 0.7296 0.0
H297 H 0.69304 0.79866 0.75398 0.0
H298 H 0.73944 0.83968 0.70506 0.0
C299 C 0.74315 0.81328 0.71508 0.0
C300 C 0.78858 0.21183 0.35963 0.0
C301 C 0.77782 0.19555 0.35614 0.0
C302 C 0.76318 0.19394 0.33977 0.0
C303 C 0.77031 0.22445 0.33074 0.0
C304 C 0.7846 0.22601 0.34681 0.0
C305 C 0.79495 0.24413 0.34831 0.0
H306 H 0.80979 0.32607 0.30956 0.0
C307 C 0.77004 0.24163 0.3203 0.0
C308 C 0.78441 0.25322 0.33055 0.0
H309 H 0.83989 0.30391 0.3624 0.0
H310 H 0.81886 0.27676 0.35777 0.0
H311 H 0.7577 0.31018 0.31939 0.0
H312 H 0.815 0.29272 0.28247 0.0
H313 H 0.7891 0.29051 0.26917 0.0
H314 H 0.79903 0.31174 0.27646 0.0
H315 H 0.76493 0.31986 0.29516 0.0
H316 H 0.7452 0.301 0.2985 0.0
C317 C 0.78605 0.25146 0.36834 0.0
C318 C 0.82206 0.24331 0.34583 0.0
C319 C 0.72309 0.24903 0.25794 0.0
C320 C 0.71927 0.26338 0.24511 0.0
C321 C 0.72985 0.27966 0.24922 0.0
C322 C 0.74412 0.28157 0.26562 0.0
C323 C 0.74789 0.26707 0.27816 0.0
C324 C 0.73727 0.25118 0.27432 0.0
C325 C 0.74285 0.23729 0.28949 0.0
C326 C 0.75864 0.24746 0.30301 0.0
C327 C 0.76166 0.26485 0.29622 0.0
C328 C 0.71955 0.23083 0.30043 0.0
C329 C 0.75622 0.223 0.27856 0.0
C330 C 0.81165 0.31544 0.32028 0.0
C331 C 0.82675 0.31714 0.33627 0.0
C332 C 0.82875 0.30288 0.34974 0.0
C333 C 0.81643 0.28712 0.34707 0.0
C334 C 0.80189 0.2855 0.33075 0.0
C335 C 0.79944 0.29959 0.31783 0.0
C336 C 0.78302 0.29551 0.30143 0.0
C337 C 0.77637 0.27656 0.30647 0.0
C338 C 0.78755 0.27078 0.3236 0.0
C339 C 0.76161 0.30727 0.3035 0.0
C340 C 0.79706 0.29781 0.28124 0.0
H341 H 0.74802 0.20622 0.31492 0.0
H342 H 0.80016 0.21347 0.37191 0.0
H343 H 0.82706 0.23345 0.33485 0.0
H344 H 0.8306 0.25558 0.33986 0.0
H345 H 0.82993 0.23967 0.3602 0.0
H346 H 0.76781 0.24653 0.37234 0.0
H347 H 0.79736 0.24756 0.38072 0.0
H348 H 0.78496 0.26575 0.36776 0.0
H349 H 0.71548 0.23629 0.25519 0.0
H350 H 0.7269 0.29103 0.23987 0.0
H351 H 0.75167 0.29427 0.26788 0.0
H352 H 0.70728 0.24164 0.30214 0.0
H353 H 0.71048 0.22055 0.29202 0.0
H354 H 0.72204 0.2259 0.31581 0.0
H355 H 0.7682 0.22881 0.26645 0.0
H356 H 0.76776 0.21569 0.28836 0.0
H357 H 0.74381 0.21372 0.27167 0.0
H358 H 0.75445 0.18161 0.33689 0.0
C359 C 0.75936 0.20829 0.32709 0.0
C360 C 0.25708 0.20856 0.6956 0.0
C361 C 0.24301 0.20893 0.67886 0.0
C362 C 0.2317 0.2243 0.67371 0.0
C363 C 0.24825 0.23852 0.70193 0.0
C364 C 0.25961 0.2235 0.70677 0.0
C365 C 0.27469 0.22556 0.72452 0.0
H366 H 0.31031 0.2746 0.80019 0.0
C367 C 0.2546 0.25168 0.71651 0.0
C368 C 0.27025 0.24422 0.72969 0.0
H369 H 0.33214 0.22319 0.78528 0.0
H370 H 0.30782 0.22371 0.75679 0.0
H371 H 0.25516 0.26984 0.78899 0.0
H372 H 0.31762 0.28998 0.75689 0.0
H373 H 0.29445 0.30201 0.74792 0.0
H374 H 0.30152 0.30302 0.77389 0.0
H375 H 0.27121 0.28928 0.79526 0.0
H376 H 0.24889 0.28976 0.77706 0.0
C377 C 0.26516 0.2125 0.74118 0.0
C378 C 0.30067 0.22312 0.71773 0.0
C379 C 0.21735 0.31059 0.71379 0.0
C380 C 0.22005 0.3256 0.72505 0.0
C381 C 0.23609 0.3255 0.74058 0.0
C382 C 0.24875 0.31071 0.74506 0.0
C383 C 0.24559 0.29582 0.73382 0.0
C384 C 0.23038 0.29602 0.71829 0.0
C385 C 0.23009 0.27928 0.70736 0.0
C386 C 0.24741 0.26893 0.7191 0.0
C387 C 0.25621 0.27862 0.73471 0.0
C388 C 0.20488 0.27102 0.70944 0.0
C389 C 0.23911 0.28327 0.68554 0.0
C390 C 0.31014 0.26348 0.79075 0.0
C391 C 0.3231 0.24874 0.79535 0.0
C392 C 0.32197 0.23457 0.78255 0.0
C393 C 0.30796 0.23493 0.76584 0.0
C394 C 0.29499 0.24968 0.76165 0.0
C395 C 0.29653 0.26373 0.77383 0.0
C396 C 0.28252 0.27866 0.76649 0.0
C397 C 0.27193 0.27108 0.74812 0.0
C398 C 0.27908 0.25403 0.7455 0.0
C399 C 0.26346 0.28225 0.78276 0.0
C400 C 0.29974 0.29433 0.76111 0.0
H401 H 0.22499 0.25033 0.6806 0.0
H402 H 0.2663 0.197 0.69966 0.0
H403 H 0.30388 0.22695 0.70171 0.0
H404 H 0.31314 0.2315 0.72568 0.0
H405 H 0.30552 0.20936 0.7197 0.0
H406 H 0.24561 0.21232 0.74224 0.0
H407 H 0.27055 0.19912 0.73806 0.0
H408 H 0.27088 0.21583 0.75613 0.0
H409 H 0.20513 0.31003 0.70184 0.0
H410 H 0.23909 0.33693 0.74923 0.0
H411 H 0.26052 0.31147 0.75712 0.0
H412 H 0.19743 0.27228 0.72487 0.0
H413 H 0.19301 0.27755 0.69905 0.0
H414 H 0.20417 0.25696 0.7068 0.0
H415 H 0.25154 0.29478 0.68451 0.0
H416 H 0.24931 0.27263 0.67931 0.0
H417 H 0.22437 0.28606 0.6757 0.0
H418 H 0.22074 0.22481 0.66088 0.0
C419 C 0.23416 0.23907 0.6852 0.0
C420 C 0.21298 0.70387 0.3222 0.0
C421 C 0.21521 0.68919 0.31045 0.0
C422 C 0.23123 0.69006 0.29387 0.0
C423 C 0.2421 0.7199 0.30078 0.0
C424 C 0.22653 0.719 0.31711 0.0
C425 C 0.22607 0.73582 0.32786 0.0
H426 H 0.26835 0.81831 0.33643 0.0
C427 C 0.25333 0.7375 0.29952 0.0
C428 C 0.2441 0.74688 0.31538 0.0
H429 H 0.21317 0.79086 0.37231 0.0
H430 H 0.21779 0.76554 0.35275 0.0
H431 H 0.24887 0.80588 0.295 0.0
H432 H 0.30306 0.78651 0.33181 0.0
H433 H 0.3136 0.7864 0.30685 0.0
H434 H 0.30638 0.80672 0.31773 0.0
H435 H 0.2769 0.81707 0.29655 0.0
H436 H 0.27217 0.80021 0.27896 0.0
C437 C 0.20102 0.74295 0.32671 0.0
C438 C 0.23419 0.73232 0.34933 0.0
C439 C 0.31166 0.75418 0.24243 0.0
C440 C 0.32492 0.76951 0.23719 0.0
C441 C 0.32378 0.78371 0.24987 0.0
C442 C 0.30923 0.78279 0.26723 0.0
C443 C 0.29567 0.7675 0.27202 0.0
C444 C 0.29727 0.75346 0.25982 0.0
C445 C 0.28192 0.73818 0.26736 0.0
C446 C 0.2704 0.74549 0.28586 0.0
C447 C 0.27845 0.76267 0.28849 0.0
C448 C 0.26382 0.73408 0.25134 0.0
C449 C 0.298 0.72299 0.27256 0.0
C450 C 0.25707 0.80693 0.34003 0.0
C451 C 0.24047 0.80668 0.35615 0.0
C452 C 0.22645 0.79141 0.36031 0.0
C453 C 0.22901 0.7767 0.3488 0.0
C454 C 0.24565 0.77722 0.33278 0.0
C455 C 0.2592 0.7922 0.32852 0.0
C456 C 0.27524 0.79062 0.31039 0.0
C457 C 0.26926 0.77214 0.30463 0.0
C458 C 0.25204 0.76433 0.31789 0.0
C459 C 0.26819 0.80418 0.29433 0.0
C460 C 0.30098 0.79278 0.31685 0.0
H461 H 0.25651 0.70511 0.2762 0.0
H462 H 0.20062 0.70371 0.33488 0.0
H463 H 0.24905 0.72335 0.34929 0.0
H464 H 0.24091 0.74413 0.35641 0.0
H465 H 0.21968 0.72621 0.35898 0.0
H466 H 0.19254 0.73902 0.31281 0.0
H467 H 0.1895 0.73798 0.33952 0.0
H468 H 0.20106 0.7573 0.32606 0.0
H469 H 0.31249 0.74292 0.23321 0.0
H470 H 0.33375 0.79569 0.24611 0.0
H471 H 0.30895 0.79408 0.27616 0.0
H472 H 0.25764 0.74628 0.24431 0.0
H473 H 0.2717 0.72633 0.23932 0.0
H474 H 0.24771 0.72717 0.25751 0.0
H475 H 0.31525 0.72792 0.27773 0.0
H476 H 0.29069 0.71449 0.28503 0.0
H477 H 0.30152 0.71501 0.25937 0.0
H478 H 0.23352 0.67887 0.28473 0.0
C479 C 0.24468 0.70529 0.289 0.0
C480 C 0.05146 0.53138 0.363 0.0
C481 C 0.05952 0.53657 0.38122 0.0
C482 C 0.04615 0.52751 0.39561 0.0
C483 C 0.03087 0.51729 0.3854 0.0
N484 N 0.03365 0.51925 0.36534 0.0
Co485 Co 0.01567 0.50647 0.34489 0.0
N486 N 0.99513 0.49394 0.36607 0.0
C487 C 0.99515 0.49635 0.38593 0.0
C488 C 0.97875 0.48609 0.39672 0.0
C489 C 0.96762 0.47649 0.38293 0.0
C490 C 0.97804 0.48142 0.36448 0.0
N491 N 0.99849 0.49303 0.32446 0.0
C492 C 0.98173 0.4801 0.32689 0.0
C493 C 0.97552 0.47348 0.30874 0.0
C494 C 0.98887 0.48251 0.29433 0.0
C495 C 0.0025 0.49399 0.30445 0.0
N496 N 0.03546 0.5196 0.32365 0.0
C497 C 0.03368 0.51857 0.30367 0.0
C498 C 0.04882 0.52977 0.29282 0.0
C499 C 0.06088 0.53864 0.30666 0.0
C500 C 0.05245 0.53221 0.32525 0.0
N501 N 0.03873 0.48781 0.34606 0.0
C502 C 0.06967 0.46006 0.3471 0.0
C503 C 0.06607 0.46937 0.32933 0.0
C504 C 0.05061 0.48298 0.32912 0.0
C505 C 0.05796 0.46525 0.36448 0.0
C506 C 0.04282 0.47911 0.36365 0.0
N507 N 0.99259 0.52515 0.34367 0.0
C508 C 0.96709 0.54311 0.32457 0.0
C509 C 0.96154 0.5528 0.34123 0.0
C510 C 0.97139 0.54809 0.35929 0.0
C511 C 0.98661 0.53427 0.3602 0.0
C512 C 0.98256 0.52957 0.32607 0.0
H513 H 0.99348 0.53136 0.37441 0.0
H514 H 0.98619 0.52297 0.31271 0.0
H515 H 0.04845 0.4893 0.31501 0.0
H516 H 0.0344 0.4824 0.3774 0.0
C517 C 0.01242 0.50692 0.39414 0.0
C518 C 0.0609 0.53868 0.34394 0.0
C519 C 0.97162 0.47341 0.34601 0.0
C520 C 0.01856 0.50627 0.29557 0.0
H521 H 0.07339 0.54611 0.38382 0.0
H522 H 0.04708 0.52856 0.41161 0.0
H523 H 0.97576 0.48528 0.41275 0.0
H524 H 0.95374 0.4667 0.38611 0.0
H525 H 0.96277 0.46312 0.30618 0.0
H526 H 0.98868 0.48088 0.27838 0.0
H527 H 0.05094 0.53124 0.27675 0.0
H528 H 0.07434 0.54872 0.30342 0.0
H529 H 0.07513 0.46621 0.31551 0.0
H530 H 0.06 0.45843 0.37863 0.0
H531 H 0.9595 0.54589 0.31032 0.0
H532 H 0.96781 0.55521 0.37264 0.0
C533 C 0.04597 0.53954 0.71586 0.0
C534 C 0.05278 0.54472 0.73447 0.0
C535 C 0.03968 0.53479 0.74827 0.0
C536 C 0.02565 0.5242 0.73737 0.0
N537 N 0.0291 0.52664 0.7174 0.0
Co538 Co 0.01214 0.51426 0.69602 0.0
N539 N 0.99149 0.5007 0.71639 0.0
C540 C 0.9918 0.50172 0.73648 0.0
C541 C 0.97563 0.49078 0.74656 0.0
C542 C 0.9643 0.48219 0.73209 0.0
C543 C 0.97425 0.48845 0.71392 0.0
N544 N 0.99536 0.50173 0.67466 0.0
C545 C 0.97802 0.48916 0.67619 0.0
C546 C 0.97154 0.48373 0.6576 0.0
C547 C 0.9854 0.4931 0.64381 0.0
C548 C 0.99947 0.50368 0.65471 0.0
N549 N 0.03255 0.52802 0.67567 0.0
C550 C 0.0323 0.52698 0.65559 0.0
C551 C 0.04794 0.53835 0.64552 0.0
C552 C 0.05867 0.54737 0.66 0.0
C553 C 0.04885 0.54095 0.67813 0.0
N554 N 0.03553 0.49573 0.69678 0.0
C555 C 0.06881 0.46946 0.69811 0.0
C556 C 0.06342 0.47763 0.68003 0.0
C557 C 0.04676 0.4905 0.6797 0.0
C558 C 0.05708 0.47465 0.71546 0.0
C559 C 0.04087 0.48775 0.71447 0.0
N560 N 0.98887 0.53278 0.69528 0.0
C561 C 0.96697 0.55387 0.67689 0.0
C562 C 0.95757 0.56032 0.6946 0.0
C563 C 0.96371 0.5524 0.7126 0.0
C564 C 0.97932 0.53889 0.7126 0.0
C565 C 0.98233 0.54013 0.67757 0.0
H566 H 0.98352 0.5337 0.72683 0.0
H567 H 0.9889 0.53582 0.66359 0.0
H568 H 0.04334 0.49603 0.66543 0.0
H569 H 0.03287 0.49111 0.72829 0.0
C570 C 0.00807 0.51266 0.74545 0.0
C571 C 0.05528 0.5478 0.69722 0.0
C572 C 0.96724 0.48192 0.69481 0.0
C573 C 0.01669 0.51551 0.64665 0.0
H574 H 0.06555 0.55486 0.73776 0.0
H575 H 0.03991 0.53553 0.76433 0.0
H576 H 0.97267 0.48908 0.76254 0.0
H577 H 0.95047 0.47227 0.73466 0.0
H578 H 0.9582 0.47397 0.65437 0.0
H579 H 0.9853 0.49226 0.62775 0.0
H580 H 0.05093 0.54006 0.62954 0.0
H581 H 0.07203 0.55765 0.65751 0.0
H582 H 0.07215 0.47429 0.66615 0.0
H583 H 0.0601 0.46854 0.72984 0.0
H584 H 0.96294 0.55959 0.66253 0.0
H585 H 0.95651 0.55655 0.72675 0.0
C586 C 0.25128 0.98544 0.54691 0.0
C587 C 0.27346 0.98109 0.55281 0.0
C588 C 0.28927 0.99077 0.54093 0.0
C589 C 0.27589 0.00043 0.52852 0.0
N590 N 0.25245 0.99769 0.53192 0.0
Co591 Co 0.22658 0.00857 0.51701 0.0
N592 N 0.24988 0.02176 0.49849 0.0
C593 C 0.27362 0.02126 0.49845 0.0
C594 C 0.28489 0.03199 0.48418 0.0
C595 C 0.26734 0.04002 0.47466 0.0
C596 C 0.24631 0.03371 0.48378 0.0
N597 N 0.20072 0.01951 0.50212 0.0
C598 C 0.20191 0.03176 0.48711 0.0
C599 C 0.17973 0.03627 0.48138 0.0
C600 C 0.16392 0.02665 0.49334 0.0
C601 C 0.1773 0.01688 0.50564 0.0
N602 N 0.2033 0.99531 0.5355 0.0
C603 C 0.17957 0.99573 0.53545 0.0
C604 C 0.1683 0.98481 0.54955 0.0
C605 C 0.18586 0.97673 0.55903 0.0
C606 C 0.20688 0.98325 0.5501 0.0
N607 N 0.22694 0.02832 0.5353 0.0
C608 C 0.22743 0.05742 0.55957 0.0
C609 C 0.20641 0.04832 0.5562 0.0
C610 C 0.20654 0.03399 0.54396 0.0
C611 C 0.24821 0.05157 0.55097 0.0
C612 C 0.24761 0.03701 0.53917 0.0
N613 N 0.22625 0.98881 0.49874 0.0
C614 C 0.20523 0.96562 0.48267 0.0
C615 C 0.22624 0.95942 0.4747 0.0
C616 C 0.24716 0.96852 0.47859 0.0
C617 C 0.24677 0.98294 0.49061 0.0
C618 C 0.20562 0.98028 0.49439 0.0
H619 H 0.26337 0.98899 0.49324 0.0
H620 H 0.18904 0.98431 0.5 0.0
H621 H 0.1899 0.02787 0.54155 0.0
H622 H 0.26409 0.03314 0.53325 0.0
C623 C 0.28482 0.01132 0.51277 0.0
C624 C 0.22971 0.97701 0.55539 0.0
C625 C 0.22351 0.04004 0.47851 0.0
C626 C 0.1684 0.00585 0.52128 0.0
H627 H 0.27775 0.97163 0.56424 0.0
H628 H 0.30825 0.99044 0.54095 0.0
H629 H 0.30364 0.03406 0.48137 0.0
H630 H 0.26975 0.04971 0.46264 0.0
H631 H 0.17545 0.04579 0.47001 0.0
H632 H 0.14494 0.02706 0.4934 0.0
H633 H 0.14955 0.98265 0.55227 0.0
H634 H 0.18348 0.96689 0.57089 0.0
H635 H 0.18988 0.0525 0.56257 0.0
H636 H 0.26494 0.05815 0.55345 0.0
H637 H 0.18852 0.95902 0.48029 0.0
H638 H 0.2639 0.9646 0.4724 0.0
C639 C 0.47536 0.79018 0.04467 0.0
C640 C 0.46678 0.80625 0.04933 0.0
C641 C 0.47944 0.81835 0.03768 0.0
C642 C 0.49483 0.80901 0.02653 0.0
N643 N 0.49264 0.79165 0.03021 0.0
Co644 Co 0.51129 0.77326 0.01717 0.0
N645 N 0.53165 0.79118 0.0017 0.0
C646 C 0.53089 0.80865 0.00292 0.0
C647 C 0.54734 0.8176 0.99075 0.0
C648 C 0.55923 0.80513 0.98107 0.0
C649 C 0.54917 0.78922 0.98782 0.0
N650 N 0.52941 0.75484 0.00357 0.0
C651 C 0.54652 0.75634 0.98893 0.0
C652 C 0.55323 0.74017 0.98267 0.0
C653 C 0.53994 0.72805 0.99374 0.0
C654 C 0.5258 0.73743 0.00596 0.0
N655 N 0.49149 0.75535 0.03322 0.0
C656 C 0.49329 0.7379 0.03303 0.0
C657 C 0.47846 0.72898 0.04661 0.0
C658 C 0.46668 0.74148 0.05632 0.0
C659 C 0.47493 0.75737 0.04794 0.0
N660 N 0.48878 0.77271 0.99529 0.0
C661 C 0.45902 0.77147 0.9627 0.0
C662 C 0.46336 0.75647 0.974 0.0
C663 C 0.47813 0.75737 0.99006 0.0
C664 C 0.46936 0.78719 0.96833 0.0
C665 C 0.48399 0.78752 0.98457 0.0
N666 N 0.53378 0.77379 0.03902 0.0
C667 C 0.55775 0.75868 0.0624 0.0
C668 C 0.5634 0.77415 0.07173 0.0
C669 C 0.55444 0.78951 0.06402 0.0
C670 C 0.5399 0.78905 0.04774 0.0
C671 C 0.54303 0.75879 0.04626 0.0
H672 H 0.53355 0.80119 0.04268 0.0
H673 H 0.53924 0.74653 0.04002 0.0
H674 H 0.4808 0.74544 0.99789 0.0
H675 H 0.49145 0.79989 0.98797 0.0
C676 C 0.51318 0.81624 0.0142 0.0
C677 C 0.46724 0.77402 0.055 0.0
C678 C 0.55632 0.7727 0.98007 0.0
C679 C 0.50917 0.73026 0.01996 0.0
H680 H 0.45318 0.80896 0.06037 0.0
H681 H 0.47815 0.83232 0.03785 0.0
H682 H 0.54992 0.83155 0.98873 0.0
H683 H 0.57339 0.80747 0.96998 0.0
H684 H 0.56617 0.73738 0.97112 0.0
H685 H 0.54037 0.71406 0.99284 0.0
H686 H 0.4767 0.71506 0.04935 0.0
H687 H 0.45378 0.73911 0.06844 0.0
H688 H 0.45536 0.74402 0.97052 0.0
H689 H 0.46667 0.79918 0.95999 0.0
H690 H 0.56465 0.74647 0.06749 0.0
H691 H 0.55813 0.80184 0.07078 0.0
C692 C 0.82533 0.98917 0.55406 0.0
C693 C 0.84673 0.98455 0.56144 0.0
C694 C 0.86367 0.99434 0.55087 0.0
C695 C 0.85169 0.00437 0.53773 0.0
N696 N 0.82809 0.00166 0.53939 0.0
Co697 Co 0.80399 0.0135 0.52331 0.0
N698 N 0.82899 0.02602 0.50588 0.0
C699 C 0.85248 0.02417 0.50649 0.0
C700 C 0.86521 0.03435 0.49253 0.0
C701 C 0.84889 0.04331 0.48244 0.0
C702 C 0.82708 0.03807 0.49094 0.0
N703 N 0.77987 0.02605 0.50798 0.0
C704 C 0.7827 0.03869 0.49349 0.0
C705 C 0.76126 0.04467 0.48755 0.0
C706 C 0.74427 0.03566 0.49891 0.0
C707 C 0.75625 0.02477 0.51108 0.0
N708 N 0.77897 0.00021 0.53996 0.0
C709 C 0.75543 0.00098 0.53834 0.0
C710 C 0.74271 0.98957 0.55099 0.0
C711 C 0.75911 0.9807 0.56104 0.0
C712 C 0.78095 0.9873 0.5539 0.0
N713 N 0.80431 0.03273 0.54231 0.0
C714 C 0.80426 0.0611 0.56769 0.0
C715 C 0.7838 0.05101 0.5653 0.0
C716 C 0.78416 0.03708 0.55252 0.0
C717 C 0.82484 0.05662 0.55752 0.0
C718 C 0.82455 0.04238 0.54519 0.0
N719 N 0.80366 0.99429 0.50434 0.0
C720 C 0.78249 0.97515 0.48288 0.0
C721 C 0.80262 0.9658 0.47921 0.0
C722 C 0.82339 0.97111 0.48795 0.0
C723 C 0.8236 0.98541 0.50019 0.0
C724 C 0.78335 0.98917 0.49552 0.0
H725 H 0.84006 0.98893 0.50624 0.0
H726 H 0.76726 0.9955 0.49812 0.0
H727 H 0.76783 0.03018 0.551 0.0
H728 H 0.8409 0.03954 0.53805 0.0
C729 C 0.86208 0.01446 0.5219 0.0
C730 C 0.80302 0.98056 0.56046 0.0
C731 C 0.80522 0.04567 0.48518 0.0
C732 C 0.74583 0.01278 0.52503 0.0
H733 H 0.84981 0.97471 0.57281 0.0
H734 H 0.88253 0.99363 0.55197 0.0
H735 H 0.88414 0.03564 0.49046 0.0
H736 H 0.85264 0.05298 0.47058 0.0
H737 H 0.75824 0.0546 0.47626 0.0
H738 H 0.72544 0.03692 0.49838 0.0
H739 H 0.72378 0.98779 0.55258 0.0
H740 H 0.75544 0.9704 0.5722 0.0
H741 H 0.76742 0.05412 0.57286 0.0
H742 H 0.84116 0.06402 0.55917 0.0
H743 H 0.76598 0.97138 0.47645 0.0
H744 H 0.83946 0.9643 0.48527 0.0
C745 C 0.48205 0.26653 0.05079 0.0
C746 C 0.47388 0.2829 0.0546 0.0
C747 C 0.48698 0.29444 0.04255 0.0
C748 C 0.50216 0.2845 0.03196 0.0
N749 N 0.49943 0.26728 0.03639 0.0
Co750 Co 0.51695 0.24817 0.02371 0.0
N751 N 0.53815 0.2653 0.00786 0.0
C752 C 0.5385 0.28281 0.00889 0.0
C753 C 0.55563 0.29113 0.99684 0.0
C754 C 0.56675 0.27816 0.98738 0.0
C755 C 0.55548 0.26264 0.99405 0.0
N756 N 0.53381 0.22906 0.01027 0.0
C757 C 0.55036 0.22986 0.99514 0.0
C758 C 0.55563 0.21341 0.98884 0.0
C759 C 0.54202 0.20182 0.0004 0.0
C760 C 0.52908 0.21179 0.01291 0.0
N761 N 0.49655 0.23107 0.04042 0.0
C762 C 0.49756 0.21355 0.04064 0.0
C763 C 0.48293 0.20523 0.05483 0.0
C764 C 0.4721 0.2182 0.06449 0.0
C765 C 0.48059 0.23377 0.05541 0.0
N766 N 0.49411 0.24795 0.00204 0.0
C767 C 0.46334 0.24728 0.97 0.0
C768 C 0.46543 0.23269 0.98269 0.0
C769 C 0.48089 0.23326 0.99835 0.0
C770 C 0.47672 0.26227 0.97392 0.0
C771 C 0.49158 0.26239 0.98997 0.0
N772 N 0.53977 0.24841 0.04529 0.0
C773 C 0.56388 0.23322 0.06853 0.0
C774 C 0.57138 0.24889 0.07651 0.0
C775 C 0.56289 0.2643 0.06858 0.0
C776 C 0.54715 0.26376 0.05318 0.0
C777 C 0.54831 0.23329 0.05293 0.0
H778 H 0.54103 0.27594 0.04803 0.0
H779 H 0.54336 0.22095 0.04735 0.0
H780 H 0.48189 0.22158 0.00715 0.0
H781 H 0.50101 0.27432 0.9921 0.0
C782 C 0.52091 0.29107 0.01962 0.0
C783 C 0.4735 0.2508 0.06187 0.0
C784 C 0.56083 0.24587 0.98584 0.0
C785 C 0.51246 0.20532 0.0273 0.0
H786 H 0.46026 0.2862 0.06535 0.0
H787 H 0.48612 0.30846 0.04209 0.0
H788 H 0.55908 0.30498 0.99466 0.0
H789 H 0.58105 0.27996 0.97634 0.0
H790 H 0.56774 0.21004 0.97691 0.0
H791 H 0.54137 0.18781 0.99958 0.0
H792 H 0.48069 0.19139 0.05799 0.0
H793 H 0.45965 0.21631 0.07701 0.0
H794 H 0.45516 0.22082 0.98068 0.0
H795 H 0.47618 0.27389 0.96447 0.0
H796 H 0.57018 0.22097 0.07414 0.0
H797 H 0.568 0.27673 0.07449 0.0
C798 C 0.19358 0.33617 0.32187 0.0
C799 C 0.20537 0.32951 0.33828 0.0
C800 C 0.179 0.35021 0.32397 0.0
C801 C 0.16746 0.38793 0.35372 0.0
H802 H 0.10503 0.38377 0.33286 0.0
C803 C 0.0994 0.44141 0.3635 0.0
C804 C 0.08513 0.44489 0.3473 0.0
C805 C 0.11387 0.42712 0.36352 0.0
C806 C 0.1225 0.38527 0.33854 0.0
H807 H 0.21163 0.33253 0.36963 0.0
H808 H 0.18628 0.35739 0.37326 0.0
H809 H 0.13118 0.35957 0.33048 0.0
H810 H 0.07468 0.43577 0.31857 0.0
H811 H 0.10054 0.4115 0.31819 0.0
H812 H 0.15913 0.41383 0.36124 0.0
C813 C 0.18829 0.35162 0.35882 0.0
C814 C 0.13742 0.37136 0.33724 0.0
C815 C 0.20264 0.33738 0.35678 0.0
C816 C 0.08569 0.43371 0.33117 0.0
C817 C 0.10028 0.41956 0.3311 0.0
C818 C 0.15262 0.40197 0.35481 0.0
C819 C 0.17612 0.35801 0.34248 0.0
C820 C 0.1601 0.3726 0.34466 0.0
C821 C 0.11451 0.41602 0.34729 0.0
C822 C 0.13001 0.40087 0.34705 0.0
H823 H 0.19519 0.33025 0.30748 0.0
H824 H 0.16997 0.35499 0.3111 0.0
H825 H 0.18494 0.38924 0.35945 0.0
H826 H 0.09962 0.44983 0.3761 0.0
H827 H 0.1244 0.42471 0.37635 0.0
C828 C 0.19476 0.67217 0.7074 0.0
C829 C 0.18505 0.68847 0.70398 0.0
C830 C 0.18097 0.65688 0.70619 0.0
C831 C 0.11912 0.64059 0.70876 0.0
H832 H 0.14444 0.60004 0.68424 0.0
C833 C 0.06109 0.57999 0.69332 0.0
C834 C 0.07045 0.5638 0.69763 0.0
C835 C 0.07525 0.59515 0.6938 0.0
C836 C 0.1372 0.6112 0.69132 0.0
H837 H 0.1532 0.70145 0.69663 0.0
H838 H 0.1293 0.67479 0.6941 0.0
H839 H 0.16888 0.62664 0.68545 0.0
H840 H 0.10162 0.55041 0.70557 0.0
H841 H 0.12656 0.57697 0.70659 0.0
H842 H 0.08745 0.62517 0.71463 0.0
C843 C 0.14752 0.67383 0.69794 0.0
C844 C 0.1512 0.62644 0.69201 0.0
C845 C 0.1613 0.68911 0.69915 0.0
C846 C 0.09417 0.56286 0.70224 0.0
C847 C 0.10838 0.57802 0.70269 0.0
C848 C 0.10513 0.62537 0.70804 0.0
C849 C 0.15715 0.65754 0.70155 0.0
C850 C 0.14231 0.64132 0.70073 0.0
C851 C 0.09904 0.59435 0.69854 0.0
C852 C 0.11399 0.6105 0.6993 0.0
H853 H 0.21307 0.67121 0.71095 0.0
H854 H 0.18889 0.64456 0.70923 0.0
H855 H 0.11186 0.65171 0.71591 0.0
H856 H 0.04281 0.58088 0.68963 0.0
H857 H 0.06762 0.60749 0.69026 0.0
C858 C 0.82758 0.6749 0.33647 0.0
C859 C 0.82645 0.68242 0.31721 0.0
C860 C 0.84142 0.66055 0.33988 0.0
C861 C 0.87167 0.62566 0.31308 0.0
H862 H 0.90615 0.62145 0.36162 0.0
C863 C 0.94662 0.57844 0.32212 0.0
C864 C 0.94583 0.56777 0.33958 0.0
C865 C 0.93146 0.59215 0.32017 0.0
C866 C 0.89644 0.6224 0.34808 0.0
H867 H 0.83933 0.68121 0.28653 0.0
H868 H 0.86395 0.65656 0.29247 0.0
H869 H 0.88089 0.64604 0.35663 0.0
H870 H 0.9285 0.56343 0.36879 0.0
H871 H 0.90245 0.58779 0.36551 0.0
H872 H 0.88784 0.6023 0.30433 0.0
C873 C 0.85362 0.66129 0.30489 0.0
C874 C 0.8819 0.63644 0.34523 0.0
C875 C 0.83959 0.67548 0.30147 0.0
C876 C 0.92982 0.57147 0.35523 0.0
C877 C 0.91483 0.58536 0.35335 0.0
C878 C 0.88641 0.61178 0.31583 0.0
C879 C 0.85462 0.65356 0.32412 0.0
C880 C 0.86947 0.63832 0.3276 0.0
C881 C 0.91535 0.5957 0.33571 0.0
C882 C 0.89905 0.61008 0.33329 0.0
H883 H 0.81745 0.67993 0.34884 0.0
H884 H 0.84148 0.65481 0.35481 0.0
H885 H 0.86196 0.62641 0.29954 0.0
H886 H 0.9591 0.5763 0.30995 0.0
H887 H 0.93249 0.60011 0.30654 0.0
C888 C 0.83155 0.35341 0.70366 0.0
C889 C 0.82703 0.34788 0.72366 0.0
C890 C 0.84551 0.36839 0.69893 0.0
C891 C 0.86843 0.40885 0.72061 0.0
H892 H 0.91533 0.40844 0.67722 0.0
C893 C 0.95762 0.45023 0.6923 0.0
C894 C 0.94991 0.46713 0.69453 0.0
C895 C 0.94153 0.43607 0.69389 0.0
C896 C 0.90235 0.40874 0.68941 0.0
H897 H 0.83398 0.35364 0.75434 0.0
H898 H 0.85828 0.37973 0.74611 0.0
H899 H 0.88945 0.38286 0.68439 0.0
H900 H 0.91973 0.48285 0.69953 0.0
H901 H 0.89134 0.45811 0.70206 0.0
H902 H 0.88178 0.43447 0.72608 0.0
C903 C 0.85069 0.37266 0.73408 0.0
C904 C 0.88736 0.39415 0.69339 0.0
C905 C 0.83675 0.3577 0.7388 0.0
C906 C 0.9259 0.46983 0.69779 0.0
C907 C 0.90978 0.45569 0.69937 0.0
C908 C 0.88339 0.42342 0.71664 0.0
C909 C 0.85525 0.37819 0.7141 0.0
C910 C 0.8704 0.39398 0.70918 0.0
C911 C 0.91746 0.43862 0.69775 0.0
C912 C 0.90067 0.42348 0.70111 0.0
H913 H 0.82407 0.34625 0.69165 0.0
H914 H 0.84845 0.37242 0.6834 0.0
H915 H 0.85536 0.40922 0.73273 0.0
H916 H 0.97616 0.44797 0.6899 0.0
H917 H 0.94807 0.4231 0.6928 0.0
C918 C 0.24745 0.1611 0.35551 0.0
C919 C 0.25262 0.1771 0.36411 0.0
C920 C 0.24197 0.14624 0.36752 0.0
C921 C 0.22273 0.13177 0.41897 0.0
H922 H 0.24991 0.08842 0.40403 0.0
C923 C 0.22645 0.07219 0.47306 0.0
C924 C 0.2226 0.05573 0.46529 0.0
C925 C 0.22771 0.08698 0.46041 0.0
C926 C 0.24189 0.10036 0.40826 0.0
H927 H 0.25619 0.19007 0.39208 0.0
H928 H 0.24683 0.16412 0.41307 0.0
H929 H 0.25696 0.11431 0.38254 0.0
H930 H 0.21669 0.04148 0.43864 0.0
H931 H 0.21871 0.0674 0.41631 0.0
H932 H 0.20802 0.11782 0.44491 0.0
C933 C 0.24659 0.1631 0.39703 0.0
C934 C 0.24594 0.11521 0.39594 0.0
C935 C 0.252 0.17796 0.38501 0.0
C936 C 0.21957 0.05416 0.44482 0.0
C937 C 0.22091 0.06893 0.43212 0.0
C938 C 0.21874 0.11691 0.43133 0.0
C939 C 0.2416 0.14704 0.38843 0.0
C940 C 0.23655 0.13112 0.40121 0.0
C941 C 0.22528 0.08549 0.43975 0.0
C942 C 0.2284 0.10107 0.42617 0.0
H943 H 0.2474 0.16008 0.33945 0.0
H944 H 0.23784 0.13415 0.36041 0.0
H945 H 0.21492 0.14375 0.42331 0.0
H946 H 0.22902 0.07354 0.48886 0.0
H947 H 0.23139 0.0995 0.46672 0.0
C948 C 0.3271 0.77409 0.82179 0.0
C949 C 0.32781 0.75914 0.81036 0.0
C950 C 0.34146 0.7759 0.83806 0.0
C951 C 0.39584 0.76022 0.85914 0.0
H952 H 0.36958 0.77673 0.90887 0.0
C953 C 0.44571 0.75665 0.93213 0.0
C954 C 0.44414 0.77062 0.94501 0.0
C955 C 0.43174 0.75573 0.91553 0.0
C956 C 0.37728 0.77233 0.89502 0.0
H957 H 0.34438 0.73448 0.80686 0.0
H958 H 0.36936 0.73758 0.83539 0.0
H959 H 0.34482 0.77426 0.88017 0.0
H960 H 0.42654 0.7946 0.9505 0.0
H961 H 0.40255 0.79322 0.92123 0.0
H962 H 0.42831 0.75834 0.8739 0.0
C963 C 0.35775 0.74793 0.8317 0.0
C964 C 0.36308 0.77089 0.87859 0.0
C965 C 0.34328 0.74608 0.81549 0.0
C966 C 0.42834 0.78373 0.9408 0.0
C967 C 0.41439 0.78283 0.92415 0.0
C968 C 0.41007 0.76172 0.87553 0.0
C969 C 0.35696 0.76285 0.84318 0.0
C970 C 0.37217 0.76472 0.8605 0.0
C971 C 0.4159 0.76881 0.91132 0.0
C972 C 0.40093 0.7677 0.89371 0.0
H973 H 0.3152 0.78432 0.8183 0.0
H974 H 0.3406 0.7876 0.84653 0.0
H975 H 0.40345 0.75568 0.8453 0.0
H976 H 0.45792 0.74645 0.93476 0.0
H977 H 0.43317 0.74465 0.90611 0.0
C978 C 0.78482 0.84553 0.3648 0.0
C979 C 0.78666 0.82887 0.37373 0.0
C980 C 0.78686 0.86037 0.3761 0.0
C981 C 0.81257 0.87733 0.4205 0.0
H982 H 0.76372 0.91102 0.41872 0.0
C983 C 0.81038 0.93457 0.47374 0.0
C984 C 0.80179 0.95036 0.4667 0.0
C985 C 0.80887 0.9198 0.46226 0.0
C986 C 0.77776 0.90194 0.41915 0.0
H987 H 0.79207 0.81492 0.40174 0.0
H988 H 0.79651 0.84094 0.42123 0.0
H989 H 0.76077 0.88525 0.39873 0.0
H990 H 0.78545 0.96334 0.44204 0.0
H991 H 0.78363 0.93779 0.42156 0.0
H992 H 0.83002 0.89413 0.44037 0.0
C993 C 0.79338 0.84237 0.40545 0.0
C994 C 0.77595 0.88713 0.40778 0.0
C995 C 0.79095 0.82749 0.39423 0.0
C996 C 0.79199 0.95124 0.44785 0.0
C997 C 0.79083 0.93655 0.43621 0.0
C998 C 0.8146 0.89229 0.43162 0.0
C999 C 0.7912 0.85892 0.3965 0.0
C1000 C 0.79328 0.87466 0.40843 0.0
C1001 C 0.79906 0.92058 0.44333 0.0
C1002 C 0.79716 0.90477 0.43118 0.0
H1003 H 0.78208 0.84718 0.34899 0.0
H1004 H 0.78538 0.87301 0.36882 0.0
H1005 H 0.82628 0.86796 0.42106 0.0
H1006 H 0.81777 0.93354 0.48835 0.0
H1007 H 0.81498 0.90771 0.46845 0.0
C1008 C 0.69401 0.23791 0.83841 0.0
C1009 C 0.69029 0.25044 0.82334 0.0
C1010 C 0.68007 0.2372 0.85602 0.0
C1011 C 0.63818 0.26333 0.88559 0.0
H1012 H 0.62317 0.21892 0.91286 0.0
C1013 C 0.5676 0.25332 0.94951 0.0
C1014 C 0.57541 0.2454 0.96705 0.0
C1015 C 0.58165 0.25373 0.93199 0.0
C1016 C 0.62735 0.2314 0.90541 0.0
H1017 H 0.66892 0.2718 0.81451 0.0
H1018 H 0.64381 0.27014 0.84481 0.0
H1019 H 0.64708 0.21996 0.88188 0.0
H1020 H 0.60381 0.23175 0.98024 0.0
H1021 H 0.62819 0.23187 0.94923 0.0
H1022 H 0.6176 0.27457 0.90889 0.0
C1023 C 0.65798 0.26122 0.84348 0.0
C1024 C 0.64117 0.23205 0.88772 0.0
C1025 C 0.67223 0.26212 0.82604 0.0
C1026 C 0.59737 0.23772 0.96678 0.0
C1027 C 0.61124 0.23782 0.94913 0.0
C1028 C 0.62401 0.26261 0.90306 0.0
C1029 C 0.66178 0.24881 0.8588 0.0
C1030 C 0.64686 0.24805 0.87758 0.0
C1031 C 0.60358 0.24597 0.93165 0.0
C1032 C 0.61854 0.24665 0.91314 0.0
H1033 H 0.70804 0.22889 0.83673 0.0
H1034 H 0.68392 0.22771 0.86756 0.0
H1035 H 0.64256 0.27593 0.87854 0.0
H1036 H 0.5507 0.25934 0.94946 0.0
H1037 H 0.57534 0.26001 0.91866 0.0
C1038 C 0.27226 0.85057 0.66085 0.0
C1039 C 0.25289 0.83981 0.66749 0.0
C1040 C 0.26917 0.86524 0.64861 0.0
C1041 C 0.22781 0.88504 0.61431 0.0
H1042 H 0.26296 0.92761 0.62485 0.0
C1043 C 0.23209 0.94491 0.56001 0.0
C1044 C 0.23103 0.96126 0.56843 0.0
C1045 C 0.23394 0.93002 0.5722 0.0
C1046 C 0.25287 0.91587 0.62181 0.0
H1047 H 0.21503 0.83604 0.66647 0.0
H1048 H 0.20963 0.86168 0.64506 0.0
H1049 H 0.26764 0.90171 0.64593 0.0
H1050 H 0.23082 0.97523 0.59582 0.0
H1051 H 0.23389 0.94916 0.61737 0.0
H1052 H 0.2128 0.8993 0.59035 0.0
C1053 C 0.22726 0.85863 0.64914 0.0
C1054 C 0.25576 0.90097 0.63374 0.0
C1055 C 0.23036 0.84394 0.6614 0.0
C1056 C 0.23166 0.96265 0.58915 0.0
C1057 C 0.23355 0.94777 0.60138 0.0
C1058 C 0.22495 0.89995 0.60235 0.0
C1059 C 0.24662 0.86951 0.64272 0.0
C1060 C 0.24333 0.88537 0.6301 0.0
C1061 C 0.23481 0.93129 0.59303 0.0
C1062 C 0.23748 0.91552 0.60594 0.0
H1063 H 0.2899 0.84757 0.66499 0.0
H1064 H 0.28449 0.87318 0.64362 0.0
H1065 H 0.21811 0.87319 0.61102 0.0
H1066 H 0.2317 0.94371 0.54399 0.0
H1067 H 0.23517 0.91757 0.5653 0.0
C1068 C 0.67447 0.75854 0.22393 0.0
C1069 C 0.68938 0.77281 0.22804 0.0
C1070 C 0.66074 0.75895 0.20713 0.0
C1071 C 0.65729 0.77984 0.15748 0.0
H1072 H 0.59172 0.76432 0.16212 0.0
C1073 C 0.59465 0.78779 0.09235 0.0
C1074 C 0.57812 0.77417 0.08956 0.0
C1075 C 0.60822 0.78784 0.10927 0.0
C1076 C 0.61008 0.76849 0.16049 0.0
H1077 H 0.70182 0.79858 0.21767 0.0
H1078 H 0.67778 0.7993 0.1883 0.0
H1079 H 0.61545 0.76384 0.19159 0.0
H1080 H 0.56277 0.75 0.10258 0.0
H1081 H 0.58694 0.74979 0.13164 0.0
H1082 H 0.65211 0.78424 0.12635 0.0
C1083 C 0.67675 0.78781 0.19808 0.0
C1084 C 0.62364 0.76825 0.1774 0.0
C1085 C 0.69032 0.78746 0.21498 0.0
C1086 C 0.57555 0.76058 0.10408 0.0
C1087 C 0.58919 0.76059 0.12092 0.0
C1088 C 0.64378 0.77997 0.14053 0.0
C1089 C 0.66179 0.77356 0.194 0.0
C1090 C 0.64738 0.77391 0.17606 0.0
C1091 C 0.60564 0.77425 0.12378 0.0
C1092 C 0.62001 0.77427 0.14182 0.0
H1093 H 0.67327 0.74712 0.23382 0.0
H1094 H 0.64951 0.74772 0.20427 0.0
H1095 H 0.67564 0.78408 0.15596 0.0
H1096 H 0.59728 0.79837 0.08138 0.0
H1097 H 0.62053 0.79867 0.11109 0.0
C1098 C 0.7902 0.1803 0.68397 0.0
C1099 C 0.79241 0.19703 0.67485 0.0
C1100 C 0.79199 0.16551 0.6726 0.0
C1101 C 0.81733 0.14957 0.6265 0.0
H1102 H 0.76736 0.11396 0.63135 0.0
C1103 C 0.81315 0.09259 0.57294 0.0
C1104 C 0.80398 0.07641 0.5804 0.0
C1105 C 0.81217 0.10721 0.58467 0.0
C1106 C 0.78171 0.12359 0.63003 0.0
H1107 H 0.79827 0.21115 0.64644 0.0
H1108 H 0.80229 0.18528 0.62678 0.0
H1109 H 0.76526 0.13953 0.65167 0.0
H1110 H 0.78719 0.06263 0.60604 0.0
H1111 H 0.7863 0.08796 0.62688 0.0
H1112 H 0.83423 0.13354 0.60536 0.0
C1113 C 0.79907 0.18374 0.64276 0.0
C1114 C 0.78039 0.13828 0.64161 0.0
C1115 C 0.79688 0.19854 0.65408 0.0
C1116 C 0.79416 0.07503 0.5999 0.0
C1117 C 0.79354 0.08958 0.61176 0.0
C1118 C 0.81887 0.13474 0.61515 0.0
C1119 C 0.79646 0.16711 0.65191 0.0
C1120 C 0.79811 0.15143 0.63987 0.0
C1121 C 0.80235 0.10593 0.60425 0.0
C1122 C 0.80101 0.12158 0.61667 0.0
H1123 H 0.78728 0.17856 0.69995 0.0
H1124 H 0.79017 0.15281 0.68001 0.0
H1125 H 0.83134 0.15948 0.62505 0.0
H1126 H 0.82057 0.09401 0.55785 0.0
H1127 H 0.81871 0.11959 0.57818 0.0
C1128 C 0.36344 0.27378 0.21905 0.0
C1129 C 0.34346 0.26275 0.22252 0.0
C1130 C 0.37766 0.2724 0.20178 0.0
C1131 C 0.39003 0.24271 0.16008 0.0
H1132 H 0.42064 0.28424 0.13543 0.0
C1133 C 0.43511 0.24552 0.08112 0.0
C1134 C 0.45835 0.25227 0.08021 0.0
C1135 C 0.42108 0.24674 0.09852 0.0
C1136 C 0.41226 0.27254 0.14224 0.0
H1137 H 0.32233 0.24188 0.21066 0.0
H1138 H 0.34646 0.23991 0.18011 0.0
H1139 H 0.39583 0.28652 0.16557 0.0
H1140 H 0.48509 0.26599 0.09628 0.0
H1141 H 0.46025 0.26864 0.12664 0.0
H1142 H 0.40595 0.22891 0.13617 0.0
C1143 C 0.35177 0.24923 0.19094 0.0
C1144 C 0.39815 0.27379 0.15959 0.0
C1145 C 0.33782 0.25041 0.20839 0.0
C1146 C 0.4672 0.26066 0.09675 0.0
C1147 C 0.45303 0.26219 0.11401 0.0
C1148 C 0.40379 0.24153 0.14252 0.0
C1149 C 0.37195 0.26018 0.18741 0.0
C1150 C 0.3869 0.25888 0.16882 0.0
C1151 C 0.42992 0.25512 0.11509 0.0
C1152 C 0.4151 0.25642 0.13352 0.0
H1153 H 0.36827 0.28328 0.22986 0.0
H1154 H 0.39328 0.28082 0.19985 0.0
H1155 H 0.38212 0.23087 0.1669 0.0
H1156 H 0.42789 0.23921 0.0684 0.0
H1157 H 0.40323 0.24134 0.09896 0.0
C1158 C 0.82422 0.6828 0.68655 0.0
C1159 C 0.82371 0.69177 0.70443 0.0
C1160 C 0.83756 0.66801 0.68467 0.0
C1161 C 0.8676 0.63493 0.71523 0.0
H1162 H 0.90134 0.62661 0.66537 0.0
C1163 C 0.94283 0.58752 0.70957 0.0
C1164 C 0.94175 0.57529 0.69448 0.0
C1165 C 0.92755 0.60125 0.70999 0.0
C1166 C 0.89182 0.62872 0.67931 0.0
H1167 H 0.83718 0.69266 0.73414 0.0
H1168 H 0.86092 0.66726 0.73075 0.0
H1169 H 0.8763 0.6516 0.66769 0.0
H1170 H 0.92379 0.5682 0.66779 0.0
H1171 H 0.89755 0.59261 0.66826 0.0
H1172 H 0.88382 0.61237 0.72699 0.0
C1173 C 0.85048 0.67119 0.71836 0.0
C1174 C 0.8774 0.64298 0.68065 0.0
C1175 C 0.83695 0.68581 0.7203 0.0
C1176 C 0.92533 0.57744 0.67951 0.0
C1177 C 0.91023 0.59137 0.6798 0.0
C1178 C 0.88222 0.62085 0.71395 0.0
C1179 C 0.85087 0.66202 0.70057 0.0
C1180 C 0.8653 0.64638 0.69871 0.0
C1181 C 0.91104 0.60326 0.69518 0.0
C1182 C 0.89464 0.6177 0.69605 0.0
H1183 H 0.81401 0.68707 0.67414 0.0
H1184 H 0.83718 0.66116 0.67086 0.0
H1185 H 0.85811 0.63684 0.72922 0.0
H1186 H 0.95562 0.5866 0.72104 0.0
H1187 H 0.9288 0.61043 0.72182 0.0
C1188 C 0.86444 0.33286 0.34411 0.0
C1189 C 0.84092 0.33348 0.33858 0.0
C1190 C 0.87807 0.34814 0.34577 0.0
C1191 C 0.87417 0.39557 0.35139 0.0
H1192 H 0.93885 0.39646 0.33099 0.0
C1193 C 0.9324 0.45872 0.34144 0.0
C1194 C 0.95588 0.45766 0.34673 0.0
C1195 C 0.91791 0.44368 0.34128 0.0
C1196 C 0.92091 0.39636 0.33697 0.0
H1197 H 0.81317 0.3507 0.33081 0.0
H1198 H 0.83714 0.37739 0.33326 0.0
H1199 H 0.91438 0.37005 0.32897 0.0
H1200 H 0.98278 0.44056 0.35635 0.0
H1201 H 0.95746 0.41416 0.35623 0.0
H1202 H 0.88075 0.42201 0.35919 0.0
C1203 C 0.84496 0.36507 0.33653 0.0
C1204 C 0.90687 0.38122 0.33582 0.0
C1205 C 0.8313 0.34976 0.3349 0.0
C1206 C 0.96467 0.44153 0.35218 0.0
C1207 C 0.95024 0.42649 0.35198 0.0
C1208 C 0.88822 0.41076 0.35248 0.0
C1209 C 0.86855 0.36442 0.34187 0.0
C1210 C 0.88336 0.38062 0.34306 0.0
C1211 C 0.92676 0.42738 0.34636 0.0
C1212 C 0.91176 0.41129 0.34532 0.0
H1213 H 0.87251 0.32054 0.34682 0.0
H1214 H 0.89608 0.34718 0.35016 0.0
H1215 H 0.85622 0.39548 0.35733 0.0
H1216 H 0.92543 0.47113 0.33716 0.0
H1217 H 0.89998 0.44477 0.33671 0.0
C1218 C 0.19831 0.35162 0.73638 0.0
C1219 C 0.20609 0.3412 0.72078 0.0
C1220 C 0.18506 0.36614 0.73246 0.0
C1221 C 0.14334 0.3834 0.69869 0.0
H1222 H 0.16165 0.42837 0.71864 0.0
C1223 C 0.08868 0.44376 0.68357 0.0
C1224 C 0.08636 0.45559 0.69899 0.0
C1225 C 0.10467 0.43045 0.68478 0.0
C1226 C 0.15605 0.41587 0.71319 0.0
H1227 H 0.20615 0.33826 0.68868 0.0
H1228 H 0.18205 0.3632 0.68208 0.0
H1229 H 0.18662 0.40373 0.72393 0.0
H1230 H 0.09977 0.46289 0.72751 0.0
H1231 H 0.12639 0.43923 0.73017 0.0
H1232 H 0.11226 0.39513 0.68878 0.0
C1233 C 0.18647 0.36006 0.6973 0.0
C1234 C 0.17048 0.40181 0.71612 0.0
C1235 C 0.20013 0.34571 0.70115 0.0
C1236 C 0.10066 0.45386 0.71551 0.0
C1237 C 0.11633 0.44041 0.71686 0.0
C1238 C 0.12867 0.39737 0.69607 0.0
C1239 C 0.17889 0.3704 0.71292 0.0
C1240 C 0.16417 0.38545 0.709 0.0
C1241 C 0.11853 0.42847 0.70155 0.0
C1242 C 0.13473 0.41379 0.70342 0.0
H1243 H 0.20204 0.34841 0.75173 0.0
H1244 H 0.17914 0.37383 0.74478 0.0
H1245 H 0.13804 0.37084 0.69321 0.0
H1246 H 0.07784 0.44452 0.67069 0.0
H1247 H 0.10609 0.42171 0.67252 0.0
C1248 C 0.1969 0.66694 0.33508 0.0
C1249 C 0.20066 0.67311 0.31523 0.0
C1250 C 0.18303 0.65187 0.33953 0.0
C1251 C 0.15877 0.61237 0.31662 0.0
H1252 H 0.11411 0.61131 0.36175 0.0
C1253 C 0.10203 0.55085 0.3388 0.0
C1254 C 0.07827 0.55346 0.34346 0.0
C1255 C 0.11812 0.56499 0.33701 0.0
C1256 C 0.12644 0.61142 0.34905 0.0
H1257 H 0.19248 0.66846 0.28454 0.0
H1258 H 0.16822 0.64225 0.29228 0.0
H1259 H 0.1398 0.637 0.3549 0.0
H1260 H 0.05245 0.57247 0.3503 0.0
H1261 H 0.08046 0.59735 0.34698 0.0
H1262 H 0.1449 0.58707 0.31034 0.0
C1263 C 0.17636 0.64885 0.30439 0.0
C1264 C 0.14134 0.62607 0.34526 0.0
C1265 C 0.19025 0.66388 0.29994 0.0
C1266 C 0.0708 0.57028 0.34678 0.0
C1267 C 0.08685 0.58444 0.34497 0.0
C1268 C 0.14387 0.59775 0.3204 0.0
C1269 C 0.17258 0.64266 0.32423 0.0
C1270 C 0.15752 0.62678 0.32887 0.0
C1271 C 0.11066 0.58198 0.33982 0.0
C1272 C 0.12738 0.59716 0.33655 0.0
H1273 H 0.20494 0.67365 0.34717 0.0
H1274 H 0.1807 0.64733 0.35494 0.0
H1275 H 0.17124 0.61241 0.30402 0.0
H1276 H 0.10801 0.53789 0.33624 0.0
H1277 H 0.13638 0.56263 0.33332 0.0
C1278 C 0.76963 0.84036 0.65084 0.0
C1279 C 0.76857 0.84184 0.67167 0.0
C1280 C 0.77496 0.85495 0.63834 0.0
C1281 C 0.80243 0.89915 0.63779 0.0
H1282 H 0.76559 0.90675 0.59112 0.0
C1283 C 0.80385 0.96475 0.59349 0.0
C1284 C 0.8026 0.96425 0.57273 0.0
C1285 C 0.80147 0.94939 0.60516 0.0
C1286 C 0.77629 0.9047 0.60392 0.0
H1287 H 0.7727 0.8597 0.69571 0.0
H1288 H 0.78162 0.88518 0.67389 0.0
H1289 H 0.75792 0.88067 0.6122 0.0
H1290 H 0.79834 0.94774 0.54761 0.0
H1291 H 0.79455 0.92071 0.56792 0.0
H1292 H 0.8207 0.92325 0.62958 0.0
C1293 C 0.7785 0.87274 0.66722 0.0
C1294 C 0.77187 0.88975 0.61601 0.0
C1295 C 0.7731 0.85818 0.67971 0.0
C1296 C 0.7994 0.94827 0.56366 0.0
C1297 C 0.79705 0.9329 0.57529 0.0
C1298 C 0.80688 0.91409 0.62567 0.0
C1299 C 0.77945 0.8713 0.6464 0.0
C1300 C 0.78477 0.88687 0.63316 0.0
C1301 C 0.79777 0.93329 0.59621 0.0
C1302 C 0.79376 0.91709 0.60867 0.0
H1303 H 0.76607 0.82797 0.64419 0.0
H1304 H 0.77575 0.85339 0.62235 0.0
H1305 H 0.81291 0.89716 0.65074 0.0
H1306 H 0.80611 0.97706 0.60067 0.0
H1307 H 0.80181 0.95017 0.62123 0.0
C1308 C 0.71048 0.27043 0.20939 0.0
C1309 C 0.7044 0.2614 0.22752 0.0
C1310 C 0.69647 0.26866 0.1929 0.0
C1311 C 0.65288 0.23955 0.17092 0.0
H1312 H 0.63618 0.28097 0.14117 0.0
C1313 C 0.5839 0.23794 0.1099 0.0
C1314 C 0.58769 0.24927 0.09318 0.0
C1315 C 0.59858 0.23896 0.12608 0.0
C1316 C 0.64096 0.26924 0.14909 0.0
H1317 H 0.6786 0.24351 0.24245 0.0
H1318 H 0.65443 0.24019 0.21349 0.0
H1319 H 0.66104 0.28363 0.16971 0.0
H1320 H 0.61032 0.27008 0.0799 0.0
H1321 H 0.6363 0.27162 0.10785 0.0
H1322 H 0.6331 0.2251 0.15017 0.0
C1323 C 0.67015 0.24856 0.21209 0.0
C1324 C 0.65514 0.27079 0.1655 0.0
C1325 C 0.68405 0.25044 0.22866 0.0
C1326 C 0.60678 0.26135 0.09274 0.0
C1327 C 0.6216 0.26227 0.1088 0.0
C1328 C 0.63885 0.23797 0.15439 0.0
C1329 C 0.67618 0.25771 0.19408 0.0
C1330 C 0.66122 0.25598 0.1766 0.0
C1331 C 0.61752 0.25124 0.12579 0.0
C1332 C 0.63268 0.25281 0.14327 0.0
H1333 H 0.72626 0.27872 0.20783 0.0
H1334 H 0.7017 0.2757 0.17911 0.0
H1335 H 0.65751 0.22789 0.17909 0.0
H1336 H 0.56915 0.22862 0.11072 0.0
H1337 H 0.5947 0.23042 0.139 0.0
C1338 C 0.23418 0.17711 0.67567 0.0
C1339 C 0.2404 0.19341 0.66663 0.0
C1340 C 0.23185 0.16243 0.66409 0.0
C1341 C 0.25298 0.14433 0.61786 0.0
H1342 H 0.19665 0.11441 0.62215 0.0
C1343 C 0.23924 0.08849 0.56425 0.0
C1344 C 0.22776 0.07309 0.57171 0.0
C1345 C 0.24001 0.10326 0.57575 0.0
C1346 C 0.21267 0.12244 0.62097 0.0
H1347 H 0.2493 0.20722 0.63857 0.0
H1348 H 0.24573 0.18143 0.61835 0.0
H1349 H 0.19971 0.13986 0.64275 0.0
H1350 H 0.20812 0.06089 0.59698 0.0
H1351 H 0.2102 0.08645 0.6175 0.0
H1352 H 0.26644 0.12678 0.5967 0.0
C1353 C 0.24244 0.18007 0.63433 0.0
C1354 C 0.21433 0.13706 0.6327 0.0
C1355 C 0.24435 0.1948 0.64585 0.0
C1356 C 0.21694 0.0727 0.59086 0.0
C1357 C 0.21805 0.08738 0.60254 0.0
C1358 C 0.25151 0.12957 0.60638 0.0
C1359 C 0.23615 0.16378 0.64335 0.0
C1360 C 0.23443 0.14818 0.63115 0.0
C1361 C 0.22967 0.10286 0.59516 0.0
C1362 C 0.23127 0.11847 0.60766 0.0
H1363 H 0.23094 0.17575 0.69166 0.0
H1364 H 0.2271 0.14998 0.67138 0.0
H1365 H 0.2688 0.1526 0.6166 0.0
H1366 H 0.24744 0.08917 0.5494 0.0
H1367 H 0.2486 0.11501 0.56932 0.0
C1368 C 0.33059 0.76429 0.20072 0.0
C1369 C 0.33951 0.77073 0.21837 0.0
C1370 C 0.34427 0.76523 0.183 0.0
C1371 C 0.3966 0.78783 0.15833 0.0
H1372 H 0.39424 0.74861 0.1236 0.0
C1373 C 0.46164 0.78075 0.09097 0.0
C1374 C 0.45218 0.77461 0.07345 0.0
C1375 C 0.44771 0.7809 0.10855 0.0
C1376 C 0.39489 0.75974 0.13303 0.0
H1377 H 0.36981 0.78317 0.23129 0.0
H1378 H 0.39388 0.78465 0.20035 0.0
H1379 H 0.37055 0.74755 0.15463 0.0
H1380 H 0.42093 0.76425 0.06008 0.0
H1381 H 0.39639 0.76443 0.09088 0.0
H1382 H 0.42121 0.79991 0.13674 0.0
C1383 C 0.37614 0.77913 0.20014 0.0
C1384 C 0.3813 0.75915 0.15081 0.0
C1385 C 0.36238 0.77826 0.21788 0.0
C1386 C 0.42853 0.76889 0.07356 0.0
C1387 C 0.41461 0.76894 0.09115 0.0
C1388 C 0.41029 0.78839 0.14056 0.0
C1389 C 0.36726 0.77257 0.1825 0.0
C1390 C 0.38193 0.7732 0.16366 0.0
C1391 C 0.42409 0.77485 0.10887 0.0
C1392 C 0.40952 0.77436 0.1277 0.0
H1393 H 0.31287 0.7587 0.20056 0.0
H1394 H 0.3367 0.76037 0.16962 0.0
H1395 H 0.39725 0.79898 0.16773 0.0
H1396 H 0.47989 0.78523 0.09108 0.0
H1397 H 0.45556 0.78539 0.12199 0.0
C1398 C 0.78563 0.16392 0.36158 0.0
C1399 C 0.78188 0.1803 0.36949 0.0
C1400 C 0.7895 0.14959 0.37416 0.0
C1401 C 0.77967 0.13333 0.42612 0.0
H1402 H 0.82709 0.10056 0.4119 0.0
C1403 C 0.80318 0.07774 0.48018 0.0
C1404 C 0.80576 0.06142 0.47195 0.0
C1405 C 0.80178 0.09253 0.46777 0.0
C1406 C 0.81364 0.10952 0.41599 0.0
H1407 H 0.77906 0.19445 0.39683 0.0
H1408 H 0.78615 0.1695 0.41877 0.0
H1409 H 0.82144 0.12585 0.38998 0.0
H1410 H 0.80919 0.04744 0.44468 0.0
H1411 H 0.80658 0.07332 0.42275 0.0
H1412 H 0.7717 0.11697 0.45201 0.0
C1413 C 0.78592 0.16771 0.40284 0.0
C1414 C 0.8104 0.12399 0.40344 0.0
C1415 C 0.78211 0.18204 0.39026 0.0
C1416 C 0.80737 0.06002 0.4512 0.0
C1417 C 0.80596 0.07481 0.43874 0.0
C1418 C 0.78289 0.11886 0.43865 0.0
C1419 C 0.78964 0.15132 0.39494 0.0
C1420 C 0.79334 0.13604 0.40835 0.0
C1421 C 0.80285 0.09121 0.4469 0.0
C1422 C 0.79989 0.10677 0.43372 0.0
H1423 H 0.7858 0.1622 0.34563 0.0
H1424 H 0.79207 0.13711 0.36763 0.0
H1425 H 0.76612 0.14221 0.43018 0.0
H1426 H 0.80187 0.07897 0.49622 0.0
H1427 H 0.79974 0.10499 0.47451 0.0
C1428 C 0.34029 0.23237 0.82415 0.0
C1429 C 0.33762 0.24813 0.81338 0.0
C1430 C 0.35373 0.23185 0.84113 0.0
C1431 C 0.37226 0.25719 0.88212 0.0
H1432 H 0.42575 0.22765 0.88496 0.0
C1433 C 0.43645 0.26184 0.9462 0.0
C1434 C 0.4477 0.24683 0.95267 0.0
C1435 C 0.42266 0.26164 0.92944 0.0
C1436 C 0.41061 0.23572 0.88466 0.0
H1437 H 0.34764 0.27567 0.81209 0.0
H1438 H 0.37004 0.27477 0.8423 0.0
H1439 H 0.40215 0.22768 0.8554 0.0
H1440 H 0.45283 0.21971 0.94642 0.0
H1441 H 0.42761 0.21907 0.91817 0.0
H1442 H 0.37986 0.26481 0.91153 0.0
C1443 C 0.36174 0.26287 0.83738 0.0
C1444 C 0.39724 0.23581 0.86763 0.0
C1445 C 0.34874 0.26335 0.82016 0.0
C1446 C 0.44426 0.2315 0.94215 0.0
C1447 C 0.43008 0.23121 0.92562 0.0
C1448 C 0.38529 0.25684 0.89933 0.0
C1449 C 0.36437 0.24712 0.84796 0.0
C1450 C 0.37812 0.24666 0.86617 0.0
C1451 C 0.41927 0.24633 0.91888 0.0
C1452 C 0.40482 0.24623 0.90079 0.0
H1453 H 0.33167 0.22043 0.81973 0.0
H1454 H 0.35542 0.21957 0.8492 0.0
H1455 H 0.35739 0.26553 0.88135 0.0
H1456 H 0.43822 0.27383 0.95406 0.0
H1457 H 0.41498 0.27364 0.92464 0.0
C1458 C 0.23249 0.82042 0.38912 0.0
C1459 C 0.23768 0.82225 0.36848 0.0
C1460 C 0.22991 0.83502 0.40069 0.0
C1461 C 0.22103 0.8827 0.39686 0.0
H1462 H 0.24345 0.88119 0.45065 0.0
C1463 C 0.20826 0.93954 0.44986 0.0
C1464 C 0.22649 0.94348 0.46273 0.0
C1465 C 0.20862 0.92454 0.4387 0.0
C1466 C 0.23732 0.88195 0.43559 0.0
H1467 H 0.24386 0.84107 0.34388 0.0
H1468 H 0.24067 0.86643 0.36418 0.0
H1469 H 0.24671 0.85588 0.43034 0.0
H1470 H 0.25921 0.9344 0.47411 0.0
H1471 H 0.26047 0.90892 0.45396 0.0
H1472 H 0.21279 0.9091 0.40177 0.0
C1473 C 0.23799 0.8537 0.37139 0.0
C1474 C 0.23882 0.86727 0.42401 0.0
C1475 C 0.24024 0.8391 0.35976 0.0
C1476 C 0.24506 0.93201 0.46412 0.0
C1477 C 0.24557 0.91716 0.45279 0.0
C1478 C 0.21982 0.89747 0.40835 0.0
C1479 C 0.23279 0.85187 0.39202 0.0
C1480 C 0.23075 0.86744 0.40447 0.0
C1481 C 0.22733 0.91318 0.43995 0.0
C1482 C 0.22803 0.89732 0.42785 0.0
H1483 H 0.23069 0.80769 0.39645 0.0
H1484 H 0.22555 0.83304 0.41646 0.0
H1485 H 0.21427 0.88328 0.38201 0.0
H1486 H 0.19379 0.94813 0.4482 0.0
H1487 H 0.19409 0.9218 0.42919 0.0
C1488 C 0.66738 0.76919 0.82047 0.0
C1489 C 0.68927 0.76141 0.82121 0.0
C1490 C 0.65356 0.77095 0.83789 0.0
C1491 C 0.64504 0.75336 0.88974 0.0
H1492 H 0.60995 0.79501 0.89717 0.0
C1493 C 0.5954 0.76675 0.96388 0.0
C1494 C 0.5725 0.77255 0.96224 0.0
C1495 C 0.61027 0.766 0.94691 0.0
C1496 C 0.61953 0.78326 0.89523 0.0
H1497 H 0.71405 0.74968 0.84082 0.0
H1498 H 0.69007 0.7529 0.87125 0.0
H1499 H 0.6348 0.79248 0.86706 0.0
H1500 H 0.5471 0.78247 0.94206 0.0
H1501 H 0.57311 0.78125 0.91225 0.0
H1502 H 0.62981 0.7442 0.91796 0.0
C1503 C 0.68333 0.75733 0.85717 0.0
C1504 C 0.63372 0.78178 0.87797 0.0
C1505 C 0.6971 0.7555 0.83975 0.0
C1506 C 0.56477 0.77797 0.94355 0.0
C1507 C 0.57967 0.77732 0.92659 0.0
C1508 C 0.63094 0.75489 0.90703 0.0
C1509 C 0.66137 0.76504 0.85645 0.0
C1510 C 0.64657 0.76677 0.87497 0.0
C1511 C 0.6025 0.77118 0.92806 0.0
C1512 C 0.61796 0.76982 0.90993 0.0
H1513 H 0.66076 0.77367 0.80637 0.0
H1514 H 0.63657 0.77669 0.83674 0.0
H1515 H 0.65437 0.74151 0.88777 0.0
H1516 H 0.60166 0.76264 0.97826 0.0
H1517 H 0.62787 0.76142 0.94854 0.0
loop_
_geom_bond_atom_site_label_1
_geom_bond_atom_site_label_2
_geom_bond_distance
_geom_bond_site_symmetry_2
_ccdc_geom_bond_type
C0 C1 1.391 . S
C0 C4 1.391 . S
C0 H42 0.948 . S
C1 C0 1.391 . S
C1 C2 1.391 . S
C2 C1 1.391 . S
C2 H58 0.947 . S
C2 C59 1.392 . S
C3 C4 1.391 . S
C3 C7 1.397 . S
C3 C59 1.419 . S
C4 C0 1.391 . S
C4 C3 1.391 . S
C4 C5 1.399 . S
C5 C4 1.399 . S
C5 C8 1.396 . S
C5 C17 1.453 . S
C5 C18 1.684 . S
H6 C30 0.948 . S
C7 C3 1.397 . S
C7 C8 1.394 . S
C7 C26 1.723 . S
C8 C5 1.396 . S
C8 C7 1.394 . S
C8 C38 1.723 . S
H9 C32 0.947 . S
H10 C33 0.948 . S
H11 C39 0.982 . S
H12 C40 0.979 . S
H13 C40 0.980 . S
H14 C40 0.983 . S
H15 C39 0.979 . S
H16 C39 0.977 . S
C17 C5 1.453 . S
C17 H46 0.982 . S
C17 H47 0.979 . S
C17 H48 0.977 . S
C18 C5 1.684 . S
C18 H43 0.979 . S
C18 H44 0.980 . S
C18 H45 0.983 . S
C19 C20 1.391 . S
C19 C24 1.391 . S
C19 H49 0.948 . S
C20 C19 1.391 . S
C20 C21 1.391 . S
C21 C20 1.391 . S
C21 C22 1.392 . S
C21 H50 0.947 . S
C22 C21 1.392 . S
C22 C23 1.419 . S
C22 H51 0.948 . S
C23 C22 1.419 . S
C23 C24 1.391 . S
C23 C27 1.397 . S
C24 C19 1.391 . S
C24 C23 1.391 . S
C24 C25 1.399 . S
C25 C24 1.399 . S
C25 C26 1.396 . S
C25 C28 1.453 . S
C25 C29 1.684 . S
C26 C7 1.723 . S
C26 C25 1.396 . S
C26 C27 1.394 . S
C27 C23 1.397 . S
C27 C26 1.394 . S
C27 C37 1.723 . S
C28 C25 1.453 . S
C28 H52 0.982 . S
C28 H53 0.979 . S
C28 H54 0.977 . S
C29 C25 1.684 . S
C29 H55 0.979 . S
C29 H56 0.980 . S
C29 H57 0.983 . S
C30 H6 0.948 . S
C30 C31 1.391 . S
C30 C35 1.391 . S
C31 C30 1.391 . S
C31 C32 1.391 . S
C32 H9 0.947 . S
C32 C31 1.391 . S
C32 C33 1.392 . S
C33 H10 0.948 . S
C33 C32 1.392 . S
C33 C34 1.419 . S
C34 C33 1.419 . S
C34 C35 1.391 . S
C34 C38 1.397 . S
C35 C30 1.391 . S
C35 C34 1.391 . S
C35 C36 1.399 . S
C36 C35 1.399 . S
C36 C37 1.396 . S
C36 C39 1.453 . S
C36 C40 1.684 . S
C37 C27 1.723 . S
C37 C36 1.396 . S
C37 C38 1.394 . S
C38 C8 1.723 . S
C38 C34 1.397 . S
C38 C37 1.394 . S
C39 H11 0.982 . S
C39 H15 0.979 . S
C39 H16 0.977 . S
C39 C36 1.453 . S
C40 H12 0.979 . S
C40 H13 0.980 . S
C40 H14 0.983 . S
C40 C36 1.684 . S
H41 C59 0.948 . S
H42 C0 0.948 . S
H43 C18 0.979 . S
H44 C18 0.980 . S
H45 C18 0.983 . S
H46 C17 0.982 . S
H47 C17 0.979 . S
H48 C17 0.977 . S
H49 C19 0.948 . S
H50 C21 0.947 . S
H51 C22 0.948 . S
H52 C28 0.982 . S
H53 C28 0.979 . S
H54 C28 0.977 . S
H55 C29 0.979 . S
H56 C29 0.980 . S
H57 C29 0.983 . S
H58 C2 0.947 . S
C59 C2 1.392 . S
C59 C3 1.419 . S
C59 H41 0.948 . S
C60 C61 1.391 . S
C60 C64 1.391 . S
C60 H102 0.948 . S
C61 C60 1.391 . S
C61 C62 1.391 . S
C62 C61 1.391 . S
C62 H118 0.947 . S
C62 C119 1.392 . S
C63 C64 1.391 . S
C63 C67 1.397 . S
C63 C119 1.419 . S
C64 C60 1.391 . S
C64 C63 1.391 . S
C64 C65 1.399 . S
C65 C64 1.399 . S
C65 C68 1.396 . S
C65 C77 1.453 . S
C65 C78 1.684 . S
H66 C90 0.948 . S
C67 C63 1.397 . S
C67 C68 1.394 . S
C67 C86 1.723 . S
C68 C65 1.396 . S
C68 C67 1.394 . S
C68 C98 1.723 . S
H69 C92 0.947 . S
H70 C93 0.948 . S
H71 C99 0.982 . S
H72 C100 0.979 . S
H73 C100 0.980 . S
H74 C100 0.983 . S
H75 C99 0.979 . S
H76 C99 0.977 . S
C77 C65 1.453 . S
C77 H106 0.982 . S
C77 H107 0.979 . S
C77 H108 0.977 . S
C78 C65 1.684 . S
C78 H103 0.979 . S
C78 H104 0.980 . S
C78 H105 0.983 . S
C79 C80 1.391 . S
C79 C84 1.391 . S
C79 H109 0.948 . S
C80 C79 1.391 . S
C80 C81 1.391 . S
C81 C80 1.391 . S
C81 C82 1.392 . S
C81 H110 0.947 . S
C82 C81 1.392 . S
C82 C83 1.419 . S
C82 H111 0.948 . S
C83 C82 1.419 . S
C83 C84 1.391 . S
C83 C87 1.397 . S
C84 C79 1.391 . S
C84 C83 1.391 . S
C84 C85 1.399 . S
C85 C84 1.399 . S
C85 C86 1.396 . S
C85 C88 1.453 . S
C85 C89 1.684 . S
C86 C67 1.723 . S
C86 C85 1.396 . S
C86 C87 1.394 . S
C87 C83 1.397 . S
C87 C86 1.394 . S
C87 C97 1.723 . S
C88 C85 1.453 . S
C88 H112 0.982 . S
C88 H113 0.979 . S
C88 H114 0.977 . S
C89 C85 1.684 . S
C89 H115 0.979 . S
C89 H116 0.980 . S
C89 H117 0.983 . S
C90 H66 0.948 . S
C90 C91 1.391 . S
C90 C95 1.391 . S
C91 C90 1.391 . S
C91 C92 1.391 . S
C92 H69 0.947 . S
C92 C91 1.391 . S
C92 C93 1.392 . S
C93 H70 0.948 . S
C93 C92 1.392 . S
C93 C94 1.419 . S
C94 C93 1.419 . S
C94 C95 1.391 . S
C94 C98 1.397 . S
C95 C90 1.391 . S
C95 C94 1.391 . S
C95 C96 1.399 . S
C96 C95 1.399 . S
C96 C97 1.396 . S
C96 C99 1.453 . S
C96 C100 1.684 . S
C97 C87 1.723 . S
C97 C96 1.396 . S
C97 C98 1.394 . S
C98 C68 1.723 . S
C98 C94 1.397 . S
C98 C97 1.394 . S
C99 H71 0.982 . S
C99 H75 0.979 . S
C99 H76 0.977 . S
C99 C96 1.453 . S
C100 H72 0.979 . S
C100 H73 0.980 . S
C100 H74 0.983 . S
C100 C96 1.684 . S
H101 C119 0.948 . S
H102 C60 0.948 . S
H103 C78 0.979 . S
H104 C78 0.980 . S
H105 C78 0.983 . S
H106 C77 0.982 . S
H107 C77 0.979 . S
H108 C77 0.977 . S
H109 C79 0.948 . S
H110 C81 0.947 . S
H111 C82 0.948 . S
H112 C88 0.982 . S
H113 C88 0.979 . S
H114 C88 0.977 . S
H115 C89 0.979 . S
H116 C89 0.980 . S
H117 C89 0.983 . S
H118 C62 0.947 . S
C119 C62 1.392 . S
C119 C63 1.419 . S
C119 H101 0.948 . S
C120 C121 1.391 . S
C120 C124 1.391 . S
C120 H162 0.948 . S
C121 C120 1.391 . S
C121 C122 1.391 . S
C122 C121 1.391 . S
C122 H178 0.947 . S
C122 C179 1.392 . S
C123 C124 1.391 . S
C123 C127 1.397 . S
C123 C179 1.419 . S
C124 C120 1.391 . S
C124 C123 1.391 . S
C124 C125 1.399 . S
C125 C124 1.399 . S
C125 C128 1.396 . S
C125 C137 1.453 . S
C125 C138 1.684 . S
H126 C150 0.948 . S
C127 C123 1.397 . S
C127 C128 1.394 . S
C127 C146 1.723 . S
C128 C125 1.396 . S
C128 C127 1.394 . S
C128 C158 1.723 . S
H129 C152 0.947 . S
H130 C153 0.948 . S
H131 C159 0.982 . S
H132 C160 0.979 . S
H133 C160 0.980 . S
H134 C160 0.983 . S
H135 C159 0.979 . S
H136 C159 0.977 . S
C137 C125 1.453 . S
C137 H166 0.982 . S
C137 H167 0.979 . S
C137 H168 0.977 . S
C138 C125 1.684 . S
C138 H163 0.979 . S
C138 H164 0.980 . S
C138 H165 0.983 . S
C139 C140 1.391 . S
C139 C144 1.391 . S
C139 H169 0.948 . S
C140 C139 1.391 . S
C140 C141 1.391 . S
C141 C140 1.391 . S
C141 C142 1.392 . S
C141 H170 0.947 . S
C142 C141 1.392 . S
C142 C143 1.419 . S
C142 H171 0.948 . S
C143 C142 1.419 . S
C143 C144 1.391 . S
C143 C147 1.397 . S
C144 C139 1.391 . S
C144 C143 1.391 . S
C144 C145 1.399 . S
C145 C144 1.399 . S
C145 C146 1.396 . S
C145 C148 1.453 . S
C145 C149 1.684 . S
C146 C127 1.723 . S
C146 C145 1.396 . S
C146 C147 1.394 . S
C147 C143 1.397 . S
C147 C146 1.394 . S
C147 C157 1.723 . S
C148 C145 1.453 . S
C148 H172 0.982 . S
C148 H173 0.979 . S
C148 H174 0.977 . S
C149 C145 1.684 . S
C149 H175 0.979 . S
C149 H176 0.980 . S
C149 H177 0.983 . S
C150 H126 0.948 . S
C150 C151 1.391 . S
C150 C155 1.391 . S
C151 C150 1.391 . S
C151 C152 1.391 . S
C152 H129 0.947 . S
C152 C151 1.391 . S
C152 C153 1.392 . S
C153 H130 0.948 . S
C153 C152 1.392 . S
C153 C154 1.419 . S
C154 C153 1.419 . S
C154 C155 1.391 . S
C154 C158 1.397 . S
C155 C150 1.391 . S
C155 C154 1.391 . S
C155 C156 1.399 . S
C156 C155 1.399 . S
C156 C157 1.396 . S
C156 C159 1.453 . S
C156 C160 1.684 . S
C157 C147 1.723 . S
C157 C156 1.396 . S
C157 C158 1.394 . S
C158 C128 1.723 . S
C158 C154 1.397 . S
C158 C157 1.394 . S
C159 H131 0.982 . S
C159 H135 0.979 . S
C159 H136 0.977 . S
C159 C156 1.453 . S
C160 H132 0.979 . S
C160 H133 0.980 . S
C160 H134 0.983 . S
C160 C156 1.684 . S
H161 C179 0.948 . S
H162 C120 0.948 . S
H163 C138 0.979 . S
H164 C138 0.980 . S
H165 C138 0.983 . S
H166 C137 0.982 . S
H167 C137 0.979 . S
H168 C137 0.977 . S
H169 C139 0.948 . S
H170 C141 0.947 . S
H171 C142 0.948 . S
H172 C148 0.982 . S
H173 C148 0.979 . S
H174 C148 0.977 . S
H175 C149 0.979 . S
H176 C149 0.980 . S
H177 C149 0.983 . S
H178 C122 0.947 . S
C179 C122 1.392 . S
C179 C123 1.419 . S
C179 H161 0.948 . S
C180 C181 1.391 . S
C180 C184 1.391 . S
C180 H222 0.948 . S
C181 C180 1.391 . S
C181 C182 1.391 . S
C182 C181 1.391 . S
C182 H238 0.947 . S
C182 C239 1.392 . S
C183 C184 1.391 . S
C183 C187 1.397 . S
C183 C239 1.419 . S
C184 C180 1.391 . S
C184 C183 1.391 . S
C184 C185 1.399 . S
C185 C184 1.399 . S
C185 C188 1.396 . S
C185 C197 1.453 . S
C185 C198 1.684 . S
H186 C210 0.948 . S
C187 C183 1.397 . S
C187 C188 1.394 . S
C187 C206 1.723 . S
C188 C185 1.396 . S
C188 C187 1.394 . S
C188 C218 1.723 . S
H189 C212 0.947 . S
H190 C213 0.948 . S
H191 C219 0.982 . S
H192 C220 0.979 . S
H193 C220 0.980 . S
H194 C220 0.983 . S
H195 C219 0.979 . S
H196 C219 0.977 . S
C197 C185 1.453 . S
C197 H226 0.982 . S
C197 H227 0.979 . S
C197 H228 0.977 . S
C198 C185 1.684 . S
C198 H223 0.979 . S
C198 H224 0.980 . S
C198 H225 0.983 . S
C199 C200 1.391 . S
C199 C204 1.391 . S
C199 H229 0.948 . S
C200 C199 1.391 . S
C200 C201 1.391 . S
C201 C200 1.391 . S
C201 C202 1.392 . S
C201 H230 0.947 . S
C202 C201 1.392 . S
C202 C203 1.419 . S
C202 H231 0.948 . S
C203 C202 1.419 . S
C203 C204 1.391 . S
C203 C207 1.397 . S
C204 C199 1.391 . S
C204 C203 1.391 . S
C204 C205 1.399 . S
C205 C204 1.399 . S
C205 C206 1.396 . S
C205 C208 1.453 . S
C205 C209 1.684 . S
C206 C187 1.723 . S
C206 C205 1.396 . S
C206 C207 1.394 . S
C207 C203 1.397 . S
C207 C206 1.394 . S
C207 C217 1.723 . S
C208 C205 1.453 . S
C208 H232 0.982 . S
C208 H233 0.979 . S
C208 H234 0.977 . S
C209 C205 1.684 . S
C209 H235 0.979 . S
C209 H236 0.980 . S
C209 H237 0.983 . S
C210 H186 0.948 . S
C210 C211 1.391 . S
C210 C215 1.391 . S
C211 C210 1.391 . S
C211 C212 1.391 . S
C212 H189 0.947 . S
C212 C211 1.391 . S
C212 C213 1.392 . S
C213 H190 0.948 . S
C213 C212 1.392 . S
C213 C214 1.419 . S
C214 C213 1.419 . S
C214 C215 1.391 . S
C214 C218 1.397 . S
C215 C210 1.391 . S
C215 C214 1.391 . S
C215 C216 1.399 . S
C216 C215 1.399 . S
C216 C217 1.396 . S
C216 C219 1.453 . S
C216 C220 1.684 . S
C217 C207 1.723 . S
C217 C216 1.396 . S
C217 C218 1.394 . S
C218 C188 1.723 . S
C218 C214 1.397 . S
C218 C217 1.394 . S
C219 H191 0.982 . S
C219 H195 0.979 . S
C219 H196 0.977 . S
C219 C216 1.453 . S
C220 H192 0.979 . S
C220 H193 0.980 . S
C220 H194 0.983 . S
C220 C216 1.684 . S
H221 C239 0.948 . S
H222 C180 0.948 . S
H223 C198 0.979 . S
H224 C198 0.980 . S
H225 C198 0.983 . S
H226 C197 0.982 . S
H227 C197 0.979 . S
H228 C197 0.977 . S
H229 C199 0.948 . S
H230 C201 0.947 . S
H231 C202 0.948 . S
H232 C208 0.982 . S
H233 C208 0.979 . S
H234 C208 0.977 . S
H235 C209 0.979 . S
H236 C209 0.980 . S
H237 C209 0.983 . S
H238 C182 0.947 . S
C239 C182 1.392 . S
C239 C183 1.419 . S
C239 H221 0.948 . S
C240 C241 1.391 . S
C240 C244 1.391 . S
C240 H282 0.948 . S
C241 C240 1.391 . S
C241 C242 1.391 . S
C242 C241 1.391 . S
C242 H298 0.947 . S
C242 C299 1.392 . S
C243 C244 1.391 . S
C243 C247 1.397 . S
C243 C299 1.419 . S
C244 C240 1.391 . S
C244 C243 1.391 . S
C244 C245 1.399 . S
C245 C244 1.399 . S
C245 C248 1.396 . S
C245 C257 1.453 . S
C245 C258 1.684 . S
H246 C270 0.948 . S
C247 C243 1.397 . S
C247 C248 1.394 . S
C247 C266 1.723 . S
C248 C245 1.396 . S
C248 C247 1.394 . S
C248 C278 1.723 . S
H249 C272 0.947 . S
H250 C273 0.948 . S
H251 C279 0.982 . S
H252 C280 0.979 . S
H253 C280 0.980 . S
H254 C280 0.983 . S
H255 C279 0.979 . S
H256 C279 0.977 . S
C257 C245 1.453 . S
C257 H286 0.982 . S
C257 H287 0.979 . S
C257 H288 0.977 . S
C258 C245 1.684 . S
C258 H283 0.979 . S
C258 H284 0.980 . S
C258 H285 0.983 . S
C259 C260 1.391 . S
C259 C264 1.391 . S
C259 H289 0.948 . S
C260 C259 1.391 . S
C260 C261 1.391 . S
C261 C260 1.391 . S
C261 C262 1.392 . S
C261 H290 0.947 . S
C262 C261 1.392 . S
C262 C263 1.419 . S
C262 H291 0.948 . S
C263 C262 1.419 . S
C263 C264 1.391 . S
C263 C267 1.397 . S
C264 C259 1.391 . S
C264 C263 1.391 . S
C264 C265 1.399 . S
C265 C264 1.399 . S
C265 C266 1.396 . S
C265 C268 1.453 . S
C265 C269 1.684 . S
C266 C247 1.723 . S
C266 C265 1.396 . S
C266 C267 1.394 . S
C267 C263 1.397 . S
C267 C266 1.394 . S
C267 C277 1.723 . S
C268 C265 1.453 . S
C268 H292 0.982 . S
C268 H293 0.979 . S
C268 H294 0.977 . S
C269 C265 1.684 . S
C269 H295 0.979 . S
C269 H296 0.980 . S
C269 H297 0.983 . S
C270 H246 0.948 . S
C270 C271 1.391 . S
C270 C275 1.391 . S
C271 C270 1.391 . S
C271 C272 1.391 . S
C272 H249 0.947 . S
C272 C271 1.391 . S
C272 C273 1.392 . S
C273 H250 0.948 . S
C273 C272 1.392 . S
C273 C274 1.419 . S
C274 C273 1.419 . S
C274 C275 1.391 . S
C274 C278 1.397 . S
C275 C270 1.391 . S
C275 C274 1.391 . S
C275 C276 1.399 . S
C276 C275 1.399 . S
C276 C277 1.396 . S
C276 C279 1.453 . S
C276 C280 1.684 . S
C277 C267 1.723 . S
C277 C276 1.396 . S
C277 C278 1.394 . S
C278 C248 1.723 . S
C278 C274 1.397 . S
C278 C277 1.394 . S
C279 H251 0.982 . S
C279 H255 0.979 . S
C279 H256 0.977 . S
C279 C276 1.453 . S
C280 H252 0.979 . S
C280 H253 0.980 . S
C280 H254 0.983 . S
C280 C276 1.684 . S
H281 C299 0.948 . S
H282 C240 0.948 . S
H283 C258 0.979 . S
H284 C258 0.980 . S
H285 C258 0.983 . S
H286 C257 0.982 . S
H287 C257 0.979 . S
H288 C257 0.977 . S
H289 C259 0.948 . S
H290 C261 0.947 . S
H291 C262 0.948 . S
H292 C268 0.982 . S
H293 C268 0.979 . S
H294 C268 0.977 . S
H295 C269 0.979 . S
H296 C269 0.980 . S
H297 C269 0.983 . S
H298 C242 0.947 . S
C299 C242 1.392 . S
C299 C243 1.419 . S
C299 H281 0.948 . S
C300 C301 1.391 . S
C300 C304 1.391 . S
C300 H342 0.948 . S
C301 C300 1.391 . S
C301 C302 1.391 . S
C302 C301 1.391 . S
C302 H358 0.947 . S
C302 C359 1.392 . S
C303 C304 1.391 . S
C303 C307 1.397 . S
C303 C359 1.419 . S
C304 C300 1.391 . S
C304 C303 1.391 . S
C304 C305 1.399 . S
C305 C304 1.399 . S
C305 C308 1.396 . S
C305 C317 1.453 . S
C305 C318 1.684 . S
H306 C330 0.948 . S
C307 C303 1.397 . S
C307 C308 1.394 . S
C307 C326 1.723 . S
C308 C305 1.396 . S
C308 C307 1.394 . S
C308 C338 1.723 . S
H309 C332 0.947 . S
H310 C333 0.948 . S
H311 C339 0.982 . S
H312 C340 0.979 . S
H313 C340 0.980 . S
H314 C340 0.983 . S
H315 C339 0.979 . S
H316 C339 0.977 . S
C317 C305 1.453 . S
C317 H346 0.982 . S
C317 H347 0.979 . S
C317 H348 0.977 . S
C318 C305 1.684 . S
C318 H343 0.979 . S
C318 H344 0.980 . S
C318 H345 0.983 . S
C319 C320 1.391 . S
C319 C324 1.391 . S
C319 H349 0.948 . S
C320 C319 1.391 . S
C320 C321 1.391 . S
C321 C320 1.391 . S
C321 C322 1.392 . S
C321 H350 0.947 . S
C322 C321 1.392 . S
C322 C323 1.419 . S
C322 H351 0.948 . S
C323 C322 1.419 . S
C323 C324 1.391 . S
C323 C327 1.397 . S
C324 C319 1.391 . S
C324 C323 1.391 . S
C324 C325 1.399 . S
C325 C324 1.399 . S
C325 C326 1.396 . S
C325 C328 1.453 . S
C325 C329 1.684 . S
C326 C307 1.723 . S
C326 C325 1.396 . S
C326 C327 1.394 . S
C327 C323 1.397 . S
C327 C326 1.394 . S
C327 C337 1.723 . S
C328 C325 1.453 . S
C328 H352 0.982 . S
C328 H353 0.979 . S
C328 H354 0.977 . S
C329 C325 1.684 . S
C329 H355 0.979 . S
C329 H356 0.980 . S
C329 H357 0.983 . S
C330 H306 0.948 . S
C330 C331 1.391 . S
C330 C335 1.391 . S
C331 C330 1.391 . S
C331 C332 1.391 . S
C332 H309 0.947 . S
C332 C331 1.391 . S
C332 C333 1.392 . S
C333 H310 0.948 . S
C333 C332 1.392 . S
C333 C334 1.419 . S
C334 C333 1.419 . S
C334 C335 1.391 . S
C334 C338 1.397 . S
C335 C330 1.391 . S
C335 C334 1.391 . S
C335 C336 1.399 . S
C336 C335 1.399 . S
C336 C337 1.396 . S
C336 C339 1.453 . S
C336 C340 1.684 . S
C337 C327 1.723 . S
C337 C336 1.396 . S
C337 C338 1.394 . S
C338 C308 1.723 . S
C338 C334 1.397 . S
C338 C337 1.394 . S
C339 H311 0.982 . S
C339 H315 0.979 . S
C339 H316 0.977 . S
C339 C336 1.453 . S
C340 H312 0.979 . S
C340 H313 0.980 . S
C340 H314 0.983 . S
C340 C336 1.684 . S
H341 C359 0.948 . S
H342 C300 0.948 . S
H343 C318 0.979 . S
H344 C318 0.980 . S
H345 C318 0.983 . S
H346 C317 0.982 . S
H347 C317 0.979 . S
H348 C317 0.977 . S
H349 C319 0.948 . S
H350 C321 0.947 . S
H351 C322 0.948 . S
H352 C328 0.982 . S
H353 C328 0.979 . S
H354 C328 0.977 . S
H355 C329 0.979 . S
H356 C329 0.980 . S
H357 C329 0.983 . S
H358 C302 0.947 . S
C359 C302 1.392 . S
C359 C303 1.419 . S
C359 H341 0.948 . S
C360 C361 1.391 . S
C360 C364 1.391 . S
C360 H402 0.948 . S
C361 C360 1.391 . S
C361 C362 1.391 . S
C362 C361 1.391 . S
C362 H418 0.947 . S
C362 C419 1.392 . S
C363 C364 1.391 . S
C363 C367 1.397 . S
C363 C419 1.419 . S
C364 C360 1.391 . S
C364 C363 1.391 . S
C364 C365 1.399 . S
C365 C364 1.399 . S
C365 C368 1.396 . S
C365 C377 1.453 . S
C365 C378 1.684 . S
H366 C390 0.948 . S
C367 C363 1.397 . S
C367 C368 1.394 . S
C367 C386 1.723 . S
C368 C365 1.396 . S
C368 C367 1.394 . S
C368 C398 1.723 . S
H369 C392 0.947 . S
H370 C393 0.948 . S
H371 C399 0.982 . S
H372 C400 0.979 . S
H373 C400 0.980 . S
H374 C400 0.983 . S
H375 C399 0.979 . S
H376 C399 0.977 . S
C377 C365 1.453 . S
C377 H406 0.982 . S
C377 H407 0.979 . S
C377 H408 0.977 . S
C378 C365 1.684 . S
C378 H403 0.979 . S
C378 H404 0.980 . S
C378 H405 0.983 . S
C379 C380 1.391 . S
C379 C384 1.391 . S
C379 H409 0.948 . S
C380 C379 1.391 . S
C380 C381 1.391 . S
C381 C380 1.391 . S
C381 C382 1.392 . S
C381 H410 0.947 . S
C382 C381 1.392 . S
C382 C383 1.419 . S
C382 H411 0.948 . S
C383 C382 1.419 . S
C383 C384 1.391 . S
C383 C387 1.397 . S
C384 C379 1.391 . S
C384 C383 1.391 . S
C384 C385 1.399 . S
C385 C384 1.399 . S
C385 C386 1.396 . S
C385 C388 1.453 . S
C385 C389 1.684 . S
C386 C367 1.723 . S
C386 C385 1.396 . S
C386 C387 1.394 . S
C387 C383 1.397 . S
C387 C386 1.394 . S
C387 C397 1.723 . S
C388 C385 1.453 . S
C388 H412 0.982 . S
C388 H413 0.979 . S
C388 H414 0.977 . S
C389 C385 1.684 . S
C389 H415 0.979 . S
C389 H416 0.980 . S
C389 H417 0.983 . S
C390 H366 0.948 . S
C390 C391 1.391 . S
C390 C395 1.391 . S
C391 C390 1.391 . S
C391 C392 1.391 . S
C392 H369 0.947 . S
C392 C391 1.391 . S
C392 C393 1.392 . S
C393 H370 0.948 . S
C393 C392 1.392 . S
C393 C394 1.419 . S
C394 C393 1.419 . S
C394 C395 1.391 . S
C394 C398 1.397 . S
C395 C390 1.391 . S
C395 C394 1.391 . S
C395 C396 1.399 . S
C396 C395 1.399 . S
C396 C397 1.396 . S
C396 C399 1.453 . S
C396 C400 1.684 . S
C397 C387 1.723 . S
C397 C396 1.396 . S
C397 C398 1.394 . S
C398 C368 1.723 . S
C398 C394 1.397 . S
C398 C397 1.394 . S
C399 H371 0.982 . S
C399 H375 0.979 . S
C399 H376 0.977 . S
C399 C396 1.453 . S
C400 H372 0.979 . S
C400 H373 0.980 . S
C400 H374 0.983 . S
C400 C396 1.684 . S
H401 C419 0.948 . S
H402 C360 0.948 . S
H403 C378 0.979 . S
H404 C378 0.980 . S
H405 C378 0.983 . S
H406 C377 0.982 . S
H407 C377 0.979 . S
H408 C377 0.977 . S
H409 C379 0.948 . S
H410 C381 0.947 . S
H411 C382 0.948 . S
H412 C388 0.982 . S
H413 C388 0.979 . S
H414 C388 0.977 . S
H415 C389 0.979 . S
H416 C389 0.980 . S
H417 C389 0.983 . S
H418 C362 0.947 . S
C419 C362 1.392 . S
C419 C363 1.419 . S
C419 H401 0.948 . S
C420 C421 1.391 . S
C420 C424 1.391 . S
C420 H462 0.948 . S
C421 C420 1.391 . S
C421 C422 1.391 . S
C422 C421 1.391 . S
C422 H478 0.947 . S
C422 C479 1.392 . S
C423 C424 1.391 . S
C423 C427 1.397 . S
C423 C479 1.419 . S
C424 C420 1.391 . S
C424 C423 1.391 . S
C424 C425 1.399 . S
C425 C424 1.399 . S
C425 C428 1.396 . S
C425 C437 1.453 . S
C425 C438 1.684 . S
H426 C450 0.948 . S
C427 C423 1.397 . S
C427 C428 1.394 . S
C427 C446 1.723 . S
C428 C425 1.396 . S
C428 C427 1.394 . S
C428 C458 1.723 . S
H429 C452 0.947 . S
H430 C453 0.948 . S
H431 C459 0.982 . S
H432 C460 0.979 . S
H433 C460 0.980 . S
H434 C460 0.983 . S
H435 C459 0.979 . S
H436 C459 0.977 . S
C437 C425 1.453 . S
C437 H466 0.982 . S
C437 H467 0.979 . S
C437 H468 0.977 . S
C438 C425 1.684 . S
C438 H463 0.979 . S
C438 H464 0.980 . S
C438 H465 0.983 . S
C439 C440 1.391 . S
C439 C444 1.391 . S
C439 H469 0.948 . S
C440 C439 1.391 . S
C440 C441 1.391 . S
C441 C440 1.391 . S
C441 C442 1.392 . S
C441 H470 0.947 . S
C442 C441 1.392 . S
C442 C443 1.419 . S
C442 H471 0.948 . S
C443 C442 1.419 . S
C443 C444 1.391 . S
C443 C447 1.397 . S
C444 C439 1.391 . S
C444 C443 1.391 . S
C444 C445 1.399 . S
C445 C444 1.399 . S
C445 C446 1.396 . S
C445 C448 1.453 . S
C445 C449 1.684 . S
C446 C427 1.723 . S
C446 C445 1.396 . S
C446 C447 1.394 . S
C447 C443 1.397 . S
C447 C446 1.394 . S
C447 C457 1.723 . S
C448 C445 1.453 . S
C448 H472 0.982 . S
C448 H473 0.979 . S
C448 H474 0.977 . S
C449 C445 1.684 . S
C449 H475 0.979 . S
C449 H476 0.980 . S
C449 H477 0.983 . S
C450 H426 0.948 . S
C450 C451 1.391 . S
C450 C455 1.391 . S
C451 C450 1.391 . S
C451 C452 1.391 . S
C452 H429 0.947 . S
C452 C451 1.391 . S
C452 C453 1.392 . S
C453 H430 0.948 . S
C453 C452 1.392 . S
C453 C454 1.419 . S
C454 C453 1.419 . S
C454 C455 1.391 . S
C454 C458 1.397 . S
C455 C450 1.391 . S
C455 C454 1.391 . S
C455 C456 1.399 . S
C456 C455 1.399 . S
C456 C457 1.396 . S
C456 C459 1.453 . S
C456 C460 1.684 . S
C457 C447 1.723 . S
C457 C456 1.396 . S
C457 C458 1.394 . S
C458 C428 1.723 . S
C458 C454 1.397 . S
C458 C457 1.394 . S
C459 H431 0.982 . S
C459 H435 0.979 . S
C459 H436 0.977 . S
C459 C456 1.453 . S
C460 H432 0.979 . S
C460 H433 0.980 . S
C460 H434 0.983 . S
C460 C456 1.684 . S
H461 C479 0.948 . S
H462 C420 0.948 . S
H463 C438 0.979 . S
H464 C438 0.980 . S
H465 C438 0.983 . S
H466 C437 0.982 . S
H467 C437 0.979 . S
H468 C437 0.977 . S
H469 C439 0.948 . S
H470 C441 0.947 . S
H471 C442 0.948 . S
H472 C448 0.982 . S
H473 C448 0.979 . S
H474 C448 0.977 . S
H475 C449 0.979 . S
H476 C449 0.980 . S
H477 C449 0.983 . S
H478 C422 0.947 . S
C479 C422 1.392 . S
C479 C423 1.419 . S
C479 H461 0.948 . S
C480 C481 1.443 . S
C480 N484 1.376 . S
C480 C518 1.389 . S
C481 C480 1.443 . S
C481 C482 1.340 . S
C481 H521 0.951 . S
C482 C481 1.340 . S
C482 C483 1.439 . S
C482 H522 0.950 . S
C483 C482 1.439 . S
C483 N484 1.374 . S
C483 C517 1.395 . S
N484 C480 1.376 . S
N484 C483 1.374 . S
N484 Co485 2.008 . S
Co485 N484 2.008 . S
Co485 N486 1.982 1_455 S
Co485 N491 2.008 . S
Co485 N496 1.995 . S
Co485 N501 2.282 . S
Co485 N507 2.282 1_455 S
N486 Co485 1.982 1_655 S
N486 C487 1.376 . S
N486 C490 1.398 . S
C487 N486 1.376 . S
C487 C488 1.463 . S
C487 C517 1.375 1_655 S
C488 C487 1.463 . S
C488 C489 1.339 . S
C488 H523 0.949 . S
C489 C488 1.339 . S
C489 C490 1.439 . S
C489 H524 0.950 . S
C490 N486 1.398 . S
C490 C489 1.439 . S
C490 C519 1.392 . S
N491 Co485 2.008 . S
N491 C492 1.376 1_455 S
N491 C495 1.374 . S
C492 N491 1.376 1_655 S
C492 C493 1.443 . S
C492 C519 1.389 . S
C493 C492 1.443 . S
C493 C494 1.340 . S
C493 H525 0.951 . S
C494 C493 1.340 . S
C494 C495 1.439 1_655 S
C494 H526 0.950 . S
C495 N491 1.374 . S
C495 C494 1.439 1_455 S
C495 C520 1.395 . S
N496 Co485 1.995 . S
N496 C497 1.376 . S
N496 C500 1.383 . S
C497 N496 1.376 . S
C497 C498 1.446 . S
C497 C520 1.391 . S
C498 C497 1.446 . S
C498 C499 1.339 . S
C498 H527 0.949 . S
C499 C498 1.339 . S
C499 C500 1.439 . S
C499 H528 0.950 . S
C500 N496 1.383 . S
C500 C499 1.439 . S
C500 C518 1.392 . S
N501 Co485 2.282 . S
N501 C504 1.332 . S
N501 C506 1.332 . S
C502 C503 1.386 . S
C502 C505 1.388 . S
C503 C502 1.386 . S
C503 C504 1.382 . S
C503 H529 0.950 . S
C504 N501 1.332 . S
C504 C503 1.382 . S
C504 H515 0.952 . S
C505 C502 1.388 . S
C505 C506 1.382 . S
C505 H530 0.950 . S
C506 N501 1.332 . S
C506 C505 1.382 . S
C506 H516 0.948 . S
N507 Co485 2.282 1_655 S
N507 C511 1.332 . S
N507 C512 1.332 . S
C508 C509 1.388 . S
C508 C512 1.382 . S
C508 H531 0.950 . S
C509 C508 1.388 . S
C509 C510 1.386 . S
C510 C509 1.386 . S
C510 C511 1.382 . S
C510 H532 0.950 . S
C511 N507 1.332 . S
C511 C510 1.382 . S
C511 H513 0.952 . S
C512 N507 1.332 . S
C512 C508 1.382 . S
C512 H514 0.948 . S
H513 C511 0.952 . S
H514 C512 0.948 . S
H515 C504 0.952 . S
H516 C506 0.948 . S
C517 C483 1.395 . S
C517 C487 1.375 1_455 S
C518 C480 1.389 . S
C518 C500 1.392 . S
C519 C490 1.392 . S
C519 C492 1.389 . S
C520 C495 1.395 . S
C520 C497 1.391 . S
H521 C481 0.951 . S
H522 C482 0.950 . S
H523 C488 0.949 . S
H524 C489 0.950 . S
H525 C493 0.951 . S
H526 C494 0.950 . S
H527 C498 0.949 . S
H528 C499 0.950 . S
H529 C503 0.950 . S
H530 C505 0.950 . S
H531 C508 0.950 . S
H532 C510 0.950 . S
C533 C534 1.443 . S
C533 N537 1.376 . S
C533 C571 1.389 . S
C534 C533 1.443 . S
C534 C535 1.340 . S
C534 H574 0.951 . S
C535 C534 1.340 . S
C535 C536 1.439 . S
C535 H575 0.950 . S
C536 C535 1.439 . S
C536 N537 1.374 . S
C536 C570 1.395 . S
N537 C533 1.376 . S
N537 C536 1.374 . S
N537 Co538 2.008 . S
Co538 N537 2.008 . S
Co538 N539 1.995 1_455 S
Co538 N544 2.008 1_455 S
Co538 N549 1.995 . S
Co538 N554 2.282 . S
Co538 N560 2.282 1_455 S
N539 Co538 1.995 1_655 S
N539 C540 1.376 . S
N539 C543 1.383 . S
C540 N539 1.376 . S
C540 C541 1.446 . S
C540 C570 1.391 1_655 S
C541 C540 1.446 . S
C541 C542 1.339 . S
C541 H576 0.949 . S
C542 C541 1.339 . S
C542 C543 1.439 . S
C542 H577 0.950 . S
C543 N539 1.383 . S
C543 C542 1.439 . S
C543 C572 1.392 . S
N544 Co538 2.008 1_655 S
N544 C545 1.376 . S
N544 C548 1.374 1_655 S
C545 N544 1.376 . S
C545 C546 1.443 . S
C545 C572 1.389 . S
C546 C545 1.443 . S
C546 C547 1.340 . S
C546 H578 0.951 . S
C547 C546 1.340 . S
C547 C548 1.439 1_655 S
C547 H579 0.950 . S
C548 N544 1.374 1_455 S
C548 C547 1.439 1_455 S
C548 C573 1.395 . S
N549 Co538 1.995 . S
N549 C550 1.376 . S
N549 C553 1.383 . S
C550 N549 1.376 . S
C550 C551 1.446 . S
C550 C573 1.391 . S
C551 C550 1.446 . S
C551 C552 1.339 . S
C551 H580 0.949 . S
C552 C551 1.339 . S
C552 C553 1.439 . S
C552 H581 0.950 . S
C553 N549 1.383 . S
C553 C552 1.439 . S
C553 C571 1.392 . S
N554 Co538 2.282 . S
N554 C557 1.332 . S
N554 C559 1.332 . S
C555 C556 1.386 . S
C555 C558 1.388 . S
C556 C555 1.386 . S
C556 C557 1.382 . S
C556 H582 0.950 . S
C557 N554 1.332 . S
C557 C556 1.382 . S
C557 H568 0.952 . S
C558 C555 1.388 . S
C558 C559 1.382 . S
C558 H583 0.950 . S
C559 N554 1.332 . S
C559 C558 1.382 . S
C559 H569 0.948 . S
N560 Co538 2.282 1_655 S
N560 C564 1.332 . S
N560 C565 1.332 . S
C561 C562 1.388 . S
C561 C565 1.382 . S
C561 H584 0.950 . S
C562 C561 1.388 . S
C562 C563 1.386 . S
C563 C562 1.386 . S
C563 C564 1.382 . S
C563 H585 0.950 . S
C564 N560 1.332 . S
C564 C563 1.382 . S
C564 H566 0.952 . S
C565 N560 1.332 . S
C565 C561 1.382 . S
C565 H567 0.948 . S
H566 C564 0.952 . S
H567 C565 0.948 . S
H568 C557 0.952 . S
H569 C559 0.948 . S
C570 C536 1.395 . S
C570 C540 1.391 1_455 S
C571 C533 1.389 . S
C571 C553 1.392 . S
C572 C543 1.392 . S
C572 C545 1.389 . S
C573 C548 1.395 . S
C573 C550 1.391 . S
H574 C534 0.951 . S
H575 C535 0.950 . S
H576 C541 0.949 . S
H577 C542 0.950 . S
H578 C546 0.951 . S
H579 C547 0.950 . S
H580 C551 0.949 . S
H581 C552 0.950 . S
H582 C556 0.950 . S
H583 C558 0.950 . S
H584 C561 0.950 . S
H585 C563 0.950 . S
C586 C587 1.443 . S
C586 N590 1.376 . S
C586 C624 1.389 . S
C587 C586 1.443 . S
C587 C588 1.340 . S
C587 H627 0.951 . S
C588 C587 1.340 . S
C588 C589 1.439 . S
C588 H628 0.950 . S
C589 C588 1.439 . S
C589 N590 1.374 . S
C589 C623 1.395 1_565 S
N590 C586 1.376 . S
N590 C589 1.374 . S
N590 Co591 2.008 1_565 S
Co591 N590 2.008 1_545 S
Co591 N592 1.995 . S
Co591 N597 2.008 . S
Co591 N602 1.995 1_545 S
Co591 N607 2.282 . S
Co591 N613 2.282 1_545 S
N592 Co591 1.995 . S
N592 C593 1.376 . S
N592 C596 1.383 . S
C593 N592 1.376 . S
C593 C594 1.446 . S
C593 C623 1.391 . S
C594 C593 1.446 . S
C594 C595 1.339 . S
C594 H629 0.949 . S
C595 C594 1.339 . S
C595 C596 1.439 . S
C595 H630 0.950 . S
C596 N592 1.383 . S
C596 C595 1.439 . S
C596 C625 1.392 . S
N597 Co591 2.008 . S
N597 C598 1.376 . S
N597 C601 1.374 . S
C598 N597 1.376 . S
C598 C599 1.443 . S
C598 C625 1.389 . S
C599 C598 1.443 . S
C599 C600 1.340 . S
C599 H631 0.951 . S
C600 C599 1.340 . S
C600 C601 1.439 . S
C600 H632 0.950 . S
C601 N597 1.374 . S
C601 C600 1.439 . S
C601 C626 1.395 . S
N602 Co591 1.995 1_565 S
N602 C603 1.376 . S
N602 C606 1.383 . S
C603 N602 1.376 . S
C603 C604 1.446 . S
C603 C626 1.391 1_565 S
C604 C603 1.446 . S
C604 C605 1.339 . S
C604 H633 0.949 . S
C605 C604 1.339 . S
C605 C606 1.439 . S
C605 H634 0.950 . S
C606 N602 1.383 . S
C606 C605 1.439 . S
C606 C624 1.392 . S
N607 Co591 2.282 . S
N607 C610 1.332 . S
N607 C612 1.332 . S
C608 C609 1.386 . S
C608 C611 1.388 . S
C609 C608 1.386 . S
C609 C610 1.382 . S
C609 H635 0.950 . S
C610 N607 1.332 . S
C610 C609 1.382 . S
C610 H621 0.952 . S
C611 C608 1.388 . S
C611 C612 1.382 . S
C611 H636 0.950 . S
C612 N607 1.332 . S
C612 C611 1.382 . S
C612 H622 0.948 . S
N613 Co591 2.282 1_565 S
N613 C617 1.332 . S
N613 C618 1.332 . S
C614 C615 1.388 . S
C614 C618 1.382 . S
C614 H637 0.950 . S
C615 C614 1.388 . S
C615 C616 1.386 . S
C616 C615 1.386 . S
C616 C617 1.382 . S
C616 H638 0.950 . S
C617 N613 1.332 . S
C617 C616 1.382 . S
C617 H619 0.952 . S
C618 N613 1.332 . S
C618 C614 1.382 . S
C618 H620 0.948 . S
H619 C617 0.952 . S
H620 C618 0.948 . S
H621 C610 0.952 . S
H622 C612 0.948 . S
C623 C589 1.395 1_545 S
C623 C593 1.391 . S
C624 C586 1.389 . S
C624 C606 1.392 . S
C625 C596 1.392 . S
C625 C598 1.389 . S
C626 C601 1.395 . S
C626 C603 1.391 1_545 S
H627 C587 0.951 . S
H628 C588 0.950 . S
H629 C594 0.949 . S
H630 C595 0.950 . S
H631 C599 0.951 . S
H632 C600 0.950 . S
H633 C604 0.949 . S
H634 C605 0.950 . S
H635 C609 0.950 . S
H636 C611 0.950 . S
H637 C614 0.950 . S
H638 C616 0.950 . S
C639 C640 1.443 . S
C639 N643 1.376 . S
C639 C677 1.389 . S
C640 C639 1.443 . S
C640 C641 1.340 . S
C640 H680 0.951 . S
C641 C640 1.340 . S
C641 C642 1.439 . S
C641 H681 0.950 . S
C642 C641 1.439 . S
C642 N643 1.374 . S
C642 C676 1.395 . S
N643 C639 1.376 . S
N643 C642 1.374 . S
N643 Co644 2.008 . S
Co644 N643 2.008 . S
Co644 N645 2.016 . S
Co644 N650 1.985 1_554 S
Co644 N655 1.995 . S
Co644 N660 2.282 1_554 S
Co644 N666 2.282 . S
N645 Co644 2.016 . S
N645 C646 1.384 . S
N645 C649 1.347 1_554 S
C646 N645 1.384 . S
C646 C647 1.446 1_554 S
C646 C676 1.391 . S
C647 C646 1.446 1_556 S
C647 C648 1.339 . S
C647 H682 0.949 . S
C648 C647 1.339 . S
C648 C649 1.439 . S
C648 H683 0.950 . S
C649 N645 1.347 1_556 S
C649 C648 1.439 . S
C649 C678 1.392 . S
N650 Co644 1.985 1_556 S
N650 C651 1.410 . S
N650 C654 1.374 1_556 S
C651 N650 1.410 . S
C651 C652 1.443 . S
C651 C678 1.389 . S
C652 C651 1.443 . S
C652 C653 1.340 . S
C652 H684 0.951 . S
C653 C652 1.340 . S
C653 C654 1.436 1_556 S
C653 H685 0.950 . S
C654 N650 1.374 1_554 S
C654 C653 1.436 1_554 S
C654 C679 1.398 . S
N655 Co644 1.995 . S
N655 C656 1.376 . S
N655 C659 1.383 . S
C656 N655 1.376 . S
C656 C657 1.446 . S
C656 C679 1.391 . S
C657 C656 1.446 . S
C657 C658 1.339 . S
C657 H686 0.949 . S
C658 C657 1.339 . S
C658 C659 1.439 . S
C658 H687 0.950 . S
C659 N655 1.383 . S
C659 C658 1.439 . S
C659 C677 1.392 . S
N660 Co644 2.282 1_556 S
N660 C663 1.332 . S
N660 C665 1.332 . S
C661 C662 1.386 . S
C661 C664 1.388 . S
C662 C661 1.386 . S
C662 C663 1.382 . S
C662 H688 0.950 . S
C663 N660 1.332 . S
C663 C662 1.382 . S
C663 H674 0.952 . S
C664 C661 1.388 . S
C664 C665 1.382 . S
C664 H689 0.950 . S
C665 N660 1.332 . S
C665 C664 1.382 . S
C665 H675 0.948 . S
N666 Co644 2.282 . S
N666 C670 1.332 . S
N666 C671 1.332 . S
C667 C668 1.388 . S
C667 C671 1.382 . S
C667 H690 0.950 . S
C668 C667 1.388 . S
C668 C669 1.386 . S
C669 C668 1.386 . S
C669 C670 1.382 . S
C669 H691 0.950 . S
C670 N666 1.332 . S
C670 C669 1.382 . S
C670 H672 0.952 . S
C671 N666 1.332 . S
C671 C667 1.382 . S
C671 H673 0.948 . S
H672 C670 0.952 . S
H673 C671 0.948 . S
H674 C663 0.952 . S
H675 C665 0.948 . S
C676 C642 1.395 . S
C676 C646 1.391 . S
C677 C639 1.389 . S
C677 C659 1.392 . S
C678 C649 1.392 . S
C678 C651 1.389 . S
C679 C654 1.398 . S
C679 C656 1.391 . S
H680 C640 0.951 . S
H681 C641 0.950 . S
H682 C647 0.949 . S
H683 C648 0.950 . S
H684 C652 0.951 . S
H685 C653 0.950 . S
H686 C657 0.949 . S
H687 C658 0.950 . S
H688 C662 0.950 . S
H689 C664 0.950 . S
H690 C667 0.950 . S
H691 C669 0.950 . S
C692 C693 1.443 . S
C692 N696 1.376 1_565 S
C692 C730 1.389 . S
C693 C692 1.443 . S
C693 C694 1.340 . S
C693 H733 0.951 . S
C694 C693 1.340 . S
C694 C695 1.439 1_565 S
C694 H734 0.950 . S
C695 C694 1.439 1_545 S
C695 N696 1.374 . S
C695 C729 1.395 . S
N696 C692 1.376 1_545 S
N696 C695 1.374 . S
N696 Co697 2.008 . S
Co697 N696 2.008 . S
Co697 N698 1.995 . S
Co697 N703 2.008 . S
Co697 N708 1.995 . S
Co697 N713 2.282 . S
Co697 N719 2.282 1_545 S
N698 Co697 1.995 . S
N698 C699 1.376 . S
N698 C702 1.383 . S
C699 N698 1.376 . S
C699 C700 1.446 . S
C699 C729 1.391 . S
C700 C699 1.446 . S
C700 C701 1.339 . S
C700 H735 0.949 . S
C701 C700 1.339 . S
C701 C702 1.439 . S
C701 H736 0.950 . S
C702 N698 1.383 . S
C702 C701 1.439 . S
C702 C731 1.392 . S
N703 Co697 2.008 . S
N703 C704 1.376 . S
N703 C707 1.374 . S
C704 N703 1.376 . S
C704 C705 1.443 . S
C704 C731 1.389 . S
C705 C704 1.443 . S
C705 C706 1.340 . S
C705 H737 0.951 . S
C706 C705 1.340 . S
C706 C707 1.439 . S
C706 H738 0.950 . S
C707 N703 1.374 . S
C707 C706 1.439 . S
C707 C732 1.395 . S
N708 Co697 1.995 . S
N708 C709 1.376 . S
N708 C712 1.383 1_545 S
C709 N708 1.376 . S
C709 C710 1.446 1_545 S
C709 C732 1.391 . S
C710 C709 1.446 1_565 S
C710 C711 1.339 . S
C710 H739 0.949 . S
C711 C710 1.339 . S
C711 C712 1.439 . S
C711 H740 0.950 . S
C712 N708 1.383 1_565 S
C712 C711 1.439 . S
C712 C730 1.392 . S
N713 Co697 2.282 . S
N713 C716 1.332 . S
N713 C718 1.332 . S
C714 C715 1.386 . S
C714 C717 1.388 . S
C715 C714 1.386 . S
C715 C716 1.382 . S
C715 H741 0.950 . S
C716 N713 1.332 . S
C716 C715 1.382 . S
C716 H727 0.952 . S
C717 C714 1.388 . S
C717 C718 1.382 . S
C717 H742 0.950 . S
C718 N713 1.332 . S
C718 C717 1.382 . S
C718 H728 0.948 . S
N719 Co697 2.282 1_565 S
N719 C723 1.332 . S
N719 C724 1.332 . S
C720 C721 1.388 . S
C720 C724 1.382 . S
C720 H743 0.950 . S
C721 C720 1.388 . S
C721 C722 1.386 . S
C722 C721 1.386 . S
C722 C723 1.382 . S
C722 H744 0.950 . S
C723 N719 1.332 . S
C723 C722 1.382 . S
C723 H725 0.952 . S
C724 N719 1.332 . S
C724 C720 1.382 . S
C724 H726 0.948 . S
H725 C723 0.952 . S
H726 C724 0.948 . S
H727 C716 0.952 . S
H728 C718 0.948 . S
C729 C695 1.395 . S
C729 C699 1.391 . S
C730 C692 1.389 . S
C730 C712 1.392 . S
C731 C702 1.392 . S
C731 C704 1.389 . S
C732 C707 1.395 . S
C732 C709 1.391 . S
H733 C693 0.951 . S
H734 C694 0.950 . S
H735 C700 0.949 . S
H736 C701 0.950 . S
H737 C705 0.951 . S
H738 C706 0.950 . S
H739 C710 0.949 . S
H740 C711 0.950 . S
H741 C715 0.950 . S
H742 C717 0.950 . S
H743 C720 0.950 . S
H744 C722 0.950 . S
C745 C746 1.443 . S
C745 N749 1.376 . S
C745 C783 1.389 . S
C746 C745 1.443 . S
C746 C747 1.340 . S
C746 H786 0.951 . S
C747 C746 1.340 . S
C747 C748 1.439 . S
C747 H787 0.950 . S
C748 C747 1.439 . S
C748 N749 1.374 . S
C748 C782 1.395 . S
N749 C745 1.376 . S
N749 C748 1.374 . S
N749 Co750 2.008 . S
Co750 N749 2.008 . S
Co750 N751 1.995 . S
Co750 N756 2.008 . S
Co750 N761 1.995 . S
Co750 N766 2.310 . S
Co750 N772 2.282 . S
N751 Co750 1.995 . S
N751 C752 1.376 . S
N751 C755 1.383 1_554 S
C752 N751 1.376 . S
C752 C753 1.446 1_554 S
C752 C782 1.391 . S
C753 C752 1.446 1_556 S
C753 C754 1.339 . S
C753 H788 0.949 . S
C754 C753 1.339 . S
C754 C755 1.439 . S
C754 H789 0.950 . S
C755 N751 1.383 1_556 S
C755 C754 1.439 . S
C755 C784 1.392 . S
N756 Co750 2.008 . S
N756 C757 1.376 1_554 S
N756 C760 1.374 . S
C757 N756 1.376 1_556 S
C757 C758 1.443 . S
C757 C784 1.389 . S
C758 C757 1.443 . S
C758 C759 1.340 . S
C758 H790 0.951 . S
C759 C758 1.340 . S
C759 C760 1.439 1_556 S
C759 H791 0.950 . S
C760 N756 1.374 . S
C760 C759 1.439 1_554 S
C760 C785 1.395 . S
N761 Co750 1.995 . S
N761 C762 1.376 . S
N761 C765 1.383 . S
C762 N761 1.376 . S
C762 C763 1.446 . S
C762 C785 1.391 . S
C763 C762 1.446 . S
C763 C764 1.339 . S
C763 H792 0.949 . S
C764 C763 1.339 . S
C764 C765 1.439 . S
C764 H793 0.950 . S
C765 N761 1.383 . S
C765 C764 1.439 . S
C765 C783 1.392 . S
N766 Co750 2.310 . S
N766 C769 1.321 1_554 S
N766 C771 1.311 1_554 S
C767 C768 1.386 . S
C767 C770 1.388 . S
C768 C767 1.386 . S
C768 C769 1.382 . S
C768 H794 0.950 . S
C769 N766 1.321 1_556 S
C769 C768 1.382 . S
C769 H780 0.952 1_556 S
C770 C767 1.388 . S
C770 C771 1.382 . S
C770 H795 0.950 . S
C771 N766 1.311 1_556 S
C771 C770 1.382 . S
C771 H781 0.948 . S
N772 Co750 2.282 . S
N772 C776 1.332 . S
N772 C777 1.332 . S
C773 C774 1.388 . S
C773 C777 1.382 . S
C773 H796 0.950 . S
C774 C773 1.388 . S
C774 C775 1.386 . S
C775 C774 1.386 . S
C775 C776 1.382 . S
C775 H797 0.950 . S
C776 N772 1.332 . S
C776 C775 1.382 . S
C776 H778 0.952 . S
C777 N772 1.332 . S
C777 C773 1.382 . S
C777 H779 0.948 . S
H778 C776 0.952 . S
H779 C777 0.948 . S
H780 C769 0.952 1_554 S
H781 C771 0.948 . S
C782 C748 1.395 . S
C782 C752 1.391 . S
C783 C745 1.389 . S
C783 C765 1.392 . S
C784 C755 1.392 . S
C784 C757 1.389 . S
C785 C760 1.395 . S
C785 C762 1.391 . S
H786 C746 0.951 . S
H787 C747 0.950 . S
H788 C753 0.949 . S
H789 C754 0.950 . S
H790 C758 0.951 . S
H791 C759 0.950 . S
H792 C763 0.949 . S
H793 C764 0.950 . S
H794 C768 0.950 . S
H795 C770 0.950 . S
H796 C773 0.950 . S
H797 C775 0.950 . S
C798 C799 1.349 . S
C798 C800 1.327 . S
C798 H823 0.950 . S
C799 C798 1.349 . S
C799 C815 1.349 . S
C800 C798 1.327 . S
C800 C819 1.429 . S
C800 H824 0.950 . S
C801 C818 1.574 . S
C801 C820 1.368 . S
C801 H825 0.949 . S
H802 C806 0.949 . S
C803 C804 1.349 . S
C803 C805 1.327 . S
C803 H826 0.950 . S
C804 C803 1.349 . S
C804 C816 1.349 . S
C805 C803 1.327 . S
C805 C821 1.429 . S
C805 H827 0.950 . S
C806 H802 0.949 . S
C806 C814 1.574 . S
C806 C822 1.368 . S
H807 C815 0.950 . S
H808 C813 0.950 . S
H809 C814 0.949 . S
H810 C816 0.950 . S
H811 C817 0.950 . S
H812 C818 0.949 . S
C813 H808 0.950 . S
C813 C815 1.327 . S
C813 C819 1.429 . S
C814 C806 1.574 . S
C814 H809 0.949 . S
C814 C820 1.368 . S
C815 C799 1.349 . S
C815 H807 0.950 . S
C815 C813 1.327 . S
C816 C804 1.349 . S
C816 H810 0.950 . S
C816 C817 1.327 . S
C817 H811 0.950 . S
C817 C816 1.327 . S
C817 C821 1.429 . S
C818 C801 1.574 . S
C818 H812 0.949 . S
C818 C822 1.368 . S
C819 C800 1.429 . S
C819 C813 1.429 . S
C819 C820 1.523 . S
C820 C801 1.368 . S
C820 C814 1.368 . S
C820 C819 1.523 . S
C821 C805 1.429 . S
C821 C817 1.429 . S
C821 C822 1.523 . S
C822 C806 1.368 . S
C822 C818 1.368 . S
C822 C821 1.523 . S
H823 C798 0.950 . S
H824 C800 0.950 . S
H825 C801 0.949 . S
H826 C803 0.950 . S
H827 C805 0.950 . S
C828 C829 1.349 . S
C828 C830 1.327 . S
C828 H853 0.950 . S
C829 C828 1.349 . S
C829 C845 1.349 . S
C830 C828 1.327 . S
C830 C849 1.429 . S
C830 H854 0.950 . S
C831 C848 1.574 . S
C831 C850 1.368 . S
C831 H855 0.949 . S
H832 C836 0.949 . S
C833 C834 1.349 . S
C833 C835 1.327 . S
C833 H856 0.950 . S
C834 C833 1.349 . S
C834 C846 1.349 . S
C835 C833 1.327 . S
C835 C851 1.429 . S
C835 H857 0.950 . S
C836 H832 0.949 . S
C836 C844 1.574 . S
C836 C852 1.368 . S
H837 C845 0.950 . S
H838 C843 0.950 . S
H839 C844 0.949 . S
H840 C846 0.950 . S
H841 C847 0.950 . S
H842 C848 0.949 . S
C843 H838 0.950 . S
C843 C845 1.327 . S
C843 C849 1.429 . S
C844 C836 1.574 . S
C844 H839 0.949 . S
C844 C850 1.368 . S
C845 C829 1.349 . S
C845 H837 0.950 . S
C845 C843 1.327 . S
C846 C834 1.349 . S
C846 H840 0.950 . S
C846 C847 1.327 . S
C847 H841 0.950 . S
C847 C846 1.327 . S
C847 C851 1.429 . S
C848 C831 1.574 . S
C848 H842 0.949 . S
C848 C852 1.368 . S
C849 C830 1.429 . S
C849 C843 1.429 . S
C849 C850 1.523 . S
C850 C831 1.368 . S
C850 C844 1.368 . S
C850 C849 1.523 . S
C851 C835 1.429 . S
C851 C847 1.429 . S
C851 C852 1.523 . S
C852 C836 1.368 . S
C852 C848 1.368 . S
C852 C851 1.523 . S
H853 C828 0.950 . S
H854 C830 0.950 . S
H855 C831 0.949 . S
H856 C833 0.950 . S
H857 C835 0.950 . S
C858 C859 1.349 . S
C858 C860 1.327 . S
C858 H883 0.950 . S
C859 C858 1.349 . S
C859 C875 1.349 . S
C860 C858 1.327 . S
C860 C879 1.429 . S
C860 H884 0.950 . S
C861 C878 1.574 . S
C861 C880 1.368 . S
C861 H885 0.949 . S
H862 C866 0.949 . S
C863 C864 1.349 . S
C863 C865 1.327 . S
C863 H886 0.950 . S
C864 C863 1.349 . S
C864 C876 1.349 . S
C865 C863 1.327 . S
C865 C881 1.429 . S
C865 H887 0.950 . S
C866 H862 0.949 . S
C866 C874 1.574 . S
C866 C882 1.368 . S
H867 C875 0.950 . S
H868 C873 0.950 . S
H869 C874 0.949 . S
H870 C876 0.950 . S
H871 C877 0.950 . S
H872 C878 0.949 . S
C873 H868 0.950 . S
C873 C875 1.327 . S
C873 C879 1.429 . S
C874 C866 1.574 . S
C874 H869 0.949 . S
C874 C880 1.368 . S
C875 C859 1.349 . S
C875 H867 0.950 . S
C875 C873 1.327 . S
C876 C864 1.349 . S
C876 H870 0.950 . S
C876 C877 1.327 . S
C877 H871 0.950 . S
C877 C876 1.327 . S
C877 C881 1.429 . S
C878 C861 1.574 . S
C878 H872 0.949 . S
C878 C882 1.368 . S
C879 C860 1.429 . S
C879 C873 1.429 . S
C879 C880 1.523 . S
C880 C861 1.368 . S
C880 C874 1.368 . S
C880 C879 1.523 . S
C881 C865 1.429 . S
C881 C877 1.429 . S
C881 C882 1.523 . S
C882 C866 1.368 . S
C882 C878 1.368 . S
C882 C881 1.523 . S
H883 C858 0.950 . S
H884 C860 0.950 . S
H885 C861 0.949 . S
H886 C863 0.950 . S
H887 C865 0.950 . S
C888 C889 1.349 . S
C888 C890 1.327 . S
C888 H913 0.950 . S
C889 C888 1.349 . S
C889 C905 1.349 . S
C890 C888 1.327 . S
C890 C909 1.429 . S
C890 H914 0.950 . S
C891 C908 1.574 . S
C891 C910 1.368 . S
C891 H915 0.949 . S
H892 C896 0.949 . S
C893 C894 1.349 . S
C893 C895 1.327 . S
C893 H916 0.950 . S
C894 C893 1.349 . S
C894 C906 1.349 . S
C895 C893 1.327 . S
C895 C911 1.429 . S
C895 H917 0.950 . S
C896 H892 0.949 . S
C896 C904 1.574 . S
C896 C912 1.368 . S
H897 C905 0.950 . S
H898 C903 0.950 . S
H899 C904 0.949 . S
H900 C906 0.950 . S
H901 C907 0.950 . S
H902 C908 0.949 . S
C903 H898 0.950 . S
C903 C905 1.327 . S
C903 C909 1.429 . S
C904 C896 1.574 . S
C904 H899 0.949 . S
C904 C910 1.368 . S
C905 C889 1.349 . S
C905 H897 0.950 . S
C905 C903 1.327 . S
C906 C894 1.349 . S
C906 H900 0.950 . S
C906 C907 1.327 . S
C907 H901 0.950 . S
C907 C906 1.327 . S
C907 C911 1.429 . S
C908 C891 1.574 . S
C908 H902 0.949 . S
C908 C912 1.368 . S
C909 C890 1.429 . S
C909 C903 1.429 . S
C909 C910 1.523 . S
C910 C891 1.368 . S
C910 C904 1.368 . S
C910 C909 1.523 . S
C911 C895 1.429 . S
C911 C907 1.429 . S
C911 C912 1.523 . S
C912 C896 1.368 . S
C912 C908 1.368 . S
C912 C911 1.523 . S
H913 C888 0.950 . S
H914 C890 0.950 . S
H915 C891 0.949 . S
H916 C893 0.950 . S
H917 C895 0.950 . S
C918 C919 1.349 . S
C918 C920 1.327 . S
C918 H943 0.950 . S
C919 C918 1.349 . S
C919 C935 1.349 . S
C920 C918 1.327 . S
C920 C939 1.429 . S
C920 H944 0.950 . S
C921 C938 1.574 . S
C921 C940 1.368 . S
C921 H945 0.949 . S
H922 C926 0.949 . S
C923 C924 1.349 . S
C923 C925 1.327 . S
C923 H946 0.950 . S
C924 C923 1.349 . S
C924 C936 1.349 . S
C925 C923 1.327 . S
C925 C941 1.429 . S
C925 H947 0.950 . S
C926 H922 0.949 . S
C926 C934 1.574 . S
C926 C942 1.368 . S
H927 C935 0.950 . S
H928 C933 0.950 . S
H929 C934 0.949 . S
H930 C936 0.950 . S
H931 C937 0.950 . S
H932 C938 0.949 . S
C933 H928 0.950 . S
C933 C935 1.327 . S
C933 C939 1.429 . S
C934 C926 1.574 . S
C934 H929 0.949 . S
C934 C940 1.368 . S
C935 C919 1.349 . S
C935 H927 0.950 . S
C935 C933 1.327 . S
C936 C924 1.349 . S
C936 H930 0.950 . S
C936 C937 1.327 . S
C937 H931 0.950 . S
C937 C936 1.327 . S
C937 C941 1.429 . S
C938 C921 1.574 . S
C938 H932 0.949 . S
C938 C942 1.368 . S
C939 C920 1.429 . S
C939 C933 1.429 . S
C939 C940 1.523 . S
C940 C921 1.368 . S
C940 C934 1.368 . S
C940 C939 1.523 . S
C941 C925 1.429 . S
C941 C937 1.429 . S
C941 C942 1.523 . S
C942 C926 1.368 . S
C942 C938 1.368 . S
C942 C941 1.523 . S
H943 C918 0.950 . S
H944 C920 0.950 . S
H945 C921 0.949 . S
H946 C923 0.950 . S
H947 C925 0.950 . S
C948 C949 1.349 . S
C948 C950 1.327 . S
C948 H973 0.950 . S
C949 C948 1.349 . S
C949 C965 1.349 . S
C950 C948 1.327 . S
C950 C969 1.429 . S
C950 H974 0.950 . S
C951 C968 1.574 . S
C951 C970 1.368 . S
C951 H975 0.949 . S
H952 C956 0.949 . S
C953 C954 1.349 . S
C953 C955 1.327 . S
C953 H976 0.950 . S
C954 C953 1.349 . S
C954 C966 1.349 . S
C955 C953 1.327 . S
C955 C971 1.429 . S
C955 H977 0.950 . S
C956 H952 0.949 . S
C956 C964 1.574 . S
C956 C972 1.368 . S
H957 C965 0.950 . S
H958 C963 0.950 . S
H959 C964 0.949 . S
H960 C966 0.950 . S
H961 C967 0.950 . S
H962 C968 0.949 . S
C963 H958 0.950 . S
C963 C965 1.327 . S
C963 C969 1.429 . S
C964 C956 1.574 . S
C964 H959 0.949 . S
C964 C970 1.368 . S
C965 C949 1.349 . S
C965 H957 0.950 . S
C965 C963 1.327 . S
C966 C954 1.349 . S
C966 H960 0.950 . S
C966 C967 1.327 . S
C967 H961 0.950 . S
C967 C966 1.327 . S
C967 C971 1.429 . S
C968 C951 1.574 . S
C968 H962 0.949 . S
C968 C972 1.368 . S
C969 C950 1.429 . S
C969 C963 1.429 . S
C969 C970 1.523 . S
C970 C951 1.368 . S
C970 C964 1.368 . S
C970 C969 1.523 . S
C971 C955 1.429 . S
C971 C967 1.429 . S
C971 C972 1.523 . S
C972 C956 1.368 . S
C972 C968 1.368 . S
C972 C971 1.523 . S
H973 C948 0.950 . S
H974 C950 0.950 . S
H975 C951 0.949 . S
H976 C953 0.950 . S
H977 C955 0.950 . S
C978 C979 1.349 . S
C978 C980 1.327 . S
C978 H1003 0.950 . S
C979 C978 1.349 . S
C979 C995 1.349 . S
C980 C978 1.327 . S
C980 C999 1.429 . S
C980 H1004 0.950 . S
C981 C998 1.574 . S
C981 C1000 1.368 . S
C981 H1005 0.949 . S
H982 C986 0.949 . S
C983 C984 1.349 . S
C983 C985 1.327 . S
C983 H1006 0.950 . S
C984 C983 1.349 . S
C984 C996 1.349 . S
C985 C983 1.327 . S
C985 C1001 1.429 . S
C985 H1007 0.950 . S
C986 H982 0.949 . S
C986 C994 1.574 . S
C986 C1002 1.368 . S
H987 C995 0.950 . S
H988 C993 0.950 . S
H989 C994 0.949 . S
H990 C996 0.950 . S
H991 C997 0.950 . S
H992 C998 0.949 . S
C993 H988 0.950 . S
C993 C995 1.327 . S
C993 C999 1.429 . S
C994 C986 1.574 . S
C994 H989 0.949 . S
C994 C1000 1.368 . S
C995 C979 1.349 . S
C995 H987 0.950 . S
C995 C993 1.327 . S
C996 C984 1.349 . S
C996 H990 0.950 . S
C996 C997 1.327 . S
C997 H991 0.950 . S
C997 C996 1.327 . S
C997 C1001 1.429 . S
C998 C981 1.574 . S
C998 H992 0.949 . S
C998 C1002 1.368 . S
C999 C980 1.429 . S
C999 C993 1.429 . S
C999 C1000 1.523 . S
C1000 C981 1.368 . S
C1000 C994 1.368 . S
C1000 C999 1.523 . S
C1001 C985 1.429 . S
C1001 C997 1.429 . S
C1001 C1002 1.523 . S
C1002 C986 1.368 . S
C1002 C998 1.368 . S
C1002 C1001 1.523 . S
H1003 C978 0.950 . S
H1004 C980 0.950 . S
H1005 C981 0.949 . S
H1006 C983 0.950 . S
H1007 C985 0.950 . S
C1008 C1009 1.349 . S
C1008 C1010 1.327 . S
C1008 H1033 0.950 . S
C1009 C1008 1.349 . S
C1009 C1025 1.349 . S
C1010 C1008 1.327 . S
C1010 C1029 1.429 . S
C1010 H1034 0.950 . S
C1011 C1028 1.574 . S
C1011 C1030 1.368 . S
C1011 H1035 0.949 . S
H1012 C1016 0.949 . S
C1013 C1014 1.349 . S
C1013 C1015 1.327 . S
C1013 H1036 0.950 . S
C1014 C1013 1.349 . S
C1014 C1026 1.349 . S
C1015 C1013 1.327 . S
C1015 C1031 1.429 . S
C1015 H1037 0.950 . S
C1016 H1012 0.949 . S
C1016 C1024 1.574 . S
C1016 C1032 1.368 . S
H1017 C1025 0.950 . S
H1018 C1023 0.950 . S
H1019 C1024 0.949 . S
H1020 C1026 0.950 . S
H1021 C1027 0.950 . S
H1022 C1028 0.949 . S
C1023 H1018 0.950 . S
C1023 C1025 1.327 . S
C1023 C1029 1.429 . S
C1024 C1016 1.574 . S
C1024 H1019 0.949 . S
C1024 C1030 1.368 . S
C1025 C1009 1.349 . S
C1025 H1017 0.950 . S
C1025 C1023 1.327 . S
C1026 C1014 1.349 . S
C1026 H1020 0.950 . S
C1026 C1027 1.327 . S
C1027 H1021 0.950 . S
C1027 C1026 1.327 . S
C1027 C1031 1.429 . S
C1028 C1011 1.574 . S
C1028 H1022 0.949 . S
C1028 C1032 1.368 . S
C1029 C1010 1.429 . S
C1029 C1023 1.429 . S
C1029 C1030 1.523 . S
C1030 C1011 1.368 . S
C1030 C1024 1.368 . S
C1030 C1029 1.523 . S
C1031 C1015 1.429 . S
C1031 C1027 1.429 . S
C1031 C1032 1.523 . S
C1032 C1016 1.368 . S
C1032 C1028 1.368 . S
C1032 C1031 1.523 . S
H1033 C1008 0.950 . S
H1034 C1010 0.950 . S
H1035 C1011 0.949 . S
H1036 C1013 0.950 . S
H1037 C1015 0.950 . S
C1038 C1039 1.349 . S
C1038 C1040 1.327 . S
C1038 H1063 0.950 . S
C1039 C1038 1.349 . S
C1039 C1055 1.349 . S
C1040 C1038 1.327 . S
C1040 C1059 1.429 . S
C1040 H1064 0.950 . S
C1041 C1058 1.574 . S
C1041 C1060 1.368 . S
C1041 H1065 0.949 . S
H1042 C1046 0.949 . S
C1043 C1044 1.349 . S
C1043 C1045 1.327 . S
C1043 H1066 0.950 . S
C1044 C1043 1.349 . S
C1044 C1056 1.349 . S
C1045 C1043 1.327 . S
C1045 C1061 1.429 . S
C1045 H1067 0.950 . S
C1046 H1042 0.949 . S
C1046 C1054 1.574 . S
C1046 C1062 1.368 . S
H1047 C1055 0.950 . S
H1048 C1053 0.950 . S
H1049 C1054 0.949 . S
H1050 C1056 0.950 . S
H1051 C1057 0.950 . S
H1052 C1058 0.949 . S
C1053 H1048 0.950 . S
C1053 C1055 1.327 . S
C1053 C1059 1.429 . S
C1054 C1046 1.574 . S
C1054 H1049 0.949 . S
C1054 C1060 1.368 . S
C1055 C1039 1.349 . S
C1055 H1047 0.950 . S
C1055 C1053 1.327 . S
C1056 C1044 1.349 . S
C1056 H1050 0.950 . S
C1056 C1057 1.327 . S
C1057 H1051 0.950 . S
C1057 C1056 1.327 . S
C1057 C1061 1.429 . S
C1058 C1041 1.574 . S
C1058 H1052 0.949 . S
C1058 C1062 1.368 . S
C1059 C1040 1.429 . S
C1059 C1053 1.429 . S
C1059 C1060 1.523 . S
C1060 C1041 1.368 . S
C1060 C1054 1.368 . S
C1060 C1059 1.523 . S
C1061 C1045 1.429 . S
C1061 C1057 1.429 . S
C1061 C1062 1.523 . S
C1062 C1046 1.368 . S
C1062 C1058 1.368 . S
C1062 C1061 1.523 . S
H1063 C1038 0.950 . S
H1064 C1040 0.950 . S
H1065 C1041 0.949 . S
H1066 C1043 0.950 . S
H1067 C1045 0.950 . S
C1068 C1069 1.349 . S
C1068 C1070 1.327 . S
C1068 H1093 0.950 . S
C1069 C1068 1.349 . S
C1069 C1085 1.349 . S
C1070 C1068 1.327 . S
C1070 C1089 1.429 . S
C1070 H1094 0.950 . S
C1071 C1088 1.574 . S
C1071 C1090 1.368 . S
C1071 H1095 0.949 . S
H1072 C1076 0.949 . S
C1073 C1074 1.349 . S
C1073 C1075 1.327 . S
C1073 H1096 0.950 . S
C1074 C1073 1.349 . S
C1074 C1086 1.349 . S
C1075 C1073 1.327 . S
C1075 C1091 1.429 . S
C1075 H1097 0.950 . S
C1076 H1072 0.949 . S
C1076 C1084 1.574 . S
C1076 C1092 1.368 . S
H1077 C1085 0.950 . S
H1078 C1083 0.950 . S
H1079 C1084 0.949 . S
H1080 C1086 0.950 . S
H1081 C1087 0.950 . S
H1082 C1088 0.949 . S
C1083 H1078 0.950 . S
C1083 C1085 1.327 . S
C1083 C1089 1.429 . S
C1084 C1076 1.574 . S
C1084 H1079 0.949 . S
C1084 C1090 1.368 . S
C1085 C1069 1.349 . S
C1085 H1077 0.950 . S
C1085 C1083 1.327 . S
C1086 C1074 1.349 . S
C1086 H1080 0.950 . S
C1086 C1087 1.327 . S
C1087 H1081 0.950 . S
C1087 C1086 1.327 . S
C1087 C1091 1.429 . S
C1088 C1071 1.574 . S
C1088 H1082 0.949 . S
C1088 C1092 1.368 . S
C1089 C1070 1.429 . S
C1089 C1083 1.429 . S
C1089 C1090 1.523 . S
C1090 C1071 1.368 . S
C1090 C1084 1.368 . S
C1090 C1089 1.523 . S
C1091 C1075 1.429 . S
C1091 C1087 1.429 . S
C1091 C1092 1.523 . S
C1092 C1076 1.368 . S
C1092 C1088 1.368 . S
C1092 C1091 1.523 . S
H1093 C1068 0.950 . S
H1094 C1070 0.950 . S
H1095 C1071 0.949 . S
H1096 C1073 0.950 . S
H1097 C1075 0.950 . S
C1098 C1099 1.349 . S
C1098 C1100 1.327 . S
C1098 H1123 0.950 . S
C1099 C1098 1.349 . S
C1099 C1115 1.349 . S
C1100 C1098 1.327 . S
C1100 C1119 1.429 . S
C1100 H1124 0.950 . S
C1101 C1118 1.574 . S
C1101 C1120 1.368 . S
C1101 H1125 0.949 . S
H1102 C1106 0.949 . S
C1103 C1104 1.349 . S
C1103 C1105 1.327 . S
C1103 H1126 0.950 . S
C1104 C1103 1.349 . S
C1104 C1116 1.349 . S
C1105 C1103 1.327 . S
C1105 C1121 1.429 . S
C1105 H1127 0.950 . S
C1106 H1102 0.949 . S
C1106 C1114 1.574 . S
C1106 C1122 1.368 . S
H1107 C1115 0.950 . S
H1108 C1113 0.950 . S
H1109 C1114 0.949 . S
H1110 C1116 0.950 . S
H1111 C1117 0.950 . S
H1112 C1118 0.949 . S
C1113 H1108 0.950 . S
C1113 C1115 1.327 . S
C1113 C1119 1.429 . S
C1114 C1106 1.574 . S
C1114 H1109 0.949 . S
C1114 C1120 1.368 . S
C1115 C1099 1.349 . S
C1115 H1107 0.950 . S
C1115 C1113 1.327 . S
C1116 C1104 1.349 . S
C1116 H1110 0.950 . S
C1116 C1117 1.327 . S
C1117 H1111 0.950 . S
C1117 C1116 1.327 . S
C1117 C1121 1.429 . S
C1118 C1101 1.574 . S
C1118 H1112 0.949 . S
C1118 C1122 1.368 . S
C1119 C1100 1.429 . S
C1119 C1113 1.429 . S
C1119 C1120 1.523 . S
C1120 C1101 1.368 . S
C1120 C1114 1.368 . S
C1120 C1119 1.523 . S
C1121 C1105 1.429 . S
C1121 C1117 1.429 . S
C1121 C1122 1.523 . S
C1122 C1106 1.368 . S
C1122 C1118 1.368 . S
C1122 C1121 1.523 . S
H1123 C1098 0.950 . S
H1124 C1100 0.950 . S
H1125 C1101 0.949 . S
H1126 C1103 0.950 . S
H1127 C1105 0.950 . S
C1128 C1129 1.349 . S
C1128 C1130 1.327 . S
C1128 H1153 0.950 . S
C1129 C1128 1.349 . S
C1129 C1145 1.349 . S
C1130 C1128 1.327 . S
C1130 C1149 1.429 . S
C1130 H1154 0.950 . S
C1131 C1148 1.574 . S
C1131 C1150 1.368 . S
C1131 H1155 0.949 . S
H1132 C1136 0.949 . S
C1133 C1134 1.349 . S
C1133 C1135 1.327 . S
C1133 H1156 0.950 . S
C1134 C1133 1.349 . S
C1134 C1146 1.349 . S
C1135 C1133 1.327 . S
C1135 C1151 1.429 . S
C1135 H1157 0.950 . S
C1136 H1132 0.949 . S
C1136 C1144 1.574 . S
C1136 C1152 1.368 . S
H1137 C1145 0.950 . S
H1138 C1143 0.950 . S
H1139 C1144 0.949 . S
H1140 C1146 0.950 . S
H1141 C1147 0.950 . S
H1142 C1148 0.949 . S
C1143 H1138 0.950 . S
C1143 C1145 1.327 . S
C1143 C1149 1.429 . S
C1144 C1136 1.574 . S
C1144 H1139 0.949 . S
C1144 C1150 1.368 . S
C1145 C1129 1.349 . S
C1145 H1137 0.950 . S
C1145 C1143 1.327 . S
C1146 C1134 1.349 . S
C1146 H1140 0.950 . S
C1146 C1147 1.327 . S
C1147 H1141 0.950 . S
C1147 C1146 1.327 . S
C1147 C1151 1.429 . S
C1148 C1131 1.574 . S
C1148 H1142 0.949 . S
C1148 C1152 1.368 . S
C1149 C1130 1.429 . S
C1149 C1143 1.429 . S
C1149 C1150 1.523 . S
C1150 C1131 1.368 . S
C1150 C1144 1.368 . S
C1150 C1149 1.523 . S
C1151 C1135 1.429 . S
C1151 C1147 1.429 . S
C1151 C1152 1.523 . S
C1152 C1136 1.368 . S
C1152 C1148 1.368 . S
C1152 C1151 1.523 . S
H1153 C1128 0.950 . S
H1154 C1130 0.950 . S
H1155 C1131 0.949 . S
H1156 C1133 0.950 . S
H1157 C1135 0.950 . S
C1158 C1159 1.349 . S
C1158 C1160 1.327 . S
C1158 H1183 0.950 . S
C1159 C1158 1.349 . S
C1159 C1175 1.349 . S
C1160 C1158 1.327 . S
C1160 C1179 1.429 . S
C1160 H1184 0.950 . S
C1161 C1178 1.574 . S
C1161 C1180 1.368 . S
C1161 H1185 0.949 . S
H1162 C1166 0.949 . S
C1163 C1164 1.349 . S
C1163 C1165 1.327 . S
C1163 H1186 0.950 . S
C1164 C1163 1.349 . S
C1164 C1176 1.349 . S
C1165 C1163 1.327 . S
C1165 C1181 1.429 . S
C1165 H1187 0.950 . S
C1166 H1162 0.949 . S
C1166 C1174 1.574 . S
C1166 C1182 1.368 . S
H1167 C1175 0.950 . S
H1168 C1173 0.950 . S
H1169 C1174 0.949 . S
H1170 C1176 0.950 . S
H1171 C1177 0.950 . S
H1172 C1178 0.949 . S
C1173 H1168 0.950 . S
C1173 C1175 1.327 . S
C1173 C1179 1.429 . S
C1174 C1166 1.574 . S
C1174 H1169 0.949 . S
C1174 C1180 1.368 . S
C1175 C1159 1.349 . S
C1175 H1167 0.950 . S
C1175 C1173 1.327 . S
C1176 C1164 1.349 . S
C1176 H1170 0.950 . S
C1176 C1177 1.327 . S
C1177 H1171 0.950 . S
C1177 C1176 1.327 . S
C1177 C1181 1.429 . S
C1178 C1161 1.574 . S
C1178 H1172 0.949 . S
C1178 C1182 1.368 . S
C1179 C1160 1.429 . S
C1179 C1173 1.429 . S
C1179 C1180 1.523 . S
C1180 C1161 1.368 . S
C1180 C1174 1.368 . S
C1180 C1179 1.523 . S
C1181 C1165 1.429 . S
C1181 C1177 1.429 . S
C1181 C1182 1.523 . S
C1182 C1166 1.368 . S
C1182 C1178 1.368 . S
C1182 C1181 1.523 . S
H1183 C1158 0.950 . S
H1184 C1160 0.950 . S
H1185 C1161 0.949 . S
H1186 C1163 0.950 . S
H1187 C1165 0.950 . S
C1188 C1189 1.349 . S
C1188 C1190 1.327 . S
C1188 H1213 0.950 . S
C1189 C1188 1.349 . S
C1189 C1205 1.349 . S
C1190 C1188 1.327 . S
C1190 C1209 1.429 . S
C1190 H1214 0.950 . S
C1191 C1208 1.574 . S
C1191 C1210 1.368 . S
C1191 H1215 0.949 . S
H1192 C1196 0.949 . S
C1193 C1194 1.349 . S
C1193 C1195 1.327 . S
C1193 H1216 0.950 . S
C1194 C1193 1.349 . S
C1194 C1206 1.349 . S
C1195 C1193 1.327 . S
C1195 C1211 1.429 . S
C1195 H1217 0.950 . S
C1196 H1192 0.949 . S
C1196 C1204 1.574 . S
C1196 C1212 1.368 . S
H1197 C1205 0.950 . S
H1198 C1203 0.950 . S
H1199 C1204 0.949 . S
H1200 C1206 0.950 . S
H1201 C1207 0.950 . S
H1202 C1208 0.949 . S
C1203 H1198 0.950 . S
C1203 C1205 1.327 . S
C1203 C1209 1.429 . S
C1204 C1196 1.574 . S
C1204 H1199 0.949 . S
C1204 C1210 1.368 . S
C1205 C1189 1.349 . S
C1205 H1197 0.950 . S
C1205 C1203 1.327 . S
C1206 C1194 1.349 . S
C1206 H1200 0.950 . S
C1206 C1207 1.327 . S
C1207 H1201 0.950 . S
C1207 C1206 1.327 . S
C1207 C1211 1.429 . S
C1208 C1191 1.574 . S
C1208 H1202 0.949 . S
C1208 C1212 1.368 . S
C1209 C1190 1.429 . S
C1209 C1203 1.429 . S
C1209 C1210 1.523 . S
C1210 C1191 1.368 . S
C1210 C1204 1.368 . S
C1210 C1209 1.523 . S
C1211 C1195 1.429 . S
C1211 C1207 1.429 . S
C1211 C1212 1.523 . S
C1212 C1196 1.368 . S
C1212 C1208 1.368 . S
C1212 C1211 1.523 . S
H1213 C1188 0.950 . S
H1214 C1190 0.950 . S
H1215 C1191 0.949 . S
H1216 C1193 0.950 . S
H1217 C1195 0.950 . S
C1218 C1219 1.349 . S
C1218 C1220 1.327 . S
C1218 H1243 0.950 . S
C1219 C1218 1.349 . S
C1219 C1235 1.349 . S
C1220 C1218 1.327 . S
C1220 C1239 1.429 . S
C1220 H1244 0.950 . S
C1221 C1238 1.574 . S
C1221 C1240 1.368 . S
C1221 H1245 0.949 . S
H1222 C1226 0.949 . S
C1223 C1224 1.349 . S
C1223 C1225 1.327 . S
C1223 H1246 0.950 . S
C1224 C1223 1.349 . S
C1224 C1236 1.349 . S
C1225 C1223 1.327 . S
C1225 C1241 1.429 . S
C1225 H1247 0.950 . S
C1226 H1222 0.949 . S
C1226 C1234 1.574 . S
C1226 C1242 1.368 . S
H1227 C1235 0.950 . S
H1228 C1233 0.950 . S
H1229 C1234 0.949 . S
H1230 C1236 0.950 . S
H1231 C1237 0.950 . S
H1232 C1238 0.949 . S
C1233 H1228 0.950 . S
C1233 C1235 1.327 . S
C1233 C1239 1.429 . S
C1234 C1226 1.574 . S
C1234 H1229 0.949 . S
C1234 C1240 1.368 . S
C1235 C1219 1.349 . S
C1235 H1227 0.950 . S
C1235 C1233 1.327 . S
C1236 C1224 1.349 . S
C1236 H1230 0.950 . S
C1236 C1237 1.327 . S
C1237 H1231 0.950 . S
C1237 C1236 1.327 . S
C1237 C1241 1.429 . S
C1238 C1221 1.574 . S
C1238 H1232 0.949 . S
C1238 C1242 1.368 . S
C1239 C1220 1.429 . S
C1239 C1233 1.429 . S
C1239 C1240 1.523 . S
C1240 C1221 1.368 . S
C1240 C1234 1.368 . S
C1240 C1239 1.523 . S
C1241 C1225 1.429 . S
C1241 C1237 1.429 . S
C1241 C1242 1.523 . S
C1242 C1226 1.368 . S
C1242 C1238 1.368 . S
C1242 C1241 1.523 . S
H1243 C1218 0.950 . S
H1244 C1220 0.950 . S
H1245 C1221 0.949 . S
H1246 C1223 0.950 . S
H1247 C1225 0.950 . S
C1248 C1249 1.349 . S
C1248 C1250 1.327 . S
C1248 H1273 0.950 . S
C1249 C1248 1.349 . S
C1249 C1265 1.349 . S
C1250 C1248 1.327 . S
C1250 C1269 1.429 . S
C1250 H1274 0.950 . S
C1251 C1268 1.574 . S
C1251 C1270 1.368 . S
C1251 H1275 0.949 . S
H1252 C1256 0.949 . S
C1253 C1254 1.349 . S
C1253 C1255 1.327 . S
C1253 H1276 0.950 . S
C1254 C1253 1.349 . S
C1254 C1266 1.349 . S
C1255 C1253 1.327 . S
C1255 C1271 1.429 . S
C1255 H1277 0.950 . S
C1256 H1252 0.949 . S
C1256 C1264 1.574 . S
C1256 C1272 1.368 . S
H1257 C1265 0.950 . S
H1258 C1263 0.950 . S
H1259 C1264 0.949 . S
H1260 C1266 0.950 . S
H1261 C1267 0.950 . S
H1262 C1268 0.949 . S
C1263 H1258 0.950 . S
C1263 C1265 1.327 . S
C1263 C1269 1.429 . S
C1264 C1256 1.574 . S
C1264 H1259 0.949 . S
C1264 C1270 1.368 . S
C1265 C1249 1.349 . S
C1265 H1257 0.950 . S
C1265 C1263 1.327 . S
C1266 C1254 1.349 . S
C1266 H1260 0.950 . S
C1266 C1267 1.327 . S
C1267 H1261 0.950 . S
C1267 C1266 1.327 . S
C1267 C1271 1.429 . S
C1268 C1251 1.574 . S
C1268 H1262 0.949 . S
C1268 C1272 1.368 . S
C1269 C1250 1.429 . S
C1269 C1263 1.429 . S
C1269 C1270 1.523 . S
C1270 C1251 1.368 . S
C1270 C1264 1.368 . S
C1270 C1269 1.523 . S
C1271 C1255 1.429 . S
C1271 C1267 1.429 . S
C1271 C1272 1.523 . S
C1272 C1256 1.368 . S
C1272 C1268 1.368 . S
C1272 C1271 1.523 . S
H1273 C1248 0.950 . S
H1274 C1250 0.950 . S
H1275 C1251 0.949 . S
H1276 C1253 0.950 . S
H1277 C1255 0.950 . S
C1278 C1279 1.349 . S
C1278 C1280 1.327 . S
C1278 H1303 0.950 . S
C1279 C1278 1.349 . S
C1279 C1295 1.349 . S
C1280 C1278 1.327 . S
C1280 C1299 1.429 . S
C1280 H1304 0.950 . S
C1281 C1298 1.574 . S
C1281 C1300 1.368 . S
C1281 H1305 0.949 . S
H1282 C1286 0.949 . S
C1283 C1284 1.349 . S
C1283 C1285 1.327 . S
C1283 H1306 0.950 . S
C1284 C1283 1.349 . S
C1284 C1296 1.349 . S
C1285 C1283 1.327 . S
C1285 C1301 1.429 . S
C1285 H1307 0.950 . S
C1286 H1282 0.949 . S
C1286 C1294 1.574 . S
C1286 C1302 1.368 . S
H1287 C1295 0.950 . S
H1288 C1293 0.950 . S
H1289 C1294 0.949 . S
H1290 C1296 0.950 . S
H1291 C1297 0.950 . S
H1292 C1298 0.949 . S
C1293 H1288 0.950 . S
C1293 C1295 1.327 . S
C1293 C1299 1.429 . S
C1294 C1286 1.574 . S
C1294 H1289 0.949 . S
C1294 C1300 1.368 . S
C1295 C1279 1.349 . S
C1295 H1287 0.950 . S
C1295 C1293 1.327 . S
C1296 C1284 1.349 . S
C1296 H1290 0.950 . S
C1296 C1297 1.327 . S
C1297 H1291 0.950 . S
C1297 C1296 1.327 . S
C1297 C1301 1.429 . S
C1298 C1281 1.574 . S
C1298 H1292 0.949 . S
C1298 C1302 1.368 . S
C1299 C1280 1.429 . S
C1299 C1293 1.429 . S
C1299 C1300 1.523 . S
C1300 C1281 1.368 . S
C1300 C1294 1.368 . S
C1300 C1299 1.523 . S
C1301 C1285 1.429 . S
C1301 C1297 1.429 . S
C1301 C1302 1.523 . S
C1302 C1286 1.368 . S
C1302 C1298 1.368 . S
C1302 C1301 1.523 . S
H1303 C1278 0.950 . S
H1304 C1280 0.950 . S
H1305 C1281 0.949 . S
H1306 C1283 0.950 . S
H1307 C1285 0.950 . S
C1308 C1309 1.349 . S
C1308 C1310 1.327 . S
C1308 H1333 0.950 . S
C1309 C1308 1.349 . S
C1309 C1325 1.349 . S
C1310 C1308 1.327 . S
C1310 C1329 1.429 . S
C1310 H1334 0.950 . S
C1311 C1328 1.574 . S
C1311 C1330 1.368 . S
C1311 H1335 0.949 . S
H1312 C1316 0.949 . S
C1313 C1314 1.349 . S
C1313 C1315 1.327 . S
C1313 H1336 0.950 . S
C1314 C1313 1.349 . S
C1314 C1326 1.349 . S
C1315 C1313 1.327 . S
C1315 C1331 1.429 . S
C1315 H1337 0.950 . S
C1316 H1312 0.949 . S
C1316 C1324 1.574 . S
C1316 C1332 1.368 . S
H1317 C1325 0.950 . S
H1318 C1323 0.950 . S
H1319 C1324 0.949 . S
H1320 C1326 0.950 . S
H1321 C1327 0.950 . S
H1322 C1328 0.949 . S
C1323 H1318 0.950 . S
C1323 C1325 1.327 . S
C1323 C1329 1.429 . S
C1324 C1316 1.574 . S
C1324 H1319 0.949 . S
C1324 C1330 1.368 . S
C1325 C1309 1.349 . S
C1325 H1317 0.950 . S
C1325 C1323 1.327 . S
C1326 C1314 1.349 . S
C1326 H1320 0.950 . S
C1326 C1327 1.327 . S
C1327 H1321 0.950 . S
C1327 C1326 1.327 . S
C1327 C1331 1.429 . S
C1328 C1311 1.574 . S
C1328 H1322 0.949 . S
C1328 C1332 1.368 . S
C1329 C1310 1.429 . S
C1329 C1323 1.429 . S
C1329 C1330 1.523 . S
C1330 C1311 1.368 . S
C1330 C1324 1.368 . S
C1330 C1329 1.523 . S
C1331 C1315 1.429 . S
C1331 C1327 1.429 . S
C1331 C1332 1.523 . S
C1332 C1316 1.368 . S
C1332 C1328 1.368 . S
C1332 C1331 1.523 . S
H1333 C1308 0.950 . S
H1334 C1310 0.950 . S
H1335 C1311 0.949 . S
H1336 C1313 0.950 . S
H1337 C1315 0.950 . S
C1338 C1339 1.349 . S
C1338 C1340 1.327 . S
C1338 H1363 0.950 . S
C1339 C1338 1.349 . S
C1339 C1355 1.349 . S
C1340 C1338 1.327 . S
C1340 C1359 1.429 . S
C1340 H1364 0.950 . S
C1341 C1358 1.574 . S
C1341 C1360 1.368 . S
C1341 H1365 0.949 . S
H1342 C1346 0.949 . S
C1343 C1344 1.349 . S
C1343 C1345 1.327 . S
C1343 H1366 0.950 . S
C1344 C1343 1.349 . S
C1344 C1356 1.349 . S
C1345 C1343 1.327 . S
C1345 C1361 1.429 . S
C1345 H1367 0.950 . S
C1346 H1342 0.949 . S
C1346 C1354 1.574 . S
C1346 C1362 1.368 . S
H1347 C1355 0.950 . S
H1348 C1353 0.950 . S
H1349 C1354 0.949 . S
H1350 C1356 0.950 . S
H1351 C1357 0.950 . S
H1352 C1358 0.949 . S
C1353 H1348 0.950 . S
C1353 C1355 1.327 . S
C1353 C1359 1.429 . S
C1354 C1346 1.574 . S
C1354 H1349 0.949 . S
C1354 C1360 1.368 . S
C1355 C1339 1.349 . S
C1355 H1347 0.950 . S
C1355 C1353 1.327 . S
C1356 C1344 1.349 . S
C1356 H1350 0.950 . S
C1356 C1357 1.327 . S
C1357 H1351 0.950 . S
C1357 C1356 1.327 . S
C1357 C1361 1.429 . S
C1358 C1341 1.574 . S
C1358 H1352 0.949 . S
C1358 C1362 1.368 . S
C1359 C1340 1.429 . S
C1359 C1353 1.429 . S
C1359 C1360 1.523 . S
C1360 C1341 1.368 . S
C1360 C1354 1.368 . S
C1360 C1359 1.523 . S
C1361 C1345 1.429 . S
C1361 C1357 1.429 . S
C1361 C1362 1.523 . S
C1362 C1346 1.368 . S
C1362 C1358 1.368 . S
C1362 C1361 1.523 . S
H1363 C1338 0.950 . S
H1364 C1340 0.950 . S
H1365 C1341 0.949 . S
H1366 C1343 0.950 . S
H1367 C1345 0.950 . S
C1368 C1369 1.349 . S
C1368 C1370 1.327 . S
C1368 H1393 0.950 . S
C1369 C1368 1.349 . S
C1369 C1385 1.349 . S
C1370 C1368 1.327 . S
C1370 C1389 1.429 . S
C1370 H1394 0.950 . S
C1371 C1388 1.574 . S
C1371 C1390 1.368 . S
C1371 H1395 0.949 . S
H1372 C1376 0.949 . S
C1373 C1374 1.349 . S
C1373 C1375 1.327 . S
C1373 H1396 0.950 . S
C1374 C1373 1.349 . S
C1374 C1386 1.349 . S
C1375 C1373 1.327 . S
C1375 C1391 1.429 . S
C1375 H1397 0.950 . S
C1376 H1372 0.949 . S
C1376 C1384 1.574 . S
C1376 C1392 1.368 . S
H1377 C1385 0.950 . S
H1378 C1383 0.950 . S
H1379 C1384 0.949 . S
H1380 C1386 0.950 . S
H1381 C1387 0.950 . S
H1382 C1388 0.949 . S
C1383 H1378 0.950 . S
C1383 C1385 1.327 . S
C1383 C1389 1.429 . S
C1384 C1376 1.574 . S
C1384 H1379 0.949 . S
C1384 C1390 1.368 . S
C1385 C1369 1.349 . S
C1385 H1377 0.950 . S
C1385 C1383 1.327 . S
C1386 C1374 1.349 . S
C1386 H1380 0.950 . S
C1386 C1387 1.327 . S
C1387 H1381 0.950 . S
C1387 C1386 1.327 . S
C1387 C1391 1.429 . S
C1388 C1371 1.574 . S
C1388 H1382 0.949 . S
C1388 C1392 1.368 . S
C1389 C1370 1.429 . S
C1389 C1383 1.429 . S
C1389 C1390 1.523 . S
C1390 C1371 1.368 . S
C1390 C1384 1.368 . S
C1390 C1389 1.523 . S
C1391 C1375 1.429 . S
C1391 C1387 1.429 . S
C1391 C1392 1.523 . S
C1392 C1376 1.368 . S
C1392 C1388 1.368 . S
C1392 C1391 1.523 . S
H1393 C1368 0.950 . S
H1394 C1370 0.950 . S
H1395 C1371 0.949 . S
H1396 C1373 0.950 . S
H1397 C1375 0.950 . S
C1398 C1399 1.349 . S
C1398 C1400 1.327 . S
C1398 H1423 0.950 . S
C1399 C1398 1.349 . S
C1399 C1415 1.349 . S
C1400 C1398 1.327 . S
C1400 C1419 1.429 . S
C1400 H1424 0.950 . S
C1401 C1418 1.574 . S
C1401 C1420 1.368 . S
C1401 H1425 0.949 . S
H1402 C1406 0.949 . S
C1403 C1404 1.349 . S
C1403 C1405 1.327 . S
C1403 H1426 0.950 . S
C1404 C1403 1.349 . S
C1404 C1416 1.349 . S
C1405 C1403 1.327 . S
C1405 C1421 1.429 . S
C1405 H1427 0.950 . S
C1406 H1402 0.949 . S
C1406 C1414 1.574 . S
C1406 C1422 1.368 . S
H1407 C1415 0.950 . S
H1408 C1413 0.950 . S
H1409 C1414 0.949 . S
H1410 C1416 0.950 . S
H1411 C1417 0.950 . S
H1412 C1418 0.949 . S
C1413 H1408 0.950 . S
C1413 C1415 1.327 . S
C1413 C1419 1.429 . S
C1414 C1406 1.574 . S
C1414 H1409 0.949 . S
C1414 C1420 1.368 . S
C1415 C1399 1.349 . S
C1415 H1407 0.950 . S
C1415 C1413 1.327 . S
C1416 C1404 1.349 . S
C1416 H1410 0.950 . S
C1416 C1417 1.327 . S
C1417 H1411 0.950 . S
C1417 C1416 1.327 . S
C1417 C1421 1.429 . S
C1418 C1401 1.574 . S
C1418 H1412 0.949 . S
C1418 C1422 1.368 . S
C1419 C1400 1.429 . S
C1419 C1413 1.429 . S
C1419 C1420 1.523 . S
C1420 C1401 1.368 . S
C1420 C1414 1.368 . S
C1420 C1419 1.523 . S
C1421 C1405 1.429 . S
C1421 C1417 1.429 . S
C1421 C1422 1.523 . S
C1422 C1406 1.368 . S
C1422 C1418 1.368 . S
C1422 C1421 1.523 . S
H1423 C1398 0.950 . S
H1424 C1400 0.950 . S
H1425 C1401 0.949 . S
H1426 C1403 0.950 . S
H1427 C1405 0.950 . S
C1428 C1429 1.349 . S
C1428 C1430 1.327 . S
C1428 H1453 0.950 . S
C1429 C1428 1.349 . S
C1429 C1445 1.349 . S
C1430 C1428 1.327 . S
C1430 C1449 1.429 . S
C1430 H1454 0.950 . S
C1431 C1448 1.574 . S
C1431 C1450 1.368 . S
C1431 H1455 0.949 . S
H1432 C1436 0.949 . S
C1433 C1434 1.349 . S
C1433 C1435 1.327 . S
C1433 H1456 0.950 . S
C1434 C1433 1.349 . S
C1434 C1446 1.349 . S
C1435 C1433 1.327 . S
C1435 C1451 1.429 . S
C1435 H1457 0.950 . S
C1436 H1432 0.949 . S
C1436 C1444 1.574 . S
C1436 C1452 1.368 . S
H1437 C1445 0.950 . S
H1438 C1443 0.950 . S
H1439 C1444 0.949 . S
H1440 C1446 0.950 . S
H1441 C1447 0.950 . S
H1442 C1448 0.949 . S
C1443 H1438 0.950 . S
C1443 C1445 1.327 . S
C1443 C1449 1.429 . S
C1444 C1436 1.574 . S
C1444 H1439 0.949 . S
C1444 C1450 1.368 . S
C1445 C1429 1.349 . S
C1445 H1437 0.950 . S
C1445 C1443 1.327 . S
C1446 C1434 1.349 . S
C1446 H1440 0.950 . S
C1446 C1447 1.327 . S
C1447 H1441 0.950 . S
C1447 C1446 1.327 . S
C1447 C1451 1.429 . S
C1448 C1431 1.574 . S
C1448 H1442 0.949 . S
C1448 C1452 1.368 . S
C1449 C1430 1.429 . S
C1449 C1443 1.429 . S
C1449 C1450 1.523 . S
C1450 C1431 1.368 . S
C1450 C1444 1.368 . S
C1450 C1449 1.523 . S
C1451 C1435 1.429 . S
C1451 C1447 1.429 . S
C1451 C1452 1.523 . S
C1452 C1436 1.368 . S
C1452 C1448 1.368 . S
C1452 C1451 1.523 . S
H1453 C1428 0.950 . S
H1454 C1430 0.950 . S
H1455 C1431 0.949 . S
H1456 C1433 0.950 . S
H1457 C1435 0.950 . S
C1458 C1459 1.349 . S
C1458 C1460 1.327 . S
C1458 H1483 0.950 . S
C1459 C1458 1.349 . S
C1459 C1475 1.349 . S
C1460 C1458 1.327 . S
C1460 C1479 1.429 . S
C1460 H1484 0.950 . S
C1461 C1478 1.574 . S
C1461 C1480 1.368 . S
C1461 H1485 0.949 . S
H1462 C1466 0.949 . S
C1463 C1464 1.349 . S
C1463 C1465 1.327 . S
C1463 H1486 0.950 . S
C1464 C1463 1.349 . S
C1464 C1476 1.349 . S
C1465 C1463 1.327 . S
C1465 C1481 1.429 . S
C1465 H1487 0.950 . S
C1466 H1462 0.949 . S
C1466 C1474 1.574 . S
C1466 C1482 1.368 . S
H1467 C1475 0.950 . S
H1468 C1473 0.950 . S
H1469 C1474 0.949 . S
H1470 C1476 0.950 . S
H1471 C1477 0.950 . S
H1472 C1478 0.949 . S
C1473 H1468 0.950 . S
C1473 C1475 1.327 . S
C1473 C1479 1.429 . S
C1474 C1466 1.574 . S
C1474 H1469 0.949 . S
C1474 C1480 1.368 . S
C1475 C1459 1.349 . S
C1475 H1467 0.950 . S
C1475 C1473 1.327 . S
C1476 C1464 1.349 . S
C1476 H1470 0.950 . S
C1476 C1477 1.327 . S
C1477 H1471 0.950 . S
C1477 C1476 1.327 . S
C1477 C1481 1.429 . S
C1478 C1461 1.574 . S
C1478 H1472 0.949 . S
C1478 C1482 1.368 . S
C1479 C1460 1.429 . S
C1479 C1473 1.429 . S
C1479 C1480 1.523 . S
C1480 C1461 1.368 . S
C1480 C1474 1.368 . S
C1480 C1479 1.523 . S
C1481 C1465 1.429 . S
C1481 C1477 1.429 . S
C1481 C1482 1.523 . S
C1482 C1466 1.368 . S
C1482 C1478 1.368 . S
C1482 C1481 1.523 . S
H1483 C1458 0.950 . S
H1484 C1460 0.950 . S
H1485 C1461 0.949 . S
H1486 C1463 0.950 . S
H1487 C1465 0.950 . S
C1488 C1489 1.349 . S
C1488 C1490 1.327 . S
C1488 H1513 0.950 . S
C1489 C1488 1.349 . S
C1489 C1505 1.349 . S
C1490 C1488 1.327 . S
C1490 C1509 1.429 . S
C1490 H1514 0.950 . S
C1491 C1508 1.574 . S
C1491 C1510 1.368 . S
C1491 H1515 0.949 . S
H1492 C1496 0.949 . S
C1493 C1494 1.349 . S
C1493 C1495 1.327 . S
C1493 H1516 0.950 . S
C1494 C1493 1.349 . S
C1494 C1506 1.349 . S
C1495 C1493 1.327 . S
C1495 C1511 1.429 . S
C1495 H1517 0.950 . S
C1496 H1492 0.949 . S
C1496 C1504 1.574 . S
C1496 C1512 1.368 . S
H1497 C1505 0.950 . S
H1498 C1503 0.950 . S
H1499 C1504 0.949 . S
H1500 C1506 0.950 . S
H1501 C1507 0.950 . S
H1502 C1508 0.949 . S
C1503 H1498 0.950 . S
C1503 C1505 1.327 . S
C1503 C1509 1.429 . S
C1504 C1496 1.574 . S
C1504 H1499 0.949 . S
C1504 C1510 1.368 . S
C1505 C1489 1.349 . S
C1505 H1497 0.950 . S
C1505 C1503 1.327 . S
C1506 C1494 1.349 . S
C1506 H1500 0.950 . S
C1506 C1507 1.327 . S
C1507 H1501 0.950 . S
C1507 C1506 1.327 . S
C1507 C1511 1.429 . S
C1508 C1491 1.574 . S
C1508 H1502 0.949 . S
C1508 C1512 1.368 . S
C1509 C1490 1.429 . S
C1509 C1503 1.429 . S
C1509 C1510 1.523 . S
C1510 C1491 1.368 . S
C1510 C1504 1.368 . S
C1510 C1509 1.523 . S
C1511 C1495 1.429 . S
C1511 C1507 1.429 . S
C1511 C1512 1.523 . S
C1512 C1496 1.368 . S
C1512 C1508 1.368 . S
C1512 C1511 1.523 . S
H1513 C1488 0.950 . S
H1514 C1490 0.950 . S
H1515 C1491 0.949 . S
H1516 C1493 0.950 . S
H1517 C1495 0.950 . S
C804 C502 1.560 . S
C799 C31 1.538 . S
C834 C571 1.553 . S
C829 C61 1.535 . S
C864 C509 1.557 . S
C859 C121 1.539 . S
C894 C572 1.554 . S
C889 C211 1.532 . S
C924 C625 1.557 . S
C919 C1 1.544 . S
C954 C661 1.526 . S
C949 C91 1.509 . S
C979 C151 1.524 . S
C984 C721 1.556 . S
C1014 C784 1.526 . S
C1009 C181 1.493 . S
C1044 C624 1.550 . S
C1039 C80 1.540 . S
C1069 C140 1.494 . S
C1074 C668 1.526 . S
C1104 C714 1.556 . S
C1099 C200 1.523 . S
C1134 C783 1.529 . S
C1129 C20 1.514 . S
C1159 C271 1.538 . S
C1164 C562 1.560 . S
C1194 C519 1.553 . S
C1189 C331 1.527 . S
C1219 C380 1.545 . S
C1224 C555 1.557 . S
C1249 C421 1.540 . S
C1254 C518 1.554 . S
C1284 C730 1.556 . S
C1279 C241 1.544 . S
C1314 C774 1.525 . S
C1309 C320 1.498 . S
C1344 C608 1.556 . S
C1339 C361 1.540 . S
C1369 C440 1.505 . S
C1374 C677 1.526 . S
C1404 C731 1.550 . S
C1399 C301 1.526 . S
C1434 C767 1.526 . S
C1429 C391 1.506 . S
C1464 C615 1.556 . S
C1459 C451 1.538 . S
C1489 C260 1.513 . S
C1494 C678 1.528 . S
