# Generated by pormake.
# Topology tsx, (6,3)-cn, num edge types: 1
# Building blocks:
#     Node 0, Type 0, BuildingBlock: CIFDUS_clean_sbu_1, # of connection points: 6
#     Node 1, Type 0, BuildingBlock: CIFDUS_clean_sbu_1, # of connection points: 6
#     Node 2, Type 1, BuildingBlock: BELTOD_clean_linker_0, # of connection points: 3
#     Node 3, Type 1, BuildingBlock: BELTOD_clean_linker_0, # of connection points: 3
#     Node 4, Type 1, BuildingBlock: BELTOD_clean_linker_0, # of connection points: 3
#     Node 5, Type 1, BuildingBlock: BELTOD_clean_linker_0, # of connection points: 3
#     Edge 6, Type (0, 1), BuildingBlock: FUNLAD_clean_linker_1, # of connection points: 2
#     Edge 7, Type (0, 1), BuildingBlock: FUNLAD_clean_linker_1, # of connection points: 2
#     Edge 8, Type (0, 1), BuildingBlock: FUNLAD_clean_linker_1, # of connection points: 2
#     Edge 9, Type (0, 1), BuildingBlock: FUNLAD_clean_linker_1, # of connection points: 2
#     Edge 10, Type (0, 1), BuildingBlock: FUNLAD_clean_linker_1, # of connection points: 2
#     Edge 11, Type (0, 1), BuildingBlock: FUNLAD_clean_linker_1, # of connection points: 2
#     Edge 12, Type (0, 1), BuildingBlock: FUNLAD_clean_linker_1, # of connection points: 2
#     Edge 13, Type (0, 1), BuildingBlock: FUNLAD_clean_linker_1, # of connection points: 2
#     Edge 14, Type (0, 1), BuildingBlock: FUNLAD_clean_linker_1, # of connection points: 2
#     Edge 15, Type (0, 1), BuildingBlock: FUNLAD_clean_linker_1, # of connection points: 2
#     Edge 16, Type (0, 1), BuildingBlock: FUNLAD_clean_linker_1, # of connection points: 2
#     Edge 17, Type (0, 1), BuildingBlock: FUNLAD_clean_linker_1, # of connection points: 2
# Relax obj value: 0.115
# Max RMSD: 0.149
# Mean RMSD: 0.108
data_MOF--net-tsx--node1-CIFDUS_clean_sbu_1--node2-BELTOD_clean_linker_0--edge1-FUNLAD_clean_linker_1
_symmetry_space_group_name_H-M    P1
_symmetry_Int_Tables_number       1
_symmetry_cell_setting            triclinic
loop_
_symmetry_equiv_pos_as_xyz
'x, y, z'
_cell_length_a     20.968033
_cell_length_b     25.891845
_cell_length_c     42.352284
_cell_angle_alpha  97.582284
_cell_angle_beta   92.254011
_cell_angle_gamma 91.04162
loop_
_atom_site_label
_atom_site_type_symbol
_atom_site_fract_x
_atom_site_fract_y
_atom_site_fract_z
_atom_type_partial_charge
O0 O 0.03112 0.12183 0.02917 0.0
Mn1 Mn 0.06801 0.0466 0.0216 0.0
O2 O 0.93278 0.11709 1.0051 0.0
Mn3 Mn 0.93764 0.05022 0.98369 0.0
O4 O 0.10393 0.97119 0.01327 0.0
O5 O 0.1551 0.07734 0.0322 0.0
Mn6 Mn 0.20181 0.04001 0.05547 0.0
O7 O 0.05631 0.03884 0.06994 0.0
O8 O 0.20686 0.97589 0.0308 0.0
O9 O 0.08181 0.05349 0.97365 0.0
O10 O 0.98578 0.04472 0.9475 0.0
O11 O 0.25126 0.09787 0.04916 0.0
O12 O 0.15641 0.03958 0.09213 0.0
C13 C 0.93414 0.98351 0.00966 0.0
C14 C 0.97798 0.14241 0.02187 0.0
C15 C 0.15888 0.95082 0.01643 0.0
C16 C 0.20102 0.11111 0.03369 0.0
C17 C 0.09579 0.03769 0.09401 0.0
C18 C 0.04657 0.04938 0.94787 0.0
O19 O 0.98088 0.01632 0.01048 0.0
O20 O 0.88587 0.99479 0.99207 0.0
O21 O 0.44733 0.59689 0.51067 0.0
Mn22 Mn 0.50437 0.53021 0.50688 0.0
O23 O 0.35004 0.57122 0.48919 0.0
Mn24 Mn 0.375 0.5071 0.46964 0.0
O25 O 0.56153 0.46343 0.50249 0.0
O26 O 0.58128 0.57785 0.51603 0.0
Mn27 Mn 0.63634 0.55284 0.54216 0.0
O28 O 0.49581 0.52685 0.55585 0.0
O29 O 0.66066 0.4902 0.52062 0.0
O30 O 0.51443 0.53388 0.45816 0.0
O31 O 0.42023 0.50821 0.43309 0.0
O32 O 0.67182 0.61486 0.53328 0.0
O33 O 0.593 0.54874 0.57907 0.0
C34 C 0.38692 0.4437 0.49679 0.0
C35 C 0.38838 0.60577 0.50388 0.0
C36 C 0.62153 0.45543 0.50695 0.0
C37 C 0.62012 0.61696 0.51586 0.0
C38 C 0.53421 0.53582 0.58057 0.0
C39 C 0.47855 0.52259 0.43275 0.0
O40 O 0.42702 0.4824 0.49747 0.0
O41 O 0.33713 0.44598 0.47802 0.0
P42 P 0.08557 0.08588 0.43522 0.0
H43 H 0.05143 0.1646 0.4874 0.0
H44 H 0.9484 0.19707 0.50489 0.0
H45 H 0.85254 0.07154 0.44252 0.0
H46 H 0.95619 0.03869 0.42546 0.0
H47 H 0.22262 0.07537 0.44252 0.0
H48 H 0.29006 0.01129 0.46375 0.0
H49 H 0.12172 0.92727 0.48666 0.0
H50 H 0.05429 0.99189 0.46516 0.0
H51 H 0.06902 0.14715 0.38281 0.0
H52 H 0.0582 0.9848 0.39546 0.0
O53 O 0.12885 0.14131 0.43919 0.0
H54 H 0.03747 0.12503 0.32666 0.0
H55 H 0.02649 0.96207 0.33876 0.0
C56 C 1.01144 0.10024 0.45437 0.0
C57 C 1.00834 0.14358 0.47781 0.0
C58 C 0.9492 0.16247 0.48753 0.0
C59 C 0.89209 0.13816 0.4739 0.0
C60 C 0.89568 0.09166 0.45289 0.0
C61 C 0.95495 0.07287 0.44312 0.0
C62 C 0.13341 0.03851 0.45233 0.0
C63 C 0.20007 0.04326 0.45218 0.0
C64 C 0.23868 0.00653 0.4643 0.0
C65 C 0.21163 0.96356 0.47633 0.0
C66 C 0.14448 0.95903 0.47681 0.0
C67 C 0.1057 0.99624 0.46479 0.0
C68 C 0.06795 0.06751 0.39313 0.0
C69 C 0.06123 0.10651 0.3733 0.0
C70 C 0.04329 0.09372 0.34104 0.0
C71 C 0.0311 0.04145 0.32796 0.0
C72 C 0.0364 1.00254 0.34809 0.0
C73 C 0.05494 0.01542 0.3804 0.0
P74 P 0.08244 0.97281 0.59302 0.0
H75 H 0.02625 0.95065 0.52811 0.0
H76 H 0.91905 0.92015 0.50737 0.0
H77 H 0.85312 0.93783 0.60338 0.0
H78 H 0.95952 0.96554 0.62391 0.0
H79 H 0.20065 0.9694 0.55804 0.0
H80 H 0.26403 0.03691 0.53743 0.0
H81 H 0.12191 0.14998 0.56656 0.0
H82 H 0.05792 0.08219 0.58652 0.0
H83 H 0.15345 0.93335 0.64565 0.0
H84 H 0.02147 0.0561 0.63443 0.0
O85 O 0.11866 0.91594 0.58545 0.0
H86 H 0.15362 0.95572 0.7034 0.0
H87 H 0.0215 0.07882 0.69234 0.0
C88 C 1.00105 0.96161 0.57755 0.0
C89 C 0.98831 0.94891 0.5446 0.0
C90 C 0.92718 0.93115 0.53279 0.0
C91 C 0.87777 0.92638 0.55387 0.0
C92 C 0.89008 0.94162 0.58659 0.0
C93 C 0.95124 0.95797 0.59837 0.0
C94 C 0.12476 0.02087 0.57418 0.0
C95 C 0.18274 0.00858 0.55982 0.0
C96 C 0.21911 0.04715 0.54813 0.0
C97 C 0.19886 0.09883 0.55127 0.0
C98 C 0.13978 0.11076 0.56478 0.0
C99 C 0.10292 0.07197 0.57599 0.0
C100 C 0.08685 0.99263 0.63563 0.0
C101 C 0.12506 0.96557 0.65556 0.0
C102 C 0.12563 0.97881 0.68872 0.0
C103 C 0.08797 0.01958 0.7025 0.0
C104 C 0.05115 0.04742 0.68238 0.0
C105 C 0.05126 0.03456 0.64926 0.0
P106 P 0.64894 0.59838 0.93178 0.0
H107 H 0.62715 0.68795 0.97948 0.0
H108 H 0.52944 0.72537 1.00125 0.0
H109 H 0.42014 0.59336 0.95239 0.0
H110 H 0.51814 0.55637 0.93069 0.0
H111 H 0.75975 0.5995 0.97606 0.0
H112 H 0.81221 0.53188 1.00128 0.0
H113 H 0.66862 0.41953 0.95784 0.0
H114 H 0.61664 0.48818 0.93244 0.0
H115 H 0.5544 0.63583 0.88831 0.0
H116 H 0.6978 0.51811 0.88326 0.0
O117 O 0.70074 0.64832 0.93271 0.0
H118 H 0.52734 0.6126 0.83191 0.0
H119 H 0.67077 0.49437 0.82625 0.0
C120 C 0.57932 0.62045 0.95257 0.0
C121 C 0.58221 0.66692 0.97365 0.0
C122 C 0.52635 0.68818 0.98612 0.0
C123 C 0.46677 0.66348 0.97754 0.0
C124 C 0.46479 0.61459 0.95848 0.0
C125 C 0.52089 0.59311 0.94626 0.0
C126 C 0.68551 0.5484 0.95158 0.0
C127 C 0.73973 0.56023 0.97187 0.0
C128 C 0.76961 0.5212 0.98653 0.0
C129 C 0.74519 0.46956 0.98133 0.0
C130 C 0.68908 0.45869 0.96206 0.0
C131 C 0.65935 0.49777 0.94744 0.0
C132 C 0.62642 0.57734 0.8904 0.0
C133 C 0.57888 0.60385 0.87523 0.0
C134 C 0.56313 0.59025 0.8428 0.0
C135 C 0.59549 0.55024 0.82465 0.0
C136 C 0.64413 0.52456 0.83977 0.0
C137 C 0.65951 0.53799 0.87236 0.0
P138 P 0.65141 0.49637 0.09994 0.0
H139 H 0.63695 0.41693 0.04475 0.0
H140 H 0.54411 0.37024 0.01747 0.0
H141 H 0.41993 0.46897 0.07683 0.0
H142 H 0.51332 0.51564 0.10381 0.0
H143 H 0.78346 0.52053 0.08669 0.0
H144 H 0.83363 0.59418 0.06638 0.0
H145 H 0.64804 0.65948 0.05204 0.0
H146 H 0.59792 0.58483 0.07234 0.0
H147 H 0.57411 0.45267 0.14596 0.0
H148 H 0.69787 0.58716 0.14471 0.0
O149 O 0.70411 0.44926 0.1015 0.0
H150 H 0.56496 0.47448 0.20315 0.0
H151 H 0.6886 0.60966 0.20222 0.0
C152 C 0.58201 0.4685 0.07699 0.0
C153 C 0.58975 0.42887 0.05166 0.0
C154 C 0.5366 0.40242 0.03596 0.0
C155 C 0.47455 0.41562 0.04489 0.0
C156 C 0.46678 0.45789 0.06894 0.0
C157 C 0.52028 0.48433 0.08472 0.0
C158 C 0.687 0.54735 0.08104 0.0
C159 C 0.75346 0.5505 0.079 0.0
C160 C 0.78223 0.59318 0.06774 0.0
C161 C 0.74485 0.63375 0.05862 0.0
C162 C 0.67803 0.62917 0.05935 0.0
C163 C 0.64933 0.58654 0.0708 0.0
C164 C 0.63489 0.51911 0.14079 0.0
C165 C 0.59746 0.48801 0.15785 0.0
C166 C 0.59217 0.50077 0.19073 0.0
C167 C 0.6249 0.54484 0.2073 0.0
C168 C 0.66214 0.576 0.19006 0.0
C169 C 0.66713 0.56328 0.15711 0.0
H170 H 0.1506 0.17621 0.01458 0.0
C171 C 0.19657 0.16249 0.02227 0.0
H172 H 0.29482 0.1789 0.03154 0.0
H173 H 0.36218 0.3677 0.96925 0.0
H174 H 0.36752 0.30578 0.92074 0.0
H175 H 0.31864 0.2176 0.9175 0.0
H176 H 0.2633 0.191 0.96264 0.0
C177 C 0.24898 0.19364 0.02439 0.0
C178 C 0.24957 0.24954 0.01993 0.0
C179 C 0.28052 0.2647 0.99349 0.0
C180 C 0.3096 0.31507 0.9956 0.0
C181 C 0.34067 0.32929 0.96891 0.0
C182 C 0.34368 0.29429 0.94102 0.0
C183 C 0.31612 0.24462 0.93919 0.0
C184 C 0.28493 0.22972 0.96515 0.0
H185 H 0.43326 0.34057 0.0222 0.0
C186 C 0.42078 0.38015 0.03147 0.0
H187 H 0.34407 0.43111 0.04084 0.0
H188 H 0.17692 0.23761 0.07065 0.0
H189 H 0.16276 0.30195 0.11696 0.0
H190 H 0.21466 0.38905 0.12122 0.0
H191 H 0.28085 0.4124 0.0793 0.0
C192 C 0.35847 0.39206 0.03197 0.0
C193 C 0.30887 0.34948 0.02453 0.0
C194 C 0.26818 0.33764 0.0487 0.0
C195 C 0.23837 0.28737 0.04633 0.0
C196 C 0.20074 0.27517 0.07144 0.0
C197 C 0.19212 0.31177 0.09805 0.0
C198 C 0.22133 0.36084 0.10044 0.0
C199 C 0.25932 0.37373 0.07622 0.0
H200 H 0.12807 0.87433 0.98937 0.0
C201 C 0.16721 0.89572 1.00315 0.0
H202 H 0.26109 0.89283 0.02271 0.0
H203 H 0.3074 0.66157 0.02481 0.0
H204 H 0.26729 0.68127 0.07816 0.0
H205 H 0.21163 0.76332 0.09396 0.0
H206 H 0.19536 0.82598 0.05644 0.0
C207 C 0.22272 0.87215 0.00796 0.0
C208 C 0.23523 0.81719 0.99548 0.0
C209 C 0.24345 0.78084 0.01741 0.0
C210 C 0.27605 0.73394 0.00846 0.0
C211 C 0.28403 0.69829 0.03082 0.0
C212 C 0.26094 0.70901 0.06135 0.0
C213 C 0.22957 0.7552 0.07024 0.0
C214 C 0.22083 0.7909 0.04861 0.0
H215 H 0.41408 0.72434 0.00641 0.0
C216 C 0.40831 0.6917 0.98742 0.0
H217 H 0.34473 0.65482 0.95085 0.0
H218 H 0.21577 0.87394 0.94588 0.0
H219 H 0.24842 0.85105 0.89161 0.0
H220 H 0.30505 0.76952 0.87599 0.0
H221 H 0.32929 0.71045 0.91452 0.0
C222 C 0.35141 0.68456 0.97133 0.0
C223 C 0.30107 0.72402 0.97773 0.0
C224 C 0.28513 0.75693 0.95448 0.0
C225 C 0.25233 0.80389 0.96344 0.0
C226 C 0.24011 0.83765 0.94031 0.0
C227 C 0.25865 0.82499 0.90907 0.0
C228 C 0.29052 0.77907 0.90027 0.0
C229 C 0.30414 0.74548 0.92265 0.0
H230 H 0.98027 0.92448 0.03601 0.0
C231 C 0.93606 0.9352 0.02457 0.0
H232 H 0.84099 0.91386 0.00981 0.0
H233 H 0.84642 0.6743 0.99657 0.0
H234 H 0.85101 0.68765 0.94109 0.0
H235 H 0.87185 0.77534 0.9264 0.0
H236 H 0.88844 0.85007 0.96716 0.0
C237 C 0.88424 0.90334 0.02222 0.0
C238 C 0.88443 0.8501 0.03169 0.0
C239 C 0.87504 0.80679 0.00759 0.0
C240 C 0.86213 0.75644 0.01599 0.0
C241 C 0.85424 0.71371 0.99146 0.0
C242 C 0.85738 0.72074 0.95951 0.0
C243 C 0.86914 0.77009 0.95125 0.0
C244 C 0.87819 0.8127 0.97489 0.0
H245 H 0.74323 0.70499 0.03503 0.0
C246 C 0.77364 0.68154 0.04862 0.0
H247 H 0.8639 0.6789 0.07269 0.0
H248 H 0.90578 0.92403 0.0839 0.0
H249 H 0.90541 0.90988 0.13929 0.0
H250 H 0.88384 0.82231 0.15391 0.0
H251 H 0.86174 0.74845 0.11317 0.0
C252 C 0.83356 0.6991 0.05724 0.0
C253 C 0.85743 0.74966 0.04849 0.0
C254 C 0.87214 0.79209 0.07267 0.0
C255 C 0.88529 0.84257 0.06425 0.0
C256 C 0.89662 0.88475 0.08885 0.0
C257 C 0.89639 0.8772 0.12081 0.0
C258 C 0.88415 0.8279 0.12903 0.0
C259 C 0.87167 0.78579 0.10537 0.0
H260 H 1.00446 0.22072 0.04801 0.0
C261 C 0.96938 0.19882 0.0317 0.0
H262 H 0.88515 0.20125 1.00298 0.0
H263 H 0.7495 0.39812 0.05211 0.0
H264 H 0.68993 0.33626 0.07882 0.0
H265 H 0.73083 0.24824 0.08217 0.0
H266 H 0.8313 0.22177 0.05888 0.0
C267 C 0.92051 0.2234 0.019 0.0
C268 C 0.90845 0.28003 0.02618 0.0
C269 C 0.85063 0.29533 0.04046 0.0
C270 C 0.82697 0.34585 0.03844 0.0
C271 C 0.76876 0.35985 0.05263 0.0
C272 C 0.73446 0.32483 0.06813 0.0
C273 C 0.75746 0.27528 0.07 0.0
C274 C 0.81489 0.26049 0.05639 0.0
H275 H 0.75736 0.38645 0.98608 0.0
C276 C 0.77744 0.42528 0.994 0.0
H277 H 0.85326 0.46646 0.02196 0.0
H278 H 0.02586 0.26596 1.00023 0.0
H279 H 0.08802 0.32988 0.97699 0.0
H280 H 0.04761 0.41815 0.97431 0.0
H281 H 0.94453 0.44289 0.99483 0.0
C282 C 0.83019 0.42917 0.01354 0.0
C283 C 0.86111 0.38106 0.02204 0.0
C284 C 0.9226 0.36798 0.0111 0.0
C285 C 0.94617 0.31712 0.0129 0.0
C286 C 1.00594 0.30407 0.99999 0.0
C287 C 0.04214 0.34043 0.98647 0.0
C288 C 0.01938 0.39014 0.98497 0.0
C289 C 0.96016 0.40385 0.99688 0.0
H290 H 0.64175 0.66176 0.47843 0.0
C291 C 0.61009 0.66136 0.49812 0.0
H292 H 0.56664 0.70688 0.53508 0.0
H293 H 0.82975 0.8211 0.57394 0.0
H294 H 0.81067 0.77386 0.61817 0.0
H295 H 0.71561 0.71635 0.61777 0.0
H296 H 0.64008 0.70518 0.57297 0.0
C297 C 0.59758 0.70732 0.51512 0.0
C298 C 0.64678 0.75041 0.51768 0.0
C299 C 0.68866 0.75899 0.54522 0.0
C300 C 0.74213 0.79389 0.54609 0.0
C301 C 0.78637 0.79764 0.57258 0.0
C302 C 0.7765 0.77013 0.59811 0.0
C303 C 0.72314 0.73768 0.59784 0.0
C304 C 0.67991 0.73174 0.57177 0.0
H305 H 0.77491 0.91105 0.55879 0.0
C306 C 0.81467 0.90138 0.5435 0.0
H307 H 0.84749 0.84674 0.50636 0.0
H308 H 0.57374 0.74587 0.46262 0.0
H309 H 0.59106 0.79555 0.41872 0.0
H310 H 0.68164 0.8583 0.42098 0.0
H311 H 0.75562 0.87185 0.46715 0.0
C312 C 0.80819 0.85911 0.5213 0.0
C313 C 0.7516 0.82285 0.52031 0.0
C314 C 0.70869 0.81546 0.49328 0.0
C315 C 0.6564 0.77912 0.49192 0.0
C316 C 0.6144 0.77259 0.46465 0.0
C317 C 0.62372 0.80095 0.43938 0.0
C318 C 0.67473 0.83633 0.44067 0.0
C319 C 0.71685 0.84371 0.46726 0.0
H320 H 0.70069 0.40511 0.49285 0.0
C321 C 0.6494 0.40472 0.496 0.0
H322 H 0.56824 0.356 0.49884 0.0
H323 H 0.811 0.22722 0.42539 0.0
H324 H 0.77813 0.27008 0.37988 0.0
H325 H 0.68846 0.33062 0.38318 0.0
H326 H 0.6307 0.34864 0.43204 0.0
C327 C 0.61835 0.35845 0.49344 0.0
C328 C 0.65673 0.31026 0.48797 0.0
C329 C 0.6882 0.29852 0.45898 0.0
C330 C 0.73972 0.26345 0.45707 0.0
C331 C 0.77175 0.25382 0.42814 0.0
C332 C 0.75322 0.27797 0.40184 0.0
C333 C 0.70266 0.31206 0.40369 0.0
C334 C 0.67025 0.32231 0.43186 0.0
H335 H 0.78609 0.1374 0.47567 0.0
C336 C 0.82879 0.16228 0.47931 0.0
H337 H 0.86398 0.24004 0.4852 0.0
H338 H 0.5987 0.31677 0.54491 0.0
H339 H 0.62889 0.2712 0.58977 0.0
H340 H 0.71808 0.21025 0.5864 0.0
H341 H 0.77826 0.19461 0.53832 0.0
C342 C 0.82234 0.2143 0.48443 0.0
C343 C 0.75918 0.23966 0.48402 0.0
C344 C 0.72325 0.24697 0.51184 0.0
C345 C 0.67166 0.28218 0.51376 0.0
C346 C 0.63818 0.29043 0.54227 0.0
C347 C 0.65489 0.26448 0.5681 0.0
C348 C 0.70522 0.23016 0.56622 0.0
C349 C 0.73936 0.22151 0.53852 0.0
H350 H 0.39391 0.40721 0.5409 0.0
C351 C 0.39389 0.39942 0.51507 0.0
H352 H 0.38064 0.34562 0.47381 0.0
H353 H 0.34842 0.19383 0.58937 0.0
H354 H 0.45506 0.2226 0.60963 0.0
H355 H 0.51371 0.29058 0.58614 0.0
H356 H 0.46674 0.32999 0.5421 0.0
C357 C 0.38061 0.35126 0.49973 0.0
C358 C 0.34665 0.31025 0.51483 0.0
C359 C 0.37576 0.28657 0.53991 0.0
C360 C 0.34218 0.24671 0.55318 0.0
C361 C 0.37191 0.22412 0.57845 0.0
C362 C 0.43308 0.24017 0.59022 0.0
C363 C 0.46618 0.27842 0.57695 0.0
C364 C 0.43837 0.30113 0.55189 0.0
H365 H 0.26533 0.12862 0.51809 0.0
C366 C 0.2391 0.13938 0.53953 0.0
H367 H 0.22218 0.19922 0.57715 0.0
H368 H 0.27377 0.34951 0.46829 0.0
H369 H 0.16781 0.32061 0.44858 0.0
H370 H 0.11141 0.25014 0.47081 0.0
H371 H 0.16104 0.20824 0.51296 0.0
C372 C 0.24486 0.18838 0.55469 0.0
C373 C 0.28038 0.22973 0.54083 0.0
C374 C 0.25111 0.25348 0.51589 0.0
C375 C 0.284 0.29385 0.50297 0.0
C376 C 0.25233 0.3178 0.47864 0.0
C377 C 0.19099 0.30183 0.46717 0.0
C378 C 0.15924 0.26221 0.47968 0.0
C379 C 0.18852 0.23834 0.50383 0.0
H380 H 0.31079 0.66143 0.50826 0.0
C381 C 0.36241 0.6585 0.5108 0.0
H382 H 0.44985 0.70084 0.51502 0.0
H383 H 0.31264 0.86931 0.44042 0.0
H384 H 0.3954 0.83814 0.40492 0.0
H385 H 0.4664 0.76818 0.4177 0.0
H386 H 0.45472 0.72884 0.46602 0.0
C387 C 0.39815 0.70263 0.51463 0.0
C388 C 0.36664 0.75316 0.51135 0.0
C389 C 0.37565 0.77727 0.4836 0.0
C390 C 0.33523 0.81827 0.4765 0.0
C391 C 0.34291 0.83921 0.44758 0.0
C392 C 0.39007 0.82142 0.42682 0.0
C393 C 0.43 0.782 0.43398 0.0
C394 C 0.42279 0.75978 0.46186 0.0
H395 H 0.30497 0.93707 0.49377 0.0
C396 C 0.25552 0.92482 0.48795 0.0
H397 H 0.19077 0.86028 0.48276 0.0
H398 H 0.34558 0.72263 0.56935 0.0
H399 H 0.26611 0.75652 0.60647 0.0
H400 H 0.19565 0.82716 0.59419 0.0
H401 H 0.20424 0.86448 0.54474 0.0
C402 C 0.23928 0.87452 0.48876 0.0
C403 C 0.28686 0.83603 0.49763 0.0
C404 C 0.28118 0.81448 0.52651 0.0
C405 C 0.32136 0.77333 0.53347 0.0
C406 C 0.31517 0.75308 0.56266 0.0
C407 C 0.27012 0.77242 0.58422 0.0
C408 C 0.23048 0.81224 0.57731 0.0
C409 C 0.23576 0.83321 0.54884 0.0
H410 H 0.11031 0.03501 0.14504 0.0
C411 C 0.07322 0.03402 0.12621 0.0
H412 H 0.97319 0.02988 0.11647 0.0
H413 H 0.07355 0.95769 0.25785 0.0
H414 H 0.10386 0.87814 0.226 0.0
H415 H 0.08382 0.86504 0.16766 0.0
H416 H 0.03452 0.93264 0.1408 0.0
C417 C 1.01216 0.02953 0.13411 0.0
C418 C 0.99901 0.02801 0.16844 0.0
C419 C 0.0235 0.98707 0.18417 0.0
C420 C 0.03199 0.9937 0.218 0.0
C421 C 0.06282 0.9541 0.23252 0.0
C422 C 0.08103 0.90821 0.21443 0.0
C423 C 0.06998 0.9009 0.18157 0.0
C424 C 0.04198 0.93992 0.16646 0.0
H425 H 0.9814 0.99206 0.28708 0.0
C426 C 1.01128 0.02686 0.29371 0.0
H427 H 0.06237 0.08794 0.27688 0.0
H428 H 0.93791 0.10856 0.14586 0.0
H429 H 0.8968 0.18499 0.17757 0.0
H430 H 0.90646 0.1952 0.23634 0.0
H431 H 0.95775 0.12939 0.2638 0.0
C432 C 0.03173 0.05356 0.27065 0.0
C433 C 1.01216 0.04034 0.23617 0.0
C434 C 0.98002 0.0782 0.22047 0.0
C435 C 0.97361 0.07207 0.18658 0.0
C436 C 0.94378 0.11146 0.17154 0.0
C437 C 0.91985 0.15535 0.18944 0.0
C438 C 0.92533 0.16111 0.22254 0.0
C439 C 0.95508 0.12317 0.238 0.0
H440 H 0.13011 0.05019 0.9174 0.0
C441 C 0.07825 0.04856 0.91719 0.0
H442 H 0.9928 0.04334 0.88857 0.0
H443 H 0.12158 0.12355 0.77073 0.0
H444 H 0.08946 0.20725 0.79738 0.0
H445 H 0.05017 0.21544 0.85194 0.0
H446 H 0.04368 0.14003 0.88035 0.0
C447 C 0.04466 0.04414 0.8892 0.0
C448 C 0.07576 0.04049 0.85804 0.0
C449 C 0.07813 0.08458 0.84154 0.0
C450 C 0.09906 0.07954 0.80975 0.0
C451 C 0.10356 0.12476 0.79439 0.0
C452 C 0.08585 0.17313 0.80954 0.0
C453 C 0.06383 0.17776 0.84027 0.0
C454 C 0.06009 0.13416 0.85625 0.0
H455 H 0.03748 0.04829 0.74594 0.0
C456 C 0.08184 0.03135 0.73756 0.0
H457 H 0.17273 0.00618 0.75169 0.0
H458 H 0.08337 0.9495 0.8842 0.0
H459 H 0.11917 0.8665 0.8584 0.0
H460 H 0.15304 0.85704 0.80286 0.0
H461 H 0.15169 0.93048 0.77284 0.0
C462 C 0.12754 0.02226 0.75927 0.0
C463 C 0.11542 0.02991 0.7941 0.0
C464 C 0.11725 0.98655 0.81142 0.0
C465 C 0.09741 0.99189 0.84344 0.0
C466 C 0.09818 0.94771 0.85992 0.0
C467 C 0.11851 0.89977 0.84537 0.0
C468 C 0.13763 0.89446 0.81411 0.0
C469 C 0.13675 0.93707 0.79716 0.0
H470 H 0.45887 0.52654 0.61518 0.0
C471 C 0.50982 0.53185 0.61258 0.0
H472 H 0.60129 0.54034 0.63589 0.0
H473 H 0.50196 0.64125 0.7675 0.0
H474 H 0.49029 0.71843 0.74123 0.0
H475 H 0.49579 0.7132 0.68282 0.0
H476 H 0.51291 0.63055 0.6503 0.0
C477 C 0.5502 0.53582 0.63839 0.0
C478 C 0.52922 0.53631 0.67152 0.0
C479 C 0.51745 0.58452 0.6901 0.0
C480 C 0.514 0.58741 0.72378 0.0
C481 C 0.50442 0.63654 0.74183 0.0
C482 C 0.49776 0.68125 0.72705 0.0
C483 C 0.50091 0.67832 0.69417 0.0
C484 C 0.51086 0.63067 0.6758 0.0
H485 H 0.62251 0.52139 0.77555 0.0
C486 C 0.58352 0.53772 0.78955 0.0
H487 H 0.48781 0.56223 0.78755 0.0
H488 H 0.54364 0.43719 0.64219 0.0
H489 H 0.54911 0.35864 0.66788 0.0
H490 H 0.54037 0.36306 0.72612 0.0
H491 H 0.52674 0.44603 0.75909 0.0
C492 C 0.52805 0.54682 0.77428 0.0
C493 C 0.52253 0.54197 0.73877 0.0
C494 C 0.52866 0.49301 0.71982 0.0
C495 C 0.53256 0.4903 0.68617 0.0
C496 C 0.5405 0.44123 0.66784 0.0
C497 C 0.54344 0.39592 0.68227 0.0
C498 C 0.53856 0.39843 0.71507 0.0
C499 C 0.53116 0.44628 0.73375 0.0
H500 H 0.47333 0.50984 0.38057 0.0
C501 C 0.50412 0.5251 0.40111 0.0
H502 H 0.59271 0.56327 0.4158 0.0
H503 H 0.60697 0.44653 0.26494 0.0
H504 H 0.61882 0.36747 0.28946 0.0
H505 H 0.61454 0.36964 0.34772 0.0
H506 H 0.59932 0.45113 0.38195 0.0
C507 C 0.56153 0.54553 0.39609 0.0
C508 C 0.5804 0.54649 0.36264 0.0
C509 C 0.59168 0.49902 0.34313 0.0
C510 C 0.59417 0.49785 0.30958 0.0
C511 C 0.60415 0.44963 0.29058 0.0
C512 C 0.61129 0.40398 0.30435 0.0
C513 C 0.60901 0.40521 0.33717 0.0
C514 C 0.59967 0.4521 0.35648 0.0
H515 H 0.6669 0.57776 0.25477 0.0
C516 C 0.62578 0.55646 0.24268 0.0
H517 H 0.53702 0.51995 0.24898 0.0
H518 H 0.56833 0.64474 0.39397 0.0
H519 H 0.55885 0.72449 0.36979 0.0
H520 H 0.56146 0.72257 0.31144 0.0
H521 H 0.5736 0.64104 0.27689 0.0
C522 C 0.57907 0.54069 0.2603 0.0
C523 C 0.58611 0.54428 0.29563 0.0
C524 C 0.57984 0.59247 0.31539 0.0
C525 C 0.57759 0.59356 0.34904 0.0
C526 C 0.56997 0.64187 0.36829 0.0
C527 C 0.56459 0.68785 0.35472 0.0
C528 C 0.56612 0.68676 0.32186 0.0
C529 C 0.57334 0.63972 0.30229 0.0
loop_
_geom_bond_atom_site_label_1
_geom_bond_atom_site_label_2
_geom_bond_distance
_geom_bond_site_symmetry_2
_ccdc_geom_bond_type
O0 Mn1 2.162 1_655 S
O0 C14 1.246 . S
Mn1 O0 2.162 1_455 S
Mn1 O4 2.160 1_544 S
Mn1 O5 2.221 . S
Mn1 O7 2.163 . S
Mn1 O9 2.160 1_554 S
Mn1 O19 2.221 1_444 S
O2 Mn3 2.087 . S
O2 C14 1.256 1_556 S
Mn3 O2 2.087 . S
Mn3 O10 2.089 . S
Mn3 O19 2.290 1_545 S
Mn3 O20 2.250 1_546 S
O4 Mn1 2.160 1_566 S
O4 C15 1.239 1_556 S
O5 Mn1 2.221 . S
O5 Mn6 2.290 . S
O5 C16 1.278 . S
Mn6 O5 2.290 . S
Mn6 O8 2.089 1_545 S
Mn6 O11 2.251 . S
Mn6 O12 2.087 . S
O7 Mn1 2.163 . S
O7 C17 1.244 . S
O8 Mn6 2.089 1_565 S
O8 C15 1.256 . S
O9 Mn1 2.160 1_556 S
O9 C18 1.239 . S
O10 Mn3 2.089 . S
O10 C18 1.256 1_655 S
O11 Mn6 2.251 . S
O11 C16 1.241 . S
O12 Mn6 2.087 . S
O12 C17 1.256 . S
C13 O19 1.278 1_554 S
C13 O20 1.241 . S
C14 O0 1.246 . S
C14 O2 1.256 1_554 S
C15 O4 1.239 1_554 S
C15 O8 1.256 . S
C16 O5 1.278 . S
C16 O11 1.241 . S
C17 O7 1.244 . S
C17 O12 1.256 . S
C18 O9 1.239 . S
C18 O10 1.256 1_455 S
O19 Mn1 2.221 1_666 S
O19 Mn3 2.290 1_565 S
O19 C13 1.278 1_556 S
O20 Mn3 2.250 1_564 S
O20 C13 1.241 . S
O21 Mn22 2.163 . S
O21 C35 1.244 . S
Mn22 O21 2.163 . S
Mn22 O25 2.160 . S
Mn22 O26 2.221 . S
Mn22 O28 2.163 . S
Mn22 O30 2.160 . S
Mn22 O40 2.221 . S
O23 Mn24 2.087 . S
O23 C35 1.256 . S
Mn24 O23 2.087 . S
Mn24 O31 2.089 . S
Mn24 O40 2.290 . S
Mn24 O41 2.251 . S
O25 Mn22 2.160 . S
O25 C36 1.239 . S
O26 Mn22 2.221 . S
O26 Mn27 2.290 . S
O26 C37 1.278 . S
Mn27 O26 2.290 . S
Mn27 O29 2.089 . S
Mn27 O32 2.251 . S
Mn27 O33 2.087 . S
O28 Mn22 2.163 . S
O28 C38 1.244 . S
O29 Mn27 2.089 . S
O29 C36 1.256 . S
O30 Mn22 2.160 . S
O30 C39 1.239 . S
O31 Mn24 2.089 . S
O31 C39 1.256 . S
O32 Mn27 2.251 . S
O32 C37 1.241 . S
O33 Mn27 2.087 . S
O33 C38 1.256 . S
C34 O40 1.278 . S
C34 O41 1.241 . S
C35 O21 1.244 . S
C35 O23 1.256 . S
C36 O25 1.239 . S
C36 O29 1.256 . S
C37 O26 1.278 . S
C37 O32 1.241 . S
C38 O28 1.244 . S
C38 O33 1.256 . S
C39 O30 1.239 . S
C39 O31 1.256 . S
O40 Mn22 2.221 . S
O40 Mn24 2.290 . S
O40 C34 1.278 . S
O41 Mn24 2.251 . S
O41 C34 1.241 . S
P42 O53 1.490 . S
P42 C56 1.812 . S
P42 C62 1.803 1_545 S
P42 C68 1.819 . S
H43 C57 0.941 . S
H44 C58 0.941 . S
H45 C60 0.940 . S
H46 C61 0.940 . S
H47 C63 0.939 . S
H48 C64 0.942 . S
H49 C66 0.940 . S
H50 C67 0.939 . S
H51 C69 0.941 . S
H52 C73 0.939 . S
O53 P42 1.490 . S
H54 C70 0.939 . S
H55 C72 0.940 . S
C56 P42 1.812 . S
C56 C57 1.389 . S
C56 C61 1.391 1_455 S
C57 H43 0.941 . S
C57 C56 1.389 . S
C57 C58 1.397 1_455 S
C58 H44 0.941 . S
C58 C57 1.397 1_655 S
C58 C59 1.378 . S
C59 C58 1.378 . S
C59 C60 1.378 . S
C60 H45 0.940 . S
C60 C59 1.378 . S
C60 C61 1.396 . S
C61 H46 0.940 . S
C61 C56 1.391 1_655 S
C61 C60 1.396 . S
C62 P42 1.803 1_565 S
C62 C63 1.378 . S
C62 C67 1.400 . S
C63 H47 0.939 . S
C63 C62 1.378 . S
C63 C64 1.361 . S
C64 H48 0.942 . S
C64 C63 1.361 . S
C64 C65 1.369 . S
C65 C64 1.369 . S
C65 C66 1.404 . S
C66 H49 0.940 . S
C66 C65 1.404 . S
C66 C67 1.389 . S
C67 H50 0.939 . S
C67 C62 1.400 . S
C67 C66 1.389 . S
C68 P42 1.819 . S
C68 C69 1.391 . S
C68 C73 1.391 1_545 S
C69 H51 0.941 . S
C69 C68 1.391 . S
C69 C70 1.396 . S
C70 H54 0.939 . S
C70 C69 1.396 . S
C70 C71 1.397 . S
C71 C70 1.397 . S
C71 C72 1.385 1_545 S
C72 H55 0.940 . S
C72 C71 1.385 1_565 S
C72 C73 1.388 . S
C73 H52 0.939 . S
C73 C68 1.391 1_565 S
C73 C72 1.388 . S
P74 O85 1.490 1_545 S
P74 C88 1.806 1_455 S
P74 C94 1.803 . S
P74 C100 1.819 . S
H75 C89 0.941 . S
H76 C90 0.939 . S
H77 C92 0.940 1_545 S
H78 C93 0.940 . S
H79 C95 0.939 . S
H80 C96 0.942 . S
H81 C98 0.940 . S
H82 C99 0.954 . S
H83 C101 0.941 1_565 S
H84 C105 0.939 . S
O85 P74 1.490 1_565 S
H86 C102 0.939 1_565 S
H87 C104 0.940 . S
C88 P74 1.806 1_655 S
C88 C89 1.388 1_645 S
C88 C93 1.397 . S
C89 H75 0.941 . S
C89 C88 1.388 1_465 S
C89 C90 1.397 1_455 S
C90 H76 0.939 . S
C90 C89 1.397 1_655 S
C90 C91 1.378 . S
C91 C90 1.378 . S
C91 C92 1.378 . S
C92 H77 0.940 1_565 S
C92 C91 1.378 . S
C92 C93 1.396 1_565 S
C93 H78 0.940 . S
C93 C88 1.397 . S
C93 C92 1.396 1_545 S
C94 P74 1.803 . S
C94 C95 1.378 . S
C94 C99 1.400 . S
C95 H79 0.939 . S
C95 C94 1.378 . S
C95 C96 1.361 . S
C96 H80 0.942 . S
C96 C95 1.361 . S
C96 C97 1.369 . S
C97 C96 1.369 . S
C97 C98 1.404 . S
C98 H81 0.940 . S
C98 C97 1.404 . S
C98 C99 1.389 . S
C99 H82 0.954 . S
C99 C94 1.400 . S
C99 C98 1.389 . S
C100 P74 1.819 . S
C100 C101 1.391 . S
C100 C105 1.391 . S
C101 H83 0.941 1_545 S
C101 C100 1.391 . S
C101 C102 1.396 . S
C102 H86 0.939 1_545 S
C102 C101 1.396 . S
C102 C103 1.397 . S
C103 C102 1.397 . S
C103 C104 1.385 . S
C104 H87 0.940 . S
C104 C103 1.385 . S
C104 C105 1.388 . S
C105 H84 0.939 . S
C105 C100 1.391 . S
C105 C104 1.388 . S
P106 O117 1.490 . S
P106 C120 1.812 . S
P106 C126 1.803 . S
P106 C132 1.819 . S
H107 C121 0.941 . S
H108 C122 0.943 . S
H109 C124 0.940 . S
H110 C125 0.940 . S
H111 C127 0.939 . S
H112 C128 0.942 . S
H113 C130 0.940 . S
H114 C131 0.939 . S
H115 C133 0.941 . S
H116 C137 0.939 . S
O117 P106 1.490 . S
H118 C134 0.939 . S
H119 C136 0.940 . S
C120 P106 1.812 . S
C120 C121 1.389 . S
C120 C125 1.391 . S
C121 H107 0.941 . S
C121 C120 1.389 . S
C121 C122 1.397 . S
C122 H108 0.943 . S
C122 C121 1.397 . S
C122 C123 1.378 . S
C123 C122 1.378 . S
C123 C124 1.378 . S
C124 H109 0.940 . S
C124 C123 1.378 . S
C124 C125 1.396 . S
C125 H110 0.940 . S
C125 C120 1.391 . S
C125 C124 1.396 . S
C126 P106 1.803 . S
C126 C127 1.378 . S
C126 C131 1.400 . S
C127 H111 0.939 . S
C127 C126 1.378 . S
C127 C128 1.361 . S
C128 H112 0.942 . S
C128 C127 1.361 . S
C128 C129 1.369 . S
C129 C128 1.369 . S
C129 C130 1.404 . S
C130 H113 0.940 . S
C130 C129 1.404 . S
C130 C131 1.389 . S
C131 H114 0.939 . S
C131 C126 1.400 . S
C131 C130 1.389 . S
C132 P106 1.819 . S
C132 C133 1.391 . S
C132 C137 1.391 . S
C133 H115 0.941 . S
C133 C132 1.391 . S
C133 C134 1.396 . S
C134 H118 0.939 . S
C134 C133 1.396 . S
C134 C135 1.397 . S
C135 C134 1.397 . S
C135 C136 1.385 . S
C136 H119 0.940 . S
C136 C135 1.385 . S
C136 C137 1.388 . S
C137 H116 0.939 . S
C137 C132 1.391 . S
C137 C136 1.388 . S
P138 O149 1.490 . S
P138 C152 1.812 . S
P138 C158 1.803 . S
P138 C164 1.819 . S
H139 C153 0.941 . S
H140 C154 0.939 . S
H141 C156 0.940 . S
H142 C157 0.940 . S
H143 C159 0.939 . S
H144 C160 0.942 . S
H145 C162 0.940 . S
H146 C163 0.939 . S
H147 C165 0.941 . S
H148 C169 0.939 . S
O149 P138 1.490 . S
H150 C166 0.939 . S
H151 C168 0.940 . S
C152 P138 1.812 . S
C152 C153 1.389 . S
C152 C157 1.391 . S
C153 H139 0.941 . S
C153 C152 1.389 . S
C153 C154 1.397 . S
C154 H140 0.939 . S
C154 C153 1.397 . S
C154 C155 1.378 . S
C155 C154 1.378 . S
C155 C156 1.378 . S
C156 H141 0.940 . S
C156 C155 1.378 . S
C156 C157 1.396 . S
C157 H142 0.940 . S
C157 C152 1.391 . S
C157 C156 1.396 . S
C158 P138 1.803 . S
C158 C159 1.378 . S
C158 C163 1.400 . S
C159 H143 0.939 . S
C159 C158 1.378 . S
C159 C160 1.361 . S
C160 H144 0.942 . S
C160 C159 1.361 . S
C160 C161 1.369 . S
C161 C160 1.369 . S
C161 C162 1.404 . S
C162 H145 0.940 . S
C162 C161 1.404 . S
C162 C163 1.389 . S
C163 H146 0.939 . S
C163 C158 1.400 . S
C163 C162 1.389 . S
C164 P138 1.819 . S
C164 C165 1.391 . S
C164 C169 1.391 . S
C165 H147 0.941 . S
C165 C164 1.391 . S
C165 C166 1.396 . S
C166 H150 0.939 . S
C166 C165 1.396 . S
C166 C167 1.397 . S
C167 C166 1.397 . S
C167 C168 1.385 . S
C168 H151 0.940 . S
C168 C167 1.385 . S
C168 C169 1.388 . S
C169 H148 0.939 . S
C169 C164 1.391 . S
C169 C168 1.388 . S
H170 C171 0.951 . S
C171 H170 0.951 . S
C171 C177 1.265 . S
H172 C177 0.950 . S
H173 C181 0.949 . S
H174 C182 0.950 . S
H175 C183 0.951 . S
H176 C184 0.951 . S
C177 C171 1.265 . S
C177 H172 0.950 . S
C177 C178 1.478 . S
C178 C177 1.478 . S
C178 C179 1.397 . S
C178 C195 1.394 . S
C179 C178 1.397 . S
C179 C180 1.438 . S
C179 C184 1.429 1_554 S
C180 C179 1.438 . S
C180 C181 1.428 1_554 S
C180 C193 1.394 . S
C181 H173 0.949 . S
C181 C180 1.428 1_556 S
C181 C182 1.345 . S
C182 H174 0.950 . S
C182 C181 1.345 . S
C182 C183 1.424 . S
C183 H175 0.951 . S
C183 C182 1.424 . S
C183 C184 1.347 . S
C184 H176 0.951 . S
C184 C179 1.429 1_556 S
C184 C183 1.347 . S
H185 C186 0.951 . S
C186 H185 0.951 . S
C186 C192 1.265 . S
H187 C192 0.950 . S
H188 C196 0.949 . S
H189 C197 0.950 . S
H190 C198 0.951 . S
H191 C199 0.951 . S
C192 C186 1.265 . S
C192 H187 0.950 . S
C192 C193 1.478 . S
C193 C180 1.394 . S
C193 C192 1.478 . S
C193 C194 1.397 . S
C194 C193 1.397 . S
C194 C195 1.438 . S
C194 C199 1.429 . S
C195 C178 1.394 . S
C195 C194 1.438 . S
C195 C196 1.428 . S
C196 H188 0.949 . S
C196 C195 1.428 . S
C196 C197 1.345 . S
C197 H189 0.950 . S
C197 C196 1.345 . S
C197 C198 1.424 . S
C198 H190 0.951 . S
C198 C197 1.424 . S
C198 C199 1.347 . S
C199 H191 0.951 . S
C199 C194 1.429 . S
C199 C198 1.347 . S
H200 C201 0.951 1_556 S
C201 H200 0.951 1_554 S
C201 C207 1.265 . S
H202 C207 0.950 . S
H203 C211 0.949 . S
H204 C212 0.950 . S
H205 C213 0.951 . S
H206 C214 0.951 . S
C207 C201 1.265 . S
C207 H202 0.950 . S
C207 C208 1.478 . S
C208 C207 1.478 . S
C208 C209 1.397 . S
C208 C225 1.394 1_554 S
C209 C208 1.397 . S
C209 C210 1.438 . S
C209 C214 1.429 . S
C210 C209 1.438 . S
C210 C211 1.428 . S
C210 C223 1.394 1_554 S
C211 H203 0.949 . S
C211 C210 1.428 . S
C211 C212 1.345 . S
C212 H204 0.950 . S
C212 C211 1.345 . S
C212 C213 1.424 . S
C213 H205 0.951 . S
C213 C212 1.424 . S
C213 C214 1.347 . S
C214 H206 0.951 . S
C214 C209 1.429 . S
C214 C213 1.347 . S
H215 C216 0.951 . S
C216 H215 0.951 . S
C216 C222 1.265 . S
H217 C222 0.950 . S
H218 C226 0.949 . S
H219 C227 0.950 . S
H220 C228 0.951 . S
H221 C229 0.951 . S
C222 C216 1.265 . S
C222 H217 0.950 . S
C222 C223 1.478 . S
C223 C210 1.394 1_556 S
C223 C222 1.478 . S
C223 C224 1.397 . S
C224 C223 1.397 . S
C224 C225 1.438 . S
C224 C229 1.429 . S
C225 C208 1.394 1_556 S
C225 C224 1.438 . S
C225 C226 1.428 . S
C226 H218 0.949 . S
C226 C225 1.428 . S
C226 C227 1.345 . S
C227 H219 0.950 . S
C227 C226 1.345 . S
C227 C228 1.424 . S
C228 H220 0.951 . S
C228 C227 1.424 . S
C228 C229 1.347 . S
C229 H221 0.951 . S
C229 C224 1.429 . S
C229 C228 1.347 . S
H230 C231 0.951 . S
C231 H230 0.951 . S
C231 C237 1.265 . S
H232 C237 0.950 . S
H233 C241 0.949 . S
H234 C242 0.950 . S
H235 C243 0.951 . S
H236 C244 0.951 . S
C237 C231 1.265 . S
C237 H232 0.950 . S
C237 C238 1.478 . S
C238 C237 1.478 . S
C238 C239 1.397 . S
C238 C255 1.394 . S
C239 C238 1.397 . S
C239 C240 1.438 . S
C239 C244 1.429 . S
C240 C239 1.438 . S
C240 C241 1.428 . S
C240 C253 1.394 . S
C241 H233 0.949 . S
C241 C240 1.428 . S
C241 C242 1.345 1_554 S
C242 H234 0.950 . S
C242 C241 1.345 1_556 S
C242 C243 1.424 . S
C243 H235 0.951 . S
C243 C242 1.424 . S
C243 C244 1.347 1_556 S
C244 H236 0.951 . S
C244 C239 1.429 . S
C244 C243 1.347 1_554 S
H245 C246 0.951 . S
C246 H245 0.951 . S
C246 C252 1.265 . S
H247 C252 0.950 . S
H248 C256 0.949 . S
H249 C257 0.950 . S
H250 C258 0.951 . S
H251 C259 0.951 . S
C252 C246 1.265 . S
C252 H247 0.950 . S
C252 C253 1.478 . S
C253 C240 1.394 . S
C253 C252 1.478 . S
C253 C254 1.397 . S
C254 C253 1.397 . S
C254 C255 1.438 . S
C254 C259 1.429 . S
C255 C238 1.394 . S
C255 C254 1.438 . S
C255 C256 1.428 . S
C256 H248 0.949 . S
C256 C255 1.428 . S
C256 C257 1.345 . S
C257 H249 0.950 . S
C257 C256 1.345 . S
C257 C258 1.424 . S
C258 H250 0.951 . S
C258 C257 1.424 . S
C258 C259 1.347 . S
C259 H251 0.951 . S
C259 C254 1.429 . S
C259 C258 1.347 . S
H260 C261 0.951 . S
C261 H260 0.951 . S
C261 C267 1.265 1_554 S
H262 C267 0.950 . S
H263 C271 0.949 . S
H264 C272 0.950 . S
H265 C273 0.951 . S
H266 C274 0.951 . S
C267 C261 1.265 1_556 S
C267 H262 0.950 . S
C267 C268 1.478 . S
C268 C267 1.478 . S
C268 C269 1.397 1_556 S
C268 C285 1.394 . S
C269 C268 1.397 1_554 S
C269 C270 1.438 . S
C269 C274 1.429 . S
C270 C269 1.438 . S
C270 C271 1.428 . S
C270 C283 1.394 1_554 S
C271 H263 0.949 . S
C271 C270 1.428 . S
C271 C272 1.345 . S
C272 H264 0.950 . S
C272 C271 1.345 . S
C272 C273 1.424 . S
C273 H265 0.951 . S
C273 C272 1.424 . S
C273 C274 1.347 . S
C274 H266 0.951 . S
C274 C269 1.429 . S
C274 C273 1.347 . S
H275 C276 0.951 . S
C276 H275 0.951 . S
C276 C282 1.265 . S
H277 C282 0.950 . S
H278 C286 0.949 . S
H279 C287 0.950 . S
H280 C288 0.951 . S
H281 C289 0.951 . S
C282 C276 1.265 . S
C282 H277 0.950 . S
C282 C283 1.478 . S
C283 C270 1.394 1_556 S
C283 C282 1.478 . S
C283 C284 1.397 . S
C284 C283 1.397 . S
C284 C285 1.438 . S
C284 C289 1.429 . S
C285 C268 1.394 . S
C285 C284 1.438 . S
C285 C286 1.428 . S
C286 H278 0.949 . S
C286 C285 1.428 . S
C286 C287 1.345 . S
C287 H279 0.950 . S
C287 C286 1.345 . S
C287 C288 1.424 . S
C288 H280 0.951 . S
C288 C287 1.424 . S
C288 C289 1.347 . S
C289 H281 0.951 . S
C289 C284 1.429 . S
C289 C288 1.347 . S
H290 C291 0.951 . S
C291 H290 0.951 . S
C291 C297 1.265 . S
H292 C297 0.950 . S
H293 C301 0.949 . S
H294 C302 0.950 . S
H295 C303 0.951 . S
H296 C304 0.951 . S
C297 C291 1.265 . S
C297 H292 0.950 . S
C297 C298 1.478 . S
C298 C297 1.478 . S
C298 C299 1.397 . S
C298 C315 1.394 . S
C299 C298 1.397 . S
C299 C300 1.438 . S
C299 C304 1.429 . S
C300 C299 1.438 . S
C300 C301 1.428 . S
C300 C313 1.394 . S
C301 H293 0.949 . S
C301 C300 1.428 . S
C301 C302 1.345 . S
C302 H294 0.950 . S
C302 C301 1.345 . S
C302 C303 1.424 . S
C303 H295 0.951 . S
C303 C302 1.424 . S
C303 C304 1.347 . S
C304 H296 0.951 . S
C304 C299 1.429 . S
C304 C303 1.347 . S
H305 C306 0.951 . S
C306 H305 0.951 . S
C306 C312 1.265 . S
H307 C312 0.950 . S
H308 C316 0.949 . S
H309 C317 0.950 . S
H310 C318 0.951 . S
H311 C319 0.951 . S
C312 C306 1.265 . S
C312 H307 0.950 . S
C312 C313 1.478 . S
C313 C300 1.394 . S
C313 C312 1.478 . S
C313 C314 1.397 . S
C314 C313 1.397 . S
C314 C315 1.438 . S
C314 C319 1.429 . S
C315 C298 1.394 . S
C315 C314 1.438 . S
C315 C316 1.428 . S
C316 H308 0.949 . S
C316 C315 1.428 . S
C316 C317 1.345 . S
C317 H309 0.950 . S
C317 C316 1.345 . S
C317 C318 1.424 . S
C318 H310 0.951 . S
C318 C317 1.424 . S
C318 C319 1.347 . S
C319 H311 0.951 . S
C319 C314 1.429 . S
C319 C318 1.347 . S
H320 C321 0.951 . S
C321 H320 0.951 . S
C321 C327 1.265 . S
H322 C327 0.950 . S
H323 C331 0.949 . S
H324 C332 0.950 . S
H325 C333 0.951 . S
H326 C334 0.951 . S
C327 C321 1.265 . S
C327 H322 0.950 . S
C327 C328 1.478 . S
C328 C327 1.478 . S
C328 C329 1.397 . S
C328 C345 1.394 . S
C329 C328 1.397 . S
C329 C330 1.438 . S
C329 C334 1.429 . S
C330 C329 1.438 . S
C330 C331 1.428 . S
C330 C343 1.394 . S
C331 H323 0.949 . S
C331 C330 1.428 . S
C331 C332 1.345 . S
C332 H324 0.950 . S
C332 C331 1.345 . S
C332 C333 1.424 . S
C333 H325 0.951 . S
C333 C332 1.424 . S
C333 C334 1.347 . S
C334 H326 0.951 . S
C334 C329 1.429 . S
C334 C333 1.347 . S
H335 C336 0.951 . S
C336 H335 0.951 . S
C336 C342 1.265 . S
H337 C342 0.950 . S
H338 C346 0.949 . S
H339 C347 0.950 . S
H340 C348 0.951 . S
H341 C349 0.951 . S
C342 C336 1.265 . S
C342 H337 0.950 . S
C342 C343 1.478 . S
C343 C330 1.394 . S
C343 C342 1.478 . S
C343 C344 1.397 . S
C344 C343 1.397 . S
C344 C345 1.438 . S
C344 C349 1.429 . S
C345 C328 1.394 . S
C345 C344 1.438 . S
C345 C346 1.428 . S
C346 H338 0.949 . S
C346 C345 1.428 . S
C346 C347 1.345 . S
C347 H339 0.950 . S
C347 C346 1.345 . S
C347 C348 1.424 . S
C348 H340 0.951 . S
C348 C347 1.424 . S
C348 C349 1.347 . S
C349 H341 0.951 . S
C349 C344 1.429 . S
C349 C348 1.347 . S
H350 C351 0.951 . S
C351 H350 0.951 . S
C351 C357 1.265 . S
H352 C357 0.950 . S
H353 C361 0.949 . S
H354 C362 0.950 . S
H355 C363 0.951 . S
H356 C364 0.951 . S
C357 C351 1.265 . S
C357 H352 0.950 . S
C357 C358 1.478 . S
C358 C357 1.478 . S
C358 C359 1.397 . S
C358 C375 1.394 . S
C359 C358 1.397 . S
C359 C360 1.438 . S
C359 C364 1.429 . S
C360 C359 1.438 . S
C360 C361 1.428 . S
C360 C373 1.394 . S
C361 H353 0.949 . S
C361 C360 1.428 . S
C361 C362 1.345 . S
C362 H354 0.950 . S
C362 C361 1.345 . S
C362 C363 1.424 . S
C363 H355 0.951 . S
C363 C362 1.424 . S
C363 C364 1.347 . S
C364 H356 0.951 . S
C364 C359 1.429 . S
C364 C363 1.347 . S
H365 C366 0.951 . S
C366 H365 0.951 . S
C366 C372 1.265 . S
H367 C372 0.950 . S
H368 C376 0.949 . S
H369 C377 0.950 . S
H370 C378 0.951 . S
H371 C379 0.951 . S
C372 C366 1.265 . S
C372 H367 0.950 . S
C372 C373 1.478 . S
C373 C360 1.394 . S
C373 C372 1.478 . S
C373 C374 1.397 . S
C374 C373 1.397 . S
C374 C375 1.438 . S
C374 C379 1.429 . S
C375 C358 1.394 . S
C375 C374 1.438 . S
C375 C376 1.428 . S
C376 H368 0.949 . S
C376 C375 1.428 . S
C376 C377 1.345 . S
C377 H369 0.950 . S
C377 C376 1.345 . S
C377 C378 1.424 . S
C378 H370 0.951 . S
C378 C377 1.424 . S
C378 C379 1.347 . S
C379 H371 0.951 . S
C379 C374 1.429 . S
C379 C378 1.347 . S
H380 C381 0.951 . S
C381 H380 0.951 . S
C381 C387 1.265 . S
H382 C387 0.950 . S
H383 C391 0.949 . S
H384 C392 0.950 . S
H385 C393 0.951 . S
H386 C394 0.951 . S
C387 C381 1.265 . S
C387 H382 0.950 . S
C387 C388 1.478 . S
C388 C387 1.478 . S
C388 C389 1.397 . S
C388 C405 1.394 . S
C389 C388 1.397 . S
C389 C390 1.438 . S
C389 C394 1.429 . S
C390 C389 1.438 . S
C390 C391 1.428 . S
C390 C403 1.394 . S
C391 H383 0.949 . S
C391 C390 1.428 . S
C391 C392 1.345 . S
C392 H384 0.950 . S
C392 C391 1.345 . S
C392 C393 1.424 . S
C393 H385 0.951 . S
C393 C392 1.424 . S
C393 C394 1.347 . S
C394 H386 0.951 . S
C394 C389 1.429 . S
C394 C393 1.347 . S
H395 C396 0.951 . S
C396 H395 0.951 . S
C396 C402 1.265 . S
H397 C402 0.950 . S
H398 C406 0.949 . S
H399 C407 0.950 . S
H400 C408 0.951 . S
H401 C409 0.951 . S
C402 C396 1.265 . S
C402 H397 0.950 . S
C402 C403 1.478 . S
C403 C390 1.394 . S
C403 C402 1.478 . S
C403 C404 1.397 . S
C404 C403 1.397 . S
C404 C405 1.438 . S
C404 C409 1.429 . S
C405 C388 1.394 . S
C405 C404 1.438 . S
C405 C406 1.428 . S
C406 H398 0.949 . S
C406 C405 1.428 . S
C406 C407 1.345 . S
C407 H399 0.950 . S
C407 C406 1.345 . S
C407 C408 1.424 . S
C408 H400 0.951 . S
C408 C407 1.424 . S
C408 C409 1.347 . S
C409 H401 0.951 . S
C409 C404 1.429 . S
C409 C408 1.347 . S
H410 C411 0.951 . S
C411 H410 0.951 . S
C411 C417 1.265 . S
H412 C417 0.950 1_655 S
H413 C421 0.949 . S
H414 C422 0.950 . S
H415 C423 0.951 . S
H416 C424 0.951 . S
C417 C411 1.265 . S
C417 H412 0.950 1_455 S
C417 C418 1.478 . S
C418 C417 1.478 . S
C418 C419 1.397 1_545 S
C418 C435 1.394 . S
C419 C418 1.397 1_565 S
C419 C420 1.438 . S
C419 C424 1.429 1_455 S
C420 C419 1.438 . S
C420 C421 1.428 . S
C420 C433 1.394 1_565 S
C421 H413 0.949 . S
C421 C420 1.428 . S
C421 C422 1.345 1_455 S
C422 H414 0.950 . S
C422 C421 1.345 1_655 S
C422 C423 1.424 . S
C423 H415 0.951 . S
C423 C422 1.424 . S
C423 C424 1.347 . S
C424 H416 0.951 . S
C424 C419 1.429 1_655 S
C424 C423 1.347 . S
H425 C426 0.951 1_655 S
C426 H425 0.951 1_455 S
C426 C432 1.265 1_565 S
H427 C432 0.950 . S
H428 C436 0.949 . S
H429 C437 0.950 . S
H430 C438 0.951 . S
H431 C439 0.951 . S
C432 C426 1.265 1_545 S
C432 H427 0.950 . S
C432 C433 1.478 . S
C433 C420 1.394 1_545 S
C433 C432 1.478 . S
C433 C434 1.397 . S
C434 C433 1.397 . S
C434 C435 1.438 . S
C434 C439 1.429 . S
C435 C418 1.394 . S
C435 C434 1.438 . S
C435 C436 1.428 . S
C436 H428 0.949 . S
C436 C435 1.428 . S
C436 C437 1.345 . S
C437 H429 0.950 . S
C437 C436 1.345 . S
C437 C438 1.424 . S
C438 H430 0.951 . S
C438 C437 1.424 . S
C438 C439 1.347 . S
C439 H431 0.951 . S
C439 C434 1.429 . S
C439 C438 1.347 . S
H440 C441 0.951 . S
C441 H440 0.951 . S
C441 C447 1.265 . S
H442 C447 0.950 1_655 S
H443 C451 0.949 1_455 S
H444 C452 0.950 . S
H445 C453 0.951 . S
H446 C454 0.951 . S
C447 C441 1.265 . S
C447 H442 0.950 1_455 S
C447 C448 1.478 . S
C448 C447 1.478 . S
C448 C449 1.397 . S
C448 C465 1.394 . S
C449 C448 1.397 . S
C449 C450 1.438 . S
C449 C454 1.429 1_455 S
C450 C449 1.438 . S
C450 C451 1.428 1_455 S
C450 C463 1.394 . S
C451 H443 0.949 1_655 S
C451 C450 1.428 1_655 S
C451 C452 1.345 . S
C452 H444 0.950 . S
C452 C451 1.345 . S
C452 C453 1.424 . S
C453 H445 0.951 . S
C453 C452 1.424 . S
C453 C454 1.347 . S
C454 H446 0.951 . S
C454 C449 1.429 1_655 S
C454 C453 1.347 . S
H455 C456 0.936 1_655 S
C456 H455 0.936 1_455 S
C456 C462 1.276 . S
H457 C462 0.950 . S
H458 C466 0.949 . S
H459 C467 0.950 . S
H460 C468 0.951 . S
H461 C469 0.951 . S
C462 C456 1.276 . S
C462 H457 0.950 . S
C462 C463 1.478 . S
C463 C450 1.394 . S
C463 C462 1.478 . S
C463 C464 1.397 . S
C464 C463 1.397 . S
C464 C465 1.438 . S
C464 C469 1.429 1_545 S
C465 C448 1.394 . S
C465 C464 1.438 . S
C465 C466 1.428 1_545 S
C466 H458 0.949 . S
C466 C465 1.428 1_565 S
C466 C467 1.345 . S
C467 H459 0.950 . S
C467 C466 1.345 . S
C467 C468 1.424 . S
C468 H460 0.951 . S
C468 C467 1.424 . S
C468 C469 1.347 . S
C469 H461 0.951 . S
C469 C464 1.429 1_565 S
C469 C468 1.347 . S
H470 C471 0.951 . S
C471 H470 0.951 . S
C471 C477 1.265 . S
H472 C477 0.950 . S
H473 C481 0.949 . S
H474 C482 0.950 . S
H475 C483 0.951 . S
H476 C484 0.951 . S
C477 C471 1.265 . S
C477 H472 0.950 . S
C477 C478 1.478 . S
C478 C477 1.478 . S
C478 C479 1.397 . S
C478 C495 1.394 . S
C479 C478 1.397 . S
C479 C480 1.438 . S
C479 C484 1.429 . S
C480 C479 1.438 . S
C480 C481 1.428 . S
C480 C493 1.394 . S
C481 H473 0.949 . S
C481 C480 1.428 . S
C481 C482 1.345 . S
C482 H474 0.950 . S
C482 C481 1.345 . S
C482 C483 1.424 . S
C483 H475 0.951 . S
C483 C482 1.424 . S
C483 C484 1.347 . S
C484 H476 0.951 . S
C484 C479 1.429 . S
C484 C483 1.347 . S
H485 C486 0.951 . S
C486 H485 0.951 . S
C486 C492 1.265 . S
H487 C492 0.950 . S
H488 C496 0.949 . S
H489 C497 0.950 . S
H490 C498 0.951 . S
H491 C499 0.951 . S
C492 C486 1.265 . S
C492 H487 0.950 . S
C492 C493 1.478 . S
C493 C480 1.394 . S
C493 C492 1.478 . S
C493 C494 1.397 . S
C494 C493 1.397 . S
C494 C495 1.438 . S
C494 C499 1.429 . S
C495 C478 1.394 . S
C495 C494 1.438 . S
C495 C496 1.428 . S
C496 H488 0.949 . S
C496 C495 1.428 . S
C496 C497 1.345 . S
C497 H489 0.950 . S
C497 C496 1.345 . S
C497 C498 1.424 . S
C498 H490 0.951 . S
C498 C497 1.424 . S
C498 C499 1.347 . S
C499 H491 0.951 . S
C499 C494 1.429 . S
C499 C498 1.347 . S
H500 C501 0.951 . S
C501 H500 0.951 . S
C501 C507 1.265 . S
H502 C507 0.950 . S
H503 C511 0.949 . S
H504 C512 0.950 . S
H505 C513 0.951 . S
H506 C514 0.951 . S
C507 C501 1.265 . S
C507 H502 0.950 . S
C507 C508 1.478 . S
C508 C507 1.478 . S
C508 C509 1.397 . S
C508 C525 1.394 . S
C509 C508 1.397 . S
C509 C510 1.438 . S
C509 C514 1.429 . S
C510 C509 1.438 . S
C510 C511 1.428 . S
C510 C523 1.394 . S
C511 H503 0.949 . S
C511 C510 1.428 . S
C511 C512 1.345 . S
C512 H504 0.950 . S
C512 C511 1.345 . S
C512 C513 1.424 . S
C513 H505 0.951 . S
C513 C512 1.424 . S
C513 C514 1.347 . S
C514 H506 0.951 . S
C514 C509 1.429 . S
C514 C513 1.347 . S
H515 C516 0.951 . S
C516 H515 0.951 . S
C516 C522 1.265 . S
H517 C522 0.950 . S
H518 C526 0.949 . S
H519 C527 0.950 . S
H520 C528 0.951 . S
H521 C529 0.951 . S
C522 C516 1.265 . S
C522 H517 0.950 . S
C522 C523 1.478 . S
C523 C510 1.394 . S
C523 C522 1.478 . S
C523 C524 1.397 . S
C524 C523 1.397 . S
C524 C525 1.438 . S
C524 C529 1.429 . S
C525 C508 1.394 . S
C525 C524 1.438 . S
C525 C526 1.428 . S
C526 H518 0.949 . S
C526 C525 1.428 . S
C526 C527 1.345 . S
C527 H519 0.950 . S
C527 C526 1.345 . S
C527 C528 1.424 . S
C528 H520 0.951 . S
C528 C527 1.424 . S
C528 C529 1.347 . S
C529 H521 0.951 . S
C529 C524 1.429 . S
C529 C528 1.347 . S
C186 C155 1.328 . S
C171 C16 1.328 . S
C201 C15 1.503 . S
C216 C123 1.426 . S
C231 C13 1.299 . S
C246 C161 1.430 . S
C261 C14 1.365 . S
C276 C129 1.367 . S
C291 C37 1.204 . S
C306 C91 1.425 . S
C321 C36 1.441 . S
C336 C59 1.482 . S
C366 C97 1.352 . S
C351 C34 1.184 . S
C396 C65 1.283 . S
C381 C35 1.264 . S
C411 C17 1.468 . S
C426 C71 1.540 1_565 S
C441 C18 1.418 . S
C456 C103 1.414 . S
C486 C135 1.478 . S
C471 C38 1.539 . S
C501 C39 1.318 . S
C516 C167 1.322 . S
