# Generated by pormake.
# Topology eea, (3,6)-cn, num edge types: 1
# Building blocks:
#     Node 0, Type 0, BuildingBlock: MIDCAF_clean_linker_0, # of connection points: 3
#     Node 1, Type 0, BuildingBlock: MIDCAF_clean_linker_0, # of connection points: 3
#     Node 2, Type 0, BuildingBlock: MIDCAF_clean_linker_0, # of connection points: 3
#     Node 3, Type 0, BuildingBlock: MIDCAF_clean_linker_0, # of connection points: 3
#     Node 4, Type 0, BuildingBlock: MIDCAF_clean_linker_0, # of connection points: 3
#     Node 5, Type 0, BuildingBlock: MIDCAF_clean_linker_0, # of connection points: 3
#     Node 6, Type 0, BuildingBlock: MIDCAF_clean_linker_0, # of connection points: 3
#     Node 7, Type 0, BuildingBlock: MIDCAF_clean_linker_0, # of connection points: 3
#     Node 8, Type 0, BuildingBlock: MIDCAF_clean_linker_0, # of connection points: 3
#     Node 9, Type 0, BuildingBlock: MIDCAF_clean_linker_0, # of connection points: 3
#     Node 10, Type 0, BuildingBlock: MIDCAF_clean_linker_0, # of connection points: 3
#     Node 11, Type 0, BuildingBlock: MIDCAF_clean_linker_0, # of connection points: 3
#     Node 12, Type 0, BuildingBlock: MIDCAF_clean_linker_0, # of connection points: 3
#     Node 13, Type 0, BuildingBlock: MIDCAF_clean_linker_0, # of connection points: 3
#     Node 14, Type 0, BuildingBlock: MIDCAF_clean_linker_0, # of connection points: 3
#     Node 15, Type 0, BuildingBlock: MIDCAF_clean_linker_0, # of connection points: 3
#     Node 16, Type 0, BuildingBlock: MIDCAF_clean_linker_0, # of connection points: 3
#     Node 17, Type 0, BuildingBlock: MIDCAF_clean_linker_0, # of connection points: 3
#     Node 18, Type 1, BuildingBlock: CIFDUS_clean_sbu_1, # of connection points: 6
#     Node 19, Type 1, BuildingBlock: CIFDUS_clean_sbu_1, # of connection points: 6
#     Node 20, Type 1, BuildingBlock: CIFDUS_clean_sbu_1, # of connection points: 6
#     Node 21, Type 1, BuildingBlock: CIFDUS_clean_sbu_1, # of connection points: 6
#     Node 22, Type 1, BuildingBlock: CIFDUS_clean_sbu_1, # of connection points: 6
#     Node 23, Type 1, BuildingBlock: CIFDUS_clean_sbu_1, # of connection points: 6
#     Node 24, Type 1, BuildingBlock: CIFDUS_clean_sbu_1, # of connection points: 6
#     Node 25, Type 1, BuildingBlock: CIFDUS_clean_sbu_1, # of connection points: 6
#     Node 26, Type 1, BuildingBlock: CIFDUS_clean_sbu_1, # of connection points: 6
#     Edge 27, Type (0, 1), BuildingBlock: ZUJKAS_clean_linker_0, # of connection points: 2
#     Edge 28, Type (0, 1), BuildingBlock: ZUJKAS_clean_linker_0, # of connection points: 2
#     Edge 29, Type (0, 1), BuildingBlock: ZUJKAS_clean_linker_0, # of connection points: 2
#     Edge 30, Type (0, 1), BuildingBlock: ZUJKAS_clean_linker_0, # of connection points: 2
#     Edge 31, Type (0, 1), BuildingBlock: ZUJKAS_clean_linker_0, # of connection points: 2
#     Edge 32, Type (0, 1), BuildingBlock: ZUJKAS_clean_linker_0, # of connection points: 2
#     Edge 33, Type (0, 1), BuildingBlock: ZUJKAS_clean_linker_0, # of connection points: 2
#     Edge 34, Type (0, 1), BuildingBlock: ZUJKAS_clean_linker_0, # of connection points: 2
#     Edge 35, Type (0, 1), BuildingBlock: ZUJKAS_clean_linker_0, # of connection points: 2
#     Edge 36, Type (0, 1), BuildingBlock: ZUJKAS_clean_linker_0, # of connection points: 2
#     Edge 37, Type (0, 1), BuildingBlock: ZUJKAS_clean_linker_0, # of connection points: 2
#     Edge 38, Type (0, 1), BuildingBlock: ZUJKAS_clean_linker_0, # of connection points: 2
#     Edge 39, Type (0, 1), BuildingBlock: ZUJKAS_clean_linker_0, # of connection points: 2
#     Edge 40, Type (0, 1), BuildingBlock: ZUJKAS_clean_linker_0, # of connection points: 2
#     Edge 41, Type (0, 1), BuildingBlock: ZUJKAS_clean_linker_0, # of connection points: 2
#     Edge 42, Type (0, 1), BuildingBlock: ZUJKAS_clean_linker_0, # of connection points: 2
#     Edge 43, Type (0, 1), BuildingBlock: ZUJKAS_clean_linker_0, # of connection points: 2
#     Edge 44, Type (0, 1), BuildingBlock: ZUJKAS_clean_linker_0, # of connection points: 2
#     Edge 45, Type (0, 1), BuildingBlock: ZUJKAS_clean_linker_0, # of connection points: 2
#     Edge 46, Type (0, 1), BuildingBlock: ZUJKAS_clean_linker_0, # of connection points: 2
#     Edge 47, Type (0, 1), BuildingBlock: ZUJKAS_clean_linker_0, # of connection points: 2
#     Edge 48, Type (0, 1), BuildingBlock: ZUJKAS_clean_linker_0, # of connection points: 2
#     Edge 49, Type (0, 1), BuildingBlock: ZUJKAS_clean_linker_0, # of connection points: 2
#     Edge 50, Type (0, 1), BuildingBlock: ZUJKAS_clean_linker_0, # of connection points: 2
#     Edge 51, Type (0, 1), BuildingBlock: ZUJKAS_clean_linker_0, # of connection points: 2
#     Edge 52, Type (0, 1), BuildingBlock: ZUJKAS_clean_linker_0, # of connection points: 2
#     Edge 53, Type (0, 1), BuildingBlock: ZUJKAS_clean_linker_0, # of connection points: 2
#     Edge 54, Type (0, 1), BuildingBlock: ZUJKAS_clean_linker_0, # of connection points: 2
#     Edge 55, Type (0, 1), BuildingBlock: ZUJKAS_clean_linker_0, # of connection points: 2
#     Edge 56, Type (0, 1), BuildingBlock: ZUJKAS_clean_linker_0, # of connection points: 2
#     Edge 57, Type (0, 1), BuildingBlock: ZUJKAS_clean_linker_0, # of connection points: 2
#     Edge 58, Type (0, 1), BuildingBlock: ZUJKAS_clean_linker_0, # of connection points: 2
#     Edge 59, Type (0, 1), BuildingBlock: ZUJKAS_clean_linker_0, # of connection points: 2
#     Edge 60, Type (0, 1), BuildingBlock: ZUJKAS_clean_linker_0, # of connection points: 2
#     Edge 61, Type (0, 1), BuildingBlock: ZUJKAS_clean_linker_0, # of connection points: 2
#     Edge 62, Type (0, 1), BuildingBlock: ZUJKAS_clean_linker_0, # of connection points: 2
#     Edge 63, Type (0, 1), BuildingBlock: ZUJKAS_clean_linker_0, # of connection points: 2
#     Edge 64, Type (0, 1), BuildingBlock: ZUJKAS_clean_linker_0, # of connection points: 2
#     Edge 65, Type (0, 1), BuildingBlock: ZUJKAS_clean_linker_0, # of connection points: 2
#     Edge 66, Type (0, 1), BuildingBlock: ZUJKAS_clean_linker_0, # of connection points: 2
#     Edge 67, Type (0, 1), BuildingBlock: ZUJKAS_clean_linker_0, # of connection points: 2
#     Edge 68, Type (0, 1), BuildingBlock: ZUJKAS_clean_linker_0, # of connection points: 2
#     Edge 69, Type (0, 1), BuildingBlock: ZUJKAS_clean_linker_0, # of connection points: 2
#     Edge 70, Type (0, 1), BuildingBlock: ZUJKAS_clean_linker_0, # of connection points: 2
#     Edge 71, Type (0, 1), BuildingBlock: ZUJKAS_clean_linker_0, # of connection points: 2
#     Edge 72, Type (0, 1), BuildingBlock: ZUJKAS_clean_linker_0, # of connection points: 2
#     Edge 73, Type (0, 1), BuildingBlock: ZUJKAS_clean_linker_0, # of connection points: 2
#     Edge 74, Type (0, 1), BuildingBlock: ZUJKAS_clean_linker_0, # of connection points: 2
#     Edge 75, Type (0, 1), BuildingBlock: ZUJKAS_clean_linker_0, # of connection points: 2
#     Edge 76, Type (0, 1), BuildingBlock: ZUJKAS_clean_linker_0, # of connection points: 2
#     Edge 77, Type (0, 1), BuildingBlock: ZUJKAS_clean_linker_0, # of connection points: 2
#     Edge 78, Type (0, 1), BuildingBlock: ZUJKAS_clean_linker_0, # of connection points: 2
#     Edge 79, Type (0, 1), BuildingBlock: ZUJKAS_clean_linker_0, # of connection points: 2
#     Edge 80, Type (0, 1), BuildingBlock: ZUJKAS_clean_linker_0, # of connection points: 2
# Relax obj value: 0.100
# Max RMSD: 0.184
# Mean RMSD: 0.094
data_MOF--net-eea--node1-CIFDUS_clean_sbu_1--node2-MIDCAF_clean_linker_0--edge1-ZUJKAS_clean_linker_0
_symmetry_space_group_name_H-M    P1
_symmetry_Int_Tables_number       1
_symmetry_cell_setting            triclinic
loop_
_symmetry_equiv_pos_as_xyz
'x, y, z'
_cell_length_a     82.596262
_cell_length_b     81.446967
_cell_length_c     83.94141
_cell_angle_alpha  90.060872
_cell_angle_beta   90.086112
_cell_angle_gamma 120.04626
loop_
_atom_site_label
_atom_site_type_symbol
_atom_site_fract_x
_atom_site_fract_y
_atom_site_fract_z
_atom_type_partial_charge
C0 C 0.16768 0.02726 0.41235 0.0
C1 C 0.15475 0.02022 0.39976 0.0
C2 C 0.14428 0.02909 0.3963 0.0
C3 C 0.14676 0.04474 0.40528 0.0
H4 H 0.1545 0.10262 0.4019 0.0
H5 H 0.15149 0.12921 0.39229 0.0
H6 H 0.15351 0.14803 0.44078 0.0
H7 H 0.15712 0.12189 0.45032 0.0
H8 H 0.17871 0.11031 0.47616 0.0
H9 H 0.19448 0.11414 0.50168 0.0
H10 H 0.19809 0.06399 0.49204 0.0
H11 H 0.18259 0.06019 0.46658 0.0
H12 H 0.17995 0.04748 0.43115 0.0
H13 H 0.17582 0.02061 0.41541 0.0
H14 H 0.13426 0.02398 0.3866 0.0
H15 H 0.13846 0.05126 0.40243 0.0
N16 N 0.15734 0.08048 0.42311 0.0
N17 N 0.16681 0.09634 0.44775 0.0
N18 N 0.16859 0.06894 0.44334 0.0
C19 C 0.1599 0.09508 0.43277 0.0
C20 C 0.17116 0.08329 0.45313 0.0
C21 C 0.16167 0.06732 0.42839 0.0
C22 C 0.15625 0.11016 0.42689 0.0
C23 C 0.15414 0.11233 0.41053 0.0
C24 C 0.15233 0.12758 0.40501 0.0
C25 C 0.15242 0.14095 0.41572 0.0
C26 C 0.15381 0.13831 0.43212 0.0
C27 C 0.15578 0.1232 0.43762 0.0
C28 C 0.1795 0.08505 0.46918 0.0
C29 C 0.18274 0.10002 0.47952 0.0
C30 C 0.19168 0.10215 0.4942 0.0
C31 C 0.19764 0.08943 0.49882 0.0
C32 C 0.19391 0.07418 0.48872 0.0
C33 C 0.18494 0.07199 0.47411 0.0
C34 C 0.15949 0.05152 0.41809 0.0
C35 C 0.16994 0.04261 0.42144 0.0
C36 C 0.96567 0.13967 0.41683 0.0
C37 C 0.97293 0.13622 0.40288 0.0
C38 C 0.96392 0.11767 0.39661 0.0
C39 C 0.94816 0.103 0.40414 0.0
H40 H 0.90125 0.04756 0.39699 0.0
H41 H 0.88045 0.0167 0.3848 0.0
H42 H 0.84961 0.99746 0.42885 0.0
H43 H 0.87041 0.02786 0.44106 0.0
H44 H 0.876 0.05509 0.46798 0.0
H45 H 0.86558 0.06119 0.4932 0.0
H46 H 0.90767 0.12045 0.48989 0.0
H47 H 0.91845 0.11432 0.46477 0.0
H48 H 0.94493 0.12839 0.43508 0.0
H49 H 0.97193 0.1538 0.42186 0.0
H50 H 0.96919 0.11441 0.38598 0.0
H51 H 0.94168 0.0889 0.39902 0.0
N52 N 0.91432 0.07345 0.41969 0.0
N53 N 0.89423 0.06311 0.44175 0.0
N54 N 0.91916 0.09434 0.44087 0.0
C55 C 0.89915 0.0594 0.42733 0.0
C56 C 0.90408 0.08047 0.44862 0.0
C57 C 0.92445 0.09099 0.42643 0.0
C58 C 0.8875 0.04034 0.42 0.0
C59 C 0.89017 0.03668 0.40412 0.0
C60 C 0.87817 0.01901 0.3971 0.0
C61 C 0.86331 0.00457 0.40583 0.0
C62 C 0.86103 0.00809 0.42181 0.0
C63 C 0.87293 0.02569 0.42879 0.0
C64 C 0.89808 0.08422 0.46425 0.0
C65 C 0.88312 0.06944 0.4726 0.0
C66 C 0.87704 0.07295 0.48707 0.0
C67 C 0.88571 0.09132 0.49358 0.0
C68 C 0.90081 0.10607 0.48534 0.0
C69 C 0.90693 0.10256 0.47086 0.0
C70 C 0.94104 0.10647 0.41818 0.0
C71 C 0.95003 0.12503 0.42438 0.0
C72 C 0.82388 0.76962 0.38584 0.0
C73 C 0.83034 0.7787 0.37109 0.0
C74 C 0.84784 0.78228 0.36552 0.0
C75 C 0.85863 0.77684 0.37453 0.0
H76 H 0.90422 0.76933 0.37191 0.0
H77 H 0.9334 0.77343 0.36132 0.0
H78 H 0.94708 0.76028 0.40752 0.0
H79 H 0.91766 0.75568 0.41806 0.0
H80 H 0.8886 0.74432 0.44628 0.0
H81 H 0.87876 0.73283 0.47326 0.0
H82 H 0.82518 0.7284 0.46425 0.0
H83 H 0.83518 0.7404 0.4374 0.0
H84 H 0.82923 0.75738 0.40621 0.0
H85 H 0.81057 0.76692 0.39057 0.0
H86 H 0.85313 0.78915 0.35415 0.0
H87 H 0.87206 0.77983 0.3699 0.0
N88 N 0.88 0.76448 0.39335 0.0
N89 N 0.88512 0.75296 0.4173 0.0
N90 N 0.85823 0.75544 0.41407 0.0
C91 C 0.89077 0.75977 0.40233 0.0
C92 C 0.86883 0.7507 0.42325 0.0
C93 C 0.86373 0.76237 0.39913 0.0
C94 C 0.90854 0.76218 0.39587 0.0
C95 C 0.91341 0.76728 0.37984 0.0
C96 C 0.93021 0.76973 0.37376 0.0
C97 C 0.94262 0.76722 0.38356 0.0
C98 C 0.93773 0.76205 0.39957 0.0
C99 C 0.92088 0.75952 0.40564 0.0
C100 C 0.86272 0.74333 0.43962 0.0
C101 C 0.8747 0.74088 0.45001 0.0
C102 C 0.86901 0.73417 0.46549 0.0
C103 C 0.85115 0.72964 0.47095 0.0
C104 C 0.83913 0.732 0.46054 0.0
C105 C 0.84485 0.7388 0.44508 0.0
C106 C 0.85219 0.76782 0.38935 0.0
C107 C 0.83466 0.76426 0.39487 0.0
C108 C 0.0675 0.24772 0.60934 0.0
C109 C 0.06191 0.2399 0.62463 0.0
C110 C 0.07438 0.23692 0.63393 0.0
C111 C 0.09194 0.24142 0.62796 0.0
H112 H 0.13875 0.23583 0.63746 0.0
H113 H 0.15955 0.22697 0.65098 0.0
H114 H 0.20061 0.25433 0.61389 0.0
H115 H 0.18005 0.26298 0.60035 0.0
H116 H 0.17077 0.27586 0.56953 0.0
H117 H 0.17894 0.28659 0.54217 0.0
H118 H 0.12448 0.28076 0.53517 0.0
H119 H 0.1161 0.26973 0.56251 0.0
H120 H 0.08875 0.25819 0.59154 0.0
H121 H 0.05836 0.2505 0.60197 0.0
H122 H 0.07043 0.23077 0.6457 0.0
H123 H 0.10111 0.23877 0.6354 0.0
N124 N 0.12788 0.25021 0.61473 0.0
N125 N 0.14932 0.26127 0.59366 0.0
N126 N 0.12083 0.26067 0.59104 0.0
C127 C 0.14467 0.2541 0.60861 0.0
C128 C 0.13754 0.26459 0.58478 0.0
C129 C 0.1159 0.25353 0.60602 0.0
C130 C 0.15759 0.24992 0.61769 0.0
C131 C 0.15227 0.24006 0.63225 0.0
C132 C 0.16419 0.23504 0.64004 0.0
C133 C 0.18157 0.23972 0.63336 0.0
C134 C 0.18712 0.25016 0.61914 0.0
C135 C 0.17531 0.25518 0.61141 0.0
C136 C 0.14272 0.27185 0.56827 0.0
C137 C 0.1605 0.27687 0.56221 0.0
C138 C 0.16525 0.28314 0.54653 0.0
C139 C 0.15235 0.28447 0.53649 0.0
C140 C 0.13465 0.27963 0.54256 0.0
C141 C 0.1299 0.27343 0.55828 0.0
C142 C 0.09745 0.24907 0.61258 0.0
C143 C 0.08502 0.25224 0.6034 0.0
C144 C 0.83996 0.86371 0.57624 0.0
C145 C 0.84716 0.86503 0.59168 0.0
C146 C 0.85215 0.88148 0.60069 0.0
C147 C 0.84948 0.89598 0.5946 0.0
H148 H 0.86332 0.95625 0.59973 0.0
H149 H 0.86976 0.98534 0.61396 0.0
H150 H 0.82355 0.9849 0.58948 0.0
H151 H 0.81716 0.95626 0.5754 0.0
H152 H 0.80069 0.93296 0.54548 0.0
H153 H 0.78315 0.92781 0.52086 0.0
H154 H 0.80317 0.89126 0.50361 0.0
H155 H 0.82073 0.89622 0.52844 0.0
H156 H 0.83131 0.87634 0.55836 0.0
H157 H 0.83573 0.85118 0.56902 0.0
H158 H 0.85797 0.8831 0.61254 0.0
H159 H 0.85316 0.90825 0.60201 0.0
N160 N 0.84134 0.92454 0.58215 0.0
N161 N 0.82674 0.93368 0.56297 0.0
N162 N 0.82804 0.90593 0.55918 0.0
C163 C 0.83607 0.93703 0.57697 0.0
C164 C 0.82274 0.91831 0.55396 0.0
C165 C 0.83728 0.90885 0.5733 0.0
C166 C 0.83977 0.95396 0.58641 0.0
C167 C 0.8545 0.96234 0.59751 0.0
C168 C 0.85826 0.97902 0.60555 0.0
C169 C 0.84712 0.98733 0.60283 0.0
C170 C 0.83226 0.97873 0.59194 0.0
C171 C 0.82869 0.96234 0.5838 0.0
C172 C 0.81213 0.91499 0.53893 0.0
C173 C 0.80144 0.92385 0.53646 0.0
C174 C 0.7913 0.92085 0.5224 0.0
C175 C 0.79184 0.90918 0.51037 0.0
C176 C 0.80265 0.90045 0.51269 0.0
C177 C 0.81258 0.90318 0.52692 0.0
C178 C 0.84171 0.89436 0.57934 0.0
C179 C 0.83729 0.87816 0.57016 0.0
C180 C 0.14309 0.98634 0.58272 0.0
C181 C 0.13881 0.99165 0.59736 0.0
C182 C 0.12161 0.97915 0.60465 0.0
C183 C 0.10924 0.96161 0.59764 0.0
H184 H 0.06231 0.90787 0.60681 0.0
H185 H 0.03599 0.88243 0.62111 0.0
H186 H 0.02487 0.84493 0.58104 0.0
H187 H 0.05122 0.87004 0.56688 0.0
H188 H 0.08091 0.8817 0.53916 0.0
H189 H 0.09138 0.87506 0.51404 0.0
H190 H 0.13314 0.93429 0.50969 0.0
H191 H 0.12263 0.94104 0.53457 0.0
H192 H 0.13483 0.96539 0.56455 0.0
H193 H 0.15633 0.99533 0.57688 0.0
H194 H 0.11773 0.98285 0.61584 0.0
H195 H 0.09624 0.95223 0.60367 0.0
N196 N 0.08615 0.92371 0.58369 0.0
N197 N 0.08019 0.90249 0.56251 0.0
N198 N 0.10577 0.93332 0.56137 0.0
C199 C 0.07543 0.90621 0.57705 0.0
C200 C 0.09532 0.91601 0.55458 0.0
C201 C 0.10138 0.93736 0.57586 0.0
C202 C 0.05903 0.89106 0.58569 0.0
C203 C 0.05425 0.89421 0.60102 0.0
C204 C 0.03909 0.87965 0.60921 0.0
C205 C 0.02838 0.86159 0.60227 0.0
C206 C 0.03301 0.85855 0.58687 0.0
C207 C 0.04811 0.87305 0.57869 0.0
C208 C 0.10094 0.9119 0.53897 0.0
C209 C 0.09223 0.89334 0.53281 0.0
C210 C 0.09831 0.8895 0.51846 0.0
C211 C 0.11312 0.90415 0.5099 0.0
C212 C 0.12157 0.92273 0.51591 0.0
C213 C 0.11559 0.92656 0.53026 0.0
C214 C 0.11377 0.95624 0.58314 0.0
C215 C 0.13074 0.96897 0.57569 0.0
C216 C 0.83164 0.35549 0.75023 0.0
C217 C 0.82078 0.34968 0.73628 0.0
C218 C 0.81388 0.36116 0.73026 0.0
C219 C 0.81769 0.37796 0.73813 0.0
H220 H 0.8206 0.43238 0.73293 0.0
H221 H 0.81654 0.45789 0.72195 0.0
H222 H 0.83097 0.48616 0.76763 0.0
H223 H 0.83535 0.46109 0.7785 0.0
H224 H 0.85516 0.45003 0.80465 0.0
H225 H 0.87286 0.4565 0.82943 0.0
H226 H 0.87643 0.40586 0.82258 0.0
H227 H 0.85899 0.39942 0.79782 0.0
H228 H 0.84386 0.37597 0.76876 0.0
H229 H 0.83762 0.34734 0.75503 0.0
H230 H 0.80539 0.35707 0.71957 0.0
H231 H 0.81211 0.38642 0.73325 0.0
N232 N 0.82826 0.41403 0.75484 0.0
N233 N 0.84119 0.43321 0.77757 0.0
N234 N 0.8413 0.4047 0.7753 0.0
C235 C 0.83251 0.43012 0.76317 0.0
C236 C 0.84563 0.42057 0.78371 0.0
C237 C 0.83262 0.4012 0.76094 0.0
C238 C 0.82851 0.4447 0.75657 0.0
C239 C 0.82278 0.44396 0.74066 0.0
C240 C 0.82037 0.45857 0.73437 0.0
C241 C 0.82363 0.47422 0.74386 0.0
C242 C 0.82873 0.47457 0.75988 0.0
C243 C 0.83116 0.46007 0.76614 0.0
C244 C 0.85569 0.42425 0.79915 0.0
C245 C 0.85966 0.44023 0.80844 0.0
C246 C 0.86971 0.44389 0.82269 0.0
C247 C 0.8761 0.43173 0.82792 0.0
C248 C 0.87191 0.41563 0.81876 0.0
C249 C 0.8618 0.41191 0.80458 0.0
C250 C 0.82845 0.3836 0.75218 0.0
C251 C 0.83536 0.37211 0.75807 0.0
C252 C 0.62325 0.47827 0.74932 0.0
C253 C 0.63001 0.47432 0.7353 0.0
C254 C 0.62104 0.45552 0.72964 0.0
C255 C 0.60578 0.44108 0.73781 0.0
H256 H 0.5578 0.38725 0.73102 0.0
H257 H 0.53596 0.35691 0.71865 0.0
H258 H 0.50825 0.33632 0.76387 0.0
H259 H 0.52969 0.36656 0.77615 0.0
H260 H 0.53707 0.39354 0.80369 0.0
H261 H 0.5282 0.39926 0.82978 0.0
H262 H 0.57148 0.45811 0.82709 0.0
H263 H 0.58026 0.45253 0.80075 0.0
H264 H 0.60335 0.46749 0.76827 0.0
H265 H 0.62951 0.49261 0.75389 0.0
H266 H 0.62597 0.45186 0.71901 0.0
H267 H 0.59932 0.42677 0.73313 0.0
N268 N 0.5724 0.41232 0.75396 0.0
N269 N 0.55379 0.40185 0.77687 0.0
N270 N 0.5789 0.433 0.77565 0.0
C271 C 0.55768 0.3983 0.76199 0.0
C272 C 0.56426 0.41909 0.78382 0.0
C273 C 0.58312 0.42972 0.76073 0.0
C274 C 0.54544 0.37948 0.75456 0.0
C275 C 0.54714 0.37621 0.73835 0.0
C276 C 0.53467 0.35878 0.73127 0.0
C277 C 0.52025 0.34424 0.74025 0.0
C278 C 0.51895 0.34733 0.75654 0.0
C279 C 0.53135 0.3647 0.7636 0.0
C280 C 0.55938 0.42259 0.80001 0.0
C281 C 0.54478 0.40773 0.80861 0.0
C282 C 0.53974 0.41095 0.82366 0.0
C283 C 0.54912 0.42913 0.83054 0.0
C284 C 0.56383 0.44398 0.82205 0.0
C285 C 0.56893 0.44075 0.80697 0.0
C286 C 0.59918 0.44504 0.75191 0.0
C287 C 0.60812 0.46383 0.75754 0.0
C288 C 0.4849 0.08828 0.72273 0.0
C289 C 0.48797 0.0927 0.70643 0.0
C290 C 0.50441 0.09494 0.69941 0.0
C291 C 0.51749 0.09288 0.70852 0.0
H292 H 0.56774 0.09236 0.70625 0.0
H293 H 0.59782 0.09934 0.69514 0.0
H294 H 0.61905 0.10154 0.74259 0.0
H295 H 0.58908 0.09459 0.75377 0.0
H296 H 0.55774 0.07299 0.78145 0.0
H297 H 0.54956 0.06245 0.80891 0.0
H298 H 0.4982 0.06382 0.80382 0.0
H299 H 0.50609 0.07393 0.77632 0.0
H300 H 0.49503 0.08292 0.74434 0.0
H301 H 0.4726 0.08684 0.72862 0.0
H302 H 0.50713 0.09821 0.68686 0.0
H303 H 0.53002 0.09473 0.70275 0.0
N304 N 0.54492 0.0902 0.72853 0.0
N305 N 0.55373 0.08372 0.75331 0.0
N306 N 0.52456 0.08161 0.7503 0.0
C307 C 0.55773 0.08879 0.73775 0.0
C308 C 0.53713 0.08006 0.75967 0.0
C309 C 0.5283 0.08666 0.73475 0.0
C310 C 0.57595 0.09291 0.73093 0.0
C311 C 0.57881 0.09435 0.71434 0.0
C312 C 0.596 0.09826 0.70795 0.0
C313 C 0.61079 0.10104 0.718 0.0
C314 C 0.60797 0.09967 0.73456 0.0
C315 C 0.59073 0.09556 0.74095 0.0
C316 C 0.53256 0.07425 0.77658 0.0
C317 C 0.54472 0.0711 0.78617 0.0
C318 C 0.54008 0.06515 0.80197 0.0
C319 C 0.5232 0.06225 0.80858 0.0
C320 C 0.51117 0.06563 0.79905 0.0
C321 C 0.51578 0.07154 0.78327 0.0
C322 C 0.5144 0.08852 0.72485 0.0
C323 C 0.4979 0.08617 0.7318 0.0
C324 C 0.72169 0.56828 0.93495 0.0
C325 C 0.71805 0.5644 0.95129 0.0
C326 C 0.73124 0.56274 0.96072 0.0
C327 C 0.74751 0.56462 0.95394 0.0
H328 H 0.79409 0.5601 0.96462 0.0
H329 H 0.81392 0.55128 0.97975 0.0
H330 H 0.84093 0.54988 0.93618 0.0
H331 H 0.82125 0.55859 0.92107 0.0
H332 H 0.82095 0.58548 0.89307 0.0
H333 H 0.83027 0.59728 0.86613 0.0
H334 H 0.77743 0.59514 0.85887 0.0
H335 H 0.76828 0.58385 0.88603 0.0
H336 H 0.74023 0.57301 0.91552 0.0
H337 H 0.71172 0.56937 0.92728 0.0
H338 H 0.72904 0.56008 0.97339 0.0
H339 H 0.75729 0.56317 0.96159 0.0
N340 N 0.77898 0.56482 0.93891 0.0
N341 N 0.79903 0.57181 0.9171 0.0
N342 N 0.77287 0.57573 0.91504 0.0
C343 C 0.79443 0.56575 0.93235 0.0
C344 C 0.78839 0.57689 0.90837 0.0
C345 C 0.76809 0.56973 0.93034 0.0
C346 C 0.80611 0.5601 0.94163 0.0
C347 C 0.80419 0.55781 0.95826 0.0
C348 C 0.81556 0.55282 0.96694 0.0
C349 C 0.82885 0.54978 0.95912 0.0
C350 C 0.8306 0.55186 0.9425 0.0
C351 C 0.81942 0.55702 0.93386 0.0
C352 C 0.79385 0.58373 0.89179 0.0
C353 C 0.81126 0.58749 0.88576 0.0
C354 C 0.81659 0.59417 0.87024 0.0
C355 C 0.80462 0.59717 0.8603 0.0
C356 C 0.78714 0.59328 0.86627 0.0
C357 C 0.78184 0.5867 0.88185 0.0
C358 C 0.75106 0.56829 0.93757 0.0
C359 C 0.73802 0.57026 0.92818 0.0
C360 C 0.50488 0.19401 0.9117 0.0
C361 C 0.511 0.19551 0.92755 0.0
C362 C 0.5146 0.21172 0.93638 0.0
C363 C 0.51195 0.22594 0.92956 0.0
H364 H 0.5153 0.27984 0.93841 0.0
H365 H 0.51884 0.30803 0.95223 0.0
H366 H 0.49809 0.3227 0.91057 0.0
H367 H 0.49439 0.2949 0.89693 0.0
H368 H 0.47974 0.27072 0.86878 0.0
H369 H 0.46496 0.26513 0.84279 0.0
H370 H 0.46882 0.21448 0.83734 0.0
H371 H 0.48384 0.22008 0.86345 0.0
H372 H 0.4973 0.20624 0.89272 0.0
H373 H 0.50165 0.18163 0.9046 0.0
H374 H 0.51952 0.21347 0.94856 0.0
H375 H 0.51474 0.23814 0.93675 0.0
N376 N 0.50527 0.2547 0.91473 0.0
N377 N 0.49454 0.26455 0.89289 0.0
N378 N 0.49501 0.23617 0.89139 0.0
C379 C 0.50154 0.26766 0.90792 0.0
C380 C 0.49123 0.24895 0.88452 0.0
C381 C 0.50205 0.23887 0.90646 0.0
C382 C 0.50445 0.28492 0.91656 0.0
C383 C 0.51152 0.2891 0.93222 0.0
C384 C 0.51362 0.30529 0.94011 0.0
C385 C 0.50856 0.31751 0.93255 0.0
C386 C 0.50178 0.31342 0.91686 0.0
C387 C 0.49977 0.29743 0.909 0.0
C388 C 0.48293 0.24579 0.86832 0.0
C389 C 0.47756 0.2584 0.86209 0.0
C390 C 0.46899 0.25517 0.84718 0.0
C391 C 0.46562 0.23931 0.83806 0.0
C392 C 0.47135 0.22691 0.84406 0.0
C393 C 0.47987 0.23007 0.85906 0.0
C394 C 0.50559 0.22427 0.91376 0.0
C395 C 0.50223 0.20815 0.90491 0.0
C396 C 0.8081 0.32238 0.91023 0.0
C397 C 0.80597 0.32642 0.92611 0.0
C398 C 0.79045 0.31283 0.93478 0.0
C399 C 0.77772 0.29535 0.92789 0.0
H400 H 0.72657 0.24437 0.93437 0.0
H401 H 0.70017 0.21961 0.94897 0.0
H402 H 0.69567 0.17814 0.91444 0.0
H403 H 0.72161 0.2029 0.89959 0.0
H404 H 0.74443 0.21728 0.86667 0.0
H405 H 0.75376 0.21103 0.84079 0.0
H406 H 0.80009 0.26857 0.83944 0.0
H407 H 0.79066 0.27497 0.86494 0.0
H408 H 0.79787 0.30235 0.8912 0.0
H409 H 0.82 0.33234 0.90325 0.0
H410 H 0.78826 0.31558 0.94698 0.0
H411 H 0.76616 0.28506 0.935 0.0
N412 N 0.75304 0.25838 0.91319 0.0
N413 N 0.74673 0.237 0.89206 0.0
N414 N 0.77196 0.26802 0.89046 0.0
C415 C 0.74234 0.24077 0.90674 0.0
C416 C 0.76153 0.25061 0.88383 0.0
C417 C 0.7679 0.2721 0.90507 0.0
C418 C 0.72625 0.2257 0.91574 0.0
C419 C 0.71994 0.22998 0.92986 0.0
C420 C 0.70483 0.21573 0.93831 0.0
C421 C 0.69569 0.19682 0.93291 0.0
C422 C 0.70208 0.19257 0.91882 0.0
C423 C 0.71709 0.20681 0.91033 0.0
C424 C 0.76676 0.24663 0.86796 0.0
C425 C 0.75655 0.22862 0.86082 0.0
C426 C 0.76196 0.22501 0.84602 0.0
C427 C 0.77767 0.23931 0.83802 0.0
C428 C 0.78775 0.25731 0.84512 0.0
C429 C 0.78237 0.26092 0.85986 0.0
C430 C 0.78027 0.2911 0.91217 0.0
C431 C 0.79542 0.305 0.90336 0.0
C432 C 0.49088 0.68205 0.09238 0.0
C433 C 0.48242 0.67746 0.07728 0.0
C434 C 0.47787 0.69023 0.06998 0.0
C435 C 0.48177 0.70717 0.07765 0.0
H436 H 0.4788 0.75832 0.07431 0.0
H437 H 0.47477 0.78345 0.06253 0.0
H438 H 0.50409 0.81998 0.10242 0.0
H439 H 0.50762 0.7949 0.11435 0.0
H440 H 0.51289 0.77539 0.14678 0.0
H441 H 0.52894 0.78073 0.17245 0.0
H442 H 0.54104 0.73615 0.16175 0.0
H443 H 0.52504 0.73067 0.13628 0.0
H444 H 0.5014 0.70172 0.11159 0.0
H445 H 0.49499 0.67286 0.09825 0.0
H446 H 0.47123 0.68709 0.05838 0.0
H447 H 0.47816 0.71671 0.07172 0.0
N448 N 0.49169 0.743 0.09454 0.0
N449 N 0.50475 0.76243 0.11714 0.0
N450 N 0.50335 0.73311 0.11567 0.0
C451 C 0.49654 0.75947 0.10253 0.0
C452 C 0.50821 0.7493 0.12377 0.0
C453 C 0.49506 0.7297 0.10114 0.0
C454 C 0.49354 0.77448 0.09531 0.0
C455 C 0.48429 0.77168 0.08061 0.0
C456 C 0.48206 0.78616 0.07381 0.0
C457 C 0.48906 0.80383 0.0815 0.0
C458 C 0.49817 0.80651 0.09625 0.0
C459 C 0.50033 0.79207 0.10306 0.0
C460 C 0.51768 0.75263 0.13944 0.0
C461 C 0.51894 0.76671 0.14992 0.0
C462 C 0.52801 0.76969 0.16464 0.0
C463 C 0.53623 0.75885 0.16905 0.0
C464 C 0.53494 0.74478 0.15861 0.0
C465 C 0.52568 0.74162 0.14403 0.0
C466 C 0.49033 0.71171 0.09276 0.0
C467 C 0.49472 0.69883 0.1 0.0
C468 C 0.29926 0.80909 0.08468 0.0
C469 C 0.3059 0.80516 0.07059 0.0
C470 C 0.29645 0.78652 0.06457 0.0
C471 C 0.28071 0.77225 0.07237 0.0
H472 H 0.23306 0.71868 0.06446 0.0
H473 H 0.21118 0.68863 0.05154 0.0
H474 H 0.17891 0.66974 0.09488 0.0
H475 H 0.20036 0.69955 0.10768 0.0
H476 H 0.20129 0.73204 0.12936 0.0
H477 H 0.19064 0.73821 0.15433 0.0
H478 H 0.24638 0.78477 0.16376 0.0
H479 H 0.25686 0.77906 0.13825 0.0
H480 H 0.27887 0.7985 0.10325 0.0
H481 H 0.30594 0.82332 0.08954 0.0
H482 H 0.3013 0.78288 0.05388 0.0
H483 H 0.2738 0.75808 0.06734 0.0
N484 N 0.24636 0.74396 0.08752 0.0
N485 N 0.22563 0.73421 0.10908 0.0
N486 N 0.25189 0.76471 0.109 0.0
C487 C 0.2306 0.73036 0.09477 0.0
C488 C 0.23612 0.75125 0.1163 0.0
C489 C 0.25711 0.7612 0.09458 0.0
C490 C 0.21839 0.7117 0.08706 0.0
C491 C 0.22137 0.70806 0.07126 0.0
C492 C 0.20889 0.69081 0.06387 0.0
C493 C 0.19319 0.67691 0.07213 0.0
C494 C 0.19065 0.68031 0.08808 0.0
C495 C 0.20304 0.69744 0.09544 0.0
C496 C 0.22995 0.75507 0.13177 0.0
C497 C 0.21133 0.74359 0.13675 0.0
C498 C 0.20523 0.74705 0.1512 0.0
C499 C 0.21763 0.76193 0.16123 0.0
C500 C 0.23633 0.77335 0.15629 0.0
C501 C 0.24239 0.77003 0.14168 0.0
C502 C 0.27406 0.77622 0.08644 0.0
C503 C 0.2836 0.79482 0.09252 0.0
C504 C 0.151 0.42817 0.05607 0.0
C505 C 0.15579 0.43436 0.04026 0.0
C506 C 0.17265 0.43681 0.03405 0.0
C507 C 0.18447 0.43316 0.04349 0.0
H508 H 0.23193 0.42859 0.04199 0.0
H509 H 0.26096 0.43237 0.03129 0.0
H510 H 0.27788 0.42619 0.0786 0.0
H511 H 0.24868 0.4219 0.08928 0.0
H512 H 0.22033 0.41087 0.1177 0.0
H513 H 0.21181 0.40143 0.1453 0.0
H514 H 0.15896 0.3991 0.13781 0.0
H515 H 0.16728 0.40829 0.11011 0.0
H516 H 0.15863 0.41996 0.07765 0.0
H517 H 0.13827 0.42646 0.0613 0.0
H518 H 0.17665 0.44144 0.02188 0.0
H519 H 0.19737 0.43523 0.03835 0.0
N520 N 0.20852 0.42559 0.06367 0.0
N521 N 0.21566 0.41781 0.08859 0.0
N522 N 0.18796 0.41869 0.0851 0.0
C523 C 0.22025 0.42269 0.07308 0.0
C524 C 0.19951 0.41575 0.09469 0.0
C525 C 0.19235 0.42363 0.06959 0.0
C526 C 0.23791 0.42494 0.06652 0.0
C527 C 0.24181 0.428 0.05014 0.0
C528 C 0.25852 0.43026 0.04399 0.0
C529 C 0.27177 0.42959 0.05407 0.0
C530 C 0.26786 0.42648 0.07044 0.0
C531 C 0.25112 0.42414 0.07659 0.0
C532 C 0.1945 0.41032 0.11161 0.0
C533 C 0.20689 0.40839 0.12189 0.0
C534 C 0.20207 0.4031 0.13777 0.0
C535 C 0.18473 0.39956 0.14376 0.0
C536 C 0.17235 0.40156 0.13352 0.0
C537 C 0.17719 0.40692 0.11765 0.0
C538 C 0.17971 0.42708 0.05936 0.0
C539 C 0.16278 0.42457 0.06549 0.0
C540 C 0.39745 0.91227 0.2692 0.0
C541 C 0.39101 0.90526 0.2846 0.0
C542 C 0.40139 0.89955 0.29401 0.0
C543 C 0.41756 0.90039 0.28805 0.0
H544 H 0.46486 0.89653 0.30104 0.0
H545 H 0.48119 0.88416 0.317 0.0
H546 H 0.5003 0.8702 0.27399 0.0
H547 H 0.4843 0.88283 0.25798 0.0
H548 H 0.48953 0.91162 0.22815 0.0
H549 H 0.50123 0.92431 0.20174 0.0
H550 H 0.46021 0.94218 0.19776 0.0
H551 H 0.44864 0.92981 0.22426 0.0
H552 H 0.41805 0.91839 0.25125 0.0
H553 H 0.3899 0.91702 0.26173 0.0
H554 H 0.39671 0.89388 0.30585 0.0
H555 H 0.42498 0.89554 0.29559 0.0
N556 N 0.44921 0.89961 0.27468 0.0
N557 N 0.46984 0.905 0.25358 0.0
N558 N 0.44648 0.91317 0.25093 0.0
C559 C 0.46391 0.89864 0.26859 0.0
C560 C 0.46128 0.9124 0.24469 0.0
C561 C 0.44034 0.90677 0.26592 0.0
C562 C 0.47336 0.89072 0.27825 0.0
C563 C 0.47247 0.89074 0.29499 0.0
C564 C 0.48182 0.88371 0.30412 0.0
C565 C 0.49187 0.87617 0.29669 0.0
C566 C 0.49246 0.87578 0.27998 0.0
C567 C 0.48344 0.88315 0.27085 0.0
C568 C 0.46814 0.91971 0.22842 0.0
C569 C 0.48296 0.91825 0.22168 0.0
C570 C 0.48964 0.92543 0.20648 0.0
C571 C 0.48171 0.93431 0.19766 0.0
C572 C 0.46682 0.93567 0.20434 0.0
C573 C 0.4601 0.92845 0.21952 0.0
C574 C 0.42378 0.90697 0.27251 0.0
C575 C 0.41365 0.91314 0.26323 0.0
C576 C 0.16591 0.52757 0.24495 0.0
C577 C 0.17352 0.52935 0.26026 0.0
C578 C 0.17955 0.54643 0.26867 0.0
C579 C 0.1777 0.56122 0.26201 0.0
H580 H 0.17909 0.61537 0.27157 0.0
H581 H 0.18501 0.6452 0.28396 0.0
H582 H 0.18344 0.66727 0.23759 0.0
H583 H 0.17735 0.63775 0.22534 0.0
H584 H 0.14953 0.60928 0.20054 0.0
H585 H 0.13031 0.60241 0.17677 0.0
H586 H 0.11724 0.54403 0.17834 0.0
H587 H 0.13627 0.55075 0.20231 0.0
H588 H 0.15805 0.54015 0.22651 0.0
H589 H 0.16146 0.5148 0.23799 0.0
H590 H 0.18535 0.54824 0.28055 0.0
H591 H 0.18227 0.57407 0.26887 0.0
N592 N 0.17364 0.59165 0.24687 0.0
N593 N 0.16192 0.60156 0.22575 0.0
N594 N 0.15792 0.5711 0.22544 0.0
C595 C 0.17113 0.60533 0.23987 0.0
C596 C 0.15522 0.58454 0.21847 0.0
C597 C 0.16717 0.57447 0.23957 0.0
C598 C 0.17743 0.62403 0.2475 0.0
C599 C 0.1803 0.62672 0.26404 0.0
C600 C 0.18371 0.64381 0.27112 0.0
C601 C 0.18435 0.65848 0.26177 0.0
C602 C 0.18256 0.6561 0.24518 0.0
C603 C 0.17912 0.63914 0.23815 0.0
C604 C 0.14441 0.58054 0.20343 0.0
C605 C 0.14264 0.59496 0.19583 0.0
C606 C 0.1317 0.59107 0.18212 0.0
C607 C 0.1222 0.57267 0.17571 0.0
C608 C 0.1242 0.55831 0.18313 0.0
C609 C 0.13521 0.5622 0.19681 0.0
C610 C 0.16978 0.55924 0.24677 0.0
C611 C 0.16405 0.54224 0.23833 0.0
C612 C 0.47795 0.66126 0.24831 0.0
C613 C 0.47519 0.6663 0.26362 0.0
C614 C 0.45925 0.65338 0.27223 0.0
C615 C 0.4467 0.63546 0.26583 0.0
H616 H 0.39839 0.58159 0.27522 0.0
H617 H 0.37248 0.55606 0.28987 0.0
H618 H 0.36298 0.51752 0.25096 0.0
H619 H 0.38886 0.54272 0.23646 0.0
H620 H 0.41382 0.55606 0.20546 0.0
H621 H 0.42411 0.54919 0.18029 0.0
H622 H 0.47167 0.60599 0.17972 0.0
H623 H 0.46165 0.61287 0.20476 0.0
H624 H 0.46835 0.64024 0.23012 0.0
H625 H 0.48994 0.671 0.24128 0.0
H626 H 0.45681 0.65688 0.28411 0.0
H627 H 0.4348 0.62563 0.27289 0.0
N628 N 0.42258 0.59728 0.25206 0.0
N629 N 0.41654 0.57569 0.23112 0.0
N630 N 0.44168 0.60668 0.22941 0.0
C631 C 0.41198 0.57956 0.2457 0.0
C632 C 0.43138 0.58921 0.22289 0.0
C633 C 0.43749 0.61096 0.24389 0.0
C634 C 0.39587 0.5643 0.25463 0.0
C635 C 0.39078 0.56768 0.26977 0.0
C636 C 0.37584 0.55305 0.27816 0.0
C637 C 0.3657 0.53467 0.27166 0.0
C638 C 0.37068 0.53139 0.25648 0.0
C639 C 0.38551 0.54596 0.24809 0.0
C640 C 0.43692 0.58499 0.20725 0.0
C641 C 0.42643 0.56711 0.19995 0.0
C642 C 0.43227 0.56319 0.18548 0.0
C643 C 0.44877 0.57702 0.17807 0.0
C644 C 0.45906 0.59495 0.18524 0.0
C645 C 0.45321 0.5989 0.1996 0.0
C646 C 0.44982 0.63022 0.25065 0.0
C647 C 0.46546 0.64354 0.2419 0.0
O648 O 0.47563 0.97864 0.00817 0.0
Mn649 Mn 0.50284 0.00138 0.0048 0.0
O650 O 0.45956 0.99003 0.02131 0.0
Mn651 Mn 0.48003 0.01354 0.02626 0.0
O652 O 0.52992 0.02414 0.00137 0.0
O653 O 0.51129 0.98256 0.00035 0.0
Mn654 Mn 0.52542 0.98912 0.98322 0.0
O655 O 0.49714 0.00267 0.98061 0.0
O656 O 0.54574 0.01303 0.9875 0.0
O657 O 0.50862 0.00021 0.02899 0.0
O658 O 0.49455 0.01318 0.04294 0.0
O659 O 0.52412 0.96711 0.99067 0.0
O660 O 0.51019 0.98854 0.96676 0.0
C661 C 0.49274 0.03503 0.00826 0.0
C662 C 0.46046 0.97651 0.01443 0.0
C663 C 0.5449 0.02647 0.99461 0.0
C664 C 0.51364 0.96809 0.00162 0.0
C665 C 0.50019 0.9964 0.96752 0.0
C666 C 0.50498 0.00579 0.04218 0.0
O667 O 0.4945 0.02021 0.00935 0.0
O668 O 0.4823 0.03614 0.01918 0.0
O669 O 0.01508 0.48883 0.0022 0.0
Mn670 Mn -0.00186 0.50093 0.00356 0.0
O671 O 0.00249 0.46334 0.01843 0.0
Mn672 Mn 0.98395 0.46704 0.02747 0.0
O673 O 0.98108 0.51288 0.00486 0.0
O674 O 0.01924 0.52511 0.99483 0.0
Mn675 Mn 0.01167 0.53421 0.97932 0.0
O676 O 0.98798 0.49131 0.98061 0.0
O677 O 0.99373 0.5385 0.98878 0.0
O678 O 0.00778 0.51043 0.02685 0.0
O679 O 0.99221 0.4854 0.04323 0.0
O680 O 0.03701 0.5511 0.98208 0.0
O681 O 0.00247 0.51573 0.96354 0.0
C682 C 0.96081 0.46203 0.01223 0.0
C683 C 0.0148 0.47424 0.00834 0.0
C684 C 0.9814 0.52752 -0.0012 0.0
C685 C 0.03571 0.53966 0.99331 0.0
C686 C 0.99131 0.49825 0.96648 0.0
C687 C 0.00344 0.50303 0.04089 0.0
O688 O 0.97723 0.4767 0.01193 0.0
O689 O 0.9587 0.45023 0.02341 0.0
O690 O 0.52459 0.51334 0.00254 0.0
Mn691 Mn 0.49587 0.49731 0.00571 0.0
O692 O 0.52901 0.53116 0.98058 0.0
Mn693 Mn 0.50395 0.52229 0.97535 0.0
O694 O 0.46717 0.48129 0.00883 0.0
O695 O 0.499 0.47785 0.01745 0.0
Mn696 Mn 0.48755 0.47184 0.03592 0.0
O697 O 0.49756 0.51163 0.02693 0.0
O698 O 0.46253 0.4632 0.03063 0.0
O699 O 0.49426 0.48284 0.98464 0.0
O700 O 0.4928 0.49966 0.96405 0.0
O701 O 0.49777 0.45617 0.03274 0.0
O702 O 0.49881 0.49439 0.04734 0.0
C703 C 0.48876 0.53007 0.99175 0.0
C704 C 0.53523 0.52563 0.99216 0.0
C705 C 0.45642 0.46891 0.01909 0.0
C706 C 0.50287 0.46453 0.0191 0.0
C707 C 0.49968 0.50939 0.04181 0.0
C708 C 0.49223 0.48486 0.96971 0.0
O709 O 0.49272 0.51685 0.99392 0.0
O710 O 0.49362 0.53789 0.97787 0.0
O711 O 0.14127 0.31446 0.34264 0.0
Mn712 Mn 0.16803 0.33777 0.33888 0.0
O713 O 0.12478 0.32492 0.35634 0.0
Mn714 Mn 0.14455 0.34932 0.36022 0.0
O715 O 0.19504 0.36098 0.33506 0.0
O716 O 0.17701 0.31951 0.33444 0.0
Mn717 Mn 0.19109 0.32581 0.31734 0.0
O718 O 0.16188 0.33843 0.31481 0.0
O719 O 0.21126 0.34968 0.32194 0.0
O720 O 0.17416 0.33731 0.36309 0.0
O721 O 0.16037 0.35098 0.37658 0.0
O722 O 0.18918 0.30349 0.32495 0.0
O723 O 0.17592 0.32542 0.30084 0.0
C724 C 0.15575 0.36978 0.34127 0.0
C725 C 0.12612 0.31167 0.34943 0.0
C726 C 0.21024 0.36322 0.32867 0.0
C727 C 0.17881 0.30478 0.33583 0.0
C728 C 0.16533 0.33263 0.30169 0.0
C729 C 0.17098 0.34378 0.376 0.0
O730 O 0.15866 0.35577 0.34312 0.0
O731 O 0.14507 0.37074 0.35202 0.0
O732 O 0.68487 0.82645 0.33673 0.0
Mn733 Mn 0.66469 0.83443 0.33984 0.0
O734 O 0.6753 0.79947 0.35051 0.0
Mn735 Mn 0.65619 0.80031 0.36139 0.0
O736 O 0.64446 0.84232 0.34293 0.0
O737 O 0.68368 0.86057 0.3322 0.0
Mn738 Mn 0.67282 0.86829 0.31832 0.0
O739 O 0.65508 0.82532 0.31669 0.0
O740 O 0.65386 0.86931 0.32928 0.0
O741 O 0.6741 0.8434 0.36307 0.0
O742 O 0.66392 0.81733 0.37821 0.0
O743 O 0.69728 0.88759 0.31996 0.0
O744 O 0.66472 0.85122 0.30149 0.0
C745 C 0.63046 0.79228 0.34888 0.0
C746 C 0.68671 0.81236 0.34108 0.0
C747 C 0.6424 0.85628 0.33857 0.0
C748 C 0.69894 0.87661 0.33018 0.0
C749 C 0.65637 0.83325 0.30317 0.0
C750 C 0.67235 0.83532 0.37661 0.0
O751 O 0.64578 0.80834 0.3474 0.0
O752 O 0.6317 0.7811 0.35913 0.0
O753 O 0.19626 0.85322 0.33108 0.0
Mn754 Mn 0.16749 0.83721 0.33423 0.0
O755 O 0.20088 0.87175 0.30963 0.0
Mn756 Mn 0.17582 0.86271 0.30446 0.0
O757 O 0.13878 0.82125 0.3375 0.0
O758 O 0.17056 0.81717 0.34531 0.0
Mn759 Mn 0.15941 0.81124 0.3639 0.0
O760 O 0.16941 0.85111 0.35579 0.0
O761 O 0.13434 0.80284 0.35904 0.0
O762 O 0.16554 0.8231 0.31287 0.0
O763 O 0.16481 0.84056 0.29254 0.0
O764 O 0.16953 0.79559 0.36084 0.0
O765 O 0.17112 0.83349 0.3756 0.0
C766 C 0.16001 0.87019 0.32021 0.0
C767 C 0.20703 0.86588 0.32101 0.0
C768 C 0.12812 0.80877 0.34774 0.0
C769 C 0.17452 0.80387 0.34715 0.0
C770 C 0.17184 0.84857 0.37053 0.0
C771 C 0.16356 0.82541 0.29801 0.0
O772 O 0.16429 0.85723 0.323 0.0
O773 O 0.16534 0.87807 0.30638 0.0
O774 O 0.8017 0.64493 0.66999 0.0
Mn775 Mn 0.82923 0.66689 0.66664 0.0
O776 O 0.78732 0.65689 0.68491 0.0
Mn777 Mn 0.80845 0.67999 0.6898 0.0
O778 O 0.85665 0.68889 0.66339 0.0
O779 O 0.83652 0.64759 0.66083 0.0
Mn780 Mn 0.85024 0.65415 0.64347 0.0
O781 O 0.82348 0.66968 0.64273 0.0
O782 O 0.87126 0.6775 0.64815 0.0
O783 O 0.83498 0.66406 0.69048 0.0
O784 O 0.82338 0.67861 0.70563 0.0
O785 O 0.84798 0.63141 0.6502 0.0
O786 O 0.83499 0.65497 0.62766 0.0
C787 C 0.82118 0.70158 0.67184 0.0
C788 C 0.78718 0.64328 0.67716 0.0
C789 C 0.87122 0.69087 0.65612 0.0
C790 C 0.83822 0.63273 0.66162 0.0
C791 C 0.82581 0.66363 0.62922 0.0
C792 C 0.83253 0.66991 0.70403 0.0
O793 O 0.82213 0.68629 0.67248 0.0
O794 O 0.81154 0.70316 0.68323 0.0
O795 O 0.34808 0.1489 0.66603 0.0
Mn796 Mn 0.3345 0.16448 0.6667 0.0
O797 O 0.33683 0.12841 0.68669 0.0
Mn798 Mn 0.32091 0.13619 0.69542 0.0
O799 O 0.32094 0.18006 0.66739 0.0
O800 O 0.35544 0.1853 0.65466 0.0
Mn801 Mn 0.34795 0.19252 0.63788 0.0
O802 O 0.32021 0.15177 0.64554 0.0
O803 O 0.33171 0.20002 0.64638 0.0
O804 O 0.34875 0.17711 0.68785 0.0
O805 O 0.33291 0.15765 0.70817 0.0
O806 O 0.37383 0.20835 0.63949 0.0
O807 O 0.33627 0.171 0.62518 0.0
C808 C 0.29675 0.13029 0.68108 0.0
C809 C 0.34754 0.13553 0.67457 0.0
C810 C 0.32119 0.19314 0.65864 0.0
C811 C 0.37217 0.19896 0.65236 0.0
C812 C 0.32315 0.15533 0.63057 0.0
C813 C 0.34594 0.17339 0.70281 0.0
O814 O 0.31356 0.14372 0.67876 0.0
O815 O 0.29497 0.12072 0.69386 0.0
O816 O 0.86389 0.18512 0.6631 0.0
Mn817 Mn 0.83498 0.1699 0.66522 0.0
O818 O 0.87021 0.20346 0.64124 0.0
Mn819 Mn 0.84562 0.19568 0.6351 0.0
O820 O 0.80596 0.15466 0.66743 0.0
O821 O 0.83698 0.14991 0.67733 0.0
Mn822 Mn 0.82422 0.14371 0.69514 0.0
O823 O 0.83614 0.18426 0.68632 0.0
O824 O 0.79969 0.13497 0.68841 0.0
O825 O 0.83366 0.1554 0.64406 0.0
O826 O 0.83415 0.17333 0.62349 0.0
O827 O 0.83501 0.12846 0.6935 0.0
O828 O 0.83445 0.16589 0.707 0.0
C829 C 0.83007 0.2038 0.65077 0.0
C830 C 0.87542 0.19735 0.65313 0.0
C831 C 0.79448 0.14161 0.67692 0.0
C832 C 0.84121 0.13699 0.68003 0.0
C833 C 0.83656 0.18137 0.70135 0.0
C834 C 0.83235 0.15796 0.62908 0.0
O835 O 0.83328 0.1901 0.65314 0.0
O836 O 0.8361 0.21203 0.63716 0.0
H837 H 0.31148 0.81099 0.03832 0.0
H838 H 0.33824 0.83679 0.02465 0.0
H839 H 0.36401 0.86056 0.06999 0.0
H840 H 0.33786 0.83437 0.08371 0.0
H841 H 0.35008 0.87362 0.02556 0.0
H842 H 0.40751 0.86297 0.04668 0.0
H843 H 0.38321 0.84521 0.04919 0.0
H844 H 0.39453 0.86461 0.06309 0.0
C845 C 0.32303 0.82145 0.0454 0.0
C846 C 0.32247 0.82052 0.06216 0.0
C847 C 0.33828 0.83629 0.03755 0.0
C848 C 0.35333 0.85048 0.04625 0.0
C849 C 0.35283 0.84956 0.06296 0.0
H850 H 0.42638 0.96658 0.02727 0.0
H851 H 0.40034 0.9349 0.03205 0.0
C852 C 0.33767 0.83469 0.07082 0.0
C853 C 0.36892 0.86697 0.038 0.0
H854 H 0.41654 0.89429 0.0369 0.0
C855 C 0.36461 0.87795 0.02785 0.0
C856 C 0.38792 0.87248 0.04065 0.0
C857 C 0.39356 0.86056 0.05036 0.0
C858 C 0.37872 0.89483 0.02105 0.0
C859 C 0.39767 0.90116 0.02481 0.0
C860 C 0.40202 0.88961 0.03417 0.0
C861 C 0.41299 0.92039 0.02038 0.0
C862 C 0.37314 0.9058 0.01006 0.0
C863 C 0.42897 0.92291 0.0123 0.0
C864 C 0.4441 0.94118 0.00962 0.0
C865 C 0.44362 0.95726 0.01513 0.0
C866 C 0.42732 0.95462 0.02278 0.0
C867 C 0.41228 0.93643 0.02545 0.0
H868 H 0.3597 0.89624 0.00394 0.0
H869 H 0.37114 0.91616 0.01714 0.0
H870 H 0.38402 0.91366 0.00091 0.0
H871 H 0.42988 0.91073 0.00835 0.0
H872 H 0.45636 0.94267 0.00366 0.0
H873 H 0.16576 0.46458 0.0203 0.0
H874 H 0.14488 0.47331 0.00669 0.0
H875 H 0.09702 0.4231 0.02518 0.0
H876 H 0.1177 0.41395 0.0383 0.0
H877 H 0.09256 0.43132 0.99334 0.0
H878 H 0.11759 0.49435 0.03313 0.0
H879 H 0.13494 0.4928 0.02137 0.0
H880 H 0.12304 0.47586 0.03692 0.0
C881 C 0.15079 0.45521 0.02118 0.0
C882 C 0.14336 0.43871 0.03057 0.0
C883 C 0.1389 0.4603 0.01351 0.0
C884 C 0.11944 0.44902 0.01518 0.0
C885 C 0.11201 0.43206 0.02382 0.0
H886 H 0.01605 0.44195 0.01426 0.0
H887 H 0.04273 0.4372 0.01132 0.0
C888 C 0.12385 0.42694 0.03143 0.0
C889 C 0.10663 0.45534 0.00909 0.0
H890 H 0.09185 0.48686 0.01686 0.0
C891 C 0.09258 0.44366 -0.00175 0.0
C892 C 0.10677 0.47152 0.01546 0.0
C893 C 0.12129 0.48434 0.02744 0.0
C894 C 0.07811 0.44718 0.99422 0.0
C895 C 0.07758 0.46261 0.0014 0.0
C896 C 0.09231 0.47503 0.01138 0.0
C897 C 0.06076 0.46462 0.00065 0.0
C898 C 0.06319 0.43401 0.9827 0.0
C899 C 0.06202 0.48165 0.99563 0.0
C900 C 0.04673 0.48446 -0.00264 0.0
C901 C 0.03006 0.4704 0.0044 0.0
C902 C 0.02868 0.45311 0.00885 0.0
C903 C 0.04388 0.45027 0.00702 0.0
H904 H 0.06873 0.42749 0.97428 0.0
H905 H 0.05158 0.42238 0.98945 0.0
H906 H 0.05745 0.44157 0.97577 0.0
H907 H 0.075 0.49298 0.99085 0.0
H908 H 0.04826 0.49795 0.99383 0.0
H909 H 0.47041 0.64242 0.0905 0.0
H910 H 0.4692 0.61473 0.07797 0.0
H911 H 0.48484 0.64415 0.03301 0.0
H912 H 0.48702 0.67227 0.0456 0.0
H913 H 0.44945 0.5913 0.05347 0.0
H914 H 0.52507 0.6301 0.03931 0.0
H915 H 0.51447 0.63975 0.05224 0.0
H916 H 0.51287 0.64112 0.03094 0.0
C917 C 0.4737 0.64307 0.07795 0.0
C918 C 0.47916 0.65976 0.06914 0.0
C919 C 0.47284 0.62714 0.07078 0.0
C920 C 0.47735 0.6275 0.05464 0.0
C921 C 0.48174 0.64371 0.04558 0.0
H922 H 0.45946 0.53624 0.99159 0.0
H923 H 0.45535 0.55811 0.00891 0.0
C924 C 0.48274 0.65971 0.05276 0.0
C925 C 0.47808 0.6112 0.04744 0.0
H926 H 0.50697 0.59967 0.02747 0.0
C927 C 0.46204 0.59309 0.04782 0.0
C928 C 0.49466 0.6134 0.04052 0.0
C929 C 0.5128 0.63209 0.04086 0.0
C930 C 0.46196 0.57729 0.04094 0.0
C931 C 0.47823 0.57976 0.03317 0.0
C932 C 0.49442 0.59775 0.03328 0.0
C933 C 0.47877 0.5642 0.02433 0.0
C934 C 0.44461 0.55806 0.04239 0.0
C935 C 0.49329 0.5603 0.02713 0.0
C936 C 0.49562 0.54783 0.01721 0.0
C937 C 0.4834 0.53892 0.00439 0.0
C938 C 0.46861 0.54241 0.00179 0.0
C939 C 0.46626 0.55489 0.0117 0.0
H940 H 0.43619 0.5574 0.05294 0.0
H941 H 0.43576 0.55532 0.03165 0.0
H942 H 0.44816 0.54663 0.0434 0.0
H943 H 0.50329 0.5675 0.03664 0.0
H944 H 0.50773 0.54619 0.01894 0.0
H945 H 0.82547 0.36223 0.91327 0.0
H946 H 0.85274 0.39004 0.92469 0.0
H947 H 0.84679 0.35878 0.96779 0.0
H948 H 0.8201 0.33075 0.9563 0.0
H949 H 0.85897 0.41177 0.95259 0.0
H950 H 0.89986 0.37484 0.95251 0.0
H951 H 0.87807 0.36594 0.94183 0.0
H952 H 0.87806 0.36173 0.96288 0.0
C953 C 0.82996 0.36127 0.92519 0.0
C954 C 0.82072 0.34414 0.93378 0.0
C955 C 0.84546 0.37722 0.93172 0.0
C956 C 0.85198 0.37632 0.94694 0.0
C957 C 0.84216 0.35964 0.95589 0.0
H958 H 0.92537 0.45516 0.01541 0.0
H959 H 0.89965 0.43754 0.99662 0.0
C960 C 0.82675 0.34368 0.94937 0.0
C961 C 0.86955 0.3924 0.95326 0.0
H962 H 0.91203 0.40295 0.96831 0.0
C963 C 0.87068 0.40996 0.9559 0.0
C964 C 0.88505 0.39021 0.95706 0.0
C965 C 0.88533 0.37223 0.95327 0.0
C966 C 0.88651 0.42505 0.96316 0.0
C967 C 0.90134 0.42229 0.96817 0.0
C968 C 0.90059 0.40506 0.96467 0.0
C969 C 0.9172 0.43635 0.97802 0.0
C970 C 0.88723 0.44379 0.96534 0.0
C971 C 0.93565 0.44168 0.97385 0.0
C972 C 0.95031 0.45177 0.98458 0.0
C973 C 0.94675 0.45668 -0.00036 0.0
C974 C 0.92847 0.45204 0.00363 0.0
C975 C 0.9138 0.44202 0.99287 0.0
H976 H 0.87863 0.44578 0.9562 0.0
H977 H 0.88147 0.44406 0.9772 0.0
H978 H 0.90181 0.45585 0.96464 0.0
H979 H 0.9386 0.43718 0.96261 0.0
H980 H 0.96416 0.45443 0.98155 0.0
H981 H 0.69606 0.53837 0.97376 0.0
H982 H 0.66654 0.53326 0.9848 0.0
H983 H 0.67001 0.57839 0.95554 0.0
H984 H 0.69999 0.58422 0.94495 0.0
H985 H 0.65852 0.57921 0.98654 0.0
H986 H 0.61748 0.50711 0.96016 0.0
H987 H 0.63646 0.51039 0.97275 0.0
H988 H 0.6413 0.52346 0.95445 0.0
C989 C 0.69071 0.54742 0.96984 0.0
C990 C 0.70037 0.56164 0.95838 0.0
C991 C 0.67372 0.54432 0.97603 0.0
C992 C 0.66593 0.55521 0.97077 0.0
C993 C 0.67573 0.56974 0.95967 0.0
H994 H 0.56311 0.55576 0.9762 0.0
H995 H 0.59571 0.56387 0.97368 0.0
C996 C 0.69278 0.57292 0.95352 0.0
C997 C 0.64737 0.55123 0.97653 0.0
H998 H 0.60111 0.51739 0.97655 0.0
C999 C 0.64597 0.56568 0.98442 0.0
C1000 C 0.63103 0.53355 0.97374 0.0
C1001 C 0.63153 0.51778 0.96469 0.0
C1002 C 0.6286 0.56294 0.98952 0.0
C1003 C 0.61226 0.54537 0.9865 0.0
C1004 C 0.61372 0.5308 0.97894 0.0
C1005 C 0.59333 0.54217 0.98993 0.0
C1006 C 0.62785 0.57884 -0.00193 0.0
C1007 C 0.58121 0.52734 -0.0 0.0
C1008 C 0.56251 0.52263 0.00147 0.0
C1009 C 0.55557 0.53252 0.9927 0.0
C1010 C 0.56798 0.54784 0.98311 0.0
C1011 C 0.58667 0.5526 0.98174 0.0
H1012 H 0.64162 0.58909 0.00337 0.0
H1013 H 0.62401 0.58664 0.98944 0.0
H1014 H 0.61716 0.57326 0.00765 0.0
H1015 H 0.58608 0.51904 0.00632 0.0
H1016 H 0.55332 0.51067 0.00887 0.0
H1017 H 0.50142 0.18102 0.95777 0.0
H1018 H 0.50266 0.15404 0.96911 0.0
H1019 H 0.52523 0.14684 0.92509 0.0
H1020 H 0.52471 0.17425 0.91384 0.0
H1021 H 0.48361 0.11763 0.95815 0.0
H1022 H 0.55983 0.14339 0.95783 0.0
H1023 H 0.55047 0.15907 0.9553 0.0
H1024 H 0.55043 0.14482 0.93891 0.0
C1025 C 0.50706 0.174 0.9506 0.0
C1026 C 0.51296 0.17988 0.93487 0.0
C1027 C 0.50763 0.15847 0.95707 0.0
C1028 C 0.5142 0.14848 0.94803 0.0
C1029 C 0.52041 0.15448 0.93242 0.0
H1030 H 0.48273 0.03285 0.9772 0.0
H1031 H 0.49013 0.05995 0.95978 0.0
C1032 C 0.51987 0.17004 0.92593 0.0
C1033 C 0.51334 0.13109 0.95463 0.0
H1034 H 0.53984 0.11112 0.9647 0.0
C1035 C 0.4959 0.11619 0.95954 0.0
C1036 C 0.52941 0.12924 0.95648 0.0
C1037 C 0.54864 0.14503 0.952 0.0
C1038 C 0.49407 0.09964 0.96642 0.0
C1039 C 0.51008 0.09766 0.96814 0.0
C1040 C 0.52754 0.1125 0.96313 0.0
C1041 C 0.50908 0.08111 0.97657 0.0
C1042 C 0.47507 0.08474 0.97237 0.0
C1043 C 0.51833 0.08389 0.99122 0.0
C1044 C 0.51441 0.06842 0.00095 0.0
C1045 C 0.50142 0.0499 0.9961 0.0
C1046 C 0.49324 0.04697 0.98095 0.0
C1047 C 0.49722 0.06247 0.97115 0.0
H1048 H 0.46522 0.09025 0.97328 0.0
H1049 H 0.46897 0.07259 0.96395 0.0
H1050 H 0.47619 0.07941 0.98425 0.0
H1051 H 0.52753 0.09811 0.99566 0.0
H1052 H 0.52054 0.07101 0.01276 0.0
H1053 H 0.66386 0.16637 0.92091 0.0
H1054 H 0.63849 0.14051 0.93557 0.0
H1055 H 0.6651 0.16695 0.98 0.0
H1056 H 0.69114 0.19243 0.96539 0.0
H1057 H 0.65391 0.13038 0.98064 0.0
H1058 H 0.59509 0.13822 0.95879 0.0
H1059 H 0.60783 0.13599 0.94247 0.0
H1060 H 0.61918 0.15618 0.95561 0.0
C1061 C 0.66442 0.1667 0.9338 0.0
C1062 C 0.67965 0.18155 0.94192 0.0
C1063 C 0.64969 0.15201 0.94219 0.0
C1064 C 0.64963 0.15194 0.95892 0.0
C1065 C 0.66472 0.16678 0.9671 0.0
H1066 H 0.54787 0.06043 0.00354 0.0
H1067 H 0.57391 0.09238 -0.00192 0.0
C1068 C 0.67955 0.18143 0.9587 0.0
C1069 C 0.63442 0.13572 0.96776 0.0
H1070 H 0.58693 0.10754 0.96961 0.0
C1071 C 0.63927 0.12558 0.97841 0.0
C1072 C 0.61527 0.12963 0.96522 0.0
C1073 C 0.60905 0.14072 0.95504 0.0
C1074 C 0.62554 0.10893 0.98581 0.0
C1075 C 0.60645 0.10193 0.98215 0.0
C1076 C 0.60156 0.1127 0.97227 0.0
C1077 C 0.5915 0.08278 0.98725 0.0
C1078 C 0.63171 0.09896 -0.00263 0.0
C1079 C 0.59275 0.06675 0.98313 0.0
C1080 C 0.57801 0.04855 0.98634 0.0
C1081 C 0.56148 0.04585 0.99354 0.0
C1082 C 0.56042 0.06194 -0.00192 0.0
C1083 C 0.57527 0.08023 0.9949 0.0
H1084 H 0.64505 0.10918 0.00332 0.0
H1085 H 0.62098 0.09125 0.00666 0.0
H1086 H 0.63418 0.0886 0.99078 0.0
H1087 H 0.60485 0.06826 0.97684 0.0
H1088 H 0.57936 0.03656 0.98259 0.0
H1089 H 0.8487 0.56687 0.98617 0.0
H1090 H 0.87329 0.56253 -0.00156 0.0
H1091 H 0.86215 0.51819 0.96461 0.0
H1092 H 0.83764 0.52245 0.95229 0.0
H1093 H 0.87527 0.52919 0.01089 0.0
H1094 H 0.91699 0.56204 0.95628 0.0
H1095 H 0.89644 0.56339 0.96125 0.0
H1096 H 0.8941 0.54207 0.95271 0.0
C1097 C 0.85121 0.55589 0.98161 0.0
C1098 C 0.84149 0.54518 0.96814 0.0
C1099 C 0.86523 0.55344 0.98862 0.0
C1100 C 0.86963 0.54023 0.98226 0.0
C1101 C 0.85906 0.52862 0.96954 0.0
H1102 H 0.94558 0.5013 0.00685 0.0
H1103 H 0.91838 0.50565 0.00613 0.0
C1104 C 0.84515 0.53112 0.96249 0.0
C1105 C 0.88653 0.53997 0.98764 0.0
H1106 H 0.92911 0.54878 0.97447 0.0
C1107 C 0.88714 0.53357 0.00302 0.0
C1108 C 0.90206 0.54604 0.97741 0.0
C1109 C 0.90252 0.55394 0.96104 0.0
C1110 C 0.90279 0.53253 0.00827 0.0
C1111 C 0.91799 0.53785 -0.00225 0.0
C1112 C 0.91747 0.5447 0.98254 0.0
C1113 C 0.93441 0.53588 0.00176 0.0
C1114 C 0.90295 0.52586 0.02498 0.0
C1115 C 0.95249 0.55147 -0.00016 0.0
C1116 C 0.96799 0.54896 -6e-05 0.0
C1117 C 0.96571 0.53083 0.00211 0.0
C1118 C 0.94777 0.51547 0.00529 0.0
C1119 C 0.9322 0.51796 0.00496 0.0
H1120 H 0.89339 0.52801 0.03289 0.0
H1121 H 0.8981 0.51046 0.02472 0.0
H1122 H 0.91725 0.53339 0.03016 0.0
H1123 H 0.9545 0.56543 -0.00265 0.0
H1124 H 0.98167 0.56107 -0.00244 0.0
H1125 H 0.48305 0.32949 0.93262 0.0
H1126 H 0.48584 0.35793 0.94498 0.0
H1127 H 0.54008 0.37232 0.96358 0.0
H1128 H 0.53733 0.3437 0.95122 0.0
H1129 H 0.51831 0.37586 0.98582 0.0
H1130 H 0.51683 0.4125 0.93091 0.0
H1131 H 0.49669 0.38926 0.93236 0.0
H1132 H 0.51959 0.39189 0.93046 0.0
C1133 C 0.49567 0.33879 0.9392 0.0
C1134 C 0.51006 0.33441 0.9408 0.0
C1135 C 0.49728 0.35512 0.9462 0.0
C1136 C 0.51338 0.36756 0.95485 0.0
C1137 C 0.52761 0.36304 0.9568 0.0
H1138 H 0.5357 0.46501 0.01492 0.0
H1139 H 0.54073 0.44363 -0.00239 0.0
C1140 C 0.52598 0.34662 0.94983 0.0
C1141 C 0.51482 0.3847 0.96255 0.0
H1142 H 0.5108 0.42379 0.9554 0.0
C1143 C 0.51704 0.38656 0.97915 0.0
C1144 C 0.51303 0.39861 0.95383 0.0
C1145 C 0.51159 0.39807 0.93589 0.0
C1146 C 0.51679 0.40147 0.98735 0.0
C1147 C 0.51463 0.41518 0.97867 0.0
C1148 C 0.51269 0.41348 0.96204 0.0
C1149 C 0.5132 0.43062 0.98684 0.0
C1150 C 0.51793 0.40187 0.00531 0.0
C1151 C 0.49658 0.43131 0.98573 0.0
C1152 C 0.49393 0.44385 0.9953 0.0
C1153 C 0.50789 0.45594 0.00603 0.0
C1154 C 0.52491 0.45604 0.00649 0.0
C1155 C 0.52766 0.44367 0.99678 0.0
H1156 H 0.51501 0.388 0.01026 0.0
H1157 H 0.53225 0.41272 0.00908 0.0
H1158 H 0.50789 0.40562 0.01059 0.0
H1159 H 0.48526 0.42145 0.97811 0.0
H1160 H 0.48053 0.44326 0.99503 0.0
H1161 H 0.19872 0.65347 0.052 0.0
H1162 H 0.17469 0.62416 0.03918 0.0
H1163 H 0.13158 0.63144 0.06128 0.0
H1164 H 0.15533 0.6605 0.07405 0.0
H1165 H 0.12551 0.59456 0.06399 0.0
H1166 H 0.14151 0.62072 0.00145 0.0
H1167 H 0.16044 0.62207 0.01308 0.0
H1168 H 0.15054 0.63657 0.01832 0.0
C1169 C 0.18411 0.64885 0.05401 0.0
C1170 C 0.17893 0.65926 0.06409 0.0
C1171 C 0.17041 0.63212 0.0467 0.0
C1172 C 0.15135 0.62568 0.04922 0.0
C1173 C 0.14621 0.63608 0.05925 0.0
H1174 H 0.04219 0.56027 0.01976 0.0
H1175 H 0.07143 0.57653 0.03484 0.0
C1176 C 0.15981 0.65267 0.06658 0.0
C1177 C 0.13646 0.60826 0.04145 0.0
H1178 H 0.11498 0.59095 0.00561 0.0
C1179 C 0.12339 0.59361 0.05119 0.0
C1180 C 0.13378 0.60695 0.02474 0.0
C1181 C 0.1472 0.62242 0.01373 0.0
C1182 C 0.10719 0.57825 0.04476 0.0
C1183 C 0.10389 0.57758 0.0282 0.0
C1184 C 0.11758 0.59149 0.01832 0.0
C1185 C 0.08527 0.56454 0.02122 0.0
C1186 C 0.09338 0.56331 0.05588 0.0
C1187 C 0.08319 0.55211 0.00875 0.0
C1188 C 0.06622 0.54239 0.00042 0.0
C1189 C 0.05122 0.54506 0.00447 0.0
C1190 C 0.05322 0.55717 0.0171 0.0
C1191 C 0.06999 0.5666 0.02558 0.0
H1192 H 0.10063 0.56161 0.06636 0.0
H1193 H 0.0836 0.56787 0.06031 0.0
H1194 H 0.08515 0.54937 0.04984 0.0
H1195 H 0.09494 0.55061 0.00501 0.0
H1196 H 0.06519 0.53375 0.99023 0.0
H1197 H 0.29024 0.41074 0.06232 0.0
H1198 H 0.32066 0.41667 0.05283 0.0
H1199 H 0.32401 0.45996 0.02121 0.0
H1200 H 0.29398 0.45472 0.03113 0.0
H1201 H 0.333 0.41462 0.02246 0.0
H1202 H 0.37247 0.48801 0.04661 0.0
H1203 H 0.3486 0.47162 0.05215 0.0
H1204 H 0.35367 0.48372 0.03334 0.0
C1205 C 0.29752 0.42166 0.05346 0.0
C1206 C 0.28975 0.4324 0.04763 0.0
C1207 C 0.31482 0.4249 0.04794 0.0
C1208 C 0.32471 0.43895 0.0365 0.0
C1209 C 0.31675 0.44929 0.03026 0.0
H1210 H 0.43842 0.48307 0.0012 0.0
H1211 H 0.40558 0.47459 0.00297 0.0
C1212 C 0.29948 0.44612 0.03583 0.0
C1213 C 0.34351 0.44298 0.0314 0.0
H1214 H 0.38961 0.47728 0.03181 0.0
C1215 C 0.34538 0.42833 0.02444 0.0
C1216 C 0.35962 0.4609 0.034 0.0
C1217 C 0.3586 0.47694 0.04206 0.0
C1218 C 0.36298 0.43111 0.02009 0.0
C1219 C 0.37909 0.44891 0.02294 0.0
C1220 C 0.37718 0.46368 0.02956 0.0
C1221 C 0.39821 0.45226 0.02023 0.0
C1222 C 0.36422 0.41498 0.01249 0.0
C1223 C 0.40484 0.44233 0.02921 0.0
C1224 C 0.42359 0.44715 0.02828 0.0
C1225 C 0.43609 0.46204 0.01837 0.0
C1226 C 0.42919 0.47146 0.00889 0.0
C1227 C 0.41044 0.46668 0.0099 0.0
H1228 H 0.35067 0.40436 0.00709 0.0
H1229 H 0.37519 0.42026 0.00316 0.0
H1230 H 0.36793 0.40769 0.02174 0.0
H1231 H 0.39571 0.43139 0.03747 0.0
H1232 H 0.4284 0.4396 0.03574 0.0
H1233 H 0.48258 0.8302 0.09623 0.0
H1234 H 0.48319 0.85786 0.08437 0.0
H1235 H 0.49195 0.84085 0.03801 0.0
H1236 H 0.49231 0.81367 0.04987 0.0
H1237 H 0.51634 0.87709 0.04354 0.0
H1238 H 0.44564 0.86423 0.05844 0.0
H1239 H 0.45843 0.86392 0.07562 0.0
H1240 H 0.45203 0.84613 0.06039 0.0
C1241 C 0.48464 0.8323 0.0835 0.0
C1242 C 0.4875 0.81966 0.07405 0.0
C1243 C 0.48469 0.84802 0.07669 0.0
C1244 C 0.48734 0.85136 0.06024 0.0
C1245 C 0.48975 0.83853 0.05072 0.0
H1246 H 0.48081 0.93492 0.00085 0.0
H1247 H 0.47294 0.90678 0.01696 0.0
C1248 C 0.48981 0.82288 0.05753 0.0
C1249 C 0.48919 0.86899 0.05312 0.0
H1250 H 0.46754 0.89525 0.04898 0.0
C1251 C 0.50561 0.88099 0.0447 0.0
C1252 C 0.47514 0.87406 0.05448 0.0
C1253 C 0.45674 0.86132 0.06258 0.0
C1254 C 0.50847 0.89789 0.03774 0.0
C1255 C 0.49476 0.90335 0.0396 0.0
C1256 C 0.47819 0.89126 0.04782 0.0
C1257 C 0.49718 0.92111 0.03233 0.0
C1258 C 0.52599 0.9095 0.02808 0.0
C1259 C 0.51283 0.93874 0.03616 0.0
C1260 C 0.51729 0.95476 0.02694 0.0
C1261 C 0.5058 0.95361 0.01417 0.0
C1262 C 0.48941 0.93634 0.01109 0.0
C1263 C 0.48504 0.92022 0.02018 0.0
H1264 H 0.53249 0.901 0.02438 0.0
H1265 H 0.52299 0.91531 0.01723 0.0
H1266 H 0.53637 0.92155 0.0354 0.0
H1267 H 0.52227 0.93985 0.04561 0.0
H1268 H 0.53039 0.96772 0.02911 0.0
H1269 H 0.9799 0.14304 0.37079 0.0
H1270 H 0.00688 0.16969 0.35805 0.0
H1271 H 0.03046 0.19235 0.40423 0.0
H1272 H 0.00411 0.16538 0.41701 0.0
H1273 H 0.01766 0.20616 0.35951 0.0
H1274 H 0.07564 0.19736 0.38208 0.0
H1275 H 0.05147 0.17902 0.38403 0.0
H1276 H 0.06191 0.1982 0.39823 0.0
C1277 C 0.99102 0.15345 0.37825 0.0
C1278 C 0.98974 0.15199 0.39497 0.0
C1279 C 0.00641 0.16877 0.37093 0.0
C1280 C 0.02091 0.18294 0.38014 0.0
C1281 C 0.01973 0.18143 0.39681 0.0
H1282 H 0.09173 0.30046 0.36227 0.0
H1283 H 0.06651 0.26835 0.36726 0.0
C1284 C 0.00444 0.16609 0.40413 0.0
C1285 C 0.03656 0.20002 0.37246 0.0
H1286 H 0.08409 0.22877 0.37284 0.0
C1287 C 0.0322 0.21092 0.36225 0.0
C1288 C 0.0556 0.20615 0.37569 0.0
C1289 C 0.06143 0.19443 0.38547 0.0
C1290 C 0.04621 0.22821 0.35594 0.0
C1291 C 0.06512 0.23509 0.36025 0.0
C1292 C 0.0696 0.22369 0.36971 0.0
C1293 C 0.08021 0.2546 0.35609 0.0
C1294 C 0.04055 0.23899 0.34479 0.0
C1295 C 0.09659 0.25773 0.34833 0.0
C1296 C 0.11124 0.27625 0.3455 0.0
C1297 C 0.10989 0.29202 0.35056 0.0
C1298 C 0.09331 0.28875 0.35808 0.0
C1299 C 0.07874 0.27031 0.36088 0.0
H1300 H 0.02741 0.22925 0.33834 0.0
H1301 H 0.03794 0.24899 0.3518 0.0
H1302 H 0.05164 0.24723 0.33591 0.0
H1303 H 0.09813 0.24584 0.34463 0.0
H1304 H 0.12378 0.27819 0.33974 0.0
H1305 H 0.84196 0.81239 0.35554 0.0
H1306 H 0.82232 0.82299 0.34225 0.0
H1307 H 0.77328 0.76923 0.35267 0.0
H1308 H 0.79277 0.75839 0.36556 0.0
H1309 H 0.77395 0.78373 0.32121 0.0
H1310 H 0.78898 0.8368 0.36936 0.0
H1311 H 0.80851 0.83793 0.35891 0.0
H1312 H 0.79445 0.81808 0.37158 0.0
C1313 C 0.82703 0.80272 0.35473 0.0
C1314 C 0.81886 0.78464 0.36176 0.0
C1315 C 0.81584 0.80885 0.34724 0.0
C1316 C 0.79635 0.79697 0.34668 0.0
C1317 C 0.7883 0.77863 0.35303 0.0
H1318 H 0.69097 0.78136 0.34055 0.0
H1319 H 0.71983 0.78068 0.33701 0.0
C1320 C 0.79943 0.77252 0.36051 0.0
C1321 C 0.78396 0.8038 0.34059 0.0
H1322 H 0.76488 0.83079 0.35156 0.0
C1323 C 0.77221 0.79432 0.32761 0.0
C1324 C 0.78187 0.81776 0.34887 0.0
C1325 C 0.79401 0.82823 0.36301 0.0
C1326 C 0.75763 0.79758 0.32333 0.0
C1327 C 0.75457 0.81037 0.33246 0.0
C1328 C 0.76725 0.82097 0.3446 0.0
C1329 C 0.73677 0.81058 0.33158 0.0
C1330 C 0.74519 0.78673 0.30948 0.0
C1331 C 0.73662 0.82764 0.32965 0.0
C1332 C 0.72003 0.82808 0.33172 0.0
C1333 C 0.70344 0.81153 0.33608 0.0
C1334 C 0.70351 0.79436 0.33727 0.0
C1335 C 0.71999 0.79391 0.33507 0.0
H1336 H 0.75303 0.78355 0.30042 0.0
H1337 H 0.73356 0.773 0.31381 0.0
H1338 H 0.73914 0.79473 0.30371 0.0
H1339 H 0.74948 0.8407 0.32714 0.0
H1340 H 0.72043 0.84154 0.33079 0.0
H1341 H 0.18179 0.01426 0.38715 0.0
H1342 H 0.1778 0.98553 0.37413 0.0
H1343 H 0.11799 0.95929 0.37905 0.0
H1344 H 0.12188 0.98812 0.39208 0.0
H1345 H 0.13834 0.93804 0.39088 0.0
H1346 H 0.15247 0.96374 0.32828 0.0
H1347 H 0.16795 0.97962 0.34335 0.0
H1348 H 0.14388 0.97363 0.34308 0.0
C1349 C 0.16778 0.00242 0.38536 0.0
C1350 C 0.15214 0.00342 0.39063 0.0
C1351 C 0.16553 0.98606 0.37789 0.0
C1352 C 0.14761 0.97035 0.37563 0.0
C1353 C 0.13192 0.97133 0.38067 0.0
H1354 H 0.13045 0.87534 0.3163 0.0
H1355 H 0.12407 0.89721 0.33143 0.0
C1356 C 0.13415 0.98781 0.388 0.0
C1357 C 0.14549 0.95276 0.36845 0.0
H1358 H 0.15144 0.93471 0.33369 0.0
C1359 C 0.14096 0.93717 0.37834 0.0
C1360 C 0.14891 0.95171 0.35211 0.0
C1361 C 0.15346 0.96799 0.34099 0.0
C1362 C 0.14032 0.92071 0.37237 0.0
C1363 C 0.14437 0.91988 0.35612 0.0
C1364 C 0.14832 0.9353 0.34615 0.0
C1365 C 0.14547 0.90365 0.34918 0.0
C1366 C 0.13556 0.90452 0.38358 0.0
C1367 C 0.15917 0.89945 0.35443 0.0
C1368 C 0.1627 0.88681 0.34583 0.0
C1369 C 0.15252 0.87811 0.33193 0.0
C1370 C 0.13815 0.8815 0.32722 0.0
C1371 C 0.13461 0.8941 0.33578 0.0
H1372 H 0.12711 0.90464 0.39382 0.0
H1373 H 0.12775 0.89063 0.37739 0.0
H1374 H 0.14877 0.90605 0.3884 0.0
H1375 H 0.16802 0.90693 0.36452 0.0
H1376 H 0.17443 0.88514 0.34929 0.0
H1377 H 0.47 0.69278 0.27966 0.0
H1378 H 0.49417 0.72285 0.29133 0.0
H1379 H 0.53675 0.71054 0.27574 0.0
H1380 H 0.51287 0.68101 0.26379 0.0
H1381 H 0.51643 0.72911 0.3144 0.0
H1382 H 0.56138 0.76457 0.26327 0.0
H1383 H 0.53879 0.74361 0.26074 0.0
H1384 H 0.55934 0.74169 0.26452 0.0
C1385 C 0.48456 0.69664 0.27863 0.0
C1386 C 0.48956 0.68462 0.2707 0.0
C1387 C 0.49837 0.71387 0.28521 0.0
C1388 C 0.51741 0.71933 0.28405 0.0
C1389 C 0.5223 0.70717 0.27625 0.0
H1390 H 0.60007 0.75739 0.34932 0.0
H1391 H 0.57191 0.74491 0.33349 0.0
C1392 C 0.50859 0.69014 0.26955 0.0
C1393 C 0.5321 0.73647 0.29247 0.0
H1394 H 0.57798 0.77097 0.28932 0.0
C1395 C 0.52971 0.73855 0.30876 0.0
C1396 C 0.54931 0.74946 0.28517 0.0
C1397 C 0.5522 0.74979 0.26741 0.0
C1398 C 0.54463 0.75168 0.31821 0.0
C1399 C 0.56259 0.76253 0.31134 0.0
C1400 C 0.56443 0.76216 0.29474 0.0
C1401 C 0.57975 0.77129 0.32137 0.0
C1402 C 0.54119 0.75313 0.33567 0.0
C1403 C 0.59404 0.79027 0.31952 0.0
C1404 C 0.61057 0.79753 0.32858 0.0
C1405 C 0.61308 0.78584 0.33945 0.0
C1406 C 0.59867 0.76693 0.34119 0.0
C1407 C 0.58236 0.75975 0.33221 0.0
H1408 H 0.52691 0.75089 0.33755 0.0
H1409 H 0.54211 0.74185 0.34231 0.0
H1410 H 0.55155 0.76714 0.34071 0.0
H1411 H 0.59246 0.79939 0.31104 0.0
H1412 H 0.62133 0.81211 0.32694 0.0
H1413 H 0.3833 0.91316 0.31449 0.0
H1414 H 0.35314 0.90758 0.32463 0.0
H1415 H 0.32835 0.8873 0.27835 0.0
H1416 H 0.3582 0.89231 0.26824 0.0
H1417 H 0.33026 0.92219 0.31416 0.0
H1418 H 0.29428 0.84391 0.30859 0.0
H1419 H 0.31941 0.85869 0.3078 0.0
H1420 H 0.3054 0.85603 0.29051 0.0
C1421 C 0.37139 0.90741 0.3065 0.0
C1422 C 0.37312 0.90308 0.29058 0.0
C1423 C 0.35422 0.90433 0.31229 0.0
C1424 C 0.33848 0.89674 0.3023 0.0
C1425 C 0.34027 0.89287 0.28632 0.0
H1426 H 0.23459 0.8941 0.30317 0.0
H1427 H 0.26732 0.90267 0.30161 0.0
C1428 C 0.3574 0.89595 0.28052 0.0
C1429 C 0.32011 0.89283 0.30848 0.0
H1430 H 0.27474 0.8575 0.31227 0.0
C1431 C 0.31815 0.90803 0.31394 0.0
C1432 C 0.30444 0.87428 0.30849 0.0
C1433 C 0.30597 0.85725 0.30369 0.0
C1434 C 0.30065 0.90529 0.31863 0.0
C1435 C 0.28474 0.88692 0.31762 0.0
C1436 C 0.28692 0.8716 0.31293 0.0
C1437 C 0.26551 0.88341 0.32017 0.0
C1438 C 0.29934 0.92209 0.3245 0.0
C1439 C 0.25355 0.86967 0.33112 0.0
C1440 C 0.2347 0.86458 0.33197 0.0
C1441 C 0.22743 0.87303 0.32176 0.0
C1442 C 0.23966 0.88729 0.31123 0.0
C1443 C 0.25846 0.89235 0.3104 0.0
H1444 H 0.31289 0.93324 0.32952 0.0
H1445 H 0.29574 0.92841 0.31435 0.0
H1446 H 0.28836 0.91785 0.33374 0.0
H1447 H 0.2587 0.8625 0.33869 0.0
H1448 H 0.2257 0.85351 0.34019 0.0
H1449 H 0.14764 0.49148 0.25867 0.0
H1450 H 0.14965 0.46496 0.27 0.0
H1451 H 0.20404 0.50392 0.28937 0.0
H1452 H 0.20222 0.53064 0.27793 0.0
H1453 H 0.17655 0.45332 0.26536 0.0
H1454 H 0.17399 0.47333 0.3283 0.0
H1455 H 0.16801 0.48348 0.3118 0.0
H1456 H 0.1921 0.49146 0.3163 0.0
C1457 C 0.16013 0.49445 0.26521 0.0
C1458 C 0.17477 0.51325 0.26739 0.0
C1459 C 0.16123 0.47925 0.2717 0.0
C1460 C 0.17692 0.48244 0.28062 0.0
C1461 C 0.19167 0.50114 0.28272 0.0
H1462 H 0.18862 0.4026 0.34156 0.0
H1463 H 0.19744 0.43007 0.32434 0.0
C1464 C 0.19058 0.5164 0.27622 0.0
C1465 C 0.17748 0.46617 0.28804 0.0
H1466 H 0.17674 0.44636 0.32402 0.0
C1467 C 0.17673 0.45183 0.27819 0.0
C1468 C 0.17773 0.46426 0.30476 0.0
C1469 C 0.17785 0.47883 0.31596 0.0
C1470 C 0.17609 0.43557 0.28463 0.0
C1471 C 0.17587 0.43345 0.30138 0.0
C1472 C 0.17706 0.44802 0.31118 0.0
C1473 C 0.17299 0.41577 0.30916 0.0
C1474 C 0.17572 0.42087 0.27343 0.0
C1475 C 0.15671 0.39835 0.30604 0.0
C1476 C 0.15199 0.38255 0.31565 0.0
C1477 C 0.16349 0.38388 0.32847 0.0
C1478 C 0.18012 0.40099 0.3312 0.0
C1479 C 0.18495 0.41675 0.32153 0.0
H1480 H 0.18241 0.42729 0.26187 0.0
H1481 H 0.18293 0.41372 0.27866 0.0
H1482 H 0.16097 0.40996 0.27095 0.0
H1483 H 0.14695 0.39729 0.29692 0.0
H1484 H 0.13874 0.36967 0.31373 0.0
H1485 H 0.3578 0.49788 0.27418 0.0
H1486 H 0.33139 0.4715 0.28762 0.0
H1487 H 0.31202 0.5091 0.30335 0.0
H1488 H 0.33822 0.53557 0.28953 0.0
H1489 H 0.32089 0.467 0.31999 0.0
H1490 H 0.26583 0.46604 0.28104 0.0
H1491 H 0.29028 0.47876 0.27576 0.0
H1492 H 0.28148 0.48829 0.29048 0.0
C1493 C 0.34786 0.50056 0.28038 0.0
C1494 C 0.35005 0.51885 0.2806 0.0
C1495 C 0.33283 0.48547 0.28817 0.0
C1496 C 0.31956 0.48824 0.29632 0.0
C1497 C 0.32191 0.50655 0.29692 0.0
H1498 H 0.21349 0.39763 0.33641 0.0
H1499 H 0.2401 0.42936 0.33109 0.0
C1500 C 0.337 0.52171 0.28914 0.0
C1501 C 0.30329 0.47181 0.304 0.0
H1502 H 0.25586 0.44308 0.30126 0.0
C1503 C 0.30666 0.46186 0.31599 0.0
C1504 C 0.28468 0.46517 0.29886 0.0
C1505 C 0.28025 0.47498 0.28576 0.0
C1506 C 0.29201 0.44526 0.32271 0.0
C1507 C 0.27351 0.43817 0.3171 0.0
C1508 C 0.27003 0.44852 0.30557 0.0
C1509 C 0.25792 0.41918 0.32185 0.0
C1510 C 0.29653 0.43537 0.33569 0.0
C1511 C 0.25908 0.40291 0.31853 0.0
C1512 C 0.2439 0.38485 0.32147 0.0
C1513 C 0.22706 0.38253 0.32773 0.0
C1514 C 0.22615 0.39887 0.33155 0.0
C1515 C 0.24136 0.41702 0.3285 0.0
H1516 H 0.30949 0.44544 0.34219 0.0
H1517 H 0.28489 0.42845 0.34437 0.0
H1518 H 0.29887 0.4243 0.33027 0.0
H1519 H 0.27153 0.40414 0.3131 0.0
H1520 H 0.24524 0.37268 0.31834 0.0
H1521 H 0.49058 0.84213 0.29469 0.0
H1522 H 0.51074 0.83262 0.30851 0.0
H1523 H 0.53816 0.88647 0.33308 0.0
H1524 H 0.51747 0.89555 0.31985 0.0
H1525 H 0.54599 0.84822 0.30459 0.0
H1526 H 0.53544 0.85348 0.36879 0.0
H1527 H 0.51962 0.85356 0.35397 0.0
H1528 H 0.54074 0.8752 0.35915 0.0
C1529 C 0.50065 0.8517 0.30333 0.0
C1530 C 0.50252 0.86954 0.30625 0.0
C1531 C 0.51212 0.84626 0.31125 0.0
C1532 C 0.52582 0.85868 0.32206 0.0
C1533 C 0.52732 0.87634 0.32525 0.0
H1534 H 0.63569 0.88578 0.33691 0.0
H1535 H 0.60513 0.88359 0.33644 0.0
C1536 C 0.51562 0.88162 0.31757 0.0
C1537 C 0.54018 0.85441 0.3282 0.0
H1538 H 0.56597 0.85779 0.36124 0.0
C1539 C 0.54997 0.8498 0.31706 0.0
C1540 C 0.54542 0.85638 0.34449 0.0
C1541 C 0.53458 0.85972 0.35727 0.0
C1542 C 0.5655 0.8483 0.32158 0.0
C1543 C 0.57157 0.85176 0.33758 0.0
C1544 C 0.56131 0.85534 0.34894 0.0
C1545 C 0.58971 0.85369 0.34201 0.0
C1546 C 0.57597 0.84398 0.30907 0.0
C1547 C 0.59107 0.83773 0.34604 0.0
C1548 C 0.60858 0.83894 0.34644 0.0
C1549 C 0.62484 0.85606 0.34249 0.0
C1550 C 0.62343 0.87234 0.33981 0.0
C1551 C 0.606 0.87115 0.3396 0.0
H1552 H 0.56856 0.84011 0.29743 0.0
H1553 H 0.59004 0.85659 0.30734 0.0
H1554 H 0.57797 0.83213 0.31308 0.0
H1555 H 0.57856 0.82411 0.34786 0.0
H1556 H 0.60919 0.82618 0.34868 0.0
H1557 H 0.16435 0.67567 0.25397 0.0
H1558 H 0.166 0.70377 0.266 0.0
H1559 H 0.20838 0.70825 0.29864 0.0
H1560 H 0.20706 0.68017 0.28642 0.0
H1561 H 0.1591 0.70664 0.29913 0.0
H1562 H 0.22965 0.76311 0.27995 0.0
H1563 H 0.21694 0.74053 0.26983 0.0
H1564 H 0.22826 0.74218 0.2885 0.0
C1565 C 0.17427 0.68279 0.26353 0.0
C1566 C 0.18569 0.67575 0.26916 0.0
C1567 C 0.17512 0.69881 0.27043 0.0
C1568 C 0.18748 0.70824 0.28304 0.0
C1569 C 0.19897 0.70135 0.28872 0.0
H1570 H 0.20396 0.79798 0.34756 0.0
H1571 H 0.20823 0.77611 0.3303 0.0
C1572 C 0.19805 0.6852 0.28185 0.0
C1573 C 0.18729 0.72444 0.29092 0.0
H1574 H 0.21357 0.77203 0.2982 0.0
C1575 C 0.17096 0.72097 0.29886 0.0
C1576 C 0.20281 0.74306 0.29056 0.0
C1577 C 0.22041 0.7476 0.28167 0.0
C1578 C 0.16983 0.73553 0.30678 0.0
C1579 C 0.18532 0.75425 0.30637 0.0
C1580 C 0.20169 0.75773 0.29842 0.0
C1581 C 0.18492 0.77008 0.31481 0.0
C1582 C 0.15225 0.73054 0.31596 0.0
C1583 C 0.17097 0.77463 0.31139 0.0
C1584 C 0.16855 0.78709 0.32124 0.0
C1585 C 0.18035 0.79559 0.33439 0.0
C1586 C 0.19502 0.79197 0.33721 0.0
C1587 C 0.1974 0.77943 0.32742 0.0
H1588 H 0.14396 0.71512 0.31857 0.0
H1589 H 0.15558 0.73844 0.3274 0.0
H1590 H 0.14334 0.73435 0.30876 0.0
H1591 H 0.16133 0.76777 0.3016 0.0
H1592 H 0.15657 0.78888 0.31927 0.0
H1593 H 0.84688 0.9686 0.4184 0.0
H1594 H 0.82144 0.93935 0.40688 0.0
H1595 H 0.82271 0.97003 0.36462 0.0
H1596 H 0.84796 0.99923 0.37603 0.0
H1597 H 0.78715 0.93319 0.39916 0.0
H1598 H 0.81923 0.92289 0.34537 0.0
H1599 H 0.83302 0.93855 0.36137 0.0
H1600 H 0.8232 0.94662 0.34616 0.0
C1601 C 0.84187 0.96908 0.40657 0.0
C1602 C 0.84949 0.98631 0.39815 0.0
C1603 C 0.82739 0.95231 0.39998 0.0
C1604 C 0.82034 0.95238 0.38477 0.0
C1605 C 0.82825 0.96945 0.37618 0.0
H1606 H 0.73093 0.90955 0.3254 0.0
H1607 H 0.76012 0.92268 0.33993 0.0
C1608 C 0.84271 0.9862 0.38275 0.0
C1609 C 0.80346 0.93528 0.37848 0.0
H1610 H 0.78544 0.90971 0.34432 0.0
C1611 C 0.78684 0.92766 0.38733 0.0
C1612 C 0.80309 0.92783 0.36317 0.0
C1613 C 0.82066 0.93427 0.35356 0.0
C1614 C 0.76959 0.91421 0.38065 0.0
C1615 C 0.76898 0.90814 0.36475 0.0
C1616 C 0.78585 0.91448 0.35646 0.0
C1617 C 0.75119 0.89857 0.35554 0.0
C1618 C 0.752 0.90777 0.39018 0.0
C1619 C 0.73635 0.88035 0.35927 0.0
C1620 C 0.71932 0.87265 0.35085 0.0
C1621 C 0.71694 0.88314 0.33869 0.0
C1622 C 0.73211 0.90105 0.33476 0.0
C1623 C 0.74894 0.90862 0.34304 0.0
H1624 H 0.75474 0.91498 0.40194 0.0
H1625 H 0.74203 0.91052 0.38343 0.0
H1626 H 0.74525 0.89228 0.39227 0.0
H1627 H 0.73786 0.87218 0.36873 0.0
H1628 H 0.70809 0.85871 0.35399 0.0
H1629 H 0.96656 0.79498 0.36311 0.0
H1630 H -0.00338 0.80038 0.35314 0.0
H1631 H 0.99023 0.75254 0.38024 0.0
H1632 H 0.95979 0.74651 0.38972 0.0
H1633 H 0.02745 0.80894 0.37068 0.0
H1634 H 0.00538 0.74242 0.33711 0.0
H1635 H 0.98901 0.74962 0.34357 0.0
H1636 H -0.00289 0.73829 0.35727 0.0
C1637 C 0.97134 0.78534 0.36669 0.0
C1638 C 0.96071 0.77026 0.37718 0.0
C1639 C 0.98859 0.78854 0.36105 0.0
C1640 C 0.99553 0.77669 0.36573 0.0
C1641 C 0.98496 0.7616 0.37617 0.0
H1642 H 0.10031 0.77952 0.36462 0.0
H1643 H 0.06771 0.77156 0.36694 0.0
C1644 C 0.96768 0.75835 0.38177 0.0
C1645 C 0.01437 0.78086 0.36057 0.0
H1646 H 0.0381 0.76129 0.34305 0.0
C1647 C 0.02976 0.79863 0.36444 0.0
C1648 C 0.01734 0.76736 0.35243 0.0
C1649 C 0.00131 0.74843 0.34721 0.0
C1650 C 0.04809 0.80302 0.36092 0.0
C1651 C 0.05107 0.78935 0.35316 0.0
C1652 C 0.03571 0.77172 0.349 0.0
C1653 C 0.07016 0.7928 0.35015 0.0
C1654 C 0.06419 0.82198 0.36606 0.0
C1655 C 0.08214 0.80697 0.33953 0.0
C1656 C 0.10081 0.81157 0.33813 0.0
C1657 C 0.10781 0.80207 0.34737 0.0
C1658 C 0.09545 0.78722 0.3574 0.0
C1659 C 0.07679 0.7826 0.35873 0.0
H1660 H 0.05967 0.82953 0.37439 0.0
H1661 H 0.07525 0.82018 0.37194 0.0
H1662 H 0.07043 0.83106 0.35542 0.0
H1663 H 0.07717 0.81484 0.33267 0.0
H1664 H 0.10991 0.82308 0.33029 0.0
H1665 H 0.13245 0.14361 0.39048 0.0
H1666 H 0.13373 0.17225 0.37989 0.0
H1667 H 0.17199 0.20548 0.41733 0.0
H1668 H 0.17151 0.17724 0.42755 0.0
H1669 H 0.12577 0.19933 0.39321 0.0
H1670 H 0.20076 0.23172 0.37708 0.0
H1671 H 0.18668 0.2071 0.38254 0.0
H1672 H 0.19597 0.2252 0.39767 0.0
C1673 C 0.14124 0.15702 0.39641 0.0
C1674 C 0.152 0.15805 0.40982 0.0
C1675 C 0.1418 0.17336 0.39043 0.0
C1676 C 0.15315 0.19107 0.39768 0.0
C1677 C 0.16335 0.19203 0.41138 0.0
H1678 H 0.19006 0.30627 0.36634 0.0
H1679 H 0.18109 0.27899 0.38394 0.0
C1680 C 0.16288 0.17577 0.41732 0.0
C1681 C 0.15505 0.20865 0.39052 0.0
H1682 H 0.187 0.25081 0.37388 0.0
C1683 C 0.13915 0.21062 0.389 0.0
C1684 C 0.17251 0.22337 0.38499 0.0
C1685 C 0.18993 0.22174 0.38549 0.0
C1686 C 0.1403 0.22699 0.38222 0.0
C1687 C 0.15778 0.24165 0.37667 0.0
C1688 C 0.17365 0.2397 0.37833 0.0
C1689 C 0.15995 0.25856 0.36799 0.0
C1690 C 0.12285 0.22848 0.38118 0.0
C1691 C 0.15065 0.25629 0.35342 0.0
C1692 C 0.15567 0.27189 0.3435 0.0
C1693 C 0.16989 0.29004 0.34804 0.0
C1694 C 0.17855 0.29251 0.36291 0.0
C1695 C 0.17356 0.27691 0.37286 0.0
H1696 H 0.11241 0.21949 0.39028 0.0
H1697 H 0.12608 0.24337 0.38274 0.0
H1698 H 0.11634 0.22349 0.36927 0.0
H1699 H 0.14051 0.24228 0.34916 0.0
H1700 H 0.14929 0.26959 0.33181 0.0
H1701 H 0.66147 0.50443 0.74811 0.0
H1702 H 0.68741 0.53056 0.73412 0.0
H1703 H 0.66238 0.50497 0.68902 0.0
H1704 H 0.63578 0.47926 0.70292 0.0
H1705 H 0.71308 0.53157 0.71369 0.0
H1706 H 0.67047 0.55775 0.68347 0.0
H1707 H 0.66121 0.54029 0.69912 0.0
H1708 H 0.66347 0.53349 0.67922 0.0
C1709 C 0.66128 0.50444 0.73521 0.0
C1710 C 0.64633 0.48979 0.72668 0.0
C1711 C 0.67626 0.51932 0.72722 0.0
C1712 C 0.67674 0.51992 0.71051 0.0
C1713 C 0.66215 0.50505 0.70192 0.0
H1714 H 0.78166 0.6088 0.6665 0.0
H1715 H 0.7546 0.5774 0.67176 0.0
C1716 C 0.64705 0.4902 0.70991 0.0
C1717 C 0.69244 0.5363 0.70226 0.0
H1718 H 0.70272 0.57388 0.67793 0.0
C1719 C 0.71084 0.54075 0.70576 0.0
C1720 C 0.68948 0.54834 0.69198 0.0
C1721 C 0.67012 0.54488 0.6883 0.0
C1722 C 0.72634 0.55719 0.69971 0.0
C1723 C 0.72337 0.5693 0.68953 0.0
C1724 C 0.70498 0.5645 0.68561 0.0
C1725 C 0.73896 0.58809 0.68444 0.0
C1726 C 0.7457 0.56192 0.70498 0.0
C1727 C 0.73875 0.60455 0.68901 0.0
C1728 C 0.754 0.62244 0.68583 0.0
C1729 C 0.76993 0.62436 0.67801 0.0
C1730 C 0.7697 0.60787 0.67263 0.0
C1731 C 0.75431 0.58989 0.67577 0.0
H1732 H 0.74531 0.55329 0.71537 0.0
H1733 H 0.75279 0.55903 0.69506 0.0
H1734 H 0.75426 0.57716 0.70821 0.0
H1735 H 0.72704 0.60356 0.69563 0.0
H1736 H 0.75353 0.63476 0.69008 0.0
H1737 H 0.49505 0.11979 0.68379 0.0
H1738 H 0.4724 0.12646 0.67081 0.0
H1739 H 0.42743 0.07934 0.69555 0.0
H1740 H 0.4498 0.07201 0.70792 0.0
H1741 H 0.41789 0.08255 0.66469 0.0
H1742 H 0.44942 0.15202 0.69629 0.0
H1743 H 0.46492 0.14869 0.68346 0.0
H1744 H 0.45568 0.13431 0.70098 0.0
C1745 C 0.4803 0.11058 0.68619 0.0
C1746 C 0.47426 0.09555 0.69711 0.0
C1747 C 0.4674 0.11454 0.67889 0.0
C1748 C 0.44829 0.10367 0.68252 0.0
C1749 C 0.44214 0.08802 0.69268 0.0
H1750 H 0.34693 0.10364 0.68555 0.0
H1751 H 0.37167 0.09572 0.68334 0.0
C1752 C 0.45497 0.08397 0.69988 0.0
C1753 C 0.43471 0.1092 0.67678 0.0
H1754 H 0.42244 0.14321 0.68123 0.0
C1755 C 0.419 0.09592 0.66812 0.0
C1756 C 0.43619 0.12667 0.68126 0.0
C1757 C 0.45236 0.14122 0.69111 0.0
C1758 C 0.40441 0.09938 0.66429 0.0
C1759 C 0.40555 0.11647 0.66938 0.0
C1760 C 0.42167 0.13015 0.6773 0.0
C1761 C 0.38944 0.11964 0.66833 0.0
C1762 C 0.38774 0.08456 0.65514 0.0
C1763 C 0.39116 0.13567 0.66053 0.0
C1764 C 0.37702 0.14027 0.66178 0.0
C1765 C 0.36104 0.12907 0.67109 0.0
C1766 C 0.35905 0.11259 0.67832 0.0
C1767 C 0.37312 0.10794 0.67696 0.0
H1768 H 0.3914 0.07541 0.64798 0.0
H1769 H 0.37663 0.07534 0.66368 0.0
H1770 H 0.38198 0.0912 0.64709 0.0
H1771 H 0.40375 0.14497 0.65395 0.0
H1772 H 0.37906 0.15312 0.65613 0.0
H1773 H 0.82042 0.34328 0.70409 0.0
H1774 H 0.81766 0.31525 0.69081 0.0
H1775 H 0.81174 0.28848 0.73642 0.0
H1776 H 0.81345 0.31594 0.7497 0.0
H1777 H 0.84147 0.3025 0.69373 0.0
H1778 H 0.7713 0.24511 0.71176 0.0
H1779 H 0.77874 0.26987 0.71454 0.0
H1780 H 0.7857 0.25777 0.7285 0.0
C1781 C 0.818 0.33123 0.71128 0.0
C1782 C 0.81726 0.33197 0.72799 0.0
C1783 C 0.81657 0.31525 0.70367 0.0
C1784 C 0.81432 0.29964 0.71258 0.0
C1785 C 0.81308 0.30013 0.72923 0.0
H1786 H 0.84966 0.22201 0.67709 0.0
H1787 H 0.84489 0.24406 0.69366 0.0
C1788 C 0.81436 0.31602 0.73683 0.0
C1789 C 0.81492 0.28363 0.70459 0.0
H1790 H 0.79175 0.23535 0.70043 0.0
C1791 C 0.83052 0.28784 0.69512 0.0
C1792 C 0.80062 0.26447 0.70637 0.0
C1793 C 0.78306 0.25903 0.71572 0.0
C1794 C 0.8323 0.2735 0.68748 0.0
C1795 C 0.8183 0.25431 0.68965 0.0
C1796 C 0.80258 0.25005 0.69898 0.0
C1797 C 0.81946 0.23867 0.68166 0.0
C1798 C 0.849 0.2791 0.67686 0.0
C1799 C 0.80623 0.2276 0.67 0.0
C1800 C 0.80886 0.21487 0.66067 0.0
C1801 C 0.8245 0.21272 0.66313 0.0
C1802 C 0.8372 0.22304 0.67532 0.0
C1803 C 0.83464 0.23584 0.6846 0.0
H1804 H 0.85585 0.29428 0.67338 0.0
H1805 H 0.85946 0.27687 0.68334 0.0
H1806 H 0.84489 0.27031 0.66587 0.0
H1807 H 0.79448 0.22962 0.66749 0.0
H1808 H 0.79921 0.20743 0.65101 0.0
H1809 H 0.14714 0.99783 0.6292 0.0
H1810 H 0.17278 0.02579 0.64175 0.0
H1811 H 0.189 0.05347 0.59605 0.0
H1812 H 0.1627 0.02605 0.58354 0.0
H1813 H 0.20808 0.03753 0.63608 0.0
H1814 H 0.1956 0.09691 0.62278 0.0
H1815 H 0.17788 0.07243 0.61976 0.0
H1816 H 0.19608 0.08457 0.60524 0.0
C1817 C 0.15574 0.01008 0.62186 0.0
C1818 C 0.15287 0.00956 0.60531 0.0
C1819 C 0.17053 0.02603 0.62905 0.0
C1820 C 0.18285 0.04181 0.61987 0.0
C1821 C 0.17959 0.04166 0.60346 0.0
H1822 H 0.29697 0.11533 0.65249 0.0
H1823 H 0.26976 0.0959 0.63555 0.0
C1824 C 0.16466 0.02579 0.59627 0.0
C1825 C 0.20014 0.05733 0.62725 0.0
H1826 H 0.22587 0.10534 0.63294 0.0
C1827 C 0.21186 0.05233 0.63545 0.0
C1828 C 0.20518 0.07669 0.62636 0.0
C1829 C 0.19293 0.08297 0.61818 0.0
C1830 C 0.22831 0.06601 0.64292 0.0
C1831 C 0.2335 0.08537 0.64183 0.0
C1832 C 0.2219 0.09049 0.63359 0.0
C1833 C 0.25049 0.10019 0.64997 0.0
C1834 C 0.23976 0.05955 0.65225 0.0
C1835 C 0.24881 0.10975 0.66322 0.0
C1836 C 0.26439 0.12098 0.67282 0.0
C1837 C 0.28187 0.12311 0.66904 0.0
C1838 C 0.28375 0.11443 0.65529 0.0
C1839 C 0.26818 0.10311 0.64577 0.0
H1840 H 0.23171 0.04412 0.65488 0.0
H1841 H 0.25223 0.06235 0.64519 0.0
H1842 H 0.24466 0.06742 0.66368 0.0
H1843 H 0.23524 0.10754 0.66673 0.0
H1844 H 0.2626 0.12718 0.68362 0.0
H1845 H 0.05243 0.24579 0.65455 0.0
H1846 H 0.02133 0.23792 0.66415 0.0
H1847 H -0.00203 0.21521 0.61792 0.0
H1848 H 0.02876 0.22248 0.6084 0.0
H1849 H -0.00146 0.25119 0.65259 0.0
H1850 H 0.96277 0.17297 0.64784 0.0
H1851 H 0.98793 0.18773 0.64734 0.0
H1852 H 0.97424 0.18447 0.62968 0.0
C1853 C 0.0406 0.23884 0.64652 0.0
C1854 C 0.04306 0.23475 0.63071 0.0
C1855 C 0.02288 0.23446 0.652 0.0
C1856 C 0.00731 0.22573 0.64182 0.0
C1857 C 0.00972 0.2216 0.62607 0.0
H1858 H 0.90451 0.22471 0.63589 0.0
H1859 H 0.93702 0.2323 0.63613 0.0
C1860 C 0.02739 0.22598 0.62059 0.0
C1861 C 0.98863 0.22177 0.64728 0.0
H1862 H 0.94293 0.18668 0.64908 0.0
C1863 C 0.98641 0.23704 0.65207 0.0
C1864 C 0.97288 0.20328 0.64687 0.0
C1865 C 0.97457 0.18615 0.64281 0.0
C1866 C 0.96866 0.23445 0.65559 0.0
C1867 C 0.95274 0.21617 0.65403 0.0
C1868 C 0.95511 0.20074 0.65012 0.0
C1869 C 0.93343 0.2129 0.6552 0.0
C1870 C 0.96712 0.25136 0.66077 0.0
C1871 C 0.92052 0.19936 0.66578 0.0
C1872 C 0.9018 0.19485 0.66561 0.0
C1873 C 0.89561 0.2037 0.65473 0.0
C1874 C 0.90874 0.21764 0.64446 0.0
C1875 C 0.92742 0.22212 0.64466 0.0
H1876 H 0.98029 0.26238 0.66642 0.0
H1877 H 0.96446 0.2578 0.65016 0.0
H1878 H 0.95544 0.24719 0.66929 0.0
H1879 H 0.92485 0.19197 0.67394 0.0
H1880 H 0.89208 0.18397 0.67363 0.0
H1881 H 0.85818 0.84203 0.57693 0.0
H1882 H 0.857 0.81347 0.58766 0.0
H1883 H 0.83821 0.82295 0.6328 0.0
H1884 H 0.83876 0.85109 0.62209 0.0
H1885 H 0.87424 0.80695 0.61465 0.0
H1886 H 0.79694 0.76942 0.61953 0.0
H1887 H 0.80997 0.79096 0.6082 0.0
H1888 H 0.80836 0.79197 0.62951 0.0
C1889 C 0.85377 0.83803 0.58914 0.0
C1890 C 0.84839 0.8488 0.59858 0.0
C1891 C 0.85325 0.82178 0.59528 0.0
C1892 C 0.84724 0.81592 0.61094 0.0
C1893 C 0.84263 0.82706 0.6206 0.0
H1894 H 0.85105 0.7367 0.67522 0.0
H1895 H 0.85953 0.76385 0.65776 0.0
C1896 C 0.84314 0.84328 0.61449 0.0
C1897 C 0.84496 0.79776 0.61704 0.0
H1898 H 0.8124 0.75521 0.63259 0.0
C1899 C 0.86071 0.79554 0.61845 0.0
C1900 C 0.82724 0.78271 0.62166 0.0
C1901 C 0.80962 0.78374 0.61952 0.0
C1902 C 0.85931 0.77897 0.62504 0.0
C1903 C 0.84172 0.76438 0.63051 0.0
C1904 C 0.8259 0.76636 0.62847 0.0
C1905 C 0.83937 0.7475 0.63938 0.0
C1906 C 0.87664 0.77726 0.62605 0.0
C1907 C 0.82535 0.72917 0.63487 0.0
C1908 C 0.82046 0.71368 0.64493 0.0
C1909 C 0.82969 0.71623 0.65951 0.0
C1910 C 0.84423 0.73434 0.66373 0.0
C1911 C 0.84909 0.74985 0.65373 0.0
H1912 H 0.88697 0.78596 0.61676 0.0
H1913 H 0.88339 0.78253 0.63783 0.0
H1914 H 0.87324 0.76229 0.62472 0.0
H1915 H 0.81751 0.727 0.62395 0.0
H1916 H 0.80875 0.69994 0.64175 0.0
H1917 H 0.01933 0.82442 0.60369 0.0
H1918 H 0.99265 0.79819 0.61695 0.0
H1919 H 0.97527 0.83672 0.63451 0.0
H1920 H 0.00171 0.86307 0.62082 0.0
H1921 H 0.98286 0.79326 0.64943 0.0
H1922 H 0.92806 0.7953 0.61216 0.0
H1923 H 0.95241 0.80753 0.60653 0.0
H1924 H 0.94439 0.81705 0.62192 0.0
C1925 C 0.00975 0.82733 0.61023 0.0
C1926 C 0.01256 0.84583 0.61102 0.0
C1927 C 0.99458 0.81233 0.61792 0.0
C1928 C 0.98182 0.81544 0.62654 0.0
C1929 C 0.98477 0.83394 0.6277 0.0
H1930 H 0.87509 0.72511 0.66508 0.0
H1931 H 0.90221 0.75671 0.66078 0.0
C1932 C -0.0 0.84901 0.62 0.0
C1933 C 0.96544 0.79914 0.63413 0.0
H1934 H 0.91792 0.77143 0.63154 0.0
C1935 C 0.96864 0.78858 0.64563 0.0
C1936 C 0.94688 0.79315 0.62926 0.0
C1937 C 0.94262 0.80371 0.61672 0.0
C1938 C 0.95386 0.77189 0.65206 0.0
C1939 C 0.9354 0.7654 0.64662 0.0
C1940 C 0.93208 0.77642 0.63567 0.0
C1941 C 0.91964 0.74638 0.65091 0.0
C1942 C 0.95817 0.76128 0.66451 0.0
C1943 C 0.92046 0.73009 0.64688 0.0
C1944 C 0.90502 0.71206 0.64928 0.0
C1945 C 0.88833 0.70989 0.6557 0.0
C1946 C 0.88774 0.72624 0.66021 0.0
C1947 C 0.90321 0.74432 0.65771 0.0
H1948 H 0.97119 0.77092 0.67114 0.0
H1949 H 0.94652 0.7541 0.67315 0.0
H1950 H 0.96033 0.75034 0.65857 0.0
H1951 H 0.93282 0.7313 0.64128 0.0
H1952 H 0.90601 0.69983 0.64562 0.0
H1953 H 0.19094 0.24067 0.66495 0.0
H1954 H 0.21276 0.23156 0.67635 0.0
H1955 H 0.22153 0.2154 0.62961 0.0
H1956 H 0.19959 0.22397 0.61828 0.0
H1957 H 0.21644 0.18922 0.65394 0.0
H1958 H 0.27016 0.26348 0.66953 0.0
H1959 H 0.24692 0.25443 0.67729 0.0
H1960 H 0.25092 0.25817 0.65626 0.0
C1961 C 0.19738 0.23496 0.65718 0.0
C1962 C 0.19377 0.23327 0.64069 0.0
C1963 C 0.20992 0.22991 0.66368 0.0
C1964 C 0.21892 0.22305 0.65377 0.0
C1965 C 0.21479 0.22075 0.63744 0.0
H1966 H 0.31758 0.22085 0.64348 0.0
H1967 H 0.29244 0.22801 0.64643 0.0
C1968 C 0.20237 0.2258 0.63097 0.0
C1969 C 0.23318 0.21878 0.65997 0.0
H1970 H 0.27887 0.24026 0.67174 0.0
C1971 C 0.22998 0.20026 0.65817 0.0
C1972 C 0.25083 0.2333 0.66537 0.0
C1973 C 0.25509 0.25351 0.66719 0.0
C1974 C 0.24431 0.19606 0.66073 0.0
C1975 C 0.2622 0.21075 0.66549 0.0
C1976 C 0.2651 0.22905 0.66816 0.0
C1977 C 0.27861 0.20799 0.66554 0.0
C1978 C 0.24052 0.17625 0.65723 0.0
C1979 C 0.27951 0.1948 0.67569 0.0
C1980 C 0.29387 0.19055 0.67397 0.0
C1981 C 0.3076 0.19951 0.66211 0.0
C1982 C 0.3072 0.21355 0.65265 0.0
C1983 C 0.29286 0.21773 0.65435 0.0
H1984 H 0.22685 0.16743 0.65117 0.0
H1985 H 0.25171 0.17671 0.64959 0.0
H1986 H 0.24034 0.16917 0.66856 0.0
H1987 H 0.26881 0.18737 0.68458 0.0
H1988 H 0.29378 0.17975 0.68154 0.0
H1989 H 0.82183 0.99409 0.61779 0.0
H1990 H 0.82702 0.0239 0.62939 0.0
H1991 H 0.88569 0.05042 0.61806 0.0
H1992 H 0.88056 0.02047 0.60631 0.0
H1993 H 0.85423 0.04612 0.65498 0.0
H1994 H 0.86514 0.08466 0.59761 0.0
H1995 H 0.85317 0.05906 0.59855 0.0
H1996 H 0.87803 0.07253 0.60115 0.0
C1997 C 0.83585 0.00625 0.61779 0.0
C1998 C 0.85078 0.00499 0.61109 0.0
C1999 C 0.83879 0.02324 0.62443 0.0
C2000 C 0.85668 0.03938 0.62438 0.0
C2001 C 0.87175 0.03814 0.61803 0.0
H2002 H 0.87405 0.13713 0.6815 0.0
H2003 H 0.88184 0.11617 0.66639 0.0
C2004 C 0.86883 0.02102 0.61148 0.0
C2005 C 0.85928 0.05732 0.63119 0.0
H2006 H 0.86421 0.10019 0.62096 0.0
C2007 C 0.85673 0.05809 0.64761 0.0
C2008 C 0.86232 0.07277 0.62145 0.0
C2009 C 0.86476 0.07235 0.60368 0.0
C2010 C 0.85663 0.07371 0.65455 0.0
C2011 C 0.85936 0.08907 0.6448 0.0
C2012 C 0.86233 0.08849 0.6284 0.0
C2013 C 0.85726 0.10481 0.65133 0.0
C2014 C 0.85269 0.07325 0.67216 0.0
C2015 C 0.84144 0.10608 0.64727 0.0
C2016 C 0.83718 0.11825 0.6557 0.0
C2017 C 0.84877 0.1294 0.6682 0.0
C2018 C 0.86519 0.12898 0.67162 0.0
C2019 C 0.86954 0.11692 0.66311 0.0
H2020 H 0.84772 0.05899 0.6774 0.0
H2021 H 0.86569 0.08352 0.67846 0.0
H2022 H 0.84198 0.07742 0.67438 0.0
H2023 H 0.83174 0.09678 0.63828 0.0
H2024 H 0.82415 0.11793 0.65321 0.0
H2025 H 0.4825 0.32477 0.74518 0.0
H2026 H 0.45904 0.29576 0.73211 0.0
H2027 H 0.5022 0.29394 0.70466 0.0
H2028 H 0.52591 0.32307 0.71778 0.0
H2029 H 0.47291 0.28985 0.68637 0.0
H2030 H 0.44549 0.2409 0.73779 0.0
H2031 H 0.4457 0.26276 0.74114 0.0
H2032 H 0.46744 0.26302 0.73855 0.0
C2033 C 0.48709 0.31802 0.7366 0.0
C2034 C 0.50612 0.3262 0.7326 0.0
C2035 C 0.47364 0.30138 0.72917 0.0
C2036 C 0.4789 0.29245 0.71766 0.0
C2037 C 0.49787 0.30052 0.71362 0.0
H2038 H 0.40669 0.20287 0.65022 0.0
H2039 H 0.43379 0.22319 0.66712 0.0
C2040 C 0.51137 0.31722 0.72105 0.0
C2041 C 0.46438 0.2756 0.70897 0.0
H2042 H 0.42629 0.23171 0.71436 0.0
C2043 C 0.46292 0.27696 0.69243 0.0
C2044 C 0.4513 0.25885 0.71692 0.0
C2045 C 0.45264 0.25618 0.73456 0.0
C2046 C 0.44822 0.26239 0.68371 0.0
C2047 C 0.43483 0.24582 0.69173 0.0
C2048 C 0.43659 0.24429 0.70821 0.0
C2049 C 0.41818 0.2307 0.68335 0.0
C2050 C 0.44662 0.26531 0.66614 0.0
C2051 C 0.40029 0.22729 0.68746 0.0
C2052 C 0.3848 0.21536 0.67805 0.0
C2053 C 0.38698 0.20661 0.66448 0.0
C2054 C 0.40468 0.2092 0.66084 0.0
C2055 C 0.42015 0.22095 0.67036 0.0
H2056 H 0.45556 0.28039 0.66261 0.0
H2057 H 0.45116 0.25673 0.6592 0.0
H2058 H 0.43193 0.26066 0.66282 0.0
H2059 H 0.39846 0.23467 0.69742 0.0
H2060 H 0.37139 0.21408 0.68075 0.0
H2061 H 0.61731 0.08339 0.69312 0.0
H2062 H 0.64764 0.08923 0.68317 0.0
H2063 H 0.67579 0.13432 0.71751 0.0
H2064 H 0.64556 0.12832 0.72767 0.0
H2065 H 0.67804 0.12025 0.67025 0.0
H2066 H 0.69738 0.10055 0.72739 0.0
H2067 H 0.67406 0.09608 0.72338 0.0
H2068 H 0.69212 0.11928 0.72961 0.0
C2069 C 0.62998 0.09463 0.69846 0.0
C2070 C 0.62909 0.10525 0.7113 0.0
C2071 C 0.64728 0.09794 0.69278 0.0
C2072 C 0.66397 0.11195 0.69982 0.0
C2073 C 0.66309 0.12309 0.71219 0.0
H2074 H 0.77823 0.1618 0.66664 0.0
H2075 H 0.74556 0.15338 0.67013 0.0
C2076 C 0.64583 0.11967 0.71797 0.0
C2077 C 0.68227 0.11464 0.69452 0.0
H2078 H 0.72156 0.11545 0.70819 0.0
C2079 C 0.68754 0.11908 0.6785 0.0
C2080 C 0.69449 0.11276 0.70522 0.0
C2081 C 0.68917 0.10671 0.72232 0.0
C2082 C 0.70492 0.12215 0.67299 0.0
C2083 C 0.71749 0.12115 0.68389 0.0
C2084 C 0.712 0.11633 0.69982 0.0
C2085 C 0.73653 0.12524 0.67931 0.0
C2086 C 0.70949 0.12618 0.65554 0.0
C2087 C 0.74236 0.11223 0.68318 0.0
C2088 C 0.76107 0.11717 0.68149 0.0
C2089 C 0.77431 0.13514 0.67573 0.0
C2090 C 0.76828 0.14774 0.6709 0.0
C2091 C 0.74957 0.14291 0.67285 0.0
H2092 H 0.69659 0.12047 0.64817 0.0
H2093 H 0.71762 0.14175 0.6537 0.0
H2094 H 0.71798 0.11997 0.65124 0.0
H2095 H 0.73257 0.09851 0.68815 0.0
H2096 H 0.76531 0.10715 0.68526 0.0
H2097 H 0.84729 0.51201 0.74929 0.0
H2098 H 0.84598 0.53892 0.738 0.0
H2099 H 0.79681 0.50067 0.71112 0.0
H2100 H 0.79769 0.4735 0.72275 0.0
H2101 H 0.84833 0.54743 0.70572 0.0
H2102 H 0.78196 0.53752 0.73118 0.0
H2103 H 0.79389 0.52586 0.7392 0.0
H2104 H 0.78031 0.51716 0.72126 0.0
C2105 C 0.83595 0.50924 0.74122 0.0
C2106 C 0.82251 0.49053 0.73703 0.0
C2107 C 0.83529 0.52468 0.73471 0.0
C2108 C 0.82114 0.52183 0.7239 0.0
C2109 C 0.80764 0.50321 0.71968 0.0
H2110 H 0.80662 0.59835 0.66168 0.0
H2111 H 0.80083 0.57143 0.67868 0.0
C2112 C 0.80831 0.4877 0.72618 0.0
C2113 C 0.82146 0.53846 0.71627 0.0
H2114 H 0.797 0.56187 0.71189 0.0
C2115 C 0.83715 0.55064 0.70715 0.0
C2116 C 0.80679 0.54254 0.71805 0.0
C2117 C 0.78982 0.5302 0.72805 0.0
C2118 C 0.83853 0.56665 0.69962 0.0
C2119 C 0.82401 0.57094 0.70156 0.0
C2120 C 0.8082 0.55868 0.71057 0.0
C2121 C 0.82496 0.58778 0.69378 0.0
C2122 C 0.85537 0.57858 0.68929 0.0
C2123 C 0.8398 0.60608 0.69719 0.0
C2124 C 0.84309 0.6214 0.68749 0.0
C2125 C 0.83126 0.61876 0.67456 0.0
C2126 C 0.81558 0.60079 0.6719 0.0
C2127 C 0.81236 0.58541 0.68153 0.0
H2128 H 0.86273 0.57083 0.68588 0.0
H2129 H 0.85127 0.58311 0.67825 0.0
H2130 H 0.8654 0.59149 0.69597 0.0
H2131 H 0.84954 0.60829 0.70672 0.0
H2132 H 0.85552 0.63504 0.68949 0.0
H2133 H 0.49178 0.91842 0.1736 0.0
H2134 H 0.50283 0.93117 0.14688 0.0
H2135 H 0.49837 0.98035 0.15849 0.0
H2136 H 0.48787 0.96801 0.18529 0.0
H2137 H 0.48348 0.93896 0.12439 0.0
H2138 H 0.55005 0.0042 0.13845 0.0
H2139 H 0.53805 0.98525 0.15266 0.0
H2140 H 0.53084 0.00255 0.1497 0.0
C2141 C 0.49349 0.93212 0.17055 0.0
C2142 C 0.48894 0.94221 0.18158 0.0
C2143 C 0.49974 0.93934 0.15527 0.0
C2144 C 0.50174 0.95686 0.15079 0.0
C2145 C 0.49734 0.96701 0.1618 0.0
H2146 H 0.50581 0.0208 0.07148 0.0
H2147 H 0.50878 0.00872 0.09722 0.0
C2148 C 0.49108 0.9598 0.17705 0.0
C2149 C 0.507 0.96394 0.13425 0.0
H2150 H 0.53649 0.00327 0.11274 0.0
C2151 C 0.4953 0.95285 0.12176 0.0
C2152 C 0.52247 0.98203 0.13086 0.0
C2153 C 0.53618 0.99411 0.14362 0.0
C2154 C 0.49792 0.95987 0.10614 0.0
C2155 C 0.51282 0.97837 0.10292 0.0
C2156 C 0.52507 0.9891 0.11526 0.0
C2157 C 0.51443 0.98757 0.08732 0.0
C2158 C 0.48404 0.94787 0.09343 0.0
C2159 C 0.51754 0.9803 0.07321 0.0
C2160 C 0.51586 0.98723 0.05841 0.0
C2161 C 0.511 0.00146 0.0575 0.0
C2162 C 0.50936 0.00967 0.07172 0.0
C2163 C 0.51109 0.00281 0.08647 0.0
H2164 H 0.47165 0.93522 0.09847 0.0
H2165 H 0.47916 0.95632 0.08669 0.0
H2166 H 0.4909 0.94289 0.08488 0.0
H2167 H 0.52044 0.96873 0.07363 0.0
H2168 H 0.51725 0.98069 0.04772 0.0
H2169 H 0.08739 0.54204 0.171 0.0
H2170 H 0.06714 0.53491 0.14766 0.0
H2171 H 0.10862 0.58669 0.12535 0.0
H2172 H 0.12915 0.59376 0.14854 0.0
H2173 H 0.05286 0.55746 0.13356 0.0
H2174 H 0.09793 0.544 0.09266 0.0
H2175 H 0.10105 0.54537 0.11399 0.0
H2176 H 0.10916 0.56667 0.10252 0.0
C2177 C 0.09228 0.55182 0.16106 0.0
C2178 C 0.10993 0.56839 0.16156 0.0
C2179 C 0.08064 0.54782 0.14782 0.0
C2180 C 0.08646 0.56022 0.13478 0.0
C2181 C 0.10396 0.57687 0.13527 0.0
H2182 H 0.03073 0.54053 0.04214 0.0
H2183 H 0.05049 0.55769 0.06502 0.0
C2184 C 0.11561 0.58093 0.14854 0.0
C2185 C 0.07427 0.55542 0.12059 0.0
H2186 H 0.07022 0.54097 0.08192 0.0
C2187 C 0.05674 0.55411 0.12219 0.0
C2188 C 0.0794 0.55103 0.10581 0.0
C2189 C 0.09784 0.55167 0.10358 0.0
C2190 C 0.04408 0.54827 0.10939 0.0
C2191 C 0.04904 0.54343 0.09476 0.0
C2192 C 0.0667 0.54514 0.09307 0.0
C2193 C 0.03549 0.53461 0.08157 0.0
C2194 C 0.02537 0.54699 0.11166 0.0
C2195 C 0.02028 0.51623 0.08342 0.0
C2196 C 0.00919 0.5064 0.07035 0.0
C2197 C 0.01315 0.51475 0.05511 0.0
C2198 C 0.02764 0.53363 0.05356 0.0
C2199 C 0.03886 0.54344 0.06664 0.0
H2200 H 0.02553 0.55564 0.12196 0.0
H2201 H 0.02122 0.55175 0.10079 0.0
H2202 H 0.0146 0.532 0.11393 0.0
H2203 H 0.01757 0.5091 0.09482 0.0
H2204 H -0.00195 0.49193 0.07211 0.0
H2205 H 0.4285 0.5583 0.1515 0.0
H2206 H 0.44 0.55088 0.12712 0.0
H2207 H 0.49586 0.57867 0.14651 0.0
H2208 H 0.48453 0.58601 0.17091 0.0
H2209 H 0.475 0.58034 0.10621 0.0
H2210 H 0.47832 0.52015 0.1344 0.0
H2211 H 0.46271 0.52805 0.14151 0.0
H2212 H 0.48731 0.54202 0.1454 0.0
C2213 C 0.44322 0.56279 0.15057 0.0
C2214 C 0.4556 0.57272 0.16314 0.0
C2215 C 0.44977 0.55869 0.13661 0.0
C2216 C 0.46875 0.56429 0.13507 0.0
C2217 C 0.48117 0.57431 0.1475 0.0
H2218 H 0.52236 0.52565 0.06759 0.0
H2219 H 0.51732 0.54264 0.08945 0.0
C2220 C 0.47467 0.57853 0.16139 0.0
C2221 C 0.47549 0.55888 0.12079 0.0
H2222 H 0.48818 0.52726 0.10787 0.0
C2223 C 0.47797 0.56879 0.10651 0.0
C2224 C 0.47944 0.54392 0.12135 0.0
C2225 C 0.47677 0.53278 0.13643 0.0
C2226 C 0.48436 0.56409 0.09267 0.0
C2227 C 0.48793 0.54878 0.09311 0.0
C2228 C 0.4856 0.53907 0.10752 0.0
C2229 C 0.493 0.54171 0.07871 0.0
C2230 C 0.48734 0.57567 0.07781 0.0
C2231 C 0.48128 0.53587 0.06525 0.0
C2232 C 0.48437 0.5265 0.05272 0.0
C2233 C 0.49913 0.52265 0.05342 0.0
C2234 C 0.51113 0.52883 0.06666 0.0
C2235 C 0.50819 0.53844 0.07914 0.0
H2236 H 0.49047 0.59029 0.08074 0.0
H2237 H 0.49889 0.57656 0.07042 0.0
H2238 H 0.4743 0.56889 0.07063 0.0
H2239 H 0.4691 0.53757 0.06481 0.0
H2240 H 0.47449 0.52118 0.04291 0.0
H2241 H 0.87027 0.44359 0.8568 0.0
H2242 H 0.8898 0.45153 0.88079 0.0
H2243 H 0.92702 0.43731 0.85637 0.0
H2244 H 0.90777 0.42957 0.8323 0.0
H2245 H 0.90204 0.42681 0.89813 0.0
H2246 H 0.95974 0.49385 0.87287 0.0
H2247 H 0.93619 0.48258 0.86506 0.0
H2248 H 0.95097 0.47286 0.86074 0.0
C2249 C 0.88265 0.44222 0.85653 0.0
C2250 C 0.88752 0.43602 0.84265 0.0
C2251 C 0.89369 0.44661 0.87026 0.0
C2252 C 0.90985 0.44507 0.87027 0.0
C2253 C 0.91462 0.43865 0.85654 0.0
H2254 H 0.00143 0.48775 0.93903 0.0
H2255 H 0.98119 0.47173 0.91595 0.0
C2256 C 0.90355 0.43415 0.84285 0.0
C2257 C 0.92207 0.45075 0.88449 0.0
H2258 H 0.96428 0.48534 0.8985 0.0
C2259 C 0.91569 0.43956 0.89825 0.0
C2260 C 0.93987 0.46731 0.8845 0.0
C2261 C 0.94716 0.47998 0.87007 0.0
C2262 C 0.92672 0.44451 0.91212 0.0
C2263 C 0.9444 0.46137 0.91227 0.0
C2264 C 0.95082 0.47237 0.89837 0.0
C2265 C 0.95605 0.46861 0.92689 0.0
C2266 C 0.91938 0.43153 0.92636 0.0
C2267 C 0.94867 0.47211 0.9407 0.0
C2268 C 0.96013 0.48092 0.95386 0.0
C2269 C 0.97918 0.48655 0.95342 0.0
C2270 C 0.98666 0.4831 0.9397 0.0
C2271 C 0.97512 0.47403 0.92656 0.0
H2272 H 0.90918 0.41673 0.92276 0.0
H2273 H 0.93089 0.43149 0.93316 0.0
H2274 H 0.91199 0.43647 0.93434 0.0
H2275 H 0.93423 0.46876 0.9411 0.0
H2276 H 0.95427 0.48408 0.96417 0.0
H2277 H 0.54518 0.4592 0.83956 0.0
H2278 H 0.53488 0.46459 0.86532 0.0
H2279 H 0.52911 0.41223 0.88298 0.0
H2280 H 0.53946 0.40672 0.85719 0.0
H2281 H 0.49868 0.41643 0.89043 0.0
H2282 H 0.56499 0.48108 0.90657 0.0
H2283 H 0.55649 0.48289 0.88735 0.0
H2284 H 0.56344 0.46545 0.89064 0.0
C2285 C 0.54198 0.44896 0.84898 0.0
C2286 C 0.54327 0.4326 0.84635 0.0
C2287 C 0.53607 0.45205 0.8637 0.0
C2288 C 0.5315 0.43895 0.87614 0.0
C2289 C 0.53262 0.42254 0.87355 0.0
H2290 H 0.51652 0.47193 0.97133 0.0
H2291 H 0.52497 0.45734 0.94994 0.0
C2292 C 0.53849 0.4194 0.8588 0.0
C2293 C 0.52525 0.44235 0.89173 0.0
H2294 H 0.53787 0.47531 0.92132 0.0
C2295 C 0.5073 0.42921 0.89728 0.0
C2296 C 0.53667 0.45879 0.90086 0.0
C2297 C 0.55654 0.47276 0.89615 0.0
C2298 C 0.50013 0.43259 0.9113 0.0
C2299 C 0.5111 0.44966 0.91979 0.0
C2300 C 0.52937 0.46232 0.91467 0.0
C2301 C 0.50375 0.45527 0.93359 0.0
C2302 C 0.48094 0.41792 0.91695 0.0
C2303 C 0.48891 0.45885 0.93155 0.0
C2304 C 0.48414 0.46735 0.94377 0.0
C2305 C 0.49394 0.47208 0.95828 0.0
C2306 C 0.50822 0.46771 0.96052 0.0
C2307 C 0.51317 0.45952 0.94825 0.0
H2308 H 0.47654 0.40372 0.91177 0.0
H2309 H 0.48056 0.41681 0.93015 0.0
H2310 H 0.47065 0.42214 0.9132 0.0
H2311 H 0.48178 0.45615 0.92019 0.0
H2312 H 0.47339 0.47101 0.94164 0.0
H2313 H 0.54588 0.07307 0.83494 0.0
H2314 H 0.53753 0.06071 0.86206 0.0
H2315 H 0.48048 0.02388 0.84719 0.0
H2316 H 0.48871 0.03594 0.81997 0.0
H2317 H 0.4848 0.04343 0.87714 0.0
H2318 H 0.52586 0.00648 0.87425 0.0
H2319 H 0.53878 0.0312 0.86914 0.0
H2320 H 0.51968 0.01496 0.85671 0.0
C2321 C 0.53157 0.06226 0.8374 0.0
C2322 C 0.518 0.05539 0.82523 0.0
C2323 C 0.52682 0.05527 0.85291 0.0
C2324 C 0.50844 0.04125 0.85656 0.0
C2325 C 0.49474 0.03472 0.8446 0.0
H2326 H 0.48507 0.97312 0.94191 0.0
H2327 H 0.48305 0.98276 0.91468 0.0
C2328 C 0.49947 0.04168 0.82906 0.0
C2329 C 0.50371 0.03296 0.87274 0.0
H2330 H 0.51401 0.00808 0.89953 0.0
C2331 C 0.49106 0.03558 0.88204 0.0
C2332 C 0.51167 0.02248 0.87897 0.0
C2333 C 0.52463 0.01842 0.86923 0.0
C2334 C 0.48661 0.02846 0.89766 0.0
C2335 C 0.49518 0.01863 0.90411 0.0
C2336 C 0.50743 0.01561 0.8946 0.0
C2337 C 0.49246 0.012 0.92087 0.0
C2338 C 0.47273 0.03144 0.90705 0.0
C2339 C 0.49783 0.02506 0.93348 0.0
C2340 C 0.49877 0.01949 0.94904 0.0
C2341 C 0.49446 0.00082 0.95224 0.0
C2342 C 0.4882 0.98754 0.93977 0.0
C2343 C 0.48712 0.99305 0.92423 0.0
H2344 H 0.46331 0.03375 0.89908 0.0
H2345 H 0.4641 0.01913 0.91489 0.0
H2346 H 0.48042 0.04423 0.91465 0.0
H2347 H 0.50258 0.03987 0.93116 0.0
H2348 H 0.5045 0.03017 0.95829 0.0
H2349 H 0.13056 0.26935 0.50999 0.0
H2350 H 0.13833 0.28011 0.48243 0.0
H2351 H 0.19289 0.32441 0.49743 0.0
H2352 H 0.18523 0.31372 0.52506 0.0
H2353 H 0.14714 0.31512 0.47115 0.0
H2354 H 0.20521 0.30101 0.45946 0.0
H2355 H 0.18952 0.29084 0.47615 0.0
H2356 H 0.20829 0.31503 0.47694 0.0
C2357 C 0.14422 0.28139 0.50743 0.0
C2358 C 0.15726 0.29072 0.51971 0.0
C2359 C 0.14868 0.28744 0.49167 0.0
C2360 C 0.16628 0.30289 0.48786 0.0
C2361 C 0.1794 0.31218 0.50005 0.0
H2362 H 0.18417 0.36771 0.40137 0.0
H2363 H 0.18649 0.35904 0.42887 0.0
C2364 C 0.17497 0.30609 0.51584 0.0
C2365 C 0.17031 0.31002 0.47127 0.0
H2366 H 0.19952 0.31845 0.43968 0.0
C2367 C 0.15859 0.31585 0.46428 0.0
C2368 C 0.18517 0.31079 0.46231 0.0
C2369 C 0.19769 0.30393 0.46901 0.0
C2370 C 0.16133 0.32249 0.44858 0.0
C2371 C 0.17647 0.32373 0.43972 0.0
C2372 C 0.18813 0.31775 0.44662 0.0
C2373 C 0.17961 0.33038 0.42302 0.0
C2374 C 0.1477 0.32771 0.44148 0.0
C2375 C 0.17616 0.31751 0.41057 0.0
C2376 C 0.17504 0.32253 0.39485 0.0
C2377 C 0.17742 0.34047 0.3914 0.0
C2378 C 0.18236 0.35381 0.40374 0.0
C2379 C 0.1836 0.34885 0.41942 0.0
H2380 H 0.13463 0.32197 0.44856 0.0
H2381 H 0.15426 0.34338 0.44119 0.0
H2382 H 0.14398 0.32234 0.42907 0.0
H2383 H 0.17294 0.30315 0.41313 0.0
H2384 H 0.1706 0.31183 0.38566 0.0
H2385 H 0.80381 0.9124 0.47961 0.0
H2386 H 0.78527 0.90656 0.45523 0.0
H2387 H 0.73636 0.89185 0.48366 0.0
H2388 H 0.755 0.8984 0.50791 0.0
H2389 H 0.75797 0.87531 0.44506 0.0
H2390 H 0.73079 0.92445 0.45159 0.0
H2391 H 0.74935 0.92604 0.46406 0.0
H2392 H 0.7252 0.90988 0.46897 0.0
C2393 C 0.78913 0.90809 0.48058 0.0
C2394 C 0.78081 0.90589 0.49559 0.0
C2395 C 0.77858 0.90486 0.46668 0.0
C2396 C 0.75948 0.89918 0.46755 0.0
C2397 C 0.75118 0.8969 0.4826 0.0
H2398 H 0.67403 0.82295 0.40643 0.0
H2399 H 0.69543 0.84121 0.42779 0.0
C2400 C 0.76179 0.90044 0.49646 0.0
C2401 C 0.74778 0.89372 0.4529 0.0
H2402 H 0.7124 0.89688 0.43461 0.0
C2403 C 0.74828 0.88035 0.44266 0.0
C2404 C 0.73535 0.90051 0.44947 0.0
C2405 C 0.73531 0.91618 0.45903 0.0
C2406 C 0.73595 0.87273 0.42975 0.0
C2407 C 0.72231 0.87813 0.4273 0.0
C2408 C 0.72256 0.89241 0.43681 0.0
C2409 C 0.70713 0.86808 0.41551 0.0
C2410 C 0.73738 0.85861 0.41903 0.0
C2411 C 0.70569 0.87739 0.402 0.0
C2412 C 0.69358 0.86693 0.38954 0.0
C2413 C 0.68242 0.84706 0.39067 0.0
C2414 C 0.68262 0.83816 0.40498 0.0
C2415 C 0.69488 0.84857 0.41723 0.0
H2416 H 0.75166 0.86048 0.41934 0.0
H2417 H 0.72744 0.84403 0.42318 0.0
H2418 H 0.73385 0.85995 0.40651 0.0
H2419 H 0.71457 0.89257 0.40075 0.0
H2420 H 0.69359 0.87428 0.3788 0.0
H2421 H 0.11933 0.87474 0.504 0.0
H2422 H 0.13161 0.86849 0.47966 0.0
H2423 H 0.13497 0.91798 0.45775 0.0
H2424 H 0.12275 0.92436 0.48209 0.0
H2425 H 0.11693 0.86149 0.44962 0.0
H2426 H 0.1872 0.92613 0.44998 0.0
H2427 H 0.17195 0.91869 0.46709 0.0
H2428 H 0.16818 0.93084 0.4509 0.0
C2429 C 0.12258 0.88423 0.49397 0.0
C2430 C 0.12011 0.90007 0.49498 0.0
C2431 C 0.12971 0.88072 0.48011 0.0
C2432 C 0.13453 0.89297 0.467 0.0
C2433 C 0.13182 0.90863 0.46787 0.0
H2434 H 0.14679 0.86052 0.37141 0.0
H2435 H 0.13857 0.87292 0.39456 0.0
C2436 C 0.12477 0.91221 0.48176 0.0
C2437 C 0.14169 0.88886 0.45224 0.0
H2438 H 0.17888 0.90682 0.42673 0.0
C2439 C 0.13048 0.87139 0.44463 0.0
C2440 C 0.15947 0.90173 0.44585 0.0
C2441 C 0.1725 0.92033 0.45393 0.0
C2442 C 0.13648 0.86646 0.43075 0.0
C2443 C 0.15402 0.87954 0.4241 0.0
C2444 C 0.16535 0.89694 0.43177 0.0
C2445 C 0.16091 0.87501 0.40941 0.0
C2446 C 0.12411 0.84711 0.4235 0.0
C2447 C 0.17658 0.87259 0.40996 0.0
C2448 C 0.18125 0.86534 0.39673 0.0
C2449 C 0.17059 0.86091 0.38268 0.0
C2450 C 0.15571 0.86455 0.38185 0.0
C2451 C 0.15085 0.87144 0.39513 0.0
H2452 H 0.11361 0.83717 0.43215 0.0
H2453 H 0.11644 0.84848 0.4132 0.0
H2454 H 0.13253 0.84083 0.41918 0.0
H2455 H 0.18446 0.87519 0.42091 0.0
H2456 H 0.19254 0.86227 0.39773 0.0
H2457 H 0.57098 0.76367 0.17349 0.0
H2458 H 0.58879 0.77093 0.19827 0.0
H2459 H 0.54263 0.76912 0.22385 0.0
H2460 H 0.52499 0.76248 0.19885 0.0
H2461 H 0.57316 0.79911 0.23192 0.0
H2462 H 0.58693 0.73968 0.23541 0.0
H2463 H 0.5946 0.75125 0.21653 0.0
H2464 H 0.57013 0.73969 0.22165 0.0
C2465 C 0.56455 0.76457 0.18444 0.0
C2466 C 0.54661 0.7625 0.18427 0.0
C2467 C 0.57467 0.76855 0.19864 0.0
C2468 C 0.56692 0.77013 0.21304 0.0
C2469 C 0.54887 0.76783 0.21292 0.0
H2470 H 0.63151 0.79478 0.30242 0.0
H2471 H 0.60877 0.77728 0.28132 0.0
C2472 C 0.53884 0.76413 0.19865 0.0
C2473 C 0.57839 0.77603 0.22783 0.0
H2474 H 0.60886 0.76832 0.24977 0.0
C2475 C 0.58071 0.79216 0.23593 0.0
C2476 C 0.58791 0.76673 0.23344 0.0
C2477 C 0.58457 0.74825 0.22639 0.0
C2478 C 0.59309 0.79987 0.24882 0.0
C2479 C 0.60406 0.79173 0.25332 0.0
C2480 C 0.60087 0.77489 0.24597 0.0
C2481 C 0.61936 0.80112 0.26517 0.0
C2482 C 0.59432 0.81671 0.25747 0.0
C2483 C 0.63364 0.81987 0.26261 0.0
C2484 C 0.64656 0.82991 0.27461 0.0
C2485 C 0.64558 0.82134 0.28939 0.0
C2486 C 0.6324 0.80196 0.29133 0.0
C2487 C 0.61936 0.79192 0.27929 0.0
H2488 H 0.58116 0.81719 0.25619 0.0
H2489 H 0.59719 0.81639 0.27036 0.0
H2490 H 0.60581 0.82996 0.2523 0.0
H2491 H 0.63432 0.82702 0.25155 0.0
H2492 H 0.65674 0.84468 0.27253 0.0
H2493 H 0.19169 0.73605 0.18202 0.0
H2494 H 0.17873 0.74241 0.20579 0.0
H2495 H 0.21616 0.80244 0.19974 0.0
H2496 H 0.22825 0.79635 0.17535 0.0
H2497 H 0.1926 0.7583 0.23364 0.0
H2498 H 0.1673 0.8011 0.20283 0.0
H2499 H 0.17578 0.78772 0.19213 0.0
H2500 H 0.19193 0.81092 0.19994 0.0
C2501 C 0.19699 0.75065 0.18556 0.0
C2502 C 0.21084 0.76569 0.17652 0.0
C2503 C 0.18967 0.75424 0.19929 0.0
C2504 C 0.19611 0.77293 0.20436 0.0
C2505 C 0.21054 0.78792 0.19581 0.0
H2506 H 0.19025 0.81587 0.29569 0.0
H2507 H 0.19545 0.79958 0.27364 0.0
C2508 C 0.21769 0.78437 0.18197 0.0
C2509 C 0.18775 0.7768 0.21853 0.0
H2510 H 0.16955 0.80395 0.23126 0.0
C2511 C 0.18733 0.76809 0.23309 0.0
C2512 C 0.18035 0.78914 0.21777 0.0
C2513 C 0.17865 0.79757 0.20228 0.0
C2514 C 0.18054 0.77211 0.24705 0.0
C2515 C 0.17459 0.78568 0.24653 0.0
C2516 C 0.17424 0.79368 0.2318 0.0
C2517 C 0.16989 0.79289 0.26109 0.0
C2518 C 0.17991 0.76175 0.26214 0.0
C2519 C 0.1539 0.79485 0.26146 0.0
C2520 C 0.15118 0.80464 0.27393 0.0
C2521 C 0.16417 0.81219 0.28643 0.0
C2522 C 0.17973 0.8096 0.28642 0.0
C2523 C 0.18265 0.80019 0.27382 0.0
H2524 H 0.17763 0.74738 0.25947 0.0
H2525 H 0.19357 0.76974 0.26834 0.0
H2526 H 0.16871 0.7603 0.27031 0.0
H2527 H 0.1439 0.7895 0.25174 0.0
H2528 H 0.13928 0.80682 0.27358 0.0
H2529 H 0.20656 0.41359 0.1704 0.0
H2530 H 0.19867 0.40173 0.19769 0.0
H2531 H 0.14319 0.35991 0.18241 0.0
H2532 H 0.15098 0.37163 0.15503 0.0
H2533 H 0.1448 0.3782 0.21251 0.0
H2534 H 0.1936 0.35001 0.20945 0.0
H2535 H 0.20403 0.37476 0.20473 0.0
H2536 H 0.18615 0.35735 0.19198 0.0
C2537 C 0.19268 0.40187 0.17284 0.0
C2538 C 0.17947 0.3934 0.16052 0.0
C2539 C 0.18817 0.39517 0.18844 0.0
C2540 C 0.17044 0.3798 0.19199 0.0
C2541 C 0.15695 0.3718 0.17988 0.0
H2542 H 0.15398 0.31076 0.275 0.0
H2543 H 0.15109 0.32085 0.24823 0.0
C2544 C 0.16143 0.37853 0.16427 0.0
C2545 C 0.16642 0.37134 0.20811 0.0
H2546 H 0.1804 0.34922 0.2346 0.0
C2547 C 0.15247 0.37175 0.21736 0.0
C2548 C 0.17627 0.3627 0.21426 0.0
C2549 C 0.19073 0.36098 0.20457 0.0
C2550 C 0.14842 0.36409 0.23283 0.0
C2551 C 0.15874 0.35602 0.23917 0.0
C2552 C 0.17245 0.35537 0.22975 0.0
C2553 C 0.15614 0.34851 0.25564 0.0
C2554 C 0.13305 0.36456 0.24212 0.0
C2555 C 0.15914 0.36038 0.26881 0.0
C2556 C 0.16043 0.35445 0.28416 0.0
C2557 C 0.15909 0.33673 0.28652 0.0
C2558 C 0.155 0.32446 0.27348 0.0
C2559 C 0.1534 0.33025 0.2582 0.0
H2560 H 0.12287 0.36557 0.23409 0.0
H2561 H 0.12541 0.35176 0.24969 0.0
H2562 H 0.13927 0.37724 0.24998 0.0
H2563 H 0.16178 0.37469 0.26714 0.0
H2564 H 0.16408 0.36435 0.29395 0.0
H2565 H 0.82382 0.58794 0.83875 0.0
H2566 H 0.83327 0.60011 0.81166 0.0
H2567 H 0.80764 0.63464 0.81725 0.0
H2568 H 0.79858 0.62303 0.84446 0.0
H2569 H 0.79738 0.60962 0.78855 0.0
H2570 H 0.874 0.65641 0.79812 0.0
H2571 H 0.86294 0.63275 0.80618 0.0
H2572 H 0.85734 0.64971 0.8142 0.0
C2573 C 0.82042 0.59834 0.83432 0.0
C2574 C 0.81041 0.60449 0.84382 0.0
C2575 C 0.82581 0.60523 0.81883 0.0
C2576 C 0.82126 0.61836 0.81257 0.0
C2577 C 0.81128 0.62452 0.82194 0.0
H2578 H 0.84446 0.68934 0.73203 0.0
H2579 H 0.8447 0.67595 0.75809 0.0
C2580 C 0.80599 0.61774 0.83744 0.0
C2581 C 0.82616 0.62516 0.79599 0.0
H2582 H 0.86252 0.65505 0.77211 0.0
C2583 C 0.81162 0.61939 0.78488 0.0
C2584 C 0.84476 0.63796 0.79136 0.0
C2585 C 0.86074 0.64473 0.80304 0.0
C2586 C 0.81515 0.62636 0.76925 0.0
C2587 C 0.83374 0.63934 0.76463 0.0
C2588 C 0.84834 0.64494 0.77568 0.0
C2589 C 0.83779 0.64843 0.74877 0.0
C2590 C 0.79887 0.62034 0.75797 0.0
C2591 C 0.83469 0.63762 0.73489 0.0
C2592 C 0.83457 0.64526 0.72001 0.0
C2593 C 0.83767 0.66381 0.71881 0.0
C2594 C 0.84216 0.67504 0.73262 0.0
C2595 C 0.84231 0.66742 0.74749 0.0
H2596 H 0.78519 0.61266 0.76417 0.0
H2597 H 0.79981 0.63286 0.75183 0.0
H2598 H 0.79925 0.61078 0.74873 0.0
H2599 H 0.83115 0.62292 0.73566 0.0
H2600 H 0.83039 0.63612 0.70968 0.0
H2601 H 0.47404 0.22831 0.80985 0.0
H2602 H 0.45692 0.22147 0.78456 0.0
H2603 H 0.41725 0.23431 0.8063 0.0
H2604 H 0.43436 0.24137 0.83144 0.0
H2605 H 0.42132 0.19434 0.77883 0.0
H2606 H 0.42832 0.26424 0.76564 0.0
H2607 H 0.44308 0.26132 0.7799 0.0
H2608 H 0.41991 0.25608 0.78537 0.0
C2609 C 0.46172 0.22976 0.80918 0.0
C2610 C 0.45561 0.23549 0.82259 0.0
C2611 C 0.45202 0.22596 0.79473 0.0
C2612 C 0.43605 0.22781 0.79343 0.0
C2613 C 0.42988 0.23342 0.80684 0.0
H2614 H 0.34146 0.18747 0.73093 0.0
H2615 H 0.36519 0.20295 0.75195 0.0
C2616 C 0.43963 0.23734 0.82123 0.0
C2617 C 0.42492 0.22241 0.77849 0.0
H2618 H 0.40447 0.23761 0.75129 0.0
C2619 C 0.41786 0.20389 0.77268 0.0
C2620 C 0.42042 0.2349 0.77047 0.0
C2621 C 0.42848 0.2553 0.77555 0.0
C2622 C 0.40581 0.19727 0.75949 0.0
C2623 C 0.40083 0.20956 0.75182 0.0
C2624 C 0.40822 0.22822 0.75732 0.0
C2625 C 0.38742 0.20289 0.73839 0.0
C2626 C 0.39797 0.17697 0.75416 0.0
C2627 C 0.39227 0.19825 0.72376 0.0
C2628 C 0.37894 0.18994 0.71168 0.0
C2629 C 0.36049 0.18585 0.71417 0.0
C2630 C 0.35572 0.19087 0.72868 0.0
C2631 C 0.36921 0.19962 0.74065 0.0
H2632 H 0.40064 0.16845 0.763 0.0
H2633 H 0.38266 0.17012 0.7521 0.0
H2634 H 0.4046 0.17671 0.74274 0.0
H2635 H 0.40613 0.2003 0.72192 0.0
H2636 H 0.38276 0.18562 0.70076 0.0
H2637 H 0.79073 0.26252 0.81189 0.0
H2638 H 0.80214 0.25672 0.78681 0.0
H2639 H 0.79008 0.20184 0.8039 0.0
H2640 H 0.77888 0.20759 0.82908 0.0
H2641 H 0.83161 0.24891 0.78211 0.0
H2642 H 0.76364 0.19035 0.76028 0.0
H2643 H 0.76536 0.20611 0.77618 0.0
H2644 H 0.76942 0.18677 0.78013 0.0
C2645 C 0.79055 0.24923 0.81034 0.0
C2646 C 0.78383 0.23549 0.8225 0.0
C2647 C 0.79703 0.24593 0.79599 0.0
C2648 C 0.79676 0.22879 0.79345 0.0
C2649 C 0.79007 0.21503 0.80552 0.0
H2650 H 0.85375 0.19263 0.73028 0.0
H2651 H 0.84574 0.20788 0.75161 0.0
C2652 C 0.78362 0.21832 0.81988 0.0
C2653 C 0.8038 0.22534 0.77832 0.0
H2654 H 0.79095 0.19461 0.74699 0.0
C2655 C 0.82271 0.23716 0.77433 0.0
C2656 C 0.79209 0.21022 0.76805 0.0
C2657 C 0.77145 0.19774 0.77126 0.0
C2658 C 0.83038 0.23372 0.76065 0.0
C2659 C 0.81887 0.21795 0.75088 0.0
C2660 C 0.79981 0.20664 0.75455 0.0
C2661 C 0.82634 0.21215 0.73728 0.0
C2662 C 0.8507 0.24694 0.75682 0.0
C2663 C 0.81823 0.20963 0.72212 0.0
C2664 C 0.82268 0.20079 0.71002 0.0
C2665 C 0.83549 0.19453 0.71278 0.0
C2666 C 0.8442 0.19777 0.72774 0.0
C2667 C 0.83968 0.20654 0.7399 0.0
H2668 H 0.85594 0.26109 0.76241 0.0
H2669 H 0.85914 0.24087 0.76154 0.0
H2670 H 0.85295 0.24879 0.74375 0.0
H2671 H 0.80771 0.21359 0.7199 0.0
H2672 H 0.81502 0.19756 0.6989 0.0
H2673 H 0.22916 0.08701 0.50269 0.0
H2674 H 0.24832 0.09376 0.52666 0.0
H2675 H 0.21062 0.10618 0.55245 0.0
H2676 H 0.19116 0.09927 0.52846 0.0
H2677 H 0.2646 0.13056 0.54264 0.0
H2678 H 0.22012 0.06981 0.58226 0.0
H2679 H 0.21647 0.06896 0.56098 0.0
H2680 H 0.20913 0.08193 0.57346 0.0
C2681 C 0.22472 0.09083 0.51353 0.0
C2682 C 0.20861 0.09257 0.51369 0.0
C2683 C 0.23572 0.09472 0.52719 0.0
C2684 C 0.23075 0.10024 0.54134 0.0
C2685 C 0.21451 0.10167 0.54169 0.0
H2686 H 0.28611 0.14269 0.63194 0.0
H2687 H 0.26308 0.12719 0.61064 0.0
C2688 C 0.20354 0.09791 0.52796 0.0
C2689 C 0.24357 0.10619 0.5552 0.0
H2690 H 0.24815 0.09457 0.59337 0.0
C2691 C 0.26108 0.12265 0.55371 0.0
C2692 C 0.23877 0.09594 0.56964 0.0
C2693 C 0.22014 0.07809 0.57174 0.0
C2694 C 0.27391 0.12931 0.56635 0.0
C2695 C 0.26936 0.11884 0.58073 0.0
C2696 C 0.25173 0.10242 0.58227 0.0
C2697 C 0.28247 0.12529 0.59446 0.0
C2698 C 0.29195 0.14788 0.56432 0.0
C2699 C 0.30078 0.12856 0.59273 0.0
C2700 C 0.31396 0.13748 0.60488 0.0
C2701 C 0.30882 0.14266 0.61912 0.0
C2702 C 0.29024 0.13832 0.62122 0.0
C2703 C 0.27712 0.12961 0.60902 0.0
H2704 H 0.29091 0.15656 0.5546 0.0
H2705 H 0.29593 0.15637 0.57547 0.0
H2706 H 0.30332 0.14497 0.56117 0.0
H2707 H 0.30509 0.12494 0.58173 0.0
H2708 H 0.32828 0.14088 0.60298 0.0
H2709 H 0.90638 0.11471 0.51819 0.0
H2710 H 0.89487 0.12191 0.54255 0.0
H2711 H 0.83805 0.08382 0.52779 0.0
H2712 H 0.84937 0.07673 0.50331 0.0
H2713 H 0.87054 0.13738 0.5432 0.0
H2714 H 0.8391 0.06792 0.57455 0.0
H2715 H 0.8574 0.07494 0.55987 0.0
H2716 H 0.8339 0.06747 0.5537 0.0
C2717 C 0.89143 0.10786 0.5201 0.0
C2718 C 0.87881 0.09513 0.50876 0.0
C2719 C 0.88488 0.11188 0.53409 0.0
C2720 C 0.86562 0.10317 0.53709 0.0
C2721 C 0.85298 0.09035 0.5259 0.0
H2722 H 0.81276 0.14586 0.60127 0.0
H2723 H 0.8189 0.12994 0.57919 0.0
C2724 C 0.8595 0.08634 0.51189 0.0
C2725 C 0.85877 0.1086 0.55135 0.0
H2726 H 0.83471 0.09182 0.58624 0.0
C2727 C 0.86268 0.12741 0.55259 0.0
C2728 C 0.84861 0.09557 0.56361 0.0
C2729 C 0.84456 0.07535 0.56303 0.0
C2730 C 0.85657 0.13354 0.5657 0.0
C2731 C 0.84616 0.12046 0.57784 0.0
C2732 C 0.84245 0.10169 0.57676 0.0
C2733 C 0.83976 0.12651 0.59198 0.0
C2734 C 0.86155 0.15405 0.5666 0.0
C2735 C 0.84896 0.12917 0.60662 0.0
C2736 C 0.84545 0.13821 0.6192 0.0
C2737 C 0.83249 0.14447 0.61742 0.0
C2738 C 0.82257 0.14086 0.60303 0.0
C2739 C 0.8261 0.13185 0.59043 0.0
H2740 H 0.87236 0.16299 0.55773 0.0
H2741 H 0.84885 0.15506 0.56425 0.0
H2742 H 0.86675 0.1599 0.57869 0.0
H2743 H 0.85977 0.12544 0.60795 0.0
H2744 H 0.854 0.14171 0.62983 0.0
H2745 H 0.83076 0.73838 0.49159 0.0
H2746 H 0.82185 0.72745 0.51905 0.0
H2747 H 0.84937 0.69451 0.51535 0.0
H2748 H 0.85791 0.70488 0.48779 0.0
H2749 H 0.80133 0.68699 0.5316 0.0
H2750 H 0.87371 0.73244 0.55445 0.0
H2751 H 0.86582 0.73699 0.53576 0.0
H2752 H 0.87149 0.71843 0.53713 0.0
C2753 C 0.83468 0.72858 0.49651 0.0
C2754 C 0.84517 0.72261 0.48748 0.0
C2755 C 0.82963 0.72242 0.51222 0.0
C2756 C 0.8351 0.71033 0.5192 0.0
C2757 C 0.84521 0.70403 0.51018 0.0
H2758 H 0.81041 0.64247 0.60248 0.0
H2759 H 0.8093 0.6545 0.57601 0.0
C2760 C 0.85018 0.71007 0.49447 0.0
C2761 C 0.83083 0.7047 0.53609 0.0
H2762 H 0.85184 0.70931 0.5721 0.0
C2763 C 0.8123 0.69197 0.54053 0.0
C2764 C 0.84515 0.71147 0.54769 0.0
C2765 C 0.86516 0.72571 0.54362 0.0
C2766 C 0.80784 0.68522 0.55624 0.0
C2767 C 0.82233 0.69131 0.56768 0.0
C2768 C 0.84074 0.70462 0.56332 0.0
C2769 C 0.81917 0.68328 0.58397 0.0
C2770 C 0.78774 0.67157 0.56046 0.0
C2771 C 0.82483 0.69538 0.59727 0.0
C2772 C 0.82553 0.68852 0.61234 0.0
C2773 C 0.82051 0.66946 0.61441 0.0
C2774 C 0.81397 0.65715 0.60124 0.0
C2775 C 0.81326 0.66399 0.58614 0.0
H2776 H 0.77796 0.67268 0.55202 0.0
H2777 H 0.78521 0.65685 0.55983 0.0
H2778 H 0.78453 0.67413 0.57274 0.0
H2779 H 0.82978 0.71038 0.59582 0.0
H2780 H 0.83161 0.69847 0.62207 0.0
loop_
_geom_bond_atom_site_label_1
_geom_bond_atom_site_label_2
_geom_bond_distance
_geom_bond_site_symmetry_2
_ccdc_geom_bond_type
C0 C1 1.384 . S
C0 H13 0.947 . S
C0 C35 1.382 . S
C1 C0 1.384 . S
C1 C2 1.378 . S
C2 C1 1.378 . S
C2 C3 1.378 . S
C2 H14 0.952 . S
C3 C2 1.378 . S
C3 H15 0.950 . S
C3 C34 1.383 . S
H4 C23 0.947 . S
H5 C24 0.946 . S
H6 C26 0.953 . S
H7 C27 0.945 . S
H8 C29 0.952 . S
H9 C30 0.949 . S
H10 C32 0.950 . S
H11 C33 0.948 . S
H12 C35 0.951 . S
H13 C0 0.947 . S
H14 C2 0.952 . S
H15 C3 0.950 . S
N16 C19 1.382 . S
N16 C21 1.363 . S
N17 C19 1.371 . S
N17 C20 1.372 . S
N18 C20 1.361 . S
N18 C21 1.377 . S
C19 N16 1.382 . S
C19 N17 1.371 . S
C19 C22 1.480 . S
C20 N17 1.372 . S
C20 N18 1.361 . S
C20 C28 1.457 . S
C21 N16 1.363 . S
C21 N18 1.377 . S
C21 C34 1.479 . S
C22 C19 1.480 . S
C22 C23 1.383 . S
C22 C27 1.385 . S
C23 H4 0.947 . S
C23 C22 1.383 . S
C23 C24 1.388 . S
C24 H5 0.946 . S
C24 C23 1.388 . S
C24 C25 1.384 . S
C25 C24 1.384 . S
C25 C26 1.377 . S
C26 H6 0.953 . S
C26 C25 1.377 . S
C26 C27 1.369 . S
C27 H7 0.945 . S
C27 C22 1.385 . S
C27 C26 1.369 . S
C28 C20 1.457 . S
C28 C29 1.372 . S
C28 C33 1.364 . S
C29 H8 0.952 . S
C29 C28 1.372 . S
C29 C30 1.389 . S
C30 H9 0.949 . S
C30 C29 1.389 . S
C30 C31 1.387 . S
C31 C30 1.387 . S
C31 C32 1.372 . S
C32 H10 0.950 . S
C32 C31 1.372 . S
C32 C33 1.379 . S
C33 H11 0.948 . S
C33 C28 1.364 . S
C33 C32 1.379 . S
C34 C3 1.383 . S
C34 C21 1.479 . S
C34 C35 1.398 . S
C35 C0 1.382 . S
C35 H12 0.951 . S
C35 C34 1.398 . S
C36 C37 1.384 . S
C36 H49 0.947 . S
C36 C71 1.382 . S
C37 C36 1.384 . S
C37 C38 1.378 . S
C38 C37 1.378 . S
C38 C39 1.378 . S
C38 H50 0.952 . S
C39 C38 1.378 . S
C39 H51 0.950 . S
C39 C70 1.383 . S
H40 C59 0.947 . S
H41 C60 0.946 . S
H42 C62 0.953 . S
H43 C63 0.945 . S
H44 C65 0.952 . S
H45 C66 0.949 . S
H46 C68 0.950 . S
H47 C69 0.948 . S
H48 C71 0.951 . S
H49 C36 0.947 . S
H50 C38 0.952 . S
H51 C39 0.950 . S
N52 C55 1.382 . S
N52 C57 1.363 . S
N53 C55 1.371 . S
N53 C56 1.372 . S
N54 C56 1.361 . S
N54 C57 1.377 . S
C55 N52 1.382 . S
C55 N53 1.371 . S
C55 C58 1.480 . S
C56 N53 1.372 . S
C56 N54 1.361 . S
C56 C64 1.457 . S
C57 N52 1.363 . S
C57 N54 1.377 . S
C57 C70 1.479 . S
C58 C55 1.480 . S
C58 C59 1.383 . S
C58 C63 1.385 . S
C59 H40 0.947 . S
C59 C58 1.383 . S
C59 C60 1.388 . S
C60 H41 0.946 . S
C60 C59 1.388 . S
C60 C61 1.384 . S
C61 C60 1.384 . S
C61 C62 1.377 . S
C62 H42 0.953 . S
C62 C61 1.377 . S
C62 C63 1.369 . S
C63 H43 0.945 . S
C63 C58 1.385 . S
C63 C62 1.369 . S
C64 C56 1.457 . S
C64 C65 1.372 . S
C64 C69 1.364 . S
C65 H44 0.952 . S
C65 C64 1.372 . S
C65 C66 1.389 . S
C66 H45 0.949 . S
C66 C65 1.389 . S
C66 C67 1.387 . S
C67 C66 1.387 . S
C67 C68 1.372 . S
C68 H46 0.950 . S
C68 C67 1.372 . S
C68 C69 1.379 . S
C69 H47 0.948 . S
C69 C64 1.364 . S
C69 C68 1.379 . S
C70 C39 1.383 . S
C70 C57 1.479 . S
C70 C71 1.398 . S
C71 C36 1.382 . S
C71 H48 0.951 . S
C71 C70 1.398 . S
C72 C73 1.384 . S
C72 H85 0.947 . S
C72 C107 1.382 . S
C73 C72 1.384 . S
C73 C74 1.378 . S
C74 C73 1.378 . S
C74 C75 1.378 . S
C74 H86 0.952 . S
C75 C74 1.378 . S
C75 H87 0.950 . S
C75 C106 1.383 . S
H76 C95 0.947 . S
H77 C96 0.946 . S
H78 C98 0.953 . S
H79 C99 0.945 . S
H80 C101 0.952 . S
H81 C102 0.949 . S
H82 C104 0.950 . S
H83 C105 0.948 . S
H84 C107 0.951 . S
H85 C72 0.947 . S
H86 C74 0.952 . S
H87 C75 0.950 . S
N88 C91 1.382 . S
N88 C93 1.363 . S
N89 C91 1.371 . S
N89 C92 1.372 . S
N90 C92 1.361 . S
N90 C93 1.377 . S
C91 N88 1.382 . S
C91 N89 1.371 . S
C91 C94 1.480 . S
C92 N89 1.372 . S
C92 N90 1.361 . S
C92 C100 1.457 . S
C93 N88 1.363 . S
C93 N90 1.377 . S
C93 C106 1.479 . S
C94 C91 1.480 . S
C94 C95 1.383 . S
C94 C99 1.385 . S
C95 H76 0.947 . S
C95 C94 1.383 . S
C95 C96 1.388 . S
C96 H77 0.946 . S
C96 C95 1.388 . S
C96 C97 1.384 . S
C97 C96 1.384 . S
C97 C98 1.377 . S
C98 H78 0.953 . S
C98 C97 1.377 . S
C98 C99 1.369 . S
C99 H79 0.945 . S
C99 C94 1.385 . S
C99 C98 1.369 . S
C100 C92 1.457 . S
C100 C101 1.372 . S
C100 C105 1.364 . S
C101 H80 0.952 . S
C101 C100 1.372 . S
C101 C102 1.389 . S
C102 H81 0.949 . S
C102 C101 1.389 . S
C102 C103 1.387 . S
C103 C102 1.387 . S
C103 C104 1.372 . S
C104 H82 0.950 . S
C104 C103 1.372 . S
C104 C105 1.379 . S
C105 H83 0.948 . S
C105 C100 1.364 . S
C105 C104 1.379 . S
C106 C75 1.383 . S
C106 C93 1.479 . S
C106 C107 1.398 . S
C107 C72 1.382 . S
C107 H84 0.951 . S
C107 C106 1.398 . S
C108 C109 1.384 . S
C108 H121 0.947 . S
C108 C143 1.382 . S
C109 C108 1.384 . S
C109 C110 1.378 . S
C110 C109 1.378 . S
C110 C111 1.378 . S
C110 H122 0.952 . S
C111 C110 1.378 . S
C111 H123 0.950 . S
C111 C142 1.383 . S
H112 C131 0.947 . S
H113 C132 0.946 . S
H114 C134 0.953 . S
H115 C135 0.945 . S
H116 C137 0.952 . S
H117 C138 0.949 . S
H118 C140 0.950 . S
H119 C141 0.948 . S
H120 C143 0.951 . S
H121 C108 0.947 . S
H122 C110 0.952 . S
H123 C111 0.950 . S
N124 C127 1.382 . S
N124 C129 1.363 . S
N125 C127 1.371 . S
N125 C128 1.372 . S
N126 C128 1.361 . S
N126 C129 1.377 . S
C127 N124 1.382 . S
C127 N125 1.371 . S
C127 C130 1.480 . S
C128 N125 1.372 . S
C128 N126 1.361 . S
C128 C136 1.457 . S
C129 N124 1.363 . S
C129 N126 1.377 . S
C129 C142 1.479 . S
C130 C127 1.480 . S
C130 C131 1.383 . S
C130 C135 1.385 . S
C131 H112 0.947 . S
C131 C130 1.383 . S
C131 C132 1.388 . S
C132 H113 0.946 . S
C132 C131 1.388 . S
C132 C133 1.384 . S
C133 C132 1.384 . S
C133 C134 1.377 . S
C134 H114 0.953 . S
C134 C133 1.377 . S
C134 C135 1.369 . S
C135 H115 0.945 . S
C135 C130 1.385 . S
C135 C134 1.369 . S
C136 C128 1.457 . S
C136 C137 1.372 . S
C136 C141 1.364 . S
C137 H116 0.952 . S
C137 C136 1.372 . S
C137 C138 1.389 . S
C138 H117 0.949 . S
C138 C137 1.389 . S
C138 C139 1.387 . S
C139 C138 1.387 . S
C139 C140 1.372 . S
C140 H118 0.950 . S
C140 C139 1.372 . S
C140 C141 1.379 . S
C141 H119 0.948 . S
C141 C136 1.364 . S
C141 C140 1.379 . S
C142 C111 1.383 . S
C142 C129 1.479 . S
C142 C143 1.398 . S
C143 C108 1.382 . S
C143 H120 0.951 . S
C143 C142 1.398 . S
C144 C145 1.384 . S
C144 H157 0.947 . S
C144 C179 1.382 . S
C145 C144 1.384 . S
C145 C146 1.378 . S
C146 C145 1.378 . S
C146 C147 1.378 . S
C146 H158 0.952 . S
C147 C146 1.378 . S
C147 H159 0.950 . S
C147 C178 1.383 . S
H148 C167 0.947 . S
H149 C168 0.946 . S
H150 C170 0.953 . S
H151 C171 0.945 . S
H152 C173 0.952 . S
H153 C174 0.949 . S
H154 C176 0.950 . S
H155 C177 0.948 . S
H156 C179 0.951 . S
H157 C144 0.947 . S
H158 C146 0.952 . S
H159 C147 0.950 . S
N160 C163 1.382 . S
N160 C165 1.363 . S
N161 C163 1.371 . S
N161 C164 1.372 . S
N162 C164 1.361 . S
N162 C165 1.377 . S
C163 N160 1.382 . S
C163 N161 1.371 . S
C163 C166 1.480 . S
C164 N161 1.372 . S
C164 N162 1.361 . S
C164 C172 1.457 . S
C165 N160 1.363 . S
C165 N162 1.377 . S
C165 C178 1.479 . S
C166 C163 1.480 . S
C166 C167 1.383 . S
C166 C171 1.385 . S
C167 H148 0.947 . S
C167 C166 1.383 . S
C167 C168 1.388 . S
C168 H149 0.946 . S
C168 C167 1.388 . S
C168 C169 1.384 . S
C169 C168 1.384 . S
C169 C170 1.377 . S
C170 H150 0.953 . S
C170 C169 1.377 . S
C170 C171 1.369 . S
C171 H151 0.945 . S
C171 C166 1.385 . S
C171 C170 1.369 . S
C172 C164 1.457 . S
C172 C173 1.372 . S
C172 C177 1.364 . S
C173 H152 0.952 . S
C173 C172 1.372 . S
C173 C174 1.389 . S
C174 H153 0.949 . S
C174 C173 1.389 . S
C174 C175 1.387 . S
C175 C174 1.387 . S
C175 C176 1.372 . S
C176 H154 0.950 . S
C176 C175 1.372 . S
C176 C177 1.379 . S
C177 H155 0.948 . S
C177 C172 1.364 . S
C177 C176 1.379 . S
C178 C147 1.383 . S
C178 C165 1.479 . S
C178 C179 1.398 . S
C179 C144 1.382 . S
C179 H156 0.951 . S
C179 C178 1.398 . S
C180 C181 1.384 . S
C180 H193 0.947 . S
C180 C215 1.382 . S
C181 C180 1.384 . S
C181 C182 1.378 . S
C182 C181 1.378 . S
C182 C183 1.378 . S
C182 H194 0.952 . S
C183 C182 1.378 . S
C183 H195 0.950 . S
C183 C214 1.383 . S
H184 C203 0.947 . S
H185 C204 0.946 . S
H186 C206 0.953 . S
H187 C207 0.945 . S
H188 C209 0.952 . S
H189 C210 0.949 . S
H190 C212 0.950 . S
H191 C213 0.948 . S
H192 C215 0.951 . S
H193 C180 0.947 . S
H194 C182 0.952 . S
H195 C183 0.950 . S
N196 C199 1.382 . S
N196 C201 1.363 . S
N197 C199 1.371 . S
N197 C200 1.372 . S
N198 C200 1.361 . S
N198 C201 1.377 . S
C199 N196 1.382 . S
C199 N197 1.371 . S
C199 C202 1.480 . S
C200 N197 1.372 . S
C200 N198 1.361 . S
C200 C208 1.457 . S
C201 N196 1.363 . S
C201 N198 1.377 . S
C201 C214 1.479 . S
C202 C199 1.480 . S
C202 C203 1.383 . S
C202 C207 1.385 . S
C203 H184 0.947 . S
C203 C202 1.383 . S
C203 C204 1.388 . S
C204 H185 0.946 . S
C204 C203 1.388 . S
C204 C205 1.384 . S
C205 C204 1.384 . S
C205 C206 1.377 . S
C206 H186 0.953 . S
C206 C205 1.377 . S
C206 C207 1.369 . S
C207 H187 0.945 . S
C207 C202 1.385 . S
C207 C206 1.369 . S
C208 C200 1.457 . S
C208 C209 1.372 . S
C208 C213 1.364 . S
C209 H188 0.952 . S
C209 C208 1.372 . S
C209 C210 1.389 . S
C210 H189 0.949 . S
C210 C209 1.389 . S
C210 C211 1.387 . S
C211 C210 1.387 . S
C211 C212 1.372 . S
C212 H190 0.950 . S
C212 C211 1.372 . S
C212 C213 1.379 . S
C213 H191 0.948 . S
C213 C208 1.364 . S
C213 C212 1.379 . S
C214 C183 1.383 . S
C214 C201 1.479 . S
C214 C215 1.398 . S
C215 C180 1.382 . S
C215 H192 0.951 . S
C215 C214 1.398 . S
C216 C217 1.384 . S
C216 H229 0.947 . S
C216 C251 1.382 . S
C217 C216 1.384 . S
C217 C218 1.378 . S
C218 C217 1.378 . S
C218 C219 1.378 . S
C218 H230 0.952 . S
C219 C218 1.378 . S
C219 H231 0.950 . S
C219 C250 1.383 . S
H220 C239 0.947 . S
H221 C240 0.946 . S
H222 C242 0.953 . S
H223 C243 0.945 . S
H224 C245 0.952 . S
H225 C246 0.949 . S
H226 C248 0.950 . S
H227 C249 0.948 . S
H228 C251 0.951 . S
H229 C216 0.947 . S
H230 C218 0.952 . S
H231 C219 0.950 . S
N232 C235 1.382 . S
N232 C237 1.363 . S
N233 C235 1.371 . S
N233 C236 1.372 . S
N234 C236 1.361 . S
N234 C237 1.377 . S
C235 N232 1.382 . S
C235 N233 1.371 . S
C235 C238 1.480 . S
C236 N233 1.372 . S
C236 N234 1.361 . S
C236 C244 1.457 . S
C237 N232 1.363 . S
C237 N234 1.377 . S
C237 C250 1.479 . S
C238 C235 1.480 . S
C238 C239 1.383 . S
C238 C243 1.385 . S
C239 H220 0.947 . S
C239 C238 1.383 . S
C239 C240 1.388 . S
C240 H221 0.946 . S
C240 C239 1.388 . S
C240 C241 1.384 . S
C241 C240 1.384 . S
C241 C242 1.377 . S
C242 H222 0.953 . S
C242 C241 1.377 . S
C242 C243 1.369 . S
C243 H223 0.945 . S
C243 C238 1.385 . S
C243 C242 1.369 . S
C244 C236 1.457 . S
C244 C245 1.372 . S
C244 C249 1.364 . S
C245 H224 0.952 . S
C245 C244 1.372 . S
C245 C246 1.389 . S
C246 H225 0.949 . S
C246 C245 1.389 . S
C246 C247 1.387 . S
C247 C246 1.387 . S
C247 C248 1.372 . S
C248 H226 0.950 . S
C248 C247 1.372 . S
C248 C249 1.379 . S
C249 H227 0.948 . S
C249 C244 1.364 . S
C249 C248 1.379 . S
C250 C219 1.383 . S
C250 C237 1.479 . S
C250 C251 1.398 . S
C251 C216 1.382 . S
C251 H228 0.951 . S
C251 C250 1.398 . S
C252 C253 1.384 . S
C252 H265 0.947 . S
C252 C287 1.382 . S
C253 C252 1.384 . S
C253 C254 1.378 . S
C254 C253 1.378 . S
C254 C255 1.378 . S
C254 H266 0.952 . S
C255 C254 1.378 . S
C255 H267 0.950 . S
C255 C286 1.383 . S
H256 C275 0.947 . S
H257 C276 0.946 . S
H258 C278 0.953 . S
H259 C279 0.945 . S
H260 C281 0.952 . S
H261 C282 0.949 . S
H262 C284 0.950 . S
H263 C285 0.948 . S
H264 C287 0.951 . S
H265 C252 0.947 . S
H266 C254 0.952 . S
H267 C255 0.950 . S
N268 C271 1.382 . S
N268 C273 1.363 . S
N269 C271 1.371 . S
N269 C272 1.372 . S
N270 C272 1.361 . S
N270 C273 1.377 . S
C271 N268 1.382 . S
C271 N269 1.371 . S
C271 C274 1.480 . S
C272 N269 1.372 . S
C272 N270 1.361 . S
C272 C280 1.457 . S
C273 N268 1.363 . S
C273 N270 1.377 . S
C273 C286 1.479 . S
C274 C271 1.480 . S
C274 C275 1.383 . S
C274 C279 1.385 . S
C275 H256 0.947 . S
C275 C274 1.383 . S
C275 C276 1.388 . S
C276 H257 0.946 . S
C276 C275 1.388 . S
C276 C277 1.384 . S
C277 C276 1.384 . S
C277 C278 1.377 . S
C278 H258 0.953 . S
C278 C277 1.377 . S
C278 C279 1.369 . S
C279 H259 0.945 . S
C279 C274 1.385 . S
C279 C278 1.369 . S
C280 C272 1.457 . S
C280 C281 1.372 . S
C280 C285 1.364 . S
C281 H260 0.952 . S
C281 C280 1.372 . S
C281 C282 1.389 . S
C282 H261 0.949 . S
C282 C281 1.389 . S
C282 C283 1.387 . S
C283 C282 1.387 . S
C283 C284 1.372 . S
C284 H262 0.950 . S
C284 C283 1.372 . S
C284 C285 1.379 . S
C285 H263 0.948 . S
C285 C280 1.364 . S
C285 C284 1.379 . S
C286 C255 1.383 . S
C286 C273 1.479 . S
C286 C287 1.398 . S
C287 C252 1.382 . S
C287 H264 0.951 . S
C287 C286 1.398 . S
C288 C289 1.384 . S
C288 H301 0.947 . S
C288 C323 1.382 . S
C289 C288 1.384 . S
C289 C290 1.378 . S
C290 C289 1.378 . S
C290 C291 1.378 . S
C290 H302 0.952 . S
C291 C290 1.378 . S
C291 H303 0.950 . S
C291 C322 1.383 . S
H292 C311 0.947 . S
H293 C312 0.946 . S
H294 C314 0.953 . S
H295 C315 0.945 . S
H296 C317 0.952 . S
H297 C318 0.949 . S
H298 C320 0.950 . S
H299 C321 0.948 . S
H300 C323 0.951 . S
H301 C288 0.947 . S
H302 C290 0.952 . S
H303 C291 0.950 . S
N304 C307 1.382 . S
N304 C309 1.363 . S
N305 C307 1.371 . S
N305 C308 1.372 . S
N306 C308 1.361 . S
N306 C309 1.377 . S
C307 N304 1.382 . S
C307 N305 1.371 . S
C307 C310 1.480 . S
C308 N305 1.372 . S
C308 N306 1.361 . S
C308 C316 1.457 . S
C309 N304 1.363 . S
C309 N306 1.377 . S
C309 C322 1.479 . S
C310 C307 1.480 . S
C310 C311 1.383 . S
C310 C315 1.385 . S
C311 H292 0.947 . S
C311 C310 1.383 . S
C311 C312 1.388 . S
C312 H293 0.946 . S
C312 C311 1.388 . S
C312 C313 1.384 . S
C313 C312 1.384 . S
C313 C314 1.377 . S
C314 H294 0.953 . S
C314 C313 1.377 . S
C314 C315 1.369 . S
C315 H295 0.945 . S
C315 C310 1.385 . S
C315 C314 1.369 . S
C316 C308 1.457 . S
C316 C317 1.372 . S
C316 C321 1.364 . S
C317 H296 0.952 . S
C317 C316 1.372 . S
C317 C318 1.389 . S
C318 H297 0.949 . S
C318 C317 1.389 . S
C318 C319 1.387 . S
C319 C318 1.387 . S
C319 C320 1.372 . S
C320 H298 0.950 . S
C320 C319 1.372 . S
C320 C321 1.379 . S
C321 H299 0.948 . S
C321 C316 1.364 . S
C321 C320 1.379 . S
C322 C291 1.383 . S
C322 C309 1.479 . S
C322 C323 1.398 . S
C323 C288 1.382 . S
C323 H300 0.951 . S
C323 C322 1.398 . S
C324 C325 1.384 . S
C324 H337 0.947 . S
C324 C359 1.382 . S
C325 C324 1.384 . S
C325 C326 1.378 . S
C326 C325 1.378 . S
C326 C327 1.378 . S
C326 H338 0.952 . S
C327 C326 1.378 . S
C327 H339 0.950 . S
C327 C358 1.383 . S
H328 C347 0.947 . S
H329 C348 0.946 . S
H330 C350 0.953 . S
H331 C351 0.945 . S
H332 C353 0.952 . S
H333 C354 0.949 . S
H334 C356 0.950 . S
H335 C357 0.948 . S
H336 C359 0.951 . S
H337 C324 0.947 . S
H338 C326 0.952 . S
H339 C327 0.950 . S
N340 C343 1.382 . S
N340 C345 1.363 . S
N341 C343 1.371 . S
N341 C344 1.372 . S
N342 C344 1.361 . S
N342 C345 1.377 . S
C343 N340 1.382 . S
C343 N341 1.371 . S
C343 C346 1.480 . S
C344 N341 1.372 . S
C344 N342 1.361 . S
C344 C352 1.457 . S
C345 N340 1.363 . S
C345 N342 1.377 . S
C345 C358 1.479 . S
C346 C343 1.480 . S
C346 C347 1.383 . S
C346 C351 1.385 . S
C347 H328 0.947 . S
C347 C346 1.383 . S
C347 C348 1.388 . S
C348 H329 0.946 . S
C348 C347 1.388 . S
C348 C349 1.384 . S
C349 C348 1.384 . S
C349 C350 1.377 . S
C350 H330 0.953 . S
C350 C349 1.377 . S
C350 C351 1.369 . S
C351 H331 0.945 . S
C351 C346 1.385 . S
C351 C350 1.369 . S
C352 C344 1.457 . S
C352 C353 1.372 . S
C352 C357 1.364 . S
C353 H332 0.952 . S
C353 C352 1.372 . S
C353 C354 1.389 . S
C354 H333 0.949 . S
C354 C353 1.389 . S
C354 C355 1.387 . S
C355 C354 1.387 . S
C355 C356 1.372 . S
C356 H334 0.950 . S
C356 C355 1.372 . S
C356 C357 1.379 . S
C357 H335 0.948 . S
C357 C352 1.364 . S
C357 C356 1.379 . S
C358 C327 1.383 . S
C358 C345 1.479 . S
C358 C359 1.398 . S
C359 C324 1.382 . S
C359 H336 0.951 . S
C359 C358 1.398 . S
C360 C361 1.384 . S
C360 H373 0.947 . S
C360 C395 1.382 . S
C361 C360 1.384 . S
C361 C362 1.378 . S
C362 C361 1.378 . S
C362 C363 1.378 . S
C362 H374 0.952 . S
C363 C362 1.378 . S
C363 H375 0.950 . S
C363 C394 1.383 . S
H364 C383 0.947 . S
H365 C384 0.946 . S
H366 C386 0.953 . S
H367 C387 0.945 . S
H368 C389 0.952 . S
H369 C390 0.949 . S
H370 C392 0.950 . S
H371 C393 0.948 . S
H372 C395 0.951 . S
H373 C360 0.947 . S
H374 C362 0.952 . S
H375 C363 0.950 . S
N376 C379 1.382 . S
N376 C381 1.363 . S
N377 C379 1.371 . S
N377 C380 1.372 . S
N378 C380 1.361 . S
N378 C381 1.377 . S
C379 N376 1.382 . S
C379 N377 1.371 . S
C379 C382 1.480 . S
C380 N377 1.372 . S
C380 N378 1.361 . S
C380 C388 1.457 . S
C381 N376 1.363 . S
C381 N378 1.377 . S
C381 C394 1.479 . S
C382 C379 1.480 . S
C382 C383 1.383 . S
C382 C387 1.385 . S
C383 H364 0.947 . S
C383 C382 1.383 . S
C383 C384 1.388 . S
C384 H365 0.946 . S
C384 C383 1.388 . S
C384 C385 1.384 . S
C385 C384 1.384 . S
C385 C386 1.377 . S
C386 H366 0.953 . S
C386 C385 1.377 . S
C386 C387 1.369 . S
C387 H367 0.945 . S
C387 C382 1.385 . S
C387 C386 1.369 . S
C388 C380 1.457 . S
C388 C389 1.372 . S
C388 C393 1.364 . S
C389 H368 0.952 . S
C389 C388 1.372 . S
C389 C390 1.389 . S
C390 H369 0.949 . S
C390 C389 1.389 . S
C390 C391 1.387 . S
C391 C390 1.387 . S
C391 C392 1.372 . S
C392 H370 0.950 . S
C392 C391 1.372 . S
C392 C393 1.379 . S
C393 H371 0.948 . S
C393 C388 1.364 . S
C393 C392 1.379 . S
C394 C363 1.383 . S
C394 C381 1.479 . S
C394 C395 1.398 . S
C395 C360 1.382 . S
C395 H372 0.951 . S
C395 C394 1.398 . S
C396 C397 1.384 . S
C396 H409 0.947 . S
C396 C431 1.382 . S
C397 C396 1.384 . S
C397 C398 1.378 . S
C398 C397 1.378 . S
C398 C399 1.378 . S
C398 H410 0.952 . S
C399 C398 1.378 . S
C399 H411 0.950 . S
C399 C430 1.383 . S
H400 C419 0.947 . S
H401 C420 0.946 . S
H402 C422 0.953 . S
H403 C423 0.945 . S
H404 C425 0.952 . S
H405 C426 0.949 . S
H406 C428 0.950 . S
H407 C429 0.948 . S
H408 C431 0.951 . S
H409 C396 0.947 . S
H410 C398 0.952 . S
H411 C399 0.950 . S
N412 C415 1.382 . S
N412 C417 1.363 . S
N413 C415 1.371 . S
N413 C416 1.372 . S
N414 C416 1.361 . S
N414 C417 1.377 . S
C415 N412 1.382 . S
C415 N413 1.371 . S
C415 C418 1.480 . S
C416 N413 1.372 . S
C416 N414 1.361 . S
C416 C424 1.457 . S
C417 N412 1.363 . S
C417 N414 1.377 . S
C417 C430 1.479 . S
C418 C415 1.480 . S
C418 C419 1.383 . S
C418 C423 1.385 . S
C419 H400 0.947 . S
C419 C418 1.383 . S
C419 C420 1.388 . S
C420 H401 0.946 . S
C420 C419 1.388 . S
C420 C421 1.384 . S
C421 C420 1.384 . S
C421 C422 1.377 . S
C422 H402 0.953 . S
C422 C421 1.377 . S
C422 C423 1.369 . S
C423 H403 0.945 . S
C423 C418 1.385 . S
C423 C422 1.369 . S
C424 C416 1.457 . S
C424 C425 1.372 . S
C424 C429 1.364 . S
C425 H404 0.952 . S
C425 C424 1.372 . S
C425 C426 1.389 . S
C426 H405 0.949 . S
C426 C425 1.389 . S
C426 C427 1.387 . S
C427 C426 1.387 . S
C427 C428 1.372 . S
C428 H406 0.950 . S
C428 C427 1.372 . S
C428 C429 1.379 . S
C429 H407 0.948 . S
C429 C424 1.364 . S
C429 C428 1.379 . S
C430 C399 1.383 . S
C430 C417 1.479 . S
C430 C431 1.398 . S
C431 C396 1.382 . S
C431 H408 0.951 . S
C431 C430 1.398 . S
C432 C433 1.384 . S
C432 H445 0.947 . S
C432 C467 1.382 . S
C433 C432 1.384 . S
C433 C434 1.378 . S
C434 C433 1.378 . S
C434 C435 1.378 . S
C434 H446 0.952 . S
C435 C434 1.378 . S
C435 H447 0.950 . S
C435 C466 1.383 . S
H436 C455 0.947 . S
H437 C456 0.946 . S
H438 C458 0.953 . S
H439 C459 0.945 . S
H440 C461 0.952 . S
H441 C462 0.949 . S
H442 C464 0.950 . S
H443 C465 0.948 . S
H444 C467 0.951 . S
H445 C432 0.947 . S
H446 C434 0.952 . S
H447 C435 0.950 . S
N448 C451 1.382 . S
N448 C453 1.363 . S
N449 C451 1.371 . S
N449 C452 1.372 . S
N450 C452 1.361 . S
N450 C453 1.377 . S
C451 N448 1.382 . S
C451 N449 1.371 . S
C451 C454 1.480 . S
C452 N449 1.372 . S
C452 N450 1.361 . S
C452 C460 1.457 . S
C453 N448 1.363 . S
C453 N450 1.377 . S
C453 C466 1.479 . S
C454 C451 1.480 . S
C454 C455 1.383 . S
C454 C459 1.385 . S
C455 H436 0.947 . S
C455 C454 1.383 . S
C455 C456 1.388 . S
C456 H437 0.946 . S
C456 C455 1.388 . S
C456 C457 1.384 . S
C457 C456 1.384 . S
C457 C458 1.377 . S
C458 H438 0.953 . S
C458 C457 1.377 . S
C458 C459 1.369 . S
C459 H439 0.945 . S
C459 C454 1.385 . S
C459 C458 1.369 . S
C460 C452 1.457 . S
C460 C461 1.372 . S
C460 C465 1.364 . S
C461 H440 0.952 . S
C461 C460 1.372 . S
C461 C462 1.389 . S
C462 H441 0.949 . S
C462 C461 1.389 . S
C462 C463 1.387 . S
C463 C462 1.387 . S
C463 C464 1.372 . S
C464 H442 0.950 . S
C464 C463 1.372 . S
C464 C465 1.379 . S
C465 H443 0.948 . S
C465 C460 1.364 . S
C465 C464 1.379 . S
C466 C435 1.383 . S
C466 C453 1.479 . S
C466 C467 1.398 . S
C467 C432 1.382 . S
C467 H444 0.951 . S
C467 C466 1.398 . S
C468 C469 1.384 . S
C468 H481 0.947 . S
C468 C503 1.382 . S
C469 C468 1.384 . S
C469 C470 1.378 . S
C470 C469 1.378 . S
C470 C471 1.378 . S
C470 H482 0.952 . S
C471 C470 1.378 . S
C471 H483 0.950 . S
C471 C502 1.383 . S
H472 C491 0.947 . S
H473 C492 0.946 . S
H474 C494 0.953 . S
H475 C495 0.945 . S
H476 C497 0.952 . S
H477 C498 0.949 . S
H478 C500 0.950 . S
H479 C501 0.948 . S
H480 C503 0.951 . S
H481 C468 0.947 . S
H482 C470 0.952 . S
H483 C471 0.950 . S
N484 C487 1.382 . S
N484 C489 1.363 . S
N485 C487 1.371 . S
N485 C488 1.372 . S
N486 C488 1.361 . S
N486 C489 1.377 . S
C487 N484 1.382 . S
C487 N485 1.371 . S
C487 C490 1.480 . S
C488 N485 1.372 . S
C488 N486 1.361 . S
C488 C496 1.457 . S
C489 N484 1.363 . S
C489 N486 1.377 . S
C489 C502 1.479 . S
C490 C487 1.480 . S
C490 C491 1.383 . S
C490 C495 1.385 . S
C491 H472 0.947 . S
C491 C490 1.383 . S
C491 C492 1.388 . S
C492 H473 0.946 . S
C492 C491 1.388 . S
C492 C493 1.384 . S
C493 C492 1.384 . S
C493 C494 1.377 . S
C494 H474 0.953 . S
C494 C493 1.377 . S
C494 C495 1.369 . S
C495 H475 0.945 . S
C495 C490 1.385 . S
C495 C494 1.369 . S
C496 C488 1.457 . S
C496 C497 1.372 . S
C496 C501 1.364 . S
C497 H476 0.952 . S
C497 C496 1.372 . S
C497 C498 1.389 . S
C498 H477 0.949 . S
C498 C497 1.389 . S
C498 C499 1.387 . S
C499 C498 1.387 . S
C499 C500 1.372 . S
C500 H478 0.950 . S
C500 C499 1.372 . S
C500 C501 1.379 . S
C501 H479 0.948 . S
C501 C496 1.364 . S
C501 C500 1.379 . S
C502 C471 1.383 . S
C502 C489 1.479 . S
C502 C503 1.398 . S
C503 C468 1.382 . S
C503 H480 0.951 . S
C503 C502 1.398 . S
C504 C505 1.384 . S
C504 H517 0.947 . S
C504 C539 1.382 . S
C505 C504 1.384 . S
C505 C506 1.378 . S
C506 C505 1.378 . S
C506 C507 1.378 . S
C506 H518 0.952 . S
C507 C506 1.378 . S
C507 H519 0.950 . S
C507 C538 1.383 . S
H508 C527 0.947 . S
H509 C528 0.946 . S
H510 C530 0.953 . S
H511 C531 0.945 . S
H512 C533 0.952 . S
H513 C534 0.949 . S
H514 C536 0.950 . S
H515 C537 0.948 . S
H516 C539 0.951 . S
H517 C504 0.947 . S
H518 C506 0.952 . S
H519 C507 0.950 . S
N520 C523 1.382 . S
N520 C525 1.363 . S
N521 C523 1.371 . S
N521 C524 1.372 . S
N522 C524 1.361 . S
N522 C525 1.377 . S
C523 N520 1.382 . S
C523 N521 1.371 . S
C523 C526 1.480 . S
C524 N521 1.372 . S
C524 N522 1.361 . S
C524 C532 1.457 . S
C525 N520 1.363 . S
C525 N522 1.377 . S
C525 C538 1.479 . S
C526 C523 1.480 . S
C526 C527 1.383 . S
C526 C531 1.385 . S
C527 H508 0.947 . S
C527 C526 1.383 . S
C527 C528 1.388 . S
C528 H509 0.946 . S
C528 C527 1.388 . S
C528 C529 1.384 . S
C529 C528 1.384 . S
C529 C530 1.377 . S
C530 H510 0.953 . S
C530 C529 1.377 . S
C530 C531 1.369 . S
C531 H511 0.945 . S
C531 C526 1.385 . S
C531 C530 1.369 . S
C532 C524 1.457 . S
C532 C533 1.372 . S
C532 C537 1.364 . S
C533 H512 0.952 . S
C533 C532 1.372 . S
C533 C534 1.389 . S
C534 H513 0.949 . S
C534 C533 1.389 . S
C534 C535 1.387 . S
C535 C534 1.387 . S
C535 C536 1.372 . S
C536 H514 0.950 . S
C536 C535 1.372 . S
C536 C537 1.379 . S
C537 H515 0.948 . S
C537 C532 1.364 . S
C537 C536 1.379 . S
C538 C507 1.383 . S
C538 C525 1.479 . S
C538 C539 1.398 . S
C539 C504 1.382 . S
C539 H516 0.951 . S
C539 C538 1.398 . S
C540 C541 1.384 . S
C540 H553 0.947 . S
C540 C575 1.382 . S
C541 C540 1.384 . S
C541 C542 1.378 . S
C542 C541 1.378 . S
C542 C543 1.378 . S
C542 H554 0.952 . S
C543 C542 1.378 . S
C543 H555 0.950 . S
C543 C574 1.383 . S
H544 C563 0.947 . S
H545 C564 0.946 . S
H546 C566 0.953 . S
H547 C567 0.945 . S
H548 C569 0.952 . S
H549 C570 0.949 . S
H550 C572 0.950 . S
H551 C573 0.948 . S
H552 C575 0.951 . S
H553 C540 0.947 . S
H554 C542 0.952 . S
H555 C543 0.950 . S
N556 C559 1.382 . S
N556 C561 1.363 . S
N557 C559 1.371 . S
N557 C560 1.372 . S
N558 C560 1.361 . S
N558 C561 1.377 . S
C559 N556 1.382 . S
C559 N557 1.371 . S
C559 C562 1.480 . S
C560 N557 1.372 . S
C560 N558 1.361 . S
C560 C568 1.457 . S
C561 N556 1.363 . S
C561 N558 1.377 . S
C561 C574 1.479 . S
C562 C559 1.480 . S
C562 C563 1.383 . S
C562 C567 1.385 . S
C563 H544 0.947 . S
C563 C562 1.383 . S
C563 C564 1.388 . S
C564 H545 0.946 . S
C564 C563 1.388 . S
C564 C565 1.384 . S
C565 C564 1.384 . S
C565 C566 1.377 . S
C566 H546 0.953 . S
C566 C565 1.377 . S
C566 C567 1.369 . S
C567 H547 0.945 . S
C567 C562 1.385 . S
C567 C566 1.369 . S
C568 C560 1.457 . S
C568 C569 1.372 . S
C568 C573 1.364 . S
C569 H548 0.952 . S
C569 C568 1.372 . S
C569 C570 1.389 . S
C570 H549 0.949 . S
C570 C569 1.389 . S
C570 C571 1.387 . S
C571 C570 1.387 . S
C571 C572 1.372 . S
C572 H550 0.950 . S
C572 C571 1.372 . S
C572 C573 1.379 . S
C573 H551 0.948 . S
C573 C568 1.364 . S
C573 C572 1.379 . S
C574 C543 1.383 . S
C574 C561 1.479 . S
C574 C575 1.398 . S
C575 C540 1.382 . S
C575 H552 0.951 . S
C575 C574 1.398 . S
C576 C577 1.384 . S
C576 H589 0.947 . S
C576 C611 1.382 . S
C577 C576 1.384 . S
C577 C578 1.378 . S
C578 C577 1.378 . S
C578 C579 1.378 . S
C578 H590 0.952 . S
C579 C578 1.378 . S
C579 H591 0.950 . S
C579 C610 1.383 . S
H580 C599 0.947 . S
H581 C600 0.946 . S
H582 C602 0.953 . S
H583 C603 0.945 . S
H584 C605 0.952 . S
H585 C606 0.949 . S
H586 C608 0.950 . S
H587 C609 0.948 . S
H588 C611 0.951 . S
H589 C576 0.947 . S
H590 C578 0.952 . S
H591 C579 0.950 . S
N592 C595 1.382 . S
N592 C597 1.363 . S
N593 C595 1.371 . S
N593 C596 1.372 . S
N594 C596 1.361 . S
N594 C597 1.377 . S
C595 N592 1.382 . S
C595 N593 1.371 . S
C595 C598 1.480 . S
C596 N593 1.372 . S
C596 N594 1.361 . S
C596 C604 1.457 . S
C597 N592 1.363 . S
C597 N594 1.377 . S
C597 C610 1.479 . S
C598 C595 1.480 . S
C598 C599 1.383 . S
C598 C603 1.385 . S
C599 H580 0.947 . S
C599 C598 1.383 . S
C599 C600 1.388 . S
C600 H581 0.946 . S
C600 C599 1.388 . S
C600 C601 1.384 . S
C601 C600 1.384 . S
C601 C602 1.377 . S
C602 H582 0.953 . S
C602 C601 1.377 . S
C602 C603 1.369 . S
C603 H583 0.945 . S
C603 C598 1.385 . S
C603 C602 1.369 . S
C604 C596 1.457 . S
C604 C605 1.372 . S
C604 C609 1.364 . S
C605 H584 0.952 . S
C605 C604 1.372 . S
C605 C606 1.389 . S
C606 H585 0.949 . S
C606 C605 1.389 . S
C606 C607 1.387 . S
C607 C606 1.387 . S
C607 C608 1.372 . S
C608 H586 0.950 . S
C608 C607 1.372 . S
C608 C609 1.379 . S
C609 H587 0.948 . S
C609 C604 1.364 . S
C609 C608 1.379 . S
C610 C579 1.383 . S
C610 C597 1.479 . S
C610 C611 1.398 . S
C611 C576 1.382 . S
C611 H588 0.951 . S
C611 C610 1.398 . S
C612 C613 1.384 . S
C612 H625 0.947 . S
C612 C647 1.382 . S
C613 C612 1.384 . S
C613 C614 1.378 . S
C614 C613 1.378 . S
C614 C615 1.378 . S
C614 H626 0.952 . S
C615 C614 1.378 . S
C615 H627 0.950 . S
C615 C646 1.383 . S
H616 C635 0.947 . S
H617 C636 0.946 . S
H618 C638 0.953 . S
H619 C639 0.945 . S
H620 C641 0.952 . S
H621 C642 0.949 . S
H622 C644 0.950 . S
H623 C645 0.948 . S
H624 C647 0.951 . S
H625 C612 0.947 . S
H626 C614 0.952 . S
H627 C615 0.950 . S
N628 C631 1.382 . S
N628 C633 1.363 . S
N629 C631 1.371 . S
N629 C632 1.372 . S
N630 C632 1.361 . S
N630 C633 1.377 . S
C631 N628 1.382 . S
C631 N629 1.371 . S
C631 C634 1.480 . S
C632 N629 1.372 . S
C632 N630 1.361 . S
C632 C640 1.457 . S
C633 N628 1.363 . S
C633 N630 1.377 . S
C633 C646 1.479 . S
C634 C631 1.480 . S
C634 C635 1.383 . S
C634 C639 1.385 . S
C635 H616 0.947 . S
C635 C634 1.383 . S
C635 C636 1.388 . S
C636 H617 0.946 . S
C636 C635 1.388 . S
C636 C637 1.384 . S
C637 C636 1.384 . S
C637 C638 1.377 . S
C638 H618 0.953 . S
C638 C637 1.377 . S
C638 C639 1.369 . S
C639 H619 0.945 . S
C639 C634 1.385 . S
C639 C638 1.369 . S
C640 C632 1.457 . S
C640 C641 1.372 . S
C640 C645 1.364 . S
C641 H620 0.952 . S
C641 C640 1.372 . S
C641 C642 1.389 . S
C642 H621 0.949 . S
C642 C641 1.389 . S
C642 C643 1.387 . S
C643 C642 1.387 . S
C643 C644 1.372 . S
C644 H622 0.950 . S
C644 C643 1.372 . S
C644 C645 1.379 . S
C645 H623 0.948 . S
C645 C640 1.364 . S
C645 C644 1.379 . S
C646 C615 1.383 . S
C646 C633 1.479 . S
C646 C647 1.398 . S
C647 C612 1.382 . S
C647 H624 0.951 . S
C647 C646 1.398 . S
O648 Mn649 2.163 1_565 S
O648 C662 1.244 . S
Mn649 O648 2.163 1_545 S
Mn649 O652 2.160 . S
Mn649 O653 2.221 1_545 S
Mn649 O655 2.163 1_554 S
Mn649 O657 2.160 . S
Mn649 O667 2.221 . S
O650 Mn651 2.087 1_565 S
O650 C662 1.256 . S
Mn651 O650 2.087 1_545 S
Mn651 O658 2.089 . S
Mn651 O667 2.290 . S
Mn651 O668 2.251 . S
O652 Mn649 2.160 . S
O652 C663 1.239 1_554 S
O653 Mn649 2.221 1_565 S
O653 Mn654 2.290 1_554 S
O653 C664 1.278 . S
Mn654 O653 2.290 1_556 S
Mn654 O656 2.089 1_565 S
Mn654 O659 2.251 . S
Mn654 O660 2.087 . S
O655 Mn649 2.163 1_556 S
O655 C665 1.244 . S
O656 Mn654 2.089 1_545 S
O656 C663 1.256 . S
O657 Mn649 2.160 . S
O657 C666 1.239 . S
O658 Mn651 2.089 . S
O658 C666 1.256 . S
O659 Mn654 2.251 . S
O659 C664 1.241 1_556 S
O660 Mn654 2.087 . S
O660 C665 1.256 1_565 S
C661 O667 1.278 . S
C661 O668 1.241 . S
C662 O648 1.244 . S
C662 O650 1.256 . S
C663 O652 1.239 1_556 S
C663 O656 1.256 . S
C664 O653 1.278 . S
C664 O659 1.241 1_554 S
C665 O655 1.244 . S
C665 O660 1.256 1_545 S
C666 O657 1.239 . S
C666 O658 1.256 . S
O667 Mn649 2.221 . S
O667 Mn651 2.290 . S
O667 C661 1.278 . S
O668 Mn651 2.251 . S
O668 C661 1.241 . S
O669 Mn670 2.162 1_455 S
O669 C683 1.244 . S
Mn670 O669 2.162 1_655 S
Mn670 O673 2.161 . S
Mn670 O674 2.221 1_655 S
Mn670 O676 2.163 1_554 S
Mn670 O678 2.156 . S
Mn670 O688 2.221 . S
O671 Mn672 2.087 1_455 S
O671 C683 1.256 . S
Mn672 O671 2.087 1_655 S
Mn672 O679 2.089 1_655 S
Mn672 O688 2.290 . S
Mn672 O689 2.251 . S
O673 Mn670 2.161 . S
O673 C684 1.239 1_554 S
O674 Mn670 2.221 1_455 S
O674 Mn675 2.290 1_554 S
O674 C685 1.278 . S
Mn675 O674 2.290 1_556 S
Mn675 O677 2.089 1_455 S
Mn675 O680 2.251 . S
Mn675 O681 2.087 . S
O676 Mn670 2.163 1_556 S
O676 C686 1.244 1_655 S
O677 Mn675 2.089 1_655 S
O677 C684 1.256 . S
O678 Mn670 2.156 . S
O678 C687 1.216 1_655 S
O679 Mn672 2.089 1_455 S
O679 C687 1.256 . S
O680 Mn675 2.251 . S
O680 C685 1.241 1_556 S
O681 Mn675 2.087 . S
O681 C686 1.256 . S
C682 O688 1.278 . S
C682 O689 1.241 . S
C683 O669 1.244 . S
C683 O671 1.256 . S
C684 O673 1.239 1_556 S
C684 O677 1.256 . S
C685 O674 1.278 . S
C685 O680 1.241 1_554 S
C686 O676 1.244 1_455 S
C686 O681 1.256 . S
C687 O678 1.216 1_455 S
C687 O679 1.256 . S
O688 Mn670 2.221 . S
O688 Mn672 2.290 . S
O688 C682 1.278 . S
O689 Mn672 2.251 . S
O689 C682 1.241 . S
O690 Mn691 2.163 . S
O690 C704 1.245 1_554 S
Mn691 O690 2.163 . S
Mn691 O694 2.160 . S
Mn691 O695 2.221 . S
Mn691 O697 2.163 . S
Mn691 O699 2.160 1_554 S
Mn691 O709 2.221 1_554 S
O692 Mn693 2.087 . S
O692 C704 1.256 . S
Mn693 O692 2.087 . S
Mn693 O700 2.089 . S
Mn693 O709 2.290 . S
Mn693 O710 2.251 1_556 S
O694 Mn691 2.160 . S
O694 C705 1.239 . S
O695 Mn691 2.221 . S
O695 Mn696 2.290 . S
O695 C706 1.278 . S
Mn696 O695 2.290 . S
Mn696 O698 2.089 . S
Mn696 O701 2.251 . S
Mn696 O702 2.087 . S
O697 Mn691 2.163 . S
O697 C707 1.244 . S
O698 Mn696 2.089 . S
O698 C705 1.256 . S
O699 Mn691 2.160 1_556 S
O699 C708 1.239 . S
O700 Mn693 2.089 . S
O700 C708 1.256 . S
O701 Mn696 2.251 . S
O701 C706 1.241 . S
O702 Mn696 2.087 . S
O702 C707 1.256 . S
C703 O709 1.278 1_554 S
C703 O710 1.241 . S
C704 O690 1.245 1_556 S
C704 O692 1.256 . S
C705 O694 1.239 . S
C705 O698 1.256 . S
C706 O695 1.278 . S
C706 O701 1.241 . S
C707 O697 1.244 . S
C707 O702 1.256 . S
C708 O699 1.239 . S
C708 O700 1.256 . S
O709 Mn691 2.221 1_556 S
O709 Mn693 2.290 . S
O709 C703 1.278 1_556 S
O710 Mn693 2.251 1_554 S
O710 C703 1.241 . S
O711 Mn712 2.163 . S
O711 C725 1.244 . S
Mn712 O711 2.163 . S
Mn712 O715 2.160 . S
Mn712 O716 2.221 . S
Mn712 O718 2.163 . S
Mn712 O720 2.160 . S
Mn712 O730 2.221 . S
O713 Mn714 2.087 . S
O713 C725 1.256 . S
Mn714 O713 2.087 . S
Mn714 O721 2.089 . S
Mn714 O730 2.290 . S
Mn714 O731 2.251 . S
O715 Mn712 2.160 . S
O715 C726 1.239 . S
O716 Mn712 2.221 . S
O716 Mn717 2.290 . S
O716 C727 1.278 . S
Mn717 O716 2.290 . S
Mn717 O719 2.089 . S
Mn717 O722 2.251 . S
Mn717 O723 2.087 . S
O718 Mn712 2.163 . S
O718 C728 1.244 . S
O719 Mn717 2.089 . S
O719 C726 1.256 . S
O720 Mn712 2.160 . S
O720 C729 1.239 . S
O721 Mn714 2.089 . S
O721 C729 1.256 . S
O722 Mn717 2.251 . S
O722 C727 1.241 . S
O723 Mn717 2.087 . S
O723 C728 1.256 . S
C724 O730 1.278 . S
C724 O731 1.241 . S
C725 O711 1.244 . S
C725 O713 1.256 . S
C726 O715 1.239 . S
C726 O719 1.256 . S
C727 O716 1.278 . S
C727 O722 1.241 . S
C728 O718 1.244 . S
C728 O723 1.256 . S
C729 O720 1.239 . S
C729 O721 1.256 . S
O730 Mn712 2.221 . S
O730 Mn714 2.290 . S
O730 C724 1.278 . S
O731 Mn714 2.251 . S
O731 C724 1.241 . S
O732 Mn733 2.163 . S
O732 C746 1.244 . S
Mn733 O732 2.163 . S
Mn733 O736 2.160 . S
Mn733 O737 2.221 . S
Mn733 O739 2.163 . S
Mn733 O741 2.160 . S
Mn733 O751 2.221 . S
O734 Mn735 2.087 . S
O734 C746 1.256 . S
Mn735 O734 2.087 . S
Mn735 O742 2.089 . S
Mn735 O751 2.290 . S
Mn735 O752 2.251 . S
O736 Mn733 2.160 . S
O736 C747 1.239 . S
O737 Mn733 2.221 . S
O737 Mn738 2.290 . S
O737 C748 1.278 . S
Mn738 O737 2.290 . S
Mn738 O740 2.089 . S
Mn738 O743 2.251 . S
Mn738 O744 2.087 . S
O739 Mn733 2.163 . S
O739 C749 1.244 . S
O740 Mn738 2.089 . S
O740 C747 1.256 . S
O741 Mn733 2.160 . S
O741 C750 1.239 . S
O742 Mn735 2.089 . S
O742 C750 1.256 . S
O743 Mn738 2.251 . S
O743 C748 1.241 . S
O744 Mn738 2.087 . S
O744 C749 1.256 . S
C745 O751 1.278 . S
C745 O752 1.241 . S
C746 O732 1.244 . S
C746 O734 1.256 . S
C747 O736 1.239 . S
C747 O740 1.256 . S
C748 O737 1.278 . S
C748 O743 1.241 . S
C749 O739 1.244 . S
C749 O744 1.256 . S
C750 O741 1.239 . S
C750 O742 1.256 . S
O751 Mn733 2.221 . S
O751 Mn735 2.290 . S
O751 C745 1.278 . S
O752 Mn735 2.251 . S
O752 C745 1.241 . S
O753 Mn754 2.163 . S
O753 C767 1.244 . S
Mn754 O753 2.163 . S
Mn754 O757 2.160 . S
Mn754 O758 2.221 . S
Mn754 O760 2.163 . S
Mn754 O762 2.160 . S
Mn754 O772 2.221 . S
O755 Mn756 2.087 . S
O755 C767 1.256 . S
Mn756 O755 2.087 . S
Mn756 O763 2.089 . S
Mn756 O772 2.290 . S
Mn756 O773 2.251 . S
O757 Mn754 2.160 . S
O757 C768 1.239 . S
O758 Mn754 2.221 . S
O758 Mn759 2.290 . S
O758 C769 1.278 . S
Mn759 O758 2.290 . S
Mn759 O761 2.089 . S
Mn759 O764 2.251 . S
Mn759 O765 2.087 . S
O760 Mn754 2.163 . S
O760 C770 1.244 . S
O761 Mn759 2.089 . S
O761 C768 1.256 . S
O762 Mn754 2.160 . S
O762 C771 1.239 . S
O763 Mn756 2.089 . S
O763 C771 1.256 . S
O764 Mn759 2.251 . S
O764 C769 1.241 . S
O765 Mn759 2.087 . S
O765 C770 1.256 . S
C766 O772 1.278 . S
C766 O773 1.241 . S
C767 O753 1.244 . S
C767 O755 1.256 . S
C768 O757 1.239 . S
C768 O761 1.256 . S
C769 O758 1.278 . S
C769 O764 1.241 . S
C770 O760 1.244 . S
C770 O765 1.256 . S
C771 O762 1.239 . S
C771 O763 1.256 . S
O772 Mn754 2.221 . S
O772 Mn756 2.290 . S
O772 C766 1.278 . S
O773 Mn756 2.251 . S
O773 C766 1.241 . S
O774 Mn775 2.163 . S
O774 C788 1.244 . S
Mn775 O774 2.163 . S
Mn775 O778 2.160 . S
Mn775 O779 2.221 . S
Mn775 O781 2.163 . S
Mn775 O783 2.160 . S
Mn775 O793 2.221 . S
O776 Mn777 2.087 . S
O776 C788 1.256 . S
Mn777 O776 2.087 . S
Mn777 O784 2.089 . S
Mn777 O793 2.290 . S
Mn777 O794 2.251 . S
O778 Mn775 2.160 . S
O778 C789 1.239 . S
O779 Mn775 2.221 . S
O779 Mn780 2.290 . S
O779 C790 1.278 . S
Mn780 O779 2.290 . S
Mn780 O782 2.089 . S
Mn780 O785 2.251 . S
Mn780 O786 2.087 . S
O781 Mn775 2.163 . S
O781 C791 1.244 . S
O782 Mn780 2.089 . S
O782 C789 1.256 . S
O783 Mn775 2.160 . S
O783 C792 1.239 . S
O784 Mn777 2.089 . S
O784 C792 1.256 . S
O785 Mn780 2.251 . S
O785 C790 1.241 . S
O786 Mn780 2.087 . S
O786 C791 1.256 . S
C787 O793 1.278 . S
C787 O794 1.241 . S
C788 O774 1.244 . S
C788 O776 1.256 . S
C789 O778 1.239 . S
C789 O782 1.256 . S
C790 O779 1.278 . S
C790 O785 1.241 . S
C791 O781 1.244 . S
C791 O786 1.256 . S
C792 O783 1.239 . S
C792 O784 1.256 . S
O793 Mn775 2.221 . S
O793 Mn777 2.290 . S
O793 C787 1.278 . S
O794 Mn777 2.251 . S
O794 C787 1.241 . S
O795 Mn796 2.163 . S
O795 C809 1.244 . S
Mn796 O795 2.163 . S
Mn796 O799 2.160 . S
Mn796 O800 2.221 . S
Mn796 O802 2.163 . S
Mn796 O804 2.160 . S
Mn796 O814 2.221 . S
O797 Mn798 2.087 . S
O797 C809 1.256 . S
Mn798 O797 2.087 . S
Mn798 O805 2.089 . S
Mn798 O814 2.290 . S
Mn798 O815 2.251 . S
O799 Mn796 2.160 . S
O799 C810 1.239 . S
O800 Mn796 2.221 . S
O800 Mn801 2.290 . S
O800 C811 1.278 . S
Mn801 O800 2.290 . S
Mn801 O803 2.089 . S
Mn801 O806 2.251 . S
Mn801 O807 2.087 . S
O802 Mn796 2.163 . S
O802 C812 1.244 . S
O803 Mn801 2.089 . S
O803 C810 1.256 . S
O804 Mn796 2.160 . S
O804 C813 1.239 . S
O805 Mn798 2.089 . S
O805 C813 1.256 . S
O806 Mn801 2.251 . S
O806 C811 1.241 . S
O807 Mn801 2.087 . S
O807 C812 1.256 . S
C808 O814 1.278 . S
C808 O815 1.241 . S
C809 O795 1.244 . S
C809 O797 1.256 . S
C810 O799 1.239 . S
C810 O803 1.256 . S
C811 O800 1.278 . S
C811 O806 1.241 . S
C812 O802 1.244 . S
C812 O807 1.256 . S
C813 O804 1.239 . S
C813 O805 1.256 . S
O814 Mn796 2.221 . S
O814 Mn798 2.290 . S
O814 C808 1.278 . S
O815 Mn798 2.251 . S
O815 C808 1.241 . S
O816 Mn817 2.163 . S
O816 C830 1.244 . S
Mn817 O816 2.163 . S
Mn817 O820 2.160 . S
Mn817 O821 2.221 . S
Mn817 O823 2.163 . S
Mn817 O825 2.160 . S
Mn817 O835 2.221 . S
O818 Mn819 2.087 . S
O818 C830 1.256 . S
Mn819 O818 2.087 . S
Mn819 O826 2.089 . S
Mn819 O835 2.290 . S
Mn819 O836 2.251 . S
O820 Mn817 2.160 . S
O820 C831 1.239 . S
O821 Mn817 2.221 . S
O821 Mn822 2.290 . S
O821 C832 1.278 . S
Mn822 O821 2.290 . S
Mn822 O824 2.089 . S
Mn822 O827 2.251 . S
Mn822 O828 2.087 . S
O823 Mn817 2.163 . S
O823 C833 1.244 . S
O824 Mn822 2.089 . S
O824 C831 1.256 . S
O825 Mn817 2.160 . S
O825 C834 1.239 . S
O826 Mn819 2.089 . S
O826 C834 1.256 . S
O827 Mn822 2.251 . S
O827 C832 1.241 . S
O828 Mn822 2.087 . S
O828 C833 1.256 . S
C829 O835 1.278 . S
C829 O836 1.241 . S
C830 O816 1.244 . S
C830 O818 1.256 . S
C831 O820 1.239 . S
C831 O824 1.256 . S
C832 O821 1.278 . S
C832 O827 1.241 . S
C833 O823 1.244 . S
C833 O828 1.256 . S
C834 O825 1.239 . S
C834 O826 1.256 . S
O835 Mn817 2.221 . S
O835 Mn819 2.290 . S
O835 C829 1.278 . S
O836 Mn819 2.251 . S
O836 C829 1.241 . S
H837 C845 0.929 . S
H838 C847 0.930 . S
H839 C849 0.930 . S
H840 C852 0.929 . S
H841 C855 0.930 . S
H842 C857 0.960 . S
H843 C857 0.960 . S
H844 C857 0.960 . S
C845 H837 0.929 . S
C845 C846 1.377 . S
C845 C847 1.384 . S
C846 C845 1.377 . S
C846 C852 1.390 . S
C847 H838 0.930 . S
C847 C845 1.384 . S
C847 C848 1.372 . S
C848 C847 1.372 . S
C848 C849 1.400 . S
C848 C853 1.490 . S
C849 H839 0.930 . S
C849 C848 1.400 . S
C849 C852 1.386 . S
H850 C866 0.930 . S
H851 C867 0.931 . S
C852 H840 0.929 . S
C852 C846 1.390 . S
C852 C849 1.386 . S
C853 C848 1.490 . S
C853 C855 1.395 . S
C853 C856 1.403 . S
H854 C860 0.930 . S
C855 H841 0.930 . S
C855 C853 1.395 . S
C855 C858 1.403 . S
C856 C853 1.403 . S
C856 C857 1.524 . S
C856 C860 1.400 . S
C857 H842 0.960 . S
C857 H843 0.960 . S
C857 H844 0.960 . S
C857 C856 1.524 . S
C858 C855 1.403 . S
C858 C859 1.392 . S
C858 C862 1.495 . S
C859 C858 1.392 . S
C859 C860 1.385 . S
C859 C861 1.478 . S
C860 H854 0.930 . S
C860 C856 1.400 . S
C860 C859 1.385 . S
C861 C859 1.478 . S
C861 C863 1.381 . S
C861 C867 1.383 . S
C862 C858 1.495 . S
C862 H868 0.959 . S
C862 H869 0.961 . S
C862 H870 0.960 . S
C863 C861 1.381 . S
C863 C864 1.394 . S
C863 H871 0.930 1_554 S
C864 C863 1.394 . S
C864 C865 1.383 . S
C864 H872 0.929 1_554 S
C865 C864 1.383 . S
C865 C866 1.377 . S
C866 H850 0.930 . S
C866 C865 1.377 . S
C866 C867 1.379 . S
C867 H851 0.931 . S
C867 C861 1.383 . S
C867 C866 1.379 . S
H868 C862 0.959 . S
H869 C862 0.961 . S
H870 C862 0.960 . S
H871 C863 0.930 1_556 S
H872 C864 0.929 1_556 S
H873 C881 0.929 . S
H874 C883 0.930 . S
H875 C885 0.930 . S
H876 C888 0.929 . S
H877 C891 0.930 . S
H878 C893 0.960 . S
H879 C893 0.960 . S
H880 C893 0.960 . S
C881 H873 0.929 . S
C881 C882 1.377 . S
C881 C883 1.384 . S
C882 C881 1.377 . S
C882 C888 1.390 . S
C883 H874 0.930 . S
C883 C881 1.384 . S
C883 C884 1.372 . S
C884 C883 1.372 . S
C884 C885 1.400 . S
C884 C889 1.490 . S
C885 H875 0.930 . S
C885 C884 1.400 . S
C885 C888 1.386 . S
H886 C902 0.930 . S
H887 C903 0.931 . S
C888 H876 0.929 . S
C888 C882 1.390 . S
C888 C885 1.386 . S
C889 C884 1.490 . S
C889 C891 1.395 . S
C889 C892 1.403 . S
H890 C896 0.930 . S
C891 H877 0.930 . S
C891 C889 1.395 . S
C891 C894 1.403 . S
C892 C889 1.403 . S
C892 C893 1.524 . S
C892 C896 1.400 . S
C893 H878 0.960 . S
C893 H879 0.960 . S
C893 H880 0.960 . S
C893 C892 1.524 . S
C894 C891 1.403 . S
C894 C895 1.392 . S
C894 C898 1.495 1_554 S
C895 C894 1.392 . S
C895 C896 1.385 . S
C895 C897 1.478 . S
C896 H890 0.930 . S
C896 C892 1.400 . S
C896 C895 1.385 . S
C897 C895 1.478 . S
C897 C899 1.381 . S
C897 C903 1.383 . S
C898 C894 1.495 1_556 S
C898 H904 0.959 . S
C898 H905 0.961 . S
C898 H906 0.960 . S
C899 C897 1.381 . S
C899 C900 1.394 . S
C899 H907 0.930 . S
C900 C899 1.394 . S
C900 C901 1.383 . S
C900 H908 0.929 . S
C901 C900 1.383 . S
C901 C902 1.377 . S
C902 H886 0.930 . S
C902 C901 1.377 . S
C902 C903 1.379 . S
C903 H887 0.931 . S
C903 C897 1.383 . S
C903 C902 1.379 . S
H904 C898 0.959 . S
H905 C898 0.961 . S
H906 C898 0.960 . S
H907 C899 0.930 . S
H908 C900 0.929 . S
H909 C917 0.929 . S
H910 C919 0.930 . S
H911 C921 0.930 . S
H912 C924 0.929 . S
H913 C927 0.930 . S
H914 C929 0.960 . S
H915 C929 0.960 . S
H916 C929 0.960 . S
C917 H909 0.929 . S
C917 C918 1.377 . S
C917 C919 1.384 . S
C918 C917 1.377 . S
C918 C924 1.390 . S
C919 H910 0.930 . S
C919 C917 1.384 . S
C919 C920 1.372 . S
C920 C919 1.372 . S
C920 C921 1.400 . S
C920 C925 1.490 . S
C921 H911 0.930 . S
C921 C920 1.400 . S
C921 C924 1.386 . S
H922 C938 0.930 1_556 S
H923 C939 0.931 1_556 S
C924 H912 0.929 . S
C924 C918 1.390 . S
C924 C921 1.386 . S
C925 C920 1.490 . S
C925 C927 1.395 . S
C925 C928 1.403 . S
H926 C932 0.930 . S
C927 H913 0.930 . S
C927 C925 1.395 . S
C927 C930 1.403 . S
C928 C925 1.403 . S
C928 C929 1.524 . S
C928 C932 1.400 . S
C929 H914 0.960 . S
C929 H915 0.960 . S
C929 H916 0.960 . S
C929 C928 1.524 . S
C930 C927 1.403 . S
C930 C931 1.392 . S
C930 C934 1.495 . S
C931 C930 1.392 . S
C931 C932 1.385 . S
C931 C933 1.478 . S
C932 H926 0.930 . S
C932 C928 1.400 . S
C932 C931 1.385 . S
C933 C931 1.478 . S
C933 C935 1.381 . S
C933 C939 1.383 . S
C934 C930 1.495 . S
C934 H940 0.959 . S
C934 H941 0.961 . S
C934 H942 0.960 . S
C935 C933 1.381 . S
C935 C936 1.394 . S
C935 H943 0.930 . S
C936 C935 1.394 . S
C936 C937 1.383 . S
C936 H944 0.929 . S
C937 C936 1.383 . S
C937 C938 1.377 . S
C938 H922 0.930 1_554 S
C938 C937 1.377 . S
C938 C939 1.379 . S
C939 H923 0.931 1_554 S
C939 C933 1.383 . S
C939 C938 1.379 . S
H940 C934 0.959 . S
H941 C934 0.961 . S
H942 C934 0.960 . S
H943 C935 0.930 . S
H944 C936 0.929 . S
H945 C953 0.929 . S
H946 C955 0.930 . S
H947 C957 0.930 . S
H948 C960 0.929 . S
H949 C963 0.930 . S
H950 C965 0.960 . S
H951 C965 0.960 . S
H952 C965 0.960 . S
C953 H945 0.929 . S
C953 C954 1.377 . S
C953 C955 1.384 . S
C954 C953 1.377 . S
C954 C960 1.390 . S
C955 H946 0.930 . S
C955 C953 1.384 . S
C955 C956 1.372 . S
C956 C955 1.372 . S
C956 C957 1.400 . S
C956 C961 1.490 . S
C957 H947 0.930 . S
C957 C956 1.400 . S
C957 C960 1.386 . S
H958 C974 0.930 . S
H959 C975 0.931 . S
C960 H948 0.929 . S
C960 C954 1.390 . S
C960 C957 1.386 . S
C961 C956 1.490 . S
C961 C963 1.395 . S
C961 C964 1.403 . S
H962 C968 0.930 . S
C963 H949 0.930 . S
C963 C961 1.395 . S
C963 C966 1.403 . S
C964 C961 1.403 . S
C964 C965 1.524 . S
C964 C968 1.400 . S
C965 H950 0.960 . S
C965 H951 0.960 . S
C965 H952 0.960 . S
C965 C964 1.524 . S
C966 C963 1.403 . S
C966 C967 1.392 . S
C966 C970 1.495 . S
C967 C966 1.392 . S
C967 C968 1.385 . S
C967 C969 1.478 . S
C968 H962 0.930 . S
C968 C964 1.400 . S
C968 C967 1.385 . S
C969 C967 1.478 . S
C969 C971 1.381 . S
C969 C975 1.383 1_556 S
C970 C966 1.495 . S
C970 H976 0.959 . S
C970 H977 0.961 . S
C970 H978 0.960 . S
C971 C969 1.381 . S
C971 C972 1.394 . S
C971 H979 0.930 . S
C972 C971 1.394 . S
C972 C973 1.383 . S
C972 H980 0.929 . S
C973 C972 1.383 . S
C973 C974 1.377 1_556 S
C974 H958 0.930 . S
C974 C973 1.377 1_554 S
C974 C975 1.379 . S
C975 H959 0.931 . S
C975 C969 1.383 1_554 S
C975 C974 1.379 . S
H976 C970 0.959 . S
H977 C970 0.961 . S
H978 C970 0.960 . S
H979 C971 0.930 . S
H980 C972 0.929 . S
H981 C989 0.929 . S
H982 C991 0.930 . S
H983 C993 0.930 . S
H984 C996 0.929 . S
H985 C999 0.930 . S
H986 C1001 0.960 . S
H987 C1001 0.960 . S
H988 C1001 0.960 . S
C989 H981 0.929 . S
C989 C990 1.377 . S
C989 C991 1.384 . S
C990 C989 1.377 . S
C990 C996 1.390 . S
C991 H982 0.930 . S
C991 C989 1.384 . S
C991 C992 1.372 . S
C992 C991 1.372 . S
C992 C993 1.400 . S
C992 C997 1.490 . S
C993 H983 0.930 . S
C993 C992 1.400 . S
C993 C996 1.386 . S
H994 C1010 0.927 . S
H995 C1011 0.931 1_554 S
C996 H984 0.929 . S
C996 C990 1.390 . S
C996 C993 1.386 . S
C997 C992 1.490 . S
C997 C999 1.395 . S
C997 C1000 1.403 . S
H998 C1004 0.930 . S
C999 H985 0.930 . S
C999 C997 1.395 . S
C999 C1002 1.403 . S
C1000 C997 1.403 . S
C1000 C1001 1.524 . S
C1000 C1004 1.400 . S
C1001 H986 0.960 . S
C1001 H987 0.960 . S
C1001 H988 0.960 . S
C1001 C1000 1.524 . S
C1002 C999 1.403 . S
C1002 C1003 1.392 . S
C1002 C1006 1.495 1_556 S
C1003 C1002 1.392 . S
C1003 C1004 1.385 . S
C1003 C1005 1.478 . S
C1004 H998 0.930 . S
C1004 C1000 1.400 . S
C1004 C1003 1.385 . S
C1005 C1003 1.478 . S
C1005 C1007 1.381 . S
C1005 C1011 1.383 . S
C1006 C1002 1.495 1_554 S
C1006 H1012 0.959 . S
C1006 H1013 0.961 . S
C1006 H1014 0.960 . S
C1007 C1005 1.381 . S
C1007 C1008 1.394 . S
C1007 H1015 0.930 . S
C1008 C1007 1.394 . S
C1008 C1009 1.383 . S
C1008 H1016 0.929 . S
C1009 C1008 1.383 . S
C1009 C1010 1.379 1_556 S
C1010 H994 0.927 . S
C1010 C1009 1.379 1_554 S
C1010 C1011 1.380 1_554 S
C1011 H995 0.931 1_556 S
C1011 C1005 1.383 . S
C1011 C1010 1.380 1_556 S
H1012 C1006 0.959 . S
H1013 C1006 0.961 . S
H1014 C1006 0.960 . S
H1015 C1007 0.930 . S
H1016 C1008 0.929 . S
H1017 C1025 0.929 . S
H1018 C1027 0.930 1_554 S
H1019 C1029 0.930 . S
H1020 C1032 0.929 . S
H1021 C1035 0.930 1_554 S
H1022 C1037 0.960 . S
H1023 C1037 0.960 . S
H1024 C1037 0.960 . S
C1025 H1017 0.929 . S
C1025 C1026 1.377 . S
C1025 C1027 1.384 . S
C1026 C1025 1.377 . S
C1026 C1032 1.390 . S
C1027 H1018 0.930 1_556 S
C1027 C1025 1.384 . S
C1027 C1028 1.372 . S
C1028 C1027 1.372 . S
C1028 C1029 1.400 . S
C1028 C1033 1.490 . S
C1029 H1019 0.930 . S
C1029 C1028 1.400 . S
C1029 C1032 1.386 . S
H1030 C1046 0.930 . S
H1031 C1047 0.931 . S
C1032 H1020 0.929 . S
C1032 C1026 1.390 . S
C1032 C1029 1.386 . S
C1033 C1028 1.490 . S
C1033 C1035 1.395 . S
C1033 C1036 1.403 . S
H1034 C1040 0.930 . S
C1035 H1021 0.930 1_556 S
C1035 C1033 1.395 . S
C1035 C1038 1.403 . S
C1036 C1033 1.403 . S
C1036 C1037 1.524 . S
C1036 C1040 1.400 . S
C1037 H1022 0.960 . S
C1037 H1023 0.960 . S
C1037 H1024 0.960 . S
C1037 C1036 1.524 . S
C1038 C1035 1.403 . S
C1038 C1039 1.392 . S
C1038 C1042 1.495 1_556 S
C1039 C1038 1.392 . S
C1039 C1040 1.385 . S
C1039 C1041 1.478 . S
C1040 H1034 0.930 . S
C1040 C1036 1.400 . S
C1040 C1039 1.385 . S
C1041 C1039 1.478 . S
C1041 C1043 1.381 1_556 S
C1041 C1047 1.383 . S
C1042 C1038 1.495 1_554 S
C1042 H1048 0.959 . S
C1042 H1049 0.961 . S
C1042 H1050 0.960 . S
C1043 C1041 1.381 1_554 S
C1043 C1044 1.394 . S
C1043 H1051 0.930 . S
C1044 C1043 1.394 . S
C1044 C1045 1.383 1_554 S
C1044 H1052 0.929 . S
C1045 C1044 1.383 1_556 S
C1045 C1046 1.377 . S
C1046 H1030 0.930 . S
C1046 C1045 1.377 . S
C1046 C1047 1.379 . S
C1047 H1031 0.931 . S
C1047 C1041 1.383 . S
C1047 C1046 1.379 . S
H1048 C1042 0.959 . S
H1049 C1042 0.961 . S
H1050 C1042 0.960 . S
H1051 C1043 0.930 . S
H1052 C1044 0.929 . S
H1053 C1061 0.929 . S
H1054 C1063 0.930 . S
H1055 C1065 0.930 . S
H1056 C1068 0.929 . S
H1057 C1071 0.930 . S
H1058 C1073 0.960 . S
H1059 C1073 0.960 . S
H1060 C1073 0.960 . S
C1061 H1053 0.929 . S
C1061 C1062 1.377 . S
C1061 C1063 1.384 . S
C1062 C1061 1.377 . S
C1062 C1068 1.390 . S
C1063 H1054 0.930 . S
C1063 C1061 1.384 . S
C1063 C1064 1.372 . S
C1064 C1063 1.372 . S
C1064 C1065 1.400 . S
C1064 C1069 1.490 . S
C1065 H1055 0.930 . S
C1065 C1064 1.400 . S
C1065 C1068 1.386 . S
H1066 C1082 0.930 . S
H1067 C1083 0.931 . S
C1068 H1056 0.929 . S
C1068 C1062 1.390 . S
C1068 C1065 1.386 . S
C1069 C1064 1.490 . S
C1069 C1071 1.395 . S
C1069 C1072 1.403 . S
H1070 C1076 0.930 . S
C1071 H1057 0.930 . S
C1071 C1069 1.395 . S
C1071 C1074 1.403 . S
C1072 C1069 1.403 . S
C1072 C1073 1.524 . S
C1072 C1076 1.400 . S
C1073 H1058 0.960 . S
C1073 H1059 0.960 . S
C1073 H1060 0.960 . S
C1073 C1072 1.524 . S
C1074 C1071 1.403 . S
C1074 C1075 1.392 . S
C1074 C1078 1.495 . S
C1075 C1074 1.392 . S
C1075 C1076 1.385 . S
C1075 C1077 1.478 . S
C1076 H1070 0.930 . S
C1076 C1072 1.400 . S
C1076 C1075 1.385 . S
C1077 C1075 1.478 . S
C1077 C1079 1.381 . S
C1077 C1083 1.383 1_556 S
C1078 C1074 1.495 . S
C1078 H1084 0.959 . S
C1078 H1085 0.961 . S
C1078 H1086 0.960 . S
C1079 C1077 1.381 . S
C1079 C1080 1.394 . S
C1079 H1087 0.930 . S
C1080 C1079 1.394 . S
C1080 C1081 1.383 . S
C1080 H1088 0.929 . S
C1081 C1080 1.383 . S
C1081 C1082 1.377 1_556 S
C1082 H1066 0.930 . S
C1082 C1081 1.377 1_554 S
C1082 C1083 1.379 . S
C1083 H1067 0.931 . S
C1083 C1077 1.383 1_554 S
C1083 C1082 1.379 . S
H1084 C1078 0.959 . S
H1085 C1078 0.961 . S
H1086 C1078 0.960 . S
H1087 C1079 0.930 . S
H1088 C1080 0.929 . S
H1089 C1097 0.929 . S
H1090 C1099 0.930 1_554 S
H1091 C1101 0.930 . S
H1092 C1104 0.929 . S
H1093 C1107 0.925 1_554 S
H1094 C1109 0.960 . S
H1095 C1109 0.960 . S
H1096 C1109 0.960 . S
C1097 H1089 0.929 . S
C1097 C1098 1.377 . S
C1097 C1099 1.384 . S
C1098 C1097 1.377 . S
C1098 C1104 1.390 . S
C1099 H1090 0.930 1_556 S
C1099 C1097 1.384 . S
C1099 C1100 1.372 . S
C1100 C1099 1.372 . S
C1100 C1101 1.400 . S
C1100 C1105 1.490 . S
C1101 H1091 0.930 . S
C1101 C1100 1.400 . S
C1101 C1104 1.386 . S
H1102 C1118 0.930 . S
H1103 C1119 0.931 . S
C1104 H1092 0.929 . S
C1104 C1098 1.390 . S
C1104 C1101 1.386 . S
C1105 C1100 1.490 . S
C1105 C1107 1.395 . S
C1105 C1108 1.403 . S
H1106 C1112 0.930 . S
C1107 H1093 0.925 1_556 S
C1107 C1105 1.395 . S
C1107 C1110 1.403 . S
C1108 C1105 1.403 . S
C1108 C1109 1.524 . S
C1108 C1112 1.400 . S
C1109 H1094 0.960 . S
C1109 H1095 0.960 . S
C1109 H1096 0.960 . S
C1109 C1108 1.524 . S
C1110 C1107 1.403 . S
C1110 C1111 1.392 . S
C1110 C1114 1.495 1_556 S
C1111 C1110 1.392 . S
C1111 C1112 1.385 . S
C1111 C1113 1.478 . S
C1112 H1106 0.930 . S
C1112 C1108 1.400 . S
C1112 C1111 1.385 . S
C1113 C1111 1.478 . S
C1113 C1115 1.381 1_556 S
C1113 C1119 1.383 . S
C1114 C1110 1.495 1_554 S
C1114 H1120 0.959 . S
C1114 H1121 0.961 . S
C1114 H1122 0.960 . S
C1115 C1113 1.381 1_554 S
C1115 C1116 1.394 . S
C1115 H1123 0.930 . S
C1116 C1115 1.394 . S
C1116 C1117 1.383 1_554 S
C1116 H1124 0.929 . S
C1117 C1116 1.383 1_556 S
C1117 C1118 1.377 . S
C1118 H1102 0.930 . S
C1118 C1117 1.377 . S
C1118 C1119 1.379 . S
C1119 H1103 0.931 . S
C1119 C1113 1.383 . S
C1119 C1118 1.379 . S
H1120 C1114 0.959 . S
H1121 C1114 0.961 . S
H1122 C1114 0.960 . S
H1123 C1115 0.930 . S
H1124 C1116 0.929 . S
H1125 C1133 0.929 . S
H1126 C1135 0.930 . S
H1127 C1137 0.930 . S
H1128 C1140 0.929 . S
H1129 C1143 0.930 . S
H1130 C1145 0.960 . S
H1131 C1145 0.960 . S
H1132 C1145 0.960 . S
C1133 H1125 0.929 . S
C1133 C1134 1.377 . S
C1133 C1135 1.384 . S
C1134 C1133 1.377 . S
C1134 C1140 1.390 . S
C1135 H1126 0.930 . S
C1135 C1133 1.384 . S
C1135 C1136 1.372 . S
C1136 C1135 1.372 . S
C1136 C1137 1.400 . S
C1136 C1141 1.490 . S
C1137 H1127 0.930 . S
C1137 C1136 1.400 . S
C1137 C1140 1.386 . S
H1138 C1154 0.930 . S
H1139 C1155 0.931 . S
C1140 H1128 0.929 . S
C1140 C1134 1.390 . S
C1140 C1137 1.386 . S
C1141 C1136 1.490 . S
C1141 C1143 1.395 . S
C1141 C1144 1.403 . S
H1142 C1148 0.930 . S
C1143 H1129 0.930 . S
C1143 C1141 1.395 . S
C1143 C1146 1.403 . S
C1144 C1141 1.403 . S
C1144 C1145 1.524 . S
C1144 C1148 1.400 . S
C1145 H1130 0.960 . S
C1145 H1131 0.960 . S
C1145 H1132 0.960 . S
C1145 C1144 1.524 . S
C1146 C1143 1.403 . S
C1146 C1147 1.392 . S
C1146 C1150 1.499 . S
C1147 C1146 1.392 . S
C1147 C1148 1.385 . S
C1147 C1149 1.478 . S
C1148 H1142 0.930 . S
C1148 C1144 1.400 . S
C1148 C1147 1.385 . S
C1149 C1147 1.478 . S
C1149 C1151 1.381 . S
C1149 C1155 1.383 1_556 S
C1150 C1146 1.499 . S
C1150 H1156 0.955 1_556 S
C1150 H1157 0.953 1_556 S
C1150 H1158 0.965 . S
C1151 C1149 1.381 . S
C1151 C1152 1.394 . S
C1151 H1159 0.930 . S
C1152 C1151 1.394 . S
C1152 C1153 1.383 . S
C1152 H1160 0.929 . S
C1153 C1152 1.383 . S
C1153 C1154 1.377 1_556 S
C1154 H1138 0.930 . S
C1154 C1153 1.377 1_554 S
C1154 C1155 1.379 . S
C1155 H1139 0.931 . S
C1155 C1149 1.383 1_554 S
C1155 C1154 1.379 . S
H1156 C1150 0.955 1_554 S
H1157 C1150 0.953 1_554 S
H1158 C1150 0.965 . S
H1159 C1151 0.930 . S
H1160 C1152 0.929 . S
H1161 C1169 0.929 . S
H1162 C1171 0.930 . S
H1163 C1173 0.930 . S
H1164 C1176 0.929 . S
H1165 C1179 0.930 . S
H1166 C1181 0.960 . S
H1167 C1181 0.960 . S
H1168 C1181 0.960 . S
C1169 H1161 0.929 . S
C1169 C1170 1.377 . S
C1169 C1171 1.384 . S
C1170 C1169 1.377 . S
C1170 C1176 1.390 . S
C1171 H1162 0.930 . S
C1171 C1169 1.384 . S
C1171 C1172 1.372 . S
C1172 C1171 1.372 . S
C1172 C1173 1.400 . S
C1172 C1177 1.490 . S
C1173 H1163 0.930 . S
C1173 C1172 1.400 . S
C1173 C1176 1.386 . S
H1174 C1190 0.930 . S
H1175 C1191 0.931 . S
C1176 H1164 0.929 . S
C1176 C1170 1.390 . S
C1176 C1173 1.386 . S
C1177 C1172 1.490 . S
C1177 C1179 1.395 . S
C1177 C1180 1.403 . S
H1178 C1184 0.930 . S
C1179 H1165 0.930 . S
C1179 C1177 1.395 . S
C1179 C1182 1.403 . S
C1180 C1177 1.403 . S
C1180 C1181 1.524 . S
C1180 C1184 1.400 . S
C1181 H1166 0.960 . S
C1181 H1167 0.960 . S
C1181 H1168 0.960 . S
C1181 C1180 1.524 . S
C1182 C1179 1.403 . S
C1182 C1183 1.392 . S
C1182 C1186 1.495 . S
C1183 C1182 1.392 . S
C1183 C1184 1.385 . S
C1183 C1185 1.478 . S
C1184 H1178 0.930 . S
C1184 C1180 1.400 . S
C1184 C1183 1.385 . S
C1185 C1183 1.478 . S
C1185 C1187 1.381 . S
C1185 C1191 1.383 . S
C1186 C1182 1.495 . S
C1186 H1192 0.959 . S
C1186 H1193 0.961 . S
C1186 H1194 0.960 . S
C1187 C1185 1.381 . S
C1187 C1188 1.394 . S
C1187 H1195 0.930 . S
C1188 C1187 1.394 . S
C1188 C1189 1.383 . S
C1188 H1196 0.929 1_554 S
C1189 C1188 1.383 . S
C1189 C1190 1.377 . S
C1190 H1174 0.930 . S
C1190 C1189 1.377 . S
C1190 C1191 1.379 . S
C1191 H1175 0.931 . S
C1191 C1185 1.383 . S
C1191 C1190 1.379 . S
H1192 C1186 0.959 . S
H1193 C1186 0.961 . S
H1194 C1186 0.960 . S
H1195 C1187 0.930 . S
H1196 C1188 0.929 1_556 S
H1197 C1205 0.929 . S
H1198 C1207 0.930 . S
H1199 C1209 0.930 . S
H1200 C1212 0.929 . S
H1201 C1215 0.930 . S
H1202 C1217 0.960 . S
H1203 C1217 0.960 . S
H1204 C1217 0.960 . S
C1205 H1197 0.929 . S
C1205 C1206 1.377 . S
C1205 C1207 1.384 . S
C1206 C1205 1.377 . S
C1206 C1212 1.390 . S
C1207 H1198 0.930 . S
C1207 C1205 1.384 . S
C1207 C1208 1.372 . S
C1208 C1207 1.372 . S
C1208 C1209 1.400 . S
C1208 C1213 1.490 . S
C1209 H1199 0.930 . S
C1209 C1208 1.400 . S
C1209 C1212 1.386 . S
H1210 C1226 0.930 . S
H1211 C1227 0.931 . S
C1212 H1200 0.929 . S
C1212 C1206 1.390 . S
C1212 C1209 1.386 . S
C1213 C1208 1.490 . S
C1213 C1215 1.395 . S
C1213 C1216 1.403 . S
H1214 C1220 0.930 . S
C1215 H1201 0.930 . S
C1215 C1213 1.395 . S
C1215 C1218 1.403 . S
C1216 C1213 1.403 . S
C1216 C1217 1.524 . S
C1216 C1220 1.400 . S
C1217 H1202 0.960 . S
C1217 H1203 0.960 . S
C1217 H1204 0.960 . S
C1217 C1216 1.524 . S
C1218 C1215 1.403 . S
C1218 C1219 1.392 . S
C1218 C1222 1.495 1_554 S
C1219 C1218 1.392 . S
C1219 C1220 1.385 . S
C1219 C1221 1.478 . S
C1220 H1214 0.930 . S
C1220 C1216 1.400 . S
C1220 C1219 1.385 . S
C1221 C1219 1.478 . S
C1221 C1223 1.381 . S
C1221 C1227 1.383 . S
C1222 C1218 1.495 1_556 S
C1222 H1228 0.959 . S
C1222 H1229 0.961 . S
C1222 H1230 0.960 . S
C1223 C1221 1.381 . S
C1223 C1224 1.394 . S
C1223 H1231 0.930 . S
C1224 C1223 1.394 . S
C1224 C1225 1.383 . S
C1224 H1232 0.929 . S
C1225 C1224 1.383 . S
C1225 C1226 1.377 . S
C1226 H1210 0.930 . S
C1226 C1225 1.377 . S
C1226 C1227 1.379 . S
C1227 H1211 0.931 . S
C1227 C1221 1.383 . S
C1227 C1226 1.379 . S
H1228 C1222 0.959 . S
H1229 C1222 0.961 . S
H1230 C1222 0.960 . S
H1231 C1223 0.930 . S
H1232 C1224 0.929 . S
H1233 C1241 0.929 . S
H1234 C1243 0.930 . S
H1235 C1245 0.930 . S
H1236 C1248 0.929 . S
H1237 C1251 0.930 . S
H1238 C1253 0.960 . S
H1239 C1253 0.960 . S
H1240 C1253 0.960 . S
C1241 H1233 0.929 . S
C1241 C1242 1.377 . S
C1241 C1243 1.384 . S
C1242 C1241 1.377 . S
C1242 C1248 1.390 . S
C1243 H1234 0.930 . S
C1243 C1241 1.384 . S
C1243 C1244 1.372 . S
C1244 C1243 1.372 . S
C1244 C1245 1.400 . S
C1244 C1249 1.490 . S
C1245 H1235 0.930 . S
C1245 C1244 1.400 . S
C1245 C1248 1.386 . S
H1246 C1262 0.932 . S
H1247 C1263 0.931 1_556 S
C1248 H1236 0.929 . S
C1248 C1242 1.390 . S
C1248 C1245 1.386 . S
C1249 C1244 1.490 . S
C1249 C1251 1.395 . S
C1249 C1252 1.403 . S
H1250 C1256 0.930 . S
C1251 H1237 0.930 . S
C1251 C1249 1.395 . S
C1251 C1254 1.403 . S
C1252 C1249 1.403 . S
C1252 C1253 1.524 . S
C1252 C1256 1.400 . S
C1253 H1238 0.960 . S
C1253 H1239 0.960 . S
C1253 H1240 0.960 . S
C1253 C1252 1.524 . S
C1254 C1251 1.403 . S
C1254 C1255 1.392 . S
C1254 C1258 1.495 . S
C1255 C1254 1.392 . S
C1255 C1256 1.385 . S
C1255 C1257 1.478 . S
C1256 H1250 0.930 . S
C1256 C1252 1.400 . S
C1256 C1255 1.385 . S
C1257 C1255 1.478 . S
C1257 C1259 1.381 . S
C1257 C1263 1.383 . S
C1258 C1254 1.495 . S
C1258 H1264 0.959 . S
C1258 H1265 0.961 . S
C1258 H1266 0.960 . S
C1259 C1257 1.381 . S
C1259 C1260 1.394 . S
C1259 H1267 0.930 . S
C1260 C1259 1.394 . S
C1260 C1261 1.383 . S
C1260 H1268 0.929 . S
C1261 C1260 1.383 . S
C1261 C1262 1.375 1_554 S
C1262 H1246 0.932 . S
C1262 C1261 1.375 1_556 S
C1262 C1263 1.379 1_556 S
C1263 H1247 0.931 1_554 S
C1263 C1257 1.383 . S
C1263 C1262 1.379 1_554 S
H1264 C1258 0.959 . S
H1265 C1258 0.961 . S
H1266 C1258 0.960 . S
H1267 C1259 0.930 . S
H1268 C1260 0.929 . S
H1269 C1277 0.929 . S
H1270 C1279 0.930 . S
H1271 C1281 0.971 . S
H1272 C1284 0.929 . S
H1273 C1287 0.930 . S
H1274 C1289 0.960 . S
H1275 C1289 0.960 . S
H1276 C1289 0.960 . S
C1277 H1269 0.929 . S
C1277 C1278 1.377 . S
C1277 C1279 1.384 . S
C1278 C1277 1.377 . S
C1278 C1284 1.390 . S
C1279 H1270 0.930 . S
C1279 C1277 1.384 . S
C1279 C1280 1.372 . S
C1280 C1279 1.372 . S
C1280 C1281 1.400 . S
C1280 C1285 1.490 1_655 S
C1281 H1271 0.971 . S
C1281 C1280 1.400 . S
C1281 C1284 1.386 . S
H1282 C1298 0.930 . S
H1283 C1299 0.931 . S
C1284 H1272 0.929 . S
C1284 C1278 1.390 . S
C1284 C1281 1.386 . S
C1285 C1280 1.490 1_455 S
C1285 C1287 1.395 . S
C1285 C1288 1.403 . S
H1286 C1292 0.930 . S
C1287 H1273 0.930 . S
C1287 C1285 1.395 . S
C1287 C1290 1.403 . S
C1288 C1285 1.403 . S
C1288 C1289 1.524 . S
C1288 C1292 1.400 . S
C1289 H1274 0.960 . S
C1289 H1275 0.960 . S
C1289 H1276 0.960 . S
C1289 C1288 1.524 . S
C1290 C1287 1.403 . S
C1290 C1291 1.392 . S
C1290 C1294 1.495 . S
C1291 C1290 1.392 . S
C1291 C1292 1.385 . S
C1291 C1293 1.478 . S
C1292 H1286 0.930 . S
C1292 C1288 1.400 . S
C1292 C1291 1.385 . S
C1293 C1291 1.478 . S
C1293 C1295 1.381 . S
C1293 C1299 1.383 . S
C1294 C1290 1.495 . S
C1294 H1300 0.959 . S
C1294 H1301 0.961 . S
C1294 H1302 0.960 . S
C1295 C1293 1.381 . S
C1295 C1296 1.394 . S
C1295 H1303 0.930 . S
C1296 C1295 1.394 . S
C1296 C1297 1.383 . S
C1296 H1304 0.929 . S
C1297 C1296 1.383 . S
C1297 C1298 1.377 . S
C1298 H1282 0.930 . S
C1298 C1297 1.377 . S
C1298 C1299 1.379 . S
C1299 H1283 0.931 . S
C1299 C1293 1.383 . S
C1299 C1298 1.379 . S
H1300 C1294 0.959 . S
H1301 C1294 0.961 . S
H1302 C1294 0.960 . S
H1303 C1295 0.930 . S
H1304 C1296 0.929 . S
H1305 C1313 0.929 . S
H1306 C1315 0.930 . S
H1307 C1317 0.930 . S
H1308 C1320 0.929 . S
H1309 C1323 0.930 . S
H1310 C1325 0.960 . S
H1311 C1325 0.960 . S
H1312 C1325 0.960 . S
C1313 H1305 0.929 . S
C1313 C1314 1.377 . S
C1313 C1315 1.384 . S
C1314 C1313 1.377 . S
C1314 C1320 1.390 . S
C1315 H1306 0.930 . S
C1315 C1313 1.384 . S
C1315 C1316 1.372 . S
C1316 C1315 1.372 . S
C1316 C1317 1.400 . S
C1316 C1321 1.490 . S
C1317 H1307 0.930 . S
C1317 C1316 1.400 . S
C1317 C1320 1.386 . S
H1318 C1334 0.930 . S
H1319 C1335 0.931 . S
C1320 H1308 0.929 . S
C1320 C1314 1.390 . S
C1320 C1317 1.386 . S
C1321 C1316 1.490 . S
C1321 C1323 1.395 . S
C1321 C1324 1.403 . S
H1322 C1328 0.930 . S
C1323 H1309 0.930 . S
C1323 C1321 1.395 . S
C1323 C1326 1.403 . S
C1324 C1321 1.403 . S
C1324 C1325 1.524 . S
C1324 C1328 1.400 . S
C1325 H1310 0.960 . S
C1325 H1311 0.960 . S
C1325 H1312 0.960 . S
C1325 C1324 1.524 . S
C1326 C1323 1.403 . S
C1326 C1327 1.392 . S
C1326 C1330 1.495 . S
C1327 C1326 1.392 . S
C1327 C1328 1.385 . S
C1327 C1329 1.478 . S
C1328 H1322 0.930 . S
C1328 C1324 1.400 . S
C1328 C1327 1.385 . S
C1329 C1327 1.478 . S
C1329 C1331 1.381 . S
C1329 C1335 1.383 . S
C1330 C1326 1.495 . S
C1330 H1336 0.959 . S
C1330 H1337 0.961 . S
C1330 H1338 0.960 . S
C1331 C1329 1.381 . S
C1331 C1332 1.394 . S
C1331 H1339 0.930 . S
C1332 C1331 1.394 . S
C1332 C1333 1.383 . S
C1332 H1340 0.929 . S
C1333 C1332 1.383 . S
C1333 C1334 1.377 . S
C1334 H1318 0.930 . S
C1334 C1333 1.377 . S
C1334 C1335 1.379 . S
C1335 H1319 0.931 . S
C1335 C1329 1.383 . S
C1335 C1334 1.379 . S
H1336 C1330 0.959 . S
H1337 C1330 0.961 . S
H1338 C1330 0.960 . S
H1339 C1331 0.930 . S
H1340 C1332 0.929 . S
H1341 C1349 0.929 . S
H1342 C1351 0.930 . S
H1343 C1353 0.930 . S
H1344 C1356 0.929 . S
H1345 C1359 0.930 . S
H1346 C1361 0.960 . S
H1347 C1361 0.949 1_545 S
H1348 C1361 0.960 . S
C1349 H1341 0.929 . S
C1349 C1350 1.377 . S
C1349 C1351 1.384 . S
C1350 C1349 1.377 . S
C1350 C1356 1.390 . S
C1351 H1342 0.930 . S
C1351 C1349 1.384 . S
C1351 C1352 1.372 . S
C1352 C1351 1.372 . S
C1352 C1353 1.400 . S
C1352 C1357 1.490 1_545 S
C1353 H1343 0.930 . S
C1353 C1352 1.400 . S
C1353 C1356 1.386 . S
H1354 C1370 0.930 . S
H1355 C1371 0.931 . S
C1356 H1344 0.929 . S
C1356 C1350 1.390 . S
C1356 C1353 1.386 . S
C1357 C1352 1.490 1_565 S
C1357 C1359 1.395 . S
C1357 C1360 1.403 . S
H1358 C1364 0.930 . S
C1359 H1345 0.930 . S
C1359 C1357 1.395 . S
C1359 C1362 1.403 . S
C1360 C1357 1.403 . S
C1360 C1361 1.524 . S
C1360 C1364 1.400 . S
C1361 H1346 0.960 . S
C1361 H1347 0.949 1_565 S
C1361 H1348 0.960 . S
C1361 C1360 1.524 . S
C1362 C1359 1.403 . S
C1362 C1363 1.392 . S
C1362 C1366 1.495 . S
C1363 C1362 1.392 . S
C1363 C1364 1.385 . S
C1363 C1365 1.478 . S
C1364 H1358 0.930 . S
C1364 C1360 1.400 . S
C1364 C1363 1.385 . S
C1365 C1363 1.478 . S
C1365 C1367 1.381 . S
C1365 C1371 1.383 . S
C1366 C1362 1.495 . S
C1366 H1372 0.959 . S
C1366 H1373 0.961 . S
C1366 H1374 0.960 . S
C1367 C1365 1.381 . S
C1367 C1368 1.394 . S
C1367 H1375 0.930 . S
C1368 C1367 1.394 . S
C1368 C1369 1.383 . S
C1368 H1376 0.929 . S
C1369 C1368 1.383 . S
C1369 C1370 1.377 . S
C1370 H1354 0.930 . S
C1370 C1369 1.377 . S
C1370 C1371 1.379 . S
C1371 H1355 0.931 . S
C1371 C1365 1.383 . S
C1371 C1370 1.379 . S
H1372 C1366 0.959 . S
H1373 C1366 0.961 . S
H1374 C1366 0.960 . S
H1375 C1367 0.930 . S
H1376 C1368 0.929 . S
H1377 C1385 0.929 . S
H1378 C1387 0.930 . S
H1379 C1389 0.930 . S
H1380 C1392 0.929 . S
H1381 C1395 0.930 . S
H1382 C1397 0.960 . S
H1383 C1397 0.960 . S
H1384 C1397 0.960 . S
C1385 H1377 0.929 . S
C1385 C1386 1.377 . S
C1385 C1387 1.384 . S
C1386 C1385 1.377 . S
C1386 C1392 1.390 . S
C1387 H1378 0.930 . S
C1387 C1385 1.384 . S
C1387 C1388 1.372 . S
C1388 C1387 1.372 . S
C1388 C1389 1.400 . S
C1388 C1393 1.490 . S
C1389 H1379 0.930 . S
C1389 C1388 1.400 . S
C1389 C1392 1.386 . S
H1390 C1406 0.930 . S
H1391 C1407 0.931 . S
C1392 H1380 0.929 . S
C1392 C1386 1.390 . S
C1392 C1389 1.386 . S
C1393 C1388 1.490 . S
C1393 C1395 1.395 . S
C1393 C1396 1.403 . S
H1394 C1400 0.930 . S
C1395 H1381 0.930 . S
C1395 C1393 1.395 . S
C1395 C1398 1.403 . S
C1396 C1393 1.403 . S
C1396 C1397 1.524 . S
C1396 C1400 1.400 . S
C1397 H1382 0.960 . S
C1397 H1383 0.960 . S
C1397 H1384 0.960 . S
C1397 C1396 1.524 . S
C1398 C1395 1.403 . S
C1398 C1399 1.392 . S
C1398 C1402 1.495 . S
C1399 C1398 1.392 . S
C1399 C1400 1.385 . S
C1399 C1401 1.478 . S
C1400 H1394 0.930 . S
C1400 C1396 1.400 . S
C1400 C1399 1.385 . S
C1401 C1399 1.478 . S
C1401 C1403 1.381 . S
C1401 C1407 1.383 . S
C1402 C1398 1.495 . S
C1402 H1408 0.959 . S
C1402 H1409 0.961 . S
C1402 H1410 0.960 . S
C1403 C1401 1.381 . S
C1403 C1404 1.394 . S
C1403 H1411 0.930 . S
C1404 C1403 1.394 . S
C1404 C1405 1.383 . S
C1404 H1412 0.929 . S
C1405 C1404 1.383 . S
C1405 C1406 1.377 . S
C1406 H1390 0.930 . S
C1406 C1405 1.377 . S
C1406 C1407 1.379 . S
C1407 H1391 0.931 . S
C1407 C1401 1.383 . S
C1407 C1406 1.379 . S
H1408 C1402 0.959 . S
H1409 C1402 0.961 . S
H1410 C1402 0.960 . S
H1411 C1403 0.930 . S
H1412 C1404 0.929 . S
H1413 C1421 0.929 . S
H1414 C1423 0.930 . S
H1415 C1425 0.930 . S
H1416 C1428 0.929 . S
H1417 C1431 0.930 . S
H1418 C1433 0.960 . S
H1419 C1433 0.960 . S
H1420 C1433 0.960 . S
C1421 H1413 0.929 . S
C1421 C1422 1.377 . S
C1421 C1423 1.384 . S
C1422 C1421 1.377 . S
C1422 C1428 1.390 . S
C1423 H1414 0.930 . S
C1423 C1421 1.384 . S
C1423 C1424 1.372 . S
C1424 C1423 1.372 . S
C1424 C1425 1.400 . S
C1424 C1429 1.490 . S
C1425 H1415 0.930 . S
C1425 C1424 1.400 . S
C1425 C1428 1.386 . S
H1426 C1442 0.930 . S
H1427 C1443 0.931 . S
C1428 H1416 0.929 . S
C1428 C1422 1.390 . S
C1428 C1425 1.386 . S
C1429 C1424 1.490 . S
C1429 C1431 1.395 . S
C1429 C1432 1.403 . S
H1430 C1436 0.930 . S
C1431 H1417 0.930 . S
C1431 C1429 1.395 . S
C1431 C1434 1.403 . S
C1432 C1429 1.403 . S
C1432 C1433 1.524 . S
C1432 C1436 1.400 . S
C1433 H1418 0.960 . S
C1433 H1419 0.960 . S
C1433 H1420 0.960 . S
C1433 C1432 1.524 . S
C1434 C1431 1.403 . S
C1434 C1435 1.392 . S
C1434 C1438 1.495 . S
C1435 C1434 1.392 . S
C1435 C1436 1.385 . S
C1435 C1437 1.478 . S
C1436 H1430 0.930 . S
C1436 C1432 1.400 . S
C1436 C1435 1.385 . S
C1437 C1435 1.478 . S
C1437 C1439 1.381 . S
C1437 C1443 1.383 . S
C1438 C1434 1.495 . S
C1438 H1444 0.959 . S
C1438 H1445 0.961 . S
C1438 H1446 0.960 . S
C1439 C1437 1.381 . S
C1439 C1440 1.394 . S
C1439 H1447 0.930 . S
C1440 C1439 1.394 . S
C1440 C1441 1.383 . S
C1440 H1448 0.929 . S
C1441 C1440 1.383 . S
C1441 C1442 1.377 . S
C1442 H1426 0.930 . S
C1442 C1441 1.377 . S
C1442 C1443 1.379 . S
C1443 H1427 0.931 . S
C1443 C1437 1.383 . S
C1443 C1442 1.379 . S
H1444 C1438 0.959 . S
H1445 C1438 0.961 . S
H1446 C1438 0.960 . S
H1447 C1439 0.930 . S
H1448 C1440 0.929 . S
H1449 C1457 0.929 . S
H1450 C1459 0.930 . S
H1451 C1461 0.930 . S
H1452 C1464 0.929 . S
H1453 C1467 0.930 . S
H1454 C1469 0.960 . S
H1455 C1469 0.960 . S
H1456 C1469 0.960 . S
C1457 H1449 0.929 . S
C1457 C1458 1.377 . S
C1457 C1459 1.384 . S
C1458 C1457 1.377 . S
C1458 C1464 1.390 . S
C1459 H1450 0.930 . S
C1459 C1457 1.384 . S
C1459 C1460 1.372 . S
C1460 C1459 1.372 . S
C1460 C1461 1.400 . S
C1460 C1465 1.490 . S
C1461 H1451 0.930 . S
C1461 C1460 1.400 . S
C1461 C1464 1.386 . S
H1462 C1478 0.930 . S
H1463 C1479 0.931 . S
C1464 H1452 0.929 . S
C1464 C1458 1.390 . S
C1464 C1461 1.386 . S
C1465 C1460 1.490 . S
C1465 C1467 1.395 . S
C1465 C1468 1.403 . S
H1466 C1472 0.930 . S
C1467 H1453 0.930 . S
C1467 C1465 1.395 . S
C1467 C1470 1.403 . S
C1468 C1465 1.403 . S
C1468 C1469 1.524 . S
C1468 C1472 1.400 . S
C1469 H1454 0.960 . S
C1469 H1455 0.960 . S
C1469 H1456 0.960 . S
C1469 C1468 1.524 . S
C1470 C1467 1.403 . S
C1470 C1471 1.392 . S
C1470 C1474 1.495 . S
C1471 C1470 1.392 . S
C1471 C1472 1.385 . S
C1471 C1473 1.478 . S
C1472 H1466 0.930 . S
C1472 C1468 1.400 . S
C1472 C1471 1.385 . S
C1473 C1471 1.478 . S
C1473 C1475 1.381 . S
C1473 C1479 1.383 . S
C1474 C1470 1.495 . S
C1474 H1480 0.959 . S
C1474 H1481 0.961 . S
C1474 H1482 0.960 . S
C1475 C1473 1.381 . S
C1475 C1476 1.394 . S
C1475 H1483 0.930 . S
C1476 C1475 1.394 . S
C1476 C1477 1.383 . S
C1476 H1484 0.929 . S
C1477 C1476 1.383 . S
C1477 C1478 1.377 . S
C1478 H1462 0.930 . S
C1478 C1477 1.377 . S
C1478 C1479 1.379 . S
C1479 H1463 0.931 . S
C1479 C1473 1.383 . S
C1479 C1478 1.379 . S
H1480 C1474 0.959 . S
H1481 C1474 0.961 . S
H1482 C1474 0.960 . S
H1483 C1475 0.930 . S
H1484 C1476 0.929 . S
H1485 C1493 0.929 . S
H1486 C1495 0.930 . S
H1487 C1497 0.930 . S
H1488 C1500 0.929 . S
H1489 C1503 0.930 . S
H1490 C1505 0.960 . S
H1491 C1505 0.960 . S
H1492 C1505 0.960 . S
C1493 H1485 0.929 . S
C1493 C1494 1.377 . S
C1493 C1495 1.384 . S
C1494 C1493 1.377 . S
C1494 C1500 1.390 . S
C1495 H1486 0.930 . S
C1495 C1493 1.384 . S
C1495 C1496 1.372 . S
C1496 C1495 1.372 . S
C1496 C1497 1.400 . S
C1496 C1501 1.490 . S
C1497 H1487 0.930 . S
C1497 C1496 1.400 . S
C1497 C1500 1.386 . S
H1498 C1514 0.930 . S
H1499 C1515 0.931 . S
C1500 H1488 0.929 . S
C1500 C1494 1.390 . S
C1500 C1497 1.386 . S
C1501 C1496 1.490 . S
C1501 C1503 1.395 . S
C1501 C1504 1.403 . S
H1502 C1508 0.930 . S
C1503 H1489 0.930 . S
C1503 C1501 1.395 . S
C1503 C1506 1.403 . S
C1504 C1501 1.403 . S
C1504 C1505 1.524 . S
C1504 C1508 1.400 . S
C1505 H1490 0.960 . S
C1505 H1491 0.960 . S
C1505 H1492 0.960 . S
C1505 C1504 1.524 . S
C1506 C1503 1.403 . S
C1506 C1507 1.392 . S
C1506 C1510 1.495 . S
C1507 C1506 1.392 . S
C1507 C1508 1.385 . S
C1507 C1509 1.478 . S
C1508 H1502 0.930 . S
C1508 C1504 1.400 . S
C1508 C1507 1.385 . S
C1509 C1507 1.478 . S
C1509 C1511 1.381 . S
C1509 C1515 1.383 . S
C1510 C1506 1.495 . S
C1510 H1516 0.959 . S
C1510 H1517 0.961 . S
C1510 H1518 0.960 . S
C1511 C1509 1.381 . S
C1511 C1512 1.394 . S
C1511 H1519 0.930 . S
C1512 C1511 1.394 . S
C1512 C1513 1.383 . S
C1512 H1520 0.929 . S
C1513 C1512 1.383 . S
C1513 C1514 1.377 . S
C1514 H1498 0.930 . S
C1514 C1513 1.377 . S
C1514 C1515 1.379 . S
C1515 H1499 0.931 . S
C1515 C1509 1.383 . S
C1515 C1514 1.379 . S
H1516 C1510 0.959 . S
H1517 C1510 0.961 . S
H1518 C1510 0.960 . S
H1519 C1511 0.930 . S
H1520 C1512 0.929 . S
H1521 C1529 0.929 . S
H1522 C1531 0.930 . S
H1523 C1533 0.930 . S
H1524 C1536 0.929 . S
H1525 C1539 0.930 . S
H1526 C1541 0.960 . S
H1527 C1541 0.960 . S
H1528 C1541 0.960 . S
C1529 H1521 0.929 . S
C1529 C1530 1.377 . S
C1529 C1531 1.384 . S
C1530 C1529 1.377 . S
C1530 C1536 1.390 . S
C1531 H1522 0.930 . S
C1531 C1529 1.384 . S
C1531 C1532 1.372 . S
C1532 C1531 1.372 . S
C1532 C1533 1.400 . S
C1532 C1537 1.490 . S
C1533 H1523 0.930 . S
C1533 C1532 1.400 . S
C1533 C1536 1.386 . S
H1534 C1550 0.930 . S
H1535 C1551 0.931 . S
C1536 H1524 0.929 . S
C1536 C1530 1.390 . S
C1536 C1533 1.386 . S
C1537 C1532 1.490 . S
C1537 C1539 1.395 . S
C1537 C1540 1.403 . S
H1538 C1544 0.930 . S
C1539 H1525 0.930 . S
C1539 C1537 1.395 . S
C1539 C1542 1.403 . S
C1540 C1537 1.403 . S
C1540 C1541 1.524 . S
C1540 C1544 1.400 . S
C1541 H1526 0.960 . S
C1541 H1527 0.960 . S
C1541 H1528 0.960 . S
C1541 C1540 1.524 . S
C1542 C1539 1.403 . S
C1542 C1543 1.392 . S
C1542 C1546 1.495 . S
C1543 C1542 1.392 . S
C1543 C1544 1.385 . S
C1543 C1545 1.478 . S
C1544 H1538 0.930 . S
C1544 C1540 1.400 . S
C1544 C1543 1.385 . S
C1545 C1543 1.478 . S
C1545 C1547 1.381 . S
C1545 C1551 1.383 . S
C1546 C1542 1.495 . S
C1546 H1552 0.959 . S
C1546 H1553 0.961 . S
C1546 H1554 0.960 . S
C1547 C1545 1.381 . S
C1547 C1548 1.394 . S
C1547 H1555 0.930 . S
C1548 C1547 1.394 . S
C1548 C1549 1.383 . S
C1548 H1556 0.929 . S
C1549 C1548 1.383 . S
C1549 C1550 1.377 . S
C1550 H1534 0.930 . S
C1550 C1549 1.377 . S
C1550 C1551 1.379 . S
C1551 H1535 0.931 . S
C1551 C1545 1.383 . S
C1551 C1550 1.379 . S
H1552 C1546 0.959 . S
H1553 C1546 0.961 . S
H1554 C1546 0.960 . S
H1555 C1547 0.930 . S
H1556 C1548 0.929 . S
H1557 C1565 0.929 . S
H1558 C1567 0.930 . S
H1559 C1569 0.930 . S
H1560 C1572 0.929 . S
H1561 C1575 0.930 . S
H1562 C1577 0.960 . S
H1563 C1577 0.960 . S
H1564 C1577 0.960 . S
C1565 H1557 0.929 . S
C1565 C1566 1.377 . S
C1565 C1567 1.384 . S
C1566 C1565 1.377 . S
C1566 C1572 1.390 . S
C1567 H1558 0.930 . S
C1567 C1565 1.384 . S
C1567 C1568 1.372 . S
C1568 C1567 1.372 . S
C1568 C1569 1.400 . S
C1568 C1573 1.490 . S
C1569 H1559 0.930 . S
C1569 C1568 1.400 . S
C1569 C1572 1.386 . S
H1570 C1586 0.930 . S
H1571 C1587 0.931 . S
C1572 H1560 0.929 . S
C1572 C1566 1.390 . S
C1572 C1569 1.386 . S
C1573 C1568 1.490 . S
C1573 C1575 1.395 . S
C1573 C1576 1.403 . S
H1574 C1580 0.930 . S
C1575 H1561 0.930 . S
C1575 C1573 1.395 . S
C1575 C1578 1.403 . S
C1576 C1573 1.403 . S
C1576 C1577 1.524 . S
C1576 C1580 1.400 . S
C1577 H1562 0.960 . S
C1577 H1563 0.960 . S
C1577 H1564 0.960 . S
C1577 C1576 1.524 . S
C1578 C1575 1.403 . S
C1578 C1579 1.392 . S
C1578 C1582 1.495 . S
C1579 C1578 1.392 . S
C1579 C1580 1.385 . S
C1579 C1581 1.478 . S
C1580 H1574 0.930 . S
C1580 C1576 1.400 . S
C1580 C1579 1.385 . S
C1581 C1579 1.478 . S
C1581 C1583 1.381 . S
C1581 C1587 1.383 . S
C1582 C1578 1.495 . S
C1582 H1588 0.959 . S
C1582 H1589 0.961 . S
C1582 H1590 0.960 . S
C1583 C1581 1.381 . S
C1583 C1584 1.394 . S
C1583 H1591 0.930 . S
C1584 C1583 1.394 . S
C1584 C1585 1.383 . S
C1584 H1592 0.929 . S
C1585 C1584 1.383 . S
C1585 C1586 1.377 . S
C1586 H1570 0.930 . S
C1586 C1585 1.377 . S
C1586 C1587 1.379 . S
C1587 H1571 0.931 . S
C1587 C1581 1.383 . S
C1587 C1586 1.379 . S
H1588 C1582 0.959 . S
H1589 C1582 0.961 . S
H1590 C1582 0.960 . S
H1591 C1583 0.930 . S
H1592 C1584 0.929 . S
H1593 C1601 0.929 . S
H1594 C1603 0.930 . S
H1595 C1605 0.930 . S
H1596 C1608 0.929 . S
H1597 C1611 0.930 . S
H1598 C1613 0.960 . S
H1599 C1613 0.960 . S
H1600 C1613 0.960 . S
C1601 H1593 0.929 . S
C1601 C1602 1.377 . S
C1601 C1603 1.384 . S
C1602 C1601 1.377 . S
C1602 C1608 1.390 . S
C1603 H1594 0.930 . S
C1603 C1601 1.384 . S
C1603 C1604 1.372 . S
C1604 C1603 1.372 . S
C1604 C1605 1.400 . S
C1604 C1609 1.490 1_545 S
C1605 H1595 0.930 . S
C1605 C1604 1.400 . S
C1605 C1608 1.386 . S
H1606 C1622 0.930 . S
H1607 C1623 0.931 . S
C1608 H1596 0.929 . S
C1608 C1602 1.390 . S
C1608 C1605 1.386 . S
C1609 C1604 1.490 1_565 S
C1609 C1611 1.395 . S
C1609 C1612 1.403 . S
H1610 C1616 0.930 . S
C1611 H1597 0.930 . S
C1611 C1609 1.395 . S
C1611 C1614 1.403 . S
C1612 C1609 1.403 . S
C1612 C1613 1.524 . S
C1612 C1616 1.400 . S
C1613 H1598 0.960 . S
C1613 H1599 0.960 . S
C1613 H1600 0.960 . S
C1613 C1612 1.524 . S
C1614 C1611 1.403 . S
C1614 C1615 1.392 . S
C1614 C1618 1.495 . S
C1615 C1614 1.392 . S
C1615 C1616 1.385 . S
C1615 C1617 1.478 . S
C1616 H1610 0.930 . S
C1616 C1612 1.400 . S
C1616 C1615 1.385 . S
C1617 C1615 1.478 . S
C1617 C1619 1.381 . S
C1617 C1623 1.383 . S
C1618 C1614 1.495 . S
C1618 H1624 0.959 . S
C1618 H1625 0.961 . S
C1618 H1626 0.960 . S
C1619 C1617 1.381 . S
C1619 C1620 1.394 . S
C1619 H1627 0.930 . S
C1620 C1619 1.394 . S
C1620 C1621 1.383 . S
C1620 H1628 0.929 . S
C1621 C1620 1.383 . S
C1621 C1622 1.377 . S
C1622 H1606 0.930 . S
C1622 C1621 1.377 . S
C1622 C1623 1.379 . S
C1623 H1607 0.931 . S
C1623 C1617 1.383 . S
C1623 C1622 1.379 . S
H1624 C1618 0.959 . S
H1625 C1618 0.961 . S
H1626 C1618 0.960 . S
H1627 C1619 0.930 . S
H1628 C1620 0.929 . S
H1629 C1637 0.929 . S
H1630 C1639 0.930 . S
H1631 C1641 0.930 . S
H1632 C1644 0.929 . S
H1633 C1647 0.930 . S
H1634 C1649 0.960 . S
H1635 C1649 0.995 . S
H1636 C1649 0.960 1_655 S
C1637 H1629 0.929 . S
C1637 C1638 1.377 . S
C1637 C1639 1.384 . S
C1638 C1637 1.377 . S
C1638 C1644 1.390 . S
C1639 H1630 0.930 . S
C1639 C1637 1.384 . S
C1639 C1640 1.372 . S
C1640 C1639 1.372 . S
C1640 C1641 1.400 . S
C1640 C1645 1.490 1_655 S
C1641 H1631 0.930 . S
C1641 C1640 1.400 . S
C1641 C1644 1.386 . S
H1642 C1658 0.930 . S
H1643 C1659 0.931 . S
C1644 H1632 0.929 . S
C1644 C1638 1.390 . S
C1644 C1641 1.386 . S
C1645 C1640 1.490 1_455 S
C1645 C1647 1.395 . S
C1645 C1648 1.403 . S
H1646 C1652 0.930 . S
C1647 H1633 0.930 . S
C1647 C1645 1.395 . S
C1647 C1650 1.403 . S
C1648 C1645 1.403 . S
C1648 C1649 1.524 . S
C1648 C1652 1.400 . S
C1649 H1634 0.960 . S
C1649 H1635 0.995 . S
C1649 H1636 0.960 1_455 S
C1649 C1648 1.524 . S
C1650 C1647 1.403 . S
C1650 C1651 1.392 . S
C1650 C1654 1.495 . S
C1651 C1650 1.392 . S
C1651 C1652 1.385 . S
C1651 C1653 1.478 . S
C1652 H1646 0.930 . S
C1652 C1648 1.400 . S
C1652 C1651 1.385 . S
C1653 C1651 1.478 . S
C1653 C1655 1.381 . S
C1653 C1659 1.383 . S
C1654 C1650 1.495 . S
C1654 H1660 0.959 . S
C1654 H1661 0.961 . S
C1654 H1662 0.960 . S
C1655 C1653 1.381 . S
C1655 C1656 1.394 . S
C1655 H1663 0.930 . S
C1656 C1655 1.394 . S
C1656 C1657 1.383 . S
C1656 H1664 0.929 . S
C1657 C1656 1.383 . S
C1657 C1658 1.377 . S
C1658 H1642 0.930 . S
C1658 C1657 1.377 . S
C1658 C1659 1.379 . S
C1659 H1643 0.931 . S
C1659 C1653 1.383 . S
C1659 C1658 1.379 . S
H1660 C1654 0.959 . S
H1661 C1654 0.961 . S
H1662 C1654 0.960 . S
H1663 C1655 0.930 . S
H1664 C1656 0.929 . S
H1665 C1673 0.929 . S
H1666 C1675 0.930 . S
H1667 C1677 0.930 . S
H1668 C1680 0.929 . S
H1669 C1683 0.930 . S
H1670 C1685 0.960 . S
H1671 C1685 0.960 . S
H1672 C1685 0.960 . S
C1673 H1665 0.929 . S
C1673 C1674 1.377 . S
C1673 C1675 1.384 . S
C1674 C1673 1.377 . S
C1674 C1680 1.390 . S
C1675 H1666 0.930 . S
C1675 C1673 1.384 . S
C1675 C1676 1.372 . S
C1676 C1675 1.372 . S
C1676 C1677 1.400 . S
C1676 C1681 1.490 . S
C1677 H1667 0.930 . S
C1677 C1676 1.400 . S
C1677 C1680 1.386 . S
H1678 C1694 0.930 . S
H1679 C1695 0.931 . S
C1680 H1668 0.929 . S
C1680 C1674 1.390 . S
C1680 C1677 1.386 . S
C1681 C1676 1.490 . S
C1681 C1683 1.395 . S
C1681 C1684 1.403 . S
H1682 C1688 0.930 . S
C1683 H1669 0.930 . S
C1683 C1681 1.395 . S
C1683 C1686 1.403 . S
C1684 C1681 1.403 . S
C1684 C1685 1.524 . S
C1684 C1688 1.400 . S
C1685 H1670 0.960 . S
C1685 H1671 0.960 . S
C1685 H1672 0.960 . S
C1685 C1684 1.524 . S
C1686 C1683 1.403 . S
C1686 C1687 1.392 . S
C1686 C1690 1.495 . S
C1687 C1686 1.392 . S
C1687 C1688 1.385 . S
C1687 C1689 1.478 . S
C1688 H1682 0.930 . S
C1688 C1684 1.400 . S
C1688 C1687 1.385 . S
C1689 C1687 1.478 . S
C1689 C1691 1.381 . S
C1689 C1695 1.383 . S
C1690 C1686 1.495 . S
C1690 H1696 0.959 . S
C1690 H1697 0.961 . S
C1690 H1698 0.960 . S
C1691 C1689 1.381 . S
C1691 C1692 1.394 . S
C1691 H1699 0.930 . S
C1692 C1691 1.394 . S
C1692 C1693 1.383 . S
C1692 H1700 0.929 . S
C1693 C1692 1.383 . S
C1693 C1694 1.377 . S
C1694 H1678 0.930 . S
C1694 C1693 1.377 . S
C1694 C1695 1.379 . S
C1695 H1679 0.931 . S
C1695 C1689 1.383 . S
C1695 C1694 1.379 . S
H1696 C1690 0.959 . S
H1697 C1690 0.961 . S
H1698 C1690 0.960 . S
H1699 C1691 0.930 . S
H1700 C1692 0.929 . S
H1701 C1709 0.929 . S
H1702 C1711 0.930 . S
H1703 C1713 0.930 . S
H1704 C1716 0.929 . S
H1705 C1719 0.930 . S
H1706 C1721 0.960 . S
H1707 C1721 0.960 . S
H1708 C1721 0.960 . S
C1709 H1701 0.929 . S
C1709 C1710 1.377 . S
C1709 C1711 1.384 . S
C1710 C1709 1.377 . S
C1710 C1716 1.390 . S
C1711 H1702 0.930 . S
C1711 C1709 1.384 . S
C1711 C1712 1.372 . S
C1712 C1711 1.372 . S
C1712 C1713 1.400 . S
C1712 C1717 1.490 . S
C1713 H1703 0.930 . S
C1713 C1712 1.400 . S
C1713 C1716 1.386 . S
H1714 C1730 0.930 . S
H1715 C1731 0.931 . S
C1716 H1704 0.929 . S
C1716 C1710 1.390 . S
C1716 C1713 1.386 . S
C1717 C1712 1.490 . S
C1717 C1719 1.395 . S
C1717 C1720 1.403 . S
H1718 C1724 0.930 . S
C1719 H1705 0.930 . S
C1719 C1717 1.395 . S
C1719 C1722 1.403 . S
C1720 C1717 1.403 . S
C1720 C1721 1.524 . S
C1720 C1724 1.400 . S
C1721 H1706 0.960 . S
C1721 H1707 0.960 . S
C1721 H1708 0.960 . S
C1721 C1720 1.524 . S
C1722 C1719 1.403 . S
C1722 C1723 1.392 . S
C1722 C1726 1.495 . S
C1723 C1722 1.392 . S
C1723 C1724 1.385 . S
C1723 C1725 1.478 . S
C1724 H1718 0.930 . S
C1724 C1720 1.400 . S
C1724 C1723 1.385 . S
C1725 C1723 1.478 . S
C1725 C1727 1.381 . S
C1725 C1731 1.383 . S
C1726 C1722 1.495 . S
C1726 H1732 0.959 . S
C1726 H1733 0.961 . S
C1726 H1734 0.960 . S
C1727 C1725 1.381 . S
C1727 C1728 1.394 . S
C1727 H1735 0.930 . S
C1728 C1727 1.394 . S
C1728 C1729 1.383 . S
C1728 H1736 0.929 . S
C1729 C1728 1.383 . S
C1729 C1730 1.377 . S
C1730 H1714 0.930 . S
C1730 C1729 1.377 . S
C1730 C1731 1.379 . S
C1731 H1715 0.931 . S
C1731 C1725 1.383 . S
C1731 C1730 1.379 . S
H1732 C1726 0.959 . S
H1733 C1726 0.961 . S
H1734 C1726 0.960 . S
H1735 C1727 0.930 . S
H1736 C1728 0.929 . S
H1737 C1745 0.929 . S
H1738 C1747 0.930 . S
H1739 C1749 0.930 . S
H1740 C1752 0.929 . S
H1741 C1755 0.930 . S
H1742 C1757 0.960 . S
H1743 C1757 0.960 . S
H1744 C1757 0.960 . S
C1745 H1737 0.929 . S
C1745 C1746 1.377 . S
C1745 C1747 1.384 . S
C1746 C1745 1.377 . S
C1746 C1752 1.390 . S
C1747 H1738 0.930 . S
C1747 C1745 1.384 . S
C1747 C1748 1.372 . S
C1748 C1747 1.372 . S
C1748 C1749 1.400 . S
C1748 C1753 1.490 . S
C1749 H1739 0.930 . S
C1749 C1748 1.400 . S
C1749 C1752 1.386 . S
H1750 C1766 0.930 . S
H1751 C1767 0.931 . S
C1752 H1740 0.929 . S
C1752 C1746 1.390 . S
C1752 C1749 1.386 . S
C1753 C1748 1.490 . S
C1753 C1755 1.395 . S
C1753 C1756 1.403 . S
H1754 C1760 0.930 . S
C1755 H1741 0.930 . S
C1755 C1753 1.395 . S
C1755 C1758 1.403 . S
C1756 C1753 1.403 . S
C1756 C1757 1.524 . S
C1756 C1760 1.400 . S
C1757 H1742 0.960 . S
C1757 H1743 0.960 . S
C1757 H1744 0.960 . S
C1757 C1756 1.524 . S
C1758 C1755 1.403 . S
C1758 C1759 1.392 . S
C1758 C1762 1.495 . S
C1759 C1758 1.392 . S
C1759 C1760 1.385 . S
C1759 C1761 1.478 . S
C1760 H1754 0.930 . S
C1760 C1756 1.400 . S
C1760 C1759 1.385 . S
C1761 C1759 1.478 . S
C1761 C1763 1.381 . S
C1761 C1767 1.383 . S
C1762 C1758 1.495 . S
C1762 H1768 0.959 . S
C1762 H1769 0.961 . S
C1762 H1770 0.960 . S
C1763 C1761 1.381 . S
C1763 C1764 1.394 . S
C1763 H1771 0.930 . S
C1764 C1763 1.394 . S
C1764 C1765 1.383 . S
C1764 H1772 0.929 . S
C1765 C1764 1.383 . S
C1765 C1766 1.377 . S
C1766 H1750 0.930 . S
C1766 C1765 1.377 . S
C1766 C1767 1.379 . S
C1767 H1751 0.931 . S
C1767 C1761 1.383 . S
C1767 C1766 1.379 . S
H1768 C1762 0.959 . S
H1769 C1762 0.961 . S
H1770 C1762 0.960 . S
H1771 C1763 0.930 . S
H1772 C1764 0.929 . S
H1773 C1781 0.929 . S
H1774 C1783 0.930 . S
H1775 C1785 0.930 . S
H1776 C1788 0.929 . S
H1777 C1791 0.930 . S
H1778 C1793 0.960 . S
H1779 C1793 0.960 . S
H1780 C1793 0.960 . S
C1781 H1773 0.929 . S
C1781 C1782 1.377 . S
C1781 C1783 1.384 . S
C1782 C1781 1.377 . S
C1782 C1788 1.390 . S
C1783 H1774 0.930 . S
C1783 C1781 1.384 . S
C1783 C1784 1.372 . S
C1784 C1783 1.372 . S
C1784 C1785 1.400 . S
C1784 C1789 1.490 . S
C1785 H1775 0.930 . S
C1785 C1784 1.400 . S
C1785 C1788 1.386 . S
H1786 C1802 0.930 . S
H1787 C1803 0.931 . S
C1788 H1776 0.929 . S
C1788 C1782 1.390 . S
C1788 C1785 1.386 . S
C1789 C1784 1.490 . S
C1789 C1791 1.395 . S
C1789 C1792 1.403 . S
H1790 C1796 0.930 . S
C1791 H1777 0.930 . S
C1791 C1789 1.395 . S
C1791 C1794 1.403 . S
C1792 C1789 1.403 . S
C1792 C1793 1.524 . S
C1792 C1796 1.400 . S
C1793 H1778 0.960 . S
C1793 H1779 0.960 . S
C1793 H1780 0.960 . S
C1793 C1792 1.524 . S
C1794 C1791 1.403 . S
C1794 C1795 1.392 . S
C1794 C1798 1.495 . S
C1795 C1794 1.392 . S
C1795 C1796 1.385 . S
C1795 C1797 1.478 . S
C1796 H1790 0.930 . S
C1796 C1792 1.400 . S
C1796 C1795 1.385 . S
C1797 C1795 1.478 . S
C1797 C1799 1.381 . S
C1797 C1803 1.383 . S
C1798 C1794 1.495 . S
C1798 H1804 0.959 . S
C1798 H1805 0.961 . S
C1798 H1806 0.960 . S
C1799 C1797 1.381 . S
C1799 C1800 1.394 . S
C1799 H1807 0.930 . S
C1800 C1799 1.394 . S
C1800 C1801 1.383 . S
C1800 H1808 0.929 . S
C1801 C1800 1.383 . S
C1801 C1802 1.377 . S
C1802 H1786 0.930 . S
C1802 C1801 1.377 . S
C1802 C1803 1.379 . S
C1803 H1787 0.931 . S
C1803 C1797 1.383 . S
C1803 C1802 1.379 . S
H1804 C1798 0.959 . S
H1805 C1798 0.961 . S
H1806 C1798 0.960 . S
H1807 C1799 0.930 . S
H1808 C1800 0.929 . S
H1809 C1817 0.929 . S
H1810 C1819 0.930 . S
H1811 C1821 0.930 . S
H1812 C1824 0.929 . S
H1813 C1827 0.930 . S
H1814 C1829 0.960 . S
H1815 C1829 0.960 . S
H1816 C1829 0.960 . S
C1817 H1809 0.929 . S
C1817 C1818 1.377 . S
C1817 C1819 1.384 . S
C1818 C1817 1.377 . S
C1818 C1824 1.390 . S
C1819 H1810 0.930 . S
C1819 C1817 1.384 . S
C1819 C1820 1.372 . S
C1820 C1819 1.372 . S
C1820 C1821 1.400 . S
C1820 C1825 1.490 1_565 S
C1821 H1811 0.930 . S
C1821 C1820 1.400 . S
C1821 C1824 1.386 . S
H1822 C1838 0.930 . S
H1823 C1839 0.931 . S
C1824 H1812 0.929 . S
C1824 C1818 1.390 . S
C1824 C1821 1.386 . S
C1825 C1820 1.490 1_545 S
C1825 C1827 1.395 . S
C1825 C1828 1.403 . S
H1826 C1832 0.930 . S
C1827 H1813 0.930 . S
C1827 C1825 1.395 . S
C1827 C1830 1.403 . S
C1828 C1825 1.403 . S
C1828 C1829 1.524 . S
C1828 C1832 1.400 . S
C1829 H1814 0.960 . S
C1829 H1815 0.960 . S
C1829 H1816 0.960 . S
C1829 C1828 1.524 . S
C1830 C1827 1.403 . S
C1830 C1831 1.392 . S
C1830 C1834 1.495 . S
C1831 C1830 1.392 . S
C1831 C1832 1.385 . S
C1831 C1833 1.478 . S
C1832 H1826 0.930 . S
C1832 C1828 1.400 . S
C1832 C1831 1.385 . S
C1833 C1831 1.478 . S
C1833 C1835 1.381 . S
C1833 C1839 1.383 . S
C1834 C1830 1.495 . S
C1834 H1840 0.959 . S
C1834 H1841 0.961 . S
C1834 H1842 0.960 . S
C1835 C1833 1.381 . S
C1835 C1836 1.394 . S
C1835 H1843 0.930 . S
C1836 C1835 1.394 . S
C1836 C1837 1.383 . S
C1836 H1844 0.929 . S
C1837 C1836 1.383 . S
C1837 C1838 1.377 . S
C1838 H1822 0.930 . S
C1838 C1837 1.377 . S
C1838 C1839 1.379 . S
C1839 H1823 0.931 . S
C1839 C1833 1.383 . S
C1839 C1838 1.379 . S
H1840 C1834 0.959 . S
H1841 C1834 0.961 . S
H1842 C1834 0.960 . S
H1843 C1835 0.930 . S
H1844 C1836 0.929 . S
H1845 C1853 0.929 . S
H1846 C1855 0.930 . S
H1847 C1857 0.930 . S
H1848 C1860 0.929 . S
H1849 C1863 0.930 . S
H1850 C1865 0.960 . S
H1851 C1865 0.960 . S
H1852 C1865 0.960 . S
C1853 H1845 0.929 . S
C1853 C1854 1.377 . S
C1853 C1855 1.384 . S
C1854 C1853 1.377 . S
C1854 C1860 1.390 . S
C1855 H1846 0.930 . S
C1855 C1853 1.384 . S
C1855 C1856 1.372 . S
C1856 C1855 1.372 . S
C1856 C1857 1.400 . S
C1856 C1861 1.490 1_455 S
C1857 H1847 0.930 . S
C1857 C1856 1.400 . S
C1857 C1860 1.386 . S
H1858 C1874 0.930 . S
H1859 C1875 0.931 . S
C1860 H1848 0.929 . S
C1860 C1854 1.390 . S
C1860 C1857 1.386 . S
C1861 C1856 1.490 1_655 S
C1861 C1863 1.395 . S
C1861 C1864 1.403 . S
H1862 C1868 0.930 . S
C1863 H1849 0.930 . S
C1863 C1861 1.395 . S
C1863 C1866 1.403 . S
C1864 C1861 1.403 . S
C1864 C1865 1.524 . S
C1864 C1868 1.400 . S
C1865 H1850 0.960 . S
C1865 H1851 0.960 . S
C1865 H1852 0.960 . S
C1865 C1864 1.524 . S
C1866 C1863 1.403 . S
C1866 C1867 1.392 . S
C1866 C1870 1.495 . S
C1867 C1866 1.392 . S
C1867 C1868 1.385 . S
C1867 C1869 1.478 . S
C1868 H1862 0.930 . S
C1868 C1864 1.400 . S
C1868 C1867 1.385 . S
C1869 C1867 1.478 . S
C1869 C1871 1.381 . S
C1869 C1875 1.383 . S
C1870 C1866 1.495 . S
C1870 H1876 0.959 . S
C1870 H1877 0.961 . S
C1870 H1878 0.960 . S
C1871 C1869 1.381 . S
C1871 C1872 1.394 . S
C1871 H1879 0.930 . S
C1872 C1871 1.394 . S
C1872 C1873 1.383 . S
C1872 H1880 0.929 . S
C1873 C1872 1.383 . S
C1873 C1874 1.377 . S
C1874 H1858 0.930 . S
C1874 C1873 1.377 . S
C1874 C1875 1.379 . S
C1875 H1859 0.931 . S
C1875 C1869 1.383 . S
C1875 C1874 1.379 . S
H1876 C1870 0.959 . S
H1877 C1870 0.961 . S
H1878 C1870 0.960 . S
H1879 C1871 0.930 . S
H1880 C1872 0.929 . S
H1881 C1889 0.929 . S
H1882 C1891 0.930 . S
H1883 C1893 0.930 . S
H1884 C1896 0.929 . S
H1885 C1899 0.930 . S
H1886 C1901 0.960 . S
H1887 C1901 0.960 . S
H1888 C1901 0.960 . S
C1889 H1881 0.929 . S
C1889 C1890 1.377 . S
C1889 C1891 1.384 . S
C1890 C1889 1.377 . S
C1890 C1896 1.390 . S
C1891 H1882 0.930 . S
C1891 C1889 1.384 . S
C1891 C1892 1.372 . S
C1892 C1891 1.372 . S
C1892 C1893 1.400 . S
C1892 C1897 1.490 . S
C1893 H1883 0.930 . S
C1893 C1892 1.400 . S
C1893 C1896 1.386 . S
H1894 C1910 0.930 . S
H1895 C1911 0.931 . S
C1896 H1884 0.929 . S
C1896 C1890 1.390 . S
C1896 C1893 1.386 . S
C1897 C1892 1.490 . S
C1897 C1899 1.395 . S
C1897 C1900 1.403 . S
H1898 C1904 0.930 . S
C1899 H1885 0.930 . S
C1899 C1897 1.395 . S
C1899 C1902 1.403 . S
C1900 C1897 1.403 . S
C1900 C1901 1.524 . S
C1900 C1904 1.400 . S
C1901 H1886 0.960 . S
C1901 H1887 0.960 . S
C1901 H1888 0.960 . S
C1901 C1900 1.524 . S
C1902 C1899 1.403 . S
C1902 C1903 1.392 . S
C1902 C1906 1.495 . S
C1903 C1902 1.392 . S
C1903 C1904 1.385 . S
C1903 C1905 1.478 . S
C1904 H1898 0.930 . S
C1904 C1900 1.400 . S
C1904 C1903 1.385 . S
C1905 C1903 1.478 . S
C1905 C1907 1.381 . S
C1905 C1911 1.383 . S
C1906 C1902 1.495 . S
C1906 H1912 0.959 . S
C1906 H1913 0.961 . S
C1906 H1914 0.960 . S
C1907 C1905 1.381 . S
C1907 C1908 1.394 . S
C1907 H1915 0.930 . S
C1908 C1907 1.394 . S
C1908 C1909 1.383 . S
C1908 H1916 0.929 . S
C1909 C1908 1.383 . S
C1909 C1910 1.377 . S
C1910 H1894 0.930 . S
C1910 C1909 1.377 . S
C1910 C1911 1.379 . S
C1911 H1895 0.931 . S
C1911 C1905 1.383 . S
C1911 C1910 1.379 . S
H1912 C1906 0.959 . S
H1913 C1906 0.961 . S
H1914 C1906 0.960 . S
H1915 C1907 0.930 . S
H1916 C1908 0.929 . S
H1917 C1925 0.929 . S
H1918 C1927 0.930 . S
H1919 C1929 0.930 . S
H1920 C1932 0.929 . S
H1921 C1935 0.957 . S
H1922 C1937 0.960 . S
H1923 C1937 0.960 . S
H1924 C1937 0.960 . S
C1925 H1917 0.929 . S
C1925 C1926 1.377 . S
C1925 C1927 1.384 . S
C1926 C1925 1.377 . S
C1926 C1932 1.390 . S
C1927 H1918 0.930 . S
C1927 C1925 1.384 . S
C1927 C1928 1.372 . S
C1928 C1927 1.372 . S
C1928 C1929 1.400 . S
C1928 C1933 1.490 1_455 S
C1929 H1919 0.930 . S
C1929 C1928 1.400 . S
C1929 C1932 1.386 . S
H1930 C1946 0.930 . S
H1931 C1947 0.931 . S
C1932 H1920 0.929 . S
C1932 C1926 1.390 . S
C1932 C1929 1.386 . S
C1933 C1928 1.490 1_655 S
C1933 C1935 1.395 . S
C1933 C1936 1.403 . S
H1934 C1940 0.930 . S
C1935 H1921 0.957 . S
C1935 C1933 1.395 . S
C1935 C1938 1.403 . S
C1936 C1933 1.403 . S
C1936 C1937 1.524 . S
C1936 C1940 1.400 . S
C1937 H1922 0.960 . S
C1937 H1923 0.960 . S
C1937 H1924 0.960 . S
C1937 C1936 1.524 . S
C1938 C1935 1.403 . S
C1938 C1939 1.392 . S
C1938 C1942 1.495 . S
C1939 C1938 1.392 . S
C1939 C1940 1.385 . S
C1939 C1941 1.478 . S
C1940 H1934 0.930 . S
C1940 C1936 1.400 . S
C1940 C1939 1.385 . S
C1941 C1939 1.478 . S
C1941 C1943 1.381 . S
C1941 C1947 1.383 . S
C1942 C1938 1.495 . S
C1942 H1948 0.959 . S
C1942 H1949 0.961 . S
C1942 H1950 0.960 . S
C1943 C1941 1.381 . S
C1943 C1944 1.394 . S
C1943 H1951 0.930 . S
C1944 C1943 1.394 . S
C1944 C1945 1.383 . S
C1944 H1952 0.929 . S
C1945 C1944 1.383 . S
C1945 C1946 1.377 . S
C1946 H1930 0.930 . S
C1946 C1945 1.377 . S
C1946 C1947 1.379 . S
C1947 H1931 0.931 . S
C1947 C1941 1.383 . S
C1947 C1946 1.379 . S
H1948 C1942 0.959 . S
H1949 C1942 0.961 . S
H1950 C1942 0.960 . S
H1951 C1943 0.930 . S
H1952 C1944 0.929 . S
H1953 C1961 0.929 . S
H1954 C1963 0.930 . S
H1955 C1965 0.930 . S
H1956 C1968 0.929 . S
H1957 C1971 0.930 . S
H1958 C1973 0.960 . S
H1959 C1973 0.960 . S
H1960 C1973 0.960 . S
C1961 H1953 0.929 . S
C1961 C1962 1.377 . S
C1961 C1963 1.384 . S
C1962 C1961 1.377 . S
C1962 C1968 1.390 . S
C1963 H1954 0.930 . S
C1963 C1961 1.384 . S
C1963 C1964 1.372 . S
C1964 C1963 1.372 . S
C1964 C1965 1.400 . S
C1964 C1969 1.490 . S
C1965 H1955 0.930 . S
C1965 C1964 1.400 . S
C1965 C1968 1.386 . S
H1966 C1982 0.930 . S
H1967 C1983 0.931 . S
C1968 H1956 0.929 . S
C1968 C1962 1.390 . S
C1968 C1965 1.386 . S
C1969 C1964 1.490 . S
C1969 C1971 1.395 . S
C1969 C1972 1.403 . S
H1970 C1976 0.930 . S
C1971 H1957 0.930 . S
C1971 C1969 1.395 . S
C1971 C1974 1.403 . S
C1972 C1969 1.403 . S
C1972 C1973 1.524 . S
C1972 C1976 1.400 . S
C1973 H1958 0.960 . S
C1973 H1959 0.960 . S
C1973 H1960 0.960 . S
C1973 C1972 1.524 . S
C1974 C1971 1.403 . S
C1974 C1975 1.392 . S
C1974 C1978 1.495 . S
C1975 C1974 1.392 . S
C1975 C1976 1.385 . S
C1975 C1977 1.478 . S
C1976 H1970 0.930 . S
C1976 C1972 1.400 . S
C1976 C1975 1.385 . S
C1977 C1975 1.478 . S
C1977 C1979 1.381 . S
C1977 C1983 1.383 . S
C1978 C1974 1.495 . S
C1978 H1984 0.959 . S
C1978 H1985 0.961 . S
C1978 H1986 0.960 . S
C1979 C1977 1.381 . S
C1979 C1980 1.394 . S
C1979 H1987 0.930 . S
C1980 C1979 1.394 . S
C1980 C1981 1.383 . S
C1980 H1988 0.929 . S
C1981 C1980 1.383 . S
C1981 C1982 1.377 . S
C1982 H1966 0.930 . S
C1982 C1981 1.377 . S
C1982 C1983 1.379 . S
C1983 H1967 0.931 . S
C1983 C1977 1.383 . S
C1983 C1982 1.379 . S
H1984 C1978 0.959 . S
H1985 C1978 0.961 . S
H1986 C1978 0.960 . S
H1987 C1979 0.930 . S
H1988 C1980 0.929 . S
H1989 C1997 0.929 . S
H1990 C1999 0.930 . S
H1991 C2001 0.930 . S
H1992 C2004 0.929 . S
H1993 C2007 0.930 . S
H1994 C2009 0.960 . S
H1995 C2009 0.960 . S
H1996 C2009 0.960 . S
C1997 H1989 0.929 . S
C1997 C1998 1.377 . S
C1997 C1999 1.384 . S
C1998 C1997 1.377 . S
C1998 C2004 1.390 . S
C1999 H1990 0.930 . S
C1999 C1997 1.384 . S
C1999 C2000 1.372 . S
C2000 C1999 1.372 . S
C2000 C2001 1.400 . S
C2000 C2005 1.490 1_565 S
C2001 H1991 0.930 . S
C2001 C2000 1.400 . S
C2001 C2004 1.386 . S
H2002 C2018 0.930 . S
H2003 C2019 0.931 . S
C2004 H1992 0.929 . S
C2004 C1998 1.390 . S
C2004 C2001 1.386 . S
C2005 C2000 1.490 1_545 S
C2005 C2007 1.395 . S
C2005 C2008 1.403 . S
H2006 C2012 0.930 . S
C2007 H1993 0.930 . S
C2007 C2005 1.395 . S
C2007 C2010 1.403 . S
C2008 C2005 1.403 . S
C2008 C2009 1.524 . S
C2008 C2012 1.400 . S
C2009 H1994 0.960 . S
C2009 H1995 0.960 . S
C2009 H1996 0.960 . S
C2009 C2008 1.524 . S
C2010 C2007 1.403 . S
C2010 C2011 1.392 . S
C2010 C2014 1.495 . S
C2011 C2010 1.392 . S
C2011 C2012 1.385 . S
C2011 C2013 1.478 . S
C2012 H2006 0.930 . S
C2012 C2008 1.400 . S
C2012 C2011 1.385 . S
C2013 C2011 1.478 . S
C2013 C2015 1.381 . S
C2013 C2019 1.383 . S
C2014 C2010 1.495 . S
C2014 H2020 0.959 . S
C2014 H2021 0.961 . S
C2014 H2022 0.960 . S
C2015 C2013 1.381 . S
C2015 C2016 1.394 . S
C2015 H2023 0.930 . S
C2016 C2015 1.394 . S
C2016 C2017 1.383 . S
C2016 H2024 0.929 . S
C2017 C2016 1.383 . S
C2017 C2018 1.377 . S
C2018 H2002 0.930 . S
C2018 C2017 1.377 . S
C2018 C2019 1.379 . S
C2019 H2003 0.931 . S
C2019 C2013 1.383 . S
C2019 C2018 1.379 . S
H2020 C2014 0.959 . S
H2021 C2014 0.961 . S
H2022 C2014 0.960 . S
H2023 C2015 0.930 . S
H2024 C2016 0.929 . S
H2025 C2033 0.929 . S
H2026 C2035 0.930 . S
H2027 C2037 0.930 . S
H2028 C2040 0.929 . S
H2029 C2043 0.930 . S
H2030 C2045 0.960 . S
H2031 C2045 0.960 . S
H2032 C2045 0.960 . S
C2033 H2025 0.929 . S
C2033 C2034 1.377 . S
C2033 C2035 1.384 . S
C2034 C2033 1.377 . S
C2034 C2040 1.390 . S
C2035 H2026 0.930 . S
C2035 C2033 1.384 . S
C2035 C2036 1.372 . S
C2036 C2035 1.372 . S
C2036 C2037 1.400 . S
C2036 C2041 1.490 . S
C2037 H2027 0.930 . S
C2037 C2036 1.400 . S
C2037 C2040 1.386 . S
H2038 C2054 0.930 . S
H2039 C2055 0.931 . S
C2040 H2028 0.929 . S
C2040 C2034 1.390 . S
C2040 C2037 1.386 . S
C2041 C2036 1.490 . S
C2041 C2043 1.395 . S
C2041 C2044 1.403 . S
H2042 C2048 0.930 . S
C2043 H2029 0.930 . S
C2043 C2041 1.395 . S
C2043 C2046 1.403 . S
C2044 C2041 1.403 . S
C2044 C2045 1.524 . S
C2044 C2048 1.400 . S
C2045 H2030 0.960 . S
C2045 H2031 0.960 . S
C2045 H2032 0.960 . S
C2045 C2044 1.524 . S
C2046 C2043 1.403 . S
C2046 C2047 1.392 . S
C2046 C2050 1.495 . S
C2047 C2046 1.392 . S
C2047 C2048 1.385 . S
C2047 C2049 1.478 . S
C2048 H2042 0.930 . S
C2048 C2044 1.400 . S
C2048 C2047 1.385 . S
C2049 C2047 1.478 . S
C2049 C2051 1.381 . S
C2049 C2055 1.383 . S
C2050 C2046 1.495 . S
C2050 H2056 0.959 . S
C2050 H2057 0.961 . S
C2050 H2058 0.960 . S
C2051 C2049 1.381 . S
C2051 C2052 1.394 . S
C2051 H2059 0.930 . S
C2052 C2051 1.394 . S
C2052 C2053 1.383 . S
C2052 H2060 0.929 . S
C2053 C2052 1.383 . S
C2053 C2054 1.377 . S
C2054 H2038 0.930 . S
C2054 C2053 1.377 . S
C2054 C2055 1.379 . S
C2055 H2039 0.931 . S
C2055 C2049 1.383 . S
C2055 C2054 1.379 . S
H2056 C2050 0.959 . S
H2057 C2050 0.961 . S
H2058 C2050 0.960 . S
H2059 C2051 0.930 . S
H2060 C2052 0.929 . S
H2061 C2069 0.929 . S
H2062 C2071 0.930 . S
H2063 C2073 0.930 . S
H2064 C2076 0.929 . S
H2065 C2079 0.930 . S
H2066 C2081 0.960 . S
H2067 C2081 0.960 . S
H2068 C2081 0.960 . S
C2069 H2061 0.929 . S
C2069 C2070 1.377 . S
C2069 C2071 1.384 . S
C2070 C2069 1.377 . S
C2070 C2076 1.390 . S
C2071 H2062 0.930 . S
C2071 C2069 1.384 . S
C2071 C2072 1.372 . S
C2072 C2071 1.372 . S
C2072 C2073 1.400 . S
C2072 C2077 1.490 . S
C2073 H2063 0.930 . S
C2073 C2072 1.400 . S
C2073 C2076 1.386 . S
H2074 C2090 0.930 . S
H2075 C2091 0.931 . S
C2076 H2064 0.929 . S
C2076 C2070 1.390 . S
C2076 C2073 1.386 . S
C2077 C2072 1.490 . S
C2077 C2079 1.395 . S
C2077 C2080 1.403 . S
H2078 C2084 0.930 . S
C2079 H2065 0.930 . S
C2079 C2077 1.395 . S
C2079 C2082 1.403 . S
C2080 C2077 1.403 . S
C2080 C2081 1.524 . S
C2080 C2084 1.400 . S
C2081 H2066 0.960 . S
C2081 H2067 0.960 . S
C2081 H2068 0.960 . S
C2081 C2080 1.524 . S
C2082 C2079 1.403 . S
C2082 C2083 1.392 . S
C2082 C2086 1.495 . S
C2083 C2082 1.392 . S
C2083 C2084 1.385 . S
C2083 C2085 1.478 . S
C2084 H2078 0.930 . S
C2084 C2080 1.400 . S
C2084 C2083 1.385 . S
C2085 C2083 1.478 . S
C2085 C2087 1.381 . S
C2085 C2091 1.383 . S
C2086 C2082 1.495 . S
C2086 H2092 0.959 . S
C2086 H2093 0.961 . S
C2086 H2094 0.960 . S
C2087 C2085 1.381 . S
C2087 C2088 1.394 . S
C2087 H2095 0.930 . S
C2088 C2087 1.394 . S
C2088 C2089 1.383 . S
C2088 H2096 0.929 . S
C2089 C2088 1.383 . S
C2089 C2090 1.377 . S
C2090 H2074 0.930 . S
C2090 C2089 1.377 . S
C2090 C2091 1.379 . S
C2091 H2075 0.931 . S
C2091 C2085 1.383 . S
C2091 C2090 1.379 . S
H2092 C2086 0.959 . S
H2093 C2086 0.961 . S
H2094 C2086 0.960 . S
H2095 C2087 0.930 . S
H2096 C2088 0.929 . S
H2097 C2105 0.929 . S
H2098 C2107 0.930 . S
H2099 C2109 0.930 . S
H2100 C2112 0.929 . S
H2101 C2115 0.930 . S
H2102 C2117 0.960 . S
H2103 C2117 0.960 . S
H2104 C2117 0.960 . S
C2105 H2097 0.929 . S
C2105 C2106 1.377 . S
C2105 C2107 1.384 . S
C2106 C2105 1.377 . S
C2106 C2112 1.390 . S
C2107 H2098 0.930 . S
C2107 C2105 1.384 . S
C2107 C2108 1.372 . S
C2108 C2107 1.372 . S
C2108 C2109 1.400 . S
C2108 C2113 1.490 . S
C2109 H2099 0.930 . S
C2109 C2108 1.400 . S
C2109 C2112 1.386 . S
H2110 C2126 0.930 . S
H2111 C2127 0.931 . S
C2112 H2100 0.929 . S
C2112 C2106 1.390 . S
C2112 C2109 1.386 . S
C2113 C2108 1.490 . S
C2113 C2115 1.395 . S
C2113 C2116 1.403 . S
H2114 C2120 0.930 . S
C2115 H2101 0.930 . S
C2115 C2113 1.395 . S
C2115 C2118 1.403 . S
C2116 C2113 1.403 . S
C2116 C2117 1.524 . S
C2116 C2120 1.400 . S
C2117 H2102 0.960 . S
C2117 H2103 0.960 . S
C2117 H2104 0.960 . S
C2117 C2116 1.524 . S
C2118 C2115 1.403 . S
C2118 C2119 1.392 . S
C2118 C2122 1.495 . S
C2119 C2118 1.392 . S
C2119 C2120 1.385 . S
C2119 C2121 1.478 . S
C2120 H2114 0.930 . S
C2120 C2116 1.400 . S
C2120 C2119 1.385 . S
C2121 C2119 1.478 . S
C2121 C2123 1.381 . S
C2121 C2127 1.383 . S
C2122 C2118 1.495 . S
C2122 H2128 0.959 . S
C2122 H2129 0.961 . S
C2122 H2130 0.960 . S
C2123 C2121 1.381 . S
C2123 C2124 1.394 . S
C2123 H2131 0.930 . S
C2124 C2123 1.394 . S
C2124 C2125 1.383 . S
C2124 H2132 0.929 . S
C2125 C2124 1.383 . S
C2125 C2126 1.377 . S
C2126 H2110 0.930 . S
C2126 C2125 1.377 . S
C2126 C2127 1.379 . S
C2127 H2111 0.931 . S
C2127 C2121 1.383 . S
C2127 C2126 1.379 . S
H2128 C2122 0.959 . S
H2129 C2122 0.961 . S
H2130 C2122 0.960 . S
H2131 C2123 0.930 . S
H2132 C2124 0.929 . S
H2133 C2141 0.929 . S
H2134 C2143 0.930 . S
H2135 C2145 0.930 . S
H2136 C2148 0.929 . S
H2137 C2151 0.930 . S
H2138 C2153 0.960 . S
H2139 C2153 0.960 . S
H2140 C2153 0.960 . S
C2141 H2133 0.929 . S
C2141 C2142 1.377 . S
C2141 C2143 1.384 . S
C2142 C2141 1.377 . S
C2142 C2148 1.390 . S
C2143 H2134 0.930 . S
C2143 C2141 1.384 . S
C2143 C2144 1.372 . S
C2144 C2143 1.372 . S
C2144 C2145 1.400 . S
C2144 C2149 1.490 . S
C2145 H2135 0.930 . S
C2145 C2144 1.400 . S
C2145 C2148 1.386 . S
H2146 C2162 0.930 . S
H2147 C2163 0.931 . S
C2148 H2136 0.929 . S
C2148 C2142 1.390 . S
C2148 C2145 1.386 . S
C2149 C2144 1.490 . S
C2149 C2151 1.395 . S
C2149 C2152 1.403 . S
H2150 C2156 0.941 . S
C2151 H2137 0.930 . S
C2151 C2149 1.395 . S
C2151 C2154 1.403 . S
C2152 C2149 1.403 . S
C2152 C2153 1.524 1_565 S
C2152 C2156 1.399 1_565 S
C2153 H2138 0.960 . S
C2153 H2139 0.960 . S
C2153 H2140 0.960 . S
C2153 C2152 1.524 1_545 S
C2154 C2151 1.403 . S
C2154 C2155 1.392 . S
C2154 C2158 1.495 . S
C2155 C2154 1.392 . S
C2155 C2156 1.376 1_565 S
C2155 C2157 1.478 . S
C2156 H2150 0.941 . S
C2156 C2152 1.399 1_545 S
C2156 C2155 1.376 1_545 S
C2157 C2155 1.478 . S
C2157 C2159 1.381 . S
C2157 C2163 1.383 . S
C2158 C2154 1.495 . S
C2158 H2164 0.959 . S
C2158 H2165 0.961 . S
C2158 H2166 0.960 . S
C2159 C2157 1.381 . S
C2159 C2160 1.394 . S
C2159 H2167 0.930 . S
C2160 C2159 1.394 . S
C2160 C2161 1.383 . S
C2160 H2168 0.929 . S
C2161 C2160 1.383 . S
C2161 C2162 1.377 1_565 S
C2162 H2146 0.930 . S
C2162 C2161 1.377 1_545 S
C2162 C2163 1.379 1_545 S
C2163 H2147 0.931 . S
C2163 C2157 1.383 . S
C2163 C2162 1.379 1_565 S
H2164 C2158 0.959 . S
H2165 C2158 0.961 . S
H2166 C2158 0.960 . S
H2167 C2159 0.930 . S
H2168 C2160 0.929 . S
H2169 C2177 0.929 . S
H2170 C2179 0.930 . S
H2171 C2181 0.930 . S
H2172 C2184 0.929 . S
H2173 C2187 0.930 1_655 S
H2174 C2189 0.960 . S
H2175 C2189 0.960 . S
H2176 C2189 0.960 . S
C2177 H2169 0.929 . S
C2177 C2178 1.377 . S
C2177 C2179 1.384 . S
C2178 C2177 1.377 . S
C2178 C2184 1.390 . S
C2179 H2170 0.930 . S
C2179 C2177 1.384 . S
C2179 C2180 1.372 . S
C2180 C2179 1.372 . S
C2180 C2181 1.400 . S
C2180 C2185 1.490 . S
C2181 H2171 0.930 . S
C2181 C2180 1.400 . S
C2181 C2184 1.386 . S
H2182 C2198 0.930 . S
H2183 C2199 0.931 . S
C2184 H2172 0.929 . S
C2184 C2178 1.390 . S
C2184 C2181 1.386 . S
C2185 C2180 1.490 . S
C2185 C2187 1.395 . S
C2185 C2188 1.403 . S
H2186 C2192 0.930 . S
C2187 H2173 0.930 1_455 S
C2187 C2185 1.395 . S
C2187 C2190 1.403 1_455 S
C2188 C2185 1.403 . S
C2188 C2189 1.524 . S
C2188 C2192 1.400 . S
C2189 H2174 0.960 . S
C2189 H2175 0.960 . S
C2189 H2176 0.960 . S
C2189 C2188 1.524 . S
C2190 C2187 1.403 1_655 S
C2190 C2191 1.392 1_655 S
C2190 C2194 1.495 . S
C2191 C2190 1.392 1_455 S
C2191 C2192 1.385 . S
C2191 C2193 1.478 . S
C2192 H2186 0.930 . S
C2192 C2188 1.400 . S
C2192 C2191 1.385 . S
C2193 C2191 1.478 . S
C2193 C2195 1.378 . S
C2193 C2199 1.383 . S
C2194 C2190 1.495 . S
C2194 H2200 0.959 . S
C2194 H2201 0.961 . S
C2194 H2202 0.960 . S
C2195 C2193 1.378 . S
C2195 C2196 1.389 1_455 S
C2195 H2203 0.942 1_455 S
C2196 C2195 1.389 1_655 S
C2196 C2197 1.383 1_655 S
C2196 H2204 0.929 . S
C2197 C2196 1.383 1_455 S
C2197 C2198 1.377 . S
C2198 H2182 0.930 . S
C2198 C2197 1.377 . S
C2198 C2199 1.379 . S
C2199 H2183 0.931 . S
C2199 C2193 1.383 . S
C2199 C2198 1.379 . S
H2200 C2194 0.959 . S
H2201 C2194 0.961 . S
H2202 C2194 0.960 . S
H2203 C2195 0.942 1_655 S
H2204 C2196 0.929 . S
H2205 C2213 0.929 . S
H2206 C2215 0.930 . S
H2207 C2217 0.930 . S
H2208 C2220 0.929 . S
H2209 C2223 0.930 . S
H2210 C2225 0.960 . S
H2211 C2225 0.960 . S
H2212 C2225 0.960 . S
C2213 H2205 0.929 . S
C2213 C2214 1.377 . S
C2213 C2215 1.384 . S
C2214 C2213 1.377 . S
C2214 C2220 1.390 . S
C2215 H2206 0.930 . S
C2215 C2213 1.384 . S
C2215 C2216 1.372 . S
C2216 C2215 1.372 . S
C2216 C2217 1.400 . S
C2216 C2221 1.490 . S
C2217 H2207 0.930 . S
C2217 C2216 1.400 . S
C2217 C2220 1.386 . S
H2218 C2234 0.930 . S
H2219 C2235 0.931 . S
C2220 H2208 0.929 . S
C2220 C2214 1.390 . S
C2220 C2217 1.386 . S
C2221 C2216 1.490 . S
C2221 C2223 1.395 . S
C2221 C2224 1.403 . S
H2222 C2228 0.930 . S
C2223 H2209 0.930 . S
C2223 C2221 1.395 . S
C2223 C2226 1.403 . S
C2224 C2221 1.403 . S
C2224 C2225 1.524 . S
C2224 C2228 1.400 . S
C2225 H2210 0.960 . S
C2225 H2211 0.960 . S
C2225 H2212 0.960 . S
C2225 C2224 1.524 . S
C2226 C2223 1.403 . S
C2226 C2227 1.392 . S
C2226 C2230 1.495 . S
C2227 C2226 1.392 . S
C2227 C2228 1.385 . S
C2227 C2229 1.478 . S
C2228 H2222 0.930 . S
C2228 C2224 1.400 . S
C2228 C2227 1.385 . S
C2229 C2227 1.478 . S
C2229 C2231 1.381 . S
C2229 C2235 1.383 . S
C2230 C2226 1.495 . S
C2230 H2236 0.959 . S
C2230 H2237 0.961 . S
C2230 H2238 0.960 . S
C2231 C2229 1.381 . S
C2231 C2232 1.394 . S
C2231 H2239 0.930 . S
C2232 C2231 1.394 . S
C2232 C2233 1.383 . S
C2232 H2240 0.929 . S
C2233 C2232 1.383 . S
C2233 C2234 1.377 . S
C2234 H2218 0.930 . S
C2234 C2233 1.377 . S
C2234 C2235 1.379 . S
C2235 H2219 0.931 . S
C2235 C2229 1.383 . S
C2235 C2234 1.379 . S
H2236 C2230 0.959 . S
H2237 C2230 0.961 . S
H2238 C2230 0.960 . S
H2239 C2231 0.930 . S
H2240 C2232 0.929 . S
H2241 C2249 0.929 . S
H2242 C2251 0.930 . S
H2243 C2253 0.930 . S
H2244 C2256 0.929 . S
H2245 C2259 0.930 . S
H2246 C2261 0.960 . S
H2247 C2261 0.960 . S
H2248 C2261 0.960 . S
C2249 H2241 0.929 . S
C2249 C2250 1.377 . S
C2249 C2251 1.384 . S
C2250 C2249 1.377 . S
C2250 C2256 1.390 . S
C2251 H2242 0.930 . S
C2251 C2249 1.384 . S
C2251 C2252 1.372 . S
C2252 C2251 1.372 . S
C2252 C2253 1.400 . S
C2252 C2257 1.490 . S
C2253 H2243 0.930 . S
C2253 C2252 1.400 . S
C2253 C2256 1.386 . S
H2254 C2270 0.930 . S
H2255 C2271 0.914 1_455 S
C2256 H2244 0.929 . S
C2256 C2250 1.390 . S
C2256 C2253 1.386 . S
C2257 C2252 1.490 . S
C2257 C2259 1.395 . S
C2257 C2260 1.403 . S
H2258 C2264 0.930 1_455 S
C2259 H2245 0.930 . S
C2259 C2257 1.395 . S
C2259 C2262 1.403 . S
C2260 C2257 1.403 . S
C2260 C2261 1.524 1_655 S
C2260 C2264 1.400 . S
C2261 H2246 0.960 . S
C2261 H2247 0.960 . S
C2261 H2248 0.960 . S
C2261 C2260 1.524 1_455 S
C2262 C2259 1.403 . S
C2262 C2263 1.392 . S
C2262 C2266 1.495 . S
C2263 C2262 1.392 . S
C2263 C2264 1.385 . S
C2263 C2265 1.478 . S
C2264 H2258 0.930 1_655 S
C2264 C2260 1.400 . S
C2264 C2263 1.385 . S
C2265 C2263 1.478 . S
C2265 C2267 1.381 . S
C2265 C2271 1.404 . S
C2266 C2262 1.495 . S
C2266 H2272 0.959 . S
C2266 H2273 0.961 . S
C2266 H2274 0.960 . S
C2267 C2265 1.381 . S
C2267 C2268 1.394 . S
C2267 H2275 0.930 . S
C2268 C2267 1.394 . S
C2268 C2269 1.383 . S
C2268 H2276 0.929 . S
C2269 C2268 1.383 . S
C2269 C2270 1.377 1_655 S
C2270 H2254 0.930 . S
C2270 C2269 1.377 1_455 S
C2270 C2271 1.375 1_455 S
C2271 H2255 0.914 1_655 S
C2271 C2265 1.404 . S
C2271 C2270 1.375 1_655 S
H2272 C2266 0.959 . S
H2273 C2266 0.961 . S
H2274 C2266 0.960 . S
H2275 C2267 0.930 . S
H2276 C2268 0.929 . S
H2277 C2285 0.929 . S
H2278 C2287 0.930 . S
H2279 C2289 0.930 . S
H2280 C2292 0.929 . S
H2281 C2295 0.930 . S
H2282 C2297 0.960 . S
H2283 C2297 0.960 . S
H2284 C2297 0.960 . S
C2285 H2277 0.929 . S
C2285 C2286 1.377 . S
C2285 C2287 1.384 . S
C2286 C2285 1.377 . S
C2286 C2292 1.390 . S
C2287 H2278 0.930 . S
C2287 C2285 1.384 . S
C2287 C2288 1.372 . S
C2288 C2287 1.372 . S
C2288 C2289 1.400 . S
C2288 C2293 1.490 . S
C2289 H2279 0.930 . S
C2289 C2288 1.400 . S
C2289 C2292 1.386 . S
H2290 C2306 0.930 . S
H2291 C2307 0.931 . S
C2292 H2280 0.929 . S
C2292 C2286 1.390 . S
C2292 C2289 1.386 . S
C2293 C2288 1.490 . S
C2293 C2295 1.395 . S
C2293 C2296 1.403 . S
H2294 C2300 0.930 . S
C2295 H2281 0.930 . S
C2295 C2293 1.395 . S
C2295 C2298 1.403 . S
C2296 C2293 1.403 . S
C2296 C2297 1.524 . S
C2296 C2300 1.400 . S
C2297 H2282 0.960 . S
C2297 H2283 0.960 . S
C2297 H2284 0.960 . S
C2297 C2296 1.524 . S
C2298 C2295 1.403 . S
C2298 C2299 1.392 . S
C2298 C2302 1.495 . S
C2299 C2298 1.392 . S
C2299 C2300 1.385 . S
C2299 C2301 1.478 . S
C2300 H2294 0.930 . S
C2300 C2296 1.400 . S
C2300 C2299 1.385 . S
C2301 C2299 1.478 . S
C2301 C2303 1.381 . S
C2301 C2307 1.383 . S
C2302 C2298 1.495 . S
C2302 H2308 0.959 . S
C2302 H2309 0.961 . S
C2302 H2310 0.960 . S
C2303 C2301 1.381 . S
C2303 C2304 1.394 . S
C2303 H2311 0.930 . S
C2304 C2303 1.394 . S
C2304 C2305 1.383 . S
C2304 H2312 0.929 . S
C2305 C2304 1.383 . S
C2305 C2306 1.377 . S
C2306 H2290 0.930 . S
C2306 C2305 1.377 . S
C2306 C2307 1.379 . S
C2307 H2291 0.931 . S
C2307 C2301 1.383 . S
C2307 C2306 1.379 . S
H2308 C2302 0.959 . S
H2309 C2302 0.961 . S
H2310 C2302 0.960 . S
H2311 C2303 0.930 . S
H2312 C2304 0.929 . S
H2313 C2321 0.929 . S
H2314 C2323 0.930 . S
H2315 C2325 0.930 . S
H2316 C2328 0.929 . S
H2317 C2331 0.930 . S
H2318 C2333 0.960 . S
H2319 C2333 0.960 . S
H2320 C2333 0.960 . S
C2321 H2313 0.929 . S
C2321 C2322 1.377 . S
C2321 C2323 1.384 . S
C2322 C2321 1.377 . S
C2322 C2328 1.390 . S
C2323 H2314 0.930 . S
C2323 C2321 1.384 . S
C2323 C2324 1.372 . S
C2324 C2323 1.372 . S
C2324 C2325 1.400 . S
C2324 C2329 1.490 . S
C2325 H2315 0.930 . S
C2325 C2324 1.400 . S
C2325 C2328 1.386 . S
H2326 C2342 0.930 1_565 S
H2327 C2343 0.931 . S
C2328 H2316 0.929 . S
C2328 C2322 1.390 . S
C2328 C2325 1.386 . S
C2329 C2324 1.490 . S
C2329 C2331 1.395 . S
C2329 C2332 1.403 . S
H2330 C2336 0.930 1_565 S
C2331 H2317 0.930 . S
C2331 C2329 1.395 . S
C2331 C2334 1.403 . S
C2332 C2329 1.403 . S
C2332 C2333 1.524 1_545 S
C2332 C2336 1.400 . S
C2333 H2318 0.960 . S
C2333 H2319 0.960 . S
C2333 H2320 0.960 . S
C2333 C2332 1.524 1_565 S
C2334 C2331 1.403 . S
C2334 C2335 1.392 . S
C2334 C2338 1.495 . S
C2335 C2334 1.392 . S
C2335 C2336 1.385 . S
C2335 C2337 1.478 . S
C2336 H2330 0.930 1_545 S
C2336 C2332 1.400 . S
C2336 C2335 1.385 . S
C2337 C2335 1.478 . S
C2337 C2339 1.381 . S
C2337 C2343 1.383 . S
C2338 C2334 1.495 . S
C2338 H2344 0.959 . S
C2338 H2345 0.961 . S
C2338 H2346 0.960 . S
C2339 C2337 1.381 . S
C2339 C2340 1.394 . S
C2339 H2347 0.930 . S
C2340 C2339 1.394 . S
C2340 C2341 1.383 . S
C2340 H2348 0.929 . S
C2341 C2340 1.383 . S
C2341 C2342 1.377 . S
C2342 H2326 0.930 1_545 S
C2342 C2341 1.377 . S
C2342 C2343 1.379 . S
C2343 H2327 0.931 . S
C2343 C2337 1.383 . S
C2343 C2342 1.379 . S
H2344 C2338 0.959 . S
H2345 C2338 0.961 . S
H2346 C2338 0.960 . S
H2347 C2339 0.930 . S
H2348 C2340 0.929 . S
H2349 C2357 0.929 . S
H2350 C2359 0.930 . S
H2351 C2361 0.930 . S
H2352 C2364 0.929 . S
H2353 C2367 0.930 . S
H2354 C2369 0.960 . S
H2355 C2369 0.960 . S
H2356 C2369 0.960 . S
C2357 H2349 0.929 . S
C2357 C2358 1.377 . S
C2357 C2359 1.384 . S
C2358 C2357 1.377 . S
C2358 C2364 1.390 . S
C2359 H2350 0.930 . S
C2359 C2357 1.384 . S
C2359 C2360 1.372 . S
C2360 C2359 1.372 . S
C2360 C2361 1.400 . S
C2360 C2365 1.490 . S
C2361 H2351 0.930 . S
C2361 C2360 1.400 . S
C2361 C2364 1.386 . S
H2362 C2378 0.930 . S
H2363 C2379 0.931 . S
C2364 H2352 0.929 . S
C2364 C2358 1.390 . S
C2364 C2361 1.386 . S
C2365 C2360 1.490 . S
C2365 C2367 1.395 . S
C2365 C2368 1.403 . S
H2366 C2372 0.930 . S
C2367 H2353 0.930 . S
C2367 C2365 1.395 . S
C2367 C2370 1.403 . S
C2368 C2365 1.403 . S
C2368 C2369 1.524 . S
C2368 C2372 1.400 . S
C2369 H2354 0.960 . S
C2369 H2355 0.960 . S
C2369 H2356 0.960 . S
C2369 C2368 1.524 . S
C2370 C2367 1.403 . S
C2370 C2371 1.392 . S
C2370 C2374 1.495 . S
C2371 C2370 1.392 . S
C2371 C2372 1.385 . S
C2371 C2373 1.478 . S
C2372 H2366 0.930 . S
C2372 C2368 1.400 . S
C2372 C2371 1.385 . S
C2373 C2371 1.478 . S
C2373 C2375 1.381 . S
C2373 C2379 1.383 . S
C2374 C2370 1.495 . S
C2374 H2380 0.959 . S
C2374 H2381 0.961 . S
C2374 H2382 0.960 . S
C2375 C2373 1.381 . S
C2375 C2376 1.394 . S
C2375 H2383 0.930 . S
C2376 C2375 1.394 . S
C2376 C2377 1.383 . S
C2376 H2384 0.929 . S
C2377 C2376 1.383 . S
C2377 C2378 1.377 . S
C2378 H2362 0.930 . S
C2378 C2377 1.377 . S
C2378 C2379 1.379 . S
C2379 H2363 0.931 . S
C2379 C2373 1.383 . S
C2379 C2378 1.379 . S
H2380 C2374 0.959 . S
H2381 C2374 0.961 . S
H2382 C2374 0.960 . S
H2383 C2375 0.930 . S
H2384 C2376 0.929 . S
H2385 C2393 0.929 . S
H2386 C2395 0.930 . S
H2387 C2397 0.930 . S
H2388 C2400 0.929 . S
H2389 C2403 0.930 . S
H2390 C2405 0.960 . S
H2391 C2405 0.960 . S
H2392 C2405 0.960 . S
C2393 H2385 0.929 . S
C2393 C2394 1.377 . S
C2393 C2395 1.384 . S
C2394 C2393 1.377 . S
C2394 C2400 1.390 . S
C2395 H2386 0.930 . S
C2395 C2393 1.384 . S
C2395 C2396 1.372 . S
C2396 C2395 1.372 . S
C2396 C2397 1.400 . S
C2396 C2401 1.490 . S
C2397 H2387 0.930 . S
C2397 C2396 1.400 . S
C2397 C2400 1.386 . S
H2398 C2414 0.930 . S
H2399 C2415 0.931 . S
C2400 H2388 0.929 . S
C2400 C2394 1.390 . S
C2400 C2397 1.386 . S
C2401 C2396 1.490 . S
C2401 C2403 1.395 . S
C2401 C2404 1.403 . S
H2402 C2408 0.930 . S
C2403 H2389 0.930 . S
C2403 C2401 1.395 . S
C2403 C2406 1.403 . S
C2404 C2401 1.403 . S
C2404 C2405 1.524 . S
C2404 C2408 1.400 . S
C2405 H2390 0.960 . S
C2405 H2391 0.960 . S
C2405 H2392 0.960 . S
C2405 C2404 1.524 . S
C2406 C2403 1.403 . S
C2406 C2407 1.392 . S
C2406 C2410 1.495 . S
C2407 C2406 1.392 . S
C2407 C2408 1.385 . S
C2407 C2409 1.478 . S
C2408 H2402 0.930 . S
C2408 C2404 1.400 . S
C2408 C2407 1.385 . S
C2409 C2407 1.478 . S
C2409 C2411 1.381 . S
C2409 C2415 1.383 . S
C2410 C2406 1.495 . S
C2410 H2416 0.959 . S
C2410 H2417 0.961 . S
C2410 H2418 0.960 . S
C2411 C2409 1.381 . S
C2411 C2412 1.394 . S
C2411 H2419 0.930 . S
C2412 C2411 1.394 . S
C2412 C2413 1.383 . S
C2412 H2420 0.929 . S
C2413 C2412 1.383 . S
C2413 C2414 1.377 . S
C2414 H2398 0.930 . S
C2414 C2413 1.377 . S
C2414 C2415 1.379 . S
C2415 H2399 0.931 . S
C2415 C2409 1.383 . S
C2415 C2414 1.379 . S
H2416 C2410 0.959 . S
H2417 C2410 0.961 . S
H2418 C2410 0.960 . S
H2419 C2411 0.930 . S
H2420 C2412 0.929 . S
H2421 C2429 0.929 . S
H2422 C2431 0.930 . S
H2423 C2433 0.930 . S
H2424 C2436 0.929 . S
H2425 C2439 0.930 . S
H2426 C2441 0.960 . S
H2427 C2441 0.960 . S
H2428 C2441 0.960 . S
C2429 H2421 0.929 . S
C2429 C2430 1.377 . S
C2429 C2431 1.384 . S
C2430 C2429 1.377 . S
C2430 C2436 1.390 . S
C2431 H2422 0.930 . S
C2431 C2429 1.384 . S
C2431 C2432 1.372 . S
C2432 C2431 1.372 . S
C2432 C2433 1.400 . S
C2432 C2437 1.490 . S
C2433 H2423 0.930 . S
C2433 C2432 1.400 . S
C2433 C2436 1.386 . S
H2434 C2450 0.930 . S
H2435 C2451 0.931 . S
C2436 H2424 0.929 . S
C2436 C2430 1.390 . S
C2436 C2433 1.386 . S
C2437 C2432 1.490 . S
C2437 C2439 1.395 . S
C2437 C2440 1.403 . S
H2438 C2444 0.930 . S
C2439 H2425 0.930 . S
C2439 C2437 1.395 . S
C2439 C2442 1.403 . S
C2440 C2437 1.403 . S
C2440 C2441 1.524 . S
C2440 C2444 1.400 . S
C2441 H2426 0.960 . S
C2441 H2427 0.960 . S
C2441 H2428 0.960 . S
C2441 C2440 1.524 . S
C2442 C2439 1.403 . S
C2442 C2443 1.392 . S
C2442 C2446 1.495 . S
C2443 C2442 1.392 . S
C2443 C2444 1.385 . S
C2443 C2445 1.478 . S
C2444 H2438 0.930 . S
C2444 C2440 1.400 . S
C2444 C2443 1.385 . S
C2445 C2443 1.478 . S
C2445 C2447 1.381 . S
C2445 C2451 1.383 . S
C2446 C2442 1.495 . S
C2446 H2452 0.959 . S
C2446 H2453 0.961 . S
C2446 H2454 0.960 . S
C2447 C2445 1.381 . S
C2447 C2448 1.394 . S
C2447 H2455 0.930 . S
C2448 C2447 1.394 . S
C2448 C2449 1.383 . S
C2448 H2456 0.929 . S
C2449 C2448 1.383 . S
C2449 C2450 1.377 . S
C2450 H2434 0.930 . S
C2450 C2449 1.377 . S
C2450 C2451 1.379 . S
C2451 H2435 0.931 . S
C2451 C2445 1.383 . S
C2451 C2450 1.379 . S
H2452 C2446 0.959 . S
H2453 C2446 0.961 . S
H2454 C2446 0.960 . S
H2455 C2447 0.930 . S
H2456 C2448 0.929 . S
H2457 C2465 0.929 . S
H2458 C2467 0.930 . S
H2459 C2469 0.930 . S
H2460 C2472 0.929 . S
H2461 C2475 0.930 . S
H2462 C2477 0.960 . S
H2463 C2477 0.960 . S
H2464 C2477 0.960 . S
C2465 H2457 0.929 . S
C2465 C2466 1.377 . S
C2465 C2467 1.384 . S
C2466 C2465 1.377 . S
C2466 C2472 1.390 . S
C2467 H2458 0.930 . S
C2467 C2465 1.384 . S
C2467 C2468 1.372 . S
C2468 C2467 1.372 . S
C2468 C2469 1.400 . S
C2468 C2473 1.490 . S
C2469 H2459 0.930 . S
C2469 C2468 1.400 . S
C2469 C2472 1.386 . S
H2470 C2486 0.930 . S
H2471 C2487 0.931 . S
C2472 H2460 0.929 . S
C2472 C2466 1.390 . S
C2472 C2469 1.386 . S
C2473 C2468 1.490 . S
C2473 C2475 1.395 . S
C2473 C2476 1.403 . S
H2474 C2480 0.930 . S
C2475 H2461 0.930 . S
C2475 C2473 1.395 . S
C2475 C2478 1.403 . S
C2476 C2473 1.403 . S
C2476 C2477 1.524 . S
C2476 C2480 1.400 . S
C2477 H2462 0.960 . S
C2477 H2463 0.960 . S
C2477 H2464 0.960 . S
C2477 C2476 1.524 . S
C2478 C2475 1.403 . S
C2478 C2479 1.392 . S
C2478 C2482 1.495 . S
C2479 C2478 1.392 . S
C2479 C2480 1.385 . S
C2479 C2481 1.478 . S
C2480 H2474 0.930 . S
C2480 C2476 1.400 . S
C2480 C2479 1.385 . S
C2481 C2479 1.478 . S
C2481 C2483 1.381 . S
C2481 C2487 1.383 . S
C2482 C2478 1.495 . S
C2482 H2488 0.959 . S
C2482 H2489 0.961 . S
C2482 H2490 0.960 . S
C2483 C2481 1.381 . S
C2483 C2484 1.394 . S
C2483 H2491 0.930 . S
C2484 C2483 1.394 . S
C2484 C2485 1.383 . S
C2484 H2492 0.929 . S
C2485 C2484 1.383 . S
C2485 C2486 1.377 . S
C2486 H2470 0.930 . S
C2486 C2485 1.377 . S
C2486 C2487 1.379 . S
C2487 H2471 0.931 . S
C2487 C2481 1.383 . S
C2487 C2486 1.379 . S
H2488 C2482 0.959 . S
H2489 C2482 0.961 . S
H2490 C2482 0.960 . S
H2491 C2483 0.930 . S
H2492 C2484 0.929 . S
H2493 C2501 0.929 . S
H2494 C2503 0.930 . S
H2495 C2505 0.930 . S
H2496 C2508 0.929 . S
H2497 C2511 0.930 . S
H2498 C2513 0.960 . S
H2499 C2513 0.960 . S
H2500 C2513 0.960 . S
C2501 H2493 0.929 . S
C2501 C2502 1.377 . S
C2501 C2503 1.384 . S
C2502 C2501 1.377 . S
C2502 C2508 1.390 . S
C2503 H2494 0.930 . S
C2503 C2501 1.384 . S
C2503 C2504 1.372 . S
C2504 C2503 1.372 . S
C2504 C2505 1.400 . S
C2504 C2509 1.490 . S
C2505 H2495 0.930 . S
C2505 C2504 1.400 . S
C2505 C2508 1.386 . S
H2506 C2522 0.930 . S
H2507 C2523 0.931 . S
C2508 H2496 0.929 . S
C2508 C2502 1.390 . S
C2508 C2505 1.386 . S
C2509 C2504 1.490 . S
C2509 C2511 1.395 . S
C2509 C2512 1.403 . S
H2510 C2516 0.930 . S
C2511 H2497 0.930 . S
C2511 C2509 1.395 . S
C2511 C2514 1.403 . S
C2512 C2509 1.403 . S
C2512 C2513 1.524 . S
C2512 C2516 1.400 . S
C2513 H2498 0.960 . S
C2513 H2499 0.960 . S
C2513 H2500 0.960 . S
C2513 C2512 1.524 . S
C2514 C2511 1.403 . S
C2514 C2515 1.392 . S
C2514 C2518 1.495 . S
C2515 C2514 1.392 . S
C2515 C2516 1.385 . S
C2515 C2517 1.478 . S
C2516 H2510 0.930 . S
C2516 C2512 1.400 . S
C2516 C2515 1.385 . S
C2517 C2515 1.478 . S
C2517 C2519 1.381 . S
C2517 C2523 1.383 . S
C2518 C2514 1.495 . S
C2518 H2524 0.959 . S
C2518 H2525 0.961 . S
C2518 H2526 0.960 . S
C2519 C2517 1.381 . S
C2519 C2520 1.394 . S
C2519 H2527 0.930 . S
C2520 C2519 1.394 . S
C2520 C2521 1.383 . S
C2520 H2528 0.929 . S
C2521 C2520 1.383 . S
C2521 C2522 1.377 . S
C2522 H2506 0.930 . S
C2522 C2521 1.377 . S
C2522 C2523 1.379 . S
C2523 H2507 0.931 . S
C2523 C2517 1.383 . S
C2523 C2522 1.379 . S
H2524 C2518 0.959 . S
H2525 C2518 0.961 . S
H2526 C2518 0.960 . S
H2527 C2519 0.930 . S
H2528 C2520 0.929 . S
H2529 C2537 0.929 . S
H2530 C2539 0.930 . S
H2531 C2541 0.930 . S
H2532 C2544 0.929 . S
H2533 C2547 0.930 . S
H2534 C2549 0.960 . S
H2535 C2549 0.960 . S
H2536 C2549 0.960 . S
C2537 H2529 0.929 . S
C2537 C2538 1.377 . S
C2537 C2539 1.384 . S
C2538 C2537 1.377 . S
C2538 C2544 1.390 . S
C2539 H2530 0.930 . S
C2539 C2537 1.384 . S
C2539 C2540 1.372 . S
C2540 C2539 1.372 . S
C2540 C2541 1.400 . S
C2540 C2545 1.490 . S
C2541 H2531 0.930 . S
C2541 C2540 1.400 . S
C2541 C2544 1.386 . S
H2542 C2558 0.930 . S
H2543 C2559 0.931 . S
C2544 H2532 0.929 . S
C2544 C2538 1.390 . S
C2544 C2541 1.386 . S
C2545 C2540 1.490 . S
C2545 C2547 1.395 . S
C2545 C2548 1.403 . S
H2546 C2552 0.930 . S
C2547 H2533 0.930 . S
C2547 C2545 1.395 . S
C2547 C2550 1.403 . S
C2548 C2545 1.403 . S
C2548 C2549 1.524 . S
C2548 C2552 1.400 . S
C2549 H2534 0.960 . S
C2549 H2535 0.960 . S
C2549 H2536 0.960 . S
C2549 C2548 1.524 . S
C2550 C2547 1.403 . S
C2550 C2551 1.392 . S
C2550 C2554 1.495 . S
C2551 C2550 1.392 . S
C2551 C2552 1.385 . S
C2551 C2553 1.478 . S
C2552 H2546 0.930 . S
C2552 C2548 1.400 . S
C2552 C2551 1.385 . S
C2553 C2551 1.478 . S
C2553 C2555 1.381 . S
C2553 C2559 1.383 . S
C2554 C2550 1.495 . S
C2554 H2560 0.959 . S
C2554 H2561 0.961 . S
C2554 H2562 0.960 . S
C2555 C2553 1.381 . S
C2555 C2556 1.394 . S
C2555 H2563 0.930 . S
C2556 C2555 1.394 . S
C2556 C2557 1.383 . S
C2556 H2564 0.929 . S
C2557 C2556 1.383 . S
C2557 C2558 1.377 . S
C2558 H2542 0.930 . S
C2558 C2557 1.377 . S
C2558 C2559 1.379 . S
C2559 H2543 0.931 . S
C2559 C2553 1.383 . S
C2559 C2558 1.379 . S
H2560 C2554 0.959 . S
H2561 C2554 0.961 . S
H2562 C2554 0.960 . S
H2563 C2555 0.930 . S
H2564 C2556 0.929 . S
H2565 C2573 0.929 . S
H2566 C2575 0.930 . S
H2567 C2577 0.930 . S
H2568 C2580 0.929 . S
H2569 C2583 0.930 . S
H2570 C2585 0.960 . S
H2571 C2585 0.960 . S
H2572 C2585 0.960 . S
C2573 H2565 0.929 . S
C2573 C2574 1.377 . S
C2573 C2575 1.384 . S
C2574 C2573 1.377 . S
C2574 C2580 1.390 . S
C2575 H2566 0.930 . S
C2575 C2573 1.384 . S
C2575 C2576 1.372 . S
C2576 C2575 1.372 . S
C2576 C2577 1.400 . S
C2576 C2581 1.490 . S
C2577 H2567 0.930 . S
C2577 C2576 1.400 . S
C2577 C2580 1.386 . S
H2578 C2594 0.930 . S
H2579 C2595 0.931 . S
C2580 H2568 0.929 . S
C2580 C2574 1.390 . S
C2580 C2577 1.386 . S
C2581 C2576 1.490 . S
C2581 C2583 1.395 . S
C2581 C2584 1.403 . S
H2582 C2588 0.930 . S
C2583 H2569 0.930 . S
C2583 C2581 1.395 . S
C2583 C2586 1.403 . S
C2584 C2581 1.403 . S
C2584 C2585 1.524 . S
C2584 C2588 1.400 . S
C2585 H2570 0.960 . S
C2585 H2571 0.960 . S
C2585 H2572 0.960 . S
C2585 C2584 1.524 . S
C2586 C2583 1.403 . S
C2586 C2587 1.392 . S
C2586 C2590 1.495 . S
C2587 C2586 1.392 . S
C2587 C2588 1.385 . S
C2587 C2589 1.478 . S
C2588 H2582 0.930 . S
C2588 C2584 1.400 . S
C2588 C2587 1.385 . S
C2589 C2587 1.478 . S
C2589 C2591 1.381 . S
C2589 C2595 1.383 . S
C2590 C2586 1.495 . S
C2590 H2596 0.959 . S
C2590 H2597 0.961 . S
C2590 H2598 0.960 . S
C2591 C2589 1.381 . S
C2591 C2592 1.394 . S
C2591 H2599 0.930 . S
C2592 C2591 1.394 . S
C2592 C2593 1.383 . S
C2592 H2600 0.929 . S
C2593 C2592 1.383 . S
C2593 C2594 1.377 . S
C2594 H2578 0.930 . S
C2594 C2593 1.377 . S
C2594 C2595 1.379 . S
C2595 H2579 0.931 . S
C2595 C2589 1.383 . S
C2595 C2594 1.379 . S
H2596 C2590 0.959 . S
H2597 C2590 0.961 . S
H2598 C2590 0.960 . S
H2599 C2591 0.930 . S
H2600 C2592 0.929 . S
H2601 C2609 0.929 . S
H2602 C2611 0.930 . S
H2603 C2613 0.930 . S
H2604 C2616 0.929 . S
H2605 C2619 0.930 . S
H2606 C2621 0.960 . S
H2607 C2621 0.960 . S
H2608 C2621 0.960 . S
C2609 H2601 0.929 . S
C2609 C2610 1.377 . S
C2609 C2611 1.384 . S
C2610 C2609 1.377 . S
C2610 C2616 1.390 . S
C2611 H2602 0.930 . S
C2611 C2609 1.384 . S
C2611 C2612 1.372 . S
C2612 C2611 1.372 . S
C2612 C2613 1.400 . S
C2612 C2617 1.490 . S
C2613 H2603 0.930 . S
C2613 C2612 1.400 . S
C2613 C2616 1.386 . S
H2614 C2630 0.930 . S
H2615 C2631 0.931 . S
C2616 H2604 0.929 . S
C2616 C2610 1.390 . S
C2616 C2613 1.386 . S
C2617 C2612 1.490 . S
C2617 C2619 1.395 . S
C2617 C2620 1.403 . S
H2618 C2624 0.930 . S
C2619 H2605 0.930 . S
C2619 C2617 1.395 . S
C2619 C2622 1.403 . S
C2620 C2617 1.403 . S
C2620 C2621 1.524 . S
C2620 C2624 1.400 . S
C2621 H2606 0.960 . S
C2621 H2607 0.960 . S
C2621 H2608 0.960 . S
C2621 C2620 1.524 . S
C2622 C2619 1.403 . S
C2622 C2623 1.392 . S
C2622 C2626 1.495 . S
C2623 C2622 1.392 . S
C2623 C2624 1.385 . S
C2623 C2625 1.478 . S
C2624 H2618 0.930 . S
C2624 C2620 1.400 . S
C2624 C2623 1.385 . S
C2625 C2623 1.478 . S
C2625 C2627 1.381 . S
C2625 C2631 1.383 . S
C2626 C2622 1.495 . S
C2626 H2632 0.959 . S
C2626 H2633 0.961 . S
C2626 H2634 0.960 . S
C2627 C2625 1.381 . S
C2627 C2628 1.394 . S
C2627 H2635 0.930 . S
C2628 C2627 1.394 . S
C2628 C2629 1.383 . S
C2628 H2636 0.929 . S
C2629 C2628 1.383 . S
C2629 C2630 1.377 . S
C2630 H2614 0.930 . S
C2630 C2629 1.377 . S
C2630 C2631 1.379 . S
C2631 H2615 0.931 . S
C2631 C2625 1.383 . S
C2631 C2630 1.379 . S
H2632 C2626 0.959 . S
H2633 C2626 0.961 . S
H2634 C2626 0.960 . S
H2635 C2627 0.930 . S
H2636 C2628 0.929 . S
H2637 C2645 0.929 . S
H2638 C2647 0.930 . S
H2639 C2649 0.930 . S
H2640 C2652 0.929 . S
H2641 C2655 0.930 . S
H2642 C2657 0.960 . S
H2643 C2657 0.960 . S
H2644 C2657 0.960 . S
C2645 H2637 0.929 . S
C2645 C2646 1.377 . S
C2645 C2647 1.384 . S
C2646 C2645 1.377 . S
C2646 C2652 1.390 . S
C2647 H2638 0.930 . S
C2647 C2645 1.384 . S
C2647 C2648 1.372 . S
C2648 C2647 1.372 . S
C2648 C2649 1.400 . S
C2648 C2653 1.490 . S
C2649 H2639 0.930 . S
C2649 C2648 1.400 . S
C2649 C2652 1.386 . S
H2650 C2666 0.930 . S
H2651 C2667 0.931 . S
C2652 H2640 0.929 . S
C2652 C2646 1.390 . S
C2652 C2649 1.386 . S
C2653 C2648 1.490 . S
C2653 C2655 1.395 . S
C2653 C2656 1.403 . S
H2654 C2660 0.930 . S
C2655 H2641 0.930 . S
C2655 C2653 1.395 . S
C2655 C2658 1.403 . S
C2656 C2653 1.403 . S
C2656 C2657 1.524 . S
C2656 C2660 1.400 . S
C2657 H2642 0.960 . S
C2657 H2643 0.960 . S
C2657 H2644 0.960 . S
C2657 C2656 1.524 . S
C2658 C2655 1.403 . S
C2658 C2659 1.392 . S
C2658 C2662 1.495 . S
C2659 C2658 1.392 . S
C2659 C2660 1.385 . S
C2659 C2661 1.478 . S
C2660 H2654 0.930 . S
C2660 C2656 1.400 . S
C2660 C2659 1.385 . S
C2661 C2659 1.478 . S
C2661 C2663 1.381 . S
C2661 C2667 1.383 . S
C2662 C2658 1.495 . S
C2662 H2668 0.959 . S
C2662 H2669 0.961 . S
C2662 H2670 0.960 . S
C2663 C2661 1.381 . S
C2663 C2664 1.394 . S
C2663 H2671 0.930 . S
C2664 C2663 1.394 . S
C2664 C2665 1.383 . S
C2664 H2672 0.929 . S
C2665 C2664 1.383 . S
C2665 C2666 1.377 . S
C2666 H2650 0.930 . S
C2666 C2665 1.377 . S
C2666 C2667 1.379 . S
C2667 H2651 0.931 . S
C2667 C2661 1.383 . S
C2667 C2666 1.379 . S
H2668 C2662 0.959 . S
H2669 C2662 0.961 . S
H2670 C2662 0.960 . S
H2671 C2663 0.930 . S
H2672 C2664 0.929 . S
H2673 C2681 0.929 . S
H2674 C2683 0.930 . S
H2675 C2685 0.930 . S
H2676 C2688 0.929 . S
H2677 C2691 0.930 . S
H2678 C2693 0.960 . S
H2679 C2693 0.960 . S
H2680 C2693 0.960 . S
C2681 H2673 0.929 . S
C2681 C2682 1.377 . S
C2681 C2683 1.384 . S
C2682 C2681 1.377 . S
C2682 C2688 1.390 . S
C2683 H2674 0.930 . S
C2683 C2681 1.384 . S
C2683 C2684 1.372 . S
C2684 C2683 1.372 . S
C2684 C2685 1.400 . S
C2684 C2689 1.490 . S
C2685 H2675 0.930 . S
C2685 C2684 1.400 . S
C2685 C2688 1.386 . S
H2686 C2702 0.930 . S
H2687 C2703 0.931 . S
C2688 H2676 0.929 . S
C2688 C2682 1.390 . S
C2688 C2685 1.386 . S
C2689 C2684 1.490 . S
C2689 C2691 1.395 . S
C2689 C2692 1.403 . S
H2690 C2696 0.930 . S
C2691 H2677 0.930 . S
C2691 C2689 1.395 . S
C2691 C2694 1.403 . S
C2692 C2689 1.403 . S
C2692 C2693 1.524 . S
C2692 C2696 1.400 . S
C2693 H2678 0.960 . S
C2693 H2679 0.960 . S
C2693 H2680 0.960 . S
C2693 C2692 1.524 . S
C2694 C2691 1.403 . S
C2694 C2695 1.392 . S
C2694 C2698 1.495 . S
C2695 C2694 1.392 . S
C2695 C2696 1.385 . S
C2695 C2697 1.478 . S
C2696 H2690 0.930 . S
C2696 C2692 1.400 . S
C2696 C2695 1.385 . S
C2697 C2695 1.478 . S
C2697 C2699 1.381 . S
C2697 C2703 1.383 . S
C2698 C2694 1.495 . S
C2698 H2704 0.959 . S
C2698 H2705 0.961 . S
C2698 H2706 0.960 . S
C2699 C2697 1.381 . S
C2699 C2700 1.394 . S
C2699 H2707 0.930 . S
C2700 C2699 1.394 . S
C2700 C2701 1.383 . S
C2700 H2708 0.929 . S
C2701 C2700 1.383 . S
C2701 C2702 1.377 . S
C2702 H2686 0.930 . S
C2702 C2701 1.377 . S
C2702 C2703 1.379 . S
C2703 H2687 0.931 . S
C2703 C2697 1.383 . S
C2703 C2702 1.379 . S
H2704 C2698 0.959 . S
H2705 C2698 0.961 . S
H2706 C2698 0.960 . S
H2707 C2699 0.930 . S
H2708 C2700 0.929 . S
H2709 C2717 0.929 . S
H2710 C2719 0.930 . S
H2711 C2721 0.930 . S
H2712 C2724 0.929 . S
H2713 C2727 0.930 . S
H2714 C2729 0.960 . S
H2715 C2729 0.960 . S
H2716 C2729 0.960 . S
C2717 H2709 0.929 . S
C2717 C2718 1.377 . S
C2717 C2719 1.384 . S
C2718 C2717 1.377 . S
C2718 C2724 1.390 . S
C2719 H2710 0.930 . S
C2719 C2717 1.384 . S
C2719 C2720 1.372 . S
C2720 C2719 1.372 . S
C2720 C2721 1.400 . S
C2720 C2725 1.490 . S
C2721 H2711 0.930 . S
C2721 C2720 1.400 . S
C2721 C2724 1.386 . S
H2722 C2738 0.930 . S
H2723 C2739 0.931 . S
C2724 H2712 0.929 . S
C2724 C2718 1.390 . S
C2724 C2721 1.386 . S
C2725 C2720 1.490 . S
C2725 C2727 1.395 . S
C2725 C2728 1.403 . S
H2726 C2732 0.930 . S
C2727 H2713 0.930 . S
C2727 C2725 1.395 . S
C2727 C2730 1.403 . S
C2728 C2725 1.403 . S
C2728 C2729 1.524 . S
C2728 C2732 1.400 . S
C2729 H2714 0.960 . S
C2729 H2715 0.960 . S
C2729 H2716 0.960 . S
C2729 C2728 1.524 . S
C2730 C2727 1.403 . S
C2730 C2731 1.392 . S
C2730 C2734 1.495 . S
C2731 C2730 1.392 . S
C2731 C2732 1.385 . S
C2731 C2733 1.478 . S
C2732 H2726 0.930 . S
C2732 C2728 1.400 . S
C2732 C2731 1.385 . S
C2733 C2731 1.478 . S
C2733 C2735 1.381 . S
C2733 C2739 1.383 . S
C2734 C2730 1.495 . S
C2734 H2740 0.959 . S
C2734 H2741 0.961 . S
C2734 H2742 0.960 . S
C2735 C2733 1.381 . S
C2735 C2736 1.394 . S
C2735 H2743 0.930 . S
C2736 C2735 1.394 . S
C2736 C2737 1.383 . S
C2736 H2744 0.929 . S
C2737 C2736 1.383 . S
C2737 C2738 1.377 . S
C2738 H2722 0.930 . S
C2738 C2737 1.377 . S
C2738 C2739 1.379 . S
C2739 H2723 0.931 . S
C2739 C2733 1.383 . S
C2739 C2738 1.379 . S
H2740 C2734 0.959 . S
H2741 C2734 0.961 . S
H2742 C2734 0.960 . S
H2743 C2735 0.930 . S
H2744 C2736 0.929 . S
H2745 C2753 0.929 . S
H2746 C2755 0.930 . S
H2747 C2757 0.930 . S
H2748 C2760 0.929 . S
H2749 C2763 0.930 . S
H2750 C2765 0.960 . S
H2751 C2765 0.960 . S
H2752 C2765 0.960 . S
C2753 H2745 0.929 . S
C2753 C2754 1.377 . S
C2753 C2755 1.384 . S
C2754 C2753 1.377 . S
C2754 C2760 1.390 . S
C2755 H2746 0.930 . S
C2755 C2753 1.384 . S
C2755 C2756 1.372 . S
C2756 C2755 1.372 . S
C2756 C2757 1.400 . S
C2756 C2761 1.490 . S
C2757 H2747 0.930 . S
C2757 C2756 1.400 . S
C2757 C2760 1.386 . S
H2758 C2774 0.930 . S
H2759 C2775 0.931 . S
C2760 H2748 0.929 . S
C2760 C2754 1.390 . S
C2760 C2757 1.386 . S
C2761 C2756 1.490 . S
C2761 C2763 1.395 . S
C2761 C2764 1.403 . S
H2762 C2768 0.930 . S
C2763 H2749 0.930 . S
C2763 C2761 1.395 . S
C2763 C2766 1.403 . S
C2764 C2761 1.403 . S
C2764 C2765 1.524 . S
C2764 C2768 1.400 . S
C2765 H2750 0.960 . S
C2765 H2751 0.960 . S
C2765 H2752 0.960 . S
C2765 C2764 1.524 . S
C2766 C2763 1.403 . S
C2766 C2767 1.392 . S
C2766 C2770 1.495 . S
C2767 C2766 1.392 . S
C2767 C2768 1.385 . S
C2767 C2769 1.478 . S
C2768 H2762 0.930 . S
C2768 C2764 1.400 . S
C2768 C2767 1.385 . S
C2769 C2767 1.478 . S
C2769 C2771 1.381 . S
C2769 C2775 1.383 . S
C2770 C2766 1.495 . S
C2770 H2776 0.959 . S
C2770 H2777 0.961 . S
C2770 H2778 0.960 . S
C2771 C2769 1.381 . S
C2771 C2772 1.394 . S
C2771 H2779 0.930 . S
C2772 C2771 1.394 . S
C2772 C2773 1.383 . S
C2772 H2780 0.929 . S
C2773 C2772 1.383 . S
C2773 C2774 1.377 . S
C2774 H2758 0.930 . S
C2774 C2773 1.377 . S
C2774 C2775 1.379 . S
C2775 H2759 0.931 . S
C2775 C2769 1.383 . S
C2775 C2774 1.379 . S
H2776 C2770 0.959 . S
H2777 C2770 0.961 . S
H2778 C2770 0.960 . S
H2779 C2771 0.930 . S
H2780 C2772 0.929 . S
C846 C469 1.388 . S
C865 C662 1.272 . S
C882 C505 1.385 . S
C901 C683 1.326 . S
C918 C433 1.314 . S
C937 C703 1.170 . S
C954 C397 1.344 . S
C973 C682 1.182 1_556 S
C1009 C704 1.361 . S
C990 C325 1.417 . S
C1026 C361 1.349 . S
C1045 C661 1.077 1_556 S
C1081 C663 1.216 . S
C1062 C421 1.329 . S
C1117 C684 1.282 . S
C1098 C349 1.316 . S
C1134 C385 1.373 . S
C1153 C706 1.103 1_556 S
C1170 C493 1.320 . S
C1189 C685 1.180 . S
C1206 C529 1.273 . S
C1225 C705 1.222 . S
C1261 C664 1.088 . S
C1242 C457 1.336 . S
C1297 C725 1.272 . S
C1278 C37 1.389 . S
C1314 C73 1.386 . S
C1333 C746 1.309 . S
C1350 C1 1.318 . S
C1369 C766 1.162 . S
C1386 C613 1.343 . S
C1405 C745 1.100 . S
C1422 C541 1.421 . S
C1441 C767 1.295 . S
C1458 C577 1.352 . S
C1477 C724 1.139 . S
C1494 C637 1.331 . S
C1513 C726 1.259 . S
C1530 C565 1.315 . S
C1549 C747 1.214 . S
C1585 C769 1.127 . S
C1566 C601 1.376 . S
C1602 C61 1.317 . S
C1621 C748 1.139 . S
C1657 C768 1.192 . S
C1638 C97 1.276 . S
C1674 C25 1.342 . S
C1693 C727 1.196 . S
C1729 C788 1.346 . S
C1710 C253 1.386 . S
C1746 C289 1.386 . S
C1765 C809 1.312 . S
C1801 C829 1.075 . S
C1782 C217 1.317 . S
C1837 C808 1.092 . S
C1818 C181 1.347 . S
C1873 C830 1.301 . S
C1854 C109 1.420 . S
C1890 C145 1.349 . S
C1909 C787 1.190 . S
C1926 C205 1.330 . S
C1945 C789 1.256 . S
C1962 C133 1.316 . S
C1981 C810 1.282 . S
C2017 C832 1.107 . S
C1998 C169 1.373 . S
C2034 C277 1.315 . S
C2053 C811 1.065 . S
C2070 C313 1.274 . S
C2089 C831 1.233 . S
C2106 C241 1.336 . S
C2125 C790 1.077 . S
C2142 C571 1.386 . S
C2161 C666 1.336 1_565 S
C2197 C687 1.386 . S
C2178 C607 1.425 . S
C2214 C643 1.494 . S
C2233 C707 1.458 . S
C2250 C247 1.541 . S
C2269 C686 1.517 1_655 S
C2286 C283 1.440 . S
C2305 C708 1.411 . S
C2341 C665 1.473 . S
C2322 C319 1.500 . S
C2358 C139 1.385 . S
C2377 C729 1.314 . S
C2394 C175 1.425 . S
C2413 C750 1.374 . S
C2430 C211 1.494 . S
C2449 C770 1.435 . S
C2466 C463 1.541 . S
C2485 C749 1.480 . S
C2521 C771 1.392 . S
C2502 C499 1.440 . S
C2538 C535 1.500 . S
C2557 C728 1.475 . S
C2574 C355 1.386 . S
C2593 C792 1.322 . S
C2610 C391 1.425 . S
C2629 C813 1.360 . S
C2665 C833 1.476 . S
C2646 C427 1.492 . S
C2682 C31 1.541 . S
C2701 C812 1.485 . S
C2718 C67 1.439 . S
C2737 C834 1.372 . S
C2754 C103 1.498 . S
C2773 C791 1.472 . S
