# Generated by pormake.
# Topology rtl, (3,6)-cn, num edge types: 1
# Building blocks:
#     Node 0, Type 0, BuildingBlock: BETDAH_clean_linker_0, # of connection points: 3
#     Node 1, Type 0, BuildingBlock: BETDAH_clean_linker_0, # of connection points: 3
#     Node 2, Type 0, BuildingBlock: BETDAH_clean_linker_0, # of connection points: 3
#     Node 3, Type 0, BuildingBlock: BETDAH_clean_linker_0, # of connection points: 3
#     Node 4, Type 1, BuildingBlock: FUNLAD_clean_sbu_0, # of connection points: 6
#     Node 5, Type 1, BuildingBlock: FUNLAD_clean_sbu_0, # of connection points: 6
#     Edge 6, Type (0, 1), BuildingBlock: CIFDUS_clean_linker_0, # of connection points: 2
#     Edge 7, Type (0, 1), BuildingBlock: CIFDUS_clean_linker_0, # of connection points: 2
#     Edge 8, Type (0, 1), BuildingBlock: CIFDUS_clean_linker_0, # of connection points: 2
#     Edge 9, Type (0, 1), BuildingBlock: CIFDUS_clean_linker_0, # of connection points: 2
#     Edge 10, Type (0, 1), BuildingBlock: CIFDUS_clean_linker_0, # of connection points: 2
#     Edge 11, Type (0, 1), BuildingBlock: CIFDUS_clean_linker_0, # of connection points: 2
#     Edge 12, Type (0, 1), BuildingBlock: CIFDUS_clean_linker_0, # of connection points: 2
#     Edge 13, Type (0, 1), BuildingBlock: CIFDUS_clean_linker_0, # of connection points: 2
#     Edge 14, Type (0, 1), BuildingBlock: CIFDUS_clean_linker_0, # of connection points: 2
#     Edge 15, Type (0, 1), BuildingBlock: CIFDUS_clean_linker_0, # of connection points: 2
#     Edge 16, Type (0, 1), BuildingBlock: CIFDUS_clean_linker_0, # of connection points: 2
#     Edge 17, Type (0, 1), BuildingBlock: CIFDUS_clean_linker_0, # of connection points: 2
# Relax obj value: 0.003
# Max RMSD: 0.038
# Mean RMSD: 0.024
data_MOF--net-rtl--node1-FUNLAD_clean_sbu_0--node2-BETDAH_clean_linker_0--edge1-CIFDUS_clean_linker_0
_symmetry_space_group_name_H-M    P1
_symmetry_Int_Tables_number       1
_symmetry_cell_setting            triclinic
loop_
_symmetry_equiv_pos_as_xyz
'x, y, z'
_cell_length_a     35.710012
_cell_length_b     35.895108
_cell_length_c     18.183122
_cell_angle_alpha  91.458898
_cell_angle_beta   92.56656
_cell_angle_gamma 89.804404
loop_
_atom_site_label
_atom_site_type_symbol
_atom_site_fract_x
_atom_site_fract_y
_atom_site_fract_z
_atom_type_partial_charge
H0 H 0.10641 0.88774 0.99227 0.0
H1 H 0.16184 0.79514 0.09813 0.0
H2 H 0.14717 0.796 0.86228 0.0
C3 C 0.12168 0.86163 0.98882 0.0
C4 C 0.12621 0.84455 0.91961 0.0
C5 C 0.13386 0.84389 0.05375 0.0
C6 C 0.15272 0.80936 0.04859 0.0
C7 C 0.15802 0.79243 0.97909 0.0
C8 C 0.14398 0.80974 0.91544 0.0
N9 N 0.17398 0.7564 0.9711 0.0
C10 C 0.20561 0.74366 0.01031 0.0
H11 H 0.60792 0.62193 0.53576 0.0
H12 H 0.67777 0.70724 0.4513 0.0
H13 H 0.66008 0.70331 0.6836 0.0
C14 C 0.62642 0.64565 0.54516 0.0
C15 C 0.63235 0.66039 0.61674 0.0
C16 C 0.64224 0.66262 0.48506 0.0
C17 C 0.66562 0.69394 0.49741 0.0
C18 C 0.67251 0.70822 0.5697 0.0
C19 C 0.65521 0.69177 0.62831 0.0
N20 N 0.69539 0.73979 0.58659 0.0
C21 C 0.7216 0.75519 0.54202 0.0
H22 H 0.926 0.14881 0.98917 0.0
H23 H 0.82295 0.17934 0.08942 0.0
H24 H 0.8267 0.16915 0.8539 0.0
C25 C 0.89712 0.15821 0.98389 0.0
C26 C 0.8792 0.15939 0.91387 0.0
C27 C 0.87702 0.16483 0.0475 0.0
C28 C 0.83897 0.17521 0.04064 0.0
C29 C 0.82108 0.17764 0.97036 0.0
C30 C 0.84109 0.16891 0.90767 0.0
N31 N 0.78205 0.18435 0.96111 0.0
C32 C 0.76327 0.21323 0.99617 0.0
H33 H 0.41101 0.38817 0.54487 0.0
H34 H 0.35805 0.29282 0.63537 0.0
H35 H 0.37643 0.29562 0.40385 0.0
C36 C 0.39681 0.3616 0.53719 0.0
C37 C 0.39425 0.3447 0.46676 0.0
C38 C 0.38433 0.343 0.59871 0.0
C39 C 0.36718 0.30779 0.5884 0.0
C40 C 0.3639 0.29103 0.51761 0.0
C41 C 0.37807 0.30927 0.45778 0.0
N42 N 0.35049 0.25417 0.50576 0.0
C43 C 0.31767 0.24056 0.53324 0.0
C44 C 0.04967 0.96915 0.37451 0.0
N45 N 0.0727 0.0709 0.49087 0.0
C46 C 0.10911 0.05968 0.49806 0.0
C47 C 0.13799 0.08591 0.50477 0.0
C48 C 0.12946 0.12414 0.50363 0.0
C49 C 0.09164 0.13492 0.49612 0.0
C50 C 0.0636 0.10775 0.49007 0.0
Zn51 Zn 0.03104 0.03133 0.483 0.0
C52 C 0.97168 0.04744 0.36974 0.0
N53 N 0.94561 0.94697 0.46921 0.0
C54 C 0.951 0.90974 0.47832 0.0
C55 C 0.9104 0.96143 0.46153 0.0
C56 C 0.87907 0.9387 0.46517 0.0
C57 C 0.88357 0.90054 0.4781 0.0
C58 C 0.92016 0.88585 0.48287 0.0
Zn59 Zn 0.98878 0.98523 0.47489 0.0
O60 O 0.06041 1.0007 0.40125 0.0
C61 C 0.04686 0.96978 0.59042 0.0
O62 O 0.01954 0.95484 0.39583 0.0
H63 H 0.90639 0.99104 0.4551 0.0
H64 H 0.11581 0.03028 0.4984 0.0
H65 H 0.97917 0.89874 0.48465 0.0
O66 O 0.059 1.00066 0.56828 0.0
O67 O 0.01708 0.95591 0.56025 0.0
H68 H 0.0345 0.11614 0.48483 0.0
O69 O 0.95907 0.01632 0.55424 0.0
O70 O 1.00097 0.06089 0.56363 0.0
O71 O 0.96119 0.01567 0.39005 0.0
O72 O 1.0016 0.06158 0.39878 0.0
C73 C 0.97021 0.04725 0.58273 0.0
H74 H 0.16677 0.07631 0.50933 0.0
H75 H 0.08377 0.16408 0.49553 0.0
H76 H 0.85146 0.9512 0.45989 0.0
H77 H 0.92494 0.85661 0.4933 0.0
C78 C 0.46501 0.46683 0.93732 0.0
N79 N 0.57013 0.4409 0.03798 0.0
C80 C 0.56098 0.40414 0.03953 0.0
C81 C 0.58884 0.37669 0.03505 0.0
C82 C 0.62643 0.38718 0.02851 0.0
C83 C 0.63502 0.42533 0.02845 0.0
C84 C 0.60641 0.45175 0.03331 0.0
Zn85 Zn 0.52971 0.4819 0.04067 0.0
C86 C 0.54431 0.54051 0.93004 0.0
N87 N 0.44877 0.57085 0.04582 0.0
C88 C 0.41219 0.56085 0.04987 0.0
C89 C 0.45865 0.60731 0.04187 0.0
C90 C 0.4312 0.63527 0.04056 0.0
C91 C 0.39314 0.6257 0.04364 0.0
C92 C 0.38389 0.58787 0.04904 0.0
Zn93 Zn 0.48896 0.52949 0.04344 0.0
O94 O 0.49545 0.45215 0.96146 0.0
C95 C 0.47445 0.47041 0.15354 0.0
O96 O 0.45554 0.49888 0.96195 0.0
H97 H 0.48787 0.61474 0.03895 0.0
H98 H 0.53198 0.39606 0.04322 0.0
H99 H 0.40482 0.53174 0.05263 0.0
O100 O 0.50289 0.45519 0.12564 0.0
O101 O 0.46264 0.50154 0.12964 0.0
H102 H 0.61322 0.48106 0.03258 0.0
O103 O 0.52341 0.55919 0.12354 0.0
O104 O 0.56311 0.51235 0.12104 0.0
O105 O 0.51625 0.55639 0.95814 0.0
O106 O 0.55563 0.50934 0.9543 0.0
C107 C 0.55395 0.54425 0.1466 0.0
H108 H 0.5809 0.34759 0.03461 0.0
H109 H 0.66363 0.43473 0.0245 0.0
H110 H 0.43969 0.66408 0.03699 0.0
H111 H 0.35496 0.57907 0.05037 0.0
H112 H 0.25104 0.24874 0.46251 0.0
H113 H 0.30917 0.18754 0.63345 0.0
H114 H 0.25463 0.14677 0.6427 0.0
H115 H 0.19236 0.12566 0.59476 0.0
H116 H 0.13508 0.18621 0.42109 0.0
H117 H 0.18693 0.23036 0.42078 0.0
C118 C 0.25127 0.22695 0.50283 0.0
C119 C 0.28358 0.22113 0.54783 0.0
C120 C 0.22012 0.20333 0.5067 0.0
C121 C 0.28419 0.19261 0.59906 0.0
C122 C 0.25318 0.1692 0.60386 0.0
C123 C 0.19122 0.14857 0.55695 0.0
C124 C 0.15995 0.15243 0.50765 0.0
C125 C 0.22132 0.17376 0.55671 0.0
C126 C 0.15864 0.18267 0.45992 0.0
C127 C 0.18839 0.20786 0.45943 0.0
H128 H 0.27353 0.74902 0.95565 0.0
H129 H 0.21199 0.69476 0.12055 0.0
H130 H 0.26611 0.65453 0.1496 0.0
H131 H 0.32904 0.63149 0.12028 0.0
H132 H 0.38948 0.68478 0.95174 0.0
H133 H 0.33816 0.72901 0.93269 0.0
C134 C 0.27244 0.72892 0.99907 0.0
C135 C 0.23928 0.72487 0.03661 0.0
C136 C 0.30337 0.70552 0.01424 0.0
C137 C 0.2376 0.69848 0.09181 0.0
C138 C 0.26839 0.67535 0.10792 0.0
C139 C 0.33102 0.65284 0.07953 0.0
C140 C 0.36309 0.65457 0.03723 0.0
C141 C 0.30112 0.67802 0.0682 0.0
C142 C 0.36539 0.68289 0.98555 0.0
C143 C 0.3359 0.70811 0.97424 0.0
H144 H 0.73423 0.82612 0.57556 0.0
H145 H 0.776 0.73298 0.44983 0.0
H146 H 0.83046 0.77006 0.41712 0.0
H147 H 0.86727 0.82884 0.42941 0.0
H148 H 0.8249 0.92025 0.56082 0.0
H149 H 0.76969 0.88421 0.58596 0.0
C150 C 0.75505 0.81424 0.54001 0.0
C151 C 0.75124 0.77733 0.51416 0.0
C152 C 0.78629 0.8354 0.523 0.0
C153 C 0.7784 0.76168 0.46933 0.0
C154 C 0.80956 0.78279 0.45119 0.0
C155 C 0.84597 0.84076 0.46362 0.0
C156 C 0.85018 0.87744 0.49246 0.0
C157 C 0.81408 0.8196 0.47861 0.0
C158 C 0.82216 0.89247 0.53654 0.0
C159 C 0.79058 0.8718 0.5514 0.0
H160 H 0.75892 0.28048 0.9376 0.0
H161 H 0.71334 0.21265 0.10357 0.0
H162 H 0.66692 0.26126 0.13032 0.0
H163 H 0.63739 0.32189 0.10127 0.0
H164 H 0.68278 0.38857 0.9324 0.0
H165 H 0.73125 0.34191 0.9123 0.0
C166 C 0.73917 0.27679 0.98048 0.0
C167 C 0.7395 0.24355 0.01927 0.0
C168 C 0.71237 0.30453 0.9945 0.0
C169 C 0.71364 0.23843 0.07385 0.0
C170 C 0.68702 0.26606 0.08868 0.0
C171 C 0.65786 0.32613 0.06003 0.0
C172 C 0.65638 0.35875 0.01846 0.0
C173 C 0.68572 0.299 0.04844 0.0
C174 C 0.68346 0.364 0.96583 0.0
C175 C 0.71113 0.33723 0.95399 0.0
H176 H 0.14344 0.91503 0.10552 0.0
H177 H 0.09762 0.80903 0.16133 0.0
H178 H 0.06811 0.83812 0.26746 0.0
H179 H 0.0507 0.89495 0.33772 0.0
H180 H 0.09819 1.00057 0.28315 0.0
H181 H 0.13144 0.97051 0.18323 0.0
C182 C 0.1275 0.89825 0.14176 0.0
C183 C 0.12261 0.86 0.12557 0.0
C184 C 0.1104 0.91522 0.20221 0.0
C185 C 0.10209 0.83846 0.17307 0.0
C186 C 0.08487 0.85517 0.23327 0.0
C187 C 0.06848 0.91131 0.30412 0.0
C188 C 0.07155 0.95003 0.31725 0.0
C189 C 0.08803 0.89372 0.24725 0.0
C190 C 0.0952 0.97076 0.27407 0.0
C191 C 0.11423 0.9536 0.21684 0.0
H192 H 0.6338 0.588 0.65567 0.0
H193 H 0.5894 0.69557 0.71723 0.0
H194 H 0.55757 0.66801 0.81917 0.0
H195 H 0.54218 0.61312 0.89038 0.0
H196 H 0.58941 0.5061 0.83227 0.0
H197 H 0.62025 0.53354 0.72953 0.0
C198 C 0.61706 0.60528 0.69146 0.0
C199 C 0.61377 0.64364 0.67911 0.0
C200 C 0.59938 0.58935 0.7505 0.0
C201 C 0.59243 0.66596 0.72615 0.0
C202 C 0.57416 0.65021 0.78417 0.0
C203 C 0.55919 0.59583 0.85513 0.0
C204 C 0.56335 0.55762 0.86873 0.0
C205 C 0.5774 0.61192 0.79684 0.0
C206 C 0.58581 0.53563 0.82309 0.0
C207 C 0.60341 0.55126 0.76421 0.0
H208 H 0.85461 0.11016 0.13342 0.0
H209 H 0.94058 0.19292 0.11666 0.0
H210 H 0.97722 0.16488 0.21843 0.0
H211 H 0.98729 0.11307 0.30401 0.0
H212 H 0.90243 0.02806 0.31326 0.0
H213 H 0.86313 0.06045 0.22259 0.0
C214 C 0.88084 0.12264 0.15373 0.0
C215 C 0.89468 0.15384 0.11884 0.0
C216 C 0.90238 0.10539 0.20974 0.0
C217 C 0.92923 0.1692 0.14379 0.0
C218 C 0.9503 0.15293 0.20129 0.0
C219 C 0.96015 0.10173 0.28635 0.0
C220 C 0.94811 0.06793 0.31496 0.0
C221 C 0.93765 0.12036 0.23329 0.0
C222 C 0.91272 0.05375 0.29166 0.0
C223 C 0.89004 0.07236 0.23998 0.0
H224 H 0.3721 0.41349 0.65102 0.0
H225 H 0.42007 0.30782 0.71272 0.0
H226 H 0.44774 0.33637 0.82595 0.0
H227 H 0.46378 0.39281 0.90066 0.0
H228 H 0.41463 0.49829 0.84021 0.0
H229 H 0.38198 0.46847 0.73351 0.0
C230 C 0.38805 0.39664 0.69005 0.0
C231 C 0.39417 0.35866 0.67347 0.0
C232 C 0.40412 0.41333 0.75473 0.0
C233 C 0.41468 0.33703 0.72457 0.0
C234 C 0.43084 0.35344 0.78894 0.0
C235 C 0.44563 0.40918 0.86449 0.0
C236 C 0.44206 0.4478 0.8778 0.0
C237 C 0.42664 0.39177 0.80352 0.0
C238 C 0.41798 0.46854 0.83111 0.0
C239 C 0.39936 0.45153 0.76993 0.0
H240 H 0.65183 0.59289 0.42941 0.0
H241 H 0.6065 0.70051 0.37465 0.0
H242 H 0.57597 0.67378 0.26192 0.0
H243 H 0.55695 0.61819 0.18613 0.0
H244 H 0.60434 0.51103 0.24031 0.0
H245 H 0.63929 0.53908 0.34579 0.0
C246 C 0.63596 0.61056 0.39174 0.0
C247 C 0.63131 0.64851 0.40995 0.0
C248 C 0.61838 0.59494 0.32762 0.0
C249 C 0.6107 0.67127 0.36113 0.0
C250 C 0.59294 0.6559 0.29721 0.0
C251 C 0.57519 0.6011 0.22073 0.0
C252 C 0.57761 0.56249 0.20597 0.0
C253 C 0.59568 0.61753 0.28102 0.0
C254 C 0.60182 0.54078 0.25056 0.0
C255 C 0.62181 0.55678 0.31103 0.0
H256 H 0.85592 0.10721 0.81245 0.0
H257 H 0.94815 0.1808 0.87153 0.0
H258 H 0.9841 0.15376 0.77156 0.0
H259 H 0.99038 0.10677 0.67179 0.0
H260 H 0.89868 0.03143 0.61729 0.0
H261 H 0.8614 0.0617 0.71075 0.0
C262 C 0.88361 0.11778 0.80244 0.0
C263 C 0.89933 0.14608 0.84871 0.0
C264 C 0.90432 0.10154 0.7462 0.0
C265 C 0.93555 0.15901 0.83638 0.0
C266 C 0.95608 0.14353 0.77943 0.0
C267 C 0.96216 0.09714 0.68007 0.0
C268 C 0.94744 0.06677 0.63782 0.0
C269 C 0.94096 0.11436 0.73472 0.0
C270 C 0.91084 0.05457 0.64937 0.0
C271 C 0.88942 0.07191 0.70272 0.0
H272 H 0.38486 0.41623 0.4232 0.0
H273 H 0.44174 0.31357 0.36956 0.0
H274 H 0.47142 0.34332 0.26786 0.0
H275 H 0.4821 0.39869 0.19558 0.0
H276 H 0.42401 0.50115 0.24634 0.0
H277 H 0.39399 0.47137 0.34774 0.0
C278 C 0.40378 0.40048 0.38914 0.0
C279 C 0.4111 0.3628 0.40372 0.0
C280 C 0.42058 0.41772 0.33042 0.0
C281 C 0.43538 0.34252 0.35888 0.0
C282 C 0.4525 0.35955 0.301 0.0
C283 C 0.46289 0.41453 0.22884 0.0
C284 C 0.4555 0.45214 0.21369 0.0
C285 C 0.44542 0.39715 0.28646 0.0
C286 C 0.4302 0.47215 0.25682 0.0
C287 C 0.41306 0.45516 0.3149 0.0
H288 H 0.13636 0.91541 0.8758 0.0
H289 H 0.07998 0.81272 0.81288 0.0
H290 H 0.05074 0.84214 0.70473 0.0
H291 H 0.03974 0.89766 0.63016 0.0
H292 H 0.09809 0.99979 0.69055 0.0
H293 H 0.12805 0.97005 0.79731 0.0
C294 C 0.11772 0.89956 0.83818 0.0
C295 C 0.1102 0.86206 0.85219 0.0
C296 C 0.10133 0.91656 0.7758 0.0
C297 C 0.08634 0.84159 0.80282 0.0
C298 C 0.06951 0.85843 0.74124 0.0
C299 C 0.0591 0.91337 0.66659 0.0
C300 C 0.06646 0.95095 0.65266 0.0
C301 C 0.07658 0.89598 0.72746 0.0
C302 C 0.09193 0.97081 0.69994 0.0
C303 C 0.10901 0.95387 0.76116 0.0
loop_
_geom_bond_atom_site_label_1
_geom_bond_atom_site_label_2
_geom_bond_distance
_geom_bond_site_symmetry_2
_ccdc_geom_bond_type
H0 C3 0.929 . S
H1 C6 0.929 . S
H2 C8 0.930 . S
C3 H0 0.929 . S
C3 C4 1.398 1_554 S
C3 C5 1.396 . S
C4 C3 1.398 1_556 S
C4 C8 1.407 . S
C5 C3 1.396 . S
C5 C6 1.394 . S
C6 H1 0.929 . S
C6 C5 1.394 . S
C6 C7 1.390 . S
C7 C6 1.390 . S
C7 C8 1.385 1_554 S
C7 N9 1.419 1_554 S
C8 H2 0.930 . S
C8 C4 1.407 . S
C8 C7 1.385 1_556 S
N9 C7 1.419 1_556 S
N9 C10 1.244 1_556 S
C10 N9 1.244 1_554 S
H11 C14 0.929 . S
H12 C17 0.929 . S
H13 C19 0.930 . S
C14 H11 0.929 . S
C14 C15 1.398 . S
C14 C16 1.396 . S
C15 C14 1.398 . S
C15 C19 1.407 . S
C16 C14 1.396 . S
C16 C17 1.394 . S
C17 H12 0.929 . S
C17 C16 1.394 . S
C17 C18 1.382 . S
C18 C17 1.382 . S
C18 C19 1.392 . S
C18 N20 1.420 . S
C19 H13 0.930 . S
C19 C15 1.407 . S
C19 C18 1.392 . S
N20 C18 1.420 . S
N20 C21 1.244 . S
C21 N20 1.244 . S
H22 C25 0.929 . S
H23 C28 0.929 . S
H24 C30 0.930 . S
C25 H22 0.929 . S
C25 C26 1.398 1_554 S
C25 C27 1.396 . S
C26 C25 1.398 1_556 S
C26 C30 1.407 . S
C27 C25 1.396 . S
C27 C28 1.394 . S
C28 H23 0.929 . S
C28 C27 1.394 . S
C28 C29 1.382 1_554 S
C29 C28 1.382 1_556 S
C29 C30 1.392 . S
C29 N31 1.420 . S
C30 H24 0.930 . S
C30 C26 1.407 . S
C30 C29 1.392 . S
N31 C29 1.420 . S
N31 C32 1.244 1_556 S
C32 N31 1.244 1_554 S
H33 C36 0.929 . S
H34 C39 0.929 . S
H35 C41 0.930 . S
C36 H33 0.929 . S
C36 C37 1.398 . S
C36 C38 1.396 . S
C37 C36 1.398 . S
C37 C41 1.407 . S
C38 C36 1.396 . S
C38 C39 1.394 . S
C39 H34 0.929 . S
C39 C38 1.394 . S
C39 C40 1.382 . S
C40 C39 1.382 . S
C40 C41 1.392 . S
C40 N42 1.420 . S
C41 H35 0.930 . S
C41 C37 1.407 . S
C41 C40 1.392 . S
N42 C40 1.420 . S
N42 C43 1.244 . S
C43 N42 1.244 . S
C44 O60 1.251 . S
C44 O62 1.254 . S
N45 C46 1.333 . S
N45 C50 1.307 . S
N45 Zn51 2.020 . S
C46 N45 1.333 . S
C46 C47 1.379 . S
C46 H64 0.952 . S
C47 C46 1.379 . S
C47 C48 1.390 . S
C47 H74 0.949 . S
C48 C47 1.390 . S
C48 C49 1.357 . S
C49 C48 1.357 . S
C49 C50 1.370 . S
C49 H75 0.950 . S
C50 N45 1.307 . S
C50 C49 1.370 . S
C50 H68 0.948 . S
Zn51 N45 2.020 . S
Zn51 O60 2.039 1_545 S
Zn51 O66 2.034 1_545 S
Zn51 O70 2.025 1_455 S
Zn51 O72 2.024 1_455 S
C52 O71 1.246 . S
C52 O72 1.249 . S
N53 C54 1.307 . S
N53 C55 1.333 . S
N53 Zn59 2.020 . S
C54 N53 1.307 . S
C54 C58 1.370 . S
C54 H65 0.948 . S
C55 N53 1.333 . S
C55 C56 1.379 . S
C55 H63 0.952 . S
C56 C55 1.379 . S
C56 C57 1.390 . S
C56 H76 0.949 . S
C57 C56 1.390 . S
C57 C58 1.357 . S
C58 C54 1.370 . S
C58 C57 1.357 . S
C58 H77 0.950 . S
Zn59 N53 2.020 . S
Zn59 O62 2.025 1_655 S
Zn59 O67 2.024 1_655 S
Zn59 O69 2.039 1_565 S
Zn59 O71 2.034 1_565 S
O60 C44 1.251 . S
O60 Zn51 2.039 1_565 S
C61 O66 1.246 . S
C61 O67 1.249 . S
O62 C44 1.254 . S
O62 Zn59 2.025 1_455 S
H63 C55 0.952 . S
H64 C46 0.952 . S
H65 C54 0.948 . S
O66 Zn51 2.034 1_565 S
O66 C61 1.246 . S
O67 Zn59 2.024 1_455 S
O67 C61 1.249 . S
H68 C50 0.948 . S
O69 Zn59 2.039 1_545 S
O69 C73 1.251 . S
O70 Zn51 2.025 1_655 S
O70 C73 1.254 . S
O71 C52 1.246 . S
O71 Zn59 2.034 1_545 S
O72 Zn51 2.024 1_655 S
O72 C52 1.249 . S
C73 O69 1.251 . S
C73 O70 1.254 . S
H74 C47 0.949 . S
H75 C49 0.950 . S
H76 C56 0.949 . S
H77 C58 0.950 . S
C78 O94 1.251 . S
C78 O96 1.254 . S
N79 C80 1.333 . S
N79 C84 1.307 . S
N79 Zn85 2.020 . S
C80 N79 1.333 . S
C80 C81 1.380 . S
C80 H98 0.952 1_554 S
C81 C80 1.380 . S
C81 C82 1.391 . S
C81 H108 0.948 1_554 S
C82 C81 1.391 . S
C82 C83 1.357 . S
C83 C82 1.357 . S
C83 C84 1.370 . S
C83 H109 0.950 . S
C84 N79 1.307 . S
C84 C83 1.370 . S
C84 H102 0.948 . S
Zn85 N79 2.020 . S
Zn85 O94 2.039 1_554 S
Zn85 O100 2.034 . S
Zn85 O104 2.025 . S
Zn85 O106 2.024 1_554 S
C86 O105 1.246 . S
C86 O106 1.249 . S
N87 C88 1.307 . S
N87 C89 1.333 . S
N87 Zn93 2.020 . S
C88 N87 1.307 . S
C88 C92 1.370 . S
C88 H99 0.948 1_554 S
C89 N87 1.333 . S
C89 C90 1.379 . S
C89 H97 0.952 . S
C90 C89 1.379 . S
C90 C91 1.390 . S
C90 H110 0.949 . S
C91 C90 1.390 . S
C91 C92 1.357 . S
C92 C88 1.370 . S
C92 C91 1.357 . S
C92 H111 0.950 1_554 S
Zn93 N87 2.020 . S
Zn93 O96 2.025 1_554 S
Zn93 O101 2.024 . S
Zn93 O103 2.039 . S
Zn93 O105 2.034 1_554 S
O94 C78 1.251 . S
O94 Zn85 2.039 1_556 S
C95 O100 1.246 . S
C95 O101 1.249 . S
O96 C78 1.254 . S
O96 Zn93 2.025 1_556 S
H97 C89 0.952 . S
H98 C80 0.952 1_556 S
H99 C88 0.948 1_556 S
O100 Zn85 2.034 . S
O100 C95 1.246 . S
O101 Zn93 2.024 . S
O101 C95 1.249 . S
H102 C84 0.948 . S
O103 Zn93 2.039 . S
O103 C107 1.251 . S
O104 Zn85 2.025 . S
O104 C107 1.254 . S
O105 C86 1.246 . S
O105 Zn93 2.034 1_556 S
O106 Zn85 2.024 1_556 S
O106 C86 1.249 . S
C107 O103 1.251 . S
C107 O104 1.254 . S
H108 C81 0.948 1_556 S
H109 C83 0.950 . S
H110 C90 0.949 . S
H111 C92 0.950 1_556 S
H112 C118 0.930 . S
H113 C121 0.930 . S
H114 C122 0.930 . S
H115 C123 0.930 . S
H116 C126 0.930 . S
H117 C127 0.930 . S
C118 H112 0.930 . S
C118 C119 1.355 . S
C118 C120 1.415 . S
C119 C118 1.355 . S
C119 C121 1.419 . S
C120 C118 1.415 . S
C120 C125 1.425 . S
C120 C127 1.409 . S
C121 H113 0.930 . S
C121 C119 1.419 . S
C121 C122 1.362 . S
C122 H114 0.930 . S
C122 C121 1.362 . S
C122 C125 1.409 . S
C123 H115 0.930 . S
C123 C124 1.355 . S
C123 C125 1.415 . S
C124 C123 1.355 . S
C124 C126 1.419 . S
C125 C120 1.425 . S
C125 C122 1.409 . S
C125 C123 1.415 . S
C126 H116 0.930 . S
C126 C124 1.419 . S
C126 C127 1.362 . S
C127 H117 0.930 . S
C127 C120 1.409 . S
C127 C126 1.362 . S
H128 C134 0.930 1_556 S
H129 C137 0.930 . S
H130 C138 0.930 . S
H131 C139 0.930 . S
H132 C142 0.930 1_556 S
H133 C143 0.930 1_556 S
C134 H128 0.930 1_554 S
C134 C135 1.355 . S
C134 C136 1.415 . S
C135 C134 1.355 . S
C135 C137 1.419 . S
C136 C134 1.415 . S
C136 C141 1.425 . S
C136 C143 1.409 . S
C137 H129 0.930 . S
C137 C135 1.419 . S
C137 C138 1.362 . S
C138 H130 0.930 . S
C138 C137 1.362 . S
C138 C141 1.409 . S
C139 H131 0.930 . S
C139 C140 1.355 . S
C139 C141 1.415 . S
C140 C139 1.355 . S
C140 C142 1.419 . S
C141 C136 1.425 . S
C141 C138 1.409 . S
C141 C139 1.415 . S
C142 H132 0.930 1_554 S
C142 C140 1.419 . S
C142 C143 1.362 . S
C143 H133 0.930 1_554 S
C143 C136 1.409 . S
C143 C142 1.362 . S
H144 C150 0.930 . S
H145 C153 0.930 . S
H146 C154 0.930 . S
H147 C155 0.930 . S
H148 C158 0.930 . S
H149 C159 0.930 . S
C150 H144 0.930 . S
C150 C151 1.355 . S
C150 C152 1.415 . S
C151 C150 1.355 . S
C151 C153 1.419 . S
C152 C150 1.415 . S
C152 C157 1.425 . S
C152 C159 1.409 . S
C153 H145 0.930 . S
C153 C151 1.419 . S
C153 C154 1.362 . S
C154 H146 0.930 . S
C154 C153 1.362 . S
C154 C157 1.409 . S
C155 H147 0.930 . S
C155 C156 1.355 . S
C155 C157 1.415 . S
C156 C155 1.355 . S
C156 C158 1.419 . S
C157 C152 1.425 . S
C157 C154 1.409 . S
C157 C155 1.415 . S
C158 H148 0.930 . S
C158 C156 1.419 . S
C158 C159 1.362 . S
C159 H149 0.930 . S
C159 C152 1.409 . S
C159 C158 1.362 . S
H160 C166 0.930 . S
H161 C169 0.930 . S
H162 C170 0.930 . S
H163 C171 0.930 . S
H164 C174 0.930 . S
H165 C175 0.930 . S
C166 H160 0.930 . S
C166 C167 1.355 . S
C166 C168 1.415 . S
C167 C166 1.355 . S
C167 C169 1.419 . S
C168 C166 1.415 . S
C168 C173 1.425 . S
C168 C175 1.409 . S
C169 H161 0.930 . S
C169 C167 1.419 . S
C169 C170 1.362 . S
C170 H162 0.930 . S
C170 C169 1.362 . S
C170 C173 1.409 . S
C171 H163 0.930 . S
C171 C172 1.355 . S
C171 C173 1.415 . S
C172 C171 1.355 . S
C172 C174 1.419 . S
C173 C168 1.425 . S
C173 C170 1.409 . S
C173 C171 1.415 . S
C174 H164 0.930 . S
C174 C172 1.419 . S
C174 C175 1.362 . S
C175 H165 0.930 . S
C175 C168 1.409 . S
C175 C174 1.362 . S
H176 C182 0.930 . S
H177 C185 0.930 . S
H178 C186 0.930 . S
H179 C187 0.930 . S
H180 C190 0.930 . S
H181 C191 0.930 . S
C182 H176 0.930 . S
C182 C183 1.355 . S
C182 C184 1.415 . S
C183 C182 1.355 . S
C183 C185 1.419 . S
C184 C182 1.415 . S
C184 C189 1.425 . S
C184 C191 1.409 . S
C185 H177 0.930 . S
C185 C183 1.419 . S
C185 C186 1.362 . S
C186 H178 0.930 . S
C186 C185 1.362 . S
C186 C189 1.409 . S
C187 H179 0.930 . S
C187 C188 1.355 . S
C187 C189 1.415 . S
C188 C187 1.355 . S
C188 C190 1.419 . S
C189 C184 1.425 . S
C189 C186 1.409 . S
C189 C187 1.415 . S
C190 H180 0.930 . S
C190 C188 1.419 . S
C190 C191 1.362 . S
C191 H181 0.930 . S
C191 C184 1.409 . S
C191 C190 1.362 . S
H192 C198 0.930 . S
H193 C201 0.930 . S
H194 C202 0.930 . S
H195 C203 0.930 . S
H196 C206 0.930 . S
H197 C207 0.930 . S
C198 H192 0.930 . S
C198 C199 1.355 . S
C198 C200 1.415 . S
C199 C198 1.355 . S
C199 C201 1.419 . S
C200 C198 1.415 . S
C200 C205 1.425 . S
C200 C207 1.409 . S
C201 H193 0.930 . S
C201 C199 1.419 . S
C201 C202 1.362 . S
C202 H194 0.930 . S
C202 C201 1.362 . S
C202 C205 1.409 . S
C203 H195 0.930 . S
C203 C204 1.355 . S
C203 C205 1.415 . S
C204 C203 1.355 . S
C204 C206 1.419 . S
C205 C200 1.425 . S
C205 C202 1.409 . S
C205 C203 1.415 . S
C206 H196 0.930 . S
C206 C204 1.419 . S
C206 C207 1.362 . S
C207 H197 0.930 . S
C207 C200 1.409 . S
C207 C206 1.362 . S
H208 C214 0.930 . S
H209 C217 0.930 . S
H210 C218 0.930 . S
H211 C219 0.930 . S
H212 C222 0.930 . S
H213 C223 0.930 . S
C214 H208 0.930 . S
C214 C215 1.355 . S
C214 C216 1.415 . S
C215 C214 1.355 . S
C215 C217 1.419 . S
C216 C214 1.415 . S
C216 C221 1.425 . S
C216 C223 1.409 . S
C217 H209 0.930 . S
C217 C215 1.419 . S
C217 C218 1.362 . S
C218 H210 0.930 . S
C218 C217 1.362 . S
C218 C221 1.409 . S
C219 H211 0.930 . S
C219 C220 1.355 . S
C219 C221 1.415 . S
C220 C219 1.355 . S
C220 C222 1.419 . S
C221 C216 1.425 . S
C221 C218 1.409 . S
C221 C219 1.415 . S
C222 H212 0.930 . S
C222 C220 1.419 . S
C222 C223 1.362 . S
C223 H213 0.930 . S
C223 C216 1.409 . S
C223 C222 1.362 . S
H224 C230 0.930 . S
H225 C233 0.930 . S
H226 C234 0.930 . S
H227 C235 0.930 . S
H228 C238 0.930 . S
H229 C239 0.930 . S
C230 H224 0.930 . S
C230 C231 1.355 . S
C230 C232 1.415 . S
C231 C230 1.355 . S
C231 C233 1.419 . S
C232 C230 1.415 . S
C232 C237 1.425 . S
C232 C239 1.409 . S
C233 H225 0.930 . S
C233 C231 1.419 . S
C233 C234 1.362 . S
C234 H226 0.930 . S
C234 C233 1.362 . S
C234 C237 1.409 . S
C235 H227 0.930 . S
C235 C236 1.355 . S
C235 C237 1.415 . S
C236 C235 1.355 . S
C236 C238 1.419 . S
C237 C232 1.425 . S
C237 C234 1.409 . S
C237 C235 1.415 . S
C238 H228 0.930 . S
C238 C236 1.419 . S
C238 C239 1.362 . S
C239 H229 0.930 . S
C239 C232 1.409 . S
C239 C238 1.362 . S
H240 C246 0.930 . S
H241 C249 0.930 . S
H242 C250 0.930 . S
H243 C251 0.930 . S
H244 C254 0.930 . S
H245 C255 0.930 . S
C246 H240 0.930 . S
C246 C247 1.355 . S
C246 C248 1.415 . S
C247 C246 1.355 . S
C247 C249 1.419 . S
C248 C246 1.415 . S
C248 C253 1.425 . S
C248 C255 1.409 . S
C249 H241 0.930 . S
C249 C247 1.419 . S
C249 C250 1.362 . S
C250 H242 0.930 . S
C250 C249 1.362 . S
C250 C253 1.409 . S
C251 H243 0.930 . S
C251 C252 1.355 . S
C251 C253 1.415 . S
C252 C251 1.355 . S
C252 C254 1.419 . S
C253 C248 1.425 . S
C253 C250 1.409 . S
C253 C251 1.415 . S
C254 H244 0.930 . S
C254 C252 1.419 . S
C254 C255 1.362 . S
C255 H245 0.930 . S
C255 C248 1.409 . S
C255 C254 1.362 . S
H256 C262 0.930 . S
H257 C265 0.930 . S
H258 C266 0.930 . S
H259 C267 0.930 . S
H260 C270 0.930 . S
H261 C271 0.930 . S
C262 H256 0.930 . S
C262 C263 1.355 . S
C262 C264 1.415 . S
C263 C262 1.355 . S
C263 C265 1.419 . S
C264 C262 1.415 . S
C264 C269 1.425 . S
C264 C271 1.409 . S
C265 H257 0.930 . S
C265 C263 1.419 . S
C265 C266 1.362 . S
C266 H258 0.930 . S
C266 C265 1.362 . S
C266 C269 1.409 . S
C267 H259 0.930 . S
C267 C268 1.355 . S
C267 C269 1.415 . S
C268 C267 1.355 . S
C268 C270 1.419 . S
C269 C264 1.425 . S
C269 C266 1.409 . S
C269 C267 1.415 . S
C270 H260 0.930 . S
C270 C268 1.419 . S
C270 C271 1.362 . S
C271 H261 0.930 . S
C271 C264 1.409 . S
C271 C270 1.362 . S
H272 C278 0.930 . S
H273 C281 0.930 . S
H274 C282 0.930 . S
H275 C283 0.930 . S
H276 C286 0.930 . S
H277 C287 0.930 . S
C278 H272 0.930 . S
C278 C279 1.355 . S
C278 C280 1.415 . S
C279 C278 1.355 . S
C279 C281 1.419 . S
C280 C278 1.415 . S
C280 C285 1.425 . S
C280 C287 1.409 . S
C281 H273 0.930 . S
C281 C279 1.419 . S
C281 C282 1.362 . S
C282 H274 0.930 . S
C282 C281 1.362 . S
C282 C285 1.409 . S
C283 H275 0.930 . S
C283 C284 1.355 . S
C283 C285 1.415 . S
C284 C283 1.355 . S
C284 C286 1.419 . S
C285 C280 1.425 . S
C285 C282 1.409 . S
C285 C283 1.415 . S
C286 H276 0.930 . S
C286 C284 1.419 . S
C286 C287 1.362 . S
C287 H277 0.930 . S
C287 C280 1.409 . S
C287 C286 1.362 . S
H288 C294 0.930 . S
H289 C297 0.930 . S
H290 C298 0.930 . S
H291 C299 0.930 . S
H292 C302 0.930 1_545 S
H293 C303 0.930 . S
C294 H288 0.930 . S
C294 C295 1.355 . S
C294 C296 1.415 . S
C295 C294 1.355 . S
C295 C297 1.419 . S
C296 C294 1.415 . S
C296 C301 1.425 . S
C296 C303 1.409 . S
C297 H289 0.930 . S
C297 C295 1.419 . S
C297 C298 1.362 . S
C298 H290 0.930 . S
C298 C297 1.362 . S
C298 C301 1.409 . S
C299 H291 0.930 . S
C299 C300 1.355 . S
C299 C301 1.415 . S
C300 C299 1.355 . S
C300 C302 1.419 . S
C301 C296 1.425 . S
C301 C298 1.409 . S
C301 C299 1.415 . S
C302 H292 0.930 1_565 S
C302 C300 1.419 . S
C302 C303 1.362 . S
C303 H293 0.930 . S
C303 C296 1.409 . S
C303 C302 1.362 . S
C124 C48 1.504 . S
C119 C43 1.495 . S
C135 C10 1.503 . S
C140 C91 1.505 . S
C151 C21 1.486 . S
C156 C57 1.506 . S
C167 C32 1.497 . S
C172 C82 1.498 . S
C188 C44 1.549 . S
C183 C5 1.514 . S
C204 C86 1.524 . S
C199 C15 1.519 . S
C215 C27 1.507 . S
C220 C52 1.540 . S
C231 C38 1.508 . S
C236 C78 1.532 . S
C252 C107 1.467 . S
C247 C16 1.433 . S
C268 C73 1.455 . S
C263 C26 1.442 . S
C284 C95 1.462 . S
C279 C37 1.463 . S
C295 C4 1.450 . S
C300 C61 1.460 . S
