# Generated by pormake.
# Topology zzz, (3,6)-cn, num edge types: 1
# Building blocks:
#     Node 0, Type 0, BuildingBlock: VETTIZ_charged_linker_0, # of connection points: 3
#     Node 1, Type 0, BuildingBlock: VETTIZ_charged_linker_0, # of connection points: 3
#     Node 2, Type 0, BuildingBlock: VETTIZ_charged_linker_0, # of connection points: 3
#     Node 3, Type 0, BuildingBlock: VETTIZ_charged_linker_0, # of connection points: 3
#     Node 4, Type 0, BuildingBlock: VETTIZ_charged_linker_0, # of connection points: 3
#     Node 5, Type 0, BuildingBlock: VETTIZ_charged_linker_0, # of connection points: 3
#     Node 6, Type 0, BuildingBlock: VETTIZ_charged_linker_0, # of connection points: 3
#     Node 7, Type 0, BuildingBlock: VETTIZ_charged_linker_0, # of connection points: 3
#     Node 8, Type 1, BuildingBlock: FUNLAD_clean_sbu_0, # of connection points: 6
#     Node 9, Type 1, BuildingBlock: FUNLAD_clean_sbu_0, # of connection points: 6
#     Node 10, Type 1, BuildingBlock: FUNLAD_clean_sbu_0, # of connection points: 6
#     Node 11, Type 1, BuildingBlock: FUNLAD_clean_sbu_0, # of connection points: 6
#     Edge 12, Type (0, 1), BuildingBlock: MIFKUJ_clean_linker_0, # of connection points: 2
#     Edge 13, Type (0, 1), BuildingBlock: MIFKUJ_clean_linker_0, # of connection points: 2
#     Edge 14, Type (0, 1), BuildingBlock: MIFKUJ_clean_linker_0, # of connection points: 2
#     Edge 15, Type (0, 1), BuildingBlock: MIFKUJ_clean_linker_0, # of connection points: 2
#     Edge 16, Type (0, 1), BuildingBlock: MIFKUJ_clean_linker_0, # of connection points: 2
#     Edge 17, Type (0, 1), BuildingBlock: MIFKUJ_clean_linker_0, # of connection points: 2
#     Edge 18, Type (0, 1), BuildingBlock: MIFKUJ_clean_linker_0, # of connection points: 2
#     Edge 19, Type (0, 1), BuildingBlock: MIFKUJ_clean_linker_0, # of connection points: 2
#     Edge 20, Type (0, 1), BuildingBlock: MIFKUJ_clean_linker_0, # of connection points: 2
#     Edge 21, Type (0, 1), BuildingBlock: MIFKUJ_clean_linker_0, # of connection points: 2
#     Edge 22, Type (0, 1), BuildingBlock: MIFKUJ_clean_linker_0, # of connection points: 2
#     Edge 23, Type (0, 1), BuildingBlock: MIFKUJ_clean_linker_0, # of connection points: 2
#     Edge 24, Type (0, 1), BuildingBlock: MIFKUJ_clean_linker_0, # of connection points: 2
#     Edge 25, Type (0, 1), BuildingBlock: MIFKUJ_clean_linker_0, # of connection points: 2
#     Edge 26, Type (0, 1), BuildingBlock: MIFKUJ_clean_linker_0, # of connection points: 2
#     Edge 27, Type (0, 1), BuildingBlock: MIFKUJ_clean_linker_0, # of connection points: 2
#     Edge 28, Type (0, 1), BuildingBlock: MIFKUJ_clean_linker_0, # of connection points: 2
#     Edge 29, Type (0, 1), BuildingBlock: MIFKUJ_clean_linker_0, # of connection points: 2
#     Edge 30, Type (0, 1), BuildingBlock: MIFKUJ_clean_linker_0, # of connection points: 2
#     Edge 31, Type (0, 1), BuildingBlock: MIFKUJ_clean_linker_0, # of connection points: 2
#     Edge 32, Type (0, 1), BuildingBlock: MIFKUJ_clean_linker_0, # of connection points: 2
#     Edge 33, Type (0, 1), BuildingBlock: MIFKUJ_clean_linker_0, # of connection points: 2
#     Edge 34, Type (0, 1), BuildingBlock: MIFKUJ_clean_linker_0, # of connection points: 2
#     Edge 35, Type (0, 1), BuildingBlock: MIFKUJ_clean_linker_0, # of connection points: 2
# Relax obj value: 0.295
# Max RMSD: 0.223
# Mean RMSD: 0.194
data_MOF--net-zzz--node1-FUNLAD_clean_sbu_0--node2-VETTIZ_charged_linker_0--edge1-MIFKUJ_clean_linker_0
_symmetry_space_group_name_H-M    P1
_symmetry_Int_Tables_number       1
_symmetry_cell_setting            triclinic
loop_
_symmetry_equiv_pos_as_xyz
'x, y, z'
_cell_length_a     71.117087
_cell_length_b     75.659358
_cell_length_c     27.904936
_cell_angle_alpha  87.450148
_cell_angle_beta   87.500875
_cell_angle_gamma 92.219421
loop_
_atom_site_label
_atom_site_type_symbol
_atom_site_fract_x
_atom_site_fract_y
_atom_site_fract_z
_atom_type_partial_charge
C0 C 0.83351 0.46329 0.29515 0.0
C1 C 0.85102 0.4576 0.31044 0.0
C2 C 0.85977 0.44392 0.28626 0.0
C3 C 0.8352 0.44341 0.22915 0.0
C4 C 0.82584 0.45596 0.25443 0.0
C5 C 0.80762 0.46055 0.23189 0.0
H6 H 0.75303 0.45591 0.03859 0.0
C7 C 0.82456 0.43947 0.1865 0.0
C8 C 0.80816 0.44925 0.188 0.0
H9 H 0.74131 0.48341 0.16804 0.0
H10 H 0.76955 0.47203 0.20257 0.0
H11 H 0.79764 0.46462 0.03101 0.0
H12 H 0.76333 0.42029 0.0905 0.0
H13 H 0.78385 0.41135 0.0661 0.0
H14 H 0.76862 0.42334 0.02717 0.0
H15 H 0.78497 0.44955 0.99503 0.0
H16 H 0.8084 0.44535 0.0132 0.0
C17 C 0.80856 0.48058 0.21784 0.0
C18 C 0.79109 0.45468 0.26772 0.0
C19 C 0.85606 0.40599 0.05368 0.0
C20 C 0.85113 0.40291 0.00641 0.0
C21 C 0.83262 0.40606 0.99307 0.0
C22 C 0.81979 0.41359 0.02494 0.0
C23 C 0.82557 0.4182 0.07045 0.0
C24 C 0.84314 0.41368 0.08491 0.0
C25 C 0.84697 0.41978 0.13425 0.0
C26 C 0.82909 0.4294 0.14611 0.0
C27 C 0.81674 0.42857 0.10843 0.0
C28 C 0.86467 0.43251 0.12995 0.0
C29 C 0.84887 0.40317 0.16806 0.0
C30 C 0.75665 0.45955 0.07428 0.0
C31 C 0.74531 0.47077 0.10044 0.0
C32 C 0.75007 0.47489 0.14724 0.0
C33 C 0.76641 0.46829 0.16707 0.0
C34 C 0.77791 0.45734 0.13986 0.0
C35 C 0.77265 0.45288 0.09469 0.0
C36 C 0.78593 0.44063 0.0713 0.0
C37 C 0.80014 0.43838 0.10975 0.0
C38 C 0.79566 0.44846 0.14958 0.0
C39 C 0.79469 0.45035 0.02502 0.0
C40 C 0.77496 0.42299 0.06286 0.0
H41 H 0.85958 0.42674 0.22871 0.0
H42 H 0.82628 0.47357 0.3134 0.0
H43 H 0.79443 0.44257 0.28928 0.0
H44 H 0.77811 0.451 0.24955 0.0
H45 H 0.78803 0.4652 0.29314 0.0
H46 H 0.82234 0.48448 0.19919 0.0
H47 H 0.80704 0.48855 0.25017 0.0
H48 H 0.79771 0.48445 0.19283 0.0
H49 H 0.87021 0.40389 0.06497 0.0
H50 H 0.82841 0.40356 0.95707 0.0
H51 H 0.80617 0.41632 0.01197 0.0
H52 H 0.86458 0.44121 0.09675 0.0
H53 H 0.87778 0.425 0.12828 0.0
H54 H 0.86555 0.44166 0.15944 0.0
H55 H 0.84094 0.39146 0.15521 0.0
H56 H 0.84275 0.40489 0.20465 0.0
H57 H 0.86381 0.3996 0.17042 0.0
H58 H 0.87289 0.43883 0.2982 0.0
C59 C 0.85196 0.43681 0.24597 0.0
C60 C 0.94414 0.81875 0.03168 0.0
C61 C 0.9452 0.83645 0.04589 0.0
C62 C 0.94037 0.83975 0.09425 0.0
C63 C 0.93691 0.80839 0.11412 0.0
C64 C 0.94032 0.80495 0.0665 0.0
C65 C 0.941 0.78534 0.05913 0.0
H66 H 0.95032 0.70246 0.15448 0.0
C67 C 0.93667 0.7915 0.14254 0.0
C68 C 0.93908 0.77788 0.11087 0.0
H69 H 0.94349 0.7192 0.00618 0.0
H70 H 0.93945 0.7491 0.02902 0.0
H71 H 0.9764 0.73719 0.18148 0.0
H72 H 0.91599 0.72759 0.20028 0.0
H73 H 0.92589 0.73441 0.25393 0.0
H74 H 0.93248 0.71383 0.22969 0.0
H75 H 0.96632 0.72085 0.22483 0.0
H76 H 0.96839 0.74394 0.23811 0.0
C77 C 0.9604 0.78165 0.03506 0.0
C78 C 0.92394 0.77972 0.02962 0.0
C79 C 0.93651 0.79451 0.32232 0.0
C80 C 0.94174 0.78293 0.35928 0.0
C81 C 0.94573 0.76535 0.34901 0.0
C82 C 0.94452 0.75952 0.30177 0.0
C83 C 0.93991 0.77163 0.26457 0.0
C84 C 0.93619 0.78883 0.2756 0.0
C85 C 0.93456 0.80083 0.23217 0.0
C86 C 0.93679 0.78792 0.19274 0.0
C87 C 0.93972 0.77073 0.21142 0.0
C88 C 0.95107 0.81504 0.23108 0.0
C89 C 0.91461 0.8084 0.23401 0.0
C90 C 0.948 0.71263 0.12707 0.0
C91 C 0.94719 0.70843 0.07841 0.0
C92 C 0.94395 0.722 0.04386 0.0
C93 C 0.94173 0.73941 0.05709 0.0
C94 C 0.94288 0.74348 0.10541 0.0
C95 C 0.94554 0.73021 0.13983 0.0
C96 C 0.94546 0.73723 0.18974 0.0
C97 C 0.94189 0.75672 0.17931 0.0
C98 C 0.94098 0.76028 0.12952 0.0
C99 C 0.9651 0.73462 0.21007 0.0
C100 C 0.92916 0.72776 0.22039 0.0
H101 H 0.93259 0.82945 0.1639 0.0
H102 H 0.94696 0.81555 0.99473 0.0
H103 H 0.91266 0.7895 0.03111 0.0
H104 H 0.917 0.76709 0.04391 0.0
H105 H 0.92818 0.77845 0.99119 0.0
H106 H 0.9719 0.78859 0.05353 0.0
H107 H 0.96121 0.78641 0.99677 0.0
H108 H 0.96367 0.76752 0.03661 0.0
H109 H 0.93416 0.80829 0.32902 0.0
H110 H 0.95015 0.75632 0.37717 0.0
H111 H 0.9478 0.74605 0.29567 0.0
H112 H 0.96248 0.81116 0.25499 0.0
H113 H 0.94615 0.82798 0.24285 0.0
H114 H 0.95833 0.81697 0.19521 0.0
H115 H 0.90385 0.79802 0.24708 0.0
H116 H 0.91009 0.81302 0.19833 0.0
H117 H 0.91383 0.81948 0.25874 0.0
H118 H 0.94107 0.85295 0.10748 0.0
C119 C 0.93586 0.8259 0.12788 0.0
C120 C 0.8141 0.99206 0.11266 0.0
C121 C 0.82131 0.99345 0.06431 0.0
C122 C 0.80862 0.99373 0.02719 0.0
C123 C 0.78213 0.99225 0.08471 0.0
C124 C 0.79426 0.9915 0.12207 0.0
C125 C 0.78327 0.99053 0.1704 0.0
H126 H 0.6948 0.98731 0.285 0.0
C127 C 0.76259 0.99181 0.10461 0.0
C128 C 0.76278 0.99051 0.15519 0.0
H129 H 0.74737 0.98868 0.35591 0.0
H130 H 0.76477 0.98897 0.27767 0.0
H131 H 0.70561 0.01627 0.21228 0.0
H132 H 0.70601 0.95988 0.20682 0.0
H133 H 0.69841 0.96723 0.15066 0.0
H134 H 0.6849 0.97206 0.2045 0.0
H135 H 0.68474 0.00314 0.20249 0.0
H136 H 0.69995 0.01225 0.15335 0.0
C137 C 0.7885 0.00716 0.19766 0.0
C138 C 0.78762 0.97318 0.19796 0.0
C139 C 0.70973 0.00031 0.98973 0.0
C140 C 0.69008 0.00039 0.99717 0.0
C141 C 0.68194 0.99621 0.04336 0.0
C142 C 0.69322 0.99261 0.08199 0.0
C143 C 0.7129 0.99326 0.0746 0.0
C144 C 0.72082 0.99655 0.02891 0.0
C145 C 0.74192 0.99591 0.02783 0.0
C146 C 0.74536 0.99272 0.08098 0.0
C147 C 0.72834 0.99136 0.10788 0.0
C148 C 0.75014 0.01424 0.00814 0.0
C149 C 0.74768 0.98002 0.9977 0.0
C150 C 0.71007 0.98752 0.28389 0.0
C151 C 0.7197 0.98792 0.32626 0.0
C152 C 0.73963 0.98833 0.32339 0.0
C153 C 0.74966 0.98857 0.27811 0.0
C154 C 0.7396 0.9885 0.23555 0.0
C155 C 0.72008 0.98793 0.23972 0.0
C156 C 0.71109 0.98874 0.19257 0.0
C157 C 0.72819 0.98985 0.15855 0.0
C158 C 0.74518 0.98958 0.18294 0.0
C159 C 0.69963 0.00585 0.18976 0.0
C160 C 0.69934 0.97118 0.18819 0.0
H161 H 0.78064 0.99361 0.00662 0.0
H162 H 0.82358 0.99181 0.14198 0.0
H163 H 0.78556 0.96171 0.1749 0.0
H164 H 0.77828 0.97065 0.23035 0.0
H165 H 0.80244 0.97353 0.20904 0.0
H166 H 0.78751 0.01929 0.17403 0.0
H167 H 0.80316 0.00667 0.20979 0.0
H168 H 0.77897 0.00873 0.22927 0.0
H169 H 0.71629 0.00321 0.95435 0.0
H170 H 0.66682 0.99631 0.04997 0.0
H171 H 0.68609 0.9899 0.11629 0.0
H172 H 0.74184 0.02509 0.02288 0.0
H173 H 0.74976 0.01541 0.96837 0.0
H174 H 0.7647 0.0171 0.01853 0.0
H175 H 0.7358 0.97015 0.99496 0.0
H176 H 0.75889 0.97238 0.0143 0.0
H177 H 0.75243 0.98446 0.96051 0.0
H178 H 0.81376 0.99462 0.98997 0.0
C179 C 0.78927 0.9931 0.03701 0.0
C180 C 0.56969 0.7034 0.32773 0.0
C181 C 0.57038 0.68508 0.33915 0.0
C182 C 0.57029 0.6731 0.30219 0.0
C183 C 0.56753 0.69713 0.24339 0.0
C184 C 0.56853 0.70916 0.27915 0.0
C185 C 0.56804 0.72803 0.25868 0.0
H186 H 0.56273 0.78272 0.05807 0.0
C187 C 0.56526 0.70688 0.19732 0.0
C188 C 0.56587 0.7251 0.20533 0.0
H189 H 0.5686 0.79876 0.20328 0.0
H190 H 0.56785 0.7678 0.23199 0.0
H191 H 0.59058 0.74969 0.06048 0.0
H192 H 0.53104 0.7551 0.08437 0.0
H193 H 0.53335 0.73433 0.05988 0.0
H194 H 0.5415 0.75406 0.02503 0.0
H195 H 0.575 0.75603 0.01435 0.0
H196 H 0.57881 0.73311 0.0294 0.0
C197 C 0.58699 0.73762 0.2681 0.0
C198 C 0.55072 0.73675 0.28135 0.0
C199 C 0.55075 0.6719 0.0519 0.0
C200 C 0.54653 0.67678 0.00455 0.0
C201 C 0.54718 0.69487 0.98992 0.0
C202 C 0.55183 0.70787 0.02224 0.0
C203 C 0.55571 0.70274 0.06979 0.0
C204 C 0.55523 0.68499 0.08366 0.0
C205 C 0.55937 0.68186 0.13553 0.0
C206 C 0.56192 0.70073 0.15108 0.0
C207 C 0.55988 0.71285 0.11251 0.0
C208 C 0.57789 0.67167 0.13801 0.0
C209 C 0.54185 0.67209 0.161 0.0
C210 C 0.56422 0.77957 0.09597 0.0
C211 C 0.56621 0.79307 0.12832 0.0
C212 C 0.5673 0.78849 0.17766 0.0
C213 C 0.56692 0.77056 0.19413 0.0
C214 C 0.56515 0.75716 0.16091 0.0
C215 C 0.56357 0.76192 0.11283 0.0
C216 C 0.56047 0.74633 0.08252 0.0
C217 C 0.56133 0.73126 0.11965 0.0
C218 C 0.56414 0.73749 0.16577 0.0
C219 C 0.57696 0.74622 0.04435 0.0
C220 C 0.54066 0.74745 0.06146 0.0
H221 H 0.56854 0.66906 0.22846 0.0
H222 H 0.5699 0.71285 0.35573 0.0
H223 H 0.53817 0.72747 0.28261 0.0
H224 H 0.54672 0.74865 0.26051 0.0
H225 H 0.5533 0.74043 0.31868 0.0
H226 H 0.59892 0.72895 0.26026 0.0
H227 H 0.58752 0.74116 0.30624 0.0
H228 H 0.58978 0.7497 0.24495 0.0
H229 H 0.5501 0.65813 0.06454 0.0
H230 H 0.54417 0.69895 0.95345 0.0
H231 H 0.55212 0.72141 0.00899 0.0
H232 H 0.58677 0.67366 0.10422 0.0
H233 H 0.57494 0.6572 0.14405 0.0
H234 H 0.58704 0.67642 0.16629 0.0
H235 H 0.52863 0.67746 0.14745 0.0
H236 H 0.54083 0.67371 0.20008 0.0
H237 H 0.54164 0.65771 0.15435 0.0
H238 H 0.57084 0.65899 0.31046 0.0
C239 C 0.56889 0.67899 0.25457 0.0
C240 C 0.28811 0.5401 0.24947 0.0
C241 C 0.29629 0.54639 0.29081 0.0
C242 C 0.28724 0.55938 0.31683 0.0
C243 C 0.26178 0.55914 0.26215 0.0
C244 C 0.27099 0.5469 0.23533 0.0
C245 C 0.26052 0.54252 0.19118 0.0
H246 H 0.18318 0.55411 0.06016 0.0
C247 C 0.24416 0.56329 0.23899 0.0
C248 C 0.24347 0.55394 0.19662 0.0
H249 H 0.22951 0.52063 0.02803 0.0
H250 H 0.2449 0.53006 0.09925 0.0
H251 H 0.17824 0.54295 0.16233 0.0
H252 H 0.2082 0.58821 0.09485 0.0
H253 H 0.19563 0.59556 0.14546 0.0
H254 H 0.183 0.58524 0.09873 0.0
H255 H 0.16656 0.56294 0.14821 0.0
H256 H 0.17694 0.55902 0.20541 0.0
C257 C 0.25492 0.52254 0.19456 0.0
C258 C 0.27318 0.5484 0.14637 0.0
C259 C 0.19409 0.59613 0.33002 0.0
C260 C 0.1753 0.59957 0.32012 0.0
C261 C 0.16928 0.59744 0.27315 0.0
C262 C 0.1812 0.59059 0.238 0.0
C263 C 0.19928 0.58556 0.24992 0.0
C264 C 0.20575 0.58899 0.29463 0.0
C265 C 0.22532 0.58257 0.30087 0.0
C266 C 0.2289 0.57365 0.25367 0.0
C267 C 0.21357 0.57543 0.22424 0.0
C268 C 0.2246 0.56911 0.34451 0.0
C269 C 0.23886 0.59891 0.3058 0.0
C270 C 0.19688 0.5491 0.06761 0.0
C271 C 0.2053 0.53687 0.03793 0.0
C272 C 0.22277 0.53014 0.05027 0.0
C273 C 0.23167 0.53565 0.09154 0.0
C274 C 0.22288 0.54785 0.12101 0.0
C275 C 0.20576 0.55431 0.10856 0.0
C276 C 0.1977 0.56628 0.14482 0.0
C277 C 0.21302 0.56644 0.18078 0.0
C278 C 0.2278 0.55567 0.16693 0.0
C279 C 0.17885 0.55753 0.16628 0.0
C280 C 0.19585 0.58482 0.11991 0.0
H281 H 0.26377 0.5755 0.32437 0.0
H282 H 0.29499 0.5303 0.22848 0.0
H283 H 0.28079 0.56122 0.15189 0.0
H284 H 0.26511 0.55076 0.11399 0.0
H285 H 0.28388 0.53845 0.13881 0.0
H286 H 0.25001 0.5183 0.23186 0.0
H287 H 0.2671 0.51449 0.1845 0.0
H288 H 0.2431 0.51909 0.17196 0.0
H289 H 0.19928 0.59798 0.36544 0.0
H290 H 0.15491 0.59988 0.26428 0.0
H291 H 0.1755 0.58863 0.20361 0.0
H292 H 0.21233 0.55961 0.3429 0.0
H293 H 0.22316 0.57597 0.37877 0.0
H294 H 0.23708 0.56096 0.34605 0.0
H295 H 0.23293 0.61129 0.29096 0.0
H296 H 0.25239 0.59778 0.28514 0.0
H297 H 0.24175 0.60098 0.34399 0.0
H298 H 0.29333 0.56436 0.34877 0.0
C299 C 0.27006 0.56578 0.30274 0.0
C300 C 0.08749 0.18633 0.36065 0.0
C301 C 0.08602 0.16837 0.34941 0.0
C302 C 0.09314 0.16341 0.30421 0.0
C303 C 0.09976 0.19412 0.27976 0.0
C304 C 0.09432 0.19898 0.3252 0.0
C305 C 0.09554 0.21879 0.32928 0.0
H306 H 0.09653 0.30015 0.21899 0.0
C307 C 0.10283 0.21032 0.24872 0.0
C308 C 0.10045 0.22488 0.27722 0.0
H309 H 0.09952 0.28625 0.3704 0.0
H310 H 0.10127 0.25547 0.35329 0.0
H311 H 0.12977 0.27189 0.18399 0.0
H312 H 0.06884 0.26613 0.19267 0.0
H313 H 0.07777 0.25777 0.13877 0.0
H314 H 0.08107 0.28103 0.14891 0.0
H315 H 0.11519 0.28582 0.14877 0.0
H316 H 0.12099 0.26422 0.12994 0.0
C317 C 0.11162 0.22342 0.36308 0.0
C318 C 0.07599 0.22493 0.34672 0.0
C319 C 0.10734 0.20303 0.07012 0.0
C320 C 0.10411 0.21417 0.03029 0.0
C321 C 0.10135 0.23228 0.03684 0.0
C322 C 0.10185 0.2391 0.0831 0.0
C323 C 0.10444 0.22751 0.12307 0.0
C324 C 0.10691 0.20977 0.11579 0.0
C325 C 0.10671 0.19869 0.16154 0.0
C326 C 0.10456 0.21272 0.19808 0.0
C327 C 0.10348 0.22968 0.17582 0.0
C328 C 0.12598 0.18992 0.16452 0.0
C329 C 0.08938 0.18537 0.16277 0.0
C330 C 0.09751 0.29038 0.24824 0.0
C331 C 0.0978 0.29555 0.29615 0.0
C332 C 0.09936 0.28257 0.33332 0.0
C333 C 0.10028 0.2647 0.32343 0.0
C334 C 0.09961 0.25963 0.27586 0.0
C335 C 0.09882 0.27231 0.23886 0.0
C336 C 0.09966 0.26413 0.19037 0.0
C337 C 0.10151 0.24462 0.20481 0.0
C338 C 0.10075 0.24216 0.25514 0.0
C339 C 0.11727 0.27192 0.16135 0.0
C340 C 0.08094 0.26747 0.16595 0.0
H341 H 0.10513 0.17152 0.23596 0.0
H342 H 0.08278 0.19051 0.39563 0.0
H343 H 0.06477 0.21925 0.32473 0.0
H344 H 0.07483 0.23942 0.34391 0.0
H345 H 0.07277 0.22054 0.38481 0.0
H346 H 0.12081 0.21208 0.36984 0.0
H347 H 0.10595 0.22733 0.39861 0.0
H348 H 0.12126 0.23423 0.34726 0.0
H349 H 0.1087 0.18894 0.06624 0.0
H350 H 0.09846 0.241 0.00645 0.0
H351 H 0.0996 0.25295 0.08624 0.0
H352 H 0.13767 0.19944 0.15199 0.0
H353 H 0.12659 0.1783 0.1416 0.0
H354 H 0.12917 0.18571 0.20164 0.0
H355 H 0.0797 0.18815 0.13336 0.0
H356 H 0.0804 0.18596 0.19607 0.0
H357 H 0.09379 0.17156 0.15924 0.0
H358 H 0.09231 0.14975 0.29424 0.0
C359 C 0.10022 0.17615 0.26974 0.0
C360 C 0.31006 0.00398 0.08867 0.0
C361 C 0.32901 0.00105 0.07394 0.0
C362 C 0.34099 0.99367 0.10733 0.0
C363 C 0.31559 0.99095 0.16795 0.0
C364 C 0.30362 0.99881 0.13641 0.0
C365 C 0.28408 0.00039 0.16034 0.0
H366 H 0.22796 0.98296 0.36658 0.0
C367 C 0.30503 0.98612 0.21356 0.0
C368 C 0.28642 0.99165 0.21035 0.0
H369 H 0.21038 0.00901 0.23616 0.0
H370 H 0.24196 0.00624 0.19925 0.0
H371 H 0.24748 0.95284 0.31653 0.0
H372 H 0.268 0.00207 0.36932 0.0
H373 H 0.28396 0.98607 0.3864 0.0
H374 H 0.25969 0.98351 0.40781 0.0
H375 H 0.251 0.95549 0.37907 0.0
H376 H 0.26953 0.94839 0.3389 0.0
C377 C 0.26957 0.99004 0.13185 0.0
C378 C 0.28 0.02018 0.163 0.0
C379 C 0.33921 0.95321 0.34361 0.0
C380 C 0.33384 0.94663 0.39028 0.0
C381 C 0.31506 0.94822 0.40732 0.0
C382 C 0.30199 0.95654 0.37859 0.0
C383 C 0.30776 0.96343 0.33231 0.0
C384 C 0.32604 0.96148 0.31555 0.0
C385 C 0.32988 0.9697 0.26604 0.0
C386 C 0.31077 0.97687 0.25544 0.0
C387 C 0.29798 0.97331 0.29437 0.0
C388 C 0.33532 0.95467 0.23253 0.0
C389 C 0.34517 0.98481 0.26921 0.0
C390 C 0.23059 0.98795 0.32981 0.0
C391 C 0.21638 0.99593 0.30432 0.0
C392 C 0.22099 0.00274 0.25692 0.0
C393 C 0.2393 0.00108 0.23547 0.0
C394 C 0.25319 0.9926 0.26171 0.0
C395 C 0.24844 0.98626 0.30815 0.0
C396 C 0.26412 0.97721 0.33164 0.0
C397 C 0.27941 0.97925 0.29242 0.0
C398 C 0.27333 0.98835 0.25089 0.0
C399 C 0.25781 0.95749 0.34255 0.0
C400 C 0.26924 0.98758 0.37636 0.0
H401 H 0.34451 0.98295 0.17666 0.0
H402 H 0.30056 0.00977 0.06367 0.0
H403 H 0.29203 0.02751 0.17826 0.0
H404 H 0.26747 0.02242 0.18629 0.0
H405 H 0.27782 0.02614 0.12664 0.0
H406 H 0.27437 0.97648 0.12564 0.0
H407 H 0.26769 0.99682 0.09634 0.0
H408 H 0.2557 0.98848 0.15116 0.0
H409 H 0.35364 0.95268 0.32975 0.0
H410 H 0.31057 0.94329 0.4432 0.0
H411 H 0.28802 0.95757 0.39397 0.0
H412 H 0.32803 0.94186 0.24465 0.0
H413 H 0.35071 0.95264 0.23202 0.0
H414 H 0.33096 0.95698 0.19533 0.0
H415 H 0.34463 0.99063 0.30517 0.0
H416 H 0.34315 0.99618 0.24386 0.0
H417 H 0.35955 0.97991 0.26301 0.0
H418 H 0.35557 0.99148 0.09702 0.0
C419 C 0.33447 0.98868 0.15381 0.0
C420 C 0.46156 0.30527 0.04969 0.0
C421 C 0.4565 0.32277 0.03809 0.0
C422 C 0.44981 0.33331 0.07498 0.0
C423 C 0.45636 0.31048 0.1343 0.0
C424 C 0.46086 0.29923 0.09831 0.0
C425 C 0.46464 0.28091 0.11884 0.0
H426 H 0.4807 0.22941 0.31877 0.0
C427 C 0.45939 0.30148 0.18085 0.0
C428 C 0.4636 0.28384 0.17269 0.0
H429 H 0.47686 0.212 0.17401 0.0
H430 H 0.47026 0.24198 0.14607 0.0
H431 H 0.50493 0.26214 0.2929 0.0
H432 H 0.4453 0.25485 0.31881 0.0
H433 H 0.45276 0.27364 0.34925 0.0
H434 H 0.46241 0.2525 0.36389 0.0
H435 H 0.49441 0.26271 0.35223 0.0
H436 H 0.498 0.28249 0.31379 0.0
C437 C 0.4845 0.27584 0.10114 0.0
C438 C 0.4487 0.26801 0.10426 0.0
C439 C 0.4715 0.33941 0.32215 0.0
C440 C 0.47859 0.33554 0.36746 0.0
C441 C 0.47947 0.31773 0.38383 0.0
C442 C 0.47463 0.30399 0.35401 0.0
C443 C 0.46907 0.30812 0.30719 0.0
C444 C 0.46702 0.32557 0.29251 0.0
C445 C 0.46125 0.32755 0.24143 0.0
C446 C 0.46129 0.30838 0.22694 0.0
C447 C 0.46591 0.29715 0.26553 0.0
C448 C 0.47654 0.33938 0.2129 0.0
C449 C 0.44125 0.33511 0.24136 0.0
C450 C 0.47855 0.23197 0.28094 0.0
C451 C 0.47947 0.21833 0.24856 0.0
C452 C 0.47617 0.22228 0.19977 0.0
C453 C 0.47232 0.23965 0.18365 0.0
C454 C 0.47162 0.25315 0.21677 0.0
C455 C 0.47467 0.24906 0.26451 0.0
C456 C 0.47386 0.26484 0.29501 0.0
C457 C 0.46889 0.27903 0.25835 0.0
C458 C 0.46775 0.27229 0.21228 0.0
C459 C 0.4937 0.26826 0.31487 0.0
C460 C 0.45784 0.26135 0.33413 0.0
H461 H 0.44488 0.336 0.14942 0.0
H462 H 0.46619 0.29672 0.02179 0.0
H463 H 0.43505 0.27469 0.10318 0.0
H464 H 0.44608 0.25669 0.13034 0.0
H465 H 0.45183 0.26299 0.06808 0.0
H466 H 0.49498 0.28678 0.10661 0.0
H467 H 0.48483 0.27325 0.06224 0.0
H468 H 0.48941 0.26402 0.12068 0.0
H469 H 0.4702 0.353 0.30927 0.0
H470 H 0.48481 0.31441 0.41873 0.0
H471 H 0.4761 0.2907 0.36795 0.0
H472 H 0.49078 0.33432 0.21878 0.0
H473 H 0.47639 0.35322 0.22458 0.0
H474 H 0.47488 0.33992 0.17388 0.0
H475 H 0.43422 0.33458 0.27785 0.0
H476 H 0.43165 0.32734 0.21922 0.0
H477 H 0.44176 0.34918 0.22798 0.0
H478 H 0.4457 0.34673 0.06699 0.0
C479 C 0.4496 0.32721 0.12287 0.0
C480 C 0.03134 0.97632 0.75429 0.0
N481 N 1.00118 0.96897 0.63151 0.0
C482 C 0.01323 0.95559 0.62601 0.0
C483 C 0.00723 0.9397 0.6072 0.0
C484 C 0.9886 0.93738 0.59324 0.0
C485 C 0.97647 0.95153 0.59847 0.0
C486 C 0.98307 0.96728 0.6179 0.0
Zn487 Zn 0.0116 0.99052 0.66602 0.0
C488 C 0.98606 0.00115 0.74683 0.0
N489 N 0.03672 0.03172 0.74512 0.0
C490 C 0.0545 0.03235 0.76134 0.0
C491 C 0.02532 0.04563 0.74987 0.0
C492 C 0.03171 0.061 0.77071 0.0
C493 C 0.05 0.06217 0.78777 0.0
C494 C 0.06143 0.04749 0.78304 0.0
Zn495 Zn 0.02608 0.01049 0.71003 0.0
O496 O 0.02212 0.9727 0.71778 0.0
C497 C 0.05173 1.00002 0.6292 0.0
O498 O 0.03617 0.99231 0.76122 0.0
H499 H 0.01124 0.04494 0.73676 0.0
H500 H 0.02752 0.95704 0.63747 0.0
H501 H 0.06335 0.02117 0.75716 0.0
O502 O 0.03709 0.99044 0.62217 0.0
O503 O 0.05167 0.00978 0.66527 0.0
H504 H 0.97366 0.97801 0.62281 0.0
O505 O 0.01523 0.02834 0.65883 0.0
O506 O 1.00134 0.00867 0.61497 0.0
O507 O 1.00076 0.01064 0.75382 0.0
O508 O 0.986 0.99135 0.71079 0.0
C509 C 0.00565 0.0247 0.62294 0.0
H510 H 0.01705 0.92915 0.60501 0.0
H511 H 0.96203 0.95045 0.58779 0.0
H512 H 0.02246 0.07201 0.77244 0.0
H513 H 0.07554 0.04764 0.79611 0.0
C514 C 0.49749 0.97861 0.62327 0.0
N515 N 0.50879 0.03374 0.60785 0.0
C516 C 0.51008 0.03105 0.55991 0.0
C517 C 0.50681 0.04476 0.52648 0.0
C518 C 0.50237 0.06151 0.54239 0.0
C519 C 0.50104 0.06391 0.59206 0.0
C520 C 0.50423 0.04976 0.62431 0.0
Zn521 Zn 0.51463 0.01327 0.65514 0.0
C522 C 0.48417 0.00615 0.73282 0.0
N523 N 0.52636 0.9691 0.74935 0.0
C524 C 0.5332 0.95362 0.73444 0.0
C525 C 0.5236 0.97192 0.79694 0.0
C526 C 0.52756 0.95888 0.83159 0.0
C527 C 0.53449 0.9427 0.81742 0.0
C528 C 0.5374 0.94019 0.76802 0.0
Zn529 Zn 0.52028 0.98928 0.70128 0.0
O530 O 0.49945 0.9952 0.61386 0.0
C531 C 0.55082 0.99628 0.624 0.0
O532 O 0.50516 0.97174 0.65952 0.0
H533 H 0.51836 0.98437 0.80822 0.0
H534 H 0.51389 0.01828 0.54747 0.0
H535 H 0.53536 0.95166 0.69646 0.0
O536 O 0.54025 0.00902 0.61399 0.0
O537 O 0.54585 0.98545 0.65897 0.0
H538 H 0.50322 0.05163 0.66253 0.0
O539 O 0.53511 0.00727 0.74279 0.0
O540 O 0.53016 0.03073 0.69649 0.0
O541 O 0.49477 0.99334 0.74165 0.0
O542 O 0.48901 0.01728 0.69839 0.0
C543 C 0.5374 0.0238 0.7332 0.0
H544 H 0.5082 0.04239 0.48852 0.0
H545 H 0.4975 0.07658 0.60584 0.0
H546 H 0.52541 0.96157 0.86919 0.0
H547 H 0.54258 0.92787 0.75539 0.0
C548 C 0.53617 0.48293 0.61585 0.0
N549 N 0.48409 0.50623 0.62976 0.0
C550 C 0.48686 0.5111 0.58236 0.0
C551 C 0.47163 0.51226 0.55275 0.0
C552 C 0.45333 0.50819 0.5718 0.0
C553 C 0.45082 0.50289 0.62063 0.0
C554 C 0.4665 0.50209 0.64923 0.0
Zn555 Zn 0.50756 0.50451 0.6696 0.0
C556 C 0.50714 0.47211 0.73281 0.0
N557 N 0.55872 0.49978 0.74305 0.0
C558 C 0.57655 0.50116 0.72307 0.0
C559 C 0.55558 0.49689 0.79126 0.0
C560 C 0.57058 0.49539 0.82143 0.0
C561 C 0.58917 0.49659 0.80205 0.0
C562 C 0.59205 0.49955 0.75204 0.0
Zn563 Zn 0.53535 0.50183 0.70284 0.0
O564 O 0.51989 0.48928 0.61622 0.0
C565 C 0.53591 0.53425 0.63971 0.0
O566 O 0.54702 0.48608 0.64968 0.0
H567 H 0.54133 0.49576 0.80659 0.0
H568 H 0.50095 0.51403 0.56728 0.0
H569 H 0.57874 0.50343 0.68465 0.0
O570 O 0.51919 0.52825 0.63484 0.0
O571 O 0.54678 0.52551 0.66608 0.0
H572 H 0.46461 0.49814 0.68691 0.0
O573 O 0.5231 0.51755 0.75545 0.0
O574 O 0.49568 0.52003 0.72313 0.0
O575 O 0.52372 0.47833 0.73825 0.0
O576 O 0.49632 0.48062 0.70589 0.0
C577 C 0.50673 0.52372 0.75614 0.0
H578 H 0.47419 0.51614 0.51511 0.0
H579 H 0.43689 0.49971 0.63666 0.0
H580 H 0.56757 0.49349 0.85972 0.0
H581 H 0.6061 0.50038 0.73531 0.0
C582 C 0.03799 0.52695 0.62651 0.0
N583 N 0.03753 0.47135 0.622 0.0
C584 C 0.05551 0.47273 0.60296 0.0
C585 C 0.06201 0.46023 0.57135 0.0
C586 C 0.04988 0.44618 0.55907 0.0
C587 C 0.03146 0.44504 0.57965 0.0
C588 C 0.02557 0.45779 0.61108 0.0
Zn589 Zn 0.02757 0.49027 0.66614 0.0
C590 C 0.05388 0.50069 0.73909 0.0
N591 N 0.00527 0.53023 0.75435 0.0
C592 C 0.99727 0.54491 0.7357 0.0
C593 C 0.00755 0.52802 0.8024 0.0
C594 C 1.002 0.54098 0.8336 0.0
C595 C 0.99399 0.55643 0.81537 0.0
C596 C 0.99148 0.55822 0.76568 0.0
Zn597 Zn 0.01525 0.51136 0.71004 0.0
O598 O 0.04016 0.51064 0.61943 0.0
C599 C 0.98896 0.50069 0.63695 0.0
O600 O 0.02785 0.53129 0.66239 0.0
H601 H 0.01391 0.51626 0.81659 0.0
H602 H 0.06478 0.48366 0.61189 0.0
H603 H 0.99565 0.54646 0.6974 0.0
O604 O 0.00271 0.49098 0.6275 0.0
O605 O 0.99009 0.51129 0.67096 0.0
H606 H 0.01134 0.45689 0.62657 0.0
O607 O 0.00282 0.49108 0.75685 0.0
O608 O 0.01463 0.47033 0.71349 0.0
O609 O 0.04054 0.51096 0.74791 0.0
O610 O 0.05233 0.48983 0.70587 0.0
C611 C 0.0046 0.47476 0.74946 0.0
H612 H 0.07627 0.46173 0.55607 0.0
H613 H 0.02171 0.4343 0.57191 0.0
H614 H 0.00395 0.53889 0.87168 0.0
H615 H 0.98555 0.56997 0.74991 0.0
H616 H 0.19105 0.02303 0.30162 0.0
H617 H 0.16156 0.02477 0.35016 0.0
H618 H 0.16954 0.97256 0.4128 0.0
H619 H 0.19772 0.97022 0.36203 0.0
H620 H 0.13572 0.97415 0.40614 0.0
H621 H 0.18102 0.01521 0.46801 0.0
H622 H 0.20348 0.04096 0.46466 0.0
H623 H 0.15936 0.07525 0.42556 0.0
H624 H 0.13668 0.04965 0.42815 0.0
H625 H 0.08871 0.01056 0.64157 0.0
H626 H 0.11535 0.01059 0.58254 0.0
H627 H 0.07794 0.99183 0.4765 0.0
H628 H 0.0517 0.99082 0.53584 0.0
H629 H 0.12583 0.02653 0.5034 0.0
H630 H 0.0989 0.96744 0.39569 0.0
H631 H 0.07964 0.93969 0.40947 0.0
H632 H 0.0929 0.93778 0.55822 0.0
H633 H 0.11242 0.96538 0.5452 0.0
C634 C 0.18626 0.01179 0.32496 0.0
C635 C 0.19712 0.99664 0.32846 0.0
C636 C 0.1695 0.01289 0.35343 0.0
C637 C 0.16338 0.99901 0.38665 0.0
C638 C 0.17377 0.98359 0.38811 0.0
C639 C 0.19017 0.98235 0.3592 0.0
C640 C 0.14651 0.00029 0.42075 0.0
C641 C 0.13362 0.98569 0.42716 0.0
C642 C 0.14364 0.01511 0.44931 0.0
C643 C 0.15722 0.0305 0.44773 0.0
C644 C 0.17615 0.02823 0.45839 0.0
C645 C 0.18891 0.0428 0.45667 0.0
C646 C 0.18286 0.05972 0.44476 0.0
C647 C 0.16403 0.06212 0.43468 0.0
C648 C 0.15122 0.04759 0.43628 0.0
C649 C 0.08624 0.0063 0.60575 0.0
C650 C 0.06811 0.00039 0.59379 0.0
C651 C 0.10148 0.00642 0.57182 0.0
C652 C 0.09892 0.00087 0.5249 0.0
C653 C 0.08062 0.99563 0.5126 0.0
C654 C 0.06552 0.99512 0.5467 0.0
C655 C 0.1153 0.0003 0.48907 0.0
C656 C 0.12797 0.01505 0.4822 0.0
C657 C 0.11848 0.9853 0.46148 0.0
C658 C 0.10694 0.96858 0.46954 0.0
C659 C 0.09775 0.96106 0.43129 0.0
C660 C 0.08678 0.94537 0.43898 0.0
C661 C 0.08499 0.93702 0.48473 0.0
C662 C 0.09423 0.9443 0.52285 0.0
C663 C 0.10524 0.95998 0.51534 0.0
H664 H 0.07648 0.92488 0.49061 0.0
H665 H 0.19276 0.07099 0.44346 0.0
H666 H 0.4626 0.18644 0.2273 0.0
H667 H 0.46709 0.15734 0.26668 0.0
H668 H 0.50988 0.18056 0.35214 0.0
H669 H 0.50609 0.20926 0.31155 0.0
H670 H 0.51985 0.14938 0.32986 0.0
H671 H 0.46248 0.17354 0.39318 0.0
H672 H 0.43075 0.18538 0.38842 0.0
H673 H 0.41036 0.13689 0.33104 0.0
H674 H 0.44205 0.12485 0.3349 0.0
H675 H 0.51671 0.0955 0.54396 0.0
H676 H 0.51304 0.11989 0.48494 0.0
H677 H 0.4784 0.08577 0.40226 0.0
H678 H 0.48196 0.06127 0.46137 0.0
H679 H 0.46372 0.11953 0.4145 0.0
H680 H 0.52166 0.09451 0.36259 0.0
H681 H 0.55347 0.08345 0.37269 0.0
H682 H 0.57294 0.13472 0.41428 0.0
H683 H 0.54116 0.14603 0.40512 0.0
C684 C 0.47326 0.18521 0.25367 0.0
C685 C 0.48377 0.20021 0.26685 0.0
C686 C 0.47568 0.16862 0.27657 0.0
C687 C 0.48853 0.1668 0.31326 0.0
C688 C 0.49978 0.18158 0.32428 0.0
C689 C 0.49748 0.19805 0.30128 0.0
C690 C 0.48976 0.14989 0.34225 0.0
C691 C 0.50756 0.14292 0.34847 0.0
C692 C 0.47372 0.14119 0.36601 0.0
C693 C 0.45467 0.14839 0.36376 0.0
C694 C 0.45126 0.16546 0.37921 0.0
C695 C 0.43328 0.1722 0.37673 0.0
C696 C 0.41856 0.16191 0.35929 0.0
C697 C 0.42178 0.14485 0.34443 0.0
C698 C 0.43975 0.13806 0.34676 0.0
C699 C 0.50819 0.09322 0.51342 0.0
C700 C 0.49964 0.07645 0.50728 0.0
C701 C 0.50622 0.10713 0.47955 0.0
C702 C 0.4956 0.10459 0.43897 0.0
C703 C 0.48672 0.08798 0.4332 0.0
C704 C 0.48885 0.07399 0.46684 0.0
C705 C 0.49382 0.11934 0.40275 0.0
C706 C 0.47594 0.12587 0.39526 0.0
C707 C 0.50981 0.12779 0.37838 0.0
C708 C 0.52898 0.12108 0.3835 0.0
C709 C 0.53269 0.1034 0.37422 0.0
C710 C 0.55072 0.09709 0.37973 0.0
C711 C 0.56521 0.10837 0.3942 0.0
C712 C 0.5617 0.126 0.40309 0.0
C713 C 0.54369 0.13237 0.3977 0.0
H714 H 0.57916 0.10346 0.39845 0.0
H715 H 0.40465 0.16715 0.35741 0.0
H716 H 0.30349 0.51217 0.31612 0.0
H717 H 0.33101 0.50164 0.35784 0.0
H718 H 0.35612 0.55457 0.34719 0.0
H719 H 0.32858 0.56513 0.30638 0.0
H720 H 0.38201 0.52687 0.32927 0.0
H721 H 0.33289 0.54287 0.44467 0.0
H722 H 0.30069 0.54056 0.4815 0.0
H723 H 0.30681 0.4852 0.51503 0.0
H724 H 0.33898 0.48713 0.47766 0.0
H725 H 0.44625 0.53566 0.50985 0.0
H726 H 0.42009 0.53825 0.45662 0.0
H727 H 0.39754 0.48691 0.50931 0.0
H728 H 0.42366 0.48444 0.56367 0.0
H729 H 0.37009 0.50881 0.50145 0.0
H730 H 0.42039 0.49299 0.39683 0.0
H731 H 0.45248 0.49436 0.35934 0.0
H732 H 0.44438 0.54719 0.30351 0.0
H733 H 0.41233 0.54624 0.34127 0.0
C734 C 0.31511 0.52141 0.3218 0.0
C735 C 0.31401 0.53943 0.30821 0.0
C736 C 0.33073 0.51543 0.34575 0.0
C737 C 0.34551 0.52737 0.35579 0.0
C738 C 0.34487 0.54516 0.33968 0.0
C739 C 0.32917 0.55117 0.31652 0.0
C740 C 0.36094 0.52182 0.38637 0.0
C741 C 0.37948 0.52295 0.36694 0.0
C742 C 0.3575 0.51621 0.43511 0.0
C743 C 0.33823 0.51509 0.45784 0.0
C744 C 0.32731 0.53017 0.4595 0.0
C745 C 0.30907 0.52894 0.48054 0.0
C746 C 0.30168 0.51273 0.50046 0.0
C747 C 0.31254 0.49773 0.49949 0.0
C748 C 0.33077 0.49889 0.47839 0.0
C749 C 0.43577 0.52488 0.50992 0.0
C750 C 0.43705 0.5098 0.54064 0.0
C751 C 0.42085 0.52634 0.47933 0.0
C752 C 0.40704 0.5126 0.47808 0.0
C753 C 0.40808 0.49763 0.50941 0.0
C754 C 0.42295 0.49625 0.54051 0.0
C755 C 0.39138 0.5142 0.44472 0.0
C756 C 0.37274 0.51237 0.4636 0.0
C757 C 0.39474 0.51896 0.39527 0.0
C758 C 0.41398 0.51958 0.37218 0.0
C759 C 0.42549 0.50494 0.37682 0.0
C760 C 0.44367 0.50564 0.35549 0.0
C761 C 0.45048 0.52086 0.32913 0.0
C762 C 0.43909 0.53541 0.32396 0.0
C763 C 0.4209 0.53479 0.34527 0.0
H764 H 0.46456 0.52137 0.31264 0.0
H765 H 0.28757 0.5118 0.51675 0.0
H766 H 0.06968 0.31776 0.27458 0.0
H767 H 0.06345 0.34601 0.31096 0.0
H768 H 0.11561 0.34332 0.38399 0.0
H769 H 0.12152 0.31494 0.34871 0.0
H770 H 0.08814 0.34834 0.44561 0.0
H771 H 0.10815 0.37518 0.292 0.0
H772 H 0.10832 0.37988 0.20398 0.0
H773 H 0.05035 0.39377 0.21355 0.0
H774 H 0.04976 0.38892 0.30162 0.0
H775 H 0.0841 0.43069 0.55398 0.0
H776 H 0.09409 0.4076 0.50097 0.0
H777 H 0.04023 0.40771 0.43572 0.0
H778 H 0.03032 0.43118 0.48763 0.0
H779 H 0.06896 0.40478 0.36864 0.0
H780 H 0.04863 0.37659 0.52093 0.0
H781 H 0.04814 0.37169 0.60895 0.0
H782 H 0.10677 0.36 0.60105 0.0
H783 H 0.10767 0.36507 0.51299 0.0
C784 C 0.08003 0.32351 0.2973 0.0
C785 C 0.09604 0.31422 0.30898 0.0
C786 C 0.07648 0.33964 0.31814 0.0
C787 C 0.08906 0.34683 0.35036 0.0
C788 C 0.10563 0.33802 0.35955 0.0
C789 C 0.10906 0.32186 0.33922 0.0
C790 C 0.08417 0.36248 0.37825 0.0
C791 C 0.08431 0.36078 0.42858 0.0
C792 C 0.07854 0.37856 0.35633 0.0
C793 C 0.07887 0.38153 0.30339 0.0
C794 C 0.0954 0.3791 0.27531 0.0
C795 C 0.09557 0.38182 0.22541 0.0
C796 C 0.07934 0.38708 0.20317 0.0
C797 C 0.06291 0.38968 0.23082 0.0
C798 C 0.06265 0.38696 0.28073 0.0
C799 C 0.07447 0.42601 0.52788 0.0
C800 C 0.05634 0.4327 0.52537 0.0
C801 C 0.08016 0.41271 0.49781 0.0
C802 C 0.06782 0.40577 0.46477 0.0
C803 C 0.04996 0.41282 0.46104 0.0
C804 C 0.04425 0.42611 0.49111 0.0
C805 C 0.07322 0.39061 0.43569 0.0
C806 C 0.07301 0.39236 0.38538 0.0
C807 C 0.07878 0.37452 0.45751 0.0
C808 C 0.07826 0.37139 0.51044 0.0
C809 C 0.06145 0.37311 0.53801 0.0
C810 C 0.06109 0.37028 0.58789 0.0
C811 C 0.07743 0.36559 0.61059 0.0
C812 C 0.09414 0.36367 0.58343 0.0
C813 C 0.09457 0.36651 0.53353 0.0
H814 H 0.07712 0.3634 0.64922 0.0
H815 H 0.07951 0.38918 0.16453 0.0
H816 H 0.84857 0.96878 0.07285 0.0
H817 H 0.87924 0.96948 0.02802 0.0
H818 H 0.86924 0.02216 0.97169 0.0
H819 H 0.8393 0.02165 0.01757 0.0
H820 H 0.88699 0.97026 0.93727 0.0
H821 H 0.90747 0.04583 0.93737 0.0
H822 H 0.90648 0.07005 0.9936 0.0
H823 H 0.90537 0.03226 0.11323 0.0
H824 H 0.90661 0.00782 0.05776 0.0
H825 H 0.94865 0.99236 0.7343 0.0
H826 H 0.92257 0.99128 0.79507 0.0
H827 H 0.96129 0.00667 0.90207 0.0
H828 H 0.98697 0.00882 0.84107 0.0
H829 H 0.93189 0.02218 0.92009 0.0
H830 H 0.94368 0.96313 0.88313 0.0
H831 H 0.94762 0.93801 0.83102 0.0
H832 H 0.88922 0.93883 0.7984 0.0
H833 H 0.88508 0.96451 0.84858 0.0
C834 C 0.8534 0.98077 0.0526 0.0
C835 C 0.84172 0.99532 0.04961 0.0
C836 C 0.87079 0.98107 0.02624 0.0
C837 C 0.87682 0.99592 0.99635 0.0
C838 C 0.86537 0.01067 0.99508 0.0
C839 C 0.84819 0.01041 0.02155 0.0
C840 C 0.89428 0.9958 0.96391 0.0
C841 C 0.89686 0.98157 0.93373 0.0
C842 C 0.90758 0.01032 0.9597 0.0
C843 C 0.90699 0.02498 0.99334 0.0
C844 C 0.90711 0.04268 0.97567 0.0
C845 C 0.90648 0.05646 0.00742 0.0
C846 C 0.90581 0.05269 0.05695 0.0
C847 C 0.90582 0.03515 0.07485 0.0
C848 C 0.90646 0.02133 0.04327 0.0
C849 C 0.95153 0.99562 0.77074 0.0
C850 C 0.9699 0.0007 0.78274 0.0
C851 C 0.93661 0.99491 0.80566 0.0
C852 C 0.93985 0.99858 0.85381 0.0
C853 C 0.95822 0.0038 0.86547 0.0
C854 C 0.97297 0.00498 0.83042 0.0
C855 C 0.9243 0.9969 0.89225 0.0
C856 C 0.92211 0.01079 0.92366 0.0
C857 C 0.9118 0.98178 0.89854 0.0
C858 C 0.91411 0.96596 0.86933 0.0
C859 C 0.93171 0.95815 0.86435 0.0
C860 C 0.934 0.94383 0.83497 0.0
C861 C 0.91869 0.93686 0.81128 0.0
C862 C 0.90107 0.94425 0.81675 0.0
C863 C 0.89876 0.95875 0.84554 0.0
H864 H 0.92046 0.92568 0.78888 0.0
H865 H 0.90532 0.06338 0.08147 0.0
H866 H 0.5429 0.81916 0.15509 0.0
H867 H 0.53885 0.84755 0.11115 0.0
H868 H 0.5853 0.83681 0.01356 0.0
H869 H 0.58934 0.80856 0.05729 0.0
H870 H 0.58435 0.87246 0.03293 0.0
H871 H 0.54228 0.82544 0.98521 0.0
H872 H 0.51777 0.80162 0.99956 0.0
H873 H 0.47917 0.83905 0.05352 0.0
H874 H 0.5036 0.86306 0.04024 0.0
H875 H 0.56432 0.92069 0.81824 0.0
H876 H 0.57074 0.8976 0.87884 0.0
H877 H 0.52051 0.90995 0.96084 0.0
H878 H 0.51368 0.93264 0.89972 0.0
H879 H 0.52291 0.87512 0.95567 0.0
H880 H 0.56437 0.9229 0.99592 0.0
H881 H 0.58907 0.94652 0.98105 0.0
H882 H 0.62887 0.90797 0.94071 0.0
H883 H 0.60432 0.88413 0.95466 0.0
C884 C 0.55258 0.82316 0.12519 0.0
C885 C 0.56637 0.81169 0.10939 0.0
C886 C 0.55019 0.83929 0.09992 0.0
C887 C 0.56162 0.84418 0.05866 0.0
C888 C 0.57631 0.83332 0.04519 0.0
C889 C 0.57859 0.81718 0.07012 0.0
C890 C 0.55715 0.8595 0.02652 0.0
C891 C 0.57095 0.87304 0.01587 0.0
C892 C 0.53958 0.86037 0.00475 0.0
C893 C 0.52483 0.846 0.01228 0.0
C894 C 0.52862 0.82857 1.0005 0.0
C895 C 0.51473 0.81503 0.00839 0.0
C896 C 0.49694 0.81881 0.02757 0.0
C897 C 0.49298 0.83614 0.03877 0.0
C898 C 0.50683 0.84971 0.03107 0.0
C899 C 0.55456 0.91841 0.84897 0.0
C900 C 0.5385 0.92858 0.85411 0.0
C901 C 0.55836 0.90533 0.8839 0.0
C902 C 0.54626 0.90219 0.92483 0.0
C903 C 0.53013 0.91218 0.92977 0.0
C904 C 0.52632 0.92526 0.89492 0.0
C905 C 0.55012 0.88816 0.96182 0.0
C906 C 0.53622 0.87476 0.97318 0.0
C907 C 0.56762 0.88744 0.98416 0.0
C908 C 0.58245 0.90174 0.97594 0.0
C909 C 0.57835 0.91947 0.98352 0.0
C910 C 0.59233 0.9329 0.97531 0.0
C911 C 0.61051 0.92876 0.95984 0.0
C912 C 0.61477 0.91117 0.95265 0.0
C913 C 0.60083 0.89768 0.96075 0.0
H914 H 0.62132 0.93917 0.9535 0.0
H915 H 0.4862 0.80832 0.03364 0.0
H916 H 0.70852 0.46466 0.12993 0.0
H917 H 0.68081 0.47149 0.08376 0.0
H918 H 0.71685 0.49893 0.97398 0.0
H919 H 0.74451 0.49183 0.01955 0.0
H920 H 0.68117 0.5156 0.9959 0.0
H921 H 0.7067 0.4593 0.95601 0.0
H922 H 0.71739 0.42938 0.97624 0.0
H923 H 0.66237 0.41412 0.03731 0.0
H924 H 0.65146 0.44409 0.01823 0.0
H925 H 0.62384 0.51427 0.79461 0.0
H926 H 0.64977 0.51155 0.84865 0.0
H927 H 0.61661 0.47287 0.93778 0.0
H928 H 0.59118 0.4746 0.88236 0.0
H929 H 0.65034 0.46251 0.93012 0.0
H930 H 0.62365 0.51756 0.96793 0.0
H931 H 0.61238 0.54755 0.9515 0.0
H932 H 0.66787 0.56536 0.89915 0.0
H933 H 0.67943 0.5354 0.91466 0.0
C934 C 0.71039 0.47255 0.09658 0.0
C935 C 0.72852 0.47777 0.07812 0.0
C936 C 0.69463 0.47638 0.07022 0.0
C937 C 0.69684 0.48563 0.0254 0.0
C938 C 0.71486 0.49184 0.00854 0.0
C939 C 0.73061 0.48777 0.03447 0.0
C940 C 0.68076 0.48721 0.99372 0.0
C941 C 0.67445 0.50405 0.98119 0.0
C942 C 0.67186 0.47208 0.97536 0.0
C943 C 0.67833 0.45399 0.9862 0.0
C944 C 0.69693 0.44961 0.97413 0.0
C945 C 0.70303 0.43264 0.98533 0.0
C946 C 0.69058 0.41987 0.00816 0.0
C947 C 0.67201 0.42404 0.01971 0.0
C948 C 0.66586 0.44101 0.00871 0.0
C949 C 0.62214 0.50498 0.82529 0.0
C950 C 0.60528 0.49477 0.83417 0.0
C951 C 0.63691 0.50364 0.85664 0.0
C952 C 0.63504 0.49228 0.89798 0.0
C953 C 0.61838 0.48184 0.9064 0.0
C954 C 0.60373 0.483 0.87483 0.0
C955 C 0.6505 0.49099 0.93211 0.0
C956 C 0.65683 0.47414 0.94499 0.0
C957 C 0.65924 0.50614 0.9512 0.0
C958 C 0.65236 0.52419 0.94203 0.0
C959 C 0.63342 0.52784 0.95259 0.0
C960 C 0.62699 0.54484 0.9435 0.0
C961 C 0.63939 0.55834 0.92418 0.0
C962 C 0.65828 0.55488 0.91405 0.0
C963 C 0.66478 0.5379 0.92303 0.0
H964 H 0.63438 0.57149 0.91716 0.0
H965 H 0.69532 0.40673 0.0168 0.0
H966 H 0.97476 0.68596 0.10407 0.0
H967 H 0.98216 0.65784 0.06835 0.0
H968 H 0.93414 0.66208 0.97986 0.0
H969 H 0.92652 0.6899 0.01599 0.0
H970 H 0.93814 0.62814 0.01126 0.0
H971 H 0.97764 0.67577 0.93636 0.0
H972 H 1.00075 0.70096 0.93512 0.0
H973 H 0.04145 0.66727 0.99666 0.0
H974 H 0.01846 0.64191 0.99888 0.0
H975 H 0.96268 0.57654 0.81352 0.0
H976 H 0.95443 0.60037 0.86597 0.0
H977 H 0.0047 0.5923 0.94382 0.0
H978 H 0.01334 0.56883 0.89062 0.0
H979 H 1.00039 0.62677 0.9243 0.0
H980 H 0.96141 0.57832 0.99233 0.0
H981 H 0.93817 0.55328 0.99207 0.0
H982 H 0.8964 0.58838 0.94246 0.0
H983 H 0.91946 0.61361 0.94177 0.0
C984 C 0.96556 0.68067 0.07779 0.0
C985 C 0.95018 0.69022 0.06245 0.0
C986 C 0.96988 0.66469 0.05713 0.0
C987 C 0.95888 0.658 0.02082 0.0
C988 C 0.94289 0.667 0.0076 0.0
C989 C 0.93861 0.68296 0.02807 0.0
C990 C 0.96459 0.64231 0.99423 0.0
C991 C 0.9517 0.62786 0.99203 0.0
C992 C 0.98242 0.6418 0.9698 0.0
C993 C 0.99627 0.657 0.96831 0.0
C994 C 0.99147 0.67377 0.94998 0.0
C995 C 0.00455 0.68807 0.94905 0.0
C996 C 0.02253 0.68573 0.96594 0.0
C997 C 0.02749 0.66907 0.98368 0.0
C998 C 0.01445 0.65473 0.98477 0.0
C999 C 0.97204 0.57989 0.84163 0.0
C1000 C 0.98866 0.57071 0.84787 0.0
C1001 C 0.9672 0.5934 0.87195 0.0
C1002 C 0.97882 0.598 0.9093 0.0
C1003 C 0.99546 0.58894 0.91546 0.0
C1004 C 1.0003 0.57541 0.88521 0.0
C1005 C 0.97389 0.6126 0.941 0.0
C1006 C 0.98691 0.62689 0.94402 0.0
C1007 C 0.95616 0.61296 0.96605 0.0
C1008 C 0.94222 0.59784 0.96662 0.0
C1009 C 0.94731 0.58069 0.98102 0.0
C1010 C 0.93416 0.56646 0.9811 0.0
C1011 C 0.91583 0.56923 0.96715 0.0
C1012 C 0.9106 0.58625 0.95321 0.0
C1013 C 0.9237 0.60052 0.95302 0.0
H1014 H 0.90568 0.5582 0.96724 0.0
H1015 H 0.03264 0.69682 0.96517 0.0
H1016 H 0.05414 0.173 0.40552 0.0
H1017 H 0.03456 0.15019 0.45081 0.0
H1018 H 0.07337 0.11064 0.40957 0.0
H1019 H 0.09364 0.13339 0.36641 0.0
H1020 H 0.03121 0.1046 0.39153 0.0
H1021 H 0.07634 0.12081 0.51212 0.0
H1022 H 0.09179 0.14345 0.55958 0.0
H1023 H 0.03808 0.15659 0.62147 0.0
H1024 H 0.02225 0.1343 0.57341 0.0
H1025 H 0.01677 0.02547 0.5294 0.0
H1026 H 0.02374 0.0522 0.47911 0.0
H1027 H 0.99614 0.08322 0.58576 0.0
H1028 H 0.99065 0.05647 0.63781 0.0
H1029 H 0.02739 0.09733 0.56921 0.0
H1030 H 0.98156 0.07962 0.46197 0.0
H1031 H 0.96336 0.06004 0.41117 0.0
H1032 H 0.01307 0.05256 0.32265 0.0
H1033 H 0.03164 0.07189 0.37328 0.0
C1034 C 0.05883 0.15955 0.40708 0.0
C1035 C 0.07546 0.15504 0.38202 0.0
C1036 C 0.04746 0.14652 0.43243 0.0
C1037 C 0.05244 0.12879 0.43267 0.0
C1038 C 0.06922 0.12427 0.40898 0.0
C1039 C 0.08075 0.1373 0.38437 0.0
C1040 C 0.04023 0.11482 0.45778 0.0
C1041 C 0.03033 0.10284 0.43038 0.0
C1042 C 0.03848 0.11325 0.50831 0.0
C1043 C 0.0481 0.12608 0.53868 0.0
C1044 C 0.06781 0.12864 0.53553 0.0
C1045 C 0.07663 0.14141 0.56249 0.0
C1046 C 0.06591 0.15156 0.5932 0.0
C1047 C 0.04635 0.14881 0.59741 0.0
C1048 C 0.03745 0.1361 0.57032 0.0
C1049 C 0.01146 0.03789 0.54102 0.0
C1050 C 0.00306 0.039 0.58707 0.0
C1051 C 0.01543 0.05325 0.51221 0.0
C1052 C 0.01044 0.06988 0.52835 0.0
C1053 C 1.00029 0.07063 0.57253 0.0
C1054 C 0.99691 0.05534 0.60202 0.0
C1055 C 0.01845 0.08641 0.50309 0.0
C1056 C 0.0277 0.09903 0.53039 0.0
C1057 C 0.01912 0.08882 0.45236 0.0
C1058 C 0.00802 0.07716 0.42165 0.0
C1059 C 0.98865 0.07371 0.43187 0.0
C1060 C 0.97826 0.06267 0.40306 0.0
C1061 C 0.98706 0.05505 0.36375 0.0
C1062 C 0.00627 0.05848 0.35311 0.0
C1063 C 0.01673 0.06951 0.3818 0.0
H1064 H 0.97899 0.0465 0.3415 0.0
H1065 H 0.07277 0.16144 0.61409 0.0
H1066 H 0.33822 0.95416 0.48393 0.0
H1067 H 0.36683 0.95105 0.52805 0.0
H1068 H 0.39169 0.92257 0.41246 0.0
H1069 H 0.3628 0.92507 0.36864 0.0
H1070 H 0.40602 0.91327 0.50428 0.0
H1071 H 0.39614 0.96411 0.39979 0.0
H1072 H 0.37767 0.98874 0.36907 0.0
H1073 H 0.37764 0.01163 0.50718 0.0
H1074 H 0.39575 0.98687 0.53902 0.0
H1075 H 0.49026 0.98387 0.52921 0.0
H1076 H 0.46432 0.97044 0.48716 0.0
H1077 H 0.44864 0.93718 0.61348 0.0
H1078 H 0.47521 0.94998 0.65469 0.0
H1079 H 0.43044 0.97542 0.51114 0.0
H1080 H 0.41957 0.90252 0.58637 0.0
H1081 H 0.43878 0.8773 0.60918 0.0
H1082 H 0.48421 0.8983 0.51443 0.0
H1083 H 0.46519 0.92351 0.49055 0.0
C1084 C 0.34938 0.94649 0.46883 0.0
C1085 C 0.34846 0.94024 0.42229 0.0
C1086 C 0.36576 0.94476 0.49409 0.0
C1087 C 0.38145 0.93693 0.47293 0.0
C1088 C 0.37974 0.92874 0.42921 0.0
C1089 C 0.36332 0.93037 0.40401 0.0
C1090 C 0.40036 0.94074 0.4908 0.0
C1091 C 0.41144 0.92681 0.50611 0.0
C1092 C 0.4076 0.9584 0.49124 0.0
C1093 C 0.39713 0.97355 0.47191 0.0
C1094 C 0.39208 0.97433 0.42369 0.0
C1095 C 0.38168 0.98831 0.40608 0.0
C1096 C 0.37646 0.00173 0.43619 0.0
C1097 C 0.38167 0.00121 0.48393 0.0
C1098 C 0.392 0.9872 0.50179 0.0
C1099 C 0.48162 0.97329 0.54737 0.0
C1100 C 0.48459 0.96801 0.59517 0.0
C1101 C 0.46678 0.96565 0.52344 0.0
C1102 C 0.45441 0.95288 0.54721 0.0
C1103 C 0.45811 0.9468 0.59405 0.0
C1104 C 0.47326 0.95417 0.61766 0.0
C1105 C 0.43635 0.94796 0.52564 0.0
C1106 C 0.42527 0.96178 0.50948 0.0
C1107 C 0.42949 0.9302 0.52323 0.0
C1108 C 0.44099 0.915 0.53703 0.0
C1109 C 0.43363 0.90172 0.57025 0.0
C1110 C 0.44449 0.88743 0.5834 0.0
C1111 C 0.46272 0.88622 0.56338 0.0
C1112 C 0.47011 0.89928 0.53006 0.0
C1113 C 0.4593 0.91359 0.51677 0.0
H1114 H 0.47111 0.87515 0.57362 0.0
H1115 H 0.36841 0.01255 0.4225 0.0
H1116 H 0.50174 0.36299 0.33295 0.0
H1117 H 0.51605 0.3866 0.37752 0.0
H1118 H 0.48905 0.36416 0.50901 0.0
H1119 H 0.47431 0.34049 0.46419 0.0
H1120 H 0.48568 0.40017 0.49905 0.0
H1121 H 0.53472 0.35927 0.4905 0.0
H1122 H 0.55627 0.33894 0.45163 0.0
H1123 H 0.58127 0.38215 0.36283 0.0
H1124 H 0.55967 0.40272 0.40066 0.0
H1125 H 0.55586 0.45313 0.63029 0.0
H1126 H 0.55178 0.4262 0.5856 0.0
H1127 H 0.52124 0.45517 0.47975 0.0
H1128 H 0.52492 0.48195 0.5246 0.0
H1129 H 0.55484 0.41306 0.48856 0.0
H1130 H 0.47878 0.43541 0.48102 0.0
H1131 H 0.45841 0.45624 0.52228 0.0
H1132 H 0.48817 0.44811 0.65151 0.0
H1133 H 0.50852 0.42709 0.61128 0.0
C1134 C 0.49866 0.36317 0.37129 0.0
C1135 C 0.48678 0.34998 0.39509 0.0
C1136 C 0.50703 0.37654 0.39676 0.0
C1137 C 0.50378 0.37698 0.44658 0.0
C1138 C 0.49179 0.36396 0.47055 0.0
C1139 C 0.48345 0.35046 0.44502 0.0
C1140 C 0.51258 0.39141 0.47297 0.0
C1141 C 0.5008 0.40286 0.49711 0.0
C1142 C 0.53235 0.39481 0.47088 0.0
C1143 C 0.54548 0.38252 0.44824 0.0
C1144 C 0.54472 0.36442 0.46245 0.0
C1145 C 0.55696 0.35286 0.44063 0.0
C1146 C 0.57011 0.35924 0.40473 0.0
C1147 C 0.57107 0.37722 0.39064 0.0
C1148 C 0.55885 0.38885 0.41231 0.0
C1149 C 0.5491 0.45393 0.59625 0.0
C1150 C 0.54042 0.46946 0.58114 0.0
C1151 C 0.54674 0.43854 0.57085 0.0
C1152 C 0.53583 0.4387 0.53018 0.0
C1153 C 0.52949 0.4548 0.5115 0.0
C1154 C 0.53163 0.47008 0.53705 0.0
C1155 C 0.52787 0.42197 0.51296 0.0
C1156 C 0.53976 0.41016 0.4908 0.0
C1157 C 0.50822 0.41802 0.51757 0.0
C1158 C 0.49523 0.42975 0.54301 0.0
C1159 C 0.48084 0.43793 0.51838 0.0
C1160 C 0.46933 0.44982 0.54155 0.0
C1161 C 0.47203 0.45353 0.58945 0.0
C1162 C 0.48612 0.44526 0.61441 0.0
C1163 C 0.49764 0.43336 0.59143 0.0
H1164 H 0.46318 0.4628 0.60723 0.0
H1165 H 0.57957 0.35027 0.38788 0.0
H1166 H 0.14503 0.62125 0.31966 0.0
H1167 H 0.11807 0.61978 0.37761 0.0
H1168 H 0.1465 0.58228 0.46695 0.0
H1169 H 0.17312 0.58348 0.40958 0.0
H1170 H 0.09698 0.59088 0.39412 0.0
H1171 H 0.13174 0.58123 0.57988 0.0
H1172 H 0.15768 0.59491 0.62288 0.0
H1173 H 0.15433 0.643 0.53657 0.0
H1174 H 0.12816 0.62973 0.49349 0.0
H1175 H 0.05814 0.52222 0.54305 0.0
H1176 H 0.07696 0.54439 0.4941 0.0
H1177 H 0.05971 0.58493 0.5887 0.0
H1178 H 0.04079 0.56271 0.63833 0.0
H1179 H 0.09737 0.58617 0.57194 0.0
H1180 H 0.04426 0.58623 0.47711 0.0
H1181 H 0.01759 0.57372 0.43435 0.0
H1182 H 0.05598 0.54819 0.33944 0.0
H1183 H 0.08289 0.56031 0.38207 0.0
C1184 C 0.14569 0.61301 0.35223 0.0
C1185 C 0.16119 0.60237 0.35969 0.0
C1186 C 0.1303 0.61225 0.38537 0.0
C1187 C 0.13026 0.60096 0.42671 0.0
C1188 C 0.14632 0.59137 0.43589 0.0
C1189 C 0.16163 0.5921 0.40286 0.0
C1190 C 0.11266 0.5968 0.45624 0.0
C1191 C 0.09693 0.59016 0.43304 0.0
C1192 C 0.11236 0.5963 0.50703 0.0
C1193 C 0.12797 0.60444 0.53333 0.0
C1194 C 0.13641 0.59478 0.57029 0.0
C1195 C 0.1512 0.60245 0.59463 0.0
C1196 C 0.15766 0.61981 0.58244 0.0
C1197 C 0.14934 0.62954 0.54592 0.0
C1198 C 0.13454 0.62194 0.52147 0.0
C1199 C 0.05813 0.53588 0.55321 0.0
C1200 C 0.04801 0.54069 0.59464 0.0
C1201 C 0.06881 0.54857 0.525 0.0
C1202 C 0.06957 0.56634 0.53749 0.0
C1203 C 0.05923 0.57129 0.57834 0.0
C1204 C 0.04841 0.55859 0.60654 0.0
C1205 C 0.08241 0.57924 0.50957 0.0
C1206 C 0.09719 0.58746 0.5331 0.0
C1207 C 0.08174 0.58143 0.4591 0.0
C1208 C 0.06562 0.57418 0.43292 0.0
C1209 C 0.04703 0.57788 0.44728 0.0
C1210 C 0.03186 0.57086 0.42305 0.0
C1211 C 0.03509 0.56017 0.38421 0.0
C1212 C 0.0535 0.5565 0.3695 0.0
C1213 C 0.06872 0.56347 0.39363 0.0
H1214 H 0.02332 0.55474 0.36551 0.0
H1215 H 0.16912 0.62572 0.60131 0.0
H1216 H 0.93862 0.87227 0.04772 0.0
H1217 H 0.95704 0.8962 0.00694 0.0
H1218 H 0.98638 0.8589 0.92138 0.0
H1219 H 0.97048 0.83462 0.96826 0.0
H1220 H 0.01042 0.88075 0.94335 0.0
H1221 H 0.94908 0.89045 0.87748 0.0
H1222 H 0.91472 0.89392 0.88543 0.0
H1223 H 0.92333 0.93861 0.97269 0.0
H1224 H 0.95775 0.93549 0.96484 0.0
H1225 H 0.03606 0.94126 0.74441 0.0
H1226 H 0.02504 0.91771 0.80293 0.0
H1227 H 0.0144 0.95658 0.90819 0.0
H1228 H 0.02582 0.98019 0.85001 0.0
H1229 H 0.98211 0.93578 0.88244 0.0
H1230 H 0.04463 0.92776 0.93461 0.0
H1231 H 0.0787 0.92333 0.92435 0.0
H1232 H 0.0674 0.87421 0.85765 0.0
H1233 H 0.03324 0.87846 0.86689 0.0
C1234 C 0.94923 0.86894 0.02104 0.0
C1235 C 0.95321 0.8512 0.0127 0.0
C1236 C 0.95946 0.88286 0.99646 0.0
C1237 C 0.97298 0.87955 0.96014 0.0
C1238 C 0.97611 0.86192 0.94937 0.0
C1239 C 0.96661 0.84793 0.97576 0.0
C1240 C 0.98451 0.89433 0.93511 0.0
C1241 C 0.00411 0.89263 0.92936 0.0
C1242 C 0.97654 0.91021 0.9182 0.0
C1243 C 0.95594 0.91267 0.9208 0.0
C1244 C 0.94362 0.90103 0.89826 0.0
C1245 C 0.92415 0.90292 0.90281 0.0
C1246 C 0.91685 0.9164 0.92982 0.0
C1247 C 0.92901 0.9281 0.95205 0.0
C1248 C 0.9485 0.92638 0.94722 0.0
C1249 C 0.03227 0.94468 0.78078 0.0
C1250 C 0.03185 0.96249 0.79284 0.0
C1251 C 0.02587 0.93125 0.81407 0.0
C1252 C 0.01876 0.93547 0.85962 0.0
C1253 C 0.01985 0.95311 0.87313 0.0
C1254 C 0.0266 0.96655 0.84008 0.0
C1255 C 0.00778 0.92186 0.88984 0.0
C1256 C 0.98831 0.92384 0.89653 0.0
C1257 C 0.01581 0.90612 0.90666 0.0
C1258 C 0.03636 0.90351 0.90113 0.0
C1259 C 0.0494 0.91609 0.91739 0.0
C1260 C 0.06874 0.91359 0.91183 0.0
C1261 C 0.07521 0.89852 0.89028 0.0
C1262 C 0.06236 0.88589 0.87432 0.0
C1263 C 0.04301 0.88832 0.87977 0.0
H1264 H 0.09019 0.89661 0.88601 0.0
H1265 H 0.90178 0.91785 0.93324 0.0
H1266 H 0.69471 0.02939 0.93544 0.0
H1267 H 0.67172 0.04061 0.87965 0.0
H1268 H 0.63484 0.99497 0.91719 0.0
H1269 H 0.65781 0.98362 0.97192 0.0
H1270 H 0.63454 0.00333 0.8237 0.0
H1271 H 0.63002 0.03341 0.97351 0.0
H1272 H 0.64238 0.05193 0.03651 0.0
H1273 H 0.65413 0.09489 0.93241 0.0
H1274 H 0.64206 0.07651 0.86864 0.0
H1275 H 0.54101 0.023 0.82937 0.0
H1276 H 0.57043 0.02932 0.86856 0.0
H1277 H 0.59562 0.05102 0.73431 0.0
H1278 H 0.56592 0.04542 0.69536 0.0
H1279 H 0.60537 0.05971 0.86431 0.0
H1280 H 0.61991 0.01651 0.71487 0.0
H1281 H 0.60476 0.99482 0.66364 0.0
H1282 H 0.56878 0.97513 0.78344 0.0
H1283 H 0.58392 0.99658 0.83532 0.0
C1284 C 0.68189 0.02158 0.93071 0.0
C1285 C 0.67789 0.00573 0.95809 0.0
C1286 C 0.66875 0.02806 0.89924 0.0
C1287 C 0.65152 0.01872 0.89488 0.0
C1288 C 0.64806 0.00239 0.92012 0.0
C1289 C 0.66111 0.99596 0.95152 0.0
C1290 C 0.63637 0.02624 0.86678 0.0
C1291 C 0.6285 0.01587 0.83187 0.0
C1292 C 0.62825 0.04247 0.87796 0.0
C1293 C 0.63538 0.05353 0.91626 0.0
C1294 C 0.63538 0.04676 0.96401 0.0
C1295 C 0.6423 0.05723 0.99986 0.0
C1296 C 0.64909 0.07456 0.98844 0.0
C1297 C 0.64891 0.08146 0.94117 0.0
C1298 C 0.64203 0.07102 0.90517 0.0
C1299 C 0.55246 0.03014 0.80905 0.0
C1300 C 0.55136 0.0337 0.75953 0.0
C1301 C 0.56921 0.03381 0.83144 0.0
C1302 C 0.5851 0.04056 0.80414 0.0
C1303 C 0.58337 0.04603 0.75593 0.0
C1304 C 0.56642 0.0428 0.73377 0.0
C1305 C 0.60378 0.03675 0.82166 0.0
C1306 C 0.61211 0.04766 0.85466 0.0
C1307 C 0.61214 0.02079 0.8099 0.0
C1308 C 0.60294 0.00811 0.77867 0.0
C1309 C 0.60876 0.00754 0.73011 0.0
C1310 C 0.60018 0.99529 0.70102 0.0
C1311 C 0.5858 0.98359 0.72031 0.0
C1312 C 0.5799 0.98418 0.76859 0.0
C1313 C 0.58849 0.99635 0.79781 0.0
H1314 H 0.5793 0.97399 0.69804 0.0
H1315 H 0.65445 0.08265 0.01624 0.0
H1316 H 0.56252 0.64504 0.9931 0.0
H1317 H 0.55127 0.62071 0.94637 0.0
H1318 H 0.50704 0.65274 0.8934 0.0
H1319 H 0.51781 0.67704 0.94213 0.0
H1320 H 0.49328 0.62055 0.92155 0.0
H1321 H 0.54429 0.64281 0.81866 0.0
H1322 H 0.57651 0.65413 0.79524 0.0
H1323 H 0.59864 0.60471 0.84305 0.0
H1324 H 0.56658 0.59316 0.86738 0.0
H1325 H 0.48224 0.55055 0.74597 0.0
H1326 H 0.48368 0.57831 0.78819 0.0
H1327 H 0.52392 0.55629 0.88291 0.0
H1328 H 0.52253 0.52864 0.84136 0.0
H1329 H 0.53682 0.58657 0.82089 0.0
H1330 H 0.48468 0.56608 0.93043 0.0
H1331 H 0.45195 0.55536 0.95016 0.0
H1332 H 0.43143 0.60251 0.88275 0.0
H1333 H 0.46406 0.6134 0.86201 0.0
C1334 C 0.55042 0.64694 0.97145 0.0
C1335 C 0.54098 0.66291 0.97148 0.0
C1336 C 0.54411 0.63308 0.94435 0.0
C1337 C 0.52843 0.63497 0.91597 0.0
C1338 C 0.5192 0.65104 0.91495 0.0
C1339 C 0.52548 0.66495 0.94239 0.0
C1340 C 0.52137 0.61973 0.88945 0.0
C1341 C 0.50269 0.61331 0.89869 0.0
C1342 C 0.53364 0.61028 0.85968 0.0
C1343 C 0.553 0.61715 0.84509 0.0
C1344 C 0.55603 0.63439 0.82449 0.0
C1345 C 0.57427 0.64085 0.811 0.0
C1346 C 0.58961 0.63016 0.81771 0.0
C1347 C 0.58674 0.61297 0.83786 0.0
C1348 C 0.56853 0.60646 0.85144 0.0
C1349 C 0.49075 0.55138 0.77712 0.0
C1350 C 0.50251 0.53758 0.78999 0.0
C1351 C 0.49161 0.56725 0.80101 0.0
C1352 C 0.50412 0.56934 0.83805 0.0
C1353 C 0.5143 0.55491 0.85411 0.0
C1354 C 0.51345 0.53913 0.83041 0.0
C1355 C 0.50909 0.58705 0.85486 0.0
C1356 C 0.52737 0.59398 0.84323 0.0
C1357 C 0.49638 0.59702 0.8817 0.0
C1358 C 0.4768 0.59044 0.89412 0.0
C1359 C 0.47319 0.57407 0.91934 0.0
C1360 C 0.45465 0.56799 0.93083 0.0
C1361 C 0.43962 0.57821 0.91757 0.0
C1362 C 0.44309 0.59458 0.89291 0.0
C1363 C 0.46159 0.60072 0.88131 0.0
H1364 H 0.42528 0.57349 0.92651 0.0
H1365 H 0.60372 0.63518 0.80724 0.0
H1366 H 0.88042 0.38033 0.01233 0.0
H1367 H 0.90957 0.38241 0.96188 0.0
H1368 H 0.88523 0.42144 0.86848 0.0
H1369 H 0.85624 0.41926 0.9179 0.0
H1370 H 0.91055 0.40435 0.81864 0.0
H1371 H 0.90681 0.43397 0.96914 0.0
H1372 H 0.90146 0.4346 0.05695 0.0
H1373 H 0.94674 0.39947 0.07739 0.0
H1374 H 0.95219 0.39849 0.9895 0.0
H1375 H 0.98255 0.48 0.8294 0.0
H1376 H 0.95997 0.45896 0.87069 0.0
H1377 H 0.97862 0.41784 0.77964 0.0
H1378 H 1.00112 0.43903 0.73716 0.0
H1379 H 0.95974 0.42881 0.9209 0.0
H1380 H 0.93888 0.39331 0.75165 0.0
H1381 H 0.94044 0.39842 0.6635 0.0
H1382 H 0.93967 0.45457 0.67973 0.0
H1383 H 0.93783 0.44976 0.76788 0.0
C1384 C 0.8811 0.38888 0.98008 0.0
C1385 C 0.86616 0.39985 0.96955 0.0
C1386 C 0.89773 0.39004 0.95126 0.0
C1387 C 0.89973 0.40241 0.91213 0.0
C1388 C 0.88406 0.41182 0.89852 0.0
C1389 C 0.86741 0.41055 0.92694 0.0
C1390 C 0.91859 0.40819 0.89109 0.0
C1391 C 0.92152 0.40931 0.84096 0.0
C1392 C 0.93269 0.41514 0.92017 0.0
C1393 C 0.92976 0.41599 0.97291 0.0
C1394 C 0.91557 0.42633 0.99241 0.0
C1395 C 0.91251 0.42674 0.04215 0.0
C1396 C 0.92371 0.41702 0.07275 0.0
C1397 C 0.93805 0.40694 0.05364 0.0
C1398 C 0.94113 0.40645 0.00387 0.0
C1399 C 0.9821 0.46642 0.81856 0.0
C1400 C 0.99344 0.46124 0.77956 0.0
C1401 C 0.96924 0.45436 0.84242 0.0
C1402 C 0.96744 0.43689 0.82784 0.0
C1403 C 0.97963 0.43133 0.79104 0.0
C1404 C 0.99251 0.44344 0.76695 0.0
C1405 C 0.95157 0.42527 0.84839 0.0
C1406 C 0.9492 0.42312 0.8985 0.0
C1407 C 0.93761 0.41814 0.81921 0.0
C1408 C 0.9385 0.42117 0.76628 0.0
C1409 C 0.93901 0.40673 0.73635 0.0
C1410 C 0.93993 0.40958 0.68641 0.0
C1411 C 0.94023 0.42681 0.66604 0.0
C1412 C 0.93951 0.44123 0.69555 0.0
C1413 C 0.93854 0.43845 0.74548 0.0
H1414 H 0.94096 0.42899 0.62738 0.0
H1415 H 0.9213 0.41733 0.11127 0.0
H1416 H 0.07103 0.21039 0.98689 0.0
H1417 H 0.06305 0.18689 0.93271 0.0
H1418 H 0.12149 0.17395 0.91981 0.0
H1419 H 0.12944 0.19723 0.97484 0.0
H1420 H 0.09751 0.16891 0.83146 0.0
H1421 H 0.10269 0.15173 1.00046 0.0
H1422 H 0.09653 0.15493 0.08709 0.0
H1423 H 0.03692 0.15147 0.06775 0.0
H1424 H 0.04281 0.14822 0.98073 0.0
H1425 H 0.08582 0.07768 0.78113 0.0
H1426 H 0.09655 0.10548 0.8142 0.0
H1427 H 0.04053 0.11259 0.87402 0.0
H1428 H 0.03006 0.0843 0.8443 0.0
H1429 H 0.06437 0.12156 0.9356 0.0
H1430 H 0.05985 0.13403 0.766 0.0
H1431 H 0.06712 0.12877 0.68084 0.0
H1432 H 0.12566 0.1414 0.69934 0.0
H1433 H 0.11884 0.14614 0.78515 0.0
C1434 C 0.08228 0.20317 0.97042 0.0
C1435 C 0.10085 0.20568 0.98456 0.0
C1436 C 0.0777 0.18966 0.93979 0.0
C1437 C 0.09168 0.17864 0.92257 0.0
C1438 C 0.11054 0.1824 0.93245 0.0
C1439 C 0.11509 0.19574 0.96366 0.0
C1440 C 0.08622 0.16146 0.90255 0.0
C1441 C 0.09036 0.15848 0.85407 0.0
C1442 C 0.07682 0.14793 0.9321 0.0
C1443 C 0.07318 0.14993 0.98418 0.0
C1444 C 0.08828 0.1518 0.01466 0.0
C1445 C 0.08483 0.15358 0.06384 0.0
C1446 C 0.06633 0.15351 0.08295 0.0
C1447 C 0.05124 0.15157 0.05289 0.0
C1448 C 0.05463 0.1497 0.00366 0.0
C1449 C 0.07584 0.08498 0.80203 0.0
C1450 C 0.05697 0.07874 0.8095 0.0
C1451 C 0.08195 0.10105 0.82033 0.0
C1452 C 0.06926 0.11141 0.84568 0.0
C1453 C 0.05058 0.10498 0.85421 0.0
C1454 C 0.04455 0.08883 0.83664 0.0
C1455 C 0.07529 0.12887 0.86385 0.0
C1456 C 0.07135 0.13193 0.91243 0.0
C1457 C 0.08485 0.1424 0.83414 0.0
C1458 C 0.08885 0.14027 0.78214 0.0
C1459 C 0.07429 0.13561 0.75198 0.0
C1460 C 0.07834 0.1327 0.70359 0.0
C1461 C 0.09685 0.13476 0.68466 0.0
C1462 C 0.11134 0.13979 0.71408 0.0
C1463 C 0.10739 0.14255 0.76263 0.0
H1464 H 0.09998 0.13244 0.64724 0.0
H1465 H 0.06368 0.15487 0.12107 0.0
H1466 H 0.34153 0.0328 0.03014 0.0
H1467 H 0.36526 0.03642 0.96299 0.0
H1468 H 0.36112 0.98028 0.94323 0.0
H1469 H 0.33724 0.97674 0.00917 0.0
H1470 H 0.39845 0.99607 0.96758 0.0
H1471 H 0.34805 0.00323 0.85782 0.0
H1472 H 0.32032 0.01769 0.8266 0.0
H1473 H 0.35248 0.06683 0.80509 0.0
H1474 H 0.38035 0.05272 0.83689 0.0
H1475 H 0.46459 0.97971 0.78501 0.0
H1476 H 0.43576 0.98136 0.83459 0.0
H1477 H 0.4343 0.03734 0.79876 0.0
H1478 H 0.46289 0.0355 0.74657 0.0
H1479 H 0.3999 0.02484 0.80419 0.0
H1480 H 0.44984 0.01975 0.91078 0.0
H1481 H 0.47823 0.00754 0.9451 0.0
H1482 H 0.44811 0.95795 0.9788 0.0
H1483 H 0.41961 0.96978 0.94405 0.0
C1484 C 0.34495 0.02143 0.00969 0.0
C1485 C 0.33722 0.00454 0.02426 0.0
C1486 C 0.35869 0.02346 0.9717 0.0
C1487 C 0.36509 0.00859 0.94819 0.0
C1488 C 0.35642 0.99194 0.96067 0.0
C1489 C 0.34258 0.98996 0.99799 0.0
C1490 C 0.38234 0.00982 0.91538 0.0
C1491 C 0.39871 0.00219 0.93163 0.0
C1492 C 0.38297 0.0185 0.86932 0.0
C1493 C 0.36622 0.02697 0.85032 0.0
C1494 C 0.34916 0.01717 0.84696 0.0
C1495 C 0.33342 0.02529 0.82902 0.0
C1496 C 0.33461 0.04318 0.81402 0.0
C1497 C 0.35156 0.05298 0.81681 0.0
C1498 C 0.36734 0.04492 0.83476 0.0
C1499 C 0.45818 0.99241 0.78754 0.0
C1500 C 0.46625 0.00752 0.76215 0.0
C1501 C 0.44165 0.99337 0.81628 0.0
C1502 C 0.43295 0.00959 0.82192 0.0
C1503 C 0.4407 0.02466 0.79555 0.0
C1504 C 0.45711 0.02362 0.76578 0.0
C1505 C 0.41603 0.01062 0.85585 0.0
C1506 C 0.39975 0.01877 0.84014 0.0
C1507 C 0.41556 0.00276 0.9031 0.0
C1508 C 0.43263 0.99562 0.92444 0.0
C1509 C 0.4493 0.00621 0.92525 0.0
C1510 C 0.46541 0.99935 0.9448 0.0
C1511 C 0.46499 0.98196 0.96402 0.0
C1512 C 0.44843 0.97141 0.96386 0.0
C1513 C 0.43228 0.97819 0.94428 0.0
H1514 H 0.47748 0.97668 0.97912 0.0
H1515 H 0.32242 0.04944 0.80012 0.0
H1516 H 0.43179 0.34036 0.98313 0.0
H1517 H 0.44016 0.36226 0.91769 0.0
H1518 H 0.49812 0.34763 0.92069 0.0
H1519 H 0.48974 0.32564 0.98607 0.0
H1520 H 0.49285 0.38285 0.93845 0.0
H1521 H 0.47452 0.34174 0.82167 0.0
H1522 H 0.45334 0.32018 0.78487 0.0
H1523 H 0.41243 0.35991 0.76658 0.0
H1524 H 0.43324 0.38166 0.80393 0.0
H1525 H 0.52961 0.44704 0.76906 0.0
H1526 H 0.52028 0.41864 0.80915 0.0
H1527 H 0.46179 0.42928 0.791 0.0
H1528 H 0.47116 0.45766 0.74871 0.0
H1529 H 0.46727 0.39527 0.7784 0.0
H1530 H 0.48303 0.43547 0.89912 0.0
H1531 H 0.50262 0.45765 0.93849 0.0
H1532 H 0.54612 0.42026 0.95387 0.0
H1533 H 0.52688 0.39792 0.91397 0.0
C1534 C 0.44617 0.34132 0.9684 0.0
C1535 C 0.46013 0.33132 0.98957 0.0
C1536 C 0.45094 0.35386 0.93106 0.0
C1537 C 0.46979 0.35666 0.91448 0.0
C1538 C 0.48349 0.34567 0.93295 0.0
C1539 C 0.47867 0.33299 0.96997 0.0
C1540 C 0.47553 0.37268 0.88374 0.0
C1541 C 0.48757 0.38539 0.903 0.0
C1542 C 0.46794 0.37635 0.83849 0.0
C1543 C 0.45539 0.36329 0.81602 0.0
C1544 C 0.46093 0.34584 0.81022 0.0
C1545 C 0.44901 0.3336 0.78916 0.0
C1546 C 0.43153 0.33866 0.7735 0.0
C1547 C 0.42596 0.356 0.77877 0.0
C1548 C 0.43783 0.3683 0.79983 0.0
C1549 C 0.51473 0.44339 0.77354 0.0
C1550 C 0.50109 0.45476 0.75643 0.0
C1551 C 0.50941 0.42711 0.79656 0.0
C1552 C 0.4903 0.42195 0.80421 0.0
C1553 C 0.47662 0.43301 0.78581 0.0
C1554 C 0.48197 0.44926 0.76193 0.0
C1555 C 0.48478 0.40534 0.83294 0.0
C1556 C 0.47269 0.39264 0.81363 0.0
C1557 C 0.49204 0.40173 0.87871 0.0
C1558 C 0.50358 0.41508 0.90314 0.0
C1559 C 0.49682 0.43201 0.91062 0.0
C1560 C 0.50786 0.44461 0.93306 0.0
C1561 C 0.52563 0.44038 0.94855 0.0
C1562 C 0.53236 0.42353 0.94178 0.0
C1563 C 0.52139 0.41089 0.9193 0.0
H1564 H 0.53415 0.45016 0.96589 0.0
H1565 H 0.42232 0.32916 0.7572 0.0
H1566 H 0.19968 0.50281 0.0097 0.0
H1567 H 0.17717 0.49262 0.95136 0.0
H1568 H 0.16435 0.54672 0.91606 0.0
H1569 H 0.18711 0.55701 0.97272 0.0
H1570 H 0.13374 0.51557 0.96281 0.0
H1571 H 0.18021 0.53635 0.8331 0.0
H1572 H 0.21142 0.53533 0.79137 0.0
H1573 H 0.20239 0.4796 0.77347 0.0
H1574 H 0.17122 0.48028 0.81578 0.0
H1575 H 0.06423 0.52651 0.79864 0.0
H1576 H 0.09256 0.52875 0.8442 0.0
H1577 H 0.11095 0.47959 0.78908 0.0
H1578 H 0.08274 0.47758 0.74168 0.0
H1579 H 0.14005 0.50221 0.79048 0.0
H1580 H 0.09228 0.48144 0.90538 0.0
H1581 H 0.0613 0.48034 0.9489 0.0
H1582 H 0.07273 0.53223 0.99971 0.0
H1583 H 0.10368 0.53376 0.95593 0.0
C1584 C 0.19256 0.51253 0.98823 0.0
C1585 C 0.19499 0.5307 0.99618 0.0
C1586 C 0.17966 0.50669 0.95515 0.0
C1587 C 0.16915 0.51896 0.92963 0.0
C1588 C 0.17241 0.53709 0.93538 0.0
C1589 C 0.18534 0.54292 0.96793 0.0
C1590 C 0.15297 0.51308 0.90207 0.0
C1591 C 0.13505 0.51268 0.92509 0.0
C1592 C 0.15486 0.50868 0.85354 0.0
C1593 C 0.17355 0.50832 0.82821 0.0
C1594 C 0.18499 0.52385 0.82082 0.0
C1595 C 0.20264 0.52334 0.79691 0.0
C1596 C 0.20892 0.50739 0.77996 0.0
C1597 C 0.19753 0.49193 0.78673 0.0
C1598 C 0.17988 0.49237 0.81065 0.0
C1599 C 0.07425 0.51612 0.79621 0.0
C1600 C 0.07114 0.50178 0.76685 0.0
C1601 C 0.09044 0.51738 0.82249 0.0
C1602 C 0.10373 0.50414 0.82096 0.0
C1603 C 0.10085 0.48992 0.79106 0.0
C1604 C 0.0847 0.48876 0.76414 0.0
C1605 C 0.12055 0.50539 0.85068 0.0
C1606 C 0.13862 0.50483 0.82834 0.0
C1607 C 0.11882 0.50865 0.90028 0.0
C1608 C 0.10027 0.50774 0.92711 0.0
C1609 C 0.08815 0.49266 0.92561 0.0
C1610 C 0.0706 0.49196 0.95035 0.0
C1611 C 0.06504 0.50622 0.977 0.0
C1612 C 0.07705 0.5212 0.97905 0.0
C1613 C 0.09462 0.52197 0.95434 0.0
H1614 H 0.05144 0.50565 0.9961 0.0
H1615 H 0.22258 0.50703 0.76143 0.0
H1616 H 0.97573 0.7915 0.39287 0.0
H1617 H 0.98188 0.8148 0.4485 0.0
H1618 H 0.92225 0.8167 0.4831 0.0
H1619 H 0.91614 0.79389 0.42551 0.0
H1620 H 0.93444 0.84763 0.456 0.0
H1621 H 0.95624 0.80549 0.56955 0.0
H1622 H 0.97405 0.7803 0.59957 0.0
H1623 H 0.02613 0.80871 0.55867 0.0
H1624 H 0.00864 0.83399 0.52777 0.0
H1625 H 0.95397 0.91995 0.60898 0.0
H1626 H 0.94406 0.89082 0.58186 0.0
H1627 H 0.99849 0.88614 0.51042 0.0
H1628 H 0.00828 0.91541 0.53558 0.0
H1629 H 0.98613 0.8556 0.56765 0.0
H1630 H 0.96318 0.89582 0.44547 0.0
H1631 H 0.94491 0.92085 0.41631 0.0
H1632 H 0.89395 0.89517 0.47739 0.0
H1633 H 0.91197 0.87007 0.5075 0.0
C1634 C 0.96406 0.79625 0.41429 0.0
C1635 C 0.94551 0.79074 0.40561 0.0
C1636 C 0.96755 0.80968 0.44601 0.0
C1637 C 0.95253 0.81762 0.47024 0.0
C1638 C 0.93408 0.81088 0.46481 0.0
C1639 C 0.93059 0.79765 0.4325 0.0
C1640 C 0.95587 0.83447 0.49501 0.0
C1641 C 0.94544 0.84916 0.48142 0.0
C1642 C 0.97048 0.83677 0.52739 0.0
C1643 C 0.9811 0.82161 0.54606 0.0
C1644 C 0.97149 0.80633 0.56664 0.0
C1645 C 0.98153 0.79204 0.58387 0.0
C1646 C 1.00121 0.7929 0.58096 0.0
C1647 C 0.01089 0.80807 0.5609 0.0
C1648 C 1.00091 0.82239 0.54359 0.0
C1649 C 0.96375 0.91288 0.58684 0.0
C1650 C 0.98199 0.92009 0.57474 0.0
C1651 C 0.9581 0.89615 0.57174 0.0
C1652 C 0.9706 0.88626 0.54446 0.0
C1653 C 0.98871 0.89344 0.53198 0.0
C1654 C 0.99429 0.9102 0.54655 0.0
C1655 C 0.96485 0.86852 0.5281 0.0
C1656 C 0.97489 0.85379 0.54307 0.0
C1657 C 0.94977 0.86612 0.49736 0.0
C1658 C 0.93895 0.88119 0.47926 0.0
C1659 C 0.9481 0.89559 0.45308 0.0
C1660 C 0.93779 0.90977 0.43629 0.0
C1661 C 0.91829 0.90963 0.44514 0.0
C1662 C 0.90906 0.89528 0.47066 0.0
C1663 C 0.91931 0.88107 0.48758 0.0
H1664 H 0.91033 0.92062 0.43209 0.0
H1665 H 0.00896 0.78181 0.59431 0.0
H1666 H 0.70519 0.01694 0.36505 0.0
H1667 H 0.67854 0.01748 0.42339 0.0
H1668 H 0.67958 0.96071 0.44487 0.0
H1669 H 0.70607 0.96025 0.38543 0.0
H1670 H 0.64536 0.96925 0.42897 0.0
H1671 H 0.69077 0.99065 0.53536 0.0
H1672 H 0.71691 0.00966 0.56185 0.0
H1673 H 0.68354 0.05541 0.54438 0.0
H1674 H 0.65728 0.0367 0.51713 0.0
H1675 H 0.57139 0.96656 0.61304 0.0
H1676 H 0.60198 0.96433 0.56997 0.0
H1677 H 0.60228 0.02002 0.52969 0.0
H1678 H 0.57178 0.02231 0.57279 0.0
H1679 H 0.63662 0.01061 0.56033 0.0
H1680 H 0.59218 0.98919 0.44914 0.0
H1681 H 0.56603 0.97006 0.42319 0.0
H1682 H 0.59798 0.92401 0.45109 0.0
H1683 H 0.62425 0.94286 0.47787 0.0
C1684 C 0.70024 0.00469 0.38384 0.0
C1685 C 0.7081 0.98862 0.37179 0.0
C1686 C 0.68487 0.00496 0.41707 0.0
C1687 C 0.67694 0.98914 0.43921 0.0
C1688 C 0.68536 0.97313 0.42863 0.0
C1689 C 0.70072 0.97287 0.39521 0.0
C1690 C 0.65898 0.9892 0.46974 0.0
C1691 C 0.64365 0.97806 0.45832 0.0
C1692 C 0.65634 0.00097 0.50744 0.0
C1693 C 0.67211 0.01228 0.52379 0.0
C1694 C 0.68905 0.00478 0.53679 0.0
C1695 C 0.70388 0.0155 0.55202 0.0
C1696 C 0.7019 0.03374 0.55469 0.0
C1697 C 0.68506 0.04128 0.54225 0.0
C1698 C 0.67019 0.03062 0.52696 0.0
C1699 C 0.57797 0.97832 0.59497 0.0
C1700 C 0.56909 0.99461 0.59643 0.0
C1701 C 0.59546 0.97703 0.57017 0.0
C1702 C 0.60453 0.992 0.54625 0.0
C1703 C 0.59568 0.00827 0.54783 0.0
C1704 C 0.57814 0.00954 0.57224 0.0
C1705 C 0.62312 0.99074 0.5193 0.0
C1706 C 0.63848 0.00168 0.53129 0.0
C1707 C 0.62583 0.97876 0.48223 0.0
C1708 C 0.61009 0.96742 0.46602 0.0
C1709 C 0.59357 0.97497 0.45013 0.0
C1710 C 0.57874 0.96418 0.4352 0.0
C1711 C 0.58032 0.94583 0.43563 0.0
C1712 C 0.59676 0.93822 0.45086 0.0
C1713 C 0.61163 0.94895 0.46589 0.0
H1714 H 0.56882 0.93749 0.42405 0.0
H1715 H 0.7134 0.04201 0.56649 0.0
H1716 H 0.53963 0.67728 0.39735 0.0
H1717 H 0.53752 0.65512 0.46385 0.0
H1718 H 0.59808 0.65217 0.45705 0.0
H1719 H 0.59999 0.67393 0.38901 0.0
H1720 H 0.58374 0.62109 0.45116 0.0
H1721 H 0.57197 0.66592 0.56042 0.0
H1722 H 0.55761 0.69227 0.59286 0.0
H1723 H 0.50322 0.66537 0.59978 0.0
H1724 H 0.51719 0.63893 0.56673 0.0
H1725 H 0.57161 0.54985 0.63176 0.0
H1726 H 0.58113 0.57896 0.59402 0.0
H1727 H 0.5236 0.58726 0.55891 0.0
H1728 H 0.51402 0.55833 0.59593 0.0
H1729 H 0.54119 0.61704 0.59712 0.0
H1730 H 0.55345 0.57448 0.47505 0.0
H1731 H 0.56827 0.54822 0.44331 0.0
H1732 H 0.6231 0.57178 0.46351 0.0
H1733 H 0.60856 0.5981 0.49599 0.0
C1734 C 0.55252 0.67253 0.41172 0.0
C1735 C 0.56999 0.67752 0.38885 0.0
C1736 C 0.55134 0.65978 0.4497 0.0
C1737 C 0.56766 0.65191 0.46588 0.0
C1738 C 0.58528 0.65799 0.44536 0.0
C1739 C 0.58642 0.67061 0.40695 0.0
C1740 C 0.56603 0.63572 0.49865 0.0
C1741 C 0.57483 0.62042 0.4838 0.0
C1742 C 0.55415 0.63457 0.54089 0.0
C1743 C 0.54564 0.65045 0.5608 0.0
C1744 C 0.55692 0.66565 0.56852 0.0
C1745 C 0.54885 0.68061 0.58709 0.0
C1746 C 0.52951 0.68051 0.59831 0.0
C1747 C 0.5182 0.66543 0.59107 0.0
C1748 C 0.52619 0.65044 0.5725 0.0
C1749 C 0.56101 0.55788 0.61595 0.0
C1750 C 0.54208 0.55169 0.61659 0.0
C1751 C 0.56646 0.57451 0.59449 0.0
C1752 C 0.55306 0.58529 0.5737 0.0
C1753 C 0.53415 0.57922 0.57495 0.0
C1754 C 0.52874 0.56259 0.59584 0.0
C1755 C 0.55861 0.60262 0.54887 0.0
C1756 C 0.55046 0.618 0.56512 0.0
C1757 C 0.57121 0.60392 0.50816 0.0
C1758 C 0.57993 0.58814 0.4885 0.0
C1759 C 0.56866 0.57399 0.47311 0.0
C1760 C 0.57701 0.55911 0.45491 0.0
C1761 C 0.59662 0.5583 0.45155 0.0
C1762 C 0.60792 0.5724 0.46624 0.0
C1763 C 0.59963 0.5873 0.48453 0.0
H1764 H 0.60306 0.54677 0.43744 0.0
H1765 H 0.52329 0.6921 0.61267 0.0
H1766 H 0.88825 0.46702 0.31245 0.0
H1767 H 0.90548 0.47749 0.37994 0.0
H1768 H 0.8536 0.47863 0.46526 0.0
H1769 H 0.83609 0.46745 0.39783 0.0
H1770 H 0.89292 0.51097 0.45121 0.0
H1771 H 0.86515 0.45358 0.51922 0.0
H1772 H 0.85532 0.42233 0.50988 0.0
H1773 H 0.91113 0.41153 0.45706 0.0
H1774 H 0.92118 0.4428 0.46546 0.0
H1775 H 0.95563 0.51775 0.64889 0.0
H1776 H 0.92686 0.51328 0.60456 0.0
H1777 H 0.95461 0.47503 0.51904 0.0
H1778 H 0.98305 0.4792 0.56306 0.0
H1779 H 0.92042 0.46276 0.54841 0.0
H1780 H 0.94858 0.5177 0.47649 0.0
H1781 H 0.9606 0.54871 0.47741 0.0
H1782 H 0.90647 0.56441 0.53053 0.0
H1783 H 0.8942 0.53343 0.53047 0.0
C1784 C 0.88043 0.46945 0.34553 0.0
C1785 C 0.86083 0.46603 0.3501 0.0
C1786 C 0.8903 0.4756 0.38387 0.0
C1787 C 0.88082 0.47868 0.42751 0.0
C1788 C 0.86113 0.47625 0.43175 0.0
C1789 C 0.85117 0.46993 0.39323 0.0
C1790 C 0.89212 0.48298 0.46898 0.0
C1791 C 0.8985 0.50056 0.47378 0.0
C1792 C 0.89977 0.46931 0.49716 0.0
C1793 C 0.89383 0.45052 0.49249 0.0
C1794 C 0.87526 0.44456 0.50519 0.0
C1795 C 0.86966 0.42685 0.50017 0.0
C1796 C 0.88258 0.41496 0.48275 0.0
C1797 C 0.90113 0.42075 0.47047 0.0
C1798 C 0.90678 0.43846 0.47538 0.0
C1799 C 0.95558 0.50845 0.6205 0.0
C1800 C 0.97167 0.49887 0.60947 0.0
C1801 C 0.93914 0.50591 0.59522 0.0
C1802 C 0.93857 0.49381 0.55845 0.0
C1803 C 0.95465 0.48434 0.54745 0.0
C1804 C 0.97098 0.48684 0.57255 0.0
C1805 C 0.92146 0.49083 0.5307 0.0
C1806 C 0.91426 0.47339 0.52778 0.0
C1807 C 0.91319 0.50466 0.5041 0.0
C1808 C 0.92056 0.52324 0.5041 0.0
C1809 C 0.9393 0.52775 0.48876 0.0
C1810 C 0.94614 0.54532 0.48904 0.0
C1811 C 0.93432 0.55851 0.50419 0.0
C1812 C 0.91562 0.55417 0.51893 0.0
C1813 C 0.90871 0.53661 0.51877 0.0
H1814 H 0.93965 0.5721 0.50437 0.0
H1815 H 0.87822 0.40125 0.47889 0.0
loop_
_geom_bond_atom_site_label_1
_geom_bond_atom_site_label_2
_geom_bond_distance
_geom_bond_site_symmetry_2
_ccdc_geom_bond_type
C0 C1 1.391 . S
C0 C4 1.391 . S
C0 H42 0.948 . S
C1 C0 1.391 . S
C1 C2 1.391 . S
C2 C1 1.391 . S
C2 H58 0.947 . S
C2 C59 1.392 . S
C3 C4 1.391 . S
C3 C7 1.397 . S
C3 C59 1.419 . S
C4 C0 1.391 . S
C4 C3 1.391 . S
C4 C5 1.399 . S
C5 C4 1.399 . S
C5 C8 1.396 . S
C5 C17 1.453 . S
C5 C18 1.684 . S
H6 C30 0.948 . S
C7 C3 1.397 . S
C7 C8 1.394 . S
C7 C26 1.723 . S
C8 C5 1.396 . S
C8 C7 1.394 . S
C8 C38 1.723 . S
H9 C32 0.947 . S
H10 C33 0.948 . S
H11 C39 0.982 . S
H12 C40 0.979 1_554 S
H13 C40 0.980 . S
H14 C40 0.983 . S
H15 C39 0.979 1_556 S
H16 C39 0.977 1_556 S
C17 C5 1.453 . S
C17 H46 0.982 . S
C17 H47 0.979 . S
C17 H48 0.977 . S
C18 C5 1.684 . S
C18 H43 0.979 . S
C18 H44 0.980 . S
C18 H45 0.983 . S
C19 C20 1.391 1_554 S
C19 C24 1.391 . S
C19 H49 0.948 . S
C20 C19 1.391 1_556 S
C20 C21 1.391 . S
C21 C20 1.391 . S
C21 C22 1.392 . S
C21 H50 0.947 . S
C22 C21 1.392 . S
C22 C23 1.419 1_556 S
C22 H51 0.948 . S
C23 C22 1.419 1_554 S
C23 C24 1.391 . S
C23 C27 1.397 . S
C24 C19 1.391 . S
C24 C23 1.391 . S
C24 C25 1.399 . S
C25 C24 1.399 . S
C25 C26 1.396 . S
C25 C28 1.453 . S
C25 C29 1.684 . S
C26 C7 1.723 . S
C26 C25 1.396 . S
C26 C27 1.394 . S
C27 C23 1.397 . S
C27 C26 1.394 . S
C27 C37 1.723 . S
C28 C25 1.453 . S
C28 H52 0.982 . S
C28 H53 0.979 . S
C28 H54 0.977 . S
C29 C25 1.684 . S
C29 H55 0.979 . S
C29 H56 0.980 . S
C29 H57 0.983 . S
C30 H6 0.948 . S
C30 C31 1.391 . S
C30 C35 1.391 . S
C31 C30 1.391 . S
C31 C32 1.391 . S
C32 H9 0.947 . S
C32 C31 1.391 . S
C32 C33 1.392 . S
C33 H10 0.948 . S
C33 C32 1.392 . S
C33 C34 1.419 . S
C34 C33 1.419 . S
C34 C35 1.391 . S
C34 C38 1.397 . S
C35 C30 1.391 . S
C35 C34 1.391 . S
C35 C36 1.399 . S
C36 C35 1.399 . S
C36 C37 1.396 . S
C36 C39 1.453 . S
C36 C40 1.684 1_554 S
C37 C27 1.723 . S
C37 C36 1.396 . S
C37 C38 1.394 . S
C38 C8 1.723 . S
C38 C34 1.397 . S
C38 C37 1.394 . S
C39 H11 0.982 . S
C39 H15 0.979 1_554 S
C39 H16 0.977 1_554 S
C39 C36 1.453 . S
C40 H12 0.979 1_556 S
C40 H13 0.980 . S
C40 H14 0.983 . S
C40 C36 1.684 1_556 S
H41 C59 0.948 . S
H42 C0 0.948 . S
H43 C18 0.979 . S
H44 C18 0.980 . S
H45 C18 0.983 . S
H46 C17 0.982 . S
H47 C17 0.979 . S
H48 C17 0.977 . S
H49 C19 0.948 . S
H50 C21 0.947 . S
H51 C22 0.948 . S
H52 C28 0.982 . S
H53 C28 0.979 . S
H54 C28 0.977 . S
H55 C29 0.979 . S
H56 C29 0.980 . S
H57 C29 0.983 . S
H58 C2 0.947 . S
C59 C2 1.392 . S
C59 C3 1.419 . S
C59 H41 0.948 . S
C60 C61 1.391 . S
C60 C64 1.391 . S
C60 H102 0.948 . S
C61 C60 1.391 . S
C61 C62 1.391 . S
C62 C61 1.391 . S
C62 H118 0.947 . S
C62 C119 1.392 . S
C63 C64 1.391 . S
C63 C67 1.397 . S
C63 C119 1.419 . S
C64 C60 1.391 . S
C64 C63 1.391 . S
C64 C65 1.399 . S
C65 C64 1.399 . S
C65 C68 1.396 . S
C65 C77 1.453 . S
C65 C78 1.684 . S
H66 C90 0.948 1_554 S
C67 C63 1.397 . S
C67 C68 1.394 . S
C67 C86 1.723 1_556 S
C68 C65 1.396 . S
C68 C67 1.394 . S
C68 C98 1.723 . S
H69 C92 0.947 . S
H70 C93 0.948 . S
H71 C99 0.982 . S
H72 C100 0.979 . S
H73 C100 0.980 . S
H74 C100 0.983 . S
H75 C99 0.979 . S
H76 C99 0.977 . S
C77 C65 1.453 . S
C77 H106 0.982 . S
C77 H107 0.979 . S
C77 H108 0.977 . S
C78 C65 1.684 . S
C78 H103 0.979 . S
C78 H104 0.980 . S
C78 H105 0.983 . S
C79 C80 1.391 . S
C79 C84 1.391 . S
C79 H109 0.948 . S
C80 C79 1.391 . S
C80 C81 1.391 . S
C81 C80 1.391 . S
C81 C82 1.392 . S
C81 H110 0.947 . S
C82 C81 1.392 . S
C82 C83 1.419 . S
C82 H111 0.948 . S
C83 C82 1.419 . S
C83 C84 1.391 . S
C83 C87 1.397 . S
C84 C79 1.391 . S
C84 C83 1.391 . S
C84 C85 1.399 . S
C85 C84 1.399 . S
C85 C86 1.396 . S
C85 C88 1.453 . S
C85 C89 1.684 . S
C86 C67 1.723 1_554 S
C86 C85 1.396 . S
C86 C87 1.394 . S
C87 C83 1.397 . S
C87 C86 1.394 . S
C87 C97 1.723 . S
C88 C85 1.453 . S
C88 H112 0.982 . S
C88 H113 0.979 . S
C88 H114 0.977 . S
C89 C85 1.684 . S
C89 H115 0.979 . S
C89 H116 0.980 . S
C89 H117 0.983 . S
C90 H66 0.948 1_556 S
C90 C91 1.391 . S
C90 C95 1.391 1_556 S
C91 C90 1.391 . S
C91 C92 1.391 . S
C92 H69 0.947 . S
C92 C91 1.391 . S
C92 C93 1.392 . S
C93 H70 0.948 . S
C93 C92 1.392 . S
C93 C94 1.419 . S
C94 C93 1.419 . S
C94 C95 1.391 1_556 S
C94 C98 1.397 . S
C95 C90 1.391 1_554 S
C95 C94 1.391 1_554 S
C95 C96 1.399 . S
C96 C95 1.399 . S
C96 C97 1.396 . S
C96 C99 1.453 . S
C96 C100 1.684 . S
C97 C87 1.723 . S
C97 C96 1.396 . S
C97 C98 1.394 1_554 S
C98 C68 1.723 . S
C98 C94 1.397 . S
C98 C97 1.394 1_556 S
C99 H71 0.982 . S
C99 H75 0.979 . S
C99 H76 0.977 . S
C99 C96 1.453 . S
C100 H72 0.979 . S
C100 H73 0.980 . S
C100 H74 0.983 . S
C100 C96 1.684 . S
H101 C119 0.948 . S
H102 C60 0.948 . S
H103 C78 0.979 . S
H104 C78 0.980 . S
H105 C78 0.983 . S
H106 C77 0.982 . S
H107 C77 0.979 . S
H108 C77 0.977 . S
H109 C79 0.948 . S
H110 C81 0.947 . S
H111 C82 0.948 . S
H112 C88 0.982 . S
H113 C88 0.979 . S
H114 C88 0.977 . S
H115 C89 0.979 . S
H116 C89 0.980 . S
H117 C89 0.983 . S
H118 C62 0.947 . S
C119 C62 1.392 . S
C119 C63 1.419 . S
C119 H101 0.948 . S
C120 C121 1.391 . S
C120 C124 1.391 . S
C120 H162 0.948 . S
C121 C120 1.391 . S
C121 C122 1.391 1_554 S
C122 C121 1.391 1_556 S
C122 H178 0.947 . S
C122 C179 1.392 . S
C123 C124 1.399 . S
C123 C127 1.392 1_565 S
C123 C179 1.429 1_554 S
C124 C120 1.391 . S
C124 C123 1.399 . S
C124 C125 1.399 . S
C125 C124 1.399 . S
C125 C128 1.387 1_565 S
C125 C137 1.453 1_565 S
C125 C138 1.684 . S
H126 C150 0.948 . S
C127 C123 1.392 1_545 S
C127 C128 1.390 . S
C127 C146 1.722 . S
C128 C125 1.387 1_545 S
C128 C127 1.390 . S
C128 C158 1.725 . S
H129 C152 0.947 . S
H130 C153 0.948 . S
H131 C159 0.982 . S
H132 C160 0.979 . S
H133 C160 0.980 . S
H134 C160 0.983 . S
H135 C159 0.979 . S
H136 C159 0.977 . S
C137 C125 1.453 1_545 S
C137 H166 0.982 . S
C137 H167 0.979 . S
C137 H168 0.977 . S
C138 C125 1.684 . S
C138 H163 0.979 . S
C138 H164 0.980 . S
C138 H165 0.983 . S
C139 C140 1.391 . S
C139 C144 1.391 . S
C139 H169 0.948 . S
C140 C139 1.391 . S
C140 C141 1.391 . S
C141 C140 1.391 . S
C141 C142 1.392 1_556 S
C141 H170 0.947 . S
C142 C141 1.392 1_554 S
C142 C143 1.422 . S
C142 H171 0.948 . S
C143 C142 1.422 . S
C143 C144 1.403 1_554 S
C143 C147 1.395 1_565 S
C144 C139 1.391 . S
C144 C143 1.403 1_556 S
C144 C145 1.399 . S
C145 C144 1.399 . S
C145 C146 1.387 1_566 S
C145 C148 1.453 1_565 S
C145 C149 1.684 . S
C146 C127 1.722 . S
C146 C145 1.387 1_544 S
C146 C147 1.396 . S
C147 C143 1.395 1_545 S
C147 C146 1.396 . S
C147 C157 1.719 . S
C148 C145 1.453 1_545 S
C148 H172 0.982 . S
C148 H173 0.979 . S
C148 H174 0.977 . S
C149 C145 1.684 . S
C149 H175 0.979 . S
C149 H176 0.980 . S
C149 H177 0.983 . S
C150 H126 0.948 . S
C150 C151 1.391 . S
C150 C155 1.391 . S
C151 C150 1.391 . S
C151 C152 1.391 . S
C152 H129 0.947 . S
C152 C151 1.391 . S
C152 C153 1.392 . S
C153 H130 0.948 . S
C153 C152 1.392 . S
C153 C154 1.425 . S
C154 C153 1.425 . S
C154 C155 1.397 . S
C154 C158 1.398 1_565 S
C155 C150 1.391 . S
C155 C154 1.397 . S
C155 C156 1.399 . S
C156 C155 1.399 . S
C156 C157 1.392 1_565 S
C156 C159 1.453 1_565 S
C156 C160 1.684 . S
C157 C147 1.719 . S
C157 C156 1.392 1_545 S
C157 C158 1.392 . S
C158 C128 1.725 . S
C158 C154 1.398 1_545 S
C158 C157 1.392 . S
C159 H131 0.982 . S
C159 H135 0.979 . S
C159 H136 0.977 . S
C159 C156 1.453 1_545 S
C160 H132 0.979 . S
C160 H133 0.980 . S
C160 H134 0.983 . S
C160 C156 1.684 . S
H161 C179 0.948 . S
H162 C120 0.948 . S
H163 C138 0.979 . S
H164 C138 0.980 . S
H165 C138 0.983 . S
H166 C137 0.982 . S
H167 C137 0.979 . S
H168 C137 0.977 . S
H169 C139 0.948 . S
H170 C141 0.947 . S
H171 C142 0.948 . S
H172 C148 0.982 . S
H173 C148 0.979 . S
H174 C148 0.977 . S
H175 C149 0.979 . S
H176 C149 0.980 . S
H177 C149 0.983 . S
H178 C122 0.947 . S
C179 C122 1.392 . S
C179 C123 1.429 1_556 S
C179 H161 0.948 . S
C180 C181 1.391 . S
C180 C184 1.391 . S
C180 H222 0.948 . S
C181 C180 1.391 . S
C181 C182 1.391 . S
C182 C181 1.391 . S
C182 H238 0.947 . S
C182 C239 1.392 . S
C183 C184 1.391 . S
C183 C187 1.397 . S
C183 C239 1.419 . S
C184 C180 1.391 . S
C184 C183 1.391 . S
C184 C185 1.399 . S
C185 C184 1.399 . S
C185 C188 1.396 . S
C185 C197 1.453 . S
C185 C198 1.684 . S
H186 C210 0.948 1_556 S
C187 C183 1.397 . S
C187 C188 1.394 . S
C187 C206 1.723 . S
C188 C185 1.396 . S
C188 C187 1.394 . S
C188 C218 1.723 . S
H189 C212 0.947 . S
H190 C213 0.948 . S
H191 C219 0.982 . S
H192 C220 0.979 . S
H193 C220 0.980 . S
H194 C220 0.983 . S
H195 C219 0.979 . S
H196 C219 0.977 . S
C197 C185 1.453 . S
C197 H226 0.982 . S
C197 H227 0.979 . S
C197 H228 0.977 . S
C198 C185 1.684 . S
C198 H223 0.979 . S
C198 H224 0.980 . S
C198 H225 0.983 . S
C199 C200 1.391 . S
C199 C204 1.391 1_556 S
C199 H229 0.948 . S
C200 C199 1.391 . S
C200 C201 1.391 . S
C201 C200 1.391 . S
C201 C202 1.392 . S
C201 H230 0.947 . S
C202 C201 1.392 . S
C202 C203 1.419 . S
C202 H231 0.948 . S
C203 C202 1.419 . S
C203 C204 1.391 1_556 S
C203 C207 1.397 1_556 S
C204 C199 1.391 1_554 S
C204 C203 1.391 1_554 S
C204 C205 1.399 . S
C205 C204 1.399 . S
C205 C206 1.396 . S
C205 C208 1.453 . S
C205 C209 1.684 . S
C206 C187 1.723 . S
C206 C205 1.396 . S
C206 C207 1.394 . S
C207 C203 1.397 1_554 S
C207 C206 1.394 . S
C207 C217 1.723 . S
C208 C205 1.453 . S
C208 H232 0.982 . S
C208 H233 0.979 . S
C208 H234 0.977 . S
C209 C205 1.684 . S
C209 H235 0.979 . S
C209 H236 0.980 . S
C209 H237 0.983 . S
C210 H186 0.948 1_554 S
C210 C211 1.391 . S
C210 C215 1.391 . S
C211 C210 1.391 . S
C211 C212 1.391 . S
C212 H189 0.947 . S
C212 C211 1.391 . S
C212 C213 1.392 . S
C213 H190 0.948 . S
C213 C212 1.392 . S
C213 C214 1.419 . S
C214 C213 1.419 . S
C214 C215 1.391 . S
C214 C218 1.397 . S
C215 C210 1.391 . S
C215 C214 1.391 . S
C215 C216 1.399 1_554 S
C216 C215 1.399 1_556 S
C216 C217 1.396 1_556 S
C216 C219 1.453 . S
C216 C220 1.684 . S
C217 C207 1.723 . S
C217 C216 1.396 1_554 S
C217 C218 1.394 . S
C218 C188 1.723 . S
C218 C214 1.397 . S
C218 C217 1.394 . S
C219 H191 0.982 . S
C219 H195 0.979 . S
C219 H196 0.977 . S
C219 C216 1.453 . S
C220 H192 0.979 . S
C220 H193 0.980 . S
C220 H194 0.983 . S
C220 C216 1.684 . S
H221 C239 0.948 . S
H222 C180 0.948 . S
H223 C198 0.979 . S
H224 C198 0.980 . S
H225 C198 0.983 . S
H226 C197 0.982 . S
H227 C197 0.979 . S
H228 C197 0.977 . S
H229 C199 0.948 . S
H230 C201 0.947 . S
H231 C202 0.948 . S
H232 C208 0.982 . S
H233 C208 0.979 . S
H234 C208 0.977 . S
H235 C209 0.979 . S
H236 C209 0.980 . S
H237 C209 0.983 . S
H238 C182 0.947 . S
C239 C182 1.392 . S
C239 C183 1.419 . S
C239 H221 0.948 . S
C240 C241 1.391 . S
C240 C244 1.391 . S
C240 H282 0.948 . S
C241 C240 1.391 . S
C241 C242 1.391 . S
C242 C241 1.391 . S
C242 H298 0.947 . S
C242 C299 1.392 . S
C243 C244 1.391 . S
C243 C247 1.397 . S
C243 C299 1.419 . S
C244 C240 1.391 . S
C244 C243 1.391 . S
C244 C245 1.399 . S
C245 C244 1.399 . S
C245 C248 1.396 . S
C245 C257 1.453 . S
C245 C258 1.684 . S
H246 C270 0.948 . S
C247 C243 1.397 . S
C247 C248 1.394 . S
C247 C266 1.723 . S
C248 C245 1.396 . S
C248 C247 1.394 . S
C248 C278 1.723 . S
H249 C272 0.947 . S
H250 C273 0.948 . S
H251 C279 0.982 . S
H252 C280 0.979 . S
H253 C280 0.980 . S
H254 C280 0.983 . S
H255 C279 0.979 . S
H256 C279 0.977 . S
C257 C245 1.453 . S
C257 H286 0.982 . S
C257 H287 0.979 . S
C257 H288 0.977 . S
C258 C245 1.684 . S
C258 H283 0.979 . S
C258 H284 0.980 . S
C258 H285 0.983 . S
C259 C260 1.391 . S
C259 C264 1.391 . S
C259 H289 0.948 . S
C260 C259 1.391 . S
C260 C261 1.391 . S
C261 C260 1.391 . S
C261 C262 1.392 . S
C261 H290 0.947 . S
C262 C261 1.392 . S
C262 C263 1.419 . S
C262 H291 0.948 . S
C263 C262 1.419 . S
C263 C264 1.391 . S
C263 C267 1.397 . S
C264 C259 1.391 . S
C264 C263 1.391 . S
C264 C265 1.399 . S
C265 C264 1.399 . S
C265 C266 1.396 . S
C265 C268 1.453 . S
C265 C269 1.684 . S
C266 C247 1.723 . S
C266 C265 1.396 . S
C266 C267 1.394 . S
C267 C263 1.397 . S
C267 C266 1.394 . S
C267 C277 1.723 . S
C268 C265 1.453 . S
C268 H292 0.982 . S
C268 H293 0.979 . S
C268 H294 0.977 . S
C269 C265 1.684 . S
C269 H295 0.979 . S
C269 H296 0.980 . S
C269 H297 0.983 . S
C270 H246 0.948 . S
C270 C271 1.391 . S
C270 C275 1.391 . S
C271 C270 1.391 . S
C271 C272 1.391 . S
C272 H249 0.947 . S
C272 C271 1.391 . S
C272 C273 1.392 . S
C273 H250 0.948 . S
C273 C272 1.392 . S
C273 C274 1.419 . S
C274 C273 1.419 . S
C274 C275 1.391 . S
C274 C278 1.397 . S
C275 C270 1.391 . S
C275 C274 1.391 . S
C275 C276 1.399 . S
C276 C275 1.399 . S
C276 C277 1.396 . S
C276 C279 1.453 . S
C276 C280 1.684 . S
C277 C267 1.723 . S
C277 C276 1.396 . S
C277 C278 1.394 . S
C278 C248 1.723 . S
C278 C274 1.397 . S
C278 C277 1.394 . S
C279 H251 0.982 . S
C279 H255 0.979 . S
C279 H256 0.977 . S
C279 C276 1.453 . S
C280 H252 0.979 . S
C280 H253 0.980 . S
C280 H254 0.983 . S
C280 C276 1.684 . S
H281 C299 0.948 . S
H282 C240 0.948 . S
H283 C258 0.979 . S
H284 C258 0.980 . S
H285 C258 0.983 . S
H286 C257 0.982 . S
H287 C257 0.979 . S
H288 C257 0.977 . S
H289 C259 0.948 . S
H290 C261 0.947 . S
H291 C262 0.948 . S
H292 C268 0.982 . S
H293 C268 0.979 . S
H294 C268 0.977 . S
H295 C269 0.979 . S
H296 C269 0.980 . S
H297 C269 0.983 . S
H298 C242 0.947 . S
C299 C242 1.392 . S
C299 C243 1.419 . S
C299 H281 0.948 . S
C300 C301 1.391 . S
C300 C304 1.391 . S
C300 H342 0.948 . S
C301 C300 1.391 . S
C301 C302 1.391 . S
C302 C301 1.391 . S
C302 H358 0.947 . S
C302 C359 1.392 . S
C303 C304 1.391 . S
C303 C307 1.397 . S
C303 C359 1.419 . S
C304 C300 1.391 . S
C304 C303 1.391 . S
C304 C305 1.399 . S
C305 C304 1.399 . S
C305 C308 1.396 . S
C305 C317 1.453 . S
C305 C318 1.684 . S
H306 C330 0.948 . S
C307 C303 1.397 . S
C307 C308 1.394 . S
C307 C326 1.723 . S
C308 C305 1.396 . S
C308 C307 1.394 . S
C308 C338 1.723 . S
H309 C332 0.947 . S
H310 C333 0.948 . S
H311 C339 0.982 . S
H312 C340 0.979 . S
H313 C340 0.980 . S
H314 C340 0.983 . S
H315 C339 0.979 . S
H316 C339 0.977 . S
C317 C305 1.453 . S
C317 H346 0.982 . S
C317 H347 0.979 . S
C317 H348 0.977 . S
C318 C305 1.684 . S
C318 H343 0.979 . S
C318 H344 0.980 . S
C318 H345 0.983 . S
C319 C320 1.391 . S
C319 C324 1.391 . S
C319 H349 0.948 . S
C320 C319 1.391 . S
C320 C321 1.391 . S
C321 C320 1.391 . S
C321 C322 1.392 . S
C321 H350 0.947 . S
C322 C321 1.392 . S
C322 C323 1.419 . S
C322 H351 0.948 . S
C323 C322 1.419 . S
C323 C324 1.391 . S
C323 C327 1.397 . S
C324 C319 1.391 . S
C324 C323 1.391 . S
C324 C325 1.399 . S
C325 C324 1.399 . S
C325 C326 1.396 . S
C325 C328 1.453 . S
C325 C329 1.684 . S
C326 C307 1.723 . S
C326 C325 1.396 . S
C326 C327 1.394 . S
C327 C323 1.397 . S
C327 C326 1.394 . S
C327 C337 1.723 . S
C328 C325 1.453 . S
C328 H352 0.982 . S
C328 H353 0.979 . S
C328 H354 0.977 . S
C329 C325 1.684 . S
C329 H355 0.979 . S
C329 H356 0.980 . S
C329 H357 0.983 . S
C330 H306 0.948 . S
C330 C331 1.391 . S
C330 C335 1.391 . S
C331 C330 1.391 . S
C331 C332 1.391 . S
C332 H309 0.947 . S
C332 C331 1.391 . S
C332 C333 1.392 . S
C333 H310 0.948 . S
C333 C332 1.392 . S
C333 C334 1.419 . S
C334 C333 1.419 . S
C334 C335 1.391 . S
C334 C338 1.397 . S
C335 C330 1.391 . S
C335 C334 1.391 . S
C335 C336 1.399 . S
C336 C335 1.399 . S
C336 C337 1.396 . S
C336 C339 1.453 . S
C336 C340 1.684 . S
C337 C327 1.723 . S
C337 C336 1.396 . S
C337 C338 1.394 . S
C338 C308 1.723 . S
C338 C334 1.397 . S
C338 C337 1.394 . S
C339 H311 0.982 . S
C339 H315 0.979 . S
C339 H316 0.977 . S
C339 C336 1.453 . S
C340 H312 0.979 . S
C340 H313 0.980 . S
C340 H314 0.983 . S
C340 C336 1.684 . S
H341 C359 0.948 . S
H342 C300 0.948 . S
H343 C318 0.979 . S
H344 C318 0.980 . S
H345 C318 0.983 . S
H346 C317 0.982 . S
H347 C317 0.979 . S
H348 C317 0.977 . S
H349 C319 0.948 . S
H350 C321 0.947 . S
H351 C322 0.948 . S
H352 C328 0.982 . S
H353 C328 0.979 . S
H354 C328 0.977 . S
H355 C329 0.979 . S
H356 C329 0.980 . S
H357 C329 0.983 . S
H358 C302 0.947 . S
C359 C302 1.392 . S
C359 C303 1.419 . S
C359 H341 0.948 . S
C360 C361 1.391 . S
C360 C364 1.391 . S
C360 H402 0.948 . S
C361 C360 1.391 . S
C361 C362 1.391 . S
C362 C361 1.391 . S
C362 H418 0.947 . S
C362 C419 1.392 . S
C363 C364 1.400 . S
C363 C367 1.398 1_545 S
C363 C419 1.422 . S
C364 C360 1.391 . S
C364 C363 1.400 . S
C364 C365 1.399 . S
C365 C364 1.399 . S
C365 C368 1.390 1_545 S
C365 C377 1.453 1_545 S
C365 C378 1.684 . S
H366 C390 0.948 . S
C367 C363 1.398 1_565 S
C367 C368 1.395 . S
C367 C386 1.723 . S
C368 C365 1.390 1_565 S
C368 C367 1.395 . S
C368 C398 1.718 . S
H369 C392 0.947 . S
H370 C393 0.948 . S
H371 C399 0.982 . S
H372 C400 0.979 . S
H373 C400 0.980 . S
H374 C400 0.983 . S
H375 C399 0.979 . S
H376 C399 0.977 . S
C377 C365 1.453 1_565 S
C377 H406 0.982 . S
C377 H407 0.979 . S
C377 H408 0.977 . S
C378 C365 1.684 . S
C378 H403 0.979 . S
C378 H404 0.980 . S
C378 H405 0.983 . S
C379 C380 1.391 . S
C379 C384 1.391 . S
C379 H409 0.948 . S
C380 C379 1.391 . S
C380 C381 1.391 . S
C381 C380 1.391 . S
C381 C382 1.392 . S
C381 H410 0.947 . S
C382 C381 1.392 . S
C382 C383 1.429 . S
C382 H411 0.948 . S
C383 C382 1.429 . S
C383 C384 1.396 . S
C383 C387 1.394 1_545 S
C384 C379 1.391 . S
C384 C383 1.396 . S
C384 C385 1.399 . S
C385 C384 1.399 . S
C385 C386 1.390 1_545 S
C385 C388 1.453 1_545 S
C385 C389 1.684 . S
C386 C367 1.723 . S
C386 C385 1.390 1_565 S
C386 C387 1.389 . S
C387 C383 1.394 1_565 S
C387 C386 1.389 . S
C387 C397 1.724 . S
C388 C385 1.453 1_565 S
C388 H412 0.982 . S
C388 H413 0.979 . S
C388 H414 0.977 . S
C389 C385 1.684 . S
C389 H415 0.979 . S
C389 H416 0.980 . S
C389 H417 0.983 . S
C390 H366 0.948 . S
C390 C391 1.391 . S
C390 C395 1.391 . S
C391 C390 1.391 . S
C391 C392 1.391 . S
C392 H369 0.947 . S
C392 C391 1.391 . S
C392 C393 1.392 . S
C393 H370 0.948 . S
C393 C392 1.392 . S
C393 C394 1.426 . S
C394 C393 1.426 . S
C394 C395 1.403 . S
C394 C398 1.392 1_545 S
C395 C390 1.391 . S
C395 C394 1.403 . S
C395 C396 1.399 . S
C396 C395 1.399 . S
C396 C397 1.385 1_545 S
C396 C399 1.453 1_545 S
C396 C400 1.684 . S
C397 C387 1.724 . S
C397 C396 1.385 1_565 S
C397 C398 1.394 . S
C398 C368 1.718 . S
C398 C394 1.392 1_565 S
C398 C397 1.394 . S
C399 H371 0.982 . S
C399 H375 0.979 . S
C399 H376 0.977 . S
C399 C396 1.453 1_565 S
C400 H372 0.979 . S
C400 H373 0.980 . S
C400 H374 0.983 . S
C400 C396 1.684 . S
H401 C419 0.948 . S
H402 C360 0.948 . S
H403 C378 0.979 . S
H404 C378 0.980 . S
H405 C378 0.983 . S
H406 C377 0.982 . S
H407 C377 0.979 . S
H408 C377 0.977 . S
H409 C379 0.948 . S
H410 C381 0.947 . S
H411 C382 0.948 . S
H412 C388 0.982 . S
H413 C388 0.979 . S
H414 C388 0.977 . S
H415 C389 0.979 . S
H416 C389 0.980 . S
H417 C389 0.983 . S
H418 C362 0.947 . S
C419 C362 1.392 . S
C419 C363 1.422 . S
C419 H401 0.948 . S
C420 C421 1.391 . S
C420 C424 1.391 . S
C420 H462 0.948 . S
C421 C420 1.391 . S
C421 C422 1.391 . S
C422 C421 1.391 . S
C422 H478 0.947 . S
C422 C479 1.392 . S
C423 C424 1.391 . S
C423 C427 1.397 . S
C423 C479 1.419 . S
C424 C420 1.391 . S
C424 C423 1.391 . S
C424 C425 1.399 . S
C425 C424 1.399 . S
C425 C428 1.396 . S
C425 C437 1.453 . S
C425 C438 1.684 . S
H426 C450 0.948 . S
C427 C423 1.397 . S
C427 C428 1.394 . S
C427 C446 1.723 . S
C428 C425 1.396 . S
C428 C427 1.394 . S
C428 C458 1.723 . S
H429 C452 0.947 . S
H430 C453 0.948 . S
H431 C459 0.982 . S
H432 C460 0.979 . S
H433 C460 0.980 . S
H434 C460 0.983 . S
H435 C459 0.979 . S
H436 C459 0.977 . S
C437 C425 1.453 . S
C437 H466 0.982 . S
C437 H467 0.979 . S
C437 H468 0.977 . S
C438 C425 1.684 . S
C438 H463 0.979 . S
C438 H464 0.980 . S
C438 H465 0.983 . S
C439 C440 1.391 . S
C439 C444 1.391 . S
C439 H469 0.948 . S
C440 C439 1.391 . S
C440 C441 1.391 . S
C441 C440 1.391 . S
C441 C442 1.392 . S
C441 H470 0.947 . S
C442 C441 1.392 . S
C442 C443 1.419 . S
C442 H471 0.948 . S
C443 C442 1.419 . S
C443 C444 1.391 . S
C443 C447 1.397 . S
C444 C439 1.391 . S
C444 C443 1.391 . S
C444 C445 1.399 . S
C445 C444 1.399 . S
C445 C446 1.396 . S
C445 C448 1.453 . S
C445 C449 1.684 . S
C446 C427 1.723 . S
C446 C445 1.396 . S
C446 C447 1.394 . S
C447 C443 1.397 . S
C447 C446 1.394 . S
C447 C457 1.723 . S
C448 C445 1.453 . S
C448 H472 0.982 . S
C448 H473 0.979 . S
C448 H474 0.977 . S
C449 C445 1.684 . S
C449 H475 0.979 . S
C449 H476 0.980 . S
C449 H477 0.983 . S
C450 H426 0.948 . S
C450 C451 1.391 . S
C450 C455 1.391 . S
C451 C450 1.391 . S
C451 C452 1.391 . S
C452 H429 0.947 . S
C452 C451 1.391 . S
C452 C453 1.392 . S
C453 H430 0.948 . S
C453 C452 1.392 . S
C453 C454 1.419 . S
C454 C453 1.419 . S
C454 C455 1.391 . S
C454 C458 1.397 . S
C455 C450 1.391 . S
C455 C454 1.391 . S
C455 C456 1.399 . S
C456 C455 1.399 . S
C456 C457 1.396 . S
C456 C459 1.453 . S
C456 C460 1.684 . S
C457 C447 1.723 . S
C457 C456 1.396 . S
C457 C458 1.394 . S
C458 C428 1.723 . S
C458 C454 1.397 . S
C458 C457 1.394 . S
C459 H431 0.982 . S
C459 H435 0.979 . S
C459 H436 0.977 . S
C459 C456 1.453 . S
C460 H432 0.979 . S
C460 H433 0.980 . S
C460 H434 0.983 . S
C460 C456 1.684 . S
H461 C479 0.948 . S
H462 C420 0.948 . S
H463 C438 0.979 . S
H464 C438 0.980 . S
H465 C438 0.983 . S
H466 C437 0.982 . S
H467 C437 0.979 . S
H468 C437 0.977 . S
H469 C439 0.948 . S
H470 C441 0.947 . S
H471 C442 0.948 . S
H472 C448 0.982 . S
H473 C448 0.979 . S
H474 C448 0.977 . S
H475 C449 0.979 . S
H476 C449 0.980 . S
H477 C449 0.983 . S
H478 C422 0.947 . S
C479 C422 1.392 . S
C479 C423 1.419 . S
C479 H461 0.948 . S
C480 O496 1.251 . S
C480 O498 1.254 . S
N481 C482 1.333 . S
N481 C486 1.307 1_455 S
N481 Zn487 2.020 . S
C482 N481 1.333 . S
C482 C483 1.379 1_455 S
C482 H500 0.952 . S
C483 C482 1.379 1_655 S
C483 C484 1.390 . S
C483 H510 0.955 . S
C484 C483 1.390 . S
C484 C485 1.357 . S
C485 C484 1.357 . S
C485 C486 1.370 . S
C485 H511 0.950 . S
C486 N481 1.307 1_655 S
C486 C485 1.370 . S
C486 H504 0.948 . S
Zn487 N481 2.020 . S
Zn487 O496 2.039 . S
Zn487 O502 2.034 . S
Zn487 O506 2.025 1_565 S
Zn487 O508 2.024 1_455 S
C488 O507 1.246 . S
C488 O508 1.249 1_545 S
N489 C490 1.307 . S
N489 C491 1.333 . S
N489 Zn495 2.020 . S
C490 N489 1.307 . S
C490 C494 1.370 . S
C490 H501 0.948 . S
C491 N489 1.333 . S
C491 C492 1.379 . S
C491 H499 0.952 . S
C492 C491 1.379 . S
C492 C493 1.390 . S
C492 H512 0.949 . S
C493 C492 1.390 . S
C493 C494 1.357 . S
C494 C490 1.370 . S
C494 C493 1.357 . S
C494 H513 0.950 . S
Zn495 N489 2.020 . S
Zn495 O498 2.025 1_545 S
Zn495 O503 2.024 . S
Zn495 O505 2.039 . S
Zn495 O507 2.034 1_455 S
O496 C480 1.251 . S
O496 Zn487 2.039 . S
C497 O502 1.246 . S
C497 O503 1.249 1_565 S
O498 C480 1.254 . S
O498 Zn495 2.025 1_565 S
H499 C491 0.952 . S
H500 C482 0.952 . S
H501 C490 0.948 . S
O502 Zn487 2.034 . S
O502 C497 1.246 . S
O503 Zn495 2.024 . S
O503 C497 1.249 1_545 S
H504 C486 0.948 . S
O505 Zn495 2.039 . S
O505 C509 1.251 . S
O506 Zn487 2.025 1_545 S
O506 C509 1.254 . S
O507 C488 1.246 . S
O507 Zn495 2.034 1_655 S
O508 Zn487 2.024 1_655 S
O508 C488 1.249 1_565 S
C509 O505 1.251 . S
C509 O506 1.254 . S
H510 C483 0.955 . S
H511 C485 0.950 . S
H512 C492 0.949 . S
H513 C494 0.950 . S
C514 O530 1.251 1_565 S
C514 O532 1.254 . S
N515 C516 1.333 . S
N515 C520 1.307 . S
N515 Zn521 2.020 . S
C516 N515 1.333 . S
C516 C517 1.379 . S
C516 H534 0.952 . S
C517 C516 1.379 . S
C517 C518 1.390 . S
C517 H544 0.949 . S
C518 C517 1.390 . S
C518 C519 1.357 . S
C519 C518 1.357 . S
C519 C520 1.370 . S
C519 H545 0.950 . S
C520 N515 1.307 . S
C520 C519 1.370 . S
C520 H538 0.948 . S
Zn521 N515 2.020 . S
Zn521 O530 2.039 . S
Zn521 O536 2.034 . S
Zn521 O540 2.025 . S
Zn521 O542 2.024 . S
C522 O541 1.246 1_545 S
C522 O542 1.249 . S
N523 C524 1.307 . S
N523 C525 1.333 . S
N523 Zn529 2.020 . S
C524 N523 1.307 . S
C524 C528 1.370 . S
C524 H535 0.948 . S
C525 N523 1.333 . S
C525 C526 1.379 . S
C525 H533 0.952 . S
C526 C525 1.379 . S
C526 C527 1.390 . S
C526 H546 0.949 . S
C527 C526 1.390 . S
C527 C528 1.357 . S
C528 C524 1.370 . S
C528 C527 1.357 . S
C528 H547 0.950 . S
Zn529 N523 2.020 . S
Zn529 O532 2.025 . S
Zn529 O537 2.024 . S
Zn529 O539 2.039 . S
Zn529 O541 2.034 . S
O530 C514 1.251 1_545 S
O530 Zn521 2.039 . S
C531 O536 1.246 1_565 S
C531 O537 1.249 . S
O532 C514 1.254 . S
O532 Zn529 2.025 . S
H533 C525 0.952 . S
H534 C516 0.952 . S
H535 C524 0.948 . S
O536 Zn521 2.034 . S
O536 C531 1.246 1_545 S
O537 Zn529 2.024 . S
O537 C531 1.249 . S
H538 C520 0.948 . S
O539 Zn529 2.039 . S
O539 C543 1.251 1_565 S
O540 Zn521 2.025 . S
O540 C543 1.254 . S
O541 C522 1.246 1_565 S
O541 Zn529 2.034 . S
O542 Zn521 2.024 . S
O542 C522 1.249 . S
C543 O539 1.251 1_545 S
C543 O540 1.254 . S
H544 C517 0.949 . S
H545 C519 0.950 . S
H546 C526 0.949 . S
H547 C528 0.950 . S
C548 O564 1.251 . S
C548 O566 1.254 . S
N549 C550 1.333 . S
N549 C554 1.307 . S
N549 Zn555 2.020 . S
C550 N549 1.333 . S
C550 C551 1.379 . S
C550 H568 0.952 . S
C551 C550 1.379 . S
C551 C552 1.390 . S
C551 H578 0.949 . S
C552 C551 1.390 . S
C552 C553 1.357 . S
C553 C552 1.357 . S
C553 C554 1.370 . S
C553 H579 0.950 . S
C554 N549 1.307 . S
C554 C553 1.370 . S
C554 H572 0.948 . S
Zn555 N549 2.020 . S
Zn555 O564 2.039 . S
Zn555 O570 2.034 . S
Zn555 O574 2.025 . S
Zn555 O576 2.024 . S
C556 O575 1.246 . S
C556 O576 1.249 . S
N557 C558 1.307 . S
N557 C559 1.333 . S
N557 Zn563 2.020 . S
C558 N557 1.307 . S
C558 C562 1.370 . S
C558 H569 0.948 . S
C559 N557 1.333 . S
C559 C560 1.379 . S
C559 H567 0.952 . S
C560 C559 1.379 . S
C560 C561 1.390 . S
C560 H580 0.949 . S
C561 C560 1.390 . S
C561 C562 1.357 . S
C562 C558 1.370 . S
C562 C561 1.357 . S
C562 H581 0.950 . S
Zn563 N557 2.020 . S
Zn563 O566 2.025 . S
Zn563 O571 2.024 . S
Zn563 O573 2.039 . S
Zn563 O575 2.034 . S
O564 C548 1.251 . S
O564 Zn555 2.039 . S
C565 O570 1.246 . S
C565 O571 1.249 . S
O566 C548 1.254 . S
O566 Zn563 2.025 . S
H567 C559 0.952 . S
H568 C550 0.952 . S
H569 C558 0.948 . S
O570 Zn555 2.034 . S
O570 C565 1.246 . S
O571 Zn563 2.024 . S
O571 C565 1.249 . S
H572 C554 0.948 . S
O573 Zn563 2.039 . S
O573 C577 1.251 . S
O574 Zn555 2.025 . S
O574 C577 1.254 . S
O575 C556 1.246 . S
O575 Zn563 2.034 . S
O576 Zn555 2.024 . S
O576 C556 1.249 . S
C577 O573 1.251 . S
C577 O574 1.254 . S
H578 C551 0.949 . S
H579 C553 0.950 . S
H580 C560 0.949 . S
H581 C562 0.950 . S
C582 O598 1.251 . S
C582 O600 1.254 . S
N583 C584 1.333 . S
N583 C588 1.307 . S
N583 Zn589 2.020 . S
C584 N583 1.333 . S
C584 C585 1.379 . S
C584 H602 0.952 . S
C585 C584 1.379 . S
C585 C586 1.390 . S
C585 H612 0.949 . S
C586 C585 1.390 . S
C586 C587 1.357 . S
C587 C586 1.357 . S
C587 C588 1.370 . S
C587 H613 0.950 . S
C588 N583 1.307 . S
C588 C587 1.370 . S
C588 H606 0.948 . S
Zn589 N583 2.020 . S
Zn589 O598 2.039 . S
Zn589 O604 2.034 . S
Zn589 O608 2.048 . S
Zn589 O610 2.024 . S
C590 O609 1.246 . S
C590 O610 1.249 . S
N591 C592 1.307 . S
N591 C593 1.333 1_455 S
N591 Zn597 2.020 . S
C592 N591 1.307 . S
C592 C596 1.370 . S
C592 H603 0.948 . S
C593 N591 1.333 1_655 S
C593 C594 1.379 . S
C593 H601 0.952 . S
C594 C593 1.379 . S
C594 C595 1.390 . S
C594 H614 0.949 . S
C595 C594 1.390 . S
C595 C596 1.357 1_655 S
C596 C592 1.370 . S
C596 C595 1.357 1_455 S
C596 H615 0.950 . S
Zn597 N591 2.020 . S
Zn597 O600 2.025 . S
Zn597 O605 2.024 1_455 S
Zn597 O607 2.039 1_455 S
Zn597 O609 2.034 . S
O598 C582 1.251 . S
O598 Zn589 2.039 . S
C599 O604 1.246 1_655 S
C599 O605 1.249 . S
O600 C582 1.254 . S
O600 Zn597 2.025 . S
H601 C593 0.952 . S
H602 C584 0.952 . S
H603 C592 0.948 . S
O604 Zn589 2.034 . S
O604 C599 1.246 1_455 S
O605 Zn597 2.024 1_655 S
O605 C599 1.249 . S
H606 C588 0.948 . S
O607 Zn597 2.039 1_655 S
O607 C611 1.251 . S
O608 Zn589 2.048 . S
O608 C611 1.236 1_455 S
O609 C590 1.246 . S
O609 Zn597 2.034 . S
O610 Zn589 2.024 . S
O610 C590 1.249 . S
C611 O607 1.251 . S
C611 O608 1.236 1_655 S
H612 C585 0.949 . S
H613 C587 0.950 . S
H614 C594 0.949 . S
H615 C596 0.950 . S
H616 C634 0.951 . S
H617 C636 0.952 . S
H618 C638 0.950 . S
H619 C639 0.950 . S
H620 C641 0.950 . S
H621 C644 0.950 . S
H622 C645 0.950 . S
H623 C647 0.950 . S
H624 C648 0.950 . S
H625 C649 0.951 . S
H626 C651 0.951 . S
H627 C653 0.950 . S
H628 C654 0.950 . S
H629 C656 0.950 . S
H630 C659 0.950 . S
H631 C660 0.950 . S
H632 C662 0.950 . S
H633 C663 0.950 . S
C634 H616 0.951 . S
C634 C635 1.366 . S
C634 C636 1.389 . S
C635 C634 1.366 . S
C635 C639 1.385 . S
C636 H617 0.952 . S
C636 C634 1.389 . S
C636 C637 1.366 . S
C637 C636 1.366 . S
C637 C638 1.417 . S
C637 C640 1.498 . S
C638 H618 0.950 . S
C638 C637 1.417 . S
C638 C639 1.373 . S
C639 H619 0.950 . S
C639 C635 1.385 . S
C639 C638 1.373 . S
C640 C637 1.498 . S
C640 C641 1.373 . S
C640 C642 1.389 1_565 S
C641 H620 0.950 . S
C641 C640 1.373 . S
C641 C657 1.377 . S
C642 C640 1.389 1_545 S
C642 C643 1.524 . S
C642 C656 1.377 . S
C643 C642 1.524 . S
C643 C644 1.397 . S
C643 C648 1.363 . S
C644 H621 0.950 . S
C644 C643 1.397 . S
C644 C645 1.334 . S
C645 H622 0.950 . S
C645 C644 1.334 . S
C645 C646 1.287 . S
C646 C645 1.287 . S
C646 C647 1.524 . S
C646 H665 0.913 . S
C647 H623 0.950 . S
C647 C646 1.524 . S
C647 C648 1.415 . S
C648 H624 0.950 . S
C648 C643 1.363 . S
C648 C647 1.415 . S
C649 H625 0.951 . S
C649 C650 1.366 . S
C649 C651 1.388 . S
C650 C649 1.366 . S
C650 C654 1.385 . S
C651 H626 0.951 . S
C651 C649 1.388 . S
C651 C652 1.366 . S
C652 C651 1.366 . S
C652 C653 1.414 . S
C652 C655 1.499 . S
C653 H627 0.950 . S
C653 C652 1.414 . S
C653 C654 1.374 . S
C654 H628 0.950 . S
C654 C650 1.385 . S
C654 C653 1.374 . S
C655 C652 1.499 . S
C655 C656 1.373 1_565 S
C655 C657 1.389 . S
C656 H629 0.950 . S
C656 C642 1.377 . S
C656 C655 1.373 1_545 S
C657 C641 1.377 . S
C657 C655 1.389 . S
C657 C658 1.524 . S
C658 C657 1.524 . S
C658 C659 1.397 . S
C658 C663 1.363 . S
C659 H630 0.950 . S
C659 C658 1.397 . S
C659 C660 1.334 . S
C660 H631 0.950 . S
C660 C659 1.334 . S
C660 C661 1.287 . S
C661 C660 1.287 . S
C661 C662 1.524 . S
C661 H664 0.999 . S
C662 H632 0.950 . S
C662 C661 1.524 . S
C662 C663 1.415 . S
C663 H633 0.950 . S
C663 C658 1.363 . S
C663 C662 1.415 . S
H664 C661 0.999 . S
H665 C646 0.913 . S
H666 C684 0.951 . S
H667 C686 0.951 . S
H668 C688 0.950 . S
H669 C689 0.950 . S
H670 C691 0.950 . S
H671 C694 0.950 . S
H672 C695 0.950 . S
H673 C697 0.950 . S
H674 C698 0.950 . S
H675 C699 0.951 . S
H676 C701 0.951 . S
H677 C703 0.950 . S
H678 C704 0.950 . S
H679 C706 0.950 . S
H680 C709 0.950 . S
H681 C710 0.950 . S
H682 C712 0.950 . S
H683 C713 0.950 . S
C684 H666 0.951 . S
C684 C685 1.366 . S
C684 C686 1.388 . S
C685 C684 1.366 . S
C685 C689 1.385 . S
C686 H667 0.951 . S
C686 C684 1.388 . S
C686 C687 1.366 . S
C687 C686 1.366 . S
C687 C688 1.414 . S
C687 C690 1.499 . S
C688 H668 0.950 . S
C688 C687 1.414 . S
C688 C689 1.374 . S
C689 H669 0.950 . S
C689 C685 1.385 . S
C689 C688 1.374 . S
C690 C687 1.499 . S
C690 C691 1.373 . S
C690 C692 1.389 . S
C691 H670 0.950 . S
C691 C690 1.373 . S
C691 C707 1.377 . S
C692 C690 1.389 . S
C692 C693 1.524 . S
C692 C706 1.377 . S
C693 C692 1.524 . S
C693 C694 1.397 . S
C693 C698 1.363 . S
C694 H671 0.950 . S
C694 C693 1.397 . S
C694 C695 1.334 . S
C695 H672 0.950 . S
C695 C694 1.334 . S
C695 C696 1.287 . S
C696 C695 1.287 . S
C696 C697 1.524 . S
C696 H715 0.913 . S
C697 H673 0.950 . S
C697 C696 1.524 . S
C697 C698 1.415 . S
C698 H674 0.950 . S
C698 C693 1.363 . S
C698 C697 1.415 . S
C699 H675 0.951 . S
C699 C700 1.366 . S
C699 C701 1.388 . S
C700 C699 1.366 . S
C700 C704 1.385 . S
C701 H676 0.951 . S
C701 C699 1.388 . S
C701 C702 1.366 . S
C702 C701 1.366 . S
C702 C703 1.414 . S
C702 C705 1.499 . S
C703 H677 0.950 . S
C703 C702 1.414 . S
C703 C704 1.374 . S
C704 H678 0.950 . S
C704 C700 1.385 . S
C704 C703 1.374 . S
C705 C702 1.499 . S
C705 C706 1.373 . S
C705 C707 1.389 . S
C706 H679 0.950 . S
C706 C692 1.377 . S
C706 C705 1.373 . S
C707 C691 1.377 . S
C707 C705 1.389 . S
C707 C708 1.524 . S
C708 C707 1.524 . S
C708 C709 1.397 . S
C708 C713 1.363 . S
C709 H680 0.950 . S
C709 C708 1.397 . S
C709 C710 1.334 . S
C710 H681 0.950 . S
C710 C709 1.334 . S
C710 C711 1.287 . S
C711 C710 1.287 . S
C711 C712 1.524 . S
C711 H714 0.999 . S
C712 H682 0.950 . S
C712 C711 1.524 . S
C712 C713 1.415 . S
C713 H683 0.950 . S
C713 C708 1.363 . S
C713 C712 1.415 . S
H714 C711 0.999 . S
H715 C696 0.913 . S
H716 C734 0.951 . S
H717 C736 0.951 . S
H718 C738 0.950 . S
H719 C739 0.950 . S
H720 C741 0.950 . S
H721 C744 0.950 . S
H722 C745 0.950 . S
H723 C747 0.950 . S
H724 C748 0.950 . S
H725 C749 0.951 . S
H726 C751 0.951 . S
H727 C753 0.950 . S
H728 C754 0.950 . S
H729 C756 0.950 . S
H730 C759 0.950 . S
H731 C760 0.950 . S
H732 C762 0.950 . S
H733 C763 0.950 . S
C734 H716 0.951 . S
C734 C735 1.366 . S
C734 C736 1.388 . S
C735 C734 1.366 . S
C735 C739 1.385 . S
C736 H717 0.951 . S
C736 C734 1.388 . S
C736 C737 1.366 . S
C737 C736 1.366 . S
C737 C738 1.414 . S
C737 C740 1.499 . S
C738 H718 0.950 . S
C738 C737 1.414 . S
C738 C739 1.374 . S
C739 H719 0.950 . S
C739 C735 1.385 . S
C739 C738 1.374 . S
C740 C737 1.499 . S
C740 C741 1.373 . S
C740 C742 1.389 . S
C741 H720 0.950 . S
C741 C740 1.373 . S
C741 C757 1.377 . S
C742 C740 1.389 . S
C742 C743 1.524 . S
C742 C756 1.377 . S
C743 C742 1.524 . S
C743 C744 1.397 . S
C743 C748 1.363 . S
C744 H721 0.950 . S
C744 C743 1.397 . S
C744 C745 1.334 . S
C745 H722 0.950 . S
C745 C744 1.334 . S
C745 C746 1.287 . S
C746 C745 1.287 . S
C746 C747 1.524 . S
C746 H765 0.913 . S
C747 H723 0.950 . S
C747 C746 1.524 . S
C747 C748 1.415 . S
C748 H724 0.950 . S
C748 C743 1.363 . S
C748 C747 1.415 . S
C749 H725 0.951 . S
C749 C750 1.366 . S
C749 C751 1.388 . S
C750 C749 1.366 . S
C750 C754 1.385 . S
C751 H726 0.951 . S
C751 C749 1.388 . S
C751 C752 1.366 . S
C752 C751 1.366 . S
C752 C753 1.414 . S
C752 C755 1.499 . S
C753 H727 0.950 . S
C753 C752 1.414 . S
C753 C754 1.374 . S
C754 H728 0.950 . S
C754 C750 1.385 . S
C754 C753 1.374 . S
C755 C752 1.499 . S
C755 C756 1.373 . S
C755 C757 1.389 . S
C756 H729 0.950 . S
C756 C742 1.377 . S
C756 C755 1.373 . S
C757 C741 1.377 . S
C757 C755 1.389 . S
C757 C758 1.524 . S
C758 C757 1.524 . S
C758 C759 1.397 . S
C758 C763 1.363 . S
C759 H730 0.950 . S
C759 C758 1.397 . S
C759 C760 1.334 . S
C760 H731 0.950 . S
C760 C759 1.334 . S
C760 C761 1.287 . S
C761 C760 1.287 . S
C761 C762 1.524 . S
C761 H764 0.999 . S
C762 H732 0.950 . S
C762 C761 1.524 . S
C762 C763 1.415 . S
C763 H733 0.950 . S
C763 C758 1.363 . S
C763 C762 1.415 . S
H764 C761 0.999 . S
H765 C746 0.913 . S
H766 C784 0.951 . S
H767 C786 0.951 . S
H768 C788 0.950 . S
H769 C789 0.950 . S
H770 C791 0.950 . S
H771 C794 0.950 . S
H772 C795 0.950 . S
H773 C797 0.950 . S
H774 C798 0.950 . S
H775 C799 0.951 . S
H776 C801 0.951 . S
H777 C803 0.950 . S
H778 C804 0.950 . S
H779 C806 0.950 . S
H780 C809 0.950 . S
H781 C810 0.950 . S
H782 C812 0.950 . S
H783 C813 0.950 . S
C784 H766 0.951 . S
C784 C785 1.366 . S
C784 C786 1.388 . S
C785 C784 1.366 . S
C785 C789 1.385 . S
C786 H767 0.951 . S
C786 C784 1.388 . S
C786 C787 1.366 . S
C787 C786 1.366 . S
C787 C788 1.414 . S
C787 C790 1.499 . S
C788 H768 0.950 . S
C788 C787 1.414 . S
C788 C789 1.374 . S
C789 H769 0.950 . S
C789 C785 1.385 . S
C789 C788 1.374 . S
C790 C787 1.499 . S
C790 C791 1.373 . S
C790 C792 1.389 . S
C791 H770 0.950 . S
C791 C790 1.373 . S
C791 C807 1.377 . S
C792 C790 1.389 . S
C792 C793 1.524 . S
C792 C806 1.377 . S
C793 C792 1.524 . S
C793 C794 1.397 . S
C793 C798 1.363 . S
C794 H771 0.950 . S
C794 C793 1.397 . S
C794 C795 1.334 . S
C795 H772 0.950 . S
C795 C794 1.334 . S
C795 C796 1.287 . S
C796 C795 1.287 . S
C796 C797 1.524 . S
C796 H815 0.913 . S
C797 H773 0.950 . S
C797 C796 1.524 . S
C797 C798 1.415 . S
C798 H774 0.950 . S
C798 C793 1.363 . S
C798 C797 1.415 . S
C799 H775 0.951 . S
C799 C800 1.366 . S
C799 C801 1.388 . S
C800 C799 1.366 . S
C800 C804 1.385 . S
C801 H776 0.951 . S
C801 C799 1.388 . S
C801 C802 1.366 . S
C802 C801 1.366 . S
C802 C803 1.414 . S
C802 C805 1.499 . S
C803 H777 0.950 . S
C803 C802 1.414 . S
C803 C804 1.374 . S
C804 H778 0.950 . S
C804 C800 1.385 . S
C804 C803 1.374 . S
C805 C802 1.499 . S
C805 C806 1.373 . S
C805 C807 1.389 . S
C806 H779 0.950 . S
C806 C792 1.377 . S
C806 C805 1.373 . S
C807 C791 1.377 . S
C807 C805 1.389 . S
C807 C808 1.524 . S
C808 C807 1.524 . S
C808 C809 1.397 . S
C808 C813 1.363 . S
C809 H780 0.950 . S
C809 C808 1.397 . S
C809 C810 1.334 . S
C810 H781 0.950 . S
C810 C809 1.334 . S
C810 C811 1.287 . S
C811 C810 1.287 . S
C811 C812 1.524 . S
C811 H814 0.999 . S
C812 H782 0.950 . S
C812 C811 1.524 . S
C812 C813 1.415 . S
C813 H783 0.950 . S
C813 C808 1.363 . S
C813 C812 1.415 . S
H814 C811 0.999 . S
H815 C796 0.913 . S
H816 C834 0.951 1_565 S
H817 C836 0.951 . S
H818 C838 0.950 . S
H819 C839 0.950 . S
H820 C841 0.950 . S
H821 C844 0.950 . S
H822 C845 0.950 . S
H823 C847 0.950 . S
H824 C848 0.950 . S
H825 C849 0.951 . S
H826 C851 0.951 . S
H827 C853 0.950 . S
H828 C854 0.950 . S
H829 C856 0.950 . S
H830 C859 0.950 . S
H831 C860 0.950 . S
H832 C862 0.950 . S
H833 C863 0.950 . S
C834 H816 0.951 1_545 S
C834 C835 1.366 1_554 S
C834 C836 1.388 1_554 S
C835 C834 1.366 1_556 S
C835 C839 1.386 . S
C836 H817 0.951 . S
C836 C834 1.388 1_556 S
C836 C837 1.366 . S
C837 C836 1.366 . S
C837 C838 1.414 . S
C837 C840 1.499 . S
C838 H818 0.950 . S
C838 C837 1.414 . S
C838 C839 1.374 . S
C839 H819 0.950 . S
C839 C835 1.386 . S
C839 C838 1.374 . S
C840 C837 1.499 . S
C840 C841 1.373 1_545 S
C840 C842 1.389 . S
C841 H820 0.950 . S
C841 C840 1.373 1_565 S
C841 C857 1.377 . S
C842 C840 1.389 . S
C842 C843 1.524 . S
C842 C856 1.377 . S
C843 C842 1.524 . S
C843 C844 1.397 . S
C843 C848 1.363 . S
C844 H821 0.950 . S
C844 C843 1.397 . S
C844 C845 1.334 . S
C845 H822 0.950 . S
C845 C844 1.334 . S
C845 C846 1.287 . S
C846 C845 1.287 . S
C846 C847 1.524 1_556 S
C846 H865 0.913 1_556 S
C847 H823 0.950 . S
C847 C846 1.524 1_554 S
C847 C848 1.415 1_554 S
C848 H824 0.950 . S
C848 C843 1.363 . S
C848 C847 1.415 1_556 S
C849 H825 0.951 . S
C849 C850 1.366 . S
C849 C851 1.388 . S
C850 C849 1.366 . S
C850 C854 1.385 . S
C851 H826 0.951 . S
C851 C849 1.388 . S
C851 C852 1.366 . S
C852 C851 1.366 . S
C852 C853 1.414 . S
C852 C855 1.499 . S
C853 H827 0.950 . S
C853 C852 1.414 . S
C853 C854 1.374 . S
C854 H828 0.950 . S
C854 C850 1.385 . S
C854 C853 1.374 . S
C855 C852 1.499 . S
C855 C856 1.373 . S
C855 C857 1.389 1_545 S
C856 H829 0.950 . S
C856 C842 1.377 . S
C856 C855 1.373 . S
C857 C841 1.377 . S
C857 C855 1.389 1_565 S
C857 C858 1.524 . S
C858 C857 1.524 . S
C858 C859 1.397 . S
C858 C863 1.363 . S
C859 H830 0.950 . S
C859 C858 1.397 . S
C859 C860 1.334 . S
C860 H831 0.950 . S
C860 C859 1.334 . S
C860 C861 1.287 . S
C861 C860 1.287 . S
C861 C862 1.524 . S
C861 H864 0.999 . S
C862 H832 0.950 . S
C862 C861 1.524 . S
C862 C863 1.415 . S
C863 H833 0.950 . S
C863 C858 1.363 . S
C863 C862 1.415 . S
H864 C861 0.999 . S
H865 C846 0.913 1_554 S
H866 C884 0.951 . S
H867 C886 0.951 . S
H868 C888 0.950 . S
H869 C889 0.950 . S
H870 C891 0.950 . S
H871 C894 0.950 . S
H872 C895 0.950 . S
H873 C897 0.950 . S
H874 C898 0.950 . S
H875 C899 0.951 . S
H876 C901 0.951 . S
H877 C903 0.950 . S
H878 C904 0.950 . S
H879 C906 0.950 . S
H880 C909 0.950 . S
H881 C910 0.950 . S
H882 C912 0.950 . S
H883 C913 0.950 . S
C884 H866 0.951 . S
C884 C885 1.366 . S
C884 C886 1.388 1_554 S
C885 C884 1.366 . S
C885 C889 1.385 1_554 S
C886 H867 0.951 . S
C886 C884 1.388 1_556 S
C886 C887 1.366 . S
C887 C886 1.366 . S
C887 C888 1.414 . S
C887 C890 1.499 . S
C888 H868 0.950 . S
C888 C887 1.414 . S
C888 C889 1.374 . S
C889 H869 0.950 . S
C889 C885 1.385 1_556 S
C889 C888 1.374 . S
C890 C887 1.499 . S
C890 C891 1.373 . S
C890 C892 1.389 . S
C891 H870 0.950 . S
C891 C890 1.373 . S
C891 C907 1.377 . S
C892 C890 1.389 . S
C892 C893 1.524 . S
C892 C906 1.377 . S
C893 C892 1.524 . S
C893 C894 1.397 . S
C893 C898 1.363 . S
C894 H871 0.950 . S
C894 C893 1.397 . S
C894 C895 1.334 . S
C895 H872 0.950 . S
C895 C894 1.334 . S
C895 C896 1.287 . S
C896 C895 1.287 . S
C896 C897 1.524 . S
C896 H915 0.913 . S
C897 H873 0.950 . S
C897 C896 1.524 . S
C897 C898 1.415 . S
C898 H874 0.950 . S
C898 C893 1.363 . S
C898 C897 1.415 . S
C899 H875 0.951 . S
C899 C900 1.366 . S
C899 C901 1.388 . S
C900 C899 1.366 . S
C900 C904 1.385 . S
C901 H876 0.951 . S
C901 C899 1.388 . S
C901 C902 1.366 . S
C902 C901 1.366 . S
C902 C903 1.414 . S
C902 C905 1.499 . S
C903 H877 0.950 . S
C903 C902 1.414 . S
C903 C904 1.374 . S
C904 H878 0.950 . S
C904 C900 1.385 . S
C904 C903 1.374 . S
C905 C902 1.499 . S
C905 C906 1.373 . S
C905 C907 1.389 . S
C906 H879 0.950 . S
C906 C892 1.377 . S
C906 C905 1.373 . S
C907 C891 1.377 . S
C907 C905 1.389 . S
C907 C908 1.524 . S
C908 C907 1.524 . S
C908 C909 1.397 . S
C908 C913 1.363 . S
C909 H880 0.950 . S
C909 C908 1.397 . S
C909 C910 1.334 . S
C910 H881 0.950 . S
C910 C909 1.334 . S
C910 C911 1.287 . S
C911 C910 1.287 . S
C911 C912 1.524 . S
C911 H914 0.999 . S
C912 H882 0.950 . S
C912 C911 1.524 . S
C912 C913 1.415 . S
C913 H883 0.950 . S
C913 C908 1.363 . S
C913 C912 1.415 . S
H914 C911 0.999 . S
H915 C896 0.913 . S
H916 C934 0.951 . S
H917 C936 0.951 . S
H918 C938 0.950 . S
H919 C939 0.950 1_556 S
H920 C941 0.950 . S
H921 C944 0.950 . S
H922 C945 0.950 . S
H923 C947 0.950 . S
H924 C948 0.950 . S
H925 C949 0.951 . S
H926 C951 0.951 . S
H927 C953 0.950 . S
H928 C954 0.950 . S
H929 C956 0.950 . S
H930 C959 0.950 . S
H931 C960 0.950 . S
H932 C962 0.950 . S
H933 C963 0.950 . S
C934 H916 0.951 . S
C934 C935 1.366 . S
C934 C936 1.388 . S
C935 C934 1.366 . S
C935 C939 1.385 . S
C936 H917 0.951 . S
C936 C934 1.388 . S
C936 C937 1.366 1_554 S
C937 C936 1.366 1_556 S
C937 C938 1.414 . S
C937 C940 1.499 . S
C938 H918 0.950 . S
C938 C937 1.414 . S
C938 C939 1.374 1_556 S
C939 H919 0.950 1_554 S
C939 C935 1.385 . S
C939 C938 1.374 1_554 S
C940 C937 1.499 . S
C940 C941 1.373 . S
C940 C942 1.389 . S
C941 H920 0.950 . S
C941 C940 1.373 . S
C941 C957 1.377 . S
C942 C940 1.389 . S
C942 C943 1.524 . S
C942 C956 1.377 . S
C943 C942 1.524 . S
C943 C944 1.397 . S
C943 C948 1.363 1_556 S
C944 H921 0.950 . S
C944 C943 1.397 . S
C944 C945 1.334 1_556 S
C945 H922 0.950 . S
C945 C944 1.334 1_554 S
C945 C946 1.287 . S
C946 C945 1.287 . S
C946 C947 1.524 . S
C946 H965 0.913 . S
C947 H923 0.950 . S
C947 C946 1.524 . S
C947 C948 1.415 . S
C948 H924 0.950 . S
C948 C943 1.363 1_554 S
C948 C947 1.415 . S
C949 H925 0.951 . S
C949 C950 1.366 . S
C949 C951 1.388 . S
C950 C949 1.366 . S
C950 C954 1.385 . S
C951 H926 0.951 . S
C951 C949 1.388 . S
C951 C952 1.366 . S
C952 C951 1.366 . S
C952 C953 1.414 . S
C952 C955 1.499 . S
C953 H927 0.950 . S
C953 C952 1.414 . S
C953 C954 1.374 . S
C954 H928 0.950 . S
C954 C950 1.385 . S
C954 C953 1.374 . S
C955 C952 1.499 . S
C955 C956 1.373 . S
C955 C957 1.389 . S
C956 H929 0.950 . S
C956 C942 1.377 . S
C956 C955 1.373 . S
C957 C941 1.377 . S
C957 C955 1.389 . S
C957 C958 1.524 . S
C958 C957 1.524 . S
C958 C959 1.397 . S
C958 C963 1.363 . S
C959 H930 0.950 . S
C959 C958 1.397 . S
C959 C960 1.334 . S
C960 H931 0.950 . S
C960 C959 1.334 . S
C960 C961 1.287 . S
C961 C960 1.287 . S
C961 C962 1.524 . S
C961 H964 0.999 . S
C962 H932 0.950 . S
C962 C961 1.524 . S
C962 C963 1.415 . S
C963 H933 0.950 . S
C963 C958 1.363 . S
C963 C962 1.415 . S
H964 C961 0.999 . S
H965 C946 0.913 . S
H966 C984 0.951 . S
H967 C986 0.951 . S
H968 C988 0.950 . S
H969 C989 0.950 . S
H970 C991 0.950 . S
H971 C994 0.950 . S
H972 C995 0.950 . S
H973 C997 0.950 . S
H974 C998 0.950 1_455 S
H975 C999 0.951 . S
H976 C1001 0.951 . S
H977 C1003 0.950 1_455 S
H978 C1004 0.904 1_455 S
H979 C1006 0.950 . S
H980 C1009 0.950 . S
H981 C1010 0.950 . S
H982 C1012 0.950 . S
H983 C1013 0.950 . S
C984 H966 0.951 . S
C984 C985 1.366 . S
C984 C986 1.388 . S
C985 C984 1.366 . S
C985 C989 1.385 . S
C986 H967 0.951 . S
C986 C984 1.388 . S
C986 C987 1.366 . S
C987 C986 1.366 . S
C987 C988 1.414 . S
C987 C990 1.499 . S
C988 H968 0.950 . S
C988 C987 1.414 . S
C988 C989 1.374 . S
C989 H969 0.950 . S
C989 C985 1.385 . S
C989 C988 1.374 . S
C990 C987 1.499 . S
C990 C991 1.373 . S
C990 C992 1.389 . S
C991 H970 0.950 . S
C991 C990 1.373 . S
C991 C1007 1.377 . S
C992 C990 1.389 . S
C992 C993 1.524 . S
C992 C1006 1.377 . S
C993 C992 1.524 . S
C993 C994 1.397 . S
C993 C998 1.363 . S
C994 H971 0.950 . S
C994 C993 1.397 . S
C994 C995 1.334 . S
C995 H972 0.950 . S
C995 C994 1.334 . S
C995 C996 1.287 . S
C996 C995 1.287 . S
C996 C997 1.524 1_655 S
C996 H1015 0.913 . S
C997 H973 0.950 . S
C997 C996 1.524 1_455 S
C997 C998 1.415 1_455 S
C998 H974 0.950 1_655 S
C998 C993 1.363 . S
C998 C997 1.415 1_655 S
C999 H975 0.951 . S
C999 C1000 1.366 . S
C999 C1001 1.388 . S
C1000 C999 1.366 . S
C1000 C1004 1.414 . S
C1001 H976 0.951 . S
C1001 C999 1.388 . S
C1001 C1002 1.366 . S
C1002 C1001 1.366 . S
C1002 C1003 1.414 . S
C1002 C1005 1.499 . S
C1003 H977 0.950 1_655 S
C1003 C1002 1.414 . S
C1003 C1004 1.391 . S
C1004 H978 0.904 1_655 S
C1004 C1000 1.414 . S
C1004 C1003 1.391 . S
C1005 C1002 1.499 . S
C1005 C1006 1.373 . S
C1005 C1007 1.389 . S
C1006 H979 0.950 . S
C1006 C992 1.377 . S
C1006 C1005 1.373 . S
C1007 C991 1.377 . S
C1007 C1005 1.389 . S
C1007 C1008 1.524 . S
C1008 C1007 1.524 . S
C1008 C1009 1.397 . S
C1008 C1013 1.363 . S
C1009 H980 0.950 . S
C1009 C1008 1.397 . S
C1009 C1010 1.334 . S
C1010 H981 0.950 . S
C1010 C1009 1.334 . S
C1010 C1011 1.287 . S
C1011 C1010 1.287 . S
C1011 C1012 1.524 . S
C1011 H1014 0.999 . S
C1012 H982 0.950 . S
C1012 C1011 1.524 . S
C1012 C1013 1.415 . S
C1013 H983 0.950 . S
C1013 C1008 1.363 . S
C1013 C1012 1.415 . S
H1014 C1011 0.999 . S
H1015 C996 0.913 . S
H1016 C1034 0.951 . S
H1017 C1036 0.951 . S
H1018 C1038 0.950 . S
H1019 C1039 0.950 . S
H1020 C1041 0.950 . S
H1021 C1044 0.950 . S
H1022 C1045 0.950 . S
H1023 C1047 0.950 . S
H1024 C1048 0.950 . S
H1025 C1049 0.951 . S
H1026 C1051 0.951 . S
H1027 C1053 0.950 . S
H1028 C1054 0.950 1_655 S
H1029 C1056 0.950 . S
H1030 C1059 0.950 . S
H1031 C1060 0.950 . S
H1032 C1062 0.950 . S
H1033 C1063 0.950 . S
C1034 H1016 0.951 . S
C1034 C1035 1.366 . S
C1034 C1036 1.388 . S
C1035 C1034 1.366 . S
C1035 C1039 1.385 . S
C1036 H1017 0.951 . S
C1036 C1034 1.388 . S
C1036 C1037 1.366 . S
C1037 C1036 1.366 . S
C1037 C1038 1.414 . S
C1037 C1040 1.499 . S
C1038 H1018 0.950 . S
C1038 C1037 1.414 . S
C1038 C1039 1.374 . S
C1039 H1019 0.950 . S
C1039 C1035 1.385 . S
C1039 C1038 1.374 . S
C1040 C1037 1.499 . S
C1040 C1041 1.373 . S
C1040 C1042 1.389 . S
C1041 H1020 0.950 . S
C1041 C1040 1.373 . S
C1041 C1057 1.377 . S
C1042 C1040 1.389 . S
C1042 C1043 1.524 . S
C1042 C1056 1.377 . S
C1043 C1042 1.524 . S
C1043 C1044 1.397 . S
C1043 C1048 1.363 . S
C1044 H1021 0.950 . S
C1044 C1043 1.397 . S
C1044 C1045 1.334 . S
C1045 H1022 0.950 . S
C1045 C1044 1.334 . S
C1045 C1046 1.287 . S
C1046 C1045 1.287 . S
C1046 C1047 1.524 . S
C1046 H1065 0.913 . S
C1047 H1023 0.950 . S
C1047 C1046 1.524 . S
C1047 C1048 1.415 . S
C1048 H1024 0.950 . S
C1048 C1043 1.363 . S
C1048 C1047 1.415 . S
C1049 H1025 0.951 . S
C1049 C1050 1.366 . S
C1049 C1051 1.388 . S
C1050 C1049 1.366 . S
C1050 C1054 1.385 . S
C1051 H1026 0.951 . S
C1051 C1049 1.388 . S
C1051 C1052 1.366 . S
C1052 C1051 1.366 . S
C1052 C1053 1.414 . S
C1052 C1055 1.499 . S
C1053 H1027 0.950 . S
C1053 C1052 1.414 . S
C1053 C1054 1.374 . S
C1054 H1028 0.950 1_455 S
C1054 C1050 1.385 . S
C1054 C1053 1.374 . S
C1055 C1052 1.499 . S
C1055 C1056 1.373 . S
C1055 C1057 1.389 . S
C1056 H1029 0.950 . S
C1056 C1042 1.377 . S
C1056 C1055 1.373 . S
C1057 C1041 1.377 . S
C1057 C1055 1.389 . S
C1057 C1058 1.524 . S
C1058 C1057 1.524 . S
C1058 C1059 1.397 . S
C1058 C1063 1.363 . S
C1059 H1030 0.950 . S
C1059 C1058 1.397 . S
C1059 C1060 1.334 . S
C1060 H1031 0.950 . S
C1060 C1059 1.334 . S
C1060 C1061 1.287 . S
C1061 C1060 1.287 . S
C1061 C1062 1.524 . S
C1061 H1064 0.999 . S
C1062 H1032 0.950 . S
C1062 C1061 1.524 . S
C1062 C1063 1.415 . S
C1063 H1033 0.950 . S
C1063 C1058 1.363 . S
C1063 C1062 1.415 . S
H1064 C1061 0.999 . S
H1065 C1046 0.913 . S
H1066 C1084 0.951 . S
H1067 C1086 0.951 . S
H1068 C1088 0.950 . S
H1069 C1089 0.950 . S
H1070 C1091 0.950 . S
H1071 C1094 0.950 . S
H1072 C1095 0.950 . S
H1073 C1097 0.950 . S
H1074 C1098 0.950 . S
H1075 C1099 0.951 . S
H1076 C1101 0.951 . S
H1077 C1103 0.950 . S
H1078 C1104 0.950 . S
H1079 C1106 0.950 . S
H1080 C1109 0.950 . S
H1081 C1110 0.950 . S
H1082 C1112 0.950 . S
H1083 C1113 0.950 . S
C1084 H1066 0.951 . S
C1084 C1085 1.375 . S
C1084 C1086 1.388 . S
C1085 C1084 1.375 . S
C1085 C1089 1.374 1_545 S
C1086 H1067 0.951 . S
C1086 C1084 1.388 . S
C1086 C1087 1.357 1_545 S
C1087 C1086 1.357 1_565 S
C1087 C1088 1.423 . S
C1087 C1090 1.502 . S
C1088 H1068 0.950 . S
C1088 C1087 1.423 . S
C1088 C1089 1.374 . S
C1089 H1069 0.950 . S
C1089 C1085 1.374 1_565 S
C1089 C1088 1.374 . S
C1090 C1087 1.502 . S
C1090 C1091 1.373 . S
C1090 C1092 1.389 1_565 S
C1091 H1070 0.950 . S
C1091 C1090 1.373 . S
C1091 C1107 1.377 . S
C1092 C1090 1.389 1_545 S
C1092 C1093 1.524 . S
C1092 C1106 1.377 . S
C1093 C1092 1.524 . S
C1093 C1094 1.397 . S
C1093 C1098 1.363 . S
C1094 H1071 0.950 . S
C1094 C1093 1.397 . S
C1094 C1095 1.334 . S
C1095 H1072 0.950 . S
C1095 C1094 1.334 . S
C1095 C1096 1.287 . S
C1096 C1095 1.287 . S
C1096 C1097 1.524 . S
C1096 H1115 0.913 . S
C1097 H1073 0.950 . S
C1097 C1096 1.524 . S
C1097 C1098 1.415 . S
C1098 H1074 0.950 . S
C1098 C1093 1.363 . S
C1098 C1097 1.415 . S
C1099 H1075 0.951 . S
C1099 C1100 1.366 . S
C1099 C1101 1.388 . S
C1100 C1099 1.366 . S
C1100 C1104 1.385 . S
C1101 H1076 0.951 . S
C1101 C1099 1.388 . S
C1101 C1102 1.366 . S
C1102 C1101 1.366 . S
C1102 C1103 1.414 . S
C1102 C1105 1.499 . S
C1103 H1077 0.950 . S
C1103 C1102 1.414 . S
C1103 C1104 1.374 . S
C1104 H1078 0.950 . S
C1104 C1100 1.385 . S
C1104 C1103 1.374 . S
C1105 C1102 1.499 . S
C1105 C1106 1.373 1_565 S
C1105 C1107 1.389 . S
C1106 H1079 0.950 . S
C1106 C1092 1.377 . S
C1106 C1105 1.373 1_545 S
C1107 C1091 1.377 . S
C1107 C1105 1.389 . S
C1107 C1108 1.524 . S
C1108 C1107 1.524 . S
C1108 C1109 1.397 . S
C1108 C1113 1.363 . S
C1109 H1080 0.950 . S
C1109 C1108 1.397 . S
C1109 C1110 1.334 . S
C1110 H1081 0.950 . S
C1110 C1109 1.334 . S
C1110 C1111 1.287 . S
C1111 C1110 1.287 . S
C1111 C1112 1.524 . S
C1111 H1114 0.999 . S
C1112 H1082 0.950 . S
C1112 C1111 1.524 . S
C1112 C1113 1.415 . S
C1113 H1083 0.950 . S
C1113 C1108 1.363 . S
C1113 C1112 1.415 . S
H1114 C1111 0.999 . S
H1115 C1096 0.913 . S
H1116 C1134 0.951 . S
H1117 C1136 0.951 . S
H1118 C1138 0.950 . S
H1119 C1139 0.950 . S
H1120 C1141 0.950 . S
H1121 C1144 0.950 . S
H1122 C1145 0.950 . S
H1123 C1147 0.950 . S
H1124 C1148 0.950 . S
H1125 C1149 0.951 . S
H1126 C1151 0.951 . S
H1127 C1153 0.950 . S
H1128 C1154 0.950 . S
H1129 C1156 0.950 . S
H1130 C1159 0.950 . S
H1131 C1160 0.950 . S
H1132 C1162 0.950 . S
H1133 C1163 0.950 . S
C1134 H1116 0.951 . S
C1134 C1135 1.366 . S
C1134 C1136 1.388 . S
C1135 C1134 1.366 . S
C1135 C1139 1.385 . S
C1136 H1117 0.951 . S
C1136 C1134 1.388 . S
C1136 C1137 1.366 . S
C1137 C1136 1.366 . S
C1137 C1138 1.414 . S
C1137 C1140 1.499 . S
C1138 H1118 0.950 . S
C1138 C1137 1.414 . S
C1138 C1139 1.374 . S
C1139 H1119 0.950 . S
C1139 C1135 1.385 . S
C1139 C1138 1.374 . S
C1140 C1137 1.499 . S
C1140 C1141 1.373 . S
C1140 C1142 1.389 . S
C1141 H1120 0.950 . S
C1141 C1140 1.373 . S
C1141 C1157 1.377 . S
C1142 C1140 1.389 . S
C1142 C1143 1.524 . S
C1142 C1156 1.377 . S
C1143 C1142 1.524 . S
C1143 C1144 1.397 . S
C1143 C1148 1.363 . S
C1144 H1121 0.950 . S
C1144 C1143 1.397 . S
C1144 C1145 1.334 . S
C1145 H1122 0.950 . S
C1145 C1144 1.334 . S
C1145 C1146 1.287 . S
C1146 C1145 1.287 . S
C1146 C1147 1.524 . S
C1146 H1165 0.913 . S
C1147 H1123 0.950 . S
C1147 C1146 1.524 . S
C1147 C1148 1.415 . S
C1148 H1124 0.950 . S
C1148 C1143 1.363 . S
C1148 C1147 1.415 . S
C1149 H1125 0.951 . S
C1149 C1150 1.366 . S
C1149 C1151 1.388 . S
C1150 C1149 1.366 . S
C1150 C1154 1.385 . S
C1151 H1126 0.951 . S
C1151 C1149 1.388 . S
C1151 C1152 1.366 . S
C1152 C1151 1.366 . S
C1152 C1153 1.414 . S
C1152 C1155 1.499 . S
C1153 H1127 0.950 . S
C1153 C1152 1.414 . S
C1153 C1154 1.374 . S
C1154 H1128 0.950 . S
C1154 C1150 1.385 . S
C1154 C1153 1.374 . S
C1155 C1152 1.499 . S
C1155 C1156 1.373 . S
C1155 C1157 1.389 . S
C1156 H1129 0.950 . S
C1156 C1142 1.377 . S
C1156 C1155 1.373 . S
C1157 C1141 1.377 . S
C1157 C1155 1.389 . S
C1157 C1158 1.524 . S
C1158 C1157 1.524 . S
C1158 C1159 1.397 . S
C1158 C1163 1.363 . S
C1159 H1130 0.950 . S
C1159 C1158 1.397 . S
C1159 C1160 1.334 . S
C1160 H1131 0.950 . S
C1160 C1159 1.334 . S
C1160 C1161 1.287 . S
C1161 C1160 1.287 . S
C1161 C1162 1.524 . S
C1161 H1164 0.999 . S
C1162 H1132 0.950 . S
C1162 C1161 1.524 . S
C1162 C1163 1.415 . S
C1163 H1133 0.950 . S
C1163 C1158 1.363 . S
C1163 C1162 1.415 . S
H1164 C1161 0.999 . S
H1165 C1146 0.913 . S
H1166 C1184 0.951 . S
H1167 C1186 0.951 . S
H1168 C1188 0.950 . S
H1169 C1189 0.950 . S
H1170 C1191 0.950 . S
H1171 C1194 0.950 . S
H1172 C1195 0.950 . S
H1173 C1197 0.950 . S
H1174 C1198 0.950 . S
H1175 C1199 0.951 . S
H1176 C1201 0.951 . S
H1177 C1203 0.950 . S
H1178 C1204 0.950 . S
H1179 C1206 0.950 . S
H1180 C1209 0.950 . S
H1181 C1210 0.950 . S
H1182 C1212 0.950 . S
H1183 C1213 0.950 . S
C1184 H1166 0.951 . S
C1184 C1185 1.366 . S
C1184 C1186 1.388 . S
C1185 C1184 1.366 . S
C1185 C1189 1.385 . S
C1186 H1167 0.951 . S
C1186 C1184 1.388 . S
C1186 C1187 1.366 . S
C1187 C1186 1.366 . S
C1187 C1188 1.414 . S
C1187 C1190 1.499 . S
C1188 H1168 0.950 . S
C1188 C1187 1.414 . S
C1188 C1189 1.374 . S
C1189 H1169 0.950 . S
C1189 C1185 1.385 . S
C1189 C1188 1.374 . S
C1190 C1187 1.499 . S
C1190 C1191 1.373 . S
C1190 C1192 1.389 . S
C1191 H1170 0.950 . S
C1191 C1190 1.373 . S
C1191 C1207 1.377 . S
C1192 C1190 1.389 . S
C1192 C1193 1.524 . S
C1192 C1206 1.377 . S
C1193 C1192 1.524 . S
C1193 C1194 1.397 . S
C1193 C1198 1.363 . S
C1194 H1171 0.950 . S
C1194 C1193 1.397 . S
C1194 C1195 1.334 . S
C1195 H1172 0.950 . S
C1195 C1194 1.334 . S
C1195 C1196 1.287 . S
C1196 C1195 1.287 . S
C1196 C1197 1.524 . S
C1196 H1215 0.913 . S
C1197 H1173 0.950 . S
C1197 C1196 1.524 . S
C1197 C1198 1.415 . S
C1198 H1174 0.950 . S
C1198 C1193 1.363 . S
C1198 C1197 1.415 . S
C1199 H1175 0.951 . S
C1199 C1200 1.366 . S
C1199 C1201 1.388 . S
C1200 C1199 1.366 . S
C1200 C1204 1.385 . S
C1201 H1176 0.951 . S
C1201 C1199 1.388 . S
C1201 C1202 1.366 . S
C1202 C1201 1.366 . S
C1202 C1203 1.414 . S
C1202 C1205 1.499 . S
C1203 H1177 0.950 . S
C1203 C1202 1.414 . S
C1203 C1204 1.374 . S
C1204 H1178 0.950 . S
C1204 C1200 1.385 . S
C1204 C1203 1.374 . S
C1205 C1202 1.499 . S
C1205 C1206 1.373 . S
C1205 C1207 1.389 . S
C1206 H1179 0.950 . S
C1206 C1192 1.377 . S
C1206 C1205 1.373 . S
C1207 C1191 1.377 . S
C1207 C1205 1.389 . S
C1207 C1208 1.524 . S
C1208 C1207 1.524 . S
C1208 C1209 1.397 . S
C1208 C1213 1.363 . S
C1209 H1180 0.950 . S
C1209 C1208 1.397 . S
C1209 C1210 1.334 . S
C1210 H1181 0.950 . S
C1210 C1209 1.334 . S
C1210 C1211 1.287 . S
C1211 C1210 1.287 . S
C1211 C1212 1.524 . S
C1211 H1214 0.999 . S
C1212 H1182 0.950 . S
C1212 C1211 1.524 . S
C1212 C1213 1.415 . S
C1213 H1183 0.950 . S
C1213 C1208 1.363 . S
C1213 C1212 1.415 . S
H1214 C1211 0.999 . S
H1215 C1196 0.913 . S
H1216 C1234 0.951 . S
H1217 C1236 0.951 . S
H1218 C1238 0.950 . S
H1219 C1239 0.950 . S
H1220 C1241 0.950 . S
H1221 C1244 0.950 . S
H1222 C1245 0.950 . S
H1223 C1247 0.950 . S
H1224 C1248 0.950 . S
H1225 C1249 0.951 . S
H1226 C1251 0.951 . S
H1227 C1253 0.950 . S
H1228 C1254 0.950 . S
H1229 C1256 0.950 . S
H1230 C1259 0.950 . S
H1231 C1260 0.950 . S
H1232 C1262 0.950 . S
H1233 C1263 0.950 . S
C1234 H1216 0.951 . S
C1234 C1235 1.366 . S
C1234 C1236 1.388 . S
C1235 C1234 1.366 . S
C1235 C1239 1.385 . S
C1236 H1217 0.951 . S
C1236 C1234 1.388 . S
C1236 C1237 1.366 . S
C1237 C1236 1.366 . S
C1237 C1238 1.414 . S
C1237 C1240 1.499 . S
C1238 H1218 0.950 . S
C1238 C1237 1.414 . S
C1238 C1239 1.374 . S
C1239 H1219 0.950 . S
C1239 C1235 1.385 . S
C1239 C1238 1.374 . S
C1240 C1237 1.499 . S
C1240 C1241 1.373 . S
C1240 C1242 1.389 . S
C1241 H1220 0.950 . S
C1241 C1240 1.373 . S
C1241 C1257 1.377 . S
C1242 C1240 1.389 . S
C1242 C1243 1.524 . S
C1242 C1256 1.377 . S
C1243 C1242 1.524 . S
C1243 C1244 1.397 . S
C1243 C1248 1.363 . S
C1244 H1221 0.950 . S
C1244 C1243 1.397 . S
C1244 C1245 1.334 . S
C1245 H1222 0.950 . S
C1245 C1244 1.334 . S
C1245 C1246 1.287 . S
C1246 C1245 1.287 . S
C1246 C1247 1.524 . S
C1246 H1265 0.913 . S
C1247 H1223 0.950 . S
C1247 C1246 1.524 . S
C1247 C1248 1.415 . S
C1248 H1224 0.950 . S
C1248 C1243 1.363 . S
C1248 C1247 1.415 . S
C1249 H1225 0.951 . S
C1249 C1250 1.366 . S
C1249 C1251 1.388 . S
C1250 C1249 1.366 . S
C1250 C1254 1.385 . S
C1251 H1226 0.951 . S
C1251 C1249 1.388 . S
C1251 C1252 1.366 1_455 S
C1252 C1251 1.366 1_655 S
C1252 C1253 1.414 . S
C1252 C1255 1.499 . S
C1253 H1227 0.950 . S
C1253 C1252 1.414 . S
C1253 C1254 1.374 1_655 S
C1254 H1228 0.950 . S
C1254 C1250 1.385 . S
C1254 C1253 1.374 1_455 S
C1255 C1252 1.499 . S
C1255 C1256 1.373 . S
C1255 C1257 1.389 . S
C1256 H1229 0.950 . S
C1256 C1242 1.377 . S
C1256 C1255 1.373 . S
C1257 C1241 1.377 . S
C1257 C1255 1.389 . S
C1257 C1258 1.524 1_655 S
C1258 C1257 1.524 1_455 S
C1258 C1259 1.397 . S
C1258 C1263 1.363 . S
C1259 H1230 0.950 . S
C1259 C1258 1.397 . S
C1259 C1260 1.334 . S
C1260 H1231 0.950 . S
C1260 C1259 1.334 . S
C1260 C1261 1.287 . S
C1261 C1260 1.287 . S
C1261 C1262 1.524 . S
C1261 H1264 0.999 . S
C1262 H1232 0.950 . S
C1262 C1261 1.524 . S
C1262 C1263 1.415 . S
C1263 H1233 0.950 . S
C1263 C1258 1.363 . S
C1263 C1262 1.415 . S
H1264 C1261 0.999 . S
H1265 C1246 0.913 . S
H1266 C1284 0.951 . S
H1267 C1286 0.951 . S
H1268 C1288 0.950 . S
H1269 C1289 0.950 . S
H1270 C1291 0.950 . S
H1271 C1294 0.950 . S
H1272 C1295 0.950 . S
H1273 C1297 0.950 . S
H1274 C1298 0.950 . S
H1275 C1299 0.946 1_565 S
H1276 C1301 0.951 . S
H1277 C1303 0.950 . S
H1278 C1304 0.950 . S
H1279 C1306 0.950 . S
H1280 C1309 0.950 . S
H1281 C1310 0.950 . S
H1282 C1312 0.950 . S
H1283 C1313 0.950 . S
C1284 H1266 0.951 . S
C1284 C1285 1.351 1_545 S
C1284 C1286 1.388 . S
C1285 C1284 1.351 1_565 S
C1285 C1289 1.397 . S
C1286 H1267 0.951 . S
C1286 C1284 1.388 . S
C1286 C1287 1.366 . S
C1287 C1286 1.366 . S
C1287 C1288 1.414 1_545 S
C1287 C1290 1.499 . S
C1288 H1268 0.950 . S
C1288 C1287 1.414 1_565 S
C1288 C1289 1.374 . S
C1289 H1269 0.950 . S
C1289 C1285 1.397 . S
C1289 C1288 1.374 . S
C1290 C1287 1.499 . S
C1290 C1291 1.373 1_545 S
C1290 C1292 1.389 . S
C1291 H1270 0.950 . S
C1291 C1290 1.373 1_565 S
C1291 C1307 1.377 . S
C1292 C1290 1.389 . S
C1292 C1293 1.524 . S
C1292 C1306 1.377 . S
C1293 C1292 1.524 . S
C1293 C1294 1.397 . S
C1293 C1298 1.363 . S
C1294 H1271 0.950 . S
C1294 C1293 1.397 . S
C1294 C1295 1.334 . S
C1295 H1272 0.950 . S
C1295 C1294 1.334 . S
C1295 C1296 1.287 . S
C1296 C1295 1.287 . S
C1296 C1297 1.524 . S
C1296 H1315 0.913 . S
C1297 H1273 0.950 . S
C1297 C1296 1.524 . S
C1297 C1298 1.415 . S
C1298 H1274 0.950 . S
C1298 C1293 1.363 . S
C1298 C1297 1.415 . S
C1299 H1275 0.946 1_545 S
C1299 C1300 1.371 . S
C1299 C1301 1.387 1_545 S
C1300 C1299 1.371 . S
C1300 C1304 1.385 . S
C1301 H1276 0.951 . S
C1301 C1299 1.387 1_565 S
C1301 C1302 1.366 1_565 S
C1302 C1301 1.366 1_545 S
C1302 C1303 1.414 . S
C1302 C1305 1.499 . S
C1303 H1277 0.950 . S
C1303 C1302 1.414 . S
C1303 C1304 1.374 . S
C1304 H1278 0.950 . S
C1304 C1300 1.385 . S
C1304 C1303 1.374 . S
C1305 C1302 1.499 . S
C1305 C1306 1.373 . S
C1305 C1307 1.389 1_545 S
C1306 H1279 0.950 . S
C1306 C1292 1.377 . S
C1306 C1305 1.373 . S
C1307 C1291 1.377 . S
C1307 C1305 1.389 1_565 S
C1307 C1308 1.524 . S
C1308 C1307 1.524 . S
C1308 C1309 1.397 . S
C1308 C1313 1.363 . S
C1309 H1280 0.950 . S
C1309 C1308 1.397 . S
C1309 C1310 1.334 . S
C1310 H1281 0.950 . S
C1310 C1309 1.334 . S
C1310 C1311 1.287 . S
C1311 C1310 1.287 . S
C1311 C1312 1.524 . S
C1311 H1314 0.999 . S
C1312 H1282 0.950 . S
C1312 C1311 1.524 . S
C1312 C1313 1.415 . S
C1313 H1283 0.950 . S
C1313 C1308 1.363 . S
C1313 C1312 1.415 . S
H1314 C1311 0.999 . S
H1315 C1296 0.913 . S
H1316 C1334 0.951 . S
H1317 C1336 0.951 . S
H1318 C1338 0.950 . S
H1319 C1339 0.950 . S
H1320 C1341 0.950 . S
H1321 C1344 0.950 . S
H1322 C1345 0.950 . S
H1323 C1347 0.950 . S
H1324 C1348 0.950 . S
H1325 C1349 0.951 . S
H1326 C1351 0.951 . S
H1327 C1353 0.950 . S
H1328 C1354 0.950 . S
H1329 C1356 0.950 . S
H1330 C1359 0.950 . S
H1331 C1360 0.950 . S
H1332 C1362 0.950 . S
H1333 C1363 0.950 . S
C1334 H1316 0.951 . S
C1334 C1335 1.366 . S
C1334 C1336 1.388 . S
C1335 C1334 1.366 . S
C1335 C1339 1.385 . S
C1336 H1317 0.951 . S
C1336 C1334 1.388 . S
C1336 C1337 1.366 . S
C1337 C1336 1.366 . S
C1337 C1338 1.414 . S
C1337 C1340 1.499 . S
C1338 H1318 0.950 . S
C1338 C1337 1.414 . S
C1338 C1339 1.374 . S
C1339 H1319 0.950 . S
C1339 C1335 1.385 . S
C1339 C1338 1.374 . S
C1340 C1337 1.499 . S
C1340 C1341 1.373 . S
C1340 C1342 1.389 . S
C1341 H1320 0.950 . S
C1341 C1340 1.373 . S
C1341 C1357 1.377 . S
C1342 C1340 1.389 . S
C1342 C1343 1.524 . S
C1342 C1356 1.377 . S
C1343 C1342 1.524 . S
C1343 C1344 1.397 . S
C1343 C1348 1.363 . S
C1344 H1321 0.950 . S
C1344 C1343 1.397 . S
C1344 C1345 1.334 . S
C1345 H1322 0.950 . S
C1345 C1344 1.334 . S
C1345 C1346 1.287 . S
C1346 C1345 1.287 . S
C1346 C1347 1.524 . S
C1346 H1365 0.913 . S
C1347 H1323 0.950 . S
C1347 C1346 1.524 . S
C1347 C1348 1.415 . S
C1348 H1324 0.950 . S
C1348 C1343 1.363 . S
C1348 C1347 1.415 . S
C1349 H1325 0.951 . S
C1349 C1350 1.366 . S
C1349 C1351 1.388 . S
C1350 C1349 1.366 . S
C1350 C1354 1.385 . S
C1351 H1326 0.951 . S
C1351 C1349 1.388 . S
C1351 C1352 1.366 . S
C1352 C1351 1.366 . S
C1352 C1353 1.414 . S
C1352 C1355 1.499 . S
C1353 H1327 0.950 . S
C1353 C1352 1.414 . S
C1353 C1354 1.374 . S
C1354 H1328 0.950 . S
C1354 C1350 1.385 . S
C1354 C1353 1.374 . S
C1355 C1352 1.499 . S
C1355 C1356 1.373 . S
C1355 C1357 1.389 . S
C1356 H1329 0.950 . S
C1356 C1342 1.377 . S
C1356 C1355 1.373 . S
C1357 C1341 1.377 . S
C1357 C1355 1.389 . S
C1357 C1358 1.524 . S
C1358 C1357 1.524 . S
C1358 C1359 1.397 . S
C1358 C1363 1.363 . S
C1359 H1330 0.950 . S
C1359 C1358 1.397 . S
C1359 C1360 1.334 . S
C1360 H1331 0.950 . S
C1360 C1359 1.334 . S
C1360 C1361 1.287 . S
C1361 C1360 1.287 . S
C1361 C1362 1.524 . S
C1361 H1364 0.999 . S
C1362 H1332 0.950 . S
C1362 C1361 1.524 . S
C1362 C1363 1.415 . S
C1363 H1333 0.950 . S
C1363 C1358 1.363 . S
C1363 C1362 1.415 . S
H1364 C1361 0.999 . S
H1365 C1346 0.913 . S
H1366 C1384 0.951 1_554 S
H1367 C1386 0.951 . S
H1368 C1388 0.950 . S
H1369 C1389 0.950 . S
H1370 C1391 0.950 . S
H1371 C1394 0.950 . S
H1372 C1395 0.950 . S
H1373 C1397 0.950 . S
H1374 C1398 0.950 . S
H1375 C1399 0.951 . S
H1376 C1401 0.951 . S
H1377 C1403 0.950 . S
H1378 C1404 0.950 1_455 S
H1379 C1406 0.950 . S
H1380 C1409 0.950 . S
H1381 C1410 0.950 . S
H1382 C1412 0.950 . S
H1383 C1413 0.950 . S
C1384 H1366 0.951 1_556 S
C1384 C1385 1.366 . S
C1384 C1386 1.388 . S
C1385 C1384 1.366 . S
C1385 C1389 1.385 . S
C1386 H1367 0.951 . S
C1386 C1384 1.388 . S
C1386 C1387 1.366 . S
C1387 C1386 1.366 . S
C1387 C1388 1.414 . S
C1387 C1390 1.499 . S
C1388 H1368 0.950 . S
C1388 C1387 1.414 . S
C1388 C1389 1.374 . S
C1389 H1369 0.950 . S
C1389 C1385 1.385 . S
C1389 C1388 1.374 . S
C1390 C1387 1.499 . S
C1390 C1391 1.373 . S
C1390 C1392 1.389 . S
C1391 H1370 0.950 . S
C1391 C1390 1.373 . S
C1391 C1407 1.377 . S
C1392 C1390 1.389 . S
C1392 C1393 1.524 . S
C1392 C1406 1.377 . S
C1393 C1392 1.524 . S
C1393 C1394 1.397 . S
C1393 C1398 1.363 . S
C1394 H1371 0.950 . S
C1394 C1393 1.397 . S
C1394 C1395 1.334 1_556 S
C1395 H1372 0.950 . S
C1395 C1394 1.334 1_554 S
C1395 C1396 1.287 . S
C1396 C1395 1.287 . S
C1396 C1397 1.524 . S
C1396 H1415 0.913 . S
C1397 H1373 0.950 . S
C1397 C1396 1.524 . S
C1397 C1398 1.415 1_554 S
C1398 H1374 0.950 . S
C1398 C1393 1.363 . S
C1398 C1397 1.415 1_556 S
C1399 H1375 0.951 . S
C1399 C1400 1.366 . S
C1399 C1401 1.388 . S
C1400 C1399 1.366 . S
C1400 C1404 1.385 . S
C1401 H1376 0.951 . S
C1401 C1399 1.388 . S
C1401 C1402 1.366 . S
C1402 C1401 1.366 . S
C1402 C1403 1.414 . S
C1402 C1405 1.499 . S
C1403 H1377 0.950 . S
C1403 C1402 1.414 . S
C1403 C1404 1.374 . S
C1404 H1378 0.950 1_655 S
C1404 C1400 1.385 . S
C1404 C1403 1.374 . S
C1405 C1402 1.499 . S
C1405 C1406 1.373 . S
C1405 C1407 1.389 . S
C1406 H1379 0.950 . S
C1406 C1392 1.377 . S
C1406 C1405 1.373 . S
C1407 C1391 1.377 . S
C1407 C1405 1.389 . S
C1407 C1408 1.524 . S
C1408 C1407 1.524 . S
C1408 C1409 1.397 . S
C1408 C1413 1.363 . S
C1409 H1380 0.950 . S
C1409 C1408 1.397 . S
C1409 C1410 1.334 . S
C1410 H1381 0.950 . S
C1410 C1409 1.334 . S
C1410 C1411 1.287 . S
C1411 C1410 1.287 . S
C1411 C1412 1.524 . S
C1411 H1414 0.999 . S
C1412 H1382 0.950 . S
C1412 C1411 1.524 . S
C1412 C1413 1.415 . S
C1413 H1383 0.950 . S
C1413 C1408 1.363 . S
C1413 C1412 1.415 . S
H1414 C1411 0.999 . S
H1415 C1396 0.913 . S
H1416 C1434 0.951 . S
H1417 C1436 0.951 . S
H1418 C1438 0.950 . S
H1419 C1439 0.950 . S
H1420 C1441 0.954 . S
H1421 C1444 0.950 . S
H1422 C1445 0.950 . S
H1423 C1447 0.950 . S
H1424 C1448 0.950 . S
H1425 C1449 0.951 . S
H1426 C1451 0.951 . S
H1427 C1453 0.950 . S
H1428 C1454 0.950 . S
H1429 C1456 0.950 . S
H1430 C1459 0.950 . S
H1431 C1460 0.950 . S
H1432 C1462 0.950 . S
H1433 C1463 0.950 . S
C1434 H1416 0.951 . S
C1434 C1435 1.366 . S
C1434 C1436 1.388 . S
C1435 C1434 1.366 . S
C1435 C1439 1.385 . S
C1436 H1417 0.951 . S
C1436 C1434 1.388 . S
C1436 C1437 1.366 . S
C1437 C1436 1.366 . S
C1437 C1438 1.414 . S
C1437 C1440 1.499 . S
C1438 H1418 0.950 . S
C1438 C1437 1.414 . S
C1438 C1439 1.374 . S
C1439 H1419 0.950 . S
C1439 C1435 1.385 . S
C1439 C1438 1.374 . S
C1440 C1437 1.499 . S
C1440 C1441 1.362 1_554 S
C1440 C1442 1.389 . S
C1441 H1420 0.954 . S
C1441 C1440 1.362 1_556 S
C1441 C1457 1.384 . S
C1442 C1440 1.389 . S
C1442 C1443 1.524 . S
C1442 C1456 1.377 . S
C1443 C1442 1.524 . S
C1443 C1444 1.397 . S
C1443 C1448 1.363 . S
C1444 H1421 0.950 . S
C1444 C1443 1.397 . S
C1444 C1445 1.334 . S
C1445 H1422 0.950 . S
C1445 C1444 1.334 . S
C1445 C1446 1.287 . S
C1446 C1445 1.287 . S
C1446 C1447 1.524 . S
C1446 H1465 0.913 . S
C1447 H1423 0.950 . S
C1447 C1446 1.524 . S
C1447 C1448 1.415 . S
C1448 H1424 0.950 . S
C1448 C1443 1.363 . S
C1448 C1447 1.415 . S
C1449 H1425 0.951 . S
C1449 C1450 1.366 . S
C1449 C1451 1.388 . S
C1450 C1449 1.366 . S
C1450 C1454 1.385 . S
C1451 H1426 0.951 . S
C1451 C1449 1.388 . S
C1451 C1452 1.366 . S
C1452 C1451 1.366 . S
C1452 C1453 1.414 . S
C1452 C1455 1.499 . S
C1453 H1427 0.950 . S
C1453 C1452 1.414 . S
C1453 C1454 1.374 . S
C1454 H1428 0.950 . S
C1454 C1450 1.385 . S
C1454 C1453 1.374 . S
C1455 C1452 1.499 . S
C1455 C1456 1.373 1_556 S
C1455 C1457 1.389 . S
C1456 H1429 0.950 . S
C1456 C1442 1.377 . S
C1456 C1455 1.373 1_554 S
C1457 C1441 1.384 . S
C1457 C1455 1.389 . S
C1457 C1458 1.524 . S
C1458 C1457 1.524 . S
C1458 C1459 1.397 . S
C1458 C1463 1.363 . S
C1459 H1430 0.950 . S
C1459 C1458 1.397 . S
C1459 C1460 1.334 . S
C1460 H1431 0.950 . S
C1460 C1459 1.334 . S
C1460 C1461 1.287 . S
C1461 C1460 1.287 . S
C1461 C1462 1.524 . S
C1461 H1464 0.999 . S
C1462 H1432 0.950 . S
C1462 C1461 1.524 . S
C1462 C1463 1.415 . S
C1463 H1433 0.950 . S
C1463 C1458 1.363 . S
C1463 C1462 1.415 . S
H1464 C1461 0.999 . S
H1465 C1446 0.913 . S
H1466 C1484 0.951 . S
H1467 C1486 0.951 . S
H1468 C1488 0.950 . S
H1469 C1489 0.950 . S
H1470 C1491 0.950 1_554 S
H1471 C1494 0.950 . S
H1472 C1495 0.950 . S
H1473 C1497 0.950 1_545 S
H1474 C1498 0.950 . S
H1475 C1499 0.951 . S
H1476 C1501 0.951 . S
H1477 C1503 0.950 . S
H1478 C1504 0.950 . S
H1479 C1506 0.946 1_565 S
H1480 C1509 0.950 . S
H1481 C1510 0.950 . S
H1482 C1512 0.950 1_565 S
H1483 C1513 0.950 . S
C1484 H1466 0.951 . S
C1484 C1485 1.379 . S
C1484 C1486 1.388 1_554 S
C1485 C1484 1.379 . S
C1485 C1489 1.370 1_545 S
C1486 H1467 0.951 . S
C1486 C1484 1.388 1_556 S
C1486 C1487 1.375 . S
C1487 C1486 1.375 . S
C1487 C1488 1.405 1_546 S
C1487 C1490 1.498 . S
C1488 H1468 0.950 . S
C1488 C1487 1.405 1_564 S
C1488 C1489 1.374 . S
C1489 H1469 0.950 . S
C1489 C1485 1.370 1_565 S
C1489 C1488 1.374 . S
C1490 C1487 1.498 . S
C1490 C1491 1.375 . S
C1490 C1492 1.388 1_545 S
C1491 H1470 0.950 1_556 S
C1491 C1490 1.375 . S
C1491 C1507 1.377 . S
C1492 C1490 1.388 1_565 S
C1492 C1493 1.524 . S
C1492 C1506 1.376 1_565 S
C1493 C1492 1.524 . S
C1493 C1494 1.397 . S
C1493 C1498 1.363 1_565 S
C1494 H1471 0.950 . S
C1494 C1493 1.397 . S
C1494 C1495 1.334 . S
C1495 H1472 0.950 . S
C1495 C1494 1.334 . S
C1495 C1496 1.287 . S
C1496 C1495 1.287 . S
C1496 C1497 1.524 . S
C1496 H1515 0.913 . S
C1497 H1473 0.950 1_565 S
C1497 C1496 1.524 . S
C1497 C1498 1.415 1_565 S
C1498 H1474 0.950 . S
C1498 C1493 1.363 1_545 S
C1498 C1497 1.415 1_545 S
C1499 H1475 0.951 . S
C1499 C1500 1.366 1_565 S
C1499 C1501 1.388 . S
C1500 C1499 1.366 1_545 S
C1500 C1504 1.385 . S
C1501 H1476 0.951 . S
C1501 C1499 1.388 . S
C1501 C1502 1.366 1_565 S
C1502 C1501 1.366 1_545 S
C1502 C1503 1.414 . S
C1502 C1505 1.499 . S
C1503 H1477 0.950 . S
C1503 C1502 1.414 . S
C1503 C1504 1.374 . S
C1504 H1478 0.950 . S
C1504 C1500 1.385 . S
C1504 C1503 1.374 . S
C1505 C1502 1.499 . S
C1505 C1506 1.376 . S
C1505 C1507 1.389 . S
C1506 H1479 0.946 1_545 S
C1506 C1492 1.376 1_545 S
C1506 C1505 1.376 . S
C1507 C1491 1.377 . S
C1507 C1505 1.389 . S
C1507 C1508 1.524 . S
C1508 C1507 1.524 . S
C1508 C1509 1.397 . S
C1508 C1513 1.363 1_546 S
C1509 H1480 0.950 . S
C1509 C1508 1.397 . S
C1509 C1510 1.334 . S
C1510 H1481 0.950 . S
C1510 C1509 1.334 . S
C1510 C1511 1.287 1_556 S
C1511 C1510 1.287 1_554 S
C1511 C1512 1.524 . S
C1511 H1514 0.999 . S
C1512 H1482 0.950 1_545 S
C1512 C1511 1.524 . S
C1512 C1513 1.415 1_545 S
C1513 H1483 0.950 . S
C1513 C1508 1.363 1_564 S
C1513 C1512 1.415 1_565 S
H1514 C1511 0.999 . S
H1515 C1496 0.913 . S
H1516 C1534 0.951 . S
H1517 C1536 0.951 . S
H1518 C1538 0.950 . S
H1519 C1539 0.950 . S
H1520 C1541 0.950 1_554 S
H1521 C1544 0.950 . S
H1522 C1545 0.950 . S
H1523 C1547 0.950 . S
H1524 C1548 0.950 . S
H1525 C1549 0.951 . S
H1526 C1551 0.951 . S
H1527 C1553 0.950 . S
H1528 C1554 0.950 . S
H1529 C1556 0.950 . S
H1530 C1559 0.950 . S
H1531 C1560 0.950 . S
H1532 C1562 0.950 . S
H1533 C1563 0.950 . S
C1534 H1516 0.951 . S
C1534 C1535 1.366 . S
C1534 C1536 1.388 1_554 S
C1535 C1534 1.366 . S
C1535 C1539 1.385 . S
C1536 H1517 0.951 . S
C1536 C1534 1.388 1_556 S
C1536 C1537 1.366 . S
C1537 C1536 1.366 . S
C1537 C1538 1.414 1_556 S
C1537 C1540 1.499 . S
C1538 H1518 0.950 . S
C1538 C1537 1.414 1_554 S
C1538 C1539 1.374 . S
C1539 H1519 0.950 . S
C1539 C1535 1.385 . S
C1539 C1538 1.374 . S
C1540 C1537 1.499 . S
C1540 C1541 1.373 . S
C1540 C1542 1.389 . S
C1541 H1520 0.950 1_556 S
C1541 C1540 1.373 . S
C1541 C1557 1.377 . S
C1542 C1540 1.389 . S
C1542 C1543 1.524 . S
C1542 C1556 1.377 . S
C1543 C1542 1.524 . S
C1543 C1544 1.397 . S
C1543 C1548 1.363 . S
C1544 H1521 0.950 . S
C1544 C1543 1.397 . S
C1544 C1545 1.334 . S
C1545 H1522 0.950 . S
C1545 C1544 1.334 . S
C1545 C1546 1.287 . S
C1546 C1545 1.287 . S
C1546 C1547 1.524 . S
C1546 H1565 0.913 . S
C1547 H1523 0.950 . S
C1547 C1546 1.524 . S
C1547 C1548 1.415 . S
C1548 H1524 0.950 . S
C1548 C1543 1.363 . S
C1548 C1547 1.415 . S
C1549 H1525 0.951 . S
C1549 C1550 1.366 . S
C1549 C1551 1.388 . S
C1550 C1549 1.366 . S
C1550 C1554 1.385 . S
C1551 H1526 0.951 . S
C1551 C1549 1.388 . S
C1551 C1552 1.366 . S
C1552 C1551 1.366 . S
C1552 C1553 1.414 . S
C1552 C1555 1.499 . S
C1553 H1527 0.950 . S
C1553 C1552 1.414 . S
C1553 C1554 1.374 . S
C1554 H1528 0.950 . S
C1554 C1550 1.385 . S
C1554 C1553 1.374 . S
C1555 C1552 1.499 . S
C1555 C1556 1.373 . S
C1555 C1557 1.389 . S
C1556 H1529 0.950 . S
C1556 C1542 1.377 . S
C1556 C1555 1.373 . S
C1557 C1541 1.377 . S
C1557 C1555 1.389 . S
C1557 C1558 1.524 . S
C1558 C1557 1.524 . S
C1558 C1559 1.397 . S
C1558 C1563 1.363 1_556 S
C1559 H1530 0.950 . S
C1559 C1558 1.397 . S
C1559 C1560 1.334 . S
C1560 H1531 0.950 . S
C1560 C1559 1.334 . S
C1560 C1561 1.287 1_556 S
C1561 C1560 1.287 1_554 S
C1561 C1562 1.524 . S
C1561 H1564 0.999 . S
C1562 H1532 0.950 . S
C1562 C1561 1.524 . S
C1562 C1563 1.415 . S
C1563 H1533 0.950 . S
C1563 C1558 1.363 1_554 S
C1563 C1562 1.415 . S
H1564 C1561 0.999 . S
H1565 C1546 0.913 . S
H1566 C1584 0.951 1_554 S
H1567 C1586 0.951 . S
H1568 C1588 0.950 . S
H1569 C1589 0.950 . S
H1570 C1591 0.950 . S
H1571 C1594 0.950 . S
H1572 C1595 0.950 . S
H1573 C1597 0.950 . S
H1574 C1598 0.950 . S
H1575 C1599 0.951 . S
H1576 C1601 0.951 . S
H1577 C1603 0.950 . S
H1578 C1604 0.950 . S
H1579 C1606 0.950 . S
H1580 C1609 0.950 . S
H1581 C1610 0.950 . S
H1582 C1612 0.950 1_554 S
H1583 C1613 0.950 . S
C1584 H1566 0.951 1_556 S
C1584 C1585 1.366 1_556 S
C1584 C1586 1.388 . S
C1585 C1584 1.366 1_554 S
C1585 C1589 1.385 . S
C1586 H1567 0.951 . S
C1586 C1584 1.388 . S
C1586 C1587 1.366 . S
C1587 C1586 1.366 . S
C1587 C1588 1.414 . S
C1587 C1590 1.499 . S
C1588 H1568 0.950 . S
C1588 C1587 1.414 . S
C1588 C1589 1.374 1_556 S
C1589 H1569 0.950 . S
C1589 C1585 1.385 . S
C1589 C1588 1.374 1_554 S
C1590 C1587 1.499 . S
C1590 C1591 1.373 . S
C1590 C1592 1.389 . S
C1591 H1570 0.950 . S
C1591 C1590 1.373 . S
C1591 C1607 1.377 . S
C1592 C1590 1.389 . S
C1592 C1593 1.524 . S
C1592 C1606 1.377 . S
C1593 C1592 1.524 . S
C1593 C1594 1.397 . S
C1593 C1598 1.363 . S
C1594 H1571 0.950 . S
C1594 C1593 1.397 . S
C1594 C1595 1.334 . S
C1595 H1572 0.950 . S
C1595 C1594 1.334 . S
C1595 C1596 1.287 . S
C1596 C1595 1.287 . S
C1596 C1597 1.524 . S
C1596 H1615 0.913 . S
C1597 H1573 0.950 . S
C1597 C1596 1.524 . S
C1597 C1598 1.415 . S
C1598 H1574 0.950 . S
C1598 C1593 1.363 . S
C1598 C1597 1.415 . S
C1599 H1575 0.951 . S
C1599 C1600 1.366 . S
C1599 C1601 1.388 . S
C1600 C1599 1.366 . S
C1600 C1604 1.385 . S
C1601 H1576 0.951 . S
C1601 C1599 1.388 . S
C1601 C1602 1.366 . S
C1602 C1601 1.366 . S
C1602 C1603 1.414 . S
C1602 C1605 1.499 . S
C1603 H1577 0.950 . S
C1603 C1602 1.414 . S
C1603 C1604 1.374 . S
C1604 H1578 0.950 . S
C1604 C1600 1.385 . S
C1604 C1603 1.374 . S
C1605 C1602 1.499 . S
C1605 C1606 1.373 . S
C1605 C1607 1.389 . S
C1606 H1579 0.950 . S
C1606 C1592 1.377 . S
C1606 C1605 1.373 . S
C1607 C1591 1.377 . S
C1607 C1605 1.389 . S
C1607 C1608 1.524 . S
C1608 C1607 1.524 . S
C1608 C1609 1.397 . S
C1608 C1613 1.363 . S
C1609 H1580 0.950 . S
C1609 C1608 1.397 . S
C1609 C1610 1.334 . S
C1610 H1581 0.950 . S
C1610 C1609 1.334 . S
C1610 C1611 1.287 . S
C1611 C1610 1.287 . S
C1611 C1612 1.524 . S
C1611 H1614 0.999 1_556 S
C1612 H1582 0.950 1_556 S
C1612 C1611 1.524 . S
C1612 C1613 1.415 . S
C1613 H1583 0.950 . S
C1613 C1608 1.363 . S
C1613 C1612 1.415 . S
H1614 C1611 0.999 1_554 S
H1615 C1596 0.913 . S
H1616 C1634 0.951 . S
H1617 C1636 0.951 . S
H1618 C1638 0.950 . S
H1619 C1639 0.950 . S
H1620 C1641 0.950 . S
H1621 C1644 0.950 . S
H1622 C1645 0.950 . S
H1623 C1647 0.950 . S
H1624 C1648 0.950 . S
H1625 C1649 0.951 . S
H1626 C1651 0.951 . S
H1627 C1653 0.950 . S
H1628 C1654 0.955 1_455 S
H1629 C1656 0.950 . S
H1630 C1659 0.950 . S
H1631 C1660 0.950 1_455 S
H1632 C1662 0.950 . S
H1633 C1663 0.950 . S
C1634 H1616 0.951 . S
C1634 C1635 1.366 . S
C1634 C1636 1.388 . S
C1635 C1634 1.366 . S
C1635 C1639 1.385 . S
C1636 H1617 0.951 . S
C1636 C1634 1.388 . S
C1636 C1637 1.366 . S
C1637 C1636 1.366 . S
C1637 C1638 1.414 . S
C1637 C1640 1.499 . S
C1638 H1618 0.950 . S
C1638 C1637 1.414 . S
C1638 C1639 1.374 . S
C1639 H1619 0.950 . S
C1639 C1635 1.385 . S
C1639 C1638 1.374 . S
C1640 C1637 1.499 . S
C1640 C1641 1.373 . S
C1640 C1642 1.389 . S
C1641 H1620 0.950 . S
C1641 C1640 1.373 . S
C1641 C1657 1.377 . S
C1642 C1640 1.389 . S
C1642 C1643 1.524 . S
C1642 C1656 1.377 . S
C1643 C1642 1.524 . S
C1643 C1644 1.397 . S
C1643 C1648 1.363 . S
C1644 H1621 0.950 . S
C1644 C1643 1.397 . S
C1644 C1645 1.334 . S
C1645 H1622 0.950 . S
C1645 C1644 1.334 . S
C1645 C1646 1.287 . S
C1646 C1645 1.287 . S
C1646 C1647 1.524 . S
C1646 H1665 0.913 . S
C1647 H1623 0.950 . S
C1647 C1646 1.524 . S
C1647 C1648 1.415 . S
C1648 H1624 0.950 . S
C1648 C1643 1.363 . S
C1648 C1647 1.415 . S
C1649 H1625 0.951 . S
C1649 C1650 1.366 . S
C1649 C1651 1.388 . S
C1650 C1649 1.366 . S
C1650 C1654 1.385 . S
C1651 H1626 0.951 . S
C1651 C1649 1.388 . S
C1651 C1652 1.366 . S
C1652 C1651 1.366 . S
C1652 C1653 1.414 . S
C1652 C1655 1.499 . S
C1653 H1627 0.950 . S
C1653 C1652 1.414 . S
C1653 C1654 1.374 . S
C1654 H1628 0.955 1_655 S
C1654 C1650 1.385 . S
C1654 C1653 1.374 . S
C1655 C1652 1.499 . S
C1655 C1656 1.373 . S
C1655 C1657 1.389 . S
C1656 H1629 0.950 . S
C1656 C1642 1.377 . S
C1656 C1655 1.373 . S
C1657 C1641 1.377 . S
C1657 C1655 1.389 . S
C1657 C1658 1.524 . S
C1658 C1657 1.524 . S
C1658 C1659 1.397 . S
C1658 C1663 1.363 . S
C1659 H1630 0.950 . S
C1659 C1658 1.397 . S
C1659 C1660 1.334 . S
C1660 H1631 0.950 1_655 S
C1660 C1659 1.334 . S
C1660 C1661 1.287 . S
C1661 C1660 1.287 . S
C1661 C1662 1.524 . S
C1661 H1664 0.999 . S
C1662 H1632 0.950 . S
C1662 C1661 1.524 . S
C1662 C1663 1.415 . S
C1663 H1633 0.950 . S
C1663 C1658 1.363 . S
C1663 C1662 1.415 . S
H1664 C1661 0.999 . S
H1665 C1646 0.913 . S
H1666 C1684 0.951 . S
H1667 C1686 0.951 . S
H1668 C1688 0.950 . S
H1669 C1689 0.950 . S
H1670 C1691 0.950 . S
H1671 C1694 0.950 . S
H1672 C1695 0.950 . S
H1673 C1697 0.950 . S
H1674 C1698 0.950 . S
H1675 C1699 0.951 . S
H1676 C1701 0.951 . S
H1677 C1703 0.950 . S
H1678 C1704 0.950 . S
H1679 C1706 0.950 . S
H1680 C1709 0.950 . S
H1681 C1710 0.950 . S
H1682 C1712 0.950 . S
H1683 C1713 0.950 . S
C1684 H1666 0.951 . S
C1684 C1685 1.360 1_545 S
C1684 C1686 1.388 . S
C1685 C1684 1.360 1_565 S
C1685 C1689 1.391 . S
C1686 H1667 0.951 . S
C1686 C1684 1.388 . S
C1686 C1687 1.366 1_545 S
C1687 C1686 1.366 1_565 S
C1687 C1688 1.414 . S
C1687 C1690 1.499 . S
C1688 H1668 0.950 . S
C1688 C1687 1.414 . S
C1688 C1689 1.374 . S
C1689 H1669 0.950 . S
C1689 C1685 1.391 . S
C1689 C1688 1.374 . S
C1690 C1687 1.499 . S
C1690 C1691 1.373 . S
C1690 C1692 1.387 1_565 S
C1691 H1670 0.950 . S
C1691 C1690 1.373 . S
C1691 C1707 1.377 . S
C1692 C1690 1.387 1_545 S
C1692 C1693 1.525 . S
C1692 C1706 1.378 . S
C1693 C1692 1.525 . S
C1693 C1694 1.397 1_545 S
C1693 C1698 1.363 . S
C1694 H1671 0.950 . S
C1694 C1693 1.397 1_565 S
C1694 C1695 1.334 . S
C1695 H1672 0.950 . S
C1695 C1694 1.334 . S
C1695 C1696 1.287 . S
C1696 C1695 1.287 . S
C1696 C1697 1.524 1_565 S
C1696 H1715 0.913 . S
C1697 H1673 0.950 . S
C1697 C1696 1.524 1_545 S
C1697 C1698 1.415 . S
C1698 H1674 0.950 . S
C1698 C1693 1.363 . S
C1698 C1697 1.415 . S
C1699 H1675 0.951 . S
C1699 C1700 1.366 . S
C1699 C1701 1.388 . S
C1700 C1699 1.366 . S
C1700 C1704 1.385 1_565 S
C1701 H1676 0.951 . S
C1701 C1699 1.388 . S
C1701 C1702 1.366 . S
C1702 C1701 1.366 . S
C1702 C1703 1.414 1_565 S
C1702 C1705 1.499 . S
C1703 H1677 0.950 . S
C1703 C1702 1.414 1_545 S
C1703 C1704 1.374 . S
C1704 H1678 0.950 . S
C1704 C1700 1.385 1_545 S
C1704 C1703 1.374 . S
C1705 C1702 1.499 . S
C1705 C1706 1.370 1_565 S
C1705 C1707 1.400 . S
C1706 H1679 0.950 . S
C1706 C1692 1.378 . S
C1706 C1705 1.370 1_545 S
C1707 C1691 1.377 . S
C1707 C1705 1.400 . S
C1707 C1708 1.524 . S
C1708 C1707 1.524 . S
C1708 C1709 1.397 1_565 S
C1708 C1713 1.363 . S
C1709 H1680 0.950 . S
C1709 C1708 1.397 1_545 S
C1709 C1710 1.334 . S
C1710 H1681 0.950 . S
C1710 C1709 1.334 . S
C1710 C1711 1.287 1_545 S
C1711 C1710 1.287 1_565 S
C1711 C1712 1.524 . S
C1711 H1714 0.999 . S
C1712 H1682 0.950 . S
C1712 C1711 1.524 . S
C1712 C1713 1.415 . S
C1713 H1683 0.950 . S
C1713 C1708 1.363 . S
C1713 C1712 1.415 . S
H1714 C1711 0.999 . S
H1715 C1696 0.913 . S
H1716 C1734 0.951 . S
H1717 C1736 0.951 . S
H1718 C1738 0.950 . S
H1719 C1739 0.950 . S
H1720 C1741 0.950 . S
H1721 C1744 0.950 . S
H1722 C1745 0.950 . S
H1723 C1747 0.950 . S
H1724 C1748 0.950 . S
H1725 C1749 0.951 . S
H1726 C1751 0.951 . S
H1727 C1753 0.950 . S
H1728 C1754 0.950 . S
H1729 C1756 0.950 . S
H1730 C1759 0.950 . S
H1731 C1760 0.950 . S
H1732 C1762 0.950 . S
H1733 C1763 0.950 . S
C1734 H1716 0.951 . S
C1734 C1735 1.366 . S
C1734 C1736 1.388 . S
C1735 C1734 1.366 . S
C1735 C1739 1.385 . S
C1736 H1717 0.951 . S
C1736 C1734 1.388 . S
C1736 C1737 1.366 . S
C1737 C1736 1.366 . S
C1737 C1738 1.414 . S
C1737 C1740 1.499 . S
C1738 H1718 0.950 . S
C1738 C1737 1.414 . S
C1738 C1739 1.374 . S
C1739 H1719 0.950 . S
C1739 C1735 1.385 . S
C1739 C1738 1.374 . S
C1740 C1737 1.499 . S
C1740 C1741 1.373 . S
C1740 C1742 1.389 . S
C1741 H1720 0.950 . S
C1741 C1740 1.373 . S
C1741 C1757 1.377 . S
C1742 C1740 1.389 . S
C1742 C1743 1.524 . S
C1742 C1756 1.377 . S
C1743 C1742 1.524 . S
C1743 C1744 1.397 . S
C1743 C1748 1.363 . S
C1744 H1721 0.950 . S
C1744 C1743 1.397 . S
C1744 C1745 1.334 . S
C1745 H1722 0.950 . S
C1745 C1744 1.334 . S
C1745 C1746 1.287 . S
C1746 C1745 1.287 . S
C1746 C1747 1.524 . S
C1746 H1765 0.913 . S
C1747 H1723 0.950 . S
C1747 C1746 1.524 . S
C1747 C1748 1.415 . S
C1748 H1724 0.950 . S
C1748 C1743 1.363 . S
C1748 C1747 1.415 . S
C1749 H1725 0.951 . S
C1749 C1750 1.366 . S
C1749 C1751 1.388 . S
C1750 C1749 1.366 . S
C1750 C1754 1.385 . S
C1751 H1726 0.951 . S
C1751 C1749 1.388 . S
C1751 C1752 1.366 . S
C1752 C1751 1.366 . S
C1752 C1753 1.414 . S
C1752 C1755 1.499 . S
C1753 H1727 0.950 . S
C1753 C1752 1.414 . S
C1753 C1754 1.374 . S
C1754 H1728 0.950 . S
C1754 C1750 1.385 . S
C1754 C1753 1.374 . S
C1755 C1752 1.499 . S
C1755 C1756 1.373 . S
C1755 C1757 1.389 . S
C1756 H1729 0.950 . S
C1756 C1742 1.377 . S
C1756 C1755 1.373 . S
C1757 C1741 1.377 . S
C1757 C1755 1.389 . S
C1757 C1758 1.524 . S
C1758 C1757 1.524 . S
C1758 C1759 1.397 . S
C1758 C1763 1.363 . S
C1759 H1730 0.950 . S
C1759 C1758 1.397 . S
C1759 C1760 1.334 . S
C1760 H1731 0.950 . S
C1760 C1759 1.334 . S
C1760 C1761 1.287 . S
C1761 C1760 1.287 . S
C1761 C1762 1.524 . S
C1761 H1764 0.999 . S
C1762 H1732 0.950 . S
C1762 C1761 1.524 . S
C1762 C1763 1.415 . S
C1763 H1733 0.950 . S
C1763 C1758 1.363 . S
C1763 C1762 1.415 . S
H1764 C1761 0.999 . S
H1765 C1746 0.913 . S
H1766 C1784 0.951 . S
H1767 C1786 0.951 . S
H1768 C1788 0.950 . S
H1769 C1789 0.950 . S
H1770 C1791 0.950 . S
H1771 C1794 0.950 . S
H1772 C1795 0.950 . S
H1773 C1797 0.950 . S
H1774 C1798 0.950 . S
H1775 C1799 0.951 . S
H1776 C1801 0.951 . S
H1777 C1803 0.950 . S
H1778 C1804 0.950 . S
H1779 C1806 0.950 . S
H1780 C1809 0.950 . S
H1781 C1810 0.950 . S
H1782 C1812 0.950 . S
H1783 C1813 0.950 . S
C1784 H1766 0.951 . S
C1784 C1785 1.366 . S
C1784 C1786 1.388 . S
C1785 C1784 1.366 . S
C1785 C1789 1.385 . S
C1786 H1767 0.951 . S
C1786 C1784 1.388 . S
C1786 C1787 1.366 . S
C1787 C1786 1.366 . S
C1787 C1788 1.414 . S
C1787 C1790 1.499 . S
C1788 H1768 0.950 . S
C1788 C1787 1.414 . S
C1788 C1789 1.374 . S
C1789 H1769 0.950 . S
C1789 C1785 1.385 . S
C1789 C1788 1.374 . S
C1790 C1787 1.499 . S
C1790 C1791 1.373 . S
C1790 C1792 1.389 . S
C1791 H1770 0.950 . S
C1791 C1790 1.373 . S
C1791 C1807 1.377 . S
C1792 C1790 1.389 . S
C1792 C1793 1.524 . S
C1792 C1806 1.377 . S
C1793 C1792 1.524 . S
C1793 C1794 1.397 . S
C1793 C1798 1.363 . S
C1794 H1771 0.950 . S
C1794 C1793 1.397 . S
C1794 C1795 1.334 . S
C1795 H1772 0.950 . S
C1795 C1794 1.334 . S
C1795 C1796 1.287 . S
C1796 C1795 1.287 . S
C1796 C1797 1.524 . S
C1796 H1815 0.913 . S
C1797 H1773 0.950 . S
C1797 C1796 1.524 . S
C1797 C1798 1.415 . S
C1798 H1774 0.950 . S
C1798 C1793 1.363 . S
C1798 C1797 1.415 . S
C1799 H1775 0.951 . S
C1799 C1800 1.366 . S
C1799 C1801 1.388 . S
C1800 C1799 1.366 . S
C1800 C1804 1.385 . S
C1801 H1776 0.951 . S
C1801 C1799 1.388 . S
C1801 C1802 1.366 . S
C1802 C1801 1.366 . S
C1802 C1803 1.414 . S
C1802 C1805 1.499 . S
C1803 H1777 0.950 . S
C1803 C1802 1.414 . S
C1803 C1804 1.374 . S
C1804 H1778 0.950 . S
C1804 C1800 1.385 . S
C1804 C1803 1.374 . S
C1805 C1802 1.499 . S
C1805 C1806 1.373 . S
C1805 C1807 1.389 . S
C1806 H1779 0.950 . S
C1806 C1792 1.377 . S
C1806 C1805 1.373 . S
C1807 C1791 1.377 . S
C1807 C1805 1.389 . S
C1807 C1808 1.524 . S
C1808 C1807 1.524 . S
C1808 C1809 1.397 . S
C1808 C1813 1.363 . S
C1809 H1780 0.950 . S
C1809 C1808 1.397 . S
C1809 C1810 1.334 . S
C1810 H1781 0.950 . S
C1810 C1809 1.334 . S
C1810 C1811 1.287 . S
C1811 C1810 1.287 . S
C1811 C1812 1.524 . S
C1811 H1814 0.999 . S
C1812 H1782 0.950 . S
C1812 C1811 1.524 . S
C1812 C1813 1.415 . S
C1813 H1783 0.950 . S
C1813 C1808 1.363 . S
C1813 C1812 1.415 . S
H1814 C1811 0.999 . S
H1815 C1796 0.913 . S
C635 C391 1.836 1_565 S
C650 C497 1.828 . S
C700 C518 1.695 . S
C685 C451 1.707 . S
C750 C552 1.441 . S
C735 C241 1.352 . S
C800 C586 1.675 . S
C785 C331 1.555 . S
C850 C488 1.827 . S
C835 C121 1.726 1_546 S
C885 C211 1.664 . S
C900 C527 1.701 . S
C935 C31 1.466 . S
C950 C561 1.441 . S
C985 C91 1.612 . S
C1000 C595 1.676 . S
C1050 C509 0.461 . S
C1035 C301 0.891 . S
C1100 C514 0.190 . S
C1085 C380 0.139 . S
C1150 C548 0.284 . S
C1135 C440 0.249 . S
C1185 C260 0.488 . S
C1200 C582 0.240 . S
C1235 C61 0.703 . S
C1250 C480 0.460 . S
C1300 C543 0.195 . S
C1285 C140 0.484 . S
C1350 C577 0.282 . S
C1335 C200 0.442 . S
C1385 C20 0.282 . S
C1400 C611 0.240 . S
C1435 C320 1.643 . S
C1450 C493 1.698 . S
C1485 C361 1.879 . S
C1500 C522 2.094 . S
C1550 C556 1.837 . S
C1535 C421 1.662 . S
C1600 C590 1.852 . S
C1585 C271 1.832 . S
C1635 C80 1.691 . S
C1650 C484 1.707 . S
C1700 C531 2.095 . S
C1685 C151 2.064 . S
C1750 C565 1.837 . S
C1735 C181 1.617 . S
C1785 C1 1.669 . S
C1800 C599 1.853 . S
