# Generated by pormake.
# Topology pth, (4,4)-cn, num edge types: 1
# Building blocks:
#     Node 0, Type 0, BuildingBlock: NAHDIM_clean_sbu_0, # of connection points: 4
#     Node 1, Type 0, BuildingBlock: NAHDIM_clean_sbu_0, # of connection points: 4
#     Node 2, Type 0, BuildingBlock: NAHDIM_clean_sbu_0, # of connection points: 4
#     Node 3, Type 1, BuildingBlock: AZAVOO_clean_linker_0, # of connection points: 4
#     Node 4, Type 1, BuildingBlock: AZAVOO_clean_linker_0, # of connection points: 4
#     Node 5, Type 1, BuildingBlock: AZAVOO_clean_linker_0, # of connection points: 4
#     Edge 6, Type (0, 1), BuildingBlock: AJUNOK_clean_linker_0, # of connection points: 2
#     Edge 7, Type (0, 1), BuildingBlock: AJUNOK_clean_linker_0, # of connection points: 2
#     Edge 8, Type (0, 1), BuildingBlock: AJUNOK_clean_linker_0, # of connection points: 2
#     Edge 9, Type (0, 1), BuildingBlock: AJUNOK_clean_linker_0, # of connection points: 2
#     Edge 10, Type (0, 1), BuildingBlock: AJUNOK_clean_linker_0, # of connection points: 2
#     Edge 11, Type (0, 1), BuildingBlock: AJUNOK_clean_linker_0, # of connection points: 2
#     Edge 12, Type (0, 1), BuildingBlock: AJUNOK_clean_linker_0, # of connection points: 2
#     Edge 13, Type (0, 1), BuildingBlock: AJUNOK_clean_linker_0, # of connection points: 2
#     Edge 14, Type (0, 1), BuildingBlock: AJUNOK_clean_linker_0, # of connection points: 2
#     Edge 15, Type (0, 1), BuildingBlock: AJUNOK_clean_linker_0, # of connection points: 2
#     Edge 16, Type (0, 1), BuildingBlock: AJUNOK_clean_linker_0, # of connection points: 2
#     Edge 17, Type (0, 1), BuildingBlock: AJUNOK_clean_linker_0, # of connection points: 2
# Relax obj value: 0.171
# Max RMSD: 0.229
# Mean RMSD: 0.208
data_MOF--net-pth--node1-NAHDIM_clean_sbu_0--node2-AZAVOO_clean_linker_0--edge1-AJUNOK_clean_linker_0
_symmetry_space_group_name_H-M    P1
_symmetry_Int_Tables_number       1
_symmetry_cell_setting            triclinic
loop_
_symmetry_equiv_pos_as_xyz
'x, y, z'
_cell_length_a     20.446479
_cell_length_b     20.757511
_cell_length_c     54.580429
_cell_angle_alpha  94.25635
_cell_angle_beta   88.520213
_cell_angle_gamma 120.68055
loop_
_atom_site_label
_atom_site_type_symbol
_atom_site_fract_x
_atom_site_fract_y
_atom_site_fract_z
_atom_type_partial_charge
C0 C 0.06262 0.9359 0.09408 0.0
O1 O 0.00362 0.94051 0.0878 0.0
O2 O 0.11768 0.1397 0.10145 0.0
Zn3 Zn 0.13605 0.07802 0.07489 0.0
O4 O 0.05665 0.04122 0.04812 0.0
C5 C 0.28195 0.21006 0.06687 0.0
O6 O 0.26552 0.23793 0.08686 0.0
O7 O 0.12887 0.98879 0.08929 0.0
C8 C 0.07203 0.06173 0.02631 0.0
O9 O 0.14224 0.1113 0.02085 0.0
C10 C 0.11058 0.1264 0.12405 0.0
O11 O 0.11205 0.06785 0.13088 0.0
O12 O 0.23775 0.14163 0.05975 0.0
C13 C 0.0959 0.16502 0.36638 0.0
O14 O 0.04958 0.09236 0.36227 0.0
O15 O 0.11112 0.01607 0.38709 0.0
Zn16 Zn 0.14458 0.11504 0.4059 0.0
O17 O 0.07278 0.09659 0.4339 0.0
C18 C 0.29646 0.13863 0.41043 0.0
O19 O 0.28159 0.10191 0.38872 0.0
O20 O 0.14287 0.18873 0.38429 0.0
C21 C 0.09236 0.10196 0.45623 0.0
O22 O 0.16281 0.12222 0.46164 0.0
C23 C 0.11489 0.96401 0.39665 0.0
O24 O 0.14204 0.97566 0.41913 0.0
O25 O 0.24856 0.15441 0.41993 0.0
C26 C 0.23577 0.10919 0.70917 0.0
O27 O 0.23728 0.1733 0.71186 0.0
O28 O 0.04338 0.08605 0.72048 0.0
Zn29 Zn 0.11875 0.08012 0.74183 0.0
O30 O 0.19031 0.17844 0.76053 0.0
C31 C 0.0092 0.0123 0.77787 0.0
O32 O 0.00542 0.07229 0.77453 0.0
O33 O 0.18596 0.05432 0.72068 0.0
C34 C 0.1794 0.23019 0.76969 0.0
O35 O 0.11217 0.22327 0.76785 0.0
C36 C 0.05263 0.14182 0.70946 0.0
O37 O 0.11841 0.20495 0.7112 0.0
O38 O 0.05664 0.00129 0.76551 0.0
H39 H 0.01118 0.38246 0.0852 0.0
H40 H 0.10379 0.00986 0.28496 0.0
H41 H 0.95566 0.35417 0.22818 0.0
H42 H 0.96943 0.25739 0.20391 0.0
H43 H 0.21064 0.41281 0.19877 0.0
H44 H 0.19642 0.5093 0.22279 0.0
H45 H 0.9474 0.42664 0.18819 0.0
H46 H 0.95224 0.39038 0.14478 0.0
H47 H 0.18314 0.57676 0.1416 0.0
H48 H 0.1778 0.61173 0.18513 0.0
H49 H 0.93942 0.56649 0.18966 0.0
H50 H 0.9377 0.63761 0.15607 0.0
H51 H 0.15998 0.82135 0.17917 0.0
H52 H 0.16305 0.7481 0.21176 0.0
H53 H 0.93189 0.64872 0.24392 0.0
H54 H 0.92672 0.76315 0.25363 0.0
H55 H 0.16342 0.881 0.27617 0.0
H56 H 0.16814 0.76674 0.26595 0.0
H57 H 0.93599 0.56641 0.29319 0.0
H58 H 0.93976 0.64282 0.33015 0.0
H59 H 0.18456 0.74925 0.33288 0.0
H60 H 0.1799 0.67058 0.29653 0.0
H61 H 0.94564 0.40184 0.27865 0.0
H62 H 0.95312 0.31582 0.3054 0.0
H63 H 0.19776 0.45736 0.30847 0.0
H64 H 0.18969 0.54343 0.2818 0.0
O65 O 0.01061 0.39754 0.10238 0.0
O66 O 0.1268 0.49781 0.10119 0.0
O67 O 0.98485 0.90269 0.26698 0.0
O68 O 0.1042 0.96382 0.28104 0.0
C69 C 0.064 0.50215 0.23455 0.0
C70 C 0.05903 0.54369 0.2161 0.0
C71 C 0.05391 0.60785 0.22267 0.0
C72 C 0.05389 0.63059 0.24767 0.0
C73 C 0.05786 0.58823 0.26615 0.0
C74 C 0.06294 0.52397 0.25956 0.0
C75 C 0.07504 0.4385 0.22706 0.0
C76 C 0.01181 0.36617 0.22263 0.0
C77 C 0.01968 0.31128 0.20873 0.0
C78 C 0.09079 0.32863 0.19915 0.0
C79 C 0.1551 0.39881 0.20568 0.0
C80 C 0.14722 0.45351 0.21955 0.0
C81 C 0.06229 0.52162 0.18976 0.0
C82 C -0.00091 0.45923 0.1781 0.0
C83 C 0.00197 0.43881 0.1533 0.0
C84 C 0.06799 0.48085 0.13969 0.0
C85 C 0.13132 0.54335 0.15151 0.0
C86 C 0.12846 0.56347 0.17635 0.0
C87 C 0.0511 0.6525 0.2032 0.0
C88 C 0.98767 0.6221 0.1874 0.0
C89 C 0.98656 0.66293 0.16839 0.0
C90 C 0.04838 0.73532 0.16519 0.0
C91 C 0.11174 0.76553 0.18112 0.0
C92 C 0.11324 0.72426 0.19989 0.0
C93 C 0.05018 0.69935 0.25442 0.0
C94 C 0.98245 0.69931 0.25101 0.0
C95 C 0.97972 0.76473 0.25654 0.0
C96 C 0.04478 0.83132 0.26562 0.0
C97 C 0.11233 0.83078 0.26922 0.0
C98 C 0.11508 0.76547 0.26353 0.0
C99 C 0.05771 0.61341 0.29219 0.0
C100 C 0.99 0.60374 0.30247 0.0
C101 C 0.9924 0.64817 0.32332 0.0
C102 C 0.06267 0.7036 0.33385 0.0
C103 C 0.12963 0.70718 0.32509 0.0
C104 C 0.1271 0.66207 0.3044 0.0
C105 C 0.06707 0.47884 0.2785 0.0
C106 C 0.00064 0.41486 0.28549 0.0
C107 C 0.00509 0.36557 0.3005 0.0
C108 C 0.07613 0.37954 0.30865 0.0
C109 C 0.14238 0.44543 0.30243 0.0
C110 C 0.13788 0.49458 0.28732 0.0
C111 C 0.07051 0.45956 0.11327 0.0
C112 C 0.04253 0.90126 0.27119 0.0
H113 H 0.75068 0.03797 0.41085 0.0
H114 H 0.25519 0.19081 0.59414 0.0
H115 H 0.69968 0.96193 0.55182 0.0
H116 H 0.80331 0.95511 0.53067 0.0
H117 H 0.94363 0.19678 0.53952 0.0
H118 H 0.84059 0.20283 0.56136 0.0
H119 H 0.61156 0.97592 0.50783 0.0
H120 H 0.65786 0.9787 0.46584 0.0
H121 H 0.81485 0.2175 0.47816 0.0
H122 H 0.76721 0.21394 0.51996 0.0
H123 H 0.48042 0.99134 0.51518 0.0
H124 H 0.42265 0.00952 0.4795 0.0
H125 H 0.56678 0.24996 0.49253 0.0
H126 H 0.62355 0.23114 0.52844 0.0
H127 H 0.41497 0.98505 0.56367 0.0
H128 H 0.30052 0.99333 0.57051 0.0
H129 H 0.44153 0.23182 0.58935 0.0
H130 H 0.55537 0.22248 0.58259 0.0
H131 H 0.48231 0.97 0.60866 0.0
H132 H 0.39826 0.97208 0.64107 0.0
H133 H 0.55602 0.20849 0.65773 0.0
H134 H 0.63759 0.20681 0.62444 0.0
H135 H 0.67994 0.97717 0.60389 0.0
H136 H 0.76969 0.98936 0.63539 0.0
H137 H 0.84808 0.22599 0.64753 0.0
H138 H 0.76051 0.2138 0.61534 0.0
O139 O 0.73364 0.03798 0.42756 0.0
O140 O 0.82027 0.15839 0.43589 0.0
O141 O 0.22964 0.06243 0.58289 0.0
O142 O 0.29942 0.18601 0.59112 0.0
C143 C 0.69434 0.08846 0.56241 0.0
C144 C 0.65641 0.09321 0.54201 0.0
C145 C 0.59132 0.09907 0.54551 0.0
C146 C 0.56223 0.09744 0.56922 0.0
C147 C 0.59983 0.09219 0.58971 0.0
C148 C 0.66734 0.08992 0.58638 0.0
C149 C 0.76287 0.08288 0.55795 0.0
C150 C 0.75409 0.01298 0.55022 0.0
C151 C 0.81283 0.00929 0.5379 0.0
C152 C 0.88041 0.0756 0.5329 0.0
C153 C 0.89198 0.14488 0.5431 0.0
C154 C 0.8334 0.14846 0.55562 0.0
C155 C 0.68627 0.09466 0.51685 0.0
C156 C 0.65599 0.02867 0.50138 0.0
C157 C 0.68246 0.03049 0.47743 0.0
C158 C 0.73993 0.09838 0.46862 0.0
C159 C 0.77056 0.1643 0.48435 0.0
C160 C 0.74362 0.16245 0.50822 0.0
C161 C 0.55557 0.10997 0.5243 0.0
C162 C 0.49943 0.0478 0.51024 0.0
C163 C 0.46738 0.0583 0.48977 0.0
C164 C 0.49138 0.13116 0.48308 0.0
C165 C 0.54773 0.19332 0.49727 0.0
C166 C 0.57981 0.18273 0.51773 0.0
C167 C 0.49313 0.10313 0.57268 0.0
C168 C 0.42084 0.03898 0.5692 0.0
C169 C 0.35569 0.0439 0.57317 0.0
C170 C 0.36189 0.11327 0.58053 0.0
C171 C 0.43469 0.17756 0.58372 0.0
C172 C 0.49977 0.17246 0.57986 0.0
C173 C 0.56611 0.0882 0.61427 0.0
C174 C 0.50017 0.02152 0.61999 0.0
C175 C 0.45207 0.02285 0.63841 0.0
C176 C 0.46977 0.09087 0.65142 0.0
C177 C 0.54022 0.15569 0.64752 0.0
C178 C 0.58765 0.15457 0.62885 0.0
C179 C 0.71294 0.09434 0.60769 0.0
C180 C 0.71551 0.03122 0.61372 0.0
C181 C 0.76651 0.03828 0.63176 0.0
C182 C 0.81532 0.10855 0.6441 0.0
C183 C 0.81116 0.17122 0.63833 0.0
C184 C 0.76062 0.1642 0.62019 0.0
C185 C 0.76727 0.10036 0.44308 0.0
C186 C 0.29286 0.11872 0.5849 0.0
H187 H 0.74481 0.76394 0.07052 0.0
H188 H 0.20376 0.13925 0.88229 0.0
H189 H 0.66786 0.7939 0.93191 0.0
H190 H 0.76876 0.90811 0.95371 0.0
H191 H 0.92226 0.82369 0.94253 0.0
H192 H 0.82148 0.71027 0.92045 0.0
H193 H 0.58606 0.68018 0.97542 0.0
H194 H 0.63819 0.72316 0.01727 0.0
H195 H 0.80824 0.66247 -0.0002 0.0
H196 H 0.75495 0.619 0.95813 0.0
H197 H 0.44294 0.52799 0.95893 0.0
H198 H 0.38404 0.44693 0.99303 0.0
H199 H 0.55632 0.38497 0.98828 0.0
H200 H 0.61462 0.46579 0.95405 0.0
H201 H 0.39777 0.51253 0.90203 0.0
H202 H 0.27772 0.39585 0.89219 0.0
H203 H 0.3913 0.26973 0.89787 0.0
H204 H 0.51115 0.38703 0.90752 0.0
H205 H 0.49349 0.62241 0.86621 0.0
H206 H 0.40367 0.55258 0.83209 0.0
H207 H 0.48206 0.39423 0.82639 0.0
H208 H 0.57366 0.46609 0.8597 0.0
H209 H 0.62315 0.74343 0.87083 0.0
H210 H 0.70879 0.82953 0.84092 0.0
H211 H 0.85338 0.73487 0.84502 0.0
H212 H 0.76558 0.64681 0.87396 0.0
O213 O 0.72496 0.74649 0.05392 0.0
O214 O 0.8161 0.72191 0.0432 0.0
O215 O 0.19503 0.25381 0.8833 0.0
O216 O 0.25024 0.1861 0.8865 0.0
C217 C 0.67194 0.66801 0.91896 0.0
C218 C 0.6356 0.62146 0.93839 0.0
C219 C 0.56867 0.55163 0.93377 0.0
C220 C 0.53647 0.52945 0.90993 0.0
C221 C 0.57425 0.57517 0.89029 0.0
C222 C 0.64304 0.64379 0.89475 0.0
C223 C 0.73763 0.74408 0.92477 0.0
C224 C 0.72425 0.80165 0.93328 0.0
C225 C 0.7815 0.8663 0.94588 0.0
C226 C 0.85248 0.87363 0.95017 0.0
C227 C 0.86797 0.81927 0.93941 0.0
C228 C 0.81068 0.75466 0.92678 0.0
C229 C 0.66691 0.64672 0.96382 0.0
C230 C 0.63439 0.67603 0.98074 0.0
C231 C 0.66431 0.70055 0.0046 0.0
C232 C 0.72738 0.69621 0.01189 0.0
C233 C 0.75972 0.66669 0.99479 0.0
C234 C 0.72948 0.64187 0.97099 0.0
C235 C 0.53245 0.50202 0.95404 0.0
C236 C 0.46765 0.49667 0.96524 0.0
C237 C 0.43461 0.45101 0.98473 0.0
C238 C 0.46578 0.40984 0.99313 0.0
C239 C 0.53099 0.41567 0.98193 0.0
C240 C 0.56421 0.46165 0.96251 0.0
C241 C 0.463 0.45808 0.90543 0.0
C242 C 0.39647 0.45958 0.90121 0.0
C243 C 0.32805 0.3929 0.89556 0.0
C244 C 0.32499 0.32344 0.89412 0.0
C245 C 0.39169 0.32221 0.89878 0.0
C246 C 0.46013 0.38902 0.90439 0.0
C247 C 0.54012 0.54933 0.86534 0.0
C248 C 0.4938 0.5748 0.85677 0.0
C249 C 0.44155 0.53404 0.83762 0.0
C250 C 0.43446 0.46685 0.82707 0.0
C251 C 0.48614 0.44573 0.83416 0.0
C252 C 0.53878 0.48688 0.85311 0.0
C253 C 0.68803 0.68871 0.87434 0.0
C254 C 0.67229 0.74015 0.86475 0.0
C255 C 0.72186 0.78995 0.84801 0.0
C256 C 0.78863 0.78991 0.84103 0.0
C257 C 0.80242 0.73616 0.85 0.0
C258 C 0.75244 0.68593 0.86651 0.0
C259 C 0.75904 0.72223 0.03724 0.0
C260 C 0.25272 0.25256 0.88766 0.0
C261 C 0.07542 0.15399 0.16612 0.0
C262 C 0.10441 0.17832 0.14274 0.0
C263 C 0.07076 0.20267 0.18437 0.0
C264 C 0.09633 0.27763 0.17998 0.0
H265 H 0.05575 0.09677 0.17034 0.0
H266 H 0.04783 0.18188 0.2021 0.0
S267 S 0.17594 0.36919 0.12199 0.0
N268 N 0.15795 0.28243 0.11623 0.0
N269 N 0.14969 0.37373 0.15061 0.0
C270 C 0.12501 0.30263 0.15673 0.0
C271 C 0.12889 0.25301 0.13807 0.0
C272 C 0.0632 0.12108 0.50002 0.0
C273 C 0.0372 0.08892 0.47606 0.0
C274 C 0.0121 0.11443 0.51867 0.0
C275 C 0.93326 0.07424 0.51411 0.0
H276 H 0.12355 0.15376 0.50425 0.0
H277 H 0.03441 0.142 0.53667 0.0
S278 S 0.83585 0.97503 0.45499 0.0
N279 N 0.92723 0.01204 0.44916 0.0
N280 N 0.83136 -0.00022 0.48414 0.0
C281 C 0.90643 0.03957 0.49047 0.0
C282 C 0.95836 0.04688 0.47146 0.0
C283 C 0.93236 0.88049 0.79051 0.0
C284 C 0.95579 0.95696 0.79475 0.0
C285 C 0.87797 0.82671 0.80545 0.0
C286 C 0.84552 0.84757 0.82526 0.0
H287 H 0.95483 0.86178 0.77521 0.0
H288 H 0.86042 0.76823 0.80124 0.0
S289 S 0.89454 0.04177 0.8458 0.0
N290 N 0.94631 0.05149 0.82111 0.0
N291 N 0.84582 0.95083 0.84953 0.0
C292 C 0.87034 0.92419 0.83012 0.0
C293 C 0.92506 0.97875 0.8148 0.0
C294 C 0.11486 0.86617 0.11348 0.0
C295 C 0.05357 0.87748 0.11008 0.0
C296 C 0.11167 0.81822 0.13079 0.0
C297 C 0.04727 0.78009 0.14546 0.0
H298 H 0.16645 0.8958 0.10306 0.0
H299 H 0.16057 0.81189 0.13298 0.0
S300 S 0.871 0.78931 0.14357 0.0
N301 N 0.92541 0.84463 0.12236 0.0
N302 N 0.92042 0.75598 0.15532 0.0
C303 C 0.9847 0.78913 0.14179 0.0
C304 C 0.98761 0.83746 0.12399 0.0
C305 C 0.37532 0.19079 0.44874 0.0
C306 C 0.35848 0.14714 0.42625 0.0
C307 C 0.42185 0.18833 0.46652 0.0
C308 C 0.45316 0.14203 0.46251 0.0
H309 H 0.34951 0.22455 0.45318 0.0
H310 H 0.42993 0.21979 0.48405 0.0
S311 S 0.43641 0.02541 0.40554 0.0
N312 N 0.38389 0.06241 0.39999 0.0
N313 N 0.47192 0.05843 0.43354 0.0
C314 C 0.44137 0.1022 0.43953 0.0
C315 C 0.39411 0.10483 0.42132 0.0
C316 C 0.3181 0.32049 0.77601 0.0
C317 C 0.24277 0.29661 0.78295 0.0
C318 C 0.3799 0.37838 0.78963 0.0
C319 C 0.36874 0.41414 0.81085 0.0
H320 H 0.32945 0.29333 0.76012 0.0
H321 H 0.43691 0.39396 0.78387 0.0
S322 S 0.1825 0.37122 0.83711 0.0
N323 N 0.16022 0.31338 0.81222 0.0
N324 N 0.27632 0.42091 0.83829 0.0
C325 C 0.29359 0.39189 0.81769 0.0
C326 C 0.2306 0.33343 0.80363 0.0
C327 C 0.00685 0.18443 0.6756 0.0
C328 C 0.99043 0.13421 0.6939 0.0
C329 C 0.9497 0.17618 0.65981 0.0
C330 C 0.87383 0.11768 0.66182 0.0
H331 H 0.06461 0.22953 0.67302 0.0
H332 H 0.96543 0.21499 0.64556 0.0
S333 S 0.7994 0.97569 0.70823 0.0
N334 N 0.89169 0.02652 0.71409 0.0
N335 N 0.78429 0.01198 0.68462 0.0
C336 C 0.85616 0.06836 0.68047 0.0
C337 C 0.9144 0.07644 0.69647 0.0
C338 C 0.03631 0.02115 0.98204 0.0
C339 C 0.01377 0.02236 0.00659 0.0
C340 C 0.98328 0.97544 0.9635 0.0
C341 C 0.9058 0.93053 0.96881 0.0
H342 H 0.09579 0.0529 0.97723 0.0
H343 H 0.00326 0.97347 0.94503 0.0
S344 S 0.81645 0.91853 0.02964 0.0
N345 N 0.90783 0.97862 0.03484 0.0
N346 N 0.80833 0.89274 1e-05 0.0
C347 C 0.88193 0.93414 0.99301 0.0
C348 C 0.9359 0.98009 0.0119 0.0
C349 C 0.12708 0.85064 0.38763 0.0
C350 C 0.09467 0.89348 0.38188 0.0
C351 C 0.11431 0.78746 0.37253 0.0
C352 C 0.06777 0.76425 0.35137 0.0
H353 H 0.16481 0.86749 0.40341 0.0
H354 H 0.14222 0.75741 0.37718 0.0
S355 S 0.96517 0.8541 0.32926 0.0
N356 N 0.01057 0.90574 0.35438 0.0
N357 N 0.9871 0.7877 0.32591 0.0
C358 C 0.03281 0.80506 0.34593 0.0
C359 C 0.04619 0.86952 0.3612 0.0
C360 C 0.31145 0.04736 0.69733 0.0
C361 C 0.29361 0.10325 0.69386 0.0
C362 C 0.36911 0.04391 0.68379 0.0
C363 C 0.41088 0.09628 0.66636 0.0
H364 H 0.28157 0.00674 0.71087 0.0
H365 H 0.38155 0.00043 0.68712 0.0
S366 S 0.38071 0.24832 0.64843 0.0
N367 N 0.31903 0.20887 0.67047 0.0
N368 N 0.42617 0.20166 0.64496 0.0
C369 C 0.3921 0.15104 0.66227 0.0
C370 C 0.3338 0.1547 0.67603 0.0
C371 C 0.369 0.33889 0.05337 0.0
C372 C 0.33991 0.26099 0.04986 0.0
C373 C 0.41207 0.38716 0.03526 0.0
C374 C 0.42849 0.35948 0.01315 0.0
H375 H 0.35532 0.36255 0.06967 0.0
H376 H 0.43094 0.44633 0.03827 0.0
S377 S 0.37256 0.16181 0.99576 0.0
N378 N 0.33601 0.15947 0.02324 0.0
N379 N 0.41695 0.25066 0.98922 0.0
C380 C 0.40375 0.28266 0.00994 0.0
C381 C 0.3595 0.23329 0.02831 0.0
C382 C 0.12767 0.29556 0.35896 0.0
C383 C 0.09156 0.2188 0.351 0.0
C384 C 0.1227 0.34728 0.34515 0.0
C385 C 0.08132 0.32419 0.32289 0.0
H386 H 0.15932 0.31591 0.37617 0.0
H387 H 0.15056 0.40561 0.35211 0.0
S388 S 0.9824 0.1315 0.29261 0.0
N389 N 0.01676 0.12341 0.31851 0.0
N390 N 0.008 0.22088 0.2926 0.0
C391 C 0.04638 0.24813 0.31441 0.0
C392 C 0.05137 0.19541 0.32843 0.0
loop_
_geom_bond_atom_site_label_1
_geom_bond_atom_site_label_2
_geom_bond_distance
_geom_bond_site_symmetry_2
_ccdc_geom_bond_type
C0 O1 1.160 . S
C0 O7 1.185 1_565 S
O1 C0 1.160 . S
O2 Zn3 1.899 . S
O2 C10 1.284 . S
Zn3 O2 1.899 . S
Zn3 O4 2.032 . S
Zn3 O7 2.086 . S
Zn3 O12 1.977 . S
O4 Zn3 2.032 . S
O4 C8 1.278 . S
C5 O6 1.203 . S
C5 O12 1.267 . S
O6 C5 1.203 . S
O7 C0 1.185 1_545 S
O7 Zn3 2.086 . S
C8 O4 1.278 . S
C8 O9 1.211 . S
O9 C8 1.211 . S
C10 O2 1.284 . S
C10 O11 1.273 . S
O11 C10 1.273 . S
O12 Zn3 1.977 . S
O12 C5 1.267 . S
C13 O14 1.160 . S
C13 O20 1.185 . S
O14 C13 1.160 . S
O15 Zn16 1.899 . S
O15 C23 1.284 1_545 S
Zn16 O15 1.899 . S
Zn16 O17 2.032 . S
Zn16 O20 2.086 . S
Zn16 O25 1.977 . S
O17 Zn16 2.032 . S
O17 C21 1.278 . S
C18 O19 1.203 . S
C18 O25 1.267 . S
O19 C18 1.203 . S
O20 C13 1.185 . S
O20 Zn16 2.086 . S
C21 O17 1.278 . S
C21 O22 1.211 . S
O22 C21 1.211 . S
C23 O15 1.284 1_565 S
C23 O24 1.273 . S
O24 C23 1.273 . S
O25 Zn16 1.977 . S
O25 C18 1.267 . S
C26 O27 1.160 . S
C26 O33 1.185 . S
O27 C26 1.160 . S
O28 Zn29 1.899 . S
O28 C36 1.284 . S
Zn29 O28 1.899 . S
Zn29 O30 2.032 . S
Zn29 O33 2.086 . S
Zn29 O38 1.977 . S
O30 Zn29 2.032 . S
O30 C34 1.278 . S
C31 O32 1.203 1_565 S
C31 O38 1.267 1_565 S
O32 C31 1.203 1_545 S
O33 C26 1.185 . S
O33 Zn29 2.086 . S
C34 O30 1.278 . S
C34 O35 1.211 . S
O35 C34 1.211 . S
C36 O28 1.284 . S
C36 O37 1.273 . S
O37 C36 1.273 . S
O38 Zn29 1.977 . S
O38 C31 1.267 1_545 S
H39 O65 0.856 . S
H40 O68 0.854 . S
H41 C76 0.930 1_655 S
H42 C77 0.930 . S
H43 C79 0.930 . S
H44 C80 0.930 . S
H45 C82 0.931 1_655 S
H46 C83 0.930 . S
H47 C85 0.930 . S
H48 C86 0.929 . S
H49 C88 0.930 1_655 S
H50 C89 0.931 . S
H51 C91 0.930 . S
H52 C92 0.929 . S
H53 C94 0.931 1_655 S
H54 C95 0.932 . S
H55 C97 0.930 . S
H56 C98 0.932 . S
H57 C100 0.930 1_655 S
H58 C101 0.929 1_655 S
H59 C103 0.931 . S
H60 C104 0.930 . S
H61 C106 0.929 1_655 S
H62 C107 0.931 1_655 S
H63 C109 0.930 . S
H64 C110 0.929 . S
O65 H39 0.856 . S
O65 C111 1.300 . S
O66 C111 1.209 . S
O67 C112 1.199 . S
O68 H40 0.854 . S
O68 C112 1.297 1_545 S
C69 C70 1.404 . S
C69 C74 1.397 . S
C69 C75 1.492 . S
C70 C69 1.404 . S
C70 C71 1.396 . S
C70 C81 1.492 . S
C71 C70 1.396 . S
C71 C72 1.397 . S
C71 C87 1.509 . S
C72 C71 1.397 . S
C72 C73 1.412 . S
C72 C93 1.485 . S
C73 C72 1.412 . S
C73 C74 1.388 . S
C73 C99 1.490 . S
C74 C69 1.397 . S
C74 C73 1.388 . S
C74 C105 1.519 . S
C75 C69 1.492 . S
C75 C76 1.363 . S
C75 C80 1.390 . S
C76 H41 0.930 1_455 S
C76 C75 1.363 . S
C76 C77 1.372 1_455 S
C77 H42 0.930 . S
C77 C76 1.372 1_655 S
C77 C78 1.383 1_655 S
C78 C77 1.383 1_455 S
C78 C79 1.395 . S
C79 H43 0.930 . S
C79 C78 1.395 . S
C79 C80 1.362 . S
C80 H44 0.930 . S
C80 C75 1.390 . S
C80 C79 1.362 . S
C81 C70 1.492 . S
C81 C82 1.377 . S
C81 C86 1.397 . S
C82 H45 0.931 1_455 S
C82 C81 1.377 . S
C82 C83 1.376 . S
C83 H46 0.930 . S
C83 C82 1.376 . S
C83 C84 1.376 . S
C84 C83 1.376 . S
C84 C85 1.378 . S
C84 C111 1.486 . S
C85 H47 0.930 . S
C85 C84 1.378 . S
C85 C86 1.376 . S
C86 H48 0.929 . S
C86 C81 1.397 . S
C86 C85 1.376 . S
C87 C71 1.509 . S
C87 C88 1.391 . S
C87 C92 1.386 . S
C88 H49 0.930 1_455 S
C88 C87 1.391 . S
C88 C89 1.375 . S
C89 H50 0.931 . S
C89 C88 1.375 . S
C89 C90 1.375 . S
C90 C89 1.375 . S
C90 C91 1.361 . S
C91 H51 0.930 . S
C91 C90 1.361 . S
C91 C92 1.399 . S
C92 H52 0.929 . S
C92 C87 1.386 . S
C92 C91 1.399 . S
C93 C72 1.485 . S
C93 C94 1.394 . S
C93 C98 1.360 . S
C94 H53 0.931 1_455 S
C94 C93 1.394 . S
C94 C95 1.372 . S
C95 H54 0.932 . S
C95 C94 1.372 . S
C95 C96 1.397 . S
C96 C95 1.397 . S
C96 C97 1.390 . S
C96 C112 1.476 . S
C97 H55 0.930 . S
C97 C96 1.390 . S
C97 C98 1.366 . S
C98 H56 0.932 . S
C98 C93 1.360 . S
C98 C97 1.366 . S
C99 C73 1.490 . S
C99 C100 1.380 . S
C99 C104 1.386 . S
C100 H57 0.930 1_455 S
C100 C99 1.380 . S
C100 C101 1.381 . S
C101 H58 0.929 1_455 S
C101 C100 1.381 . S
C101 C102 1.371 . S
C102 C101 1.371 . S
C102 C103 1.380 . S
C103 H59 0.931 . S
C103 C102 1.380 . S
C103 C104 1.387 . S
C104 H60 0.930 . S
C104 C99 1.386 . S
C104 C103 1.387 . S
C105 C74 1.519 . S
C105 C106 1.377 . S
C105 C110 1.361 . S
C106 H61 0.929 1_455 S
C106 C105 1.377 . S
C106 C107 1.386 . S
C107 H62 0.931 1_455 S
C107 C106 1.386 . S
C107 C108 1.363 . S
C108 C107 1.363 . S
C108 C109 1.385 . S
C109 H63 0.930 . S
C109 C108 1.385 . S
C109 C110 1.396 . S
C110 H64 0.929 . S
C110 C105 1.361 . S
C110 C109 1.396 . S
C111 O65 1.300 . S
C111 O66 1.209 . S
C111 C84 1.486 . S
C112 O67 1.199 . S
C112 O68 1.297 1_565 S
C112 C96 1.476 . S
H113 O139 0.856 . S
H114 O142 0.854 . S
H115 C150 0.930 1_565 S
H116 C151 0.930 1_565 S
H117 C153 0.930 . S
H118 C154 0.930 . S
H119 C156 0.931 . S
H120 C157 0.930 . S
H121 C159 0.930 . S
H122 C160 0.929 . S
H123 C162 0.930 . S
H124 C163 0.931 . S
H125 C165 0.930 . S
H126 C166 0.929 . S
H127 C168 0.931 . S
H128 C169 0.930 . S
H129 C171 0.930 . S
H130 C172 0.932 . S
H131 C174 0.930 1_565 S
H132 C175 0.929 1_565 S
H133 C177 0.931 . S
H134 C178 0.930 . S
H135 C180 0.929 1_565 S
H136 C181 0.931 . S
H137 C183 0.930 . S
H138 C184 0.929 . S
O139 H113 0.856 . S
O139 C185 1.300 . S
O140 C185 1.209 . S
O141 C186 1.199 . S
O142 H114 0.854 . S
O142 C186 1.297 . S
C143 C144 1.404 . S
C143 C148 1.397 . S
C143 C149 1.492 . S
C144 C143 1.404 . S
C144 C145 1.396 . S
C144 C155 1.492 . S
C145 C144 1.396 . S
C145 C146 1.397 . S
C145 C161 1.509 . S
C146 C145 1.397 . S
C146 C147 1.412 . S
C146 C167 1.485 . S
C147 C146 1.412 . S
C147 C148 1.388 . S
C147 C173 1.490 . S
C148 C143 1.397 . S
C148 C147 1.388 . S
C148 C179 1.519 . S
C149 C143 1.492 . S
C149 C150 1.363 . S
C149 C154 1.390 . S
C150 H115 0.930 1_545 S
C150 C149 1.363 . S
C150 C151 1.372 . S
C151 H116 0.930 1_545 S
C151 C150 1.372 . S
C151 C152 1.383 . S
C152 C151 1.383 . S
C152 C153 1.395 . S
C153 H117 0.930 . S
C153 C152 1.395 . S
C153 C154 1.362 . S
C154 H118 0.930 . S
C154 C149 1.390 . S
C154 C153 1.362 . S
C155 C144 1.492 . S
C155 C156 1.377 . S
C155 C160 1.397 . S
C156 H119 0.931 . S
C156 C155 1.377 . S
C156 C157 1.376 . S
C157 H120 0.930 . S
C157 C156 1.376 . S
C157 C158 1.376 . S
C158 C157 1.376 . S
C158 C159 1.378 . S
C158 C185 1.486 . S
C159 H121 0.930 . S
C159 C158 1.378 . S
C159 C160 1.376 . S
C160 H122 0.929 . S
C160 C155 1.397 . S
C160 C159 1.376 . S
C161 C145 1.509 . S
C161 C162 1.391 . S
C161 C166 1.386 . S
C162 H123 0.930 . S
C162 C161 1.391 . S
C162 C163 1.375 . S
C163 H124 0.931 . S
C163 C162 1.375 . S
C163 C164 1.375 . S
C164 C163 1.375 . S
C164 C165 1.361 . S
C165 H125 0.930 . S
C165 C164 1.361 . S
C165 C166 1.399 . S
C166 H126 0.929 . S
C166 C161 1.386 . S
C166 C165 1.399 . S
C167 C146 1.485 . S
C167 C168 1.394 . S
C167 C172 1.360 . S
C168 H127 0.931 . S
C168 C167 1.394 . S
C168 C169 1.372 . S
C169 H128 0.930 . S
C169 C168 1.372 . S
C169 C170 1.397 . S
C170 C169 1.397 . S
C170 C171 1.390 . S
C170 C186 1.476 . S
C171 H129 0.930 . S
C171 C170 1.390 . S
C171 C172 1.366 . S
C172 H130 0.932 . S
C172 C167 1.360 . S
C172 C171 1.366 . S
C173 C147 1.490 . S
C173 C174 1.380 . S
C173 C178 1.386 . S
C174 H131 0.930 1_545 S
C174 C173 1.380 . S
C174 C175 1.381 . S
C175 H132 0.929 1_545 S
C175 C174 1.381 . S
C175 C176 1.371 . S
C176 C175 1.371 . S
C176 C177 1.380 . S
C177 H133 0.931 . S
C177 C176 1.380 . S
C177 C178 1.387 . S
C178 H134 0.930 . S
C178 C173 1.386 . S
C178 C177 1.387 . S
C179 C148 1.519 . S
C179 C180 1.377 . S
C179 C184 1.361 . S
C180 H135 0.929 1_545 S
C180 C179 1.377 . S
C180 C181 1.386 . S
C181 H136 0.931 . S
C181 C180 1.386 . S
C181 C182 1.363 . S
C182 C181 1.363 . S
C182 C183 1.385 . S
C183 H137 0.930 . S
C183 C182 1.385 . S
C183 C184 1.396 . S
C184 H138 0.929 . S
C184 C179 1.361 . S
C184 C183 1.396 . S
C185 O139 1.300 . S
C185 O140 1.209 . S
C185 C158 1.486 . S
C186 O141 1.199 . S
C186 O142 1.297 . S
C186 C170 1.476 . S
H187 O213 0.856 . S
H188 O216 0.854 . S
H189 C224 0.930 . S
H190 C225 0.930 . S
H191 C227 0.930 . S
H192 C228 0.930 . S
H193 C230 0.931 . S
H194 C231 0.930 . S
H195 C233 0.930 . S
H196 C234 0.929 . S
H197 C236 0.930 . S
H198 C237 0.931 . S
H199 C239 0.930 1_554 S
H200 C240 0.929 . S
H201 C242 0.931 . S
H202 C243 0.930 . S
H203 C245 0.930 . S
H204 C246 0.932 . S
H205 C248 0.930 . S
H206 C249 0.929 . S
H207 C251 0.931 . S
H208 C252 0.930 . S
H209 C254 0.929 . S
H210 C255 0.931 . S
H211 C257 0.930 . S
H212 C258 0.929 . S
O213 H187 0.856 . S
O213 C259 1.300 . S
O214 C259 1.209 . S
O215 C260 1.199 . S
O216 H188 0.854 . S
O216 C260 1.297 . S
C217 C218 1.404 . S
C217 C222 1.397 . S
C217 C223 1.492 . S
C218 C217 1.404 . S
C218 C219 1.396 . S
C218 C229 1.492 . S
C219 C218 1.396 . S
C219 C220 1.397 . S
C219 C235 1.509 . S
C220 C219 1.397 . S
C220 C221 1.412 . S
C220 C241 1.485 . S
C221 C220 1.412 . S
C221 C222 1.388 . S
C221 C247 1.490 . S
C222 C217 1.397 . S
C222 C221 1.388 . S
C222 C253 1.519 . S
C223 C217 1.492 . S
C223 C224 1.363 . S
C223 C228 1.390 . S
C224 H189 0.930 . S
C224 C223 1.363 . S
C224 C225 1.372 . S
C225 H190 0.930 . S
C225 C224 1.372 . S
C225 C226 1.383 . S
C226 C225 1.383 . S
C226 C227 1.395 . S
C227 H191 0.930 . S
C227 C226 1.395 . S
C227 C228 1.362 . S
C228 H192 0.930 . S
C228 C223 1.390 . S
C228 C227 1.362 . S
C229 C218 1.492 . S
C229 C230 1.377 . S
C229 C234 1.397 . S
C230 H193 0.931 . S
C230 C229 1.377 . S
C230 C231 1.376 1_556 S
C231 H194 0.930 . S
C231 C230 1.376 1_554 S
C231 C232 1.376 . S
C232 C231 1.376 . S
C232 C233 1.378 . S
C232 C259 1.486 . S
C233 H195 0.930 . S
C233 C232 1.378 . S
C233 C234 1.376 1_554 S
C234 H196 0.929 . S
C234 C229 1.397 . S
C234 C233 1.376 1_556 S
C235 C219 1.509 . S
C235 C236 1.391 . S
C235 C240 1.386 . S
C236 H197 0.930 . S
C236 C235 1.391 . S
C236 C237 1.375 . S
C237 H198 0.931 . S
C237 C236 1.375 . S
C237 C238 1.373 . S
C238 C237 1.373 . S
C238 C239 1.360 . S
C239 H199 0.930 1_556 S
C239 C238 1.360 . S
C239 C240 1.399 . S
C240 H200 0.929 . S
C240 C235 1.386 . S
C240 C239 1.399 . S
C241 C220 1.485 . S
C241 C242 1.394 . S
C241 C246 1.360 . S
C242 H201 0.931 . S
C242 C241 1.394 . S
C242 C243 1.372 . S
C243 H202 0.930 . S
C243 C242 1.372 . S
C243 C244 1.397 . S
C244 C243 1.397 . S
C244 C245 1.390 . S
C244 C260 1.476 . S
C245 H203 0.930 . S
C245 C244 1.390 . S
C245 C246 1.366 . S
C246 H204 0.932 . S
C246 C241 1.360 . S
C246 C245 1.366 . S
C247 C221 1.490 . S
C247 C248 1.380 . S
C247 C252 1.386 . S
C248 H205 0.930 . S
C248 C247 1.380 . S
C248 C249 1.381 . S
C249 H206 0.929 . S
C249 C248 1.381 . S
C249 C250 1.371 . S
C250 C249 1.371 . S
C250 C251 1.380 . S
C251 H207 0.931 . S
C251 C250 1.380 . S
C251 C252 1.387 . S
C252 H208 0.930 . S
C252 C247 1.386 . S
C252 C251 1.387 . S
C253 C222 1.519 . S
C253 C254 1.377 . S
C253 C258 1.361 . S
C254 H209 0.929 . S
C254 C253 1.377 . S
C254 C255 1.386 . S
C255 H210 0.931 . S
C255 C254 1.386 . S
C255 C256 1.363 . S
C256 C255 1.363 . S
C256 C257 1.385 . S
C257 H211 0.930 . S
C257 C256 1.385 . S
C257 C258 1.396 . S
C258 H212 0.929 . S
C258 C253 1.361 . S
C258 C257 1.396 . S
C259 O213 1.300 . S
C259 O214 1.209 . S
C259 C232 1.486 . S
C260 O215 1.199 . S
C260 O216 1.297 . S
C260 C244 1.476 . S
C261 C262 1.369 . S
C261 C263 1.419 1_455 S
C261 H265 0.930 1_455 S
C262 C261 1.369 . S
C262 C271 1.429 . S
C263 C261 1.419 1_655 S
C263 C264 1.363 1_655 S
C263 H266 0.929 . S
C264 C263 1.363 1_455 S
C264 C270 1.428 . S
H265 C261 0.930 1_655 S
H266 C263 0.929 . S
S267 N268 1.613 . S
S267 N269 1.610 . S
N268 S267 1.613 . S
N268 C271 1.350 . S
N269 S267 1.610 . S
N269 C270 1.351 . S
C270 C264 1.428 . S
C270 N269 1.351 . S
C270 C271 1.434 . S
C271 C262 1.429 . S
C271 N268 1.350 . S
C271 C270 1.434 . S
C272 C273 1.369 1_455 S
C272 C274 1.419 1_455 S
C272 H276 0.930 . S
C273 C272 1.369 1_655 S
C273 C282 1.429 . S
C274 C272 1.419 1_655 S
C274 C275 1.363 . S
C274 H277 0.929 1_655 S
C275 C274 1.363 . S
C275 C281 1.428 . S
H276 C272 0.930 . S
H277 C274 0.929 1_455 S
S278 N279 1.613 . S
S278 N280 1.610 . S
N279 S278 1.613 . S
N279 C282 1.350 . S
N280 S278 1.610 . S
N280 C281 1.351 . S
C281 C275 1.428 . S
C281 N280 1.351 . S
C281 C282 1.434 . S
C282 C273 1.429 . S
C282 N279 1.350 . S
C282 C281 1.434 . S
C283 C284 1.369 . S
C283 C285 1.419 . S
C283 H287 0.930 1_655 S
C284 C283 1.369 . S
C284 C293 1.429 . S
C285 C283 1.419 . S
C285 C286 1.363 . S
C285 H288 0.929 . S
C286 C285 1.363 . S
C286 C292 1.428 . S
H287 C283 0.930 1_455 S
H288 C285 0.929 . S
S289 N290 1.613 . S
S289 N291 1.610 1_545 S
N290 S289 1.613 . S
N290 C293 1.350 1_545 S
N291 S289 1.610 1_565 S
N291 C292 1.351 . S
C292 C286 1.428 . S
C292 N291 1.351 . S
C292 C293 1.434 . S
C293 C284 1.429 . S
C293 N290 1.350 1_565 S
C293 C292 1.434 . S
C294 C295 1.369 . S
C294 C296 1.419 . S
C294 H298 0.930 . S
C295 C294 1.369 . S
C295 C304 1.429 . S
C296 C294 1.419 . S
C296 C297 1.363 . S
C296 H299 0.929 . S
C297 C296 1.363 . S
C297 C303 1.428 . S
H298 C294 0.930 . S
H299 C296 0.929 . S
S300 N301 1.613 1_655 S
S300 N302 1.610 1_655 S
N301 S300 1.613 1_455 S
N301 C304 1.350 . S
N302 S300 1.610 1_455 S
N302 C303 1.351 . S
C303 C297 1.428 . S
C303 N302 1.351 . S
C303 C304 1.434 . S
C304 C295 1.429 . S
C304 N301 1.350 . S
C304 C303 1.434 . S
C305 C306 1.369 . S
C305 C307 1.419 . S
C305 H309 0.930 . S
C306 C305 1.369 . S
C306 C315 1.429 . S
C307 C305 1.419 . S
C307 C308 1.363 . S
C307 H310 0.929 . S
C308 C307 1.363 . S
C308 C314 1.428 . S
H309 C305 0.930 . S
H310 C307 0.929 . S
S311 N312 1.613 . S
S311 N313 1.610 . S
N312 S311 1.613 . S
N312 C315 1.350 . S
N313 S311 1.610 . S
N313 C314 1.351 . S
C314 C308 1.428 . S
C314 N313 1.351 . S
C314 C315 1.434 . S
C315 C306 1.429 . S
C315 N312 1.350 . S
C315 C314 1.434 . S
C316 C317 1.369 . S
C316 C318 1.419 . S
C316 H320 0.930 . S
C317 C316 1.369 . S
C317 C326 1.429 . S
C318 C316 1.419 . S
C318 C319 1.363 . S
C318 H321 0.929 . S
C319 C318 1.363 . S
C319 C325 1.428 . S
H320 C316 0.930 . S
H321 C318 0.929 . S
S322 N323 1.613 . S
S322 N324 1.610 . S
N323 S322 1.613 . S
N323 C326 1.350 . S
N324 S322 1.610 . S
N324 C325 1.351 . S
C325 C319 1.428 . S
C325 N324 1.351 . S
C325 C326 1.434 . S
C326 C317 1.429 . S
C326 N323 1.350 . S
C326 C325 1.434 . S
C327 C328 1.369 . S
C327 C329 1.419 1_455 S
C327 H331 0.930 . S
C328 C327 1.369 . S
C328 C337 1.429 1_455 S
C329 C327 1.419 1_655 S
C329 C330 1.363 . S
C329 H332 0.928 . S
C330 C329 1.363 . S
C330 C336 1.428 . S
H331 C327 0.930 . S
H332 C329 0.928 . S
S333 N334 1.613 1_565 S
S333 N335 1.610 . S
N334 S333 1.613 1_545 S
N334 C337 1.353 . S
N335 S333 1.610 . S
N335 C336 1.351 1_565 S
C336 C330 1.428 . S
C336 N335 1.351 1_545 S
C336 C337 1.434 . S
C337 C328 1.429 1_655 S
C337 N334 1.353 . S
C337 C336 1.434 . S
C338 C339 1.369 . S
C338 C340 1.419 1_554 S
C338 H342 0.930 1_655 S
C339 C338 1.369 . S
C339 C348 1.429 . S
C340 C338 1.419 1_556 S
C340 C341 1.363 . S
C340 H343 0.929 . S
C341 C340 1.363 . S
C341 C347 1.428 . S
H342 C338 0.930 1_455 S
H343 C340 0.929 . S
S344 N345 1.613 . S
S344 N346 1.610 1_554 S
N345 S344 1.613 . S
N345 C348 1.350 . S
N346 S344 1.610 1_556 S
N346 C347 1.351 . S
C347 C341 1.428 . S
C347 N346 1.351 . S
C347 C348 1.434 1_556 S
C348 C339 1.429 . S
C348 N345 1.350 . S
C348 C347 1.434 1_554 S
C349 C350 1.369 . S
C349 C351 1.419 . S
C349 H353 0.930 . S
C350 C349 1.369 . S
C350 C359 1.429 . S
C351 C349 1.419 . S
C351 C352 1.363 . S
C351 H354 0.929 . S
C352 C351 1.363 . S
C352 C358 1.428 . S
H353 C349 0.930 . S
H354 C351 0.929 . S
S355 N356 1.613 . S
S355 N357 1.610 . S
N356 S355 1.613 . S
N356 C359 1.350 1_655 S
N357 S355 1.610 . S
N357 C358 1.351 1_655 S
C358 C352 1.428 . S
C358 N357 1.351 1_455 S
C358 C359 1.434 . S
C359 C350 1.429 . S
C359 N356 1.350 1_455 S
C359 C358 1.434 . S
C360 C361 1.369 . S
C360 C362 1.419 . S
C360 H364 0.930 1_545 S
C361 C360 1.369 . S
C361 C370 1.429 . S
C362 C360 1.419 . S
C362 C363 1.363 . S
C362 H365 0.929 1_545 S
C363 C362 1.363 . S
C363 C369 1.428 . S
H364 C360 0.930 1_565 S
H365 C362 0.929 1_565 S
S366 N367 1.613 . S
S366 N368 1.610 . S
N367 S366 1.613 . S
N367 C370 1.350 . S
N368 S366 1.610 . S
N368 C369 1.351 . S
C369 C363 1.428 . S
C369 N368 1.351 . S
C369 C370 1.434 . S
C370 C361 1.429 . S
C370 N367 1.350 . S
C370 C369 1.434 . S
C371 C372 1.369 . S
C371 C373 1.419 . S
C371 H375 0.930 . S
C372 C371 1.369 . S
C372 C381 1.429 . S
C373 C371 1.419 . S
C373 C374 1.363 . S
C373 H376 0.929 . S
C374 C373 1.363 . S
C374 C380 1.428 . S
H375 C371 0.930 . S
H376 C373 0.929 . S
S377 N378 1.613 1_556 S
S377 N379 1.610 . S
N378 S377 1.613 1_554 S
N378 C381 1.350 . S
N379 S377 1.610 . S
N379 C380 1.351 1_556 S
C380 C374 1.428 . S
C380 N379 1.351 1_554 S
C380 C381 1.434 . S
C381 C372 1.429 . S
C381 N378 1.350 . S
C381 C380 1.434 . S
C382 C383 1.369 . S
C382 C384 1.419 . S
C382 H386 0.930 . S
C383 C382 1.369 . S
C383 C392 1.429 . S
C384 C382 1.419 . S
C384 C385 1.363 . S
C384 H387 0.929 . S
C385 C384 1.363 . S
C385 C391 1.428 . S
H386 C382 0.930 . S
H387 C384 0.929 . S
S388 N389 1.613 . S
S388 N390 1.610 . S
N389 S388 1.613 . S
N389 C392 1.350 . S
N390 S388 1.610 . S
N390 C391 1.351 . S
C391 C385 1.428 . S
C391 N390 1.351 . S
C391 C392 1.434 . S
C392 C383 1.429 . S
C392 N389 1.350 . S
C392 C391 1.434 . S
C264 C78 1.426 . S
C262 C10 1.561 . S
C273 C21 1.461 1_655 S
C275 C152 1.450 . S
C284 C31 1.928 1_655 S
C286 C256 2.022 . S
C295 C0 0.860 . S
C297 C90 0.881 . S
C308 C164 0.878 . S
C306 C18 0.869 . S
C317 C34 1.747 . S
C319 C250 1.524 . S
C330 C182 2.016 . S
C328 C36 2.020 . S
C339 C8 1.470 1_665 S
C341 C226 1.441 . S
C352 C102 1.518 . S
C350 C23 1.691 . S
C363 C176 1.430 . S
C361 C26 1.607 . S
C374 C238 0.899 1_554 S
C372 C5 0.881 . S
C383 C13 1.954 . S
C385 C108 2.023 . S
