# Generated by pormake.
# Topology zzz, (3,6)-cn, num edge types: 1
# Building blocks:
#     Node 0, Type 0, BuildingBlock: BELTOD_clean_linker_0, # of connection points: 3
#     Node 1, Type 0, BuildingBlock: BELTOD_clean_linker_0, # of connection points: 3
#     Node 2, Type 0, BuildingBlock: BELTOD_clean_linker_0, # of connection points: 3
#     Node 3, Type 0, BuildingBlock: BELTOD_clean_linker_0, # of connection points: 3
#     Node 4, Type 0, BuildingBlock: BELTOD_clean_linker_0, # of connection points: 3
#     Node 5, Type 0, BuildingBlock: BELTOD_clean_linker_0, # of connection points: 3
#     Node 6, Type 0, BuildingBlock: BELTOD_clean_linker_0, # of connection points: 3
#     Node 7, Type 0, BuildingBlock: BELTOD_clean_linker_0, # of connection points: 3
#     Node 8, Type 1, BuildingBlock: KUMBOL_clean_sbu_0, # of connection points: 6
#     Node 9, Type 1, BuildingBlock: KUMBOL_clean_sbu_0, # of connection points: 6
#     Node 10, Type 1, BuildingBlock: KUMBOL_clean_sbu_0, # of connection points: 6
#     Node 11, Type 1, BuildingBlock: KUMBOL_clean_sbu_0, # of connection points: 6
#     Edge 12, Type (0, 1), BuildingBlock: CIFDUS_clean_linker_0, # of connection points: 2
#     Edge 13, Type (0, 1), BuildingBlock: CIFDUS_clean_linker_0, # of connection points: 2
#     Edge 14, Type (0, 1), BuildingBlock: CIFDUS_clean_linker_0, # of connection points: 2
#     Edge 15, Type (0, 1), BuildingBlock: CIFDUS_clean_linker_0, # of connection points: 2
#     Edge 16, Type (0, 1), BuildingBlock: CIFDUS_clean_linker_0, # of connection points: 2
#     Edge 17, Type (0, 1), BuildingBlock: CIFDUS_clean_linker_0, # of connection points: 2
#     Edge 18, Type (0, 1), BuildingBlock: CIFDUS_clean_linker_0, # of connection points: 2
#     Edge 19, Type (0, 1), BuildingBlock: CIFDUS_clean_linker_0, # of connection points: 2
#     Edge 20, Type (0, 1), BuildingBlock: CIFDUS_clean_linker_0, # of connection points: 2
#     Edge 21, Type (0, 1), BuildingBlock: CIFDUS_clean_linker_0, # of connection points: 2
#     Edge 22, Type (0, 1), BuildingBlock: CIFDUS_clean_linker_0, # of connection points: 2
#     Edge 23, Type (0, 1), BuildingBlock: CIFDUS_clean_linker_0, # of connection points: 2
#     Edge 24, Type (0, 1), BuildingBlock: CIFDUS_clean_linker_0, # of connection points: 2
#     Edge 25, Type (0, 1), BuildingBlock: CIFDUS_clean_linker_0, # of connection points: 2
#     Edge 26, Type (0, 1), BuildingBlock: CIFDUS_clean_linker_0, # of connection points: 2
#     Edge 27, Type (0, 1), BuildingBlock: CIFDUS_clean_linker_0, # of connection points: 2
#     Edge 28, Type (0, 1), BuildingBlock: CIFDUS_clean_linker_0, # of connection points: 2
#     Edge 29, Type (0, 1), BuildingBlock: CIFDUS_clean_linker_0, # of connection points: 2
#     Edge 30, Type (0, 1), BuildingBlock: CIFDUS_clean_linker_0, # of connection points: 2
#     Edge 31, Type (0, 1), BuildingBlock: CIFDUS_clean_linker_0, # of connection points: 2
#     Edge 32, Type (0, 1), BuildingBlock: CIFDUS_clean_linker_0, # of connection points: 2
#     Edge 33, Type (0, 1), BuildingBlock: CIFDUS_clean_linker_0, # of connection points: 2
#     Edge 34, Type (0, 1), BuildingBlock: CIFDUS_clean_linker_0, # of connection points: 2
#     Edge 35, Type (0, 1), BuildingBlock: CIFDUS_clean_linker_0, # of connection points: 2
# Relax obj value: 0.304
# Max RMSD: 0.209
# Mean RMSD: 0.203
data_MOF--net-zzz--node1-KUMBOL_clean_sbu_0--node2-BELTOD_clean_linker_0--edge1-CIFDUS_clean_linker_0
_symmetry_space_group_name_H-M    P1
_symmetry_Int_Tables_number       1
_symmetry_cell_setting            triclinic
loop_
_symmetry_equiv_pos_as_xyz
'x, y, z'
_cell_length_a     47.718845
_cell_length_b     47.594637
_cell_length_c     16.51768
_cell_angle_alpha  90.69243
_cell_angle_beta   89.935866
_cell_angle_gamma 89.934851
loop_
_atom_site_label
_atom_site_type_symbol
_atom_site_fract_x
_atom_site_fract_y
_atom_site_fract_z
_atom_type_partial_charge
P0 P 0.74158 0.51009 0.20334 0.0
H1 H 0.76363 0.46996 0.32177 0.0
H2 H 0.8009 0.47305 0.42112 0.0
H3 H 0.80382 0.563 0.39103 0.0
H4 H 0.76517 0.55992 0.29524 0.0
H5 H 0.69203 0.47576 0.23118 0.0
H6 H 0.64617 0.4767 0.17061 0.0
H7 H 0.66099 0.56162 0.09025 0.0
H8 H 0.70806 0.55946 0.14663 0.0
H9 H 0.76599 0.48794 0.05341 0.0
H10 H 0.75669 0.56946 0.16769 0.0
O11 O 0.74384 0.47567 0.18309 0.0
H12 H 0.7977 0.50751 0.95579 0.0
H13 H 0.78934 0.58933 0.06983 0.0
C14 C 0.76175 0.5146 0.29741 0.0
C15 C 0.77172 0.49057 0.3372 0.0
C16 C 0.79361 0.49229 0.39384 0.0
C17 C 0.80653 0.51815 0.4128 0.0
C18 C 0.79492 0.54254 0.37806 0.0
C19 C 0.77271 0.54078 0.32185 0.0
C20 C 0.70415 0.51728 0.19292 0.0
C21 C 0.68531 0.49495 0.20242 0.0
C22 C 0.65861 0.49562 0.16715 0.0
C23 C 0.64931 0.51909 0.1229 0.0
C24 C 0.66729 0.54265 0.12072 0.0
C25 C 0.69436 0.54167 0.15476 0.0
C26 C 0.76008 0.52678 0.12131 0.0
C27 C 0.77044 0.51019 0.05738 0.0
C28 C 0.78836 0.52164 1.0001 0.0
C29 C 0.79646 0.55003 1.00545 0.0
C30 C 0.78389 0.56729 0.06487 0.0
C31 C 0.76562 0.55577 0.12191 0.0
P32 P 0.99615 0.76405 0.15159 0.0
H33 H 0.03045 0.81423 0.14873 0.0
H34 H 0.04025 0.85145 0.24333 0.0
H35 H 0.99777 0.80616 0.43206 0.0
H36 H 0.98708 0.76803 0.33336 0.0
H37 H 0.04149 0.72375 0.12219 0.0
H38 H 0.04046 0.67773 0.05739 0.0
H39 H 0.9513 0.67281 0.10179 0.0
H40 H 0.95246 0.7198 0.16238 0.0
H41 H 0.95028 0.79576 0.23518 0.0
H42 H 0.96612 0.75894 0.99998 0.0
O43 O 0.0166 0.7721 0.07303 0.0
H44 H 0.91584 0.82721 0.17634 0.0
H45 H 0.93286 0.79061 0.94022 0.0
C46 C 0.00879 0.78731 0.23337 0.0
C47 C 0.0238 0.81137 0.21069 0.0
C48 C 0.02941 0.83314 0.26571 0.0
C49 C 0.02033 0.83204 0.34667 0.0
C50 C 1.00526 0.80789 0.37044 0.0
C51 C 0.99955 0.78575 0.31434 0.0
C52 C 0.99708 0.72569 0.14736 0.0
C53 C 0.02183 0.7124 0.1209 0.0
C54 C 0.02112 0.6858 0.08283 0.0
C55 C 0.99561 0.67127 0.07133 0.0
C56 C 0.97129 0.68343 0.10607 0.0
C57 C 0.972 0.71028 0.14299 0.0
C58 C 0.9621 0.77634 0.12079 0.0
C59 C 0.94589 0.79385 0.1712 0.0
C60 C 0.926 0.81184 0.1373 0.0
C61 C 0.92299 0.81313 0.05251 0.0
C62 C 0.93504 0.7913 1.0054 0.0
C63 C 0.95454 0.77312 0.03947 0.0
P64 P 0.77547 0.00879 0.23134 0.0
H65 H 0.74308 0.05192 0.31628 0.0
H66 H 0.70228 0.05116 0.40237 0.0
H67 H 0.70784 0.96087 0.41586 0.0
H68 H 0.75016 0.96175 0.32966 0.0
H69 H 0.83236 0.03124 0.25135 0.0
H70 H 0.87382 0.01986 0.17281 0.0
H71 H 0.83771 0.93959 0.10717 0.0
H72 H 0.79566 0.95164 0.18454 0.0
H73 H 0.77622 0.03092 0.06844 0.0
H74 H 0.73984 0.95994 0.18948 0.0
O75 O 0.78134 0.04313 0.2201 0.0
H76 H 0.7527 0.0174 0.9443 0.0
H77 H 0.71676 0.94553 0.06401 0.0
C78 C 0.75021 1.00686 0.31519 0.0
C79 C 0.73631 0.03177 0.33859 0.0
C80 C 0.71236 0.03135 0.38753 0.0
C81 C 0.701 1.00593 0.4148 0.0
C82 C 0.71577 0.98091 0.39573 0.0
C83 C 0.74008 0.98138 0.34627 0.0
C84 C 0.81015 0.99277 0.2226 0.0
C85 C 0.83361 0.01064 0.22301 0.0
C86 C 0.85758 1.00409 0.17708 0.0
C87 C 0.85902 0.97915 0.1303 0.0
C88 C 0.83712 0.95951 0.13949 0.0
C89 C 0.81308 0.96617 0.18544 0.0
C90 C 0.75839 0.99747 0.1396 0.0
C91 C 0.76313 0.01235 0.06836 0.0
C92 C 0.75021 1.00407 0.99646 0.0
C93 C 0.73254 0.98041 0.994 0.0
C94 C 0.7298 0.96414 0.06412 0.0
C95 C 0.74261 0.97265 0.13638 0.0
P96 P 0.51893 0.78529 0.2251 0.0
H97 H 0.47653 0.74956 0.29715 0.0
H98 H 0.47952 0.71169 0.39257 0.0
H99 H 0.56332 0.73788 0.45693 0.0
H100 H 0.56021 0.77604 0.35862 0.0
H101 H 0.5014 0.84002 0.29368 0.0
H102 H 0.50409 0.88699 0.23567 0.0
H103 H 0.5626 0.85551 0.05606 0.0
H104 H 0.56126 0.8101 0.11707 0.0
H105 H 0.50326 0.75502 0.0771 0.0
H106 H 0.57711 0.76485 0.22502 0.0
O107 O 0.48589 0.78636 0.19204 0.0
H108 H 0.52576 0.71754 1.00171 0.0
H109 H 0.60018 0.72685 0.14899 0.0
C110 C 0.51804 0.7662 0.3203 0.0
C111 C 0.49527 0.7481 0.33372 0.0
C112 C 0.49704 0.72604 0.38889 0.0
C113 C 0.52179 0.72111 0.43273 0.0
C114 C 0.54402 0.74047 0.42345 0.0
C115 C 0.54216 0.76271 0.36786 0.0
C116 C 0.53118 0.82113 0.21086 0.0
C117 C 0.51594 0.84366 0.24453 0.0
C118 C 0.517 0.87051 0.20957 0.0
C119 C 0.53297 0.87538 0.1389 0.0
C120 C 0.55011 0.85327 0.11027 0.0
C121 C 0.54933 0.82674 0.1459 0.0
C122 C 0.53812 0.76206 0.15845 0.0
C123 C 0.52461 0.74953 0.09234 0.0
C124 C 0.53783 0.72823 0.0482 0.0
C125 C 0.56489 0.71896 0.06947 0.0
C126 C 0.57928 0.73328 0.1316 0.0
C127 C 0.56599 0.75477 0.1756 0.0
P128 P 0.29142 0.45813 0.05601 0.0
H129 H 0.28533 0.45705 0.87897 0.0
H130 H 0.24556 0.46931 0.79399 0.0
H131 H 0.20767 0.51381 0.99549 0.0
H132 H 0.24813 0.50212 0.07972 0.0
H133 H 0.34483 0.43376 0.10153 0.0
H134 H 0.38357 0.45011 0.18512 0.0
H135 H 0.3449 0.5319 0.20497 0.0
H136 H 0.30568 0.51521 0.12013 0.0
H137 H 0.23685 0.43181 0.04848 0.0
H138 H 0.29337 0.46001 0.23614 0.0
O139 O 0.30147 0.42898 1.00679 0.0
H140 H 0.199 0.43012 0.14535 0.0
H141 H 0.25608 0.45609 0.33568 0.0
C142 C 0.26982 0.47831 0.98645 0.0
C143 C 0.26909 0.4704 0.90434 0.0
C144 C 0.24594 0.47708 0.85587 0.0
C145 C 0.22275 0.4918 0.88822 0.0
C146 C 0.22493 0.50235 0.96813 0.0
C147 C 0.24829 0.49581 0.01651 0.0
C148 C 0.32253 0.47342 0.10237 0.0
C149 C 0.34486 0.45547 0.12186 0.0
C150 C 0.36694 0.46473 0.17098 0.0
C151 C 0.36737 0.49225 0.20262 0.0
C152 C 0.34538 0.51061 0.18121 0.0
C153 C 0.32301 0.50117 0.13222 0.0
C154 C 0.26757 0.44723 0.13414 0.0
C155 C 0.24136 0.43663 0.1114 0.0
C156 C 0.21966 0.43535 0.16772 0.0
C157 C 0.22403 0.44388 0.24875 0.0
C158 C 0.25153 0.45055 0.27332 0.0
C159 C 0.27305 0.45264 0.21622 0.0
P160 P 0.0709 0.28111 0.08949 0.0
H161 H 0.06611 0.2717 0.91334 0.0
H162 H 0.05319 0.23019 0.83371 0.0
H163 H 0.02235 0.19072 0.05038 0.0
H164 H 0.03425 0.23281 0.12874 0.0
H165 H 0.09545 0.3346 0.13621 0.0
H166 H 0.07908 0.37473 0.21573 0.0
H167 H 0.99654 0.33789 0.22686 0.0
H168 H 0.01327 0.29751 0.14539 0.0
H169 H 0.11312 0.23683 0.09763 0.0
H170 H 0.05705 0.27972 0.26284 0.0
O171 O 0.09845 0.29103 0.03442 0.0
H172 H 0.12209 0.20116 0.19995 0.0
H173 H 0.06515 0.24446 0.36301 0.0
C174 C 0.05136 0.25569 0.02763 0.0
C175 C 0.05568 0.25455 0.94349 0.0
C176 C 0.04872 0.23036 0.89798 0.0
C177 C 0.03735 0.20637 0.93525 0.0
C178 C 0.03102 0.20848 0.01866 0.0
C179 C 0.03778 0.23282 0.06398 0.0
C180 C 0.05548 0.31318 0.1324 0.0
C181 C 0.07358 0.33535 0.15369 0.0
C182 C 0.06428 0.35824 0.20078 0.0
C183 C 0.03649 0.35969 0.22902 0.0
C184 C 0.01804 0.33776 0.20589 0.0
C185 C 0.02749 0.31466 0.15864 0.0
C186 C 0.08439 0.26095 0.17232 0.0
C187 C 0.10355 0.23917 0.15683 0.0
C188 C 0.10854 0.21871 0.21523 0.0
C189 C 0.09417 0.21964 0.28967 0.0
C190 C 0.07703 0.24305 0.30722 0.0
C191 C 0.0721 0.26337 0.24905 0.0
P192 P 0.24569 0.07079 0.06839 0.0
H193 H 0.26005 0.06689 0.89448 0.0
H194 H 0.29951 0.0455 0.82327 0.0
H195 H 0.32421 1.00465 0.04481 0.0
H196 H 0.28346 0.02432 0.11267 0.0
H197 H 0.18973 0.09508 0.08524 0.0
H198 H 0.14944 0.08314 0.16903 0.0
H199 H 0.18971 1.00556 0.2352 0.0
H200 H 0.23049 0.01791 0.15157 0.0
H201 H 0.30539 0.08378 0.08698 0.0
H202 H 0.23131 0.08879 0.2362 0.0
O203 O 0.23801 0.0984 0.01113 0.0
H204 H 0.33442 0.08515 0.20591 0.0
H205 H 0.2603 0.09312 0.35628 0.0
C206 C 0.26856 0.04737 1.00945 0.0
C207 C 0.27339 0.05249 0.92698 0.0
C208 C 0.2966 0.0406 0.88648 0.0
C209 C 0.31614 0.02365 0.92767 0.0
C210 C 0.31001 0.01718 1.00925 0.0
C211 C 0.28637 0.02847 0.04888 0.0
C212 C 0.21308 0.05709 0.10994 0.0
C213 C 0.1897 0.07505 0.11558 0.0
C214 C 0.16672 0.06842 0.16477 0.0
C215 C 0.16632 0.0435 0.20958 0.0
C216 C 0.1892 0.02486 0.20116 0.0
C217 C 0.21247 0.03175 0.15264 0.0
C218 C 0.26619 0.08362 0.15298 0.0
C219 C 0.29532 0.08585 0.14553 0.0
C220 C 0.31206 0.08724 0.21456 0.0
C221 C 0.29985 0.08764 0.29247 0.0
C222 C 0.27056 0.09097 0.29807 0.0
C223 C 0.25383 0.08859 0.22892 0.0
P224 P 0.44156 0.23688 0.02631 0.0
H225 H 0.44997 0.24599 0.85211 0.0
H226 H 0.47216 0.28479 0.78175 0.0
H227 H 0.51089 0.31175 1.00587 0.0
H228 H 0.48952 0.27213 0.07483 0.0
H229 H 0.40903 0.18767 0.06634 0.0
H230 H 0.4162 0.14939 0.16072 0.0
H231 H 0.50078 0.17767 0.20349 0.0
H232 H 0.49331 0.21672 0.10875 0.0
H233 H 0.42156 0.29387 1.00751 0.0
H234 H 0.43405 0.23684 0.20525 0.0
O235 O 0.41501 0.22941 0.964 0.0
H236 H 0.4212 0.33315 0.10132 0.0
H237 H 0.43118 0.27585 0.30099 0.0
C238 C 0.46788 0.256 0.9692 0.0
C239 C 0.46418 0.25949 0.8856 0.0
C240 C 0.47652 0.2822 0.84553 0.0
C241 C 0.49272 0.30222 0.8882 0.0
C242 C 0.49863 0.29699 0.97036 0.0
C243 C 0.48654 0.27403 1.01013 0.0
C244 C 0.45081 0.20485 0.07876 0.0
C245 C 0.42947 0.18529 0.0938 0.0
C246 C 0.43348 0.16347 0.14848 0.0
C247 C 0.45902 0.16051 0.18965 0.0
C248 C 0.48096 0.17928 0.17198 0.0
C249 C 0.47677 0.20151 0.1176 0.0
C250 C 0.42903 0.26258 0.09877 0.0
C251 C 0.42297 0.28967 0.0717 0.0
C252 C 0.42252 0.31227 0.12616 0.0
C253 C 0.42726 0.30801 0.20933 0.0
C254 C 0.42881 0.28017 0.23717 0.0
C255 C 0.4302 0.25766 0.1822 0.0
Gd256 Gd 0.98367 0.01645 0.61328 0.0
Gd257 Gd 0.04721 0.01299 0.73899 0.0
C258 C 0.09052 0.08736 0.86466 0.0
C259 C 0.13257 0.09276 0.78323 0.0
C260 C 0.09942 0.05533 0.75271 0.0
C261 C 0.08236 0.06441 0.81517 0.0
C262 C 0.12497 0.06908 0.7367 0.0
C263 C 0.11538 0.10186 0.84722 0.0
C264 C 0.07381 0.09459 0.93135 0.0
C265 C 0.05009 0.07861 0.94841 0.0
N266 N 0.05845 0.04996 0.82999 0.0
C267 C 0.04286 0.0561 0.89735 0.0
H268 H 0.02436 0.04425 0.91123 0.0
C269 C 0.10917 0.02069 0.65287 0.0
N270 N 0.09155 0.03226 0.70962 0.0
C271 C 0.13456 0.03375 0.6341 0.0
C272 C 0.14237 0.05824 0.67561 0.0
H273 H 0.10317 1.00194 0.61984 0.0
H274 H 0.1218 0.11975 0.88391 0.0
H275 H 0.01273 0.98903 0.43999 0.0
H276 H 0.07929 0.1121 0.97072 0.0
H277 H 0.03721 0.08374 1.0005 0.0
H278 H 0.15198 0.10377 0.77143 0.0
H279 H 0.92437 0.02274 0.71872 0.0
H280 H 0.96183 0.92133 0.35667 0.0
H281 H 1.00384 0.95117 0.34309 0.0
H282 H 0.88327 0.92342 0.53699 0.0
H283 H 0.14804 0.02495 0.58751 0.0
H284 H 0.16211 0.06825 0.66121 0.0
H285 H 0.91713 0.91087 0.43006 0.0
H286 H 0.8791 0.99822 0.734 0.0
N287 N 0.97671 0.98079 0.51331 0.0
C288 C 0.96564 0.93804 0.40042 0.0
C289 C 0.98936 0.95483 0.3926 0.0
C290 C 0.94681 0.94344 0.46355 0.0
C291 C 0.95288 0.96536 0.51926 0.0
C292 C 0.99438 0.97642 0.4489 0.0
N293 N 0.93984 0.9943 0.62883 0.0
C294 C 0.93393 0.97224 0.57933 0.0
C295 C 0.89436 0.99058 0.69047 0.0
C296 C 0.88865 0.9668 0.64313 0.0
C297 C 0.91999 1.00441 0.68157 0.0
C298 C 0.90829 0.95765 0.58558 0.0
H299 H 0.86874 0.95614 0.64989 0.0
O300 O 0.95061 0.04604 0.58542 0.0
O301 O 0.01351 0.04025 0.69187 0.0
O302 O 0.00756 0.00969 0.81628 0.0
O303 O 0.97289 0.99295 0.72899 0.0
O304 O 0.97181 0.05039 0.70511 0.0
O305 O 0.98671 0.04243 0.50642 0.0
O306 O 0.0763 0.97915 0.76383 0.0
O307 O 0.01625 0.98881 0.66418 0.0
O308 O 0.02459 0.0206 0.53995 0.0
O309 O 0.05601 0.04032 0.63145 0.0
O310 O 0.05764 0.97812 0.64823 0.0
O311 O 0.04771 0.99382 0.85749 0.0
C312 C 0.99678 0.05681 0.72802 0.0
C313 C 0.90271 0.93506 0.53264 0.0
C314 C 0.92196 0.92795 0.4717 0.0
C315 C 0.9653 0.05778 0.52876 0.0
C316 C 0.97013 0.08817 0.54034 0.0
C317 C 0.94797 0.10549 0.56631 0.0
C318 C 0.99714 0.09966 0.53277 0.0
C319 C 1.00194 0.12829 0.54919 0.0
C320 C 0.95272 0.13373 0.58497 0.0
C321 C 0.97946 0.14513 0.57636 0.0
C322 C 0.9828 0.99767 0.80307 0.0
C323 C 0.0324 0.97177 0.62775 0.0
C324 C 0.0632 0.97301 0.83073 0.0
C325 C 0.05025 0.94482 0.83201 0.0
C326 C 0.06154 0.92293 0.78418 0.0
C327 C 0.02411 0.94089 0.86976 0.0
C328 C 0.00879 0.91607 0.85715 0.0
C329 C 0.04654 0.89813 0.77185 0.0
C330 C 0.02027 0.89474 0.80745 0.0
C331 C 0.04822 0.03427 0.55659 0.0
H332 H 0.92705 0.09705 0.57353 0.0
H333 H 0.01448 0.0864 0.51402 0.0
H334 H 0.93554 0.14693 0.6052 0.0
H335 H 0.98221 0.16739 0.58802 0.0
H336 H 0.08151 0.92539 0.7538 0.0
H337 H 0.01523 0.95745 0.90728 0.0
H338 H 0.05522 0.88154 0.73404 0.0
H339 H 0.00935 0.87504 0.79801 0.0
Gd340 Gd 0.50984 0.98271 0.6055 0.0
Gd341 Gd 0.50465 0.05091 0.71367 0.0
C342 C 0.42518 0.0855 0.83583 0.0
C343 C 0.41357 0.12496 0.75019 0.0
C344 C 0.45474 0.09631 0.72128 0.0
C345 C 0.44871 0.07951 0.78652 0.0
C346 C 0.43761 0.11962 0.70338 0.0
C347 C 0.40737 0.10793 0.81634 0.0
C348 C 0.42039 0.06898 0.90381 0.0
C349 C 0.43918 0.0476 0.92235 0.0
N350 N 0.46626 0.05783 0.80323 0.0
C351 C 0.46225 0.04251 0.87194 0.0
H352 H 0.47641 0.02607 0.88893 0.0
C353 C 0.48714 0.10916 0.62014 0.0
N354 N 0.4782 0.09075 0.67776 0.0
C355 C 0.47076 0.13236 0.59958 0.0
C356 C 0.44563 0.13738 0.64056 0.0
H357 H 0.50659 0.1053 0.58816 0.0
H358 H 0.38906 0.11259 0.85296 0.0
H359 H 0.54043 0.99965 0.42842 0.0
H360 H 0.4025 0.07281 0.94291 0.0
H361 H 0.43592 0.03496 0.97556 0.0
H362 H 0.40002 0.14259 0.73692 0.0
H363 H 0.50237 0.93147 0.74105 0.0
H364 H 0.61489 0.95067 0.4 0.0
H365 H 0.58232 0.98692 0.34966 0.0
H366 H 0.61176 0.88843 0.62556 0.0
H367 H 0.47751 0.14631 0.55212 0.0
H368 H 0.433 0.15544 0.62481 0.0
H369 H 0.6261 0.91447 0.50453 0.0
H370 H 0.5294 0.89117 0.79285 0.0
N371 N 0.54929 0.97171 0.52483 0.0
C372 C 0.59644 0.95619 0.43507 0.0
C373 C 0.57811 0.97665 0.40648 0.0
C374 C 0.5903 0.94254 0.50747 0.0
C375 C 0.56602 0.95057 0.55083 0.0
C376 C 0.55438 0.98395 0.45187 0.0
N377 N 0.53333 0.94279 0.6546 0.0
C378 C 0.55785 0.93572 0.61815 0.0
C379 C 0.53769 0.90356 0.7438 0.0
C380 C 0.56376 0.897 0.70996 0.0
C381 C 0.5224 0.9263 0.71417 0.0
C382 C 0.57388 0.91277 0.64518 0.0
H383 H 0.57551 0.87929 0.73274 0.0
O384 O 0.48226 0.94733 0.58387 0.0
O385 O 0.48168 0.01414 0.6653 0.0
O386 O 0.51121 0.01357 0.79903 0.0
O387 O 0.53575 0.98145 0.71941 0.0
O388 O 0.4729 0.97294 0.68916 0.0
O389 O 0.49308 0.97522 0.4853 0.0
O390 O 0.52931 0.08849 0.73361 0.0
O391 O 0.53263 0.02041 0.64912 0.0
O392 O 0.50566 0.0194 0.51725 0.0
O393 O 0.48232 0.05372 0.59316 0.0
O394 O 0.54052 0.06213 0.62886 0.0
O395 O 0.52649 0.05709 0.82761 0.0
C396 C 0.46474 0.99839 0.70159 0.0
C397 C 0.59898 0.90579 0.6052 0.0
C398 C 0.60715 0.92062 0.53631 0.0
C399 C 0.47683 0.95496 0.51006 0.0
C400 C 0.44697 0.95762 0.49146 0.0
C401 C 0.43098 0.93339 0.47759 0.0
C402 C 0.43396 0.98411 0.49202 0.0
C403 C 0.40519 0.98656 0.47615 0.0
C404 C 0.40227 0.93559 0.46347 0.0
C405 C 0.38943 0.96195 0.46228 0.0
C406 C 0.52739 0.99097 0.7909 0.0
C407 C 0.54922 0.037 0.614 0.0
C408 C 0.53992 0.07899 0.8004 0.0
C409 C 0.57061 0.07759 0.80056 0.0
C410 C 0.58635 0.10215 0.79048 0.0
C411 C 0.58425 0.05148 0.80212 0.0
C412 C 0.6135 0.0498 0.79739 0.0
C413 C 0.61543 0.1006 0.78276 0.0
C414 C 0.62901 0.07465 0.78661 0.0
C415 C 0.49114 0.04324 0.52297 0.0
H416 H 0.4407 0.91281 0.47819 0.0
H417 H 0.44622 1.00279 0.50456 0.0
H418 H 0.38998 0.91684 0.45238 0.0
H419 H 0.36731 0.96305 0.448 0.0
H420 H 0.57609 0.12243 0.78726 0.0
H421 H 0.57215 0.03237 0.80777 0.0
H422 H 0.62753 0.11961 0.77505 0.0
H423 H 0.65168 0.07424 0.78451 0.0
Gd424 Gd 0.47284 0.51485 0.71911 0.0
Gd425 Gd 0.53971 0.50707 0.61059 0.0
C426 C 0.62618 0.51627 0.73041 0.0
C427 C 0.64544 0.55632 0.65987 0.0
C428 C 0.59897 0.53875 0.6259 0.0
C429 C 0.60137 0.5182 0.68396 0.0
C430 C 0.62129 0.55754 0.61169 0.0
C431 C 0.64786 0.53576 0.71922 0.0
C432 C 0.62871 0.4946 0.78614 0.0
C433 C 0.60722 0.47508 0.79312 0.0
N434 N 0.57993 0.49965 0.69351 0.0
C435 C 0.58315 0.47764 0.74562 0.0
H436 H 0.56729 0.46204 0.7538 0.0
C437 C 0.57399 0.55664 0.51434 0.0
N438 N 0.57547 0.53941 0.58008 0.0
C439 C 0.59553 0.5756 0.4979 0.0
C440 C 0.61909 0.57641 0.54771 0.0
H441 H 0.55575 0.55611 0.47556 0.0
H442 H 0.66684 0.53472 0.755 0.0
H443 H 0.44454 0.56276 0.59067 0.0
H444 H 0.6473 0.49254 0.82321 0.0
H445 H 0.6091 0.45799 0.83544 0.0
H446 H 0.66265 0.57076 0.65042 0.0
H447 H 0.4592 0.45929 0.83575 0.0
H448 H 0.36812 0.52956 0.49774 0.0
H449 H 0.40346 0.56738 0.50405 0.0
H450 H 0.35664 0.44345 0.6404 0.0
H451 H 0.59388 0.58963 0.44703 0.0
H452 H 0.6358 0.59111 0.53486 0.0
H453 H 0.3511 0.48315 0.54783 0.0
H454 H 0.42367 0.42174 0.84665 0.0
N455 N 0.43345 0.52229 0.63493 0.0
C456 C 0.38617 0.5274 0.53693 0.0
C457 C 0.40603 0.54881 0.54046 0.0
C458 C 0.38955 0.50373 0.58519 0.0
C459 C 0.41357 0.50185 0.6348 0.0
C460 C 0.42949 0.54603 0.5904 0.0
N461 N 0.43949 0.47875 0.73529 0.0
C462 C 0.41674 0.47938 0.68633 0.0
C463 C 0.42151 0.43774 0.80105 0.0
C464 C 0.39886 0.43712 0.7477 0.0
C465 C 0.44149 0.45906 0.79491 0.0
C466 C 0.39597 0.45835 0.69037 0.0
H467 H 0.38337 0.4206 0.7526 0.0
O468 O 0.45687 0.51523 0.84153 0.0
O469 O 0.51946 0.52025 0.72645 0.0
O470 O 0.52806 0.467 0.67962 0.0
O471 O 0.4796 0.4697 0.68186 0.0
O472 O 0.50048 0.50125 0.82345 0.0
O473 O 0.45507 0.5532 0.76995 0.0
O474 O 0.56409 0.49858 0.50177 0.0
O475 O 0.49349 0.50507 0.60279 0.0
O476 O 0.48506 0.55732 0.66648 0.0
O477 O 0.53162 0.5542 0.62269 0.0
O478 O 0.51298 0.52323 0.50625 0.0
O479 O 0.53898 0.46577 0.5527 0.0
C480 C 0.52387 0.51077 0.79638 0.0
C481 C 0.37265 0.45957 0.63879 0.0
C482 C 0.36947 0.48219 0.58621 0.0
C483 C 0.4528 0.54223 0.84195 0.0
C484 C 0.46684 0.55695 0.90866 0.0
C485 C 0.45613 0.55484 0.98729 0.0
C486 C 0.49241 0.57073 0.89554 0.0
C487 C 0.5067 0.5837 0.96008 0.0
C488 C 0.47061 0.56682 0.05226 0.0
C489 C 0.49556 0.58134 0.03893 0.0
C490 C 0.50303 0.45522 0.68896 0.0
C491 C 0.48903 0.51546 0.53422 0.0
C492 C 0.55233 0.47438 0.489 0.0
C493 C 0.53818 0.47056 0.40991 0.0
C494 C 0.54627 0.48663 0.34294 0.0
C495 C 0.51544 0.45199 0.40192 0.0
C496 C 0.50092 0.44932 0.32819 0.0
C497 C 0.53163 0.48449 0.27004 0.0
C498 C 0.50908 0.466 0.26254 0.0
C499 C 0.50844 0.56882 0.63806 0.0
H500 H 0.43678 0.54363 0.99845 0.0
H501 H 0.50102 0.57151 0.83489 0.0
H502 H 0.46224 0.56526 0.11298 0.0
H503 H 0.5054 0.59165 0.09026 0.0
H504 H 0.5637 0.50115 0.34713 0.0
H505 H 0.50887 0.43966 0.45329 0.0
H506 H 0.53796 0.49701 0.2189 0.0
H507 H 0.49866 0.46411 0.20451 0.0
Gd508 Gd 0.01205 0.47708 0.7275 0.0
Gd509 Gd 0.01328 0.54262 0.61135 0.0
C510 C 0.99421 0.62896 0.72417 0.0
C511 C 0.94763 0.63853 0.67215 0.0
C512 C 0.97226 0.59577 0.63221 0.0
C513 C 0.99451 0.60308 0.68139 0.0
C514 C 0.94901 0.61391 0.62464 0.0
C515 C 0.97023 0.64606 0.72186 0.0
C516 C 0.01844 0.63745 0.76508 0.0
C517 C 0.04259 0.62106 0.75888 0.0
N518 N 0.01747 0.58617 0.68146 0.0
C519 C 0.0419 0.59572 0.71511 0.0
H520 H 0.06117 0.58428 0.70828 0.0
C521 C 0.95584 0.5671 0.52462 0.0
N522 N 0.97455 0.57219 0.58599 0.0
C523 C 0.93232 0.58429 0.5152 0.0
C524 C 0.92854 0.60745 0.56671 0.0
H525 H 0.95855 0.54896 0.4853 0.0
H526 H 0.96943 0.6657 0.75569 0.0
H527 H 0.96795 0.43612 0.61467 0.0
H528 H 0.01905 0.65711 0.79882 0.0
H529 H 0.06183 0.62801 0.7873 0.0
H530 H 0.92975 0.65249 0.66823 0.0
H531 H 0.0657 0.47277 0.8577 0.0
H532 H 0.01289 0.36386 0.53265 0.0
H533 H 0.96996 0.39294 0.53342 0.0
H534 H 0.09832 0.36854 0.68379 0.0
H535 H 0.91705 0.57955 0.46858 0.0
H536 H 0.91036 0.62082 0.55912 0.0
H537 H 0.06094 0.35509 0.58843 0.0
H538 H 0.10713 0.4428 0.88122 0.0
N539 N 0.01033 0.43384 0.65471 0.0
C540 C 0.01232 0.38324 0.56769 0.0
C541 C 0.9881 0.39963 0.56785 0.0
C542 C 0.03506 0.39147 0.6156 0.0
C543 C 0.03329 0.41704 0.65963 0.0
C544 C 0.98726 0.42462 0.61321 0.0
N545 N 0.05096 0.44832 0.7577 0.0
C546 C 0.05431 0.42457 0.71282 0.0
C547 C 0.09251 0.43746 0.83342 0.0
C548 C 0.09718 0.4139 0.78411 0.0
C549 C 0.06898 0.45431 0.8201 0.0
C550 C 0.07769 0.40685 0.72398 0.0
H551 H 0.11543 0.40087 0.79449 0.0
O552 O 0.00896 0.45844 0.84619 0.0
O553 O 1.00518 0.5237 0.73143 0.0
O554 O 0.05407 0.53694 0.68339 0.0
O555 O 0.05694 0.48845 0.69656 0.0
O556 O 0.0244 0.50643 0.83065 0.0
O557 O 0.97128 0.46681 0.77762 0.0
O558 O 0.01561 0.56274 0.49452 0.0
O559 O 0.02073 0.49647 0.60928 0.0
O560 O 0.97135 0.48265 0.65505 0.0
O561 O 0.96815 0.53095 0.63986 0.0
O562 O 1.00098 0.512 0.50922 0.0
O563 O 0.05364 0.54943 0.55351 0.0
C564 C 0.01474 0.52936 0.80129 0.0
C565 C 0.08034 0.38223 0.67689 0.0
C566 C 0.05906 0.37457 0.62268 0.0
C567 C 0.98188 0.46106 0.84835 0.0
C568 C 0.97107 0.47694 0.91867 0.0
C569 C 0.97743 0.4678 0.99685 0.0
C570 C 0.95601 0.50207 0.90863 0.0
C571 C 0.94569 0.51716 0.97613 0.0
C572 C 0.96854 0.48331 0.0642 0.0
C573 C 0.95257 0.50759 0.05423 0.0
C574 C 0.0685 0.51371 0.69941 0.0
C575 C 0.01148 0.48965 0.54033 0.0
C576 C 0.04203 0.55682 0.48553 0.0
C577 C 0.04916 0.54008 0.41226 0.0
C578 C 0.03324 0.54313 0.34131 0.0
C579 C 0.07015 0.51934 0.41441 0.0
C580 C 0.0753 0.50188 0.34672 0.0
C581 C 0.03784 0.52547 0.27458 0.0
C582 C 0.05869 0.50494 0.27711 0.0
C583 C 0.95689 0.5056 0.63643 0.0
H584 H 0.98949 0.44878 1.00572 0.0
H585 H 0.95196 0.50961 0.84816 0.0
H586 H 0.97344 0.4761 0.12448 0.0
H587 H 0.94459 0.518 0.10812 0.0
H588 H 0.01683 0.55882 0.33797 0.0
H589 H 0.0824 0.51656 0.46895 0.0
H590 H 0.02535 0.52786 0.22043 0.0
H591 H 0.06241 0.49213 0.22352 0.0
H592 H 0.14257 0.07925 0.32124 0.0
H593 H 0.1369 0.99447 0.228 0.0
H594 H 0.0984 0.98477 0.32192 0.0
H595 H 0.06694 1.00001 0.43408 0.0
H596 H 0.07553 0.08355 0.53417 0.0
H597 H 0.11166 0.0943 0.4338 0.0
C598 C 0.13276 0.05871 0.32094 0.0
C599 C 0.14264 0.03766 0.26699 0.0
C600 C 0.11092 0.05313 0.37636 0.0
C601 C 0.12991 0.01102 0.26885 0.0
C602 C 0.10777 1.0055 0.32243 0.0
C603 C 0.07643 0.0207 0.43279 0.0
C604 C 0.06815 0.04118 0.49041 0.0
C605 C 0.09812 0.02634 0.37675 0.0
C606 C 0.08128 0.06759 0.48983 0.0
C607 C 0.10207 0.07367 0.43268 0.0
H608 H 0.49811 0.11861 0.20885 0.0
H609 H 0.42472 0.15548 0.31951 0.0
H610 H 0.42711 0.1217 0.42954 0.0
H611 H 0.45032 0.08207 0.49587 0.0
H612 H 0.52322 0.04423 0.38526 0.0
H613 H 0.5203 0.07716 0.27317 0.0
C614 C 0.48272 0.1192 0.25721 0.0
C615 C 0.46133 0.13963 0.2561 0.0
C616 C 0.48391 0.09926 0.31993 0.0
C617 C 0.44133 0.13994 0.31878 0.0
C618 C 0.44268 0.12063 0.38176 0.0
C619 C 0.46555 0.08098 0.44714 0.0
C620 C 0.48711 0.06076 0.44965 0.0
C621 C 0.46386 0.10019 0.38308 0.0
C622 C 0.5063 0.05936 0.38503 0.0
C623 C 0.5048 0.07843 0.32107 0.0
H624 H 0.38942 0.46305 0.32914 0.0
H625 H 0.39724 0.54159 0.20371 0.0
H626 H 0.43571 0.55552 0.29371 0.0
H627 H 0.46761 0.5452 0.40843 0.0
H628 H 0.45881 0.46687 0.53394 0.0
H629 H 0.42079 0.4529 0.44329 0.0
C630 C 0.39958 0.48319 0.32115 0.0
C631 C 0.39037 0.50119 0.25923 0.0
C632 C 0.42163 0.49111 0.37341 0.0
C633 C 0.40364 0.52739 0.25098 0.0
C634 C 0.42579 0.5353 0.30224 0.0
C635 C 0.45722 0.52515 0.41593 0.0
C636 C 0.46551 0.50747 0.47947 0.0
C637 C 0.43502 0.51733 0.36368 0.0
C638 C 0.45228 0.48128 0.48744 0.0
C639 C 0.43059 0.4732 0.43517 0.0
H640 H 0.06556 0.38572 0.35284 0.0
H641 H 0.98636 0.3884 0.22733 0.0
H642 H 0.97163 0.42826 0.31208 0.0
H643 H 0.98144 0.4633 0.42112 0.0
H644 H 0.06059 0.46042 0.54578 0.0
H645 H 0.07522 0.4203 0.46177 0.0
C646 C 0.04511 0.39505 0.34341 0.0
C647 C 0.0272 0.38381 0.28292 0.0
C648 C 0.03672 0.41813 0.39255 0.0
C649 C 1.00059 0.39617 0.27344 0.0
C650 C 0.99218 0.41918 0.32173 0.0
C651 C 1.00181 0.45371 0.4301 0.0
C652 C 0.0196 0.4644 0.49127 0.0
C653 C 0.01006 0.43043 0.3814 0.0
C654 C 0.04616 0.45214 0.50094 0.0
C655 C 0.05461 0.42926 0.45243 0.0
H656 H 0.91444 0.99619 0.13286 0.0
H657 H 0.85394 0.95418 0.97966 0.0
H658 H 0.8875 0.95344 0.86839 0.0
H659 H 0.9328 0.96835 0.80969 0.0
H660 H 0.99188 0.01272 0.96153 0.0
H661 H 0.96047 0.00862 0.07657 0.0
C662 C 0.90844 0.98684 0.07531 0.0
C663 C 0.88127 0.97544 0.06577 0.0
C664 C 0.92767 0.98713 1.01009 0.0
C665 C 0.87458 0.96285 0.99042 0.0
C666 C 0.89376 0.96267 0.92588 0.0
C667 C 0.9387 0.97746 0.86754 0.0
C668 C 0.96445 0.99188 0.87501 0.0
C669 C 0.92014 0.97539 0.93423 0.0
C670 C 0.97209 1.00215 0.95226 0.0
C671 C 0.95405 0.99978 0.01874 0.0
H672 H 0.57146 0.90149 0.03903 0.0
H673 H 0.48619 0.90929 0.12521 0.0
H674 H 0.47839 0.9482 0.03402 0.0
H675 H 0.49371 0.97684 0.91799 0.0
H676 H 0.57672 0.96473 0.8208 0.0
H677 H 0.58713 0.93065 0.92618 0.0
C678 C 0.55103 0.91142 0.03808 0.0
C679 C 0.52951 0.90181 0.08988 0.0
C680 C 0.54613 0.93316 0.98235 0.0
C681 C 0.50354 0.91604 0.08804 0.0
C682 C 0.49884 0.93827 0.03474 0.0
C683 C 0.51429 0.96725 0.92132 0.0
C684 C 0.53461 0.97373 0.86247 0.0
C685 C 0.51973 0.94663 0.98026 0.0
C686 C 0.56088 0.96043 0.86603 0.0
C687 C 0.56677 0.94076 0.92604 0.0
H688 H 0.6339 0.54814 0.98395 0.0
H689 H 0.6016 0.4879 0.15465 0.0
H690 H 0.56142 0.47963 0.06825 0.0
H691 H 0.53625 0.48706 0.94022 0.0
H692 H 0.56341 0.55251 0.78068 0.0
H693 H 0.604 0.56183 0.86819 0.0
C694 C 0.61796 0.53361 1.00397 0.0
C695 C 0.62207 0.51789 0.07552 0.0
C696 C 0.59379 0.52971 0.95534 0.0
C697 C 0.60045 0.49938 0.09865 0.0
C698 C 0.57699 0.49479 0.04945 0.0
C699 C 0.55108 0.50336 0.9245 0.0
C700 C 0.54774 0.5179 0.8513 0.0
C701 C 0.57379 0.50926 0.97666 0.0
C702 C 0.56633 0.53995 0.83427 0.0
C703 C 0.5894 0.54547 0.88487 0.0
H704 H 0.03617 0.63039 0.04521 0.0
H705 H 0.95171 0.6521 0.97566 0.0
H706 H 0.94981 0.61096 0.88675 0.0
H707 H 0.97261 0.56873 0.82405 0.0
H708 H 0.05752 0.54889 0.89068 0.0
H709 H 0.05894 0.58952 0.98204 0.0
C710 C 0.01736 0.62657 1.01018 0.0
C711 C 0.99414 0.64489 0.01876 0.0
C712 C 0.01658 0.60314 0.95666 0.0
C713 C 0.96987 0.6385 0.97307 0.0
C714 C 0.9688 0.61495 0.92092 0.0
C715 C 0.99157 0.57374 0.85732 0.0
C716 C 0.01538 0.55639 0.84782 0.0
C717 C 0.99212 0.59719 0.91139 0.0
C718 C 0.03927 0.5624 0.89462 0.0
C719 C 0.04001 0.58554 0.94762 0.0
H720 H 0.09062 0.2169 0.45477 0.0
H721 H 0.09108 0.16478 0.23894 0.0
H722 H 0.06786 0.12742 0.3116 0.0
H723 H 0.03531 0.11621 0.42008 0.0
H724 H 0.02998 0.17015 0.63155 0.0
H725 H 0.06654 0.20025 0.57654 0.0
C726 C 0.08623 0.1971 0.4242 0.0
C727 C 0.09156 0.19422 0.34064 0.0
C728 C 0.07095 0.17639 0.46469 0.0
C729 C 0.08694 0.16795 0.30286 0.0
C730 C 0.07316 0.14661 0.34411 0.0
C731 C 0.0428 0.1339 0.45587 0.0
C732 C 0.02925 0.14142 0.52869 0.0
C733 C 0.06313 0.15158 0.42272 0.0
C734 C 0.03945 0.1644 0.5741 0.0
C735 C 0.0604 0.1816 0.54272 0.0
H736 H 0.35643 0.09438 0.32214 0.0
H737 H 0.28133 0.05887 0.42627 0.0
H738 H 0.30938 0.02896 0.51068 0.0
H739 H 0.35354 1.0036 0.5265 0.0
H740 H 0.4274 0.03262 0.40208 0.0
H741 H 0.40184 0.07348 0.35432 0.0
C742 C 0.34606 0.08023 0.36341 0.0
C743 C 0.31658 0.07818 0.36378 0.0
C744 C 0.36227 0.06107 0.40723 0.0
C745 C 0.30384 0.06102 0.42242 0.0
C746 C 0.31994 0.04335 0.47046 0.0
C747 C 0.36414 0.0191 0.48989 0.0
C748 C 0.39205 0.01458 0.4659 0.0
C749 C 0.34892 0.04168 0.45859 0.0
C750 C 0.40586 0.03541 0.42118 0.0
C751 C 0.39117 0.05875 0.39317 0.0
H752 H 0.41049 0.36341 0.20382 0.0
H753 H 0.46535 0.30726 0.33362 0.0
H754 H 0.48955 0.34696 0.39298 0.0
H755 H 0.50189 0.39635 0.3857 0.0
H756 H 0.45106 0.45287 0.24561 0.0
H757 H 0.41951 0.41417 0.21007 0.0
C758 C 0.42763 0.35976 0.24539 0.0
C759 C 0.43628 0.33206 0.26202 0.0
C760 C 0.44289 0.38279 0.27573 0.0
C761 C 0.45782 0.32804 0.31911 0.0
C762 C 0.47215 0.35086 0.35247 0.0
C763 C 0.48346 0.4005 0.34939 0.0
C764 C 0.47907 0.4274 0.31758 0.0
C765 C 0.46584 0.37815 0.32781 0.0
C766 C 0.45523 0.43221 0.26964 0.0
C767 C 0.43711 0.41014 0.24963 0.0
H768 H 0.17211 0.41868 0.25329 0.0
H769 H 0.22008 0.48627 0.36235 0.0
H770 H 0.17765 0.50687 0.41646 0.0
H771 H 0.12712 0.51203 0.4061 0.0
H772 H 0.07828 0.44828 0.28347 0.0
H773 H 0.12069 0.42054 0.25925 0.0
C774 C 0.17339 0.43782 0.28929 0.0
C775 C 0.19949 0.45114 0.30112 0.0
C776 C 0.14857 0.45085 0.31589 0.0
C777 C 0.20061 0.47524 0.3515 0.0
C778 C 0.17615 0.48745 0.38173 0.0
C779 C 0.12554 0.49167 0.37624 0.0
C780 C 0.09963 0.48244 0.34566 0.0
C781 C 0.15003 0.47637 0.36022 0.0
C782 C 0.09809 0.45611 0.30629 0.0
C783 C 0.12232 0.44023 0.29257 0.0
H784 H 0.93331 0.86594 0.11258 0.0
H785 H 0.89981 0.82375 0.90126 0.0
H786 H 0.92021 0.85964 0.81511 0.0
H787 H 0.96079 0.89152 0.8005 0.0
H788 H 0.99682 0.92988 0.0144 0.0
H789 H 0.96151 0.9078 0.0982 0.0
C790 C 0.92917 0.86498 0.04814 0.0
C791 C 0.91728 0.84064 0.01281 0.0
C792 C 0.94231 0.88477 0.9989 0.0
C793 C 0.91065 0.84123 0.92973 0.0
C794 C 0.92256 0.86165 0.88018 0.0
C795 C 0.96044 0.89554 0.86528 0.0
C796 C 0.98225 0.91107 0.90164 0.0
C797 C 0.94084 0.88165 0.91388 0.0
C798 C 0.98074 0.91741 0.9849 0.0
C799 C 0.96059 0.90462 0.03316 0.0
H800 H 0.67766 0.96669 1.00251 0.0
H801 H 0.74241 0.98711 0.83059 0.0
H802 H 0.7071 1.00493 0.7373 0.0
H803 H 0.66097 0.02806 0.72794 0.0
H804 H 0.59847 0.01137 0.91046 0.0
H805 H 0.62919 0.97759 0.97326 0.0
C806 C 0.68412 0.9737 0.94313 0.0
C807 C 0.71271 0.97707 0.92537 0.0
C808 C 0.66393 0.98523 0.89202 0.0
C809 C 0.7205 0.98552 0.84712 0.0
C810 C 0.70034 0.99589 0.79397 0.0
C811 C 0.65391 0.0165 0.78035 0.0
C812 C 0.62797 0.02312 0.81627 0.0
C813 C 0.6724 0.99822 0.81945 0.0
C814 C 0.61848 1.0071 0.88192 0.0
C815 C 0.63621 0.98788 0.91866 0.0
H816 H 0.56119 0.69766 0.91591 0.0
H817 H 0.58997 0.67702 0.15536 0.0
H818 H 0.58271 0.62739 0.12689 0.0
H819 H 0.55268 0.59369 0.05496 0.0
H820 H 0.51483 0.6176 0.82846 0.0
H821 H 0.5416 0.66073 0.82894 0.0
C822 C 0.56677 0.68215 0.96076 0.0
C823 C 0.57458 0.69111 0.03894 0.0
C824 C 0.55998 0.65388 0.94686 0.0
C825 C 0.58319 0.67087 0.09518 0.0
C826 C 0.57859 0.64236 0.07941 0.0
C827 C 0.55068 0.60812 1.00498 0.0
C828 C 0.53051 0.60308 0.94451 0.0
C829 C 0.56437 0.63413 1.00884 0.0
C830 C 0.52955 0.62105 0.87736 0.0
C831 C 0.54472 0.64607 0.87785 0.0
H832 H 0.83983 0.58073 0.06536 0.0
H833 H 0.81128 0.53901 0.84735 0.0
H834 H 0.85968 0.53129 0.80505 0.0
H835 H 0.90673 0.52206 0.85526 0.0
H836 H 0.93591 0.56398 0.07286 0.0
H837 H 0.89031 0.58646 0.08915 0.0
C838 C 0.84405 0.57127 1.00654 0.0
C839 C 0.82208 0.55898 0.9617 0.0
C840 C 0.87194 0.56599 0.9841 0.0
C841 C 0.82797 0.54756 0.88459 0.0
C842 C 0.85566 0.54294 0.86068 0.0
C843 C 0.9039 0.53705 0.90447 0.0
C844 C 0.92418 0.53965 0.96615 0.0
C845 C 0.87756 0.54971 0.91391 0.0
C846 C 0.92 0.56004 0.02744 0.0
C847 C 0.89395 0.57308 0.0366 0.0
H848 H 0.99649 0.16567 0.95254 0.0
H849 H 0.0704 0.18446 0.81245 0.0
H850 H 0.06522 0.14031 0.73753 0.0
H851 H 0.03923 0.09585 0.70933 0.0
H852 H 0.96642 0.07689 0.85308 0.0
H853 H 0.9718 0.12105 0.9283 0.0
C854 C 0.01167 0.16018 0.90612 0.0
C855 C 0.03366 0.17902 0.88849 0.0
C856 C 0.00879 0.13438 0.86331 0.0
C857 C 0.05279 0.17111 0.82691 0.0
C858 C 0.05 0.14558 0.78406 0.0
C859 C 0.02489 0.10122 0.7581 0.0
C860 C 1.00285 0.08264 0.77697 0.0
C861 C 0.02802 0.127 0.80136 0.0
C862 C 0.98384 0.0905 0.83831 0.0
C863 C 0.98685 0.11586 0.88126 0.0
H864 H 0.34608 0.04795 0.80161 0.0
H865 H 0.34828 0.97659 0.96134 0.0
H866 H 0.39381 0.96332 0.9077 0.0
H867 H 0.43423 0.97218 0.81767 0.0
H868 H 0.43001 0.04011 0.64834 0.0
H869 H 0.3837 0.0534 0.70041 0.0
C870 C 0.35592 0.02908 0.82402 0.0
C871 C 0.34322 0.01387 0.88771 0.0
C872 C 0.38202 0.02071 0.79055 0.0
C873 C 0.35733 0.98967 0.91508 0.0
C874 C 0.38349 0.98171 0.88355 0.0
C875 C 0.42315 0.98992 0.79234 0.0
C876 C 0.43617 1.00594 0.73173 0.0
C877 C 0.39627 0.99725 0.8221 0.0
C878 C 0.42105 0.02817 0.69735 0.0
C879 C 0.39441 0.03563 0.7268 0.0
H880 H 0.46314 0.33317 0.7785 0.0
H881 H 0.54091 0.33358 0.91169 0.0
H882 H 0.55205 0.37994 0.85828 0.0
H883 H 0.53837 0.42193 0.77916 0.0
H884 H 0.46078 0.42026 0.64548 0.0
H885 H 0.4514 0.37283 0.69207 0.0
C886 C 0.4829 0.34294 0.79468 0.0
C887 C 0.50106 0.32951 0.84956 0.0
C888 C 0.48927 0.36964 0.76347 0.0
C889 C 0.52621 0.34327 0.87068 0.0
C890 C 0.53271 0.36986 0.83971 0.0
C891 C 0.51974 0.41096 0.75885 0.0
C892 C 0.50029 0.42485 0.70893 0.0
C893 C 0.51423 0.38347 0.78679 0.0
C894 C 0.47606 0.41028 0.68422 0.0
C895 C 0.47061 0.38308 0.711 0.0
H896 H 0.18442 0.53552 0.87944 0.0
H897 H 0.19901 0.45066 0.79404 0.0
H898 H 0.15421 0.45079 0.72389 0.0
H899 H 0.10968 0.47392 0.69047 0.0
H900 H 0.0938 0.55803 0.77867 0.0
H901 H 0.14002 0.55936 0.84201 0.0
C902 C 0.17788 0.51708 0.84533 0.0
C903 C 0.19557 0.49322 0.84196 0.0
C904 C 0.15168 0.51714 0.80493 0.0
C905 C 0.18645 0.46962 0.7968 0.0
C906 C 0.16059 0.46954 0.75687 0.0
C907 C 0.11635 0.49263 0.72325 0.0
C908 C 0.09801 0.51582 0.72963 0.0
C909 C 0.14291 0.49307 0.76089 0.0
C910 C 0.10734 0.53995 0.77159 0.0
C911 C 0.13381 0.54062 0.80874 0.0
H912 H 0.98767 0.85712 0.46886 0.0
H913 H 0.06882 0.86226 0.35383 0.0
H914 H 0.07873 0.90554 0.4272 0.0
H915 H 0.06425 0.94356 0.51921 0.0
H916 H 0.98588 0.93774 0.64686 0.0
H917 H 0.97532 0.89332 0.57532 0.0
C918 C 0.00769 0.86742 0.46073 0.0
C919 C 0.02705 0.85642 0.40321 0.0
C920 C 0.01375 0.89254 0.50514 0.0
C921 C 0.05296 0.87035 0.39486 0.0
C922 C 0.05883 0.89521 0.4374 0.0
C923 C 0.04476 0.93264 0.53121 0.0
C924 C 0.02526 0.94474 0.5854 0.0
C925 C 0.03923 0.90683 0.49135 0.0
C926 C 1.00069 0.92963 0.60264 0.0
C927 C 0.99481 0.90401 0.56227 0.0
H928 H 0.65447 0.03712 0.38171 0.0
H929 H 0.68469 0.97515 0.54863 0.0
H930 H 0.64033 0.97809 0.62404 0.0
H931 H 0.5929 1.00005 0.64563 0.0
H932 H 0.56457 0.06246 0.47729 0.0
H933 H 0.6081 0.0579 0.4008 0.0
C934 C 0.65159 0.02433 0.43495 0.0
C935 C 0.67333 1.00615 0.45949 0.0
C936 C 0.62614 0.02629 0.47825 0.0
C937 C 0.66853 0.9893 0.52771 0.0
C938 C 0.64315 0.99114 0.57136 0.0
C939 C 0.59615 0.01221 0.59135 0.0
C940 C 0.575 0.03097 0.56565 0.0
C941 C 0.62176 0.00973 0.54759 0.0
C942 C 0.58009 0.04742 0.49717 0.0
C943 C 0.6051 0.04491 0.45355 0.0
H944 H 0.48182 0.69277 0.52158 0.0
H945 H 0.56903 0.68854 0.45224 0.0
H946 H 0.5733 0.64294 0.5167 0.0
H947 H 0.55161 0.60251 0.58465 0.0
H948 H 0.46378 0.60538 0.64557 0.0
H949 H 0.46069 0.65301 0.59388 0.0
C950 C 0.50182 0.68197 0.52014 0.0
C951 C 0.525 0.69451 0.48102 0.0
C952 C 0.50404 0.65516 0.55568 0.0
C953 C 0.55081 0.68004 0.48232 0.0
C954 C 0.55325 0.65364 0.51868 0.0
C955 C 0.53168 0.61323 0.58556 0.0
C956 C 0.50776 0.59943 0.61618 0.0
C957 C 0.52987 0.6407 0.55408 0.0
C958 C 0.4825 0.61476 0.62069 0.0
C959 C 0.48068 0.6422 0.59103 0.0
H960 H 0.84924 0.47935 0.42385 0.0
H961 H 0.8233 0.55993 0.52072 0.0
H962 H 0.86641 0.56276 0.60015 0.0
H963 H 0.91242 0.54273 0.64102 0.0
H964 H 0.9376 0.46233 0.54221 0.0
H965 H 0.89365 0.45866 0.46839 0.0
C966 C 0.85254 0.49738 0.46336 0.0
C967 C 0.83253 0.51938 0.46535 0.0
C968 C 0.87738 0.4988 0.50989 0.0
C969 C 0.83812 0.54276 0.51615 0.0
C970 C 0.86283 0.54433 0.56241 0.0
C971 C 0.90818 0.5243 0.6038 0.0
C972 C 0.92844 0.50262 0.59862 0.0
C973 C 0.88276 0.52256 0.55949 0.0
C974 C 0.92238 0.47896 0.54987 0.0
C975 C 0.89725 0.47703 0.50635 0.0
loop_
_geom_bond_atom_site_label_1
_geom_bond_atom_site_label_2
_geom_bond_distance
_geom_bond_site_symmetry_2
_ccdc_geom_bond_type
P0 O11 1.490 . S
P0 C14 1.812 . S
P0 C20 1.803 . S
P0 C26 1.819 . S
H1 C15 0.941 . S
H2 C16 0.939 . S
H3 C18 0.940 . S
H4 C19 0.940 . S
H5 C21 0.939 . S
H6 C22 0.942 . S
H7 C24 0.940 . S
H8 C25 0.939 . S
H9 C27 0.941 . S
H10 C31 0.939 . S
O11 P0 1.490 . S
H12 C28 0.939 . S
H13 C30 0.940 . S
C14 P0 1.812 . S
C14 C15 1.389 . S
C14 C19 1.391 . S
C15 H1 0.941 . S
C15 C14 1.389 . S
C15 C16 1.397 . S
C16 H2 0.939 . S
C16 C15 1.397 . S
C16 C17 1.378 . S
C17 C16 1.378 . S
C17 C18 1.378 . S
C18 H3 0.940 . S
C18 C17 1.378 . S
C18 C19 1.396 . S
C19 H4 0.940 . S
C19 C14 1.391 . S
C19 C18 1.396 . S
C20 P0 1.803 . S
C20 C21 1.378 . S
C20 C25 1.400 . S
C21 H5 0.939 . S
C21 C20 1.378 . S
C21 C22 1.361 . S
C22 H6 0.942 . S
C22 C21 1.361 . S
C22 C23 1.369 . S
C23 C22 1.369 . S
C23 C24 1.404 . S
C24 H7 0.940 . S
C24 C23 1.404 . S
C24 C25 1.389 . S
C25 H8 0.939 . S
C25 C20 1.400 . S
C25 C24 1.389 . S
C26 P0 1.819 . S
C26 C27 1.391 . S
C26 C31 1.391 . S
C27 H9 0.941 . S
C27 C26 1.391 . S
C27 C28 1.396 . S
C28 H12 0.939 . S
C28 C27 1.396 . S
C28 C29 1.397 . S
C29 C28 1.397 . S
C29 C30 1.385 . S
C30 H13 0.940 . S
C30 C29 1.385 . S
C30 C31 1.388 . S
C31 H10 0.939 . S
C31 C26 1.391 . S
C31 C30 1.388 . S
P32 O43 1.490 1_655 S
P32 C46 1.812 . S
P32 C52 1.803 . S
P32 C58 1.819 . S
H33 C47 0.941 . S
H34 C48 0.939 . S
H35 C50 0.940 . S
H36 C51 0.940 . S
H37 C53 0.961 . S
H38 C54 0.942 . S
H39 C56 0.940 . S
H40 C57 0.939 . S
H41 C59 0.941 . S
H42 C63 0.939 . S
O43 P32 1.490 1_455 S
H44 C60 0.939 . S
H45 C62 0.940 . S
C46 P32 1.812 . S
C46 C47 1.389 . S
C46 C51 1.391 . S
C47 H33 0.941 . S
C47 C46 1.389 . S
C47 C48 1.397 . S
C48 H34 0.939 . S
C48 C47 1.397 . S
C48 C49 1.378 . S
C49 C48 1.378 . S
C49 C50 1.378 . S
C50 H35 0.940 . S
C50 C49 1.378 . S
C50 C51 1.396 . S
C51 H36 0.940 . S
C51 C46 1.391 . S
C51 C50 1.396 . S
C52 P32 1.803 . S
C52 C53 1.378 . S
C52 C57 1.400 . S
C53 H37 0.961 . S
C53 C52 1.378 . S
C53 C54 1.361 . S
C54 H38 0.942 . S
C54 C53 1.361 . S
C54 C55 1.369 . S
C55 C54 1.369 . S
C55 C56 1.404 . S
C56 H39 0.940 . S
C56 C55 1.404 . S
C56 C57 1.389 . S
C57 H40 0.939 . S
C57 C52 1.400 . S
C57 C56 1.389 . S
C58 P32 1.819 . S
C58 C59 1.391 . S
C58 C63 1.391 . S
C59 H41 0.941 . S
C59 C58 1.391 . S
C59 C60 1.396 . S
C60 H44 0.939 . S
C60 C59 1.396 . S
C60 C61 1.397 . S
C61 C60 1.397 . S
C61 C62 1.385 . S
C62 H45 0.940 . S
C62 C61 1.385 . S
C62 C63 1.388 . S
C63 H42 0.939 . S
C63 C58 1.391 . S
C63 C62 1.388 . S
P64 O75 1.490 1_565 S
P64 C78 1.812 . S
P64 C84 1.803 . S
P64 C90 1.819 . S
H65 C79 0.941 1_545 S
H66 C80 0.939 . S
H67 C82 0.940 . S
H68 C83 0.940 . S
H69 C85 0.939 1_545 S
H70 C86 0.942 . S
H71 C88 0.940 . S
H72 C89 0.939 . S
H73 C91 0.915 1_545 S
H74 C95 0.939 . S
O75 P64 1.490 1_545 S
H76 C92 0.939 . S
H77 C94 0.940 . S
C78 P64 1.812 . S
C78 C79 1.389 . S
C78 C83 1.391 . S
C79 H65 0.941 1_565 S
C79 C78 1.389 . S
C79 C80 1.397 . S
C80 H66 0.939 . S
C80 C79 1.397 . S
C80 C81 1.378 . S
C81 C80 1.378 . S
C81 C82 1.378 . S
C82 H67 0.940 . S
C82 C81 1.378 . S
C82 C83 1.396 . S
C83 H68 0.940 . S
C83 C78 1.391 . S
C83 C82 1.396 . S
C84 P64 1.803 . S
C84 C85 1.378 . S
C84 C89 1.400 . S
C85 H69 0.939 1_565 S
C85 C84 1.378 . S
C85 C86 1.361 . S
C86 H70 0.942 . S
C86 C85 1.361 . S
C86 C87 1.369 . S
C87 C86 1.369 . S
C87 C88 1.404 . S
C88 H71 0.940 . S
C88 C87 1.404 . S
C88 C89 1.389 . S
C89 H72 0.939 . S
C89 C84 1.400 . S
C89 C88 1.389 . S
C90 P64 1.819 . S
C90 C91 1.391 . S
C90 C95 1.391 . S
C91 H73 0.915 1_565 S
C91 C90 1.391 . S
C91 C92 1.396 . S
C92 H76 0.939 . S
C92 C91 1.396 . S
C92 C93 1.397 . S
C93 C92 1.397 . S
C93 C94 1.385 . S
C94 H77 0.940 . S
C94 C93 1.385 . S
C94 C95 1.388 . S
C95 H74 0.939 . S
C95 C90 1.391 . S
C95 C94 1.388 . S
P96 O107 1.490 . S
P96 C110 1.812 . S
P96 C116 1.803 . S
P96 C122 1.819 . S
H97 C111 0.941 . S
H98 C112 0.939 . S
H99 C114 0.940 . S
H100 C115 0.940 . S
H101 C117 0.939 . S
H102 C118 0.942 . S
H103 C120 0.940 . S
H104 C121 0.939 . S
H105 C123 0.941 . S
H106 C127 0.939 . S
O107 P96 1.490 . S
H108 C124 0.939 . S
H109 C126 0.940 . S
C110 P96 1.812 . S
C110 C111 1.389 . S
C110 C115 1.391 . S
C111 H97 0.941 . S
C111 C110 1.389 . S
C111 C112 1.397 . S
C112 H98 0.939 . S
C112 C111 1.397 . S
C112 C113 1.378 . S
C113 C112 1.378 . S
C113 C114 1.378 . S
C114 H99 0.940 . S
C114 C113 1.378 . S
C114 C115 1.396 . S
C115 H100 0.940 . S
C115 C110 1.391 . S
C115 C114 1.396 . S
C116 P96 1.803 . S
C116 C117 1.378 . S
C116 C121 1.400 . S
C117 H101 0.939 . S
C117 C116 1.378 . S
C117 C118 1.361 . S
C118 H102 0.942 . S
C118 C117 1.361 . S
C118 C119 1.369 . S
C119 C118 1.369 . S
C119 C120 1.404 . S
C120 H103 0.940 . S
C120 C119 1.404 . S
C120 C121 1.389 . S
C121 H104 0.939 . S
C121 C116 1.400 . S
C121 C120 1.389 . S
C122 P96 1.819 . S
C122 C123 1.391 . S
C122 C127 1.391 . S
C123 H105 0.941 . S
C123 C122 1.391 . S
C123 C124 1.396 . S
C124 H108 0.939 . S
C124 C123 1.396 . S
C124 C125 1.397 . S
C125 C124 1.397 . S
C125 C126 1.385 . S
C126 H109 0.940 . S
C126 C125 1.385 . S
C126 C127 1.388 . S
C127 H106 0.939 . S
C127 C122 1.391 . S
C127 C126 1.388 . S
P128 O139 1.490 . S
P128 C142 1.812 1_554 S
P128 C148 1.803 . S
P128 C154 1.819 . S
H129 C143 0.941 . S
H130 C144 0.939 . S
H131 C146 0.940 . S
H132 C147 0.940 . S
H133 C149 0.939 . S
H134 C150 0.942 . S
H135 C152 0.940 . S
H136 C153 0.939 1_556 S
H137 C155 0.941 . S
H138 C159 0.939 . S
O139 P128 1.490 . S
H140 C156 0.939 . S
H141 C158 0.940 . S
C142 P128 1.812 1_556 S
C142 C143 1.389 . S
C142 C147 1.391 . S
C143 H129 0.941 . S
C143 C142 1.389 . S
C143 C144 1.397 . S
C144 H130 0.939 . S
C144 C143 1.397 . S
C144 C145 1.378 . S
C145 C144 1.378 . S
C145 C146 1.378 . S
C146 H131 0.940 . S
C146 C145 1.378 . S
C146 C147 1.396 . S
C147 H132 0.940 . S
C147 C142 1.391 . S
C147 C146 1.396 . S
C148 P128 1.803 . S
C148 C149 1.378 . S
C148 C153 1.400 . S
C149 H133 0.939 . S
C149 C148 1.378 . S
C149 C150 1.361 . S
C150 H134 0.942 . S
C150 C149 1.361 . S
C150 C151 1.369 . S
C151 C150 1.369 . S
C151 C152 1.404 . S
C152 H135 0.940 . S
C152 C151 1.404 . S
C152 C153 1.389 . S
C153 H136 0.939 1_554 S
C153 C148 1.400 . S
C153 C152 1.389 . S
C154 P128 1.819 . S
C154 C155 1.391 . S
C154 C159 1.391 . S
C155 H137 0.941 . S
C155 C154 1.391 . S
C155 C156 1.396 . S
C156 H140 0.939 . S
C156 C155 1.396 . S
C156 C157 1.397 . S
C157 C156 1.397 . S
C157 C158 1.385 . S
C158 H141 0.940 . S
C158 C157 1.385 . S
C158 C159 1.388 . S
C159 H138 0.939 . S
C159 C154 1.391 . S
C159 C158 1.388 . S
P160 O171 1.490 . S
P160 C174 1.812 1_554 S
P160 C180 1.803 . S
P160 C186 1.819 . S
H161 C175 0.941 . S
H162 C176 0.939 . S
H163 C178 0.940 . S
H164 C179 0.940 . S
H165 C181 0.939 . S
H166 C182 0.942 . S
H167 C184 0.940 . S
H168 C185 0.939 1_556 S
H169 C187 0.941 . S
H170 C191 0.939 . S
O171 P160 1.490 . S
H172 C188 0.939 . S
H173 C190 0.940 . S
C174 P160 1.812 1_556 S
C174 C175 1.389 . S
C174 C179 1.391 . S
C175 H161 0.941 . S
C175 C174 1.389 . S
C175 C176 1.397 . S
C176 H162 0.939 . S
C176 C175 1.397 . S
C176 C177 1.378 . S
C177 C176 1.378 . S
C177 C178 1.378 . S
C178 H163 0.940 . S
C178 C177 1.378 . S
C178 C179 1.396 . S
C179 H164 0.940 . S
C179 C174 1.391 . S
C179 C178 1.396 . S
C180 P160 1.803 . S
C180 C181 1.378 . S
C180 C185 1.400 . S
C181 H165 0.939 . S
C181 C180 1.378 . S
C181 C182 1.361 . S
C182 H166 0.942 . S
C182 C181 1.361 . S
C182 C183 1.369 . S
C183 C182 1.369 . S
C183 C184 1.404 . S
C184 H167 0.940 . S
C184 C183 1.404 . S
C184 C185 1.389 . S
C185 H168 0.939 1_554 S
C185 C180 1.400 . S
C185 C184 1.389 . S
C186 P160 1.819 . S
C186 C187 1.391 . S
C186 C191 1.391 . S
C187 H169 0.941 . S
C187 C186 1.391 . S
C187 C188 1.396 . S
C188 H172 0.939 . S
C188 C187 1.396 . S
C188 C189 1.397 . S
C189 C188 1.397 . S
C189 C190 1.385 . S
C190 H173 0.940 . S
C190 C189 1.385 . S
C190 C191 1.388 . S
C191 H170 0.939 . S
C191 C186 1.391 . S
C191 C190 1.388 . S
P192 O203 1.490 . S
P192 C206 1.812 1_554 S
P192 C212 1.803 . S
P192 C218 1.819 . S
H193 C207 0.941 . S
H194 C208 0.939 . S
H195 C210 0.940 . S
H196 C211 0.940 . S
H197 C213 0.939 . S
H198 C214 0.942 . S
H199 C216 0.940 . S
H200 C217 0.939 1_556 S
H201 C219 0.941 . S
H202 C223 0.939 . S
O203 P192 1.490 . S
H204 C220 0.939 . S
H205 C222 0.940 . S
C206 P192 1.812 1_556 S
C206 C207 1.389 . S
C206 C211 1.391 . S
C207 H193 0.941 . S
C207 C206 1.389 . S
C207 C208 1.397 . S
C208 H194 0.939 . S
C208 C207 1.397 . S
C208 C209 1.378 . S
C209 C208 1.378 . S
C209 C210 1.378 . S
C210 H195 0.940 . S
C210 C209 1.378 . S
C210 C211 1.396 . S
C211 H196 0.940 . S
C211 C206 1.391 . S
C211 C210 1.396 . S
C212 P192 1.803 . S
C212 C213 1.378 . S
C212 C217 1.400 . S
C213 H197 0.939 . S
C213 C212 1.378 . S
C213 C214 1.361 . S
C214 H198 0.942 . S
C214 C213 1.361 . S
C214 C215 1.369 . S
C215 C214 1.369 . S
C215 C216 1.404 . S
C216 H199 0.940 . S
C216 C215 1.404 . S
C216 C217 1.389 . S
C217 H200 0.939 1_554 S
C217 C212 1.400 . S
C217 C216 1.389 . S
C218 P192 1.819 . S
C218 C219 1.391 . S
C218 C223 1.391 . S
C219 H201 0.941 . S
C219 C218 1.391 . S
C219 C220 1.396 . S
C220 H204 0.939 . S
C220 C219 1.396 . S
C220 C221 1.397 . S
C221 C220 1.397 . S
C221 C222 1.385 . S
C222 H205 0.940 . S
C222 C221 1.385 . S
C222 C223 1.388 . S
C223 H202 0.939 . S
C223 C218 1.391 . S
C223 C222 1.388 . S
P224 O235 1.490 . S
P224 C238 1.812 1_554 S
P224 C244 1.803 . S
P224 C250 1.819 . S
H225 C239 0.941 . S
H226 C240 0.939 . S
H227 C242 0.940 . S
H228 C243 0.940 . S
H229 C245 0.939 . S
H230 C246 0.942 . S
H231 C248 0.940 . S
H232 C249 0.939 1_556 S
H233 C251 0.941 . S
H234 C255 0.939 . S
O235 P224 1.490 . S
H236 C252 0.939 . S
H237 C254 0.940 . S
C238 P224 1.812 1_556 S
C238 C239 1.389 . S
C238 C243 1.391 . S
C239 H225 0.941 . S
C239 C238 1.389 . S
C239 C240 1.397 . S
C240 H226 0.939 . S
C240 C239 1.397 . S
C240 C241 1.378 . S
C241 C240 1.378 . S
C241 C242 1.378 . S
C242 H227 0.940 . S
C242 C241 1.378 . S
C242 C243 1.396 . S
C243 H228 0.940 . S
C243 C238 1.391 . S
C243 C242 1.396 . S
C244 P224 1.803 . S
C244 C245 1.378 . S
C244 C249 1.400 . S
C245 H229 0.939 . S
C245 C244 1.378 . S
C245 C246 1.361 . S
C246 H230 0.942 . S
C246 C245 1.361 . S
C246 C247 1.369 . S
C247 C246 1.369 . S
C247 C248 1.404 . S
C248 H231 0.940 . S
C248 C247 1.404 . S
C248 C249 1.389 . S
C249 H232 0.939 1_554 S
C249 C244 1.400 . S
C249 C248 1.389 . S
C250 P224 1.819 . S
C250 C251 1.391 . S
C250 C255 1.391 . S
C251 H233 0.941 . S
C251 C250 1.391 . S
C251 C252 1.396 . S
C252 H236 0.939 . S
C252 C251 1.396 . S
C252 C253 1.397 . S
C253 C252 1.397 . S
C253 C254 1.385 . S
C254 H237 0.940 . S
C254 C253 1.385 . S
C254 C255 1.388 . S
C255 H234 0.939 . S
C255 C250 1.391 . S
C255 C254 1.388 . S
Gd256 N287 2.661 1_545 S
Gd256 N293 2.601 . S
Gd256 O300 2.545 . S
Gd256 O301 2.606 1_655 S
Gd256 O303 2.429 . S
Gd256 O304 2.545 1_655 S
Gd256 O305 2.412 . S
Gd256 O307 2.362 1_545 S
Gd256 O308 2.324 1_655 S
Gd256 C315 2.828 . S
Gd257 N266 2.661 1_565 S
Gd257 N270 2.601 . S
Gd257 O301 2.362 1_565 S
Gd257 O302 2.324 1_455 S
Gd257 O306 2.545 . S
Gd257 O307 2.606 1_455 S
Gd257 O309 2.429 . S
Gd257 O310 2.545 . S
Gd257 O311 2.412 . S
Gd257 C324 2.828 . S
C258 C261 1.417 . S
C258 C263 1.431 . S
C258 C264 1.412 . S
C259 C262 1.437 . S
C259 C263 1.317 . S
C259 H278 0.929 . S
C260 C261 1.426 . S
C260 C262 1.413 . S
C260 N270 1.359 1_545 S
C261 C258 1.417 . S
C261 C260 1.426 . S
C261 N266 1.350 . S
C262 C259 1.437 . S
C262 C260 1.413 . S
C262 C272 1.391 . S
C263 C258 1.431 . S
C263 C259 1.317 . S
C263 H274 0.930 1_556 S
C264 C258 1.412 . S
C264 C265 1.355 . S
C264 H276 0.930 1_556 S
C265 C264 1.355 . S
C265 C267 1.402 . S
C265 H277 0.930 1_455 S
N266 Gd257 2.661 1_545 S
N266 C261 1.350 . S
N266 C267 1.307 . S
C267 C265 1.402 . S
C267 N266 1.307 . S
C267 H268 0.930 1_455 S
H268 C267 0.930 1_655 S
C269 N270 1.334 . S
C269 C271 1.394 . S
C269 H273 0.930 . S
N270 Gd257 2.601 . S
N270 C260 1.359 1_565 S
N270 C269 1.334 . S
C271 C269 1.394 . S
C271 C272 1.359 1_565 S
C271 H283 0.930 . S
C272 C262 1.391 . S
C272 C271 1.359 1_545 S
C272 H284 0.929 . S
H273 C269 0.930 . S
H274 C263 0.930 1_554 S
H275 C292 0.903 1_455 S
H276 C264 0.930 1_554 S
H277 C265 0.930 1_655 S
H278 C259 0.929 . S
H279 C297 0.930 . S
H280 C288 0.930 . S
H281 C289 0.930 1_455 S
H282 C313 0.929 . S
H283 C271 0.930 . S
H284 C272 0.929 . S
H285 C314 0.930 . S
H286 C295 0.930 . S
N287 Gd256 2.661 1_565 S
N287 C291 1.350 . S
N287 C292 1.331 . S
C288 H280 0.930 . S
C288 C289 1.355 . S
C288 C290 1.412 . S
C289 H281 0.930 1_655 S
C289 C288 1.355 . S
C289 C292 1.404 . S
C290 C288 1.412 . S
C290 C291 1.417 . S
C290 C314 1.431 . S
C291 N287 1.350 . S
C291 C290 1.417 . S
C291 C294 1.426 1_565 S
C292 H275 0.903 1_655 S
C292 N287 1.331 . S
C292 C289 1.404 . S
N293 Gd256 2.601 . S
N293 C294 1.359 . S
N293 C297 1.334 . S
C294 C291 1.426 1_545 S
C294 N293 1.359 . S
C294 C298 1.413 1_545 S
C295 H286 0.930 . S
C295 C296 1.359 . S
C295 C297 1.394 . S
C296 C295 1.359 . S
C296 C298 1.391 1_545 S
C296 H299 0.929 . S
C297 H279 0.930 . S
C297 N293 1.334 . S
C297 C295 1.394 . S
C298 C294 1.413 1_565 S
C298 C296 1.391 1_565 S
C298 C313 1.437 . S
H299 C296 0.929 . S
O300 Gd256 2.545 . S
O300 C315 1.258 . S
O301 Gd256 2.606 1_455 S
O301 Gd257 2.362 1_545 S
O301 C312 1.284 . S
O302 Gd257 2.324 1_655 S
O302 C322 1.254 1_565 S
O303 Gd256 2.429 . S
O303 C322 1.268 . S
O304 Gd256 2.545 1_455 S
O304 C312 1.250 . S
O305 Gd256 2.412 . S
O305 C315 1.252 . S
O306 Gd257 2.545 . S
O306 C324 1.258 . S
O307 Gd256 2.362 1_565 S
O307 Gd257 2.606 1_655 S
O307 C323 1.284 . S
O308 Gd256 2.324 1_455 S
O308 C331 1.254 . S
O309 Gd257 2.429 . S
O309 C331 1.268 1_565 S
O310 Gd257 2.545 . S
O310 C323 1.250 1_455 S
O311 Gd257 2.412 . S
O311 C324 1.252 . S
C312 O301 1.284 . S
C312 O304 1.250 . S
C313 H282 0.929 . S
C313 C298 1.437 . S
C313 C314 1.317 . S
C314 H285 0.930 . S
C314 C290 1.431 . S
C314 C313 1.317 . S
C315 Gd256 2.828 . S
C315 O300 1.258 . S
C315 O305 1.252 . S
C315 C316 1.497 . S
C316 C315 1.497 . S
C316 C317 1.395 . S
C316 C318 1.380 . S
C317 C316 1.395 . S
C317 C320 1.398 . S
C317 H332 0.930 . S
C318 C316 1.380 . S
C318 C319 1.391 . S
C318 H333 0.930 1_655 S
C319 C318 1.391 . S
C319 C321 1.387 . S
C320 C317 1.398 . S
C320 C321 1.380 . S
C320 H334 0.930 . S
C321 C319 1.387 . S
C321 C320 1.380 . S
C321 H335 0.930 . S
C322 O302 1.254 1_545 S
C322 O303 1.268 . S
C323 O307 1.284 . S
C323 O310 1.250 1_655 S
C324 Gd257 2.828 . S
C324 O306 1.258 . S
C324 O311 1.252 . S
C324 C325 1.497 . S
C325 C324 1.497 . S
C325 C326 1.395 . S
C325 C327 1.380 . S
C326 C325 1.395 . S
C326 C329 1.398 . S
C326 H336 0.930 . S
C327 C325 1.380 . S
C327 C328 1.391 . S
C327 H337 0.930 . S
C328 C327 1.391 . S
C328 C330 1.387 . S
C329 C326 1.398 . S
C329 C330 1.380 . S
C329 H338 0.930 . S
C330 C328 1.387 . S
C330 C329 1.380 . S
C330 H339 0.930 . S
C331 O308 1.254 . S
C331 O309 1.268 1_545 S
H332 C317 0.930 . S
H333 C318 0.930 1_455 S
H334 C320 0.930 . S
H335 C321 0.930 . S
H336 C326 0.930 . S
H337 C327 0.930 . S
H338 C329 0.930 . S
H339 C330 0.930 . S
Gd340 N371 2.661 . S
Gd340 N377 2.601 . S
Gd340 O384 2.545 . S
Gd340 O385 2.606 1_565 S
Gd340 O387 2.429 . S
Gd340 O388 2.545 1_565 S
Gd340 O389 2.412 . S
Gd340 O391 2.362 . S
Gd340 O392 2.324 1_565 S
Gd340 C399 2.828 . S
Gd341 N350 2.661 . S
Gd341 N354 2.601 . S
Gd341 O385 2.362 . S
Gd341 O386 2.324 1_545 S
Gd341 O390 2.545 . S
Gd341 O391 2.606 1_545 S
Gd341 O393 2.429 . S
Gd341 O394 2.545 . S
Gd341 O395 2.412 . S
Gd341 C408 2.828 . S
C342 C345 1.417 . S
C342 C347 1.431 . S
C342 C348 1.412 . S
C343 C346 1.437 . S
C343 C347 1.317 . S
C343 H362 0.929 . S
C344 C345 1.426 . S
C344 C346 1.413 . S
C344 N354 1.359 . S
C345 C342 1.417 . S
C345 C344 1.426 . S
C345 N350 1.350 . S
C346 C343 1.437 . S
C346 C344 1.413 . S
C346 C356 1.391 . S
C347 C342 1.431 . S
C347 C343 1.317 . S
C347 H358 0.930 1_556 S
C348 C342 1.412 . S
C348 C349 1.355 . S
C348 H360 0.930 1_556 S
C349 C348 1.355 . S
C349 C351 1.402 . S
C349 H361 0.930 1_545 S
N350 Gd341 2.661 . S
N350 C345 1.350 . S
N350 C351 1.307 . S
C351 C349 1.402 . S
C351 N350 1.307 . S
C351 H352 0.930 1_545 S
H352 C351 0.930 1_565 S
C353 N354 1.334 . S
C353 C355 1.394 . S
C353 H357 0.930 . S
N354 Gd341 2.601 . S
N354 C344 1.359 . S
N354 C353 1.334 . S
C355 C353 1.394 . S
C355 C356 1.359 . S
C355 H367 0.930 . S
C356 C346 1.391 . S
C356 C355 1.359 . S
C356 H368 0.929 . S
H357 C353 0.930 . S
H358 C347 0.930 1_554 S
H359 C376 0.930 . S
H360 C348 0.930 1_554 S
H361 C349 0.930 1_565 S
H362 C343 0.929 . S
H363 C381 0.930 . S
H364 C372 0.930 . S
H365 C373 0.930 . S
H366 C397 0.929 . S
H367 C355 0.930 . S
H368 C356 0.929 . S
H369 C398 0.930 . S
H370 C379 0.930 . S
N371 Gd340 2.661 . S
N371 C375 1.350 . S
N371 C376 1.307 1_565 S
C372 H364 0.930 . S
C372 C373 1.355 1_565 S
C372 C374 1.412 . S
C373 H365 0.930 . S
C373 C372 1.355 1_545 S
C373 C376 1.402 . S
C374 C372 1.412 . S
C374 C375 1.417 . S
C374 C398 1.431 . S
C375 N371 1.350 . S
C375 C374 1.417 . S
C375 C378 1.426 . S
C376 H359 0.930 . S
C376 N371 1.307 1_545 S
C376 C373 1.402 . S
N377 Gd340 2.601 . S
N377 C378 1.359 . S
N377 C381 1.334 . S
C378 C375 1.426 . S
C378 N377 1.359 . S
C378 C382 1.413 . S
C379 H370 0.930 . S
C379 C380 1.359 . S
C379 C381 1.394 . S
C380 C379 1.359 . S
C380 C382 1.391 . S
C380 H383 0.929 . S
C381 H363 0.930 . S
C381 N377 1.334 . S
C381 C379 1.394 . S
C382 C378 1.413 . S
C382 C380 1.391 . S
C382 C397 1.437 . S
H383 C380 0.929 . S
O384 Gd340 2.545 . S
O384 C399 1.258 . S
O385 Gd340 2.606 1_545 S
O385 Gd341 2.362 . S
O385 C396 1.284 . S
O386 Gd341 2.324 1_565 S
O386 C406 1.254 . S
O387 Gd340 2.429 . S
O387 C406 1.268 . S
O388 Gd340 2.545 1_545 S
O388 C396 1.250 . S
O389 Gd340 2.412 . S
O389 C399 1.252 . S
O390 Gd341 2.545 . S
O390 C408 1.258 . S
O391 Gd340 2.362 . S
O391 Gd341 2.606 1_565 S
O391 C407 1.284 . S
O392 Gd340 2.324 1_545 S
O392 C415 1.254 . S
O393 Gd341 2.429 . S
O393 C415 1.268 . S
O394 Gd341 2.545 . S
O394 C407 1.250 1_545 S
O395 Gd341 2.412 . S
O395 C408 1.252 . S
C396 O385 1.284 . S
C396 O388 1.250 . S
C397 H366 0.929 . S
C397 C382 1.437 . S
C397 C398 1.317 . S
C398 H369 0.930 . S
C398 C374 1.431 . S
C398 C397 1.317 . S
C399 Gd340 2.828 . S
C399 O384 1.258 . S
C399 O389 1.252 . S
C399 C400 1.497 . S
C400 C399 1.497 . S
C400 C401 1.395 . S
C400 C402 1.380 . S
C401 C400 1.395 . S
C401 C404 1.398 . S
C401 H416 0.930 . S
C402 C400 1.380 . S
C402 C403 1.391 . S
C402 H417 0.930 1_565 S
C403 C402 1.391 . S
C403 C405 1.387 . S
C404 C401 1.398 . S
C404 C405 1.380 . S
C404 H418 0.930 . S
C405 C403 1.387 . S
C405 C404 1.380 . S
C405 H419 0.930 . S
C406 O386 1.254 . S
C406 O387 1.268 . S
C407 O391 1.284 . S
C407 O394 1.250 1_565 S
C408 Gd341 2.828 . S
C408 O390 1.258 . S
C408 O395 1.252 . S
C408 C409 1.497 . S
C409 C408 1.497 . S
C409 C410 1.395 . S
C409 C411 1.380 . S
C410 C409 1.395 . S
C410 C413 1.398 . S
C410 H420 0.930 . S
C411 C409 1.380 . S
C411 C412 1.391 . S
C411 H421 0.930 . S
C412 C411 1.391 . S
C412 C414 1.387 . S
C413 C410 1.398 . S
C413 C414 1.380 . S
C413 H422 0.930 . S
C414 C412 1.387 . S
C414 C413 1.380 . S
C414 H423 0.930 . S
C415 O392 1.254 . S
C415 O393 1.268 . S
H416 C401 0.930 . S
H417 C402 0.930 1_545 S
H418 C404 0.930 . S
H419 C405 0.930 . S
H420 C410 0.930 . S
H421 C411 0.930 . S
H422 C413 0.930 . S
H423 C414 0.930 . S
Gd424 N455 2.661 . S
Gd424 N461 2.601 . S
Gd424 O468 2.545 . S
Gd424 O469 2.606 . S
Gd424 O471 2.429 . S
Gd424 O472 2.545 . S
Gd424 O473 2.412 . S
Gd424 O475 2.362 . S
Gd424 O476 2.324 . S
Gd424 C483 2.828 . S
Gd425 N434 2.661 . S
Gd425 N438 2.601 . S
Gd425 O469 2.362 . S
Gd425 O470 2.324 . S
Gd425 O474 2.545 . S
Gd425 O475 2.606 . S
Gd425 O477 2.429 . S
Gd425 O478 2.545 . S
Gd425 O479 2.412 . S
Gd425 C492 2.828 . S
C426 C429 1.417 . S
C426 C431 1.431 . S
C426 C432 1.412 . S
C427 C430 1.437 . S
C427 C431 1.317 . S
C427 H446 0.929 . S
C428 C429 1.426 . S
C428 C430 1.413 . S
C428 N438 1.359 . S
C429 C426 1.417 . S
C429 C428 1.426 . S
C429 N434 1.350 . S
C430 C427 1.437 . S
C430 C428 1.413 . S
C430 C440 1.391 . S
C431 C426 1.431 . S
C431 C427 1.317 . S
C431 H442 0.930 . S
C432 C426 1.412 . S
C432 C433 1.355 . S
C432 H444 0.930 . S
C433 C432 1.355 . S
C433 C435 1.402 . S
C433 H445 0.930 . S
N434 Gd425 2.661 . S
N434 C429 1.350 . S
N434 C435 1.307 . S
C435 C433 1.402 . S
C435 N434 1.307 . S
C435 H436 0.930 . S
H436 C435 0.930 . S
C437 N438 1.334 . S
C437 C439 1.394 . S
C437 H441 0.930 . S
N438 Gd425 2.601 . S
N438 C428 1.359 . S
N438 C437 1.334 . S
C439 C437 1.394 . S
C439 C440 1.359 . S
C439 H451 0.930 . S
C440 C430 1.391 . S
C440 C439 1.359 . S
C440 H452 0.929 . S
H441 C437 0.930 . S
H442 C431 0.930 . S
H443 C460 0.930 . S
H444 C432 0.930 . S
H445 C433 0.930 . S
H446 C427 0.929 . S
H447 C465 0.930 . S
H448 C456 0.930 . S
H449 C457 0.930 . S
H450 C481 0.929 . S
H451 C439 0.930 . S
H452 C440 0.929 . S
H453 C482 0.930 . S
H454 C463 0.930 . S
N455 Gd424 2.661 . S
N455 C459 1.350 . S
N455 C460 1.307 . S
C456 H448 0.930 . S
C456 C457 1.355 . S
C456 C458 1.412 . S
C457 H449 0.930 . S
C457 C456 1.355 . S
C457 C460 1.402 . S
C458 C456 1.412 . S
C458 C459 1.417 . S
C458 C482 1.431 . S
C459 N455 1.350 . S
C459 C458 1.417 . S
C459 C462 1.426 . S
C460 H443 0.930 . S
C460 N455 1.307 . S
C460 C457 1.402 . S
N461 Gd424 2.601 . S
N461 C462 1.359 . S
N461 C465 1.334 . S
C462 C459 1.426 . S
C462 N461 1.359 . S
C462 C466 1.413 . S
C463 H454 0.930 . S
C463 C464 1.359 . S
C463 C465 1.394 . S
C464 C463 1.359 . S
C464 C466 1.391 . S
C464 H467 0.929 . S
C465 H447 0.930 . S
C465 N461 1.334 . S
C465 C463 1.394 . S
C466 C462 1.413 . S
C466 C464 1.391 . S
C466 C481 1.437 . S
H467 C464 0.929 . S
O468 Gd424 2.545 . S
O468 C483 1.258 . S
O469 Gd424 2.606 . S
O469 Gd425 2.362 . S
O469 C480 1.284 . S
O470 Gd425 2.324 . S
O470 C490 1.254 . S
O471 Gd424 2.429 . S
O471 C490 1.268 . S
O472 Gd424 2.545 . S
O472 C480 1.250 . S
O473 Gd424 2.412 . S
O473 C483 1.252 . S
O474 Gd425 2.545 . S
O474 C492 1.258 . S
O475 Gd424 2.362 . S
O475 Gd425 2.606 . S
O475 C491 1.284 . S
O476 Gd424 2.324 . S
O476 C499 1.254 . S
O477 Gd425 2.429 . S
O477 C499 1.268 . S
O478 Gd425 2.545 . S
O478 C491 1.250 . S
O479 Gd425 2.412 . S
O479 C492 1.252 . S
C480 O469 1.284 . S
C480 O472 1.250 . S
C481 H450 0.929 . S
C481 C466 1.437 . S
C481 C482 1.317 . S
C482 H453 0.930 . S
C482 C458 1.431 . S
C482 C481 1.317 . S
C483 Gd424 2.828 . S
C483 O468 1.258 . S
C483 O473 1.252 . S
C483 C484 1.497 . S
C484 C483 1.497 . S
C484 C485 1.395 . S
C484 C486 1.380 . S
C485 C484 1.395 . S
C485 C488 1.398 1_556 S
C485 H500 0.930 . S
C486 C484 1.380 . S
C486 C487 1.391 . S
C486 H501 0.930 . S
C487 C486 1.391 . S
C487 C489 1.387 1_556 S
C488 C485 1.398 1_554 S
C488 C489 1.380 . S
C488 H502 0.930 . S
C489 C487 1.387 1_554 S
C489 C488 1.380 . S
C489 H503 0.930 . S
C490 O470 1.254 . S
C490 O471 1.268 . S
C491 O475 1.284 . S
C491 O478 1.250 . S
C492 Gd425 2.828 . S
C492 O474 1.258 . S
C492 O479 1.252 . S
C492 C493 1.497 . S
C493 C492 1.497 . S
C493 C494 1.395 . S
C493 C495 1.380 . S
C494 C493 1.395 . S
C494 C497 1.398 . S
C494 H504 0.930 . S
C495 C493 1.380 . S
C495 C496 1.391 . S
C495 H505 0.930 . S
C496 C495 1.391 . S
C496 C498 1.387 . S
C497 C494 1.398 . S
C497 C498 1.380 . S
C497 H506 0.930 . S
C498 C496 1.387 . S
C498 C497 1.380 . S
C498 H507 0.930 . S
C499 O476 1.254 . S
C499 O477 1.268 . S
H500 C485 0.930 . S
H501 C486 0.930 . S
H502 C488 0.930 . S
H503 C489 0.930 . S
H504 C494 0.930 . S
H505 C495 0.930 . S
H506 C497 0.930 . S
H507 C498 0.930 . S
Gd508 N539 2.661 . S
Gd508 N545 2.601 . S
Gd508 O552 2.545 . S
Gd508 O553 2.611 . S
Gd508 O555 2.429 1_655 S
Gd508 O556 2.545 . S
Gd508 O557 2.412 . S
Gd508 O559 2.362 1_655 S
Gd508 O560 2.324 . S
Gd508 C567 2.828 . S
Gd509 N518 2.661 . S
Gd509 N522 2.601 . S
Gd509 O553 2.353 1_455 S
Gd509 O554 2.324 . S
Gd509 O558 2.545 . S
Gd509 O559 2.606 . S
Gd509 O561 2.429 1_455 S
Gd509 O562 2.545 . S
Gd509 O563 2.412 . S
Gd509 C576 2.828 . S
C510 C513 1.417 . S
C510 C515 1.431 . S
C510 C516 1.412 . S
C511 C514 1.437 . S
C511 C515 1.317 . S
C511 H530 0.929 . S
C512 C513 1.426 . S
C512 C514 1.413 . S
C512 N522 1.359 . S
C513 C510 1.417 . S
C513 C512 1.426 . S
C513 N518 1.350 . S
C514 C511 1.437 . S
C514 C512 1.413 . S
C514 C524 1.391 . S
C515 C510 1.431 . S
C515 C511 1.317 . S
C515 H526 0.930 . S
C516 C510 1.412 . S
C516 C517 1.355 . S
C516 H528 0.930 . S
C517 C516 1.355 . S
C517 C519 1.402 . S
C517 H529 0.930 . S
N518 Gd509 2.661 . S
N518 C513 1.350 . S
N518 C519 1.307 . S
C519 C517 1.402 . S
C519 N518 1.307 . S
C519 H520 0.930 . S
H520 C519 0.930 . S
C521 N522 1.326 1_655 S
C521 C523 1.396 . S
C521 H525 0.937 . S
N522 Gd509 2.601 . S
N522 C512 1.359 . S
N522 C521 1.326 1_455 S
C523 C521 1.396 . S
C523 C524 1.359 1_655 S
C523 H535 0.930 . S
C524 C514 1.391 . S
C524 C523 1.359 1_455 S
C524 H536 0.929 . S
H525 C521 0.937 . S
H526 C515 0.930 . S
H527 C544 0.930 . S
H528 C516 0.930 . S
H529 C517 0.930 . S
H530 C511 0.929 . S
H531 C549 0.930 . S
H532 C540 0.930 . S
H533 C541 0.930 . S
H534 C565 0.929 . S
H535 C523 0.930 . S
H536 C524 0.929 . S
H537 C566 0.930 . S
H538 C547 0.930 . S
N539 Gd508 2.661 . S
N539 C543 1.350 . S
N539 C544 1.307 . S
C540 H532 0.930 . S
C540 C541 1.355 . S
C540 C542 1.412 . S
C541 H533 0.930 . S
C541 C540 1.355 . S
C541 C544 1.402 . S
C542 C540 1.412 . S
C542 C543 1.417 . S
C542 C566 1.431 . S
C543 N539 1.350 . S
C543 C542 1.417 . S
C543 C546 1.426 . S
C544 H527 0.930 . S
C544 N539 1.307 . S
C544 C541 1.402 . S
N545 Gd508 2.601 . S
N545 C546 1.359 . S
N545 C549 1.334 1_655 S
C546 C543 1.426 . S
C546 N545 1.359 . S
C546 C550 1.413 . S
C547 H538 0.930 . S
C547 C548 1.349 1_455 S
C547 C549 1.394 . S
C548 C547 1.349 1_655 S
C548 C550 1.404 . S
C548 H551 0.926 1_655 S
C549 H531 0.930 . S
C549 N545 1.334 1_455 S
C549 C547 1.394 . S
C550 C546 1.413 . S
C550 C548 1.404 . S
C550 C565 1.437 . S
H551 C548 0.926 1_455 S
O552 Gd508 2.545 . S
O552 C567 1.258 . S
O553 Gd508 2.611 . S
O553 Gd509 2.353 1_655 S
O553 C564 1.291 . S
O554 Gd509 2.324 . S
O554 C574 1.254 . S
O555 Gd508 2.429 1_455 S
O555 C574 1.268 . S
O556 Gd508 2.545 . S
O556 C564 1.250 . S
O557 Gd508 2.412 . S
O557 C567 1.252 . S
O558 Gd509 2.545 . S
O558 C576 1.258 . S
O559 Gd508 2.362 1_455 S
O559 Gd509 2.606 . S
O559 C575 1.284 . S
O560 Gd508 2.324 . S
O560 C583 1.254 . S
O561 Gd509 2.429 1_655 S
O561 C583 1.268 . S
O562 Gd509 2.545 . S
O562 C575 1.250 . S
O563 Gd509 2.412 . S
O563 C576 1.252 . S
C564 O553 1.291 . S
C564 O556 1.250 . S
C565 H534 0.929 . S
C565 C550 1.437 . S
C565 C566 1.317 . S
C566 H537 0.930 . S
C566 C542 1.431 . S
C566 C565 1.317 . S
C567 Gd508 2.828 . S
C567 O552 1.258 . S
C567 O557 1.252 . S
C567 C568 1.497 . S
C568 C567 1.497 . S
C568 C569 1.395 . S
C568 C570 1.380 . S
C569 C568 1.395 . S
C569 C572 1.398 1_556 S
C569 H584 0.930 . S
C570 C568 1.380 . S
C570 C571 1.391 . S
C570 H585 0.930 . S
C571 C570 1.391 . S
C571 C573 1.387 1_556 S
C572 C569 1.398 1_554 S
C572 C573 1.380 . S
C572 H586 0.930 . S
C573 C571 1.387 1_554 S
C573 C572 1.380 . S
C573 H587 0.930 . S
C574 O554 1.254 . S
C574 O555 1.268 . S
C575 O559 1.284 . S
C575 O562 1.250 . S
C576 Gd509 2.828 . S
C576 O558 1.258 . S
C576 O563 1.252 . S
C576 C577 1.497 . S
C577 C576 1.497 . S
C577 C578 1.395 . S
C577 C579 1.380 . S
C578 C577 1.395 . S
C578 C581 1.398 . S
C578 H588 0.930 . S
C579 C577 1.380 . S
C579 C580 1.391 . S
C579 H589 0.930 . S
C580 C579 1.391 . S
C580 C582 1.387 . S
C581 C578 1.398 . S
C581 C582 1.380 . S
C581 H590 0.930 . S
C582 C580 1.387 . S
C582 C581 1.380 . S
C582 H591 0.930 . S
C583 O560 1.254 . S
C583 O561 1.268 . S
H584 C569 0.930 . S
H585 C570 0.930 . S
H586 C572 0.930 . S
H587 C573 0.930 . S
H588 C578 0.930 . S
H589 C579 0.930 . S
H590 C581 0.930 . S
H591 C582 0.930 . S
H592 C598 0.930 . S
H593 C601 0.930 . S
H594 C602 0.930 1_565 S
H595 C603 0.930 1_565 S
H596 C606 0.930 . S
H597 C607 0.930 . S
C598 H592 0.930 . S
C598 C599 1.355 . S
C598 C600 1.415 . S
C599 C598 1.355 . S
C599 C601 1.419 . S
C600 C598 1.415 . S
C600 C605 1.425 . S
C600 C607 1.409 . S
C601 H593 0.930 . S
C601 C599 1.419 . S
C601 C602 1.362 . S
C602 H594 0.930 1_545 S
C602 C601 1.362 . S
C602 C605 1.409 . S
C603 H595 0.930 1_545 S
C603 C604 1.355 . S
C603 C605 1.415 . S
C604 C603 1.355 . S
C604 C606 1.419 . S
C605 C600 1.425 . S
C605 C602 1.409 . S
C605 C603 1.415 . S
C606 H596 0.930 . S
C606 C604 1.419 . S
C606 C607 1.362 . S
C607 H597 0.930 . S
C607 C600 1.409 . S
C607 C606 1.362 . S
H608 C614 0.930 . S
H609 C617 0.930 . S
H610 C618 0.930 . S
H611 C619 0.930 . S
H612 C622 0.930 . S
H613 C623 0.930 . S
C614 H608 0.930 . S
C614 C615 1.355 . S
C614 C616 1.415 . S
C615 C614 1.355 . S
C615 C617 1.419 . S
C616 C614 1.415 . S
C616 C621 1.425 . S
C616 C623 1.409 . S
C617 H609 0.930 . S
C617 C615 1.419 . S
C617 C618 1.362 . S
C618 H610 0.930 . S
C618 C617 1.362 . S
C618 C621 1.409 . S
C619 H611 0.930 . S
C619 C620 1.355 . S
C619 C621 1.415 . S
C620 C619 1.355 . S
C620 C622 1.419 . S
C621 C616 1.425 . S
C621 C618 1.409 . S
C621 C619 1.415 . S
C622 H612 0.930 . S
C622 C620 1.419 . S
C622 C623 1.362 . S
C623 H613 0.930 . S
C623 C616 1.409 . S
C623 C622 1.362 . S
H624 C630 0.930 . S
H625 C633 0.930 . S
H626 C634 0.930 . S
H627 C635 0.930 . S
H628 C638 0.930 . S
H629 C639 0.930 . S
C630 H624 0.930 . S
C630 C631 1.355 . S
C630 C632 1.415 . S
C631 C630 1.355 . S
C631 C633 1.419 . S
C632 C630 1.415 . S
C632 C637 1.425 . S
C632 C639 1.409 . S
C633 H625 0.930 . S
C633 C631 1.419 . S
C633 C634 1.362 . S
C634 H626 0.930 . S
C634 C633 1.362 . S
C634 C637 1.409 . S
C635 H627 0.930 . S
C635 C636 1.355 . S
C635 C637 1.415 . S
C636 C635 1.355 . S
C636 C638 1.419 . S
C637 C632 1.425 . S
C637 C634 1.409 . S
C637 C635 1.415 . S
C638 H628 0.930 . S
C638 C636 1.419 . S
C638 C639 1.362 . S
C639 H629 0.930 . S
C639 C632 1.409 . S
C639 C638 1.362 . S
H640 C646 0.930 . S
H641 C649 0.930 . S
H642 C650 0.930 1_655 S
H643 C651 0.930 1_655 S
H644 C654 0.930 . S
H645 C655 0.930 . S
C646 H640 0.930 . S
C646 C647 1.355 . S
C646 C648 1.415 . S
C647 C646 1.355 . S
C647 C649 1.419 . S
C648 C646 1.415 . S
C648 C653 1.425 . S
C648 C655 1.409 . S
C649 H641 0.930 . S
C649 C647 1.419 . S
C649 C650 1.362 . S
C650 H642 0.930 1_455 S
C650 C649 1.362 . S
C650 C653 1.409 . S
C651 H643 0.930 1_455 S
C651 C652 1.355 . S
C651 C653 1.415 . S
C652 C651 1.355 . S
C652 C654 1.419 . S
C653 C648 1.425 . S
C653 C650 1.409 . S
C653 C651 1.415 . S
C654 H644 0.930 . S
C654 C652 1.419 . S
C654 C655 1.362 . S
C655 H645 0.930 . S
C655 C648 1.409 . S
C655 C654 1.362 . S
H656 C662 0.930 . S
H657 C665 0.930 . S
H658 C666 0.930 . S
H659 C667 0.930 . S
H660 C670 0.930 1_545 S
H661 C671 0.930 1_554 S
C662 H656 0.930 . S
C662 C663 1.355 . S
C662 C664 1.415 . S
C663 C662 1.355 . S
C663 C665 1.419 . S
C664 C662 1.415 . S
C664 C669 1.425 1_554 S
C664 C671 1.409 1_554 S
C665 H657 0.930 . S
C665 C663 1.419 . S
C665 C666 1.362 1_554 S
C666 H658 0.930 . S
C666 C665 1.362 1_556 S
C666 C669 1.409 . S
C667 H659 0.930 . S
C667 C668 1.355 . S
C667 C669 1.415 . S
C668 C667 1.355 . S
C668 C670 1.419 . S
C669 C664 1.425 1_556 S
C669 C666 1.409 . S
C669 C667 1.415 . S
C670 H660 0.930 1_565 S
C670 C668 1.419 . S
C670 C671 1.362 . S
C671 H661 0.930 1_556 S
C671 C664 1.409 1_556 S
C671 C670 1.362 . S
H672 C678 0.930 . S
H673 C681 0.930 . S
H674 C682 0.930 . S
H675 C683 0.930 . S
H676 C686 0.930 . S
H677 C687 0.930 . S
C678 H672 0.930 . S
C678 C679 1.355 . S
C678 C680 1.415 1_554 S
C679 C678 1.355 . S
C679 C681 1.419 . S
C680 C678 1.415 1_556 S
C680 C685 1.425 . S
C680 C687 1.409 . S
C681 H673 0.930 . S
C681 C679 1.419 . S
C681 C682 1.362 . S
C682 H674 0.930 . S
C682 C681 1.362 . S
C682 C685 1.409 1_554 S
C683 H675 0.930 . S
C683 C684 1.355 . S
C683 C685 1.415 . S
C684 C683 1.355 . S
C684 C686 1.419 . S
C685 C680 1.425 . S
C685 C682 1.409 1_556 S
C685 C683 1.415 . S
C686 H676 0.930 . S
C686 C684 1.419 . S
C686 C687 1.362 . S
C687 H677 0.930 . S
C687 C680 1.409 . S
C687 C686 1.362 . S
H688 C694 0.930 . S
H689 C697 0.930 . S
H690 C698 0.930 . S
H691 C699 0.930 . S
H692 C702 0.930 . S
H693 C703 0.930 . S
C694 H688 0.930 . S
C694 C695 1.355 . S
C694 C696 1.415 1_554 S
C695 C694 1.355 . S
C695 C697 1.419 . S
C696 C694 1.415 1_556 S
C696 C701 1.425 . S
C696 C703 1.409 . S
C697 H689 0.930 . S
C697 C695 1.419 . S
C697 C698 1.362 . S
C698 H690 0.930 . S
C698 C697 1.362 . S
C698 C701 1.409 1_554 S
C699 H691 0.930 . S
C699 C700 1.355 . S
C699 C701 1.415 . S
C700 C699 1.355 . S
C700 C702 1.419 . S
C701 C696 1.425 . S
C701 C698 1.409 1_556 S
C701 C699 1.415 . S
C702 H692 0.930 . S
C702 C700 1.419 . S
C702 C703 1.362 . S
C703 H693 0.930 . S
C703 C696 1.409 . S
C703 C702 1.362 . S
H704 C710 0.930 . S
H705 C713 0.930 . S
H706 C714 0.930 . S
H707 C715 0.930 . S
H708 C718 0.930 . S
H709 C719 0.930 1_554 S
C710 H704 0.930 . S
C710 C711 1.355 . S
C710 C712 1.410 1_554 S
C711 C710 1.355 . S
C711 C713 1.419 . S
C712 C710 1.410 1_556 S
C712 C717 1.429 . S
C712 C719 1.411 1_655 S
C713 H705 0.930 . S
C713 C711 1.419 . S
C713 C714 1.362 1_554 S
C714 H706 0.930 . S
C714 C713 1.362 1_556 S
C714 C717 1.409 . S
C715 H707 0.930 . S
C715 C716 1.355 . S
C715 C717 1.415 . S
C716 C715 1.355 . S
C716 C718 1.419 1_655 S
C717 C712 1.429 . S
C717 C714 1.409 . S
C717 C715 1.415 . S
C718 H708 0.930 . S
C718 C716 1.419 1_455 S
C718 C719 1.362 . S
C719 H709 0.930 1_556 S
C719 C712 1.411 1_455 S
C719 C718 1.362 . S
H720 C726 0.930 . S
H721 C729 0.930 . S
H722 C730 0.930 . S
H723 C731 0.930 . S
H724 C734 0.930 . S
H725 C735 0.930 . S
C726 H720 0.930 . S
C726 C727 1.355 . S
C726 C728 1.415 . S
C727 C726 1.355 . S
C727 C729 1.419 . S
C728 C726 1.415 . S
C728 C733 1.425 . S
C728 C735 1.409 . S
C729 H721 0.930 . S
C729 C727 1.419 . S
C729 C730 1.362 . S
C730 H722 0.930 . S
C730 C729 1.362 . S
C730 C733 1.409 . S
C731 H723 0.930 . S
C731 C732 1.355 1_655 S
C731 C733 1.415 1_655 S
C732 C731 1.355 1_455 S
C732 C734 1.418 . S
C733 C728 1.425 . S
C733 C730 1.409 . S
C733 C731 1.415 1_455 S
C734 H724 0.930 . S
C734 C732 1.418 . S
C734 C735 1.362 . S
C735 H725 0.930 . S
C735 C728 1.409 . S
C735 C734 1.362 . S
H736 C742 0.930 . S
H737 C745 0.930 . S
H738 C746 0.930 1_565 S
H739 C747 0.930 . S
H740 C750 0.930 . S
H741 C751 0.930 . S
C742 H736 0.930 . S
C742 C743 1.355 . S
C742 C744 1.415 . S
C743 C742 1.355 . S
C743 C745 1.419 . S
C744 C742 1.415 . S
C744 C749 1.425 . S
C744 C751 1.409 . S
C745 H737 0.930 . S
C745 C743 1.419 . S
C745 C746 1.362 . S
C746 H738 0.930 1_545 S
C746 C745 1.362 . S
C746 C749 1.409 . S
C747 H739 0.930 . S
C747 C748 1.354 . S
C747 C749 1.415 1_565 S
C748 C747 1.354 . S
C748 C750 1.423 1_565 S
C749 C744 1.425 . S
C749 C746 1.409 . S
C749 C747 1.415 1_545 S
C750 H740 0.930 . S
C750 C748 1.423 1_545 S
C750 C751 1.362 . S
C751 H741 0.930 . S
C751 C744 1.409 . S
C751 C750 1.362 . S
H752 C758 0.930 . S
H753 C761 0.930 . S
H754 C762 0.930 . S
H755 C763 0.930 . S
H756 C766 0.930 . S
H757 C767 0.930 . S
C758 H752 0.930 . S
C758 C759 1.355 . S
C758 C760 1.415 . S
C759 C758 1.355 . S
C759 C761 1.419 . S
C760 C758 1.415 . S
C760 C765 1.425 . S
C760 C767 1.409 . S
C761 H753 0.930 . S
C761 C759 1.419 . S
C761 C762 1.362 . S
C762 H754 0.930 . S
C762 C761 1.362 . S
C762 C765 1.409 . S
C763 H755 0.930 . S
C763 C764 1.355 . S
C763 C765 1.415 . S
C764 C763 1.355 . S
C764 C766 1.419 . S
C765 C760 1.425 . S
C765 C762 1.409 . S
C765 C763 1.415 . S
C766 H756 0.930 . S
C766 C764 1.419 . S
C766 C767 1.362 . S
C767 H757 0.930 . S
C767 C760 1.409 . S
C767 C766 1.362 . S
H768 C774 0.930 . S
H769 C777 0.930 . S
H770 C778 0.930 . S
H771 C779 0.930 . S
H772 C782 0.930 . S
H773 C783 0.930 . S
C774 H768 0.930 . S
C774 C775 1.355 . S
C774 C776 1.415 . S
C775 C774 1.355 . S
C775 C777 1.419 . S
C776 C774 1.415 . S
C776 C781 1.425 . S
C776 C783 1.409 . S
C777 H769 0.930 . S
C777 C775 1.419 . S
C777 C778 1.362 . S
C778 H770 0.930 . S
C778 C777 1.362 . S
C778 C781 1.409 . S
C779 H771 0.930 . S
C779 C780 1.355 . S
C779 C781 1.415 . S
C780 C779 1.355 . S
C780 C782 1.419 . S
C781 C776 1.425 . S
C781 C778 1.409 . S
C781 C779 1.415 . S
C782 H772 0.930 . S
C782 C780 1.419 . S
C782 C783 1.362 . S
C783 H773 0.930 . S
C783 C776 1.409 . S
C783 C782 1.362 . S
H784 C790 0.930 . S
H785 C793 0.930 . S
H786 C794 0.930 . S
H787 C795 0.930 . S
H788 C798 0.930 . S
H789 C799 0.930 . S
C790 H784 0.930 . S
C790 C791 1.355 . S
C790 C792 1.415 . S
C791 C790 1.355 . S
C791 C793 1.419 1_554 S
C792 C790 1.415 . S
C792 C797 1.425 1_554 S
C792 C799 1.409 1_655 S
C793 H785 0.930 . S
C793 C791 1.419 1_556 S
C793 C794 1.362 . S
C794 H786 0.930 . S
C794 C793 1.362 . S
C794 C797 1.409 . S
C795 H787 0.930 . S
C795 C796 1.355 1_655 S
C795 C797 1.415 . S
C796 C795 1.355 1_455 S
C796 C798 1.419 1_556 S
C797 C792 1.425 1_556 S
C797 C794 1.409 . S
C797 C795 1.415 . S
C798 H788 0.930 . S
C798 C796 1.419 1_554 S
C798 C799 1.362 . S
C799 H789 0.930 . S
C799 C792 1.409 1_455 S
C799 C798 1.362 . S
H800 C806 0.930 . S
H801 C809 0.930 . S
H802 C810 0.930 . S
H803 C811 0.930 . S
H804 C814 0.930 . S
H805 C815 0.930 . S
C806 H800 0.930 . S
C806 C807 1.355 . S
C806 C808 1.415 . S
C807 C806 1.355 . S
C807 C809 1.419 1_554 S
C808 C806 1.415 . S
C808 C813 1.425 1_554 S
C808 C815 1.409 . S
C809 H801 0.930 . S
C809 C807 1.419 1_556 S
C809 C810 1.362 . S
C810 H802 0.930 . S
C810 C809 1.362 . S
C810 C813 1.409 . S
C811 H803 0.930 . S
C811 C812 1.355 . S
C811 C813 1.415 1_545 S
C812 C811 1.355 . S
C812 C814 1.419 1_556 S
C813 C808 1.425 1_556 S
C813 C810 1.409 . S
C813 C811 1.415 1_565 S
C814 H804 0.930 . S
C814 C812 1.419 1_554 S
C814 C815 1.362 1_545 S
C815 H805 0.930 . S
C815 C808 1.409 . S
C815 C814 1.362 1_565 S
H816 C822 0.930 1_556 S
H817 C825 0.930 . S
H818 C826 0.930 . S
H819 C827 0.930 . S
H820 C830 0.930 . S
H821 C831 0.930 . S
C822 H816 0.930 1_554 S
C822 C823 1.355 . S
C822 C824 1.415 1_554 S
C823 C822 1.355 . S
C823 C825 1.419 . S
C824 C822 1.415 1_556 S
C824 C829 1.425 1_556 S
C824 C831 1.409 . S
C825 H817 0.930 . S
C825 C823 1.419 . S
C825 C826 1.362 . S
C826 H818 0.930 . S
C826 C825 1.362 . S
C826 C829 1.409 . S
C827 H819 0.930 . S
C827 C828 1.355 1_554 S
C827 C829 1.415 . S
C828 C827 1.355 1_556 S
C828 C830 1.419 . S
C829 C824 1.425 1_554 S
C829 C826 1.409 . S
C829 C827 1.415 . S
C830 H820 0.930 . S
C830 C828 1.419 . S
C830 C831 1.362 . S
C831 H821 0.930 . S
C831 C824 1.409 . S
C831 C830 1.362 . S
H832 C838 0.930 . S
H833 C841 0.930 . S
H834 C842 0.930 . S
H835 C843 0.930 . S
H836 C846 0.930 . S
H837 C847 0.930 . S
C838 H832 0.930 . S
C838 C839 1.355 . S
C838 C840 1.415 . S
C839 C838 1.355 . S
C839 C841 1.419 1_554 S
C840 C838 1.415 . S
C840 C845 1.425 1_554 S
C840 C847 1.409 . S
C841 H833 0.930 . S
C841 C839 1.419 1_556 S
C841 C842 1.362 . S
C842 H834 0.930 . S
C842 C841 1.362 . S
C842 C845 1.409 . S
C843 H835 0.930 . S
C843 C844 1.355 . S
C843 C845 1.415 . S
C844 C843 1.355 . S
C844 C846 1.419 1_556 S
C845 C840 1.425 1_556 S
C845 C842 1.409 . S
C845 C843 1.415 . S
C846 H836 0.930 . S
C846 C844 1.419 1_554 S
C846 C847 1.362 . S
C847 H837 0.930 . S
C847 C840 1.409 . S
C847 C846 1.362 . S
H848 C854 0.930 . S
H849 C857 0.930 . S
H850 C858 0.930 . S
H851 C859 0.930 . S
H852 C862 0.930 . S
H853 C863 0.930 . S
C854 H848 0.930 . S
C854 C855 1.355 . S
C854 C856 1.415 . S
C855 C854 1.355 . S
C855 C857 1.419 . S
C856 C854 1.415 . S
C856 C861 1.425 . S
C856 C863 1.409 . S
C857 H849 0.930 . S
C857 C855 1.419 . S
C857 C858 1.362 . S
C858 H850 0.930 . S
C858 C857 1.362 . S
C858 C861 1.409 . S
C859 H851 0.930 . S
C859 C860 1.355 . S
C859 C861 1.415 . S
C860 C859 1.355 . S
C860 C862 1.419 . S
C861 C856 1.425 . S
C861 C858 1.409 . S
C861 C859 1.415 . S
C862 H852 0.930 . S
C862 C860 1.419 . S
C862 C863 1.362 . S
C863 H853 0.930 . S
C863 C856 1.409 . S
C863 C862 1.362 . S
H864 C870 0.930 . S
H865 C873 0.930 . S
H866 C874 0.930 1_565 S
H867 C875 0.930 . S
H868 C878 0.930 . S
H869 C879 0.930 . S
C870 H864 0.930 . S
C870 C871 1.355 . S
C870 C872 1.415 . S
C871 C870 1.355 . S
C871 C873 1.419 . S
C872 C870 1.415 . S
C872 C877 1.425 . S
C872 C879 1.409 . S
C873 H865 0.930 . S
C873 C871 1.419 . S
C873 C874 1.362 . S
C874 H866 0.930 1_545 S
C874 C873 1.362 . S
C874 C877 1.409 . S
C875 H867 0.930 . S
C875 C876 1.355 . S
C875 C877 1.415 . S
C876 C875 1.355 . S
C876 C878 1.419 . S
C877 C872 1.425 . S
C877 C874 1.409 . S
C877 C875 1.415 . S
C878 H868 0.930 . S
C878 C876 1.419 . S
C878 C879 1.362 . S
C879 H869 0.930 . S
C879 C872 1.409 . S
C879 C878 1.362 . S
H880 C886 0.930 . S
H881 C889 0.930 . S
H882 C890 0.930 . S
H883 C891 0.930 . S
H884 C894 0.930 . S
H885 C895 0.930 . S
C886 H880 0.930 . S
C886 C887 1.355 . S
C886 C888 1.415 . S
C887 C886 1.355 . S
C887 C889 1.419 . S
C888 C886 1.415 . S
C888 C893 1.425 . S
C888 C895 1.409 . S
C889 H881 0.930 . S
C889 C887 1.419 . S
C889 C890 1.362 . S
C890 H882 0.930 . S
C890 C889 1.362 . S
C890 C893 1.409 . S
C891 H883 0.930 . S
C891 C892 1.355 . S
C891 C893 1.415 . S
C892 C891 1.355 . S
C892 C894 1.419 . S
C893 C888 1.425 . S
C893 C890 1.409 . S
C893 C891 1.415 . S
C894 H884 0.930 . S
C894 C892 1.419 . S
C894 C895 1.362 . S
C895 H885 0.930 . S
C895 C888 1.409 . S
C895 C894 1.362 . S
H896 C902 0.930 . S
H897 C905 0.930 . S
H898 C906 0.930 . S
H899 C907 0.930 . S
H900 C910 0.930 . S
H901 C911 0.930 . S
C902 H896 0.930 . S
C902 C903 1.355 . S
C902 C904 1.415 . S
C903 C902 1.355 . S
C903 C905 1.419 . S
C904 C902 1.415 . S
C904 C909 1.425 . S
C904 C911 1.409 . S
C905 H897 0.930 . S
C905 C903 1.419 . S
C905 C906 1.362 . S
C906 H898 0.930 . S
C906 C905 1.362 . S
C906 C909 1.409 . S
C907 H899 0.930 . S
C907 C908 1.355 . S
C907 C909 1.415 . S
C908 C907 1.355 . S
C908 C910 1.419 . S
C909 C904 1.425 . S
C909 C906 1.409 . S
C909 C907 1.415 . S
C910 H900 0.930 . S
C910 C908 1.419 . S
C910 C911 1.362 . S
C911 H901 0.930 . S
C911 C904 1.409 . S
C911 C910 1.362 . S
H912 C918 0.930 . S
H913 C921 0.930 . S
H914 C922 0.930 . S
H915 C923 0.930 . S
H916 C926 0.930 . S
H917 C927 0.930 . S
C918 H912 0.930 . S
C918 C919 1.355 . S
C918 C920 1.415 . S
C919 C918 1.355 . S
C919 C921 1.419 . S
C920 C918 1.415 . S
C920 C925 1.425 . S
C920 C927 1.409 . S
C921 H913 0.930 . S
C921 C919 1.419 . S
C921 C922 1.362 . S
C922 H914 0.930 . S
C922 C921 1.362 . S
C922 C925 1.409 . S
C923 H915 0.930 . S
C923 C924 1.355 . S
C923 C925 1.415 . S
C924 C923 1.355 . S
C924 C926 1.419 . S
C925 C920 1.425 . S
C925 C922 1.409 . S
C925 C923 1.415 . S
C926 H916 0.930 . S
C926 C924 1.419 . S
C926 C927 1.362 . S
C927 H917 0.930 . S
C927 C920 1.409 . S
C927 C926 1.362 . S
H928 C934 0.930 . S
H929 C937 0.930 . S
H930 C938 0.930 . S
H931 C939 0.930 . S
H932 C942 0.914 1_545 S
H933 C943 0.930 1_545 S
C934 H928 0.930 . S
C934 C935 1.355 . S
C934 C936 1.415 . S
C935 C934 1.355 . S
C935 C937 1.419 . S
C936 C934 1.415 . S
C936 C941 1.425 . S
C936 C943 1.409 . S
C937 H929 0.930 . S
C937 C935 1.419 . S
C937 C938 1.362 . S
C938 H930 0.930 . S
C938 C937 1.362 . S
C938 C941 1.409 . S
C939 H931 0.930 . S
C939 C940 1.355 . S
C939 C941 1.415 . S
C940 C939 1.355 . S
C940 C942 1.434 . S
C941 C936 1.425 . S
C941 C938 1.409 . S
C941 C939 1.415 . S
C942 H932 0.914 1_565 S
C942 C940 1.434 . S
C942 C943 1.363 . S
C943 H933 0.930 1_565 S
C943 C936 1.409 . S
C943 C942 1.363 . S
H944 C950 0.930 . S
H945 C953 0.930 . S
H946 C954 0.930 . S
H947 C955 0.930 . S
H948 C958 0.930 . S
H949 C959 0.930 . S
C950 H944 0.930 . S
C950 C951 1.355 . S
C950 C952 1.415 . S
C951 C950 1.355 . S
C951 C953 1.419 . S
C952 C950 1.415 . S
C952 C957 1.425 . S
C952 C959 1.409 . S
C953 H945 0.930 . S
C953 C951 1.419 . S
C953 C954 1.362 . S
C954 H946 0.930 . S
C954 C953 1.362 . S
C954 C957 1.409 . S
C955 H947 0.930 . S
C955 C956 1.355 . S
C955 C957 1.415 . S
C956 C955 1.355 . S
C956 C958 1.419 . S
C957 C952 1.425 . S
C957 C954 1.409 . S
C957 C955 1.415 . S
C958 H948 0.930 . S
C958 C956 1.419 . S
C958 C959 1.362 . S
C959 H949 0.930 . S
C959 C952 1.409 . S
C959 C958 1.362 . S
H960 C966 0.930 . S
H961 C969 0.930 . S
H962 C970 0.930 . S
H963 C971 0.930 . S
H964 C974 0.930 . S
H965 C975 0.930 . S
C966 H960 0.930 . S
C966 C967 1.355 . S
C966 C968 1.415 . S
C967 C966 1.355 . S
C967 C969 1.419 . S
C968 C966 1.415 . S
C968 C973 1.425 . S
C968 C975 1.409 . S
C969 H961 0.930 . S
C969 C967 1.419 . S
C969 C970 1.362 . S
C970 H962 0.930 . S
C970 C969 1.362 . S
C970 C973 1.409 . S
C971 H963 0.930 . S
C971 C972 1.355 . S
C971 C973 1.415 . S
C972 C971 1.355 . S
C972 C974 1.419 . S
C973 C968 1.425 . S
C973 C970 1.409 . S
C973 C971 1.415 . S
C974 H964 0.930 . S
C974 C972 1.419 . S
C974 C975 1.362 . S
C975 H965 0.930 . S
C975 C968 1.409 . S
C975 C974 1.362 . S
C599 C215 2.249 . S
C604 C331 2.291 . S
C620 C415 2.278 . S
C615 C247 2.252 . S
C636 C491 2.195 . S
C631 C151 2.370 . S
C652 C575 2.132 . S
C647 C183 2.321 . S
C668 C322 2.247 1_565 S
C663 C87 2.107 . S
C679 C119 2.114 . S
C684 C406 2.304 . S
C695 C23 2.211 . S
C700 C480 2.184 . S
C711 C55 2.223 . S
C716 C564 2.149 . S
C732 C319 0.810 1_455 S
C727 C189 0.745 . S
C748 C403 0.764 . S
C743 C221 0.694 . S
C764 C496 0.734 . S
C759 C253 0.653 . S
C775 C157 0.698 . S
C780 C580 0.782 . S
C791 C61 0.884 . S
C796 C328 0.758 . S
C812 C412 0.727 . S
C807 C93 0.787 . S
C828 C487 0.727 . S
C823 C125 0.600 . S
C839 C29 0.829 . S
C844 C571 0.694 . S
C855 C177 2.547 . S
C860 C312 2.623 . S
C871 C209 2.576 . S
C876 C396 2.655 . S
C892 C490 2.725 . S
C887 C241 2.488 . S
C908 C574 2.725 . S
C903 C145 2.460 . S
C919 C49 2.508 . S
C924 C323 2.682 . S
C940 C407 2.629 . S
C935 C81 2.510 . S
C956 C499 2.712 . S
C951 C113 2.336 . S
C967 C17 2.427 . S
C972 C583 2.727 . S
