# Generated by pormake.
# Topology rtl, (3,6)-cn, num edge types: 1
# Building blocks:
#     Node 0, Type 0, BuildingBlock: MIDCAF_clean_linker_0, # of connection points: 3
#     Node 1, Type 0, BuildingBlock: MIDCAF_clean_linker_0, # of connection points: 3
#     Node 2, Type 0, BuildingBlock: MIDCAF_clean_linker_0, # of connection points: 3
#     Node 3, Type 0, BuildingBlock: MIDCAF_clean_linker_0, # of connection points: 3
#     Node 4, Type 1, BuildingBlock: VOLQOD_clean_sbu_1, # of connection points: 6
#     Node 5, Type 1, BuildingBlock: VOLQOD_clean_sbu_1, # of connection points: 6
#     Edge 6, Type (0, 1), BuildingBlock: KIFKEQ_clean_linker_1, # of connection points: 2
#     Edge 7, Type (0, 1), BuildingBlock: KIFKEQ_clean_linker_1, # of connection points: 2
#     Edge 8, Type (0, 1), BuildingBlock: KIFKEQ_clean_linker_1, # of connection points: 2
#     Edge 9, Type (0, 1), BuildingBlock: KIFKEQ_clean_linker_1, # of connection points: 2
#     Edge 10, Type (0, 1), BuildingBlock: KIFKEQ_clean_linker_1, # of connection points: 2
#     Edge 11, Type (0, 1), BuildingBlock: KIFKEQ_clean_linker_1, # of connection points: 2
#     Edge 12, Type (0, 1), BuildingBlock: KIFKEQ_clean_linker_1, # of connection points: 2
#     Edge 13, Type (0, 1), BuildingBlock: KIFKEQ_clean_linker_1, # of connection points: 2
#     Edge 14, Type (0, 1), BuildingBlock: KIFKEQ_clean_linker_1, # of connection points: 2
#     Edge 15, Type (0, 1), BuildingBlock: KIFKEQ_clean_linker_1, # of connection points: 2
#     Edge 16, Type (0, 1), BuildingBlock: KIFKEQ_clean_linker_1, # of connection points: 2
#     Edge 17, Type (0, 1), BuildingBlock: KIFKEQ_clean_linker_1, # of connection points: 2
# Relax obj value: 0.080
# Max RMSD: 0.156
# Mean RMSD: 0.090
data_MOF--net-rtl--node1-VOLQOD_clean_sbu_1--node2-MIDCAF_clean_linker_0--edge1-KIFKEQ_clean_linker_1
_symmetry_space_group_name_H-M    P1
_symmetry_Int_Tables_number       1
_symmetry_cell_setting            triclinic
loop_
_symmetry_equiv_pos_as_xyz
'x, y, z'
_cell_length_a     45.210746
_cell_length_b     38.938542
_cell_length_c     29.493611
_cell_angle_alpha  89.748781
_cell_angle_beta   90.235906
_cell_angle_gamma 90.034002
loop_
_atom_site_label
_atom_site_type_symbol
_atom_site_fract_x
_atom_site_fract_y
_atom_site_fract_z
_atom_type_partial_charge
C0 C 0.0577 0.77536 0.12943 0.0
C1 C 0.07448 0.77236 0.16943 0.0
C2 C 0.09969 0.75126 0.16956 0.0
C3 C 0.10861 0.73464 0.12999 0.0
H4 H 0.1698 0.66705 0.07913 0.0
H5 H 0.21601 0.63508 0.07923 0.0
H6 H 0.21825 0.64009 0.93295 0.0
H7 H 0.17175 0.67149 0.93257 0.0
H8 H 0.12902 0.72276 0.88145 0.0
H9 H 0.11296 0.75269 0.81285 0.0
H10 H 0.03768 0.79325 0.88456 0.0
H11 H 0.05338 0.76317 0.95296 0.0
H12 H 0.0537 0.76273 0.05928 0.0
H13 H 0.03829 0.79165 0.12815 0.0
H14 H 0.11285 0.74814 0.20007 0.0
H15 H 0.12863 0.71939 0.13098 0.0
N16 N 0.12795 0.70406 0.04569 0.0
N17 N 0.12803 0.70497 0.96616 0.0
N18 N 0.09233 0.73606 0.00608 0.0
C19 C 0.13996 0.69362 0.00587 0.0
C20 C 0.10411 0.72608 0.96599 0.0
C21 C 0.10405 0.72518 0.04608 0.0
C22 C 0.16705 0.67212 0.00584 0.0
C23 C 0.17996 0.66116 0.04689 0.0
C24 C 0.20658 0.64297 0.04702 0.0
C25 C 0.22093 0.63527 0.00613 0.0
C26 C 0.20763 0.64533 0.96503 0.0
C27 C 0.181 0.66354 0.96487 0.0
C28 C 0.09267 0.7408 0.92294 0.0
C29 C 0.1088 0.73763 0.88249 0.0
C30 C 0.09972 0.75493 0.84322 0.0
C31 C 0.0742 0.77551 0.84343 0.0
C32 C 0.05733 0.77738 0.88322 0.0
C33 C 0.06648 0.76029 0.92254 0.0
C34 C 0.09262 0.73901 0.08935 0.0
C35 C 0.06668 0.75894 0.08983 0.0
C36 C 0.55532 0.73129 0.37838 0.0
C37 C 0.57157 0.73473 0.33812 0.0
C38 C 0.59603 0.75701 0.33735 0.0
C39 C 0.60475 0.77445 0.37652 0.0
H40 H 0.66507 0.84346 0.42542 0.0
H41 H 0.71116 0.87567 0.42398 0.0
H42 H 0.71404 0.87456 0.57036 0.0
H43 H 0.66765 0.84275 0.57208 0.0
H44 H 0.62632 0.78977 0.62497 0.0
H45 H 0.61104 0.76007 0.69405 0.0
H46 H 0.53628 0.71689 0.62264 0.0
H47 H 0.55113 0.74678 0.55395 0.0
H48 H 0.55155 0.74445 0.44832 0.0
H49 H 0.53651 0.71411 0.38017 0.0
H50 H 0.60874 0.76052 0.30662 0.0
H51 H 0.62419 0.79067 0.37502 0.0
N52 N 0.624 0.80654 0.46011 0.0
N53 N 0.62455 0.80681 0.53966 0.0
N54 N 0.58935 0.77402 0.50054 0.0
C55 C 0.63599 0.81796 0.49962 0.0
C56 C 0.6011 0.78496 0.54037 0.0
C57 C 0.6006 0.78466 0.46028 0.0
C58 C 0.66269 0.84014 0.49889 0.0
C59 C 0.67531 0.85028 0.4574 0.0
C60 C 0.70184 0.86865 0.45651 0.0
C61 C 0.71639 0.87739 0.49703 0.0
C62 C 0.70326 0.86844 0.53854 0.0
C63 C 0.67671 0.85 0.53948 0.0
C64 C 0.59014 0.77043 0.5837 0.0
C65 C 0.60637 0.77437 0.62413 0.0
C66 C 0.59774 0.75719 0.66367 0.0
C67 C 0.57259 0.73594 0.6637 0.0
C68 C 0.55563 0.73328 0.62386 0.0
C69 C 0.56431 0.75027 0.58433 0.0
C70 C 0.58931 0.76976 0.4174 0.0
C71 C 0.5641 0.74856 0.41757 0.0
C72 C 0.95035 0.23767 0.87204 0.0
C73 C 0.9328 0.24023 0.83277 0.0
C74 C 0.90737 0.26099 0.83362 0.0
C75 C 0.89905 0.2777 0.87347 0.0
H76 H 0.83808 0.34489 0.92777 0.0
H77 H 0.79157 0.37625 0.93066 0.0
H78 H 0.79502 0.37445 0.07702 0.0
H79 H 0.84124 0.3426 0.07439 0.0
H80 H 0.88118 0.28513 0.12182 0.0
H81 H 0.89727 0.25234 0.188 0.0
H82 H 0.97417 0.21783 0.11463 0.0
H83 H 0.9578 0.24982 0.04818 0.0
H84 H 0.95561 0.25071 0.94182 0.0
H85 H 0.96993 0.22164 0.87264 0.0
H86 H 0.8936 0.26379 0.80369 0.0
H87 H 0.87885 0.29265 0.87333 0.0
N88 N 0.8815 0.30885 0.95878 0.0
N89 N 0.88257 0.30693 0.03833 0.0
N90 N 0.91732 0.27588 0.99654 0.0
C91 C 0.87022 0.319 -0.00073 0.0
C92 C 0.90622 0.28548 0.03723 0.0
C93 C 0.90517 0.2874 0.95718 0.0
C94 C 0.84335 0.34082 0.00085 0.0
C95 C 0.82912 0.35138 0.96063 0.0
C96 C 0.8025 0.36958 0.96224 0.0
C97 C 0.7895 0.37762 0.00407 0.0
C98 C 0.80424 0.36815 0.04425 0.0
C99 C 0.83084 0.34999 0.04268 0.0
C100 C 0.91797 0.26974 0.07942 0.0
C101 C 0.90174 0.27094 0.11996 0.0
C102 C 0.91101 0.25221 0.15801 0.0
C103 C 0.93678 0.23206 0.15639 0.0
C104 C 0.95383 0.23243 0.11665 0.0
C105 C 0.9445 0.25095 0.0786 0.0
C106 C 0.91587 0.27375 0.91338 0.0
C107 C 0.94198 0.25418 0.91186 0.0
C108 C 0.44956 0.27629 0.62234 0.0
C109 C 0.43302 0.27371 0.66242 0.0
C110 C 0.40804 0.25223 0.6632 0.0
C111 C 0.3991 0.23477 0.62417 0.0
H112 H 0.33779 0.16661 0.57593 0.0
H113 H 0.29128 0.13522 0.57756 0.0
H114 H 0.28781 0.13715 0.4312 0.0
H115 H 0.33462 0.16803 0.4293 0.0
H116 H 0.37754 0.21802 0.37613 0.0
H117 H 0.39315 0.24692 0.30668 0.0
H118 H 0.46891 0.28866 0.37708 0.0
H119 H 0.45368 0.2596 0.44627 0.0
H120 H 0.45333 0.26248 0.55259 0.0
H121 H 0.46879 0.29284 0.6206 0.0
H122 H 0.39509 0.2494 0.69381 0.0
H123 H 0.37927 0.21921 0.62567 0.0
N124 N 0.37938 0.20275 0.54099 0.0
N125 N 0.37893 0.20189 0.46148 0.0
N126 N 0.41488 0.2338 0.50028 0.0
C127 C 0.36716 0.19145 0.5016 0.0
C128 C 0.40291 0.22294 0.46055 0.0
C129 C 0.40331 0.22383 0.54063 0.0
C130 C 0.33995 0.17014 0.50247 0.0
C131 C 0.3273 0.16017 0.544 0.0
C132 C 0.30052 0.14231 0.545 0.0
C133 C 0.28572 0.13394 0.50454 0.0
C134 C 0.29877 0.14295 0.46297 0.0
C135 C 0.32557 0.16084 0.46193 0.0
C136 C 0.41417 0.23676 0.41701 0.0
C137 C 0.39778 0.23291 0.3767 0.0
C138 C 0.40661 0.24961 0.33693 0.0
C139 C 0.43211 0.27027 0.33653 0.0
C140 C 0.44927 0.27272 0.37619 0.0
C141 C 0.44038 0.25622 0.41598 0.0
C142 C 0.41483 0.23867 0.58341 0.0
C143 C 0.44055 0.25902 0.58325 0.0
O144 O 0.92868 0.00607 0.50066 0.0
Zn145 Zn 0.96648 0.03392 0.5005 0.0
O146 O 0.00152 0.00422 0.50257 0.0
Zn147 Zn 0.02473 0.01409 0.55714 0.0
Zn148 Zn 0.98908 0.9561 0.50345 0.0
Zn149 Zn 0.02595 0.01255 0.44908 0.0
O150 O 0.06593 0.02975 0.54148 0.0
O151 O 0.06672 0.02875 0.46631 0.0
O152 O 0.96564 0.06567 0.55423 0.0
O153 O 0.0058 0.05167 0.59372 0.0
O154 O 0.02867 0.97204 0.59671 0.0
O155 O 0.00381 0.93178 0.55952 0.0
O156 O 0.00466 0.93039 0.44947 0.0
O157 O 0.96653 0.0637 0.44435 0.0
O158 O 0.03065 0.96961 0.41208 0.0
O159 O 0.00784 0.04887 0.40907 0.0
C160 C 0.92369 0.97385 0.50132 0.0
C161 C 0.07945 0.03434 0.50414 0.0
C162 C 0.0193 0.9413 0.59337 0.0
C163 C 0.98262 0.06985 0.58833 0.0
C164 C 0.02095 0.93905 0.41622 0.0
C165 C 0.98442 0.06692 0.41135 0.0
O166 O 0.94481 0.95225 0.50231 0.0
O167 O 0.5768 0.50496 0.00123 0.0
Zn168 Zn 0.53899 0.53265 0.00102 0.0
O169 O 0.50398 0.50295 0.00088 0.0
Zn170 Zn 0.47991 0.51258 0.9469 0.0
Zn171 Zn 0.5165 0.45489 0.00055 0.0
Zn172 Zn 0.48052 0.5115 0.05525 0.0
O173 O 0.43895 0.52843 0.9638 0.0
O174 O 0.43954 0.52754 0.03902 0.0
O175 O 0.53934 0.5636 0.94625 0.0
O176 O 0.49841 0.54986 0.90865 0.0
O177 O 0.47556 0.4703 0.90825 0.0
O178 O 0.50155 0.43054 0.94498 0.0
O179 O 0.50119 0.42919 0.05503 0.0
O180 O 0.53944 0.56323 0.05586 0.0
O181 O 0.47622 0.46865 0.09309 0.0
O182 O 0.49915 0.54821 0.09389 0.0
C183 C 0.58185 0.47277 0.00145 0.0
C184 C 0.42613 0.53308 0.00165 0.0
C185 C 0.48544 0.43975 0.91157 0.0
C186 C 0.52188 0.56774 0.91269 0.0
C187 C 0.4855 0.43797 0.0888 0.0
C188 C 0.5223 0.56659 0.08972 0.0
O189 O 0.56077 0.45108 0.00131 0.0
H190 H 0.26496 0.08199 0.4506 0.0
H191 H 0.23964 0.14829 0.56089 0.0
H192 H 0.21577 0.05608 0.45113 0.0
H193 H 0.19059 0.12253 0.56136 0.0
H194 H 0.11439 0.04763 0.57807 0.0
H195 H 0.1649 0.06939 0.57891 0.0
H196 H 0.16501 0.0718 0.43245 0.0
H197 H 0.11473 0.04937 0.43147 0.0
C198 C 0.24888 0.09109 0.47485 0.0
C199 C 0.25623 0.11716 0.50574 0.0
C200 C 0.2207 0.07628 0.47515 0.0
C201 C 0.19925 0.08724 0.5063 0.0
C202 C 0.20673 0.11308 0.53744 0.0
C203 C 0.23487 0.12785 0.53717 0.0
C204 C 0.12519 0.05267 0.54601 0.0
C205 C 0.11042 0.04684 0.5047 0.0
C206 C 0.15412 0.0653 0.54652 0.0
C207 C 0.16896 0.07244 0.50575 0.0
C208 C 0.15434 0.06618 0.46445 0.0
C209 C 0.12542 0.05352 0.46392 0.0
H210 H 0.24072 0.58442 0.94982 0.0
H211 H 0.26762 0.64758 0.0628 0.0
H212 H 0.28964 0.55785 0.94895 0.0
H213 H 0.31636 0.62113 0.06192 0.0
H214 H 0.39138 0.54462 0.07575 0.0
H215 H 0.34115 0.56698 0.07724 0.0
H216 H 0.3407 0.57323 0.93096 0.0
H217 H 0.3908 0.55021 0.92929 0.0
C218 C 0.25709 0.59269 0.97437 0.0
C219 C 0.25026 0.61806 0.00644 0.0
C220 C 0.28511 0.5775 0.97385 0.0
C221 C 0.30689 0.58736 0.00539 0.0
C222 C 0.29994 0.61252 0.03766 0.0
C223 C 0.27197 0.62768 0.03818 0.0
C224 C 0.38058 0.55062 0.04384 0.0
C225 C 0.39522 0.54573 0.00239 0.0
C226 C 0.3518 0.5636 0.04474 0.0
C227 C 0.33696 0.57204 0.00424 0.0
C228 C 0.35139 0.56664 0.96275 0.0
C229 C 0.3802 0.55363 0.96182 0.0
H230 H 0.73715 0.92996 0.55008 0.0
H231 H 0.76265 0.86189 0.44178 0.0
H232 H 0.78701 0.95443 0.55086 0.0
H233 H 0.81201 0.88691 0.44175 0.0
H234 H 0.90515 0.90728 0.4954 0.0
H235 H 0.85468 0.88579 0.49375 0.0
H236 H 0.82154 0.98947 0.50347 0.0
H237 H 0.87227 0.01122 0.50562 0.0
C238 C 0.75334 0.92037 0.52632 0.0
C239 C 0.74597 0.89396 0.49592 0.0
C240 C 0.78178 0.93458 0.5265 0.0
C241 C 0.80345 0.92246 0.49651 0.0
C242 C 0.79589 0.8965 0.46562 0.0
C243 C 0.7675 0.88244 0.4653 0.0
C244 C 0.88718 0.9256 0.49723 0.0
C245 C 0.89282 0.96102 0.50056 0.0
C246 C 0.85822 0.91325 0.49599 0.0
C247 C 0.83414 0.93595 0.49821 0.0
C248 C 0.83967 0.97135 0.50199 0.0
C249 C 0.86872 0.98378 0.50299 0.0
H250 H 0.76842 0.4309 0.95205 0.0
H251 H 0.7435 0.36111 0.05961 0.0
H252 H 0.71847 0.45498 0.95184 0.0
H253 H 0.69405 0.38581 0.06031 0.0
H254 H 0.60065 0.40627 0.00752 0.0
H255 H 0.6512 0.3851 0.00905 0.0
H256 H 0.68391 0.48908 -0.00087 0.0
H257 H 0.63312 0.51048 -0.00297 0.0
C258 C 0.75234 0.42085 0.97578 0.0
C259 C 0.75989 0.39405 0.00577 0.0
C260 C 0.72385 0.43485 0.97595 0.0
C261 C 0.7023 0.42216 0.00591 0.0
C262 C 0.71006 0.39584 0.03645 0.0
C263 C 0.73851 0.38197 0.0364 0.0
C264 C 0.61854 0.42472 0.00564 0.0
C265 C 0.61277 0.46011 0.00221 0.0
C266 C 0.64756 0.41255 0.00682 0.0
C267 C 0.67154 0.43543 0.00448 0.0
C268 C 0.66586 0.47082 0.00069 0.0
C269 C 0.63676 0.48305 -0.00029 0.0
H270 H 0.01974 0.78324 0.2062 0.0
H271 H 0.11203 0.80921 0.22301 0.0
H272 H 0.00698 0.82236 0.26769 0.0
H273 H 0.09936 0.84763 0.28502 0.0
H274 H 0.06016 0.94594 0.34647 0.0
H275 H 0.07321 0.90346 0.28964 0.0
H276 H 0.01322 0.83075 0.35113 0.0
H277 H -0.00013 0.87334 0.40801 0.0
C278 C 0.0373 0.79706 0.22332 0.0
C279 C 0.06687 0.79323 0.2097 0.0
C280 C 0.03003 0.81923 0.25871 0.0
C281 C 0.05217 0.83821 0.28094 0.0
C282 C 0.0818 0.83364 0.26815 0.0
C283 C 0.08908 0.81134 0.23299 0.0
C284 C 0.04972 0.92092 0.34798 0.0
C285 C 0.02894 0.91309 0.38182 0.0
C286 C 0.05738 0.89649 0.31558 0.0
C287 C 0.04432 0.86374 0.31607 0.0
C288 C 0.02349 0.85587 0.34976 0.0
C289 C 0.01596 0.88024 0.38242 0.0
H290 H 0.51788 0.72434 0.70025 0.0
H291 H 0.61026 0.6991 0.7176 0.0
H292 H 0.50524 0.68543 0.76233 0.0
H293 H 0.59768 0.66004 0.77927 0.0
H294 H 0.56764 0.61379 0.91298 0.0
H295 H 0.57927 0.657 0.85586 0.0
H296 H 0.50414 0.62411 0.77607 0.0
H297 H 0.49205 0.58143 0.83366 0.0
C298 C 0.53547 0.71053 0.7174 0.0
C299 C 0.56505 0.71476 0.704 0.0
C300 C 0.52824 0.68816 0.75285 0.0
C301 C 0.55043 0.66945 0.7756 0.0
C302 C 0.58008 0.67439 0.76292 0.0
C303 C 0.58731 0.69682 0.72758 0.0
C304 C 0.55355 0.61578 0.88331 0.0
C305 C 0.52894 0.59404 0.8779 0.0
C306 C 0.5603 0.64049 0.85046 0.0
C307 C 0.54266 0.64403 0.81137 0.0
C308 C 0.51794 0.62244 0.80609 0.0
C309 C 0.51114 0.59777 0.83899 0.0
H310 H 0.95741 0.16634 0.15193 0.0
H311 H 0.93402 0.2454 0.24771 0.0
H312 H 0.96951 0.12769 0.21421 0.0
H313 H 0.94599 0.20638 0.31031 0.0
H314 H 0.93773 0.11165 0.40533 0.0
H315 H 0.92703 0.1526 0.34462 0.0
H316 H 0.0062 0.12094 0.27482 0.0
H317 H 0.01674 0.0797 0.33495 0.0
C318 C 0.95526 0.17567 0.1863 0.0
C319 C 0.94493 0.20908 0.19481 0.0
C320 C 0.96214 0.15345 0.22202 0.0
C321 C 0.95879 0.16401 0.26718 0.0
C322 C 0.94849 0.1974 0.27583 0.0
C323 C 0.94165 0.21973 0.24001 0.0
C324 C 0.95288 0.11342 0.37706 0.0
C325 C 0.97802 0.09222 0.37494 0.0
C326 C 0.94684 0.13707 0.34244 0.0
C327 C 0.96574 0.13995 0.3049 0.0
C328 C 0.991 0.11901 0.30302 0.0
C329 C 0.99709 0.09545 0.33762 0.0
H330 H 0.48783 0.28561 0.69903 0.0
H331 H 0.39545 0.31095 0.71494 0.0
H332 H 0.50053 0.32505 0.7604 0.0
H333 H 0.40807 0.34971 0.77681 0.0
H334 H 0.4467 0.44751 0.84081 0.0
H335 H 0.43409 0.40571 0.78263 0.0
H336 H 0.4941 0.3326 0.84384 0.0
H337 H 0.50698 0.37446 0.90201 0.0
C338 C 0.47025 0.29941 0.71587 0.0
C339 C 0.44066 0.29523 0.70216 0.0
C340 C 0.47748 0.32177 0.75118 0.0
C341 C 0.45529 0.34058 0.7732 0.0
C342 C 0.42566 0.33584 0.7601 0.0
C343 C 0.41842 0.31335 0.72505 0.0
C344 C 0.45725 0.42256 0.84192 0.0
C345 C 0.47786 0.41437 0.87611 0.0
C346 C 0.44986 0.39853 0.80874 0.0
C347 C 0.46303 0.36585 0.80881 0.0
C348 C 0.48375 0.35768 0.84278 0.0
C349 C 0.49101 0.38163 0.87619 0.0
H350 H 0.51675 0.72106 0.30269 0.0
H351 H 0.60959 0.69953 0.28384 0.0
H352 H 0.50448 0.68207 0.24081 0.0
H353 H 0.59739 0.66036 0.22242 0.0
H354 H 0.56701 0.61404 0.089 0.0
H355 H 0.57821 0.65714 0.14614 0.0
H356 H 0.50495 0.62091 0.22697 0.0
H357 H 0.49326 0.57838 0.16938 0.0
C358 C 0.53452 0.70803 0.28526 0.0
C359 C 0.56412 0.71334 0.29814 0.0
C360 C 0.52751 0.68562 0.24993 0.0
C361 C 0.54994 0.66793 0.22682 0.0
C362 C 0.57959 0.67391 0.23905 0.0
C363 C 0.58659 0.69639 0.27425 0.0
C364 C 0.55325 0.61526 0.11893 0.0
C365 C 0.52926 0.59266 0.12461 0.0
C366 C 0.55975 0.63992 0.15177 0.0
C367 C 0.54248 0.6425 0.19114 0.0
C368 C 0.51843 0.61999 0.19673 0.0
C369 C 0.51186 0.5954 0.16383 0.0
H370 H 0.98709 0.22947 0.79456 0.0
H371 H 0.89474 0.20302 0.78026 0.0
H372 H -0.00066 0.19022 0.73316 0.0
H373 H 0.90695 0.16368 0.71916 0.0
H374 H 0.93658 0.11555 0.58652 0.0
H375 H 0.92497 0.15965 0.64204 0.0
H376 H 0.00046 0.12849 0.72251 0.0
H377 H 0.01248 0.08493 0.66665 0.0
C378 C 0.96941 0.21536 0.77818 0.0
C379 C 0.93997 0.21927 0.79235 0.0
C380 C 0.97642 0.19281 0.74311 0.0
C381 C 0.95415 0.1736 0.7215 0.0
C382 C 0.9246 0.17837 0.7347 0.0
C383 C 0.91759 0.20097 0.7697 0.0
C384 C 0.95075 0.11812 0.61601 0.0
C385 C 0.97544 0.09661 0.62213 0.0
C386 C 0.94402 0.14335 0.64792 0.0
C387 C 0.9618 0.14764 0.68668 0.0
C388 C 0.98657 0.12624 0.69267 0.0
C389 C 0.99332 0.10106 0.66077 0.0
H390 H 0.48667 0.28048 0.29867 0.0
H391 H 0.39462 0.30818 0.28378 0.0
H392 H 0.49945 0.31993 0.23707 0.0
H393 H 0.40731 0.34694 0.22167 0.0
H394 H 0.50593 0.37194 0.09663 0.0
H395 H 0.49261 0.32915 0.15378 0.0
H396 H 0.43421 0.40238 0.21676 0.0
H397 H 0.44724 0.44506 0.15967 0.0
C398 C 0.46916 0.29475 0.28194 0.0
C399 C 0.43966 0.2913 0.29613 0.0
C400 C 0.47645 0.31712 0.2465 0.0
C401 C 0.45439 0.33668 0.22479 0.0
C402 C 0.42481 0.3325 0.23815 0.0
C403 C 0.41751 0.31 0.27335 0.0
C404 C 0.49021 0.37892 0.12262 0.0
C405 C 0.47765 0.41196 0.12354 0.0
C406 C 0.4827 0.35443 0.15543 0.0
C407 C 0.46229 0.36238 0.1896 0.0
C408 C 0.44969 0.39535 0.19046 0.0
C409 C 0.45734 0.41989 0.1579 0.0
H410 H 0.11108 0.81428 0.79118 0.0
H411 H 0.01932 0.78552 0.80598 0.0
H412 H 0.09778 0.85298 0.72914 0.0
H413 H 0.00592 0.82488 0.74443 0.0
H414 H -0.001 0.87533 0.60275 0.0
H415 H 0.0125 0.83346 0.66108 0.0
H416 H 0.07037 0.90807 0.72328 0.0
H417 H 0.05715 0.94987 0.66498 0.0
C418 C 0.08812 0.81591 0.78078 0.0
C419 C 0.06624 0.79687 0.80344 0.0
C420 C 0.08047 0.83836 0.74563 0.0
C421 C 0.05079 0.84215 0.73219 0.0
C422 C 0.02899 0.82237 0.75392 0.0
C423 C 0.03663 0.80005 0.78933 0.0
C424 C 0.01461 0.88283 0.62886 0.0
C425 C 0.02701 0.91598 0.62915 0.0
C426 C 0.02223 0.85887 0.66234 0.0
C427 C 0.04257 0.86745 0.69659 0.0
C428 C 0.05493 0.90057 0.69693 0.0
C429 C 0.04718 0.92459 0.66369 0.0
loop_
_geom_bond_atom_site_label_1
_geom_bond_atom_site_label_2
_geom_bond_distance
_geom_bond_site_symmetry_2
_ccdc_geom_bond_type
C0 C1 1.384 . S
C0 H13 0.947 . S
C0 C35 1.382 . S
C1 C0 1.384 . S
C1 C2 1.378 . S
C2 C1 1.378 . S
C2 C3 1.378 . S
C2 H14 0.952 . S
C3 C2 1.378 . S
C3 H15 0.950 . S
C3 C34 1.383 . S
H4 C23 0.947 . S
H5 C24 0.946 . S
H6 C26 0.953 . S
H7 C27 0.945 . S
H8 C29 0.952 . S
H9 C30 0.949 . S
H10 C32 0.950 . S
H11 C33 0.948 . S
H12 C35 0.951 . S
H13 C0 0.947 . S
H14 C2 0.952 . S
H15 C3 0.950 . S
N16 C19 1.382 . S
N16 C21 1.363 . S
N17 C19 1.371 1_556 S
N17 C20 1.372 . S
N18 C20 1.361 1_554 S
N18 C21 1.377 . S
C19 N16 1.382 . S
C19 N17 1.371 1_554 S
C19 C22 1.480 . S
C20 N17 1.372 . S
C20 N18 1.361 1_556 S
C20 C28 1.457 . S
C21 N16 1.363 . S
C21 N18 1.377 . S
C21 C34 1.479 . S
C22 C19 1.480 . S
C22 C23 1.383 . S
C22 C27 1.385 1_554 S
C23 H4 0.947 . S
C23 C22 1.383 . S
C23 C24 1.388 . S
C24 H5 0.946 . S
C24 C23 1.388 . S
C24 C25 1.384 . S
C25 C24 1.384 . S
C25 C26 1.377 1_554 S
C26 H6 0.953 . S
C26 C25 1.377 1_556 S
C26 C27 1.369 . S
C27 H7 0.945 . S
C27 C22 1.385 1_556 S
C27 C26 1.369 . S
C28 C20 1.457 . S
C28 C29 1.372 . S
C28 C33 1.364 . S
C29 H8 0.952 . S
C29 C28 1.372 . S
C29 C30 1.389 . S
C30 H9 0.949 . S
C30 C29 1.389 . S
C30 C31 1.387 . S
C31 C30 1.387 . S
C31 C32 1.372 . S
C32 H10 0.950 . S
C32 C31 1.372 . S
C32 C33 1.379 . S
C33 H11 0.948 . S
C33 C28 1.364 . S
C33 C32 1.379 . S
C34 C3 1.383 . S
C34 C21 1.479 . S
C34 C35 1.398 . S
C35 C0 1.382 . S
C35 H12 0.951 . S
C35 C34 1.398 . S
C36 C37 1.384 . S
C36 H49 0.947 . S
C36 C71 1.382 . S
C37 C36 1.384 . S
C37 C38 1.378 . S
C38 C37 1.378 . S
C38 C39 1.378 . S
C38 H50 0.952 . S
C39 C38 1.378 . S
C39 H51 0.950 . S
C39 C70 1.383 . S
H40 C59 0.947 . S
H41 C60 0.946 . S
H42 C62 0.953 . S
H43 C63 0.945 . S
H44 C65 0.952 . S
H45 C66 0.949 . S
H46 C68 0.950 . S
H47 C69 0.948 . S
H48 C71 0.951 . S
H49 C36 0.947 . S
H50 C38 0.952 . S
H51 C39 0.950 . S
N52 C55 1.382 . S
N52 C57 1.363 . S
N53 C55 1.371 . S
N53 C56 1.372 . S
N54 C56 1.361 . S
N54 C57 1.377 . S
C55 N52 1.382 . S
C55 N53 1.371 . S
C55 C58 1.480 . S
C56 N53 1.372 . S
C56 N54 1.361 . S
C56 C64 1.457 . S
C57 N52 1.363 . S
C57 N54 1.377 . S
C57 C70 1.479 . S
C58 C55 1.480 . S
C58 C59 1.383 . S
C58 C63 1.385 . S
C59 H40 0.947 . S
C59 C58 1.383 . S
C59 C60 1.388 . S
C60 H41 0.946 . S
C60 C59 1.388 . S
C60 C61 1.384 . S
C61 C60 1.384 . S
C61 C62 1.377 . S
C62 H42 0.953 . S
C62 C61 1.377 . S
C62 C63 1.369 . S
C63 H43 0.945 . S
C63 C58 1.385 . S
C63 C62 1.369 . S
C64 C56 1.457 . S
C64 C65 1.372 . S
C64 C69 1.364 . S
C65 H44 0.952 . S
C65 C64 1.372 . S
C65 C66 1.389 . S
C66 H45 0.949 . S
C66 C65 1.389 . S
C66 C67 1.387 . S
C67 C66 1.387 . S
C67 C68 1.372 . S
C68 H46 0.950 . S
C68 C67 1.372 . S
C68 C69 1.379 . S
C69 H47 0.948 . S
C69 C64 1.364 . S
C69 C68 1.379 . S
C70 C39 1.383 . S
C70 C57 1.479 . S
C70 C71 1.398 . S
C71 C36 1.382 . S
C71 H48 0.951 . S
C71 C70 1.398 . S
C72 C73 1.384 . S
C72 H85 0.947 . S
C72 C107 1.382 . S
C73 C72 1.384 . S
C73 C74 1.378 . S
C74 C73 1.378 . S
C74 C75 1.378 . S
C74 H86 0.952 . S
C75 C74 1.378 . S
C75 H87 0.950 . S
C75 C106 1.383 . S
H76 C95 0.947 . S
H77 C96 0.946 . S
H78 C98 0.953 . S
H79 C99 0.945 . S
H80 C101 0.952 . S
H81 C102 0.949 . S
H82 C104 0.950 . S
H83 C105 0.948 . S
H84 C107 0.951 . S
H85 C72 0.947 . S
H86 C74 0.952 . S
H87 C75 0.950 . S
N88 C91 1.382 1_556 S
N88 C93 1.363 . S
N89 C91 1.371 . S
N89 C92 1.372 . S
N90 C92 1.361 . S
N90 C93 1.377 1_554 S
C91 N88 1.382 1_554 S
C91 N89 1.371 . S
C91 C94 1.480 . S
C92 N89 1.372 . S
C92 N90 1.361 . S
C92 C100 1.457 . S
C93 N88 1.363 . S
C93 N90 1.377 1_556 S
C93 C106 1.479 . S
C94 C91 1.480 . S
C94 C95 1.383 1_554 S
C94 C99 1.385 . S
C95 H76 0.947 . S
C95 C94 1.383 1_556 S
C95 C96 1.388 . S
C96 H77 0.946 . S
C96 C95 1.388 . S
C96 C97 1.384 1_556 S
C97 C96 1.384 1_554 S
C97 C98 1.377 . S
C98 H78 0.953 . S
C98 C97 1.377 . S
C98 C99 1.369 . S
C99 H79 0.945 . S
C99 C94 1.385 . S
C99 C98 1.369 . S
C100 C92 1.457 . S
C100 C101 1.372 . S
C100 C105 1.364 . S
C101 H80 0.952 . S
C101 C100 1.372 . S
C101 C102 1.389 . S
C102 H81 0.949 . S
C102 C101 1.389 . S
C102 C103 1.387 . S
C103 C102 1.387 . S
C103 C104 1.372 . S
C104 H82 0.950 . S
C104 C103 1.372 . S
C104 C105 1.379 . S
C105 H83 0.948 . S
C105 C100 1.364 . S
C105 C104 1.379 . S
C106 C75 1.383 . S
C106 C93 1.479 . S
C106 C107 1.398 . S
C107 C72 1.382 . S
C107 H84 0.951 . S
C107 C106 1.398 . S
C108 C109 1.384 . S
C108 H121 0.947 . S
C108 C143 1.382 . S
C109 C108 1.384 . S
C109 C110 1.378 . S
C110 C109 1.378 . S
C110 C111 1.378 . S
C110 H122 0.952 . S
C111 C110 1.378 . S
C111 H123 0.950 . S
C111 C142 1.383 . S
H112 C131 0.947 . S
H113 C132 0.946 . S
H114 C134 0.953 . S
H115 C135 0.945 . S
H116 C137 0.952 . S
H117 C138 0.949 . S
H118 C140 0.950 . S
H119 C141 0.948 . S
H120 C143 0.951 . S
H121 C108 0.947 . S
H122 C110 0.952 . S
H123 C111 0.950 . S
N124 C127 1.382 . S
N124 C129 1.363 . S
N125 C127 1.371 . S
N125 C128 1.372 . S
N126 C128 1.361 . S
N126 C129 1.377 . S
C127 N124 1.382 . S
C127 N125 1.371 . S
C127 C130 1.480 . S
C128 N125 1.372 . S
C128 N126 1.361 . S
C128 C136 1.457 . S
C129 N124 1.363 . S
C129 N126 1.377 . S
C129 C142 1.479 . S
C130 C127 1.480 . S
C130 C131 1.383 . S
C130 C135 1.385 . S
C131 H112 0.947 . S
C131 C130 1.383 . S
C131 C132 1.388 . S
C132 H113 0.946 . S
C132 C131 1.388 . S
C132 C133 1.384 . S
C133 C132 1.384 . S
C133 C134 1.377 . S
C134 H114 0.953 . S
C134 C133 1.377 . S
C134 C135 1.369 . S
C135 H115 0.945 . S
C135 C130 1.385 . S
C135 C134 1.369 . S
C136 C128 1.457 . S
C136 C137 1.372 . S
C136 C141 1.364 . S
C137 H116 0.952 . S
C137 C136 1.372 . S
C137 C138 1.389 . S
C138 H117 0.949 . S
C138 C137 1.389 . S
C138 C139 1.387 . S
C139 C138 1.387 . S
C139 C140 1.372 . S
C140 H118 0.950 . S
C140 C139 1.372 . S
C140 C141 1.379 . S
C141 H119 0.948 . S
C141 C136 1.364 . S
C141 C140 1.379 . S
C142 C111 1.383 . S
C142 C129 1.479 . S
C142 C143 1.398 . S
C143 C108 1.382 . S
C143 H120 0.951 . S
C143 C142 1.398 . S
O144 Zn145 1.953 1_565 S
O144 C160 1.225 . S
Zn145 O144 1.953 1_545 S
Zn145 O146 1.949 1_655 S
Zn145 O152 1.919 . S
Zn145 O157 1.924 . S
O146 Zn145 1.949 1_455 S
O146 Zn147 1.923 . S
O146 Zn148 1.950 1_445 S
O146 Zn149 1.945 . S
Zn147 O146 1.923 . S
Zn147 O150 1.933 . S
Zn147 O153 1.941 . S
Zn147 O154 1.965 1_545 S
Zn148 O146 1.950 1_665 S
Zn148 O155 1.938 1_655 S
Zn148 O156 1.906 1_655 S
Zn148 O166 1.953 . S
Zn149 O146 1.945 . S
Zn149 O151 1.932 . S
Zn149 O158 1.977 1_545 S
Zn149 O159 1.910 1_455 S
O150 Zn147 1.933 . S
O150 C161 1.226 . S
O151 Zn149 1.932 . S
O151 C161 1.307 . S
O152 Zn145 1.919 . S
O152 C163 1.253 . S
O153 Zn147 1.941 . S
O153 C163 1.283 1_455 S
O154 Zn147 1.965 1_565 S
O154 C162 1.303 . S
O155 Zn148 1.938 1_455 S
O155 C162 1.247 . S
O156 Zn148 1.906 1_455 S
O156 C164 1.304 . S
O157 Zn145 1.924 . S
O157 C165 1.311 . S
O158 Zn149 1.977 1_565 S
O158 C164 1.272 . S
O159 Zn149 1.910 1_655 S
O159 C165 1.231 . S
C160 O144 1.225 . S
C160 O166 1.298 . S
C161 O150 1.226 . S
C161 O151 1.307 . S
C162 O154 1.303 . S
C162 O155 1.247 . S
C163 O152 1.253 . S
C163 O153 1.283 1_655 S
C164 O156 1.304 . S
C164 O158 1.272 . S
C165 O157 1.311 . S
C165 O159 1.231 . S
O166 Zn148 1.953 . S
O166 C160 1.298 . S
O167 Zn168 1.953 . S
O167 C183 1.225 1_556 S
Zn168 O167 1.953 . S
Zn168 O169 1.949 1_556 S
Zn168 O175 1.919 . S
Zn168 O180 1.924 1_556 S
O169 Zn168 1.949 1_554 S
O169 Zn170 1.923 1_554 S
O169 Zn171 1.950 . S
O169 Zn172 1.945 . S
Zn170 O169 1.923 1_556 S
Zn170 O173 1.933 . S
Zn170 O176 1.941 . S
Zn170 O177 1.965 . S
Zn171 O169 1.950 . S
Zn171 O178 1.938 1_554 S
Zn171 O179 1.906 . S
Zn171 O189 1.953 . S
Zn172 O169 1.945 . S
Zn172 O174 1.932 . S
Zn172 O181 1.977 . S
Zn172 O182 1.910 . S
O173 Zn170 1.933 . S
O173 C184 1.226 1_556 S
O174 Zn172 1.932 . S
O174 C184 1.307 . S
O175 Zn168 1.919 . S
O175 C186 1.253 . S
O176 Zn170 1.941 . S
O176 C186 1.283 . S
O177 Zn170 1.965 . S
O177 C185 1.303 . S
O178 Zn171 1.938 1_556 S
O178 C185 1.247 . S
O179 Zn171 1.906 . S
O179 C187 1.304 . S
O180 Zn168 1.924 1_554 S
O180 C188 1.311 . S
O181 Zn172 1.977 . S
O181 C187 1.272 . S
O182 Zn172 1.910 . S
O182 C188 1.231 . S
C183 O167 1.225 1_554 S
C183 O189 1.298 . S
C184 O173 1.226 1_554 S
C184 O174 1.307 . S
C185 O177 1.303 . S
C185 O178 1.247 . S
C186 O175 1.253 . S
C186 O176 1.283 . S
C187 O179 1.304 . S
C187 O181 1.272 . S
C188 O180 1.311 . S
C188 O182 1.231 . S
O189 Zn171 1.953 . S
O189 C183 1.298 . S
H190 C198 0.950 . S
H191 C203 0.950 . S
H192 C200 0.950 . S
H193 C202 0.950 . S
H194 C204 0.950 . S
H195 C206 0.950 . S
H196 C208 0.950 . S
H197 C209 0.950 . S
C198 H190 0.950 . S
C198 C199 1.386 . S
C198 C200 1.391 . S
C199 C198 1.386 . S
C199 C203 1.393 . S
C200 H192 0.950 . S
C200 C198 1.391 . S
C200 C201 1.400 . S
C201 C200 1.400 . S
C201 C202 1.398 . S
C201 C207 1.491 . S
C202 H193 0.950 . S
C202 C201 1.398 . S
C202 C203 1.391 . S
C203 H191 0.950 . S
C203 C199 1.393 . S
C203 C202 1.391 . S
C204 H194 0.950 . S
C204 C205 1.386 . S
C204 C206 1.391 . S
C205 C204 1.386 . S
C205 C209 1.393 . S
C206 H195 0.950 . S
C206 C204 1.391 . S
C206 C207 1.400 . S
C207 C201 1.491 . S
C207 C206 1.400 . S
C207 C208 1.398 . S
C208 H196 0.950 . S
C208 C207 1.398 . S
C208 C209 1.391 . S
C209 H197 0.950 . S
C209 C205 1.393 . S
C209 C208 1.391 . S
H210 C218 0.950 . S
H211 C223 0.950 . S
H212 C220 0.950 . S
H213 C222 0.950 . S
H214 C224 0.950 . S
H215 C226 0.950 . S
H216 C228 0.950 . S
H217 C229 0.950 . S
C218 H210 0.950 . S
C218 C219 1.386 1_556 S
C218 C220 1.391 . S
C219 C218 1.386 1_554 S
C219 C223 1.393 . S
C220 H212 0.950 . S
C220 C218 1.391 . S
C220 C221 1.400 1_556 S
C221 C220 1.400 1_554 S
C221 C222 1.398 . S
C221 C227 1.491 . S
C222 H213 0.950 . S
C222 C221 1.398 . S
C222 C223 1.391 . S
C223 H211 0.950 . S
C223 C219 1.393 . S
C223 C222 1.391 . S
C224 H214 0.950 . S
C224 C225 1.386 . S
C224 C226 1.391 . S
C225 C224 1.386 . S
C225 C229 1.393 1_554 S
C226 H215 0.950 . S
C226 C224 1.391 . S
C226 C227 1.400 . S
C227 C221 1.491 . S
C227 C226 1.400 . S
C227 C228 1.398 1_554 S
C228 H216 0.950 . S
C228 C227 1.398 1_556 S
C228 C229 1.391 . S
C229 H217 0.950 . S
C229 C225 1.393 1_556 S
C229 C228 1.391 . S
H230 C238 0.950 . S
H231 C243 0.950 . S
H232 C240 0.950 . S
H233 C242 0.950 . S
H234 C244 0.950 . S
H235 C246 0.950 . S
H236 C248 0.950 . S
H237 C249 0.950 . S
C238 H230 0.950 . S
C238 C239 1.386 . S
C238 C240 1.391 . S
C239 C238 1.386 . S
C239 C243 1.393 . S
C240 H232 0.950 . S
C240 C238 1.391 . S
C240 C241 1.400 . S
C241 C240 1.400 . S
C241 C242 1.398 . S
C241 C247 1.491 . S
C242 H233 0.950 . S
C242 C241 1.398 . S
C242 C243 1.391 . S
C243 H231 0.950 . S
C243 C239 1.393 . S
C243 C242 1.391 . S
C244 H234 0.950 . S
C244 C245 1.386 . S
C244 C246 1.391 . S
C245 C244 1.386 . S
C245 C249 1.393 . S
C246 H235 0.950 . S
C246 C244 1.391 . S
C246 C247 1.400 . S
C247 C241 1.491 . S
C247 C246 1.400 . S
C247 C248 1.398 . S
C248 H236 0.950 . S
C248 C247 1.398 . S
C248 C249 1.391 . S
C249 H237 0.950 . S
C249 C245 1.393 . S
C249 C248 1.391 . S
H250 C258 0.950 . S
H251 C263 0.950 . S
H252 C260 0.950 . S
H253 C262 0.950 . S
H254 C264 0.950 . S
H255 C266 0.950 . S
H256 C268 0.950 . S
H257 C269 0.950 . S
C258 H250 0.950 . S
C258 C259 1.386 1_556 S
C258 C260 1.391 . S
C259 C258 1.386 1_554 S
C259 C263 1.393 . S
C260 H252 0.950 . S
C260 C258 1.391 . S
C260 C261 1.400 1_556 S
C261 C260 1.400 1_554 S
C261 C262 1.398 . S
C261 C267 1.491 . S
C262 H253 0.950 . S
C262 C261 1.398 . S
C262 C263 1.391 . S
C263 H251 0.950 . S
C263 C259 1.393 . S
C263 C262 1.391 . S
C264 H254 0.950 . S
C264 C265 1.386 . S
C264 C266 1.391 . S
C265 C264 1.386 . S
C265 C269 1.393 1_554 S
C266 H255 0.950 . S
C266 C264 1.391 . S
C266 C267 1.400 . S
C267 C261 1.491 . S
C267 C266 1.400 . S
C267 C268 1.398 1_554 S
C268 H256 0.950 . S
C268 C267 1.398 1_556 S
C268 C269 1.391 . S
C269 H257 0.950 . S
C269 C265 1.393 1_556 S
C269 C268 1.391 . S
H270 C278 0.950 . S
H271 C283 0.950 . S
H272 C280 0.950 . S
H273 C282 0.950 . S
H274 C284 0.950 . S
H275 C286 0.950 . S
H276 C288 0.950 . S
H277 C289 0.950 . S
C278 H270 0.950 . S
C278 C279 1.386 . S
C278 C280 1.391 . S
C279 C278 1.386 . S
C279 C283 1.393 . S
C280 H272 0.950 . S
C280 C278 1.391 . S
C280 C281 1.400 . S
C281 C280 1.400 . S
C281 C282 1.398 . S
C281 C287 1.491 . S
C282 H273 0.950 . S
C282 C281 1.398 . S
C282 C283 1.391 . S
C283 H271 0.950 . S
C283 C279 1.393 . S
C283 C282 1.391 . S
C284 H274 0.950 . S
C284 C285 1.386 . S
C284 C286 1.391 . S
C285 C284 1.386 . S
C285 C289 1.393 . S
C286 H275 0.950 . S
C286 C284 1.391 . S
C286 C287 1.400 . S
C287 C281 1.491 . S
C287 C286 1.400 . S
C287 C288 1.398 . S
C288 H276 0.950 . S
C288 C287 1.398 . S
C288 C289 1.391 . S
C289 H277 0.950 . S
C289 C285 1.393 . S
C289 C288 1.391 . S
H290 C298 0.950 . S
H291 C303 0.950 . S
H292 C300 0.950 . S
H293 C302 0.950 . S
H294 C304 0.950 . S
H295 C306 0.950 . S
H296 C308 0.950 . S
H297 C309 0.950 . S
C298 H290 0.950 . S
C298 C299 1.386 . S
C298 C300 1.391 . S
C299 C298 1.386 . S
C299 C303 1.393 . S
C300 H292 0.950 . S
C300 C298 1.391 . S
C300 C301 1.400 . S
C301 C300 1.400 . S
C301 C302 1.398 . S
C301 C307 1.491 . S
C302 H293 0.950 . S
C302 C301 1.398 . S
C302 C303 1.391 . S
C303 H291 0.950 . S
C303 C299 1.393 . S
C303 C302 1.391 . S
C304 H294 0.950 . S
C304 C305 1.386 . S
C304 C306 1.391 . S
C305 C304 1.386 . S
C305 C309 1.393 . S
C306 H295 0.950 . S
C306 C304 1.391 . S
C306 C307 1.400 . S
C307 C301 1.491 . S
C307 C306 1.400 . S
C307 C308 1.398 . S
C308 H296 0.950 . S
C308 C307 1.398 . S
C308 C309 1.391 . S
C309 H297 0.950 . S
C309 C305 1.393 . S
C309 C308 1.391 . S
H310 C318 0.950 . S
H311 C323 0.950 . S
H312 C320 0.950 . S
H313 C322 0.950 . S
H314 C324 0.950 . S
H315 C326 0.950 . S
H316 C328 0.950 . S
H317 C329 0.950 . S
C318 H310 0.950 . S
C318 C319 1.386 . S
C318 C320 1.391 . S
C319 C318 1.386 . S
C319 C323 1.393 . S
C320 H312 0.950 . S
C320 C318 1.391 . S
C320 C321 1.400 . S
C321 C320 1.400 . S
C321 C322 1.398 . S
C321 C327 1.491 . S
C322 H313 0.950 . S
C322 C321 1.398 . S
C322 C323 1.391 . S
C323 H311 0.950 . S
C323 C319 1.393 . S
C323 C322 1.391 . S
C324 H314 0.950 . S
C324 C325 1.386 . S
C324 C326 1.391 . S
C325 C324 1.386 . S
C325 C329 1.393 . S
C326 H315 0.950 . S
C326 C324 1.391 . S
C326 C327 1.400 . S
C327 C321 1.491 . S
C327 C326 1.400 . S
C327 C328 1.398 . S
C328 H316 0.950 . S
C328 C327 1.398 . S
C328 C329 1.391 . S
C329 H317 0.950 . S
C329 C325 1.393 . S
C329 C328 1.391 . S
H330 C338 0.950 . S
H331 C343 0.950 . S
H332 C340 0.950 . S
H333 C342 0.950 . S
H334 C344 0.950 . S
H335 C346 0.950 . S
H336 C348 0.950 . S
H337 C349 0.950 . S
C338 H330 0.950 . S
C338 C339 1.386 . S
C338 C340 1.391 . S
C339 C338 1.386 . S
C339 C343 1.393 . S
C340 H332 0.950 . S
C340 C338 1.391 . S
C340 C341 1.400 . S
C341 C340 1.400 . S
C341 C342 1.398 . S
C341 C347 1.491 . S
C342 H333 0.950 . S
C342 C341 1.398 . S
C342 C343 1.391 . S
C343 H331 0.950 . S
C343 C339 1.393 . S
C343 C342 1.391 . S
C344 H334 0.950 . S
C344 C345 1.386 . S
C344 C346 1.391 . S
C345 C344 1.386 . S
C345 C349 1.393 . S
C346 H335 0.950 . S
C346 C344 1.391 . S
C346 C347 1.400 . S
C347 C341 1.491 . S
C347 C346 1.400 . S
C347 C348 1.398 . S
C348 H336 0.950 . S
C348 C347 1.398 . S
C348 C349 1.391 . S
C349 H337 0.950 . S
C349 C345 1.393 . S
C349 C348 1.391 . S
H350 C358 0.950 . S
H351 C363 0.950 . S
H352 C360 0.950 . S
H353 C362 0.950 . S
H354 C364 0.950 . S
H355 C366 0.950 . S
H356 C368 0.950 . S
H357 C369 0.950 . S
C358 H350 0.950 . S
C358 C359 1.386 . S
C358 C360 1.391 . S
C359 C358 1.386 . S
C359 C363 1.393 . S
C360 H352 0.950 . S
C360 C358 1.391 . S
C360 C361 1.400 . S
C361 C360 1.400 . S
C361 C362 1.398 . S
C361 C367 1.491 . S
C362 H353 0.950 . S
C362 C361 1.398 . S
C362 C363 1.391 . S
C363 H351 0.950 . S
C363 C359 1.393 . S
C363 C362 1.391 . S
C364 H354 0.950 . S
C364 C365 1.386 . S
C364 C366 1.391 . S
C365 C364 1.386 . S
C365 C369 1.393 . S
C366 H355 0.950 . S
C366 C364 1.391 . S
C366 C367 1.400 . S
C367 C361 1.491 . S
C367 C366 1.400 . S
C367 C368 1.398 . S
C368 H356 0.950 . S
C368 C367 1.398 . S
C368 C369 1.391 . S
C369 H357 0.950 . S
C369 C365 1.393 . S
C369 C368 1.391 . S
H370 C378 0.950 . S
H371 C383 0.950 . S
H372 C380 0.950 . S
H373 C382 0.950 . S
H374 C384 0.950 . S
H375 C386 0.950 . S
H376 C388 0.943 1_455 S
H377 C389 0.950 1_455 S
C378 H370 0.950 . S
C378 C379 1.386 . S
C378 C380 1.391 . S
C379 C378 1.386 . S
C379 C383 1.393 . S
C380 H372 0.950 . S
C380 C378 1.391 . S
C380 C381 1.400 . S
C381 C380 1.400 . S
C381 C382 1.398 . S
C381 C387 1.491 . S
C382 H373 0.950 . S
C382 C381 1.398 . S
C382 C383 1.391 . S
C383 H371 0.950 . S
C383 C379 1.393 . S
C383 C382 1.391 . S
C384 H374 0.950 . S
C384 C385 1.386 . S
C384 C386 1.391 . S
C385 C384 1.386 . S
C385 C389 1.393 . S
C386 H375 0.950 . S
C386 C384 1.391 . S
C386 C387 1.400 . S
C387 C381 1.491 . S
C387 C386 1.400 . S
C387 C388 1.398 . S
C388 H376 0.943 1_655 S
C388 C387 1.398 . S
C388 C389 1.391 . S
C389 H377 0.950 1_655 S
C389 C385 1.393 . S
C389 C388 1.391 . S
H390 C398 0.950 . S
H391 C403 0.950 . S
H392 C400 0.950 . S
H393 C402 0.950 . S
H394 C404 0.950 . S
H395 C406 0.950 . S
H396 C408 0.950 . S
H397 C409 0.950 . S
C398 H390 0.950 . S
C398 C399 1.386 . S
C398 C400 1.391 . S
C399 C398 1.386 . S
C399 C403 1.393 . S
C400 H392 0.950 . S
C400 C398 1.391 . S
C400 C401 1.400 . S
C401 C400 1.400 . S
C401 C402 1.398 . S
C401 C407 1.491 . S
C402 H393 0.950 . S
C402 C401 1.398 . S
C402 C403 1.391 . S
C403 H391 0.950 . S
C403 C399 1.393 . S
C403 C402 1.391 . S
C404 H394 0.950 . S
C404 C405 1.386 . S
C404 C406 1.391 . S
C405 C404 1.386 . S
C405 C409 1.393 . S
C406 H395 0.950 . S
C406 C404 1.391 . S
C406 C407 1.400 . S
C407 C401 1.491 . S
C407 C406 1.400 . S
C407 C408 1.398 . S
C408 H396 0.950 . S
C408 C407 1.398 . S
C408 C409 1.391 . S
C409 H397 0.950 . S
C409 C405 1.393 . S
C409 C408 1.391 . S
H410 C418 0.950 . S
H411 C423 0.950 . S
H412 C420 0.950 . S
H413 C422 0.950 . S
H414 C424 0.950 1_655 S
H415 C426 0.950 . S
H416 C428 0.950 . S
H417 C429 0.950 . S
C418 H410 0.950 . S
C418 C419 1.386 . S
C418 C420 1.391 . S
C419 C418 1.386 . S
C419 C423 1.393 . S
C420 H412 0.950 . S
C420 C418 1.391 . S
C420 C421 1.400 . S
C421 C420 1.400 . S
C421 C422 1.398 . S
C421 C427 1.491 . S
C422 H413 0.950 . S
C422 C421 1.398 . S
C422 C423 1.391 . S
C423 H411 0.950 . S
C423 C419 1.393 . S
C423 C422 1.391 . S
C424 H414 0.950 1_455 S
C424 C425 1.386 . S
C424 C426 1.391 . S
C425 C424 1.386 . S
C425 C429 1.393 . S
C426 H415 0.950 . S
C426 C424 1.391 . S
C426 C427 1.400 . S
C427 C421 1.491 . S
C427 C426 1.400 . S
C427 C428 1.398 . S
C428 H416 0.950 . S
C428 C427 1.398 . S
C428 C429 1.391 . S
C429 H417 0.950 . S
C429 C425 1.393 . S
C429 C428 1.391 . S
C205 C161 1.652 . S
C199 C133 1.648 . S
C219 C25 1.581 . S
C225 C184 1.642 . S
C239 C61 1.595 . S
C245 C160 1.659 . S
C259 C97 1.655 . S
C265 C183 1.662 . S
C285 C164 1.613 . S
C279 C1 1.625 . S
C305 C186 1.642 . S
C299 C67 1.597 . S
C319 C103 1.685 . S
C325 C165 1.635 . S
C339 C109 1.627 . S
C345 C185 1.596 . S
C365 C188 1.637 . S
C359 C37 1.654 . S
C385 C163 1.633 . S
C379 C73 1.649 . S
C405 C187 1.627 . S
C399 C139 1.678 . S
C419 C31 1.595 . S
C425 C162 1.612 . S
