# Generated by pormake.
# Topology ptr, (4,4)-cn, num edge types: 1
# Building blocks:
#     Node 0, Type 0, BuildingBlock: KUFVIS_clean_sbu_0, # of connection points: 4
#     Node 1, Type 0, BuildingBlock: KUFVIS_clean_sbu_0, # of connection points: 4
#     Node 2, Type 0, BuildingBlock: KUFVIS_clean_sbu_0, # of connection points: 4
#     Node 3, Type 0, BuildingBlock: KUFVIS_clean_sbu_0, # of connection points: 4
#     Node 4, Type 0, BuildingBlock: KUFVIS_clean_sbu_0, # of connection points: 4
#     Node 5, Type 0, BuildingBlock: KUFVIS_clean_sbu_0, # of connection points: 4
#     Node 6, Type 0, BuildingBlock: KUFVIS_clean_sbu_0, # of connection points: 4
#     Node 7, Type 0, BuildingBlock: KUFVIS_clean_sbu_0, # of connection points: 4
#     Node 8, Type 0, BuildingBlock: KUFVIS_clean_sbu_0, # of connection points: 4
#     Node 9, Type 0, BuildingBlock: KUFVIS_clean_sbu_0, # of connection points: 4
#     Node 10, Type 0, BuildingBlock: KUFVIS_clean_sbu_0, # of connection points: 4
#     Node 11, Type 0, BuildingBlock: KUFVIS_clean_sbu_0, # of connection points: 4
#     Node 12, Type 0, BuildingBlock: KUFVIS_clean_sbu_0, # of connection points: 4
#     Node 13, Type 0, BuildingBlock: KUFVIS_clean_sbu_0, # of connection points: 4
#     Node 14, Type 0, BuildingBlock: KUFVIS_clean_sbu_0, # of connection points: 4
#     Node 15, Type 0, BuildingBlock: KUFVIS_clean_sbu_0, # of connection points: 4
#     Node 16, Type 0, BuildingBlock: KUFVIS_clean_sbu_0, # of connection points: 4
#     Node 17, Type 0, BuildingBlock: KUFVIS_clean_sbu_0, # of connection points: 4
#     Node 18, Type 1, BuildingBlock: NAHDIM_clean_linker_0, # of connection points: 4
#     Node 19, Type 1, BuildingBlock: NAHDIM_clean_linker_0, # of connection points: 4
#     Node 20, Type 1, BuildingBlock: NAHDIM_clean_linker_0, # of connection points: 4
#     Node 21, Type 1, BuildingBlock: NAHDIM_clean_linker_0, # of connection points: 4
#     Node 22, Type 1, BuildingBlock: NAHDIM_clean_linker_0, # of connection points: 4
#     Node 23, Type 1, BuildingBlock: NAHDIM_clean_linker_0, # of connection points: 4
#     Node 24, Type 1, BuildingBlock: NAHDIM_clean_linker_0, # of connection points: 4
#     Node 25, Type 1, BuildingBlock: NAHDIM_clean_linker_0, # of connection points: 4
#     Node 26, Type 1, BuildingBlock: NAHDIM_clean_linker_0, # of connection points: 4
#     Node 27, Type 1, BuildingBlock: NAHDIM_clean_linker_0, # of connection points: 4
#     Node 28, Type 1, BuildingBlock: NAHDIM_clean_linker_0, # of connection points: 4
#     Node 29, Type 1, BuildingBlock: NAHDIM_clean_linker_0, # of connection points: 4
#     Node 30, Type 1, BuildingBlock: NAHDIM_clean_linker_0, # of connection points: 4
#     Node 31, Type 1, BuildingBlock: NAHDIM_clean_linker_0, # of connection points: 4
#     Node 32, Type 1, BuildingBlock: NAHDIM_clean_linker_0, # of connection points: 4
#     Node 33, Type 1, BuildingBlock: NAHDIM_clean_linker_0, # of connection points: 4
#     Node 34, Type 1, BuildingBlock: NAHDIM_clean_linker_0, # of connection points: 4
#     Node 35, Type 1, BuildingBlock: NAHDIM_clean_linker_0, # of connection points: 4
#     Edge 36, Type (0, 1), None
#     Edge 37, Type (0, 1), None
#     Edge 38, Type (0, 1), None
#     Edge 39, Type (0, 1), None
#     Edge 40, Type (0, 1), None
#     Edge 41, Type (0, 1), None
#     Edge 42, Type (0, 1), None
#     Edge 43, Type (0, 1), None
#     Edge 44, Type (0, 1), None
#     Edge 45, Type (0, 1), None
#     Edge 46, Type (0, 1), None
#     Edge 47, Type (0, 1), None
#     Edge 48, Type (0, 1), None
#     Edge 49, Type (0, 1), None
#     Edge 50, Type (0, 1), None
#     Edge 51, Type (0, 1), None
#     Edge 52, Type (0, 1), None
#     Edge 53, Type (0, 1), None
#     Edge 54, Type (0, 1), None
#     Edge 55, Type (0, 1), None
#     Edge 56, Type (0, 1), None
#     Edge 57, Type (0, 1), None
#     Edge 58, Type (0, 1), None
#     Edge 59, Type (0, 1), None
#     Edge 60, Type (0, 1), None
#     Edge 61, Type (0, 1), None
#     Edge 62, Type (0, 1), None
#     Edge 63, Type (0, 1), None
#     Edge 64, Type (0, 1), None
#     Edge 65, Type (0, 1), None
#     Edge 66, Type (0, 1), None
#     Edge 67, Type (0, 1), None
#     Edge 68, Type (0, 1), None
#     Edge 69, Type (0, 1), None
#     Edge 70, Type (0, 1), None
#     Edge 71, Type (0, 1), None
#     Edge 72, Type (0, 1), None
#     Edge 73, Type (0, 1), None
#     Edge 74, Type (0, 1), None
#     Edge 75, Type (0, 1), None
#     Edge 76, Type (0, 1), None
#     Edge 77, Type (0, 1), None
#     Edge 78, Type (0, 1), None
#     Edge 79, Type (0, 1), None
#     Edge 80, Type (0, 1), None
#     Edge 81, Type (0, 1), None
#     Edge 82, Type (0, 1), None
#     Edge 83, Type (0, 1), None
#     Edge 84, Type (0, 1), None
#     Edge 85, Type (0, 1), None
#     Edge 86, Type (0, 1), None
#     Edge 87, Type (0, 1), None
#     Edge 88, Type (0, 1), None
#     Edge 89, Type (0, 1), None
#     Edge 90, Type (0, 1), None
#     Edge 91, Type (0, 1), None
#     Edge 92, Type (0, 1), None
#     Edge 93, Type (0, 1), None
#     Edge 94, Type (0, 1), None
#     Edge 95, Type (0, 1), None
#     Edge 96, Type (0, 1), None
#     Edge 97, Type (0, 1), None
#     Edge 98, Type (0, 1), None
#     Edge 99, Type (0, 1), None
#     Edge 100, Type (0, 1), None
#     Edge 101, Type (0, 1), None
#     Edge 102, Type (0, 1), None
#     Edge 103, Type (0, 1), None
#     Edge 104, Type (0, 1), None
#     Edge 105, Type (0, 1), None
#     Edge 106, Type (0, 1), None
#     Edge 107, Type (0, 1), None
# Relax obj value: 0.039
# Max RMSD: 0.207
# Mean RMSD: 0.073
data_MOF--net-ptr--node1-KUFVIS_clean_sbu_0--node2-NAHDIM_clean_linker_0--edge1-none
_symmetry_space_group_name_H-M    P1
_symmetry_Int_Tables_number       1
_symmetry_cell_setting            triclinic
loop_
_symmetry_equiv_pos_as_xyz
'x, y, z'
_cell_length_a     56.793309
_cell_length_b     56.051975
_cell_length_c     48.393355
_cell_angle_alpha  90.760242
_cell_angle_beta   91.523886
_cell_angle_gamma 119.43916
loop_
_atom_site_label
_atom_site_type_symbol
_atom_site_fract_x
_atom_site_fract_y
_atom_site_fract_z
_atom_type_partial_charge
Mn0 Mn 0.98231 0.31986 0.98661 0.0
Mn1 Mn 0.05028 0.36731 0.99098 0.0
C2 C 1.00015 0.35958 0.9608 0.0
C3 C 0.95368 0.27788 0.01171 0.0
C4 C 0.01083 0.35548 0.03708 0.0
O5 O 0.00367 0.30059 0.00263 0.0
O6 O 0.0477 0.33121 0.99527 0.0
C7 C 0.07226 0.35491 0.94144 0.0
N8 N 0.06845 0.37302 0.95704 0.0
C9 C 0.09582 0.41007 0.92756 0.0
C10 C 0.10015 0.39184 0.9112 0.0
C11 C 0.08822 0.36412 0.91811 0.0
C12 C 0.07977 0.39972 0.95056 0.0
H13 H 0.06327 0.33364 0.94686 0.0
C14 C 0.02904 0.30747 0.0017 0.0
O15 O 0.94484 0.29206 -8e-05 0.0
O16 O 0.97915 0.28725 0.00906 0.0
N17 N 0.0559 0.40368 0.98703 0.0
C18 C 0.047 0.41771 0.00285 0.0
C19 C 0.05604 0.44547 0.99794 0.0
C20 C 0.07426 0.45856 0.97692 0.0
C21 C 0.08299 0.44365 0.96075 0.0
C22 C 0.07341 0.41609 0.96671 0.0
H23 H 0.03308 0.40783 0.01903 0.0
O24 O 0.97488 0.34638 0.96648 0.0
O25 O 0.01491 0.34969 0.97077 0.0
O26 O 0.98893 0.34148 0.02288 0.0
O27 O 0.03431 0.36391 0.02759 0.0
C28 C 0.10009 0.45479 0.93836 0.0
C29 C 0.10637 0.43798 0.92167 0.0
H30 H 0.11239 0.39885 0.89315 0.0
H31 H 0.0914 0.34992 0.90553 0.0
H32 H 0.04897 0.45674 0.01033 0.0
H33 H 0.08096 0.4799 0.97299 0.0
H34 H 0.10791 0.47609 0.93332 0.0
H35 H 0.11898 0.44663 0.9041 0.0
Mn36 Mn 0.66778 0.65253 0.01492 0.0
Mn37 Mn 0.673 0.59657 0.00086 0.0
C38 C 0.63639 0.61092 0.03251 0.0
C39 C 0.68117 0.6924 0.04101 0.0
C40 C 0.65701 0.62603 0.9584 0.0
O41 O 0.7062 0.66721 0.00185 0.0
O42 O 0.71005 0.62891 0.00257 0.0
C43 C 0.70192 0.59251 0.05075 0.0
N44 N 0.67995 0.58121 0.03294 0.0
C45 C 0.66045 0.53849 0.05647 0.0
C46 C 0.68294 0.54961 0.07503 0.0
C47 C 0.70371 0.57678 0.07221 0.0
C48 C 0.65984 0.5551 0.03546 0.0
H49 H 0.71795 0.61334 0.0485 0.0
C50 C 0.72003 0.65489 0.00033 0.0
O51 O 0.67205 0.68973 0.01565 0.0
O52 O 0.68217 0.6717 0.05156 0.0
N53 N 0.63826 0.56414 -0.00111 0.0
C54 C 0.61665 0.55771 0.98138 0.0
C55 C 0.59346 0.5318 0.98244 0.0
C56 C 0.59276 0.51275 0.00145 0.0
C57 C 0.6152 0.51991 0.0194 0.0
C58 C 0.63774 0.54602 0.01735 0.0
H59 H 0.61707 0.57226 0.96679 0.0
O60 O 0.63082 0.63072 0.03004 0.0
O61 O 0.66004 0.61626 0.02427 0.0
O62 O 0.65306 0.64104 0.97537 0.0
O63 O 0.66585 0.60999 0.9657 0.0
C64 C 0.61579 0.50246 0.03977 0.0
C65 C 0.6384 0.51175 0.05831 0.0
H66 H 0.68436 0.53759 0.09166 0.0
H67 H 0.72107 0.58553 0.08651 0.0
H68 H 0.57617 0.52652 0.96863 0.0
H69 H 0.57477 0.49286 0.00236 0.0
H70 H 0.59869 0.48211 0.04182 0.0
H71 H 0.63835 0.49836 0.07426 0.0
Mn72 Mn 0.32068 0.01051 0.01844 0.0
Mn73 Mn 0.37902 0.06954 0.01095 0.0
C74 C 0.35884 0.01811 0.04425 0.0
C75 C 0.27843 0.98692 0.03768 0.0
C76 C 0.35513 0.02247 0.96844 0.0
O77 O 0.30926 0.03533 -0.00124 0.0
O78 O 0.34807 0.0758 0.00256 0.0
C79 C 0.37606 0.10381 0.05629 0.0
N80 N 0.38955 0.0926 0.04348 0.0
C81 C 0.42805 0.11631 0.07502 0.0
C82 C 0.41464 0.12824 0.08849 0.0
C83 C 0.38848 0.12185 0.07916 0.0
C84 C 0.41461 0.09841 0.05242 0.0
H85 H 0.35604 0.09907 0.04902 0.0
C86 C 0.32268 0.0613 0.99656 0.0
O87 O 0.28331 0.97916 0.01417 0.0
O88 O 0.29819 0.00822 0.05035 0.0
N89 N 0.41083 0.06676 0.01852 0.0
C90 C 0.42004 0.05183 0.00466 0.0
C91 C 0.44563 0.05521 0.01192 0.0
C92 C 0.4616 0.0741 0.03311 0.0
C93 C 0.45171 0.08926 0.04705 0.0
C94 C 0.42609 0.08506 0.03889 0.0
H95 H 0.40805 0.03755 0.98812 0.0
O96 O 0.33844 0.99349 0.04052 0.0
O97 O 0.35603 0.0376 0.03306 0.0
O98 O 0.33639 0.00518 0.98307 0.0
O99 O 0.37074 0.04744 0.97613 0.0
C100 C 0.466 0.10791 0.06915 0.0
C101 C 0.4541 0.12128 0.08325 0.0
H102 H 0.42416 0.14219 0.10611 0.0
H103 H 0.37797 0.13091 0.08951 0.0
H104 H 0.45308 0.04336 0.00113 0.0
H105 H 0.48126 0.07651 0.03878 0.0
H106 H 0.48594 0.11173 0.07581 0.0
H107 H 0.46508 0.13517 0.10055 0.0
Mn108 Mn 0.02043 0.6747 0.96828 0.0
Mn109 Mn 0.06033 0.68079 0.02408 0.0
C110 C 0.05828 0.67048 0.96118 0.0
C111 C 0.00727 0.6948 0.93404 0.0
C112 C 0.00568 0.63057 0.01096 0.0
O113 O 0.00867 0.69216 0.99771 0.0
O114 O 0.03952 0.69999 0.03178 0.0
C115 C 0.0979 0.74062 0.02504 0.0
N116 N 0.09373 0.71452 0.02437 0.0
C117 C 0.14158 0.73065 0.0277 0.0
C118 C 0.1464 0.75772 0.02882 0.0
C119 C 0.12446 0.76271 0.0274 0.0
C120 C 0.11468 0.70948 0.02554 0.0
H121 H 0.08108 0.74451 0.0239 0.0
C122 C 0.01962 0.70202 0.02139 0.0
O123 O 0.99056 0.67088 0.94326 0.0
O124 O 0.03168 0.70726 0.94493 0.0
N125 N 0.08191 0.66346 0.02051 0.0
C126 C 0.07375 0.63618 0.02016 0.0
C127 C 0.09319 0.6276 0.0213 0.0
C128 C 0.12083 0.64719 0.02314 0.0
C129 C 0.12874 0.67516 0.02434 0.0
C130 C 0.10842 0.68243 0.0234 0.0
H131 H 0.0526 0.6211 0.01831 0.0
O132 O 0.03807 0.66075 0.9433 0.0
O133 O 0.05582 0.68268 0.98336 0.0
O134 O 0.00126 0.63803 0.98752 0.0
O135 O 0.02669 0.64522 0.02637 0.0
C136 C 0.15597 0.69611 0.02679 0.0
C137 C 0.16239 0.72383 0.02839 0.0
H138 H 0.16685 0.77481 0.03059 0.0
H139 H 0.128 0.78353 0.0282 0.0
H140 H 0.08688 0.60597 0.02053 0.0
H141 H 0.13578 0.64051 0.02385 0.0
H142 H 0.17214 0.69112 0.02751 0.0
H143 H 0.1834 0.73975 0.03011 0.0
Mn144 Mn 0.3328 0.32867 0.00047 0.0
Mn145 Mn 0.38764 0.33874 0.96568 0.0
C146 C 0.36693 0.32554 0.02475 0.0
C147 C 0.28802 0.2995 0.01101 0.0
C148 C 0.37816 0.38497 0.98559 0.0
O149 O 0.32087 0.32643 0.9602 0.0
O150 O 0.35633 0.32785 0.93942 0.0
C151 C 0.36665 0.2808 0.94814 0.0
N152 N 0.38674 0.30452 0.95998 0.0
C153 C 0.41534 0.28452 0.96707 0.0
C154 C 0.39522 0.26006 0.95432 0.0
C155 C 0.37067 0.25812 0.94508 0.0
C156 C 0.41 0.30628 0.9699 0.0
H157 H 0.34768 0.27921 0.9413 0.0
C158 C 0.3325 0.32478 0.9388 0.0
O159 O 0.29808 0.32589 0.01151 0.0
O160 O 0.30418 0.29007 0.00518 0.0
N161 N 0.42066 0.34974 0.98639 0.0
C162 C 0.4387 0.37541 0.99626 0.0
C163 C 0.46489 0.38147 0.005 0.0
C164 C 0.47228 0.36099 0.0036 0.0
C165 C 0.45367 0.33491 0.99266 0.0
C166 C 0.42819 0.33042 0.98343 0.0
H167 H 0.43301 0.39106 0.9977 0.0
O168 O 0.34894 0.3291 0.03729 0.0
O169 O 0.36412 0.32325 0.99771 0.0
O170 O 0.3566 0.37016 -0.00158 0.0
O171 O 0.39042 0.37519 0.97151 0.0
C172 C 0.45971 0.31346 0.98969 0.0
C173 C 0.44042 0.28816 0.97719 0.0
H174 H 0.39831 0.24258 0.95177 0.0
H175 H 0.35492 0.23924 0.9356 0.0
H176 H 0.47918 0.40174 0.0132 0.0
H177 H 0.49236 0.3656 0.01072 0.0
H178 H 0.47917 0.31626 0.99683 0.0
H179 H 0.44521 0.27176 0.97519 0.0
Mn180 Mn 0.65404 0.99767 -0.00029 0.0
Mn181 Mn 0.59221 0.94736 0.01543 0.0
C182 C 0.61658 0.99833 0.98047 0.0
C183 C 0.69202 0.0128 0.97324 0.0
C184 C 0.62977 0.99378 0.05547 0.0
O185 O 0.66099 0.96822 0.01521 0.0
O186 O 0.61831 0.93339 0.01791 0.0
C187 C 0.57989 0.90705 0.96946 0.0
N188 N 0.573 0.92311 0.98474 0.0
C189 C 0.52884 0.90274 0.96218 0.0
C190 C 0.53545 0.88598 0.94615 0.0
C191 C 0.56115 0.88829 0.94967 0.0
C192 C 0.54851 0.92137 0.98119 0.0
H193 H 0.59945 0.90845 0.9725 0.0
C194 C 0.64398 0.9431 0.01865 0.0
O195 O 0.6936 0.02294 0.99792 0.0
O196 O 0.6683 0.99433 0.96367 0.0
N197 N 0.56461 0.95744 0.01351 0.0
C198 C 0.56281 0.97737 0.02807 0.0
C199 C 0.53867 0.97854 0.02649 0.0
C200 C 0.51667 0.95921 0.00984 0.0
C201 C 0.51929 0.93931 0.99442 0.0
C202 C 0.54391 0.9393 0.99677 0.0
H203 H 0.57984 0.99241 0.04042 0.0
O204 O 0.64006 0.0204 0.9827 0.0
O205 O 0.61566 0.97623 0.99009 0.0
O206 O 0.64754 0.00781 0.0382 0.0
O207 O 0.60909 0.9706 0.04932 0.0
C208 C 0.49874 0.91996 0.97623 0.0
C209 C 0.50358 0.90179 0.95999 0.0
H210 H 0.52098 0.87132 0.93104 0.0
H211 H 0.56639 0.87543 0.93738 0.0
H212 H 0.53701 0.99426 0.03808 0.0
H213 H 0.4981 0.96019 0.00861 0.0
H214 H 0.47945 0.91941 0.97399 0.0
H215 H 0.48788 0.88746 0.94561 0.0
Mn216 Mn 0.65657 0.64647 0.32852 0.0
Mn217 Mn 0.7168 0.70377 0.34143 0.0
C218 C 0.66853 0.68359 0.30078 0.0
C219 C 0.63198 0.60267 0.30873 0.0
C220 C 0.66734 0.68735 0.37556 0.0
O221 O 0.677 0.63391 0.35416 0.0
O222 O 0.71839 0.67129 0.35504 0.0
C223 C 0.75055 0.69177 0.30436 0.0
N224 N 0.7414 0.70887 0.313 0.0
C225 C 0.76998 0.7436 0.28192 0.0
C226 C 0.77985 0.72643 0.27279 0.0
C227 C 0.76999 0.70035 0.28396 0.0
C228 C 0.75047 0.73384 0.30213 0.0
H229 H 0.74311 0.67178 0.31303 0.0
C230 C 0.70223 0.64625 0.3605 0.0
O231 O 0.62349 0.61008 0.33008 0.0
O232 O 0.65477 0.62065 0.29882 0.0
N233 N 0.71914 0.73729 0.32952 0.0
C234 C 0.70668 0.75086 0.33966 0.0
C235 C 0.71435 0.77736 0.33076 0.0
C236 C 0.73487 0.78972 0.31166 0.0
C237 C 0.74739 0.77537 0.30147 0.0
C238 C 0.73917 0.74919 0.3114 0.0
H239 H 0.69111 0.74166 0.35455 0.0
O240 O 0.64353 0.66423 0.30164 0.0
O241 O 0.68611 0.68037 0.31578 0.0
O242 O 0.65068 0.66676 0.36054 0.0
O243 O 0.69273 0.70097 0.37156 0.0
C244 C 0.76744 0.78587 0.28157 0.0
C245 C 0.7786 0.76993 0.27167 0.0
H246 H 0.79491 0.73302 0.25713 0.0
H247 H 0.77744 0.68696 0.27696 0.0
H248 H 0.70446 0.78822 0.33859 0.0
H249 H 0.74053 0.81005 0.30463 0.0
H250 H 0.77421 0.80606 0.2735 0.0
H251 H 0.79376 0.77809 0.25611 0.0
Mn252 Mn 0.31436 0.00026 0.36164 0.0
Mn253 Mn 0.3125 0.94019 0.34681 0.0
C254 C 0.29055 0.9635 0.38972 0.0
C255 C 0.33622 0.04419 0.38145 0.0
C256 C 0.27938 0.96065 0.31524 0.0
O257 O 0.34442 0.01058 0.33448 0.0
O258 O 0.34539 0.97094 0.33164 0.0
C259 C 0.36024 0.94844 0.38066 0.0
N260 N 0.33346 0.93301 0.37345 0.0
C261 C 0.32858 0.89714 0.4035 0.0
C262 C 0.35617 0.91255 0.41112 0.0
C263 C 0.37203 0.93837 0.39974 0.0
C264 C 0.31795 0.90829 0.3845 0.0
H265 H 0.37247 0.96822 0.37184 0.0
C266 C 0.35483 0.99625 0.32622 0.0
O267 O 0.31911 0.03769 0.36063 0.0
O268 O 0.34101 0.02527 0.3907 0.0
N269 N 0.28205 0.90811 0.35998 0.0
C270 C 0.25538 0.89691 0.35226 0.0
C271 C 0.23664 0.87124 0.36214 0.0
C272 C 0.24552 0.85726 0.37969 0.0
C273 C 0.27304 0.86929 0.38756 0.0
C274 C 0.29081 0.89478 0.37685 0.0
H275 H 0.24844 0.90741 0.33859 0.0
O276 O 0.28618 0.98416 0.38969 0.0
O277 O 0.30946 0.96524 0.37377 0.0
O278 O 0.2858 0.98177 0.33051 0.0
O279 O 0.28967 0.94503 0.31832 0.0
C280 C 0.28344 0.85729 0.40612 0.0
C281 C 0.31116 0.87127 0.4142 0.0
H282 H 0.36535 0.90483 0.4258 0.0
H283 H 0.39331 0.95043 0.4056 0.0
H284 H 0.2154 0.86221 0.3562 0.0
H285 H 0.23096 0.83755 0.38742 0.0
H286 H 0.27023 0.83751 0.41465 0.0
H287 H 0.31883 0.86203 0.42882 0.0
Mn288 Mn 0.00356 0.33275 0.35095 0.0
Mn289 Mn 0.06097 0.3904 0.33663 0.0
C290 C 0.04175 0.3467 0.37948 0.0
C291 C 0.96171 0.31129 0.37134 0.0
C292 C 0.0389 0.3369 0.30329 0.0
O293 O 0.99096 0.35248 0.32436 0.0
O294 O 0.02934 0.39318 0.32211 0.0
C295 C 0.05556 0.43125 0.37125 0.0
N296 N 0.06998 0.4188 0.36391 0.0
C297 C 0.10715 0.44851 0.39491 0.0
C298 C 0.09276 0.46177 0.40271 0.0
C299 C 0.06681 0.45302 0.39091 0.0
C300 C 0.09488 0.42693 0.37526 0.0
H301 H 0.03567 0.42465 0.36209 0.0
C302 C 0.00394 0.37736 0.31701 0.0
O303 O 0.96677 0.30012 0.35033 0.0
O304 O 0.98081 0.33509 0.38039 0.0
N305 N 0.09316 0.39058 0.34977 0.0
C306 C 0.10336 0.37418 0.34172 0.0
C307 C 0.12886 0.37963 0.35225 0.0
C308 C 0.14372 0.402 0.37072 0.0
C309 C 0.13281 0.41859 0.37869 0.0
C310 C 0.10733 0.41221 0.36747 0.0
H311 H 0.09218 0.35713 0.32731 0.0
O312 O 0.02234 0.32139 0.3789 0.0
O313 O 0.0382 0.36298 0.36313 0.0
O314 O 0.02003 0.3222 0.3193 0.0
O315 O 0.05435 0.36267 0.30722 0.0
C316 C 0.14592 0.4408 0.39784 0.0
C317 C 0.13303 0.45565 0.40608 0.0
H318 H 0.10136 0.47855 0.41788 0.0
H319 H 0.05556 0.46308 0.3969 0.0
H320 H 0.13708 0.36665 0.3461 0.0
H321 H 0.16329 0.406 0.37896 0.0
H322 H 0.16567 0.44627 0.40681 0.0
H323 H 0.14309 0.47233 0.42123 0.0
Mn324 Mn 0.66176 0.99678 0.3472 0.0
Mn325 Mn 0.72859 0.02332 0.33898 0.0
C326 C 0.67545 0.97839 0.3119 0.0
C327 C 0.62267 0.99964 0.33972 0.0
C328 C 0.6981 0.98657 0.38601 0.0
O329 O 0.67889 0.03315 0.3687 0.0
O330 O 0.72151 0.05222 0.35416 0.0
C331 C 0.73904 0.06434 0.29625 0.0
N332 N 0.74043 0.04211 0.3052 0.0
C333 C 0.76581 0.0426 0.26599 0.0
C334 C 0.76465 0.06549 0.25632 0.0
C335 C 0.75108 0.07631 0.27145 0.0
C336 C 0.75315 0.03134 0.29065 0.0
H337 H 0.72885 0.07286 0.30797 0.0
C338 C 0.70233 0.05367 0.36592 0.0
O339 O 0.62572 0.98746 0.36102 0.0
O340 O 0.64211 0.00973 0.32243 0.0
N341 N 0.73867 0.99801 0.32403 0.0
C342 C 0.73709 0.97526 0.33565 0.0
C343 C 0.74988 0.9621 0.32324 0.0
C344 C 0.76444 0.97262 0.29923 0.0
C345 C 0.76562 0.99592 0.28751 0.0
C346 C 0.75252 0.0082 0.30082 0.0
H347 H 0.72645 0.96738 0.35442 0.0
O348 O 0.65151 0.96483 0.32183 0.0
O349 O 0.69105 0.00267 0.32329 0.0
O350 O 0.67436 0.97984 0.37697 0.0
O351 O 0.71949 0.00426 0.37462 0.0
C352 C 0.77902 0.00725 0.26296 0.0
C353 C 0.77892 0.03044 0.25209 0.0
H354 H 0.77405 0.07489 0.23729 0.0
H355 H 0.75007 0.09395 0.2641 0.0
H356 H 0.7487 0.944 0.33228 0.0
H357 H 0.77424 0.96238 0.28969 0.0
H358 H 0.78918 0.99808 0.25211 0.0
H359 H 0.789 0.03875 0.23302 0.0
Mn360 Mn 0.98152 0.66759 0.33208 0.0
Mn361 Mn 0.04535 0.71486 0.31744 0.0
C362 C 0.00311 0.70814 0.35826 0.0
C363 C 0.95162 0.62859 0.35488 0.0
C364 C 0.99583 0.70527 0.28307 0.0
O365 O 0.9939 0.64606 0.3083 0.0
O366 O 0.03748 0.67799 0.30313 0.0
C367 C 0.07656 0.6962 0.35215 0.0
N368 N 0.07099 0.71629 0.34471 0.0
C369 C 0.10898 0.75011 0.37231 0.0
C370 C 0.11533 0.72984 0.38001 0.0
C371 C 0.09884 0.70269 0.37016 0.0
C372 C 0.08624 0.74228 0.35473 0.0
H373 H 0.06421 0.67548 0.34418 0.0
C374 C 0.01736 0.65373 0.29928 0.0
O375 O 0.94419 0.63577 0.33235 0.0
O376 O 0.97654 0.64361 0.3638 0.0
N377 N 0.05625 0.75152 0.32975 0.0
C378 C 0.04699 0.76848 0.32083 0.0
C379 C 0.06043 0.79609 0.32983 0.0
C380 C 0.08355 0.80611 0.34749 0.0
C381 C 0.09289 0.78835 0.35614 0.0
C382 C 0.0784 0.76094 0.34684 0.0
H383 H 0.02926 0.76088 0.30731 0.0
O384 O 0.97692 0.69325 0.35692 0.0
O385 O 0.01616 0.69871 0.34402 0.0
O386 O 0.97812 0.68712 0.29806 0.0
O387 O 0.02119 0.71595 0.28814 0.0
C388 C 0.11612 0.79681 0.37346 0.0
C389 C 0.12418 0.77771 0.38155 0.0
H390 H 0.13266 0.73483 0.39365 0.0
H391 H 0.1035 0.6869 0.37616 0.0
H392 H 0.05311 0.80966 0.32298 0.0
H393 H 0.09401 0.82747 0.35424 0.0
H394 H 0.12787 0.81796 0.38068 0.0
H395 H 0.14192 0.7844 0.39511 0.0
Mn396 Mn 0.33533 0.35904 0.34011 0.0
Mn397 Mn 0.27218 0.34222 0.35858 0.0
C398 C 0.3128 0.37872 0.31772 0.0
C399 C 0.36454 0.35079 0.31418 0.0
C400 C 0.32286 0.38085 0.39256 0.0
O401 O 0.32358 0.32426 0.36126 0.0
O402 O 0.28051 0.31292 0.36972 0.0
C403 C 0.23986 0.29321 0.32215 0.0
N404 N 0.24575 0.31872 0.33116 0.0
C405 C 0.20767 0.31567 0.30504 0.0
C406 C 0.2008 0.28909 0.29603 0.0
C407 C 0.21719 0.27796 0.30432 0.0
C408 C 0.23059 0.32993 0.32266 0.0
H409 H 0.25226 0.28454 0.3287 0.0
C410 C 0.30052 0.30835 0.37092 0.0
O411 O 0.37256 0.36459 0.3375 0.0
O412 O 0.33946 0.34134 0.30612 0.0
N413 N 0.26098 0.36829 0.34918 0.0
C414 C 0.27045 0.39423 0.35965 0.0
C415 C 0.25726 0.4089 0.35208 0.0
C416 C 0.23419 0.39661 0.33422 0.0
C417 C 0.22456 0.36974 0.32405 0.0
C418 C 0.23874 0.35625 0.33206 0.0
H419 H 0.28804 0.40371 0.3735 0.0
O420 O 0.33901 0.39017 0.318 0.0
O421 O 0.30041 0.35584 0.33087 0.0
O422 O 0.33987 0.38057 0.3761 0.0
O423 O 0.29733 0.36675 0.38818 0.0
C424 C 0.20137 0.35576 0.30638 0.0
C425 C 0.19287 0.3287 0.29698 0.0
H426 H 0.18323 0.2772 0.28243 0.0
H427 H 0.21224 0.25759 0.29714 0.0
H428 H 0.26473 0.42958 0.36016 0.0
H429 H 0.22397 0.40793 0.32856 0.0
H430 H 0.18997 0.36566 0.29982 0.0
H431 H 0.17509 0.31819 0.28331 0.0
Mn432 Mn 0.31732 0.99952 0.65385 0.0
Mn433 Mn 0.36612 0.05441 0.68912 0.0
C434 C 0.32764 0.04313 0.64036 0.0
C435 C 0.30503 0.96519 0.62011 0.0
C436 C 0.31113 0.01543 0.71164 0.0
O437 O 0.33852 0.9848 0.67532 0.0
O438 O 0.37501 0.02428 0.69053 0.0
C439 C 0.41397 0.06942 0.65552 0.0
N440 N 0.3965 0.07627 0.66728 0.0
C441 C 0.42198 0.12273 0.65242 0.0
C442 C 0.44028 0.11619 0.64019 0.0
C443 C 0.43621 0.0894 0.64168 0.0
C444 C 0.40021 0.10197 0.66594 0.0
H445 H 0.41099 0.0489 0.6568 0.0
C446 C 0.36249 0.99824 0.68602 0.0
O447 O 0.29002 0.96187 0.64104 0.0
O448 O 0.32693 0.98872 0.61844 0.0
N449 N 0.35974 0.08493 0.6887 0.0
C450 C 0.33889 0.08717 0.69926 0.0
C451 C 0.33938 0.11245 0.69868 0.0
C452 C 0.36128 0.13516 0.68725 0.0
C453 C 0.38237 0.13229 0.67622 0.0
C454 C 0.38079 0.1066 0.67743 0.0
H455 H 0.32198 0.0698 0.708 0.0
O456 O 0.30436 0.02199 0.63333 0.0
O457 O 0.34373 0.03784 0.65534 0.0
O458 O 0.30006 0.00245 0.68905 0.0
O459 O 0.336 0.0339 0.71418 0.0
C460 C 0.40455 0.15372 0.66343 0.0
C461 C 0.42428 0.14891 0.65145 0.0
H462 H 0.45744 0.13153 0.62946 0.0
H463 H 0.45023 0.08419 0.63225 0.0
H464 H 0.32289 0.1144 0.70697 0.0
H465 H 0.36147 0.15457 0.6866 0.0
H466 H 0.40629 0.1738 0.66212 0.0
H467 H 0.44095 0.1654 0.64121 0.0
Mn468 Mn 0.00657 0.37026 0.70273 0.0
Mn469 Mn 0.01199 0.31201 0.70519 0.0
C470 C 0.98569 0.33761 0.73856 0.0
C471 C 0.98092 0.39434 0.70295 0.0
C472 C 0.97646 0.32102 0.66323 0.0
O473 O 0.03807 0.37697 0.67861 0.0
O474 O 0.04426 0.34107 0.68744 0.0
C475 C 0.05934 0.33047 0.74392 0.0
N476 N 0.03321 0.31209 0.73647 0.0
C477 C 0.03014 0.2829 0.77381 0.0
C478 C 0.05711 0.30141 0.78178 0.0
C479 C 0.07171 0.32539 0.76687 0.0
C480 C 0.01887 0.28914 0.75086 0.0
H481 H 0.0706 0.3488 0.73237 0.0
C482 C 0.05117 0.36404 0.6763 0.0
O483 O 0.00048 0.4002 0.68688 0.0
O484 O 0.97567 0.37437 0.71942 0.0
N485 N 0.98245 0.28154 0.72171 0.0
C486 C 0.95585 0.26754 0.71331 0.0
C487 C 0.9381 0.24353 0.72671 0.0
C488 C 0.94793 0.23401 0.74839 0.0
C489 C 0.97534 0.2489 0.75685 0.0
C490 C 0.99209 0.2726 0.74264 0.0
H491 H 0.94824 0.27454 0.69643 0.0
O492 O 0.97785 0.35509 0.73219 0.0
O493 O 0.00531 0.33958 0.72411 0.0
O494 O 0.97958 0.34344 0.67358 0.0
O495 O 0.98907 0.30892 0.67227 0.0
C496 C 0.98658 0.24158 0.77928 0.0
C497 C 0.01389 0.25868 0.78789 0.0
H498 H 0.06674 0.29754 0.79944 0.0
H499 H 0.09249 0.33983 0.77298 0.0
H500 H 0.91692 0.2323 0.72027 0.0
H501 H 0.93414 0.21554 0.75873 0.0
H502 H 0.97424 0.22314 0.79042 0.0
H503 H 0.02211 0.25315 0.80556 0.0
Mn504 Mn 0.63809 0.62895 0.66907 0.0
Mn505 Mn 0.69175 0.69055 0.65563 0.0
C506 C 0.67057 0.65235 0.70391 0.0
C507 C 0.59333 0.60268 0.68162 0.0
C508 C 0.68599 0.63633 0.63566 0.0
O509 O 0.62638 0.63999 0.63369 0.0
O510 O 0.6611 0.68277 0.62945 0.0
C511 C 0.66878 0.72581 0.67166 0.0
N512 N 0.68881 0.7192 0.67418 0.0
C513 C 0.71437 0.75686 0.70646 0.0
C514 C 0.69419 0.76432 0.70394 0.0
C515 C 0.67125 0.74866 0.68653 0.0
C516 C 0.71083 0.73396 0.69103 0.0
H517 H 0.65106 0.7137 0.65844 0.0
C518 C 0.63784 0.66297 0.62184 0.0
O519 O 0.60492 0.59224 0.66677 0.0
O520 O 0.60751 0.62846 0.68878 0.0
N521 N 0.7233 0.7015 0.67893 0.0
C522 C 0.73991 0.69039 0.68054 0.0
C523 C 0.76361 0.7033 0.69744 0.0
C524 C 0.77005 0.72755 0.71235 0.0
C525 C 0.75252 0.73845 0.71059 0.0
C526 C 0.7294 0.72493 0.6931 0.0
H527 H 0.73518 0.67188 0.66897 0.0
O528 O 0.65414 0.62617 0.70504 0.0
O529 O 0.66724 0.66426 0.68234 0.0
O530 O 0.66414 0.62081 0.6477 0.0
O531 O 0.69708 0.66245 0.63604 0.0
C532 C 0.75679 0.76188 0.72591 0.0
C533 C 0.7377 0.77105 0.7239 0.0
H534 H 0.69599 0.78188 0.71545 0.0
H535 H 0.65551 0.75417 0.68461 0.0
H536 H 0.77692 0.69463 0.69892 0.0
H537 H 0.78837 0.73747 0.72529 0.0
H538 H 0.77448 0.77277 0.73963 0.0
H539 H 0.74103 0.78889 0.73604 0.0
Mn540 Mn 0.32958 0.34008 0.68189 0.0
Mn541 Mn 0.37295 0.32091 0.70891 0.0
C542 C 0.36187 0.34034 0.65315 0.0
C543 C 0.31731 0.3739 0.67902 0.0
C544 C 0.31465 0.28084 0.69057 0.0
O545 O 0.32446 0.33998 0.7232 0.0
O546 O 0.35879 0.33429 0.73884 0.0
C547 C 0.41571 0.37652 0.72699 0.0
N548 N 0.40817 0.35218 0.7136 0.0
C549 C 0.45414 0.36643 0.70252 0.0
C550 C 0.46254 0.39141 0.71684 0.0
C551 C 0.44318 0.3966 0.72883 0.0
C552 C 0.42643 0.34748 0.7009 0.0
H553 H 0.40079 0.38059 0.7359 0.0
C554 C 0.33943 0.33922 0.74268 0.0
O555 O 0.29943 0.3481 0.67642 0.0
O556 O 0.34253 0.38016 0.68184 0.0
N557 N 0.38931 0.30674 0.68445 0.0
C558 C 0.37813 0.28068 0.67368 0.0
C559 C 0.39481 0.2713 0.66257 0.0
C560 C 0.42292 0.28881 0.66261 0.0
C561 C 0.43412 0.31528 0.67444 0.0
C562 C 0.41652 0.32311 0.68606 0.0
H563 H 0.35662 0.26706 0.67364 0.0
O564 O 0.34063 0.34081 0.64331 0.0
O565 O 0.36415 0.34061 0.68018 0.0
O566 O 0.30902 0.29835 0.68028 0.0
O567 O 0.33698 0.28734 0.70371 0.0
C568 C 0.46216 0.33383 0.6761 0.0
C569 C 0.47214 0.35956 0.68981 0.0
H570 H 0.48374 0.40684 0.71854 0.0
H571 H 0.44944 0.41597 0.73951 0.0
H572 H 0.38599 0.25071 0.65377 0.0
H573 H 0.43569 0.28163 0.6537 0.0
H574 H 0.47623 0.32845 0.66708 0.0
H575 H 0.49371 0.37372 0.69083 0.0
Mn576 Mn 0.68589 0.00777 0.70329 0.0
Mn577 Mn 0.74161 0.00435 0.68737 0.0
C578 C 0.72731 0.04049 0.72291 0.0
C579 C 0.64777 0.99343 0.72969 0.0
C580 C 0.71267 0.0242 0.64814 0.0
O581 O 0.67091 0.96919 0.68708 0.0
O582 O 0.7093 0.96709 0.68348 0.0
C583 C 0.74395 0.97021 0.73236 0.0
N584 N 0.75598 0.99366 0.71787 0.0
C585 C 0.79857 0.00882 0.74245 0.0
C586 C 0.78668 0.98479 0.75763 0.0
C587 C 0.7592 0.96549 0.75268 0.0
C588 C 0.78228 0.01253 0.72273 0.0
H589 H 0.72292 0.9552 0.72837 0.0
C590 C 0.68348 0.95598 0.68283 0.0
O591 O 0.64866 0.00251 0.705 0.0
O592 O 0.66906 0.99275 0.73909 0.0
N593 N 0.7746 0.03852 0.69044 0.0
C594 C 0.78234 0.06149 0.67556 0.0
C595 C 0.80914 0.08306 0.67831 0.0
C596 C 0.82773 0.08069 0.69621 0.0
C597 C 0.81921 0.05692 0.71151 0.0
C598 C 0.79223 0.03617 0.70796 0.0
H599 H 0.7681 0.06335 0.66189 0.0
O600 O 0.70686 0.0448 0.72083 0.0
O601 O 0.7229 0.01673 0.71309 0.0
O602 O 0.69587 0.02394 0.66515 0.0
O603 O 0.7295 0.01598 0.65391 0.0
C604 C 0.83628 0.05322 0.73056 0.0
C605 C 0.82589 0.0293 0.74621 0.0
H606 H 0.79841 0.98101 0.7732 0.0
H607 H 0.74987 0.94694 0.76434 0.0
H608 H 0.81546 0.10142 0.6666 0.0
H609 H 0.84836 0.0974 0.69836 0.0
H610 H 0.85724 0.06892 0.7338 0.0
H611 H 0.83906 0.02693 0.76119 0.0
Mn612 Mn 0.99247 0.66552 0.67563 0.0
Mn613 Mn 0.93656 0.62037 0.70801 0.0
C614 C 0.95864 0.62899 0.64955 0.0
C615 C 0.03757 0.68111 0.66604 0.0
C616 C 0.9474 0.67697 0.69138 0.0
O617 O 0.00349 0.67368 0.71636 0.0
O618 O 0.96746 0.63901 0.73519 0.0
C619 C 0.95565 0.58164 0.72319 0.0
N620 N 0.93632 0.5864 0.71157 0.0
C621 C 0.90667 0.5383 0.70212 0.0
C622 C 0.92604 0.53279 0.71452 0.0
C623 C 0.95077 0.55461 0.72485 0.0
C624 C 0.91294 0.5657 0.70064 0.0
H625 H 0.97469 0.59842 0.73085 0.0
C626 C 0.99136 0.65956 0.73693 0.0
O627 O 0.02763 0.69758 0.66642 0.0
O628 O 0.02112 0.65541 0.67036 0.0
N629 N 0.90391 0.5999 0.68606 0.0
C630 C 0.88681 0.60864 0.67626 0.0
C631 C 0.86055 0.5894 0.66666 0.0
C632 C 0.85208 0.56128 0.66719 0.0
C633 C 0.86985 0.55268 0.67767 0.0
C634 C 0.89548 0.57281 0.68772 0.0
H635 H 0.89313 0.63015 0.67578 0.0
O636 O 0.97693 0.65082 0.63805 0.0
O637 O 0.96091 0.62894 0.67653 0.0
O638 O 0.96903 0.68362 0.67862 0.0
O639 O 0.93478 0.65472 0.70449 0.0
C640 C 0.86288 0.5249 0.67925 0.0
C641 C 0.88142 0.51772 0.69117 0.0
H642 H 0.92224 0.51194 0.71604 0.0
H643 H 0.966 0.55064 0.73407 0.0
H644 H 0.84696 0.59624 0.65864 0.0
H645 H 0.83192 0.54651 0.65946 0.0
H646 H 0.84329 0.50889 0.67143 0.0
H647 H 0.87591 0.49631 0.69211 0.0
C648 C 0.24862 0.25177 0.00474 0.0
C649 C 0.2587 0.2808 0.01651 0.0
C650 C 0.23967 0.28836 0.05802 0.0
C651 C 0.23985 0.31269 0.05117 0.0
C652 C 0.22302 0.32067 0.06444 0.0
C653 C 0.20535 0.30371 0.08466 0.0
C654 C 0.2057 0.27949 0.09206 0.0
C655 C 0.22334 0.27248 0.079 0.0
C656 C 0.2238 0.34695 0.05639 0.0
C657 C 0.18693 0.2605 0.11314 0.0
C658 C 0.02338 0.26133 0.99018 0.0
C659 C 0.03718 0.28657 0.00963 0.0
C660 C 0.08217 0.30071 0.02955 0.0
C661 C 0.07672 0.27905 0.04715 0.0
C662 C 0.09585 0.28166 0.06772 0.0
C663 C 0.12056 0.30666 0.071 0.0
C664 C 0.12569 0.32869 0.05362 0.0
C665 C 0.10659 0.32519 0.03275 0.0
C666 C 0.09007 0.25753 0.08537 0.0
C667 C 0.15161 0.35576 0.05666 0.0
C668 C 0.08303 0.33958 0.24886 0.0
C669 C 0.08225 0.31432 0.24456 0.0
C670 C 0.10242 0.31273 0.22976 0.0
C671 C 0.12358 0.33676 0.21879 0.0
C672 C 0.12404 0.36205 0.22252 0.0
C673 C 0.10372 0.36308 0.2375 0.0
C674 C 0.10138 0.28544 0.22614 0.0
C675 C 0.14624 0.38807 0.21104 0.0
C676 C 0.31867 0.40941 0.27794 0.0
C677 C 0.29838 0.38683 0.29632 0.0
C678 C 0.26005 0.35916 0.26355 0.0
C679 C 0.24492 0.33327 0.25084 0.0
C680 C 0.22184 0.3266 0.23414 0.0
C681 C 0.21491 0.34717 0.22834 0.0
C682 C 0.23047 0.37366 0.24089 0.0
C683 C 0.25237 0.37911 0.25895 0.0
C684 C 0.20482 0.2974 0.22328 0.0
C685 C 0.22398 0.39635 0.23563 0.0
C686 C 0.18533 0.31025 0.0968 0.0
C687 C 0.16274 0.30538 0.08032 0.0
C688 C 0.14214 0.30927 0.09082 0.0
C689 C 0.14317 0.31666 0.11907 0.0
C690 C 0.12204 0.3191 0.13085 0.0
C691 C 0.12288 0.3253 0.15897 0.0
C692 C 0.14521 0.33005 0.17617 0.0
C693 C 0.14609 0.33578 0.20485 0.0
C694 C 0.16879 0.34073 0.22118 0.0
C695 C 0.19124 0.341 0.20964 0.0
C696 C 0.19073 0.3353 0.18097 0.0
C697 C 0.21301 0.33578 0.16839 0.0
C698 C 0.21134 0.32761 0.14081 0.0
C699 C 0.18775 0.31982 0.12446 0.0
C700 C 0.16608 0.32188 0.13595 0.0
C701 C 0.16734 0.32909 0.16439 0.0
C702 C 0.01847 0.30644 0.26118 0.0
C703 C 0.0442 0.32289 0.27937 0.0
O704 O 0.25491 0.27961 0.04472 0.0
O705 O 0.2815 0.36364 0.28032 0.0
O706 O 0.06442 0.34237 0.26364 0.0
O707 O 0.06498 0.29817 0.00835 0.0
H708 H 0.2466 0.28879 0.00562 0.0
H709 H 0.22666 0.23891 0.00822 0.0
H710 H 0.25951 0.24219 0.01504 0.0
H711 H 0.25165 0.2522 0.98211 0.0
H712 H 0.25316 0.32549 0.03551 0.0
H713 H 0.22364 0.25392 0.08433 0.0
H714 H 0.20612 0.34199 0.04236 0.0
H715 H 0.24246 0.36061 0.04541 0.0
H716 H 0.22259 0.3582 0.07488 0.0
H717 H 0.18683 0.24063 0.11338 0.0
H718 H 0.16593 0.25638 0.10885 0.0
H719 H 0.19346 0.27034 0.13406 0.0
H720 H 0.03017 0.27995 0.03088 0.0
H721 H 0.02984 0.24629 0.99615 0.0
H722 H 0.02895 0.26714 0.96847 0.0
H723 H 0.00102 0.25127 0.99148 0.0
H724 H 0.05799 0.25985 0.04416 0.0
H725 H 0.11058 0.34167 0.01886 0.0
H726 H 0.10632 0.25211 0.0833 0.0
H727 H 0.0703 0.23924 0.07961 0.0
H728 H 0.08999 0.26308 0.10745 0.0
H729 H 0.15087 0.37189 0.04417 0.0
H730 H 0.16869 0.35312 0.04979 0.0
H731 H 0.15583 0.36284 0.07869 0.0
H732 H 0.05068 0.30885 0.28851 0.0
H733 H 0.06609 0.29577 0.25265 0.0
H734 H 0.10407 0.38243 0.24072 0.0
H735 H 0.10103 0.28051 0.20379 0.0
H736 H 0.08337 0.26852 0.23551 0.0
H737 H 0.11988 0.28661 0.23584 0.0
H738 H 0.1428 0.40577 0.21423 0.0
H739 H 0.14777 0.38512 0.18855 0.0
H740 H 0.16591 0.39301 0.22124 0.0
H741 H 0.28647 0.39464 0.30701 0.0
H742 H 0.33239 0.42798 0.29075 0.0
H743 H 0.30819 0.41549 0.26227 0.0
H744 H 0.33094 0.40214 0.26679 0.0
H745 H 0.25073 0.31785 0.25489 0.0
H746 H 0.2633 0.39902 0.26928 0.0
H747 H 0.21075 0.29553 0.20207 0.0
H748 H 0.18296 0.29106 0.22257 0.0
H749 H 0.20793 0.28287 0.23619 0.0
H750 H 0.24149 0.41685 0.24111 0.0
H751 H 0.20695 0.39337 0.24856 0.0
H752 H 0.21783 0.39613 0.21361 0.0
H753 H 0.16126 0.29866 0.0589 0.0
H754 H 0.10438 0.31565 0.11856 0.0
H755 H 0.1058 0.32631 0.16709 0.0
H756 H 0.16909 0.34474 0.24322 0.0
H757 H 0.23182 0.34188 0.17985 0.0
H758 H 0.22879 0.32753 0.13242 0.0
H759 H 0.00234 0.29009 0.27319 0.0
H760 H 0.02265 0.29651 0.24342 0.0
H761 H 0.01106 0.3201 0.25301 0.0
C762 C 0.67207 0.92495 0.99823 0.0
C763 C 0.65456 0.92352 0.02235 0.0
C764 C 0.66782 0.91152 0.0658 0.0
C765 C 0.64261 0.89051 0.07377 0.0
C766 C 0.64099 0.87055 0.09196 0.0
C767 C 0.66507 0.87189 0.10255 0.0
C768 C 0.6905 0.89383 0.0956 0.0
C769 C 0.69151 0.91359 0.07745 0.0
C770 C 0.61358 0.84779 0.09958 0.0
C771 C 0.71655 0.89602 0.10685 0.0
C772 C 0.71429 0.74185 0.04164 0.0
C773 C 0.69094 0.71887 0.05694 0.0
C774 C 0.66767 0.74267 0.07535 0.0
C775 C 0.68871 0.76058 0.09382 0.0
C776 C 0.68695 0.78127 0.10865 0.0
C777 C 0.66286 0.78298 0.10638 0.0
C778 C 0.64111 0.76408 0.08883 0.0
C779 C 0.64401 0.74445 0.07325 0.0
C780 C 0.71117 0.80149 0.1263 0.0
C781 C 0.61488 0.76471 0.08626 0.0
C782 C 0.66689 0.74464 0.27812 0.0
C783 C 0.6892 0.76168 0.26248 0.0
C784 C 0.6917 0.78579 0.25153 0.0
C785 C 0.67055 0.79199 0.25472 0.0
C786 C 0.64851 0.77535 0.27125 0.0
C787 C 0.64731 0.75216 0.28321 0.0
C788 C 0.7165 0.80395 0.23564 0.0
C789 C 0.62574 0.78144 0.27549 0.0
C790 C 0.68481 0.99268 0.26238 0.0
C791 C 0.67887 0.97022 0.28308 0.0
C792 C 0.69361 0.93709 0.27386 0.0
C793 C 0.71236 0.93517 0.25731 0.0
C794 C 0.70781 0.90979 0.24682 0.0
C795 C 0.68292 0.88589 0.25156 0.0
C796 C 0.66421 0.88755 0.26916 0.0
C797 C 0.67012 0.91308 0.28071 0.0
C798 C 0.72937 0.90895 0.22991 0.0
C799 C 0.63772 0.86258 0.27536 0.0
C800 C 0.6636 0.84973 0.11998 0.0
C801 C 0.66242 0.82688 0.10665 0.0
C802 C 0.66091 0.80508 0.12166 0.0
C803 C 0.66015 0.8059 0.1508 0.0
C804 C 0.65673 0.7836 0.1665 0.0
C805 C 0.65871 0.78567 0.1952 0.0
C806 C 0.66477 0.81032 0.20923 0.0
C807 C 0.66996 0.81378 0.23817 0.0
C808 C 0.67574 0.83849 0.25143 0.0
C809 C 0.67577 0.85976 0.23658 0.0
C810 C 0.67032 0.8565 0.20762 0.0
C811 C 0.66943 0.87708 0.19199 0.0
C812 C 0.66664 0.87471 0.16328 0.0
C813 C 0.6644 0.85157 0.14916 0.0
C814 C 0.6632 0.82975 0.1646 0.0
C815 C 0.66589 0.83212 0.19387 0.0
C816 C 0.66614 0.69367 0.2514 0.0
C817 C 0.67581 0.70605 0.28075 0.0
O818 O 0.66988 0.92997 0.04684 0.0
O819 O 0.69839 0.9623 0.28251 0.0
O820 O 0.6633 0.72079 0.28858 0.0
O821 O 0.66943 0.72386 0.05879 0.0
H822 H 0.63714 0.90226 0.02202 0.0
H823 H 0.67885 0.90956 0.00077 0.0
H824 H 0.69027 0.94559 0.99749 0.0
H825 H 0.66026 0.92036 0.9783 0.0
H826 H 0.62422 0.88966 0.06576 0.0
H827 H 0.71084 0.93022 0.07151 0.0
H828 H 0.61094 0.82783 0.09192 0.0
H829 H 0.59678 0.85044 0.09074 0.0
H830 H 0.61223 0.84693 0.12243 0.0
H831 H 0.73467 0.91429 0.09934 0.0
H832 H 0.71751 0.87737 0.10067 0.0
H833 H 0.71714 0.89721 0.12979 0.0
H834 H 0.69813 0.71684 0.07792 0.0
H835 H 0.72298 0.76169 0.05327 0.0
H836 H 0.70714 0.74454 0.02092 0.0
H837 H 0.7308 0.73687 0.039 0.0
H838 H 0.70684 0.75898 0.09644 0.0
H839 H 0.62775 0.73037 0.05919 0.0
H840 H 0.71412 0.82254 0.12501 0.0
H841 H 0.73005 0.8019 0.12007 0.0
H842 H 0.70797 0.79547 0.14821 0.0
H843 H 0.59843 0.7457 0.07608 0.0
H844 H 0.61792 0.78236 0.0737 0.0
H845 H 0.60835 0.76742 0.10695 0.0
H846 H 0.69789 0.71901 0.2808 0.0
H847 H 0.70479 0.75643 0.25869 0.0
H848 H 0.6304 0.73907 0.29568 0.0
H849 H 0.71205 0.79872 0.21322 0.0
H850 H 0.73385 0.80102 0.24184 0.0
H851 H 0.72254 0.82591 0.23886 0.0
H852 H 0.60886 0.765 0.28669 0.0
H853 H 0.6177 0.78404 0.25526 0.0
H854 H 0.63355 0.80094 0.28766 0.0
H855 H 0.65887 0.953 0.27567 0.0
H856 H 0.66837 0.99801 0.26202 0.0
H857 H 0.68596 0.98529 0.24131 0.0
H858 H 0.7041 0.01139 0.26751 0.0
H859 H 0.73027 0.9537 0.25178 0.0
H860 H 0.65607 0.91437 0.29453 0.0
H861 H 0.7252 0.91059 0.2077 0.0
H862 H 0.72976 0.8895 0.23261 0.0
H863 H 0.74974 0.92637 0.23569 0.0
H864 H 0.62372 0.86805 0.28573 0.0
H865 H 0.64172 0.84926 0.2892 0.0
H866 H 0.62753 0.85054 0.25606 0.0
H867 H 0.66317 0.8263 0.08427 0.0
H868 H 0.65288 0.76447 0.15673 0.0
H869 H 0.65614 0.76788 0.20615 0.0
H870 H 0.68051 0.84129 0.2735 0.0
H871 H 0.67139 0.8955 0.20171 0.0
H872 H 0.66681 0.89148 0.15227 0.0
H873 H 0.67481 0.68033 0.24589 0.0
H874 H 0.67287 0.7101 0.23609 0.0
H875 H 0.6437 0.68136 0.24976 0.0
C876 C 0.23081 0.97468 0.02813 0.0
C877 C 0.25057 0.97256 0.04893 0.0
C878 C 0.22239 0.92651 0.06733 0.0
C879 C 0.20459 0.93263 0.08143 0.0
C880 C 0.18232 0.91213 0.09476 0.0
C881 C 0.17848 0.88516 0.09526 0.0
C882 C 0.19696 0.87917 0.08195 0.0
C883 C 0.21845 0.89987 0.06789 0.0
C884 C 0.16278 0.91939 0.10801 0.0
C885 C 0.19403 0.85091 0.08243 0.0
C886 C 0.97861 0.69984 0.04164 0.0
C887 C 0.00899 0.71754 0.03769 0.0
C888 C 0.04479 0.7497 0.06919 0.0
C889 C 0.06719 0.7495 0.08136 0.0
C890 C 0.09019 0.77396 0.09003 0.0
C891 C 0.09001 0.79904 0.08784 0.0
C892 C 0.06782 0.79948 0.07439 0.0
C893 C 0.04536 0.77468 0.06503 0.0
C894 C 0.11399 0.77276 0.10312 0.0
C895 C 0.06702 0.82585 0.0718 0.0
C896 C 0.02407 0.76152 0.25015 0.0
C897 C 0.0432 0.75424 0.24146 0.0
C898 C 0.06907 0.77432 0.234 0.0
C899 C 0.07559 0.80216 0.23392 0.0
C900 C 0.05666 0.80964 0.24325 0.0
C901 C 0.03124 0.78921 0.25149 0.0
C902 C 0.0891 0.76558 0.22527 0.0
C903 C 0.06296 0.83912 0.24369 0.0
C904 C 0.27297 0.96871 0.26599 0.0
C905 C 0.25884 0.954 0.29204 0.0
C906 C 0.22046 0.91031 0.27419 0.0
C907 C 0.2117 0.88248 0.26982 0.0
C908 C 0.18742 0.8653 0.25505 0.0
C909 C 0.17129 0.87626 0.24478 0.0
C910 C 0.17927 0.9041 0.2504 0.0
C911 C 0.20396 0.92098 0.26477 0.0
C912 C 0.17946 0.83565 0.24965 0.0
C913 C 0.16214 0.91624 0.24041 0.0
C914 C 0.15488 0.86327 0.10928 0.0
C915 C 0.13347 0.84306 0.09283 0.0
C916 C 0.11008 0.82305 0.10481 0.0
C917 C 0.10706 0.82415 0.13358 0.0
C918 C 0.08265 0.80603 0.14579 0.0
C919 C 0.08023 0.8062 0.17422 0.0
C920 C 0.10241 0.82383 0.19171 0.0
C921 C 0.10066 0.82272 0.22081 0.0
C922 C 0.12316 0.84044 0.23762 0.0
C923 C 0.14753 0.85924 0.22604 0.0
C924 C 0.14957 0.86068 0.19693 0.0
C925 C 0.17378 0.8792 0.18453 0.0
C926 C 0.17555 0.88032 0.15588 0.0
C927 C 0.15335 0.86259 0.13848 0.0
C928 C 0.12906 0.84334 0.15058 0.0
C929 C 0.12696 0.84277 0.17977 0.0
C930 C 0.95623 0.70231 0.25498 0.0
C931 C 0.98699 0.71449 0.2575 0.0
O932 O 0.24323 0.94532 0.05262 0.0
O933 O 0.24506 0.9259 0.28713 0.0
O934 O 0.99885 0.74285 0.25806 0.0
O935 O 0.02222 0.72544 0.06334 0.0
H936 H 0.251 0.9827 0.069 0.0
H937 H 0.22978 0.96407 0.00819 0.0
H938 H 0.23743 0.99655 0.02423 0.0
H939 H 0.21012 0.96525 0.03609 0.0
H940 H 0.2076 0.95323 0.08183 0.0
H941 H 0.23236 0.89532 0.05716 0.0
H942 H 0.14153 0.90321 0.10339 0.0
H943 H 0.16533 0.93925 0.10085 0.0
H944 H 0.16632 0.92108 0.13078 0.0
H945 H 0.18941 0.84259 0.10351 0.0
H946 H 0.2126 0.85093 0.07575 0.0
H947 H 0.17696 0.83689 0.06821 0.0
H948 H 0.01195 0.73555 0.02568 0.0
H949 H 0.96732 0.69405 0.02134 0.0
H950 H 0.97126 0.71151 0.05406 0.0
H951 H 0.97426 0.68091 0.05267 0.0
H952 H 0.06651 0.73003 0.08429 0.0
H953 H 0.02771 0.77464 0.05593 0.0
H954 H 0.11376 0.77491 0.12594 0.0
H955 H 0.13331 0.78986 0.09608 0.0
H956 H 0.11336 0.75305 0.09809 0.0
H957 H 0.04962 0.82322 0.05849 0.0
H958 H 0.08608 0.84181 0.06306 0.0
H959 H 0.06544 0.83334 0.09265 0.0
H960 H 0.99285 0.70718 0.23882 0.0
H961 H 0.03824 0.733 0.24034 0.0
H962 H 0.01656 0.79474 0.25856 0.0
H963 H 0.08976 0.76544 0.20237 0.0
H964 H 0.08346 0.74471 0.23227 0.0
H965 H 0.10975 0.7802 0.23369 0.0
H966 H 0.04593 0.84154 0.25124 0.0
H967 H 0.06763 0.8473 0.22256 0.0
H968 H 0.08116 0.85168 0.25728 0.0
H969 H 0.24473 0.96119 0.29869 0.0
H970 H 0.25782 0.96424 0.2489 0.0
H971 H 0.28729 0.96181 0.25929 0.0
H972 H 0.2843 0.99124 0.27001 0.0
H973 H 0.22443 0.87441 0.27742 0.0
H974 H 0.21027 0.94243 0.26808 0.0
H975 H 0.17695 0.831 0.22703 0.0
H976 H 0.1597 0.82221 0.25891 0.0
H977 H 0.19466 0.83052 0.25838 0.0
H978 H 0.16883 0.93677 0.25008 0.0
H979 H 0.14058 0.90246 0.24497 0.0
H980 H 0.16345 0.91835 0.21765 0.0
H981 H 0.13517 0.84263 0.07058 0.0
H982 H 0.065 0.79157 0.13351 0.0
H983 H 0.06083 0.79191 0.18227 0.0
H984 H 0.12187 0.83922 0.25993 0.0
H985 H 0.19169 0.89311 0.19681 0.0
H986 H 0.19468 0.89494 0.14754 0.0
H987 H 0.94602 0.67956 0.25343 0.0
H988 H 0.95072 0.70966 0.23599 0.0
H989 H 0.94879 0.70863 0.27314 0.0
C990 C 0.29141 0.07758 0.01139 0.0
C991 C 0.30764 0.07584 0.98743 0.0
C992 C 0.32223 0.11693 0.95959 0.0
C993 C 0.29656 0.11029 0.9484 0.0
C994 C 0.29382 0.12611 0.92762 0.0
C995 C 0.31723 0.14862 0.91746 0.0
C996 C 0.34301 0.15578 0.92923 0.0
C997 C 0.3451 0.13994 0.95034 0.0
C998 C 0.26595 0.11846 0.91614 0.0
C999 C 0.36841 0.1797 0.919 0.0
C1000 C 0.32185 0.34833 0.90155 0.0
C1001 C 0.31821 0.32087 0.91107 0.0
C1002 C 0.32523 0.28509 0.88943 0.0
C1003 C 0.34634 0.28183 0.87946 0.0
C1004 C 0.34399 0.25582 0.87668 0.0
C1005 C 0.31921 0.23228 0.88251 0.0
C1006 C 0.29772 0.23541 0.89272 0.0
C1007 C 0.30106 0.26183 0.89641 0.0
C1008 C 0.36801 0.2536 0.86733 0.0
C1009 C 0.27101 0.21083 0.89912 0.0
C1010 C 0.30354 0.21535 0.70259 0.0
C1011 C 0.32637 0.21254 0.70746 0.0
C1012 C 0.32649 0.19475 0.72746 0.0
C1013 C 0.30279 0.1788 0.74218 0.0
C1014 C 0.27879 0.17954 0.73528 0.0
C1015 C 0.27949 0.19807 0.7157 0.0
C1016 C 0.35225 0.19391 0.73368 0.0
C1017 C 0.25271 0.16156 0.74933 0.0
C1018 C 0.28717 0.97906 0.74564 0.0
C1019 C 0.29414 0.0078 0.73679 0.0
C1020 C 0.30684 0.04919 0.76433 0.0
C1021 C 0.33094 0.07377 0.76917 0.0
C1022 C 0.33069 0.09824 0.77469 0.0
C1023 C 0.30563 0.09773 0.77651 0.0
C1024 C 0.28113 0.07275 0.77227 0.0
C1025 C 0.282 0.04867 0.76618 0.0
C1026 C 0.35719 0.12466 0.77835 0.0
C1027 C 0.25411 0.07152 0.77443 0.0
C1028 C 0.31497 0.16363 0.89339 0.0
C1029 C 0.3163 0.18893 0.89822 0.0
C1030 C 0.31536 0.2045 0.8763 0.0
C1031 C 0.31199 0.19412 0.84879 0.0
C1032 C 0.31005 0.20877 0.82629 0.0
C1033 C 0.30762 0.19885 0.79929 0.0
C1034 C 0.3064 0.17358 0.79369 0.0
C1035 C 0.3038 0.16324 0.76627 0.0
C1036 C 0.30301 0.13825 0.76142 0.0
C1037 C 0.30509 0.1233 0.78327 0.0
C1038 C 0.30737 0.13308 0.81084 0.0
C1039 C 0.3092 0.11834 0.8333 0.0
C1040 C 0.31177 0.12832 0.86032 0.0
C1041 C 0.31242 0.15334 0.86598 0.0
C1042 C 0.3107 0.16855 0.84364 0.0
C1043 C 0.30803 0.15833 0.81605 0.0
C1044 C 0.27219 0.24433 0.66553 0.0
C1045 C 0.29319 0.25101 0.68915 0.0
O1046 O 0.32598 0.10199 0.97936 0.0
O1047 O 0.3082 0.02623 0.75845 0.0
O1048 O 0.30548 0.23515 0.68549 0.0
O1049 O 0.32897 0.31093 0.89161 0.0
H1050 H 0.29341 0.06351 0.97004 0.0
H1051 H 0.30511 0.08903 0.02941 0.0
H1052 H 0.27642 0.0567 0.01782 0.0
H1053 H 0.28025 0.08835 0.00503 0.0
H1054 H 0.27858 0.09289 0.95574 0.0
H1055 H 0.36477 0.14507 0.95932 0.0
H1056 H 0.26354 0.13693 0.9151 0.0
H1057 H 0.24971 0.10299 0.92878 0.0
H1058 H 0.26332 0.10986 0.89477 0.0
H1059 H 0.38697 0.18223 0.92995 0.0
H1060 H 0.36744 0.19887 0.92193 0.0
H1061 H 0.36995 0.17682 0.8965 0.0
H1062 H 0.29616 0.30687 0.91277 0.0
H1063 H 0.31305 0.3567 0.91652 0.0
H1064 H 0.31131 0.3455 0.8811 0.0
H1065 H 0.34366 0.36339 0.89958 0.0
H1066 H 0.36499 0.29991 0.87438 0.0
H1067 H 0.28441 0.26397 0.90387 0.0
H1068 H 0.36497 0.24726 0.84512 0.0
H1069 H 0.37021 0.23792 0.87916 0.0
H1070 H 0.38713 0.27346 0.86989 0.0
H1071 H 0.25557 0.2166 0.90467 0.0
H1072 H 0.27399 0.19993 0.91668 0.0
H1073 H 0.26314 0.19629 0.88102 0.0
H1074 H 0.28268 0.24681 0.70906 0.0
H1075 H 0.34457 0.2253 0.69655 0.0
H1076 H 0.26135 0.19922 0.71089 0.0
H1077 H 0.35843 0.19926 0.75586 0.0
H1078 H 0.36915 0.20821 0.72089 0.0
H1079 H 0.34871 0.17283 0.72974 0.0
H1080 H 0.23498 0.16066 0.73805 0.0
H1081 H 0.25385 0.16985 0.77058 0.0
H1082 H 0.24947 0.14043 0.75105 0.0
H1083 H 0.27487 0.0075 0.7313 0.0
H1084 H 0.27472 0.97367 0.76426 0.0
H1085 H 0.30589 0.9781 0.75068 0.0
H1086 H 0.27534 0.96367 0.72889 0.0
H1087 H 0.34997 0.07381 0.7678 0.0
H1088 H 0.26331 0.02941 0.76341 0.0
H1089 H 0.35922 0.13316 0.79968 0.0
H1090 H 0.35753 0.14001 0.76384 0.0
H1091 H 0.37487 0.1218 0.77464 0.0
H1092 H 0.23689 0.05033 0.77145 0.0
H1093 H 0.25211 0.08463 0.75858 0.0
H1094 H 0.25285 0.07972 0.79502 0.0
H1095 H 0.31853 0.19675 0.91929 0.0
H1096 H 0.31052 0.22817 0.82924 0.0
H1097 H 0.30667 0.21133 0.78289 0.0
H1098 H 0.30116 0.13056 0.74033 0.0
H1099 H 0.30871 0.09893 0.83025 0.0
H1100 H 0.31326 0.11613 0.87672 0.0
H1101 H 0.26087 0.25555 0.66881 0.0
H1102 H 0.25744 0.22203 0.66477 0.0
H1103 H 0.28217 0.24999 0.64539 0.0
C1104 C 0.71525 0.00112 0.93655 0.0
C1105 C 0.71645 0.02359 0.95589 0.0
C1106 C 0.7401 0.0681 0.93373 0.0
C1107 C 0.7369 0.08994 0.92476 0.0
C1108 C 0.75921 0.11474 0.91753 0.0
C1109 C 0.78534 0.11747 0.91875 0.0
C1110 C 0.78875 0.09532 0.9274 0.0
C1111 C 0.7661 0.07086 0.93491 0.0
C1112 C 0.75486 0.13804 0.90861 0.0
C1113 C 0.8163 0.09744 0.92846 0.0
C1114 C 0.94176 0.26116 0.05906 0.0
C1115 C 0.93626 0.25331 0.02827 0.0
C1116 C 0.89553 0.23176 0.99766 0.0
C1117 C 0.90539 0.22022 0.97833 0.0
C1118 C 0.89001 0.2064 0.95433 0.0
C1119 C 0.86471 0.20505 0.94896 0.0
C1120 C 0.85528 0.21764 0.96787 0.0
C1121 C 0.87064 0.23043 0.99219 0.0
C1122 C 0.90052 0.19245 0.93529 0.0
C1123 C 0.82872 0.21716 0.96274 0.0
C1124 C 0.93273 0.28983 0.78139 0.0
C1125 C 0.94084 0.27386 0.79688 0.0
C1126 C 0.92156 0.24902 0.80795 0.0
C1127 C 0.89368 0.24052 0.80433 0.0
C1128 C 0.88563 0.25744 0.79017 0.0
C1129 C 0.90527 0.28171 0.77868 0.0
C1130 C 0.93101 0.23141 0.82255 0.0
C1131 C 0.85622 0.24964 0.78646 0.0
C1132 C 0.74905 0.0384 0.76814 0.0
C1133 C 0.74844 0.05678 0.74532 0.0
C1134 C 0.79215 0.09683 0.74605 0.0
C1135 C 0.81486 0.09952 0.76069 0.0
C1136 C 0.83203 0.1236 0.77598 0.0
C1137 C 0.82562 0.145 0.77737 0.0
C1138 C 0.80365 0.14305 0.76104 0.0
C1139 C 0.78724 0.11896 0.7453 0.0
C1140 C 0.85577 0.12522 0.79237 0.0
C1141 C 0.79651 0.16564 0.76163 0.0
C1142 C 0.80902 0.14347 0.9107 0.0
C1143 C 0.82497 0.16236 0.9316 0.0
C1144 C 0.84688 0.18778 0.92542 0.0
C1145 C 0.85247 0.19502 0.89748 0.0
C1146 C 0.87261 0.22129 0.89029 0.0
C1147 C 0.87866 0.22767 0.86268 0.0
C1148 C 0.86552 0.20769 0.84137 0.0
C1149 C 0.87276 0.21316 0.81341 0.0
C1150 C 0.85955 0.19242 0.79297 0.0
C1151 C 0.83859 0.16661 0.7995 0.0
C1152 C 0.83043 0.16111 0.82711 0.0
C1153 C 0.80863 0.13567 0.83416 0.0
C1154 C 0.80135 0.12999 0.86145 0.0
C1155 C 0.81573 0.14941 0.8828 0.0
C1156 C 0.83745 0.17534 0.87616 0.0
C1157 C 0.84445 0.18142 0.84818 0.0
C1158 C 0.99371 0.34338 0.78952 0.0
C1159 C 0.97784 0.32326 0.76556 0.0
O1160 O 0.71757 0.04482 0.94068 0.0
O1161 O 0.77383 0.07206 0.7348 0.0
O1162 O 0.95038 0.31301 0.76857 0.0
O1163 O 0.90918 0.24416 0.02182 0.0
H1164 H 0.73442 0.031 0.97031 0.0
H1165 H 0.73399 0.00921 0.9247 0.0
H1166 H 0.69773 0.99361 0.92156 0.0
H1167 H 0.71343 0.98364 0.94871 0.0
H1168 H 0.71677 0.08758 0.92377 0.0
H1169 H 0.76888 0.05397 0.94132 0.0
H1170 H 0.76845 0.15692 0.92106 0.0
H1171 H 0.73361 0.13337 0.91085 0.0
H1172 H 0.76007 0.14237 0.88662 0.0
H1173 H 0.81535 0.07781 0.93394 0.0
H1174 H 0.82963 0.11349 0.94403 0.0
H1175 H 0.82574 0.1037 0.9081 0.0
H1176 H 0.94154 0.2369 0.02469 0.0
H1177 H 0.92888 0.24306 0.07147 0.0
H1178 H 0.93713 0.27777 0.0642 0.0
H1179 H 0.9633 0.26822 0.06492 0.0
H1180 H 0.92469 0.22118 0.98213 0.0
H1181 H 0.86328 0.23958 0.0071 0.0
H1182 H 0.88441 0.1712 0.92982 0.0
H1183 H 0.91818 0.19166 0.94468 0.0
H1184 H 0.90691 0.20384 0.91585 0.0
H1185 H 0.82717 0.2327 0.97588 0.0
H1186 H 0.81184 0.19663 0.96758 0.0
H1187 H 0.82613 0.22091 0.94068 0.0
H1188 H 0.98298 0.3069 0.76581 0.0
H1189 H 0.96206 0.28027 0.80008 0.0
H1190 H 0.8992 0.29434 0.7671 0.0
H1191 H 0.92369 0.22754 0.84389 0.0
H1192 H 0.9534 0.2411 0.82384 0.0
H1193 H 0.92251 0.21123 0.81147 0.0
H1194 H 0.85374 0.26735 0.78041 0.0
H1195 H 0.84534 0.24129 0.80579 0.0
H1196 H 0.84658 0.23347 0.76994 0.0
H1197 H 0.74218 0.07075 0.75529 0.0
H1198 H 0.72867 0.02646 0.7768 0.0
H1199 H 0.76344 0.05119 0.78517 0.0
H1200 H 0.75546 0.02399 0.76033 0.0
H1201 H 0.81814 0.08212 0.76163 0.0
H1202 H 0.76972 0.11673 0.73355 0.0
H1203 H 0.8504 0.12095 0.81433 0.0
H1204 H 0.87361 0.14607 0.7916 0.0
H1205 H 0.86139 0.11003 0.78456 0.0
H1206 H 0.77891 0.16105 0.74758 0.0
H1207 H 0.81414 0.18507 0.75543 0.0
H1208 H 0.79174 0.16886 0.783 0.0
H1209 H 0.82048 0.15702 0.95304 0.0
H1210 H 0.88385 0.23716 0.90597 0.0
H1211 H 0.89428 0.24824 0.85832 0.0
H1212 H 0.86553 0.19649 0.77168 0.0
H1213 H 0.79688 0.11975 0.8187 0.0
H1214 H 0.78458 0.10998 0.86562 0.0
H1215 H 0.0158 0.35182 0.7872 0.0
H1216 H 0.98814 0.33271 0.80945 0.0
H1217 H 0.98919 0.36055 0.79024 0.0
C1218 C 0.76522 0.6853 0.02272 0.0
C1219 C 0.74974 0.67192 0.99547 0.0
C1220 C 0.77685 0.6613 0.96394 0.0
C1221 C 0.79456 0.68826 0.95617 0.0
C1222 C 0.81223 0.69331 0.93449 0.0
C1223 C 0.81226 0.67102 0.92047 0.0
C1224 C 0.79491 0.64394 0.92871 0.0
C1225 C 0.77752 0.63949 0.95046 0.0
C1226 C 0.83079 0.72243 0.92639 0.0
C1227 C 0.79457 0.6197 0.91436 0.0
C1228 C 0.0193 0.72398 0.89235 0.0
C1229 C 0.99781 0.70833 0.91344 0.0
C1230 C 0.9505 0.68771 0.89652 0.0
C1231 C 0.9273 0.66222 0.89224 0.0
C1232 C 0.90177 0.66002 0.88824 0.0
C1233 C 0.89954 0.68406 0.88816 0.0
C1234 C 0.92294 0.70999 0.89248 0.0
C1235 C 0.94827 0.7116 0.89646 0.0
C1236 C 0.87725 0.63205 0.88349 0.0
C1237 C 0.92123 0.73601 0.89207 0.0
C1238 C 0.89066 0.68239 0.70704 0.0
C1239 C 0.86694 0.65819 0.7121 0.0
C1240 C 0.84926 0.6575 0.7321 0.0
C1241 C 0.85499 0.68202 0.74653 0.0
C1242 C 0.87779 0.70709 0.7397 0.0
C1243 C 0.89565 0.70695 0.72027 0.0
C1244 C 0.82482 0.63041 0.73813 0.0
C1245 C 0.88373 0.73388 0.75348 0.0
C1246 C 0.66922 0.6773 0.74617 0.0
C1247 C 0.68595 0.6678 0.72987 0.0
C1248 C 0.71607 0.65706 0.75744 0.0
C1249 C 0.72166 0.63572 0.76149 0.0
C1250 C 0.74715 0.64096 0.77162 0.0
C1251 C 0.76744 0.66829 0.77796 0.0
C1252 C 0.76143 0.68985 0.77544 0.0
C1253 C 0.73569 0.684 0.76535 0.0
C1254 C 0.75256 0.61735 0.77502 0.0
C1255 C 0.78225 0.71902 0.78331 0.0
C1256 C 0.83014 0.67587 0.89695 0.0
C1257 C 0.85586 0.6791 0.90255 0.0
C1258 C 0.87307 0.68214 0.88116 0.0
C1259 C 0.86466 0.68218 0.85343 0.0
C1260 C 0.88134 0.68465 0.83145 0.0
C1261 C 0.87273 0.68411 0.80421 0.0
C1262 C 0.84726 0.68153 0.79783 0.0
C1263 C 0.83835 0.68097 0.77013 0.0
C1264 C 0.81262 0.67757 0.76451 0.0
C1265 C 0.79524 0.6743 0.78585 0.0
C1266 C 0.80392 0.67523 0.81369 0.0
C1267 C 0.78699 0.67216 0.83563 0.0
C1268 C 0.79559 0.67261 0.86294 0.0
C1269 C 0.8214 0.676 0.86933 0.0
C1270 C 0.83878 0.67921 0.84751 0.0
C1271 C 0.83006 0.6789 0.81967 0.0
C1272 C 0.94664 0.71693 0.66836 0.0
C1273 C 0.93615 0.6964 0.69165 0.0
O1274 O 0.75908 0.65531 0.98445 0.0
O1275 O 0.69158 0.6508 0.74591 0.0
O1276 O 0.90817 0.68127 0.68925 0.0
O1277 O 0.97458 0.68828 0.89977 0.0
H1278 H 0.75232 0.68831 0.98113 0.0
H1279 H 0.76245 0.66942 0.03781 0.0
H1280 H 0.75799 0.69879 0.03172 0.0
H1281 H 0.78715 0.69801 0.01906 0.0
H1282 H 0.79491 0.70542 0.96704 0.0
H1283 H 0.76401 0.61881 0.95682 0.0
H1284 H 0.85214 0.72693 0.92804 0.0
H1285 H 0.82862 0.73759 0.93954 0.0
H1286 H 0.82636 0.72499 0.90449 0.0
H1287 H 0.77987 0.59992 0.92327 0.0
H1288 H 0.81504 0.6218 0.916 0.0
H1289 H 0.78926 0.61922 0.89203 0.0
H1290 H 0.99389 0.723 0.92541 0.0
H1291 H 0.03787 0.74071 0.9028 0.0
H1292 H 0.01147 0.73332 0.87715 0.0
H1293 H 0.02454 0.70994 0.88103 0.0
H1294 H 0.9293 0.64396 0.89206 0.0
H1295 H 0.96622 0.73153 0.89874 0.0
H1296 H 0.86819 0.63063 0.86249 0.0
H1297 H 0.86172 0.62897 0.89863 0.0
H1298 H 0.88223 0.61528 0.88539 0.0
H1299 H 0.94103 0.75449 0.89727 0.0
H1300 H 0.90623 0.73487 0.90702 0.0
H1301 H 0.9141 0.73828 0.87119 0.0
H1302 H 0.94292 0.70797 0.71182 0.0
H1303 H 0.86282 0.63951 0.70114 0.0
H1304 H 0.91343 0.72599 0.71546 0.0
H1305 H 0.82324 0.62723 0.76076 0.0
H1306 H 0.82541 0.61283 0.72797 0.0
H1307 H 0.80632 0.63055 0.73042 0.0
H1308 H 0.89859 0.75177 0.742 0.0
H1309 H 0.89224 0.73524 0.77472 0.0
H1310 H 0.86487 0.73508 0.75517 0.0
H1311 H 0.70467 0.68592 0.72451 0.0
H1312 H 0.68068 0.68867 0.76533 0.0
H1313 H 0.64981 0.65947 0.75201 0.0
H1314 H 0.66487 0.69125 0.73362 0.0
H1315 H 0.70616 0.61495 0.75591 0.0
H1316 H 0.73106 0.7005 0.76361 0.0
H1317 H 0.76117 0.61818 0.79612 0.0
H1318 H 0.76771 0.61902 0.76005 0.0
H1319 H 0.73398 0.59716 0.77154 0.0
H1320 H 0.77473 0.73363 0.77928 0.0
H1321 H 0.80085 0.72528 0.7716 0.0
H1322 H 0.78799 0.72046 0.80563 0.0
H1323 H 0.86233 0.67871 0.92375 0.0
H1324 H 0.90121 0.68683 0.83499 0.0
H1325 H 0.88638 0.68571 0.78825 0.0
H1326 H 0.80572 0.67668 0.7432 0.0
H1327 H 0.76688 0.66934 0.83192 0.0
H1328 H 0.78169 0.67013 0.87897 0.0
H1329 H 0.96895 0.73019 0.67066 0.0
H1330 H 0.93733 0.73031 0.66918 0.0
H1331 H 0.94137 0.706 0.64788 0.0
C1332 C 0.93885 0.58249 0.37259 0.0
C1333 C 0.93165 0.60539 0.37143 0.0
C1334 C 0.91194 0.61602 0.41062 0.0
C1335 C 0.91731 0.63956 0.42588 0.0
C1336 C 0.89667 0.64128 0.43949 0.0
C1337 C 0.87024 0.61832 0.43873 0.0
C1338 C 0.8648 0.59422 0.42363 0.0
C1339 C 0.88573 0.59338 0.40955 0.0
C1340 C 0.90319 0.66764 0.45468 0.0
C1341 C 0.83701 0.56924 0.4227 0.0
C1342 C 0.71592 0.61166 0.35011 0.0
C1343 C 0.71409 0.62988 0.37298 0.0
C1344 C 0.75538 0.64202 0.40153 0.0
C1345 C 0.74689 0.61582 0.41189 0.0
C1346 C 0.76457 0.6107 0.42834 0.0
C1347 C 0.79091 0.6324 0.43531 0.0
C1348 C 0.79918 0.65896 0.4256 0.0
C1349 C 0.78132 0.66333 0.40867 0.0
C1350 C 0.75518 0.58204 0.43808 0.0
C1351 C 0.82693 0.6827 0.43298 0.0
C1352 C 0.74493 0.63414 0.60848 0.0
C1353 C 0.73891 0.60761 0.59983 0.0
C1354 C 0.75872 0.60302 0.58797 0.0
C1355 C 0.78505 0.62533 0.58474 0.0
C1356 C 0.79147 0.65179 0.59459 0.0
C1357 C 0.77132 0.6558 0.60641 0.0
C1358 C 0.75135 0.57444 0.57815 0.0
C1359 C 0.81942 0.67598 0.59185 0.0
C1360 C 0.95321 0.58282 0.63795 0.0
C1361 C 0.94381 0.60345 0.63123 0.0
C1362 C 0.89974 0.59672 0.61632 0.0
C1363 C 0.87489 0.57501 0.60677 0.0
C1364 C 0.85593 0.57981 0.59239 0.0
C1365 C 0.8622 0.60707 0.58732 0.0
C1366 C 0.88744 0.62916 0.59679 0.0
C1367 C 0.90604 0.62374 0.6111 0.0
C1368 C 0.82915 0.55581 0.58275 0.0
C1369 C 0.89464 0.65846 0.59193 0.0
C1370 C 0.84848 0.61951 0.45407 0.0
C1371 C 0.82985 0.62426 0.43917 0.0
C1372 C 0.80992 0.62732 0.45254 0.0
C1373 C 0.80863 0.62597 0.48166 0.0
C1374 C 0.78954 0.63003 0.49587 0.0
C1375 C 0.78837 0.62852 0.52452 0.0
C1376 C 0.80629 0.62297 0.54012 0.0
C1377 C 0.80524 0.62138 0.56928 0.0
C1378 C 0.82363 0.61615 0.58414 0.0
C1379 C 0.84308 0.61238 0.57058 0.0
C1380 C 0.84427 0.61369 0.54146 0.0
C1381 C 0.86345 0.60977 0.52724 0.0
C1382 C 0.86469 0.61137 0.49864 0.0
C1383 C 0.84689 0.61711 0.48311 0.0
C1384 C 0.82707 0.62064 0.49696 0.0
C1385 C 0.82584 0.61905 0.5262 0.0
C1386 C 0.68613 0.61877 0.58855 0.0
C1387 C 0.69818 0.6231 0.61815 0.0
O1388 O 0.93268 0.61546 0.39797 0.0
O1389 O 0.91608 0.59107 0.63264 0.0
O1390 O 0.72605 0.63996 0.61845 0.0
O1391 O 0.7396 0.64775 0.38436 0.0
H1392 H 0.91117 0.59706 0.36132 0.0
H1393 H 0.92372 0.56536 0.38469 0.0
H1394 H 0.9592 0.59002 0.38264 0.0
H1395 H 0.93866 0.57452 0.35138 0.0
H1396 H 0.93771 0.65684 0.42667 0.0
H1397 H 0.88179 0.57489 0.39827 0.0
H1398 H 0.88771 0.67365 0.44944 0.0
H1399 H 0.92343 0.68472 0.44972 0.0
H1400 H 0.90294 0.66458 0.4773 0.0
H1401 H 0.83663 0.55137 0.41206 0.0
H1402 H 0.82251 0.57399 0.41161 0.0
H1403 H 0.82991 0.56356 0.44402 0.0
H1404 H 0.70039 0.61677 0.38908 0.0
H1405 H 0.72419 0.59886 0.35847 0.0
H1406 H 0.72933 0.62443 0.33368 0.0
H1407 H 0.69551 0.59764 0.34069 0.0
H1408 H 0.72667 0.59922 0.40705 0.0
H1409 H 0.78762 0.6835 0.40074 0.0
H1410 H 0.77027 0.57559 0.4332 0.0
H1411 H 0.73527 0.56689 0.42847 0.0
H1412 H 0.75339 0.5817 0.46087 0.0
H1413 H 0.82922 0.70256 0.42617 0.0
H1414 H 0.84247 0.67933 0.42299 0.0
H1415 H 0.83098 0.68401 0.45568 0.0
H1416 H 0.69308 0.60302 0.62709 0.0
H1417 H 0.71878 0.59047 0.60186 0.0
H1418 H 0.77591 0.67612 0.61347 0.0
H1419 H 0.7523 0.57383 0.55529 0.0
H1420 H 0.73072 0.55892 0.58407 0.0
H1421 H 0.76617 0.5688 0.58691 0.0
H1422 H 0.82139 0.69513 0.60115 0.0
H1423 H 0.82418 0.67923 0.56964 0.0
H1424 H 0.83465 0.67173 0.60207 0.0
H1425 H 0.94935 0.60925 0.60942 0.0
H1426 H 0.97533 0.59214 0.63517 0.0
H1427 H 0.94261 0.56455 0.62379 0.0
H1428 H 0.94887 0.57602 0.65948 0.0
H1429 H 0.87019 0.55425 0.61113 0.0
H1430 H 0.92503 0.64064 0.61896 0.0
H1431 H 0.82708 0.5555 0.55985 0.0
H1432 H 0.81235 0.55807 0.59124 0.0
H1433 H 0.82701 0.53591 0.58921 0.0
H1434 H 0.91483 0.67337 0.60118 0.0
H1435 H 0.87919 0.66262 0.60092 0.0
H1436 H 0.89458 0.66179 0.56937 0.0
H1437 H 0.83107 0.62593 0.41687 0.0
H1438 H 0.77529 0.63446 0.485 0.0
H1439 H 0.77322 0.63182 0.53426 0.0
H1440 H 0.82282 0.61504 0.60648 0.0
H1441 H 0.87781 0.60546 0.53805 0.0
H1442 H 0.87983 0.6081 0.48886 0.0
H1443 H 0.66374 0.60589 0.5885 0.0
H1444 H 0.69396 0.60817 0.57525 0.0
H1445 H 0.69138 0.63877 0.57935 0.0
C1446 C 0.28166 0.25856 0.36098 0.0
C1447 C 0.29584 0.28181 0.38286 0.0
C1448 C 0.32425 0.267 0.40842 0.0
C1449 C 0.30304 0.24567 0.4223 0.0
C1450 C 0.30779 0.22809 0.43894 0.0
C1451 C 0.33426 0.23186 0.44189 0.0
C1452 C 0.35571 0.2534 0.42823 0.0
C1453 C 0.35041 0.27077 0.41172 0.0
C1454 C 0.28442 0.20533 0.45333 0.0
C1455 C 0.38416 0.25801 0.43111 0.0
C1456 C 0.3699 0.09241 0.3733 0.0
C1457 C 0.35004 0.07267 0.39391 0.0
C1458 C 0.33243 0.10036 0.41619 0.0
C1459 C 0.35661 0.11923 0.43032 0.0
C1460 C 0.35819 0.14148 0.44563 0.0
C1461 C 0.33483 0.14431 0.44774 0.0
C1462 C 0.31018 0.12464 0.43449 0.0
C1463 C 0.30944 0.10312 0.41866 0.0
C1464 C 0.38501 0.16223 0.45905 0.0
C1465 C 0.28467 0.1265 0.43668 0.0
C1466 C 0.33325 0.10949 0.62201 0.0
C1467 C 0.35857 0.127 0.61103 0.0
C1468 C 0.36394 0.15183 0.59932 0.0
C1469 C 0.34324 0.1589 0.59755 0.0
C1470 C 0.31841 0.14234 0.61029 0.0
C1471 C 0.3139 0.11799 0.6227 0.0
C1472 C 0.39133 0.16986 0.58763 0.0
C1473 C 0.29619 0.14972 0.60964 0.0
C1474 C 0.40832 0.37687 0.64183 0.0
C1475 C 0.3849 0.34839 0.63383 0.0
C1476 C 0.38436 0.30727 0.61615 0.0
C1477 C 0.40264 0.30037 0.60487 0.0
C1478 C 0.39368 0.27487 0.59147 0.0
C1479 C 0.36563 0.25596 0.58912 0.0
C1480 C 0.34691 0.26331 0.59941 0.0
C1481 C 0.35647 0.28897 0.61283 0.0
C1482 C 0.41424 0.26778 0.5807 0.0
C1483 C 0.31688 0.2437 0.5971 0.0
C1484 C 0.33911 0.21304 0.45933 0.0
C1485 C 0.33665 0.18928 0.44679 0.0
C1486 C 0.33654 0.16853 0.46261 0.0
C1487 C 0.33816 0.1712 0.49182 0.0
C1488 C 0.33521 0.14966 0.50852 0.0
C1489 C 0.33718 0.1527 0.53722 0.0
C1490 C 0.34305 0.17771 0.55034 0.0
C1491 C 0.34632 0.18146 0.57949 0.0
C1492 C 0.35311 0.20696 0.59164 0.0
C1493 C 0.35608 0.22872 0.57542 0.0
C1494 C 0.35155 0.22489 0.54645 0.0
C1495 C 0.3529 0.24586 0.52976 0.0
C1496 C 0.34845 0.24191 0.50126 0.0
C1497 C 0.34347 0.21721 0.48827 0.0
C1498 C 0.34252 0.196 0.50462 0.0
C1499 C 0.34567 0.19952 0.53384 0.0
C1500 C 0.3329 0.06082 0.59272 0.0
C1501 C 0.33845 0.0687 0.62374 0.0
O1502 O 0.32038 0.28409 0.39152 0.0
O1503 O 0.39432 0.32997 0.63297 0.0
O1504 O 0.3265 0.08413 0.6313 0.0
O1505 O 0.3303 0.07956 0.39958 0.0
H1506 H 0.28267 0.27785 0.40076 0.0
H1507 H 0.27924 0.23904 0.36891 0.0
H1508 H 0.29357 0.26343 0.34198 0.0
H1509 H 0.26113 0.25526 0.35564 0.0
H1510 H 0.28267 0.2424 0.4202 0.0
H1511 H 0.36668 0.28728 0.40104 0.0
H1512 H 0.28245 0.18525 0.44719 0.0
H1513 H 0.2649 0.2047 0.44842 0.0
H1514 H 0.28838 0.20808 0.47606 0.0
H1515 H 0.39873 0.27595 0.41949 0.0
H1516 H 0.38461 0.23949 0.42341 0.0
H1517 H 0.39084 0.26126 0.45328 0.0
H1518 H 0.36111 0.07288 0.41331 0.0
H1519 H 0.38096 0.11362 0.38213 0.0
H1520 H 0.35897 0.09255 0.35395 0.0
H1521 H 0.38507 0.08614 0.36813 0.0
H1522 H 0.37448 0.1171 0.42914 0.0
H1523 H 0.2908 0.08835 0.40789 0.0
H1524 H 0.38952 0.18338 0.45436 0.0
H1525 H 0.40196 0.15936 0.45207 0.0
H1526 H 0.38405 0.16026 0.48183 0.0
H1527 H 0.26638 0.10711 0.42976 0.0
H1528 H 0.28605 0.14316 0.42349 0.0
H1529 H 0.2822 0.13153 0.4583 0.0
H1530 H 0.36057 0.08047 0.62759 0.0
H1531 H 0.37421 0.12132 0.61107 0.0
H1532 H 0.29465 0.10474 0.63176 0.0
H1533 H 0.38976 0.16733 0.56476 0.0
H1534 H 0.40668 0.16455 0.59549 0.0
H1535 H 0.39844 0.19176 0.59286 0.0
H1536 H 0.27808 0.13474 0.62057 0.0
H1537 H 0.29009 0.15066 0.58787 0.0
H1538 H 0.30377 0.17034 0.61947 0.0
H1539 H 0.37778 0.34995 0.61258 0.0
H1540 H 0.40145 0.3923 0.64082 0.0
H1541 H 0.42492 0.38268 0.62724 0.0
H1542 H 0.41642 0.37744 0.66302 0.0
H1543 H 0.42412 0.31463 0.60769 0.0
H1544 H 0.34219 0.294 0.62186 0.0
H1545 H 0.41044 0.26281 0.55818 0.0
H1546 H 0.41216 0.2493 0.59105 0.0
H1547 H 0.43533 0.28476 0.58427 0.0
H1548 H 0.30495 0.25382 0.6025 0.0
H1549 H 0.31179 0.22655 0.61127 0.0
H1550 H 0.31076 0.23482 0.57575 0.0
H1551 H 0.33417 0.18666 0.42445 0.0
H1552 H 0.33109 0.13012 0.49957 0.0
H1553 H 0.3344 0.13524 0.54892 0.0
H1554 H 0.35647 0.21001 0.61388 0.0
H1555 H 0.35707 0.26547 0.53858 0.0
H1556 H 0.34948 0.25866 0.48947 0.0
H1557 H 0.34084 0.0469 0.58699 0.0
H1558 H 0.34313 0.07927 0.58 0.0
H1559 H 0.31084 0.05045 0.58748 0.0
C1560 C 0.9127 0.2948 0.36392 0.0
C1561 C 0.93477 0.29718 0.38456 0.0
C1562 C 0.91162 0.25453 0.41056 0.0
C1563 C 0.89435 0.26126 0.42492 0.0
C1564 C 0.87495 0.2424 0.44242 0.0
C1565 C 0.87311 0.21652 0.44602 0.0
C1566 C 0.89104 0.21007 0.43229 0.0
C1567 C 0.90996 0.22914 0.41467 0.0
C1568 C 0.85604 0.24987 0.45666 0.0
C1569 C 0.88986 0.18281 0.43584 0.0
C1570 C 0.68476 0.08673 0.36425 0.0
C1571 C 0.70732 0.08152 0.37516 0.0
C1572 C 0.73233 0.10049 0.41818 0.0
C1573 C 0.7553 0.09767 0.41526 0.0
C1574 C 0.77963 0.11538 0.42977 0.0
C1575 C 0.781 0.1367 0.44698 0.0
C1576 C 0.75778 0.13972 0.44958 0.0
C1577 C 0.73351 0.12108 0.4356 0.0
C1578 C 0.80377 0.11125 0.42675 0.0
C1579 C 0.75854 0.16267 0.46698 0.0
C1580 C 0.74634 0.08448 0.61462 0.0
C1581 C 0.76891 0.08158 0.6085 0.0
C1582 C 0.79251 0.10371 0.59874 0.0
C1583 C 0.79349 0.12913 0.59471 0.0
C1584 C 0.77144 0.13255 0.60236 0.0
C1585 C 0.74823 0.11019 0.61239 0.0
C1586 C 0.81607 0.09968 0.5917 0.0
C1587 C 0.77193 0.15947 0.59872 0.0
C1588 C 0.96831 0.32282 0.61284 0.0
C1589 C 0.95627 0.30778 0.63944 0.0
C1590 C 0.92691 0.25962 0.6237 0.0
C1591 C 0.92542 0.23404 0.6212 0.0
C1592 C 0.90335 0.21182 0.60733 0.0
C1593 C 0.88199 0.21523 0.59607 0.0
C1594 C 0.88282 0.24077 0.59945 0.0
C1595 C 0.90542 0.26281 0.61287 0.0
C1596 C 0.90314 0.1849 0.60418 0.0
C1597 C 0.86004 0.24498 0.58846 0.0
C1598 C 0.85142 0.19551 0.46273 0.0
C1599 C 0.82751 0.17632 0.44873 0.0
C1600 C 0.80643 0.15545 0.4628 0.0
C1601 C 0.80926 0.15337 0.49162 0.0
C1602 C 0.78893 0.13193 0.50618 0.0
C1603 C 0.79116 0.13084 0.53471 0.0
C1604 C 0.81388 0.1511 0.54986 0.0
C1605 C 0.81575 0.15075 0.57904 0.0
C1606 C 0.83832 0.17157 0.59354 0.0
C1607 C 0.85944 0.19263 0.57954 0.0
C1608 C 0.85824 0.1928 0.55027 0.0
C1609 C 0.8795 0.21306 0.53542 0.0
C1610 C 0.87756 0.21376 0.50671 0.0
C1611 C 0.85418 0.19439 0.49177 0.0
C1612 C 0.8329 0.1733 0.50626 0.0
C1613 C 0.83509 0.17231 0.53547 0.0
C1614 C 0.68491 0.02169 0.60622 0.0
C1615 C 0.71327 0.03548 0.61999 0.0
O1616 O 0.92979 0.27145 0.39229 0.0
O1617 O 0.94947 0.28046 0.63643 0.0
O1618 O 0.72249 0.06338 0.62278 0.0
O1619 O 0.70901 0.08396 0.4037 0.0
H1620 H 0.93575 0.3097 0.40305 0.0
H1621 H 0.91129 0.28207 0.34546 0.0
H1622 H 0.91727 0.31546 0.35715 0.0
H1623 H 0.8927 0.28515 0.37353 0.0
H1624 H 0.89553 0.28095 0.42232 0.0
H1625 H 0.92344 0.22415 0.40368 0.0
H1626 H 0.83474 0.2346 0.45083 0.0
H1627 H 0.85963 0.27058 0.45128 0.0
H1628 H 0.85863 0.24933 0.47941 0.0
H1629 H 0.90676 0.18189 0.42576 0.0
H1630 H 0.87044 0.16622 0.42668 0.0
H1631 H 0.89053 0.17877 0.45817 0.0
H1632 H 0.72642 0.09741 0.36613 0.0
H1633 H 0.68283 0.08453 0.34132 0.0
H1634 H 0.68959 0.10791 0.37021 0.0
H1635 H 0.66507 0.07215 0.37305 0.0
H1636 H 0.75407 0.08145 0.40183 0.0
H1637 H 0.71555 0.12303 0.43752 0.0
H1638 H 0.8128 0.1113 0.44741 0.0
H1639 H 0.81942 0.12844 0.41517 0.0
H1640 H 0.7984 0.09173 0.41548 0.0
H1641 H 0.74079 0.16545 0.46233 0.0
H1642 H 0.77729 0.18229 0.4636 0.0
H1643 H 0.75845 0.15795 0.48918 0.0
H1644 H 0.72609 0.03098 0.60631 0.0
H1645 H 0.7684 0.06223 0.61126 0.0
H1646 H 0.73098 0.11244 0.61765 0.0
H1647 H 0.81823 0.10039 0.56895 0.0
H1648 H 0.81344 0.07979 0.59885 0.0
H1649 H 0.83512 0.11655 0.60125 0.0
H1650 H 0.75409 0.15947 0.6076 0.0
H1651 H 0.77222 0.16372 0.57635 0.0
H1652 H 0.79062 0.1764 0.60875 0.0
H1653 H 0.93832 0.30985 0.64428 0.0
H1654 H 0.95335 0.31345 0.59526 0.0
H1655 H 0.98671 0.3216 0.60791 0.0
H1656 H 0.97376 0.34471 0.61509 0.0
H1657 H 0.94198 0.23169 0.62974 0.0
H1658 H 0.90608 0.28237 0.61453 0.0
H1659 H 0.9006 0.17855 0.58197 0.0
H1660 H 0.88568 0.16877 0.61497 0.0
H1661 H 0.922 0.18603 0.61279 0.0
H1662 H 0.86147 0.26422 0.59686 0.0
H1663 H 0.84015 0.22748 0.59366 0.0
H1664 H 0.86068 0.24606 0.5656 0.0
H1665 H 0.82522 0.17772 0.42657 0.0
H1666 H 0.7709 0.11582 0.4957 0.0
H1667 H 0.77463 0.11401 0.54472 0.0
H1668 H 0.83928 0.1716 0.61596 0.0
H1669 H 0.89786 0.22871 0.54583 0.0
H1670 H 0.89443 0.22993 0.4964 0.0
H1671 H 0.67662 0.99915 0.60439 0.0
H1672 H 0.68588 0.02961 0.58512 0.0
H1673 H 0.67096 0.026 0.61829 0.0
C1674 C 0.96976 0.39197 0.32383 0.0
C1675 C 0.98827 0.38931 0.30294 0.0
C1676 C 0.0017 0.42977 0.27403 0.0
C1677 C 0.97635 0.42093 0.26065 0.0
C1678 C 0.97263 0.43771 0.24171 0.0
C1679 C 0.99481 0.46348 0.23556 0.0
C1680 C 0.02042 0.47215 0.24865 0.0
C1681 C 0.02342 0.45523 0.26785 0.0
C1682 C 0.94499 0.42796 0.2283 0.0
C1683 C 0.04465 0.49936 0.24253 0.0
C1684 C 0.03129 0.61873 0.30708 0.0
C1685 C 0.02245 0.63265 0.28526 0.0
C1686 C 0.99672 0.59307 0.2533 0.0
C1687 C 0.01917 0.59349 0.24121 0.0
C1688 C 0.01621 0.57108 0.22517 0.0
C1689 C 0.99026 0.54777 0.22095 0.0
C1690 C 0.96744 0.54786 0.23183 0.0
C1691 C 0.97097 0.57062 0.24774 0.0
C1692 C 0.04103 0.57195 0.21354 0.0
C1693 C 0.93948 0.52352 0.22739 0.0
C1694 C 0.99183 0.56611 0.03344 0.0
C1695 C 0.01281 0.57597 0.05362 0.0
C1696 C 0.01504 0.55818 0.07229 0.0
C1697 C 0.9945 0.53025 0.07213 0.0
C1698 C 0.97299 0.52042 0.05187 0.0
C1699 C 0.97241 0.5384 0.03228 0.0
C1700 C 0.03949 0.56955 0.09193 0.0
C1701 C 0.95057 0.49095 0.05067 0.0
C1702 C 0.01705 0.34365 0.08486 0.0
C1703 C 0.00913 0.36114 0.06711 0.0
C1704 C 0.02082 0.40914 0.0767 0.0
C1705 C 0.04131 0.43433 0.08737 0.0
C1706 C 0.03625 0.45589 0.09339 0.0
C1707 C 0.00978 0.45186 0.08909 0.0
C1708 C 0.98937 0.42709 0.07651 0.0
C1709 C 0.9952 0.40609 0.06999 0.0
C1710 C 0.05892 0.48251 0.10553 0.0
C1711 C 0.96115 0.42244 0.07082 0.0
C1712 C 0.99142 0.48143 0.21536 0.0
C1713 C 0.98894 0.50346 0.22566 0.0
C1714 C 0.98778 0.52242 0.20797 0.0
C1715 C 0.98784 0.51869 0.17902 0.0
C1716 C 0.98502 0.53633 0.16053 0.0
C1717 C 0.98646 0.53322 0.13209 0.0
C1718 C 0.99194 0.51312 0.12117 0.0
C1719 C 0.99575 0.51117 0.09252 0.0
C1720 C 0.0015 0.49103 0.0827 0.0
C1721 C 0.00289 0.4723 0.10049 0.0
C1722 C 0.99867 0.47365 0.129 0.0
C1723 C 0.99955 0.45483 0.14739 0.0
C1724 C 0.99685 0.45712 0.17559 0.0
C1725 C 0.99299 0.47823 0.18656 0.0
C1726 C 0.9912 0.49694 0.16833 0.0
C1727 C 0.99379 0.49449 0.13945 0.0
C1728 C 0.95598 0.5958 0.01132 0.0
C1729 C 0.98457 0.60377 0.02212 0.0
O1730 O 0.00628 0.41485 0.29319 0.0
O1731 O 0.02677 0.38856 0.07351 0.0
O1732 O 0.99017 0.58316 0.01489 0.0
O1733 O 0.9991 0.61337 0.27092 0.0
H1734 H 0.9757 0.37503 0.28568 0.0
H1735 H 0.95795 0.40077 0.3141 0.0
H1736 H 0.98193 0.40558 0.34165 0.0
H1737 H 0.95518 0.37152 0.3316 0.0
H1738 H 0.95936 0.40116 0.26499 0.0
H1739 H 0.04289 0.46185 0.27823 0.0
H1740 H 0.93886 0.44382 0.23113 0.0
H1741 H 0.92934 0.40848 0.23692 0.0
H1742 H 0.94572 0.42474 0.20573 0.0
H1743 H 0.06375 0.50156 0.25181 0.0
H1744 H 0.04169 0.51616 0.25103 0.0
H1745 H 0.04675 0.50189 0.21985 0.0
H1746 H 0.03895 0.64359 0.27066 0.0
H1747 H 0.05019 0.63406 0.31822 0.0
H1748 H 0.03544 0.60326 0.29724 0.0
H1749 H 0.01522 0.60829 0.32225 0.0
H1750 H 0.03917 0.61093 0.24466 0.0
H1751 H 0.95369 0.57056 0.2568 0.0
H1752 H 0.03869 0.56953 0.19066 0.0
H1753 H 0.04334 0.55468 0.22141 0.0
H1754 H 0.05983 0.59144 0.21901 0.0
H1755 H 0.9235 0.52795 0.23437 0.0
H1756 H 0.93811 0.506 0.23908 0.0
H1757 H 0.93559 0.51717 0.20516 0.0
H1758 H 0.98511 0.60628 0.04509 0.0
H1759 H 0.02765 0.59754 0.05458 0.0
H1760 H 0.95632 0.53105 0.01647 0.0
H1761 H 0.03479 0.57654 0.11152 0.0
H1762 H 0.05704 0.58754 0.08318 0.0
H1763 H 0.04551 0.55395 0.09677 0.0
H1764 H 0.93249 0.48836 0.03862 0.0
H1765 H 0.94441 0.4832 0.07175 0.0
H1766 H 0.9579 0.47814 0.04041 0.0
H1767 H 0.98798 0.35511 0.07213 0.0
H1768 H 0.00333 0.32151 0.07992 0.0
H1769 H 0.01537 0.34755 0.10709 0.0
H1770 H 0.03824 0.34867 0.08133 0.0
H1771 H 0.06123 0.43681 0.0917 0.0
H1772 H 0.97951 0.38737 0.06013 0.0
H1773 H 0.05614 0.48374 0.12802 0.0
H1774 H 0.05862 0.50023 0.09585 0.0
H1775 H 0.07905 0.48424 0.10272 0.0
H1776 H 0.94723 0.40162 0.06192 0.0
H1777 H 0.96191 0.4378 0.05612 0.0
H1778 H 0.95273 0.42531 0.09025 0.0
H1779 H 0.98908 0.50656 0.24787 0.0
H1780 H 0.9816 0.55265 0.1679 0.0
H1781 H 0.98379 0.54718 0.11885 0.0
H1782 H 0.00509 0.49 0.06092 0.0
H1783 H 0.0026 0.4382 0.14025 0.0
H1784 H 0.99815 0.4423 0.18872 0.0
H1785 H 0.95121 0.61231 0.01645 0.0
H1786 H 0.94102 0.57675 0.02121 0.0
H1787 H 0.95397 0.59202 0.98855 0.0
C1788 C 0.3758 0.31774 0.29147 0.0
C1789 C 0.38406 0.34791 0.29611 0.0
C1790 C 0.40537 0.37908 0.25829 0.0
C1791 C 0.40166 0.39781 0.24272 0.0
C1792 C 0.42319 0.41884 0.22911 0.0
C1793 C 0.4489 0.42052 0.23039 0.0
C1794 C 0.45271 0.40129 0.24578 0.0
C1795 C 0.43088 0.38077 0.25968 0.0
C1796 C 0.41839 0.43917 0.21327 0.0
C1797 C 0.47969 0.40215 0.24711 0.0
C1798 C 0.61277 0.55323 0.31764 0.0
C1799 C 0.61601 0.57436 0.29608 0.0
C1800 C 0.573 0.55093 0.26865 0.0
C1801 C 0.57789 0.53125 0.25571 0.0
C1802 C 0.55811 0.51061 0.23814 0.0
C1803 C 0.53317 0.50999 0.23281 0.0
C1804 C 0.52853 0.53027 0.24508 0.0
C1805 C 0.54849 0.55039 0.26296 0.0
C1806 C 0.56368 0.48908 0.22574 0.0
C1807 C 0.50237 0.5305 0.23957 0.0
C1808 C 0.57614 0.54904 0.05607 0.0
C1809 C 0.58372 0.53323 0.07254 0.0
C1810 C 0.56426 0.50977 0.08542 0.0
C1811 C 0.53664 0.50258 0.08292 0.0
C1812 C 0.52881 0.51787 0.0656 0.0
C1813 C 0.54867 0.54062 0.05204 0.0
C1814 C 0.57337 0.49296 0.10206 0.0
C1815 C 0.49954 0.51058 0.06183 0.0
C1816 C 0.37553 0.28666 0.03495 0.0
C1817 C 0.38326 0.3163 0.0422 0.0
C1818 C 0.42595 0.35629 0.05632 0.0
C1819 C 0.4514 0.36166 0.06643 0.0
C1820 C 0.46919 0.38667 0.08002 0.0
C1821 C 0.46119 0.40673 0.08354 0.0
C1822 C 0.43538 0.40137 0.07348 0.0
C1823 C 0.41797 0.37614 0.06005 0.0
C1824 C 0.49656 0.39174 0.0905 0.0
C1825 C 0.42639 0.42247 0.07663 0.0
C1826 C 0.47146 0.44195 0.21492 0.0
C1827 C 0.49088 0.46546 0.22943 0.0
C1828 C 0.51151 0.48717 0.2157 0.0
C1829 C 0.51214 0.486 0.18652 0.0
C1830 C 0.53098 0.50841 0.17177 0.0
C1831 C 0.53179 0.50674 0.14309 0.0
C1832 C 0.51448 0.48223 0.12816 0.0
C1833 C 0.51617 0.47971 0.09915 0.0
C1834 C 0.49858 0.4549 0.0852 0.0
C1835 C 0.47911 0.4326 0.09933 0.0
C1836 C 0.47701 0.43484 0.12815 0.0
C1837 C 0.45746 0.41282 0.14285 0.0
C1838 C 0.45548 0.41515 0.1712 0.0
C1839 C 0.47326 0.43944 0.18606 0.0
C1840 C 0.4934 0.46172 0.17175 0.0
C1841 C 0.49495 0.45963 0.14265 0.0
C1842 C 0.62359 0.60203 0.08152 0.0
C1843 C 0.62146 0.58883 0.05287 0.0
O1844 O 0.3837 0.35923 0.27096 0.0
O1845 O 0.41081 0.3331 0.04065 0.0
O1846 O 0.59455 0.57266 0.04428 0.0
O1847 O 0.59096 0.57042 0.28701 0.0
H1848 H 0.40448 0.35873 0.3066 0.0
H1849 H 0.39067 0.31602 0.27834 0.0
H1850 H 0.35547 0.30634 0.28094 0.0
H1851 H 0.37541 0.30819 0.31155 0.0
H1852 H 0.38181 0.39614 0.24162 0.0
H1853 H 0.43363 0.36574 0.27104 0.0
H1854 H 0.43439 0.46043 0.2189 0.0
H1855 H 0.39833 0.43719 0.21725 0.0
H1856 H 0.41938 0.43584 0.19077 0.0
H1857 H 0.47887 0.38461 0.25833 0.0
H1858 H 0.49502 0.42149 0.25777 0.0
H1859 H 0.48657 0.40199 0.22587 0.0
H1860 H 0.62734 0.57282 0.27837 0.0
H1861 H 0.60185 0.53216 0.30843 0.0
H1862 H 0.60115 0.55425 0.33531 0.0
H1863 H 0.63296 0.55712 0.32552 0.0
H1864 H 0.59684 0.53148 0.25952 0.0
H1865 H 0.54492 0.56573 0.27286 0.0
H1866 H 0.54688 0.46826 0.22985 0.0
H1867 H 0.58292 0.49086 0.23405 0.0
H1868 H 0.56492 0.49116 0.20297 0.0
H1869 H 0.50326 0.54954 0.24775 0.0
H1870 H 0.48566 0.51271 0.2495 0.0
H1871 H 0.49743 0.52843 0.21699 0.0
H1872 H 0.63152 0.57644 0.05458 0.0
H1873 H 0.60477 0.53898 0.07559 0.0
H1874 H 0.54289 0.55263 0.03902 0.0
H1875 H 0.57307 0.49729 0.12444 0.0
H1876 H 0.59426 0.4978 0.0974 0.0
H1877 H 0.55951 0.47072 0.09798 0.0
H1878 H 0.49715 0.52635 0.05036 0.0
H1879 H 0.49023 0.50807 0.08224 0.0
H1880 H 0.4882 0.49074 0.05012 0.0
H1881 H 0.37782 0.31625 0.06419 0.0
H1882 H 0.35381 0.27279 0.03884 0.0
H1883 H 0.38779 0.28036 0.04802 0.0
H1884 H 0.37896 0.28412 0.01301 0.0
H1885 H 0.45747 0.34631 0.06315 0.0
H1886 H 0.39864 0.3725 0.05165 0.0
H1887 H 0.49865 0.39577 0.11321 0.0
H1888 H 0.51268 0.41023 0.08086 0.0
H1889 H 0.4998 0.37411 0.08591 0.0
H1890 H 0.40532 0.41475 0.0686 0.0
H1891 H 0.44012 0.4411 0.06536 0.0
H1892 H 0.42765 0.4286 0.09877 0.0
H1893 H 0.49002 0.4668 0.25174 0.0
H1894 H 0.54514 0.52758 0.18226 0.0
H1895 H 0.5465 0.52478 0.13286 0.0
H1896 H 0.50013 0.45287 0.06308 0.0
H1897 H 0.44335 0.3935 0.13262 0.0
H1898 H 0.44002 0.39753 0.18137 0.0
H1899 H 0.64515 0.61598 0.08782 0.0
H1900 H 0.61473 0.58611 0.09732 0.0
H1901 H 0.61263 0.61388 0.08136 0.0
C1902 C 0.40422 0.02573 0.3336 0.0
C1903 C 0.38119 0.01042 0.31178 0.0
C1904 C 0.40458 0.99445 0.28037 0.0
C1905 C 0.42299 0.0201 0.27013 0.0
C1906 C 0.44469 0.02315 0.2544 0.0
C1907 C 0.44758 0.99997 0.24825 0.0
C1908 C 0.42818 0.9739 0.25724 0.0
C1909 C 0.40696 0.97153 0.27323 0.0
C1910 C 0.46494 0.05123 0.24493 0.0
C1911 C 0.43029 0.94865 0.25061 0.0
C1912 C 0.59247 0.01475 0.3608 0.0
C1913 C 0.59747 0.00168 0.33528 0.0
C1914 C 0.57999 0.01471 0.29491 0.0
C1915 C 0.55919 0.98891 0.28541 0.0
C1916 C 0.53858 0.98667 0.2671 0.0
C1917 C 0.53888 0.01071 0.25805 0.0
C1918 C 0.56013 0.03673 0.26713 0.0
C1919 C 0.58061 0.03836 0.28522 0.0
C1920 C 0.51653 0.95864 0.25727 0.0
C1921 C 0.56112 0.06277 0.25777 0.0
C1922 C 0.59953 0.02125 0.09205 0.0
C1923 C 0.57694 0.99533 0.0959 0.0
C1924 C 0.55236 0.99285 0.10422 0.0
C1925 C 0.55048 0.01673 0.10947 0.0
C1926 C 0.57284 0.04277 0.10471 0.0
C1927 C 0.59701 0.04464 0.09583 0.0
C1928 C 0.52852 0.96469 0.10796 0.0
C1929 C 0.57146 0.06864 0.10991 0.0
C1930 C 0.36737 0.0128 0.09369 0.0
C1931 C 0.3805 0.02346 0.06589 0.0
C1932 C 0.41699 0.01212 0.07087 0.0
C1933 C 0.42266 0.99077 0.06671 0.0
C1934 C 0.44415 0.99031 0.08132 0.0
C1935 C 0.46103 0.01242 0.09974 0.0
C1936 C 0.45671 0.03519 0.10226 0.0
C1937 C 0.43433 0.03444 0.08844 0.0
C1938 C 0.44818 0.96579 0.0777 0.0
C1939 C 0.47526 0.06008 0.12017 0.0
C1940 C 0.47182 0.00322 0.23413 0.0
C1941 C 0.49344 0.00561 0.25072 0.0
C1942 C 0.51694 0.00861 0.23909 0.0
C1943 C 0.51926 0.00963 0.21007 0.0
C1944 C 0.54267 0.0127 0.19773 0.0
C1945 C 0.54496 0.01416 0.1692 0.0
C1946 C 0.52391 0.01261 0.15186 0.0
C1947 C 0.52626 0.0145 0.12284 0.0
C1948 C 0.50551 0.0142 0.10631 0.0
C1949 C 0.48182 0.01097 0.11795 0.0
C1950 C 0.47856 0.00752 0.14683 0.0
C1951 C 0.45443 0.00257 0.15914 0.0
C1952 C 0.45207 0.00098 0.1877 0.0
C1953 C 0.47363 0.00394 0.20504 0.0
C1954 C 0.49761 0.00753 0.19301 0.0
C1955 C 0.50001 0.00917 0.16387 0.0
C1956 C 0.66196 0.01931 0.09535 0.0
C1957 C 0.63256 0.00554 0.08432 0.0
O1958 O 0.38455 0.99075 0.29748 0.0
O1959 O 0.39446 0.01015 0.05797 0.0
O1960 O 0.62389 0.02474 0.08433 0.0
O1961 O 0.60022 0.01763 0.31265 0.0
H1962 H 0.38035 0.02511 0.2971 0.0
H1963 H 0.42395 0.0376 0.32378 0.0
H1964 H 0.40567 0.01105 0.3478 0.0
H1965 H 0.40066 0.04046 0.34591 0.0
H1966 H 0.42083 0.03785 0.27473 0.0
H1967 H 0.39241 0.95175 0.28088 0.0
H1968 H 0.48553 0.0567 0.25297 0.0
H1969 H 0.46022 0.06731 0.25196 0.0
H1970 H 0.46528 0.05108 0.22201 0.0
H1971 H 0.41191 0.92953 0.2562 0.0
H1972 H 0.44801 0.94991 0.26223 0.0
H1973 H 0.43357 0.9475 0.22822 0.0
H1974 H 0.58032 0.9805 0.33228 0.0
H1975 H 0.58963 0.00208 0.3792 0.0
H1976 H 0.57383 0.01623 0.35723 0.0
H1977 H 0.60977 0.03571 0.36511 0.0
H1978 H 0.55924 0.97048 0.29168 0.0
H1979 H 0.59701 0.05817 0.29232 0.0
H1980 H 0.51548 0.95728 0.23431 0.0
H1981 H 0.49669 0.95538 0.26413 0.0
H1982 H 0.51978 0.94196 0.26527 0.0
H1983 H 0.57848 0.08138 0.26753 0.0
H1984 H 0.54207 0.06256 0.26288 0.0
H1985 H 0.56277 0.06401 0.23497 0.0
H1986 H 0.6209 0.98876 0.09869 0.0
H1987 H 0.57806 0.97689 0.09199 0.0
H1988 H 0.61436 0.06454 0.09244 0.0
H1989 H 0.5243 0.96157 0.13028 0.0
H1990 H 0.53216 0.94817 0.09994 0.0
H1991 H 0.51019 0.9629 0.09714 0.0
H1992 H 0.59033 0.08731 0.10443 0.0
H1993 H 0.56782 0.07038 0.1321 0.0
H1994 H 0.5542 0.06773 0.09768 0.0
H1995 H 0.39404 0.04567 0.06845 0.0
H1996 H 0.35472 0.0221 0.0993 0.0
H1997 H 0.38311 0.0184 0.11042 0.0
H1998 H 0.3545 0.99012 0.09271 0.0
H1999 H 0.40941 0.97381 0.05283 0.0
H2000 H 0.43058 0.05138 0.09163 0.0
H2001 H 0.44975 0.95783 0.09816 0.0
H2002 H 0.46739 0.97201 0.06716 0.0
H2003 H 0.43142 0.94896 0.06517 0.0
H2004 H 0.47323 0.07817 0.11474 0.0
H2005 H 0.4967 0.06533 0.11824 0.0
H2006 H 0.47005 0.05577 0.14214 0.0
H2007 H 0.4919 0.00501 0.27304 0.0
H2008 H 0.55958 0.01416 0.20999 0.0
H2009 H 0.56358 0.01676 0.16096 0.0
H2010 H 0.50789 0.01661 0.08419 0.0
H2011 H 0.43712 0.00011 0.14687 0.0
H2012 H 0.43319 0.99756 0.19603 0.0
H2013 H 0.66962 0.00449 0.09493 0.0
H2014 H 0.66322 0.02662 0.11707 0.0
H2015 H 0.67511 0.03722 0.08283 0.0
C2016 C 0.62535 0.97187 0.77373 0.0
C2017 C 0.62302 0.98441 0.74647 0.0
C2018 C 0.59668 0.00712 0.7584 0.0
C2019 C 0.59822 0.03253 0.76289 0.0
C2020 C 0.57553 0.03444 0.77054 0.0
C2021 C 0.55065 0.01022 0.77396 0.0
C2022 C 0.54875 0.98438 0.76906 0.0
C2023 C 0.57174 0.98305 0.76124 0.0
C2024 C 0.57821 0.06233 0.77538 0.0
C2025 C 0.5225 0.95816 0.77258 0.0
C2026 C 0.36946 0.95841 0.67383 0.0
C2027 C 0.37719 0.98293 0.69367 0.0
C2028 C 0.42407 0.00276 0.71166 0.0
C2029 C 0.42054 0.98075 0.7279 0.0
C2030 C 0.44083 0.98366 0.74703 0.0
C2031 C 0.46489 0.00925 0.75033 0.0
C2032 C 0.46874 0.03125 0.73354 0.0
C2033 C 0.44834 0.02756 0.71414 0.0
C2034 C 0.4364 0.9594 0.76387 0.0
C2035 C 0.49415 0.05876 0.73648 0.0
C2036 C 0.40294 0.02856 0.91875 0.0
C2037 C 0.39796 0.00296 0.90813 0.0
C2038 C 0.41891 0.99979 0.89709 0.0
C2039 C 0.44512 0.02283 0.89593 0.0
C2040 C 0.44992 0.04878 0.90572 0.0
C2041 C 0.42872 0.05127 0.91702 0.0
C2042 C 0.41313 0.97177 0.88695 0.0
C2043 C 0.47756 0.07382 0.90464 0.0
C2044 C 0.59491 0.97731 0.93432 0.0
C2045 C 0.5976 0.99742 0.95765 0.0
C2046 C 0.55496 0.99576 0.95319 0.0
C2047 C 0.53438 0.97485 0.93689 0.0
C2048 C 0.51707 0.97996 0.92008 0.0
C2049 C 0.52145 0.00705 0.91863 0.0
C2050 C 0.54182 0.02818 0.93577 0.0
C2051 C 0.55828 0.02216 0.95315 0.0
C2052 C 0.49491 0.95658 0.90299 0.0
C2053 C 0.54688 0.0572 0.93487 0.0
C2054 C 0.52693 0.01194 0.78371 0.0
C2055 C 0.50817 0.0113 0.76399 0.0
C2056 C 0.48554 0.01303 0.77194 0.0
C2057 C 0.4818 0.01629 0.80023 0.0
C2058 C 0.46013 0.01971 0.80884 0.0
C2059 C 0.45588 0.02153 0.83682 0.0
C2060 C 0.4728 0.01942 0.85721 0.0
C2061 C 0.46784 0.01964 0.88569 0.0
C2062 C 0.48441 0.01628 0.90531 0.0
C2063 C 0.50637 0.01348 0.89732 0.0
C2064 C 0.51251 0.01462 0.86908 0.0
C2065 C 0.53528 0.01319 0.8605 0.0
C2066 C 0.54031 0.01278 0.8326 0.0
C2067 C 0.52266 0.01357 0.81217 0.0
C2068 C 0.50001 0.01577 0.82042 0.0
C2069 C 0.49521 0.01681 0.84893 0.0
C2070 C 0.33618 0.00715 0.92036 0.0
C2071 C 0.35936 0.01271 0.94089 0.0
O2072 O 0.61977 0.00695 0.75179 0.0
O2073 O 0.57263 0.99064 0.96756 0.0
O2074 O 0.38363 0.03245 0.93063 0.0
O2075 O 0.4048 0.00083 0.69315 0.0
H2076 H 0.60563 0.96868 0.73363 0.0
H2077 H 0.60669 0.96475 0.78552 0.0
H2078 H 0.64272 0.98728 0.78683 0.0
H2079 H 0.62819 0.95393 0.76951 0.0
H2080 H 0.61746 0.05098 0.76058 0.0
H2081 H 0.57002 0.96316 0.75775 0.0
H2082 H 0.56265 0.06413 0.76261 0.0
H2083 H 0.59853 0.07921 0.77034 0.0
H2084 H 0.5746 0.06483 0.7974 0.0
H2085 H 0.5243 0.93964 0.76812 0.0
H2086 H 0.50649 0.95772 0.75854 0.0
H2087 H 0.51585 0.95734 0.79409 0.0
H2088 H 0.37108 0.97534 0.71485 0.0
H2089 H 0.34767 0.94307 0.67523 0.0
H2090 H 0.38141 0.94822 0.67924 0.0
H2091 H 0.37357 0.96526 0.65217 0.0
H2092 H 0.40213 0.96121 0.7256 0.0
H2093 H 0.45096 0.0443 0.70125 0.0
H2094 H 0.43288 0.96295 0.78562 0.0
H2095 H 0.45464 0.95691 0.76392 0.0
H2096 H 0.4187 0.94003 0.75589 0.0
H2097 H 0.49328 0.07428 0.72308 0.0
H2098 H 0.51184 0.05657 0.73089 0.0
H2099 H 0.49747 0.06636 0.75833 0.0
H2100 H 0.35958 0.99329 0.94456 0.0
H2101 H 0.37785 0.98539 0.90829 0.0
H2102 H 0.43229 0.07098 0.92498 0.0
H2103 H 0.41626 0.97205 0.8644 0.0
H2104 H 0.39211 0.95563 0.89086 0.0
H2105 H 0.42742 0.96627 0.89731 0.0
H2106 H 0.4774 0.09291 0.91076 0.0
H2107 H 0.48523 0.07593 0.88343 0.0
H2108 H 0.49192 0.07143 0.91881 0.0
H2109 H 0.6067 0.01825 0.94882 0.0
H2110 H 0.61522 0.98181 0.92763 0.0
H2111 H 0.58383 0.97941 0.9161 0.0
H2112 H 0.58376 0.95586 0.94102 0.0
H2113 H 0.53263 0.95475 0.93653 0.0
H2114 H 0.57438 0.03816 0.96597 0.0
H2115 H 0.50129 0.95773 0.88135 0.0
H2116 H 0.47602 0.95789 0.90276 0.0
H2117 H 0.49051 0.93635 0.91095 0.0
H2118 H 0.56422 0.07145 0.94872 0.0
H2119 H 0.52852 0.05779 0.94119 0.0
H2120 H 0.55098 0.06455 0.9134 0.0
H2121 H 0.51098 0.00898 0.74223 0.0
H2122 H 0.44618 0.02095 0.79404 0.0
H2123 H 0.43884 0.02403 0.84225 0.0
H2124 H 0.47988 0.01541 0.92704 0.0
H2125 H 0.54943 0.01224 0.87527 0.0
H2126 H 0.55798 0.01137 0.82725 0.0
H2127 H 0.3166 0.99106 0.92807 0.0
H2128 H 0.33952 0.99986 0.90017 0.0
H2129 H 0.33502 0.02615 0.91712 0.0
C2130 C 0.00517 0.69309 0.77621 0.0
C2131 C 0.00573 0.66779 0.76491 0.0
C2132 C 0.99508 0.6237 0.78552 0.0
C2133 C 0.97645 0.60299 0.80176 0.0
C2134 C 0.97754 0.57885 0.80589 0.0
C2135 C 0.99835 0.57564 0.794 0.0
C2136 C 0.01679 0.59607 0.7767 0.0
C2137 C 0.01494 0.61991 0.77251 0.0
C2138 C 0.95689 0.55714 0.82371 0.0
C2139 C 0.03891 0.59304 0.76336 0.0
C2140 C 0.9388 0.3889 0.68052 0.0
C2141 C 0.96308 0.407 0.6998 0.0
C2142 C 0.96334 0.43337 0.74067 0.0
C2143 C 0.99033 0.4545 0.74004 0.0
C2144 C 0.99962 0.47834 0.75676 0.0
C2145 C 0.98157 0.48109 0.77443 0.0
C2146 C 0.95429 0.45997 0.77483 0.0
C2147 C 0.94564 0.4362 0.75818 0.0
C2148 C 0.0289 0.50036 0.75603 0.0
C2149 C 0.93445 0.46232 0.79323 0.0
C2150 C 0.01163 0.42619 0.93785 0.0
C2151 C 0.03256 0.43826 0.91911 0.0
C2152 C 0.04004 0.46417 0.90862 0.0
C2153 C 0.0253 0.47751 0.91585 0.0
C2154 C 0.00442 0.46545 0.93497 0.0
C2155 C 0.9983 0.4402 0.9461 0.0
C2156 C 0.06357 0.47717 0.88971 0.0
C2157 C 0.98831 0.47899 0.94357 0.0
C2158 C 0.10825 0.70183 0.95387 0.0
C2159 C 0.08436 0.6726 0.95171 0.0
C2160 C 0.08015 0.62818 0.95479 0.0
C2161 C 0.09727 0.62046 0.94212 0.0
C2162 C 0.08667 0.59494 0.92814 0.0
C2163 C 0.05839 0.57683 0.92734 0.0
C2164 C 0.04132 0.5838 0.9421 0.0
C2165 C 0.05242 0.60954 0.95553 0.0
C2166 C 0.10543 0.5879 0.91302 0.0
C2167 C 0.0112 0.56464 0.94254 0.0
C2168 C 0.00234 0.55237 0.80233 0.0
C2169 C 0.99178 0.52881 0.78513 0.0
C2170 C 0.99181 0.50512 0.79394 0.0
C2171 C 0.0016 0.5045 0.82097 0.0
C2172 C 0.99947 0.48029 0.83153 0.0
C2173 C 0.00836 0.47969 0.85844 0.0
C2174 C 0.02112 0.50362 0.87539 0.0
C2175 C 0.03071 0.5034 0.90266 0.0
C2176 C 0.04356 0.52769 0.91875 0.0
C2177 C 0.04631 0.55214 0.9087 0.0
C2178 C 0.03633 0.55264 0.88173 0.0
C2179 C 0.03818 0.57677 0.87125 0.0
C2180 C 0.0272 0.57678 0.84524 0.0
C2181 C 0.01447 0.5528 0.82838 0.0
C2182 C 0.01346 0.52859 0.83802 0.0
C2183 C 0.02388 0.52834 0.86497 0.0
C2184 C 0.99418 0.36845 0.91177 0.0
C2185 C 0.00927 0.38121 0.93949 0.0
O2186 O 0.99306 0.64681 0.78328 0.0
O2187 O 0.09027 0.65426 0.96467 0.0
O2188 O 0.00358 0.40123 0.94864 0.0
O2189 O 0.95379 0.40982 0.72516 0.0
H2190 H 0.02742 0.67385 0.76316 0.0
H2191 H 0.01572 0.69923 0.79688 0.0
H2192 H 0.98397 0.68871 0.77834 0.0
H2193 H 0.01566 0.71055 0.76223 0.0
H2194 H 0.961 0.6059 0.81141 0.0
H2195 H 0.02925 0.63546 0.75941 0.0
H2196 H 0.94901 0.53651 0.81378 0.0
H2197 H 0.93961 0.56063 0.82758 0.0
H2198 H 0.96664 0.55726 0.84394 0.0
H2199 H 0.05156 0.61062 0.75026 0.0
H2200 H 0.02985 0.57391 0.75036 0.0
H2201 H 0.05212 0.59128 0.7796 0.0
H2202 H 0.97446 0.42721 0.68992 0.0
H2203 H 0.94565 0.38656 0.65985 0.0
H2204 H 0.92579 0.39844 0.67782 0.0
H2205 H 0.92652 0.36828 0.68923 0.0
H2206 H 0.00433 0.45218 0.72703 0.0
H2207 H 0.92488 0.41973 0.75861 0.0
H2208 H 0.03021 0.52025 0.75102 0.0
H2209 H 0.0402 0.49555 0.74058 0.0
H2210 H 0.03886 0.5029 0.77676 0.0
H2211 H 0.91352 0.445 0.78973 0.0
H2212 H 0.93447 0.48184 0.78952 0.0
H2213 H 0.94073 0.46274 0.81523 0.0
H2214 H 0.03091 0.38961 0.93632 0.0
H2215 H 0.04333 0.42782 0.91278 0.0
H2216 H 0.98242 0.43083 0.96082 0.0
H2217 H 0.05609 0.47725 0.86833 0.0
H2218 H 0.07518 0.46601 0.88919 0.0
H2219 H 0.07742 0.49879 0.89646 0.0
H2220 H 0.97004 0.4649 0.95485 0.0
H2221 H 0.98188 0.48642 0.92526 0.0
H2222 H 0.00121 0.49696 0.95742 0.0
H2223 H 0.08167 0.6675 0.92903 0.0
H2224 H 0.10651 0.71407 0.93687 0.0
H2225 H 0.12762 0.70166 0.95199 0.0
H2226 H 0.10882 0.71239 0.97337 0.0
H2227 H 0.11873 0.63501 0.942 0.0
H2228 H 0.03936 0.61536 0.96608 0.0
H2229 H 0.10053 0.58613 0.89046 0.0
H2230 H 0.10244 0.56773 0.91963 0.0
H2231 H 0.12703 0.60357 0.91677 0.0
H2232 H 0.00129 0.5717 0.95757 0.0
H2233 H 0.00699 0.54376 0.94791 0.0
H2234 H 0.00197 0.56321 0.92164 0.0
H2235 H 0.98305 0.52872 0.76492 0.0
H2236 H 0.99031 0.46132 0.81935 0.0
H2237 H 0.00531 0.46021 0.86561 0.0
H2238 H 0.0507 0.52737 0.93969 0.0
H2239 H 0.04779 0.5959 0.88318 0.0
H2240 H 0.02896 0.5959 0.83845 0.0
H2241 H 0.99757 0.35133 0.9052 0.0
H2242 H 0.00172 0.38393 0.89543 0.0
H2243 H 0.9721 0.36057 0.91341 0.0
C2244 C 0.54554 0.5827 0.66471 0.0
C2245 C 0.56437 0.58589 0.6894 0.0
C2246 C 0.54201 0.54405 0.71657 0.0
C2247 C 0.52246 0.54936 0.72797 0.0
C2248 C 0.5055 0.53266 0.74843 0.0
C2249 C 0.50809 0.51019 0.7577 0.0
C2250 C 0.5269 0.50407 0.74543 0.0
C2251 C 0.54358 0.52109 0.72498 0.0
C2252 C 0.4852 0.53936 0.76066 0.0
C2253 C 0.52986 0.47999 0.75448 0.0
C2254 C 0.31128 0.31686 0.78265 0.0
C2255 C 0.33369 0.34377 0.77189 0.0
C2256 C 0.37942 0.37738 0.78909 0.0
C2257 C 0.40368 0.37884 0.79792 0.0
C2258 C 0.42801 0.40379 0.79891 0.0
C2259 C 0.42776 0.42824 0.7924 0.0
C2260 C 0.40334 0.42688 0.78285 0.0
C2261 C 0.37944 0.40138 0.78094 0.0
C2262 C 0.45385 0.40396 0.80746 0.0
C2263 C 0.40231 0.45244 0.77553 0.0
C2264 C 0.43579 0.44656 0.97281 0.0
C2265 C 0.45993 0.44614 0.96951 0.0
C2266 C 0.47792 0.46159 0.94922 0.0
C2267 C 0.47217 0.47903 0.93293 0.0
C2268 C 0.44933 0.48195 0.93849 0.0
C2269 C 0.4311 0.4653 0.95808 0.0
C2270 C 0.50244 0.4584 0.94464 0.0
C2271 C 0.4436 0.50192 0.92315 0.0
C2272 C 0.68244 0.64765 0.91669 0.0
C2273 C 0.65436 0.62983 0.92804 0.0
C2274 C 0.61537 0.5868 0.91015 0.0
C2275 C 0.60793 0.56051 0.90009 0.0
C2276 C 0.58071 0.54089 0.89504 0.0
C2277 C 0.56046 0.54823 0.89905 0.0
C2278 C 0.56775 0.57471 0.9096 0.0
C2279 C 0.59512 0.59361 0.9155 0.0
C2280 C 0.57373 0.51234 0.88542 0.0
C2281 C 0.54666 0.58313 0.91439 0.0
C2282 C 0.49263 0.49449 0.78165 0.0
C2283 C 0.46805 0.47026 0.77662 0.0
C2284 C 0.45238 0.45518 0.79849 0.0
C2285 C 0.46093 0.46497 0.82607 0.0
C2286 C 0.44493 0.45123 0.84847 0.0
C2287 C 0.45399 0.46023 0.87556 0.0
C2288 C 0.47933 0.48352 0.88141 0.0
C2289 C 0.48889 0.49272 0.90895 0.0
C2290 C 0.51502 0.5146 0.91401 0.0
C2291 C 0.53175 0.52803 0.89224 0.0
C2292 C 0.52175 0.52055 0.86458 0.0
C2293 C 0.5373 0.53504 0.84224 0.0
C2294 C 0.52766 0.52683 0.81507 0.0
C2295 C 0.50229 0.50354 0.8092 0.0
C2296 C 0.48624 0.48884 0.83144 0.0
C2297 C 0.49569 0.49778 0.85916 0.0
C2298 C 0.37756 0.42578 0.00819 0.0
C2299 C 0.3895 0.41562 0.98594 0.0
O2300 O 0.55971 0.56035 0.69759 0.0
O2301 O 0.64224 0.60465 0.91417 0.0
O2302 O 0.41739 0.42845 0.99003 0.0
O2303 O 0.35662 0.35249 0.78888 0.0
H2304 H 0.56114 0.59711 0.70669 0.0
H2305 H 0.54879 0.57187 0.64708 0.0
H2306 H 0.54931 0.60313 0.65802 0.0
H2307 H 0.5241 0.57067 0.67049 0.0
H2308 H 0.52033 0.56653 0.7212 0.0
H2309 H 0.55841 0.51686 0.71583 0.0
H2310 H 0.46484 0.52082 0.76001 0.0
H2311 H 0.48393 0.55596 0.74959 0.0
H2312 H 0.49099 0.54594 0.78269 0.0
H2313 H 0.54513 0.47769 0.74258 0.0
H2314 H 0.51009 0.46083 0.75182 0.0
H2315 H 0.53594 0.48257 0.77679 0.0
H2316 H 0.32601 0.35857 0.77254 0.0
H2317 H 0.2924 0.30941 0.76967 0.0
H2318 H 0.3069 0.32007 0.8042 0.0
H2319 H 0.3175 0.30089 0.78254 0.0
H2320 H 0.40356 0.36016 0.80372 0.0
H2321 H 0.36083 0.40058 0.77392 0.0
H2322 H 0.45884 0.41035 0.8296 0.0
H2323 H 0.47098 0.41871 0.79521 0.0
H2324 H 0.45189 0.38333 0.80479 0.0
H2325 H 0.38145 0.44812 0.76996 0.0
H2326 H 0.41529 0.4621 0.75773 0.0
H2327 H 0.4104 0.46749 0.79321 0.0
H2328 H 0.38387 0.42035 0.96535 0.0
H2329 H 0.46415 0.43272 0.98195 0.0
H2330 H 0.41318 0.46688 0.96173 0.0
H2331 H 0.50395 0.45464 0.92234 0.0
H2332 H 0.50193 0.4413 0.95647 0.0
H2333 H 0.521 0.47761 0.95132 0.0
H2334 H 0.4296 0.50674 0.93447 0.0
H2335 H 0.43399 0.49283 0.9026 0.0
H2336 H 0.46261 0.52131 0.91981 0.0
H2337 H 0.64302 0.64099 0.92435 0.0
H2338 H 0.69276 0.66806 0.92754 0.0
H2339 H 0.68054 0.65078 0.89429 0.0
H2340 H 0.69513 0.63773 0.91932 0.0
H2341 H 0.62363 0.5553 0.89645 0.0
H2342 H 0.60025 0.61362 0.92385 0.0
H2343 H 0.56772 0.50946 0.8631 0.0
H2344 H 0.55639 0.49673 0.89681 0.0
H2345 H 0.59111 0.50861 0.88833 0.0
H2346 H 0.55582 0.60542 0.9193 0.0
H2347 H 0.53419 0.57167 0.93191 0.0
H2348 H 0.53292 0.57792 0.89582 0.0
H2349 H 0.46122 0.46297 0.75548 0.0
H2350 H 0.42519 0.43325 0.84537 0.0
H2351 H 0.44093 0.44845 0.89185 0.0
H2352 H 0.52268 0.52081 0.93518 0.0
H2353 H 0.55708 0.55294 0.84553 0.0
H2354 H 0.54059 0.53874 0.79875 0.0
H2355 H 0.35541 0.4169 0.0043 0.0
H2356 H 0.38705 0.44845 0.00779 0.0
H2357 H 0.38135 0.42002 0.02901 0.0
C2358 C 0.60208 0.64073 0.58349 0.0
C2359 C 0.62353 0.66762 0.5976 0.0
C2360 C 0.61922 0.70891 0.60129 0.0
C2361 C 0.59945 0.71659 0.59729 0.0
C2362 C 0.60641 0.74326 0.5896 0.0
C2363 C 0.63398 0.76296 0.58682 0.0
C2364 C 0.65423 0.75592 0.59326 0.0
C2365 C 0.64663 0.72883 0.59993 0.0
C2366 C 0.58425 0.75008 0.58334 0.0
C2367 C 0.68389 0.77672 0.592 0.0
C2368 C 0.6456 0.91231 0.69974 0.0
C2369 C 0.66722 0.92542 0.67811 0.0
C2370 C 0.65378 0.89974 0.63427 0.0
C2371 C 0.67667 0.89711 0.62951 0.0
C2372 C 0.67497 0.8763 0.61172 0.0
C2373 C 0.6499 0.85791 0.59828 0.0
C2374 C 0.62694 0.86094 0.60255 0.0
C2375 C 0.62928 0.88208 0.6203 0.0
C2376 C 0.69998 0.87402 0.60714 0.0
C2377 C 0.59998 0.84181 0.58837 0.0
C2378 C 0.67696 0.92457 0.42545 0.0
C2379 C 0.69904 0.92444 0.43922 0.0
C2380 C 0.69603 0.90062 0.45166 0.0
C2381 C 0.67034 0.87665 0.45087 0.0
C2382 C 0.64811 0.87677 0.43713 0.0
C2383 C 0.65178 0.9007 0.4245 0.0
C2384 C 0.72025 0.90109 0.46585 0.0
C2385 C 0.6204 0.85165 0.43596 0.0
C2386 C 0.64938 0.67777 0.42296 0.0
C2387 C 0.65628 0.6968 0.39853 0.0
C2388 C 0.67137 0.74354 0.4176 0.0
C2389 C 0.69428 0.76812 0.42593 0.0
C2390 C 0.69205 0.78945 0.43877 0.0
C2391 C 0.6661 0.78628 0.44285 0.0
C2392 C 0.64279 0.76211 0.43294 0.0
C2393 C 0.64559 0.74073 0.42091 0.0
C2394 C 0.7174 0.81496 0.44892 0.0
C2395 C 0.61482 0.75838 0.43612 0.0
C2396 C 0.64134 0.78967 0.57416 0.0
C2397 C 0.64228 0.81081 0.59067 0.0
C2398 C 0.64794 0.83588 0.57937 0.0
C2399 C 0.65235 0.83992 0.55075 0.0
C2400 C 0.65708 0.86445 0.53852 0.0
C2401 C 0.66133 0.86817 0.51033 0.0
C2402 C 0.66171 0.84779 0.49337 0.0
C2403 C 0.66653 0.85154 0.46476 0.0
C2404 C 0.66746 0.83108 0.44871 0.0
C2405 C 0.66338 0.8067 0.46039 0.0
C2406 C 0.65776 0.8023 0.48875 0.0
C2407 C 0.65288 0.77773 0.50098 0.0
C2408 C 0.64691 0.77333 0.5287 0.0
C2409 C 0.64673 0.79377 0.54571 0.0
C2410 C 0.65206 0.81889 0.53395 0.0
C2411 C 0.65713 0.82299 0.50532 0.0
C2412 C 0.70466 0.99012 0.43712 0.0
C2413 C 0.70133 0.97274 0.41112 0.0
O2414 O 0.61112 0.68223 0.60645 0.0
O2415 O 0.67537 0.72328 0.40696 0.0
O2416 O 0.67874 0.94701 0.41296 0.0
O2417 O 0.65484 0.9193 0.65194 0.0
H2418 H 0.63869 0.67924 0.58187 0.0
H2419 H 0.59293 0.64523 0.56512 0.0
H2420 H 0.58572 0.62851 0.59784 0.0
H2421 H 0.61142 0.62843 0.57647 0.0
H2422 H 0.57838 0.7012 0.59895 0.0
H2423 H 0.66216 0.72335 0.60393 0.0
H2424 H 0.587 0.76732 0.59712 0.0
H2425 H 0.56378 0.73236 0.58617 0.0
H2426 H 0.58547 0.75682 0.5617 0.0
H2427 H 0.69685 0.76977 0.60281 0.0
H2428 H 0.68806 0.79667 0.6014 0.0
H2429 H 0.68959 0.78011 0.57006 0.0
H2430 H 0.68103 0.91676 0.68089 0.0
H2431 H 0.65509 0.91749 0.72093 0.0
H2432 H 0.63481 0.88967 0.6967 0.0
H2433 H 0.63053 0.91946 0.69782 0.0
H2434 H 0.69595 0.9115 0.63941 0.0
H2435 H 0.61183 0.88456 0.62384 0.0
H2436 H 0.70436 0.87584 0.5848 0.0
H2437 H 0.69642 0.85355 0.61342 0.0
H2438 H 0.718 0.89003 0.61899 0.0
H2439 H 0.58389 0.84646 0.59441 0.0
H2440 H 0.59371 0.82031 0.59357 0.0
H2441 H 0.60187 0.84335 0.56561 0.0
H2442 H 0.71999 0.97125 0.40877 0.0
H2443 H 0.71865 0.94275 0.44053 0.0
H2444 H 0.63485 0.90095 0.41391 0.0
H2445 H 0.71707 0.89855 0.48839 0.0
H2446 H 0.73928 0.92052 0.46269 0.0
H2447 H 0.7226 0.8837 0.45797 0.0
H2448 H 0.60493 0.85543 0.42553 0.0
H2449 H 0.614 0.84475 0.45723 0.0
H2450 H 0.62117 0.8347 0.42463 0.0
H2451 H 0.63761 0.69606 0.38993 0.0
H2452 H 0.64091 0.68478 0.43962 0.0
H2453 H 0.66779 0.67779 0.43136 0.0
H2454 H 0.634 0.65651 0.41644 0.0
H2455 H 0.71407 0.77021 0.42306 0.0
H2456 H 0.6275 0.72194 0.4147 0.0
H2457 H 0.71677 0.81792 0.47157 0.0
H2458 H 0.71852 0.83314 0.43882 0.0
H2459 H 0.73604 0.81403 0.44454 0.0
H2460 H 0.59945 0.74129 0.42268 0.0
H2461 H 0.61449 0.77749 0.43106 0.0
H2462 H 0.609 0.75375 0.45793 0.0
H2463 H 0.63859 0.80774 0.61256 0.0
H2464 H 0.65733 0.88099 0.55057 0.0
H2465 H 0.6646 0.88737 0.50206 0.0
H2466 H 0.67153 0.83421 0.42689 0.0
H2467 H 0.6533 0.76139 0.48926 0.0
H2468 H 0.64279 0.75375 0.53663 0.0
H2469 H 0.68642 0.99232 0.4397 0.0
H2470 H 0.72267 0.01082 0.43577 0.0
H2471 H 0.70756 0.98029 0.45568 0.0
C2472 C 0.07698 0.67349 0.67595 0.0
C2473 C 0.06733 0.69196 0.66266 0.0
C2474 C 0.08839 0.71749 0.62159 0.0
C2475 C 0.08745 0.74164 0.62727 0.0
C2476 C 0.10397 0.76581 0.61338 0.0
C2477 C 0.12194 0.76582 0.59365 0.0
C2478 C 0.12279 0.7414 0.58787 0.0
C2479 C 0.10555 0.71742 0.60155 0.0
C2480 C 0.10213 0.79126 0.61965 0.0
C2481 C 0.14203 0.7406 0.56742 0.0
C2482 C 0.32087 0.94682 0.5814 0.0
C2483 C 0.29702 0.94261 0.59868 0.0
C2484 C 0.2609 0.89676 0.60796 0.0
C2485 C 0.25648 0.87029 0.6028 0.0
C2486 C 0.2305 0.84876 0.59543 0.0
C2487 C 0.20843 0.85387 0.59412 0.0
C2488 C 0.21245 0.87999 0.60235 0.0
C2489 C 0.23877 0.90133 0.6088 0.0
C2490 C 0.22697 0.8211 0.5872 0.0
C2491 C 0.18924 0.88589 0.60236 0.0
C2492 C 0.23096 0.91026 0.42254 0.0
C2493 C 0.23532 0.88936 0.43279 0.0
C2494 C 0.21434 0.86625 0.4447 0.0
C2495 C 0.18906 0.86497 0.44829 0.0
C2496 C 0.18463 0.88598 0.43786 0.0
C2497 C 0.20548 0.90798 0.42454 0.0
C2498 C 0.21956 0.84357 0.45393 0.0
C2499 C 0.15804 0.88553 0.44085 0.0
C2500 C 0.99541 0.73065 0.39969 0.0
C2501 C 0.01654 0.73056 0.3804 0.0
C2502 C 0.05546 0.74439 0.41297 0.0
C2503 C 0.07209 0.73577 0.42602 0.0
C2504 C 0.09464 0.75391 0.44274 0.0
C2505 C 0.09961 0.78099 0.44798 0.0
C2506 C 0.08212 0.78948 0.43565 0.0
C2507 C 0.06079 0.7714 0.41772 0.0
C2508 C 0.1136 0.74428 0.45371 0.0
C2509 C 0.08619 0.81795 0.44043 0.0
C2510 C 0.1399 0.79123 0.57898 0.0
C2511 C 0.16368 0.81105 0.59284 0.0
C2512 C 0.18284 0.83396 0.57919 0.0
C2513 C 0.17851 0.83702 0.55084 0.0
C2514 C 0.19773 0.85939 0.53627 0.0
C2515 C 0.19382 0.86179 0.50828 0.0
C2516 C 0.171 0.84146 0.4934 0.0
C2517 C 0.16798 0.84266 0.46446 0.0
C2518 C 0.14478 0.82238 0.45044 0.0
C2519 C 0.12403 0.80106 0.46453 0.0
C2520 C 0.12687 0.79943 0.49351 0.0
C2521 C 0.10649 0.77857 0.50862 0.0
C2522 C 0.11051 0.77598 0.5367 0.0
C2523 C 0.13479 0.79462 0.55091 0.0
C2524 C 0.15457 0.81713 0.53661 0.0
C2525 C 0.15077 0.81936 0.50782 0.0
C2526 C 0.29042 0.95556 0.44001 0.0
C2527 C 0.27811 0.9425 0.41149 0.0
O2528 O 0.07282 0.69389 0.63482 0.0
O2529 O 0.03509 0.72623 0.39554 0.0
O2530 O 0.25051 0.93293 0.41061 0.0
O2531 O 0.28671 0.91759 0.61143 0.0
H2532 H 0.07858 0.71242 0.67341 0.0
H2533 H 0.09919 0.68273 0.67403 0.0
H2534 H 0.06695 0.65286 0.66557 0.0
H2535 H 0.07251 0.6713 0.69829 0.0
H2536 H 0.07355 0.74153 0.64222 0.0
H2537 H 0.10593 0.69859 0.59718 0.0
H2538 H 0.12143 0.8071 0.62975 0.0
H2539 H 0.08536 0.78723 0.63352 0.0
H2540 H 0.09906 0.79977 0.60014 0.0
H2541 H 0.14325 0.72145 0.56861 0.0
H2542 H 0.16265 0.75839 0.5711 0.0
H2543 H 0.13507 0.74185 0.54612 0.0
H2544 H 0.28156 0.94299 0.58431 0.0
H2545 H 0.31414 0.92957 0.56607 0.0
H2546 H 0.33741 0.94757 0.59486 0.0
H2547 H 0.32875 0.96616 0.56993 0.0
H2548 H 0.27371 0.86693 0.60285 0.0
H2549 H 0.24214 0.92168 0.61383 0.0
H2550 H 0.21111 0.80497 0.59962 0.0
H2551 H 0.246 0.82023 0.59015 0.0
H2552 H 0.22013 0.81632 0.56511 0.0
H2553 H 0.1944 0.90477 0.61474 0.0
H2554 H 0.17098 0.8684 0.61072 0.0
H2555 H 0.18417 0.88876 0.58079 0.0
H2556 H 0.28259 0.9259 0.40782 0.0
H2557 H 0.25488 0.89069 0.43153 0.0
H2558 H 0.20224 0.92409 0.41635 0.0
H2559 H 0.22502 0.84631 0.47636 0.0
H2560 H 0.23659 0.84384 0.44295 0.0
H2561 H 0.20129 0.82317 0.45034 0.0
H2562 H 0.15998 0.906 0.43759 0.0
H2563 H 0.14981 0.87857 0.46158 0.0
H2564 H 0.14326 0.871 0.42507 0.0
H2565 H 0.02685 0.75047 0.3702 0.0
H2566 H 0.98071 0.73454 0.38774 0.0
H2567 H 0.00499 0.74689 0.41611 0.0
H2568 H 0.9843 0.71065 0.40993 0.0
H2569 H 0.06802 0.71498 0.42204 0.0
H2570 H 0.04864 0.7788 0.40737 0.0
H2571 H 0.10999 0.7395 0.47587 0.0
H2572 H 0.13503 0.76043 0.45192 0.0
H2573 H 0.11045 0.72542 0.44257 0.0
H2574 H 0.06673 0.81808 0.43819 0.0
H2575 H 0.09971 0.83146 0.42455 0.0
H2576 H 0.09544 0.82662 0.46121 0.0
H2577 H 0.16762 0.80828 0.61428 0.0
H2578 H 0.21622 0.87531 0.54618 0.0
H2579 H 0.20928 0.87962 0.49839 0.0
H2580 H 0.14276 0.82339 0.42824 0.0
H2581 H 0.08741 0.76365 0.49878 0.0
H2582 H 0.09442 0.7591 0.54713 0.0
H2583 H 0.31273 0.96414 0.44043 0.0
H2584 H 0.28202 0.93991 0.45614 0.0
H2585 H 0.28586 0.97221 0.44517 0.0
C2586 C 0.10022 0.39605 0.68354 0.0
C2587 C 0.07774 0.37798 0.66216 0.0
C2588 C 0.10287 0.36219 0.63321 0.0
C2589 C 0.11929 0.38733 0.62075 0.0
C2590 C 0.14089 0.3909 0.60454 0.0
C2591 C 0.1459 0.36878 0.60027 0.0
C2592 C 0.12869 0.34313 0.61177 0.0
C2593 C 0.10741 0.34021 0.6281 0.0
C2594 C 0.15875 0.4185 0.59244 0.0
C2595 C 0.13312 0.31897 0.60727 0.0
C2596 C 0.32698 0.41854 0.7013 0.0
C2597 C 0.30876 0.39535 0.68072 0.0
C2598 C 0.28721 0.40056 0.63903 0.0
C2599 C 0.26564 0.37373 0.63521 0.0
C2600 C 0.24283 0.36823 0.61857 0.0
C2601 C 0.24132 0.39013 0.60602 0.0
C2602 C 0.26295 0.41729 0.61017 0.0
C2603 C 0.28595 0.42204 0.62611 0.0
C2604 C 0.2204 0.33896 0.61435 0.0
C2605 C 0.26182 0.44131 0.5978 0.0
C2606 C 0.29519 0.40487 0.43346 0.0
C2607 C 0.27826 0.37791 0.44184 0.0
C2608 C 0.25304 0.37036 0.45294 0.0
C2609 C 0.24491 0.39031 0.45655 0.0
C2610 C 0.26166 0.41731 0.44774 0.0
C2611 C 0.28649 0.42414 0.43612 0.0
C2612 C 0.23526 0.34112 0.46124 0.0
C2613 C 0.25356 0.43908 0.45107 0.0
C2614 C 0.04708 0.35029 0.43067 0.0
C2615 C 0.06201 0.35727 0.40341 0.0
C2616 C 0.10129 0.35249 0.41758 0.0
C2617 C 0.11117 0.33409 0.4183 0.0
C2618 C 0.13415 0.33962 0.4347 0.0
C2619 C 0.14815 0.36473 0.45005 0.0
C2620 C 0.13905 0.3841 0.44833 0.0
C2621 C 0.11537 0.37751 0.43269 0.0
C2622 C 0.1432 0.31843 0.43583 0.0
C2623 C 0.15429 0.41182 0.46297 0.0
C2624 C 0.17003 0.37296 0.58515 0.0
C2625 C 0.19359 0.37941 0.60078 0.0
C2626 C 0.21736 0.38444 0.58809 0.0
C2627 C 0.21796 0.38364 0.55891 0.0
C2628 C 0.24165 0.38907 0.54545 0.0
C2629 C 0.24236 0.38925 0.51678 0.0
C2630 C 0.21917 0.38317 0.50036 0.0
C2631 C 0.21978 0.38341 0.47117 0.0
C2632 C 0.19641 0.37737 0.45545 0.0
C2633 C 0.17211 0.37062 0.46809 0.0
C2634 C 0.17106 0.37001 0.49732 0.0
C2635 C 0.14692 0.36286 0.51083 0.0
C2636 C 0.14649 0.36381 0.53957 0.0
C2637 C 0.17004 0.3713 0.55594 0.0
C2638 C 0.19426 0.3772 0.5428 0.0
C2639 C 0.19481 0.37674 0.51347 0.0
C2640 C 0.36353 0.41825 0.41927 0.0
C2641 C 0.33303 0.39826 0.41894 0.0
O2642 O 0.08284 0.35826 0.65054 0.0
O2643 O 0.07823 0.34525 0.40217 0.0
O2644 O 0.3197 0.41317 0.42231 0.0
O2645 O 0.30944 0.40624 0.65505 0.0
H2646 H 0.07618 0.39085 0.6457 0.0
H2647 H 0.10246 0.38327 0.69963 0.0
H2648 H 0.09548 0.41102 0.69367 0.0
H2649 H 0.1199 0.40782 0.67359 0.0
H2650 H 0.11568 0.40438 0.62388 0.0
H2651 H 0.0945 0.3208 0.63749 0.0
H2652 H 0.18007 0.42633 0.59969 0.0
H2653 H 0.15259 0.43385 0.59819 0.0
H2654 H 0.15798 0.41637 0.56955 0.0
H2655 H 0.11633 0.29972 0.61505 0.0
H2656 H 0.15225 0.32308 0.61818 0.0
H2657 H 0.1352 0.31601 0.5849 0.0
H2658 H 0.28795 0.38574 0.68878 0.0
H2659 H 0.32695 0.41026 0.72206 0.0
H2660 H 0.31938 0.43333 0.7032 0.0
H2661 H 0.34808 0.4297 0.69422 0.0
H2662 H 0.26678 0.35702 0.64486 0.0
H2663 H 0.30276 0.44268 0.62919 0.0
H2664 H 0.2149 0.33409 0.59199 0.0
H2665 H 0.20217 0.33631 0.62487 0.0
H2666 H 0.22607 0.32406 0.62278 0.0
H2667 H 0.27798 0.46122 0.60675 0.0
H2668 H 0.24186 0.43978 0.60115 0.0
H2669 H 0.26436 0.44114 0.57516 0.0
H2670 H 0.32942 0.38466 0.43671 0.0
H2671 H 0.2844 0.36255 0.43975 0.0
H2672 H 0.29949 0.44478 0.42933 0.0
H2673 H 0.23483 0.34031 0.48413 0.0
H2674 H 0.2426 0.32728 0.45352 0.0
H2675 H 0.21417 0.33337 0.45319 0.0
H2676 H 0.26933 0.45938 0.44412 0.0
H2677 H 0.24962 0.4411 0.4731 0.0
H2678 H 0.2345 0.43293 0.43887 0.0
H2679 H 0.07402 0.37971 0.4025 0.0
H2680 H 0.06165 0.35964 0.44855 0.0
H2681 H 0.03559 0.32775 0.43323 0.0
H2682 H 0.03282 0.35851 0.43112 0.0
H2683 H 0.10034 0.31495 0.40644 0.0
H2684 H 0.1083 0.39222 0.43221 0.0
H2685 H 0.14698 0.31486 0.45762 0.0
H2686 H 0.16249 0.32606 0.42502 0.0
H2687 H 0.12806 0.29858 0.42584 0.0
H2688 H 0.1471 0.42603 0.45604 0.0
H2689 H 0.17629 0.4213 0.45941 0.0
H2690 H 0.15155 0.40945 0.48556 0.0
H2691 H 0.19341 0.38049 0.62318 0.0
H2692 H 0.26009 0.39362 0.55691 0.0
H2693 H 0.26138 0.39418 0.50769 0.0
H2694 H 0.19715 0.37796 0.43307 0.0
H2695 H 0.12813 0.35679 0.49933 0.0
H2696 H 0.12746 0.35857 0.54883 0.0
H2697 H 0.37493 0.4069 0.41796 0.0
H2698 H 0.36993 0.4307 0.43887 0.0
H2699 H 0.3687 0.43232 0.40168 0.0
loop_
_geom_bond_atom_site_label_1
_geom_bond_atom_site_label_2
_geom_bond_distance
_geom_bond_site_symmetry_2
_ccdc_geom_bond_type
Mn0 O5 2.095 1_655 S
Mn0 O15 2.164 . S
Mn0 O16 2.297 1_554 S
Mn0 O24 2.385 1_554 S
Mn0 O25 2.209 1_654 S
Mn0 O26 2.094 . S
Mn1 O6 2.121 . S
Mn1 N8 2.257 1_554 S
Mn1 N17 2.282 . S
Mn1 O25 2.215 1_554 S
Mn1 O27 2.117 . S
C2 O24 1.234 1_455 S
C2 O25 1.283 . S
C3 O15 1.267 1_556 S
C3 O16 1.236 . S
C4 O26 1.240 . S
C4 O27 1.264 1_655 S
O5 Mn0 2.095 1_455 S
O5 C14 1.250 . S
O6 Mn1 2.121 . S
O6 C14 1.258 . S
C7 N8 1.326 . S
C7 C11 1.460 . S
C7 H13 0.929 . S
N8 Mn1 2.257 1_556 S
N8 C7 1.326 . S
N8 C12 1.362 . S
C9 C10 1.258 . S
C9 C12 1.431 . S
C9 C29 1.449 . S
C10 C9 1.258 . S
C10 C11 1.477 . S
C10 H30 0.931 . S
C11 C7 1.460 . S
C11 C10 1.477 . S
C11 H31 0.930 . S
C12 N8 1.362 . S
C12 C9 1.431 . S
C12 C22 1.476 . S
H13 C7 0.929 . S
C14 O5 1.250 . S
C14 O6 1.258 . S
O15 Mn0 2.164 . S
O15 C3 1.267 1_554 S
O16 Mn0 2.297 1_556 S
O16 C3 1.236 . S
N17 Mn1 2.282 . S
N17 C18 1.328 . S
N17 C22 1.318 1_554 S
C18 N17 1.328 . S
C18 C19 1.457 1_554 S
C18 H23 0.929 . S
C19 C18 1.457 1_556 S
C19 C20 1.291 . S
C19 H32 0.931 . S
C20 C19 1.291 . S
C20 C21 1.373 . S
C20 H33 0.929 . S
C21 C20 1.373 . S
C21 C22 1.396 . S
C21 C28 1.403 . S
C22 C12 1.476 . S
C22 N17 1.318 1_556 S
C22 C21 1.396 . S
H23 C18 0.929 . S
O24 Mn0 2.385 1_556 S
O24 C2 1.234 1_655 S
O25 Mn0 2.209 1_456 S
O25 Mn1 2.215 1_556 S
O25 C2 1.283 . S
O26 Mn0 2.094 . S
O26 C4 1.240 . S
O27 Mn1 2.117 . S
O27 C4 1.264 1_455 S
C28 C21 1.403 . S
C28 C29 1.399 . S
C28 H34 0.929 . S
C29 C9 1.449 . S
C29 C28 1.399 . S
C29 H35 0.930 . S
H30 C10 0.931 . S
H31 C11 0.930 . S
H32 C19 0.931 . S
H33 C20 0.929 . S
H34 C28 0.929 . S
H35 C29 0.930 . S
Mn36 O41 2.095 1_554 S
Mn36 O51 2.162 . S
Mn36 O52 2.297 . S
Mn36 O60 2.385 . S
Mn36 O61 2.209 . S
Mn36 O62 2.094 1_554 S
Mn37 O42 2.121 . S
Mn37 N44 2.257 1_556 S
Mn37 N53 2.282 1_556 S
Mn37 O61 2.215 1_556 S
Mn37 O63 2.117 . S
C38 O60 1.234 . S
C38 O61 1.283 . S
C39 O51 1.281 . S
C39 O52 1.236 . S
C40 O62 1.240 . S
C40 O63 1.264 . S
O41 Mn36 2.095 1_556 S
O41 C50 1.250 . S
O42 Mn37 2.121 . S
O42 C50 1.258 . S
C43 N44 1.326 . S
C43 C47 1.460 . S
C43 H49 0.929 . S
N44 Mn37 2.257 1_554 S
N44 C43 1.326 . S
N44 C48 1.362 . S
C45 C46 1.258 . S
C45 C48 1.431 . S
C45 C65 1.449 . S
C46 C45 1.258 . S
C46 C47 1.477 . S
C46 H66 0.931 . S
C47 C43 1.460 . S
C47 C46 1.477 . S
C47 H67 0.930 . S
C48 N44 1.362 . S
C48 C45 1.431 . S
C48 C58 1.476 . S
H49 C43 0.929 . S
C50 O41 1.250 . S
C50 O42 1.258 . S
O51 Mn36 2.162 . S
O51 C39 1.281 . S
O52 Mn36 2.297 . S
O52 C39 1.236 . S
N53 Mn37 2.282 1_554 S
N53 C54 1.328 . S
N53 C58 1.318 . S
C54 N53 1.328 . S
C54 C55 1.457 . S
C54 H59 0.929 . S
C55 C54 1.457 . S
C55 C56 1.291 . S
C55 H68 0.931 . S
C56 C55 1.291 . S
C56 C57 1.373 . S
C56 H69 0.929 . S
C57 C56 1.373 . S
C57 C58 1.396 . S
C57 C64 1.403 . S
C58 C48 1.476 . S
C58 N53 1.318 . S
C58 C57 1.396 . S
H59 C54 0.929 . S
O60 Mn36 2.385 . S
O60 C38 1.234 . S
O61 Mn36 2.209 . S
O61 Mn37 2.215 1_554 S
O61 C38 1.283 . S
O62 Mn36 2.094 1_556 S
O62 C40 1.240 . S
O63 Mn37 2.117 . S
O63 C40 1.264 . S
C64 C57 1.403 . S
C64 C65 1.399 . S
C64 H70 0.929 . S
C65 C45 1.449 . S
C65 C64 1.399 . S
C65 H71 0.930 . S
H66 C46 0.931 . S
H67 C47 0.930 . S
H68 C55 0.931 . S
H69 C56 0.929 . S
H70 C64 0.929 . S
H71 C65 0.930 . S
Mn72 O77 2.095 1_564 S
Mn72 O87 2.162 . S
Mn72 O88 2.297 . S
Mn72 O96 2.385 . S
Mn72 O97 2.209 1_565 S
Mn72 O98 2.094 1_554 S
Mn73 O78 2.125 . S
Mn73 N80 2.246 1_556 S
Mn73 N89 2.275 1_556 S
Mn73 O97 2.201 1_556 S
Mn73 O99 2.128 . S
C74 O96 1.234 1_545 S
C74 O97 1.283 . S
C75 O87 1.281 . S
C75 O88 1.236 . S
C76 O98 1.240 . S
C76 O99 1.264 1_565 S
O77 Mn72 2.095 1_546 S
O77 C86 1.250 . S
O78 Mn73 2.125 . S
O78 C86 1.258 . S
C79 N80 1.326 . S
C79 C83 1.460 . S
C79 H85 0.929 . S
N80 Mn73 2.246 1_554 S
N80 C79 1.326 . S
N80 C84 1.362 . S
C81 C82 1.258 . S
C81 C84 1.431 . S
C81 C101 1.449 . S
C82 C81 1.258 . S
C82 C83 1.477 . S
C82 H102 0.931 . S
C83 C79 1.460 . S
C83 C82 1.477 . S
C83 H103 0.930 . S
C84 N80 1.362 . S
C84 C81 1.431 . S
C84 C94 1.476 . S
H85 C79 0.929 . S
C86 O77 1.250 . S
C86 O78 1.258 . S
O87 Mn72 2.162 . S
O87 C75 1.281 . S
O88 Mn72 2.297 . S
O88 C75 1.236 . S
N89 Mn73 2.275 1_554 S
N89 C90 1.328 . S
N89 C94 1.318 . S
C90 N89 1.328 . S
C90 C91 1.457 . S
C90 H95 0.929 . S
C91 C90 1.457 . S
C91 C92 1.291 . S
C91 H104 0.931 . S
C92 C91 1.291 . S
C92 C93 1.373 . S
C92 H105 0.929 . S
C93 C92 1.373 . S
C93 C94 1.396 . S
C93 C100 1.403 . S
C94 C84 1.476 . S
C94 N89 1.318 . S
C94 C93 1.396 . S
H95 C90 0.929 . S
O96 Mn72 2.385 . S
O96 C74 1.234 1_565 S
O97 Mn72 2.209 1_545 S
O97 Mn73 2.201 1_554 S
O97 C74 1.283 . S
O98 Mn72 2.094 1_556 S
O98 C76 1.240 . S
O99 Mn73 2.128 . S
O99 C76 1.264 1_545 S
C100 C93 1.403 . S
C100 C101 1.399 . S
C100 H106 0.929 . S
C101 C81 1.449 . S
C101 C100 1.399 . S
C101 H107 0.930 . S
H102 C82 0.931 . S
H103 C83 0.930 . S
H104 C91 0.931 . S
H105 C92 0.929 . S
H106 C100 0.929 . S
H107 C101 0.930 . S
Mn108 O113 2.095 1_655 S
Mn108 O123 2.162 . S
Mn108 O124 2.297 1_554 S
Mn108 O132 2.385 1_554 S
Mn108 O133 2.209 1_654 S
Mn108 O134 2.094 . S
Mn109 O114 2.121 . S
Mn109 N116 2.257 1_554 S
Mn109 N125 2.282 . S
Mn109 O133 2.215 1_554 S
Mn109 O135 2.117 . S
C110 O132 1.234 1_455 S
C110 O133 1.283 . S
C111 O123 1.281 1_556 S
C111 O124 1.236 . S
C112 O134 1.240 . S
C112 O135 1.264 1_655 S
O113 Mn108 2.095 1_455 S
O113 C122 1.250 . S
O114 Mn109 2.121 . S
O114 C122 1.258 . S
C115 N116 1.326 . S
C115 C119 1.460 . S
C115 H121 0.929 1_556 S
N116 Mn109 2.257 1_556 S
N116 C115 1.326 . S
N116 C120 1.362 . S
C117 C118 1.258 . S
C117 C120 1.431 . S
C117 C137 1.449 . S
C118 C117 1.258 . S
C118 C119 1.477 . S
C118 H138 0.931 . S
C119 C115 1.460 . S
C119 C118 1.477 . S
C119 H139 0.930 . S
C120 N116 1.362 . S
C120 C117 1.431 . S
C120 C130 1.476 . S
H121 C115 0.929 1_554 S
C122 O113 1.250 . S
C122 O114 1.258 . S
O123 Mn108 2.162 . S
O123 C111 1.281 1_554 S
O124 Mn108 2.297 1_556 S
O124 C111 1.236 . S
N125 Mn109 2.282 . S
N125 C126 1.328 . S
N125 C130 1.318 1_554 S
C126 N125 1.328 . S
C126 C127 1.457 1_554 S
C126 H131 0.929 . S
C127 C126 1.457 1_556 S
C127 C128 1.291 . S
C127 H140 0.931 1_556 S
C128 C127 1.291 . S
C128 C129 1.373 . S
C128 H141 0.929 . S
C129 C128 1.373 . S
C129 C130 1.396 . S
C129 C136 1.403 . S
C130 C120 1.476 . S
C130 N125 1.318 1_556 S
C130 C129 1.396 . S
H131 C126 0.929 . S
O132 Mn108 2.385 1_556 S
O132 C110 1.234 1_655 S
O133 Mn108 2.209 1_456 S
O133 Mn109 2.215 1_556 S
O133 C110 1.283 . S
O134 Mn108 2.094 . S
O134 C112 1.240 . S
O135 Mn109 2.117 . S
O135 C112 1.264 1_455 S
C136 C129 1.403 . S
C136 C137 1.399 . S
C136 H142 0.929 . S
C137 C117 1.449 . S
C137 C136 1.399 . S
C137 H143 0.930 . S
H138 C118 0.931 . S
H139 C119 0.930 . S
H140 C127 0.931 1_554 S
H141 C128 0.929 . S
H142 C136 0.929 . S
H143 C137 0.930 . S
Mn144 O149 2.095 1_554 S
Mn144 O159 2.162 . S
Mn144 O160 2.297 . S
Mn144 O168 2.385 . S
Mn144 O169 2.209 . S
Mn144 O170 2.094 1_554 S
Mn145 O150 2.121 . S
Mn145 N152 2.257 1_556 S
Mn145 N161 2.282 1_556 S
Mn145 O169 2.215 1_556 S
Mn145 O171 2.117 . S
C146 O168 1.234 . S
C146 O169 1.283 . S
C147 O159 1.281 . S
C147 O160 1.236 . S
C148 O170 1.240 . S
C148 O171 1.264 . S
O149 Mn144 2.095 1_556 S
O149 C158 1.250 . S
O150 Mn145 2.121 . S
O150 C158 1.258 . S
C151 N152 1.326 . S
C151 C155 1.460 . S
C151 H157 0.929 . S
N152 Mn145 2.257 1_554 S
N152 C151 1.326 . S
N152 C156 1.362 . S
C153 C154 1.258 . S
C153 C156 1.431 . S
C153 C173 1.449 . S
C154 C153 1.258 . S
C154 C155 1.477 . S
C154 H174 0.931 . S
C155 C151 1.460 . S
C155 C154 1.477 . S
C155 H175 0.930 . S
C156 N152 1.362 . S
C156 C153 1.431 . S
C156 C166 1.476 . S
H157 C151 0.929 . S
C158 O149 1.250 . S
C158 O150 1.258 . S
O159 Mn144 2.162 . S
O159 C147 1.281 . S
O160 Mn144 2.297 . S
O160 C147 1.236 . S
N161 Mn145 2.282 1_554 S
N161 C162 1.328 . S
N161 C166 1.318 . S
C162 N161 1.328 . S
C162 C163 1.457 . S
C162 H167 0.929 1_554 S
C163 C162 1.457 . S
C163 C164 1.291 . S
C163 H176 0.931 . S
C164 C163 1.291 . S
C164 C165 1.373 . S
C164 H177 0.929 . S
C165 C164 1.373 . S
C165 C166 1.396 . S
C165 C172 1.403 . S
C166 C156 1.476 . S
C166 N161 1.318 . S
C166 C165 1.396 . S
H167 C162 0.929 1_556 S
O168 Mn144 2.385 . S
O168 C146 1.234 . S
O169 Mn144 2.209 . S
O169 Mn145 2.215 1_554 S
O169 C146 1.283 . S
O170 Mn144 2.094 1_556 S
O170 C148 1.240 . S
O171 Mn145 2.117 . S
O171 C148 1.264 . S
C172 C165 1.403 . S
C172 C173 1.399 . S
C172 H178 0.929 . S
C173 C153 1.449 . S
C173 C172 1.399 . S
C173 H179 0.930 . S
H174 C154 0.931 . S
H175 C155 0.930 . S
H176 C163 0.931 . S
H177 C164 0.929 . S
H178 C172 0.929 . S
H179 C173 0.930 . S
Mn180 O185 2.095 1_545 S
Mn180 O195 2.162 . S
Mn180 O196 2.297 1_554 S
Mn180 O204 2.385 1_554 S
Mn180 O205 2.209 1_544 S
Mn180 O206 2.094 . S
Mn181 O186 2.121 . S
Mn181 N188 2.257 1_554 S
Mn181 N197 2.282 . S
Mn181 O205 2.215 1_554 S
Mn181 O207 2.117 . S
C182 O204 1.234 1_565 S
C182 O205 1.283 . S
C183 O195 1.281 1_556 S
C183 O196 1.236 . S
C184 O206 1.240 . S
C184 O207 1.264 1_545 S
O185 Mn180 2.095 1_565 S
O185 C194 1.250 . S
O186 Mn181 2.121 . S
O186 C194 1.258 . S
C187 N188 1.326 . S
C187 C191 1.460 . S
C187 H193 0.929 1_556 S
N188 Mn181 2.257 1_556 S
N188 C187 1.326 . S
N188 C192 1.362 . S
C189 C190 1.258 . S
C189 C192 1.431 . S
C189 C209 1.449 . S
C190 C189 1.258 . S
C190 C191 1.477 . S
C190 H210 0.931 . S
C191 C187 1.460 . S
C191 C190 1.477 . S
C191 H211 0.930 . S
C192 N188 1.362 . S
C192 C189 1.431 . S
C192 C202 1.476 . S
H193 C187 0.929 1_554 S
C194 O185 1.250 . S
C194 O186 1.258 . S
O195 Mn180 2.162 . S
O195 C183 1.281 1_554 S
O196 Mn180 2.297 1_556 S
O196 C183 1.236 . S
N197 Mn181 2.282 . S
N197 C198 1.328 . S
N197 C202 1.318 1_554 S
C198 N197 1.328 . S
C198 C199 1.457 1_554 S
C198 H203 0.929 . S
C199 C198 1.457 1_556 S
C199 C200 1.291 . S
C199 H212 0.931 . S
C200 C199 1.291 . S
C200 C201 1.373 . S
C200 H213 0.929 . S
C201 C200 1.373 . S
C201 C202 1.396 . S
C201 C208 1.403 . S
C202 C192 1.476 . S
C202 N197 1.318 1_556 S
C202 C201 1.396 . S
H203 C198 0.929 . S
O204 Mn180 2.385 1_556 S
O204 C182 1.234 1_545 S
O205 Mn180 2.209 1_566 S
O205 Mn181 2.215 1_556 S
O205 C182 1.283 . S
O206 Mn180 2.094 . S
O206 C184 1.240 . S
O207 Mn181 2.117 . S
O207 C184 1.264 1_565 S
C208 C201 1.403 . S
C208 C209 1.399 . S
C208 H214 0.929 . S
C209 C189 1.449 . S
C209 C208 1.399 . S
C209 H215 0.930 . S
H210 C190 0.931 . S
H211 C191 0.930 . S
H212 C199 0.931 . S
H213 C200 0.929 . S
H214 C208 0.929 . S
H215 C209 0.930 . S
Mn216 O221 2.095 . S
Mn216 O231 2.162 . S
Mn216 O232 2.297 . S
Mn216 O240 2.385 . S
Mn216 O241 2.209 . S
Mn216 O242 2.094 . S
Mn217 O222 2.121 . S
Mn217 N224 2.257 . S
Mn217 N233 2.282 . S
Mn217 O241 2.215 . S
Mn217 O243 2.117 . S
C218 O240 1.234 . S
C218 O241 1.283 . S
C219 O231 1.281 . S
C219 O232 1.236 . S
C220 O242 1.240 . S
C220 O243 1.264 . S
O221 Mn216 2.095 . S
O221 C230 1.250 . S
O222 Mn217 2.121 . S
O222 C230 1.258 . S
C223 N224 1.326 . S
C223 C227 1.460 . S
C223 H229 0.929 . S
N224 Mn217 2.257 . S
N224 C223 1.326 . S
N224 C228 1.362 . S
C225 C226 1.258 . S
C225 C228 1.431 . S
C225 C245 1.449 . S
C226 C225 1.258 . S
C226 C227 1.477 . S
C226 H246 0.931 . S
C227 C223 1.460 . S
C227 C226 1.477 . S
C227 H247 0.930 . S
C228 N224 1.362 . S
C228 C225 1.431 . S
C228 C238 1.476 . S
H229 C223 0.929 . S
C230 O221 1.250 . S
C230 O222 1.258 . S
O231 Mn216 2.162 . S
O231 C219 1.281 . S
O232 Mn216 2.297 . S
O232 C219 1.236 . S
N233 Mn217 2.282 . S
N233 C234 1.328 . S
N233 C238 1.318 . S
C234 N233 1.328 . S
C234 C235 1.457 . S
C234 H239 0.929 . S
C235 C234 1.457 . S
C235 C236 1.291 . S
C235 H248 0.931 . S
C236 C235 1.291 . S
C236 C237 1.373 . S
C236 H249 0.929 . S
C237 C236 1.373 . S
C237 C238 1.396 . S
C237 C244 1.403 . S
C238 C228 1.476 . S
C238 N233 1.318 . S
C238 C237 1.396 . S
H239 C234 0.929 . S
O240 Mn216 2.385 . S
O240 C218 1.234 . S
O241 Mn216 2.209 . S
O241 Mn217 2.215 . S
O241 C218 1.283 . S
O242 Mn216 2.094 . S
O242 C220 1.240 . S
O243 Mn217 2.117 . S
O243 C220 1.264 . S
C244 C237 1.403 . S
C244 C245 1.399 . S
C244 H250 0.929 . S
C245 C225 1.449 . S
C245 C244 1.399 . S
C245 H251 0.930 . S
H246 C226 0.931 . S
H247 C227 0.930 . S
H248 C235 0.931 . S
H249 C236 0.929 . S
H250 C244 0.929 . S
H251 C245 0.930 . S
Mn252 O257 2.095 . S
Mn252 O267 2.162 1_565 S
Mn252 O268 2.297 1_565 S
Mn252 O276 2.385 . S
Mn252 O277 2.209 . S
Mn252 O278 2.094 . S
Mn253 O258 2.121 . S
Mn253 N260 2.257 . S
Mn253 N269 2.282 . S
Mn253 O277 2.215 . S
Mn253 O279 2.117 . S
C254 O276 1.234 . S
C254 O277 1.283 . S
C255 O267 1.281 . S
C255 O268 1.236 . S
C256 O278 1.240 . S
C256 O279 1.264 . S
O257 Mn252 2.095 . S
O257 C266 1.250 . S
O258 Mn253 2.121 . S
O258 C266 1.258 . S
C259 N260 1.326 . S
C259 C263 1.460 . S
C259 H265 0.929 . S
N260 Mn253 2.257 . S
N260 C259 1.326 . S
N260 C264 1.362 . S
C261 C262 1.258 . S
C261 C264 1.431 . S
C261 C281 1.449 . S
C262 C261 1.258 . S
C262 C263 1.477 . S
C262 H282 0.931 . S
C263 C259 1.460 . S
C263 C262 1.477 . S
C263 H283 0.930 . S
C264 N260 1.362 . S
C264 C261 1.431 . S
C264 C274 1.476 . S
H265 C259 0.929 . S
C266 O257 1.250 . S
C266 O258 1.258 . S
O267 Mn252 2.162 1_545 S
O267 C255 1.281 . S
O268 Mn252 2.297 1_545 S
O268 C255 1.236 . S
N269 Mn253 2.282 . S
N269 C270 1.328 . S
N269 C274 1.318 . S
C270 N269 1.328 . S
C270 C271 1.457 . S
C270 H275 0.929 . S
C271 C270 1.457 . S
C271 C272 1.291 . S
C271 H284 0.931 . S
C272 C271 1.291 . S
C272 C273 1.373 . S
C272 H285 0.929 . S
C273 C272 1.373 . S
C273 C274 1.396 . S
C273 C280 1.403 . S
C274 C264 1.476 . S
C274 N269 1.318 . S
C274 C273 1.396 . S
H275 C270 0.929 . S
O276 Mn252 2.385 . S
O276 C254 1.234 . S
O277 Mn252 2.209 . S
O277 Mn253 2.215 . S
O277 C254 1.283 . S
O278 Mn252 2.094 . S
O278 C256 1.240 . S
O279 Mn253 2.117 . S
O279 C256 1.264 . S
C280 C273 1.403 . S
C280 C281 1.399 . S
C280 H286 0.929 . S
C281 C261 1.449 . S
C281 C280 1.399 . S
C281 H287 0.930 . S
H282 C262 0.931 . S
H283 C263 0.930 . S
H284 C271 0.931 . S
H285 C272 0.929 . S
H286 C280 0.929 . S
H287 C281 0.930 . S
Mn288 O293 2.095 . S
Mn288 O303 2.162 1_455 S
Mn288 O304 2.297 1_455 S
Mn288 O312 2.385 . S
Mn288 O313 2.209 . S
Mn288 O314 2.094 . S
Mn289 O294 2.121 . S
Mn289 N296 2.257 . S
Mn289 N305 2.282 . S
Mn289 O313 2.215 . S
Mn289 O315 2.117 . S
C290 O312 1.234 . S
C290 O313 1.283 . S
C291 O303 1.281 . S
C291 O304 1.236 . S
C292 O314 1.240 . S
C292 O315 1.264 . S
O293 Mn288 2.095 . S
O293 C302 1.250 . S
O294 Mn289 2.121 . S
O294 C302 1.258 . S
C295 N296 1.326 . S
C295 C299 1.460 . S
C295 H301 0.929 . S
N296 Mn289 2.257 . S
N296 C295 1.326 . S
N296 C300 1.362 . S
C297 C298 1.258 . S
C297 C300 1.431 . S
C297 C317 1.449 . S
C298 C297 1.258 . S
C298 C299 1.477 . S
C298 H318 0.931 . S
C299 C295 1.460 . S
C299 C298 1.477 . S
C299 H319 0.930 . S
C300 N296 1.362 . S
C300 C297 1.431 . S
C300 C310 1.476 . S
H301 C295 0.929 . S
C302 O293 1.250 . S
C302 O294 1.258 . S
O303 Mn288 2.162 1_655 S
O303 C291 1.281 . S
O304 Mn288 2.297 1_655 S
O304 C291 1.236 . S
N305 Mn289 2.282 . S
N305 C306 1.328 . S
N305 C310 1.318 . S
C306 N305 1.328 . S
C306 C307 1.457 . S
C306 H311 0.929 . S
C307 C306 1.457 . S
C307 C308 1.291 . S
C307 H320 0.931 . S
C308 C307 1.291 . S
C308 C309 1.373 . S
C308 H321 0.929 . S
C309 C308 1.373 . S
C309 C310 1.396 . S
C309 C316 1.403 . S
C310 C300 1.476 . S
C310 N305 1.318 . S
C310 C309 1.396 . S
H311 C306 0.929 . S
O312 Mn288 2.385 . S
O312 C290 1.234 . S
O313 Mn288 2.209 . S
O313 Mn289 2.215 . S
O313 C290 1.283 . S
O314 Mn288 2.094 . S
O314 C292 1.240 . S
O315 Mn289 2.117 . S
O315 C292 1.264 . S
C316 C309 1.403 . S
C316 C317 1.399 . S
C316 H322 0.929 . S
C317 C297 1.449 . S
C317 C316 1.399 . S
C317 H323 0.930 . S
H318 C298 0.931 . S
H319 C299 0.930 . S
H320 C307 0.931 . S
H321 C308 0.929 . S
H322 C316 0.929 . S
H323 C317 0.930 . S
Mn324 O329 2.095 1_565 S
Mn324 O339 2.162 . S
Mn324 O340 2.297 1_565 S
Mn324 O348 2.385 . S
Mn324 O349 2.209 . S
Mn324 O350 2.094 . S
Mn325 O330 2.121 1_565 S
Mn325 N332 2.256 . S
Mn325 N341 2.282 . S
Mn325 O349 2.215 . S
Mn325 O351 2.117 . S
C326 O348 1.234 . S
C326 O349 1.283 . S
C327 O339 1.281 . S
C327 O340 1.236 1_565 S
C328 O350 1.240 . S
C328 O351 1.264 . S
O329 Mn324 2.095 1_545 S
O329 C338 1.250 . S
O330 Mn325 2.121 1_545 S
O330 C338 1.258 . S
C331 N332 1.295 1_545 S
C331 C335 1.460 . S
C331 H337 0.929 . S
N332 Mn325 2.256 . S
N332 C331 1.295 1_565 S
N332 C336 1.399 . S
C333 C334 1.258 1_565 S
C333 C336 1.431 . S
C333 C353 1.449 . S
C334 C333 1.258 1_545 S
C334 C335 1.477 . S
C334 H354 0.931 . S
C335 C331 1.460 . S
C335 C334 1.477 . S
C335 H355 0.930 . S
C336 N332 1.399 . S
C336 C333 1.431 . S
C336 C346 1.476 . S
H337 C331 0.929 . S
C338 O329 1.250 . S
C338 O330 1.258 . S
O339 Mn324 2.162 . S
O339 C327 1.281 . S
O340 Mn324 2.297 1_545 S
O340 C327 1.236 1_545 S
N341 Mn325 2.282 . S
N341 C342 1.328 . S
N341 C346 1.318 . S
C342 N341 1.328 . S
C342 C343 1.457 . S
C342 H347 0.929 . S
C343 C342 1.457 . S
C343 C344 1.291 . S
C343 H356 0.931 . S
C344 C343 1.291 . S
C344 C345 1.373 . S
C344 H357 0.929 . S
C345 C344 1.373 . S
C345 C346 1.396 . S
C345 C352 1.403 . S
C346 C336 1.476 . S
C346 N341 1.318 . S
C346 C345 1.396 . S
H347 C342 0.929 . S
O348 Mn324 2.385 . S
O348 C326 1.234 . S
O349 Mn324 2.209 . S
O349 Mn325 2.215 . S
O349 C326 1.283 . S
O350 Mn324 2.094 . S
O350 C328 1.240 . S
O351 Mn325 2.117 . S
O351 C328 1.264 . S
C352 C345 1.403 . S
C352 C353 1.399 . S
C352 H358 0.929 . S
C353 C333 1.449 . S
C353 C352 1.399 . S
C353 H359 0.930 . S
H354 C334 0.931 . S
H355 C335 0.930 . S
H356 C343 0.931 . S
H357 C344 0.929 . S
H358 C352 0.929 . S
H359 C353 0.930 . S
Mn360 O365 2.095 . S
Mn360 O375 2.162 1_455 S
Mn360 O376 2.297 1_455 S
Mn360 O384 2.385 . S
Mn360 O385 2.209 . S
Mn360 O386 2.094 . S
Mn361 O366 2.121 . S
Mn361 N368 2.257 . S
Mn361 N377 2.282 . S
Mn361 O385 2.215 . S
Mn361 O387 2.117 . S
C362 O384 1.234 . S
C362 O385 1.283 . S
C363 O375 1.281 . S
C363 O376 1.236 . S
C364 O386 1.240 . S
C364 O387 1.264 . S
O365 Mn360 2.095 . S
O365 C374 1.250 . S
O366 Mn361 2.121 . S
O366 C374 1.258 . S
C367 N368 1.326 . S
C367 C371 1.460 . S
C367 H373 0.929 . S
N368 Mn361 2.257 . S
N368 C367 1.326 . S
N368 C372 1.362 . S
C369 C370 1.258 . S
C369 C372 1.431 . S
C369 C389 1.449 . S
C370 C369 1.258 . S
C370 C371 1.477 . S
C370 H390 0.931 . S
C371 C367 1.460 . S
C371 C370 1.477 . S
C371 H391 0.930 . S
C372 N368 1.362 . S
C372 C369 1.431 . S
C372 C382 1.476 . S
H373 C367 0.929 . S
C374 O365 1.250 . S
C374 O366 1.258 . S
O375 Mn360 2.162 1_655 S
O375 C363 1.281 . S
O376 Mn360 2.297 1_655 S
O376 C363 1.236 . S
N377 Mn361 2.282 . S
N377 C378 1.328 . S
N377 C382 1.318 . S
C378 N377 1.328 . S
C378 C379 1.457 . S
C378 H383 0.929 . S
C379 C378 1.457 . S
C379 C380 1.291 . S
C379 H392 0.931 . S
C380 C379 1.291 . S
C380 C381 1.373 . S
C380 H393 0.929 . S
C381 C380 1.373 . S
C381 C382 1.396 . S
C381 C388 1.403 . S
C382 C372 1.476 . S
C382 N377 1.318 . S
C382 C381 1.396 . S
H383 C378 0.929 . S
O384 Mn360 2.385 . S
O384 C362 1.234 . S
O385 Mn360 2.209 . S
O385 Mn361 2.215 . S
O385 C362 1.283 . S
O386 Mn360 2.094 . S
O386 C364 1.240 . S
O387 Mn361 2.117 . S
O387 C364 1.264 . S
C388 C381 1.403 . S
C388 C389 1.399 . S
C388 H394 0.929 . S
C389 C369 1.449 . S
C389 C388 1.399 . S
C389 H395 0.930 . S
H390 C370 0.931 . S
H391 C371 0.930 . S
H392 C379 0.931 . S
H393 C380 0.929 . S
H394 C388 0.929 . S
H395 C389 0.930 . S
Mn396 O401 2.095 . S
Mn396 O411 2.162 . S
Mn396 O412 2.297 . S
Mn396 O420 2.385 . S
Mn396 O421 2.209 . S
Mn396 O422 2.094 . S
Mn397 O402 2.121 . S
Mn397 N404 2.257 . S
Mn397 N413 2.282 . S
Mn397 O421 2.215 . S
Mn397 O423 2.117 . S
C398 O420 1.234 . S
C398 O421 1.283 . S
C399 O411 1.281 . S
C399 O412 1.236 . S
C400 O422 1.240 . S
C400 O423 1.264 . S
O401 Mn396 2.095 . S
O401 C410 1.250 . S
O402 Mn397 2.121 . S
O402 C410 1.258 . S
C403 N404 1.326 . S
C403 C407 1.460 . S
C403 H409 0.929 . S
N404 Mn397 2.257 . S
N404 C403 1.326 . S
N404 C408 1.362 . S
C405 C406 1.258 . S
C405 C408 1.431 . S
C405 C425 1.449 . S
C406 C405 1.258 . S
C406 C407 1.477 . S
C406 H426 0.931 . S
C407 C403 1.460 . S
C407 C406 1.477 . S
C407 H427 0.930 . S
C408 N404 1.362 . S
C408 C405 1.431 . S
C408 C418 1.476 . S
H409 C403 0.929 . S
C410 O401 1.250 . S
C410 O402 1.258 . S
O411 Mn396 2.162 . S
O411 C399 1.281 . S
O412 Mn396 2.297 . S
O412 C399 1.236 . S
N413 Mn397 2.282 . S
N413 C414 1.328 . S
N413 C418 1.318 . S
C414 N413 1.328 . S
C414 C415 1.457 . S
C414 H419 0.929 . S
C415 C414 1.457 . S
C415 C416 1.291 . S
C415 H428 0.931 . S
C416 C415 1.291 . S
C416 C417 1.373 . S
C416 H429 0.929 . S
C417 C416 1.373 . S
C417 C418 1.396 . S
C417 C424 1.403 . S
C418 C408 1.476 . S
C418 N413 1.318 . S
C418 C417 1.396 . S
H419 C414 0.929 . S
O420 Mn396 2.385 . S
O420 C398 1.234 . S
O421 Mn396 2.209 . S
O421 Mn397 2.215 . S
O421 C398 1.283 . S
O422 Mn396 2.094 . S
O422 C400 1.240 . S
O423 Mn397 2.117 . S
O423 C400 1.264 . S
C424 C417 1.403 . S
C424 C425 1.399 . S
C424 H430 0.929 . S
C425 C405 1.449 . S
C425 C424 1.399 . S
C425 H431 0.930 . S
H426 C406 0.931 . S
H427 C407 0.930 . S
H428 C415 0.931 . S
H429 C416 0.929 . S
H430 C424 0.929 . S
H431 C425 0.930 . S
Mn432 O437 2.095 . S
Mn432 O447 2.162 1_545 S
Mn432 O448 2.297 1_545 S
Mn432 O456 2.385 . S
Mn432 O457 2.209 . S
Mn432 O458 2.094 . S
Mn433 O438 2.121 . S
Mn433 N440 2.257 . S
Mn433 N449 2.282 . S
Mn433 O457 2.215 . S
Mn433 O459 2.117 . S
C434 O456 1.234 . S
C434 O457 1.283 . S
C435 O447 1.281 . S
C435 O448 1.236 . S
C436 O458 1.240 . S
C436 O459 1.264 . S
O437 Mn432 2.095 . S
O437 C446 1.250 . S
O438 Mn433 2.121 . S
O438 C446 1.258 . S
C439 N440 1.326 . S
C439 C443 1.460 . S
C439 H445 0.929 . S
N440 Mn433 2.257 . S
N440 C439 1.326 . S
N440 C444 1.362 . S
C441 C442 1.258 . S
C441 C444 1.431 . S
C441 C461 1.449 . S
C442 C441 1.258 . S
C442 C443 1.477 . S
C442 H462 0.931 . S
C443 C439 1.460 . S
C443 C442 1.477 . S
C443 H463 0.930 . S
C444 N440 1.362 . S
C444 C441 1.431 . S
C444 C454 1.476 . S
H445 C439 0.929 . S
C446 O437 1.250 . S
C446 O438 1.258 . S
O447 Mn432 2.162 1_565 S
O447 C435 1.281 . S
O448 Mn432 2.297 1_565 S
O448 C435 1.236 . S
N449 Mn433 2.282 . S
N449 C450 1.328 . S
N449 C454 1.318 . S
C450 N449 1.328 . S
C450 C451 1.457 . S
C450 H455 0.929 . S
C451 C450 1.457 . S
C451 C452 1.291 . S
C451 H464 0.931 . S
C452 C451 1.291 . S
C452 C453 1.373 . S
C452 H465 0.929 . S
C453 C452 1.373 . S
C453 C454 1.396 . S
C453 C460 1.403 . S
C454 C444 1.476 . S
C454 N449 1.318 . S
C454 C453 1.396 . S
H455 C450 0.929 . S
O456 Mn432 2.385 . S
O456 C434 1.234 . S
O457 Mn432 2.209 . S
O457 Mn433 2.215 . S
O457 C434 1.283 . S
O458 Mn432 2.094 . S
O458 C436 1.240 . S
O459 Mn433 2.117 . S
O459 C436 1.264 . S
C460 C453 1.403 . S
C460 C461 1.399 . S
C460 H466 0.929 . S
C461 C441 1.449 . S
C461 C460 1.399 . S
C461 H467 0.930 . S
H462 C442 0.931 . S
H463 C443 0.930 . S
H464 C451 0.931 . S
H465 C452 0.929 . S
H466 C460 0.929 . S
H467 C461 0.930 . S
Mn468 O473 2.095 1_655 S
Mn468 O483 2.162 . S
Mn468 O484 2.312 . S
Mn468 O492 2.385 . S
Mn468 O493 2.209 . S
Mn468 O494 2.094 . S
Mn469 O474 2.121 1_655 S
Mn469 N476 2.257 . S
Mn469 N485 2.282 . S
Mn469 O493 2.215 . S
Mn469 O495 2.117 . S
C470 O492 1.234 . S
C470 O493 1.283 . S
C471 O483 1.281 . S
C471 O484 1.276 . S
C472 O494 1.240 . S
C472 O495 1.264 . S
O473 Mn468 2.095 1_455 S
O473 C482 1.250 . S
O474 Mn469 2.121 1_455 S
O474 C482 1.258 . S
C475 N476 1.326 1_455 S
C475 C479 1.460 . S
C475 H481 0.929 . S
N476 Mn469 2.257 . S
N476 C475 1.326 1_655 S
N476 C480 1.362 . S
C477 C478 1.258 1_655 S
C477 C480 1.431 . S
C477 C497 1.449 . S
C478 C477 1.258 1_455 S
C478 C479 1.477 . S
C478 H498 0.931 . S
C479 C475 1.460 . S
C479 C478 1.477 . S
C479 H499 0.930 . S
C480 N476 1.362 . S
C480 C477 1.431 . S
C480 C490 1.476 . S
H481 C475 0.929 . S
C482 O473 1.250 . S
C482 O474 1.258 . S
O483 Mn468 2.162 . S
O483 C471 1.281 . S
O484 Mn468 2.312 . S
O484 C471 1.276 . S
N485 Mn469 2.282 . S
N485 C486 1.328 . S
N485 C490 1.318 . S
C486 N485 1.328 . S
C486 C487 1.457 . S
C486 H491 0.929 . S
C487 C486 1.457 . S
C487 C488 1.291 . S
C487 H500 0.931 . S
C488 C487 1.291 . S
C488 C489 1.373 . S
C488 H501 0.929 . S
C489 C488 1.373 . S
C489 C490 1.396 . S
C489 C496 1.403 . S
C490 C480 1.476 . S
C490 N485 1.318 . S
C490 C489 1.396 . S
H491 C486 0.929 . S
O492 Mn468 2.385 . S
O492 C470 1.234 . S
O493 Mn468 2.209 . S
O493 Mn469 2.215 . S
O493 C470 1.283 . S
O494 Mn468 2.094 . S
O494 C472 1.240 . S
O495 Mn469 2.117 . S
O495 C472 1.264 . S
C496 C489 1.403 . S
C496 C497 1.399 . S
C496 H502 0.929 . S
C497 C477 1.449 . S
C497 C496 1.399 . S
C497 H503 0.930 . S
H498 C478 0.931 . S
H499 C479 0.930 . S
H500 C487 0.931 . S
H501 C488 0.929 . S
H502 C496 0.929 . S
H503 C497 0.930 . S
Mn504 O509 2.095 . S
Mn504 O519 2.162 . S
Mn504 O520 2.297 . S
Mn504 O528 2.385 . S
Mn504 O529 2.209 . S
Mn504 O530 2.094 . S
Mn505 O510 2.121 . S
Mn505 N512 2.257 . S
Mn505 N521 2.282 . S
Mn505 O529 2.215 . S
Mn505 O531 2.117 . S
C506 O528 1.234 . S
C506 O529 1.283 . S
C507 O519 1.281 . S
C507 O520 1.236 . S
C508 O530 1.240 . S
C508 O531 1.264 . S
O509 Mn504 2.095 . S
O509 C518 1.250 . S
O510 Mn505 2.121 . S
O510 C518 1.258 . S
C511 N512 1.326 . S
C511 C515 1.460 . S
C511 H517 0.929 . S
N512 Mn505 2.257 . S
N512 C511 1.326 . S
N512 C516 1.362 . S
C513 C514 1.258 . S
C513 C516 1.431 . S
C513 C533 1.449 . S
C514 C513 1.258 . S
C514 C515 1.477 . S
C514 H534 0.931 . S
C515 C511 1.460 . S
C515 C514 1.477 . S
C515 H535 0.930 . S
C516 N512 1.362 . S
C516 C513 1.431 . S
C516 C526 1.476 . S
H517 C511 0.929 . S
C518 O509 1.250 . S
C518 O510 1.258 . S
O519 Mn504 2.162 . S
O519 C507 1.281 . S
O520 Mn504 2.297 . S
O520 C507 1.236 . S
N521 Mn505 2.282 . S
N521 C522 1.328 . S
N521 C526 1.318 . S
C522 N521 1.328 . S
C522 C523 1.457 . S
C522 H527 0.929 . S
C523 C522 1.457 . S
C523 C524 1.291 . S
C523 H536 0.931 . S
C524 C523 1.291 . S
C524 C525 1.373 . S
C524 H537 0.929 . S
C525 C524 1.373 . S
C525 C526 1.396 . S
C525 C532 1.403 . S
C526 C516 1.476 . S
C526 N521 1.318 . S
C526 C525 1.396 . S
H527 C522 0.929 . S
O528 Mn504 2.385 . S
O528 C506 1.234 . S
O529 Mn504 2.209 . S
O529 Mn505 2.215 . S
O529 C506 1.283 . S
O530 Mn504 2.094 . S
O530 C508 1.240 . S
O531 Mn505 2.117 . S
O531 C508 1.264 . S
C532 C525 1.403 . S
C532 C533 1.399 . S
C532 H538 0.929 . S
C533 C513 1.449 . S
C533 C532 1.399 . S
C533 H539 0.930 . S
H534 C514 0.931 . S
H535 C515 0.930 . S
H536 C523 0.931 . S
H537 C524 0.929 . S
H538 C532 0.929 . S
H539 C533 0.930 . S
Mn540 O545 2.095 . S
Mn540 O555 2.162 . S
Mn540 O556 2.297 . S
Mn540 O564 2.385 . S
Mn540 O565 2.209 . S
Mn540 O566 2.094 . S
Mn541 O546 2.121 . S
Mn541 N548 2.257 . S
Mn541 N557 2.282 . S
Mn541 O565 2.215 . S
Mn541 O567 2.117 . S
C542 O564 1.234 . S
C542 O565 1.283 . S
C543 O555 1.281 . S
C543 O556 1.236 . S
C544 O566 1.240 . S
C544 O567 1.264 . S
O545 Mn540 2.095 . S
O545 C554 1.250 . S
O546 Mn541 2.121 . S
O546 C554 1.258 . S
C547 N548 1.326 . S
C547 C551 1.460 . S
C547 H553 0.929 . S
N548 Mn541 2.257 . S
N548 C547 1.326 . S
N548 C552 1.362 . S
C549 C550 1.258 . S
C549 C552 1.431 . S
C549 C569 1.449 . S
C550 C549 1.258 . S
C550 C551 1.477 . S
C550 H570 0.931 . S
C551 C547 1.460 . S
C551 C550 1.477 . S
C551 H571 0.930 . S
C552 N548 1.362 . S
C552 C549 1.431 . S
C552 C562 1.476 . S
H553 C547 0.929 . S
C554 O545 1.250 . S
C554 O546 1.258 . S
O555 Mn540 2.162 . S
O555 C543 1.281 . S
O556 Mn540 2.297 . S
O556 C543 1.236 . S
N557 Mn541 2.282 . S
N557 C558 1.328 . S
N557 C562 1.318 . S
C558 N557 1.328 . S
C558 C559 1.457 . S
C558 H563 0.929 . S
C559 C558 1.457 . S
C559 C560 1.291 . S
C559 H572 0.931 . S
C560 C559 1.291 . S
C560 C561 1.373 . S
C560 H573 0.929 . S
C561 C560 1.373 . S
C561 C562 1.396 . S
C561 C568 1.403 . S
C562 C552 1.476 . S
C562 N557 1.318 . S
C562 C561 1.396 . S
H563 C558 0.929 . S
O564 Mn540 2.385 . S
O564 C542 1.234 . S
O565 Mn540 2.209 . S
O565 Mn541 2.215 . S
O565 C542 1.283 . S
O566 Mn540 2.094 . S
O566 C544 1.240 . S
O567 Mn541 2.117 . S
O567 C544 1.264 . S
C568 C561 1.403 . S
C568 C569 1.399 . S
C568 H574 0.929 . S
C569 C549 1.449 . S
C569 C568 1.399 . S
C569 H575 0.930 . S
H570 C550 0.931 . S
H571 C551 0.930 . S
H572 C559 0.931 . S
H573 C560 0.929 . S
H574 C568 0.929 . S
H575 C569 0.930 . S
Mn576 O581 2.095 1_545 S
Mn576 O591 2.162 . S
Mn576 O592 2.297 1_545 S
Mn576 O600 2.385 . S
Mn576 O601 2.209 . S
Mn576 O602 2.094 . S
Mn577 O582 2.121 1_545 S
Mn577 N584 2.239 1_545 S
Mn577 N593 2.282 . S
Mn577 O601 2.215 . S
Mn577 O603 2.117 . S
C578 O600 1.234 . S
C578 O601 1.283 . S
C579 O591 1.281 . S
C579 O592 1.236 1_545 S
C580 O602 1.240 . S
C580 O603 1.264 . S
O581 Mn576 2.095 1_565 S
O581 C590 1.250 . S
O582 Mn577 2.121 1_565 S
O582 C590 1.258 . S
C583 N584 1.350 . S
C583 C587 1.460 . S
C583 H589 0.929 . S
N584 Mn577 2.239 1_565 S
N584 C583 1.350 . S
N584 C588 1.357 1_565 S
C585 C586 1.258 1_545 S
C585 C588 1.431 . S
C585 C605 1.449 . S
C586 C585 1.258 1_565 S
C586 C587 1.477 . S
C586 H606 0.931 . S
C587 C583 1.460 . S
C587 C586 1.477 . S
C587 H607 0.930 . S
C588 N584 1.357 1_545 S
C588 C585 1.431 . S
C588 C598 1.476 . S
H589 C583 0.929 . S
C590 O581 1.250 . S
C590 O582 1.258 . S
O591 Mn576 2.162 . S
O591 C579 1.281 . S
O592 Mn576 2.297 1_565 S
O592 C579 1.236 1_565 S
N593 Mn577 2.282 . S
N593 C594 1.328 . S
N593 C598 1.318 . S
C594 N593 1.328 . S
C594 C595 1.457 . S
C594 H599 0.929 . S
C595 C594 1.457 . S
C595 C596 1.291 . S
C595 H608 0.931 . S
C596 C595 1.291 . S
C596 C597 1.373 . S
C596 H609 0.929 . S
C597 C596 1.373 . S
C597 C598 1.396 . S
C597 C604 1.403 . S
C598 C588 1.476 . S
C598 N593 1.318 . S
C598 C597 1.396 . S
H599 C594 0.929 . S
O600 Mn576 2.385 . S
O600 C578 1.234 . S
O601 Mn576 2.209 . S
O601 Mn577 2.215 . S
O601 C578 1.283 . S
O602 Mn576 2.094 . S
O602 C580 1.240 . S
O603 Mn577 2.117 . S
O603 C580 1.264 . S
C604 C597 1.403 . S
C604 C605 1.399 . S
C604 H610 0.929 . S
C605 C585 1.449 . S
C605 C604 1.399 . S
C605 H611 0.930 . S
H606 C586 0.931 . S
H607 C587 0.930 . S
H608 C595 0.931 . S
H609 C596 0.929 . S
H610 C604 0.929 . S
H611 C605 0.930 . S
Mn612 O617 2.095 . S
Mn612 O627 2.162 1_655 S
Mn612 O628 2.297 1_655 S
Mn612 O636 2.385 . S
Mn612 O637 2.209 . S
Mn612 O638 2.094 . S
Mn613 O618 2.121 . S
Mn613 N620 2.257 . S
Mn613 N629 2.282 . S
Mn613 O637 2.215 . S
Mn613 O639 2.117 . S
C614 O636 1.234 . S
C614 O637 1.283 . S
C615 O627 1.281 . S
C615 O628 1.236 . S
C616 O638 1.240 . S
C616 O639 1.264 . S
O617 Mn612 2.095 . S
O617 C626 1.250 . S
O618 Mn613 2.121 . S
O618 C626 1.258 . S
C619 N620 1.326 . S
C619 C623 1.460 . S
C619 H625 0.929 . S
N620 Mn613 2.257 . S
N620 C619 1.326 . S
N620 C624 1.362 . S
C621 C622 1.258 . S
C621 C624 1.431 . S
C621 C641 1.449 . S
C622 C621 1.258 . S
C622 C623 1.477 . S
C622 H642 0.931 . S
C623 C619 1.460 . S
C623 C622 1.477 . S
C623 H643 0.930 . S
C624 N620 1.362 . S
C624 C621 1.431 . S
C624 C634 1.476 . S
H625 C619 0.929 . S
C626 O617 1.250 . S
C626 O618 1.258 . S
O627 Mn612 2.162 1_455 S
O627 C615 1.281 . S
O628 Mn612 2.297 1_455 S
O628 C615 1.236 . S
N629 Mn613 2.282 . S
N629 C630 1.328 . S
N629 C634 1.318 . S
C630 N629 1.328 . S
C630 C631 1.457 . S
C630 H635 0.929 . S
C631 C630 1.457 . S
C631 C632 1.291 . S
C631 H644 0.931 . S
C632 C631 1.291 . S
C632 C633 1.373 . S
C632 H645 0.929 . S
C633 C632 1.373 . S
C633 C634 1.396 . S
C633 C640 1.403 . S
C634 C624 1.476 . S
C634 N629 1.318 . S
C634 C633 1.396 . S
H635 C630 0.929 . S
O636 Mn612 2.385 . S
O636 C614 1.234 . S
O637 Mn612 2.209 . S
O637 Mn613 2.215 . S
O637 C614 1.283 . S
O638 Mn612 2.094 . S
O638 C616 1.240 . S
O639 Mn613 2.117 . S
O639 C616 1.264 . S
C640 C633 1.403 . S
C640 C641 1.399 . S
C640 H646 0.929 . S
C641 C621 1.449 . S
C641 C640 1.399 . S
C641 H647 0.930 . S
H642 C622 0.931 . S
H643 C623 0.930 . S
H644 C631 0.931 . S
H645 C632 0.929 . S
H646 C640 0.929 . S
H647 C641 0.930 . S
C648 C649 1.560 1_556 S
C648 H709 0.959 . S
C648 H710 0.959 1_556 S
C648 H711 0.960 . S
C649 C648 1.560 1_554 S
C649 O704 1.426 . S
C649 H708 0.980 . S
C650 C651 1.407 . S
C650 C655 1.418 . S
C650 O704 1.334 . S
C651 C650 1.407 . S
C651 C652 1.360 . S
C651 H712 0.929 . S
C652 C651 1.360 . S
C652 C653 1.401 . S
C652 C656 1.527 . S
C653 C652 1.401 . S
C653 C654 1.405 . S
C653 C686 1.587 . S
C654 C653 1.405 . S
C654 C655 1.332 . S
C654 C657 1.496 . S
C655 C650 1.418 . S
C655 C654 1.332 . S
C655 H713 0.929 . S
C656 C652 1.527 . S
C656 H714 0.959 . S
C656 H715 0.961 . S
C656 H716 0.961 . S
C657 C654 1.496 . S
C657 H717 0.960 . S
C657 H718 0.960 . S
C657 H719 0.961 . S
C658 C659 1.517 . S
C658 H721 0.961 . S
C658 H722 0.960 . S
C658 H723 0.959 . S
C659 C658 1.517 . S
C659 O707 1.468 . S
C659 H720 0.980 . S
C660 C661 1.349 . S
C660 C665 1.367 . S
C660 O707 1.408 . S
C661 C660 1.349 . S
C661 C662 1.407 . S
C661 H724 0.930 . S
C662 C661 1.407 . S
C662 C663 1.449 . S
C662 C666 1.535 . S
C663 C662 1.449 . S
C663 C664 1.384 . S
C663 C688 1.553 . S
C664 C663 1.384 . S
C664 C665 1.364 . S
C664 C667 1.450 . S
C665 C660 1.367 . S
C665 C664 1.364 . S
C665 H725 0.931 . S
C666 C662 1.535 . S
C666 H726 0.959 . S
C666 H727 0.961 . S
C666 H728 0.959 . S
C667 C664 1.450 . S
C667 H729 0.960 . S
C667 H730 0.960 . S
C667 H731 0.960 . S
C668 C669 1.309 . S
C668 C673 1.304 . S
C668 O706 1.435 . S
C669 C668 1.309 . S
C669 C670 1.476 . S
C669 H733 0.930 . S
C670 C669 1.476 . S
C670 C671 1.400 . S
C670 C674 1.567 . S
C671 C670 1.400 . S
C671 C672 1.373 . S
C671 C693 1.432 . S
C672 C671 1.373 . S
C672 C673 1.339 . S
C672 C675 1.530 . S
C673 C668 1.304 . S
C673 C672 1.339 . S
C673 H734 0.930 . S
C674 C670 1.567 . S
C674 H735 0.961 . S
C674 H736 0.960 . S
C674 H737 0.958 . S
C675 C672 1.530 . S
C675 H738 0.961 . S
C675 H739 0.960 . S
C675 H740 0.960 . S
C676 C677 1.530 . S
C676 H742 0.961 . S
C676 H743 0.961 . S
C676 H744 0.959 . S
C677 C676 1.530 . S
C677 O705 1.412 . S
C677 H741 0.980 . S
C678 C679 1.288 . S
C678 C683 1.377 . S
C678 O705 1.393 . S
C679 C678 1.288 . S
C679 C680 1.369 . S
C679 H745 0.932 . S
C680 C679 1.369 . S
C680 C681 1.398 . S
C680 C684 1.527 . S
C681 C680 1.398 . S
C681 C682 1.380 . S
C681 C695 1.497 . S
C682 C681 1.380 . S
C682 C683 1.383 . S
C682 C685 1.603 . S
C683 C678 1.377 . S
C683 C682 1.383 . S
C683 H746 0.929 . S
C684 C680 1.527 . S
C684 H747 0.961 . S
C684 H748 0.959 . S
C684 H749 0.959 . S
C685 C682 1.603 . S
C685 H750 0.960 . S
C685 H751 0.962 . S
C685 H752 0.961 . S
C686 C653 1.587 . S
C686 C687 1.360 . S
C686 C699 1.412 . S
C687 C686 1.360 . S
C687 C688 1.365 . S
C687 H753 0.929 . S
C688 C663 1.553 . S
C688 C687 1.365 . S
C688 C689 1.404 . S
C689 C688 1.404 . S
C689 C690 1.395 . S
C689 C700 1.451 . S
C690 C689 1.395 . S
C690 C691 1.322 . S
C690 H754 0.930 . S
C691 C690 1.322 . S
C691 C692 1.459 . S
C691 H755 0.929 . S
C692 C691 1.459 . S
C692 C693 1.445 . S
C692 C701 1.395 . S
C693 C671 1.432 . S
C693 C692 1.445 . S
C693 C694 1.370 . S
C694 C693 1.370 . S
C694 C695 1.438 . S
C694 H756 0.930 . S
C695 C681 1.497 . S
C695 C694 1.438 . S
C695 C696 1.360 . S
C696 C695 1.360 . S
C696 C697 1.401 . S
C696 C701 1.446 . S
C697 C696 1.401 . S
C697 C698 1.347 . S
C697 H757 0.929 . S
C698 C697 1.347 . S
C698 C699 1.455 . S
C698 H758 0.930 . S
C699 C686 1.412 . S
C699 C698 1.455 . S
C699 C700 1.331 . S
C700 C689 1.451 . S
C700 C699 1.331 . S
C700 C701 1.497 . S
C701 C692 1.395 . S
C701 C696 1.446 . S
C701 C700 1.497 . S
C702 C703 1.582 . S
C702 H759 0.962 1_455 S
C702 H760 0.959 1_455 S
C702 H761 0.958 . S
C703 C702 1.582 . S
C703 O706 1.458 . S
C703 H732 0.980 . S
O704 C649 1.426 . S
O704 C650 1.334 . S
O705 C677 1.412 . S
O705 C678 1.393 . S
O706 C668 1.435 . S
O706 C703 1.458 . S
O707 C659 1.468 . S
O707 C660 1.408 . S
H708 C649 0.980 . S
H709 C648 0.959 . S
H710 C648 0.959 1_554 S
H711 C648 0.960 . S
H712 C651 0.929 . S
H713 C655 0.929 . S
H714 C656 0.959 . S
H715 C656 0.961 . S
H716 C656 0.961 . S
H717 C657 0.960 . S
H718 C657 0.960 . S
H719 C657 0.961 . S
H720 C659 0.980 . S
H721 C658 0.961 . S
H722 C658 0.960 . S
H723 C658 0.959 . S
H724 C661 0.930 . S
H725 C665 0.931 . S
H726 C666 0.959 . S
H727 C666 0.961 . S
H728 C666 0.959 . S
H729 C667 0.960 . S
H730 C667 0.960 . S
H731 C667 0.960 . S
H732 C703 0.980 . S
H733 C669 0.930 . S
H734 C673 0.930 . S
H735 C674 0.961 . S
H736 C674 0.960 . S
H737 C674 0.958 . S
H738 C675 0.961 . S
H739 C675 0.960 . S
H740 C675 0.960 . S
H741 C677 0.980 . S
H742 C676 0.961 . S
H743 C676 0.961 . S
H744 C676 0.959 . S
H745 C679 0.932 . S
H746 C683 0.929 . S
H747 C684 0.961 . S
H748 C684 0.959 . S
H749 C684 0.959 . S
H750 C685 0.960 . S
H751 C685 0.962 . S
H752 C685 0.961 . S
H753 C687 0.929 . S
H754 C690 0.930 . S
H755 C691 0.929 . S
H756 C694 0.930 . S
H757 C697 0.929 . S
H758 C698 0.930 . S
H759 C702 0.962 1_655 S
H760 C702 0.959 1_655 S
H761 C702 0.958 . S
C762 C763 1.560 . S
C762 H823 0.975 . S
C762 H824 0.959 1_565 S
C762 H825 0.960 1_564 S
C763 C762 1.560 . S
C763 O818 1.426 . S
C763 H822 0.980 . S
C764 C765 1.407 . S
C764 C769 1.418 . S
C764 O818 1.334 . S
C765 C764 1.407 . S
C765 C766 1.360 . S
C765 H826 0.929 . S
C766 C765 1.360 . S
C766 C767 1.401 . S
C766 C770 1.527 . S
C767 C766 1.401 . S
C767 C768 1.405 . S
C767 C800 1.587 . S
C768 C767 1.405 . S
C768 C769 1.332 . S
C768 C771 1.496 . S
C769 C764 1.418 . S
C769 C768 1.332 . S
C769 H827 0.929 . S
C770 C766 1.527 . S
C770 H828 0.959 . S
C770 H829 0.961 . S
C770 H830 0.961 . S
C771 C768 1.496 . S
C771 H831 0.960 . S
C771 H832 0.960 . S
C771 H833 0.961 . S
C772 C773 1.517 . S
C772 H835 0.961 . S
C772 H836 0.960 . S
C772 H837 0.959 . S
C773 C772 1.517 . S
C773 O821 1.468 . S
C773 H834 0.980 . S
C774 C775 1.349 . S
C774 C779 1.367 . S
C774 O821 1.408 . S
C775 C774 1.349 . S
C775 C776 1.407 . S
C775 H838 0.930 . S
C776 C775 1.407 . S
C776 C777 1.449 . S
C776 C780 1.535 . S
C777 C776 1.449 . S
C777 C778 1.384 . S
C777 C802 1.553 . S
C778 C777 1.384 . S
C778 C779 1.364 . S
C778 C781 1.450 . S
C779 C774 1.367 . S
C779 C778 1.364 . S
C779 H839 0.931 . S
C780 C776 1.535 . S
C780 H840 0.959 . S
C780 H841 0.961 . S
C780 H842 0.959 . S
C781 C778 1.450 . S
C781 H843 0.960 . S
C781 H844 0.960 . S
C781 H845 0.960 . S
C782 C783 1.309 . S
C782 C787 1.304 . S
C782 O820 1.435 . S
C783 C782 1.309 . S
C783 C784 1.476 . S
C783 H847 0.930 . S
C784 C783 1.476 . S
C784 C785 1.400 . S
C784 C788 1.567 . S
C785 C784 1.400 . S
C785 C786 1.373 . S
C785 C807 1.432 . S
C786 C785 1.373 . S
C786 C787 1.339 . S
C786 C789 1.530 . S
C787 C782 1.304 . S
C787 C786 1.339 . S
C787 H848 0.930 . S
C788 C784 1.567 . S
C788 H849 0.961 . S
C788 H850 0.960 . S
C788 H851 0.958 . S
C789 C786 1.530 . S
C789 H852 0.961 . S
C789 H853 0.960 . S
C789 H854 0.960 . S
C790 C791 1.530 1_545 S
C790 H856 0.961 . S
C790 H857 0.961 . S
C790 H858 0.959 . S
C791 C790 1.530 1_565 S
C791 O819 1.412 . S
C791 H855 0.980 . S
C792 C793 1.288 . S
C792 C797 1.377 . S
C792 O819 1.393 . S
C793 C792 1.288 . S
C793 C794 1.369 . S
C793 H859 0.932 . S
C794 C793 1.369 . S
C794 C795 1.398 . S
C794 C798 1.527 . S
C795 C794 1.398 . S
C795 C796 1.380 . S
C795 C809 1.497 . S
C796 C795 1.380 . S
C796 C797 1.383 . S
C796 C799 1.603 . S
C797 C792 1.377 . S
C797 C796 1.383 . S
C797 H860 0.929 . S
C798 C794 1.527 . S
C798 H861 0.961 . S
C798 H862 0.959 . S
C798 H863 0.959 . S
C799 C796 1.603 . S
C799 H864 0.960 . S
C799 H865 0.962 . S
C799 H866 0.961 . S
C800 C767 1.587 . S
C800 C801 1.360 . S
C800 C813 1.412 . S
C801 C800 1.360 . S
C801 C802 1.365 . S
C801 H867 0.929 . S
C802 C777 1.553 . S
C802 C801 1.365 . S
C802 C803 1.404 . S
C803 C802 1.404 . S
C803 C804 1.395 . S
C803 C814 1.451 . S
C804 C803 1.395 . S
C804 C805 1.322 . S
C804 H868 0.930 . S
C805 C804 1.322 . S
C805 C806 1.459 . S
C805 H869 0.929 . S
C806 C805 1.459 . S
C806 C807 1.445 . S
C806 C815 1.395 . S
C807 C785 1.432 . S
C807 C806 1.445 . S
C807 C808 1.370 . S
C808 C807 1.370 . S
C808 C809 1.438 . S
C808 H870 0.930 . S
C809 C795 1.497 . S
C809 C808 1.438 . S
C809 C810 1.360 . S
C810 C809 1.360 . S
C810 C811 1.401 . S
C810 C815 1.446 . S
C811 C810 1.401 . S
C811 C812 1.347 . S
C811 H871 0.929 . S
C812 C811 1.347 . S
C812 C813 1.455 . S
C812 H872 0.930 . S
C813 C800 1.412 . S
C813 C812 1.455 . S
C813 C814 1.331 . S
C814 C803 1.451 . S
C814 C813 1.331 . S
C814 C815 1.497 . S
C815 C806 1.395 . S
C815 C810 1.446 . S
C815 C814 1.497 . S
C816 C817 1.582 . S
C816 H873 0.962 . S
C816 H874 0.959 . S
C816 H875 0.958 . S
C817 C816 1.582 . S
C817 O820 1.458 . S
C817 H846 0.980 . S
O818 C763 1.426 . S
O818 C764 1.334 . S
O819 C791 1.412 . S
O819 C792 1.393 . S
O820 C782 1.435 . S
O820 C817 1.458 . S
O821 C773 1.468 . S
O821 C774 1.408 . S
H822 C763 0.980 . S
H823 C762 0.975 . S
H824 C762 0.959 1_545 S
H825 C762 0.960 1_546 S
H826 C765 0.929 . S
H827 C769 0.929 . S
H828 C770 0.959 . S
H829 C770 0.961 . S
H830 C770 0.961 . S
H831 C771 0.960 . S
H832 C771 0.960 . S
H833 C771 0.961 . S
H834 C773 0.980 . S
H835 C772 0.961 . S
H836 C772 0.960 . S
H837 C772 0.959 . S
H838 C775 0.930 . S
H839 C779 0.931 . S
H840 C780 0.959 . S
H841 C780 0.961 . S
H842 C780 0.959 . S
H843 C781 0.960 . S
H844 C781 0.960 . S
H845 C781 0.960 . S
H846 C817 0.980 . S
H847 C783 0.930 . S
H848 C787 0.930 . S
H849 C788 0.961 . S
H850 C788 0.960 . S
H851 C788 0.958 . S
H852 C789 0.961 . S
H853 C789 0.960 . S
H854 C789 0.960 . S
H855 C791 0.980 . S
H856 C790 0.961 . S
H857 C790 0.961 . S
H858 C790 0.959 . S
H859 C793 0.932 . S
H860 C797 0.929 . S
H861 C798 0.961 . S
H862 C798 0.959 . S
H863 C798 0.959 . S
H864 C799 0.960 . S
H865 C799 0.962 . S
H866 C799 0.961 . S
H867 C801 0.929 . S
H868 C804 0.930 . S
H869 C805 0.929 . S
H870 C808 0.930 . S
H871 C811 0.929 . S
H872 C812 0.930 . S
H873 C816 0.962 . S
H874 C816 0.959 . S
H875 C816 0.958 . S
C876 C877 1.560 . S
C876 H937 0.959 1_554 S
C876 H938 0.959 . S
C876 H939 0.960 1_554 S
C877 C876 1.560 . S
C877 O932 1.426 . S
C877 H936 0.980 . S
C878 C879 1.407 . S
C878 C883 1.418 . S
C878 O932 1.334 . S
C879 C878 1.407 . S
C879 C880 1.360 . S
C879 H940 0.929 . S
C880 C879 1.360 . S
C880 C881 1.401 . S
C880 C884 1.527 . S
C881 C880 1.401 . S
C881 C882 1.405 . S
C881 C914 1.587 . S
C882 C881 1.405 . S
C882 C883 1.332 . S
C882 C885 1.496 . S
C883 C878 1.418 . S
C883 C882 1.332 . S
C883 H941 0.929 . S
C884 C880 1.527 . S
C884 H942 0.959 . S
C884 H943 0.961 . S
C884 H944 0.961 . S
C885 C882 1.496 . S
C885 H945 0.960 . S
C885 H946 0.960 . S
C885 H947 0.961 . S
C886 C887 1.517 1_655 S
C886 H949 0.948 1_554 S
C886 H950 0.960 1_554 S
C886 H951 0.959 . S
C887 C886 1.517 1_455 S
C887 O935 1.468 . S
C887 H948 0.980 . S
C888 C889 1.349 . S
C888 C893 1.367 . S
C888 O935 1.408 . S
C889 C888 1.349 . S
C889 C890 1.407 . S
C889 H952 0.930 . S
C890 C889 1.407 . S
C890 C891 1.449 . S
C890 C894 1.535 . S
C891 C890 1.449 . S
C891 C892 1.384 . S
C891 C916 1.553 . S
C892 C891 1.384 . S
C892 C893 1.364 . S
C892 C895 1.450 . S
C893 C888 1.367 . S
C893 C892 1.364 . S
C893 H953 0.931 . S
C894 C890 1.535 . S
C894 H954 0.959 . S
C894 H955 0.961 . S
C894 H956 0.959 . S
C895 C892 1.450 . S
C895 H957 0.960 . S
C895 H958 0.960 . S
C895 H959 0.960 . S
C896 C897 1.309 . S
C896 C901 1.304 . S
C896 O934 1.435 . S
C897 C896 1.309 . S
C897 C898 1.476 . S
C897 H961 0.930 . S
C898 C897 1.476 . S
C898 C899 1.400 . S
C898 C902 1.567 . S
C899 C898 1.400 . S
C899 C900 1.373 . S
C899 C921 1.432 . S
C900 C899 1.373 . S
C900 C901 1.339 . S
C900 C903 1.530 . S
C901 C896 1.304 . S
C901 C900 1.339 . S
C901 H962 0.930 . S
C902 C898 1.567 . S
C902 H963 0.961 . S
C902 H964 0.960 . S
C902 H965 0.958 . S
C903 C900 1.530 . S
C903 H966 0.961 . S
C903 H967 0.960 . S
C903 H968 0.960 . S
C904 C905 1.530 . S
C904 H970 0.961 1_565 S
C904 H971 0.961 . S
C904 H972 0.959 . S
C905 C904 1.530 . S
C905 O933 1.412 . S
C905 H969 0.980 . S
C906 C907 1.288 . S
C906 C911 1.377 . S
C906 O933 1.393 . S
C907 C906 1.288 . S
C907 C908 1.369 . S
C907 H973 0.932 . S
C908 C907 1.369 . S
C908 C909 1.398 . S
C908 C912 1.527 . S
C909 C908 1.398 . S
C909 C910 1.380 . S
C909 C923 1.497 . S
C910 C909 1.380 . S
C910 C911 1.383 . S
C910 C913 1.603 . S
C911 C906 1.377 . S
C911 C910 1.383 . S
C911 H974 0.929 . S
C912 C908 1.527 . S
C912 H975 0.961 . S
C912 H976 0.959 . S
C912 H977 0.959 . S
C913 C910 1.603 . S
C913 H978 0.960 . S
C913 H979 0.962 . S
C913 H980 0.961 . S
C914 C881 1.587 . S
C914 C915 1.360 . S
C914 C927 1.412 . S
C915 C914 1.360 . S
C915 C916 1.365 . S
C915 H981 0.929 . S
C916 C891 1.553 . S
C916 C915 1.365 . S
C916 C917 1.404 . S
C917 C916 1.404 . S
C917 C918 1.395 . S
C917 C928 1.451 . S
C918 C917 1.395 . S
C918 C919 1.322 . S
C918 H982 0.930 . S
C919 C918 1.322 . S
C919 C920 1.459 . S
C919 H983 0.929 . S
C920 C919 1.459 . S
C920 C921 1.445 . S
C920 C929 1.395 . S
C921 C899 1.432 . S
C921 C920 1.445 . S
C921 C922 1.370 . S
C922 C921 1.370 . S
C922 C923 1.438 . S
C922 H984 0.930 . S
C923 C909 1.497 . S
C923 C922 1.438 . S
C923 C924 1.360 . S
C924 C923 1.360 . S
C924 C925 1.401 . S
C924 C929 1.446 . S
C925 C924 1.401 . S
C925 C926 1.347 . S
C925 H985 0.929 . S
C926 C925 1.347 . S
C926 C927 1.455 . S
C926 H986 0.930 . S
C927 C914 1.412 . S
C927 C926 1.455 . S
C927 C928 1.331 . S
C928 C917 1.451 . S
C928 C927 1.331 . S
C928 C929 1.497 . S
C929 C920 1.395 . S
C929 C924 1.446 . S
C929 C928 1.497 . S
C930 C931 1.582 1_655 S
C930 H987 0.962 . S
C930 H988 0.959 . S
C930 H989 0.958 . S
C931 C930 1.582 1_455 S
C931 O934 1.458 . S
C931 H960 0.980 . S
O932 C877 1.426 . S
O932 C878 1.334 . S
O933 C905 1.412 . S
O933 C906 1.393 . S
O934 C896 1.435 . S
O934 C931 1.458 . S
O935 C887 1.468 . S
O935 C888 1.408 . S
H936 C877 0.980 . S
H937 C876 0.959 1_556 S
H938 C876 0.959 . S
H939 C876 0.960 1_556 S
H940 C879 0.929 . S
H941 C883 0.929 . S
H942 C884 0.959 . S
H943 C884 0.961 . S
H944 C884 0.961 . S
H945 C885 0.960 . S
H946 C885 0.960 . S
H947 C885 0.961 . S
H948 C887 0.980 . S
H949 C886 0.948 1_556 S
H950 C886 0.960 1_556 S
H951 C886 0.959 . S
H952 C889 0.930 . S
H953 C893 0.931 . S
H954 C894 0.959 . S
H955 C894 0.961 . S
H956 C894 0.959 . S
H957 C895 0.960 . S
H958 C895 0.960 . S
H959 C895 0.960 . S
H960 C931 0.980 . S
H961 C897 0.930 . S
H962 C901 0.930 . S
H963 C902 0.961 . S
H964 C902 0.960 . S
H965 C902 0.958 . S
H966 C903 0.961 . S
H967 C903 0.960 . S
H968 C903 0.960 . S
H969 C905 0.980 . S
H970 C904 0.961 1_545 S
H971 C904 0.961 . S
H972 C904 0.959 . S
H973 C907 0.932 . S
H974 C911 0.929 . S
H975 C912 0.961 . S
H976 C912 0.959 . S
H977 C912 0.959 . S
H978 C913 0.960 . S
H979 C913 0.962 . S
H980 C913 0.961 . S
H981 C915 0.929 . S
H982 C918 0.930 . S
H983 C919 0.929 . S
H984 C922 0.930 . S
H985 C925 0.929 . S
H986 C926 0.930 . S
H987 C930 0.962 . S
H988 C930 0.959 . S
H989 C930 0.958 . S
C990 C991 1.560 . S
C990 H1051 0.959 . S
C990 H1052 0.959 . S
C990 H1053 0.960 . S
C991 C990 1.560 . S
C991 O1046 1.426 1_554 S
C991 H1050 0.980 . S
C992 C993 1.407 . S
C992 C997 1.418 . S
C992 O1046 1.334 . S
C993 C992 1.407 . S
C993 C994 1.360 . S
C993 H1054 0.929 . S
C994 C993 1.360 . S
C994 C995 1.401 . S
C994 C998 1.527 . S
C995 C994 1.401 . S
C995 C996 1.405 . S
C995 C1028 1.587 . S
C996 C995 1.405 . S
C996 C997 1.332 . S
C996 C999 1.496 . S
C997 C992 1.418 . S
C997 C996 1.332 . S
C997 H1055 0.929 . S
C998 C994 1.527 . S
C998 H1056 0.959 . S
C998 H1057 0.961 . S
C998 H1058 0.961 . S
C999 C996 1.496 . S
C999 H1059 0.960 . S
C999 H1060 0.960 . S
C999 H1061 0.961 . S
C1000 C1001 1.517 1_554 S
C1000 H1063 0.961 . S
C1000 H1064 0.960 . S
C1000 H1065 0.959 1_554 S
C1001 C1000 1.517 1_556 S
C1001 O1049 1.468 . S
C1001 H1062 0.980 1_556 S
C1002 C1003 1.349 . S
C1002 C1007 1.367 . S
C1002 O1049 1.408 . S
C1003 C1002 1.349 . S
C1003 C1004 1.407 . S
C1003 H1066 0.930 . S
C1004 C1003 1.407 . S
C1004 C1005 1.449 . S
C1004 C1008 1.535 . S
C1005 C1004 1.449 . S
C1005 C1006 1.384 . S
C1005 C1030 1.553 . S
C1006 C1005 1.384 . S
C1006 C1007 1.364 . S
C1006 C1009 1.450 . S
C1007 C1002 1.367 . S
C1007 C1006 1.364 . S
C1007 H1067 0.931 . S
C1008 C1004 1.535 . S
C1008 H1068 0.959 . S
C1008 H1069 0.961 . S
C1008 H1070 0.959 . S
C1009 C1006 1.450 . S
C1009 H1071 0.960 . S
C1009 H1072 0.960 . S
C1009 H1073 0.960 . S
C1010 C1011 1.309 . S
C1010 C1015 1.304 . S
C1010 O1048 1.435 . S
C1011 C1010 1.309 . S
C1011 C1012 1.476 . S
C1011 H1075 0.930 . S
C1012 C1011 1.476 . S
C1012 C1013 1.400 . S
C1012 C1016 1.567 . S
C1013 C1012 1.400 . S
C1013 C1014 1.373 . S
C1013 C1035 1.432 . S
C1014 C1013 1.373 . S
C1014 C1015 1.339 . S
C1014 C1017 1.530 . S
C1015 C1010 1.304 . S
C1015 C1014 1.339 . S
C1015 H1076 0.930 . S
C1016 C1012 1.567 . S
C1016 H1077 0.961 . S
C1016 H1078 0.960 . S
C1016 H1079 0.958 . S
C1017 C1014 1.530 . S
C1017 H1080 0.961 . S
C1017 H1081 0.960 . S
C1017 H1082 0.960 . S
C1018 C1019 1.530 . S
C1018 H1084 0.961 1_545 S
C1018 H1085 0.961 . S
C1018 H1086 0.959 . S
C1019 C1018 1.530 . S
C1019 O1047 1.412 . S
C1019 H1083 0.980 . S
C1020 C1021 1.288 . S
C1020 C1025 1.377 . S
C1020 O1047 1.393 . S
C1021 C1020 1.288 . S
C1021 C1022 1.369 . S
C1021 H1087 0.932 . S
C1022 C1021 1.369 . S
C1022 C1023 1.398 . S
C1022 C1026 1.527 . S
C1023 C1022 1.398 . S
C1023 C1024 1.380 . S
C1023 C1037 1.497 . S
C1024 C1023 1.380 . S
C1024 C1025 1.383 . S
C1024 C1027 1.603 . S
C1025 C1020 1.377 . S
C1025 C1024 1.383 . S
C1025 H1088 0.929 . S
C1026 C1022 1.527 . S
C1026 H1089 0.961 . S
C1026 H1090 0.959 . S
C1026 H1091 0.959 . S
C1027 C1024 1.603 . S
C1027 H1092 0.960 . S
C1027 H1093 0.962 . S
C1027 H1094 0.961 . S
C1028 C995 1.587 . S
C1028 C1029 1.360 . S
C1028 C1041 1.412 . S
C1029 C1028 1.360 . S
C1029 C1030 1.365 . S
C1029 H1095 0.929 . S
C1030 C1005 1.553 . S
C1030 C1029 1.365 . S
C1030 C1031 1.404 . S
C1031 C1030 1.404 . S
C1031 C1032 1.395 . S
C1031 C1042 1.451 . S
C1032 C1031 1.395 . S
C1032 C1033 1.322 . S
C1032 H1096 0.930 . S
C1033 C1032 1.322 . S
C1033 C1034 1.459 . S
C1033 H1097 0.929 . S
C1034 C1033 1.459 . S
C1034 C1035 1.445 . S
C1034 C1043 1.395 . S
C1035 C1013 1.432 . S
C1035 C1034 1.445 . S
C1035 C1036 1.370 . S
C1036 C1035 1.370 . S
C1036 C1037 1.438 . S
C1036 H1098 0.930 . S
C1037 C1023 1.497 . S
C1037 C1036 1.438 . S
C1037 C1038 1.360 . S
C1038 C1037 1.360 . S
C1038 C1039 1.401 . S
C1038 C1043 1.446 . S
C1039 C1038 1.401 . S
C1039 C1040 1.347 . S
C1039 H1099 0.929 . S
C1040 C1039 1.347 . S
C1040 C1041 1.455 . S
C1040 H1100 0.930 . S
C1041 C1028 1.412 . S
C1041 C1040 1.455 . S
C1041 C1042 1.331 . S
C1042 C1031 1.451 . S
C1042 C1041 1.331 . S
C1042 C1043 1.497 . S
C1043 C1034 1.395 . S
C1043 C1038 1.446 . S
C1043 C1042 1.497 . S
C1044 C1045 1.582 . S
C1044 H1101 0.962 . S
C1044 H1102 0.959 . S
C1044 H1103 0.958 . S
C1045 C1044 1.582 . S
C1045 O1048 1.458 . S
C1045 H1074 0.980 . S
O1046 C991 1.426 1_556 S
O1046 C992 1.334 . S
O1047 C1019 1.412 . S
O1047 C1020 1.393 . S
O1048 C1010 1.435 . S
O1048 C1045 1.458 . S
O1049 C1001 1.468 . S
O1049 C1002 1.408 . S
H1050 C991 0.980 . S
H1051 C990 0.959 . S
H1052 C990 0.959 . S
H1053 C990 0.960 . S
H1054 C993 0.929 . S
H1055 C997 0.929 . S
H1056 C998 0.959 . S
H1057 C998 0.961 . S
H1058 C998 0.961 . S
H1059 C999 0.960 . S
H1060 C999 0.960 . S
H1061 C999 0.961 . S
H1062 C1001 0.980 1_554 S
H1063 C1000 0.961 . S
H1064 C1000 0.960 . S
H1065 C1000 0.959 1_556 S
H1066 C1003 0.930 . S
H1067 C1007 0.931 . S
H1068 C1008 0.959 . S
H1069 C1008 0.961 . S
H1070 C1008 0.959 . S
H1071 C1009 0.960 . S
H1072 C1009 0.960 . S
H1073 C1009 0.960 . S
H1074 C1045 0.980 . S
H1075 C1011 0.930 . S
H1076 C1015 0.930 . S
H1077 C1016 0.961 . S
H1078 C1016 0.960 . S
H1079 C1016 0.958 . S
H1080 C1017 0.961 . S
H1081 C1017 0.960 . S
H1082 C1017 0.960 . S
H1083 C1019 0.980 . S
H1084 C1018 0.961 1_565 S
H1085 C1018 0.961 . S
H1086 C1018 0.959 . S
H1087 C1021 0.932 . S
H1088 C1025 0.929 . S
H1089 C1026 0.961 . S
H1090 C1026 0.959 . S
H1091 C1026 0.959 . S
H1092 C1027 0.960 . S
H1093 C1027 0.962 . S
H1094 C1027 0.961 . S
H1095 C1029 0.929 . S
H1096 C1032 0.930 . S
H1097 C1033 0.929 . S
H1098 C1036 0.930 . S
H1099 C1039 0.929 . S
H1100 C1040 0.930 . S
H1101 C1044 0.962 . S
H1102 C1044 0.959 . S
H1103 C1044 0.958 . S
C1104 C1105 1.556 1_554 S
C1104 H1165 0.960 . S
C1104 H1166 0.964 1_545 S
C1104 H1167 0.960 1_545 S
C1105 C1104 1.556 1_556 S
C1105 O1160 1.426 . S
C1105 H1164 0.980 1_556 S
C1106 C1107 1.407 . S
C1106 C1111 1.418 . S
C1106 O1160 1.334 . S
C1107 C1106 1.407 . S
C1107 C1108 1.360 . S
C1107 H1168 0.929 . S
C1108 C1107 1.360 . S
C1108 C1109 1.401 . S
C1108 C1112 1.527 . S
C1109 C1108 1.401 . S
C1109 C1110 1.405 . S
C1109 C1142 1.587 . S
C1110 C1109 1.405 . S
C1110 C1111 1.332 . S
C1110 C1113 1.496 . S
C1111 C1106 1.418 . S
C1111 C1110 1.332 . S
C1111 H1169 0.929 . S
C1112 C1108 1.527 . S
C1112 H1170 0.959 . S
C1112 H1171 0.961 . S
C1112 H1172 0.961 . S
C1113 C1110 1.496 . S
C1113 H1173 0.960 . S
C1113 H1174 0.960 . S
C1113 H1175 0.961 . S
C1114 C1115 1.512 1_554 S
C1114 H1177 0.967 1_655 S
C1114 H1178 0.966 . S
C1114 H1179 0.952 1_654 S
C1115 C1114 1.512 1_556 S
C1115 O1163 1.468 . S
C1115 H1176 0.980 . S
C1116 C1117 1.349 . S
C1116 C1121 1.367 . S
C1116 O1163 1.408 . S
C1117 C1116 1.349 . S
C1117 C1118 1.407 . S
C1117 H1180 0.930 . S
C1118 C1117 1.407 . S
C1118 C1119 1.449 . S
C1118 C1122 1.535 . S
C1119 C1118 1.449 . S
C1119 C1120 1.384 . S
C1119 C1144 1.553 . S
C1120 C1119 1.384 . S
C1120 C1121 1.364 . S
C1120 C1123 1.450 . S
C1121 C1116 1.367 . S
C1121 C1120 1.364 . S
C1121 H1181 0.931 . S
C1122 C1118 1.535 . S
C1122 H1182 0.959 . S
C1122 H1183 0.961 . S
C1122 H1184 0.959 . S
C1123 C1120 1.450 . S
C1123 H1185 0.960 . S
C1123 H1186 0.960 . S
C1123 H1187 0.960 . S
C1124 C1125 1.309 . S
C1124 C1129 1.304 . S
C1124 O1162 1.435 . S
C1125 C1124 1.309 . S
C1125 C1126 1.476 . S
C1125 H1189 0.930 . S
C1126 C1125 1.476 . S
C1126 C1127 1.400 . S
C1126 C1130 1.567 . S
C1127 C1126 1.400 . S
C1127 C1128 1.373 . S
C1127 C1149 1.432 . S
C1128 C1127 1.373 . S
C1128 C1129 1.339 . S
C1128 C1131 1.530 . S
C1129 C1124 1.304 . S
C1129 C1128 1.339 . S
C1129 H1190 0.930 . S
C1130 C1126 1.567 . S
C1130 H1191 0.961 . S
C1130 H1192 0.960 . S
C1130 H1193 0.958 . S
C1131 C1128 1.530 . S
C1131 H1194 0.961 . S
C1131 H1195 0.960 . S
C1131 H1196 0.960 . S
C1132 C1133 1.530 1_565 S
C1132 H1198 0.961 . S
C1132 H1199 0.961 . S
C1132 H1200 0.959 . S
C1133 C1132 1.530 1_545 S
C1133 O1161 1.412 . S
C1133 H1197 0.980 . S
C1134 C1135 1.288 . S
C1134 C1139 1.377 . S
C1134 O1161 1.393 . S
C1135 C1134 1.288 . S
C1135 C1136 1.369 . S
C1135 H1201 0.932 . S
C1136 C1135 1.369 . S
C1136 C1137 1.398 . S
C1136 C1140 1.527 . S
C1137 C1136 1.398 . S
C1137 C1138 1.380 . S
C1137 C1151 1.497 . S
C1138 C1137 1.380 . S
C1138 C1139 1.383 . S
C1138 C1141 1.603 . S
C1139 C1134 1.377 . S
C1139 C1138 1.383 . S
C1139 H1202 0.929 . S
C1140 C1136 1.527 . S
C1140 H1203 0.961 . S
C1140 H1204 0.959 . S
C1140 H1205 0.959 . S
C1141 C1138 1.603 . S
C1141 H1206 0.960 . S
C1141 H1207 0.962 . S
C1141 H1208 0.961 . S
C1142 C1109 1.587 . S
C1142 C1143 1.360 . S
C1142 C1155 1.412 . S
C1143 C1142 1.360 . S
C1143 C1144 1.365 . S
C1143 H1209 0.929 . S
C1144 C1119 1.553 . S
C1144 C1143 1.365 . S
C1144 C1145 1.404 . S
C1145 C1144 1.404 . S
C1145 C1146 1.395 . S
C1145 C1156 1.451 . S
C1146 C1145 1.395 . S
C1146 C1147 1.322 . S
C1146 H1210 0.930 . S
C1147 C1146 1.322 . S
C1147 C1148 1.459 . S
C1147 H1211 0.929 . S
C1148 C1147 1.459 . S
C1148 C1149 1.445 . S
C1148 C1157 1.395 . S
C1149 C1127 1.432 . S
C1149 C1148 1.445 . S
C1149 C1150 1.370 . S
C1150 C1149 1.370 . S
C1150 C1151 1.438 . S
C1150 H1212 0.930 . S
C1151 C1137 1.497 . S
C1151 C1150 1.438 . S
C1151 C1152 1.360 . S
C1152 C1151 1.360 . S
C1152 C1153 1.401 . S
C1152 C1157 1.446 . S
C1153 C1152 1.401 . S
C1153 C1154 1.347 . S
C1153 H1213 0.929 . S
C1154 C1153 1.347 . S
C1154 C1155 1.455 . S
C1154 H1214 0.930 . S
C1155 C1142 1.412 . S
C1155 C1154 1.455 . S
C1155 C1156 1.331 . S
C1156 C1145 1.451 . S
C1156 C1155 1.331 . S
C1156 C1157 1.497 . S
C1157 C1148 1.395 . S
C1157 C1152 1.446 . S
C1157 C1156 1.497 . S
C1158 C1159 1.582 . S
C1158 H1215 0.962 1_655 S
C1158 H1216 0.959 1_655 S
C1158 H1217 0.958 . S
C1159 C1158 1.582 . S
C1159 O1162 1.458 . S
C1159 H1188 0.980 . S
O1160 C1105 1.426 . S
O1160 C1106 1.334 . S
O1161 C1133 1.412 . S
O1161 C1134 1.393 . S
O1162 C1124 1.435 . S
O1162 C1159 1.458 . S
O1163 C1115 1.468 . S
O1163 C1116 1.408 . S
H1164 C1105 0.980 1_554 S
H1165 C1104 0.960 . S
H1166 C1104 0.964 1_565 S
H1167 C1104 0.960 1_565 S
H1168 C1107 0.929 . S
H1169 C1111 0.929 . S
H1170 C1112 0.959 . S
H1171 C1112 0.961 . S
H1172 C1112 0.961 . S
H1173 C1113 0.960 . S
H1174 C1113 0.960 . S
H1175 C1113 0.961 . S
H1176 C1115 0.980 . S
H1177 C1114 0.967 1_455 S
H1178 C1114 0.966 . S
H1179 C1114 0.952 1_456 S
H1180 C1117 0.930 . S
H1181 C1121 0.931 . S
H1182 C1122 0.959 . S
H1183 C1122 0.961 . S
H1184 C1122 0.959 . S
H1185 C1123 0.960 . S
H1186 C1123 0.960 . S
H1187 C1123 0.960 . S
H1188 C1159 0.980 . S
H1189 C1125 0.930 . S
H1190 C1129 0.930 . S
H1191 C1130 0.961 . S
H1192 C1130 0.960 . S
H1193 C1130 0.958 . S
H1194 C1131 0.961 . S
H1195 C1131 0.960 . S
H1196 C1131 0.960 . S
H1197 C1133 0.980 . S
H1198 C1132 0.961 . S
H1199 C1132 0.961 . S
H1200 C1132 0.959 . S
H1201 C1135 0.932 . S
H1202 C1139 0.929 . S
H1203 C1140 0.961 . S
H1204 C1140 0.959 . S
H1205 C1140 0.959 . S
H1206 C1141 0.960 . S
H1207 C1141 0.962 . S
H1208 C1141 0.961 . S
H1209 C1143 0.929 . S
H1210 C1146 0.930 . S
H1211 C1147 0.929 . S
H1212 C1150 0.930 . S
H1213 C1153 0.929 . S
H1214 C1154 0.930 . S
H1215 C1158 0.962 1_455 S
H1216 C1158 0.959 1_455 S
H1217 C1158 0.958 . S
C1218 C1219 1.560 . S
C1218 H1279 0.959 . S
C1218 H1280 0.959 . S
C1218 H1281 0.960 . S
C1219 C1218 1.560 . S
C1219 O1274 1.426 1_554 S
C1219 H1278 0.980 . S
C1220 C1221 1.407 . S
C1220 C1225 1.418 . S
C1220 O1274 1.334 . S
C1221 C1220 1.407 . S
C1221 C1222 1.360 . S
C1221 H1282 0.929 . S
C1222 C1221 1.360 . S
C1222 C1223 1.401 . S
C1222 C1226 1.527 . S
C1223 C1222 1.401 . S
C1223 C1224 1.405 . S
C1223 C1256 1.587 . S
C1224 C1223 1.405 . S
C1224 C1225 1.332 . S
C1224 C1227 1.496 . S
C1225 C1220 1.418 . S
C1225 C1224 1.332 . S
C1225 H1283 0.929 . S
C1226 C1222 1.527 . S
C1226 H1284 0.959 . S
C1226 H1285 0.961 . S
C1226 H1286 0.961 . S
C1227 C1224 1.496 . S
C1227 H1287 0.960 . S
C1227 H1288 0.960 . S
C1227 H1289 0.961 . S
C1228 C1229 1.517 1_454 S
C1228 H1291 0.961 . S
C1228 H1292 0.960 . S
C1228 H1293 0.959 1_554 S
C1229 C1228 1.517 1_656 S
C1229 O1277 1.468 . S
C1229 H1290 0.980 1_556 S
C1230 C1231 1.349 . S
C1230 C1235 1.367 . S
C1230 O1277 1.408 . S
C1231 C1230 1.349 . S
C1231 C1232 1.407 . S
C1231 H1294 0.930 . S
C1232 C1231 1.407 . S
C1232 C1233 1.449 . S
C1232 C1236 1.535 . S
C1233 C1232 1.449 . S
C1233 C1234 1.384 . S
C1233 C1258 1.553 . S
C1234 C1233 1.384 . S
C1234 C1235 1.364 . S
C1234 C1237 1.450 . S
C1235 C1230 1.367 . S
C1235 C1234 1.364 . S
C1235 H1295 0.931 . S
C1236 C1232 1.535 . S
C1236 H1296 0.959 . S
C1236 H1297 0.961 . S
C1236 H1298 0.959 . S
C1237 C1234 1.450 . S
C1237 H1299 0.960 . S
C1237 H1300 0.960 . S
C1237 H1301 0.960 . S
C1238 C1239 1.309 . S
C1238 C1243 1.304 . S
C1238 O1276 1.435 . S
C1239 C1238 1.309 . S
C1239 C1240 1.476 . S
C1239 H1303 0.930 . S
C1240 C1239 1.476 . S
C1240 C1241 1.400 . S
C1240 C1244 1.567 . S
C1241 C1240 1.400 . S
C1241 C1242 1.373 . S
C1241 C1263 1.432 . S
C1242 C1241 1.373 . S
C1242 C1243 1.339 . S
C1242 C1245 1.530 . S
C1243 C1238 1.304 . S
C1243 C1242 1.339 . S
C1243 H1304 0.930 . S
C1244 C1240 1.567 . S
C1244 H1305 0.961 . S
C1244 H1306 0.960 . S
C1244 H1307 0.958 . S
C1245 C1242 1.530 . S
C1245 H1308 0.961 . S
C1245 H1309 0.960 . S
C1245 H1310 0.960 . S
C1246 C1247 1.530 . S
C1246 H1312 0.961 . S
C1246 H1313 0.961 . S
C1246 H1314 0.959 . S
C1247 C1246 1.530 . S
C1247 O1275 1.412 . S
C1247 H1311 0.980 . S
C1248 C1249 1.288 . S
C1248 C1253 1.377 . S
C1248 O1275 1.393 . S
C1249 C1248 1.288 . S
C1249 C1250 1.369 . S
C1249 H1315 0.932 . S
C1250 C1249 1.369 . S
C1250 C1251 1.398 . S
C1250 C1254 1.527 . S
C1251 C1250 1.398 . S
C1251 C1252 1.380 . S
C1251 C1265 1.497 . S
C1252 C1251 1.380 . S
C1252 C1253 1.383 . S
C1252 C1255 1.603 . S
C1253 C1248 1.377 . S
C1253 C1252 1.383 . S
C1253 H1316 0.929 . S
C1254 C1250 1.527 . S
C1254 H1317 0.961 . S
C1254 H1318 0.959 . S
C1254 H1319 0.959 . S
C1255 C1252 1.603 . S
C1255 H1320 0.960 . S
C1255 H1321 0.962 . S
C1255 H1322 0.961 . S
C1256 C1223 1.587 . S
C1256 C1257 1.360 . S
C1256 C1269 1.412 . S
C1257 C1256 1.360 . S
C1257 C1258 1.365 . S
C1257 H1323 0.929 . S
C1258 C1233 1.553 . S
C1258 C1257 1.365 . S
C1258 C1259 1.404 . S
C1259 C1258 1.404 . S
C1259 C1260 1.395 . S
C1259 C1270 1.451 . S
C1260 C1259 1.395 . S
C1260 C1261 1.322 . S
C1260 H1324 0.930 . S
C1261 C1260 1.322 . S
C1261 C1262 1.459 . S
C1261 H1325 0.929 . S
C1262 C1261 1.459 . S
C1262 C1263 1.445 . S
C1262 C1271 1.395 . S
C1263 C1241 1.432 . S
C1263 C1262 1.445 . S
C1263 C1264 1.370 . S
C1264 C1263 1.370 . S
C1264 C1265 1.438 . S
C1264 H1326 0.930 . S
C1265 C1251 1.497 . S
C1265 C1264 1.438 . S
C1265 C1266 1.360 . S
C1266 C1265 1.360 . S
C1266 C1267 1.401 . S
C1266 C1271 1.446 . S
C1267 C1266 1.401 . S
C1267 C1268 1.347 . S
C1267 H1327 0.929 . S
C1268 C1267 1.347 . S
C1268 C1269 1.455 . S
C1268 H1328 0.930 . S
C1269 C1256 1.412 . S
C1269 C1268 1.455 . S
C1269 C1270 1.331 . S
C1270 C1259 1.451 . S
C1270 C1269 1.331 . S
C1270 C1271 1.497 . S
C1271 C1262 1.395 . S
C1271 C1266 1.446 . S
C1271 C1270 1.497 . S
C1272 C1273 1.582 1_455 S
C1272 H1329 0.962 . S
C1272 H1330 0.959 . S
C1272 H1331 0.958 . S
C1273 C1272 1.582 1_655 S
C1273 O1276 1.458 . S
C1273 H1302 0.980 . S
O1274 C1219 1.426 1_556 S
O1274 C1220 1.334 . S
O1275 C1247 1.412 . S
O1275 C1248 1.393 . S
O1276 C1238 1.435 . S
O1276 C1273 1.458 . S
O1277 C1229 1.468 . S
O1277 C1230 1.408 . S
H1278 C1219 0.980 . S
H1279 C1218 0.959 . S
H1280 C1218 0.959 . S
H1281 C1218 0.960 . S
H1282 C1221 0.929 . S
H1283 C1225 0.929 . S
H1284 C1226 0.959 . S
H1285 C1226 0.961 . S
H1286 C1226 0.961 . S
H1287 C1227 0.960 . S
H1288 C1227 0.960 . S
H1289 C1227 0.961 . S
H1290 C1229 0.980 1_554 S
H1291 C1228 0.961 . S
H1292 C1228 0.960 . S
H1293 C1228 0.959 1_556 S
H1294 C1231 0.930 . S
H1295 C1235 0.931 . S
H1296 C1236 0.959 . S
H1297 C1236 0.961 . S
H1298 C1236 0.959 . S
H1299 C1237 0.960 . S
H1300 C1237 0.960 . S
H1301 C1237 0.960 . S
H1302 C1273 0.980 . S
H1303 C1239 0.930 . S
H1304 C1243 0.930 . S
H1305 C1244 0.961 . S
H1306 C1244 0.960 . S
H1307 C1244 0.958 . S
H1308 C1245 0.961 . S
H1309 C1245 0.960 . S
H1310 C1245 0.960 . S
H1311 C1247 0.980 . S
H1312 C1246 0.961 . S
H1313 C1246 0.961 . S
H1314 C1246 0.959 . S
H1315 C1249 0.932 . S
H1316 C1253 0.929 . S
H1317 C1254 0.961 . S
H1318 C1254 0.959 . S
H1319 C1254 0.959 . S
H1320 C1255 0.960 . S
H1321 C1255 0.962 . S
H1322 C1255 0.961 . S
H1323 C1257 0.929 . S
H1324 C1260 0.930 . S
H1325 C1261 0.929 . S
H1326 C1264 0.930 . S
H1327 C1267 0.929 . S
H1328 C1268 0.930 . S
H1329 C1272 0.962 . S
H1330 C1272 0.959 . S
H1331 C1272 0.958 . S
C1332 C1333 1.560 . S
C1332 H1393 0.959 . S
C1332 H1394 0.959 . S
C1332 H1395 0.960 . S
C1333 C1332 1.560 . S
C1333 O1388 1.426 . S
C1333 H1392 0.980 . S
C1334 C1335 1.407 . S
C1334 C1339 1.418 . S
C1334 O1388 1.334 . S
C1335 C1334 1.407 . S
C1335 C1336 1.360 . S
C1335 H1396 0.929 . S
C1336 C1335 1.360 . S
C1336 C1337 1.401 . S
C1336 C1340 1.527 . S
C1337 C1336 1.401 . S
C1337 C1338 1.405 . S
C1337 C1370 1.587 . S
C1338 C1337 1.405 . S
C1338 C1339 1.332 . S
C1338 C1341 1.496 . S
C1339 C1334 1.418 . S
C1339 C1338 1.332 . S
C1339 H1397 0.929 . S
C1340 C1336 1.527 . S
C1340 H1398 0.959 . S
C1340 H1399 0.961 . S
C1340 H1400 0.961 . S
C1341 C1338 1.496 . S
C1341 H1401 0.960 . S
C1341 H1402 0.960 . S
C1341 H1403 0.961 . S
C1342 C1343 1.517 . S
C1342 H1405 0.961 . S
C1342 H1406 0.960 . S
C1342 H1407 0.959 . S
C1343 C1342 1.517 . S
C1343 O1391 1.468 . S
C1343 H1404 0.980 . S
C1344 C1345 1.349 . S
C1344 C1349 1.367 . S
C1344 O1391 1.408 . S
C1345 C1344 1.349 . S
C1345 C1346 1.407 . S
C1345 H1408 0.930 . S
C1346 C1345 1.407 . S
C1346 C1347 1.449 . S
C1346 C1350 1.535 . S
C1347 C1346 1.449 . S
C1347 C1348 1.384 . S
C1347 C1372 1.553 . S
C1348 C1347 1.384 . S
C1348 C1349 1.364 . S
C1348 C1351 1.450 . S
C1349 C1344 1.367 . S
C1349 C1348 1.364 . S
C1349 H1409 0.931 . S
C1350 C1346 1.535 . S
C1350 H1410 0.959 . S
C1350 H1411 0.961 . S
C1350 H1412 0.959 . S
C1351 C1348 1.450 . S
C1351 H1413 0.960 . S
C1351 H1414 0.960 . S
C1351 H1415 0.960 . S
C1352 C1353 1.309 . S
C1352 C1357 1.304 . S
C1352 O1390 1.435 . S
C1353 C1352 1.309 . S
C1353 C1354 1.476 . S
C1353 H1417 0.930 . S
C1354 C1353 1.476 . S
C1354 C1355 1.400 . S
C1354 C1358 1.567 . S
C1355 C1354 1.400 . S
C1355 C1356 1.373 . S
C1355 C1377 1.432 . S
C1356 C1355 1.373 . S
C1356 C1357 1.339 . S
C1356 C1359 1.530 . S
C1357 C1352 1.304 . S
C1357 C1356 1.339 . S
C1357 H1418 0.930 . S
C1358 C1354 1.567 . S
C1358 H1419 0.961 . S
C1358 H1420 0.960 . S
C1358 H1421 0.958 . S
C1359 C1356 1.530 . S
C1359 H1422 0.961 . S
C1359 H1423 0.960 . S
C1359 H1424 0.960 . S
C1360 C1361 1.530 . S
C1360 H1426 0.961 . S
C1360 H1427 0.961 . S
C1360 H1428 0.959 . S
C1361 C1360 1.530 . S
C1361 O1389 1.412 . S
C1361 H1425 0.980 . S
C1362 C1363 1.288 . S
C1362 C1367 1.377 . S
C1362 O1389 1.393 . S
C1363 C1362 1.288 . S
C1363 C1364 1.369 . S
C1363 H1429 0.932 . S
C1364 C1363 1.369 . S
C1364 C1365 1.398 . S
C1364 C1368 1.527 . S
C1365 C1364 1.398 . S
C1365 C1366 1.380 . S
C1365 C1379 1.497 . S
C1366 C1365 1.380 . S
C1366 C1367 1.383 . S
C1366 C1369 1.603 . S
C1367 C1362 1.377 . S
C1367 C1366 1.383 . S
C1367 H1430 0.929 . S
C1368 C1364 1.527 . S
C1368 H1431 0.961 . S
C1368 H1432 0.959 . S
C1368 H1433 0.959 . S
C1369 C1366 1.603 . S
C1369 H1434 0.960 . S
C1369 H1435 0.962 . S
C1369 H1436 0.961 . S
C1370 C1337 1.587 . S
C1370 C1371 1.360 . S
C1370 C1383 1.412 . S
C1371 C1370 1.360 . S
C1371 C1372 1.365 . S
C1371 H1437 0.929 . S
C1372 C1347 1.553 . S
C1372 C1371 1.365 . S
C1372 C1373 1.404 . S
C1373 C1372 1.404 . S
C1373 C1374 1.395 . S
C1373 C1384 1.451 . S
C1374 C1373 1.395 . S
C1374 C1375 1.322 . S
C1374 H1438 0.930 . S
C1375 C1374 1.322 . S
C1375 C1376 1.459 . S
C1375 H1439 0.929 . S
C1376 C1375 1.459 . S
C1376 C1377 1.445 . S
C1376 C1385 1.395 . S
C1377 C1355 1.432 . S
C1377 C1376 1.445 . S
C1377 C1378 1.370 . S
C1378 C1377 1.370 . S
C1378 C1379 1.438 . S
C1378 H1440 0.930 . S
C1379 C1365 1.497 . S
C1379 C1378 1.438 . S
C1379 C1380 1.360 . S
C1380 C1379 1.360 . S
C1380 C1381 1.401 . S
C1380 C1385 1.446 . S
C1381 C1380 1.401 . S
C1381 C1382 1.347 . S
C1381 H1441 0.929 . S
C1382 C1381 1.347 . S
C1382 C1383 1.455 . S
C1382 H1442 0.930 . S
C1383 C1370 1.412 . S
C1383 C1382 1.455 . S
C1383 C1384 1.331 . S
C1384 C1373 1.451 . S
C1384 C1383 1.331 . S
C1384 C1385 1.497 . S
C1385 C1376 1.395 . S
C1385 C1380 1.446 . S
C1385 C1384 1.497 . S
C1386 C1387 1.582 . S
C1386 H1443 0.962 . S
C1386 H1444 0.959 . S
C1386 H1445 0.958 . S
C1387 C1386 1.582 . S
C1387 O1390 1.458 . S
C1387 H1416 0.980 . S
O1388 C1333 1.426 . S
O1388 C1334 1.334 . S
O1389 C1361 1.412 . S
O1389 C1362 1.393 . S
O1390 C1352 1.435 . S
O1390 C1387 1.458 . S
O1391 C1343 1.468 . S
O1391 C1344 1.408 . S
H1392 C1333 0.980 . S
H1393 C1332 0.959 . S
H1394 C1332 0.959 . S
H1395 C1332 0.960 . S
H1396 C1335 0.929 . S
H1397 C1339 0.929 . S
H1398 C1340 0.959 . S
H1399 C1340 0.961 . S
H1400 C1340 0.961 . S
H1401 C1341 0.960 . S
H1402 C1341 0.960 . S
H1403 C1341 0.961 . S
H1404 C1343 0.980 . S
H1405 C1342 0.961 . S
H1406 C1342 0.960 . S
H1407 C1342 0.959 . S
H1408 C1345 0.930 . S
H1409 C1349 0.931 . S
H1410 C1350 0.959 . S
H1411 C1350 0.961 . S
H1412 C1350 0.959 . S
H1413 C1351 0.960 . S
H1414 C1351 0.960 . S
H1415 C1351 0.960 . S
H1416 C1387 0.980 . S
H1417 C1353 0.930 . S
H1418 C1357 0.930 . S
H1419 C1358 0.961 . S
H1420 C1358 0.960 . S
H1421 C1358 0.958 . S
H1422 C1359 0.961 . S
H1423 C1359 0.960 . S
H1424 C1359 0.960 . S
H1425 C1361 0.980 . S
H1426 C1360 0.961 . S
H1427 C1360 0.961 . S
H1428 C1360 0.959 . S
H1429 C1363 0.932 . S
H1430 C1367 0.929 . S
H1431 C1368 0.961 . S
H1432 C1368 0.959 . S
H1433 C1368 0.959 . S
H1434 C1369 0.960 . S
H1435 C1369 0.962 . S
H1436 C1369 0.961 . S
H1437 C1371 0.929 . S
H1438 C1374 0.930 . S
H1439 C1375 0.929 . S
H1440 C1378 0.930 . S
H1441 C1381 0.929 . S
H1442 C1382 0.930 . S
H1443 C1386 0.962 . S
H1444 C1386 0.959 . S
H1445 C1386 0.958 . S
C1446 C1447 1.560 . S
C1446 H1507 0.959 . S
C1446 H1508 0.959 . S
C1446 H1509 0.960 . S
C1447 C1446 1.560 . S
C1447 O1502 1.426 . S
C1447 H1506 0.980 . S
C1448 C1449 1.407 . S
C1448 C1453 1.418 . S
C1448 O1502 1.334 . S
C1449 C1448 1.407 . S
C1449 C1450 1.360 . S
C1449 H1510 0.929 . S
C1450 C1449 1.360 . S
C1450 C1451 1.401 . S
C1450 C1454 1.527 . S
C1451 C1450 1.401 . S
C1451 C1452 1.405 . S
C1451 C1484 1.587 . S
C1452 C1451 1.405 . S
C1452 C1453 1.332 . S
C1452 C1455 1.496 . S
C1453 C1448 1.418 . S
C1453 C1452 1.332 . S
C1453 H1511 0.929 . S
C1454 C1450 1.527 . S
C1454 H1512 0.959 . S
C1454 H1513 0.961 . S
C1454 H1514 0.961 . S
C1455 C1452 1.496 . S
C1455 H1515 0.960 . S
C1455 H1516 0.960 . S
C1455 H1517 0.961 . S
C1456 C1457 1.517 . S
C1456 H1519 0.961 . S
C1456 H1520 0.960 . S
C1456 H1521 0.959 . S
C1457 C1456 1.517 . S
C1457 O1505 1.468 . S
C1457 H1518 0.980 . S
C1458 C1459 1.349 . S
C1458 C1463 1.367 . S
C1458 O1505 1.408 . S
C1459 C1458 1.349 . S
C1459 C1460 1.407 . S
C1459 H1522 0.930 . S
C1460 C1459 1.407 . S
C1460 C1461 1.449 . S
C1460 C1464 1.535 . S
C1461 C1460 1.449 . S
C1461 C1462 1.384 . S
C1461 C1486 1.553 . S
C1462 C1461 1.384 . S
C1462 C1463 1.364 . S
C1462 C1465 1.450 . S
C1463 C1458 1.367 . S
C1463 C1462 1.364 . S
C1463 H1523 0.931 . S
C1464 C1460 1.535 . S
C1464 H1524 0.959 . S
C1464 H1525 0.961 . S
C1464 H1526 0.959 . S
C1465 C1462 1.450 . S
C1465 H1527 0.960 . S
C1465 H1528 0.960 . S
C1465 H1529 0.960 . S
C1466 C1467 1.309 . S
C1466 C1471 1.304 . S
C1466 O1504 1.435 . S
C1467 C1466 1.309 . S
C1467 C1468 1.476 . S
C1467 H1531 0.930 . S
C1468 C1467 1.476 . S
C1468 C1469 1.400 . S
C1468 C1472 1.567 . S
C1469 C1468 1.400 . S
C1469 C1470 1.373 . S
C1469 C1491 1.432 . S
C1470 C1469 1.373 . S
C1470 C1471 1.339 . S
C1470 C1473 1.530 . S
C1471 C1466 1.304 . S
C1471 C1470 1.339 . S
C1471 H1532 0.930 . S
C1472 C1468 1.567 . S
C1472 H1533 0.961 . S
C1472 H1534 0.960 . S
C1472 H1535 0.958 . S
C1473 C1470 1.530 . S
C1473 H1536 0.961 . S
C1473 H1537 0.960 . S
C1473 H1538 0.960 . S
C1474 C1475 1.530 . S
C1474 H1540 0.961 . S
C1474 H1541 0.961 . S
C1474 H1542 0.959 . S
C1475 C1474 1.530 . S
C1475 O1503 1.412 . S
C1475 H1539 0.980 . S
C1476 C1477 1.288 . S
C1476 C1481 1.377 . S
C1476 O1503 1.393 . S
C1477 C1476 1.288 . S
C1477 C1478 1.369 . S
C1477 H1543 0.932 . S
C1478 C1477 1.369 . S
C1478 C1479 1.398 . S
C1478 C1482 1.527 . S
C1479 C1478 1.398 . S
C1479 C1480 1.380 . S
C1479 C1493 1.497 . S
C1480 C1479 1.380 . S
C1480 C1481 1.383 . S
C1480 C1483 1.603 . S
C1481 C1476 1.377 . S
C1481 C1480 1.383 . S
C1481 H1544 0.929 . S
C1482 C1478 1.527 . S
C1482 H1545 0.961 . S
C1482 H1546 0.959 . S
C1482 H1547 0.959 . S
C1483 C1480 1.603 . S
C1483 H1548 0.960 . S
C1483 H1549 0.962 . S
C1483 H1550 0.961 . S
C1484 C1451 1.587 . S
C1484 C1485 1.360 . S
C1484 C1497 1.412 . S
C1485 C1484 1.360 . S
C1485 C1486 1.365 . S
C1485 H1551 0.929 . S
C1486 C1461 1.553 . S
C1486 C1485 1.365 . S
C1486 C1487 1.404 . S
C1487 C1486 1.404 . S
C1487 C1488 1.395 . S
C1487 C1498 1.451 . S
C1488 C1487 1.395 . S
C1488 C1489 1.322 . S
C1488 H1552 0.930 . S
C1489 C1488 1.322 . S
C1489 C1490 1.459 . S
C1489 H1553 0.929 . S
C1490 C1489 1.459 . S
C1490 C1491 1.445 . S
C1490 C1499 1.395 . S
C1491 C1469 1.432 . S
C1491 C1490 1.445 . S
C1491 C1492 1.370 . S
C1492 C1491 1.370 . S
C1492 C1493 1.438 . S
C1492 H1554 0.930 . S
C1493 C1479 1.497 . S
C1493 C1492 1.438 . S
C1493 C1494 1.360 . S
C1494 C1493 1.360 . S
C1494 C1495 1.401 . S
C1494 C1499 1.446 . S
C1495 C1494 1.401 . S
C1495 C1496 1.347 . S
C1495 H1555 0.929 . S
C1496 C1495 1.347 . S
C1496 C1497 1.455 . S
C1496 H1556 0.930 . S
C1497 C1484 1.412 . S
C1497 C1496 1.455 . S
C1497 C1498 1.331 . S
C1498 C1487 1.451 . S
C1498 C1497 1.331 . S
C1498 C1499 1.497 . S
C1499 C1490 1.395 . S
C1499 C1494 1.446 . S
C1499 C1498 1.497 . S
C1500 C1501 1.582 . S
C1500 H1557 0.962 . S
C1500 H1558 0.959 . S
C1500 H1559 0.958 . S
C1501 C1500 1.582 . S
C1501 O1504 1.458 . S
C1501 H1530 0.980 . S
O1502 C1447 1.426 . S
O1502 C1448 1.334 . S
O1503 C1475 1.412 . S
O1503 C1476 1.393 . S
O1504 C1466 1.435 . S
O1504 C1501 1.458 . S
O1505 C1457 1.468 . S
O1505 C1458 1.408 . S
H1506 C1447 0.980 . S
H1507 C1446 0.959 . S
H1508 C1446 0.959 . S
H1509 C1446 0.960 . S
H1510 C1449 0.929 . S
H1511 C1453 0.929 . S
H1512 C1454 0.959 . S
H1513 C1454 0.961 . S
H1514 C1454 0.961 . S
H1515 C1455 0.960 . S
H1516 C1455 0.960 . S
H1517 C1455 0.961 . S
H1518 C1457 0.980 . S
H1519 C1456 0.961 . S
H1520 C1456 0.960 . S
H1521 C1456 0.959 . S
H1522 C1459 0.930 . S
H1523 C1463 0.931 . S
H1524 C1464 0.959 . S
H1525 C1464 0.961 . S
H1526 C1464 0.959 . S
H1527 C1465 0.960 . S
H1528 C1465 0.960 . S
H1529 C1465 0.960 . S
H1530 C1501 0.980 . S
H1531 C1467 0.930 . S
H1532 C1471 0.930 . S
H1533 C1472 0.961 . S
H1534 C1472 0.960 . S
H1535 C1472 0.958 . S
H1536 C1473 0.961 . S
H1537 C1473 0.960 . S
H1538 C1473 0.960 . S
H1539 C1475 0.980 . S
H1540 C1474 0.961 . S
H1541 C1474 0.961 . S
H1542 C1474 0.959 . S
H1543 C1477 0.932 . S
H1544 C1481 0.929 . S
H1545 C1482 0.961 . S
H1546 C1482 0.959 . S
H1547 C1482 0.959 . S
H1548 C1483 0.960 . S
H1549 C1483 0.962 . S
H1550 C1483 0.961 . S
H1551 C1485 0.929 . S
H1552 C1488 0.930 . S
H1553 C1489 0.929 . S
H1554 C1492 0.930 . S
H1555 C1495 0.929 . S
H1556 C1496 0.930 . S
H1557 C1500 0.962 . S
H1558 C1500 0.959 . S
H1559 C1500 0.958 . S
C1560 C1561 1.560 . S
C1560 H1621 0.959 . S
C1560 H1622 0.959 . S
C1560 H1623 0.960 . S
C1561 C1560 1.560 . S
C1561 O1616 1.426 . S
C1561 H1620 0.980 . S
C1562 C1563 1.407 . S
C1562 C1567 1.418 . S
C1562 O1616 1.334 . S
C1563 C1562 1.407 . S
C1563 C1564 1.360 . S
C1563 H1624 0.929 . S
C1564 C1563 1.360 . S
C1564 C1565 1.401 . S
C1564 C1568 1.527 . S
C1565 C1564 1.401 . S
C1565 C1566 1.405 . S
C1565 C1598 1.587 . S
C1566 C1565 1.405 . S
C1566 C1567 1.332 . S
C1566 C1569 1.496 . S
C1567 C1562 1.418 . S
C1567 C1566 1.332 . S
C1567 H1625 0.929 . S
C1568 C1564 1.527 . S
C1568 H1626 0.959 . S
C1568 H1627 0.961 . S
C1568 H1628 0.961 . S
C1569 C1566 1.496 . S
C1569 H1629 0.960 . S
C1569 H1630 0.960 . S
C1569 H1631 0.961 . S
C1570 C1571 1.517 . S
C1570 H1633 0.961 . S
C1570 H1634 0.960 . S
C1570 H1635 0.959 . S
C1571 C1570 1.517 . S
C1571 O1619 1.468 . S
C1571 H1632 0.980 . S
C1572 C1573 1.349 . S
C1572 C1577 1.367 . S
C1572 O1619 1.408 . S
C1573 C1572 1.349 . S
C1573 C1574 1.407 . S
C1573 H1636 0.930 . S
C1574 C1573 1.407 . S
C1574 C1575 1.449 . S
C1574 C1578 1.535 . S
C1575 C1574 1.449 . S
C1575 C1576 1.384 . S
C1575 C1600 1.553 . S
C1576 C1575 1.384 . S
C1576 C1577 1.364 . S
C1576 C1579 1.450 . S
C1577 C1572 1.367 . S
C1577 C1576 1.364 . S
C1577 H1637 0.931 . S
C1578 C1574 1.535 . S
C1578 H1638 0.959 . S
C1578 H1639 0.961 . S
C1578 H1640 0.959 . S
C1579 C1576 1.450 . S
C1579 H1641 0.960 . S
C1579 H1642 0.960 . S
C1579 H1643 0.960 . S
C1580 C1581 1.309 . S
C1580 C1585 1.304 . S
C1580 O1618 1.435 . S
C1581 C1580 1.309 . S
C1581 C1582 1.476 . S
C1581 H1645 0.930 . S
C1582 C1581 1.476 . S
C1582 C1583 1.400 . S
C1582 C1586 1.567 . S
C1583 C1582 1.400 . S
C1583 C1584 1.373 . S
C1583 C1605 1.432 . S
C1584 C1583 1.373 . S
C1584 C1585 1.339 . S
C1584 C1587 1.530 . S
C1585 C1580 1.304 . S
C1585 C1584 1.339 . S
C1585 H1646 0.930 . S
C1586 C1582 1.567 . S
C1586 H1647 0.961 . S
C1586 H1648 0.960 . S
C1586 H1649 0.958 . S
C1587 C1584 1.530 . S
C1587 H1650 0.961 . S
C1587 H1651 0.960 . S
C1587 H1652 0.960 . S
C1588 C1589 1.530 . S
C1588 H1654 0.961 . S
C1588 H1655 0.961 . S
C1588 H1656 0.959 . S
C1589 C1588 1.530 . S
C1589 O1617 1.412 . S
C1589 H1653 0.980 . S
C1590 C1591 1.288 . S
C1590 C1595 1.377 . S
C1590 O1617 1.393 . S
C1591 C1590 1.288 . S
C1591 C1592 1.369 . S
C1591 H1657 0.932 . S
C1592 C1591 1.369 . S
C1592 C1593 1.398 . S
C1592 C1596 1.527 . S
C1593 C1592 1.398 . S
C1593 C1594 1.380 . S
C1593 C1607 1.497 . S
C1594 C1593 1.380 . S
C1594 C1595 1.383 . S
C1594 C1597 1.603 . S
C1595 C1590 1.377 . S
C1595 C1594 1.383 . S
C1595 H1658 0.929 . S
C1596 C1592 1.527 . S
C1596 H1659 0.961 . S
C1596 H1660 0.959 . S
C1596 H1661 0.959 . S
C1597 C1594 1.603 . S
C1597 H1662 0.960 . S
C1597 H1663 0.962 . S
C1597 H1664 0.961 . S
C1598 C1565 1.587 . S
C1598 C1599 1.360 . S
C1598 C1611 1.412 . S
C1599 C1598 1.360 . S
C1599 C1600 1.365 . S
C1599 H1665 0.929 . S
C1600 C1575 1.553 . S
C1600 C1599 1.365 . S
C1600 C1601 1.404 . S
C1601 C1600 1.404 . S
C1601 C1602 1.395 . S
C1601 C1612 1.451 . S
C1602 C1601 1.395 . S
C1602 C1603 1.322 . S
C1602 H1666 0.930 . S
C1603 C1602 1.322 . S
C1603 C1604 1.459 . S
C1603 H1667 0.929 . S
C1604 C1603 1.459 . S
C1604 C1605 1.445 . S
C1604 C1613 1.395 . S
C1605 C1583 1.432 . S
C1605 C1604 1.445 . S
C1605 C1606 1.370 . S
C1606 C1605 1.370 . S
C1606 C1607 1.438 . S
C1606 H1668 0.930 . S
C1607 C1593 1.497 . S
C1607 C1606 1.438 . S
C1607 C1608 1.360 . S
C1608 C1607 1.360 . S
C1608 C1609 1.401 . S
C1608 C1613 1.446 . S
C1609 C1608 1.401 . S
C1609 C1610 1.347 . S
C1609 H1669 0.929 . S
C1610 C1609 1.347 . S
C1610 C1611 1.455 . S
C1610 H1670 0.930 . S
C1611 C1598 1.412 . S
C1611 C1610 1.455 . S
C1611 C1612 1.331 . S
C1612 C1601 1.451 . S
C1612 C1611 1.331 . S
C1612 C1613 1.497 . S
C1613 C1604 1.395 . S
C1613 C1608 1.446 . S
C1613 C1612 1.497 . S
C1614 C1615 1.582 . S
C1614 H1671 0.962 . S
C1614 H1672 0.959 . S
C1614 H1673 0.958 . S
C1615 C1614 1.582 . S
C1615 O1618 1.458 . S
C1615 H1644 0.980 . S
O1616 C1561 1.426 . S
O1616 C1562 1.334 . S
O1617 C1589 1.412 . S
O1617 C1590 1.393 . S
O1618 C1580 1.435 . S
O1618 C1615 1.458 . S
O1619 C1571 1.468 . S
O1619 C1572 1.408 . S
H1620 C1561 0.980 . S
H1621 C1560 0.959 . S
H1622 C1560 0.959 . S
H1623 C1560 0.960 . S
H1624 C1563 0.929 . S
H1625 C1567 0.929 . S
H1626 C1568 0.959 . S
H1627 C1568 0.961 . S
H1628 C1568 0.961 . S
H1629 C1569 0.960 . S
H1630 C1569 0.960 . S
H1631 C1569 0.961 . S
H1632 C1571 0.980 . S
H1633 C1570 0.961 . S
H1634 C1570 0.960 . S
H1635 C1570 0.959 . S
H1636 C1573 0.930 . S
H1637 C1577 0.931 . S
H1638 C1578 0.959 . S
H1639 C1578 0.961 . S
H1640 C1578 0.959 . S
H1641 C1579 0.960 . S
H1642 C1579 0.960 . S
H1643 C1579 0.960 . S
H1644 C1615 0.980 . S
H1645 C1581 0.930 . S
H1646 C1585 0.930 . S
H1647 C1586 0.961 . S
H1648 C1586 0.960 . S
H1649 C1586 0.958 . S
H1650 C1587 0.961 . S
H1651 C1587 0.960 . S
H1652 C1587 0.960 . S
H1653 C1589 0.980 . S
H1654 C1588 0.961 . S
H1655 C1588 0.961 . S
H1656 C1588 0.959 . S
H1657 C1591 0.932 . S
H1658 C1595 0.929 . S
H1659 C1596 0.961 . S
H1660 C1596 0.959 . S
H1661 C1596 0.959 . S
H1662 C1597 0.960 . S
H1663 C1597 0.962 . S
H1664 C1597 0.961 . S
H1665 C1599 0.929 . S
H1666 C1602 0.930 . S
H1667 C1603 0.929 . S
H1668 C1606 0.930 . S
H1669 C1609 0.929 . S
H1670 C1610 0.930 . S
H1671 C1614 0.962 . S
H1672 C1614 0.959 . S
H1673 C1614 0.958 . S
C1674 C1675 1.560 . S
C1674 H1735 0.959 . S
C1674 H1736 0.959 . S
C1674 H1737 0.960 . S
C1675 C1674 1.560 . S
C1675 O1730 1.426 . S
C1675 H1734 0.980 . S
C1676 C1677 1.407 1_455 S
C1676 C1681 1.418 . S
C1676 O1730 1.334 . S
C1677 C1676 1.407 1_655 S
C1677 C1678 1.360 . S
C1677 H1738 0.929 . S
C1678 C1677 1.360 . S
C1678 C1679 1.401 1_655 S
C1678 C1682 1.527 . S
C1679 C1678 1.401 1_455 S
C1679 C1680 1.405 . S
C1679 C1712 1.587 1_455 S
C1680 C1679 1.405 . S
C1680 C1681 1.332 . S
C1680 C1683 1.496 . S
C1681 C1676 1.418 . S
C1681 C1680 1.332 . S
C1681 H1739 0.929 . S
C1682 C1678 1.527 . S
C1682 H1740 0.959 . S
C1682 H1741 0.961 . S
C1682 H1742 0.961 . S
C1683 C1680 1.496 . S
C1683 H1743 0.960 . S
C1683 H1744 0.960 . S
C1683 H1745 0.961 . S
C1684 C1685 1.517 . S
C1684 H1747 0.978 . S
C1684 H1748 0.960 . S
C1684 H1749 0.959 . S
C1685 C1684 1.517 . S
C1685 O1733 1.468 . S
C1685 H1746 0.980 1_655 S
C1686 C1687 1.349 . S
C1686 C1691 1.367 . S
C1686 O1733 1.408 . S
C1687 C1686 1.349 . S
C1687 C1688 1.407 1_655 S
C1687 H1750 0.930 1_655 S
C1688 C1687 1.407 1_455 S
C1688 C1689 1.449 1_455 S
C1688 C1692 1.535 . S
C1689 C1688 1.449 1_655 S
C1689 C1690 1.384 . S
C1689 C1714 1.553 . S
C1690 C1689 1.384 . S
C1690 C1691 1.364 . S
C1690 C1693 1.450 . S
C1691 C1686 1.367 . S
C1691 C1690 1.364 . S
C1691 H1751 0.931 . S
C1692 C1688 1.535 . S
C1692 H1752 0.959 . S
C1692 H1753 0.961 . S
C1692 H1754 0.959 . S
C1693 C1690 1.450 . S
C1693 H1755 0.960 . S
C1693 H1756 0.960 . S
C1693 H1757 0.960 . S
C1694 C1695 1.309 . S
C1694 C1699 1.304 . S
C1694 O1732 1.435 . S
C1695 C1694 1.309 . S
C1695 C1696 1.450 1_655 S
C1695 H1759 0.930 1_655 S
C1696 C1695 1.450 1_455 S
C1696 C1697 1.383 1_455 S
C1696 C1700 1.610 . S
C1697 C1696 1.383 1_655 S
C1697 C1698 1.373 . S
C1697 C1719 1.432 . S
C1698 C1697 1.373 . S
C1698 C1699 1.339 . S
C1698 C1701 1.530 . S
C1699 C1694 1.304 . S
C1699 C1698 1.339 . S
C1699 H1760 0.930 . S
C1700 C1696 1.610 . S
C1700 H1761 0.961 . S
C1700 H1762 0.960 . S
C1700 H1763 0.958 . S
C1701 C1698 1.530 . S
C1701 H1764 0.961 . S
C1701 H1765 0.960 . S
C1701 H1766 0.960 . S
C1702 C1703 1.506 1_455 S
C1702 H1768 0.961 . S
C1702 H1769 0.961 . S
C1702 H1770 0.959 . S
C1703 C1702 1.506 1_655 S
C1703 O1731 1.406 1_655 S
C1703 H1767 0.988 . S
C1704 C1705 1.288 . S
C1704 C1709 1.377 1_455 S
C1704 O1731 1.393 . S
C1705 C1704 1.288 . S
C1705 C1706 1.369 . S
C1705 H1771 0.932 . S
C1706 C1705 1.369 . S
C1706 C1707 1.398 1_455 S
C1706 C1710 1.527 . S
C1707 C1706 1.398 1_655 S
C1707 C1708 1.380 . S
C1707 C1721 1.497 . S
C1708 C1707 1.380 . S
C1708 C1709 1.383 . S
C1708 C1711 1.603 . S
C1709 C1704 1.377 1_655 S
C1709 C1708 1.383 . S
C1709 H1772 0.929 . S
C1710 C1706 1.527 . S
C1710 H1773 0.961 . S
C1710 H1774 0.959 . S
C1710 H1775 0.959 . S
C1711 C1708 1.603 . S
C1711 H1776 0.960 . S
C1711 H1777 0.962 . S
C1711 H1778 0.961 . S
C1712 C1679 1.587 1_655 S
C1712 C1713 1.360 . S
C1712 C1725 1.412 . S
C1713 C1712 1.360 . S
C1713 C1714 1.365 . S
C1713 H1779 0.929 . S
C1714 C1689 1.553 . S
C1714 C1713 1.365 . S
C1714 C1715 1.404 . S
C1715 C1714 1.404 . S
C1715 C1716 1.395 . S
C1715 C1726 1.451 . S
C1716 C1715 1.395 . S
C1716 C1717 1.322 . S
C1716 H1780 0.930 . S
C1717 C1716 1.322 . S
C1717 C1718 1.459 . S
C1717 H1781 0.929 . S
C1718 C1717 1.459 . S
C1718 C1719 1.445 . S
C1718 C1727 1.395 . S
C1719 C1697 1.432 . S
C1719 C1718 1.445 . S
C1719 C1720 1.370 . S
C1720 C1719 1.370 . S
C1720 C1721 1.438 . S
C1720 H1782 0.930 . S
C1721 C1707 1.497 . S
C1721 C1720 1.438 . S
C1721 C1722 1.360 . S
C1722 C1721 1.360 . S
C1722 C1723 1.401 . S
C1722 C1727 1.446 . S
C1723 C1722 1.401 . S
C1723 C1724 1.347 . S
C1723 H1783 0.929 . S
C1724 C1723 1.347 . S
C1724 C1725 1.455 . S
C1724 H1784 0.930 . S
C1725 C1712 1.412 . S
C1725 C1724 1.455 . S
C1725 C1726 1.331 . S
C1726 C1715 1.451 . S
C1726 C1725 1.331 . S
C1726 C1727 1.497 . S
C1727 C1718 1.395 . S
C1727 C1722 1.446 . S
C1727 C1726 1.497 . S
C1728 C1729 1.582 . S
C1728 H1785 0.962 . S
C1728 H1786 0.959 . S
C1728 H1787 0.958 . S
C1729 C1728 1.582 . S
C1729 O1732 1.458 . S
C1729 H1758 0.980 . S
O1730 C1675 1.426 . S
O1730 C1676 1.334 . S
O1731 C1703 1.406 1_455 S
O1731 C1704 1.393 . S
O1732 C1694 1.435 . S
O1732 C1729 1.458 . S
O1733 C1685 1.468 . S
O1733 C1686 1.408 . S
H1734 C1675 0.980 . S
H1735 C1674 0.959 . S
H1736 C1674 0.959 . S
H1737 C1674 0.960 . S
H1738 C1677 0.929 . S
H1739 C1681 0.929 . S
H1740 C1682 0.959 . S
H1741 C1682 0.961 . S
H1742 C1682 0.961 . S
H1743 C1683 0.960 . S
H1744 C1683 0.960 . S
H1745 C1683 0.961 . S
H1746 C1685 0.980 1_455 S
H1747 C1684 0.978 . S
H1748 C1684 0.960 . S
H1749 C1684 0.959 . S
H1750 C1687 0.930 1_455 S
H1751 C1691 0.931 . S
H1752 C1692 0.959 . S
H1753 C1692 0.961 . S
H1754 C1692 0.959 . S
H1755 C1693 0.960 . S
H1756 C1693 0.960 . S
H1757 C1693 0.960 . S
H1758 C1729 0.980 . S
H1759 C1695 0.930 1_455 S
H1760 C1699 0.930 . S
H1761 C1700 0.961 . S
H1762 C1700 0.960 . S
H1763 C1700 0.958 . S
H1764 C1701 0.961 . S
H1765 C1701 0.960 . S
H1766 C1701 0.960 . S
H1767 C1703 0.988 . S
H1768 C1702 0.961 . S
H1769 C1702 0.961 . S
H1770 C1702 0.959 . S
H1771 C1705 0.932 . S
H1772 C1709 0.929 . S
H1773 C1710 0.961 . S
H1774 C1710 0.959 . S
H1775 C1710 0.959 . S
H1776 C1711 0.960 . S
H1777 C1711 0.962 . S
H1778 C1711 0.961 . S
H1779 C1713 0.929 . S
H1780 C1716 0.930 . S
H1781 C1717 0.929 . S
H1782 C1720 0.930 . S
H1783 C1723 0.929 . S
H1784 C1724 0.930 . S
H1785 C1728 0.962 . S
H1786 C1728 0.959 . S
H1787 C1728 0.958 . S
C1788 C1789 1.560 . S
C1788 H1849 0.959 . S
C1788 H1850 0.959 . S
C1788 H1851 0.960 . S
C1789 C1788 1.560 . S
C1789 O1844 1.426 . S
C1789 H1848 0.980 . S
C1790 C1791 1.407 . S
C1790 C1795 1.418 . S
C1790 O1844 1.334 . S
C1791 C1790 1.407 . S
C1791 C1792 1.360 . S
C1791 H1852 0.929 . S
C1792 C1791 1.360 . S
C1792 C1793 1.401 . S
C1792 C1796 1.527 . S
C1793 C1792 1.401 . S
C1793 C1794 1.405 . S
C1793 C1826 1.587 . S
C1794 C1793 1.405 . S
C1794 C1795 1.332 . S
C1794 C1797 1.496 . S
C1795 C1790 1.418 . S
C1795 C1794 1.332 . S
C1795 H1853 0.929 . S
C1796 C1792 1.527 . S
C1796 H1854 0.959 . S
C1796 H1855 0.961 . S
C1796 H1856 0.961 . S
C1797 C1794 1.496 . S
C1797 H1857 0.960 . S
C1797 H1858 0.960 . S
C1797 H1859 0.961 . S
C1798 C1799 1.517 . S
C1798 H1861 0.961 . S
C1798 H1862 0.960 . S
C1798 H1863 0.959 . S
C1799 C1798 1.517 . S
C1799 O1847 1.468 . S
C1799 H1860 0.980 . S
C1800 C1801 1.349 . S
C1800 C1805 1.367 . S
C1800 O1847 1.408 . S
C1801 C1800 1.349 . S
C1801 C1802 1.407 . S
C1801 H1864 0.930 . S
C1802 C1801 1.407 . S
C1802 C1803 1.449 . S
C1802 C1806 1.535 . S
C1803 C1802 1.449 . S
C1803 C1804 1.384 . S
C1803 C1828 1.553 . S
C1804 C1803 1.384 . S
C1804 C1805 1.364 . S
C1804 C1807 1.450 . S
C1805 C1800 1.367 . S
C1805 C1804 1.364 . S
C1805 H1865 0.931 . S
C1806 C1802 1.535 . S
C1806 H1866 0.959 . S
C1806 H1867 0.961 . S
C1806 H1868 0.959 . S
C1807 C1804 1.450 . S
C1807 H1869 0.960 . S
C1807 H1870 0.960 . S
C1807 H1871 0.960 . S
C1808 C1809 1.309 . S
C1808 C1813 1.304 . S
C1808 O1846 1.435 . S
C1809 C1808 1.309 . S
C1809 C1810 1.476 . S
C1809 H1873 0.930 . S
C1810 C1809 1.476 . S
C1810 C1811 1.400 . S
C1810 C1814 1.567 . S
C1811 C1810 1.400 . S
C1811 C1812 1.373 . S
C1811 C1833 1.432 . S
C1812 C1811 1.373 . S
C1812 C1813 1.339 . S
C1812 C1815 1.530 . S
C1813 C1808 1.304 . S
C1813 C1812 1.339 . S
C1813 H1874 0.930 . S
C1814 C1810 1.567 . S
C1814 H1875 0.961 . S
C1814 H1876 0.960 . S
C1814 H1877 0.958 . S
C1815 C1812 1.530 . S
C1815 H1878 0.961 . S
C1815 H1879 0.960 . S
C1815 H1880 0.960 . S
C1816 C1817 1.530 . S
C1816 H1882 0.961 . S
C1816 H1883 0.961 . S
C1816 H1884 0.959 . S
C1817 C1816 1.530 . S
C1817 O1845 1.412 . S
C1817 H1881 0.980 . S
C1818 C1819 1.288 . S
C1818 C1823 1.377 . S
C1818 O1845 1.393 . S
C1819 C1818 1.288 . S
C1819 C1820 1.369 . S
C1819 H1885 0.932 . S
C1820 C1819 1.369 . S
C1820 C1821 1.398 . S
C1820 C1824 1.527 . S
C1821 C1820 1.398 . S
C1821 C1822 1.380 . S
C1821 C1835 1.497 . S
C1822 C1821 1.380 . S
C1822 C1823 1.383 . S
C1822 C1825 1.603 . S
C1823 C1818 1.377 . S
C1823 C1822 1.383 . S
C1823 H1886 0.929 . S
C1824 C1820 1.527 . S
C1824 H1887 0.961 . S
C1824 H1888 0.959 . S
C1824 H1889 0.959 . S
C1825 C1822 1.603 . S
C1825 H1890 0.960 . S
C1825 H1891 0.962 . S
C1825 H1892 0.961 . S
C1826 C1793 1.587 . S
C1826 C1827 1.360 . S
C1826 C1839 1.412 . S
C1827 C1826 1.360 . S
C1827 C1828 1.365 . S
C1827 H1893 0.929 . S
C1828 C1803 1.553 . S
C1828 C1827 1.365 . S
C1828 C1829 1.404 . S
C1829 C1828 1.404 . S
C1829 C1830 1.395 . S
C1829 C1840 1.451 . S
C1830 C1829 1.395 . S
C1830 C1831 1.322 . S
C1830 H1894 0.930 . S
C1831 C1830 1.322 . S
C1831 C1832 1.459 . S
C1831 H1895 0.929 . S
C1832 C1831 1.459 . S
C1832 C1833 1.445 . S
C1832 C1841 1.395 . S
C1833 C1811 1.432 . S
C1833 C1832 1.445 . S
C1833 C1834 1.370 . S
C1834 C1833 1.370 . S
C1834 C1835 1.438 . S
C1834 H1896 0.930 . S
C1835 C1821 1.497 . S
C1835 C1834 1.438 . S
C1835 C1836 1.360 . S
C1836 C1835 1.360 . S
C1836 C1837 1.401 . S
C1836 C1841 1.446 . S
C1837 C1836 1.401 . S
C1837 C1838 1.347 . S
C1837 H1897 0.929 . S
C1838 C1837 1.347 . S
C1838 C1839 1.455 . S
C1838 H1898 0.930 . S
C1839 C1826 1.412 . S
C1839 C1838 1.455 . S
C1839 C1840 1.331 . S
C1840 C1829 1.451 . S
C1840 C1839 1.331 . S
C1840 C1841 1.497 . S
C1841 C1832 1.395 . S
C1841 C1836 1.446 . S
C1841 C1840 1.497 . S
C1842 C1843 1.582 . S
C1842 H1899 0.962 . S
C1842 H1900 0.959 . S
C1842 H1901 0.958 . S
C1843 C1842 1.582 . S
C1843 O1846 1.458 . S
C1843 H1872 0.980 . S
O1844 C1789 1.426 . S
O1844 C1790 1.334 . S
O1845 C1817 1.412 . S
O1845 C1818 1.393 . S
O1846 C1808 1.435 . S
O1846 C1843 1.458 . S
O1847 C1799 1.468 . S
O1847 C1800 1.408 . S
H1848 C1789 0.980 . S
H1849 C1788 0.959 . S
H1850 C1788 0.959 . S
H1851 C1788 0.960 . S
H1852 C1791 0.929 . S
H1853 C1795 0.929 . S
H1854 C1796 0.959 . S
H1855 C1796 0.961 . S
H1856 C1796 0.961 . S
H1857 C1797 0.960 . S
H1858 C1797 0.960 . S
H1859 C1797 0.961 . S
H1860 C1799 0.980 . S
H1861 C1798 0.961 . S
H1862 C1798 0.960 . S
H1863 C1798 0.959 . S
H1864 C1801 0.930 . S
H1865 C1805 0.931 . S
H1866 C1806 0.959 . S
H1867 C1806 0.961 . S
H1868 C1806 0.959 . S
H1869 C1807 0.960 . S
H1870 C1807 0.960 . S
H1871 C1807 0.960 . S
H1872 C1843 0.980 . S
H1873 C1809 0.930 . S
H1874 C1813 0.930 . S
H1875 C1814 0.961 . S
H1876 C1814 0.960 . S
H1877 C1814 0.958 . S
H1878 C1815 0.961 . S
H1879 C1815 0.960 . S
H1880 C1815 0.960 . S
H1881 C1817 0.980 . S
H1882 C1816 0.961 . S
H1883 C1816 0.961 . S
H1884 C1816 0.959 . S
H1885 C1819 0.932 . S
H1886 C1823 0.929 . S
H1887 C1824 0.961 . S
H1888 C1824 0.959 . S
H1889 C1824 0.959 . S
H1890 C1825 0.960 . S
H1891 C1825 0.962 . S
H1892 C1825 0.961 . S
H1893 C1827 0.929 . S
H1894 C1830 0.930 . S
H1895 C1831 0.929 . S
H1896 C1834 0.930 . S
H1897 C1837 0.929 . S
H1898 C1838 0.930 . S
H1899 C1842 0.962 . S
H1900 C1842 0.959 . S
H1901 C1842 0.958 . S
C1902 C1903 1.560 . S
C1902 H1963 0.959 . S
C1902 H1964 0.959 . S
C1902 H1965 0.960 . S
C1903 C1902 1.560 . S
C1903 O1958 1.426 . S
C1903 H1962 0.980 . S
C1904 C1905 1.407 1_565 S
C1904 C1909 1.418 . S
C1904 O1958 1.334 . S
C1905 C1904 1.407 1_545 S
C1905 C1906 1.360 . S
C1905 H1966 0.929 . S
C1906 C1905 1.360 . S
C1906 C1907 1.401 1_545 S
C1906 C1910 1.527 . S
C1907 C1906 1.401 1_565 S
C1907 C1908 1.405 . S
C1907 C1940 1.587 1_565 S
C1908 C1907 1.405 . S
C1908 C1909 1.332 . S
C1908 C1911 1.496 . S
C1909 C1904 1.418 . S
C1909 C1908 1.332 . S
C1909 H1967 0.929 . S
C1910 C1906 1.527 . S
C1910 H1968 0.959 . S
C1910 H1969 0.961 . S
C1910 H1970 0.961 . S
C1911 C1908 1.496 . S
C1911 H1971 0.960 . S
C1911 H1972 0.960 . S
C1911 H1973 0.961 . S
C1912 C1913 1.517 . S
C1912 H1975 0.961 1_545 S
C1912 H1976 0.960 . S
C1912 H1977 0.959 . S
C1913 C1912 1.517 . S
C1913 O1961 1.468 . S
C1913 H1974 0.980 1_545 S
C1914 C1915 1.349 . S
C1914 C1919 1.367 . S
C1914 O1961 1.408 . S
C1915 C1914 1.349 . S
C1915 C1916 1.407 1_545 S
C1915 H1978 0.930 1_545 S
C1916 C1915 1.407 1_565 S
C1916 C1917 1.449 1_565 S
C1916 C1920 1.535 . S
C1917 C1916 1.449 1_545 S
C1917 C1918 1.384 . S
C1917 C1942 1.553 . S
C1918 C1917 1.384 . S
C1918 C1919 1.364 . S
C1918 C1921 1.450 . S
C1919 C1914 1.367 . S
C1919 C1918 1.364 . S
C1919 H1979 0.931 . S
C1920 C1916 1.535 . S
C1920 H1980 0.959 . S
C1920 H1981 0.961 . S
C1920 H1982 0.959 . S
C1921 C1918 1.450 . S
C1921 H1983 0.960 . S
C1921 H1984 0.960 . S
C1921 H1985 0.960 . S
C1922 C1923 1.309 . S
C1922 C1927 1.304 . S
C1922 O1960 1.435 . S
C1923 C1922 1.309 . S
C1923 C1924 1.483 1_545 S
C1923 H1987 0.930 1_545 S
C1924 C1923 1.483 1_565 S
C1924 C1925 1.376 1_565 S
C1924 C1928 1.584 . S
C1925 C1924 1.376 1_545 S
C1925 C1926 1.373 . S
C1925 C1947 1.432 . S
C1926 C1925 1.373 . S
C1926 C1927 1.339 . S
C1926 C1929 1.530 . S
C1927 C1922 1.304 . S
C1927 C1926 1.339 . S
C1927 H1988 0.930 . S
C1928 C1924 1.584 . S
C1928 H1989 0.961 . S
C1928 H1990 0.960 . S
C1928 H1991 0.958 . S
C1929 C1926 1.530 . S
C1929 H1992 0.961 . S
C1929 H1993 0.960 . S
C1929 H1994 0.960 . S
C1930 C1931 1.530 1_565 S
C1930 H1996 0.961 . S
C1930 H1997 0.961 . S
C1930 H1998 0.959 . S
C1931 C1930 1.530 1_545 S
C1931 O1959 1.412 1_545 S
C1931 H1995 0.980 . S
C1932 C1933 1.288 . S
C1932 C1937 1.377 1_565 S
C1932 O1959 1.393 . S
C1933 C1932 1.288 . S
C1933 C1934 1.369 . S
C1933 H1999 0.932 . S
C1934 C1933 1.369 . S
C1934 C1935 1.398 1_565 S
C1934 C1938 1.527 . S
C1935 C1934 1.398 1_545 S
C1935 C1936 1.380 . S
C1935 C1949 1.497 . S
C1936 C1935 1.380 . S
C1936 C1937 1.383 . S
C1936 C1939 1.603 . S
C1937 C1932 1.377 1_545 S
C1937 C1936 1.383 . S
C1937 H2000 0.929 . S
C1938 C1934 1.527 . S
C1938 H2001 0.961 . S
C1938 H2002 0.959 . S
C1938 H2003 0.959 . S
C1939 C1936 1.603 . S
C1939 H2004 0.960 . S
C1939 H2005 0.962 . S
C1939 H2006 0.961 . S
C1940 C1907 1.587 1_545 S
C1940 C1941 1.360 . S
C1940 C1953 1.412 . S
C1941 C1940 1.360 . S
C1941 C1942 1.365 . S
C1941 H2007 0.929 . S
C1942 C1917 1.553 . S
C1942 C1941 1.365 . S
C1942 C1943 1.404 . S
C1943 C1942 1.404 . S
C1943 C1944 1.395 . S
C1943 C1954 1.451 . S
C1944 C1943 1.395 . S
C1944 C1945 1.322 . S
C1944 H2008 0.930 . S
C1945 C1944 1.322 . S
C1945 C1946 1.459 . S
C1945 H2009 0.929 . S
C1946 C1945 1.459 . S
C1946 C1947 1.445 . S
C1946 C1955 1.395 . S
C1947 C1925 1.432 . S
C1947 C1946 1.445 . S
C1947 C1948 1.370 . S
C1948 C1947 1.370 . S
C1948 C1949 1.438 . S
C1948 H2010 0.930 . S
C1949 C1935 1.497 . S
C1949 C1948 1.438 . S
C1949 C1950 1.360 . S
C1950 C1949 1.360 . S
C1950 C1951 1.401 . S
C1950 C1955 1.446 . S
C1951 C1950 1.401 . S
C1951 C1952 1.347 . S
C1951 H2011 0.929 . S
C1952 C1951 1.347 . S
C1952 C1953 1.455 . S
C1952 H2012 0.930 . S
C1953 C1940 1.412 . S
C1953 C1952 1.455 . S
C1953 C1954 1.331 . S
C1954 C1943 1.451 . S
C1954 C1953 1.331 . S
C1954 C1955 1.497 . S
C1955 C1946 1.395 . S
C1955 C1950 1.446 . S
C1955 C1954 1.497 . S
C1956 C1957 1.582 . S
C1956 H2013 0.962 . S
C1956 H2014 0.959 . S
C1956 H2015 0.958 . S
C1957 C1956 1.582 . S
C1957 O1960 1.458 . S
C1957 H1986 0.980 . S
O1958 C1903 1.426 . S
O1958 C1904 1.334 . S
O1959 C1931 1.412 1_565 S
O1959 C1932 1.393 . S
O1960 C1922 1.435 . S
O1960 C1957 1.458 . S
O1961 C1913 1.468 . S
O1961 C1914 1.408 . S
H1962 C1903 0.980 . S
H1963 C1902 0.959 . S
H1964 C1902 0.959 . S
H1965 C1902 0.960 . S
H1966 C1905 0.929 . S
H1967 C1909 0.929 . S
H1968 C1910 0.959 . S
H1969 C1910 0.961 . S
H1970 C1910 0.961 . S
H1971 C1911 0.960 . S
H1972 C1911 0.960 . S
H1973 C1911 0.961 . S
H1974 C1913 0.980 1_565 S
H1975 C1912 0.961 1_565 S
H1976 C1912 0.960 . S
H1977 C1912 0.959 . S
H1978 C1915 0.930 1_565 S
H1979 C1919 0.931 . S
H1980 C1920 0.959 . S
H1981 C1920 0.961 . S
H1982 C1920 0.959 . S
H1983 C1921 0.960 . S
H1984 C1921 0.960 . S
H1985 C1921 0.960 . S
H1986 C1957 0.980 . S
H1987 C1923 0.930 1_565 S
H1988 C1927 0.930 . S
H1989 C1928 0.961 . S
H1990 C1928 0.960 . S
H1991 C1928 0.958 . S
H1992 C1929 0.961 . S
H1993 C1929 0.960 . S
H1994 C1929 0.960 . S
H1995 C1931 0.980 . S
H1996 C1930 0.961 . S
H1997 C1930 0.961 . S
H1998 C1930 0.959 . S
H1999 C1933 0.932 . S
H2000 C1937 0.929 . S
H2001 C1938 0.961 . S
H2002 C1938 0.959 . S
H2003 C1938 0.959 . S
H2004 C1939 0.960 . S
H2005 C1939 0.962 . S
H2006 C1939 0.961 . S
H2007 C1941 0.929 . S
H2008 C1944 0.930 . S
H2009 C1945 0.929 . S
H2010 C1948 0.930 . S
H2011 C1951 0.929 . S
H2012 C1952 0.930 . S
H2013 C1956 0.962 . S
H2014 C1956 0.959 . S
H2015 C1956 0.958 . S
C2016 C2017 1.560 . S
C2016 H2077 0.959 . S
C2016 H2078 0.959 . S
C2016 H2079 0.960 . S
C2017 C2016 1.560 . S
C2017 O2072 1.426 . S
C2017 H2076 0.980 1_565 S
C2018 C2019 1.407 1_565 S
C2018 C2023 1.418 . S
C2018 O2072 1.334 . S
C2019 C2018 1.407 1_545 S
C2019 C2020 1.360 . S
C2019 H2080 0.929 . S
C2020 C2019 1.360 . S
C2020 C2021 1.401 . S
C2020 C2024 1.527 . S
C2021 C2020 1.401 . S
C2021 C2022 1.405 1_545 S
C2021 C2054 1.587 . S
C2022 C2021 1.405 1_565 S
C2022 C2023 1.332 . S
C2022 C2025 1.496 . S
C2023 C2018 1.418 . S
C2023 C2022 1.332 . S
C2023 H2081 0.929 . S
C2024 C2020 1.527 . S
C2024 H2082 0.959 . S
C2024 H2083 0.961 . S
C2024 H2084 0.961 . S
C2025 C2022 1.496 . S
C2025 H2085 0.960 . S
C2025 H2086 0.960 . S
C2025 H2087 0.961 . S
C2026 C2027 1.517 . S
C2026 H2089 0.961 . S
C2026 H2090 0.960 . S
C2026 H2091 0.959 . S
C2027 C2026 1.517 . S
C2027 O2075 1.468 . S
C2027 H2088 0.980 . S
C2028 C2029 1.349 . S
C2028 C2033 1.367 . S
C2028 O2075 1.408 . S
C2029 C2028 1.349 . S
C2029 C2030 1.407 . S
C2029 H2092 0.925 1_545 S
C2030 C2029 1.407 . S
C2030 C2031 1.449 . S
C2030 C2034 1.535 1_545 S
C2031 C2030 1.449 . S
C2031 C2032 1.384 . S
C2031 C2056 1.553 . S
C2032 C2031 1.384 . S
C2032 C2033 1.364 . S
C2032 C2035 1.450 . S
C2033 C2028 1.367 . S
C2033 C2032 1.364 . S
C2033 H2093 0.931 . S
C2034 C2030 1.535 1_565 S
C2034 H2094 0.959 . S
C2034 H2095 0.961 . S
C2034 H2096 0.959 . S
C2035 C2032 1.450 . S
C2035 H2097 0.960 . S
C2035 H2098 0.960 . S
C2035 H2099 0.960 . S
C2036 C2037 1.309 1_545 S
C2036 C2041 1.304 . S
C2036 O2074 1.435 . S
C2037 C2036 1.309 1_565 S
C2037 C2038 1.476 . S
C2037 H2101 0.930 . S
C2038 C2037 1.476 . S
C2038 C2039 1.400 1_565 S
C2038 C2042 1.567 . S
C2039 C2038 1.400 1_545 S
C2039 C2040 1.373 . S
C2039 C2061 1.432 . S
C2040 C2039 1.373 . S
C2040 C2041 1.339 . S
C2040 C2043 1.530 . S
C2041 C2036 1.304 . S
C2041 C2040 1.339 . S
C2041 H2102 0.930 . S
C2042 C2038 1.567 . S
C2042 H2103 0.961 . S
C2042 H2104 0.960 . S
C2042 H2105 0.958 . S
C2043 C2040 1.530 . S
C2043 H2106 0.961 . S
C2043 H2107 0.960 . S
C2043 H2108 0.960 . S
C2044 C2045 1.530 . S
C2044 H2110 0.961 . S
C2044 H2111 0.961 . S
C2044 H2112 0.959 . S
C2045 C2044 1.530 . S
C2045 O2073 1.412 . S
C2045 H2109 0.996 . S
C2046 C2047 1.288 . S
C2046 C2051 1.377 1_565 S
C2046 O2073 1.393 . S
C2047 C2046 1.288 . S
C2047 C2048 1.369 . S
C2047 H2113 0.932 . S
C2048 C2047 1.369 . S
C2048 C2049 1.398 . S
C2048 C2052 1.527 . S
C2049 C2048 1.398 . S
C2049 C2050 1.380 1_565 S
C2049 C2063 1.497 1_565 S
C2050 C2049 1.380 1_545 S
C2050 C2051 1.383 . S
C2050 C2053 1.603 . S
C2051 C2046 1.377 1_545 S
C2051 C2050 1.383 . S
C2051 H2114 0.929 . S
C2052 C2048 1.527 . S
C2052 H2115 0.961 . S
C2052 H2116 0.959 . S
C2052 H2117 0.959 . S
C2053 C2050 1.603 . S
C2053 H2118 0.960 . S
C2053 H2119 0.962 . S
C2053 H2120 0.961 . S
C2054 C2021 1.587 . S
C2054 C2055 1.360 . S
C2054 C2067 1.412 . S
C2055 C2054 1.360 . S
C2055 C2056 1.365 . S
C2055 H2121 0.929 . S
C2056 C2031 1.553 . S
C2056 C2055 1.365 . S
C2056 C2057 1.404 . S
C2057 C2056 1.404 . S
C2057 C2058 1.395 . S
C2057 C2068 1.451 . S
C2058 C2057 1.395 . S
C2058 C2059 1.322 . S
C2058 H2122 0.930 . S
C2059 C2058 1.322 . S
C2059 C2060 1.459 . S
C2059 H2123 0.929 . S
C2060 C2059 1.459 . S
C2060 C2061 1.445 . S
C2060 C2069 1.395 . S
C2061 C2039 1.432 . S
C2061 C2060 1.445 . S
C2061 C2062 1.370 . S
C2062 C2061 1.370 . S
C2062 C2063 1.438 . S
C2062 H2124 0.930 . S
C2063 C2049 1.497 1_545 S
C2063 C2062 1.438 . S
C2063 C2064 1.360 . S
C2064 C2063 1.360 . S
C2064 C2065 1.401 . S
C2064 C2069 1.446 . S
C2065 C2064 1.401 . S
C2065 C2066 1.347 . S
C2065 H2125 0.929 . S
C2066 C2065 1.347 . S
C2066 C2067 1.455 . S
C2066 H2126 0.930 . S
C2067 C2054 1.412 . S
C2067 C2066 1.455 . S
C2067 C2068 1.331 . S
C2068 C2057 1.451 . S
C2068 C2067 1.331 . S
C2068 C2069 1.497 . S
C2069 C2060 1.395 . S
C2069 C2064 1.446 . S
C2069 C2068 1.497 . S
C2070 C2071 1.603 . S
C2070 H2127 0.962 . S
C2070 H2128 0.959 . S
C2070 H2129 0.958 . S
C2071 C2070 1.603 . S
C2071 O2074 1.467 . S
C2071 H2100 0.980 1_545 S
O2072 C2017 1.426 . S
O2072 C2018 1.334 . S
O2073 C2045 1.412 . S
O2073 C2046 1.393 . S
O2074 C2036 1.435 . S
O2074 C2071 1.467 . S
O2075 C2027 1.468 . S
O2075 C2028 1.408 . S
H2076 C2017 0.980 1_545 S
H2077 C2016 0.959 . S
H2078 C2016 0.959 . S
H2079 C2016 0.960 . S
H2080 C2019 0.929 . S
H2081 C2023 0.929 . S
H2082 C2024 0.959 . S
H2083 C2024 0.961 . S
H2084 C2024 0.961 . S
H2085 C2025 0.960 . S
H2086 C2025 0.960 . S
H2087 C2025 0.961 . S
H2088 C2027 0.980 . S
H2089 C2026 0.961 . S
H2090 C2026 0.960 . S
H2091 C2026 0.959 . S
H2092 C2029 0.925 1_565 S
H2093 C2033 0.931 . S
H2094 C2034 0.959 . S
H2095 C2034 0.961 . S
H2096 C2034 0.959 . S
H2097 C2035 0.960 . S
H2098 C2035 0.960 . S
H2099 C2035 0.960 . S
H2100 C2071 0.980 1_565 S
H2101 C2037 0.930 . S
H2102 C2041 0.930 . S
H2103 C2042 0.961 . S
H2104 C2042 0.960 . S
H2105 C2042 0.958 . S
H2106 C2043 0.961 . S
H2107 C2043 0.960 . S
H2108 C2043 0.960 . S
H2109 C2045 0.996 . S
H2110 C2044 0.961 . S
H2111 C2044 0.961 . S
H2112 C2044 0.959 . S
H2113 C2047 0.932 . S
H2114 C2051 0.929 . S
H2115 C2052 0.961 . S
H2116 C2052 0.959 . S
H2117 C2052 0.959 . S
H2118 C2053 0.960 . S
H2119 C2053 0.962 . S
H2120 C2053 0.961 . S
H2121 C2055 0.929 . S
H2122 C2058 0.930 . S
H2123 C2059 0.929 . S
H2124 C2062 0.930 . S
H2125 C2065 0.929 . S
H2126 C2066 0.930 . S
H2127 C2070 0.962 . S
H2128 C2070 0.959 . S
H2129 C2070 0.958 . S
C2130 C2131 1.560 . S
C2130 H2191 0.959 . S
C2130 H2192 0.959 . S
C2130 H2193 0.960 . S
C2131 C2130 1.560 . S
C2131 O2186 1.426 . S
C2131 H2190 0.980 1_455 S
C2132 C2133 1.407 1_455 S
C2132 C2137 1.418 . S
C2132 O2186 1.334 . S
C2133 C2132 1.407 1_655 S
C2133 C2134 1.360 . S
C2133 H2194 0.929 . S
C2134 C2133 1.360 . S
C2134 C2135 1.401 . S
C2134 C2138 1.527 . S
C2135 C2134 1.401 . S
C2135 C2136 1.405 1_655 S
C2135 C2168 1.587 . S
C2136 C2135 1.405 1_455 S
C2136 C2137 1.332 . S
C2136 C2139 1.496 . S
C2137 C2132 1.418 . S
C2137 C2136 1.332 . S
C2137 H2195 0.929 . S
C2138 C2134 1.527 . S
C2138 H2196 0.959 . S
C2138 H2197 0.961 . S
C2138 H2198 0.961 . S
C2139 C2136 1.496 . S
C2139 H2199 0.960 . S
C2139 H2200 0.960 . S
C2139 H2201 0.961 . S
C2140 C2141 1.517 . S
C2140 H2203 0.961 . S
C2140 H2204 0.960 . S
C2140 H2205 0.959 . S
C2141 C2140 1.517 . S
C2141 O2189 1.468 . S
C2141 H2202 0.980 . S
C2142 C2143 1.349 . S
C2142 C2147 1.367 . S
C2142 O2189 1.408 . S
C2143 C2142 1.349 . S
C2143 C2144 1.407 . S
C2143 H2206 0.930 . S
C2144 C2143 1.407 . S
C2144 C2145 1.449 . S
C2144 C2148 1.535 1_655 S
C2145 C2144 1.449 . S
C2145 C2146 1.384 . S
C2145 C2170 1.553 . S
C2146 C2145 1.384 . S
C2146 C2147 1.364 . S
C2146 C2149 1.450 . S
C2147 C2142 1.367 . S
C2147 C2146 1.364 . S
C2147 H2207 0.931 . S
C2148 C2144 1.535 1_455 S
C2148 H2208 0.959 . S
C2148 H2209 0.961 . S
C2148 H2210 0.959 . S
C2149 C2146 1.450 . S
C2149 H2211 0.960 . S
C2149 H2212 0.960 . S
C2149 H2213 0.960 . S
C2150 C2151 1.309 1_655 S
C2150 C2155 1.304 . S
C2150 O2188 1.435 . S
C2151 C2150 1.309 1_455 S
C2151 C2152 1.476 . S
C2151 H2215 0.930 . S
C2152 C2151 1.476 . S
C2152 C2153 1.400 1_455 S
C2152 C2156 1.567 . S
C2153 C2152 1.400 1_655 S
C2153 C2154 1.373 . S
C2153 C2175 1.432 . S
C2154 C2153 1.373 . S
C2154 C2155 1.339 . S
C2154 C2157 1.530 . S
C2155 C2150 1.304 . S
C2155 C2154 1.339 . S
C2155 H2216 0.930 . S
C2156 C2152 1.567 . S
C2156 H2217 0.961 . S
C2156 H2218 0.960 . S
C2156 H2219 0.958 . S
C2157 C2154 1.530 . S
C2157 H2220 0.961 . S
C2157 H2221 0.960 . S
C2157 H2222 0.960 . S
C2158 C2159 1.530 . S
C2158 H2224 0.961 . S
C2158 H2225 0.961 . S
C2158 H2226 0.959 . S
C2159 C2158 1.530 . S
C2159 O2187 1.412 . S
C2159 H2223 0.980 . S
C2160 C2161 1.288 . S
C2160 C2165 1.377 1_455 S
C2160 O2187 1.393 . S
C2161 C2160 1.288 . S
C2161 C2162 1.369 . S
C2161 H2227 0.932 . S
C2162 C2161 1.369 . S
C2162 C2163 1.398 . S
C2162 C2166 1.527 . S
C2163 C2162 1.398 . S
C2163 C2164 1.380 1_455 S
C2163 C2177 1.497 1_455 S
C2164 C2163 1.380 1_655 S
C2164 C2165 1.383 . S
C2164 C2167 1.603 . S
C2165 C2160 1.377 1_655 S
C2165 C2164 1.383 . S
C2165 H2228 0.929 . S
C2166 C2162 1.527 . S
C2166 H2229 0.961 . S
C2166 H2230 0.959 . S
C2166 H2231 0.959 . S
C2167 C2164 1.603 . S
C2167 H2232 0.960 . S
C2167 H2233 0.962 . S
C2167 H2234 0.961 . S
C2168 C2135 1.587 . S
C2168 C2169 1.360 . S
C2168 C2181 1.412 . S
C2169 C2168 1.360 . S
C2169 C2170 1.365 . S
C2169 H2235 0.929 . S
C2170 C2145 1.553 . S
C2170 C2169 1.365 . S
C2170 C2171 1.404 . S
C2171 C2170 1.404 . S
C2171 C2172 1.395 . S
C2171 C2182 1.451 . S
C2172 C2171 1.395 . S
C2172 C2173 1.322 . S
C2172 H2236 0.930 . S
C2173 C2172 1.322 . S
C2173 C2174 1.459 . S
C2173 H2237 0.929 . S
C2174 C2173 1.459 . S
C2174 C2175 1.445 . S
C2174 C2183 1.395 . S
C2175 C2153 1.432 . S
C2175 C2174 1.445 . S
C2175 C2176 1.370 . S
C2176 C2175 1.370 . S
C2176 C2177 1.438 . S
C2176 H2238 0.930 . S
C2177 C2163 1.497 1_655 S
C2177 C2176 1.438 . S
C2177 C2178 1.360 . S
C2178 C2177 1.360 . S
C2178 C2179 1.401 . S
C2178 C2183 1.446 . S
C2179 C2178 1.401 . S
C2179 C2180 1.347 . S
C2179 H2239 0.929 . S
C2180 C2179 1.347 . S
C2180 C2181 1.455 . S
C2180 H2240 0.930 . S
C2181 C2168 1.412 . S
C2181 C2180 1.455 . S
C2181 C2182 1.331 . S
C2182 C2171 1.451 . S
C2182 C2181 1.331 . S
C2182 C2183 1.497 . S
C2183 C2174 1.395 . S
C2183 C2178 1.446 . S
C2183 C2182 1.497 . S
C2184 C2185 1.582 1_655 S
C2184 H2241 0.962 1_655 S
C2184 H2242 0.959 . S
C2184 H2243 0.958 . S
C2185 C2184 1.582 1_455 S
C2185 O2188 1.458 1_455 S
C2185 H2214 0.980 . S
O2186 C2131 1.426 . S
O2186 C2132 1.334 . S
O2187 C2159 1.412 . S
O2187 C2160 1.393 . S
O2188 C2150 1.435 . S
O2188 C2185 1.458 1_655 S
O2189 C2141 1.468 . S
O2189 C2142 1.408 . S
H2190 C2131 0.980 1_655 S
H2191 C2130 0.959 . S
H2192 C2130 0.959 . S
H2193 C2130 0.960 . S
H2194 C2133 0.929 . S
H2195 C2137 0.929 . S
H2196 C2138 0.959 . S
H2197 C2138 0.961 . S
H2198 C2138 0.961 . S
H2199 C2139 0.960 . S
H2200 C2139 0.960 . S
H2201 C2139 0.961 . S
H2202 C2141 0.980 . S
H2203 C2140 0.961 . S
H2204 C2140 0.960 . S
H2205 C2140 0.959 . S
H2206 C2143 0.930 . S
H2207 C2147 0.931 . S
H2208 C2148 0.959 . S
H2209 C2148 0.961 . S
H2210 C2148 0.959 . S
H2211 C2149 0.960 . S
H2212 C2149 0.960 . S
H2213 C2149 0.960 . S
H2214 C2185 0.980 . S
H2215 C2151 0.930 . S
H2216 C2155 0.930 . S
H2217 C2156 0.961 . S
H2218 C2156 0.960 . S
H2219 C2156 0.958 . S
H2220 C2157 0.961 . S
H2221 C2157 0.960 . S
H2222 C2157 0.960 . S
H2223 C2159 0.980 . S
H2224 C2158 0.961 . S
H2225 C2158 0.961 . S
H2226 C2158 0.959 . S
H2227 C2161 0.932 . S
H2228 C2165 0.929 . S
H2229 C2166 0.961 . S
H2230 C2166 0.959 . S
H2231 C2166 0.959 . S
H2232 C2167 0.960 . S
H2233 C2167 0.962 . S
H2234 C2167 0.961 . S
H2235 C2169 0.929 . S
H2236 C2172 0.930 . S
H2237 C2173 0.929 . S
H2238 C2176 0.930 . S
H2239 C2179 0.929 . S
H2240 C2180 0.930 . S
H2241 C2184 0.962 1_455 S
H2242 C2184 0.959 . S
H2243 C2184 0.958 . S
C2244 C2245 1.560 . S
C2244 H2305 0.959 . S
C2244 H2306 0.959 . S
C2244 H2307 0.960 . S
C2245 C2244 1.560 . S
C2245 O2300 1.426 . S
C2245 H2304 0.980 . S
C2246 C2247 1.407 . S
C2246 C2251 1.418 . S
C2246 O2300 1.334 . S
C2247 C2246 1.407 . S
C2247 C2248 1.360 . S
C2247 H2308 0.929 . S
C2248 C2247 1.360 . S
C2248 C2249 1.401 . S
C2248 C2252 1.527 . S
C2249 C2248 1.401 . S
C2249 C2250 1.405 . S
C2249 C2282 1.587 . S
C2250 C2249 1.405 . S
C2250 C2251 1.332 . S
C2250 C2253 1.496 . S
C2251 C2246 1.418 . S
C2251 C2250 1.332 . S
C2251 H2309 0.929 . S
C2252 C2248 1.527 . S
C2252 H2310 0.959 . S
C2252 H2311 0.961 . S
C2252 H2312 0.961 . S
C2253 C2250 1.496 . S
C2253 H2313 0.960 . S
C2253 H2314 0.960 . S
C2253 H2315 0.961 . S
C2254 C2255 1.517 . S
C2254 H2317 0.961 . S
C2254 H2318 0.960 . S
C2254 H2319 0.959 . S
C2255 C2254 1.517 . S
C2255 O2303 1.468 . S
C2255 H2316 0.980 . S
C2256 C2257 1.349 . S
C2256 C2261 1.367 . S
C2256 O2303 1.408 . S
C2257 C2256 1.349 . S
C2257 C2258 1.407 . S
C2257 H2320 0.930 . S
C2258 C2257 1.407 . S
C2258 C2259 1.449 . S
C2258 C2262 1.535 . S
C2259 C2258 1.449 . S
C2259 C2260 1.384 . S
C2259 C2284 1.553 . S
C2260 C2259 1.384 . S
C2260 C2261 1.364 . S
C2260 C2263 1.450 . S
C2261 C2256 1.367 . S
C2261 C2260 1.364 . S
C2261 H2321 0.931 . S
C2262 C2258 1.535 . S
C2262 H2322 0.959 . S
C2262 H2323 0.961 . S
C2262 H2324 0.959 . S
C2263 C2260 1.450 . S
C2263 H2325 0.960 . S
C2263 H2326 0.960 . S
C2263 H2327 0.960 . S
C2264 C2265 1.309 . S
C2264 C2269 1.304 . S
C2264 O2302 1.435 . S
C2265 C2264 1.309 . S
C2265 C2266 1.476 . S
C2265 H2329 0.930 . S
C2266 C2265 1.476 . S
C2266 C2267 1.400 . S
C2266 C2270 1.567 . S
C2267 C2266 1.400 . S
C2267 C2268 1.373 . S
C2267 C2289 1.432 . S
C2268 C2267 1.373 . S
C2268 C2269 1.339 . S
C2268 C2271 1.530 . S
C2269 C2264 1.304 . S
C2269 C2268 1.339 . S
C2269 H2330 0.930 . S
C2270 C2266 1.567 . S
C2270 H2331 0.961 . S
C2270 H2332 0.960 . S
C2270 H2333 0.958 . S
C2271 C2268 1.530 . S
C2271 H2334 0.961 . S
C2271 H2335 0.960 . S
C2271 H2336 0.960 . S
C2272 C2273 1.530 . S
C2272 H2338 0.961 . S
C2272 H2339 0.961 . S
C2272 H2340 0.959 . S
C2273 C2272 1.530 . S
C2273 O2301 1.412 . S
C2273 H2337 0.980 . S
C2274 C2275 1.288 . S
C2274 C2279 1.377 . S
C2274 O2301 1.393 . S
C2275 C2274 1.288 . S
C2275 C2276 1.369 . S
C2275 H2341 0.932 . S
C2276 C2275 1.369 . S
C2276 C2277 1.398 . S
C2276 C2280 1.527 . S
C2277 C2276 1.398 . S
C2277 C2278 1.380 . S
C2277 C2291 1.497 . S
C2278 C2277 1.380 . S
C2278 C2279 1.383 . S
C2278 C2281 1.603 . S
C2279 C2274 1.377 . S
C2279 C2278 1.383 . S
C2279 H2342 0.929 . S
C2280 C2276 1.527 . S
C2280 H2343 0.961 . S
C2280 H2344 0.959 . S
C2280 H2345 0.959 . S
C2281 C2278 1.603 . S
C2281 H2346 0.960 . S
C2281 H2347 0.962 . S
C2281 H2348 0.961 . S
C2282 C2249 1.587 . S
C2282 C2283 1.360 . S
C2282 C2295 1.412 . S
C2283 C2282 1.360 . S
C2283 C2284 1.365 . S
C2283 H2349 0.929 . S
C2284 C2259 1.553 . S
C2284 C2283 1.365 . S
C2284 C2285 1.404 . S
C2285 C2284 1.404 . S
C2285 C2286 1.395 . S
C2285 C2296 1.451 . S
C2286 C2285 1.395 . S
C2286 C2287 1.322 . S
C2286 H2350 0.930 . S
C2287 C2286 1.322 . S
C2287 C2288 1.459 . S
C2287 H2351 0.929 . S
C2288 C2287 1.459 . S
C2288 C2289 1.445 . S
C2288 C2297 1.395 . S
C2289 C2267 1.432 . S
C2289 C2288 1.445 . S
C2289 C2290 1.370 . S
C2290 C2289 1.370 . S
C2290 C2291 1.438 . S
C2290 H2352 0.930 . S
C2291 C2277 1.497 . S
C2291 C2290 1.438 . S
C2291 C2292 1.360 . S
C2292 C2291 1.360 . S
C2292 C2293 1.401 . S
C2292 C2297 1.446 . S
C2293 C2292 1.401 . S
C2293 C2294 1.347 . S
C2293 H2353 0.929 . S
C2294 C2293 1.347 . S
C2294 C2295 1.455 . S
C2294 H2354 0.930 . S
C2295 C2282 1.412 . S
C2295 C2294 1.455 . S
C2295 C2296 1.331 . S
C2296 C2285 1.451 . S
C2296 C2295 1.331 . S
C2296 C2297 1.497 . S
C2297 C2288 1.395 . S
C2297 C2292 1.446 . S
C2297 C2296 1.497 . S
C2298 C2299 1.582 . S
C2298 H2355 0.962 . S
C2298 H2356 0.959 . S
C2298 H2357 0.958 . S
C2299 C2298 1.582 . S
C2299 O2302 1.458 . S
C2299 H2328 0.980 . S
O2300 C2245 1.426 . S
O2300 C2246 1.334 . S
O2301 C2273 1.412 . S
O2301 C2274 1.393 . S
O2302 C2264 1.435 . S
O2302 C2299 1.458 . S
O2303 C2255 1.468 . S
O2303 C2256 1.408 . S
H2304 C2245 0.980 . S
H2305 C2244 0.959 . S
H2306 C2244 0.959 . S
H2307 C2244 0.960 . S
H2308 C2247 0.929 . S
H2309 C2251 0.929 . S
H2310 C2252 0.959 . S
H2311 C2252 0.961 . S
H2312 C2252 0.961 . S
H2313 C2253 0.960 . S
H2314 C2253 0.960 . S
H2315 C2253 0.961 . S
H2316 C2255 0.980 . S
H2317 C2254 0.961 . S
H2318 C2254 0.960 . S
H2319 C2254 0.959 . S
H2320 C2257 0.930 . S
H2321 C2261 0.931 . S
H2322 C2262 0.959 . S
H2323 C2262 0.961 . S
H2324 C2262 0.959 . S
H2325 C2263 0.960 . S
H2326 C2263 0.960 . S
H2327 C2263 0.960 . S
H2328 C2299 0.980 . S
H2329 C2265 0.930 . S
H2330 C2269 0.930 . S
H2331 C2270 0.961 . S
H2332 C2270 0.960 . S
H2333 C2270 0.958 . S
H2334 C2271 0.961 . S
H2335 C2271 0.960 . S
H2336 C2271 0.960 . S
H2337 C2273 0.980 . S
H2338 C2272 0.961 . S
H2339 C2272 0.961 . S
H2340 C2272 0.959 . S
H2341 C2275 0.932 . S
H2342 C2279 0.929 . S
H2343 C2280 0.961 . S
H2344 C2280 0.959 . S
H2345 C2280 0.959 . S
H2346 C2281 0.960 . S
H2347 C2281 0.962 . S
H2348 C2281 0.961 . S
H2349 C2283 0.929 . S
H2350 C2286 0.930 . S
H2351 C2287 0.929 . S
H2352 C2290 0.930 . S
H2353 C2293 0.929 . S
H2354 C2294 0.930 . S
H2355 C2298 0.962 . S
H2356 C2298 0.959 . S
H2357 C2298 0.958 . S
C2358 C2359 1.560 . S
C2358 H2419 0.959 . S
C2358 H2420 0.959 . S
C2358 H2421 0.960 . S
C2359 C2358 1.560 . S
C2359 O2414 1.426 . S
C2359 H2418 0.980 . S
C2360 C2361 1.407 . S
C2360 C2365 1.418 . S
C2360 O2414 1.334 . S
C2361 C2360 1.407 . S
C2361 C2362 1.360 . S
C2361 H2422 0.929 . S
C2362 C2361 1.360 . S
C2362 C2363 1.401 . S
C2362 C2366 1.527 . S
C2363 C2362 1.401 . S
C2363 C2364 1.405 . S
C2363 C2396 1.587 . S
C2364 C2363 1.405 . S
C2364 C2365 1.332 . S
C2364 C2367 1.496 . S
C2365 C2360 1.418 . S
C2365 C2364 1.332 . S
C2365 H2423 0.929 . S
C2366 C2362 1.527 . S
C2366 H2424 0.959 . S
C2366 H2425 0.961 . S
C2366 H2426 0.961 . S
C2367 C2364 1.496 . S
C2367 H2427 0.960 . S
C2367 H2428 0.960 . S
C2367 H2429 0.961 . S
C2368 C2369 1.517 . S
C2368 H2431 0.961 . S
C2368 H2432 0.960 . S
C2368 H2433 0.959 . S
C2369 C2368 1.517 . S
C2369 O2417 1.468 . S
C2369 H2430 0.980 . S
C2370 C2371 1.349 . S
C2370 C2375 1.367 . S
C2370 O2417 1.408 . S
C2371 C2370 1.349 . S
C2371 C2372 1.407 . S
C2371 H2434 0.930 . S
C2372 C2371 1.407 . S
C2372 C2373 1.449 . S
C2372 C2376 1.535 . S
C2373 C2372 1.449 . S
C2373 C2374 1.384 . S
C2373 C2398 1.553 . S
C2374 C2373 1.384 . S
C2374 C2375 1.364 . S
C2374 C2377 1.450 . S
C2375 C2370 1.367 . S
C2375 C2374 1.364 . S
C2375 H2435 0.931 . S
C2376 C2372 1.535 . S
C2376 H2436 0.959 . S
C2376 H2437 0.961 . S
C2376 H2438 0.959 . S
C2377 C2374 1.450 . S
C2377 H2439 0.960 . S
C2377 H2440 0.960 . S
C2377 H2441 0.960 . S
C2378 C2379 1.309 . S
C2378 C2383 1.304 . S
C2378 O2416 1.435 . S
C2379 C2378 1.309 . S
C2379 C2380 1.476 . S
C2379 H2443 0.930 . S
C2380 C2379 1.476 . S
C2380 C2381 1.400 . S
C2380 C2384 1.567 . S
C2381 C2380 1.400 . S
C2381 C2382 1.373 . S
C2381 C2403 1.432 . S
C2382 C2381 1.373 . S
C2382 C2383 1.339 . S
C2382 C2385 1.530 . S
C2383 C2378 1.304 . S
C2383 C2382 1.339 . S
C2383 H2444 0.930 . S
C2384 C2380 1.567 . S
C2384 H2445 0.961 . S
C2384 H2446 0.960 . S
C2384 H2447 0.958 . S
C2385 C2382 1.530 . S
C2385 H2448 0.961 . S
C2385 H2449 0.960 . S
C2385 H2450 0.960 . S
C2386 C2387 1.530 . S
C2386 H2452 0.961 . S
C2386 H2453 0.961 . S
C2386 H2454 0.959 . S
C2387 C2386 1.530 . S
C2387 O2415 1.412 . S
C2387 H2451 0.980 . S
C2388 C2389 1.288 . S
C2388 C2393 1.377 . S
C2388 O2415 1.393 . S
C2389 C2388 1.288 . S
C2389 C2390 1.369 . S
C2389 H2455 0.932 . S
C2390 C2389 1.369 . S
C2390 C2391 1.398 . S
C2390 C2394 1.527 . S
C2391 C2390 1.398 . S
C2391 C2392 1.380 . S
C2391 C2405 1.497 . S
C2392 C2391 1.380 . S
C2392 C2393 1.383 . S
C2392 C2395 1.603 . S
C2393 C2388 1.377 . S
C2393 C2392 1.383 . S
C2393 H2456 0.929 . S
C2394 C2390 1.527 . S
C2394 H2457 0.961 . S
C2394 H2458 0.959 . S
C2394 H2459 0.959 . S
C2395 C2392 1.603 . S
C2395 H2460 0.960 . S
C2395 H2461 0.962 . S
C2395 H2462 0.961 . S
C2396 C2363 1.587 . S
C2396 C2397 1.360 . S
C2396 C2409 1.412 . S
C2397 C2396 1.360 . S
C2397 C2398 1.365 . S
C2397 H2463 0.929 . S
C2398 C2373 1.553 . S
C2398 C2397 1.365 . S
C2398 C2399 1.404 . S
C2399 C2398 1.404 . S
C2399 C2400 1.395 . S
C2399 C2410 1.451 . S
C2400 C2399 1.395 . S
C2400 C2401 1.322 . S
C2400 H2464 0.930 . S
C2401 C2400 1.322 . S
C2401 C2402 1.459 . S
C2401 H2465 0.929 . S
C2402 C2401 1.459 . S
C2402 C2403 1.445 . S
C2402 C2411 1.395 . S
C2403 C2381 1.432 . S
C2403 C2402 1.445 . S
C2403 C2404 1.370 . S
C2404 C2403 1.370 . S
C2404 C2405 1.438 . S
C2404 H2466 0.930 . S
C2405 C2391 1.497 . S
C2405 C2404 1.438 . S
C2405 C2406 1.360 . S
C2406 C2405 1.360 . S
C2406 C2407 1.401 . S
C2406 C2411 1.446 . S
C2407 C2406 1.401 . S
C2407 C2408 1.347 . S
C2407 H2467 0.929 . S
C2408 C2407 1.347 . S
C2408 C2409 1.455 . S
C2408 H2468 0.930 . S
C2409 C2396 1.412 . S
C2409 C2408 1.455 . S
C2409 C2410 1.331 . S
C2410 C2399 1.451 . S
C2410 C2409 1.331 . S
C2410 C2411 1.497 . S
C2411 C2402 1.395 . S
C2411 C2406 1.446 . S
C2411 C2410 1.497 . S
C2412 C2413 1.582 . S
C2412 H2469 0.962 . S
C2412 H2470 0.959 . S
C2412 H2471 0.958 . S
C2413 C2412 1.582 . S
C2413 O2416 1.458 . S
C2413 H2442 0.980 . S
O2414 C2359 1.426 . S
O2414 C2360 1.334 . S
O2415 C2387 1.412 . S
O2415 C2388 1.393 . S
O2416 C2378 1.435 . S
O2416 C2413 1.458 . S
O2417 C2369 1.468 . S
O2417 C2370 1.408 . S
H2418 C2359 0.980 . S
H2419 C2358 0.959 . S
H2420 C2358 0.959 . S
H2421 C2358 0.960 . S
H2422 C2361 0.929 . S
H2423 C2365 0.929 . S
H2424 C2366 0.959 . S
H2425 C2366 0.961 . S
H2426 C2366 0.961 . S
H2427 C2367 0.960 . S
H2428 C2367 0.960 . S
H2429 C2367 0.961 . S
H2430 C2369 0.980 . S
H2431 C2368 0.961 . S
H2432 C2368 0.960 . S
H2433 C2368 0.959 . S
H2434 C2371 0.930 . S
H2435 C2375 0.931 . S
H2436 C2376 0.959 . S
H2437 C2376 0.961 . S
H2438 C2376 0.959 . S
H2439 C2377 0.960 . S
H2440 C2377 0.960 . S
H2441 C2377 0.960 . S
H2442 C2413 0.980 . S
H2443 C2379 0.930 . S
H2444 C2383 0.930 . S
H2445 C2384 0.961 . S
H2446 C2384 0.960 . S
H2447 C2384 0.958 . S
H2448 C2385 0.961 . S
H2449 C2385 0.960 . S
H2450 C2385 0.960 . S
H2451 C2387 0.980 . S
H2452 C2386 0.961 . S
H2453 C2386 0.961 . S
H2454 C2386 0.959 . S
H2455 C2389 0.932 . S
H2456 C2393 0.929 . S
H2457 C2394 0.961 . S
H2458 C2394 0.959 . S
H2459 C2394 0.959 . S
H2460 C2395 0.960 . S
H2461 C2395 0.962 . S
H2462 C2395 0.961 . S
H2463 C2397 0.929 . S
H2464 C2400 0.930 . S
H2465 C2401 0.929 . S
H2466 C2404 0.930 . S
H2467 C2407 0.929 . S
H2468 C2408 0.930 . S
H2469 C2412 0.962 . S
H2470 C2412 0.959 . S
H2471 C2412 0.958 . S
C2472 C2473 1.560 . S
C2472 H2533 0.959 . S
C2472 H2534 0.959 . S
C2472 H2535 0.960 . S
C2473 C2472 1.560 . S
C2473 O2528 1.426 . S
C2473 H2532 0.980 . S
C2474 C2475 1.407 . S
C2474 C2479 1.418 . S
C2474 O2528 1.334 . S
C2475 C2474 1.407 . S
C2475 C2476 1.360 . S
C2475 H2536 0.929 . S
C2476 C2475 1.360 . S
C2476 C2477 1.401 . S
C2476 C2480 1.527 . S
C2477 C2476 1.401 . S
C2477 C2478 1.405 . S
C2477 C2510 1.587 . S
C2478 C2477 1.405 . S
C2478 C2479 1.332 . S
C2478 C2481 1.496 . S
C2479 C2474 1.418 . S
C2479 C2478 1.332 . S
C2479 H2537 0.929 . S
C2480 C2476 1.527 . S
C2480 H2538 0.959 . S
C2480 H2539 0.961 . S
C2480 H2540 0.961 . S
C2481 C2478 1.496 . S
C2481 H2541 0.960 . S
C2481 H2542 0.960 . S
C2481 H2543 0.961 . S
C2482 C2483 1.517 . S
C2482 H2545 0.961 . S
C2482 H2546 0.960 . S
C2482 H2547 0.959 . S
C2483 C2482 1.517 . S
C2483 O2531 1.468 . S
C2483 H2544 0.980 . S
C2484 C2485 1.349 . S
C2484 C2489 1.367 . S
C2484 O2531 1.408 . S
C2485 C2484 1.349 . S
C2485 C2486 1.407 . S
C2485 H2548 0.930 . S
C2486 C2485 1.407 . S
C2486 C2487 1.449 . S
C2486 C2490 1.535 . S
C2487 C2486 1.449 . S
C2487 C2488 1.384 . S
C2487 C2512 1.553 . S
C2488 C2487 1.384 . S
C2488 C2489 1.364 . S
C2488 C2491 1.450 . S
C2489 C2484 1.367 . S
C2489 C2488 1.364 . S
C2489 H2549 0.931 . S
C2490 C2486 1.535 . S
C2490 H2550 0.959 . S
C2490 H2551 0.961 . S
C2490 H2552 0.959 . S
C2491 C2488 1.450 . S
C2491 H2553 0.960 . S
C2491 H2554 0.960 . S
C2491 H2555 0.960 . S
C2492 C2493 1.309 . S
C2492 C2497 1.304 . S
C2492 O2530 1.435 . S
C2493 C2492 1.309 . S
C2493 C2494 1.476 . S
C2493 H2557 0.930 . S
C2494 C2493 1.476 . S
C2494 C2495 1.400 . S
C2494 C2498 1.567 . S
C2495 C2494 1.400 . S
C2495 C2496 1.373 . S
C2495 C2517 1.432 . S
C2496 C2495 1.373 . S
C2496 C2497 1.339 . S
C2496 C2499 1.530 . S
C2497 C2492 1.304 . S
C2497 C2496 1.339 . S
C2497 H2558 0.930 . S
C2498 C2494 1.567 . S
C2498 H2559 0.961 . S
C2498 H2560 0.960 . S
C2498 H2561 0.958 . S
C2499 C2496 1.530 . S
C2499 H2562 0.961 . S
C2499 H2563 0.960 . S
C2499 H2564 0.960 . S
C2500 C2501 1.530 . S
C2500 H2566 0.961 . S
C2500 H2567 0.961 . S
C2500 H2568 0.959 . S
C2501 C2500 1.530 . S
C2501 O2529 1.412 . S
C2501 H2565 0.980 . S
C2502 C2503 1.288 . S
C2502 C2507 1.377 . S
C2502 O2529 1.393 . S
C2503 C2502 1.288 . S
C2503 C2504 1.369 . S
C2503 H2569 0.932 . S
C2504 C2503 1.369 . S
C2504 C2505 1.398 . S
C2504 C2508 1.527 . S
C2505 C2504 1.398 . S
C2505 C2506 1.380 . S
C2505 C2519 1.497 . S
C2506 C2505 1.380 . S
C2506 C2507 1.383 . S
C2506 C2509 1.603 . S
C2507 C2502 1.377 . S
C2507 C2506 1.383 . S
C2507 H2570 0.929 . S
C2508 C2504 1.527 . S
C2508 H2571 0.961 . S
C2508 H2572 0.959 . S
C2508 H2573 0.959 . S
C2509 C2506 1.603 . S
C2509 H2574 0.960 . S
C2509 H2575 0.962 . S
C2509 H2576 0.961 . S
C2510 C2477 1.587 . S
C2510 C2511 1.360 . S
C2510 C2523 1.412 . S
C2511 C2510 1.360 . S
C2511 C2512 1.365 . S
C2511 H2577 0.929 . S
C2512 C2487 1.553 . S
C2512 C2511 1.365 . S
C2512 C2513 1.404 . S
C2513 C2512 1.404 . S
C2513 C2514 1.395 . S
C2513 C2524 1.451 . S
C2514 C2513 1.395 . S
C2514 C2515 1.322 . S
C2514 H2578 0.930 . S
C2515 C2514 1.322 . S
C2515 C2516 1.459 . S
C2515 H2579 0.929 . S
C2516 C2515 1.459 . S
C2516 C2517 1.445 . S
C2516 C2525 1.395 . S
C2517 C2495 1.432 . S
C2517 C2516 1.445 . S
C2517 C2518 1.370 . S
C2518 C2517 1.370 . S
C2518 C2519 1.438 . S
C2518 H2580 0.930 . S
C2519 C2505 1.497 . S
C2519 C2518 1.438 . S
C2519 C2520 1.360 . S
C2520 C2519 1.360 . S
C2520 C2521 1.401 . S
C2520 C2525 1.446 . S
C2521 C2520 1.401 . S
C2521 C2522 1.347 . S
C2521 H2581 0.929 . S
C2522 C2521 1.347 . S
C2522 C2523 1.455 . S
C2522 H2582 0.930 . S
C2523 C2510 1.412 . S
C2523 C2522 1.455 . S
C2523 C2524 1.331 . S
C2524 C2513 1.451 . S
C2524 C2523 1.331 . S
C2524 C2525 1.497 . S
C2525 C2516 1.395 . S
C2525 C2520 1.446 . S
C2525 C2524 1.497 . S
C2526 C2527 1.582 . S
C2526 H2583 0.962 . S
C2526 H2584 0.959 . S
C2526 H2585 0.958 . S
C2527 C2526 1.582 . S
C2527 O2530 1.458 . S
C2527 H2556 0.980 . S
O2528 C2473 1.426 . S
O2528 C2474 1.334 . S
O2529 C2501 1.412 . S
O2529 C2502 1.393 . S
O2530 C2492 1.435 . S
O2530 C2527 1.458 . S
O2531 C2483 1.468 . S
O2531 C2484 1.408 . S
H2532 C2473 0.980 . S
H2533 C2472 0.959 . S
H2534 C2472 0.959 . S
H2535 C2472 0.960 . S
H2536 C2475 0.929 . S
H2537 C2479 0.929 . S
H2538 C2480 0.959 . S
H2539 C2480 0.961 . S
H2540 C2480 0.961 . S
H2541 C2481 0.960 . S
H2542 C2481 0.960 . S
H2543 C2481 0.961 . S
H2544 C2483 0.980 . S
H2545 C2482 0.961 . S
H2546 C2482 0.960 . S
H2547 C2482 0.959 . S
H2548 C2485 0.930 . S
H2549 C2489 0.931 . S
H2550 C2490 0.959 . S
H2551 C2490 0.961 . S
H2552 C2490 0.959 . S
H2553 C2491 0.960 . S
H2554 C2491 0.960 . S
H2555 C2491 0.960 . S
H2556 C2527 0.980 . S
H2557 C2493 0.930 . S
H2558 C2497 0.930 . S
H2559 C2498 0.961 . S
H2560 C2498 0.960 . S
H2561 C2498 0.958 . S
H2562 C2499 0.961 . S
H2563 C2499 0.960 . S
H2564 C2499 0.960 . S
H2565 C2501 0.980 . S
H2566 C2500 0.961 . S
H2567 C2500 0.961 . S
H2568 C2500 0.959 . S
H2569 C2503 0.932 . S
H2570 C2507 0.929 . S
H2571 C2508 0.961 . S
H2572 C2508 0.959 . S
H2573 C2508 0.959 . S
H2574 C2509 0.960 . S
H2575 C2509 0.962 . S
H2576 C2509 0.961 . S
H2577 C2511 0.929 . S
H2578 C2514 0.930 . S
H2579 C2515 0.929 . S
H2580 C2518 0.930 . S
H2581 C2521 0.929 . S
H2582 C2522 0.930 . S
H2583 C2526 0.962 . S
H2584 C2526 0.959 . S
H2585 C2526 0.958 . S
C2586 C2587 1.560 . S
C2586 H2647 0.959 . S
C2586 H2648 0.959 . S
C2586 H2649 0.960 . S
C2587 C2586 1.560 . S
C2587 O2642 1.426 . S
C2587 H2646 0.980 . S
C2588 C2589 1.407 . S
C2588 C2593 1.418 . S
C2588 O2642 1.334 . S
C2589 C2588 1.407 . S
C2589 C2590 1.360 . S
C2589 H2650 0.929 . S
C2590 C2589 1.360 . S
C2590 C2591 1.401 . S
C2590 C2594 1.527 . S
C2591 C2590 1.401 . S
C2591 C2592 1.405 . S
C2591 C2624 1.587 . S
C2592 C2591 1.405 . S
C2592 C2593 1.332 . S
C2592 C2595 1.496 . S
C2593 C2588 1.418 . S
C2593 C2592 1.332 . S
C2593 H2651 0.929 . S
C2594 C2590 1.527 . S
C2594 H2652 0.959 . S
C2594 H2653 0.961 . S
C2594 H2654 0.961 . S
C2595 C2592 1.496 . S
C2595 H2655 0.960 . S
C2595 H2656 0.960 . S
C2595 H2657 0.961 . S
C2596 C2597 1.517 . S
C2596 H2659 0.961 . S
C2596 H2660 0.960 . S
C2596 H2661 0.959 . S
C2597 C2596 1.517 . S
C2597 O2645 1.468 . S
C2597 H2658 0.980 . S
C2598 C2599 1.349 . S
C2598 C2603 1.367 . S
C2598 O2645 1.408 . S
C2599 C2598 1.349 . S
C2599 C2600 1.407 . S
C2599 H2662 0.930 . S
C2600 C2599 1.407 . S
C2600 C2601 1.449 . S
C2600 C2604 1.535 . S
C2601 C2600 1.449 . S
C2601 C2602 1.384 . S
C2601 C2626 1.553 . S
C2602 C2601 1.384 . S
C2602 C2603 1.364 . S
C2602 C2605 1.450 . S
C2603 C2598 1.367 . S
C2603 C2602 1.364 . S
C2603 H2663 0.931 . S
C2604 C2600 1.535 . S
C2604 H2664 0.959 . S
C2604 H2665 0.961 . S
C2604 H2666 0.959 . S
C2605 C2602 1.450 . S
C2605 H2667 0.960 . S
C2605 H2668 0.960 . S
C2605 H2669 0.960 . S
C2606 C2607 1.309 . S
C2606 C2611 1.304 . S
C2606 O2644 1.435 . S
C2607 C2606 1.309 . S
C2607 C2608 1.476 . S
C2607 H2671 0.930 . S
C2608 C2607 1.476 . S
C2608 C2609 1.400 . S
C2608 C2612 1.567 . S
C2609 C2608 1.400 . S
C2609 C2610 1.373 . S
C2609 C2631 1.432 . S
C2610 C2609 1.373 . S
C2610 C2611 1.339 . S
C2610 C2613 1.530 . S
C2611 C2606 1.304 . S
C2611 C2610 1.339 . S
C2611 H2672 0.930 . S
C2612 C2608 1.567 . S
C2612 H2673 0.961 . S
C2612 H2674 0.960 . S
C2612 H2675 0.958 . S
C2613 C2610 1.530 . S
C2613 H2676 0.961 . S
C2613 H2677 0.960 . S
C2613 H2678 0.960 . S
C2614 C2615 1.530 . S
C2614 H2680 0.961 . S
C2614 H2681 0.961 . S
C2614 H2682 0.959 . S
C2615 C2614 1.530 . S
C2615 O2643 1.412 . S
C2615 H2679 0.980 . S
C2616 C2617 1.288 . S
C2616 C2621 1.377 . S
C2616 O2643 1.393 . S
C2617 C2616 1.288 . S
C2617 C2618 1.369 . S
C2617 H2683 0.932 . S
C2618 C2617 1.369 . S
C2618 C2619 1.398 . S
C2618 C2622 1.527 . S
C2619 C2618 1.398 . S
C2619 C2620 1.380 . S
C2619 C2633 1.497 . S
C2620 C2619 1.380 . S
C2620 C2621 1.383 . S
C2620 C2623 1.603 . S
C2621 C2616 1.377 . S
C2621 C2620 1.383 . S
C2621 H2684 0.929 . S
C2622 C2618 1.527 . S
C2622 H2685 0.961 . S
C2622 H2686 0.959 . S
C2622 H2687 0.959 . S
C2623 C2620 1.603 . S
C2623 H2688 0.960 . S
C2623 H2689 0.962 . S
C2623 H2690 0.961 . S
C2624 C2591 1.587 . S
C2624 C2625 1.360 . S
C2624 C2637 1.412 . S
C2625 C2624 1.360 . S
C2625 C2626 1.365 . S
C2625 H2691 0.929 . S
C2626 C2601 1.553 . S
C2626 C2625 1.365 . S
C2626 C2627 1.404 . S
C2627 C2626 1.404 . S
C2627 C2628 1.395 . S
C2627 C2638 1.451 . S
C2628 C2627 1.395 . S
C2628 C2629 1.322 . S
C2628 H2692 0.930 . S
C2629 C2628 1.322 . S
C2629 C2630 1.459 . S
C2629 H2693 0.929 . S
C2630 C2629 1.459 . S
C2630 C2631 1.445 . S
C2630 C2639 1.395 . S
C2631 C2609 1.432 . S
C2631 C2630 1.445 . S
C2631 C2632 1.370 . S
C2632 C2631 1.370 . S
C2632 C2633 1.438 . S
C2632 H2694 0.930 . S
C2633 C2619 1.497 . S
C2633 C2632 1.438 . S
C2633 C2634 1.360 . S
C2634 C2633 1.360 . S
C2634 C2635 1.401 . S
C2634 C2639 1.446 . S
C2635 C2634 1.401 . S
C2635 C2636 1.347 . S
C2635 H2695 0.929 . S
C2636 C2635 1.347 . S
C2636 C2637 1.455 . S
C2636 H2696 0.930 . S
C2637 C2624 1.412 . S
C2637 C2636 1.455 . S
C2637 C2638 1.331 . S
C2638 C2627 1.451 . S
C2638 C2637 1.331 . S
C2638 C2639 1.497 . S
C2639 C2630 1.395 . S
C2639 C2634 1.446 . S
C2639 C2638 1.497 . S
C2640 C2641 1.582 . S
C2640 H2697 0.962 . S
C2640 H2698 0.959 . S
C2640 H2699 0.958 . S
C2641 C2640 1.582 . S
C2641 O2644 1.458 . S
C2641 H2670 0.980 . S
O2642 C2587 1.426 . S
O2642 C2588 1.334 . S
O2643 C2615 1.412 . S
O2643 C2616 1.393 . S
O2644 C2606 1.435 . S
O2644 C2641 1.458 . S
O2645 C2597 1.468 . S
O2645 C2598 1.408 . S
H2646 C2587 0.980 . S
H2647 C2586 0.959 . S
H2648 C2586 0.959 . S
H2649 C2586 0.960 . S
H2650 C2589 0.929 . S
H2651 C2593 0.929 . S
H2652 C2594 0.959 . S
H2653 C2594 0.961 . S
H2654 C2594 0.961 . S
H2655 C2595 0.960 . S
H2656 C2595 0.960 . S
H2657 C2595 0.961 . S
H2658 C2597 0.980 . S
H2659 C2596 0.961 . S
H2660 C2596 0.960 . S
H2661 C2596 0.959 . S
H2662 C2599 0.930 . S
H2663 C2603 0.931 . S
H2664 C2604 0.959 . S
H2665 C2604 0.961 . S
H2666 C2604 0.959 . S
H2667 C2605 0.960 . S
H2668 C2605 0.960 . S
H2669 C2605 0.960 . S
H2670 C2641 0.980 . S
H2671 C2607 0.930 . S
H2672 C2611 0.930 . S
H2673 C2612 0.961 . S
H2674 C2612 0.960 . S
H2675 C2612 0.958 . S
H2676 C2613 0.961 . S
H2677 C2613 0.960 . S
H2678 C2613 0.960 . S
H2679 C2615 0.980 . S
H2680 C2614 0.961 . S
H2681 C2614 0.961 . S
H2682 C2614 0.959 . S
H2683 C2617 0.932 . S
H2684 C2621 0.929 . S
H2685 C2622 0.961 . S
H2686 C2622 0.959 . S
H2687 C2622 0.959 . S
H2688 C2623 0.960 . S
H2689 C2623 0.962 . S
H2690 C2623 0.961 . S
H2691 C2625 0.929 . S
H2692 C2628 0.930 . S
H2693 C2629 0.929 . S
H2694 C2632 0.930 . S
H2695 C2635 0.929 . S
H2696 C2636 0.930 . S
H2697 C2640 0.962 . S
H2698 C2640 0.959 . S
H2699 C2640 0.958 . S
C4 C1703 0.827 . S
C38 C1843 2.197 . S
C1931 C74 0.978 . S
C76 C2071 1.053 1_565 S
C2 C2185 1.077 . S
C40 C2273 2.076 . S
C110 C2159 0.932 . S
C2299 C148 2.771 . S
C2045 C182 1.073 . S
C184 C1957 1.035 . S
C1729 C112 1.163 . S
C146 C1817 2.610 . S
C220 C2387 2.304 . S
C254 C2527 2.543 . S
C2615 C290 2.433 . S
C292 C703 2.161 . S
C218 C817 2.199 . S
C256 C905 2.375 . S
C326 C791 2.820 . S
C364 C931 3.057 . S
C677 C398 2.819 . S
C2641 C400 2.795 . S
C2413 C328 2.807 . S
C2501 C362 2.937 . S
C436 C1019 2.217 . S
C470 C1159 2.506 . S
C506 C1247 2.354 . S
C508 C1387 2.271 . S
C1501 C434 2.252 . S
C1589 C472 2.418 . S
C1475 C542 2.902 . S
C1615 C580 3.113 . S
C614 C1361 2.861 . S
C1273 C616 2.712 . S
C544 C1045 2.729 . S
C1133 C578 2.862 . S
C659 C14 2.303 . S
C39 C773 1.968 . S
C877 C75 2.323 . S
C991 C86 2.476 1_554 S
C1115 C3 1.889 . S
C1219 C50 2.462 1_554 S
C111 C1229 3.130 . S
C158 C1001 3.697 . S
C183 C1105 3.523 . S
C194 C763 3.618 . S
C887 C122 3.724 . S
C147 C649 3.204 . S
C1343 C230 2.236 . S
C255 C1457 1.917 . S
C291 C1561 2.394 . S
C1675 C302 1.728 . S
C219 C1799 1.693 . S
C266 C1903 1.222 . S
C327 C1913 1.225 1_565 S
C374 C1685 1.736 1_455 S
C1789 C399 3.281 . S
C410 C1447 3.593 . S
C338 C1571 3.513 . S
C1333 C363 3.151 . S
C2027 C446 0.879 . S
C471 C2141 0.995 . S
C507 C2245 2.213 . S
C2359 C518 2.593 . S
C2483 C435 1.875 . S
C482 C2587 2.405 . S
C543 C2597 3.092 . S
C590 C2369 3.565 . S
C2473 C615 3.394 . S
C2131 C626 1.810 1_455 S
C2255 C554 3.420 . S
C579 C2017 1.435 1_545 S
