# Generated by pormake.
# Topology nom, (4,4)-cn, num edge types: 1
# Building blocks:
#     Node 0, Type 0, BuildingBlock: GIZVER_clean_linker_0, # of connection points: 4
#     Node 1, Type 0, BuildingBlock: GIZVER_clean_linker_0, # of connection points: 4
#     Node 2, Type 0, BuildingBlock: GIZVER_clean_linker_0, # of connection points: 4
#     Node 3, Type 0, BuildingBlock: GIZVER_clean_linker_0, # of connection points: 4
#     Node 4, Type 0, BuildingBlock: GIZVER_clean_linker_0, # of connection points: 4
#     Node 5, Type 0, BuildingBlock: GIZVER_clean_linker_0, # of connection points: 4
#     Node 6, Type 1, BuildingBlock: UXUYUI_clean_sbu_0, # of connection points: 4
#     Node 7, Type 1, BuildingBlock: UXUYUI_clean_sbu_0, # of connection points: 4
#     Node 8, Type 1, BuildingBlock: UXUYUI_clean_sbu_0, # of connection points: 4
#     Node 9, Type 1, BuildingBlock: UXUYUI_clean_sbu_0, # of connection points: 4
#     Node 10, Type 1, BuildingBlock: UXUYUI_clean_sbu_0, # of connection points: 4
#     Node 11, Type 1, BuildingBlock: UXUYUI_clean_sbu_0, # of connection points: 4
#     Edge 12, Type (0, 1), BuildingBlock: CIFDUS_clean_linker_0, # of connection points: 2
#     Edge 13, Type (0, 1), BuildingBlock: CIFDUS_clean_linker_0, # of connection points: 2
#     Edge 14, Type (0, 1), BuildingBlock: CIFDUS_clean_linker_0, # of connection points: 2
#     Edge 15, Type (0, 1), BuildingBlock: CIFDUS_clean_linker_0, # of connection points: 2
#     Edge 16, Type (0, 1), BuildingBlock: CIFDUS_clean_linker_0, # of connection points: 2
#     Edge 17, Type (0, 1), BuildingBlock: CIFDUS_clean_linker_0, # of connection points: 2
#     Edge 18, Type (0, 1), BuildingBlock: CIFDUS_clean_linker_0, # of connection points: 2
#     Edge 19, Type (0, 1), BuildingBlock: CIFDUS_clean_linker_0, # of connection points: 2
#     Edge 20, Type (0, 1), BuildingBlock: CIFDUS_clean_linker_0, # of connection points: 2
#     Edge 21, Type (0, 1), BuildingBlock: CIFDUS_clean_linker_0, # of connection points: 2
#     Edge 22, Type (0, 1), BuildingBlock: CIFDUS_clean_linker_0, # of connection points: 2
#     Edge 23, Type (0, 1), BuildingBlock: CIFDUS_clean_linker_0, # of connection points: 2
#     Edge 24, Type (0, 1), BuildingBlock: CIFDUS_clean_linker_0, # of connection points: 2
#     Edge 25, Type (0, 1), BuildingBlock: CIFDUS_clean_linker_0, # of connection points: 2
#     Edge 26, Type (0, 1), BuildingBlock: CIFDUS_clean_linker_0, # of connection points: 2
#     Edge 27, Type (0, 1), BuildingBlock: CIFDUS_clean_linker_0, # of connection points: 2
#     Edge 28, Type (0, 1), BuildingBlock: CIFDUS_clean_linker_0, # of connection points: 2
#     Edge 29, Type (0, 1), BuildingBlock: CIFDUS_clean_linker_0, # of connection points: 2
#     Edge 30, Type (0, 1), BuildingBlock: CIFDUS_clean_linker_0, # of connection points: 2
#     Edge 31, Type (0, 1), BuildingBlock: CIFDUS_clean_linker_0, # of connection points: 2
#     Edge 32, Type (0, 1), BuildingBlock: CIFDUS_clean_linker_0, # of connection points: 2
#     Edge 33, Type (0, 1), BuildingBlock: CIFDUS_clean_linker_0, # of connection points: 2
#     Edge 34, Type (0, 1), BuildingBlock: CIFDUS_clean_linker_0, # of connection points: 2
#     Edge 35, Type (0, 1), BuildingBlock: CIFDUS_clean_linker_0, # of connection points: 2
# Relax obj value: 0.036
# Max RMSD: 0.149
# Mean RMSD: 0.105
data_MOF--net-nom--node1-UXUYUI_clean_sbu_0--node2-GIZVER_clean_linker_0--edge1-CIFDUS_clean_linker_0
_symmetry_space_group_name_H-M    P1
_symmetry_Int_Tables_number       1
_symmetry_cell_setting            triclinic
loop_
_symmetry_equiv_pos_as_xyz
'x, y, z'
_cell_length_a     51.345413
_cell_length_b     51.298379
_cell_length_c     51.524803
_cell_angle_alpha  90.046884
_cell_angle_beta   90.02602
_cell_angle_gamma 120.18002
loop_
_atom_site_label
_atom_site_type_symbol
_atom_site_fract_x
_atom_site_fract_y
_atom_site_fract_z
_atom_type_partial_charge
H0 H 0.98209 0.55777 0.35511 0.0
H1 H 1.0052 0.54656 0.27714 0.0
H2 H 0.92282 0.4782 0.31173 0.0
H3 H 0.02241 0.60003 0.33282 0.0
H4 H 0.02695 0.5975 0.29872 0.0
H5 H 0.04194 0.57173 0.36289 0.0
H6 H 0.13047 0.5917 0.33931 0.0
H7 H 0.07308 0.60213 0.28505 0.0
C8 C 0.97754 0.544 0.33787 0.0
C9 C 0.95071 0.51608 0.33623 0.0
C10 C 0.99775 0.55481 0.31682 0.0
C11 C 0.99052 0.53763 0.29387 0.0
C12 C 0.96358 0.5098 0.292 0.0
C13 C 0.94436 0.49888 0.31353 0.0
C14 C 0.02503 0.58614 0.31759 0.0
C15 C 0.05362 0.58548 0.32299 0.0
C16 C 0.05893 0.57801 0.34796 0.0
C17 C 0.08657 0.57997 0.35401 0.0
C18 C 0.10854 0.58872 0.33458 0.0
C19 C 0.10387 0.59677 0.30981 0.0
C20 C 0.07637 0.5951 0.30401 0.0
H21 H 0.43725 0.98193 0.52689 0.0
H22 H 0.4735 0.01043 0.45005 0.0
H23 H 0.44945 0.92188 0.47713 0.0
H24 H 0.44286 0.0277 0.51034 0.0
H25 H 0.44384 0.03125 0.4759 0.0
H26 H 0.49379 0.04725 0.53442 0.0
H27 H 0.56224 0.132 0.50376 0.0
H28 H 0.48583 0.07326 0.45662 0.0
C29 C 0.44558 0.97789 0.50889 0.0
C30 C 0.44328 0.94975 0.50465 0.0
C31 C 0.45715 1.0002 0.48944 0.0
C32 C 0.46602 0.9939 0.46551 0.0
C33 C 0.46361 0.96574 0.46101 0.0
C34 C 0.45298 0.94423 0.48095 0.0
C35 C 0.45602 0.02888 0.49279 0.0
C36 C 0.48706 0.05644 0.49482 0.0
C37 C 0.5032 0.06279 0.51827 0.0
C38 C 0.53065 0.08985 0.52134 0.0
C39 C 0.54204 0.11034 0.5007 0.0
C40 C 0.52602 0.10484 0.47735 0.0
C41 C 0.49867 0.07754 0.47439 0.0
H42 H 0.42869 0.47804 0.6272 0.0
H43 H 0.47778 0.48732 0.69776 0.0
H44 H 0.45208 0.55272 0.67816 0.0
H45 H 0.43741 0.43861 0.63917 0.0
H46 H 0.43898 0.43512 0.67341 0.0
H47 H 0.48812 0.46799 0.61454 0.0
H48 H 0.55158 0.4428 0.64183 0.0
H49 H 0.47986 0.43203 0.69152 0.0
C50 C 0.44056 0.49104 0.64421 0.0
C51 C 0.43929 0.51701 0.65053 0.0
C52 C 0.45484 0.48039 0.66105 0.0
C53 C 0.46817 0.49627 0.68414 0.0
C54 C 0.46756 0.52264 0.69034 0.0
C55 C 0.45374 0.53309 0.67306 0.0
C56 C 0.45144 0.44971 0.65662 0.0
C57 C 0.48133 0.45093 0.65366 0.0
C58 C 0.49686 0.46012 0.62993 0.0
C59 C 0.52249 0.45753 0.62552 0.0
C60 C 0.53297 0.4466 0.64554 0.0
C61 C 0.51796 0.43749 0.66942 0.0
C62 C 0.49214 0.43983 0.67342 0.0
H63 H 0.97625 0.44598 0.7859 0.0
H64 H 1.00581 0.48304 0.86244 0.0
H65 H 0.92086 0.46761 0.83319 0.0
H66 H 0.01851 0.44545 0.80503 0.0
H67 H 0.02391 0.45117 0.83924 0.0
H68 H 0.03629 0.49787 0.77854 0.0
H69 H 0.12939 0.55821 0.79731 0.0
H70 H 0.07345 0.48789 0.85044 0.0
C71 C 0.97317 0.45583 0.80341 0.0
C72 C 0.94649 0.45677 0.80678 0.0
C73 C 0.99513 0.46609 0.82319 0.0
C74 C 0.98987 0.47683 0.84658 0.0
C75 C 0.9632 0.47768 0.85016 0.0
C76 C 0.94217 0.46852 0.8299 0.0
C77 C 0.02194 0.46155 0.82093 0.0
C78 C 0.051 0.49067 0.81578 0.0
C79 C 0.05488 0.50596 0.79213 0.0
C80 C 0.08303 0.53072 0.78549 0.0
C81 C 0.10724 0.54 0.80275 0.0
C82 C 0.10411 0.52465 0.82603 0.0
C83 C 0.07576 0.50036 0.8328 0.0
H84 H 0.59528 0.06682 0.0293 0.0
H85 H 0.563 0.03748 0.95151 0.0
H86 H 0.58391 0.12568 0.97752 0.0
H87 H 0.59345 0.02233 0.01255 0.0
H88 H 0.59096 0.01704 0.97821 0.0
H89 H 0.5413 1.00654 0.03616 0.0
H90 H 0.47559 0.91649 0.01323 0.0
H91 H 0.5517 0.9698 0.96421 0.0
C92 C 0.58766 0.07054 0.01078 0.0
C93 C 0.5892 0.09822 0.00598 0.0
C94 C 0.57761 0.04824 0.9913 0.0
C95 C 0.56954 0.05413 0.96682 0.0
C96 C 0.57166 0.08205 0.96162 0.0
C97 C 0.58073 0.10352 0.98159 0.0
C98 C 0.57943 0.02002 0.99528 0.0
C99 C 0.54875 0.99227 -0.00122 0.0
C100 C 0.53244 0.98871 0.02174 0.0
C101 C 0.50582 0.96148 0.0269 0.0
C102 C 0.49543 0.93798 0.00878 0.0
C103 C 0.51208 0.94046 0.98645 0.0
C104 C 0.53832 0.96799 0.98109 0.0
H105 H 0.59743 0.54943 0.11999 0.0
H106 H 0.56584 0.5447 0.1984 0.0
H107 H 0.5936 0.48284 0.17259 0.0
H108 H 0.59317 0.59048 0.13695 0.0
H109 H 0.59118 0.59315 0.17129 0.0
H110 H 0.5414 0.55331 0.11348 0.0
H111 H 0.4752 0.57623 0.13714 0.0
H112 H 0.55089 0.59839 0.18647 0.0
C113 C 0.59053 0.53797 0.13853 0.0
C114 C 0.5955 0.51395 0.14372 0.0
C115 C 0.57926 0.54892 0.15811 0.0
C116 C 0.57264 0.53524 0.18277 0.0
C117 C 0.57763 0.51127 0.1879 0.0
C118 C 0.58837 0.5004 0.16819 0.0
C119 C 0.57966 0.57833 0.15432 0.0
C120 C 0.5485 0.57411 0.15129 0.0
C121 C 0.53229 0.56161 0.1282 0.0
C122 C 0.50552 0.56187 0.12324 0.0
C123 C 0.49492 0.57446 0.14159 0.0
C124 C 0.51129 0.58796 0.16424 0.0
C125 C 0.53765 0.58702 0.16942 0.0
Li126 Li 0.6456 0.4144 0.43416 0.0
Li127 Li 0.64257 0.37269 0.41213 0.0
Li128 Li 0.68855 0.42126 0.40955 0.0
Li129 Li 0.64141 0.41141 0.38545 0.0
C130 C 0.67129 0.39814 0.46691 0.0
N131 N 0.67036 0.40411 0.52016 0.0
C132 C 0.64735 0.3762 0.4815 0.0
C133 C 0.69486 0.42301 0.47943 0.0
C134 C 0.64726 0.37965 0.50839 0.0
C135 C 0.69395 0.42563 0.50636 0.0
C136 C 0.58512 0.35856 0.40829 0.0
C137 C 0.54368 0.32448 0.38094 0.0
N138 N 0.53184 0.30477 0.40105 0.0
C139 C 0.57245 0.338 0.42873 0.0
C140 C 0.57059 0.35178 0.38421 0.0
C141 C 0.54555 0.31091 0.42466 0.0
C142 C 0.65117 0.45585 0.47387 0.0
N143 N 0.63275 0.42826 0.46328 0.0
C144 C 0.59365 0.41945 0.49324 0.0
C145 C 0.60439 0.41017 0.47242 0.0
C146 C 0.61217 0.44781 0.50467 0.0
C147 C 0.64133 0.46611 0.49471 0.0
H148 H 0.67349 0.46996 0.46615 0.0
H149 H 0.59008 0.3885 0.46355 0.0
C150 C 0.64154 0.32139 0.43244 0.0
N151 N 0.62879 0.33004 0.41373 0.0
C152 C 0.63248 0.29101 0.43576 0.0
C153 C 0.59788 0.27874 0.39993 0.0
C154 C 0.60785 0.30948 0.39714 0.0
C155 C 0.61009 0.26916 0.41961 0.0
H156 H 0.65865 0.33809 0.445 0.0
H157 H 0.59864 0.31683 0.38187 0.0
C158 C 0.69147 0.47512 0.40422 0.0
N159 N 0.73832 0.5331 0.39546 0.0
C160 C 0.69236 0.49025 0.38138 0.0
C161 C 0.71433 0.48962 0.42268 0.0
C162 C 0.71624 0.51952 0.3773 0.0
C163 C 0.73785 0.51888 0.41786 0.0
C164 C 0.66839 0.37065 0.36823 0.0
C165 C 0.68916 0.36242 0.37656 0.0
C166 C 0.64876 0.35501 0.3478 0.0
C167 C 0.68975 0.33838 0.36439 0.0
C168 C 0.65009 0.33112 0.33612 0.0
N169 N 0.67036 0.32335 0.34461 0.0
C170 C 0.74948 0.43797 0.42231 0.0
C171 C 0.7426 0.45871 0.38359 0.0
C172 C 0.78063 0.45266 0.41812 0.0
N173 N 0.73127 0.44148 0.40522 0.0
C174 C 0.77352 0.47414 0.37888 0.0
C175 C 0.79298 0.47121 0.39625 0.0
H176 H 0.7398 0.42348 0.439 0.0
H177 H 0.72753 0.46036 0.3699 0.0
C178 C 0.60705 0.43141 0.35789 0.0
N179 N 0.6283 0.42312 0.35576 0.0
C180 C 0.6008 0.44454 0.3368 0.0
C181 C 0.63801 0.43966 0.3118 0.0
C182 C 0.64338 0.4265 0.33324 0.0
C183 C 0.61699 0.4495 0.31362 0.0
H184 H 0.59581 0.42886 0.37626 0.0
H185 H 0.66052 0.42017 0.33233 0.0
O186 O 0.67126 0.39561 0.44047 0.0
O187 O 0.61138 0.3853 0.41187 0.0
O188 O 0.66842 0.44628 0.40839 0.0
O189 O 0.66701 0.39364 0.38028 0.0
H190 H 0.62887 0.35688 0.47214 0.0
H191 H 0.7135 0.44027 0.46847 0.0
H192 H 0.62878 0.36294 0.5199 0.0
H193 H 0.71196 0.44485 0.51628 0.0
H194 H 0.53227 0.31891 0.36238 0.0
H195 H 0.58347 0.34263 0.44742 0.0
H196 H 0.58006 0.36727 0.36813 0.0
H197 H 0.53564 0.29472 0.44024 0.0
H198 H 0.57122 0.40432 0.50052 0.0
H199 H 0.6563 0.48824 0.50276 0.0
H200 H 0.64236 0.28466 0.45132 0.0
H201 H 0.58086 0.26267 0.38684 0.0
H202 H 0.67485 0.47957 0.36692 0.0
H203 H 0.71431 0.47818 0.44028 0.0
H204 H 0.71722 0.53144 0.35968 0.0
H205 H 0.75581 0.53022 0.43188 0.0
H206 H 0.70442 0.37429 0.39243 0.0
H207 H 0.63242 0.36103 0.34127 0.0
H208 H 0.70558 0.33162 0.37072 0.0
H209 H 0.63493 0.31868 0.32038 0.0
H210 H 0.79489 0.44963 0.43182 0.0
H211 H 0.78206 0.48764 0.36146 0.0
H212 H 0.5846 0.45203 0.33898 0.0
H213 H 0.65073 0.44283 0.29415 0.0
Li214 Li 0.24514 0.64358 0.59571 0.0
Li215 Li 0.2839 0.63161 0.57769 0.0
Li216 Li 0.28749 0.68031 0.57122 0.0
Li217 Li 0.24735 0.63578 0.54982 0.0
C218 C 0.31384 0.68548 0.61522 0.0
N219 N 0.36516 0.73503 0.63437 0.0
C220 C 0.34229 0.69023 0.60859 0.0
C221 C 0.31148 0.70585 0.63171 0.0
C222 C 0.36797 0.71543 0.61844 0.0
C223 C 0.3377 0.73078 0.64117 0.0
C224 C 0.22264 0.57932 0.56638 0.0
C225 C 0.21878 0.5416 0.53618 0.0
N226 N 0.18877 0.5248 0.54123 0.0
C227 C 0.19179 0.56167 0.57133 0.0
C228 C 0.23631 0.56923 0.54872 0.0
C229 C 0.17505 0.53417 0.5584 0.0
C230 C 0.18761 0.62119 0.6183 0.0
N231 N 0.21763 0.63491 0.62346 0.0
C232 C 0.20851 0.63454 0.66889 0.0
C233 C 0.22835 0.64169 0.64811 0.0
C234 C 0.17732 0.6199 0.66426 0.0
C235 C 0.16689 0.61331 0.63856 0.0
H236 H 0.17978 0.6161 0.59844 0.0
H237 H 0.25228 0.65215 0.65166 0.0
C238 C 0.33165 0.61772 0.57519 0.0
N239 N 0.30397 0.60973 0.58485 0.0
C240 C 0.34659 0.60262 0.58336 0.0
C241 C 0.30349 0.57044 0.61001 0.0
C242 C 0.28957 0.58626 0.60154 0.0
C243 C 0.33276 0.57908 0.60154 0.0
H244 H 0.34256 0.6365 0.56188 0.0
H245 H 0.26751 0.58033 0.6088 0.0
C246 C 0.22616 0.67934 0.57436 0.0
N247 N 0.188 0.6998 0.58986 0.0
C248 C 0.20279 0.6758 0.55811 0.0
C249 C 0.23039 0.69375 0.59831 0.0
C250 C 0.18368 0.68619 0.56633 0.0
C251 C 0.21078 0.70378 0.60587 0.0
C252 C 0.30061 0.66792 0.52108 0.0
C253 C 0.28845 0.68523 0.51196 0.0
C254 C 0.32174 0.66516 0.50604 0.0
C255 C 0.29767 0.69947 0.48788 0.0
C256 C 0.33036 0.67976 0.48207 0.0
N257 N 0.31825 0.69646 0.47356 0.0
C258 C 0.34287 0.73128 0.55553 0.0
C259 C 0.31022 0.74366 0.57773 0.0
C260 C 0.36383 0.76177 0.55183 0.0
N261 N 0.31637 0.72277 0.56783 0.0
C262 C 0.33085 0.77445 0.57501 0.0
C263 C 0.35797 0.78402 0.56148 0.0
H264 H 0.34768 0.71436 0.54831 0.0
H265 H 0.28934 0.73653 0.58784 0.0
C266 C 0.19168 0.60904 0.52434 0.0
N267 N 0.22126 0.61815 0.52062 0.0
C268 C 0.17112 0.59645 0.50394 0.0
C269 C 0.21161 0.60165 0.47649 0.0
C270 C 0.23134 0.614 0.49747 0.0
C271 C 0.18109 0.59305 0.47946 0.0
H272 H 0.18409 0.61165 0.54323 0.0
H273 H 0.2547 0.6204 0.49515 0.0
O274 O 0.28851 0.66144 0.60504 0.0
O275 O 0.23928 0.60671 0.57823 0.0
O276 O 0.24493 0.66905 0.56666 0.0
O277 O 0.29216 0.65381 0.54465 0.0
H278 H 0.34454 0.6749 0.59564 0.0
H279 H 0.2897 0.70267 0.63699 0.0
H280 H 0.39013 0.71948 0.61332 0.0
H281 H 0.33621 0.74681 0.65383 0.0
H282 H 0.22902 0.53357 0.52236 0.0
H283 H 0.18087 0.56921 0.58489 0.0
H284 H 0.26011 0.5828 0.54446 0.0
H285 H 0.15113 0.52031 0.56197 0.0
H286 H 0.21743 0.63947 0.68846 0.0
H287 H 0.14303 0.60207 0.63421 0.0
H288 H 0.3692 0.61018 0.57645 0.0
H289 H 0.2917 0.55208 0.62362 0.0
H290 H 0.19961 0.66545 0.53921 0.0
H291 H 0.24835 0.69675 0.61113 0.0
H292 H 0.16547 0.68352 0.55395 0.0
H293 H 0.21365 0.71468 0.62448 0.0
H294 H 0.27211 0.6877 0.52326 0.0
H295 H 0.33137 0.65187 0.51286 0.0
H296 H 0.28845 0.71293 0.48058 0.0
H297 H 0.34669 0.67781 0.47022 0.0
H298 H 0.38406 0.76767 0.54093 0.0
H299 H 0.32545 0.79049 0.58342 0.0
H300 H 0.14772 0.58955 0.50731 0.0
H301 H 0.2204 0.59964 0.45797 0.0
Li302 Li 0.68 0.28221 0.74567 0.0
Li303 Li 0.63489 0.24761 0.76898 0.0
Li304 Li 0.63776 0.24805 0.72106 0.0
Li305 Li 0.63659 0.28991 0.74262 0.0
C306 C 0.6814 0.23034 0.7509 0.0
N307 N 0.72601 0.21634 0.76008 0.0
C308 C 0.68394 0.21987 0.77529 0.0
C309 C 0.70139 0.23342 0.73113 0.0
C310 C 0.70668 0.21296 0.77955 0.0
C311 C 0.72385 0.22634 0.73618 0.0
C312 C 0.68374 0.30976 0.78991 0.0
C313 C 0.7282 0.35789 0.79823 0.0
N314 N 0.73415 0.34608 0.81951 0.0
C315 C 0.69035 0.29809 0.81183 0.0
C316 C 0.70281 0.33991 0.78303 0.0
C317 C 0.7159 0.31683 0.82657 0.0
C318 C 0.73977 0.3271 0.7311 0.0
N319 N 0.7236 0.30393 0.74782 0.0
C320 C 0.76873 0.3139 0.76985 0.0
C321 C 0.73751 0.29726 0.76701 0.0
C322 C 0.786 0.3381 0.75308 0.0
C323 C 0.77116 0.34466 0.73346 0.0
H324 H 0.72824 0.33241 0.71629 0.0
H325 H 0.72434 0.27961 0.78071 0.0
C326 C 0.60498 0.1915 0.79323 0.0
N327 N 0.61604 0.2214 0.79746 0.0
C328 C 0.59159 0.17086 0.81342 0.0
C329 C 0.60021 0.21209 0.8417 0.0
C330 C 0.61338 0.23193 0.82092 0.0
C331 C 0.58947 0.18111 0.83819 0.0
H332 H 0.607 0.18379 0.77419 0.0
H333 H 0.62186 0.25579 0.82357 0.0
C334 C 0.6651 0.29118 0.68827 0.0
N335 N 0.66549 0.28677 0.63485 0.0
C336 C 0.64518 0.29588 0.67323 0.0
C337 C 0.68546 0.28459 0.67615 0.0
C338 C 0.64566 0.29346 0.64625 0.0
C339 C 0.68524 0.28236 0.64912 0.0
C340 C 0.57931 0.24038 0.75494 0.0
C341 C 0.55174 0.21681 0.74609 0.0
C342 C 0.58005 0.25751 0.77635 0.0
C343 C 0.52526 0.21077 0.75882 0.0
C344 C 0.55308 0.25075 0.78855 0.0
N345 N 0.52647 0.22772 0.77961 0.0
C346 C 0.63169 0.20303 0.68486 0.0
C347 C 0.59701 0.22044 0.68045 0.0
C348 C 0.61724 0.18189 0.66506 0.0
N349 N 0.62132 0.22167 0.69212 0.0
C350 C 0.58192 0.19971 0.66062 0.0
C351 C 0.59177 0.17981 0.65285 0.0
H352 H 0.65068 0.20406 0.69482 0.0
H353 H 0.58908 0.23533 0.68686 0.0
C354 C 0.63416 0.34393 0.75157 0.0
N355 N 0.6209 0.31662 0.73956 0.0
C356 C 0.62309 0.3636 0.74771 0.0
C357 C 0.58419 0.32613 0.72012 0.0
C358 C 0.59614 0.30733 0.72434 0.0
C359 C 0.59795 0.3549 0.73156 0.0
H360 H 0.65353 0.35065 0.76388 0.0
H361 H 0.58601 0.28548 0.71502 0.0
O362 O 0.65919 0.23708 0.74634 0.0
O363 O 0.65909 0.29162 0.77499 0.0
O364 O 0.66444 0.29264 0.71475 0.0
O365 O 0.6054 0.2464 0.74275 0.0
H366 H 0.66883 0.21749 0.79088 0.0
H367 H 0.69975 0.24142 0.71215 0.0
H368 H 0.70901 0.20502 0.79837 0.0
H369 H 0.73958 0.2288 0.7211 0.0
H370 H 0.74328 0.38118 0.793 0.0
H371 H 0.67626 0.27467 0.81716 0.0
H372 H 0.69848 0.34914 0.76579 0.0
H373 H 0.72135 0.30805 0.84351 0.0
H374 H 0.77913 0.30852 0.78567 0.0
H375 H 0.78365 0.36322 0.7202 0.0
H376 H 0.58319 0.14716 0.80971 0.0
H377 H 0.59931 0.22107 0.86049 0.0
H378 H 0.62934 0.30107 0.68229 0.0
H379 H 0.70119 0.28116 0.68751 0.0
H380 H 0.63023 0.29683 0.63437 0.0
H381 H 0.70077 0.27712 0.63949 0.0
H382 H 0.55083 0.20333 0.72957 0.0
H383 H 0.6012 0.27579 0.78351 0.0
H384 H 0.50374 0.19259 0.75218 0.0
H385 H 0.55331 0.2638 0.80514 0.0
H386 H 0.62544 0.16683 0.65986 0.0
H387 H 0.56271 0.19928 0.65146 0.0
H388 H 0.63421 0.38548 0.75708 0.0
H389 H 0.56504 0.31864 0.70725 0.0
Li390 Li 0.41341 0.62698 0.9249 0.0
Li391 Li 0.42027 0.67378 0.90864 0.0
Li392 Li 0.37251 0.62458 0.9 0.0
Li393 Li 0.42129 0.63634 0.87976 0.0
C394 C 0.38435 0.64583 0.95915 0.0
N395 N 0.3756 0.64564 0.01205 0.0
C396 C 0.40862 0.66374 0.97549 0.0
C397 C 0.3556 0.62795 0.96965 0.0
C398 C 0.40374 0.66329 0.0022 0.0
C399 C 0.35165 0.62814 -0.00354 0.0
C400 C 0.47602 0.68118 0.89732 0.0
C401 C 0.50312 0.72064 0.86597 0.0
N402 N 0.5296 0.7252 0.876 0.0
C403 C 0.5035 0.68624 0.9073 0.0
C404 C 0.4758 0.69849 0.87647 0.0
C405 C 0.53035 0.70861 0.89627 0.0
C406 C 0.45037 0.60835 0.94628 0.0
N407 N 0.4251 0.60941 0.95202 0.0
C408 C 0.42281 0.58871 0.99407 0.0
C409 C 0.41065 0.59894 0.97506 0.0
C410 C 0.44976 0.58868 0.98911 0.0
C411 C 0.46303 0.59788 0.9645 0.0
H412 H 0.46095 0.61602 0.92753 0.0
H413 H 0.39001 0.59893 0.97896 0.0
C414 C 0.42467 0.73211 0.9086 0.0
N415 N 0.43713 0.71559 0.91685 0.0
C416 C 0.43631 0.76188 0.91722 0.0
C417 C 0.47379 0.75715 0.94184 0.0
C418 C 0.46153 0.72769 0.93279 0.0
C419 C 0.46076 0.77444 0.93459 0.0
H420 H 0.40517 0.72188 0.896 0.0
H421 H 0.471 0.71413 0.93914 0.0
C422 C 0.38067 0.57185 0.90917 0.0
N423 N 0.36224 0.51909 0.93649 0.0
C424 C 0.39391 0.55428 0.90431 0.0
C425 C 0.35793 0.56249 0.92782 0.0
C426 C 0.38431 0.5277 0.91836 0.0
C427 C 0.34895 0.53576 0.94144 0.0
C428 C 0.3834 0.65261 0.85177 0.0
C429 C 0.3713 0.62419 0.8402 0.0
C430 C 0.3795 0.67488 0.83989 0.0
C431 C 0.35548 0.61854 0.81686 0.0
C432 C 0.36357 0.66836 0.81653 0.0
N433 N 0.35197 0.64055 0.80561 0.0
C434 C 0.31403 0.61925 0.89878 0.0
C435 C 0.31713 0.57794 0.88182 0.0
C436 C 0.28384 0.60597 0.89095 0.0
N437 N 0.33007 0.6053 0.8937 0.0
C438 C 0.28722 0.56399 0.87363 0.0
C439 C 0.27036 0.57831 0.87759 0.0
H440 H 0.32498 0.64115 0.90806 0.0
H441 H 0.33039 0.56742 0.87779 0.0
C442 C 0.45409 0.61366 0.85603 0.0
N443 N 0.44084 0.63031 0.85091 0.0
C444 C 0.46731 0.60587 0.83611 0.0
C445 C 0.45465 0.63411 0.80623 0.0
C446 C 0.44174 0.64143 0.82678 0.0
C447 C 0.46708 0.61552 0.81067 0.0
H448 H 0.45402 0.60612 0.87562 0.0
H449 H 0.43197 0.65548 0.82332 0.0
O450 O 0.38853 0.64597 0.93296 0.0
O451 O 0.44962 0.65921 0.90797 0.0
O452 O 0.39027 0.59841 0.89621 0.0
O453 O 0.39835 0.6585 0.87494 0.0
H454 H 0.43102 0.67747 0.96769 0.0
H455 H 0.33657 0.61406 0.95721 0.0
H456 H 0.42234 0.67689 0.01511 0.0
H457 H 0.32955 0.61437 0.00489 0.0
H458 H 0.50328 0.7342 0.84984 0.0
H459 H 0.50406 0.67304 0.92344 0.0
H460 H 0.45483 0.69498 0.86843 0.0
H461 H 0.55177 0.71279 0.90381 0.0
H462 H 0.41175 0.58198 0.01275 0.0
H463 H 0.48331 0.59752 0.95945 0.0
H464 H 0.42549 0.77441 0.91134 0.0
H465 H 0.49285 0.76606 0.95497 0.0
H466 H 0.41141 0.56106 0.88989 0.0
H467 H 0.34763 0.57595 0.93199 0.0
H468 H 0.39443 0.51394 0.91486 0.0
H469 H 0.33152 0.52837 0.95603 0.0
H470 H 0.37415 0.60669 0.84907 0.0
H471 H 0.38862 0.69695 0.84867 0.0
H472 H 0.34599 0.59664 0.8077 0.0
H473 H 0.36037 0.68539 0.80712 0.0
H474 H 0.2717 0.61789 0.89415 0.0
H475 H 0.27763 0.54255 0.86359 0.0
H476 H 0.47721 0.59207 0.84053 0.0
H477 H 0.45385 0.642 0.78693 0.0
Li478 Li 0.76153 0.41407 0.07095 0.0
Li479 Li 0.79995 0.40635 0.09451 0.0
Li480 Li 0.80041 0.4089 0.04754 0.0
Li481 Li 0.76218 0.36475 0.0691 0.0
C482 C 0.82902 0.46543 0.06202 0.0
N483 N 0.87712 0.51432 0.03858 0.0
C484 C 0.85843 0.47506 0.07027 0.0
C485 C 0.82405 0.48068 0.0419 0.0
C486 C 0.88245 0.49983 0.05816 0.0
C487 C 0.84868 0.50534 0.03029 0.0
C488 C 0.75325 0.38571 0.12586 0.0
C489 C 0.75419 0.3667 0.16843 0.0
N490 N 0.75135 0.38934 0.17926 0.0
C491 C 0.75015 0.40867 0.13739 0.0
C492 C 0.7551 0.36443 0.14146 0.0
C493 C 0.7493 0.41016 0.16443 0.0
C494 C 0.70755 0.41708 0.07579 0.0
N495 N 0.73812 0.43336 0.07427 0.0
C496 C 0.73798 0.47888 0.08379 0.0
C497 C 0.75339 0.46373 0.07775 0.0
C498 C 0.70651 0.4626 0.08674 0.0
C499 C 0.69117 0.43135 0.08198 0.0
H500 H 0.69601 0.39286 0.07329 0.0
H501 H 0.7777 0.47609 0.07691 0.0
C502 C 0.84402 0.40933 0.13046 0.0
N503 N 0.82569 0.42035 0.12403 0.0
C504 C 0.86547 0.423 0.15016 0.0
C505 C 0.84864 0.45894 0.15618 0.0
C506 C 0.82756 0.44459 0.13647 0.0
C507 C 0.86828 0.44847 0.16302 0.0
H508 H 0.84277 0.39065 0.11972 0.0
H509 H 0.81325 0.45335 0.13048 0.0
C510 C 0.75182 0.39198 0.01509 0.0
N511 N 0.74261 0.40036 0.96365 0.0
C512 C 0.75311 0.37342 0.99586 0.0
C513 C 0.74567 0.4147 0.00817 0.0
C514 C 0.74846 0.37807 0.96996 0.0
C515 C 0.7411 0.41859 0.98205 0.0
C516 C 0.809 0.35601 0.06914 0.0
C517 C 0.81793 0.34789 0.04633 0.0
C518 C 0.80214 0.3378 0.09114 0.0
C519 C 0.81965 0.32157 0.0459 0.0
C520 C 0.80409 0.31163 0.08992 0.0
N521 N 0.81272 0.30412 0.06751 0.0
C522 C 0.85561 0.42501 0.02541 0.0
C523 C 0.82524 0.43397 -0.00362 0.0
C524 C 0.87859 0.43491 0.00706 0.0
N525 N 0.82926 0.42397 0.01965 0.0
C526 C 0.84754 0.44379 0.9773 0.0
C527 C 0.87452 0.44389 0.98237 0.0
H528 H 0.85876 0.418 0.04437 0.0
H529 H 0.80486 0.4344 0.99247 0.0
C530 C 0.71587 0.30504 0.08425 0.0
N531 N 0.73726 0.32171 0.06627 0.0
C532 C 0.69832 0.27363 0.08153 0.0
C533 C 0.72543 0.27728 0.04213 0.0
C534 C 0.74191 0.30847 0.0453 0.0
C535 C 0.70331 0.25942 0.06035 0.0
H536 H 0.71236 0.31611 0.10063 0.0
H537 H 0.75861 0.32216 0.03105 0.0
O538 O 0.80528 0.44068 0.07311 0.0
O539 O 0.75473 0.38424 0.09944 0.0
O540 O 0.75585 0.38753 0.04059 0.0
O541 O 0.80673 0.38147 0.06984 0.0
H542 H 0.86269 0.46332 0.08564 0.0
H543 H 0.80145 0.47324 0.03505 0.0
H544 H 0.90534 0.50746 0.06425 0.0
H545 H 0.84519 0.51725 0.01459 0.0
H546 H 0.75572 0.35045 0.18074 0.0
H547 H 0.74875 0.42538 0.12563 0.0
H548 H 0.75724 0.34637 0.13285 0.0
H549 H 0.74709 0.42791 0.17363 0.0
H550 H 0.75074 0.50301 0.08698 0.0
H551 H 0.66698 0.41784 0.08436 0.0
H552 H 0.88038 0.41441 0.15463 0.0
H553 H 0.84974 0.47825 0.1658 0.0
H554 H 0.75789 0.35579 0.00082 0.0
H555 H 0.74455 0.42926 0.02274 0.0
H556 H 0.74954 0.36397 0.95487 0.0
H557 H 0.73641 0.43613 0.97641 0.0
H558 H 0.82296 0.36146 0.02899 0.0
H559 H 0.79517 0.3437 0.10892 0.0
H560 H 0.82633 0.31493 0.02833 0.0
H561 H 0.7987 0.29727 0.10678 0.0
H562 H 0.89926 0.43533 0.01214 0.0
H563 H 0.84329 0.45046 0.95856 0.0
H564 H 0.68131 0.26057 0.0959 0.0
H565 H 0.72958 0.26724 0.02528 0.0
Li566 Li 0.41616 0.79818 0.26968 0.0
Li567 Li 0.37142 0.76341 0.24609 0.0
Li568 Li 0.42014 0.76169 0.24194 0.0
Li569 Li 0.41484 0.80367 0.22438 0.0
C570 C 0.39786 0.74251 0.29561 0.0
N571 N 0.40659 0.72027 0.34163 0.0
C572 C 0.37545 0.73124 0.31467 0.0
C573 C 0.42456 0.74213 0.29987 0.0
C574 C 0.38034 0.72022 0.33784 0.0
C575 C 0.42858 0.73087 0.32327 0.0
C576 C 0.37028 0.81226 0.26616 0.0
C577 C 0.3433 0.83807 0.27685 0.0
N578 N 0.3332 0.82159 0.29903 0.0
C579 C 0.35968 0.79564 0.28907 0.0
C580 C 0.36208 0.83369 0.26 0.0
C581 C 0.34095 0.80066 0.30542 0.0
C582 C 0.43773 0.8521 0.29612 0.0
N583 N 0.43116 0.82322 0.30012 0.0
C584 C 0.44585 0.83431 0.34464 0.0
C585 C 0.43519 0.8141 0.32381 0.0
C586 C 0.45278 0.86433 0.34106 0.0
C587 C 0.44886 0.87313 0.31624 0.0
H588 H 0.43436 0.85885 0.27712 0.0
H589 H 0.4299 0.7912 0.32681 0.0
C590 C 0.31634 0.71256 0.26017 0.0
N591 N 0.32861 0.73923 0.24729 0.0
C592 C 0.28518 0.69526 0.26355 0.0
C593 C 0.27973 0.73269 0.23954 0.0
C594 C 0.31106 0.74937 0.23677 0.0
C595 C 0.26636 0.70538 0.25344 0.0
H596 H 0.33085 0.70507 0.26837 0.0
H597 H 0.32145 0.77075 0.22668 0.0
C598 C 0.47398 0.82753 0.25511 0.0
N599 N 0.52572 0.87279 0.27803 0.0
C600 C 0.48337 0.85777 0.2501 0.0
C601 C 0.49113 0.82031 0.27149 0.0
C602 C 0.50953 0.88032 0.26195 0.0
C603 C 0.51715 0.84352 0.28297 0.0
C604 C 0.39127 0.76323 0.18822 0.0
C605 C 0.41252 0.76131 0.17266 0.0
C606 C 0.37049 0.76982 0.17694 0.0
C607 C 0.41276 0.76624 0.14598 0.0
C608 C 0.37148 0.77463 0.15019 0.0
N609 N 0.39243 0.77277 0.13539 0.0
C610 C 0.42253 0.70709 0.23923 0.0
C611 C 0.46512 0.75141 0.22339 0.0
C612 C 0.43482 0.68952 0.23099 0.0
N613 N 0.43761 0.73735 0.2349 0.0
C614 C 0.47807 0.73475 0.21468 0.0
C615 C 0.4626 0.7033 0.21792 0.0
H616 H 0.40057 0.69651 0.24831 0.0
H617 H 0.47649 0.77548 0.22009 0.0
C618 C 0.41504 0.84826 0.19106 0.0
N619 N 0.42887 0.83237 0.19711 0.0
C620 C 0.42742 0.87093 0.17223 0.0
C621 C 0.46772 0.86006 0.16622 0.0
C622 C 0.45458 0.83766 0.18506 0.0
C623 C 0.45434 0.87729 0.15976 0.0
H624 H 0.39466 0.84359 0.2011 0.0
H625 H 0.46508 0.82468 0.19038 0.0
O626 O 0.39329 0.75305 0.27267 0.0
O627 O 0.38856 0.8077 0.24971 0.0
O628 O 0.44817 0.80513 0.24399 0.0
O629 O 0.39127 0.75943 0.21447 0.0
H630 H 0.35446 0.73098 0.31165 0.0
H631 H 0.44205 0.75055 0.28535 0.0
H632 H 0.36325 0.71155 0.35279 0.0
H633 H 0.44919 0.73058 0.32685 0.0
H634 H 0.33675 0.85456 0.27231 0.0
H635 H 0.36587 0.77911 0.29421 0.0
H636 H 0.37012 0.8468 0.24236 0.0
H637 H 0.33259 0.78792 0.32321 0.0
H638 H 0.44795 0.82622 0.36349 0.0
H639 H 0.45431 0.89605 0.31229 0.0
H640 H 0.27612 0.67471 0.27481 0.0
H641 H 0.2662 0.74127 0.23114 0.0
H642 H 0.47035 0.8638 0.23753 0.0
H643 H 0.48445 0.79707 0.27531 0.0
H644 H 0.51691 0.90382 0.25843 0.0
H645 H 0.53056 0.83825 0.2958 0.0
H646 H 0.42882 0.75634 0.18113 0.0
H647 H 0.35404 0.77157 0.18878 0.0
H648 H 0.42917 0.76497 0.13369 0.0
H649 H 0.35567 0.77994 0.1412 0.0
H650 H 0.42208 0.6653 0.23362 0.0
H651 H 0.49962 0.74624 0.20485 0.0
H652 H 0.4164 0.8837 0.16785 0.0
H653 H 0.48809 0.86371 0.15671 0.0
H654 H 0.13315 0.65444 0.29327 0.0
H655 H 0.13357 0.57088 0.28804 0.0
H656 H 0.18308 0.59689 0.26708 0.0
H657 H 0.2285 0.64427 0.25512 0.0
H658 H 0.22975 0.72856 0.26441 0.0
H659 H 0.1773 0.70148 0.27824 0.0
C660 C 0.14377 0.6419 0.28676 0.0
C661 C 0.12978 0.61084 0.29182 0.0
C662 C 0.17274 0.65724 0.27576 0.0
C663 C 0.14392 0.59478 0.28399 0.0
C664 C 0.17229 0.60969 0.27225 0.0
C665 C 0.21733 0.65676 0.26012 0.0
C666 C 0.23334 0.68851 0.2589 0.0
C667 C 0.18735 0.64109 0.26888 0.0
C668 C 0.21811 0.70416 0.26488 0.0
C669 C 0.18809 0.68869 0.27303 0.0
H670 H 0.58294 0.14236 0.45992 0.0
H671 H 0.49165 0.12438 0.45293 0.0
H672 H 0.5096 0.17261 0.43097 0.0
H673 H 0.55175 0.22323 0.42039 0.0
H674 H 0.64313 0.24206 0.4297 0.0
H675 H 0.6247 0.19047 0.44442 0.0
C676 C 0.56694 0.14879 0.45317 0.0
C677 C 0.53604 0.12992 0.45835 0.0
C678 C 0.57751 0.17706 0.44148 0.0
C679 C 0.51553 0.13832 0.44909 0.0
C680 C 0.52583 0.16613 0.43682 0.0
C681 C 0.56761 0.21582 0.42503 0.0
C682 C 0.59877 0.2366 0.42434 0.0
C683 C 0.55685 0.18619 0.43388 0.0
C684 C 0.61903 0.22668 0.43058 0.0
C685 C 0.60852 0.19715 0.43891 0.0
H686 H 0.39711 0.52715 0.67104 0.0
H687 H 0.43689 0.52544 0.59791 0.0
H688 H 0.40666 0.54373 0.57574 0.0
H689 H 0.3705 0.56259 0.57796 0.0
H690 H 0.33311 0.56531 0.65235 0.0
H691 H 0.36091 0.54434 0.67318 0.0
C692 C 0.39927 0.53087 0.65022 0.0
C693 C 0.41953 0.52547 0.63616 0.0
C694 C 0.38226 0.54163 0.63787 0.0
C695 C 0.42149 0.52957 0.60913 0.0
C696 C 0.40434 0.54016 0.59653 0.0
C697 C 0.3685 0.5586 0.59872 0.0
C698 C 0.34947 0.56535 0.61348 0.0
C699 C 0.38495 0.54672 0.6108 0.0
C700 C 0.34701 0.55982 0.64036 0.0
C701 C 0.3631 0.54801 0.65238 0.0
H702 H 0.9208 0.39896 0.79036 0.0
H703 H 0.91303 0.47856 0.78453 0.0
H704 H 0.86342 0.44906 0.76421 0.0
H705 H 0.81953 0.39943 0.75397 0.0
H706 H 0.82645 0.31946 0.76215 0.0
H707 H 0.87904 0.35018 0.77556 0.0
C708 C 0.90864 0.40998 0.78383 0.0
C709 C 0.92053 0.44087 0.78881 0.0
C710 C 0.87969 0.39265 0.77306 0.0
C711 C 0.9043 0.4548 0.78079 0.0
C712 C 0.87587 0.43789 0.76936 0.0
C713 C 0.83278 0.38882 0.75808 0.0
C714 C 0.81902 0.35719 0.7573 0.0
C715 C 0.86288 0.4066 0.76628 0.0
C716 C 0.83641 0.34374 0.76298 0.0
C717 C 0.8665 0.36129 0.77059 0.0
H718 H 0.50271 0.88813 0.00631 0.0
H719 H 0.50468 0.93049 0.93361 0.0
H720 H 0.48881 0.88266 0.91067 0.0
H721 H 0.47291 0.828 0.91197 0.0
H722 H 0.47131 0.78735 0.98573 0.0
H723 H 0.48819 0.83522 0.00762 0.0
C724 C 0.4995 0.88688 0.98543 0.0
C725 C 0.50434 0.91258 0.97168 0.0
C726 C 0.49035 0.85955 0.97262 0.0
C727 C 0.50094 0.9109 0.94458 0.0
C728 C 0.49175 0.88355 0.93154 0.0
C729 C 0.47622 0.82973 0.93282 0.0
C730 C 0.47105 0.80415 0.94717 0.0
C731 C 0.48608 0.85759 0.94543 0.0
C732 C 0.47558 0.80673 0.97417 0.0
C733 C 0.4851 0.83408 0.98675 0.0
H734 H 0.6531 0.52999 0.15045 0.0
H735 H 0.57786 0.48011 0.09911 0.0
H736 H 0.6063 0.46065 0.07558 0.0
H737 H 0.65144 0.45486 0.07229 0.0
H738 H 0.72529 0.50394 0.12567 0.0
H739 H 0.69875 0.52687 0.14554 0.0
C740 C 0.64327 0.51536 0.13372 0.0
C741 C 0.6137 0.50658 0.12626 0.0
C742 C 0.65943 0.50392 0.12086 0.0
C743 C 0.6008 0.48737 0.10487 0.0
C744 C 0.61696 0.47608 0.09165 0.0
C745 C 0.66172 0.47067 0.08819 0.0
C746 C 0.69044 0.47771 0.09734 0.0
C747 C 0.64608 0.48365 0.09989 0.0
C748 C 0.70352 0.49844 0.11786 0.0
C749 C 0.68826 0.51146 0.12942 0.0
H750 H 0.46107 0.91232 0.52488 0.0
H751 H 0.38656 0.92865 0.52301 0.0
H752 H 0.35371 0.87927 0.54249 0.0
H753 H 0.34472 0.82904 0.55384 0.0
H754 H 0.41983 0.81333 0.55769 0.0
H755 H 0.4537 0.86468 0.54312 0.0
C756 C 0.43782 0.9053 0.52941 0.0
C757 C 0.42619 0.92398 0.52248 0.0
C758 C 0.41898 0.87671 0.54026 0.0
C759 C 0.39608 0.91477 0.52842 0.0
C760 C 0.37721 0.88638 0.53925 0.0
C761 C 0.36857 0.83688 0.55226 0.0
C762 C 0.37933 0.81673 0.55632 0.0
C763 C 0.38818 0.86675 0.54437 0.0
C764 C 0.41048 0.82773 0.55384 0.0
C765 C 0.43004 0.85729 0.54574 0.0
H766 H 0.57469 0.45526 0.68609 0.0
H767 H 0.48239 0.38387 0.69402 0.0
H768 H 0.49894 0.35279 0.71659 0.0
H769 H 0.54003 0.34351 0.72885 0.0
H770 H 0.63234 0.41443 0.71919 0.0
H771 H 0.61546 0.44805 0.7027 0.0
C772 C 0.55819 0.43309 0.69319 0.0
C773 C 0.52739 0.42179 0.68819 0.0
C774 C 0.56792 0.41508 0.70553 0.0
C775 C 0.50621 0.39319 0.69776 0.0
C776 C 0.5157 0.37526 0.7104 0.0
C777 C 0.55642 0.36642 0.72334 0.0
C778 C 0.5874 0.37632 0.725 0.0
C779 C 0.54654 0.38557 0.71354 0.0
C780 C 0.60838 0.40625 0.71824 0.0
C781 C 0.59874 0.42545 0.70864 0.0
H782 H 0.15393 0.52645 0.80782 0.0
H783 H 0.116 0.53967 0.87769 0.0
H784 H 0.16422 0.55727 0.90039 0.0
H785 H 0.21825 0.57125 0.89927 0.0
H786 H 0.2547 0.55754 0.82845 0.0
H787 H 0.20607 0.53793 0.80717 0.0
C788 C 0.15621 0.53309 0.82807 0.0
C789 C 0.13169 0.53212 0.84105 0.0
C790 C 0.18381 0.54326 0.84073 0.0
C791 C 0.13466 0.54025 0.86737 0.0
C792 C 0.16224 0.55047 0.88023 0.0
C793 C 0.21543 0.56393 0.87921 0.0
C794 C 0.24007 0.56575 0.86551 0.0
C795 C 0.18717 0.55252 0.86697 0.0
C796 C 0.23606 0.55599 0.83955 0.0
C797 C 0.20828 0.5449 0.8273 0.0
H798 H 0.64664 0.12504 0.02295 0.0
H799 H 0.56551 0.12993 0.02807 0.0
H800 H 0.59343 0.17943 0.04904 0.0
H801 H 0.64226 0.22426 0.05994 0.0
H802 H 0.7239 0.22072 0.05118 0.0
H803 H 0.69469 0.16788 0.03783 0.0
C804 C 0.63499 0.13658 0.02949 0.0
C805 C 0.6041 0.12388 0.02429 0.0
C806 C 0.65146 0.16556 0.04043 0.0
C807 C 0.58926 0.13927 0.03217 0.0
C808 C 0.60527 0.16764 0.04393 0.0
C809 C 0.6535 0.21163 0.05569 0.0
C810 C 0.68514 0.22632 0.05638 0.0
C811 C 0.63658 0.18149 0.04727 0.0
C812 C 0.69955 0.20989 0.05054 0.0
C813 C 0.68287 0.17971 0.04291 0.0
H814 H 0.50917 0.63573 0.14625 0.0
H815 H 0.49648 0.58443 0.21594 0.0
H816 H 0.4803 0.61582 0.23923 0.0
H817 H 0.4681 0.65709 0.23885 0.0
H818 H 0.48234 0.70821 0.16853 0.0
H819 H 0.49959 0.67771 0.14635 0.0
C820 C 0.50289 0.6315 0.16658 0.0
C821 C 0.50361 0.60772 0.17938 0.0
C822 C 0.49386 0.64958 0.17964 0.0
C823 C 0.49597 0.60264 0.20577 0.0
C824 C 0.48665 0.62049 0.21898 0.0
C825 C 0.47505 0.66148 0.2187 0.0
C826 C 0.47403 0.68494 0.20537 0.0
C827 C 0.48519 0.64386 0.206 0.0
C828 C 0.48327 0.69057 0.17931 0.0
C829 C 0.493 0.67305 0.16656 0.0
H830 H 0.92412 0.54739 0.35151 0.0
H831 H 0.92177 0.46305 0.3628 0.0
H832 H 0.87372 0.4427 0.38584 0.0
H833 H 0.82908 0.44655 0.39681 0.0
H834 H 0.83002 0.5298 0.3824 0.0
H835 H 0.88185 0.55303 0.36666 0.0
C836 C 0.91353 0.52493 0.35982 0.0
C837 C 0.92643 0.50677 0.35571 0.0
C838 C 0.88534 0.51301 0.37199 0.0
C839 C 0.91224 0.47744 0.36597 0.0
C840 C 0.88468 0.46575 0.37891 0.0
C841 C 0.84092 0.46998 0.39079 0.0
C842 C 0.82571 0.48638 0.39054 0.0
C843 C 0.87047 0.48294 0.38115 0.0
C844 C 0.84118 0.51663 0.38244 0.0
C845 C 0.8708 0.52993 0.37348 0.0
H846 H 0.11587 0.55142 0.37118 0.0
H847 H 0.07667 0.60392 0.39767 0.0
H848 H 0.10004 0.6098 0.44016 0.0
H849 H 0.13751 0.60649 0.4673 0.0
H850 H 0.17795 0.55518 0.44048 0.0
H851 H 0.14872 0.54297 0.4004 0.0
C852 C 0.11209 0.56375 0.38641 0.0
C853 C 0.09481 0.57745 0.38116 0.0
C854 C 0.12639 0.56788 0.41052 0.0
C855 C 0.08968 0.59295 0.4012 0.0
C856 C 0.10336 0.59665 0.42543 0.0
C857 C 0.13943 0.59202 0.45301 0.0
C858 C 0.1603 0.58218 0.45678 0.0
C859 C 0.12263 0.58516 0.42996 0.0
C860 C 0.16262 0.56367 0.43785 0.0
C861 C 0.14577 0.55652 0.41498 0.0
H862 H 0.50496 0.09213 0.5664 0.0
H863 H 0.58978 0.11141 0.5331 0.0
H864 H 0.61629 0.13914 0.57225 0.0
H865 H 0.6158 0.16334 0.61329 0.0
H866 H 0.5309 0.14516 0.64595 0.0
H867 H 0.50399 0.11175 0.60967 0.0
C868 C 0.52912 0.10158 0.56811 0.0
C869 C 0.54544 0.09972 0.54702 0.0
C870 C 0.54426 0.11831 0.59028 0.0
C871 C 0.57682 0.11256 0.5492 0.0
C872 C 0.59196 0.12859 0.57146 0.0
C873 C 0.59138 0.15161 0.61275 0.0
C874 C 0.57545 0.15716 0.63212 0.0
C875 C 0.57602 0.13251 0.59174 0.0
C876 C 0.54379 0.14189 0.63098 0.0
C877 C 0.52834 0.12259 0.61033 0.0
H878 H 0.49854 0.58242 0.70231 0.0
H879 H 0.45415 0.49405 0.73723 0.0
H880 H 0.45415 0.51613 0.77917 0.0
H881 H 0.45782 0.55894 0.8035 0.0
H882 H 0.4994 0.647 0.76798 0.0
H883 H 0.50879 0.62654 0.72856 0.0
C884 C 0.48946 0.56809 0.71926 0.0
C885 C 0.47596 0.53661 0.71654 0.0
C886 C 0.48821 0.58078 0.74303 0.0
C887 C 0.46479 0.51835 0.73873 0.0
C888 C 0.46437 0.53093 0.76268 0.0
C889 C 0.46971 0.57389 0.78744 0.0
C890 C 0.47745 0.60439 0.78856 0.0
C891 C 0.47467 0.5619 0.76472 0.0
C892 C 0.49259 0.62331 0.76742 0.0
C893 C 0.4981 0.61165 0.74491 0.0
H894 H 0.96112 0.44808 0.89394 0.0
H895 H 0.94261 0.51553 0.86405 0.0
H896 H 0.91583 0.51333 0.90408 0.0
H897 H 0.89258 0.48763 0.94511 0.0
H898 H 0.90783 0.41692 0.97274 0.0
H899 H 0.94147 0.42547 0.93645 0.0
C900 C 0.95206 0.46299 0.89658 0.0
C901 C 0.95391 0.48206 0.87624 0.0
C902 C 0.93573 0.46069 0.91912 0.0
C903 C 0.94151 0.50079 0.87958 0.0
C904 C 0.92603 0.49934 0.90234 0.0
C905 C 0.9033 0.47413 0.94323 0.0
C906 C 0.8974 0.45151 0.96162 0.0
C907 C 0.92204 0.47854 0.92183 0.0
C908 C 0.91208 0.4347 0.95912 0.0
C909 C 0.93121 0.4394 0.93822 0.0
H910 H 0.53392 0.96763 0.07262 0.0
H911 H 0.44639 0.93751 0.03916 0.0
H912 H 0.42222 0.91125 0.07944 0.0
H913 H 0.42619 0.88978 0.12092 0.0
H914 H 0.51399 0.91859 0.15352 0.0
H915 H 0.53786 0.95239 0.11685 0.0
C916 C 0.5096 0.95632 0.07453 0.0
C917 C 0.49192 0.9544 0.05302 0.0
C918 C 0.49591 0.94032 0.09734 0.0
C919 C 0.4604 0.93924 0.05555 0.0
C920 C 0.4466 0.92399 0.07846 0.0
C921 C 0.4505 0.90401 0.12033 0.0
C922 C 0.46829 0.90118 0.13965 0.0
C923 C 0.46413 0.92321 0.09901 0.0
C924 C 0.4998 0.91974 0.13854 0.0
C925 C 0.51348 0.93922 0.11765 0.0
H926 H 0.62693 0.52707 0.21575 0.0
H927 H 0.53027 0.4728 0.21875 0.0
H928 H 0.53366 0.4499 0.25967 0.0
H929 H 0.56495 0.44202 0.29201 0.0
H930 H 0.66184 0.4957 0.28692 0.0
H931 H 0.65768 0.52212 0.24932 0.0
C932 C 0.60664 0.51068 0.22577 0.0
C933 C 0.57843 0.50162 0.21465 0.0
C934 C 0.6089 0.4972 0.24858 0.0
C935 C 0.55216 0.48022 0.22733 0.0
C936 C 0.55417 0.467 0.2505 0.0
C937 C 0.58506 0.45976 0.2828 0.0
C938 C 0.61367 0.46656 0.29192 0.0
C939 C 0.5825 0.47477 0.26094 0.0
C940 C 0.6396 0.48959 0.27987 0.0
C941 C 0.63726 0.50485 0.25849 0.0
H942 H 0.49215 0.93521 0.44728 0.0
H943 H 0.44116 0.97371 0.41567 0.0
H944 H 0.43549 0.94751 0.37467 0.0
H945 H 0.43853 0.90808 0.35046 0.0
H946 H 0.48943 0.86923 0.38187 0.0
H947 H 0.50082 0.90051 0.4206 0.0
C948 C 0.4803 0.93829 0.4312 0.0
C949 C 0.46691 0.95619 0.43459 0.0
C950 C 0.47636 0.92245 0.40794 0.0
C951 C 0.45191 0.96029 0.41354 0.0
C952 C 0.44831 0.94497 0.39019 0.0
C953 C 0.45277 0.9069 0.36539 0.0
C954 C 0.46265 0.88585 0.36329 0.0
C955 C 0.45948 0.92515 0.38754 0.0
C956 C 0.48077 0.88456 0.38318 0.0
C957 C 0.48754 0.90265 0.40528 0.0
H958 H 0.58195 0.48287 0.61311 0.0
H959 H 0.49326 0.44071 0.57873 0.0
H960 H 0.5141 0.43737 0.53718 0.0
H961 H 0.55618 0.4401 0.51232 0.0
H962 H 0.64383 0.47762 0.54813 0.0
H963 H 0.62474 0.48899 0.58729 0.0
C964 C 0.5672 0.47319 0.59646 0.0
C965 C 0.53601 0.46172 0.59921 0.0
C966 C 0.5791 0.47006 0.57293 0.0
C967 C 0.51736 0.44994 0.57725 0.0
C968 C 0.52921 0.44764 0.55351 0.0
C969 C 0.57113 0.45079 0.52868 0.0
C970 C 0.60131 0.45761 0.52736 0.0
C971 C 0.55982 0.45655 0.55143 0.0
C972 C 0.62055 0.47221 0.54851 0.0
C973 C 0.6096 0.47857 0.57101 0.0
H974 H 0.11521 0.59021 0.77336 0.0
H975 H 0.06566 0.50187 0.73864 0.0
H976 H 0.08744 0.52306 0.69633 0.0
H977 H 0.12748 0.56487 0.67129 0.0
H978 H 0.17983 0.6523 0.7071 0.0
H979 H 0.15042 0.6333 0.74693 0.0
C980 C 0.10875 0.57571 0.7564 0.0
C981 C 0.08922 0.54447 0.75922 0.0
C982 C 0.12244 0.5878 0.73244 0.0
C983 C 0.08056 0.52601 0.73703 0.0
C984 C 0.09334 0.53806 0.71287 0.0
C985 C 0.1319 0.57994 0.68759 0.0
C986 C 0.15604 0.60983 0.68642 0.0
C987 C 0.11535 0.56865 0.71063 0.0
C988 C 0.16168 0.62907 0.70774 0.0
C989 C 0.14484 0.61823 0.73047 0.0
H990 H 0.54547 0.11414 0.94546 0.0
H991 H 0.59418 0.07152 0.91733 0.0
H992 H 0.60098 0.09602 0.87538 0.0
H993 H 0.59985 0.13525 0.84918 0.0
H994 H 0.5531 0.17971 0.87774 0.0
H995 H 0.5395 0.14938 0.91725 0.0
C996 C 0.55721 0.1099 0.93001 0.0
C997 C 0.56953 0.09124 0.93469 0.0
C998 C 0.56207 0.12497 0.90622 0.0
C999 C 0.58421 0.08553 0.91431 0.0
C1000 C 0.58849 0.09988 0.89037 0.0
C1001 C 0.58606 0.13784 0.86373 0.0
C1002 C 0.57785 0.16003 0.8606 0.0
C1003 C 0.57849 0.12048 0.88646 0.0
C1004 C 0.56027 0.16326 0.87987 0.0
C1005 C 0.55234 0.1458 0.90241 0.0
H1006 H 0.533 0.58804 0.07848 0.0
H1007 H 0.44694 0.52284 0.11025 0.0
H1008 H 0.42203 0.52255 0.06958 0.0
H1009 H 0.42424 0.54612 0.02745 0.0
H1010 H 0.51033 0.6155 -0.00178 0.0
H1011 H 0.53569 0.60832 0.03497 0.0
C1012 C 0.50894 0.573 0.0761 0.0
C1013 C 0.49178 0.5553 0.0971 0.0
C1014 C 0.49472 0.57407 0.05321 0.0
C1015 C 0.46053 0.53644 0.09415 0.0
C1016 C 0.44631 0.53652 0.07103 0.0
C1017 C 0.44855 0.55963 0.02906 0.0
C1018 C 0.46518 0.58148 0.01005 0.0
C1019 C 0.46305 0.55618 0.05083 0.0
C1020 C 0.4968 0.59825 0.01226 0.0
C1021 C 0.51141 0.59437 0.03345 0.0
H1022 H 0.96029 0.53504 0.24706 0.0
H1023 H 0.93987 0.45 0.28082 0.0
H1024 H 0.91031 0.42329 0.24243 0.0
H1025 H 0.88509 0.42393 0.20195 0.0
H1026 H 0.90451 0.50921 0.16912 0.0
H1027 H 0.93954 0.53601 0.20446 0.0
C1028 C 0.95017 0.51075 0.24562 0.0
C1029 C 0.95226 0.49449 0.26666 0.0
C1030 C 0.93244 0.49555 0.22393 0.0
C1031 C 0.93853 0.46295 0.2648 0.0
C1032 C 0.92147 0.44769 0.24296 0.0
C1033 C 0.89741 0.44838 0.20229 0.0
C1034 C 0.89178 0.4645 0.18316 0.0
C1035 C 0.91741 0.4637 0.22282 0.0
C1036 C 0.90786 0.49621 0.18394 0.0
C1037 C 0.92806 0.51159 0.20405 0.0
loop_
_geom_bond_atom_site_label_1
_geom_bond_atom_site_label_2
_geom_bond_distance
_geom_bond_site_symmetry_2
_ccdc_geom_bond_type
H0 C8 0.930 . S
H1 C11 0.945 . S
H2 C13 0.930 . S
H3 C14 0.970 . S
H4 C14 0.970 . S
H5 C16 0.930 . S
H6 C18 0.930 . S
H7 C20 0.930 . S
C8 H0 0.930 . S
C8 C9 1.382 . S
C8 C10 1.426 . S
C9 C8 1.382 . S
C9 C13 1.389 . S
C10 C8 1.426 . S
C10 C11 1.375 . S
C10 C14 1.532 1_655 S
C11 H1 0.945 . S
C11 C10 1.375 . S
C11 C12 1.416 . S
C12 C11 1.416 . S
C12 C13 1.371 . S
C13 H2 0.930 . S
C13 C9 1.389 . S
C13 C12 1.371 . S
C14 H3 0.970 . S
C14 H4 0.970 . S
C14 C10 1.532 1_455 S
C14 C15 1.499 . S
C15 C14 1.499 . S
C15 C16 1.370 . S
C15 C20 1.415 . S
C16 H5 0.930 . S
C16 C15 1.370 . S
C16 C17 1.407 . S
C17 C16 1.407 . S
C17 C18 1.365 . S
C18 H6 0.930 . S
C18 C17 1.365 . S
C18 C19 1.393 . S
C19 C18 1.393 . S
C19 C20 1.387 . S
C20 H7 0.930 . S
C20 C15 1.415 . S
C20 C19 1.387 . S
H21 C29 0.930 . S
H22 C32 0.953 . S
H23 C34 0.930 . S
H24 C35 0.970 . S
H25 C35 0.970 . S
H26 C37 0.930 . S
H27 C39 0.930 . S
H28 C41 0.930 . S
C29 H21 0.930 . S
C29 C30 1.382 . S
C29 C31 1.426 . S
C30 C29 1.382 . S
C30 C34 1.389 . S
C31 C29 1.426 . S
C31 C32 1.375 . S
C31 C35 1.532 1_565 S
C32 H22 0.953 . S
C32 C31 1.375 . S
C32 C33 1.416 . S
C33 C32 1.416 . S
C33 C34 1.371 . S
C34 H23 0.930 . S
C34 C30 1.389 . S
C34 C33 1.371 . S
C35 H24 0.970 . S
C35 H25 0.970 . S
C35 C31 1.532 1_545 S
C35 C36 1.499 . S
C36 C35 1.499 . S
C36 C37 1.370 . S
C36 C41 1.415 . S
C37 H26 0.930 . S
C37 C36 1.370 . S
C37 C38 1.407 . S
C38 C37 1.407 . S
C38 C39 1.365 . S
C39 H27 0.930 . S
C39 C38 1.365 . S
C39 C40 1.393 . S
C40 C39 1.393 . S
C40 C41 1.387 . S
C41 H28 0.930 . S
C41 C36 1.415 . S
C41 C40 1.387 . S
H42 C50 0.930 . S
H43 C53 0.930 . S
H44 C55 0.930 . S
H45 C56 0.970 . S
H46 C56 0.970 . S
H47 C58 0.930 . S
H48 C60 0.930 . S
H49 C62 0.930 . S
C50 H42 0.930 . S
C50 C51 1.382 . S
C50 C52 1.426 . S
C51 C50 1.382 . S
C51 C55 1.389 . S
C52 C50 1.426 . S
C52 C53 1.375 . S
C52 C56 1.532 . S
C53 H43 0.930 . S
C53 C52 1.375 . S
C53 C54 1.416 . S
C54 C53 1.416 . S
C54 C55 1.371 . S
C55 H44 0.930 . S
C55 C51 1.389 . S
C55 C54 1.371 . S
C56 H45 0.970 . S
C56 H46 0.970 . S
C56 C52 1.532 . S
C56 C57 1.499 . S
C57 C56 1.499 . S
C57 C58 1.370 . S
C57 C62 1.415 . S
C58 H47 0.930 . S
C58 C57 1.370 . S
C58 C59 1.407 . S
C59 C58 1.407 . S
C59 C60 1.365 . S
C60 H48 0.930 . S
C60 C59 1.365 . S
C60 C61 1.393 . S
C61 C60 1.393 . S
C61 C62 1.387 . S
C62 H49 0.930 . S
C62 C57 1.415 . S
C62 C61 1.387 . S
H63 C71 0.930 . S
H64 C74 0.950 . S
H65 C76 0.930 . S
H66 C77 0.970 . S
H67 C77 0.970 . S
H68 C79 0.930 . S
H69 C81 0.930 . S
H70 C83 0.930 . S
C71 H63 0.930 . S
C71 C72 1.382 . S
C71 C73 1.426 . S
C72 C71 1.382 . S
C72 C76 1.389 . S
C73 C71 1.426 . S
C73 C74 1.375 . S
C73 C77 1.532 1_655 S
C74 H64 0.950 . S
C74 C73 1.375 . S
C74 C75 1.416 . S
C75 C74 1.416 . S
C75 C76 1.371 . S
C76 H65 0.930 . S
C76 C72 1.389 . S
C76 C75 1.371 . S
C77 H66 0.970 . S
C77 H67 0.970 . S
C77 C73 1.532 1_455 S
C77 C78 1.499 . S
C78 C77 1.499 . S
C78 C79 1.370 . S
C78 C83 1.415 . S
C79 H68 0.930 . S
C79 C78 1.370 . S
C79 C80 1.407 . S
C80 C79 1.407 . S
C80 C81 1.365 . S
C81 H69 0.930 . S
C81 C80 1.365 . S
C81 C82 1.393 . S
C82 C81 1.393 . S
C82 C83 1.387 . S
C83 H70 0.930 . S
C83 C78 1.415 . S
C83 C82 1.387 . S
H84 C92 0.930 . S
H85 C95 0.930 . S
H86 C97 0.930 . S
H87 C98 0.970 1_554 S
H88 C98 0.970 . S
H89 C100 0.952 . S
H90 C102 0.930 . S
H91 C104 0.930 . S
C92 H84 0.930 . S
C92 C93 1.382 . S
C92 C94 1.426 1_554 S
C93 C92 1.382 . S
C93 C97 1.389 1_554 S
C94 C92 1.426 1_556 S
C94 C95 1.375 . S
C94 C98 1.532 . S
C95 H85 0.930 . S
C95 C94 1.375 . S
C95 C96 1.416 . S
C96 C95 1.416 . S
C96 C97 1.371 . S
C97 H86 0.930 . S
C97 C93 1.389 1_556 S
C97 C96 1.371 . S
C98 H87 0.970 1_556 S
C98 H88 0.970 . S
C98 C94 1.532 . S
C98 C99 1.499 1_546 S
C99 C98 1.499 1_564 S
C99 C100 1.370 . S
C99 C104 1.415 1_554 S
C100 H89 0.952 . S
C100 C99 1.370 . S
C100 C101 1.407 . S
C101 C100 1.407 . S
C101 C102 1.365 . S
C102 H90 0.930 . S
C102 C101 1.365 . S
C102 C103 1.393 1_554 S
C103 C102 1.393 1_556 S
C103 C104 1.387 . S
C104 H91 0.930 . S
C104 C99 1.415 1_556 S
C104 C103 1.387 . S
H105 C113 0.930 . S
H106 C116 0.930 . S
H107 C118 0.930 . S
H108 C119 0.970 . S
H109 C119 0.970 . S
H110 C121 0.930 . S
H111 C123 0.930 . S
H112 C125 0.930 . S
C113 H105 0.930 . S
C113 C114 1.382 . S
C113 C115 1.426 . S
C114 C113 1.382 . S
C114 C118 1.389 . S
C115 C113 1.426 . S
C115 C116 1.375 . S
C115 C119 1.532 . S
C116 H106 0.930 . S
C116 C115 1.375 . S
C116 C117 1.416 . S
C117 C116 1.416 . S
C117 C118 1.371 . S
C118 H107 0.930 . S
C118 C114 1.389 . S
C118 C117 1.371 . S
C119 H108 0.970 . S
C119 H109 0.970 . S
C119 C115 1.532 . S
C119 C120 1.499 . S
C120 C119 1.499 . S
C120 C121 1.370 . S
C120 C125 1.415 . S
C121 H110 0.930 . S
C121 C120 1.370 . S
C121 C122 1.407 . S
C122 C121 1.407 . S
C122 C123 1.365 . S
C123 H111 0.930 . S
C123 C122 1.365 . S
C123 C124 1.393 . S
C124 C123 1.393 . S
C124 C125 1.387 . S
C125 H112 0.930 . S
C125 C120 1.415 . S
C125 C124 1.387 . S
Li126 N143 1.990 . S
Li126 O186 1.956 . S
Li126 O187 1.970 . S
Li126 O188 1.961 . S
Li127 N151 1.990 . S
Li127 O186 1.970 . S
Li127 O187 1.956 . S
Li127 O189 1.961 . S
Li128 N173 1.990 . S
Li128 O186 1.961 . S
Li128 O188 1.956 . S
Li128 O189 1.970 . S
Li129 N179 1.990 . S
Li129 O187 1.961 . S
Li129 O188 1.970 . S
Li129 O189 1.956 . S
C130 C132 1.348 . S
C130 C133 1.356 . S
C130 O186 1.325 . S
N131 C134 1.314 . S
N131 C135 1.279 . S
C132 C130 1.348 . S
C132 C134 1.353 . S
C132 H190 0.929 . S
C133 C130 1.356 . S
C133 C135 1.358 . S
C133 H191 0.930 . S
C134 N131 1.314 . S
C134 C132 1.353 . S
C134 H192 0.930 . S
C135 N131 1.279 . S
C135 C133 1.358 . S
C135 H193 0.930 . S
C136 C139 1.348 . S
C136 C140 1.356 . S
C136 O187 1.325 . S
C137 N138 1.279 . S
C137 C140 1.358 . S
C137 H194 0.930 . S
N138 C137 1.279 . S
N138 C141 1.314 . S
C139 C136 1.348 . S
C139 C141 1.353 . S
C139 H195 0.929 . S
C140 C136 1.356 . S
C140 C137 1.358 . S
C140 H196 0.930 . S
C141 N138 1.314 . S
C141 C139 1.353 . S
C141 H197 0.930 . S
C142 N143 1.314 . S
C142 C147 1.353 . S
C142 H148 0.930 . S
N143 Li126 1.990 . S
N143 C142 1.314 . S
N143 C145 1.279 . S
C144 C145 1.358 . S
C144 C146 1.356 . S
C144 H198 0.930 . S
C145 N143 1.279 . S
C145 C144 1.358 . S
C145 H149 0.930 . S
C146 C144 1.356 . S
C146 C147 1.348 . S
C147 C142 1.353 . S
C147 C146 1.348 . S
C147 H199 0.929 . S
H148 C142 0.930 . S
H149 C145 0.930 . S
C150 N151 1.314 . S
C150 C152 1.353 . S
C150 H156 0.930 . S
N151 Li127 1.990 . S
N151 C150 1.314 . S
N151 C154 1.279 . S
C152 C150 1.353 . S
C152 C155 1.348 . S
C152 H200 0.929 . S
C153 C154 1.358 . S
C153 C155 1.356 . S
C153 H201 0.930 . S
C154 N151 1.279 . S
C154 C153 1.358 . S
C154 H157 0.930 . S
C155 C152 1.348 . S
C155 C153 1.356 . S
H156 C150 0.930 . S
H157 C154 0.930 . S
C158 C160 1.348 . S
C158 C161 1.356 . S
C158 O188 1.325 . S
N159 C162 1.314 . S
N159 C163 1.279 . S
C160 C158 1.348 . S
C160 C162 1.353 . S
C160 H202 0.929 . S
C161 C158 1.356 . S
C161 C163 1.358 . S
C161 H203 0.930 . S
C162 N159 1.314 . S
C162 C160 1.353 . S
C162 H204 0.930 . S
C163 N159 1.279 . S
C163 C161 1.358 . S
C163 H205 0.930 . S
C164 C165 1.348 . S
C164 C166 1.356 . S
C164 O189 1.325 . S
C165 C164 1.348 . S
C165 C167 1.353 . S
C165 H206 0.929 . S
C166 C164 1.356 . S
C166 C168 1.358 . S
C166 H207 0.930 . S
C167 C165 1.353 . S
C167 N169 1.314 . S
C167 H208 0.930 . S
C168 C166 1.358 . S
C168 N169 1.279 . S
C168 H209 0.930 . S
N169 C167 1.314 . S
N169 C168 1.279 . S
C170 C172 1.353 . S
C170 N173 1.314 . S
C170 H176 0.930 . S
C171 N173 1.279 . S
C171 C174 1.358 . S
C171 H177 0.930 . S
C172 C170 1.353 . S
C172 C175 1.348 . S
C172 H210 0.929 . S
N173 Li128 1.990 . S
N173 C170 1.314 . S
N173 C171 1.279 . S
C174 C171 1.358 . S
C174 C175 1.356 . S
C174 H211 0.930 . S
C175 C172 1.348 . S
C175 C174 1.356 . S
H176 C170 0.930 . S
H177 C171 0.930 . S
C178 N179 1.314 . S
C178 C180 1.353 . S
C178 H184 0.930 . S
N179 Li129 1.990 . S
N179 C178 1.314 . S
N179 C182 1.279 . S
C180 C178 1.353 . S
C180 C183 1.348 . S
C180 H212 0.929 . S
C181 C182 1.358 . S
C181 C183 1.356 . S
C181 H213 0.930 . S
C182 N179 1.279 . S
C182 C181 1.358 . S
C182 H185 0.930 . S
C183 C180 1.348 . S
C183 C181 1.356 . S
H184 C178 0.930 . S
H185 C182 0.930 . S
O186 Li126 1.956 . S
O186 Li127 1.970 . S
O186 Li128 1.961 . S
O186 C130 1.325 . S
O187 Li126 1.970 . S
O187 Li127 1.956 . S
O187 Li129 1.961 . S
O187 C136 1.325 . S
O188 Li126 1.961 . S
O188 Li128 1.956 . S
O188 Li129 1.970 . S
O188 C158 1.325 . S
O189 Li127 1.961 . S
O189 Li128 1.970 . S
O189 Li129 1.956 . S
O189 C164 1.325 . S
H190 C132 0.929 . S
H191 C133 0.930 . S
H192 C134 0.930 . S
H193 C135 0.930 . S
H194 C137 0.930 . S
H195 C139 0.929 . S
H196 C140 0.930 . S
H197 C141 0.930 . S
H198 C144 0.930 . S
H199 C147 0.929 . S
H200 C152 0.929 . S
H201 C153 0.930 . S
H202 C160 0.929 . S
H203 C161 0.930 . S
H204 C162 0.930 . S
H205 C163 0.930 . S
H206 C165 0.929 . S
H207 C166 0.930 . S
H208 C167 0.930 . S
H209 C168 0.930 . S
H210 C172 0.929 . S
H211 C174 0.930 . S
H212 C180 0.929 . S
H213 C181 0.930 . S
Li214 N231 1.990 . S
Li214 O274 1.956 . S
Li214 O275 1.970 . S
Li214 O276 1.961 . S
Li215 N239 1.990 . S
Li215 O274 1.970 . S
Li215 O275 1.956 . S
Li215 O277 1.961 . S
Li216 N261 1.990 . S
Li216 O274 1.961 . S
Li216 O276 1.956 . S
Li216 O277 1.970 . S
Li217 N267 1.990 . S
Li217 O275 1.961 . S
Li217 O276 1.970 . S
Li217 O277 1.956 . S
C218 C220 1.348 . S
C218 C221 1.356 . S
C218 O274 1.325 . S
N219 C222 1.314 . S
N219 C223 1.279 . S
C220 C218 1.348 . S
C220 C222 1.353 . S
C220 H278 0.929 . S
C221 C218 1.356 . S
C221 C223 1.358 . S
C221 H279 0.930 . S
C222 N219 1.314 . S
C222 C220 1.353 . S
C222 H280 0.930 . S
C223 N219 1.279 . S
C223 C221 1.358 . S
C223 H281 0.930 . S
C224 C227 1.348 . S
C224 C228 1.356 . S
C224 O275 1.325 . S
C225 N226 1.279 . S
C225 C228 1.358 . S
C225 H282 0.930 . S
N226 C225 1.279 . S
N226 C229 1.314 . S
C227 C224 1.348 . S
C227 C229 1.353 . S
C227 H283 0.929 . S
C228 C224 1.356 . S
C228 C225 1.358 . S
C228 H284 0.930 . S
C229 N226 1.314 . S
C229 C227 1.353 . S
C229 H285 0.930 . S
C230 N231 1.314 . S
C230 C235 1.353 . S
C230 H236 0.930 . S
N231 Li214 1.990 . S
N231 C230 1.314 . S
N231 C233 1.279 . S
C232 C233 1.358 . S
C232 C234 1.356 . S
C232 H286 0.930 . S
C233 N231 1.279 . S
C233 C232 1.358 . S
C233 H237 0.930 . S
C234 C232 1.356 . S
C234 C235 1.348 . S
C235 C230 1.353 . S
C235 C234 1.348 . S
C235 H287 0.929 . S
H236 C230 0.930 . S
H237 C233 0.930 . S
C238 N239 1.314 . S
C238 C240 1.353 . S
C238 H244 0.930 . S
N239 Li215 1.990 . S
N239 C238 1.314 . S
N239 C242 1.279 . S
C240 C238 1.353 . S
C240 C243 1.348 . S
C240 H288 0.929 . S
C241 C242 1.358 . S
C241 C243 1.356 . S
C241 H289 0.930 . S
C242 N239 1.279 . S
C242 C241 1.358 . S
C242 H245 0.930 . S
C243 C240 1.348 . S
C243 C241 1.356 . S
H244 C238 0.930 . S
H245 C242 0.930 . S
C246 C248 1.348 . S
C246 C249 1.356 . S
C246 O276 1.325 . S
N247 C250 1.314 . S
N247 C251 1.279 . S
C248 C246 1.348 . S
C248 C250 1.353 . S
C248 H290 0.929 . S
C249 C246 1.356 . S
C249 C251 1.358 . S
C249 H291 0.930 . S
C250 N247 1.314 . S
C250 C248 1.353 . S
C250 H292 0.930 . S
C251 N247 1.279 . S
C251 C249 1.358 . S
C251 H293 0.930 . S
C252 C253 1.348 . S
C252 C254 1.356 . S
C252 O277 1.325 . S
C253 C252 1.348 . S
C253 C255 1.353 . S
C253 H294 0.929 . S
C254 C252 1.356 . S
C254 C256 1.358 . S
C254 H295 0.930 . S
C255 C253 1.353 . S
C255 N257 1.314 . S
C255 H296 0.930 . S
C256 C254 1.358 . S
C256 N257 1.279 . S
C256 H297 0.930 . S
N257 C255 1.314 . S
N257 C256 1.279 . S
C258 C260 1.353 . S
C258 N261 1.314 . S
C258 H264 0.930 . S
C259 N261 1.279 . S
C259 C262 1.358 . S
C259 H265 0.930 . S
C260 C258 1.353 . S
C260 C263 1.348 . S
C260 H298 0.929 . S
N261 Li216 1.990 . S
N261 C258 1.314 . S
N261 C259 1.279 . S
C262 C259 1.358 . S
C262 C263 1.356 . S
C262 H299 0.930 . S
C263 C260 1.348 . S
C263 C262 1.356 . S
H264 C258 0.930 . S
H265 C259 0.930 . S
C266 N267 1.314 . S
C266 C268 1.353 . S
C266 H272 0.930 . S
N267 Li217 1.990 . S
N267 C266 1.314 . S
N267 C270 1.279 . S
C268 C266 1.353 . S
C268 C271 1.348 . S
C268 H300 0.929 . S
C269 C270 1.358 . S
C269 C271 1.356 . S
C269 H301 0.930 . S
C270 N267 1.279 . S
C270 C269 1.358 . S
C270 H273 0.930 . S
C271 C268 1.348 . S
C271 C269 1.356 . S
H272 C266 0.930 . S
H273 C270 0.930 . S
O274 Li214 1.956 . S
O274 Li215 1.970 . S
O274 Li216 1.961 . S
O274 C218 1.325 . S
O275 Li214 1.970 . S
O275 Li215 1.956 . S
O275 Li217 1.961 . S
O275 C224 1.325 . S
O276 Li214 1.961 . S
O276 Li216 1.956 . S
O276 Li217 1.970 . S
O276 C246 1.325 . S
O277 Li215 1.961 . S
O277 Li216 1.970 . S
O277 Li217 1.956 . S
O277 C252 1.325 . S
H278 C220 0.929 . S
H279 C221 0.930 . S
H280 C222 0.930 . S
H281 C223 0.930 . S
H282 C225 0.930 . S
H283 C227 0.929 . S
H284 C228 0.930 . S
H285 C229 0.930 . S
H286 C232 0.930 . S
H287 C235 0.929 . S
H288 C240 0.929 . S
H289 C241 0.930 . S
H290 C248 0.929 . S
H291 C249 0.930 . S
H292 C250 0.930 . S
H293 C251 0.930 . S
H294 C253 0.929 . S
H295 C254 0.930 . S
H296 C255 0.930 . S
H297 C256 0.930 . S
H298 C260 0.929 . S
H299 C262 0.930 . S
H300 C268 0.929 . S
H301 C269 0.930 . S
Li302 N319 1.990 . S
Li302 O362 1.956 . S
Li302 O363 1.970 . S
Li302 O364 1.961 . S
Li303 N327 1.990 . S
Li303 O362 1.970 . S
Li303 O363 1.956 . S
Li303 O365 1.961 . S
Li304 N349 1.990 . S
Li304 O362 1.961 . S
Li304 O364 1.956 . S
Li304 O365 1.970 . S
Li305 N355 1.990 . S
Li305 O363 1.961 . S
Li305 O364 1.970 . S
Li305 O365 1.956 . S
C306 C308 1.348 . S
C306 C309 1.356 . S
C306 O362 1.325 . S
N307 C310 1.314 . S
N307 C311 1.279 . S
C308 C306 1.348 . S
C308 C310 1.353 . S
C308 H366 0.929 . S
C309 C306 1.356 . S
C309 C311 1.358 . S
C309 H367 0.930 . S
C310 N307 1.314 . S
C310 C308 1.353 . S
C310 H368 0.930 . S
C311 N307 1.279 . S
C311 C309 1.358 . S
C311 H369 0.930 . S
C312 C315 1.348 . S
C312 C316 1.356 . S
C312 O363 1.325 . S
C313 N314 1.279 . S
C313 C316 1.358 . S
C313 H370 0.930 . S
N314 C313 1.279 . S
N314 C317 1.314 . S
C315 C312 1.348 . S
C315 C317 1.353 . S
C315 H371 0.929 . S
C316 C312 1.356 . S
C316 C313 1.358 . S
C316 H372 0.930 . S
C317 N314 1.314 . S
C317 C315 1.353 . S
C317 H373 0.930 . S
C318 N319 1.314 . S
C318 C323 1.353 . S
C318 H324 0.930 . S
N319 Li302 1.990 . S
N319 C318 1.314 . S
N319 C321 1.279 . S
C320 C321 1.358 . S
C320 C322 1.356 . S
C320 H374 0.930 . S
C321 N319 1.279 . S
C321 C320 1.358 . S
C321 H325 0.930 . S
C322 C320 1.356 . S
C322 C323 1.348 . S
C323 C318 1.353 . S
C323 C322 1.348 . S
C323 H375 0.929 . S
H324 C318 0.930 . S
H325 C321 0.930 . S
C326 N327 1.314 . S
C326 C328 1.353 . S
C326 H332 0.930 . S
N327 Li303 1.990 . S
N327 C326 1.314 . S
N327 C330 1.279 . S
C328 C326 1.353 . S
C328 C331 1.348 . S
C328 H376 0.929 . S
C329 C330 1.358 . S
C329 C331 1.356 . S
C329 H377 0.930 . S
C330 N327 1.279 . S
C330 C329 1.358 . S
C330 H333 0.930 . S
C331 C328 1.348 . S
C331 C329 1.356 . S
H332 C326 0.930 . S
H333 C330 0.930 . S
C334 C336 1.348 . S
C334 C337 1.356 . S
C334 O364 1.325 . S
N335 C338 1.314 . S
N335 C339 1.279 . S
C336 C334 1.348 . S
C336 C338 1.353 . S
C336 H378 0.929 . S
C337 C334 1.356 . S
C337 C339 1.358 . S
C337 H379 0.930 . S
C338 N335 1.314 . S
C338 C336 1.353 . S
C338 H380 0.930 . S
C339 N335 1.279 . S
C339 C337 1.358 . S
C339 H381 0.930 . S
C340 C341 1.348 . S
C340 C342 1.356 . S
C340 O365 1.325 . S
C341 C340 1.348 . S
C341 C343 1.353 . S
C341 H382 0.929 . S
C342 C340 1.356 . S
C342 C344 1.358 . S
C342 H383 0.930 . S
C343 C341 1.353 . S
C343 N345 1.314 . S
C343 H384 0.930 . S
C344 C342 1.358 . S
C344 N345 1.279 . S
C344 H385 0.930 . S
N345 C343 1.314 . S
N345 C344 1.279 . S
C346 C348 1.353 . S
C346 N349 1.314 . S
C346 H352 0.930 . S
C347 N349 1.279 . S
C347 C350 1.358 . S
C347 H353 0.930 . S
C348 C346 1.353 . S
C348 C351 1.348 . S
C348 H386 0.929 . S
N349 Li304 1.990 . S
N349 C346 1.314 . S
N349 C347 1.279 . S
C350 C347 1.358 . S
C350 C351 1.356 . S
C350 H387 0.930 . S
C351 C348 1.348 . S
C351 C350 1.356 . S
H352 C346 0.930 . S
H353 C347 0.930 . S
C354 N355 1.314 . S
C354 C356 1.353 . S
C354 H360 0.930 . S
N355 Li305 1.990 . S
N355 C354 1.314 . S
N355 C358 1.279 . S
C356 C354 1.353 . S
C356 C359 1.348 . S
C356 H388 0.929 . S
C357 C358 1.358 . S
C357 C359 1.356 . S
C357 H389 0.930 . S
C358 N355 1.279 . S
C358 C357 1.358 . S
C358 H361 0.930 . S
C359 C356 1.348 . S
C359 C357 1.356 . S
H360 C354 0.930 . S
H361 C358 0.930 . S
O362 Li302 1.956 . S
O362 Li303 1.970 . S
O362 Li304 1.961 . S
O362 C306 1.325 . S
O363 Li302 1.970 . S
O363 Li303 1.956 . S
O363 Li305 1.961 . S
O363 C312 1.325 . S
O364 Li302 1.961 . S
O364 Li304 1.956 . S
O364 Li305 1.970 . S
O364 C334 1.325 . S
O365 Li303 1.961 . S
O365 Li304 1.970 . S
O365 Li305 1.956 . S
O365 C340 1.325 . S
H366 C308 0.929 . S
H367 C309 0.930 . S
H368 C310 0.930 . S
H369 C311 0.930 . S
H370 C313 0.930 . S
H371 C315 0.929 . S
H372 C316 0.930 . S
H373 C317 0.930 . S
H374 C320 0.930 . S
H375 C323 0.929 . S
H376 C328 0.929 . S
H377 C329 0.930 . S
H378 C336 0.929 . S
H379 C337 0.930 . S
H380 C338 0.930 . S
H381 C339 0.930 . S
H382 C341 0.929 . S
H383 C342 0.930 . S
H384 C343 0.930 . S
H385 C344 0.930 . S
H386 C348 0.929 . S
H387 C350 0.930 . S
H388 C356 0.929 . S
H389 C357 0.930 . S
Li390 N407 1.990 . S
Li390 O450 1.956 . S
Li390 O451 1.970 . S
Li390 O452 1.961 . S
Li391 N415 1.990 . S
Li391 O450 1.970 . S
Li391 O451 1.956 . S
Li391 O453 1.961 . S
Li392 N437 1.990 . S
Li392 O450 1.961 . S
Li392 O452 1.956 . S
Li392 O453 1.970 . S
Li393 N443 1.990 . S
Li393 O451 1.961 . S
Li393 O452 1.970 . S
Li393 O453 1.956 . S
C394 C396 1.348 . S
C394 C397 1.356 . S
C394 O450 1.325 . S
N395 C398 1.314 1_554 S
N395 C399 1.279 1_554 S
C396 C394 1.348 . S
C396 C398 1.353 . S
C396 H454 0.929 . S
C397 C394 1.356 . S
C397 C399 1.358 . S
C397 H455 0.930 . S
C398 N395 1.314 1_556 S
C398 C396 1.353 . S
C398 H456 0.930 1_556 S
C399 N395 1.279 1_556 S
C399 C397 1.358 . S
C399 H457 0.929 1_556 S
C400 C403 1.348 . S
C400 C404 1.356 . S
C400 O451 1.325 . S
C401 N402 1.279 . S
C401 C404 1.358 . S
C401 H458 0.930 . S
N402 C401 1.279 . S
N402 C405 1.314 . S
C403 C400 1.348 . S
C403 C405 1.353 . S
C403 H459 0.929 . S
C404 C400 1.356 . S
C404 C401 1.358 . S
C404 H460 0.930 . S
C405 N402 1.314 . S
C405 C403 1.353 . S
C405 H461 0.930 . S
C406 N407 1.314 . S
C406 C411 1.353 . S
C406 H412 0.930 . S
N407 Li390 1.990 . S
N407 C406 1.314 . S
N407 C409 1.279 . S
C408 C409 1.358 1_554 S
C408 C410 1.356 . S
C408 H462 0.930 . S
C409 N407 1.279 . S
C409 C408 1.358 1_556 S
C409 H413 0.930 . S
C410 C408 1.356 . S
C410 C411 1.348 1_554 S
C411 C406 1.353 . S
C411 C410 1.348 1_556 S
C411 H463 0.929 . S
H412 C406 0.930 . S
H413 C409 0.930 . S
C414 N415 1.314 . S
C414 C416 1.353 . S
C414 H420 0.930 . S
N415 Li391 1.990 . S
N415 C414 1.314 . S
N415 C418 1.279 . S
C416 C414 1.353 . S
C416 C419 1.348 . S
C416 H464 0.929 . S
C417 C418 1.358 . S
C417 C419 1.356 . S
C417 H465 0.930 . S
C418 N415 1.279 . S
C418 C417 1.358 . S
C418 H421 0.930 . S
C419 C416 1.348 . S
C419 C417 1.356 . S
H420 C414 0.930 . S
H421 C418 0.930 . S
C422 C424 1.348 . S
C422 C425 1.356 . S
C422 O452 1.325 . S
N423 C426 1.314 . S
N423 C427 1.279 . S
C424 C422 1.348 . S
C424 C426 1.353 . S
C424 H466 0.929 . S
C425 C422 1.356 . S
C425 C427 1.358 . S
C425 H467 0.930 . S
C426 N423 1.314 . S
C426 C424 1.353 . S
C426 H468 0.930 . S
C427 N423 1.279 . S
C427 C425 1.358 . S
C427 H469 0.930 . S
C428 C429 1.348 . S
C428 C430 1.356 . S
C428 O453 1.325 . S
C429 C428 1.348 . S
C429 C431 1.353 . S
C429 H470 0.929 . S
C430 C428 1.356 . S
C430 C432 1.358 . S
C430 H471 0.930 . S
C431 C429 1.353 . S
C431 N433 1.314 . S
C431 H472 0.930 . S
C432 C430 1.358 . S
C432 N433 1.279 . S
C432 H473 0.930 . S
N433 C431 1.314 . S
N433 C432 1.279 . S
C434 C436 1.353 . S
C434 N437 1.314 . S
C434 H440 0.930 . S
C435 N437 1.279 . S
C435 C438 1.358 . S
C435 H441 0.930 . S
C436 C434 1.353 . S
C436 C439 1.348 . S
C436 H474 0.929 . S
N437 Li392 1.990 . S
N437 C434 1.314 . S
N437 C435 1.279 . S
C438 C435 1.358 . S
C438 C439 1.356 . S
C438 H475 0.930 . S
C439 C436 1.348 . S
C439 C438 1.356 . S
H440 C434 0.930 . S
H441 C435 0.930 . S
C442 N443 1.314 . S
C442 C444 1.353 . S
C442 H448 0.930 . S
N443 Li393 1.990 . S
N443 C442 1.314 . S
N443 C446 1.279 . S
C444 C442 1.353 . S
C444 C447 1.348 . S
C444 H476 0.929 . S
C445 C446 1.358 . S
C445 C447 1.356 . S
C445 H477 0.930 . S
C446 N443 1.279 . S
C446 C445 1.358 . S
C446 H449 0.930 . S
C447 C444 1.348 . S
C447 C445 1.356 . S
H448 C442 0.930 . S
H449 C446 0.930 . S
O450 Li390 1.956 . S
O450 Li391 1.970 . S
O450 Li392 1.961 . S
O450 C394 1.325 . S
O451 Li390 1.970 . S
O451 Li391 1.956 . S
O451 Li393 1.961 . S
O451 C400 1.325 . S
O452 Li390 1.961 . S
O452 Li392 1.956 . S
O452 Li393 1.970 . S
O452 C422 1.325 . S
O453 Li391 1.961 . S
O453 Li392 1.970 . S
O453 Li393 1.956 . S
O453 C428 1.325 . S
H454 C396 0.929 . S
H455 C397 0.930 . S
H456 C398 0.930 1_554 S
H457 C399 0.929 1_554 S
H458 C401 0.930 . S
H459 C403 0.929 . S
H460 C404 0.930 . S
H461 C405 0.930 . S
H462 C408 0.930 . S
H463 C411 0.929 . S
H464 C416 0.929 . S
H465 C417 0.930 . S
H466 C424 0.929 . S
H467 C425 0.930 . S
H468 C426 0.930 . S
H469 C427 0.930 . S
H470 C429 0.929 . S
H471 C430 0.930 . S
H472 C431 0.930 . S
H473 C432 0.930 . S
H474 C436 0.929 . S
H475 C438 0.930 . S
H476 C444 0.929 . S
H477 C445 0.930 . S
Li478 N495 1.990 . S
Li478 O538 1.956 . S
Li478 O539 1.970 . S
Li478 O540 1.961 . S
Li479 N503 1.990 . S
Li479 O538 1.970 . S
Li479 O539 1.956 . S
Li479 O541 1.961 . S
Li480 N525 1.990 . S
Li480 O538 1.961 . S
Li480 O540 1.956 . S
Li480 O541 1.970 . S
Li481 N531 1.990 . S
Li481 O539 1.961 . S
Li481 O540 1.970 . S
Li481 O541 1.956 . S
C482 C484 1.348 . S
C482 C485 1.356 . S
C482 O538 1.325 . S
N483 C486 1.314 . S
N483 C487 1.279 . S
C484 C482 1.348 . S
C484 C486 1.353 . S
C484 H542 0.929 . S
C485 C482 1.356 . S
C485 C487 1.358 . S
C485 H543 0.930 . S
C486 N483 1.314 . S
C486 C484 1.353 . S
C486 H544 0.930 . S
C487 N483 1.279 . S
C487 C485 1.358 . S
C487 H545 0.930 . S
C488 C491 1.348 . S
C488 C492 1.356 . S
C488 O539 1.325 . S
C489 N490 1.279 . S
C489 C492 1.358 . S
C489 H546 0.930 . S
N490 C489 1.279 . S
N490 C493 1.314 . S
C491 C488 1.348 . S
C491 C493 1.353 . S
C491 H547 0.929 . S
C492 C488 1.356 . S
C492 C489 1.358 . S
C492 H548 0.930 . S
C493 N490 1.314 . S
C493 C491 1.353 . S
C493 H549 0.930 . S
C494 N495 1.314 . S
C494 C499 1.353 . S
C494 H500 0.930 . S
N495 Li478 1.990 . S
N495 C494 1.314 . S
N495 C497 1.279 . S
C496 C497 1.358 . S
C496 C498 1.356 . S
C496 H550 0.930 . S
C497 N495 1.279 . S
C497 C496 1.358 . S
C497 H501 0.930 . S
C498 C496 1.356 . S
C498 C499 1.348 . S
C499 C494 1.353 . S
C499 C498 1.348 . S
C499 H551 0.929 . S
H500 C494 0.930 . S
H501 C497 0.930 . S
C502 N503 1.314 . S
C502 C504 1.353 . S
C502 H508 0.930 . S
N503 Li479 1.990 . S
N503 C502 1.314 . S
N503 C506 1.279 . S
C504 C502 1.353 . S
C504 C507 1.348 . S
C504 H552 0.929 . S
C505 C506 1.358 . S
C505 C507 1.356 . S
C505 H553 0.930 . S
C506 N503 1.279 . S
C506 C505 1.358 . S
C506 H509 0.930 . S
C507 C504 1.348 . S
C507 C505 1.356 . S
H508 C502 0.930 . S
H509 C506 0.930 . S
C510 C512 1.348 . S
C510 C513 1.356 . S
C510 O540 1.325 . S
N511 C514 1.314 . S
N511 C515 1.279 . S
C512 C510 1.348 . S
C512 C514 1.353 1_554 S
C512 H554 0.929 . S
C513 C510 1.356 . S
C513 C515 1.358 1_554 S
C513 H555 0.930 . S
C514 N511 1.314 . S
C514 C512 1.353 1_556 S
C514 H556 0.930 . S
C515 N511 1.279 . S
C515 C513 1.358 1_556 S
C515 H557 0.930 . S
C516 C517 1.348 . S
C516 C518 1.356 . S
C516 O541 1.325 . S
C517 C516 1.348 . S
C517 C519 1.353 . S
C517 H558 0.929 . S
C518 C516 1.356 . S
C518 C520 1.358 . S
C518 H559 0.930 . S
C519 C517 1.353 . S
C519 N521 1.314 . S
C519 H560 0.930 . S
C520 C518 1.358 . S
C520 N521 1.279 . S
C520 H561 0.930 . S
N521 C519 1.314 . S
N521 C520 1.279 . S
C522 C524 1.353 . S
C522 N525 1.314 . S
C522 H528 0.930 . S
C523 N525 1.279 1_556 S
C523 C526 1.358 . S
C523 H529 0.930 . S
C524 C522 1.353 . S
C524 C527 1.348 1_554 S
C524 H562 0.929 . S
N525 Li480 1.990 . S
N525 C522 1.314 . S
N525 C523 1.279 1_554 S
C526 C523 1.358 . S
C526 C527 1.356 . S
C526 H563 0.930 . S
C527 C524 1.348 1_556 S
C527 C526 1.356 . S
H528 C522 0.930 . S
H529 C523 0.930 . S
C530 N531 1.314 . S
C530 C532 1.353 . S
C530 H536 0.930 . S
N531 Li481 1.990 . S
N531 C530 1.314 . S
N531 C534 1.279 . S
C532 C530 1.353 . S
C532 C535 1.348 . S
C532 H564 0.929 . S
C533 C534 1.358 . S
C533 C535 1.356 . S
C533 H565 0.930 . S
C534 N531 1.279 . S
C534 C533 1.358 . S
C534 H537 0.930 . S
C535 C532 1.348 . S
C535 C533 1.356 . S
H536 C530 0.930 . S
H537 C534 0.930 . S
O538 Li478 1.956 . S
O538 Li479 1.970 . S
O538 Li480 1.961 . S
O538 C482 1.325 . S
O539 Li478 1.970 . S
O539 Li479 1.956 . S
O539 Li481 1.961 . S
O539 C488 1.325 . S
O540 Li478 1.961 . S
O540 Li480 1.956 . S
O540 Li481 1.970 . S
O540 C510 1.325 . S
O541 Li479 1.961 . S
O541 Li480 1.970 . S
O541 Li481 1.956 . S
O541 C516 1.325 . S
H542 C484 0.929 . S
H543 C485 0.930 . S
H544 C486 0.930 . S
H545 C487 0.930 . S
H546 C489 0.930 . S
H547 C491 0.929 . S
H548 C492 0.930 . S
H549 C493 0.930 . S
H550 C496 0.930 . S
H551 C499 0.929 . S
H552 C504 0.929 . S
H553 C505 0.930 . S
H554 C512 0.929 . S
H555 C513 0.930 . S
H556 C514 0.930 . S
H557 C515 0.930 . S
H558 C517 0.929 . S
H559 C518 0.930 . S
H560 C519 0.930 . S
H561 C520 0.930 . S
H562 C524 0.929 . S
H563 C526 0.930 . S
H564 C532 0.929 . S
H565 C533 0.930 . S
Li566 N583 1.990 . S
Li566 O626 1.956 . S
Li566 O627 1.970 . S
Li566 O628 1.961 . S
Li567 N591 1.990 . S
Li567 O626 1.970 . S
Li567 O627 1.956 . S
Li567 O629 1.961 . S
Li568 N613 1.990 . S
Li568 O626 1.961 . S
Li568 O628 1.956 . S
Li568 O629 1.970 . S
Li569 N619 1.990 . S
Li569 O627 1.961 . S
Li569 O628 1.970 . S
Li569 O629 1.956 . S
C570 C572 1.348 . S
C570 C573 1.356 . S
C570 O626 1.325 . S
N571 C574 1.314 . S
N571 C575 1.279 . S
C572 C570 1.348 . S
C572 C574 1.353 . S
C572 H630 0.929 . S
C573 C570 1.356 . S
C573 C575 1.358 . S
C573 H631 0.930 . S
C574 N571 1.314 . S
C574 C572 1.353 . S
C574 H632 0.930 . S
C575 N571 1.279 . S
C575 C573 1.358 . S
C575 H633 0.930 . S
C576 C579 1.348 . S
C576 C580 1.356 . S
C576 O627 1.325 . S
C577 N578 1.279 . S
C577 C580 1.358 . S
C577 H634 0.930 . S
N578 C577 1.279 . S
N578 C581 1.314 . S
C579 C576 1.348 . S
C579 C581 1.353 . S
C579 H635 0.929 . S
C580 C576 1.356 . S
C580 C577 1.358 . S
C580 H636 0.930 . S
C581 N578 1.314 . S
C581 C579 1.353 . S
C581 H637 0.930 . S
C582 N583 1.314 . S
C582 C587 1.353 . S
C582 H588 0.930 . S
N583 Li566 1.990 . S
N583 C582 1.314 . S
N583 C585 1.279 . S
C584 C585 1.358 . S
C584 C586 1.356 . S
C584 H638 0.930 . S
C585 N583 1.279 . S
C585 C584 1.358 . S
C585 H589 0.930 . S
C586 C584 1.356 . S
C586 C587 1.348 . S
C587 C582 1.353 . S
C587 C586 1.348 . S
C587 H639 0.929 . S
H588 C582 0.930 . S
H589 C585 0.930 . S
C590 N591 1.314 . S
C590 C592 1.353 . S
C590 H596 0.930 . S
N591 Li567 1.990 . S
N591 C590 1.314 . S
N591 C594 1.279 . S
C592 C590 1.353 . S
C592 C595 1.348 . S
C592 H640 0.929 . S
C593 C594 1.358 . S
C593 C595 1.356 . S
C593 H641 0.930 . S
C594 N591 1.279 . S
C594 C593 1.358 . S
C594 H597 0.930 . S
C595 C592 1.348 . S
C595 C593 1.356 . S
H596 C590 0.930 . S
H597 C594 0.930 . S
C598 C600 1.348 . S
C598 C601 1.356 . S
C598 O628 1.325 . S
N599 C602 1.314 . S
N599 C603 1.279 . S
C600 C598 1.348 . S
C600 C602 1.353 . S
C600 H642 0.929 . S
C601 C598 1.356 . S
C601 C603 1.358 . S
C601 H643 0.930 . S
C602 N599 1.314 . S
C602 C600 1.353 . S
C602 H644 0.930 . S
C603 N599 1.279 . S
C603 C601 1.358 . S
C603 H645 0.930 . S
C604 C605 1.348 . S
C604 C606 1.356 . S
C604 O629 1.325 . S
C605 C604 1.348 . S
C605 C607 1.353 . S
C605 H646 0.929 . S
C606 C604 1.356 . S
C606 C608 1.358 . S
C606 H647 0.930 . S
C607 C605 1.353 . S
C607 N609 1.314 . S
C607 H648 0.930 . S
C608 C606 1.358 . S
C608 N609 1.279 . S
C608 H649 0.930 . S
N609 C607 1.314 . S
N609 C608 1.279 . S
C610 C612 1.353 . S
C610 N613 1.314 . S
C610 H616 0.930 . S
C611 N613 1.279 . S
C611 C614 1.358 . S
C611 H617 0.930 . S
C612 C610 1.353 . S
C612 C615 1.348 . S
C612 H650 0.929 . S
N613 Li568 1.990 . S
N613 C610 1.314 . S
N613 C611 1.279 . S
C614 C611 1.358 . S
C614 C615 1.356 . S
C614 H651 0.930 . S
C615 C612 1.348 . S
C615 C614 1.356 . S
H616 C610 0.930 . S
H617 C611 0.930 . S
C618 N619 1.314 . S
C618 C620 1.353 . S
C618 H624 0.930 . S
N619 Li569 1.990 . S
N619 C618 1.314 . S
N619 C622 1.279 . S
C620 C618 1.353 . S
C620 C623 1.348 . S
C620 H652 0.929 . S
C621 C622 1.358 . S
C621 C623 1.356 . S
C621 H653 0.930 . S
C622 N619 1.279 . S
C622 C621 1.358 . S
C622 H625 0.930 . S
C623 C620 1.348 . S
C623 C621 1.356 . S
H624 C618 0.930 . S
H625 C622 0.930 . S
O626 Li566 1.956 . S
O626 Li567 1.970 . S
O626 Li568 1.961 . S
O626 C570 1.325 . S
O627 Li566 1.970 . S
O627 Li567 1.956 . S
O627 Li569 1.961 . S
O627 C576 1.325 . S
O628 Li566 1.961 . S
O628 Li568 1.956 . S
O628 Li569 1.970 . S
O628 C598 1.325 . S
O629 Li567 1.961 . S
O629 Li568 1.970 . S
O629 Li569 1.956 . S
O629 C604 1.325 . S
H630 C572 0.929 . S
H631 C573 0.930 . S
H632 C574 0.930 . S
H633 C575 0.930 . S
H634 C577 0.930 . S
H635 C579 0.929 . S
H636 C580 0.930 . S
H637 C581 0.930 . S
H638 C584 0.930 . S
H639 C587 0.929 . S
H640 C592 0.929 . S
H641 C593 0.930 . S
H642 C600 0.929 . S
H643 C601 0.930 . S
H644 C602 0.930 . S
H645 C603 0.930 . S
H646 C605 0.929 . S
H647 C606 0.930 . S
H648 C607 0.930 . S
H649 C608 0.930 . S
H650 C612 0.929 . S
H651 C614 0.930 . S
H652 C620 0.929 . S
H653 C621 0.930 . S
H654 C660 0.930 . S
H655 C663 0.930 . S
H656 C664 0.930 . S
H657 C665 0.930 . S
H658 C668 0.930 . S
H659 C669 0.930 . S
C660 H654 0.930 . S
C660 C661 1.355 . S
C660 C662 1.415 . S
C661 C660 1.355 . S
C661 C663 1.419 . S
C662 C660 1.415 . S
C662 C667 1.425 . S
C662 C669 1.409 . S
C663 H655 0.930 . S
C663 C661 1.419 . S
C663 C664 1.362 . S
C664 H656 0.930 . S
C664 C663 1.362 . S
C664 C667 1.409 . S
C665 H657 0.930 . S
C665 C666 1.355 . S
C665 C667 1.415 . S
C666 C665 1.355 . S
C666 C668 1.419 . S
C667 C662 1.425 . S
C667 C664 1.409 . S
C667 C665 1.415 . S
C668 H658 0.930 . S
C668 C666 1.419 . S
C668 C669 1.362 . S
C669 H659 0.930 . S
C669 C662 1.409 . S
C669 C668 1.362 . S
H670 C676 0.930 . S
H671 C679 0.930 . S
H672 C680 0.930 . S
H673 C681 0.930 . S
H674 C684 0.930 . S
H675 C685 0.930 . S
C676 H670 0.930 . S
C676 C677 1.355 . S
C676 C678 1.415 . S
C677 C676 1.355 . S
C677 C679 1.419 . S
C678 C676 1.415 . S
C678 C683 1.425 . S
C678 C685 1.409 . S
C679 H671 0.930 . S
C679 C677 1.419 . S
C679 C680 1.362 . S
C680 H672 0.930 . S
C680 C679 1.362 . S
C680 C683 1.409 . S
C681 H673 0.930 . S
C681 C682 1.355 . S
C681 C683 1.415 . S
C682 C681 1.355 . S
C682 C684 1.419 . S
C683 C678 1.425 . S
C683 C680 1.409 . S
C683 C681 1.415 . S
C684 H674 0.930 . S
C684 C682 1.419 . S
C684 C685 1.362 . S
C685 H675 0.930 . S
C685 C678 1.409 . S
C685 C684 1.362 . S
H686 C692 0.930 . S
H687 C695 0.930 . S
H688 C696 0.930 . S
H689 C697 0.930 . S
H690 C700 0.930 . S
H691 C701 0.930 . S
C692 H686 0.930 . S
C692 C693 1.355 . S
C692 C694 1.415 . S
C693 C692 1.355 . S
C693 C695 1.419 . S
C694 C692 1.415 . S
C694 C699 1.425 . S
C694 C701 1.409 . S
C695 H687 0.930 . S
C695 C693 1.419 . S
C695 C696 1.362 . S
C696 H688 0.930 . S
C696 C695 1.362 . S
C696 C699 1.409 . S
C697 H689 0.930 . S
C697 C698 1.355 . S
C697 C699 1.415 . S
C698 C697 1.355 . S
C698 C700 1.419 . S
C699 C694 1.425 . S
C699 C696 1.409 . S
C699 C697 1.415 . S
C700 H690 0.930 . S
C700 C698 1.419 . S
C700 C701 1.362 . S
C701 H691 0.930 . S
C701 C694 1.409 . S
C701 C700 1.362 . S
H702 C708 0.930 . S
H703 C711 0.930 . S
H704 C712 0.930 . S
H705 C713 0.930 . S
H706 C716 0.930 . S
H707 C717 0.930 . S
C708 H702 0.930 . S
C708 C709 1.355 . S
C708 C710 1.415 . S
C709 C708 1.355 . S
C709 C711 1.419 . S
C710 C708 1.415 . S
C710 C715 1.425 . S
C710 C717 1.409 . S
C711 H703 0.930 . S
C711 C709 1.419 . S
C711 C712 1.362 . S
C712 H704 0.930 . S
C712 C711 1.362 . S
C712 C715 1.409 . S
C713 H705 0.930 . S
C713 C714 1.355 . S
C713 C715 1.415 . S
C714 C713 1.355 . S
C714 C716 1.419 . S
C715 C710 1.425 . S
C715 C712 1.409 . S
C715 C713 1.415 . S
C716 H706 0.930 . S
C716 C714 1.419 . S
C716 C717 1.362 . S
C717 H707 0.930 . S
C717 C710 1.409 . S
C717 C716 1.362 . S
H718 C724 0.930 . S
H719 C727 0.930 . S
H720 C728 0.930 . S
H721 C729 0.930 . S
H722 C732 0.930 . S
H723 C733 0.930 . S
C724 H718 0.930 . S
C724 C725 1.355 . S
C724 C726 1.415 . S
C725 C724 1.355 . S
C725 C727 1.419 . S
C726 C724 1.415 . S
C726 C731 1.425 . S
C726 C733 1.409 . S
C727 H719 0.930 . S
C727 C725 1.419 . S
C727 C728 1.362 . S
C728 H720 0.930 . S
C728 C727 1.362 . S
C728 C731 1.409 . S
C729 H721 0.930 . S
C729 C730 1.355 . S
C729 C731 1.415 . S
C730 C729 1.355 . S
C730 C732 1.419 . S
C731 C726 1.425 . S
C731 C728 1.409 . S
C731 C729 1.415 . S
C732 H722 0.930 . S
C732 C730 1.419 . S
C732 C733 1.362 . S
C733 H723 0.930 . S
C733 C726 1.409 . S
C733 C732 1.362 . S
H734 C740 0.930 . S
H735 C743 0.930 . S
H736 C744 0.930 . S
H737 C745 0.930 . S
H738 C748 0.930 . S
H739 C749 0.930 . S
C740 H734 0.930 . S
C740 C741 1.355 . S
C740 C742 1.415 . S
C741 C740 1.355 . S
C741 C743 1.419 . S
C742 C740 1.415 . S
C742 C747 1.425 . S
C742 C749 1.409 . S
C743 H735 0.930 . S
C743 C741 1.419 . S
C743 C744 1.362 . S
C744 H736 0.930 . S
C744 C743 1.362 . S
C744 C747 1.409 . S
C745 H737 0.930 . S
C745 C746 1.355 . S
C745 C747 1.415 . S
C746 C745 1.355 . S
C746 C748 1.419 . S
C747 C742 1.425 . S
C747 C744 1.409 . S
C747 C745 1.415 . S
C748 H738 0.930 . S
C748 C746 1.419 . S
C748 C749 1.362 . S
C749 H739 0.930 . S
C749 C742 1.409 . S
C749 C748 1.362 . S
H750 C756 0.930 . S
H751 C759 0.930 . S
H752 C760 0.930 . S
H753 C761 0.930 . S
H754 C764 0.930 . S
H755 C765 0.930 . S
C756 H750 0.930 . S
C756 C757 1.355 . S
C756 C758 1.415 . S
C757 C756 1.355 . S
C757 C759 1.419 . S
C758 C756 1.415 . S
C758 C763 1.425 . S
C758 C765 1.409 . S
C759 H751 0.930 . S
C759 C757 1.419 . S
C759 C760 1.362 . S
C760 H752 0.930 . S
C760 C759 1.362 . S
C760 C763 1.409 . S
C761 H753 0.930 . S
C761 C762 1.355 . S
C761 C763 1.415 . S
C762 C761 1.355 . S
C762 C764 1.419 . S
C763 C758 1.425 . S
C763 C760 1.409 . S
C763 C761 1.415 . S
C764 H754 0.930 . S
C764 C762 1.419 . S
C764 C765 1.362 . S
C765 H755 0.930 . S
C765 C758 1.409 . S
C765 C764 1.362 . S
H766 C772 0.930 . S
H767 C775 0.930 . S
H768 C776 0.930 . S
H769 C777 0.930 . S
H770 C780 0.930 . S
H771 C781 0.930 . S
C772 H766 0.930 . S
C772 C773 1.355 . S
C772 C774 1.415 . S
C773 C772 1.355 . S
C773 C775 1.419 . S
C774 C772 1.415 . S
C774 C779 1.425 . S
C774 C781 1.409 . S
C775 H767 0.930 . S
C775 C773 1.419 . S
C775 C776 1.362 . S
C776 H768 0.930 . S
C776 C775 1.362 . S
C776 C779 1.409 . S
C777 H769 0.930 . S
C777 C778 1.355 . S
C777 C779 1.415 . S
C778 C777 1.355 . S
C778 C780 1.419 . S
C779 C774 1.425 . S
C779 C776 1.409 . S
C779 C777 1.415 . S
C780 H770 0.930 . S
C780 C778 1.419 . S
C780 C781 1.362 . S
C781 H771 0.930 . S
C781 C774 1.409 . S
C781 C780 1.362 . S
H782 C788 0.930 . S
H783 C791 0.930 . S
H784 C792 0.930 . S
H785 C793 0.930 . S
H786 C796 0.930 . S
H787 C797 0.930 . S
C788 H782 0.930 . S
C788 C789 1.355 . S
C788 C790 1.415 . S
C789 C788 1.355 . S
C789 C791 1.419 . S
C790 C788 1.415 . S
C790 C795 1.425 . S
C790 C797 1.409 . S
C791 H783 0.930 . S
C791 C789 1.419 . S
C791 C792 1.362 . S
C792 H784 0.930 . S
C792 C791 1.362 . S
C792 C795 1.409 . S
C793 H785 0.930 . S
C793 C794 1.355 . S
C793 C795 1.415 . S
C794 C793 1.355 . S
C794 C796 1.419 . S
C795 C790 1.425 . S
C795 C792 1.409 . S
C795 C793 1.415 . S
C796 H786 0.930 . S
C796 C794 1.419 . S
C796 C797 1.362 . S
C797 H787 0.930 . S
C797 C790 1.409 . S
C797 C796 1.362 . S
H798 C804 0.930 . S
H799 C807 0.930 1_556 S
H800 C808 0.930 . S
H801 C809 0.930 . S
H802 C812 0.930 . S
H803 C813 0.930 . S
C804 H798 0.930 . S
C804 C805 1.355 . S
C804 C806 1.415 . S
C805 C804 1.355 . S
C805 C807 1.419 . S
C806 C804 1.415 . S
C806 C811 1.425 . S
C806 C813 1.409 . S
C807 H799 0.930 1_554 S
C807 C805 1.419 . S
C807 C808 1.362 . S
C808 H800 0.930 . S
C808 C807 1.362 . S
C808 C811 1.409 . S
C809 H801 0.930 . S
C809 C810 1.355 . S
C809 C811 1.415 . S
C810 C809 1.355 . S
C810 C812 1.419 . S
C811 C806 1.425 . S
C811 C808 1.409 . S
C811 C809 1.415 . S
C812 H802 0.930 . S
C812 C810 1.419 . S
C812 C813 1.362 . S
C813 H803 0.930 . S
C813 C806 1.409 . S
C813 C812 1.362 . S
H814 C820 0.930 . S
H815 C823 0.930 . S
H816 C824 0.930 . S
H817 C825 0.930 . S
H818 C828 0.930 . S
H819 C829 0.930 . S
C820 H814 0.930 . S
C820 C821 1.355 . S
C820 C822 1.415 . S
C821 C820 1.355 . S
C821 C823 1.419 . S
C822 C820 1.415 . S
C822 C827 1.425 . S
C822 C829 1.409 . S
C823 H815 0.930 . S
C823 C821 1.419 . S
C823 C824 1.362 . S
C824 H816 0.930 . S
C824 C823 1.362 . S
C824 C827 1.409 . S
C825 H817 0.930 . S
C825 C826 1.355 . S
C825 C827 1.415 . S
C826 C825 1.355 . S
C826 C828 1.419 . S
C827 C822 1.425 . S
C827 C824 1.409 . S
C827 C825 1.415 . S
C828 H818 0.930 . S
C828 C826 1.419 . S
C828 C829 1.362 . S
C829 H819 0.930 . S
C829 C822 1.409 . S
C829 C828 1.362 . S
H830 C836 0.930 . S
H831 C839 0.930 . S
H832 C840 0.930 . S
H833 C841 0.930 . S
H834 C844 0.930 . S
H835 C845 0.930 . S
C836 H830 0.930 . S
C836 C837 1.355 . S
C836 C838 1.415 . S
C837 C836 1.355 . S
C837 C839 1.419 . S
C838 C836 1.415 . S
C838 C843 1.425 . S
C838 C845 1.409 . S
C839 H831 0.930 . S
C839 C837 1.419 . S
C839 C840 1.362 . S
C840 H832 0.930 . S
C840 C839 1.362 . S
C840 C843 1.409 . S
C841 H833 0.930 . S
C841 C842 1.355 . S
C841 C843 1.415 . S
C842 C841 1.355 . S
C842 C844 1.419 . S
C843 C838 1.425 . S
C843 C840 1.409 . S
C843 C841 1.415 . S
C844 H834 0.930 . S
C844 C842 1.419 . S
C844 C845 1.362 . S
C845 H835 0.930 . S
C845 C838 1.409 . S
C845 C844 1.362 . S
H846 C852 0.930 . S
H847 C855 0.930 . S
H848 C856 0.930 . S
H849 C857 0.930 . S
H850 C860 0.930 . S
H851 C861 0.930 . S
C852 H846 0.930 . S
C852 C853 1.355 . S
C852 C854 1.415 . S
C853 C852 1.355 . S
C853 C855 1.419 . S
C854 C852 1.415 . S
C854 C859 1.425 . S
C854 C861 1.409 . S
C855 H847 0.930 . S
C855 C853 1.419 . S
C855 C856 1.362 . S
C856 H848 0.930 . S
C856 C855 1.362 . S
C856 C859 1.409 . S
C857 H849 0.930 . S
C857 C858 1.355 . S
C857 C859 1.415 . S
C858 C857 1.355 . S
C858 C860 1.419 . S
C859 C854 1.425 . S
C859 C856 1.409 . S
C859 C857 1.415 . S
C860 H850 0.930 . S
C860 C858 1.419 . S
C860 C861 1.362 . S
C861 H851 0.930 . S
C861 C854 1.409 . S
C861 C860 1.362 . S
H862 C868 0.930 . S
H863 C871 0.930 . S
H864 C872 0.930 . S
H865 C873 0.930 . S
H866 C876 0.930 . S
H867 C877 0.930 . S
C868 H862 0.930 . S
C868 C869 1.355 . S
C868 C870 1.415 . S
C869 C868 1.355 . S
C869 C871 1.419 . S
C870 C868 1.415 . S
C870 C875 1.425 . S
C870 C877 1.409 . S
C871 H863 0.930 . S
C871 C869 1.419 . S
C871 C872 1.362 . S
C872 H864 0.930 . S
C872 C871 1.362 . S
C872 C875 1.409 . S
C873 H865 0.930 . S
C873 C874 1.355 . S
C873 C875 1.415 . S
C874 C873 1.355 . S
C874 C876 1.419 . S
C875 C870 1.425 . S
C875 C872 1.409 . S
C875 C873 1.415 . S
C876 H866 0.930 . S
C876 C874 1.419 . S
C876 C877 1.362 . S
C877 H867 0.930 . S
C877 C870 1.409 . S
C877 C876 1.362 . S
H878 C884 0.930 . S
H879 C887 0.930 . S
H880 C888 0.930 . S
H881 C889 0.930 . S
H882 C892 0.930 . S
H883 C893 0.930 . S
C884 H878 0.930 . S
C884 C885 1.355 . S
C884 C886 1.415 . S
C885 C884 1.355 . S
C885 C887 1.419 . S
C886 C884 1.415 . S
C886 C891 1.425 . S
C886 C893 1.409 . S
C887 H879 0.930 . S
C887 C885 1.419 . S
C887 C888 1.362 . S
C888 H880 0.930 . S
C888 C887 1.362 . S
C888 C891 1.409 . S
C889 H881 0.930 . S
C889 C890 1.355 . S
C889 C891 1.415 . S
C890 C889 1.355 . S
C890 C892 1.419 . S
C891 C886 1.425 . S
C891 C888 1.409 . S
C891 C889 1.415 . S
C892 H882 0.930 . S
C892 C890 1.419 . S
C892 C893 1.362 . S
C893 H883 0.930 . S
C893 C886 1.409 . S
C893 C892 1.362 . S
H894 C900 0.930 . S
H895 C903 0.930 . S
H896 C904 0.930 . S
H897 C905 0.930 . S
H898 C908 0.930 . S
H899 C909 0.930 . S
C900 H894 0.930 . S
C900 C901 1.355 . S
C900 C902 1.415 . S
C901 C900 1.355 . S
C901 C903 1.419 . S
C902 C900 1.415 . S
C902 C907 1.425 . S
C902 C909 1.409 . S
C903 H895 0.930 . S
C903 C901 1.419 . S
C903 C904 1.362 . S
C904 H896 0.930 . S
C904 C903 1.362 . S
C904 C907 1.409 . S
C905 H897 0.930 . S
C905 C906 1.355 . S
C905 C907 1.415 . S
C906 C905 1.355 . S
C906 C908 1.419 . S
C907 C902 1.425 . S
C907 C904 1.409 . S
C907 C905 1.415 . S
C908 H898 0.930 . S
C908 C906 1.419 . S
C908 C909 1.362 . S
C909 H899 0.930 . S
C909 C902 1.409 . S
C909 C908 1.362 . S
H910 C916 0.930 . S
H911 C919 0.930 . S
H912 C920 0.930 . S
H913 C921 0.930 . S
H914 C924 0.930 . S
H915 C925 0.930 . S
C916 H910 0.930 . S
C916 C917 1.355 . S
C916 C918 1.415 . S
C917 C916 1.355 . S
C917 C919 1.419 . S
C918 C916 1.415 . S
C918 C923 1.425 . S
C918 C925 1.409 . S
C919 H911 0.930 . S
C919 C917 1.419 . S
C919 C920 1.362 . S
C920 H912 0.930 . S
C920 C919 1.362 . S
C920 C923 1.409 . S
C921 H913 0.930 . S
C921 C922 1.355 . S
C921 C923 1.415 . S
C922 C921 1.355 . S
C922 C924 1.419 . S
C923 C918 1.425 . S
C923 C920 1.409 . S
C923 C921 1.415 . S
C924 H914 0.930 . S
C924 C922 1.419 . S
C924 C925 1.362 . S
C925 H915 0.930 . S
C925 C918 1.409 . S
C925 C924 1.362 . S
H926 C932 0.930 . S
H927 C935 0.930 . S
H928 C936 0.930 . S
H929 C937 0.930 . S
H930 C940 0.930 . S
H931 C941 0.930 . S
C932 H926 0.930 . S
C932 C933 1.355 . S
C932 C934 1.415 . S
C933 C932 1.355 . S
C933 C935 1.419 . S
C934 C932 1.415 . S
C934 C939 1.425 . S
C934 C941 1.409 . S
C935 H927 0.930 . S
C935 C933 1.419 . S
C935 C936 1.362 . S
C936 H928 0.930 . S
C936 C935 1.362 . S
C936 C939 1.409 . S
C937 H929 0.930 . S
C937 C938 1.355 . S
C937 C939 1.415 . S
C938 C937 1.355 . S
C938 C940 1.419 . S
C939 C934 1.425 . S
C939 C936 1.409 . S
C939 C937 1.415 . S
C940 H930 0.930 . S
C940 C938 1.419 . S
C940 C941 1.362 . S
C941 H931 0.930 . S
C941 C934 1.409 . S
C941 C940 1.362 . S
H942 C948 0.930 . S
H943 C951 0.930 . S
H944 C952 0.930 . S
H945 C953 0.930 . S
H946 C956 0.930 . S
H947 C957 0.930 . S
C948 H942 0.930 . S
C948 C949 1.355 . S
C948 C950 1.415 . S
C949 C948 1.355 . S
C949 C951 1.419 . S
C950 C948 1.415 . S
C950 C955 1.425 . S
C950 C957 1.409 . S
C951 H943 0.930 . S
C951 C949 1.419 . S
C951 C952 1.362 . S
C952 H944 0.930 . S
C952 C951 1.362 . S
C952 C955 1.409 . S
C953 H945 0.930 . S
C953 C954 1.355 . S
C953 C955 1.415 . S
C954 C953 1.355 . S
C954 C956 1.419 . S
C955 C950 1.425 . S
C955 C952 1.409 . S
C955 C953 1.415 . S
C956 H946 0.930 . S
C956 C954 1.419 . S
C956 C957 1.362 . S
C957 H947 0.930 . S
C957 C950 1.409 . S
C957 C956 1.362 . S
H958 C964 0.930 . S
H959 C967 0.930 . S
H960 C968 0.930 . S
H961 C969 0.930 . S
H962 C972 0.930 . S
H963 C973 0.930 . S
C964 H958 0.930 . S
C964 C965 1.355 . S
C964 C966 1.415 . S
C965 C964 1.355 . S
C965 C967 1.419 . S
C966 C964 1.415 . S
C966 C971 1.425 . S
C966 C973 1.409 . S
C967 H959 0.930 . S
C967 C965 1.419 . S
C967 C968 1.362 . S
C968 H960 0.930 . S
C968 C967 1.362 . S
C968 C971 1.409 . S
C969 H961 0.930 . S
C969 C970 1.355 . S
C969 C971 1.415 . S
C970 C969 1.355 . S
C970 C972 1.419 . S
C971 C966 1.425 . S
C971 C968 1.409 . S
C971 C969 1.415 . S
C972 H962 0.930 . S
C972 C970 1.419 . S
C972 C973 1.362 . S
C973 H963 0.930 . S
C973 C966 1.409 . S
C973 C972 1.362 . S
H974 C980 0.930 . S
H975 C983 0.930 . S
H976 C984 0.930 . S
H977 C985 0.930 . S
H978 C988 0.930 . S
H979 C989 0.930 . S
C980 H974 0.930 . S
C980 C981 1.355 . S
C980 C982 1.415 . S
C981 C980 1.355 . S
C981 C983 1.419 . S
C982 C980 1.415 . S
C982 C987 1.425 . S
C982 C989 1.409 . S
C983 H975 0.930 . S
C983 C981 1.419 . S
C983 C984 1.362 . S
C984 H976 0.930 . S
C984 C983 1.362 . S
C984 C987 1.409 . S
C985 H977 0.930 . S
C985 C986 1.355 . S
C985 C987 1.415 . S
C986 C985 1.355 . S
C986 C988 1.419 . S
C987 C982 1.425 . S
C987 C984 1.409 . S
C987 C985 1.415 . S
C988 H978 0.930 . S
C988 C986 1.419 . S
C988 C989 1.362 . S
C989 H979 0.930 . S
C989 C982 1.409 . S
C989 C988 1.362 . S
H990 C996 0.930 . S
H991 C999 0.930 . S
H992 C1000 0.930 . S
H993 C1001 0.930 . S
H994 C1004 0.930 . S
H995 C1005 0.930 . S
C996 H990 0.930 . S
C996 C997 1.355 . S
C996 C998 1.415 . S
C997 C996 1.355 . S
C997 C999 1.419 . S
C998 C996 1.415 . S
C998 C1003 1.425 . S
C998 C1005 1.409 . S
C999 H991 0.930 . S
C999 C997 1.419 . S
C999 C1000 1.362 . S
C1000 H992 0.930 . S
C1000 C999 1.362 . S
C1000 C1003 1.409 . S
C1001 H993 0.930 . S
C1001 C1002 1.355 . S
C1001 C1003 1.415 . S
C1002 C1001 1.355 . S
C1002 C1004 1.419 . S
C1003 C998 1.425 . S
C1003 C1000 1.409 . S
C1003 C1001 1.415 . S
C1004 H994 0.930 . S
C1004 C1002 1.419 . S
C1004 C1005 1.362 . S
C1005 H995 0.930 . S
C1005 C998 1.409 . S
C1005 C1004 1.362 . S
H1006 C1012 0.930 . S
H1007 C1015 0.930 . S
H1008 C1016 0.930 . S
H1009 C1017 0.930 . S
H1010 C1020 0.930 . S
H1011 C1021 0.930 . S
C1012 H1006 0.930 . S
C1012 C1013 1.355 . S
C1012 C1014 1.415 . S
C1013 C1012 1.355 . S
C1013 C1015 1.419 . S
C1014 C1012 1.415 . S
C1014 C1019 1.425 . S
C1014 C1021 1.409 . S
C1015 H1007 0.930 . S
C1015 C1013 1.419 . S
C1015 C1016 1.362 . S
C1016 H1008 0.930 . S
C1016 C1015 1.362 . S
C1016 C1019 1.409 . S
C1017 H1009 0.930 . S
C1017 C1018 1.355 . S
C1017 C1019 1.415 . S
C1018 C1017 1.355 . S
C1018 C1020 1.419 . S
C1019 C1014 1.425 . S
C1019 C1016 1.409 . S
C1019 C1017 1.415 . S
C1020 H1010 0.930 . S
C1020 C1018 1.419 . S
C1020 C1021 1.362 . S
C1021 H1011 0.930 . S
C1021 C1014 1.409 . S
C1021 C1020 1.362 . S
H1022 C1028 0.930 . S
H1023 C1031 0.930 . S
H1024 C1032 0.930 . S
H1025 C1033 0.930 . S
H1026 C1036 0.930 . S
H1027 C1037 0.930 . S
C1028 H1022 0.930 . S
C1028 C1029 1.355 . S
C1028 C1030 1.415 . S
C1029 C1028 1.355 . S
C1029 C1031 1.419 . S
C1030 C1028 1.415 . S
C1030 C1035 1.425 . S
C1030 C1037 1.409 . S
C1031 H1023 0.930 . S
C1031 C1029 1.419 . S
C1031 C1032 1.362 . S
C1032 H1024 0.930 . S
C1032 C1031 1.362 . S
C1032 C1035 1.409 . S
C1033 H1025 0.930 . S
C1033 C1034 1.355 . S
C1033 C1035 1.415 . S
C1034 C1033 1.355 . S
C1034 C1036 1.419 . S
C1035 C1030 1.425 . S
C1035 C1032 1.409 . S
C1035 C1033 1.415 . S
C1036 H1026 0.930 . S
C1036 C1034 1.419 . S
C1036 C1037 1.362 . S
C1037 H1027 0.930 . S
C1037 C1030 1.409 . S
C1037 C1036 1.362 . S
C666 C595 1.593 . S
C661 C19 1.552 . S
C677 C40 1.485 . S
C682 C155 1.611 . S
C693 C51 1.529 . S
C698 C243 1.594 . S
C709 C72 1.516 . S
C714 C322 1.618 . S
C730 C419 1.586 . S
C725 C103 1.544 . S
C741 C114 1.508 . S
C746 C498 1.582 . S
C757 C30 1.491 . S
C762 C263 1.626 . S
C773 C61 1.468 . S
C778 C359 1.587 . S
C789 C82 1.523 . S
C794 C439 1.578 . S
C810 C535 1.618 . S
C805 C93 1.516 . S
C826 C615 1.576 . S
C821 C124 1.507 . S
C842 C175 1.619 . S
C837 C9 1.513 . S
C853 C17 1.480 . S
C858 C271 1.561 . S
C869 C38 1.434 . S
C874 C351 1.523 . S
C890 C447 1.549 . S
C885 C54 1.477 . S
C901 C75 1.396 . S
C906 C527 1.530 . S
C922 C623 1.520 . S
C917 C101 1.429 . S
C938 C183 1.520 . S
C933 C117 1.441 . S
C954 C586 1.552 . S
C949 C33 1.428 . S
C965 C59 1.394 . S
C970 C146 1.535 . S
C986 C234 1.561 . S
C981 C80 1.480 . S
C997 C96 1.476 . S
C1002 C331 1.551 . S
C1013 C122 1.420 . S
C1018 C410 1.520 . S
C1029 C12 1.434 . S
C1034 C507 1.524 . S
