# Generated by pormake.
# Topology pth, (4,4)-cn, num edge types: 1
# Building blocks:
#     Node 0, Type 0, BuildingBlock: GALJAG_clean_sbu_0, # of connection points: 4
#     Node 1, Type 0, BuildingBlock: GALJAG_clean_sbu_0, # of connection points: 4
#     Node 2, Type 0, BuildingBlock: GALJAG_clean_sbu_0, # of connection points: 4
#     Node 3, Type 1, BuildingBlock: MIFKUJ_clean_linker_1, # of connection points: 4
#     Node 4, Type 1, BuildingBlock: MIFKUJ_clean_linker_1, # of connection points: 4
#     Node 5, Type 1, BuildingBlock: MIFKUJ_clean_linker_1, # of connection points: 4
#     Edge 6, Type (0, 1), BuildingBlock: FUNLAD_clean_linker_1, # of connection points: 2
#     Edge 7, Type (0, 1), BuildingBlock: FUNLAD_clean_linker_1, # of connection points: 2
#     Edge 8, Type (0, 1), BuildingBlock: FUNLAD_clean_linker_1, # of connection points: 2
#     Edge 9, Type (0, 1), BuildingBlock: FUNLAD_clean_linker_1, # of connection points: 2
#     Edge 10, Type (0, 1), BuildingBlock: FUNLAD_clean_linker_1, # of connection points: 2
#     Edge 11, Type (0, 1), BuildingBlock: FUNLAD_clean_linker_1, # of connection points: 2
#     Edge 12, Type (0, 1), BuildingBlock: FUNLAD_clean_linker_1, # of connection points: 2
#     Edge 13, Type (0, 1), BuildingBlock: FUNLAD_clean_linker_1, # of connection points: 2
#     Edge 14, Type (0, 1), BuildingBlock: FUNLAD_clean_linker_1, # of connection points: 2
#     Edge 15, Type (0, 1), BuildingBlock: FUNLAD_clean_linker_1, # of connection points: 2
#     Edge 16, Type (0, 1), BuildingBlock: FUNLAD_clean_linker_1, # of connection points: 2
#     Edge 17, Type (0, 1), BuildingBlock: FUNLAD_clean_linker_1, # of connection points: 2
# Relax obj value: 0.002
# Max RMSD: 0.043
# Mean RMSD: 0.028
data_MOF--net-pth--node1-GALJAG_clean_sbu_0--node2-MIFKUJ_clean_linker_1--edge1-FUNLAD_clean_linker_1
_symmetry_space_group_name_H-M    P1
_symmetry_Int_Tables_number       1
_symmetry_cell_setting            triclinic
loop_
_symmetry_equiv_pos_as_xyz
'x, y, z'
_cell_length_a     30.982601
_cell_length_b     30.994371
_cell_length_c     63.485858
_cell_angle_alpha  90.304132
_cell_angle_beta   90.015506
_cell_angle_gamma 120.01378
loop_
_atom_site_label
_atom_site_type_symbol
_atom_site_fract_x
_atom_site_fract_y
_atom_site_fract_z
_atom_type_partial_charge
In0 In 0.0104 0.00968 0.04734 0.0
O1 O 0.96572 0.04937 0.05268 0.0
O2 O 0.02722 0.06751 0.07299 0.0
C3 C 0.95014 0.94099 0.01885 0.0
C4 C 0.09167 0.07602 0.0258 0.0
C5 C 0.00587 0.94576 0.07712 0.0
O6 O 0.93632 0.96624 0.02965 0.0
O7 O 0.99427 0.95087 0.02216 0.0
O8 O 0.04225 0.96703 0.06464 0.0
O9 O 0.97246 0.95718 0.07478 0.0
C10 C 0.99208 0.07499 0.06806 0.0
O11 O 0.09482 0.05607 0.04256 0.0
O12 O 0.0478 0.06212 0.01979 0.0
In13 In 0.01735 0.01668 0.38003 0.0
O14 O 0.04565 0.10018 0.37665 0.0
O15 O 0.99744 0.05146 0.35286 0.0
C16 C 0.09663 0.02705 0.40182 0.0
C17 C 0.94347 0.99902 0.40734 0.0
C18 C 0.01113 0.9477 0.35218 0.0
O19 O 0.10028 0.05857 0.38838 0.0
O20 O 0.05326 0.99044 0.40421 0.0
O21 O 0.98073 0.93659 0.36722 0.0
O22 O 0.04388 0.99307 0.35115 0.0
C23 C 0.0227 0.09554 0.35964 0.0
O24 O 0.9346 0.98299 0.38861 0.0
O25 O 0.98889 0.02276 0.41229 0.0
In26 In 0.01073 1.00188 0.71289 0.0
O27 O 0.9682 0.91743 0.718 0.0
O28 O 0.95665 0.96295 0.73982 0.0
C29 C 0.07716 0.00463 0.6847 0.0
C30 C 0.94299 0.01499 0.69144 0.0
C31 C 0.07719 0.06839 0.74056 0.0
O32 O 0.05785 0.97124 0.69857 0.0
O33 O 0.06258 0.03598 0.68487 0.0
O34 O 0.05522 0.08038 0.72705 0.0
O35 O 0.06518 0.02311 0.74033 0.0
C36 C 0.94593 0.91958 0.73426 0.0
O37 O 0.96248 0.03798 0.7084 0.0
O38 O 0.95785 0.98588 0.68527 0.0
H39 H 0.08489 0.48584 0.1742 0.0
H40 H 0.08719 0.42194 0.15215 0.0
H41 H 0.94533 0.31136 0.17774 0.0
H42 H 0.94277 0.37537 0.19918 0.0
H43 H 0.02286 0.52115 0.17508 0.0
H44 H 0.07589 0.44118 0.2221 0.0
H45 H 0.07784 0.37393 0.24121 0.0
H46 H 0.93911 0.33791 0.27156 0.0
H47 H 0.93661 0.40434 0.25203 0.0
H48 H 0.92222 0.5281 0.24935 0.0
H49 H 0.91253 0.58662 0.27208 0.0
H50 H 0.05934 0.70362 0.25386 0.0
H51 H 0.0683 0.6451 0.23121 0.0
H52 H 0.99263 0.4998 0.25202 0.0
H53 H 0.94431 0.58478 0.20029 0.0
H54 H 0.95184 0.65457 0.18007 0.0
H55 H 0.09924 0.6893 0.16001 0.0
H56 H 0.09109 0.61901 0.1804 0.0
C57 C 0.01372 0.43539 0.18837 0.0
C58 C 0.05409 0.44789 0.17486 0.0
C59 C 0.05543 0.41135 0.16234 0.0
C60 C 0.01613 0.36179 0.16281 0.0
C61 C 0.9757 0.3493 0.17641 0.0
C62 C 0.97446 0.38583 0.18897 0.0
C63 C 0.01234 0.47418 0.20171 0.0
C64 C 0.01685 0.51675 0.19196 0.0
C65 C 0.00465 0.46848 0.22375 0.0
C66 C 0.00578 0.42758 0.23542 0.0
C67 C 0.04555 0.41848 0.23267 0.0
C68 C 0.04686 0.38028 0.2437 0.0
C69 C 0.00923 0.35128 0.25813 0.0
C70 C 0.96945 0.36042 0.26097 0.0
C71 C 0.96781 0.39826 0.24972 0.0
C72 C 0.99571 0.58238 0.23838 0.0
C73 C 0.95209 0.56652 0.25017 0.0
C74 C 0.94659 0.60002 0.26312 0.0
C75 C 0.98455 0.65009 0.26463 0.0
C76 C 0.02848 0.66588 0.25283 0.0
C77 C 0.03388 0.6323 0.23984 0.0
C78 C 1.00177 0.546 0.22527 0.0
C79 C 0.99843 0.50397 0.23513 0.0
C80 C 0.01208 0.55295 0.20345 0.0
C81 C 0.01729 0.59693 0.19201 0.0
C82 C 0.97853 0.60795 0.19179 0.0
C83 C 0.98307 0.64821 0.18013 0.0
C84 C 0.02665 0.67826 0.16844 0.0
C85 C 0.06534 0.66707 0.16886 0.0
C86 C 0.06072 0.62688 0.18048 0.0
H87 H 0.59977 0.06515 0.50188 0.0
H88 H 0.65945 0.06235 0.47751 0.0
H89 H 0.64046 0.92999 0.50836 0.0
H90 H 0.58074 0.93281 0.53249 0.0
H91 H 0.50562 1.00263 0.50689 0.0
H92 H 0.64909 0.06638 0.55071 0.0
H93 H 0.72018 0.07077 0.56955 0.0
H94 H 0.6197 0.93958 0.60475 0.0
H95 H 0.54906 0.93462 0.58563 0.0
H96 H 0.41495 0.92204 0.58667 0.0
H97 H 0.34881 0.91617 0.6096 0.0
H98 H 0.36919 0.05407 0.58386 0.0
H99 H 0.4348 0.0594 0.56108 0.0
H100 H 0.51208 0.99224 0.58462 0.0
H101 H 0.3697 0.92644 0.53724 0.0
H102 H 0.30053 0.92537 0.51809 0.0
H103 H 0.40343 0.06824 0.4909 0.0
H104 H 0.47185 0.06862 0.50983 0.0
C105 C 0.58627 0.99963 0.51924 0.0
C106 C 0.60873 0.03571 0.50347 0.0
C107 C 0.64283 0.0341 0.48957 0.0
C108 C 0.65551 0.99665 0.4912 0.0
C109 C 0.6329 0.96035 0.50697 0.0
C110 C 0.59851 0.96181 0.52081 0.0
C111 C 0.54811 1.00011 0.53326 0.0
C112 C 0.50753 1.00111 0.52391 0.0
C113 C 0.55012 0.99739 0.55548 0.0
C114 C 0.5936 0.99993 0.56662 0.0
C115 C 0.64237 0.03823 0.56232 0.0
C116 C 0.68294 0.04095 0.57318 0.0
C117 C 0.67549 0.00631 0.58892 0.0
C118 C 0.6267 0.96784 0.59317 0.0
C119 C 0.58622 0.96475 0.58213 0.0
C120 C 0.42932 0.99076 0.57194 0.0
C121 C 0.40495 0.95087 0.58595 0.0
C122 C 0.3671 0.9475 0.59899 0.0
C123 C 0.35273 0.98386 0.59832 0.0
C124 C 0.3778 0.02433 0.58447 0.0
C125 C 0.41572 0.02768 0.57142 0.0
C126 C 0.46955 0.99399 0.55818 0.0
C127 C 0.51049 0.99383 0.56759 0.0
C128 C 0.46827 0.99805 0.53604 0.0
C129 C 0.42591 0.99765 0.52496 0.0
C130 C 0.37718 0.95755 0.52719 0.0
C131 C 0.33776 0.95691 0.51619 0.0
C132 C 0.34634 0.99599 0.50257 0.0
C133 C 0.39521 0.03654 0.50064 0.0
C134 C 0.43456 0.03711 0.51163 0.0
H135 H 0.47178 0.41097 0.83646 0.0
H136 H 0.40283 0.35117 0.81456 0.0
H137 H 0.30168 0.38321 0.84904 0.0
H138 H 0.37134 0.44409 0.87058 0.0
H139 H 0.51042 0.5088 0.84089 0.0
H140 H 0.4346 0.36851 0.88524 0.0
H141 H 0.36808 0.29865 0.90444 0.0
H142 H 0.34614 0.40202 0.94248 0.0
H143 H 0.41163 0.47157 0.92294 0.0
H144 H 0.53183 0.60415 0.92047 0.0
H145 H 0.59451 0.67319 0.94165 0.0
H146 H 0.71 0.65416 0.9123 0.0
H147 H 0.64707 0.58445 0.89182 0.0
H148 H 0.50553 0.50728 0.91898 0.0
H149 H 0.57678 0.64651 0.87006 0.0
H150 H 0.6442 0.7139 0.85012 0.0
H151 H 0.67847 0.60746 0.82168 0.0
H152 H 0.61115 0.5408 0.84147 0.0
C153 C 0.42664 0.43147 0.85537 0.0
C154 C 0.43469 0.40489 0.83937 0.0
C155 C 0.39494 0.37017 0.827 0.0
C156 C 0.34628 0.36145 0.83042 0.0
C157 C 0.3386 0.38873 0.84622 0.0
C158 C 0.3783 0.42332 0.8586 0.0
C159 C 0.46893 0.4689 0.86829 0.0
C160 C 0.50968 0.50802 0.85797 0.0
C161 C 0.46783 0.46799 0.8906 0.0
C162 C 0.42794 0.42544 0.90248 0.0
C163 C 0.41521 0.37618 0.89759 0.0
C164 C 0.37745 0.33628 0.90864 0.0
C165 C 0.35258 0.3448 0.92519 0.0
C166 C 0.3655 0.39412 0.93021 0.0
C167 C 0.40282 0.434 0.91896 0.0
C168 C 0.58473 0.58923 0.9045 0.0
C169 C 0.57066 0.61459 0.9188 0.0
C170 C 0.60655 0.65416 0.93083 0.0
C171 C 0.6573 0.66911 0.92898 0.0
C172 C 0.67139 0.64352 0.91463 0.0
C173 C 0.63536 0.60376 0.90263 0.0
C174 C 0.54614 0.54781 0.89156 0.0
C175 C 0.5062 0.50781 0.9019 0.0
C176 C 0.54825 0.54754 0.86929 0.0
C177 C 0.58908 0.58866 0.8573 0.0
C178 C 0.59896 0.63785 0.85954 0.0
C179 C 0.63738 0.67626 0.84809 0.0
C180 C 0.66628 0.66627 0.83398 0.0
C181 C 0.6564 0.61685 0.83186 0.0
C182 C 0.61797 0.57848 0.84332 0.0
H183 H 0.95192 0.11603 0.07399 0.0
C184 C 0.98261 0.11119 0.07926 0.0
H185 H 0.0409 0.13249 0.10135 0.0
H186 H 1.00427 0.32537 0.10713 0.0
H187 H 0.03684 0.34374 0.07156 0.0
H188 H 0.05497 0.28552 0.05212 0.0
H189 H 0.03986 0.20825 0.06799 0.0
C190 C 0.01113 0.13822 0.09557 0.0
C191 C 1.00117 0.17407 0.10722 0.0
C192 C 0.01159 0.21975 0.09788 0.0
C193 C 1.00304 0.25427 0.1094 0.0
C194 C 0.01176 0.29865 0.09939 0.0
C195 C 0.03018 0.30953 0.07892 0.0
C196 C 0.04024 0.27668 0.06795 0.0
C197 C 0.03116 0.23229 0.07723 0.0
H198 H 0.05622 0.33269 0.14395 0.0
C199 C 0.01949 0.32409 0.14942 0.0
H200 H 0.94227 0.27101 0.14794 0.0
H201 H 0.97617 0.08941 0.1295 0.0
H202 H 0.94534 0.07189 0.16537 0.0
H203 H 0.93293 0.13283 0.18572 0.0
H204 H 0.95106 0.21157 0.17031 0.0
C205 C 0.97971 0.28092 0.14317 0.0
C206 C 0.98585 0.24382 0.13049 0.0
C207 C 0.97503 0.19796 0.13974 0.0
C208 C 0.98272 0.16307 0.12809 0.0
C209 C 0.9715 0.11749 0.13771 0.0
C210 C 0.95369 0.1069 0.15827 0.0
C211 C 0.94665 0.14119 0.16972 0.0
C212 C 0.95716 0.18625 0.16066 0.0
H213 H 0.91639 0.0061 0.43842 0.0
C214 C 0.90481 0.99345 0.42232 0.0
H215 H 0.84501 0.96413 0.40058 0.0
H216 H 0.67811 0.88157 0.47125 0.0
H217 H 0.66541 0.80477 0.4553 0.0
H218 H 0.72391 0.80583 0.42868 0.0
H219 H 0.79528 0.88378 0.41769 0.0
C220 C 0.85746 0.97741 0.41653 0.0
C221 C 0.82096 0.97712 0.43191 0.0
C222 C 0.77962 0.93125 0.43825 0.0
C223 C 0.74628 0.9306 0.45383 0.0
C224 C 0.70495 0.88424 0.45967 0.0
C225 C 0.69716 0.83985 0.45062 0.0
C226 C 0.73008 0.84046 0.43562 0.0
C227 C 0.77089 0.88548 0.42945 0.0
H228 H 0.69614 0.01559 0.46095 0.0
C229 C 0.69107 0.9959 0.4757 0.0
H230 H 0.71577 0.9552 0.4939 0.0
H231 H 0.89121 0.07224 0.42076 0.0
H232 H 0.90614 0.14875 0.4377 0.0
H233 H 0.85379 0.14697 0.46733 0.0
H234 H 0.78544 0.06881 0.47977 0.0
C235 C 0.71909 0.97469 0.47932 0.0
C236 C 0.75453 0.9758 0.46316 0.0
C237 C 0.79615 0.02172 0.45692 0.0
C238 C 0.82832 0.02251 0.44077 0.0
C239 C 0.86725 0.06918 0.43373 0.0
C240 C 0.87599 0.11348 0.4432 0.0
C241 C 0.84638 0.11249 0.4598 0.0
C242 C 0.80694 0.0673 0.46667 0.0
H243 H 0.90063 0.83837 0.73934 0.0
C244 C 0.9092 0.87459 0.74551 0.0
H245 H 0.89275 0.91353 0.76856 0.0
H246 H 0.67605 0.73793 0.78748 0.0
H247 H 0.65824 0.79504 0.76859 0.0
H248 H 0.72564 0.86971 0.75152 0.0
H249 H 0.81121 0.88758 0.75316 0.0
C250 C 0.88554 0.87746 0.76274 0.0
C251 C 0.8453 0.83213 0.77308 0.0
C252 C 0.79554 0.82263 0.77225 0.0
C253 C 0.75674 0.77988 0.78229 0.0
C254 C 0.70716 0.77047 0.7806 0.0
C255 C 0.69634 0.80279 0.76968 0.0
C256 C 0.73428 0.8448 0.76005 0.0
C257 C 0.7833 0.8547 0.76119 0.0
H258 H 0.71839 0.74606 0.82761 0.0
C259 C 0.7066 0.70846 0.82209 0.0
H260 H 0.71717 0.66656 0.79813 0.0
H261 H 0.93713 0.84109 0.77906 0.0
H262 H 0.95465 0.78344 0.79764 0.0
H263 H 0.88703 0.70835 0.81438 0.0
H264 H 0.80146 0.69068 0.81276 0.0
C265 C 0.7278 0.70304 0.80452 0.0
C266 C 0.7679 0.7471 0.79344 0.0
C267 C 0.81752 0.75624 0.79407 0.0
C268 C 0.8564 0.7991 0.78408 0.0
C269 C 0.90593 0.80842 0.7858 0.0
C270 C 0.91658 0.77578 0.79656 0.0
C271 C 0.87853 0.73354 0.80601 0.0
C272 C 0.82955 0.7238 0.80492 0.0
H273 H 0.96846 0.89303 0.10298 0.0
C274 C 1.00093 0.90873 0.09278 0.0
H275 H 0.0666 0.90813 0.08436 0.0
H276 H 0.07806 0.81495 0.17169 0.0
H277 H 0.1477 0.8992 0.17528 0.0
H278 H 0.16241 0.96312 0.14883 0.0
H279 H 0.10743 0.94322 0.11865 0.0
C280 C 0.03342 0.89217 0.09413 0.0
C281 C 0.02571 0.85278 0.10947 0.0
C282 C 0.05869 0.8648 0.12681 0.0
C283 C 0.05057 0.82777 0.14193 0.0
C284 C 0.08315 0.84127 0.15947 0.0
C285 C 0.12311 0.88959 0.16179 0.0
C286 C 0.13136 0.9256 0.14691 0.0
C287 C 0.09956 0.91363 0.12964 0.0
H288 H 0.06493 0.73662 0.14439 0.0
C289 C 0.033 0.72018 0.15492 0.0
H290 H 0.96945 0.72421 0.16463 0.0
H291 H 0.95848 0.81562 0.07682 0.0
H292 H 0.8889 0.73149 0.07327 0.0
H293 H 0.87354 0.66795 0.10002 0.0
H294 H 0.92798 0.68816 0.13039 0.0
C295 C 1.00216 0.739 0.15471 0.0
C296 C 0.0099 0.77858 0.13948 0.0
C297 C 0.97695 0.76652 0.12212 0.0
C298 C 0.98522 0.80344 0.10694 0.0
C299 C 0.95306 0.78963 0.08922 0.0
C300 C 0.91316 0.74128 0.08689 0.0
C301 C 0.90456 0.70549 0.10192 0.0
C302 C 0.93607 0.71765 0.11931 0.0
H303 H 0.17672 0.06331 0.40966 0.0
C304 C 0.14 0.03286 0.41376 0.0
H305 H 0.09851 0.97084 0.43338 0.0
H306 H 0.27596 0.93428 0.45513 0.0
H307 H 0.2225 0.8612 0.43406 0.0
H308 H 0.14872 0.85375 0.41583 0.0
H309 H 0.12803 0.91933 0.41853 0.0
C310 C 0.13504 1.00196 0.42952 0.0
C311 C 0.17906 0.0065 0.441 0.0
C312 C 0.1903 0.9675 0.43943 0.0
C313 C 0.23268 0.97164 0.45002 0.0
C314 C 0.24376 0.93271 0.44773 0.0
C315 C 0.21351 0.89063 0.43559 0.0
C316 C 0.17199 0.88644 0.42532 0.0
C317 C 0.16045 0.92436 0.42707 0.0
H318 H 0.26605 0.96695 0.49638 0.0
C319 C 0.30339 0.99317 0.49086 0.0
H320 H 0.34422 0.04537 0.46689 0.0
H321 H 0.16471 0.08532 0.44967 0.0
H322 H 0.21855 0.15844 0.47059 0.0
H323 H 0.29387 0.16698 0.48778 0.0
H324 H 0.31543 0.10203 0.48432 0.0
C325 C 0.30802 0.0194 0.47335 0.0
C326 C 0.2635 0.01462 0.4623 0.0
C327 C 0.25221 0.05351 0.46396 0.0
C328 C 0.20949 0.04915 0.45359 0.0
C329 C 0.19769 0.08743 0.45649 0.0
C330 C 0.22807 0.12948 0.46863 0.0
C331 C 0.27042 0.13425 0.47834 0.0
C332 C 0.28241 0.09673 0.47618 0.0
H333 H 0.13178 0.09005 0.76636 0.0
C334 C 0.11541 0.10422 0.75515 0.0
H335 H 0.11749 0.16827 0.74272 0.0
H336 H 0.23509 0.24007 0.83583 0.0
H337 H 0.15395 0.18657 0.85124 0.0
H338 H 0.08078 0.13489 0.82874 0.0
H339 H 0.08859 0.1358 0.7907 0.0
C340 C 0.13195 0.15332 0.75445 0.0
C341 C 0.17436 0.1888 0.76798 0.0
C342 C 0.1687 0.18935 0.79014 0.0
C343 C 0.21044 0.2208 0.80305 0.0
C344 C 0.20432 0.21848 0.82521 0.0
C345 C 0.15797 0.18765 0.83428 0.0
C346 C 0.11682 0.15842 0.82162 0.0
C347 C 0.12188 0.15909 0.7998 0.0
H348 H 0.27056 0.33049 0.81689 0.0
C349 C 0.30302 0.32571 0.81741 0.0
H350 H 0.33226 0.28021 0.80725 0.0
H351 H 0.1978 0.19725 0.72603 0.0
H352 H 0.27833 0.25275 0.71053 0.0
H353 H 0.34994 0.30953 0.7328 0.0
H354 H 0.34155 0.31089 0.77075 0.0
C355 C 0.3011 0.28691 0.80696 0.0
C356 C 0.25726 0.25318 0.79369 0.0
C357 C 0.26264 0.25325 0.77152 0.0
C358 C 0.22118 0.22101 0.75865 0.0
C359 C 0.22787 0.22133 0.73656 0.0
C360 C 0.27394 0.25298 0.72744 0.0
C361 C 0.31426 0.28491 0.73998 0.0
C362 C 0.30893 0.28524 0.76176 0.0
H363 H 0.88911 0.04137 0.68778 0.0
C364 C 0.90435 0.02039 0.6802 0.0
H365 H 0.90145 0.97711 0.65394 0.0
H366 H 0.68171 0.90345 0.62603 0.0
H367 H 0.67688 0.82686 0.63767 0.0
H368 H 0.74784 0.82814 0.65588 0.0
H369 H 0.82421 0.90594 0.66236 0.0
C370 C 0.88696 0.99902 0.66128 0.0
C371 C 0.84393 0.99929 0.65093 0.0
C372 C 0.79915 0.95345 0.64757 0.0
C373 C 0.75783 0.9528 0.63749 0.0
C374 C 0.714 0.90632 0.63392 0.0
C375 C 0.71071 0.86198 0.64048 0.0
C376 C 0.75069 0.86269 0.6507 0.0
C377 C 0.79443 0.90771 0.65426 0.0
H378 H 0.75468 0.02667 0.59198 0.0
C379 C 0.71929 0.01036 0.60026 0.0
H380 H 0.68267 0.98104 0.62917 0.0
H381 H 0.92598 0.09312 0.65252 0.0
H382 H 0.92929 0.17012 0.64264 0.0
H383 H 0.855 0.16966 0.62837 0.0
H384 H 0.77736 0.09206 0.62341 0.0
C385 C 0.71734 0.99649 0.62044 0.0
C386 C 0.76098 0.99802 0.63105 0.0
C387 C 0.80535 0.04402 0.63485 0.0
C388 C 0.84735 0.04453 0.64423 0.0
C389 C 0.89222 0.09067 0.64645 0.0
C390 C 0.89477 0.13518 0.64068 0.0
C391 C 0.85301 0.1349 0.63256 0.0
C392 C 0.80874 0.09 0.62965 0.0
H393 H 0.93239 0.88135 0.9956 0.0
C394 C 0.91719 0.90134 1.00405 0.0
H395 H 0.8535 0.90814 0.00936 0.0
H396 H 0.75444 0.79954 0.92254 0.0
H397 H 0.77951 0.88499 0.9139 0.0
H398 H 0.83052 0.95357 0.93864 0.0
H399 H 0.85706 0.93709 0.97213 0.0
C400 C 0.86908 0.8879 1.0014 0.0
C401 C 0.83626 0.84605 0.98704 0.0
C402 C 0.82007 0.85616 0.96777 0.0
C403 C 0.78989 0.81649 0.95367 0.0
C404 C 0.77608 0.82798 0.93412 0.0
C405 C 0.79054 0.87695 0.92889 0.0
C406 C 0.81932 0.91557 0.9428 0.0
C407 C 0.83422 0.90557 0.96199 0.0
H408 H 0.6804 0.73393 0.95021 0.0
C409 C 0.69384 0.71199 0.94204 0.0
H410 H 0.75652 0.7023 0.93826 0.0
H411 H 0.85741 0.81325 0.02354 0.0
H412 H 0.83224 0.72786 0.03224 0.0
H413 H 0.78063 0.65915 0.00765 0.0
H414 H 0.75376 0.67548 0.97424 0.0
C415 C 0.74179 0.72457 0.94489 0.0
C416 C 0.77498 0.76661 0.95913 0.0
C417 C 0.79118 0.75651 0.97843 0.0
C418 C 0.82148 0.7962 0.99249 0.0
C419 C 0.83552 0.78479 0.012 0.0
C420 C 0.82102 0.73583 0.01728 0.0
C421 C 0.79193 0.69715 1.00345 0.0
C422 C 0.77687 0.70709 0.98428 0.0
H423 H 0.03821 0.92481 0.3247 0.0
C424 C 0.01012 0.9111 0.33702 0.0
H425 H 0.95019 0.8475 0.35082 0.0
H426 H 0.97529 0.77512 0.2541 0.0
H427 H 0.94494 0.82895 0.24159 0.0
H428 H 0.92937 0.88118 0.26638 0.0
H429 H 0.94431 0.88008 0.30383 0.0
C430 C 0.97731 0.86212 0.33816 0.0
C431 C 0.98094 0.8265 0.32342 0.0
C432 C 0.9712 0.82695 0.3016 0.0
C433 C 0.97951 0.79629 0.28735 0.0
C434 C 0.96979 0.79774 0.26563 0.0
C435 C 0.9522 0.82836 0.25823 0.0
C436 C 0.94349 0.85781 0.27219 0.0
C437 C 0.9526 0.85711 0.29364 0.0
H438 H 0.94644 0.66647 0.29032 0.0
C439 C 0.97738 0.68362 0.27932 0.0
H440 H 0.03568 0.75295 0.26834 0.0
H441 H 1.00023 0.81444 0.36439 0.0
H442 H 0.02999 0.76022 0.37699 0.0
H443 H 0.04602 0.70827 0.35222 0.0
H444 H 0.03217 0.71003 0.31477 0.0
C445 C 0.00636 0.73354 0.2798 0.0
C446 C 0.99664 0.76455 0.29495 0.0
C447 C 0.00529 0.76325 0.31684 0.0
C448 C 0.99686 0.79385 0.3311 0.0
C449 C 0.00602 0.79203 0.35285 0.0
C450 C 0.0232 0.76112 0.36031 0.0
C451 C 0.03215 0.73182 0.34637 0.0
C452 C 0.02365 0.73292 0.32488 0.0
H453 H 0.12723 0.03665 0.65752 0.0
C454 C 0.11499 0.00832 0.66965 0.0
H455 H 0.12361 0.95067 0.68284 0.0
H456 H 0.21616 0.91503 0.60011 0.0
H457 H 0.13655 0.8384 0.60184 0.0
H458 H 0.07374 0.82804 0.62825 0.0
H459 H 0.0901 0.89432 0.65306 0.0
C460 C 0.13609 0.9797 0.67102 0.0
C461 C 0.17529 0.98532 0.65588 0.0
C462 C 0.16541 0.9459 0.6417 0.0
C463 C 0.20182 0.95167 0.6266 0.0
C464 C 0.19033 0.91227 0.6122 0.0
C465 C 0.14463 0.86816 0.61293 0.0
C466 C 0.10925 0.86235 0.62779 0.0
C467 C 0.1192 0.90069 0.64198 0.0
H468 H 0.30277 0.9529 0.62583 0.0
C469 C 0.31264 0.97875 0.61277 0.0
H470 H 0.29471 0.02866 0.59755 0.0
H471 H 0.20923 0.06582 0.68261 0.0
H472 H 0.28873 0.14237 0.68078 0.0
H473 H 0.35052 0.15347 0.65372 0.0
H474 H 0.33327 0.08774 0.62845 0.0
C475 C 0.28696 1.00284 0.61036 0.0
C476 C 0.2483 0.99666 0.62588 0.0
C477 C 0.25834 0.03595 0.64013 0.0
C478 C 0.22218 0.03002 0.65539 0.0
C479 C 0.2344 0.06894 0.67015 0.0
C480 C 0.28016 0.11298 0.66942 0.0
C481 C 0.31499 0.11919 0.65421 0.0
C482 C 0.30454 0.08118 0.63977 0.0
H483 H 0.17232 0.12813 0.02207 0.0
C484 C 0.13603 0.11441 0.01473 0.0
H485 H 0.09591 0.12091 0.98931 0.0
H486 H 0.24702 0.34133 0.96483 0.0
H487 H 0.17727 0.34805 0.97806 0.0
H488 H 0.10673 0.27703 0.99565 0.0
H489 H 0.10526 0.1987 0.99989 0.0
C490 C 0.13234 0.1337 0.99636 0.0
C491 C 0.17623 0.17674 0.98642 0.0
C492 C 0.1769 0.22264 0.98437 0.0
C493 C 0.21811 0.26397 0.97466 0.0
C494 C 0.21714 0.30895 0.97239 0.0
C495 C 0.17725 0.31334 0.97988 0.0
C496 C 0.13751 0.27333 0.98974 0.0
C497 C 0.13712 0.22847 0.99202 0.0
H498 H 0.29174 0.2665 0.9278 0.0
C499 C 0.31227 0.30149 0.93642 0.0
H500 H 0.32197 0.3373 0.96591 0.0
H501 H 0.18462 0.09271 0.98552 0.0
H502 H 0.2565 0.08739 0.9742 0.0
H503 H 0.33146 0.16139 0.96066 0.0
H504 H 0.33441 0.24077 0.95787 0.0
C505 C 0.30145 0.30312 0.95683 0.0
C506 C 0.25899 0.25966 0.96728 0.0
C507 C 0.259 0.21418 0.96987 0.0
C508 C 0.21692 0.17224 0.97885 0.0
C509 C 0.21647 0.12637 0.9798 0.0
C510 C 0.25739 0.12268 0.9732 0.0
C511 C 0.29949 0.16428 0.96549 0.0
C512 C 0.30052 0.20957 0.96382 0.0
H513 H 0.04197 0.17415 0.35702 0.0
C514 C 0.02441 0.13837 0.34891 0.0
H515 H 0.98618 0.09799 0.3217 0.0
H516 H 0.9014 0.23338 0.29206 0.0
H517 H 0.82614 0.15677 0.30099 0.0
H518 H 0.83055 0.0886 0.31884 0.0
H519 H 0.91021 0.09638 0.32768 0.0
C520 C 0.0046 0.134 0.32964 0.0
C521 C 1.00267 0.17619 0.31941 0.0
C522 C 0.95566 0.17137 0.3147 0.0
C523 C 0.95307 0.2111 0.30482 0.0
C524 C 0.90562 0.20474 0.29985 0.0
C525 C 0.86205 0.1609 0.30486 0.0
C526 C 0.86454 0.12249 0.31488 0.0
C527 C 0.91062 0.12745 0.3198 0.0
H528 H 0.03195 0.29456 0.26209 0.0
C529 C 0.01216 0.31122 0.26958 0.0
H530 H 0.97496 0.31326 0.29719 0.0
H531 H 0.09904 0.19553 0.32338 0.0
H532 H 0.17412 0.27385 0.31635 0.0
H533 H 0.16936 0.3459 0.30291 0.0
H534 H 0.08948 0.3395 0.29586 0.0
C535 C 0.99411 0.29672 0.28912 0.0
C536 C 0.99742 0.25592 0.29994 0.0
C537 C 0.04444 0.26131 0.30517 0.0
C538 C 0.04712 0.2208 0.31423 0.0
C539 C 0.09465 0.22588 0.31763 0.0
C540 C 0.13813 0.27055 0.31348 0.0
C541 C 0.13547 0.31103 0.30582 0.0
C542 C 0.08931 0.30669 0.30168 0.0
loop_
_geom_bond_atom_site_label_1
_geom_bond_atom_site_label_2
_geom_bond_distance
_geom_bond_site_symmetry_2
_ccdc_geom_bond_type
In0 O1 2.294 1_455 S
In0 O2 2.326 . S
In0 O6 2.266 1_445 S
In0 O7 2.326 1_445 S
In0 O8 2.266 1_545 S
In0 O9 2.326 1_445 S
In0 O11 2.294 . S
In0 O12 2.326 . S
O1 In0 2.294 1_655 S
O1 C10 1.240 1_655 S
O2 In0 2.326 . S
O2 C10 1.252 . S
C3 O6 1.252 . S
C3 O7 1.260 . S
C4 O11 1.240 . S
C4 O12 1.252 . S
C5 O8 1.238 1_655 S
C5 O9 1.283 . S
O6 In0 2.266 1_665 S
O6 C3 1.252 . S
O7 In0 2.326 1_665 S
O7 C3 1.260 . S
O8 In0 2.266 1_565 S
O8 C5 1.238 1_455 S
O9 In0 2.326 1_665 S
O9 C5 1.283 . S
C10 O1 1.240 1_455 S
C10 O2 1.252 . S
O11 In0 2.294 . S
O11 C4 1.240 . S
O12 In0 2.326 . S
O12 C4 1.252 . S
In13 O14 2.294 . S
In13 O15 2.326 1_455 S
In13 O19 2.266 . S
In13 O20 2.326 1_545 S
In13 O21 2.266 1_445 S
In13 O22 2.326 1_545 S
In13 O24 2.294 1_445 S
In13 O25 2.326 1_455 S
O14 In13 2.294 . S
O14 C23 1.240 1_455 S
O15 In13 2.326 1_655 S
O15 C23 1.252 . S
C16 O19 1.252 1_565 S
C16 O20 1.260 . S
C17 O24 1.240 1_545 S
C17 O25 1.252 . S
C18 O21 1.252 1_455 S
C18 O22 1.260 . S
O19 In13 2.266 . S
O19 C16 1.252 1_545 S
O20 In13 2.326 1_565 S
O20 C16 1.260 . S
O21 In13 2.266 1_665 S
O21 C18 1.252 1_655 S
O22 In13 2.326 1_565 S
O22 C18 1.260 . S
C23 O14 1.240 1_655 S
C23 O15 1.252 . S
O24 In13 2.294 1_665 S
O24 C17 1.240 1_565 S
O25 In13 2.326 1_655 S
O25 C17 1.252 . S
In26 O27 2.283 1_445 S
In26 O28 2.328 1_445 S
In26 O32 2.256 1_545 S
In26 O33 2.327 . S
In26 O34 2.277 . S
In26 O35 2.324 . S
In26 O37 2.305 1_455 S
In26 O38 2.325 1_445 S
O27 In26 2.283 1_665 S
O27 C36 1.240 . S
O28 In26 2.328 1_665 S
O28 C36 1.252 . S
C29 O32 1.252 1_545 S
C29 O33 1.260 . S
C30 O37 1.240 1_565 S
C30 O38 1.252 . S
C31 O34 1.252 . S
C31 O35 1.260 . S
O32 In26 2.256 1_565 S
O32 C29 1.252 1_565 S
O33 In26 2.327 . S
O33 C29 1.260 . S
O34 In26 2.277 . S
O34 C31 1.252 . S
O35 In26 2.324 . S
O35 C31 1.260 . S
C36 O27 1.240 . S
C36 O28 1.252 . S
O37 In26 2.305 1_655 S
O37 C30 1.240 1_545 S
O38 In26 2.325 1_665 S
O38 C30 1.252 . S
H39 C58 0.949 . S
H40 C59 0.950 . S
H41 C61 0.950 . S
H42 C62 0.950 . S
H43 C64 0.950 . S
H44 C67 0.950 . S
H45 C68 0.950 . S
H46 C70 0.951 . S
H47 C71 0.949 . S
H48 C73 0.949 . S
H49 C74 0.950 . S
H50 C76 0.950 . S
H51 C77 0.950 . S
H52 C79 0.950 . S
H53 C82 0.950 . S
H54 C83 0.950 . S
H55 C85 0.951 . S
H56 C86 0.949 . S
C57 C58 1.376 . S
C57 C62 1.386 1_455 S
C57 C63 1.483 . S
C58 H39 0.949 . S
C58 C57 1.376 . S
C58 C59 1.397 . S
C59 H40 0.950 . S
C59 C58 1.397 . S
C59 C60 1.391 . S
C60 C59 1.391 . S
C60 C61 1.405 1_455 S
C61 H41 0.950 . S
C61 C60 1.405 1_655 S
C61 C62 1.367 . S
C62 H42 0.950 . S
C62 C57 1.386 1_655 S
C62 C61 1.367 . S
C63 C57 1.483 . S
C63 C64 1.382 . S
C63 C65 1.403 1_455 S
C64 H43 0.950 . S
C64 C63 1.382 . S
C64 C80 1.411 . S
C65 C63 1.403 1_655 S
C65 C66 1.489 . S
C65 C79 1.411 . S
C66 C65 1.489 . S
C66 C67 1.383 1_655 S
C66 C71 1.382 . S
C67 H44 0.950 . S
C67 C66 1.383 1_455 S
C67 C68 1.395 . S
C68 H45 0.950 . S
C68 C67 1.395 . S
C68 C69 1.288 1_455 S
C69 C68 1.288 1_655 S
C69 C70 1.392 . S
C70 H46 0.951 . S
C70 C69 1.392 . S
C70 C71 1.392 . S
C71 H47 0.949 . S
C71 C66 1.382 . S
C71 C70 1.392 . S
C72 C73 1.376 . S
C72 C77 1.386 1_655 S
C72 C78 1.494 . S
C73 H48 0.949 . S
C73 C72 1.376 . S
C73 C74 1.397 . S
C74 H49 0.950 . S
C74 C73 1.397 . S
C74 C75 1.384 1_655 S
C75 C74 1.384 1_455 S
C75 C76 1.419 . S
C76 H50 0.950 . S
C76 C75 1.419 . S
C76 C77 1.367 . S
C77 H51 0.950 . S
C77 C72 1.386 1_455 S
C77 C76 1.367 . S
C78 C72 1.494 . S
C78 C79 1.372 . S
C78 C80 1.399 1_655 S
C79 H52 0.950 . S
C79 C65 1.411 . S
C79 C78 1.372 . S
C80 C64 1.411 . S
C80 C78 1.399 1_455 S
C80 C81 1.489 . S
C81 C80 1.489 . S
C81 C82 1.383 1_455 S
C81 C86 1.382 . S
C82 H53 0.950 . S
C82 C81 1.383 1_655 S
C82 C83 1.395 . S
C83 H54 0.950 . S
C83 C82 1.395 . S
C83 C84 1.288 1_655 S
C84 C83 1.288 1_455 S
C84 C85 1.392 . S
C85 H55 0.951 . S
C85 C84 1.392 . S
C85 C86 1.392 . S
C86 H56 0.949 . S
C86 C81 1.382 . S
C86 C85 1.392 . S
H87 C106 0.949 . S
H88 C107 0.950 . S
H89 C109 0.950 . S
H90 C110 0.950 . S
H91 C112 0.950 . S
H92 C115 0.950 . S
H93 C116 0.950 . S
H94 C118 0.951 . S
H95 C119 0.949 . S
H96 C121 0.949 . S
H97 C122 0.950 . S
H98 C124 0.950 . S
H99 C125 0.950 . S
H100 C127 0.950 . S
H101 C130 0.950 . S
H102 C131 0.950 . S
H103 C133 0.951 . S
H104 C134 0.949 . S
C105 C106 1.376 . S
C105 C110 1.386 1_545 S
C105 C111 1.483 . S
C106 H87 0.949 . S
C106 C105 1.376 . S
C106 C107 1.397 . S
C107 H88 0.950 . S
C107 C106 1.397 . S
C107 C108 1.391 . S
C108 C107 1.391 . S
C108 C109 1.405 1_545 S
C109 H89 0.950 . S
C109 C108 1.405 1_565 S
C109 C110 1.367 . S
C110 H90 0.950 . S
C110 C105 1.386 1_565 S
C110 C109 1.367 . S
C111 C105 1.483 . S
C111 C112 1.382 . S
C111 C113 1.403 1_545 S
C112 H91 0.950 . S
C112 C111 1.382 . S
C112 C128 1.411 . S
C113 C111 1.403 1_565 S
C113 C114 1.489 . S
C113 C127 1.411 . S
C114 C113 1.489 . S
C114 C115 1.383 1_565 S
C114 C119 1.382 . S
C115 H92 0.950 . S
C115 C114 1.383 1_545 S
C115 C116 1.395 . S
C116 H93 0.950 . S
C116 C115 1.395 . S
C116 C117 1.288 1_545 S
C117 C116 1.288 1_565 S
C117 C118 1.392 . S
C118 H94 0.951 . S
C118 C117 1.392 . S
C118 C119 1.392 . S
C119 H95 0.949 . S
C119 C114 1.382 . S
C119 C118 1.392 . S
C120 C121 1.376 . S
C120 C125 1.386 1_565 S
C120 C126 1.483 . S
C121 H96 0.949 . S
C121 C120 1.376 . S
C121 C122 1.397 . S
C122 H97 0.950 . S
C122 C121 1.397 . S
C122 C123 1.393 1_565 S
C123 C122 1.393 1_545 S
C123 C124 1.404 . S
C124 H98 0.950 . S
C124 C123 1.404 . S
C124 C125 1.367 . S
C125 H99 0.950 . S
C125 C120 1.386 1_545 S
C125 C124 1.367 . S
C126 C120 1.483 . S
C126 C127 1.382 . S
C126 C128 1.403 1_565 S
C127 H100 0.950 . S
C127 C113 1.411 . S
C127 C126 1.382 . S
C128 C112 1.411 . S
C128 C126 1.403 1_545 S
C128 C129 1.489 . S
C129 C128 1.489 . S
C129 C130 1.383 1_545 S
C129 C134 1.382 . S
C130 H101 0.950 . S
C130 C129 1.383 1_565 S
C130 C131 1.395 . S
C131 H102 0.950 . S
C131 C130 1.395 . S
C131 C132 1.288 1_565 S
C132 C131 1.288 1_545 S
C132 C133 1.392 . S
C133 H103 0.951 . S
C133 C132 1.392 . S
C133 C134 1.392 . S
C134 H104 0.949 . S
C134 C129 1.382 . S
C134 C133 1.392 . S
H135 C154 0.949 . S
H136 C155 0.950 . S
H137 C157 0.950 . S
H138 C158 0.950 . S
H139 C160 0.950 . S
H140 C163 0.950 . S
H141 C164 0.950 . S
H142 C166 0.951 . S
H143 C167 0.949 . S
H144 C169 0.949 . S
H145 C170 0.950 . S
H146 C172 0.950 . S
H147 C173 0.950 . S
H148 C175 0.950 . S
H149 C178 0.950 . S
H150 C179 0.950 . S
H151 C181 0.951 . S
H152 C182 0.949 . S
C153 C154 1.376 . S
C153 C158 1.386 . S
C153 C159 1.483 . S
C154 H135 0.949 . S
C154 C153 1.376 . S
C154 C155 1.397 . S
C155 H136 0.950 . S
C155 C154 1.397 . S
C155 C156 1.391 . S
C156 C155 1.391 . S
C156 C157 1.405 . S
C157 H137 0.950 . S
C157 C156 1.405 . S
C157 C158 1.367 . S
C158 H138 0.950 . S
C158 C153 1.386 . S
C158 C157 1.367 . S
C159 C153 1.483 . S
C159 C160 1.382 . S
C159 C161 1.403 . S
C160 H139 0.950 . S
C160 C159 1.382 . S
C160 C176 1.411 . S
C161 C159 1.403 . S
C161 C162 1.489 . S
C161 C175 1.411 . S
C162 C161 1.489 . S
C162 C163 1.383 . S
C162 C167 1.382 . S
C163 H140 0.950 . S
C163 C162 1.383 . S
C163 C164 1.395 . S
C164 H141 0.950 . S
C164 C163 1.395 . S
C164 C165 1.288 . S
C165 C164 1.288 . S
C165 C166 1.392 . S
C166 H142 0.951 . S
C166 C165 1.392 . S
C166 C167 1.392 . S
C167 H143 0.949 . S
C167 C162 1.382 . S
C167 C166 1.392 . S
C168 C169 1.376 . S
C168 C173 1.386 . S
C168 C174 1.483 . S
C169 H144 0.949 . S
C169 C168 1.376 . S
C169 C170 1.397 . S
C170 H145 0.950 . S
C170 C169 1.397 . S
C170 C171 1.391 . S
C171 C170 1.391 . S
C171 C172 1.405 . S
C172 H146 0.950 . S
C172 C171 1.405 . S
C172 C173 1.367 . S
C173 H147 0.950 . S
C173 C168 1.386 . S
C173 C172 1.367 . S
C174 C168 1.483 . S
C174 C175 1.382 . S
C174 C176 1.403 . S
C175 H148 0.950 . S
C175 C161 1.411 . S
C175 C174 1.382 . S
C176 C160 1.411 . S
C176 C174 1.403 . S
C176 C177 1.489 . S
C177 C176 1.489 . S
C177 C178 1.383 . S
C177 C182 1.382 . S
C178 H149 0.950 . S
C178 C177 1.383 . S
C178 C179 1.395 . S
C179 H150 0.950 . S
C179 C178 1.395 . S
C179 C180 1.288 . S
C180 C179 1.288 . S
C180 C181 1.392 . S
C181 H151 0.951 . S
C181 C180 1.392 . S
C181 C182 1.392 . S
C182 H152 0.949 . S
C182 C177 1.382 . S
C182 C181 1.392 . S
H183 C184 0.951 1_655 S
C184 H183 0.951 1_455 S
C184 C190 1.265 . S
H185 C190 0.950 . S
H186 C194 0.949 . S
H187 C195 0.950 . S
H188 C196 0.951 . S
H189 C197 0.951 . S
C190 C184 1.265 . S
C190 H185 0.950 . S
C190 C191 1.478 . S
C191 C190 1.478 . S
C191 C192 1.397 . S
C191 C208 1.394 1_455 S
C192 C191 1.397 . S
C192 C193 1.438 . S
C192 C197 1.429 . S
C193 C192 1.438 . S
C193 C194 1.428 . S
C193 C206 1.394 1_455 S
C194 H186 0.949 . S
C194 C193 1.428 . S
C194 C195 1.345 . S
C195 H187 0.950 . S
C195 C194 1.345 . S
C195 C196 1.424 . S
C196 H188 0.951 . S
C196 C195 1.424 . S
C196 C197 1.347 . S
C197 H189 0.951 . S
C197 C192 1.429 . S
C197 C196 1.347 . S
H198 C199 0.951 . S
C199 H198 0.951 . S
C199 C205 1.265 1_455 S
H200 C205 0.950 . S
H201 C209 0.949 . S
H202 C210 0.950 . S
H203 C211 0.951 . S
H204 C212 0.951 . S
C205 C199 1.265 1_655 S
C205 H200 0.950 . S
C205 C206 1.478 . S
C206 C193 1.394 1_655 S
C206 C205 1.478 . S
C206 C207 1.397 . S
C207 C206 1.397 . S
C207 C208 1.438 . S
C207 C212 1.429 . S
C208 C191 1.394 1_655 S
C208 C207 1.438 . S
C208 C209 1.428 . S
C209 H201 0.949 . S
C209 C208 1.428 . S
C209 C210 1.345 . S
C210 H202 0.950 . S
C210 C209 1.345 . S
C210 C211 1.424 . S
C211 H203 0.951 . S
C211 C210 1.424 . S
C211 C212 1.347 . S
C212 H204 0.951 . S
C212 C207 1.429 . S
C212 C211 1.347 . S
H213 C214 0.951 . S
C214 H213 0.951 . S
C214 C220 1.265 1_545 S
H215 C220 0.950 . S
H216 C224 0.949 . S
H217 C225 0.950 . S
H218 C226 0.951 . S
H219 C227 0.951 . S
C220 C214 1.265 1_565 S
C220 H215 0.950 . S
C220 C221 1.471 1_565 S
C221 C220 1.471 1_545 S
C221 C222 1.388 1_545 S
C221 C238 1.411 . S
C222 C221 1.388 1_565 S
C222 C223 1.438 . S
C222 C227 1.429 . S
C223 C222 1.438 . S
C223 C224 1.428 . S
C223 C236 1.394 1_565 S
C224 H216 0.949 . S
C224 C223 1.428 . S
C224 C225 1.345 . S
C225 H217 0.950 . S
C225 C224 1.345 . S
C225 C226 1.424 . S
C226 H218 0.951 . S
C226 C225 1.424 . S
C226 C227 1.347 . S
C227 H219 0.951 . S
C227 C222 1.429 . S
C227 C226 1.347 . S
H228 C229 0.949 1_565 S
C229 H228 0.949 1_545 S
C229 C235 1.264 . S
H230 C235 0.950 . S
H231 C239 0.949 . S
H232 C240 0.950 . S
H233 C241 0.951 . S
H234 C242 0.951 . S
C235 C229 1.264 . S
C235 H230 0.950 . S
C235 C236 1.478 . S
C236 C223 1.394 1_545 S
C236 C235 1.478 . S
C236 C237 1.397 . S
C237 C236 1.397 . S
C237 C238 1.438 . S
C237 C242 1.429 . S
C238 C221 1.411 . S
C238 C237 1.438 . S
C238 C239 1.428 . S
C239 H231 0.949 . S
C239 C238 1.428 . S
C239 C240 1.345 . S
C240 H232 0.950 . S
C240 C239 1.345 . S
C240 C241 1.424 . S
C241 H233 0.951 . S
C241 C240 1.424 . S
C241 C242 1.347 . S
C242 H234 0.951 . S
C242 C237 1.429 . S
C242 C241 1.347 . S
H243 C244 0.951 . S
C244 H243 0.951 . S
C244 C250 1.265 . S
H245 C250 0.950 . S
H246 C254 0.949 . S
H247 C255 0.950 . S
H248 C256 0.951 . S
H249 C257 0.951 . S
C250 C244 1.265 . S
C250 H245 0.950 . S
C250 C251 1.478 . S
C251 C250 1.478 . S
C251 C252 1.397 . S
C251 C268 1.394 . S
C252 C251 1.397 . S
C252 C253 1.438 . S
C252 C257 1.429 . S
C253 C252 1.438 . S
C253 C254 1.428 . S
C253 C266 1.394 . S
C254 H246 0.949 . S
C254 C253 1.428 . S
C254 C255 1.345 . S
C255 H247 0.950 . S
C255 C254 1.345 . S
C255 C256 1.424 . S
C256 H248 0.951 . S
C256 C255 1.424 . S
C256 C257 1.347 . S
C257 H249 0.951 . S
C257 C252 1.429 . S
C257 C256 1.347 . S
H258 C259 0.951 . S
C259 H258 0.951 . S
C259 C265 1.265 . S
H260 C265 0.950 . S
H261 C269 0.949 . S
H262 C270 0.950 . S
H263 C271 0.951 . S
H264 C272 0.951 . S
C265 C259 1.265 . S
C265 H260 0.950 . S
C265 C266 1.478 . S
C266 C253 1.394 . S
C266 C265 1.478 . S
C266 C267 1.397 . S
C267 C266 1.397 . S
C267 C268 1.438 . S
C267 C272 1.429 . S
C268 C251 1.394 . S
C268 C267 1.438 . S
C268 C269 1.428 . S
C269 H261 0.949 . S
C269 C268 1.428 . S
C269 C270 1.345 . S
C270 H262 0.950 . S
C270 C269 1.345 . S
C270 C271 1.424 . S
C271 H263 0.951 . S
C271 C270 1.424 . S
C271 C272 1.347 . S
C272 H264 0.951 . S
C272 C267 1.429 . S
C272 C271 1.347 . S
H273 C274 0.951 . S
C274 H273 0.951 . S
C274 C280 1.265 1_655 S
H275 C280 0.950 . S
H276 C284 0.949 . S
H277 C285 0.950 . S
H278 C286 0.951 . S
H279 C287 0.951 . S
C280 C274 1.265 1_455 S
C280 H275 0.950 . S
C280 C281 1.478 . S
C281 C280 1.478 . S
C281 C282 1.397 . S
C281 C298 1.394 1_455 S
C282 C281 1.397 . S
C282 C283 1.438 . S
C282 C287 1.429 . S
C283 C282 1.438 . S
C283 C284 1.428 . S
C283 C296 1.394 1_455 S
C284 H276 0.949 . S
C284 C283 1.428 . S
C284 C285 1.345 . S
C285 H277 0.950 . S
C285 C284 1.345 . S
C285 C286 1.424 . S
C286 H278 0.951 . S
C286 C285 1.424 . S
C286 C287 1.347 . S
C287 H279 0.951 . S
C287 C282 1.429 . S
C287 C286 1.347 . S
H288 C289 0.951 . S
C289 H288 0.951 . S
C289 C295 1.265 1_455 S
H290 C295 0.950 . S
H291 C299 0.949 . S
H292 C300 0.950 . S
H293 C301 0.951 . S
H294 C302 0.951 . S
C295 C289 1.265 1_655 S
C295 H290 0.950 . S
C295 C296 1.478 . S
C296 C283 1.394 1_655 S
C296 C295 1.478 . S
C296 C297 1.397 . S
C297 C296 1.397 . S
C297 C298 1.438 . S
C297 C302 1.429 . S
C298 C281 1.394 1_655 S
C298 C297 1.438 . S
C298 C299 1.428 . S
C299 H291 0.949 . S
C299 C298 1.428 . S
C299 C300 1.345 . S
C300 H292 0.950 . S
C300 C299 1.345 . S
C300 C301 1.424 . S
C301 H293 0.951 . S
C301 C300 1.424 . S
C301 C302 1.347 . S
C302 H294 0.951 . S
C302 C297 1.429 . S
C302 C301 1.347 . S
H303 C304 0.959 1_545 S
C304 H303 0.959 1_565 S
C304 C310 1.270 . S
H305 C310 0.950 . S
H306 C314 0.949 . S
H307 C315 0.950 . S
H308 C316 0.951 . S
H309 C317 0.951 . S
C310 C304 1.270 . S
C310 H305 0.950 . S
C310 C311 1.478 . S
C311 C310 1.478 . S
C311 C312 1.397 . S
C311 C328 1.394 1_565 S
C312 C311 1.397 . S
C312 C313 1.438 . S
C312 C317 1.429 . S
C313 C312 1.438 . S
C313 C314 1.428 . S
C313 C326 1.394 1_565 S
C314 H306 0.949 . S
C314 C313 1.428 . S
C314 C315 1.345 . S
C315 H307 0.950 . S
C315 C314 1.345 . S
C315 C316 1.424 . S
C316 H308 0.951 . S
C316 C315 1.424 . S
C316 C317 1.347 . S
C317 H309 0.951 . S
C317 C312 1.429 . S
C317 C316 1.347 . S
H318 C319 0.956 1_565 S
C319 H318 0.956 1_545 S
C319 C325 1.265 . S
H320 C325 0.950 . S
H321 C329 0.949 . S
H322 C330 0.950 . S
H323 C331 0.951 . S
H324 C332 0.951 . S
C325 C319 1.265 . S
C325 H320 0.950 . S
C325 C326 1.478 . S
C326 C313 1.394 1_545 S
C326 C325 1.478 . S
C326 C327 1.397 . S
C327 C326 1.397 . S
C327 C328 1.438 . S
C327 C332 1.429 . S
C328 C311 1.394 1_545 S
C328 C327 1.438 . S
C328 C329 1.428 . S
C329 H321 0.949 . S
C329 C328 1.428 . S
C329 C330 1.345 . S
C330 H322 0.950 . S
C330 C329 1.345 . S
C330 C331 1.424 . S
C331 H323 0.951 . S
C331 C330 1.424 . S
C331 C332 1.347 . S
C332 H324 0.951 . S
C332 C327 1.429 . S
C332 C331 1.347 . S
H333 C334 0.951 . S
C334 H333 0.951 . S
C334 C340 1.265 . S
H335 C340 0.950 . S
H336 C344 0.949 . S
H337 C345 0.950 . S
H338 C346 0.951 . S
H339 C347 0.951 . S
C340 C334 1.265 . S
C340 H335 0.950 . S
C340 C341 1.478 . S
C341 C340 1.478 . S
C341 C342 1.397 . S
C341 C358 1.394 . S
C342 C341 1.397 . S
C342 C343 1.438 . S
C342 C347 1.429 . S
C343 C342 1.438 . S
C343 C344 1.428 . S
C343 C356 1.394 . S
C344 H336 0.949 . S
C344 C343 1.428 . S
C344 C345 1.345 . S
C345 H337 0.950 . S
C345 C344 1.345 . S
C345 C346 1.424 . S
C346 H338 0.951 . S
C346 C345 1.424 . S
C346 C347 1.347 . S
C347 H339 0.951 . S
C347 C342 1.429 . S
C347 C346 1.347 . S
H348 C349 0.951 . S
C349 H348 0.951 . S
C349 C355 1.265 . S
H350 C355 0.950 . S
H351 C359 0.949 . S
H352 C360 0.950 . S
H353 C361 0.951 . S
H354 C362 0.951 . S
C355 C349 1.265 . S
C355 H350 0.950 . S
C355 C356 1.478 . S
C356 C343 1.394 . S
C356 C355 1.478 . S
C356 C357 1.397 . S
C357 C356 1.397 . S
C357 C358 1.438 . S
C357 C362 1.429 . S
C358 C341 1.394 . S
C358 C357 1.438 . S
C358 C359 1.428 . S
C359 H351 0.949 . S
C359 C358 1.428 . S
C359 C360 1.345 . S
C360 H352 0.950 . S
C360 C359 1.345 . S
C360 C361 1.424 . S
C361 H353 0.951 . S
C361 C360 1.424 . S
C361 C362 1.347 . S
C362 H354 0.951 . S
C362 C357 1.429 . S
C362 C361 1.347 . S
H363 C364 0.951 . S
C364 H363 0.951 . S
C364 C370 1.265 . S
H365 C370 0.950 . S
H366 C374 0.949 . S
H367 C375 0.950 . S
H368 C376 0.951 . S
H369 C377 0.951 . S
C370 C364 1.265 . S
C370 H365 0.950 . S
C370 C371 1.478 . S
C371 C370 1.478 . S
C371 C372 1.397 . S
C371 C388 1.394 1_565 S
C372 C371 1.397 . S
C372 C373 1.438 . S
C372 C377 1.429 . S
C373 C372 1.438 . S
C373 C374 1.428 . S
C373 C386 1.388 1_565 S
C374 H366 0.949 . S
C374 C373 1.428 . S
C374 C375 1.345 . S
C375 H367 0.950 . S
C375 C374 1.345 . S
C375 C376 1.424 . S
C376 H368 0.951 . S
C376 C375 1.424 . S
C376 C377 1.347 . S
C377 H369 0.951 . S
C377 C372 1.429 . S
C377 C376 1.347 . S
H378 C379 0.956 . S
C379 H378 0.956 . S
C379 C385 1.265 . S
H380 C385 0.950 . S
H381 C389 0.949 . S
H382 C390 0.950 . S
H383 C391 0.951 . S
H384 C392 0.951 . S
C385 C379 1.265 . S
C385 H380 0.950 . S
C385 C386 1.481 . S
C386 C373 1.388 1_545 S
C386 C385 1.481 . S
C386 C387 1.400 . S
C387 C386 1.400 . S
C387 C388 1.438 . S
C387 C392 1.429 . S
C388 C371 1.394 1_545 S
C388 C387 1.438 . S
C388 C389 1.428 . S
C389 H381 0.949 . S
C389 C388 1.428 . S
C389 C390 1.345 . S
C390 H382 0.950 . S
C390 C389 1.345 . S
C390 C391 1.424 . S
C391 H383 0.951 . S
C391 C390 1.424 . S
C391 C392 1.347 . S
C392 H384 0.951 . S
C392 C387 1.429 . S
C392 C391 1.347 . S
H393 C394 0.931 1_556 S
C394 H393 0.931 1_554 S
C394 C400 1.253 1_554 S
H395 C400 0.950 1_554 S
H396 C404 0.949 . S
H397 C405 0.950 . S
H398 C406 0.951 . S
H399 C407 0.951 . S
C400 C394 1.253 1_556 S
C400 H395 0.950 1_556 S
C400 C401 1.478 . S
C401 C400 1.478 . S
C401 C402 1.397 . S
C401 C418 1.394 . S
C402 C401 1.397 . S
C402 C403 1.438 . S
C402 C407 1.429 . S
C403 C402 1.438 . S
C403 C404 1.428 . S
C403 C416 1.394 . S
C404 H396 0.949 . S
C404 C403 1.428 . S
C404 C405 1.345 . S
C405 H397 0.950 . S
C405 C404 1.345 . S
C405 C406 1.424 . S
C406 H398 0.951 . S
C406 C405 1.424 . S
C406 C407 1.347 . S
C407 H399 0.951 . S
C407 C402 1.429 . S
C407 C406 1.347 . S
H408 C409 0.951 . S
C409 H408 0.951 . S
C409 C415 1.265 . S
H410 C415 0.950 . S
H411 C419 0.949 . S
H412 C420 0.950 . S
H413 C421 0.951 . S
H414 C422 0.951 . S
C415 C409 1.265 . S
C415 H410 0.950 . S
C415 C416 1.478 . S
C416 C403 1.394 . S
C416 C415 1.478 . S
C416 C417 1.397 . S
C417 C416 1.397 . S
C417 C418 1.438 . S
C417 C422 1.429 . S
C418 C401 1.394 . S
C418 C417 1.438 . S
C418 C419 1.428 1_556 S
C419 H411 0.949 . S
C419 C418 1.428 1_554 S
C419 C420 1.345 . S
C420 H412 0.950 . S
C420 C419 1.345 . S
C420 C421 1.424 1_554 S
C421 H413 0.951 . S
C421 C420 1.424 1_556 S
C421 C422 1.347 . S
C422 H414 0.951 . S
C422 C417 1.429 . S
C422 C421 1.347 . S
H423 C424 0.951 . S
C424 H423 0.951 . S
C424 C430 1.265 1_455 S
H425 C430 0.950 . S
H426 C434 0.949 . S
H427 C435 0.950 . S
H428 C436 0.951 . S
H429 C437 0.951 . S
C430 C424 1.265 1_655 S
C430 H425 0.950 . S
C430 C431 1.478 . S
C431 C430 1.478 . S
C431 C432 1.397 . S
C431 C448 1.382 1_655 S
C432 C431 1.397 . S
C432 C433 1.438 1_655 S
C432 C437 1.429 . S
C433 C432 1.438 1_455 S
C433 C434 1.428 . S
C433 C446 1.394 . S
C434 H426 0.949 . S
C434 C433 1.428 . S
C434 C435 1.345 . S
C435 H427 0.950 . S
C435 C434 1.345 . S
C435 C436 1.424 1_455 S
C436 H428 0.951 . S
C436 C435 1.424 1_655 S
C436 C437 1.347 . S
C437 H429 0.951 . S
C437 C432 1.429 . S
C437 C436 1.347 . S
H438 C439 0.951 . S
C439 H438 0.951 . S
C439 C445 1.265 1_655 S
H440 C445 0.950 . S
H441 C449 0.949 . S
H442 C450 0.951 . S
H443 C451 0.951 . S
H444 C452 0.951 . S
C445 C439 1.265 1_455 S
C445 H440 0.950 . S
C445 C446 1.478 . S
C446 C433 1.394 . S
C446 C445 1.478 . S
C446 C447 1.397 . S
C447 C446 1.397 . S
C447 C448 1.451 . S
C447 C452 1.429 . S
C448 C431 1.382 1_455 S
C448 C447 1.451 . S
C448 C449 1.427 1_455 S
C449 H441 0.949 . S
C449 C448 1.427 1_655 S
C449 C450 1.345 1_655 S
C450 H442 0.951 . S
C450 C449 1.345 1_455 S
C450 C451 1.424 . S
C451 H443 0.951 . S
C451 C450 1.424 . S
C451 C452 1.347 . S
C452 H444 0.951 . S
C452 C447 1.429 . S
C452 C451 1.347 . S
H453 C454 0.951 . S
C454 H453 0.951 . S
C454 C460 1.266 1_545 S
H455 C460 0.949 . S
H456 C464 0.949 . S
H457 C465 0.950 . S
H458 C466 0.951 . S
H459 C467 0.951 . S
C460 C454 1.266 1_565 S
C460 H455 0.949 . S
C460 C461 1.478 1_565 S
C461 C460 1.478 1_545 S
C461 C462 1.397 1_545 S
C461 C478 1.394 . S
C462 C461 1.397 1_565 S
C462 C463 1.438 . S
C462 C467 1.429 . S
C463 C462 1.438 . S
C463 C464 1.428 . S
C463 C476 1.394 1_565 S
C464 H456 0.949 . S
C464 C463 1.428 . S
C464 C465 1.345 . S
C465 H457 0.950 . S
C465 C464 1.345 . S
C465 C466 1.424 . S
C466 H458 0.951 . S
C466 C465 1.424 . S
C466 C467 1.347 . S
C467 H459 0.951 . S
C467 C462 1.429 . S
C467 C466 1.347 . S
H468 C469 0.951 1_565 S
C469 H468 0.951 1_545 S
C469 C475 1.265 . S
H470 C475 0.950 . S
H471 C479 0.949 . S
H472 C480 0.950 . S
H473 C481 0.951 . S
H474 C482 0.951 . S
C475 C469 1.265 . S
C475 H470 0.950 . S
C475 C476 1.478 . S
C476 C463 1.394 1_545 S
C476 C475 1.478 . S
C476 C477 1.397 . S
C477 C476 1.397 . S
C477 C478 1.438 . S
C477 C482 1.429 . S
C478 C461 1.394 . S
C478 C477 1.438 . S
C478 C479 1.428 . S
C479 H471 0.949 . S
C479 C478 1.428 . S
C479 C480 1.345 . S
C480 H472 0.950 . S
C480 C479 1.345 . S
C480 C481 1.424 . S
C481 H473 0.951 . S
C481 C480 1.424 . S
C481 C482 1.347 . S
C482 H474 0.951 . S
C482 C477 1.429 . S
C482 C481 1.347 . S
H483 C484 0.951 . S
C484 H483 0.951 . S
C484 C490 1.265 1_554 S
H485 C490 0.950 . S
H486 C494 0.949 . S
H487 C495 0.950 . S
H488 C496 0.951 . S
H489 C497 0.951 . S
C490 C484 1.265 1_556 S
C490 H485 0.950 . S
C490 C491 1.478 . S
C491 C490 1.478 . S
C491 C492 1.397 . S
C491 C508 1.394 . S
C492 C491 1.397 . S
C492 C493 1.438 . S
C492 C497 1.429 . S
C493 C492 1.438 . S
C493 C494 1.428 . S
C493 C506 1.394 . S
C494 H486 0.949 . S
C494 C493 1.428 . S
C494 C495 1.345 . S
C495 H487 0.950 . S
C495 C494 1.345 . S
C495 C496 1.424 . S
C496 H488 0.951 . S
C496 C495 1.424 . S
C496 C497 1.347 . S
C497 H489 0.951 . S
C497 C492 1.429 . S
C497 C496 1.347 . S
H498 C499 0.951 . S
C499 H498 0.951 . S
C499 C505 1.265 . S
H500 C505 0.950 . S
H501 C509 0.949 . S
H502 C510 0.950 . S
H503 C511 0.951 . S
H504 C512 0.951 . S
C505 C499 1.265 . S
C505 H500 0.950 . S
C505 C506 1.478 . S
C506 C493 1.394 . S
C506 C505 1.478 . S
C506 C507 1.397 . S
C507 C506 1.397 . S
C507 C508 1.438 . S
C507 C512 1.429 . S
C508 C491 1.394 . S
C508 C507 1.438 . S
C508 C509 1.428 . S
C509 H501 0.949 . S
C509 C508 1.428 . S
C509 C510 1.345 . S
C510 H502 0.950 . S
C510 C509 1.345 . S
C510 C511 1.424 . S
C511 H503 0.951 . S
C511 C510 1.424 . S
C511 C512 1.347 . S
C512 H504 0.951 . S
C512 C507 1.429 . S
C512 C511 1.347 . S
H513 C514 0.951 . S
C514 H513 0.951 . S
C514 C520 1.265 1_655 S
H515 C520 0.950 . S
H516 C524 0.949 . S
H517 C525 0.950 . S
H518 C526 0.951 . S
H519 C527 0.951 . S
C520 C514 1.265 1_455 S
C520 H515 0.950 . S
C520 C521 1.484 . S
C521 C520 1.484 . S
C521 C522 1.388 1_455 S
C521 C538 1.397 . S
C522 C521 1.388 1_655 S
C522 C523 1.438 . S
C522 C527 1.429 . S
C523 C522 1.438 . S
C523 C524 1.428 . S
C523 C536 1.394 . S
C524 H516 0.949 . S
C524 C523 1.428 . S
C524 C525 1.345 . S
C525 H517 0.950 . S
C525 C524 1.345 . S
C525 C526 1.424 . S
C526 H518 0.951 . S
C526 C525 1.424 . S
C526 C527 1.347 . S
C527 H519 0.951 . S
C527 C522 1.429 . S
C527 C526 1.347 . S
H528 C529 0.951 . S
C529 H528 0.951 . S
C529 C535 1.265 1_455 S
H530 C535 0.950 . S
H531 C539 0.949 . S
H532 C540 0.950 . S
H533 C541 0.951 . S
H534 C542 0.951 . S
C535 C529 1.265 1_655 S
C535 H530 0.950 . S
C535 C536 1.478 . S
C536 C523 1.394 . S
C536 C535 1.478 . S
C536 C537 1.397 1_655 S
C537 C536 1.397 1_455 S
C537 C538 1.438 . S
C537 C542 1.429 . S
C538 C521 1.397 . S
C538 C537 1.438 . S
C538 C539 1.428 . S
C539 H531 0.949 . S
C539 C538 1.428 . S
C539 C540 1.345 . S
C540 H532 0.950 . S
C540 C539 1.345 . S
C540 C541 1.424 . S
C541 H533 0.951 . S
C541 C540 1.424 . S
C541 C542 1.347 . S
C542 H534 0.951 . S
C542 C537 1.429 . S
C542 C541 1.347 . S
C199 C60 1.516 . S
C184 C10 1.522 . S
C214 C17 1.530 . S
C229 C108 1.534 . S
C244 C36 1.519 . S
C259 C180 1.531 . S
C274 C5 1.521 . S
C289 C84 1.510 . S
C319 C132 1.526 . S
C304 C16 1.513 . S
C334 C31 1.525 . S
C349 C156 1.529 . S
C379 C117 1.523 1_545 S
C364 C30 1.519 . S
C394 C3 1.557 . S
C409 C171 1.522 . S
C439 C75 1.511 1_655 S
C424 C18 1.526 . S
C469 C123 1.530 . S
C454 C29 1.528 . S
C499 C165 1.520 . S
C484 C4 1.519 . S
C514 C23 1.519 . S
C529 C69 1.526 1_455 S
