# Generated by pormake.
# Topology ssb, (4,4)-cn, num edge types: 1
# Building blocks:
#     Node 0, Type 0, BuildingBlock: MUDLON_clean_linker_0, # of connection points: 4
#     Node 1, Type 0, BuildingBlock: MUDLON_clean_linker_0, # of connection points: 4
#     Node 2, Type 0, BuildingBlock: MUDLON_clean_linker_0, # of connection points: 4
#     Node 3, Type 0, BuildingBlock: MUDLON_clean_linker_0, # of connection points: 4
#     Node 4, Type 0, BuildingBlock: MUDLON_clean_linker_0, # of connection points: 4
#     Node 5, Type 0, BuildingBlock: MUDLON_clean_linker_0, # of connection points: 4
#     Node 6, Type 0, BuildingBlock: MUDLON_clean_linker_0, # of connection points: 4
#     Node 7, Type 0, BuildingBlock: MUDLON_clean_linker_0, # of connection points: 4
#     Node 8, Type 1, BuildingBlock: KOZSID_clean_sbu_0, # of connection points: 4
#     Node 9, Type 1, BuildingBlock: KOZSID_clean_sbu_0, # of connection points: 4
#     Node 10, Type 1, BuildingBlock: KOZSID_clean_sbu_0, # of connection points: 4
#     Node 11, Type 1, BuildingBlock: KOZSID_clean_sbu_0, # of connection points: 4
#     Node 12, Type 1, BuildingBlock: KOZSID_clean_sbu_0, # of connection points: 4
#     Node 13, Type 1, BuildingBlock: KOZSID_clean_sbu_0, # of connection points: 4
#     Node 14, Type 1, BuildingBlock: KOZSID_clean_sbu_0, # of connection points: 4
#     Node 15, Type 1, BuildingBlock: KOZSID_clean_sbu_0, # of connection points: 4
#     Edge 16, Type (0, 1), BuildingBlock: OJICUG_clean_linker_0, # of connection points: 2
#     Edge 17, Type (0, 1), BuildingBlock: OJICUG_clean_linker_0, # of connection points: 2
#     Edge 18, Type (0, 1), BuildingBlock: OJICUG_clean_linker_0, # of connection points: 2
#     Edge 19, Type (0, 1), BuildingBlock: OJICUG_clean_linker_0, # of connection points: 2
#     Edge 20, Type (0, 1), BuildingBlock: OJICUG_clean_linker_0, # of connection points: 2
#     Edge 21, Type (0, 1), BuildingBlock: OJICUG_clean_linker_0, # of connection points: 2
#     Edge 22, Type (0, 1), BuildingBlock: OJICUG_clean_linker_0, # of connection points: 2
#     Edge 23, Type (0, 1), BuildingBlock: OJICUG_clean_linker_0, # of connection points: 2
#     Edge 24, Type (0, 1), BuildingBlock: OJICUG_clean_linker_0, # of connection points: 2
#     Edge 25, Type (0, 1), BuildingBlock: OJICUG_clean_linker_0, # of connection points: 2
#     Edge 26, Type (0, 1), BuildingBlock: OJICUG_clean_linker_0, # of connection points: 2
#     Edge 27, Type (0, 1), BuildingBlock: OJICUG_clean_linker_0, # of connection points: 2
#     Edge 28, Type (0, 1), BuildingBlock: OJICUG_clean_linker_0, # of connection points: 2
#     Edge 29, Type (0, 1), BuildingBlock: OJICUG_clean_linker_0, # of connection points: 2
#     Edge 30, Type (0, 1), BuildingBlock: OJICUG_clean_linker_0, # of connection points: 2
#     Edge 31, Type (0, 1), BuildingBlock: OJICUG_clean_linker_0, # of connection points: 2
#     Edge 32, Type (0, 1), BuildingBlock: OJICUG_clean_linker_0, # of connection points: 2
#     Edge 33, Type (0, 1), BuildingBlock: OJICUG_clean_linker_0, # of connection points: 2
#     Edge 34, Type (0, 1), BuildingBlock: OJICUG_clean_linker_0, # of connection points: 2
#     Edge 35, Type (0, 1), BuildingBlock: OJICUG_clean_linker_0, # of connection points: 2
#     Edge 36, Type (0, 1), BuildingBlock: OJICUG_clean_linker_0, # of connection points: 2
#     Edge 37, Type (0, 1), BuildingBlock: OJICUG_clean_linker_0, # of connection points: 2
#     Edge 38, Type (0, 1), BuildingBlock: OJICUG_clean_linker_0, # of connection points: 2
#     Edge 39, Type (0, 1), BuildingBlock: OJICUG_clean_linker_0, # of connection points: 2
#     Edge 40, Type (0, 1), BuildingBlock: OJICUG_clean_linker_0, # of connection points: 2
#     Edge 41, Type (0, 1), BuildingBlock: OJICUG_clean_linker_0, # of connection points: 2
#     Edge 42, Type (0, 1), BuildingBlock: OJICUG_clean_linker_0, # of connection points: 2
#     Edge 43, Type (0, 1), BuildingBlock: OJICUG_clean_linker_0, # of connection points: 2
#     Edge 44, Type (0, 1), BuildingBlock: OJICUG_clean_linker_0, # of connection points: 2
#     Edge 45, Type (0, 1), BuildingBlock: OJICUG_clean_linker_0, # of connection points: 2
#     Edge 46, Type (0, 1), BuildingBlock: OJICUG_clean_linker_0, # of connection points: 2
#     Edge 47, Type (0, 1), BuildingBlock: OJICUG_clean_linker_0, # of connection points: 2
# Relax obj value: 0.004
# Max RMSD: 0.064
# Mean RMSD: 0.026
data_MOF--net-ssb--node1-KOZSID_clean_sbu_0--node2-MUDLON_clean_linker_0--edge1-OJICUG_clean_linker_0
_symmetry_space_group_name_H-M    P1
_symmetry_Int_Tables_number       1
_symmetry_cell_setting            triclinic
loop_
_symmetry_equiv_pos_as_xyz
'x, y, z'
_cell_length_a     56.971716
_cell_length_b     56.878214
_cell_length_c     41.994837
_cell_angle_alpha  92.668411
_cell_angle_beta   95.207589
_cell_angle_gamma 89.98634
loop_
_atom_site_label
_atom_site_type_symbol
_atom_site_fract_x
_atom_site_fract_y
_atom_site_fract_z
_atom_type_partial_charge
H0 H 0.27879 0.30214 0.12776 0.0
N1 N 0.29633 0.29526 0.18722 0.0
H2 H 0.27096 0.33984 0.10303 0.0
H3 H 0.29533 0.33863 0.2193 0.0
H4 H 0.28755 0.37624 0.19482 0.0
H5 H 0.33563 0.32211 0.20458 0.0
H6 H 0.37438 0.31609 0.18556 0.0
H7 H 0.31123 0.25696 0.15648 0.0
H8 H 0.35048 0.24982 0.13895 0.0
H9 H 0.26367 0.26266 0.19138 0.0
H10 H 0.3122 0.30853 0.24904 0.0
H11 H 0.25114 0.24589 0.23951 0.0
H12 H 0.29851 0.29349 0.29754 0.0
H13 H 0.20192 0.20822 0.37497 0.0
H14 H 0.16339 0.21765 0.39282 0.0
H15 H 0.19119 0.28351 0.43626 0.0
H16 H 0.23012 0.27317 0.41957 0.0
H17 H 0.25547 0.22205 0.44911 0.0
H18 H 0.26219 0.183 0.46921 0.0
H19 H 0.25284 0.15314 0.37215 0.0
H20 H 0.24435 0.19231 0.35273 0.0
H21 H 0.21696 0.23461 0.33082 0.0
H22 H 0.22973 0.25058 0.28265 0.0
H23 H 0.29931 0.26279 0.33105 0.0
N24 N 0.24267 0.23344 0.38956 0.0
H25 H 0.28559 0.24848 0.38006 0.0
C26 C 0.28754 0.31735 0.17536 0.0
C27 C 0.28013 0.31822 0.14267 0.0
C28 C 0.2759 0.33978 0.12855 0.0
C29 C 0.27886 0.36104 0.14691 0.0
C30 C 0.28496 0.36016 0.18006 0.0
C31 C 0.28941 0.33855 0.19414 0.0
C32 C 0.3204 0.29011 0.18142 0.0
C33 C 0.33879 0.30619 0.19053 0.0
C34 C 0.3611 0.30259 0.17975 0.0
C35 C 0.36565 0.2826 0.16017 0.0
C36 C 0.34756 0.26576 0.15313 0.0
C37 C 0.32517 0.2696 0.16347 0.0
C38 C 0.28844 0.28715 0.21651 0.0
C39 C 0.27121 0.26948 0.21458 0.0
C40 C 0.26397 0.26003 0.24228 0.0
C41 C 0.27356 0.26833 0.27286 0.0
C42 C 0.29084 0.28626 0.27465 0.0
C43 C 0.29843 0.29532 0.24682 0.0
C44 C 0.21902 0.23991 0.39637 0.0
C45 C 0.1997 0.22472 0.38822 0.0
C46 C 0.17754 0.2303 0.39825 0.0
C47 C 0.17406 0.25132 0.41628 0.0
C48 C 0.19324 0.26695 0.42305 0.0
C49 C 0.21546 0.26122 0.41329 0.0
C50 C 0.24965 0.21025 0.39951 0.0
C51 C 0.25518 0.20706 0.4322 0.0
C52 C 0.25919 0.18459 0.44359 0.0
C53 C 0.25821 0.16456 0.42245 0.0
C54 C 0.25339 0.16791 0.38939 0.0
C55 C 0.24886 0.19045 0.37808 0.0
C56 C 0.25023 0.24074 0.3595 0.0
C57 C 0.23491 0.24087 0.33126 0.0
C58 C 0.24242 0.24984 0.30337 0.0
C59 C 0.26563 0.25831 0.3026 0.0
C60 C 0.28113 0.25718 0.33063 0.0
C61 C 0.27343 0.24869 0.35869 0.0
H62 H 0.70992 0.34021 0.17545 0.0
N63 N 0.73623 0.30048 0.16616 0.0
H64 H 0.72012 0.38006 0.16348 0.0
H65 H 0.77628 0.31518 0.14555 0.0
H66 H 0.78748 0.3555 0.13543 0.0
H67 H 0.71649 0.29577 0.10649 0.0
H68 H 0.67506 0.29007 0.08851 0.0
H69 H 0.70038 0.29219 0.20462 0.0
H70 H 0.65953 0.28407 0.18687 0.0
H71 H 0.73913 0.32499 0.22446 0.0
H72 H 0.75372 0.25812 0.17774 0.0
H73 H 0.75688 0.3115 0.27487 0.0
H74 H 0.76983 0.24359 0.229 0.0
H75 H 0.82235 0.24741 0.43791 0.0
H76 H 0.86216 0.2559 0.46171 0.0
H77 H 0.88243 0.27417 0.36921 0.0
H78 H 0.84329 0.26459 0.34539 0.0
H79 H 0.83921 0.2114 0.36137 0.0
H80 H 0.8369 0.16946 0.37131 0.0
H81 H 0.76831 0.18013 0.40564 0.0
H82 H 0.77082 0.22216 0.39589 0.0
H83 H 0.77161 0.27495 0.36758 0.0
H84 H 0.75254 0.28764 0.31684 0.0
H85 H 0.80239 0.24638 0.26607 0.0
N86 N 0.80707 0.24508 0.37633 0.0
H87 H 0.81997 0.23259 0.31664 0.0
C88 C 0.74216 0.32455 0.16051 0.0
C89 C 0.72677 0.34331 0.16638 0.0
C90 C 0.73286 0.36626 0.16004 0.0
C91 C 0.75465 0.3711 0.14837 0.0
C92 C 0.77035 0.3524 0.14374 0.0
C93 C 0.76407 0.32937 0.1496 0.0
C94 C 0.71183 0.29436 0.15675 0.0
C95 C 0.7041 0.29311 0.12409 0.0
C96 C 0.68031 0.2896 0.11388 0.0
C97 C 0.66362 0.28653 0.13614 0.0
C98 C 0.67157 0.2869 0.16891 0.0
C99 C 0.69525 0.2912 0.17917 0.0
C100 C 0.7457 0.2927 0.19695 0.0
C101 C 0.74612 0.30734 0.22499 0.0
C102 C 0.75599 0.2994 0.25412 0.0
C103 C 0.76499 0.27644 0.25618 0.0
C104 C 0.76371 0.26159 0.22828 0.0
C105 C 0.75433 0.26974 0.19898 0.0
C106 C 0.82955 0.25476 0.38978 0.0
C107 C 0.83531 0.25359 0.42286 0.0
C108 C 0.85812 0.25858 0.43645 0.0
C109 C 0.87573 0.26539 0.4173 0.0
C110 C 0.86954 0.26828 0.38454 0.0
C111 C 0.84682 0.26286 0.37083 0.0
C112 C 0.80525 0.21994 0.3785 0.0
C113 C 0.82353 0.20467 0.37061 0.0
C114 C 0.8222 0.18074 0.37623 0.0
C115 C 0.80246 0.17163 0.38927 0.0
C116 C 0.78362 0.18666 0.39524 0.0
C117 C 0.78507 0.21063 0.38996 0.0
C118 C 0.79737 0.25322 0.34596 0.0
C119 C 0.77836 0.26878 0.3454 0.0
C120 C 0.7676 0.27607 0.31634 0.0
C121 C 0.77596 0.26819 0.28716 0.0
C122 C 0.79512 0.25254 0.28788 0.0
C123 C 0.80545 0.24483 0.31689 0.0
H124 H 0.81867 0.8055 0.45395 0.0
N125 N 0.79778 0.80964 0.39537 0.0
H126 H 0.86006 0.79794 0.46963 0.0
H127 H 0.83227 0.79988 0.35455 0.0
H128 H 0.873 0.79024 0.36969 0.0
H129 H 0.8171 0.84847 0.37199 0.0
H130 H 0.81183 0.88937 0.39099 0.0
H131 H 0.76707 0.82555 0.43506 0.0
H132 H 0.76136 0.86636 0.45396 0.0
H133 H 0.76942 0.77287 0.39676 0.0
H134 H 0.79717 0.82009 0.3322 0.0
H135 H 0.74862 0.75079 0.35167 0.0
H136 H 0.77792 0.79718 0.28651 0.0
H137 H 0.69999 0.67051 0.21585 0.0
H138 H 0.71547 0.63661 0.18666 0.0
H139 H 0.7637 0.6824 0.14508 0.0
H140 H 0.74793 0.71634 0.17469 0.0
H141 H 0.71319 0.73945 0.15837 0.0
H142 H 0.67939 0.75386 0.12476 0.0
H143 H 0.63262 0.72865 0.19132 0.0
H144 H 0.66667 0.7148 0.225 0.0
H145 H 0.73225 0.70071 0.26772 0.0
H146 H 0.7541 0.7239 0.31072 0.0
H147 H 0.74351 0.78617 0.25586 0.0
N148 N 0.71165 0.7154 0.21289 0.0
H149 H 0.72336 0.76244 0.21207 0.0
C150 C 0.82209 0.80314 0.40319 0.0
C151 C 0.8305 0.8021 0.43549 0.0
C152 C 0.85422 0.79751 0.44436 0.0
C153 C 0.87019 0.79331 0.42101 0.0
C154 C 0.86155 0.79381 0.38852 0.0
C155 C 0.83792 0.79905 0.37971 0.0
C156 C 0.79237 0.83402 0.40213 0.0
C157 C 0.80452 0.85234 0.38932 0.0
C158 C 0.80149 0.87571 0.40028 0.0
C159 C 0.78633 0.88115 0.42428 0.0
C160 C 0.77346 0.86279 0.43589 0.0
C161 C 0.77648 0.8395 0.4249 0.0
C162 C 0.78501 0.79789 0.36791 0.0
C163 C 0.77112 0.77833 0.37271 0.0
C164 C 0.75949 0.76555 0.34674 0.0
C165 C 0.76186 0.77175 0.31506 0.0
C166 C 0.77544 0.79182 0.31037 0.0
C167 C 0.78667 0.80492 0.33654 0.0
C168 C 0.72274 0.69581 0.19732 0.0
C169 C 0.71412 0.67312 0.20075 0.0
C170 C 0.72309 0.65379 0.18416 0.0
C171 C 0.74089 0.65675 0.16355 0.0
C172 C 0.74987 0.67955 0.16057 0.0
C173 C 0.74094 0.69894 0.17746 0.0
C174 C 0.69235 0.72604 0.1942 0.0
C175 C 0.69568 0.73729 0.16585 0.0
C176 C 0.6763 0.74541 0.14659 0.0
C177 C 0.65321 0.74234 0.15521 0.0
C178 C 0.6501 0.73166 0.18411 0.0
C179 C 0.66949 0.72362 0.20335 0.0
C180 C 0.72593 0.72964 0.23665 0.0
C181 C 0.73497 0.71931 0.26481 0.0
C182 C 0.74719 0.73276 0.28963 0.0
C183 C 0.75026 0.75719 0.28735 0.0
C184 C 0.74173 0.76745 0.25865 0.0
C185 C 0.72993 0.75381 0.23347 0.0
H186 H 0.30856 0.75081 0.08341 0.0
N187 N 0.29523 0.7395 0.13957 0.0
H188 H 0.34821 0.76073 0.0704 0.0
H189 H 0.33423 0.74794 0.18302 0.0
H190 H 0.3734 0.75849 0.17042 0.0
H191 H 0.32392 0.70442 0.16329 0.0
H192 H 0.31873 0.66228 0.15177 0.0
H193 H 0.26069 0.718 0.10255 0.0
H194 H 0.25527 0.67557 0.09097 0.0
H195 H 0.26228 0.7725 0.14045 0.0
H196 H 0.30393 0.72668 0.2018 0.0
H197 H 0.24259 0.78792 0.1864 0.0
H198 H 0.286 0.74305 0.24784 0.0
H199 H 0.20179 0.84417 0.32086 0.0
H200 H 0.20858 0.88456 0.34201 0.0
H201 H 0.2745 0.86352 0.39129 0.0
H202 H 0.2673 0.82282 0.37063 0.0
H203 H 0.22253 0.79079 0.39429 0.0
H204 H 0.18523 0.78346 0.41652 0.0
H205 H 0.14763 0.7971 0.32517 0.0
H206 H 0.18526 0.80472 0.30329 0.0
H207 H 0.23179 0.82856 0.28061 0.0
H208 H 0.24712 0.81203 0.23255 0.0
H209 H 0.25256 0.74395 0.2745 0.0
N210 N 0.22872 0.80586 0.33697 0.0
H211 H 0.23905 0.76124 0.32373 0.0
C212 C 0.31813 0.7486 0.13405 0.0
C213 C 0.32258 0.75287 0.10255 0.0
C214 C 0.34525 0.75863 0.09522 0.0
C215 C 0.36405 0.76029 0.11938 0.0
C216 C 0.3594 0.75699 0.15117 0.0
C217 C 0.33676 0.75111 0.15845 0.0
C218 C 0.29261 0.71442 0.13367 0.0
C219 C 0.30881 0.69836 0.14764 0.0
C220 C 0.30577 0.67421 0.14116 0.0
C221 C 0.28658 0.66562 0.12051 0.0
C222 C 0.27035 0.68169 0.10674 0.0
C223 C 0.27334 0.70586 0.11337 0.0
C224 C 0.2848 0.74875 0.16756 0.0
C225 C 0.26742 0.76606 0.16392 0.0
C226 C 0.2563 0.77491 0.19029 0.0
C227 C 0.26264 0.76681 0.22107 0.0
C228 C 0.28018 0.74944 0.22457 0.0
C229 C 0.29085 0.74027 0.19813 0.0
C230 C 0.23392 0.83037 0.34476 0.0
C231 C 0.21777 0.8482 0.33601 0.0
C232 C 0.22169 0.87129 0.34798 0.0
C233 C 0.24196 0.87702 0.36841 0.0
C234 C 0.2588 0.85954 0.37542 0.0
C235 C 0.25472 0.83635 0.36377 0.0
C236 C 0.20664 0.79825 0.34732 0.0
C237 C 0.20624 0.79169 0.37896 0.0
C238 C 0.18491 0.78748 0.39153 0.0
C239 C 0.16343 0.78975 0.37262 0.0
C240 C 0.16387 0.79547 0.34043 0.0
C241 C 0.18532 0.79964 0.32782 0.0
C242 C 0.23471 0.7962 0.30635 0.0
C243 C 0.2363 0.8101 0.27972 0.0
C244 C 0.2449 0.80049 0.25184 0.0
C245 C 0.25153 0.77666 0.2496 0.0
C246 C 0.24845 0.76254 0.27557 0.0
C247 C 0.24042 0.77229 0.30366 0.0
H248 H 0.21818 0.8568 0.67759 0.0
N249 N 0.24 0.81601 0.66008 0.0
H250 H 0.22625 0.89613 0.65995 0.0
H251 H 0.2761 0.82893 0.62872 0.0
H252 H 0.28491 0.86835 0.61174 0.0
H253 H 0.22254 0.80872 0.59958 0.0
H254 H 0.18191 0.80057 0.5792 0.0
H255 H 0.20262 0.81074 0.69623 0.0
H256 H 0.16239 0.8002 0.6765 0.0
H257 H 0.25062 0.8389 0.71917 0.0
H258 H 0.2494 0.77095 0.66905 0.0
H259 H 0.26583 0.82112 0.76821 0.0
H260 H 0.26267 0.75257 0.71867 0.0
H261 H 0.32029 0.75484 0.92584 0.0
H262 H 0.36108 0.7616 0.94663 0.0
H263 H 0.38164 0.75859 0.8498 0.0
H264 H 0.3414 0.74975 0.82969 0.0
H265 H 0.32153 0.70341 0.84434 0.0
H266 H 0.31395 0.66459 0.86359 0.0
H267 H 0.26594 0.69586 0.92751 0.0
H268 H 0.27236 0.73419 0.90605 0.0
H269 H 0.27504 0.78208 0.85948 0.0
H270 H 0.25828 0.79906 0.81016 0.0
H271 H 0.29341 0.74565 0.75521 0.0
N272 N 0.30338 0.74518 0.86569 0.0
H273 H 0.30823 0.72793 0.80442 0.0
C274 C 0.24651 0.8399 0.65425 0.0
C275 C 0.23296 0.85928 0.66359 0.0
C276 C 0.23769 0.8818 0.65357 0.0
C277 C 0.25612 0.88546 0.63409 0.0
C278 C 0.2703 0.86616 0.62615 0.0
C279 C 0.26549 0.84366 0.6361 0.0
C280 C 0.21579 0.81009 0.64931 0.0
C281 C 0.2094 0.80689 0.61641 0.0
C282 C 0.18609 0.80191 0.60486 0.0
C283 C 0.16852 0.79935 0.62604 0.0
C284 C 0.17509 0.80234 0.6592 0.0
C285 C 0.19832 0.80808 0.67067 0.0
C286 C 0.24922 0.8063 0.68997 0.0
C287 C 0.25354 0.82011 0.7186 0.0
C288 C 0.26197 0.80974 0.74701 0.0
C289 C 0.26563 0.78523 0.74785 0.0
C290 C 0.26079 0.77151 0.7192 0.0
C291 C 0.25298 0.78196 0.69069 0.0
C292 C 0.32745 0.75181 0.87626 0.0
C293 C 0.33364 0.75578 0.90914 0.0
C294 C 0.35706 0.75988 0.92095 0.0
C295 C 0.375 0.76069 0.90002 0.0
C296 C 0.3686 0.75758 0.86688 0.0
C297 C 0.34523 0.75279 0.85517 0.0
C298 C 0.29705 0.72166 0.87328 0.0
C299 C 0.30865 0.70172 0.86151 0.0
C300 C 0.30465 0.67953 0.87318 0.0
C301 C 0.28945 0.67685 0.8975 0.0
C302 C 0.27742 0.69687 0.90845 0.0
C303 C 0.2811 0.71892 0.8963 0.0
C304 C 0.29305 0.7539 0.83583 0.0
C305 C 0.27882 0.77395 0.83667 0.0
C306 C 0.2695 0.7838 0.80833 0.0
C307 C 0.27461 0.77406 0.77826 0.0
C308 C 0.28863 0.75362 0.77759 0.0
C309 C 0.2974 0.74346 0.80596 0.0
H310 H 0.31754 0.30252 0.97578 0.0
N311 N 0.29533 0.30449 0.91751 0.0
H312 H 0.35923 0.29494 0.99005 0.0
H313 H 0.32758 0.28642 0.87628 0.0
H314 H 0.36849 0.27814 0.89058 0.0
H315 H 0.32466 0.33978 0.90262 0.0
H316 H 0.32024 0.38177 0.91467 0.0
H317 H 0.2613 0.32562 0.94746 0.0
H318 H 0.25661 0.36792 0.95943 0.0
H319 H 0.26195 0.27153 0.90744 0.0
H320 H 0.30182 0.32055 0.8583 0.0
H321 H 0.24138 0.25775 0.85625 0.0
H322 H 0.28278 0.30612 0.80746 0.0
H323 H 0.20609 0.20109 0.70724 0.0
H324 H 0.21987 0.16315 0.68848 0.0
H325 H 0.28285 0.19599 0.66051 0.0
H326 H 0.26801 0.2345 0.67783 0.0
H327 H 0.21422 0.26271 0.64627 0.0
H328 H 0.17419 0.26806 0.62157 0.0
H329 H 0.14642 0.23935 0.70416 0.0
H330 H 0.18651 0.23537 0.72923 0.0
H331 H 0.23172 0.21958 0.75724 0.0
H332 H 0.24651 0.23525 0.80993 0.0
H333 H 0.24907 0.30492 0.77304 0.0
N334 N 0.2272 0.24397 0.70172 0.0
H335 H 0.23618 0.28856 0.71963 0.0
C336 C 0.31907 0.29577 0.92498 0.0
C337 C 0.32851 0.29691 0.9571 0.0
C338 C 0.35236 0.29246 0.96522 0.0
C339 C 0.36734 0.28634 0.94135 0.0
C340 C 0.35761 0.28353 0.90946 0.0
C341 C 0.33386 0.28828 0.90127 0.0
C342 C 0.29322 0.32951 0.92423 0.0
C343 C 0.30969 0.34572 0.9149 0.0
C344 C 0.30709 0.36977 0.92167 0.0
C345 C 0.28804 0.37814 0.93791 0.0
C346 C 0.27159 0.36195 0.94715 0.0
C347 C 0.27416 0.33786 0.94027 0.0
C348 C 0.28351 0.29689 0.88686 0.0
C349 C 0.26634 0.2792 0.8856 0.0
C350 C 0.25474 0.27128 0.85627 0.0
C351 C 0.26038 0.28074 0.82749 0.0
C352 C 0.27744 0.29873 0.82898 0.0
C353 C 0.28859 0.30695 0.85825 0.0
C354 C 0.23581 0.22086 0.69322 0.0
C355 C 0.22277 0.20031 0.69691 0.0
C356 C 0.23094 0.1784 0.68661 0.0
C357 C 0.2525 0.17641 0.67284 0.0
C358 C 0.26597 0.19689 0.67045 0.0
C359 C 0.25762 0.21888 0.68046 0.0
C360 C 0.20331 0.24851 0.6893 0.0
C361 C 0.19941 0.25791 0.6591 0.0
C362 C 0.17653 0.2607 0.64496 0.0
C363 C 0.15702 0.2538 0.66063 0.0
C364 C 0.16097 0.24504 0.69146 0.0
C365 C 0.1839 0.24258 0.70578 0.0
C366 C 0.23355 0.25285 0.73409 0.0
C367 C 0.23564 0.23818 0.76028 0.0
C368 C 0.24382 0.2473 0.79074 0.0
C369 C 0.24943 0.27136 0.79587 0.0
C370 C 0.24576 0.28618 0.76995 0.0
C371 C 0.23817 0.27694 0.73941 0.0
H372 H 0.81643 0.23195 0.66497 0.0
N373 N 0.81919 0.21629 0.72584 0.0
H374 H 0.84943 0.24474 0.63662 0.0
H375 H 0.8632 0.22434 0.75033 0.0
H376 H 0.89628 0.23794 0.7226 0.0
H377 H 0.83594 0.17376 0.73782 0.0
H378 H 0.82545 0.13659 0.70834 0.0
H379 H 0.78198 0.20927 0.67983 0.0
H380 H 0.77092 0.17226 0.65092 0.0
H381 H 0.78687 0.24729 0.69955 0.0
H382 H 0.81783 0.22181 0.78867 0.0
H383 H 0.76195 0.27392 0.72841 0.0
H384 H 0.79448 0.2498 0.81818 0.0
H385 H 0.70186 0.37304 0.83302 0.0
H386 H 0.71499 0.40925 0.86299 0.0
H387 H 0.76933 0.3703 0.91614 0.0
H388 H 0.75584 0.33405 0.886 0.0
H389 H 0.71987 0.3168 0.9045 0.0
H390 H 0.68694 0.30541 0.93386 0.0
H391 H 0.63989 0.3088 0.84761 0.0
H392 H 0.67306 0.3206 0.81831 0.0
H393 H 0.7355 0.33528 0.78697 0.0
H394 H 0.76075 0.30837 0.75881 0.0
H395 H 0.7583 0.25953 0.83446 0.0
N396 N 0.71727 0.32965 0.84214 0.0
H397 H 0.73475 0.28732 0.86335 0.0
C398 C 0.83748 0.22693 0.70974 0.0
C399 C 0.83373 0.23347 0.67781 0.0
C400 C 0.85265 0.24093 0.66165 0.0
C401 C 0.87563 0.24212 0.67717 0.0
C402 C 0.87896 0.23677 0.70966 0.0
C403 C 0.86008 0.22919 0.72567 0.0
C404 C 0.8098 0.19435 0.7113 0.0
C405 C 0.82141 0.17341 0.71929 0.0
C406 C 0.81533 0.15216 0.70243 0.0
C407 C 0.7974 0.15137 0.67703 0.0
C408 C 0.78507 0.17224 0.66997 0.0
C409 C 0.79124 0.1935 0.6868 0.0
C410 C 0.80381 0.23204 0.74199 0.0
C411 C 0.78818 0.24726 0.72538 0.0
C412 C 0.77421 0.26293 0.74212 0.0
C413 C 0.77601 0.26425 0.77591 0.0
C414 C 0.79199 0.24909 0.7923 0.0
C415 C 0.80554 0.23312 0.77549 0.0
C416 C 0.7278 0.35092 0.85722 0.0
C417 C 0.7169 0.37245 0.85069 0.0
C418 C 0.72449 0.39312 0.86782 0.0
C419 C 0.7432 0.39271 0.89208 0.0
C420 C 0.75471 0.3712 0.89787 0.0
C421 C 0.74714 0.35049 0.88053 0.0
C422 C 0.69887 0.31986 0.85913 0.0
C423 C 0.70256 0.31498 0.89176 0.0
C424 C 0.68369 0.30848 0.90857 0.0
C425 C 0.6608 0.30643 0.8931 0.0
C426 C 0.65735 0.31012 0.86014 0.0
C427 C 0.67623 0.31689 0.84339 0.0
C428 C 0.73291 0.31341 0.82708 0.0
C429 C 0.74066 0.31884 0.79754 0.0
C430 C 0.75488 0.3032 0.78128 0.0
C431 C 0.76148 0.28139 0.79392 0.0
C432 C 0.75396 0.27616 0.82391 0.0
C433 C 0.74014 0.29207 0.84049 0.0
H434 H 0.78372 0.81351 0.59266 0.0
N435 N 0.79569 0.79591 0.64913 0.0
H436 H 0.77514 0.85455 0.5813 0.0
H437 H 0.79082 0.83201 0.6938 0.0
H438 H 0.78161 0.8728 0.6828 0.0
H439 H 0.83287 0.82295 0.67635 0.0
H440 H 0.87356 0.81918 0.66398 0.0
H441 H 0.81474 0.75913 0.62019 0.0
H442 H 0.85593 0.75387 0.61007 0.0
H443 H 0.7604 0.76625 0.63375 0.0
H444 H 0.80445 0.7961 0.7142 0.0
H445 H 0.73826 0.74434 0.66967 0.0
H446 H 0.78126 0.77582 0.75087 0.0
H447 H 0.65979 0.68654 0.7942 0.0
H448 H 0.62836 0.70125 0.82524 0.0
H449 H 0.66986 0.76361 0.85413 0.0
H450 H 0.70171 0.748 0.82415 0.0
H451 H 0.72304 0.71412 0.8533 0.0
H452 H 0.73781 0.68503 0.89108 0.0
H453 H 0.72447 0.62981 0.81756 0.0
H454 H 0.70932 0.6591 0.77982 0.0
H455 H 0.68757 0.72508 0.73899 0.0
H456 H 0.71017 0.7487 0.70566 0.0
H457 H 0.77236 0.73992 0.77109 0.0
N458 N 0.70242 0.70471 0.79263 0.0
H459 H 0.7494 0.71806 0.80536 0.0
C460 C 0.78784 0.81962 0.6439 0.0
C461 C 0.78287 0.82635 0.61239 0.0
C462 C 0.77785 0.84976 0.60602 0.0
C463 C 0.77771 0.86695 0.63119 0.0
C464 C 0.78182 0.86001 0.6629 0.0
C465 C 0.78689 0.83658 0.66923 0.0
C466 C 0.82056 0.79167 0.64818 0.0
C467 C 0.83772 0.80781 0.66189 0.0
C468 C 0.8612 0.80545 0.65505 0.0
C469 C 0.86811 0.78653 0.6352 0.0
C470 C 0.85121 0.76921 0.62431 0.0
C471 C 0.82767 0.77195 0.63042 0.0
C472 C 0.78368 0.78297 0.67135 0.0
C473 C 0.76504 0.76822 0.65933 0.0
C474 C 0.75225 0.75597 0.68 0.0
C475 C 0.75758 0.75859 0.71338 0.0
C476 C 0.77666 0.7732 0.72538 0.0
C477 C 0.7898 0.78507 0.7045 0.0
C478 C 0.68297 0.71611 0.80673 0.0
C479 C 0.66184 0.70359 0.80674 0.0
C480 C 0.64385 0.71214 0.82444 0.0
C481 C 0.64651 0.73367 0.84237 0.0
C482 C 0.66733 0.74681 0.84106 0.0
C483 C 0.68547 0.73805 0.8236 0.0
C484 C 0.71474 0.68863 0.8138 0.0
C485 C 0.7235 0.69581 0.84517 0.0
C486 C 0.73195 0.67921 0.86672 0.0
C487 C 0.73204 0.65521 0.85725 0.0
C488 C 0.7247 0.64824 0.82537 0.0
C489 C 0.71602 0.66486 0.80387 0.0
C490 C 0.71651 0.71952 0.77463 0.0
C491 C 0.70602 0.72854 0.74631 0.0
C492 C 0.7191 0.74181 0.72708 0.0
C493 C 0.7433 0.74595 0.73527 0.0
C494 C 0.75376 0.73735 0.76406 0.0
C495 C 0.74051 0.72451 0.7837 0.0
C496 C 0.05182 0.27998 0.59029 0.0
C497 C 0.05907 0.30086 0.60672 0.0
C498 C 0.04651 0.31847 0.5923 0.0
C499 C 0.03238 0.30743 0.56799 0.0
N500 N 0.03494 0.28377 0.56624 0.0
Co501 Co 0.01812 0.26095 0.53414 0.0
N502 N 0.00185 0.2871 0.51079 0.0
C503 C 0.00552 0.31045 0.51644 0.0
C504 C 0.99166 0.32411 0.49632 0.0
C505 C 0.97805 0.30853 0.47702 0.0
C506 C 0.98436 0.28624 0.48673 0.0
N507 N 0.00031 0.23809 0.50299 0.0
C508 C 0.98207 0.24192 0.48081 0.0
C509 C 0.97302 0.22094 0.46644 0.0
C510 C 0.98586 0.20324 0.48019 0.0
C511 C 0.00179 0.21432 0.50228 0.0
N512 N 0.03521 0.23481 0.55666 0.0
C513 C 0.03355 0.21151 0.54872 0.0
C514 C 0.04843 0.19794 0.56761 0.0
C515 C 0.06075 0.21355 0.58841 0.0
C516 C 0.05264 0.23581 0.58087 0.0
N517 N 0.99198 0.25923 0.56223 0.0
C518 C 0.95441 0.25609 0.60132 0.0
C519 C 0.96601 0.23596 0.59073 0.0
C520 C 0.98451 0.23791 0.57145 0.0
C521 C 0.96185 0.2779 0.59175 0.0
C522 C 0.98059 0.27907 0.57242 0.0
N523 N 0.04446 0.26253 0.5061 0.0
C524 C 0.07061 0.24289 0.47116 0.0
C525 C 0.08498 0.2628 0.47204 0.0
C526 C 0.07823 0.28293 0.48921 0.0
C527 C 0.05788 0.28252 0.50556 0.0
C528 C 0.05071 0.24309 0.48825 0.0
H529 H 0.05365 0.29849 0.51804 0.0
H530 H 0.04105 0.22705 0.48719 0.0
H531 H 0.99239 0.22183 0.56415 0.0
H532 H 0.98558 0.29619 0.56598 0.0
C533 C 0.01923 0.31894 0.54376 0.0
C534 C 0.06299 0.25736 0.59621 0.0
C535 C 0.9719 0.26496 0.47428 0.0
C536 C 0.01773 0.20292 0.52355 0.0
H537 H 0.07272 0.30333 0.62622 0.0
H538 H 0.0484 0.3372 0.59778 0.0
H539 H 0.99063 0.34313 0.49682 0.0
H540 H 0.96433 0.31303 0.45879 0.0
H541 H 0.95825 0.21848 0.44854 0.0
H542 H 0.98335 0.1845 0.47541 0.0
H543 H 0.05033 0.17899 0.56613 0.0
H544 H 0.07451 0.20916 0.60663 0.0
H545 H 0.96064 0.2186 0.59689 0.0
H546 H 0.95349 0.29402 0.59947 0.0
H547 H 0.07518 0.22682 0.45828 0.0
H548 H 0.08866 0.29891 0.49014 0.0
C549 C 0.76457 0.06089 0.57495 0.0
C550 C 0.74334 0.0721 0.57924 0.0
C551 C 0.72804 0.06555 0.55331 0.0
C552 C 0.74063 0.05064 0.53473 0.0
N553 N 0.76281 0.04706 0.54764 0.0
Co554 Co 0.78689 0.02735 0.52787 0.0
N555 N 0.76269 0.01151 0.49718 0.0
C556 C 0.74075 0.01923 0.48917 0.0
C557 C 0.72797 0.00401 0.46785 0.0
C558 C 0.74288 0.9856 0.46219 0.0
C559 C 0.76392 0.99069 0.48045 0.0
N560 N 0.8108 0.00776 0.50775 0.0
C561 C 0.80791 0.98732 0.49005 0.0
C562 C 0.82929 0.97903 0.48082 0.0
C563 C 0.84613 0.99497 0.49338 0.0
C564 C 0.8341 0.01202 0.50947 0.0
N565 N 0.81131 0.04304 0.55848 0.0
C566 C 0.83468 0.04311 0.55545 0.0
C567 C 0.84734 0.05598 0.57956 0.0
C568 C 0.83093 0.06493 0.59866 0.0
C569 C 0.80902 0.05703 0.58507 0.0
N570 N 0.783 0.00301 0.55807 0.0
C571 C 0.77769 0.96262 0.59201 0.0
C572 C 0.80013 0.97185 0.58896 0.0
C573 C 0.80238 0.99209 0.57202 0.0
C574 C 0.75792 0.97498 0.57962 0.0
C575 C 0.76096 0.99522 0.56288 0.0
N576 N 0.79081 0.0516 0.49736 0.0
C577 C 0.79663 0.09221 0.48701 0.0
C578 C 0.79708 0.08644 0.45442 0.0
C579 C 0.79415 0.06298 0.44343 0.0
C580 C 0.7913 0.04572 0.46543 0.0
C581 C 0.79324 0.07461 0.50799 0.0
H582 H 0.78954 0.02763 0.45663 0.0
H583 H 0.79265 0.07976 0.53283 0.0
H584 H 0.81987 0.99816 0.56878 0.0
H585 H 0.74549 0.0039 0.55254 0.0
C586 C 0.73154 0.03788 0.50699 0.0
C587 C 0.78658 0.06629 0.59509 0.0
C588 C 0.78508 0.97607 0.48067 0.0
C589 C 0.84424 0.02908 0.53158 0.0
H590 H 0.73954 0.08431 0.59864 0.0
H591 H 0.70983 0.07083 0.54875 0.0
H592 H 0.70965 0.00546 0.45884 0.0
H593 H 0.73869 0.97015 0.4467 0.0
H594 H 0.83237 0.96309 0.46674 0.0
H595 H 0.865 0.99359 0.49234 0.0
H596 H 0.86625 0.05847 0.58297 0.0
H597 H 0.83463 0.07669 0.61952 0.0
H598 H 0.81592 0.96282 0.59796 0.0
H599 H 0.74025 0.96867 0.58194 0.0
H600 H 0.79857 0.11031 0.49616 0.0
H601 H 0.79438 0.05803 0.41824 0.0
C602 C 0.06019 0.81086 0.56223 0.0
C603 C 0.06916 0.8329 0.57278 0.0
C604 C 0.05469 0.84916 0.55859 0.0
C605 C 0.03792 0.83631 0.54 0.0
N606 N 0.04053 0.81273 0.54171 0.0
Co607 Co 0.02119 0.7877 0.51614 0.0
N608 N 0.00139 0.81186 0.49294 0.0
C609 C 0.00382 0.83552 0.49638 0.0
C610 C 0.98671 0.84765 0.4791 0.0
C611 C 0.97213 0.83079 0.46415 0.0
C612 C 0.98135 0.80917 0.47302 0.0
N613 N 0.00179 0.76271 0.49064 0.0
C614 C 0.98182 0.76471 0.47079 0.0
C615 C 0.97329 0.74291 0.45882 0.0
C616 C 0.98799 0.72646 0.47235 0.0
C617 C 0.00465 0.73911 0.4916 0.0
N618 N 0.04095 0.76355 0.5393 0.0
C619 C 0.03863 0.73986 0.5357 0.0
C620 C 0.05505 0.72784 0.55445 0.0
C621 C 0.06896 0.74481 0.57058 0.0
C622 C 0.0603 0.76631 0.56052 0.0
N623 N 0.99848 0.78765 0.54927 0.0
C624 C 0.95977 0.78708 0.58601 0.0
C625 C 0.97001 0.76616 0.57584 0.0
C626 C 0.98949 0.76685 0.55813 0.0
C627 C 0.97027 0.80834 0.57984 0.0
C628 C 0.98957 0.80823 0.56148 0.0
N629 N 0.04383 0.78762 0.48279 0.0
C630 C 0.06957 0.76617 0.44915 0.0
C631 C 0.07947 0.78707 0.44032 0.0
C632 C 0.07039 0.80831 0.4519 0.0
C633 C 0.05262 0.80818 0.47278 0.0
C634 C 0.05199 0.76685 0.47019 0.0
H635 H 0.0467 0.82492 0.48106 0.0
H636 H 0.04567 0.75027 0.47634 0.0
H637 H 0.9963 0.75029 0.55076 0.0
H638 H 0.99636 0.82496 0.55636 0.0
C639 C 0.02081 0.84587 0.51859 0.0
C640 C 0.07176 0.78874 0.57069 0.0
C641 C 0.96955 0.7867 0.4641 0.0
C642 C 0.02177 0.72942 0.51311 0.0
H643 H 0.08496 0.83708 0.5882 0.0
H644 H 0.05675 0.86811 0.56052 0.0
H645 H 0.98442 0.86654 0.47873 0.0
H646 H 0.95605 0.83429 0.44951 0.0
H647 H 0.9576 0.73929 0.44279 0.0
H648 H 0.98617 0.70751 0.46954 0.0
H649 H 0.05706 0.70896 0.55559 0.0
H650 H 0.08414 0.74173 0.58727 0.0
H651 H 0.96251 0.74932 0.58064 0.0
H652 H 0.96282 0.82495 0.58758 0.0
H653 H 0.07555 0.74924 0.44022 0.0
H654 H 0.07749 0.82503 0.44587 0.0
C655 C 0.28534 0.98686 0.57085 0.0
C656 C 0.30723 0.97855 0.58239 0.0
C657 C 0.32367 0.99169 0.5694 0.0
C658 C 0.31094 0.00732 0.55091 0.0
N659 N 0.28737 0.00505 0.55146 0.0
Co660 Co 0.26249 0.02451 0.52832 0.0
N661 N 0.28646 0.04164 0.50587 0.0
C662 C 0.30981 0.03709 0.50707 0.0
C663 C 0.3218 0.05109 0.48831 0.0
C664 C 0.30514 0.0656 0.47448 0.0
C665 C 0.28389 0.05978 0.48596 0.0
N666 N 0.23773 0.04504 0.50681 0.0
C667 C 0.23992 0.06409 0.48892 0.0
C668 C 0.21832 0.07502 0.48218 0.0
C669 C 0.20196 0.06235 0.49591 0.0
C670 C 0.21441 0.04469 0.51063 0.0
N671 N 0.23834 0.0063 0.54916 0.0
C672 C 0.21469 0.00892 0.545 0.0
C673 C 0.2024 0.99286 0.56032 0.0
C674 C 0.21918 0.9788 0.57473 0.0
C675 C 0.24084 0.98728 0.56752 0.0
N676 N 0.26569 0.04818 0.56464 0.0
C677 C 0.26791 0.08684 0.60889 0.0
C678 C 0.24751 0.07315 0.6034 0.0
C679 C 0.24676 0.05406 0.58128 0.0
C680 C 0.2877 0.07996 0.59364 0.0
C681 C 0.28635 0.06042 0.57215 0.0
N682 N 0.25926 0.00093 0.49193 0.0
C683 C 0.23484 0.97901 0.45081 0.0
C684 C 0.25359 0.96413 0.44453 0.0
C685 C 0.27553 0.96886 0.46131 0.0
C686 C 0.27802 0.98735 0.48437 0.0
C687 C 0.23798 0.99703 0.47452 0.0
H688 H 0.2952 0.98991 0.49629 0.0
H689 H 0.2228 0.00726 0.47871 0.0
H690 H 0.23039 0.04489 0.5773 0.0
H691 H 0.30205 0.05603 0.56122 0.0
C692 C 0.3203 0.02176 0.52916 0.0
C693 C 0.26319 0.97621 0.57783 0.0
C694 C 0.26207 0.0728 0.47858 0.0
C695 C 0.20467 0.02729 0.52771 0.0
H696 H 0.31088 0.96404 0.59786 0.0
H697 H 0.3426 0.98941 0.57196 0.0
H698 H 0.34055 0.05136 0.48595 0.0
H699 H 0.30838 0.07937 0.45846 0.0
H700 H 0.21462 0.09074 0.46917 0.0
H701 H 0.18326 0.0658 0.49558 0.0
H702 H 0.18349 0.99148 0.56084 0.0
H703 H 0.21579 0.96386 0.58869 0.0
H704 H 0.23175 0.07789 0.6148 0.0
H705 H 0.304 0.0899 0.59775 0.0
H706 H 0.21762 0.97661 0.43788 0.0
H707 H 0.29066 0.95788 0.45764 0.0
C708 C 0.55986 0.78082 0.06103 0.0
C709 C 0.56942 0.80221 0.07308 0.0
C710 C 0.55737 0.81931 0.05678 0.0
C711 C 0.54116 0.80746 0.03581 0.0
N712 N 0.54206 0.7838 0.03783 0.0
Co713 Co 0.52161 0.75995 0.01165 0.0
N714 N 0.50503 0.785 0.98629 0.0
C715 C 0.51044 0.80818 0.98765 0.0
C716 C 0.49595 0.82106 0.96727 0.0
C717 C 0.48015 0.8052 0.95232 0.0
C718 C 0.48583 0.78351 0.9647 0.0
N719 N 0.50029 0.73619 0.98667 0.0
C720 C 0.48076 0.73944 0.96637 0.0
C721 C 0.46942 0.7182 0.95724 0.0
C722 C 0.4822 0.70101 0.97218 0.0
C723 C 0.50035 0.71261 0.98986 0.0
N724 N 0.53887 0.73475 0.03605 0.0
C725 C 0.5354 0.71124 0.03186 0.0
C726 C 0.55045 0.69821 0.05124 0.0
C727 C 0.56469 0.71432 0.06852 0.0
C728 C 0.5575 0.73635 0.05856 0.0
N729 N 0.49805 0.76288 0.04349 0.0
C730 C 0.4578 0.7657 0.07759 0.0
C731 C 0.46932 0.74427 0.07299 0.0
C732 C 0.48937 0.7433 0.05623 0.0
C733 C 0.46797 0.78599 0.06715 0.0
C734 C 0.4881 0.78422 0.05055 0.0
N735 N 0.54498 0.75705 0.97926 0.0
C736 C 0.56372 0.73373 0.93918 0.0
C737 C 0.57744 0.75288 0.9326 0.0
C738 C 0.5749 0.77412 0.94984 0.0
C739 C 0.55852 0.77587 0.97267 0.0
C740 C 0.54794 0.73609 0.96263 0.0
H741 H 0.55719 0.79268 0.98457 0.0
H742 H 0.53844 0.72063 0.96688 0.0
H743 H 0.49694 0.72636 0.05269 0.0
H744 H 0.4948 0.80023 0.04258 0.0
C745 C 0.52681 0.81774 0.01154 0.0
C746 C 0.56923 0.75814 0.07088 0.0
C747 C 0.47172 0.76231 0.95654 0.0
C748 C 0.51722 0.70198 0.01055 0.0
H749 H 0.58408 0.80513 0.09111 0.0
H750 H 0.56064 0.83808 0.05906 0.0
H751 H 0.49613 0.83991 0.96474 0.0
H752 H 0.46559 0.80923 0.93507 0.0
H753 H 0.45322 0.71527 0.94212 0.0
H754 H 0.47829 0.68235 0.97113 0.0
H755 H 0.55095 0.67927 0.05268 0.0
H756 H 0.57886 0.71029 0.08637 0.0
H757 H 0.46225 0.72804 0.08076 0.0
H758 H 0.4601 0.8031 0.07106 0.0
H759 H 0.56547 0.7168 0.92667 0.0
H760 H 0.58526 0.7894 0.94542 0.0
C761 C 0.25795 0.55518 0.07559 0.0
C762 C 0.23621 0.56346 0.08337 0.0
C763 C 0.21963 0.55129 0.06361 0.0
C764 C 0.23222 0.53641 0.04498 0.0
N765 N 0.25579 0.53782 0.05236 0.0
Co766 Co 0.28093 0.52176 0.02914 0.0
N767 N 0.25689 0.50591 0.99753 0.0
C768 C 0.23317 0.50759 0.99677 0.0
C769 C 0.22136 0.49276 0.97407 0.0
C770 C 0.23858 0.48034 0.96021 0.0
C771 C 0.25988 0.48845 0.97531 0.0
N772 N 0.30611 0.5066 0.00507 0.0
C773 C 0.30414 0.48983 0.98107 0.0
C774 C 0.32598 0.48331 0.97151 0.0
C775 C 0.34239 0.49611 0.99077 0.0
C776 C 0.32967 0.50965 0.01089 0.0
N777 N 0.30494 0.53668 0.06166 0.0
C778 C 0.32854 0.53351 0.06376 0.0
C779 C 0.34039 0.54686 0.08811 0.0
C780 C 0.32338 0.55971 0.10183 0.0
C781 C 0.30208 0.55339 0.08496 0.0
N782 N 0.27993 0.4938 0.05585 0.0
C783 C 0.2782 0.4512 0.08752 0.0
C784 C 0.29952 0.46008 0.07917 0.0
C785 C 0.30003 0.48132 0.06385 0.0
C786 C 0.25785 0.46447 0.08092 0.0
C787 C 0.25907 0.48551 0.06504 0.0
N788 N 0.28198 0.54964 0.00223 0.0
C789 C 0.30362 0.58209 0.98339 0.0
C790 C 0.28355 0.59001 0.96535 0.0
C791 C 0.26264 0.57721 0.96622 0.0
C792 C 0.2622 0.55742 0.98481 0.0
C793 C 0.30252 0.562 0.00113 0.0
H794 H 0.24561 0.54876 0.98477 0.0
H795 H 0.31856 0.557 0.01401 0.0
H796 H 0.31688 0.48702 0.05816 0.0
H797 H 0.24284 0.49448 0.05984 0.0
C798 C 0.22261 0.52208 0.01912 0.0
C799 C 0.28013 0.56588 0.08864 0.0
C800 C 0.28234 0.47756 0.96997 0.0
C801 C 0.3392 0.52158 0.039 0.0
H802 H 0.23285 0.57752 0.10061 0.0
H803 H 0.20072 0.55373 0.06203 0.0
H804 H 0.20249 0.4905 0.96919 0.0
H805 H 0.23586 0.46624 0.94202 0.0
H806 H 0.32972 0.46977 0.95376 0.0
H807 H 0.36136 0.49442 0.99161 0.0
H808 H 0.35927 0.54842 0.09368 0.0
H809 H 0.32648 0.57315 0.12082 0.0
H810 H 0.31583 0.45063 0.08438 0.0
H811 H 0.24092 0.45827 0.08702 0.0
H812 H 0.32021 0.59148 0.98438 0.0
H813 H 0.24658 0.58223 0.95246 0.0
C814 C 0.47845 0.30812 0.98844 0.0
C815 C 0.46872 0.32988 0.98155 0.0
C816 C 0.48189 0.34629 0.99996 0.0
C817 C 0.49873 0.33366 0.01708 0.0
N818 N 0.4976 0.31022 0.01003 0.0
Co819 Co 0.51667 0.28503 0.03193 0.0
N820 N 0.53417 0.30883 0.06199 0.0
C821 C 0.53152 0.33249 0.06246 0.0
C822 C 0.54749 0.34443 0.08355 0.0
C823 C 0.56159 0.32746 0.09686 0.0
C824 C 0.5532 0.30597 0.08329 0.0
N825 N 0.53502 0.25975 0.05445 0.0
C826 C 0.553 0.26156 0.0778 0.0
C827 C 0.56081 0.23962 0.08721 0.0
C828 C 0.54776 0.22334 0.06833 0.0
C829 C 0.53267 0.23623 0.04875 0.0
N830 N 0.49986 0.26132 0.00121 0.0
C831 C 0.5037 0.23786 0.99894 0.0
C832 C 0.4887 0.22617 0.97612 0.0
C833 C 0.47409 0.24312 0.96362 0.0
C834 C 0.48104 0.26415 0.97973 0.0
N835 N 0.54171 0.28788 0.00219 0.0
C836 C 0.57993 0.29254 0.96462 0.0
C837 C 0.57206 0.27035 0.97197 0.0
C838 C 0.55314 0.26844 0.99079 0.0
C839 C 0.56786 0.31226 0.97545 0.0
C840 C 0.54887 0.30955 0.99375 0.0
N841 N 0.49162 0.28223 0.06164 0.0
C842 C 0.46063 0.25959 0.08178 0.0
C843 C 0.45272 0.27947 0.09831 0.0
C844 C 0.46511 0.30052 0.09723 0.0
C845 C 0.48425 0.30155 0.07876 0.0
C846 C 0.48018 0.26126 0.06413 0.0
H847 H 0.49241 0.31832 0.07813 0.0
H848 H 0.48541 0.24543 0.05218 0.0
H849 H 0.54837 0.25108 0.9963 0.0
H850 H 0.54051 0.32532 0.00119 0.0
C851 C 0.51474 0.34306 0.04147 0.0
C852 C 0.46773 0.28582 0.97642 0.0
C853 C 0.56474 0.28347 0.08943 0.0
C854 C 0.5185 0.22699 0.0222 0.0
H855 H 0.45317 0.33353 0.96585 0.0
H856 H 0.47887 0.36508 0.00174 0.0
H857 H 0.54928 0.36329 0.08779 0.0
H858 H 0.57676 0.33086 0.11378 0.0
H859 H 0.57519 0.23585 0.10488 0.0
H860 H 0.54988 0.20442 0.06779 0.0
H861 H 0.48748 0.20739 0.97076 0.0
H862 H 0.45921 0.24022 0.94593 0.0
H863 H 0.58092 0.25456 0.96408 0.0
H864 H 0.57308 0.32981 0.96984 0.0
H865 H 0.4517 0.24282 0.08234 0.0
H866 H 0.45951 0.31641 0.1096 0.0
C867 C 0.73565 0.56238 0.0734 0.0
C868 C 0.71413 0.56989 0.08322 0.0
C869 C 0.69733 0.5554 0.06773 0.0
C870 C 0.70945 0.53998 0.04937 0.0
N871 N 0.73306 0.54352 0.05239 0.0
Co872 Co 0.75717 0.52577 0.02879 0.0
N873 N 0.73224 0.50508 0.00502 0.0
C874 C 0.7088 0.50565 0.00809 0.0
C875 C 0.69617 0.48877 0.98951 0.0
C876 C 0.7125 0.47647 0.97384 0.0
C877 C 0.73426 0.48661 0.98381 0.0
N878 N 0.78118 0.50827 0.00466 0.0
C879 C 0.77851 0.4897 0.98312 0.0
C880 C 0.79987 0.48271 0.97239 0.0
C881 C 0.81671 0.49722 0.98789 0.0
C882 C 0.80471 0.51222 0.00709 0.0
N883 N 0.7821 0.54622 0.05299 0.0
C884 C 0.80563 0.54494 0.05099 0.0
C885 C 0.81829 0.56148 0.07019 0.0
C886 C 0.80187 0.57422 0.08524 0.0
C887 C 0.78006 0.56469 0.07424 0.0
N888 N 0.76082 0.50256 0.0627 0.0
C889 C 0.76453 0.46374 0.1017 0.0
C890 C 0.7845 0.47319 0.09019 0.0
C891 C 0.78233 0.49279 0.07135 0.0
C892 C 0.74302 0.47511 0.09561 0.0
C893 C 0.74157 0.49434 0.07614 0.0
N894 N 0.75353 0.54881 0.99474 0.0
C895 C 0.77052 0.57579 0.96028 0.0
C896 C 0.74815 0.58317 0.94872 0.0
C897 C 0.72853 0.57272 0.95987 0.0
C898 C 0.73159 0.55556 0.98247 0.0
C899 C 0.7728 0.55881 0.9833 0.0
H900 H 0.71594 0.54816 0.98982 0.0
H901 H 0.79031 0.55428 0.99176 0.0
H902 H 0.79817 0.49918 0.06319 0.0
H903 H 0.7245 0.50159 0.07135 0.0
C904 C 0.69915 0.52213 0.02879 0.0
C905 C 0.75791 0.57413 0.08416 0.0
C906 C 0.75632 0.47765 0.97296 0.0
C907 C 0.81515 0.52912 0.02919 0.0
H908 H 0.71087 0.58453 0.09961 0.0
H909 H 0.67849 0.5562 0.06936 0.0
H910 H 0.67734 0.48564 0.98783 0.0
H911 H 0.70884 0.46153 0.9572 0.0
H912 H 0.80297 0.46832 0.95552 0.0
H913 H 0.83552 0.49656 0.98598 0.0
H914 H 0.83716 0.56432 0.0724 0.0
H915 H 0.80546 0.58908 0.10203 0.0
H916 H 0.80161 0.4651 0.09497 0.0
H917 H 0.72709 0.46836 0.10421 0.0
H918 H 0.78619 0.58354 0.95224 0.0
H919 H 0.71084 0.57773 0.95111 0.0
C920 C 0.12961 0.24906 0.41199 0.0
C921 C 0.15092 0.25624 0.42933 0.0
H922 H 0.09211 0.24564 0.41176 0.0
C923 C 0.15 0.26707 0.46006 0.0
H924 H 0.12948 0.24112 0.38804 0.0
C925 C 0.12849 0.27003 0.47337 0.0
C926 C 0.10739 0.26199 0.45648 0.0
H927 H 0.16598 0.27249 0.47444 0.0
H928 H 0.12849 0.27771 0.49747 0.0
C929 C 0.10814 0.25175 0.42549 0.0
C930 C 0.78262 0.13291 0.39506 0.0
C931 C 0.80269 0.14742 0.40059 0.0
H932 H 0.7654 0.1015 0.40755 0.0
C933 C 0.82207 0.1399 0.42059 0.0
H934 H 0.76749 0.13835 0.37966 0.0
C935 C 0.82076 0.1191 0.43662 0.0
C936 C 0.80022 0.10533 0.43247 0.0
H937 H 0.83764 0.15087 0.42556 0.0
H938 H 0.83533 0.11433 0.45347 0.0
C939 C 0.78147 0.11186 0.41076 0.0
C940 C 0.90328 0.77902 0.45958 0.0
C941 C 0.89582 0.78951 0.43061 0.0
H942 H 0.93245 0.77026 0.49292 0.0
C943 C 0.91318 0.79729 0.41158 0.0
H944 H 0.89066 0.7721 0.47453 0.0
C945 C 0.93713 0.79529 0.42167 0.0
C946 C 0.94429 0.78624 0.45146 0.0
H947 H 0.90842 0.80572 0.38936 0.0
H948 H 0.95008 0.80171 0.40679 0.0
C949 C 0.92724 0.77762 0.47 0.0
C950 C 0.22585 0.90937 0.40186 0.0
C951 C 0.24434 0.90048 0.38502 0.0
H952 H 0.21445 0.93588 0.43444 0.0
C953 C 0.26545 0.91331 0.38612 0.0
H954 H 0.20953 0.89958 0.40177 0.0
C955 C 0.26816 0.93451 0.40433 0.0
C956 C 0.24998 0.94301 0.42231 0.0
H957 H 0.27989 0.90683 0.37313 0.0
H958 H 0.28463 0.94403 0.40459 0.0
C959 C 0.22868 0.93028 0.42048 0.0
C960 C 0.13807 0.78218 0.58366 0.0
C961 C 0.14345 0.79444 0.61342 0.0
H962 H 0.11127 0.77123 0.54672 0.0
C963 C 0.12458 0.80282 0.63026 0.0
H964 H 0.15183 0.77462 0.57032 0.0
C965 C 0.10124 0.79976 0.61724 0.0
C966 C 0.09623 0.7891 0.5866 0.0
H967 H 0.12767 0.81254 0.653 0.0
H968 H 0.08712 0.8067 0.63049 0.0
C969 C 0.11478 0.77984 0.57025 0.0
C970 C 0.27036 0.15199 0.62995 0.0
C971 C 0.25987 0.15329 0.65905 0.0
H972 H 0.2813 0.12981 0.59149 0.0
C973 C 0.25459 0.13222 0.67327 0.0
H974 H 0.27437 0.16778 0.61803 0.0
C975 C 0.25819 0.11047 0.65769 0.0
C976 C 0.26756 0.10933 0.6279 0.0
H977 H 0.24704 0.13252 0.69603 0.0
H978 H 0.25308 0.09454 0.66849 0.0
C979 C 0.27429 0.13023 0.61465 0.0
C980 C 0.91724 0.23434 0.66456 0.0
C981 C 0.89626 0.24716 0.65905 0.0
H982 H 0.95199 0.22743 0.65128 0.0
C983 C 0.89497 0.26388 0.63527 0.0
H984 H 0.91884 0.22109 0.68232 0.0
C985 C 0.91402 0.2673 0.61704 0.0
C986 C 0.93473 0.25399 0.62209 0.0
H987 H 0.87918 0.27422 0.63058 0.0
H988 H 0.91227 0.27987 0.59838 0.0
C989 C 0.9362 0.23775 0.64642 0.0
C990 C 0.79016 0.9091 0.64098 0.0
C991 C 0.77525 0.89218 0.62411 0.0
H992 H 0.8023 0.94481 0.64447 0.0
C993 C 0.75944 0.89928 0.59875 0.0
H994 H 0.8027 0.90418 0.66046 0.0
C995 C 0.75943 0.92249 0.58936 0.0
C996 C 0.7752 0.93912 0.60518 0.0
H997 H 0.74753 0.88671 0.58556 0.0
H998 H 0.74787 0.9271 0.56869 0.0
C999 C 0.79013 0.93233 0.63162 0.0
C1000 C 0.91195 0.79518 0.64262 0.0
C1001 C 0.89213 0.78584 0.62364 0.0
H1002 H 0.94902 0.8032 0.64537 0.0
C1003 C 0.89517 0.77683 0.59247 0.0
H1004 H 0.91047 0.80203 0.66683 0.0
C1005 C 0.91726 0.77697 0.58074 0.0
C1006 C 0.9368 0.78657 0.59953 0.0
H1007 H 0.88039 0.77017 0.57661 0.0
H1008 H 0.919 0.77006 0.55657 0.0
C1009 C 0.93405 0.79577 0.63051 0.0
C1010 C 0.25639 0.92994 0.63873 0.0
C1011 C 0.25963 0.90893 0.62058 0.0
H1012 H 0.25518 0.96776 0.63939 0.0
C1013 C 0.26523 0.91048 0.58873 0.0
H1014 H 0.25237 0.92949 0.66341 0.0
C1015 C 0.26702 0.93237 0.57523 0.0
C1016 C 0.26319 0.95316 0.5932 0.0
H1017 H 0.26747 0.89474 0.5738 0.0
H1018 H 0.27079 0.93306 0.55046 0.0
C1019 C 0.25815 0.95185 0.62515 0.0
C1020 C 0.12879 0.24965 0.61119 0.0
C1021 C 0.13278 0.25494 0.64433 0.0
H1022 H 0.1035 0.24656 0.57016 0.0
C1023 C 0.11341 0.26088 0.66164 0.0
H1024 H 0.14313 0.24446 0.59717 0.0
C1025 C 0.09065 0.26151 0.64615 0.0
C1026 C 0.08695 0.25658 0.61307 0.0
H1027 H 0.11582 0.26526 0.68709 0.0
H1028 H 0.07596 0.26599 0.65991 0.0
C1029 C 0.10612 0.25059 0.59572 0.0
C1030 C 0.79402 0.10702 0.66978 0.0
C1031 C 0.79285 0.12937 0.65654 0.0
H1032 H 0.79279 0.06945 0.66063 0.0
C1033 C 0.78857 0.13056 0.62312 0.0
H1034 H 0.7971 0.10541 0.69541 0.0
C1035 C 0.78595 0.11006 0.60347 0.0
C1036 C 0.78749 0.08785 0.61671 0.0
H1037 H 0.78804 0.14735 0.61193 0.0
H1038 H 0.78326 0.1115 0.57776 0.0
C1039 C 0.7914 0.08644 0.65001 0.0
C1040 C 0.90634 0.27591 0.46284 0.0
C1041 C 0.90071 0.26759 0.43096 0.0
H1042 H 0.9334 0.28127 0.5015 0.0
C1043 C 0.91911 0.25982 0.41284 0.0
H1044 H 0.89277 0.28251 0.47733 0.0
C1045 C 0.94236 0.25968 0.42655 0.0
C1046 C 0.9476 0.2668 0.45877 0.0
H1047 H 0.91552 0.25299 0.38839 0.0
H1048 H 0.95618 0.25334 0.41229 0.0
C1049 C 0.92956 0.27539 0.47665 0.0
C1050 C 0.78456 0.90959 0.47176 0.0
C1051 C 0.78491 0.9056 0.43843 0.0
H1052 H 0.78436 0.93515 0.5111 0.0
C1053 C 0.78462 0.92515 0.41903 0.0
H1054 H 0.78516 0.895 0.48749 0.0
C1055 C 0.78419 0.94808 0.43267 0.0
C1056 C 0.78408 0.95186 0.46591 0.0
H1057 H 0.7847 0.92273 0.39331 0.0
H1058 H 0.78422 0.96288 0.41736 0.0
C1059 C 0.78422 0.93251 0.48535 0.0
C1060 C 0.13804 0.77033 0.40957 0.0
C1061 C 0.14082 0.78758 0.3873 0.0
H1062 H 0.11684 0.75689 0.444 0.0
C1063 C 0.12255 0.80383 0.38108 0.0
H1064 H 0.15167 0.7574 0.41466 0.0
C1065 C 0.10234 0.80335 0.39764 0.0
C1066 C 0.09997 0.78661 0.42075 0.0
H1067 H 0.12423 0.81747 0.36428 0.0
H1068 H 0.08872 0.81629 0.39261 0.0
C1069 C 0.11792 0.76989 0.42614 0.0
C1070 C 0.24859 0.12097 0.41976 0.0
C1071 C 0.26099 0.14039 0.43518 0.0
H1072 H 0.23975 0.08433 0.42093 0.0
C1073 C 0.27509 0.13669 0.4639 0.0
H1074 H 0.2373 0.1229 0.3979 0.0
C1075 C 0.27569 0.11472 0.47761 0.0
C1076 C 0.26268 0.0957 0.46264 0.0
H1077 H 0.28552 0.15083 0.47615 0.0
H1078 H 0.28605 0.11265 0.50025 0.0
C1079 C 0.24971 0.09884 0.43312 0.0
C1080 C 0.60436 0.73619 0.85573 0.0
C1081 C 0.62838 0.74126 0.86409 0.0
H1082 H 0.56947 0.73581 0.87099 0.0
C1083 C 0.6351 0.75195 0.89448 0.0
H1084 H 0.59841 0.72848 0.83233 0.0
C1085 C 0.61837 0.75661 0.91631 0.0
C1086 C 0.59467 0.75036 0.90839 0.0
H1087 H 0.65342 0.7558 0.90204 0.0
H1088 H 0.62414 0.76413 0.9399 0.0
C1089 C 0.58774 0.74047 0.87776 0.0
C1090 C 0.30668 0.63847 0.9165 0.0
C1091 C 0.28728 0.65376 0.91285 0.0
H1092 H 0.32055 0.60634 0.93453 0.0
C1093 C 0.26626 0.64729 0.92548 0.0
H1094 H 0.32333 0.64279 0.90766 0.0
C1095 C 0.26495 0.62663 0.94216 0.0
C1096 C 0.2845 0.61157 0.94628 0.0
H1097 H 0.25075 0.65825 0.92276 0.0
H1098 H 0.24871 0.62285 0.95246 0.0
C1099 C 0.30523 0.61762 0.93264 0.0
C1100 C 0.40246 0.27501 0.97817 0.0
C1101 C 0.39322 0.28451 0.94934 0.0
H1102 H 0.4335 0.26812 0.00923 0.0
C1103 C 0.40893 0.29344 0.92878 0.0
H1104 H 0.39094 0.26768 0.99433 0.0
C1105 C 0.4332 0.29332 0.93715 0.0
C1106 C 0.44218 0.28459 0.96638 0.0
H1107 H 0.40248 0.30122 0.90663 0.0
H1108 H 0.44495 0.30055 0.92118 0.0
C1109 C 0.42675 0.27509 0.98662 0.0
C1110 C 0.74939 0.43661 0.89907 0.0
C1111 C 0.74943 0.41437 0.91251 0.0
H1112 H 0.75177 0.47411 0.90789 0.0
C1113 C 0.75368 0.41318 0.94596 0.0
H1114 H 0.74643 0.43816 0.87342 0.0
C1115 C 0.75684 0.43376 0.96552 0.0
C1116 C 0.75594 0.45585 0.95201 0.0
H1117 H 0.75353 0.39642 0.95717 0.0
H1118 H 0.75921 0.43248 0.99128 0.0
C1119 C 0.75259 0.45716 0.91867 0.0
C1120 C 0.63061 0.27383 0.09475 0.0
C1121 C 0.63801 0.28403 0.12524 0.0
H1122 H 0.60168 0.26629 0.05944 0.0
C1123 C 0.62069 0.2927 0.14465 0.0
H1124 H 0.64314 0.26622 0.07939 0.0
C1125 C 0.59683 0.29166 0.13361 0.0
C1126 C 0.58981 0.28284 0.10251 0.0
H1127 H 0.62545 0.30096 0.16807 0.0
H1128 H 0.58388 0.29839 0.14902 0.0
C1129 C 0.60681 0.27354 0.08339 0.0
C1130 C 0.75154 0.63801 0.11129 0.0
C1131 C 0.74888 0.63617 0.14409 0.0
H1132 H 0.75662 0.61957 0.06658 0.0
C1133 C 0.75188 0.61401 0.15749 0.0
H1134 H 0.74911 0.65473 0.10014 0.0
C1135 C 0.75617 0.594 0.13826 0.0
C1136 C 0.75761 0.59578 0.10533 0.0
H1137 H 0.75025 0.61202 0.18272 0.0
H1138 H 0.7574 0.57698 0.14883 0.0
C1139 C 0.75579 0.61795 0.09206 0.0
C1140 C 0.39348 0.77887 0.08697 0.0
C1141 C 0.3886 0.76373 0.11108 0.0
H1142 H 0.41909 0.7913 0.05745 0.0
C1143 C 0.40718 0.75068 0.12587 0.0
H1144 H 0.37966 0.78938 0.07535 0.0
C1145 C 0.42986 0.75206 0.11596 0.0
C1146 C 0.43453 0.76646 0.09096 0.0
H1147 H 0.40404 0.73866 0.14428 0.0
H1148 H 0.44366 0.74144 0.12744 0.0
C1149 C 0.41618 0.78021 0.07701 0.0
C1150 C 0.26574 0.40336 0.14422 0.0
C1151 C 0.27751 0.38396 0.13111 0.0
H1152 H 0.25648 0.43982 0.14049 0.0
C1153 C 0.28889 0.38679 0.10318 0.0
H1154 H 0.25674 0.4017 0.16564 0.0
C1155 C 0.2889 0.40854 0.08902 0.0
C1156 C 0.27734 0.42798 0.10224 0.0
H1157 H 0.29834 0.37229 0.09266 0.0
H1158 H 0.29799 0.41016 0.06764 0.0
C1159 C 0.26548 0.42511 0.12975 0.0
C1160 C 0.40969 0.28889 0.16159 0.0
C1161 C 0.3885 0.28014 0.14543 0.0
H1162 H 0.44658 0.29555 0.15936 0.0
C1163 C 0.3891 0.27014 0.11417 0.0
H1164 H 0.41013 0.29632 0.18584 0.0
C1165 C 0.41011 0.26925 0.09937 0.0
C1166 C 0.431 0.27866 0.11521 0.0
H1167 H 0.37317 0.26369 0.10054 0.0
H1168 H 0.40983 0.26199 0.07501 0.0
C1169 C 0.43064 0.28834 0.14653 0.0
C1170 C 0.77205 0.39868 0.1118 0.0
C1171 C 0.7602 0.39529 0.13921 0.0
H1172 H 0.78294 0.42316 0.0788 0.0
C1173 C 0.75213 0.41516 0.15623 0.0
H1174 H 0.77821 0.38387 0.09776 0.0
C1175 C 0.75447 0.43767 0.1449 0.0
C1176 C 0.76536 0.44078 0.11675 0.0
H1177 H 0.74344 0.41331 0.17786 0.0
H1178 H 0.74724 0.45258 0.15767 0.0
C1179 C 0.77475 0.42121 0.10083 0.0
C1180 C 0.63225 0.74429 0.10006 0.0
C1181 C 0.63239 0.74884 0.13331 0.0
H1182 H 0.61206 0.74389 0.05431 0.0
C1183 C 0.61196 0.75826 0.1455 0.0
H1184 H 0.64749 0.73673 0.08983 0.0
C1185 C 0.59167 0.76217 0.12508 0.0
C1186 C 0.59147 0.75685 0.09213 0.0
H1187 H 0.61154 0.76226 0.1709 0.0
H1188 H 0.57592 0.76873 0.13507 0.0
C1189 C 0.61199 0.74826 0.07969 0.0
C1190 C 0.27812 0.63167 0.08094 0.0
C1191 C 0.2839 0.64001 0.11273 0.0
H1192 H 0.27258 0.60146 0.0486 0.0
C1193 C 0.28773 0.62369 0.13683 0.0
H1194 H 0.27533 0.64379 0.06182 0.0
C1195 C 0.28612 0.59953 0.1292 0.0
C1196 C 0.28084 0.59137 0.09737 0.0
H1197 H 0.29192 0.62962 0.16158 0.0
H1198 H 0.2892 0.58721 0.14803 0.0
C1199 C 0.27663 0.60754 0.07334 0.0
C1200 C 0.41831 0.75238 0.89677 0.0
C1201 C 0.40029 0.76338 0.91287 0.0
H1202 H 0.45511 0.74416 0.8975 0.0
C1203 C 0.40662 0.77587 0.9422 0.0
H1204 H 0.41439 0.74233 0.87441 0.0
C1205 C 0.42993 0.77604 0.95592 0.0
C1206 C 0.44751 0.76417 0.94033 0.0
H1207 H 0.39356 0.78523 0.95497 0.0
H1208 H 0.43415 0.78495 0.97911 0.0
C1209 C 0.44169 0.75313 0.91012 0.0
C1210 C 0.28987 0.42024 0.92289 0.0
C1211 C 0.28566 0.40368 0.94561 0.0
H1212 H 0.29192 0.45685 0.91287 0.0
C1213 C 0.27974 0.4117 0.97603 0.0
H1214 H 0.29417 0.41457 0.89914 0.0
C1215 C 0.27842 0.43578 0.98369 0.0
C1216 C 0.283 0.45217 0.9611 0.0
H1217 H 0.27668 0.39939 0.99415 0.0
H1218 H 0.27419 0.44164 0.00742 0.0
C1219 C 0.28851 0.44433 0.93059 0.0
C1220 C 0.63811 0.31496 0.94062 0.0
C1221 C 0.64043 0.30199 0.91177 0.0
H1222 H 0.61719 0.32213 0.97978 0.0
C1223 C 0.62287 0.28546 0.90063 0.0
H1224 H 0.65122 0.32799 0.94965 0.0
C1225 C 0.6034 0.282 0.91803 0.0
C1226 C 0.60092 0.29533 0.94657 0.0
H1227 H 0.62425 0.27517 0.87852 0.0
H1228 H 0.59003 0.26928 0.90885 0.0
C1229 C 0.61853 0.31176 0.95772 0.0
C1230 C 0.72649 0.63858 0.90987 0.0
C1231 C 0.73754 0.63738 0.88129 0.0
H1232 H 0.72119 0.62222 0.95353 0.0
C1233 C 0.75273 0.61854 0.87533 0.0
H1234 H 0.71448 0.65278 0.91486 0.0
C1235 C 0.75668 0.60111 0.8976 0.0
C1236 C 0.74512 0.60207 0.92579 0.0
H1237 H 0.76146 0.61729 0.85345 0.0
H1238 H 0.76826 0.58658 0.89245 0.0
C1239 C 0.73014 0.62102 0.93182 0.0
loop_
_geom_bond_atom_site_label_1
_geom_bond_atom_site_label_2
_geom_bond_distance
_geom_bond_site_symmetry_2
_ccdc_geom_bond_type
H0 C27 0.929 . S
N1 C26 1.433 . S
N1 C32 1.435 . S
N1 C38 1.423 . S
H2 C28 0.930 . S
H3 C31 0.931 . S
H4 C30 0.929 . S
H5 C33 0.930 . S
H6 C34 0.932 . S
H7 C37 0.929 . S
H8 C36 0.931 . S
H9 C39 0.929 . S
H10 C43 0.932 . S
H11 C40 0.931 . S
H12 C42 0.929 . S
H13 C45 0.929 . S
H14 C46 0.930 . S
H15 C48 0.929 . S
H16 C49 0.931 . S
H17 C51 0.930 . S
H18 C52 0.932 . S
H19 C54 0.931 . S
H20 C55 0.929 . S
H21 C57 0.929 . S
H22 C58 0.931 . S
H23 C60 0.929 . S
N24 C44 1.433 . S
N24 C50 1.435 . S
N24 C56 1.423 . S
H25 C61 0.932 . S
C26 N1 1.433 . S
C26 C27 1.363 . S
C26 C31 1.370 . S
C27 H0 0.929 . S
C27 C26 1.363 . S
C27 C28 1.385 . S
C28 H2 0.930 . S
C28 C27 1.385 . S
C28 C29 1.357 . S
C29 C28 1.357 . S
C29 C30 1.406 . S
C30 H4 0.929 . S
C30 C29 1.406 . S
C30 C31 1.391 . S
C31 H3 0.931 . S
C31 C26 1.370 . S
C31 C30 1.391 . S
C32 N1 1.435 . S
C32 C33 1.358 . S
C32 C37 1.371 . S
C33 H5 0.930 . S
C33 C32 1.358 . S
C33 C34 1.405 . S
C34 H6 0.932 . S
C34 C33 1.405 . S
C34 C35 1.383 . S
C35 C34 1.383 . S
C35 C36 1.393 . S
C36 H8 0.931 . S
C36 C35 1.393 . S
C36 C37 1.382 . S
C37 H7 0.929 . S
C37 C32 1.371 . S
C37 C36 1.382 . S
C38 N1 1.423 . S
C38 C39 1.362 . S
C38 C43 1.388 . S
C39 H9 0.929 . S
C39 C38 1.362 . S
C39 C40 1.376 . S
C40 H11 0.931 . S
C40 C39 1.376 . S
C40 C41 1.396 . S
C41 C40 1.396 . S
C41 C42 1.348 . S
C41 C59 1.472 . S
C42 H12 0.929 . S
C42 C41 1.348 . S
C42 C43 1.443 . S
C43 H10 0.932 . S
C43 C38 1.388 . S
C43 C42 1.443 . S
C44 N24 1.433 . S
C44 C45 1.363 . S
C44 C49 1.370 . S
C45 H13 0.929 . S
C45 C44 1.363 . S
C45 C46 1.385 . S
C46 H14 0.930 . S
C46 C45 1.385 . S
C46 C47 1.357 . S
C47 C46 1.357 . S
C47 C48 1.406 . S
C48 H15 0.929 . S
C48 C47 1.406 . S
C48 C49 1.391 . S
C49 H16 0.931 . S
C49 C44 1.370 . S
C49 C48 1.391 . S
C50 N24 1.435 . S
C50 C51 1.358 . S
C50 C55 1.371 . S
C51 H17 0.930 . S
C51 C50 1.358 . S
C51 C52 1.405 . S
C52 H18 0.932 . S
C52 C51 1.405 . S
C52 C53 1.383 . S
C53 C52 1.383 . S
C53 C54 1.393 . S
C54 H19 0.931 . S
C54 C53 1.393 . S
C54 C55 1.382 . S
C55 H20 0.929 . S
C55 C50 1.371 . S
C55 C54 1.382 . S
C56 N24 1.423 . S
C56 C57 1.362 . S
C56 C61 1.388 . S
C57 H21 0.929 . S
C57 C56 1.362 . S
C57 C58 1.376 . S
C58 H22 0.931 . S
C58 C57 1.376 . S
C58 C59 1.396 . S
C59 C41 1.472 . S
C59 C58 1.396 . S
C59 C60 1.348 . S
C60 H23 0.929 . S
C60 C59 1.348 . S
C60 C61 1.443 . S
C61 H25 0.932 . S
C61 C56 1.388 . S
C61 C60 1.443 . S
H62 C89 0.929 . S
N63 C88 1.433 . S
N63 C94 1.435 . S
N63 C100 1.423 . S
H64 C90 0.930 . S
H65 C93 0.931 . S
H66 C92 0.929 . S
H67 C95 0.930 . S
H68 C96 0.932 . S
H69 C99 0.929 . S
H70 C98 0.931 . S
H71 C101 0.929 . S
H72 C105 0.932 . S
H73 C102 0.931 . S
H74 C104 0.929 . S
H75 C107 0.929 . S
H76 C108 0.930 . S
H77 C110 0.929 . S
H78 C111 0.931 . S
H79 C113 0.930 . S
H80 C114 0.932 . S
H81 C116 0.931 . S
H82 C117 0.929 . S
H83 C119 0.929 . S
H84 C120 0.931 . S
H85 C122 0.929 . S
N86 C106 1.433 . S
N86 C112 1.435 . S
N86 C118 1.423 . S
H87 C123 0.932 . S
C88 N63 1.433 . S
C88 C89 1.363 . S
C88 C93 1.370 . S
C89 H62 0.929 . S
C89 C88 1.363 . S
C89 C90 1.385 . S
C90 H64 0.930 . S
C90 C89 1.385 . S
C90 C91 1.357 . S
C91 C90 1.357 . S
C91 C92 1.406 . S
C92 H66 0.929 . S
C92 C91 1.406 . S
C92 C93 1.391 . S
C93 H65 0.931 . S
C93 C88 1.370 . S
C93 C92 1.391 . S
C94 N63 1.435 . S
C94 C95 1.358 . S
C94 C99 1.371 . S
C95 H67 0.930 . S
C95 C94 1.358 . S
C95 C96 1.405 . S
C96 H68 0.932 . S
C96 C95 1.405 . S
C96 C97 1.383 . S
C97 C96 1.383 . S
C97 C98 1.393 . S
C98 H70 0.931 . S
C98 C97 1.393 . S
C98 C99 1.382 . S
C99 H69 0.929 . S
C99 C94 1.371 . S
C99 C98 1.382 . S
C100 N63 1.423 . S
C100 C101 1.362 . S
C100 C105 1.388 . S
C101 H71 0.929 . S
C101 C100 1.362 . S
C101 C102 1.376 . S
C102 H73 0.931 . S
C102 C101 1.376 . S
C102 C103 1.396 . S
C103 C102 1.396 . S
C103 C104 1.348 . S
C103 C121 1.472 . S
C104 H74 0.929 . S
C104 C103 1.348 . S
C104 C105 1.443 . S
C105 H72 0.932 . S
C105 C100 1.388 . S
C105 C104 1.443 . S
C106 N86 1.433 . S
C106 C107 1.363 . S
C106 C111 1.370 . S
C107 H75 0.929 . S
C107 C106 1.363 . S
C107 C108 1.385 . S
C108 H76 0.930 . S
C108 C107 1.385 . S
C108 C109 1.357 . S
C109 C108 1.357 . S
C109 C110 1.406 . S
C110 H77 0.929 . S
C110 C109 1.406 . S
C110 C111 1.391 . S
C111 H78 0.931 . S
C111 C106 1.370 . S
C111 C110 1.391 . S
C112 N86 1.435 . S
C112 C113 1.358 . S
C112 C117 1.371 . S
C113 H79 0.930 . S
C113 C112 1.358 . S
C113 C114 1.405 . S
C114 H80 0.932 . S
C114 C113 1.405 . S
C114 C115 1.383 . S
C115 C114 1.383 . S
C115 C116 1.393 . S
C116 H81 0.931 . S
C116 C115 1.393 . S
C116 C117 1.382 . S
C117 H82 0.929 . S
C117 C112 1.371 . S
C117 C116 1.382 . S
C118 N86 1.423 . S
C118 C119 1.362 . S
C118 C123 1.388 . S
C119 H83 0.929 . S
C119 C118 1.362 . S
C119 C120 1.376 . S
C120 H84 0.931 . S
C120 C119 1.376 . S
C120 C121 1.396 . S
C121 C103 1.472 . S
C121 C120 1.396 . S
C121 C122 1.348 . S
C122 H85 0.929 . S
C122 C121 1.348 . S
C122 C123 1.443 . S
C123 H87 0.932 . S
C123 C118 1.388 . S
C123 C122 1.443 . S
H124 C151 0.929 . S
N125 C150 1.433 . S
N125 C156 1.435 . S
N125 C162 1.423 . S
H126 C152 0.930 . S
H127 C155 0.931 . S
H128 C154 0.929 . S
H129 C157 0.930 . S
H130 C158 0.932 . S
H131 C161 0.929 . S
H132 C160 0.931 . S
H133 C163 0.929 . S
H134 C167 0.932 . S
H135 C164 0.931 . S
H136 C166 0.929 . S
H137 C169 0.929 . S
H138 C170 0.930 . S
H139 C172 0.929 . S
H140 C173 0.931 . S
H141 C175 0.930 . S
H142 C176 0.932 . S
H143 C178 0.931 . S
H144 C179 0.929 . S
H145 C181 0.929 . S
H146 C182 0.931 . S
H147 C184 0.929 . S
N148 C168 1.433 . S
N148 C174 1.435 . S
N148 C180 1.423 . S
H149 C185 0.932 . S
C150 N125 1.433 . S
C150 C151 1.363 . S
C150 C155 1.370 . S
C151 H124 0.929 . S
C151 C150 1.363 . S
C151 C152 1.385 . S
C152 H126 0.930 . S
C152 C151 1.385 . S
C152 C153 1.357 . S
C153 C152 1.357 . S
C153 C154 1.406 . S
C154 H128 0.929 . S
C154 C153 1.406 . S
C154 C155 1.391 . S
C155 H127 0.931 . S
C155 C150 1.370 . S
C155 C154 1.391 . S
C156 N125 1.435 . S
C156 C157 1.358 . S
C156 C161 1.371 . S
C157 H129 0.930 . S
C157 C156 1.358 . S
C157 C158 1.405 . S
C158 H130 0.932 . S
C158 C157 1.405 . S
C158 C159 1.383 . S
C159 C158 1.383 . S
C159 C160 1.393 . S
C160 H132 0.931 . S
C160 C159 1.393 . S
C160 C161 1.382 . S
C161 H131 0.929 . S
C161 C156 1.371 . S
C161 C160 1.382 . S
C162 N125 1.423 . S
C162 C163 1.362 . S
C162 C167 1.388 . S
C163 H133 0.929 . S
C163 C162 1.362 . S
C163 C164 1.376 . S
C164 H135 0.931 . S
C164 C163 1.376 . S
C164 C165 1.396 . S
C165 C164 1.396 . S
C165 C166 1.348 . S
C165 C183 1.472 . S
C166 H136 0.929 . S
C166 C165 1.348 . S
C166 C167 1.443 . S
C167 H134 0.932 . S
C167 C162 1.388 . S
C167 C166 1.443 . S
C168 N148 1.433 . S
C168 C169 1.363 . S
C168 C173 1.370 . S
C169 H137 0.929 . S
C169 C168 1.363 . S
C169 C170 1.385 . S
C170 H138 0.930 . S
C170 C169 1.385 . S
C170 C171 1.357 . S
C171 C170 1.357 . S
C171 C172 1.406 . S
C172 H139 0.929 . S
C172 C171 1.406 . S
C172 C173 1.391 . S
C173 H140 0.931 . S
C173 C168 1.370 . S
C173 C172 1.391 . S
C174 N148 1.435 . S
C174 C175 1.358 . S
C174 C179 1.371 . S
C175 H141 0.930 . S
C175 C174 1.358 . S
C175 C176 1.405 . S
C176 H142 0.932 . S
C176 C175 1.405 . S
C176 C177 1.383 . S
C177 C176 1.383 . S
C177 C178 1.393 . S
C178 H143 0.931 . S
C178 C177 1.393 . S
C178 C179 1.382 . S
C179 H144 0.929 . S
C179 C174 1.371 . S
C179 C178 1.382 . S
C180 N148 1.423 . S
C180 C181 1.362 . S
C180 C185 1.388 . S
C181 H145 0.929 . S
C181 C180 1.362 . S
C181 C182 1.376 . S
C182 H146 0.931 . S
C182 C181 1.376 . S
C182 C183 1.396 . S
C183 C165 1.472 . S
C183 C182 1.396 . S
C183 C184 1.348 . S
C184 H147 0.929 . S
C184 C183 1.348 . S
C184 C185 1.443 . S
C185 H149 0.932 . S
C185 C180 1.388 . S
C185 C184 1.443 . S
H186 C213 0.929 . S
N187 C212 1.433 . S
N187 C218 1.435 . S
N187 C224 1.423 . S
H188 C214 0.930 . S
H189 C217 0.931 . S
H190 C216 0.929 . S
H191 C219 0.930 . S
H192 C220 0.932 . S
H193 C223 0.929 . S
H194 C222 0.931 . S
H195 C225 0.929 . S
H196 C229 0.932 . S
H197 C226 0.931 . S
H198 C228 0.929 . S
H199 C231 0.929 . S
H200 C232 0.930 . S
H201 C234 0.929 . S
H202 C235 0.931 . S
H203 C237 0.930 . S
H204 C238 0.932 . S
H205 C240 0.931 . S
H206 C241 0.929 . S
H207 C243 0.929 . S
H208 C244 0.931 . S
H209 C246 0.929 . S
N210 C230 1.433 . S
N210 C236 1.435 . S
N210 C242 1.423 . S
H211 C247 0.932 . S
C212 N187 1.433 . S
C212 C213 1.363 . S
C212 C217 1.370 . S
C213 H186 0.929 . S
C213 C212 1.363 . S
C213 C214 1.385 . S
C214 H188 0.930 . S
C214 C213 1.385 . S
C214 C215 1.357 . S
C215 C214 1.357 . S
C215 C216 1.406 . S
C216 H190 0.929 . S
C216 C215 1.406 . S
C216 C217 1.391 . S
C217 H189 0.931 . S
C217 C212 1.370 . S
C217 C216 1.391 . S
C218 N187 1.435 . S
C218 C219 1.358 . S
C218 C223 1.371 . S
C219 H191 0.930 . S
C219 C218 1.358 . S
C219 C220 1.405 . S
C220 H192 0.932 . S
C220 C219 1.405 . S
C220 C221 1.383 . S
C221 C220 1.383 . S
C221 C222 1.393 . S
C222 H194 0.931 . S
C222 C221 1.393 . S
C222 C223 1.382 . S
C223 H193 0.929 . S
C223 C218 1.371 . S
C223 C222 1.382 . S
C224 N187 1.423 . S
C224 C225 1.362 . S
C224 C229 1.388 . S
C225 H195 0.929 . S
C225 C224 1.362 . S
C225 C226 1.376 . S
C226 H197 0.931 . S
C226 C225 1.376 . S
C226 C227 1.396 . S
C227 C226 1.396 . S
C227 C228 1.348 . S
C227 C245 1.472 . S
C228 H198 0.929 . S
C228 C227 1.348 . S
C228 C229 1.443 . S
C229 H196 0.932 . S
C229 C224 1.388 . S
C229 C228 1.443 . S
C230 N210 1.433 . S
C230 C231 1.363 . S
C230 C235 1.370 . S
C231 H199 0.929 . S
C231 C230 1.363 . S
C231 C232 1.385 . S
C232 H200 0.930 . S
C232 C231 1.385 . S
C232 C233 1.357 . S
C233 C232 1.357 . S
C233 C234 1.406 . S
C234 H201 0.929 . S
C234 C233 1.406 . S
C234 C235 1.391 . S
C235 H202 0.931 . S
C235 C230 1.370 . S
C235 C234 1.391 . S
C236 N210 1.435 . S
C236 C237 1.358 . S
C236 C241 1.371 . S
C237 H203 0.930 . S
C237 C236 1.358 . S
C237 C238 1.405 . S
C238 H204 0.932 . S
C238 C237 1.405 . S
C238 C239 1.383 . S
C239 C238 1.383 . S
C239 C240 1.393 . S
C240 H205 0.931 . S
C240 C239 1.393 . S
C240 C241 1.382 . S
C241 H206 0.929 . S
C241 C236 1.371 . S
C241 C240 1.382 . S
C242 N210 1.423 . S
C242 C243 1.362 . S
C242 C247 1.388 . S
C243 H207 0.929 . S
C243 C242 1.362 . S
C243 C244 1.376 . S
C244 H208 0.931 . S
C244 C243 1.376 . S
C244 C245 1.396 . S
C245 C227 1.472 . S
C245 C244 1.396 . S
C245 C246 1.348 . S
C246 H209 0.929 . S
C246 C245 1.348 . S
C246 C247 1.443 . S
C247 H211 0.932 . S
C247 C242 1.388 . S
C247 C246 1.443 . S
H248 C275 0.929 . S
N249 C274 1.433 . S
N249 C280 1.435 . S
N249 C286 1.423 . S
H250 C276 0.930 . S
H251 C279 0.931 . S
H252 C278 0.929 . S
H253 C281 0.930 . S
H254 C282 0.932 . S
H255 C285 0.929 . S
H256 C284 0.931 . S
H257 C287 0.929 . S
H258 C291 0.932 . S
H259 C288 0.931 . S
H260 C290 0.929 . S
H261 C293 0.929 . S
H262 C294 0.930 . S
H263 C296 0.929 . S
H264 C297 0.931 . S
H265 C299 0.930 . S
H266 C300 0.932 . S
H267 C302 0.931 . S
H268 C303 0.929 . S
H269 C305 0.929 . S
H270 C306 0.931 . S
H271 C308 0.929 . S
N272 C292 1.433 . S
N272 C298 1.435 . S
N272 C304 1.423 . S
H273 C309 0.932 . S
C274 N249 1.433 . S
C274 C275 1.363 . S
C274 C279 1.370 . S
C275 H248 0.929 . S
C275 C274 1.363 . S
C275 C276 1.385 . S
C276 H250 0.930 . S
C276 C275 1.385 . S
C276 C277 1.357 . S
C277 C276 1.357 . S
C277 C278 1.406 . S
C278 H252 0.929 . S
C278 C277 1.406 . S
C278 C279 1.391 . S
C279 H251 0.931 . S
C279 C274 1.370 . S
C279 C278 1.391 . S
C280 N249 1.435 . S
C280 C281 1.358 . S
C280 C285 1.371 . S
C281 H253 0.930 . S
C281 C280 1.358 . S
C281 C282 1.405 . S
C282 H254 0.932 . S
C282 C281 1.405 . S
C282 C283 1.383 . S
C283 C282 1.383 . S
C283 C284 1.393 . S
C284 H256 0.931 . S
C284 C283 1.393 . S
C284 C285 1.382 . S
C285 H255 0.929 . S
C285 C280 1.371 . S
C285 C284 1.382 . S
C286 N249 1.423 . S
C286 C287 1.362 . S
C286 C291 1.388 . S
C287 H257 0.929 . S
C287 C286 1.362 . S
C287 C288 1.376 . S
C288 H259 0.931 . S
C288 C287 1.376 . S
C288 C289 1.396 . S
C289 C288 1.396 . S
C289 C290 1.348 . S
C289 C307 1.472 . S
C290 H260 0.929 . S
C290 C289 1.348 . S
C290 C291 1.443 . S
C291 H258 0.932 . S
C291 C286 1.388 . S
C291 C290 1.443 . S
C292 N272 1.433 . S
C292 C293 1.363 . S
C292 C297 1.370 . S
C293 H261 0.929 . S
C293 C292 1.363 . S
C293 C294 1.385 . S
C294 H262 0.930 . S
C294 C293 1.385 . S
C294 C295 1.357 . S
C295 C294 1.357 . S
C295 C296 1.406 . S
C296 H263 0.929 . S
C296 C295 1.406 . S
C296 C297 1.391 . S
C297 H264 0.931 . S
C297 C292 1.370 . S
C297 C296 1.391 . S
C298 N272 1.435 . S
C298 C299 1.358 . S
C298 C303 1.371 . S
C299 H265 0.930 . S
C299 C298 1.358 . S
C299 C300 1.405 . S
C300 H266 0.932 . S
C300 C299 1.405 . S
C300 C301 1.383 . S
C301 C300 1.383 . S
C301 C302 1.393 . S
C302 H267 0.931 . S
C302 C301 1.393 . S
C302 C303 1.382 . S
C303 H268 0.929 . S
C303 C298 1.371 . S
C303 C302 1.382 . S
C304 N272 1.423 . S
C304 C305 1.362 . S
C304 C309 1.388 . S
C305 H269 0.929 . S
C305 C304 1.362 . S
C305 C306 1.376 . S
C306 H270 0.931 . S
C306 C305 1.376 . S
C306 C307 1.396 . S
C307 C289 1.472 . S
C307 C306 1.396 . S
C307 C308 1.348 . S
C308 H271 0.929 . S
C308 C307 1.348 . S
C308 C309 1.443 . S
C309 H273 0.932 . S
C309 C304 1.388 . S
C309 C308 1.443 . S
H310 C337 0.929 . S
N311 C336 1.433 . S
N311 C342 1.435 . S
N311 C348 1.423 . S
H312 C338 0.930 . S
H313 C341 0.931 . S
H314 C340 0.929 . S
H315 C343 0.930 . S
H316 C344 0.932 . S
H317 C347 0.929 . S
H318 C346 0.931 . S
H319 C349 0.929 . S
H320 C353 0.932 . S
H321 C350 0.931 . S
H322 C352 0.929 . S
H323 C355 0.929 . S
H324 C356 0.930 . S
H325 C358 0.929 . S
H326 C359 0.931 . S
H327 C361 0.930 . S
H328 C362 0.932 . S
H329 C364 0.931 . S
H330 C365 0.929 . S
H331 C367 0.929 . S
H332 C368 0.931 . S
H333 C370 0.929 . S
N334 C354 1.433 . S
N334 C360 1.435 . S
N334 C366 1.423 . S
H335 C371 0.932 . S
C336 N311 1.433 . S
C336 C337 1.363 . S
C336 C341 1.370 . S
C337 H310 0.929 . S
C337 C336 1.363 . S
C337 C338 1.385 . S
C338 H312 0.930 . S
C338 C337 1.385 . S
C338 C339 1.357 . S
C339 C338 1.357 . S
C339 C340 1.406 . S
C340 H314 0.929 . S
C340 C339 1.406 . S
C340 C341 1.391 . S
C341 H313 0.931 . S
C341 C336 1.370 . S
C341 C340 1.391 . S
C342 N311 1.435 . S
C342 C343 1.358 . S
C342 C347 1.371 . S
C343 H315 0.930 . S
C343 C342 1.358 . S
C343 C344 1.405 . S
C344 H316 0.932 . S
C344 C343 1.405 . S
C344 C345 1.383 . S
C345 C344 1.383 . S
C345 C346 1.393 . S
C346 H318 0.931 . S
C346 C345 1.393 . S
C346 C347 1.382 . S
C347 H317 0.929 . S
C347 C342 1.371 . S
C347 C346 1.382 . S
C348 N311 1.423 . S
C348 C349 1.362 . S
C348 C353 1.388 . S
C349 H319 0.929 . S
C349 C348 1.362 . S
C349 C350 1.376 . S
C350 H321 0.931 . S
C350 C349 1.376 . S
C350 C351 1.396 . S
C351 C350 1.396 . S
C351 C352 1.348 . S
C351 C369 1.472 . S
C352 H322 0.929 . S
C352 C351 1.348 . S
C352 C353 1.443 . S
C353 H320 0.932 . S
C353 C348 1.388 . S
C353 C352 1.443 . S
C354 N334 1.433 . S
C354 C355 1.363 . S
C354 C359 1.370 . S
C355 H323 0.929 . S
C355 C354 1.363 . S
C355 C356 1.385 . S
C356 H324 0.930 . S
C356 C355 1.385 . S
C356 C357 1.357 . S
C357 C356 1.357 . S
C357 C358 1.406 . S
C358 H325 0.929 . S
C358 C357 1.406 . S
C358 C359 1.391 . S
C359 H326 0.931 . S
C359 C354 1.370 . S
C359 C358 1.391 . S
C360 N334 1.435 . S
C360 C361 1.358 . S
C360 C365 1.371 . S
C361 H327 0.930 . S
C361 C360 1.358 . S
C361 C362 1.405 . S
C362 H328 0.932 . S
C362 C361 1.405 . S
C362 C363 1.383 . S
C363 C362 1.383 . S
C363 C364 1.393 . S
C364 H329 0.931 . S
C364 C363 1.393 . S
C364 C365 1.382 . S
C365 H330 0.929 . S
C365 C360 1.371 . S
C365 C364 1.382 . S
C366 N334 1.423 . S
C366 C367 1.362 . S
C366 C371 1.388 . S
C367 H331 0.929 . S
C367 C366 1.362 . S
C367 C368 1.376 . S
C368 H332 0.931 . S
C368 C367 1.376 . S
C368 C369 1.396 . S
C369 C351 1.472 . S
C369 C368 1.396 . S
C369 C370 1.348 . S
C370 H333 0.929 . S
C370 C369 1.348 . S
C370 C371 1.443 . S
C371 H335 0.932 . S
C371 C366 1.388 . S
C371 C370 1.443 . S
H372 C399 0.929 . S
N373 C398 1.433 . S
N373 C404 1.435 . S
N373 C410 1.423 . S
H374 C400 0.930 . S
H375 C403 0.931 . S
H376 C402 0.929 . S
H377 C405 0.930 . S
H378 C406 0.932 . S
H379 C409 0.929 . S
H380 C408 0.931 . S
H381 C411 0.929 . S
H382 C415 0.932 . S
H383 C412 0.931 . S
H384 C414 0.929 . S
H385 C417 0.929 . S
H386 C418 0.930 . S
H387 C420 0.929 . S
H388 C421 0.931 . S
H389 C423 0.930 . S
H390 C424 0.932 . S
H391 C426 0.931 . S
H392 C427 0.929 . S
H393 C429 0.929 . S
H394 C430 0.931 . S
H395 C432 0.929 . S
N396 C416 1.433 . S
N396 C422 1.435 . S
N396 C428 1.423 . S
H397 C433 0.932 . S
C398 N373 1.433 . S
C398 C399 1.363 . S
C398 C403 1.370 . S
C399 H372 0.929 . S
C399 C398 1.363 . S
C399 C400 1.385 . S
C400 H374 0.930 . S
C400 C399 1.385 . S
C400 C401 1.357 . S
C401 C400 1.357 . S
C401 C402 1.406 . S
C402 H376 0.929 . S
C402 C401 1.406 . S
C402 C403 1.391 . S
C403 H375 0.931 . S
C403 C398 1.370 . S
C403 C402 1.391 . S
C404 N373 1.435 . S
C404 C405 1.358 . S
C404 C409 1.371 . S
C405 H377 0.930 . S
C405 C404 1.358 . S
C405 C406 1.405 . S
C406 H378 0.932 . S
C406 C405 1.405 . S
C406 C407 1.383 . S
C407 C406 1.383 . S
C407 C408 1.393 . S
C408 H380 0.931 . S
C408 C407 1.393 . S
C408 C409 1.382 . S
C409 H379 0.929 . S
C409 C404 1.371 . S
C409 C408 1.382 . S
C410 N373 1.423 . S
C410 C411 1.362 . S
C410 C415 1.388 . S
C411 H381 0.929 . S
C411 C410 1.362 . S
C411 C412 1.376 . S
C412 H383 0.931 . S
C412 C411 1.376 . S
C412 C413 1.396 . S
C413 C412 1.396 . S
C413 C414 1.348 . S
C413 C431 1.472 . S
C414 H384 0.929 . S
C414 C413 1.348 . S
C414 C415 1.443 . S
C415 H382 0.932 . S
C415 C410 1.388 . S
C415 C414 1.443 . S
C416 N396 1.433 . S
C416 C417 1.363 . S
C416 C421 1.370 . S
C417 H385 0.929 . S
C417 C416 1.363 . S
C417 C418 1.385 . S
C418 H386 0.930 . S
C418 C417 1.385 . S
C418 C419 1.357 . S
C419 C418 1.357 . S
C419 C420 1.406 . S
C420 H387 0.929 . S
C420 C419 1.406 . S
C420 C421 1.391 . S
C421 H388 0.931 . S
C421 C416 1.370 . S
C421 C420 1.391 . S
C422 N396 1.435 . S
C422 C423 1.358 . S
C422 C427 1.371 . S
C423 H389 0.930 . S
C423 C422 1.358 . S
C423 C424 1.405 . S
C424 H390 0.932 . S
C424 C423 1.405 . S
C424 C425 1.383 . S
C425 C424 1.383 . S
C425 C426 1.393 . S
C426 H391 0.931 . S
C426 C425 1.393 . S
C426 C427 1.382 . S
C427 H392 0.929 . S
C427 C422 1.371 . S
C427 C426 1.382 . S
C428 N396 1.423 . S
C428 C429 1.362 . S
C428 C433 1.388 . S
C429 H393 0.929 . S
C429 C428 1.362 . S
C429 C430 1.376 . S
C430 H394 0.931 . S
C430 C429 1.376 . S
C430 C431 1.396 . S
C431 C413 1.472 . S
C431 C430 1.396 . S
C431 C432 1.348 . S
C432 H395 0.929 . S
C432 C431 1.348 . S
C432 C433 1.443 . S
C433 H397 0.932 . S
C433 C428 1.388 . S
C433 C432 1.443 . S
H434 C461 0.929 . S
N435 C460 1.433 . S
N435 C466 1.435 . S
N435 C472 1.423 . S
H436 C462 0.930 . S
H437 C465 0.931 . S
H438 C464 0.929 . S
H439 C467 0.930 . S
H440 C468 0.932 . S
H441 C471 0.929 . S
H442 C470 0.931 . S
H443 C473 0.929 . S
H444 C477 0.932 . S
H445 C474 0.931 . S
H446 C476 0.929 . S
H447 C479 0.929 . S
H448 C480 0.930 . S
H449 C482 0.929 . S
H450 C483 0.931 . S
H451 C485 0.930 . S
H452 C486 0.932 . S
H453 C488 0.931 . S
H454 C489 0.929 . S
H455 C491 0.929 . S
H456 C492 0.931 . S
H457 C494 0.929 . S
N458 C478 1.433 . S
N458 C484 1.435 . S
N458 C490 1.423 . S
H459 C495 0.932 . S
C460 N435 1.433 . S
C460 C461 1.363 . S
C460 C465 1.370 . S
C461 H434 0.929 . S
C461 C460 1.363 . S
C461 C462 1.385 . S
C462 H436 0.930 . S
C462 C461 1.385 . S
C462 C463 1.357 . S
C463 C462 1.357 . S
C463 C464 1.406 . S
C464 H438 0.929 . S
C464 C463 1.406 . S
C464 C465 1.391 . S
C465 H437 0.931 . S
C465 C460 1.370 . S
C465 C464 1.391 . S
C466 N435 1.435 . S
C466 C467 1.358 . S
C466 C471 1.371 . S
C467 H439 0.930 . S
C467 C466 1.358 . S
C467 C468 1.405 . S
C468 H440 0.932 . S
C468 C467 1.405 . S
C468 C469 1.383 . S
C469 C468 1.383 . S
C469 C470 1.393 . S
C470 H442 0.931 . S
C470 C469 1.393 . S
C470 C471 1.382 . S
C471 H441 0.929 . S
C471 C466 1.371 . S
C471 C470 1.382 . S
C472 N435 1.423 . S
C472 C473 1.362 . S
C472 C477 1.388 . S
C473 H443 0.929 . S
C473 C472 1.362 . S
C473 C474 1.376 . S
C474 H445 0.931 . S
C474 C473 1.376 . S
C474 C475 1.396 . S
C475 C474 1.396 . S
C475 C476 1.348 . S
C475 C493 1.472 . S
C476 H446 0.929 . S
C476 C475 1.348 . S
C476 C477 1.443 . S
C477 H444 0.932 . S
C477 C472 1.388 . S
C477 C476 1.443 . S
C478 N458 1.433 . S
C478 C479 1.363 . S
C478 C483 1.370 . S
C479 H447 0.929 . S
C479 C478 1.363 . S
C479 C480 1.385 . S
C480 H448 0.930 . S
C480 C479 1.385 . S
C480 C481 1.357 . S
C481 C480 1.357 . S
C481 C482 1.406 . S
C482 H449 0.929 . S
C482 C481 1.406 . S
C482 C483 1.391 . S
C483 H450 0.931 . S
C483 C478 1.370 . S
C483 C482 1.391 . S
C484 N458 1.435 . S
C484 C485 1.358 . S
C484 C489 1.371 . S
C485 H451 0.930 . S
C485 C484 1.358 . S
C485 C486 1.405 . S
C486 H452 0.932 . S
C486 C485 1.405 . S
C486 C487 1.383 . S
C487 C486 1.383 . S
C487 C488 1.393 . S
C488 H453 0.931 . S
C488 C487 1.393 . S
C488 C489 1.382 . S
C489 H454 0.929 . S
C489 C484 1.371 . S
C489 C488 1.382 . S
C490 N458 1.423 . S
C490 C491 1.362 . S
C490 C495 1.388 . S
C491 H455 0.929 . S
C491 C490 1.362 . S
C491 C492 1.376 . S
C492 H456 0.931 . S
C492 C491 1.376 . S
C492 C493 1.396 . S
C493 C475 1.472 . S
C493 C492 1.396 . S
C493 C494 1.348 . S
C494 H457 0.929 . S
C494 C493 1.348 . S
C494 C495 1.443 . S
C495 H459 0.932 . S
C495 C490 1.388 . S
C495 C494 1.443 . S
C496 C497 1.443 . S
C496 N500 1.376 . S
C496 C534 1.389 . S
C497 C496 1.443 . S
C497 C498 1.340 . S
C497 H537 0.951 . S
C498 C497 1.340 . S
C498 C499 1.439 . S
C498 H538 0.950 . S
C499 C498 1.439 . S
C499 N500 1.374 . S
C499 C533 1.395 . S
N500 C496 1.376 . S
N500 C499 1.374 . S
N500 Co501 2.008 . S
Co501 N500 2.008 . S
Co501 N502 1.995 1_455 S
Co501 N507 2.008 1_455 S
Co501 N512 1.995 . S
Co501 N517 2.282 1_455 S
Co501 N523 2.282 . S
N502 Co501 1.995 1_655 S
N502 C503 1.376 . S
N502 C506 1.383 . S
C503 N502 1.376 . S
C503 C504 1.444 . S
C503 C533 1.394 1_655 S
C504 C503 1.444 . S
C504 C505 1.339 . S
C504 H539 0.949 . S
C505 C504 1.339 . S
C505 C506 1.439 . S
C505 H540 0.950 . S
C506 N502 1.383 . S
C506 C505 1.439 . S
C506 C535 1.392 . S
N507 Co501 2.008 1_655 S
N507 C508 1.376 . S
N507 C511 1.374 . S
C508 N507 1.376 . S
C508 C509 1.443 . S
C508 C535 1.389 . S
C509 C508 1.443 . S
C509 C510 1.340 . S
C509 H541 0.951 . S
C510 C509 1.340 . S
C510 C511 1.439 . S
C510 H542 0.950 . S
C511 N507 1.374 . S
C511 C510 1.439 . S
C511 C536 1.395 1_655 S
N512 Co501 1.995 . S
N512 C513 1.376 . S
N512 C516 1.383 . S
C513 N512 1.376 . S
C513 C514 1.446 . S
C513 C536 1.391 . S
C514 C513 1.446 . S
C514 C515 1.339 . S
C514 H543 0.949 . S
C515 C514 1.339 . S
C515 C516 1.439 . S
C515 H544 0.950 . S
C516 N512 1.383 . S
C516 C515 1.439 . S
C516 C534 1.392 . S
N517 Co501 2.282 1_655 S
N517 C520 1.332 . S
N517 C522 1.332 . S
C518 C519 1.386 . S
C518 C521 1.388 . S
C519 C518 1.386 . S
C519 C520 1.382 . S
C519 H545 0.950 . S
C520 N517 1.332 . S
C520 C519 1.382 . S
C520 H531 0.952 . S
C521 C518 1.388 . S
C521 C522 1.382 . S
C521 H546 0.950 . S
C522 N517 1.332 . S
C522 C521 1.382 . S
C522 H532 0.948 . S
N523 Co501 2.282 . S
N523 C527 1.332 . S
N523 C528 1.332 . S
C524 C525 1.388 . S
C524 C528 1.382 . S
C524 H547 0.950 . S
C525 C524 1.388 . S
C525 C526 1.386 . S
C526 C525 1.386 . S
C526 C527 1.382 . S
C526 H548 0.950 . S
C527 N523 1.332 . S
C527 C526 1.382 . S
C527 H529 0.952 . S
C528 N523 1.332 . S
C528 C524 1.382 . S
C528 H530 0.948 . S
H529 C527 0.952 . S
H530 C528 0.948 . S
H531 C520 0.952 . S
H532 C522 0.948 . S
C533 C499 1.395 . S
C533 C503 1.394 1_455 S
C534 C496 1.389 . S
C534 C516 1.392 . S
C535 C506 1.392 . S
C535 C508 1.389 . S
C536 C511 1.395 1_455 S
C536 C513 1.391 . S
H537 C497 0.951 . S
H538 C498 0.950 . S
H539 C504 0.949 . S
H540 C505 0.950 . S
H541 C509 0.951 . S
H542 C510 0.950 . S
H543 C514 0.949 . S
H544 C515 0.950 . S
H545 C519 0.950 . S
H546 C521 0.950 . S
H547 C524 0.950 . S
H548 C526 0.950 . S
C549 C550 1.443 . S
C549 N553 1.376 . S
C549 C587 1.389 . S
C550 C549 1.443 . S
C550 C551 1.340 . S
C550 H590 0.951 . S
C551 C550 1.340 . S
C551 C552 1.439 . S
C551 H591 0.950 . S
C552 C551 1.439 . S
C552 N553 1.374 . S
C552 C586 1.395 . S
N553 C549 1.376 . S
N553 C552 1.374 . S
N553 Co554 2.008 . S
Co554 N553 2.008 . S
Co554 N555 1.995 1_545 S
Co554 N560 2.008 1_545 S
Co554 N565 1.995 . S
Co554 N570 2.282 1_545 S
Co554 N576 2.282 . S
N555 Co554 1.995 1_565 S
N555 C556 1.376 1_565 S
N555 C559 1.383 . S
C556 N555 1.376 1_545 S
C556 C557 1.446 1_545 S
C556 C586 1.391 . S
C557 C556 1.446 1_565 S
C557 C558 1.339 . S
C557 H592 0.949 . S
C558 C557 1.339 . S
C558 C559 1.439 . S
C558 H593 0.950 . S
C559 N555 1.383 . S
C559 C558 1.439 . S
C559 C588 1.392 . S
N560 Co554 2.008 1_565 S
N560 C561 1.376 . S
N560 C564 1.374 . S
C561 N560 1.376 . S
C561 C562 1.443 . S
C561 C588 1.389 . S
C562 C561 1.443 . S
C562 C563 1.340 . S
C562 H594 0.951 . S
C563 C562 1.340 . S
C563 C564 1.439 . S
C563 H595 0.950 . S
C564 N560 1.374 . S
C564 C563 1.439 . S
C564 C589 1.395 1_565 S
N565 Co554 1.995 . S
N565 C566 1.376 . S
N565 C569 1.383 . S
C566 N565 1.376 . S
C566 C567 1.446 . S
C566 C589 1.391 . S
C567 C566 1.446 . S
C567 C568 1.339 . S
C567 H596 0.949 . S
C568 C567 1.339 . S
C568 C569 1.439 . S
C568 H597 0.950 . S
C569 N565 1.383 . S
C569 C568 1.439 . S
C569 C587 1.392 . S
N570 Co554 2.282 1_565 S
N570 C573 1.332 . S
N570 C575 1.332 . S
C571 C572 1.386 . S
C571 C574 1.388 . S
C572 C571 1.386 . S
C572 C573 1.382 . S
C572 H598 0.950 . S
C573 N570 1.332 . S
C573 C572 1.382 . S
C573 H584 0.952 . S
C574 C571 1.388 . S
C574 C575 1.382 . S
C574 H599 0.950 . S
C575 N570 1.332 . S
C575 C574 1.382 . S
C575 H585 0.948 . S
N576 Co554 2.282 . S
N576 C580 1.332 . S
N576 C581 1.332 . S
C577 C578 1.388 . S
C577 C581 1.382 . S
C577 H600 0.950 . S
C578 C577 1.388 . S
C578 C579 1.386 . S
C579 C578 1.386 . S
C579 C580 1.382 . S
C579 H601 0.950 . S
C580 N576 1.332 . S
C580 C579 1.382 . S
C580 H582 0.952 . S
C581 N576 1.332 . S
C581 C577 1.382 . S
C581 H583 0.948 . S
H582 C580 0.952 . S
H583 C581 0.948 . S
H584 C573 0.952 . S
H585 C575 0.948 . S
C586 C552 1.395 . S
C586 C556 1.391 . S
C587 C549 1.389 . S
C587 C569 1.392 . S
C588 C559 1.392 . S
C588 C561 1.389 . S
C589 C564 1.395 1_545 S
C589 C566 1.391 . S
H590 C550 0.951 . S
H591 C551 0.950 . S
H592 C557 0.949 . S
H593 C558 0.950 . S
H594 C562 0.951 . S
H595 C563 0.950 . S
H596 C567 0.949 . S
H597 C568 0.950 . S
H598 C572 0.950 . S
H599 C574 0.950 . S
H600 C577 0.950 . S
H601 C579 0.950 . S
C602 C603 1.443 . S
C602 N606 1.376 . S
C602 C640 1.389 . S
C603 C602 1.443 . S
C603 C604 1.340 . S
C603 H643 0.951 . S
C604 C603 1.340 . S
C604 C605 1.439 . S
C604 H644 0.950 . S
C605 C604 1.439 . S
C605 N606 1.374 . S
C605 C639 1.395 . S
N606 C602 1.376 . S
N606 C605 1.374 . S
N606 Co607 2.008 . S
Co607 N606 2.008 . S
Co607 N608 1.995 1_455 S
Co607 N613 2.008 1_455 S
Co607 N618 1.995 . S
Co607 N623 2.282 1_455 S
Co607 N629 2.282 . S
N608 Co607 1.995 1_655 S
N608 C609 1.376 . S
N608 C612 1.383 . S
C609 N608 1.376 . S
C609 C610 1.446 . S
C609 C639 1.391 1_655 S
C610 C609 1.446 . S
C610 C611 1.339 . S
C610 H645 0.949 . S
C611 C610 1.339 . S
C611 C612 1.439 . S
C611 H646 0.950 . S
C612 N608 1.383 . S
C612 C611 1.439 . S
C612 C641 1.392 . S
N613 Co607 2.008 1_655 S
N613 C614 1.376 . S
N613 C617 1.374 . S
C614 N613 1.376 . S
C614 C615 1.443 . S
C614 C641 1.389 . S
C615 C614 1.443 . S
C615 C616 1.340 . S
C615 H647 0.951 . S
C616 C615 1.340 . S
C616 C617 1.439 . S
C616 H648 0.950 . S
C617 N613 1.374 . S
C617 C616 1.439 . S
C617 C642 1.395 1_655 S
N618 Co607 1.995 . S
N618 C619 1.376 . S
N618 C622 1.383 . S
C619 N618 1.376 . S
C619 C620 1.446 . S
C619 C642 1.391 . S
C620 C619 1.446 . S
C620 C621 1.339 . S
C620 H649 0.949 . S
C621 C620 1.339 . S
C621 C622 1.439 . S
C621 H650 0.950 . S
C622 N618 1.383 . S
C622 C621 1.439 . S
C622 C640 1.392 . S
N623 Co607 2.282 1_655 S
N623 C626 1.332 . S
N623 C628 1.332 . S
C624 C625 1.386 . S
C624 C627 1.388 . S
C625 C624 1.386 . S
C625 C626 1.382 . S
C625 H651 0.950 . S
C626 N623 1.332 . S
C626 C625 1.382 . S
C626 H637 0.952 . S
C627 C624 1.388 . S
C627 C628 1.382 . S
C627 H652 0.950 . S
C628 N623 1.332 . S
C628 C627 1.382 . S
C628 H638 0.948 . S
N629 Co607 2.282 . S
N629 C633 1.332 . S
N629 C634 1.332 . S
C630 C631 1.388 . S
C630 C634 1.382 . S
C630 H653 0.950 . S
C631 C630 1.388 . S
C631 C632 1.386 . S
C632 C631 1.386 . S
C632 C633 1.382 . S
C632 H654 0.950 . S
C633 N629 1.332 . S
C633 C632 1.382 . S
C633 H635 0.952 . S
C634 N629 1.332 . S
C634 C630 1.382 . S
C634 H636 0.948 . S
H635 C633 0.952 . S
H636 C634 0.948 . S
H637 C626 0.952 . S
H638 C628 0.948 . S
C639 C605 1.395 . S
C639 C609 1.391 1_455 S
C640 C602 1.389 . S
C640 C622 1.392 . S
C641 C612 1.392 . S
C641 C614 1.389 . S
C642 C617 1.395 1_455 S
C642 C619 1.391 . S
H643 C603 0.951 . S
H644 C604 0.950 . S
H645 C610 0.949 . S
H646 C611 0.950 . S
H647 C615 0.951 . S
H648 C616 0.950 . S
H649 C620 0.949 . S
H650 C621 0.950 . S
H651 C625 0.950 . S
H652 C627 0.950 . S
H653 C630 0.950 . S
H654 C632 0.950 . S
C655 C656 1.443 . S
C655 N659 1.376 . S
C655 C693 1.389 . S
C656 C655 1.443 . S
C656 C657 1.340 . S
C656 H696 0.951 . S
C657 C656 1.340 . S
C657 C658 1.439 . S
C657 H697 0.950 . S
C658 C657 1.439 . S
C658 N659 1.374 . S
C658 C692 1.395 1_565 S
N659 C655 1.376 . S
N659 C658 1.374 . S
N659 Co660 2.008 1_565 S
Co660 N659 2.008 1_545 S
Co660 N661 1.995 . S
Co660 N666 2.008 . S
Co660 N671 1.995 1_545 S
Co660 N676 2.282 . S
Co660 N682 2.282 1_545 S
N661 Co660 1.995 . S
N661 C662 1.376 . S
N661 C665 1.383 . S
C662 N661 1.376 . S
C662 C663 1.446 . S
C662 C692 1.391 . S
C663 C662 1.446 . S
C663 C664 1.339 . S
C663 H698 0.949 . S
C664 C663 1.339 . S
C664 C665 1.439 . S
C664 H699 0.950 . S
C665 N661 1.383 . S
C665 C664 1.439 . S
C665 C694 1.392 . S
N666 Co660 2.008 . S
N666 C667 1.376 . S
N666 C670 1.374 . S
C667 N666 1.376 . S
C667 C668 1.443 . S
C667 C694 1.389 . S
C668 C667 1.443 . S
C668 C669 1.340 . S
C668 H700 0.951 . S
C669 C668 1.340 . S
C669 C670 1.439 . S
C669 H701 0.950 . S
C670 N666 1.374 . S
C670 C669 1.439 . S
C670 C695 1.395 . S
N671 Co660 1.995 1_565 S
N671 C672 1.376 1_565 S
N671 C675 1.383 . S
C672 N671 1.376 1_545 S
C672 C673 1.446 1_545 S
C672 C695 1.391 . S
C673 C672 1.446 1_565 S
C673 C674 1.339 . S
C673 H702 0.949 . S
C674 C673 1.339 . S
C674 C675 1.439 . S
C674 H703 0.950 . S
C675 N671 1.383 . S
C675 C674 1.439 . S
C675 C693 1.392 . S
N676 Co660 2.282 . S
N676 C679 1.332 . S
N676 C681 1.332 . S
C677 C678 1.386 . S
C677 C680 1.388 . S
C678 C677 1.386 . S
C678 C679 1.382 . S
C678 H704 0.950 . S
C679 N676 1.332 . S
C679 C678 1.382 . S
C679 H690 0.952 . S
C680 C677 1.388 . S
C680 C681 1.382 . S
C680 H705 0.950 . S
C681 N676 1.332 . S
C681 C680 1.382 . S
C681 H691 0.948 . S
N682 Co660 2.282 1_565 S
N682 C686 1.332 . S
N682 C687 1.332 . S
C683 C684 1.388 . S
C683 C687 1.382 . S
C683 H706 0.950 . S
C684 C683 1.388 . S
C684 C685 1.386 . S
C685 C684 1.386 . S
C685 C686 1.382 . S
C685 H707 0.950 . S
C686 N682 1.332 . S
C686 C685 1.382 . S
C686 H688 0.952 . S
C687 N682 1.332 . S
C687 C683 1.382 . S
C687 H689 0.948 . S
H688 C686 0.952 . S
H689 C687 0.948 . S
H690 C679 0.952 . S
H691 C681 0.948 . S
C692 C658 1.395 1_545 S
C692 C662 1.391 . S
C693 C655 1.389 . S
C693 C675 1.392 . S
C694 C665 1.392 . S
C694 C667 1.389 . S
C695 C670 1.395 . S
C695 C672 1.391 . S
H696 C656 0.951 . S
H697 C657 0.950 . S
H698 C663 0.949 . S
H699 C664 0.950 . S
H700 C668 0.951 . S
H701 C669 0.950 . S
H702 C673 0.949 . S
H703 C674 0.950 . S
H704 C678 0.950 . S
H705 C680 0.950 . S
H706 C683 0.950 . S
H707 C685 0.950 . S
C708 C709 1.443 . S
C708 N712 1.376 . S
C708 C746 1.389 . S
C709 C708 1.443 . S
C709 C710 1.340 . S
C709 H749 0.951 . S
C710 C709 1.340 . S
C710 C711 1.439 . S
C710 H750 0.950 . S
C711 C710 1.439 . S
C711 N712 1.374 . S
C711 C745 1.384 1_554 S
N712 C708 1.376 . S
N712 C711 1.374 . S
N712 Co713 2.008 . S
Co713 N712 2.008 . S
Co713 N714 1.995 1_554 S
Co713 N719 2.008 1_554 S
Co713 N724 1.995 . S
Co713 N729 2.282 . S
Co713 N735 2.282 1_554 S
N714 Co713 1.995 1_556 S
N714 C715 1.376 . S
N714 C718 1.383 . S
C715 N714 1.376 . S
C715 C716 1.446 . S
C715 C745 1.402 . S
C716 C715 1.446 . S
C716 C717 1.339 . S
C716 H751 0.949 . S
C717 C716 1.339 . S
C717 C718 1.439 . S
C717 H752 0.950 . S
C718 N714 1.383 . S
C718 C717 1.439 . S
C718 C747 1.392 . S
N719 Co713 2.008 1_556 S
N719 C720 1.376 . S
N719 C723 1.374 . S
C720 N719 1.376 . S
C720 C721 1.443 . S
C720 C747 1.389 . S
C721 C720 1.443 . S
C721 C722 1.340 . S
C721 H753 0.951 . S
C722 C721 1.340 . S
C722 C723 1.439 . S
C722 H754 0.950 . S
C723 N719 1.374 . S
C723 C722 1.439 . S
C723 C748 1.379 1_556 S
N724 Co713 1.995 . S
N724 C725 1.376 . S
N724 C728 1.383 . S
C725 N724 1.376 . S
C725 C726 1.446 . S
C725 C748 1.406 . S
C726 C725 1.446 . S
C726 C727 1.339 . S
C726 H755 0.949 . S
C727 C726 1.339 . S
C727 C728 1.439 . S
C727 H756 0.950 . S
C728 N724 1.383 . S
C728 C727 1.439 . S
C728 C746 1.392 . S
N729 Co713 2.282 . S
N729 C732 1.332 . S
N729 C734 1.332 . S
C730 C731 1.386 . S
C730 C733 1.388 . S
C731 C730 1.386 . S
C731 C732 1.382 . S
C731 H757 0.950 . S
C732 N729 1.332 . S
C732 C731 1.382 . S
C732 H743 0.952 . S
C733 C730 1.388 . S
C733 C734 1.382 . S
C733 H758 0.950 . S
C734 N729 1.332 . S
C734 C733 1.382 . S
C734 H744 0.948 . S
N735 Co713 2.282 1_556 S
N735 C739 1.332 . S
N735 C740 1.332 . S
C736 C737 1.388 . S
C736 C740 1.382 . S
C736 H759 0.950 . S
C737 C736 1.388 . S
C737 C738 1.386 . S
C738 C737 1.386 . S
C738 C739 1.382 . S
C738 H760 0.950 . S
C739 N735 1.332 . S
C739 C738 1.382 . S
C739 H741 0.952 . S
C740 N735 1.332 . S
C740 C736 1.382 . S
C740 H742 0.948 . S
H741 C739 0.952 . S
H742 C740 0.948 . S
H743 C732 0.952 . S
H744 C734 0.948 . S
C745 C711 1.384 1_556 S
C745 C715 1.402 . S
C746 C708 1.389 . S
C746 C728 1.392 . S
C747 C718 1.392 . S
C747 C720 1.389 . S
C748 C723 1.379 1_554 S
C748 C725 1.406 . S
H749 C709 0.951 . S
H750 C710 0.950 . S
H751 C716 0.949 . S
H752 C717 0.950 . S
H753 C721 0.951 . S
H754 C722 0.950 . S
H755 C726 0.949 . S
H756 C727 0.950 . S
H757 C731 0.950 . S
H758 C733 0.950 . S
H759 C736 0.950 . S
H760 C738 0.950 . S
C761 C762 1.443 . S
C761 N765 1.376 . S
C761 C799 1.389 . S
C762 C761 1.443 . S
C762 C763 1.340 . S
C762 H802 0.951 . S
C763 C762 1.340 . S
C763 C764 1.439 . S
C763 H803 0.950 . S
C764 C763 1.439 . S
C764 N765 1.374 . S
C764 C798 1.395 . S
N765 C761 1.376 . S
N765 C764 1.374 . S
N765 Co766 2.008 . S
Co766 N765 2.008 . S
Co766 N767 1.995 . S
Co766 N772 2.008 . S
Co766 N777 1.995 . S
Co766 N782 2.282 . S
Co766 N788 2.282 . S
N767 Co766 1.995 . S
N767 C768 1.376 . S
N767 C771 1.383 1_554 S
C768 N767 1.376 . S
C768 C769 1.446 1_554 S
C768 C798 1.391 . S
C769 C768 1.446 1_556 S
C769 C770 1.339 . S
C769 H804 0.949 . S
C770 C769 1.339 . S
C770 C771 1.439 . S
C770 H805 0.950 . S
C771 N767 1.383 1_556 S
C771 C770 1.439 . S
C771 C800 1.392 . S
N772 Co766 2.008 . S
N772 C773 1.376 . S
N772 C776 1.374 . S
C773 N772 1.376 . S
C773 C774 1.443 . S
C773 C800 1.389 1_554 S
C774 C773 1.443 . S
C774 C775 1.340 . S
C774 H806 0.951 1_554 S
C775 C774 1.340 . S
C775 C776 1.439 . S
C775 H807 0.950 . S
C776 N772 1.374 . S
C776 C775 1.439 . S
C776 C801 1.395 . S
N777 Co766 1.995 . S
N777 C778 1.376 . S
N777 C781 1.383 . S
C778 N777 1.376 . S
C778 C779 1.446 . S
C778 C801 1.391 . S
C779 C778 1.446 . S
C779 C780 1.339 . S
C779 H808 0.949 . S
C780 C779 1.339 . S
C780 C781 1.439 . S
C780 H809 0.950 . S
C781 N777 1.383 . S
C781 C780 1.439 . S
C781 C799 1.392 . S
N782 Co766 2.282 . S
N782 C785 1.332 . S
N782 C787 1.332 . S
C783 C784 1.386 . S
C783 C786 1.388 . S
C784 C783 1.386 . S
C784 C785 1.382 . S
C784 H810 0.950 . S
C785 N782 1.332 . S
C785 C784 1.382 . S
C785 H796 0.952 . S
C786 C783 1.388 . S
C786 C787 1.382 . S
C786 H811 0.950 . S
C787 N782 1.332 . S
C787 C786 1.382 . S
C787 H797 0.948 . S
N788 Co766 2.282 . S
N788 C792 1.332 1_554 S
N788 C793 1.332 . S
C789 C790 1.388 . S
C789 C793 1.382 1_556 S
C789 H812 0.950 . S
C790 C789 1.388 . S
C790 C791 1.386 . S
C791 C790 1.386 . S
C791 C792 1.382 . S
C791 H813 0.950 . S
C792 N788 1.332 1_556 S
C792 C791 1.382 . S
C792 H794 0.952 . S
C793 N788 1.332 . S
C793 C789 1.382 1_554 S
C793 H795 0.948 . S
H794 C792 0.952 . S
H795 C793 0.948 . S
H796 C785 0.952 . S
H797 C787 0.948 . S
C798 C764 1.395 . S
C798 C768 1.391 . S
C799 C761 1.389 . S
C799 C781 1.392 . S
C800 C771 1.392 . S
C800 C773 1.389 1_556 S
C801 C776 1.395 . S
C801 C778 1.391 . S
H802 C762 0.951 . S
H803 C763 0.950 . S
H804 C769 0.949 . S
H805 C770 0.950 . S
H806 C774 0.951 1_556 S
H807 C775 0.950 . S
H808 C779 0.949 . S
H809 C780 0.950 . S
H810 C784 0.950 . S
H811 C786 0.950 . S
H812 C789 0.950 . S
H813 C791 0.950 . S
C814 C815 1.443 . S
C814 N818 1.376 1_556 S
C814 C852 1.389 . S
C815 C814 1.443 . S
C815 C816 1.340 1_556 S
C815 H855 0.951 . S
C816 C815 1.340 1_554 S
C816 C817 1.439 . S
C816 H856 0.950 . S
C817 C816 1.439 . S
C817 N818 1.374 . S
C817 C851 1.395 . S
N818 C814 1.376 1_554 S
N818 C817 1.374 . S
N818 Co819 2.008 . S
Co819 N818 2.008 . S
Co819 N820 1.995 . S
Co819 N825 2.008 . S
Co819 N830 1.995 . S
Co819 N835 2.282 1_554 S
Co819 N841 2.282 . S
N820 Co819 1.995 . S
N820 C821 1.376 . S
N820 C824 1.383 . S
C821 N820 1.376 . S
C821 C822 1.446 . S
C821 C851 1.391 . S
C822 C821 1.446 . S
C822 C823 1.339 . S
C822 H857 0.949 . S
C823 C822 1.339 . S
C823 C824 1.439 . S
C823 H858 0.950 . S
C824 N820 1.383 . S
C824 C823 1.439 . S
C824 C853 1.392 . S
N825 Co819 2.008 . S
N825 C826 1.376 . S
N825 C829 1.374 . S
C826 N825 1.376 . S
C826 C827 1.443 . S
C826 C853 1.389 . S
C827 C826 1.443 . S
C827 C828 1.340 . S
C827 H859 0.951 . S
C828 C827 1.340 . S
C828 C829 1.439 . S
C828 H860 0.950 . S
C829 N825 1.374 . S
C829 C828 1.439 . S
C829 C854 1.395 . S
N830 Co819 1.995 . S
N830 C831 1.376 . S
N830 C834 1.383 1_554 S
C831 N830 1.376 . S
C831 C832 1.446 1_554 S
C831 C854 1.391 . S
C832 C831 1.446 1_556 S
C832 C833 1.339 . S
C832 H861 0.949 . S
C833 C832 1.339 . S
C833 C834 1.439 . S
C833 H862 0.950 . S
C834 N830 1.383 1_556 S
C834 C833 1.439 . S
C834 C852 1.392 . S
N835 Co819 2.282 1_556 S
N835 C838 1.332 . S
N835 C840 1.332 . S
C836 C837 1.386 . S
C836 C839 1.388 . S
C837 C836 1.386 . S
C837 C838 1.382 . S
C837 H863 0.950 . S
C838 N835 1.332 . S
C838 C837 1.382 . S
C838 H849 0.952 . S
C839 C836 1.388 . S
C839 C840 1.382 . S
C839 H864 0.950 . S
C840 N835 1.332 . S
C840 C839 1.382 . S
C840 H850 0.948 1_556 S
N841 Co819 2.282 . S
N841 C845 1.332 . S
N841 C846 1.332 . S
C842 C843 1.388 . S
C842 C846 1.382 . S
C842 H865 0.950 . S
C843 C842 1.388 . S
C843 C844 1.386 . S
C844 C843 1.386 . S
C844 C845 1.382 . S
C844 H866 0.950 . S
C845 N841 1.332 . S
C845 C844 1.382 . S
C845 H847 0.952 . S
C846 N841 1.332 . S
C846 C842 1.382 . S
C846 H848 0.948 . S
H847 C845 0.952 . S
H848 C846 0.948 . S
H849 C838 0.952 . S
H850 C840 0.948 1_554 S
C851 C817 1.395 . S
C851 C821 1.391 . S
C852 C814 1.389 . S
C852 C834 1.392 . S
C853 C824 1.392 . S
C853 C826 1.389 . S
C854 C829 1.395 . S
C854 C831 1.391 . S
H855 C815 0.951 . S
H856 C816 0.950 . S
H857 C822 0.949 . S
H858 C823 0.950 . S
H859 C827 0.951 . S
H860 C828 0.950 . S
H861 C832 0.949 . S
H862 C833 0.950 . S
H863 C837 0.950 . S
H864 C839 0.950 . S
H865 C842 0.950 . S
H866 C844 0.950 . S
C867 C868 1.443 . S
C867 N871 1.376 . S
C867 C905 1.389 . S
C868 C867 1.443 . S
C868 C869 1.340 . S
C868 H908 0.951 . S
C869 C868 1.340 . S
C869 C870 1.439 . S
C869 H909 0.950 . S
C870 C869 1.439 . S
C870 N871 1.374 . S
C870 C904 1.395 . S
N871 C867 1.376 . S
N871 C870 1.374 . S
N871 Co872 2.008 . S
Co872 N871 2.008 . S
Co872 N873 1.995 . S
Co872 N878 2.008 . S
Co872 N883 1.995 . S
Co872 N888 2.282 . S
Co872 N894 2.282 1_554 S
N873 Co872 1.995 . S
N873 C874 1.376 1_554 S
N873 C877 1.383 1_554 S
C874 N873 1.376 1_556 S
C874 C875 1.446 . S
C874 C904 1.391 1_556 S
C875 C874 1.446 . S
C875 C876 1.339 . S
C875 H910 0.949 . S
C876 C875 1.339 . S
C876 C877 1.439 . S
C876 H911 0.950 . S
C877 N873 1.383 1_556 S
C877 C876 1.439 . S
C877 C906 1.392 . S
N878 Co872 2.008 . S
N878 C879 1.376 1_554 S
N878 C882 1.374 . S
C879 N878 1.376 1_556 S
C879 C880 1.443 . S
C879 C906 1.389 . S
C880 C879 1.443 . S
C880 C881 1.340 1_556 S
C880 H912 0.951 . S
C881 C880 1.340 1_554 S
C881 C882 1.439 . S
C881 H913 0.950 . S
C882 N878 1.374 . S
C882 C881 1.439 . S
C882 C907 1.395 . S
N883 Co872 1.995 . S
N883 C884 1.376 . S
N883 C887 1.383 . S
C884 N883 1.376 . S
C884 C885 1.446 . S
C884 C907 1.391 . S
C885 C884 1.446 . S
C885 C886 1.339 . S
C885 H914 0.949 . S
C886 C885 1.339 . S
C886 C887 1.439 . S
C886 H915 0.950 . S
C887 N883 1.383 . S
C887 C886 1.439 . S
C887 C905 1.392 . S
N888 Co872 2.282 . S
N888 C891 1.332 . S
N888 C893 1.332 . S
C889 C890 1.386 . S
C889 C892 1.388 . S
C890 C889 1.386 . S
C890 C891 1.382 . S
C890 H916 0.950 . S
C891 N888 1.332 . S
C891 C890 1.382 . S
C891 H902 0.952 . S
C892 C889 1.388 . S
C892 C893 1.382 . S
C892 H917 0.950 . S
C893 N888 1.332 . S
C893 C892 1.382 . S
C893 H903 0.948 . S
N894 Co872 2.282 1_556 S
N894 C898 1.332 . S
N894 C899 1.332 . S
C895 C896 1.388 . S
C895 C899 1.382 . S
C895 H918 0.950 . S
C896 C895 1.388 . S
C896 C897 1.386 . S
C897 C896 1.386 . S
C897 C898 1.382 . S
C897 H919 0.950 . S
C898 N894 1.332 . S
C898 C897 1.382 . S
C898 H900 0.952 . S
C899 N894 1.332 . S
C899 C895 1.382 . S
C899 H901 0.948 1_556 S
H900 C898 0.952 . S
H901 C899 0.948 1_554 S
H902 C891 0.952 . S
H903 C893 0.948 . S
C904 C870 1.395 . S
C904 C874 1.391 1_554 S
C905 C867 1.389 . S
C905 C887 1.392 . S
C906 C877 1.392 . S
C906 C879 1.389 . S
C907 C882 1.395 . S
C907 C884 1.391 . S
H908 C868 0.951 . S
H909 C869 0.950 . S
H910 C875 0.949 . S
H911 C876 0.950 . S
H912 C880 0.951 . S
H913 C881 0.950 . S
H914 C885 0.949 . S
H915 C886 0.950 . S
H916 C890 0.950 . S
H917 C892 0.950 . S
H918 C895 0.950 . S
H919 C897 0.950 . S
C920 C921 1.387 . S
C920 H924 0.950 . S
C920 C929 1.390 . S
C921 C920 1.387 . S
C921 C923 1.387 . S
H922 C929 0.950 . S
C923 C921 1.387 . S
C923 C925 1.390 . S
C923 H927 0.950 . S
H924 C920 0.950 . S
C925 C923 1.390 . S
C925 C926 1.387 . S
C925 H928 0.950 . S
C926 C925 1.387 . S
C926 C929 1.387 . S
H927 C923 0.950 . S
H928 C925 0.950 . S
C929 C920 1.390 . S
C929 H922 0.950 . S
C929 C926 1.387 . S
C930 C931 1.387 . S
C930 H934 0.950 . S
C930 C939 1.390 . S
C931 C930 1.387 . S
C931 C933 1.387 . S
H932 C939 0.950 . S
C933 C931 1.387 . S
C933 C935 1.390 . S
C933 H937 0.950 . S
H934 C930 0.950 . S
C935 C933 1.390 . S
C935 C936 1.387 . S
C935 H938 0.950 . S
C936 C935 1.387 . S
C936 C939 1.387 . S
H937 C933 0.950 . S
H938 C935 0.950 . S
C939 C930 1.390 . S
C939 H932 0.950 . S
C939 C936 1.387 . S
C940 C941 1.387 . S
C940 H944 0.950 . S
C940 C949 1.390 . S
C941 C940 1.387 . S
C941 C943 1.387 . S
H942 C949 0.950 . S
C943 C941 1.387 . S
C943 C945 1.390 . S
C943 H947 0.950 . S
H944 C940 0.950 . S
C945 C943 1.390 . S
C945 C946 1.387 . S
C945 H948 0.950 . S
C946 C945 1.387 . S
C946 C949 1.387 . S
H947 C943 0.950 . S
H948 C945 0.950 . S
C949 C940 1.390 . S
C949 H942 0.950 . S
C949 C946 1.387 . S
C950 C951 1.387 . S
C950 H954 0.950 . S
C950 C959 1.390 . S
C951 C950 1.387 . S
C951 C953 1.387 . S
H952 C959 0.950 . S
C953 C951 1.387 . S
C953 C955 1.390 . S
C953 H957 0.950 . S
H954 C950 0.950 . S
C955 C953 1.390 . S
C955 C956 1.387 . S
C955 H958 0.950 . S
C956 C955 1.387 . S
C956 C959 1.387 . S
H957 C953 0.950 . S
H958 C955 0.950 . S
C959 C950 1.390 . S
C959 H952 0.950 . S
C959 C956 1.387 . S
C960 C961 1.387 . S
C960 H964 0.950 . S
C960 C969 1.390 . S
C961 C960 1.387 . S
C961 C963 1.387 . S
H962 C969 0.950 . S
C963 C961 1.387 . S
C963 C965 1.390 . S
C963 H967 0.950 . S
H964 C960 0.950 . S
C965 C963 1.390 . S
C965 C966 1.387 . S
C965 H968 0.950 . S
C966 C965 1.387 . S
C966 C969 1.387 . S
H967 C963 0.950 . S
H968 C965 0.950 . S
C969 C960 1.390 . S
C969 H962 0.950 . S
C969 C966 1.387 . S
C970 C971 1.387 . S
C970 H974 0.950 . S
C970 C979 1.390 . S
C971 C970 1.387 . S
C971 C973 1.387 . S
H972 C979 0.950 . S
C973 C971 1.387 . S
C973 C975 1.390 . S
C973 H977 0.950 . S
H974 C970 0.950 . S
C975 C973 1.390 . S
C975 C976 1.387 . S
C975 H978 0.950 . S
C976 C975 1.387 . S
C976 C979 1.387 . S
H977 C973 0.950 . S
H978 C975 0.950 . S
C979 C970 1.390 . S
C979 H972 0.950 . S
C979 C976 1.387 . S
C980 C981 1.387 . S
C980 H984 0.950 . S
C980 C989 1.390 . S
C981 C980 1.387 . S
C981 C983 1.387 . S
H982 C989 0.950 . S
C983 C981 1.387 . S
C983 C985 1.390 . S
C983 H987 0.950 . S
H984 C980 0.950 . S
C985 C983 1.390 . S
C985 C986 1.387 . S
C985 H988 0.950 . S
C986 C985 1.387 . S
C986 C989 1.387 . S
H987 C983 0.950 . S
H988 C985 0.950 . S
C989 C980 1.390 . S
C989 H982 0.950 . S
C989 C986 1.387 . S
C990 C991 1.387 . S
C990 H994 0.950 . S
C990 C999 1.390 . S
C991 C990 1.387 . S
C991 C993 1.387 . S
H992 C999 0.950 . S
C993 C991 1.387 . S
C993 C995 1.390 . S
C993 H997 0.950 . S
H994 C990 0.950 . S
C995 C993 1.390 . S
C995 C996 1.387 . S
C995 H998 0.950 . S
C996 C995 1.387 . S
C996 C999 1.387 . S
H997 C993 0.950 . S
H998 C995 0.950 . S
C999 C990 1.390 . S
C999 H992 0.950 . S
C999 C996 1.387 . S
C1000 C1001 1.387 . S
C1000 H1004 0.950 . S
C1000 C1009 1.390 . S
C1001 C1000 1.387 . S
C1001 C1003 1.387 . S
H1002 C1009 0.950 . S
C1003 C1001 1.387 . S
C1003 C1005 1.390 . S
C1003 H1007 0.950 . S
H1004 C1000 0.950 . S
C1005 C1003 1.390 . S
C1005 C1006 1.387 . S
C1005 H1008 0.950 . S
C1006 C1005 1.387 . S
C1006 C1009 1.387 . S
H1007 C1003 0.950 . S
H1008 C1005 0.950 . S
C1009 C1000 1.390 . S
C1009 H1002 0.950 . S
C1009 C1006 1.387 . S
C1010 C1011 1.387 . S
C1010 H1014 0.950 . S
C1010 C1019 1.390 . S
C1011 C1010 1.387 . S
C1011 C1013 1.387 . S
H1012 C1019 0.950 . S
C1013 C1011 1.387 . S
C1013 C1015 1.390 . S
C1013 H1017 0.950 . S
H1014 C1010 0.950 . S
C1015 C1013 1.390 . S
C1015 C1016 1.387 . S
C1015 H1018 0.950 . S
C1016 C1015 1.387 . S
C1016 C1019 1.387 . S
H1017 C1013 0.950 . S
H1018 C1015 0.950 . S
C1019 C1010 1.390 . S
C1019 H1012 0.950 . S
C1019 C1016 1.387 . S
C1020 C1021 1.387 . S
C1020 H1024 0.950 . S
C1020 C1029 1.390 . S
C1021 C1020 1.387 . S
C1021 C1023 1.387 . S
H1022 C1029 0.950 . S
C1023 C1021 1.387 . S
C1023 C1025 1.390 . S
C1023 H1027 0.950 . S
H1024 C1020 0.950 . S
C1025 C1023 1.390 . S
C1025 C1026 1.387 . S
C1025 H1028 0.950 . S
C1026 C1025 1.387 . S
C1026 C1029 1.387 . S
H1027 C1023 0.950 . S
H1028 C1025 0.950 . S
C1029 C1020 1.390 . S
C1029 H1022 0.950 . S
C1029 C1026 1.387 . S
C1030 C1031 1.387 . S
C1030 H1034 0.950 . S
C1030 C1039 1.390 . S
C1031 C1030 1.387 . S
C1031 C1033 1.387 . S
H1032 C1039 0.950 . S
C1033 C1031 1.387 . S
C1033 C1035 1.390 . S
C1033 H1037 0.950 . S
H1034 C1030 0.950 . S
C1035 C1033 1.390 . S
C1035 C1036 1.387 . S
C1035 H1038 0.950 . S
C1036 C1035 1.387 . S
C1036 C1039 1.387 . S
H1037 C1033 0.950 . S
H1038 C1035 0.950 . S
C1039 C1030 1.390 . S
C1039 H1032 0.950 . S
C1039 C1036 1.387 . S
C1040 C1041 1.387 . S
C1040 H1044 0.950 . S
C1040 C1049 1.390 . S
C1041 C1040 1.387 . S
C1041 C1043 1.387 . S
H1042 C1049 0.950 . S
C1043 C1041 1.387 . S
C1043 C1045 1.390 . S
C1043 H1047 0.950 . S
H1044 C1040 0.950 . S
C1045 C1043 1.390 . S
C1045 C1046 1.387 . S
C1045 H1048 0.950 . S
C1046 C1045 1.387 . S
C1046 C1049 1.387 . S
H1047 C1043 0.950 . S
H1048 C1045 0.950 . S
C1049 C1040 1.390 . S
C1049 H1042 0.950 . S
C1049 C1046 1.387 . S
C1050 C1051 1.387 . S
C1050 H1054 0.950 . S
C1050 C1059 1.390 . S
C1051 C1050 1.387 . S
C1051 C1053 1.387 . S
H1052 C1059 0.950 . S
C1053 C1051 1.387 . S
C1053 C1055 1.390 . S
C1053 H1057 0.950 . S
H1054 C1050 0.950 . S
C1055 C1053 1.390 . S
C1055 C1056 1.387 . S
C1055 H1058 0.950 . S
C1056 C1055 1.387 . S
C1056 C1059 1.387 . S
H1057 C1053 0.950 . S
H1058 C1055 0.950 . S
C1059 C1050 1.390 . S
C1059 H1052 0.950 . S
C1059 C1056 1.387 . S
C1060 C1061 1.387 . S
C1060 H1064 0.950 . S
C1060 C1069 1.390 . S
C1061 C1060 1.387 . S
C1061 C1063 1.387 . S
H1062 C1069 0.950 . S
C1063 C1061 1.387 . S
C1063 C1065 1.390 . S
C1063 H1067 0.950 . S
H1064 C1060 0.950 . S
C1065 C1063 1.390 . S
C1065 C1066 1.387 . S
C1065 H1068 0.950 . S
C1066 C1065 1.387 . S
C1066 C1069 1.387 . S
H1067 C1063 0.950 . S
H1068 C1065 0.950 . S
C1069 C1060 1.390 . S
C1069 H1062 0.950 . S
C1069 C1066 1.387 . S
C1070 C1071 1.387 . S
C1070 H1074 0.950 . S
C1070 C1079 1.390 . S
C1071 C1070 1.387 . S
C1071 C1073 1.387 . S
H1072 C1079 0.950 . S
C1073 C1071 1.387 . S
C1073 C1075 1.390 . S
C1073 H1077 0.950 . S
H1074 C1070 0.950 . S
C1075 C1073 1.390 . S
C1075 C1076 1.387 . S
C1075 H1078 0.950 . S
C1076 C1075 1.387 . S
C1076 C1079 1.387 . S
H1077 C1073 0.950 . S
H1078 C1075 0.950 . S
C1079 C1070 1.390 . S
C1079 H1072 0.950 . S
C1079 C1076 1.387 . S
C1080 C1081 1.387 . S
C1080 H1084 0.950 . S
C1080 C1089 1.390 . S
C1081 C1080 1.387 . S
C1081 C1083 1.387 . S
H1082 C1089 0.950 . S
C1083 C1081 1.387 . S
C1083 C1085 1.390 . S
C1083 H1087 0.950 . S
H1084 C1080 0.950 . S
C1085 C1083 1.390 . S
C1085 C1086 1.387 . S
C1085 H1088 0.950 . S
C1086 C1085 1.387 . S
C1086 C1089 1.387 . S
H1087 C1083 0.950 . S
H1088 C1085 0.950 . S
C1089 C1080 1.390 . S
C1089 H1082 0.950 . S
C1089 C1086 1.387 . S
C1090 C1091 1.387 . S
C1090 H1094 0.950 . S
C1090 C1099 1.390 . S
C1091 C1090 1.387 . S
C1091 C1093 1.387 . S
H1092 C1099 0.950 . S
C1093 C1091 1.387 . S
C1093 C1095 1.390 . S
C1093 H1097 0.950 . S
H1094 C1090 0.950 . S
C1095 C1093 1.390 . S
C1095 C1096 1.387 . S
C1095 H1098 0.950 . S
C1096 C1095 1.387 . S
C1096 C1099 1.387 . S
H1097 C1093 0.950 . S
H1098 C1095 0.950 . S
C1099 C1090 1.390 . S
C1099 H1092 0.950 . S
C1099 C1096 1.387 . S
C1100 C1101 1.387 . S
C1100 H1104 0.950 . S
C1100 C1109 1.390 . S
C1101 C1100 1.387 . S
C1101 C1103 1.387 . S
H1102 C1109 0.950 . S
C1103 C1101 1.387 . S
C1103 C1105 1.390 . S
C1103 H1107 0.950 . S
H1104 C1100 0.950 . S
C1105 C1103 1.390 . S
C1105 C1106 1.387 . S
C1105 H1108 0.950 . S
C1106 C1105 1.387 . S
C1106 C1109 1.387 . S
H1107 C1103 0.950 . S
H1108 C1105 0.950 . S
C1109 C1100 1.390 . S
C1109 H1102 0.950 . S
C1109 C1106 1.387 . S
C1110 C1111 1.387 . S
C1110 H1114 0.950 . S
C1110 C1119 1.390 . S
C1111 C1110 1.387 . S
C1111 C1113 1.387 . S
H1112 C1119 0.950 . S
C1113 C1111 1.387 . S
C1113 C1115 1.390 . S
C1113 H1117 0.950 . S
H1114 C1110 0.950 . S
C1115 C1113 1.390 . S
C1115 C1116 1.387 . S
C1115 H1118 0.950 . S
C1116 C1115 1.387 . S
C1116 C1119 1.387 . S
H1117 C1113 0.950 . S
H1118 C1115 0.950 . S
C1119 C1110 1.390 . S
C1119 H1112 0.950 . S
C1119 C1116 1.387 . S
C1120 C1121 1.387 . S
C1120 H1124 0.950 . S
C1120 C1129 1.390 . S
C1121 C1120 1.387 . S
C1121 C1123 1.387 . S
H1122 C1129 0.950 . S
C1123 C1121 1.387 . S
C1123 C1125 1.390 . S
C1123 H1127 0.950 . S
H1124 C1120 0.950 . S
C1125 C1123 1.390 . S
C1125 C1126 1.387 . S
C1125 H1128 0.950 . S
C1126 C1125 1.387 . S
C1126 C1129 1.387 . S
H1127 C1123 0.950 . S
H1128 C1125 0.950 . S
C1129 C1120 1.390 . S
C1129 H1122 0.950 . S
C1129 C1126 1.387 . S
C1130 C1131 1.387 . S
C1130 H1134 0.950 . S
C1130 C1139 1.390 . S
C1131 C1130 1.387 . S
C1131 C1133 1.387 . S
H1132 C1139 0.950 . S
C1133 C1131 1.387 . S
C1133 C1135 1.390 . S
C1133 H1137 0.950 . S
H1134 C1130 0.950 . S
C1135 C1133 1.390 . S
C1135 C1136 1.387 . S
C1135 H1138 0.950 . S
C1136 C1135 1.387 . S
C1136 C1139 1.387 . S
H1137 C1133 0.950 . S
H1138 C1135 0.950 . S
C1139 C1130 1.390 . S
C1139 H1132 0.950 . S
C1139 C1136 1.387 . S
C1140 C1141 1.387 . S
C1140 H1144 0.950 . S
C1140 C1149 1.390 . S
C1141 C1140 1.387 . S
C1141 C1143 1.387 . S
H1142 C1149 0.950 . S
C1143 C1141 1.387 . S
C1143 C1145 1.390 . S
C1143 H1147 0.950 . S
H1144 C1140 0.950 . S
C1145 C1143 1.390 . S
C1145 C1146 1.387 . S
C1145 H1148 0.950 . S
C1146 C1145 1.387 . S
C1146 C1149 1.387 . S
H1147 C1143 0.950 . S
H1148 C1145 0.950 . S
C1149 C1140 1.390 . S
C1149 H1142 0.950 . S
C1149 C1146 1.387 . S
C1150 C1151 1.387 . S
C1150 H1154 0.950 . S
C1150 C1159 1.390 . S
C1151 C1150 1.387 . S
C1151 C1153 1.387 . S
H1152 C1159 0.950 . S
C1153 C1151 1.387 . S
C1153 C1155 1.390 . S
C1153 H1157 0.950 . S
H1154 C1150 0.950 . S
C1155 C1153 1.390 . S
C1155 C1156 1.387 . S
C1155 H1158 0.950 . S
C1156 C1155 1.387 . S
C1156 C1159 1.387 . S
H1157 C1153 0.950 . S
H1158 C1155 0.950 . S
C1159 C1150 1.390 . S
C1159 H1152 0.950 . S
C1159 C1156 1.387 . S
C1160 C1161 1.387 . S
C1160 H1164 0.950 . S
C1160 C1169 1.390 . S
C1161 C1160 1.387 . S
C1161 C1163 1.387 . S
H1162 C1169 0.950 . S
C1163 C1161 1.387 . S
C1163 C1165 1.390 . S
C1163 H1167 0.950 . S
H1164 C1160 0.950 . S
C1165 C1163 1.390 . S
C1165 C1166 1.387 . S
C1165 H1168 0.950 . S
C1166 C1165 1.387 . S
C1166 C1169 1.387 . S
H1167 C1163 0.950 . S
H1168 C1165 0.950 . S
C1169 C1160 1.390 . S
C1169 H1162 0.950 . S
C1169 C1166 1.387 . S
C1170 C1171 1.387 . S
C1170 H1174 0.950 . S
C1170 C1179 1.390 . S
C1171 C1170 1.387 . S
C1171 C1173 1.387 . S
H1172 C1179 0.950 . S
C1173 C1171 1.387 . S
C1173 C1175 1.390 . S
C1173 H1177 0.950 . S
H1174 C1170 0.950 . S
C1175 C1173 1.390 . S
C1175 C1176 1.387 . S
C1175 H1178 0.950 . S
C1176 C1175 1.387 . S
C1176 C1179 1.387 . S
H1177 C1173 0.950 . S
H1178 C1175 0.950 . S
C1179 C1170 1.390 . S
C1179 H1172 0.950 . S
C1179 C1176 1.387 . S
C1180 C1181 1.387 . S
C1180 H1184 0.950 . S
C1180 C1189 1.390 . S
C1181 C1180 1.387 . S
C1181 C1183 1.387 . S
H1182 C1189 0.950 . S
C1183 C1181 1.387 . S
C1183 C1185 1.390 . S
C1183 H1187 0.950 . S
H1184 C1180 0.950 . S
C1185 C1183 1.390 . S
C1185 C1186 1.387 . S
C1185 H1188 0.950 . S
C1186 C1185 1.387 . S
C1186 C1189 1.387 . S
H1187 C1183 0.950 . S
H1188 C1185 0.950 . S
C1189 C1180 1.390 . S
C1189 H1182 0.950 . S
C1189 C1186 1.387 . S
C1190 C1191 1.387 . S
C1190 H1194 0.950 . S
C1190 C1199 1.390 . S
C1191 C1190 1.387 . S
C1191 C1193 1.387 . S
H1192 C1199 0.950 . S
C1193 C1191 1.387 . S
C1193 C1195 1.390 . S
C1193 H1197 0.950 . S
H1194 C1190 0.950 . S
C1195 C1193 1.390 . S
C1195 C1196 1.387 . S
C1195 H1198 0.950 . S
C1196 C1195 1.387 . S
C1196 C1199 1.387 . S
H1197 C1193 0.950 . S
H1198 C1195 0.950 . S
C1199 C1190 1.390 . S
C1199 H1192 0.950 . S
C1199 C1196 1.387 . S
C1200 C1201 1.387 . S
C1200 H1204 0.950 . S
C1200 C1209 1.390 . S
C1201 C1200 1.387 . S
C1201 C1203 1.387 . S
H1202 C1209 0.950 . S
C1203 C1201 1.387 . S
C1203 C1205 1.390 . S
C1203 H1207 0.950 . S
H1204 C1200 0.950 . S
C1205 C1203 1.390 . S
C1205 C1206 1.387 . S
C1205 H1208 0.950 . S
C1206 C1205 1.387 . S
C1206 C1209 1.387 . S
H1207 C1203 0.950 . S
H1208 C1205 0.950 . S
C1209 C1200 1.390 . S
C1209 H1202 0.950 . S
C1209 C1206 1.387 . S
C1210 C1211 1.387 . S
C1210 H1214 0.950 . S
C1210 C1219 1.390 . S
C1211 C1210 1.387 . S
C1211 C1213 1.387 . S
H1212 C1219 0.950 . S
C1213 C1211 1.387 . S
C1213 C1215 1.390 . S
C1213 H1217 0.950 . S
H1214 C1210 0.950 . S
C1215 C1213 1.390 . S
C1215 C1216 1.387 . S
C1215 H1218 0.950 . S
C1216 C1215 1.387 . S
C1216 C1219 1.387 . S
H1217 C1213 0.950 . S
H1218 C1215 0.950 . S
C1219 C1210 1.390 . S
C1219 H1212 0.950 . S
C1219 C1216 1.387 . S
C1220 C1221 1.387 . S
C1220 H1224 0.950 . S
C1220 C1229 1.390 . S
C1221 C1220 1.387 . S
C1221 C1223 1.387 . S
H1222 C1229 0.950 . S
C1223 C1221 1.387 . S
C1223 C1225 1.390 . S
C1223 H1227 0.950 . S
H1224 C1220 0.950 . S
C1225 C1223 1.390 . S
C1225 C1226 1.387 . S
C1225 H1228 0.950 . S
C1226 C1225 1.387 . S
C1226 C1229 1.387 . S
H1227 C1223 0.950 . S
H1228 C1225 0.950 . S
C1229 C1220 1.390 . S
C1229 H1222 0.950 . S
C1229 C1226 1.387 . S
C1230 C1231 1.387 . S
C1230 H1234 0.950 . S
C1230 C1239 1.390 . S
C1231 C1230 1.387 . S
C1231 C1233 1.387 . S
H1232 C1239 0.950 . S
C1233 C1231 1.387 . S
C1233 C1235 1.390 . S
C1233 H1237 0.950 . S
H1234 C1230 0.950 . S
C1235 C1233 1.390 . S
C1235 C1236 1.387 . S
C1235 H1238 0.950 . S
C1236 C1235 1.387 . S
C1236 C1239 1.387 . S
H1237 C1233 0.950 . S
H1238 C1235 0.950 . S
C1239 C1230 1.390 . S
C1239 H1232 0.950 . S
C1239 C1236 1.387 . S
C926 C525 1.583 . S
C921 C47 1.461 . S
C936 C578 1.335 . S
C931 C115 1.302 . S
C946 C641 1.599 . S
C941 C153 1.451 . S
C956 C684 1.453 . S
C951 C233 1.316 . S
C961 C283 1.517 . S
C966 C640 1.553 . S
C976 C677 1.418 . S
C971 C357 1.320 . S
C986 C518 1.630 . S
C981 C401 1.481 . S
C996 C571 1.402 . S
C991 C463 1.241 . S
C1006 C624 1.449 . S
C1001 C469 1.386 . S
C1016 C693 1.816 . S
C1011 C277 1.684 . S
C1026 C534 1.587 . S
C1021 C363 1.575 . S
C1036 C587 1.631 . S
C1031 C407 1.605 . S
C1046 C535 1.572 . S
C1041 C109 1.446 . S
C1056 C588 1.694 . S
C1051 C159 1.648 . S
C1066 C631 1.426 . S
C1061 C239 1.378 . S
C1076 C694 1.736 . S
C1071 C53 1.716 . S
C1086 C737 1.566 . S
C1081 C481 1.438 . S
C1091 C301 1.638 . S
C1096 C790 1.687 . S
C1101 C339 1.472 . S
C1106 C852 1.615 . S
C1111 C419 1.691 . S
C1116 C906 1.839 . S
C1121 C97 1.479 . S
C1126 C853 1.516 . S
C1131 C171 1.737 . S
C1136 C905 1.854 . S
C1141 C215 1.493 . S
C1146 C730 1.635 . S
C1156 C783 1.758 . S
C1151 C29 1.556 . S
C1166 C843 1.422 . S
C1161 C35 1.361 . S
C1171 C91 1.251 . S
C1176 C889 1.364 . S
C1181 C177 1.625 . S
C1186 C746 1.631 . S
C1191 C221 1.288 . S
C1196 C799 1.301 . S
C1206 C747 1.558 . S
C1201 C295 1.424 . S
C1216 C800 1.321 . S
C1211 C345 1.291 . S
C1221 C425 1.395 . S
C1226 C836 1.442 . S
C1236 C896 1.311 . S
C1231 C487 1.294 . S
