# Generated by pormake.
# Topology ptr, (4,4)-cn, num edge types: 1
# Building blocks:
#     Node 0, Type 0, BuildingBlock: UXUYUI_clean_sbu_0, # of connection points: 4
#     Node 1, Type 0, BuildingBlock: UXUYUI_clean_sbu_0, # of connection points: 4
#     Node 2, Type 0, BuildingBlock: UXUYUI_clean_sbu_0, # of connection points: 4
#     Node 3, Type 0, BuildingBlock: UXUYUI_clean_sbu_0, # of connection points: 4
#     Node 4, Type 0, BuildingBlock: UXUYUI_clean_sbu_0, # of connection points: 4
#     Node 5, Type 0, BuildingBlock: UXUYUI_clean_sbu_0, # of connection points: 4
#     Node 6, Type 0, BuildingBlock: UXUYUI_clean_sbu_0, # of connection points: 4
#     Node 7, Type 0, BuildingBlock: UXUYUI_clean_sbu_0, # of connection points: 4
#     Node 8, Type 0, BuildingBlock: UXUYUI_clean_sbu_0, # of connection points: 4
#     Node 9, Type 0, BuildingBlock: UXUYUI_clean_sbu_0, # of connection points: 4
#     Node 10, Type 0, BuildingBlock: UXUYUI_clean_sbu_0, # of connection points: 4
#     Node 11, Type 0, BuildingBlock: UXUYUI_clean_sbu_0, # of connection points: 4
#     Node 12, Type 0, BuildingBlock: UXUYUI_clean_sbu_0, # of connection points: 4
#     Node 13, Type 0, BuildingBlock: UXUYUI_clean_sbu_0, # of connection points: 4
#     Node 14, Type 0, BuildingBlock: UXUYUI_clean_sbu_0, # of connection points: 4
#     Node 15, Type 0, BuildingBlock: UXUYUI_clean_sbu_0, # of connection points: 4
#     Node 16, Type 0, BuildingBlock: UXUYUI_clean_sbu_0, # of connection points: 4
#     Node 17, Type 0, BuildingBlock: UXUYUI_clean_sbu_0, # of connection points: 4
#     Node 18, Type 1, BuildingBlock: GIZVER_clean_linker_0, # of connection points: 4
#     Node 19, Type 1, BuildingBlock: GIZVER_clean_linker_0, # of connection points: 4
#     Node 20, Type 1, BuildingBlock: GIZVER_clean_linker_0, # of connection points: 4
#     Node 21, Type 1, BuildingBlock: GIZVER_clean_linker_0, # of connection points: 4
#     Node 22, Type 1, BuildingBlock: GIZVER_clean_linker_0, # of connection points: 4
#     Node 23, Type 1, BuildingBlock: GIZVER_clean_linker_0, # of connection points: 4
#     Node 24, Type 1, BuildingBlock: GIZVER_clean_linker_0, # of connection points: 4
#     Node 25, Type 1, BuildingBlock: GIZVER_clean_linker_0, # of connection points: 4
#     Node 26, Type 1, BuildingBlock: GIZVER_clean_linker_0, # of connection points: 4
#     Node 27, Type 1, BuildingBlock: GIZVER_clean_linker_0, # of connection points: 4
#     Node 28, Type 1, BuildingBlock: GIZVER_clean_linker_0, # of connection points: 4
#     Node 29, Type 1, BuildingBlock: GIZVER_clean_linker_0, # of connection points: 4
#     Node 30, Type 1, BuildingBlock: GIZVER_clean_linker_0, # of connection points: 4
#     Node 31, Type 1, BuildingBlock: GIZVER_clean_linker_0, # of connection points: 4
#     Node 32, Type 1, BuildingBlock: GIZVER_clean_linker_0, # of connection points: 4
#     Node 33, Type 1, BuildingBlock: GIZVER_clean_linker_0, # of connection points: 4
#     Node 34, Type 1, BuildingBlock: GIZVER_clean_linker_0, # of connection points: 4
#     Node 35, Type 1, BuildingBlock: GIZVER_clean_linker_0, # of connection points: 4
#     Edge 36, Type (0, 1), BuildingBlock: XUDNAN_clean_linker_2, # of connection points: 2
#     Edge 37, Type (0, 1), BuildingBlock: XUDNAN_clean_linker_2, # of connection points: 2
#     Edge 38, Type (0, 1), BuildingBlock: XUDNAN_clean_linker_2, # of connection points: 2
#     Edge 39, Type (0, 1), BuildingBlock: XUDNAN_clean_linker_2, # of connection points: 2
#     Edge 40, Type (0, 1), BuildingBlock: XUDNAN_clean_linker_2, # of connection points: 2
#     Edge 41, Type (0, 1), BuildingBlock: XUDNAN_clean_linker_2, # of connection points: 2
#     Edge 42, Type (0, 1), BuildingBlock: XUDNAN_clean_linker_2, # of connection points: 2
#     Edge 43, Type (0, 1), BuildingBlock: XUDNAN_clean_linker_2, # of connection points: 2
#     Edge 44, Type (0, 1), BuildingBlock: XUDNAN_clean_linker_2, # of connection points: 2
#     Edge 45, Type (0, 1), BuildingBlock: XUDNAN_clean_linker_2, # of connection points: 2
#     Edge 46, Type (0, 1), BuildingBlock: XUDNAN_clean_linker_2, # of connection points: 2
#     Edge 47, Type (0, 1), BuildingBlock: XUDNAN_clean_linker_2, # of connection points: 2
#     Edge 48, Type (0, 1), BuildingBlock: XUDNAN_clean_linker_2, # of connection points: 2
#     Edge 49, Type (0, 1), BuildingBlock: XUDNAN_clean_linker_2, # of connection points: 2
#     Edge 50, Type (0, 1), BuildingBlock: XUDNAN_clean_linker_2, # of connection points: 2
#     Edge 51, Type (0, 1), BuildingBlock: XUDNAN_clean_linker_2, # of connection points: 2
#     Edge 52, Type (0, 1), BuildingBlock: XUDNAN_clean_linker_2, # of connection points: 2
#     Edge 53, Type (0, 1), BuildingBlock: XUDNAN_clean_linker_2, # of connection points: 2
#     Edge 54, Type (0, 1), BuildingBlock: XUDNAN_clean_linker_2, # of connection points: 2
#     Edge 55, Type (0, 1), BuildingBlock: XUDNAN_clean_linker_2, # of connection points: 2
#     Edge 56, Type (0, 1), BuildingBlock: XUDNAN_clean_linker_2, # of connection points: 2
#     Edge 57, Type (0, 1), BuildingBlock: XUDNAN_clean_linker_2, # of connection points: 2
#     Edge 58, Type (0, 1), BuildingBlock: XUDNAN_clean_linker_2, # of connection points: 2
#     Edge 59, Type (0, 1), BuildingBlock: XUDNAN_clean_linker_2, # of connection points: 2
#     Edge 60, Type (0, 1), BuildingBlock: XUDNAN_clean_linker_2, # of connection points: 2
#     Edge 61, Type (0, 1), BuildingBlock: XUDNAN_clean_linker_2, # of connection points: 2
#     Edge 62, Type (0, 1), BuildingBlock: XUDNAN_clean_linker_2, # of connection points: 2
#     Edge 63, Type (0, 1), BuildingBlock: XUDNAN_clean_linker_2, # of connection points: 2
#     Edge 64, Type (0, 1), BuildingBlock: XUDNAN_clean_linker_2, # of connection points: 2
#     Edge 65, Type (0, 1), BuildingBlock: XUDNAN_clean_linker_2, # of connection points: 2
#     Edge 66, Type (0, 1), BuildingBlock: XUDNAN_clean_linker_2, # of connection points: 2
#     Edge 67, Type (0, 1), BuildingBlock: XUDNAN_clean_linker_2, # of connection points: 2
#     Edge 68, Type (0, 1), BuildingBlock: XUDNAN_clean_linker_2, # of connection points: 2
#     Edge 69, Type (0, 1), BuildingBlock: XUDNAN_clean_linker_2, # of connection points: 2
#     Edge 70, Type (0, 1), BuildingBlock: XUDNAN_clean_linker_2, # of connection points: 2
#     Edge 71, Type (0, 1), BuildingBlock: XUDNAN_clean_linker_2, # of connection points: 2
#     Edge 72, Type (0, 1), BuildingBlock: XUDNAN_clean_linker_2, # of connection points: 2
#     Edge 73, Type (0, 1), BuildingBlock: XUDNAN_clean_linker_2, # of connection points: 2
#     Edge 74, Type (0, 1), BuildingBlock: XUDNAN_clean_linker_2, # of connection points: 2
#     Edge 75, Type (0, 1), BuildingBlock: XUDNAN_clean_linker_2, # of connection points: 2
#     Edge 76, Type (0, 1), BuildingBlock: XUDNAN_clean_linker_2, # of connection points: 2
#     Edge 77, Type (0, 1), BuildingBlock: XUDNAN_clean_linker_2, # of connection points: 2
#     Edge 78, Type (0, 1), BuildingBlock: XUDNAN_clean_linker_2, # of connection points: 2
#     Edge 79, Type (0, 1), BuildingBlock: XUDNAN_clean_linker_2, # of connection points: 2
#     Edge 80, Type (0, 1), BuildingBlock: XUDNAN_clean_linker_2, # of connection points: 2
#     Edge 81, Type (0, 1), BuildingBlock: XUDNAN_clean_linker_2, # of connection points: 2
#     Edge 82, Type (0, 1), BuildingBlock: XUDNAN_clean_linker_2, # of connection points: 2
#     Edge 83, Type (0, 1), BuildingBlock: XUDNAN_clean_linker_2, # of connection points: 2
#     Edge 84, Type (0, 1), BuildingBlock: XUDNAN_clean_linker_2, # of connection points: 2
#     Edge 85, Type (0, 1), BuildingBlock: XUDNAN_clean_linker_2, # of connection points: 2
#     Edge 86, Type (0, 1), BuildingBlock: XUDNAN_clean_linker_2, # of connection points: 2
#     Edge 87, Type (0, 1), BuildingBlock: XUDNAN_clean_linker_2, # of connection points: 2
#     Edge 88, Type (0, 1), BuildingBlock: XUDNAN_clean_linker_2, # of connection points: 2
#     Edge 89, Type (0, 1), BuildingBlock: XUDNAN_clean_linker_2, # of connection points: 2
#     Edge 90, Type (0, 1), BuildingBlock: XUDNAN_clean_linker_2, # of connection points: 2
#     Edge 91, Type (0, 1), BuildingBlock: XUDNAN_clean_linker_2, # of connection points: 2
#     Edge 92, Type (0, 1), BuildingBlock: XUDNAN_clean_linker_2, # of connection points: 2
#     Edge 93, Type (0, 1), BuildingBlock: XUDNAN_clean_linker_2, # of connection points: 2
#     Edge 94, Type (0, 1), BuildingBlock: XUDNAN_clean_linker_2, # of connection points: 2
#     Edge 95, Type (0, 1), BuildingBlock: XUDNAN_clean_linker_2, # of connection points: 2
#     Edge 96, Type (0, 1), BuildingBlock: XUDNAN_clean_linker_2, # of connection points: 2
#     Edge 97, Type (0, 1), BuildingBlock: XUDNAN_clean_linker_2, # of connection points: 2
#     Edge 98, Type (0, 1), BuildingBlock: XUDNAN_clean_linker_2, # of connection points: 2
#     Edge 99, Type (0, 1), BuildingBlock: XUDNAN_clean_linker_2, # of connection points: 2
#     Edge 100, Type (0, 1), BuildingBlock: XUDNAN_clean_linker_2, # of connection points: 2
#     Edge 101, Type (0, 1), BuildingBlock: XUDNAN_clean_linker_2, # of connection points: 2
#     Edge 102, Type (0, 1), BuildingBlock: XUDNAN_clean_linker_2, # of connection points: 2
#     Edge 103, Type (0, 1), BuildingBlock: XUDNAN_clean_linker_2, # of connection points: 2
#     Edge 104, Type (0, 1), BuildingBlock: XUDNAN_clean_linker_2, # of connection points: 2
#     Edge 105, Type (0, 1), BuildingBlock: XUDNAN_clean_linker_2, # of connection points: 2
#     Edge 106, Type (0, 1), BuildingBlock: XUDNAN_clean_linker_2, # of connection points: 2
#     Edge 107, Type (0, 1), BuildingBlock: XUDNAN_clean_linker_2, # of connection points: 2
# Relax obj value: 0.092
# Max RMSD: 0.230
# Mean RMSD: 0.120
data_MOF--net-ptr--node1-UXUYUI_clean_sbu_0--node2-GIZVER_clean_linker_0--edge1-XUDNAN_clean_linker_2
_symmetry_space_group_name_H-M    P1
_symmetry_Int_Tables_number       1
_symmetry_cell_setting            triclinic
loop_
_symmetry_equiv_pos_as_xyz
'x, y, z'
_cell_length_a     99.125264
_cell_length_b     99.153662
_cell_length_c     56.326423
_cell_angle_alpha  90.290253
_cell_angle_beta   90.216825
_cell_angle_gamma 120.0445
loop_
_atom_site_label
_atom_site_type_symbol
_atom_site_fract_x
_atom_site_fract_y
_atom_site_fract_z
_atom_type_partial_charge
Li0 Li 0.98741 0.34585 0.00454 0.0
Li1 Li 0.0153 0.35864 0.00836 0.0
Li2 Li 1.00051 0.36865 0.0301 0.0
Li3 Li 0.00457 0.37283 0.98671 0.0
C4 C 0.99159 0.33462 0.04533 0.0
N5 N 0.97442 0.30602 0.067 0.0
C6 C 0.99731 0.32429 0.04637 0.0
C7 C 0.97716 0.3304 0.05541 0.0
C8 C 0.98846 0.30989 0.0574 0.0
C9 C 0.96864 0.31589 0.06624 0.0
C10 C 0.00935 0.34916 0.95946 0.0
C11 C 0.0256 0.3573 0.92467 0.0
N12 N 0.02216 0.34234 0.92095 0.0
C13 C 0.00592 0.33386 0.95522 0.0
C14 C 0.01922 0.36098 0.94401 0.0
C15 C 0.01254 0.33066 0.9357 0.0
C16 C 0.95496 0.32389 0.99567 0.0
N17 N 0.96936 0.32575 -0.00057 0.0
C18 C 0.95905 0.29823 0.99695 0.0
C19 C 0.97161 0.31331 -0.00029 0.0
C20 C 0.94401 0.29589 0.99335 0.0
C21 C 0.94203 0.30896 0.99245 0.0
H22 H 0.9535 0.33399 0.99509 0.0
H23 H 0.9832 0.31509 0.00218 0.0
C24 C 0.03742 0.35432 0.03329 0.0
N25 N 0.03303 0.35556 0.01087 0.0
C26 C 0.04992 0.35179 0.03707 0.0
C27 C 0.05337 0.35205 0.99464 0.0
C28 C 0.04095 0.35479 0.99171 0.0
C29 C 0.05794 0.35043 0.01755 0.0
H30 H 0.03112 0.3552 0.04829 0.0
H31 H 0.0378 0.35636 0.9741 0.0
C32 C 0.97632 0.37047 0.01484 0.0
N33 N 0.96064 0.38344 0.03709 0.0
C34 C 0.98088 0.38612 0.01127 0.0
C35 C 0.96366 0.36137 0.02953 0.0
C36 C 0.97284 0.39247 0.02273 0.0
C37 C 0.95591 0.36815 0.04065 0.0
C38 C 0.03577 0.38795 0.01629 0.0
C39 C 0.04157 0.39022 0.0395 0.0
C40 C 0.04604 0.39258 0.99717 0.0
C41 C 0.05763 0.39704 0.0432 0.0
C42 C 0.06201 0.39935 0.00161 0.0
N43 N 0.06743 0.40141 0.02434 0.0
C44 C 0.98963 0.37369 0.07516 0.0
C45 C 0.00785 0.39596 0.05394 0.0
C46 C 0.98755 0.38312 0.0916 0.0
N47 N 0.99945 0.38024 0.05656 0.0
C48 C 0.0062 0.40579 0.06996 0.0
C49 C 0.99572 0.3994 0.08886 0.0
H50 H 0.98297 0.36118 0.07678 0.0
H51 H 0.01532 0.40086 0.03871 0.0
C52 C 1.00025 0.38455 0.94233 0.0
N53 N 0.00775 0.38803 0.96366 0.0
C54 C 0.00248 0.39653 0.92694 0.0
C55 C 0.01998 0.4153 0.95588 0.0
C56 C 0.01749 0.40301 0.97056 0.0
C57 C 0.01241 0.41218 0.93374 0.0
H58 H 0.99247 0.37251 0.93738 0.0
H59 H 0.02307 0.40544 0.98782 0.0
O60 O 1.00001 0.34871 0.03438 0.0
O61 O 0.00279 0.3525 0.97825 0.0
O62 O 0.98443 0.36421 0.00449 0.0
O63 O 0.02007 0.38078 0.01228 0.0
H64 H 0.00835 0.32723 0.03844 0.0
H65 H 0.97245 0.33813 0.05453 0.0
H66 H 0.99271 0.30177 0.05822 0.0
H67 H 0.9574 0.31245 0.07395 0.0
H68 H 0.03331 0.36634 0.91265 0.0
H69 H 0.99827 0.32456 0.96688 0.0
H70 H 0.0221 0.3729 0.94705 0.0
H71 H 0.01002 0.31887 0.93225 0.0
H72 H 0.96114 0.28851 0.99722 0.0
H73 H 0.93062 0.30762 0.98956 0.0
H74 H 0.05304 0.35056 0.05505 0.0
H75 H 0.05944 0.35133 0.97915 0.0
H76 H 0.99068 0.39335 5e-05 0.0
H77 H 0.95995 0.34925 0.03251 0.0
H78 H 0.97635 0.4046 0.02029 0.0
H79 H 0.94617 0.36127 0.0522 0.0
H80 H 0.03373 0.38657 0.05447 0.0
H81 H 0.04169 0.3908 0.9791 0.0
H82 H 0.06229 0.3988 0.06106 0.0
H83 H 0.0701 0.40292 0.98699 0.0
H84 H 0.97949 0.37771 0.10608 0.0
H85 H 0.01257 0.41824 0.06697 0.0
H86 H 0.99653 0.39357 0.90992 0.0
H87 H 0.02749 0.42713 0.96211 0.0
Li88 Li 0.6534 0.64444 0.00684 0.0
Li89 Li 0.64016 0.6587 0.01004 0.0
Li90 Li 0.62858 0.63191 0.02857 0.0
Li91 Li 0.62901 0.63576 0.98537 0.0
C92 C 0.65929 0.65291 0.053 0.0
N93 N 0.68168 0.65562 0.08515 0.0
C94 C 0.67389 0.66648 0.05385 0.0
C95 C 0.65601 0.64082 0.06877 0.0
C96 C 0.68507 0.66759 0.07014 0.0
C97 C 0.6675 0.64239 0.08483 0.0
C98 C 0.65767 0.67029 0.97298 0.0
C99 C 0.6617 0.6908 0.94601 0.0
N100 N 0.67439 0.70105 0.95892 0.0
C101 C 0.67082 0.68102 0.98585 0.0
C102 C 0.65311 0.6752 0.95281 0.0
C103 C 0.67909 0.69652 0.97853 0.0
C104 C 0.67693 0.63745 0.02129 0.0
N105 N 0.67327 0.64543 0.00539 0.0
C106 C 0.69758 0.65437 0.98565 0.0
C107 C 0.68318 0.6536 0.98756 0.0
C108 C 0.70181 0.64649 0.00208 0.0
C109 C 0.69123 0.6379 0.02005 0.0
H110 H 0.66865 0.63052 0.03474 0.0
H111 H 0.6798 0.65929 0.97448 0.0
C112 C 0.63823 0.68592 -0.00143 0.0
N113 N 0.64284 0.67902 0.015 0.0
C114 C 0.64118 0.70113 0.00219 0.0
C115 C 0.65315 0.70165 0.03989 0.0
C116 C 0.65004 0.68651 0.03548 0.0
C117 C 0.64886 0.70926 0.02301 0.0
H118 H 0.63254 0.67978 0.9824 0.0
H119 H 0.65344 0.68072 0.04839 0.0
C120 C 0.64125 0.61471 0.99227 0.0
N121 N 0.65421 0.59917 0.96958 0.0
C122 C 0.64588 0.61797 0.96859 0.0
C123 C 0.64331 0.60362 0.00446 0.0
C124 C 0.65237 0.60996 0.95742 0.0
C125 C 0.64986 0.59587 0.99266 0.0
C126 C 0.60392 0.63594 0.00015 0.0
C127 C 0.59135 0.62181 0.00765 0.0
C128 C 0.60175 0.64417 0.9819 0.0
C129 C 0.57683 0.61611 0.99662 0.0
C130 C 0.58705 0.63807 0.97129 0.0
N131 N 0.57501 0.62428 0.9788 0.0
C132 C 0.60975 0.62342 0.0694 0.0
C133 C 0.61072 0.60269 0.04982 0.0
C134 C 0.59822 0.61294 0.08465 0.0
N135 N 0.61558 0.61811 0.05228 0.0
C136 C 0.59929 0.59182 0.06478 0.0
C137 C 0.59267 0.59688 0.08217 0.0
H138 H 0.61367 0.63573 0.07063 0.0
H139 H 0.61526 0.59878 0.0356 0.0
C140 C 0.61523 0.6306 0.93822 0.0
N141 N 0.61573 0.62428 0.95932 0.0
C142 C 0.60395 0.62153 0.92118 0.0
C143 C 0.59413 0.59963 0.94781 0.0
C144 C 0.6056 0.60908 0.96423 0.0
C145 C 0.59311 0.60584 0.92598 0.0
H146 H 0.62331 0.64271 0.9348 0.0
H147 H 0.60613 0.60442 0.98131 0.0
O148 O 0.64818 0.65155 0.03711 0.0
O149 O 0.64924 0.65512 0.98028 0.0
O150 O 0.63537 0.62281 0.00377 0.0
O151 O 0.61834 0.6415 0.01025 0.0
H152 H 0.67657 0.67608 0.04213 0.0
H153 H 0.64481 0.63024 0.06844 0.0
H154 H 0.69643 0.67799 0.07089 0.0
H155 H 0.66516 0.63307 0.097 0.0
H156 H 0.65823 0.69477 0.93053 0.0
H157 H 0.67453 0.67742 0.00144 0.0
H158 H 0.64297 0.66716 0.94263 0.0
H159 H 0.68923 0.70494 0.98845 0.0
H160 H 0.70514 0.66074 0.97105 0.0
H161 H 0.69394 0.63156 0.03302 0.0
H162 H 0.63776 0.70655 0.98862 0.0
H163 H 0.65876 0.70729 0.05646 0.0
H164 H 0.64467 0.62674 0.95902 0.0
H165 H 0.64007 0.60117 0.02293 0.0
H166 H 0.65602 0.61239 0.93912 0.0
H167 H 0.65156 0.58728 0.00189 0.0
H168 H 0.5928 0.61521 0.02164 0.0
H169 H 0.61137 0.65498 0.97562 0.0
H170 H 0.56703 0.60515 0.00216 0.0
H171 H 0.58525 0.64425 0.95699 0.0
H172 H 0.59353 0.61732 0.09801 0.0
H173 H 0.59523 0.57955 0.06211 0.0
H174 H 0.60374 0.62676 0.90445 0.0
H175 H 0.58591 0.58769 0.95245 0.0
Li176 Li 0.37041 1.00021 0.98705 0.0
Li177 Li 0.36887 0.00323 0.03049 0.0
Li178 Li 0.34519 0.9872 0.00686 0.0
Li179 Li 0.35782 0.01512 0.0041 0.0
C180 C 0.36 0.9698 0.00287 0.0
N181 N 0.35404 0.94137 0.98469 0.0
C182 C 0.36149 0.95921 0.01735 0.0
C183 C 0.3556 0.96596 0.97909 0.0
C184 C 0.35839 0.94488 0.00785 0.0
C185 C 0.3526 0.95153 0.97025 0.0
C186 C 0.39385 0.03221 0.01235 0.0
C187 C 0.4092 0.05787 0.02967 0.0
N188 N 0.42243 0.05762 0.02427 0.0
C189 C 0.40762 0.03225 0.00692 0.0
C190 C 0.39465 0.04515 0.02379 0.0
C191 C 0.42195 0.04519 0.01312 0.0
C192 C 0.38443 0.00253 0.94121 0.0
N193 N 0.38406 0.99907 0.9646 0.0
C194 C 0.40391 0.99241 0.95923 0.0
C195 C 0.39356 0.99417 0.97376 0.0
C196 C 0.40453 0.99572 0.93495 0.0
C197 C 0.39469 1.00096 0.92595 0.0
H198 H 0.37671 0.00639 0.93442 0.0
H199 H 0.39308 0.99163 0.99249 0.0
C200 C 0.37457 0.98925 0.06834 0.0
N201 N 0.38007 0.00351 0.05845 0.0
C202 C 0.38373 0.98663 0.08445 0.0
C203 C 0.40343 0.0138 0.08174 0.0
C204 C 0.39393 0.01586 0.0655 0.0
C205 C 0.39862 0.99888 0.0906 0.0
H206 H 0.36343 0.97969 0.06263 0.0
H207 H 0.39808 0.02715 0.05777 0.0
C208 C 0.33738 0.99343 0.96408 0.0
N209 N 0.30985 0.97985 0.93835 0.0
C210 C 0.32431 0.99356 0.97297 0.0
C211 C 0.3365 0.98649 0.94204 0.0
C212 C 0.31048 0.9866 0.95972 0.0
C213 C 0.32247 0.97967 0.92931 0.0
C214 C 0.34644 0.01084 0.05017 0.0
C215 C 0.3315 0.00778 0.05626 0.0
C216 C 0.35942 0.02287 0.06172 0.0
C217 C 0.32984 0.0169 0.07369 0.0
C218 C 0.35727 0.03172 0.07907 0.0
N219 N 0.34265 0.02859 0.08464 0.0
C220 C 0.31911 0.95805 0.98979 0.0
C221 C 0.31725 0.9663 0.02859 0.0
C222 C 0.30454 0.9446 0.99202 0.0
N223 N 0.32518 0.96856 0.008 0.0
C224 C 0.30255 0.9532 0.0314 0.0
C225 C 0.29607 0.94213 0.01301 0.0
H226 H 0.32551 0.96005 0.9735 0.0
H227 H 0.32241 0.97464 0.04295 0.0
C228 C 0.36691 0.04554 0.98911 0.0
N229 N 0.35509 0.03268 -0.00065 0.0
C230 C 0.36593 0.05901 0.98653 0.0
C231 C 0.34014 0.04544 0.00344 0.0
C232 C 0.34174 0.0323 0.00611 0.0
C233 C 0.35246 0.05908 0.99391 0.0
H234 H 0.3772 0.04539 0.98321 0.0
H235 H 0.33233 0.02184 0.01365 0.0
O236 O 0.36326 0.98401 0.01178 0.0
O237 O 0.37972 0.01968 0.00621 0.0
O238 O 0.35093 0.99994 0.97698 0.0
O239 O 0.34826 0.00211 0.03293 0.0
H240 H 0.36509 0.96201 0.03571 0.0
H241 H 0.35449 0.97403 0.96757 0.0
H242 H 0.35949 0.93658 0.01888 0.0
H243 H 0.34914 0.94842 0.95189 0.0
H244 H 0.40996 0.06793 0.03857 0.0
H245 H 0.40728 0.02239 0.99808 0.0
H246 H 0.38417 0.04538 0.02824 0.0
H247 H 0.43268 0.04535 0.00905 0.0
H248 H 0.41144 0.9886 0.967 0.0
H249 H 0.39472 0.00352 0.90727 0.0
H250 H 0.37945 0.97501 0.09131 0.0
H251 H 0.41482 0.02357 0.0861 0.0
H252 H 0.32475 0.99871 0.99013 0.0
H253 H 0.34653 0.9863 0.93489 0.0
H254 H 0.30023 0.9865 0.96648 0.0
H255 H 0.32159 0.9742 0.91227 0.0
H256 H 0.32131 0.99859 0.04737 0.0
H257 H 0.37102 0.02536 0.05734 0.0
H258 H 0.31835 0.01472 0.07846 0.0
H259 H 0.36724 0.04109 0.0881 0.0
H260 H 0.29987 0.9363 0.97746 0.0
H261 H 0.29646 0.95156 0.04801 0.0
H262 H 0.37554 0.06923 0.97861 0.0
H263 H 0.32952 0.04504 0.00913 0.0
Li264 Li 0.01479 0.65658 0.00856 0.0
Li265 Li 0.99836 0.63086 0.03023 0.0
Li266 Li 0.00238 0.63193 0.98556 0.0
Li267 Li 0.98772 0.64208 0.00431 0.0
C268 C 0.03117 0.63857 0.01821 0.0
N269 N 0.05805 0.63879 0.03211 0.0
C270 C 0.03491 0.63925 0.0423 0.0
C271 C 0.04102 0.63785 0.00119 0.0
C272 C 0.04857 0.6394 0.04897 0.0
C273 C 0.05458 0.63802 0.00857 0.0
C274 C 0.99215 0.65856 0.04366 0.0
C275 C 0.97488 0.66015 0.07212 0.0
N276 N 0.9767 0.67315 0.06118 0.0
C277 C 0.99397 0.67201 0.03282 0.0
C278 C 0.98262 0.65261 0.06355 0.0
C279 C 0.98601 0.67919 0.04189 0.0
C280 C 0.03336 0.68903 -0.00066 0.0
N281 N 0.03273 0.67691 0.01151 0.0
C282 C 0.05703 0.69394 0.03059 0.0
C283 C 0.04427 0.67909 0.02682 0.0
C284 C 0.05781 0.70679 0.01886 0.0
C285 C 0.04588 0.70415 0.00271 0.0
H286 H 0.02392 0.68703 0.98747 0.0
H287 H 0.04343 0.6694 0.03661 0.0
C288 C 0.9938 0.60342 0.04778 0.0
N289 N 0.99614 0.61744 0.05542 0.0
C290 C 0.99243 0.59226 0.064 0.0
C291 C 0.99569 0.61012 0.09586 0.0
C292 C 0.99704 0.621 0.07891 0.0
C293 C 0.99343 0.59553 0.08842 0.0
H294 H 0.99321 0.601 0.02894 0.0
H295 H 0.999 0.63231 0.08445 0.0
C296 C 0.01284 0.6585 0.95929 0.0
N297 N 0.03299 0.67157 0.92159 0.0
C298 C 0.00811 0.66312 0.939 0.0
C299 C 0.02783 0.6605 0.96035 0.0
C300 C 0.01846 0.66971 0.92013 0.0
C301 C 0.03785 0.66715 0.94115 0.0
C302 C 0.96838 0.61188 0.99627 0.0
C303 C 0.96495 0.61295 0.97251 0.0
C304 C 0.9564 0.60241 0.01175 0.0
C305 C 0.94949 0.6046 0.96465 0.0
C306 C 0.94109 0.59423 0.00319 0.0
N307 N 0.93798 0.5955 0.98003 0.0
C308 C 0.00782 0.60875 0.97192 0.0
C309 C 0.00287 0.62019 0.9386 0.0
C310 C 0.00928 0.59816 0.9574 0.0
N311 N 0.00471 0.61946 0.96239 0.0
C312 C 0.00414 0.60971 0.92334 0.0
C313 C 0.0073 0.59843 0.93276 0.0
H314 H 0.0091 0.6084 0.99094 0.0
H315 H 1.00016 0.62869 0.93155 0.0
C316 C 0.96813 0.65138 0.98197 0.0
N317 N 0.96939 0.6437 0.00096 0.0
C318 C 0.95476 0.65249 0.97871 0.0
C319 C 0.94437 0.63805 0.01492 0.0
C320 C 0.95787 0.63707 0.01732 0.0
C321 C 0.94261 0.64575 0.99531 0.0
H322 H 0.97744 0.65649 0.9692 0.0
H323 H 0.95914 0.63096 0.03222 0.0
O324 O 0.0177 0.63817 0.01138 0.0
O325 O 0.99968 0.65125 0.03483 0.0
O326 O 0.00266 0.65181 0.97768 0.0
O327 O 0.98338 0.62024 0.0044 0.0
H328 H 0.02746 0.63988 0.05571 0.0
H329 H 0.03824 0.63711 0.98247 0.0
H330 H 0.05166 0.64001 0.06754 0.0
H331 H 0.06233 0.63751 0.99559 0.0
H332 H 0.96738 0.65562 0.0874 0.0
H333 H 1.00125 0.67671 0.01735 0.0
H334 H 0.98107 0.64219 0.07211 0.0
H335 H 0.98719 0.68953 0.03356 0.0
H336 H 0.06604 0.69536 0.04297 0.0
H337 H 0.0459 0.71372 0.99352 0.0
H338 H 0.99101 0.58135 0.05739 0.0
H339 H 0.99642 0.61309 0.11452 0.0
H340 H 0.99651 0.66157 0.93775 0.0
H341 H 0.03175 0.6571 0.97587 0.0
H342 H 0.01492 0.67331 0.90432 0.0
H343 H 0.04949 0.6688 0.9418 0.0
H344 H 0.97411 0.62031 0.96036 0.0
H345 H 0.95891 0.6015 0.03021 0.0
H346 H 0.94663 0.60539 0.94634 0.0
H347 H 0.93167 0.58691 0.01498 0.0
H348 H 0.01196 0.58987 0.96543 0.0
H349 H 0.00231 0.6102 0.90447 0.0
H350 H 0.95384 0.65827 0.96305 0.0
H351 H 0.93544 0.63283 0.02833 0.0
Li352 Li 0.3408 0.36082 0.01245 0.0
Li353 Li 0.36676 0.36964 0.03154 0.0
Li354 Li 0.36321 0.37032 0.98854 0.0
Li355 Li 0.35315 0.34524 0.00666 0.0
C356 C 0.35254 0.39068 0.01715 0.0
N357 N 0.33701 0.40693 0.02498 0.0
C358 C 0.35165 0.39565 0.04007 0.0
C359 C 0.34553 0.394 0.99822 0.0
C360 C 0.34377 0.40386 0.04366 0.0
C361 C 0.33772 0.4022 0.00254 0.0
C362 C 0.33803 0.33599 0.04722 0.0
C363 C 0.33669 0.31508 0.07069 0.0
N364 N 0.32138 0.30607 0.0647 0.0
C365 C 0.32228 0.32654 0.04133 0.0
C366 C 0.3453 0.33025 0.06206 0.0
C367 C 0.31406 0.31144 0.05036 0.0
C368 C 0.31069 0.35574 -0.00039 0.0
N369 N 0.32127 0.35971 0.01755 0.0
C370 C 0.30463 0.36319 0.04432 0.0
C371 C 0.31836 0.36305 0.03972 0.0
C372 C 0.29359 0.35936 0.0261 0.0
C373 C 0.29658 0.35536 0.00359 0.0
H374 H 0.31321 0.3529 0.98225 0.0
H375 H 0.32684 0.36579 0.05376 0.0
C376 C 0.38766 0.39617 0.05721 0.0
N377 N 0.38158 0.38049 0.05598 0.0
C378 C 0.4 0.40521 0.07264 0.0
C379 C 0.39992 0.38185 0.08496 0.0
C380 C 0.38743 0.37321 0.06941 0.0
C381 C 0.4064 0.39809 0.08659 0.0
H382 H 0.38336 0.40178 0.04547 0.0
H383 H 0.38274 0.3608 0.06745 0.0
C384 C 0.34275 0.35093 0.9584 0.0
N385 N 0.34361 0.35063 0.90939 0.0
C386 C 0.34709 0.34126 0.94659 0.0
C387 C 0.33878 0.36038 0.94529 0.0
C388 C 0.34745 0.34128 0.92179 0.0
C389 C 0.33932 0.36009 0.92052 0.0
C390 C 0.38926 0.36788 0.99676 0.0
C391 C 0.39304 0.35854 0.98287 0.0
C392 C 0.40026 0.38361 0.00032 0.0
C393 C 0.40778 0.36516 0.97257 0.0
C394 C 0.41485 0.38979 0.98966 0.0
N395 N 0.41828 0.38052 0.97612 0.0
C396 C 0.3798 0.39868 0.96419 0.0
C397 C 0.3815 0.3779 0.94629 0.0
C398 C 0.39155 0.40945 0.94955 0.0
N399 N 0.37525 0.38327 0.96269 0.0
C400 C 0.39354 0.38831 0.93168 0.0
C401 C 0.39892 0.40432 0.93371 0.0
H402 H 0.37508 0.40279 0.9778 0.0
H403 H 0.37799 0.36569 0.94574 0.0
C404 C 0.33516 0.31339 0.99559 0.0
N405 N 0.34923 0.32443 0.0043 0.0
C406 C 0.33156 0.2979 0.99371 0.0
C407 C 0.35697 0.30538 0.01004 0.0
C408 C 0.36007 0.32076 0.01165 0.0
C409 C 0.34256 0.29371 0.00089 0.0
H410 H 0.32675 0.31667 0.98999 0.0
H411 H 0.37109 0.32977 0.01881 0.0
O412 O 0.35989 0.38228 0.01331 0.0
O413 O 0.34641 0.3506 0.03791 0.0
O414 O 0.34239 0.35114 0.98267 0.0
O415 O 0.37476 0.3617 0.00649 0.0
H416 H 0.35667 0.39289 0.05505 0.0
H417 H 0.34601 0.39016 0.9804 0.0
H418 H 0.3429 0.40768 0.06132 0.0
H419 H 0.33219 0.40478 0.98806 0.0
H420 H 0.34219 0.31045 0.08207 0.0
H421 H 0.3165 0.33072 0.02965 0.0
H422 H 0.35751 0.33736 0.06662 0.0
H423 H 0.30189 0.30397 0.04585 0.0
H424 H 0.30255 0.36608 0.06199 0.0
H425 H 0.28821 0.35222 0.98923 0.0
H426 H 0.40488 0.41773 0.07298 0.0
H427 H 0.40454 0.37593 0.09543 0.0
H428 H 0.35034 0.33398 0.95643 0.0
H429 H 0.33536 0.3679 0.95413 0.0
H430 H 0.35086 0.33392 0.91242 0.0
H431 H 0.33633 0.36739 0.91015 0.0
H432 H 0.38461 0.34637 0.97984 0.0
H433 H 0.39745 0.39103 0.01081 0.0
H434 H 0.41085 0.3581 0.96165 0.0
H435 H 0.42342 0.40198 0.99205 0.0
H436 H 0.39554 0.42175 0.95171 0.0
H437 H 0.39903 0.38399 0.91964 0.0
H438 H 0.32041 0.28937 0.9862 0.0
H439 H 0.36572 0.30265 0.016 0.0
Li440 Li 0.647 0.98837 0.01293 0.0
Li441 Li 0.637 0.00368 0.034 0.0
Li442 Li 0.63527 0.00199 0.99248 0.0
Li443 Li 0.66075 0.01806 0.01115 0.0
C444 C 0.61141 0.97463 0.00593 0.0
N445 N 0.58259 0.95535 0.98551 0.0
C446 C 0.59923 0.9777 0.00921 0.0
C447 C 0.6089 0.96165 0.99257 0.0
C448 C 0.58476 0.96785 -0.00137 0.0
C449 C 0.59424 0.95207 0.98233 0.0
C450 C 0.65866 0.00701 0.06277 0.0
C451 C 0.66504 0.02453 0.09614 0.0
N452 N 0.6599 0.01224 0.11113 0.0
C453 C 0.65346 0.99454 0.07846 0.0
C454 C 0.66451 0.02213 0.07161 0.0
C455 C 0.65418 0.99743 0.10287 0.0
C456 C 0.66193 0.97147 0.00022 0.0
N457 N 0.65067 0.97133 0.01409 0.0
C458 C 0.64598 0.94767 0.03232 0.0
C459 C 0.64262 0.95971 0.0298 0.0
C460 C 0.6576 0.94746 0.01826 0.0
C461 C 0.66541 0.95949 0.00173 0.0
H462 H 0.6684 0.98103 0.98821 0.0
H463 H 0.63387 0.96002 0.04084 0.0
C464 C 0.62416 0.01562 0.06781 0.0
N465 N 0.62503 0.00294 0.06077 0.0
C466 C 0.61262 0.01394 0.08374 0.0
C467 C 0.60366 0.98637 0.08553 0.0
C468 C 0.61538 0.98859 0.06975 0.0
C469 C 0.60183 0.99905 0.09211 0.0
H470 H 0.63186 0.02686 0.0601 0.0
H471 H 0.61626 0.9787 0.06361 0.0
C472 C 0.65749 0.99974 0.96215 0.0
N473 N 0.66297 0.99431 0.91597 0.0
C474 C 0.66805 0.01209 0.94808 0.0
C475 C 0.64996 0.98459 0.95286 0.0
C476 C 0.67059 0.00911 0.92474 0.0
C477 C 0.65281 0.98209 0.92944 0.0
C478 C 0.64595 0.03414 -0.001 0.0
C479 C 0.65091 0.03511 0.97557 0.0
C480 C 0.64465 0.04641 0.00881 0.0
C481 C 0.65459 0.04838 0.96236 0.0
C482 C 0.64845 0.05951 0.99504 0.0
N483 N 0.65331 0.06022 0.97229 0.0
C484 C 0.61324 0.00789 0.97021 0.0
C485 C 0.61651 0.98872 0.95002 0.0
C486 C 0.60117 0.00549 0.95481 0.0
N487 N 0.62076 0.99965 0.96753 0.0
C488 C 0.60428 0.98574 0.93446 0.0
C489 C 0.59643 0.99415 0.93686 0.0
H490 H 0.61613 0.01589 0.98495 0.0
H491 H 0.62203 0.98176 0.94876 0.0
C492 C 0.69228 0.03105 0.0039 0.0
N493 N 0.68142 0.03522 0.0086 0.0
C494 C 0.70787 0.0424 0.00098 0.0
C495 C 0.7009 0.06222 0.00781 0.0
C496 C 0.68542 0.05045 0.01092 0.0
C497 C 0.71234 0.05823 0.00274 0.0
H498 H 0.68874 0.01885 0.00218 0.0
H499 H 0.67665 0.0535 0.01505 0.0
O500 O 0.62577 0.98437 0.01556 0.0
O501 O 0.65762 0.0044 0.03882 0.0
O502 O 0.65512 0.0024 0.98522 0.0
O503 O 0.64243 0.02134 0.01245 0.0
H504 H 0.60102 0.98772 0.01951 0.0
H505 H 0.61821 0.95911 0.98997 0.0
H506 H 0.57527 0.97017 0.0008 0.0
H507 H 0.59215 0.94204 0.97179 0.0
H508 H 0.66949 0.03617 0.10326 0.0
H509 H 0.6488 0.98276 0.07185 0.0
H510 H 0.66847 0.03188 0.05963 0.0
H511 H 0.65014 0.98789 0.11525 0.0
H512 H 0.63984 0.93895 0.04572 0.0
H513 H 0.67427 0.95981 0.9902 0.0
H514 H 0.61157 0.024 0.08831 0.0
H515 H 0.59573 0.97474 0.09186 0.0
H516 H 0.67428 0.02385 0.95515 0.0
H517 H 0.64192 0.97487 0.9636 0.0
H518 H 0.67867 0.01857 0.91363 0.0
H519 H 0.64697 0.97044 0.92198 0.0
H520 H 0.65174 0.02566 0.96758 0.0
H521 H 0.64083 0.04587 0.02693 0.0
H522 H 0.65843 0.04926 0.9442 0.0
H523 H 0.64754 0.06911 0.00244 0.0
H524 H 0.5952 0.012 0.9575 0.0
H525 H 0.60088 0.97683 0.92087 0.0
H526 H 0.71628 0.03883 0.99678 0.0
H527 H 0.70392 0.0743 0.00946 0.0
Li528 Li 0.6564 0.67977 0.34367 0.0
Li529 Li 0.68632 0.6935 0.34818 0.0
Li530 Li 0.67063 0.70358 0.36719 0.0
Li531 Li 0.67397 0.70558 0.32591 0.0
C532 C 0.66521 0.6814 0.39618 0.0
N533 N 0.65696 0.67914 0.44341 0.0
C534 C 0.67669 0.68698 0.4139 0.0
C535 C 0.64953 0.6747 0.40247 0.0
C536 C 0.67228 0.68573 0.43768 0.0
C537 C 0.6456 0.67364 0.42645 0.0
C538 C 0.67539 0.68695 0.29496 0.0
C539 C 0.69259 0.6971 0.26139 0.0
N540 N 0.68001 0.69114 0.24658 0.0
C541 C 0.66263 0.68092 0.27941 0.0
C542 C 0.69049 0.69512 0.2859 0.0
C543 C 0.66521 0.68316 0.25501 0.0
C544 C 0.62768 0.65806 0.32273 0.0
N545 N 0.63829 0.6599 0.33965 0.0
C546 C 0.62403 0.63271 0.34858 0.0
C547 C 0.63666 0.64766 0.35269 0.0
C548 C 0.61326 0.63039 0.33056 0.0
C549 C 0.61508 0.64328 0.31771 0.0
H550 H 0.62924 0.66803 0.31276 0.0
H551 H 0.64537 0.64946 0.36589 0.0
C552 C 0.71279 0.69498 0.37025 0.0
N553 N 0.7033 0.68968 0.35087 0.0
C554 C 0.72476 0.69154 0.37311 0.0
C555 C 0.71746 0.67794 0.33542 0.0
C556 C 0.70537 0.68128 0.33362 0.0
C557 C 0.72727 0.68285 0.35557 0.0
H558 H 0.71091 0.70167 0.38368 0.0
H559 H 0.69755 0.67702 0.31851 0.0
C560 C 0.64434 0.70298 0.35088 0.0
N561 N 0.62428 0.71262 0.36726 0.0
C562 C 0.64902 0.71883 0.3514 0.0
C563 C 0.6294 0.69202 0.35845 0.0
C564 C 0.63872 0.72347 0.35982 0.0
C565 C 0.61944 0.69713 0.36672 0.0
C566 C 0.70196 0.72892 0.34231 0.0
C567 C 0.69978 0.7418 0.34264 0.0
C568 C 0.71592 0.73052 0.33386 0.0
C569 C 0.71155 0.75606 0.33411 0.0
C570 C 0.72742 0.74499 0.32551 0.0
N571 N 0.72501 0.75734 0.32578 0.0
C572 C 0.68399 0.72821 0.39966 0.0
C573 C 0.65675 0.71268 0.40501 0.0
C574 C 0.68458 0.7397 0.4147 0.0
N575 N 0.67012 0.71539 0.39415 0.0
C576 C 0.65677 0.72397 0.42004 0.0
C577 C 0.67074 0.73802 0.42421 0.0
H578 H 0.69456 0.7299 0.39151 0.0
H579 H 0.6459 0.70222 0.40096 0.0
C580 C 0.6627 0.71953 0.29448 0.0
N581 N 0.67575 0.71882 0.2996 0.0
C582 C 0.66336 0.73078 0.27901 0.0
C583 C 0.69054 0.73948 0.2724 0.0
C584 C 0.68939 0.72812 0.28821 0.0
C585 C 0.67753 0.74124 0.26829 0.0
H586 H 0.65183 0.71168 0.303 0.0
H587 H 0.69956 0.7272 0.29201 0.0
O588 O 0.66929 0.68282 0.37277 0.0
O589 O 0.6731 0.68513 0.31894 0.0
O590 O 0.65419 0.69818 0.34253 0.0
O591 O 0.69063 0.71488 0.35073 0.0
H592 H 0.68887 0.6923 0.40934 0.0
H593 H 0.64051 0.67055 0.38898 0.0
H594 H 0.68105 0.69002 0.45158 0.0
H595 H 0.63352 0.66854 0.43156 0.0
H596 H 0.70421 0.70347 0.25416 0.0
H597 H 0.65087 0.67462 0.28609 0.0
H598 H 0.7005 0.70012 0.2977 0.0
H599 H 0.65544 0.67858 0.24278 0.0
H600 H 0.62305 0.62298 0.35865 0.0
H601 H 0.60694 0.64188 0.3037 0.0
H602 H 0.73168 0.69537 0.38923 0.0
H603 H 0.71898 0.6715 0.32113 0.0
H604 H 0.66052 0.72745 0.34552 0.0
H605 H 0.62559 0.67971 0.35809 0.0
H606 H 0.64223 0.7357 0.36048 0.0
H607 H 0.60788 0.68879 0.37276 0.0
H608 H 0.68908 0.74076 0.34927 0.0
H609 H 0.71782 0.72069 0.33359 0.0
H610 H 0.70999 0.7661 0.33409 0.0
H611 H 0.73826 0.7464 0.31879 0.0
H612 H 0.69573 0.75004 0.41819 0.0
H613 H 0.64583 0.72207 0.42717 0.0
H614 H 0.65293 0.73145 0.27577 0.0
H615 H 0.70167 0.74724 0.26432 0.0
Li616 Li 0.29448 0.96775 0.3167 0.0
Li617 Li 0.29583 0.96281 0.3586 0.0
Li618 Li 0.30806 0.99024 0.34157 0.0
Li619 Li 0.31972 0.97441 0.33461 0.0
C620 C 0.2708 0.96913 0.33631 0.0
N621 N 0.24082 0.9592 0.3203 0.0
C622 C 0.25841 0.95483 0.34365 0.0
C623 C 0.26784 0.97851 0.32121 0.0
C624 C 0.24337 0.94998 0.33527 0.0
C625 C 0.25264 0.97326 0.31319 0.0
C626 C 0.30228 0.9443 0.31471 0.0
C627 C 0.29889 0.91953 0.30184 0.0
N628 N 0.30542 0.92591 0.28063 0.0
C629 C 0.30899 0.95061 0.29277 0.0
C630 C 0.29719 0.92863 0.31928 0.0
C631 C 0.31046 0.94112 0.27579 0.0
C632 C 0.28062 0.96477 0.27015 0.0
N633 N 0.28022 0.95786 0.29112 0.0
C634 C 0.25738 0.93441 0.27897 0.0
C635 C 0.26898 0.94298 0.2957 0.0
C636 C 0.2574 0.94115 0.25711 0.0
C637 C 0.26923 0.95656 0.25277 0.0
H638 H 0.28976 0.97658 0.26689 0.0
H639 H 0.26894 0.93781 0.31258 0.0
C640 C 0.28427 0.95263 0.40589 0.0
N641 N 0.28429 0.94843 0.38289 0.0
C642 C 0.27453 0.94147 0.42235 0.0
C643 C 0.26534 0.92198 0.39113 0.0
C644 C 0.27524 0.93345 0.3754 0.0
C645 C 0.26473 0.92594 0.4149 0.0
H646 H 0.29155 0.96466 0.41132 0.0
H647 H 0.27533 0.93052 0.35693 0.0
C648 C 0.32113 0.99982 0.2983 0.0
N649 N 0.33327 0.02773 0.27429 0.0
C650 C 0.33694 0.00808 0.29249 0.0
C651 C 0.31145 0.00559 0.29134 0.0
C652 C 0.34287 0.0222 0.28048 0.0
C653 C 0.31781 0.01976 0.27939 0.0
C654 C 0.32795 0.98222 0.37978 0.0
C655 C 0.34099 0.99654 0.38569 0.0
C656 C 0.32702 0.96841 0.38752 0.0
C657 C 0.35299 0.9968 0.39915 0.0
C658 C 0.33927 0.96916 0.40092 0.0
N659 N 0.35189 0.98322 0.4064 0.0
C660 C 0.30129 0.01437 0.35123 0.0
C661 C 0.32804 0.02269 0.346 0.0
C662 C 0.30473 0.02977 0.35426 0.0
N663 N 0.31289 0.01116 0.34707 0.0
C664 C 0.33201 0.03824 0.34894 0.0
C665 C 0.32028 0.04196 0.35313 0.0
H666 H 0.28936 0.00498 0.35227 0.0
H667 H 0.33702 0.01978 0.34262 0.0
C668 C 0.34053 0.96221 0.3308 0.0
N669 N 0.33959 0.9754 0.33219 0.0
C670 C 0.35499 0.96309 0.32888 0.0
C671 C 0.36741 0.99112 0.33134 0.0
C672 C 0.35268 0.98968 0.33299 0.0
C673 C 0.36872 0.9777 0.32893 0.0
H674 H 0.33012 0.95093 0.33123 0.0
H675 H 0.35169 0.99999 0.33514 0.0
O676 O 0.28569 0.97389 0.34392 0.0
O677 O 0.30054 0.9533 0.33159 0.0
O678 O 0.31516 0.98608 0.31045 0.0
O679 O 0.31628 0.98168 0.36609 0.0
H680 H 0.26036 0.94748 0.35553 0.0
H681 H 0.27712 0.98975 0.31575 0.0
H682 H 0.23372 0.93888 0.34067 0.0
H683 H 0.25024 0.98037 0.30136 0.0
H684 H 0.29502 0.9074 0.30517 0.0
H685 H 0.313 0.96267 0.28879 0.0
H686 H 0.29208 0.92356 0.33619 0.0
H687 H 0.3156 0.94585 0.25875 0.0
H688 H 0.2484 0.92267 0.28326 0.0
H689 H 0.26983 0.96213 0.23601 0.0
H690 H 0.27435 0.94503 0.44049 0.0
H691 H 0.25815 0.91015 0.38468 0.0
H692 H 0.34454 0.00359 0.29696 0.0
H693 H 0.29919 0.99925 0.29526 0.0
H694 H 0.3551 0.02874 0.27602 0.0
H695 H 0.31045 0.02442 0.27415 0.0
H696 H 0.34188 0.00733 0.37979 0.0
H697 H 0.31704 0.95723 0.38293 0.0
H698 H 0.3632 0.00779 0.40377 0.0
H699 H 0.33876 0.95857 0.40691 0.0
H700 H 0.29535 0.03207 0.35792 0.0
H701 H 0.34413 0.04726 0.34777 0.0
H702 H 0.35532 0.95239 0.32692 0.0
H703 H 0.37765 0.00261 0.33206 0.0
Li704 Li 0.03593 0.33559 0.31655 0.0
Li705 Li 0.03766 0.34114 0.36017 0.0
Li706 Li 0.01333 0.32331 0.34167 0.0
Li707 Li 0.02314 0.35019 0.33586 0.0
C708 C 0.02811 0.30802 0.35443 0.0
N709 N 0.0189 0.28001 0.3767 0.0
C710 C 0.02372 0.30614 0.37827 0.0
C711 C 0.02783 0.29568 0.3419 0.0
C712 C 0.0191 0.29188 0.38922 0.0
C713 C 0.02313 0.2816 0.35349 0.0
C714 C 0.05956 0.36959 0.33326 0.0
C715 C 0.07541 0.3973 0.34033 0.0
N716 N 0.08806 0.3969 0.33198 0.0
C717 C 0.07271 0.36955 0.32442 0.0
C718 C 0.06091 0.38366 0.34099 0.0
C719 C 0.08701 0.38343 0.32406 0.0
C720 C 0.04868 0.33741 0.26952 0.0
N721 N 0.04826 0.33358 0.29275 0.0
C722 C 0.06808 0.32695 0.28675 0.0
C723 C 0.05757 0.32831 0.30144 0.0
C724 C 0.06904 0.33101 0.26276 0.0
C725 C 0.05904 0.33614 0.25405 0.0
H726 H 0.04118 0.34163 0.26313 0.0
H727 H 0.05707 0.32546 0.32003 0.0
C728 C 0.05044 0.34547 0.40807 0.0
N729 N 0.05277 0.34533 0.38431 0.0
C730 C 0.0623 0.34795 0.42407 0.0
C731 C 0.07854 0.34986 0.39087 0.0
C732 C 0.06638 0.34727 0.37561 0.0
C733 C 0.07657 0.35016 0.41546 0.0
H734 H 0.03933 0.34338 0.41465 0.0
H735 H 0.06762 0.34637 0.35673 0.0
C736 C 1.001 0.32439 0.30054 0.0
N737 N 0.97185 0.30472 0.28143 0.0
C738 C 0.98799 0.32477 0.30912 0.0
C739 C 0.99926 0.31417 0.28205 0.0
C740 C 0.97333 0.31467 0.29929 0.0
C741 C 0.9844 0.30429 0.27267 0.0
C742 C 0.01811 0.34887 0.38494 0.0
C743 C 0.00556 0.34511 0.40005 0.0
C744 C 0.03195 0.363 0.38809 0.0
C745 C 0.00708 0.35562 0.41791 0.0
C746 C 0.03304 0.37319 0.40617 0.0
N747 N 0.02067 0.36933 0.42058 0.0
C748 C 0.99163 0.29167 0.33013 0.0
C749 C 0.98402 0.30239 0.36147 0.0
C750 C 0.97767 0.27752 0.33174 0.0
N751 N 0.99449 0.30376 0.34481 0.0
C752 C 0.96998 0.28842 0.36386 0.0
C753 C 0.96659 0.27573 0.3488 0.0
H754 H 1.00015 0.29309 0.31697 0.0
H755 H 0.98659 0.31217 0.37291 0.0
C756 C 0.02614 0.37743 0.31492 0.0
N757 N 0.0182 0.36623 0.33132 0.0
C758 C 0.02276 0.38937 0.3115 0.0
C759 C 0.00297 0.37792 0.34166 0.0
C760 C 0.00664 0.36614 0.34435 0.0
C761 C 0.01107 0.38978 0.32505 0.0
H762 H 0.03508 0.37704 0.30448 0.0
H763 H 1.00019 0.35687 0.35678 0.0
O764 O 0.03232 0.32176 0.34326 0.0
O765 O 0.04536 0.35612 0.33326 0.0
O766 O 0.01538 0.33394 0.31026 0.0
O767 O 0.01665 0.33877 0.36708 0.0
H768 H 0.02369 0.31552 0.38812 0.0
H769 H 0.03108 0.29694 0.32338 0.0
H770 H 0.01562 0.29023 0.40764 0.0
H771 H 0.02281 0.27193 0.34401 0.0
H772 H 0.07659 0.40822 0.34636 0.0
H773 H 0.07193 0.35892 0.31792 0.0
H774 H 0.05088 0.38413 0.34731 0.0
H775 H 0.09726 0.38349 0.31741 0.0
H776 H 0.07537 0.32273 0.29412 0.0
H777 H 0.05948 0.33946 0.23566 0.0
H778 H 0.0603 0.34801 0.44295 0.0
H779 H 0.08916 0.35106 0.3835 0.0
H780 H 0.98918 0.33261 0.32345 0.0
H781 H 0.00926 0.31379 0.27523 0.0
H782 H 0.96312 0.31472 0.30589 0.0
H783 H 0.98284 0.29624 0.25846 0.0
H784 H 0.99471 0.33425 0.39791 0.0
H785 H 0.04186 0.3659 0.37707 0.0
H786 H 0.99743 0.35287 0.42965 0.0
H787 H 0.04374 0.38414 0.40881 0.0
H788 H 0.97554 0.26815 0.31958 0.0
H789 H 0.96198 0.28753 0.37762 0.0
H790 H 0.02906 0.39802 0.29806 0.0
H791 H 0.99391 0.37774 0.35257 0.0
Li792 Li 0.68461 0.99195 0.33132 0.0
Li793 Li 0.67206 0.96867 0.35478 0.0
Li794 Li 0.66928 0.96689 0.31215 0.0
Li795 Li 0.65683 0.97823 0.33469 0.0
C796 C 0.70246 0.97854 0.342 0.0
N797 N 0.7306 0.98712 0.36405 0.0
C798 C 0.70666 0.98742 0.36292 0.0
C799 C 0.71256 0.97403 0.3323 0.0
C800 C 0.72094 0.99164 0.37379 0.0
C801 C 0.72673 0.97847 0.34372 0.0
C802 C 0.66459 0.98764 0.38169 0.0
C803 C 0.64535 0.97235 0.41107 0.0
N804 N 0.64916 0.98558 0.42353 0.0
C805 C 0.66833 1.00107 0.39485 0.0
C806 C 0.653 0.97315 0.3899 0.0
C807 C 0.66039 0.9998 0.41592 0.0
C808 C 0.70329 0.02325 0.3443 0.0
N809 N 0.70288 0.01203 0.32992 0.0
C810 C 0.72918 0.02909 0.318 0.0
C811 C 0.71541 0.01468 0.31672 0.0
C812 C 0.73022 0.04075 0.33353 0.0
C813 C 0.7169 0.03768 0.34656 0.0
H814 H 0.69319 0.0208 0.35467 0.0
H815 H 0.71493 0.00549 0.30572 0.0
C816 C 0.67196 0.94297 0.37154 0.0
N817 N 0.67404 0.95684 0.37955 0.0
C818 C 0.67379 0.93302 0.38687 0.0
C819 C 0.67947 0.95161 0.41873 0.0
C820 C 0.67786 0.96141 0.4026 0.0
C821 C 0.67756 0.93732 0.41072 0.0
H822 H 0.66908 0.93977 0.35305 0.0
H823 H 0.67982 0.97266 0.40839 0.0
C824 C 0.67709 0.99259 0.28412 0.0
N825 N 0.69291 0.00475 0.24219 0.0
C826 C 0.67363 0.00207 0.27007 0.0
C827 C 0.68861 0.9893 0.27676 0.0
C828 C 0.68176 0.00811 0.24896 0.0
C829 C 0.69647 0.99555 0.25554 0.0
C830 C 0.63885 0.94643 0.32552 0.0
C831 C 0.63365 0.95089 0.30556 0.0
C832 C 0.62971 0.93151 0.33478 0.0
C833 C 0.61936 0.94031 0.29516 0.0
C834 C 0.61548 0.92126 0.32387 0.0
N835 N 0.61064 0.92583 0.30445 0.0
C836 C 0.67327 0.94355 0.29269 0.0
C837 C 0.65927 0.95106 0.26688 0.0
C838 C 0.67126 0.93173 0.27705 0.0
N839 N 0.66721 0.95282 0.28747 0.0
C840 C 0.65684 0.93925 0.25079 0.0
C841 C 0.66277 0.92933 0.25593 0.0
H842 H 0.67937 0.94512 0.30934 0.0
H843 H 0.65456 0.9586 0.26319 0.0
C844 C 0.63777 0.98998 0.31966 0.0
N845 N 0.63866 0.98027 0.33567 0.0
C846 C 0.6242 0.99086 0.31752 0.0
C847 C 0.613 0.97242 0.34947 0.0
C848 C 0.62661 0.97153 0.35044 0.0
C849 C 0.61144 0.98191 0.33245 0.0
H850 H 0.64743 0.99667 0.30795 0.0
H851 H 0.62733 0.9635 0.36253 0.0
O852 O 0.68857 0.97427 0.33089 0.0
O853 O 0.6724 0.98877 0.3611 0.0
O854 O 0.6691 0.98654 0.30479 0.0
O855 O 0.65276 0.95658 0.33617 0.0
H856 H 0.69904 0.99105 0.3707 0.0
H857 H 0.70948 0.96717 0.3161 0.0
H858 H 0.72435 0.99852 0.38996 0.0
H859 H 0.73467 0.97506 0.33641 0.0
H860 H 0.63636 0.9612 0.41757 0.0
H861 H 0.67728 0.0124 0.3889 0.0
H862 H 0.64989 0.96259 0.38008 0.0
H863 H 0.66318 0.01011 0.42624 0.0
H864 H 0.73897 0.03089 0.30728 0.0
H865 H 0.71707 0.04602 0.35918 0.0
H866 H 0.67225 0.92206 0.3802 0.0
H867 H 0.68254 0.95527 0.43706 0.0
H868 H 0.66476 0.00476 0.27536 0.0
H869 H 0.69156 0.98206 0.28728 0.0
H870 H 0.67919 0.01546 0.23795 0.0
H871 H 0.70541 0.9931 0.2497 0.0
H872 H 0.64056 0.96239 0.29814 0.0
H873 H 0.63358 0.92791 0.35026 0.0
H874 H 0.6152 0.94361 0.27971 0.0
H875 H 0.60827 0.90967 0.33084 0.0
H876 H 0.67589 0.92426 0.28177 0.0
H877 H 0.65037 0.93787 0.23454 0.0
H878 H 0.62362 0.99806 0.30365 0.0
H879 H 0.60373 0.96547 0.36171 0.0
Li880 Li 0.04173 0.70526 0.36883 0.0
Li881 Li 0.01511 0.69309 0.34662 0.0
Li882 Li 0.03213 0.68197 0.34409 0.0
Li883 Li 0.03986 0.70611 0.32565 0.0
C884 C 0.01968 0.67205 0.3863 0.0
N885 N 0.01474 0.64605 0.41116 0.0
C886 C 0.00672 0.65751 0.38108 0.0
C887 C 0.03004 0.67342 0.40429 0.0
C888 C 0.00446 0.64449 0.3938 0.0
C889 C 0.02735 0.66012 0.41664 0.0
C890 C 0.03662 0.72956 0.34091 0.0
C891 C 0.03287 0.74625 0.31398 0.0
N892 N 0.0467 0.75852 0.32131 0.0
C893 C 0.05074 0.74235 0.3483 0.0
C894 C 0.02756 0.73151 0.32371 0.0
C895 C 0.05565 0.75689 0.33813 0.0
C896 C 0.06953 0.72441 0.39317 0.0
N897 N 0.05379 0.71768 0.39478 0.0
C898 C 0.05628 0.73268 0.42954 0.0
C899 C 0.04702 0.72141 0.41262 0.0
C900 C 0.07262 0.74017 0.42795 0.0
C901 C 0.07921 0.73567 0.40972 0.0
H902 H 0.07458 0.72155 0.37838 0.0
H903 H 0.03447 0.71606 0.41316 0.0
C904 C 0.98237 0.67414 0.34487 0.0
N905 N 0.99423 0.68892 0.34878 0.0
C906 C 0.9669 0.67064 0.3468 0.0
C907 C 0.97617 0.69775 0.35604 0.0
C908 C 0.99145 0.70067 0.35423 0.0
C909 C 0.96366 0.68254 0.3525 0.0
H910 H 0.98494 0.66506 0.34032 0.0
H911 H 1.00112 0.7123 0.3574 0.0
C912 C 0.06284 0.69613 0.3351 0.0
N913 N 0.08203 0.68627 0.31573 0.0
C914 C 0.06219 0.69301 0.31079 0.0
C915 C 0.0733 0.69433 0.34957 0.0
C916 C 0.07197 0.68802 0.30132 0.0
C917 C 0.08289 0.6893 0.33944 0.0
C918 C 0.01647 0.68554 0.29509 0.0
C919 C 0.02223 0.68018 0.27696 0.0
C920 C 0.00581 0.69041 0.28958 0.0
C921 C 0.01744 0.68003 0.25356 0.0
C922 C 1.00128 0.69006 0.26596 0.0
N923 N 0.00715 0.68494 0.24859 0.0
C924 C 0.02237 0.65233 0.32422 0.0
C925 C 0.04051 0.65894 0.35578 0.0
C926 C 0.02185 0.63812 0.32082 0.0
N927 N 0.03171 0.66246 0.3413 0.0
C928 C 0.04028 0.6448 0.35312 0.0
C929 C 0.03093 0.63418 0.33531 0.0
H930 H 0.01539 0.65534 0.31306 0.0
H931 H 0.04773 0.66712 0.36941 0.0
C932 C 0.06692 0.73051 0.30756 0.0
N933 N 0.05175 0.72084 0.30137 0.0
C934 C 0.07678 0.74275 0.29283 0.0
C935 C 0.05532 0.73486 0.26533 0.0
C936 C 0.04581 0.72283 0.28073 0.0
C937 C 0.07101 0.74505 0.2714 0.0
H938 H 0.07129 0.72893 0.32431 0.0
H939 H 0.03366 0.71544 0.27641 0.0
O940 O 0.02229 0.68489 0.37376 0.0
O941 O 0.03187 0.71513 0.35009 0.0
O942 O 0.05313 0.70072 0.34478 0.0
O943 O 0.02086 0.68554 0.31815 0.0
H944 H 0.99863 0.65626 0.36714 0.0
H945 H 0.04014 0.6846 0.4085 0.0
H946 H 0.99456 0.63313 0.38983 0.0
H947 H 0.03532 0.66097 0.43053 0.0
H948 H 0.02603 0.74791 0.30053 0.0
H949 H 0.05793 0.74102 0.36152 0.0
H950 H 0.01664 0.72173 0.31772 0.0
H951 H 0.06661 0.76686 0.34355 0.0
H952 H 0.05072 0.73568 0.44346 0.0
H953 H 0.09173 0.74129 0.40762 0.0
H954 H 0.95757 0.65879 0.34383 0.0
H955 H 0.97416 0.70719 0.36079 0.0
H956 H 0.0542 0.6944 0.29935 0.0
H957 H 0.07387 0.69659 0.36847 0.0
H958 H 0.07156 0.68552 0.28253 0.0
H959 H 0.09098 0.68777 0.35044 0.0
H960 H 0.03025 0.67607 0.28091 0.0
H961 H 1.00115 0.69453 0.3033 0.0
H962 H 0.02185 0.67596 0.23936 0.0
H963 H 0.99311 0.69387 0.26144 0.0
H964 H 0.01466 0.63049 0.3066 0.0
H965 H 0.04731 0.64221 0.36493 0.0
H966 H 0.08883 0.75024 0.29809 0.0
H967 H 0.05036 0.73638 0.24908 0.0
Li968 Li 0.30392 0.34027 0.36333 0.0
Li969 Li 0.31212 0.32262 0.34551 0.0
Li970 Li 0.32655 0.35093 0.3359 0.0
Li971 Li 0.3002 0.33327 0.32003 0.0
C972 C 0.33106 0.34833 0.38829 0.0
N973 N 0.34518 0.36387 0.43004 0.0
C974 C 0.33353 0.34046 0.4068 0.0
C975 C 0.33585 0.36413 0.39099 0.0
C976 C 0.34067 0.34851 0.42778 0.0
C977 C 0.34296 0.37178 0.41222 0.0
C978 C 0.28288 0.30515 0.35784 0.0
C979 C 0.26943 0.27716 0.35398 0.0
N980 N 0.26751 0.27591 0.37792 0.0
C981 C 0.28072 0.3036 0.38239 0.0
C982 C 0.27713 0.29184 0.34348 0.0
C983 C 0.27293 0.28871 0.3922 0.0
C984 C 0.28084 0.34507 0.381 0.0
N985 N 0.29367 0.3446 0.38841 0.0
C986 C 0.28988 0.35039 0.42827 0.0
C987 C 0.29818 0.34697 0.41162 0.0
C988 C 0.27662 0.35099 0.42104 0.0
C989 C 0.27203 0.34816 0.39711 0.0
H990 H 0.27746 0.34304 0.36247 0.0
H991 H 0.3081 0.34611 0.41738 0.0
C992 C 0.31892 0.29897 0.33268 0.0
N993 N 0.31479 0.30506 0.35107 0.0
C994 C 0.32145 0.28647 0.33632 0.0
C995 C 0.31553 0.2868 0.37782 0.0
C996 C 0.31305 0.29924 0.37335 0.0
C997 C 0.31989 0.28032 0.35918 0.0
H998 H 0.32052 0.30396 0.31523 0.0
H999 H 0.30981 0.3043 0.38769 0.0
C1000 C 0.31233 0.36912 0.33184 0.0
N1001 N 0.32051 0.39982 0.32457 0.0
C1002 C 0.31399 0.37486 0.3088 0.0
C1003 C 0.31455 0.37892 0.35119 0.0
C1004 C 0.31822 0.39043 0.30548 0.0
C1005 C 0.31875 0.39442 0.34715 0.0
C1006 C 0.31805 0.32918 0.29036 0.0
C1007 C 0.32788 0.34022 0.27394 0.0
C1008 C 0.30635 0.31456 0.28238 0.0
C1009 C 0.32573 0.3365 0.24974 0.0
C1010 C 0.30456 0.31129 0.25805 0.0
N1011 N 0.3142 0.32224 0.24236 0.0
C1012 C 0.35863 0.36984 0.34552 0.0
C1013 C 0.35067 0.37773 0.31127 0.0
C1014 C 0.37395 0.38186 0.34278 0.0
N1015 N 0.34724 0.36815 0.33023 0.0
C1016 C 0.36603 0.38958 0.30724 0.0
C1017 C 0.37803 0.39187 0.32319 0.0
H1018 H 0.35594 0.36172 0.35983 0.0
H1019 H 0.34161 0.37591 0.29878 0.0
C1020 C 0.27012 0.31845 0.3013 0.0
N1021 N 0.28509 0.32881 0.29538 0.0
C1022 C 0.25793 0.315 0.28551 0.0
C1023 C 0.27668 0.33291 0.25756 0.0
C1024 C 0.28857 0.33602 0.27395 0.0
C1025 C 0.26108 0.32232 0.26334 0.0
H1026 H 0.26757 0.31308 0.31857 0.0
H1027 H 0.30052 0.34428 0.26963 0.0
O1028 O 0.32405 0.34061 0.36764 0.0
O1029 O 0.29074 0.31963 0.34793 0.0
O1030 O 0.30809 0.35387 0.33541 0.0
O1031 O 0.31989 0.33265 0.31412 0.0
H1032 H 0.33001 0.32827 0.405 0.0
H1033 H 0.33424 0.37045 0.37675 0.0
H1034 H 0.34262 0.34255 0.44227 0.0
H1035 H 0.34673 0.384 0.41452 0.0
H1036 H 0.26499 0.26676 0.3431 0.0
H1037 H 0.28517 0.31377 0.39378 0.0
H1038 H 0.27867 0.29284 0.32444 0.0
H1039 H 0.27124 0.28733 0.41119 0.0
H1040 H 0.29361 0.35226 0.44669 0.0
H1041 H 0.26187 0.34853 0.3909 0.0
H1042 H 0.32499 0.28197 0.32153 0.0
H1043 H 0.31404 0.2823 0.39569 0.0
H1044 H 0.31222 0.36741 0.29363 0.0
H1045 H 0.31296 0.3746 0.36915 0.0
H1046 H 0.31969 0.39506 0.28773 0.0
H1047 H 0.32057 0.40215 0.36197 0.0
H1048 H 0.3371 0.35152 0.27978 0.0
H1049 H 0.29864 0.30589 0.29485 0.0
H1050 H 0.33323 0.34495 0.23683 0.0
H1051 H 0.29549 0.30006 0.25163 0.0
H1052 H 0.38244 0.38309 0.356 0.0
H1053 H 0.3684 0.39652 0.29142 0.0
H1054 H 0.24609 0.30697 0.29093 0.0
H1055 H 0.27967 0.33872 0.24057 0.0
Li1056 Li 0.32164 0.01308 0.67701 0.0
Li1057 Li 0.35003 0.02681 0.67861 0.0
Li1058 Li 0.33502 0.03632 0.70074 0.0
Li1059 Li 0.33706 0.03848 0.65775 0.0
C1060 C 0.33685 0.01701 0.72895 0.0
N1061 N 0.34085 0.01961 0.77765 0.0
C1062 C 0.35146 0.0216 0.73896 0.0
C1063 C 0.32427 0.01372 0.74369 0.0
C1064 C 0.35324 0.02284 0.76363 0.0
C1065 C 0.32654 0.01512 0.76827 0.0
C1066 C 0.34278 0.0116 0.63748 0.0
C1067 C 0.36293 0.01292 0.61204 0.0
N1068 N 0.35662 0.99723 0.61382 0.0
C1069 C 0.33645 0.99547 0.63896 0.0
C1070 C 0.35608 0.02039 0.62381 0.0
C1071 C 0.34363 0.98843 0.62689 0.0
C1072 C 0.29708 0.98804 0.6521 0.0
N1073 N 0.30365 0.99285 0.67397 0.0
C1074 C 0.28546 0.9682 0.69055 0.0
C1075 C 0.29809 0.98333 0.69308 0.0
C1076 C 0.27855 0.96278 0.66808 0.0
C1077 C 0.28448 0.97301 0.64873 0.0
H1078 H 0.30188 0.9958 0.63715 0.0
H1079 H 0.30361 0.9874 0.71024 0.0
C1080 C 0.38235 0.03588 0.68015 0.0
N1081 N 0.36749 0.02368 0.67984 0.0
C1082 C 0.39491 0.03329 0.68267 0.0
C1083 C 0.37663 0.00563 0.68419 0.0
C1084 C 0.36446 0.00877 0.68187 0.0
C1085 C 0.39212 0.01799 0.68499 0.0
H1086 H 0.38445 0.04765 0.6792 0.0
H1087 H 0.35253 0.99931 0.68218 0.0
C1088 C 0.30287 0.0239 0.67184 0.0
N1089 N 0.27166 0.00763 0.65953 0.0
C1090 C 0.29825 0.02386 0.64836 0.0
C1091 C 0.29163 0.01571 0.68908 0.0
C1092 C 0.2824 0.01557 0.64249 0.0
C1093 C 0.27591 0.00753 0.68249 0.0
C1094 C 0.36325 0.06284 0.67309 0.0
C1095 C 0.36226 0.07536 0.68265 0.0
C1096 C 0.37312 0.06532 0.65393 0.0
C1097 C 0.3711 0.09013 0.67276 0.0
C1098 C 0.38175 0.08027 0.6445 0.0
N1099 N 0.38057 0.09226 0.65403 0.0
C1100 C 0.34872 0.05678 0.73947 0.0
C1101 C 0.3224 0.0496 0.73184 0.0
C1102 C 0.35032 0.06828 0.75549 0.0
N1103 N 0.33504 0.04804 0.72758 0.0
C1104 C 0.32344 0.06085 0.74796 0.0
C1105 C 0.33771 0.07071 0.75936 0.0
H1106 H 0.35866 0.05547 0.73536 0.0
H1107 H 0.31179 0.04274 0.72176 0.0
C1108 C 0.34256 0.05171 0.61069 0.0
N1109 N 0.33833 0.05231 0.63343 0.0
C1110 C 0.34473 0.06338 0.59469 0.0
C1111 C 0.33802 0.07583 0.62582 0.0
C1112 C 0.33564 0.06379 0.64099 0.0
C1113 C 0.34276 0.07575 0.60248 0.0
H1114 H 0.34455 0.04241 0.60513 0.0
H1115 H 0.33213 0.06384 0.65914 0.0
O1116 O 0.33492 0.01602 0.70483 0.0
O1117 O 0.33606 0.01875 0.64944 0.0
O1118 O 0.31834 0.03156 0.67781 0.0
O1119 O 0.35435 0.04818 0.68209 0.0
H1120 H 0.36134 0.02428 0.72783 0.0
H1121 H 0.31293 0.01035 0.73621 0.0
H1122 H 0.36448 0.02641 0.77163 0.0
H1123 H 0.31693 0.0127 0.77989 0.0
H1124 H 0.37327 0.0196 0.60151 0.0
H1125 H 0.32625 0.98848 0.64959 0.0
H1126 H 0.36112 0.03286 0.62242 0.0
H1127 H 0.33892 0.97598 0.62801 0.0
H1128 H 0.28121 0.96081 0.706 0.0
H1129 H 0.27978 0.96931 0.63099 0.0
H1130 H 0.40661 0.0432 0.68371 0.0
H1131 H 0.37389 0.99364 0.68571 0.0
H1132 H 0.3068 0.03002 0.63475 0.0
H1133 H 0.29504 0.01547 0.70728 0.0
H1134 H 0.27865 0.01538 0.62437 0.0
H1135 H 0.26709 1.00105 0.69561 0.0
H1136 H 0.35453 0.07366 0.69724 0.0
H1137 H 0.37398 0.05578 0.64621 0.0
H1138 H 0.37036 0.09989 0.67988 0.0
H1139 H 0.38935 0.08232 0.62957 0.0
H1140 H 0.36148 0.07559 0.76411 0.0
H1141 H 0.31349 0.06245 0.75035 0.0
H1142 H 0.34836 0.06302 0.57669 0.0
H1143 H 0.33629 0.08516 0.63228 0.0
Li1144 Li 0.99033 0.30697 0.6675 0.0
Li1145 Li 0.97632 0.32077 0.67634 0.0
Li1146 Li 0.96783 0.29486 0.6931 0.0
Li1147 Li 0.96412 0.29817 0.65126 0.0
C1148 C 1.00205 0.32084 0.70886 0.0
N1149 N 0.03203 0.33385 0.72678 0.0
C1150 C 0.01154 0.33703 0.71036 0.0
C1151 C 0.00779 0.31128 0.71654 0.0
C1152 C 0.02666 0.34338 0.71948 0.0
C1153 C 0.02299 0.31807 0.72549 0.0
C1154 C 0.98306 0.31817 0.62106 0.0
C1155 C 0.97152 0.32088 0.58492 0.0
N1156 N 0.98067 0.31694 0.57212 0.0
C1157 C 0.99236 0.31418 0.60756 0.0
C1158 C 0.97258 0.32159 0.60968 0.0
C1159 C 0.99097 0.31362 0.58283 0.0
C1160 C 0.01265 0.29751 0.65781 0.0
N1161 N 0.01059 0.30994 0.6613 0.0
C1162 C 0.03793 0.32756 0.65717 0.0
C1163 C 0.02281 0.32478 0.6606 0.0
C1164 C 0.04047 0.31495 0.65392 0.0
C1165 C 0.02757 0.29976 0.65406 0.0
H1166 H 0.00272 0.28586 0.65789 0.0
H1167 H 0.02079 0.33446 0.66286 0.0
C1168 C 0.97896 0.34524 0.70535 0.0
N1169 N 0.97865 0.34076 0.68242 0.0
C1170 C 0.98059 0.35975 0.71057 0.0
C1171 C 0.98137 0.36474 0.66849 0.0
C1172 C 0.97982 0.35015 0.66408 0.0
C1173 C 0.9819 0.36974 0.692 0.0
H1174 H 0.97799 0.33752 0.71958 0.0
H1175 H 0.97963 0.34634 0.64603 0.0
C1176 C 0.96608 0.2705 0.67206 0.0
N1177 N 0.95219 0.24015 0.68794 0.0
C1178 C 0.95058 0.2599 0.66611 0.0
C1179 C 0.97452 0.26566 0.68609 0.0
C1180 C 0.94377 0.24461 0.6743 0.0
C1181 C 0.96728 0.25027 0.69394 0.0
C1182 C 0.94754 0.31005 0.68787 0.0
C1183 C 0.9455 0.31013 0.71241 0.0
C1184 C 0.94282 0.31825 0.67312 0.0
C1185 C 0.9387 0.31837 0.72178 0.0
C1186 C 0.9361 0.32639 0.68319 0.0
N1187 N 0.93419 0.32627 0.7071 0.0
C1188 C 0.96516 0.27744 0.73551 0.0
C1189 C 0.94166 0.27238 0.71659 0.0
C1190 C 0.95684 0.26551 0.75176 0.0
N1191 N 0.95747 0.28051 0.71823 0.0
C1192 C 0.93289 0.26058 0.73266 0.0
C1193 C 0.94049 0.25692 0.75035 0.0
H1194 H 0.97773 0.28394 0.73632 0.0
H1195 H 0.93586 0.27487 0.7024 0.0
C1196 C 0.95401 0.27986 0.60962 0.0
N1197 N 0.95015 0.28764 0.62562 0.0
C1198 C 0.94325 0.27036 0.59235 0.0
C1199 C 0.92486 0.27731 0.60805 0.0
C1200 C 0.93596 0.28662 0.62509 0.0
C1201 C 0.92835 0.26882 0.59158 0.0
H1202 H 0.96525 0.2806 0.61084 0.0
H1203 H 0.93306 0.29264 0.63834 0.0
O1204 O 0.98727 0.31441 0.69969 0.0
O1205 O 0.98403 0.31851 0.64531 0.0
O1206 O 0.9728 0.28565 0.66483 0.0
O1207 O 0.95456 0.30239 0.6784 0.0
H1208 H 0.00737 0.34463 0.7043 0.0
H1209 H 1.00073 0.29875 0.7151 0.0
H1210 H 0.03415 0.35588 0.72067 0.0
H1211 H 0.02762 0.31081 0.7313 0.0
H1212 H 0.96339 0.32338 0.57588 0.0
H1213 H 1.00048 0.31143 0.61605 0.0
H1214 H 0.96512 0.32448 0.61986 0.0
H1215 H 0.99807 0.3105 0.57215 0.0
H1216 H 0.04751 0.33946 0.65667 0.0
H1217 H 0.02901 0.28972 0.65155 0.0
H1218 H 0.98077 0.36309 0.72896 0.0
H1219 H 0.98251 0.37216 0.65369 0.0
H1220 H 0.94377 0.26346 0.6556 0.0
H1221 H 0.98642 0.27377 0.69127 0.0
H1222 H 0.93176 0.2363 0.66992 0.0
H1223 H 0.97364 0.24641 0.70495 0.0
H1224 H 0.94935 0.30412 0.72415 0.0
H1225 H 0.9446 0.3186 0.65415 0.0
H1226 H 0.9371 0.31858 0.74074 0.0
H1227 H 0.93249 0.33287 0.67201 0.0
H1228 H 0.96308 0.26305 0.76529 0.0
H1229 H 0.92031 0.25411 0.73089 0.0
H1230 H 0.94639 0.26383 0.58035 0.0
H1231 H 0.91361 0.27662 0.608 0.0
Li1232 Li 0.69522 0.68115 0.67161 0.0
Li1233 Li 0.68132 0.65392 0.67728 0.0
Li1234 Li 0.70638 0.66986 0.69683 0.0
Li1235 Li 0.70551 0.66446 0.65397 0.0
C1236 C 0.67957 0.678 0.71003 0.0
N1237 N 0.6654 0.69459 0.72452 0.0
C1238 C 0.66604 0.67577 0.69864 0.0
C1239 C 0.68585 0.68865 0.72888 0.0
C1240 C 0.65907 0.68427 0.70618 0.0
C1241 C 0.67852 0.69692 0.73593 0.0
C1242 C 0.6738 0.65464 0.63191 0.0
C1243 C 0.66273 0.63367 0.60314 0.0
N1244 N 0.64905 0.63373 0.60396 0.0
C1245 C 0.65968 0.6546 0.63226 0.0
C1246 C 0.67539 0.64418 0.61709 0.0
C1247 C 0.64729 0.6439 0.61809 0.0
C1248 C 0.70067 0.71148 0.68184 0.0
N1249 N 0.6938 0.69943 0.66611 0.0
C1250 C 0.68493 0.71351 0.64257 0.0
C1251 C 0.68601 0.70019 0.64672 0.0
C1252 C 0.69186 0.72614 0.65864 0.0
C1253 C 0.69969 0.72489 0.67861 0.0
H1254 H 0.7068 0.71066 0.69709 0.0
H1255 H 0.68077 0.69051 0.63434 0.0
C1256 C 0.65788 0.62268 0.66699 0.0
N1257 N 0.66145 0.63536 0.68075 0.0
C1258 C 0.64374 0.60884 0.66984 0.0
C1259 C 0.63738 0.62117 0.70151 0.0
C1260 C 0.65161 0.63477 0.69799 0.0
C1261 C 0.63325 0.60794 0.68733 0.0
H1262 H 0.66615 0.62321 0.65406 0.0
H1263 H 0.65496 0.64471 0.70947 0.0
C1264 C 0.73162 0.69446 0.67875 0.0
N1265 N 0.76159 0.7132 0.69587 0.0
C1266 C 0.74421 0.69463 0.66737 0.0
C1267 C 0.73429 0.70394 0.69871 0.0
C1268 C 0.75927 0.70417 0.67631 0.0
C1269 C 0.74952 0.71328 0.70714 0.0
C1270 C 0.69422 0.6369 0.69403 0.0
C1271 C 0.689 0.63669 0.71712 0.0
C1272 C 0.69422 0.62377 0.68494 0.0
C1273 C 0.68394 0.62332 0.73081 0.0
C1274 C 0.68906 0.61062 0.6992 0.0
N1275 N 0.68407 0.61067 0.72164 0.0
C1276 C 0.71856 0.67629 0.74496 0.0
C1277 C 0.73171 0.66952 0.7164 0.0
C1278 C 0.72971 0.67858 0.76221 0.0
N1279 N 0.71991 0.67206 0.72251 0.0
C1280 C 0.74312 0.67174 0.73298 0.0
C1281 C 0.74227 0.67643 0.7562 0.0
H1282 H 0.70893 0.67795 0.74947 0.0
H1283 H 0.73236 0.66597 0.69845 0.0
C1284 C 0.71909 0.66676 0.60817 0.0
N1285 N 0.71743 0.66134 0.6307 0.0
C1286 C 0.72926 0.66531 0.59258 0.0
C1287 C 0.7357 0.65274 0.62373 0.0
C1288 C 0.72536 0.65434 0.63861 0.0
C1289 C 0.73787 0.65839 0.60045 0.0
H1290 H 0.71278 0.67248 0.60251 0.0
H1291 H 0.72395 0.65034 0.65674 0.0
O1292 O 0.68671 0.66996 0.70254 0.0
O1293 O 0.68605 0.66494 0.6458 0.0
O1294 O 0.71676 0.68496 0.67048 0.0
O1295 O 0.69885 0.6497 0.68006 0.0
H1296 H 0.66104 0.66762 0.68401 0.0
H1297 H 0.69643 0.69078 0.7377 0.0
H1298 H 0.64863 0.68268 0.69742 0.0
H1299 H 0.68333 0.70527 0.75039 0.0
H1300 H 0.66377 0.62542 0.59174 0.0
H1301 H 0.6583 0.66277 0.64331 0.0
H1302 H 0.6862 0.64399 0.61662 0.0
H1303 H 0.63628 0.64369 0.61828 0.0
H1304 H 0.67901 0.714 0.62668 0.0
H1305 H 0.70499 0.73415 0.69172 0.0
H1306 H 0.6411 0.59894 0.65855 0.0
H1307 H 0.62991 0.6209 0.71571 0.0
H1308 H 0.7424 0.68748 0.65181 0.0
H1309 H 0.72469 0.70372 0.70805 0.0
H1310 H 0.76911 0.70438 0.66772 0.0
H1311 H 0.75172 0.72051 0.72275 0.0
H1312 H 0.68872 0.64667 0.72434 0.0
H1313 H 0.69808 0.6237 0.667 0.0
H1314 H 0.67985 0.62298 0.7487 0.0
H1315 H 0.68898 0.60036 0.69239 0.0
H1316 H 0.72861 0.68216 0.77995 0.0
H1317 H 0.75239 0.66961 0.72772 0.0
H1318 H 0.73072 0.66996 0.57483 0.0
H1319 H 0.74197 0.6472 0.63043 0.0
Li1320 Li 0.34827 0.32093 0.67607 0.0
Li1321 Li 0.33073 0.29526 0.69385 0.0
Li1322 Li 0.33552 0.29784 0.65008 0.0
Li1323 Li 0.31928 0.30725 0.66862 0.0
C1324 C 0.36582 0.30627 0.67681 0.0
N1325 N 0.39706 0.31518 0.67753 0.0
C1326 C 0.37225 0.30294 0.69649 0.0
C1327 C 0.37523 0.31396 0.65738 0.0
C1328 C 0.38809 0.30759 0.69654 0.0
C1329 C 0.39101 0.31841 0.65811 0.0
C1330 C 0.32917 0.31666 0.72297 0.0
C1331 C 0.31274 0.31252 0.75684 0.0
N1332 N 0.32559 0.3194 0.77109 0.0
C1333 C 0.34222 0.32386 0.73791 0.0
C1334 C 0.31431 0.31108 0.73246 0.0
C1335 C 0.34017 0.32506 0.7622 0.0
C1336 C 0.36728 0.35354 0.67037 0.0
N1337 N 0.36631 0.34091 0.68138 0.0
C1338 C 0.39016 0.35706 0.70225 0.0
C1339 C 0.37747 0.34242 0.697 0.0
C1340 C 0.39129 0.37041 0.69171 0.0
C1341 C 0.37975 0.36848 0.67527 0.0
H1342 H 0.35814 0.35204 0.65823 0.0
H1343 H 0.37632 0.33232 0.70598 0.0
C1344 C 0.31709 0.26597 0.71556 0.0
N1345 N 0.32768 0.28129 0.71923 0.0
C1346 C 0.31542 0.2548 0.73201 0.0
C1347 C 0.33585 0.27523 0.7557 0.0
C1348 C 0.33699 0.28607 0.73886 0.0
C1349 C 0.32504 0.2593 0.75226 0.0
H1350 H 0.31026 0.26226 0.69944 0.0
H1351 H 0.34579 0.29818 0.74096 0.0
C1352 C 0.33956 0.32198 0.62219 0.0
N1353 N 0.34526 0.32915 0.5746 0.0
C1354 C 0.32716 0.31729 0.60621 0.0
C1355 C 0.35486 0.33057 0.61403 0.0
C1356 C 0.33027 0.32094 0.5822 0.0
C1357 C 0.35751 0.33402 0.58989 0.0
C1358 C 0.29996 0.27546 0.66772 0.0
C1359 C 0.29249 0.26556 0.64838 0.0
C1360 C 0.29129 0.27484 0.68761 0.0
C1361 C 0.2764 0.25539 0.64911 0.0
C1362 C 0.27523 0.26452 0.68767 0.0
N1363 N 0.26817 0.2551 0.66857 0.0
C1364 C 0.34664 0.28026 0.62676 0.0
C1365 C 0.32657 0.28164 0.60589 0.0
C1366 C 0.34588 0.26907 0.61087 0.0
N1367 N 0.33697 0.28619 0.62418 0.0
C1368 C 0.3253 0.27033 0.5897 0.0
C1369 C 0.33481 0.26366 0.59243 0.0
H1370 H 0.35432 0.28347 0.64195 0.0
H1371 H 0.3186 0.28605 0.6047 0.0
C1372 C 0.30032 0.32066 0.67767 0.0
N1373 N 0.30172 0.30997 0.66427 0.0
C1374 C 0.28713 0.32226 0.67536 0.0
C1375 C 0.27721 0.30193 0.64539 0.0
C1376 C 0.29067 0.30094 0.64796 0.0
C1377 C 0.27528 0.31261 0.65932 0.0
H1378 H 0.30939 0.32786 0.69027 0.0
H1379 H 0.29225 0.29289 0.63699 0.0
O1380 O 0.35038 0.302 0.67658 0.0
O1381 O 0.33096 0.31542 0.69911 0.0
O1382 O 0.33672 0.31852 0.64577 0.0
O1383 O 0.31566 0.28571 0.66717 0.0
H1384 H 0.36512 0.29692 0.71161 0.0
H1385 H 0.37036 0.31635 0.64187 0.0
H1386 H 0.39324 0.30517 0.71171 0.0
H1387 H 0.39843 0.3244 0.64322 0.0
H1388 H 0.3013 0.30821 0.76442 0.0
H1389 H 0.35379 0.32832 0.7309 0.0
H1390 H 0.30409 0.30582 0.72114 0.0
H1391 H 0.35017 0.33049 0.77399 0.0
H1392 H 0.39887 0.3579 0.71479 0.0
H1393 H 0.38002 0.37843 0.66694 0.0
H1394 H 0.30681 0.24272 0.72865 0.0
H1395 H 0.34378 0.27926 0.77073 0.0
H1396 H 0.31524 0.31078 0.61226 0.0
H1397 H 0.36461 0.33466 0.62622 0.0
H1398 H 0.32078 0.31727 0.56962 0.0
H1399 H 0.36929 0.34061 0.58333 0.0
H1400 H 0.29901 0.26576 0.63292 0.0
H1401 H 0.29694 0.28221 0.70286 0.0
H1402 H 0.27046 0.24772 0.63421 0.0
H1403 H 0.26838 0.26398 0.70292 0.0
H1404 H 0.35325 0.26404 0.61383 0.0
H1405 H 0.31664 0.26649 0.57564 0.0
H1406 H 0.28606 0.33071 0.68624 0.0
H1407 H 0.26846 0.29455 0.63245 0.0
Li1408 Li 0.68244 0.03421 0.67344 0.0
Li1409 Li 0.70793 0.04287 0.69218 0.0
Li1410 Li 0.70557 0.04456 0.64943 0.0
Li1411 Li 0.69562 0.01923 0.669 0.0
C1412 C 0.7068 0.06999 0.66612 0.0
N1413 N 0.72025 0.09943 0.64673 0.0
C1414 C 0.72148 0.08167 0.67394 0.0
C1415 C 0.69894 0.07332 0.64851 0.0
C1416 C 0.72808 0.09648 0.66392 0.0
C1417 C 0.70595 0.08826 0.6389 0.0
C1418 C 0.68802 0.02448 0.72265 0.0
C1419 C 0.6984 0.02268 0.76055 0.0
N1420 N 0.68951 0.02772 0.7715 0.0
C1421 C 0.67899 0.02966 0.73428 0.0
C1422 C 0.6978 0.02095 0.73587 0.0
C1423 C 0.6799 0.03121 0.75899 0.0
C1424 C 0.65054 0.01724 0.68186 0.0
N1425 N 0.66234 0.03194 0.67774 0.0
C1426 C 0.64515 0.04209 0.68283 0.0
C1427 C 0.65996 0.0443 0.67804 0.0
C1428 C 0.63275 0.02703 0.68744 0.0
C1429 C 0.63557 0.01449 0.68649 0.0
H1430 H 0.65284 0.00767 0.68198 0.0
H1431 H 0.66963 0.05592 0.67527 0.0
C1432 C 0.73497 0.05438 0.7213 0.0
N1433 N 0.72132 0.05427 0.71805 0.0
C1434 C 0.74588 0.06446 0.73797 0.0
C1435 C 0.7284 0.074 0.74778 0.0
C1436 C 0.71774 0.06359 0.73115 0.0
C1437 C 0.74279 0.0747 0.75104 0.0
H1438 H 0.73765 0.04708 0.71032 0.0
H1439 H 0.70688 0.06339 0.72794 0.0
C1440 C 0.67132 0.01891 0.63317 0.0
N1441 N 0.64176 0.00626 0.61372 0.0
C1442 C 0.66073 0.00297 0.63522 0.0
C1443 C 0.6669 0.02839 0.6211 0.0
C1444 C 0.64584 0.9968 0.62528 0.0
C1445 C 0.6519 0.02178 0.61145 0.0
C1446 C 0.72443 0.02856 0.65965 0.0
C1447 C 0.72684 0.02756 0.63543 0.0
C1448 C 0.72833 0.02044 0.67593 0.0
C1449 C 0.73314 0.01844 0.62788 0.0
C1450 C 0.73457 0.01142 0.66766 0.0
N1451 N 0.73682 0.01061 0.64401 0.0
C1452 C 0.73228 0.06789 0.62915 0.0
C1453 C 0.71111 0.05726 0.60187 0.0
C1454 C 0.74191 0.07884 0.6126 0.0
N1455 N 0.71716 0.05757 0.62371 0.0
C1456 C 0.72045 0.06791 0.58455 0.0
C1457 C 0.73601 0.07899 0.59 0.0
H1458 H 0.7368 0.06773 0.6466 0.0
H1459 H 0.69907 0.04885 0.59794 0.0
C1460 C 0.69122 0.99002 0.6848 0.0
N1461 N 0.69236 0.99864 0.66542 0.0
C1462 C 0.6891 0.97506 0.68209 0.0
C1463 C 0.68892 0.97797 0.63952 0.0
C1464 C 0.69126 0.99294 0.64305 0.0
C1465 C 0.68788 0.96886 0.6592 0.0
H1466 H 0.69203 0.99478 0.70237 0.0
H1467 H 0.69224 1.00007 0.62796 0.0
O1468 O 0.70031 0.05529 0.67526 0.0
O1469 O 0.68752 0.02317 0.69843 0.0
O1470 O 0.68587 0.02523 0.64313 0.0
O1471 O 0.71778 0.03699 0.66733 0.0
H1472 H 0.72785 0.07929 0.68729 0.0
H1473 H 0.68764 0.06441 0.64211 0.0
H1474 H 0.73947 0.10559 0.6697 0.0
H1475 H 0.70004 0.09096 0.62516 0.0
H1476 H 0.70599 0.02008 0.77098 0.0
H1477 H 0.67145 0.03257 0.72436 0.0
H1478 H 0.70509 0.01721 0.72715 0.0
H1479 H 0.67301 0.03523 0.76822 0.0
H1480 H 0.64358 0.05213 0.68378 0.0
H1481 H 0.62636 0.00265 0.68964 0.0
H1482 H 0.7569 0.06475 0.73986 0.0
H1483 H 0.72554 0.08162 0.75769 0.0
H1484 H 0.66386 0.99547 0.64471 0.0
H1485 H 0.67491 0.04074 0.6194 0.0
H1486 H 0.6375 0.98451 0.62687 0.0
H1487 H 0.6483 0.02901 0.60218 0.0
H1488 H 0.7237 0.0336 0.62255 0.0
H1489 H 0.72628 0.02085 0.6947 0.0
H1490 H 0.73501 0.01752 0.60918 0.0
H1491 H 0.73753 0.00497 0.68003 0.0
H1492 H 0.75392 0.087 0.61734 0.0
H1493 H 0.71551 0.06765 0.56726 0.0
H1494 H 0.68829 0.96836 0.69769 0.0
H1495 H 0.68823 0.97367 0.62158 0.0
Li1496 Li 0.96606 0.67117 0.69861 0.0
Li1497 Li 0.97549 0.65517 0.67936 0.0
Li1498 Li 0.99106 0.68384 0.67635 0.0
Li1499 Li 0.96634 0.66859 0.65437 0.0
C1500 C 0.99163 0.67857 0.72706 0.0
N1501 N 0.00357 0.69438 0.76947 0.0
C1502 C 0.99363 0.67097 0.74645 0.0
C1503 C 0.99577 0.69422 0.72926 0.0
C1504 C 0.99966 0.67916 0.76774 0.0
C1505 C 1.00178 0.70201 0.75082 0.0
C1506 C 0.94567 0.63714 0.68445 0.0
C1507 C 0.93161 0.60986 0.67394 0.0
N1508 N 0.92917 0.60618 0.69736 0.0
C1509 C 0.943 0.63311 0.70841 0.0
C1510 C 0.9399 0.62544 0.66705 0.0
C1511 C 0.93464 0.61738 0.71458 0.0
C1512 C 0.94108 0.67359 0.71205 0.0
N1513 N 0.9531 0.67271 0.72203 0.0
C1514 C 0.94303 0.6718 0.76088 0.0
C1515 C 0.95441 0.67198 0.74598 0.0
C1516 C 0.9302 0.67222 0.75091 0.0
C1517 C 0.92949 0.6734 0.72618 0.0
H1518 H 0.94035 0.6741 0.69293 0.0
H1519 H 0.96395 0.67105 0.7535 0.0
C1520 C 0.97851 0.62927 0.66364 0.0
N1521 N 0.9769 0.63671 0.68286 0.0
C1522 C 0.98033 0.61628 0.6666 0.0
C1523 C 0.97876 0.61882 0.70904 0.0
C1524 C 0.97676 0.63161 0.70524 0.0
C1525 C 0.98076 0.6111 0.68957 0.0
H1526 H 0.97867 0.63357 0.64603 0.0
H1527 H 0.97522 0.63758 0.72016 0.0
C1528 C 0.97617 0.70251 0.67353 0.0
N1529 N 0.98168 0.73274 0.67228 0.0
C1530 C 0.97966 0.71056 0.65209 0.0
C1531 C 0.97521 0.70978 0.6943 0.0
C1532 C 0.9825 0.72585 0.65183 0.0
C1533 C 0.97811 0.72508 0.69332 0.0
C1534 C 0.98645 0.66648 0.62686 0.0
C1535 C 0.99866 0.67812 0.61382 0.0
C1536 C 0.97461 0.65344 0.61508 0.0
C1537 C 0.99871 0.67662 0.58914 0.0
C1538 C 0.97507 0.65237 0.59038 0.0
N1539 N 0.98701 0.66389 0.57803 0.0
C1540 C 0.02305 0.70202 0.68987 0.0
C1541 C 0.01581 0.71169 0.65682 0.0
C1542 C 0.03856 0.71391 0.6879 0.0
N1543 N 0.012 0.70118 0.67457 0.0
C1544 C 0.03123 0.72357 0.65387 0.0
C1545 C 0.04294 0.72481 0.66947 0.0
H1546 H 0.01995 0.69328 0.70337 0.0
H1547 H 0.00701 0.71046 0.64427 0.0
C1548 C 0.93836 0.65815 0.62971 0.0
N1549 N 0.954 0.66781 0.62769 0.0
C1550 C 0.92815 0.65839 0.61282 0.0
C1551 C 0.95032 0.67833 0.59175 0.0
C1552 C 0.96013 0.67759 0.60894 0.0
C1553 C 0.93409 0.66884 0.59385 0.0
H1554 H 0.93375 0.65067 0.64497 0.0
H1555 H 0.9726 0.68513 0.60766 0.0
O1556 O 0.98546 0.67063 0.7062 0.0
O1557 O 0.95423 0.65244 0.67812 0.0
O1558 O 0.97316 0.68744 0.67409 0.0
O1559 O 0.98614 0.66779 0.65103 0.0
H1560 H 0.99055 0.65888 0.74514 0.0
H1561 H 0.99458 0.70035 0.71438 0.0
H1562 H 1.00123 0.6734 0.78288 0.0
H1563 H 0.00505 0.71414 0.75271 0.0
H1564 H 0.92712 0.60068 0.66067 0.0
H1565 H 0.94753 0.642 0.72211 0.0
H1566 H 0.94188 0.62837 0.64843 0.0
H1567 H 0.93255 0.61409 0.73305 0.0
H1568 H 0.94393 0.67072 0.77986 0.0
H1569 H 0.91992 0.67394 0.71778 0.0
H1570 H 0.98193 0.61067 0.65117 0.0
H1571 H 0.97884 0.61506 0.72704 0.0
H1572 H 0.98035 0.70514 0.63583 0.0
H1573 H 0.97224 0.7037 0.71103 0.0
H1574 H 0.98534 0.73223 0.63535 0.0
H1575 H 0.97748 0.73085 0.70928 0.0
H1576 H 0.00803 0.68817 0.62263 0.0
H1577 H 0.96503 0.64437 0.62486 0.0
H1578 H 0.00807 0.68557 0.57883 0.0
H1579 H 0.96592 0.64241 0.58104 0.0
H1580 H 0.04702 0.71438 0.70057 0.0
H1581 H 0.03396 0.73132 0.63893 0.0
H1582 H 0.91571 0.65098 0.61519 0.0
H1583 H 0.95536 0.68641 0.57719 0.0
H1584 H 0.14239 0.30962 0.14591 0.0
H1585 H 0.14355 0.31847 0.07082 0.0
H1586 H 0.11814 0.33178 0.11794 0.0
H1587 H 0.14757 0.294 0.1148 0.0
H1588 H 0.15183 0.3009 0.08509 0.0
H1589 H 0.16698 0.30611 0.14652 0.0
H1590 H 0.21441 0.33621 0.12487 0.0
H1591 H 0.1771 0.32414 0.07531 0.0
C1592 C 0.13944 0.31456 0.13102 0.0
C1593 C 0.12983 0.32101 0.13456 0.0
C1594 C 0.14445 0.3136 0.10803 0.0
C1595 C 0.14 0.31948 0.08861 0.0
C1596 C 0.13061 0.32623 0.09207 0.0
C1597 C 0.12575 0.327 0.11512 0.0
C1598 C 0.15301 0.30477 0.10394 0.0
C1599 C 0.17007 0.3144 0.11042 0.0
C1600 C 0.17534 0.31341 0.1333 0.0
C1601 C 0.19136 0.32134 0.13882 0.0
C1602 C 0.20198 0.33058 0.12135 0.0
C1603 C 0.19692 0.33167 0.0986 0.0
C1604 C 0.18098 0.32362 0.09313 0.0
H1605 H 0.6937 0.8354 0.15452 0.0
H1606 H 0.68466 0.82771 0.07918 0.0
H1607 H 0.67527 0.78946 0.12478 0.0
H1608 H 0.70567 0.85724 0.12733 0.0
H1609 H 0.70373 0.85397 0.09602 0.0
H1610 H 0.68102 0.85339 0.15023 0.0
H1611 H 0.6593 0.87529 0.11324 0.0
H1612 H 0.68835 0.86199 0.07515 0.0
C1613 C 0.68936 0.82755 0.13936 0.0
C1614 C 0.68439 0.8117 0.14237 0.0
C1615 C 0.68955 0.83346 0.11655 0.0
C1616 C 0.68425 0.82323 0.09685 0.0
C1617 C 0.67931 0.8074 0.09984 0.0
C1618 C 0.67926 0.80176 0.12256 0.0
C1619 C 0.69707 0.85082 0.11291 0.0
C1620 C 0.68528 0.85622 0.11246 0.0
C1621 C 0.67836 0.85716 0.13371 0.0
C1622 C 0.66869 0.86373 0.13387 0.0
C1623 C 0.66591 0.86928 0.11267 0.0
C1624 C 0.67308 0.86892 0.09145 0.0
C1625 C 0.68254 0.86208 0.09136 0.0
H1626 H 0.15824 0.82195 0.15524 0.0
H1627 H 0.15602 0.81185 0.08054 0.0
H1628 H 0.11398 0.79805 0.11921 0.0
H1629 H 0.18062 0.82386 0.13394 0.0
H1630 H 0.1799 0.82078 0.10267 0.0
H1631 H 0.18114 0.84873 0.14955 0.0
H1632 H 0.21195 0.88862 0.10875 0.0
H1633 H 0.19188 0.84277 0.0776 0.0
C1634 C 0.15147 0.81789 0.13897 0.0
C1635 C 0.13511 0.80968 0.13998 0.0
C1636 C 0.15914 0.8195 0.11723 0.0
C1637 C 0.15025 0.8122 0.09665 0.0
C1638 C 0.13393 0.80391 0.09768 0.0
C1639 C 0.12662 0.80419 0.11874 0.0
C1640 C 0.17661 0.82639 0.11693 0.0
C1641 C 0.18509 0.84383 0.11361 0.0
C1642 C 0.18667 0.85368 0.13276 0.0
C1643 C 0.19598 0.86989 0.13067 0.0
C1644 C 0.20384 0.87619 0.10941 0.0
C1645 C 0.20266 0.8666 0.09012 0.0
C1646 C 0.19289 0.85038 0.09221 0.0
H1647 H 0.34384 0.1888 0.86976 0.0
H1648 H 0.34808 0.19435 0.94567 0.0
H1649 H 0.32044 0.20909 0.9071 0.0
H1650 H 0.3659 0.18945 0.89294 0.0
H1651 H 0.36482 0.18772 0.92438 0.0
H1652 H 0.3492 0.16674 0.86687 0.0
H1653 H 0.33684 0.12262 0.8978 0.0
H1654 H 0.35 0.16247 0.94279 0.0
C1655 C 0.34027 0.19174 0.88623 0.0
C1656 C 0.33126 0.19907 0.88567 0.0
C1657 C 0.346 0.18953 0.90789 0.0
C1658 C 0.34277 0.1949 0.92911 0.0
C1659 C 0.33351 0.20191 0.92875 0.0
C1660 C 0.3273 0.20334 0.90721 0.0
C1661 C 0.35763 0.18392 0.90786 0.0
C1662 C 0.3499 0.16643 0.90517 0.0
C1663 C 0.34688 0.15954 0.88242 0.0
C1664 C 0.34183 0.1436 0.87966 0.0
C1665 C 0.33955 0.13459 0.89996 0.0
C1666 C 0.34249 0.14121 0.92281 0.0
C1667 C 0.34736 0.15712 0.9253 0.0
H1668 H 0.86485 0.16586 0.87048 0.0
H1669 H 0.85957 0.17794 0.94205 0.0
H1670 H 0.88725 0.2138 0.89195 0.0
H1671 H 0.8569 0.14669 0.90268 0.0
H1672 H 0.85463 0.15175 0.93223 0.0
H1673 H 0.83688 0.14623 0.8705 0.0
H1674 H 0.79034 0.11982 0.89686 0.0
H1675 H 0.8289 0.1412 0.94602 0.0
C1676 C 0.86686 0.1746 0.88382 0.0
C1677 C 0.87607 0.19043 0.87831 0.0
C1678 C 0.86067 0.17001 0.90673 0.0
C1679 C 0.86397 0.18148 0.92423 0.0
C1680 C 0.87352 0.1974 0.91908 0.0
C1681 C 0.87926 0.20167 0.89594 0.0
C1682 C 0.85227 0.15297 0.91326 0.0
C1683 C 0.8349 0.14512 0.90882 0.0
C1684 C 0.82899 0.14216 0.88542 0.0
C1685 C 0.81291 0.13316 0.88126 0.0
C1686 C 0.8027 0.12726 0.90042 0.0
C1687 C 0.80827 0.13013 0.92389 0.0
C1688 C 0.82443 0.13917 0.92798 0.0
H1689 H 0.83623 0.65488 0.86623 0.0
H1690 H 0.839 0.64734 0.9407 0.0
H1691 H 0.87965 0.66386 0.89736 0.0
H1692 H 0.81328 0.63489 0.88865 0.0
H1693 H 0.81442 0.63333 0.9199 0.0
H1694 H 0.81376 0.65867 0.87134 0.0
H1695 H 0.7865 0.67252 0.91275 0.0
H1696 H 0.80556 0.64645 0.94512 0.0
C1697 C 0.84318 0.65573 0.88164 0.0
C1698 C 0.85914 0.66079 0.8791 0.0
C1699 C 0.83582 0.65072 0.90376 0.0
C1700 C 0.84471 0.6515 0.92376 0.0
C1701 C 0.86064 0.65653 0.92162 0.0
C1702 C 0.8677 0.66118 0.89931 0.0
C1703 C 0.81825 0.64189 0.90517 0.0
C1704 C 0.81138 0.65237 0.9083 0.0
C1705 C 0.80939 0.65974 0.88843 0.0
C1706 C 0.80032 0.66695 0.88996 0.0
C1707 C 0.79388 0.66737 0.91189 0.0
C1708 C 0.79537 0.65977 0.93185 0.0
C1709 C 0.80455 0.65265 0.93005 0.0
H1710 H 0.81228 0.64191 0.48077 0.0
H1711 H 0.81316 0.65001 0.40554 0.0
H1712 H 0.78924 0.66524 0.45235 0.0
H1713 H 0.81862 0.62703 0.45195 0.0
H1714 H 0.81996 0.63124 0.42102 0.0
H1715 H 0.8396 0.64813 0.48029 0.0
H1716 H 0.88533 0.66909 0.45017 0.0
H1717 H 0.84517 0.64665 0.40441 0.0
C1718 C 0.8096 0.64704 0.46586 0.0
C1719 C 0.80033 0.65391 0.46932 0.0
C1720 C 0.81452 0.64582 0.44291 0.0
C1721 C 0.81002 0.65153 0.42336 0.0
C1722 C 0.80091 0.6586 0.42671 0.0
C1723 C 0.79651 0.66005 0.44976 0.0
C1724 C 0.82283 0.63671 0.43899 0.0
C1725 C 0.84029 0.64677 0.44191 0.0
C1726 C 0.84697 0.65132 0.46478 0.0
C1727 C 0.86322 0.65964 0.46766 0.0
C1728 C 0.87276 0.66314 0.44781 0.0
C1729 C 0.86636 0.65838 0.42508 0.0
C1730 C 0.85012 0.65051 0.42201 0.0
H1731 H 0.36047 0.16818 0.48366 0.0
H1732 H 0.35433 0.16026 0.40802 0.0
H1733 H 0.34478 0.12252 0.45465 0.0
H1734 H 0.37476 0.18987 0.45429 0.0
H1735 H 0.36989 0.18651 0.42351 0.0
H1736 H 0.35232 0.18611 0.48355 0.0
H1737 H 0.32843 0.20875 0.45656 0.0
H1738 H 0.3542 0.19636 0.40879 0.0
C1739 C 0.35685 0.1603 0.46859 0.0
C1740 C 0.35179 0.14445 0.47219 0.0
C1741 C 0.35765 0.16612 0.44551 0.0
C1742 C 0.3534 0.15587 0.42588 0.0
C1743 C 0.34894 0.14018 0.42925 0.0
C1744 C 0.34803 0.13462 0.45232 0.0
C1745 C 0.36487 0.18348 0.44164 0.0
C1746 C 0.35348 0.18924 0.44536 0.0
C1747 C 0.34847 0.19005 0.46846 0.0
C1748 C 0.33914 0.19675 0.47234 0.0
C1749 C 0.33507 0.20295 0.45326 0.0
C1750 C 0.3408 0.20327 0.43049 0.0
C1751 C 0.34956 0.19592 0.42634 0.0
H1752 H 0.82786 0.14835 0.4778 0.0
H1753 H 0.83294 0.14082 0.40399 0.0
H1754 H 0.78727 0.12068 0.4345 0.0
H1755 H 0.85228 0.15097 0.46226 0.0
H1756 H 0.85462 0.14907 0.43135 0.0
H1757 H 0.85551 0.17528 0.47911 0.0
H1758 H 0.88336 0.21631 0.43801 0.0
H1759 H 0.86319 0.1711 0.40498 0.0
C1760 C 0.82259 0.14383 0.46056 0.0
C1761 C 0.80631 0.13452 0.45842 0.0
C1762 C 0.83225 0.14624 0.44093 0.0
C1763 C 0.82549 0.13946 0.41889 0.0
C1764 C 0.80924 0.1301 0.41644 0.0
C1765 C 0.79979 0.12813 0.43612 0.0
C1766 C 0.84965 0.15386 0.44438 0.0
C1767 C 0.8577 0.17133 0.44198 0.0
C1768 C 0.86008 0.18074 0.46214 0.0
C1769 C 0.86954 0.19701 0.46087 0.0
C1770 C 0.87586 0.20379 0.43889 0.0
C1771 C 0.87395 0.19463 0.41872 0.0
C1772 C 0.86453 0.17836 0.42028 0.0
H1773 H 0.01456 0.52116 0.19687 0.0
H1774 H 0.02843 0.52963 0.27055 0.0
H1775 H 0.0075 0.55376 0.23756 0.0
H1776 H 0.03561 0.51648 0.21441 0.0
H1777 H 0.03743 0.51597 0.24583 0.0
H1778 H 0.01418 0.49481 0.19267 0.0
H1779 H 0.98883 0.45157 0.22984 0.0
H1780 H 0.01826 0.49369 0.26878 0.0
C1781 C 0.01494 0.52663 0.21376 0.0
C1782 C 0.01 0.53762 0.21509 0.0
C1783 C 0.02153 0.52359 0.23377 0.0
C1784 C 0.02288 0.53151 0.25531 0.0
C1785 C 0.01768 0.54232 0.2569 0.0
C1786 C 0.01104 0.54505 0.23678 0.0
C1787 C 0.0289 0.51352 0.23123 0.0
C1788 C 0.01686 0.49638 0.23093 0.0
C1789 C 0.01058 0.4885 0.20924 0.0
C1790 C 1.00026 0.47234 0.20884 0.0
C1791 C 0.99606 0.46417 0.23025 0.0
C1792 C 0.00263 0.47172 0.25183 0.0
C1793 C 0.01286 0.48788 0.25218 0.0
H1794 H 0.52133 0.50357 0.19679 0.0
H1795 H 0.53285 0.51409 0.27101 0.0
H1796 H 0.54245 0.55071 0.22151 0.0
H1797 H 0.5253 0.48552 0.22744 0.0
H1798 H 0.52227 0.48793 0.25797 0.0
H1799 H 0.50382 0.47652 0.19797 0.0
H1800 H 0.45741 0.45235 0.22565 0.0
H1801 H 0.49606 0.47954 0.27261 0.0
C1802 C 0.52544 0.5118 0.21145 0.0
C1803 C 0.53151 0.52765 0.20682 0.0
C1804 C 0.52516 0.5067 0.23485 0.0
C1805 C 0.53202 0.51784 0.2533 0.0
C1806 C 0.53876 0.53384 0.24851 0.0
C1807 C 0.5376 0.53845 0.22545 0.0
C1808 C 0.51928 0.48965 0.23959 0.0
C1809 C 0.50188 0.47976 0.23557 0.0
C1810 C 0.49593 0.47391 0.21272 0.0
C1811 C 0.47984 0.46431 0.20898 0.0
C1812 C 0.46974 0.46051 0.22827 0.0
C1813 C 0.47544 0.46576 0.25126 0.0
C1814 C 0.49154 0.47559 0.25482 0.0
H1815 H 0.50329 0.9803 0.19749 0.0
H1816 H 0.5055 0.97707 0.27332 0.0
H1817 H 0.54714 0.99447 0.23206 0.0
H1818 H 0.48089 0.95996 0.22156 0.0
H1819 H 0.48137 0.96145 0.25299 0.0
H1820 H 0.47842 0.97962 0.19668 0.0
H1821 H 0.44752 0.99282 0.22851 0.0
H1822 H 0.47228 0.97694 0.2724 0.0
C1823 C 0.51015 0.98264 0.21358 0.0
C1824 C 0.52635 0.98871 0.21209 0.0
C1825 C 0.50254 0.97843 0.23562 0.0
C1826 C 0.51137 0.98083 0.25641 0.0
C1827 C 0.52753 0.98679 0.25528 0.0
C1828 C 0.5349 0.99094 0.23313 0.0
C1829 C 0.48499 0.96852 0.23651 0.0
C1830 C 0.47673 0.97781 0.23483 0.0
C1831 C 0.47359 0.98186 0.21244 0.0
C1832 C 0.46333 0.98767 0.21014 0.0
C1833 C 0.45644 0.98963 0.23058 0.0
C1834 C 0.45952 0.98587 0.25321 0.0
C1835 C 0.47002 0.98027 0.2552 0.0
H1836 H 0.48283 0.98305 0.81593 0.0
H1837 H 0.47908 0.98879 0.74079 0.0
H1838 H 0.45402 1.00086 0.79027 0.0
H1839 H 0.48578 0.96599 0.78234 0.0
H1840 H 0.4909 0.97434 0.75363 0.0
H1841 H 0.50356 0.97875 0.81734 0.0
H1842 H 0.55199 0.0051 0.79966 0.0
H1843 H 0.51735 0.99389 0.74538 0.0
C1844 C 0.47861 0.98703 0.80138 0.0
C1845 C 0.46844 0.99273 0.8061 0.0
C1846 C 0.48275 0.98578 0.7779 0.0
C1847 C 0.47654 0.99031 0.75899 0.0
C1848 C 0.46606 0.99562 0.7635 0.0
C1849 C 0.46239 0.99708 0.787 0.0
C1850 C 0.49159 0.9773 0.77285 0.0
C1851 C 0.50847 0.98629 0.78079 0.0
C1852 C 0.51255 0.98542 0.80453 0.0
C1853 C 0.52825 0.99249 0.81153 0.0
C1854 C 0.53985 1.0002 0.79454 0.0
C1855 C 0.53607 1.00039 0.7706 0.0
C1856 C 0.52036 0.99396 0.76392 0.0
H1857 H 0.02417 0.50183 0.812 0.0
H1858 H 0.01159 0.48686 0.73926 0.0
H1859 H 0.99988 0.45321 0.79447 0.0
H1860 H 0.03807 0.51912 0.77598 0.0
H1861 H 0.02889 0.51369 0.74758 0.0
H1862 H 0.02315 0.52366 0.81044 0.0
H1863 H 1.00159 0.54934 0.78694 0.0
H1864 H 0.01376 0.52504 0.73579 0.0
C1865 C 0.01806 0.49265 0.79903 0.0
C1866 C 0.0113 0.47708 0.80629 0.0
C1867 C 0.01764 0.49633 0.77496 0.0
C1868 C 0.011 0.48417 0.75798 0.0
C1869 C 0.00496 0.46863 0.76499 0.0
C1870 C 0.00448 0.46523 0.78917 0.0
C1871 C 0.0265 0.51314 0.76694 0.0
C1872 C 0.01826 0.52214 0.77263 0.0
C1873 C 0.01796 0.52684 0.79623 0.0
C1874 C 0.01204 0.53672 0.80135 0.0
C1875 C 0.00622 0.54173 0.78291 0.0
C1876 C 0.00719 0.538 0.75924 0.0
C1877 C 0.01278 0.52778 0.75412 0.0
H1878 H 0.49826 0.48499 0.82958 0.0
H1879 H 0.49083 0.47348 0.75512 0.0
H1880 H 0.45189 0.45611 0.80244 0.0
H1881 H 0.5193 0.48701 0.80381 0.0
H1882 H 0.51633 0.48369 0.77264 0.0
H1883 H 0.51709 0.51123 0.8206 0.0
H1884 H 0.54744 0.55158 0.78036 0.0
H1885 H 0.52953 0.50599 0.74933 0.0
C1886 C 0.49037 0.47987 0.81461 0.0
C1887 C 0.47429 0.47079 0.81866 0.0
C1888 C 0.4964 0.48141 0.79154 0.0
C1889 C 0.48615 0.47337 0.77252 0.0
C1890 C 0.47008 0.4639 0.77651 0.0
C1891 C 0.46426 0.46351 0.79931 0.0
C1892 C 0.51383 0.48914 0.78806 0.0
C1893 C 0.52155 0.50658 0.78476 0.0
C1894 C 0.52261 0.51627 0.80388 0.0
C1895 C 0.53157 0.53253 0.80195 0.0
C1896 C 0.53963 0.53908 0.78092 0.0
C1897 C 0.53923 0.52967 0.76191 0.0
C1898 C 0.5298 0.5134 0.76376 0.0
H1899 H 0.68873 0.85896 0.53002 0.0
H1900 H 0.68554 0.86319 0.60551 0.0
H1901 H 0.67544 0.89081 0.55796 0.0
H1902 H 0.70558 0.85473 0.5587 0.0
H1903 H 0.70226 0.85438 0.58967 0.0
H1904 H 0.68203 0.83304 0.53282 0.0
H1905 H 0.67191 0.78929 0.56281 0.0
H1906 H 0.68972 0.82989 0.60724 0.0
C1907 C 0.68554 0.86362 0.54502 0.0
C1908 C 0.68071 0.87455 0.54119 0.0
C1909 C 0.68736 0.85951 0.56818 0.0
C1910 C 0.68383 0.86612 0.58767 0.0
C1911 C 0.67935 0.87739 0.58423 0.0
C1912 C 0.67773 0.88135 0.5609 0.0
C1913 C 0.69619 0.85093 0.57215 0.0
C1914 C 0.68629 0.83336 0.57041 0.0
C1915 C 0.68092 0.82604 0.54814 0.0
C1916 C 0.67537 0.80999 0.5452 0.0
C1917 C 0.67482 0.80129 0.56515 0.0
C1918 C 0.67983 0.80826 0.58761 0.0
C1919 C 0.68527 0.82428 0.59017 0.0
H1920 H 0.19272 0.83689 0.53845 0.0
H1921 H 0.19251 0.84529 0.61356 0.0
H1922 H 0.2179 0.88357 0.5661 0.0
H1923 H 0.18556 0.81577 0.56736 0.0
H1924 H 0.1851 0.81926 0.59837 0.0
H1925 H 0.16471 0.81706 0.54023 0.0
H1926 H 0.11952 0.79389 0.57203 0.0
H1927 H 0.16038 0.80993 0.61593 0.0
C1928 C 0.19593 0.84494 0.55328 0.0
C1929 C 0.20572 0.86097 0.54952 0.0
C1930 C 0.19101 0.83919 0.57635 0.0
C1931 C 0.19591 0.84969 0.59571 0.0
C1932 C 0.20558 0.86577 0.59211 0.0
C1933 C 0.21021 0.87122 0.56896 0.0
C1934 C 0.18206 0.82181 0.58056 0.0
C1935 C 0.16463 0.81511 0.57851 0.0
C1936 C 0.1576 0.81327 0.55604 0.0
C1937 C 0.14134 0.80594 0.55386 0.0
C1938 C 0.1321 0.80036 0.57412 0.0
C1939 C 0.13878 0.80151 0.59656 0.0
C1940 C 0.15512 0.80916 0.59871 0.0
H1941 H 0.1841 0.33629 0.52346 0.0
H1942 H 0.1769 0.31931 0.5951 0.0
H1943 H 0.22332 0.34576 0.56741 0.0
H1944 H 0.15939 0.31272 0.53601 0.0
H1945 H 0.15609 0.30726 0.56636 0.0
H1946 H 0.15563 0.33361 0.5206 0.0
H1947 H 0.12531 0.34367 0.56171 0.0
H1948 H 0.1463 0.31946 0.59381 0.0
C1949 C 0.1888 0.33581 0.54065 0.0
C1950 C 0.205 0.34287 0.54384 0.0
C1951 C 0.17861 0.32737 0.55918 0.0
C1952 C 0.18478 0.32619 0.58108 0.0
C1953 C 0.20095 0.33278 0.58432 0.0
C1954 C 0.21091 0.34138 0.56572 0.0
C1955 C 0.16134 0.31752 0.5544 0.0
C1956 C 0.15292 0.32656 0.55738 0.0
C1957 C 0.15063 0.33384 0.53758 0.0
C1958 C 0.14049 0.33982 0.53903 0.0
C1959 C 0.1335 0.33945 0.56073 0.0
C1960 C 0.13546 0.33209 0.58042 0.0
C1961 C 0.14536 0.32582 0.57891 0.0
H1962 H 0.01742 0.42757 0.10816 0.0
H1963 H 0.96776 0.39448 0.10597 0.0
H1964 H 0.96314 0.41162 0.13261 0.0
H1965 H 0.01954 0.43741 0.16852 0.0
H1966 H 0.0339 0.45766 0.1647 0.0
H1967 H 0.03297 0.4433 0.14409 0.0
H1968 H 0.02998 0.45868 0.10932 0.0
H1969 H 0.03068 0.47298 0.12995 0.0
H1970 H 0.01438 0.46305 0.10979 0.0
H1971 H 0.96416 0.43134 0.1618 0.0
H1972 H 0.97097 0.45122 0.19337 0.0
H1973 H 0.01979 0.47187 0.17549 0.0
C1974 C 0.00554 0.42404 0.11297 0.0
C1975 C 0.99295 0.40968 0.10497 0.0
C1976 C 0.97761 0.40534 0.1121 0.0
C1977 C 0.97486 0.41509 0.127 0.0
C1978 C 0.98754 0.42918 0.1345 0.0
C1979 C 0.00259 0.43363 0.12779 0.0
C1980 C 0.01429 0.44884 0.13959 0.0
C1981 C 0.02585 0.44666 0.15515 0.0
C1982 C 0.02284 0.46165 0.12105 0.0
C1983 C 0.00351 0.45208 0.15448 0.0
C1984 C 0.9881 0.4407 0.15106 0.0
C1985 C 0.97614 0.44047 0.16431 0.0
C1986 C 0.98009 0.45182 0.1821 0.0
C1987 C 0.99584 0.46323 0.18642 0.0
C1988 C 0.00762 0.46361 0.17195 0.0
H1989 H 0.5903 0.57127 0.10459 0.0
H1990 H 0.56581 0.59677 0.09357 0.0
H1991 H 0.5446 0.57833 0.1195 0.0
H1992 H 0.55516 0.53173 0.10806 0.0
H1993 H 0.56369 0.52575 0.13107 0.0
H1994 H 0.57596 0.5397 0.10922 0.0
H1995 H 0.59218 0.55933 0.14267 0.0
H1996 H 0.58012 0.54538 0.1645 0.0
H1997 H 0.58235 0.56457 0.16459 0.0
H1998 H 0.52785 0.55933 0.15019 0.0
H1999 H 0.5178 0.54226 0.18529 0.0
H2000 H 0.55247 0.52844 0.1755 0.0
C2001 C 0.58029 0.57275 0.1072 0.0
C2002 C 0.57968 0.58543 0.09705 0.0
C2003 C 0.56658 0.58721 0.10136 0.0
C2004 C 0.55439 0.57669 0.11582 0.0
C2005 C 0.55541 0.56437 0.12572 0.0
C2006 C 0.56804 0.56236 0.12163 0.0
C2007 C 0.56706 0.54913 0.13626 0.0
C2008 C 0.56536 0.53579 0.12019 0.0
C2009 C 0.58126 0.55496 0.15299 0.0
C2010 C 0.55222 0.54439 0.14988 0.0
C2011 C 0.54552 0.55315 0.14323 0.0
C2012 C 0.53272 0.5521 0.15512 0.0
C2013 C 0.52701 0.54234 0.17491 0.0
C2014 C 0.53407 0.53373 0.18244 0.0
C2015 C 0.54648 0.5344 0.16934 0.0
H2016 H 0.41767 0.01604 0.1278 0.0
H2017 H 0.40424 0.97482 0.08459 0.0
H2018 H 0.42238 0.96951 0.10734 0.0
H2019 H 0.45903 0.02738 0.13543 0.0
H2020 H 0.45973 0.03359 0.16578 0.0
H2021 H 0.44676 0.03502 0.14475 0.0
H2022 H 0.4233 0.01856 0.17227 0.0
H2023 H 0.43621 0.01724 0.19342 0.0
H2024 H 0.41967 0.99973 0.18197 0.0
H2025 H 0.44037 0.96755 0.13642 0.0
H2026 H 0.45514 0.96784 0.17191 0.0
H2027 H 0.45764 0.01075 0.19567 0.0
C2028 C 0.41873 0.00603 0.12294 0.0
C2029 C 0.40953 0.99581 0.1045 0.0
C2030 C 0.41104 0.98269 0.09888 0.0
C2031 C 0.42144 0.97968 0.1115 0.0
C2032 C 0.43032 0.98994 0.12962 0.0
C2033 C 0.42902 0.00282 0.13544 0.0
C2034 C 0.439 0.01131 0.15688 0.0
C2035 C 0.4519 0.0278 0.15031 0.0
C2036 C 0.42894 0.01172 0.17734 0.0
C2037 C 0.44572 1.00093 0.16261 0.0
C2038 C 0.44078 0.98883 0.14643 0.0
C2039 C 0.44454 0.97712 0.14901 0.0
C2040 C 0.45306 0.97745 0.16915 0.0
C2041 C 0.45764 0.98937 0.18652 0.0
C2042 C 0.45436 0.00153 0.18265 0.0
H2043 H 0.4229 0.01486 0.89929 0.0
H2044 H 0.41029 0.97146 0.93493 0.0
H2045 H 0.42808 0.96762 0.90891 0.0
H2046 H 0.42404 0.00166 0.84143 0.0
H2047 H 0.44034 0.01986 0.83199 0.0
H2048 H 0.4276 0.01974 0.85474 0.0
H2049 H 0.45135 0.03477 0.88298 0.0
H2050 H 0.46415 0.03478 0.86034 0.0
H2051 H 0.46387 0.02687 0.8892 0.0
H2052 H 0.44542 0.96733 0.87677 0.0
H2053 H 0.46003 0.97012 0.84004 0.0
H2054 H 0.46242 0.01434 0.82656 0.0
C2055 C 0.42391 0.00457 0.90165 0.0
C2056 C 0.41527 0.99351 0.91924 0.0
C2057 C 0.41698 0.98022 0.92183 0.0
C2058 C 0.42705 0.97793 0.90713 0.0
C2059 C 0.43543 0.98908 0.89002 0.0
C2060 C 0.43397 0.00214 0.88722 0.0
C2061 C 0.44365 0.01194 0.86667 0.0
C2062 C 0.43329 0.01337 0.84759 0.0
C2063 C 0.45652 0.02804 0.87533 0.0
C2064 C 0.45043 0.00212 0.85797 0.0
C2065 C 0.44567 0.98905 0.87177 0.0
C2066 C 0.44946 0.97766 0.86605 0.0
C2067 C 0.4579 0.97942 0.84523 0.0
C2068 C 0.46244 0.99248 0.83037 0.0
C2069 C 0.4591 0.0042 0.83745 0.0
H2070 H 0.99069 0.41419 0.90567 0.0
H2071 H 0.03958 0.4397 0.92606 0.0
H2072 H 0.04355 0.46135 0.90019 0.0
H2073 H 0.99669 0.42396 0.84539 0.0
H2074 H 0.97935 0.42535 0.84187 0.0
H2075 H 0.98009 0.41282 0.86417 0.0
H2076 H 0.97311 0.42715 0.89627 0.0
H2077 H 0.97261 0.4399 0.87402 0.0
H2078 H 0.98509 0.44797 0.89971 0.0
H2079 H 0.04282 0.47912 0.86926 0.0
H2080 H 0.03789 0.49035 0.8335 0.0
H2081 H 0.98951 0.45349 0.83349 0.0
C2082 C 0.00223 0.42433 0.90478 0.0
C2083 C 0.01478 0.42524 0.9181 0.0
C2084 C 0.02968 0.43881 0.91643 0.0
C2085 C 0.03207 0.45119 0.90176 0.0
C2086 C 0.01944 0.44991 0.88891 0.0
C2087 C 0.00483 0.43678 0.8902 0.0
C2088 C 0.99351 0.43773 0.87314 0.0
C2089 C 0.98704 0.42417 0.85507 0.0
C2090 C 0.9803 0.43822 0.88659 0.0
C2091 C 0.00417 0.45318 0.86144 0.0
C2092 C 0.01902 0.46017 0.87107 0.0
C2093 C 0.03118 0.4739 0.86184 0.0
C2094 C 0.02824 0.48029 0.84163 0.0
C2095 C 0.01329 0.47285 0.8308 0.0
C2096 C 1.00102 0.45949 0.8415 0.0
H2097 H 0.58246 0.57519 0.9145 0.0
H2098 H 0.57595 0.61422 0.89757 0.0
H2099 H 0.5562 0.59806 0.86738 0.0
H2100 H 0.58028 0.5618 0.85704 0.0
H2101 H 0.56996 0.5414 0.86437 0.0
H2102 H 0.58225 0.55555 0.88622 0.0
H2103 H 0.55894 0.54509 0.9152 0.0
H2104 H 0.54652 0.53096 0.89325 0.0
H2105 H 0.54113 0.54431 0.90594 0.0
H2106 H 0.53943 0.57867 0.8362 0.0
H2107 H 0.52785 0.55792 0.80552 0.0
H2108 H 0.54429 0.53117 0.84403 0.0
C2109 C 0.57662 0.58025 0.90488 0.0
C2110 C 0.58077 0.59599 0.90845 0.0
C2111 C 0.57312 0.60226 0.89498 0.0
C2112 C 0.56174 0.59311 0.87799 0.0
C2113 C 0.55801 0.57766 0.87486 0.0
C2114 C 0.5652 0.57127 0.88798 0.0
C2115 C 0.56 0.55478 0.87995 0.0
C2116 C 0.57395 0.55331 0.87138 0.0
C2117 C 0.55112 0.5431 0.89977 0.0
C2118 C 0.54921 0.55308 0.85962 0.0
C2119 C 0.54803 0.56633 0.85719 0.0
C2120 C 0.53997 0.56811 0.83825 0.0
C2121 C 0.53339 0.55627 0.82097 0.0
C2122 C 0.53491 0.54286 0.8228 0.0
C2123 C 0.5425 0.54106 0.84273 0.0
H2124 H 0.02052 0.60314 0.88863 0.0
H2125 H 0.99611 0.56739 0.94146 0.0
H2126 H 0.99752 0.54807 0.9154 0.0
H2127 H 1.00092 0.57956 0.83908 0.0
H2128 H 0.0177 0.58824 0.82004 0.0
H2129 H 0.01612 0.59945 0.84394 0.0
H2130 H 0.04292 0.60503 0.86045 0.0
H2131 H 0.04449 0.59367 0.83667 0.0
H2132 H 0.04596 0.58897 0.86709 0.0
H2133 H 0.99987 0.53213 0.88207 0.0
H2134 H 1.00171 0.52098 0.84343 0.0
H2135 H 0.02439 0.56721 0.81303 0.0
C2136 C 0.01549 0.59126 0.89477 0.0
C2137 C 0.00831 0.58684 0.91717 0.0
C2138 C 1.00195 0.57116 0.92455 0.0
C2139 C 0.00265 0.56007 0.90986 0.0
C2140 C 0.0098 0.56484 0.88785 0.0
C2141 C 0.01607 0.58006 0.88034 0.0
C2142 C 0.02221 0.58203 0.85534 0.0
C2143 C 0.01373 0.58765 0.83862 0.0
C2144 C 0.03995 0.59308 0.85487 0.0
C2145 C 0.01803 0.56545 0.84973 0.0
C2146 C 0.01107 0.5557 0.86875 0.0
C2147 C 0.00546 0.53968 0.86712 0.0
C2148 C 0.00659 0.53345 0.84523 0.0
C2149 C 0.01312 0.54325 0.82539 0.0
C2150 C 0.0193 0.55947 0.82798 0.0
H2151 H 0.40206 0.42695 0.90284 0.0
H2152 H 0.42757 0.40717 0.93635 0.0
H2153 H 0.45154 0.42615 0.91557 0.0
H2154 H 0.41892 0.43127 0.84698 0.0
H2155 H 0.41926 0.44914 0.83988 0.0
H2156 H 0.40494 0.43561 0.86007 0.0
H2157 H 0.41425 0.45758 0.89183 0.0
H2158 H 0.42882 0.47111 0.87175 0.0
H2159 H 0.43447 0.468 0.90075 0.0
H2160 H 0.4719 0.44545 0.88875 0.0
H2161 H 0.48611 0.46093 0.85397 0.0
H2162 H 0.44752 0.46824 0.83717 0.0
C2163 C 0.4128 0.42685 0.90601 0.0
C2164 C 0.41311 0.41573 0.92117 0.0
C2165 C 0.42719 0.41563 0.92468 0.0
C2166 C 0.44086 0.42645 0.91318 0.0
C2167 C 0.44021 0.43727 0.89821 0.0
C2168 C 0.4265 0.43744 0.89438 0.0
C2169 C 0.42849 0.44899 0.87529 0.0
C2170 C 0.41724 0.44075 0.85432 0.0
C2171 C 0.42638 0.46221 0.88552 0.0
C2172 C 0.44529 0.45487 0.8684 0.0
C2173 C 0.45195 0.44827 0.88228 0.0
C2174 C 0.46692 0.45091 0.87801 0.0
C2175 C 0.47498 0.45987 0.85831 0.0
C2176 C 0.46798 0.4659 0.84294 0.0
C2177 C 0.45323 0.46392 0.84876 0.0
H2178 H 0.59169 0.01513 0.91231 0.0
H2179 H 0.57118 0.96575 0.926 0.0
H2180 H 0.54896 0.96026 0.89954 0.0
H2181 H 0.55509 0.01609 0.9074 0.0
H2182 H 0.5623 0.02991 0.88348 0.0
H2183 H 0.57561 0.03008 0.90553 0.0
H2184 H 0.5921 0.02707 0.87249 0.0
H2185 H 0.57898 0.02712 0.85041 0.0
H2186 H 0.58275 0.01114 0.85157 0.0
H2187 H 0.52997 0.9601 0.86947 0.0
H2188 H 0.5175 0.96495 0.83501 0.0
H2189 H 0.55057 0.01442 0.84082 0.0
C2190 C 0.58237 0.0032 0.91003 0.0
C2191 C 0.58305 0.99085 0.92124 0.0
C2192 C 0.57086 0.97534 0.91745 0.0
C2193 C 0.55814 0.97215 0.90267 0.0
C2194 C 0.55783 0.9846 0.89181 0.0
C2195 C 0.5697 0.9998 0.89516 0.0
C2196 C 0.56739 0.01093 0.87971 0.0
C2197 C 0.56495 0.02243 0.89494 0.0
C2198 C 0.58111 0.01956 0.86253 0.0
C2199 C 0.55257 0.99959 0.86666 0.0
C2200 C 0.54704 0.98449 0.87422 0.0
C2201 C 0.53407 0.9719 0.86363 0.0
C2202 C 0.52696 0.97477 0.8442 0.0
C2203 C 0.53299 0.99007 0.83542 0.0
C2204 C 0.54562 0.00264 0.84737 0.0
H2205 H 0.60074 0.01601 0.13028 0.0
H2206 H 0.57168 0.97617 0.08509 0.0
H2207 H 0.54857 0.97114 0.10821 0.0
H2208 H 0.58212 0.99882 0.18392 0.0
H2209 H 0.58373 0.0163 0.19656 0.0
H2210 H 0.59777 0.01765 0.17515 0.0
H2211 H 0.59159 0.03532 0.14893 0.0
H2212 H 0.57743 0.03393 0.17024 0.0
H2213 H 0.57177 0.02854 0.13967 0.0
H2214 H 0.52904 0.96913 0.13779 0.0
H2215 H 0.5147 0.96935 0.1732 0.0
H2216 H 0.55597 0.01108 0.19875 0.0
C2217 C 0.58947 0.00638 0.12507 0.0
C2218 C 0.58802 0.99644 0.10595 0.0
C2219 C 0.5731 0.98381 0.09987 0.0
C2220 C 0.55988 0.98095 0.11274 0.0
C2221 C 0.56171 0.99087 0.1316 0.0
C2222 C 0.57611 0.00331 0.13782 0.0
C2223 C 0.57499 0.01151 0.15989 0.0
C2224 C 0.58526 0.01103 0.18007 0.0
C2225 C 0.57919 0.02832 0.15434 0.0
C2226 C 0.5578 0.00146 0.16541 0.0
C2227 C 0.55032 0.98976 0.14868 0.0
C2228 C 0.53468 0.97841 0.15081 0.0
C2229 C 0.52657 0.97872 0.17096 0.0
C2230 C 0.53411 0.99031 0.1888 0.0
C2231 C 0.54983 0.00207 0.18548 0.0
H2232 H 0.011 0.60126 0.1289 0.0
H2233 H 0.97457 0.56366 0.08712 0.0
H2234 H 0.97508 0.54445 0.11432 0.0
H2235 H 0.03264 0.58271 0.14219 0.0
H2236 H 0.03753 0.59033 0.17205 0.0
H2237 H 0.03406 0.6011 0.14956 0.0
H2238 H 0.01274 0.60149 0.1756 0.0
H2239 H 0.01626 0.59086 0.19829 0.0
H2240 H 0.99689 0.58339 0.18635 0.0
H2241 H 0.98031 0.52925 0.14585 0.0
H2242 H 0.9887 0.51972 0.18047 0.0
H2243 H 0.02116 0.5675 0.20113 0.0
C2244 C 0.00291 0.58901 0.12566 0.0
C2245 C 0.99278 0.58399 0.1058 0.0
C2246 C 0.9826 0.5678 0.10202 0.0
C2247 C 0.98276 0.55679 0.11743 0.0
C2248 C 0.99309 0.56216 0.1366 0.0
C2249 C 0.00287 0.5779 0.14086 0.0
C2250 C 0.01292 0.5807 0.16262 0.0
C2251 C 0.03031 0.58921 0.1562 0.0
C2252 C 0.00949 0.58963 0.18185 0.0
C2253 C 0.00731 0.56409 0.16992 0.0
C2254 C 0.99592 0.5535 0.15472 0.0
C2255 C 0.98917 0.53745 0.15795 0.0
C2256 C 0.99403 0.53214 0.17751 0.0
C2257 C 0.0054 0.54288 0.19354 0.0
C2258 C 0.01223 0.55902 0.18938 0.0
H2259 H 0.41055 0.42158 0.11672 0.0
H2260 H 0.43298 0.39628 0.09158 0.0
H2261 H 0.45592 0.41278 0.11703 0.0
H2262 H 0.44555 0.4599 0.12113 0.0
H2263 H 0.43919 0.46505 0.14788 0.0
H2264 H 0.42504 0.45195 0.12652 0.0
H2265 H 0.41154 0.43112 0.15919 0.0
H2266 H 0.42551 0.44422 0.18064 0.0
H2267 H 0.42293 0.42504 0.17634 0.0
H2268 H 0.47593 0.43142 0.14661 0.0
H2269 H 0.49004 0.44874 0.18067 0.0
H2270 H 0.45446 0.46183 0.18585 0.0
C2271 C 0.42037 0.41964 0.11634 0.0
C2272 C 0.42004 0.40771 0.10213 0.0
C2273 C 0.43297 0.4053 0.10249 0.0
C2274 C 0.4461 0.41471 0.11668 0.0
C2275 C 0.44608 0.42645 0.13039 0.0
C2276 C 0.43349 0.42885 0.13045 0.0
C2277 C 0.43588 0.4415 0.14792 0.0
C2278 C 0.43645 0.45543 0.13509 0.0
C2279 C 0.42322 0.43508 0.16716 0.0
C2280 C 0.45166 0.44567 0.15803 0.0
C2281 C 0.4575 0.43706 0.14747 0.0
C2282 C 0.47155 0.43835 0.15483 0.0
C2283 C 0.47955 0.4483 0.17405 0.0
C2284 C 0.47336 0.45666 0.18575 0.0
C2285 C 0.45949 0.45564 0.17711 0.0
H2286 H 0.65398 0.73697 0.46394 0.0
H2287 H 0.68788 0.76903 0.41374 0.0
H2288 H 0.68966 0.79118 0.43628 0.0
H2289 H 0.63452 0.76056 0.47467 0.0
H2290 H 0.63158 0.75545 0.50564 0.0
H2291 H 0.63156 0.74193 0.4841 0.0
H2292 H 0.65331 0.74062 0.50791 0.0
H2293 H 0.65333 0.75404 0.52949 0.0
H2294 H 0.67115 0.7584 0.51474 0.0
H2295 H 0.69069 0.80976 0.467 0.0
H2296 H 0.69109 0.82329 0.50381 0.0
H2297 H 0.65429 0.77965 0.53221 0.0
C2298 C 0.66149 0.74862 0.45736 0.0
C2299 C 0.67092 0.75122 0.4372 0.0
C2300 C 0.68079 0.76671 0.42944 0.0
C2301 C 0.68173 0.77939 0.44193 0.0
C2302 C 0.67252 0.77645 0.46195 0.0
C2303 C 0.66247 0.76146 0.46952 0.0
C2304 C 0.6547 0.76158 0.49258 0.0
C2305 C 0.63704 0.75446 0.48903 0.0
C2306 C 0.65835 0.75317 0.51233 0.0
C2307 C 0.66255 0.77897 0.49732 0.0
C2308 C 0.67264 0.78734 0.47929 0.0
C2309 C 0.68252 0.8034 0.48096 0.0
C2310 C 0.68255 0.81104 0.502 0.0
C2311 C 0.67269 0.80263 0.52113 0.0
C2312 C 0.66206 0.78648 0.5181 0.0
H2313 H 0.26985 0.92126 0.46135 0.0
H2314 H 0.23437 0.90362 0.40606 0.0
H2315 H 0.21579 0.8837 0.43353 0.0
H2316 H 0.25898 0.8838 0.48759 0.0
H2317 H 0.26291 0.89142 0.5175 0.0
H2318 H 0.27363 0.90382 0.49312 0.0
H2319 H 0.26518 0.92366 0.50579 0.0
H2320 H 0.25451 0.91138 0.53025 0.0
H2321 H 0.24474 0.91716 0.50905 0.0
H2322 H 0.20063 0.86634 0.46788 0.0
H2323 H 0.19017 0.85372 0.50663 0.0
H2324 H 0.23578 0.88254 0.53874 0.0
C2325 C 0.25817 0.91323 0.45502 0.0
C2326 C 0.2536 0.91396 0.43151 0.0
C2327 C 0.23822 0.90314 0.42389 0.0
C2328 C 0.22756 0.8918 0.43937 0.0
C2329 C 0.23245 0.89138 0.46242 0.0
C2330 C 0.2474 0.90181 0.47021 0.0
C2331 C 0.24964 0.89917 0.496 0.0
C2332 C 0.26202 0.89426 0.4987 0.0
C2333 C 0.25376 0.91371 0.51116 0.0
C2334 C 0.23354 0.88586 0.50163 0.0
C2335 C 0.22379 0.88141 0.48205 0.0
C2336 C 0.2082 0.86966 0.48331 0.0
C2337 C 0.20237 0.86251 0.50532 0.0
C2338 C 0.21211 0.86723 0.52571 0.0
C2339 C 0.22797 0.87881 0.52355 0.0
H2340 H 0.07304 0.33331 0.45547 0.0
H2341 H 0.10815 0.37016 0.41221 0.0
H2342 H 0.12885 0.3713 0.43834 0.0
H2343 H 0.09181 0.34825 0.51207 0.0
H2344 H 0.08581 0.32915 0.52363 0.0
H2345 H 0.07403 0.33159 0.50157 0.0
H2346 H 0.07551 0.31103 0.47473 0.0
H2347 H 0.08745 0.30868 0.49662 0.0
H2348 H 0.09429 0.31378 0.4666 0.0
H2349 H 0.1458 0.36791 0.46954 0.0
H2350 H 0.15699 0.36107 0.50398 0.0
H2351 H 0.11037 0.32664 0.52561 0.0
C2352 C 0.08506 0.34181 0.45169 0.0
C2353 C 0.08899 0.35169 0.4319 0.0
C2354 C 0.1049 0.36241 0.42725 0.0
C2355 C 0.11672 0.36315 0.44199 0.0
C2356 C 0.11243 0.35307 0.46122 0.0
C2357 C 0.09695 0.34267 0.46611 0.0
C2358 C 0.0953 0.33297 0.48763 0.0
C2359 C 0.0862 0.33566 0.50739 0.0
C2360 C 0.08769 0.31559 0.48098 0.0
C2361 C 0.11223 0.33966 0.49431 0.0
C2362 C 0.12202 0.35117 0.47889 0.0
C2363 C 0.13822 0.35894 0.48177 0.0
C2364 C 0.14448 0.35498 0.50122 0.0
C2365 C 0.13449 0.34351 0.51745 0.0
C2366 C 0.11824 0.33564 0.51361 0.0
H2367 H 0.06455 0.31944 0.21728 0.0
H2368 H 0.09947 0.34017 0.27312 0.0
H2369 H 0.11842 0.33772 0.24774 0.0
H2370 H 0.07573 0.29185 0.19625 0.0
H2371 H 0.07213 0.29403 0.16551 0.0
H2372 H 0.06113 0.29685 0.18843 0.0
H2373 H 0.06971 0.32447 0.17245 0.0
H2374 H 0.08057 0.32165 0.14935 0.0
H2375 H 0.09019 0.33825 0.16904 0.0
H2376 H 0.13398 0.33401 0.21527 0.0
H2377 H 0.14493 0.33053 0.17769 0.0
H2378 H 0.09953 0.3117 0.14409 0.0
C2379 C 0.0762 0.32352 0.22413 0.0
C2380 C 0.08051 0.32993 0.2472 0.0
C2381 C 0.09585 0.33502 0.25559 0.0
C2382 C 0.1067 0.3337 0.24132 0.0
C2383 C 0.10202 0.32719 0.21872 0.0
C2384 C 0.08714 0.32222 0.21018 0.0
C2385 C 0.08515 0.31607 0.18504 0.0
C2386 C 0.0728 0.29867 0.18374 0.0
C2387 C 0.08118 0.32569 0.16797 0.0
C2388 C 0.1013 0.31864 0.18062 0.0
C2389 C 0.11088 0.32495 0.20026 0.0
C2390 C 0.12654 0.32895 0.19983 0.0
C2391 C 0.13265 0.32686 0.17852 0.0
C2392 C 0.12309 0.32093 0.15804 0.0
C2393 C 0.10714 0.31637 0.15946 0.0
H2394 H 0.69148 0.75093 0.22488 0.0
H2395 H 0.66623 0.76069 0.27859 0.0
H2396 H 0.66758 0.78185 0.25389 0.0
H2397 H 0.71712 0.79141 0.2063 0.0
H2398 H 0.71621 0.78606 0.17545 0.0
H2399 H 0.71442 0.77258 0.19826 0.0
H2400 H 0.68803 0.7516 0.1801 0.0
H2401 H 0.68979 0.76497 0.15722 0.0
H2402 H 0.67272 0.75614 0.17565 0.0
H2403 H 0.67044 0.80106 0.22216 0.0
H2404 H 0.67305 0.81534 0.18485 0.0
H2405 H 0.69647 0.79299 0.15234 0.0
C2406 C 0.68647 0.7577 0.23159 0.0
C2407 C 0.67877 0.7542 0.25364 0.0
C2408 C 0.67207 0.76311 0.26163 0.0
C2409 C 0.6729 0.77523 0.24783 0.0
C2410 C 0.68048 0.77832 0.22608 0.0
C2411 C 0.6871 0.76977 0.21798 0.0
C2412 C 0.69363 0.7747 0.19329 0.0
C2413 C 0.7114 0.7816 0.19334 0.0
C2414 C 0.68556 0.76104 0.17553 0.0
C2415 C 0.68935 0.78711 0.18858 0.0
C2416 C 0.68197 0.78923 0.2078 0.0
C2417 C 0.67633 0.79961 0.20707 0.0
C2418 C 0.67792 0.80772 0.18591 0.0
C2419 C 0.68491 0.80522 0.1658 0.0
C2420 C 0.69103 0.79508 0.16747 0.0
H2421 H 0.24549 0.91038 0.2454 0.0
H2422 H 0.24218 0.95112 0.22728 0.0
H2423 H 0.2228 0.93585 0.19606 0.0
H2424 H 0.24401 0.89704 0.18812 0.0
H2425 H 0.23259 0.87664 0.19515 0.0
H2426 H 0.24482 0.89036 0.21752 0.0
H2427 H 0.22094 0.88091 0.24514 0.0
H2428 H 0.20858 0.86721 0.22268 0.0
H2429 H 0.20388 0.88123 0.23472 0.0
H2430 H 0.20593 0.91694 0.16434 0.0
H2431 H 0.194 0.89632 0.1335 0.0
H2432 H 0.20755 0.86773 0.17345 0.0
C2433 C 0.24041 0.91602 0.23531 0.0
C2434 C 0.24531 0.93194 0.23889 0.0
C2435 C 0.23871 0.93897 0.22474 0.0
C2436 C 0.22756 0.93035 0.20716 0.0
C2437 C 0.22303 0.91467 0.20409 0.0
C2438 C 0.22925 0.90758 0.21782 0.0
C2439 C 0.22341 0.89095 0.2098 0.0
C2440 C 0.23702 0.88863 0.20218 0.0
C2441 C 0.21362 0.87939 0.22924 0.0
C2442 C 0.21336 0.88995 0.18882 0.0
C2443 C 0.2131 0.90368 0.18603 0.0
C2444 C 0.20578 0.90604 0.16662 0.0
C2445 C 0.19902 0.89428 0.14924 0.0
C2446 C 0.19964 0.88039 0.15142 0.0
C2447 C 0.20648 0.87803 0.17181 0.0
H2448 H 0.68379 0.92093 0.24081 0.0
H2449 H 0.6353 0.90854 0.23419 0.0
H2450 H 0.63059 0.8871 0.20664 0.0
H2451 H 0.68908 0.91545 0.18121 0.0
H2452 H 0.7019 0.9078 0.18659 0.0
H2453 H 0.70083 0.9208 0.20786 0.0
H2454 H 0.69403 0.90018 0.24071 0.0
H2455 H 0.69487 0.88701 0.21937 0.0
H2456 H 0.67753 0.88087 0.2367 0.0
H2457 H 0.63172 0.86877 0.17721 0.0
H2458 H 0.63914 0.85652 0.14539 0.0
H2459 H 0.68678 0.88056 0.17137 0.0
C2460 C 0.67211 0.91349 0.23393 0.0
C2461 C 0.65988 0.91632 0.23969 0.0
C2462 C 0.64485 0.90661 0.22987 0.0
C2463 C 0.64203 0.89431 0.21444 0.0
C2464 C 0.65435 0.89185 0.20908 0.0
C2465 C 0.66912 0.90122 0.21843 0.0
C2466 C 0.68068 0.89708 0.20807 0.0
C2467 C 0.69389 0.91111 0.19516 0.0
C2468 C 0.68715 0.89092 0.22737 0.0
C2469 C 0.67022 0.88426 0.19083 0.0
C2470 C 0.65501 0.88121 0.19204 0.0
C2471 C 0.64351 0.87083 0.1764 0.0
C2472 C 0.64779 0.86389 0.15847 0.0
C2473 C 0.66344 0.8674 0.15629 0.0
C2474 C 0.67464 0.87729 0.17318 0.0
H2475 H 0.07333 0.74339 0.22336 0.0
H2476 H 0.09238 0.77541 0.28308 0.0
H2477 H 0.1105 0.79621 0.25606 0.0
H2478 H 0.10898 0.756 0.19389 0.0
H2479 H 0.10068 0.75351 0.16456 0.0
H2480 H 0.08882 0.74168 0.18857 0.0
H2481 H 0.0689 0.75083 0.18026 0.0
H2482 H 0.08079 0.76274 0.15627 0.0
H2483 H 0.07544 0.77138 0.18 0.0
H2484 H 0.12727 0.8134 0.22169 0.0
H2485 H 0.14091 0.82476 0.18377 0.0
H2486 H 0.11081 0.78055 0.1484 0.0
C2487 C 0.08112 0.75484 0.23072 0.0
C2488 C 0.08141 0.75781 0.25527 0.0
C2489 C 0.09205 0.77287 0.26429 0.0
C2490 C 0.10231 0.78477 0.24908 0.0
C2491 C 0.1018 0.7814 0.22493 0.0
C2492 C 0.09145 0.76676 0.21588 0.0
C2493 C 0.09357 0.76579 0.18954 0.0
C2494 C 0.0983 0.75352 0.18382 0.0
C2495 C 0.0788 0.76249 0.17571 0.0
C2496 C 0.10678 0.7821 0.18515 0.0
C2497 C 0.11138 0.79106 0.20559 0.0
C2498 C 0.12367 0.80648 0.20554 0.0
C2499 C 0.13138 0.81283 0.18398 0.0
C2500 C 0.12676 0.80373 0.16287 0.0
C2501 C 0.11436 0.78814 0.16382 0.0
H2502 H 0.25776 0.34328 0.2357 0.0
H2503 H 0.23498 0.29419 0.25337 0.0
H2504 H 0.21309 0.28901 0.2266 0.0
H2505 H 0.22267 0.34606 0.2308 0.0
H2506 H 0.22982 0.35917 0.20598 0.0
H2507 H 0.2433 0.3592 0.22755 0.0
H2508 H 0.25827 0.35424 0.19416 0.0
H2509 H 0.24496 0.35439 0.1725 0.0
H2510 H 0.24779 0.33783 0.17435 0.0
H2511 H 0.19434 0.28897 0.19609 0.0
H2512 H 0.18118 0.29386 0.16268 0.0
H2513 H 0.21589 0.34304 0.16577 0.0
C2514 C 0.2482 0.33142 0.23389 0.0
C2515 C 0.24808 0.31916 0.24674 0.0
C2516 C 0.23525 0.30383 0.24399 0.0
C2517 C 0.22276 0.30076 0.22881 0.0
C2518 C 0.22321 0.31315 0.21655 0.0
C2519 C 0.23563 0.32816 0.21887 0.0
C2520 C 0.2336 0.3393 0.20297 0.0
C2521 C 0.23227 0.35166 0.21771 0.0
C2522 C 0.24694 0.34688 0.18493 0.0
C2523 C 0.21827 0.32814 0.19095 0.0
C2524 C 0.21237 0.31314 0.19917 0.0
C2525 C 0.19875 0.30071 0.18972 0.0
C2526 C 0.19127 0.30362 0.17086 0.0
C2527 C 0.19745 0.31884 0.1616 0.0
C2528 C 0.21087 0.33127 0.17238 0.0
H2529 H 0.24522 0.33415 0.42863 0.0
H2530 H 0.28755 0.37497 0.45313 0.0
H2531 H 0.2725 0.37975 0.48364 0.0
H2532 H 0.21796 0.34893 0.44023 0.0
H2533 H 0.20281 0.33022 0.45036 0.0
H2534 H 0.21643 0.33132 0.42825 0.0
H2535 H 0.22382 0.31461 0.45463 0.0
H2536 H 0.21015 0.31335 0.47662 0.0
H2537 H 0.23027 0.32077 0.48476 0.0
H2538 H 0.25349 0.37867 0.51362 0.0
H2539 H 0.23252 0.37047 0.54319 0.0
H2540 H 0.2026 0.32997 0.49989 0.0
C2541 C 0.25122 0.34431 0.44007 0.0
C2542 C 0.26749 0.35431 0.43845 0.0
C2543 C 0.27507 0.36721 0.45413 0.0
C2544 C 0.2666 0.37008 0.47134 0.0
C2545 C 0.25057 0.35991 0.47264 0.0
C2546 C 0.24296 0.34722 0.45752 0.0
C2547 C 0.22602 0.33709 0.46435 0.0
C2548 C 0.21516 0.33688 0.44462 0.0
C2549 C 0.22236 0.32048 0.47046 0.0
C2550 C 0.2254 0.34579 0.48613 0.0
C2551 C 0.2396 0.3591 0.4903 0.0
C2552 C 0.24225 0.3684 0.51036 0.0
C2553 C 0.23029 0.36367 0.52704 0.0
C2554 C 0.21591 0.34969 0.52368 0.0
C2555 C 0.21331 0.34094 0.50258 0.0
H2556 H 0.66016 0.92225 0.44943 0.0
H2557 H 0.69981 0.92906 0.40805 0.0
H2558 H 0.70361 0.91152 0.43498 0.0
H2559 H 0.6749 0.92136 0.50621 0.0
H2560 H 0.65658 0.90621 0.51754 0.0
H2561 H 0.65681 0.91882 0.4945 0.0
H2562 H 0.63938 0.89469 0.46809 0.0
H2563 H 0.63923 0.882 0.49102 0.0
H2564 H 0.64563 0.88086 0.46155 0.0
H2565 H 0.70422 0.895 0.46822 0.0
H2566 H 0.70179 0.88089 0.50531 0.0
H2567 H 0.66019 0.88285 0.52295 0.0
C2568 C 0.66961 0.91998 0.44613 0.0
C2569 C 0.67979 0.92698 0.42693 0.0
C2570 C 0.69195 0.92374 0.4228 0.0
C2571 C 0.69414 0.91379 0.4379 0.0
C2572 C 0.68385 0.90697 0.4567 0.0
C2573 C 0.67175 0.90984 0.46075 0.0
C2574 C 0.66246 0.90119 0.48234 0.0
C2575 C 0.66272 0.91257 0.50126 0.0
C2576 C 0.64568 0.88896 0.47532 0.0
C2577 C 0.67161 0.89353 0.49035 0.0
C2578 C 0.68382 0.89689 0.47524 0.0
C2579 C 0.69452 0.89202 0.47995 0.0
C2580 C 0.69296 0.88388 0.50101 0.0
C2581 C 0.68074 0.88064 0.51707 0.0
C2582 C 0.66969 0.88515 0.51113 0.0
H2583 H 0.09984 0.74566 0.44962 0.0
H2584 H 0.0683 0.76393 0.44358 0.0
H2585 H 0.08494 0.78532 0.47124 0.0
H2586 H 0.10728 0.75271 0.51047 0.0
H2587 H 0.12749 0.758 0.50883 0.0
H2588 H 0.11386 0.74507 0.48691 0.0
H2589 H 0.13116 0.76355 0.45364 0.0
H2590 H 0.14476 0.77666 0.47557 0.0
H2591 H 0.1362 0.78372 0.45424 0.0
H2592 H 0.10348 0.80317 0.5022 0.0
H2593 H 0.1218 0.81522 0.53598 0.0
H2594 H 0.14191 0.78615 0.52091 0.0
C2595 C 0.09658 0.75433 0.45378 0.0
C2596 C 0.08275 0.75311 0.44445 0.0
C2597 C 0.07873 0.7645 0.45074 0.0
C2598 C 0.08821 0.7768 0.46621 0.0
C2599 C 0.10174 0.77764 0.47512 0.0
C2600 C 0.10592 0.76669 0.46918 0.0
C2601 C 0.12042 0.76958 0.4826 0.0
C2602 C 0.11705 0.75551 0.49813 0.0
C2603 C 0.13394 0.77362 0.46549 0.0
C2604 C 0.12346 0.78359 0.49756 0.0
C2605 C 0.11268 0.78819 0.49272 0.0
C2606 C 0.1122 0.79992 0.50579 0.0
C2607 C 0.12267 0.80675 0.52483 0.0
C2608 C 0.13347 0.80187 0.53048 0.0
C2609 C 0.13415 0.79047 0.51628 0.0
H2610 H 0.31879 0.07125 0.79447 0.0
H2611 H 0.36138 0.10077 0.75613 0.0
H2612 H 0.3651 0.12358 0.7794 0.0
H2613 H 0.30595 0.10009 0.80109 0.0
H2614 H 0.29877 0.09391 0.83071 0.0
H2615 H 0.29861 0.08011 0.80957 0.0
H2616 H 0.31463 0.07339 0.83878 0.0
H2617 H 0.31467 0.087 0.86005 0.0
H2618 H 0.33284 0.08883 0.85048 0.0
H2619 H 0.36515 0.14278 0.80842 0.0
H2620 H 0.3629 0.1564 0.84361 0.0
H2621 H 0.32008 0.11463 0.86293 0.0
C2622 C 0.32877 0.08257 0.7908 0.0
C2623 C 0.33981 0.08428 0.77354 0.0
C2624 C 0.35288 0.0992 0.76946 0.0
C2625 C 0.355 0.11224 0.7824 0.0
C2626 C 0.34394 0.11018 0.79934 0.0
C2627 C 0.33114 0.0957 0.80371 0.0
C2628 C 0.32168 0.09645 0.82421 0.0
C2629 C 0.30528 0.0924 0.81589 0.0
C2630 C 0.32092 0.08579 0.84458 0.0
C2631 C 0.33138 0.11351 0.83106 0.0
C2632 C 0.34401 0.12128 0.81623 0.0
C2633 C 0.35518 0.13688 0.81996 0.0
C2634 C 0.35373 0.14458 0.83991 0.0
C2635 C 0.34127 0.13663 0.85597 0.0
C2636 C 0.3297 0.12104 0.85092 0.0
H2637 H 0.91542 0.25248 0.77623 0.0
H2638 H 0.94505 0.23277 0.76252 0.0
H2639 H 0.92952 0.21141 0.7906 0.0
H2640 H 0.91209 0.24551 0.83777 0.0
H2641 H 0.89218 0.24124 0.83941 0.0
H2642 H 0.90476 0.25394 0.81668 0.0
H2643 H 0.88487 0.23624 0.78449 0.0
H2644 H 0.8723 0.22338 0.80717 0.0
H2645 H 0.87878 0.2158 0.78341 0.0
H2646 H 0.9113 0.19285 0.82156 0.0
H2647 H 0.89392 0.18042 0.85583 0.0
H2648 H 0.87673 0.21275 0.84951 0.0
C2649 C 0.91848 0.24353 0.77891 0.0
C2650 C 0.93132 0.24415 0.76716 0.0
C2651 C 0.93525 0.23247 0.77146 0.0
C2652 C 0.92642 0.22025 0.78718 0.0
C2653 C 0.91378 0.21995 0.79848 0.0
C2654 C 0.90992 0.23139 0.79469 0.0
C2655 C 0.89664 0.22917 0.8104 0.0
C2656 C 0.90173 0.2433 0.82705 0.0
C2657 C 0.8823 0.22595 0.79547 0.0
C2658 C 0.89377 0.21487 0.82397 0.0
C2659 C 0.90356 0.20953 0.81658 0.0
C2660 C 0.90348 0.19684 0.82733 0.0
C2661 C 0.89351 0.18978 0.84664 0.0
C2662 C 0.88395 0.19559 0.85511 0.0
C2663 C 0.88384 0.20802 0.8432 0.0
H2664 H 0.73734 0.6667 0.80229 0.0
H2665 H 0.77398 0.69047 0.75054 0.0
H2666 H 0.79342 0.69201 0.77974 0.0
H2667 H 0.76031 0.68827 0.85465 0.0
H2668 H 0.75119 0.67127 0.87319 0.0
H2669 H 0.74051 0.67319 0.84874 0.0
H2670 H 0.73512 0.64655 0.83181 0.0
H2671 H 0.7458 0.64457 0.85613 0.0
H2672 H 0.75127 0.64349 0.826 0.0
H2673 H 0.8086 0.68937 0.81432 0.0
H2674 H 0.81797 0.683 0.8512 0.0
H2675 H 0.77097 0.66079 0.87903 0.0
C2676 C 0.74949 0.67255 0.79724 0.0
C2677 C 0.75415 0.67849 0.77417 0.0
C2678 C 0.77014 0.68572 0.76809 0.0
C2679 C 0.78127 0.68673 0.78459 0.0
C2680 C 0.77622 0.68052 0.8071 0.0
C2681 C 0.76071 0.67364 0.81342 0.0
C2682 C 0.75809 0.66713 0.83823 0.0
C2683 C 0.75218 0.67547 0.85467 0.0
C2684 C 0.74692 0.64939 0.83801 0.0
C2685 C 0.7745 0.67118 0.84475 0.0
C2686 C 0.78487 0.679 0.82674 0.0
C2687 C 0.8006 0.68339 0.82864 0.0
C2688 C 0.8058 0.67967 0.84955 0.0
C2689 C 0.79528 0.67166 0.86818 0.0
C2690 C 0.77945 0.66737 0.86552 0.0
H2691 H 0.73429 0.64999 0.55342 0.0
H2692 H 0.76737 0.66467 0.61193 0.0
H2693 H 0.78664 0.6635 0.58554 0.0
H2694 H 0.74491 0.62327 0.5262 0.0
H2695 H 0.74235 0.62822 0.49641 0.0
H2696 H 0.73097 0.62948 0.52028 0.0
H2697 H 0.74079 0.65839 0.50998 0.0
H2698 H 0.75216 0.6572 0.48608 0.0
H2699 H 0.76146 0.67192 0.50884 0.0
H2700 H 0.80287 0.66207 0.55174 0.0
H2701 H 0.81447 0.66073 0.51345 0.0
H2702 H 0.7703 0.64632 0.47806 0.0
C2703 C 0.74559 0.65296 0.56068 0.0
C2704 C 0.74932 0.65739 0.58472 0.0
C2705 C 0.76419 0.66105 0.59361 0.0
C2706 C 0.77523 0.66046 0.57876 0.0
C2707 C 0.77118 0.65609 0.5551 0.0
C2708 C 0.75668 0.65234 0.54617 0.0
C2709 C 0.7553 0.64836 0.52002 0.0
C2710 C 0.74263 0.63132 0.51547 0.0
C2711 C 0.75225 0.65964 0.50538 0.0
C2712 C 0.77139 0.65079 0.51549 0.0
C2713 C 0.7804 0.65515 0.53589 0.0
C2714 C 0.79588 0.65855 0.53567 0.0
C2715 C 0.80236 0.65771 0.51392 0.0
C2716 C 0.79336 0.65359 0.49276 0.0
C2717 C 0.77759 0.64977 0.49384 0.0
H2718 H 0.32712 0.07456 0.56193 0.0
H2719 H 0.36535 0.10609 0.60767 0.0
H2720 H 0.37083 0.12806 0.58096 0.0
H2721 H 0.34447 0.09106 0.50689 0.0
H2722 H 0.32677 0.0884 0.49341 0.0
H2723 H 0.32582 0.07548 0.51649 0.0
H2724 H 0.30765 0.08206 0.54077 0.0
H2725 H 0.30864 0.0951 0.51779 0.0
H2726 H 0.31392 0.10211 0.5479 0.0
H2727 H 0.37329 0.146 0.54716 0.0
H2728 H 0.37226 0.15839 0.50979 0.0
H2729 H 0.33048 0.11557 0.4889 0.0
C2730 C 0.33661 0.08612 0.56624 0.0
C2731 C 0.34592 0.08876 0.58659 0.0
C2732 C 0.35816 0.10398 0.59201 0.0
C2733 C 0.3613 0.11647 0.57702 0.0
C2734 C 0.35188 0.11353 0.55701 0.0
C2735 C 0.33968 0.09875 0.55176 0.0
C2736 C 0.33134 0.09865 0.52918 0.0
C2737 C 0.33216 0.08775 0.51039 0.0
C2738 C 0.31438 0.09422 0.53422 0.0
C2739 C 0.34101 0.11556 0.52215 0.0
C2740 C 0.35281 0.124 0.53836 0.0
C2741 C 0.36392 0.13958 0.53455 0.0
C2742 C 0.36316 0.14657 0.51332 0.0
C2743 C 0.35131 0.138 0.49625 0.0
C2744 C 0.33983 0.12246 0.50133 0.0
H2745 H 0.93268 0.26317 0.54529 0.0
H2746 H 0.89694 0.24951 0.59899 0.0
H2747 H 0.87744 0.2304 0.57094 0.0
H2748 H 0.90847 0.25876 0.49412 0.0
H2749 H 0.91784 0.25104 0.4756 0.0
H2750 H 0.9286 0.26448 0.49932 0.0
H2751 H 0.93545 0.24449 0.51689 0.0
H2752 H 0.92474 0.23102 0.49323 0.0
H2753 H 0.91997 0.22512 0.5237 0.0
H2754 H 0.86202 0.21163 0.53705 0.0
H2755 H 0.85238 0.19534 0.50053 0.0
H2756 H 0.89894 0.22066 0.47111 0.0
C2757 C 0.92076 0.25619 0.55123 0.0
C2758 C 0.91637 0.25792 0.57436 0.0
C2759 C 0.90057 0.24863 0.58122 0.0
C2760 C 0.88941 0.23765 0.56546 0.0
C2761 C 0.89422 0.2361 0.54291 0.0
C2762 C 0.90954 0.24516 0.53584 0.0
C2763 C 0.91196 0.24086 0.51111 0.0
C2764 C 0.91701 0.2546 0.49403 0.0
C2765 C 0.92372 0.23502 0.51126 0.0
C2766 C 0.89567 0.22783 0.50542 0.0
C2767 C 0.88551 0.22528 0.52381 0.0
C2768 C 0.86987 0.2136 0.52249 0.0
C2769 C 0.86452 0.20435 0.50177 0.0
C2770 C 0.87481 0.20685 0.48274 0.0
C2771 C 0.89059 0.2187 0.4849 0.0
H2772 H 0.35716 0.25921 0.57116 0.0
H2773 H 0.30715 0.23805 0.57973 0.0
H2774 H 0.30313 0.21569 0.55497 0.0
H2775 H 0.35598 0.24932 0.51124 0.0
H2776 H 0.37213 0.24582 0.51311 0.0
H2777 H 0.37091 0.25912 0.53358 0.0
H2778 H 0.37265 0.24322 0.56872 0.0
H2779 H 0.37354 0.22967 0.54821 0.0
H2780 H 0.3587 0.2227 0.57069 0.0
H2781 H 0.30436 0.1971 0.52632 0.0
H2782 H 0.31072 0.18504 0.49287 0.0
H2783 H 0.35983 0.21767 0.50365 0.0
C2784 C 0.34538 0.24973 0.56813 0.0
C2785 C 0.33246 0.25034 0.57735 0.0
C2786 C 0.31721 0.23789 0.57262 0.0
C2787 C 0.31482 0.22505 0.55885 0.0
C2788 C 0.32781 0.22479 0.55004 0.0
C2789 C 0.34279 0.23686 0.55435 0.0
C2790 C 0.35465 0.23447 0.54096 0.0
C2791 C 0.36396 0.24798 0.5237 0.0
C2792 C 0.36553 0.23239 0.55818 0.0
C2793 C 0.34397 0.21942 0.52783 0.0
C2794 C 0.32853 0.21387 0.53367 0.0
C2795 C 0.3164 0.20108 0.52202 0.0
C2796 C 0.32009 0.19422 0.50321 0.0
C2797 C 0.33575 0.20015 0.49636 0.0
C2798 C 0.34784 0.21253 0.50935 0.0
H2799 H 0.7402 0.07346 0.54376 0.0
H2800 H 0.75531 0.11035 0.59645 0.0
H2801 H 0.77404 0.12918 0.56777 0.0
H2802 H 0.77738 0.08526 0.52111 0.0
H2803 H 0.77099 0.08006 0.49074 0.0
H2804 H 0.75779 0.06992 0.51458 0.0
H2805 H 0.73789 0.07698 0.49708 0.0
H2806 H 0.75104 0.08712 0.47312 0.0
H2807 H 0.7439 0.0971 0.49152 0.0
H2808 H 0.79219 0.14367 0.53374 0.0
H2809 H 0.8083 0.15241 0.49746 0.0
H2810 H 0.78176 0.10555 0.4683 0.0
C2811 C 0.74721 0.08557 0.54905 0.0
C2812 C 0.74627 0.0905 0.57222 0.0
C2813 C 0.75591 0.10636 0.57875 0.0
C2814 C 0.76652 0.11713 0.56257 0.0
C2815 C 0.76736 0.11185 0.53996 0.0
C2816 C 0.75794 0.09643 0.53322 0.0
C2817 C 0.76179 0.09348 0.50847 0.0
C2818 C 0.76732 0.08148 0.50876 0.0
C2819 C 0.74782 0.08837 0.49155 0.0
C2820 C 0.77495 0.10957 0.50245 0.0
C2821 C 0.77793 0.12007 0.52069 0.0
C2822 C 0.78989 0.13556 0.51928 0.0
C2823 C 0.79903 0.1404 0.49867 0.0
C2824 C 0.79622 0.12975 0.47983 0.0
C2825 C 0.78399 0.11415 0.48196 0.0
H2826 H 0.90807 0.64552 0.57158 0.0
H2827 H 0.93593 0.69579 0.57854 0.0
H2828 H 0.91807 0.69865 0.55102 0.0
H2829 H 0.90085 0.64491 0.5103 0.0
H2830 H 0.88127 0.62857 0.5114 0.0
H2831 H 0.89539 0.63059 0.53336 0.0
H2832 H 0.8768 0.62936 0.56661 0.0
H2833 H 0.86271 0.62758 0.54464 0.0
H2834 H 0.8698 0.643 0.56653 0.0
H2835 H 0.8986 0.69619 0.52061 0.0
H2836 H 0.88017 0.68857 0.48675 0.0
H2837 H 0.86463 0.63997 0.49968 0.0
C2838 C 0.91025 0.65711 0.56756 0.0
C2839 C 0.92336 0.67044 0.57719 0.0
C2840 C 0.92603 0.68543 0.57117 0.0
C2841 C 0.91586 0.68716 0.55579 0.0
C2842 C 0.90304 0.67378 0.54661 0.0
C2843 C 0.90026 0.65904 0.55212 0.0
C2844 C 0.88642 0.64663 0.53827 0.0
C2845 C 0.89128 0.63713 0.52239 0.0
C2846 C 0.87314 0.63602 0.55502 0.0
C2847 C 0.88208 0.65672 0.52367 0.0
C2848 C 0.89167 0.67235 0.52906 0.0
C2849 C 0.89081 0.68399 0.51656 0.0
C2850 C 0.88028 0.67959 0.4975 0.0
C2851 C 0.87076 0.66372 0.49123 0.0
C2852 C 0.87138 0.65214 0.50483 0.0
H2853 H 0.93166 0.68631 0.79395 0.0
H2854 H 0.8991 0.65373 0.74192 0.0
H2855 H 0.87711 0.64977 0.767 0.0
H2856 H 0.91144 0.66566 0.84458 0.0
H2857 H 0.91568 0.68262 0.86207 0.0
H2858 H 0.92883 0.68402 0.83903 0.0
H2859 H 0.92641 0.70637 0.81962 0.0
H2860 H 0.91317 0.70498 0.84258 0.0
H2861 H 0.90741 0.70329 0.81182 0.0
H2862 H 0.85886 0.64706 0.79943 0.0
H2863 H 0.84569 0.64565 0.83695 0.0
H2864 H 0.8897 0.68149 0.86711 0.0
C2865 C 0.91989 0.67845 0.78778 0.0
C2866 C 0.9171 0.67042 0.76588 0.0
C2867 C 0.90152 0.66022 0.75842 0.0
C2868 C 0.88895 0.65786 0.77257 0.0
C2869 C 0.89209 0.66592 0.79405 0.0
C2870 C 0.90716 0.67607 0.8016 0.0
C2871 C 0.9073 0.68267 0.82599 0.0
C2872 C 0.91634 0.67849 0.84397 0.0
C2873 C 0.91397 0.70038 0.82493 0.0
C2874 C 0.89 0.6742 0.83127 0.0
C2875 C 0.88143 0.66469 0.81255 0.0
C2876 C 0.86539 0.65472 0.81404 0.0
C2877 C 0.85797 0.65412 0.83548 0.0
C2878 C 0.86655 0.66351 0.8552 0.0
C2879 C 0.88272 0.67405 0.85258 0.0
H2880 H 0.32863 0.26165 0.80085 0.0
H2881 H 0.31997 0.22996 0.74174 0.0
H2882 H 0.31894 0.21035 0.76951 0.0
H2883 H 0.35448 0.25268 0.83187 0.0
H2884 H 0.34786 0.2545 0.86084 0.0
H2885 H 0.34674 0.26552 0.83639 0.0
H2886 H 0.31713 0.25373 0.84372 0.0
H2887 H 0.31817 0.24258 0.8681 0.0
H2888 H 0.30465 0.23286 0.84399 0.0
H2889 H 0.31971 0.19435 0.80404 0.0
H2890 H 0.32305 0.18393 0.84214 0.0
H2891 H 0.33298 0.22705 0.87735 0.0
C2892 C 0.32656 0.25063 0.79366 0.0
C2893 C 0.32423 0.24737 0.76906 0.0
C2894 C 0.32143 0.23267 0.76054 0.0
C2895 C 0.32092 0.22146 0.77617 0.0
C2896 C 0.32331 0.2251 0.80028 0.0
C2897 C 0.32615 0.23937 0.80893 0.0
C2898 C 0.32904 0.24071 0.83543 0.0
C2899 C 0.34551 0.25414 0.84147 0.0
C2900 C 0.3165 0.24258 0.84858 0.0
C2901 C 0.32752 0.22503 0.84028 0.0
C2902 C 0.32408 0.21609 0.8199 0.0
C2903 C 0.32238 0.20124 0.82015 0.0
C2904 C 0.32436 0.19545 0.84182 0.0
C2905 C 0.32807 0.20454 0.86288 0.0
C2906 C 0.32966 0.21952 0.86186 0.0
H2907 H 0.76009 0.07029 0.78494 0.0
H2908 H 0.75244 0.10576 0.7535 0.0
H2909 H 0.77229 0.12555 0.7805 0.0
H2910 H 0.76358 0.08358 0.84381 0.0
H2911 H 0.77835 0.07896 0.85225 0.0
H2912 H 0.76475 0.06808 0.82886 0.0
H2913 H 0.78778 0.0749 0.80044 0.0
H2914 H 0.80147 0.08597 0.82375 0.0
H2915 H 0.80222 0.09503 0.79575 0.0
H2916 H 0.7919 0.14117 0.81247 0.0
H2917 H 0.80788 0.15073 0.8493 0.0
H2918 H 0.80225 0.10501 0.86019 0.0
C2919 C 0.76278 0.08227 0.78353 0.0
C2920 C 0.75479 0.08653 0.76713 0.0
C2921 C 0.75838 0.10226 0.76608 0.0
C2922 C 0.76973 0.11359 0.78117 0.0
C2923 C 0.77738 0.10901 0.79721 0.0
C2924 C 0.77397 0.09369 0.7986 0.0
C2925 C 0.78291 0.09155 0.81866 0.0
C2926 C 0.77173 0.07986 0.83698 0.0
C2927 C 0.79427 0.08657 0.80907 0.0
C2928 C 0.79157 0.10795 0.82872 0.0
C2929 C 0.78848 0.11794 0.81583 0.0
C2930 C 0.79457 0.13351 0.82251 0.0
C2931 C 0.80367 0.13888 0.8433 0.0
C2932 C 0.80643 0.12863 0.85709 0.0
C2933 C 0.80055 0.1131 0.84949 0.0
H2934 H 0.08224 0.3643 0.04912 0.0
H2935 H 0.06226 0.32854 0.99445 0.0
H2936 H 0.08223 0.3212 0.00297 0.0
H2937 H 0.12368 0.37493 0.03971 0.0
H2938 H 0.12797 0.37788 0.07106 0.0
H2939 H 0.11348 0.38167 0.05836 0.0
H2940 H 0.09304 0.3627 0.08832 0.0
H2941 H 0.10746 0.35898 0.10117 0.0
H2942 H 0.08937 0.34299 0.09018 0.0
H2943 H 0.10168 0.31509 0.02197 0.0
H2944 H 0.11846 0.31077 0.04981 0.0
H2945 H 0.12718 0.35189 0.08979 0.0
C2946 C 0.08225 0.3551 0.03868 0.0
C2947 C 0.07075 0.347 0.02112 0.0
C2948 C 0.0711 0.33502 0.00781 0.0
C2949 C 0.0824 0.33078 0.01252 0.0
C2950 C 0.09345 0.33884 0.03026 0.0
C2951 C 0.09355 0.35088 0.04295 0.0
C2952 C 0.10585 0.35692 0.0623 0.0
C2953 C 0.1185 0.37386 0.05756 0.0
C2954 C 0.09848 0.35529 0.08693 0.0
C2955 C 0.11216 0.34593 0.05931 0.0
C2956 C 0.10502 0.33568 0.04059 0.0
C2957 C 0.10765 0.32331 0.03628 0.0
C2958 C 0.11731 0.321 0.05209 0.0
C2959 C 0.12417 0.331 0.07197 0.0
C2960 C 0.12213 0.34405 0.07475 0.0
H2961 H 0.67519 0.73323 0.04326 0.0
H2962 H 0.6304 0.72203 0.01307 0.0
H2963 H 0.63557 0.74847 0.02342 0.0
H2964 H 0.67254 0.75221 0.09293 0.0
H2965 H 0.69297 0.7666 0.0943 0.0
H2966 H 0.68681 0.74794 0.08082 0.0
H2967 H 0.7012 0.76162 0.04215 0.0
H2968 H 0.70727 0.78038 0.05552 0.0
H2969 H 0.69668 0.77509 0.02777 0.0
H2970 H 0.64417 0.77494 0.04204 0.0
H2971 H 0.65478 0.79803 0.06884 0.0
H2972 H 0.6935 0.79136 0.08698 0.0
C2973 C 0.66651 0.73635 0.03858 0.0
C2974 C 0.65239 0.72553 0.02733 0.0
C2975 C 0.64142 0.73018 0.02137 0.0
C2976 C 0.64425 0.74518 0.0272 0.0
C2977 C 0.65816 0.75544 0.03879 0.0
C2978 C 0.66912 0.75118 0.04435 0.0
C2979 C 0.68238 0.76361 0.05895 0.0
C2980 C 0.68374 0.75721 0.08317 0.0
C2981 C 0.6978 0.77059 0.04527 0.0
C2982 C 0.67691 0.77528 0.06161 0.0
C2983 C 0.66307 0.77058 0.04949 0.0
C2984 C 0.65516 0.7789 0.05118 0.0
C2985 C 0.66127 0.79202 0.0663 0.0
C2986 C 0.67501 0.79647 0.07959 0.0
C2987 C 0.68313 0.7883 0.07657 0.0
H2988 H 0.26908 0.94035 0.0279 0.0
H2989 H 0.28887 0.91193 0.00643 0.0
H2990 H 0.26438 0.88816 0.01747 0.0
H2991 H 0.25126 0.9206 0.07793 0.0
H2992 H 0.23404 0.92229 0.07525 0.0
H2993 H 0.25191 0.93659 0.06184 0.0
H2994 H 0.23796 0.93126 0.02097 0.0
H2995 H 0.21997 0.91688 0.03431 0.0
H2996 H 0.22769 0.91167 0.0092 0.0
H2997 H 0.24006 0.86839 0.03804 0.0
H2998 H 0.21798 0.85438 0.06514 0.0
H2999 H 0.21261 0.89518 0.06965 0.0
C3000 C 0.26806 0.92907 0.02496 0.0
C3001 C 0.28076 0.92789 0.01629 0.0
C3002 C 0.27915 0.91301 0.0128 0.0
C3003 C 0.2653 0.89947 0.01901 0.0
C3004 C 0.25308 0.90105 0.02813 0.0
C3005 C 0.25425 0.91547 0.03069 0.0
C3006 C 0.24004 0.91417 0.04278 0.0
C3007 C 0.24459 0.92399 0.0658 0.0
C3008 C 0.23087 0.91877 0.0258 0.0
C3009 C 0.23111 0.8969 0.04791 0.0
C3010 C 0.23871 0.88947 0.03909 0.0
C3011 C 0.23373 0.87396 0.04438 0.0
C3012 C 0.22105 0.86603 0.05973 0.0
C3013 C 0.21342 0.8736 0.06962 0.0
C3014 C 0.21815 0.88901 0.06256 0.0
H3015 H 0.32913 0.0617 0.97237 0.0
H3016 H 0.37351 0.0885 0.00871 0.0
H3017 H 0.37291 0.11272 0.00101 0.0
H3018 H 0.3376 0.087 0.92633 0.0
H3019 H 0.31835 0.08442 0.92298 0.0
H3020 H 0.32074 0.06909 0.93542 0.0
H3021 H 0.30565 0.0691 0.97291 0.0
H3022 H 0.3033 0.08455 0.96058 0.0
H3023 H 0.31217 0.08695 0.98944 0.0
H3024 H 0.36952 0.13402 0.98445 0.0
H3025 H 0.36476 0.1508 0.95777 0.0
H3026 H 0.3222 0.11042 0.93256 0.0
C3027 C 0.33844 0.07264 0.97935 0.0
C3028 C 0.35129 0.0733 0.99133 0.0
C3029 C 0.36356 0.08782 -0.00046 0.0
C3030 C 0.36324 0.10159 0.99543 0.0
C3031 C 0.35055 0.10062 0.98312 0.0
C3032 C 0.33837 0.08651 0.97517 0.0
C3033 C 0.3272 0.08885 0.95966 0.0
C3034 C 0.32591 0.08194 0.93463 0.0
C3035 C 0.31113 0.08195 0.97136 0.0
C3036 C 0.33539 0.10648 0.95923 0.0
C3037 C 0.34864 0.11304 0.97333 0.0
C3038 C 0.35899 0.12906 0.97378 0.0
C3039 C 0.35611 0.13854 0.95865 0.0
C3040 C 0.34305 0.13196 0.94312 0.0
C3041 C 0.33223 0.11581 0.94432 0.0
H3042 H 0.92158 0.28547 0.95852 0.0
H3043 H 0.93685 0.27008 0.01962 0.0
H3044 H 0.91676 0.24283 0.01086 0.0
H3045 H 0.87899 0.25522 0.96199 0.0
H3046 H 0.87724 0.25329 0.93012 0.0
H3047 H 0.89091 0.27175 0.94354 0.0
H3048 H 0.91328 0.27225 0.91915 0.0
H3049 H 0.89973 0.25386 0.90571 0.0
H3050 H 0.9167 0.25606 0.92108 0.0
H3051 H 0.89795 0.21723 0.99216 0.0
H3052 H 0.88275 0.19546 0.96436 0.0
H3053 H 0.87865 0.22728 0.91619 0.0
C3054 C 0.92031 0.2764 0.9705 0.0
C3055 C 0.93068 0.27987 0.98983 0.0
C3056 C 0.92902 0.26765 0.00469 0.0
C3057 C 0.91757 0.25216 -4e-05 0.0
C3058 C 0.90778 0.24907 0.98039 0.0
C3059 C 0.90897 0.26086 0.96595 0.0
C3060 C 0.89825 0.2543 0.94455 0.0
C3061 C 0.88559 0.25892 0.94509 0.0
C3062 C 0.90755 0.25942 0.92126 0.0
C3063 C 0.89136 0.237 0.94868 0.0
C3064 C 0.89679 0.2342 0.96965 0.0
C3065 C 0.89332 0.21923 0.97599 0.0
C3066 C 0.88455 0.20688 0.96011 0.0
C3067 C 0.87941 0.20959 0.93806 0.0
C3068 C 0.88237 0.22479 0.93288 0.0
H3069 H 0.73035 0.6712 0.9902 0.0
H3070 H 0.70713 0.62205 0.00749 0.0
H3071 H 0.73135 0.62168 -0.00087 0.0
H3072 H 0.74931 0.6688 0.94125 0.0
H3073 H 0.76694 0.68723 0.94564 0.0
H3074 H 0.74888 0.68432 0.95745 0.0
H3075 H 0.7614 0.69182 -0.00054 0.0
H3076 H 0.77952 0.69463 0.98772 0.0
H3077 H 0.77029 0.68142 0.01199 0.0
H3078 H 0.75619 0.62541 0.9821 0.0
H3079 H 0.77889 0.63261 0.95671 0.0
H3080 H 0.78689 0.67974 0.95211 0.0
C3081 C 0.73045 0.66042 0.99267 0.0
C3082 C 0.71685 0.64667 -0.00036 0.0
C3083 C 0.71746 0.63281 0.00261 0.0
C3084 C 0.73118 0.63248 0.99788 0.0
C3085 C 0.74427 0.64616 0.9905 0.0
C3086 C 0.74405 0.65991 0.98808 0.0
C3087 C 0.75905 0.67253 0.97735 0.0
C3088 C 0.75584 0.67856 0.95405 0.0
C3089 C 0.7681 0.68589 0.9952 0.0
C3090 C 0.7674 0.66349 0.97288 0.0
C3091 C 0.75883 0.64839 0.981 0.0
C3092 C 0.76323 0.63732 0.97624 0.0
C3093 C 0.77629 0.64159 0.96191 0.0
C3094 C 0.78479 0.65679 0.95238 0.0
C3095 C 0.78069 0.66804 0.9591 0.0
H3096 H 0.93934 0.66959 0.97671 0.0
H3097 H 0.91264 0.62275 0.00472 0.0
H3098 H 0.8883 0.62266 0.99551 0.0
H3099 H 0.91196 0.68343 0.99382 0.0
H3100 H 0.91523 0.694 0.96652 0.0
H3101 H 0.9306 0.69166 0.9794 0.0
H3102 H 0.93307 0.67942 0.94002 0.0
H3103 H 0.91782 0.68182 0.92704 0.0
H3104 H 0.91604 0.66282 0.92751 0.0
H3105 H 0.86701 0.62597 0.97804 0.0
H3106 H 0.85068 0.63181 0.9518 0.0
H3107 H 0.89098 0.67644 0.93484 0.0
C3108 C 0.92839 0.65938 0.98121 0.0
C3109 C 0.92798 0.64623 0.99164 0.0
C3110 C 0.91335 0.63313 0.99725 0.0
C3111 C 0.89942 0.63294 0.99203 0.0
C3112 C 0.90027 0.64597 0.9813 0.0
C3113 C 0.91439 0.65896 0.97597 0.0
C3114 C 0.91212 0.67068 0.96199 0.0
C3115 C 0.91781 0.68584 0.97629 0.0
C3116 C 0.92024 0.67386 0.93771 0.0
C3117 C 0.89456 0.66194 0.95933 0.0
C3118 C 0.8879 0.64786 0.97104 0.0
C3119 C 0.87202 0.63711 0.96924 0.0
C3120 C 0.8628 0.64058 0.95439 0.0
C3121 C 0.86952 0.65464 0.94138 0.0
C3122 C 0.88549 0.66566 0.94468 0.0
H3123 H 0.36231 0.28387 0.9849 0.0
H3124 H 0.31502 0.26667 0.00918 0.0
H3125 H 0.30863 0.23978 -0.00047 0.0
H3126 H 0.35296 0.2601 0.93618 0.0
H3127 H 0.36939 0.25706 0.93817 0.0
H3128 H 0.37078 0.27446 0.95045 0.0
H3129 H 0.37842 0.26824 0.99134 0.0
H3130 H 0.37693 0.25069 0.97914 0.0
H3131 H 0.36585 0.24972 0.00502 0.0
H3132 H 0.30623 0.21561 0.98107 0.0
H3133 H 0.30824 0.19638 0.95524 0.0
H3134 H 0.35733 0.22886 0.94541 0.0
C3135 C 0.35076 0.27441 0.98898 0.0
C3136 C 0.33919 0.27739 0.99785 0.0
C3137 C 0.32406 0.26469 0.0022 0.0
C3138 C 0.32036 0.24935 0.997 0.0
C3139 C 0.33195 0.24685 0.98775 0.0
C3140 C 0.3469 0.25904 0.98397 0.0
C3141 C 0.3568 0.25348 0.97164 0.0
C3142 C 0.36282 0.26176 0.9477 0.0
C3143 C 0.3703 0.25566 0.98776 0.0
C3144 C 0.34493 0.23639 0.9682 0.0
C3145 C 0.33069 0.23273 0.97786 0.0
C3146 C 0.31743 0.21817 0.97414 0.0
C3147 C 0.31866 0.20729 0.95959 0.0
C3148 C 0.33306 0.21101 0.94921 0.0
C3149 C 0.3464 0.22553 0.95416 0.0
H3150 H 0.72278 0.08382 0.97442 0.0
H3151 H 0.73885 0.05965 0.02025 0.0
H3152 H 0.7661 0.0783 0.00937 0.0
H3153 H 0.74786 0.08965 0.92846 0.0
H3154 H 0.75117 0.10862 0.9203 0.0
H3155 H 0.73331 0.09501 0.93456 0.0
H3156 H 0.73852 0.11536 0.96766 0.0
H3157 H 0.75646 0.12906 0.95344 0.0
H3158 H 0.75663 0.12396 0.98407 0.0
H3159 H 0.79116 0.09753 0.98981 0.0
H3160 H 0.81164 0.11484 0.9619 0.0
H3161 H 0.77932 0.12683 0.92943 0.0
C3162 C 0.73208 0.08277 0.98274 0.0
C3163 C 0.72874 0.07039 0.99833 0.0
C3164 C 0.74118 0.06906 0.00825 0.0
C3165 C 0.75668 0.07966 0.00231 0.0
C3166 C 0.75957 0.09156 0.98648 0.0
C3167 C 0.7476 0.09319 0.97688 0.0
C3168 C 0.75363 0.10592 0.95844 0.0
C3169 C 0.74605 0.0994 0.934 0.0
C3170 C 0.75117 0.11937 0.96639 0.0
C3171 C 0.77076 0.11082 0.95855 0.0
C3172 C 0.77402 0.10261 0.97512 0.0
C3173 C 0.78881 0.10425 0.97709 0.0
C3174 C 0.80042 0.1142 0.96125 0.0
C3175 C 0.79712 0.12225 0.94354 0.0
C3176 C 0.78221 0.12086 0.9428 0.0
H3177 H 0.63893 0.91674 0.03155 0.0
H3178 H 0.68678 0.95071 0.01399 0.0
H3179 H 0.6947 0.93144 0.02291 0.0
H3180 H 0.64849 0.90382 0.08194 0.0
H3181 H 0.63327 0.88377 0.07891 0.0
H3182 H 0.63073 0.89893 0.06619 0.0
H3183 H 0.62545 0.8853 0.02503 0.0
H3184 H 0.62815 0.87013 0.03767 0.0
H3185 H 0.63962 0.88099 0.01259 0.0
H3186 H 0.69834 0.91018 0.03927 0.0
H3187 H 0.69768 0.88981 0.06496 0.0
H3188 H 0.64782 0.86983 0.07339 0.0
C3189 C 0.65106 0.92014 0.02926 0.0
C3190 C 0.66213 0.93531 0.02173 0.0
C3191 C 0.67788 0.93911 0.01902 0.0
C3192 C 0.68255 0.92821 0.02413 0.0
C3193 C 0.67139 0.91352 0.032 0.0
C3194 C 0.65597 0.90949 0.03464 0.0
C3195 C 0.6467 0.89378 0.04643 0.0
C3196 C 0.63938 0.89517 0.06974 0.0
C3197 C 0.63424 0.88184 0.02941 0.0
C3198 C 0.65947 0.88995 0.05102 0.0
C3199 C 0.67355 0.90128 0.04198 0.0
C3200 C 0.68732 0.90105 0.04599 0.0
C3201 C 0.68682 0.88935 0.06048 0.0
C3202 C 0.67268 0.87816 0.07104 0.0
C3203 C 0.65876 0.87813 0.06535 0.0
H3204 H 0.06975 0.71819 0.06278 0.0
H3205 H 0.07404 0.73183 0.9889 0.0
H3206 H 0.0947 0.75857 0.00012 0.0
H3207 H 0.07502 0.75328 0.08786 0.0
H3208 H 0.08591 0.75263 0.11309 0.0
H3209 H 0.07169 0.73481 0.09882 0.0
H3210 H 0.09281 0.72698 0.09251 0.0
H3211 H 0.10704 0.74478 0.10684 0.0
H3212 H 0.11056 0.74013 0.07736 0.0
H3213 H 0.11526 0.7844 0.02074 0.0
H3214 H 0.13249 0.80597 0.04853 0.0
H3215 H 0.11441 0.77372 0.10723 0.0
C3216 C 0.07517 0.72667 0.0488 0.0
C3217 C 0.07038 0.72285 0.02492 0.0
C3218 C 0.0775 0.73451 0.00736 0.0
C3219 C 0.08928 0.74969 0.01355 0.0
C3220 C 0.09378 0.75299 0.03735 0.0
C3221 C 0.08687 0.74172 0.05462 0.0
C3222 C 0.09343 0.74797 0.07897 0.0
C3223 C 0.08076 0.74712 0.09565 0.0
C3224 C 0.10144 0.73946 0.08952 0.0
C3225 C 0.10511 0.76457 0.07285 0.0
C3226 C 0.10528 0.76743 0.04885 0.0
C3227 C 0.11517 0.78224 0.03957 0.0
C3228 C 0.12492 0.79439 0.05537 0.0
C3229 C 0.1245 0.79156 0.08002 0.0
C3230 C 0.11469 0.77636 0.08855 0.0
H3231 H 0.26396 0.33477 0.02258 0.0
H3232 H 0.29056 0.38362 0.04199 0.0
H3233 H 0.26641 0.38285 0.05515 0.0
H3234 H 0.22653 0.33369 0.00494 0.0
H3235 H 0.21485 0.31484 0.01825 0.0
H3236 H 0.23346 0.32 0.00549 0.0
H3237 H 0.24237 0.31393 0.04538 0.0
H3238 H 0.22381 0.30868 0.05811 0.0
H3239 H 0.24147 0.32349 0.07216 0.0
H3240 H 0.24081 0.37589 0.07233 0.0
H3241 H 0.21603 0.36287 0.09444 0.0
H3242 H 0.20566 0.31845 0.06434 0.0
C3243 C 0.26452 0.34539 0.02878 0.0
C3244 C 0.27896 0.35932 0.03095 0.0
C3245 C 0.27951 0.37291 0.04 0.0
C3246 C 0.26586 0.37259 0.04735 0.0
C3247 C 0.25178 0.35857 0.04555 0.0
C3248 C 0.251 0.34519 0.0365 0.0
C3249 C 0.23492 0.33115 0.03978 0.0
C3250 C 0.22697 0.32453 0.01567 0.0
C3251 C 0.2357 0.31859 0.05475 0.0
C3252 C 0.22699 0.33857 0.05305 0.0
C3253 C 0.23681 0.35448 0.05569 0.0
C3254 C 0.23283 0.36355 0.06978 0.0
C3255 C 0.21873 0.35612 0.08218 0.0
C3256 C 0.20884 0.33982 0.08035 0.0
C3257 C 0.21278 0.33103 0.06507 0.0
H3258 H 0.75547 0.69898 0.37959 0.0
H3259 H 0.72683 0.65624 0.33959 0.0
H3260 H 0.74621 0.64821 0.3468 0.0
H3261 H 0.79416 0.70409 0.36522 0.0
H3262 H 0.80135 0.71028 0.39504 0.0
H3263 H 0.78693 0.71434 0.3828 0.0
H3264 H 0.76866 0.70041 0.41827 0.0
H3265 H 0.78309 0.69655 0.43071 0.0
H3266 H 0.76362 0.68069 0.42511 0.0
H3267 H 0.76681 0.64303 0.3625 0.0
H3268 H 0.78505 0.63998 0.38891 0.0
H3269 H 0.79955 0.68522 0.42041 0.0
C3270 C 0.75323 0.68797 0.37212 0.0
C3271 C 0.73956 0.67842 0.35869 0.0
C3272 C 0.73733 0.66412 0.3493 0.0
C3273 C 0.7483 0.65937 0.35338 0.0
C3274 C 0.76146 0.66896 0.367 0.0
C3275 C 0.7639 0.68291 0.3764 0.0
C3276 C 0.77782 0.69005 0.39309 0.0
C3277 C 0.79083 0.70561 0.38345 0.0
C3278 C 0.773 0.69203 0.41827 0.0
C3279 C 0.78248 0.67766 0.39229 0.0
C3280 C 0.77316 0.66577 0.37666 0.0
C3281 C 0.77437 0.65239 0.37446 0.0
C3282 C 0.78486 0.65081 0.38939 0.0
C3283 C 0.79379 0.66242 0.40652 0.0
C3284 C 0.79301 0.67627 0.40722 0.0
H3285 H 0.34449 0.06415 0.3796 0.0
H3286 H 0.30482 0.05672 0.33686 0.0
H3287 H 0.31037 0.08335 0.34687 0.0
H3288 H 0.33858 0.08342 0.42565 0.0
H3289 H 0.35892 0.09679 0.43157 0.0
H3290 H 0.35302 0.07812 0.41829 0.0
H3291 H 0.37164 0.09172 0.38304 0.0
H3292 H 0.37754 0.11049 0.39621 0.0
H3293 H 0.36992 0.10625 0.36631 0.0
H3294 H 0.31854 0.10973 0.3656 0.0
H3295 H 0.32775 0.13247 0.39285 0.0
H3296 H 0.36244 0.12264 0.42174 0.0
C3297 C 0.33724 0.06826 0.37173 0.0
C3298 C 0.32428 0.05837 0.35733 0.0
C3299 C 0.31478 0.06407 0.34805 0.0
C3300 C 0.31793 0.07923 0.35345 0.0
C3301 C 0.3307 0.0886 0.368 0.0
C3302 C 0.34022 0.08331 0.37693 0.0
C3303 C 0.35228 0.09498 0.39396 0.0
C3304 C 0.35058 0.0879 0.41882 0.0
C3305 C 0.36883 0.10123 0.38429 0.0
C3306 C 0.34775 0.10744 0.3939 0.0
C3307 C 0.33543 0.10374 0.37857 0.0
C3308 C 0.32838 0.1129 0.3773 0.0
C3309 C 0.33371 0.12582 0.39269 0.0
C3310 C 0.34582 0.12928 0.40919 0.0
C3311 C 0.35326 0.12031 0.40906 0.0
H3312 H 0.93753 0.27108 0.35961 0.0
H3313 H 0.96222 0.24617 0.34476 0.0
H3314 H 0.93831 0.22131 0.35277 0.0
H3315 H 0.91874 0.25007 0.40883 0.0
H3316 H 0.90087 0.25028 0.40391 0.0
H3317 H 0.91883 0.2656 0.39219 0.0
H3318 H 0.9065 0.25978 0.34999 0.0
H3319 H 0.8885 0.24427 0.36166 0.0
H3320 H 0.89814 0.24038 0.33775 0.0
H3321 H 0.91345 0.19985 0.3689 0.0
H3322 H 0.89071 0.18415 0.39411 0.0
H3323 H 0.88164 0.2226 0.3981 0.0
C3324 C 0.93787 0.26039 0.35767 0.0
C3325 C 0.95179 0.26064 0.3514 0.0
C3326 C 0.95167 0.24633 0.34905 0.0
C3327 C 0.93811 0.23211 0.35358 0.0
C3328 C 0.9247 0.23234 0.36027 0.0
C3329 C 0.92448 0.24612 0.36226 0.0
C3330 C 0.90926 0.24343 0.37263 0.0
C3331 C 0.9121 0.2529 0.39575 0.0
C3332 C 0.90006 0.24719 0.35441 0.0
C3333 C 0.90129 0.22611 0.37735 0.0
C3334 C 0.91022 0.21984 0.36959 0.0
C3335 C 0.90615 0.20451 0.37452 0.0
C3336 C 0.89309 0.1956 0.38873 0.0
C3337 C 0.88431 0.2021 0.39804 0.0
C3338 C 0.88806 0.21727 0.39114 0.0
H3339 H 0.03086 0.42074 0.31537 0.0
H3340 H 0.98197 0.38675 0.32532 0.0
H3341 H 0.97501 0.40673 0.31583 0.0
H3342 H 0.02929 0.45589 0.33617 0.0
H3343 H 0.04266 0.4679 0.31352 0.0
H3344 H 0.04415 0.45193 0.32577 0.0
H3345 H 0.04185 0.4404 0.28352 0.0
H3346 H 0.04058 0.4564 0.27124 0.0
H3347 H 0.02547 0.43667 0.26496 0.0
H3348 H 0.97287 0.42864 0.29863 0.0
H3349 H 0.97581 0.45022 0.27327 0.0
H3350 H 0.02589 0.47014 0.27444 0.0
C3351 C 0.0187 0.41754 0.31592 0.0
C3352 C 0.00699 0.40216 0.32129 0.0
C3353 C 0.99122 0.39851 0.32178 0.0
C3354 C 0.98713 0.4098 0.3164 0.0
C3355 C 0.99894 0.42475 0.31071 0.0
C3356 C 0.01442 0.42865 0.31049 0.0
C3357 C 0.02468 0.4449 0.30093 0.0
C3358 C 0.03586 0.4558 0.32026 0.0
C3359 C 0.03366 0.44456 0.27885 0.0
C3360 C 0.01247 0.44922 0.29463 0.0
C3361 C 0.99772 0.43758 0.30091 0.0
C3362 C 0.98438 0.43804 0.29424 0.0
C3363 C 0.98613 0.45034 0.27994 0.0
C3364 C 1.00108 0.46198 0.27252 0.0
C3365 C 0.01441 0.46172 0.28075 0.0
H3366 H 0.60826 0.61695 0.28702 0.0
H3367 H 0.5908 0.60805 0.35897 0.0
H3368 H 0.56994 0.58155 0.34673 0.0
H3369 H 0.57203 0.59745 0.25681 0.0
H3370 H 0.57887 0.58978 0.23368 0.0
H3371 H 0.59229 0.60772 0.24852 0.0
H3372 H 0.60986 0.59619 0.25969 0.0
H3373 H 0.59649 0.57822 0.24486 0.0
H3374 H 0.60161 0.57805 0.27555 0.0
H3375 H 0.54993 0.5563 0.32506 0.0
H3376 H 0.53369 0.53486 0.29676 0.0
H3377 H 0.56634 0.56043 0.24062 0.0
C3378 C 0.60001 0.60941 0.30017 0.0
C3379 C 0.60093 0.61449 0.32381 0.0
C3380 C 0.59017 0.60428 0.34071 0.0
C3381 C 0.57833 0.58927 0.33391 0.0
C3382 C 0.57767 0.58463 0.31029 0.0
C3383 C 0.58839 0.5944 0.2938 0.0
C3384 C 0.58543 0.58676 0.26964 0.0
C3385 C 0.58194 0.59598 0.25108 0.0
C3386 C 0.59916 0.58468 0.262 0.0
C3387 C 0.57114 0.57129 0.27485 0.0
C3388 C 0.56673 0.57017 0.29831 0.0
C3389 C 0.55339 0.55704 0.30669 0.0
C3390 C 0.54426 0.54489 0.29054 0.0
C3391 C 0.54857 0.54602 0.26636 0.0
C3392 C 0.56242 0.55929 0.2588 0.0
H3393 H 0.39368 0.99958 0.30354 0.0
H3394 H 0.37871 0.95823 0.3463 0.0
H3395 H 0.40298 0.95832 0.33653 0.0
H3396 H 0.40921 0.98932 0.25796 0.0
H3397 H 0.42562 0.00844 0.25273 0.0
H3398 H 0.40823 0.00647 0.26582 0.0
H3399 H 0.42433 0.02334 0.3018 0.0
H3400 H 0.44184 0.0254 0.28875 0.0
H3401 H 0.43641 0.01786 0.31838 0.0
H3402 H 0.42654 0.96035 0.31678 0.0
H3403 H 0.44729 0.96427 0.28907 0.0
H3404 H 0.44872 0.00606 0.26275 0.0
C3405 C 0.39571 0.99085 0.31157 0.0
C3406 C 0.38419 0.97886 0.32563 0.0
C3407 C 0.3872 0.96741 0.33518 0.0
C3408 C 0.40105 0.96746 0.32995 0.0
C3409 C 0.41197 0.97922 0.31555 0.0
C3410 C 0.40955 0.99084 0.30677 0.0
C3411 C 0.42247 0.00138 0.2901 0.0
C3412 C 0.41599 0.00139 0.26519 0.0
C3413 C 0.43182 0.01798 0.30038 0.0
C3414 C 0.43211 0.99341 0.28995 0.0
C3415 C 0.42597 0.98075 0.30494 0.0
C3416 C 0.43174 0.9705 0.30551 0.0
C3417 C 0.44368 0.97291 0.28975 0.0
C3418 C 0.44978 0.98552 0.27363 0.0
C3419 C 0.44434 0.99626 0.27471 0.0
H3420 H 0.6066 0.0054 0.31559 0.0
H3421 H 0.58168 0.95756 0.34047 0.0
H3422 H 0.55688 0.95622 0.3312 0.0
H3423 H 0.57684 0.01655 0.33082 0.0
H3424 H 0.58009 0.02716 0.30355 0.0
H3425 H 0.59587 0.02597 0.31748 0.0
H3426 H 0.60032 0.01471 0.27855 0.0
H3427 H 0.58469 0.01597 0.26454 0.0
H3428 H 0.58425 0.99758 0.26526 0.0
H3429 H 0.53502 0.95824 0.31369 0.0
H3430 H 0.5183 0.96262 0.28611 0.0
H3431 H 0.55709 0.00842 0.26996 0.0
C3432 C 0.59599 0.99465 0.31941 0.0
C3433 C 0.59634 0.98167 0.32912 0.0
C3434 C 0.58198 0.96792 0.33381 0.0
C3435 C 0.56771 0.96698 0.32848 0.0
C3436 C 0.56787 0.97982 0.31829 0.0
C3437 C 0.58165 0.99337 0.31366 0.0
C3438 C 0.57875 0.00457 0.29929 0.0
C3439 C 0.58315 0.01945 0.31365 0.0
C3440 C 0.58751 0.00842 0.27551 0.0
C3441 C 0.56128 0.99488 0.29562 0.0
C3442 C 0.55517 0.98083 0.30734 0.0
C3443 C 0.53958 0.96933 0.30485 0.0
C3444 C 0.53013 0.97197 0.28922 0.0
C3445 C 0.53635 0.98593 0.27603 0.0
C3446 C 0.55198 0.99772 0.28002 0.0
H3447 H 0.0063 0.60556 0.32243 0.0
H3448 H 0.05591 0.62936 0.33795 0.0
H3449 H 0.05658 0.60559 0.32703 0.0
H3450 H 0.99714 0.56556 0.34018 0.0
H3451 H 0.98356 0.55671 0.31586 0.0
H3452 H 0.9863 0.57444 0.32938 0.0
H3453 H 0.99296 0.58791 0.2883 0.0
H3454 H 0.99009 0.57023 0.27474 0.0
H3455 H 0.00831 0.5881 0.27098 0.0
H3456 H 0.05278 0.58087 0.30833 0.0
H3457 H 0.04517 0.55835 0.28156 0.0
H3458 H 0.99809 0.55052 0.27828 0.0
C3459 C 0.01728 0.60573 0.32391 0.0
C3460 C 0.03103 0.61937 0.3312 0.0
C3461 C 0.04513 0.61901 0.33289 0.0
C3462 C 0.04563 0.60554 0.32669 0.0
C3463 C 0.03193 0.59244 0.319 0.0
C3464 C 0.018 0.59243 0.31767 0.0
C3465 C 0.00533 0.5776 0.30621 0.0
C3466 C 0.99232 0.56801 0.32397 0.0
C3467 C 0.9988 0.58118 0.28373 0.0
C3468 C 0.0145 0.56959 0.30019 0.0
C3469 C 0.02973 0.57814 0.30818 0.0
C3470 C 0.04079 0.57389 0.30248 0.0
C3471 C 0.03634 0.56099 0.28738 0.0
C3472 C 0.02102 0.55263 0.27797 0.0
C3473 C 0.00985 0.55661 0.28542 0.0
H3474 H 0.38965 0.41973 0.29851 0.0
H3475 H 0.40475 0.39167 0.33726 0.0
H3476 H 0.4319 0.41125 0.32996 0.0
H3477 H 0.41594 0.42769 0.25239 0.0
H3478 H 0.41922 0.44699 0.24689 0.0
H3479 H 0.40107 0.43246 0.25935 0.0
H3480 H 0.40535 0.45098 0.29487 0.0
H3481 H 0.4237 0.46548 0.28263 0.0
H3482 H 0.42295 0.45859 0.31242 0.0
H3483 H 0.45746 0.43231 0.31528 0.0
H3484 H 0.47862 0.45068 0.2892 0.0
H3485 H 0.44715 0.46383 0.25701 0.0
C3486 C 0.39855 0.4176 0.30566 0.0
C3487 C 0.3947 0.40409 0.31907 0.0
C3488 C 0.40704 0.40207 0.32784 0.0
C3489 C 0.42266 0.41316 0.32368 0.0
C3490 C 0.42594 0.42621 0.31035 0.0
C3491 C 0.41422 0.42834 0.30111 0.0
C3492 C 0.42075 0.44212 0.28446 0.0
C3493 C 0.41384 0.437 0.25929 0.0
C3494 C 0.41802 0.45506 0.29418 0.0
C3495 C 0.4379 0.44705 0.2852 0.0
C3496 C 0.44072 0.43802 0.30081 0.0
C3497 C 0.45546 0.43962 0.30326 0.0
C3498 C 0.46746 0.45018 0.28853 0.0
C3499 C 0.46453 0.45876 0.27132 0.0
C3500 C 0.44973 0.45759 0.27034 0.0
H3501 H 0.33632 0.27791 0.39638 0.0
H3502 H 0.31104 0.25384 0.33242 0.0
H3503 H 0.31609 0.23229 0.34109 0.0
H3504 H 0.36583 0.26615 0.39351 0.0
H3505 H 0.36615 0.26413 0.42526 0.0
H3506 H 0.3616 0.2781 0.41283 0.0
H3507 H 0.33555 0.26554 0.43592 0.0
H3508 H 0.3401 0.25166 0.44855 0.0
H3509 H 0.32205 0.24496 0.43252 0.0
H3510 H 0.3222 0.2122 0.35911 0.0
H3511 H 0.32819 0.19568 0.38527 0.0
H3512 H 0.34975 0.23363 0.43625 0.0
C3513 C 0.33186 0.26813 0.38414 0.0
C3514 C 0.32324 0.26753 0.36377 0.0
C3515 C 0.31778 0.2546 0.34806 0.0
C3516 C 0.32059 0.2423 0.35284 0.0
C3517 C 0.32903 0.24322 0.37325 0.0
C3518 C 0.33462 0.25587 0.38856 0.0
C3519 C 0.34271 0.25385 0.40987 0.0
C3520 C 0.3601 0.2663 0.41038 0.0
C3521 C 0.33462 0.25401 0.43307 0.0
C3522 C 0.34042 0.23789 0.40457 0.0
C3523 C 0.33266 0.23191 0.3833 0.0
C3524 C 0.32846 0.21686 0.37565 0.0
C3525 C 0.33195 0.20758 0.39049 0.0
C3526 C 0.33939 0.21343 0.41267 0.0
C3527 C 0.34405 0.22891 0.41931 0.0
H3528 H 0.73498 0.06995 0.34522 0.0
H3529 H 0.75985 0.04492 0.33236 0.0
H3530 H 0.78436 0.06818 0.34406 0.0
H3531 H 0.76736 0.11011 0.33033 0.0
H3532 H 0.76233 0.11866 0.35459 0.0
H3533 H 0.74736 0.10155 0.33956 0.0
H3534 H 0.73888 0.08705 0.37972 0.0
H3535 H 0.75372 0.10409 0.39478 0.0
H3536 H 0.75317 0.08574 0.39794 0.0
H3537 H 0.80519 0.09204 0.36368 0.0
H3538 H 0.81998 0.11353 0.39197 0.0
H3539 H 0.78182 0.12312 0.39383 0.0
C3540 C 0.74558 0.06937 0.34445 0.0
C3541 C 0.74533 0.05549 0.33758 0.0
C3542 C 0.75961 0.05542 0.33685 0.0
C3543 C 0.77367 0.06862 0.34358 0.0
C3544 C 0.77337 0.08188 0.35104 0.0
C3545 C 0.75968 0.08235 0.35153 0.0
C3546 C 0.76206 0.09709 0.36361 0.0
C3547 C 0.75964 0.10747 0.34596 0.0
C3548 C 0.75133 0.09325 0.38529 0.0
C3549 C 0.77901 0.1044 0.37098 0.0
C3550 C 0.78544 0.09567 0.36296 0.0
C3551 C 0.80042 0.09919 0.36959 0.0
C3552 C 0.8088 0.11153 0.38559 0.0
C3553 C 0.80212 0.12011 0.39504 0.0
C3554 C 0.78728 0.11685 0.38679 0.0
H3555 H 0.941 0.65891 0.37832 0.0
H3556 H 0.94987 0.6986 0.3353 0.0
H3557 H 0.92343 0.69394 0.34415 0.0
H3558 H 0.89857 0.63439 0.36477 0.0
H3559 H 0.89425 0.6274 0.39483 0.0
H3560 H 0.9128 0.63236 0.38203 0.0
H3561 H 0.92708 0.6515 0.41696 0.0
H3562 H 0.90863 0.64651 0.42987 0.0
H3563 H 0.92253 0.66658 0.4236 0.0
H3564 H 0.89717 0.68668 0.36146 0.0
H3565 H 0.87448 0.67866 0.388 0.0
H3566 H 0.88316 0.64404 0.41969 0.0
C3567 C 0.93719 0.66632 0.37018 0.0
C3568 C 0.94738 0.679 0.35592 0.0
C3569 C 0.9422 0.6888 0.34625 0.0
C3570 C 0.92718 0.68616 0.35102 0.0
C3571 C 0.91747 0.67367 0.36548 0.0
C3572 C 0.92232 0.66393 0.37494 0.0
C3573 C 0.91048 0.65246 0.39209 0.0
C3574 C 0.90362 0.63565 0.38287 0.0
C3575 C 0.91761 0.65439 0.4171 0.0
C3576 C 0.89845 0.65758 0.39146 0.0
C3577 C 0.90248 0.66962 0.37565 0.0
C3578 C 0.89373 0.67706 0.37353 0.0
C3579 C 0.88084 0.67242 0.38852 0.0
C3580 C 0.87703 0.66059 0.40541 0.0
C3581 C 0.88568 0.65284 0.40641 0.0
H3582 H 0.39205 0.99668 0.71569 0.0
H3583 H 0.42183 0.03283 0.66643 0.0
H3584 H 0.44383 0.02898 0.67769 0.0
H3585 H 0.41906 0.00657 0.76067 0.0
H3586 H 0.41274 0.98684 0.76947 0.0
H3587 H 0.39918 0.9914 0.75556 0.0
H3588 H 0.39321 0.97046 0.72311 0.0
H3589 H 0.40682 0.96584 0.73693 0.0
H3590 H 0.40897 0.97127 0.7061 0.0
H3591 H 0.46325 0.02266 0.69758 0.0
H3592 H 0.47798 0.01509 0.72506 0.0
H3593 H 0.43479 0.98254 0.75934 0.0
C3594 C 0.40303 0.00349 0.70666 0.0
C3595 C 0.40514 0.01498 0.69003 0.0
C3596 C 0.41993 0.024 0.67934 0.0
C3597 C 0.43247 0.02181 0.68547 0.0
C3598 C 0.42998 0.01045 0.70214 0.0
C3599 C 0.41557 0.0014 0.71246 0.0
C3600 C 0.41605 0.99075 0.7311 0.0
C3601 C 0.4115 0.9941 0.75564 0.0
C3602 C 0.40565 0.97356 0.72387 0.0
C3603 C 0.43309 0.99554 0.73026 0.0
C3604 C 0.44099 0.00677 0.71329 0.0
C3605 C 0.45713 0.0137 0.71065 0.0
C3606 C 0.4654 0.00931 0.72621 0.0
C3607 C 0.45748 0.99826 0.7442 0.0
C3608 C 0.4411 0.991 0.74565 0.0
H3609 H 1.00154 0.39053 0.72507 0.0
H3610 H 0.96769 0.38445 0.67092 0.0
H3611 H 0.97131 0.41042 0.68111 0.0
H3612 H 0.98973 0.40838 0.76792 0.0
H3613 H 0.00919 0.42144 0.77868 0.0
H3614 H 0.00455 0.40297 0.76579 0.0
H3615 H 0.02696 0.41707 0.73556 0.0
H3616 H 0.03162 0.43562 0.74831 0.0
H3617 H 0.02741 0.43206 0.717 0.0
H3618 H 0.97759 0.43671 0.69983 0.0
H3619 H 0.98571 0.46013 0.7254 0.0
H3620 H 0.01574 0.44842 0.76567 0.0
C3621 C 0.99488 0.39465 0.71532 0.0
C3622 C 0.98429 0.38547 0.69729 0.0
C3623 C 0.97596 0.39137 0.68472 0.0
C3624 C 0.97792 0.40608 0.6904 0.0
C3625 C 0.98838 0.41478 0.70851 0.0
C3626 C 0.99676 0.40925 0.72065 0.0
C3627 C 0.00688 0.42044 0.73987 0.0
C3628 C 0.0023 0.41285 0.76451 0.0
C3629 C 0.02425 0.42667 0.73487 0.0
C3630 C 0.00269 0.43303 0.73705 0.0
C3631 C 0.99207 0.42972 0.71885 0.0
C3632 C 0.98601 0.43947 0.71398 0.0
C3633 C 0.9907 0.45275 0.72847 0.0
C3634 C 1.00121 0.45595 0.74757 0.0
C3635 C 0.00754 0.44616 0.75133 0.0
H3636 H 0.60462 0.6042 0.69855 0.0
H3637 H 0.62857 0.57821 0.68685 0.0
H3638 H 0.60476 0.55396 0.69787 0.0
H3639 H 0.58624 0.5855 0.74989 0.0
H3640 H 0.56839 0.58563 0.74431 0.0
H3641 H 0.58629 0.60033 0.73145 0.0
H3642 H 0.57363 0.59283 0.68954 0.0
H3643 H 0.55567 0.578 0.70233 0.0
H3644 H 0.56498 0.57293 0.67933 0.0
H3645 H 0.57998 0.53343 0.71602 0.0
H3646 H 0.55685 0.51869 0.74096 0.0
H3647 H 0.54843 0.55764 0.7399 0.0
C3648 C 0.60479 0.59337 0.69793 0.0
C3649 C 0.61847 0.59313 0.69167 0.0
C3650 C 0.61818 0.57869 0.69112 0.0
C3651 C 0.6047 0.56483 0.69739 0.0
C3652 C 0.59153 0.56555 0.70396 0.0
C3653 C 0.59145 0.57945 0.70415 0.0
C3654 C 0.57639 0.57738 0.71421 0.0
C3655 C 0.57952 0.58782 0.73627 0.0
C3656 C 0.56712 0.58047 0.69521 0.0
C3657 C 0.5683 0.5603 0.7207 0.0
C3658 C 0.57709 0.55361 0.71426 0.0
C3659 C 0.5728 0.53842 0.72063 0.0
C3660 C 0.55952 0.53006 0.73469 0.0
C3661 C 0.5507 0.53693 0.74235 0.0
C3662 C 0.55487 0.55202 0.73432 0.0
H3663 H 0.66803 0.72923 0.63882 0.0
H3664 H 0.71494 0.75624 0.66774 0.0
H3665 H 0.71482 0.78044 0.65899 0.0
H3666 H 0.67451 0.75314 0.5901 0.0
H3667 H 0.65536 0.75102 0.58982 0.0
H3668 H 0.65814 0.73581 0.60182 0.0
H3669 H 0.64584 0.73752 0.64148 0.0
H3670 H 0.64317 0.75288 0.62961 0.0
H3671 H 0.65388 0.75593 0.65694 0.0
H3672 H 0.71112 0.80165 0.64274 0.0
H3673 H 0.7048 0.81809 0.61786 0.0
H3674 H 0.6602 0.77767 0.59957 0.0
C3675 C 0.67824 0.74021 0.64353 0.0
C3676 C 0.69142 0.74073 0.65427 0.0
C3677 C 0.70452 0.75542 0.66009 0.0
C3678 C 0.7046 0.76928 0.65513 0.0
C3679 C 0.69148 0.76834 0.64437 0.0
C3680 C 0.67856 0.75418 0.63856 0.0
C3681 C 0.66663 0.75642 0.62492 0.0
C3682 C 0.66349 0.74864 0.60021 0.0
C3683 C 0.65149 0.75033 0.63909 0.0
C3684 C 0.67514 0.77402 0.62318 0.0
C3685 C 0.68933 0.78068 0.63489 0.0
C3686 C 0.69989 0.79662 0.63393 0.0
C3687 C 0.69613 0.80591 0.61987 0.0
C3688 C 0.68194 0.79923 0.60685 0.0
C3689 C 0.6711 0.78316 0.60939 0.0
H3690 H 0.25295 0.95207 0.63868 0.0
H3691 H 0.27547 0.93631 0.68866 0.0
H3692 H 0.2557 0.90902 0.67969 0.0
H3693 H 0.2122 0.9201 0.6481 0.0
H3694 H 0.20748 0.91922 0.61699 0.0
H3695 H 0.2217 0.93746 0.63035 0.0
H3696 H 0.24206 0.94029 0.59902 0.0
H3697 H 0.22789 0.92218 0.58552 0.0
H3698 H 0.24638 0.92478 0.59532 0.0
H3699 H 0.2359 0.88353 0.66094 0.0
H3700 H 0.21879 0.86251 0.63297 0.0
H3701 H 0.20897 0.89482 0.59568 0.0
C3702 C 0.25362 0.94291 0.64802 0.0
C3703 C 0.26575 0.9464 0.66449 0.0
C3704 C 0.26614 0.934 0.67632 0.0
C3705 C 0.25496 0.91843 0.6713 0.0
C3706 C 0.24336 0.91541 0.65457 0.0
C3707 C 0.2426 0.92733 0.64318 0.0
C3708 C 0.23006 0.92107 0.62416 0.0
C3709 C 0.21709 0.92468 0.63028 0.0
C3710 C 0.23702 0.92746 0.59957 0.0
C3711 C 0.22431 0.90381 0.62592 0.0
C3712 C 0.23192 0.90071 0.64383 0.0
C3713 C 0.22962 0.88577 0.64722 0.0
C3714 C 0.21979 0.87386 0.63134 0.0
C3715 C 0.21249 0.87701 0.61221 0.0
C3716 C 0.21432 0.89204 0.61021 0.0
H3717 H 0.04945 0.30103 0.6204 0.0
H3718 H 0.06754 0.33536 0.67729 0.0
H3719 H 0.09428 0.34094 0.66841 0.0
H3720 H 0.07704 0.28662 0.6274 0.0
H3721 H 0.07845 0.2847 0.5958 0.0
H3722 H 0.06067 0.28225 0.60836 0.0
H3723 H 0.06195 0.30366 0.58056 0.0
H3724 H 0.07958 0.30601 0.5678 0.0
H3725 H 0.07931 0.32259 0.58047 0.0
H3726 H 0.11932 0.34472 0.65031 0.0
H3727 H 0.14015 0.34705 0.62332 0.0
H3728 H 0.10543 0.30969 0.5796 0.0
C3729 C 0.05899 0.30943 0.6314 0.0
C3730 C 0.05641 0.31767 0.64965 0.0
C3731 C 0.06927 0.32894 0.66315 0.0
C3732 C 0.08447 0.33209 0.65837 0.0
C3733 C 0.08662 0.32383 0.64009 0.0
C3734 C 0.07419 0.31274 0.62681 0.0
C3735 C 0.07965 0.30648 0.60678 0.0
C3736 C 0.07359 0.28897 0.60978 0.0
C3737 C 0.07484 0.30989 0.58248 0.0
C3738 C 0.09709 0.31593 0.61058 0.0
C3739 C 0.10095 0.32581 0.62999 0.0
C3740 C 0.11644 0.33676 0.63544 0.0
C3741 C 0.12821 0.33795 0.62021 0.0
C3742 C 0.12432 0.3282 0.59998 0.0
C3743 C 0.10865 0.31682 0.59554 0.0
H3744 H 0.27342 0.33868 0.65023 0.0
H3745 H 0.24521 0.2889 0.6609 0.0
H3746 H 0.22152 0.28999 0.65075 0.0
H3747 H 0.2432 0.34931 0.67005 0.0
H3748 H 0.24899 0.36378 0.64716 0.0
H3749 H 0.26319 0.35979 0.66048 0.0
H3750 H 0.27037 0.35416 0.61883 0.0
H3751 H 0.25627 0.35814 0.60546 0.0
H3752 H 0.25523 0.33972 0.59997 0.0
H3753 H 0.20202 0.29545 0.63268 0.0
H3754 H 0.18847 0.30441 0.60615 0.0
H3755 H 0.22874 0.35107 0.60795 0.0
C3756 C 0.26216 0.32816 0.65131 0.0
C3757 C 0.26103 0.31373 0.65657 0.0
C3758 C 0.24623 0.30005 0.65699 0.0
C3759 C 0.23273 0.3006 0.65145 0.0
C3760 C 0.23422 0.31493 0.6456 0.0
C3761 C 0.24856 0.3285 0.64558 0.0
C3762 C 0.24728 0.34192 0.63535 0.0
C3763 C 0.25087 0.35444 0.6544 0.0
C3764 C 0.25791 0.34887 0.61362 0.0
C3765 C 0.23019 0.33357 0.62835 0.0
C3766 C 0.22279 0.31811 0.63498 0.0
C3767 C 0.20754 0.30762 0.62797 0.0
C3768 C 0.19986 0.31289 0.61295 0.0
C3769 C 0.20747 0.3285 0.60496 0.0
C3770 C 0.22257 0.33908 0.61376 0.0
H3771 H 0.66729 0.94558 0.62959 0.0
H3772 H 0.70447 0.95698 0.68049 0.0
H3773 H 0.70313 0.93187 0.67171 0.0
H3774 H 0.64545 0.90252 0.64091 0.0
H3775 H 0.64028 0.89811 0.60998 0.0
H3776 H 0.64261 0.91586 0.62282 0.0
H3777 H 0.66291 0.93195 0.59064 0.0
H3778 H 0.66061 0.91431 0.57772 0.0
H3779 H 0.67967 0.9296 0.58679 0.0
H3780 H 0.7009 0.90801 0.65231 0.0
H3781 H 0.69784 0.88747 0.62446 0.0
H3782 H 0.66017 0.88992 0.5889 0.0
C3783 C 0.67493 0.94262 0.6392 0.0
C3784 C 0.68597 0.95316 0.65574 0.0
C3785 C 0.69581 0.94896 0.66795 0.0
C3786 C 0.69512 0.93473 0.66309 0.0
C3787 C 0.6843 0.92471 0.64633 0.0
C3788 C 0.67423 0.92838 0.63481 0.0
C3789 C 0.66453 0.91619 0.61627 0.0
C3790 C 0.64718 0.90766 0.6229 0.0
C3791 C 0.6671 0.92345 0.5914 0.0
C3792 C 0.6713 0.90553 0.61827 0.0
C3793 C 0.68257 0.91052 0.63586 0.0
C3794 C 0.69179 0.90369 0.63894 0.0
C3795 C 0.68986 0.89188 0.62307 0.0
C3796 C 0.67873 0.88695 0.60435 0.0
C3797 C 0.66885 0.89341 0.60286 0.0
H3798 H 0.055 0.75454 0.65157 0.0
H3799 H 0.06894 0.72214 0.67781 0.0
H3800 H 0.09624 0.74108 0.66882 0.0
H3801 H 0.0786 0.76524 0.60202 0.0
H3802 H 0.08311 0.78525 0.60203 0.0
H3803 H 0.06519 0.77049 0.61476 0.0
H3804 H 0.07244 0.78602 0.65444 0.0
H3805 H 0.09052 0.80078 0.64183 0.0
H3806 H 0.09069 0.79125 0.66889 0.0
H3807 H 0.12154 0.76194 0.65231 0.0
H3808 H 0.14194 0.78173 0.62672 0.0
H3809 H 0.11159 0.80018 0.60991 0.0
C3810 C 0.06375 0.75141 0.65569 0.0
C3811 C 0.05965 0.7368 0.66572 0.0
C3812 C 0.07165 0.73336 0.67079 0.0
C3813 C 0.08727 0.74406 0.66565 0.0
C3814 C 0.09081 0.7582 0.65539 0.0
C3815 C 0.07937 0.76186 0.65038 0.0
C3816 C 0.08592 0.77695 0.63673 0.0
C3817 C 0.07772 0.77432 0.61246 0.0
C3818 C 0.08483 0.78949 0.65135 0.0
C3819 C 0.10269 0.78088 0.63404 0.0
C3820 C 0.10539 0.77013 0.6454 0.0
C3821 C 0.11966 0.77061 0.64372 0.0
C3822 C 0.13124 0.78198 0.62927 0.0
C3823 C 0.1284 0.79257 0.61647 0.0
C3824 C 0.11414 0.79233 0.61968 0.0
H3825 H 0.00233 0.61121 0.71958 0.0
H3826 H 0.96664 0.58213 0.66837 0.0
H3827 H 0.97157 0.5604 0.67684 0.0
H3828 H 0.02889 0.59639 0.70697 0.0
H3829 H 0.03461 0.59771 0.73769 0.0
H3830 H 0.02899 0.61109 0.72605 0.0
H3831 H 0.00801 0.60295 0.75878 0.0
H3832 H 0.01368 0.5897 0.77059 0.0
H3833 H 0.99368 0.58264 0.76214 0.0
H3834 H 0.97873 0.54094 0.69485 0.0
H3835 H 0.98739 0.52624 0.72037 0.0
H3836 H 0.01937 0.56911 0.75709 0.0
C3837 C 0.99562 0.6003 0.71003 0.0
C3838 C 0.98405 0.59826 0.69345 0.0
C3839 C 0.97561 0.58389 0.6811 0.0
C3840 C 0.97834 0.57152 0.68579 0.0
C3841 C 0.98976 0.57387 0.70252 0.0
C3842 C 0.99835 0.588 0.71423 0.0
C3843 C 0.00949 0.58754 0.73209 0.0
C3844 C 0.0265 0.59885 0.72528 0.0
C3845 C 0.006 0.5909 0.75738 0.0
C3846 C 0.00553 0.5708 0.72922 0.0
C3847 C 0.99419 0.56301 0.71205 0.0
C3848 C 0.98781 0.54701 0.70802 0.0
C3849 C 0.99283 0.53875 0.72244 0.0
C3850 C 0.00402 0.54657 0.7406 0.0
C3851 C 0.01081 0.56286 0.74325 0.0
H3852 H 0.40299 0.38012 0.73643 0.0
H3853 H 0.40798 0.39652 0.66395 0.0
H3854 H 0.42887 0.42265 0.67714 0.0
H3855 H 0.40923 0.41476 0.76519 0.0
H3856 H 0.41992 0.41287 0.78966 0.0
H3857 H 0.40534 0.39574 0.77429 0.0
H3858 H 0.42577 0.3873 0.76584 0.0
H3859 H 0.44039 0.40435 0.7813 0.0
H3860 H 0.44367 0.4006 0.75114 0.0
H3861 H 0.44974 0.44736 0.69934 0.0
H3862 H 0.46776 0.46759 0.72809 0.0
H3863 H 0.4491 0.43344 0.7844 0.0
C3864 C 0.40858 0.38909 0.72316 0.0
C3865 C 0.40391 0.38619 0.6991 0.0
C3866 C 0.41129 0.39847 0.68253 0.0
C3867 C 0.42322 0.41333 0.68984 0.0
C3868 C 0.4276 0.41569 0.71375 0.0
C3869 C 0.42046 0.40383 0.73007 0.0
C3870 C 0.42714 0.4091 0.75469 0.0
C3871 C 0.41467 0.40806 0.77196 0.0
C3872 C 0.4347 0.39978 0.76376 0.0
C3873 C 0.43921 0.4258 0.74979 0.0
C3874 C 0.43938 0.42954 0.72617 0.0
C3875 C 0.44966 0.44452 0.71788 0.0
C3876 C 0.45988 0.45591 0.73426 0.0
C3877 C 0.45964 0.45221 0.75858 0.0
C3878 C 0.4493 0.43686 0.76611 0.0
H3879 H 0.61395 0.00743 0.72187 0.0
H3880 H 0.61661 0.04103 0.67031 0.0
H3881 H 0.59118 0.03705 0.6842 0.0
H3882 H 0.57222 0.98078 0.71653 0.0
H3883 H 0.57025 0.97631 0.74774 0.0
H3884 H 0.58825 0.9815 0.73289 0.0
H3885 H 0.60338 0.00372 0.7636 0.0
H3886 H 0.58545 0.99863 0.77851 0.0
H3887 H 0.59772 0.01822 0.76813 0.0
H3888 H 0.56542 0.02971 0.70549 0.0
H3889 H 0.5428 0.02039 0.7327 0.0
H3890 H 0.55754 0.99121 0.76828 0.0
C3891 C 0.60909 0.01373 0.71306 0.0
C3892 C 0.61724 0.02444 0.69484 0.0
C3893 C 0.61062 0.03281 0.6844 0.0
C3894 C 0.59613 0.03055 0.69206 0.0
C3895 C 0.58842 0.01985 0.7101 0.0
C3896 C 0.59473 0.01158 0.72037 0.0
C3897 C 0.58458 1.00118 0.73998 0.0
C3898 C 0.57846 0.98392 0.73391 0.0
C3899 C 0.5933 0.00572 0.76396 0.0
C3900 C 0.57164 0.00501 0.73945 0.0
C3901 C 0.5739 0.01571 0.72208 0.0
C3902 C 0.56353 0.02126 0.71905 0.0
C3903 C 0.55071 0.0159 0.73448 0.0
C3904 C 0.54857 0.00526 0.75271 0.0
C3905 C 0.55901 0.99955 0.75472 0.0
loop_
_geom_bond_atom_site_label_1
_geom_bond_atom_site_label_2
_geom_bond_distance
_geom_bond_site_symmetry_2
_ccdc_geom_bond_type
Li0 N17 1.990 . S
Li0 O60 1.956 . S
Li0 O61 1.970 1_654 S
Li0 O62 1.961 . S
Li1 N25 1.990 . S
Li1 O60 1.970 1_455 S
Li1 O61 1.956 1_554 S
Li1 O63 1.961 . S
Li2 N47 1.990 . S
Li2 O60 1.961 . S
Li2 O62 1.956 . S
Li2 O63 1.970 1_655 S
Li3 N53 1.990 . S
Li3 O61 1.961 . S
Li3 O62 1.970 1_456 S
Li3 O63 1.956 1_556 S
C4 C6 1.348 1_655 S
C4 C7 1.356 . S
C4 O60 1.325 . S
N5 C8 1.314 . S
N5 C9 1.279 . S
C6 C4 1.348 1_455 S
C6 C8 1.353 1_455 S
C6 H64 0.929 . S
C7 C4 1.356 . S
C7 C9 1.358 . S
C7 H65 0.930 . S
C8 N5 1.314 . S
C8 C6 1.353 1_655 S
C8 H66 0.930 1_655 S
C9 N5 1.279 . S
C9 C7 1.358 . S
C9 H67 0.930 . S
C10 C13 1.349 1_455 S
C10 C14 1.356 . S
C10 O61 1.325 . S
C11 N12 1.279 . S
C11 C14 1.358 . S
C11 H68 0.930 . S
N12 C11 1.279 . S
N12 C15 1.314 . S
C13 C10 1.349 1_655 S
C13 C15 1.323 1_655 S
C13 H69 0.963 . S
C14 C10 1.356 . S
C14 C11 1.358 . S
C14 H70 0.930 . S
C15 N12 1.314 . S
C15 C13 1.323 1_455 S
C15 H71 0.930 1_455 S
C16 N17 1.314 1_556 S
C16 C21 1.353 . S
C16 H22 0.930 . S
N17 Li0 1.990 . S
N17 C16 1.314 1_554 S
N17 C19 1.279 . S
C18 C19 1.358 . S
C18 C20 1.356 1_554 S
C18 H72 0.930 . S
C19 N17 1.279 . S
C19 C18 1.358 . S
C19 H23 0.930 . S
C20 C18 1.356 1_556 S
C20 C21 1.348 . S
C21 C16 1.353 . S
C21 C20 1.348 . S
C21 H73 0.929 . S
H22 C16 0.930 . S
H23 C19 0.930 . S
C24 N25 1.314 . S
C24 C26 1.353 . S
C24 H30 0.930 . S
N25 Li1 1.990 . S
N25 C24 1.314 . S
N25 C28 1.279 . S
C26 C24 1.353 . S
C26 C29 1.348 . S
C26 H74 0.929 . S
C27 C28 1.358 . S
C27 C29 1.356 . S
C27 H75 0.930 . S
C28 N25 1.279 . S
C28 C27 1.358 . S
C28 H31 0.930 1_554 S
C29 C26 1.348 . S
C29 C27 1.356 . S
H30 C24 0.930 . S
H31 C28 0.930 1_556 S
C32 C34 1.328 1_554 S
C32 C35 1.373 . S
C32 O62 1.330 . S
N33 C36 1.314 . S
N33 C37 1.279 1_556 S
C34 C32 1.328 1_556 S
C34 C36 1.353 . S
C34 H76 0.929 . S
C35 C32 1.373 . S
C35 C37 1.358 . S
C35 H77 0.930 . S
C36 N33 1.314 . S
C36 C34 1.353 . S
C36 H78 0.930 . S
C37 N33 1.279 1_554 S
C37 C35 1.358 . S
C37 H79 0.930 . S
C38 C39 1.348 . S
C38 C40 1.356 . S
C38 O63 1.325 . S
C39 C38 1.348 . S
C39 C41 1.353 . S
C39 H80 0.929 . S
C40 C38 1.356 . S
C40 C42 1.358 . S
C40 H81 0.929 1_554 S
C41 C39 1.353 . S
C41 N43 1.314 . S
C41 H82 0.930 . S
C42 C40 1.358 . S
C42 N43 1.279 . S
C42 H83 0.930 . S
N43 C41 1.314 . S
N43 C42 1.279 . S
C44 C46 1.353 . S
C44 N47 1.314 . S
C44 H50 0.930 1_655 S
C45 N47 1.279 . S
C45 C48 1.358 . S
C45 H51 0.930 . S
C46 C44 1.353 . S
C46 C49 1.348 . S
C46 H84 0.930 1_655 S
N47 Li2 1.990 . S
N47 C44 1.314 . S
N47 C45 1.279 . S
C48 C45 1.358 . S
C48 C49 1.356 . S
C48 H85 0.930 . S
C49 C46 1.348 . S
C49 C48 1.356 . S
H50 C44 0.930 1_455 S
H51 C45 0.930 . S
C52 N53 1.314 . S
C52 C54 1.353 . S
C52 H58 0.930 1_455 S
N53 Li3 1.990 . S
N53 C52 1.314 . S
N53 C56 1.279 . S
C54 C52 1.353 . S
C54 C57 1.348 . S
C54 H86 0.948 . S
C55 C56 1.358 . S
C55 C57 1.356 . S
C55 H87 0.930 . S
C56 N53 1.279 . S
C56 C55 1.358 . S
C56 H59 0.930 . S
C57 C54 1.348 . S
C57 C55 1.356 . S
H58 C52 0.930 1_655 S
H59 C56 0.930 . S
O60 Li0 1.956 . S
O60 Li1 1.970 1_655 S
O60 Li2 1.961 . S
O60 C4 1.325 . S
O61 Li0 1.970 1_456 S
O61 Li1 1.956 1_556 S
O61 Li3 1.961 . S
O61 C10 1.325 . S
O62 Li0 1.961 . S
O62 Li2 1.956 . S
O62 Li3 1.970 1_654 S
O62 C32 1.330 . S
O63 Li1 1.961 . S
O63 Li2 1.970 1_455 S
O63 Li3 1.956 1_554 S
O63 C38 1.325 . S
H64 C6 0.929 . S
H65 C7 0.930 . S
H66 C8 0.930 1_455 S
H67 C9 0.930 . S
H68 C11 0.930 . S
H69 C13 0.963 . S
H70 C14 0.930 . S
H71 C15 0.930 1_655 S
H72 C18 0.930 . S
H73 C21 0.929 . S
H74 C26 0.929 . S
H75 C27 0.930 . S
H76 C34 0.929 . S
H77 C35 0.930 . S
H78 C36 0.930 . S
H79 C37 0.930 . S
H80 C39 0.929 . S
H81 C40 0.929 1_556 S
H82 C41 0.930 . S
H83 C42 0.930 . S
H84 C46 0.930 1_455 S
H85 C48 0.930 . S
H86 C54 0.948 . S
H87 C55 0.930 . S
Li88 N105 1.990 1_554 S
Li88 O148 1.956 . S
Li88 O149 1.970 1_554 S
Li88 O150 1.961 . S
Li89 N113 1.990 . S
Li89 O148 1.970 . S
Li89 O149 1.956 1_554 S
Li89 O151 1.961 . S
Li90 N135 1.990 . S
Li90 O148 1.961 . S
Li90 O150 1.956 . S
Li90 O151 1.970 . S
Li91 N141 1.990 . S
Li91 O149 1.961 . S
Li91 O150 1.970 1_556 S
Li91 O151 1.956 1_556 S
C92 C94 1.348 . S
C92 C95 1.356 . S
C92 O148 1.325 . S
N93 C96 1.314 . S
N93 C97 1.279 . S
C94 C92 1.348 . S
C94 C96 1.353 . S
C94 H152 0.929 . S
C95 C92 1.356 . S
C95 C97 1.358 . S
C95 H153 0.930 . S
C96 N93 1.314 . S
C96 C94 1.353 . S
C96 H154 0.930 . S
C97 N93 1.279 . S
C97 C95 1.358 . S
C97 H155 0.930 . S
C98 C101 1.348 . S
C98 C102 1.356 . S
C98 O149 1.325 . S
C99 N100 1.279 . S
C99 C102 1.358 . S
C99 H156 0.930 . S
N100 C99 1.279 . S
N100 C103 1.314 . S
C101 C98 1.348 . S
C101 C103 1.353 . S
C101 H157 0.929 . S
C102 C98 1.356 . S
C102 C99 1.358 . S
C102 H158 0.930 . S
C103 N100 1.314 . S
C103 C101 1.353 . S
C103 H159 0.930 . S
C104 N105 1.314 . S
C104 C109 1.353 . S
C104 H110 0.930 . S
N105 Li88 1.990 1_556 S
N105 C104 1.314 . S
N105 C107 1.279 1_556 S
C106 C107 1.358 . S
C106 C108 1.356 1_554 S
C106 H160 0.930 . S
C107 N105 1.279 1_554 S
C107 C106 1.358 . S
C107 H111 0.930 . S
C108 C106 1.356 1_556 S
C108 C109 1.348 . S
C109 C104 1.353 . S
C109 C108 1.348 . S
C109 H161 0.929 . S
H110 C104 0.930 . S
H111 C107 0.930 . S
C112 N113 1.314 . S
C112 C114 1.353 . S
C112 H118 0.930 . S
N113 Li89 1.990 . S
N113 C112 1.314 . S
N113 C116 1.279 . S
C114 C112 1.353 . S
C114 C117 1.348 . S
C114 H162 0.929 . S
C115 C116 1.358 . S
C115 C117 1.356 . S
C115 H163 0.930 . S
C116 N113 1.279 . S
C116 C115 1.358 . S
C116 H119 0.930 1_554 S
C117 C114 1.348 . S
C117 C115 1.356 . S
H118 C112 0.930 . S
H119 C116 0.930 1_556 S
C120 C122 1.348 . S
C120 C123 1.356 1_556 S
C120 O150 1.325 1_556 S
N121 C124 1.314 . S
N121 C125 1.279 1_556 S
C122 C120 1.348 . S
C122 C124 1.353 . S
C122 H164 0.929 . S
C123 C120 1.356 1_554 S
C123 C125 1.358 . S
C123 H165 0.930 . S
C124 N121 1.314 . S
C124 C122 1.353 . S
C124 H166 0.930 . S
C125 N121 1.279 1_554 S
C125 C123 1.358 . S
C125 H167 0.930 . S
C126 C127 1.348 . S
C126 C128 1.356 . S
C126 O151 1.325 . S
C127 C126 1.348 . S
C127 C129 1.353 . S
C127 H168 0.929 . S
C128 C126 1.356 . S
C128 C130 1.358 . S
C128 H169 0.930 . S
C129 C127 1.353 . S
C129 N131 1.314 . S
C129 H170 0.930 . S
C130 C128 1.358 . S
C130 N131 1.279 . S
C130 H171 0.930 . S
N131 C129 1.314 . S
N131 C130 1.279 . S
C132 C134 1.353 . S
C132 N135 1.314 . S
C132 H138 0.930 . S
C133 N135 1.279 . S
C133 C136 1.358 . S
C133 H139 0.930 . S
C134 C132 1.353 . S
C134 C137 1.348 . S
C134 H172 0.929 . S
N135 Li90 1.990 . S
N135 C132 1.314 . S
N135 C133 1.279 . S
C136 C133 1.358 . S
C136 C137 1.356 . S
C136 H173 0.930 . S
C137 C134 1.348 . S
C137 C136 1.356 . S
H138 C132 0.930 . S
H139 C133 0.930 . S
C140 N141 1.314 . S
C140 C142 1.353 . S
C140 H146 0.930 . S
N141 Li91 1.990 . S
N141 C140 1.314 . S
N141 C144 1.279 . S
C142 C140 1.353 . S
C142 C145 1.348 . S
C142 H174 0.929 . S
C143 C144 1.358 . S
C143 C145 1.356 . S
C143 H175 0.930 . S
C144 N141 1.279 . S
C144 C143 1.358 . S
C144 H147 0.930 . S
C145 C142 1.348 . S
C145 C143 1.356 . S
H146 C140 0.930 . S
H147 C144 0.930 . S
O148 Li88 1.956 . S
O148 Li89 1.970 . S
O148 Li90 1.961 . S
O148 C92 1.325 . S
O149 Li88 1.970 1_556 S
O149 Li89 1.956 1_556 S
O149 Li91 1.961 . S
O149 C98 1.325 . S
O150 Li88 1.961 . S
O150 Li90 1.956 . S
O150 Li91 1.970 1_554 S
O150 C120 1.325 1_554 S
O151 Li89 1.961 . S
O151 Li90 1.970 . S
O151 Li91 1.956 1_554 S
O151 C126 1.325 . S
H152 C94 0.929 . S
H153 C95 0.930 . S
H154 C96 0.930 . S
H155 C97 0.930 . S
H156 C99 0.930 . S
H157 C101 0.929 . S
H158 C102 0.930 . S
H159 C103 0.930 . S
H160 C106 0.930 . S
H161 C109 0.929 . S
H162 C114 0.929 . S
H163 C115 0.930 . S
H164 C122 0.929 . S
H165 C123 0.930 . S
H166 C124 0.930 . S
H167 C125 0.930 . S
H168 C127 0.929 . S
H169 C128 0.930 . S
H170 C129 0.930 . S
H171 C130 0.930 . S
H172 C134 0.929 . S
H173 C136 0.930 . S
H174 C142 0.929 . S
H175 C143 0.930 . S
Li176 N193 1.990 . S
Li176 O236 1.956 1_556 S
Li176 O237 1.970 1_566 S
Li176 O238 1.961 . S
Li177 N201 1.990 . S
Li177 O236 1.970 1_545 S
Li177 O237 1.956 . S
Li177 O239 1.961 . S
Li178 N223 1.990 . S
Li178 O236 1.961 . S
Li178 O238 1.956 1_554 S
Li178 O239 1.970 1_565 S
Li179 N229 1.990 . S
Li179 O237 1.961 . S
Li179 O238 1.970 1_544 S
Li179 O239 1.956 . S
C180 C182 1.348 . S
C180 C183 1.356 . S
C180 O236 1.325 . S
N181 C184 1.314 . S
N181 C185 1.279 . S
C182 C180 1.348 . S
C182 C184 1.353 . S
C182 H240 0.929 . S
C183 C180 1.356 . S
C183 C185 1.358 . S
C183 H241 0.930 1_554 S
C184 N181 1.314 . S
C184 C182 1.353 . S
C184 H242 0.930 . S
C185 N181 1.279 . S
C185 C183 1.358 . S
C185 H243 0.930 . S
C186 C189 1.343 1_554 S
C186 C190 1.360 . S
C186 O237 1.326 . S
C187 N188 1.279 1_554 S
C187 C190 1.358 . S
C187 H244 0.930 . S
N188 C187 1.279 1_556 S
N188 C191 1.314 . S
C189 C186 1.343 1_556 S
C189 C191 1.353 . S
C189 H245 0.929 . S
C190 C186 1.360 . S
C190 C187 1.358 . S
C190 H246 0.930 . S
C191 N188 1.314 . S
C191 C189 1.353 . S
C191 H247 0.930 . S
C192 N193 1.314 . S
C192 C197 1.353 . S
C192 H198 0.930 1_565 S
N193 Li176 1.990 . S
N193 C192 1.314 . S
N193 C195 1.279 . S
C194 C195 1.358 . S
C194 C196 1.356 . S
C194 H248 0.930 . S
C195 N193 1.279 . S
C195 C194 1.358 . S
C195 H199 0.930 . S
C196 C194 1.356 . S
C196 C197 1.348 . S
C197 C192 1.353 . S
C197 C196 1.348 . S
C197 H249 0.942 . S
H198 C192 0.930 1_545 S
H199 C195 0.930 . S
C200 N201 1.314 . S
C200 C202 1.353 . S
C200 H206 0.930 1_545 S
N201 Li177 1.990 . S
N201 C200 1.314 . S
N201 C204 1.279 . S
C202 C200 1.353 . S
C202 C205 1.348 . S
C202 H250 0.929 . S
C203 C204 1.358 . S
C203 C205 1.356 . S
C203 H251 0.930 . S
C204 N201 1.279 . S
C204 C203 1.358 . S
C204 H207 0.930 . S
C205 C202 1.348 . S
C205 C203 1.356 . S
H206 C200 0.930 1_565 S
H207 C204 0.930 . S
C208 C210 1.348 1_565 S
C208 C211 1.356 . S
C208 O238 1.325 . S
N209 C212 1.314 . S
N209 C213 1.279 . S
C210 C208 1.348 1_545 S
C210 C212 1.353 1_545 S
C210 H252 0.929 . S
C211 C208 1.356 . S
C211 C213 1.358 . S
C211 H253 0.930 . S
C212 N209 1.314 . S
C212 C210 1.353 1_565 S
C212 H254 0.930 1_565 S
C213 N209 1.279 . S
C213 C211 1.358 . S
C213 H255 0.930 . S
C214 C215 1.348 1_545 S
C214 C216 1.356 . S
C214 O239 1.325 . S
C215 C214 1.348 1_565 S
C215 C217 1.339 1_565 S
C215 H256 0.944 . S
C216 C214 1.356 . S
C216 C218 1.358 . S
C216 H257 0.930 . S
C217 C215 1.339 1_545 S
C217 N219 1.314 . S
C217 H258 0.930 1_545 S
C218 C216 1.358 . S
C218 N219 1.279 . S
C218 H259 0.930 . S
N219 C217 1.314 . S
N219 C218 1.279 . S
C220 C222 1.353 . S
C220 N223 1.314 . S
C220 H226 0.930 . S
C221 N223 1.279 . S
C221 C224 1.358 . S
C221 H227 0.930 1_554 S
C222 C220 1.353 . S
C222 C225 1.348 . S
C222 H260 0.929 . S
N223 Li178 1.990 . S
N223 C220 1.314 . S
N223 C221 1.279 . S
C224 C221 1.358 . S
C224 C225 1.356 . S
C224 H261 0.960 . S
C225 C222 1.348 . S
C225 C224 1.356 . S
H226 C220 0.930 . S
H227 C221 0.930 1_556 S
C228 N229 1.314 1_556 S
C228 C230 1.353 . S
C228 H234 0.930 . S
N229 Li179 1.990 . S
N229 C228 1.314 1_554 S
N229 C232 1.279 . S
C230 C228 1.353 . S
C230 C233 1.348 . S
C230 H262 0.929 . S
C231 C232 1.358 . S
C231 C233 1.356 1_554 S
C231 H263 0.930 . S
C232 N229 1.279 . S
C232 C231 1.358 . S
C232 H235 0.930 . S
C233 C230 1.348 . S
C233 C231 1.356 1_556 S
H234 C228 0.930 . S
H235 C232 0.930 . S
O236 Li176 1.956 1_554 S
O236 Li177 1.970 1_565 S
O236 Li178 1.961 . S
O236 C180 1.325 . S
O237 Li176 1.970 1_544 S
O237 Li177 1.956 . S
O237 Li179 1.961 . S
O237 C186 1.326 . S
O238 Li176 1.961 . S
O238 Li178 1.956 1_556 S
O238 Li179 1.970 1_566 S
O238 C208 1.325 . S
O239 Li177 1.961 . S
O239 Li178 1.970 1_545 S
O239 Li179 1.956 . S
O239 C214 1.325 . S
H240 C182 0.929 . S
H241 C183 0.930 1_556 S
H242 C184 0.930 . S
H243 C185 0.930 . S
H244 C187 0.930 . S
H245 C189 0.929 . S
H246 C190 0.930 . S
H247 C191 0.930 . S
H248 C194 0.930 . S
H249 C197 0.942 . S
H250 C202 0.929 . S
H251 C203 0.930 . S
H252 C210 0.929 . S
H253 C211 0.930 . S
H254 C212 0.930 1_545 S
H255 C213 0.930 . S
H256 C215 0.944 . S
H257 C216 0.930 . S
H258 C217 0.930 1_565 S
H259 C218 0.930 . S
H260 C222 0.929 . S
H261 C224 0.960 . S
H262 C230 0.929 . S
H263 C231 0.930 . S
Li264 N281 1.990 . S
Li264 O324 1.956 . S
Li264 O325 1.970 1_455 S
Li264 O326 1.961 1_554 S
Li265 N289 1.990 . S
Li265 O324 1.970 1_655 S
Li265 O325 1.956 . S
Li265 O327 1.961 . S
Li266 N311 1.990 . S
Li266 O324 1.961 1_556 S
Li266 O326 1.956 . S
Li266 O327 1.970 1_456 S
Li267 N317 1.990 1_554 S
Li267 O325 1.961 . S
Li267 O326 1.970 1_654 S
Li267 O327 1.956 . S
C268 C270 1.348 . S
C268 C271 1.356 . S
C268 O324 1.325 . S
N269 C272 1.314 . S
N269 C273 1.279 . S
C270 C268 1.348 . S
C270 C272 1.353 . S
C270 H328 0.929 . S
C271 C268 1.356 . S
C271 C273 1.358 . S
C271 H329 0.930 1_554 S
C272 N269 1.314 . S
C272 C270 1.353 . S
C272 H330 0.930 . S
C273 N269 1.279 . S
C273 C271 1.358 . S
C273 H331 0.930 1_554 S
C274 C277 1.348 1_655 S
C274 C278 1.356 . S
C274 O325 1.325 . S
C275 N276 1.279 . S
C275 C278 1.358 . S
C275 H332 0.930 . S
N276 C275 1.279 . S
N276 C279 1.250 1_655 S
C277 C274 1.348 1_455 S
C277 C279 1.392 . S
C277 H333 0.929 . S
C278 C274 1.356 . S
C278 C275 1.358 . S
C278 H334 0.930 . S
C279 N276 1.250 1_455 S
C279 C277 1.392 . S
C279 H335 0.963 . S
C280 N281 1.314 . S
C280 C285 1.353 . S
C280 H286 0.930 . S
N281 Li264 1.990 . S
N281 C280 1.314 . S
N281 C283 1.279 . S
C282 C283 1.358 . S
C282 C284 1.356 . S
C282 H336 0.930 . S
C283 N281 1.279 . S
C283 C282 1.358 . S
C283 H287 0.930 . S
C284 C282 1.356 . S
C284 C285 1.348 . S
C285 C280 1.353 . S
C285 C284 1.348 . S
C285 H337 0.929 . S
H286 C280 0.930 . S
H287 C283 0.930 . S
C288 N289 1.314 . S
C288 C290 1.353 . S
C288 H294 0.930 . S
N289 Li265 1.990 . S
N289 C288 1.314 . S
N289 C292 1.279 . S
C290 C288 1.353 . S
C290 C293 1.348 . S
C290 H338 0.929 . S
C291 C292 1.358 . S
C291 C293 1.356 . S
C291 H339 0.930 . S
C292 N289 1.279 . S
C292 C291 1.358 . S
C292 H295 0.930 . S
C293 C290 1.348 . S
C293 C291 1.356 . S
H294 C288 0.930 . S
H295 C292 0.930 . S
C296 C298 1.348 1_455 S
C296 C299 1.356 . S
C296 O326 1.325 . S
N297 C300 1.262 1_455 S
N297 C301 1.279 . S
C298 C296 1.348 1_655 S
C298 C300 1.351 . S
C298 H340 0.929 . S
C299 C296 1.356 . S
C299 C301 1.358 . S
C299 H341 0.930 . S
C300 N297 1.262 1_655 S
C300 C298 1.351 . S
C300 H342 0.995 . S
C301 N297 1.279 . S
C301 C299 1.358 . S
C301 H343 0.930 . S
C302 C303 1.348 . S
C302 C304 1.356 1_556 S
C302 O327 1.325 1_556 S
C303 C302 1.348 . S
C303 C305 1.353 . S
C303 H344 0.929 . S
C304 C302 1.356 1_554 S
C304 C306 1.358 . S
C304 H345 0.930 . S
C305 C303 1.353 . S
C305 N307 1.314 . S
C305 H346 0.930 . S
C306 C304 1.358 . S
C306 N307 1.279 1_554 S
C306 H347 0.930 . S
N307 C305 1.314 . S
N307 C306 1.279 1_556 S
C308 C310 1.353 . S
C308 N311 1.314 . S
C308 H314 0.930 . S
C309 N311 1.279 . S
C309 C312 1.358 . S
C309 H315 0.930 . S
C310 C308 1.353 . S
C310 C313 1.348 . S
C310 H348 0.929 . S
N311 Li266 1.990 . S
N311 C308 1.314 . S
N311 C309 1.279 . S
C312 C309 1.358 . S
C312 C313 1.356 . S
C312 H349 0.930 . S
C313 C310 1.348 . S
C313 C312 1.356 . S
H314 C308 0.930 . S
H315 C309 0.930 . S
C316 N317 1.314 1_554 S
C316 C318 1.353 1_554 S
C316 H322 0.930 . S
N317 Li267 1.990 1_556 S
N317 C316 1.314 1_556 S
N317 C320 1.279 . S
C318 C316 1.353 1_556 S
C318 C321 1.348 . S
C318 H350 0.929 1_556 S
C319 C320 1.358 . S
C319 C321 1.356 . S
C319 H351 0.930 . S
C320 N317 1.279 . S
C320 C319 1.358 . S
C320 H323 0.930 . S
C321 C318 1.348 . S
C321 C319 1.356 . S
H322 C316 0.930 . S
H323 C320 0.930 . S
O324 Li264 1.956 . S
O324 Li265 1.970 1_455 S
O324 Li266 1.961 1_554 S
O324 C268 1.325 . S
O325 Li264 1.970 1_655 S
O325 Li265 1.956 . S
O325 Li267 1.961 . S
O325 C274 1.325 . S
O326 Li264 1.961 1_556 S
O326 Li266 1.956 . S
O326 Li267 1.970 1_456 S
O326 C296 1.325 . S
O327 Li265 1.961 . S
O327 Li266 1.970 1_654 S
O327 Li267 1.956 . S
O327 C302 1.325 1_554 S
H328 C270 0.929 . S
H329 C271 0.930 1_556 S
H330 C272 0.930 . S
H331 C273 0.930 1_556 S
H332 C275 0.930 . S
H333 C277 0.929 . S
H334 C278 0.930 . S
H335 C279 0.963 . S
H336 C282 0.930 . S
H337 C285 0.929 . S
H338 C290 0.929 . S
H339 C291 0.930 . S
H340 C298 0.929 . S
H341 C299 0.930 . S
H342 C300 0.995 . S
H343 C301 0.930 . S
H344 C303 0.929 . S
H345 C304 0.930 . S
H346 C305 0.930 . S
H347 C306 0.930 . S
H348 C310 0.929 . S
H349 C312 0.930 . S
H350 C318 0.929 1_554 S
H351 C319 0.930 . S
Li352 N369 1.990 . S
Li352 O412 1.956 . S
Li352 O413 1.970 . S
Li352 O414 1.961 1_554 S
Li353 N377 1.990 . S
Li353 O412 1.970 . S
Li353 O413 1.956 . S
Li353 O415 1.961 . S
Li354 N399 1.990 . S
Li354 O412 1.961 1_556 S
Li354 O414 1.956 . S
Li354 O415 1.970 1_556 S
Li355 N405 1.990 1_554 S
Li355 O413 1.961 . S
Li355 O414 1.970 1_554 S
Li355 O415 1.956 . S
C356 C358 1.348 . S
C356 C359 1.356 . S
C356 O412 1.325 . S
N357 C360 1.314 . S
N357 C361 1.279 . S
C358 C356 1.348 . S
C358 C360 1.353 . S
C358 H416 0.929 . S
C359 C356 1.356 . S
C359 C361 1.358 . S
C359 H417 0.930 1_554 S
C360 N357 1.314 . S
C360 C358 1.353 . S
C360 H418 0.930 . S
C361 N357 1.279 . S
C361 C359 1.358 . S
C361 H419 0.930 . S
C362 C365 1.348 . S
C362 C366 1.356 . S
C362 O413 1.325 . S
C363 N364 1.279 . S
C363 C366 1.358 . S
C363 H420 0.930 . S
N364 C363 1.279 . S
N364 C367 1.314 . S
C365 C362 1.348 . S
C365 C367 1.353 . S
C365 H421 0.929 . S
C366 C362 1.356 . S
C366 C363 1.358 . S
C366 H422 0.930 . S
C367 N364 1.314 . S
C367 C365 1.353 . S
C367 H423 0.930 . S
C368 N369 1.314 . S
C368 C373 1.353 . S
C368 H374 0.930 . S
N369 Li352 1.990 . S
N369 C368 1.314 . S
N369 C371 1.279 . S
C370 C371 1.358 . S
C370 C372 1.356 . S
C370 H424 0.930 . S
C371 N369 1.279 . S
C371 C370 1.358 . S
C371 H375 0.930 . S
C372 C370 1.356 . S
C372 C373 1.348 . S
C373 C368 1.353 . S
C373 C372 1.348 . S
C373 H425 0.929 . S
H374 C368 0.930 . S
H375 C371 0.930 . S
C376 N377 1.314 . S
C376 C378 1.353 . S
C376 H382 0.930 . S
N377 Li353 1.990 . S
N377 C376 1.314 . S
N377 C380 1.279 . S
C378 C376 1.353 . S
C378 C381 1.348 . S
C378 H426 0.929 . S
C379 C380 1.358 . S
C379 C381 1.356 . S
C379 H427 0.930 . S
C380 N377 1.279 . S
C380 C379 1.358 . S
C380 H383 0.930 . S
C381 C378 1.348 . S
C381 C379 1.356 . S
H382 C376 0.930 . S
H383 C380 0.930 . S
C384 C386 1.348 . S
C384 C387 1.356 . S
C384 O414 1.325 . S
N385 C388 1.314 . S
N385 C389 1.279 . S
C386 C384 1.348 . S
C386 C388 1.353 . S
C386 H428 0.929 . S
C387 C384 1.356 . S
C387 C389 1.358 . S
C387 H429 0.930 . S
C388 N385 1.314 . S
C388 C386 1.353 . S
C388 H430 0.930 . S
C389 N385 1.279 . S
C389 C387 1.358 . S
C389 H431 0.930 . S
C390 C391 1.348 . S
C390 C392 1.356 1_556 S
C390 O415 1.325 1_556 S
C391 C390 1.348 . S
C391 C393 1.353 . S
C391 H432 0.929 . S
C392 C390 1.356 1_554 S
C392 C394 1.358 . S
C392 H433 0.930 . S
C393 C391 1.353 . S
C393 N395 1.314 . S
C393 H434 0.930 . S
C394 C392 1.358 . S
C394 N395 1.279 1_554 S
C394 H435 0.930 . S
N395 C393 1.314 . S
N395 C394 1.279 1_556 S
C396 C398 1.353 . S
C396 N399 1.314 . S
C396 H402 0.930 . S
C397 N399 1.279 . S
C397 C400 1.358 . S
C397 H403 0.930 . S
C398 C396 1.353 . S
C398 C401 1.348 . S
C398 H436 0.929 . S
N399 Li354 1.990 . S
N399 C396 1.314 . S
N399 C397 1.279 . S
C400 C397 1.358 . S
C400 C401 1.356 . S
C400 H437 0.930 . S
C401 C398 1.348 . S
C401 C400 1.356 . S
H402 C396 0.930 . S
H403 C397 0.930 . S
C404 N405 1.306 1_554 S
C404 C406 1.345 1_554 S
C404 H410 0.949 . S
N405 Li355 1.990 1_556 S
N405 C404 1.306 1_556 S
N405 C408 1.279 . S
C406 C404 1.345 1_556 S
C406 C409 1.348 . S
C406 H438 0.920 1_556 S
C407 C408 1.358 . S
C407 C409 1.356 . S
C407 H439 0.930 . S
C408 N405 1.279 . S
C408 C407 1.358 . S
C408 H411 0.930 . S
C409 C406 1.348 . S
C409 C407 1.356 . S
H410 C404 0.949 . S
H411 C408 0.930 . S
O412 Li352 1.956 . S
O412 Li353 1.970 . S
O412 Li354 1.961 1_554 S
O412 C356 1.325 . S
O413 Li352 1.970 . S
O413 Li353 1.956 . S
O413 Li355 1.961 . S
O413 C362 1.325 . S
O414 Li352 1.961 1_556 S
O414 Li354 1.956 . S
O414 Li355 1.970 1_556 S
O414 C384 1.325 . S
O415 Li353 1.961 . S
O415 Li354 1.970 1_554 S
O415 Li355 1.956 . S
O415 C390 1.325 1_554 S
H416 C358 0.929 . S
H417 C359 0.930 1_556 S
H418 C360 0.930 . S
H419 C361 0.930 . S
H420 C363 0.930 . S
H421 C365 0.929 . S
H422 C366 0.930 . S
H423 C367 0.930 . S
H424 C370 0.930 . S
H425 C373 0.929 . S
H426 C378 0.929 . S
H427 C379 0.930 . S
H428 C386 0.929 . S
H429 C387 0.930 . S
H430 C388 0.930 . S
H431 C389 0.930 . S
H432 C391 0.929 . S
H433 C392 0.930 . S
H434 C393 0.930 . S
H435 C394 0.930 . S
H436 C398 0.929 . S
H437 C400 0.930 . S
H438 C406 0.920 1_554 S
H439 C407 0.930 . S
Li440 N457 1.990 . S
Li440 O500 1.956 . S
Li440 O501 1.970 1_565 S
Li440 O502 1.961 1_554 S
Li441 N465 1.990 . S
Li441 O500 1.970 1_545 S
Li441 O501 1.956 . S
Li441 O503 1.961 . S
Li442 N487 1.990 . S
Li442 O500 1.961 1_556 S
Li442 O502 1.956 . S
Li442 O503 1.970 1_566 S
Li443 N493 1.988 1_554 S
Li443 O501 1.961 . S
Li443 O502 1.970 1_544 S
Li443 O503 1.956 . S
C444 C446 1.348 . S
C444 C447 1.356 . S
C444 O500 1.325 . S
N445 C448 1.314 . S
N445 C449 1.279 . S
C446 C444 1.348 . S
C446 C448 1.353 . S
C446 H504 0.929 . S
C447 C444 1.356 . S
C447 C449 1.358 . S
C447 H505 0.930 1_554 S
C448 N445 1.314 . S
C448 C446 1.353 . S
C448 H506 0.930 . S
C449 N445 1.279 . S
C449 C447 1.358 . S
C449 H507 0.930 1_554 S
C450 C453 1.348 1_545 S
C450 C454 1.356 . S
C450 O501 1.325 . S
C451 N452 1.279 . S
C451 C454 1.358 . S
C451 H508 0.930 . S
N452 C451 1.279 . S
N452 C455 1.282 1_545 S
C453 C450 1.348 1_565 S
C453 C455 1.351 . S
C453 H509 0.929 . S
C454 C450 1.356 . S
C454 C451 1.358 . S
C454 H510 0.930 . S
C455 N452 1.282 1_565 S
C455 C453 1.351 . S
C455 H511 0.970 . S
C456 N457 1.314 . S
C456 C461 1.353 . S
C456 H462 0.930 . S
N457 Li440 1.990 . S
N457 C456 1.314 . S
N457 C459 1.279 . S
C458 C459 1.358 . S
C458 C460 1.356 . S
C458 H512 0.930 . S
C459 N457 1.279 . S
C459 C458 1.358 . S
C459 H463 0.930 . S
C460 C458 1.356 . S
C460 C461 1.348 . S
C461 C456 1.353 . S
C461 C460 1.348 . S
C461 H513 0.929 . S
H462 C456 0.930 . S
H463 C459 0.930 . S
C464 N465 1.314 . S
C464 C466 1.353 . S
C464 H470 0.930 . S
N465 Li441 1.990 . S
N465 C464 1.314 . S
N465 C468 1.279 . S
C466 C464 1.353 . S
C466 C469 1.348 . S
C466 H514 0.929 . S
C467 C468 1.358 . S
C467 C469 1.356 . S
C467 H515 0.930 . S
C468 N465 1.279 . S
C468 C467 1.358 . S
C468 H471 0.930 . S
C469 C466 1.348 . S
C469 C467 1.356 . S
H470 C464 0.930 . S
H471 C468 0.930 . S
C472 C474 1.348 1_565 S
C472 C475 1.356 . S
C472 O502 1.325 . S
N473 C476 1.282 1_565 S
N473 C477 1.279 . S
C474 C472 1.348 1_545 S
C474 C476 1.372 . S
C474 H516 0.929 . S
C475 C472 1.356 . S
C475 C477 1.358 . S
C475 H517 0.930 . S
C476 N473 1.282 1_545 S
C476 C474 1.372 . S
C476 H518 0.946 . S
C477 N473 1.279 . S
C477 C475 1.358 . S
C477 H519 0.930 . S
C478 C479 1.354 . S
C478 C480 1.351 1_556 S
C478 O503 1.323 1_556 S
C479 C478 1.354 . S
C479 C481 1.353 . S
C479 H520 0.929 . S
C480 C478 1.351 1_554 S
C480 C482 1.358 . S
C480 H521 0.930 . S
C481 C479 1.353 . S
C481 N483 1.314 . S
C481 H522 0.930 . S
C482 C480 1.358 . S
C482 N483 1.279 1_554 S
C482 H523 0.930 . S
N483 C481 1.314 . S
N483 C482 1.279 1_556 S
C484 C486 1.353 . S
C484 N487 1.314 . S
C484 H490 0.930 . S
C485 N487 1.279 . S
C485 C488 1.358 . S
C485 H491 0.930 . S
C486 C484 1.353 . S
C486 C489 1.348 . S
C486 H524 0.929 . S
N487 Li442 1.990 . S
N487 C484 1.314 . S
N487 C485 1.279 . S
C488 C485 1.358 . S
C488 C489 1.356 . S
C488 H525 0.930 . S
C489 C486 1.348 . S
C489 C488 1.356 . S
H490 C484 0.930 . S
H491 C485 0.930 . S
C492 N493 1.312 1_554 S
C492 C494 1.361 . S
C492 H498 0.930 . S
N493 Li443 1.988 1_556 S
N493 C492 1.312 1_556 S
N493 C496 1.285 . S
C494 C492 1.361 . S
C494 C497 1.327 1_554 S
C494 H526 0.944 . S
C495 C496 1.358 . S
C495 C497 1.356 . S
C495 H527 0.930 . S
C496 N493 1.285 . S
C496 C495 1.358 . S
C496 H499 0.930 . S
C497 C494 1.327 1_556 S
C497 C495 1.356 . S
H498 C492 0.930 . S
H499 C496 0.930 . S
O500 Li440 1.956 . S
O500 Li441 1.970 1_565 S
O500 Li442 1.961 1_554 S
O500 C444 1.325 . S
O501 Li440 1.970 1_545 S
O501 Li441 1.956 . S
O501 Li443 1.961 . S
O501 C450 1.325 . S
O502 Li440 1.961 1_556 S
O502 Li442 1.956 . S
O502 Li443 1.970 1_566 S
O502 C472 1.325 . S
O503 Li441 1.961 . S
O503 Li442 1.970 1_544 S
O503 Li443 1.956 . S
O503 C478 1.323 1_554 S
H504 C446 0.929 . S
H505 C447 0.930 1_556 S
H506 C448 0.930 . S
H507 C449 0.930 1_556 S
H508 C451 0.930 . S
H509 C453 0.929 . S
H510 C454 0.930 . S
H511 C455 0.970 . S
H512 C458 0.930 . S
H513 C461 0.929 . S
H514 C466 0.929 . S
H515 C467 0.930 . S
H516 C474 0.929 . S
H517 C475 0.930 . S
H518 C476 0.946 . S
H519 C477 0.930 . S
H520 C479 0.929 . S
H521 C480 0.930 . S
H522 C481 0.930 . S
H523 C482 0.930 . S
H524 C486 0.929 . S
H525 C488 0.930 . S
H526 C494 0.944 . S
H527 C495 0.930 . S
Li528 N545 1.990 . S
Li528 O588 1.956 . S
Li528 O589 1.970 . S
Li528 O590 1.961 . S
Li529 N553 1.990 . S
Li529 O588 1.970 . S
Li529 O589 1.956 . S
Li529 O591 1.961 . S
Li530 N575 1.990 . S
Li530 O588 1.961 . S
Li530 O590 1.956 . S
Li530 O591 1.970 . S
Li531 N581 1.990 . S
Li531 O589 1.961 . S
Li531 O590 1.970 . S
Li531 O591 1.956 . S
C532 C534 1.348 . S
C532 C535 1.356 . S
C532 O588 1.325 . S
N533 C536 1.314 . S
N533 C537 1.279 . S
C534 C532 1.348 . S
C534 C536 1.353 . S
C534 H592 0.929 . S
C535 C532 1.356 . S
C535 C537 1.358 . S
C535 H593 0.930 . S
C536 N533 1.314 . S
C536 C534 1.353 . S
C536 H594 0.930 . S
C537 N533 1.279 . S
C537 C535 1.358 . S
C537 H595 0.930 . S
C538 C541 1.348 . S
C538 C542 1.356 . S
C538 O589 1.325 . S
C539 N540 1.279 . S
C539 C542 1.358 . S
C539 H596 0.930 . S
N540 C539 1.279 . S
N540 C543 1.314 . S
C541 C538 1.348 . S
C541 C543 1.353 . S
C541 H597 0.929 . S
C542 C538 1.356 . S
C542 C539 1.358 . S
C542 H598 0.930 . S
C543 N540 1.314 . S
C543 C541 1.353 . S
C543 H599 0.930 . S
C544 N545 1.314 . S
C544 C549 1.353 . S
C544 H550 0.930 . S
N545 Li528 1.990 . S
N545 C544 1.314 . S
N545 C547 1.279 . S
C546 C547 1.358 . S
C546 C548 1.356 . S
C546 H600 0.930 . S
C547 N545 1.279 . S
C547 C546 1.358 . S
C547 H551 0.930 . S
C548 C546 1.356 . S
C548 C549 1.348 . S
C549 C544 1.353 . S
C549 C548 1.348 . S
C549 H601 0.929 . S
H550 C544 0.930 . S
H551 C547 0.930 . S
C552 N553 1.314 . S
C552 C554 1.353 . S
C552 H558 0.930 . S
N553 Li529 1.990 . S
N553 C552 1.314 . S
N553 C556 1.279 . S
C554 C552 1.353 . S
C554 C557 1.348 . S
C554 H602 0.929 . S
C555 C556 1.358 . S
C555 C557 1.356 . S
C555 H603 0.930 . S
C556 N553 1.279 . S
C556 C555 1.358 . S
C556 H559 0.930 . S
C557 C554 1.348 . S
C557 C555 1.356 . S
H558 C552 0.930 . S
H559 C556 0.930 . S
C560 C562 1.348 . S
C560 C563 1.356 . S
C560 O590 1.325 . S
N561 C564 1.314 . S
N561 C565 1.279 . S
C562 C560 1.348 . S
C562 C564 1.353 . S
C562 H604 0.929 . S
C563 C560 1.356 . S
C563 C565 1.358 . S
C563 H605 0.930 . S
C564 N561 1.314 . S
C564 C562 1.353 . S
C564 H606 0.930 . S
C565 N561 1.279 . S
C565 C563 1.358 . S
C565 H607 0.930 . S
C566 C567 1.348 . S
C566 C568 1.356 . S
C566 O591 1.325 . S
C567 C566 1.348 . S
C567 C569 1.353 . S
C567 H608 0.929 . S
C568 C566 1.356 . S
C568 C570 1.358 . S
C568 H609 0.930 . S
C569 C567 1.353 . S
C569 N571 1.314 . S
C569 H610 0.930 . S
C570 C568 1.358 . S
C570 N571 1.279 . S
C570 H611 0.930 . S
N571 C569 1.314 . S
N571 C570 1.279 . S
C572 C574 1.353 . S
C572 N575 1.314 . S
C572 H578 0.930 . S
C573 N575 1.279 . S
C573 C576 1.358 . S
C573 H579 0.930 . S
C574 C572 1.353 . S
C574 C577 1.348 . S
C574 H612 0.929 . S
N575 Li530 1.990 . S
N575 C572 1.314 . S
N575 C573 1.279 . S
C576 C573 1.358 . S
C576 C577 1.356 . S
C576 H613 0.930 . S
C577 C574 1.348 . S
C577 C576 1.356 . S
H578 C572 0.930 . S
H579 C573 0.930 . S
C580 N581 1.314 . S
C580 C582 1.353 . S
C580 H586 0.930 . S
N581 Li531 1.990 . S
N581 C580 1.314 . S
N581 C584 1.279 . S
C582 C580 1.353 . S
C582 C585 1.348 . S
C582 H614 0.929 . S
C583 C584 1.358 . S
C583 C585 1.356 . S
C583 H615 0.930 . S
C584 N581 1.279 . S
C584 C583 1.358 . S
C584 H587 0.930 . S
C585 C582 1.348 . S
C585 C583 1.356 . S
H586 C580 0.930 . S
H587 C584 0.930 . S
O588 Li528 1.956 . S
O588 Li529 1.970 . S
O588 Li530 1.961 . S
O588 C532 1.325 . S
O589 Li528 1.970 . S
O589 Li529 1.956 . S
O589 Li531 1.961 . S
O589 C538 1.325 . S
O590 Li528 1.961 . S
O590 Li530 1.956 . S
O590 Li531 1.970 . S
O590 C560 1.325 . S
O591 Li529 1.961 . S
O591 Li530 1.970 . S
O591 Li531 1.956 . S
O591 C566 1.325 . S
H592 C534 0.929 . S
H593 C535 0.930 . S
H594 C536 0.930 . S
H595 C537 0.930 . S
H596 C539 0.930 . S
H597 C541 0.929 . S
H598 C542 0.930 . S
H599 C543 0.930 . S
H600 C546 0.930 . S
H601 C549 0.929 . S
H602 C554 0.929 . S
H603 C555 0.930 . S
H604 C562 0.929 . S
H605 C563 0.930 . S
H606 C564 0.930 . S
H607 C565 0.930 . S
H608 C567 0.929 . S
H609 C568 0.930 . S
H610 C569 0.930 . S
H611 C570 0.930 . S
H612 C574 0.929 . S
H613 C576 0.930 . S
H614 C582 0.929 . S
H615 C583 0.930 . S
Li616 N633 1.990 . S
Li616 O676 1.956 . S
Li616 O677 1.970 . S
Li616 O678 1.961 . S
Li617 N641 1.990 . S
Li617 O676 1.970 . S
Li617 O677 1.956 . S
Li617 O679 1.961 . S
Li618 N663 1.990 1_565 S
Li618 O676 1.961 . S
Li618 O678 1.956 . S
Li618 O679 1.970 . S
Li619 N669 1.990 . S
Li619 O677 1.961 . S
Li619 O678 1.970 . S
Li619 O679 1.956 . S
C620 C622 1.348 . S
C620 C623 1.356 . S
C620 O676 1.325 . S
N621 C624 1.314 . S
N621 C625 1.279 . S
C622 C620 1.348 . S
C622 C624 1.353 . S
C622 H680 0.929 . S
C623 C620 1.356 . S
C623 C625 1.358 . S
C623 H681 0.930 . S
C624 N621 1.314 . S
C624 C622 1.353 . S
C624 H682 0.930 . S
C625 N621 1.279 . S
C625 C623 1.358 . S
C625 H683 0.930 . S
C626 C629 1.348 . S
C626 C630 1.356 . S
C626 O677 1.325 . S
C627 N628 1.279 . S
C627 C630 1.358 . S
C627 H684 0.930 . S
N628 C627 1.279 . S
N628 C631 1.314 . S
C629 C626 1.348 . S
C629 C631 1.353 . S
C629 H685 0.929 . S
C630 C626 1.356 . S
C630 C627 1.358 . S
C630 H686 0.930 . S
C631 N628 1.314 . S
C631 C629 1.353 . S
C631 H687 0.930 . S
C632 N633 1.314 . S
C632 C637 1.353 . S
C632 H638 0.930 . S
N633 Li616 1.990 . S
N633 C632 1.314 . S
N633 C635 1.279 . S
C634 C635 1.358 . S
C634 C636 1.356 . S
C634 H688 0.930 . S
C635 N633 1.279 . S
C635 C634 1.358 . S
C635 H639 0.930 . S
C636 C634 1.356 . S
C636 C637 1.348 . S
C637 C632 1.353 . S
C637 C636 1.348 . S
C637 H689 0.929 . S
H638 C632 0.930 . S
H639 C635 0.930 . S
C640 N641 1.314 . S
C640 C642 1.353 . S
C640 H646 0.930 . S
N641 Li617 1.990 . S
N641 C640 1.314 . S
N641 C644 1.279 . S
C642 C640 1.353 . S
C642 C645 1.348 . S
C642 H690 0.929 . S
C643 C644 1.358 . S
C643 C645 1.356 . S
C643 H691 0.930 . S
C644 N641 1.279 . S
C644 C643 1.358 . S
C644 H647 0.930 . S
C645 C642 1.348 . S
C645 C643 1.356 . S
H646 C640 0.930 . S
H647 C644 0.930 . S
C648 C650 1.348 . S
C648 C651 1.356 . S
C648 O678 1.325 1_545 S
N649 C652 1.314 . S
N649 C653 1.279 . S
C650 C648 1.348 . S
C650 C652 1.353 . S
C650 H692 0.929 . S
C651 C648 1.356 . S
C651 C653 1.358 . S
C651 H693 0.930 . S
C652 N649 1.314 . S
C652 C650 1.353 . S
C652 H694 0.930 . S
C653 N649 1.279 . S
C653 C651 1.358 . S
C653 H695 0.930 . S
C654 C655 1.348 1_565 S
C654 C656 1.356 . S
C654 O679 1.325 . S
C655 C654 1.348 1_545 S
C655 C657 1.353 . S
C655 H696 0.929 . S
C656 C654 1.356 . S
C656 C658 1.358 . S
C656 H697 0.930 . S
C657 C655 1.353 . S
C657 N659 1.314 . S
C657 H698 0.930 . S
C658 C656 1.358 . S
C658 N659 1.279 1_565 S
C658 H699 0.930 . S
N659 C657 1.314 . S
N659 C658 1.279 1_545 S
C660 C662 1.353 . S
C660 N663 1.314 . S
C660 H666 0.930 . S
C661 N663 1.279 . S
C661 C664 1.358 . S
C661 H667 0.930 . S
C662 C660 1.353 . S
C662 C665 1.348 . S
C662 H700 0.929 . S
N663 Li618 1.990 1_545 S
N663 C660 1.314 . S
N663 C661 1.279 . S
C664 C661 1.358 . S
C664 C665 1.356 . S
C664 H701 0.930 . S
C665 C662 1.348 . S
C665 C664 1.356 . S
H666 C660 0.930 . S
H667 C661 0.930 . S
C668 N669 1.314 . S
C668 C670 1.353 . S
C668 H674 0.930 . S
N669 Li619 1.990 . S
N669 C668 1.314 . S
N669 C672 1.279 . S
C670 C668 1.353 . S
C670 C673 1.348 . S
C670 H702 0.929 . S
C671 C672 1.358 . S
C671 C673 1.356 . S
C671 H703 0.946 . S
C672 N669 1.279 . S
C672 C671 1.358 . S
C672 H675 0.930 . S
C673 C670 1.348 . S
C673 C671 1.356 . S
H674 C668 0.930 . S
H675 C672 0.930 . S
O676 Li616 1.956 . S
O676 Li617 1.970 . S
O676 Li618 1.961 . S
O676 C620 1.325 . S
O677 Li616 1.970 . S
O677 Li617 1.956 . S
O677 Li619 1.961 . S
O677 C626 1.325 . S
O678 Li616 1.961 . S
O678 Li618 1.956 . S
O678 Li619 1.970 . S
O678 C648 1.325 1_565 S
O679 Li617 1.961 . S
O679 Li618 1.970 . S
O679 Li619 1.956 . S
O679 C654 1.325 . S
H680 C622 0.929 . S
H681 C623 0.930 . S
H682 C624 0.930 . S
H683 C625 0.930 . S
H684 C627 0.930 . S
H685 C629 0.929 . S
H686 C630 0.930 . S
H687 C631 0.930 . S
H688 C634 0.930 . S
H689 C637 0.929 . S
H690 C642 0.929 . S
H691 C643 0.930 . S
H692 C650 0.929 . S
H693 C651 0.930 . S
H694 C652 0.930 . S
H695 C653 0.930 . S
H696 C655 0.929 . S
H697 C656 0.930 . S
H698 C657 0.930 . S
H699 C658 0.930 . S
H700 C662 0.929 . S
H701 C664 0.930 . S
H702 C670 0.929 . S
H703 C671 0.946 . S
Li704 N721 1.990 . S
Li704 O764 1.956 . S
Li704 O765 1.970 . S
Li704 O766 1.961 . S
Li705 N729 1.990 . S
Li705 O764 1.970 . S
Li705 O765 1.956 . S
Li705 O767 1.961 . S
Li706 N751 1.990 1_455 S
Li706 O764 1.961 . S
Li706 O766 1.956 . S
Li706 O767 1.970 . S
Li707 N757 1.990 . S
Li707 O765 1.961 . S
Li707 O766 1.970 . S
Li707 O767 1.956 . S
C708 C710 1.348 . S
C708 C711 1.356 . S
C708 O764 1.325 . S
N709 C712 1.314 . S
N709 C713 1.279 . S
C710 C708 1.348 . S
C710 C712 1.353 . S
C710 H768 0.929 . S
C711 C708 1.356 . S
C711 C713 1.358 . S
C711 H769 0.930 . S
C712 N709 1.314 . S
C712 C710 1.353 . S
C712 H770 0.930 . S
C713 N709 1.279 . S
C713 C711 1.358 . S
C713 H771 0.930 . S
C714 C717 1.348 . S
C714 C718 1.356 . S
C714 O765 1.325 . S
C715 N716 1.279 . S
C715 C718 1.358 . S
C715 H772 0.930 . S
N716 C715 1.279 . S
N716 C719 1.314 . S
C717 C714 1.348 . S
C717 C719 1.353 . S
C717 H773 0.929 . S
C718 C714 1.356 . S
C718 C715 1.358 . S
C718 H774 0.930 . S
C719 N716 1.314 . S
C719 C717 1.353 . S
C719 H775 0.930 . S
C720 N721 1.314 . S
C720 C725 1.353 . S
C720 H726 0.930 . S
N721 Li704 1.990 . S
N721 C720 1.314 . S
N721 C723 1.279 . S
C722 C723 1.358 . S
C722 C724 1.356 . S
C722 H776 0.930 . S
C723 N721 1.279 . S
C723 C722 1.358 . S
C723 H727 0.930 . S
C724 C722 1.356 . S
C724 C725 1.348 . S
C725 C720 1.353 . S
C725 C724 1.348 . S
C725 H777 0.929 . S
H726 C720 0.930 . S
H727 C723 0.930 . S
C728 N729 1.314 . S
C728 C730 1.353 . S
C728 H734 0.930 . S
N729 Li705 1.990 . S
N729 C728 1.314 . S
N729 C732 1.279 . S
C730 C728 1.353 . S
C730 C733 1.348 . S
C730 H778 0.929 . S
C731 C732 1.358 . S
C731 C733 1.356 . S
C731 H779 0.930 . S
C732 N729 1.279 . S
C732 C731 1.358 . S
C732 H735 0.930 . S
C733 C730 1.348 . S
C733 C731 1.356 . S
H734 C728 0.930 . S
H735 C732 0.930 . S
C736 C738 1.348 . S
C736 C739 1.356 . S
C736 O766 1.325 1_655 S
N737 C740 1.314 . S
N737 C741 1.279 . S
C738 C736 1.348 . S
C738 C740 1.353 . S
C738 H780 0.929 . S
C739 C736 1.356 . S
C739 C741 1.358 . S
C739 H781 0.930 . S
C740 N737 1.314 . S
C740 C738 1.353 . S
C740 H782 0.930 . S
C741 N737 1.279 . S
C741 C739 1.358 . S
C741 H783 0.930 . S
C742 C743 1.348 1_455 S
C742 C744 1.356 . S
C742 O767 1.325 . S
C743 C742 1.348 1_655 S
C743 C745 1.353 . S
C743 H784 0.929 . S
C744 C742 1.356 . S
C744 C746 1.358 . S
C744 H785 0.930 . S
C745 C743 1.353 . S
C745 N747 1.314 . S
C745 H786 0.930 . S
C746 C744 1.358 . S
C746 N747 1.279 1_455 S
C746 H787 0.930 . S
N747 C745 1.314 . S
N747 C746 1.279 1_655 S
C748 C750 1.353 . S
C748 N751 1.314 . S
C748 H754 0.930 . S
C749 N751 1.279 . S
C749 C752 1.358 . S
C749 H755 0.930 . S
C750 C748 1.353 . S
C750 C753 1.348 . S
C750 H788 0.929 . S
N751 Li706 1.990 1_655 S
N751 C748 1.314 . S
N751 C749 1.279 . S
C752 C749 1.358 . S
C752 C753 1.356 . S
C752 H789 0.930 . S
C753 C750 1.348 . S
C753 C752 1.356 . S
H754 C748 0.930 . S
H755 C749 0.930 . S
C756 N757 1.314 . S
C756 C758 1.353 . S
C756 H762 0.930 . S
N757 Li707 1.990 . S
N757 C756 1.314 . S
N757 C760 1.279 . S
C758 C756 1.353 . S
C758 C761 1.348 . S
C758 H790 0.929 . S
C759 C760 1.358 . S
C759 C761 1.356 . S
C759 H791 0.930 . S
C760 N757 1.279 . S
C760 C759 1.358 . S
C760 H763 0.930 . S
C761 C758 1.348 . S
C761 C759 1.356 . S
H762 C756 0.930 . S
H763 C760 0.930 . S
O764 Li704 1.956 . S
O764 Li705 1.970 . S
O764 Li706 1.961 . S
O764 C708 1.325 . S
O765 Li704 1.970 . S
O765 Li705 1.956 . S
O765 Li707 1.961 . S
O765 C714 1.325 . S
O766 Li704 1.961 . S
O766 Li706 1.956 . S
O766 Li707 1.970 . S
O766 C736 1.325 1_455 S
O767 Li705 1.961 . S
O767 Li706 1.970 . S
O767 Li707 1.956 . S
O767 C742 1.325 . S
H768 C710 0.929 . S
H769 C711 0.930 . S
H770 C712 0.930 . S
H771 C713 0.930 . S
H772 C715 0.930 . S
H773 C717 0.929 . S
H774 C718 0.930 . S
H775 C719 0.930 . S
H776 C722 0.930 . S
H777 C725 0.929 . S
H778 C730 0.929 . S
H779 C731 0.930 . S
H780 C738 0.929 . S
H781 C739 0.930 . S
H782 C740 0.930 . S
H783 C741 0.930 . S
H784 C743 0.929 . S
H785 C744 0.930 . S
H786 C745 0.930 . S
H787 C746 0.930 . S
H788 C750 0.929 . S
H789 C752 0.930 . S
H790 C758 0.929 . S
H791 C759 0.930 . S
Li792 N809 1.990 1_565 S
Li792 O852 1.956 . S
Li792 O853 1.970 . S
Li792 O854 1.961 . S
Li793 N817 1.990 . S
Li793 O852 1.970 . S
Li793 O853 1.956 . S
Li793 O855 1.961 . S
Li794 N839 1.990 . S
Li794 O852 1.961 . S
Li794 O854 1.956 . S
Li794 O855 1.970 . S
Li795 N845 1.990 . S
Li795 O853 1.961 . S
Li795 O854 1.970 . S
Li795 O855 1.956 . S
C796 C798 1.348 . S
C796 C799 1.356 . S
C796 O852 1.325 . S
N797 C800 1.314 . S
N797 C801 1.279 . S
C798 C796 1.348 . S
C798 C800 1.353 . S
C798 H856 0.929 . S
C799 C796 1.356 . S
C799 C801 1.358 . S
C799 H857 0.930 . S
C800 N797 1.314 . S
C800 C798 1.353 . S
C800 H858 0.930 . S
C801 N797 1.279 . S
C801 C799 1.358 . S
C801 H859 0.930 . S
C802 C805 1.348 1_565 S
C802 C806 1.356 . S
C802 O853 1.325 . S
C803 N804 1.279 1_565 S
C803 C806 1.358 . S
C803 H860 0.930 . S
N804 C803 1.279 1_545 S
N804 C807 1.314 . S
C805 C802 1.348 1_545 S
C805 C807 1.353 . S
C805 H861 0.929 . S
C806 C802 1.356 . S
C806 C803 1.358 . S
C806 H862 0.930 . S
C807 N804 1.314 . S
C807 C805 1.353 . S
C807 H863 0.930 . S
C808 N809 1.314 . S
C808 C813 1.353 . S
C808 H814 0.930 . S
N809 Li792 1.990 1_545 S
N809 C808 1.314 . S
N809 C811 1.279 . S
C810 C811 1.358 . S
C810 C812 1.356 . S
C810 H864 0.930 . S
C811 N809 1.279 . S
C811 C810 1.358 . S
C811 H815 0.930 . S
C812 C810 1.356 . S
C812 C813 1.348 . S
C813 C808 1.353 . S
C813 C812 1.348 . S
C813 H865 0.929 . S
H814 C808 0.930 . S
H815 C811 0.930 . S
C816 N817 1.314 . S
C816 C818 1.353 . S
C816 H822 0.930 . S
N817 Li793 1.990 . S
N817 C816 1.314 . S
N817 C820 1.279 . S
C818 C816 1.353 . S
C818 C821 1.348 . S
C818 H866 0.929 . S
C819 C820 1.358 . S
C819 C821 1.356 . S
C819 H867 0.930 . S
C820 N817 1.279 . S
C820 C819 1.358 . S
C820 H823 0.930 . S
C821 C818 1.348 . S
C821 C819 1.356 . S
H822 C816 0.930 . S
H823 C820 0.930 . S
C824 C826 1.348 . S
C824 C827 1.356 . S
C824 O854 1.325 1_545 S
N825 C828 1.314 . S
N825 C829 1.279 . S
C826 C824 1.348 . S
C826 C828 1.353 . S
C826 H868 0.929 1_545 S
C827 C824 1.356 . S
C827 C829 1.358 . S
C827 H869 0.930 . S
C828 N825 1.314 . S
C828 C826 1.353 . S
C828 H870 0.930 . S
C829 N825 1.279 . S
C829 C827 1.358 . S
C829 H871 0.930 . S
C830 C831 1.348 . S
C830 C832 1.356 . S
C830 O855 1.325 . S
C831 C830 1.348 . S
C831 C833 1.353 . S
C831 H872 0.929 . S
C832 C830 1.356 . S
C832 C834 1.358 . S
C832 H873 0.930 . S
C833 C831 1.353 . S
C833 N835 1.314 . S
C833 H874 0.930 . S
C834 C832 1.358 . S
C834 N835 1.279 . S
C834 H875 0.930 . S
N835 C833 1.314 . S
N835 C834 1.279 . S
C836 C838 1.353 . S
C836 N839 1.314 . S
C836 H842 0.930 . S
C837 N839 1.279 . S
C837 C840 1.358 . S
C837 H843 0.930 . S
C838 C836 1.353 . S
C838 C841 1.348 . S
C838 H876 0.929 . S
N839 Li794 1.990 . S
N839 C836 1.314 . S
N839 C837 1.279 . S
C840 C837 1.358 . S
C840 C841 1.356 . S
C840 H877 0.930 . S
C841 C838 1.348 . S
C841 C840 1.356 . S
H842 C836 0.930 . S
H843 C837 0.930 . S
C844 N845 1.314 . S
C844 C846 1.353 . S
C844 H850 0.930 1_565 S
N845 Li795 1.990 . S
N845 C844 1.314 . S
N845 C848 1.279 . S
C846 C844 1.353 . S
C846 C849 1.348 . S
C846 H878 0.929 1_565 S
C847 C848 1.358 . S
C847 C849 1.356 . S
C847 H879 0.930 . S
C848 N845 1.279 . S
C848 C847 1.358 . S
C848 H851 0.930 . S
C849 C846 1.348 . S
C849 C847 1.356 . S
H850 C844 0.930 1_545 S
H851 C848 0.930 . S
O852 Li792 1.956 . S
O852 Li793 1.970 . S
O852 Li794 1.961 . S
O852 C796 1.325 . S
O853 Li792 1.970 . S
O853 Li793 1.956 . S
O853 Li795 1.961 . S
O853 C802 1.325 . S
O854 Li792 1.961 . S
O854 Li794 1.956 . S
O854 Li795 1.970 . S
O854 C824 1.325 1_565 S
O855 Li793 1.961 . S
O855 Li794 1.970 . S
O855 Li795 1.956 . S
O855 C830 1.325 . S
H856 C798 0.929 . S
H857 C799 0.930 . S
H858 C800 0.930 . S
H859 C801 0.930 . S
H860 C803 0.930 . S
H861 C805 0.929 . S
H862 C806 0.930 . S
H863 C807 0.930 . S
H864 C810 0.930 . S
H865 C813 0.929 . S
H866 C818 0.929 . S
H867 C819 0.930 . S
H868 C826 0.929 1_565 S
H869 C827 0.930 . S
H870 C828 0.930 . S
H871 C829 0.930 . S
H872 C831 0.929 . S
H873 C832 0.930 . S
H874 C833 0.930 . S
H875 C834 0.930 . S
H876 C838 0.929 . S
H877 C840 0.930 . S
H878 C846 0.929 1_545 S
H879 C847 0.930 . S
Li880 N897 1.990 . S
Li880 O940 1.956 . S
Li880 O941 1.970 . S
Li880 O942 1.961 . S
Li881 N905 1.990 1_455 S
Li881 O940 1.970 . S
Li881 O941 1.956 . S
Li881 O943 1.961 . S
Li882 N927 1.990 . S
Li882 O940 1.961 . S
Li882 O942 1.956 . S
Li882 O943 1.970 . S
Li883 N933 1.990 . S
Li883 O941 1.961 . S
Li883 O942 1.970 . S
Li883 O943 1.956 . S
C884 C886 1.348 1_455 S
C884 C887 1.356 . S
C884 O940 1.325 . S
N885 C888 1.314 . S
N885 C889 1.279 1_655 S
C886 C884 1.348 1_655 S
C886 C888 1.353 . S
C886 H944 0.929 . S
C887 C884 1.356 . S
C887 C889 1.358 . S
C887 H945 0.930 . S
C888 N885 1.314 . S
C888 C886 1.353 . S
C888 H946 0.930 . S
C889 N885 1.279 1_455 S
C889 C887 1.358 . S
C889 H947 0.930 . S
C890 C893 1.348 . S
C890 C894 1.356 . S
C890 O941 1.325 . S
C891 N892 1.279 . S
C891 C894 1.358 . S
C891 H948 0.930 . S
N892 C891 1.279 . S
N892 C895 1.314 . S
C893 C890 1.348 . S
C893 C895 1.353 . S
C893 H949 0.929 . S
C894 C890 1.356 . S
C894 C891 1.358 . S
C894 H950 0.930 . S
C895 N892 1.314 . S
C895 C893 1.353 . S
C895 H951 0.930 . S
C896 N897 1.314 . S
C896 C901 1.353 . S
C896 H902 0.930 . S
N897 Li880 1.990 . S
N897 C896 1.314 . S
N897 C899 1.279 . S
C898 C899 1.358 . S
C898 C900 1.356 . S
C898 H952 0.930 . S
C899 N897 1.279 . S
C899 C898 1.358 . S
C899 H903 0.930 . S
C900 C898 1.356 . S
C900 C901 1.348 . S
C901 C896 1.353 . S
C901 C900 1.348 . S
C901 H953 0.929 . S
H902 C896 0.930 . S
H903 C899 0.930 . S
C904 N905 1.314 . S
C904 C906 1.353 . S
C904 H910 0.930 . S
N905 Li881 1.990 1_655 S
N905 C904 1.314 . S
N905 C908 1.279 . S
C906 C904 1.353 . S
C906 C909 1.348 . S
C906 H954 0.929 . S
C907 C908 1.358 . S
C907 C909 1.356 . S
C907 H955 0.930 . S
C908 N905 1.279 . S
C908 C907 1.358 . S
C908 H911 0.930 . S
C909 C906 1.348 . S
C909 C907 1.356 . S
H910 C904 0.930 . S
H911 C908 0.930 . S
C912 C914 1.348 . S
C912 C915 1.356 . S
C912 O942 1.325 . S
N913 C916 1.314 . S
N913 C917 1.279 . S
C914 C912 1.348 . S
C914 C916 1.353 . S
C914 H956 0.929 . S
C915 C912 1.356 . S
C915 C917 1.358 . S
C915 H957 0.930 . S
C916 N913 1.314 . S
C916 C914 1.353 . S
C916 H958 0.930 . S
C917 N913 1.279 . S
C917 C915 1.358 . S
C917 H959 0.930 . S
C918 C919 1.348 . S
C918 C920 1.356 . S
C918 O943 1.325 1_655 S
C919 C918 1.348 . S
C919 C921 1.353 . S
C919 H960 0.929 1_655 S
C920 C918 1.356 . S
C920 C922 1.358 . S
C920 H961 0.930 . S
C921 C919 1.353 . S
C921 N923 1.314 . S
C921 H962 0.930 . S
C922 C920 1.358 . S
C922 N923 1.279 . S
C922 H963 0.930 . S
N923 C921 1.314 . S
N923 C922 1.279 . S
C924 C926 1.353 . S
C924 N927 1.314 . S
C924 H930 0.930 1_455 S
C925 N927 1.279 . S
C925 C928 1.358 . S
C925 H931 0.930 . S
C926 C924 1.353 . S
C926 C929 1.348 . S
C926 H964 0.929 1_455 S
N927 Li882 1.990 . S
N927 C924 1.314 . S
N927 C925 1.279 . S
C928 C925 1.358 . S
C928 C929 1.356 . S
C928 H965 0.930 . S
C929 C926 1.348 . S
C929 C928 1.356 . S
H930 C924 0.930 1_655 S
H931 C925 0.930 . S
C932 N933 1.314 . S
C932 C934 1.353 . S
C932 H938 0.930 . S
N933 Li883 1.990 . S
N933 C932 1.314 . S
N933 C936 1.279 . S
C934 C932 1.353 . S
C934 C937 1.348 . S
C934 H966 0.929 . S
C935 C936 1.358 . S
C935 C937 1.356 . S
C935 H967 0.930 . S
C936 N933 1.279 . S
C936 C935 1.358 . S
C936 H939 0.930 . S
C937 C934 1.348 . S
C937 C935 1.356 . S
H938 C932 0.930 . S
H939 C936 0.930 . S
O940 Li880 1.956 . S
O940 Li881 1.970 . S
O940 Li882 1.961 . S
O940 C884 1.325 . S
O941 Li880 1.970 . S
O941 Li881 1.956 . S
O941 Li883 1.961 . S
O941 C890 1.325 . S
O942 Li880 1.961 . S
O942 Li882 1.956 . S
O942 Li883 1.970 . S
O942 C912 1.325 . S
O943 Li881 1.961 . S
O943 Li882 1.970 . S
O943 Li883 1.956 . S
O943 C918 1.325 1_455 S
H944 C886 0.929 . S
H945 C887 0.930 . S
H946 C888 0.930 . S
H947 C889 0.930 . S
H948 C891 0.930 . S
H949 C893 0.929 . S
H950 C894 0.930 . S
H951 C895 0.930 . S
H952 C898 0.930 . S
H953 C901 0.929 . S
H954 C906 0.929 . S
H955 C907 0.930 . S
H956 C914 0.929 . S
H957 C915 0.930 . S
H958 C916 0.930 . S
H959 C917 0.930 . S
H960 C919 0.929 1_455 S
H961 C920 0.930 . S
H962 C921 0.930 . S
H963 C922 0.930 . S
H964 C926 0.929 1_655 S
H965 C928 0.930 . S
H966 C934 0.929 . S
H967 C935 0.930 . S
Li968 N985 1.990 . S
Li968 O1028 1.956 . S
Li968 O1029 1.970 . S
Li968 O1030 1.961 . S
Li969 N993 1.990 . S
Li969 O1028 1.970 . S
Li969 O1029 1.956 . S
Li969 O1031 1.961 . S
Li970 N1015 1.990 . S
Li970 O1028 1.961 . S
Li970 O1030 1.956 . S
Li970 O1031 1.970 . S
Li971 N1021 1.990 . S
Li971 O1029 1.961 . S
Li971 O1030 1.970 . S
Li971 O1031 1.956 . S
C972 C974 1.348 . S
C972 C975 1.356 . S
C972 O1028 1.325 . S
N973 C976 1.314 . S
N973 C977 1.279 . S
C974 C972 1.348 . S
C974 C976 1.353 . S
C974 H1032 0.929 . S
C975 C972 1.356 . S
C975 C977 1.358 . S
C975 H1033 0.930 . S
C976 N973 1.314 . S
C976 C974 1.353 . S
C976 H1034 0.930 . S
C977 N973 1.279 . S
C977 C975 1.358 . S
C977 H1035 0.930 . S
C978 C981 1.348 . S
C978 C982 1.356 . S
C978 O1029 1.325 . S
C979 N980 1.279 . S
C979 C982 1.358 . S
C979 H1036 0.930 . S
N980 C979 1.279 . S
N980 C983 1.314 . S
C981 C978 1.348 . S
C981 C983 1.353 . S
C981 H1037 0.929 . S
C982 C978 1.356 . S
C982 C979 1.358 . S
C982 H1038 0.930 . S
C983 N980 1.314 . S
C983 C981 1.353 . S
C983 H1039 0.930 . S
C984 N985 1.314 . S
C984 C989 1.353 . S
C984 H990 0.930 . S
N985 Li968 1.990 . S
N985 C984 1.314 . S
N985 C987 1.279 . S
C986 C987 1.358 . S
C986 C988 1.356 . S
C986 H1040 0.930 . S
C987 N985 1.279 . S
C987 C986 1.358 . S
C987 H991 0.930 . S
C988 C986 1.356 . S
C988 C989 1.348 . S
C989 C984 1.353 . S
C989 C988 1.348 . S
C989 H1041 0.929 . S
H990 C984 0.930 . S
H991 C987 0.930 . S
C992 N993 1.314 . S
C992 C994 1.353 . S
C992 H998 0.930 . S
N993 Li969 1.990 . S
N993 C992 1.314 . S
N993 C996 1.279 . S
C994 C992 1.353 . S
C994 C997 1.348 . S
C994 H1042 0.929 . S
C995 C996 1.358 . S
C995 C997 1.356 . S
C995 H1043 0.930 . S
C996 N993 1.279 . S
C996 C995 1.358 . S
C996 H999 0.930 . S
C997 C994 1.348 . S
C997 C995 1.356 . S
H998 C992 0.930 . S
H999 C996 0.930 . S
C1000 C1002 1.348 . S
C1000 C1003 1.356 . S
C1000 O1030 1.325 . S
N1001 C1004 1.314 . S
N1001 C1005 1.279 . S
C1002 C1000 1.348 . S
C1002 C1004 1.353 . S
C1002 H1044 0.929 . S
C1003 C1000 1.356 . S
C1003 C1005 1.358 . S
C1003 H1045 0.930 . S
C1004 N1001 1.314 . S
C1004 C1002 1.353 . S
C1004 H1046 0.930 . S
C1005 N1001 1.279 . S
C1005 C1003 1.358 . S
C1005 H1047 0.930 . S
C1006 C1007 1.348 . S
C1006 C1008 1.356 . S
C1006 O1031 1.325 . S
C1007 C1006 1.348 . S
C1007 C1009 1.353 . S
C1007 H1048 0.929 . S
C1008 C1006 1.356 . S
C1008 C1010 1.358 . S
C1008 H1049 0.930 . S
C1009 C1007 1.353 . S
C1009 N1011 1.314 . S
C1009 H1050 0.930 . S
C1010 C1008 1.358 . S
C1010 N1011 1.279 . S
C1010 H1051 0.930 . S
N1011 C1009 1.314 . S
N1011 C1010 1.279 . S
C1012 C1014 1.353 . S
C1012 N1015 1.314 . S
C1012 H1018 0.930 . S
C1013 N1015 1.279 . S
C1013 C1016 1.358 . S
C1013 H1019 0.930 . S
C1014 C1012 1.353 . S
C1014 C1017 1.348 . S
C1014 H1052 0.929 . S
N1015 Li970 1.990 . S
N1015 C1012 1.314 . S
N1015 C1013 1.279 . S
C1016 C1013 1.358 . S
C1016 C1017 1.356 . S
C1016 H1053 0.930 . S
C1017 C1014 1.348 . S
C1017 C1016 1.356 . S
H1018 C1012 0.930 . S
H1019 C1013 0.930 . S
C1020 N1021 1.314 . S
C1020 C1022 1.353 . S
C1020 H1026 0.930 . S
N1021 Li971 1.990 . S
N1021 C1020 1.314 . S
N1021 C1024 1.279 . S
C1022 C1020 1.353 . S
C1022 C1025 1.348 . S
C1022 H1054 0.929 . S
C1023 C1024 1.358 . S
C1023 C1025 1.356 . S
C1023 H1055 0.930 . S
C1024 N1021 1.279 . S
C1024 C1023 1.358 . S
C1024 H1027 0.930 . S
C1025 C1022 1.348 . S
C1025 C1023 1.356 . S
H1026 C1020 0.930 . S
H1027 C1024 0.930 . S
O1028 Li968 1.956 . S
O1028 Li969 1.970 . S
O1028 Li970 1.961 . S
O1028 C972 1.325 . S
O1029 Li968 1.970 . S
O1029 Li969 1.956 . S
O1029 Li971 1.961 . S
O1029 C978 1.325 . S
O1030 Li968 1.961 . S
O1030 Li970 1.956 . S
O1030 Li971 1.970 . S
O1030 C1000 1.325 . S
O1031 Li969 1.961 . S
O1031 Li970 1.970 . S
O1031 Li971 1.956 . S
O1031 C1006 1.325 . S
H1032 C974 0.929 . S
H1033 C975 0.930 . S
H1034 C976 0.930 . S
H1035 C977 0.930 . S
H1036 C979 0.930 . S
H1037 C981 0.929 . S
H1038 C982 0.930 . S
H1039 C983 0.930 . S
H1040 C986 0.930 . S
H1041 C989 0.929 . S
H1042 C994 0.929 . S
H1043 C995 0.930 . S
H1044 C1002 0.929 . S
H1045 C1003 0.930 . S
H1046 C1004 0.930 . S
H1047 C1005 0.930 . S
H1048 C1007 0.929 . S
H1049 C1008 0.930 . S
H1050 C1009 0.930 . S
H1051 C1010 0.930 . S
H1052 C1014 0.929 . S
H1053 C1016 0.930 . S
H1054 C1022 0.929 . S
H1055 C1023 0.930 . S
Li1056 N1073 1.990 1_545 S
Li1056 O1116 1.956 . S
Li1056 O1117 1.970 . S
Li1056 O1118 1.961 . S
Li1057 N1081 1.990 . S
Li1057 O1116 1.970 . S
Li1057 O1117 1.956 . S
Li1057 O1119 1.961 . S
Li1058 N1103 1.990 . S
Li1058 O1116 1.961 . S
Li1058 O1118 1.956 . S
Li1058 O1119 1.970 . S
Li1059 N1109 1.990 . S
Li1059 O1117 1.961 . S
Li1059 O1118 1.970 . S
Li1059 O1119 1.956 . S
C1060 C1062 1.348 . S
C1060 C1063 1.356 . S
C1060 O1116 1.325 1_565 S
N1061 C1064 1.314 . S
N1061 C1065 1.279 . S
C1062 C1060 1.348 . S
C1062 C1064 1.353 . S
C1062 H1120 0.929 . S
C1063 C1060 1.356 . S
C1063 C1065 1.358 . S
C1063 H1121 0.930 . S
C1064 N1061 1.314 . S
C1064 C1062 1.353 . S
C1064 H1122 0.930 . S
C1065 N1061 1.279 . S
C1065 C1063 1.358 . S
C1065 H1123 0.930 . S
C1066 C1069 1.348 1_545 S
C1066 C1070 1.356 . S
C1066 O1117 1.325 . S
C1067 N1068 1.279 1_545 S
C1067 C1070 1.358 . S
C1067 H1124 0.930 . S
N1068 C1067 1.279 1_565 S
N1068 C1071 1.314 . S
C1069 C1066 1.348 1_565 S
C1069 C1071 1.353 . S
C1069 H1125 0.929 . S
C1070 C1066 1.356 . S
C1070 C1067 1.358 . S
C1070 H1126 0.930 . S
C1071 N1068 1.314 . S
C1071 C1069 1.353 . S
C1071 H1127 0.930 . S
C1072 N1073 1.314 . S
C1072 C1077 1.353 . S
C1072 H1078 0.930 . S
N1073 Li1056 1.990 1_565 S
N1073 C1072 1.314 . S
N1073 C1075 1.279 . S
C1074 C1075 1.358 . S
C1074 C1076 1.356 . S
C1074 H1128 0.930 . S
C1075 N1073 1.279 . S
C1075 C1074 1.358 . S
C1075 H1079 0.930 . S
C1076 C1074 1.356 . S
C1076 C1077 1.348 . S
C1077 C1072 1.353 . S
C1077 C1076 1.348 . S
C1077 H1129 0.929 . S
H1078 C1072 0.930 . S
H1079 C1075 0.930 . S
C1080 N1081 1.314 . S
C1080 C1082 1.353 . S
C1080 H1086 0.930 . S
N1081 Li1057 1.990 . S
N1081 C1080 1.314 . S
N1081 C1084 1.279 . S
C1082 C1080 1.353 . S
C1082 C1085 1.348 . S
C1082 H1130 0.929 . S
C1083 C1084 1.358 . S
C1083 C1085 1.356 . S
C1083 H1131 0.930 . S
C1084 N1081 1.279 . S
C1084 C1083 1.358 . S
C1084 H1087 0.930 . S
C1085 C1082 1.348 . S
C1085 C1083 1.356 . S
H1086 C1080 0.930 . S
H1087 C1084 0.930 . S
C1088 C1090 1.348 . S
C1088 C1091 1.356 . S
C1088 O1118 1.325 . S
N1089 C1092 1.314 . S
N1089 C1093 1.279 . S
C1090 C1088 1.348 . S
C1090 C1092 1.353 . S
C1090 H1132 0.929 . S
C1091 C1088 1.356 . S
C1091 C1093 1.358 . S
C1091 H1133 0.930 . S
C1092 N1089 1.314 . S
C1092 C1090 1.353 . S
C1092 H1134 0.930 . S
C1093 N1089 1.279 . S
C1093 C1091 1.358 . S
C1093 H1135 0.930 . S
C1094 C1095 1.348 . S
C1094 C1096 1.356 . S
C1094 O1119 1.325 . S
C1095 C1094 1.348 . S
C1095 C1097 1.353 . S
C1095 H1136 0.929 . S
C1096 C1094 1.356 . S
C1096 C1098 1.358 . S
C1096 H1137 0.930 . S
C1097 C1095 1.353 . S
C1097 N1099 1.314 . S
C1097 H1138 0.930 . S
C1098 C1096 1.358 . S
C1098 N1099 1.279 . S
C1098 H1139 0.930 . S
N1099 C1097 1.314 . S
N1099 C1098 1.279 . S
C1100 C1102 1.353 . S
C1100 N1103 1.314 . S
C1100 H1106 0.930 . S
C1101 N1103 1.279 . S
C1101 C1104 1.358 . S
C1101 H1107 0.930 . S
C1102 C1100 1.353 . S
C1102 C1105 1.348 . S
C1102 H1140 0.929 . S
N1103 Li1058 1.990 . S
N1103 C1100 1.314 . S
N1103 C1101 1.279 . S
C1104 C1101 1.358 . S
C1104 C1105 1.356 . S
C1104 H1141 0.930 . S
C1105 C1102 1.348 . S
C1105 C1104 1.356 . S
H1106 C1100 0.930 . S
H1107 C1101 0.930 . S
C1108 N1109 1.314 . S
C1108 C1110 1.353 . S
C1108 H1114 0.930 . S
N1109 Li1059 1.990 . S
N1109 C1108 1.314 . S
N1109 C1112 1.279 . S
C1110 C1108 1.353 . S
C1110 C1113 1.348 . S
C1110 H1142 0.929 . S
C1111 C1112 1.358 . S
C1111 C1113 1.356 . S
C1111 H1143 0.930 . S
C1112 N1109 1.279 . S
C1112 C1111 1.358 . S
C1112 H1115 0.930 . S
C1113 C1110 1.348 . S
C1113 C1111 1.356 . S
H1114 C1108 0.930 . S
H1115 C1112 0.930 . S
O1116 Li1056 1.956 . S
O1116 Li1057 1.970 . S
O1116 Li1058 1.961 . S
O1116 C1060 1.325 1_545 S
O1117 Li1056 1.970 . S
O1117 Li1057 1.956 . S
O1117 Li1059 1.961 . S
O1117 C1066 1.325 . S
O1118 Li1056 1.961 . S
O1118 Li1058 1.956 . S
O1118 Li1059 1.970 . S
O1118 C1088 1.325 . S
O1119 Li1057 1.961 . S
O1119 Li1058 1.970 . S
O1119 Li1059 1.956 . S
O1119 C1094 1.325 . S
H1120 C1062 0.929 . S
H1121 C1063 0.930 . S
H1122 C1064 0.930 . S
H1123 C1065 0.930 . S
H1124 C1067 0.930 . S
H1125 C1069 0.929 . S
H1126 C1070 0.930 . S
H1127 C1071 0.930 . S
H1128 C1074 0.930 . S
H1129 C1077 0.929 . S
H1130 C1082 0.929 . S
H1131 C1083 0.930 . S
H1132 C1090 0.929 . S
H1133 C1091 0.930 . S
H1134 C1092 0.930 . S
H1135 C1093 0.930 . S
H1136 C1095 0.929 . S
H1137 C1096 0.930 . S
H1138 C1097 0.930 . S
H1139 C1098 0.930 . S
H1140 C1102 0.929 . S
H1141 C1104 0.930 . S
H1142 C1110 0.929 . S
H1143 C1111 0.930 . S
Li1144 N1161 1.990 1_655 S
Li1144 O1204 1.956 . S
Li1144 O1205 1.970 . S
Li1144 O1206 1.961 . S
Li1145 N1169 1.990 . S
Li1145 O1204 1.970 . S
Li1145 O1205 1.956 . S
Li1145 O1207 1.961 . S
Li1146 N1191 1.990 . S
Li1146 O1204 1.961 . S
Li1146 O1206 1.956 . S
Li1146 O1207 1.970 . S
Li1147 N1197 1.990 . S
Li1147 O1205 1.961 . S
Li1147 O1206 1.970 . S
Li1147 O1207 1.956 . S
C1148 C1150 1.348 . S
C1148 C1151 1.356 . S
C1148 O1204 1.325 1_455 S
N1149 C1152 1.314 . S
N1149 C1153 1.279 . S
C1150 C1148 1.348 . S
C1150 C1152 1.353 . S
C1150 H1208 0.929 . S
C1151 C1148 1.356 . S
C1151 C1153 1.358 . S
C1151 H1209 0.930 . S
C1152 N1149 1.314 . S
C1152 C1150 1.353 . S
C1152 H1210 0.930 . S
C1153 N1149 1.279 . S
C1153 C1151 1.358 . S
C1153 H1211 0.930 . S
C1154 C1157 1.348 1_655 S
C1154 C1158 1.356 . S
C1154 O1205 1.325 . S
C1155 N1156 1.279 1_655 S
C1155 C1158 1.358 . S
C1155 H1212 0.930 . S
N1156 C1155 1.279 1_455 S
N1156 C1159 1.314 . S
C1157 C1154 1.348 1_455 S
C1157 C1159 1.353 . S
C1157 H1213 0.929 . S
C1158 C1154 1.356 . S
C1158 C1155 1.358 . S
C1158 H1214 0.930 . S
C1159 N1156 1.314 . S
C1159 C1157 1.353 . S
C1159 H1215 0.930 . S
C1160 N1161 1.314 . S
C1160 C1165 1.353 . S
C1160 H1166 0.930 . S
N1161 Li1144 1.990 1_455 S
N1161 C1160 1.314 . S
N1161 C1163 1.279 . S
C1162 C1163 1.358 . S
C1162 C1164 1.356 . S
C1162 H1216 0.930 . S
C1163 N1161 1.279 . S
C1163 C1162 1.358 . S
C1163 H1167 0.930 . S
C1164 C1162 1.356 . S
C1164 C1165 1.348 . S
C1165 C1160 1.353 . S
C1165 C1164 1.348 . S
C1165 H1217 0.929 . S
H1166 C1160 0.930 . S
H1167 C1163 0.930 . S
C1168 N1169 1.314 . S
C1168 C1170 1.353 . S
C1168 H1174 0.930 . S
N1169 Li1145 1.990 . S
N1169 C1168 1.314 . S
N1169 C1172 1.279 . S
C1170 C1168 1.353 . S
C1170 C1173 1.348 . S
C1170 H1218 0.929 . S
C1171 C1172 1.358 . S
C1171 C1173 1.356 . S
C1171 H1219 0.930 . S
C1172 N1169 1.279 . S
C1172 C1171 1.358 . S
C1172 H1175 0.930 . S
C1173 C1170 1.348 . S
C1173 C1171 1.356 . S
H1174 C1168 0.930 . S
H1175 C1172 0.930 . S
C1176 C1178 1.348 . S
C1176 C1179 1.356 . S
C1176 O1206 1.325 . S
N1177 C1180 1.314 . S
N1177 C1181 1.279 . S
C1178 C1176 1.348 . S
C1178 C1180 1.353 . S
C1178 H1220 0.929 . S
C1179 C1176 1.356 . S
C1179 C1181 1.358 . S
C1179 H1221 0.930 . S
C1180 N1177 1.314 . S
C1180 C1178 1.353 . S
C1180 H1222 0.930 . S
C1181 N1177 1.279 . S
C1181 C1179 1.358 . S
C1181 H1223 0.930 . S
C1182 C1183 1.348 . S
C1182 C1184 1.356 . S
C1182 O1207 1.325 . S
C1183 C1182 1.348 . S
C1183 C1185 1.353 . S
C1183 H1224 0.929 . S
C1184 C1182 1.356 . S
C1184 C1186 1.358 . S
C1184 H1225 0.930 . S
C1185 C1183 1.353 . S
C1185 N1187 1.314 . S
C1185 H1226 0.930 . S
C1186 C1184 1.358 . S
C1186 N1187 1.279 . S
C1186 H1227 0.930 . S
N1187 C1185 1.314 . S
N1187 C1186 1.279 . S
C1188 C1190 1.353 . S
C1188 N1191 1.314 . S
C1188 H1194 0.930 . S
C1189 N1191 1.279 . S
C1189 C1192 1.358 . S
C1189 H1195 0.930 . S
C1190 C1188 1.353 . S
C1190 C1193 1.348 . S
C1190 H1228 0.929 . S
N1191 Li1146 1.990 . S
N1191 C1188 1.314 . S
N1191 C1189 1.279 . S
C1192 C1189 1.358 . S
C1192 C1193 1.356 . S
C1192 H1229 0.930 . S
C1193 C1190 1.348 . S
C1193 C1192 1.356 . S
H1194 C1188 0.930 . S
H1195 C1189 0.930 . S
C1196 N1197 1.314 . S
C1196 C1198 1.353 . S
C1196 H1202 0.930 . S
N1197 Li1147 1.990 . S
N1197 C1196 1.314 . S
N1197 C1200 1.279 . S
C1198 C1196 1.353 . S
C1198 C1201 1.348 . S
C1198 H1230 0.929 . S
C1199 C1200 1.358 . S
C1199 C1201 1.356 . S
C1199 H1231 0.930 . S
C1200 N1197 1.279 . S
C1200 C1199 1.358 . S
C1200 H1203 0.930 . S
C1201 C1198 1.348 . S
C1201 C1199 1.356 . S
H1202 C1196 0.930 . S
H1203 C1200 0.930 . S
O1204 Li1144 1.956 . S
O1204 Li1145 1.970 . S
O1204 Li1146 1.961 . S
O1204 C1148 1.325 1_655 S
O1205 Li1144 1.970 . S
O1205 Li1145 1.956 . S
O1205 Li1147 1.961 . S
O1205 C1154 1.325 . S
O1206 Li1144 1.961 . S
O1206 Li1146 1.956 . S
O1206 Li1147 1.970 . S
O1206 C1176 1.325 . S
O1207 Li1145 1.961 . S
O1207 Li1146 1.970 . S
O1207 Li1147 1.956 . S
O1207 C1182 1.325 . S
H1208 C1150 0.929 . S
H1209 C1151 0.930 . S
H1210 C1152 0.930 . S
H1211 C1153 0.930 . S
H1212 C1155 0.930 . S
H1213 C1157 0.929 . S
H1214 C1158 0.930 . S
H1215 C1159 0.930 . S
H1216 C1162 0.930 . S
H1217 C1165 0.929 . S
H1218 C1170 0.929 . S
H1219 C1171 0.930 . S
H1220 C1178 0.929 . S
H1221 C1179 0.930 . S
H1222 C1180 0.930 . S
H1223 C1181 0.930 . S
H1224 C1183 0.929 . S
H1225 C1184 0.930 . S
H1226 C1185 0.930 . S
H1227 C1186 0.930 . S
H1228 C1190 0.929 . S
H1229 C1192 0.930 . S
H1230 C1198 0.929 . S
H1231 C1199 0.930 . S
Li1232 N1249 1.990 . S
Li1232 O1292 1.956 . S
Li1232 O1293 1.970 . S
Li1232 O1294 1.961 . S
Li1233 N1257 1.990 . S
Li1233 O1292 1.970 . S
Li1233 O1293 1.956 . S
Li1233 O1295 1.961 . S
Li1234 N1279 1.990 . S
Li1234 O1292 1.961 . S
Li1234 O1294 1.956 . S
Li1234 O1295 1.970 . S
Li1235 N1285 1.990 . S
Li1235 O1293 1.961 . S
Li1235 O1294 1.970 . S
Li1235 O1295 1.956 . S
C1236 C1238 1.348 . S
C1236 C1239 1.356 . S
C1236 O1292 1.325 . S
N1237 C1240 1.314 . S
N1237 C1241 1.279 . S
C1238 C1236 1.348 . S
C1238 C1240 1.353 . S
C1238 H1296 0.929 . S
C1239 C1236 1.356 . S
C1239 C1241 1.358 . S
C1239 H1297 0.930 . S
C1240 N1237 1.314 . S
C1240 C1238 1.353 . S
C1240 H1298 0.930 . S
C1241 N1237 1.279 . S
C1241 C1239 1.358 . S
C1241 H1299 0.930 . S
C1242 C1245 1.348 . S
C1242 C1246 1.356 . S
C1242 O1293 1.325 . S
C1243 N1244 1.279 . S
C1243 C1246 1.358 . S
C1243 H1300 0.930 . S
N1244 C1243 1.279 . S
N1244 C1247 1.314 . S
C1245 C1242 1.348 . S
C1245 C1247 1.353 . S
C1245 H1301 0.929 . S
C1246 C1242 1.356 . S
C1246 C1243 1.358 . S
C1246 H1302 0.930 . S
C1247 N1244 1.314 . S
C1247 C1245 1.353 . S
C1247 H1303 0.930 . S
C1248 N1249 1.314 . S
C1248 C1253 1.353 . S
C1248 H1254 0.930 . S
N1249 Li1232 1.990 . S
N1249 C1248 1.314 . S
N1249 C1251 1.279 . S
C1250 C1251 1.358 . S
C1250 C1252 1.356 . S
C1250 H1304 0.930 . S
C1251 N1249 1.279 . S
C1251 C1250 1.358 . S
C1251 H1255 0.930 . S
C1252 C1250 1.356 . S
C1252 C1253 1.348 . S
C1253 C1248 1.353 . S
C1253 C1252 1.348 . S
C1253 H1305 0.929 . S
H1254 C1248 0.930 . S
H1255 C1251 0.930 . S
C1256 N1257 1.314 . S
C1256 C1258 1.353 . S
C1256 H1262 0.930 . S
N1257 Li1233 1.990 . S
N1257 C1256 1.314 . S
N1257 C1260 1.279 . S
C1258 C1256 1.353 . S
C1258 C1261 1.348 . S
C1258 H1306 0.929 . S
C1259 C1260 1.358 . S
C1259 C1261 1.356 . S
C1259 H1307 0.930 . S
C1260 N1257 1.279 . S
C1260 C1259 1.358 . S
C1260 H1263 0.930 . S
C1261 C1258 1.348 . S
C1261 C1259 1.356 . S
H1262 C1256 0.930 . S
H1263 C1260 0.930 . S
C1264 C1266 1.348 . S
C1264 C1267 1.356 . S
C1264 O1294 1.325 . S
N1265 C1268 1.314 . S
N1265 C1269 1.279 . S
C1266 C1264 1.348 . S
C1266 C1268 1.353 . S
C1266 H1308 0.929 . S
C1267 C1264 1.356 . S
C1267 C1269 1.358 . S
C1267 H1309 0.930 . S
C1268 N1265 1.314 . S
C1268 C1266 1.353 . S
C1268 H1310 0.930 . S
C1269 N1265 1.279 . S
C1269 C1267 1.358 . S
C1269 H1311 0.930 . S
C1270 C1271 1.348 . S
C1270 C1272 1.356 . S
C1270 O1295 1.325 . S
C1271 C1270 1.348 . S
C1271 C1273 1.353 . S
C1271 H1312 0.929 . S
C1272 C1270 1.356 . S
C1272 C1274 1.358 . S
C1272 H1313 0.930 . S
C1273 C1271 1.353 . S
C1273 N1275 1.314 . S
C1273 H1314 0.930 . S
C1274 C1272 1.358 . S
C1274 N1275 1.279 . S
C1274 H1315 0.930 . S
N1275 C1273 1.314 . S
N1275 C1274 1.279 . S
C1276 C1278 1.353 . S
C1276 N1279 1.314 . S
C1276 H1282 0.930 . S
C1277 N1279 1.279 . S
C1277 C1280 1.358 . S
C1277 H1283 0.930 . S
C1278 C1276 1.353 . S
C1278 C1281 1.348 . S
C1278 H1316 0.929 . S
N1279 Li1234 1.990 . S
N1279 C1276 1.314 . S
N1279 C1277 1.279 . S
C1280 C1277 1.358 . S
C1280 C1281 1.356 . S
C1280 H1317 0.930 . S
C1281 C1278 1.348 . S
C1281 C1280 1.356 . S
H1282 C1276 0.930 . S
H1283 C1277 0.930 . S
C1284 N1285 1.314 . S
C1284 C1286 1.353 . S
C1284 H1290 0.930 . S
N1285 Li1235 1.990 . S
N1285 C1284 1.314 . S
N1285 C1288 1.279 . S
C1286 C1284 1.353 . S
C1286 C1289 1.348 . S
C1286 H1318 0.929 . S
C1287 C1288 1.358 . S
C1287 C1289 1.356 . S
C1287 H1319 0.930 . S
C1288 N1285 1.279 . S
C1288 C1287 1.358 . S
C1288 H1291 0.930 . S
C1289 C1286 1.348 . S
C1289 C1287 1.356 . S
H1290 C1284 0.930 . S
H1291 C1288 0.930 . S
O1292 Li1232 1.956 . S
O1292 Li1233 1.970 . S
O1292 Li1234 1.961 . S
O1292 C1236 1.325 . S
O1293 Li1232 1.970 . S
O1293 Li1233 1.956 . S
O1293 Li1235 1.961 . S
O1293 C1242 1.325 . S
O1294 Li1232 1.961 . S
O1294 Li1234 1.956 . S
O1294 Li1235 1.970 . S
O1294 C1264 1.325 . S
O1295 Li1233 1.961 . S
O1295 Li1234 1.970 . S
O1295 Li1235 1.956 . S
O1295 C1270 1.325 . S
H1296 C1238 0.929 . S
H1297 C1239 0.930 . S
H1298 C1240 0.930 . S
H1299 C1241 0.930 . S
H1300 C1243 0.930 . S
H1301 C1245 0.929 . S
H1302 C1246 0.930 . S
H1303 C1247 0.930 . S
H1304 C1250 0.930 . S
H1305 C1253 0.929 . S
H1306 C1258 0.929 . S
H1307 C1259 0.930 . S
H1308 C1266 0.929 . S
H1309 C1267 0.930 . S
H1310 C1268 0.930 . S
H1311 C1269 0.930 . S
H1312 C1271 0.929 . S
H1313 C1272 0.930 . S
H1314 C1273 0.930 . S
H1315 C1274 0.930 . S
H1316 C1278 0.929 . S
H1317 C1280 0.930 . S
H1318 C1286 0.929 . S
H1319 C1287 0.930 . S
Li1320 N1337 1.990 . S
Li1320 O1380 1.956 . S
Li1320 O1381 1.970 . S
Li1320 O1382 1.961 . S
Li1321 N1345 1.990 . S
Li1321 O1380 1.970 . S
Li1321 O1381 1.956 . S
Li1321 O1383 1.961 . S
Li1322 N1367 1.990 . S
Li1322 O1380 1.961 . S
Li1322 O1382 1.956 . S
Li1322 O1383 1.970 . S
Li1323 N1373 1.990 . S
Li1323 O1381 1.961 . S
Li1323 O1382 1.970 . S
Li1323 O1383 1.956 . S
C1324 C1326 1.348 . S
C1324 C1327 1.356 . S
C1324 O1380 1.325 . S
N1325 C1328 1.314 . S
N1325 C1329 1.279 . S
C1326 C1324 1.348 . S
C1326 C1328 1.353 . S
C1326 H1384 0.929 . S
C1327 C1324 1.356 . S
C1327 C1329 1.358 . S
C1327 H1385 0.930 . S
C1328 N1325 1.314 . S
C1328 C1326 1.353 . S
C1328 H1386 0.930 . S
C1329 N1325 1.279 . S
C1329 C1327 1.358 . S
C1329 H1387 0.930 . S
C1330 C1333 1.348 . S
C1330 C1334 1.356 . S
C1330 O1381 1.325 . S
C1331 N1332 1.279 . S
C1331 C1334 1.358 . S
C1331 H1388 0.930 . S
N1332 C1331 1.279 . S
N1332 C1335 1.314 . S
C1333 C1330 1.348 . S
C1333 C1335 1.353 . S
C1333 H1389 0.929 . S
C1334 C1330 1.356 . S
C1334 C1331 1.358 . S
C1334 H1390 0.930 . S
C1335 N1332 1.314 . S
C1335 C1333 1.353 . S
C1335 H1391 0.930 . S
C1336 N1337 1.314 . S
C1336 C1341 1.353 . S
C1336 H1342 0.930 . S
N1337 Li1320 1.990 . S
N1337 C1336 1.314 . S
N1337 C1339 1.279 . S
C1338 C1339 1.358 . S
C1338 C1340 1.356 . S
C1338 H1392 0.930 . S
C1339 N1337 1.279 . S
C1339 C1338 1.358 . S
C1339 H1343 0.930 . S
C1340 C1338 1.356 . S
C1340 C1341 1.348 . S
C1341 C1336 1.353 . S
C1341 C1340 1.348 . S
C1341 H1393 0.929 . S
H1342 C1336 0.930 . S
H1343 C1339 0.930 . S
C1344 N1345 1.314 . S
C1344 C1346 1.353 . S
C1344 H1350 0.930 . S
N1345 Li1321 1.990 . S
N1345 C1344 1.314 . S
N1345 C1348 1.279 . S
C1346 C1344 1.353 . S
C1346 C1349 1.348 . S
C1346 H1394 0.929 . S
C1347 C1348 1.358 . S
C1347 C1349 1.356 . S
C1347 H1395 0.930 . S
C1348 N1345 1.279 . S
C1348 C1347 1.358 . S
C1348 H1351 0.930 . S
C1349 C1346 1.348 . S
C1349 C1347 1.356 . S
H1350 C1344 0.930 . S
H1351 C1348 0.930 . S
C1352 C1354 1.348 . S
C1352 C1355 1.356 . S
C1352 O1382 1.325 . S
N1353 C1356 1.314 . S
N1353 C1357 1.279 . S
C1354 C1352 1.348 . S
C1354 C1356 1.353 . S
C1354 H1396 0.929 . S
C1355 C1352 1.356 . S
C1355 C1357 1.358 . S
C1355 H1397 0.930 . S
C1356 N1353 1.314 . S
C1356 C1354 1.353 . S
C1356 H1398 0.930 . S
C1357 N1353 1.279 . S
C1357 C1355 1.358 . S
C1357 H1399 0.930 . S
C1358 C1359 1.348 . S
C1358 C1360 1.356 . S
C1358 O1383 1.325 . S
C1359 C1358 1.348 . S
C1359 C1361 1.353 . S
C1359 H1400 0.929 . S
C1360 C1358 1.356 . S
C1360 C1362 1.358 . S
C1360 H1401 0.930 . S
C1361 C1359 1.353 . S
C1361 N1363 1.314 . S
C1361 H1402 0.930 . S
C1362 C1360 1.358 . S
C1362 N1363 1.279 . S
C1362 H1403 0.930 . S
N1363 C1361 1.314 . S
N1363 C1362 1.279 . S
C1364 C1366 1.353 . S
C1364 N1367 1.314 . S
C1364 H1370 0.930 . S
C1365 N1367 1.279 . S
C1365 C1368 1.358 . S
C1365 H1371 0.930 . S
C1366 C1364 1.353 . S
C1366 C1369 1.348 . S
C1366 H1404 0.929 . S
N1367 Li1322 1.990 . S
N1367 C1364 1.314 . S
N1367 C1365 1.279 . S
C1368 C1365 1.358 . S
C1368 C1369 1.356 . S
C1368 H1405 0.930 . S
C1369 C1366 1.348 . S
C1369 C1368 1.356 . S
H1370 C1364 0.930 . S
H1371 C1365 0.930 . S
C1372 N1373 1.314 . S
C1372 C1374 1.353 . S
C1372 H1378 0.930 . S
N1373 Li1323 1.990 . S
N1373 C1372 1.314 . S
N1373 C1376 1.279 . S
C1374 C1372 1.353 . S
C1374 C1377 1.348 . S
C1374 H1406 0.929 . S
C1375 C1376 1.358 . S
C1375 C1377 1.356 . S
C1375 H1407 0.930 . S
C1376 N1373 1.279 . S
C1376 C1375 1.358 . S
C1376 H1379 0.930 . S
C1377 C1374 1.348 . S
C1377 C1375 1.356 . S
H1378 C1372 0.930 . S
H1379 C1376 0.930 . S
O1380 Li1320 1.956 . S
O1380 Li1321 1.970 . S
O1380 Li1322 1.961 . S
O1380 C1324 1.325 . S
O1381 Li1320 1.970 . S
O1381 Li1321 1.956 . S
O1381 Li1323 1.961 . S
O1381 C1330 1.325 . S
O1382 Li1320 1.961 . S
O1382 Li1322 1.956 . S
O1382 Li1323 1.970 . S
O1382 C1352 1.325 . S
O1383 Li1321 1.961 . S
O1383 Li1322 1.970 . S
O1383 Li1323 1.956 . S
O1383 C1358 1.325 . S
H1384 C1326 0.929 . S
H1385 C1327 0.930 . S
H1386 C1328 0.930 . S
H1387 C1329 0.930 . S
H1388 C1331 0.930 . S
H1389 C1333 0.929 . S
H1390 C1334 0.930 . S
H1391 C1335 0.930 . S
H1392 C1338 0.930 . S
H1393 C1341 0.929 . S
H1394 C1346 0.929 . S
H1395 C1347 0.930 . S
H1396 C1354 0.929 . S
H1397 C1355 0.930 . S
H1398 C1356 0.930 . S
H1399 C1357 0.930 . S
H1400 C1359 0.929 . S
H1401 C1360 0.930 . S
H1402 C1361 0.930 . S
H1403 C1362 0.930 . S
H1404 C1366 0.929 . S
H1405 C1368 0.930 . S
H1406 C1374 0.929 . S
H1407 C1375 0.930 . S
Li1408 N1425 1.990 . S
Li1408 O1468 1.956 . S
Li1408 O1469 1.970 . S
Li1408 O1470 1.961 . S
Li1409 N1433 1.990 . S
Li1409 O1468 1.970 . S
Li1409 O1469 1.956 . S
Li1409 O1471 1.961 . S
Li1410 N1455 1.990 . S
Li1410 O1468 1.961 . S
Li1410 O1470 1.956 . S
Li1410 O1471 1.970 . S
Li1411 N1461 1.990 1_545 S
Li1411 O1469 1.961 . S
Li1411 O1470 1.970 . S
Li1411 O1471 1.956 . S
C1412 C1414 1.348 . S
C1412 C1415 1.356 . S
C1412 O1468 1.325 . S
N1413 C1416 1.314 . S
N1413 C1417 1.279 . S
C1414 C1412 1.348 . S
C1414 C1416 1.353 . S
C1414 H1472 0.929 . S
C1415 C1412 1.356 . S
C1415 C1417 1.358 . S
C1415 H1473 0.930 . S
C1416 N1413 1.314 . S
C1416 C1414 1.353 . S
C1416 H1474 0.930 . S
C1417 N1413 1.279 . S
C1417 C1415 1.358 . S
C1417 H1475 0.930 . S
C1418 C1421 1.348 . S
C1418 C1422 1.356 . S
C1418 O1469 1.325 1_565 S
C1419 N1420 1.279 . S
C1419 C1422 1.358 . S
C1419 H1476 0.930 . S
N1420 C1419 1.279 . S
N1420 C1423 1.314 . S
C1421 C1418 1.348 . S
C1421 C1423 1.353 . S
C1421 H1477 0.929 1_565 S
C1422 C1418 1.356 . S
C1422 C1419 1.358 . S
C1422 H1478 0.930 . S
C1423 N1420 1.314 . S
C1423 C1421 1.353 . S
C1423 H1479 0.930 . S
C1424 N1425 1.314 . S
C1424 C1429 1.353 . S
C1424 H1430 0.930 1_545 S
N1425 Li1408 1.990 . S
N1425 C1424 1.314 . S
N1425 C1427 1.279 . S
C1426 C1427 1.358 . S
C1426 C1428 1.356 . S
C1426 H1480 0.930 . S
C1427 N1425 1.279 . S
C1427 C1426 1.358 . S
C1427 H1431 0.930 . S
C1428 C1426 1.356 . S
C1428 C1429 1.348 . S
C1429 C1424 1.353 . S
C1429 C1428 1.348 . S
C1429 H1481 0.929 1_545 S
H1430 C1424 0.930 1_565 S
H1431 C1427 0.930 . S
C1432 N1433 1.314 . S
C1432 C1434 1.353 . S
C1432 H1438 0.930 . S
N1433 Li1409 1.990 . S
N1433 C1432 1.314 . S
N1433 C1436 1.279 . S
C1434 C1432 1.353 . S
C1434 C1437 1.348 . S
C1434 H1482 0.929 . S
C1435 C1436 1.358 . S
C1435 C1437 1.356 . S
C1435 H1483 0.930 . S
C1436 N1433 1.279 . S
C1436 C1435 1.358 . S
C1436 H1439 0.930 . S
C1437 C1434 1.348 . S
C1437 C1435 1.356 . S
H1438 C1432 0.930 . S
H1439 C1436 0.930 . S
C1440 C1442 1.348 1_545 S
C1440 C1443 1.356 . S
C1440 O1470 1.325 . S
N1441 C1444 1.314 . S
N1441 C1445 1.279 1_565 S
C1442 C1440 1.348 1_565 S
C1442 C1444 1.353 . S
C1442 H1484 0.929 . S
C1443 C1440 1.356 . S
C1443 C1445 1.358 . S
C1443 H1485 0.930 . S
C1444 N1441 1.314 . S
C1444 C1442 1.353 . S
C1444 H1486 0.930 . S
C1445 N1441 1.279 1_545 S
C1445 C1443 1.358 . S
C1445 H1487 0.930 . S
C1446 C1447 1.348 . S
C1446 C1448 1.356 . S
C1446 O1471 1.325 . S
C1447 C1446 1.348 . S
C1447 C1449 1.353 . S
C1447 H1488 0.929 . S
C1448 C1446 1.356 . S
C1448 C1450 1.358 . S
C1448 H1489 0.930 . S
C1449 C1447 1.353 . S
C1449 N1451 1.314 . S
C1449 H1490 0.930 . S
C1450 C1448 1.358 . S
C1450 N1451 1.279 . S
C1450 H1491 0.930 . S
N1451 C1449 1.314 . S
N1451 C1450 1.279 . S
C1452 C1454 1.353 . S
C1452 N1455 1.314 . S
C1452 H1458 0.930 . S
C1453 N1455 1.279 . S
C1453 C1456 1.358 . S
C1453 H1459 0.930 . S
C1454 C1452 1.353 . S
C1454 C1457 1.348 . S
C1454 H1492 0.929 . S
N1455 Li1410 1.990 . S
N1455 C1452 1.314 . S
N1455 C1453 1.279 . S
C1456 C1453 1.358 . S
C1456 C1457 1.356 . S
C1456 H1493 0.930 . S
C1457 C1454 1.348 . S
C1457 C1456 1.356 . S
H1458 C1452 0.930 . S
H1459 C1453 0.930 . S
C1460 N1461 1.314 . S
C1460 C1462 1.353 . S
C1460 H1466 0.930 . S
N1461 Li1411 1.990 1_565 S
N1461 C1460 1.314 . S
N1461 C1464 1.279 . S
C1462 C1460 1.353 . S
C1462 C1465 1.348 . S
C1462 H1494 0.929 . S
C1463 C1464 1.358 . S
C1463 C1465 1.356 . S
C1463 H1495 0.930 . S
C1464 N1461 1.279 . S
C1464 C1463 1.358 . S
C1464 H1467 0.930 . S
C1465 C1462 1.348 . S
C1465 C1463 1.356 . S
H1466 C1460 0.930 . S
H1467 C1464 0.930 . S
O1468 Li1408 1.956 . S
O1468 Li1409 1.970 . S
O1468 Li1410 1.961 . S
O1468 C1412 1.325 . S
O1469 Li1408 1.970 . S
O1469 Li1409 1.956 . S
O1469 Li1411 1.961 . S
O1469 C1418 1.325 1_545 S
O1470 Li1408 1.961 . S
O1470 Li1410 1.956 . S
O1470 Li1411 1.970 . S
O1470 C1440 1.325 . S
O1471 Li1409 1.961 . S
O1471 Li1410 1.970 . S
O1471 Li1411 1.956 . S
O1471 C1446 1.325 . S
H1472 C1414 0.929 . S
H1473 C1415 0.930 . S
H1474 C1416 0.930 . S
H1475 C1417 0.930 . S
H1476 C1419 0.930 . S
H1477 C1421 0.929 1_545 S
H1478 C1422 0.930 . S
H1479 C1423 0.930 . S
H1480 C1426 0.930 . S
H1481 C1429 0.929 1_565 S
H1482 C1434 0.929 . S
H1483 C1435 0.930 . S
H1484 C1442 0.929 . S
H1485 C1443 0.930 . S
H1486 C1444 0.930 . S
H1487 C1445 0.930 . S
H1488 C1447 0.929 . S
H1489 C1448 0.930 . S
H1490 C1449 0.930 . S
H1491 C1450 0.930 . S
H1492 C1454 0.929 . S
H1493 C1456 0.930 . S
H1494 C1462 0.929 . S
H1495 C1463 0.930 . S
Li1496 N1513 1.990 . S
Li1496 O1556 1.956 . S
Li1496 O1557 1.970 . S
Li1496 O1558 1.961 . S
Li1497 N1521 1.990 . S
Li1497 O1556 1.970 . S
Li1497 O1557 1.956 . S
Li1497 O1559 1.961 . S
Li1498 N1543 1.990 1_655 S
Li1498 O1556 1.961 . S
Li1498 O1558 1.956 . S
Li1498 O1559 1.970 . S
Li1499 N1549 1.990 . S
Li1499 O1557 1.961 . S
Li1499 O1558 1.970 . S
Li1499 O1559 1.956 . S
C1500 C1502 1.348 . S
C1500 C1503 1.356 . S
C1500 O1556 1.325 1_455 S
N1501 C1504 1.314 . S
N1501 C1505 1.279 . S
C1502 C1500 1.348 . S
C1502 C1504 1.353 . S
C1502 H1560 0.929 1_455 S
C1503 C1500 1.356 . S
C1503 C1505 1.358 . S
C1503 H1561 0.930 . S
C1504 N1501 1.314 . S
C1504 C1502 1.353 . S
C1504 H1562 0.930 . S
C1505 N1501 1.279 . S
C1505 C1503 1.358 . S
C1505 H1563 0.930 . S
C1506 C1509 1.348 . S
C1506 C1510 1.356 . S
C1506 O1557 1.325 . S
C1507 N1508 1.279 . S
C1507 C1510 1.358 . S
C1507 H1564 0.930 . S
N1508 C1507 1.279 . S
N1508 C1511 1.314 . S
C1509 C1506 1.348 . S
C1509 C1511 1.353 . S
C1509 H1565 0.929 . S
C1510 C1506 1.356 . S
C1510 C1507 1.358 . S
C1510 H1566 0.930 . S
C1511 N1508 1.314 . S
C1511 C1509 1.353 . S
C1511 H1567 0.930 . S
C1512 N1513 1.314 . S
C1512 C1517 1.353 . S
C1512 H1518 0.930 . S
N1513 Li1496 1.990 . S
N1513 C1512 1.314 . S
N1513 C1515 1.279 . S
C1514 C1515 1.358 . S
C1514 C1516 1.356 . S
C1514 H1568 0.930 . S
C1515 N1513 1.279 . S
C1515 C1514 1.358 . S
C1515 H1519 0.930 . S
C1516 C1514 1.356 . S
C1516 C1517 1.348 . S
C1517 C1512 1.353 . S
C1517 C1516 1.348 . S
C1517 H1569 0.929 . S
H1518 C1512 0.930 . S
H1519 C1515 0.930 . S
C1520 N1521 1.314 . S
C1520 C1522 1.353 . S
C1520 H1526 0.930 1_655 S
N1521 Li1497 1.990 . S
N1521 C1520 1.314 . S
N1521 C1524 1.279 . S
C1522 C1520 1.353 . S
C1522 C1525 1.348 . S
C1522 H1570 0.929 1_655 S
C1523 C1524 1.358 . S
C1523 C1525 1.356 . S
C1523 H1571 0.930 . S
C1524 N1521 1.279 . S
C1524 C1523 1.358 . S
C1524 H1527 0.930 . S
C1525 C1522 1.348 . S
C1525 C1523 1.356 . S
H1526 C1520 0.930 1_455 S
H1527 C1524 0.930 . S
C1528 C1530 1.348 . S
C1528 C1531 1.356 . S
C1528 O1558 1.325 . S
N1529 C1532 1.314 . S
N1529 C1533 1.279 . S
C1530 C1528 1.348 . S
C1530 C1532 1.353 . S
C1530 H1572 0.929 . S
C1531 C1528 1.356 . S
C1531 C1533 1.358 . S
C1531 H1573 0.930 . S
C1532 N1529 1.314 . S
C1532 C1530 1.353 . S
C1532 H1574 0.930 . S
C1533 N1529 1.279 . S
C1533 C1531 1.358 . S
C1533 H1575 0.930 . S
C1534 C1535 1.348 1_655 S
C1534 C1536 1.356 . S
C1534 O1559 1.325 . S
C1535 C1534 1.348 1_455 S
C1535 C1537 1.353 . S
C1535 H1576 0.929 . S
C1536 C1534 1.356 . S
C1536 C1538 1.358 . S
C1536 H1577 0.930 . S
C1537 C1535 1.353 . S
C1537 N1539 1.314 . S
C1537 H1578 0.930 . S
C1538 C1536 1.358 . S
C1538 N1539 1.279 1_655 S
C1538 H1579 0.930 . S
N1539 C1537 1.314 . S
N1539 C1538 1.279 1_455 S
C1540 C1542 1.353 . S
C1540 N1543 1.314 . S
C1540 H1546 0.930 . S
C1541 N1543 1.279 . S
C1541 C1544 1.358 . S
C1541 H1547 0.930 . S
C1542 C1540 1.353 . S
C1542 C1545 1.348 . S
C1542 H1580 0.929 . S
N1543 Li1498 1.990 1_455 S
N1543 C1540 1.314 . S
N1543 C1541 1.279 . S
C1544 C1541 1.358 . S
C1544 C1545 1.356 . S
C1544 H1581 0.930 . S
C1545 C1542 1.348 . S
C1545 C1544 1.356 . S
H1546 C1540 0.930 . S
H1547 C1541 0.930 . S
C1548 N1549 1.314 . S
C1548 C1550 1.353 . S
C1548 H1554 0.930 . S
N1549 Li1499 1.990 . S
N1549 C1548 1.314 . S
N1549 C1552 1.279 . S
C1550 C1548 1.353 . S
C1550 C1553 1.348 . S
C1550 H1582 0.929 . S
C1551 C1552 1.358 . S
C1551 C1553 1.356 . S
C1551 H1583 0.930 . S
C1552 N1549 1.279 . S
C1552 C1551 1.358 . S
C1552 H1555 0.930 . S
C1553 C1550 1.348 . S
C1553 C1551 1.356 . S
H1554 C1548 0.930 . S
H1555 C1552 0.930 . S
O1556 Li1496 1.956 . S
O1556 Li1497 1.970 . S
O1556 Li1498 1.961 . S
O1556 C1500 1.325 1_655 S
O1557 Li1496 1.970 . S
O1557 Li1497 1.956 . S
O1557 Li1499 1.961 . S
O1557 C1506 1.325 . S
O1558 Li1496 1.961 . S
O1558 Li1498 1.956 . S
O1558 Li1499 1.970 . S
O1558 C1528 1.325 . S
O1559 Li1497 1.961 . S
O1559 Li1498 1.970 . S
O1559 Li1499 1.956 . S
O1559 C1534 1.325 . S
H1560 C1502 0.929 1_655 S
H1561 C1503 0.930 . S
H1562 C1504 0.930 . S
H1563 C1505 0.930 . S
H1564 C1507 0.930 . S
H1565 C1509 0.929 . S
H1566 C1510 0.930 . S
H1567 C1511 0.930 . S
H1568 C1514 0.930 . S
H1569 C1517 0.929 . S
H1570 C1522 0.929 1_455 S
H1571 C1523 0.930 . S
H1572 C1530 0.929 . S
H1573 C1531 0.930 . S
H1574 C1532 0.930 . S
H1575 C1533 0.930 . S
H1576 C1535 0.929 . S
H1577 C1536 0.930 . S
H1578 C1537 0.930 . S
H1579 C1538 0.930 . S
H1580 C1542 0.929 . S
H1581 C1544 0.930 . S
H1582 C1550 0.929 . S
H1583 C1551 0.930 . S
H1584 C1592 0.930 . S
H1585 C1595 0.930 . S
H1586 C1597 0.930 . S
H1587 C1598 0.970 . S
H1588 C1598 0.970 . S
H1589 C1600 0.930 . S
H1590 C1602 0.930 . S
H1591 C1604 0.930 . S
C1592 H1584 0.930 . S
C1592 C1593 1.382 . S
C1592 C1594 1.426 . S
C1593 C1592 1.382 . S
C1593 C1597 1.389 . S
C1594 C1592 1.426 . S
C1594 C1595 1.375 . S
C1594 C1598 1.532 . S
C1595 H1585 0.930 . S
C1595 C1594 1.375 . S
C1595 C1596 1.416 . S
C1596 C1595 1.416 . S
C1596 C1597 1.371 . S
C1597 H1586 0.930 . S
C1597 C1593 1.389 . S
C1597 C1596 1.371 . S
C1598 H1587 0.970 . S
C1598 H1588 0.970 . S
C1598 C1594 1.532 . S
C1598 C1599 1.499 . S
C1599 C1598 1.499 . S
C1599 C1600 1.370 . S
C1599 C1604 1.415 . S
C1600 H1589 0.930 . S
C1600 C1599 1.370 . S
C1600 C1601 1.407 . S
C1601 C1600 1.407 . S
C1601 C1602 1.365 . S
C1602 H1590 0.930 . S
C1602 C1601 1.365 . S
C1602 C1603 1.393 . S
C1603 C1602 1.393 . S
C1603 C1604 1.387 . S
C1604 H1591 0.930 . S
C1604 C1599 1.415 . S
C1604 C1603 1.387 . S
H1605 C1613 0.930 . S
H1606 C1616 0.930 . S
H1607 C1618 0.930 . S
H1608 C1619 0.970 . S
H1609 C1619 0.970 . S
H1610 C1621 0.930 . S
H1611 C1623 0.930 . S
H1612 C1625 0.930 . S
C1613 H1605 0.930 . S
C1613 C1614 1.382 . S
C1613 C1615 1.426 . S
C1614 C1613 1.382 . S
C1614 C1618 1.389 . S
C1615 C1613 1.426 . S
C1615 C1616 1.375 . S
C1615 C1619 1.532 . S
C1616 H1606 0.930 . S
C1616 C1615 1.375 . S
C1616 C1617 1.416 . S
C1617 C1616 1.416 . S
C1617 C1618 1.371 . S
C1618 H1607 0.930 . S
C1618 C1614 1.389 . S
C1618 C1617 1.371 . S
C1619 H1608 0.970 . S
C1619 H1609 0.970 . S
C1619 C1615 1.532 . S
C1619 C1620 1.499 . S
C1620 C1619 1.499 . S
C1620 C1621 1.370 . S
C1620 C1625 1.415 . S
C1621 H1610 0.930 . S
C1621 C1620 1.370 . S
C1621 C1622 1.407 . S
C1622 C1621 1.407 . S
C1622 C1623 1.365 . S
C1623 H1611 0.930 . S
C1623 C1622 1.365 . S
C1623 C1624 1.393 . S
C1624 C1623 1.393 . S
C1624 C1625 1.387 . S
C1625 H1612 0.930 . S
C1625 C1620 1.415 . S
C1625 C1624 1.387 . S
H1626 C1634 0.930 . S
H1627 C1637 0.930 . S
H1628 C1639 0.930 . S
H1629 C1640 0.970 . S
H1630 C1640 0.970 . S
H1631 C1642 0.930 . S
H1632 C1644 0.930 . S
H1633 C1646 0.930 . S
C1634 H1626 0.930 . S
C1634 C1635 1.382 . S
C1634 C1636 1.426 . S
C1635 C1634 1.382 . S
C1635 C1639 1.389 . S
C1636 C1634 1.426 . S
C1636 C1637 1.375 . S
C1636 C1640 1.532 . S
C1637 H1627 0.930 . S
C1637 C1636 1.375 . S
C1637 C1638 1.416 . S
C1638 C1637 1.416 . S
C1638 C1639 1.371 . S
C1639 H1628 0.930 . S
C1639 C1635 1.389 . S
C1639 C1638 1.371 . S
C1640 H1629 0.970 . S
C1640 H1630 0.970 . S
C1640 C1636 1.532 . S
C1640 C1641 1.499 . S
C1641 C1640 1.499 . S
C1641 C1642 1.370 . S
C1641 C1646 1.415 . S
C1642 H1631 0.930 . S
C1642 C1641 1.370 . S
C1642 C1643 1.407 . S
C1643 C1642 1.407 . S
C1643 C1644 1.365 . S
C1644 H1632 0.930 . S
C1644 C1643 1.365 . S
C1644 C1645 1.393 . S
C1645 C1644 1.393 . S
C1645 C1646 1.387 . S
C1646 H1633 0.930 . S
C1646 C1641 1.415 . S
C1646 C1645 1.387 . S
H1647 C1655 0.930 . S
H1648 C1658 0.930 . S
H1649 C1660 0.930 . S
H1650 C1661 0.970 . S
H1651 C1661 0.970 . S
H1652 C1663 0.930 . S
H1653 C1665 0.930 . S
H1654 C1667 0.930 . S
C1655 H1647 0.930 . S
C1655 C1656 1.382 . S
C1655 C1657 1.426 . S
C1656 C1655 1.382 . S
C1656 C1660 1.389 . S
C1657 C1655 1.426 . S
C1657 C1658 1.375 . S
C1657 C1661 1.532 . S
C1658 H1648 0.930 . S
C1658 C1657 1.375 . S
C1658 C1659 1.416 . S
C1659 C1658 1.416 . S
C1659 C1660 1.371 . S
C1660 H1649 0.930 . S
C1660 C1656 1.389 . S
C1660 C1659 1.371 . S
C1661 H1650 0.970 . S
C1661 H1651 0.970 . S
C1661 C1657 1.532 . S
C1661 C1662 1.499 . S
C1662 C1661 1.499 . S
C1662 C1663 1.370 . S
C1662 C1667 1.415 . S
C1663 H1652 0.930 . S
C1663 C1662 1.370 . S
C1663 C1664 1.407 . S
C1664 C1663 1.407 . S
C1664 C1665 1.365 . S
C1665 H1653 0.930 . S
C1665 C1664 1.365 . S
C1665 C1666 1.393 . S
C1666 C1665 1.393 . S
C1666 C1667 1.387 . S
C1667 H1654 0.930 . S
C1667 C1662 1.415 . S
C1667 C1666 1.387 . S
H1668 C1676 0.930 . S
H1669 C1679 0.930 . S
H1670 C1681 0.930 . S
H1671 C1682 0.970 . S
H1672 C1682 0.970 . S
H1673 C1684 0.930 . S
H1674 C1686 0.930 . S
H1675 C1688 0.930 . S
C1676 H1668 0.930 . S
C1676 C1677 1.382 . S
C1676 C1678 1.426 . S
C1677 C1676 1.382 . S
C1677 C1681 1.389 . S
C1678 C1676 1.426 . S
C1678 C1679 1.375 . S
C1678 C1682 1.532 . S
C1679 H1669 0.930 . S
C1679 C1678 1.375 . S
C1679 C1680 1.416 . S
C1680 C1679 1.416 . S
C1680 C1681 1.371 . S
C1681 H1670 0.930 . S
C1681 C1677 1.389 . S
C1681 C1680 1.371 . S
C1682 H1671 0.970 . S
C1682 H1672 0.970 . S
C1682 C1678 1.532 . S
C1682 C1683 1.499 . S
C1683 C1682 1.499 . S
C1683 C1684 1.370 . S
C1683 C1688 1.415 . S
C1684 H1673 0.930 . S
C1684 C1683 1.370 . S
C1684 C1685 1.407 . S
C1685 C1684 1.407 . S
C1685 C1686 1.365 . S
C1686 H1674 0.930 . S
C1686 C1685 1.365 . S
C1686 C1687 1.393 . S
C1687 C1686 1.393 . S
C1687 C1688 1.387 . S
C1688 H1675 0.930 . S
C1688 C1683 1.415 . S
C1688 C1687 1.387 . S
H1689 C1697 0.930 . S
H1690 C1700 0.930 . S
H1691 C1702 0.930 . S
H1692 C1703 0.970 . S
H1693 C1703 0.970 . S
H1694 C1705 0.930 . S
H1695 C1707 0.930 . S
H1696 C1709 0.930 . S
C1697 H1689 0.930 . S
C1697 C1698 1.382 . S
C1697 C1699 1.426 . S
C1698 C1697 1.382 . S
C1698 C1702 1.389 . S
C1699 C1697 1.426 . S
C1699 C1700 1.375 . S
C1699 C1703 1.532 . S
C1700 H1690 0.930 . S
C1700 C1699 1.375 . S
C1700 C1701 1.416 . S
C1701 C1700 1.416 . S
C1701 C1702 1.371 . S
C1702 H1691 0.930 . S
C1702 C1698 1.389 . S
C1702 C1701 1.371 . S
C1703 H1692 0.970 . S
C1703 H1693 0.970 . S
C1703 C1699 1.532 . S
C1703 C1704 1.499 . S
C1704 C1703 1.499 . S
C1704 C1705 1.370 . S
C1704 C1709 1.415 . S
C1705 H1694 0.930 . S
C1705 C1704 1.370 . S
C1705 C1706 1.407 . S
C1706 C1705 1.407 . S
C1706 C1707 1.365 . S
C1707 H1695 0.930 . S
C1707 C1706 1.365 . S
C1707 C1708 1.393 . S
C1708 C1707 1.393 . S
C1708 C1709 1.387 . S
C1709 H1696 0.930 . S
C1709 C1704 1.415 . S
C1709 C1708 1.387 . S
H1710 C1718 0.930 . S
H1711 C1721 0.930 . S
H1712 C1723 0.930 . S
H1713 C1724 0.970 . S
H1714 C1724 0.970 . S
H1715 C1726 0.930 . S
H1716 C1728 0.930 . S
H1717 C1730 0.930 . S
C1718 H1710 0.930 . S
C1718 C1719 1.382 . S
C1718 C1720 1.426 . S
C1719 C1718 1.382 . S
C1719 C1723 1.389 . S
C1720 C1718 1.426 . S
C1720 C1721 1.375 . S
C1720 C1724 1.532 . S
C1721 H1711 0.930 . S
C1721 C1720 1.375 . S
C1721 C1722 1.416 . S
C1722 C1721 1.416 . S
C1722 C1723 1.371 . S
C1723 H1712 0.930 . S
C1723 C1719 1.389 . S
C1723 C1722 1.371 . S
C1724 H1713 0.970 . S
C1724 H1714 0.970 . S
C1724 C1720 1.532 . S
C1724 C1725 1.499 . S
C1725 C1724 1.499 . S
C1725 C1726 1.370 . S
C1725 C1730 1.415 . S
C1726 H1715 0.930 . S
C1726 C1725 1.370 . S
C1726 C1727 1.407 . S
C1727 C1726 1.407 . S
C1727 C1728 1.365 . S
C1728 H1716 0.930 . S
C1728 C1727 1.365 . S
C1728 C1729 1.393 . S
C1729 C1728 1.393 . S
C1729 C1730 1.387 . S
C1730 H1717 0.930 . S
C1730 C1725 1.415 . S
C1730 C1729 1.387 . S
H1731 C1739 0.930 . S
H1732 C1742 0.930 . S
H1733 C1744 0.930 . S
H1734 C1745 0.970 . S
H1735 C1745 0.970 . S
H1736 C1747 0.930 . S
H1737 C1749 0.930 . S
H1738 C1751 0.930 . S
C1739 H1731 0.930 . S
C1739 C1740 1.382 . S
C1739 C1741 1.426 . S
C1740 C1739 1.382 . S
C1740 C1744 1.389 . S
C1741 C1739 1.426 . S
C1741 C1742 1.375 . S
C1741 C1745 1.532 . S
C1742 H1732 0.930 . S
C1742 C1741 1.375 . S
C1742 C1743 1.416 . S
C1743 C1742 1.416 . S
C1743 C1744 1.371 . S
C1744 H1733 0.930 . S
C1744 C1740 1.389 . S
C1744 C1743 1.371 . S
C1745 H1734 0.970 . S
C1745 H1735 0.970 . S
C1745 C1741 1.532 . S
C1745 C1746 1.499 . S
C1746 C1745 1.499 . S
C1746 C1747 1.370 . S
C1746 C1751 1.415 . S
C1747 H1736 0.930 . S
C1747 C1746 1.370 . S
C1747 C1748 1.407 . S
C1748 C1747 1.407 . S
C1748 C1749 1.365 . S
C1749 H1737 0.930 . S
C1749 C1748 1.365 . S
C1749 C1750 1.393 . S
C1750 C1749 1.393 . S
C1750 C1751 1.387 . S
C1751 H1738 0.930 . S
C1751 C1746 1.415 . S
C1751 C1750 1.387 . S
H1752 C1760 0.930 . S
H1753 C1763 0.930 . S
H1754 C1765 0.930 . S
H1755 C1766 0.970 . S
H1756 C1766 0.970 . S
H1757 C1768 0.930 . S
H1758 C1770 0.930 . S
H1759 C1772 0.930 . S
C1760 H1752 0.930 . S
C1760 C1761 1.382 . S
C1760 C1762 1.426 . S
C1761 C1760 1.382 . S
C1761 C1765 1.389 . S
C1762 C1760 1.426 . S
C1762 C1763 1.375 . S
C1762 C1766 1.532 . S
C1763 H1753 0.930 . S
C1763 C1762 1.375 . S
C1763 C1764 1.416 . S
C1764 C1763 1.416 . S
C1764 C1765 1.371 . S
C1765 H1754 0.930 . S
C1765 C1761 1.389 . S
C1765 C1764 1.371 . S
C1766 H1755 0.970 . S
C1766 H1756 0.970 . S
C1766 C1762 1.532 . S
C1766 C1767 1.499 . S
C1767 C1766 1.499 . S
C1767 C1768 1.370 . S
C1767 C1772 1.415 . S
C1768 H1757 0.930 . S
C1768 C1767 1.370 . S
C1768 C1769 1.407 . S
C1769 C1768 1.407 . S
C1769 C1770 1.365 . S
C1770 H1758 0.930 . S
C1770 C1769 1.365 . S
C1770 C1771 1.393 . S
C1771 C1770 1.393 . S
C1771 C1772 1.387 . S
C1772 H1759 0.930 . S
C1772 C1767 1.415 . S
C1772 C1771 1.387 . S
H1773 C1781 0.930 . S
H1774 C1784 0.930 . S
H1775 C1786 0.930 . S
H1776 C1787 0.970 . S
H1777 C1787 0.970 . S
H1778 C1789 0.930 . S
H1779 C1791 0.930 . S
H1780 C1793 0.930 . S
C1781 H1773 0.930 . S
C1781 C1782 1.382 . S
C1781 C1783 1.426 . S
C1782 C1781 1.382 . S
C1782 C1786 1.389 1_455 S
C1783 C1781 1.426 . S
C1783 C1784 1.375 . S
C1783 C1787 1.532 . S
C1784 H1774 0.930 . S
C1784 C1783 1.375 . S
C1784 C1785 1.416 . S
C1785 C1784 1.416 . S
C1785 C1786 1.371 1_455 S
C1786 H1775 0.930 . S
C1786 C1782 1.389 1_655 S
C1786 C1785 1.371 1_655 S
C1787 H1776 0.970 . S
C1787 H1777 0.970 . S
C1787 C1783 1.532 . S
C1787 C1788 1.499 . S
C1788 C1787 1.499 . S
C1788 C1789 1.370 . S
C1788 C1793 1.415 . S
C1789 H1778 0.930 . S
C1789 C1788 1.370 . S
C1789 C1790 1.409 . S
C1790 C1789 1.409 . S
C1790 C1791 1.368 1_455 S
C1791 H1779 0.930 . S
C1791 C1790 1.368 1_655 S
C1791 C1792 1.393 1_655 S
C1792 C1791 1.393 1_455 S
C1792 C1793 1.387 . S
C1793 H1780 0.930 . S
C1793 C1788 1.415 . S
C1793 C1792 1.387 . S
H1794 C1802 0.930 . S
H1795 C1805 0.930 . S
H1796 C1807 0.930 . S
H1797 C1808 0.970 . S
H1798 C1808 0.970 . S
H1799 C1810 0.930 . S
H1800 C1812 0.930 . S
H1801 C1814 0.930 . S
C1802 H1794 0.930 . S
C1802 C1803 1.382 . S
C1802 C1804 1.426 . S
C1803 C1802 1.382 . S
C1803 C1807 1.389 . S
C1804 C1802 1.426 . S
C1804 C1805 1.375 . S
C1804 C1808 1.532 . S
C1805 H1795 0.930 . S
C1805 C1804 1.375 . S
C1805 C1806 1.416 . S
C1806 C1805 1.416 . S
C1806 C1807 1.371 . S
C1807 H1796 0.930 . S
C1807 C1803 1.389 . S
C1807 C1806 1.371 . S
C1808 H1797 0.970 . S
C1808 H1798 0.970 . S
C1808 C1804 1.532 . S
C1808 C1809 1.499 . S
C1809 C1808 1.499 . S
C1809 C1810 1.370 . S
C1809 C1814 1.415 . S
C1810 H1799 0.930 . S
C1810 C1809 1.370 . S
C1810 C1811 1.407 . S
C1811 C1810 1.407 . S
C1811 C1812 1.365 . S
C1812 H1800 0.930 . S
C1812 C1811 1.365 . S
C1812 C1813 1.393 . S
C1813 C1812 1.393 . S
C1813 C1814 1.387 . S
C1814 H1801 0.930 . S
C1814 C1809 1.415 . S
C1814 C1813 1.387 . S
H1815 C1823 0.930 . S
H1816 C1826 0.930 . S
H1817 C1828 0.930 . S
H1818 C1829 0.970 . S
H1819 C1829 0.970 . S
H1820 C1831 0.930 . S
H1821 C1833 0.930 . S
H1822 C1835 0.930 . S
C1823 H1815 0.930 . S
C1823 C1824 1.382 . S
C1823 C1825 1.426 . S
C1824 C1823 1.382 . S
C1824 C1828 1.389 1_565 S
C1825 C1823 1.426 . S
C1825 C1826 1.375 . S
C1825 C1829 1.532 . S
C1826 H1816 0.930 . S
C1826 C1825 1.375 . S
C1826 C1827 1.416 . S
C1827 C1826 1.416 . S
C1827 C1828 1.371 1_565 S
C1828 H1817 0.930 . S
C1828 C1824 1.389 1_545 S
C1828 C1827 1.371 1_545 S
C1829 H1818 0.970 . S
C1829 H1819 0.970 . S
C1829 C1825 1.532 . S
C1829 C1830 1.499 . S
C1830 C1829 1.499 . S
C1830 C1831 1.370 . S
C1830 C1835 1.415 . S
C1831 H1820 0.930 . S
C1831 C1830 1.370 . S
C1831 C1832 1.427 . S
C1832 C1831 1.427 . S
C1832 C1833 1.357 1_565 S
C1833 H1821 0.930 . S
C1833 C1832 1.357 1_545 S
C1833 C1834 1.393 1_545 S
C1834 C1833 1.393 1_565 S
C1834 C1835 1.387 . S
C1835 H1822 0.930 . S
C1835 C1830 1.415 . S
C1835 C1834 1.387 . S
H1836 C1844 0.930 . S
H1837 C1847 0.930 . S
H1838 C1849 0.930 . S
H1839 C1850 0.970 . S
H1840 C1850 0.970 . S
H1841 C1852 0.930 . S
H1842 C1854 0.930 . S
H1843 C1856 0.930 . S
C1844 H1836 0.930 . S
C1844 C1845 1.382 . S
C1844 C1846 1.426 . S
C1845 C1844 1.382 . S
C1845 C1849 1.389 1_565 S
C1846 C1844 1.426 . S
C1846 C1847 1.375 . S
C1846 C1850 1.532 . S
C1847 H1837 0.930 . S
C1847 C1846 1.375 . S
C1847 C1848 1.474 . S
C1848 C1847 1.474 . S
C1848 C1849 1.350 1_565 S
C1849 H1838 0.930 . S
C1849 C1845 1.389 1_545 S
C1849 C1848 1.350 1_545 S
C1850 H1839 0.970 . S
C1850 H1840 0.970 . S
C1850 C1846 1.532 . S
C1850 C1851 1.499 . S
C1851 C1850 1.499 . S
C1851 C1852 1.370 . S
C1851 C1856 1.415 . S
C1852 H1841 0.930 . S
C1852 C1851 1.370 . S
C1852 C1853 1.407 . S
C1853 C1852 1.407 . S
C1853 C1854 1.365 1_565 S
C1854 H1842 0.930 . S
C1854 C1853 1.365 1_545 S
C1854 C1855 1.393 1_545 S
C1855 C1854 1.393 1_565 S
C1855 C1856 1.387 . S
C1856 H1843 0.930 . S
C1856 C1851 1.415 . S
C1856 C1855 1.387 . S
H1857 C1865 0.930 . S
H1858 C1868 0.930 . S
H1859 C1870 0.930 . S
H1860 C1871 0.970 . S
H1861 C1871 0.970 . S
H1862 C1873 0.930 . S
H1863 C1875 0.930 . S
H1864 C1877 0.930 . S
C1865 H1857 0.930 . S
C1865 C1866 1.382 . S
C1865 C1867 1.426 . S
C1866 C1865 1.382 . S
C1866 C1870 1.389 1_455 S
C1867 C1865 1.426 . S
C1867 C1868 1.375 . S
C1867 C1871 1.532 . S
C1868 H1858 0.930 . S
C1868 C1867 1.375 . S
C1868 C1869 1.420 . S
C1869 C1868 1.420 . S
C1869 C1870 1.380 1_455 S
C1870 H1859 0.930 . S
C1870 C1866 1.389 1_655 S
C1870 C1869 1.380 1_655 S
C1871 H1860 0.970 . S
C1871 H1861 0.970 . S
C1871 C1867 1.532 . S
C1871 C1872 1.499 . S
C1872 C1871 1.499 . S
C1872 C1873 1.370 . S
C1872 C1877 1.415 . S
C1873 H1862 0.930 . S
C1873 C1872 1.370 . S
C1873 C1874 1.407 . S
C1874 C1873 1.407 . S
C1874 C1875 1.365 1_455 S
C1875 H1863 0.930 . S
C1875 C1874 1.365 1_655 S
C1875 C1876 1.393 1_655 S
C1876 C1875 1.393 1_455 S
C1876 C1877 1.387 . S
C1877 H1864 0.930 . S
C1877 C1872 1.415 . S
C1877 C1876 1.387 . S
H1878 C1886 0.930 . S
H1879 C1889 0.930 . S
H1880 C1891 0.930 . S
H1881 C1892 0.970 . S
H1882 C1892 0.970 . S
H1883 C1894 0.930 . S
H1884 C1896 0.930 . S
H1885 C1898 0.930 . S
C1886 H1878 0.930 . S
C1886 C1887 1.382 . S
C1886 C1888 1.426 . S
C1887 C1886 1.382 . S
C1887 C1891 1.389 . S
C1888 C1886 1.426 . S
C1888 C1889 1.375 . S
C1888 C1892 1.532 . S
C1889 H1879 0.930 . S
C1889 C1888 1.375 . S
C1889 C1890 1.416 . S
C1890 C1889 1.416 . S
C1890 C1891 1.371 . S
C1891 H1880 0.930 . S
C1891 C1887 1.389 . S
C1891 C1890 1.371 . S
C1892 H1881 0.970 . S
C1892 H1882 0.970 . S
C1892 C1888 1.532 . S
C1892 C1893 1.499 . S
C1893 C1892 1.499 . S
C1893 C1894 1.370 . S
C1893 C1898 1.415 . S
C1894 H1883 0.930 . S
C1894 C1893 1.370 . S
C1894 C1895 1.407 . S
C1895 C1894 1.407 . S
C1895 C1896 1.365 . S
C1896 H1884 0.930 . S
C1896 C1895 1.365 . S
C1896 C1897 1.393 . S
C1897 C1896 1.393 . S
C1897 C1898 1.387 . S
C1898 H1885 0.930 . S
C1898 C1893 1.415 . S
C1898 C1897 1.387 . S
H1899 C1907 0.930 . S
H1900 C1910 0.930 . S
H1901 C1912 0.930 . S
H1902 C1913 0.970 . S
H1903 C1913 0.970 . S
H1904 C1915 0.930 . S
H1905 C1917 0.930 . S
H1906 C1919 0.930 . S
C1907 H1899 0.930 . S
C1907 C1908 1.382 . S
C1907 C1909 1.426 . S
C1908 C1907 1.382 . S
C1908 C1912 1.389 . S
C1909 C1907 1.426 . S
C1909 C1910 1.375 . S
C1909 C1913 1.532 . S
C1910 H1900 0.930 . S
C1910 C1909 1.375 . S
C1910 C1911 1.416 . S
C1911 C1910 1.416 . S
C1911 C1912 1.371 . S
C1912 H1901 0.930 . S
C1912 C1908 1.389 . S
C1912 C1911 1.371 . S
C1913 H1902 0.970 . S
C1913 H1903 0.970 . S
C1913 C1909 1.532 . S
C1913 C1914 1.499 . S
C1914 C1913 1.499 . S
C1914 C1915 1.370 . S
C1914 C1919 1.415 . S
C1915 H1904 0.930 . S
C1915 C1914 1.370 . S
C1915 C1916 1.407 . S
C1916 C1915 1.407 . S
C1916 C1917 1.365 . S
C1917 H1905 0.930 . S
C1917 C1916 1.365 . S
C1917 C1918 1.393 . S
C1918 C1917 1.393 . S
C1918 C1919 1.387 . S
C1919 H1906 0.930 . S
C1919 C1914 1.415 . S
C1919 C1918 1.387 . S
H1920 C1928 0.930 . S
H1921 C1931 0.930 . S
H1922 C1933 0.930 . S
H1923 C1934 0.970 . S
H1924 C1934 0.970 . S
H1925 C1936 0.930 . S
H1926 C1938 0.930 . S
H1927 C1940 0.930 . S
C1928 H1920 0.930 . S
C1928 C1929 1.382 . S
C1928 C1930 1.426 . S
C1929 C1928 1.382 . S
C1929 C1933 1.389 . S
C1930 C1928 1.426 . S
C1930 C1931 1.375 . S
C1930 C1934 1.532 . S
C1931 H1921 0.930 . S
C1931 C1930 1.375 . S
C1931 C1932 1.416 . S
C1932 C1931 1.416 . S
C1932 C1933 1.371 . S
C1933 H1922 0.930 . S
C1933 C1929 1.389 . S
C1933 C1932 1.371 . S
C1934 H1923 0.970 . S
C1934 H1924 0.970 . S
C1934 C1930 1.532 . S
C1934 C1935 1.499 . S
C1935 C1934 1.499 . S
C1935 C1936 1.370 . S
C1935 C1940 1.415 . S
C1936 H1925 0.930 . S
C1936 C1935 1.370 . S
C1936 C1937 1.407 . S
C1937 C1936 1.407 . S
C1937 C1938 1.365 . S
C1938 H1926 0.930 . S
C1938 C1937 1.365 . S
C1938 C1939 1.393 . S
C1939 C1938 1.393 . S
C1939 C1940 1.387 . S
C1940 H1927 0.930 . S
C1940 C1935 1.415 . S
C1940 C1939 1.387 . S
H1941 C1949 0.930 . S
H1942 C1952 0.930 . S
H1943 C1954 0.930 . S
H1944 C1955 0.970 . S
H1945 C1955 0.970 . S
H1946 C1957 0.930 . S
H1947 C1959 0.930 . S
H1948 C1961 0.930 . S
C1949 H1941 0.930 . S
C1949 C1950 1.382 . S
C1949 C1951 1.426 . S
C1950 C1949 1.382 . S
C1950 C1954 1.389 . S
C1951 C1949 1.426 . S
C1951 C1952 1.375 . S
C1951 C1955 1.532 . S
C1952 H1942 0.930 . S
C1952 C1951 1.375 . S
C1952 C1953 1.416 . S
C1953 C1952 1.416 . S
C1953 C1954 1.371 . S
C1954 H1943 0.930 . S
C1954 C1950 1.389 . S
C1954 C1953 1.371 . S
C1955 H1944 0.970 . S
C1955 H1945 0.970 . S
C1955 C1951 1.532 . S
C1955 C1956 1.499 . S
C1956 C1955 1.499 . S
C1956 C1957 1.370 . S
C1956 C1961 1.415 . S
C1957 H1946 0.930 . S
C1957 C1956 1.370 . S
C1957 C1958 1.407 . S
C1958 C1957 1.407 . S
C1958 C1959 1.365 . S
C1959 H1947 0.930 . S
C1959 C1958 1.365 . S
C1959 C1960 1.393 . S
C1960 C1959 1.393 . S
C1960 C1961 1.387 . S
C1961 H1948 0.930 . S
C1961 C1956 1.415 . S
C1961 C1960 1.387 . S
H1962 C1974 0.916 1_455 S
H1963 C1976 0.930 . S
H1964 C1977 0.930 . S
H1965 C1981 0.959 . S
H1966 C1981 0.959 . S
H1967 C1981 0.961 . S
H1968 C1982 0.960 . S
H1969 C1982 0.961 . S
H1970 C1982 0.959 . S
H1971 C1985 0.929 . S
H1972 C1986 0.931 . S
H1973 C1988 0.934 . S
C1974 H1962 0.916 1_655 S
C1974 C1975 1.399 . S
C1974 C1979 1.399 . S
C1975 C1974 1.399 . S
C1975 C1976 1.376 . S
C1976 H1963 0.930 . S
C1976 C1975 1.376 . S
C1976 C1977 1.388 . S
C1977 H1964 0.930 . S
C1977 C1976 1.388 . S
C1977 C1978 1.390 . S
C1978 C1977 1.390 . S
C1978 C1979 1.394 . S
C1978 C1984 1.465 . S
C1979 C1974 1.399 . S
C1979 C1978 1.394 . S
C1979 C1980 1.524 1_655 S
C1980 C1979 1.524 1_455 S
C1980 C1981 1.568 . S
C1980 C1982 1.514 1_455 S
C1980 C1983 1.495 1_455 S
C1981 H1965 0.959 . S
C1981 H1966 0.959 . S
C1981 H1967 0.961 . S
C1981 C1980 1.568 . S
C1982 H1968 0.960 . S
C1982 H1969 0.961 . S
C1982 H1970 0.959 . S
C1982 C1980 1.514 1_655 S
C1983 C1980 1.495 1_655 S
C1983 C1984 1.396 . S
C1983 C1988 1.394 1_655 S
C1984 C1978 1.465 . S
C1984 C1983 1.396 . S
C1984 C1985 1.399 . S
C1985 H1971 0.929 . S
C1985 C1984 1.399 . S
C1985 C1986 1.385 . S
C1986 H1972 0.931 . S
C1986 C1985 1.385 . S
C1986 C1987 1.389 . S
C1987 C1986 1.389 . S
C1987 C1988 1.379 1_655 S
C1988 H1973 0.934 . S
C1988 C1983 1.394 1_455 S
C1988 C1987 1.379 1_455 S
H1989 C2001 0.930 . S
H1990 C2003 0.930 . S
H1991 C2004 0.930 . S
H1992 C2008 0.959 . S
H1993 C2008 0.959 . S
H1994 C2008 0.961 . S
H1995 C2009 0.960 . S
H1996 C2009 0.961 . S
H1997 C2009 0.959 . S
H1998 C2012 0.929 . S
H1999 C2013 0.931 . S
H2000 C2015 0.930 . S
C2001 H1989 0.930 . S
C2001 C2002 1.399 . S
C2001 C2006 1.399 . S
C2002 C2001 1.399 . S
C2002 C2003 1.376 . S
C2003 H1990 0.930 . S
C2003 C2002 1.376 . S
C2003 C2004 1.388 . S
C2004 H1991 0.930 . S
C2004 C2003 1.388 . S
C2004 C2005 1.390 . S
C2005 C2004 1.390 . S
C2005 C2006 1.394 . S
C2005 C2011 1.465 . S
C2006 C2001 1.399 . S
C2006 C2005 1.394 . S
C2006 C2007 1.516 . S
C2007 C2006 1.516 . S
C2007 C2008 1.502 . S
C2007 C2009 1.561 . S
C2007 C2010 1.526 . S
C2008 H1992 0.959 . S
C2008 H1993 0.959 . S
C2008 H1994 0.961 . S
C2008 C2007 1.502 . S
C2009 H1995 0.960 . S
C2009 H1996 0.961 . S
C2009 H1997 0.959 . S
C2009 C2007 1.561 . S
C2010 C2007 1.526 . S
C2010 C2011 1.396 . S
C2010 C2015 1.390 . S
C2011 C2005 1.465 . S
C2011 C2010 1.396 . S
C2011 C2012 1.399 . S
C2012 H1998 0.929 . S
C2012 C2011 1.399 . S
C2012 C2013 1.385 . S
C2013 H1999 0.931 . S
C2013 C2012 1.385 . S
C2013 C2014 1.389 . S
C2014 C2013 1.389 . S
C2014 C2015 1.387 . S
C2015 H2000 0.930 . S
C2015 C2010 1.390 . S
C2015 C2014 1.387 . S
H2016 C2028 0.930 . S
H2017 C2030 0.930 . S
H2018 C2031 0.930 . S
H2019 C2035 0.959 . S
H2020 C2035 0.959 . S
H2021 C2035 0.961 . S
H2022 C2036 0.960 . S
H2023 C2036 0.961 . S
H2024 C2036 0.959 . S
H2025 C2039 0.929 . S
H2026 C2040 0.931 . S
H2027 C2042 0.930 . S
C2028 H2016 0.930 . S
C2028 C2029 1.399 . S
C2028 C2033 1.399 . S
C2029 C2028 1.399 . S
C2029 C2030 1.376 1_545 S
C2030 H2017 0.930 . S
C2030 C2029 1.376 1_565 S
C2030 C2031 1.388 . S
C2031 H2018 0.930 . S
C2031 C2030 1.388 . S
C2031 C2032 1.390 1_565 S
C2032 C2031 1.390 1_545 S
C2032 C2033 1.394 . S
C2032 C2038 1.465 . S
C2033 C2028 1.399 . S
C2033 C2032 1.394 . S
C2033 C2034 1.516 . S
C2034 C2033 1.516 . S
C2034 C2035 1.502 . S
C2034 C2036 1.561 . S
C2034 C2037 1.526 . S
C2035 H2019 0.959 . S
C2035 H2020 0.959 . S
C2035 H2021 0.961 . S
C2035 C2034 1.502 . S
C2036 H2022 0.960 . S
C2036 H2023 0.961 . S
C2036 H2024 0.959 . S
C2036 C2034 1.561 . S
C2037 C2034 1.526 . S
C2037 C2038 1.396 . S
C2037 C2042 1.390 . S
C2038 C2032 1.465 . S
C2038 C2037 1.396 . S
C2038 C2039 1.399 1_545 S
C2039 H2025 0.929 . S
C2039 C2038 1.399 1_565 S
C2039 C2040 1.385 . S
C2040 H2026 0.931 . S
C2040 C2039 1.385 . S
C2040 C2041 1.389 1_565 S
C2041 C2040 1.389 1_545 S
C2041 C2042 1.387 . S
C2042 H2027 0.930 . S
C2042 C2037 1.390 . S
C2042 C2041 1.387 . S
H2043 C2055 0.930 1_545 S
H2044 C2057 0.930 . S
H2045 C2058 0.930 . S
H2046 C2062 0.959 1_565 S
H2047 C2062 0.959 . S
H2048 C2062 0.961 . S
H2049 C2063 0.960 . S
H2050 C2063 0.961 . S
H2051 C2063 0.959 . S
H2052 C2066 0.929 . S
H2053 C2067 0.931 . S
H2054 C2069 0.930 . S
C2055 H2043 0.930 1_565 S
C2055 C2056 1.399 . S
C2055 C2060 1.399 . S
C2056 C2055 1.399 . S
C2056 C2057 1.376 . S
C2057 H2044 0.930 . S
C2057 C2056 1.376 . S
C2057 C2058 1.388 . S
C2058 H2045 0.930 . S
C2058 C2057 1.388 . S
C2058 C2059 1.390 . S
C2059 C2058 1.390 . S
C2059 C2060 1.394 . S
C2059 C2065 1.465 . S
C2060 C2055 1.399 . S
C2060 C2059 1.394 . S
C2060 C2061 1.516 1_565 S
C2061 C2060 1.516 1_545 S
C2061 C2062 1.502 . S
C2061 C2063 1.561 . S
C2061 C2064 1.526 1_545 S
C2062 H2046 0.959 1_545 S
C2062 H2047 0.959 . S
C2062 H2048 0.961 . S
C2062 C2061 1.502 . S
C2063 H2049 0.960 . S
C2063 H2050 0.961 . S
C2063 H2051 0.959 . S
C2063 C2061 1.561 . S
C2064 C2061 1.526 1_565 S
C2064 C2065 1.396 . S
C2064 C2069 1.390 1_565 S
C2065 C2059 1.465 . S
C2065 C2064 1.396 . S
C2065 C2066 1.399 . S
C2066 H2052 0.929 . S
C2066 C2065 1.399 . S
C2066 C2067 1.385 . S
C2067 H2053 0.931 . S
C2067 C2066 1.385 . S
C2067 C2068 1.389 . S
C2068 C2067 1.389 . S
C2068 C2069 1.387 1_565 S
C2069 H2054 0.930 . S
C2069 C2064 1.390 1_545 S
C2069 C2068 1.387 1_545 S
H2070 C2082 0.930 . S
H2071 C2084 0.930 . S
H2072 C2085 0.930 . S
H2073 C2089 0.959 . S
H2074 C2089 0.959 . S
H2075 C2089 0.961 . S
H2076 C2090 0.960 . S
H2077 C2090 0.961 . S
H2078 C2090 0.959 . S
H2079 C2093 0.929 . S
H2080 C2094 0.931 . S
H2081 C2096 0.926 1_655 S
C2082 H2070 0.930 . S
C2082 C2083 1.399 . S
C2082 C2087 1.399 . S
C2083 C2082 1.399 . S
C2083 C2084 1.376 . S
C2084 H2071 0.930 . S
C2084 C2083 1.376 . S
C2084 C2085 1.388 . S
C2085 H2072 0.930 . S
C2085 C2084 1.388 . S
C2085 C2086 1.390 . S
C2086 C2085 1.390 . S
C2086 C2087 1.394 . S
C2086 C2092 1.465 . S
C2087 C2082 1.399 . S
C2087 C2086 1.394 . S
C2087 C2088 1.516 . S
C2088 C2087 1.516 . S
C2088 C2089 1.502 1_455 S
C2088 C2090 1.561 . S
C2088 C2091 1.526 . S
C2089 H2073 0.959 . S
C2089 H2074 0.959 . S
C2089 H2075 0.961 . S
C2089 C2088 1.502 1_655 S
C2090 H2076 0.960 . S
C2090 H2077 0.961 . S
C2090 H2078 0.959 . S
C2090 C2088 1.561 . S
C2091 C2088 1.526 . S
C2091 C2092 1.396 . S
C2091 C2096 1.390 . S
C2092 C2086 1.465 . S
C2092 C2091 1.396 . S
C2092 C2093 1.399 . S
C2093 H2079 0.929 . S
C2093 C2092 1.399 . S
C2093 C2094 1.385 . S
C2094 H2080 0.931 . S
C2094 C2093 1.385 . S
C2094 C2095 1.389 . S
C2095 C2094 1.389 . S
C2095 C2096 1.387 . S
C2096 H2081 0.926 1_455 S
C2096 C2091 1.390 . S
C2096 C2095 1.387 . S
H2097 C2109 0.930 . S
H2098 C2111 0.930 . S
H2099 C2112 0.930 . S
H2100 C2116 0.959 . S
H2101 C2116 0.959 . S
H2102 C2116 0.961 . S
H2103 C2117 0.960 . S
H2104 C2117 0.961 . S
H2105 C2117 0.959 . S
H2106 C2120 0.929 . S
H2107 C2121 0.931 . S
H2108 C2123 0.930 . S
C2109 H2097 0.930 . S
C2109 C2110 1.399 . S
C2109 C2114 1.399 . S
C2110 C2109 1.399 . S
C2110 C2111 1.376 . S
C2111 H2098 0.930 . S
C2111 C2110 1.376 . S
C2111 C2112 1.388 . S
C2112 H2099 0.930 . S
C2112 C2111 1.388 . S
C2112 C2113 1.390 . S
C2113 C2112 1.390 . S
C2113 C2114 1.394 . S
C2113 C2119 1.465 . S
C2114 C2109 1.399 . S
C2114 C2113 1.394 . S
C2114 C2115 1.516 . S
C2115 C2114 1.516 . S
C2115 C2116 1.502 . S
C2115 C2117 1.561 . S
C2115 C2118 1.526 . S
C2116 H2100 0.959 . S
C2116 H2101 0.959 . S
C2116 H2102 0.961 . S
C2116 C2115 1.502 . S
C2117 H2103 0.960 . S
C2117 H2104 0.961 . S
C2117 H2105 0.959 . S
C2117 C2115 1.561 . S
C2118 C2115 1.526 . S
C2118 C2119 1.396 . S
C2118 C2123 1.390 . S
C2119 C2113 1.465 . S
C2119 C2118 1.396 . S
C2119 C2120 1.399 . S
C2120 H2106 0.929 . S
C2120 C2119 1.399 . S
C2120 C2121 1.385 . S
C2121 H2107 0.931 . S
C2121 C2120 1.385 . S
C2121 C2122 1.389 . S
C2122 C2121 1.389 . S
C2122 C2123 1.387 . S
C2123 H2108 0.930 . S
C2123 C2118 1.390 . S
C2123 C2122 1.387 . S
H2124 C2136 0.930 . S
H2125 C2138 0.930 . S
H2126 C2139 0.930 . S
H2127 C2143 0.899 1_655 S
H2128 C2143 0.984 . S
H2129 C2143 0.935 . S
H2130 C2144 0.960 . S
H2131 C2144 0.961 . S
H2132 C2144 0.959 . S
H2133 C2147 0.929 . S
H2134 C2148 0.942 1_655 S
H2135 C2150 0.930 . S
C2136 H2124 0.930 . S
C2136 C2137 1.399 . S
C2136 C2141 1.399 . S
C2137 C2136 1.399 . S
C2137 C2138 1.376 . S
C2138 H2125 0.930 . S
C2138 C2137 1.376 . S
C2138 C2139 1.388 . S
C2139 H2126 0.930 . S
C2139 C2138 1.388 . S
C2139 C2140 1.390 . S
C2140 C2139 1.390 . S
C2140 C2141 1.394 . S
C2140 C2146 1.465 . S
C2141 C2136 1.399 . S
C2141 C2140 1.394 . S
C2141 C2142 1.516 . S
C2142 C2141 1.516 . S
C2142 C2143 1.571 . S
C2142 C2144 1.561 . S
C2142 C2145 1.526 . S
C2143 H2127 0.899 1_455 S
C2143 H2128 0.984 . S
C2143 H2129 0.935 . S
C2143 C2142 1.571 . S
C2144 H2130 0.960 . S
C2144 H2131 0.961 . S
C2144 H2132 0.959 . S
C2144 C2142 1.561 . S
C2145 C2142 1.526 . S
C2145 C2146 1.396 . S
C2145 C2150 1.390 . S
C2146 C2140 1.465 . S
C2146 C2145 1.396 . S
C2146 C2147 1.399 . S
C2147 H2133 0.929 . S
C2147 C2146 1.399 . S
C2147 C2148 1.385 . S
C2148 H2134 0.942 1_455 S
C2148 C2147 1.385 . S
C2148 C2149 1.389 . S
C2149 C2148 1.389 . S
C2149 C2150 1.387 . S
C2150 H2135 0.930 . S
C2150 C2145 1.390 . S
C2150 C2149 1.387 . S
H2151 C2163 0.930 . S
H2152 C2165 0.930 . S
H2153 C2166 0.930 . S
H2154 C2170 0.959 . S
H2155 C2170 0.959 . S
H2156 C2170 0.961 . S
H2157 C2171 0.960 . S
H2158 C2171 0.961 . S
H2159 C2171 0.959 . S
H2160 C2174 0.929 . S
H2161 C2175 0.931 . S
H2162 C2177 0.930 . S
C2163 H2151 0.930 . S
C2163 C2164 1.399 . S
C2163 C2168 1.399 . S
C2164 C2163 1.399 . S
C2164 C2165 1.376 . S
C2165 H2152 0.930 . S
C2165 C2164 1.376 . S
C2165 C2166 1.388 . S
C2166 H2153 0.930 . S
C2166 C2165 1.388 . S
C2166 C2167 1.390 . S
C2167 C2166 1.390 . S
C2167 C2168 1.394 . S
C2167 C2173 1.465 . S
C2168 C2163 1.399 . S
C2168 C2167 1.394 . S
C2168 C2169 1.516 . S
C2169 C2168 1.516 . S
C2169 C2170 1.502 . S
C2169 C2171 1.561 . S
C2169 C2172 1.526 . S
C2170 H2154 0.959 . S
C2170 H2155 0.959 . S
C2170 H2156 0.961 . S
C2170 C2169 1.502 . S
C2171 H2157 0.960 . S
C2171 H2158 0.961 . S
C2171 H2159 0.959 . S
C2171 C2169 1.561 . S
C2172 C2169 1.526 . S
C2172 C2173 1.396 . S
C2172 C2177 1.390 . S
C2173 C2167 1.465 . S
C2173 C2172 1.396 . S
C2173 C2174 1.399 . S
C2174 H2160 0.929 . S
C2174 C2173 1.399 . S
C2174 C2175 1.385 . S
C2175 H2161 0.931 . S
C2175 C2174 1.385 . S
C2175 C2176 1.389 . S
C2176 C2175 1.389 . S
C2176 C2177 1.387 . S
C2177 H2162 0.930 . S
C2177 C2172 1.390 . S
C2177 C2176 1.387 . S
H2178 C2190 0.930 1_545 S
H2179 C2192 0.930 . S
H2180 C2193 0.930 . S
H2181 C2197 0.959 1_565 S
H2182 C2197 0.959 . S
H2183 C2197 0.961 . S
H2184 C2198 0.960 . S
H2185 C2198 0.961 . S
H2186 C2198 0.959 . S
H2187 C2201 0.929 . S
H2188 C2202 0.931 . S
H2189 C2204 0.930 . S
C2190 H2178 0.930 1_565 S
C2190 C2191 1.399 . S
C2190 C2195 1.399 . S
C2191 C2190 1.399 . S
C2191 C2192 1.376 . S
C2192 H2179 0.930 . S
C2192 C2191 1.376 . S
C2192 C2193 1.388 . S
C2193 H2180 0.930 . S
C2193 C2192 1.388 . S
C2193 C2194 1.390 . S
C2194 C2193 1.390 . S
C2194 C2195 1.394 . S
C2194 C2200 1.465 . S
C2195 C2190 1.399 . S
C2195 C2194 1.394 . S
C2195 C2196 1.516 1_565 S
C2196 C2195 1.516 1_545 S
C2196 C2197 1.502 . S
C2196 C2198 1.561 . S
C2196 C2199 1.527 . S
C2197 H2181 0.959 1_545 S
C2197 H2182 0.959 . S
C2197 H2183 0.961 . S
C2197 C2196 1.502 . S
C2198 H2184 0.960 . S
C2198 H2185 0.961 . S
C2198 H2186 0.959 . S
C2198 C2196 1.561 . S
C2199 C2196 1.527 . S
C2199 C2200 1.380 1_545 S
C2199 C2204 1.401 . S
C2200 C2194 1.465 . S
C2200 C2199 1.380 1_565 S
C2200 C2201 1.399 . S
C2201 H2187 0.929 . S
C2201 C2200 1.399 . S
C2201 C2202 1.385 . S
C2202 H2188 0.931 . S
C2202 C2201 1.385 . S
C2202 C2203 1.389 . S
C2203 C2202 1.389 . S
C2203 C2204 1.387 1_565 S
C2204 H2189 0.930 . S
C2204 C2199 1.401 . S
C2204 C2203 1.387 1_545 S
H2205 C2217 0.930 . S
H2206 C2219 0.930 . S
H2207 C2220 0.930 . S
H2208 C2224 0.959 . S
H2209 C2224 0.959 . S
H2210 C2224 0.961 . S
H2211 C2225 0.960 . S
H2212 C2225 0.961 . S
H2213 C2225 0.959 . S
H2214 C2228 0.929 . S
H2215 C2229 0.931 . S
H2216 C2231 0.930 . S
C2217 H2205 0.930 . S
C2217 C2218 1.399 . S
C2217 C2222 1.399 . S
C2218 C2217 1.399 . S
C2218 C2219 1.376 1_545 S
C2219 H2206 0.930 . S
C2219 C2218 1.376 1_565 S
C2219 C2220 1.388 . S
C2220 H2207 0.930 . S
C2220 C2219 1.388 . S
C2220 C2221 1.390 1_565 S
C2221 C2220 1.390 1_545 S
C2221 C2222 1.394 . S
C2221 C2227 1.465 1_545 S
C2222 C2217 1.399 . S
C2222 C2221 1.394 . S
C2222 C2223 1.516 . S
C2223 C2222 1.516 . S
C2223 C2224 1.502 . S
C2223 C2225 1.561 . S
C2223 C2226 1.526 . S
C2224 H2208 0.959 . S
C2224 H2209 0.959 . S
C2224 H2210 0.961 . S
C2224 C2223 1.502 . S
C2225 H2211 0.960 . S
C2225 H2212 0.961 . S
C2225 H2213 0.959 . S
C2225 C2223 1.561 . S
C2226 C2223 1.526 . S
C2226 C2227 1.396 1_545 S
C2226 C2231 1.390 . S
C2227 C2221 1.465 1_565 S
C2227 C2226 1.396 1_565 S
C2227 C2228 1.399 . S
C2228 H2214 0.929 . S
C2228 C2227 1.399 . S
C2228 C2229 1.385 . S
C2229 H2215 0.931 . S
C2229 C2228 1.385 . S
C2229 C2230 1.329 1_565 S
C2230 C2229 1.329 1_545 S
C2230 C2231 1.420 . S
C2231 H2216 0.930 . S
C2231 C2226 1.390 . S
C2231 C2230 1.420 . S
H2232 C2244 0.930 . S
H2233 C2246 0.930 . S
H2234 C2247 0.930 . S
H2235 C2251 0.959 . S
H2236 C2251 0.959 . S
H2237 C2251 0.961 . S
H2238 C2252 0.960 . S
H2239 C2252 0.961 . S
H2240 C2252 0.959 . S
H2241 C2255 0.929 . S
H2242 C2256 0.931 . S
H2243 C2258 0.950 . S
C2244 H2232 0.930 . S
C2244 C2245 1.399 . S
C2244 C2249 1.399 . S
C2245 C2244 1.399 . S
C2245 C2246 1.376 . S
C2246 H2233 0.930 . S
C2246 C2245 1.376 . S
C2246 C2247 1.388 . S
C2247 H2234 0.930 . S
C2247 C2246 1.388 . S
C2247 C2248 1.390 . S
C2248 C2247 1.390 . S
C2248 C2249 1.394 . S
C2248 C2254 1.465 . S
C2249 C2244 1.399 . S
C2249 C2248 1.394 . S
C2249 C2250 1.541 . S
C2250 C2249 1.541 . S
C2250 C2251 1.464 1_655 S
C2250 C2252 1.599 . S
C2250 C2253 1.507 . S
C2251 H2235 0.959 . S
C2251 H2236 0.959 . S
C2251 H2237 0.961 . S
C2251 C2250 1.464 1_455 S
C2252 H2238 0.960 . S
C2252 H2239 0.961 . S
C2252 H2240 0.959 . S
C2252 C2250 1.599 . S
C2253 C2250 1.507 . S
C2253 C2254 1.396 . S
C2253 C2258 1.355 1_655 S
C2254 C2248 1.465 . S
C2254 C2253 1.396 . S
C2254 C2255 1.399 . S
C2255 H2241 0.929 . S
C2255 C2254 1.399 . S
C2255 C2256 1.385 . S
C2256 H2242 0.931 . S
C2256 C2255 1.385 . S
C2256 C2257 1.389 . S
C2257 C2256 1.389 . S
C2257 C2258 1.405 1_655 S
C2258 H2243 0.950 . S
C2258 C2253 1.355 1_455 S
C2258 C2257 1.405 1_455 S
H2259 C2271 0.930 . S
H2260 C2273 0.930 . S
H2261 C2274 0.930 . S
H2262 C2278 0.959 . S
H2263 C2278 0.959 . S
H2264 C2278 0.961 . S
H2265 C2279 0.960 . S
H2266 C2279 0.961 . S
H2267 C2279 0.959 . S
H2268 C2282 0.929 . S
H2269 C2283 0.931 . S
H2270 C2285 0.930 . S
C2271 H2259 0.930 . S
C2271 C2272 1.399 . S
C2271 C2276 1.399 . S
C2272 C2271 1.399 . S
C2272 C2273 1.376 . S
C2273 H2260 0.930 . S
C2273 C2272 1.376 . S
C2273 C2274 1.388 . S
C2274 H2261 0.930 . S
C2274 C2273 1.388 . S
C2274 C2275 1.390 . S
C2275 C2274 1.390 . S
C2275 C2276 1.394 . S
C2275 C2281 1.465 . S
C2276 C2271 1.399 . S
C2276 C2275 1.394 . S
C2276 C2277 1.516 . S
C2277 C2276 1.516 . S
C2277 C2278 1.502 . S
C2277 C2279 1.561 . S
C2277 C2280 1.526 . S
C2278 H2262 0.959 . S
C2278 H2263 0.959 . S
C2278 H2264 0.961 . S
C2278 C2277 1.502 . S
C2279 H2265 0.960 . S
C2279 H2266 0.961 . S
C2279 H2267 0.959 . S
C2279 C2277 1.561 . S
C2280 C2277 1.526 . S
C2280 C2281 1.396 . S
C2280 C2285 1.390 . S
C2281 C2275 1.465 . S
C2281 C2280 1.396 . S
C2281 C2282 1.399 . S
C2282 H2268 0.929 . S
C2282 C2281 1.399 . S
C2282 C2283 1.385 . S
C2283 H2269 0.931 . S
C2283 C2282 1.385 . S
C2283 C2284 1.389 . S
C2284 C2283 1.389 . S
C2284 C2285 1.387 . S
C2285 H2270 0.930 . S
C2285 C2280 1.390 . S
C2285 C2284 1.387 . S
H2286 C2298 0.930 . S
H2287 C2300 0.930 . S
H2288 C2301 0.930 . S
H2289 C2305 0.959 . S
H2290 C2305 0.959 . S
H2291 C2305 0.961 . S
H2292 C2306 0.960 . S
H2293 C2306 0.961 . S
H2294 C2306 0.959 . S
H2295 C2309 0.929 . S
H2296 C2310 0.931 . S
H2297 C2312 0.930 . S
C2298 H2286 0.930 . S
C2298 C2299 1.399 . S
C2298 C2303 1.399 . S
C2299 C2298 1.399 . S
C2299 C2300 1.376 . S
C2300 H2287 0.930 . S
C2300 C2299 1.376 . S
C2300 C2301 1.388 . S
C2301 H2288 0.930 . S
C2301 C2300 1.388 . S
C2301 C2302 1.390 . S
C2302 C2301 1.390 . S
C2302 C2303 1.394 . S
C2302 C2308 1.465 . S
C2303 C2298 1.399 . S
C2303 C2302 1.394 . S
C2303 C2304 1.516 . S
C2304 C2303 1.516 . S
C2304 C2305 1.502 . S
C2304 C2306 1.561 . S
C2304 C2307 1.526 . S
C2305 H2289 0.959 . S
C2305 H2290 0.959 . S
C2305 H2291 0.961 . S
C2305 C2304 1.502 . S
C2306 H2292 0.960 . S
C2306 H2293 0.961 . S
C2306 H2294 0.959 . S
C2306 C2304 1.561 . S
C2307 C2304 1.526 . S
C2307 C2308 1.396 . S
C2307 C2312 1.390 . S
C2308 C2302 1.465 . S
C2308 C2307 1.396 . S
C2308 C2309 1.399 . S
C2309 H2295 0.929 . S
C2309 C2308 1.399 . S
C2309 C2310 1.385 . S
C2310 H2296 0.931 . S
C2310 C2309 1.385 . S
C2310 C2311 1.389 . S
C2311 C2310 1.389 . S
C2311 C2312 1.387 . S
C2312 H2297 0.930 . S
C2312 C2307 1.390 . S
C2312 C2311 1.387 . S
H2313 C2325 0.930 . S
H2314 C2327 0.930 . S
H2315 C2328 0.930 . S
H2316 C2332 0.959 . S
H2317 C2332 0.959 . S
H2318 C2332 0.961 . S
H2319 C2333 0.960 . S
H2320 C2333 0.961 . S
H2321 C2333 0.959 . S
H2322 C2336 0.929 . S
H2323 C2337 0.931 . S
H2324 C2339 0.930 . S
C2325 H2313 0.930 . S
C2325 C2326 1.399 . S
C2325 C2330 1.399 . S
C2326 C2325 1.399 . S
C2326 C2327 1.376 . S
C2327 H2314 0.930 . S
C2327 C2326 1.376 . S
C2327 C2328 1.388 . S
C2328 H2315 0.930 . S
C2328 C2327 1.388 . S
C2328 C2329 1.390 . S
C2329 C2328 1.390 . S
C2329 C2330 1.394 . S
C2329 C2335 1.465 . S
C2330 C2325 1.399 . S
C2330 C2329 1.394 . S
C2330 C2331 1.516 . S
C2331 C2330 1.516 . S
C2331 C2332 1.502 . S
C2331 C2333 1.561 . S
C2331 C2334 1.526 . S
C2332 H2316 0.959 . S
C2332 H2317 0.959 . S
C2332 H2318 0.961 . S
C2332 C2331 1.502 . S
C2333 H2319 0.960 . S
C2333 H2320 0.961 . S
C2333 H2321 0.959 . S
C2333 C2331 1.561 . S
C2334 C2331 1.526 . S
C2334 C2335 1.396 . S
C2334 C2339 1.390 . S
C2335 C2329 1.465 . S
C2335 C2334 1.396 . S
C2335 C2336 1.399 . S
C2336 H2322 0.929 . S
C2336 C2335 1.399 . S
C2336 C2337 1.385 . S
C2337 H2323 0.931 . S
C2337 C2336 1.385 . S
C2337 C2338 1.389 . S
C2338 C2337 1.389 . S
C2338 C2339 1.387 . S
C2339 H2324 0.930 . S
C2339 C2334 1.390 . S
C2339 C2338 1.387 . S
H2340 C2352 0.930 . S
H2341 C2354 0.930 . S
H2342 C2355 0.930 . S
H2343 C2359 0.959 . S
H2344 C2359 0.959 . S
H2345 C2359 0.961 . S
H2346 C2360 0.960 . S
H2347 C2360 0.961 . S
H2348 C2360 0.959 . S
H2349 C2363 0.929 . S
H2350 C2364 0.931 . S
H2351 C2366 0.930 . S
C2352 H2340 0.930 . S
C2352 C2353 1.399 . S
C2352 C2357 1.399 . S
C2353 C2352 1.399 . S
C2353 C2354 1.376 . S
C2354 H2341 0.930 . S
C2354 C2353 1.376 . S
C2354 C2355 1.388 . S
C2355 H2342 0.930 . S
C2355 C2354 1.388 . S
C2355 C2356 1.390 . S
C2356 C2355 1.390 . S
C2356 C2357 1.394 . S
C2356 C2362 1.465 . S
C2357 C2352 1.399 . S
C2357 C2356 1.394 . S
C2357 C2358 1.516 . S
C2358 C2357 1.516 . S
C2358 C2359 1.502 . S
C2358 C2360 1.561 . S
C2358 C2361 1.526 . S
C2359 H2343 0.959 . S
C2359 H2344 0.959 . S
C2359 H2345 0.961 . S
C2359 C2358 1.502 . S
C2360 H2346 0.960 . S
C2360 H2347 0.961 . S
C2360 H2348 0.959 . S
C2360 C2358 1.561 . S
C2361 C2358 1.526 . S
C2361 C2362 1.396 . S
C2361 C2366 1.390 . S
C2362 C2356 1.465 . S
C2362 C2361 1.396 . S
C2362 C2363 1.399 . S
C2363 H2349 0.929 . S
C2363 C2362 1.399 . S
C2363 C2364 1.385 . S
C2364 H2350 0.931 . S
C2364 C2363 1.385 . S
C2364 C2365 1.389 . S
C2365 C2364 1.389 . S
C2365 C2366 1.387 . S
C2366 H2351 0.930 . S
C2366 C2361 1.390 . S
C2366 C2365 1.387 . S
H2367 C2379 0.930 . S
H2368 C2381 0.930 . S
H2369 C2382 0.930 . S
H2370 C2386 0.959 . S
H2371 C2386 0.959 . S
H2372 C2386 0.961 . S
H2373 C2387 0.960 . S
H2374 C2387 0.961 . S
H2375 C2387 0.959 . S
H2376 C2390 0.929 . S
H2377 C2391 0.931 . S
H2378 C2393 0.930 . S
C2379 H2367 0.930 . S
C2379 C2380 1.399 . S
C2379 C2384 1.399 . S
C2380 C2379 1.399 . S
C2380 C2381 1.376 . S
C2381 H2368 0.930 . S
C2381 C2380 1.376 . S
C2381 C2382 1.388 . S
C2382 H2369 0.930 . S
C2382 C2381 1.388 . S
C2382 C2383 1.390 . S
C2383 C2382 1.390 . S
C2383 C2384 1.394 . S
C2383 C2389 1.465 . S
C2384 C2379 1.399 . S
C2384 C2383 1.394 . S
C2384 C2385 1.516 . S
C2385 C2384 1.516 . S
C2385 C2386 1.502 . S
C2385 C2387 1.561 . S
C2385 C2388 1.526 . S
C2386 H2370 0.959 . S
C2386 H2371 0.959 . S
C2386 H2372 0.961 . S
C2386 C2385 1.502 . S
C2387 H2373 0.960 . S
C2387 H2374 0.961 . S
C2387 H2375 0.959 . S
C2387 C2385 1.561 . S
C2388 C2385 1.526 . S
C2388 C2389 1.396 . S
C2388 C2393 1.390 . S
C2389 C2383 1.465 . S
C2389 C2388 1.396 . S
C2389 C2390 1.399 . S
C2390 H2376 0.929 . S
C2390 C2389 1.399 . S
C2390 C2391 1.385 . S
C2391 H2377 0.931 . S
C2391 C2390 1.385 . S
C2391 C2392 1.389 . S
C2392 C2391 1.389 . S
C2392 C2393 1.387 . S
C2393 H2378 0.930 . S
C2393 C2388 1.390 . S
C2393 C2392 1.387 . S
H2394 C2406 0.930 . S
H2395 C2408 0.930 . S
H2396 C2409 0.930 . S
H2397 C2413 0.959 . S
H2398 C2413 0.959 . S
H2399 C2413 0.961 . S
H2400 C2414 0.960 . S
H2401 C2414 0.961 . S
H2402 C2414 0.959 . S
H2403 C2417 0.929 . S
H2404 C2418 0.931 . S
H2405 C2420 0.930 . S
C2406 H2394 0.930 . S
C2406 C2407 1.399 . S
C2406 C2411 1.399 . S
C2407 C2406 1.399 . S
C2407 C2408 1.376 . S
C2408 H2395 0.930 . S
C2408 C2407 1.376 . S
C2408 C2409 1.388 . S
C2409 H2396 0.930 . S
C2409 C2408 1.388 . S
C2409 C2410 1.390 . S
C2410 C2409 1.390 . S
C2410 C2411 1.394 . S
C2410 C2416 1.465 . S
C2411 C2406 1.399 . S
C2411 C2410 1.394 . S
C2411 C2412 1.516 . S
C2412 C2411 1.516 . S
C2412 C2413 1.502 . S
C2412 C2414 1.561 . S
C2412 C2415 1.526 . S
C2413 H2397 0.959 . S
C2413 H2398 0.959 . S
C2413 H2399 0.961 . S
C2413 C2412 1.502 . S
C2414 H2400 0.960 . S
C2414 H2401 0.961 . S
C2414 H2402 0.959 . S
C2414 C2412 1.561 . S
C2415 C2412 1.526 . S
C2415 C2416 1.396 . S
C2415 C2420 1.390 . S
C2416 C2410 1.465 . S
C2416 C2415 1.396 . S
C2416 C2417 1.399 . S
C2417 H2403 0.929 . S
C2417 C2416 1.399 . S
C2417 C2418 1.385 . S
C2418 H2404 0.931 . S
C2418 C2417 1.385 . S
C2418 C2419 1.389 . S
C2419 C2418 1.389 . S
C2419 C2420 1.387 . S
C2420 H2405 0.930 . S
C2420 C2415 1.390 . S
C2420 C2419 1.387 . S
H2421 C2433 0.930 . S
H2422 C2435 0.930 . S
H2423 C2436 0.930 . S
H2424 C2440 0.959 . S
H2425 C2440 0.959 . S
H2426 C2440 0.961 . S
H2427 C2441 0.960 . S
H2428 C2441 0.961 . S
H2429 C2441 0.959 . S
H2430 C2444 0.929 . S
H2431 C2445 0.931 . S
H2432 C2447 0.930 . S
C2433 H2421 0.930 . S
C2433 C2434 1.399 . S
C2433 C2438 1.399 . S
C2434 C2433 1.399 . S
C2434 C2435 1.376 . S
C2435 H2422 0.930 . S
C2435 C2434 1.376 . S
C2435 C2436 1.388 . S
C2436 H2423 0.930 . S
C2436 C2435 1.388 . S
C2436 C2437 1.390 . S
C2437 C2436 1.390 . S
C2437 C2438 1.394 . S
C2437 C2443 1.465 . S
C2438 C2433 1.399 . S
C2438 C2437 1.394 . S
C2438 C2439 1.516 . S
C2439 C2438 1.516 . S
C2439 C2440 1.502 . S
C2439 C2441 1.561 . S
C2439 C2442 1.526 . S
C2440 H2424 0.959 . S
C2440 H2425 0.959 . S
C2440 H2426 0.961 . S
C2440 C2439 1.502 . S
C2441 H2427 0.960 . S
C2441 H2428 0.961 . S
C2441 H2429 0.959 . S
C2441 C2439 1.561 . S
C2442 C2439 1.526 . S
C2442 C2443 1.396 . S
C2442 C2447 1.390 . S
C2443 C2437 1.465 . S
C2443 C2442 1.396 . S
C2443 C2444 1.399 . S
C2444 H2430 0.929 . S
C2444 C2443 1.399 . S
C2444 C2445 1.385 . S
C2445 H2431 0.931 . S
C2445 C2444 1.385 . S
C2445 C2446 1.389 . S
C2446 C2445 1.389 . S
C2446 C2447 1.387 . S
C2447 H2432 0.930 . S
C2447 C2442 1.390 . S
C2447 C2446 1.387 . S
H2448 C2460 0.930 . S
H2449 C2462 0.930 . S
H2450 C2463 0.930 . S
H2451 C2467 0.959 . S
H2452 C2467 0.959 . S
H2453 C2467 0.961 . S
H2454 C2468 0.960 . S
H2455 C2468 0.961 . S
H2456 C2468 0.959 . S
H2457 C2471 0.929 . S
H2458 C2472 0.931 . S
H2459 C2474 0.930 . S
C2460 H2448 0.930 . S
C2460 C2461 1.399 . S
C2460 C2465 1.399 . S
C2461 C2460 1.399 . S
C2461 C2462 1.376 . S
C2462 H2449 0.930 . S
C2462 C2461 1.376 . S
C2462 C2463 1.388 . S
C2463 H2450 0.930 . S
C2463 C2462 1.388 . S
C2463 C2464 1.390 . S
C2464 C2463 1.390 . S
C2464 C2465 1.394 . S
C2464 C2470 1.465 . S
C2465 C2460 1.399 . S
C2465 C2464 1.394 . S
C2465 C2466 1.516 . S
C2466 C2465 1.516 . S
C2466 C2467 1.502 . S
C2466 C2468 1.561 . S
C2466 C2469 1.526 . S
C2467 H2451 0.959 . S
C2467 H2452 0.959 . S
C2467 H2453 0.961 . S
C2467 C2466 1.502 . S
C2468 H2454 0.960 . S
C2468 H2455 0.961 . S
C2468 H2456 0.959 . S
C2468 C2466 1.561 . S
C2469 C2466 1.526 . S
C2469 C2470 1.396 . S
C2469 C2474 1.390 . S
C2470 C2464 1.465 . S
C2470 C2469 1.396 . S
C2470 C2471 1.399 . S
C2471 H2457 0.929 . S
C2471 C2470 1.399 . S
C2471 C2472 1.385 . S
C2472 H2458 0.931 . S
C2472 C2471 1.385 . S
C2472 C2473 1.389 . S
C2473 C2472 1.389 . S
C2473 C2474 1.387 . S
C2474 H2459 0.930 . S
C2474 C2469 1.390 . S
C2474 C2473 1.387 . S
H2475 C2487 0.930 . S
H2476 C2489 0.930 . S
H2477 C2490 0.930 . S
H2478 C2494 0.959 . S
H2479 C2494 0.959 . S
H2480 C2494 0.961 . S
H2481 C2495 0.960 . S
H2482 C2495 0.961 . S
H2483 C2495 0.959 . S
H2484 C2498 0.929 . S
H2485 C2499 0.931 . S
H2486 C2501 0.930 . S
C2487 H2475 0.930 . S
C2487 C2488 1.399 . S
C2487 C2492 1.399 . S
C2488 C2487 1.399 . S
C2488 C2489 1.376 . S
C2489 H2476 0.930 . S
C2489 C2488 1.376 . S
C2489 C2490 1.388 . S
C2490 H2477 0.930 . S
C2490 C2489 1.388 . S
C2490 C2491 1.390 . S
C2491 C2490 1.390 . S
C2491 C2492 1.394 . S
C2491 C2497 1.465 . S
C2492 C2487 1.399 . S
C2492 C2491 1.394 . S
C2492 C2493 1.516 . S
C2493 C2492 1.516 . S
C2493 C2494 1.502 . S
C2493 C2495 1.561 . S
C2493 C2496 1.526 . S
C2494 H2478 0.959 . S
C2494 H2479 0.959 . S
C2494 H2480 0.961 . S
C2494 C2493 1.502 . S
C2495 H2481 0.960 . S
C2495 H2482 0.961 . S
C2495 H2483 0.959 . S
C2495 C2493 1.561 . S
C2496 C2493 1.526 . S
C2496 C2497 1.396 . S
C2496 C2501 1.390 . S
C2497 C2491 1.465 . S
C2497 C2496 1.396 . S
C2497 C2498 1.399 . S
C2498 H2484 0.929 . S
C2498 C2497 1.399 . S
C2498 C2499 1.385 . S
C2499 H2485 0.931 . S
C2499 C2498 1.385 . S
C2499 C2500 1.389 . S
C2500 C2499 1.389 . S
C2500 C2501 1.387 . S
C2501 H2486 0.930 . S
C2501 C2496 1.390 . S
C2501 C2500 1.387 . S
H2502 C2514 0.930 . S
H2503 C2516 0.930 . S
H2504 C2517 0.930 . S
H2505 C2521 0.959 . S
H2506 C2521 0.959 . S
H2507 C2521 0.961 . S
H2508 C2522 0.960 . S
H2509 C2522 0.961 . S
H2510 C2522 0.959 . S
H2511 C2525 0.929 . S
H2512 C2526 0.931 . S
H2513 C2528 0.930 . S
C2514 H2502 0.930 . S
C2514 C2515 1.399 . S
C2514 C2519 1.399 . S
C2515 C2514 1.399 . S
C2515 C2516 1.376 . S
C2516 H2503 0.930 . S
C2516 C2515 1.376 . S
C2516 C2517 1.388 . S
C2517 H2504 0.930 . S
C2517 C2516 1.388 . S
C2517 C2518 1.390 . S
C2518 C2517 1.390 . S
C2518 C2519 1.394 . S
C2518 C2524 1.465 . S
C2519 C2514 1.399 . S
C2519 C2518 1.394 . S
C2519 C2520 1.516 . S
C2520 C2519 1.516 . S
C2520 C2521 1.502 . S
C2520 C2522 1.561 . S
C2520 C2523 1.526 . S
C2521 H2505 0.959 . S
C2521 H2506 0.959 . S
C2521 H2507 0.961 . S
C2521 C2520 1.502 . S
C2522 H2508 0.960 . S
C2522 H2509 0.961 . S
C2522 H2510 0.959 . S
C2522 C2520 1.561 . S
C2523 C2520 1.526 . S
C2523 C2524 1.396 . S
C2523 C2528 1.390 . S
C2524 C2518 1.465 . S
C2524 C2523 1.396 . S
C2524 C2525 1.399 . S
C2525 H2511 0.929 . S
C2525 C2524 1.399 . S
C2525 C2526 1.385 . S
C2526 H2512 0.931 . S
C2526 C2525 1.385 . S
C2526 C2527 1.389 . S
C2527 C2526 1.389 . S
C2527 C2528 1.387 . S
C2528 H2513 0.930 . S
C2528 C2523 1.390 . S
C2528 C2527 1.387 . S
H2529 C2541 0.930 . S
H2530 C2543 0.930 . S
H2531 C2544 0.930 . S
H2532 C2548 0.959 . S
H2533 C2548 0.959 . S
H2534 C2548 0.961 . S
H2535 C2549 0.960 . S
H2536 C2549 0.961 . S
H2537 C2549 0.959 . S
H2538 C2552 0.929 . S
H2539 C2553 0.931 . S
H2540 C2555 0.930 . S
C2541 H2529 0.930 . S
C2541 C2542 1.399 . S
C2541 C2546 1.399 . S
C2542 C2541 1.399 . S
C2542 C2543 1.376 . S
C2543 H2530 0.930 . S
C2543 C2542 1.376 . S
C2543 C2544 1.388 . S
C2544 H2531 0.930 . S
C2544 C2543 1.388 . S
C2544 C2545 1.390 . S
C2545 C2544 1.390 . S
C2545 C2546 1.394 . S
C2545 C2551 1.465 . S
C2546 C2541 1.399 . S
C2546 C2545 1.394 . S
C2546 C2547 1.516 . S
C2547 C2546 1.516 . S
C2547 C2548 1.502 . S
C2547 C2549 1.561 . S
C2547 C2550 1.526 . S
C2548 H2532 0.959 . S
C2548 H2533 0.959 . S
C2548 H2534 0.961 . S
C2548 C2547 1.502 . S
C2549 H2535 0.960 . S
C2549 H2536 0.961 . S
C2549 H2537 0.959 . S
C2549 C2547 1.561 . S
C2550 C2547 1.526 . S
C2550 C2551 1.396 . S
C2550 C2555 1.390 . S
C2551 C2545 1.465 . S
C2551 C2550 1.396 . S
C2551 C2552 1.399 . S
C2552 H2538 0.929 . S
C2552 C2551 1.399 . S
C2552 C2553 1.385 . S
C2553 H2539 0.931 . S
C2553 C2552 1.385 . S
C2553 C2554 1.389 . S
C2554 C2553 1.389 . S
C2554 C2555 1.387 . S
C2555 H2540 0.930 . S
C2555 C2550 1.390 . S
C2555 C2554 1.387 . S
H2556 C2568 0.930 . S
H2557 C2570 0.930 . S
H2558 C2571 0.930 . S
H2559 C2575 0.959 . S
H2560 C2575 0.959 . S
H2561 C2575 0.961 . S
H2562 C2576 0.960 . S
H2563 C2576 0.961 . S
H2564 C2576 0.959 . S
H2565 C2579 0.929 . S
H2566 C2580 0.931 . S
H2567 C2582 0.930 . S
C2568 H2556 0.930 . S
C2568 C2569 1.399 . S
C2568 C2573 1.399 . S
C2569 C2568 1.399 . S
C2569 C2570 1.376 . S
C2570 H2557 0.930 . S
C2570 C2569 1.376 . S
C2570 C2571 1.388 . S
C2571 H2558 0.930 . S
C2571 C2570 1.388 . S
C2571 C2572 1.390 . S
C2572 C2571 1.390 . S
C2572 C2573 1.394 . S
C2572 C2578 1.465 . S
C2573 C2568 1.399 . S
C2573 C2572 1.394 . S
C2573 C2574 1.516 . S
C2574 C2573 1.516 . S
C2574 C2575 1.502 . S
C2574 C2576 1.561 . S
C2574 C2577 1.526 . S
C2575 H2559 0.959 . S
C2575 H2560 0.959 . S
C2575 H2561 0.961 . S
C2575 C2574 1.502 . S
C2576 H2562 0.960 . S
C2576 H2563 0.961 . S
C2576 H2564 0.959 . S
C2576 C2574 1.561 . S
C2577 C2574 1.526 . S
C2577 C2578 1.396 . S
C2577 C2582 1.390 . S
C2578 C2572 1.465 . S
C2578 C2577 1.396 . S
C2578 C2579 1.399 . S
C2579 H2565 0.929 . S
C2579 C2578 1.399 . S
C2579 C2580 1.385 . S
C2580 H2566 0.931 . S
C2580 C2579 1.385 . S
C2580 C2581 1.389 . S
C2581 C2580 1.389 . S
C2581 C2582 1.387 . S
C2582 H2567 0.930 . S
C2582 C2577 1.390 . S
C2582 C2581 1.387 . S
H2583 C2595 0.930 . S
H2584 C2597 0.930 . S
H2585 C2598 0.930 . S
H2586 C2602 0.959 . S
H2587 C2602 0.959 . S
H2588 C2602 0.961 . S
H2589 C2603 0.960 . S
H2590 C2603 0.961 . S
H2591 C2603 0.959 . S
H2592 C2606 0.929 . S
H2593 C2607 0.931 . S
H2594 C2609 0.930 . S
C2595 H2583 0.930 . S
C2595 C2596 1.399 . S
C2595 C2600 1.399 . S
C2596 C2595 1.399 . S
C2596 C2597 1.376 . S
C2597 H2584 0.930 . S
C2597 C2596 1.376 . S
C2597 C2598 1.388 . S
C2598 H2585 0.930 . S
C2598 C2597 1.388 . S
C2598 C2599 1.390 . S
C2599 C2598 1.390 . S
C2599 C2600 1.394 . S
C2599 C2605 1.465 . S
C2600 C2595 1.399 . S
C2600 C2599 1.394 . S
C2600 C2601 1.516 . S
C2601 C2600 1.516 . S
C2601 C2602 1.502 . S
C2601 C2603 1.561 . S
C2601 C2604 1.526 . S
C2602 H2586 0.959 . S
C2602 H2587 0.959 . S
C2602 H2588 0.961 . S
C2602 C2601 1.502 . S
C2603 H2589 0.960 . S
C2603 H2590 0.961 . S
C2603 H2591 0.959 . S
C2603 C2601 1.561 . S
C2604 C2601 1.526 . S
C2604 C2605 1.396 . S
C2604 C2609 1.390 . S
C2605 C2599 1.465 . S
C2605 C2604 1.396 . S
C2605 C2606 1.399 . S
C2606 H2592 0.929 . S
C2606 C2605 1.399 . S
C2606 C2607 1.385 . S
C2607 H2593 0.931 . S
C2607 C2606 1.385 . S
C2607 C2608 1.389 . S
C2608 C2607 1.389 . S
C2608 C2609 1.387 . S
C2609 H2594 0.930 . S
C2609 C2604 1.390 . S
C2609 C2608 1.387 . S
H2610 C2622 0.930 . S
H2611 C2624 0.930 . S
H2612 C2625 0.930 . S
H2613 C2629 0.959 . S
H2614 C2629 0.959 . S
H2615 C2629 0.961 . S
H2616 C2630 0.960 . S
H2617 C2630 0.961 . S
H2618 C2630 0.959 . S
H2619 C2633 0.929 . S
H2620 C2634 0.931 . S
H2621 C2636 0.930 . S
C2622 H2610 0.930 . S
C2622 C2623 1.399 . S
C2622 C2627 1.399 . S
C2623 C2622 1.399 . S
C2623 C2624 1.376 . S
C2624 H2611 0.930 . S
C2624 C2623 1.376 . S
C2624 C2625 1.388 . S
C2625 H2612 0.930 . S
C2625 C2624 1.388 . S
C2625 C2626 1.390 . S
C2626 C2625 1.390 . S
C2626 C2627 1.394 . S
C2626 C2632 1.465 . S
C2627 C2622 1.399 . S
C2627 C2626 1.394 . S
C2627 C2628 1.516 . S
C2628 C2627 1.516 . S
C2628 C2629 1.502 . S
C2628 C2630 1.561 . S
C2628 C2631 1.526 . S
C2629 H2613 0.959 . S
C2629 H2614 0.959 . S
C2629 H2615 0.961 . S
C2629 C2628 1.502 . S
C2630 H2616 0.960 . S
C2630 H2617 0.961 . S
C2630 H2618 0.959 . S
C2630 C2628 1.561 . S
C2631 C2628 1.526 . S
C2631 C2632 1.396 . S
C2631 C2636 1.390 . S
C2632 C2626 1.465 . S
C2632 C2631 1.396 . S
C2632 C2633 1.399 . S
C2633 H2619 0.929 . S
C2633 C2632 1.399 . S
C2633 C2634 1.385 . S
C2634 H2620 0.931 . S
C2634 C2633 1.385 . S
C2634 C2635 1.389 . S
C2635 C2634 1.389 . S
C2635 C2636 1.387 . S
C2636 H2621 0.930 . S
C2636 C2631 1.390 . S
C2636 C2635 1.387 . S
H2637 C2649 0.930 . S
H2638 C2651 0.930 . S
H2639 C2652 0.930 . S
H2640 C2656 0.959 . S
H2641 C2656 0.959 . S
H2642 C2656 0.961 . S
H2643 C2657 0.960 . S
H2644 C2657 0.961 . S
H2645 C2657 0.959 . S
H2646 C2660 0.929 . S
H2647 C2661 0.931 . S
H2648 C2663 0.930 . S
C2649 H2637 0.930 . S
C2649 C2650 1.399 . S
C2649 C2654 1.399 . S
C2650 C2649 1.399 . S
C2650 C2651 1.376 . S
C2651 H2638 0.930 . S
C2651 C2650 1.376 . S
C2651 C2652 1.388 . S
C2652 H2639 0.930 . S
C2652 C2651 1.388 . S
C2652 C2653 1.390 . S
C2653 C2652 1.390 . S
C2653 C2654 1.394 . S
C2653 C2659 1.465 . S
C2654 C2649 1.399 . S
C2654 C2653 1.394 . S
C2654 C2655 1.516 . S
C2655 C2654 1.516 . S
C2655 C2656 1.502 . S
C2655 C2657 1.561 . S
C2655 C2658 1.526 . S
C2656 H2640 0.959 . S
C2656 H2641 0.959 . S
C2656 H2642 0.961 . S
C2656 C2655 1.502 . S
C2657 H2643 0.960 . S
C2657 H2644 0.961 . S
C2657 H2645 0.959 . S
C2657 C2655 1.561 . S
C2658 C2655 1.526 . S
C2658 C2659 1.396 . S
C2658 C2663 1.390 . S
C2659 C2653 1.465 . S
C2659 C2658 1.396 . S
C2659 C2660 1.399 . S
C2660 H2646 0.929 . S
C2660 C2659 1.399 . S
C2660 C2661 1.385 . S
C2661 H2647 0.931 . S
C2661 C2660 1.385 . S
C2661 C2662 1.389 . S
C2662 C2661 1.389 . S
C2662 C2663 1.387 . S
C2663 H2648 0.930 . S
C2663 C2658 1.390 . S
C2663 C2662 1.387 . S
H2664 C2676 0.930 . S
H2665 C2678 0.930 . S
H2666 C2679 0.930 . S
H2667 C2683 0.959 . S
H2668 C2683 0.959 . S
H2669 C2683 0.961 . S
H2670 C2684 0.960 . S
H2671 C2684 0.961 . S
H2672 C2684 0.959 . S
H2673 C2687 0.929 . S
H2674 C2688 0.931 . S
H2675 C2690 0.930 . S
C2676 H2664 0.930 . S
C2676 C2677 1.399 . S
C2676 C2681 1.399 . S
C2677 C2676 1.399 . S
C2677 C2678 1.376 . S
C2678 H2665 0.930 . S
C2678 C2677 1.376 . S
C2678 C2679 1.388 . S
C2679 H2666 0.930 . S
C2679 C2678 1.388 . S
C2679 C2680 1.390 . S
C2680 C2679 1.390 . S
C2680 C2681 1.394 . S
C2680 C2686 1.465 . S
C2681 C2676 1.399 . S
C2681 C2680 1.394 . S
C2681 C2682 1.516 . S
C2682 C2681 1.516 . S
C2682 C2683 1.502 . S
C2682 C2684 1.561 . S
C2682 C2685 1.526 . S
C2683 H2667 0.959 . S
C2683 H2668 0.959 . S
C2683 H2669 0.961 . S
C2683 C2682 1.502 . S
C2684 H2670 0.960 . S
C2684 H2671 0.961 . S
C2684 H2672 0.959 . S
C2684 C2682 1.561 . S
C2685 C2682 1.526 . S
C2685 C2686 1.396 . S
C2685 C2690 1.390 . S
C2686 C2680 1.465 . S
C2686 C2685 1.396 . S
C2686 C2687 1.399 . S
C2687 H2673 0.929 . S
C2687 C2686 1.399 . S
C2687 C2688 1.385 . S
C2688 H2674 0.931 . S
C2688 C2687 1.385 . S
C2688 C2689 1.389 . S
C2689 C2688 1.389 . S
C2689 C2690 1.387 . S
C2690 H2675 0.930 . S
C2690 C2685 1.390 . S
C2690 C2689 1.387 . S
H2691 C2703 0.930 . S
H2692 C2705 0.930 . S
H2693 C2706 0.930 . S
H2694 C2710 0.959 . S
H2695 C2710 0.959 . S
H2696 C2710 0.961 . S
H2697 C2711 0.960 . S
H2698 C2711 0.961 . S
H2699 C2711 0.959 . S
H2700 C2714 0.929 . S
H2701 C2715 0.931 . S
H2702 C2717 0.930 . S
C2703 H2691 0.930 . S
C2703 C2704 1.399 . S
C2703 C2708 1.399 . S
C2704 C2703 1.399 . S
C2704 C2705 1.376 . S
C2705 H2692 0.930 . S
C2705 C2704 1.376 . S
C2705 C2706 1.388 . S
C2706 H2693 0.930 . S
C2706 C2705 1.388 . S
C2706 C2707 1.390 . S
C2707 C2706 1.390 . S
C2707 C2708 1.394 . S
C2707 C2713 1.465 . S
C2708 C2703 1.399 . S
C2708 C2707 1.394 . S
C2708 C2709 1.516 . S
C2709 C2708 1.516 . S
C2709 C2710 1.502 . S
C2709 C2711 1.561 . S
C2709 C2712 1.526 . S
C2710 H2694 0.959 . S
C2710 H2695 0.959 . S
C2710 H2696 0.961 . S
C2710 C2709 1.502 . S
C2711 H2697 0.960 . S
C2711 H2698 0.961 . S
C2711 H2699 0.959 . S
C2711 C2709 1.561 . S
C2712 C2709 1.526 . S
C2712 C2713 1.396 . S
C2712 C2717 1.390 . S
C2713 C2707 1.465 . S
C2713 C2712 1.396 . S
C2713 C2714 1.399 . S
C2714 H2700 0.929 . S
C2714 C2713 1.399 . S
C2714 C2715 1.385 . S
C2715 H2701 0.931 . S
C2715 C2714 1.385 . S
C2715 C2716 1.389 . S
C2716 C2715 1.389 . S
C2716 C2717 1.387 . S
C2717 H2702 0.930 . S
C2717 C2712 1.390 . S
C2717 C2716 1.387 . S
H2718 C2730 0.930 . S
H2719 C2732 0.930 . S
H2720 C2733 0.930 . S
H2721 C2737 0.959 . S
H2722 C2737 0.959 . S
H2723 C2737 0.961 . S
H2724 C2738 0.960 . S
H2725 C2738 0.961 . S
H2726 C2738 0.959 . S
H2727 C2741 0.929 . S
H2728 C2742 0.931 . S
H2729 C2744 0.930 . S
C2730 H2718 0.930 . S
C2730 C2731 1.399 . S
C2730 C2735 1.399 . S
C2731 C2730 1.399 . S
C2731 C2732 1.376 . S
C2732 H2719 0.930 . S
C2732 C2731 1.376 . S
C2732 C2733 1.388 . S
C2733 H2720 0.930 . S
C2733 C2732 1.388 . S
C2733 C2734 1.390 . S
C2734 C2733 1.390 . S
C2734 C2735 1.394 . S
C2734 C2740 1.465 . S
C2735 C2730 1.399 . S
C2735 C2734 1.394 . S
C2735 C2736 1.516 . S
C2736 C2735 1.516 . S
C2736 C2737 1.502 . S
C2736 C2738 1.561 . S
C2736 C2739 1.526 . S
C2737 H2721 0.959 . S
C2737 H2722 0.959 . S
C2737 H2723 0.961 . S
C2737 C2736 1.502 . S
C2738 H2724 0.960 . S
C2738 H2725 0.961 . S
C2738 H2726 0.959 . S
C2738 C2736 1.561 . S
C2739 C2736 1.526 . S
C2739 C2740 1.396 . S
C2739 C2744 1.390 . S
C2740 C2734 1.465 . S
C2740 C2739 1.396 . S
C2740 C2741 1.399 . S
C2741 H2727 0.929 . S
C2741 C2740 1.399 . S
C2741 C2742 1.385 . S
C2742 H2728 0.931 . S
C2742 C2741 1.385 . S
C2742 C2743 1.389 . S
C2743 C2742 1.389 . S
C2743 C2744 1.387 . S
C2744 H2729 0.930 . S
C2744 C2739 1.390 . S
C2744 C2743 1.387 . S
H2745 C2757 0.930 . S
H2746 C2759 0.930 . S
H2747 C2760 0.930 . S
H2748 C2764 0.959 . S
H2749 C2764 0.959 . S
H2750 C2764 0.961 . S
H2751 C2765 0.960 . S
H2752 C2765 0.961 . S
H2753 C2765 0.959 . S
H2754 C2768 0.929 . S
H2755 C2769 0.931 . S
H2756 C2771 0.930 . S
C2757 H2745 0.930 . S
C2757 C2758 1.399 . S
C2757 C2762 1.399 . S
C2758 C2757 1.399 . S
C2758 C2759 1.376 . S
C2759 H2746 0.930 . S
C2759 C2758 1.376 . S
C2759 C2760 1.388 . S
C2760 H2747 0.930 . S
C2760 C2759 1.388 . S
C2760 C2761 1.390 . S
C2761 C2760 1.390 . S
C2761 C2762 1.394 . S
C2761 C2767 1.465 . S
C2762 C2757 1.399 . S
C2762 C2761 1.394 . S
C2762 C2763 1.516 . S
C2763 C2762 1.516 . S
C2763 C2764 1.502 . S
C2763 C2765 1.561 . S
C2763 C2766 1.526 . S
C2764 H2748 0.959 . S
C2764 H2749 0.959 . S
C2764 H2750 0.961 . S
C2764 C2763 1.502 . S
C2765 H2751 0.960 . S
C2765 H2752 0.961 . S
C2765 H2753 0.959 . S
C2765 C2763 1.561 . S
C2766 C2763 1.526 . S
C2766 C2767 1.396 . S
C2766 C2771 1.390 . S
C2767 C2761 1.465 . S
C2767 C2766 1.396 . S
C2767 C2768 1.399 . S
C2768 H2754 0.929 . S
C2768 C2767 1.399 . S
C2768 C2769 1.385 . S
C2769 H2755 0.931 . S
C2769 C2768 1.385 . S
C2769 C2770 1.389 . S
C2770 C2769 1.389 . S
C2770 C2771 1.387 . S
C2771 H2756 0.930 . S
C2771 C2766 1.390 . S
C2771 C2770 1.387 . S
H2772 C2784 0.930 . S
H2773 C2786 0.930 . S
H2774 C2787 0.930 . S
H2775 C2791 0.959 . S
H2776 C2791 0.959 . S
H2777 C2791 0.961 . S
H2778 C2792 0.960 . S
H2779 C2792 0.961 . S
H2780 C2792 0.959 . S
H2781 C2795 0.929 . S
H2782 C2796 0.931 . S
H2783 C2798 0.930 . S
C2784 H2772 0.930 . S
C2784 C2785 1.399 . S
C2784 C2789 1.399 . S
C2785 C2784 1.399 . S
C2785 C2786 1.376 . S
C2786 H2773 0.930 . S
C2786 C2785 1.376 . S
C2786 C2787 1.388 . S
C2787 H2774 0.930 . S
C2787 C2786 1.388 . S
C2787 C2788 1.390 . S
C2788 C2787 1.390 . S
C2788 C2789 1.394 . S
C2788 C2794 1.465 . S
C2789 C2784 1.399 . S
C2789 C2788 1.394 . S
C2789 C2790 1.516 . S
C2790 C2789 1.516 . S
C2790 C2791 1.502 . S
C2790 C2792 1.561 . S
C2790 C2793 1.526 . S
C2791 H2775 0.959 . S
C2791 H2776 0.959 . S
C2791 H2777 0.961 . S
C2791 C2790 1.502 . S
C2792 H2778 0.960 . S
C2792 H2779 0.961 . S
C2792 H2780 0.959 . S
C2792 C2790 1.561 . S
C2793 C2790 1.526 . S
C2793 C2794 1.396 . S
C2793 C2798 1.390 . S
C2794 C2788 1.465 . S
C2794 C2793 1.396 . S
C2794 C2795 1.399 . S
C2795 H2781 0.929 . S
C2795 C2794 1.399 . S
C2795 C2796 1.385 . S
C2796 H2782 0.931 . S
C2796 C2795 1.385 . S
C2796 C2797 1.389 . S
C2797 C2796 1.389 . S
C2797 C2798 1.387 . S
C2798 H2783 0.930 . S
C2798 C2793 1.390 . S
C2798 C2797 1.387 . S
H2799 C2811 0.930 . S
H2800 C2813 0.930 . S
H2801 C2814 0.930 . S
H2802 C2818 0.959 . S
H2803 C2818 0.959 . S
H2804 C2818 0.961 . S
H2805 C2819 0.960 . S
H2806 C2819 0.961 . S
H2807 C2819 0.959 . S
H2808 C2822 0.929 . S
H2809 C2823 0.931 . S
H2810 C2825 0.930 . S
C2811 H2799 0.930 . S
C2811 C2812 1.399 . S
C2811 C2816 1.399 . S
C2812 C2811 1.399 . S
C2812 C2813 1.376 . S
C2813 H2800 0.930 . S
C2813 C2812 1.376 . S
C2813 C2814 1.388 . S
C2814 H2801 0.930 . S
C2814 C2813 1.388 . S
C2814 C2815 1.390 . S
C2815 C2814 1.390 . S
C2815 C2816 1.394 . S
C2815 C2821 1.465 . S
C2816 C2811 1.399 . S
C2816 C2815 1.394 . S
C2816 C2817 1.516 . S
C2817 C2816 1.516 . S
C2817 C2818 1.502 . S
C2817 C2819 1.561 . S
C2817 C2820 1.526 . S
C2818 H2802 0.959 . S
C2818 H2803 0.959 . S
C2818 H2804 0.961 . S
C2818 C2817 1.502 . S
C2819 H2805 0.960 . S
C2819 H2806 0.961 . S
C2819 H2807 0.959 . S
C2819 C2817 1.561 . S
C2820 C2817 1.526 . S
C2820 C2821 1.396 . S
C2820 C2825 1.390 . S
C2821 C2815 1.465 . S
C2821 C2820 1.396 . S
C2821 C2822 1.399 . S
C2822 H2808 0.929 . S
C2822 C2821 1.399 . S
C2822 C2823 1.385 . S
C2823 H2809 0.931 . S
C2823 C2822 1.385 . S
C2823 C2824 1.389 . S
C2824 C2823 1.389 . S
C2824 C2825 1.387 . S
C2825 H2810 0.930 . S
C2825 C2820 1.390 . S
C2825 C2824 1.387 . S
H2826 C2838 0.930 . S
H2827 C2840 0.930 . S
H2828 C2841 0.930 . S
H2829 C2845 0.959 . S
H2830 C2845 0.959 . S
H2831 C2845 0.961 . S
H2832 C2846 0.960 . S
H2833 C2846 0.961 . S
H2834 C2846 0.959 . S
H2835 C2849 0.929 . S
H2836 C2850 0.931 . S
H2837 C2852 0.930 . S
C2838 H2826 0.930 . S
C2838 C2839 1.399 . S
C2838 C2843 1.399 . S
C2839 C2838 1.399 . S
C2839 C2840 1.376 . S
C2840 H2827 0.930 . S
C2840 C2839 1.376 . S
C2840 C2841 1.388 . S
C2841 H2828 0.930 . S
C2841 C2840 1.388 . S
C2841 C2842 1.390 . S
C2842 C2841 1.390 . S
C2842 C2843 1.394 . S
C2842 C2848 1.465 . S
C2843 C2838 1.399 . S
C2843 C2842 1.394 . S
C2843 C2844 1.516 . S
C2844 C2843 1.516 . S
C2844 C2845 1.502 . S
C2844 C2846 1.561 . S
C2844 C2847 1.526 . S
C2845 H2829 0.959 . S
C2845 H2830 0.959 . S
C2845 H2831 0.961 . S
C2845 C2844 1.502 . S
C2846 H2832 0.960 . S
C2846 H2833 0.961 . S
C2846 H2834 0.959 . S
C2846 C2844 1.561 . S
C2847 C2844 1.526 . S
C2847 C2848 1.396 . S
C2847 C2852 1.390 . S
C2848 C2842 1.465 . S
C2848 C2847 1.396 . S
C2848 C2849 1.399 . S
C2849 H2835 0.929 . S
C2849 C2848 1.399 . S
C2849 C2850 1.385 . S
C2850 H2836 0.931 . S
C2850 C2849 1.385 . S
C2850 C2851 1.389 . S
C2851 C2850 1.389 . S
C2851 C2852 1.387 . S
C2852 H2837 0.930 . S
C2852 C2847 1.390 . S
C2852 C2851 1.387 . S
H2853 C2865 0.930 . S
H2854 C2867 0.930 . S
H2855 C2868 0.930 . S
H2856 C2872 0.959 . S
H2857 C2872 0.959 . S
H2858 C2872 0.961 . S
H2859 C2873 0.960 . S
H2860 C2873 0.961 . S
H2861 C2873 0.959 . S
H2862 C2876 0.929 . S
H2863 C2877 0.931 . S
H2864 C2879 0.930 . S
C2865 H2853 0.930 . S
C2865 C2866 1.399 . S
C2865 C2870 1.399 . S
C2866 C2865 1.399 . S
C2866 C2867 1.376 . S
C2867 H2854 0.930 . S
C2867 C2866 1.376 . S
C2867 C2868 1.388 . S
C2868 H2855 0.930 . S
C2868 C2867 1.388 . S
C2868 C2869 1.390 . S
C2869 C2868 1.390 . S
C2869 C2870 1.394 . S
C2869 C2875 1.465 . S
C2870 C2865 1.399 . S
C2870 C2869 1.394 . S
C2870 C2871 1.516 . S
C2871 C2870 1.516 . S
C2871 C2872 1.502 . S
C2871 C2873 1.561 . S
C2871 C2874 1.526 . S
C2872 H2856 0.959 . S
C2872 H2857 0.959 . S
C2872 H2858 0.961 . S
C2872 C2871 1.502 . S
C2873 H2859 0.960 . S
C2873 H2860 0.961 . S
C2873 H2861 0.959 . S
C2873 C2871 1.561 . S
C2874 C2871 1.526 . S
C2874 C2875 1.396 . S
C2874 C2879 1.390 . S
C2875 C2869 1.465 . S
C2875 C2874 1.396 . S
C2875 C2876 1.399 . S
C2876 H2862 0.929 . S
C2876 C2875 1.399 . S
C2876 C2877 1.385 . S
C2877 H2863 0.931 . S
C2877 C2876 1.385 . S
C2877 C2878 1.389 . S
C2878 C2877 1.389 . S
C2878 C2879 1.387 . S
C2879 H2864 0.930 . S
C2879 C2874 1.390 . S
C2879 C2878 1.387 . S
H2880 C2892 0.930 . S
H2881 C2894 0.930 . S
H2882 C2895 0.930 . S
H2883 C2899 0.959 . S
H2884 C2899 0.959 . S
H2885 C2899 0.961 . S
H2886 C2900 0.960 . S
H2887 C2900 0.961 . S
H2888 C2900 0.959 . S
H2889 C2903 0.929 . S
H2890 C2904 0.931 . S
H2891 C2906 0.930 . S
C2892 H2880 0.930 . S
C2892 C2893 1.399 . S
C2892 C2897 1.399 . S
C2893 C2892 1.399 . S
C2893 C2894 1.376 . S
C2894 H2881 0.930 . S
C2894 C2893 1.376 . S
C2894 C2895 1.388 . S
C2895 H2882 0.930 . S
C2895 C2894 1.388 . S
C2895 C2896 1.390 . S
C2896 C2895 1.390 . S
C2896 C2897 1.394 . S
C2896 C2902 1.465 . S
C2897 C2892 1.399 . S
C2897 C2896 1.394 . S
C2897 C2898 1.516 . S
C2898 C2897 1.516 . S
C2898 C2899 1.502 . S
C2898 C2900 1.561 . S
C2898 C2901 1.526 . S
C2899 H2883 0.959 . S
C2899 H2884 0.959 . S
C2899 H2885 0.961 . S
C2899 C2898 1.502 . S
C2900 H2886 0.960 . S
C2900 H2887 0.961 . S
C2900 H2888 0.959 . S
C2900 C2898 1.561 . S
C2901 C2898 1.526 . S
C2901 C2902 1.396 . S
C2901 C2906 1.390 . S
C2902 C2896 1.465 . S
C2902 C2901 1.396 . S
C2902 C2903 1.399 . S
C2903 H2889 0.929 . S
C2903 C2902 1.399 . S
C2903 C2904 1.385 . S
C2904 H2890 0.931 . S
C2904 C2903 1.385 . S
C2904 C2905 1.389 . S
C2905 C2904 1.389 . S
C2905 C2906 1.387 . S
C2906 H2891 0.930 . S
C2906 C2901 1.390 . S
C2906 C2905 1.387 . S
H2907 C2919 0.930 . S
H2908 C2921 0.930 . S
H2909 C2922 0.930 . S
H2910 C2926 0.959 . S
H2911 C2926 0.959 . S
H2912 C2926 0.961 . S
H2913 C2927 0.960 . S
H2914 C2927 0.961 . S
H2915 C2927 0.959 . S
H2916 C2930 0.929 . S
H2917 C2931 0.931 . S
H2918 C2933 0.930 . S
C2919 H2907 0.930 . S
C2919 C2920 1.399 . S
C2919 C2924 1.399 . S
C2920 C2919 1.399 . S
C2920 C2921 1.376 . S
C2921 H2908 0.930 . S
C2921 C2920 1.376 . S
C2921 C2922 1.388 . S
C2922 H2909 0.930 . S
C2922 C2921 1.388 . S
C2922 C2923 1.390 . S
C2923 C2922 1.390 . S
C2923 C2924 1.394 . S
C2923 C2929 1.465 . S
C2924 C2919 1.399 . S
C2924 C2923 1.394 . S
C2924 C2925 1.516 . S
C2925 C2924 1.516 . S
C2925 C2926 1.502 . S
C2925 C2927 1.561 . S
C2925 C2928 1.526 . S
C2926 H2910 0.959 . S
C2926 H2911 0.959 . S
C2926 H2912 0.961 . S
C2926 C2925 1.502 . S
C2927 H2913 0.960 . S
C2927 H2914 0.961 . S
C2927 H2915 0.959 . S
C2927 C2925 1.561 . S
C2928 C2925 1.526 . S
C2928 C2929 1.396 . S
C2928 C2933 1.390 . S
C2929 C2923 1.465 . S
C2929 C2928 1.396 . S
C2929 C2930 1.399 . S
C2930 H2916 0.929 . S
C2930 C2929 1.399 . S
C2930 C2931 1.385 . S
C2931 H2917 0.931 . S
C2931 C2930 1.385 . S
C2931 C2932 1.389 . S
C2932 C2931 1.389 . S
C2932 C2933 1.387 . S
C2933 H2918 0.930 . S
C2933 C2928 1.390 . S
C2933 C2932 1.387 . S
H2934 C2946 0.930 . S
H2935 C2948 0.930 . S
H2936 C2949 0.930 . S
H2937 C2953 0.959 . S
H2938 C2953 0.959 . S
H2939 C2953 0.961 . S
H2940 C2954 0.960 . S
H2941 C2954 0.961 . S
H2942 C2954 0.959 . S
H2943 C2957 0.929 . S
H2944 C2958 0.931 . S
H2945 C2960 0.930 . S
C2946 H2934 0.930 . S
C2946 C2947 1.399 . S
C2946 C2951 1.399 . S
C2947 C2946 1.399 . S
C2947 C2948 1.376 . S
C2948 H2935 0.930 . S
C2948 C2947 1.376 . S
C2948 C2949 1.388 . S
C2949 H2936 0.930 . S
C2949 C2948 1.388 . S
C2949 C2950 1.390 . S
C2950 C2949 1.390 . S
C2950 C2951 1.394 . S
C2950 C2956 1.465 . S
C2951 C2946 1.399 . S
C2951 C2950 1.394 . S
C2951 C2952 1.516 . S
C2952 C2951 1.516 . S
C2952 C2953 1.502 . S
C2952 C2954 1.561 . S
C2952 C2955 1.526 . S
C2953 H2937 0.959 . S
C2953 H2938 0.959 . S
C2953 H2939 0.961 . S
C2953 C2952 1.502 . S
C2954 H2940 0.960 . S
C2954 H2941 0.961 . S
C2954 H2942 0.959 . S
C2954 C2952 1.561 . S
C2955 C2952 1.526 . S
C2955 C2956 1.396 . S
C2955 C2960 1.390 . S
C2956 C2950 1.465 . S
C2956 C2955 1.396 . S
C2956 C2957 1.399 . S
C2957 H2943 0.929 . S
C2957 C2956 1.399 . S
C2957 C2958 1.385 . S
C2958 H2944 0.931 . S
C2958 C2957 1.385 . S
C2958 C2959 1.389 . S
C2959 C2958 1.389 . S
C2959 C2960 1.387 . S
C2960 H2945 0.930 . S
C2960 C2955 1.390 . S
C2960 C2959 1.387 . S
H2961 C2973 0.930 . S
H2962 C2975 0.930 . S
H2963 C2976 0.930 . S
H2964 C2980 0.959 . S
H2965 C2980 0.959 . S
H2966 C2980 0.961 . S
H2967 C2981 0.960 . S
H2968 C2981 0.961 . S
H2969 C2981 0.959 . S
H2970 C2984 0.929 . S
H2971 C2985 0.931 . S
H2972 C2987 0.930 . S
C2973 H2961 0.930 . S
C2973 C2974 1.399 . S
C2973 C2978 1.399 . S
C2974 C2973 1.399 . S
C2974 C2975 1.376 . S
C2975 H2962 0.930 . S
C2975 C2974 1.376 . S
C2975 C2976 1.388 . S
C2976 H2963 0.930 . S
C2976 C2975 1.388 . S
C2976 C2977 1.390 . S
C2977 C2976 1.390 . S
C2977 C2978 1.394 . S
C2977 C2983 1.465 . S
C2978 C2973 1.399 . S
C2978 C2977 1.394 . S
C2978 C2979 1.516 . S
C2979 C2978 1.516 . S
C2979 C2980 1.502 . S
C2979 C2981 1.561 . S
C2979 C2982 1.526 . S
C2980 H2964 0.959 . S
C2980 H2965 0.959 . S
C2980 H2966 0.961 . S
C2980 C2979 1.502 . S
C2981 H2967 0.960 . S
C2981 H2968 0.961 . S
C2981 H2969 0.959 . S
C2981 C2979 1.561 . S
C2982 C2979 1.526 . S
C2982 C2983 1.396 . S
C2982 C2987 1.390 . S
C2983 C2977 1.465 . S
C2983 C2982 1.396 . S
C2983 C2984 1.399 . S
C2984 H2970 0.929 . S
C2984 C2983 1.399 . S
C2984 C2985 1.385 . S
C2985 H2971 0.931 . S
C2985 C2984 1.385 . S
C2985 C2986 1.389 . S
C2986 C2985 1.389 . S
C2986 C2987 1.387 . S
C2987 H2972 0.930 . S
C2987 C2982 1.390 . S
C2987 C2986 1.387 . S
H2988 C3000 0.930 . S
H2989 C3002 0.930 . S
H2990 C3003 0.930 . S
H2991 C3007 0.959 . S
H2992 C3007 0.959 . S
H2993 C3007 0.963 . S
H2994 C3008 0.960 . S
H2995 C3008 0.961 . S
H2996 C3008 0.959 . S
H2997 C3011 0.929 . S
H2998 C3012 0.931 . S
H2999 C3014 0.930 . S
C3000 H2988 0.930 . S
C3000 C3001 1.399 . S
C3000 C3005 1.399 . S
C3001 C3000 1.399 . S
C3001 C3002 1.376 . S
C3002 H2989 0.930 . S
C3002 C3001 1.376 . S
C3002 C3003 1.388 . S
C3003 H2990 0.930 . S
C3003 C3002 1.388 . S
C3003 C3004 1.390 . S
C3004 C3003 1.390 . S
C3004 C3005 1.394 . S
C3004 C3010 1.465 . S
C3005 C3000 1.399 . S
C3005 C3004 1.394 . S
C3005 C3006 1.516 . S
C3006 C3005 1.516 . S
C3006 C3007 1.502 . S
C3006 C3008 1.561 . S
C3006 C3009 1.526 . S
C3007 H2991 0.959 . S
C3007 H2992 0.959 . S
C3007 H2993 0.963 . S
C3007 C3006 1.502 . S
C3008 H2994 0.960 . S
C3008 H2995 0.961 . S
C3008 H2996 0.959 . S
C3008 C3006 1.561 . S
C3009 C3006 1.526 . S
C3009 C3010 1.396 . S
C3009 C3014 1.390 . S
C3010 C3004 1.465 . S
C3010 C3009 1.396 . S
C3010 C3011 1.399 . S
C3011 H2997 0.929 . S
C3011 C3010 1.399 . S
C3011 C3012 1.385 . S
C3012 H2998 0.931 . S
C3012 C3011 1.385 . S
C3012 C3013 1.389 . S
C3013 C3012 1.389 . S
C3013 C3014 1.387 . S
C3014 H2999 0.930 . S
C3014 C3009 1.390 . S
C3014 C3013 1.387 . S
H3015 C3027 0.930 . S
H3016 C3029 0.930 . S
H3017 C3030 0.930 . S
H3018 C3034 0.959 . S
H3019 C3034 0.959 . S
H3020 C3034 0.961 . S
H3021 C3035 0.960 . S
H3022 C3035 0.961 . S
H3023 C3035 0.959 . S
H3024 C3038 0.929 . S
H3025 C3039 0.931 . S
H3026 C3041 0.930 . S
C3027 H3015 0.930 . S
C3027 C3028 1.399 . S
C3027 C3032 1.399 . S
C3028 C3027 1.399 . S
C3028 C3029 1.376 . S
C3029 H3016 0.930 . S
C3029 C3028 1.376 . S
C3029 C3030 1.388 . S
C3030 H3017 0.930 . S
C3030 C3029 1.388 . S
C3030 C3031 1.390 . S
C3031 C3030 1.390 . S
C3031 C3032 1.394 . S
C3031 C3037 1.465 . S
C3032 C3027 1.399 . S
C3032 C3031 1.394 . S
C3032 C3033 1.516 . S
C3033 C3032 1.516 . S
C3033 C3034 1.502 . S
C3033 C3035 1.561 . S
C3033 C3036 1.526 . S
C3034 H3018 0.959 . S
C3034 H3019 0.959 . S
C3034 H3020 0.961 . S
C3034 C3033 1.502 . S
C3035 H3021 0.960 . S
C3035 H3022 0.961 . S
C3035 H3023 0.959 . S
C3035 C3033 1.561 . S
C3036 C3033 1.526 . S
C3036 C3037 1.396 . S
C3036 C3041 1.390 . S
C3037 C3031 1.465 . S
C3037 C3036 1.396 . S
C3037 C3038 1.399 . S
C3038 H3024 0.929 . S
C3038 C3037 1.399 . S
C3038 C3039 1.385 . S
C3039 H3025 0.931 . S
C3039 C3038 1.385 . S
C3039 C3040 1.389 . S
C3040 C3039 1.389 . S
C3040 C3041 1.387 . S
C3041 H3026 0.930 . S
C3041 C3036 1.390 . S
C3041 C3040 1.387 . S
H3042 C3054 0.930 . S
H3043 C3056 0.930 1_554 S
H3044 C3057 0.930 1_554 S
H3045 C3061 0.959 . S
H3046 C3061 0.959 . S
H3047 C3061 0.961 . S
H3048 C3062 0.960 . S
H3049 C3062 0.961 . S
H3050 C3062 0.959 . S
H3051 C3065 0.929 . S
H3052 C3066 0.931 . S
H3053 C3068 0.930 . S
C3054 H3042 0.930 . S
C3054 C3055 1.399 . S
C3054 C3059 1.399 . S
C3055 C3054 1.399 . S
C3055 C3056 1.376 . S
C3056 H3043 0.930 1_556 S
C3056 C3055 1.376 . S
C3056 C3057 1.388 . S
C3057 H3044 0.930 1_556 S
C3057 C3056 1.388 . S
C3057 C3058 1.390 . S
C3058 C3057 1.390 . S
C3058 C3059 1.394 . S
C3058 C3064 1.465 . S
C3059 C3054 1.399 . S
C3059 C3058 1.394 . S
C3059 C3060 1.516 . S
C3060 C3059 1.516 . S
C3060 C3061 1.502 . S
C3060 C3062 1.561 . S
C3060 C3063 1.526 . S
C3061 H3045 0.959 . S
C3061 H3046 0.959 . S
C3061 H3047 0.961 . S
C3061 C3060 1.502 . S
C3062 H3048 0.960 . S
C3062 H3049 0.961 . S
C3062 H3050 0.959 . S
C3062 C3060 1.561 . S
C3063 C3060 1.526 . S
C3063 C3064 1.396 . S
C3063 C3068 1.390 . S
C3064 C3058 1.465 . S
C3064 C3063 1.396 . S
C3064 C3065 1.399 . S
C3065 H3051 0.929 . S
C3065 C3064 1.399 . S
C3065 C3066 1.385 . S
C3066 H3052 0.931 . S
C3066 C3065 1.385 . S
C3066 C3067 1.389 . S
C3067 C3066 1.389 . S
C3067 C3068 1.387 . S
C3068 H3053 0.930 . S
C3068 C3063 1.390 . S
C3068 C3067 1.387 . S
H3069 C3081 0.891 1_554 S
H3070 C3083 0.930 . S
H3071 C3084 0.930 . S
H3072 C3088 0.959 . S
H3073 C3088 0.959 . S
H3074 C3088 0.961 1_554 S
H3075 C3089 0.960 . S
H3076 C3089 0.961 . S
H3077 C3089 0.959 1_556 S
H3078 C3092 0.929 . S
H3079 C3093 0.931 . S
H3080 C3095 0.930 . S
C3081 H3069 0.891 1_556 S
C3081 C3082 1.399 . S
C3081 C3086 1.399 . S
C3082 C3081 1.399 . S
C3082 C3083 1.376 . S
C3083 H3070 0.930 . S
C3083 C3082 1.376 . S
C3083 C3084 1.388 . S
C3084 H3071 0.930 . S
C3084 C3083 1.388 . S
C3084 C3085 1.390 . S
C3085 C3084 1.390 . S
C3085 C3086 1.394 . S
C3085 C3091 1.465 . S
C3086 C3081 1.399 . S
C3086 C3085 1.394 . S
C3086 C3087 1.516 . S
C3087 C3086 1.516 . S
C3087 C3088 1.502 . S
C3087 C3089 1.561 1_556 S
C3087 C3090 1.526 . S
C3088 H3072 0.959 . S
C3088 H3073 0.959 . S
C3088 H3074 0.961 1_556 S
C3088 C3087 1.502 . S
C3089 H3075 0.960 . S
C3089 H3076 0.961 . S
C3089 H3077 0.959 1_554 S
C3089 C3087 1.561 1_554 S
C3090 C3087 1.526 . S
C3090 C3091 1.396 . S
C3090 C3095 1.390 . S
C3091 C3085 1.465 . S
C3091 C3090 1.396 . S
C3091 C3092 1.399 . S
C3092 H3078 0.929 . S
C3092 C3091 1.399 . S
C3092 C3093 1.385 . S
C3093 H3079 0.931 . S
C3093 C3092 1.385 . S
C3093 C3094 1.389 . S
C3094 C3093 1.389 . S
C3094 C3095 1.387 . S
C3095 H3080 0.930 . S
C3095 C3090 1.390 . S
C3095 C3094 1.387 . S
H3096 C3108 0.930 1_554 S
H3097 C3110 0.930 . S
H3098 C3111 0.930 . S
H3099 C3115 0.958 . S
H3100 C3115 0.960 1_554 S
H3101 C3115 0.962 1_554 S
H3102 C3116 0.960 1_554 S
H3103 C3116 0.961 1_554 S
H3104 C3116 0.959 . S
H3105 C3119 0.929 . S
H3106 C3120 0.931 . S
H3107 C3122 0.930 . S
C3108 H3096 0.930 1_556 S
C3108 C3109 1.399 . S
C3108 C3113 1.399 . S
C3109 C3108 1.399 . S
C3109 C3110 1.376 . S
C3110 H3097 0.930 . S
C3110 C3109 1.376 . S
C3110 C3111 1.388 . S
C3111 H3098 0.930 . S
C3111 C3110 1.388 . S
C3111 C3112 1.390 . S
C3112 C3111 1.390 . S
C3112 C3113 1.394 . S
C3112 C3118 1.465 . S
C3113 C3108 1.399 . S
C3113 C3112 1.394 . S
C3113 C3114 1.516 . S
C3114 C3113 1.516 . S
C3114 C3115 1.501 . S
C3114 C3116 1.561 . S
C3114 C3117 1.526 . S
C3115 H3099 0.958 . S
C3115 H3100 0.960 1_556 S
C3115 H3101 0.962 1_556 S
C3115 C3114 1.501 . S
C3116 H3102 0.960 1_556 S
C3116 H3103 0.961 1_556 S
C3116 H3104 0.959 . S
C3116 C3114 1.561 . S
C3117 C3114 1.526 . S
C3117 C3118 1.396 . S
C3117 C3122 1.390 . S
C3118 C3112 1.465 . S
C3118 C3117 1.396 . S
C3118 C3119 1.399 . S
C3119 H3105 0.929 . S
C3119 C3118 1.399 . S
C3119 C3120 1.385 . S
C3120 H3106 0.931 . S
C3120 C3119 1.385 . S
C3120 C3121 1.389 . S
C3121 C3120 1.389 . S
C3121 C3122 1.387 . S
C3122 H3107 0.930 . S
C3122 C3117 1.390 . S
C3122 C3121 1.387 . S
H3123 C3135 0.930 . S
H3124 C3137 0.930 1_554 S
H3125 C3138 0.930 1_554 S
H3126 C3142 0.959 . S
H3127 C3142 0.959 . S
H3128 C3142 0.961 . S
H3129 C3143 0.960 . S
H3130 C3143 0.961 . S
H3131 C3143 0.959 . S
H3132 C3146 0.929 . S
H3133 C3147 0.931 . S
H3134 C3149 0.930 . S
C3135 H3123 0.930 . S
C3135 C3136 1.399 . S
C3135 C3140 1.399 . S
C3136 C3135 1.399 . S
C3136 C3137 1.376 . S
C3137 H3124 0.930 1_556 S
C3137 C3136 1.376 . S
C3137 C3138 1.388 . S
C3138 H3125 0.930 1_556 S
C3138 C3137 1.388 . S
C3138 C3139 1.390 . S
C3139 C3138 1.390 . S
C3139 C3140 1.394 . S
C3139 C3145 1.465 . S
C3140 C3135 1.399 . S
C3140 C3139 1.394 . S
C3140 C3141 1.516 . S
C3141 C3140 1.516 . S
C3141 C3142 1.502 . S
C3141 C3143 1.561 . S
C3141 C3144 1.526 . S
C3142 H3126 0.959 . S
C3142 H3127 0.959 . S
C3142 H3128 0.961 . S
C3142 C3141 1.502 . S
C3143 H3129 0.960 . S
C3143 H3130 0.961 . S
C3143 H3131 0.959 . S
C3143 C3141 1.561 . S
C3144 C3141 1.526 . S
C3144 C3145 1.396 . S
C3144 C3149 1.390 . S
C3145 C3139 1.465 . S
C3145 C3144 1.396 . S
C3145 C3146 1.399 . S
C3146 H3132 0.929 . S
C3146 C3145 1.399 . S
C3146 C3147 1.385 . S
C3147 H3133 0.931 . S
C3147 C3146 1.385 . S
C3147 C3148 1.389 . S
C3148 C3147 1.389 . S
C3148 C3149 1.387 . S
C3149 H3134 0.930 . S
C3149 C3144 1.390 . S
C3149 C3148 1.387 . S
H3150 C3162 0.930 . S
H3151 C3164 0.930 . S
H3152 C3165 0.918 1_554 S
H3153 C3169 0.959 . S
H3154 C3169 0.959 . S
H3155 C3169 0.961 . S
H3156 C3170 0.960 . S
H3157 C3170 0.961 . S
H3158 C3170 0.959 . S
H3159 C3173 0.929 . S
H3160 C3174 0.931 . S
H3161 C3176 0.930 . S
C3162 H3150 0.930 . S
C3162 C3163 1.399 . S
C3162 C3167 1.399 . S
C3163 C3162 1.399 . S
C3163 C3164 1.376 1_556 S
C3164 H3151 0.930 . S
C3164 C3163 1.376 1_554 S
C3164 C3165 1.386 1_554 S
C3165 H3152 0.918 1_556 S
C3165 C3164 1.386 1_556 S
C3165 C3166 1.405 . S
C3166 C3165 1.405 . S
C3166 C3167 1.394 . S
C3166 C3172 1.465 . S
C3167 C3162 1.399 . S
C3167 C3166 1.394 . S
C3167 C3168 1.516 . S
C3168 C3167 1.516 . S
C3168 C3169 1.502 . S
C3168 C3170 1.561 . S
C3168 C3171 1.526 . S
C3169 H3153 0.959 . S
C3169 H3154 0.959 . S
C3169 H3155 0.961 . S
C3169 C3168 1.502 . S
C3170 H3156 0.960 . S
C3170 H3157 0.961 . S
C3170 H3158 0.959 . S
C3170 C3168 1.561 . S
C3171 C3168 1.526 . S
C3171 C3172 1.396 . S
C3171 C3176 1.390 . S
C3172 C3166 1.465 . S
C3172 C3171 1.396 . S
C3172 C3173 1.399 . S
C3173 H3159 0.929 . S
C3173 C3172 1.399 . S
C3173 C3174 1.385 . S
C3174 H3160 0.931 . S
C3174 C3173 1.385 . S
C3174 C3175 1.389 . S
C3175 C3174 1.389 . S
C3175 C3176 1.387 . S
C3176 H3161 0.930 . S
C3176 C3171 1.390 . S
C3176 C3175 1.387 . S
H3177 C3189 0.930 . S
H3178 C3191 0.930 . S
H3179 C3192 0.930 . S
H3180 C3196 0.959 . S
H3181 C3196 0.959 . S
H3182 C3196 0.961 . S
H3183 C3197 0.976 . S
H3184 C3197 0.961 . S
H3185 C3197 0.959 . S
H3186 C3200 0.929 . S
H3187 C3201 0.931 . S
H3188 C3203 0.930 . S
C3189 H3177 0.930 . S
C3189 C3190 1.399 . S
C3189 C3194 1.399 . S
C3190 C3189 1.399 . S
C3190 C3191 1.376 . S
C3191 H3178 0.930 . S
C3191 C3190 1.376 . S
C3191 C3192 1.388 . S
C3192 H3179 0.930 . S
C3192 C3191 1.388 . S
C3192 C3193 1.390 . S
C3193 C3192 1.390 . S
C3193 C3194 1.394 . S
C3193 C3199 1.465 . S
C3194 C3189 1.399 . S
C3194 C3193 1.394 . S
C3194 C3195 1.516 . S
C3195 C3194 1.516 . S
C3195 C3196 1.502 . S
C3195 C3197 1.561 . S
C3195 C3198 1.526 . S
C3196 H3180 0.959 . S
C3196 H3181 0.959 . S
C3196 H3182 0.961 . S
C3196 C3195 1.502 . S
C3197 H3183 0.976 . S
C3197 H3184 0.961 . S
C3197 H3185 0.959 . S
C3197 C3195 1.561 . S
C3198 C3195 1.526 . S
C3198 C3199 1.396 . S
C3198 C3203 1.390 . S
C3199 C3193 1.465 . S
C3199 C3198 1.396 . S
C3199 C3200 1.399 . S
C3200 H3186 0.929 . S
C3200 C3199 1.399 . S
C3200 C3201 1.385 . S
C3201 H3187 0.931 . S
C3201 C3200 1.385 . S
C3201 C3202 1.389 . S
C3202 C3201 1.389 . S
C3202 C3203 1.387 . S
C3203 H3188 0.930 . S
C3203 C3198 1.390 . S
C3203 C3202 1.387 . S
H3204 C3216 0.930 . S
H3205 C3218 0.930 . S
H3206 C3219 0.930 . S
H3207 C3223 0.959 . S
H3208 C3223 0.959 . S
H3209 C3223 0.961 . S
H3210 C3224 0.960 . S
H3211 C3224 0.961 . S
H3212 C3224 0.959 . S
H3213 C3227 0.929 . S
H3214 C3228 0.931 . S
H3215 C3230 0.930 . S
C3216 H3204 0.930 . S
C3216 C3217 1.399 . S
C3216 C3221 1.399 . S
C3217 C3216 1.399 . S
C3217 C3218 1.376 . S
C3218 H3205 0.930 . S
C3218 C3217 1.376 . S
C3218 C3219 1.388 . S
C3219 H3206 0.930 . S
C3219 C3218 1.388 . S
C3219 C3220 1.390 . S
C3220 C3219 1.390 . S
C3220 C3221 1.394 . S
C3220 C3226 1.465 . S
C3221 C3216 1.399 . S
C3221 C3220 1.394 . S
C3221 C3222 1.516 . S
C3222 C3221 1.516 . S
C3222 C3223 1.502 . S
C3222 C3224 1.561 . S
C3222 C3225 1.526 . S
C3223 H3207 0.959 . S
C3223 H3208 0.959 . S
C3223 H3209 0.961 . S
C3223 C3222 1.502 . S
C3224 H3210 0.960 . S
C3224 H3211 0.961 . S
C3224 H3212 0.959 . S
C3224 C3222 1.561 . S
C3225 C3222 1.526 . S
C3225 C3226 1.396 . S
C3225 C3230 1.390 . S
C3226 C3220 1.465 . S
C3226 C3225 1.396 . S
C3226 C3227 1.399 . S
C3227 H3213 0.929 . S
C3227 C3226 1.399 . S
C3227 C3228 1.385 . S
C3228 H3214 0.931 . S
C3228 C3227 1.385 . S
C3228 C3229 1.389 . S
C3229 C3228 1.389 . S
C3229 C3230 1.387 . S
C3230 H3215 0.930 . S
C3230 C3225 1.390 . S
C3230 C3229 1.387 . S
H3231 C3243 0.930 . S
H3232 C3245 0.930 . S
H3233 C3246 0.930 . S
H3234 C3250 0.959 . S
H3235 C3250 0.959 . S
H3236 C3250 0.961 . S
H3237 C3251 0.960 . S
H3238 C3251 0.961 . S
H3239 C3251 0.959 . S
H3240 C3254 0.929 . S
H3241 C3255 0.931 . S
H3242 C3257 0.930 . S
C3243 H3231 0.930 . S
C3243 C3244 1.399 . S
C3243 C3248 1.399 . S
C3244 C3243 1.399 . S
C3244 C3245 1.376 . S
C3245 H3232 0.930 . S
C3245 C3244 1.376 . S
C3245 C3246 1.388 . S
C3246 H3233 0.930 . S
C3246 C3245 1.388 . S
C3246 C3247 1.390 . S
C3247 C3246 1.390 . S
C3247 C3248 1.394 . S
C3247 C3253 1.465 . S
C3248 C3243 1.399 . S
C3248 C3247 1.394 . S
C3248 C3249 1.516 . S
C3249 C3248 1.516 . S
C3249 C3250 1.502 . S
C3249 C3251 1.561 . S
C3249 C3252 1.526 . S
C3250 H3234 0.959 . S
C3250 H3235 0.959 . S
C3250 H3236 0.961 . S
C3250 C3249 1.502 . S
C3251 H3237 0.960 . S
C3251 H3238 0.961 . S
C3251 H3239 0.959 . S
C3251 C3249 1.561 . S
C3252 C3249 1.526 . S
C3252 C3253 1.396 . S
C3252 C3257 1.390 . S
C3253 C3247 1.465 . S
C3253 C3252 1.396 . S
C3253 C3254 1.399 . S
C3254 H3240 0.929 . S
C3254 C3253 1.399 . S
C3254 C3255 1.385 . S
C3255 H3241 0.931 . S
C3255 C3254 1.385 . S
C3255 C3256 1.389 . S
C3256 C3255 1.389 . S
C3256 C3257 1.387 . S
C3257 H3242 0.930 . S
C3257 C3252 1.390 . S
C3257 C3256 1.387 . S
H3258 C3270 0.930 . S
H3259 C3272 0.930 . S
H3260 C3273 0.930 . S
H3261 C3277 0.959 . S
H3262 C3277 0.959 . S
H3263 C3277 0.961 . S
H3264 C3278 0.960 . S
H3265 C3278 0.961 . S
H3266 C3278 0.959 . S
H3267 C3281 0.929 . S
H3268 C3282 0.931 . S
H3269 C3284 0.930 . S
C3270 H3258 0.930 . S
C3270 C3271 1.399 . S
C3270 C3275 1.399 . S
C3271 C3270 1.399 . S
C3271 C3272 1.376 . S
C3272 H3259 0.930 . S
C3272 C3271 1.376 . S
C3272 C3273 1.388 . S
C3273 H3260 0.930 . S
C3273 C3272 1.388 . S
C3273 C3274 1.390 . S
C3274 C3273 1.390 . S
C3274 C3275 1.394 . S
C3274 C3280 1.465 . S
C3275 C3270 1.399 . S
C3275 C3274 1.394 . S
C3275 C3276 1.516 . S
C3276 C3275 1.516 . S
C3276 C3277 1.502 . S
C3276 C3278 1.561 . S
C3276 C3279 1.526 . S
C3277 H3261 0.959 . S
C3277 H3262 0.959 . S
C3277 H3263 0.961 . S
C3277 C3276 1.502 . S
C3278 H3264 0.960 . S
C3278 H3265 0.961 . S
C3278 H3266 0.959 . S
C3278 C3276 1.561 . S
C3279 C3276 1.526 . S
C3279 C3280 1.396 . S
C3279 C3284 1.390 . S
C3280 C3274 1.465 . S
C3280 C3279 1.396 . S
C3280 C3281 1.399 . S
C3281 H3267 0.929 . S
C3281 C3280 1.399 . S
C3281 C3282 1.385 . S
C3282 H3268 0.931 . S
C3282 C3281 1.385 . S
C3282 C3283 1.389 . S
C3283 C3282 1.389 . S
C3283 C3284 1.387 . S
C3284 H3269 0.930 . S
C3284 C3279 1.390 . S
C3284 C3283 1.387 . S
H3285 C3297 0.930 . S
H3286 C3299 0.930 . S
H3287 C3300 0.930 . S
H3288 C3304 0.959 . S
H3289 C3304 0.959 . S
H3290 C3304 0.961 . S
H3291 C3305 0.960 . S
H3292 C3305 0.961 . S
H3293 C3305 0.959 . S
H3294 C3308 0.929 . S
H3295 C3309 0.931 . S
H3296 C3311 0.930 . S
C3297 H3285 0.930 . S
C3297 C3298 1.399 . S
C3297 C3302 1.399 . S
C3298 C3297 1.399 . S
C3298 C3299 1.376 . S
C3299 H3286 0.930 . S
C3299 C3298 1.376 . S
C3299 C3300 1.388 . S
C3300 H3287 0.930 . S
C3300 C3299 1.388 . S
C3300 C3301 1.390 . S
C3301 C3300 1.390 . S
C3301 C3302 1.394 . S
C3301 C3307 1.465 . S
C3302 C3297 1.399 . S
C3302 C3301 1.394 . S
C3302 C3303 1.516 . S
C3303 C3302 1.516 . S
C3303 C3304 1.502 . S
C3303 C3305 1.561 . S
C3303 C3306 1.526 . S
C3304 H3288 0.959 . S
C3304 H3289 0.959 . S
C3304 H3290 0.961 . S
C3304 C3303 1.502 . S
C3305 H3291 0.960 . S
C3305 H3292 0.961 . S
C3305 H3293 0.959 . S
C3305 C3303 1.561 . S
C3306 C3303 1.526 . S
C3306 C3307 1.396 . S
C3306 C3311 1.390 . S
C3307 C3301 1.465 . S
C3307 C3306 1.396 . S
C3307 C3308 1.399 . S
C3308 H3294 0.929 . S
C3308 C3307 1.399 . S
C3308 C3309 1.385 . S
C3309 H3295 0.931 . S
C3309 C3308 1.385 . S
C3309 C3310 1.389 . S
C3310 C3309 1.389 . S
C3310 C3311 1.387 . S
C3311 H3296 0.930 . S
C3311 C3306 1.390 . S
C3311 C3310 1.387 . S
H3312 C3324 0.930 . S
H3313 C3326 0.930 . S
H3314 C3327 0.930 . S
H3315 C3331 0.959 . S
H3316 C3331 0.959 . S
H3317 C3331 0.961 . S
H3318 C3332 0.960 . S
H3319 C3332 0.961 . S
H3320 C3332 0.959 . S
H3321 C3335 0.929 . S
H3322 C3336 0.931 . S
H3323 C3338 0.930 . S
C3324 H3312 0.930 . S
C3324 C3325 1.399 . S
C3324 C3329 1.399 . S
C3325 C3324 1.399 . S
C3325 C3326 1.376 . S
C3326 H3313 0.930 . S
C3326 C3325 1.376 . S
C3326 C3327 1.388 . S
C3327 H3314 0.930 . S
C3327 C3326 1.388 . S
C3327 C3328 1.390 . S
C3328 C3327 1.390 . S
C3328 C3329 1.394 . S
C3328 C3334 1.465 . S
C3329 C3324 1.399 . S
C3329 C3328 1.394 . S
C3329 C3330 1.516 . S
C3330 C3329 1.516 . S
C3330 C3331 1.502 . S
C3330 C3332 1.561 . S
C3330 C3333 1.526 . S
C3331 H3315 0.959 . S
C3331 H3316 0.959 . S
C3331 H3317 0.961 . S
C3331 C3330 1.502 . S
C3332 H3318 0.960 . S
C3332 H3319 0.961 . S
C3332 H3320 0.959 . S
C3332 C3330 1.561 . S
C3333 C3330 1.526 . S
C3333 C3334 1.396 . S
C3333 C3338 1.390 . S
C3334 C3328 1.465 . S
C3334 C3333 1.396 . S
C3334 C3335 1.399 . S
C3335 H3321 0.929 . S
C3335 C3334 1.399 . S
C3335 C3336 1.385 . S
C3336 H3322 0.931 . S
C3336 C3335 1.385 . S
C3336 C3337 1.389 . S
C3337 C3336 1.389 . S
C3337 C3338 1.387 . S
C3338 H3323 0.930 . S
C3338 C3333 1.390 . S
C3338 C3337 1.387 . S
H3339 C3351 0.930 . S
H3340 C3353 0.940 . S
H3341 C3354 0.930 . S
H3342 C3358 0.959 . S
H3343 C3358 0.959 . S
H3344 C3358 0.961 . S
H3345 C3359 0.960 . S
H3346 C3359 0.961 . S
H3347 C3359 0.959 . S
H3348 C3362 0.929 . S
H3349 C3363 0.931 . S
H3350 C3365 0.930 . S
C3351 H3339 0.930 . S
C3351 C3352 1.399 . S
C3351 C3356 1.399 . S
C3352 C3351 1.399 . S
C3352 C3353 1.313 1_455 S
C3353 H3340 0.940 . S
C3353 C3352 1.313 1_655 S
C3353 C3354 1.449 . S
C3354 H3341 0.930 . S
C3354 C3353 1.449 . S
C3354 C3355 1.390 1_655 S
C3355 C3354 1.390 1_455 S
C3355 C3356 1.394 . S
C3355 C3361 1.465 . S
C3356 C3351 1.399 . S
C3356 C3355 1.394 . S
C3356 C3357 1.516 . S
C3357 C3356 1.516 . S
C3357 C3358 1.502 . S
C3357 C3359 1.561 . S
C3357 C3360 1.526 . S
C3358 H3342 0.959 . S
C3358 H3343 0.959 . S
C3358 H3344 0.961 . S
C3358 C3357 1.502 . S
C3359 H3345 0.960 . S
C3359 H3346 0.961 . S
C3359 H3347 0.959 . S
C3359 C3357 1.561 . S
C3360 C3357 1.526 . S
C3360 C3361 1.396 . S
C3360 C3365 1.390 . S
C3361 C3355 1.465 . S
C3361 C3360 1.396 . S
C3361 C3362 1.399 1_455 S
C3362 H3348 0.929 . S
C3362 C3361 1.399 1_655 S
C3362 C3363 1.385 . S
C3363 H3349 0.931 . S
C3363 C3362 1.385 . S
C3363 C3364 1.389 1_655 S
C3364 C3363 1.389 1_455 S
C3364 C3365 1.387 . S
C3365 H3350 0.930 . S
C3365 C3360 1.390 . S
C3365 C3364 1.387 . S
H3366 C3378 0.930 . S
H3367 C3380 0.930 . S
H3368 C3381 0.930 . S
H3369 C3385 0.959 . S
H3370 C3385 0.959 . S
H3371 C3385 0.961 . S
H3372 C3386 0.960 . S
H3373 C3386 0.961 . S
H3374 C3386 0.959 . S
H3375 C3389 0.929 . S
H3376 C3390 0.931 . S
H3377 C3392 0.930 . S
C3378 H3366 0.930 . S
C3378 C3379 1.399 . S
C3378 C3383 1.399 . S
C3379 C3378 1.399 . S
C3379 C3380 1.376 . S
C3380 H3367 0.930 . S
C3380 C3379 1.376 . S
C3380 C3381 1.388 . S
C3381 H3368 0.930 . S
C3381 C3380 1.388 . S
C3381 C3382 1.390 . S
C3382 C3381 1.390 . S
C3382 C3383 1.394 . S
C3382 C3388 1.465 . S
C3383 C3378 1.399 . S
C3383 C3382 1.394 . S
C3383 C3384 1.516 . S
C3384 C3383 1.516 . S
C3384 C3385 1.502 . S
C3384 C3386 1.561 . S
C3384 C3387 1.526 . S
C3385 H3369 0.959 . S
C3385 H3370 0.959 . S
C3385 H3371 0.961 . S
C3385 C3384 1.502 . S
C3386 H3372 0.960 . S
C3386 H3373 0.961 . S
C3386 H3374 0.959 . S
C3386 C3384 1.561 . S
C3387 C3384 1.526 . S
C3387 C3388 1.396 . S
C3387 C3392 1.390 . S
C3388 C3382 1.465 . S
C3388 C3387 1.396 . S
C3388 C3389 1.399 . S
C3389 H3375 0.929 . S
C3389 C3388 1.399 . S
C3389 C3390 1.385 . S
C3390 H3376 0.931 . S
C3390 C3389 1.385 . S
C3390 C3391 1.389 . S
C3391 C3390 1.389 . S
C3391 C3392 1.387 . S
C3392 H3377 0.930 . S
C3392 C3387 1.390 . S
C3392 C3391 1.387 . S
H3393 C3405 0.930 1_545 S
H3394 C3407 0.930 . S
H3395 C3408 0.930 . S
H3396 C3412 0.959 . S
H3397 C3412 0.959 . S
H3398 C3412 0.961 . S
H3399 C3413 0.960 . S
H3400 C3413 0.961 . S
H3401 C3413 0.959 1_565 S
H3402 C3416 0.929 . S
H3403 C3417 0.931 . S
H3404 C3419 0.930 . S
C3405 H3393 0.930 1_565 S
C3405 C3406 1.399 . S
C3405 C3410 1.399 . S
C3406 C3405 1.399 . S
C3406 C3407 1.376 . S
C3407 H3394 0.930 . S
C3407 C3406 1.376 . S
C3407 C3408 1.388 . S
C3408 H3395 0.930 . S
C3408 C3407 1.388 . S
C3408 C3409 1.390 . S
C3409 C3408 1.390 . S
C3409 C3410 1.394 . S
C3409 C3415 1.465 . S
C3410 C3405 1.399 . S
C3410 C3409 1.394 . S
C3410 C3411 1.516 1_565 S
C3411 C3410 1.516 1_545 S
C3411 C3412 1.502 . S
C3411 C3413 1.561 . S
C3411 C3414 1.526 1_545 S
C3412 H3396 0.959 . S
C3412 H3397 0.959 . S
C3412 H3398 0.961 . S
C3412 C3411 1.502 . S
C3413 H3399 0.960 . S
C3413 H3400 0.961 . S
C3413 H3401 0.959 1_545 S
C3413 C3411 1.561 . S
C3414 C3411 1.526 1_565 S
C3414 C3415 1.396 . S
C3414 C3419 1.390 1_565 S
C3415 C3409 1.465 . S
C3415 C3414 1.396 . S
C3415 C3416 1.399 . S
C3416 H3402 0.929 . S
C3416 C3415 1.399 . S
C3416 C3417 1.385 . S
C3417 H3403 0.931 . S
C3417 C3416 1.385 . S
C3417 C3418 1.389 . S
C3418 C3417 1.389 . S
C3418 C3419 1.387 1_565 S
C3419 H3404 0.930 . S
C3419 C3414 1.390 1_545 S
C3419 C3418 1.387 1_545 S
H3420 C3432 0.930 1_545 S
H3421 C3434 0.930 . S
H3422 C3435 0.930 . S
H3423 C3439 0.959 1_565 S
H3424 C3439 0.959 . S
H3425 C3439 0.961 . S
H3426 C3440 0.960 . S
H3427 C3440 0.961 . S
H3428 C3440 0.959 . S
H3429 C3443 0.929 . S
H3430 C3444 0.931 . S
H3431 C3446 0.930 . S
C3432 H3420 0.930 1_565 S
C3432 C3433 1.399 . S
C3432 C3437 1.399 . S
C3433 C3432 1.399 . S
C3433 C3434 1.376 . S
C3434 H3421 0.930 . S
C3434 C3433 1.376 . S
C3434 C3435 1.388 . S
C3435 H3422 0.930 . S
C3435 C3434 1.388 . S
C3435 C3436 1.390 . S
C3436 C3435 1.390 . S
C3436 C3437 1.394 . S
C3436 C3442 1.465 . S
C3437 C3432 1.399 . S
C3437 C3436 1.394 . S
C3437 C3438 1.516 1_565 S
C3438 C3437 1.516 1_545 S
C3438 C3439 1.502 . S
C3438 C3440 1.561 . S
C3438 C3441 1.525 . S
C3439 H3423 0.959 1_545 S
C3439 H3424 0.959 . S
C3439 H3425 0.961 . S
C3439 C3438 1.502 . S
C3440 H3426 0.960 . S
C3440 H3427 0.961 . S
C3440 H3428 0.959 . S
C3440 C3438 1.561 . S
C3441 C3438 1.525 . S
C3441 C3442 1.370 1_545 S
C3441 C3446 1.412 . S
C3442 C3436 1.465 . S
C3442 C3441 1.370 1_565 S
C3442 C3443 1.399 . S
C3443 H3429 0.929 . S
C3443 C3442 1.399 . S
C3443 C3444 1.385 . S
C3444 H3430 0.931 . S
C3444 C3443 1.385 . S
C3444 C3445 1.389 . S
C3445 C3444 1.389 . S
C3445 C3446 1.387 1_565 S
C3446 H3431 0.930 . S
C3446 C3441 1.412 . S
C3446 C3445 1.387 1_545 S
H3447 C3459 0.930 . S
H3448 C3461 0.930 . S
H3449 C3462 0.930 . S
H3450 C3466 0.959 . S
H3451 C3466 0.959 . S
H3452 C3466 0.961 . S
H3453 C3467 0.960 . S
H3454 C3467 0.961 . S
H3455 C3467 0.959 . S
H3456 C3470 0.929 . S
H3457 C3471 0.931 . S
H3458 C3473 0.943 1_655 S
C3459 H3447 0.930 . S
C3459 C3460 1.399 . S
C3459 C3464 1.399 . S
C3460 C3459 1.399 . S
C3460 C3461 1.376 . S
C3461 H3448 0.930 . S
C3461 C3460 1.376 . S
C3461 C3462 1.388 . S
C3462 H3449 0.930 . S
C3462 C3461 1.388 . S
C3462 C3463 1.390 . S
C3463 C3462 1.390 . S
C3463 C3464 1.394 . S
C3463 C3469 1.465 . S
C3464 C3459 1.399 . S
C3464 C3463 1.394 . S
C3464 C3465 1.516 . S
C3465 C3464 1.516 . S
C3465 C3466 1.502 . S
C3465 C3467 1.561 1_455 S
C3465 C3468 1.526 . S
C3466 H3450 0.959 . S
C3466 H3451 0.959 . S
C3466 H3452 0.961 . S
C3466 C3465 1.502 . S
C3467 H3453 0.960 . S
C3467 H3454 0.961 . S
C3467 H3455 0.959 . S
C3467 C3465 1.561 1_655 S
C3468 C3465 1.526 . S
C3468 C3469 1.396 . S
C3468 C3473 1.366 . S
C3469 C3463 1.465 . S
C3469 C3468 1.396 . S
C3469 C3470 1.399 . S
C3470 H3456 0.929 . S
C3470 C3469 1.399 . S
C3470 C3471 1.385 . S
C3471 H3457 0.931 . S
C3471 C3470 1.385 . S
C3471 C3472 1.389 . S
C3472 C3471 1.389 . S
C3472 C3473 1.403 . S
C3473 H3458 0.943 1_455 S
C3473 C3468 1.366 . S
C3473 C3472 1.403 . S
H3474 C3486 0.930 . S
H3475 C3488 0.930 . S
H3476 C3489 0.930 . S
H3477 C3493 0.959 . S
H3478 C3493 0.959 . S
H3479 C3493 0.961 . S
H3480 C3494 0.960 . S
H3481 C3494 0.961 . S
H3482 C3494 0.959 . S
H3483 C3497 0.929 . S
H3484 C3498 0.931 . S
H3485 C3500 0.930 . S
C3486 H3474 0.930 . S
C3486 C3487 1.399 . S
C3486 C3491 1.399 . S
C3487 C3486 1.399 . S
C3487 C3488 1.376 . S
C3488 H3475 0.930 . S
C3488 C3487 1.376 . S
C3488 C3489 1.388 . S
C3489 H3476 0.930 . S
C3489 C3488 1.388 . S
C3489 C3490 1.390 . S
C3490 C3489 1.390 . S
C3490 C3491 1.394 . S
C3490 C3496 1.465 . S
C3491 C3486 1.399 . S
C3491 C3490 1.394 . S
C3491 C3492 1.516 . S
C3492 C3491 1.516 . S
C3492 C3493 1.502 . S
C3492 C3494 1.561 . S
C3492 C3495 1.526 . S
C3493 H3477 0.959 . S
C3493 H3478 0.959 . S
C3493 H3479 0.961 . S
C3493 C3492 1.502 . S
C3494 H3480 0.960 . S
C3494 H3481 0.961 . S
C3494 H3482 0.959 . S
C3494 C3492 1.561 . S
C3495 C3492 1.526 . S
C3495 C3496 1.396 . S
C3495 C3500 1.390 . S
C3496 C3490 1.465 . S
C3496 C3495 1.396 . S
C3496 C3497 1.399 . S
C3497 H3483 0.929 . S
C3497 C3496 1.399 . S
C3497 C3498 1.385 . S
C3498 H3484 0.931 . S
C3498 C3497 1.385 . S
C3498 C3499 1.389 . S
C3499 C3498 1.389 . S
C3499 C3500 1.387 . S
C3500 H3485 0.930 . S
C3500 C3495 1.390 . S
C3500 C3499 1.387 . S
H3501 C3513 0.930 . S
H3502 C3515 0.930 . S
H3503 C3516 0.930 . S
H3504 C3520 0.959 . S
H3505 C3520 0.959 . S
H3506 C3520 0.961 . S
H3507 C3521 0.960 . S
H3508 C3521 0.961 . S
H3509 C3521 0.959 . S
H3510 C3524 0.929 . S
H3511 C3525 0.931 . S
H3512 C3527 0.930 . S
C3513 H3501 0.930 . S
C3513 C3514 1.399 . S
C3513 C3518 1.399 . S
C3514 C3513 1.399 . S
C3514 C3515 1.376 . S
C3515 H3502 0.930 . S
C3515 C3514 1.376 . S
C3515 C3516 1.388 . S
C3516 H3503 0.930 . S
C3516 C3515 1.388 . S
C3516 C3517 1.390 . S
C3517 C3516 1.390 . S
C3517 C3518 1.394 . S
C3517 C3523 1.465 . S
C3518 C3513 1.399 . S
C3518 C3517 1.394 . S
C3518 C3519 1.516 . S
C3519 C3518 1.516 . S
C3519 C3520 1.502 . S
C3519 C3521 1.561 . S
C3519 C3522 1.526 . S
C3520 H3504 0.959 . S
C3520 H3505 0.959 . S
C3520 H3506 0.961 . S
C3520 C3519 1.502 . S
C3521 H3507 0.960 . S
C3521 H3508 0.961 . S
C3521 H3509 0.959 . S
C3521 C3519 1.561 . S
C3522 C3519 1.526 . S
C3522 C3523 1.396 . S
C3522 C3527 1.390 . S
C3523 C3517 1.465 . S
C3523 C3522 1.396 . S
C3523 C3524 1.399 . S
C3524 H3510 0.929 . S
C3524 C3523 1.399 . S
C3524 C3525 1.385 . S
C3525 H3511 0.931 . S
C3525 C3524 1.385 . S
C3525 C3526 1.389 . S
C3526 C3525 1.389 . S
C3526 C3527 1.387 . S
C3527 H3512 0.930 . S
C3527 C3522 1.390 . S
C3527 C3526 1.387 . S
H3528 C3540 0.930 . S
H3529 C3542 0.930 . S
H3530 C3543 0.930 . S
H3531 C3547 0.959 . S
H3532 C3547 0.959 . S
H3533 C3547 0.961 . S
H3534 C3548 0.960 . S
H3535 C3548 0.961 . S
H3536 C3548 0.959 . S
H3537 C3551 0.929 . S
H3538 C3552 0.931 . S
H3539 C3554 0.930 . S
C3540 H3528 0.930 . S
C3540 C3541 1.399 . S
C3540 C3545 1.399 . S
C3541 C3540 1.399 . S
C3541 C3542 1.376 . S
C3542 H3529 0.930 . S
C3542 C3541 1.376 . S
C3542 C3543 1.388 . S
C3543 H3530 0.930 . S
C3543 C3542 1.388 . S
C3543 C3544 1.390 . S
C3544 C3543 1.390 . S
C3544 C3545 1.394 . S
C3544 C3550 1.465 . S
C3545 C3540 1.399 . S
C3545 C3544 1.394 . S
C3545 C3546 1.516 . S
C3546 C3545 1.516 . S
C3546 C3547 1.502 . S
C3546 C3548 1.561 . S
C3546 C3549 1.526 . S
C3547 H3531 0.959 . S
C3547 H3532 0.959 . S
C3547 H3533 0.961 . S
C3547 C3546 1.502 . S
C3548 H3534 0.960 . S
C3548 H3535 0.961 . S
C3548 H3536 0.959 . S
C3548 C3546 1.561 . S
C3549 C3546 1.526 . S
C3549 C3550 1.396 . S
C3549 C3554 1.390 . S
C3550 C3544 1.465 . S
C3550 C3549 1.396 . S
C3550 C3551 1.399 . S
C3551 H3537 0.929 . S
C3551 C3550 1.399 . S
C3551 C3552 1.385 . S
C3552 H3538 0.931 . S
C3552 C3551 1.385 . S
C3552 C3553 1.389 . S
C3553 C3552 1.389 . S
C3553 C3554 1.387 . S
C3554 H3539 0.930 . S
C3554 C3549 1.390 . S
C3554 C3553 1.387 . S
H3555 C3567 0.930 . S
H3556 C3569 0.930 . S
H3557 C3570 0.930 . S
H3558 C3574 0.959 . S
H3559 C3574 0.959 . S
H3560 C3574 0.961 . S
H3561 C3575 0.960 . S
H3562 C3575 0.961 . S
H3563 C3575 0.959 . S
H3564 C3578 0.929 . S
H3565 C3579 0.931 . S
H3566 C3581 0.930 . S
C3567 H3555 0.930 . S
C3567 C3568 1.399 . S
C3567 C3572 1.399 . S
C3568 C3567 1.399 . S
C3568 C3569 1.376 . S
C3569 H3556 0.930 . S
C3569 C3568 1.376 . S
C3569 C3570 1.388 . S
C3570 H3557 0.930 . S
C3570 C3569 1.388 . S
C3570 C3571 1.390 . S
C3571 C3570 1.390 . S
C3571 C3572 1.394 . S
C3571 C3577 1.465 . S
C3572 C3567 1.399 . S
C3572 C3571 1.394 . S
C3572 C3573 1.516 . S
C3573 C3572 1.516 . S
C3573 C3574 1.502 . S
C3573 C3575 1.561 . S
C3573 C3576 1.526 . S
C3574 H3558 0.959 . S
C3574 H3559 0.959 . S
C3574 H3560 0.961 . S
C3574 C3573 1.502 . S
C3575 H3561 0.960 . S
C3575 H3562 0.961 . S
C3575 H3563 0.959 . S
C3575 C3573 1.561 . S
C3576 C3573 1.526 . S
C3576 C3577 1.396 . S
C3576 C3581 1.390 . S
C3577 C3571 1.465 . S
C3577 C3576 1.396 . S
C3577 C3578 1.399 . S
C3578 H3564 0.929 . S
C3578 C3577 1.399 . S
C3578 C3579 1.385 . S
C3579 H3565 0.931 . S
C3579 C3578 1.385 . S
C3579 C3580 1.389 . S
C3580 C3579 1.389 . S
C3580 C3581 1.387 . S
C3581 H3566 0.930 . S
C3581 C3576 1.390 . S
C3581 C3580 1.387 . S
H3582 C3594 0.930 1_565 S
H3583 C3596 0.930 . S
H3584 C3597 0.930 . S
H3585 C3601 0.959 . S
H3586 C3601 0.959 . S
H3587 C3601 0.961 . S
H3588 C3602 0.960 . S
H3589 C3602 0.961 . S
H3590 C3602 0.959 . S
H3591 C3605 0.929 . S
H3592 C3606 0.931 . S
H3593 C3608 0.930 . S
C3594 H3582 0.930 1_545 S
C3594 C3595 1.399 . S
C3594 C3599 1.399 . S
C3595 C3594 1.399 . S
C3595 C3596 1.376 . S
C3596 H3583 0.930 . S
C3596 C3595 1.376 . S
C3596 C3597 1.388 . S
C3597 H3584 0.930 . S
C3597 C3596 1.388 . S
C3597 C3598 1.390 . S
C3598 C3597 1.390 . S
C3598 C3599 1.394 . S
C3598 C3604 1.465 . S
C3599 C3594 1.399 . S
C3599 C3598 1.394 . S
C3599 C3600 1.516 1_545 S
C3600 C3599 1.516 1_565 S
C3600 C3601 1.502 . S
C3600 C3602 1.561 . S
C3600 C3603 1.528 . S
C3601 H3585 0.959 . S
C3601 H3586 0.959 . S
C3601 H3587 0.961 . S
C3601 C3600 1.502 . S
C3602 H3588 0.960 . S
C3602 H3589 0.961 . S
C3602 H3590 0.959 . S
C3602 C3600 1.561 . S
C3603 C3600 1.528 . S
C3603 C3604 1.367 1_565 S
C3603 C3608 1.412 . S
C3604 C3598 1.465 . S
C3604 C3603 1.367 1_545 S
C3604 C3605 1.399 . S
C3605 H3591 0.929 . S
C3605 C3604 1.399 . S
C3605 C3606 1.385 . S
C3606 H3592 0.931 . S
C3606 C3605 1.385 . S
C3606 C3607 1.389 . S
C3607 C3606 1.389 . S
C3607 C3608 1.387 1_545 S
C3608 H3593 0.930 . S
C3608 C3603 1.412 . S
C3608 C3607 1.387 1_565 S
H3609 C3621 0.930 . S
H3610 C3623 0.930 . S
H3611 C3624 0.930 . S
H3612 C3628 0.959 . S
H3613 C3628 0.959 . S
H3614 C3628 0.961 . S
H3615 C3629 0.960 . S
H3616 C3629 0.961 . S
H3617 C3629 0.959 . S
H3618 C3632 0.924 1_455 S
H3619 C3633 0.933 1_455 S
H3620 C3635 0.930 . S
C3621 H3609 0.930 . S
C3621 C3622 1.399 . S
C3621 C3626 1.399 . S
C3622 C3621 1.399 . S
C3622 C3623 1.376 . S
C3623 H3610 0.930 . S
C3623 C3622 1.376 . S
C3623 C3624 1.388 . S
C3624 H3611 0.930 . S
C3624 C3623 1.388 . S
C3624 C3625 1.390 . S
C3625 C3624 1.390 . S
C3625 C3626 1.394 . S
C3625 C3631 1.465 . S
C3626 C3621 1.399 . S
C3626 C3625 1.394 . S
C3626 C3627 1.516 . S
C3627 C3626 1.516 . S
C3627 C3628 1.502 . S
C3627 C3629 1.561 1_655 S
C3627 C3630 1.526 . S
C3628 H3612 0.959 . S
C3628 H3613 0.959 . S
C3628 H3614 0.961 . S
C3628 C3627 1.502 . S
C3629 H3615 0.960 . S
C3629 H3616 0.961 . S
C3629 H3617 0.959 . S
C3629 C3627 1.561 1_455 S
C3630 C3627 1.526 . S
C3630 C3631 1.396 . S
C3630 C3635 1.390 . S
C3631 C3625 1.465 . S
C3631 C3630 1.396 . S
C3631 C3632 1.391 . S
C3632 H3618 0.924 1_655 S
C3632 C3631 1.391 . S
C3632 C3633 1.396 . S
C3633 H3619 0.933 1_655 S
C3633 C3632 1.396 . S
C3633 C3634 1.391 . S
C3634 C3633 1.391 . S
C3634 C3635 1.387 . S
C3635 H3620 0.930 . S
C3635 C3630 1.390 . S
C3635 C3634 1.387 . S
H3636 C3648 0.930 . S
H3637 C3650 0.930 . S
H3638 C3651 0.930 . S
H3639 C3655 0.959 . S
H3640 C3655 0.959 . S
H3641 C3655 0.961 . S
H3642 C3656 0.960 . S
H3643 C3656 0.961 . S
H3644 C3656 0.959 . S
H3645 C3659 0.929 . S
H3646 C3660 0.931 . S
H3647 C3662 0.930 . S
C3648 H3636 0.930 . S
C3648 C3649 1.399 . S
C3648 C3653 1.399 . S
C3649 C3648 1.399 . S
C3649 C3650 1.376 . S
C3650 H3637 0.930 . S
C3650 C3649 1.376 . S
C3650 C3651 1.388 . S
C3651 H3638 0.930 . S
C3651 C3650 1.388 . S
C3651 C3652 1.390 . S
C3652 C3651 1.390 . S
C3652 C3653 1.394 . S
C3652 C3658 1.465 . S
C3653 C3648 1.399 . S
C3653 C3652 1.394 . S
C3653 C3654 1.516 . S
C3654 C3653 1.516 . S
C3654 C3655 1.502 . S
C3654 C3656 1.561 . S
C3654 C3657 1.526 . S
C3655 H3639 0.959 . S
C3655 H3640 0.959 . S
C3655 H3641 0.961 . S
C3655 C3654 1.502 . S
C3656 H3642 0.960 . S
C3656 H3643 0.961 . S
C3656 H3644 0.959 . S
C3656 C3654 1.561 . S
C3657 C3654 1.526 . S
C3657 C3658 1.396 . S
C3657 C3662 1.390 . S
C3658 C3652 1.465 . S
C3658 C3657 1.396 . S
C3658 C3659 1.399 . S
C3659 H3645 0.929 . S
C3659 C3658 1.399 . S
C3659 C3660 1.385 . S
C3660 H3646 0.931 . S
C3660 C3659 1.385 . S
C3660 C3661 1.389 . S
C3661 C3660 1.389 . S
C3661 C3662 1.387 . S
C3662 H3647 0.930 . S
C3662 C3657 1.390 . S
C3662 C3661 1.387 . S
H3663 C3675 0.930 . S
H3664 C3677 0.930 . S
H3665 C3678 0.930 . S
H3666 C3682 0.959 . S
H3667 C3682 0.959 . S
H3668 C3682 0.961 . S
H3669 C3683 0.960 . S
H3670 C3683 0.961 . S
H3671 C3683 0.959 . S
H3672 C3686 0.929 . S
H3673 C3687 0.931 . S
H3674 C3689 0.930 . S
C3675 H3663 0.930 . S
C3675 C3676 1.399 . S
C3675 C3680 1.399 . S
C3676 C3675 1.399 . S
C3676 C3677 1.376 . S
C3677 H3664 0.930 . S
C3677 C3676 1.376 . S
C3677 C3678 1.388 . S
C3678 H3665 0.930 . S
C3678 C3677 1.388 . S
C3678 C3679 1.390 . S
C3679 C3678 1.390 . S
C3679 C3680 1.394 . S
C3679 C3685 1.465 . S
C3680 C3675 1.399 . S
C3680 C3679 1.394 . S
C3680 C3681 1.516 . S
C3681 C3680 1.516 . S
C3681 C3682 1.502 . S
C3681 C3683 1.561 . S
C3681 C3684 1.526 . S
C3682 H3666 0.959 . S
C3682 H3667 0.959 . S
C3682 H3668 0.961 . S
C3682 C3681 1.502 . S
C3683 H3669 0.960 . S
C3683 H3670 0.961 . S
C3683 H3671 0.959 . S
C3683 C3681 1.561 . S
C3684 C3681 1.526 . S
C3684 C3685 1.396 . S
C3684 C3689 1.390 . S
C3685 C3679 1.465 . S
C3685 C3684 1.396 . S
C3685 C3686 1.399 . S
C3686 H3672 0.929 . S
C3686 C3685 1.399 . S
C3686 C3687 1.385 . S
C3687 H3673 0.931 . S
C3687 C3686 1.385 . S
C3687 C3688 1.389 . S
C3688 C3687 1.389 . S
C3688 C3689 1.387 . S
C3689 H3674 0.930 . S
C3689 C3684 1.390 . S
C3689 C3688 1.387 . S
H3690 C3702 0.930 . S
H3691 C3704 0.930 . S
H3692 C3705 0.930 . S
H3693 C3709 0.959 . S
H3694 C3709 0.959 . S
H3695 C3709 0.961 . S
H3696 C3710 0.960 . S
H3697 C3710 0.961 . S
H3698 C3710 0.959 . S
H3699 C3713 0.929 . S
H3700 C3714 0.931 . S
H3701 C3716 0.930 . S
C3702 H3690 0.930 . S
C3702 C3703 1.399 . S
C3702 C3707 1.399 . S
C3703 C3702 1.399 . S
C3703 C3704 1.376 . S
C3704 H3691 0.930 . S
C3704 C3703 1.376 . S
C3704 C3705 1.388 . S
C3705 H3692 0.930 . S
C3705 C3704 1.388 . S
C3705 C3706 1.390 . S
C3706 C3705 1.390 . S
C3706 C3707 1.394 . S
C3706 C3712 1.465 . S
C3707 C3702 1.399 . S
C3707 C3706 1.394 . S
C3707 C3708 1.516 . S
C3708 C3707 1.516 . S
C3708 C3709 1.502 . S
C3708 C3710 1.561 . S
C3708 C3711 1.526 . S
C3709 H3693 0.959 . S
C3709 H3694 0.959 . S
C3709 H3695 0.961 . S
C3709 C3708 1.502 . S
C3710 H3696 0.960 . S
C3710 H3697 0.961 . S
C3710 H3698 0.959 . S
C3710 C3708 1.561 . S
C3711 C3708 1.526 . S
C3711 C3712 1.396 . S
C3711 C3716 1.390 . S
C3712 C3706 1.465 . S
C3712 C3711 1.396 . S
C3712 C3713 1.399 . S
C3713 H3699 0.929 . S
C3713 C3712 1.399 . S
C3713 C3714 1.385 . S
C3714 H3700 0.931 . S
C3714 C3713 1.385 . S
C3714 C3715 1.389 . S
C3715 C3714 1.389 . S
C3715 C3716 1.387 . S
C3716 H3701 0.930 . S
C3716 C3711 1.390 . S
C3716 C3715 1.387 . S
H3717 C3729 0.930 . S
H3718 C3731 0.930 . S
H3719 C3732 0.930 . S
H3720 C3736 0.959 . S
H3721 C3736 0.959 . S
H3722 C3736 0.961 . S
H3723 C3737 0.960 . S
H3724 C3737 0.961 . S
H3725 C3737 0.959 . S
H3726 C3740 0.929 . S
H3727 C3741 0.931 . S
H3728 C3743 0.930 . S
C3729 H3717 0.930 . S
C3729 C3730 1.399 . S
C3729 C3734 1.399 . S
C3730 C3729 1.399 . S
C3730 C3731 1.376 . S
C3731 H3718 0.930 . S
C3731 C3730 1.376 . S
C3731 C3732 1.388 . S
C3732 H3719 0.930 . S
C3732 C3731 1.388 . S
C3732 C3733 1.390 . S
C3733 C3732 1.390 . S
C3733 C3734 1.394 . S
C3733 C3739 1.465 . S
C3734 C3729 1.399 . S
C3734 C3733 1.394 . S
C3734 C3735 1.516 . S
C3735 C3734 1.516 . S
C3735 C3736 1.502 . S
C3735 C3737 1.561 . S
C3735 C3738 1.526 . S
C3736 H3720 0.959 . S
C3736 H3721 0.959 . S
C3736 H3722 0.961 . S
C3736 C3735 1.502 . S
C3737 H3723 0.960 . S
C3737 H3724 0.961 . S
C3737 H3725 0.959 . S
C3737 C3735 1.561 . S
C3738 C3735 1.526 . S
C3738 C3739 1.396 . S
C3738 C3743 1.390 . S
C3739 C3733 1.465 . S
C3739 C3738 1.396 . S
C3739 C3740 1.399 . S
C3740 H3726 0.929 . S
C3740 C3739 1.399 . S
C3740 C3741 1.385 . S
C3741 H3727 0.931 . S
C3741 C3740 1.385 . S
C3741 C3742 1.389 . S
C3742 C3741 1.389 . S
C3742 C3743 1.387 . S
C3743 H3728 0.930 . S
C3743 C3738 1.390 . S
C3743 C3742 1.387 . S
H3744 C3756 0.930 . S
H3745 C3758 0.930 . S
H3746 C3759 0.930 . S
H3747 C3763 0.959 . S
H3748 C3763 0.959 . S
H3749 C3763 0.961 . S
H3750 C3764 0.960 . S
H3751 C3764 0.961 . S
H3752 C3764 0.959 . S
H3753 C3767 0.929 . S
H3754 C3768 0.931 . S
H3755 C3770 0.930 . S
C3756 H3744 0.930 . S
C3756 C3757 1.399 . S
C3756 C3761 1.399 . S
C3757 C3756 1.399 . S
C3757 C3758 1.376 . S
C3758 H3745 0.930 . S
C3758 C3757 1.376 . S
C3758 C3759 1.388 . S
C3759 H3746 0.930 . S
C3759 C3758 1.388 . S
C3759 C3760 1.390 . S
C3760 C3759 1.390 . S
C3760 C3761 1.394 . S
C3760 C3766 1.465 . S
C3761 C3756 1.399 . S
C3761 C3760 1.394 . S
C3761 C3762 1.516 . S
C3762 C3761 1.516 . S
C3762 C3763 1.502 . S
C3762 C3764 1.561 . S
C3762 C3765 1.526 . S
C3763 H3747 0.959 . S
C3763 H3748 0.959 . S
C3763 H3749 0.961 . S
C3763 C3762 1.502 . S
C3764 H3750 0.960 . S
C3764 H3751 0.961 . S
C3764 H3752 0.959 . S
C3764 C3762 1.561 . S
C3765 C3762 1.526 . S
C3765 C3766 1.396 . S
C3765 C3770 1.390 . S
C3766 C3760 1.465 . S
C3766 C3765 1.396 . S
C3766 C3767 1.399 . S
C3767 H3753 0.929 . S
C3767 C3766 1.399 . S
C3767 C3768 1.385 . S
C3768 H3754 0.931 . S
C3768 C3767 1.385 . S
C3768 C3769 1.389 . S
C3769 C3768 1.389 . S
C3769 C3770 1.387 . S
C3770 H3755 0.930 . S
C3770 C3765 1.390 . S
C3770 C3769 1.387 . S
H3771 C3783 0.930 . S
H3772 C3785 0.930 . S
H3773 C3786 0.930 . S
H3774 C3790 0.959 . S
H3775 C3790 0.959 . S
H3776 C3790 0.961 . S
H3777 C3791 0.960 . S
H3778 C3791 0.961 . S
H3779 C3791 0.959 . S
H3780 C3794 0.929 . S
H3781 C3795 0.931 . S
H3782 C3797 0.930 . S
C3783 H3771 0.930 . S
C3783 C3784 1.399 . S
C3783 C3788 1.399 . S
C3784 C3783 1.399 . S
C3784 C3785 1.376 . S
C3785 H3772 0.930 . S
C3785 C3784 1.376 . S
C3785 C3786 1.388 . S
C3786 H3773 0.930 . S
C3786 C3785 1.388 . S
C3786 C3787 1.390 . S
C3787 C3786 1.390 . S
C3787 C3788 1.394 . S
C3787 C3793 1.465 . S
C3788 C3783 1.399 . S
C3788 C3787 1.394 . S
C3788 C3789 1.516 . S
C3789 C3788 1.516 . S
C3789 C3790 1.502 . S
C3789 C3791 1.561 . S
C3789 C3792 1.526 . S
C3790 H3774 0.959 . S
C3790 H3775 0.959 . S
C3790 H3776 0.961 . S
C3790 C3789 1.502 . S
C3791 H3777 0.960 . S
C3791 H3778 0.961 . S
C3791 H3779 0.959 . S
C3791 C3789 1.561 . S
C3792 C3789 1.526 . S
C3792 C3793 1.396 . S
C3792 C3797 1.390 . S
C3793 C3787 1.465 . S
C3793 C3792 1.396 . S
C3793 C3794 1.399 . S
C3794 H3780 0.929 . S
C3794 C3793 1.399 . S
C3794 C3795 1.385 . S
C3795 H3781 0.931 . S
C3795 C3794 1.385 . S
C3795 C3796 1.389 . S
C3796 C3795 1.389 . S
C3796 C3797 1.387 . S
C3797 H3782 0.930 . S
C3797 C3792 1.390 . S
C3797 C3796 1.387 . S
H3798 C3810 0.930 . S
H3799 C3812 0.930 . S
H3800 C3813 0.930 . S
H3801 C3817 0.959 . S
H3802 C3817 0.959 . S
H3803 C3817 0.961 . S
H3804 C3818 0.960 . S
H3805 C3818 0.961 . S
H3806 C3818 0.959 . S
H3807 C3821 0.929 . S
H3808 C3822 0.931 . S
H3809 C3824 0.930 . S
C3810 H3798 0.930 . S
C3810 C3811 1.399 . S
C3810 C3815 1.399 . S
C3811 C3810 1.399 . S
C3811 C3812 1.376 . S
C3812 H3799 0.930 . S
C3812 C3811 1.376 . S
C3812 C3813 1.388 . S
C3813 H3800 0.930 . S
C3813 C3812 1.388 . S
C3813 C3814 1.390 . S
C3814 C3813 1.390 . S
C3814 C3815 1.394 . S
C3814 C3820 1.465 . S
C3815 C3810 1.399 . S
C3815 C3814 1.394 . S
C3815 C3816 1.516 . S
C3816 C3815 1.516 . S
C3816 C3817 1.502 . S
C3816 C3818 1.561 . S
C3816 C3819 1.526 . S
C3817 H3801 0.959 . S
C3817 H3802 0.959 . S
C3817 H3803 0.961 . S
C3817 C3816 1.502 . S
C3818 H3804 0.960 . S
C3818 H3805 0.961 . S
C3818 H3806 0.959 . S
C3818 C3816 1.561 . S
C3819 C3816 1.526 . S
C3819 C3820 1.396 . S
C3819 C3824 1.390 . S
C3820 C3814 1.465 . S
C3820 C3819 1.396 . S
C3820 C3821 1.399 . S
C3821 H3807 0.929 . S
C3821 C3820 1.399 . S
C3821 C3822 1.385 . S
C3822 H3808 0.931 . S
C3822 C3821 1.385 . S
C3822 C3823 1.389 . S
C3823 C3822 1.389 . S
C3823 C3824 1.387 . S
C3824 H3809 0.930 . S
C3824 C3819 1.390 . S
C3824 C3823 1.387 . S
H3825 C3837 0.930 . S
H3826 C3839 0.930 . S
H3827 C3840 0.930 . S
H3828 C3844 0.959 . S
H3829 C3844 0.959 . S
H3830 C3844 0.961 . S
H3831 C3845 0.960 . S
H3832 C3845 0.961 . S
H3833 C3845 0.959 . S
H3834 C3848 0.929 . S
H3835 C3849 0.931 . S
H3836 C3851 0.931 . S
C3837 H3825 0.930 . S
C3837 C3838 1.399 . S
C3837 C3842 1.399 . S
C3838 C3837 1.399 . S
C3838 C3839 1.376 . S
C3839 H3826 0.930 . S
C3839 C3838 1.376 . S
C3839 C3840 1.388 . S
C3840 H3827 0.930 . S
C3840 C3839 1.388 . S
C3840 C3841 1.390 . S
C3841 C3840 1.390 . S
C3841 C3842 1.394 . S
C3841 C3847 1.465 . S
C3842 C3837 1.399 . S
C3842 C3841 1.394 . S
C3842 C3843 1.516 . S
C3843 C3842 1.516 . S
C3843 C3844 1.502 1_655 S
C3843 C3845 1.561 . S
C3843 C3846 1.526 . S
C3844 H3828 0.959 . S
C3844 H3829 0.959 . S
C3844 H3830 0.961 . S
C3844 C3843 1.502 1_455 S
C3845 H3831 0.960 . S
C3845 H3832 0.961 . S
C3845 H3833 0.959 . S
C3845 C3843 1.561 . S
C3846 C3843 1.526 . S
C3846 C3847 1.396 . S
C3846 C3851 1.388 1_655 S
C3847 C3841 1.465 . S
C3847 C3846 1.396 . S
C3847 C3848 1.399 . S
C3848 H3834 0.929 . S
C3848 C3847 1.399 . S
C3848 C3849 1.385 . S
C3849 H3835 0.931 . S
C3849 C3848 1.385 . S
C3849 C3850 1.389 . S
C3850 C3849 1.389 . S
C3850 C3851 1.387 1_655 S
C3851 H3836 0.931 . S
C3851 C3846 1.388 1_455 S
C3851 C3850 1.387 1_455 S
H3852 C3864 0.930 . S
H3853 C3866 0.930 . S
H3854 C3867 0.930 . S
H3855 C3871 0.959 . S
H3856 C3871 0.959 . S
H3857 C3871 0.961 . S
H3858 C3872 0.960 . S
H3859 C3872 0.961 . S
H3860 C3872 0.959 . S
H3861 C3875 0.929 . S
H3862 C3876 0.931 . S
H3863 C3878 0.930 . S
C3864 H3852 0.930 . S
C3864 C3865 1.399 . S
C3864 C3869 1.399 . S
C3865 C3864 1.399 . S
C3865 C3866 1.376 . S
C3866 H3853 0.930 . S
C3866 C3865 1.376 . S
C3866 C3867 1.388 . S
C3867 H3854 0.930 . S
C3867 C3866 1.388 . S
C3867 C3868 1.390 . S
C3868 C3867 1.390 . S
C3868 C3869 1.394 . S
C3868 C3874 1.465 . S
C3869 C3864 1.399 . S
C3869 C3868 1.394 . S
C3869 C3870 1.516 . S
C3870 C3869 1.516 . S
C3870 C3871 1.502 . S
C3870 C3872 1.561 . S
C3870 C3873 1.526 . S
C3871 H3855 0.959 . S
C3871 H3856 0.959 . S
C3871 H3857 0.961 . S
C3871 C3870 1.502 . S
C3872 H3858 0.960 . S
C3872 H3859 0.961 . S
C3872 H3860 0.959 . S
C3872 C3870 1.561 . S
C3873 C3870 1.526 . S
C3873 C3874 1.396 . S
C3873 C3878 1.390 . S
C3874 C3868 1.465 . S
C3874 C3873 1.396 . S
C3874 C3875 1.399 . S
C3875 H3861 0.929 . S
C3875 C3874 1.399 . S
C3875 C3876 1.385 . S
C3876 H3862 0.931 . S
C3876 C3875 1.385 . S
C3876 C3877 1.389 . S
C3877 C3876 1.389 . S
C3877 C3878 1.387 . S
C3878 H3863 0.930 . S
C3878 C3873 1.390 . S
C3878 C3877 1.387 . S
H3879 C3891 0.995 . S
H3880 C3893 0.930 . S
H3881 C3894 0.930 . S
H3882 C3898 0.959 . S
H3883 C3898 0.959 . S
H3884 C3898 0.961 . S
H3885 C3899 0.960 . S
H3886 C3899 0.961 . S
H3887 C3899 0.959 . S
H3888 C3902 0.929 . S
H3889 C3903 0.931 . S
H3890 C3905 0.930 . S
C3891 H3879 0.995 . S
C3891 C3892 1.399 . S
C3891 C3896 1.399 . S
C3892 C3891 1.399 . S
C3892 C3893 1.376 . S
C3893 H3880 0.930 . S
C3893 C3892 1.376 . S
C3893 C3894 1.388 . S
C3894 H3881 0.930 . S
C3894 C3893 1.388 . S
C3894 C3895 1.390 . S
C3895 C3894 1.390 . S
C3895 C3896 1.394 . S
C3895 C3901 1.465 . S
C3896 C3891 1.399 . S
C3896 C3895 1.394 . S
C3896 C3897 1.513 1_545 S
C3897 C3896 1.513 1_565 S
C3897 C3898 1.540 . S
C3897 C3899 1.547 1_565 S
C3897 C3900 1.500 1_565 S
C3898 H3882 0.959 . S
C3898 H3883 0.959 . S
C3898 H3884 0.961 . S
C3898 C3897 1.540 . S
C3899 H3885 0.960 . S
C3899 H3886 0.961 . S
C3899 H3887 0.959 . S
C3899 C3897 1.547 1_545 S
C3900 C3897 1.500 1_545 S
C3900 C3901 1.396 . S
C3900 C3905 1.390 1_545 S
C3901 C3895 1.465 . S
C3901 C3900 1.396 . S
C3901 C3902 1.399 . S
C3902 H3888 0.929 . S
C3902 C3901 1.399 . S
C3902 C3903 1.385 . S
C3903 H3889 0.931 . S
C3903 C3902 1.385 . S
C3903 C3904 1.389 . S
C3904 C3903 1.389 . S
C3904 C3905 1.387 1_545 S
C3905 H3890 0.930 . S
C3905 C3900 1.390 1_565 S
C3905 C3904 1.387 1_565 S
C1975 C49 1.712 . S
C1987 C1790 1.636 1_655 S
C2002 C137 1.703 . S
C2014 C1803 1.617 . S
C2041 C1832 1.596 1_545 S
C2029 C205 1.692 . S
C2056 C196 1.652 . S
C2068 C1845 1.638 . S
C2083 C57 1.713 . S
C2095 C1866 1.603 . S
C2110 C145 1.705 . S
C2122 C1895 1.598 . S
C2137 C313 1.681 . S
C2149 C1874 1.661 . S
C2176 C1887 1.581 . S
C2164 C401 1.679 . S
C2203 C1853 1.583 . S
C2191 C489 1.717 . S
C2218 C469 1.655 . S
C2230 C1824 1.641 1_545 S
C2257 C1782 1.699 1_655 S
C2245 C293 1.696 . S
C2272 C381 1.687 . S
C2284 C1811 1.591 . S
C2299 C577 1.714 . S
C2311 C1916 1.616 . S
C2326 C645 1.675 . S
C2338 C1929 1.692 . S
C2365 C1958 1.637 . S
C2353 C733 1.675 . S
C2380 C724 1.665 . S
C2392 C1593 1.663 . S
C2407 C585 1.710 . S
C2419 C1614 1.667 . S
C2434 C636 1.730 . S
C2446 C1643 1.634 . S
C2461 C841 1.682 . S
C2473 C1622 1.621 . S
C2488 C937 1.710 . S
C2500 C1635 1.683 . S
C2527 C1601 1.616 . S
C2515 C1025 1.716 . S
C2554 C1950 1.616 . S
C2542 C988 1.713 . S
C2581 C1908 1.571 . S
C2569 C821 1.671 . S
C2608 C1937 1.626 . S
C2596 C900 1.684 . S
C2623 C1105 1.683 . S
C2635 C1664 1.604 . S
C2650 C1193 1.730 . S
C2662 C1677 1.649 . S
C2677 C1281 1.696 . S
C2689 C1706 1.666 . S
C2704 C1289 1.679 . S
C2716 C1719 1.697 . S
C2743 C1740 1.631 . S
C2731 C1113 1.686 . S
C2770 C1769 1.650 . S
C2758 C1201 1.675 . S
C2797 C1748 1.640 . S
C2785 C1369 1.712 . S
C2824 C1761 1.658 . S
C2812 C1457 1.677 . S
C2839 C1553 1.663 . S
C2851 C1727 1.612 . S
C2878 C1698 1.607 . S
C2866 C1516 1.646 . S
C2893 C1349 1.687 . S
C2905 C1656 1.674 . S
C2932 C1685 1.660 . S
C2920 C1437 1.689 . S
C2959 C1596 1.233 . S
C2947 C29 1.343 . S
C2974 C117 1.313 . S
C2986 C1617 1.186 . S
C3013 C1645 1.206 . S
C3001 C225 1.355 . S
C3040 C1666 1.244 . S
C3028 C233 1.366 . S
C3067 C1680 1.311 . S
C3055 C20 1.359 . S
C3094 C1708 1.131 . S
C3082 C108 1.323 . S
C3109 C321 1.375 . S
C3121 C1701 1.186 . S
C3136 C409 1.347 . S
C3148 C1659 1.240 . S
C3163 C497 1.410 . S
C3175 C1687 1.378 . S
C3190 C460 1.357 . S
C3202 C1624 1.277 . S
C3229 C1638 1.274 . S
C3217 C284 1.412 . S
C3244 C372 1.347 . S
C3256 C1603 1.249 . S
C3283 C1722 1.247 . S
C3271 C557 1.321 . S
C3298 C665 1.383 . S
C3310 C1743 1.267 . S
C3325 C753 1.386 . S
C3337 C1771 1.193 . S
C3364 C1792 1.111 . S
C3352 C761 1.203 . S
C3379 C548 1.316 . S
C3391 C1806 1.277 . S
C3406 C673 1.231 . S
C3418 C1834 1.095 . S
C3433 C849 1.235 . S
C3445 C1827 1.038 . S
C3460 C929 1.229 . S
C3472 C1785 1.051 . S
C3499 C1813 1.218 . S
C3487 C1017 1.334 . S
C3514 C997 1.358 . S
C3526 C1750 1.326 . S
C3541 C812 1.400 . S
C3553 C1764 1.182 . S
C3580 C1729 1.377 . S
C3568 C909 1.422 . S
C3607 C1848 1.137 1_545 S
C3595 C1085 1.234 . S
C3622 C1173 1.228 . S
C3634 C1869 1.175 1_655 S
C3649 C1261 1.319 . S
C3661 C1897 1.135 . S
C3688 C1918 1.136 . S
C3676 C1252 1.314 . S
C3715 C1932 1.308 . S
C3703 C1076 1.379 . S
C3730 C1164 1.384 . S
C3742 C1960 1.324 . S
C3757 C1377 1.369 . S
C3769 C1953 1.129 . S
C3784 C1465 1.415 . S
C3796 C1911 1.248 . S
C3823 C1939 1.300 . S
C3811 C1545 1.400 . S
C3850 C1876 1.214 1_655 S
C3838 C1525 1.230 . S
C3877 C1890 1.223 . S
C3865 C1340 1.360 . S
C3892 C1428 1.251 . S
C3904 C1855 1.226 1_545 S
