# Generated by pormake.
# Topology cml, (3,6)-cn, num edge types: 1
# Building blocks:
#     Node 0, Type 0, BuildingBlock: QEWDON_clean_linker_0, # of connection points: 3
#     Node 1, Type 0, BuildingBlock: QEWDON_clean_linker_0, # of connection points: 3
#     Node 2, Type 0, BuildingBlock: QEWDON_clean_linker_0, # of connection points: 3
#     Node 3, Type 0, BuildingBlock: QEWDON_clean_linker_0, # of connection points: 3
#     Node 4, Type 0, BuildingBlock: QEWDON_clean_linker_0, # of connection points: 3
#     Node 5, Type 0, BuildingBlock: QEWDON_clean_linker_0, # of connection points: 3
#     Node 6, Type 0, BuildingBlock: QEWDON_clean_linker_0, # of connection points: 3
#     Node 7, Type 0, BuildingBlock: QEWDON_clean_linker_0, # of connection points: 3
#     Node 8, Type 1, BuildingBlock: IZENUY_clean_sbu_0, # of connection points: 6
#     Node 9, Type 1, BuildingBlock: IZENUY_clean_sbu_0, # of connection points: 6
#     Node 10, Type 1, BuildingBlock: IZENUY_clean_sbu_0, # of connection points: 6
#     Node 11, Type 1, BuildingBlock: IZENUY_clean_sbu_0, # of connection points: 6
#     Edge 12, Type (0, 1), BuildingBlock: OJICUG_clean_linker_0, # of connection points: 2
#     Edge 13, Type (0, 1), BuildingBlock: OJICUG_clean_linker_0, # of connection points: 2
#     Edge 14, Type (0, 1), BuildingBlock: OJICUG_clean_linker_0, # of connection points: 2
#     Edge 15, Type (0, 1), BuildingBlock: OJICUG_clean_linker_0, # of connection points: 2
#     Edge 16, Type (0, 1), BuildingBlock: OJICUG_clean_linker_0, # of connection points: 2
#     Edge 17, Type (0, 1), BuildingBlock: OJICUG_clean_linker_0, # of connection points: 2
#     Edge 18, Type (0, 1), BuildingBlock: OJICUG_clean_linker_0, # of connection points: 2
#     Edge 19, Type (0, 1), BuildingBlock: OJICUG_clean_linker_0, # of connection points: 2
#     Edge 20, Type (0, 1), BuildingBlock: OJICUG_clean_linker_0, # of connection points: 2
#     Edge 21, Type (0, 1), BuildingBlock: OJICUG_clean_linker_0, # of connection points: 2
#     Edge 22, Type (0, 1), BuildingBlock: OJICUG_clean_linker_0, # of connection points: 2
#     Edge 23, Type (0, 1), BuildingBlock: OJICUG_clean_linker_0, # of connection points: 2
#     Edge 24, Type (0, 1), BuildingBlock: OJICUG_clean_linker_0, # of connection points: 2
#     Edge 25, Type (0, 1), BuildingBlock: OJICUG_clean_linker_0, # of connection points: 2
#     Edge 26, Type (0, 1), BuildingBlock: OJICUG_clean_linker_0, # of connection points: 2
#     Edge 27, Type (0, 1), BuildingBlock: OJICUG_clean_linker_0, # of connection points: 2
#     Edge 28, Type (0, 1), BuildingBlock: OJICUG_clean_linker_0, # of connection points: 2
#     Edge 29, Type (0, 1), BuildingBlock: OJICUG_clean_linker_0, # of connection points: 2
#     Edge 30, Type (0, 1), BuildingBlock: OJICUG_clean_linker_0, # of connection points: 2
#     Edge 31, Type (0, 1), BuildingBlock: OJICUG_clean_linker_0, # of connection points: 2
#     Edge 32, Type (0, 1), BuildingBlock: OJICUG_clean_linker_0, # of connection points: 2
#     Edge 33, Type (0, 1), BuildingBlock: OJICUG_clean_linker_0, # of connection points: 2
#     Edge 34, Type (0, 1), BuildingBlock: OJICUG_clean_linker_0, # of connection points: 2
#     Edge 35, Type (0, 1), BuildingBlock: OJICUG_clean_linker_0, # of connection points: 2
# Relax obj value: 0.012
# Max RMSD: 0.122
# Mean RMSD: 0.091
data_MOF--net-cml--node1-IZENUY_clean_sbu_0--node2-QEWDON_clean_linker_0--edge1-OJICUG_clean_linker_0
_symmetry_space_group_name_H-M    P1
_symmetry_Int_Tables_number       1
_symmetry_cell_setting            triclinic
loop_
_symmetry_equiv_pos_as_xyz
'x, y, z'
_cell_length_a     29.035395
_cell_length_b     31.0092
_cell_length_c     27.02074
_cell_angle_alpha  90.028661
_cell_angle_beta   90.086904
_cell_angle_gamma 90.335585
loop_
_atom_site_label
_atom_site_type_symbol
_atom_site_fract_x
_atom_site_fract_y
_atom_site_fract_z
_atom_type_partial_charge
H0 H 0.28678 0.44119 0.96714 0.0
C1 C 0.30399 0.4307 1.00065 0.0
C2 C 0.34742 0.44779 0.01283 0.0
C3 C 0.28084 0.40326 0.03399 0.0
H4 H 0.40172 0.4489 0.06717 0.0
C5 C 0.36812 0.43579 0.05765 0.0
C6 C 0.34531 0.40894 0.09155 0.0
C7 C 0.30173 0.39226 0.07928 0.0
C8 C 0.23151 0.39389 0.02628 0.0
H9 H 0.28289 0.37308 0.10609 0.0
C10 C 0.21642 0.35953 0.99615 0.0
C11 C 0.16895 0.35315 0.98779 0.0
C12 C 0.19911 0.42112 0.04848 0.0
H13 H 0.21027 0.4477 0.07173 0.0
C14 C 0.15217 0.4147 0.04035 0.0
H15 H 0.2413 0.33842 0.97888 0.0
C16 C 0.13712 0.38109 0.00999 0.0
H17 H 0.10047 0.3766 1.00419 0.0
H18 H 0.12739 0.43595 0.05745 0.0
H19 H 0.74441 0.58118 0.47387 0.0
C20 C 0.72675 0.59141 0.50716 0.0
C21 C 0.68455 0.57207 0.52006 0.0
C22 C 0.74793 0.62141 0.53921 0.0
H23 H 0.63083 0.56866 0.57485 0.0
C24 C 0.66328 0.5837 0.56459 0.0
C25 C 0.68353 0.61406 0.59644 0.0
C26 C 0.72583 0.63308 0.58353 0.0
C27 C 0.79686 0.63305 0.53179 0.0
H28 H 0.74278 0.65489 0.60921 0.0
C29 C 0.81065 0.66834 0.50226 0.0
C30 C 0.85794 0.67699 0.49511 0.0
C31 C 0.83038 0.60723 0.55439 0.0
H32 H 0.82032 0.58004 0.57721 0.0
C33 C 0.87705 0.61594 0.54744 0.0
H34 H 0.78499 0.68842 0.48463 0.0
C35 C 0.89081 0.65045 0.51782 0.0
H36 H 0.92727 0.65663 0.51277 0.0
H37 H 0.90266 0.59576 0.56489 0.0
H38 H 0.71405 0.41763 0.94917 0.0
C39 C 0.70619 0.41641 0.98835 0.0
C40 C 0.68369 0.45123 0.0112 0.0
C41 C 0.71449 0.37821 0.01453 0.0
H42 H 0.65191 0.47337 0.07856 0.0
C43 C 0.67189 0.44796 0.06154 0.0
C44 C 0.68028 0.40997 0.08838 0.0
C45 C 0.70224 0.37542 0.06457 0.0
C46 C 0.72485 0.33839 0.98695 0.0
H47 H 0.7073 0.34523 0.084 0.0
C48 C 0.76961 0.3288 0.97059 0.0
C49 C 0.77744 0.29128 0.94242 0.0
C50 C 0.68832 0.31023 0.97557 0.0
H51 H 0.65365 0.31726 0.98785 0.0
C52 C 0.69603 0.27317 0.9477 0.0
H53 H 0.79791 0.35047 0.97929 0.0
C54 C 0.74024 0.26377 0.93104 0.0
H55 H 0.74554 0.23458 0.90978 0.0
H56 H 0.66765 0.25169 0.93895 0.0
H57 H 0.32799 0.62052 0.44386 0.0
C58 C 0.33627 0.62286 0.48288 0.0
C59 C 0.36006 0.58925 0.50665 0.0
C60 C 0.32583 0.66108 0.50827 0.0
H61 H 0.39234 0.56978 0.5748 0.0
C62 C 0.37148 0.59409 0.55699 0.0
C63 C 0.36008 0.63159 0.58358 0.0
C64 C 0.33729 0.66512 0.5586 0.0
C65 C 0.31226 0.69963 0.47974 0.0
H66 H 0.32982 0.69504 0.57761 0.0
C67 C 0.26651 0.70651 0.46424 0.0
C68 C 0.25576 0.74259 0.4346 0.0
C69 C 0.3468 0.72908 0.46603 0.0
H70 H 0.38217 0.72416 0.47751 0.0
C71 C 0.33627 0.76467 0.43678 0.0
H72 H 0.23971 0.68383 0.47472 0.0
C73 C 0.29116 0.77136 0.42099 0.0
H74 H 0.28375 0.79955 0.39874 0.0
H75 H 0.36318 0.78715 0.42627 0.0
H76 H 0.7825 0.95933 0.97003 0.0
C77 C 0.79897 0.94771 1.00348 0.0
C78 C 0.84171 0.96487 0.01784 0.0
C79 C 0.77602 0.91747 0.03346 0.0
H80 H 0.89471 0.96431 0.07357 0.0
C81 C 0.86164 0.9511 0.06235 0.0
C82 C 0.83943 0.92056 0.09268 0.0
C83 C 0.79667 0.90334 0.07773 0.0
C84 C 0.72754 0.90676 0.02208 0.0
H85 H 0.77836 0.88111 0.10171 0.0
C86 C 0.71473 0.8671 1.00048 0.0
C87 C 0.66862 0.85989 0.98623 0.0
C88 C 0.694 0.93842 0.03012 0.0
H89 H 0.70337 0.96918 0.04646 0.0
C90 C 0.64829 0.93094 0.01666 0.0
H91 H 0.74047 0.84263 0.99372 0.0
C92 C 0.63565 0.892 0.99458 0.0
H93 H 0.60002 0.88681 0.98404 0.0
H94 H 0.62266 0.95554 0.02294 0.0
H95 H 0.24906 0.07336 0.46839 0.0
C96 C 0.23008 0.08418 0.50058 0.0
C97 C 0.18723 0.06539 0.51168 0.0
C98 C 0.24991 0.11479 0.53282 0.0
H99 H 0.13082 0.06364 0.56305 0.0
C100 C 0.16403 0.07808 0.55467 0.0
C101 C 0.18323 0.10865 0.58722 0.0
C102 C 0.22613 0.12731 0.57577 0.0
C103 C 0.29879 0.12698 0.52672 0.0
H104 H 0.24225 0.14951 0.60162 0.0
C105 C 0.31235 0.16476 0.50152 0.0
C106 C 0.35955 0.17406 0.49507 0.0
C107 C 0.33243 0.09934 0.54599 0.0
H108 H 0.3225 0.07021 0.56551 0.0
C109 C 0.37906 0.10883 0.54002 0.0
H110 H 0.28657 0.18614 0.48628 0.0
C111 C 0.3926 0.14582 0.51449 0.0
H112 H 0.42902 0.15247 0.50981 0.0
H113 H 0.4048 0.08728 0.5549 0.0
H114 H 0.19957 0.91499 0.93044 0.0
C115 C 0.19234 0.9133 0.96973 0.0
C116 C 0.16876 0.94706 0.99332 0.0
C117 C 0.20424 0.87587 0.99577 0.0
H118 H 0.13774 0.96748 0.06188 0.0
C119 C 0.15851 0.94311 0.04404 0.0
C120 C 0.17042 0.90592 0.07082 0.0
C121 C 0.19386 0.87255 0.04633 0.0
C122 C 0.21779 0.837 0.96797 0.0
H123 H 0.2017 0.8429 0.06576 0.0
C124 C 0.26377 0.82287 0.96609 0.0
C125 C 0.27465 0.78465 0.9405 0.0
C126 C 0.18324 0.8132 0.94369 0.0
H127 H 0.14772 0.8237 0.94481 0.0
C128 C 0.19406 0.77546 0.91835 0.0
H129 H 0.2906 0.84108 0.98479 0.0
C130 C 0.23942 0.7611 0.91693 0.0
H131 H 0.24716 0.73165 0.89708 0.0
H132 H 0.16717 0.75719 0.89993 0.0
H133 H 0.83917 0.11343 0.43335 0.0
C134 C 0.83858 0.11445 0.47343 0.0
C135 C 0.85807 0.08067 0.50099 0.0
C136 C 0.8217 0.15153 0.49701 0.0
H137 H 0.87466 0.05882 0.57454 0.0
C138 C 0.85923 0.0843 0.55291 0.0
C139 C 0.84519 0.12222 0.57693 0.0
C140 C 0.82501 0.15527 0.54867 0.0
C141 C 0.80984 0.18961 0.46679 0.0
H142 H 0.81486 0.18514 0.56633 0.0
C143 C 0.76409 0.20398 0.46178 0.0
C144 C 0.75405 0.2389 0.43015 0.0
C145 C 0.84535 0.2111 0.44147 0.0
H146 H 0.88071 0.20054 0.4451 0.0
C147 C 0.83563 0.24628 0.41128 0.0
H148 H 0.73649 0.18719 0.48081 0.0
C149 C 0.79034 0.25998 0.40539 0.0
H150 H 0.78359 0.28717 0.38133 0.0
H151 H 0.86324 0.26273 0.39198 0.0
Fe152 Fe 1.01267 0.83359 0.31011 0.0
Fe153 Fe 0.02039 0.87421 0.4137 0.0
O154 O 0.01672 0.88004 0.34844 0.0
Fe155 Fe 0.01762 0.9321 0.32138 0.0
O156 O 0.97959 0.91739 0.27005 0.0
O157 O 0.95743 0.85049 0.28424 0.0
O158 O 0.98062 0.80086 0.35539 0.0
C159 C 0.95708 0.81103 0.39304 0.0
C160 C 0.0719 0.8888 0.25544 0.0
O161 O 0.96564 0.8455 0.41621 0.0
C162 C 0.0821 0.94043 0.40044 0.0
O163 O 0.06785 0.81427 0.33264 0.0
O164 O 0.05331 0.82371 0.41168 0.0
O165 O 0.06896 0.91985 0.28551 0.0
O166 O 0.04406 0.85734 0.25794 0.0
C167 C 0.96274 0.94738 0.40156 0.0
O168 O 0.07525 0.90272 0.41657 0.0
O169 O 0.05571 0.95647 0.36807 0.0
C170 C 0.07822 0.80842 0.37753 0.0
O171 O 0.98873 0.92374 0.42747 0.0
O172 O 0.96632 0.9483 0.35505 0.0
C173 C 0.95124 0.88668 0.26368 0.0
Fe174 Fe 1.01074 0.15392 0.9115 0.0
Fe175 Fe 1.00496 0.09611 0.81879 0.0
O176 O 1.00906 0.14798 0.84615 0.0
Fe177 Fe 1.01103 0.19434 0.80752 0.0
O178 O 0.04543 0.22753 0.85017 0.0
O179 O 0.06508 0.18314 0.90932 0.0
O180 O 0.04458 0.105 0.92207 0.0
C181 C 0.06699 0.08052 0.89339 0.0
C182 C 0.95001 0.2195 0.87916 0.0
O183 O 0.05801 0.0786 0.84772 0.0
C184 C 0.94696 0.14057 0.75792 0.0
O185 O 0.95679 0.12489 0.91995 0.0
O186 O 0.97044 0.07185 0.86821 0.0
O187 O 0.95772 0.21383 0.83365 0.0
O188 O 0.97661 0.20392 0.91185 0.0
C189 C 0.06861 0.14067 0.75733 0.0
O190 O 0.95116 0.10957 0.78778 0.0
O191 O 0.97645 0.17073 0.75752 0.0
C192 C 0.94794 0.08757 0.90383 0.0
O193 O 0.03946 0.11074 0.76458 0.0
O194 O 0.06447 0.17683 0.77858 0.0
C195 C 0.07132 0.21784 0.88608 0.0
Fe196 Fe 0.51187 0.33856 0.31921 0.0
Fe197 Fe 0.51617 0.37976 0.42288 0.0
O198 O 0.51419 0.38516 0.35743 0.0
Fe199 Fe 0.51529 0.43694 0.32949 0.0
O200 O 0.47903 0.42094 0.27688 0.0
O201 O 0.45691 0.35434 0.29245 0.0
O202 O 0.48011 0.30501 0.36351 0.0
C203 C 0.45589 0.31412 0.40087 0.0
C204 C 0.57204 0.39381 0.26643 0.0
O205 O 0.46283 0.34869 0.42433 0.0
C206 C 0.57648 0.44773 0.41084 0.0
O207 O 0.56662 0.32041 0.34282 0.0
O208 O 0.55225 0.33076 0.42197 0.0
O209 O 0.56805 0.42489 0.2962 0.0
O210 O 0.54376 0.36267 0.26762 0.0
C211 C 0.45674 0.45184 0.40693 0.0
O212 O 0.56955 0.41036 0.4277 0.0
O213 O 0.5512 0.46275 0.37696 0.0
C214 C 0.57712 0.31519 0.38773 0.0
O215 O 0.48108 0.42803 0.43474 0.0
O216 O 0.46309 0.45294 0.36076 0.0
C217 C 0.45115 0.38981 0.27031 0.0
Fe218 Fe 0.51562 0.64449 0.92721 0.0
Fe219 Fe 0.51393 0.59233 0.8311 0.0
O220 O 0.51439 0.64304 0.86156 0.0
Fe221 Fe 0.51374 0.69199 0.82713 0.0
O222 O 0.56656 0.71141 0.85602 0.0
O223 O 0.54732 0.69546 0.93216 0.0
O224 O 0.57062 0.6168 0.92931 0.0
C225 C 0.57698 0.58007 0.91033 0.0
C226 C 0.45109 0.70612 0.90629 0.0
O227 O 0.54942 0.56542 0.8779 0.0
C228 C 0.45444 0.64287 0.77087 0.0
O229 O 0.48368 0.59401 0.93561 0.0
O230 O 0.46061 0.57562 0.86127 0.0
O231 O 0.47688 0.72066 0.87207 0.0
O232 O 0.46081 0.67167 0.92871 0.0
C233 C 0.57421 0.63763 0.77215 0.0
O234 O 0.47894 0.60997 0.77857 0.0
O235 O 0.46113 0.67736 0.79459 0.0
C236 C 0.45585 0.57409 0.90763 0.0
O237 O 0.56682 0.60495 0.79884 0.0
O238 O 0.54984 0.6713 0.77636 0.0
C239 C 0.57274 0.71546 0.90195 0.0
C240 C 0.12319 0.32706 0.9156 0.0
C241 C 0.1514 0.31761 0.95631 0.0
H242 H 0.07667 0.30293 0.86079 0.0
C243 C 0.15745 0.27444 0.97037 0.0
H244 H 0.11805 0.36018 0.90418 0.0
C245 C 0.13313 0.24146 0.94603 0.0
C246 C 0.10282 0.25115 0.90688 0.0
H247 H 0.17883 0.26651 1.00192 0.0
H248 H 0.13668 0.20864 0.95913 0.0
C249 C 0.0995 0.29419 0.89084 0.0
C250 C 0.87401 0.75556 0.48184 0.0
C251 C 0.87456 0.71307 0.46395 0.0
H252 H 0.89966 0.82018 0.47343 0.0
C253 C 0.8983 0.70407 0.42001 0.0
H254 H 0.85644 0.76304 0.5161 0.0
C255 C 0.92286 0.73653 0.39548 0.0
C256 C 0.92493 0.77866 0.41487 0.0
H257 H 0.89956 0.67139 0.40588 0.0
H258 H 0.94212 0.72798 0.36265 0.0
C259 C 0.89905 0.7881 0.45757 0.0
C260 C 0.86021 0.27412 0.95931 0.0
C261 C 0.82411 0.27953 0.9253 0.0
H262 H 0.92857 0.25056 0.9715 0.0
C263 C 0.83132 0.26898 0.8754 0.0
H264 H 0.85529 0.28178 0.99806 0.0
C265 C 0.87315 0.25153 0.86007 0.0
C266 C 0.90849 0.24366 0.89449 0.0
H267 H 0.80398 0.273 0.84848 0.0
H268 H 0.87693 0.24242 0.82158 0.0
C269 C 0.90197 0.25604 0.94411 0.0
C270 C 0.17249 0.75577 0.45377 0.0
C271 C 0.20786 0.75197 0.41871 0.0
H272 H 0.10363 0.77676 0.46834 0.0
C273 C 0.19855 0.76242 0.36908 0.0
H274 H 0.17886 0.74823 0.49231 0.0
C275 C 0.15549 0.77842 0.35518 0.0
C276 C 0.12095 0.78492 0.39077 0.0
H277 H 0.22521 0.75962 0.34127 0.0
H278 H 0.15013 0.78772 0.31697 0.0
C279 C 0.12954 0.77236 0.44002 0.0
C280 C 0.64147 0.78382 0.99218 0.0
C281 C 0.6535 0.81925 0.96268 0.0
H282 H 0.60667 0.72286 0.99586 0.0
C283 C 0.64338 0.81835 0.91187 0.0
H284 H 0.64844 0.78423 0.03158 0.0
C285 C 0.61965 0.78324 0.8912 0.0
C286 C 0.60484 0.74888 0.92131 0.0
H287 H 0.65188 0.84575 0.88869 0.0
H288 H 0.61059 0.78424 0.85232 0.0
C289 C 0.61728 0.74896 0.97172 0.0
C290 C 0.39789 0.20585 0.42139 0.0
C291 C 0.37574 0.21205 0.46686 0.0
H292 H 0.43967 0.23328 0.36445 0.0
C293 C 0.3759 0.25328 0.48833 0.0
H294 H 0.39847 0.17417 0.40444 0.0
C295 C 0.40013 0.28731 0.46583 0.0
C296 C 0.42448 0.28056 0.42145 0.0
H297 H 0.35946 0.25855 0.52377 0.0
H298 H 0.40137 0.31831 0.48427 0.0
C299 C 0.42167 0.23975 0.39872 0.0
C300 C 0.33202 0.72724 0.95733 0.0
C301 C 0.32225 0.76816 0.9381 0.0
H302 H 0.38045 0.67594 0.96302 0.0
C303 C 0.3564 0.79036 0.91143 0.0
H304 H 0.30603 0.70947 0.97776 0.0
C305 C 0.39902 0.7709 0.90211 0.0
C306 C 0.40828 0.72918 0.91994 0.0
H307 H 0.3493 0.82181 0.89583 0.0
H308 H 0.42419 0.78805 0.87993 0.0
C309 C 0.37466 0.7081 0.94875 0.0
C310 C 0.69104 0.25815 0.37162 0.0
C311 C 0.70611 0.25309 0.42064 0.0
H312 H 0.63877 0.281 0.32294 0.0
C313 C 0.67669 0.2652 0.45943 0.0
H314 H 0.71286 0.2487 0.34102 0.0
C315 C 0.63392 0.28422 0.44912 0.0
C316 C 0.61974 0.29095 0.39984 0.0
H317 H 0.68764 0.26177 0.49756 0.0
H318 H 0.61266 0.29475 0.47967 0.0
C319 C 0.64844 0.27665 0.36134 0.0
C320 C 0.38491 0.5199 1.00647 0.0
C321 C 0.36945 0.48222 0.98272 0.0
H322 H 0.42342 0.57843 1.00112 0.0
C323 C 0.3779 0.47716 0.93182 0.0
H324 H 0.37795 0.52518 0.0454 0.0
C325 C 0.40417 0.50807 0.90604 0.0
C326 C 0.42216 0.54435 0.93097 0.0
H327 H 0.36609 0.44847 0.91263 0.0
H328 H 0.41216 0.50256 0.86743 0.0
C329 C 0.41091 0.55047 0.98101 0.0
C330 C 0.64986 0.54636 0.44015 0.0
C331 C 0.66309 0.53793 0.48913 0.0
H332 H 0.61182 0.52434 0.37684 0.0
C333 C 0.65168 0.49789 0.51031 0.0
H334 H 0.65816 0.57705 0.42313 0.0
C335 C 0.62574 0.46754 0.48384 0.0
C336 C 0.60992 0.4769 0.43586 0.0
H337 H 0.66174 0.49061 0.54801 0.0
H338 H 0.61624 0.43763 0.50193 0.0
C339 C 0.6232 0.51625 0.41386 0.0
C340 C 0.66116 0.52917 1.00031 0.0
C341 C 0.66439 0.48708 0.98105 0.0
H342 H 0.63126 0.59194 0.99301 0.0
C343 C 0.64336 0.478 0.9353 0.0
H344 H 0.67744 0.53739 0.03518 0.0
C345 C 0.61732 0.5092 0.91108 0.0
C346 C 0.61124 0.55026 0.93208 0.0
H347 H 0.6444 0.44593 0.9195 0.0
H348 H 0.60007 0.50029 0.87697 0.0
C349 C 0.63483 0.56048 0.97607 0.0
C350 C 0.38402 0.5111 0.50112 0.0
C351 C 0.37828 0.55158 0.47821 0.0
H352 H 0.41361 0.44796 0.49682 0.0
C353 C 0.39438 0.55684 0.42944 0.0
H354 H 0.37112 0.50526 0.5381 0.0
C355 C 0.41746 0.52344 0.40532 0.0
C356 C 0.42592 0.48421 0.42963 0.0
H357 H 0.3915 0.58748 0.41057 0.0
H358 H 0.43097 0.52935 0.36858 0.0
C359 C 0.4081 0.47804 0.47738 0.0
C360 C 0.88146 0.03651 0.0094 0.0
C361 C 0.86508 0.99828 0.98743 0.0
H362 H 0.91954 0.09531 0.99996 0.0
C363 C 0.8727 0.99148 0.93674 0.0
H364 H 0.87557 0.04274 0.04833 0.0
C365 C 0.89822 0.02135 0.90911 0.0
C366 C 0.91592 0.059 0.93142 0.0
H367 H 0.86044 0.96228 0.91893 0.0
H368 H 0.90497 1.01449 0.87049 0.0
C369 C 0.90628 0.06676 0.9816 0.0
C370 C 0.15529 0.03881 0.43082 0.0
C371 C 0.16692 0.03087 0.48037 0.0
H372 H 0.11915 0.01624 0.36647 0.0
C373 C 0.15496 0.99098 0.50157 0.0
H374 H 0.16404 0.06939 0.41377 0.0
C375 C 0.12996 0.96031 0.47448 0.0
C376 C 0.11561 0.96926 0.42587 0.0
H377 H 0.16374 0.98409 0.53973 0.0
H378 H 0.11979 0.9306 0.49258 0.0
C379 C 0.12952 1.00844 0.40393 0.0
C380 C 0.13102 0.97665 0.91653 0.0
C381 C 0.14922 0.98361 0.96425 0.0
H382 H 0.09146 1.00201 0.85643 0.0
C383 C 0.14439 0.0247 0.98575 0.0
H384 H 0.13324 0.94539 0.89888 0.0
C385 C 0.11924 0.05686 0.96179 0.0
C386 C 0.09919 0.04902 0.91529 0.0
H387 H 0.15881 0.03166 0.02188 0.0
H388 H 0.11451 0.08754 0.98024 0.0
C389 C 0.10669 1.00912 0.89216 0.0
C390 C 0.8683 0.02823 0.42964 0.0
C391 C 0.88289 0.04464 0.4758 0.0
H392 H 0.88229 0.98474 0.36949 0.0
C393 C 0.92339 0.02787 0.49693 0.0
H394 H 0.83722 0.04 0.41223 0.0
C395 C 0.94808 0.99552 0.47329 0.0
C396 C 0.93398 0.97971 0.42701 0.0
H397 H 0.93722 0.04052 0.53124 0.0
H398 H 0.97935 0.98396 0.49062 0.0
C399 C 0.89391 0.99641 0.40522 0.0
C400 C 0.37316 0.36177 0.16151 0.0
C401 C 0.36568 0.40297 0.14146 0.0
H402 H 0.40627 0.32495 0.21869 0.0
C403 C 0.3812 0.43933 0.16772 0.0
H404 H 0.36133 0.33326 0.142 0.0
C405 C 0.40653 0.43472 0.21116 0.0
C406 C 0.41709 0.39359 0.22961 0.0
H407 H 0.37506 0.47151 0.15364 0.0
H408 H 0.4194 0.46356 0.2293 0.0
C409 C 0.39879 0.35709 0.20535 0.0
C410 C 0.64409 0.66329 0.65662 0.0
C411 C 0.66155 0.62245 0.64483 0.0
H412 H 0.6024 0.70033 0.70633 0.0
C413 C 0.65385 0.58798 0.67741 0.0
H414 H 0.64952 0.69026 0.6318 0.0
C415 C 0.62748 0.59363 0.72 0.0
C416 C 0.60752 0.63382 0.73069 0.0
H417 H 0.66715 0.55622 0.66906 0.0
H418 H 0.62121 0.56588 0.74343 0.0
C419 C 0.61703 0.66891 0.69911 0.0
C420 C 0.63501 0.36548 0.14865 0.0
C421 C 0.65869 0.40399 0.13785 0.0
H422 H 0.58976 0.33201 0.19765 0.0
C423 C 0.65711 0.438 0.17234 0.0
H424 H 0.63472 0.33884 0.12271 0.0
C425 C 0.63056 0.43427 0.2154 0.0
C426 C 0.60499 0.3965 0.2247 0.0
H427 H 0.67533 0.46795 0.16532 0.0
H428 H 0.62878 0.46153 0.24039 0.0
C429 C 0.60868 0.36174 0.19153 0.0
C430 C 0.37919 0.60084 0.66732 0.0
C431 C 0.37682 0.63681 0.63562 0.0
H432 H 0.40572 0.57462 0.73485 0.0
C433 C 0.39488 0.67647 0.65247 0.0
H434 H 0.3646 0.57006 0.65634 0.0
C435 C 0.41731 0.67929 0.69834 0.0
C436 C 0.42283 0.64239 0.72787 0.0
H437 H 0.39419 0.70481 0.62913 0.0
H438 H 0.43296 0.70968 0.7091 0.0
C439 C 0.40243 0.60347 0.71254 0.0
C440 C 0.87071 0.86708 0.15461 0.0
C441 C 0.86035 0.90981 0.1413 0.0
H442 H 0.90785 0.82575 0.20455 0.0
C443 C 0.87443 0.94349 0.17264 0.0
H444 H 0.86015 0.84056 0.13102 0.0
C445 C 0.90127 0.93516 0.21427 0.0
C446 C 0.91489 0.8929 0.22575 0.0
H447 H 0.86625 0.97665 0.16374 0.0
H448 H 0.91313 0.96223 0.23634 0.0
C449 C 0.89789 0.85864 0.19665 0.0
C450 C 0.15163 0.16056 0.6507 0.0
C451 C 0.15931 0.11804 0.63456 0.0
H452 H 0.11669 0.20147 0.70271 0.0
C453 C 0.14135 0.08373 0.66251 0.0
H454 H 0.16526 0.1876 0.6299 0.0
C455 C 0.11382 0.09154 0.70364 0.0
C456 C 0.10355 0.13391 0.71819 0.0
H457 H 0.14763 0.05061 0.65177 0.0
H458 H 0.09947 0.06414 0.72329 0.0
C459 C 0.12389 0.16846 0.69229 0.0
C460 C 0.13082 0.86049 0.1349 0.0
C461 C 0.15191 0.89975 0.12178 0.0
H462 H 0.0896 0.82622 0.1873 0.0
C463 C 0.15048 0.93425 0.15566 0.0
H464 H 0.13065 0.8334 0.1096 0.0
C465 C 0.12638 0.93028 0.20035 0.0
C466 C 0.10305 0.89175 0.212 0.0
H467 H 0.16681 0.96479 0.1469 0.0
H468 H 0.12451 0.95794 0.22474 0.0
C469 C 0.10679 0.85654 0.1794 0.0
C470 C 0.86162 0.09646 0.66382 0.0
C471 C 0.86089 0.13008 0.62876 0.0
H472 H 0.88929 0.07321 0.7324 0.0
C473 C 0.88301 0.16919 0.64061 0.0
H474 H 0.84436 0.06611 0.6562 0.0
C475 C 0.90851 0.17328 0.68421 0.0
C476 C 0.91276 0.13836 0.71707 0.0
H477 H 0.88369 0.19569 0.61453 0.0
H478 H 0.92701 0.2032 0.69073 0.0
C479 C 0.88734 0.10053 0.70753 0.0
loop_
_geom_bond_atom_site_label_1
_geom_bond_atom_site_label_2
_geom_bond_distance
_geom_bond_site_symmetry_2
_ccdc_geom_bond_type
H0 C1 0.949 . S
C1 H0 0.949 . S
C1 C2 1.395 . S
C1 C3 1.391 1_556 S
C2 C1 1.395 . S
C2 C5 1.390 1_556 S
C3 C1 1.391 1_554 S
C3 C7 1.387 . S
C3 C8 1.491 . S
H4 C5 0.950 . S
C5 C2 1.390 1_554 S
C5 H4 0.950 . S
C5 C6 1.378 . S
C6 C5 1.378 . S
C6 C7 1.409 . S
C7 C3 1.387 . S
C7 C6 1.409 . S
C7 H9 0.951 . S
C8 C3 1.491 . S
C8 C10 1.382 1_554 S
C8 C12 1.404 . S
H9 C7 0.951 . S
C10 C8 1.382 1_556 S
C10 C11 1.390 . S
C10 H15 0.949 . S
C11 C10 1.390 . S
C11 C16 1.399 1_556 S
C12 C8 1.404 . S
C12 H13 0.950 . S
C12 C14 1.375 . S
H13 C12 0.950 . S
C14 C12 1.375 . S
C14 C16 1.382 . S
C14 H18 0.950 . S
H15 C10 0.949 . S
C16 C11 1.399 1_554 S
C16 C14 1.382 . S
C16 H17 0.952 . S
H17 C16 0.952 . S
H18 C14 0.950 . S
H19 C20 0.949 . S
C20 H19 0.949 . S
C20 C21 1.395 . S
C20 C22 1.391 . S
C21 C20 1.395 . S
C21 C24 1.390 . S
C22 C20 1.391 . S
C22 C26 1.387 . S
C22 C27 1.491 . S
H23 C24 0.950 . S
C24 C21 1.390 . S
C24 H23 0.950 . S
C24 C25 1.378 . S
C25 C24 1.378 . S
C25 C26 1.409 . S
C26 C22 1.387 . S
C26 C25 1.409 . S
C26 H28 0.951 . S
C27 C22 1.491 . S
C27 C29 1.382 . S
C27 C31 1.404 . S
H28 C26 0.951 . S
C29 C27 1.382 . S
C29 C30 1.390 . S
C29 H34 0.949 . S
C30 C29 1.390 . S
C30 C35 1.399 . S
C31 C27 1.404 . S
C31 H32 0.950 . S
C31 C33 1.375 . S
H32 C31 0.950 . S
C33 C31 1.375 . S
C33 C35 1.382 . S
C33 H37 0.950 . S
H34 C29 0.949 . S
C35 C30 1.399 . S
C35 C33 1.382 . S
C35 H36 0.952 . S
H36 C35 0.952 . S
H37 C33 0.950 . S
H38 C39 0.949 . S
C39 H38 0.949 . S
C39 C40 1.395 . S
C39 C41 1.391 1_556 S
C40 C39 1.395 . S
C40 C43 1.390 1_556 S
C41 C39 1.391 1_554 S
C41 C45 1.387 . S
C41 C46 1.491 . S
H42 C43 0.950 . S
C43 C40 1.390 1_554 S
C43 H42 0.950 . S
C43 C44 1.378 . S
C44 C43 1.378 . S
C44 C45 1.409 . S
C45 C41 1.387 . S
C45 C44 1.409 . S
C45 H47 0.951 . S
C46 C41 1.491 . S
C46 C48 1.382 1_554 S
C46 C50 1.404 . S
H47 C45 0.951 . S
C48 C46 1.382 1_556 S
C48 C49 1.390 . S
C48 H53 0.949 . S
C49 C48 1.390 . S
C49 C54 1.399 . S
C50 C46 1.404 . S
C50 H51 0.950 . S
C50 C52 1.375 . S
H51 C50 0.950 . S
C52 C50 1.375 . S
C52 C54 1.382 1_554 S
C52 H56 0.950 . S
H53 C48 0.949 . S
C54 C49 1.399 . S
C54 C52 1.382 1_556 S
C54 H55 0.952 . S
H55 C54 0.952 . S
H56 C52 0.950 . S
H57 C58 0.949 . S
C58 H57 0.949 . S
C58 C59 1.395 . S
C58 C60 1.391 . S
C59 C58 1.395 . S
C59 C62 1.390 . S
C60 C58 1.391 . S
C60 C64 1.387 . S
C60 C65 1.491 . S
H61 C62 0.950 . S
C62 C59 1.390 . S
C62 H61 0.950 . S
C62 C63 1.378 . S
C63 C62 1.378 . S
C63 C64 1.409 . S
C64 C60 1.387 . S
C64 C63 1.409 . S
C64 H66 0.951 . S
C65 C60 1.491 . S
C65 C67 1.382 . S
C65 C69 1.404 . S
H66 C64 0.951 . S
C67 C65 1.382 . S
C67 C68 1.390 . S
C67 H72 0.949 . S
C68 C67 1.390 . S
C68 C73 1.399 . S
C69 C65 1.404 . S
C69 H70 0.950 . S
C69 C71 1.375 . S
H70 C69 0.950 . S
C71 C69 1.375 . S
C71 C73 1.382 . S
C71 H75 0.950 . S
H72 C67 0.949 . S
C73 C68 1.399 . S
C73 C71 1.382 . S
C73 H74 0.952 . S
H74 C73 0.952 . S
H75 C71 0.950 . S
H76 C77 0.949 . S
C77 H76 0.949 . S
C77 C78 1.395 . S
C77 C79 1.391 1_556 S
C78 C77 1.395 . S
C78 C81 1.390 1_556 S
C79 C77 1.391 1_554 S
C79 C83 1.387 . S
C79 C84 1.491 . S
H80 C81 0.950 . S
C81 C78 1.390 1_554 S
C81 H80 0.950 . S
C81 C82 1.378 . S
C82 C81 1.378 . S
C82 C83 1.409 . S
C83 C79 1.387 . S
C83 C82 1.409 . S
C83 H85 0.951 . S
C84 C79 1.491 . S
C84 C86 1.382 1_554 S
C84 C88 1.404 . S
H85 C83 0.951 . S
C86 C84 1.382 1_556 S
C86 C87 1.390 . S
C86 H91 0.949 . S
C87 C86 1.390 . S
C87 C92 1.399 1_556 S
C88 C84 1.404 . S
C88 H89 0.950 . S
C88 C90 1.375 . S
H89 C88 0.950 . S
C90 C88 1.375 . S
C90 C92 1.382 . S
C90 H94 0.950 . S
H91 C86 0.949 . S
C92 C87 1.399 1_554 S
C92 C90 1.382 . S
C92 H93 0.952 . S
H93 C92 0.952 . S
H94 C90 0.950 . S
H95 C96 0.949 . S
C96 H95 0.949 . S
C96 C97 1.395 . S
C96 C98 1.391 . S
C97 C96 1.395 . S
C97 C100 1.390 . S
C98 C96 1.391 . S
C98 C102 1.387 . S
C98 C103 1.491 . S
H99 C100 0.950 . S
C100 C97 1.390 . S
C100 H99 0.950 . S
C100 C101 1.378 . S
C101 C100 1.378 . S
C101 C102 1.409 . S
C102 C98 1.387 . S
C102 C101 1.409 . S
C102 H104 0.951 . S
C103 C98 1.491 . S
C103 C105 1.382 . S
C103 C107 1.404 . S
H104 C102 0.951 . S
C105 C103 1.382 . S
C105 C106 1.390 . S
C105 H110 0.949 . S
C106 C105 1.390 . S
C106 C111 1.399 . S
C107 C103 1.404 . S
C107 H108 0.950 . S
C107 C109 1.375 . S
H108 C107 0.950 . S
C109 C107 1.375 . S
C109 C111 1.382 . S
C109 H113 0.950 . S
H110 C105 0.949 . S
C111 C106 1.399 . S
C111 C109 1.382 . S
C111 H112 0.952 . S
H112 C111 0.952 . S
H113 C109 0.950 . S
H114 C115 0.949 . S
C115 H114 0.949 . S
C115 C116 1.395 . S
C115 C117 1.391 1_556 S
C116 C115 1.395 . S
C116 C119 1.390 1_556 S
C117 C115 1.391 1_554 S
C117 C121 1.387 . S
C117 C122 1.491 . S
H118 C119 0.950 . S
C119 C116 1.390 1_554 S
C119 H118 0.950 . S
C119 C120 1.378 . S
C120 C119 1.378 . S
C120 C121 1.409 . S
C121 C117 1.387 . S
C121 C120 1.409 . S
C121 H123 0.951 . S
C122 C117 1.491 . S
C122 C124 1.382 1_554 S
C122 C126 1.404 . S
H123 C121 0.951 . S
C124 C122 1.382 1_556 S
C124 C125 1.390 . S
C124 H129 0.949 . S
C125 C124 1.390 . S
C125 C130 1.399 . S
C126 C122 1.404 . S
C126 H127 0.950 . S
C126 C128 1.375 . S
H127 C126 0.950 . S
C128 C126 1.375 . S
C128 C130 1.382 1_554 S
C128 H132 0.950 . S
H129 C124 0.949 . S
C130 C125 1.399 . S
C130 C128 1.382 1_556 S
C130 H131 0.952 . S
H131 C130 0.952 . S
H132 C128 0.950 . S
H133 C134 0.949 . S
C134 H133 0.949 . S
C134 C135 1.395 . S
C134 C136 1.391 . S
C135 C134 1.395 . S
C135 C138 1.390 . S
C136 C134 1.391 . S
C136 C140 1.387 . S
C136 C141 1.491 . S
H137 C138 0.950 . S
C138 C135 1.390 . S
C138 H137 0.950 . S
C138 C139 1.378 . S
C139 C138 1.378 . S
C139 C140 1.409 . S
C140 C136 1.387 . S
C140 C139 1.409 . S
C140 H142 0.951 . S
C141 C136 1.491 . S
C141 C143 1.382 . S
C141 C145 1.404 . S
H142 C140 0.951 . S
C143 C141 1.382 . S
C143 C144 1.390 . S
C143 H148 0.949 . S
C144 C143 1.390 . S
C144 C149 1.399 . S
C145 C141 1.404 . S
C145 H146 0.950 . S
C145 C147 1.375 . S
H146 C145 0.950 . S
C147 C145 1.375 . S
C147 C149 1.382 . S
C147 H151 0.950 . S
H148 C143 0.949 . S
C149 C144 1.399 . S
C149 C147 1.382 . S
C149 H150 0.952 . S
H150 C149 0.952 . S
H151 C147 0.950 . S
Fe152 O154 1.918 . S
Fe152 O157 1.997 1_455 S
Fe152 O158 2.002 1_455 S
Fe152 O163 1.976 . S
Fe152 O166 1.996 . S
Fe153 O154 1.918 . S
Fe153 O161 1.997 1_455 S
Fe153 O164 1.996 . S
Fe153 O168 1.976 . S
Fe153 O171 2.002 1_455 S
O154 Fe152 1.918 . S
O154 Fe153 1.918 . S
O154 Fe155 1.918 . S
Fe155 O154 1.918 . S
Fe155 O156 2.002 1_455 S
Fe155 O165 1.976 . S
Fe155 O169 1.996 . S
Fe155 O172 1.997 1_455 S
O156 Fe155 2.002 1_655 S
O156 C173 1.295 . S
O157 Fe152 1.997 1_655 S
O157 C173 1.235 . S
O158 Fe152 2.002 1_655 S
O158 C159 1.295 . S
C159 O158 1.295 . S
C159 O161 1.235 . S
C160 O165 1.287 . S
C160 O166 1.255 . S
O161 Fe153 1.997 1_655 S
O161 C159 1.235 . S
C162 O168 1.287 . S
C162 O169 1.255 . S
O163 Fe152 1.976 . S
O163 C170 1.287 . S
O164 Fe153 1.996 . S
O164 C170 1.255 . S
O165 Fe155 1.976 . S
O165 C160 1.287 . S
O166 Fe152 1.996 . S
O166 C160 1.255 . S
C167 O171 1.295 . S
C167 O172 1.235 . S
O168 Fe153 1.976 . S
O168 C162 1.287 . S
O169 Fe155 1.996 . S
O169 C162 1.255 . S
C170 O163 1.287 . S
C170 O164 1.255 . S
O171 Fe153 2.002 1_655 S
O171 C167 1.295 . S
O172 Fe155 1.997 1_655 S
O172 C167 1.235 . S
C173 O156 1.295 . S
C173 O157 1.235 . S
Fe174 O176 1.918 . S
Fe174 O179 1.997 1_655 S
Fe174 O180 2.002 1_655 S
Fe174 O185 1.976 . S
Fe174 O188 1.996 . S
Fe175 O176 1.918 . S
Fe175 O183 1.997 1_655 S
Fe175 O186 1.996 . S
Fe175 O190 1.976 . S
Fe175 O193 2.002 1_655 S
O176 Fe174 1.918 . S
O176 Fe175 1.918 . S
O176 Fe177 1.918 . S
Fe177 O176 1.918 . S
Fe177 O178 2.002 1_655 S
Fe177 O187 1.976 . S
Fe177 O191 1.996 . S
Fe177 O194 1.997 1_655 S
O178 Fe177 2.002 1_455 S
O178 C195 1.295 . S
O179 Fe174 1.997 1_455 S
O179 C195 1.235 . S
O180 Fe174 2.002 1_455 S
O180 C181 1.295 . S
C181 O180 1.295 . S
C181 O183 1.235 . S
C182 O187 1.287 . S
C182 O188 1.255 . S
O183 Fe175 1.997 1_455 S
O183 C181 1.235 . S
C184 O190 1.287 . S
C184 O191 1.255 . S
O185 Fe174 1.976 . S
O185 C192 1.287 . S
O186 Fe175 1.996 . S
O186 C192 1.255 . S
O187 Fe177 1.976 . S
O187 C182 1.287 . S
O188 Fe174 1.996 . S
O188 C182 1.255 . S
C189 O193 1.295 . S
C189 O194 1.235 . S
O190 Fe175 1.976 . S
O190 C184 1.287 . S
O191 Fe177 1.996 . S
O191 C184 1.255 . S
C192 O185 1.287 . S
C192 O186 1.255 . S
O193 Fe175 2.002 1_455 S
O193 C189 1.295 . S
O194 Fe177 1.997 1_455 S
O194 C189 1.235 . S
C195 O178 1.295 . S
C195 O179 1.235 . S
Fe196 O198 1.918 . S
Fe196 O201 1.997 . S
Fe196 O202 2.002 . S
Fe196 O207 1.976 . S
Fe196 O210 1.996 . S
Fe197 O198 1.918 . S
Fe197 O205 1.997 . S
Fe197 O208 1.996 . S
Fe197 O212 1.976 . S
Fe197 O215 2.002 . S
O198 Fe196 1.918 . S
O198 Fe197 1.918 . S
O198 Fe199 1.918 . S
Fe199 O198 1.918 . S
Fe199 O200 2.002 . S
Fe199 O209 1.976 . S
Fe199 O213 1.996 . S
Fe199 O216 1.997 . S
O200 Fe199 2.002 . S
O200 C217 1.295 . S
O201 Fe196 1.997 . S
O201 C217 1.235 . S
O202 Fe196 2.002 . S
O202 C203 1.295 . S
C203 O202 1.295 . S
C203 O205 1.235 . S
C204 O209 1.287 . S
C204 O210 1.255 . S
O205 Fe197 1.997 . S
O205 C203 1.235 . S
C206 O212 1.287 . S
C206 O213 1.255 . S
O207 Fe196 1.976 . S
O207 C214 1.287 . S
O208 Fe197 1.996 . S
O208 C214 1.255 . S
O209 Fe199 1.976 . S
O209 C204 1.287 . S
O210 Fe196 1.996 . S
O210 C204 1.255 . S
C211 O215 1.295 . S
C211 O216 1.235 . S
O212 Fe197 1.976 . S
O212 C206 1.287 . S
O213 Fe199 1.996 . S
O213 C206 1.255 . S
C214 O207 1.287 . S
C214 O208 1.255 . S
O215 Fe197 2.002 . S
O215 C211 1.295 . S
O216 Fe199 1.997 . S
O216 C211 1.235 . S
C217 O200 1.295 . S
C217 O201 1.235 . S
Fe218 O220 1.918 . S
Fe218 O223 1.997 . S
Fe218 O224 2.002 . S
Fe218 O229 1.976 . S
Fe218 O232 1.996 . S
Fe219 O220 1.918 . S
Fe219 O227 1.997 . S
Fe219 O230 1.996 . S
Fe219 O234 1.976 . S
Fe219 O237 2.002 . S
O220 Fe218 1.918 . S
O220 Fe219 1.918 . S
O220 Fe221 1.918 . S
Fe221 O220 1.918 . S
Fe221 O222 2.002 . S
Fe221 O231 1.976 . S
Fe221 O235 1.996 . S
Fe221 O238 1.997 . S
O222 Fe221 2.002 . S
O222 C239 1.295 . S
O223 Fe218 1.997 . S
O223 C239 1.235 . S
O224 Fe218 2.002 . S
O224 C225 1.295 . S
C225 O224 1.295 . S
C225 O227 1.235 . S
C226 O231 1.287 . S
C226 O232 1.255 . S
O227 Fe219 1.997 . S
O227 C225 1.235 . S
C228 O234 1.287 . S
C228 O235 1.255 . S
O229 Fe218 1.976 . S
O229 C236 1.287 . S
O230 Fe219 1.996 . S
O230 C236 1.255 . S
O231 Fe221 1.976 . S
O231 C226 1.287 . S
O232 Fe218 1.996 . S
O232 C226 1.255 . S
C233 O237 1.295 . S
C233 O238 1.235 . S
O234 Fe219 1.976 . S
O234 C228 1.287 . S
O235 Fe221 1.996 . S
O235 C228 1.255 . S
C236 O229 1.287 . S
C236 O230 1.255 . S
O237 Fe219 2.002 . S
O237 C233 1.295 . S
O238 Fe221 1.997 . S
O238 C233 1.235 . S
C239 O222 1.295 . S
C239 O223 1.235 . S
C240 C241 1.387 . S
C240 H244 0.950 . S
C240 C249 1.390 . S
C241 C240 1.387 . S
C241 C243 1.387 . S
H242 C249 0.950 . S
C243 C241 1.387 . S
C243 C245 1.390 . S
C243 H247 0.950 . S
H244 C240 0.950 . S
C245 C243 1.390 . S
C245 C246 1.387 . S
C245 H248 0.950 . S
C246 C245 1.387 . S
C246 C249 1.387 . S
H247 C243 0.950 . S
H248 C245 0.950 . S
C249 C240 1.390 . S
C249 H242 0.950 . S
C249 C246 1.387 . S
C250 C251 1.387 . S
C250 H254 0.950 . S
C250 C259 1.390 . S
C251 C250 1.387 . S
C251 C253 1.387 . S
H252 C259 0.950 . S
C253 C251 1.387 . S
C253 C255 1.390 . S
C253 H257 0.950 . S
H254 C250 0.950 . S
C255 C253 1.390 . S
C255 C256 1.387 . S
C255 H258 0.950 . S
C256 C255 1.387 . S
C256 C259 1.387 . S
H257 C253 0.950 . S
H258 C255 0.950 . S
C259 C250 1.390 . S
C259 H252 0.950 . S
C259 C256 1.387 . S
C260 C261 1.387 . S
C260 H264 0.950 1_556 S
C260 C269 1.390 . S
C261 C260 1.387 . S
C261 C263 1.387 . S
H262 C269 0.950 . S
C263 C261 1.387 . S
C263 C265 1.390 . S
C263 H267 0.950 . S
H264 C260 0.950 1_554 S
C265 C263 1.390 . S
C265 C266 1.387 . S
C265 H268 0.950 . S
C266 C265 1.387 . S
C266 C269 1.387 . S
H267 C263 0.950 . S
H268 C265 0.950 . S
C269 C260 1.390 . S
C269 H262 0.950 . S
C269 C266 1.387 . S
C270 C271 1.387 . S
C270 H274 0.950 . S
C270 C279 1.390 . S
C271 C270 1.387 . S
C271 C273 1.387 . S
H272 C279 0.950 . S
C273 C271 1.387 . S
C273 C275 1.390 . S
C273 H277 0.950 . S
H274 C270 0.950 . S
C275 C273 1.390 . S
C275 C276 1.387 . S
C275 H278 0.950 . S
C276 C275 1.387 . S
C276 C279 1.387 . S
H277 C273 0.950 . S
H278 C275 0.950 . S
C279 C270 1.390 . S
C279 H272 0.950 . S
C279 C276 1.387 . S
C280 C281 1.387 . S
C280 H284 0.950 1_556 S
C280 C289 1.390 . S
C281 C280 1.387 . S
C281 C283 1.387 . S
H282 C289 0.950 . S
C283 C281 1.387 . S
C283 C285 1.390 . S
C283 H287 0.950 . S
H284 C280 0.950 1_554 S
C285 C283 1.390 . S
C285 C286 1.387 . S
C285 H288 0.950 . S
C286 C285 1.387 . S
C286 C289 1.387 . S
H287 C283 0.950 . S
H288 C285 0.950 . S
C289 C280 1.390 . S
C289 H282 0.950 . S
C289 C286 1.387 . S
C290 C291 1.387 . S
C290 H294 0.950 . S
C290 C299 1.390 . S
C291 C290 1.387 . S
C291 C293 1.387 . S
H292 C299 0.950 . S
C293 C291 1.387 . S
C293 C295 1.390 . S
C293 H297 0.950 . S
H294 C290 0.950 . S
C295 C293 1.390 . S
C295 C296 1.387 . S
C295 H298 0.950 . S
C296 C295 1.387 . S
C296 C299 1.387 . S
H297 C293 0.950 . S
H298 C295 0.950 . S
C299 C290 1.390 . S
C299 H292 0.950 . S
C299 C296 1.387 . S
C300 C301 1.387 . S
C300 H304 0.950 1_556 S
C300 C309 1.390 . S
C301 C300 1.387 . S
C301 C303 1.387 . S
H302 C309 0.950 . S
C303 C301 1.387 . S
C303 C305 1.390 . S
C303 H307 0.950 . S
H304 C300 0.950 1_554 S
C305 C303 1.390 . S
C305 C306 1.387 . S
C305 H308 0.950 . S
C306 C305 1.387 . S
C306 C309 1.387 . S
H307 C303 0.950 . S
H308 C305 0.950 . S
C309 C300 1.390 . S
C309 H302 0.950 . S
C309 C306 1.387 . S
C310 C311 1.387 . S
C310 H314 0.950 . S
C310 C319 1.390 . S
C311 C310 1.387 . S
C311 C313 1.387 . S
H312 C319 0.950 . S
C313 C311 1.387 . S
C313 C315 1.390 . S
C313 H317 0.950 . S
H314 C310 0.950 . S
C315 C313 1.390 . S
C315 C316 1.387 . S
C315 H318 0.950 . S
C316 C315 1.387 . S
C316 C319 1.387 . S
H317 C313 0.950 . S
H318 C315 0.950 . S
C319 C310 1.390 . S
C319 H312 0.950 . S
C319 C316 1.387 . S
C320 C321 1.387 . S
C320 H324 0.950 1_556 S
C320 C329 1.390 . S
C321 C320 1.387 . S
C321 C323 1.387 . S
H322 C329 0.950 . S
C323 C321 1.387 . S
C323 C325 1.390 . S
C323 H327 0.950 . S
H324 C320 0.950 1_554 S
C325 C323 1.390 . S
C325 C326 1.387 . S
C325 H328 0.950 . S
C326 C325 1.387 . S
C326 C329 1.387 . S
H327 C323 0.950 . S
H328 C325 0.950 . S
C329 C320 1.390 . S
C329 H322 0.950 . S
C329 C326 1.387 . S
C330 C331 1.387 . S
C330 H334 0.950 . S
C330 C339 1.390 . S
C331 C330 1.387 . S
C331 C333 1.387 . S
H332 C339 0.950 . S
C333 C331 1.387 . S
C333 C335 1.390 . S
C333 H337 0.950 . S
H334 C330 0.950 . S
C335 C333 1.390 . S
C335 C336 1.387 . S
C335 H338 0.950 . S
C336 C335 1.387 . S
C336 C339 1.387 . S
H337 C333 0.950 . S
H338 C335 0.950 . S
C339 C330 1.390 . S
C339 H332 0.950 . S
C339 C336 1.387 . S
C340 C341 1.387 . S
C340 H344 0.950 1_556 S
C340 C349 1.390 . S
C341 C340 1.387 . S
C341 C343 1.387 . S
H342 C349 0.950 . S
C343 C341 1.387 . S
C343 C345 1.390 . S
C343 H347 0.950 . S
H344 C340 0.950 1_554 S
C345 C343 1.390 . S
C345 C346 1.387 . S
C345 H348 0.950 . S
C346 C345 1.387 . S
C346 C349 1.387 . S
H347 C343 0.950 . S
H348 C345 0.950 . S
C349 C340 1.390 . S
C349 H342 0.950 . S
C349 C346 1.387 . S
C350 C351 1.387 . S
C350 H354 0.950 . S
C350 C359 1.390 . S
C351 C350 1.387 . S
C351 C353 1.387 . S
H352 C359 0.950 . S
C353 C351 1.387 . S
C353 C355 1.390 . S
C353 H357 0.950 . S
H354 C350 0.950 . S
C355 C353 1.390 . S
C355 C356 1.387 . S
C355 H358 0.950 . S
C356 C355 1.387 . S
C356 C359 1.387 . S
H357 C353 0.950 . S
H358 C355 0.950 . S
C359 C350 1.390 . S
C359 H352 0.950 . S
C359 C356 1.387 . S
C360 C361 1.387 . S
C360 H364 0.950 1_565 S
C360 C369 1.390 1_565 S
C361 C360 1.387 . S
C361 C363 1.387 . S
H362 C369 0.950 . S
C363 C361 1.387 . S
C363 C365 1.390 . S
C363 H367 0.950 . S
H364 C360 0.950 1_545 S
C365 C363 1.390 . S
C365 C366 1.373 1_565 S
C365 H368 0.950 . S
C366 C365 1.373 1_545 S
C366 C369 1.394 . S
H367 C363 0.950 . S
H368 C365 0.950 . S
C369 C360 1.390 1_545 S
C369 H362 0.950 . S
C369 C366 1.394 . S
C370 C371 1.387 . S
C370 H374 0.950 . S
C370 C379 1.390 . S
C371 C370 1.387 . S
C371 C373 1.387 . S
H372 C379 0.950 . S
C373 C371 1.387 . S
C373 C375 1.390 1_545 S
C373 H377 0.950 . S
H374 C370 0.950 . S
C375 C373 1.390 1_565 S
C375 C376 1.391 . S
C375 H378 0.950 . S
C376 C375 1.391 . S
C376 C379 1.373 1_565 S
H377 C373 0.950 . S
H378 C375 0.950 . S
C379 C370 1.390 . S
C379 H372 0.950 . S
C379 C376 1.373 1_545 S
C380 C381 1.387 . S
C380 H384 0.950 . S
C380 C389 1.390 . S
C381 C380 1.387 . S
C381 C383 1.387 . S
H382 C389 0.950 . S
C383 C381 1.387 . S
C383 C385 1.390 1_565 S
C383 H387 0.950 1_566 S
H384 C380 0.950 . S
C385 C383 1.390 1_545 S
C385 C386 1.387 . S
C385 H388 0.950 . S
C386 C385 1.387 . S
C386 C389 1.387 1_545 S
H387 C383 0.950 1_544 S
H388 C385 0.950 . S
C389 C380 1.390 . S
C389 H382 0.950 . S
C389 C386 1.387 1_565 S
C390 C391 1.387 . S
C390 H394 0.950 . S
C390 C399 1.390 . S
C391 C390 1.387 . S
C391 C393 1.387 . S
H392 C399 0.950 . S
C393 C391 1.387 . S
C393 C395 1.387 1_545 S
C393 H397 0.950 . S
H394 C390 0.950 . S
C395 C393 1.387 1_565 S
C395 C396 1.388 . S
C395 H398 0.952 . S
C396 C395 1.388 . S
C396 C399 1.387 1_565 S
H397 C393 0.950 . S
H398 C395 0.952 . S
C399 C390 1.390 . S
C399 H392 0.950 . S
C399 C396 1.387 1_545 S
C400 C401 1.387 . S
C400 H404 0.950 . S
C400 C409 1.390 . S
C401 C400 1.387 . S
C401 C403 1.387 . S
H402 C409 0.950 . S
C403 C401 1.387 . S
C403 C405 1.390 . S
C403 H407 0.950 . S
H404 C400 0.950 . S
C405 C403 1.390 . S
C405 C406 1.387 . S
C405 H408 0.950 . S
C406 C405 1.387 . S
C406 C409 1.387 . S
H407 C403 0.950 . S
H408 C405 0.950 . S
C409 C400 1.390 . S
C409 H402 0.950 . S
C409 C406 1.387 . S
C410 C411 1.387 . S
C410 H414 0.950 . S
C410 C419 1.390 . S
C411 C410 1.387 . S
C411 C413 1.387 . S
H412 C419 0.950 . S
C413 C411 1.387 . S
C413 C415 1.390 . S
C413 H417 0.950 . S
H414 C410 0.950 . S
C415 C413 1.390 . S
C415 C416 1.387 . S
C415 H418 0.950 . S
C416 C415 1.387 . S
C416 C419 1.387 . S
H417 C413 0.950 . S
H418 C415 0.950 . S
C419 C410 1.390 . S
C419 H412 0.950 . S
C419 C416 1.387 . S
C420 C421 1.387 . S
C420 H424 0.950 . S
C420 C429 1.390 . S
C421 C420 1.387 . S
C421 C423 1.387 . S
H422 C429 0.950 . S
C423 C421 1.387 . S
C423 C425 1.390 . S
C423 H427 0.950 . S
H424 C420 0.950 . S
C425 C423 1.390 . S
C425 C426 1.387 . S
C425 H428 0.950 . S
C426 C425 1.387 . S
C426 C429 1.387 . S
H427 C423 0.950 . S
H428 C425 0.950 . S
C429 C420 1.390 . S
C429 H422 0.950 . S
C429 C426 1.387 . S
C430 C431 1.387 . S
C430 H434 0.950 . S
C430 C439 1.390 . S
C431 C430 1.387 . S
C431 C433 1.387 . S
H432 C439 0.950 . S
C433 C431 1.387 . S
C433 C435 1.390 . S
C433 H437 0.950 . S
H434 C430 0.950 . S
C435 C433 1.390 . S
C435 C436 1.387 . S
C435 H438 0.950 . S
C436 C435 1.387 . S
C436 C439 1.387 . S
H437 C433 0.950 . S
H438 C435 0.950 . S
C439 C430 1.390 . S
C439 H432 0.950 . S
C439 C436 1.387 . S
C440 C441 1.387 . S
C440 H444 0.950 . S
C440 C449 1.390 . S
C441 C440 1.387 . S
C441 C443 1.387 . S
H442 C449 0.950 . S
C443 C441 1.387 . S
C443 C445 1.390 . S
C443 H447 0.950 . S
H444 C440 0.950 . S
C445 C443 1.390 . S
C445 C446 1.387 . S
C445 H448 0.950 . S
C446 C445 1.387 . S
C446 C449 1.387 . S
H447 C443 0.950 . S
H448 C445 0.950 . S
C449 C440 1.390 . S
C449 H442 0.950 . S
C449 C446 1.387 . S
C450 C451 1.387 . S
C450 H454 0.950 . S
C450 C459 1.390 . S
C451 C450 1.387 . S
C451 C453 1.387 . S
H452 C459 0.950 . S
C453 C451 1.387 . S
C453 C455 1.390 . S
C453 H457 0.950 . S
H454 C450 0.950 . S
C455 C453 1.390 . S
C455 C456 1.387 . S
C455 H458 0.950 . S
C456 C455 1.387 . S
C456 C459 1.387 . S
H457 C453 0.950 . S
H458 C455 0.950 . S
C459 C450 1.390 . S
C459 H452 0.950 . S
C459 C456 1.387 . S
C460 C461 1.387 . S
C460 H464 0.950 . S
C460 C469 1.390 . S
C461 C460 1.387 . S
C461 C463 1.387 . S
H462 C469 0.950 . S
C463 C461 1.387 . S
C463 C465 1.390 . S
C463 H467 0.950 . S
H464 C460 0.950 . S
C465 C463 1.390 . S
C465 C466 1.387 . S
C465 H468 0.950 . S
C466 C465 1.387 . S
C466 C469 1.387 . S
H467 C463 0.950 . S
H468 C465 0.950 . S
C469 C460 1.390 . S
C469 H462 0.950 . S
C469 C466 1.387 . S
C470 C471 1.387 . S
C470 H474 0.950 . S
C470 C479 1.390 . S
C471 C470 1.387 . S
C471 C473 1.387 . S
H472 C479 0.950 . S
C473 C471 1.387 . S
C473 C475 1.390 . S
C473 H477 0.950 . S
H474 C470 0.950 . S
C475 C473 1.390 . S
C475 C476 1.387 . S
C475 H478 0.950 . S
C476 C475 1.387 . S
C476 C479 1.387 . S
H477 C473 0.950 . S
H478 C475 0.950 . S
C479 C470 1.390 . S
C479 H472 0.950 . S
C479 C476 1.387 . S
C241 C11 1.478 . S
C246 C195 1.550 . S
C256 C159 1.550 . S
C251 C30 1.481 . S
C266 C182 1.568 . S
C261 C49 1.365 . S
C276 C170 1.567 . S
C271 C68 1.363 . S
C286 C239 1.550 . S
C281 C87 1.481 . S
C296 C203 1.552 . S
C291 C106 1.479 . S
C301 C125 1.365 . S
C306 C226 1.567 . S
C316 C214 1.566 . S
C311 C144 1.360 . S
C321 C2 1.554 . S
C326 C236 1.603 . S
C336 C206 1.603 . S
C331 C21 1.552 . S
C341 C40 1.569 . S
C346 C225 1.618 . S
C351 C59 1.569 . S
C356 C211 1.617 . S
C366 C192 1.612 . S
C361 C78 1.555 . S
C371 C97 1.552 . S
C376 C162 1.614 . S
C386 C181 1.617 . S
C381 C116 1.571 . S
C396 C167 1.617 . S
C391 C135 1.571 . S
C406 C217 1.561 . S
C401 C6 1.564 . S
C416 C233 1.561 . S
C411 C25 1.564 . S
C421 C44 1.528 . S
C426 C204 1.544 . S
C436 C228 1.544 . S
C431 C63 1.529 . S
C446 C173 1.561 . S
C441 C82 1.564 . S
C451 C101 1.564 . S
C456 C189 1.561 . S
C461 C120 1.528 . S
C466 C160 1.544 . S
C471 C139 1.529 . S
C476 C184 1.543 . S
